# Generated by pormake.
# Topology umb, (4)-cn, num edge types: 1
# Building blocks:
#     Node 0, Type 0, BuildingBlock: QUQFOY_clean_sbu_3, # of connection points: 4
#     Node 1, Type 0, BuildingBlock: QUQFOY_clean_sbu_3, # of connection points: 4
#     Node 2, Type 0, BuildingBlock: QUQFOY_clean_sbu_3, # of connection points: 4
#     Node 3, Type 0, BuildingBlock: QUQFOY_clean_sbu_3, # of connection points: 4
#     Node 4, Type 0, BuildingBlock: QUQFOY_clean_sbu_3, # of connection points: 4
#     Node 5, Type 0, BuildingBlock: QUQFOY_clean_sbu_3, # of connection points: 4
#     Node 6, Type 0, BuildingBlock: QUQFOY_clean_sbu_3, # of connection points: 4
#     Node 7, Type 0, BuildingBlock: QUQFOY_clean_sbu_3, # of connection points: 4
#     Node 8, Type 0, BuildingBlock: QUQFOY_clean_sbu_3, # of connection points: 4
#     Node 9, Type 0, BuildingBlock: QUQFOY_clean_sbu_3, # of connection points: 4
#     Node 10, Type 0, BuildingBlock: QUQFOY_clean_sbu_3, # of connection points: 4
#     Node 11, Type 0, BuildingBlock: QUQFOY_clean_sbu_3, # of connection points: 4
#     Edge 12, Type (0, 0), BuildingBlock: UVAHIK_clean_linker_0, # of connection points: 2
#     Edge 13, Type (0, 0), BuildingBlock: UVAHIK_clean_linker_0, # of connection points: 2
#     Edge 14, Type (0, 0), BuildingBlock: UVAHIK_clean_linker_0, # of connection points: 2
#     Edge 15, Type (0, 0), BuildingBlock: UVAHIK_clean_linker_0, # of connection points: 2
#     Edge 16, Type (0, 0), BuildingBlock: UVAHIK_clean_linker_0, # of connection points: 2
#     Edge 17, Type (0, 0), BuildingBlock: UVAHIK_clean_linker_0, # of connection points: 2
#     Edge 18, Type (0, 0), BuildingBlock: UVAHIK_clean_linker_0, # of connection points: 2
#     Edge 19, Type (0, 0), BuildingBlock: UVAHIK_clean_linker_0, # of connection points: 2
#     Edge 20, Type (0, 0), BuildingBlock: UVAHIK_clean_linker_0, # of connection points: 2
#     Edge 21, Type (0, 0), BuildingBlock: UVAHIK_clean_linker_0, # of connection points: 2
#     Edge 22, Type (0, 0), BuildingBlock: UVAHIK_clean_linker_0, # of connection points: 2
#     Edge 23, Type (0, 0), BuildingBlock: UVAHIK_clean_linker_0, # of connection points: 2
#     Edge 24, Type (0, 0), BuildingBlock: UVAHIK_clean_linker_0, # of connection points: 2
#     Edge 25, Type (0, 0), BuildingBlock: UVAHIK_clean_linker_0, # of connection points: 2
#     Edge 26, Type (0, 0), BuildingBlock: UVAHIK_clean_linker_0, # of connection points: 2
#     Edge 27, Type (0, 0), BuildingBlock: UVAHIK_clean_linker_0, # of connection points: 2
#     Edge 28, Type (0, 0), BuildingBlock: UVAHIK_clean_linker_0, # of connection points: 2
#     Edge 29, Type (0, 0), BuildingBlock: UVAHIK_clean_linker_0, # of connection points: 2
#     Edge 30, Type (0, 0), BuildingBlock: UVAHIK_clean_linker_0, # of connection points: 2
#     Edge 31, Type (0, 0), BuildingBlock: UVAHIK_clean_linker_0, # of connection points: 2
#     Edge 32, Type (0, 0), BuildingBlock: UVAHIK_clean_linker_0, # of connection points: 2
#     Edge 33, Type (0, 0), BuildingBlock: UVAHIK_clean_linker_0, # of connection points: 2
#     Edge 34, Type (0, 0), BuildingBlock: UVAHIK_clean_linker_0, # of connection points: 2
#     Edge 35, Type (0, 0), BuildingBlock: UVAHIK_clean_linker_0, # of connection points: 2
# Relax obj value: 0.254
# Max RMSD: 0.245
# Mean RMSD: 0.245
data_MOF--net-umb--node1-QUQFOY_clean_sbu_3--edge1-UVAHIK_clean_linker_0
_symmetry_space_group_name_H-M    P1
_symmetry_Int_Tables_number       1
_symmetry_cell_setting            triclinic
loop_
_symmetry_equiv_pos_as_xyz
'x, y, z'
_cell_length_a     65.217252
_cell_length_b     64.941535
_cell_length_c     50.560967
_cell_angle_alpha  89.874531
_cell_angle_beta   89.91571
_cell_angle_gamma 120.18801
loop_
_atom_site_label
_atom_site_type_symbol
_atom_site_fract_x
_atom_site_fract_y
_atom_site_fract_z
_atom_type_partial_charge
C0 C 0.45882 0.16186 0.28016 0.0
O1 O 0.45844 0.16869 0.30357 0.0
Cd2 Cd 0.47432 0.15739 0.34141 0.0
O3 O 0.46624 0.1474 0.27614 0.0
Cd4 Cd 0.4819 0.12669 0.30355 0.0
C5 C 0.5302 0.17713 0.31941 0.0
O6 O 0.46619 0.11743 0.35054 0.0
O7 O 0.49956 0.11952 0.34061 0.0
O8 O 0.45554 0.08807 0.28371 0.0
C9 C 0.48368 0.115 0.35778 0.0
O10 O 0.51679 0.17828 0.33692 0.0
C11 C 0.47206 0.08581 0.27335 0.0
O12 O 0.52183 0.16156 0.30114 0.0
O13 O 0.49313 0.10298 0.27634 0.0
C14 C 0.26774 0.47353 0.6105 0.0
O15 O 0.25811 0.4674 0.63315 0.0
Cd16 Cd 0.28346 0.48774 0.67117 0.0
O17 O 0.29022 0.48589 0.60894 0.0
Cd18 Cd 0.32424 0.50065 0.64026 0.0
C19 C 0.31466 0.54499 0.64945 0.0
O20 O 0.31723 0.4855 0.68767 0.0
O21 O 0.34548 0.5214 0.67849 0.0
O22 O 0.33826 0.47498 0.62293 0.0
C23 C 0.33541 0.50486 0.69545 0.0
O24 O 0.29854 0.5298 0.66465 0.0
C25 C 0.35782 0.49187 0.61418 0.0
O26 O 0.32684 0.53905 0.63499 0.0
O27 O 0.36146 0.51291 0.61689 0.0
C28 C 0.76635 0.28426 0.93668 0.0
O29 O 0.76229 0.27477 0.95946 0.0
Cd30 Cd 0.76543 0.30022 -0.00363 0.0
O31 O 0.776 0.30677 0.9348 0.0
Cd32 Cd 0.79332 0.34124 0.96592 0.0
C33 C 0.73852 0.32927 0.97136 0.0
O34 O 0.80033 0.33501 0.01397 0.0
O35 O 0.79181 0.36226 0.00339 0.0
O36 O 0.83358 0.356 0.95025 0.0
C37 C 0.7983 0.35286 0.02102 0.0
O38 O 0.73744 0.31307 -0.01351 0.0
C39 C 0.83626 0.37539 0.94093 0.0
O40 O 0.75743 0.34296 0.9586 0.0
O41 O 0.81864 0.37865 0.94266 0.0
C42 C 0.45261 0.78362 0.27941 0.0
O43 O 0.4538 0.77676 0.30258 0.0
Cd44 Cd 0.43586 0.78542 0.34043 0.0
O45 O 0.44374 0.79695 0.27607 0.0
Cd46 Cd 0.42613 0.81528 0.30446 0.0
C47 C 0.37986 0.76193 0.31731 0.0
O48 O 0.44068 0.82391 0.35181 0.0
O49 O 0.40621 0.81911 0.34167 0.0
O50 O 0.45049 0.85535 0.28655 0.0
C51 C 0.42214 0.82455 0.35897 0.0
O52 O 0.39377 0.76087 0.33417 0.0
C53 C 0.43341 0.85598 0.27528 0.0
O54 O 0.38742 0.77917 0.30091 0.0
O55 O 0.41307 0.83737 0.27704 0.0
C56 C 0.63987 0.46597 0.6097 0.0
O57 O 0.64846 0.46684 0.63245 0.0
Cd58 Cd 0.62312 0.44919 0.67144 0.0
O59 O 0.61769 0.45785 0.6074 0.0
Cd60 Cd 0.58286 0.44162 0.63784 0.0
C61 C 0.58722 0.39356 0.64804 0.0
O62 O 0.5915 0.45604 0.68523 0.0
O63 O 0.56057 0.42187 0.67632 0.0
O64 O 0.56804 0.4674 0.62243 0.0
C65 C 0.57233 0.43778 0.69333 0.0
O66 O 0.60288 0.40672 0.6648 0.0
C67 C 0.54928 0.45066 0.61215 0.0
O68 O 0.57813 0.40216 0.63236 0.0
O69 O 0.54662 0.4299 0.61311 0.0
C70 C 0.14127 0.66035 0.94078 0.0
O71 O 0.14826 0.6693 0.96355 0.0
Cd72 Cd 0.14513 0.64271 -0.00067 0.0
O73 O 0.12941 0.6378 0.93838 0.0
Cd74 Cd 0.11285 0.60214 0.96811 0.0
C75 C 0.16745 0.61185 0.96824 0.0
O76 O 0.10875 0.60903 0.01662 0.0
O77 O 0.11435 0.5801 0.00505 0.0
O78 O 0.07157 0.58642 0.95515 0.0
C79 C 0.10953 0.59039 0.02325 0.0
O80 O 0.17077 0.62807 0.98463 0.0
C81 C 0.06955 0.56798 0.94397 0.0
O82 O 0.14744 0.59917 0.95722 0.0
O83 O 0.08785 0.5658 0.94362 0.0
C84 C 0.75973 0.46415 0.37037 0.0
O85 O 0.75123 0.46403 0.34777 0.0
Cd86 Cd 0.7589 0.44568 0.30954 0.0
O87 O 0.77424 0.45659 0.37266 0.0
Cd88 Cd 0.79227 0.43973 0.34249 0.0
C89 C 0.74014 0.3909 0.33504 0.0
O90 O 0.79729 0.45281 0.29448 0.0
O91 O 0.79366 0.41871 0.30474 0.0
O92 O 0.83322 0.46608 0.35646 0.0
C93 C 0.79798 0.43429 0.28714 0.0
O94 O 0.73713 0.40334 0.31768 0.0
C95 C 0.83554 0.44965 0.3672 0.0
O96 O 0.75808 0.40028 0.35029 0.0
O97 O 0.81747 0.42884 0.36712 0.0
C98 C 0.26386 0.78456 0.70408 0.0
O99 O 0.25537 0.77886 0.68094 0.0
Cd100 Cd 0.28175 0.7848 0.64368 0.0
O101 O 0.28624 0.79613 0.70705 0.0
Cd102 Cd 0.32169 0.81318 0.67753 0.0
C103 C 0.31111 0.75842 0.66855 0.0
O104 O 0.31674 0.82155 0.62969 0.0
O105 O 0.34366 0.81278 0.64033 0.0
O106 O 0.33864 0.85392 0.69338 0.0
C107 C 0.33472 0.81979 0.62276 0.0
O108 O 0.29622 0.75774 0.65183 0.0
C109 C 0.35661 0.85467 0.70411 0.0
O110 O 0.32236 0.77637 0.6836 0.0
O111 O 0.35791 0.8358 0.70313 0.0
C112 C 0.45751 0.28644 0.04512 0.0
O113 O 0.45484 0.27704 0.02249 0.0
Cd114 Cd 0.47894 0.30336 -0.01314 0.0
O115 O 0.46863 0.30903 0.04701 0.0
Cd116 Cd 0.48708 0.34412 0.01643 0.0
C117 C 0.53191 0.33479 0.01847 0.0
O118 O 0.47654 0.33664 0.96791 0.0
O119 O 0.51133 0.36517 0.97936 0.0
O120 O 0.46074 0.3592 0.02826 0.0
C121 C 0.49625 0.35491 0.96114 0.0
O122 O 0.51905 0.31819 0.00244 0.0
C123 C 0.47687 0.3781 0.03902 0.0
O124 O 0.52461 0.34783 0.02862 0.0
O125 O 0.49759 0.38087 0.03963 0.0
C126 C 0.14176 0.47455 0.37602 0.0
O127 O 0.14561 0.46859 0.3535 0.0
Cd128 Cd 0.14203 0.49022 0.31581 0.0
O129 O 0.13179 0.48706 0.37726 0.0
Cd130 Cd 0.11315 0.50199 0.34505 0.0
C131 C 0.16706 0.54691 0.33866 0.0
O132 O 0.10662 0.48795 0.29728 0.0
O133 O 0.11445 0.52377 0.30675 0.0
O134 O 0.07277 0.47591 0.36067 0.0
C135 C 0.10822 0.50754 0.28957 0.0
O136 O 0.16885 0.53215 0.32371 0.0
C137 C 0.06978 0.49263 0.36913 0.0
O138 O 0.1482 0.54052 0.35195 0.0
O139 O 0.0873 0.51371 0.36711 0.0
C140 C 0.64108 0.16175 0.70118 0.0
O141 O 0.64878 0.16933 0.67804 0.0
Cd142 Cd 0.62178 0.15981 0.6404 0.0
O143 O 0.61904 0.14752 0.70467 0.0
Cd144 Cd 0.58323 0.12873 0.67631 0.0
C145 C 0.58707 0.18038 0.66448 0.0
O146 O 0.58901 0.12103 0.62848 0.0
O147 O 0.55988 0.12637 0.63947 0.0
O148 O 0.56974 0.08875 0.6931 0.0
C149 C 0.57 0.1209 0.62172 0.0
O150 O 0.60147 0.18177 0.64662 0.0
C151 C 0.55089 0.08618 0.70362 0.0
O152 O 0.57928 0.16398 0.68195 0.0
O153 O 0.54747 0.10377 0.70214 0.0
C154 C 0.45201 0.65832 0.0445 0.0
O155 O 0.4576 0.6676 0.02163 0.0
Cd156 Cd 0.435 0.64174 0.98514 0.0
O157 O 0.43893 0.63584 0.04659 0.0
Cd158 Cd 0.42168 0.60112 0.01573 0.0
C159 C 0.37905 0.61328 0.01048 0.0
O160 O 0.43512 0.60691 0.96771 0.0
O161 O 0.39922 0.57982 0.9783 0.0
O162 O 0.44743 0.58689 0.03168 0.0
C163 C 0.41526 0.58898 0.96074 0.0
O164 O 0.39425 0.62935 -0.00476 0.0
C165 C 0.43082 0.56739 0.04097 0.0
O166 O 0.38409 0.59947 0.02319 0.0
O167 O 0.40983 0.56382 0.03914 0.0
C168 C 0.47731 0.11407 0.40741 0.0
C169 C 0.48767 0.1097 0.38532 0.0
C170 C 0.48465 0.1125 0.43316 0.0
C171 C 0.53678 0.11683 0.4679 0.0
H172 H 0.49426 0.09048 0.52784 0.0
C173 C 0.57082 0.11143 0.573 0.0
C174 C 0.56033 0.11666 0.5943 0.0
C175 C 0.56132 0.10843 0.54733 0.0
C176 C 0.50648 0.09815 0.51139 0.0
H177 H 0.51271 0.09878 0.37312 0.0
H178 H 0.52509 0.09582 0.41749 0.0
H179 H 0.47814 0.08959 0.48407 0.0
H180 H 0.53157 0.12284 0.60505 0.0
H181 H 0.51571 0.11822 0.56107 0.0
H182 H 0.56517 0.12589 0.49517 0.0
C183 C 0.5118 0.10103 0.41514 0.0
C184 C 0.49716 0.09761 0.48625 0.0
C185 C 0.50453 0.10257 0.38963 0.0
C186 C 0.54015 0.11866 0.5893 0.0
C187 C 0.53082 0.1158 0.56391 0.0
C188 C 0.54612 0.11752 0.49305 0.0
C189 C 0.50249 0.10657 0.43725 0.0
C190 C 0.51219 0.107 0.46416 0.0
C191 C 0.54116 0.11063 0.54246 0.0
C192 C 0.53114 0.10836 0.51524 0.0
H193 H 0.46441 0.11974 0.40477 0.0
H194 H 0.47709 0.1169 0.44978 0.0
H195 H 0.54896 0.12454 0.45141 0.0
H196 H 0.58635 0.10978 0.57611 0.0
H197 H 0.5697 0.10429 0.53135 0.0
C198 C 0.36701 0.52935 0.72812 0.0
C199 C 0.34455 0.50937 0.7231 0.0
C200 C 0.3754 0.53587 0.7539 0.0
C201 C 0.35452 0.53002 0.82295 0.0
H202 H 0.4215 0.55871 0.83917 0.0
C203 C 0.38881 0.557 0.92931 0.0
C204 C 0.40983 0.57886 0.93349 0.0
C205 C 0.38187 0.54764 0.90394 0.0
C206 C 0.40279 0.55098 0.83493 0.0
H207 H 0.3136 0.48013 0.74156 0.0
H208 H 0.32838 0.49142 0.787 0.0
H209 H 0.40715 0.54246 0.79516 0.0
H210 H 0.44041 0.60767 0.91396 0.0
H211 H 0.42817 0.5913 0.8692 0.0
H212 H 0.35014 0.53868 0.86259 0.0
C213 C 0.33939 0.5022 0.77073 0.0
C214 C 0.3945 0.54157 0.80966 0.0
C215 C 0.33097 0.49557 0.7447 0.0
C216 C 0.42416 0.5908 0.91148 0.0
C217 C 0.41712 0.58136 0.88584 0.0
C218 C 0.36279 0.53939 0.84818 0.0
C219 C 0.36165 0.52266 0.77568 0.0
C220 C 0.37024 0.53108 0.80323 0.0
C221 C 0.39563 0.55981 0.88173 0.0
C222 C 0.38706 0.55007 0.85457 0.0
H223 H 0.37806 0.54045 0.71203 0.0
H224 H 0.39241 0.55187 0.75673 0.0
H225 H 0.33584 0.52256 0.81869 0.0
H226 H 0.37739 0.54706 0.94573 0.0
H227 H 0.36556 0.53076 0.90176 0.0
C228 C 0.80172 0.44292 0.23772 0.0
C229 C 0.80197 0.42942 0.25935 0.0
C230 C 0.80362 0.43633 0.21168 0.0
C231 C 0.82089 0.398 0.17296 0.0
H232 H 0.78001 0.40063 0.11925 0.0
C233 C 0.80416 0.35027 0.07043 0.0
C234 C 0.80225 0.36251 0.04846 0.0
C235 C 0.80578 0.35923 0.0962 0.0
C236 C 0.79177 0.39998 0.1339 0.0
H237 H 0.80506 0.39874 0.27039 0.0
H238 H 0.80806 0.38734 0.22572 0.0
H239 H 0.78063 0.41607 0.16327 0.0
H240 H 0.80161 0.39434 0.03648 0.0
H241 H 0.80469 0.40978 0.08069 0.0
H242 H 0.83178 0.3816 0.14358 0.0
C243 C 0.8067 0.40314 0.22853 0.0
C244 C 0.79218 0.40896 0.15921 0.0
C245 C 0.80477 0.40964 0.25431 0.0
C246 C 0.80276 0.38418 0.05285 0.0
C247 C 0.80437 0.39304 0.07836 0.0
C248 C 0.82043 0.38895 0.14765 0.0
C249 C 0.80594 0.41619 0.20674 0.0
C250 C 0.80666 0.40802 0.17919 0.0
C251 C 0.80548 0.38056 0.10049 0.0
C252 C 0.80585 0.38979 0.12774 0.0
H253 H 0.79956 0.45822 0.24085 0.0
H254 H 0.8032 0.44699 0.19541 0.0
H255 H 0.83256 0.39724 0.18766 0.0
H256 H 0.80377 0.33354 0.06779 0.0
H257 H 0.80656 0.34908 0.1128 0.0
C258 C 0.42881 0.82679 0.40863 0.0
C259 C 0.41752 0.82959 0.38638 0.0
C260 C 0.42135 0.82841 0.43433 0.0
C261 C 0.3682 0.82206 0.46939 0.0
H262 H 0.41105 0.85118 0.52829 0.0
C263 C 0.33416 0.82905 0.5739 0.0
C264 C 0.34479 0.82432 0.59544 0.0
C265 C 0.34372 0.83186 0.54824 0.0
C266 C 0.39876 0.84278 0.51212 0.0
H267 H 0.39054 0.83771 0.37382 0.0
H268 H 0.37801 0.84087 0.41803 0.0
H269 H 0.42705 0.85166 0.48448 0.0
H270 H 0.37411 0.81924 0.60672 0.0
H271 H 0.39022 0.82372 0.5627 0.0
H272 H 0.33989 0.81281 0.497 0.0
C273 C 0.39212 0.83678 0.4159 0.0
C274 C 0.408 0.84305 0.48696 0.0
C275 C 0.39948 0.83514 0.39045 0.0
C276 C 0.36535 0.8229 0.59073 0.0
C277 C 0.37481 0.82568 0.56534 0.0
C278 C 0.35896 0.82171 0.49455 0.0
C279 C 0.40247 0.83286 0.43824 0.0
C280 C 0.39285 0.83265 0.46523 0.0
C281 C 0.36416 0.83009 0.54362 0.0
C282 C 0.37407 0.83192 0.51636 0.0
H283 H 0.44266 0.82238 0.40619 0.0
H284 H 0.42973 0.82525 0.45109 0.0
H285 H 0.35591 0.81352 0.45326 0.0
H286 H 0.31834 0.83026 0.57679 0.0
H287 H 0.33512 0.83545 0.53204 0.0
C288 C 0.52482 0.38437 0.92848 0.0
C289 C 0.50252 0.36408 0.93348 0.0
C290 C 0.53178 0.3933 0.90286 0.0
C291 C 0.50927 0.39332 0.83568 0.0
H292 H 0.57447 0.41561 0.81505 0.0
C293 C 0.54108 0.41488 0.72719 0.0
C294 C 0.56425 0.43337 0.72142 0.0
C295 C 0.53346 0.40822 0.75326 0.0
C296 C 0.55632 0.40987 0.82055 0.0
H297 H 0.46992 0.33746 0.91509 0.0
H298 H 0.48216 0.3531 0.86994 0.0
H299 H 0.5609 0.39931 0.85922 0.0
H300 H 0.59739 0.45989 0.73888 0.0
H301 H 0.58398 0.44841 0.78482 0.0
H302 H 0.50468 0.40384 0.79696 0.0
C303 C 0.4942 0.36214 0.88614 0.0
C304 C 0.54846 0.40039 0.84593 0.0
C305 C 0.48719 0.3531 0.91199 0.0
C306 C 0.57943 0.44563 0.74261 0.0
C307 C 0.57178 0.43886 0.76892 0.0
C308 C 0.51714 0.40286 0.81029 0.0
C309 C 0.51672 0.38228 0.88124 0.0
C310 C 0.52481 0.39193 0.85388 0.0
C311 C 0.54874 0.41982 0.77457 0.0
C312 C 0.54077 0.41117 0.80228 0.0
H313 H 0.53713 0.39349 0.94444 0.0
H314 H 0.54901 0.40907 0.90007 0.0
H315 H 0.49107 0.38738 0.84117 0.0
H316 H 0.52882 0.40501 0.71143 0.0
H317 H 0.51576 0.39332 0.7566 0.0
C318 C 0.1033 0.53344 0.25665 0.0
C319 C 0.10419 0.51258 0.26185 0.0
C320 C 0.10145 0.54003 0.23086 0.0
C321 C 0.11329 0.53187 0.16131 0.0
H322 H 0.07756 0.56359 0.14646 0.0
C323 C 0.10417 0.55854 0.05507 0.0
C324 C 0.1059 0.5808 0.05077 0.0
C325 C 0.10233 0.54948 0.08058 0.0
C326 C 0.08784 0.55501 0.15029 0.0
H327 H 0.10327 0.48199 0.24366 0.0
H328 H 0.09984 0.49344 0.19819 0.0
H329 H 0.07623 0.54773 0.19064 0.0
H330 H 0.10648 0.61074 0.07028 0.0
H331 H 0.10342 0.59493 0.11524 0.0
H332 H 0.12505 0.53928 0.12106 0.0
C333 C 0.10082 0.50482 0.21433 0.0
C334 C 0.08704 0.54582 0.17567 0.0
C335 C 0.1026 0.49812 0.24039 0.0
C336 C 0.10514 0.59354 0.07285 0.0
C337 C 0.10333 0.58441 0.0986 0.0
C338 C 0.11407 0.54103 0.13595 0.0
C339 C 0.10042 0.52602 0.20922 0.0
C340 C 0.09989 0.53425 0.18162 0.0
C341 C 0.10225 0.56237 0.10281 0.0
C342 C 0.10142 0.55281 0.13005 0.0
H343 H 0.10445 0.54509 0.27259 0.0
H344 H 0.10158 0.55662 0.22788 0.0
H345 H 0.12377 0.52351 0.16516 0.0
H346 H 0.10441 0.54802 0.03861 0.0
H347 H 0.10095 0.53224 0.08284 0.0
C348 C 0.72064 0.35166 0.35887 0.0
C349 C 0.72339 0.3651 0.33597 0.0
C350 C 0.70407 0.32726 0.35939 0.0
C351 C 0.66755 0.27537 0.31712 0.0
H352 H 0.61845 0.25885 0.36978 0.0
C353 C 0.57032 0.20414 0.3001 0.0
C354 C 0.55586 0.19292 0.3221 0.0
C355 C 0.59423 0.22118 0.30369 0.0
C356 C 0.6322 0.26273 0.35532 0.0
H357 H 0.71203 0.36351 0.2953 0.0
H358 H 0.68339 0.32113 0.29623 0.0
H359 H 0.6555 0.29624 0.3734 0.0
H360 H 0.55506 0.18861 0.36466 0.0
H361 H 0.59688 0.21738 0.37087 0.0
H362 H 0.644 0.24213 0.29858 0.0
C363 C 0.69391 0.32933 0.31374 0.0
C364 C 0.65345 0.28423 0.35745 0.0
C365 C 0.71006 0.35365 0.31336 0.0
C366 C 0.56586 0.19755 0.34745 0.0
C367 C 0.58978 0.21405 0.35099 0.0
C368 C 0.64638 0.25366 0.31515 0.0
C369 C 0.69051 0.316 0.33683 0.0
C370 C 0.67089 0.29113 0.33783 0.0
C371 C 0.60405 0.22678 0.3293 0.0
C372 C 0.62809 0.24752 0.33368 0.0
H373 H 0.73081 0.36009 0.37651 0.0
H374 H 0.70159 0.31727 0.37746 0.0
H375 H 0.68092 0.28033 0.30186 0.0
H376 H 0.56288 0.20068 0.28037 0.0
H377 H 0.60462 0.23079 0.28653 0.0
C378 C 0.30459 0.71982 0.65111 0.0
C379 C 0.3167 0.73906 0.66851 0.0
C380 C 0.31106 0.70252 0.64889 0.0
C381 C 0.33769 0.67374 0.68461 0.0
H382 H 0.3364 0.6476 0.61524 0.0
C383 C 0.30851 0.57657 0.66897 0.0
C384 C 0.32025 0.56997 0.65048 0.0
C385 C 0.31449 0.60024 0.6715 0.0
C386 C 0.33736 0.65499 0.63469 0.0
H387 H 0.34482 0.75498 0.69766 0.0
H388 H 0.3559 0.72421 0.69402 0.0
H389 H 0.33556 0.68462 0.61892 0.0
H390 H 0.34743 0.58305 0.61999 0.0
H391 H 0.35758 0.62473 0.62414 0.0
H392 H 0.33857 0.64362 0.70041 0.0
C393 C 0.34152 0.72282 0.682 0.0
C394 C 0.33665 0.67602 0.63681 0.0
C395 C 0.33511 0.74031 0.68415 0.0
C396 C 0.33801 0.5876 0.63435 0.0
C397 C 0.34389 0.6114 0.63677 0.0
C398 C 0.33837 0.6527 0.68249 0.0
C399 C 0.32973 0.70397 0.66406 0.0
C400 C 0.33574 0.68496 0.66181 0.0
C401 C 0.33227 0.61789 0.65554 0.0
C402 C 0.33714 0.64262 0.65755 0.0
H403 H 0.29025 0.71821 0.63885 0.0
H404 H 0.30123 0.68781 0.63544 0.0
H405 H 0.33705 0.68029 0.7041 0.0
H406 H 0.29475 0.56349 0.68175 0.0
H407 H 0.30482 0.60465 0.68567 0.0
C408 C 0.56052 0.32079 0.02434 0.0
C409 C 0.55609 0.33976 0.0234 0.0
C410 C 0.5837 0.32519 0.02404 0.0
C411 C 0.63892 0.36494 -0.00616 0.0
H412 H 0.66031 0.32824 0.03377 0.0
C413 C 0.72268 0.35717 0.9695 0.0
C414 C 0.71866 0.33386 0.972 0.0
C415 C 0.70503 0.36226 0.97696 0.0
C416 C 0.65459 0.33865 0.02249 0.0
H417 H 0.57205 0.37817 0.02261 0.0
H418 H 0.61301 0.38593 0.02125 0.0
H419 H 0.62613 0.33056 0.04934 0.0
H420 H 0.69255 0.29729 0.98156 0.0
H421 H 0.66171 0.30604 -0.00612 0.0
H422 H 0.66665 0.37188 0.96616 0.0
C423 C 0.59847 0.36773 0.02265 0.0
C424 C 0.63522 0.34013 0.03153 0.0
C425 C 0.57517 0.3633 0.02356 0.0
C426 C 0.69619 0.31546 0.97979 0.0
C427 C 0.67864 0.3205 -0.01291 0.0
C428 C 0.65834 0.36339 0.98471 0.0
C429 C 0.60282 0.34864 0.02227 0.0
C430 C 0.62664 0.35245 0.01671 0.0
C431 C 0.68326 0.34407 -0.01309 0.0
C432 C 0.6656 0.34934 -0.00161 0.0
H433 H 0.54603 0.3025 0.02421 0.0
H434 H 0.5866 0.31017 0.02347 0.0
H435 H 0.63245 0.37439 0.98199 0.0
H436 H 0.73993 0.37169 0.96365 0.0
H437 H 0.70888 0.38054 0.97641 0.0
C438 C 0.34597 0.7273 0.33939 0.0
C439 C 0.35447 0.74372 0.31836 0.0
C440 C 0.32202 0.71042 0.34134 0.0
C441 C 0.27071 0.67573 0.30092 0.0
H442 H 0.24035 0.6547 0.36957 0.0
C443 C 0.20678 0.57869 0.32337 0.0
C444 C 0.18614 0.57206 0.3382 0.0
C445 C 0.22379 0.60256 0.32014 0.0
C446 C 0.24831 0.6606 0.35018 0.0
H447 H 0.34444 0.75551 0.28302 0.0
H448 H 0.30224 0.72535 0.2862 0.0
H449 H 0.27669 0.69325 0.36537 0.0
H450 H 0.16747 0.58529 0.36194 0.0
H451 H 0.1977 0.62735 0.35655 0.0
H452 H 0.24286 0.64268 0.28593 0.0
C453 C 0.31431 0.72585 0.30122 0.0
C454 C 0.26915 0.68255 0.3478 0.0
C455 C 0.33841 0.74299 0.29936 0.0
C456 C 0.18323 0.58986 0.35046 0.0
C457 C 0.20042 0.61388 0.34728 0.0
C458 C 0.24987 0.65381 0.30329 0.0
C459 C 0.30596 0.70944 0.32227 0.0
C460 C 0.28113 0.68973 0.32341 0.0
C461 C 0.22063 0.6204 0.33169 0.0
C462 C 0.23918 0.64557 0.32818 0.0
H463 H 0.3578 0.72742 0.35447 0.0
H464 H 0.31621 0.69765 0.35743 0.0
H465 H 0.27956 0.68082 0.28188 0.0
H466 H 0.20967 0.56545 0.31381 0.0
H467 H 0.23955 0.60706 0.30866 0.0
C468 C 0.56789 0.3537 0.62583 0.0
C469 C 0.57876 0.36786 0.64814 0.0
C470 C 0.5609 0.32952 0.62615 0.0
C471 C 0.5486 0.27912 0.66998 0.0
H472 H 0.58025 0.26286 0.61603 0.0
C473 C 0.57533 0.20793 0.68503 0.0
C474 C 0.5776 0.19655 0.66268 0.0
C475 C 0.56869 0.22521 0.6821 0.0
C476 C 0.57067 0.26667 0.63091 0.0
H477 H 0.58963 0.36771 0.68868 0.0
H478 H 0.57738 0.32567 0.68919 0.0
H479 H 0.5796 0.29972 0.61227 0.0
H480 H 0.57269 0.19223 0.62027 0.0
H481 H 0.56002 0.22137 0.61525 0.0
H482 H 0.54014 0.24629 0.68899 0.0
C483 C 0.57428 0.33316 0.67151 0.0
C484 C 0.57035 0.28787 0.6287 0.0
C485 C 0.58159 0.35729 0.67106 0.0
C486 C 0.57157 0.2013 0.63771 0.0
C487 C 0.56439 0.21802 0.63485 0.0
C488 C 0.54865 0.2577 0.67205 0.0
C489 C 0.56426 0.31916 0.64895 0.0
C490 C 0.56001 0.29463 0.64864 0.0
C491 C 0.56374 0.23086 0.65683 0.0
C492 C 0.56036 0.25161 0.65295 0.0
H493 H 0.56541 0.36143 0.60798 0.0
H494 H 0.55326 0.31899 0.60849 0.0
H495 H 0.54039 0.28397 0.68552 0.0
H496 H 0.57983 0.20437 0.70447 0.0
H497 H 0.56858 0.2349 0.69945 0.0
C498 C 0.18221 0.58339 0.96269 0.0
C499 C 0.18677 0.60694 0.96373 0.0
C500 C 0.20101 0.57886 0.96354 0.0
C501 C 0.26518 0.6062 0.95446 0.0
H502 H 0.26497 0.57275 0.01829 0.0
C503 C 0.3512 0.62808 0.00329 0.0
C504 C 0.35478 0.60922 0.01033 0.0
C505 C 0.32868 0.62368 -0.00324 0.0
C506 C 0.26511 0.58172 0.00015 0.0
H507 H 0.2141 0.64415 0.96462 0.0
H508 H 0.2469 0.63632 0.9652 0.0
H509 H 0.22835 0.57116 0.00381 0.0
H510 H 0.3375 0.57126 0.01806 0.0
H511 H 0.29771 0.56353 0.00655 0.0
H512 H 0.302 0.61754 0.9512 0.0
C513 C 0.22894 0.62138 0.96402 0.0
C514 C 0.2442 0.58072 -0.0082 0.0
C515 C 0.21024 0.62587 0.9638 0.0
C516 C 0.33513 0.5861 0.01277 0.0
C517 C 0.31245 0.58166 0.00605 0.0
C518 C 0.28596 0.60711 0.96269 0.0
C519 C 0.22447 0.59786 0.9647 0.0
C520 C 0.2444 0.59378 0.96951 0.0
C521 C 0.3093 0.60033 -0.00308 0.0
C522 C 0.28635 0.59578 -0.01376 0.0
H523 H 0.16416 0.56854 0.96288 0.0
H524 H 0.19725 0.5606 0.96411 0.0
H525 H 0.26563 0.61622 0.93708 0.0
H526 H 0.36602 0.64611 0.0016 0.0
H527 H 0.32656 0.63851 -0.00939 0.0
C528 C 0.44374 0.04555 0.25515 0.0
C529 C 0.46714 0.06327 0.26079 0.0
C530 C 0.43871 0.02289 0.24722 0.0
C531 C 0.46657 -0.0132 0.22781 0.0
H532 H 0.41315 0.93717 0.26658 0.0
C533 C 0.45916 0.89862 0.26186 0.0
C534 C 0.43663 0.87801 0.26277 0.0
C535 C 0.4617 0.92034 0.25365 0.0
C536 C 0.42783 0.95068 0.25513 0.0
H537 H 0.50379 0.07166 0.26099 0.0
H538 H 0.49501 0.03203 0.24808 0.0
H539 H 0.41959 -0.0227 0.26637 0.0
H540 H 0.39932 0.86364 0.25408 0.0
H541 H 0.40377 0.9016 0.23981 0.0
H542 H 0.47545 0.9601 0.21795 0.0
C543 C 0.48051 0.03561 0.2492 0.0
C544 C 0.43153 -0.02623 0.25494 0.0
C545 C 0.48557 0.05836 0.2568 0.0
C546 C 0.4169 0.87925 0.25379 0.0
C547 C 0.41942 0.90098 0.24569 0.0
C548 C 0.46297 0.96367 0.22821 0.0
C549 C 0.45693 0.01737 0.24514 0.0
C550 C 0.45125 -0.00772 0.2418 0.0
C551 C 0.44174 0.92188 0.24629 0.0
C552 C 0.44385 0.9455 0.24237 0.0
H553 H 0.4292 0.04893 0.25774 0.0
H554 H 0.42041 0.00945 0.24362 0.0
H555 H 0.48171 0.00051 0.21711 0.0
H556 H 0.47473 0.89821 0.26855 0.0
H557 H 0.4791 0.93616 0.25453 0.0
C558 C 0.39977 0.50599 0.60073 0.0
C559 C 0.37623 0.4873 0.60342 0.0
C560 C 0.41781 0.50123 0.59421 0.0
C561 C 0.43064 0.45226 0.59965 0.0
H562 H 0.48845 0.49647 0.56259 0.0
C563 C 0.5087 0.43542 0.59343 0.0
C564 C 0.53045 0.45474 0.60169 0.0
C565 C 0.48969 0.43872 0.58716 0.0
C566 C 0.47237 0.48395 0.57293 0.0
H567 H 0.35283 0.44918 0.59949 0.0
H568 H 0.38416 0.44093 0.58733 0.0
H569 H 0.45479 0.50322 0.56276 0.0
H570 H 0.5498 0.49291 0.60823 0.0
H571 H 0.51658 0.49864 0.59737 0.0
H572 H 0.44828 0.43325 0.61024 0.0
C573 C 0.38885 0.4592 0.59106 0.0
C574 C 0.45312 0.48783 0.57311 0.0
C575 C 0.37086 0.46393 0.59787 0.0
C576 C 0.53324 0.47765 0.60202 0.0
C577 C 0.51424 0.48096 0.59565 0.0
C578 C 0.44977 0.44831 0.5993 0.0
C579 C 0.41266 0.47769 0.58998 0.0
C580 C 0.43217 0.47228 0.58693 0.0
C581 C 0.49207 0.46142 0.58891 0.0
C582 C 0.471 0.46433 0.58638 0.0
H583 H 0.40446 0.52419 0.60491 0.0
H584 H 0.43593 0.51591 0.59384 0.0
H585 H 0.41504 0.44015 0.61096 0.0
H586 H 0.50603 0.41756 0.59279 0.0
H587 H 0.4729 0.42338 0.58168 0.0
C588 C 0.86442 0.41766 0.92812 0.0
C589 C 0.85943 0.39404 0.93059 0.0
C590 C 0.88739 0.43591 0.92209 0.0
C591 C 0.94896 0.4488 0.92862 0.0
H592 H -0.03636 0.50759 0.89294 0.0
C593 C 0.04418 0.52754 0.92452 0.0
C594 C 0.04658 0.54908 0.93357 0.0
C595 C 0.02191 0.50853 0.91779 0.0
C596 C -0.04023 0.49123 0.90289 0.0
H597 H 0.87403 0.37068 0.92669 0.0
H598 H 0.91388 0.40235 0.91528 0.0
H599 H 0.92315 0.47368 0.89184 0.0
H600 H 0.02776 0.5681 0.94116 0.0
H601 H -0.01116 0.53486 0.92943 0.0
H602 H -0.01459 0.4664 0.94002 0.0
C603 C 0.90031 0.40697 0.91887 0.0
C604 C 0.9366 0.47184 0.90234 0.0
C605 C 0.87744 0.38878 0.92525 0.0
C606 C 0.02646 0.55169 0.93436 0.0
C607 C 0.00419 0.5327 0.92748 0.0
C608 C -0.0279 0.46805 0.92895 0.0
C609 C 0.90577 0.43086 0.91809 0.0
C610 C 0.93081 0.45054 0.91569 0.0
C611 C 0.00162 0.51074 0.91982 0.0
C612 C -0.02234 0.48962 0.91655 0.0
H613 H 0.85089 0.42224 0.93216 0.0
H614 H 0.89092 0.45408 0.92194 0.0
H615 H 0.94516 0.43292 0.9396 0.0
H616 H 0.05938 0.52502 0.92353 0.0
H617 H 0.02046 0.49188 0.91165 0.0
C618 C 0.02818 0.46447 0.38377 0.0
C619 C 0.04641 0.4879 0.37879 0.0
C620 C 0.00525 0.45967 0.38965 0.0
C621 C -0.03069 0.4882 0.40615 0.0
H622 H 0.9202 0.43373 0.36858 0.0
C623 C 0.87869 0.47709 0.37639 0.0
C624 C 0.85868 0.45409 0.37727 0.0
C625 C 0.90115 0.48071 0.3826 0.0
C626 C 0.9336 0.44876 0.3796 0.0
H627 H 0.05522 0.52483 0.37724 0.0
H628 H 0.01514 0.51646 0.38666 0.0
H629 H -0.03955 0.44084 0.36856 0.0
H630 H 0.84632 0.41707 0.38682 0.0
H631 H 0.88553 0.42342 0.39759 0.0
H632 H 0.94235 0.4966 0.41605 0.0
C633 C 0.01853 0.50176 0.38659 0.0
C634 C -0.04326 0.45284 0.37967 0.0
C635 C 0.04153 0.50658 0.38102 0.0
C636 C 0.86141 0.43499 0.38579 0.0
C637 C 0.88386 0.43859 0.39186 0.0
C638 C 0.94614 0.48422 0.40588 0.0
C639 C -3e-05 0.47818 0.39033 0.0
C640 C -0.02502 0.47278 0.39264 0.0
C641 C 0.90403 0.46138 0.38968 0.0
C642 C 0.92812 0.46461 0.39232 0.0
H643 H 0.03147 0.44973 0.38247 0.0
H644 H -0.00847 0.44136 0.39303 0.0
H645 H -0.01717 0.50353 0.41667 0.0
H646 H 0.87715 0.49218 0.36996 0.0
H647 H 0.91639 0.49845 0.38057 0.0
C648 C 0.53801 0.04481 0.71903 0.0
C649 C 0.53279 0.06307 0.71486 0.0
C650 C 0.52007 0.02194 0.72609 0.0
C651 C 0.45636 -0.0138 0.74668 0.0
H652 H 0.45871 0.93677 0.70624 0.0
C653 C 0.37421 0.89766 0.71599 0.0
C654 C 0.37609 0.87704 0.71512 0.0
C655 C 0.39376 0.91957 0.72292 0.0
C656 C 0.45795 0.95024 0.7181 0.0
H657 H 0.50498 0.07206 0.71612 0.0
H658 H 0.47357 0.03208 0.72755 0.0
H659 H 0.4926 -0.02313 0.70584 0.0
H660 H 0.39949 0.86294 0.72237 0.0
H661 H 0.43365 0.90126 0.73435 0.0
H662 H 0.42103 0.95951 0.7577 0.0
C663 C 0.49154 0.0354 0.72595 0.0
C664 C 0.47745 -0.0267 0.71794 0.0
C665 C 0.50955 0.05834 0.71923 0.0
C666 C 0.39752 0.87853 0.72271 0.0
C667 C 0.4171 0.90047 0.72948 0.0
C668 C 0.43673 0.96312 0.74663 0.0
C669 C 0.49646 0.01674 0.72875 0.0
C670 C 0.47677 -0.0083 0.73181 0.0
C671 C 0.4156 0.9213 0.72897 0.0
C672 C 0.4372 0.94501 0.73195 0.0
H673 H 0.55584 0.048 0.7161 0.0
H674 H 0.52461 0.00815 0.72869 0.0
H675 H 0.45537 -0.00016 0.75794 0.0
H676 H 0.35791 0.89707 0.71034 0.0
H677 H 0.39211 0.93534 0.72215 0.0
C678 C 0.45898 0.55464 0.05686 0.0
C679 C 0.43563 0.54897 0.05132 0.0
C680 C 0.46403 0.53671 0.06311 0.0
C681 C 0.43644 0.47186 0.07899 0.0
H682 H 0.49156 0.47887 0.04159 0.0
C683 C 0.44917 0.39346 0.04776 0.0
C684 C 0.47215 0.39674 0.04881 0.0
C685 C 0.44522 0.41208 0.05427 0.0
C686 C 0.47635 0.47677 0.05257 0.0
H687 H 0.39908 0.52028 0.0493 0.0
H688 H 0.40793 0.48889 0.05933 0.0
H689 H 0.48382 0.51168 0.04204 0.0
H690 H 0.50881 0.42168 0.05884 0.0
H691 H 0.50189 0.4542 0.0701 0.0
H692 H 0.42851 0.43635 0.08833 0.0
C693 C 0.42234 0.50719 0.05941 0.0
C694 C 0.47191 0.49565 0.05292 0.0
C695 C 0.41725 0.52518 0.05351 0.0
C696 C 0.49091 0.41864 0.05767 0.0
C697 C 0.48698 0.43729 0.06404 0.0
C698 C 0.4408 0.45285 0.07844 0.0
C699 C 0.44589 0.51267 0.06355 0.0
C700 C 0.45172 0.49334 0.06579 0.0
C701 C 0.4642 0.43437 0.06182 0.0
C702 C 0.46063 0.45504 0.06491 0.0
H703 H 0.47347 0.57287 0.05564 0.0
H704 H 0.48229 0.54165 0.06683 0.0
H705 H 0.42092 0.46959 0.08943 0.0
H706 H 0.43434 0.37675 0.04109 0.0
H707 H 0.4275 0.40938 0.05217 0.0
C708 C 0.45049 0.19254 0.26009 0.0
C709 C 0.4527 0.17219 0.25716 0.0
C710 C 0.44742 0.20377 0.23793 0.0
C711 C 0.43 0.19525 0.16699 0.0
H712 H 0.47043 0.26382 0.16271 0.0
C713 C 0.44551 0.2477 0.06864 0.0
C714 C 0.45066 0.27149 0.06957 0.0
C715 C 0.44274 0.23481 0.09199 0.0
C716 C 0.45861 0.24473 0.16364 0.0
H717 H 0.45245 0.14725 0.22851 0.0
H718 H 0.44685 0.16663 0.19007 0.0
H719 H 0.4707 0.24282 0.20247 0.0
H720 H 0.45557 0.29984 0.09601 0.0
H721 H 0.44989 0.27722 0.13653 0.0
H722 H 0.41783 0.19711 0.1282 0.0
C723 C 0.44752 0.17395 0.20949 0.0
C724 C 0.45884 0.23265 0.18654 0.0
C725 C 0.45083 0.16287 0.23158 0.0
C726 C 0.45177 0.28162 0.09448 0.0
C727 C 0.44876 0.26867 0.11781 0.0
C728 C 0.42959 0.20737 0.14414 0.0
C729 C 0.44621 0.19481 0.21229 0.0
C730 C 0.44473 0.20772 0.18845 0.0
C731 C 0.44481 0.24526 0.11699 0.0
C732 C 0.44408 0.2323 0.14197 0.0
H733 H 0.45187 0.20026 0.27943 0.0
H734 H 0.4462 0.21964 0.24087 0.0
H735 H 0.41868 0.17608 0.16788 0.0
H736 H 0.4447 0.23934 0.04986 0.0
H737 H 0.43998 0.21698 0.09034 0.0
C738 C 0.15027 0.47944 0.42488 0.0
C739 C 0.15079 0.46907 0.40065 0.0
C740 C 0.1609 0.47651 0.44754 0.0
C741 C 0.2062 0.46059 0.46819 0.0
H742 H 0.18258 0.4617 0.53822 0.0
C743 C 0.26391 0.47849 0.56169 0.0
C744 C 0.25306 0.46834 0.58608 0.0
C745 C 0.25029 0.47577 0.53916 0.0
C746 C 0.18934 0.46102 0.51888 0.0
H747 H 0.1623 0.44667 0.38175 0.0
H748 H 0.1802 0.44091 0.42139 0.0
H749 H 0.16016 0.461 0.49955 0.0
H750 H 0.21911 0.44662 0.60545 0.0
H751 H 0.19535 0.44125 0.56603 0.0
H752 H 0.23506 0.45996 0.48752 0.0
C753 C 0.17209 0.45189 0.42276 0.0
C754 C 0.17659 0.461 0.49654 0.0
C755 C 0.1616 0.455 0.39999 0.0
C756 C 0.22813 0.45475 0.58707 0.0
C757 C 0.21447 0.45187 0.56442 0.0
C758 C 0.21885 0.46041 0.49053 0.0
C759 C 0.17226 0.46292 0.44684 0.0
C760 C 0.18498 0.46115 0.47078 0.0
C761 C 0.22532 0.46263 0.54016 0.0
C762 C 0.21085 0.461 0.51628 0.0
H763 H 0.14228 0.49054 0.42621 0.0
H764 H 0.16088 0.48565 0.46541 0.0
H765 H 0.2135 0.46093 0.44884 0.0
H766 H 0.28304 0.48922 0.5601 0.0
H767 H 0.25946 0.4847 0.52114 0.0
C768 C 0.74079 0.2448 0.91419 0.0
C769 C 0.7576 0.26926 0.91242 0.0
C770 C 0.73012 0.23144 0.89136 0.0
C771 C 0.73552 0.23045 0.81828 0.0
H772 H 0.66695 0.19193 0.82028 0.0
C773 C 0.67905 0.19245 0.72292 0.0
C774 C 0.6571 0.17113 0.72456 0.0
C775 C 0.69262 0.20288 0.7457 0.0
C776 C 0.68613 0.20216 0.81934 0.0
H777 H 0.77709 0.2985 0.88496 0.0
H778 H 0.75879 0.27512 0.84522 0.0
H779 H 0.68845 0.21234 0.86 0.0
H780 H 0.63289 0.14344 0.75141 0.0
H781 H 0.65682 0.16095 0.79075 0.0
H782 H 0.73329 0.22015 0.77769 0.0
C783 C 0.75378 0.26629 0.86429 0.0
C784 C 0.69848 0.21398 0.84224 0.0
C785 C 0.76423 0.27972 0.88712 0.0
C786 C 0.6496 0.15997 0.74939 0.0
C787 C 0.66329 0.1702 0.77208 0.0
C788 C 0.72318 0.21838 0.7954 0.0
C789 C 0.73618 0.2421 0.86613 0.0
C790 C 0.72332 0.22845 0.84199 0.0
C791 C 0.68475 0.19214 0.77076 0.0
C792 C 0.69823 0.20418 0.79547 0.0
H793 H 0.73518 0.23613 0.93329 0.0
H794 H 0.71684 0.21279 0.89349 0.0
H795 H 0.75468 0.24127 0.81745 0.0
H796 H 0.68532 0.20165 0.70417 0.0
H797 H 0.70884 0.21986 0.74369 0.0
C798 C 0.46602 0.69798 0.06654 0.0
C799 C 0.45838 0.67354 0.06859 0.0
C800 C 0.46892 0.71158 0.08923 0.0
C801 C 0.4765 0.71365 0.16206 0.0
H802 H 0.44598 0.75169 0.16055 0.0
C803 C 0.4601 0.7531 0.25765 0.0
C804 C 0.45898 0.77413 0.25589 0.0
C805 C 0.46281 0.74237 0.23485 0.0
C806 C 0.45508 0.74162 0.16134 0.0
H807 H 0.44885 0.6446 0.09638 0.0
H808 H 0.45436 0.66843 0.13588 0.0
H809 H 0.4464 0.73074 0.12097 0.0
H810 H 0.46114 0.80103 0.22875 0.0
H811 H 0.46692 0.78308 0.18932 0.0
H812 H 0.48545 0.72469 0.20232 0.0
C813 C 0.45798 0.67704 0.1167 0.0
C814 C 0.45521 0.72947 0.13853 0.0
C815 C 0.45476 0.66336 0.094 0.0
C816 C 0.46175 0.78474 0.23087 0.0
C817 C 0.46481 0.77423 0.20814 0.0
C818 C 0.47666 0.72607 0.18484 0.0
C819 C 0.46459 0.70121 0.11459 0.0
C820 C 0.46573 0.71516 0.13862 0.0
C821 C 0.46479 0.75253 0.20962 0.0
C822 C 0.46576 0.74012 0.18495 0.0
H823 H 0.46891 0.70644 0.04734 0.0
H824 H 0.47427 0.73021 0.0869 0.0
H825 H 0.48496 0.70296 0.16276 0.0
H826 H 0.45783 0.7443 0.27655 0.0
H827 H 0.4624 0.72558 0.23702 0.0
C828 C 0.64568 0.4714 0.56028 0.0
C829 C 0.65505 0.4719 0.58551 0.0
C830 C 0.65893 0.47414 0.5373 0.0
C831 C 0.70773 0.4657 0.51313 0.0
H832 H 0.70608 0.50025 0.45134 0.0
C833 C 0.76156 0.47232 0.41927 0.0
C834 C 0.75092 0.47052 0.39454 0.0
C835 C 0.75165 0.47538 0.44252 0.0
C836 C 0.70657 0.49029 0.46828 0.0
H837 H 0.68623 0.47651 0.60611 0.0
H838 H 0.70929 0.48133 0.56611 0.0
H839 H 0.6856 0.50038 0.49175 0.0
H840 H 0.72172 0.47124 0.37502 0.0
H841 H 0.7042 0.47611 0.41545 0.0
H842 H 0.72808 0.45501 0.48969 0.0
C843 C 0.69155 0.47858 0.5641 0.0
C844 C 0.69484 0.49043 0.49154 0.0
C845 C 0.67837 0.47601 0.5871 0.0
C846 C 0.73052 0.47269 0.39365 0.0
C847 C 0.72048 0.47556 0.41695 0.0
C848 C 0.71931 0.46541 0.48987 0.0
C849 C 0.68188 0.47729 0.53885 0.0
C850 C 0.69518 0.47806 0.51429 0.0
C851 C 0.73064 0.47651 0.44185 0.0
C852 C 0.71888 0.47763 0.46699 0.0
H853 H 0.62779 0.46823 0.5582 0.0
H854 H 0.65079 0.47287 0.51827 0.0
H855 H 0.70806 0.4556 0.53004 0.0
H856 H 0.77736 0.47088 0.42079 0.0
H857 H 0.76041 0.47661 0.46111 0.0
C858 C 0.13939 0.66645 0.89182 0.0
C859 C 0.14941 0.67575 0.91667 0.0
C860 C 0.14915 0.67975 0.86862 0.0
C861 C 0.19346 0.74097 0.84325 0.0
H862 H 0.19374 0.70551 0.78182 0.0
C863 C 0.25712 0.78365 0.75327 0.0
C864 C 0.24804 0.77546 0.72778 0.0
C865 C 0.2432 0.773 0.77586 0.0
C866 C 0.19358 0.71571 0.79866 0.0
H867 H 0.1773 0.70676 0.93648 0.0
H868 H 0.1947 0.72962 0.89622 0.0
H869 H 0.17313 0.68424 0.82177 0.0
H870 H 0.21679 0.74996 0.70624 0.0
H871 H 0.19262 0.73129 0.74562 0.0
H872 H 0.21483 0.7725 0.82016 0.0
C873 C 0.17893 0.71225 0.89451 0.0
C874 C 0.18163 0.70348 0.82169 0.0
C875 C 0.16895 0.69906 0.91775 0.0
C876 C 0.22439 0.75682 0.72549 0.0
C877 C 0.21057 0.74596 0.7481 0.0
C878 C 0.20568 0.75322 0.82028 0.0
C879 C 0.16949 0.70264 0.86948 0.0
C880 C 0.18142 0.71587 0.84446 0.0
C881 C 0.21992 0.75365 0.7736 0.0
C882 C 0.20598 0.74075 0.79771 0.0
H883 H 0.12425 0.64862 0.89021 0.0
H884 H 0.14087 0.67185 0.84995 0.0
H885 H 0.19345 0.75127 0.86005 0.0
H886 H 0.27525 0.79793 0.75585 0.0
H887 H 0.25103 0.7793 0.79515 0.0
loop_
_geom_bond_atom_site_label_1
_geom_bond_atom_site_label_2
_geom_bond_distance
_geom_bond_site_symmetry_2
_ccdc_geom_bond_type
C0 O1 1.306 . S
C0 O3 1.160 . S
O1 C0 1.306 . S
O1 Cd2 2.228 . S
Cd2 O1 2.228 . S
Cd2 O6 2.273 . S
Cd2 O10 2.277 . S
O3 C0 1.160 . S
O3 Cd4 2.203 . S
Cd4 O3 2.203 . S
Cd4 O6 2.411 . S
Cd4 O7 2.333 . S
Cd4 O8 2.352 . S
Cd4 O12 2.277 . S
Cd4 O13 2.356 . S
C5 O10 1.209 . S
C5 O12 1.226 . S
O6 Cd2 2.273 . S
O6 Cd4 2.411 . S
O6 C9 1.320 . S
O7 Cd4 2.333 . S
O7 C9 1.214 . S
O8 Cd4 2.352 . S
O8 C11 1.258 . S
C9 O6 1.320 . S
C9 O7 1.214 . S
O10 Cd2 2.277 . S
O10 C5 1.209 . S
C11 O8 1.258 . S
C11 O13 1.282 . S
O12 Cd4 2.277 . S
O12 C5 1.226 . S
O13 Cd4 2.356 . S
O13 C11 1.282 . S
C14 O15 1.306 . S
C14 O17 1.160 . S
O15 C14 1.306 . S
O15 Cd16 2.228 . S
Cd16 O15 2.228 . S
Cd16 O20 2.273 . S
Cd16 O24 2.277 . S
O17 C14 1.160 . S
O17 Cd18 2.203 . S
Cd18 O17 2.203 . S
Cd18 O20 2.411 . S
Cd18 O21 2.333 . S
Cd18 O22 2.352 . S
Cd18 O26 2.277 . S
Cd18 O27 2.356 . S
C19 O24 1.209 . S
C19 O26 1.226 . S
O20 Cd16 2.273 . S
O20 Cd18 2.411 . S
O20 C23 1.320 . S
O21 Cd18 2.333 . S
O21 C23 1.214 . S
O22 Cd18 2.352 . S
O22 C25 1.258 . S
C23 O20 1.320 . S
C23 O21 1.214 . S
O24 Cd16 2.277 . S
O24 C19 1.209 . S
C25 O22 1.258 . S
C25 O27 1.282 . S
O26 Cd18 2.277 . S
O26 C19 1.226 . S
O27 Cd18 2.356 . S
O27 C25 1.282 . S
C28 O29 1.306 . S
C28 O31 1.160 . S
O29 C28 1.306 . S
O29 Cd30 2.228 1_556 S
Cd30 O29 2.228 1_554 S
Cd30 O34 2.273 . S
Cd30 O38 2.276 1_554 S
O31 C28 1.160 . S
O31 Cd32 2.203 . S
Cd32 O31 2.203 . S
Cd32 O34 2.411 1_556 S
Cd32 O35 2.333 1_556 S
Cd32 O36 2.352 . S
Cd32 O40 2.277 . S
Cd32 O41 2.356 . S
C33 O38 1.210 . S
C33 O40 1.226 . S
O34 Cd30 2.273 . S
O34 Cd32 2.411 1_554 S
O34 C37 1.320 . S
O35 Cd32 2.333 1_554 S
O35 C37 1.214 . S
O36 Cd32 2.352 . S
O36 C39 1.258 . S
C37 O34 1.320 . S
C37 O35 1.214 . S
O38 Cd30 2.276 1_556 S
O38 C33 1.210 . S
C39 O36 1.258 . S
C39 O41 1.282 . S
O40 Cd32 2.277 . S
O40 C33 1.226 . S
O41 Cd32 2.356 . S
O41 C39 1.282 . S
C42 O43 1.306 . S
C42 O45 1.160 . S
O43 C42 1.306 . S
O43 Cd44 2.228 . S
Cd44 O43 2.228 . S
Cd44 O48 2.273 . S
Cd44 O52 2.277 . S
O45 C42 1.160 . S
O45 Cd46 2.203 . S
Cd46 O45 2.203 . S
Cd46 O48 2.411 . S
Cd46 O49 2.333 . S
Cd46 O50 2.352 . S
Cd46 O54 2.277 . S
Cd46 O55 2.356 . S
C47 O52 1.209 . S
C47 O54 1.226 . S
O48 Cd44 2.273 . S
O48 Cd46 2.411 . S
O48 C51 1.320 . S
O49 Cd46 2.333 . S
O49 C51 1.214 . S
O50 Cd46 2.352 . S
O50 C53 1.258 . S
C51 O48 1.320 . S
C51 O49 1.214 . S
O52 Cd44 2.277 . S
O52 C47 1.209 . S
C53 O50 1.258 . S
C53 O55 1.282 . S
O54 Cd46 2.277 . S
O54 C47 1.226 . S
O55 Cd46 2.356 . S
O55 C53 1.282 . S
C56 O57 1.306 . S
C56 O59 1.160 . S
O57 C56 1.306 . S
O57 Cd58 2.228 . S
Cd58 O57 2.228 . S
Cd58 O62 2.273 . S
Cd58 O66 2.277 . S
O59 C56 1.160 . S
O59 Cd60 2.203 . S
Cd60 O59 2.203 . S
Cd60 O62 2.411 . S
Cd60 O63 2.333 . S
Cd60 O64 2.352 . S
Cd60 O68 2.277 . S
Cd60 O69 2.356 . S
C61 O66 1.209 . S
C61 O68 1.226 . S
O62 Cd58 2.273 . S
O62 Cd60 2.411 . S
O62 C65 1.320 . S
O63 Cd60 2.333 . S
O63 C65 1.214 . S
O64 Cd60 2.352 . S
O64 C67 1.258 . S
C65 O62 1.320 . S
C65 O63 1.214 . S
O66 Cd58 2.277 . S
O66 C61 1.209 . S
C67 O64 1.258 . S
C67 O69 1.282 . S
O68 Cd60 2.277 . S
O68 C61 1.226 . S
O69 Cd60 2.356 . S
O69 C67 1.282 . S
C70 O71 1.306 . S
C70 O73 1.160 . S
O71 C70 1.306 . S
O71 Cd72 2.228 1_556 S
Cd72 O71 2.228 1_554 S
Cd72 O76 2.273 . S
Cd72 O80 2.276 1_554 S
O73 C70 1.160 . S
O73 Cd74 2.203 . S
Cd74 O73 2.203 . S
Cd74 O76 2.411 1_556 S
Cd74 O77 2.333 1_556 S
Cd74 O78 2.352 . S
Cd74 O82 2.277 . S
Cd74 O83 2.356 . S
C75 O80 1.210 . S
C75 O82 1.226 . S
O76 Cd72 2.273 . S
O76 Cd74 2.411 1_554 S
O76 C79 1.320 . S
O77 Cd74 2.333 1_554 S
O77 C79 1.214 . S
O78 Cd74 2.352 . S
O78 C81 1.258 . S
C79 O76 1.320 . S
C79 O77 1.214 . S
O80 Cd72 2.276 1_556 S
O80 C75 1.210 . S
C81 O78 1.258 . S
C81 O83 1.282 . S
O82 Cd74 2.277 . S
O82 C75 1.226 . S
O83 Cd74 2.356 . S
O83 C81 1.282 . S
C84 O85 1.306 . S
C84 O87 1.160 . S
O85 C84 1.306 . S
O85 Cd86 2.228 . S
Cd86 O85 2.228 . S
Cd86 O90 2.273 . S
Cd86 O94 2.277 . S
O87 C84 1.160 . S
O87 Cd88 2.203 . S
Cd88 O87 2.203 . S
Cd88 O90 2.411 . S
Cd88 O91 2.333 . S
Cd88 O92 2.352 . S
Cd88 O96 2.277 . S
Cd88 O97 2.356 . S
C89 O94 1.209 . S
C89 O96 1.226 . S
O90 Cd86 2.273 . S
O90 Cd88 2.411 . S
O90 C93 1.320 . S
O91 Cd88 2.333 . S
O91 C93 1.214 . S
O92 Cd88 2.352 . S
O92 C95 1.258 . S
C93 O90 1.320 . S
C93 O91 1.214 . S
O94 Cd86 2.277 . S
O94 C89 1.209 . S
C95 O92 1.258 . S
C95 O97 1.282 . S
O96 Cd88 2.277 . S
O96 C89 1.226 . S
O97 Cd88 2.356 . S
O97 C95 1.282 . S
C98 O99 1.306 . S
C98 O101 1.160 . S
O99 C98 1.306 . S
O99 Cd100 2.228 . S
Cd100 O99 2.228 . S
Cd100 O104 2.273 . S
Cd100 O108 2.277 . S
O101 C98 1.160 . S
O101 Cd102 2.203 . S
Cd102 O101 2.203 . S
Cd102 O104 2.411 . S
Cd102 O105 2.333 . S
Cd102 O106 2.352 . S
Cd102 O110 2.277 . S
Cd102 O111 2.356 . S
C103 O108 1.209 . S
C103 O110 1.226 . S
O104 Cd100 2.273 . S
O104 Cd102 2.411 . S
O104 C107 1.320 . S
O105 Cd102 2.333 . S
O105 C107 1.214 . S
O106 Cd102 2.352 . S
O106 C109 1.258 . S
C107 O104 1.320 . S
C107 O105 1.214 . S
O108 Cd100 2.277 . S
O108 C103 1.209 . S
C109 O106 1.258 . S
C109 O111 1.282 . S
O110 Cd102 2.277 . S
O110 C103 1.226 . S
O111 Cd102 2.356 . S
O111 C109 1.282 . S
C112 O113 1.306 . S
C112 O115 1.160 . S
O113 C112 1.306 . S
O113 Cd114 2.228 1_554 S
Cd114 O113 2.228 1_556 S
Cd114 O118 2.273 . S
Cd114 O122 2.277 1_556 S
O115 C112 1.160 . S
O115 Cd116 2.203 . S
Cd116 O115 2.203 . S
Cd116 O118 2.411 1_554 S
Cd116 O119 2.333 1_554 S
Cd116 O120 2.352 . S
Cd116 O124 2.277 . S
Cd116 O125 2.356 . S
C117 O122 1.209 . S
C117 O124 1.226 . S
O118 Cd114 2.273 . S
O118 Cd116 2.411 1_556 S
O118 C121 1.320 . S
O119 Cd116 2.333 1_556 S
O119 C121 1.214 . S
O120 Cd116 2.352 . S
O120 C123 1.258 . S
C121 O118 1.320 . S
C121 O119 1.214 . S
O122 Cd114 2.277 1_554 S
O122 C117 1.209 . S
C123 O120 1.258 . S
C123 O125 1.282 . S
O124 Cd116 2.277 . S
O124 C117 1.226 . S
O125 Cd116 2.356 . S
O125 C123 1.282 . S
C126 O127 1.306 . S
C126 O129 1.160 . S
O127 C126 1.306 . S
O127 Cd128 2.228 . S
Cd128 O127 2.228 . S
Cd128 O132 2.273 . S
Cd128 O136 2.277 . S
O129 C126 1.160 . S
O129 Cd130 2.203 . S
Cd130 O129 2.203 . S
Cd130 O132 2.411 . S
Cd130 O133 2.333 . S
Cd130 O134 2.352 . S
Cd130 O138 2.277 . S
Cd130 O139 2.356 . S
C131 O136 1.209 . S
C131 O138 1.226 . S
O132 Cd128 2.273 . S
O132 Cd130 2.411 . S
O132 C135 1.320 . S
O133 Cd130 2.333 . S
O133 C135 1.214 . S
O134 Cd130 2.352 . S
O134 C137 1.258 . S
C135 O132 1.320 . S
C135 O133 1.214 . S
O136 Cd128 2.277 . S
O136 C131 1.209 . S
C137 O134 1.258 . S
C137 O139 1.282 . S
O138 Cd130 2.277 . S
O138 C131 1.226 . S
O139 Cd130 2.356 . S
O139 C137 1.282 . S
C140 O141 1.306 . S
C140 O143 1.160 . S
O141 C140 1.306 . S
O141 Cd142 2.228 . S
Cd142 O141 2.228 . S
Cd142 O146 2.273 . S
Cd142 O150 2.277 . S
O143 C140 1.160 . S
O143 Cd144 2.203 . S
Cd144 O143 2.203 . S
Cd144 O146 2.411 . S
Cd144 O147 2.333 . S
Cd144 O148 2.352 . S
Cd144 O152 2.277 . S
Cd144 O153 2.356 . S
C145 O150 1.209 . S
C145 O152 1.226 . S
O146 Cd142 2.273 . S
O146 Cd144 2.411 . S
O146 C149 1.320 . S
O147 Cd144 2.333 . S
O147 C149 1.214 . S
O148 Cd144 2.352 . S
O148 C151 1.258 . S
C149 O146 1.320 . S
C149 O147 1.214 . S
O150 Cd142 2.277 . S
O150 C145 1.209 . S
C151 O148 1.258 . S
C151 O153 1.282 . S
O152 Cd144 2.277 . S
O152 C145 1.226 . S
O153 Cd144 2.356 . S
O153 C151 1.282 . S
C154 O155 1.306 . S
C154 O157 1.160 . S
O155 C154 1.306 . S
O155 Cd156 2.228 1_554 S
Cd156 O155 2.228 1_556 S
Cd156 O160 2.273 . S
Cd156 O164 2.277 1_556 S
O157 C154 1.160 . S
O157 Cd158 2.203 . S
Cd158 O157 2.203 . S
Cd158 O160 2.411 1_554 S
Cd158 O161 2.333 1_554 S
Cd158 O162 2.352 . S
Cd158 O166 2.277 . S
Cd158 O167 2.356 . S
C159 O164 1.209 . S
C159 O166 1.226 . S
O160 Cd156 2.273 . S
O160 Cd158 2.411 1_556 S
O160 C163 1.320 . S
O161 Cd158 2.333 1_556 S
O161 C163 1.214 . S
O162 Cd158 2.352 . S
O162 C165 1.258 . S
C163 O160 1.320 . S
C163 O161 1.214 . S
O164 Cd156 2.277 1_554 S
O164 C159 1.209 . S
C165 O162 1.258 . S
C165 O167 1.282 . S
O166 Cd158 2.277 . S
O166 C159 1.226 . S
O167 Cd158 2.356 . S
O167 C165 1.282 . S
C168 C169 1.349 . S
C168 C170 1.327 . S
C168 H193 0.950 . S
C169 C168 1.349 . S
C169 C185 1.349 . S
C170 C168 1.327 . S
C170 C189 1.429 . S
C170 H194 0.950 . S
C171 C188 1.574 . S
C171 C190 1.368 . S
C171 H195 0.949 . S
H172 C176 0.949 . S
C173 C174 1.349 . S
C173 C175 1.327 . S
C173 H196 0.950 . S
C174 C173 1.349 . S
C174 C186 1.349 . S
C175 C173 1.327 . S
C175 C191 1.429 . S
C175 H197 0.950 . S
C176 H172 0.949 . S
C176 C184 1.574 . S
C176 C192 1.368 . S
H177 C185 0.950 . S
H178 C183 0.950 . S
H179 C184 0.949 . S
H180 C186 0.950 . S
H181 C187 0.950 . S
H182 C188 0.949 . S
C183 H178 0.950 . S
C183 C185 1.327 . S
C183 C189 1.429 . S
C184 C176 1.574 . S
C184 H179 0.949 . S
C184 C190 1.368 . S
C185 C169 1.349 . S
C185 H177 0.950 . S
C185 C183 1.327 . S
C186 C174 1.349 . S
C186 H180 0.950 . S
C186 C187 1.327 . S
C187 H181 0.950 . S
C187 C186 1.327 . S
C187 C191 1.429 . S
C188 C171 1.574 . S
C188 H182 0.949 . S
C188 C192 1.368 . S
C189 C170 1.429 . S
C189 C183 1.429 . S
C189 C190 1.523 . S
C190 C171 1.368 . S
C190 C184 1.368 . S
C190 C189 1.523 . S
C191 C175 1.429 . S
C191 C187 1.429 . S
C191 C192 1.523 . S
C192 C176 1.368 . S
C192 C188 1.368 . S
C192 C191 1.523 . S
H193 C168 0.950 . S
H194 C170 0.950 . S
H195 C171 0.949 . S
H196 C173 0.950 . S
H197 C175 0.950 . S
C198 C199 1.349 . S
C198 C200 1.327 . S
C198 H223 0.950 . S
C199 C198 1.349 . S
C199 C215 1.349 . S
C200 C198 1.327 . S
C200 C219 1.429 . S
C200 H224 0.950 . S
C201 C218 1.574 . S
C201 C220 1.368 . S
C201 H225 0.949 . S
H202 C206 0.949 . S
C203 C204 1.349 . S
C203 C205 1.327 . S
C203 H226 0.950 . S
C204 C203 1.349 . S
C204 C216 1.349 . S
C205 C203 1.327 . S
C205 C221 1.429 . S
C205 H227 0.950 . S
C206 H202 0.949 . S
C206 C214 1.574 . S
C206 C222 1.368 . S
H207 C215 0.950 . S
H208 C213 0.950 . S
H209 C214 0.949 . S
H210 C216 0.950 . S
H211 C217 0.950 . S
H212 C218 0.949 . S
C213 H208 0.950 . S
C213 C215 1.327 . S
C213 C219 1.429 . S
C214 C206 1.574 . S
C214 H209 0.949 . S
C214 C220 1.368 . S
C215 C199 1.349 . S
C215 H207 0.950 . S
C215 C213 1.327 . S
C216 C204 1.349 . S
C216 H210 0.950 . S
C216 C217 1.327 . S
C217 H211 0.950 . S
C217 C216 1.327 . S
C217 C221 1.429 . S
C218 C201 1.574 . S
C218 H212 0.949 . S
C218 C222 1.368 . S
C219 C200 1.429 . S
C219 C213 1.429 . S
C219 C220 1.523 . S
C220 C201 1.368 . S
C220 C214 1.368 . S
C220 C219 1.523 . S
C221 C205 1.429 . S
C221 C217 1.429 . S
C221 C222 1.523 . S
C222 C206 1.368 . S
C222 C218 1.368 . S
C222 C221 1.523 . S
H223 C198 0.950 . S
H224 C200 0.950 . S
H225 C201 0.949 . S
H226 C203 0.950 . S
H227 C205 0.950 . S
C228 C229 1.349 . S
C228 C230 1.327 . S
C228 H253 0.950 . S
C229 C228 1.349 . S
C229 C245 1.349 . S
C230 C228 1.327 . S
C230 C249 1.429 . S
C230 H254 0.950 . S
C231 C248 1.574 . S
C231 C250 1.368 . S
C231 H255 0.949 . S
H232 C236 0.949 . S
C233 C234 1.349 . S
C233 C235 1.327 . S
C233 H256 0.950 . S
C234 C233 1.349 . S
C234 C246 1.349 . S
C235 C233 1.327 . S
C235 C251 1.429 . S
C235 H257 0.950 . S
C236 H232 0.949 . S
C236 C244 1.574 . S
C236 C252 1.368 . S
H237 C245 0.950 . S
H238 C243 0.950 . S
H239 C244 0.949 . S
H240 C246 0.950 . S
H241 C247 0.950 . S
H242 C248 0.949 . S
C243 H238 0.950 . S
C243 C245 1.327 . S
C243 C249 1.429 . S
C244 C236 1.574 . S
C244 H239 0.949 . S
C244 C250 1.368 . S
C245 C229 1.349 . S
C245 H237 0.950 . S
C245 C243 1.327 . S
C246 C234 1.349 . S
C246 H240 0.950 . S
C246 C247 1.327 . S
C247 H241 0.950 . S
C247 C246 1.327 . S
C247 C251 1.429 . S
C248 C231 1.574 . S
C248 H242 0.949 . S
C248 C252 1.368 . S
C249 C230 1.429 . S
C249 C243 1.429 . S
C249 C250 1.523 . S
C250 C231 1.368 . S
C250 C244 1.368 . S
C250 C249 1.523 . S
C251 C235 1.429 . S
C251 C247 1.429 . S
C251 C252 1.523 . S
C252 C236 1.368 . S
C252 C248 1.368 . S
C252 C251 1.523 . S
H253 C228 0.950 . S
H254 C230 0.950 . S
H255 C231 0.949 . S
H256 C233 0.950 . S
H257 C235 0.950 . S
C258 C259 1.349 . S
C258 C260 1.327 . S
C258 H283 0.950 . S
C259 C258 1.349 . S
C259 C275 1.349 . S
C260 C258 1.327 . S
C260 C279 1.429 . S
C260 H284 0.950 . S
C261 C278 1.574 . S
C261 C280 1.368 . S
C261 H285 0.949 . S
H262 C266 0.949 . S
C263 C264 1.349 . S
C263 C265 1.327 . S
C263 H286 0.950 . S
C264 C263 1.349 . S
C264 C276 1.349 . S
C265 C263 1.327 . S
C265 C281 1.429 . S
C265 H287 0.950 . S
C266 H262 0.949 . S
C266 C274 1.574 . S
C266 C282 1.368 . S
H267 C275 0.950 . S
H268 C273 0.950 . S
H269 C274 0.949 . S
H270 C276 0.950 . S
H271 C277 0.950 . S
H272 C278 0.949 . S
C273 H268 0.950 . S
C273 C275 1.327 . S
C273 C279 1.429 . S
C274 C266 1.574 . S
C274 H269 0.949 . S
C274 C280 1.368 . S
C275 C259 1.349 . S
C275 H267 0.950 . S
C275 C273 1.327 . S
C276 C264 1.349 . S
C276 H270 0.950 . S
C276 C277 1.327 . S
C277 H271 0.950 . S
C277 C276 1.327 . S
C277 C281 1.429 . S
C278 C261 1.574 . S
C278 H272 0.949 . S
C278 C282 1.368 . S
C279 C260 1.429 . S
C279 C273 1.429 . S
C279 C280 1.523 . S
C280 C261 1.368 . S
C280 C274 1.368 . S
C280 C279 1.523 . S
C281 C265 1.429 . S
C281 C277 1.429 . S
C281 C282 1.523 . S
C282 C266 1.368 . S
C282 C278 1.368 . S
C282 C281 1.523 . S
H283 C258 0.950 . S
H284 C260 0.950 . S
H285 C261 0.949 . S
H286 C263 0.950 . S
H287 C265 0.950 . S
C288 C289 1.349 . S
C288 C290 1.327 . S
C288 H313 0.950 . S
C289 C288 1.349 . S
C289 C305 1.349 . S
C290 C288 1.327 . S
C290 C309 1.429 . S
C290 H314 0.950 . S
C291 C308 1.574 . S
C291 C310 1.368 . S
C291 H315 0.949 . S
H292 C296 0.949 . S
C293 C294 1.349 . S
C293 C295 1.327 . S
C293 H316 0.950 . S
C294 C293 1.349 . S
C294 C306 1.349 . S
C295 C293 1.327 . S
C295 C311 1.429 . S
C295 H317 0.950 . S
C296 H292 0.949 . S
C296 C304 1.574 . S
C296 C312 1.368 . S
H297 C305 0.950 . S
H298 C303 0.950 . S
H299 C304 0.949 . S
H300 C306 0.950 . S
H301 C307 0.950 . S
H302 C308 0.949 . S
C303 H298 0.950 . S
C303 C305 1.327 . S
C303 C309 1.429 . S
C304 C296 1.574 . S
C304 H299 0.949 . S
C304 C310 1.368 . S
C305 C289 1.349 . S
C305 H297 0.950 . S
C305 C303 1.327 . S
C306 C294 1.349 . S
C306 H300 0.950 . S
C306 C307 1.327 . S
C307 H301 0.950 . S
C307 C306 1.327 . S
C307 C311 1.429 . S
C308 C291 1.574 . S
C308 H302 0.949 . S
C308 C312 1.368 . S
C309 C290 1.429 . S
C309 C303 1.429 . S
C309 C310 1.523 . S
C310 C291 1.368 . S
C310 C304 1.368 . S
C310 C309 1.523 . S
C311 C295 1.429 . S
C311 C307 1.429 . S
C311 C312 1.523 . S
C312 C296 1.368 . S
C312 C308 1.368 . S
C312 C311 1.523 . S
H313 C288 0.950 . S
H314 C290 0.950 . S
H315 C291 0.949 . S
H316 C293 0.950 . S
H317 C295 0.950 . S
C318 C319 1.349 . S
C318 C320 1.327 . S
C318 H343 0.950 . S
C319 C318 1.349 . S
C319 C335 1.349 . S
C320 C318 1.327 . S
C320 C339 1.429 . S
C320 H344 0.950 . S
C321 C338 1.574 . S
C321 C340 1.368 . S
C321 H345 0.949 . S
H322 C326 0.949 . S
C323 C324 1.349 . S
C323 C325 1.327 . S
C323 H346 0.950 . S
C324 C323 1.349 . S
C324 C336 1.349 . S
C325 C323 1.327 . S
C325 C341 1.429 . S
C325 H347 0.950 . S
C326 H322 0.949 . S
C326 C334 1.574 . S
C326 C342 1.368 . S
H327 C335 0.950 . S
H328 C333 0.950 . S
H329 C334 0.949 . S
H330 C336 0.950 . S
H331 C337 0.950 . S
H332 C338 0.949 . S
C333 H328 0.950 . S
C333 C335 1.327 . S
C333 C339 1.429 . S
C334 C326 1.574 . S
C334 H329 0.949 . S
C334 C340 1.368 . S
C335 C319 1.349 . S
C335 H327 0.950 . S
C335 C333 1.327 . S
C336 C324 1.349 . S
C336 H330 0.950 . S
C336 C337 1.327 . S
C337 H331 0.950 . S
C337 C336 1.327 . S
C337 C341 1.429 . S
C338 C321 1.574 . S
C338 H332 0.949 . S
C338 C342 1.368 . S
C339 C320 1.429 . S
C339 C333 1.429 . S
C339 C340 1.523 . S
C340 C321 1.368 . S
C340 C334 1.368 . S
C340 C339 1.523 . S
C341 C325 1.429 . S
C341 C337 1.429 . S
C341 C342 1.523 . S
C342 C326 1.368 . S
C342 C338 1.368 . S
C342 C341 1.523 . S
H343 C318 0.950 . S
H344 C320 0.950 . S
H345 C321 0.949 . S
H346 C323 0.950 . S
H347 C325 0.950 . S
C348 C349 1.349 . S
C348 C350 1.327 . S
C348 H373 0.950 . S
C349 C348 1.349 . S
C349 C365 1.349 . S
C350 C348 1.327 . S
C350 C369 1.429 . S
C350 H374 0.950 . S
C351 C368 1.574 . S
C351 C370 1.368 . S
C351 H375 0.949 . S
H352 C356 0.949 . S
C353 C354 1.349 . S
C353 C355 1.327 . S
C353 H376 0.950 . S
C354 C353 1.349 . S
C354 C366 1.349 . S
C355 C353 1.327 . S
C355 C371 1.429 . S
C355 H377 0.950 . S
C356 H352 0.949 . S
C356 C364 1.574 . S
C356 C372 1.368 . S
H357 C365 0.950 . S
H358 C363 0.950 . S
H359 C364 0.949 . S
H360 C366 0.950 . S
H361 C367 0.950 . S
H362 C368 0.949 . S
C363 H358 0.950 . S
C363 C365 1.327 . S
C363 C369 1.429 . S
C364 C356 1.574 . S
C364 H359 0.949 . S
C364 C370 1.368 . S
C365 C349 1.349 . S
C365 H357 0.950 . S
C365 C363 1.327 . S
C366 C354 1.349 . S
C366 H360 0.950 . S
C366 C367 1.327 . S
C367 H361 0.950 . S
C367 C366 1.327 . S
C367 C371 1.429 . S
C368 C351 1.574 . S
C368 H362 0.949 . S
C368 C372 1.368 . S
C369 C350 1.429 . S
C369 C363 1.429 . S
C369 C370 1.523 . S
C370 C351 1.368 . S
C370 C364 1.368 . S
C370 C369 1.523 . S
C371 C355 1.429 . S
C371 C367 1.429 . S
C371 C372 1.523 . S
C372 C356 1.368 . S
C372 C368 1.368 . S
C372 C371 1.523 . S
H373 C348 0.950 . S
H374 C350 0.950 . S
H375 C351 0.949 . S
H376 C353 0.950 . S
H377 C355 0.950 . S
C378 C379 1.349 . S
C378 C380 1.327 . S
C378 H403 0.950 . S
C379 C378 1.349 . S
C379 C395 1.349 . S
C380 C378 1.327 . S
C380 C399 1.429 . S
C380 H404 0.950 . S
C381 C398 1.574 . S
C381 C400 1.368 . S
C381 H405 0.949 . S
H382 C386 0.949 . S
C383 C384 1.349 . S
C383 C385 1.327 . S
C383 H406 0.950 . S
C384 C383 1.349 . S
C384 C396 1.349 . S
C385 C383 1.327 . S
C385 C401 1.429 . S
C385 H407 0.950 . S
C386 H382 0.949 . S
C386 C394 1.574 . S
C386 C402 1.368 . S
H387 C395 0.950 . S
H388 C393 0.950 . S
H389 C394 0.949 . S
H390 C396 0.950 . S
H391 C397 0.950 . S
H392 C398 0.949 . S
C393 H388 0.950 . S
C393 C395 1.327 . S
C393 C399 1.429 . S
C394 C386 1.574 . S
C394 H389 0.949 . S
C394 C400 1.368 . S
C395 C379 1.349 . S
C395 H387 0.950 . S
C395 C393 1.327 . S
C396 C384 1.349 . S
C396 H390 0.950 . S
C396 C397 1.327 . S
C397 H391 0.950 . S
C397 C396 1.327 . S
C397 C401 1.429 . S
C398 C381 1.574 . S
C398 H392 0.949 . S
C398 C402 1.368 . S
C399 C380 1.429 . S
C399 C393 1.429 . S
C399 C400 1.523 . S
C400 C381 1.368 . S
C400 C394 1.368 . S
C400 C399 1.523 . S
C401 C385 1.429 . S
C401 C397 1.429 . S
C401 C402 1.523 . S
C402 C386 1.368 . S
C402 C398 1.368 . S
C402 C401 1.523 . S
H403 C378 0.950 . S
H404 C380 0.950 . S
H405 C381 0.949 . S
H406 C383 0.950 . S
H407 C385 0.950 . S
C408 C409 1.349 . S
C408 C410 1.327 . S
C408 H433 0.962 . S
C409 C408 1.349 . S
C409 C425 1.349 . S
C410 C408 1.327 . S
C410 C429 1.429 . S
C410 H434 0.950 1_554 S
C411 C428 1.574 . S
C411 C430 1.368 . S
C411 H435 0.949 . S
H412 C416 0.949 . S
C413 C414 1.349 1_554 S
C413 C415 1.327 . S
C413 H436 0.950 . S
C414 C413 1.349 1_556 S
C414 C426 1.349 . S
C415 C413 1.327 . S
C415 C431 1.429 1_554 S
C415 H437 0.950 . S
C416 H412 0.949 . S
C416 C424 1.574 . S
C416 C432 1.368 1_556 S
H417 C425 0.950 . S
H418 C423 0.950 . S
H419 C424 0.949 . S
H420 C426 0.950 . S
H421 C427 0.950 . S
H422 C428 0.949 . S
C423 H418 0.950 . S
C423 C425 1.327 . S
C423 C429 1.429 . S
C424 C416 1.574 . S
C424 H419 0.949 . S
C424 C430 1.368 1_556 S
C425 C409 1.349 . S
C425 H417 0.950 . S
C425 C423 1.327 . S
C426 C414 1.349 . S
C426 H420 0.950 . S
C426 C427 1.327 . S
C427 H421 0.950 . S
C427 C426 1.327 . S
C427 C431 1.429 . S
C428 C411 1.574 . S
C428 H422 0.949 . S
C428 C432 1.368 . S
C429 C410 1.429 . S
C429 C423 1.429 . S
C429 C430 1.523 . S
C430 C411 1.368 . S
C430 C424 1.368 1_554 S
C430 C429 1.523 . S
C431 C415 1.429 1_556 S
C431 C427 1.429 . S
C431 C432 1.523 1_556 S
C432 C416 1.368 1_554 S
C432 C428 1.368 . S
C432 C431 1.523 1_554 S
H433 C408 0.962 . S
H434 C410 0.950 1_556 S
H435 C411 0.949 . S
H436 C413 0.950 . S
H437 C415 0.950 . S
C438 C439 1.349 . S
C438 C440 1.327 . S
C438 H463 0.950 . S
C439 C438 1.349 . S
C439 C455 1.349 . S
C440 C438 1.327 . S
C440 C459 1.429 . S
C440 H464 0.950 . S
C441 C458 1.574 . S
C441 C460 1.368 . S
C441 H465 0.949 . S
H442 C446 0.949 . S
C443 C444 1.349 . S
C443 C445 1.327 . S
C443 H466 0.950 . S
C444 C443 1.349 . S
C444 C456 1.349 . S
C445 C443 1.327 . S
C445 C461 1.429 . S
C445 H467 0.950 . S
C446 H442 0.949 . S
C446 C454 1.574 . S
C446 C462 1.368 . S
H447 C455 0.950 . S
H448 C453 0.950 . S
H449 C454 0.949 . S
H450 C456 0.950 . S
H451 C457 0.950 . S
H452 C458 0.949 . S
C453 H448 0.950 . S
C453 C455 1.327 . S
C453 C459 1.429 . S
C454 C446 1.574 . S
C454 H449 0.949 . S
C454 C460 1.368 . S
C455 C439 1.349 . S
C455 H447 0.950 . S
C455 C453 1.327 . S
C456 C444 1.349 . S
C456 H450 0.950 . S
C456 C457 1.327 . S
C457 H451 0.950 . S
C457 C456 1.327 . S
C457 C461 1.429 . S
C458 C441 1.574 . S
C458 H452 0.949 . S
C458 C462 1.368 . S
C459 C440 1.429 . S
C459 C453 1.429 . S
C459 C460 1.523 . S
C460 C441 1.368 . S
C460 C454 1.368 . S
C460 C459 1.523 . S
C461 C445 1.429 . S
C461 C457 1.429 . S
C461 C462 1.523 . S
C462 C446 1.368 . S
C462 C458 1.368 . S
C462 C461 1.523 . S
H463 C438 0.950 . S
H464 C440 0.950 . S
H465 C441 0.949 . S
H466 C443 0.950 . S
H467 C445 0.950 . S
C468 C469 1.349 . S
C468 C470 1.327 . S
C468 H493 0.950 . S
C469 C468 1.349 . S
C469 C485 1.349 . S
C470 C468 1.327 . S
C470 C489 1.429 . S
C470 H494 0.950 . S
C471 C488 1.574 . S
C471 C490 1.368 . S
C471 H495 0.949 . S
H472 C476 0.949 . S
C473 C474 1.349 . S
C473 C475 1.327 . S
C473 H496 0.950 . S
C474 C473 1.349 . S
C474 C486 1.349 . S
C475 C473 1.327 . S
C475 C491 1.429 . S
C475 H497 0.950 . S
C476 H472 0.949 . S
C476 C484 1.574 . S
C476 C492 1.368 . S
H477 C485 0.950 . S
H478 C483 0.950 . S
H479 C484 0.949 . S
H480 C486 0.950 . S
H481 C487 0.950 . S
H482 C488 0.949 . S
C483 H478 0.950 . S
C483 C485 1.327 . S
C483 C489 1.429 . S
C484 C476 1.574 . S
C484 H479 0.949 . S
C484 C490 1.368 . S
C485 C469 1.349 . S
C485 H477 0.950 . S
C485 C483 1.327 . S
C486 C474 1.349 . S
C486 H480 0.950 . S
C486 C487 1.327 . S
C487 H481 0.950 . S
C487 C486 1.327 . S
C487 C491 1.429 . S
C488 C471 1.574 . S
C488 H482 0.949 . S
C488 C492 1.368 . S
C489 C470 1.429 . S
C489 C483 1.429 . S
C489 C490 1.523 . S
C490 C471 1.368 . S
C490 C484 1.368 . S
C490 C489 1.523 . S
C491 C475 1.429 . S
C491 C487 1.429 . S
C491 C492 1.523 . S
C492 C476 1.368 . S
C492 C488 1.368 . S
C492 C491 1.523 . S
H493 C468 0.950 . S
H494 C470 0.950 . S
H495 C471 0.949 . S
H496 C473 0.950 . S
H497 C475 0.950 . S
C498 C499 1.349 . S
C498 C500 1.327 . S
C498 H523 0.950 . S
C499 C498 1.349 . S
C499 C515 1.349 1_556 S
C500 C498 1.327 . S
C500 C519 1.429 . S
C500 H524 0.950 . S
C501 C518 1.574 . S
C501 C520 1.368 . S
C501 H525 0.949 . S
H502 C506 0.949 . S
C503 C504 1.349 . S
C503 C505 1.327 . S
C503 H526 0.950 . S
C504 C503 1.349 . S
C504 C516 1.349 . S
C505 C503 1.327 . S
C505 C521 1.429 . S
C505 H527 0.950 . S
C506 H502 0.949 . S
C506 C514 1.574 . S
C506 C522 1.368 1_556 S
H507 C515 0.950 . S
H508 C513 0.950 . S
H509 C514 0.949 . S
H510 C516 0.962 . S
H511 C517 0.950 1_556 S
H512 C518 0.949 . S
C513 H508 0.950 . S
C513 C515 1.327 . S
C513 C519 1.429 1_554 S
C514 C506 1.574 . S
C514 H509 0.949 . S
C514 C520 1.368 1_556 S
C515 C499 1.349 1_554 S
C515 H507 0.950 . S
C515 C513 1.327 . S
C516 C504 1.349 . S
C516 H510 0.962 . S
C516 C517 1.327 . S
C517 H511 0.950 1_554 S
C517 C516 1.327 . S
C517 C521 1.429 . S
C518 C501 1.574 . S
C518 H512 0.949 . S
C518 C522 1.368 . S
C519 C500 1.429 . S
C519 C513 1.429 1_556 S
C519 C520 1.523 1_556 S
C520 C501 1.368 . S
C520 C514 1.368 1_554 S
C520 C519 1.523 1_554 S
C521 C505 1.429 . S
C521 C517 1.429 . S
C521 C522 1.523 . S
C522 C506 1.368 1_554 S
C522 C518 1.368 . S
C522 C521 1.523 . S
H523 C498 0.950 . S
H524 C500 0.950 . S
H525 C501 0.949 . S
H526 C503 0.950 . S
H527 C505 0.950 . S
C528 C529 1.349 . S
C528 C530 1.327 . S
C528 H553 0.950 . S
C529 C528 1.349 . S
C529 C545 1.349 . S
C530 C528 1.327 . S
C530 C549 1.429 . S
C530 H554 0.950 . S
C531 C548 1.574 1_545 S
C531 C550 1.368 . S
C531 H555 0.949 . S
H532 C536 0.949 . S
C533 C534 1.349 . S
C533 C535 1.327 . S
C533 H556 0.950 . S
C534 C533 1.349 . S
C534 C546 1.349 . S
C535 C533 1.327 . S
C535 C551 1.429 . S
C535 H557 0.950 . S
C536 H532 0.949 . S
C536 C544 1.574 1_565 S
C536 C552 1.368 . S
H537 C545 0.950 . S
H538 C543 0.950 . S
H539 C544 0.949 . S
H540 C546 0.950 . S
H541 C547 0.950 . S
H542 C548 0.949 . S
C543 H538 0.950 . S
C543 C545 1.327 . S
C543 C549 1.429 . S
C544 C536 1.574 1_545 S
C544 H539 0.949 . S
C544 C550 1.368 . S
C545 C529 1.349 . S
C545 H537 0.950 . S
C545 C543 1.327 . S
C546 C534 1.349 . S
C546 H540 0.950 . S
C546 C547 1.327 . S
C547 H541 0.950 . S
C547 C546 1.327 . S
C547 C551 1.429 . S
C548 C531 1.574 1_565 S
C548 H542 0.949 . S
C548 C552 1.368 . S
C549 C530 1.429 . S
C549 C543 1.429 . S
C549 C550 1.523 . S
C550 C531 1.368 . S
C550 C544 1.368 . S
C550 C549 1.523 . S
C551 C535 1.429 . S
C551 C547 1.429 . S
C551 C552 1.523 . S
C552 C536 1.368 . S
C552 C548 1.368 . S
C552 C551 1.523 . S
H553 C528 0.950 . S
H554 C530 0.950 . S
H555 C531 0.949 . S
H556 C533 0.950 . S
H557 C535 0.950 . S
C558 C559 1.349 . S
C558 C560 1.327 . S
C558 H583 0.950 . S
C559 C558 1.349 . S
C559 C575 1.349 . S
C560 C558 1.327 . S
C560 C579 1.429 . S
C560 H584 0.950 . S
C561 C578 1.574 . S
C561 C580 1.368 . S
C561 H585 0.949 . S
H562 C566 0.949 . S
C563 C564 1.349 . S
C563 C565 1.327 . S
C563 H586 0.950 . S
C564 C563 1.349 . S
C564 C576 1.349 . S
C565 C563 1.327 . S
C565 C581 1.429 . S
C565 H587 0.950 . S
C566 H562 0.949 . S
C566 C574 1.574 . S
C566 C582 1.368 . S
H567 C575 0.950 . S
H568 C573 0.950 . S
H569 C574 0.949 . S
H570 C576 0.950 . S
H571 C577 0.950 . S
H572 C578 0.949 . S
C573 H568 0.950 . S
C573 C575 1.327 . S
C573 C579 1.429 . S
C574 C566 1.574 . S
C574 H569 0.949 . S
C574 C580 1.368 . S
C575 C559 1.349 . S
C575 H567 0.950 . S
C575 C573 1.327 . S
C576 C564 1.349 . S
C576 H570 0.950 . S
C576 C577 1.327 . S
C577 H571 0.950 . S
C577 C576 1.327 . S
C577 C581 1.429 . S
C578 C561 1.574 . S
C578 H572 0.949 . S
C578 C582 1.368 . S
C579 C560 1.429 . S
C579 C573 1.429 . S
C579 C580 1.523 . S
C580 C561 1.368 . S
C580 C574 1.368 . S
C580 C579 1.523 . S
C581 C565 1.429 . S
C581 C577 1.429 . S
C581 C582 1.523 . S
C582 C566 1.368 . S
C582 C578 1.368 . S
C582 C581 1.523 . S
H583 C558 0.950 . S
H584 C560 0.950 . S
H585 C561 0.949 . S
H586 C563 0.950 . S
H587 C565 0.950 . S
C588 C589 1.349 . S
C588 C590 1.327 . S
C588 H613 0.950 . S
C589 C588 1.349 . S
C589 C605 1.349 . S
C590 C588 1.327 . S
C590 C609 1.429 . S
C590 H614 0.950 . S
C591 C608 1.574 1_655 S
C591 C610 1.368 . S
C591 H615 0.949 1_556 S
H592 C596 0.949 . S
C593 C594 1.349 . S
C593 C595 1.327 . S
C593 H616 0.950 1_556 S
C594 C593 1.349 . S
C594 C606 1.349 . S
C595 C593 1.327 . S
C595 C611 1.429 . S
C595 H617 0.950 1_556 S
C596 H592 0.949 . S
C596 C604 1.574 1_455 S
C596 C612 1.368 . S
H597 C605 0.950 1_554 S
H598 C603 0.950 1_554 S
H599 C604 0.949 . S
H600 C606 0.950 . S
H601 C607 0.950 . S
H602 C608 0.949 1_554 S
C603 H598 0.950 1_556 S
C603 C605 1.327 . S
C603 C609 1.429 . S
C604 C596 1.574 1_655 S
C604 H599 0.949 . S
C604 C610 1.368 . S
C605 C589 1.349 . S
C605 H597 0.950 1_556 S
C605 C603 1.327 . S
C606 C594 1.349 . S
C606 H600 0.950 . S
C606 C607 1.327 . S
C607 H601 0.950 . S
C607 C606 1.327 . S
C607 C611 1.429 . S
C608 C591 1.574 1_455 S
C608 H602 0.949 1_556 S
C608 C612 1.368 . S
C609 C590 1.429 . S
C609 C603 1.429 . S
C609 C610 1.523 . S
C610 C591 1.368 . S
C610 C604 1.368 . S
C610 C609 1.523 . S
C611 C595 1.429 . S
C611 C607 1.429 . S
C611 C612 1.523 . S
C612 C596 1.368 . S
C612 C608 1.368 . S
C612 C611 1.523 . S
H613 C588 0.950 . S
H614 C590 0.950 . S
H615 C591 0.949 1_554 S
H616 C593 0.950 1_554 S
H617 C595 0.950 1_554 S
C618 C619 1.349 . S
C618 C620 1.327 . S
C618 H643 0.950 . S
C619 C618 1.349 . S
C619 C635 1.349 . S
C620 C618 1.327 . S
C620 C639 1.429 . S
C620 H644 0.950 . S
C621 C638 1.574 1_455 S
C621 C640 1.368 . S
C621 H645 0.949 . S
H622 C626 0.949 . S
C623 C624 1.349 . S
C623 C625 1.327 . S
C623 H646 0.950 . S
C624 C623 1.349 . S
C624 C636 1.349 . S
C625 C623 1.327 . S
C625 C641 1.429 . S
C625 H647 0.950 . S
C626 H622 0.949 . S
C626 C634 1.574 1_655 S
C626 C642 1.368 . S
H627 C635 0.950 . S
H628 C633 0.950 . S
H629 C634 0.949 . S
H630 C636 0.950 . S
H631 C637 0.950 . S
H632 C638 0.949 . S
C633 H628 0.950 . S
C633 C635 1.327 . S
C633 C639 1.429 . S
C634 C626 1.574 1_455 S
C634 H629 0.949 . S
C634 C640 1.368 . S
C635 C619 1.349 . S
C635 H627 0.950 . S
C635 C633 1.327 . S
C636 C624 1.349 . S
C636 H630 0.950 . S
C636 C637 1.327 . S
C637 H631 0.950 . S
C637 C636 1.327 . S
C637 C641 1.429 . S
C638 C621 1.574 1_655 S
C638 H632 0.949 . S
C638 C642 1.368 . S
C639 C620 1.429 . S
C639 C633 1.429 . S
C639 C640 1.523 . S
C640 C621 1.368 . S
C640 C634 1.368 . S
C640 C639 1.523 . S
C641 C625 1.429 . S
C641 C637 1.429 . S
C641 C642 1.523 . S
C642 C626 1.368 . S
C642 C638 1.368 . S
C642 C641 1.523 . S
H643 C618 0.950 . S
H644 C620 0.950 . S
H645 C621 0.949 . S
H646 C623 0.950 . S
H647 C625 0.950 . S
C648 C649 1.349 . S
C648 C650 1.327 . S
C648 H673 0.950 . S
C649 C648 1.349 . S
C649 C665 1.349 . S
C650 C648 1.327 . S
C650 C669 1.429 . S
C650 H674 0.950 . S
C651 C668 1.574 1_545 S
C651 C670 1.368 . S
C651 H675 0.949 . S
H652 C656 0.949 . S
C653 C654 1.349 . S
C653 C655 1.327 . S
C653 H676 0.950 . S
C654 C653 1.349 . S
C654 C666 1.349 . S
C655 C653 1.327 . S
C655 C671 1.429 . S
C655 H677 0.950 . S
C656 H652 0.949 . S
C656 C664 1.574 1_565 S
C656 C672 1.368 . S
H657 C665 0.950 . S
H658 C663 0.950 . S
H659 C664 0.949 . S
H660 C666 0.950 . S
H661 C667 0.950 . S
H662 C668 0.949 . S
C663 H658 0.950 . S
C663 C665 1.327 . S
C663 C669 1.429 . S
C664 C656 1.574 1_545 S
C664 H659 0.949 . S
C664 C670 1.368 . S
C665 C649 1.349 . S
C665 H657 0.950 . S
C665 C663 1.327 . S
C666 C654 1.349 . S
C666 H660 0.950 . S
C666 C667 1.327 . S
C667 H661 0.950 . S
C667 C666 1.327 . S
C667 C671 1.429 . S
C668 C651 1.574 1_565 S
C668 H662 0.949 . S
C668 C672 1.368 . S
C669 C650 1.429 . S
C669 C663 1.429 . S
C669 C670 1.523 . S
C670 C651 1.368 . S
C670 C664 1.368 . S
C670 C669 1.523 . S
C671 C655 1.429 . S
C671 C667 1.429 . S
C671 C672 1.523 . S
C672 C656 1.368 . S
C672 C668 1.368 . S
C672 C671 1.523 . S
H673 C648 0.950 . S
H674 C650 0.950 . S
H675 C651 0.949 . S
H676 C653 0.950 . S
H677 C655 0.950 . S
C678 C679 1.349 . S
C678 C680 1.327 . S
C678 H703 0.950 . S
C679 C678 1.349 . S
C679 C695 1.349 . S
C680 C678 1.327 . S
C680 C699 1.429 . S
C680 H704 0.950 . S
C681 C698 1.574 . S
C681 C700 1.368 . S
C681 H705 0.949 . S
H682 C686 0.949 . S
C683 C684 1.349 . S
C683 C685 1.327 . S
C683 H706 0.950 . S
C684 C683 1.349 . S
C684 C696 1.349 . S
C685 C683 1.327 . S
C685 C701 1.429 . S
C685 H707 0.950 . S
C686 H682 0.949 . S
C686 C694 1.574 . S
C686 C702 1.368 . S
H687 C695 0.950 . S
H688 C693 0.950 . S
H689 C694 0.949 . S
H690 C696 0.950 . S
H691 C697 0.950 . S
H692 C698 0.949 . S
C693 H688 0.950 . S
C693 C695 1.327 . S
C693 C699 1.429 . S
C694 C686 1.574 . S
C694 H689 0.949 . S
C694 C700 1.368 . S
C695 C679 1.349 . S
C695 H687 0.950 . S
C695 C693 1.327 . S
C696 C684 1.349 . S
C696 H690 0.950 . S
C696 C697 1.327 . S
C697 H691 0.950 . S
C697 C696 1.327 . S
C697 C701 1.429 . S
C698 C681 1.574 . S
C698 H692 0.949 . S
C698 C702 1.368 . S
C699 C680 1.429 . S
C699 C693 1.429 . S
C699 C700 1.523 . S
C700 C681 1.368 . S
C700 C694 1.368 . S
C700 C699 1.523 . S
C701 C685 1.429 . S
C701 C697 1.429 . S
C701 C702 1.523 . S
C702 C686 1.368 . S
C702 C698 1.368 . S
C702 C701 1.523 . S
H703 C678 0.950 . S
H704 C680 0.950 . S
H705 C681 0.949 . S
H706 C683 0.950 . S
H707 C685 0.950 . S
C708 C709 1.349 . S
C708 C710 1.327 . S
C708 H733 0.950 . S
C709 C708 1.349 . S
C709 C725 1.349 . S
C710 C708 1.327 . S
C710 C729 1.429 . S
C710 H734 0.950 . S
C711 C728 1.574 . S
C711 C730 1.368 . S
C711 H735 0.949 . S
H712 C716 0.949 . S
C713 C714 1.349 . S
C713 C715 1.327 . S
C713 H736 0.950 . S
C714 C713 1.349 . S
C714 C726 1.349 . S
C715 C713 1.327 . S
C715 C731 1.429 . S
C715 H737 0.950 . S
C716 H712 0.949 . S
C716 C724 1.574 . S
C716 C732 1.368 . S
H717 C725 0.950 . S
H718 C723 0.950 . S
H719 C724 0.949 . S
H720 C726 0.950 . S
H721 C727 0.950 . S
H722 C728 0.949 . S
C723 H718 0.950 . S
C723 C725 1.327 . S
C723 C729 1.429 . S
C724 C716 1.574 . S
C724 H719 0.949 . S
C724 C730 1.368 . S
C725 C709 1.349 . S
C725 H717 0.950 . S
C725 C723 1.327 . S
C726 C714 1.349 . S
C726 H720 0.950 . S
C726 C727 1.327 . S
C727 H721 0.950 . S
C727 C726 1.327 . S
C727 C731 1.429 . S
C728 C711 1.574 . S
C728 H722 0.949 . S
C728 C732 1.368 . S
C729 C710 1.429 . S
C729 C723 1.429 . S
C729 C730 1.523 . S
C730 C711 1.368 . S
C730 C724 1.368 . S
C730 C729 1.523 . S
C731 C715 1.429 . S
C731 C727 1.429 . S
C731 C732 1.523 . S
C732 C716 1.368 . S
C732 C728 1.368 . S
C732 C731 1.523 . S
H733 C708 0.950 . S
H734 C710 0.950 . S
H735 C711 0.949 . S
H736 C713 0.950 . S
H737 C715 0.950 . S
C738 C739 1.349 . S
C738 C740 1.327 . S
C738 H763 0.950 . S
C739 C738 1.349 . S
C739 C755 1.349 . S
C740 C738 1.327 . S
C740 C759 1.429 . S
C740 H764 0.950 . S
C741 C758 1.574 . S
C741 C760 1.368 . S
C741 H765 0.949 . S
H742 C746 0.949 . S
C743 C744 1.349 . S
C743 C745 1.327 . S
C743 H766 0.950 . S
C744 C743 1.349 . S
C744 C756 1.349 . S
C745 C743 1.327 . S
C745 C761 1.429 . S
C745 H767 0.950 . S
C746 H742 0.949 . S
C746 C754 1.574 . S
C746 C762 1.368 . S
H747 C755 0.950 . S
H748 C753 0.950 . S
H749 C754 0.949 . S
H750 C756 0.950 . S
H751 C757 0.950 . S
H752 C758 0.949 . S
C753 H748 0.950 . S
C753 C755 1.327 . S
C753 C759 1.429 . S
C754 C746 1.574 . S
C754 H749 0.949 . S
C754 C760 1.368 . S
C755 C739 1.349 . S
C755 H747 0.950 . S
C755 C753 1.327 . S
C756 C744 1.349 . S
C756 H750 0.950 . S
C756 C757 1.327 . S
C757 H751 0.950 . S
C757 C756 1.327 . S
C757 C761 1.429 . S
C758 C741 1.574 . S
C758 H752 0.949 . S
C758 C762 1.368 . S
C759 C740 1.429 . S
C759 C753 1.429 . S
C759 C760 1.523 . S
C760 C741 1.368 . S
C760 C754 1.368 . S
C760 C759 1.523 . S
C761 C745 1.429 . S
C761 C757 1.429 . S
C761 C762 1.523 . S
C762 C746 1.368 . S
C762 C758 1.368 . S
C762 C761 1.523 . S
H763 C738 0.950 . S
H764 C740 0.950 . S
H765 C741 0.949 . S
H766 C743 0.950 . S
H767 C745 0.950 . S
C768 C769 1.349 . S
C768 C770 1.327 . S
C768 H793 0.950 . S
C769 C768 1.349 . S
C769 C785 1.349 . S
C770 C768 1.327 . S
C770 C789 1.429 . S
C770 H794 0.950 . S
C771 C788 1.574 . S
C771 C790 1.368 . S
C771 H795 0.949 . S
H772 C776 0.949 . S
C773 C774 1.349 . S
C773 C775 1.327 . S
C773 H796 0.950 . S
C774 C773 1.349 . S
C774 C786 1.349 . S
C775 C773 1.327 . S
C775 C791 1.429 . S
C775 H797 0.950 . S
C776 H772 0.949 . S
C776 C784 1.574 . S
C776 C792 1.368 . S
H777 C785 0.950 . S
H778 C783 0.950 . S
H779 C784 0.949 . S
H780 C786 0.950 . S
H781 C787 0.950 . S
H782 C788 0.949 . S
C783 H778 0.950 . S
C783 C785 1.327 . S
C783 C789 1.429 . S
C784 C776 1.574 . S
C784 H779 0.949 . S
C784 C790 1.368 . S
C785 C769 1.349 . S
C785 H777 0.950 . S
C785 C783 1.327 . S
C786 C774 1.349 . S
C786 H780 0.950 . S
C786 C787 1.327 . S
C787 H781 0.950 . S
C787 C786 1.327 . S
C787 C791 1.429 . S
C788 C771 1.574 . S
C788 H782 0.949 . S
C788 C792 1.368 . S
C789 C770 1.429 . S
C789 C783 1.429 . S
C789 C790 1.523 . S
C790 C771 1.368 . S
C790 C784 1.368 . S
C790 C789 1.523 . S
C791 C775 1.429 . S
C791 C787 1.429 . S
C791 C792 1.523 . S
C792 C776 1.368 . S
C792 C788 1.368 . S
C792 C791 1.523 . S
H793 C768 0.950 . S
H794 C770 0.950 . S
H795 C771 0.949 . S
H796 C773 0.950 . S
H797 C775 0.950 . S
C798 C799 1.349 . S
C798 C800 1.327 . S
C798 H823 0.950 . S
C799 C798 1.349 . S
C799 C815 1.349 . S
C800 C798 1.327 . S
C800 C819 1.429 . S
C800 H824 0.950 . S
C801 C818 1.574 . S
C801 C820 1.368 . S
C801 H825 0.949 . S
H802 C806 0.949 . S
C803 C804 1.349 . S
C803 C805 1.327 . S
C803 H826 0.950 . S
C804 C803 1.349 . S
C804 C816 1.349 . S
C805 C803 1.327 . S
C805 C821 1.429 . S
C805 H827 0.950 . S
C806 H802 0.949 . S
C806 C814 1.574 . S
C806 C822 1.368 . S
H807 C815 0.950 . S
H808 C813 0.950 . S
H809 C814 0.949 . S
H810 C816 0.950 . S
H811 C817 0.950 . S
H812 C818 0.949 . S
C813 H808 0.950 . S
C813 C815 1.327 . S
C813 C819 1.429 . S
C814 C806 1.574 . S
C814 H809 0.949 . S
C814 C820 1.368 . S
C815 C799 1.349 . S
C815 H807 0.950 . S
C815 C813 1.327 . S
C816 C804 1.349 . S
C816 H810 0.950 . S
C816 C817 1.327 . S
C817 H811 0.950 . S
C817 C816 1.327 . S
C817 C821 1.429 . S
C818 C801 1.574 . S
C818 H812 0.949 . S
C818 C822 1.368 . S
C819 C800 1.429 . S
C819 C813 1.429 . S
C819 C820 1.523 . S
C820 C801 1.368 . S
C820 C814 1.368 . S
C820 C819 1.523 . S
C821 C805 1.429 . S
C821 C817 1.429 . S
C821 C822 1.523 . S
C822 C806 1.368 . S
C822 C818 1.368 . S
C822 C821 1.523 . S
H823 C798 0.950 . S
H824 C800 0.950 . S
H825 C801 0.949 . S
H826 C803 0.950 . S
H827 C805 0.950 . S
C828 C829 1.349 . S
C828 C830 1.327 . S
C828 H853 0.950 . S
C829 C828 1.349 . S
C829 C845 1.349 . S
C830 C828 1.327 . S
C830 C849 1.429 . S
C830 H854 0.950 . S
C831 C848 1.574 . S
C831 C850 1.368 . S
C831 H855 0.949 . S
H832 C836 0.949 . S
C833 C834 1.349 . S
C833 C835 1.327 . S
C833 H856 0.950 . S
C834 C833 1.349 . S
C834 C846 1.349 . S
C835 C833 1.327 . S
C835 C851 1.429 . S
C835 H857 0.950 . S
C836 H832 0.949 . S
C836 C844 1.574 . S
C836 C852 1.368 . S
H837 C845 0.950 . S
H838 C843 0.950 . S
H839 C844 0.949 . S
H840 C846 0.950 . S
H841 C847 0.950 . S
H842 C848 0.949 . S
C843 H838 0.950 . S
C843 C845 1.327 . S
C843 C849 1.429 . S
C844 C836 1.574 . S
C844 H839 0.949 . S
C844 C850 1.368 . S
C845 C829 1.349 . S
C845 H837 0.950 . S
C845 C843 1.327 . S
C846 C834 1.349 . S
C846 H840 0.950 . S
C846 C847 1.327 . S
C847 H841 0.950 . S
C847 C846 1.327 . S
C847 C851 1.429 . S
C848 C831 1.574 . S
C848 H842 0.949 . S
C848 C852 1.368 . S
C849 C830 1.429 . S
C849 C843 1.429 . S
C849 C850 1.523 . S
C850 C831 1.368 . S
C850 C844 1.368 . S
C850 C849 1.523 . S
C851 C835 1.429 . S
C851 C847 1.429 . S
C851 C852 1.523 . S
C852 C836 1.368 . S
C852 C848 1.368 . S
C852 C851 1.523 . S
H853 C828 0.950 . S
H854 C830 0.950 . S
H855 C831 0.949 . S
H856 C833 0.950 . S
H857 C835 0.950 . S
C858 C859 1.349 . S
C858 C860 1.327 . S
C858 H883 0.950 . S
C859 C858 1.349 . S
C859 C875 1.349 . S
C860 C858 1.327 . S
C860 C879 1.429 . S
C860 H884 0.950 . S
C861 C878 1.574 . S
C861 C880 1.368 . S
C861 H885 0.949 . S
H862 C866 0.949 . S
C863 C864 1.349 . S
C863 C865 1.327 . S
C863 H886 0.950 . S
C864 C863 1.349 . S
C864 C876 1.349 . S
C865 C863 1.327 . S
C865 C881 1.429 . S
C865 H887 0.950 . S
C866 H862 0.949 . S
C866 C874 1.574 . S
C866 C882 1.368 . S
H867 C875 0.950 . S
H868 C873 0.950 . S
H869 C874 0.949 . S
H870 C876 0.950 . S
H871 C877 0.950 . S
H872 C878 0.949 . S
C873 H868 0.950 . S
C873 C875 1.327 . S
C873 C879 1.429 . S
C874 C866 1.574 . S
C874 H869 0.949 . S
C874 C880 1.368 . S
C875 C859 1.349 . S
C875 H867 0.950 . S
C875 C873 1.327 . S
C876 C864 1.349 . S
C876 H870 0.950 . S
C876 C877 1.327 . S
C877 H871 0.950 . S
C877 C876 1.327 . S
C877 C881 1.429 . S
C878 C861 1.574 . S
C878 H872 0.949 . S
C878 C882 1.368 . S
C879 C860 1.429 . S
C879 C873 1.429 . S
C879 C880 1.523 . S
C880 C861 1.368 . S
C880 C874 1.368 . S
C880 C879 1.523 . S
C881 C865 1.429 . S
C881 C877 1.429 . S
C881 C882 1.523 . S
C882 C866 1.368 . S
C882 C878 1.368 . S
C882 C881 1.523 . S
H883 C858 0.950 . S
H884 C860 0.950 . S
H885 C861 0.949 . S
H886 C863 0.950 . S
H887 C865 0.950 . S
C169 C9 1.424 . S
C174 C149 1.424 . S
C199 C23 1.424 . S
C204 C163 1.424 . S
C229 C93 1.425 . S
C234 C37 1.425 . S
C259 C51 1.425 . S
C264 C107 1.424 . S
C289 C121 1.424 . S
C294 C65 1.424 . S
C319 C135 1.425 . S
C324 C79 1.425 . S
C349 C89 0.204 . S
C354 C5 0.204 . S
C379 C103 0.204 . S
C384 C19 0.204 . S
C409 C117 0.204 . S
C414 C33 0.204 . S
C439 C47 0.204 . S
C444 C131 0.204 . S
C469 C61 0.204 . S
C474 C145 0.204 . S
C499 C75 0.204 . S
C504 C159 0.204 . S
C529 C11 1.347 . S
C534 C53 1.347 . S
C559 C25 1.348 . S
C564 C67 1.348 . S
C589 C39 1.348 . S
C594 C81 1.348 . S
C619 C137 1.348 . S
C624 C95 1.348 . S
C649 C151 1.348 . S
C654 C109 1.348 . S
C679 C165 1.347 . S
C684 C123 1.347 . S
C709 C0 1.423 . S
C714 C112 1.423 . S
C739 C126 1.424 . S
C744 C14 1.424 . S
C769 C28 1.424 . S
C774 C140 1.424 . S
C799 C154 1.423 . S
C804 C42 1.423 . S
C829 C56 1.424 . S
C834 C84 1.424 . S
C859 C70 1.424 . S
C864 C98 1.424 . S
