# Generated by pormake.
# Topology nbo, (4)-cn, num edge types: 1
# Building blocks:
#     Node 0, Type 0, BuildingBlock: MUDLON_clean_sbu_0, # of connection points: 4
#     Node 1, Type 0, BuildingBlock: MUDLON_clean_sbu_0, # of connection points: 4
#     Node 2, Type 0, BuildingBlock: MUDLON_clean_sbu_0, # of connection points: 4
#     Node 3, Type 0, BuildingBlock: MUDLON_clean_sbu_0, # of connection points: 4
#     Node 4, Type 0, BuildingBlock: MUDLON_clean_sbu_0, # of connection points: 4
#     Node 5, Type 0, BuildingBlock: MUDLON_clean_sbu_0, # of connection points: 4
#     Edge 6, Type (0, 0), BuildingBlock: MIFKUJ_clean_linker_0, # of connection points: 2
#     Edge 7, Type (0, 0), BuildingBlock: MIFKUJ_clean_linker_0, # of connection points: 2
#     Edge 8, Type (0, 0), BuildingBlock: MIFKUJ_clean_linker_0, # of connection points: 2
#     Edge 9, Type (0, 0), BuildingBlock: MIFKUJ_clean_linker_0, # of connection points: 2
#     Edge 10, Type (0, 0), BuildingBlock: MIFKUJ_clean_linker_0, # of connection points: 2
#     Edge 11, Type (0, 0), BuildingBlock: MIFKUJ_clean_linker_0, # of connection points: 2
#     Edge 12, Type (0, 0), BuildingBlock: MIFKUJ_clean_linker_0, # of connection points: 2
#     Edge 13, Type (0, 0), BuildingBlock: MIFKUJ_clean_linker_0, # of connection points: 2
#     Edge 14, Type (0, 0), BuildingBlock: MIFKUJ_clean_linker_0, # of connection points: 2
#     Edge 15, Type (0, 0), BuildingBlock: MIFKUJ_clean_linker_0, # of connection points: 2
#     Edge 16, Type (0, 0), BuildingBlock: MIFKUJ_clean_linker_0, # of connection points: 2
#     Edge 17, Type (0, 0), BuildingBlock: MIFKUJ_clean_linker_0, # of connection points: 2
# Relax obj value: 0.000
# Max RMSD: 0.009
# Mean RMSD: 0.009
data_MOF--net-nbo--node1-MUDLON_clean_sbu_0--edge1-MIFKUJ_clean_linker_0
_symmetry_space_group_name_H-M    P1
_symmetry_Int_Tables_number       1
_symmetry_cell_setting            triclinic
loop_
_symmetry_equiv_pos_as_xyz
'x, y, z'
_cell_length_a     39.652462
_cell_length_b     39.833924
_cell_length_c     39.709718
_cell_angle_alpha  91.596787
_cell_angle_beta   90.98439
_cell_angle_gamma 91.505782
loop_
_atom_site_label
_atom_site_type_symbol
_atom_site_fract_x
_atom_site_fract_y
_atom_site_fract_z
_atom_type_partial_charge
Mg0 Mg 0.97421 0.98299 0.54863 0.0
C1 C 0.98453 0.05822 0.52536 0.0
O2 O 0.99336 0.04289 0.49728 0.0
C3 C 0.97559 0.90702 0.52306 0.0
O4 O 0.98103 0.92121 0.49411 0.0
C5 C 0.90152 0.97575 0.51741 0.0
O6 O 0.92006 0.96976 0.4909 0.0
O7 O 0.91625 0.98265 0.54558 0.0
O8 O 0.97558 0.0407 0.55014 0.0
O9 O 0.03237 0.98272 0.55094 0.0
C10 C 0.04892 0.98071 0.52379 0.0
O11 O 0.03226 0.97909 0.49488 0.0
O12 O 0.97219 0.92553 0.54932 0.0
Mg13 Mg 0.51591 0.05656 0.98687 0.0
C14 C 0.54284 0.13066 0.98158 0.0
O15 O 0.56991 0.11382 0.97416 0.0
C16 C 0.54417 0.98366 0.98417 0.0
O17 O 0.57234 1.00178 0.98624 0.0
C18 C 0.54163 0.05673 0.91134 0.0
O19 O 0.57111 0.05336 0.92628 0.0
O20 O 0.51533 0.05816 0.92916 0.0
O21 O 0.51605 0.1144 0.989 0.0
O22 O 0.51375 0.05499 0.04474 0.0
C23 C 0.53251 0.07249 0.06522 0.0
O24 O 0.55568 0.09289 0.05328 0.0
O25 O 0.51622 0.99867 0.98395 0.0
Mg26 Mg 0.05511 0.54897 0.05827 0.0
C27 C 0.12968 0.52338 0.06232 0.0
O28 O 0.11335 0.49438 0.06413 0.0
C29 C 0.97901 0.52234 0.05755 0.0
O30 O 0.99402 0.49332 0.05678 0.0
C31 C 0.05992 0.5229 0.98357 0.0
O32 O 0.06337 0.49478 0.99966 0.0
O33 O 0.0554 0.54992 1.00055 0.0
O34 O 0.11294 0.54998 0.05938 0.0
O35 O 0.05579 0.5477 0.11586 0.0
C36 C 0.05263 0.51963 0.13012 0.0
O37 O 0.04832 0.49215 0.11131 0.0
O38 O 0.99702 0.54927 0.05779 0.0
Mg39 Mg 0.55221 0.55622 0.0191 0.0
C40 C 0.57366 0.62422 0.99278 0.0
O41 O 0.60269 0.61469 1.00518 0.0
C42 C 0.56918 0.49162 0.97855 0.0
O43 O 0.60004 0.50449 0.97953 0.0
C44 C 0.49173 0.52951 0.05641 0.0
O45 O 0.50469 0.50088 0.04672 0.0
O46 O 0.50832 0.55669 0.05154 0.0
O47 O 0.54857 0.60356 0.99248 0.0
O48 O 0.60194 0.55598 0.04396 0.0
C49 C 0.6156 0.52953 0.05436 0.0
O50 O 0.59772 0.50128 0.0541 0.0
O51 O 0.5452 0.50924 0.98957 0.0
Mg52 Mg 0.0215 0.49162 0.55885 0.0
C53 C 0.97953 0.54803 0.5327 0.0
O54 O 0.98695 0.53317 0.50397 0.0
C55 C 0.02055 0.41844 0.55192 0.0
O56 O 0.05156 0.42811 0.54508 0.0
C57 C 0.03426 0.47849 0.48638 0.0
O58 O 1.00703 0.46014 0.49197 0.0
O59 O 0.04811 0.49522 0.51097 0.0
O60 O 0.98743 0.53395 0.56001 0.0
O61 O 0.05191 0.49671 0.60515 0.0
C62 C 0.05316 0.52429 0.62217 0.0
O63 O 0.03997 0.55099 0.60906 0.0
O64 O 0.99937 0.44072 0.55978 0.0
Mg65 Mg 0.47934 0.02331 0.49125 0.0
C66 C 0.54173 0.98505 0.47139 0.0
O67 O 0.53299 0.99556 0.44151 0.0
C68 C 0.41261 0.99888 0.52041 0.0
O69 O 0.4287 0.00741 0.5487 0.0
C70 C 0.46831 0.03421 0.41816 0.0
O71 O 0.44831 0.00825 0.4239 0.0
O72 O 0.48456 0.04816 0.44296 0.0
O73 O 0.52188 0.9897 0.49585 0.0
O74 O 0.4849 0.05518 0.53668 0.0
C75 C 0.514 0.05934 0.55043 0.0
O76 O 0.54045 0.0494 0.53377 0.0
O77 O 0.42834 1.00072 0.49279 0.0
H78 H 1.00922 0.10279 0.4801 0.0
H79 H 0.01191 0.1641 0.48544 0.0
H80 H 0.96482 0.15954 0.58234 0.0
H81 H 0.96196 0.09811 0.57721 0.0
H82 H 0.93799 0.20882 0.54204 0.0
H83 H 0.0481 0.17349 0.5785 0.0
H84 H 0.10236 0.14494 0.57385 0.0
H85 H 0.12557 0.20023 0.48553 0.0
H86 H 0.07126 0.22877 0.48936 0.0
H87 H 0.97709 0.38127 0.59018 0.0
H88 H 0.96729 0.32009 0.58662 0.0
H89 H 0.03145 0.31425 0.49996 0.0
H90 H 0.04272 0.37461 0.50485 0.0
H91 H 0.04874 0.2692 0.53843 0.0
H92 H 0.94016 0.30281 0.49798 0.0
H93 H 0.88649 0.33268 0.49995 0.0
H94 H 0.8598 0.28174 0.58997 0.0
H95 H 0.91352 0.25186 0.58876 0.0
C96 C 0.99935 0.11477 0.50254 0.0
C97 C 0.98551 0.09548 0.5283 0.0
C98 C 1.001 0.14985 0.50559 0.0
C99 C 0.98884 0.1664 0.53443 0.0
C100 C 0.97439 0.14729 0.55989 0.0
C101 C 0.9729 0.11217 0.55696 0.0
C102 C 0.9917 0.20361 0.53817 0.0
C103 C 0.96222 0.2221 0.54163 0.0
C104 C 0.02322 0.22094 0.53685 0.0
C105 C 0.05549 0.20309 0.53409 0.0
C106 C 0.06461 0.1793 0.55788 0.0
C107 C 0.09541 0.16318 0.55544 0.0
C108 C 0.1174 0.17082 0.52944 0.0
C109 C 0.10853 0.19438 0.50567 0.0
C110 C 0.07776 0.21054 0.50798 0.0
C111 C 0.9887 0.36681 0.57021 0.0
C112 C 0.0108 0.38251 0.54792 0.0
C113 C 0.983 0.33187 0.56805 0.0
C114 C 0.9985 0.3123 0.54288 0.0
C115 C 0.01943 0.32849 0.51983 0.0
C116 C 0.02579 0.36306 0.52255 0.0
C117 C 0.99492 0.27486 0.54141 0.0
C118 C 0.02438 0.25617 0.53868 0.0
C119 C 0.96333 0.25748 0.54272 0.0
C120 C 0.93101 0.27537 0.54347 0.0
C121 C 0.92295 0.29817 0.51833 0.0
C122 C 0.89251 0.31506 0.51929 0.0
C123 C 0.8698 0.30918 0.54512 0.0
C124 C 0.87744 0.28631 0.57001 0.0
C125 C 0.90787 0.26936 0.56918 0.0
H126 H 0.84624 0.32229 0.54582 0.0
H127 H 0.14141 0.15864 0.52778 0.0
H128 H 0.8632 0.96329 0.46039 0.0
H129 H 0.80181 0.96092 0.45474 0.0
H130 H 0.79331 0.9821 0.5613 0.0
H131 H 0.855 0.98426 0.56728 0.0
H132 H 0.74822 0.93232 0.53906 0.0
H133 H 0.78077 0.04336 0.50659 0.0
H134 H 0.81272 0.08577 0.47512 0.0
H135 H 0.77204 0.04382 0.38178 0.0
H136 H 0.7402 1.00084 0.41269 0.0
H137 H 0.57501 0.98026 0.53218 0.0
H138 H 0.63557 0.97402 0.54158 0.0
H139 H 0.64912 0.9612 0.43447 0.0
H140 H 0.58876 0.96826 0.42484 0.0
H141 H 0.6919 1.00687 0.45877 0.0
H142 H 0.65889 0.89576 0.49125 0.0
H143 H 0.62706 0.85333 0.52283 0.0
H144 H 0.66815 0.89519 0.61603 0.0
H145 H 0.6999 0.93815 0.58503 0.0
C146 C 0.84837 0.96746 0.4827 0.0
C147 C 0.86411 0.97419 0.51428 0.0
C148 C 0.8132 0.96615 0.47939 0.0
C149 C 0.79289 0.97168 0.50753 0.0
C150 C 0.80846 0.97779 0.53923 0.0
C151 C 0.84373 0.97917 0.54257 0.0
C152 C 0.75548 0.97162 0.50355 0.0
C153 C 0.73582 0.94891 0.52184 0.0
C154 C 0.73932 0.99279 0.4806 0.0
C155 C 0.75835 0.01868 0.46194 0.0
C156 C 0.77884 0.04301 0.47934 0.0
C157 C 0.7969 0.06718 0.4616 0.0
C158 C 0.79448 0.06744 0.42647 0.0
C159 C 0.77392 0.04357 0.409 0.0
C160 C 0.75584 0.01931 0.42661 0.0
C161 C 0.59074 0.97535 0.51066 0.0
C162 C 0.577 0.97489 0.47772 0.0
C163 C 0.62546 0.97175 0.51609 0.0
C164 C 0.64708 0.9671 0.48875 0.0
C165 C 0.63308 0.96495 0.45599 0.0
C166 C 0.59848 0.96883 0.45052 0.0
C167 C 0.68444 0.96718 0.49389 0.0
C168 C 0.70417 0.99012 0.47593 0.0
C169 C 0.70056 0.9462 0.51713 0.0
C170 C 0.68151 0.92038 0.53582 0.0
C171 C 0.66093 0.89609 0.51849 0.0
C172 C 0.64294 0.87191 0.53629 0.0
C173 C 0.64551 0.87162 0.57141 0.0
C174 C 0.66615 0.89547 0.58882 0.0
C175 C 0.68417 0.91971 0.57115 0.0
H176 H 0.63157 0.85288 0.58514 0.0
H177 H 0.80847 0.08617 0.41278 0.0
H178 H 0.97231 0.5884 0.47887 0.0
H179 H 0.96672 0.64922 0.47987 0.0
H180 H 0.95886 0.6499 0.58799 0.0
H181 H 0.96505 0.58873 0.58743 0.0
H182 H 0.91347 0.69609 0.55038 0.0
H183 H 0.02988 0.66736 0.56504 0.0
H184 H 0.08132 0.63686 0.55104 0.0
H185 H 0.08145 0.6795 0.45291 0.0
H186 H 0.02962 0.70983 0.46614 0.0
H187 H 0.95892 0.86978 0.57762 0.0
H188 H 0.95489 0.80857 0.58071 0.0
H189 H 0.98236 0.79902 0.47633 0.0
H190 H 0.98664 0.86019 0.47304 0.0
H191 H 0.01728 0.75685 0.5149 0.0
H192 H 0.90172 0.78578 0.49934 0.0
H193 H 0.84947 0.8156 0.51175 0.0
H194 H 0.84679 0.77276 0.60974 0.0
H195 H 0.89935 0.74306 0.5981 0.0
C196 C 0.96872 0.60125 0.50289 0.0
C197 C 0.96945 0.58365 0.53313 0.0
C198 C 0.96557 0.63607 0.50337 0.0
C199 C 0.96274 0.65402 0.53401 0.0
C200 C 0.96105 0.63643 0.56409 0.0
C201 C 0.96461 0.6015 0.5637 0.0
C202 C 0.96476 0.69124 0.53454 0.0
C203 C 0.93627 0.7095 0.54315 0.0
C204 C 0.99434 0.70854 0.52441 0.0
C205 C 0.02565 0.69056 0.51645 0.0
C206 C 0.04068 0.66998 0.54035 0.0
C207 C 0.06994 0.65277 0.53259 0.0
C208 C 0.08459 0.65616 0.50107 0.0
C209 C 0.07004 0.67685 0.47729 0.0
C210 C 0.04073 0.69407 0.48492 0.0
C211 C 0.96409 0.85468 0.55529 0.0
C212 C 0.97309 0.86992 0.52505 0.0
C213 C 0.9616 0.81968 0.55707 0.0
C214 C 0.96802 0.7992 0.52867 0.0
C215 C 0.97724 0.81433 0.49855 0.0
C216 C 0.9796 0.84932 0.49669 0.0
C217 C 0.96585 0.76199 0.53049 0.0
C218 C 0.99444 0.74362 0.52231 0.0
C219 C 0.9363 0.74469 0.54091 0.0
C220 C 0.90469 0.76249 0.54799 0.0
C221 C 0.89016 0.78295 0.52366 0.0
C222 C 0.86046 0.79979 0.53053 0.0
C223 C 0.84487 0.79616 0.56155 0.0
C224 C 0.85892 0.7756 0.58574 0.0
C225 C 0.88866 0.75874 0.57901 0.0
H226 H 0.82186 0.8092 0.56681 0.0
H227 H 0.10726 0.64283 0.4951 0.0
H228 H 0.3726 0.98914 0.57494 0.0
H229 H 0.31114 0.98281 0.57571 0.0
H230 H 0.30708 0.98636 0.46729 0.0
H231 H 0.36866 0.99276 0.46628 0.0
H232 H 0.26247 0.02905 0.49696 0.0
H233 H 0.29182 0.91328 0.50602 0.0
H234 H 0.32105 0.86549 0.53033 0.0
H235 H 0.27401 0.88451 0.62532 0.0
H236 H 0.24484 0.93274 0.6017 0.0
H237 H 0.09101 0.98198 0.47007 0.0
H238 H 0.15257 0.98219 0.47062 0.0
H239 H 0.15377 0.97873 0.57906 0.0
H240 H 0.09188 0.97842 0.57877 0.0
H241 H 0.19977 0.9359 0.55061 0.0
H242 H 0.16969 0.04995 0.54293 0.0
H243 H 0.13918 0.09748 0.52012 0.0
H244 H 0.18824 0.08401 0.42531 0.0
H245 H 0.21815 0.0354 0.44719 0.0
C246 C 0.35872 0.98817 0.55119 0.0
C247 C 0.37565 0.99146 0.52053 0.0
C248 C 0.32353 0.98447 0.55168 0.0
C249 C 0.30442 0.984 0.52155 0.0
C250 C 0.32127 0.98668 0.49086 0.0
C251 C 0.35652 0.99015 0.49032 0.0
C252 C 0.26685 0.98216 0.52219 0.0
C253 C 0.24876 0.00839 0.5082 0.0
C254 C 0.24893 0.95584 0.53793 0.0
C255 C 0.26641 0.92683 0.55217 0.0
C256 C 0.28793 0.90746 0.53217 0.0
C257 C 0.30444 0.88025 0.54582 0.0
C258 C 0.29946 0.87202 0.57938 0.0
C259 C 0.27788 0.89094 0.59934 0.0
C260 C 0.26133 0.9182 0.58583 0.0
C261 C 0.10426 0.9812 0.4941 0.0
C262 C 0.08642 0.98037 0.52441 0.0
C263 C 0.13953 0.98136 0.49435 0.0
C264 C 0.15786 0.98075 0.52488 0.0
C265 C 0.14018 0.97921 0.55519 0.0
C266 C 0.1048 0.97922 0.55498 0.0
C267 C 0.19544 0.98256 0.52502 0.0
C268 C 0.2135 0.95648 0.53927 0.0
C269 C 0.21339 0.00919 0.50979 0.0
C270 C 0.1959 0.03875 0.49661 0.0
C271 C 0.17376 0.05688 0.5171 0.0
C272 C 0.15658 0.08407 0.50434 0.0
C273 C 0.16181 0.09387 0.4713 0.0
C274 C 0.1842 0.07639 0.45091 0.0
C275 C 0.20121 0.04894 0.46346 0.0
H276 H 0.14854 0.11501 0.46151 0.0
H277 H 0.31226 0.85095 0.58989 0.0
H278 H 0.43549 0.00999 0.36143 0.0
H279 H 0.44904 0.02038 0.303 0.0
H280 H 0.5289 0.08997 0.33562 0.0
H281 H 0.51535 0.07975 0.39471 0.0
H282 H 0.4925 0.11215 0.27965 0.0
H283 H 0.54943 0.01372 0.31184 0.0
H284 H 0.55489 0.95797 0.3365 0.0
H285 H 0.48331 0.91579 0.26367 0.0
H286 H 0.477 0.97144 0.2389 0.0
H287 H 0.56644 0.10805 0.11601 0.0
H288 H 0.55791 0.10488 0.17675 0.0
H289 H 0.4791 0.02949 0.15888 0.0
H290 H 0.48773 0.03217 0.09824 0.0
H291 H 0.5204 0.01218 0.20916 0.0
H292 H 0.46156 0.11185 0.179 0.0
H293 H 0.4565 0.16781 0.15461 0.0
H294 H 0.53289 0.2078 0.22361 0.0
H295 H 0.53874 0.15194 0.2481 0.0
C296 C 0.45577 0.02777 0.35635 0.0
C297 C 0.47452 0.04382 0.38286 0.0
C298 C 0.46354 0.03361 0.32283 0.0
C299 C 0.49035 0.05551 0.31489 0.0
C300 C 0.50819 0.07285 0.34118 0.0
C301 C 0.50042 0.06697 0.37492 0.0
C302 C 0.50033 0.05887 0.27915 0.0
C303 C 0.49915 0.09042 0.26434 0.0
C304 C 0.50862 0.03044 0.25904 0.0
C305 C 0.51254 0.99683 0.27369 0.0
C306 C 0.53466 0.99262 0.30123 0.0
C307 C 0.53794 0.96102 0.31521 0.0
C308 C 0.51941 0.93337 0.3017 0.0
C309 C 0.49762 0.93724 0.27413 0.0
C310 C 0.49421 0.9688 0.26009 0.0
C311 C 0.5473 0.09075 0.12498 0.0
C312 C 0.52772 0.07041 0.10216 0.0
C313 C 0.54235 0.0891 0.15975 0.0
C314 C 0.5176 0.0672 0.17245 0.0
C315 C 0.49832 0.04661 0.14973 0.0
C316 C 0.50324 0.04824 0.11501 0.0
C317 C 0.51187 0.06534 0.20935 0.0
C318 C 0.51396 0.034 0.22444 0.0
C319 C 0.50455 0.094 0.22965 0.0
C320 C 0.50085 0.12764 0.21513 0.0
C321 C 0.47746 0.13252 0.18879 0.0
C322 C 0.47442 0.16423 0.17498 0.0
C323 C 0.49443 0.19132 0.18749 0.0
C324 C 0.51745 0.18678 0.21391 0.0
C325 C 0.52062 0.15511 0.22778 0.0
H326 H 0.49204 0.21585 0.17678 0.0
H327 H 0.52198 0.90892 0.31256 0.0
H328 H 0.03635 0.4657 0.16803 0.0
H329 H 0.03787 0.46238 0.22935 0.0
H330 H 0.07378 0.56541 0.23805 0.0
H331 H 0.07214 0.56909 0.17645 0.0
H332 H 0.10865 0.52053 0.28121 0.0
H333 H 0.99595 0.55197 0.25382 0.0
H334 H 0.94135 0.54784 0.22314 0.0
H335 H 0.92404 0.4485 0.25961 0.0
H336 H 0.97882 0.45183 0.29011 0.0
H337 H 0.07043 0.53095 0.45949 0.0
H338 H 0.07885 0.54083 0.39936 0.0
H339 H 0.0302 0.44506 0.37405 0.0
H340 H 0.02128 0.43543 0.43358 0.0
H341 H 1.0023 0.49291 0.33963 0.0
H342 H 0.11578 0.45971 0.36453 0.0
H343 H 0.17089 0.46262 0.39434 0.0
H344 H 0.18713 0.56386 0.36265 0.0
H345 H 0.13187 0.56171 0.33299 0.0
C346 C 0.04464 0.48768 0.18291 0.0
C347 C 0.05394 0.51773 0.16734 0.0
C348 C 0.04548 0.48573 0.21797 0.0
C349 C 0.05578 0.5137 0.23823 0.0
C350 C 0.06578 0.54355 0.22284 0.0
C351 C 0.06462 0.54565 0.18768 0.0
C352 C 0.05502 0.51173 0.27546 0.0
C353 C 0.08536 0.51503 0.29417 0.0
C354 C 0.0247 0.50408 0.29217 0.0
C355 C 0.99164 0.50205 0.27402 0.0
C356 C 0.98063 0.52913 0.25508 0.0
C357 C 0.94963 0.52696 0.23776 0.0
C358 C 0.92927 0.4979 0.23936 0.0
C359 C 0.93985 0.47099 0.25836 0.0
C360 C 0.97086 0.47302 0.2757 0.0
C361 C 0.06224 0.51174 0.44107 0.0
C362 C 0.045 0.48252 0.45119 0.0
C363 C 0.06701 0.51742 0.40673 0.0
C364 C 0.05497 0.49375 0.38212 0.0
C365 C 0.0394 0.46383 0.39249 0.0
C366 C 0.03442 0.45831 0.42657 0.0
C367 C 0.05611 0.50075 0.34554 0.0
C368 C 0.02567 0.4986 0.32688 0.0
C369 C 0.08636 0.50931 0.32899 0.0
C370 C 0.11951 0.51069 0.34689 0.0
C371 C 0.13095 0.48271 0.36419 0.0
C372 C 0.16225 0.48419 0.381 0.0
C373 C 0.18245 0.51344 0.38049 0.0
C374 C 0.17142 0.54125 0.36308 0.0
C375 C 0.14013 0.5399 0.34625 0.0
H376 H 0.20667 0.51454 0.3935 0.0
H377 H 0.90527 0.49626 0.22593 0.0
H378 H 0.46376 0.07196 0.59548 0.0
H379 H 0.46937 0.07686 0.65686 0.0
H380 H 0.57746 0.07097 0.64957 0.0
H381 H 0.5721 0.06579 0.5883 0.0
H382 H 0.553 0.02637 0.69282 0.0
H383 H 0.54061 0.1439 0.67462 0.0
H384 H 0.51364 0.19402 0.65251 0.0
H385 H 0.42414 0.17116 0.70771 0.0
H386 H 0.45041 0.12061 0.7298 0.0
H387 H 0.59283 0.05617 0.86592 0.0
H388 H 0.58851 0.06111 0.8048 0.0
H389 H 0.48047 0.06839 0.81131 0.0
H390 H 0.4846 0.06398 0.87253 0.0
H391 H 0.5053 0.11343 0.76853 0.0
H392 H 0.51616 0.99545 0.78509 0.0
H393 H 0.54205 0.94466 0.80698 0.0
H394 H 0.63311 0.96752 0.75429 0.0
H395 H 0.60791 0.01874 0.73245 0.0
C396 C 0.4888 0.07243 0.60686 0.0
C397 C 0.51747 0.06833 0.5869 0.0
C398 C 0.49196 0.07526 0.64201 0.0
C399 C 0.52386 0.07424 0.65789 0.0
C400 C 0.55259 0.07167 0.63792 0.0
C401 C 0.54947 0.06887 0.60282 0.0
C402 C 0.52713 0.07324 0.69524 0.0
C403 C 0.54307 0.04573 0.70935 0.0
C404 C 0.51325 0.09791 0.71686 0.0
C405 C 0.49738 0.12828 0.70361 0.0
C406 C 0.51507 0.14939 0.68182 0.0
C407 C 0.49993 0.17791 0.66933 0.0
C408 C 0.46716 0.18572 0.67863 0.0
C409 C 0.4495 0.16506 0.70049 0.0
C410 C 0.46452 0.13649 0.71303 0.0
C411 C 0.56812 0.05879 0.8544 0.0
C412 C 0.53905 0.0595 0.87417 0.0
C413 C 0.56569 0.06154 0.81939 0.0
C414 C 0.53412 0.06477 0.80336 0.0
C415 C 0.5051 0.06591 0.82308 0.0
C416 C 0.50751 0.06323 0.8581 0.0
C417 C 0.53134 0.06666 0.76604 0.0
C418 C 0.51538 0.09419 0.75196 0.0
C419 C 0.54506 0.04193 0.74436 0.0
C420 C 0.56027 0.01112 0.75743 0.0
C421 C 0.5418 0.9898 0.7784 0.0
C422 C 0.55633 0.9609 0.79076 0.0
C423 C 0.58923 0.95292 0.78211 0.0
C424 C 0.60764 0.97377 0.76101 0.0
C425 C 0.59324 1.00273 0.74862 0.0
H426 H 0.60044 0.93053 0.7917 0.0
H427 H 0.45549 0.20782 0.66894 0.0
H428 H 0.07113 0.47125 0.66064 0.0
H429 H 0.0783 0.47107 0.72192 0.0
H430 H 0.06434 0.57805 0.72728 0.0
H431 H 0.05738 0.57856 0.666 0.0
H432 H 0.11275 0.55833 0.7731 0.0
H433 H 0.99874 0.52632 0.73959 0.0
H434 H 0.95505 0.49272 0.70795 0.0
H435 H 0.98914 0.4031 0.75395 0.0
H436 H 0.03338 0.43615 0.78552 0.0
H437 H 0.05805 0.57707 0.94242 0.0
H438 H 0.06235 0.577 0.88101 0.0
H439 H 0.07148 0.46931 0.87891 0.0
H440 H 0.06692 0.46911 0.9402 0.0
H441 H 0.02774 0.48831 0.83138 0.0
H442 H 0.13994 0.52045 0.86739 0.0
H443 H 0.18368 0.55389 0.8991 0.0
H444 H 0.15362 0.64273 0.84901 0.0
H445 H 0.10933 0.6099 0.81732 0.0
C446 C 0.07023 0.49487 0.67473 0.0
C447 C 0.06329 0.52488 0.65837 0.0
C448 C 0.0742 0.49469 0.70982 0.0
C449 C 0.07126 0.52446 0.72925 0.0
C450 C 0.06656 0.55477 0.71283 0.0
C451 C 0.06251 0.55497 0.67775 0.0
C452 C 0.07044 0.52362 0.76666 0.0
C453 C 0.09401 0.54326 0.78588 0.0
C454 C 0.04633 0.50352 0.78336 0.0
C455 C 0.01958 0.48365 0.76463 0.0
C456 C 0.99708 0.49941 0.74276 0.0
C457 C 0.9722 0.48048 0.72487 0.0
C458 C 0.96938 0.44578 0.72886 0.0
C459 C 0.99139 0.42997 0.75084 0.0
C460 C 0.01636 0.44879 0.76875 0.0
C461 C 0.06097 0.55336 0.92891 0.0
C462 C 0.06216 0.52309 0.94628 0.0
C463 C 0.06362 0.55338 0.89379 0.0
C464 C 0.06762 0.52318 0.87533 0.0
C465 C 0.06849 0.49293 0.89259 0.0
C466 C 0.06592 0.49288 0.92768 0.0
C467 C 0.07009 0.52298 0.83797 0.0
C468 C 0.04669 0.50322 0.8187 0.0
C469 C 0.09438 0.54295 0.82131 0.0
C470 C 0.12109 0.56276 0.84021 0.0
C471 C 0.14246 0.54717 0.86333 0.0
C472 C 0.16739 0.566 0.88127 0.0
C473 C 0.17137 0.60043 0.87614 0.0
C474 C 0.15048 0.61607 0.85299 0.0
C475 C 0.12548 0.59735 0.835 0.0
H476 H 0.19068 0.61496 0.89006 0.0
H477 H 0.9501 0.43116 0.71499 0.0
H478 H 0.17116 0.57956 0.0644 0.0
H479 H 0.23276 0.58223 0.06817 0.0
H480 H 0.23467 0.474 0.06804 0.0
H481 H 0.17303 0.47113 0.06498 0.0
H482 H 0.27829 0.49993 0.11368 0.0
H483 H 0.25342 0.5184 0.99718 0.0
H484 H 0.2263 0.5458 0.94925 0.0
H485 H 0.27421 0.64 0.97962 0.0
H486 H 0.3013 0.61322 0.02804 0.0
H487 H 0.44833 0.47619 0.0655 0.0
H488 H 0.3873 0.47737 0.07189 0.0
H489 H 0.392 0.58571 0.07487 0.0
H490 H 0.45319 0.58478 0.06801 0.0
H491 H 0.34513 0.56214 0.03007 0.0
H492 H 0.37299 0.54105 0.14541 0.0
H493 H 0.40019 0.51175 0.1921 0.0
H494 H 0.34695 0.42019 0.16221 0.0
H495 H 0.31976 0.44882 0.11506 0.0
C496 C 0.18466 0.5563 0.06513 0.0
C497 C 0.16711 0.52511 0.06424 0.0
C498 C 0.21993 0.55787 0.06719 0.0
C499 C 0.23846 0.5283 0.06801 0.0
C500 C 0.22098 0.49716 0.06746 0.0
C501 C 0.1857 0.49556 0.06557 0.0
C502 C 0.27603 0.52978 0.06934 0.0
C503 C 0.29291 0.51324 0.09519 0.0
C504 C 0.29517 0.54774 0.04566 0.0
C505 C 0.2791 0.56388 0.01644 0.0
C506 C 0.25798 0.54501 0.99379 0.0
C507 C 0.24264 0.56042 0.9665 0.0
C508 C 0.24844 0.59465 0.96144 0.0
C509 C 0.2697 0.6135 0.9836 0.0
C510 C 0.28507 0.59822 0.01096 0.0
C511 C 0.43655 0.50032 0.06815 0.0
C512 C 0.45574 0.5304 0.06613 0.0
C513 C 0.40156 0.50095 0.07189 0.0
C514 C 0.38497 0.53164 0.07395 0.0
C515 C 0.40421 0.56173 0.07327 0.0
C516 C 0.43925 0.56114 0.06955 0.0
C517 C 0.34745 0.53222 0.07438 0.0
C518 C 0.33054 0.54907 0.04876 0.0
C519 C 0.32832 0.51429 0.0981 0.0
C520 C 0.34455 0.49704 0.12653 0.0
C521 C 0.36727 0.51461 0.14864 0.0
C522 C 0.38266 0.49813 0.17522 0.0
C523 C 0.37536 0.46411 0.18008 0.0
C524 C 0.3526 0.44653 0.15841 0.0
C525 C 0.33716 0.46288 0.13178 0.0
H526 H 0.3873 0.4514 0.20067 0.0
H527 H 0.23654 0.60653 0.94031 0.0
H528 H 0.61536 0.44508 0.95948 0.0
H529 H 0.60749 0.38403 0.95629 0.0
H530 H 0.50229 0.39386 0.97943 0.0
H531 H 0.50996 0.45496 0.98293 0.0
H532 H 0.53122 0.34868 0.01891 0.0
H533 H 0.52644 0.36864 0.90074 0.0
H534 H 0.54558 0.39137 0.84699 0.0
H535 H 0.63655 0.33568 0.8543 0.0
H536 H 0.61817 0.31296 0.90836 0.0
H537 H 0.491 0.17383 0.99283 0.0
H538 H 0.49251 0.23512 0.98909 0.0
H539 H 0.5978 0.23309 0.96378 0.0
H540 H 0.59637 0.17197 0.96693 0.0
H541 H 0.56539 0.27445 0.92382 0.0
H542 H 0.57186 0.25695 0.04309 0.0
H543 H 0.55322 0.23404 0.09696 0.0
H544 H 0.4597 0.28525 0.08781 0.0
H545 H 0.4776 0.30809 0.03361 0.0
C546 C 0.59038 0.43435 0.96329 0.0
C547 C 0.56332 0.45505 0.97148 0.0
C548 C 0.58591 0.39936 0.96143 0.0
C549 C 0.55426 0.38425 0.96755 0.0
C550 C 0.52696 0.40488 0.97469 0.0
C551 C 0.53138 0.43988 0.97647 0.0
C552 C 0.55014 0.34697 0.96837 0.0
C553 C 0.53814 0.33247 0.99787 0.0
C554 C 0.55991 0.32571 0.94128 0.0
C555 C 0.57105 0.33933 0.90877 0.0
C556 C 0.55066 0.36145 0.89104 0.0
C557 C 0.56134 0.37429 0.86048 0.0
C558 C 0.5923 0.36504 0.84728 0.0
C559 C 0.61259 0.34285 0.86457 0.0
C560 C 0.60204 0.32996 0.89516 0.0
C561 C 0.5145 0.18643 0.98656 0.0
C562 C 0.54358 0.16792 0.98028 0.0
C563 C 0.51535 0.22152 0.98451 0.0
C564 C 0.54536 0.23884 0.9764 0.0
C565 C 0.57434 0.22037 0.97002 0.0
C566 C 0.57349 0.18536 0.97198 0.0
C567 C 0.54672 0.27617 0.97445 0.0
C568 C 0.55825 0.29068 0.94476 0.0
C569 C 0.53662 0.29744 1.00141 0.0
C570 C 0.52592 0.28393 0.03411 0.0
C571 C 0.54721 0.26312 0.05244 0.0
C572 C 0.5368 0.25018 0.08305 0.0
C573 C 0.50525 0.2581 0.09575 0.0
C574 C 0.4841 0.27908 0.07791 0.0
C575 C 0.49437 0.29205 0.04726 0.0
H576 H 0.49723 0.24805 0.11944 0.0
H577 H 0.60052 0.375 0.82362 0.0
H578 H 0.93369 0.46949 0.06014 0.0
H579 H 0.87228 0.47132 0.0625 0.0
H580 H 0.87782 0.57949 0.05976 0.0
H581 H 0.93945 0.5779 0.05799 0.0
H582 H 0.83301 0.55985 0.1051 0.0
H583 H 0.85429 0.53129 0.98967 0.0
H584 H 0.87841 0.49907 0.94238 0.0
H585 H 0.82588 0.40979 0.9733 0.0
H586 H 0.80179 0.44139 0.02108 0.0
H587 H 0.66021 0.58339 0.05759 0.0
H588 H 0.72179 0.58228 0.06179 0.0
H589 H 0.71659 0.47453 0.06965 0.0
H590 H 0.65503 0.47537 0.06539 0.0
H591 H 0.7611 0.49413 0.02227 0.0
H592 H 0.73886 0.52396 0.13742 0.0
H593 H 0.71439 0.55719 0.1838 0.0
H594 H 0.76824 0.64542 0.15212 0.0
H595 H 0.79269 0.6128 0.10524 0.0
C596 C 0.92192 0.49371 0.05998 0.0
C597 C 0.94159 0.52355 0.0587 0.0
C598 C 0.88671 0.4947 0.06122 0.0
C599 C 0.87027 0.52553 0.06088 0.0
C600 C 0.88986 0.55539 0.06 0.0
C601 C 0.92512 0.55443 0.05886 0.0
C602 C 0.83271 0.52653 0.06142 0.0
C603 C 0.81731 0.54582 0.08671 0.0
C604 C 0.81208 0.50772 0.03786 0.0
C605 C 0.82652 0.48864 0.00916 0.0
C606 C 0.8481 0.50473 0.98655 0.0
C607 C 0.86173 0.48659 0.95963 0.0
C608 C 0.85376 0.45239 0.95489 0.0
C609 C 0.83207 0.43627 0.97703 0.0
C610 C 0.8184 0.45429 1.00402 0.0
C611 C 0.67211 0.55948 0.06073 0.0
C612 C 0.65259 0.52946 0.06115 0.0
C613 C 0.70736 0.5589 0.06318 0.0
C614 C 0.72388 0.52832 0.0661 0.0
C615 C 0.70443 0.49842 0.06736 0.0
C616 C 0.66918 0.49898 0.06511 0.0
C617 C 0.76141 0.52731 0.06602 0.0
C618 C 0.77681 0.50808 0.04072 0.0
C619 C 0.78198 0.54632 0.08943 0.0
C620 C 0.76734 0.566 0.11761 0.0
C621 C 0.74526 0.55051 0.14016 0.0
C622 C 0.73144 0.56922 0.16658 0.0
C623 C 0.73968 0.60341 0.17085 0.0
C624 C 0.76184 0.61894 0.14876 0.0
C625 C 0.77571 0.60034 0.12228 0.0
H626 H 0.72896 0.61785 0.19133 0.0
H627 H 0.86432 0.43839 0.93403 0.0
H628 H 0.51472 0.65664 0.97918 0.0
H629 H 0.50752 0.71717 0.97396 0.0
H630 H 0.61529 0.73354 0.98309 0.0
H631 H 0.62261 0.67334 0.98881 0.0
H632 H 0.58414 0.77426 0.02518 0.0
H633 H 0.57112 0.74303 0.90768 0.0
H634 H 0.54636 0.71164 0.85846 0.0
H635 H 0.44904 0.75082 0.8803 0.0
H636 H 0.47314 0.78211 0.92995 0.0
H637 H 0.59993 0.9448 0.98486 0.0
H638 H 0.60221 0.88364 0.98307 0.0
H639 H 0.49355 0.87634 0.97791 0.0
H640 H 0.49101 0.93783 0.97933 0.0
H641 H 0.52172 0.83098 0.93462 0.0
H642 H 0.53455 0.86279 0.05121 0.0
H643 H 0.55884 0.89416 0.10066 0.0
H644 H 0.65593 0.85334 0.08096 0.0
H645 H 0.63232 0.82208 0.03109 0.0
C646 C 0.53693 0.67306 0.97948 0.0
C647 C 0.56925 0.66007 0.98456 0.0
C648 C 0.53278 0.70772 0.97645 0.0
C649 C 0.56086 0.73006 0.97813 0.0
C650 C 0.59319 0.71693 0.9819 0.0
C651 C 0.59735 0.6824 0.98504 0.0
C652 C 0.55669 0.76719 0.97812 0.0
C653 C 0.57089 0.78664 1.00508 0.0
C654 C 0.5384 0.7834 0.95257 0.0
C655 C 0.52387 0.76463 0.92274 0.0
C656 C 0.54438 0.74473 0.90216 0.0
C657 C 0.53048 0.727 0.87415 0.0
C658 C 0.49613 0.72916 0.86632 0.0
C659 C 0.47563 0.74913 0.88643 0.0
C660 C 0.4894 0.76689 0.91449 0.0
C661 C 0.57644 0.93029 0.98331 0.0
C662 C 0.54526 0.94633 0.98247 0.0
C663 C 0.57781 0.89523 0.98238 0.0
C664 C 0.54805 0.87529 0.9808 0.0
C665 C 0.51685 0.89116 0.97921 0.0
C666 C 0.51545 0.92634 0.98016 0.0
C667 C 0.54973 0.83795 0.98134 0.0
C668 C 0.53495 0.81851 0.95466 0.0
C669 C 0.56743 0.82163 1.00719 0.0
C670 C 0.58172 0.84033 0.03723 0.0
C671 C 0.56114 0.86071 0.05726 0.0
C672 C 0.57478 0.87843 0.0854 0.0
C673 C 0.60893 0.87581 0.0939 0.0
C674 C 0.62949 0.85538 0.07432 0.0
C675 C 0.61599 0.83763 0.04614 0.0
H676 H 0.61944 0.88955 0.11569 0.0
H677 H 0.48541 0.71542 0.84462 0.0
loop_
_geom_bond_atom_site_label_1
_geom_bond_atom_site_label_2
_geom_bond_distance
_geom_bond_site_symmetry_2
_ccdc_geom_bond_type
Mg0 O7 2.141 1_455 S
Mg0 O8 2.048 . S
Mg0 O9 2.048 . S
Mg0 O12 2.141 1_545 S
C1 O2 1.313 . S
C1 O8 1.195 . S
O2 C1 1.313 . S
C3 O4 1.245 . S
C3 O12 1.289 . S
O4 C3 1.245 . S
C5 O6 1.245 . S
C5 O7 1.289 . S
O6 C5 1.245 . S
O7 Mg0 2.141 1_655 S
O7 C5 1.289 . S
O8 Mg0 2.048 . S
O8 C1 1.195 . S
O9 Mg0 2.048 . S
O9 C10 1.195 . S
C10 O9 1.195 . S
C10 O11 1.313 . S
O11 C10 1.313 . S
O12 Mg0 2.141 1_565 S
O12 C3 1.289 . S
Mg13 O20 2.141 1_554 S
Mg13 O21 2.048 . S
Mg13 O22 2.048 . S
Mg13 O25 2.141 1_545 S
C14 O15 1.313 . S
C14 O21 1.195 . S
O15 C14 1.313 . S
C16 O17 1.245 . S
C16 O25 1.289 . S
O17 C16 1.245 . S
C18 O19 1.245 . S
C18 O20 1.289 . S
O19 C18 1.245 . S
O20 Mg13 2.141 1_556 S
O20 C18 1.289 . S
O21 Mg13 2.048 . S
O21 C14 1.195 . S
O22 Mg13 2.048 . S
O22 C23 1.195 . S
C23 O22 1.195 . S
C23 O24 1.313 . S
O24 C23 1.313 . S
O25 Mg13 2.141 1_565 S
O25 C16 1.289 . S
Mg26 O33 2.141 1_554 S
Mg26 O34 2.048 . S
Mg26 O35 2.048 . S
Mg26 O38 2.141 1_455 S
C27 O28 1.313 . S
C27 O34 1.195 . S
O28 C27 1.313 . S
C29 O30 1.245 . S
C29 O38 1.289 . S
O30 C29 1.245 . S
C31 O32 1.245 . S
C31 O33 1.289 . S
O32 C31 1.245 . S
O33 Mg26 2.141 1_556 S
O33 C31 1.289 . S
O34 Mg26 2.048 . S
O34 C27 1.195 . S
O35 Mg26 2.048 . S
O35 C36 1.195 . S
C36 O35 1.195 . S
C36 O37 1.313 . S
O37 C36 1.313 . S
O38 Mg26 2.141 1_655 S
O38 C29 1.289 . S
Mg39 O46 2.141 . S
Mg39 O47 2.048 . S
Mg39 O48 2.048 . S
Mg39 O51 2.141 . S
C40 O41 1.313 1_554 S
C40 O47 1.195 . S
O41 C40 1.313 1_556 S
C42 O43 1.245 1_554 S
C42 O51 1.289 . S
O43 C42 1.245 1_556 S
C44 O45 1.245 1_554 S
C44 O46 1.289 . S
O45 C44 1.245 1_556 S
O46 Mg39 2.141 . S
O46 C44 1.289 . S
O47 Mg39 2.048 . S
O47 C40 1.195 . S
O48 Mg39 2.048 . S
O48 C49 1.195 . S
C49 O48 1.195 . S
C49 O50 1.313 1_554 S
O50 C49 1.313 1_556 S
O51 Mg39 2.141 . S
O51 C42 1.289 . S
Mg52 O59 2.141 1_455 S
Mg52 O60 2.048 . S
Mg52 O61 2.048 . S
Mg52 O64 2.141 1_455 S
C53 O54 1.313 . S
C53 O60 1.195 . S
O54 C53 1.313 . S
C55 O56 1.245 . S
C55 O64 1.285 1_455 S
O56 C55 1.245 . S
C57 O58 1.245 . S
C57 O59 1.285 1_455 S
O58 C57 1.245 . S
O59 Mg52 2.141 1_655 S
O59 C57 1.285 1_655 S
O60 Mg52 2.048 . S
O60 C53 1.195 . S
O61 Mg52 2.048 . S
O61 C62 1.195 . S
C62 O61 1.195 . S
C62 O63 1.313 . S
O63 C62 1.313 . S
O64 Mg52 2.141 1_655 S
O64 C55 1.285 1_655 S
Mg65 O72 2.141 . S
Mg65 O73 2.048 . S
Mg65 O74 2.048 . S
Mg65 O77 2.141 . S
C66 O67 1.313 1_545 S
C66 O73 1.195 . S
O67 C66 1.313 1_565 S
C68 O69 1.245 1_545 S
C68 O77 1.289 . S
O69 C68 1.245 1_565 S
C70 O71 1.245 1_545 S
C70 O72 1.289 . S
O71 C70 1.245 1_565 S
O72 Mg65 2.141 . S
O72 C70 1.289 . S
O73 Mg65 2.048 . S
O73 C66 1.195 . S
O74 Mg65 2.048 . S
O74 C75 1.195 . S
C75 O74 1.195 . S
C75 O76 1.313 1_545 S
O76 C75 1.313 1_565 S
O77 Mg65 2.141 . S
O77 C68 1.289 . S
H78 C96 0.951 . S
H79 C98 0.951 . S
H80 C100 0.950 . S
H81 C101 0.950 . S
H82 C103 0.950 . S
H83 C106 0.950 . S
H84 C107 0.950 . S
H85 C109 0.950 . S
H86 C110 0.950 . S
H87 C111 0.937 1_655 S
H88 C113 0.962 . S
H89 C115 0.950 . S
H90 C116 0.950 . S
H91 C118 0.950 . S
H92 C121 0.950 . S
H93 C122 0.950 . S
H94 C124 0.950 . S
H95 C125 0.950 . S
C96 H78 0.951 . S
C96 C97 1.366 . S
C96 C98 1.388 . S
C97 C96 1.366 . S
C97 C101 1.385 1_455 S
C98 H79 0.951 . S
C98 C96 1.388 . S
C98 C99 1.366 . S
C99 C98 1.366 . S
C99 C100 1.414 1_455 S
C99 C102 1.499 . S
C100 H80 0.950 . S
C100 C99 1.414 1_655 S
C100 C101 1.374 . S
C101 H81 0.950 . S
C101 C97 1.385 1_655 S
C101 C100 1.374 . S
C102 C99 1.499 . S
C102 C103 1.373 1_455 S
C102 C104 1.389 . S
C103 H82 0.950 . S
C103 C102 1.373 1_655 S
C103 C119 1.377 . S
C104 C102 1.389 . S
C104 C105 1.524 . S
C104 C118 1.377 . S
C105 C104 1.524 . S
C105 C106 1.397 . S
C105 C110 1.363 . S
C106 H83 0.950 . S
C106 C105 1.397 . S
C106 C107 1.334 . S
C107 H84 0.950 . S
C107 C106 1.334 . S
C107 C108 1.287 . S
C108 C107 1.287 . S
C108 C109 1.524 . S
C108 H127 0.913 . S
C109 H85 0.950 . S
C109 C108 1.524 . S
C109 C110 1.415 . S
C110 H86 0.950 . S
C110 C105 1.363 . S
C110 C109 1.415 . S
C111 H87 0.937 1_455 S
C111 C112 1.381 . S
C111 C113 1.388 1_455 S
C112 C111 1.381 . S
C112 C116 1.385 . S
C113 H88 0.962 . S
C113 C111 1.388 1_655 S
C113 C114 1.355 1_655 S
C114 C113 1.355 1_455 S
C114 C115 1.414 . S
C114 C117 1.499 . S
C115 H89 0.950 . S
C115 C114 1.414 . S
C115 C116 1.374 . S
C116 H90 0.950 . S
C116 C112 1.385 . S
C116 C115 1.374 . S
C117 C114 1.499 . S
C117 C118 1.373 . S
C117 C119 1.389 1_455 S
C118 H91 0.950 . S
C118 C104 1.377 . S
C118 C117 1.373 . S
C119 C103 1.377 . S
C119 C117 1.389 1_655 S
C119 C120 1.524 . S
C120 C119 1.524 . S
C120 C121 1.397 . S
C120 C125 1.363 . S
C121 H92 0.950 . S
C121 C120 1.397 . S
C121 C122 1.334 . S
C122 H93 0.950 . S
C122 C121 1.334 . S
C122 C123 1.287 . S
C123 C122 1.287 . S
C123 C124 1.524 . S
C123 H126 0.999 . S
C124 H94 0.950 . S
C124 C123 1.524 . S
C124 C125 1.415 . S
C125 H95 0.950 . S
C125 C120 1.363 . S
C125 C124 1.415 . S
H126 C123 0.999 . S
H127 C108 0.913 . S
H128 C146 0.951 . S
H129 C148 0.951 . S
H130 C150 0.950 . S
H131 C151 0.950 . S
H132 C153 0.950 . S
H133 C156 0.950 . S
H134 C157 0.950 . S
H135 C159 0.950 . S
H136 C160 0.950 . S
H137 C161 0.951 . S
H138 C163 0.951 . S
H139 C165 0.950 . S
H140 C166 0.950 . S
H141 C168 0.950 . S
H142 C171 0.950 . S
H143 C172 0.950 . S
H144 C174 0.950 . S
H145 C175 0.950 . S
C146 H128 0.951 . S
C146 C147 1.366 1_565 S
C146 C148 1.388 . S
C147 C146 1.366 1_545 S
C147 C151 1.385 . S
C148 H129 0.951 . S
C148 C146 1.388 . S
C148 C149 1.366 1_565 S
C149 C148 1.366 1_545 S
C149 C150 1.414 . S
C149 C152 1.499 . S
C150 H130 0.950 . S
C150 C149 1.414 . S
C150 C151 1.374 . S
C151 H131 0.950 . S
C151 C147 1.385 . S
C151 C150 1.374 . S
C152 C149 1.499 . S
C152 C153 1.373 . S
C152 C154 1.389 . S
C153 H132 0.950 . S
C153 C152 1.373 . S
C153 C169 1.377 . S
C154 C152 1.389 . S
C154 C155 1.524 . S
C154 C168 1.377 . S
C155 C154 1.524 . S
C155 C156 1.397 . S
C155 C160 1.363 1_545 S
C156 H133 0.950 . S
C156 C155 1.397 . S
C156 C157 1.334 . S
C157 H134 0.950 . S
C157 C156 1.334 . S
C157 C158 1.287 . S
C158 C157 1.287 . S
C158 C159 1.524 1_545 S
C158 H177 0.913 . S
C159 H135 0.950 . S
C159 C158 1.524 1_565 S
C159 C160 1.415 . S
C160 H136 0.950 . S
C160 C155 1.363 1_565 S
C160 C159 1.415 . S
C161 H137 0.951 . S
C161 C162 1.366 . S
C161 C163 1.388 . S
C162 C161 1.366 . S
C162 C166 1.385 1_545 S
C163 H138 0.951 . S
C163 C161 1.388 . S
C163 C164 1.366 . S
C164 C163 1.366 . S
C164 C165 1.414 1_545 S
C164 C167 1.499 . S
C165 H139 0.950 . S
C165 C164 1.414 1_565 S
C165 C166 1.374 . S
C166 H140 0.950 . S
C166 C162 1.385 1_565 S
C166 C165 1.374 . S
C167 C164 1.499 . S
C167 C168 1.373 . S
C167 C169 1.389 . S
C168 H141 0.950 . S
C168 C154 1.377 . S
C168 C167 1.373 . S
C169 C153 1.377 . S
C169 C167 1.389 . S
C169 C170 1.524 . S
C170 C169 1.524 . S
C170 C171 1.397 1_545 S
C170 C175 1.363 . S
C171 H142 0.950 . S
C171 C170 1.397 1_565 S
C171 C172 1.334 . S
C172 H143 0.950 . S
C172 C171 1.334 . S
C172 C173 1.287 1_565 S
C173 C172 1.287 1_545 S
C173 C174 1.524 . S
C173 H176 0.999 . S
C174 H144 0.950 . S
C174 C173 1.524 . S
C174 C175 1.415 . S
C175 H145 0.950 . S
C175 C170 1.363 . S
C175 C174 1.415 . S
H176 C173 0.999 . S
H177 C158 0.913 . S
H178 C196 0.951 . S
H179 C198 0.951 . S
H180 C200 0.950 . S
H181 C201 0.950 . S
H182 C203 0.950 . S
H183 C206 0.950 . S
H184 C207 0.950 . S
H185 C209 0.950 . S
H186 C210 0.950 . S
H187 C211 0.951 . S
H188 C213 0.951 . S
H189 C215 0.950 . S
H190 C216 0.950 . S
H191 C218 0.950 . S
H192 C221 0.950 1_455 S
H193 C222 0.950 . S
H194 C224 0.950 . S
H195 C225 0.950 . S
C196 H178 0.951 . S
C196 C197 1.366 . S
C196 C198 1.388 . S
C197 C196 1.366 . S
C197 C201 1.385 1_455 S
C198 H179 0.951 . S
C198 C196 1.388 . S
C198 C199 1.366 . S
C199 C198 1.366 . S
C199 C200 1.414 1_455 S
C199 C202 1.499 . S
C200 H180 0.950 . S
C200 C199 1.414 1_655 S
C200 C201 1.374 . S
C201 H181 0.950 . S
C201 C197 1.385 1_655 S
C201 C200 1.374 . S
C202 C199 1.499 . S
C202 C203 1.373 1_455 S
C202 C204 1.389 . S
C203 H182 0.950 . S
C203 C202 1.373 1_655 S
C203 C219 1.377 . S
C204 C202 1.389 . S
C204 C205 1.524 . S
C204 C218 1.377 . S
C205 C204 1.524 . S
C205 C206 1.397 . S
C205 C210 1.363 . S
C206 H183 0.950 . S
C206 C205 1.397 . S
C206 C207 1.334 . S
C207 H184 0.950 . S
C207 C206 1.334 . S
C207 C208 1.287 . S
C208 C207 1.287 . S
C208 C209 1.524 . S
C208 H227 0.913 . S
C209 H185 0.950 . S
C209 C208 1.524 . S
C209 C210 1.415 . S
C210 H186 0.950 . S
C210 C205 1.363 . S
C210 C209 1.415 . S
C211 H187 0.951 . S
C211 C212 1.366 1_655 S
C211 C213 1.388 . S
C212 C211 1.366 1_455 S
C212 C216 1.385 . S
C213 H188 0.951 . S
C213 C211 1.388 . S
C213 C214 1.366 1_655 S
C214 C213 1.366 1_455 S
C214 C215 1.414 . S
C214 C217 1.499 . S
C215 H189 0.950 . S
C215 C214 1.414 . S
C215 C216 1.374 . S
C216 H190 0.950 . S
C216 C212 1.385 . S
C216 C215 1.374 . S
C217 C214 1.499 . S
C217 C218 1.373 . S
C217 C219 1.389 1_455 S
C218 H191 0.950 . S
C218 C204 1.377 . S
C218 C217 1.373 . S
C219 C203 1.377 . S
C219 C217 1.389 1_655 S
C219 C220 1.524 . S
C220 C219 1.524 . S
C220 C221 1.397 . S
C220 C225 1.363 . S
C221 H192 0.950 1_655 S
C221 C220 1.397 . S
C221 C222 1.334 . S
C222 H193 0.950 . S
C222 C221 1.334 . S
C222 C223 1.287 . S
C223 C222 1.287 . S
C223 C224 1.524 . S
C223 H226 0.999 . S
C224 H194 0.950 . S
C224 C223 1.524 . S
C224 C225 1.415 . S
C225 H195 0.950 . S
C225 C220 1.363 . S
C225 C224 1.415 . S
H226 C223 0.999 . S
H227 C208 0.913 . S
H228 C246 0.951 . S
H229 C248 0.951 . S
H230 C250 0.950 . S
H231 C251 0.950 . S
H232 C253 0.950 . S
H233 C256 0.950 . S
H234 C257 0.950 . S
H235 C259 0.950 . S
H236 C260 0.950 . S
H237 C261 0.951 . S
H238 C263 0.951 . S
H239 C265 0.950 . S
H240 C266 0.950 . S
H241 C268 0.950 . S
H242 C271 0.950 . S
H243 C272 0.950 . S
H244 C274 0.950 . S
H245 C275 0.950 . S
C246 H228 0.951 . S
C246 C247 1.366 . S
C246 C248 1.388 . S
C247 C246 1.366 . S
C247 C251 1.385 . S
C248 H229 0.951 . S
C248 C246 1.388 . S
C248 C249 1.366 . S
C249 C248 1.366 . S
C249 C250 1.414 . S
C249 C252 1.499 . S
C250 H230 0.950 . S
C250 C249 1.414 . S
C250 C251 1.374 . S
C251 H231 0.950 . S
C251 C247 1.385 . S
C251 C250 1.374 . S
C252 C249 1.499 . S
C252 C253 1.373 . S
C252 C254 1.389 1_545 S
C253 H232 0.950 . S
C253 C252 1.373 . S
C253 C269 1.377 . S
C254 C252 1.389 1_565 S
C254 C255 1.524 . S
C254 C268 1.377 . S
C255 C254 1.524 . S
C255 C256 1.397 . S
C255 C260 1.363 . S
C256 H233 0.950 . S
C256 C255 1.397 . S
C256 C257 1.334 . S
C257 H234 0.950 . S
C257 C256 1.334 . S
C257 C258 1.287 . S
C258 C257 1.287 . S
C258 C259 1.524 . S
C258 H277 0.913 . S
C259 H235 0.950 . S
C259 C258 1.524 . S
C259 C260 1.415 . S
C260 H236 0.950 . S
C260 C255 1.363 . S
C260 C259 1.415 . S
C261 H237 0.951 . S
C261 C262 1.366 . S
C261 C263 1.388 . S
C262 C261 1.366 . S
C262 C266 1.385 . S
C263 H238 0.951 . S
C263 C261 1.388 . S
C263 C264 1.366 . S
C264 C263 1.366 . S
C264 C265 1.414 . S
C264 C267 1.499 . S
C265 H239 0.950 . S
C265 C264 1.414 . S
C265 C266 1.374 . S
C266 H240 0.950 . S
C266 C262 1.385 . S
C266 C265 1.374 . S
C267 C264 1.499 . S
C267 C268 1.373 1_545 S
C267 C269 1.389 . S
C268 H241 0.950 . S
C268 C254 1.377 . S
C268 C267 1.373 1_565 S
C269 C253 1.377 . S
C269 C267 1.389 . S
C269 C270 1.524 . S
C270 C269 1.524 . S
C270 C271 1.397 . S
C270 C275 1.363 . S
C271 H242 0.950 . S
C271 C270 1.397 . S
C271 C272 1.334 . S
C272 H243 0.950 . S
C272 C271 1.334 . S
C272 C273 1.287 . S
C273 C272 1.287 . S
C273 C274 1.524 . S
C273 H276 0.999 . S
C274 H244 0.950 . S
C274 C273 1.524 . S
C274 C275 1.415 . S
C275 H245 0.950 . S
C275 C270 1.363 . S
C275 C274 1.415 . S
H276 C273 0.999 . S
H277 C258 0.913 . S
H278 C296 0.951 . S
H279 C298 0.951 . S
H280 C300 0.950 . S
H281 C301 0.950 . S
H282 C303 0.950 . S
H283 C306 0.971 . S
H284 C307 0.950 . S
H285 C309 0.950 . S
H286 C310 0.950 . S
H287 C311 0.951 . S
H288 C313 0.951 . S
H289 C315 0.950 . S
H290 C316 0.950 . S
H291 C318 0.950 . S
H292 C321 0.950 . S
H293 C322 0.950 . S
H294 C324 0.950 . S
H295 C325 0.950 . S
C296 H278 0.951 . S
C296 C297 1.366 1_565 S
C296 C298 1.388 . S
C297 C296 1.366 1_545 S
C297 C301 1.385 . S
C298 H279 0.951 . S
C298 C296 1.388 . S
C298 C299 1.366 1_565 S
C299 C298 1.366 1_545 S
C299 C300 1.414 . S
C299 C302 1.499 . S
C300 H280 0.950 . S
C300 C299 1.414 . S
C300 C301 1.374 . S
C301 H281 0.950 . S
C301 C297 1.385 . S
C301 C300 1.374 . S
C302 C299 1.499 . S
C302 C303 1.373 . S
C302 C304 1.389 1_545 S
C303 H282 0.950 . S
C303 C302 1.373 . S
C303 C319 1.377 . S
C304 C302 1.389 1_565 S
C304 C305 1.524 . S
C304 C318 1.377 . S
C305 C304 1.524 . S
C305 C306 1.397 . S
C305 C310 1.363 . S
C306 H283 0.971 . S
C306 C305 1.397 . S
C306 C307 1.334 . S
C307 H284 0.950 . S
C307 C306 1.334 . S
C307 C308 1.287 . S
C308 C307 1.287 . S
C308 C309 1.524 . S
C308 H327 0.913 . S
C309 H285 0.950 . S
C309 C308 1.524 . S
C309 C310 1.415 . S
C310 H286 0.950 . S
C310 C305 1.363 . S
C310 C309 1.415 . S
C311 H287 0.951 . S
C311 C312 1.366 . S
C311 C313 1.388 . S
C312 C311 1.366 . S
C312 C316 1.385 1_545 S
C313 H288 0.951 . S
C313 C311 1.388 . S
C313 C314 1.366 . S
C314 C313 1.366 . S
C314 C315 1.414 1_545 S
C314 C317 1.499 . S
C315 H289 0.950 . S
C315 C314 1.414 1_565 S
C315 C316 1.374 . S
C316 H290 0.950 . S
C316 C312 1.385 1_565 S
C316 C315 1.374 . S
C317 C314 1.499 . S
C317 C318 1.373 1_545 S
C317 C319 1.389 . S
C318 H291 0.950 . S
C318 C304 1.377 . S
C318 C317 1.373 1_565 S
C319 C303 1.377 . S
C319 C317 1.389 . S
C319 C320 1.524 . S
C320 C319 1.524 . S
C320 C321 1.397 . S
C320 C325 1.363 . S
C321 H292 0.950 . S
C321 C320 1.397 . S
C321 C322 1.334 . S
C322 H293 0.950 . S
C322 C321 1.334 . S
C322 C323 1.287 . S
C323 C322 1.287 . S
C323 C324 1.524 . S
C323 H326 0.999 . S
C324 H294 0.950 . S
C324 C323 1.524 . S
C324 C325 1.415 . S
C325 H295 0.950 . S
C325 C320 1.363 . S
C325 C324 1.415 . S
H326 C323 0.999 . S
H327 C308 0.913 . S
H328 C346 0.951 . S
H329 C348 0.951 . S
H330 C350 0.950 . S
H331 C351 0.950 . S
H332 C353 0.950 . S
H333 C356 0.950 . S
H334 C357 0.950 . S
H335 C359 0.950 . S
H336 C360 0.950 . S
H337 C361 0.951 . S
H338 C363 0.951 . S
H339 C365 0.950 . S
H340 C366 0.950 . S
H341 C368 0.950 . S
H342 C371 0.950 . S
H343 C372 0.950 . S
H344 C374 0.950 . S
H345 C375 0.950 . S
C346 H328 0.951 . S
C346 C347 1.366 1_655 S
C346 C348 1.388 . S
C347 C346 1.366 1_455 S
C347 C351 1.385 . S
C348 H329 0.951 . S
C348 C346 1.388 . S
C348 C349 1.366 1_655 S
C349 C348 1.366 1_455 S
C349 C350 1.414 . S
C349 C352 1.499 . S
C350 H330 0.950 . S
C350 C349 1.414 . S
C350 C351 1.374 . S
C351 H331 0.950 . S
C351 C347 1.385 . S
C351 C350 1.374 . S
C352 C349 1.499 . S
C352 C353 1.373 . S
C352 C354 1.389 1_455 S
C353 H332 0.950 . S
C353 C352 1.373 . S
C353 C369 1.377 . S
C354 C352 1.389 1_655 S
C354 C355 1.524 . S
C354 C368 1.377 . S
C355 C354 1.524 . S
C355 C356 1.397 . S
C355 C360 1.363 . S
C356 H333 0.950 . S
C356 C355 1.397 . S
C356 C357 1.334 . S
C357 H334 0.950 . S
C357 C356 1.334 . S
C357 C358 1.287 . S
C358 C357 1.287 . S
C358 C359 1.524 . S
C358 H377 0.913 . S
C359 H335 0.950 . S
C359 C358 1.524 . S
C359 C360 1.415 . S
C360 H336 0.950 . S
C360 C355 1.363 . S
C360 C359 1.415 . S
C361 H337 0.951 . S
C361 C362 1.366 . S
C361 C363 1.388 . S
C362 C361 1.366 . S
C362 C366 1.385 1_455 S
C363 H338 0.951 . S
C363 C361 1.388 . S
C363 C364 1.366 . S
C364 C363 1.366 . S
C364 C365 1.414 1_455 S
C364 C367 1.499 . S
C365 H339 0.950 . S
C365 C364 1.414 1_655 S
C365 C366 1.374 . S
C366 H340 0.950 . S
C366 C362 1.385 1_655 S
C366 C365 1.374 . S
C367 C364 1.499 . S
C367 C368 1.373 1_455 S
C367 C369 1.389 . S
C368 H341 0.950 . S
C368 C354 1.377 . S
C368 C367 1.373 1_655 S
C369 C353 1.377 . S
C369 C367 1.389 . S
C369 C370 1.524 . S
C370 C369 1.524 . S
C370 C371 1.397 . S
C370 C375 1.363 . S
C371 H342 0.950 . S
C371 C370 1.397 . S
C371 C372 1.334 . S
C372 H343 0.950 . S
C372 C371 1.334 . S
C372 C373 1.287 . S
C373 C372 1.287 . S
C373 C374 1.524 . S
C373 H376 0.999 . S
C374 H344 0.950 . S
C374 C373 1.524 . S
C374 C375 1.415 . S
C375 H345 0.950 . S
C375 C370 1.363 . S
C375 C374 1.415 . S
H376 C373 0.999 . S
H377 C358 0.913 . S
H378 C396 0.951 . S
H379 C398 0.951 . S
H380 C400 0.950 . S
H381 C401 0.950 . S
H382 C403 0.950 . S
H383 C406 0.950 . S
H384 C407 0.950 . S
H385 C409 0.950 . S
H386 C410 0.950 . S
H387 C411 0.951 . S
H388 C413 0.951 . S
H389 C415 0.950 . S
H390 C416 0.950 . S
H391 C418 0.950 . S
H392 C421 0.950 . S
H393 C422 0.950 . S
H394 C424 0.950 . S
H395 C425 0.950 . S
C396 H378 0.951 . S
C396 C397 1.366 . S
C396 C398 1.388 . S
C397 C396 1.366 . S
C397 C401 1.385 1_545 S
C398 H379 0.951 . S
C398 C396 1.388 . S
C398 C399 1.366 . S
C399 C398 1.366 . S
C399 C400 1.414 1_545 S
C399 C402 1.499 . S
C400 H380 0.950 . S
C400 C399 1.414 1_565 S
C400 C401 1.374 . S
C401 H381 0.950 . S
C401 C397 1.385 1_565 S
C401 C400 1.374 . S
C402 C399 1.499 . S
C402 C403 1.373 1_545 S
C402 C404 1.389 . S
C403 H382 0.950 . S
C403 C402 1.373 1_565 S
C403 C419 1.377 . S
C404 C402 1.389 . S
C404 C405 1.524 . S
C404 C418 1.377 . S
C405 C404 1.524 . S
C405 C406 1.397 . S
C405 C410 1.363 . S
C406 H383 0.950 . S
C406 C405 1.397 . S
C406 C407 1.334 . S
C407 H384 0.950 . S
C407 C406 1.334 . S
C407 C408 1.287 . S
C408 C407 1.287 . S
C408 C409 1.524 . S
C408 H427 0.913 . S
C409 H385 0.950 . S
C409 C408 1.524 . S
C409 C410 1.415 . S
C410 H386 0.950 . S
C410 C405 1.363 . S
C410 C409 1.415 . S
C411 H387 0.951 . S
C411 C412 1.366 1_565 S
C411 C413 1.388 . S
C412 C411 1.366 1_545 S
C412 C416 1.385 . S
C413 H388 0.951 . S
C413 C411 1.388 . S
C413 C414 1.366 1_565 S
C414 C413 1.366 1_545 S
C414 C415 1.414 . S
C414 C417 1.499 . S
C415 H389 0.950 . S
C415 C414 1.414 . S
C415 C416 1.374 . S
C416 H390 0.950 . S
C416 C412 1.385 . S
C416 C415 1.374 . S
C417 C414 1.499 . S
C417 C418 1.373 . S
C417 C419 1.389 1_545 S
C418 H391 0.950 . S
C418 C404 1.377 . S
C418 C417 1.373 . S
C419 C403 1.377 . S
C419 C417 1.389 1_565 S
C419 C420 1.524 . S
C420 C419 1.524 . S
C420 C421 1.397 . S
C420 C425 1.363 . S
C421 H392 0.950 . S
C421 C420 1.397 . S
C421 C422 1.334 . S
C422 H393 0.950 . S
C422 C421 1.334 . S
C422 C423 1.287 . S
C423 C422 1.287 . S
C423 C424 1.524 . S
C423 H426 0.999 . S
C424 H394 0.950 . S
C424 C423 1.524 . S
C424 C425 1.415 . S
C425 H395 0.950 . S
C425 C420 1.363 . S
C425 C424 1.415 . S
H426 C423 0.999 . S
H427 C408 0.913 . S
H428 C446 0.951 . S
H429 C448 0.951 . S
H430 C450 0.950 . S
H431 C451 0.950 . S
H432 C453 0.950 . S
H433 C456 0.950 . S
H434 C457 0.950 . S
H435 C459 0.950 . S
H436 C460 0.950 . S
H437 C461 0.951 . S
H438 C463 0.951 . S
H439 C465 0.950 . S
H440 C466 0.950 . S
H441 C468 0.950 . S
H442 C471 0.950 . S
H443 C472 0.950 . S
H444 C474 0.950 . S
H445 C475 0.950 . S
C446 H428 0.951 . S
C446 C447 1.366 1_655 S
C446 C448 1.388 . S
C447 C446 1.366 1_455 S
C447 C451 1.385 . S
C448 H429 0.951 . S
C448 C446 1.388 . S
C448 C449 1.366 1_655 S
C449 C448 1.366 1_455 S
C449 C450 1.414 . S
C449 C452 1.499 . S
C450 H430 0.950 . S
C450 C449 1.414 . S
C450 C451 1.374 . S
C451 H431 0.950 . S
C451 C447 1.385 . S
C451 C450 1.374 . S
C452 C449 1.499 . S
C452 C453 1.373 . S
C452 C454 1.389 1_455 S
C453 H432 0.950 . S
C453 C452 1.373 . S
C453 C469 1.377 . S
C454 C452 1.389 1_655 S
C454 C455 1.524 . S
C454 C468 1.377 . S
C455 C454 1.524 . S
C455 C456 1.397 . S
C455 C460 1.363 . S
C456 H433 0.950 . S
C456 C455 1.397 . S
C456 C457 1.334 . S
C457 H434 0.950 . S
C457 C456 1.334 . S
C457 C458 1.287 . S
C458 C457 1.287 . S
C458 C459 1.524 . S
C458 H477 0.913 . S
C459 H435 0.950 . S
C459 C458 1.524 . S
C459 C460 1.415 . S
C460 H436 0.950 . S
C460 C455 1.363 . S
C460 C459 1.415 . S
C461 H437 0.951 . S
C461 C462 1.366 . S
C461 C463 1.388 . S
C462 C461 1.366 . S
C462 C466 1.385 1_455 S
C463 H438 0.951 . S
C463 C461 1.388 . S
C463 C464 1.366 . S
C464 C463 1.366 . S
C464 C465 1.414 1_455 S
C464 C467 1.499 . S
C465 H439 0.950 . S
C465 C464 1.414 1_655 S
C465 C466 1.374 . S
C466 H440 0.950 . S
C466 C462 1.385 1_655 S
C466 C465 1.374 . S
C467 C464 1.499 . S
C467 C468 1.373 1_455 S
C467 C469 1.389 . S
C468 H441 0.950 . S
C468 C454 1.377 . S
C468 C467 1.373 1_655 S
C469 C453 1.377 . S
C469 C467 1.389 . S
C469 C470 1.524 . S
C470 C469 1.524 . S
C470 C471 1.397 . S
C470 C475 1.363 . S
C471 H442 0.950 . S
C471 C470 1.397 . S
C471 C472 1.334 . S
C472 H443 0.950 . S
C472 C471 1.334 . S
C472 C473 1.287 . S
C473 C472 1.287 . S
C473 C474 1.524 . S
C473 H476 0.999 . S
C474 H444 0.950 . S
C474 C473 1.524 . S
C474 C475 1.415 . S
C475 H445 0.950 . S
C475 C470 1.363 . S
C475 C474 1.415 . S
H476 C473 0.999 . S
H477 C458 0.913 . S
H478 C496 0.951 . S
H479 C498 0.951 . S
H480 C500 0.950 . S
H481 C501 0.950 . S
H482 C503 0.950 . S
H483 C506 0.950 . S
H484 C507 0.950 . S
H485 C509 0.950 . S
H486 C510 0.950 . S
H487 C511 0.951 . S
H488 C513 0.951 . S
H489 C515 0.950 . S
H490 C516 0.950 . S
H491 C518 0.950 . S
H492 C521 0.950 . S
H493 C522 0.950 . S
H494 C524 0.950 1_556 S
H495 C525 0.946 1_556 S
C496 H478 0.951 . S
C496 C497 1.366 . S
C496 C498 1.388 . S
C497 C496 1.366 . S
C497 C501 1.385 1_554 S
C498 H479 0.951 . S
C498 C496 1.388 . S
C498 C499 1.366 . S
C499 C498 1.366 . S
C499 C500 1.414 1_554 S
C499 C502 1.499 . S
C500 H480 0.950 . S
C500 C499 1.414 1_556 S
C500 C501 1.374 . S
C501 H481 0.950 . S
C501 C497 1.385 1_556 S
C501 C500 1.374 . S
C502 C499 1.499 . S
C502 C503 1.373 . S
C502 C504 1.389 . S
C503 H482 0.950 . S
C503 C502 1.373 . S
C503 C519 1.377 . S
C504 C502 1.389 . S
C504 C505 1.524 . S
C504 C518 1.377 . S
C505 C504 1.524 . S
C505 C506 1.397 1_554 S
C505 C510 1.363 . S
C506 H483 0.950 . S
C506 C505 1.397 1_556 S
C506 C507 1.334 . S
C507 H484 0.950 . S
C507 C506 1.334 . S
C507 C508 1.287 . S
C508 C507 1.287 . S
C508 C509 1.524 1_556 S
C508 H527 0.913 . S
C509 H485 0.950 . S
C509 C508 1.524 1_554 S
C509 C510 1.415 . S
C510 H486 0.950 . S
C510 C505 1.363 . S
C510 C509 1.415 . S
C511 H487 0.951 . S
C511 C512 1.366 1_556 S
C511 C513 1.388 . S
C512 C511 1.366 1_554 S
C512 C516 1.385 . S
C513 H488 0.951 . S
C513 C511 1.388 . S
C513 C514 1.366 1_556 S
C514 C513 1.366 1_554 S
C514 C515 1.414 . S
C514 C517 1.499 . S
C515 H489 0.950 . S
C515 C514 1.414 . S
C515 C516 1.374 . S
C516 H490 0.950 . S
C516 C512 1.385 . S
C516 C515 1.374 . S
C517 C514 1.499 . S
C517 C518 1.373 . S
C517 C519 1.389 . S
C518 H491 0.950 . S
C518 C504 1.377 . S
C518 C517 1.373 . S
C519 C503 1.377 . S
C519 C517 1.389 . S
C519 C520 1.524 . S
C520 C519 1.524 . S
C520 C521 1.397 . S
C520 C525 1.366 . S
C521 H492 0.950 . S
C521 C520 1.397 . S
C521 C522 1.334 . S
C522 H493 0.950 . S
C522 C521 1.334 . S
C522 C523 1.287 . S
C523 C522 1.287 . S
C523 C524 1.524 . S
C523 H526 0.999 . S
C524 H494 0.950 1_554 S
C524 C523 1.524 . S
C524 C525 1.416 . S
C525 H495 0.946 1_554 S
C525 C520 1.366 . S
C525 C524 1.416 . S
H526 C523 0.999 . S
H527 C508 0.913 . S
H528 C546 0.951 . S
H529 C548 0.951 . S
H530 C550 0.950 . S
H531 C551 0.950 . S
H532 C553 0.950 . S
H533 C556 0.950 . S
H534 C557 0.950 . S
H535 C559 0.950 . S
H536 C560 0.950 . S
H537 C561 0.951 . S
H538 C563 0.951 . S
H539 C565 0.950 . S
H540 C566 0.950 . S
H541 C568 0.950 . S
H542 C571 0.950 . S
H543 C572 0.950 . S
H544 C574 0.950 . S
H545 C575 0.950 . S
C546 H528 0.951 . S
C546 C547 1.366 1_556 S
C546 C548 1.388 . S
C547 C546 1.366 1_554 S
C547 C551 1.385 . S
C548 H529 0.951 . S
C548 C546 1.388 . S
C548 C549 1.366 1_556 S
C549 C548 1.366 1_554 S
C549 C550 1.414 . S
C549 C552 1.499 . S
C550 H530 0.950 . S
C550 C549 1.414 . S
C550 C551 1.374 . S
C551 H531 0.950 . S
C551 C547 1.385 . S
C551 C550 1.374 . S
C552 C549 1.499 . S
C552 C553 1.373 . S
C552 C554 1.389 1_554 S
C553 H532 0.950 . S
C553 C552 1.373 . S
C553 C569 1.377 . S
C554 C552 1.389 1_556 S
C554 C555 1.524 . S
C554 C568 1.377 . S
C555 C554 1.524 . S
C555 C556 1.397 . S
C555 C560 1.363 . S
C556 H533 0.950 . S
C556 C555 1.397 . S
C556 C557 1.334 . S
C557 H534 0.950 . S
C557 C556 1.334 . S
C557 C558 1.287 . S
C558 C557 1.287 . S
C558 C559 1.524 . S
C558 H577 0.913 . S
C559 H535 0.950 . S
C559 C558 1.524 . S
C559 C560 1.415 . S
C560 H536 0.950 . S
C560 C555 1.363 . S
C560 C559 1.415 . S
C561 H537 0.951 . S
C561 C562 1.366 . S
C561 C563 1.388 . S
C562 C561 1.366 . S
C562 C566 1.385 1_554 S
C563 H538 0.951 . S
C563 C561 1.388 . S
C563 C564 1.366 . S
C564 C563 1.366 . S
C564 C565 1.414 1_554 S
C564 C567 1.499 . S
C565 H539 0.950 . S
C565 C564 1.414 1_556 S
C565 C566 1.374 . S
C566 H540 0.950 . S
C566 C562 1.385 1_556 S
C566 C565 1.374 . S
C567 C564 1.499 . S
C567 C568 1.373 1_554 S
C567 C569 1.389 . S
C568 H541 0.950 . S
C568 C554 1.377 . S
C568 C567 1.373 1_556 S
C569 C553 1.377 . S
C569 C567 1.389 . S
C569 C570 1.524 . S
C570 C569 1.524 . S
C570 C571 1.397 . S
C570 C575 1.363 . S
C571 H542 0.950 . S
C571 C570 1.397 . S
C571 C572 1.334 . S
C572 H543 0.950 . S
C572 C571 1.334 . S
C572 C573 1.287 . S
C573 C572 1.287 . S
C573 C574 1.524 . S
C573 H576 0.999 . S
C574 H544 0.950 . S
C574 C573 1.524 . S
C574 C575 1.415 . S
C575 H545 0.950 . S
C575 C570 1.363 . S
C575 C574 1.415 . S
H576 C573 0.999 . S
H577 C558 0.913 . S
H578 C596 0.951 . S
H579 C598 0.951 . S
H580 C600 0.950 . S
H581 C601 0.950 . S
H582 C603 0.950 . S
H583 C606 0.950 . S
H584 C607 0.950 . S
H585 C609 0.950 . S
H586 C610 0.950 . S
H587 C611 0.951 . S
H588 C613 0.951 . S
H589 C615 0.950 . S
H590 C616 0.950 . S
H591 C618 0.950 . S
H592 C621 0.950 . S
H593 C622 0.950 . S
H594 C624 0.950 . S
H595 C625 0.950 . S
C596 H578 0.951 . S
C596 C597 1.366 1_556 S
C596 C598 1.388 . S
C597 C596 1.366 1_554 S
C597 C601 1.385 . S
C598 H579 0.951 . S
C598 C596 1.388 . S
C598 C599 1.366 1_556 S
C599 C598 1.366 1_554 S
C599 C600 1.414 . S
C599 C602 1.499 . S
C600 H580 0.950 . S
C600 C599 1.414 . S
C600 C601 1.374 . S
C601 H581 0.950 . S
C601 C597 1.385 . S
C601 C600 1.374 . S
C602 C599 1.499 . S
C602 C603 1.373 . S
C602 C604 1.389 1_554 S
C603 H582 0.950 . S
C603 C602 1.373 . S
C603 C619 1.377 . S
C604 C602 1.389 1_556 S
C604 C605 1.524 . S
C604 C618 1.377 . S
C605 C604 1.524 . S
C605 C606 1.397 . S
C605 C610 1.363 . S
C606 H583 0.950 . S
C606 C605 1.397 . S
C606 C607 1.334 . S
C607 H584 0.950 . S
C607 C606 1.334 . S
C607 C608 1.287 . S
C608 C607 1.287 . S
C608 C609 1.524 . S
C608 H627 0.913 . S
C609 H585 0.950 . S
C609 C608 1.524 . S
C609 C610 1.415 . S
C610 H586 0.950 . S
C610 C605 1.363 . S
C610 C609 1.415 . S
C611 H587 0.951 . S
C611 C612 1.366 . S
C611 C613 1.388 . S
C612 C611 1.366 . S
C612 C616 1.385 1_554 S
C613 H588 0.951 . S
C613 C611 1.388 . S
C613 C614 1.366 . S
C614 C613 1.366 . S
C614 C615 1.414 1_554 S
C614 C617 1.499 . S
C615 H589 0.950 . S
C615 C614 1.414 1_556 S
C615 C616 1.374 . S
C616 H590 0.950 . S
C616 C612 1.385 1_556 S
C616 C615 1.374 . S
C617 C614 1.499 . S
C617 C618 1.373 1_554 S
C617 C619 1.389 . S
C618 H591 0.950 . S
C618 C604 1.377 . S
C618 C617 1.373 1_556 S
C619 C603 1.377 . S
C619 C617 1.389 . S
C619 C620 1.524 . S
C620 C619 1.524 . S
C620 C621 1.397 . S
C620 C625 1.363 . S
C621 H592 0.950 . S
C621 C620 1.397 . S
C621 C622 1.334 . S
C622 H593 0.950 . S
C622 C621 1.334 . S
C622 C623 1.287 . S
C623 C622 1.287 . S
C623 C624 1.524 . S
C623 H626 0.999 . S
C624 H594 0.950 . S
C624 C623 1.524 . S
C624 C625 1.415 . S
C625 H595 0.950 . S
C625 C620 1.363 . S
C625 C624 1.415 . S
H626 C623 0.999 . S
H627 C608 0.913 . S
H628 C646 0.951 . S
H629 C648 0.951 . S
H630 C650 0.950 1_556 S
H631 C651 0.950 1_556 S
H632 C653 0.950 . S
H633 C656 0.950 . S
H634 C657 0.950 . S
H635 C659 0.950 1_554 S
H636 C660 0.950 . S
H637 C661 0.951 . S
H638 C663 0.957 . S
H639 C665 0.950 . S
H640 C666 0.950 . S
H641 C668 0.950 . S
H642 C671 0.950 . S
H643 C672 0.950 . S
H644 C674 0.950 . S
H645 C675 0.950 . S
C646 H628 0.951 . S
C646 C647 1.366 . S
C646 C648 1.388 . S
C647 C646 1.366 . S
C647 C651 1.385 . S
C648 H629 0.951 . S
C648 C646 1.388 . S
C648 C649 1.366 . S
C649 C648 1.366 . S
C649 C650 1.414 . S
C649 C652 1.499 . S
C650 H630 0.950 1_554 S
C650 C649 1.414 . S
C650 C651 1.374 . S
C651 H631 0.950 1_554 S
C651 C647 1.385 . S
C651 C650 1.374 . S
C652 C649 1.499 . S
C652 C653 1.373 . S
C652 C654 1.389 . S
C653 H632 0.950 . S
C653 C652 1.373 . S
C653 C669 1.377 . S
C654 C652 1.389 . S
C654 C655 1.524 1_554 S
C654 C668 1.377 . S
C655 C654 1.524 1_556 S
C655 C656 1.397 . S
C655 C660 1.363 1_556 S
C656 H633 0.950 . S
C656 C655 1.397 . S
C656 C657 1.334 . S
C657 H634 0.950 . S
C657 C656 1.334 . S
C657 C658 1.287 . S
C658 C657 1.287 . S
C658 C659 1.524 . S
C658 H677 0.913 . S
C659 H635 0.950 1_556 S
C659 C658 1.524 . S
C659 C660 1.415 1_556 S
C660 H636 0.950 . S
C660 C655 1.363 1_554 S
C660 C659 1.415 1_554 S
C661 H637 0.951 . S
C661 C662 1.366 1_556 S
C661 C663 1.389 . S
C662 C661 1.366 1_554 S
C662 C666 1.385 . S
C663 H638 0.957 . S
C663 C661 1.389 . S
C663 C664 1.358 1_556 S
C664 C663 1.358 1_554 S
C664 C665 1.414 . S
C664 C667 1.499 . S
C665 H639 0.950 . S
C665 C664 1.414 . S
C665 C666 1.374 . S
C666 H640 0.950 . S
C666 C662 1.385 . S
C666 C665 1.374 . S
C667 C664 1.499 . S
C667 C668 1.373 . S
C667 C669 1.389 . S
C668 H641 0.950 . S
C668 C654 1.377 . S
C668 C667 1.373 . S
C669 C653 1.377 . S
C669 C667 1.389 . S
C669 C670 1.524 . S
C670 C669 1.524 . S
C670 C671 1.397 . S
C670 C675 1.363 . S
C671 H642 0.950 . S
C671 C670 1.397 . S
C671 C672 1.334 . S
C672 H643 0.950 . S
C672 C671 1.334 . S
C672 C673 1.287 . S
C673 C672 1.287 . S
C673 C674 1.524 . S
C673 H676 0.999 . S
C674 H644 0.950 . S
C674 C673 1.524 . S
C674 C675 1.415 . S
C675 H645 0.950 . S
C675 C670 1.363 . S
C675 C674 1.415 . S
H676 C673 0.999 . S
H677 C658 0.913 . S
C97 C1 1.493 . S
C112 C55 1.493 . S
C147 C5 1.489 . S
C162 C66 1.493 . S
C197 C53 1.496 . S
C212 C3 1.489 . S
C247 C68 1.489 . S
C262 C10 1.493 . S
C297 C70 1.489 . S
C312 C23 1.496 . S
C347 C36 1.493 . S
C362 C57 1.493 . S
C397 C75 1.493 . S
C412 C18 1.493 . S
C447 C62 1.496 . S
C462 C31 1.489 . S
C497 C27 1.493 . S
C512 C44 1.489 . S
C547 C42 1.489 . S
C562 C14 1.496 . S
C597 C29 1.489 . S
C612 C49 1.493 . S
C647 C40 1.493 . S
C662 C16 1.493 . S
