# Generated by pormake.
# Topology zfx, (5)-cn, num edge types: 1
# Building blocks:
#     Node 0, Type 0, BuildingBlock: BEQFEK_clean_sbu_0, # of connection points: 5
#     Node 1, Type 0, BuildingBlock: BEQFEK_clean_sbu_0, # of connection points: 5
#     Node 2, Type 0, BuildingBlock: BEQFEK_clean_sbu_0, # of connection points: 5
#     Node 3, Type 0, BuildingBlock: BEQFEK_clean_sbu_0, # of connection points: 5
#     Node 4, Type 0, BuildingBlock: BEQFEK_clean_sbu_0, # of connection points: 5
#     Node 5, Type 0, BuildingBlock: BEQFEK_clean_sbu_0, # of connection points: 5
#     Node 6, Type 0, BuildingBlock: BEQFEK_clean_sbu_0, # of connection points: 5
#     Node 7, Type 0, BuildingBlock: BEQFEK_clean_sbu_0, # of connection points: 5
#     Node 8, Type 0, BuildingBlock: BEQFEK_clean_sbu_0, # of connection points: 5
#     Node 9, Type 0, BuildingBlock: BEQFEK_clean_sbu_0, # of connection points: 5
#     Node 10, Type 0, BuildingBlock: BEQFEK_clean_sbu_0, # of connection points: 5
#     Node 11, Type 0, BuildingBlock: BEQFEK_clean_sbu_0, # of connection points: 5
#     Node 12, Type 0, BuildingBlock: BEQFEK_clean_sbu_0, # of connection points: 5
#     Node 13, Type 0, BuildingBlock: BEQFEK_clean_sbu_0, # of connection points: 5
#     Node 14, Type 0, BuildingBlock: BEQFEK_clean_sbu_0, # of connection points: 5
#     Node 15, Type 0, BuildingBlock: BEQFEK_clean_sbu_0, # of connection points: 5
#     Edge 16, Type (0, 0), None
#     Edge 17, Type (0, 0), None
#     Edge 18, Type (0, 0), None
#     Edge 19, Type (0, 0), None
#     Edge 20, Type (0, 0), None
#     Edge 21, Type (0, 0), None
#     Edge 22, Type (0, 0), None
#     Edge 23, Type (0, 0), None
#     Edge 24, Type (0, 0), None
#     Edge 25, Type (0, 0), None
#     Edge 26, Type (0, 0), None
#     Edge 27, Type (0, 0), None
#     Edge 28, Type (0, 0), None
#     Edge 29, Type (0, 0), None
#     Edge 30, Type (0, 0), None
#     Edge 31, Type (0, 0), None
#     Edge 32, Type (0, 0), None
#     Edge 33, Type (0, 0), None
#     Edge 34, Type (0, 0), None
#     Edge 35, Type (0, 0), None
#     Edge 36, Type (0, 0), None
#     Edge 37, Type (0, 0), None
#     Edge 38, Type (0, 0), None
#     Edge 39, Type (0, 0), None
#     Edge 40, Type (0, 0), None
#     Edge 41, Type (0, 0), None
#     Edge 42, Type (0, 0), None
#     Edge 43, Type (0, 0), None
#     Edge 44, Type (0, 0), None
#     Edge 45, Type (0, 0), None
#     Edge 46, Type (0, 0), None
#     Edge 47, Type (0, 0), None
#     Edge 48, Type (0, 0), None
#     Edge 49, Type (0, 0), None
#     Edge 50, Type (0, 0), None
#     Edge 51, Type (0, 0), None
#     Edge 52, Type (0, 0), None
#     Edge 53, Type (0, 0), None
#     Edge 54, Type (0, 0), None
#     Edge 55, Type (0, 0), None
# Relax obj value: 0.960
# Max RMSD: 0.165
# Mean RMSD: 0.165
data_MOF--net-zfx--node1-BEQFEK_clean_sbu_0--edge1-none
_symmetry_space_group_name_H-M    P1
_symmetry_Int_Tables_number       1
_symmetry_cell_setting            triclinic
loop_
_symmetry_equiv_pos_as_xyz
'x, y, z'
_cell_length_a     27.557682
_cell_length_b     27.560723
_cell_length_c     12.487709
_cell_angle_alpha  90.009614
_cell_angle_beta   90.000313
_cell_angle_gamma 89.999971
loop_
_atom_site_label
_atom_site_type_symbol
_atom_site_fract_x
_atom_site_fract_y
_atom_site_fract_z
_atom_type_partial_charge
Co0 Co 0.49217 0.14701 0.51835 0.0
Co1 Co 0.58321 0.12895 0.41469 0.0
C2 C 0.59282 0.18322 0.6179 0.0
O3 O 0.54776 0.17238 0.62512 0.0
O4 O 0.61477 0.17292 0.53066 0.0
C5 C 0.45177 0.20782 0.60899 0.0
O6 O 0.48107 0.23675 0.55579 0.0
C7 C 0.67206 0.11881 0.29485 0.0
C8 C 0.65839 0.0517 0.20435 0.0
C9 C 0.69035 0.09025 0.21198 0.0
N10 N 0.62999 0.10006 0.32672 0.0
N11 N 0.62291 0.05861 0.2763 0.0
C12 C 0.69316 0.16326 0.34589 0.0
H13 H 0.70795 0.15276 0.42503 0.0
H14 H 0.66408 0.18976 0.36296 0.0
H15 H 0.72234 0.18059 0.29895 0.0
C16 C 0.46013 0.19339 0.31342 0.0
N17 N 0.49343 0.17081 0.37658 0.0
N18 N 0.53308 0.16206 0.32298 0.0
C19 C 0.52516 0.17798 0.22084 0.0
C20 C 0.47941 0.2011 0.21211 0.0
C21 C 0.40773 0.19927 0.34251 0.0
H22 H 0.39451 0.16617 0.38358 0.0
H23 H 0.4035 0.23074 0.39712 0.0
H24 H 0.38485 0.20479 0.27048 0.0
O25 O 0.48423 0.07572 0.52876 0.0
O26 O 0.56114 0.06797 0.48741 0.0
H27 H 0.54148 0.13347 0.0872 0.0
H28 H 0.56006 0.1956 0.07245 0.0
C29 C 0.55715 0.165 0.1298 0.0
H30 H 0.59285 0.15321 0.15998 0.0
H31 H 0.59228 0.03677 0.28575 0.0
O32 O 0.43214 0.17294 0.56148 0.0
C33 C 0.5219 0.04971 0.52179 0.0
Co34 Co 0.15504 0.23833 0.76838 0.0
Co35 Co 0.17308 0.32935 0.66474 0.0
C36 C 0.11881 0.33896 0.86795 0.0
O37 O 0.12965 0.29391 0.87517 0.0
O38 O 0.12911 0.36091 0.78071 0.0
C39 C 0.09424 0.19792 0.85903 0.0
O40 O 0.0653 0.22721 0.80584 0.0
C41 C 0.18325 0.41819 0.54492 0.0
C42 C 0.25035 0.40449 0.45442 0.0
C43 C 0.21182 0.43647 0.46207 0.0
N44 N 0.20198 0.37611 0.57677 0.0
N45 N 0.24343 0.36902 0.52635 0.0
C46 C 0.13882 0.43933 0.59599 0.0
H47 H 0.14936 0.45412 0.67512 0.0
H48 H 0.1123 0.41026 0.61309 0.0
H49 H 0.1215 0.46851 0.54907 0.0
C50 C 0.10863 0.20628 0.56345 0.0
N51 N 0.13121 0.23957 0.62661 0.0
N52 N 0.13997 0.27922 0.57302 0.0
C53 C 0.12405 0.27129 0.47087 0.0
C54 C 0.10093 0.22554 0.46213 0.0
C55 C 0.10275 0.15388 0.59253 0.0
H56 H 0.13586 0.14066 0.6336 0.0
H57 H 0.07128 0.14965 0.64714 0.0
H58 H 0.09723 0.131 0.5205 0.0
O59 O 0.22634 0.23039 0.77878 0.0
O60 O 0.23409 0.3073 0.73745 0.0
H61 H 0.16855 0.28759 0.33723 0.0
H62 H 0.10642 0.30618 0.32249 0.0
C63 C 0.13703 0.30327 0.37984 0.0
H64 H 0.14883 0.33897 0.41003 0.0
H65 H 0.26525 0.33837 0.53579 0.0
O66 O 0.12913 0.17829 0.81151 0.0
C67 C 0.25234 0.26805 0.77181 0.0
Co68 Co 0.06374 0.90119 1.01838 0.0
Co69 Co 0.9727 0.91923 0.91473 0.0
C70 C 0.96309 0.86498 0.11794 0.0
O71 O 1.00815 0.87583 0.12516 0.0
O72 O 0.94114 0.87527 1.03069 0.0
C73 C 0.10414 0.84039 0.109 0.0
O74 O 0.07484 0.81146 0.05578 0.0
C75 C 0.88384 0.92938 0.79492 0.0
C76 C 0.89751 0.9965 0.7045 0.0
C77 C 0.86554 0.95795 0.71209 0.0
N78 N 0.92592 0.94812 0.82679 0.0
N79 N 0.93299 0.98958 0.77642 0.0
C80 C 0.86273 0.88493 0.84594 0.0
H81 H 0.84794 0.89545 0.92508 0.0
H82 H 0.89181 0.85843 0.863 0.0
H83 H 0.83355 0.86761 0.79899 0.0
C84 C 0.09578 0.85479 0.81343 0.0
N85 N 0.06248 0.87736 0.8766 0.0
N86 N 1.02283 0.88612 0.823 0.0
C87 C 0.03075 0.87019 0.72085 0.0
C88 C 0.0765 0.84708 0.71211 0.0
C89 C 0.14818 0.84891 0.84252 0.0
H90 H 0.1614 0.88202 0.8836 0.0
H91 H 0.15241 0.81744 0.89712 0.0
H92 H 0.17106 0.84339 0.77049 0.0
O93 O 0.07168 0.97248 1.02877 0.0
O94 O 0.99477 0.98022 0.98744 0.0
H95 H 1.01444 0.9147 0.58723 0.0
H96 H 0.99585 0.85258 0.57244 0.0
C97 C 0.99876 0.88318 0.62981 0.0
H98 H 0.96306 0.89497 0.66 0.0
H99 H 0.96363 1.01141 0.78588 0.0
O100 O 0.12377 0.87527 0.06151 0.0
C101 C 0.03402 0.99848 1.0218 0.0
Co102 Co 0.40089 0.80987 0.26837 0.0
Co103 Co 0.38284 0.71885 0.16465 0.0
C104 C 0.43711 0.70923 0.36786 0.0
O105 O 0.42626 0.75429 0.37511 0.0
O106 O 0.42682 0.68729 0.2806 0.0
C107 C 0.46168 0.85027 0.35906 0.0
O108 O 0.49062 0.82098 0.30585 0.0
C109 C 0.37264 0.63002 0.04477 0.0
C110 C 0.30554 0.64375 0.9543 0.0
C111 C 0.34406 0.61175 0.96191 0.0
N112 N 0.35394 0.6721 0.07665 0.0
N113 N 0.31248 0.67922 1.02625 0.0
C114 C 0.41705 0.60884 0.09583 0.0
H115 H 0.4065 0.59404 0.17492 0.0
H116 H 0.44359 0.63789 0.11298 0.0
H117 H 0.43436 0.57966 0.04886 0.0
C118 C 0.44729 0.84193 0.06346 0.0
N119 N 0.42471 0.80863 0.1266 0.0
N120 N 0.41595 0.76899 0.07297 0.0
C121 C 0.43187 0.77692 0.97083 0.0
C122 C 0.45498 0.82267 0.96212 0.0
C123 C 0.45317 0.89432 0.09259 0.0
H124 H 0.42006 0.90754 0.13367 0.0
H125 H 0.48464 0.89855 0.1472 0.0
H126 H 0.45869 0.91721 1.02058 0.0
O127 O 0.32958 0.81781 0.27876 0.0
O128 O 0.32185 0.74091 0.23741 0.0
H129 H 0.38736 0.76062 0.83717 0.0
H130 H 0.44949 0.74203 0.82241 0.0
C131 C 0.41888 0.74494 0.87977 0.0
H132 H 0.40708 0.70924 0.90992 0.0
H133 H 0.29068 0.70987 1.03572 0.0
O134 O 0.4268 0.8699 0.31154 0.0
C135 C 0.30359 0.78015 0.27178 0.0
Co136 Co 0.49217 0.90123 0.55977 0.0
Co137 Co 0.58323 0.9193 0.66338 0.0
C138 C 0.59279 0.865 0.46017 0.0
O139 O 0.54773 0.87583 0.45299 0.0
O140 O 0.61476 0.87532 0.54738 0.0
C141 C 0.45169 0.84032 0.46939 0.0
O142 O 0.48106 0.81144 0.52254 0.0
C143 C 0.67208 0.92939 0.7832 0.0
C144 C 0.65846 0.9965 0.87371 0.0
C145 C 0.69039 0.95793 0.86608 0.0
N146 N 0.63003 0.94817 0.75131 0.0
N147 N 0.62298 0.98963 0.80174 0.0
C148 C 0.69314 0.88491 0.73219 0.0
H149 H 0.70795 0.89538 0.65305 0.0
H150 H 0.66403 0.85844 0.71514 0.0
H151 H 0.7223 0.86755 0.77913 0.0
C152 C 0.46015 0.85488 0.76476 0.0
N153 N 0.49344 0.87745 0.70157 0.0
N154 N 0.53311 0.8862 0.75513 0.0
C155 C 0.52521 0.87028 0.85728 0.0
C156 C 0.47944 0.84719 0.86606 0.0
C157 C 0.40774 0.84901 0.73574 0.0
H158 H 0.39452 0.88212 0.69466 0.0
H159 H 0.40349 0.81754 0.68114 0.0
H160 H 0.38488 0.84351 0.8078 0.0
O161 O 0.48424 0.97253 0.54931 0.0
O162 O 0.56115 0.98029 0.59069 0.0
H163 H 0.54155 0.91478 0.9909 0.0
H164 H 0.56013 0.85266 1.00564 0.0
C165 C 0.55722 0.88325 0.94829 0.0
H166 H 0.59292 0.89503 0.91807 0.0
H167 H 0.59236 1.01149 0.79229 0.0
O168 O 0.43212 0.87529 0.51673 0.0
C169 C 0.5219 0.99853 0.5563 0.0
Co170 Co 0.40085 0.23832 0.80976 0.0
Co171 Co 0.38279 0.32936 0.91341 0.0
C172 C 0.43709 0.33894 0.71021 0.0
O173 O 0.42625 0.29388 0.703 0.0
O174 O 0.42677 0.3609 0.79743 0.0
C175 C 0.46174 0.19784 0.71932 0.0
O176 O 0.49062 0.22721 0.77247 0.0
C177 C 0.37264 0.41821 1.03327 0.0
C178 C 0.30553 0.40452 0.12375 0.0
C179 C 0.34408 0.43649 0.11615 0.0
N180 N 0.3539 0.37614 1.00137 0.0
N181 N 0.31245 0.36905 0.05178 0.0
C182 C 0.41709 0.43933 0.98224 0.0
H183 H 0.40656 0.45414 0.90314 0.0
H184 H 0.44359 0.41026 0.96511 0.0
H185 H 0.43442 0.4685 1.02921 0.0
C186 C 0.44721 0.20629 1.01473 0.0
N187 N 0.42464 0.23958 0.95155 0.0
N188 N 0.41589 0.27924 1.00513 0.0
C189 C 0.43181 0.27133 0.10729 0.0
C190 C 0.4549 0.22556 0.11605 0.0
C191 C 0.45308 0.15389 0.98566 0.0
H192 H 0.41997 0.14067 0.94457 0.0
H193 H 0.48456 0.14964 0.93107 0.0
H194 H 0.45859 0.13102 0.0577 0.0
O195 O 0.32954 0.23039 0.79931 0.0
O196 O 0.3218 0.3073 0.84068 0.0
H197 H 0.3873 0.28765 0.24092 0.0
H198 H 0.44943 0.30624 0.25567 0.0
C199 C 0.41883 0.30332 0.19831 0.0
H200 H 0.40704 0.33902 0.16813 0.0
H201 H 0.29061 0.33842 0.04231 0.0
O202 O 0.42677 0.17828 0.76667 0.0
C203 C 0.30354 0.26805 0.80629 0.0
Co204 Co 0.06374 0.14697 0.05974 0.0
Co205 Co 0.97268 0.12892 0.16332 0.0
C206 C 0.96312 0.1832 0.96011 0.0
O207 O 1.00819 0.17236 0.95293 0.0
O208 O 0.94115 0.17289 0.04732 0.0
C209 C 0.10423 0.20787 0.96937 0.0
O210 O 0.07486 0.23675 1.02253 0.0
C211 C 0.88382 0.11883 0.2831 0.0
C212 C 0.89743 0.0517 0.37353 0.0
C213 C 0.8655 0.09028 0.36594 0.0
N214 N 0.92587 0.10005 0.25122 0.0
N215 N 0.93291 0.05859 0.30159 0.0
C216 C 0.86275 0.16331 0.23211 0.0
H217 H 0.84795 0.15282 0.15296 0.0
H218 H 0.89187 0.18978 0.21507 0.0
H219 H 0.83359 0.18066 0.27906 0.0
C220 C 0.09576 0.19334 0.26474 0.0
N221 N 0.06246 0.17077 0.20154 0.0
N222 N 1.0228 0.16202 0.25509 0.0
C223 C 0.0307 0.17794 0.35725 0.0
C224 C 0.07647 0.20103 0.36605 0.0
C225 C 0.14816 0.1992 0.23572 0.0
H226 H 0.16139 0.16609 0.19463 0.0
H227 H 0.15242 0.23067 0.18114 0.0
H228 H 0.17103 0.20471 0.30778 0.0
O229 O 0.07167 0.07568 0.04929 0.0
O230 O 0.99476 0.06793 0.09064 0.0
H231 H 1.01436 0.13344 0.49085 0.0
H232 H 0.99578 0.19556 0.50563 0.0
C233 C 0.99869 0.16497 0.44825 0.0
H234 H 0.96299 0.15318 0.41804 0.0
H235 H 0.96353 0.03673 0.29213 0.0
O236 O 0.12379 0.1729 1.01669 0.0
C237 C 0.03401 0.04967 0.05627 0.0
Co238 Co 0.15508 0.80988 0.30973 0.0
Co239 Co 0.17313 0.71883 0.41332 0.0
C240 C 0.11883 0.70926 0.21011 0.0
O241 O 0.12966 0.75433 0.20293 0.0
O242 O 0.12916 0.6873 0.29731 0.0
C243 C 0.09419 0.85037 0.21934 0.0
O244 O 0.0653 0.821 0.27247 0.0
C245 C 0.18324 0.62999 0.5331 0.0
C246 C 0.25036 0.64364 0.62362 0.0
C247 C 0.21179 0.61169 0.61598 0.0
N248 N 0.20201 0.67204 0.50124 0.0
N249 N 0.24347 0.67911 0.55167 0.0
C250 C 0.13878 0.6089 0.48207 0.0
H251 H 0.14929 0.59409 0.40293 0.0
H252 H 0.1123 0.63799 0.46499 0.0
H253 H 0.12143 0.57973 0.529 0.0
C254 C 0.10871 0.8419 0.51473 0.0
N255 N 0.13128 0.80861 0.45152 0.0
N256 N 0.14003 0.76895 0.50508 0.0
C257 C 0.12411 0.77686 0.60723 0.0
C258 C 0.10102 0.82262 0.61603 0.0
C259 C 0.10283 0.8943 0.48571 0.0
H260 H 0.13595 0.90752 0.44463 0.0
H261 H 0.07136 0.89855 0.43112 0.0
H262 H 0.09733 0.91717 0.55777 0.0
O263 O 0.22638 0.8178 0.29929 0.0
O264 O 0.23414 0.7409 0.34064 0.0
H265 H 0.16861 0.76053 0.74086 0.0
H266 H 0.10648 0.74194 0.75559 0.0
C267 C 0.13709 0.74486 0.69824 0.0
H268 H 0.14888 0.70916 0.66802 0.0
H269 H 0.26531 0.70973 0.54223 0.0
O270 O 0.12916 0.86992 0.26669 0.0
C271 C 0.25239 0.78014 0.30627 0.0
Co272 Co 0.90085 0.73831 0.3097 0.0
Co273 Co 0.88278 0.82934 0.41341 0.0
C274 C 0.93707 0.83896 0.21025 0.0
O275 O 0.92622 0.79391 0.20301 0.0
O276 O 0.92676 0.86092 0.29749 0.0
C277 C 0.96169 0.69794 0.21906 0.0
O278 O 0.99063 0.72722 0.2723 0.0
C279 C 0.87259 0.9181 0.5336 0.0
C280 C 0.80543 0.90425 0.62402 0.0
C281 C 0.84398 0.93621 0.61657 0.0
N282 N 0.85385 0.87606 0.50146 0.0
N283 N 0.81239 0.86889 0.55182 0.0
C284 C 0.91703 0.9393 0.48273 0.0
H285 H 0.90648 0.95433 0.40384 0.0
H286 H 0.94349 0.91024 0.46517 0.0
H287 H 0.93444 0.96832 0.53001 0.0
C288 C 0.9472 0.70626 0.51463 0.0
N289 N 0.92464 0.73956 0.45147 0.0
N290 N 0.91588 0.77921 0.50509 0.0
C291 C 0.93178 0.77128 0.60725 0.0
C292 C 0.95489 0.72552 0.61596 0.0
C293 C 0.95306 0.65386 0.48553 0.0
H294 H 0.91995 0.64066 0.44441 0.0
H295 H 0.98454 0.64961 0.43094 0.0
H296 H 0.95855 0.63098 0.55755 0.0
O297 O 0.82955 0.73036 0.29927 0.0
O298 O 0.8218 0.80726 0.34065 0.0
H299 H 0.88723 0.78756 0.74084 0.0
H300 H 0.94937 0.80614 0.75571 0.0
C301 C 0.91877 0.80324 0.69831 0.0
H302 H 0.90698 0.83895 0.66818 0.0
H303 H 0.79058 0.83824 0.54216 0.0
O304 O 0.92681 0.67829 0.26655 0.0
C305 C 0.80354 0.76801 0.30627 0.0
Co306 Co 0.65508 0.30989 0.80973 0.0
Co307 Co 0.67315 0.21887 0.91338 0.0
C308 C 0.61885 0.20924 0.71022 0.0
O309 O 0.62969 0.2543 0.70301 0.0
O310 O 0.62917 0.18729 0.79744 0.0
C311 C 0.59423 0.35027 0.71912 0.0
O312 O 0.5653 0.32099 0.77235 0.0
C313 C 0.68332 0.13011 1.03352 0.0
C314 C 0.75047 0.14395 0.12397 0.0
C315 C 0.71192 0.112 0.11648 0.0
N316 N 0.70207 0.17214 1.00141 0.0
N317 N 0.74352 0.17931 0.05179 0.0
C318 C 0.63887 0.10892 0.98263 0.0
H319 H 0.64942 0.09389 0.90372 0.0
H320 H 0.61242 0.13799 0.96511 0.0
H321 H 0.62146 0.0799 1.02988 0.0
C322 C 0.60871 0.34194 1.01467 0.0
N323 N 0.63128 0.30864 0.9515 0.0
N324 N 0.64004 0.269 1.00509 0.0
C325 C 0.62413 0.27692 0.10724 0.0
C326 C 0.60101 0.32267 0.11599 0.0
C327 C 0.60285 0.39434 0.98562 0.0
H328 H 0.63596 0.40755 0.94452 0.0
H329 H 0.57137 0.39859 0.93103 0.0
H330 H 0.59735 0.41722 0.05766 0.0
O331 O 0.72638 0.31784 0.79931 0.0
O332 O 0.73413 0.24094 0.84065 0.0
H333 H 0.66867 0.26063 0.24083 0.0
H334 H 0.60654 0.24205 0.25568 0.0
C335 C 0.63713 0.24495 0.19828 0.0
H336 H 0.64892 0.20925 0.16813 0.0
H337 H 0.76534 0.20995 0.04216 0.0
O338 O 0.62912 0.36991 0.76662 0.0
C339 C 0.75239 0.28019 0.80629 0.0
Co340 Co 0.65504 0.7383 0.26837 0.0
Co341 Co 0.6731 0.82932 0.16469 0.0
C342 C 0.61881 0.83897 0.36785 0.0
O343 O 0.62965 0.79391 0.37508 0.0
O344 O 0.62913 0.86091 0.28062 0.0
C345 C 0.59422 0.69793 0.35903 0.0
O346 O 0.56528 0.72721 0.30582 0.0
C347 C 0.68333 0.91807 0.04454 0.0
C348 C 0.75046 0.90418 0.95408 0.0
C349 C 0.71194 0.93616 0.96158 0.0
N350 N 0.70204 0.87602 0.07664 0.0
N351 N 0.74349 0.86882 1.02625 0.0
C352 C 0.63892 0.93932 0.09548 0.0
H353 H 0.6495 0.95432 0.17438 0.0
H354 H 0.61243 0.91028 0.11303 0.0
H355 H 0.62154 0.96836 0.04825 0.0
C356 C 0.60866 0.70624 0.06344 0.0
N357 N 0.63123 0.73954 0.1266 0.0
N358 N 0.64 0.77918 0.073 0.0
C359 C 0.62409 0.77125 0.97084 0.0
C360 C 0.60097 0.7255 0.96212 0.0
C361 C 0.60279 0.65385 0.09252 0.0
H362 H 0.6359 0.64064 0.13362 0.0
H363 H 0.57131 0.64961 0.14711 0.0
H364 H 0.59729 0.63096 1.02049 0.0
O365 O 0.72634 0.73036 0.27878 0.0
O366 O 0.73409 0.80726 0.23745 0.0
H367 H 0.66863 0.78752 0.83723 0.0
H368 H 0.6065 0.80612 0.82241 0.0
C369 C 0.6371 0.80321 0.87979 0.0
H370 H 0.6489 0.83891 0.90994 0.0
H371 H 0.76528 0.83816 1.03588 0.0
O372 O 0.62909 0.67828 0.3115 0.0
C373 C 0.75234 0.76801 0.2718 0.0
Co374 Co 0.90089 0.30989 0.76839 0.0
Co375 Co 0.88282 0.21888 0.66464 0.0
C376 C 0.93711 0.20923 0.8678 0.0
O377 O 0.92627 0.25429 0.87506 0.0
O378 O 0.9268 0.18729 0.78055 0.0
C379 C 0.96171 0.35026 0.85908 0.0
O380 O 0.99065 0.32098 0.80586 0.0
C381 C 0.87257 0.13013 0.54443 0.0
C382 C 0.80544 0.14403 0.45399 0.0
C383 C 0.84395 0.11204 0.46146 0.0
N384 N 0.85387 0.17218 0.57656 0.0
N385 N 0.81242 0.17939 0.52619 0.0
C386 C 0.91697 0.10887 0.59536 0.0
H387 H 0.90638 0.09386 0.67423 0.0
H388 H 0.94347 0.1379 0.61294 0.0
H389 H 0.93435 0.07983 0.5481 0.0
C390 C 0.94725 0.34197 0.56347 0.0
N391 N 0.92468 0.30866 0.62662 0.0
N392 N 0.91592 0.26902 0.57298 0.0
C393 C 0.93182 0.27696 0.47083 0.0
C394 C 0.95493 0.32271 0.46213 0.0
C395 C 0.95312 0.39436 0.5926 0.0
H396 H 0.92 0.40757 0.63371 0.0
H397 H 0.9846 0.3986 0.64719 0.0
H398 H 0.95861 0.41725 0.52059 0.0
O399 O 0.82959 0.31785 0.77881 0.0
O400 O 0.82184 0.24094 0.73744 0.0
H401 H 0.88728 0.26069 0.3372 0.0
H402 H 0.9494 0.24209 0.32237 0.0
C403 C 0.91881 0.245 0.37975 0.0
H404 H 0.90701 0.20929 0.40987 0.0
H405 H 0.79064 0.21006 0.53584 0.0
O406 O 0.92684 0.36991 0.81155 0.0
C407 C 0.80358 0.28019 0.77182 0.0
Co408 Co 0.99213 0.64701 1.0183 0.0
Co409 Co 0.08317 0.62893 0.91463 0.0
C410 C 0.0928 0.68325 0.11779 0.0
O411 O 0.04773 0.67242 0.125 0.0
O412 O 0.11475 0.6729 1.03058 0.0
C413 C 0.95169 0.70792 0.10875 0.0
O414 O 0.98105 0.7368 0.05561 0.0
C415 C 0.17193 0.61872 0.79447 0.0
C416 C 0.15806 0.5516 0.70396 0.0
C417 C 0.19003 0.59013 0.71146 0.0
N418 N 0.12989 0.59999 0.82659 0.0
N419 N 0.1227 0.55855 0.77617 0.0
C420 C 0.19315 0.66315 0.84539 0.0
H421 H 0.20815 0.65259 0.9243 0.0
H422 H 0.16409 0.68962 0.86291 0.0
H423 H 0.22219 0.68054 0.79817 0.0
C424 C 0.96008 0.69334 0.81333 0.0
N425 N 0.99339 0.67078 0.87651 0.0
N426 N 0.03304 0.66202 0.82293 0.0
C427 C 0.02512 0.67792 0.72077 0.0
C428 C 0.97936 0.70101 0.71201 0.0
C429 C 0.90768 0.69921 0.84239 0.0
H430 H 0.89447 0.6661 0.88349 0.0
H431 H 0.90342 0.73069 0.89696 0.0
H432 H 0.8848 0.70469 0.77034 0.0
O433 O 0.98419 0.57572 1.02877 0.0
O434 O 0.0611 0.56796 0.9874 0.0
H435 H 0.04142 0.63339 0.58715 0.0
H436 H 0.06002 0.69551 0.57237 0.0
C437 C 0.05711 0.66492 0.62974 0.0
H438 H 0.09281 0.65312 0.6599 0.0
H439 H 0.09205 0.53675 0.7858 0.0
O440 O 0.9321 0.67297 0.06138 0.0
C441 C 1.02185 0.54971 1.02179 0.0
Co442 Co 0.56377 0.40118 0.51837 0.0
Co443 Co 0.47272 0.41925 0.41473 0.0
C444 C 0.46312 0.36495 0.61789 0.0
O445 O 0.50818 0.37579 0.6251 0.0
O446 O 0.44115 0.37528 0.53068 0.0
C447 C 0.60422 0.34029 0.6088 0.0
O448 O 0.57485 0.3114 0.55566 0.0
C449 C 0.38394 0.42945 0.29461 0.0
C450 C 0.39779 0.49659 0.20421 0.0
C451 C 0.36583 0.45805 0.21167 0.0
N452 N 0.42599 0.44818 0.32673 0.0
N453 N 0.43316 0.48963 0.27638 0.0
C454 C 0.36273 0.38502 0.34551 0.0
H455 H 0.34773 0.39558 0.42443 0.0
H456 H 0.39179 0.35855 0.36303 0.0
H457 H 0.33369 0.36762 0.29828 0.0
C458 C 0.59581 0.35484 0.31338 0.0
N459 N 0.5625 0.3774 0.37658 0.0
N460 N 0.52285 0.38616 0.323 0.0
C461 C 0.53077 0.37026 0.22083 0.0
C462 C 0.57654 0.34718 0.21205 0.0
C463 C 0.64822 0.34899 0.34244 0.0
H464 H 0.66142 0.3821 0.38355 0.0
H465 H 0.65248 0.31751 0.397 0.0
H466 H 0.6711 0.3435 0.27039 0.0
O467 O 0.57171 0.47248 0.52881 0.0
O468 O 0.4948 0.48022 0.48747 0.0
H469 H 0.51448 0.41479 0.08724 0.0
H470 H 0.49588 0.35268 0.0724 0.0
C471 C 0.49879 0.38327 0.12979 0.0
H472 H 0.46309 0.39507 0.15996 0.0
H473 H 0.46381 0.51143 0.28602 0.0
O474 O 0.6238 0.37524 0.56144 0.0
C475 C 0.53405 0.49848 0.52183 0.0
Co476 Co 0.99214 0.40123 0.05978 0.0
Co477 Co 0.08319 0.41932 0.16342 0.0
C478 C 0.09279 0.36499 0.96027 0.0
O479 O 0.04772 0.37582 0.95307 0.0
O480 O 0.11476 0.37534 0.04747 0.0
C481 C 0.95169 0.34029 0.96939 0.0
O482 O 0.98105 0.31142 1.02255 0.0
C483 C 0.17195 0.42947 0.28357 0.0
C484 C 0.15814 0.4966 0.37406 0.0
C485 C 0.19007 0.45804 0.36658 0.0
N486 N 0.12993 0.44823 0.25144 0.0
N487 N 0.12278 0.48968 0.30184 0.0
C488 C 0.19312 0.385 0.2327 0.0
H489 H 0.20813 0.39552 0.15378 0.0
H490 H 0.16402 0.35856 0.21521 0.0
H491 H 0.22214 0.36758 0.27994 0.0
C492 C 0.9601 0.35491 0.26477 0.0
N493 N 0.9934 0.37747 0.20158 0.0
N494 N 0.03306 0.38622 0.25515 0.0
C495 C 0.02515 0.37032 0.3573 0.0
C496 C 0.97939 0.34723 0.36608 0.0
C497 C 0.9077 0.34905 0.23574 0.0
H498 H 0.89448 0.38215 0.19463 0.0
H499 H 0.90343 0.31756 0.18117 0.0
H500 H 0.88482 0.34357 0.3078 0.0
O501 O 0.98419 0.47252 0.0493 0.0
O502 O 0.0611 0.48029 0.09068 0.0
H503 H 0.04147 0.41485 0.4909 0.0
H504 H 0.06005 0.35272 0.50571 0.0
C505 C 0.05714 0.38331 0.44833 0.0
H506 H 0.09285 0.3951 0.41816 0.0
H507 H 0.09214 0.51151 0.29221 0.0
O508 O 0.93211 0.37525 1.01673 0.0
C509 C 1.02185 0.49853 0.05629 0.0
Co510 Co 0.56376 0.64697 0.55973 0.0
Co511 Co 0.4727 0.62891 0.66334 0.0
C512 C 0.46312 0.6832 0.46018 0.0
O513 O 0.50819 0.67237 0.45298 0.0
O514 O 0.44115 0.67288 0.54738 0.0
C515 C 0.60422 0.7079 0.46935 0.0
O516 O 0.57485 0.73677 0.52252 0.0
C517 C 0.38393 0.61877 0.78344 0.0
C518 C 0.39771 0.55161 0.87382 0.0
C519 C 0.36579 0.59018 0.86638 0.0
N520 N 0.42595 0.6 0.75131 0.0
N521 N 0.43309 0.55854 0.80165 0.0
C522 C 0.36277 0.66323 0.73259 0.0
H523 H 0.34774 0.65271 0.65367 0.0
H524 H 0.39186 0.68966 0.7151 0.0
H525 H 0.33375 0.68066 0.77984 0.0
C526 C 0.59579 0.69331 0.76473 0.0
N527 N 0.56249 0.67076 0.70152 0.0
N528 N 0.52283 0.662 0.75509 0.0
C529 C 0.53074 0.6779 0.85726 0.0
C530 C 0.57651 0.70099 0.86605 0.0
C531 C 0.6482 0.69916 0.7357 0.0
H532 H 0.66141 0.66605 0.69459 0.0
H533 H 0.65247 0.73064 0.68115 0.0
H534 H 0.67107 0.70464 0.80776 0.0
O535 O 0.57171 0.57568 0.54928 0.0
O536 O 0.49479 0.56793 0.59062 0.0
H537 H 0.51443 0.63336 0.99083 0.0
H538 H 0.49585 0.69549 1.00569 0.0
C539 C 0.49876 0.6649 0.94828 0.0
H540 H 0.46305 0.65311 0.9181 0.0
H541 H 0.46372 0.53671 0.792 0.0
O542 O 0.62379 0.67293 0.51668 0.0
C543 C 0.53405 0.54968 0.55628 0.0
loop_
_geom_bond_atom_site_label_1
_geom_bond_atom_site_label_2
_geom_bond_distance
_geom_bond_site_symmetry_2
_ccdc_geom_bond_type
Co0 O3 1.970 . S
Co0 N17 1.989 . S
Co0 O25 1.967 . S
Co0 O32 1.920 . S
Co1 O4 1.966 . S
Co1 N10 2.022 . S
Co1 N18 1.993 . S
Co1 O26 1.923 1_545 S
C2 O3 1.258 . S
C2 O4 1.263 . S
O3 Co0 1.970 . S
O3 C2 1.258 . S
O4 Co1 1.966 . S
O4 C2 1.263 . S
C5 O6 1.235 . S
C5 O32 1.289 . S
O6 C5 1.235 . S
C7 C9 1.400 . S
C7 N10 1.351 . S
C7 C12 1.501 . S
C8 C9 1.387 . S
C8 N11 1.341 . S
C9 C7 1.400 . S
C9 C8 1.387 . S
N10 Co1 2.022 . S
N10 C7 1.351 . S
N10 N11 1.365 . S
N11 C8 1.341 . S
N11 N10 1.365 . S
N11 H31 0.862 . S
C12 C7 1.501 . S
C12 H13 0.961 . S
C12 H14 0.961 . S
C12 H15 0.960 . S
H13 C12 0.961 . S
H14 C12 0.961 . S
H15 C12 0.960 . S
C16 N17 1.342 . S
C16 C20 1.401 . S
C16 C21 1.499 . S
N17 Co0 1.989 . S
N17 C16 1.342 . S
N17 N18 1.388 . S
N18 Co1 1.993 . S
N18 N17 1.388 . S
N18 C19 1.346 . S
C19 N18 1.346 . S
C19 C20 1.396 . S
C19 C29 1.510 . S
C20 C16 1.401 . S
C20 C19 1.396 . S
C21 C16 1.499 . S
C21 H22 0.959 . S
C21 H23 0.960 . S
C21 H24 0.961 . S
H22 C21 0.959 . S
H23 C21 0.960 . S
H24 C21 0.961 . S
O25 Co0 1.967 . S
O25 C33 1.258 1_545 S
O26 Co1 1.923 1_565 S
O26 C33 1.271 . S
H27 C29 0.959 . S
H28 C29 0.961 . S
C29 C19 1.510 . S
C29 H27 0.959 . S
C29 H28 0.961 . S
C29 H30 0.960 . S
H30 C29 0.960 . S
H31 N11 0.862 . S
O32 Co0 1.920 . S
O32 C5 1.289 . S
C33 O25 1.258 1_565 S
C33 O26 1.271 . S
Co34 O37 1.970 . S
Co34 N51 1.989 . S
Co34 O59 1.967 . S
Co34 O66 1.920 . S
Co35 O38 1.966 . S
Co35 N44 2.022 . S
Co35 N52 1.993 . S
Co35 O60 1.941 . S
C36 O37 1.258 . S
C36 O38 1.263 . S
O37 Co34 1.970 . S
O37 C36 1.258 . S
O38 Co35 1.966 . S
O38 C36 1.263 . S
C39 O40 1.235 . S
C39 O66 1.289 . S
O40 C39 1.235 . S
C41 C43 1.400 . S
C41 N44 1.351 . S
C41 C46 1.501 . S
C42 C43 1.387 . S
C42 N45 1.341 . S
C43 C41 1.400 . S
C43 C42 1.387 . S
N44 Co35 2.022 . S
N44 C41 1.351 . S
N44 N45 1.365 . S
N45 C42 1.341 . S
N45 N44 1.365 . S
N45 H65 0.862 . S
C46 C41 1.501 . S
C46 H47 0.961 . S
C46 H48 0.961 . S
C46 H49 0.960 . S
H47 C46 0.961 . S
H48 C46 0.961 . S
H49 C46 0.960 . S
C50 N51 1.342 . S
C50 C54 1.401 . S
C50 C55 1.499 . S
N51 Co34 1.989 . S
N51 C50 1.342 . S
N51 N52 1.388 . S
N52 Co35 1.993 . S
N52 N51 1.388 . S
N52 C53 1.346 . S
C53 N52 1.346 . S
C53 C54 1.396 . S
C53 C63 1.510 . S
C54 C50 1.401 . S
C54 C53 1.396 . S
C55 C50 1.499 . S
C55 H56 0.959 . S
C55 H57 0.960 . S
C55 H58 0.961 . S
H56 C55 0.959 . S
H57 C55 0.960 . S
H58 C55 0.961 . S
O59 Co34 1.967 . S
O59 C67 1.258 . S
O60 Co35 1.941 . S
O60 C67 1.266 . S
H61 C63 0.959 . S
H62 C63 0.961 . S
C63 C53 1.510 . S
C63 H61 0.959 . S
C63 H62 0.961 . S
C63 H64 0.960 . S
H64 C63 0.960 . S
H65 N45 0.862 . S
O66 Co34 1.920 . S
O66 C39 1.289 . S
C67 O59 1.258 . S
C67 O60 1.266 . S
Co68 O71 1.970 1_455 S
Co68 N85 1.989 1_554 S
Co68 O93 1.967 . S
Co68 O100 1.920 . S
Co69 O72 1.966 . S
Co69 N78 2.022 . S
Co69 N86 1.993 1_655 S
Co69 O94 1.923 1_565 S
C70 O71 1.258 . S
C70 O72 1.263 1_554 S
O71 Co68 1.970 1_655 S
O71 C70 1.258 . S
O72 Co69 1.966 . S
O72 C70 1.263 1_556 S
C73 O74 1.235 . S
C73 O100 1.289 . S
O74 C73 1.235 . S
C75 C77 1.400 . S
C75 N78 1.351 . S
C75 C80 1.501 . S
C76 C77 1.387 . S
C76 N79 1.341 . S
C77 C75 1.400 . S
C77 C76 1.387 . S
N78 Co69 2.022 . S
N78 C75 1.351 . S
N78 N79 1.365 . S
N79 C76 1.341 . S
N79 N78 1.365 . S
N79 H99 0.862 . S
C80 C75 1.501 . S
C80 H81 0.961 . S
C80 H82 0.961 . S
C80 H83 0.960 . S
H81 C80 0.961 . S
H82 C80 0.961 . S
H83 C80 0.960 . S
C84 N85 1.342 . S
C84 C88 1.401 . S
C84 C89 1.499 . S
N85 Co68 1.989 1_556 S
N85 C84 1.342 . S
N85 N86 1.388 . S
N86 Co69 1.993 1_455 S
N86 N85 1.388 . S
N86 C87 1.346 . S
C87 N86 1.346 . S
C87 C88 1.396 . S
C87 C97 1.510 . S
C88 C84 1.401 . S
C88 C87 1.396 . S
C89 C84 1.499 . S
C89 H90 0.959 . S
C89 H91 0.960 . S
C89 H92 0.961 . S
H90 C89 0.959 . S
H91 C89 0.960 . S
H92 C89 0.961 . S
O93 Co68 1.967 . S
O93 C101 1.258 1_464 S
O94 Co69 1.923 1_545 S
O94 C101 1.271 . S
H95 C97 0.959 . S
H96 C97 0.961 . S
C97 C87 1.510 . S
C97 H95 0.959 . S
C97 H96 0.961 . S
C97 H98 0.960 1_455 S
H98 C97 0.960 1_655 S
H99 N79 0.862 . S
O100 Co68 1.920 . S
O100 C73 1.289 . S
C101 O93 1.258 1_646 S
C101 O94 1.271 . S
Co102 O105 1.970 . S
Co102 N119 1.989 . S
Co102 O127 1.967 . S
Co102 O134 1.920 . S
Co103 O106 1.966 . S
Co103 N112 2.022 1_554 S
Co103 N120 1.993 . S
Co103 O128 1.941 . S
C104 O105 1.258 . S
C104 O106 1.263 . S
O105 Co102 1.970 . S
O105 C104 1.258 . S
O106 Co103 1.966 . S
O106 C104 1.263 . S
C107 O108 1.235 . S
C107 O134 1.289 . S
O108 C107 1.235 . S
C109 C111 1.400 . S
C109 N112 1.351 . S
C109 C114 1.501 1_556 S
C110 C111 1.387 . S
C110 N113 1.341 . S
C111 C109 1.400 . S
C111 C110 1.387 . S
N112 Co103 2.022 1_556 S
N112 C109 1.351 . S
N112 N113 1.365 . S
N113 C110 1.341 . S
N113 N112 1.365 . S
N113 H133 0.862 . S
C114 C109 1.501 1_554 S
C114 H115 0.961 . S
C114 H116 0.961 . S
C114 H117 0.960 . S
H115 C114 0.961 . S
H116 C114 0.961 . S
H117 C114 0.960 . S
C118 N119 1.342 . S
C118 C122 1.401 1_554 S
C118 C123 1.499 . S
N119 Co102 1.989 . S
N119 C118 1.342 . S
N119 N120 1.388 . S
N120 Co103 1.993 . S
N120 N119 1.388 . S
N120 C121 1.346 1_554 S
C121 N120 1.346 1_556 S
C121 C122 1.396 . S
C121 C131 1.510 . S
C122 C118 1.401 1_556 S
C122 C121 1.396 . S
C123 C118 1.499 . S
C123 H124 0.959 . S
C123 H125 0.960 . S
C123 H126 0.961 . S
H124 C123 0.959 . S
H125 C123 0.960 . S
H126 C123 0.961 . S
O127 Co102 1.967 . S
O127 C135 1.258 . S
O128 Co103 1.941 . S
O128 C135 1.266 . S
H129 C131 0.959 . S
H130 C131 0.961 . S
C131 C121 1.510 . S
C131 H129 0.959 . S
C131 H130 0.961 . S
C131 H132 0.960 . S
H132 C131 0.960 . S
H133 N113 0.862 . S
O134 Co102 1.920 . S
O134 C107 1.289 . S
C135 O127 1.258 . S
C135 O128 1.266 . S
Co136 O139 1.970 . S
Co136 N153 1.989 . S
Co136 O161 1.967 . S
Co136 O168 1.920 . S
Co137 O140 1.966 . S
Co137 N146 2.022 . S
Co137 N154 1.993 . S
Co137 O162 1.923 1_565 S
C138 O139 1.258 . S
C138 O140 1.263 . S
O139 Co136 1.970 . S
O139 C138 1.258 . S
O140 Co137 1.966 . S
O140 C138 1.263 . S
C141 O142 1.235 . S
C141 O168 1.289 . S
O142 C141 1.235 . S
C143 C145 1.400 . S
C143 N146 1.351 . S
C143 C148 1.501 . S
C144 C145 1.387 . S
C144 N147 1.341 . S
C145 C143 1.400 . S
C145 C144 1.387 . S
N146 Co137 2.022 . S
N146 C143 1.351 . S
N146 N147 1.365 . S
N147 C144 1.341 . S
N147 N146 1.365 . S
N147 H167 0.862 . S
C148 C143 1.501 . S
C148 H149 0.961 . S
C148 H150 0.961 . S
C148 H151 0.960 . S
H149 C148 0.961 . S
H150 C148 0.961 . S
H151 C148 0.960 . S
C152 N153 1.342 . S
C152 C156 1.401 . S
C152 C157 1.499 . S
N153 Co136 1.989 . S
N153 C152 1.342 . S
N153 N154 1.388 . S
N154 Co137 1.993 . S
N154 N153 1.388 . S
N154 C155 1.346 . S
C155 N154 1.346 . S
C155 C156 1.396 . S
C155 C165 1.510 . S
C156 C152 1.401 . S
C156 C155 1.396 . S
C157 C152 1.499 . S
C157 H158 0.959 . S
C157 H159 0.960 . S
C157 H160 0.961 . S
H158 C157 0.959 . S
H159 C157 0.960 . S
H160 C157 0.961 . S
O161 Co136 1.967 . S
O161 C169 1.258 1_565 S
O162 Co137 1.923 1_545 S
O162 C169 1.271 . S
H163 C165 0.959 . S
H164 C165 0.961 . S
C165 C155 1.510 . S
C165 H163 0.959 . S
C165 H164 0.961 . S
C165 H166 0.960 . S
H166 C165 0.960 . S
H167 N147 0.862 . S
O168 Co136 1.920 . S
O168 C141 1.289 . S
C169 O161 1.258 1_545 S
C169 O162 1.271 . S
Co170 O173 1.970 . S
Co170 N187 1.989 . S
Co170 O195 1.967 . S
Co170 O202 1.920 . S
Co171 O174 1.966 . S
Co171 N180 2.022 1_556 S
Co171 N188 1.993 . S
Co171 O196 1.941 . S
C172 O173 1.258 . S
C172 O174 1.263 . S
O173 Co170 1.970 . S
O173 C172 1.258 . S
O174 Co171 1.966 . S
O174 C172 1.263 . S
C175 O176 1.235 . S
C175 O202 1.289 . S
O176 C175 1.235 . S
C177 C179 1.400 . S
C177 N180 1.351 . S
C177 C182 1.501 1_554 S
C178 C179 1.387 . S
C178 N181 1.341 . S
C179 C177 1.400 . S
C179 C178 1.387 . S
N180 Co171 2.022 1_554 S
N180 C177 1.351 . S
N180 N181 1.365 . S
N181 C178 1.341 . S
N181 N180 1.365 . S
N181 H201 0.862 . S
C182 C177 1.501 1_556 S
C182 H183 0.961 . S
C182 H184 0.961 . S
C182 H185 0.960 . S
H183 C182 0.961 . S
H184 C182 0.961 . S
H185 C182 0.960 . S
C186 N187 1.342 . S
C186 C190 1.401 1_556 S
C186 C191 1.499 . S
N187 Co170 1.989 . S
N187 C186 1.342 . S
N187 N188 1.388 . S
N188 Co171 1.993 . S
N188 N187 1.388 . S
N188 C189 1.346 1_556 S
C189 N188 1.346 1_554 S
C189 C190 1.396 . S
C189 C199 1.510 . S
C190 C186 1.401 1_554 S
C190 C189 1.396 . S
C191 C186 1.499 . S
C191 H192 0.959 . S
C191 H193 0.960 . S
C191 H194 0.961 . S
H192 C191 0.959 . S
H193 C191 0.960 . S
H194 C191 0.961 . S
O195 Co170 1.967 . S
O195 C203 1.258 . S
O196 Co171 1.941 . S
O196 C203 1.266 . S
H197 C199 0.959 . S
H198 C199 0.961 . S
C199 C189 1.510 . S
C199 H197 0.959 . S
C199 H198 0.961 . S
C199 H200 0.960 . S
H200 C199 0.960 . S
H201 N181 0.862 . S
O202 Co170 1.920 . S
O202 C175 1.289 . S
C203 O195 1.258 . S
C203 O196 1.266 . S
Co204 O207 1.970 1_455 S
Co204 N221 1.989 1_556 S
Co204 O229 1.967 . S
Co204 O236 1.920 . S
Co205 O208 1.966 . S
Co205 N214 2.022 . S
Co205 N222 1.993 1_655 S
Co205 O230 1.923 1_545 S
C206 O207 1.258 . S
C206 O208 1.263 1_556 S
O207 Co204 1.970 1_655 S
O207 C206 1.258 . S
O208 Co205 1.966 . S
O208 C206 1.263 1_554 S
C209 O210 1.235 . S
C209 O236 1.289 . S
O210 C209 1.235 . S
C211 C213 1.400 . S
C211 N214 1.351 . S
C211 C216 1.501 . S
C212 C213 1.387 . S
C212 N215 1.341 . S
C213 C211 1.400 . S
C213 C212 1.387 . S
N214 Co205 2.022 . S
N214 C211 1.351 . S
N214 N215 1.365 . S
N215 C212 1.341 . S
N215 N214 1.365 . S
N215 H235 0.862 . S
C216 C211 1.501 . S
C216 H217 0.961 . S
C216 H218 0.961 . S
C216 H219 0.960 . S
H217 C216 0.961 . S
H218 C216 0.961 . S
H219 C216 0.960 . S
C220 N221 1.342 . S
C220 C224 1.401 . S
C220 C225 1.499 . S
N221 Co204 1.989 1_554 S
N221 C220 1.342 . S
N221 N222 1.388 . S
N222 Co205 1.993 1_455 S
N222 N221 1.388 . S
N222 C223 1.346 . S
C223 N222 1.346 . S
C223 C224 1.396 . S
C223 C233 1.510 . S
C224 C220 1.401 . S
C224 C223 1.396 . S
C225 C220 1.499 . S
C225 H226 0.959 . S
C225 H227 0.960 . S
C225 H228 0.961 . S
H226 C225 0.959 . S
H227 C225 0.960 . S
H228 C225 0.961 . S
O229 Co204 1.967 . S
O229 C237 1.258 1_446 S
O230 Co205 1.923 1_565 S
O230 C237 1.271 . S
H231 C233 0.959 . S
H232 C233 0.961 . S
C233 C223 1.510 . S
C233 H231 0.959 . S
C233 H232 0.961 . S
C233 H234 0.960 1_455 S
H234 C233 0.960 1_655 S
H235 N215 0.862 . S
O236 Co204 1.920 . S
O236 C209 1.289 . S
C237 O229 1.258 1_664 S
C237 O230 1.271 . S
Co238 O241 1.970 . S
Co238 N255 1.989 . S
Co238 O263 1.967 . S
Co238 O270 1.920 . S
Co239 O242 1.966 . S
Co239 N248 2.022 . S
Co239 N256 1.993 . S
Co239 O264 1.941 . S
C240 O241 1.258 . S
C240 O242 1.263 . S
O241 Co238 1.970 . S
O241 C240 1.258 . S
O242 Co239 1.966 . S
O242 C240 1.263 . S
C243 O244 1.235 . S
C243 O270 1.289 . S
O244 C243 1.235 . S
C245 C247 1.400 . S
C245 N248 1.351 . S
C245 C250 1.501 . S
C246 C247 1.387 . S
C246 N249 1.341 . S
C247 C245 1.400 . S
C247 C246 1.387 . S
N248 Co239 2.022 . S
N248 C245 1.351 . S
N248 N249 1.365 . S
N249 C246 1.341 . S
N249 N248 1.365 . S
N249 H269 0.862 . S
C250 C245 1.501 . S
C250 H251 0.961 . S
C250 H252 0.961 . S
C250 H253 0.960 . S
H251 C250 0.961 . S
H252 C250 0.961 . S
H253 C250 0.960 . S
C254 N255 1.342 . S
C254 C258 1.401 . S
C254 C259 1.499 . S
N255 Co238 1.989 . S
N255 C254 1.342 . S
N255 N256 1.388 . S
N256 Co239 1.993 . S
N256 N255 1.388 . S
N256 C257 1.346 . S
C257 N256 1.346 . S
C257 C258 1.396 . S
C257 C267 1.510 . S
C258 C254 1.401 . S
C258 C257 1.396 . S
C259 C254 1.499 . S
C259 H260 0.959 . S
C259 H261 0.960 . S
C259 H262 0.961 . S
H260 C259 0.959 . S
H261 C259 0.960 . S
H262 C259 0.961 . S
O263 Co238 1.967 . S
O263 C271 1.258 . S
O264 Co239 1.941 . S
O264 C271 1.266 . S
H265 C267 0.959 . S
H266 C267 0.961 . S
C267 C257 1.510 . S
C267 H265 0.959 . S
C267 H266 0.961 . S
C267 H268 0.960 . S
H268 C267 0.960 . S
H269 N249 0.862 . S
O270 Co238 1.920 . S
O270 C243 1.289 . S
C271 O263 1.258 . S
C271 O264 1.266 . S
Co272 O275 1.970 . S
Co272 N289 1.989 . S
Co272 O297 1.967 . S
Co272 O304 1.920 . S
Co273 O276 1.966 . S
Co273 N282 2.022 . S
Co273 N290 1.993 . S
Co273 O298 1.941 . S
C274 O275 1.258 . S
C274 O276 1.263 . S
O275 Co272 1.970 . S
O275 C274 1.258 . S
O276 Co273 1.966 . S
O276 C274 1.263 . S
C277 O278 1.235 . S
C277 O304 1.289 . S
O278 C277 1.235 . S
C279 C281 1.400 . S
C279 N282 1.351 . S
C279 C284 1.501 . S
C280 C281 1.387 . S
C280 N283 1.341 . S
C281 C279 1.400 . S
C281 C280 1.387 . S
N282 Co273 2.022 . S
N282 C279 1.351 . S
N282 N283 1.365 . S
N283 C280 1.341 . S
N283 N282 1.365 . S
N283 H303 0.862 . S
C284 C279 1.501 . S
C284 H285 0.961 . S
C284 H286 0.961 . S
C284 H287 0.960 . S
H285 C284 0.961 . S
H286 C284 0.961 . S
H287 C284 0.960 . S
C288 N289 1.342 . S
C288 C292 1.401 . S
C288 C293 1.499 . S
N289 Co272 1.989 . S
N289 C288 1.342 . S
N289 N290 1.388 . S
N290 Co273 1.993 . S
N290 N289 1.388 . S
N290 C291 1.346 . S
C291 N290 1.346 . S
C291 C292 1.396 . S
C291 C301 1.510 . S
C292 C288 1.401 . S
C292 C291 1.396 . S
C293 C288 1.499 . S
C293 H294 0.959 . S
C293 H295 0.960 . S
C293 H296 0.961 . S
H294 C293 0.959 . S
H295 C293 0.960 . S
H296 C293 0.961 . S
O297 Co272 1.967 . S
O297 C305 1.258 . S
O298 Co273 1.941 . S
O298 C305 1.266 . S
H299 C301 0.959 . S
H300 C301 0.961 . S
C301 C291 1.510 . S
C301 H299 0.959 . S
C301 H300 0.961 . S
C301 H302 0.960 . S
H302 C301 0.960 . S
H303 N283 0.862 . S
O304 Co272 1.920 . S
O304 C277 1.289 . S
C305 O297 1.258 . S
C305 O298 1.266 . S
Co306 O309 1.970 . S
Co306 N323 1.989 . S
Co306 O331 1.967 . S
Co306 O338 1.920 . S
Co307 O310 1.966 . S
Co307 N316 2.022 1_556 S
Co307 N324 1.993 . S
Co307 O332 1.941 . S
C308 O309 1.258 . S
C308 O310 1.263 . S
O309 Co306 1.970 . S
O309 C308 1.258 . S
O310 Co307 1.966 . S
O310 C308 1.263 . S
C311 O312 1.235 . S
C311 O338 1.289 . S
O312 C311 1.235 . S
C313 C315 1.400 . S
C313 N316 1.351 . S
C313 C318 1.501 1_554 S
C314 C315 1.387 . S
C314 N317 1.341 . S
C315 C313 1.400 . S
C315 C314 1.387 . S
N316 Co307 2.022 1_554 S
N316 C313 1.351 . S
N316 N317 1.365 . S
N317 C314 1.341 . S
N317 N316 1.365 . S
N317 H337 0.862 . S
C318 C313 1.501 1_556 S
C318 H319 0.961 . S
C318 H320 0.961 . S
C318 H321 0.960 . S
H319 C318 0.961 . S
H320 C318 0.961 . S
H321 C318 0.960 . S
C322 N323 1.342 . S
C322 C326 1.401 1_556 S
C322 C327 1.499 . S
N323 Co306 1.989 . S
N323 C322 1.342 . S
N323 N324 1.388 . S
N324 Co307 1.993 . S
N324 N323 1.388 . S
N324 C325 1.346 1_556 S
C325 N324 1.346 1_554 S
C325 C326 1.396 . S
C325 C335 1.510 . S
C326 C322 1.401 1_554 S
C326 C325 1.396 . S
C327 C322 1.499 . S
C327 H328 0.959 . S
C327 H329 0.960 . S
C327 H330 0.961 . S
H328 C327 0.959 . S
H329 C327 0.960 . S
H330 C327 0.961 . S
O331 Co306 1.967 . S
O331 C339 1.258 . S
O332 Co307 1.941 . S
O332 C339 1.266 . S
H333 C335 0.959 . S
H334 C335 0.961 . S
C335 C325 1.510 . S
C335 H333 0.959 . S
C335 H334 0.961 . S
C335 H336 0.960 . S
H336 C335 0.960 . S
H337 N317 0.862 . S
O338 Co306 1.920 . S
O338 C311 1.289 . S
C339 O331 1.258 . S
C339 O332 1.266 . S
Co340 O343 1.970 . S
Co340 N357 1.989 . S
Co340 O365 1.967 . S
Co340 O372 1.920 . S
Co341 O344 1.966 . S
Co341 N350 2.022 1_554 S
Co341 N358 1.993 . S
Co341 O366 1.941 . S
C342 O343 1.258 . S
C342 O344 1.263 . S
O343 Co340 1.970 . S
O343 C342 1.258 . S
O344 Co341 1.966 . S
O344 C342 1.263 . S
C345 O346 1.235 . S
C345 O372 1.289 . S
O346 C345 1.235 . S
C347 C349 1.400 . S
C347 N350 1.351 . S
C347 C352 1.501 1_556 S
C348 C349 1.387 . S
C348 N351 1.341 . S
C349 C347 1.400 . S
C349 C348 1.387 . S
N350 Co341 2.022 1_556 S
N350 C347 1.351 . S
N350 N351 1.365 . S
N351 C348 1.341 . S
N351 N350 1.365 . S
N351 H371 0.862 . S
C352 C347 1.501 1_554 S
C352 H353 0.961 . S
C352 H354 0.961 . S
C352 H355 0.960 . S
H353 C352 0.961 . S
H354 C352 0.961 . S
H355 C352 0.960 . S
C356 N357 1.342 . S
C356 C360 1.401 1_554 S
C356 C361 1.499 . S
N357 Co340 1.989 . S
N357 C356 1.342 . S
N357 N358 1.388 . S
N358 Co341 1.993 . S
N358 N357 1.388 . S
N358 C359 1.346 1_554 S
C359 N358 1.346 1_556 S
C359 C360 1.396 . S
C359 C369 1.510 . S
C360 C356 1.401 1_556 S
C360 C359 1.396 . S
C361 C356 1.499 . S
C361 H362 0.959 . S
C361 H363 0.960 . S
C361 H364 0.961 . S
H362 C361 0.959 . S
H363 C361 0.960 . S
H364 C361 0.961 . S
O365 Co340 1.967 . S
O365 C373 1.258 . S
O366 Co341 1.941 . S
O366 C373 1.266 . S
H367 C369 0.959 . S
H368 C369 0.961 . S
C369 C359 1.510 . S
C369 H367 0.959 . S
C369 H368 0.961 . S
C369 H370 0.960 . S
H370 C369 0.960 . S
H371 N351 0.862 . S
O372 Co340 1.920 . S
O372 C345 1.289 . S
C373 O365 1.258 . S
C373 O366 1.266 . S
Co374 O377 1.970 . S
Co374 N391 1.989 . S
Co374 O399 1.967 . S
Co374 O406 1.920 . S
Co375 O378 1.966 . S
Co375 N384 2.022 . S
Co375 N392 1.993 . S
Co375 O400 1.941 . S
C376 O377 1.258 . S
C376 O378 1.263 . S
O377 Co374 1.970 . S
O377 C376 1.258 . S
O378 Co375 1.966 . S
O378 C376 1.263 . S
C379 O380 1.235 . S
C379 O406 1.289 . S
O380 C379 1.235 . S
C381 C383 1.400 . S
C381 N384 1.351 . S
C381 C386 1.501 . S
C382 C383 1.387 . S
C382 N385 1.341 . S
C383 C381 1.400 . S
C383 C382 1.387 . S
N384 Co375 2.022 . S
N384 C381 1.351 . S
N384 N385 1.365 . S
N385 C382 1.341 . S
N385 N384 1.365 . S
N385 H405 0.862 . S
C386 C381 1.501 . S
C386 H387 0.961 . S
C386 H388 0.961 . S
C386 H389 0.960 . S
H387 C386 0.961 . S
H388 C386 0.961 . S
H389 C386 0.960 . S
C390 N391 1.342 . S
C390 C394 1.401 . S
C390 C395 1.499 . S
N391 Co374 1.989 . S
N391 C390 1.342 . S
N391 N392 1.388 . S
N392 Co375 1.993 . S
N392 N391 1.388 . S
N392 C393 1.346 . S
C393 N392 1.346 . S
C393 C394 1.396 . S
C393 C403 1.510 . S
C394 C390 1.401 . S
C394 C393 1.396 . S
C395 C390 1.499 . S
C395 H396 0.959 . S
C395 H397 0.960 . S
C395 H398 0.961 . S
H396 C395 0.959 . S
H397 C395 0.960 . S
H398 C395 0.961 . S
O399 Co374 1.967 . S
O399 C407 1.258 . S
O400 Co375 1.941 . S
O400 C407 1.266 . S
H401 C403 0.959 . S
H402 C403 0.961 . S
C403 C393 1.510 . S
C403 H401 0.959 . S
C403 H402 0.961 . S
C403 H404 0.960 . S
H404 C403 0.960 . S
H405 N385 0.862 . S
O406 Co374 1.920 . S
O406 C379 1.289 . S
C407 O399 1.258 . S
C407 O400 1.266 . S
Co408 O411 1.970 1_655 S
Co408 N425 1.989 1_554 S
Co408 O433 1.967 . S
Co408 O440 1.920 . S
Co409 O412 1.966 . S
Co409 N418 2.022 . S
Co409 N426 1.993 1_455 S
Co409 O434 1.941 . S
C410 O411 1.258 . S
C410 O412 1.263 1_554 S
O411 Co408 1.970 1_455 S
O411 C410 1.258 . S
O412 Co409 1.966 . S
O412 C410 1.263 1_556 S
C413 O414 1.235 . S
C413 O440 1.289 . S
O414 C413 1.235 . S
C415 C417 1.400 . S
C415 N418 1.351 . S
C415 C420 1.501 . S
C416 C417 1.387 . S
C416 N419 1.341 . S
C417 C415 1.400 . S
C417 C416 1.387 . S
N418 Co409 2.022 . S
N418 C415 1.351 . S
N418 N419 1.365 . S
N419 C416 1.341 . S
N419 N418 1.365 . S
N419 H439 0.862 . S
C420 C415 1.501 . S
C420 H421 0.961 . S
C420 H422 0.961 . S
C420 H423 0.960 . S
H421 C420 0.961 . S
H422 C420 0.961 . S
H423 C420 0.960 . S
C424 N425 1.342 . S
C424 C428 1.401 . S
C424 C429 1.499 . S
N425 Co408 1.989 1_556 S
N425 C424 1.342 . S
N425 N426 1.388 . S
N426 Co409 1.993 1_655 S
N426 N425 1.388 . S
N426 C427 1.346 . S
C427 N426 1.346 . S
C427 C428 1.396 . S
C427 C437 1.510 . S
C428 C424 1.401 . S
C428 C427 1.396 . S
C429 C424 1.499 . S
C429 H430 0.959 . S
C429 H431 0.960 . S
C429 H432 0.961 . S
H430 C429 0.959 . S
H431 C429 0.960 . S
H432 C429 0.961 . S
O433 Co408 1.967 . S
O433 C441 1.258 1_654 S
O434 Co409 1.941 . S
O434 C441 1.266 . S
H435 C437 0.959 . S
H436 C437 0.961 . S
C437 C427 1.510 . S
C437 H435 0.959 . S
C437 H436 0.961 . S
C437 H438 0.960 1_655 S
H438 C437 0.960 1_455 S
H439 N419 0.862 . S
O440 Co408 1.920 . S
O440 C413 1.289 . S
C441 O433 1.258 1_456 S
C441 O434 1.266 . S
Co442 O445 1.970 . S
Co442 N459 1.989 . S
Co442 O467 1.967 . S
Co442 O474 1.920 . S
Co443 O446 1.966 . S
Co443 N452 2.022 . S
Co443 N460 1.993 . S
Co443 O468 1.941 . S
C444 O445 1.258 . S
C444 O446 1.263 . S
O445 Co442 1.970 . S
O445 C444 1.258 . S
O446 Co443 1.966 . S
O446 C444 1.263 . S
C447 O448 1.235 . S
C447 O474 1.289 . S
O448 C447 1.235 . S
C449 C451 1.400 . S
C449 N452 1.351 . S
C449 C454 1.501 . S
C450 C451 1.387 . S
C450 N453 1.341 . S
C451 C449 1.400 . S
C451 C450 1.387 . S
N452 Co443 2.022 . S
N452 C449 1.351 . S
N452 N453 1.365 . S
N453 C450 1.341 . S
N453 N452 1.365 . S
N453 H473 0.862 . S
C454 C449 1.501 . S
C454 H455 0.961 . S
C454 H456 0.961 . S
C454 H457 0.960 . S
H455 C454 0.961 . S
H456 C454 0.961 . S
H457 C454 0.960 . S
C458 N459 1.342 . S
C458 C462 1.401 . S
C458 C463 1.499 . S
N459 Co442 1.989 . S
N459 C458 1.342 . S
N459 N460 1.388 . S
N460 Co443 1.993 . S
N460 N459 1.388 . S
N460 C461 1.346 . S
C461 N460 1.346 . S
C461 C462 1.396 . S
C461 C471 1.510 . S
C462 C458 1.401 . S
C462 C461 1.396 . S
C463 C458 1.499 . S
C463 H464 0.959 . S
C463 H465 0.960 . S
C463 H466 0.961 . S
H464 C463 0.959 . S
H465 C463 0.960 . S
H466 C463 0.961 . S
O467 Co442 1.967 . S
O467 C475 1.258 . S
O468 Co443 1.941 . S
O468 C475 1.266 . S
H469 C471 0.959 . S
H470 C471 0.961 . S
C471 C461 1.510 . S
C471 H469 0.959 . S
C471 H470 0.961 . S
C471 H472 0.960 . S
H472 C471 0.960 . S
H473 N453 0.862 . S
O474 Co442 1.920 . S
O474 C447 1.289 . S
C475 O467 1.258 . S
C475 O468 1.266 . S
Co476 O479 1.970 1_655 S
Co476 N493 1.989 1_556 S
Co476 O501 1.967 . S
Co476 O508 1.920 . S
Co477 O480 1.966 . S
Co477 N486 2.022 . S
Co477 N494 1.993 1_455 S
Co477 O502 1.941 . S
C478 O479 1.258 . S
C478 O480 1.263 1_556 S
O479 Co476 1.970 1_455 S
O479 C478 1.258 . S
O480 Co477 1.966 . S
O480 C478 1.263 1_554 S
C481 O482 1.235 . S
C481 O508 1.289 . S
O482 C481 1.235 . S
C483 C485 1.400 . S
C483 N486 1.351 . S
C483 C488 1.501 . S
C484 C485 1.387 . S
C484 N487 1.341 . S
C485 C483 1.400 . S
C485 C484 1.387 . S
N486 Co477 2.022 . S
N486 C483 1.351 . S
N486 N487 1.365 . S
N487 C484 1.341 . S
N487 N486 1.365 . S
N487 H507 0.862 . S
C488 C483 1.501 . S
C488 H489 0.961 . S
C488 H490 0.961 . S
C488 H491 0.960 . S
H489 C488 0.961 . S
H490 C488 0.961 . S
H491 C488 0.960 . S
C492 N493 1.342 . S
C492 C496 1.401 . S
C492 C497 1.499 . S
N493 Co476 1.989 1_554 S
N493 C492 1.342 . S
N493 N494 1.388 . S
N494 Co477 1.993 1_655 S
N494 N493 1.388 . S
N494 C495 1.346 . S
C495 N494 1.346 . S
C495 C496 1.396 . S
C495 C505 1.510 . S
C496 C492 1.401 . S
C496 C495 1.396 . S
C497 C492 1.499 . S
C497 H498 0.959 . S
C497 H499 0.960 . S
C497 H500 0.961 . S
H498 C497 0.959 . S
H499 C497 0.960 . S
H500 C497 0.961 . S
O501 Co476 1.967 . S
O501 C509 1.258 1_656 S
O502 Co477 1.941 . S
O502 C509 1.266 . S
H503 C505 0.959 . S
H504 C505 0.961 . S
C505 C495 1.510 . S
C505 H503 0.959 . S
C505 H504 0.961 . S
C505 H506 0.960 1_655 S
H506 C505 0.960 1_455 S
H507 N487 0.862 . S
O508 Co476 1.920 . S
O508 C481 1.289 . S
C509 O501 1.258 1_454 S
C509 O502 1.266 . S
Co510 O513 1.970 . S
Co510 N527 1.989 . S
Co510 O535 1.967 . S
Co510 O542 1.920 . S
Co511 O514 1.966 . S
Co511 N520 2.022 . S
Co511 N528 1.993 . S
Co511 O536 1.941 . S
C512 O513 1.258 . S
C512 O514 1.263 . S
O513 Co510 1.970 . S
O513 C512 1.258 . S
O514 Co511 1.966 . S
O514 C512 1.263 . S
C515 O516 1.235 . S
C515 O542 1.289 . S
O516 C515 1.235 . S
C517 C519 1.400 . S
C517 N520 1.351 . S
C517 C522 1.501 . S
C518 C519 1.387 . S
C518 N521 1.341 . S
C519 C517 1.400 . S
C519 C518 1.387 . S
N520 Co511 2.022 . S
N520 C517 1.351 . S
N520 N521 1.365 . S
N521 C518 1.341 . S
N521 N520 1.365 . S
N521 H541 0.862 . S
C522 C517 1.501 . S
C522 H523 0.961 . S
C522 H524 0.961 . S
C522 H525 0.960 . S
H523 C522 0.961 . S
H524 C522 0.961 . S
H525 C522 0.960 . S
C526 N527 1.342 . S
C526 C530 1.401 . S
C526 C531 1.499 . S
N527 Co510 1.989 . S
N527 C526 1.342 . S
N527 N528 1.388 . S
N528 Co511 1.993 . S
N528 N527 1.388 . S
N528 C529 1.346 . S
C529 N528 1.346 . S
C529 C530 1.396 . S
C529 C539 1.510 . S
C530 C526 1.401 . S
C530 C529 1.396 . S
C531 C526 1.499 . S
C531 H532 0.959 . S
C531 H533 0.960 . S
C531 H534 0.961 . S
H532 C531 0.959 . S
H533 C531 0.960 . S
H534 C531 0.961 . S
O535 Co510 1.967 . S
O535 C543 1.258 . S
O536 Co511 1.941 . S
O536 C543 1.266 . S
H537 C539 0.959 . S
H538 C539 0.961 . S
C539 C529 1.510 . S
C539 H537 0.959 . S
C539 H538 0.961 . S
C539 H540 0.960 . S
H540 C539 0.960 . S
H541 N521 0.862 . S
O542 Co510 1.920 . S
O542 C515 1.289 . S
C543 O535 1.258 . S
C543 O536 1.266 . S
C33 C169 1.222 1_565 S
C203 C67 1.222 . S
C237 C101 1.222 1_564 S
C135 C271 1.222 . S
C305 C373 1.222 . S
C407 C339 1.222 . S
C441 C509 1.222 1_556 S
C475 C543 1.221 . S
C20 C190 3.223 . S
C224 C54 3.223 . S
C258 C88 3.223 . S
C122 C156 3.223 . S
C145 C349 1.564 . S
C77 C281 1.564 . S
C213 C383 1.564 . S
C9 C315 1.564 . S
C428 C292 3.223 . S
C360 C530 3.223 . S
C326 C462 3.223 . S
C394 C496 3.223 . S
C485 C43 1.564 . S
C179 C451 1.564 . S
C111 C519 1.564 . S
C417 C247 1.564 . S
C175 C5 0.969 . S
C209 C39 0.969 . S
C73 C243 0.969 . S
C107 C141 0.969 . S
C138 C342 4.202 . S
C274 C70 4.202 . S
C376 C206 4.202 . S
C2 C308 4.202 . S
C413 C277 0.969 . S
C345 C515 0.969 . S
C447 C311 0.969 . S
C481 C379 0.969 . S
C36 C478 4.202 . S
C172 C444 4.202 . S
C512 C104 4.202 . S
C240 C410 4.202 . S
