# Generated by pormake.
# Topology zfu, (5)-cn, num edge types: 1
# Building blocks:
#     Node 0, Type 0, BuildingBlock: BEQFEK_clean_sbu_0, # of connection points: 5
#     Node 1, Type 0, BuildingBlock: BEQFEK_clean_sbu_0, # of connection points: 5
#     Node 2, Type 0, BuildingBlock: BEQFEK_clean_sbu_0, # of connection points: 5
#     Node 3, Type 0, BuildingBlock: BEQFEK_clean_sbu_0, # of connection points: 5
#     Node 4, Type 0, BuildingBlock: BEQFEK_clean_sbu_0, # of connection points: 5
#     Node 5, Type 0, BuildingBlock: BEQFEK_clean_sbu_0, # of connection points: 5
#     Node 6, Type 0, BuildingBlock: BEQFEK_clean_sbu_0, # of connection points: 5
#     Node 7, Type 0, BuildingBlock: BEQFEK_clean_sbu_0, # of connection points: 5
#     Edge 8, Type (0, 0), BuildingBlock: CIFDUS_clean_linker_0, # of connection points: 2
#     Edge 9, Type (0, 0), BuildingBlock: CIFDUS_clean_linker_0, # of connection points: 2
#     Edge 10, Type (0, 0), BuildingBlock: CIFDUS_clean_linker_0, # of connection points: 2
#     Edge 11, Type (0, 0), BuildingBlock: CIFDUS_clean_linker_0, # of connection points: 2
#     Edge 12, Type (0, 0), BuildingBlock: CIFDUS_clean_linker_0, # of connection points: 2
#     Edge 13, Type (0, 0), BuildingBlock: CIFDUS_clean_linker_0, # of connection points: 2
#     Edge 14, Type (0, 0), BuildingBlock: CIFDUS_clean_linker_0, # of connection points: 2
#     Edge 15, Type (0, 0), BuildingBlock: CIFDUS_clean_linker_0, # of connection points: 2
#     Edge 16, Type (0, 0), BuildingBlock: CIFDUS_clean_linker_0, # of connection points: 2
#     Edge 17, Type (0, 0), BuildingBlock: CIFDUS_clean_linker_0, # of connection points: 2
#     Edge 18, Type (0, 0), BuildingBlock: CIFDUS_clean_linker_0, # of connection points: 2
#     Edge 19, Type (0, 0), BuildingBlock: CIFDUS_clean_linker_0, # of connection points: 2
#     Edge 20, Type (0, 0), BuildingBlock: CIFDUS_clean_linker_0, # of connection points: 2
#     Edge 21, Type (0, 0), BuildingBlock: CIFDUS_clean_linker_0, # of connection points: 2
#     Edge 22, Type (0, 0), BuildingBlock: CIFDUS_clean_linker_0, # of connection points: 2
#     Edge 23, Type (0, 0), BuildingBlock: CIFDUS_clean_linker_0, # of connection points: 2
#     Edge 24, Type (0, 0), BuildingBlock: CIFDUS_clean_linker_0, # of connection points: 2
#     Edge 25, Type (0, 0), BuildingBlock: CIFDUS_clean_linker_0, # of connection points: 2
#     Edge 26, Type (0, 0), BuildingBlock: CIFDUS_clean_linker_0, # of connection points: 2
#     Edge 27, Type (0, 0), BuildingBlock: CIFDUS_clean_linker_0, # of connection points: 2
# Relax obj value: 0.067
# Max RMSD: 0.102
# Mean RMSD: 0.102
data_MOF--net-zfu--node1-BEQFEK_clean_sbu_0--edge1-CIFDUS_clean_linker_0
_symmetry_space_group_name_H-M    P1
_symmetry_Int_Tables_number       1
_symmetry_cell_setting            triclinic
loop_
_symmetry_equiv_pos_as_xyz
'x, y, z'
_cell_length_a     37.007268
_cell_length_b     37.019904
_cell_length_c     23.509702
_cell_angle_alpha  89.914263
_cell_angle_beta   90.125664
_cell_angle_gamma 90.244875
loop_
_atom_site_label
_atom_site_type_symbol
_atom_site_fract_x
_atom_site_fract_y
_atom_site_fract_z
_atom_type_partial_charge
Co0 Co 0.45568 0.71151 0.05531 0.0
Co1 Co 0.40304 0.77678 0.07034 0.0
C2 C 0.48303 0.78269 0.09545 0.0
O3 O 0.48815 0.75045 0.07906 0.0
O4 O 0.45153 0.79649 0.09448 0.0
C5 C 0.50875 0.65975 0.075 0.0
O6 O 0.51019 0.67765 0.12319 0.0
C7 C 0.37867 0.84791 0.03363 0.0
C8 C 0.32111 0.8478 0.05793 0.0
C9 C 0.34722 0.86793 0.02975 0.0
N10 N 0.3715 0.81732 0.06255 0.0
N11 N 0.33718 0.81773 0.07794 0.0
C12 C 0.41367 0.85535 1.00405 0.0
H13 H 0.42858 0.82983 0.99671 0.0
H14 H 0.40895 0.86936 0.96293 0.0
H15 H 0.43049 0.87322 0.03129 0.0
C16 C 0.41959 0.70625 0.945 0.0
N17 N 0.42669 0.72438 0.9933 0.0
N18 N 0.40367 0.75107 0.9991 0.0
C19 C 0.38077 0.75051 0.9542 0.0
C20 C 0.39012 0.72211 0.91841 0.0
C21 C 0.43695 0.67101 0.93027 0.0
H22 H 0.43266 0.65159 0.96564 0.0
H23 H 0.46651 0.67517 0.92561 0.0
H24 H 0.42593 0.65917 0.89058 0.0
O25 O 0.42481 0.69841 0.12004 0.0
O26 O 0.38568 0.74318 0.13228 0.0
H27 H 0.33098 0.77195 0.98518 0.0
H28 H 0.33333 0.769 0.9084 0.0
C29 C 0.34889 0.77491 0.94769 0.0
H30 H 0.35836 0.80329 0.94558 0.0
H31 H 0.3243 0.79665 0.09947 0.0
O32 O 0.48617 0.66948 0.03729 0.0
C33 C 0.39841 0.71241 0.14667 0.0
Co34 Co 0.8153 0.94632 0.32619 0.0
Co35 Co 0.74292 0.9014 0.32429 0.0
C36 C 0.74151 0.98032 0.34379 0.0
O37 O 0.77564 0.981 0.33764 0.0
O38 O 0.72374 0.95084 0.34038 0.0
C39 C 0.85686 1.00504 0.28708 0.0
O40 O 0.82527 0.01383 0.26571 0.0
C41 C 0.67316 0.87153 0.28194 0.0
C42 C 0.68063 0.81399 0.30363 0.0
C43 C 0.65785 0.83741 0.27485 0.0
N44 N 0.70402 0.86798 0.31204 0.0
N45 N 0.7077 0.83364 0.32609 0.0
C46 C 0.66113 0.90614 0.25505 0.0
H47 H 0.68343 0.92626 0.2548 0.0
H48 H 0.65158 0.9013 0.21092 0.0
H49 H 0.63828 0.91726 0.27986 0.0
C50 C 0.82876 0.90399 0.2234 0.0
N51 N 0.80668 0.91528 0.26495 0.0
N52 N 0.77478 0.9001 0.25925 0.0
C53 C 0.77466 0.8807 0.21058 0.0
C54 C 0.80922 0.88178 0.18635 0.0
C55 C 0.86872 0.91061 0.22494 0.0
H56 H 0.87787 0.91492 0.26938 0.0
H57 H 0.87516 0.93531 0.2001 0.0
H58 H 0.88373 0.88737 0.20709 0.0
O59 O 0.81968 0.91816 0.3953 0.0
O60 O 0.76984 0.88419 0.39477 0.0
H61 H 0.73596 0.83762 0.20586 0.0
H62 H 0.74352 0.86087 0.1389 0.0
C63 C 0.74126 0.8642 0.18559 0.0
H64 H 0.71809 0.88212 0.19344 0.0
H65 H 0.72987 0.8233 0.34813 0.0
O66 O 0.85991 0.97552 0.31429 0.0
C67 C 0.79963 0.89409 0.4177 0.0
Co68 Co 0.55909 0.30352 0.5822 0.0
Co69 Co 0.60227 0.23075 0.57401 0.0
C70 C 0.52775 0.22981 0.61657 0.0
O71 O 0.52709 0.26394 0.61005 0.0
O72 O 0.55554 0.21167 0.60291 0.0
C73 C 0.49807 0.33813 0.54202 0.0
O74 O 0.49439 0.30525 0.52176 0.0
C75 C 0.62683 0.15913 0.53372 0.0
C76 C 0.68601 0.16712 0.53569 0.0
C77 C 0.65933 0.14288 0.51926 0.0
N78 N 0.63413 0.1917 0.55668 0.0
N79 N 0.66957 0.19591 0.55873 0.0
C80 C 0.58955 0.14602 0.51972 0.0
H81 H 0.5705 0.169 0.51686 0.0
H82 H 0.58945 0.13086 0.47902 0.0
H83 H 0.58023 0.12757 0.55397 0.0
C84 C 0.59227 0.31368 0.47008 0.0
N85 N 0.58296 0.29235 0.51404 0.0
N86 N 0.59674 0.26011 0.50703 0.0
C87 C 0.61265 0.25884 0.45543 0.0
C88 C 0.6114 0.29319 0.43024 0.0
C89 C 0.58803 0.35389 0.47227 0.0
H90 H 0.58501 0.363 0.51692 0.0
H91 H 0.56335 0.36173 0.44846 0.0
H92 H 0.61184 0.36777 0.45358 0.0
O93 O 0.5958 0.3123 0.64003 0.0
O94 O 0.62604 0.26038 0.63695 0.0
H95 H 0.65449 0.21977 0.44375 0.0
H96 H 0.62534 0.22582 0.38244 0.0
C97 C 0.62632 0.22463 0.42955 0.0
H98 H 0.60925 0.20168 0.44332 0.0
H99 H 0.68249 0.21925 0.57325 0.0
O100 O 0.52636 0.34573 0.57052 0.0
C101 C 0.62107 0.29189 0.65788 0.0
Co102 Co 0.19682 0.05782 0.80013 0.0
Co103 Co 0.26495 0.10638 0.8221 0.0
C104 C 0.26734 0.02616 0.83883 0.0
O105 O 0.23455 0.02423 0.82333 0.0
O106 O 0.28382 0.05646 0.84029 0.0
C107 C 0.16366 1.00176 0.73954 0.0
O108 O 0.1965 0.99986 0.71865 0.0
C109 C 0.33456 0.13822 0.7888 0.0
C110 C 0.33419 0.18969 0.83608 0.0
C111 C 0.35354 0.17048 0.79573 0.0
N112 N 0.30518 0.13897 0.82246 0.0
N113 N 0.30559 0.16944 0.85156 0.0
C114 C 0.34159 0.10886 0.7466 0.0
H115 H 0.31706 0.09194 0.74044 0.0
H116 H 0.35031 0.12046 0.70526 0.0
H117 H 0.36361 0.09139 0.76288 0.0
C118 C 0.19463 0.0991 0.69353 0.0
N119 N 0.21181 0.08908 0.74152 0.0
N120 N 0.2398 0.11046 0.75027 0.0
C121 C 0.24079 0.13534 0.70798 0.0
C122 C 0.21251 0.12856 0.67036 0.0
C123 C 0.15859 0.08451 0.67536 0.0
H124 H 0.14099 0.08073 0.71302 0.0
H125 H 0.16245 0.05789 0.65472 0.0
H126 H 0.14484 0.10274 0.64482 0.0
O127 O 0.18246 0.08646 0.86701 0.0
O128 O 0.23073 0.12095 0.88397 0.0
H129 H 0.26761 0.17998 0.74829 0.0
H130 H 0.25804 0.18712 0.67371 0.0
C131 C 0.26622 0.16689 0.70598 0.0
H132 H 0.29349 0.15729 0.6944 0.0
H133 H 0.28534 0.17724 0.87977 0.0
O134 O 0.15648 0.02637 0.77539 0.0
C135 C 0.19871 0.11057 0.89628 0.0
Co136 Co 0.95127 0.8048 0.74877 0.0
Co137 Co 0.90679 0.73388 0.76896 0.0
C138 C 0.98222 0.72965 0.72889 0.0
O139 O 0.98324 0.76401 0.73028 0.0
O140 O 0.95375 0.71238 0.74331 0.0
C141 C 0.00694 0.85439 0.71641 0.0
O142 O 0.01298 0.83056 0.67621 0.0
C143 C 0.87618 0.66704 0.82216 0.0
C144 C 0.8181 0.67917 0.81219 0.0
C145 C 0.84178 0.65477 0.83668 0.0
N146 N 0.87265 0.69779 0.79183 0.0
N147 N 0.83785 0.70429 0.78509 0.0
C148 C 0.91164 0.65216 0.84163 0.0
H149 H 0.93342 0.67261 0.83671 0.0
H150 H 0.9099 0.64331 0.88669 0.0
H151 H 0.91843 0.62828 0.81535 0.0
C152 C 0.92255 0.82239 0.86045 0.0
N153 N 0.92828 0.79858 0.81849 0.0
N154 N 0.91313 0.7675 0.83105 0.0
C155 C 0.89952 0.76974 0.88429 0.0
C156 C 0.90459 0.80495 0.90482 0.0
C157 C 0.92909 0.86213 0.85309 0.0
H158 H 0.92703 0.8696 0.8075 0.0
H159 H 0.95673 0.86894 0.86814 0.0
H160 H 0.90909 0.8783 0.87703 0.0
O161 O 0.91467 0.81005 0.69087 0.0
O162 O 0.88285 0.7595 0.70202 0.0
H163 H 0.8553 0.73437 0.90344 0.0
H164 H 0.88608 0.74186 0.96243 0.0
C165 C 0.88402 0.73816 0.91574 0.0
H166 H 0.89915 0.71353 0.90463 0.0
H167 H 0.82756 0.727 0.7644 0.0
O168 O 0.9815 0.84883 0.75153 0.0
C169 C 0.88851 0.78959 0.67676 0.0
Co170 Co 0.69845 0.45319 1.00822 0.0
Co171 Co 0.76318 0.39934 0.01738 0.0
C172 C 0.77594 0.47705 0.99291 0.0
O173 O 0.74221 0.48263 0.99741 0.0
O174 O 0.78892 0.44549 0.99892 0.0
C175 C 0.66326 0.51052 0.05907 0.0
O176 O 0.69225 0.50779 0.09114 0.0
C177 C 0.83005 0.36693 0.0631 0.0
C178 C 0.82048 0.30913 0.04541 0.0
C179 C 0.84464 0.33275 0.07129 0.0
N180 N 0.79864 0.36341 0.03443 0.0
N181 N 0.79343 0.32883 0.02325 0.0
C182 C 0.84332 0.40187 0.08758 0.0
H183 H 0.82084 0.42143 0.09137 0.0
H184 H 0.85574 0.39746 0.13002 0.0
H185 H 0.86412 0.41353 0.05891 0.0
C186 C 0.67662 0.41606 0.11248 0.0
N187 N 0.70113 0.42282 0.07178 0.0
N188 N 0.73027 0.4036 0.08082 0.0
C189 C 0.72632 0.38598 0.13095 0.0
C190 C 0.69177 0.39295 0.15288 0.0
C191 C 0.6378 0.42698 0.10678 0.0
H192 H 0.63071 0.43083 0.06132 0.0
H193 H 0.63346 0.45292 0.12926 0.0
H194 H 0.61954 0.40614 0.12497 0.0
O195 O 0.69134 0.42419 0.94052 0.0
O196 O 0.73545 0.38354 0.94624 0.0
H197 H 0.75535 0.33659 0.14195 0.0
H198 H 0.75314 0.3644 0.20531 0.0
C199 C 0.75589 0.36468 0.15836 0.0
H200 H 0.78235 0.3769 0.14814 0.0
H201 H 0.77072 0.31857 1.00231 0.0
O202 O 0.659 0.48845 0.01821 0.0
C203 C 0.70796 0.39695 0.92073 0.0
Co204 Co 0.05867 0.20629 0.24984 0.0
Co205 Co 0.10889 0.27518 0.25083 0.0
C206 C 0.03073 0.28066 0.22099 0.0
O207 O 0.02812 0.24674 0.22745 0.0
O208 O 0.06067 0.29694 0.22962 0.0
C209 C 0.99403 0.17165 0.28006 0.0
O210 O 0.9871 0.20471 0.29688 0.0
C211 C 0.14193 0.34073 0.3011 0.0
C212 C 0.19465 0.34181 0.25736 0.0
C213 C 0.17482 0.35902 0.29924 0.0
N214 N 0.14271 0.31376 0.2627 0.0
N215 N 0.17407 0.31504 0.23603 0.0
C216 C 0.11169 0.34632 0.3422 0.0
H217 H 0.09382 0.32216 0.3436 0.0
H218 H 0.12251 0.35221 0.38529 0.0
H219 H 0.09545 0.36985 0.32821 0.0
C220 C 0.09176 0.1952 0.36152 0.0
N221 N 0.0852 0.2165 0.31634 0.0
N222 N 0.10756 0.24428 0.31694 0.0
C223 C 0.12983 0.24081 0.36238 0.0
C224 C 0.12044 0.20963 0.39215 0.0
C225 C 0.07262 0.16014 0.37226 0.0
H226 H 0.07924 0.1408 0.33784 0.0
H227 H 0.04304 0.16466 0.37152 0.0
H228 H 0.08006 0.14834 0.41405 0.0
O229 O 0.09233 0.19641 0.18676 0.0
O230 O 0.12684 0.2458 0.18527 0.0
H231 H 0.17694 0.2679 0.33027 0.0
H232 H 0.18256 0.24934 0.40064 0.0
C233 C 0.16332 0.26293 0.37147 0.0
H234 H 0.15585 0.28925 0.39036 0.0
H235 H 0.18202 0.29668 0.20489 0.0
O236 O 0.02514 0.16452 0.26018 0.0
C237 C 0.11802 0.21494 0.16521 0.0
Co238 Co 0.31372 0.56224 0.4996 0.0
Co239 Co 0.24383 0.61072 0.50576 0.0
C240 C 0.23925 0.53283 0.47281 0.0
O241 O 0.27337 0.5304 0.47752 0.0
O242 O 0.22311 0.56233 0.48399 0.0
C243 C 0.35406 0.49796 0.51956 0.0
O244 O 0.32137 0.48485 0.52678 0.0
C245 C 0.17804 0.64064 0.55915 0.0
C246 C 0.17503 0.69387 0.51695 0.0
C247 C 0.15878 0.6728 0.55852 0.0
N248 N 0.20464 0.64298 0.52024 0.0
N249 N 0.20221 0.67463 0.49454 0.0
C250 C 0.17363 0.60966 0.59945 0.0
H251 H 0.19828 0.59267 0.59986 0.0
H252 H 0.16783 0.61969 0.64295 0.0
H253 H 0.1504 0.59281 0.58547 0.0
C254 C 0.326 0.59417 0.61211 0.0
N255 N 0.30405 0.58762 0.56757 0.0
N256 N 0.27597 0.60929 0.56997 0.0
C257 C 0.27986 0.63113 0.6157 0.0
C258 C 0.3117 0.62221 0.64397 0.0
C259 C 0.36131 0.57545 0.62143 0.0
H260 H 0.35729 0.54585 0.61776 0.0
H261 H 0.37279 0.58152 0.664 0.0
H262 H 0.3807 0.58401 0.58804 0.0
O263 O 0.32123 0.59757 0.43701 0.0
O264 O 0.2712 0.63067 0.43966 0.0
H265 H 0.27098 0.68334 0.65504 0.0
H266 H 0.2314 0.65557 0.64599 0.0
C267 C 0.25728 0.66392 0.62623 0.0
H268 H 0.25138 0.67774 0.58545 0.0
H269 H 0.22002 0.68368 0.46321 0.0
O270 O 0.35789 0.53139 0.50811 0.0
C271 C 0.30171 0.62314 0.41754 0.0
H272 H 0.6052 0.52931 0.99413 0.0
H273 H 0.66067 0.55523 0.15072 0.0
H274 H 0.61723 0.60293 0.16996 0.0
H275 H 0.5644 0.6381 0.1417 0.0
H276 H 0.50938 0.61358 0.98423 0.0
H277 H 0.55174 0.56447 0.96607 0.0
C278 C 0.60769 0.54531 0.03255 0.0
C279 C 0.63618 0.53874 0.07084 0.0
C280 C 0.58277 0.57299 0.04319 0.0
C281 C 0.6391 0.55979 0.12037 0.0
C282 C 0.61424 0.58708 0.13149 0.0
C283 C 0.56154 0.62196 0.10348 0.0
C284 C 0.53378 0.62951 0.06441 0.0
C285 C 0.58612 0.59404 0.09307 0.0
C286 C 0.53057 0.60838 0.01498 0.0
C287 C 0.55477 0.58028 1.00456 0.0
H288 H 1.00059 0.0982 0.28459 0.0
H289 H 0.92211 0.18399 0.2762 0.0
H290 H 0.87309 0.13988 0.27486 0.0
H291 H 0.85225 0.0773 0.27702 0.0
H292 H 0.92937 0.99084 0.29223 0.0
H293 H 0.97922 0.03473 0.28978 0.0
C294 C 0.97273 0.1071 0.2824 0.0
C295 C 0.96496 0.14424 0.28047 0.0
C296 C 0.94448 0.08152 0.28277 0.0
C297 C 0.92878 0.15554 0.27817 0.0
C298 C 0.90071 0.13035 0.27715 0.0
C299 C 0.87999 0.06802 0.27937 0.0
C300 C 0.88722 0.03096 0.28428 0.0
C301 C 0.90823 0.09334 0.27949 0.0
C302 C 0.92322 0.01932 0.28836 0.0
C303 C 0.95167 0.04438 0.28696 0.0
H304 H 0.50047 0.41197 0.55271 0.0
H305 H 0.42849 0.32296 0.51531 0.0
H306 H 0.37811 0.36445 0.50545 0.0
H307 H 0.35394 0.42553 0.50831 0.0
H308 H 0.42492 0.51582 0.54101 0.0
H309 H 0.47617 0.47446 0.55157 0.0
C310 C 0.47374 0.40176 0.54241 0.0
C311 C 0.46829 0.36438 0.53497 0.0
C312 C 0.44468 0.42598 0.53591 0.0
C313 C 0.43356 0.35157 0.52108 0.0
C314 C 0.40462 0.37527 0.51555 0.0
C315 C 0.38061 0.43622 0.51784 0.0
C316 C 0.38559 0.47363 0.52427 0.0
C317 C 0.40982 0.41244 0.52303 0.0
C318 C 0.42042 0.48709 0.53578 0.0
C319 C 0.44968 0.46344 0.54198 0.0
H320 H 0.06922 0.86911 0.65964 0.0
H321 H 0.99827 0.91112 0.78903 0.0
H322 H 0.03947 0.96172 0.80501 0.0
H323 H 0.09707 0.99228 0.78592 0.0
H324 H 0.16892 0.9493 0.65866 0.0
H325 H 0.12578 0.90102 0.63798 0.0
C326 C 0.0626 0.88949 0.69101 0.0
C327 C 0.0308 0.88622 0.72323 0.0
C328 C 0.08662 0.9183 0.70053 0.0
C329 C 0.02268 0.91285 0.76379 0.0
C330 C 0.04622 0.94183 0.773 0.0
C331 C 0.10317 0.97255 0.7533 0.0
C332 C 0.13624 0.97431 0.7241 0.0
C333 C 0.07848 0.94456 0.74216 0.0
C334 C 0.14373 0.94849 0.682 0.0
C335 C 0.11909 0.92083 0.67014 0.0
H336 H 0.35982 0.60899 0.35123 0.0
H337 H 0.27271 0.68496 0.37182 0.0
H338 H 0.29457 0.71955 0.29 0.0
H339 H 0.33893 0.72828 0.21224 0.0
H340 H 0.425 0.65068 0.19298 0.0
H341 H 0.40292 0.61699 0.27429 0.0
C342 C 0.34557 0.63315 0.33805 0.0
C343 C 0.31472 0.64431 0.36788 0.0
C344 C 0.35809 0.65274 0.29089 0.0
C345 C 0.29654 0.67563 0.34969 0.0
C346 C 0.30904 0.69549 0.30287 0.0
C347 C 0.3528 0.704 0.22583 0.0
C348 C 0.38362 0.69222 0.19618 0.0
C349 C 0.33986 0.68431 0.27305 0.0
C350 C 0.40117 0.66056 0.21453 0.0
C351 C 0.38863 0.64114 0.26129 0.0
H352 H 0.79463 0.82422 0.45766 0.0
H353 H 0.83132 0.93149 0.50162 0.0
H354 H 0.85914 0.90861 0.58798 0.0
H355 H 0.8779 0.85837 0.64619 0.0
H356 H 0.84453 0.74984 0.6047 0.0
H357 H 0.81019 0.77287 0.52263 0.0
C358 C 0.80821 0.84248 0.48682 0.0
C359 C 0.81129 0.87942 0.47311 0.0
C360 C 0.82503 0.82892 0.53638 0.0
C361 C 0.82902 0.90289 0.51096 0.0
C362 C 0.84495 0.88987 0.56036 0.0
C363 C 0.86306 0.83961 0.61939 0.0
C364 C 0.8643 0.80241 0.63083 0.0
C365 C 0.84399 0.85291 0.57258 0.0
C366 C 0.84416 0.77863 0.59648 0.0
C367 C 0.82466 0.7918 0.54951 0.0
H368 H 0.71347 0.32745 0.87884 0.0
H369 H 0.67273 0.43374 0.83899 0.0
H370 H 0.64479 0.41089 0.75289 0.0
H371 H 0.62804 0.3609 0.6923 0.0
H372 H 0.66624 0.25348 0.72931 0.0
H373 H 0.6993 0.27661 0.81242 0.0
C374 C 0.69884 0.34556 0.85085 0.0
C375 C 0.69482 0.38217 0.86588 0.0
C376 C 0.68215 0.33207 0.80103 0.0
C377 C 0.67579 0.40534 0.82911 0.0
C378 C 0.6598 0.39235 0.77965 0.0
C379 C 0.64367 0.3424 0.71829 0.0
C380 C 0.64423 0.30544 0.70496 0.0
C381 C 0.66212 0.35573 0.76588 0.0
C382 C 0.66522 0.28209 0.7387 0.0
C383 C 0.68402 0.2953 0.78636 0.0
H384 H 0.21839 0.16951 0.9597 0.0
H385 H 0.13619 0.08681 0.94477 0.0
H386 H 0.10454 0.11164 0.02628 0.0
H387 H 0.09982 0.15646 0.10173 0.0
H388 H 0.18065 0.24033 0.11683 0.0
H389 H 0.21306 0.21539 0.03537 0.0
C390 C 0.19359 0.1569 0.97433 0.0
C391 C 0.17981 0.12627 0.94599 0.0
C392 C 0.17519 0.1715 0.02128 0.0
C393 C 0.14747 0.11044 0.96547 0.0
C394 C 0.1293 0.12458 0.01224 0.0
C395 C 0.12457 0.16933 0.08742 0.0
C396 C 0.13778 0.20018 0.11561 0.0
C397 C 0.14289 0.15505 0.04044 0.0
C398 C 0.16979 0.21657 0.09597 0.0
C399 C 0.18839 0.20229 0.0494 0.0
H400 H 0.28544 0.64168 0.74733 0.0
H401 H 0.37943 0.65074 0.64028 0.0
H402 H 0.41148 0.68396 0.71476 0.0
H403 H 0.41353 0.70884 0.81176 0.0
H404 H 0.31992 0.69987 0.9194 0.0
H405 H 0.28664 0.66903 0.84329 0.0
C406 C 0.31288 0.65113 0.74048 0.0
C407 C 0.33034 0.64325 0.689 0.0
C408 C 0.33106 0.67047 0.78344 0.0
C409 C 0.36578 0.65578 0.68018 0.0
C410 C 0.38402 0.67498 0.72255 0.0
C411 C 0.38572 0.70038 0.81809 0.0
C412 C 0.36902 0.70671 0.87063 0.0
C413 C 0.36706 0.68221 0.77453 0.0
C414 C 0.33307 0.69563 0.87884 0.0
C415 C 0.31418 0.67776 0.83556 0.0
H416 H 0.86357 0.90248 0.11403 0.0
H417 H 0.78677 0.81611 0.14219 0.0
H418 H 0.80569 0.78758 0.05412 0.0
H419 H 0.84423 0.78777 0.96866 0.0
H420 H 0.93681 0.8593 0.96589 0.0
H421 H 0.91223 0.89278 0.04554 0.0
C422 C 0.85168 0.87673 0.10288 0.0
C423 C 0.82271 0.86251 0.13468 0.0
C424 C 0.8657 0.85786 0.05623 0.0
C425 C 0.80744 0.82936 0.11728 0.0
C426 C 0.81887 0.81239 0.06737 0.0
C427 C 0.8601 0.80962 0.98641 0.0
C428 C 0.8919 0.82153 0.95915 0.0
C429 C 0.84803 0.82648 0.03642 0.0
C430 C 0.91118 0.85062 0.98325 0.0
C431 C 0.89746 0.86954 0.02963 0.0
H432 H 0.70296 0.32783 0.20857 0.0
H433 H 0.64058 0.42601 0.21906 0.0
H434 H 0.60569 0.40058 0.29655 0.0
H435 H 0.59291 0.35035 0.36128 0.0
H436 H 0.67318 0.26659 0.37842 0.0
H437 H 0.70085 0.2859 0.29009 0.0
C438 C 0.68288 0.3446 0.2287 0.0
C439 C 0.67391 0.37857 0.20551 0.0
C440 C 0.66561 0.33176 0.27811 0.0
C441 C 0.64687 0.3989 0.2327 0.0
C442 C 0.62719 0.38464 0.27811 0.0
C443 C 0.61723 0.33686 0.34774 0.0
C444 C 0.62974 0.30607 0.37692 0.0
C445 C 0.6363 0.35101 0.3011 0.0
C446 C 0.6609 0.2888 0.35594 0.0
C447 C 0.67757 0.30046 0.30576 0.0
H448 H 0.13913 0.23577 0.49618 0.0
H449 H 0.14948 0.14257 0.38796 0.0
H450 H 0.18104 0.11 0.46354 0.0
H451 H 0.20278 0.10681 0.56228 0.0
H452 H 0.19183 0.19921 0.67177 0.0
H453 H 0.16406 0.23362 0.59404 0.0
C454 C 0.14861 0.20844 0.48932 0.0
C455 C 0.14151 0.19125 0.43723 0.0
C456 C 0.16676 0.18987 0.53309 0.0
C457 C 0.15405 0.15597 0.42829 0.0
C458 C 0.17221 0.13742 0.47133 0.0
C459 C 0.19475 0.13467 0.5686 0.0
C460 C 0.19973 0.15076 0.62203 0.0
C461 C 0.17826 0.1539 0.52414 0.0
C462 C 0.18889 0.18665 0.63042 0.0
C463 C 0.17273 0.20615 0.5862 0.0
H464 H 0.29772 0.87406 0.94674 0.0
H465 H 0.38205 0.93324 0.0324 0.0
H466 H 0.36751 0.98751 0.97656 0.0
H467 H 0.32706 0.01911 0.90819 0.0
H468 H 0.24455 0.95744 0.82096 0.0
H469 H 0.2626 0.9032 0.87152 0.0
C470 C 0.31295 0.89887 0.95292 0.0
C471 C 0.34041 0.90007 0.99402 0.0
C472 C 0.30485 0.92949 0.92013 0.0
C473 C 0.36058 0.93197 1.00108 0.0
C474 C 0.35226 0.9629 0.96918 0.0
C475 C 0.3136 0.99365 0.89939 0.0
C476 C 0.28411 0.99264 0.86135 0.0
C477 C 0.324 0.96217 0.9291 0.0
C478 C 0.26701 0.95928 0.85049 0.0
C479 C 0.27719 0.92813 0.87956 0.0
H480 H 0.55198 0.75958 0.1051 0.0
H481 H 0.483 0.84899 0.14899 0.0
H482 H 0.53171 0.87527 0.20666 0.0
H483 H 0.59242 0.86968 0.25136 0.0
H484 H 0.65898 0.77827 0.20822 0.0
H485 H 0.61237 0.7557 0.14442 0.0
C486 C 0.54752 0.78507 0.12662 0.0
C487 C 0.51368 0.80209 0.12287 0.0
C488 C 0.57512 0.79941 0.16073 0.0
C489 C 0.50874 0.83522 0.15104 0.0
C490 C 0.53653 0.85015 0.18438 0.0
C491 C 0.59686 0.84517 0.22729 0.0
C492 C 0.62916 0.82568 0.2347 0.0
C493 C 0.56961 0.83202 0.19061 0.0
C494 C 0.63424 0.79359 0.20391 0.0
C495 C 0.60768 0.78072 0.16709 0.0
H496 H 0.68153 0.98847 0.41046 0.0
H497 H 0.76284 0.04846 0.31834 0.0
H498 H 0.74276 0.10438 0.36224 0.0
H499 H 0.70676 0.13531 0.43388 0.0
H500 H 0.62625 0.0765 0.52888 0.0
H501 H 0.64111 0.02116 0.47676 0.0
C502 C 0.69419 0.01393 0.39901 0.0
C503 C 0.72379 0.01426 0.36143 0.0
C504 C 0.68304 0.04611 0.42561 0.0
C505 C 0.74017 0.04742 0.34739 0.0
C506 C 0.72883 0.07943 0.37268 0.0
C507 C 0.69232 0.1104 0.44294 0.0
C508 C 0.66563 0.10987 0.48529 0.0
C509 C 0.70114 0.07889 0.41315 0.0
C510 C 0.64676 0.0776 0.49614 0.0
C511 C 0.65538 0.04594 0.46652 0.0
H512 H 0.4668 0.26156 0.65574 0.0
H513 H 0.51853 0.15766 0.64153 0.0
H514 H 0.46906 0.12968 0.69505 0.0
H515 H 0.41243 0.13553 0.7501 0.0
H516 H 0.36212 0.24015 0.76384 0.0
H517 H 0.41022 0.26705 0.70734 0.0
C518 C 0.4673 0.23271 0.66386 0.0
C519 C 0.49651 0.21183 0.64463 0.0
C520 C 0.43916 0.21695 0.69525 0.0
C521 C 0.49645 0.17447 0.65577 0.0
C522 C 0.46821 0.15845 0.68658 0.0
C523 C 0.41164 0.16405 0.73991 0.0
C524 C 0.38341 0.18566 0.76087 0.0
C525 C 0.43957 0.17952 0.70712 0.0
C526 C 0.38355 0.22285 0.74861 0.0
C527 C 0.41097 0.23829 0.716 0.0
H528 H 0.87028 0.58668 0.85163 0.0
H529 H 0.7876 0.65876 0.91265 0.0
H530 H 0.76315 0.6112 0.97278 0.0
H531 H 0.76108 0.54805 1.00054 0.0
H532 H 0.84183 0.47416 0.93913 0.0
H533 H 0.87199 0.52374 0.88847 0.0
C534 C 0.84748 0.59215 0.87907 0.0
C535 C 0.83066 0.62618 0.87728 0.0
C536 C 0.83316 0.56435 0.91351 0.0
C537 C 0.80075 0.63266 0.91254 0.0
C538 C 0.78678 0.60553 0.94719 0.0
C539 C 0.78563 0.54281 0.97682 0.0
C540 C 0.79889 0.5074 0.97299 0.0
C541 C 0.80215 0.57108 0.94684 0.0
C542 C 0.83102 0.5012 0.94276 0.0
C543 C 0.84808 0.52949 0.91333 0.0
H544 H 0.96211 0.25621 0.22154 0.0
H545 H 0.02661 0.34775 0.16949 0.0
H546 H 0.97395 0.37341 0.12032 0.0
H547 H 0.91084 0.36646 0.08494 0.0
H548 H 0.84866 0.27317 0.13701 0.0
H549 H 0.89959 0.25119 0.19238 0.0
C550 C 0.96479 0.28198 0.19996 0.0
C551 C 0.99843 0.29983 0.19884 0.0
C552 C 0.93488 0.29598 0.171 0.0
C553 C 1.00105 0.33343 0.17114 0.0
C554 C 0.971 0.34794 0.14264 0.0
C555 C 0.90823 0.34174 0.10932 0.0
C556 C 0.87583 0.32156 0.10689 0.0
C557 C 0.93794 0.329 0.1412 0.0
C558 C 0.87329 0.28909 0.13768 0.0
C559 C 0.90236 0.27655 0.16963 0.0
H560 H 0.26657 0.46735 0.44611 0.0
H561 H 0.16701 0.52766 0.44392 0.0
H562 H 0.13709 0.47801 0.39308 0.0
H563 H 0.14099 0.41927 0.34213 0.0
H564 H 0.24217 0.36172 0.34273 0.0
H565 H 0.26968 0.4087 0.40093 0.0
C566 C 0.23819 0.46972 0.43519 0.0
C567 C 0.21921 0.50144 0.44866 0.0
C568 C 0.22151 0.44159 0.40504 0.0
C569 C 0.18238 0.50363 0.43412 0.0
C570 C 0.16529 0.47529 0.40478 0.0
C571 C 0.16882 0.41678 0.35592 0.0
C572 C 0.18949 0.38699 0.33813 0.0
C573 C 0.1848 0.44438 0.38897 0.0
C574 C 0.22576 0.38449 0.35541 0.0
C575 C 0.24152 0.4113 0.38886 0.0
H576 H 0.09904 0.6364 0.59894 0.0
H577 H 0.15495 0.73886 0.60567 0.0
H578 H 0.10693 0.76402 0.66378 0.0
H579 H 0.04773 0.75869 0.70662 0.0
H580 H 0.98882 0.65797 0.69798 0.0
H581 H 0.03972 0.63008 0.64798 0.0
C582 C 0.10093 0.66398 0.61409 0.0
C583 C 0.13052 0.68576 0.59799 0.0
C584 C 0.07269 0.67861 0.64697 0.0
C585 C 0.13232 0.72166 0.61707 0.0
C586 C 0.10492 0.73606 0.65043 0.0
C587 C 0.04591 0.73051 0.6943 0.0
C588 C 0.01423 0.71061 0.70561 0.0
C589 C 0.07472 0.71504 0.66464 0.0
C590 C 0.01281 0.674 0.68978 0.0
C591 C 0.04186 0.6581 0.6609 0.0
loop_
_geom_bond_atom_site_label_1
_geom_bond_atom_site_label_2
_geom_bond_distance
_geom_bond_site_symmetry_2
_ccdc_geom_bond_type
Co0 O3 1.970 . S
Co0 N17 1.989 1_554 S
Co0 O25 1.967 . S
Co0 O32 1.920 . S
Co1 O4 1.966 . S
Co1 N10 2.022 . S
Co1 N18 1.993 1_554 S
Co1 O26 1.941 . S
C2 O3 1.258 . S
C2 O4 1.263 . S
O3 Co0 1.970 . S
O3 C2 1.258 . S
O4 Co1 1.966 . S
O4 C2 1.263 . S
C5 O6 1.235 . S
C5 O32 1.289 . S
O6 C5 1.235 . S
C7 C9 1.400 . S
C7 N10 1.351 . S
C7 C12 1.501 . S
C8 C9 1.387 . S
C8 N11 1.341 . S
C9 C7 1.400 . S
C9 C8 1.387 . S
N10 Co1 2.022 . S
N10 C7 1.351 . S
N10 N11 1.365 . S
N11 C8 1.341 . S
N11 N10 1.365 . S
N11 H31 0.862 . S
C12 C7 1.501 . S
C12 H13 0.961 . S
C12 H14 0.961 1_554 S
C12 H15 0.960 . S
H13 C12 0.961 . S
H14 C12 0.961 1_556 S
H15 C12 0.960 . S
C16 N17 1.342 . S
C16 C20 1.401 . S
C16 C21 1.499 . S
N17 Co0 1.989 1_556 S
N17 C16 1.342 . S
N17 N18 1.388 . S
N18 Co1 1.993 1_556 S
N18 N17 1.388 . S
N18 C19 1.346 . S
C19 N18 1.346 . S
C19 C20 1.396 . S
C19 C29 1.510 . S
C20 C16 1.401 . S
C20 C19 1.396 . S
C21 C16 1.499 . S
C21 H22 0.959 . S
C21 H23 0.960 . S
C21 H24 0.961 . S
H22 C21 0.959 . S
H23 C21 0.960 . S
H24 C21 0.961 . S
O25 Co0 1.967 . S
O25 C33 1.258 . S
O26 Co1 1.941 . S
O26 C33 1.266 . S
H27 C29 0.959 . S
H28 C29 0.961 . S
C29 C19 1.510 . S
C29 H27 0.959 . S
C29 H28 0.961 . S
C29 H30 0.960 . S
H30 C29 0.960 . S
H31 N11 0.862 . S
O32 Co0 1.920 . S
O32 C5 1.289 . S
C33 O25 1.258 . S
C33 O26 1.266 . S
Co34 O37 1.970 . S
Co34 N51 1.989 . S
Co34 O59 1.967 . S
Co34 O66 1.920 . S
Co35 O38 1.966 . S
Co35 N44 2.022 . S
Co35 N52 1.993 . S
Co35 O60 1.941 . S
C36 O37 1.258 . S
C36 O38 1.263 . S
O37 Co34 1.970 . S
O37 C36 1.258 . S
O38 Co35 1.966 . S
O38 C36 1.263 . S
C39 O40 1.235 1_565 S
C39 O66 1.289 . S
O40 C39 1.235 1_545 S
C41 C43 1.400 . S
C41 N44 1.351 . S
C41 C46 1.501 . S
C42 C43 1.387 . S
C42 N45 1.341 . S
C43 C41 1.400 . S
C43 C42 1.387 . S
N44 Co35 2.022 . S
N44 C41 1.351 . S
N44 N45 1.365 . S
N45 C42 1.341 . S
N45 N44 1.365 . S
N45 H65 0.862 . S
C46 C41 1.501 . S
C46 H47 0.961 . S
C46 H48 0.961 . S
C46 H49 0.960 . S
H47 C46 0.961 . S
H48 C46 0.961 . S
H49 C46 0.960 . S
C50 N51 1.342 . S
C50 C54 1.401 . S
C50 C55 1.499 . S
N51 Co34 1.989 . S
N51 C50 1.342 . S
N51 N52 1.388 . S
N52 Co35 1.993 . S
N52 N51 1.388 . S
N52 C53 1.346 . S
C53 N52 1.346 . S
C53 C54 1.396 . S
C53 C63 1.510 . S
C54 C50 1.401 . S
C54 C53 1.396 . S
C55 C50 1.499 . S
C55 H56 0.959 . S
C55 H57 0.960 . S
C55 H58 0.961 . S
H56 C55 0.959 . S
H57 C55 0.960 . S
H58 C55 0.961 . S
O59 Co34 1.967 . S
O59 C67 1.258 . S
O60 Co35 1.941 . S
O60 C67 1.266 . S
H61 C63 0.959 . S
H62 C63 0.961 . S
C63 C53 1.510 . S
C63 H61 0.959 . S
C63 H62 0.961 . S
C63 H64 0.960 . S
H64 C63 0.960 . S
H65 N45 0.862 . S
O66 Co34 1.920 . S
O66 C39 1.289 . S
C67 O59 1.258 . S
C67 O60 1.266 . S
Co68 O71 1.970 . S
Co68 N85 1.989 . S
Co68 O93 1.967 . S
Co68 O100 1.920 . S
Co69 O72 1.966 . S
Co69 N78 2.022 . S
Co69 N86 1.993 . S
Co69 O94 1.941 . S
C70 O71 1.258 . S
C70 O72 1.263 . S
O71 Co68 1.970 . S
O71 C70 1.258 . S
O72 Co69 1.966 . S
O72 C70 1.263 . S
C73 O74 1.235 . S
C73 O100 1.289 . S
O74 C73 1.235 . S
C75 C77 1.400 . S
C75 N78 1.351 . S
C75 C80 1.501 . S
C76 C77 1.387 . S
C76 N79 1.341 . S
C77 C75 1.400 . S
C77 C76 1.387 . S
N78 Co69 2.022 . S
N78 C75 1.351 . S
N78 N79 1.365 . S
N79 C76 1.341 . S
N79 N78 1.365 . S
N79 H99 0.862 . S
C80 C75 1.501 . S
C80 H81 0.961 . S
C80 H82 0.961 . S
C80 H83 0.960 . S
H81 C80 0.961 . S
H82 C80 0.961 . S
H83 C80 0.960 . S
C84 N85 1.342 . S
C84 C88 1.401 . S
C84 C89 1.499 . S
N85 Co68 1.989 . S
N85 C84 1.342 . S
N85 N86 1.388 . S
N86 Co69 1.993 . S
N86 N85 1.388 . S
N86 C87 1.346 . S
C87 N86 1.346 . S
C87 C88 1.396 . S
C87 C97 1.510 . S
C88 C84 1.401 . S
C88 C87 1.396 . S
C89 C84 1.499 . S
C89 H90 0.959 . S
C89 H91 0.960 . S
C89 H92 0.961 . S
H90 C89 0.959 . S
H91 C89 0.960 . S
H92 C89 0.961 . S
O93 Co68 1.967 . S
O93 C101 1.258 . S
O94 Co69 1.941 . S
O94 C101 1.266 . S
H95 C97 0.959 . S
H96 C97 0.961 . S
C97 C87 1.510 . S
C97 H95 0.959 . S
C97 H96 0.961 . S
C97 H98 0.960 . S
H98 C97 0.960 . S
H99 N79 0.862 . S
O100 Co68 1.920 . S
O100 C73 1.289 . S
C101 O93 1.258 . S
C101 O94 1.266 . S
Co102 O105 1.970 . S
Co102 N119 1.989 . S
Co102 O127 1.967 . S
Co102 O134 1.920 . S
Co103 O106 1.966 . S
Co103 N112 2.022 . S
Co103 N120 1.993 . S
Co103 O128 1.941 . S
C104 O105 1.258 . S
C104 O106 1.263 . S
O105 Co102 1.970 . S
O105 C104 1.258 . S
O106 Co103 1.966 . S
O106 C104 1.263 . S
C107 O108 1.235 1_545 S
C107 O134 1.289 . S
O108 C107 1.235 1_565 S
C109 C111 1.400 . S
C109 N112 1.351 . S
C109 C114 1.501 . S
C110 C111 1.387 . S
C110 N113 1.341 . S
C111 C109 1.400 . S
C111 C110 1.387 . S
N112 Co103 2.022 . S
N112 C109 1.351 . S
N112 N113 1.365 . S
N113 C110 1.341 . S
N113 N112 1.365 . S
N113 H133 0.862 . S
C114 C109 1.501 . S
C114 H115 0.961 . S
C114 H116 0.961 . S
C114 H117 0.960 . S
H115 C114 0.961 . S
H116 C114 0.961 . S
H117 C114 0.960 . S
C118 N119 1.342 . S
C118 C122 1.401 . S
C118 C123 1.499 . S
N119 Co102 1.989 . S
N119 C118 1.342 . S
N119 N120 1.388 . S
N120 Co103 1.993 . S
N120 N119 1.388 . S
N120 C121 1.346 . S
C121 N120 1.346 . S
C121 C122 1.396 . S
C121 C131 1.510 . S
C122 C118 1.401 . S
C122 C121 1.396 . S
C123 C118 1.499 . S
C123 H124 0.959 . S
C123 H125 0.960 . S
C123 H126 0.961 . S
H124 C123 0.959 . S
H125 C123 0.960 . S
H126 C123 0.961 . S
O127 Co102 1.967 . S
O127 C135 1.258 . S
O128 Co103 1.941 . S
O128 C135 1.266 . S
H129 C131 0.959 . S
H130 C131 0.961 . S
C131 C121 1.510 . S
C131 H129 0.959 . S
C131 H130 0.961 . S
C131 H132 0.960 . S
H132 C131 0.960 . S
H133 N113 0.862 . S
O134 Co102 1.920 . S
O134 C107 1.289 . S
C135 O127 1.258 . S
C135 O128 1.266 . S
Co136 O139 1.970 . S
Co136 N153 1.989 . S
Co136 O161 1.967 . S
Co136 O168 1.920 . S
Co137 O140 1.966 . S
Co137 N146 2.022 . S
Co137 N154 1.993 . S
Co137 O162 1.941 . S
C138 O139 1.258 . S
C138 O140 1.263 . S
O139 Co136 1.970 . S
O139 C138 1.258 . S
O140 Co137 1.966 . S
O140 C138 1.263 . S
C141 O142 1.235 1_655 S
C141 O168 1.289 . S
O142 C141 1.235 1_455 S
C143 C145 1.400 . S
C143 N146 1.351 . S
C143 C148 1.501 . S
C144 C145 1.387 . S
C144 N147 1.341 . S
C145 C143 1.400 . S
C145 C144 1.387 . S
N146 Co137 2.022 . S
N146 C143 1.351 . S
N146 N147 1.365 . S
N147 C144 1.341 . S
N147 N146 1.365 . S
N147 H167 0.862 . S
C148 C143 1.501 . S
C148 H149 0.961 . S
C148 H150 0.961 . S
C148 H151 0.960 . S
H149 C148 0.961 . S
H150 C148 0.961 . S
H151 C148 0.960 . S
C152 N153 1.342 . S
C152 C156 1.401 . S
C152 C157 1.499 . S
N153 Co136 1.989 . S
N153 C152 1.342 . S
N153 N154 1.388 . S
N154 Co137 1.993 . S
N154 N153 1.388 . S
N154 C155 1.346 . S
C155 N154 1.346 . S
C155 C156 1.396 . S
C155 C165 1.510 . S
C156 C152 1.401 . S
C156 C155 1.396 . S
C157 C152 1.499 . S
C157 H158 0.959 . S
C157 H159 0.960 . S
C157 H160 0.961 . S
H158 C157 0.959 . S
H159 C157 0.960 . S
H160 C157 0.961 . S
O161 Co136 1.967 . S
O161 C169 1.258 . S
O162 Co137 1.941 . S
O162 C169 1.266 . S
H163 C165 0.959 . S
H164 C165 0.961 . S
C165 C155 1.510 . S
C165 H163 0.959 . S
C165 H164 0.961 . S
C165 H166 0.960 . S
H166 C165 0.960 . S
H167 N147 0.862 . S
O168 Co136 1.920 . S
O168 C141 1.289 . S
C169 O161 1.258 . S
C169 O162 1.266 . S
Co170 O173 1.970 . S
Co170 N187 1.989 1_556 S
Co170 O195 1.967 . S
Co170 O202 1.920 . S
Co171 O174 1.966 . S
Co171 N180 2.022 1_556 S
Co171 N188 1.993 1_556 S
Co171 O196 1.941 . S
C172 O173 1.258 . S
C172 O174 1.263 . S
O173 Co170 1.970 . S
O173 C172 1.258 . S
O174 Co171 1.966 . S
O174 C172 1.263 . S
C175 O176 1.235 . S
C175 O202 1.289 1_554 S
O176 C175 1.235 . S
C177 C179 1.400 . S
C177 N180 1.351 . S
C177 C182 1.501 . S
C178 C179 1.387 . S
C178 N181 1.341 . S
C179 C177 1.400 . S
C179 C178 1.387 . S
N180 Co171 2.022 1_554 S
N180 C177 1.351 . S
N180 N181 1.365 . S
N181 C178 1.341 . S
N181 N180 1.365 . S
N181 H201 0.862 . S
C182 C177 1.501 . S
C182 H183 0.961 . S
C182 H184 0.961 . S
C182 H185 0.960 . S
H183 C182 0.961 . S
H184 C182 0.961 . S
H185 C182 0.960 . S
C186 N187 1.342 . S
C186 C190 1.401 . S
C186 C191 1.499 . S
N187 Co170 1.989 1_554 S
N187 C186 1.342 . S
N187 N188 1.388 . S
N188 Co171 1.993 1_554 S
N188 N187 1.388 . S
N188 C189 1.346 . S
C189 N188 1.346 . S
C189 C190 1.396 . S
C189 C199 1.510 . S
C190 C186 1.401 . S
C190 C189 1.396 . S
C191 C186 1.499 . S
C191 H192 0.959 . S
C191 H193 0.960 . S
C191 H194 0.961 . S
H192 C191 0.959 . S
H193 C191 0.960 . S
H194 C191 0.961 . S
O195 Co170 1.967 . S
O195 C203 1.258 . S
O196 Co171 1.941 . S
O196 C203 1.266 . S
H197 C199 0.959 . S
H198 C199 0.961 . S
C199 C189 1.510 . S
C199 H197 0.959 . S
C199 H198 0.961 . S
C199 H200 0.960 . S
H200 C199 0.960 . S
H201 N181 0.862 . S
O202 Co170 1.920 . S
O202 C175 1.289 1_556 S
C203 O195 1.258 . S
C203 O196 1.266 . S
Co204 O207 1.970 . S
Co204 N221 1.989 . S
Co204 O229 1.967 . S
Co204 O236 1.920 . S
Co205 O208 1.966 . S
Co205 N214 2.022 . S
Co205 N222 1.993 . S
Co205 O230 1.941 . S
C206 O207 1.258 . S
C206 O208 1.263 . S
O207 Co204 1.970 . S
O207 C206 1.258 . S
O208 Co205 1.966 . S
O208 C206 1.263 . S
C209 O210 1.235 1_455 S
C209 O236 1.289 . S
O210 C209 1.235 1_655 S
C211 C213 1.400 . S
C211 N214 1.351 . S
C211 C216 1.501 . S
C212 C213 1.387 . S
C212 N215 1.341 . S
C213 C211 1.400 . S
C213 C212 1.387 . S
N214 Co205 2.022 . S
N214 C211 1.351 . S
N214 N215 1.365 . S
N215 C212 1.341 . S
N215 N214 1.365 . S
N215 H235 0.862 . S
C216 C211 1.501 . S
C216 H217 0.961 . S
C216 H218 0.961 . S
C216 H219 0.960 . S
H217 C216 0.961 . S
H218 C216 0.961 . S
H219 C216 0.960 . S
C220 N221 1.342 . S
C220 C224 1.401 . S
C220 C225 1.499 . S
N221 Co204 1.989 . S
N221 C220 1.342 . S
N221 N222 1.388 . S
N222 Co205 1.993 . S
N222 N221 1.388 . S
N222 C223 1.346 . S
C223 N222 1.346 . S
C223 C224 1.396 . S
C223 C233 1.510 . S
C224 C220 1.401 . S
C224 C223 1.396 . S
C225 C220 1.499 . S
C225 H226 0.959 . S
C225 H227 0.960 . S
C225 H228 0.961 . S
H226 C225 0.959 . S
H227 C225 0.960 . S
H228 C225 0.961 . S
O229 Co204 1.967 . S
O229 C237 1.258 . S
O230 Co205 1.941 . S
O230 C237 1.266 . S
H231 C233 0.959 . S
H232 C233 0.961 . S
C233 C223 1.510 . S
C233 H231 0.959 . S
C233 H232 0.961 . S
C233 H234 0.960 . S
H234 C233 0.960 . S
H235 N215 0.862 . S
O236 Co204 1.920 . S
O236 C209 1.289 . S
C237 O229 1.258 . S
C237 O230 1.266 . S
Co238 O241 1.970 . S
Co238 N255 1.989 . S
Co238 O263 1.967 . S
Co238 O270 1.920 . S
Co239 O242 1.966 . S
Co239 N248 2.022 . S
Co239 N256 1.993 . S
Co239 O264 1.941 . S
C240 O241 1.258 . S
C240 O242 1.263 . S
O241 Co238 1.970 . S
O241 C240 1.258 . S
O242 Co239 1.966 . S
O242 C240 1.263 . S
C243 O244 1.235 . S
C243 O270 1.289 . S
O244 C243 1.235 . S
C245 C247 1.400 . S
C245 N248 1.351 . S
C245 C250 1.501 . S
C246 C247 1.387 . S
C246 N249 1.341 . S
C247 C245 1.400 . S
C247 C246 1.387 . S
N248 Co239 2.022 . S
N248 C245 1.351 . S
N248 N249 1.365 . S
N249 C246 1.341 . S
N249 N248 1.365 . S
N249 H269 0.862 . S
C250 C245 1.501 . S
C250 H251 0.961 . S
C250 H252 0.961 . S
C250 H253 0.960 . S
H251 C250 0.961 . S
H252 C250 0.961 . S
H253 C250 0.960 . S
C254 N255 1.342 . S
C254 C258 1.401 . S
C254 C259 1.499 . S
N255 Co238 1.989 . S
N255 C254 1.342 . S
N255 N256 1.388 . S
N256 Co239 1.993 . S
N256 N255 1.388 . S
N256 C257 1.346 . S
C257 N256 1.346 . S
C257 C258 1.396 . S
C257 C267 1.510 . S
C258 C254 1.401 . S
C258 C257 1.396 . S
C259 C254 1.499 . S
C259 H260 0.959 . S
C259 H261 0.960 . S
C259 H262 0.961 . S
H260 C259 0.959 . S
H261 C259 0.960 . S
H262 C259 0.961 . S
O263 Co238 1.967 . S
O263 C271 1.258 . S
O264 Co239 1.941 . S
O264 C271 1.266 . S
H265 C267 0.959 . S
H266 C267 0.961 . S
C267 C257 1.510 . S
C267 H265 0.959 . S
C267 H266 0.961 . S
C267 H268 0.960 . S
H268 C267 0.960 . S
H269 N249 0.862 . S
O270 Co238 1.920 . S
O270 C243 1.289 . S
C271 O263 1.258 . S
C271 O264 1.266 . S
H272 C278 0.930 . S
H273 C281 0.930 . S
H274 C282 0.930 . S
H275 C283 0.930 . S
H276 C286 0.930 1_556 S
H277 C287 0.930 . S
C278 H272 0.930 . S
C278 C279 1.355 1_556 S
C278 C280 1.415 1_556 S
C279 C278 1.355 1_554 S
C279 C281 1.419 . S
C280 C278 1.415 1_554 S
C280 C285 1.425 . S
C280 C287 1.409 1_554 S
C281 H273 0.930 . S
C281 C279 1.419 . S
C281 C282 1.362 . S
C282 H274 0.930 . S
C282 C281 1.362 . S
C282 C285 1.409 . S
C283 H275 0.930 . S
C283 C284 1.355 . S
C283 C285 1.415 . S
C284 C283 1.355 . S
C284 C286 1.419 . S
C285 C280 1.425 . S
C285 C282 1.409 . S
C285 C283 1.415 . S
C286 H276 0.930 1_554 S
C286 C284 1.419 . S
C286 C287 1.362 1_554 S
C287 H277 0.930 . S
C287 C280 1.409 1_556 S
C287 C286 1.362 1_556 S
H288 C294 0.930 1_455 S
H289 C297 0.930 . S
H290 C298 0.930 . S
H291 C299 0.930 . S
H292 C302 0.903 1_565 S
H293 C303 0.930 . S
C294 H288 0.930 1_655 S
C294 C295 1.355 . S
C294 C296 1.415 . S
C295 C294 1.355 . S
C295 C297 1.419 . S
C296 C294 1.415 . S
C296 C301 1.425 . S
C296 C303 1.409 . S
C297 H289 0.930 . S
C297 C295 1.419 . S
C297 C298 1.362 . S
C298 H290 0.930 . S
C298 C297 1.362 . S
C298 C301 1.409 . S
C299 H291 0.930 . S
C299 C300 1.355 . S
C299 C301 1.415 . S
C300 C299 1.355 . S
C300 C302 1.430 . S
C301 C296 1.425 . S
C301 C298 1.409 . S
C301 C299 1.415 . S
C302 H292 0.903 1_545 S
C302 C300 1.430 . S
C302 C303 1.379 . S
C303 H293 0.930 . S
C303 C296 1.409 . S
C303 C302 1.379 . S
H304 C310 0.930 . S
H305 C313 0.930 . S
H306 C314 0.930 . S
H307 C315 0.930 . S
H308 C318 0.930 . S
H309 C319 0.930 . S
C310 H304 0.930 . S
C310 C311 1.355 . S
C310 C312 1.415 . S
C311 C310 1.355 . S
C311 C313 1.419 . S
C312 C310 1.415 . S
C312 C317 1.425 . S
C312 C319 1.409 . S
C313 H305 0.930 . S
C313 C311 1.419 . S
C313 C314 1.362 . S
C314 H306 0.930 . S
C314 C313 1.362 . S
C314 C317 1.409 . S
C315 H307 0.930 . S
C315 C316 1.355 . S
C315 C317 1.415 . S
C316 C315 1.355 . S
C316 C318 1.419 . S
C317 C312 1.425 . S
C317 C314 1.409 . S
C317 C315 1.415 . S
C318 H308 0.930 . S
C318 C316 1.419 . S
C318 C319 1.362 . S
C319 H309 0.930 . S
C319 C312 1.409 . S
C319 C318 1.362 . S
H320 C326 0.930 . S
H321 C329 0.930 . S
H322 C330 0.930 . S
H323 C331 0.930 1_545 S
H324 C334 0.930 . S
H325 C335 0.930 . S
C326 H320 0.930 . S
C326 C327 1.355 . S
C326 C328 1.415 . S
C327 C326 1.355 . S
C327 C329 1.419 1_455 S
C328 C326 1.415 . S
C328 C333 1.425 . S
C328 C335 1.409 . S
C329 H321 0.930 . S
C329 C327 1.419 1_655 S
C329 C330 1.362 1_655 S
C330 H322 0.930 . S
C330 C329 1.362 1_455 S
C330 C333 1.409 . S
C331 H323 0.930 1_565 S
C331 C332 1.355 . S
C331 C333 1.415 . S
C332 C331 1.355 . S
C332 C334 1.419 . S
C333 C328 1.425 . S
C333 C330 1.409 . S
C333 C331 1.415 . S
C334 H324 0.930 . S
C334 C332 1.419 . S
C334 C335 1.362 . S
C335 H325 0.930 . S
C335 C328 1.409 . S
C335 C334 1.362 . S
H336 C342 0.930 . S
H337 C345 0.930 . S
H338 C346 0.930 . S
H339 C347 0.930 . S
H340 C350 0.930 . S
H341 C351 0.930 . S
C342 H336 0.930 . S
C342 C343 1.355 . S
C342 C344 1.415 . S
C343 C342 1.355 . S
C343 C345 1.419 . S
C344 C342 1.415 . S
C344 C349 1.425 . S
C344 C351 1.409 . S
C345 H337 0.930 . S
C345 C343 1.419 . S
C345 C346 1.362 . S
C346 H338 0.930 . S
C346 C345 1.362 . S
C346 C349 1.409 . S
C347 H339 0.930 . S
C347 C348 1.355 . S
C347 C349 1.415 . S
C348 C347 1.355 . S
C348 C350 1.419 . S
C349 C344 1.425 . S
C349 C346 1.409 . S
C349 C347 1.415 . S
C350 H340 0.930 . S
C350 C348 1.419 . S
C350 C351 1.362 . S
C351 H341 0.930 . S
C351 C344 1.409 . S
C351 C350 1.362 . S
H352 C358 0.930 . S
H353 C361 0.930 . S
H354 C362 0.930 . S
H355 C363 0.930 . S
H356 C366 0.930 . S
H357 C367 0.930 . S
C358 H352 0.930 . S
C358 C359 1.355 . S
C358 C360 1.415 . S
C359 C358 1.355 . S
C359 C361 1.419 . S
C360 C358 1.415 . S
C360 C365 1.425 . S
C360 C367 1.409 . S
C361 H353 0.930 . S
C361 C359 1.419 . S
C361 C362 1.362 . S
C362 H354 0.930 . S
C362 C361 1.362 . S
C362 C365 1.409 . S
C363 H355 0.930 . S
C363 C364 1.355 . S
C363 C365 1.415 . S
C364 C363 1.355 . S
C364 C366 1.419 . S
C365 C360 1.425 . S
C365 C362 1.409 . S
C365 C363 1.415 . S
C366 H356 0.930 . S
C366 C364 1.419 . S
C366 C367 1.362 . S
C367 H357 0.930 . S
C367 C360 1.409 . S
C367 C366 1.362 . S
H368 C374 0.930 . S
H369 C377 0.930 . S
H370 C378 0.930 . S
H371 C379 0.930 . S
H372 C382 0.930 . S
H373 C383 0.930 . S
C374 H368 0.930 . S
C374 C375 1.355 . S
C374 C376 1.415 . S
C375 C374 1.355 . S
C375 C377 1.419 . S
C376 C374 1.415 . S
C376 C381 1.425 . S
C376 C383 1.409 . S
C377 H369 0.930 . S
C377 C375 1.419 . S
C377 C378 1.362 . S
C378 H370 0.930 . S
C378 C377 1.362 . S
C378 C381 1.409 . S
C379 H371 0.930 . S
C379 C380 1.355 . S
C379 C381 1.415 . S
C380 C379 1.355 . S
C380 C382 1.419 . S
C381 C376 1.425 . S
C381 C378 1.409 . S
C381 C379 1.415 . S
C382 H372 0.930 . S
C382 C380 1.419 . S
C382 C383 1.362 . S
C383 H373 0.930 . S
C383 C376 1.409 . S
C383 C382 1.362 . S
H384 C390 0.930 . S
H385 C393 0.930 . S
H386 C394 0.931 . S
H387 C395 0.930 . S
H388 C398 0.930 . S
H389 C399 0.930 . S
C390 H384 0.930 . S
C390 C391 1.355 . S
C390 C392 1.415 1_556 S
C391 C390 1.355 . S
C391 C393 1.419 . S
C392 C390 1.415 1_554 S
C392 C397 1.425 . S
C392 C399 1.409 . S
C393 H385 0.930 . S
C393 C391 1.419 . S
C393 C394 1.358 1_556 S
C394 H386 0.931 . S
C394 C393 1.358 1_554 S
C394 C397 1.413 . S
C395 H387 0.930 . S
C395 C396 1.355 . S
C395 C397 1.415 . S
C396 C395 1.355 . S
C396 C398 1.419 . S
C397 C392 1.425 . S
C397 C394 1.413 . S
C397 C395 1.415 . S
C398 H388 0.930 . S
C398 C396 1.419 . S
C398 C399 1.362 . S
C399 H389 0.930 . S
C399 C392 1.409 . S
C399 C398 1.362 . S
H400 C406 0.930 . S
H401 C409 0.930 . S
H402 C410 0.930 . S
H403 C411 0.930 . S
H404 C414 0.930 . S
H405 C415 0.930 . S
C406 H400 0.930 . S
C406 C407 1.355 . S
C406 C408 1.415 . S
C407 C406 1.355 . S
C407 C409 1.419 . S
C408 C406 1.415 . S
C408 C413 1.425 . S
C408 C415 1.409 . S
C409 H401 0.930 . S
C409 C407 1.419 . S
C409 C410 1.362 . S
C410 H402 0.930 . S
C410 C409 1.362 . S
C410 C413 1.409 . S
C411 H403 0.930 . S
C411 C412 1.355 . S
C411 C413 1.415 . S
C412 C411 1.355 . S
C412 C414 1.419 . S
C413 C408 1.425 . S
C413 C410 1.409 . S
C413 C411 1.415 . S
C414 H404 0.930 . S
C414 C412 1.419 . S
C414 C415 1.362 . S
C415 H405 0.930 . S
C415 C408 1.409 . S
C415 C414 1.362 . S
H416 C422 0.930 . S
H417 C425 0.930 . S
H418 C426 0.930 . S
H419 C427 0.930 . S
H420 C430 0.930 . S
H421 C431 0.928 1_554 S
C422 H416 0.930 . S
C422 C423 1.355 . S
C422 C424 1.415 . S
C423 C422 1.355 . S
C423 C425 1.419 . S
C424 C422 1.415 . S
C424 C429 1.425 . S
C424 C431 1.402 1_554 S
C425 H417 0.930 . S
C425 C423 1.419 . S
C425 C426 1.362 . S
C426 H418 0.930 . S
C426 C425 1.362 . S
C426 C429 1.409 . S
C427 H419 0.930 . S
C427 C428 1.355 . S
C427 C429 1.415 1_556 S
C428 C427 1.355 . S
C428 C430 1.419 . S
C429 C424 1.425 . S
C429 C426 1.409 . S
C429 C427 1.415 1_554 S
C430 H420 0.930 . S
C430 C428 1.419 . S
C430 C431 1.372 . S
C431 H421 0.928 1_556 S
C431 C424 1.402 1_556 S
C431 C430 1.372 . S
H432 C438 0.930 . S
H433 C441 0.930 . S
H434 C442 0.930 . S
H435 C443 0.930 . S
H436 C446 0.930 . S
H437 C447 0.930 . S
C438 H432 0.930 . S
C438 C439 1.355 . S
C438 C440 1.415 . S
C439 C438 1.355 . S
C439 C441 1.419 . S
C440 C438 1.415 . S
C440 C445 1.425 . S
C440 C447 1.409 . S
C441 H433 0.930 . S
C441 C439 1.419 . S
C441 C442 1.362 . S
C442 H434 0.930 . S
C442 C441 1.362 . S
C442 C445 1.409 . S
C443 H435 0.930 . S
C443 C444 1.355 . S
C443 C445 1.415 . S
C444 C443 1.355 . S
C444 C446 1.419 . S
C445 C440 1.425 . S
C445 C442 1.409 . S
C445 C443 1.415 . S
C446 H436 0.930 . S
C446 C444 1.419 . S
C446 C447 1.362 . S
C447 H437 0.930 . S
C447 C440 1.409 . S
C447 C446 1.362 . S
H448 C454 0.930 . S
H449 C457 0.930 . S
H450 C458 0.930 . S
H451 C459 0.930 . S
H452 C462 0.930 . S
H453 C463 0.930 . S
C454 H448 0.930 . S
C454 C455 1.355 . S
C454 C456 1.415 . S
C455 C454 1.355 . S
C455 C457 1.419 . S
C456 C454 1.415 . S
C456 C461 1.425 . S
C456 C463 1.409 . S
C457 H449 0.930 . S
C457 C455 1.419 . S
C457 C458 1.362 . S
C458 H450 0.930 . S
C458 C457 1.362 . S
C458 C461 1.409 . S
C459 H451 0.930 . S
C459 C460 1.355 . S
C459 C461 1.415 . S
C460 C459 1.355 . S
C460 C462 1.419 . S
C461 C456 1.425 . S
C461 C458 1.409 . S
C461 C459 1.415 . S
C462 H452 0.930 . S
C462 C460 1.419 . S
C462 C463 1.362 . S
C463 H453 0.930 . S
C463 C456 1.409 . S
C463 C462 1.362 . S
H464 C470 0.930 . S
H465 C473 0.930 . S
H466 C474 0.930 1_554 S
H467 C475 0.930 1_545 S
H468 C478 0.930 . S
H469 C479 0.930 . S
C470 H464 0.930 . S
C470 C471 1.355 . S
C470 C472 1.415 . S
C471 C470 1.355 . S
C471 C473 1.419 1_556 S
C472 C470 1.415 . S
C472 C477 1.425 . S
C472 C479 1.409 . S
C473 H465 0.930 . S
C473 C471 1.419 1_554 S
C473 C474 1.362 1_554 S
C474 H466 0.930 1_556 S
C474 C473 1.362 1_556 S
C474 C477 1.409 . S
C475 H467 0.930 1_565 S
C475 C476 1.355 . S
C475 C477 1.415 . S
C476 C475 1.355 . S
C476 C478 1.419 . S
C477 C472 1.425 . S
C477 C474 1.409 . S
C477 C475 1.415 . S
C478 H468 0.930 . S
C478 C476 1.419 . S
C478 C479 1.362 . S
C479 H469 0.930 . S
C479 C472 1.409 . S
C479 C478 1.362 . S
H480 C486 0.930 . S
H481 C489 0.930 . S
H482 C490 0.930 . S
H483 C491 0.930 . S
H484 C494 0.930 . S
H485 C495 0.930 . S
C486 H480 0.930 . S
C486 C487 1.355 . S
C486 C488 1.415 . S
C487 C486 1.355 . S
C487 C489 1.419 . S
C488 C486 1.415 . S
C488 C493 1.425 . S
C488 C495 1.409 . S
C489 H481 0.930 . S
C489 C487 1.419 . S
C489 C490 1.362 . S
C490 H482 0.930 . S
C490 C489 1.362 . S
C490 C493 1.409 . S
C491 H483 0.930 . S
C491 C492 1.355 . S
C491 C493 1.415 . S
C492 C491 1.355 . S
C492 C494 1.419 . S
C493 C488 1.425 . S
C493 C490 1.409 . S
C493 C491 1.415 . S
C494 H484 0.930 . S
C494 C492 1.419 . S
C494 C495 1.362 . S
C495 H485 0.930 . S
C495 C488 1.409 . S
C495 C494 1.362 . S
H496 C502 0.930 . S
H497 C505 0.930 1_565 S
H498 C506 0.930 . S
H499 C507 0.930 . S
H500 C510 0.930 . S
H501 C511 0.930 . S
C502 H496 0.930 . S
C502 C503 1.355 . S
C502 C504 1.415 . S
C503 C502 1.355 . S
C503 C505 1.419 . S
C504 C502 1.415 . S
C504 C509 1.425 . S
C504 C511 1.409 . S
C505 H497 0.930 1_545 S
C505 C503 1.419 . S
C505 C506 1.362 . S
C506 H498 0.930 . S
C506 C505 1.362 . S
C506 C509 1.409 . S
C507 H499 0.930 . S
C507 C508 1.355 . S
C507 C509 1.415 . S
C508 C507 1.355 . S
C508 C510 1.419 . S
C509 C504 1.425 . S
C509 C506 1.409 . S
C509 C507 1.415 . S
C510 H500 0.930 . S
C510 C508 1.419 . S
C510 C511 1.362 . S
C511 H501 0.930 . S
C511 C504 1.409 . S
C511 C510 1.362 . S
H512 C518 0.930 . S
H513 C521 0.930 . S
H514 C522 0.930 . S
H515 C523 0.930 . S
H516 C526 0.930 . S
H517 C527 0.930 . S
C518 H512 0.930 . S
C518 C519 1.355 . S
C518 C520 1.415 . S
C519 C518 1.355 . S
C519 C521 1.419 . S
C520 C518 1.415 . S
C520 C525 1.425 . S
C520 C527 1.409 . S
C521 H513 0.930 . S
C521 C519 1.419 . S
C521 C522 1.362 . S
C522 H514 0.930 . S
C522 C521 1.362 . S
C522 C525 1.409 . S
C523 H515 0.930 . S
C523 C524 1.355 . S
C523 C525 1.415 . S
C524 C523 1.355 . S
C524 C526 1.419 . S
C525 C520 1.425 . S
C525 C522 1.409 . S
C525 C523 1.415 . S
C526 H516 0.930 . S
C526 C524 1.419 . S
C526 C527 1.362 . S
C527 H517 0.930 . S
C527 C520 1.409 . S
C527 C526 1.362 . S
H528 C534 0.930 . S
H529 C537 0.930 . S
H530 C538 0.930 . S
H531 C539 0.930 . S
H532 C542 0.930 . S
H533 C543 0.930 . S
C534 H528 0.930 . S
C534 C535 1.355 . S
C534 C536 1.415 . S
C535 C534 1.355 . S
C535 C537 1.419 . S
C536 C534 1.415 . S
C536 C541 1.425 . S
C536 C543 1.409 . S
C537 H529 0.930 . S
C537 C535 1.419 . S
C537 C538 1.362 . S
C538 H530 0.930 . S
C538 C537 1.362 . S
C538 C541 1.409 . S
C539 H531 0.930 . S
C539 C540 1.355 . S
C539 C541 1.415 . S
C540 C539 1.355 . S
C540 C542 1.419 . S
C541 C536 1.425 . S
C541 C538 1.409 . S
C541 C539 1.415 . S
C542 H532 0.930 . S
C542 C540 1.419 . S
C542 C543 1.362 . S
C543 H533 0.930 . S
C543 C536 1.409 . S
C543 C542 1.362 . S
H544 C550 0.930 . S
H545 C553 0.930 . S
H546 C554 0.930 . S
H547 C555 0.930 . S
H548 C558 0.930 . S
H549 C559 0.930 . S
C550 H544 0.930 . S
C550 C551 1.325 1_655 S
C550 C552 1.415 . S
C551 C550 1.325 1_455 S
C551 C553 1.428 . S
C552 C550 1.415 . S
C552 C557 1.425 . S
C552 C559 1.409 . S
C553 H545 0.930 . S
C553 C551 1.428 . S
C553 C554 1.362 1_455 S
C554 H546 0.930 . S
C554 C553 1.362 1_655 S
C554 C557 1.409 . S
C555 H547 0.930 . S
C555 C556 1.355 . S
C555 C557 1.415 . S
C556 C555 1.355 . S
C556 C558 1.419 . S
C557 C552 1.425 . S
C557 C554 1.409 . S
C557 C555 1.415 . S
C558 H548 0.930 . S
C558 C556 1.419 . S
C558 C559 1.362 . S
C559 H549 0.930 . S
C559 C552 1.409 . S
C559 C558 1.362 . S
H560 C566 0.930 . S
H561 C569 0.930 . S
H562 C570 0.930 . S
H563 C571 0.930 . S
H564 C574 0.930 . S
H565 C575 0.930 . S
C566 H560 0.930 . S
C566 C567 1.355 . S
C566 C568 1.415 . S
C567 C566 1.355 . S
C567 C569 1.419 . S
C568 C566 1.415 . S
C568 C573 1.425 . S
C568 C575 1.409 . S
C569 H561 0.930 . S
C569 C567 1.419 . S
C569 C570 1.362 . S
C570 H562 0.930 . S
C570 C569 1.362 . S
C570 C573 1.409 . S
C571 H563 0.930 . S
C571 C572 1.355 . S
C571 C573 1.415 . S
C572 C571 1.355 . S
C572 C574 1.419 . S
C573 C568 1.425 . S
C573 C570 1.409 . S
C573 C571 1.415 . S
C574 H564 0.930 . S
C574 C572 1.419 . S
C574 C575 1.362 . S
C575 H565 0.930 . S
C575 C568 1.409 . S
C575 C574 1.362 . S
H576 C582 0.930 . S
H577 C585 0.930 . S
H578 C586 0.930 . S
H579 C587 0.930 . S
H580 C590 0.930 . S
H581 C591 0.930 . S
C582 H576 0.930 . S
C582 C583 1.355 . S
C582 C584 1.415 . S
C583 C582 1.355 . S
C583 C585 1.419 . S
C584 C582 1.415 . S
C584 C589 1.425 . S
C584 C591 1.409 . S
C585 H577 0.930 . S
C585 C583 1.419 . S
C585 C586 1.362 . S
C586 H578 0.930 . S
C586 C585 1.362 . S
C586 C589 1.409 . S
C587 H579 0.930 . S
C587 C588 1.328 1_455 S
C587 C589 1.415 . S
C588 C587 1.328 1_655 S
C588 C590 1.425 . S
C589 C584 1.425 . S
C589 C586 1.409 . S
C589 C587 1.415 . S
C590 H580 0.930 . S
C590 C588 1.425 . S
C590 C591 1.362 1_655 S
C591 H581 0.930 . S
C591 C584 1.409 . S
C591 C590 1.362 1_455 S
C279 C175 1.361 . S
C284 C5 1.405 . S
C295 C209 1.386 1_655 S
C300 C39 1.422 1_545 S
C311 C73 1.387 . S
C316 C243 1.422 . S
C327 C141 1.406 1_455 S
C332 C107 1.362 1_565 S
C343 C271 1.473 . S
C348 C33 1.469 . S
C359 C67 1.481 . S
C364 C169 1.481 . S
C375 C203 1.481 . S
C380 C101 1.481 . S
C391 C135 1.471 . S
C396 C237 1.476 . S
C407 C258 1.411 . S
C412 C20 1.419 . S
C423 C54 1.417 . S
C428 C156 1.407 . S
C439 C190 1.410 . S
C444 C88 1.419 . S
C455 C224 1.418 . S
C460 C122 1.413 . S
C471 C9 1.653 1_556 S
C476 C104 1.635 1_565 S
C487 C2 1.646 . S
C492 C43 1.630 . S
C503 C36 1.629 1_545 S
C508 C77 1.654 . S
C519 C70 1.661 . S
C524 C111 1.613 . S
C535 C145 1.625 . S
C540 C172 1.651 . S
C551 C206 1.672 . S
C556 C179 1.625 . S
C567 C240 1.664 . S
C572 C213 1.612 . S
C583 C247 1.625 . S
C588 C138 1.672 . S
