# Generated by pormake.
# Topology whq, (6)-cn, num edge types: 1
# Building blocks:
#     Node 0, Type 0, BuildingBlock: IZENUY_clean_sbu_0, # of connection points: 6
#     Node 1, Type 0, BuildingBlock: IZENUY_clean_sbu_0, # of connection points: 6
#     Node 2, Type 0, BuildingBlock: IZENUY_clean_sbu_0, # of connection points: 6
#     Node 3, Type 0, BuildingBlock: IZENUY_clean_sbu_0, # of connection points: 6
#     Node 4, Type 0, BuildingBlock: IZENUY_clean_sbu_0, # of connection points: 6
#     Node 5, Type 0, BuildingBlock: IZENUY_clean_sbu_0, # of connection points: 6
#     Node 6, Type 0, BuildingBlock: IZENUY_clean_sbu_0, # of connection points: 6
#     Node 7, Type 0, BuildingBlock: IZENUY_clean_sbu_0, # of connection points: 6
#     Node 8, Type 0, BuildingBlock: IZENUY_clean_sbu_0, # of connection points: 6
#     Node 9, Type 0, BuildingBlock: IZENUY_clean_sbu_0, # of connection points: 6
#     Node 10, Type 0, BuildingBlock: IZENUY_clean_sbu_0, # of connection points: 6
#     Node 11, Type 0, BuildingBlock: IZENUY_clean_sbu_0, # of connection points: 6
#     Node 12, Type 0, BuildingBlock: IZENUY_clean_sbu_0, # of connection points: 6
#     Node 13, Type 0, BuildingBlock: IZENUY_clean_sbu_0, # of connection points: 6
#     Node 14, Type 0, BuildingBlock: IZENUY_clean_sbu_0, # of connection points: 6
#     Node 15, Type 0, BuildingBlock: IZENUY_clean_sbu_0, # of connection points: 6
#     Node 16, Type 0, BuildingBlock: IZENUY_clean_sbu_0, # of connection points: 6
#     Node 17, Type 0, BuildingBlock: IZENUY_clean_sbu_0, # of connection points: 6
#     Node 18, Type 0, BuildingBlock: IZENUY_clean_sbu_0, # of connection points: 6
#     Node 19, Type 0, BuildingBlock: IZENUY_clean_sbu_0, # of connection points: 6
#     Node 20, Type 0, BuildingBlock: IZENUY_clean_sbu_0, # of connection points: 6
#     Node 21, Type 0, BuildingBlock: IZENUY_clean_sbu_0, # of connection points: 6
#     Node 22, Type 0, BuildingBlock: IZENUY_clean_sbu_0, # of connection points: 6
#     Node 23, Type 0, BuildingBlock: IZENUY_clean_sbu_0, # of connection points: 6
#     Node 24, Type 0, BuildingBlock: IZENUY_clean_sbu_0, # of connection points: 6
#     Node 25, Type 0, BuildingBlock: IZENUY_clean_sbu_0, # of connection points: 6
#     Node 26, Type 0, BuildingBlock: IZENUY_clean_sbu_0, # of connection points: 6
#     Node 27, Type 0, BuildingBlock: IZENUY_clean_sbu_0, # of connection points: 6
#     Node 28, Type 0, BuildingBlock: IZENUY_clean_sbu_0, # of connection points: 6
#     Node 29, Type 0, BuildingBlock: IZENUY_clean_sbu_0, # of connection points: 6
#     Node 30, Type 0, BuildingBlock: IZENUY_clean_sbu_0, # of connection points: 6
#     Node 31, Type 0, BuildingBlock: IZENUY_clean_sbu_0, # of connection points: 6
#     Edge 32, Type (0, 0), BuildingBlock: UVAHIK_clean_linker_0, # of connection points: 2
#     Edge 33, Type (0, 0), BuildingBlock: UVAHIK_clean_linker_0, # of connection points: 2
#     Edge 34, Type (0, 0), BuildingBlock: UVAHIK_clean_linker_0, # of connection points: 2
#     Edge 35, Type (0, 0), BuildingBlock: UVAHIK_clean_linker_0, # of connection points: 2
#     Edge 36, Type (0, 0), BuildingBlock: UVAHIK_clean_linker_0, # of connection points: 2
#     Edge 37, Type (0, 0), BuildingBlock: UVAHIK_clean_linker_0, # of connection points: 2
#     Edge 38, Type (0, 0), BuildingBlock: UVAHIK_clean_linker_0, # of connection points: 2
#     Edge 39, Type (0, 0), BuildingBlock: UVAHIK_clean_linker_0, # of connection points: 2
#     Edge 40, Type (0, 0), BuildingBlock: UVAHIK_clean_linker_0, # of connection points: 2
#     Edge 41, Type (0, 0), BuildingBlock: UVAHIK_clean_linker_0, # of connection points: 2
#     Edge 42, Type (0, 0), BuildingBlock: UVAHIK_clean_linker_0, # of connection points: 2
#     Edge 43, Type (0, 0), BuildingBlock: UVAHIK_clean_linker_0, # of connection points: 2
#     Edge 44, Type (0, 0), BuildingBlock: UVAHIK_clean_linker_0, # of connection points: 2
#     Edge 45, Type (0, 0), BuildingBlock: UVAHIK_clean_linker_0, # of connection points: 2
#     Edge 46, Type (0, 0), BuildingBlock: UVAHIK_clean_linker_0, # of connection points: 2
#     Edge 47, Type (0, 0), BuildingBlock: UVAHIK_clean_linker_0, # of connection points: 2
#     Edge 48, Type (0, 0), BuildingBlock: UVAHIK_clean_linker_0, # of connection points: 2
#     Edge 49, Type (0, 0), BuildingBlock: UVAHIK_clean_linker_0, # of connection points: 2
#     Edge 50, Type (0, 0), BuildingBlock: UVAHIK_clean_linker_0, # of connection points: 2
#     Edge 51, Type (0, 0), BuildingBlock: UVAHIK_clean_linker_0, # of connection points: 2
#     Edge 52, Type (0, 0), BuildingBlock: UVAHIK_clean_linker_0, # of connection points: 2
#     Edge 53, Type (0, 0), BuildingBlock: UVAHIK_clean_linker_0, # of connection points: 2
#     Edge 54, Type (0, 0), BuildingBlock: UVAHIK_clean_linker_0, # of connection points: 2
#     Edge 55, Type (0, 0), BuildingBlock: UVAHIK_clean_linker_0, # of connection points: 2
#     Edge 56, Type (0, 0), BuildingBlock: UVAHIK_clean_linker_0, # of connection points: 2
#     Edge 57, Type (0, 0), BuildingBlock: UVAHIK_clean_linker_0, # of connection points: 2
#     Edge 58, Type (0, 0), BuildingBlock: UVAHIK_clean_linker_0, # of connection points: 2
#     Edge 59, Type (0, 0), BuildingBlock: UVAHIK_clean_linker_0, # of connection points: 2
#     Edge 60, Type (0, 0), BuildingBlock: UVAHIK_clean_linker_0, # of connection points: 2
#     Edge 61, Type (0, 0), BuildingBlock: UVAHIK_clean_linker_0, # of connection points: 2
#     Edge 62, Type (0, 0), BuildingBlock: UVAHIK_clean_linker_0, # of connection points: 2
#     Edge 63, Type (0, 0), BuildingBlock: UVAHIK_clean_linker_0, # of connection points: 2
#     Edge 64, Type (0, 0), BuildingBlock: UVAHIK_clean_linker_0, # of connection points: 2
#     Edge 65, Type (0, 0), BuildingBlock: UVAHIK_clean_linker_0, # of connection points: 2
#     Edge 66, Type (0, 0), BuildingBlock: UVAHIK_clean_linker_0, # of connection points: 2
#     Edge 67, Type (0, 0), BuildingBlock: UVAHIK_clean_linker_0, # of connection points: 2
#     Edge 68, Type (0, 0), BuildingBlock: UVAHIK_clean_linker_0, # of connection points: 2
#     Edge 69, Type (0, 0), BuildingBlock: UVAHIK_clean_linker_0, # of connection points: 2
#     Edge 70, Type (0, 0), BuildingBlock: UVAHIK_clean_linker_0, # of connection points: 2
#     Edge 71, Type (0, 0), BuildingBlock: UVAHIK_clean_linker_0, # of connection points: 2
#     Edge 72, Type (0, 0), BuildingBlock: UVAHIK_clean_linker_0, # of connection points: 2
#     Edge 73, Type (0, 0), BuildingBlock: UVAHIK_clean_linker_0, # of connection points: 2
#     Edge 74, Type (0, 0), BuildingBlock: UVAHIK_clean_linker_0, # of connection points: 2
#     Edge 75, Type (0, 0), BuildingBlock: UVAHIK_clean_linker_0, # of connection points: 2
#     Edge 76, Type (0, 0), BuildingBlock: UVAHIK_clean_linker_0, # of connection points: 2
#     Edge 77, Type (0, 0), BuildingBlock: UVAHIK_clean_linker_0, # of connection points: 2
#     Edge 78, Type (0, 0), BuildingBlock: UVAHIK_clean_linker_0, # of connection points: 2
#     Edge 79, Type (0, 0), BuildingBlock: UVAHIK_clean_linker_0, # of connection points: 2
#     Edge 80, Type (0, 0), BuildingBlock: UVAHIK_clean_linker_0, # of connection points: 2
#     Edge 81, Type (0, 0), BuildingBlock: UVAHIK_clean_linker_0, # of connection points: 2
#     Edge 82, Type (0, 0), BuildingBlock: UVAHIK_clean_linker_0, # of connection points: 2
#     Edge 83, Type (0, 0), BuildingBlock: UVAHIK_clean_linker_0, # of connection points: 2
#     Edge 84, Type (0, 0), BuildingBlock: UVAHIK_clean_linker_0, # of connection points: 2
#     Edge 85, Type (0, 0), BuildingBlock: UVAHIK_clean_linker_0, # of connection points: 2
#     Edge 86, Type (0, 0), BuildingBlock: UVAHIK_clean_linker_0, # of connection points: 2
#     Edge 87, Type (0, 0), BuildingBlock: UVAHIK_clean_linker_0, # of connection points: 2
#     Edge 88, Type (0, 0), BuildingBlock: UVAHIK_clean_linker_0, # of connection points: 2
#     Edge 89, Type (0, 0), BuildingBlock: UVAHIK_clean_linker_0, # of connection points: 2
#     Edge 90, Type (0, 0), BuildingBlock: UVAHIK_clean_linker_0, # of connection points: 2
#     Edge 91, Type (0, 0), BuildingBlock: UVAHIK_clean_linker_0, # of connection points: 2
#     Edge 92, Type (0, 0), BuildingBlock: UVAHIK_clean_linker_0, # of connection points: 2
#     Edge 93, Type (0, 0), BuildingBlock: UVAHIK_clean_linker_0, # of connection points: 2
#     Edge 94, Type (0, 0), BuildingBlock: UVAHIK_clean_linker_0, # of connection points: 2
#     Edge 95, Type (0, 0), BuildingBlock: UVAHIK_clean_linker_0, # of connection points: 2
#     Edge 96, Type (0, 0), BuildingBlock: UVAHIK_clean_linker_0, # of connection points: 2
#     Edge 97, Type (0, 0), BuildingBlock: UVAHIK_clean_linker_0, # of connection points: 2
#     Edge 98, Type (0, 0), BuildingBlock: UVAHIK_clean_linker_0, # of connection points: 2
#     Edge 99, Type (0, 0), BuildingBlock: UVAHIK_clean_linker_0, # of connection points: 2
#     Edge 100, Type (0, 0), BuildingBlock: UVAHIK_clean_linker_0, # of connection points: 2
#     Edge 101, Type (0, 0), BuildingBlock: UVAHIK_clean_linker_0, # of connection points: 2
#     Edge 102, Type (0, 0), BuildingBlock: UVAHIK_clean_linker_0, # of connection points: 2
#     Edge 103, Type (0, 0), BuildingBlock: UVAHIK_clean_linker_0, # of connection points: 2
#     Edge 104, Type (0, 0), BuildingBlock: UVAHIK_clean_linker_0, # of connection points: 2
#     Edge 105, Type (0, 0), BuildingBlock: UVAHIK_clean_linker_0, # of connection points: 2
#     Edge 106, Type (0, 0), BuildingBlock: UVAHIK_clean_linker_0, # of connection points: 2
#     Edge 107, Type (0, 0), BuildingBlock: UVAHIK_clean_linker_0, # of connection points: 2
#     Edge 108, Type (0, 0), BuildingBlock: UVAHIK_clean_linker_0, # of connection points: 2
#     Edge 109, Type (0, 0), BuildingBlock: UVAHIK_clean_linker_0, # of connection points: 2
#     Edge 110, Type (0, 0), BuildingBlock: UVAHIK_clean_linker_0, # of connection points: 2
#     Edge 111, Type (0, 0), BuildingBlock: UVAHIK_clean_linker_0, # of connection points: 2
#     Edge 112, Type (0, 0), BuildingBlock: UVAHIK_clean_linker_0, # of connection points: 2
#     Edge 113, Type (0, 0), BuildingBlock: UVAHIK_clean_linker_0, # of connection points: 2
#     Edge 114, Type (0, 0), BuildingBlock: UVAHIK_clean_linker_0, # of connection points: 2
#     Edge 115, Type (0, 0), BuildingBlock: UVAHIK_clean_linker_0, # of connection points: 2
#     Edge 116, Type (0, 0), BuildingBlock: UVAHIK_clean_linker_0, # of connection points: 2
#     Edge 117, Type (0, 0), BuildingBlock: UVAHIK_clean_linker_0, # of connection points: 2
#     Edge 118, Type (0, 0), BuildingBlock: UVAHIK_clean_linker_0, # of connection points: 2
#     Edge 119, Type (0, 0), BuildingBlock: UVAHIK_clean_linker_0, # of connection points: 2
#     Edge 120, Type (0, 0), BuildingBlock: UVAHIK_clean_linker_0, # of connection points: 2
#     Edge 121, Type (0, 0), BuildingBlock: UVAHIK_clean_linker_0, # of connection points: 2
#     Edge 122, Type (0, 0), BuildingBlock: UVAHIK_clean_linker_0, # of connection points: 2
#     Edge 123, Type (0, 0), BuildingBlock: UVAHIK_clean_linker_0, # of connection points: 2
#     Edge 124, Type (0, 0), BuildingBlock: UVAHIK_clean_linker_0, # of connection points: 2
#     Edge 125, Type (0, 0), BuildingBlock: UVAHIK_clean_linker_0, # of connection points: 2
#     Edge 126, Type (0, 0), BuildingBlock: UVAHIK_clean_linker_0, # of connection points: 2
#     Edge 127, Type (0, 0), BuildingBlock: UVAHIK_clean_linker_0, # of connection points: 2
# Relax obj value: 0.295
# Max RMSD: 0.179
# Mean RMSD: 0.179
data_MOF--net-whq--node1-IZENUY_clean_sbu_0--edge1-UVAHIK_clean_linker_0
_symmetry_space_group_name_H-M    P1
_symmetry_Int_Tables_number       1
_symmetry_cell_setting            triclinic
loop_
_symmetry_equiv_pos_as_xyz
'x, y, z'
_cell_length_a     65.232381
_cell_length_b     65.242223
_cell_length_c     71.727817
_cell_angle_alpha  89.951897
_cell_angle_beta   90.0124
_cell_angle_gamma 89.990356
loop_
_atom_site_label
_atom_site_type_symbol
_atom_site_fract_x
_atom_site_fract_y
_atom_site_fract_z
_atom_type_partial_charge
Fe0 Fe 0.07653 0.18588 0.15721 0.0
Fe1 Fe 0.111 0.20196 0.13229 0.0
O2 O 0.08535 0.20349 0.14029 0.0
Fe3 Fe 0.06859 0.22273 0.13163 0.0
O4 O 0.0646 0.23341 0.15475 0.0
O5 O 0.05865 0.20376 0.16821 0.0
O6 O 0.09539 0.19475 0.17382 0.0
C7 C 0.11442 0.19513 0.17096 0.0
C8 C 0.04323 0.18725 0.13431 0.0
O9 O 0.1216 0.19304 0.15467 0.0
C10 C 0.0882 0.21118 0.09965 0.0
O11 O 0.09291 0.16456 0.14944 0.0
O12 O 0.10758 0.17596 0.12393 0.0
O13 O 0.04536 0.20659 0.13324 0.0
O14 O 0.057 0.17626 0.1416 0.0
C15 C 0.10663 0.24354 0.13551 0.0
O16 O 0.10501 0.2107 0.10852 0.0
O17 O 0.0714 0.2134 0.10808 0.0
C18 C 0.10202 0.16124 0.13414 0.0
O19 O 0.1163 0.22766 0.14022 0.0
O20 O 0.08887 0.24226 0.12837 0.0
C21 C 0.05861 0.22313 0.16861 0.0
Fe22 Fe 0.82036 0.07167 0.15156 0.0
Fe23 Fe 0.8026 0.10716 0.12882 0.0
O24 O 0.80156 0.08124 0.13609 0.0
Fe25 Fe 0.78171 0.06482 0.12815 0.0
O26 O 0.77279 0.06001 0.15182 0.0
O27 O 0.8034 0.05293 0.16273 0.0
O28 O 0.81276 0.08967 0.16941 0.0
C29 C 0.81215 0.10886 0.16725 0.0
C30 C 0.81738 0.03938 0.12786 0.0
O31 O 0.81266 0.11674 0.15109 0.0
C32 C 0.79128 0.08552 0.09609 0.0
O33 O 0.84103 0.08853 0.14343 0.0
O34 O 0.82813 0.10424 0.11908 0.0
O35 O 0.79798 0.0415 0.12808 0.0
O36 O 0.82883 0.05312 0.13454 0.0
C37 C 0.76124 0.10279 0.13402 0.0
O38 O 0.79255 0.10204 0.10533 0.0
O39 O 0.78931 0.06847 0.10417 0.0
C40 C 0.84345 0.09839 0.12839 0.0
O41 O 0.77744 0.1122 0.13813 0.0
O42 O 0.76196 0.08515 0.12659 0.0
C43 C 0.7841 0.05235 0.16427 0.0
Fe44 Fe 0.89341 0.79607 0.12929 0.0
Fe45 Fe 0.93579 0.77508 0.12829 0.0
O46 O 0.91941 0.79493 0.13635 0.0
Fe47 Fe 0.92919 0.81365 0.15174 0.0
O48 O 0.91147 0.80595 0.16974 0.0
O49 O 0.88408 0.80583 0.1518 0.0
O50 O 0.88841 0.77075 0.13834 0.0
C51 C 0.89774 0.75459 0.13396 0.0
C52 C 0.90225 0.83693 0.12902 0.0
O53 O 0.91546 0.75536 0.12671 0.0
C54 C 0.96116 0.81079 0.12773 0.0
O55 O 0.89843 0.78644 0.10563 0.0
O56 O 0.93201 0.78271 0.10441 0.0
O57 O 0.91225 0.83438 0.14394 0.0
O58 O 0.89614 0.82172 0.11975 0.0
C59 C 0.94857 0.77742 0.16425 0.0
O60 O 0.95914 0.79138 0.12809 0.0
O61 O 0.94742 0.82219 0.13448 0.0
C62 C 0.91496 0.785 0.09641 0.0
O63 O 0.94072 0.7661 0.15194 0.0
O64 O 0.94814 0.7967 0.16262 0.0
C65 C 0.89225 0.80543 0.16786 0.0
Fe66 Fe 0.18446 0.92477 0.15509 0.0
Fe67 Fe 0.20257 0.89132 0.13025 0.0
O68 O 0.20319 0.91678 0.13888 0.0
Fe69 Fe 0.2226 0.93416 0.13168 0.0
O70 O 0.23165 0.938 0.15544 0.0
O71 O 0.20103 0.94299 0.16712 0.0
O72 O 0.19308 0.90579 0.17171 0.0
C73 C 0.19414 0.88685 0.16846 0.0
C74 C 0.18627 0.95865 0.13301 0.0
O75 O 0.19274 0.88002 0.152 0.0
C76 C 0.2134 0.91518 0.09869 0.0
O77 O 0.16408 0.90803 0.14617 0.0
O78 O 0.17695 0.89442 0.1208 0.0
O79 O 0.20571 0.95692 0.13272 0.0
O80 O 0.17519 0.9444 0.13939 0.0
C81 C 0.24389 0.89631 0.13571 0.0
O82 O 0.21244 0.89811 0.10707 0.0
O83 O 0.215 0.93173 0.1076 0.0
C84 C 0.16167 0.89939 0.13053 0.0
O85 O 0.22788 0.88623 0.13917 0.0
O86 O 0.24282 0.9144 0.12924 0.0
C87 C 0.2203 0.94395 0.16858 0.0
Fe88 Fe 0.07171 0.7845 0.36314 0.0
Fe89 Fe 0.0834 0.81989 0.33684 0.0
O90 O 0.0898 0.80286 0.35513 0.0
Fe91 Fe 0.11454 0.80398 0.36545 0.0
O92 O 0.11574 0.77659 0.37116 0.0
O93 O 0.08886 0.76335 0.35731 0.0
O94 O 0.05932 0.78051 0.34038 0.0
C95 C 0.06516 0.78475 0.324 0.0
C96 C 0.09073 0.79895 0.39619 0.0
O97 O 0.07776 0.799 0.32111 0.0
C98 C 0.10566 0.84596 0.35876 0.0
O99 O 0.05333 0.80426 0.36941 0.0
O100 O 0.05645 0.82256 0.34374 0.0
O101 O 0.10359 0.81013 0.38788 0.0
O102 O 0.08066 0.78537 0.38745 0.0
C103 C 0.12388 0.80738 0.32852 0.0
O104 O 0.0887 0.84236 0.35101 0.0
O105 O 0.11824 0.83157 0.36176 0.0
C106 C 0.04695 0.81821 0.35865 0.0
O107 O 0.10917 0.8199 0.32674 0.0
O108 O 0.12695 0.79787 0.34357 0.0
C109 C 0.10673 0.76144 0.36383 0.0
Fe110 Fe 0.19018 0.08594 0.33722 0.0
Fe111 Fe 0.20609 0.11615 0.36649 0.0
O112 O 0.20728 0.09178 0.35559 0.0
Fe113 Fe 0.22575 0.07352 0.36307 0.0
O114 O 0.22965 0.06199 0.33997 0.0
O115 O 0.21112 0.08116 0.32128 0.0
O116 O 0.18981 0.11206 0.32792 0.0
C117 C 0.20229 0.12676 0.3299 0.0
C118 C 0.19215 0.04872 0.35787 0.0
O119 O 0.21208 0.12933 0.34488 0.0
C120 C 0.21118 0.09133 0.39663 0.0
O121 O 0.16776 0.09051 0.35177 0.0
O122 O 0.17857 0.11983 0.3629 0.0
O123 O 0.20604 0.05481 0.36884 0.0
O124 O 0.1878 0.05872 0.34324 0.0
C125 C 0.24854 0.10875 0.36438 0.0
O126 O 0.20001 0.10444 0.38863 0.0
O127 O 0.22486 0.08162 0.38766 0.0
C128 C 0.16422 0.10723 0.35997 0.0
O129 O 0.23339 0.1172 0.3722 0.0
O130 O 0.24686 0.09097 0.3576 0.0
C131 C 0.22553 0.06863 0.32382 0.0
Fe132 Fe 0.92862 0.19043 0.33957 0.0
Fe133 Fe 0.89398 0.20685 0.36395 0.0
O134 O 0.91965 0.20836 0.35611 0.0
Fe135 Fe 0.93639 0.22768 0.36449 0.0
O136 O 0.94081 0.2377 0.34111 0.0
O137 O 0.94748 0.20764 0.32896 0.0
O138 O 0.91034 0.19943 0.32252 0.0
C139 C 0.8912 0.19956 0.32507 0.0
C140 C 0.96132 0.19163 0.3629 0.0
O141 O 0.88377 0.19806 0.34137 0.0
C142 C 0.91648 0.21667 0.39662 0.0
O143 O 0.91156 0.16954 0.34683 0.0
O144 O 0.89738 0.18081 0.37248 0.0
O145 O 0.95946 0.21106 0.36358 0.0
O146 O 0.94737 0.1807 0.35584 0.0
C147 C 0.89834 0.24849 0.36019 0.0
O148 O 0.89972 0.21555 0.38775 0.0
O149 O 0.93327 0.21916 0.38825 0.0
C150 C 0.90245 0.16612 0.36208 0.0
O151 O 0.88863 0.23249 0.35596 0.0
O152 O 0.91624 0.24747 0.36705 0.0
C153 C 0.94828 0.22697 0.3282 0.0
Fe154 Fe 0.7825 0.93781 0.3661 0.0
Fe155 Fe 0.82128 0.93277 0.34248 0.0
O156 O 0.80324 0.9224 0.35825 0.0
Fe157 Fe 0.80586 0.8967 0.36591 0.0
O158 O 0.78085 0.89011 0.35699 0.0
O159 O 0.76408 0.91645 0.36834 0.0
O160 O 0.77298 0.94144 0.34245 0.0
C161 C 0.78378 0.94838 0.3293 0.0
C162 C 0.79376 0.91839 0.39838 0.0
O163 O 0.80301 0.94988 0.33098 0.0
C164 C 0.84622 0.90774 0.36571 0.0
O165 O 0.79718 0.96201 0.36539 0.0
O166 O 0.8287 0.95228 0.35912 0.0
O167 O 0.79586 0.9018 0.38938 0.0
O168 O 0.79067 0.93517 0.39008 0.0
C169 C 0.81509 0.89481 0.32744 0.0
O170 O 0.84297 0.91746 0.35075 0.0
O171 O 0.83141 0.90111 0.37528 0.0
C172 C 0.81637 0.96528 0.36573 0.0
O173 O 0.81477 0.91395 0.32501 0.0
O174 O 0.81611 0.88721 0.34368 0.0
C175 C 0.76421 0.89873 0.3611 0.0
Fe176 Fe 0.9355 0.78104 0.86329 0.0
Fe177 Fe 0.92422 0.81682 0.83731 0.0
O178 O 0.91759 0.79962 0.85537 0.0
Fe179 Fe 0.89281 0.80087 0.86555 0.0
O180 O 0.8913 0.77345 0.87097 0.0
O181 O 0.91818 0.76009 0.8572 0.0
O182 O 0.94787 0.77721 0.84049 0.0
C183 C 0.94199 0.78163 0.82415 0.0
C184 C 0.91632 0.79521 0.89641 0.0
O185 O 0.92954 0.79605 0.82138 0.0
C186 C 0.90225 0.84279 0.85948 0.0
O187 O 0.95409 0.80059 0.86979 0.0
O188 O 0.95121 0.81899 0.84419 0.0
O189 O 0.90368 0.80662 0.88809 0.0
O190 O 0.92646 0.78172 0.8876 0.0
C191 C 0.8835 0.80515 0.82873 0.0
O192 O 0.91926 0.83909 0.85185 0.0
O193 O 0.88945 0.82853 0.86209 0.0
C194 C 0.96063 0.81454 0.8591 0.0
O195 O 0.89845 0.81742 0.82717 0.0
O196 O 0.88041 0.79522 0.84355 0.0
C197 C 0.90021 0.75831 0.86354 0.0
Fe198 Fe 0.1855 0.9304 0.84162 0.0
Fe199 Fe 0.20116 0.89575 0.86657 0.0
O200 O 0.20351 0.92111 0.85796 0.0
Fe201 Fe 0.22393 0.93717 0.86544 0.0
O202 O 0.23361 0.94017 0.84178 0.0
O203 O 0.20355 0.94727 0.82958 0.0
O204 O 0.19258 0.91078 0.82498 0.0
C205 C 0.19215 0.8918 0.82828 0.0
C206 C 0.18956 0.96402 0.86379 0.0
O207 O 0.19091 0.88517 0.84483 0.0
C208 C 0.21295 0.9188 0.89827 0.0
O209 O 0.16396 0.91514 0.85038 0.0
O210 O 0.17554 0.90035 0.87574 0.0
O211 O 0.20881 0.96104 0.8639 0.0
O212 O 0.17755 0.95061 0.85735 0.0
C213 C 0.24279 0.89814 0.8617 0.0
O214 O 0.21116 0.90189 0.88977 0.0
O215 O 0.21568 0.93532 0.88947 0.0
C216 C 0.1607 0.90618 0.86575 0.0
O217 O 0.22628 0.88909 0.85787 0.0
O218 O 0.24267 0.91614 0.86838 0.0
C219 C 0.22286 0.94644 0.82831 0.0
Fe220 Fe 0.06834 0.22654 0.86695 0.0
Fe221 Fe 0.07596 0.18985 0.84125 0.0
O222 O 0.08491 0.20723 0.85829 0.0
Fe223 Fe 0.11045 0.20523 0.86637 0.0
O224 O 0.11619 0.23091 0.85867 0.0
O225 O 0.08872 0.24597 0.87 0.0
O226 O 0.06424 0.2372 0.84374 0.0
C227 C 0.0571 0.22691 0.83039 0.0
C228 C 0.0879 0.21468 0.899 0.0
O229 O 0.05752 0.20757 0.83074 0.0
C230 C 0.10148 0.16468 0.86373 0.0
O231 O 0.04511 0.21031 0.86557 0.0
O232 O 0.05676 0.18001 0.85704 0.0
O233 O 0.10467 0.21379 0.89016 0.0
O234 O 0.07116 0.21734 0.89058 0.0
C235 C 0.11381 0.19867 0.82752 0.0
O236 O 0.0926 0.16857 0.84844 0.0
O237 O 0.10655 0.17908 0.8745 0.0
C238 C 0.04303 0.19094 0.86446 0.0
O239 O 0.09473 0.19899 0.82459 0.0
O240 O 0.12079 0.19653 0.84391 0.0
C241 C 0.10659 0.24693 0.86305 0.0
Fe242 Fe 0.78187 0.07033 0.86281 0.0
Fe243 Fe 0.81901 0.08007 0.83816 0.0
O244 O 0.8008 0.08785 0.85491 0.0
Fe245 Fe 0.80141 0.11329 0.86349 0.0
O246 O 0.77586 0.11806 0.85494 0.0
O247 O 0.76173 0.09001 0.86609 0.0
O248 O 0.77181 0.06669 0.83942 0.0
C249 C 0.78254 0.06143 0.82562 0.0
C250 C 0.79204 0.08945 0.8954 0.0
O251 O 0.8019 0.06205 0.82637 0.0
C252 C 0.84231 0.10529 0.8625 0.0
O253 O 0.79872 0.04758 0.86094 0.0
O254 O 0.82883 0.06038 0.85347 0.0
O255 O 0.79207 0.10644 0.88684 0.0
O256 O 0.79063 0.07277 0.88663 0.0
C257 C 0.80925 0.11808 0.82513 0.0
O258 O 0.83963 0.09675 0.84683 0.0
O259 O 0.82719 0.11024 0.87247 0.0
C260 C 0.81813 0.04598 0.86004 0.0
O261 O 0.80999 0.09916 0.82182 0.0
O262 O 0.81079 0.12477 0.84163 0.0
C263 C 0.76014 0.10782 0.85907 0.0
Fe264 Fe 0.89475 0.20431 0.62852 0.0
Fe265 Fe 0.93712 0.22511 0.62985 0.0
O266 O 0.91976 0.20614 0.63815 0.0
Fe267 Fe 0.92725 0.18907 0.65606 0.0
O268 O 0.9018 0.18768 0.66672 0.0
O269 O 0.8828 0.20944 0.65083 0.0
O270 O 0.89241 0.2317 0.62357 0.0
C271 C 0.90115 0.2469 0.63106 0.0
C272 C 0.90552 0.16262 0.63411 0.0
O273 O 0.91961 0.24578 0.63628 0.0
C274 C 0.96288 0.19201 0.63346 0.0
O275 O 0.90508 0.19911 0.60564 0.0
O276 O 0.92745 0.22438 0.60575 0.0
O277 O 0.92254 0.16669 0.64158 0.0
O278 O 0.89228 0.17655 0.63177 0.0
C279 C 0.94453 0.22459 0.6689 0.0
O280 O 0.95582 0.20583 0.6229 0.0
O281 O 0.95409 0.18761 0.64868 0.0
C282 C 0.91732 0.21076 0.59711 0.0
O283 O 0.95002 0.22909 0.65245 0.0
O284 O 0.93237 0.20997 0.67187 0.0
C285 C 0.88654 0.1996 0.66556 0.0
Fe286 Fe 0.80153 0.89357 0.63185 0.0
Fe287 Fe 0.78408 0.9373 0.63078 0.0
O288 O 0.80203 0.91934 0.63953 0.0
Fe289 Fe 0.82034 0.9271 0.65621 0.0
O290 O 0.81018 0.9092 0.67316 0.0
O291 O 0.80996 0.88271 0.65425 0.0
O292 O 0.77556 0.89033 0.64014 0.0
C293 C 0.76053 0.90107 0.63509 0.0
C294 C 0.84277 0.8997 0.63319 0.0
O295 O 0.76322 0.91846 0.62757 0.0
C296 C 0.82128 0.96017 0.63318 0.0
O297 O 0.79302 0.8999 0.60805 0.0
O298 O 0.79322 0.93361 0.60728 0.0
O299 O 0.8403 0.90904 0.64852 0.0
O300 O 0.82757 0.89501 0.62322 0.0
C301 C 0.78463 0.94864 0.66721 0.0
O302 O 0.80183 0.95937 0.63223 0.0
O303 O 0.83131 0.94556 0.64026 0.0
C304 C 0.79396 0.91659 0.59901 0.0
O305 O 0.77379 0.94217 0.65392 0.0
O306 O 0.80393 0.94666 0.66692 0.0
C307 C 0.80865 0.89017 0.6705 0.0
Fe308 Fe 0.11138 0.79956 0.62867 0.0
Fe309 Fe 0.06935 0.77804 0.62809 0.0
O310 O 0.08555 0.79802 0.63607 0.0
Fe311 Fe 0.07592 0.81643 0.65183 0.0
O312 O 0.09409 0.80845 0.66943 0.0
O313 O 0.12096 0.80969 0.65093 0.0
O314 O 0.11686 0.77441 0.63784 0.0
C315 C 0.10761 0.7581 0.63373 0.0
C316 C 0.10211 0.84017 0.62867 0.0
O317 O 0.08996 0.75861 0.62631 0.0
C318 C 0.04359 0.81351 0.62821 0.0
O319 O 0.10624 0.78964 0.60517 0.0
O320 O 0.07271 0.78587 0.60418 0.0
O321 O 0.0926 0.83743 0.64386 0.0
O322 O 0.10787 0.82504 0.6191 0.0
C323 C 0.05707 0.77989 0.66423 0.0
O324 O 0.04588 0.79412 0.62822 0.0
O325 O 0.05721 0.82502 0.63502 0.0
C326 C 0.08965 0.7883 0.59605 0.0
O327 O 0.06484 0.76883 0.6517 0.0
O328 O 0.05731 0.7992 0.66282 0.0
C329 C 0.11324 0.80827 0.66708 0.0
Fe330 Fe 0.22368 0.06721 0.62961 0.0
Fe331 Fe 0.18524 0.07422 0.65324 0.0
O332 O 0.20349 0.08347 0.63709 0.0
Fe333 Fe 0.20142 0.10897 0.62882 0.0
O334 O 0.22658 0.11532 0.63741 0.0
O335 O 0.24299 0.08792 0.62761 0.0
O336 O 0.23282 0.06325 0.65338 0.0
C337 C 0.22179 0.05559 0.66599 0.0
C338 C 0.2133 0.08637 0.59684 0.0
O339 O 0.2025 0.05598 0.66462 0.0
C340 C 0.16091 0.09931 0.62963 0.0
O341 O 0.20764 0.0437 0.63008 0.0
O342 O 0.17666 0.05494 0.63699 0.0
O343 O 0.21117 0.10319 0.60543 0.0
O344 O 0.21618 0.06982 0.6055 0.0
C345 C 0.19312 0.1121 0.66731 0.0
O346 O 0.16406 0.09053 0.64511 0.0
O347 O 0.17584 0.10467 0.61961 0.0
C348 C 0.18824 0.04132 0.63023 0.0
O349 O 0.19327 0.09303 0.67025 0.0
O350 O 0.19144 0.11921 0.65093 0.0
C351 C 0.2431 0.10612 0.63387 0.0
Fe352 Fe 0.5871 0.69106 0.6562 0.0
Fe353 Fe 0.61591 0.7076 0.62595 0.0
O354 O 0.59185 0.70803 0.6375 0.0
Fe355 Fe 0.57265 0.72562 0.63034 0.0
O356 O 0.56148 0.72912 0.65363 0.0
O357 O 0.58221 0.71208 0.67205 0.0
O358 O 0.61349 0.69149 0.66479 0.0
C359 C 0.62788 0.70419 0.66224 0.0
C360 C 0.54947 0.69121 0.63624 0.0
O361 O 0.62964 0.71397 0.64717 0.0
C362 C 0.59014 0.71192 0.59638 0.0
O363 O 0.59185 0.6687 0.64177 0.0
O364 O 0.62044 0.6801 0.62946 0.0
O365 O 0.55477 0.7051 0.62495 0.0
O366 O 0.55977 0.68776 0.6509 0.0
C367 C 0.60676 0.74975 0.62823 0.0
O368 O 0.60376 0.70114 0.6041 0.0
O369 O 0.58018 0.72517 0.60561 0.0
C370 C 0.60835 0.66546 0.6331 0.0
O371 O 0.6159 0.73506 0.62028 0.0
O372 O 0.58932 0.74729 0.63546 0.0
C373 C 0.56891 0.72581 0.66964 0.0
Fe374 Fe 0.32061 0.58199 0.65416 0.0
Fe375 Fe 0.30672 0.61254 0.62422 0.0
O376 O 0.30452 0.58821 0.63514 0.0
Fe377 Fe 0.28605 0.57027 0.62706 0.0
O378 O 0.28111 0.55862 0.65009 0.0
O379 O 0.29886 0.5778 0.66931 0.0
O380 O 0.32132 0.60806 0.66345 0.0
C381 C 0.30942 0.62313 0.66097 0.0
C382 C 0.319 0.54502 0.63331 0.0
O383 O 0.3004 0.62594 0.64564 0.0
C384 C 0.30174 0.58817 0.59377 0.0
O385 O 0.34372 0.58594 0.6405 0.0
O386 O 0.33431 0.6154 0.62848 0.0
O387 O 0.30573 0.55137 0.62183 0.0
O388 O 0.32258 0.55473 0.64825 0.0
C389 C 0.26394 0.60589 0.62507 0.0
O390 O 0.31313 0.60076 0.60217 0.0
O391 O 0.28783 0.57846 0.60247 0.0
C392 C 0.34814 0.60246 0.63229 0.0
O393 O 0.27956 0.61429 0.61793 0.0
O394 O 0.26509 0.58806 0.63188 0.0
C395 C 0.2846 0.56523 0.66639 0.0
Fe396 Fe 0.39283 0.30065 0.62812 0.0
Fe397 Fe 0.43492 0.27944 0.63036 0.0
O398 O 0.41748 0.29847 0.63842 0.0
Fe399 Fe 0.42456 0.31521 0.6567 0.0
O400 O 0.39883 0.31658 0.66675 0.0
O401 O 0.38 0.29542 0.65003 0.0
O402 O 0.39042 0.27331 0.62286 0.0
C403 C 0.39875 0.25797 0.63055 0.0
C404 C 0.40371 0.34216 0.63443 0.0
O405 O 0.41705 0.25889 0.63625 0.0
C406 C 0.46087 0.31224 0.63492 0.0
O407 O 0.4041 0.30614 0.60566 0.0
O408 O 0.42596 0.28049 0.60606 0.0
O409 O 0.42038 0.33792 0.64248 0.0
O410 O 0.39049 0.32838 0.63149 0.0
C411 C 0.44128 0.27937 0.66951 0.0
O412 O 0.45401 0.29864 0.62404 0.0
O413 O 0.4516 0.31658 0.64993 0.0
C414 C 0.4166 0.29459 0.59735 0.0
O415 O 0.44716 0.27509 0.65315 0.0
O416 O 0.4291 0.294 0.67238 0.0
C417 C 0.38342 0.30496 0.66498 0.0
Fe418 Fe 0.70187 0.39322 0.62625 0.0
Fe419 Fe 0.72429 0.43485 0.62877 0.0
O420 O 0.70445 0.41802 0.63611 0.0
Fe421 Fe 0.68719 0.42584 0.65368 0.0
O422 O 0.69583 0.40544 0.66883 0.0
O423 O 0.69276 0.38109 0.64785 0.0
O424 O 0.72737 0.38628 0.63357 0.0
C425 C 0.74373 0.39582 0.63014 0.0
C426 C 0.66149 0.40298 0.62931 0.0
O427 O 0.74332 0.4143 0.62457 0.0
C428 C 0.68928 0.46076 0.63298 0.0
O429 O 0.71074 0.40088 0.60303 0.0
O430 O 0.71529 0.43422 0.60495 0.0
O431 O 0.66549 0.4106 0.64512 0.0
O432 O 0.67584 0.39824 0.61834 0.0
C433 C 0.72467 0.44226 0.66625 0.0
O434 O 0.70858 0.45824 0.63168 0.0
O435 O 0.67796 0.44676 0.63945 0.0
C436 C 0.71226 0.41832 0.59539 0.0
O437 O 0.73488 0.43689 0.65218 0.0
O438 O 0.70533 0.44249 0.66578 0.0
C439 C 0.69546 0.38672 0.66455 0.0
Fe440 Fe 0.56955 0.28064 0.86391 0.0
Fe441 Fe 0.57679 0.31781 0.83869 0.0
O442 O 0.58606 0.29999 0.85522 0.0
Fe443 Fe 0.61187 0.30147 0.86276 0.0
O444 O 0.61706 0.27585 0.85453 0.0
O445 O 0.58981 0.26105 0.86649 0.0
O446 O 0.565 0.2704 0.84067 0.0
C447 C 0.55756 0.28095 0.82761 0.0
C448 C 0.58993 0.29161 0.89564 0.0
O449 O 0.55815 0.3003 0.82815 0.0
C450 C 0.60282 0.34221 0.86131 0.0
O451 O 0.54632 0.29691 0.86304 0.0
O452 O 0.55794 0.32733 0.85498 0.0
O453 O 0.6065 0.29247 0.88649 0.0
O454 O 0.57293 0.28949 0.88753 0.0
C455 C 0.61429 0.30863 0.8241 0.0
O456 O 0.59353 0.33889 0.84611 0.0
O457 O 0.60866 0.32747 0.87139 0.0
C458 C 0.54426 0.31629 0.86234 0.0
O459 O 0.59516 0.30902 0.8215 0.0
O460 O 0.62171 0.31054 0.84032 0.0
C461 C 0.60746 0.2599 0.85916 0.0
Fe462 Fe 0.68692 0.57729 0.83473 0.0
Fe463 Fe 0.70412 0.61236 0.85829 0.0
O464 O 0.70498 0.5864 0.8511 0.0
Fe465 Fe 0.72393 0.56956 0.86001 0.0
O466 O 0.73408 0.56438 0.83681 0.0
O467 O 0.70399 0.55808 0.82443 0.0
O468 O 0.6962 0.59511 0.8173 0.0
C469 C 0.69702 0.61427 0.81952 0.0
C470 C 0.6877 0.54495 0.85864 0.0
O471 O 0.69529 0.62214 0.83559 0.0
C472 C 0.71327 0.59061 0.89155 0.0
O473 O 0.66617 0.59469 0.84192 0.0
O474 O 0.67811 0.60985 0.86694 0.0
O475 O 0.70711 0.54668 0.85943 0.0
O476 O 0.67694 0.55886 0.85126 0.0
C477 C 0.7456 0.60701 0.85493 0.0
O478 O 0.71289 0.60712 0.88221 0.0
O479 O 0.71511 0.5735 0.88359 0.0
C480 C 0.66317 0.60433 0.85699 0.0
O481 O 0.72989 0.61687 0.85005 0.0
O482 O 0.74399 0.58943 0.86236 0.0
C483 C 0.72333 0.5569 0.8239 0.0
Fe484 Fe 0.42736 0.68705 0.83607 0.0
Fe485 Fe 0.39268 0.70311 0.86069 0.0
O486 O 0.41836 0.70483 0.85272 0.0
Fe487 Fe 0.43497 0.72436 0.86108 0.0
O488 O 0.43921 0.73462 0.83779 0.0
O489 O 0.4453 0.70472 0.82501 0.0
O490 O 0.40858 0.69568 0.81927 0.0
C491 C 0.38952 0.69592 0.82204 0.0
C492 C 0.46061 0.68888 0.85892 0.0
O493 O 0.38226 0.69391 0.83832 0.0
C494 C 0.41532 0.71319 0.89323 0.0
O495 O 0.41107 0.66579 0.84392 0.0
O496 O 0.3963 0.67722 0.86933 0.0
O497 O 0.4583 0.70823 0.85991 0.0
O498 O 0.44682 0.67773 0.85189 0.0
C499 C 0.39663 0.74473 0.85695 0.0
O500 O 0.39852 0.71208 0.88439 0.0
O501 O 0.43209 0.7156 0.8848 0.0
C502 C 0.40214 0.6625 0.8593 0.0
O503 O 0.38712 0.72866 0.85254 0.0
O504 O 0.41453 0.74383 0.86386 0.0
C505 C 0.44565 0.72405 0.82431 0.0
Fe506 Fe 0.28177 0.43594 0.86369 0.0
Fe507 Fe 0.31931 0.42695 0.83938 0.0
O508 O 0.30073 0.41856 0.85554 0.0
Fe509 Fe 0.30107 0.39273 0.86326 0.0
O510 O 0.2755 0.3885 0.85446 0.0
O511 O 0.2614 0.41638 0.86596 0.0
O512 O 0.27226 0.44089 0.84013 0.0
C513 C 0.28351 0.44681 0.82685 0.0
C514 C 0.29134 0.4153 0.89588 0.0
O515 O 0.30278 0.4458 0.82813 0.0
C516 C 0.34209 0.40052 0.8629 0.0
O517 O 0.2989 0.45853 0.86299 0.0
O518 O 0.32905 0.44574 0.85562 0.0
O519 O 0.29165 0.39865 0.88679 0.0
O520 O 0.28992 0.43233 0.88762 0.0
C521 C 0.30932 0.3897 0.82477 0.0
O522 O 0.33957 0.40968 0.84752 0.0
O523 O 0.32689 0.39502 0.87253 0.0
C524 C 0.31834 0.45995 0.86251 0.0
O525 O 0.31036 0.40877 0.82218 0.0
O526 O 0.31047 0.3822 0.84103 0.0
C527 C 0.2598 0.39868 0.85878 0.0
Fe528 Fe 0.42746 0.3218 0.33881 0.0
Fe529 Fe 0.39593 0.30577 0.36667 0.0
O530 O 0.42053 0.30416 0.35642 0.0
Fe531 Fe 0.4379 0.28485 0.3638 0.0
O532 O 0.44977 0.28136 0.34077 0.0
O533 O 0.4318 0.30135 0.32225 0.0
O534 O 0.40146 0.32393 0.32919 0.0
C535 C 0.38625 0.31191 0.33027 0.0
C536 C 0.46392 0.31775 0.36014 0.0
O537 O 0.38348 0.30082 0.34446 0.0
C538 C 0.41967 0.29905 0.39728 0.0
O539 O 0.42349 0.34365 0.35414 0.0
O540 O 0.39327 0.33359 0.36379 0.0
O541 O 0.45704 0.30373 0.37057 0.0
O542 O 0.45463 0.32274 0.34531 0.0
C543 C 0.402 0.26314 0.36382 0.0
O544 O 0.4071 0.3108 0.38923 0.0
O545 O 0.42912 0.28523 0.38823 0.0
C546 C 0.40652 0.34757 0.36179 0.0
O547 O 0.39376 0.27838 0.37166 0.0
O548 O 0.41998 0.26447 0.35743 0.0
C549 C 0.44374 0.28637 0.3246 0.0
Fe550 Fe 0.687 0.43165 0.33841 0.0
Fe551 Fe 0.70392 0.3983 0.36409 0.0
O552 O 0.70539 0.42347 0.3549 0.0
Fe553 Fe 0.72526 0.44041 0.362 0.0
O554 O 0.73473 0.44322 0.33824 0.0
O555 O 0.70441 0.44877 0.32592 0.0
O556 O 0.69465 0.4118 0.32223 0.0
C557 C 0.69457 0.39293 0.32598 0.0
C558 C 0.6899 0.46588 0.36007 0.0
O559 O 0.69374 0.38677 0.3427 0.0
C560 C 0.71492 0.42251 0.39523 0.0
O561 O 0.66599 0.41597 0.34771 0.0
O562 O 0.67831 0.40246 0.37338 0.0
O563 O 0.70926 0.46369 0.36021 0.0
O564 O 0.67844 0.45201 0.35362 0.0
C565 C 0.74538 0.4019 0.35893 0.0
O566 O 0.71393 0.40533 0.38709 0.0
O567 O 0.71716 0.43887 0.38608 0.0
C568 C 0.6632 0.40759 0.36343 0.0
O569 O 0.72915 0.39223 0.35533 0.0
O570 O 0.74471 0.42006 0.36522 0.0
C571 C 0.72373 0.44863 0.32463 0.0
Fe572 Fe 0.61204 0.70475 0.36587 0.0
Fe573 Fe 0.57044 0.72704 0.36279 0.0
O574 O 0.58668 0.70607 0.35708 0.0
Fe575 Fe 0.57747 0.68645 0.34237 0.0
O576 O 0.597 0.69192 0.32519 0.0
O577 O 0.62283 0.69269 0.3449 0.0
O578 O 0.61855 0.72909 0.35542 0.0
C579 C 0.60943 0.7458 0.35822 0.0
C580 C 0.60182 0.66432 0.36833 0.0
O581 O 0.5913 0.74608 0.36458 0.0
C582 C 0.5437 0.6926 0.36386 0.0
O583 O 0.60554 0.71655 0.38833 0.0
O584 O 0.57207 0.72098 0.38733 0.0
O585 O 0.59279 0.66589 0.3528 0.0
O586 O 0.60769 0.68008 0.37694 0.0
C587 C 0.56129 0.72228 0.32596 0.0
O588 O 0.54664 0.71177 0.36225 0.0
O589 O 0.55729 0.68003 0.35873 0.0
C590 C 0.58842 0.71867 0.39647 0.0
O591 O 0.56761 0.73442 0.33839 0.0
O592 O 0.56056 0.7032 0.32898 0.0
C593 C 0.616 0.69199 0.32838 0.0
Fe594 Fe 0.31801 0.58208 0.33488 0.0
Fe595 Fe 0.30103 0.61503 0.36082 0.0
O596 O 0.30026 0.58962 0.35216 0.0
Fe597 Fe 0.28184 0.57175 0.36049 0.0
O598 O 0.27122 0.56781 0.33726 0.0
O599 O 0.30107 0.56341 0.32381 0.0
O600 O 0.30793 0.60079 0.31878 0.0
C601 C 0.30695 0.61976 0.32194 0.0
C602 C 0.31867 0.54838 0.3572 0.0
O603 O 0.30878 0.62662 0.33841 0.0
C604 C 0.29309 0.59084 0.393 0.0
O605 O 0.33852 0.59943 0.34238 0.0
O606 O 0.32741 0.61233 0.36865 0.0
O607 O 0.29922 0.54941 0.35836 0.0
O608 O 0.32884 0.56289 0.35012 0.0
C609 C 0.25949 0.6091 0.35785 0.0
O610 O 0.29325 0.60796 0.38462 0.0
O611 O 0.29099 0.57428 0.38417 0.0
C612 C 0.34201 0.60801 0.35785 0.0
O613 O 0.27496 0.61963 0.35358 0.0
O614 O 0.26142 0.59103 0.36421 0.0
C615 C 0.28174 0.56246 0.32335 0.0
Fe616 Fe 0.43279 0.72265 0.12729 0.0
Fe617 Fe 0.42118 0.68591 0.152 0.0
O618 O 0.41466 0.70399 0.13463 0.0
Fe619 Fe 0.38977 0.70344 0.1248 0.0
O620 O 0.38826 0.73107 0.1208 0.0
O621 O 0.41589 0.74367 0.13399 0.0
O622 O 0.44497 0.72529 0.15037 0.0
C623 C 0.4386 0.72052 0.16652 0.0
C624 C 0.41299 0.71032 0.09381 0.0
O625 O 0.42598 0.70607 0.16874 0.0
C626 C 0.39961 0.6612 0.1286 0.0
O627 O 0.45113 0.70309 0.12017 0.0
O628 O 0.44831 0.68444 0.14555 0.0
O629 O 0.4001 0.69894 0.10185 0.0
O630 O 0.42372 0.72307 0.10296 0.0
C631 C 0.38048 0.69657 0.16117 0.0
O632 O 0.41668 0.66456 0.1363 0.0
O633 O 0.38658 0.6755 0.12694 0.0
C634 C 0.45772 0.68902 0.13069 0.0
O635 O 0.39524 0.68401 0.16173 0.0
O636 O 0.3779 0.7081 0.1473 0.0
C637 C 0.39754 0.74567 0.1287 0.0
Fe638 Fe 0.28111 0.43367 0.12887 0.0
Fe639 Fe 0.31847 0.42578 0.15364 0.0
O640 O 0.30019 0.41675 0.13743 0.0
Fe641 Fe 0.30109 0.39088 0.13006 0.0
O642 O 0.2754 0.38624 0.13833 0.0
O643 O 0.26095 0.41386 0.12668 0.0
O644 O 0.27136 0.43872 0.15226 0.0
C645 C 0.28235 0.44624 0.16499 0.0
C646 C 0.29147 0.41293 0.09699 0.0
O647 O 0.30167 0.44514 0.16406 0.0
C648 C 0.34203 0.39861 0.13145 0.0
O649 O 0.29806 0.45646 0.12934 0.0
O650 O 0.32834 0.44404 0.13692 0.0
O651 O 0.29224 0.39632 0.10617 0.0
O652 O 0.28949 0.42993 0.10513 0.0
C653 C 0.30859 0.38885 0.16896 0.0
O654 O 0.33898 0.40817 0.14652 0.0
O655 O 0.32711 0.39353 0.1213 0.0
C656 C 0.31752 0.458 0.1297 0.0
O657 O 0.30934 0.40804 0.1711 0.0
O658 O 0.30987 0.38096 0.15282 0.0
C659 C 0.25959 0.39616 0.13389 0.0
Fe660 Fe 0.56851 0.2751 0.12727 0.0
Fe661 Fe 0.57327 0.31451 0.14982 0.0
O662 O 0.58398 0.29572 0.13504 0.0
Fe663 Fe 0.61004 0.29749 0.1283 0.0
O664 O 0.61576 0.27265 0.13823 0.0
O665 O 0.58954 0.25618 0.12628 0.0
O666 O 0.56366 0.26654 0.15104 0.0
C667 C 0.55518 0.27788 0.16299 0.0
C668 C 0.58947 0.28483 0.09549 0.0
O669 O 0.55488 0.29713 0.16094 0.0
C670 C 0.59981 0.33797 0.12677 0.0
O671 O 0.5446 0.29036 0.1266 0.0
O672 O 0.55482 0.32188 0.13217 0.0
O673 O 0.60577 0.28672 0.10497 0.0
O674 O 0.57232 0.2824 0.10328 0.0
C675 C 0.6103 0.30794 0.16645 0.0
O676 O 0.58959 0.33559 0.1416 0.0
O677 O 0.60649 0.32266 0.11795 0.0
C678 C 0.54171 0.30961 0.12563 0.0
O679 O 0.59107 0.30789 0.16821 0.0
O680 O 0.61864 0.30853 0.15051 0.0
C681 C 0.60703 0.25609 0.134 0.0
Fe682 Fe 0.69962 0.60791 0.1259 0.0
Fe683 Fe 0.72083 0.56575 0.12339 0.0
O684 O 0.70133 0.58179 0.13251 0.0
Fe685 Fe 0.68355 0.57168 0.14861 0.0
O686 O 0.69239 0.5891 0.16646 0.0
O687 O 0.69058 0.6167 0.14887 0.0
O688 O 0.72523 0.61298 0.13422 0.0
C689 C 0.7413 0.60373 0.12935 0.0
C690 C 0.65891 0.59887 0.12724 0.0
O691 O 0.74037 0.58626 0.12162 0.0
C692 C 0.68518 0.54019 0.12398 0.0
O693 O 0.70853 0.6036 0.10189 0.0
O694 O 0.71212 0.57012 0.09981 0.0
O695 O 0.66241 0.58881 0.142 0.0
O696 O 0.6736 0.6049 0.11721 0.0
C697 C 0.72036 0.55214 0.15926 0.0
O698 O 0.70458 0.54238 0.12336 0.0
O699 O 0.67408 0.55369 0.13154 0.0
C700 C 0.70973 0.58738 0.09221 0.0
O701 O 0.73098 0.56025 0.14657 0.0
O702 O 0.70102 0.55253 0.15844 0.0
C703 C 0.69252 0.60834 0.16474 0.0
C704 C 0.1969 0.16244 0.31856 0.0
C705 C 0.20309 0.14222 0.3151 0.0
C706 C 0.19269 0.17562 0.30363 0.0
C707 C 0.19677 0.18292 0.25272 0.0
H708 H 0.13834 0.19336 0.25475 0.0
C709 C 0.14724 0.18582 0.1868 0.0
C710 C 0.12837 0.19611 0.18708 0.0
C711 C 0.15957 0.18535 0.20272 0.0
C712 C 0.15476 0.19125 0.25393 0.0
H713 H 0.21137 0.12021 0.29386 0.0
H714 H 0.20473 0.14338 0.2678 0.0
H715 H 0.15627 0.18295 0.28273 0.0
H716 H 0.10823 0.21529 0.20355 0.0
H717 H 0.13017 0.21544 0.23101 0.0
H718 H 0.19528 0.19089 0.22384 0.0
C719 C 0.20301 0.14911 0.28189 0.0
C720 C 0.16505 0.18523 0.27007 0.0
C721 C 0.20672 0.13584 0.29675 0.0
C722 C 0.12257 0.20691 0.20314 0.0
C723 C 0.13513 0.20689 0.21889 0.0
C724 C 0.18656 0.18937 0.2366 0.0
C725 C 0.19509 0.16879 0.28517 0.0
C726 C 0.18594 0.18021 0.26944 0.0
C727 C 0.15351 0.19558 0.21913 0.0
C728 C 0.16523 0.19273 0.2368 0.0
H729 H 0.19379 0.16751 0.33266 0.0
H730 H 0.18648 0.1907 0.30645 0.0
H731 H 0.21293 0.17918 0.25195 0.0
H732 H 0.15203 0.17736 0.17456 0.0
H733 H 0.17338 0.17616 0.20234 0.0
C734 C 0.8562 0.19612 0.31094 0.0
C735 C 0.87752 0.19811 0.3087 0.0
C736 C 0.84364 0.19224 0.29555 0.0
C737 C 0.84368 0.18933 0.24353 0.0
H738 H 0.80749 0.14309 0.25179 0.0
C739 C 0.81098 0.14367 0.1819 0.0
C740 C 0.81308 0.12232 0.18377 0.0
C741 C 0.81321 0.15647 0.19737 0.0
C742 C 0.81747 0.15605 0.24925 0.0
H743 H 0.90217 0.19902 0.28839 0.0
H744 H 0.88052 0.19174 0.2618 0.0
H745 H 0.82256 0.16061 0.27835 0.0
H746 H 0.81826 0.0976 0.20349 0.0
H747 H 0.82275 0.11985 0.23025 0.0
H748 H 0.83995 0.1837 0.21442 0.0
C749 C 0.87334 0.19343 0.27533 0.0
C750 C 0.82589 0.16631 0.26449 0.0
C751 C 0.88584 0.19739 0.29065 0.0
C752 C 0.81663 0.11399 0.20154 0.0
C753 C 0.81899 0.12677 0.21695 0.0
C754 C 0.83541 0.17895 0.22828 0.0
C755 C 0.85217 0.19025 0.27764 0.0
C756 C 0.83977 0.18253 0.26178 0.0
C757 C 0.81766 0.14819 0.21501 0.0
C758 C 0.8229 0.16166 0.23098 0.0
H759 H 0.84926 0.19688 0.32464 0.0
H760 H 0.82735 0.19018 0.29775 0.0
H761 H 0.85397 0.20205 0.24099 0.0
H762 H 0.80793 0.15055 0.16843 0.0
H763 H 0.8118 0.17288 0.19545 0.0
C764 C 0.88826 0.80876 0.20234 0.0
C765 C 0.87921 0.8071 0.18463 0.0
C766 C 0.87623 0.81246 0.21802 0.0
C767 C 0.82786 0.83704 0.2303 0.0
H768 H 0.84497 0.82094 0.27995 0.0
C769 C 0.81861 0.88946 0.29311 0.0
C770 C 0.81625 0.88118 0.31105 0.0
C771 C 0.82097 0.87664 0.27773 0.0
C772 C 0.83959 0.82529 0.26623 0.0
H773 H 0.85028 0.80657 0.16968 0.0
H774 H 0.82921 0.81285 0.19721 0.0
H775 H 0.85884 0.80311 0.25303 0.0
H776 H 0.81326 0.85291 0.32681 0.0
H777 H 0.81714 0.83048 0.29985 0.0
H778 H 0.80876 0.85935 0.24349 0.0
C779 C 0.84567 0.81169 0.19885 0.0
C780 C 0.84775 0.81523 0.25077 0.0
C781 C 0.85775 0.80805 0.18311 0.0
C782 C 0.81537 0.85977 0.31318 0.0
C783 C 0.8176 0.84692 0.29775 0.0
C784 C 0.81954 0.84697 0.24576 0.0
C785 C 0.85484 0.81445 0.21641 0.0
C786 C 0.84272 0.82164 0.23263 0.0
C787 C 0.82083 0.85521 0.2799 0.0
C788 C 0.82605 0.84186 0.26386 0.0
H789 H 0.90473 0.80796 0.20406 0.0
H790 H 0.88388 0.8148 0.23125 0.0
H791 H 0.82363 0.84241 0.21653 0.0
H792 H 0.81925 0.90588 0.29095 0.0
H793 H 0.82377 0.88359 0.26426 0.0
C794 C 0.15968 0.80825 0.3163 0.0
C795 C 0.1386 0.80569 0.31318 0.0
C796 C 0.17302 0.8106 0.30117 0.0
C797 C 0.18551 0.83713 0.2674 0.0
H798 H 0.18594 0.80615 0.22131 0.0
C799 C 0.18355 0.85456 0.18434 0.0
C800 C 0.19521 0.87258 0.18426 0.0
C801 C 0.18308 0.84213 0.20019 0.0
C802 C 0.18593 0.81507 0.23403 0.0
H803 H 0.11501 0.80176 0.29227 0.0
H804 H 0.13835 0.80517 0.26586 0.0
H805 H 0.17297 0.7903 0.24983 0.0
H806 H 0.21694 0.89097 0.19974 0.0
H807 H 0.21724 0.86868 0.22699 0.0
H808 H 0.1962 0.86258 0.25168 0.0
C809 C 0.1446 0.80556 0.27985 0.0
C810 C 0.17877 0.80585 0.25038 0.0
C811 C 0.13125 0.80379 0.29491 0.0
C812 C 0.20749 0.8773 0.1997 0.0
C813 C 0.20755 0.86456 0.21533 0.0
C814 C 0.19218 0.84651 0.25103 0.0
C815 C 0.16543 0.80979 0.28285 0.0
C816 C 0.17787 0.81707 0.26702 0.0
C817 C 0.19475 0.8472 0.21609 0.0
C818 C 0.19171 0.83588 0.23395 0.0
H819 H 0.16558 0.80986 0.33035 0.0
H820 H 0.18902 0.81402 0.30374 0.0
H821 H 0.18467 0.84619 0.28003 0.0
H822 H 0.17397 0.85065 0.17252 0.0
H823 H 0.17275 0.82916 0.20021 0.0
C824 C 0.87487 0.80304 0.79522 0.0
C825 C 0.86825 0.80479 0.81374 0.0
C826 C 0.8612 0.80633 0.78059 0.0
C827 C 0.82252 0.8411 0.76966 0.0
H828 H 0.81594 0.81007 0.724 0.0
C829 C 0.79767 0.88229 0.703 0.0
C830 C 0.80801 0.87639 0.68673 0.0
C831 C 0.7983 0.86989 0.71887 0.0
C832 C 0.81772 0.81902 0.73659 0.0
H833 H 0.84223 0.81046 0.83174 0.0
H834 H 0.81833 0.81727 0.80593 0.0
H835 H 0.82973 0.79331 0.75176 0.0
H836 H 0.82657 0.85277 0.67394 0.0
H837 H 0.82893 0.83181 0.70182 0.0
H838 H 0.81274 0.8673 0.75442 0.0
C839 C 0.83394 0.81275 0.80283 0.0
C840 C 0.82534 0.8093 0.75252 0.0
C841 C 0.84753 0.80886 0.81751 0.0
C842 C 0.81842 0.85761 0.68634 0.0
C843 C 0.81956 0.84548 0.70235 0.0
C844 C 0.8154 0.85095 0.75366 0.0
C845 C 0.84085 0.81198 0.78429 0.0
C846 C 0.82835 0.82045 0.76899 0.0
C847 C 0.80984 0.85163 0.71898 0.0
C848 C 0.8136 0.84024 0.7367 0.0
H849 H 0.89083 0.79995 0.79209 0.0
H850 H 0.86692 0.80595 0.76641 0.0
H851 H 0.825 0.85006 0.78217 0.0
H852 H 0.78922 0.89658 0.70348 0.0
H853 H 0.79011 0.87491 0.73116 0.0
C854 C 0.14444 0.8212 0.6832 0.0
C855 C 0.12658 0.80926 0.68351 0.0
C856 C 0.15574 0.82413 0.69949 0.0
C857 C 0.18036 0.82612 0.73495 0.0
H858 H 0.14573 0.83418 0.77826 0.0
C859 C 0.19483 0.88355 0.79435 0.0
C860 C 0.19041 0.87727 0.81265 0.0
C861 C 0.19144 0.87028 0.77942 0.0
C862 C 0.15569 0.8316 0.7664 0.0
H863 H 0.10745 0.78946 0.70037 0.0
H864 H 0.12776 0.79361 0.72863 0.0
H865 H 0.13121 0.81948 0.75027 0.0
H866 H 0.18009 0.85181 0.82978 0.0
H867 H 0.17369 0.82887 0.80358 0.0
H868 H 0.2044 0.84 0.75101 0.0
C869 C 0.13258 0.80156 0.71613 0.0
C870 C 0.14742 0.82305 0.75031 0.0
C871 C 0.12098 0.79909 0.69996 0.0
C872 C 0.1835 0.85715 0.81582 0.0
C873 C 0.17987 0.844 0.80088 0.0
C874 C 0.18854 0.83507 0.751 0.0
C875 C 0.14963 0.81477 0.7163 0.0
C876 C 0.15948 0.82068 0.73419 0.0
C877 C 0.18339 0.85062 0.78255 0.0
C878 C 0.17611 0.83828 0.76668 0.0
H879 H 0.14903 0.8292 0.67063 0.0
H880 H 0.16857 0.83464 0.69905 0.0
H881 H 0.19023 0.8241 0.72296 0.0
H882 H 0.2004 0.89888 0.79151 0.0
H883 H 0.19408 0.87577 0.76536 0.0
C884 C 0.17999 0.14385 0.68241 0.0
C885 C 0.192 0.12606 0.68332 0.0
C886 C 0.17713 0.15589 0.69827 0.0
C887 C 0.17911 0.15044 0.74948 0.0
H888 H 0.16286 0.20761 0.74785 0.0
C889 C 0.1482 0.1903 0.81428 0.0
C890 C 0.12796 0.1971 0.81155 0.0
C891 C 0.16074 0.186 0.79904 0.0
C892 C 0.16759 0.1917 0.74848 0.0
H893 H 0.21188 0.10771 0.70082 0.0
H894 H 0.20787 0.12929 0.72829 0.0
H895 H 0.17759 0.19159 0.72009 0.0
H896 H 0.10561 0.20645 0.7908 0.0
H897 H 0.12766 0.19897 0.76414 0.0
H898 H 0.169 0.15056 0.77779 0.0
C899 C 0.19981 0.13352 0.71566 0.0
C900 C 0.17586 0.18246 0.7326 0.0
C901 C 0.20221 0.12119 0.69994 0.0
C902 C 0.12105 0.20098 0.79333 0.0
C903 C 0.13371 0.19691 0.77808 0.0
C904 C 0.17124 0.15977 0.76539 0.0
C905 C 0.18663 0.15061 0.71524 0.0
C906 C 0.1811 0.16151 0.73273 0.0
C907 C 0.15338 0.18871 0.78083 0.0
C908 C 0.16487 0.18028 0.76487 0.0
H909 H 0.17194 0.14788 0.66971 0.0
H910 H 0.16664 0.16871 0.69738 0.0
H911 H 0.18251 0.13422 0.75015 0.0
H912 H 0.15406 0.18731 0.82815 0.0
H913 H 0.17591 0.17978 0.80146 0.0
C914 C 0.82131 0.15015 0.80974 0.0
C915 C 0.80921 0.13242 0.80933 0.0
C916 C 0.82317 0.16238 0.79383 0.0
C917 C 0.82322 0.1892 0.75972 0.0
H918 H 0.82591 0.15802 0.71379 0.0
C919 C 0.85083 0.19782 0.67802 0.0
C920 C 0.87196 0.20004 0.68112 0.0
C921 C 0.83757 0.19469 0.69309 0.0
C922 C 0.82474 0.16706 0.72641 0.0
H923 H 0.78815 0.11437 0.79277 0.0
H924 H 0.79025 0.13637 0.76538 0.0
H925 H 0.81289 0.14184 0.74176 0.0
H926 H 0.89572 0.20242 0.70209 0.0
H927 H 0.87246 0.1977 0.72844 0.0
H928 H 0.83725 0.21373 0.74435 0.0
C929 C 0.79922 0.14039 0.77754 0.0
C930 C 0.81719 0.15783 0.74254 0.0
C931 C 0.79787 0.12784 0.79325 0.0
C932 C 0.87946 0.20066 0.69943 0.0
C933 C 0.86617 0.19813 0.71446 0.0
C934 C 0.83127 0.19826 0.74363 0.0
C935 C 0.8125 0.15742 0.77734 0.0
C936 C 0.81696 0.16852 0.7596 0.0
C937 C 0.84526 0.19442 0.71138 0.0
C938 C 0.8326 0.18703 0.72702 0.0
H939 H 0.83023 0.15393 0.822 0.0
H940 H 0.83382 0.17508 0.79429 0.0
H941 H 0.82274 0.19818 0.77239 0.0
H942 H 0.8448 0.1972 0.66395 0.0
H943 H 0.8215 0.19167 0.69045 0.0
C944 C 0.66368 0.69715 0.67214 0.0
C945 C 0.64416 0.7049 0.67626 0.0
C946 C 0.67724 0.69231 0.6866 0.0
C947 C 0.68705 0.69629 0.73719 0.0
H948 H 0.69294 0.63722 0.73523 0.0
C949 C 0.68888 0.64716 0.80332 0.0
C950 C 0.69794 0.62767 0.803 0.0
C951 C 0.68856 0.65928 0.78727 0.0
C952 C 0.69211 0.65377 0.736 0.0
H953 H 0.62387 0.71525 0.69816 0.0
H954 H 0.64776 0.70749 0.72341 0.0
H955 H 0.68274 0.65577 0.7075 0.0
H956 H 0.71505 0.60608 0.78616 0.0
H957 H 0.7154 0.62758 0.75836 0.0
H958 H 0.69609 0.69433 0.76579 0.0
C959 C 0.65267 0.70509 0.70915 0.0
C960 C 0.68621 0.66441 0.72 0.0
C961 C 0.63899 0.70947 0.69475 0.0
C962 C 0.70761 0.62092 0.78664 0.0
C963 C 0.70773 0.63325 0.77071 0.0
C964 C 0.69337 0.6857 0.75315 0.0
C965 C 0.6715 0.69555 0.70526 0.0
C966 C 0.68283 0.68563 0.72066 0.0
C967 C 0.69772 0.65237 0.77063 0.0
C968 C 0.69508 0.66417 0.75298 0.0
H969 H 0.66776 0.69325 0.65793 0.0
H970 H 0.69165 0.68488 0.68332 0.0
H971 H 0.6846 0.71269 0.73799 0.0
H972 H 0.6813 0.65271 0.81577 0.0
H973 H 0.68034 0.67368 0.78779 0.0
C974 C 0.35747 0.68512 0.80569 0.0
C975 C 0.37574 0.69643 0.80579 0.0
C976 C 0.34561 0.68396 0.78949 0.0
C977 C 0.35173 0.69007 0.73838 0.0
H978 H 0.29443 0.67432 0.73878 0.0
C979 C 0.3132 0.65896 0.67261 0.0
C980 C 0.30804 0.6384 0.67589 0.0
C981 C 0.31641 0.67224 0.68766 0.0
C982 C 0.31034 0.67908 0.73844 0.0
H983 H 0.39517 0.71676 0.78975 0.0
H984 H 0.37397 0.71576 0.76183 0.0
H985 H 0.31033 0.68711 0.76733 0.0
H986 H 0.30054 0.61586 0.69695 0.0
H987 H 0.30542 0.63915 0.72317 0.0
H988 H 0.35172 0.68173 0.70956 0.0
C989 C 0.36918 0.70692 0.77385 0.0
C990 C 0.31956 0.68615 0.75482 0.0
C991 C 0.3813 0.70761 0.78987 0.0
C992 C 0.30446 0.63171 0.69418 0.0
C993 C 0.30714 0.64506 0.70913 0.0
C994 C 0.3424 0.68343 0.72197 0.0
C995 C 0.35154 0.69451 0.77319 0.0
C996 C 0.34063 0.69089 0.75521 0.0
C997 C 0.31397 0.66518 0.70606 0.0
C998 C 0.32187 0.6771 0.72203 0.0
H999 H 0.35289 0.67635 0.81783 0.0
H1000 H 0.33237 0.67398 0.78957 0.0
H1001 H 0.36801 0.69323 0.738 0.0
H1002 H 0.31621 0.66432 0.65858 0.0
H1003 H 0.32177 0.68768 0.685 0.0
C1004 C 0.37509 0.30222 0.6985 0.0
C1005 C 0.3683 0.30473 0.68009 0.0
C1006 C 0.36179 0.30571 0.71335 0.0
C1007 C 0.324 0.34155 0.72518 0.0
H1008 H 0.31793 0.3102 0.77078 0.0
C1009 C 0.29889 0.38199 0.79213 0.0
C1010 C 0.30913 0.37605 0.80845 0.0
C1011 C 0.29984 0.36979 0.77617 0.0
C1012 C 0.31958 0.31925 0.75821 0.0
H1013 H 0.34229 0.3119 0.66252 0.0
H1014 H 0.31905 0.31899 0.68874 0.0
H1015 H 0.33116 0.29356 0.74276 0.0
H1016 H 0.32788 0.35254 0.82122 0.0
H1017 H 0.33077 0.3319 0.79315 0.0
H1018 H 0.31454 0.36767 0.74067 0.0
C1019 C 0.33451 0.31378 0.69158 0.0
C1020 C 0.32689 0.3096 0.74213 0.0
C1021 C 0.34772 0.30972 0.67665 0.0
C1022 C 0.31981 0.35741 0.80878 0.0
C1023 C 0.32126 0.34548 0.79267 0.0
C1024 C 0.31717 0.35131 0.74131 0.0
C1025 C 0.34164 0.3123 0.71002 0.0
C1026 C 0.32967 0.32083 0.72565 0.0
C1027 C 0.3116 0.35169 0.77601 0.0
C1028 C 0.31548 0.34046 0.75824 0.0
H1029 H 0.39095 0.29841 0.70138 0.0
H1030 H 0.36769 0.30473 0.72745 0.0
H1031 H 0.32633 0.3506 0.71268 0.0
H1032 H 0.29025 0.39618 0.79167 0.0
H1033 H 0.29168 0.37485 0.76385 0.0
C1034 C 0.70754 0.37424 0.6953 0.0
C1035 C 0.69511 0.37152 0.67957 0.0
C1036 C 0.7055 0.36126 0.71063 0.0
C1037 C 0.68532 0.34632 0.74532 0.0
H1038 H 0.66031 0.29242 0.74399 0.0
C1039 C 0.64935 0.31226 0.81053 0.0
C1040 C 0.62829 0.3086 0.80795 0.0
C1041 C 0.66232 0.31433 0.79522 0.0
C1042 C 0.66752 0.30737 0.74454 0.0
H1043 H 0.67166 0.3527 0.66685 0.0
H1044 H 0.66696 0.33089 0.69402 0.0
H1045 H 0.67628 0.30629 0.71583 0.0
H1046 H 0.60465 0.30253 0.78739 0.0
H1047 H 0.62741 0.30631 0.76058 0.0
H1048 H 0.67631 0.34752 0.77388 0.0
C1049 C 0.67888 0.34241 0.69446 0.0
C1050 C 0.67653 0.31539 0.72844 0.0
C1051 C 0.68139 0.35503 0.67891 0.0
C1052 C 0.62075 0.30565 0.7898 0.0
C1053 C 0.6338 0.30756 0.77448 0.0
C1054 C 0.6767 0.33815 0.76142 0.0
C1055 C 0.69044 0.34581 0.71076 0.0
C1056 C 0.68481 0.33533 0.72845 0.0
C1057 C 0.65454 0.31256 0.77707 0.0
C1058 C 0.66708 0.31896 0.761 0.0
H1059 H 0.71852 0.38669 0.69589 0.0
H1060 H 0.71515 0.36393 0.72267 0.0
H1061 H 0.69112 0.36185 0.74594 0.0
H1062 H 0.65571 0.31435 0.82435 0.0
H1063 H 0.6783 0.31811 0.79753 0.0
C1064 C 0.30756 0.38439 0.20354 0.0
C1065 C 0.30866 0.37557 0.18571 0.0
C1066 C 0.30914 0.37224 0.21946 0.0
C1067 C 0.33202 0.32403 0.23497 0.0
H1068 H 0.30755 0.34082 0.28181 0.0
C1069 C 0.3627 0.29663 0.30655 0.0
C1070 C 0.37 0.31382 0.31625 0.0
C1071 C 0.34936 0.29921 0.2914 0.0
C1072 C 0.31422 0.33569 0.26879 0.0
H1073 H 0.31117 0.34685 0.17064 0.0
H1074 H 0.31384 0.32553 0.19859 0.0
H1075 H 0.29406 0.35438 0.25254 0.0
H1076 H 0.36842 0.34684 0.31877 0.0
H1077 H 0.34468 0.35131 0.29282 0.0
H1078 H 0.35271 0.30599 0.25141 0.0
C1079 C 0.31203 0.34194 0.20018 0.0
C1080 C 0.30664 0.34355 0.25205 0.0
C1081 C 0.31047 0.35415 0.18418 0.0
C1082 C 0.36295 0.3334 0.31141 0.0
C1083 C 0.34929 0.33592 0.29668 0.0
C1084 C 0.33944 0.31598 0.25173 0.0
C1085 C 0.31174 0.3509 0.21801 0.0
C1086 C 0.31618 0.33868 0.23503 0.0
C1087 C 0.34278 0.31894 0.28624 0.0
C1088 C 0.33126 0.32256 0.2688 0.0
H1089 H 0.30604 0.40081 0.20527 0.0
H1090 H 0.30922 0.37977 0.23291 0.0
H1091 H 0.3398 0.31999 0.22215 0.0
H1092 H 0.36812 0.28141 0.31006 0.0
H1093 H 0.34461 0.28593 0.28344 0.0
C1094 C 0.64153 0.32084 0.18259 0.0
C1095 C 0.62311 0.30979 0.1832 0.0
C1096 C 0.65275 0.32416 0.19886 0.0
C1097 C 0.6776 0.32588 0.23416 0.0
H1098 H 0.64412 0.33771 0.2775 0.0
C1099 C 0.6842 0.3584 0.31434 0.0
C1100 C 0.69217 0.37803 0.31071 0.0
C1101 C 0.67948 0.34521 0.29967 0.0
C1102 C 0.65373 0.33407 0.26563 0.0
H1103 H 0.6027 0.29214 0.20079 0.0
H1104 H 0.62279 0.29699 0.22909 0.0
H1105 H 0.62825 0.32337 0.24991 0.0
H1106 H 0.70296 0.39862 0.28907 0.0
H1107 H 0.69486 0.37538 0.26342 0.0
H1108 H 0.70278 0.33832 0.24974 0.0
C1109 C 0.62817 0.30393 0.21628 0.0
C1110 C 0.64467 0.32574 0.24978 0.0
C1111 C 0.61669 0.30106 0.20009 0.0
C1112 C 0.69662 0.38367 0.29225 0.0
C1113 C 0.69218 0.37032 0.2776 0.0
C1114 C 0.68659 0.33462 0.24995 0.0
C1115 C 0.64601 0.31607 0.21601 0.0
C1116 C 0.65637 0.32199 0.23366 0.0
C1117 C 0.683 0.35127 0.28119 0.0
C1118 C 0.67461 0.33915 0.26563 0.0
H1119 H 0.64677 0.32775 0.1697 0.0
H1120 H 0.66618 0.33387 0.19807 0.0
H1121 H 0.6872 0.32275 0.22219 0.0
H1122 H 0.68069 0.35359 0.32844 0.0
H1123 H 0.67242 0.33055 0.30271 0.0
C1124 C 0.70152 0.61403 0.19808 0.0
C1125 C 0.69209 0.62102 0.18169 0.0
C1126 C 0.69959 0.6251 0.21462 0.0
C1127 C 0.6793 0.67429 0.2345 0.0
H1128 H 0.66844 0.6397 0.27737 0.0
C1129 C 0.62418 0.69348 0.29446 0.0
C1130 C 0.63024 0.68867 0.31273 0.0
C1131 C 0.63685 0.68869 0.27942 0.0
C1132 C 0.67183 0.64961 0.26563 0.0
H1133 H 0.67396 0.64535 0.16941 0.0
H1134 H 0.66958 0.66412 0.1984 0.0
H1135 H 0.68145 0.62443 0.24893 0.0
H1136 H 0.65462 0.67588 0.32973 0.0
H1137 H 0.67653 0.66692 0.30326 0.0
H1138 H 0.66799 0.69919 0.25109 0.0
C1139 C 0.67906 0.6505 0.19853 0.0
C1140 C 0.67939 0.64089 0.24929 0.0
C1141 C 0.6814 0.63966 0.18189 0.0
C1142 C 0.64956 0.67973 0.31577 0.0
C1143 C 0.66208 0.6746 0.30068 0.0
C1144 C 0.67137 0.68294 0.25079 0.0
C1145 C 0.68775 0.64312 0.21521 0.0
C1146 C 0.68273 0.65302 0.23333 0.0
C1147 C 0.65565 0.67873 0.28238 0.0
C1148 C 0.66715 0.67056 0.26632 0.0
H1149 H 0.71016 0.59984 0.19817 0.0
H1150 H 0.70698 0.61922 0.22704 0.0
H1151 H 0.68215 0.68419 0.22266 0.0
H1152 H 0.60944 0.70054 0.29174 0.0
H1153 H 0.63148 0.69183 0.26541 0.0
C1154 C 0.30884 0.65521 0.30819 0.0
C1155 C 0.30607 0.63399 0.30588 0.0
C1156 C 0.30978 0.66817 0.29263 0.0
C1157 C 0.30141 0.66914 0.24099 0.0
H1158 H 0.34976 0.70369 0.24075 0.0
C1159 C 0.3575 0.67601 0.18122 0.0
C1160 C 0.36466 0.69531 0.17565 0.0
C1161 C 0.34407 0.67424 0.19621 0.0
C1162 C 0.33587 0.69458 0.24071 0.0
H1163 H 0.30087 0.60993 0.28553 0.0
H1164 H 0.30297 0.6322 0.25866 0.0
H1165 H 0.3372 0.6898 0.27016 0.0
H1166 H 0.36326 0.72797 0.18085 0.0
H1167 H 0.34029 0.72474 0.20801 0.0
H1168 H 0.30144 0.67237 0.21126 0.0
C1169 C 0.30416 0.63905 0.27237 0.0
C1170 C 0.32864 0.68661 0.25756 0.0
C1171 C 0.30323 0.62617 0.28783 0.0
C1172 C 0.35776 0.71295 0.18494 0.0
C1173 C 0.34471 0.71112 0.20037 0.0
C1174 C 0.30883 0.67686 0.22415 0.0
C1175 C 0.30785 0.66015 0.27451 0.0
C1176 C 0.31197 0.67291 0.25775 0.0
C1177 C 0.33795 0.69169 0.20619 0.0
C1178 C 0.32667 0.68885 0.22382 0.0
H1179 H 0.3109 0.66174 0.32194 0.0
H1180 H 0.31246 0.68438 0.29476 0.0
H1181 H 0.2882 0.65909 0.24072 0.0
H1182 H 0.36263 0.66224 0.17419 0.0
H1183 H 0.33929 0.65908 0.20061 0.0
C1184 C 0.23759 0.36905 0.14806 0.0
C1185 C 0.23947 0.38579 0.13583 0.0
C1186 C 0.2194 0.35789 0.14905 0.0
C1187 C 0.17501 0.34311 0.12115 0.0
H1188 H 0.15652 0.32039 0.16821 0.0
C1189 C 0.1115 0.28048 0.12599 0.0
C1190 C 0.11729 0.26355 0.13696 0.0
C1191 C 0.12296 0.29869 0.12652 0.0
C1192 C 0.16145 0.32664 0.15495 0.0
H1193 H 0.22345 0.40426 0.11535 0.0
H1194 H 0.19146 0.38446 0.11697 0.0
H1195 H 0.18285 0.3469 0.16802 0.0
H1196 H 0.13911 0.25277 0.15759 0.0
H1197 H 0.15883 0.28429 0.15856 0.0
H1198 H 0.15407 0.32223 0.10808 0.0
C1199 C 0.2042 0.38007 0.12578 0.0
C1200 C 0.17653 0.34183 0.15484 0.0
C1201 C 0.22245 0.39146 0.12494 0.0
C1202 C 0.13428 0.26547 0.14889 0.0
C1203 C 0.14551 0.28363 0.14957 0.0
C1204 C 0.15986 0.32787 0.12127 0.0
C1205 C 0.20256 0.36304 0.13776 0.0
C1206 C 0.18402 0.34974 0.13792 0.0
C1207 C 0.14018 0.30039 0.13824 0.0
C1208 C 0.15344 0.31897 0.13815 0.0
H1209 H 0.25036 0.36431 0.15672 0.0
H1210 H 0.21881 0.34472 0.15824 0.0
H1211 H 0.18052 0.3488 0.10788 0.0
H1212 H 0.09851 0.27946 0.11664 0.0
H1213 H 0.11844 0.31138 0.11768 0.0
C1214 C 0.61285 0.21876 0.1266 0.0
C1215 C 0.61859 0.23664 0.13625 0.0
C1216 C 0.62494 0.20101 0.12765 0.0
C1217 C 0.66586 0.17618 0.1557 0.0
H1218 H 0.68157 0.15021 0.10924 0.0
C1219 C 0.74063 0.13116 0.14792 0.0
C1220 C 0.74148 0.11379 0.13635 0.0
C1221 C 0.72283 0.14291 0.14911 0.0
C1222 C 0.67704 0.15698 0.12239 0.0
H1223 H 0.64113 0.24957 0.15512 0.0
H1224 H 0.66202 0.21879 0.15701 0.0
H1225 H 0.65523 0.17685 0.10918 0.0
H1226 H 0.72396 0.09481 0.11735 0.0
H1227 H 0.69263 0.11553 0.11941 0.0
H1228 H 0.68801 0.15677 0.16886 0.0
C1229 C 0.6482 0.21839 0.14864 0.0
C1230 C 0.66195 0.17228 0.12235 0.0
C1231 C 0.63628 0.23612 0.14745 0.0
C1232 C 0.72379 0.10809 0.1264 0.0
C1233 C 0.70591 0.12003 0.12749 0.0
C1234 C 0.68088 0.1609 0.15574 0.0
C1235 C 0.64286 0.20069 0.13859 0.0
C1236 C 0.65662 0.18247 0.13894 0.0
C1237 C 0.70531 0.13771 0.13873 0.0
C1238 C 0.68711 0.15154 0.13902 0.0
H1239 H 0.59933 0.21864 0.11782 0.0
H1240 H 0.62035 0.18758 0.11984 0.0
H1241 H 0.66182 0.18343 0.16877 0.0
H1242 H 0.75392 0.13597 0.15585 0.0
H1243 H 0.72307 0.15656 0.1577 0.0
C1244 C 0.77858 0.60905 0.121 0.0
C1245 C 0.76119 0.6146 0.13145 0.0
C1246 C 0.7967 0.62062 0.1222 0.0
C1247 C 0.8233 0.65902 0.15191 0.0
H1248 H 0.84857 0.67738 0.10592 0.0
C1249 C 0.86923 0.73361 0.14724 0.0
C1250 C 0.88652 0.73486 0.1356 0.0
C1251 C 0.8572 0.71593 0.14768 0.0
C1252 C 0.84198 0.6721 0.11892 0.0
H1253 H 0.74951 0.63622 0.15183 0.0
H1254 H 0.78082 0.65615 0.15392 0.0
H1255 H 0.82146 0.65152 0.10492 0.0
H1256 H 0.90504 0.71818 0.11562 0.0
H1257 H 0.88381 0.68711 0.11633 0.0
H1258 H 0.8433 0.67998 0.16587 0.0
C1259 C 0.78061 0.64289 0.14483 0.0
C1260 C 0.82642 0.65727 0.11834 0.0
C1261 C 0.76255 0.63153 0.14351 0.0
C1262 C 0.89185 0.71768 0.12478 0.0
C1263 C 0.87961 0.69996 0.12508 0.0
C1264 C 0.83881 0.67378 0.15248 0.0
C1265 C 0.79786 0.63777 0.13407 0.0
C1266 C 0.81647 0.65102 0.13479 0.0
C1267 C 0.86201 0.69898 0.13642 0.0
C1268 C 0.84791 0.68098 0.13596 0.0
H1269 H 0.77803 0.59612 0.11156 0.0
H1270 H 0.80976 0.61621 0.11379 0.0
H1271 H 0.81626 0.65423 0.16487 0.0
H1272 H 0.8647 0.7465 0.15581 0.0
H1273 H 0.84363 0.71586 0.15639 0.0
C1274 C 0.28217 0.89378 0.13041 0.0
C1275 C 0.26393 0.88574 0.13789 0.0
C1276 C 0.30057 0.88264 0.13156 0.0
C1277 C 0.3243 0.83789 0.15612 0.0
H1278 H 0.35642 0.83171 0.11098 0.0
C1279 C 0.36497 0.76438 0.13429 0.0
C1280 C 0.38629 0.7651 0.13157 0.0
C1281 C 0.35376 0.78232 0.1369 0.0
C1282 C 0.34785 0.83364 0.12379 0.0
H1283 H 0.25097 0.85996 0.15303 0.0
H1284 H 0.2825 0.84068 0.15474 0.0
H1285 H 0.3295 0.85789 0.11242 0.0
H1286 H 0.41261 0.78522 0.12941 0.0
H1287 H 0.39257 0.81704 0.13332 0.0
H1288 H 0.34159 0.81258 0.1669 0.0
C1289 C 0.28289 0.85564 0.14819 0.0
C1290 C 0.33245 0.84863 0.12466 0.0
C1291 C 0.26465 0.86667 0.14701 0.0
C1292 C 0.3962 0.78425 0.1315 0.0
C1293 C 0.3848 0.80238 0.13368 0.0
C1294 C 0.33943 0.8228 0.15514 0.0
C1295 C 0.30109 0.86333 0.14037 0.0
C1296 C 0.31996 0.8504 0.1406 0.0
C1297 C 0.36349 0.80147 0.13649 0.0
C1298 C 0.3509 0.82014 0.13879 0.0
H1299 H 0.28215 0.90844 0.12331 0.0
H1300 H 0.31433 0.88907 0.12548 0.0
H1301 H 0.31536 0.83915 0.16879 0.0
H1302 H 0.35692 0.74986 0.13458 0.0
H1303 H 0.33733 0.78127 0.13898 0.0
C1304 C 0.13383 0.73797 0.37615 0.0
C1305 C 0.11713 0.74121 0.36409 0.0
C1306 C 0.14489 0.71967 0.37564 0.0
C1307 C 0.16096 0.6761 0.37735 0.0
H1308 H 0.1801 0.65935 0.32853 0.0
C1309 C 0.22268 0.61288 0.3681 0.0
C1310 C 0.23912 0.61913 0.35677 0.0
C1311 C 0.20431 0.6241 0.36829 0.0
C1312 C 0.17477 0.66372 0.34226 0.0
H1313 H 0.09868 0.72747 0.34229 0.0
H1314 H 0.11832 0.69538 0.34123 0.0
H1315 H 0.15395 0.68599 0.33111 0.0
H1316 H 0.24876 0.64134 0.33602 0.0
H1317 H 0.21694 0.66066 0.33627 0.0
H1318 H 0.18247 0.65453 0.38854 0.0
C1319 C 0.12273 0.70711 0.35112 0.0
C1320 C 0.15965 0.67886 0.34373 0.0
C1321 C 0.11143 0.72542 0.35179 0.0
C1322 C 0.23645 0.63619 0.34502 0.0
C1323 C 0.21811 0.64718 0.34503 0.0
C1324 C 0.17598 0.66086 0.37588 0.0
C1325 C 0.13971 0.70414 0.36294 0.0
C1326 C 0.15305 0.68569 0.36131 0.0
C1327 C 0.20195 0.64156 0.35692 0.0
C1328 C 0.18354 0.65497 0.35834 0.0
H1329 H 0.13861 0.74976 0.38585 0.0
H1330 H 0.15803 0.71804 0.38476 0.0
H1331 H 0.15602 0.68086 0.3911 0.0
H1332 H 0.22428 0.59982 0.37732 0.0
H1333 H 0.19208 0.61933 0.37754 0.0
C1334 C 0.37187 0.24207 0.3732 0.0
C1335 C 0.39025 0.24365 0.36305 0.0
C1336 C 0.35929 0.22499 0.37137 0.0
C1337 C 0.35537 0.17127 0.35835 0.0
H1338 H 0.29818 0.18595 0.35174 0.0
C1339 C 0.28436 0.11463 0.3518 0.0
C1340 C 0.26824 0.12015 0.36385 0.0
C1341 C 0.30164 0.12739 0.34991 0.0
C1342 C 0.3141 0.18157 0.35349 0.0
H1343 H 0.41024 0.22788 0.34363 0.0
H1344 H 0.38792 0.19759 0.34048 0.0
H1345 H 0.32425 0.2126 0.3514 0.0
H1346 H 0.25835 0.14268 0.38426 0.0
H1347 H 0.28806 0.16459 0.3809 0.0
H1348 H 0.3448 0.14011 0.36098 0.0
C1349 C 0.38344 0.20983 0.34981 0.0
C1350 C 0.32901 0.19682 0.35332 0.0
C1351 C 0.39617 0.22714 0.35161 0.0
C1352 C 0.27026 0.13803 0.37462 0.0
C1353 C 0.2873 0.15067 0.3727 0.0
C1354 C 0.34029 0.15585 0.35849 0.0
C1355 C 0.36461 0.20891 0.35933 0.0
C1356 C 0.34971 0.19198 0.35642 0.0
C1357 C 0.30289 0.14584 0.35997 0.0
C1358 C 0.31945 0.16103 0.35673 0.0
H1359 H 0.36689 0.25428 0.38236 0.0
H1360 H 0.3451 0.22451 0.37922 0.0
H1361 H 0.37123 0.16713 0.36073 0.0
H1362 H 0.28327 0.10094 0.34332 0.0
H1363 H 0.31352 0.12332 0.34005 0.0
C1364 C 0.8703 0.26978 0.34662 0.0
C1365 C 0.88758 0.26842 0.35827 0.0
C1366 C 0.85893 0.28783 0.34554 0.0
C1367 C 0.84515 0.33333 0.37246 0.0
H1368 H 0.82026 0.34968 0.32564 0.0
C1369 C 0.78267 0.39708 0.36723 0.0
C1370 C 0.76517 0.39085 0.35726 0.0
C1371 C 0.80074 0.38539 0.36657 0.0
C1372 C 0.82711 0.34536 0.33882 0.0
H1373 H 0.90675 0.28524 0.37763 0.0
H1374 H 0.88661 0.31701 0.37584 0.0
H1375 H 0.84682 0.3234 0.32582 0.0
H1376 H 0.7532 0.36795 0.33824 0.0
H1377 H 0.7845 0.34785 0.33698 0.0
H1378 H 0.82487 0.3549 0.38549 0.0
C1379 C 0.88194 0.30395 0.36756 0.0
C1380 C 0.84233 0.33029 0.33894 0.0
C1381 C 0.89353 0.28582 0.3685 0.0
C1382 C 0.76635 0.37314 0.34616 0.0
C1383 C 0.78438 0.36168 0.34532 0.0
C1384 C 0.8299 0.34849 0.37234 0.0
C1385 C 0.86442 0.30508 0.35614 0.0
C1386 C 0.85103 0.32358 0.35581 0.0
C1387 C 0.80172 0.3675 0.35566 0.0
C1388 C 0.82023 0.35415 0.35557 0.0
H1389 H 0.86531 0.25673 0.33846 0.0
H1390 H 0.84537 0.28802 0.33682 0.0
H1391 H 0.85146 0.32844 0.3857 0.0
H1392 H 0.78224 0.41062 0.37594 0.0
H1393 H 0.81389 0.39029 0.37463 0.0
C1394 C 0.61483 0.78343 0.3645 0.0
C1395 C 0.62117 0.76512 0.35591 0.0
C1396 C 0.62711 0.80105 0.36354 0.0
C1397 C 0.67039 0.82423 0.33736 0.0
H1398 H 0.68294 0.85188 0.38382 0.0
C1399 C 0.74494 0.86885 0.34817 0.0
C1400 C 0.7449 0.88698 0.35876 0.0
C1401 C 0.72726 0.85696 0.34654 0.0
C1402 C 0.67932 0.84461 0.37065 0.0
H1403 H 0.64496 0.75122 0.33898 0.0
H1404 H 0.66618 0.78174 0.33729 0.0
H1405 H 0.6562 0.82565 0.38307 0.0
H1406 H 0.726 0.90703 0.37566 0.0
H1407 H 0.69495 0.88607 0.37286 0.0
H1408 H 0.69386 0.8427 0.32503 0.0
C1409 C 0.65176 0.7826 0.34473 0.0
C1410 C 0.66399 0.82958 0.37022 0.0
C1411 C 0.63964 0.76502 0.34582 0.0
C1412 C 0.72655 0.89315 0.36741 0.0
C1413 C 0.70881 0.8811 0.36589 0.0
C1414 C 0.68566 0.83923 0.33778 0.0
C1415 C 0.64581 0.80076 0.35377 0.0
C1416 C 0.65978 0.8188 0.35368 0.0
C1417 C 0.70901 0.86281 0.3555 0.0
C1418 C 0.69074 0.84917 0.35454 0.0
H1419 H 0.60069 0.78401 0.37239 0.0
H1420 H 0.62206 0.81485 0.37056 0.0
H1421 H 0.66723 0.81651 0.32431 0.0
H1422 H 0.75875 0.86365 0.34124 0.0
H1423 H 0.72808 0.84283 0.33867 0.0
C1424 C 0.78251 0.61103 0.86471 0.0
C1425 C 0.76579 0.61744 0.85378 0.0
C1426 C 0.80076 0.6224 0.86492 0.0
C1427 C 0.82958 0.66311 0.83965 0.0
H1428 H 0.84985 0.67766 0.88869 0.0
C1429 C 0.87294 0.73489 0.87551 0.0
C1430 C 0.88948 0.73826 0.86332 0.0
C1431 C 0.86141 0.71691 0.87449 0.0
C1432 C 0.84447 0.67363 0.87488 0.0
H1433 H 0.75556 0.6402 0.83375 0.0
H1434 H 0.78722 0.65985 0.83409 0.0
H1435 H 0.82298 0.65185 0.88568 0.0
H1436 H 0.90718 0.7251 0.84074 0.0
H1437 H 0.88672 0.69357 0.83878 0.0
H1438 H 0.85047 0.68557 0.82893 0.0
C1439 C 0.78632 0.64609 0.8425 0.0
C1440 C 0.8292 0.6587 0.87314 0.0
C1441 C 0.76808 0.63489 0.84244 0.0
C1442 C 0.89457 0.72291 0.85037 0.0
C1443 C 0.8828 0.70494 0.84918 0.0
C1444 C 0.84496 0.67795 0.84138 0.0
C1445 C 0.80276 0.64024 0.85401 0.0
C1446 C 0.82114 0.65369 0.85555 0.0
C1447 C 0.86595 0.70186 0.86113 0.0
C1448 C 0.85215 0.68382 0.85906 0.0
H1449 H 0.78126 0.59766 0.8736 0.0
H1450 H 0.8132 0.61741 0.87383 0.0
H1451 H 0.82386 0.65942 0.82587 0.0
H1452 H 0.86862 0.74635 0.88571 0.0
H1453 H 0.84841 0.71518 0.88375 0.0
C1454 C 0.3679 0.76581 0.84426 0.0
C1455 C 0.38553 0.76453 0.85548 0.0
C1456 C 0.35617 0.78367 0.84377 0.0
C1457 C 0.34268 0.82858 0.8718 0.0
H1458 H 0.31563 0.84524 0.82607 0.0
C1459 C 0.2802 0.89255 0.86916 0.0
C1460 C 0.26229 0.88663 0.85965 0.0
C1461 C 0.29809 0.88066 0.86791 0.0
C1462 C 0.32308 0.84081 0.83896 0.0
H1463 H 0.40495 0.78134 0.87464 0.0
H1464 H 0.38425 0.81277 0.87382 0.0
H1465 H 0.34239 0.81919 0.82505 0.0
H1466 H 0.24936 0.86395 0.84091 0.0
H1467 H 0.28036 0.84348 0.83866 0.0
H1468 H 0.32286 0.84988 0.88575 0.0
C1469 C 0.37955 0.79978 0.86546 0.0
C1470 C 0.33841 0.82587 0.83838 0.0
C1471 C 0.39147 0.78184 0.86584 0.0
C1472 C 0.26284 0.86894 0.84849 0.0
C1473 C 0.28069 0.85726 0.84707 0.0
C1474 C 0.32733 0.84362 0.87237 0.0
C1475 C 0.36165 0.80081 0.85452 0.0
C1476 C 0.34793 0.81907 0.85486 0.0
C1477 C 0.29848 0.86284 0.85688 0.0
C1478 C 0.31691 0.84941 0.85602 0.0
H1479 H 0.3629 0.75282 0.83603 0.0
H1480 H 0.34235 0.78376 0.83539 0.0
H1481 H 0.34961 0.82362 0.88476 0.0
H1482 H 0.28027 0.90609 0.87789 0.0
H1483 H 0.3116 0.88538 0.87557 0.0
C1484 C 0.13421 0.26836 0.84902 0.0
C1485 C 0.1173 0.26685 0.86108 0.0
C1486 C 0.14536 0.28652 0.84767 0.0
C1487 C 0.15993 0.33171 0.87431 0.0
H1488 H 0.18208 0.34913 0.82669 0.0
C1489 C 0.22274 0.39466 0.86808 0.0
C1490 C 0.23956 0.38852 0.85716 0.0
C1491 C 0.20439 0.38344 0.86771 0.0
C1492 C 0.17599 0.34451 0.8401 0.0
H1493 H 0.09858 0.28345 0.88096 0.0
H1494 H 0.11842 0.31538 0.87877 0.0
H1495 H 0.15569 0.3227 0.82766 0.0
H1496 H 0.24997 0.36642 0.83666 0.0
H1497 H 0.2182 0.34709 0.83595 0.0
H1498 H 0.18091 0.35298 0.88678 0.0
C1499 C 0.12292 0.30237 0.87034 0.0
C1500 C 0.16087 0.32938 0.84065 0.0
C1501 C 0.11153 0.28416 0.87152 0.0
C1502 C 0.23736 0.37151 0.84532 0.0
C1503 C 0.21905 0.36051 0.8448 0.0
C1504 C 0.17513 0.34689 0.87376 0.0
C1505 C 0.14003 0.30368 0.85844 0.0
C1506 C 0.15319 0.32228 0.85779 0.0
C1507 C 0.20244 0.36611 0.85618 0.0
C1508 C 0.18383 0.35293 0.85667 0.0
H1509 H 0.13902 0.25537 0.84069 0.0
H1510 H 0.15861 0.28689 0.83858 0.0
H1511 H 0.15439 0.3265 0.88774 0.0
H1512 H 0.22398 0.40768 0.87738 0.0
H1513 H 0.19181 0.38819 0.87657 0.0
C1514 C 0.61209 0.2228 0.86808 0.0
C1515 C 0.61805 0.23989 0.85741 0.0
C1516 C 0.62339 0.20451 0.86727 0.0
C1517 C 0.66159 0.17673 0.83851 0.0
H1518 H 0.68081 0.15405 0.88535 0.0
C1519 C 0.73787 0.13473 0.84503 0.0
C1520 C 0.73992 0.11795 0.85718 0.0
C1521 C 0.71956 0.14568 0.84407 0.0
C1522 C 0.67524 0.15987 0.87214 0.0
H1523 H 0.63998 0.25092 0.83699 0.0
H1524 H 0.65943 0.21923 0.83552 0.0
H1525 H 0.65443 0.18069 0.88545 0.0
H1526 H 0.72409 0.09911 0.87749 0.0
H1527 H 0.69187 0.11855 0.87594 0.0
H1528 H 0.68289 0.15655 0.82522 0.0
C1529 C 0.6461 0.21983 0.8445 0.0
C1530 C 0.66014 0.17515 0.8722 0.0
C1531 C 0.63503 0.23809 0.84547 0.0
C1532 C 0.72296 0.11196 0.86798 0.0
C1533 C 0.70458 0.12314 0.86717 0.0
C1534 C 0.67662 0.16149 0.83845 0.0
C1535 C 0.6406 0.20291 0.85554 0.0
C1536 C 0.6537 0.18425 0.85541 0.0
C1537 C 0.70278 0.14025 0.8553 0.0
C1538 C 0.68416 0.15342 0.85529 0.0
H1539 H 0.59909 0.22373 0.87743 0.0
H1540 H 0.61875 0.19169 0.87589 0.0
H1541 H 0.65664 0.18316 0.82533 0.0
H1542 H 0.7506 0.13967 0.83642 0.0
H1543 H 0.71884 0.15892 0.83497 0.0
C1544 C 0.76332 0.36449 0.63929 0.0
C1545 C 0.76342 0.38449 0.63194 0.0
C1546 C 0.78142 0.35334 0.64106 0.0
C1547 C 0.8337 0.34828 0.62265 0.0
H1548 H 0.83866 0.31113 0.66467 0.0
C1549 C 0.89815 0.28554 0.63243 0.0
C1550 C 0.88912 0.26598 0.63331 0.0
C1551 C 0.88591 0.30324 0.63376 0.0
C1552 C 0.83763 0.3216 0.65297 0.0
H1553 H 0.78292 0.40844 0.62076 0.0
H1554 H 0.81485 0.38875 0.62389 0.0
H1555 H 0.81153 0.33683 0.66445 0.0
H1556 H 0.86044 0.24962 0.63688 0.0
H1557 H 0.83943 0.28023 0.63974 0.0
H1558 H 0.85969 0.33246 0.61108 0.0
C1559 C 0.80055 0.38179 0.6282 0.0
C1560 C 0.82202 0.33623 0.65275 0.0
C1561 C 0.78228 0.39308 0.62646 0.0
C1562 C 0.86784 0.26446 0.63601 0.0
C1563 C 0.8558 0.28198 0.63775 0.0
C1564 C 0.84953 0.3337 0.62297 0.0
C1565 C 0.80031 0.36179 0.63561 0.0
C1566 C 0.81929 0.34917 0.63724 0.0
C1567 C 0.86463 0.30153 0.63652 0.0
C1568 C 0.85111 0.31974 0.63783 0.0
H1569 H 0.74916 0.35728 0.64368 0.0
H1570 H 0.78052 0.33784 0.64642 0.0
H1571 H 0.83203 0.35797 0.61048 0.0
H1572 H 0.91451 0.28713 0.63031 0.0
H1573 H 0.89303 0.31819 0.63276 0.0
C1574 C 0.73479 0.87788 0.64977 0.0
C1575 C 0.74 0.89156 0.63539 0.0
C1576 C 0.71657 0.86667 0.64894 0.0
C1577 C 0.68718 0.83926 0.61721 0.0
H1578 H 0.642 0.83935 0.6523 0.0
C1579 C 0.62477 0.77781 0.61144 0.0
C1580 C 0.61647 0.7701 0.62804 0.0
C1581 C 0.63642 0.79576 0.61154 0.0
C1582 C 0.65458 0.83889 0.64248 0.0
H1583 H 0.73009 0.90468 0.60913 0.0
H1584 H 0.69847 0.88429 0.60733 0.0
H1585 H 0.6689 0.86532 0.65478 0.0
H1586 H 0.61336 0.77506 0.65769 0.0
H1587 H 0.63479 0.80567 0.65824 0.0
H1588 H 0.6743 0.81211 0.60573 0.0
C1589 C 0.70833 0.88272 0.61941 0.0
C1590 C 0.66983 0.85394 0.64383 0.0
C1591 C 0.72632 0.89436 0.62047 0.0
C1592 C 0.61947 0.78091 0.64469 0.0
C1593 C 0.63171 0.79855 0.64492 0.0
C1594 C 0.6723 0.82393 0.61614 0.0
C1595 C 0.7035 0.86859 0.63352 0.0
C1596 C 0.68626 0.85414 0.63123 0.0
C1597 C 0.64077 0.80601 0.62838 0.0
C1598 C 0.65579 0.82337 0.62883 0.0
H1599 H 0.7451 0.87546 0.66142 0.0
H1600 H 0.71319 0.8557 0.65988 0.0
H1601 H 0.69995 0.83897 0.60754 0.0
H1602 H 0.62248 0.76974 0.59841 0.0
H1603 H 0.64239 0.80128 0.59839 0.0
C1604 C 0.13578 0.73764 0.64802 0.0
C1605 C 0.11907 0.73859 0.63568 0.0
C1606 C 0.14878 0.72068 0.64816 0.0
C1607 C 0.18226 0.69374 0.6334 0.0
H1608 H 0.16761 0.63631 0.62926 0.0
C1609 C 0.24248 0.6348 0.61336 0.0
C1610 C 0.24427 0.61733 0.62473 0.0
C1611 C 0.22527 0.64739 0.61443 0.0
C1612 C 0.17188 0.65229 0.6305 0.0
H1613 H 0.10208 0.72181 0.61468 0.0
H1614 H 0.12514 0.69206 0.61475 0.0
H1615 H 0.14055 0.66229 0.63293 0.0
H1616 H 0.22873 0.59877 0.64545 0.0
H1617 H 0.19842 0.62106 0.64741 0.0
H1618 H 0.2134 0.68405 0.631 0.0
C1619 C 0.12804 0.7045 0.62438 0.0
C1620 C 0.15642 0.66714 0.63247 0.0
C1621 C 0.11487 0.72154 0.62431 0.0
C1622 C 0.22782 0.61213 0.63652 0.0
C1623 C 0.21047 0.62486 0.63762 0.0
C1624 C 0.19757 0.67903 0.63131 0.0
C1625 C 0.14554 0.70424 0.63588 0.0
C1626 C 0.1615 0.68805 0.63399 0.0
C1627 C 0.20934 0.64295 0.62696 0.0
C1628 C 0.19262 0.65815 0.62971 0.0
H1629 H 0.13924 0.75035 0.65721 0.0
H1630 H 0.16182 0.72075 0.65751 0.0
H1631 H 0.18674 0.7097 0.63425 0.0
H1632 H 0.25468 0.63914 0.6039 0.0
H1633 H 0.22466 0.66096 0.60573 0.0
C1634 C 0.39565 0.21941 0.63335 0.0
C1635 C 0.38651 0.23893 0.6325 0.0
C1636 C 0.38342 0.20174 0.63495 0.0
C1637 C 0.33522 0.18399 0.6536 0.0
H1638 H 0.33006 0.14529 0.61287 0.0
C1639 C 0.26206 0.13776 0.64328 0.0
C1640 C 0.26258 0.1178 0.63588 0.0
C1641 C 0.27983 0.14952 0.64454 0.0
C1642 C 0.33161 0.15563 0.62458 0.0
H1643 H 0.35752 0.25524 0.63313 0.0
H1644 H 0.33647 0.22465 0.63649 0.0
H1645 H 0.35717 0.17134 0.61211 0.0
H1646 H 0.28254 0.09448 0.62431 0.0
H1647 H 0.31389 0.11512 0.62674 0.0
H1648 H 0.30972 0.16873 0.66609 0.0
C1649 C 0.35297 0.22295 0.6356 0.0
C1650 C 0.34712 0.17055 0.6241 0.0
C1651 C 0.36505 0.24044 0.63358 0.0
C1652 C 0.28157 0.10979 0.63007 0.0
C1653 C 0.29951 0.12166 0.63137 0.0
C1654 C 0.31998 0.16898 0.65422 0.0
C1655 C 0.36198 0.20345 0.63625 0.0
C1656 C 0.34857 0.18526 0.63832 0.0
C1657 C 0.29883 0.14173 0.6386 0.0
C1658 C 0.3174 0.15512 0.63937 0.0
H1659 H 0.41215 0.2178 0.63252 0.0
H1660 H 0.39067 0.18681 0.63544 0.0
H1661 H 0.33615 0.19509 0.6648 0.0
H1662 H 0.24779 0.14455 0.64791 0.0
H1663 H 0.2785 0.16503 0.64979 0.0
C1664 C 0.15639 0.9828 0.13427 0.0
C1665 C 0.17664 0.97873 0.12867 0.0
C1666 C 0.14783 1.00226 0.13181 0.0
C1667 C 0.16298 0.05662 0.12459 0.0
H1668 H 0.1045 0.06387 0.11744 0.0
C1669 C 0.12536 0.1367 0.11745 0.0
C1670 C 0.10888 0.14012 0.1297 0.0
C1671 C 0.13312 0.1169 0.11479 0.0
C1672 C 0.12086 0.06206 0.11944 0.0
H1673 H 0.20344 0.99173 0.11529 0.0
H1674 H 0.1883 0.0255 0.11039 0.0
H1675 H 0.11914 0.02948 0.11672 0.0
H1676 H 0.08705 0.12531 0.14811 0.0
H1677 H 0.10035 0.09074 0.14317 0.0
H1678 H 0.16459 0.08932 0.12713 0.0
C1679 C 0.1792 0.01383 0.11723 0.0
C1680 C 0.12928 0.04234 0.11913 0.0
C1681 C 0.18786 0.9944 0.11991 0.0
C1682 C 0.09981 0.12321 0.13863 0.0
C1683 C 0.10736 0.1034 0.13574 0.0
C1684 C 0.15458 0.07636 0.12462 0.0
C1685 C 0.15917 0.01815 0.12344 0.0
C1686 C 0.15043 0.03929 0.12206 0.0
C1687 C 0.12432 0.10008 0.12406 0.0
C1688 C 0.13339 0.07926 0.12236 0.0
H1689 H 0.14729 0.97115 0.14115 0.0
H1690 H 0.13252 0.00496 0.13708 0.0
H1691 H 0.17924 0.05498 0.12721 0.0
H1692 H 0.13273 0.14939 0.11038 0.0
H1693 H 0.14612 0.11476 0.1056 0.0
C1694 C 0.01931 0.15713 0.13399 0.0
C1695 C 0.02334 0.17766 0.12923 0.0
C1696 C 1.00017 0.14838 0.13039 0.0
C1697 C 0.94596 0.16264 0.12167 0.0
H1698 H 0.94072 0.10461 0.11097 0.0
C1699 C 0.86697 0.12335 0.11234 0.0
C1700 C 0.86425 0.10586 0.12355 0.0
C1701 C 0.88652 0.13182 0.10985 0.0
C1702 C 0.94195 0.12084 0.11394 0.0
H1703 H 0.01052 0.20483 0.11627 0.0
H1704 H 0.97724 0.18941 0.10956 0.0
H1705 H 0.97467 0.12021 0.11218 0.0
H1706 H 0.88004 0.08296 0.14012 0.0
H1707 H 0.91409 0.09752 0.13554 0.0
H1708 H 0.91317 0.16315 0.12347 0.0
C1709 C 0.98875 0.18021 0.11651 0.0
C1710 C 0.96142 0.1298 0.11473 0.0
C1711 C 0.0079 0.18903 0.12026 0.0
C1712 C 0.8816 0.09648 0.13146 0.0
C1713 C 0.90113 0.10476 0.12876 0.0
C1714 C 0.92649 0.15371 0.12068 0.0
C1715 C 0.98453 0.15983 0.12174 0.0
C1716 C 0.96373 0.15073 0.11901 0.0
C1717 C 0.90377 0.12277 0.11827 0.0
C1718 C 0.92429 0.13263 0.11718 0.0
H1719 H 0.03079 0.1479 0.14097 0.0
H1720 H 0.99747 0.13279 0.13494 0.0
H1721 H 0.94707 0.17871 0.12526 0.0
H1722 H 0.85391 0.13098 0.10609 0.0
H1723 H 0.88812 0.14562 0.10158 0.0
C1724 C 0.87664 0.86103 0.11463 0.0
C1725 C 0.89518 0.85784 0.12419 0.0
C1726 C 0.86874 0.88087 0.11243 0.0
C1727 C 0.87327 0.93257 0.13393 0.0
H1728 H 0.84024 0.94993 0.09182 0.0
C1729 C 0.8478 0.01605 0.12571 0.0
C1730 C 0.82666 0.01925 0.12307 0.0
C1731 C 0.85632 0.99656 0.12361 0.0
C1732 C 0.84938 0.94521 0.10368 0.0
H1733 H 0.92068 0.87297 0.13777 0.0
H1734 H 0.90751 0.90748 0.13324 0.0
H1735 H 0.85548 0.91561 0.09198 0.0
H1736 H 0.79816 0.00456 0.11502 0.0
H1737 H 0.81325 0.97042 0.11113 0.0
H1738 H 0.86744 0.9622 0.14549 0.0
C1739 C 0.89852 0.89472 0.12811 0.0
C1740 C 0.85807 0.92554 0.10383 0.0
C1741 C 0.9062 0.87493 0.13057 0.0
C1742 C 0.81447 1.00263 0.11725 0.0
C1743 C 0.8231 0.9831 0.11496 0.0
C1744 C 0.86484 0.95222 0.13366 0.0
C1745 C 0.87937 0.89797 0.11953 0.0
C1746 C 0.8702 0.91896 0.11896 0.0
C1747 C 0.84401 0.97979 0.11862 0.0
C1748 C 0.85285 0.9588 0.11854 0.0
H1749 H 0.86775 0.84813 0.10962 0.0
H1750 H 0.85391 0.88268 0.10586 0.0
H1751 H 0.88195 0.92797 0.1461 0.0
H1752 H 0.85774 0.02846 0.13004 0.0
H1753 H 0.87255 0.99452 0.12625 0.0
C1754 C 0.1236 0.90242 0.13213 0.0
C1755 C 0.14095 0.89209 0.1254 0.0
C1756 C 0.10401 0.89434 0.12942 0.0
C1757 C 0.07431 0.85375 0.10415 0.0
H1758 H 0.03732 0.86116 0.14592 0.0
C1759 C 0.99807 0.80819 0.11744 0.0
C1760 C 0.98118 0.82023 0.12287 0.0
C1761 C 0.0175 0.8171 0.11521 0.0
C1762 C 0.04742 0.85908 0.13408 0.0
H1763 H 0.15137 0.8655 0.11 0.0
H1764 H 0.11722 0.8509 0.10586 0.0
H1765 H 0.07118 0.87647 0.1469 0.0
H1766 H 0.97136 0.85132 0.12911 0.0
H1767 H 0.00511 0.86657 0.1255 0.0
H1768 H 0.05041 0.83556 0.09179 0.0
C1769 C 0.11862 0.86553 0.11285 0.0
C1770 C 0.06684 0.868 0.13455 0.0
C1771 C 0.13825 0.87387 0.11526 0.0
C1772 C 0.98399 0.84148 0.12511 0.0
C1773 C 0.00335 0.85027 0.12309 0.0
C1774 C 0.05488 0.84453 0.10383 0.0
C1775 C 0.10126 0.87543 0.12029 0.0
C1776 C 0.08053 0.86569 0.11953 0.0
C1777 C 0.02039 0.83813 0.11855 0.0
C1778 C 0.0412 0.84731 0.11872 0.0
H1779 H 0.1252 0.91664 0.13979 0.0
H1780 H 0.09103 0.9028 0.13483 0.0
H1781 H 0.08431 0.85174 0.09225 0.0
H1782 H 0.99644 0.79181 0.11553 0.0
H1783 H 0.03041 0.8074 0.11172 0.0
C1784 C 0.18971 0.01438 0.3739 0.0
C1785 C 0.18187 0.0287 0.36107 0.0
C1786 C 0.18057 0.99506 0.37587 0.0
C1787 C 0.13268 0.96616 0.36682 0.0
H1788 H 0.16836 0.91868 0.36584 0.0
C1789 C 0.10219 0.88398 0.35354 0.0
C1790 C 0.11229 0.86742 0.36211 0.0
C1791 C 0.10983 0.90396 0.35527 0.0
C1792 C 0.15812 0.93172 0.36648 0.0
H1793 H 0.1578 0.0341 0.34075 0.0
H1794 H 0.14189 1.00057 0.34428 0.0
H1795 H 0.1832 0.9529 0.36597 0.0
H1796 H 0.13775 0.8591 0.38004 0.0
H1797 H 0.15067 0.89386 0.38352 0.0
H1798 H 0.10758 0.94503 0.36735 0.0
C1799 C 0.15509 0.00425 0.35281 0.0
C1800 C 0.16668 0.95138 0.36652 0.0
C1801 C 0.16433 0.02344 0.35069 0.0
C1802 C 0.12971 0.87145 0.37306 0.0
C1803 C 0.13722 0.89141 0.37495 0.0
C1804 C 0.1241 0.94648 0.36693 0.0
C1805 C 0.16323 0.98972 0.36524 0.0
C1806 C 0.15407 0.96884 0.36649 0.0
C1807 C 0.12765 0.90792 0.36578 0.0
C1808 C 0.1367 0.92896 0.36658 0.0
H1809 H 0.20317 0.01793 0.38213 0.0
H1810 H 0.18709 0.98426 0.38569 0.0
H1811 H 0.12255 0.97931 0.36702 0.0
H1812 H 0.08879 0.88143 0.34493 0.0
H1813 H 0.10214 0.91618 0.34783 0.0
C1814 C 0.98449 0.16096 0.36332 0.0
C1815 C 0.98136 0.18189 0.36713 0.0
C1816 C 0.0039 0.15215 0.36516 0.0
C1817 C 0.05861 0.16678 0.36526 0.0
H1818 H 0.0669 0.11014 0.37996 0.0
C1819 C 0.13929 0.13281 0.3726 0.0
C1820 C 0.14286 0.11379 0.36394 0.0
C1821 C 0.11941 0.14023 0.37489 0.0
C1822 C 0.06478 0.12594 0.37572 0.0
H1823 H 0.9961 0.20967 0.37688 0.0
H1824 H 0.0299 0.19419 0.38055 0.0
H1825 H 0.03257 0.12508 0.38142 0.0
H1826 H 0.1281 0.08724 0.35166 0.0
H1827 H 0.09317 0.10029 0.35572 0.0
H1828 H 0.09078 0.16766 0.35959 0.0
C1829 C 0.0174 0.1847 0.37564 0.0
C1830 C 0.04512 0.13452 0.37654 0.0
C1831 C 0.99797 0.19356 0.37367 0.0
C1832 C 0.12591 0.10196 0.35833 0.0
C1833 C 0.10591 0.10941 0.36071 0.0
C1834 C 0.07823 0.15826 0.36458 0.0
C1835 C 0.02072 0.16399 0.37101 0.0
C1836 C 0.04176 0.15504 0.37122 0.0
C1837 C 0.1025 0.12883 0.36866 0.0
C1838 C 0.08155 0.13773 0.36973 0.0
H1839 H 0.97207 0.15144 0.35826 0.0
H1840 H 0.00585 0.13624 0.36127 0.0
H1841 H 0.05661 0.18246 0.36064 0.0
H1842 H 0.15192 0.14227 0.3773 0.0
H1843 H 0.11727 0.15506 0.38138 0.0
C1844 C 0.81083 0.00278 0.37155 0.0
C1845 C 0.8242 0.98589 0.37075 0.0
C1846 C 0.81852 0.0226 0.37394 0.0
C1847 C 0.8632 0.05301 0.38886 0.0
H1848 H 0.84589 0.09089 0.35023 0.0
C1849 C 0.88655 0.13981 0.38341 0.0
C1850 C 0.8945 0.14523 0.36584 0.0
C1851 C 0.87783 0.12041 0.38627 0.0
C1852 C 0.85075 0.08051 0.36116 0.0
H1853 H 0.856 0.97647 0.37302 0.0
H1854 H 0.86936 0.01112 0.37743 0.0
H1855 H 0.83026 0.05694 0.35208 0.0
H1856 H 0.8998 0.13435 0.33763 0.0
H1857 H 0.88426 0.1009 0.34258 0.0
H1858 H 0.88389 0.07671 0.39777 0.0
C1859 C 0.85296 0.00898 0.37609 0.0
C1860 C 0.84173 0.06116 0.36231 0.0
C1861 C 0.84531 0.98916 0.37344 0.0
C1862 C 0.89386 0.13074 0.35135 0.0
C1863 C 0.88486 0.11159 0.35412 0.0
C1864 C 0.87201 0.07257 0.38791 0.0
C1865 C 0.83969 0.02594 0.37587 0.0
C1866 C 0.84807 0.04708 0.37597 0.0
C1867 C 0.87657 0.10631 0.37151 0.0
C1868 C 0.86612 0.08632 0.37381 0.0
H1869 H 0.79449 1.00081 0.36956 0.0
H1870 H 0.80794 0.03541 0.37387 0.0
H1871 H 0.86832 0.04245 0.39956 0.0
H1872 H 0.88688 0.15062 0.39486 0.0
H1873 H 0.87152 0.11665 0.39981 0.0
C1874 C 0.88391 0.91009 0.36007 0.0
C1875 C 0.86752 0.90113 0.36985 0.0
C1876 C 0.90364 0.90198 0.36134 0.0
C1877 C 0.93803 0.86757 0.38772 0.0
H1878 H 0.96371 0.8607 0.33937 0.0
C1879 C 0.01342 0.82102 0.376 0.0
C1880 C 0.02712 0.82857 0.36248 0.0
C1881 C 0.99417 0.83019 0.37852 0.0
C1882 C 0.95696 0.86274 0.35303 0.0
H1883 H 0.85937 0.87733 0.38964 0.0
H1884 H 0.89407 0.86307 0.39185 0.0
H1885 H 0.93012 0.87652 0.34144 0.0
H1886 H 0.03167 0.85233 0.34171 0.0
H1887 H 0.99853 0.86845 0.34633 0.0
H1888 H 0.96509 0.85378 0.39928 0.0
C1889 C 0.89151 0.87643 0.38318 0.0
C1890 C 0.93764 0.87181 0.35421 0.0
C1891 C 0.87164 0.88459 0.3819 0.0
C1892 C 0.02142 0.8459 0.35205 0.0
C1893 C 1.00231 0.8551 0.35464 0.0
C1894 C 0.95753 0.85854 0.38655 0.0
C1895 C 0.90757 0.88465 0.37241 0.0
C1896 C 0.92801 0.87454 0.37156 0.0
C1897 C 0.98825 0.84716 0.36763 0.0
C1898 C 0.96731 0.85622 0.36918 0.0
H1899 H 0.88138 0.92303 0.35087 0.0
H1900 H 0.91577 0.90897 0.35322 0.0
H1901 H 0.931 0.86949 0.40129 0.0
H1902 H 0.01734 0.80771 0.3843 0.0
H1903 H 0.9837 0.8236 0.38858 0.0
C1904 C 0.8167 0.00877 0.8693 0.0
C1905 C 0.82823 0.02602 0.86395 0.0
C1906 C 0.8261 0.98958 0.87124 0.0
C1907 C 0.87077 0.96063 0.85431 0.0
H1908 H 0.85654 0.92227 0.89352 0.0
C1909 C 0.90896 0.88083 0.85904 0.0
C1910 C 0.89587 0.86429 0.86305 0.0
C1911 C 0.90213 0.90106 0.86111 0.0
C1912 C 0.86058 0.93274 0.88238 0.0
H1913 H 0.85891 0.03668 0.85725 0.0
H1914 H 0.87516 0.00332 0.86068 0.0
H1915 H 0.84164 0.9566 0.89358 0.0
H1916 H 0.86547 0.85616 0.87294 0.0
H1917 H 0.85354 0.8912 0.8762 0.0
H1918 H 0.88927 0.93672 0.8428 0.0
C1919 C 0.85882 0.00457 0.86311 0.0
C1920 C 0.85204 0.95242 0.88245 0.0
C1921 C 0.84948 0.02373 0.86124 0.0
C1922 C 0.87601 0.86848 0.8697 0.0
C1923 C 0.86918 0.88865 0.87171 0.0
C1924 C 0.87922 0.94094 0.85419 0.0
C1925 C 0.8472 0.98719 0.86782 0.0
C1926 C 0.85692 0.96655 0.86833 0.0
C1927 C 0.88204 0.90523 0.86723 0.0
C1928 C 0.87411 0.92665 0.86812 0.0
H1929 H 0.80032 0.00996 0.87152 0.0
H1930 H 0.81668 0.97647 0.87478 0.0
H1931 H 0.87462 0.97103 0.84307 0.0
H1932 H 0.92439 0.87818 0.854 0.0
H1933 H 0.91257 0.91345 0.85781 0.0
C1934 C 0.98629 0.84206 0.85243 0.0
C1935 C 0.98052 0.82482 0.86296 0.0
C1936 C 0.00542 0.85123 0.85496 0.0
C1937 C 0.05012 0.85524 0.88686 0.0
H1938 H 0.07748 0.87264 0.84155 0.0
C1939 C 0.13557 0.88301 0.88233 0.0
C1940 C 0.13948 0.89925 0.86989 0.0
C1941 C 0.11587 0.87442 0.8836 0.0
C1942 C 0.06998 0.8681 0.85438 0.0
H1943 H 0.99023 0.80413 0.88493 0.0
H1944 H 0.02393 0.82003 0.88917 0.0
H1945 H 0.04409 0.85639 0.83964 0.0
H1946 H 0.12538 0.92018 0.85017 0.0
H1947 H 0.09128 0.90546 0.85256 0.0
H1948 H 0.07642 0.86687 0.9015 0.0
C1949 C 0.01349 0.82653 0.87903 0.0
C1950 C 0.05078 0.85877 0.85329 0.0
C1951 C 0.9942 0.81736 0.87655 0.0
C1952 C 0.12302 0.9075 0.8597 0.0
C1953 C 0.10345 0.89898 0.86098 0.0
C1954 C 0.0695 0.86456 0.88794 0.0
C1955 C 0.01946 0.84338 0.86802 0.0
C1956 C 0.0404 0.85248 0.8695 0.0
C1957 C 0.09975 0.88192 0.87247 0.0
C1958 C 0.0795 0.87137 0.8717 0.0
H1959 H 0.97607 0.84846 0.84203 0.0
H1960 H 0.00923 0.8645 0.84656 0.0
H1961 H 0.04255 0.85066 0.89963 0.0
H1962 H 0.1479 0.87627 0.89038 0.0
H1963 H 0.11351 0.8613 0.89261 0.0
C1964 C 0.11758 0.13772 0.88434 0.0
C1965 C 0.10938 0.14364 0.867 0.0
C1966 C 0.12636 0.11824 0.88663 0.0
C1967 C 0.15318 0.07916 0.86022 0.0
H1968 H 0.13654 0.03996 0.89798 0.0
C1969 C 0.19435 1.0017 0.86923 0.0
C1970 C 0.1813 0.98456 0.86847 0.0
C1971 C 0.18631 0.02139 0.87167 0.0
C1972 C 0.14139 0.05083 0.88744 0.0
H1973 H 0.10368 0.13352 0.83861 0.0
H1974 H 0.1193 0.09997 0.84258 0.0
H1975 H 0.12069 0.07414 0.89715 0.0
H1976 H 0.14967 0.97459 0.87073 0.0
H1977 H 0.1357 0.00901 0.87527 0.0
H1978 H 0.17373 0.056 0.85037 0.0
C1979 C 0.11886 0.11032 0.85438 0.0
C1980 C 0.13242 0.07035 0.88704 0.0
C1981 C 0.10981 0.12954 0.85217 0.0
C1982 C 0.16013 0.98748 0.87113 0.0
C1983 C 0.15213 0.00716 0.87385 0.0
C1984 C 0.16238 0.05984 0.86082 0.0
C1985 C 0.12742 0.10456 0.87153 0.0
C1986 C 0.138 0.08454 0.8732 0.0
C1987 C 0.16509 0.02435 0.87372 0.0
C1988 C 0.15638 0.04536 0.87425 0.0
H1989 H 0.11744 0.14821 0.89603 0.0
H1990 H 0.13288 0.1141 0.9 0.0
H1991 H 0.15781 0.08987 0.84946 0.0
H1992 H 0.21073 1.00002 0.86725 0.0
H1993 H 0.19667 0.03437 0.87165 0.0
C1994 C 0.86592 0.12853 0.8803 0.0
C1995 C 0.86314 0.11226 0.8677 0.0
C1996 C 0.88552 0.13647 0.88362 0.0
C1997 C 0.94061 0.12507 0.88003 0.0
H1998 H 0.94704 0.18349 0.87199 0.0
C1999 C 0.01893 0.16109 0.86365 0.0
C2000 C 0.0231 0.18133 0.86919 0.0
C2001 C 0.99964 0.15244 0.86662 0.0
C2002 C 0.94555 0.16724 0.8747 0.0
H2003 H 0.8788 0.09091 0.84943 0.0
H2004 H 0.913 0.10453 0.8555 0.0
H2005 H 0.91286 0.16845 0.87198 0.0
H2006 H 0.01045 0.20804 0.883 0.0
H2007 H 0.97688 0.19273 0.88869 0.0
H2008 H 0.97321 0.12374 0.88279 0.0
C2009 C 0.90002 0.11123 0.86269 0.0
C2010 C 0.92593 0.15862 0.87463 0.0
C2011 C 0.88043 0.10352 0.85914 0.0
C2012 C 0.00769 0.19247 0.87841 0.0
C2013 C 0.9884 0.18372 0.88157 0.0
C2014 C 0.96021 0.13371 0.88035 0.0
C2015 C 0.90272 0.12803 0.87468 0.0
C2016 C 0.9233 0.13739 0.87689 0.0
C2017 C 0.98401 0.16369 0.87544 0.0
C2018 C 0.96301 0.15485 0.87725 0.0
H2019 H 0.8529 0.13563 0.88709 0.0
H2020 H 0.88721 0.14935 0.89301 0.0
H2021 H 0.93898 0.10869 0.88204 0.0
H2022 H 0.03039 0.15205 0.85645 0.0
H2023 H 0.99682 0.13714 0.86138 0.0
C2024 C 0.82119 0.99701 0.62287 0.0
C2025 C 0.83209 0.97968 0.62901 0.0
C2026 C 0.83108 0.01591 0.62076 0.0
C2027 C 0.87553 0.04446 0.63857 0.0
H2028 H 0.86275 0.08235 0.59857 0.0
C2029 C 0.913 0.12471 0.63463 0.0
C2030 C 0.89971 0.14101 0.6303 0.0
C2031 C 0.90662 0.10435 0.63234 0.0
C2032 C 0.8664 0.07201 0.6099 0.0
H2033 H 0.86223 0.96851 0.63695 0.0
H2034 H 0.87939 1.00142 0.63323 0.0
H2035 H 0.84792 0.04801 0.59834 0.0
H2036 H 0.8695 0.14859 0.6196 0.0
H2037 H 0.85837 0.11335 0.61592 0.0
H2038 H 0.89353 0.06855 0.65043 0.0
C2039 C 0.86313 1.00045 0.63029 0.0
C2040 C 0.8579 0.05232 0.60975 0.0
C2041 C 0.85328 0.98155 0.63232 0.0
C2042 C 0.88017 0.13646 0.62311 0.0
C2043 C 0.87381 0.11618 0.62086 0.0
C2044 C 0.88395 0.06417 0.63877 0.0
C2045 C 0.85208 0.01794 0.6248 0.0
C2046 C 0.86217 0.03839 0.6242 0.0
C2047 C 0.88682 0.09984 0.62567 0.0
C2048 C 0.87928 0.0783 0.62457 0.0
H2049 H 0.80487 0.99615 0.62016 0.0
H2050 H 0.82208 0.02911 0.61664 0.0
H2051 H 0.87891 0.03422 0.65005 0.0
H2052 H 0.92819 0.12764 0.64011 0.0
H2053 H 0.91716 0.09215 0.63594 0.0
C2054 C 0.88099 0.9007 0.63614 0.0
C2055 C 0.86336 0.89184 0.62827 0.0
C2056 C 0.90039 0.89255 0.63245 0.0
C2057 C 0.92588 0.84467 0.62171 0.0
H2058 H 0.97228 0.87896 0.60879 0.0
C2059 C 0.00754 0.81072 0.61585 0.0
C2060 C 0.02343 0.82267 0.62341 0.0
C2061 C 0.98801 0.81914 0.61307 0.0
C2062 C 0.95956 0.86915 0.61258 0.0
H2063 H 0.85229 0.86764 0.61015 0.0
H2064 H 0.88624 0.85311 0.60408 0.0
H2065 H 0.93811 0.89398 0.61072 0.0
H2066 H 0.03129 0.85306 0.63348 0.0
H2067 H 0.99743 0.86738 0.62927 0.0
H2068 H 0.94727 0.82004 0.62458 0.0
C2069 C 0.88497 0.86646 0.61297 0.0
C2070 C 0.93997 0.87778 0.61358 0.0
C2071 C 0.86559 0.87484 0.61639 0.0
C2072 C 0.01949 0.84336 0.62758 0.0
C2073 C 0.99998 0.85167 0.62501 0.0
C2074 C 0.94551 0.83607 0.62102 0.0
C2075 C 0.90254 0.87517 0.62107 0.0
C2076 C 0.92299 0.86569 0.6184 0.0
C2077 C 0.98387 0.83965 0.61795 0.0
C2078 C 0.9627 0.84827 0.61675 0.0
H2079 H 0.87978 0.91384 0.6453 0.0
H2080 H 0.91367 0.89946 0.63897 0.0
H2081 H 0.91305 0.83503 0.62562 0.0
H2082 H 0.01009 0.79477 0.61238 0.0
H2083 H 0.97611 0.80948 0.60729 0.0
C2084 C 0.1267 0.86376 0.61233 0.0
C2085 C 0.10948 0.86101 0.62387 0.0
C2086 C 0.13501 0.88331 0.60957 0.0
C2087 C 0.12365 0.93844 0.61232 0.0
H2088 H 0.18139 0.94478 0.62381 0.0
C2089 C 0.15849 0.01706 0.62957 0.0
C2090 C 0.17913 0.02117 0.6253 0.0
C2091 C 0.15012 0.99767 0.62646 0.0
C2092 C 0.16536 0.94332 0.62014 0.0
H2093 H 0.08694 0.87674 0.64085 0.0
H2094 H 0.10119 0.9109 0.6357 0.0
H2095 H 0.16623 0.91064 0.6232 0.0
H2096 H 0.20692 0.00821 0.61366 0.0
H2097 H 0.19212 0.97445 0.60767 0.0
H2098 H 0.12266 0.97099 0.60912 0.0
C2099 C 0.10834 0.8979 0.62892 0.0
C2100 C 0.15666 0.92371 0.61987 0.0
C2101 C 0.10024 0.87834 0.63193 0.0
C2102 C 0.19101 0.00554 0.61723 0.0
C2103 C 0.18254 0.98612 0.61392 0.0
C2104 C 0.13239 0.95801 0.61232 0.0
C2105 C 0.12604 0.90055 0.61801 0.0
C2106 C 0.13564 0.92112 0.61634 0.0
C2107 C 0.16204 0.98184 0.61875 0.0
C2108 C 0.15327 0.9608 0.61667 0.0
H2109 H 0.13422 0.85072 0.60596 0.0
H2110 H 0.14858 0.88494 0.601 0.0
H2111 H 0.10746 0.93685 0.60932 0.0
H2112 H 0.14885 0.02866 0.63588 0.0
H2113 H 0.13443 0.99498 0.63072 0.0
C2114 C 0.13636 0.12086 0.61081 0.0
C2115 C 0.13986 0.10639 0.62503 0.0
C2116 C 0.11674 0.12909 0.608 0.0
C2117 C 0.06167 0.12088 0.61927 0.0
H2118 H 0.05754 0.18 0.61494 0.0
C2119 C 0.98881 0.16458 0.63957 0.0
C2120 C 0.98249 0.18155 0.6289 0.0
C2121 C 0.00743 0.15484 0.63596 0.0
C2122 C 0.0584 0.16345 0.61581 0.0
H2123 H 0.12524 0.08866 0.6469 0.0
H2124 H 0.09127 0.10295 0.64204 0.0
H2125 H 0.09119 0.1636 0.61398 0.0
H2126 H 0.9908 0.20137 0.60583 0.0
H2127 H 0.02357 0.18429 0.59955 0.0
H2128 H 0.02897 0.12074 0.62161 0.0
C2129 C 0.10359 0.10791 0.63298 0.0
C2130 C 0.0777 0.15403 0.61525 0.0
C2131 C 0.12315 0.09979 0.63585 0.0
C2132 C 0.99522 0.18838 0.61433 0.0
C2133 C 0.01402 0.17865 0.61079 0.0
C2134 C 0.04243 0.13027 0.61984 0.0
C2135 C 0.10017 0.1229 0.61923 0.0
C2136 C 0.0796 0.13267 0.61744 0.0
C2137 C 0.02034 0.16178 0.62161 0.0
C2138 C 0.04058 0.15171 0.61859 0.0
H2139 H 0.14888 0.12628 0.6022 0.0
H2140 H 0.11459 0.14045 0.59716 0.0
H2141 H 0.06254 0.10437 0.62061 0.0
H2142 H 0.97942 0.15882 0.65087 0.0
H2143 H 0.01193 0.14211 0.64476 0.0
C2144 C 0.6923 0.49743 0.62254 0.0
C2145 C 0.6802 0.48125 0.62936 0.0
C2146 C 0.68404 0.51709 0.62048 0.0
C2147 C 0.63473 0.54597 0.61884 0.0
H2148 H 0.66875 0.59136 0.6349 0.0
C2149 C 0.60309 0.62727 0.63493 0.0
C2150 C 0.61516 0.64412 0.6295 0.0
C2151 C 0.61048 0.60723 0.63291 0.0
C2152 C 0.65912 0.5789 0.63013 0.0
H2153 H 0.64968 0.47302 0.63885 0.0
H2154 H 0.63546 0.50726 0.63561 0.0
H2155 H 0.68277 0.55682 0.63482 0.0
H2156 H 0.64415 0.65296 0.61695 0.0
H2157 H 0.65688 0.61814 0.61342 0.0
H2158 H 0.61093 0.56817 0.61458 0.0
C2159 C 0.65126 0.50475 0.63158 0.0
C2160 C 0.66718 0.55907 0.63003 0.0
C2161 C 0.65948 0.48509 0.63356 0.0
C2162 C 0.63447 0.6404 0.62143 0.0
C2163 C 0.64185 0.62042 0.61949 0.0
C2164 C 0.62662 0.56584 0.61902 0.0
C2165 C 0.66349 0.52108 0.62526 0.0
C2166 C 0.65508 0.54231 0.62447 0.0
C2167 C 0.6301 0.60362 0.62548 0.0
C2168 C 0.63872 0.58253 0.62473 0.0
H2169 H 0.70827 0.49499 0.61902 0.0
H2170 H 0.69381 0.52922 0.61525 0.0
H2171 H 0.62505 0.53349 0.61423 0.0
H2172 H 0.58814 0.62956 0.64115 0.0
H2173 H 0.60109 0.59462 0.63777 0.0
C2174 C 0.37497 0.62567 0.61887 0.0
C2175 C 0.36992 0.60828 0.62955 0.0
C2176 C 0.39523 0.63254 0.61777 0.0
C2177 C 0.44286 0.63222 0.64465 0.0
H2178 H 0.46737 0.65311 0.59919 0.0
C2179 C 0.52579 0.66223 0.64393 0.0
C2180 C 0.52995 0.67995 0.63342 0.0
C2181 C 0.50707 0.65204 0.64214 0.0
C2182 C 0.46069 0.64755 0.61205 0.0
H2183 H 0.38244 0.58405 0.64688 0.0
H2184 H 0.41783 0.59615 0.64501 0.0
H2185 H 0.43333 0.63754 0.59818 0.0
H2186 H 0.51777 0.7006 0.61247 0.0
H2187 H 0.48484 0.68312 0.60968 0.0
H2188 H 0.46976 0.6427 0.65868 0.0
C2189 C 0.40602 0.60451 0.63759 0.0
C2190 C 0.44121 0.63855 0.61144 0.0
C2191 C 0.38576 0.59751 0.63856 0.0
C2192 C 0.51508 0.68698 0.62075 0.0
C2193 C 0.49622 0.67687 0.61909 0.0
C2194 C 0.46223 0.64135 0.64529 0.0
C2195 C 0.41092 0.62229 0.62743 0.0
C2196 C 0.43205 0.63085 0.62775 0.0
C2197 C 0.49187 0.65938 0.62993 0.0
C2198 C 0.47141 0.6492 0.62902 0.0
H2199 H 0.36317 0.63429 0.61168 0.0
H2200 H 0.39846 0.64636 0.60993 0.0
H2201 H 0.43608 0.62679 0.65752 0.0
H2202 H 0.53701 0.65622 0.65364 0.0
H2203 H 0.50452 0.63837 0.6504 0.0
C2204 C 0.32241 0.51113 0.61676 0.0
C2205 C 0.32941 0.52506 0.63029 0.0
C2206 C 0.33172 0.49189 0.61484 0.0
C2207 C 0.37895 0.46273 0.62585 0.0
H2208 H 0.34317 0.41536 0.62415 0.0
C2209 C 0.40779 0.38004 0.63994 0.0
C2210 C 0.39808 0.36378 0.63061 0.0
C2211 C 0.40062 0.40017 0.63786 0.0
C2212 C 0.35346 0.42838 0.62426 0.0
H2213 H 0.35216 0.52992 0.65194 0.0
H2214 H 0.36832 0.49652 0.64853 0.0
H2215 H 0.32843 0.4496 0.62378 0.0
H2216 H 0.37408 0.35607 0.61089 0.0
H2217 H 0.36205 0.39106 0.60683 0.0
H2218 H 0.40401 0.44152 0.62637 0.0
C2219 C 0.35568 0.50043 0.6394 0.0
C2220 C 0.34496 0.44805 0.62408 0.0
C2221 C 0.34628 0.51954 0.64145 0.0
C2222 C 0.38173 0.36821 0.61848 0.0
C2223 C 0.37473 0.3883 0.61626 0.0
C2224 C 0.38749 0.44304 0.62589 0.0
C2225 C 0.34837 0.48628 0.62624 0.0
C2226 C 0.35758 0.46545 0.62507 0.0
C2227 C 0.38372 0.4045 0.62626 0.0
C2228 C 0.37485 0.42557 0.62527 0.0
H2229 H 0.3095 0.51491 0.60791 0.0
H2230 H 0.32586 0.48137 0.60445 0.0
H2231 H 0.38909 0.47586 0.62642 0.0
H2232 H 0.42037 0.37713 0.64943 0.0
H2233 H 0.40785 0.41219 0.64592 0.0
C2234 C 0.62416 0.40305 0.63703 0.0
C2235 C 0.64017 0.39612 0.62554 0.0
C2236 C 0.6046 0.39452 0.63571 0.0
C2237 C 0.56973 0.36286 0.60692 0.0
H2238 H 0.54579 0.35019 0.65505 0.0
C2239 C 0.49419 0.3154 0.61705 0.0
C2240 C 0.48095 0.32226 0.63123 0.0
C2241 C 0.5136 0.32437 0.61468 0.0
C2242 C 0.5521 0.35381 0.64148 0.0
H2243 H 0.64779 0.37553 0.60285 0.0
H2244 H 0.61344 0.3605 0.60059 0.0
H2245 H 0.57924 0.36638 0.65356 0.0
H2246 H 0.47744 0.34465 0.65339 0.0
H2247 H 0.51081 0.36023 0.64914 0.0
H2248 H 0.54232 0.35021 0.59492 0.0
C2249 C 0.61612 0.37261 0.61062 0.0
C2250 C 0.57132 0.36312 0.64062 0.0
C2251 C 0.63581 0.38122 0.61192 0.0
C2252 C 0.48729 0.3387 0.64251 0.0
C2253 C 0.50654 0.34762 0.64013 0.0
C2254 C 0.55035 0.35352 0.60779 0.0
C2255 C 0.60047 0.37875 0.62291 0.0
C2256 C 0.58027 0.36808 0.62337 0.0
C2257 C 0.52013 0.34035 0.62645 0.0
C2258 C 0.54117 0.34918 0.62511 0.0
H2259 H 0.62686 0.41469 0.64751 0.0
H2260 H 0.59277 0.39998 0.64507 0.0
H2261 H 0.57621 0.36648 0.59342 0.0
H2262 H 0.48977 0.30282 0.60807 0.0
H2263 H 0.52371 0.31838 0.60402 0.0
C2264 C 0.5988 0.38007 0.85784 0.0
C2265 C 0.60953 0.36341 0.8655 0.0
C2266 C 0.60621 0.40003 0.85975 0.0
C2267 C 0.64484 0.43244 0.88464 0.0
H2268 H 0.63807 0.4668 0.84092 0.0
C2269 C 0.68929 0.50873 0.87081 0.0
C2270 C 0.67783 0.52506 0.8633 0.0
C2271 C 0.68037 0.48937 0.87328 0.0
C2272 C 0.63991 0.45749 0.85333 0.0
H2273 H 0.63614 0.35471 0.88177 0.0
H2274 H 0.64952 0.38955 0.88463 0.0
H2275 H 0.62372 0.43248 0.84112 0.0
H2276 H 0.64766 0.53394 0.85333 0.0
H2277 H 0.63229 0.50026 0.8575 0.0
H2278 H 0.66174 0.45754 0.89647 0.0
C2279 C 0.63511 0.38727 0.87744 0.0
C2280 C 0.63158 0.43778 0.8535 0.0
C2281 C 0.62748 0.36725 0.87577 0.0
C2282 C 0.65704 0.52174 0.85903 0.0
C2283 C 0.64821 0.5024 0.86133 0.0
C2284 C 0.65341 0.45217 0.88436 0.0
C2285 C 0.6248 0.40389 0.86909 0.0
C2286 C 0.63377 0.42499 0.86919 0.0
C2287 C 0.65986 0.48589 0.86813 0.0
C2288 C 0.6509 0.46494 0.86873 0.0
H2289 H 0.58476 0.37763 0.85006 0.0
H2290 H 0.59747 0.41243 0.85362 0.0
H2291 H 0.64671 0.42316 0.89704 0.0
H2292 H 0.70532 0.51074 0.87432 0.0
H2293 H 0.68974 0.47692 0.8785 0.0
C2294 C 0.48506 0.65924 0.85788 0.0
C2295 C 0.48084 0.67954 0.86325 0.0
C2296 C 0.50459 0.65086 0.86034 0.0
C2297 C 0.55892 0.66632 0.8669 0.0
H2298 H 0.56632 0.608 0.87496 0.0
C2299 C 0.63915 0.62853 0.87335 0.0
C2300 C 0.64221 0.61167 0.86145 0.0
C2301 C 0.61946 0.63654 0.87613 0.0
C2302 C 0.56448 0.62432 0.87271 0.0
H2303 H 0.49375 0.70664 0.87618 0.0
H2304 H 0.5277 0.69182 0.88102 0.0
H2305 H 0.53194 0.62264 0.87588 0.0
H2306 H 0.62687 0.58951 0.84376 0.0
H2307 H 0.59253 0.60325 0.84891 0.0
H2308 H 0.59158 0.66788 0.86386 0.0
C2309 C 0.51603 0.68253 0.87441 0.0
C2310 C 0.54476 0.63273 0.87313 0.0
C2311 C 0.4965 0.69101 0.87176 0.0
C2312 C 0.62506 0.60255 0.85296 0.0
C2313 C 0.60537 0.61035 0.85598 0.0
C2314 C 0.57867 0.65793 0.86673 0.0
C2315 C 0.52045 0.66243 0.86846 0.0
C2316 C 0.54163 0.6538 0.86985 0.0
C2317 C 0.60239 0.62763 0.86735 0.0
C2318 C 0.58162 0.63678 0.86928 0.0
H2319 H 0.47344 0.64993 0.85121 0.0
H2320 H 0.50736 0.63549 0.85526 0.0
H2321 H 0.55721 0.68253 0.86403 0.0
H2322 H 0.65204 0.63594 0.88007 0.0
H2323 H 0.61759 0.64978 0.88507 0.0
C2324 C 0.40655 0.62464 0.8563 0.0
C2325 C 0.39585 0.64131 0.86394 0.0
C2326 C 0.39955 0.60463 0.85893 0.0
C2327 C 0.36227 0.57253 0.88583 0.0
H2328 H 0.36779 0.53696 0.84283 0.0
C2329 C 0.31708 0.49636 0.87407 0.0
C2330 C 0.32841 0.47976 0.86693 0.0
C2331 C 0.3262 0.51566 0.87616 0.0
C2332 C 0.36632 0.54663 0.85504 0.0
H2333 H 0.36975 0.65004 0.88085 0.0
H2334 H 0.35704 0.61515 0.88491 0.0
H2335 H 0.38198 0.57133 0.84177 0.0
H2336 H 0.35853 0.4703 0.8573 0.0
H2337 H 0.37422 0.50392 0.86075 0.0
H2338 H 0.34579 0.54775 0.89869 0.0
C2339 C 0.37114 0.61743 0.87722 0.0
C2340 C 0.37456 0.56635 0.85449 0.0
C2341 C 0.37837 0.63748 0.87485 0.0
C2342 C 0.34927 0.48272 0.86271 0.0
C2343 C 0.35827 0.50201 0.86461 0.0
C2344 C 0.35376 0.55281 0.88626 0.0
C2345 C 0.38141 0.60076 0.86897 0.0
C2346 C 0.37277 0.57958 0.8699 0.0
C2347 C 0.34674 0.51878 0.87097 0.0
C2348 C 0.3558 0.53964 0.87088 0.0
H2349 H 0.42024 0.6271 0.84804 0.0
H2350 H 0.40825 0.5922 0.85282 0.0
H2351 H 0.36076 0.58215 0.89804 0.0
H2352 H 0.30102 0.4946 0.87755 0.0
H2353 H 0.31695 0.52835 0.88105 0.0
C2354 C 0.36637 0.37536 0.87765 0.0
C2355 C 0.363 0.39376 0.86793 0.0
C2356 C 0.38632 0.3677 0.87984 0.0
C2357 C 0.43744 0.37226 0.85755 0.0
H2358 H 0.45609 0.34031 0.89989 0.0
C2359 C 0.52108 0.34685 0.86386 0.0
C2360 C 0.52431 0.32584 0.86718 0.0
C2361 C 0.50171 0.35552 0.8663 0.0
C2362 C 0.45101 0.34915 0.88796 0.0
H2363 H 0.37781 0.41936 0.85419 0.0
H2364 H 0.41246 0.40659 0.85868 0.0
H2365 H 0.42165 0.35533 0.90019 0.0
H2366 H 0.50987 0.29776 0.87672 0.0
H2367 H 0.47595 0.31307 0.88109 0.0
H2368 H 0.46674 0.36628 0.84539 0.0
C2369 C 0.39981 0.39753 0.86394 0.0
C2370 C 0.43129 0.35771 0.88809 0.0
C2371 C 0.37995 0.40497 0.86148 0.0
C2372 C 0.5079 0.31396 0.87394 0.0
C2373 C 0.4885 0.32273 0.87652 0.0
C2374 C 0.45712 0.36394 0.85752 0.0
C2375 C 0.40325 0.37846 0.87257 0.0
C2376 C 0.42427 0.36945 0.87288 0.0
C2377 C 0.48512 0.34348 0.87226 0.0
C2378 C 0.46416 0.35234 0.87272 0.0
H2379 H 0.35357 0.36637 0.8827 0.0
H2380 H 0.38833 0.35293 0.88648 0.0
H2381 H 0.43245 0.38064 0.84532 0.0
H2382 H 0.53336 0.35654 0.8588 0.0
H2383 H 0.49962 0.37164 0.86317 0.0
C2384 C 0.31861 0.51162 0.36789 0.0
C2385 C 0.32945 0.52891 0.36158 0.0
C2386 C 0.32868 0.49288 0.37054 0.0
C2387 C 0.37389 0.46448 0.35421 0.0
H2388 H 0.36168 0.42801 0.39542 0.0
C2389 C 0.41341 0.38558 0.36089 0.0
C2390 C 0.40046 0.36911 0.36553 0.0
C2391 C 0.40655 0.40584 0.3627 0.0
C2392 C 0.36518 0.43795 0.38375 0.0
H2393 H 0.35963 0.54019 0.35387 0.0
H2394 H 0.37705 0.50761 0.35852 0.0
H2395 H 0.34586 0.4619 0.39424 0.0
H2396 H 0.37046 0.36115 0.37647 0.0
H2397 H 0.35851 0.39619 0.37929 0.0
H2398 H 0.39271 0.44043 0.34339 0.0
C2399 C 0.36073 0.50846 0.36116 0.0
C2400 C 0.3561 0.45737 0.3831 0.0
C2401 C 0.35071 0.52717 0.35859 0.0
C2402 C 0.38086 0.37342 0.3727 0.0
C2403 C 0.37402 0.39359 0.37446 0.0
C2404 C 0.38287 0.44503 0.3548 0.0
C2405 C 0.34979 0.49102 0.36689 0.0
C2406 C 0.3602 0.47078 0.36822 0.0
C2407 C 0.38663 0.41008 0.36919 0.0
C2408 C 0.37846 0.43141 0.36947 0.0
H2409 H 0.30225 0.5124 0.37037 0.0
H2410 H 0.31979 0.47968 0.37485 0.0
H2411 H 0.37716 0.47433 0.34241 0.0
H2412 H 0.42863 0.38283 0.35542 0.0
H2413 H 0.41679 0.41817 0.35878 0.0
C2414 C 0.62531 0.40808 0.35816 0.0
C2415 C 0.64217 0.40082 0.36845 0.0
C2416 C 0.6057 0.40016 0.36114 0.0
C2417 C 0.5796 0.35371 0.3778 0.0
H2418 H 0.53116 0.38769 0.3726 0.0
C2419 C 0.49671 0.3204 0.37872 0.0
C2420 C 0.48383 0.32775 0.36445 0.0
C2421 C 0.5157 0.32975 0.3822 0.0
C2422 C 0.54453 0.37797 0.37404 0.0
H2423 H 0.65141 0.38001 0.3905 0.0
H2424 H 0.61699 0.36619 0.39577 0.0
H2425 H 0.56489 0.40368 0.37394 0.0
H2426 H 0.48075 0.35098 0.34293 0.0
H2427 H 0.51363 0.36709 0.34896 0.0
H2428 H 0.55917 0.32796 0.37749 0.0
C2429 C 0.61908 0.37791 0.38525 0.0
C2430 C 0.56388 0.38714 0.3748 0.0
C2431 C 0.63877 0.38595 0.38233 0.0
C2432 C 0.49025 0.34483 0.354 0.0
C2433 C 0.50908 0.35422 0.35756 0.0
C2434 C 0.56019 0.34452 0.37707 0.0
C2435 C 0.60236 0.38472 0.37448 0.0
C2436 C 0.5817 0.37511 0.37621 0.0
C2437 C 0.5221 0.34678 0.37163 0.0
C2438 C 0.54247 0.35653 0.3747 0.0
H2439 H 0.62732 0.41956 0.3474 0.0
H2440 H 0.59329 0.40561 0.35242 0.0
H2441 H 0.59299 0.34396 0.37872 0.0
H2442 H 0.49224 0.30731 0.38706 0.0
H2443 H 0.52533 0.32373 0.39322 0.0
C2444 C 0.62657 0.64142 0.38528 0.0
C2445 C 0.60879 0.64377 0.37439 0.0
C2446 C 0.63503 0.62195 0.38818 0.0
C2447 C 0.62446 0.56631 0.38519 0.0
H2448 H 0.68155 0.56184 0.37072 0.0
C2449 C 0.65987 0.48978 0.36192 0.0
C2450 C 0.68066 0.48575 0.36561 0.0
C2451 C 0.65128 0.50878 0.36631 0.0
C2452 C 0.66573 0.56277 0.3752 0.0
H2453 H 0.58522 0.62747 0.35909 0.0
H2454 H 0.59977 0.59357 0.36441 0.0
H2455 H 0.66582 0.59555 0.37356 0.0
H2456 H 0.70852 0.49838 0.37744 0.0
H2457 H 0.6934 0.53143 0.38548 0.0
H2458 H 0.62423 0.53357 0.38668 0.0
C2459 C 0.60726 0.60673 0.3706 0.0
C2460 C 0.65671 0.58214 0.37681 0.0
C2461 C 0.59897 0.62617 0.36748 0.0
C2462 C 0.69251 0.50104 0.37424 0.0
C2463 C 0.68385 0.52003 0.37878 0.0
C2464 C 0.63352 0.54694 0.38376 0.0
C2465 C 0.62569 0.60445 0.38052 0.0
C2466 C 0.63586 0.58409 0.3814 0.0
C2467 C 0.66316 0.52424 0.37469 0.0
C2468 C 0.65415 0.54488 0.37829 0.0
H2469 H 0.63452 0.65469 0.39074 0.0
H2470 H 0.64917 0.62061 0.39601 0.0
H2471 H 0.60842 0.56737 0.38897 0.0
H2472 H 0.65027 0.47841 0.35525 0.0
H2473 H 0.63542 0.51151 0.36262 0.0
C2474 C 0.37745 0.61662 0.34723 0.0
C2475 C 0.36291 0.61591 0.36169 0.0
C2476 C 0.39668 0.62536 0.35012 0.0
C2477 C 0.43555 0.63766 0.38442 0.0
H2478 H 0.45233 0.67877 0.34839 0.0
C2479 C 0.51956 0.66382 0.37158 0.0
C2480 C 0.52295 0.68485 0.3685 0.0
C2481 C 0.49965 0.65624 0.37385 0.0
C2482 C 0.44781 0.66748 0.35868 0.0
H2483 H 0.35753 0.62316 0.39079 0.0
H2484 H 0.39163 0.63814 0.39594 0.0
H2485 H 0.41826 0.66354 0.3462 0.0
H2486 H 0.50806 0.71452 0.36628 0.0
H2487 H 0.47336 0.70121 0.36999 0.0
H2488 H 0.46547 0.64121 0.39653 0.0
C2489 C 0.38784 0.63206 0.38232 0.0
C2490 C 0.42838 0.65866 0.35733 0.0
C2491 C 0.36836 0.62356 0.37935 0.0
C2492 C 0.50604 0.69823 0.36855 0.0
C2493 C 0.48614 0.69062 0.3706 0.0
C2494 C 0.4552 0.64628 0.3856 0.0
C2495 C 0.40201 0.63335 0.36761 0.0
C2496 C 0.42213 0.64354 0.37006 0.0
C2497 C 0.48271 0.66951 0.37289 0.0
C2498 C 0.46154 0.66119 0.37265 0.0
H2499 H 0.37383 0.61087 0.33345 0.0
H2500 H 0.40742 0.62597 0.3386 0.0
H2501 H 0.43109 0.62597 0.39435 0.0
H2502 H 0.53226 0.65311 0.37173 0.0
H2503 H 0.49745 0.63988 0.3755 0.0
C2504 C 0.31567 0.49489 0.11962 0.0
C2505 C 0.32746 0.47776 0.1248 0.0
C2506 C 0.32491 0.51405 0.11706 0.0
C2507 C 0.37014 0.54317 0.1323 0.0
H2508 H 0.35342 0.58183 0.09415 0.0
C2509 C 0.40693 0.62336 0.12726 0.0
C2510 C 0.39338 0.63982 0.12435 0.0
C2511 C 0.40031 0.60312 0.12489 0.0
C2512 C 0.35818 0.57126 0.10497 0.0
H2513 H 0.35844 0.46721 0.13039 0.0
H2514 H 0.37447 0.50053 0.12583 0.0
H2515 H 0.33902 0.54728 0.0943 0.0
H2516 H 0.36241 0.64783 0.11599 0.0
H2517 H 0.35085 0.61268 0.11218 0.0
H2518 H 0.38887 0.56717 0.14329 0.0
C2519 C 0.35803 0.49922 0.12406 0.0
C2520 C 0.34992 0.55145 0.10504 0.0
C2521 C 0.34882 0.48008 0.12657 0.0
C2522 C 0.37329 0.63556 0.11837 0.0
C2523 C 0.36667 0.61535 0.11606 0.0
C2524 C 0.37833 0.56296 0.13228 0.0
C2525 C 0.34614 0.51652 0.11964 0.0
C2526 C 0.35569 0.53723 0.1188 0.0
C2527 C 0.37998 0.59885 0.11959 0.0
C2528 C 0.37231 0.57734 0.11872 0.0
H2529 H 0.29919 0.49367 0.11811 0.0
H2530 H 0.31528 0.5271 0.11378 0.0
H2531 H 0.37467 0.53271 0.14329 0.0
H2532 H 0.42256 0.62607 0.13173 0.0
H2533 H 0.41109 0.5908 0.12741 0.0
C2534 C 0.36779 0.38195 0.11006 0.0
C2535 C 0.36277 0.39033 0.12755 0.0
C2536 C 0.38706 0.373 0.10707 0.0
C2537 C 0.42742 0.34628 0.13211 0.0
H2538 H 0.46432 0.36196 0.09216 0.0
C2539 C 0.50401 0.30459 0.1206 0.0
C2540 C 0.52118 0.31763 0.12055 0.0
C2541 C 0.48425 0.31261 0.11854 0.0
C2542 C 0.45409 0.35737 0.1033 0.0
H2543 H 0.37425 0.39614 0.15549 0.0
H2544 H 0.40749 0.38021 0.15033 0.0
H2545 H 0.43034 0.37806 0.09446 0.0
H2546 H 0.53114 0.34912 0.11709 0.0
H2547 H 0.4966 0.36304 0.1132 0.0
H2548 H 0.45103 0.32575 0.1411 0.0
C2549 C 0.39658 0.38064 0.13894 0.0
C2550 C 0.43468 0.36649 0.10455 0.0
C2551 C 0.37755 0.38986 0.14184 0.0
C2552 C 0.51822 0.33869 0.11728 0.0
C2553 C 0.49846 0.34666 0.11496 0.0
C2554 C 0.44661 0.33693 0.13067 0.0
C2555 C 0.40146 0.37194 0.12162 0.0
C2556 C 0.42134 0.36127 0.11918 0.0
C2557 C 0.48125 0.33377 0.11609 0.0
C2558 C 0.46027 0.34258 0.11643 0.0
H2559 H 0.35676 0.38212 0.09877 0.0
H2560 H 0.3905 0.36637 0.09359 0.0
H2561 H 0.41737 0.3419 0.14345 0.0
H2562 H 0.50571 0.28831 0.12309 0.0
H2563 H 0.47126 0.30231 0.11931 0.0
C2564 C 0.65457 0.51707 0.12222 0.0
C2565 C 0.67567 0.52015 0.11922 0.0
C2566 C 0.64587 0.49765 0.12024 0.0
C2567 C 0.65232 0.44613 0.10032 0.0
H2568 H 0.61994 0.42929 0.14299 0.0
C2569 C 0.62519 0.36205 0.11202 0.0
C2570 C 0.60671 0.35889 0.12169 0.0
C2571 C 0.63301 0.3819 0.10963 0.0
C2572 C 0.62856 0.43378 0.13075 0.0
H2573 H 0.7039 0.50528 0.11069 0.0
H2574 H 0.68853 0.47124 0.10704 0.0
H2575 H 0.63457 0.46347 0.14212 0.0
H2576 H 0.58124 0.3741 0.13525 0.0
H2577 H 0.5943 0.4086 0.1304 0.0
H2578 H 0.64607 0.41645 0.08883 0.0
C2579 C 0.67883 0.48398 0.11103 0.0
C2580 C 0.63706 0.4534 0.13032 0.0
C2581 C 0.68762 0.50346 0.11317 0.0
C2582 C 0.59566 0.37602 0.12797 0.0
C2583 C 0.60329 0.39582 0.12532 0.0
C2584 C 0.64357 0.42648 0.10063 0.0
C2585 C 0.65797 0.48079 0.11505 0.0
C2586 C 0.649 0.45984 0.11512 0.0
C2587 C 0.62238 0.39904 0.11664 0.0
C2588 C 0.63152 0.42004 0.11586 0.0
H2589 H 0.64479 0.52955 0.12672 0.0
H2590 H 0.62969 0.49572 0.12314 0.0
H2591 H 0.6614 0.45071 0.08839 0.0
H2592 H 0.63412 0.34915 0.1071 0.0
H2593 H 0.64781 0.38367 0.10299 0.0
C2594 C 0.48365 0.66191 0.13769 0.0
C2595 C 0.47779 0.67902 0.12701 0.0
C2596 C 0.50303 0.65317 0.13561 0.0
C2597 C 0.54845 0.64946 0.10491 0.0
H2598 H 0.57526 0.63441 0.1512 0.0
C2599 C 0.63382 0.62218 0.11078 0.0
C2600 C 0.63777 0.60646 0.12375 0.0
C2601 C 0.61419 0.63087 0.10937 0.0
C2602 C 0.56793 0.63829 0.13811 0.0
H2603 H 0.48757 0.69984 0.10517 0.0
H2604 H 0.52172 0.68457 0.10165 0.0
H2605 H 0.54153 0.6501 0.15202 0.0
H2606 H 0.62381 0.58672 0.14454 0.0
H2607 H 0.5898 0.60162 0.14194 0.0
H2608 H 0.57516 0.63761 0.09106 0.0
C2609 C 0.51115 0.67793 0.1116 0.0
C2610 C 0.54855 0.64731 0.13858 0.0
C2611 C 0.49161 0.68671 0.11366 0.0
C2612 C 0.62143 0.59898 0.13458 0.0
C2613 C 0.60192 0.60761 0.13316 0.0
C2614 C 0.56798 0.64041 0.10443 0.0
C2615 C 0.51721 0.6613 0.12285 0.0
C2616 C 0.53839 0.65273 0.122 0.0
C2617 C 0.59814 0.62402 0.12091 0.0
C2618 C 0.5778 0.63442 0.12105 0.0
H2619 H 0.47334 0.65533 0.1479 0.0
H2620 H 0.50695 0.64005 0.14417 0.0
H2621 H 0.54103 0.6534 0.09188 0.0
H2622 H 0.64604 0.6283 0.1022 0.0
H2623 H 0.61179 0.64349 0.0998 0.0
C2624 C 0.05332 0.22409 0.20277 0.0
C2625 C 0.05037 0.23335 0.18533 0.0
C2626 C 0.04436 0.23233 0.2187 0.0
C2627 C 0.03036 0.25706 0.25172 0.0
H2628 H 0.971 0.25896 0.2493 0.0
C2629 C 0.95579 0.25456 0.30463 0.0
C2630 C 0.96141 0.2364 0.31386 0.0
C2631 C 0.96769 0.26191 0.28974 0.0
C2632 C 0.98758 0.25912 0.25017 0.0
H2633 H 0.03622 0.25882 0.17081 0.0
H2634 H 0.01979 0.27303 0.19891 0.0
H2635 H 0.99101 0.2582 0.22044 0.0
H2636 H 0.98423 0.21232 0.31559 0.0
H2637 H 0.00506 0.22527 0.29013 0.0
H2638 H 0.02692 0.25643 0.28138 0.0
C2639 C 0.02933 0.25951 0.20015 0.0
C2640 C 0.99904 0.25867 0.23366 0.0
C2641 C 0.03873 0.25144 0.18415 0.0
C2642 C 0.97949 0.22629 0.30862 0.0
C2643 C 0.99152 0.23382 0.29415 0.0
C2644 C 0.01895 0.25749 0.26816 0.0
C2645 C 0.03196 0.24988 0.21755 0.0
C2646 C 0.02047 0.2565 0.23433 0.0
C2647 C 0.98561 0.25148 0.28433 0.0
C2648 C 0.99743 0.25739 0.26753 0.0
H2649 H 0.06235 0.21022 0.20408 0.0
H2650 H 0.04642 0.22437 0.23183 0.0
H2651 H 0.04689 0.25571 0.25262 0.0
H2652 H 0.94185 0.26254 0.30844 0.0
H2653 H 0.96278 0.2755 0.2823 0.0
C2654 C 0.75586 0.96673 0.31161 0.0
C2655 C 0.77439 0.95574 0.31183 0.0
C2656 C 0.7487 0.97545 0.29491 0.0
C2657 C 0.75496 0.97292 0.24366 0.0
H2658 H 0.75052 0.0322 0.244 0.0
C2659 C 0.78614 0.02274 0.18591 0.0
C2660 C 0.77518 0.03981 0.17937 0.0
C2661 C 0.77881 0.01123 0.20082 0.0
C2662 C 0.75113 0.01561 0.24368 0.0
H2663 H 0.79932 0.94422 0.29486 0.0
H2664 H 0.78674 0.95889 0.26592 0.0
H2665 H 0.75018 0.01327 0.27352 0.0
H2666 H 0.74778 0.05811 0.18311 0.0
H2667 H 0.73514 0.03812 0.20995 0.0
H2668 H 0.7574 0.97531 0.21399 0.0
C2669 C 0.77774 0.96099 0.27847 0.0
C2670 C 0.75093 0.00477 0.26057 0.0
C2671 C 0.78505 0.95273 0.29508 0.0
C2672 C 0.75646 0.04496 0.18788 0.0
C2673 C 0.74929 0.0336 0.2032 0.0
C2674 C 0.75519 0.9837 0.22686 0.0
C2675 C 0.75971 0.97275 0.27822 0.0
C2676 C 0.75392 0.98343 0.26072 0.0
C2677 C 0.76047 0.01664 0.20979 0.0
C2678 C 0.75434 0.00522 0.22678 0.0
H2679 H 0.74743 0.9693 0.3244 0.0
H2680 H 0.73479 0.98452 0.29508 0.0
H2681 H 0.75699 0.95644 0.24337 0.0
H2682 H 0.80056 0.01833 0.17956 0.0
H2683 H 0.78793 0.99844 0.20577 0.0
C2684 C 0.9811 0.77723 0.18197 0.0
C2685 C 0.96171 0.76859 0.17886 0.0
C2686 C 0.99298 0.77097 0.19706 0.0
C2687 C 0.98764 0.75467 0.24439 0.0
H2688 H 0.04668 0.74835 0.24155 0.0
C2689 C 0.0383 0.76166 0.31008 0.0
C2690 C 0.0552 0.77481 0.30776 0.0
C2691 C 0.0276 0.75423 0.29456 0.0
C2692 C 0.0302 0.75006 0.24262 0.0
H2693 H 0.93962 0.74631 0.18864 0.0
H2694 H 0.96033 0.73569 0.21576 0.0
H2695 H 0.02619 0.74701 0.2131 0.0
H2696 H 0.07476 0.78952 0.28724 0.0
H2697 H 0.05605 0.77697 0.26041 0.0
H2698 H 0.99169 0.7592 0.27369 0.0
C2699 C 0.96638 0.74707 0.20623 0.0
C2700 C 0.01849 0.74914 0.22634 0.0
C2701 C 0.95462 0.75305 0.19077 0.0
C2702 C 0.06175 0.77953 0.28959 0.0
C2703 C 0.05109 0.77213 0.27414 0.0
C2704 C 0.99939 0.75578 0.26068 0.0
C2705 C 0.98558 0.75619 0.2096 0.0
C2706 C 0.99719 0.75222 0.22699 0.0
C2707 C 0.03363 0.75973 0.2764 0.0
C2708 C 0.0209 0.75432 0.25988 0.0
H2709 H 0.98687 0.78924 0.17293 0.0
H2710 H 0.00757 0.77846 0.19943 0.0
H2711 H 0.97126 0.75726 0.24527 0.0
H2712 H 0.03292 0.75762 0.32389 0.0
H2713 H 0.01436 0.74452 0.29679 0.0
C2714 C 0.23412 0.06896 0.2899 0.0
C2715 C 0.23524 0.05918 0.30731 0.0
C2716 C 0.23995 0.05865 0.27371 0.0
C2717 C 0.23236 0.02763 0.2438 0.0
H2718 H 0.27247 0.98401 0.23904 0.0
C2719 C 0.21638 0.9578 0.20056 0.0
C2720 C 0.22885 0.95499 0.1848 0.0
C2721 C 0.22239 0.97093 0.21479 0.0
C2722 C 0.26145 0.99637 0.2401 0.0
H2723 H 0.24495 0.03153 0.32162 0.0
H2724 H 0.25449 0.01326 0.2933 0.0
H2725 H 0.27496 0.00835 0.26513 0.0
H2726 H 0.25819 0.96247 0.1723 0.0
H2727 H 0.26883 0.98565 0.19764 0.0
H2728 H 0.21834 0.0152 0.21937 0.0
C2729 C 0.24943 0.02902 0.29213 0.0
C2730 C 0.26275 0.01018 0.25504 0.0
C2731 C 0.24383 0.03945 0.30838 0.0
C2732 C 0.24825 0.96443 0.18426 0.0
C2733 C 0.25433 0.97763 0.19868 0.0
C2734 C 0.23103 0.01386 0.22906 0.0
C2735 C 0.24673 0.03821 0.27455 0.0
C2736 C 0.24787 0.02565 0.2573 0.0
C2737 C 0.24106 0.98146 0.21369 0.0
C2738 C 0.24517 0.99779 0.22739 0.0
H2739 H 0.22793 0.08432 0.28868 0.0
H2740 H 0.23816 0.06635 0.26042 0.0
H2741 H 0.22043 0.03908 0.24519 0.0
H2742 H 0.20151 0.95048 0.20158 0.0
H2743 H 0.21205 0.97349 0.22639 0.0
C2744 C 0.94507 0.77659 0.78972 0.0
C2745 C 0.95181 0.77178 0.80781 0.0
C2746 C 0.95567 0.76943 0.77415 0.0
C2747 C 0.00752 0.754 0.76042 0.0
H2748 H 0.98069 0.74643 0.71267 0.0
C2749 C 0.05157 0.75443 0.68997 0.0
C2750 C 0.04434 0.77067 0.67892 0.0
C2751 C 0.04009 0.74767 0.70533 0.0
C2752 C 0.9884 0.74819 0.72595 0.0
H2753 H 0.97431 0.75457 0.82369 0.0
H2754 H 0.99278 0.74187 0.79639 0.0
H2755 H 0.96029 0.74637 0.74119 0.0
H2756 H 0.01922 0.79181 0.6744 0.0
H2757 H 0.99898 0.77965 0.70071 0.0
H2758 H 0.03555 0.75652 0.74498 0.0
C2759 C 0.97944 0.75149 0.7943 0.0
C2760 C 0.97674 0.74832 0.74227 0.0
C2761 C 0.96879 0.75869 0.80994 0.0
C2762 C 0.02512 0.7793 0.68279 0.0
C2763 C 0.01349 0.77224 0.69774 0.0
C2764 C 0.01922 0.75365 0.74408 0.0
C2765 C 0.97327 0.75716 0.77622 0.0
C2766 C 0.98602 0.75222 0.75962 0.0
C2767 C 0.02102 0.75668 0.7094 0.0
C2768 C 0.00963 0.75167 0.72666 0.0
H2769 H 0.93198 0.78652 0.78752 0.0
H2770 H 0.9506 0.7744 0.7605 0.0
H2771 H 0.0152 0.75717 0.77349 0.0
H2772 H 0.06644 0.74767 0.68725 0.0
H2773 H 0.04623 0.73571 0.71421 0.0
C2774 C 0.24929 0.04834 0.68982 0.0
C2775 C 0.23094 0.04285 0.68084 0.0
C2776 C 0.25655 0.03669 0.70494 0.0
C2777 C 0.25188 0.98577 0.72707 0.0
H2778 H 0.25494 0.01382 0.77462 0.0
C2779 C 0.22236 0.95106 0.79406 0.0
C2780 C 0.23242 0.95429 0.81109 0.0
C2781 C 0.2296 0.96007 0.77775 0.0
C2782 C 0.25473 0.00576 0.76143 0.0
H2783 H 0.20638 0.02049 0.67992 0.0
H2784 H 0.21917 1.00011 0.70574 0.0
H2785 H 0.25451 0.03376 0.74567 0.0
H2786 H 0.25832 0.96899 0.82443 0.0
H2787 H 0.27084 0.98543 0.79564 0.0
H2788 H 0.25076 0.95788 0.74275 0.0
C2789 C 0.22792 0.01338 0.70136 0.0
C2790 C 0.25449 0.01718 0.74486 0.0
C2791 C 0.22049 0.02517 0.68666 0.0
C2792 C 0.25036 0.96621 0.81141 0.0
C2793 C 0.25744 0.97565 0.79502 0.0
C2794 C 0.25216 0.97441 0.74355 0.0
C2795 C 0.24585 0.01911 0.71084 0.0
C2796 C 0.252 0.0073 0.72761 0.0
C2797 C 0.24696 0.97281 0.77806 0.0
C2798 C 0.25251 0.98432 0.76093 0.0
H2799 H 0.25756 0.06197 0.6856 0.0
H2800 H 0.27037 0.04146 0.7121 0.0
H2801 H 0.25024 0.97777 0.71392 0.0
H2802 H 0.20853 0.94186 0.79342 0.0
H2803 H 0.221 0.9578 0.76499 0.0
C2804 C 0.97208 0.24677 0.68299 0.0
C2805 C 0.95449 0.23452 0.68514 0.0
C2806 C 0.98277 0.2539 0.69865 0.0
C2807 C 0.97914 0.25905 0.75048 0.0
H2808 H 0.03754 0.24805 0.74927 0.0
C2809 C 0.02474 0.2298 0.81266 0.0
C2810 C 0.04473 0.23687 0.81586 0.0
C2811 C 0.01361 0.23672 0.79732 0.0
C2812 C 0.02135 0.2517 0.74975 0.0
H2813 H 0.93368 0.22123 0.70543 0.0
H2814 H 0.95231 0.23331 0.73248 0.0
H2815 H 0.01781 0.24705 0.72041 0.0
H2816 H 0.06874 0.257 0.80599 0.0
H2817 H 0.04933 0.26882 0.77851 0.0
H2818 H 0.98253 0.26226 0.78005 0.0
C2819 C 0.95786 0.23763 0.71881 0.0
C2820 C 0.01 0.25113 0.7332 0.0
C2821 C 0.94724 0.2305 0.70323 0.0
C2822 C 0.05324 0.25154 0.80382 0.0
C2823 C 0.04221 0.25818 0.78813 0.0
C2824 C 0.99044 0.25944 0.76702 0.0
C2825 C 0.97601 0.24904 0.71675 0.0
C2826 C 0.98861 0.25397 0.73348 0.0
C2827 C 0.02239 0.25056 0.78462 0.0
C2828 C 0.0115 0.25499 0.76691 0.0
H2829 H 0.97802 0.25022 0.66925 0.0
H2830 H 0.99658 0.26283 0.69658 0.0
H2831 H 0.96278 0.2618 0.75115 0.0
H2832 H 0.01795 0.21839 0.82176 0.0
H2833 H 0.99851 0.23036 0.79485 0.0
C2834 C 0.75594 0.95778 0.68911 0.0
C2835 C 0.77546 0.96181 0.68166 0.0
C2836 C 0.74818 0.96997 0.7036 0.0
C2837 C 0.75333 0.02051 0.72527 0.0
H2838 H 0.74834 0.99389 0.77341 0.0
C2839 C 0.78289 0.05606 0.79146 0.0
C2840 C 0.77294 0.05321 0.8086 0.0
C2841 C 0.77531 0.047 0.77532 0.0
C2842 C 0.74902 1.00158 0.76003 0.0
H2843 H 0.80176 0.98209 0.68281 0.0
H2844 H 0.78807 0.00352 0.70756 0.0
H2845 H 0.74905 0.97315 0.74499 0.0
H2846 H 0.74681 0.03926 0.82227 0.0
H2847 H 0.73369 0.02277 0.7938 0.0
H2848 H 0.75463 0.04881 0.74024 0.0
C2849 C 0.77883 0.99092 0.70244 0.0
C2850 C 0.74944 0.9897 0.74378 0.0
C2851 C 0.78674 0.97854 0.6884 0.0
C2852 C 0.75475 0.04168 0.80919 0.0
C2853 C 0.7473 0.03224 0.79297 0.0
C2854 C 0.75279 0.03235 0.74143 0.0
C2855 C 0.75961 0.98666 0.71032 0.0
C2856 C 0.75273 0.99904 0.7264 0.0
C2857 C 0.75768 0.03466 0.77592 0.0
C2858 C 0.75185 0.02292 0.75903 0.0
H2859 H 0.74701 0.9449 0.68413 0.0
H2860 H 0.73338 0.96635 0.7096 0.0
H2861 H 0.75569 0.02804 0.71197 0.0
H2862 H 0.79685 0.06502 0.79058 0.0
H2863 H 0.78387 0.04892 0.7625 0.0
C2864 C 0.45748 0.72294 0.79154 0.0
C2865 C 0.45648 0.73364 0.8085 0.0
C2866 C 0.47066 0.72937 0.77747 0.0
C2867 C 0.49794 0.7656 0.75285 0.0
H2868 H 0.54099 0.72469 0.75003 0.0
C2869 C 0.56972 0.73502 0.70348 0.0
C2870 C 0.55964 0.73566 0.68618 0.0
C2871 C 0.55976 0.74156 0.71965 0.0
C2872 C 0.5295 0.73664 0.75078 0.0
H2873 H 0.46733 0.76033 0.82354 0.0
H2874 H 0.49075 0.77162 0.79858 0.0
H2875 H 0.51726 0.72432 0.77609 0.0
H2876 H 0.53178 0.74506 0.67205 0.0
H2877 H 0.51413 0.75574 0.70028 0.0
H2878 H 0.50962 0.7774 0.72703 0.0
C2879 C 0.48116 0.75828 0.79639 0.0
C2880 C 0.51585 0.73631 0.7657 0.0
C2881 C 0.46781 0.75185 0.81058 0.0
C2882 C 0.53993 0.74428 0.68519 0.0
C2883 C 0.52986 0.75058 0.7014 0.0
C2884 C 0.51167 0.76596 0.73782 0.0
C2885 C 0.48307 0.74664 0.78003 0.0
C2886 C 0.49965 0.75036 0.76654 0.0
C2887 C 0.53938 0.7486 0.71891 0.0
C2888 C 0.52721 0.75103 0.73632 0.0
H2889 H 0.44874 0.709 0.78946 0.0
H2890 H 0.47192 0.72024 0.7649 0.0
H2891 H 0.48538 0.77647 0.75325 0.0
H2892 H 0.58507 0.7288 0.70463 0.0
H2893 H 0.56773 0.74028 0.73284 0.0
C2894 C 0.26695 0.53554 0.68188 0.0
C2895 C 0.27453 0.55568 0.68274 0.0
C2896 C 0.26104 0.52528 0.69819 0.0
C2897 C 0.24567 0.50723 0.73506 0.0
H2898 H 0.28575 0.51594 0.7742 0.0
C2899 C 0.25664 0.46854 0.81081 0.0
C2900 C 0.27495 0.45715 0.81021 0.0
C2901 C 0.251 0.48094 0.79559 0.0
C2902 C 0.2742 0.51364 0.76355 0.0
H2903 H 0.27993 0.58155 0.70103 0.0
H2904 H 0.26909 0.56396 0.72931 0.0
H2905 H 0.2858 0.53815 0.747 0.0
H2906 H 0.30067 0.44841 0.79273 0.0
H2907 H 0.29086 0.46997 0.76652 0.0
H2908 H 0.23506 0.48173 0.75155 0.0
C2909 C 0.26835 0.55577 0.71619 0.0
C2910 C 0.27413 0.5264 0.74796 0.0
C2911 C 0.27449 0.5659 0.69997 0.0
C2912 C 0.28665 0.45725 0.79374 0.0
C2913 C 0.28103 0.46949 0.7787 0.0
C2914 C 0.24574 0.49442 0.7508 0.0
C2915 C 0.2624 0.53506 0.71565 0.0
C2916 C 0.2602 0.52311 0.73327 0.0
C2917 C 0.26354 0.48187 0.77968 0.0
C2918 C 0.26033 0.49731 0.76492 0.0
H2919 H 0.26681 0.52725 0.6688 0.0
H2920 H 0.25667 0.50931 0.69721 0.0
H2921 H 0.23464 0.50435 0.72409 0.0
H2922 H 0.24737 0.46875 0.82333 0.0
H2923 H 0.23747 0.49051 0.7966 0.0
C2924 C 0.5255 0.27971 0.80925 0.0
C2925 C 0.54473 0.27119 0.81331 0.0
C2926 C 0.51373 0.27203 0.79464 0.0
C2927 C 0.51898 0.25193 0.74898 0.0
H2928 H 0.46016 0.24425 0.75262 0.0
C2929 C 0.46791 0.25613 0.6836 0.0
C2930 C 0.45098 0.26927 0.6858 0.0
C2931 C 0.47864 0.24891 0.6992 0.0
C2932 C 0.47658 0.24628 0.75133 0.0
H2933 H 0.56671 0.2478 0.80571 0.0
H2934 H 0.54627 0.23477 0.77931 0.0
H2935 H 0.48092 0.24515 0.78092 0.0
H2936 H 0.43125 0.28399 0.70615 0.0
H2937 H 0.45002 0.27186 0.73309 0.0
H2938 H 0.51457 0.25481 0.71956 0.0
C2939 C 0.54023 0.2471 0.78778 0.0
C2940 C 0.48844 0.24663 0.76753 0.0
C2941 C 0.55184 0.25449 0.80282 0.0
C2942 C 0.44431 0.27403 0.70391 0.0
C2943 C 0.455 0.26686 0.71943 0.0
C2944 C 0.50707 0.25184 0.73276 0.0
C2945 C 0.52114 0.25597 0.78352 0.0
C2946 C 0.50962 0.25029 0.76653 0.0
C2947 C 0.47261 0.25463 0.7173 0.0
C2948 C 0.48561 0.24993 0.73382 0.0
H2949 H 0.5197 0.29257 0.81722 0.0
H2950 H 0.49921 0.27933 0.7915 0.0
H2951 H 0.53527 0.25493 0.74787 0.0
H2952 H 0.47337 0.25205 0.66984 0.0
H2953 H 0.49197 0.23931 0.69707 0.0
C2954 C 0.75243 0.46252 0.68221 0.0
C2955 C 0.73484 0.45012 0.68316 0.0
C2956 C 0.75982 0.47229 0.6983 0.0
C2957 C 0.75527 0.47242 0.75004 0.0
H2958 H 0.75689 0.53166 0.74578 0.0
C2959 C 0.72223 0.52564 0.80434 0.0
C2960 C 0.73271 0.54345 0.80976 0.0
C2961 C 0.72997 0.51318 0.79026 0.0
C2962 C 0.75707 0.51513 0.74718 0.0
H2963 H 0.71205 0.43707 0.70163 0.0
H2964 H 0.72497 0.45368 0.72952 0.0
H2965 H 0.75757 0.51058 0.71759 0.0
H2966 H 0.75964 0.56213 0.80498 0.0
H2967 H 0.77294 0.54046 0.7795 0.0
H2968 H 0.75314 0.47702 0.77952 0.0
C2969 C 0.7331 0.45604 0.71653 0.0
C2970 C 0.75747 0.50304 0.73105 0.0
C2971 C 0.72557 0.44664 0.70052 0.0
C2972 C 0.75135 0.54841 0.80104 0.0
C2973 C 0.7589 0.5361 0.78652 0.0
C2974 C 0.75477 0.48447 0.7661 0.0
C2975 C 0.74999 0.46937 0.71558 0.0
C2976 C 0.75549 0.48161 0.73231 0.0
C2977 C 0.7482 0.51839 0.78101 0.0
C2978 C 0.75463 0.50594 0.76476 0.0
H2979 H 0.75978 0.46548 0.66894 0.0
H2980 H 0.77286 0.48248 0.69718 0.0
H2981 H 0.75411 0.45593 0.75145 0.0
H2982 H 0.70789 0.5214 0.81092 0.0
H2983 H 0.72124 0.49981 0.78613 0.0
C2984 C 0.4461 0.28167 0.29005 0.0
C2985 C 0.45276 0.27626 0.30802 0.0
C2986 C 0.45593 0.27385 0.27432 0.0
C2987 C 0.50627 0.25513 0.25977 0.0
H2988 H 0.47799 0.24796 0.21267 0.0
C2989 C 0.54942 0.25309 0.18923 0.0
C2990 C 0.54226 0.26893 0.17769 0.0
C2991 C 0.53785 0.24688 0.20472 0.0
C2992 C 0.48609 0.24963 0.22577 0.0
H2993 H 0.47429 0.25744 0.32352 0.0
H2994 H 0.49143 0.24371 0.29595 0.0
H2995 H 0.45827 0.24978 0.24154 0.0
H2996 H 0.51708 0.28977 0.17234 0.0
H2997 H 0.49677 0.27868 0.19893 0.0
H2998 H 0.53403 0.25585 0.24383 0.0
C2999 C 0.47874 0.25423 0.29409 0.0
C3000 C 0.47482 0.2508 0.24228 0.0
C3001 C 0.46886 0.26205 0.30988 0.0
C3002 C 0.52295 0.27759 0.18114 0.0
C3003 C 0.51126 0.27112 0.19626 0.0
C3004 C 0.51756 0.25382 0.24324 0.0
C3005 C 0.47265 0.26037 0.27613 0.0
C3006 C 0.48471 0.25452 0.25936 0.0
C3007 C 0.51877 0.25607 0.20848 0.0
C3008 C 0.50749 0.25199 0.22602 0.0
H3009 H 0.43367 0.29247 0.28808 0.0
H3010 H 0.45099 0.27916 0.26073 0.0
H3011 H 0.51439 0.25811 0.27266 0.0
H3012 H 0.56434 0.24629 0.18682 0.0
H3013 H 0.54397 0.23527 0.21399 0.0
C3014 C 0.74815 0.5456 0.1829 0.0
C3015 C 0.73004 0.53947 0.17387 0.0
C3016 C 0.75558 0.53441 0.19823 0.0
C3017 C 0.7514 0.48407 0.22182 0.0
H3018 H 0.75443 0.51423 0.2683 0.0
C3019 C 0.7228 0.45191 0.29026 0.0
C3020 C 0.73295 0.45603 0.30709 0.0
C3021 C 0.72976 0.46032 0.27358 0.0
C3022 C 0.75422 0.50558 0.25541 0.0
H3023 H 0.70612 0.51644 0.17303 0.0
H3024 H 0.71921 0.49683 0.19924 0.0
H3025 H 0.75374 0.53285 0.23866 0.0
H3026 H 0.75873 0.47169 0.31969 0.0
H3027 H 0.77074 0.48707 0.29024 0.0
H3028 H 0.75057 0.45689 0.23852 0.0
C3029 C 0.72767 0.51022 0.19472 0.0
C3030 C 0.75382 0.51625 0.23844 0.0
C3031 C 0.72007 0.52156 0.17979 0.0
C3032 C 0.7507 0.46824 0.30685 0.0
C3033 C 0.75749 0.47707 0.29008 0.0
C3034 C 0.75181 0.47345 0.23871 0.0
C3035 C 0.74527 0.51667 0.20434 0.0
C3036 C 0.75137 0.5056 0.22156 0.0
C3037 C 0.74692 0.47332 0.27331 0.0
C3038 C 0.75218 0.48413 0.25571 0.0
H3039 H 0.75602 0.55945 0.17863 0.0
H3040 H 0.76915 0.53973 0.20545 0.0
H3041 H 0.74983 0.47547 0.20898 0.0
H3042 H 0.70914 0.44245 0.29004 0.0
H3043 H 0.72109 0.45735 0.26098 0.0
C3044 C 0.43976 0.7263 0.20094 0.0
C3045 C 0.44846 0.72943 0.18324 0.0
C3046 C 0.45053 0.73164 0.21703 0.0
C3047 C 0.48371 0.72492 0.24531 0.0
H3048 H 0.52103 0.77053 0.2527 0.0
C3049 C 0.55161 0.71681 0.293 0.0
C3050 C 0.55181 0.72984 0.30857 0.0
C3051 C 0.53938 0.72126 0.27766 0.0
C3052 C 0.5105 0.75786 0.25084 0.0
H3053 H 0.47458 0.74216 0.16853 0.0
H3054 H 0.4936 0.75109 0.19671 0.0
H3055 H 0.49682 0.77103 0.22633 0.0
H3056 H 0.54072 0.75866 0.31969 0.0
H3057 H 0.51905 0.76655 0.29243 0.0
H3058 H 0.49767 0.71142 0.2693 0.0
C3059 C 0.47836 0.74467 0.19812 0.0
C3060 C 0.49677 0.75807 0.23576 0.0
C3061 C 0.46751 0.73944 0.18197 0.0
C3062 C 0.54082 0.74837 0.30785 0.0
C3063 C 0.52845 0.75286 0.29233 0.0
C3064 C 0.49745 0.72464 0.26014 0.0
C3065 C 0.47031 0.74009 0.21582 0.0
C3066 C 0.48341 0.74143 0.23273 0.0
C3067 C 0.52706 0.73886 0.27749 0.0
C3068 C 0.51123 0.74087 0.26285 0.0
H3069 H 0.42495 0.71897 0.2024 0.0
H3070 H 0.44372 0.72831 0.23047 0.0
H3071 H 0.47392 0.71171 0.24326 0.0
H3072 H 0.56021 0.70259 0.29305 0.0
H3073 H 0.53878 0.71041 0.26624 0.0
C3074 C 0.28378 0.47748 0.18456 0.0
C3075 C 0.27327 0.45962 0.17936 0.0
C3076 C 0.27647 0.4898 0.19893 0.0
C3077 C 0.25059 0.48753 0.24276 0.0
H3078 H 0.25299 0.54676 0.23857 0.0
C3079 C 0.25477 0.54081 0.30764 0.0
C3080 C 0.27208 0.5536 0.30658 0.0
C3081 C 0.2477 0.53056 0.29167 0.0
C3082 C 0.25201 0.53025 0.23997 0.0
H3083 H 0.24668 0.44069 0.18487 0.0
H3084 H 0.23411 0.46213 0.2108 0.0
H3085 H 0.25362 0.52575 0.21044 0.0
H3086 H 0.29475 0.56668 0.28799 0.0
H3087 H 0.28237 0.54924 0.26034 0.0
H3088 H 0.25052 0.49203 0.27238 0.0
C3089 C 0.24786 0.46664 0.20341 0.0
C3090 C 0.25232 0.51825 0.22388 0.0
C3091 C 0.25499 0.45446 0.18861 0.0
C3092 C 0.28145 0.55682 0.28922 0.0
C3093 C 0.27422 0.54695 0.27333 0.0
C3094 C 0.25037 0.49958 0.25893 0.0
C3095 C 0.25862 0.4844 0.2087 0.0
C3096 C 0.25261 0.49677 0.22515 0.0
C3097 C 0.25755 0.53337 0.27438 0.0
C3098 C 0.25211 0.52103 0.25769 0.0
H3099 H 0.29786 0.48187 0.17759 0.0
H3100 H 0.28524 0.50323 0.20285 0.0
H3101 H 0.25089 0.471 0.24412 0.0
H3102 H 0.24733 0.53804 0.3209 0.0
H3103 H 0.23482 0.52017 0.29287 0.0
C3104 C 0.10662 0.21186 0.92943 0.0
C3105 C 0.08806 0.21384 0.91962 0.0
C3106 C 0.10675 0.21114 0.94889 0.0
C3107 C 0.0757 0.22517 0.98984 0.0
H3108 H 0.11118 0.18698 0.0159 0.0
C3109 C 0.06986 0.212 0.06899 0.0
C3110 C 0.08834 0.21077 0.07903 0.0
C3111 C 0.06994 0.21196 0.04954 0.0
C3112 C 0.10134 0.19787 0.00881 0.0
H3113 H 0.05503 0.21634 0.92261 0.0
H3114 H 0.05528 0.21492 0.95653 0.0
H3115 H 0.11108 0.18768 0.98187 0.0
H3116 H 0.1214 0.20827 0.07644 0.0
H3117 H 0.12152 0.20838 0.04245 0.0
H3118 H 0.06596 0.23537 0.01674 0.0
C3119 C 0.06976 0.21423 0.94916 0.0
C3120 C 0.10129 0.19827 0.98934 0.0
C3121 C 0.06962 0.21495 0.92972 0.0
C3122 C 0.10689 0.20926 0.06915 0.0
C3123 C 0.10696 0.2092 0.04967 0.0
C3124 C 0.07575 0.22475 0.00929 0.0
C3125 C 0.08832 0.21238 0.95897 0.0
C3126 C 0.08845 0.21191 0.97964 0.0
C3127 C 0.08849 0.21067 0.03966 0.0
C3128 C 0.08854 0.21108 0.01899 0.0
H3129 H 0.12111 0.21095 0.92209 0.0
H3130 H 0.12132 0.20993 0.95605 0.0
H3131 H 0.06589 0.2361 0.98278 0.0
H3132 H 0.05527 0.21303 0.07614 0.0
H3133 H 0.05544 0.21279 0.04222 0.0
C3134 C 0.79242 0.10509 0.06598 0.0
C3135 C 0.79104 0.08628 0.07547 0.0
C3136 C 0.79242 0.1057 0.04651 0.0
C3137 C 0.7779 0.07531 0.00519 0.0
H3138 H 0.81546 0.11152 0.97926 0.0
C3139 C 0.79098 0.0706 0.92585 0.0
C3140 C 0.79208 0.08922 0.91603 0.0
C3141 C 0.79087 0.07042 0.94532 0.0
C3142 C 0.80474 0.10149 0.9863 0.0
H3143 H 0.78873 0.05331 0.07187 0.0
H3144 H 0.78891 0.05439 0.03798 0.0
H3145 H 0.81508 0.11099 0.01327 0.0
H3146 H 0.7941 0.12228 0.91902 0.0
H3147 H 0.79375 0.12193 0.95298 0.0
H3148 H 0.76761 0.06577 0.97824 0.0
C3149 C 0.78968 0.0687 0.04559 0.0
C3150 C 0.8045 0.10119 0.00577 0.0
C3151 C 0.78968 0.06809 0.06504 0.0
C3152 C 0.79322 0.10765 0.92613 0.0
C3153 C 0.79314 0.10746 0.9456 0.0
C3154 C 0.77815 0.07559 0.98573 0.0
C3155 C 0.79105 0.0875 0.03611 0.0
C3156 C 0.79111 0.08806 0.01543 0.0
C3157 C 0.7919 0.08885 0.9554 0.0
C3158 C 0.7916 0.08865 0.97607 0.0
H3159 H 0.79348 0.1194 0.07358 0.0
H3160 H 0.79326 0.12044 0.0396 0.0
H3161 H 0.76717 0.06526 0.01221 0.0
H3162 H 0.7902 0.05611 0.91852 0.0
H3163 H 0.79019 0.05582 0.95248 0.0
C3164 C 0.93257 0.78503 0.92662 0.0
C3165 C 0.91709 0.7956 0.91698 0.0
C3166 C 0.93257 0.78439 0.94607 0.0
C3167 C 0.91007 0.80928 0.98789 0.0
H3168 H 0.92491 0.75797 0.01169 0.0
C3169 C 0.89722 0.79311 0.06633 0.0
C3170 C 0.91436 0.7853 0.07584 0.0
C3171 C 0.89723 0.79434 0.04688 0.0
C3172 C 0.92082 0.77241 0.00521 0.0
H3173 H 0.88966 0.81412 0.92019 0.0
H3174 H 0.88936 0.81256 0.95403 0.0
H3175 H 0.92602 0.7607 0.97782 0.0
H3176 H 0.94476 0.77227 0.07245 0.0
H3177 H 0.94461 0.77418 0.03853 0.0
H3178 H 0.9045 0.82077 0.01541 0.0
C3179 C 0.90174 0.80508 0.94663 0.0
C3180 C 0.92158 0.77404 0.98583 0.0
C3181 C 0.90186 0.80589 0.92719 0.0
C3182 C 0.93133 0.77839 0.06553 0.0
C3183 C 0.93122 0.77938 0.04612 0.0
C3184 C 0.90911 0.80756 0.00728 0.0
C3185 C 0.91698 0.79416 0.9563 0.0
C3186 C 0.9163 0.79253 0.97694 0.0
C3187 C 0.91426 0.78752 0.03663 0.0
C3188 C 0.91457 0.78914 0.01609 0.0
H3189 H 0.94463 0.77712 0.91914 0.0
H3190 H 0.94478 0.77621 0.95309 0.0
H3191 H 0.9062 0.82383 0.98153 0.0
H3192 H 0.88396 0.79863 0.07391 0.0
H3193 H 0.88391 0.80055 0.03983 0.0
C3194 C 0.21543 0.93731 0.92882 0.0
C3195 C 0.21326 0.91888 0.91887 0.0
C3196 C 0.21573 0.93722 0.94829 0.0
C3197 C 0.22537 0.9034 0.98847 0.0
H3198 H 0.19434 0.94406 0.01599 0.0
C3199 C 0.21215 0.89754 0.0677 0.0
C3200 C 0.21378 0.91572 0.07809 0.0
C3201 C 0.21234 0.89813 0.04825 0.0
C3202 C 0.20328 0.93275 0.0085 0.0
H3203 H 0.20953 0.88592 0.92161 0.0
H3204 H 0.20992 0.88586 0.9555 0.0
H3205 H 0.19434 0.9449 0.98198 0.0
H3206 H 0.21689 0.94881 0.07616 0.0
H3207 H 0.21746 0.94975 0.04225 0.0
H3208 H 0.2343 0.89124 0.01495 0.0
C3209 C 0.21167 0.90032 0.94825 0.0
C3210 C 0.20327 0.93324 0.98904 0.0
C3211 C 0.21133 0.9004 0.92881 0.0
C3212 C 0.2156 0.9345 0.0686 0.0
C3213 C 0.21579 0.93508 0.04916 0.0
C3214 C 0.22539 0.90292 0.00791 0.0
C3215 C 0.2139 0.91871 0.95819 0.0
C3216 C 0.21425 0.91852 0.97883 0.0
C3217 C 0.21415 0.91691 0.03878 0.0
C3218 C 0.21429 0.91755 0.01813 0.0
H3219 H 0.21693 0.95181 0.92159 0.0
H3220 H 0.21765 0.95162 0.9556 0.0
H3221 H 0.23424 0.89205 0.98097 0.0
H3222 H 0.21062 0.88283 0.07457 0.0
H3223 H 0.21078 0.88389 0.04062 0.0
C3224 C 0.10739 0.79652 0.56605 0.0
C3225 C 0.09012 0.78893 0.5755 0.0
C3226 C 0.10737 0.79802 0.54663 0.0
C3227 C 0.08347 0.77694 0.50482 0.0
H3228 H 0.09979 0.828 0.48141 0.0
C3229 C 0.07353 0.78968 0.42614 0.0
C3230 C 0.08954 0.79968 0.41672 0.0
C3231 C 0.07308 0.78924 0.44558 0.0
C3232 C 0.09543 0.81355 0.48771 0.0
H3233 H 0.05941 0.77667 0.57203 0.0
H3234 H 0.05954 0.77905 0.53811 0.0
H3235 H 0.10087 0.82485 0.51531 0.0
H3236 H 0.1174 0.81743 0.42027 0.0
H3237 H 0.11692 0.81617 0.45415 0.0
H3238 H 0.07843 0.7654 0.47736 0.0
C3239 C 0.07304 0.78386 0.54575 0.0
C3240 C 0.09603 0.81178 0.5071 0.0
C3241 C 0.07296 0.78258 0.56515 0.0
C3242 C 0.10482 0.80964 0.42713 0.0
C3243 C 0.10449 0.809 0.44657 0.0
C3244 C 0.08307 0.77862 0.48545 0.0
C3245 C 0.09018 0.79172 0.53633 0.0
C3246 C 0.08999 0.79348 0.51581 0.0
C3247 C 0.08874 0.7986 0.45602 0.0
C3248 C 0.08897 0.79697 0.47666 0.0
H3249 H 0.1208 0.80162 0.57366 0.0
H3250 H 0.12083 0.804 0.53964 0.0
H3251 H 0.07895 0.76258 0.51122 0.0
H3252 H 0.0614 0.78207 0.4185 0.0
H3253 H 0.06048 0.78147 0.45243 0.0
C3254 C 0.19918 0.10362 0.4278 0.0
C3255 C 0.21001 0.08918 0.41711 0.0
C3256 C 0.19889 0.10221 0.4472 0.0
C3257 C 0.22745 0.07926 0.48658 0.0
H3258 H 0.17924 0.09528 0.51466 0.0
C3259 C 0.22013 0.06899 0.56637 0.0
C3260 C 0.21304 0.0862 0.57625 0.0
C3261 C 0.21953 0.06869 0.54692 0.0
C3262 C 0.19283 0.09087 0.50697 0.0
H3263 H 0.2284 0.06152 0.41836 0.0
H3264 H 0.22742 0.05872 0.45223 0.0
H3265 H 0.17802 0.09515 0.48068 0.0
H3266 H 0.19961 0.11648 0.57349 0.0
H3267 H 0.19841 0.11582 0.53947 0.0
H3268 H 0.24211 0.07472 0.51299 0.0
C3269 C 0.21963 0.07147 0.44564 0.0
C3270 C 0.19218 0.09084 0.48752 0.0
C3271 C 0.2201 0.073 0.42622 0.0
C3272 C 0.20528 0.10305 0.56628 0.0
C3273 C 0.20445 0.10263 0.54683 0.0
C3274 C 0.22802 0.07908 0.50604 0.0
C3275 C 0.20921 0.08619 0.45638 0.0
C3276 C 0.20955 0.08523 0.47708 0.0
C3277 C 0.21158 0.08545 0.53699 0.0
C3278 C 0.21078 0.08506 0.51639 0.0
H3279 H 0.1913 0.11633 0.42122 0.0
H3280 H 0.19098 0.114 0.45501 0.0
H3281 H 0.24122 0.07519 0.47901 0.0
H3282 H 0.22619 0.05576 0.57365 0.0
H3283 H 0.225 0.05521 0.53964 0.0
C3284 C 0.93365 0.22033 0.56675 0.0
C3285 C 0.91802 0.21012 0.57652 0.0
C3286 C 0.93385 0.2204 0.54728 0.0
C3287 C 0.91155 0.19431 0.50587 0.0
H3288 H 0.92799 0.2443 0.48069 0.0
C3289 C 0.89924 0.2086 0.42697 0.0
C3290 C 0.91638 0.21605 0.41721 0.0
C3291 C 0.89945 0.20756 0.44643 0.0
C3292 C 0.92348 0.23021 0.48755 0.0
H3293 H 0.89043 0.19183 0.57351 0.0
H3294 H 0.89044 0.19247 0.53962 0.0
H3295 H 0.92852 0.24285 0.51463 0.0
H3296 H 0.9471 0.22843 0.42023 0.0
H3297 H 0.94728 0.22688 0.45419 0.0
H3298 H 0.90608 0.18193 0.47865 0.0
C3299 C 0.90282 0.20004 0.54694 0.0
C3300 C 0.92388 0.22931 0.50699 0.0
C3301 C 0.90275 0.19977 0.56641 0.0
C3302 C 0.93365 0.2226 0.42732 0.0
C3303 C 0.93374 0.22181 0.44676 0.0
C3304 C 0.91093 0.19531 0.48642 0.0
C3305 C 0.9183 0.21047 0.53713 0.0
C3306 C 0.91799 0.21133 0.51641 0.0
C3307 C 0.91669 0.21422 0.45649 0.0
C3308 C 0.91696 0.21324 0.4771 0.0
H3309 H 0.94575 0.22827 0.57415 0.0
H3310 H 0.94625 0.22822 0.5402 0.0
H3311 H 0.90722 0.18011 0.51262 0.0
H3312 H 0.88576 0.20334 0.41957 0.0
H3313 H 0.88606 0.20176 0.45364 0.0
C3314 C 0.79531 0.89912 0.42858 0.0
C3315 C 0.79369 0.91786 0.419 0.0
C3316 C 0.7953 0.89861 0.44804 0.0
C3317 C 0.78036 0.92909 0.48916 0.0
H3318 H 0.81762 0.89283 0.51545 0.0
C3319 C 0.79357 0.93471 0.56825 0.0
C3320 C 0.79421 0.91626 0.57839 0.0
C3321 C 0.79349 0.93451 0.54881 0.0
C3322 C 0.80698 0.90287 0.50829 0.0
H3323 H 0.79103 0.95081 0.42241 0.0
H3324 H 0.79127 0.94993 0.45633 0.0
H3325 H 0.81756 0.89334 0.48142 0.0
H3326 H 0.79554 0.88313 0.57599 0.0
H3327 H 0.79535 0.88282 0.54196 0.0
H3328 H 0.76989 0.93873 0.51602 0.0
C3329 C 0.79219 0.93559 0.44879 0.0
C3330 C 0.80693 0.90316 0.48881 0.0
C3331 C 0.79215 0.9361 0.42933 0.0
C3332 C 0.795 0.89761 0.56861 0.0
C3333 C 0.795 0.89743 0.54913 0.0
C3334 C 0.78045 0.92884 0.50861 0.0
C3335 C 0.79373 0.91684 0.45836 0.0
C3336 C 0.79366 0.91633 0.47904 0.0
C3337 C 0.79413 0.91588 0.53904 0.0
C3338 C 0.79381 0.91579 0.51838 0.0
H3339 H 0.7965 0.88476 0.42106 0.0
H3340 H 0.79626 0.88391 0.45499 0.0
H3341 H 0.76969 0.93914 0.48205 0.0
H3342 H 0.79306 0.94938 0.57531 0.0
H3343 H 0.79313 0.94899 0.54141 0.0
C3344 C 0.60431 0.71112 0.42741 0.0
C3345 C 0.58766 0.71867 0.41705 0.0
C3346 C 0.60319 0.7099 0.4468 0.0
C3347 C 0.57781 0.73156 0.48749 0.0
H3348 H 0.59393 0.68083 0.51163 0.0
C3349 C 0.57136 0.72103 0.56708 0.0
C3350 C 0.58775 0.71099 0.57592 0.0
C3351 C 0.56974 0.72103 0.54766 0.0
C3352 C 0.58958 0.69518 0.50514 0.0
H3353 H 0.5569 0.73122 0.4189 0.0
H3354 H 0.55514 0.7294 0.4529 0.0
H3355 H 0.59476 0.6833 0.47772 0.0
H3356 H 0.61514 0.69278 0.57132 0.0
H3357 H 0.61265 0.69326 0.53756 0.0
H3358 H 0.57325 0.74372 0.51483 0.0
C3359 C 0.56899 0.72436 0.44594 0.0
C3360 C 0.59001 0.69655 0.48573 0.0
C3361 C 0.57 0.72534 0.4265 0.0
C3362 C 0.60227 0.70061 0.56496 0.0
C3363 C 0.60076 0.70078 0.54557 0.0
C3364 C 0.5776 0.73027 0.50692 0.0
C3365 C 0.58549 0.71642 0.45623 0.0
C3366 C 0.58429 0.7148 0.47675 0.0
C3367 C 0.58457 0.71113 0.53666 0.0
C3368 C 0.58365 0.71212 0.51599 0.0
H3369 H 0.61809 0.70576 0.42054 0.0
H3370 H 0.6162 0.70392 0.45446 0.0
H3371 H 0.57348 0.74585 0.48087 0.0
H3372 H 0.55981 0.729 0.57516 0.0
H3373 H 0.55687 0.72884 0.54128 0.0
C3374 C 0.30192 0.60721 0.42357 0.0
C3375 C 0.29439 0.59028 0.41361 0.0
C3376 C 0.30349 0.60653 0.443 0.0
C3377 C 0.3038 0.57006 0.4831 0.0
H3378 H 0.29309 0.61935 0.51164 0.0
C3379 C 0.29222 0.57155 0.56342 0.0
C3380 C 0.30269 0.58704 0.57316 0.0
C3381 C 0.29214 0.57129 0.54391 0.0
C3382 C 0.29628 0.60551 0.50383 0.0
H3383 H 0.2824 0.55941 0.41627 0.0
H3384 H 0.28442 0.55848 0.45013 0.0
H3385 H 0.29059 0.62034 0.47778 0.0
H3386 H 0.32161 0.61421 0.56998 0.0
H3387 H 0.32119 0.61386 0.53599 0.0
H3388 H 0.30887 0.55518 0.50939 0.0
C3389 C 0.28968 0.57211 0.44297 0.0
C3390 C 0.29494 0.60606 0.4844 0.0
C3391 C 0.28837 0.57269 0.42352 0.0
C3392 C 0.31337 0.60205 0.56295 0.0
C3393 C 0.31305 0.60194 0.54348 0.0
C3394 C 0.30487 0.56945 0.50258 0.0
C3395 C 0.29732 0.589 0.45299 0.0
C3396 C 0.29874 0.58836 0.47374 0.0
C3397 C 0.30229 0.58667 0.53376 0.0
C3398 C 0.30119 0.5872 0.51312 0.0
H3399 H 0.3069 0.62091 0.41633 0.0
H3400 H 0.30983 0.6197 0.45015 0.0
H3401 H 0.30721 0.5562 0.47541 0.0
H3402 H 0.2839 0.55973 0.57086 0.0
H3403 H 0.28366 0.55938 0.53675 0.0
C3404 C 0.43095 0.28229 0.56692 0.0
C3405 C 0.41877 0.2963 0.57689 0.0
C3406 C 0.4324 0.28356 0.54753 0.0
C3407 C 0.40436 0.30335 0.50689 0.0
H3408 H 0.45566 0.29444 0.4808 0.0
C3409 C 0.41108 0.31521 0.42789 0.0
C3410 C 0.42154 0.29999 0.4178 0.0
C3411 C 0.41197 0.31561 0.44731 0.0
C3412 C 0.44121 0.29679 0.4879 0.0
H3413 H 0.39913 0.32303 0.57433 0.0
H3414 H 0.40183 0.3253 0.54057 0.0
H3415 H 0.45499 0.29364 0.51486 0.0
H3416 H 0.44167 0.27362 0.4202 0.0
H3417 H 0.44301 0.27422 0.45419 0.0
H3418 H 0.39051 0.30636 0.48003 0.0
C3419 C 0.40994 0.31312 0.54772 0.0
C3420 C 0.44082 0.29633 0.50738 0.0
C3421 C 0.40847 0.31185 0.56708 0.0
C3422 C 0.43337 0.28551 0.42756 0.0
C3423 C 0.43425 0.28592 0.44702 0.0
C3424 C 0.40475 0.30382 0.48746 0.0
C3425 C 0.42174 0.29886 0.53771 0.0
C3426 C 0.42238 0.29961 0.51707 0.0
C3427 C 0.42333 0.30082 0.45709 0.0
C3428 C 0.42316 0.30055 0.47775 0.0
H3429 H 0.43913 0.27016 0.57406 0.0
H3430 H 0.44147 0.27224 0.54019 0.0
H3431 H 0.38984 0.30554 0.51393 0.0
H3432 H 0.40201 0.32675 0.42082 0.0
H3433 H 0.40369 0.32751 0.45467 0.0
C3434 C 0.71388 0.43896 0.56594 0.0
C3435 C 0.71168 0.41987 0.57484 0.0
C3436 C 0.71341 0.44035 0.54651 0.0
C3437 C 0.69631 0.41248 0.5046 0.0
H3438 H 0.73671 0.44593 0.47912 0.0
C3439 C 0.71166 0.4051 0.42613 0.0
C3440 C 0.71438 0.42322 0.41581 0.0
C3441 C 0.71067 0.40568 0.44553 0.0
C3442 C 0.72516 0.43674 0.48606 0.0
H3443 H 0.70715 0.38729 0.57029 0.0
H3444 H 0.70656 0.38971 0.53646 0.0
H3445 H 0.73601 0.44519 0.51314 0.0
H3446 H 0.71819 0.45621 0.41783 0.0
H3447 H 0.71642 0.45718 0.45181 0.0
H3448 H 0.68561 0.40385 0.47755 0.0
C3449 C 0.7084 0.40363 0.5445 0.0
C3450 C 0.72476 0.43632 0.50552 0.0
C3451 C 0.70888 0.40224 0.5639 0.0
C3452 C 0.71617 0.44195 0.42536 0.0
C3453 C 0.71522 0.44252 0.44482 0.0
C3454 C 0.69673 0.41289 0.48517 0.0
C3455 C 0.71068 0.42269 0.5356 0.0
C3456 C 0.71047 0.424 0.51498 0.0
C3457 C 0.71238 0.42439 0.45508 0.0
C3458 C 0.7113 0.42484 0.4757 0.0
H3459 H 0.71596 0.45287 0.57396 0.0
H3460 H 0.71499 0.45527 0.54004 0.0
H3461 H 0.68487 0.40314 0.51151 0.0
H3462 H 0.71023 0.39041 0.41924 0.0
H3463 H 0.70877 0.39142 0.45308 0.0
C3464 C 0.60945 0.28683 0.06574 0.0
C3465 C 0.59057 0.28454 0.07495 0.0
C3466 C 0.6103 0.28705 0.04629 0.0
C3467 C 0.58108 0.27182 0.00462 0.0
H3468 H 0.6141 0.31292 0.97959 0.0
C3469 C 0.57253 0.28895 0.92658 0.0
C3470 C 0.59065 0.29123 0.9162 0.0
C3471 C 0.57324 0.28796 0.94598 0.0
C3472 C 0.605 0.30122 0.9864 0.0
H3473 H 0.55778 0.28071 0.07097 0.0
H3474 H 0.5593 0.28126 0.03714 0.0
H3475 H 0.61425 0.31104 0.01359 0.0
H3476 H 0.62371 0.29463 0.91805 0.0
H3477 H 0.6249 0.29279 0.95198 0.0
H3478 H 0.57168 0.26212 0.97748 0.0
C3479 C 0.57346 0.28259 0.04493 0.0
C3480 C 0.60511 0.30012 0.00583 0.0
C3481 C 0.5726 0.28238 0.06433 0.0
C3482 C 0.60947 0.29283 0.92564 0.0
C3483 C 0.61016 0.29188 0.94507 0.0
C3484 C 0.58095 0.27294 0.98523 0.0
C3485 C 0.5923 0.28496 0.03572 0.0
C3486 C 0.59301 0.28553 0.01512 0.0
C3487 C 0.59207 0.28927 0.95539 0.0
C3488 C 0.59276 0.28776 0.97594 0.0
H3489 H 0.62358 0.28854 0.07352 0.0
H3490 H 0.62506 0.28871 0.03953 0.0
H3491 H 0.57188 0.26019 0.01141 0.0
H3492 H 0.55776 0.28781 0.91975 0.0
H3493 H 0.55902 0.28627 0.95363 0.0
C3494 C 0.71135 0.61018 0.92166 0.0
C3495 C 0.71294 0.59138 0.91219 0.0
C3496 C 0.71116 0.61074 0.94116 0.0
C3497 C 0.7261 0.58023 0.98229 0.0
H3498 H 0.68764 0.61491 0.00882 0.0
C3499 C 0.71154 0.5709 0.06075 0.0
C3500 C 0.70982 0.58876 0.0716 0.0
C3501 C 0.71204 0.57209 0.04134 0.0
C3502 C 0.69864 0.60533 0.00161 0.0
H3503 H 0.71527 0.55841 0.91582 0.0
H3504 H 0.7148 0.55943 0.94968 0.0
H3505 H 0.68841 0.61551 0.97476 0.0
H3506 H 0.70701 0.62189 0.07047 0.0
H3507 H 0.70805 0.62394 0.03649 0.0
H3508 H 0.73629 0.56996 0.00905 0.0
C3509 C 0.71402 0.57375 0.94207 0.0
C3510 C 0.69908 0.60568 0.98211 0.0
C3511 C 0.71417 0.57318 0.92264 0.0
C3512 C 0.70837 0.60783 0.06254 0.0
C3513 C 0.70886 0.60901 0.04307 0.0
C3514 C 0.72567 0.57989 0.00174 0.0
C3515 C 0.7126 0.59253 0.95156 0.0
C3516 C 0.71268 0.59296 0.97225 0.0
C3517 C 0.71084 0.59115 0.03227 0.0
C3518 C 0.71179 0.59226 0.01162 0.0
H3519 H 0.71034 0.62448 0.91405 0.0
H3520 H 0.7102 0.62546 0.94809 0.0
H3521 H 0.73703 0.57055 0.97511 0.0
H3522 H 0.71254 0.55593 0.06723 0.0
H3523 H 0.71321 0.55802 0.03341 0.0
C3524 C 0.39789 0.7061 0.92365 0.0
C3525 C 0.41521 0.71293 0.91383 0.0
C3526 C 0.39793 0.70564 0.94313 0.0
C3527 C 0.43308 0.70663 0.98389 0.0
H3528 H 0.38342 0.72052 0.01077 0.0
C3529 C 0.43001 0.7201 0.06374 0.0
C3530 C 0.41397 0.71017 0.07321 0.0
C3531 C 0.43059 0.72023 0.04425 0.0
C3532 C 0.39735 0.71648 0.00342 0.0
H3533 H 0.44611 0.72485 0.91673 0.0
H3534 H 0.44595 0.72466 0.95062 0.0
H3535 H 0.38349 0.72143 0.97681 0.0
H3536 H 0.38604 0.69247 0.06965 0.0
H3537 H 0.38699 0.69295 0.03571 0.0
H3538 H 0.44698 0.70212 0.01067 0.0
C3539 C 0.4325 0.71915 0.94334 0.0
C3540 C 0.3974 0.71691 0.98397 0.0
C3541 C 0.43254 0.71938 0.92388 0.0
C3542 C 0.39861 0.70028 0.06281 0.0
C3543 C 0.39907 0.70064 0.04337 0.0
C3544 C 0.43309 0.70643 0.00337 0.0
C3545 C 0.41522 0.71222 0.95322 0.0
C3546 C 0.41523 0.7119 0.97395 0.0
C3547 C 0.41501 0.71066 0.03391 0.0
C3548 C 0.41519 0.71125 0.0133 0.0
H3549 H 0.38437 0.70084 0.9163 0.0
H3550 H 0.38448 0.69987 0.95025 0.0
H3551 H 0.447 0.70234 0.97665 0.0
H3552 H 0.44211 0.72778 0.07136 0.0
H3553 H 0.443 0.72815 0.03726 0.0
C3554 C 0.29086 0.43087 0.0661 0.0
C3555 C 0.29179 0.41248 0.07632 0.0
C3556 C 0.29125 0.43064 0.04664 0.0
C3557 C 0.28158 0.39741 0.00603 0.0
H3558 H 0.31333 0.43851 0.97969 0.0
C3559 C 0.29267 0.39581 0.92604 0.0
C3560 C 0.29149 0.41465 0.91655 0.0
C3561 C 0.29301 0.39517 0.94551 0.0
C3562 C 0.30421 0.42707 0.98683 0.0
H3563 H 0.29397 0.37939 0.07399 0.0
H3564 H 0.29477 0.37903 0.03995 0.0
H3565 H 0.31356 0.43789 0.01366 0.0
H3566 H 0.28975 0.44763 0.9202 0.0
H3567 H 0.29013 0.44648 0.95415 0.0
H3568 H 0.27215 0.38665 0.97917 0.0
C3569 C 0.29351 0.39362 0.04705 0.0
C3570 C 0.30436 0.42669 0.0063 0.0
C3571 C 0.29315 0.39384 0.06657 0.0
C3572 C 0.29068 0.43284 0.92703 0.0
C3573 C 0.29103 0.4322 0.9465 0.0
C3574 C 0.28143 0.39779 0.98654 0.0
C3575 C 0.2926 0.41203 0.03687 0.0
C3576 C 0.29295 0.41195 0.01614 0.0
C3577 C 0.29222 0.41335 0.95598 0.0
C3578 C 0.29265 0.41269 0.97671 0.0
H3579 H 0.28979 0.44553 0.07311 0.0
H3580 H 0.29022 0.44508 0.03924 0.0
H3581 H 0.27241 0.38602 0.01319 0.0
H3582 H 0.29342 0.38149 0.91843 0.0
H3583 H 0.2942 0.38042 0.95237 0.0
loop_
_geom_bond_atom_site_label_1
_geom_bond_atom_site_label_2
_geom_bond_distance
_geom_bond_site_symmetry_2
_ccdc_geom_bond_type
Fe0 O2 1.918 . S
Fe0 O5 1.997 . S
Fe0 O6 2.002 . S
Fe0 O11 1.976 . S
Fe0 O14 1.996 . S
Fe1 O2 1.918 . S
Fe1 O9 1.997 . S
Fe1 O12 1.996 . S
Fe1 O16 1.976 . S
Fe1 O19 2.002 . S
O2 Fe0 1.918 . S
O2 Fe1 1.918 . S
O2 Fe3 1.918 . S
Fe3 O2 1.918 . S
Fe3 O4 2.002 . S
Fe3 O13 1.976 . S
Fe3 O17 1.996 . S
Fe3 O20 1.997 . S
O4 Fe3 2.002 . S
O4 C21 1.295 . S
O5 Fe0 1.997 . S
O5 C21 1.235 . S
O6 Fe0 2.002 . S
O6 C7 1.295 . S
C7 O6 1.295 . S
C7 O9 1.235 . S
C8 O13 1.287 . S
C8 O14 1.255 . S
O9 Fe1 1.997 . S
O9 C7 1.235 . S
C10 O16 1.287 . S
C10 O17 1.255 . S
O11 Fe0 1.976 . S
O11 C18 1.287 . S
O12 Fe1 1.996 . S
O12 C18 1.255 . S
O13 Fe3 1.976 . S
O13 C8 1.287 . S
O14 Fe0 1.996 . S
O14 C8 1.255 . S
C15 O19 1.295 . S
C15 O20 1.235 . S
O16 Fe1 1.976 . S
O16 C10 1.287 . S
O17 Fe3 1.996 . S
O17 C10 1.255 . S
C18 O11 1.287 . S
C18 O12 1.255 . S
O19 Fe1 2.002 . S
O19 C15 1.295 . S
O20 Fe3 1.997 . S
O20 C15 1.235 . S
C21 O4 1.295 . S
C21 O5 1.235 . S
Fe22 O24 1.918 . S
Fe22 O27 1.997 . S
Fe22 O28 2.002 . S
Fe22 O33 1.976 . S
Fe22 O36 1.996 . S
Fe23 O24 1.918 . S
Fe23 O31 1.997 . S
Fe23 O34 1.996 . S
Fe23 O38 1.976 . S
Fe23 O41 2.002 . S
O24 Fe22 1.918 . S
O24 Fe23 1.918 . S
O24 Fe25 1.918 . S
Fe25 O24 1.918 . S
Fe25 O26 2.002 . S
Fe25 O35 1.976 . S
Fe25 O39 1.996 . S
Fe25 O42 1.997 . S
O26 Fe25 2.002 . S
O26 C43 1.295 . S
O27 Fe22 1.997 . S
O27 C43 1.235 . S
O28 Fe22 2.002 . S
O28 C29 1.295 . S
C29 O28 1.295 . S
C29 O31 1.235 . S
C30 O35 1.287 . S
C30 O36 1.255 . S
O31 Fe23 1.997 . S
O31 C29 1.235 . S
C32 O38 1.287 . S
C32 O39 1.255 . S
O33 Fe22 1.976 . S
O33 C40 1.287 . S
O34 Fe23 1.996 . S
O34 C40 1.255 . S
O35 Fe25 1.976 . S
O35 C30 1.287 . S
O36 Fe22 1.996 . S
O36 C30 1.255 . S
C37 O41 1.295 . S
C37 O42 1.235 . S
O38 Fe23 1.976 . S
O38 C32 1.287 . S
O39 Fe25 1.996 . S
O39 C32 1.255 . S
C40 O33 1.287 . S
C40 O34 1.255 . S
O41 Fe23 2.002 . S
O41 C37 1.295 . S
O42 Fe25 1.997 . S
O42 C37 1.235 . S
C43 O26 1.295 . S
C43 O27 1.235 . S
Fe44 O46 1.918 . S
Fe44 O49 1.997 . S
Fe44 O50 2.002 . S
Fe44 O55 1.976 . S
Fe44 O58 1.996 . S
Fe45 O46 1.918 . S
Fe45 O53 1.997 . S
Fe45 O56 1.996 . S
Fe45 O60 1.976 . S
Fe45 O63 2.002 . S
O46 Fe44 1.918 . S
O46 Fe45 1.918 . S
O46 Fe47 1.918 . S
Fe47 O46 1.918 . S
Fe47 O48 2.002 . S
Fe47 O57 1.976 . S
Fe47 O61 1.996 . S
Fe47 O64 1.997 . S
O48 Fe47 2.002 . S
O48 C65 1.295 . S
O49 Fe44 1.997 . S
O49 C65 1.235 . S
O50 Fe44 2.002 . S
O50 C51 1.295 . S
C51 O50 1.295 . S
C51 O53 1.235 . S
C52 O57 1.287 . S
C52 O58 1.255 . S
O53 Fe45 1.997 . S
O53 C51 1.235 . S
C54 O60 1.287 . S
C54 O61 1.255 . S
O55 Fe44 1.976 . S
O55 C62 1.287 . S
O56 Fe45 1.996 . S
O56 C62 1.255 . S
O57 Fe47 1.976 . S
O57 C52 1.287 . S
O58 Fe44 1.996 . S
O58 C52 1.255 . S
C59 O63 1.295 . S
C59 O64 1.235 . S
O60 Fe45 1.976 . S
O60 C54 1.287 . S
O61 Fe47 1.996 . S
O61 C54 1.255 . S
C62 O55 1.287 . S
C62 O56 1.255 . S
O63 Fe45 2.002 . S
O63 C59 1.295 . S
O64 Fe47 1.997 . S
O64 C59 1.235 . S
C65 O48 1.295 . S
C65 O49 1.235 . S
Fe66 O68 1.918 . S
Fe66 O71 1.997 . S
Fe66 O72 2.002 . S
Fe66 O77 1.976 . S
Fe66 O80 1.996 . S
Fe67 O68 1.918 . S
Fe67 O75 1.997 . S
Fe67 O78 1.996 . S
Fe67 O82 1.976 . S
Fe67 O85 2.002 . S
O68 Fe66 1.918 . S
O68 Fe67 1.918 . S
O68 Fe69 1.918 . S
Fe69 O68 1.918 . S
Fe69 O70 2.002 . S
Fe69 O79 1.976 . S
Fe69 O83 1.996 . S
Fe69 O86 1.997 . S
O70 Fe69 2.002 . S
O70 C87 1.295 . S
O71 Fe66 1.997 . S
O71 C87 1.235 . S
O72 Fe66 2.002 . S
O72 C73 1.295 . S
C73 O72 1.295 . S
C73 O75 1.235 . S
C74 O79 1.287 . S
C74 O80 1.255 . S
O75 Fe67 1.997 . S
O75 C73 1.235 . S
C76 O82 1.287 . S
C76 O83 1.255 . S
O77 Fe66 1.976 . S
O77 C84 1.287 . S
O78 Fe67 1.996 . S
O78 C84 1.255 . S
O79 Fe69 1.976 . S
O79 C74 1.287 . S
O80 Fe66 1.996 . S
O80 C74 1.255 . S
C81 O85 1.295 . S
C81 O86 1.235 . S
O82 Fe67 1.976 . S
O82 C76 1.287 . S
O83 Fe69 1.996 . S
O83 C76 1.255 . S
C84 O77 1.287 . S
C84 O78 1.255 . S
O85 Fe67 2.002 . S
O85 C81 1.295 . S
O86 Fe69 1.997 . S
O86 C81 1.235 . S
C87 O70 1.295 . S
C87 O71 1.235 . S
Fe88 O90 1.918 . S
Fe88 O93 1.997 . S
Fe88 O94 2.002 . S
Fe88 O99 1.976 . S
Fe88 O102 1.996 . S
Fe89 O90 1.918 . S
Fe89 O97 1.997 . S
Fe89 O100 1.996 . S
Fe89 O104 1.976 . S
Fe89 O107 2.002 . S
O90 Fe88 1.918 . S
O90 Fe89 1.918 . S
O90 Fe91 1.918 . S
Fe91 O90 1.918 . S
Fe91 O92 2.002 . S
Fe91 O101 1.976 . S
Fe91 O105 1.996 . S
Fe91 O108 1.997 . S
O92 Fe91 2.002 . S
O92 C109 1.295 . S
O93 Fe88 1.997 . S
O93 C109 1.235 . S
O94 Fe88 2.002 . S
O94 C95 1.295 . S
C95 O94 1.295 . S
C95 O97 1.235 . S
C96 O101 1.287 . S
C96 O102 1.255 . S
O97 Fe89 1.997 . S
O97 C95 1.235 . S
C98 O104 1.287 . S
C98 O105 1.255 . S
O99 Fe88 1.976 . S
O99 C106 1.287 . S
O100 Fe89 1.996 . S
O100 C106 1.255 . S
O101 Fe91 1.976 . S
O101 C96 1.287 . S
O102 Fe88 1.996 . S
O102 C96 1.255 . S
C103 O107 1.295 . S
C103 O108 1.235 . S
O104 Fe89 1.976 . S
O104 C98 1.287 . S
O105 Fe91 1.996 . S
O105 C98 1.255 . S
C106 O99 1.287 . S
C106 O100 1.255 . S
O107 Fe89 2.002 . S
O107 C103 1.295 . S
O108 Fe91 1.997 . S
O108 C103 1.235 . S
C109 O92 1.295 . S
C109 O93 1.235 . S
Fe110 O112 1.918 . S
Fe110 O115 1.997 . S
Fe110 O116 2.002 . S
Fe110 O121 1.976 . S
Fe110 O124 1.996 . S
Fe111 O112 1.918 . S
Fe111 O119 1.997 . S
Fe111 O122 1.996 . S
Fe111 O126 1.976 . S
Fe111 O129 2.002 . S
O112 Fe110 1.918 . S
O112 Fe111 1.918 . S
O112 Fe113 1.918 . S
Fe113 O112 1.918 . S
Fe113 O114 2.002 . S
Fe113 O123 1.976 . S
Fe113 O127 1.996 . S
Fe113 O130 1.997 . S
O114 Fe113 2.002 . S
O114 C131 1.295 . S
O115 Fe110 1.997 . S
O115 C131 1.235 . S
O116 Fe110 2.002 . S
O116 C117 1.295 . S
C117 O116 1.295 . S
C117 O119 1.235 . S
C118 O123 1.287 . S
C118 O124 1.255 . S
O119 Fe111 1.997 . S
O119 C117 1.235 . S
C120 O126 1.287 . S
C120 O127 1.255 . S
O121 Fe110 1.976 . S
O121 C128 1.287 . S
O122 Fe111 1.996 . S
O122 C128 1.255 . S
O123 Fe113 1.976 . S
O123 C118 1.287 . S
O124 Fe110 1.996 . S
O124 C118 1.255 . S
C125 O129 1.295 . S
C125 O130 1.235 . S
O126 Fe111 1.976 . S
O126 C120 1.287 . S
O127 Fe113 1.996 . S
O127 C120 1.255 . S
C128 O121 1.287 . S
C128 O122 1.255 . S
O129 Fe111 2.002 . S
O129 C125 1.295 . S
O130 Fe113 1.997 . S
O130 C125 1.235 . S
C131 O114 1.295 . S
C131 O115 1.235 . S
Fe132 O134 1.918 . S
Fe132 O137 1.997 . S
Fe132 O138 2.002 . S
Fe132 O143 1.976 . S
Fe132 O146 1.996 . S
Fe133 O134 1.918 . S
Fe133 O141 1.997 . S
Fe133 O144 1.996 . S
Fe133 O148 1.976 . S
Fe133 O151 2.002 . S
O134 Fe132 1.918 . S
O134 Fe133 1.918 . S
O134 Fe135 1.918 . S
Fe135 O134 1.918 . S
Fe135 O136 2.002 . S
Fe135 O145 1.976 . S
Fe135 O149 1.996 . S
Fe135 O152 1.997 . S
O136 Fe135 2.002 . S
O136 C153 1.295 . S
O137 Fe132 1.997 . S
O137 C153 1.235 . S
O138 Fe132 2.002 . S
O138 C139 1.295 . S
C139 O138 1.295 . S
C139 O141 1.235 . S
C140 O145 1.287 . S
C140 O146 1.255 . S
O141 Fe133 1.997 . S
O141 C139 1.235 . S
C142 O148 1.287 . S
C142 O149 1.255 . S
O143 Fe132 1.976 . S
O143 C150 1.287 . S
O144 Fe133 1.996 . S
O144 C150 1.255 . S
O145 Fe135 1.976 . S
O145 C140 1.287 . S
O146 Fe132 1.996 . S
O146 C140 1.255 . S
C147 O151 1.295 . S
C147 O152 1.235 . S
O148 Fe133 1.976 . S
O148 C142 1.287 . S
O149 Fe135 1.996 . S
O149 C142 1.255 . S
C150 O143 1.287 . S
C150 O144 1.255 . S
O151 Fe133 2.002 . S
O151 C147 1.295 . S
O152 Fe135 1.997 . S
O152 C147 1.235 . S
C153 O136 1.295 . S
C153 O137 1.235 . S
Fe154 O156 1.918 . S
Fe154 O159 1.997 . S
Fe154 O160 2.002 . S
Fe154 O165 1.976 . S
Fe154 O168 1.996 . S
Fe155 O156 1.918 . S
Fe155 O163 1.997 . S
Fe155 O166 1.996 . S
Fe155 O170 1.976 . S
Fe155 O173 2.002 . S
O156 Fe154 1.918 . S
O156 Fe155 1.918 . S
O156 Fe157 1.918 . S
Fe157 O156 1.918 . S
Fe157 O158 2.002 . S
Fe157 O167 1.976 . S
Fe157 O171 1.996 . S
Fe157 O174 1.997 . S
O158 Fe157 2.002 . S
O158 C175 1.295 . S
O159 Fe154 1.997 . S
O159 C175 1.235 . S
O160 Fe154 2.002 . S
O160 C161 1.295 . S
C161 O160 1.295 . S
C161 O163 1.235 . S
C162 O167 1.287 . S
C162 O168 1.255 . S
O163 Fe155 1.997 . S
O163 C161 1.235 . S
C164 O170 1.287 . S
C164 O171 1.255 . S
O165 Fe154 1.976 . S
O165 C172 1.287 . S
O166 Fe155 1.996 . S
O166 C172 1.255 . S
O167 Fe157 1.976 . S
O167 C162 1.287 . S
O168 Fe154 1.996 . S
O168 C162 1.255 . S
C169 O173 1.295 . S
C169 O174 1.235 . S
O170 Fe155 1.976 . S
O170 C164 1.287 . S
O171 Fe157 1.996 . S
O171 C164 1.255 . S
C172 O165 1.287 . S
C172 O166 1.255 . S
O173 Fe155 2.002 . S
O173 C169 1.295 . S
O174 Fe157 1.997 . S
O174 C169 1.235 . S
C175 O158 1.295 . S
C175 O159 1.235 . S
Fe176 O178 1.918 . S
Fe176 O181 1.997 . S
Fe176 O182 2.002 . S
Fe176 O187 1.976 . S
Fe176 O190 1.996 . S
Fe177 O178 1.918 . S
Fe177 O185 1.997 . S
Fe177 O188 1.996 . S
Fe177 O192 1.976 . S
Fe177 O195 2.002 . S
O178 Fe176 1.918 . S
O178 Fe177 1.918 . S
O178 Fe179 1.918 . S
Fe179 O178 1.918 . S
Fe179 O180 2.002 . S
Fe179 O189 1.976 . S
Fe179 O193 1.996 . S
Fe179 O196 1.997 . S
O180 Fe179 2.002 . S
O180 C197 1.295 . S
O181 Fe176 1.997 . S
O181 C197 1.235 . S
O182 Fe176 2.002 . S
O182 C183 1.295 . S
C183 O182 1.295 . S
C183 O185 1.235 . S
C184 O189 1.287 . S
C184 O190 1.255 . S
O185 Fe177 1.997 . S
O185 C183 1.235 . S
C186 O192 1.287 . S
C186 O193 1.255 . S
O187 Fe176 1.976 . S
O187 C194 1.287 . S
O188 Fe177 1.996 . S
O188 C194 1.255 . S
O189 Fe179 1.976 . S
O189 C184 1.287 . S
O190 Fe176 1.996 . S
O190 C184 1.255 . S
C191 O195 1.295 . S
C191 O196 1.235 . S
O192 Fe177 1.976 . S
O192 C186 1.287 . S
O193 Fe179 1.996 . S
O193 C186 1.255 . S
C194 O187 1.287 . S
C194 O188 1.255 . S
O195 Fe177 2.002 . S
O195 C191 1.295 . S
O196 Fe179 1.997 . S
O196 C191 1.235 . S
C197 O180 1.295 . S
C197 O181 1.235 . S
Fe198 O200 1.918 . S
Fe198 O203 1.997 . S
Fe198 O204 2.002 . S
Fe198 O209 1.976 . S
Fe198 O212 1.996 . S
Fe199 O200 1.918 . S
Fe199 O207 1.997 . S
Fe199 O210 1.996 . S
Fe199 O214 1.976 . S
Fe199 O217 2.002 . S
O200 Fe198 1.918 . S
O200 Fe199 1.918 . S
O200 Fe201 1.918 . S
Fe201 O200 1.918 . S
Fe201 O202 2.002 . S
Fe201 O211 1.976 . S
Fe201 O215 1.996 . S
Fe201 O218 1.997 . S
O202 Fe201 2.002 . S
O202 C219 1.295 . S
O203 Fe198 1.997 . S
O203 C219 1.235 . S
O204 Fe198 2.002 . S
O204 C205 1.295 . S
C205 O204 1.295 . S
C205 O207 1.235 . S
C206 O211 1.287 . S
C206 O212 1.255 . S
O207 Fe199 1.997 . S
O207 C205 1.235 . S
C208 O214 1.287 . S
C208 O215 1.255 . S
O209 Fe198 1.976 . S
O209 C216 1.287 . S
O210 Fe199 1.996 . S
O210 C216 1.255 . S
O211 Fe201 1.976 . S
O211 C206 1.287 . S
O212 Fe198 1.996 . S
O212 C206 1.255 . S
C213 O217 1.295 . S
C213 O218 1.235 . S
O214 Fe199 1.976 . S
O214 C208 1.287 . S
O215 Fe201 1.996 . S
O215 C208 1.255 . S
C216 O209 1.287 . S
C216 O210 1.255 . S
O217 Fe199 2.002 . S
O217 C213 1.295 . S
O218 Fe201 1.997 . S
O218 C213 1.235 . S
C219 O202 1.295 . S
C219 O203 1.235 . S
Fe220 O222 1.918 . S
Fe220 O225 1.997 . S
Fe220 O226 2.002 . S
Fe220 O231 1.976 . S
Fe220 O234 1.996 . S
Fe221 O222 1.918 . S
Fe221 O229 1.997 . S
Fe221 O232 1.996 . S
Fe221 O236 1.976 . S
Fe221 O239 2.002 . S
O222 Fe220 1.918 . S
O222 Fe221 1.918 . S
O222 Fe223 1.918 . S
Fe223 O222 1.918 . S
Fe223 O224 2.002 . S
Fe223 O233 1.976 . S
Fe223 O237 1.996 . S
Fe223 O240 1.997 . S
O224 Fe223 2.002 . S
O224 C241 1.295 . S
O225 Fe220 1.997 . S
O225 C241 1.235 . S
O226 Fe220 2.002 . S
O226 C227 1.295 . S
C227 O226 1.295 . S
C227 O229 1.235 . S
C228 O233 1.287 . S
C228 O234 1.255 . S
O229 Fe221 1.997 . S
O229 C227 1.235 . S
C230 O236 1.287 . S
C230 O237 1.255 . S
O231 Fe220 1.976 . S
O231 C238 1.287 . S
O232 Fe221 1.996 . S
O232 C238 1.255 . S
O233 Fe223 1.976 . S
O233 C228 1.287 . S
O234 Fe220 1.996 . S
O234 C228 1.255 . S
C235 O239 1.295 . S
C235 O240 1.235 . S
O236 Fe221 1.976 . S
O236 C230 1.287 . S
O237 Fe223 1.996 . S
O237 C230 1.255 . S
C238 O231 1.287 . S
C238 O232 1.255 . S
O239 Fe221 2.002 . S
O239 C235 1.295 . S
O240 Fe223 1.997 . S
O240 C235 1.235 . S
C241 O224 1.295 . S
C241 O225 1.235 . S
Fe242 O244 1.918 . S
Fe242 O247 1.997 . S
Fe242 O248 2.002 . S
Fe242 O253 1.976 . S
Fe242 O256 1.996 . S
Fe243 O244 1.918 . S
Fe243 O251 1.997 . S
Fe243 O254 1.996 . S
Fe243 O258 1.976 . S
Fe243 O261 2.002 . S
O244 Fe242 1.918 . S
O244 Fe243 1.918 . S
O244 Fe245 1.918 . S
Fe245 O244 1.918 . S
Fe245 O246 2.002 . S
Fe245 O255 1.976 . S
Fe245 O259 1.996 . S
Fe245 O262 1.997 . S
O246 Fe245 2.002 . S
O246 C263 1.295 . S
O247 Fe242 1.997 . S
O247 C263 1.235 . S
O248 Fe242 2.002 . S
O248 C249 1.295 . S
C249 O248 1.295 . S
C249 O251 1.235 . S
C250 O255 1.287 . S
C250 O256 1.255 . S
O251 Fe243 1.997 . S
O251 C249 1.235 . S
C252 O258 1.287 . S
C252 O259 1.255 . S
O253 Fe242 1.976 . S
O253 C260 1.287 . S
O254 Fe243 1.996 . S
O254 C260 1.255 . S
O255 Fe245 1.976 . S
O255 C250 1.287 . S
O256 Fe242 1.996 . S
O256 C250 1.255 . S
C257 O261 1.295 . S
C257 O262 1.235 . S
O258 Fe243 1.976 . S
O258 C252 1.287 . S
O259 Fe245 1.996 . S
O259 C252 1.255 . S
C260 O253 1.287 . S
C260 O254 1.255 . S
O261 Fe243 2.002 . S
O261 C257 1.295 . S
O262 Fe245 1.997 . S
O262 C257 1.235 . S
C263 O246 1.295 . S
C263 O247 1.235 . S
Fe264 O266 1.918 . S
Fe264 O269 1.997 . S
Fe264 O270 2.002 . S
Fe264 O275 1.976 . S
Fe264 O278 1.996 . S
Fe265 O266 1.918 . S
Fe265 O273 1.997 . S
Fe265 O276 1.996 . S
Fe265 O280 1.976 . S
Fe265 O283 2.002 . S
O266 Fe264 1.918 . S
O266 Fe265 1.918 . S
O266 Fe267 1.918 . S
Fe267 O266 1.918 . S
Fe267 O268 2.002 . S
Fe267 O277 1.976 . S
Fe267 O281 1.996 . S
Fe267 O284 1.997 . S
O268 Fe267 2.002 . S
O268 C285 1.295 . S
O269 Fe264 1.997 . S
O269 C285 1.235 . S
O270 Fe264 2.002 . S
O270 C271 1.295 . S
C271 O270 1.295 . S
C271 O273 1.235 . S
C272 O277 1.287 . S
C272 O278 1.255 . S
O273 Fe265 1.997 . S
O273 C271 1.235 . S
C274 O280 1.287 . S
C274 O281 1.255 . S
O275 Fe264 1.976 . S
O275 C282 1.287 . S
O276 Fe265 1.996 . S
O276 C282 1.255 . S
O277 Fe267 1.976 . S
O277 C272 1.287 . S
O278 Fe264 1.996 . S
O278 C272 1.255 . S
C279 O283 1.295 . S
C279 O284 1.235 . S
O280 Fe265 1.976 . S
O280 C274 1.287 . S
O281 Fe267 1.996 . S
O281 C274 1.255 . S
C282 O275 1.287 . S
C282 O276 1.255 . S
O283 Fe265 2.002 . S
O283 C279 1.295 . S
O284 Fe267 1.997 . S
O284 C279 1.235 . S
C285 O268 1.295 . S
C285 O269 1.235 . S
Fe286 O288 1.918 . S
Fe286 O291 1.997 . S
Fe286 O292 2.002 . S
Fe286 O297 1.976 . S
Fe286 O300 1.996 . S
Fe287 O288 1.918 . S
Fe287 O295 1.997 . S
Fe287 O298 1.996 . S
Fe287 O302 1.976 . S
Fe287 O305 2.002 . S
O288 Fe286 1.918 . S
O288 Fe287 1.918 . S
O288 Fe289 1.918 . S
Fe289 O288 1.918 . S
Fe289 O290 2.002 . S
Fe289 O299 1.976 . S
Fe289 O303 1.996 . S
Fe289 O306 1.997 . S
O290 Fe289 2.002 . S
O290 C307 1.295 . S
O291 Fe286 1.997 . S
O291 C307 1.235 . S
O292 Fe286 2.002 . S
O292 C293 1.295 . S
C293 O292 1.295 . S
C293 O295 1.235 . S
C294 O299 1.287 . S
C294 O300 1.255 . S
O295 Fe287 1.997 . S
O295 C293 1.235 . S
C296 O302 1.287 . S
C296 O303 1.255 . S
O297 Fe286 1.976 . S
O297 C304 1.287 . S
O298 Fe287 1.996 . S
O298 C304 1.255 . S
O299 Fe289 1.976 . S
O299 C294 1.287 . S
O300 Fe286 1.996 . S
O300 C294 1.255 . S
C301 O305 1.295 . S
C301 O306 1.235 . S
O302 Fe287 1.976 . S
O302 C296 1.287 . S
O303 Fe289 1.996 . S
O303 C296 1.255 . S
C304 O297 1.287 . S
C304 O298 1.255 . S
O305 Fe287 2.002 . S
O305 C301 1.295 . S
O306 Fe289 1.997 . S
O306 C301 1.235 . S
C307 O290 1.295 . S
C307 O291 1.235 . S
Fe308 O310 1.918 . S
Fe308 O313 1.997 . S
Fe308 O314 2.002 . S
Fe308 O319 1.976 . S
Fe308 O322 1.996 . S
Fe309 O310 1.918 . S
Fe309 O317 1.997 . S
Fe309 O320 1.996 . S
Fe309 O324 1.976 . S
Fe309 O327 2.002 . S
O310 Fe308 1.918 . S
O310 Fe309 1.918 . S
O310 Fe311 1.918 . S
Fe311 O310 1.918 . S
Fe311 O312 2.002 . S
Fe311 O321 1.976 . S
Fe311 O325 1.996 . S
Fe311 O328 1.997 . S
O312 Fe311 2.002 . S
O312 C329 1.295 . S
O313 Fe308 1.997 . S
O313 C329 1.235 . S
O314 Fe308 2.002 . S
O314 C315 1.295 . S
C315 O314 1.295 . S
C315 O317 1.235 . S
C316 O321 1.287 . S
C316 O322 1.255 . S
O317 Fe309 1.997 . S
O317 C315 1.235 . S
C318 O324 1.287 . S
C318 O325 1.255 . S
O319 Fe308 1.976 . S
O319 C326 1.287 . S
O320 Fe309 1.996 . S
O320 C326 1.255 . S
O321 Fe311 1.976 . S
O321 C316 1.287 . S
O322 Fe308 1.996 . S
O322 C316 1.255 . S
C323 O327 1.295 . S
C323 O328 1.235 . S
O324 Fe309 1.976 . S
O324 C318 1.287 . S
O325 Fe311 1.996 . S
O325 C318 1.255 . S
C326 O319 1.287 . S
C326 O320 1.255 . S
O327 Fe309 2.002 . S
O327 C323 1.295 . S
O328 Fe311 1.997 . S
O328 C323 1.235 . S
C329 O312 1.295 . S
C329 O313 1.235 . S
Fe330 O332 1.918 . S
Fe330 O335 1.997 . S
Fe330 O336 2.002 . S
Fe330 O341 1.976 . S
Fe330 O344 1.996 . S
Fe331 O332 1.918 . S
Fe331 O339 1.997 . S
Fe331 O342 1.996 . S
Fe331 O346 1.976 . S
Fe331 O349 2.002 . S
O332 Fe330 1.918 . S
O332 Fe331 1.918 . S
O332 Fe333 1.918 . S
Fe333 O332 1.918 . S
Fe333 O334 2.002 . S
Fe333 O343 1.976 . S
Fe333 O347 1.996 . S
Fe333 O350 1.997 . S
O334 Fe333 2.002 . S
O334 C351 1.295 . S
O335 Fe330 1.997 . S
O335 C351 1.235 . S
O336 Fe330 2.002 . S
O336 C337 1.295 . S
C337 O336 1.295 . S
C337 O339 1.235 . S
C338 O343 1.287 . S
C338 O344 1.255 . S
O339 Fe331 1.997 . S
O339 C337 1.235 . S
C340 O346 1.287 . S
C340 O347 1.255 . S
O341 Fe330 1.976 . S
O341 C348 1.287 . S
O342 Fe331 1.996 . S
O342 C348 1.255 . S
O343 Fe333 1.976 . S
O343 C338 1.287 . S
O344 Fe330 1.996 . S
O344 C338 1.255 . S
C345 O349 1.295 . S
C345 O350 1.235 . S
O346 Fe331 1.976 . S
O346 C340 1.287 . S
O347 Fe333 1.996 . S
O347 C340 1.255 . S
C348 O341 1.287 . S
C348 O342 1.255 . S
O349 Fe331 2.002 . S
O349 C345 1.295 . S
O350 Fe333 1.997 . S
O350 C345 1.235 . S
C351 O334 1.295 . S
C351 O335 1.235 . S
Fe352 O354 1.918 . S
Fe352 O357 1.997 . S
Fe352 O358 2.002 . S
Fe352 O363 1.976 . S
Fe352 O366 1.996 . S
Fe353 O354 1.918 . S
Fe353 O361 1.997 . S
Fe353 O364 1.996 . S
Fe353 O368 1.976 . S
Fe353 O371 2.002 . S
O354 Fe352 1.918 . S
O354 Fe353 1.918 . S
O354 Fe355 1.918 . S
Fe355 O354 1.918 . S
Fe355 O356 2.002 . S
Fe355 O365 1.976 . S
Fe355 O369 1.996 . S
Fe355 O372 1.997 . S
O356 Fe355 2.002 . S
O356 C373 1.295 . S
O357 Fe352 1.997 . S
O357 C373 1.235 . S
O358 Fe352 2.002 . S
O358 C359 1.295 . S
C359 O358 1.295 . S
C359 O361 1.235 . S
C360 O365 1.287 . S
C360 O366 1.255 . S
O361 Fe353 1.997 . S
O361 C359 1.235 . S
C362 O368 1.287 . S
C362 O369 1.255 . S
O363 Fe352 1.976 . S
O363 C370 1.287 . S
O364 Fe353 1.996 . S
O364 C370 1.255 . S
O365 Fe355 1.976 . S
O365 C360 1.287 . S
O366 Fe352 1.996 . S
O366 C360 1.255 . S
C367 O371 1.295 . S
C367 O372 1.235 . S
O368 Fe353 1.976 . S
O368 C362 1.287 . S
O369 Fe355 1.996 . S
O369 C362 1.255 . S
C370 O363 1.287 . S
C370 O364 1.255 . S
O371 Fe353 2.002 . S
O371 C367 1.295 . S
O372 Fe355 1.997 . S
O372 C367 1.235 . S
C373 O356 1.295 . S
C373 O357 1.235 . S
Fe374 O376 1.918 . S
Fe374 O379 1.997 . S
Fe374 O380 2.002 . S
Fe374 O385 1.976 . S
Fe374 O388 1.996 . S
Fe375 O376 1.918 . S
Fe375 O383 1.997 . S
Fe375 O386 1.996 . S
Fe375 O390 1.976 . S
Fe375 O393 2.002 . S
O376 Fe374 1.918 . S
O376 Fe375 1.918 . S
O376 Fe377 1.918 . S
Fe377 O376 1.918 . S
Fe377 O378 2.002 . S
Fe377 O387 1.976 . S
Fe377 O391 1.996 . S
Fe377 O394 1.997 . S
O378 Fe377 2.002 . S
O378 C395 1.295 . S
O379 Fe374 1.997 . S
O379 C395 1.235 . S
O380 Fe374 2.002 . S
O380 C381 1.295 . S
C381 O380 1.295 . S
C381 O383 1.235 . S
C382 O387 1.287 . S
C382 O388 1.255 . S
O383 Fe375 1.997 . S
O383 C381 1.235 . S
C384 O390 1.287 . S
C384 O391 1.255 . S
O385 Fe374 1.976 . S
O385 C392 1.287 . S
O386 Fe375 1.996 . S
O386 C392 1.255 . S
O387 Fe377 1.976 . S
O387 C382 1.287 . S
O388 Fe374 1.996 . S
O388 C382 1.255 . S
C389 O393 1.295 . S
C389 O394 1.235 . S
O390 Fe375 1.976 . S
O390 C384 1.287 . S
O391 Fe377 1.996 . S
O391 C384 1.255 . S
C392 O385 1.287 . S
C392 O386 1.255 . S
O393 Fe375 2.002 . S
O393 C389 1.295 . S
O394 Fe377 1.997 . S
O394 C389 1.235 . S
C395 O378 1.295 . S
C395 O379 1.235 . S
Fe396 O398 1.918 . S
Fe396 O401 1.997 . S
Fe396 O402 2.002 . S
Fe396 O407 1.976 . S
Fe396 O410 1.996 . S
Fe397 O398 1.918 . S
Fe397 O405 1.997 . S
Fe397 O408 1.996 . S
Fe397 O412 1.976 . S
Fe397 O415 2.002 . S
O398 Fe396 1.918 . S
O398 Fe397 1.918 . S
O398 Fe399 1.918 . S
Fe399 O398 1.918 . S
Fe399 O400 2.002 . S
Fe399 O409 1.976 . S
Fe399 O413 1.996 . S
Fe399 O416 1.997 . S
O400 Fe399 2.002 . S
O400 C417 1.295 . S
O401 Fe396 1.997 . S
O401 C417 1.235 . S
O402 Fe396 2.002 . S
O402 C403 1.295 . S
C403 O402 1.295 . S
C403 O405 1.235 . S
C404 O409 1.287 . S
C404 O410 1.255 . S
O405 Fe397 1.997 . S
O405 C403 1.235 . S
C406 O412 1.287 . S
C406 O413 1.255 . S
O407 Fe396 1.976 . S
O407 C414 1.287 . S
O408 Fe397 1.996 . S
O408 C414 1.255 . S
O409 Fe399 1.976 . S
O409 C404 1.287 . S
O410 Fe396 1.996 . S
O410 C404 1.255 . S
C411 O415 1.295 . S
C411 O416 1.235 . S
O412 Fe397 1.976 . S
O412 C406 1.287 . S
O413 Fe399 1.996 . S
O413 C406 1.255 . S
C414 O407 1.287 . S
C414 O408 1.255 . S
O415 Fe397 2.002 . S
O415 C411 1.295 . S
O416 Fe399 1.997 . S
O416 C411 1.235 . S
C417 O400 1.295 . S
C417 O401 1.235 . S
Fe418 O420 1.918 . S
Fe418 O423 1.997 . S
Fe418 O424 2.002 . S
Fe418 O429 1.976 . S
Fe418 O432 1.996 . S
Fe419 O420 1.918 . S
Fe419 O427 1.997 . S
Fe419 O430 1.996 . S
Fe419 O434 1.976 . S
Fe419 O437 2.002 . S
O420 Fe418 1.918 . S
O420 Fe419 1.918 . S
O420 Fe421 1.918 . S
Fe421 O420 1.918 . S
Fe421 O422 2.002 . S
Fe421 O431 1.976 . S
Fe421 O435 1.996 . S
Fe421 O438 1.997 . S
O422 Fe421 2.002 . S
O422 C439 1.295 . S
O423 Fe418 1.997 . S
O423 C439 1.235 . S
O424 Fe418 2.002 . S
O424 C425 1.295 . S
C425 O424 1.295 . S
C425 O427 1.235 . S
C426 O431 1.287 . S
C426 O432 1.255 . S
O427 Fe419 1.997 . S
O427 C425 1.235 . S
C428 O434 1.287 . S
C428 O435 1.255 . S
O429 Fe418 1.976 . S
O429 C436 1.287 . S
O430 Fe419 1.996 . S
O430 C436 1.255 . S
O431 Fe421 1.976 . S
O431 C426 1.287 . S
O432 Fe418 1.996 . S
O432 C426 1.255 . S
C433 O437 1.295 . S
C433 O438 1.235 . S
O434 Fe419 1.976 . S
O434 C428 1.287 . S
O435 Fe421 1.996 . S
O435 C428 1.255 . S
C436 O429 1.287 . S
C436 O430 1.255 . S
O437 Fe419 2.002 . S
O437 C433 1.295 . S
O438 Fe421 1.997 . S
O438 C433 1.235 . S
C439 O422 1.295 . S
C439 O423 1.235 . S
Fe440 O442 1.918 . S
Fe440 O445 1.997 . S
Fe440 O446 2.002 . S
Fe440 O451 1.976 . S
Fe440 O454 1.996 . S
Fe441 O442 1.918 . S
Fe441 O449 1.997 . S
Fe441 O452 1.996 . S
Fe441 O456 1.976 . S
Fe441 O459 2.002 . S
O442 Fe440 1.918 . S
O442 Fe441 1.918 . S
O442 Fe443 1.918 . S
Fe443 O442 1.918 . S
Fe443 O444 2.002 . S
Fe443 O453 1.976 . S
Fe443 O457 1.996 . S
Fe443 O460 1.997 . S
O444 Fe443 2.002 . S
O444 C461 1.295 . S
O445 Fe440 1.997 . S
O445 C461 1.235 . S
O446 Fe440 2.002 . S
O446 C447 1.295 . S
C447 O446 1.295 . S
C447 O449 1.235 . S
C448 O453 1.287 . S
C448 O454 1.255 . S
O449 Fe441 1.997 . S
O449 C447 1.235 . S
C450 O456 1.287 . S
C450 O457 1.255 . S
O451 Fe440 1.976 . S
O451 C458 1.287 . S
O452 Fe441 1.996 . S
O452 C458 1.255 . S
O453 Fe443 1.976 . S
O453 C448 1.287 . S
O454 Fe440 1.996 . S
O454 C448 1.255 . S
C455 O459 1.295 . S
C455 O460 1.235 . S
O456 Fe441 1.976 . S
O456 C450 1.287 . S
O457 Fe443 1.996 . S
O457 C450 1.255 . S
C458 O451 1.287 . S
C458 O452 1.255 . S
O459 Fe441 2.002 . S
O459 C455 1.295 . S
O460 Fe443 1.997 . S
O460 C455 1.235 . S
C461 O444 1.295 . S
C461 O445 1.235 . S
Fe462 O464 1.918 . S
Fe462 O467 1.997 . S
Fe462 O468 2.002 . S
Fe462 O473 1.976 . S
Fe462 O476 1.996 . S
Fe463 O464 1.918 . S
Fe463 O471 1.997 . S
Fe463 O474 1.996 . S
Fe463 O478 1.976 . S
Fe463 O481 2.002 . S
O464 Fe462 1.918 . S
O464 Fe463 1.918 . S
O464 Fe465 1.918 . S
Fe465 O464 1.918 . S
Fe465 O466 2.002 . S
Fe465 O475 1.976 . S
Fe465 O479 1.996 . S
Fe465 O482 1.997 . S
O466 Fe465 2.002 . S
O466 C483 1.295 . S
O467 Fe462 1.997 . S
O467 C483 1.235 . S
O468 Fe462 2.002 . S
O468 C469 1.295 . S
C469 O468 1.295 . S
C469 O471 1.235 . S
C470 O475 1.287 . S
C470 O476 1.255 . S
O471 Fe463 1.997 . S
O471 C469 1.235 . S
C472 O478 1.287 . S
C472 O479 1.255 . S
O473 Fe462 1.976 . S
O473 C480 1.287 . S
O474 Fe463 1.996 . S
O474 C480 1.255 . S
O475 Fe465 1.976 . S
O475 C470 1.287 . S
O476 Fe462 1.996 . S
O476 C470 1.255 . S
C477 O481 1.295 . S
C477 O482 1.235 . S
O478 Fe463 1.976 . S
O478 C472 1.287 . S
O479 Fe465 1.996 . S
O479 C472 1.255 . S
C480 O473 1.287 . S
C480 O474 1.255 . S
O481 Fe463 2.002 . S
O481 C477 1.295 . S
O482 Fe465 1.997 . S
O482 C477 1.235 . S
C483 O466 1.295 . S
C483 O467 1.235 . S
Fe484 O486 1.918 . S
Fe484 O489 1.997 . S
Fe484 O490 2.002 . S
Fe484 O495 1.976 . S
Fe484 O498 1.996 . S
Fe485 O486 1.918 . S
Fe485 O493 1.997 . S
Fe485 O496 1.996 . S
Fe485 O500 1.976 . S
Fe485 O503 2.002 . S
O486 Fe484 1.918 . S
O486 Fe485 1.918 . S
O486 Fe487 1.918 . S
Fe487 O486 1.918 . S
Fe487 O488 2.002 . S
Fe487 O497 1.976 . S
Fe487 O501 1.996 . S
Fe487 O504 1.997 . S
O488 Fe487 2.002 . S
O488 C505 1.295 . S
O489 Fe484 1.997 . S
O489 C505 1.235 . S
O490 Fe484 2.002 . S
O490 C491 1.295 . S
C491 O490 1.295 . S
C491 O493 1.235 . S
C492 O497 1.287 . S
C492 O498 1.255 . S
O493 Fe485 1.997 . S
O493 C491 1.235 . S
C494 O500 1.287 . S
C494 O501 1.255 . S
O495 Fe484 1.976 . S
O495 C502 1.287 . S
O496 Fe485 1.996 . S
O496 C502 1.255 . S
O497 Fe487 1.976 . S
O497 C492 1.287 . S
O498 Fe484 1.996 . S
O498 C492 1.255 . S
C499 O503 1.295 . S
C499 O504 1.235 . S
O500 Fe485 1.976 . S
O500 C494 1.287 . S
O501 Fe487 1.996 . S
O501 C494 1.255 . S
C502 O495 1.287 . S
C502 O496 1.255 . S
O503 Fe485 2.002 . S
O503 C499 1.295 . S
O504 Fe487 1.997 . S
O504 C499 1.235 . S
C505 O488 1.295 . S
C505 O489 1.235 . S
Fe506 O508 1.918 . S
Fe506 O511 1.997 . S
Fe506 O512 2.002 . S
Fe506 O517 1.976 . S
Fe506 O520 1.996 . S
Fe507 O508 1.918 . S
Fe507 O515 1.997 . S
Fe507 O518 1.996 . S
Fe507 O522 1.976 . S
Fe507 O525 2.002 . S
O508 Fe506 1.918 . S
O508 Fe507 1.918 . S
O508 Fe509 1.918 . S
Fe509 O508 1.918 . S
Fe509 O510 2.002 . S
Fe509 O519 1.976 . S
Fe509 O523 1.996 . S
Fe509 O526 1.997 . S
O510 Fe509 2.002 . S
O510 C527 1.295 . S
O511 Fe506 1.997 . S
O511 C527 1.235 . S
O512 Fe506 2.002 . S
O512 C513 1.295 . S
C513 O512 1.295 . S
C513 O515 1.235 . S
C514 O519 1.287 . S
C514 O520 1.255 . S
O515 Fe507 1.997 . S
O515 C513 1.235 . S
C516 O522 1.287 . S
C516 O523 1.255 . S
O517 Fe506 1.976 . S
O517 C524 1.287 . S
O518 Fe507 1.996 . S
O518 C524 1.255 . S
O519 Fe509 1.976 . S
O519 C514 1.287 . S
O520 Fe506 1.996 . S
O520 C514 1.255 . S
C521 O525 1.295 . S
C521 O526 1.235 . S
O522 Fe507 1.976 . S
O522 C516 1.287 . S
O523 Fe509 1.996 . S
O523 C516 1.255 . S
C524 O517 1.287 . S
C524 O518 1.255 . S
O525 Fe507 2.002 . S
O525 C521 1.295 . S
O526 Fe509 1.997 . S
O526 C521 1.235 . S
C527 O510 1.295 . S
C527 O511 1.235 . S
Fe528 O530 1.918 . S
Fe528 O533 1.997 . S
Fe528 O534 2.002 . S
Fe528 O539 1.976 . S
Fe528 O542 1.996 . S
Fe529 O530 1.918 . S
Fe529 O537 1.997 . S
Fe529 O540 1.996 . S
Fe529 O544 1.976 . S
Fe529 O547 2.002 . S
O530 Fe528 1.918 . S
O530 Fe529 1.918 . S
O530 Fe531 1.918 . S
Fe531 O530 1.918 . S
Fe531 O532 2.002 . S
Fe531 O541 1.976 . S
Fe531 O545 1.996 . S
Fe531 O548 1.997 . S
O532 Fe531 2.002 . S
O532 C549 1.295 . S
O533 Fe528 1.997 . S
O533 C549 1.235 . S
O534 Fe528 2.002 . S
O534 C535 1.295 . S
C535 O534 1.295 . S
C535 O537 1.235 . S
C536 O541 1.287 . S
C536 O542 1.255 . S
O537 Fe529 1.997 . S
O537 C535 1.235 . S
C538 O544 1.287 . S
C538 O545 1.255 . S
O539 Fe528 1.976 . S
O539 C546 1.287 . S
O540 Fe529 1.996 . S
O540 C546 1.255 . S
O541 Fe531 1.976 . S
O541 C536 1.287 . S
O542 Fe528 1.996 . S
O542 C536 1.255 . S
C543 O547 1.295 . S
C543 O548 1.235 . S
O544 Fe529 1.976 . S
O544 C538 1.287 . S
O545 Fe531 1.996 . S
O545 C538 1.255 . S
C546 O539 1.287 . S
C546 O540 1.255 . S
O547 Fe529 2.002 . S
O547 C543 1.295 . S
O548 Fe531 1.997 . S
O548 C543 1.235 . S
C549 O532 1.295 . S
C549 O533 1.235 . S
Fe550 O552 1.918 . S
Fe550 O555 1.997 . S
Fe550 O556 2.002 . S
Fe550 O561 1.976 . S
Fe550 O564 1.996 . S
Fe551 O552 1.918 . S
Fe551 O559 1.997 . S
Fe551 O562 1.996 . S
Fe551 O566 1.976 . S
Fe551 O569 2.002 . S
O552 Fe550 1.918 . S
O552 Fe551 1.918 . S
O552 Fe553 1.918 . S
Fe553 O552 1.918 . S
Fe553 O554 2.002 . S
Fe553 O563 1.976 . S
Fe553 O567 1.996 . S
Fe553 O570 1.997 . S
O554 Fe553 2.002 . S
O554 C571 1.295 . S
O555 Fe550 1.997 . S
O555 C571 1.235 . S
O556 Fe550 2.002 . S
O556 C557 1.295 . S
C557 O556 1.295 . S
C557 O559 1.235 . S
C558 O563 1.287 . S
C558 O564 1.255 . S
O559 Fe551 1.997 . S
O559 C557 1.235 . S
C560 O566 1.287 . S
C560 O567 1.255 . S
O561 Fe550 1.976 . S
O561 C568 1.287 . S
O562 Fe551 1.996 . S
O562 C568 1.255 . S
O563 Fe553 1.976 . S
O563 C558 1.287 . S
O564 Fe550 1.996 . S
O564 C558 1.255 . S
C565 O569 1.295 . S
C565 O570 1.235 . S
O566 Fe551 1.976 . S
O566 C560 1.287 . S
O567 Fe553 1.996 . S
O567 C560 1.255 . S
C568 O561 1.287 . S
C568 O562 1.255 . S
O569 Fe551 2.002 . S
O569 C565 1.295 . S
O570 Fe553 1.997 . S
O570 C565 1.235 . S
C571 O554 1.295 . S
C571 O555 1.235 . S
Fe572 O574 1.918 . S
Fe572 O577 1.997 . S
Fe572 O578 2.002 . S
Fe572 O583 1.976 . S
Fe572 O586 1.996 . S
Fe573 O574 1.918 . S
Fe573 O581 1.997 . S
Fe573 O584 1.996 . S
Fe573 O588 1.976 . S
Fe573 O591 2.002 . S
O574 Fe572 1.918 . S
O574 Fe573 1.918 . S
O574 Fe575 1.918 . S
Fe575 O574 1.918 . S
Fe575 O576 2.002 . S
Fe575 O585 1.976 . S
Fe575 O589 1.996 . S
Fe575 O592 1.997 . S
O576 Fe575 2.002 . S
O576 C593 1.295 . S
O577 Fe572 1.997 . S
O577 C593 1.235 . S
O578 Fe572 2.002 . S
O578 C579 1.295 . S
C579 O578 1.295 . S
C579 O581 1.235 . S
C580 O585 1.287 . S
C580 O586 1.255 . S
O581 Fe573 1.997 . S
O581 C579 1.235 . S
C582 O588 1.287 . S
C582 O589 1.255 . S
O583 Fe572 1.976 . S
O583 C590 1.287 . S
O584 Fe573 1.996 . S
O584 C590 1.255 . S
O585 Fe575 1.976 . S
O585 C580 1.287 . S
O586 Fe572 1.996 . S
O586 C580 1.255 . S
C587 O591 1.295 . S
C587 O592 1.235 . S
O588 Fe573 1.976 . S
O588 C582 1.287 . S
O589 Fe575 1.996 . S
O589 C582 1.255 . S
C590 O583 1.287 . S
C590 O584 1.255 . S
O591 Fe573 2.002 . S
O591 C587 1.295 . S
O592 Fe575 1.997 . S
O592 C587 1.235 . S
C593 O576 1.295 . S
C593 O577 1.235 . S
Fe594 O596 1.918 . S
Fe594 O599 1.997 . S
Fe594 O600 2.002 . S
Fe594 O605 1.976 . S
Fe594 O608 1.996 . S
Fe595 O596 1.918 . S
Fe595 O603 1.997 . S
Fe595 O606 1.996 . S
Fe595 O610 1.976 . S
Fe595 O613 2.002 . S
O596 Fe594 1.918 . S
O596 Fe595 1.918 . S
O596 Fe597 1.918 . S
Fe597 O596 1.918 . S
Fe597 O598 2.002 . S
Fe597 O607 1.976 . S
Fe597 O611 1.996 . S
Fe597 O614 1.997 . S
O598 Fe597 2.002 . S
O598 C615 1.295 . S
O599 Fe594 1.997 . S
O599 C615 1.235 . S
O600 Fe594 2.002 . S
O600 C601 1.295 . S
C601 O600 1.295 . S
C601 O603 1.235 . S
C602 O607 1.287 . S
C602 O608 1.255 . S
O603 Fe595 1.997 . S
O603 C601 1.235 . S
C604 O610 1.287 . S
C604 O611 1.255 . S
O605 Fe594 1.976 . S
O605 C612 1.287 . S
O606 Fe595 1.996 . S
O606 C612 1.255 . S
O607 Fe597 1.976 . S
O607 C602 1.287 . S
O608 Fe594 1.996 . S
O608 C602 1.255 . S
C609 O613 1.295 . S
C609 O614 1.235 . S
O610 Fe595 1.976 . S
O610 C604 1.287 . S
O611 Fe597 1.996 . S
O611 C604 1.255 . S
C612 O605 1.287 . S
C612 O606 1.255 . S
O613 Fe595 2.002 . S
O613 C609 1.295 . S
O614 Fe597 1.997 . S
O614 C609 1.235 . S
C615 O598 1.295 . S
C615 O599 1.235 . S
Fe616 O618 1.918 . S
Fe616 O621 1.997 . S
Fe616 O622 2.002 . S
Fe616 O627 1.976 . S
Fe616 O630 1.996 . S
Fe617 O618 1.918 . S
Fe617 O625 1.997 . S
Fe617 O628 1.996 . S
Fe617 O632 1.976 . S
Fe617 O635 2.002 . S
O618 Fe616 1.918 . S
O618 Fe617 1.918 . S
O618 Fe619 1.918 . S
Fe619 O618 1.918 . S
Fe619 O620 2.002 . S
Fe619 O629 1.976 . S
Fe619 O633 1.996 . S
Fe619 O636 1.997 . S
O620 Fe619 2.002 . S
O620 C637 1.295 . S
O621 Fe616 1.997 . S
O621 C637 1.235 . S
O622 Fe616 2.002 . S
O622 C623 1.295 . S
C623 O622 1.295 . S
C623 O625 1.235 . S
C624 O629 1.287 . S
C624 O630 1.255 . S
O625 Fe617 1.997 . S
O625 C623 1.235 . S
C626 O632 1.287 . S
C626 O633 1.255 . S
O627 Fe616 1.976 . S
O627 C634 1.287 . S
O628 Fe617 1.996 . S
O628 C634 1.255 . S
O629 Fe619 1.976 . S
O629 C624 1.287 . S
O630 Fe616 1.996 . S
O630 C624 1.255 . S
C631 O635 1.295 . S
C631 O636 1.235 . S
O632 Fe617 1.976 . S
O632 C626 1.287 . S
O633 Fe619 1.996 . S
O633 C626 1.255 . S
C634 O627 1.287 . S
C634 O628 1.255 . S
O635 Fe617 2.002 . S
O635 C631 1.295 . S
O636 Fe619 1.997 . S
O636 C631 1.235 . S
C637 O620 1.295 . S
C637 O621 1.235 . S
Fe638 O640 1.918 . S
Fe638 O643 1.997 . S
Fe638 O644 2.002 . S
Fe638 O649 1.976 . S
Fe638 O652 1.996 . S
Fe639 O640 1.918 . S
Fe639 O647 1.997 . S
Fe639 O650 1.996 . S
Fe639 O654 1.976 . S
Fe639 O657 2.002 . S
O640 Fe638 1.918 . S
O640 Fe639 1.918 . S
O640 Fe641 1.918 . S
Fe641 O640 1.918 . S
Fe641 O642 2.002 . S
Fe641 O651 1.976 . S
Fe641 O655 1.996 . S
Fe641 O658 1.997 . S
O642 Fe641 2.002 . S
O642 C659 1.295 . S
O643 Fe638 1.997 . S
O643 C659 1.235 . S
O644 Fe638 2.002 . S
O644 C645 1.295 . S
C645 O644 1.295 . S
C645 O647 1.235 . S
C646 O651 1.287 . S
C646 O652 1.255 . S
O647 Fe639 1.997 . S
O647 C645 1.235 . S
C648 O654 1.287 . S
C648 O655 1.255 . S
O649 Fe638 1.976 . S
O649 C656 1.287 . S
O650 Fe639 1.996 . S
O650 C656 1.255 . S
O651 Fe641 1.976 . S
O651 C646 1.287 . S
O652 Fe638 1.996 . S
O652 C646 1.255 . S
C653 O657 1.295 . S
C653 O658 1.235 . S
O654 Fe639 1.976 . S
O654 C648 1.287 . S
O655 Fe641 1.996 . S
O655 C648 1.255 . S
C656 O649 1.287 . S
C656 O650 1.255 . S
O657 Fe639 2.002 . S
O657 C653 1.295 . S
O658 Fe641 1.997 . S
O658 C653 1.235 . S
C659 O642 1.295 . S
C659 O643 1.235 . S
Fe660 O662 1.918 . S
Fe660 O665 1.997 . S
Fe660 O666 2.002 . S
Fe660 O671 1.976 . S
Fe660 O674 1.996 . S
Fe661 O662 1.918 . S
Fe661 O669 1.997 . S
Fe661 O672 1.996 . S
Fe661 O676 1.976 . S
Fe661 O679 2.002 . S
O662 Fe660 1.918 . S
O662 Fe661 1.918 . S
O662 Fe663 1.918 . S
Fe663 O662 1.918 . S
Fe663 O664 2.002 . S
Fe663 O673 1.976 . S
Fe663 O677 1.996 . S
Fe663 O680 1.997 . S
O664 Fe663 2.002 . S
O664 C681 1.295 . S
O665 Fe660 1.997 . S
O665 C681 1.235 . S
O666 Fe660 2.002 . S
O666 C667 1.295 . S
C667 O666 1.295 . S
C667 O669 1.235 . S
C668 O673 1.287 . S
C668 O674 1.255 . S
O669 Fe661 1.997 . S
O669 C667 1.235 . S
C670 O676 1.287 . S
C670 O677 1.255 . S
O671 Fe660 1.976 . S
O671 C678 1.287 . S
O672 Fe661 1.996 . S
O672 C678 1.255 . S
O673 Fe663 1.976 . S
O673 C668 1.287 . S
O674 Fe660 1.996 . S
O674 C668 1.255 . S
C675 O679 1.295 . S
C675 O680 1.235 . S
O676 Fe661 1.976 . S
O676 C670 1.287 . S
O677 Fe663 1.996 . S
O677 C670 1.255 . S
C678 O671 1.287 . S
C678 O672 1.255 . S
O679 Fe661 2.002 . S
O679 C675 1.295 . S
O680 Fe663 1.997 . S
O680 C675 1.235 . S
C681 O664 1.295 . S
C681 O665 1.235 . S
Fe682 O684 1.918 . S
Fe682 O687 1.997 . S
Fe682 O688 2.002 . S
Fe682 O693 1.976 . S
Fe682 O696 1.996 . S
Fe683 O684 1.918 . S
Fe683 O691 1.997 . S
Fe683 O694 1.996 . S
Fe683 O698 1.976 . S
Fe683 O701 2.002 . S
O684 Fe682 1.918 . S
O684 Fe683 1.918 . S
O684 Fe685 1.918 . S
Fe685 O684 1.918 . S
Fe685 O686 2.002 . S
Fe685 O695 1.976 . S
Fe685 O699 1.996 . S
Fe685 O702 1.997 . S
O686 Fe685 2.002 . S
O686 C703 1.295 . S
O687 Fe682 1.997 . S
O687 C703 1.235 . S
O688 Fe682 2.002 . S
O688 C689 1.295 . S
C689 O688 1.295 . S
C689 O691 1.235 . S
C690 O695 1.287 . S
C690 O696 1.255 . S
O691 Fe683 1.997 . S
O691 C689 1.235 . S
C692 O698 1.287 . S
C692 O699 1.255 . S
O693 Fe682 1.976 . S
O693 C700 1.287 . S
O694 Fe683 1.996 . S
O694 C700 1.255 . S
O695 Fe685 1.976 . S
O695 C690 1.287 . S
O696 Fe682 1.996 . S
O696 C690 1.255 . S
C697 O701 1.295 . S
C697 O702 1.235 . S
O698 Fe683 1.976 . S
O698 C692 1.287 . S
O699 Fe685 1.996 . S
O699 C692 1.255 . S
C700 O693 1.287 . S
C700 O694 1.255 . S
O701 Fe683 2.002 . S
O701 C697 1.295 . S
O702 Fe685 1.997 . S
O702 C697 1.235 . S
C703 O686 1.295 . S
C703 O687 1.235 . S
C704 C705 1.349 . S
C704 C706 1.327 . S
C704 H729 0.950 . S
C705 C704 1.349 . S
C705 C721 1.349 . S
C706 C704 1.327 . S
C706 C725 1.429 . S
C706 H730 0.950 . S
C707 C724 1.574 . S
C707 C726 1.368 . S
C707 H731 0.949 . S
H708 C712 0.949 . S
C709 C710 1.349 . S
C709 C711 1.327 . S
C709 H732 0.950 . S
C710 C709 1.349 . S
C710 C722 1.349 . S
C711 C709 1.327 . S
C711 C727 1.429 . S
C711 H733 0.950 . S
C712 H708 0.949 . S
C712 C720 1.574 . S
C712 C728 1.368 . S
H713 C721 0.950 . S
H714 C719 0.950 . S
H715 C720 0.949 . S
H716 C722 0.950 . S
H717 C723 0.950 . S
H718 C724 0.949 . S
C719 H714 0.950 . S
C719 C721 1.327 . S
C719 C725 1.429 . S
C720 C712 1.574 . S
C720 H715 0.949 . S
C720 C726 1.368 . S
C721 C705 1.349 . S
C721 H713 0.950 . S
C721 C719 1.327 . S
C722 C710 1.349 . S
C722 H716 0.950 . S
C722 C723 1.327 . S
C723 H717 0.950 . S
C723 C722 1.327 . S
C723 C727 1.429 . S
C724 C707 1.574 . S
C724 H718 0.949 . S
C724 C728 1.368 . S
C725 C706 1.429 . S
C725 C719 1.429 . S
C725 C726 1.523 . S
C726 C707 1.368 . S
C726 C720 1.368 . S
C726 C725 1.523 . S
C727 C711 1.429 . S
C727 C723 1.429 . S
C727 C728 1.523 . S
C728 C712 1.368 . S
C728 C724 1.368 . S
C728 C727 1.523 . S
H729 C704 0.950 . S
H730 C706 0.950 . S
H731 C707 0.949 . S
H732 C709 0.950 . S
H733 C711 0.950 . S
C734 C735 1.349 . S
C734 C736 1.327 . S
C734 H759 0.950 . S
C735 C734 1.349 . S
C735 C751 1.349 . S
C736 C734 1.327 . S
C736 C755 1.429 . S
C736 H760 0.950 . S
C737 C754 1.574 . S
C737 C756 1.368 . S
C737 H761 0.949 . S
H738 C742 0.949 . S
C739 C740 1.349 . S
C739 C741 1.327 . S
C739 H762 0.950 . S
C740 C739 1.349 . S
C740 C752 1.349 . S
C741 C739 1.327 . S
C741 C757 1.429 . S
C741 H763 0.950 . S
C742 H738 0.949 . S
C742 C750 1.574 . S
C742 C758 1.368 . S
H743 C751 0.950 . S
H744 C749 0.950 . S
H745 C750 0.949 . S
H746 C752 0.950 . S
H747 C753 0.950 . S
H748 C754 0.949 . S
C749 H744 0.950 . S
C749 C751 1.327 . S
C749 C755 1.429 . S
C750 C742 1.574 . S
C750 H745 0.949 . S
C750 C756 1.368 . S
C751 C735 1.349 . S
C751 H743 0.950 . S
C751 C749 1.327 . S
C752 C740 1.349 . S
C752 H746 0.950 . S
C752 C753 1.327 . S
C753 H747 0.950 . S
C753 C752 1.327 . S
C753 C757 1.429 . S
C754 C737 1.574 . S
C754 H748 0.949 . S
C754 C758 1.368 . S
C755 C736 1.429 . S
C755 C749 1.429 . S
C755 C756 1.523 . S
C756 C737 1.368 . S
C756 C750 1.368 . S
C756 C755 1.523 . S
C757 C741 1.429 . S
C757 C753 1.429 . S
C757 C758 1.523 . S
C758 C742 1.368 . S
C758 C754 1.368 . S
C758 C757 1.523 . S
H759 C734 0.950 . S
H760 C736 0.950 . S
H761 C737 0.949 . S
H762 C739 0.950 . S
H763 C741 0.950 . S
C764 C765 1.349 . S
C764 C766 1.327 . S
C764 H789 0.950 . S
C765 C764 1.349 . S
C765 C781 1.349 . S
C766 C764 1.327 . S
C766 C785 1.429 . S
C766 H790 0.950 . S
C767 C784 1.574 . S
C767 C786 1.368 . S
C767 H791 0.949 . S
H768 C772 0.949 . S
C769 C770 1.349 . S
C769 C771 1.327 . S
C769 H792 0.950 . S
C770 C769 1.349 . S
C770 C782 1.349 . S
C771 C769 1.327 . S
C771 C787 1.429 . S
C771 H793 0.950 . S
C772 H768 0.949 . S
C772 C780 1.574 . S
C772 C788 1.368 . S
H773 C781 0.950 . S
H774 C779 0.950 . S
H775 C780 0.949 . S
H776 C782 0.950 . S
H777 C783 0.950 . S
H778 C784 0.949 . S
C779 H774 0.950 . S
C779 C781 1.327 . S
C779 C785 1.429 . S
C780 C772 1.574 . S
C780 H775 0.949 . S
C780 C786 1.368 . S
C781 C765 1.349 . S
C781 H773 0.950 . S
C781 C779 1.327 . S
C782 C770 1.349 . S
C782 H776 0.950 . S
C782 C783 1.327 . S
C783 H777 0.950 . S
C783 C782 1.327 . S
C783 C787 1.429 . S
C784 C767 1.574 . S
C784 H778 0.949 . S
C784 C788 1.368 . S
C785 C766 1.429 . S
C785 C779 1.429 . S
C785 C786 1.523 . S
C786 C767 1.368 . S
C786 C780 1.368 . S
C786 C785 1.523 . S
C787 C771 1.429 . S
C787 C783 1.429 . S
C787 C788 1.523 . S
C788 C772 1.368 . S
C788 C784 1.368 . S
C788 C787 1.523 . S
H789 C764 0.950 . S
H790 C766 0.950 . S
H791 C767 0.949 . S
H792 C769 0.950 . S
H793 C771 0.950 . S
C794 C795 1.349 . S
C794 C796 1.327 . S
C794 H819 0.950 . S
C795 C794 1.349 . S
C795 C811 1.349 . S
C796 C794 1.327 . S
C796 C815 1.429 . S
C796 H820 0.950 . S
C797 C814 1.574 . S
C797 C816 1.368 . S
C797 H821 0.949 . S
H798 C802 0.949 . S
C799 C800 1.349 . S
C799 C801 1.327 . S
C799 H822 0.950 . S
C800 C799 1.349 . S
C800 C812 1.349 . S
C801 C799 1.327 . S
C801 C817 1.429 . S
C801 H823 0.950 . S
C802 H798 0.949 . S
C802 C810 1.574 . S
C802 C818 1.368 . S
H803 C811 0.950 . S
H804 C809 0.950 . S
H805 C810 0.949 . S
H806 C812 0.950 . S
H807 C813 0.950 . S
H808 C814 0.949 . S
C809 H804 0.950 . S
C809 C811 1.327 . S
C809 C815 1.429 . S
C810 C802 1.574 . S
C810 H805 0.949 . S
C810 C816 1.368 . S
C811 C795 1.349 . S
C811 H803 0.950 . S
C811 C809 1.327 . S
C812 C800 1.349 . S
C812 H806 0.950 . S
C812 C813 1.327 . S
C813 H807 0.950 . S
C813 C812 1.327 . S
C813 C817 1.429 . S
C814 C797 1.574 . S
C814 H808 0.949 . S
C814 C818 1.368 . S
C815 C796 1.429 . S
C815 C809 1.429 . S
C815 C816 1.523 . S
C816 C797 1.368 . S
C816 C810 1.368 . S
C816 C815 1.523 . S
C817 C801 1.429 . S
C817 C813 1.429 . S
C817 C818 1.523 . S
C818 C802 1.368 . S
C818 C814 1.368 . S
C818 C817 1.523 . S
H819 C794 0.950 . S
H820 C796 0.950 . S
H821 C797 0.949 . S
H822 C799 0.950 . S
H823 C801 0.950 . S
C824 C825 1.349 . S
C824 C826 1.327 . S
C824 H849 0.950 . S
C825 C824 1.349 . S
C825 C841 1.349 . S
C826 C824 1.327 . S
C826 C845 1.429 . S
C826 H850 0.950 . S
C827 C844 1.574 . S
C827 C846 1.368 . S
C827 H851 0.949 . S
H828 C832 0.949 . S
C829 C830 1.349 . S
C829 C831 1.327 . S
C829 H852 0.950 . S
C830 C829 1.349 . S
C830 C842 1.349 . S
C831 C829 1.327 . S
C831 C847 1.429 . S
C831 H853 0.950 . S
C832 H828 0.949 . S
C832 C840 1.574 . S
C832 C848 1.368 . S
H833 C841 0.950 . S
H834 C839 0.950 . S
H835 C840 0.949 . S
H836 C842 0.950 . S
H837 C843 0.950 . S
H838 C844 0.949 . S
C839 H834 0.950 . S
C839 C841 1.327 . S
C839 C845 1.429 . S
C840 C832 1.574 . S
C840 H835 0.949 . S
C840 C846 1.368 . S
C841 C825 1.349 . S
C841 H833 0.950 . S
C841 C839 1.327 . S
C842 C830 1.349 . S
C842 H836 0.950 . S
C842 C843 1.327 . S
C843 H837 0.950 . S
C843 C842 1.327 . S
C843 C847 1.429 . S
C844 C827 1.574 . S
C844 H838 0.949 . S
C844 C848 1.368 . S
C845 C826 1.429 . S
C845 C839 1.429 . S
C845 C846 1.523 . S
C846 C827 1.368 . S
C846 C840 1.368 . S
C846 C845 1.523 . S
C847 C831 1.429 . S
C847 C843 1.429 . S
C847 C848 1.523 . S
C848 C832 1.368 . S
C848 C844 1.368 . S
C848 C847 1.523 . S
H849 C824 0.950 . S
H850 C826 0.950 . S
H851 C827 0.949 . S
H852 C829 0.950 . S
H853 C831 0.950 . S
C854 C855 1.349 . S
C854 C856 1.327 . S
C854 H879 0.950 . S
C855 C854 1.349 . S
C855 C871 1.349 . S
C856 C854 1.327 . S
C856 C875 1.429 . S
C856 H880 0.950 . S
C857 C874 1.574 . S
C857 C876 1.368 . S
C857 H881 0.949 . S
H858 C862 0.949 . S
C859 C860 1.349 . S
C859 C861 1.327 . S
C859 H882 0.950 . S
C860 C859 1.349 . S
C860 C872 1.349 . S
C861 C859 1.327 . S
C861 C877 1.429 . S
C861 H883 0.950 . S
C862 H858 0.949 . S
C862 C870 1.574 . S
C862 C878 1.368 . S
H863 C871 0.950 . S
H864 C869 0.950 . S
H865 C870 0.949 . S
H866 C872 0.950 . S
H867 C873 0.950 . S
H868 C874 0.949 . S
C869 H864 0.950 . S
C869 C871 1.327 . S
C869 C875 1.429 . S
C870 C862 1.574 . S
C870 H865 0.949 . S
C870 C876 1.368 . S
C871 C855 1.349 . S
C871 H863 0.950 . S
C871 C869 1.327 . S
C872 C860 1.349 . S
C872 H866 0.950 . S
C872 C873 1.327 . S
C873 H867 0.950 . S
C873 C872 1.327 . S
C873 C877 1.429 . S
C874 C857 1.574 . S
C874 H868 0.949 . S
C874 C878 1.368 . S
C875 C856 1.429 . S
C875 C869 1.429 . S
C875 C876 1.523 . S
C876 C857 1.368 . S
C876 C870 1.368 . S
C876 C875 1.523 . S
C877 C861 1.429 . S
C877 C873 1.429 . S
C877 C878 1.523 . S
C878 C862 1.368 . S
C878 C874 1.368 . S
C878 C877 1.523 . S
H879 C854 0.950 . S
H880 C856 0.950 . S
H881 C857 0.949 . S
H882 C859 0.950 . S
H883 C861 0.950 . S
C884 C885 1.349 . S
C884 C886 1.327 . S
C884 H909 0.950 . S
C885 C884 1.349 . S
C885 C901 1.349 . S
C886 C884 1.327 . S
C886 C905 1.429 . S
C886 H910 0.950 . S
C887 C904 1.574 . S
C887 C906 1.368 . S
C887 H911 0.949 . S
H888 C892 0.949 . S
C889 C890 1.349 . S
C889 C891 1.327 . S
C889 H912 0.950 . S
C890 C889 1.349 . S
C890 C902 1.349 . S
C891 C889 1.327 . S
C891 C907 1.429 . S
C891 H913 0.950 . S
C892 H888 0.949 . S
C892 C900 1.574 . S
C892 C908 1.368 . S
H893 C901 0.950 . S
H894 C899 0.950 . S
H895 C900 0.949 . S
H896 C902 0.950 . S
H897 C903 0.950 . S
H898 C904 0.949 . S
C899 H894 0.950 . S
C899 C901 1.327 . S
C899 C905 1.429 . S
C900 C892 1.574 . S
C900 H895 0.949 . S
C900 C906 1.368 . S
C901 C885 1.349 . S
C901 H893 0.950 . S
C901 C899 1.327 . S
C902 C890 1.349 . S
C902 H896 0.950 . S
C902 C903 1.327 . S
C903 H897 0.950 . S
C903 C902 1.327 . S
C903 C907 1.429 . S
C904 C887 1.574 . S
C904 H898 0.949 . S
C904 C908 1.368 . S
C905 C886 1.429 . S
C905 C899 1.429 . S
C905 C906 1.523 . S
C906 C887 1.368 . S
C906 C900 1.368 . S
C906 C905 1.523 . S
C907 C891 1.429 . S
C907 C903 1.429 . S
C907 C908 1.523 . S
C908 C892 1.368 . S
C908 C904 1.368 . S
C908 C907 1.523 . S
H909 C884 0.950 . S
H910 C886 0.950 . S
H911 C887 0.949 . S
H912 C889 0.950 . S
H913 C891 0.950 . S
C914 C915 1.349 . S
C914 C916 1.327 . S
C914 H939 0.950 . S
C915 C914 1.349 . S
C915 C931 1.349 . S
C916 C914 1.327 . S
C916 C935 1.429 . S
C916 H940 0.950 . S
C917 C934 1.574 . S
C917 C936 1.368 . S
C917 H941 0.949 . S
H918 C922 0.949 . S
C919 C920 1.349 . S
C919 C921 1.327 . S
C919 H942 0.950 . S
C920 C919 1.349 . S
C920 C932 1.349 . S
C921 C919 1.327 . S
C921 C937 1.429 . S
C921 H943 0.950 . S
C922 H918 0.949 . S
C922 C930 1.574 . S
C922 C938 1.368 . S
H923 C931 0.950 . S
H924 C929 0.950 . S
H925 C930 0.949 . S
H926 C932 0.950 . S
H927 C933 0.950 . S
H928 C934 0.949 . S
C929 H924 0.950 . S
C929 C931 1.327 . S
C929 C935 1.429 . S
C930 C922 1.574 . S
C930 H925 0.949 . S
C930 C936 1.368 . S
C931 C915 1.349 . S
C931 H923 0.950 . S
C931 C929 1.327 . S
C932 C920 1.349 . S
C932 H926 0.950 . S
C932 C933 1.327 . S
C933 H927 0.950 . S
C933 C932 1.327 . S
C933 C937 1.429 . S
C934 C917 1.574 . S
C934 H928 0.949 . S
C934 C938 1.368 . S
C935 C916 1.429 . S
C935 C929 1.429 . S
C935 C936 1.523 . S
C936 C917 1.368 . S
C936 C930 1.368 . S
C936 C935 1.523 . S
C937 C921 1.429 . S
C937 C933 1.429 . S
C937 C938 1.523 . S
C938 C922 1.368 . S
C938 C934 1.368 . S
C938 C937 1.523 . S
H939 C914 0.950 . S
H940 C916 0.950 . S
H941 C917 0.949 . S
H942 C919 0.950 . S
H943 C921 0.950 . S
C944 C945 1.349 . S
C944 C946 1.327 . S
C944 H969 0.950 . S
C945 C944 1.349 . S
C945 C961 1.349 . S
C946 C944 1.327 . S
C946 C965 1.429 . S
C946 H970 0.950 . S
C947 C964 1.574 . S
C947 C966 1.368 . S
C947 H971 0.949 . S
H948 C952 0.949 . S
C949 C950 1.349 . S
C949 C951 1.327 . S
C949 H972 0.950 . S
C950 C949 1.349 . S
C950 C962 1.349 . S
C951 C949 1.327 . S
C951 C967 1.429 . S
C951 H973 0.950 . S
C952 H948 0.949 . S
C952 C960 1.574 . S
C952 C968 1.368 . S
H953 C961 0.950 . S
H954 C959 0.950 . S
H955 C960 0.949 . S
H956 C962 0.950 . S
H957 C963 0.950 . S
H958 C964 0.949 . S
C959 H954 0.950 . S
C959 C961 1.327 . S
C959 C965 1.429 . S
C960 C952 1.574 . S
C960 H955 0.949 . S
C960 C966 1.368 . S
C961 C945 1.349 . S
C961 H953 0.950 . S
C961 C959 1.327 . S
C962 C950 1.349 . S
C962 H956 0.950 . S
C962 C963 1.327 . S
C963 H957 0.950 . S
C963 C962 1.327 . S
C963 C967 1.429 . S
C964 C947 1.574 . S
C964 H958 0.949 . S
C964 C968 1.368 . S
C965 C946 1.429 . S
C965 C959 1.429 . S
C965 C966 1.523 . S
C966 C947 1.368 . S
C966 C960 1.368 . S
C966 C965 1.523 . S
C967 C951 1.429 . S
C967 C963 1.429 . S
C967 C968 1.523 . S
C968 C952 1.368 . S
C968 C964 1.368 . S
C968 C967 1.523 . S
H969 C944 0.950 . S
H970 C946 0.950 . S
H971 C947 0.949 . S
H972 C949 0.950 . S
H973 C951 0.950 . S
C974 C975 1.349 . S
C974 C976 1.327 . S
C974 H999 0.950 . S
C975 C974 1.349 . S
C975 C991 1.349 . S
C976 C974 1.327 . S
C976 C995 1.429 . S
C976 H1000 0.950 . S
C977 C994 1.574 . S
C977 C996 1.368 . S
C977 H1001 0.949 . S
H978 C982 0.949 . S
C979 C980 1.349 . S
C979 C981 1.327 . S
C979 H1002 0.950 . S
C980 C979 1.349 . S
C980 C992 1.349 . S
C981 C979 1.327 . S
C981 C997 1.429 . S
C981 H1003 0.950 . S
C982 H978 0.949 . S
C982 C990 1.574 . S
C982 C998 1.368 . S
H983 C991 0.950 . S
H984 C989 0.950 . S
H985 C990 0.949 . S
H986 C992 0.950 . S
H987 C993 0.950 . S
H988 C994 0.949 . S
C989 H984 0.950 . S
C989 C991 1.327 . S
C989 C995 1.429 . S
C990 C982 1.574 . S
C990 H985 0.949 . S
C990 C996 1.368 . S
C991 C975 1.349 . S
C991 H983 0.950 . S
C991 C989 1.327 . S
C992 C980 1.349 . S
C992 H986 0.950 . S
C992 C993 1.327 . S
C993 H987 0.950 . S
C993 C992 1.327 . S
C993 C997 1.429 . S
C994 C977 1.574 . S
C994 H988 0.949 . S
C994 C998 1.368 . S
C995 C976 1.429 . S
C995 C989 1.429 . S
C995 C996 1.523 . S
C996 C977 1.368 . S
C996 C990 1.368 . S
C996 C995 1.523 . S
C997 C981 1.429 . S
C997 C993 1.429 . S
C997 C998 1.523 . S
C998 C982 1.368 . S
C998 C994 1.368 . S
C998 C997 1.523 . S
H999 C974 0.950 . S
H1000 C976 0.950 . S
H1001 C977 0.949 . S
H1002 C979 0.950 . S
H1003 C981 0.950 . S
C1004 C1005 1.349 . S
C1004 C1006 1.327 . S
C1004 H1029 0.950 . S
C1005 C1004 1.349 . S
C1005 C1021 1.349 . S
C1006 C1004 1.327 . S
C1006 C1025 1.429 . S
C1006 H1030 0.950 . S
C1007 C1024 1.574 . S
C1007 C1026 1.368 . S
C1007 H1031 0.949 . S
H1008 C1012 0.949 . S
C1009 C1010 1.349 . S
C1009 C1011 1.327 . S
C1009 H1032 0.950 . S
C1010 C1009 1.349 . S
C1010 C1022 1.349 . S
C1011 C1009 1.327 . S
C1011 C1027 1.429 . S
C1011 H1033 0.950 . S
C1012 H1008 0.949 . S
C1012 C1020 1.574 . S
C1012 C1028 1.368 . S
H1013 C1021 0.950 . S
H1014 C1019 0.950 . S
H1015 C1020 0.949 . S
H1016 C1022 0.950 . S
H1017 C1023 0.950 . S
H1018 C1024 0.949 . S
C1019 H1014 0.950 . S
C1019 C1021 1.327 . S
C1019 C1025 1.429 . S
C1020 C1012 1.574 . S
C1020 H1015 0.949 . S
C1020 C1026 1.368 . S
C1021 C1005 1.349 . S
C1021 H1013 0.950 . S
C1021 C1019 1.327 . S
C1022 C1010 1.349 . S
C1022 H1016 0.950 . S
C1022 C1023 1.327 . S
C1023 H1017 0.950 . S
C1023 C1022 1.327 . S
C1023 C1027 1.429 . S
C1024 C1007 1.574 . S
C1024 H1018 0.949 . S
C1024 C1028 1.368 . S
C1025 C1006 1.429 . S
C1025 C1019 1.429 . S
C1025 C1026 1.523 . S
C1026 C1007 1.368 . S
C1026 C1020 1.368 . S
C1026 C1025 1.523 . S
C1027 C1011 1.429 . S
C1027 C1023 1.429 . S
C1027 C1028 1.523 . S
C1028 C1012 1.368 . S
C1028 C1024 1.368 . S
C1028 C1027 1.523 . S
H1029 C1004 0.950 . S
H1030 C1006 0.950 . S
H1031 C1007 0.949 . S
H1032 C1009 0.950 . S
H1033 C1011 0.950 . S
C1034 C1035 1.349 . S
C1034 C1036 1.327 . S
C1034 H1059 0.950 . S
C1035 C1034 1.349 . S
C1035 C1051 1.349 . S
C1036 C1034 1.327 . S
C1036 C1055 1.429 . S
C1036 H1060 0.950 . S
C1037 C1054 1.574 . S
C1037 C1056 1.368 . S
C1037 H1061 0.949 . S
H1038 C1042 0.949 . S
C1039 C1040 1.349 . S
C1039 C1041 1.327 . S
C1039 H1062 0.950 . S
C1040 C1039 1.349 . S
C1040 C1052 1.349 . S
C1041 C1039 1.327 . S
C1041 C1057 1.429 . S
C1041 H1063 0.950 . S
C1042 H1038 0.949 . S
C1042 C1050 1.574 . S
C1042 C1058 1.368 . S
H1043 C1051 0.950 . S
H1044 C1049 0.950 . S
H1045 C1050 0.949 . S
H1046 C1052 0.950 . S
H1047 C1053 0.950 . S
H1048 C1054 0.949 . S
C1049 H1044 0.950 . S
C1049 C1051 1.327 . S
C1049 C1055 1.429 . S
C1050 C1042 1.574 . S
C1050 H1045 0.949 . S
C1050 C1056 1.368 . S
C1051 C1035 1.349 . S
C1051 H1043 0.950 . S
C1051 C1049 1.327 . S
C1052 C1040 1.349 . S
C1052 H1046 0.950 . S
C1052 C1053 1.327 . S
C1053 H1047 0.950 . S
C1053 C1052 1.327 . S
C1053 C1057 1.429 . S
C1054 C1037 1.574 . S
C1054 H1048 0.949 . S
C1054 C1058 1.368 . S
C1055 C1036 1.429 . S
C1055 C1049 1.429 . S
C1055 C1056 1.523 . S
C1056 C1037 1.368 . S
C1056 C1050 1.368 . S
C1056 C1055 1.523 . S
C1057 C1041 1.429 . S
C1057 C1053 1.429 . S
C1057 C1058 1.523 . S
C1058 C1042 1.368 . S
C1058 C1054 1.368 . S
C1058 C1057 1.523 . S
H1059 C1034 0.950 . S
H1060 C1036 0.950 . S
H1061 C1037 0.949 . S
H1062 C1039 0.950 . S
H1063 C1041 0.950 . S
C1064 C1065 1.349 . S
C1064 C1066 1.327 . S
C1064 H1089 0.950 . S
C1065 C1064 1.349 . S
C1065 C1081 1.349 . S
C1066 C1064 1.327 . S
C1066 C1085 1.429 . S
C1066 H1090 0.950 . S
C1067 C1084 1.574 . S
C1067 C1086 1.368 . S
C1067 H1091 0.949 . S
H1068 C1072 0.949 . S
C1069 C1070 1.349 . S
C1069 C1071 1.327 . S
C1069 H1092 0.950 . S
C1070 C1069 1.349 . S
C1070 C1082 1.349 . S
C1071 C1069 1.327 . S
C1071 C1087 1.429 . S
C1071 H1093 0.950 . S
C1072 H1068 0.949 . S
C1072 C1080 1.574 . S
C1072 C1088 1.368 . S
H1073 C1081 0.950 . S
H1074 C1079 0.950 . S
H1075 C1080 0.949 . S
H1076 C1082 0.950 . S
H1077 C1083 0.950 . S
H1078 C1084 0.949 . S
C1079 H1074 0.950 . S
C1079 C1081 1.327 . S
C1079 C1085 1.429 . S
C1080 C1072 1.574 . S
C1080 H1075 0.949 . S
C1080 C1086 1.368 . S
C1081 C1065 1.349 . S
C1081 H1073 0.950 . S
C1081 C1079 1.327 . S
C1082 C1070 1.349 . S
C1082 H1076 0.950 . S
C1082 C1083 1.327 . S
C1083 H1077 0.950 . S
C1083 C1082 1.327 . S
C1083 C1087 1.429 . S
C1084 C1067 1.574 . S
C1084 H1078 0.949 . S
C1084 C1088 1.368 . S
C1085 C1066 1.429 . S
C1085 C1079 1.429 . S
C1085 C1086 1.523 . S
C1086 C1067 1.368 . S
C1086 C1080 1.368 . S
C1086 C1085 1.523 . S
C1087 C1071 1.429 . S
C1087 C1083 1.429 . S
C1087 C1088 1.523 . S
C1088 C1072 1.368 . S
C1088 C1084 1.368 . S
C1088 C1087 1.523 . S
H1089 C1064 0.950 . S
H1090 C1066 0.950 . S
H1091 C1067 0.949 . S
H1092 C1069 0.950 . S
H1093 C1071 0.950 . S
C1094 C1095 1.349 . S
C1094 C1096 1.327 . S
C1094 H1119 0.950 . S
C1095 C1094 1.349 . S
C1095 C1111 1.349 . S
C1096 C1094 1.327 . S
C1096 C1115 1.429 . S
C1096 H1120 0.950 . S
C1097 C1114 1.574 . S
C1097 C1116 1.368 . S
C1097 H1121 0.949 . S
H1098 C1102 0.949 . S
C1099 C1100 1.349 . S
C1099 C1101 1.327 . S
C1099 H1122 0.950 . S
C1100 C1099 1.349 . S
C1100 C1112 1.349 . S
C1101 C1099 1.327 . S
C1101 C1117 1.429 . S
C1101 H1123 0.950 . S
C1102 H1098 0.949 . S
C1102 C1110 1.574 . S
C1102 C1118 1.368 . S
H1103 C1111 0.950 . S
H1104 C1109 0.950 . S
H1105 C1110 0.949 . S
H1106 C1112 0.950 . S
H1107 C1113 0.950 . S
H1108 C1114 0.949 . S
C1109 H1104 0.950 . S
C1109 C1111 1.327 . S
C1109 C1115 1.429 . S
C1110 C1102 1.574 . S
C1110 H1105 0.949 . S
C1110 C1116 1.368 . S
C1111 C1095 1.349 . S
C1111 H1103 0.950 . S
C1111 C1109 1.327 . S
C1112 C1100 1.349 . S
C1112 H1106 0.950 . S
C1112 C1113 1.327 . S
C1113 H1107 0.950 . S
C1113 C1112 1.327 . S
C1113 C1117 1.429 . S
C1114 C1097 1.574 . S
C1114 H1108 0.949 . S
C1114 C1118 1.368 . S
C1115 C1096 1.429 . S
C1115 C1109 1.429 . S
C1115 C1116 1.523 . S
C1116 C1097 1.368 . S
C1116 C1110 1.368 . S
C1116 C1115 1.523 . S
C1117 C1101 1.429 . S
C1117 C1113 1.429 . S
C1117 C1118 1.523 . S
C1118 C1102 1.368 . S
C1118 C1114 1.368 . S
C1118 C1117 1.523 . S
H1119 C1094 0.950 . S
H1120 C1096 0.950 . S
H1121 C1097 0.949 . S
H1122 C1099 0.950 . S
H1123 C1101 0.950 . S
C1124 C1125 1.349 . S
C1124 C1126 1.327 . S
C1124 H1149 0.950 . S
C1125 C1124 1.349 . S
C1125 C1141 1.349 . S
C1126 C1124 1.327 . S
C1126 C1145 1.429 . S
C1126 H1150 0.950 . S
C1127 C1144 1.574 . S
C1127 C1146 1.368 . S
C1127 H1151 0.949 . S
H1128 C1132 0.949 . S
C1129 C1130 1.349 . S
C1129 C1131 1.327 . S
C1129 H1152 0.950 . S
C1130 C1129 1.349 . S
C1130 C1142 1.349 . S
C1131 C1129 1.327 . S
C1131 C1147 1.429 . S
C1131 H1153 0.950 . S
C1132 H1128 0.949 . S
C1132 C1140 1.574 . S
C1132 C1148 1.368 . S
H1133 C1141 0.950 . S
H1134 C1139 0.950 . S
H1135 C1140 0.949 . S
H1136 C1142 0.950 . S
H1137 C1143 0.950 . S
H1138 C1144 0.949 . S
C1139 H1134 0.950 . S
C1139 C1141 1.327 . S
C1139 C1145 1.429 . S
C1140 C1132 1.574 . S
C1140 H1135 0.949 . S
C1140 C1146 1.368 . S
C1141 C1125 1.349 . S
C1141 H1133 0.950 . S
C1141 C1139 1.327 . S
C1142 C1130 1.349 . S
C1142 H1136 0.950 . S
C1142 C1143 1.327 . S
C1143 H1137 0.950 . S
C1143 C1142 1.327 . S
C1143 C1147 1.429 . S
C1144 C1127 1.574 . S
C1144 H1138 0.949 . S
C1144 C1148 1.368 . S
C1145 C1126 1.429 . S
C1145 C1139 1.429 . S
C1145 C1146 1.523 . S
C1146 C1127 1.368 . S
C1146 C1140 1.368 . S
C1146 C1145 1.523 . S
C1147 C1131 1.429 . S
C1147 C1143 1.429 . S
C1147 C1148 1.523 . S
C1148 C1132 1.368 . S
C1148 C1144 1.368 . S
C1148 C1147 1.523 . S
H1149 C1124 0.950 . S
H1150 C1126 0.950 . S
H1151 C1127 0.949 . S
H1152 C1129 0.950 . S
H1153 C1131 0.950 . S
C1154 C1155 1.349 . S
C1154 C1156 1.327 . S
C1154 H1179 0.950 . S
C1155 C1154 1.349 . S
C1155 C1171 1.349 . S
C1156 C1154 1.327 . S
C1156 C1175 1.429 . S
C1156 H1180 0.950 . S
C1157 C1174 1.574 . S
C1157 C1176 1.368 . S
C1157 H1181 0.949 . S
H1158 C1162 0.949 . S
C1159 C1160 1.349 . S
C1159 C1161 1.327 . S
C1159 H1182 0.950 . S
C1160 C1159 1.349 . S
C1160 C1172 1.349 . S
C1161 C1159 1.327 . S
C1161 C1177 1.429 . S
C1161 H1183 0.950 . S
C1162 H1158 0.949 . S
C1162 C1170 1.574 . S
C1162 C1178 1.368 . S
H1163 C1171 0.950 . S
H1164 C1169 0.950 . S
H1165 C1170 0.949 . S
H1166 C1172 0.950 . S
H1167 C1173 0.950 . S
H1168 C1174 0.949 . S
C1169 H1164 0.950 . S
C1169 C1171 1.327 . S
C1169 C1175 1.429 . S
C1170 C1162 1.574 . S
C1170 H1165 0.949 . S
C1170 C1176 1.368 . S
C1171 C1155 1.349 . S
C1171 H1163 0.950 . S
C1171 C1169 1.327 . S
C1172 C1160 1.349 . S
C1172 H1166 0.950 . S
C1172 C1173 1.327 . S
C1173 H1167 0.950 . S
C1173 C1172 1.327 . S
C1173 C1177 1.429 . S
C1174 C1157 1.574 . S
C1174 H1168 0.949 . S
C1174 C1178 1.368 . S
C1175 C1156 1.429 . S
C1175 C1169 1.429 . S
C1175 C1176 1.523 . S
C1176 C1157 1.368 . S
C1176 C1170 1.368 . S
C1176 C1175 1.523 . S
C1177 C1161 1.429 . S
C1177 C1173 1.429 . S
C1177 C1178 1.523 . S
C1178 C1162 1.368 . S
C1178 C1174 1.368 . S
C1178 C1177 1.523 . S
H1179 C1154 0.950 . S
H1180 C1156 0.950 . S
H1181 C1157 0.949 . S
H1182 C1159 0.950 . S
H1183 C1161 0.950 . S
C1184 C1185 1.349 . S
C1184 C1186 1.327 . S
C1184 H1209 0.950 . S
C1185 C1184 1.349 . S
C1185 C1201 1.349 . S
C1186 C1184 1.327 . S
C1186 C1205 1.429 . S
C1186 H1210 0.950 . S
C1187 C1204 1.574 . S
C1187 C1206 1.368 . S
C1187 H1211 0.949 . S
H1188 C1192 0.949 . S
C1189 C1190 1.349 . S
C1189 C1191 1.327 . S
C1189 H1212 0.950 . S
C1190 C1189 1.349 . S
C1190 C1202 1.349 . S
C1191 C1189 1.327 . S
C1191 C1207 1.429 . S
C1191 H1213 0.950 . S
C1192 H1188 0.949 . S
C1192 C1200 1.574 . S
C1192 C1208 1.368 . S
H1193 C1201 0.950 . S
H1194 C1199 0.950 . S
H1195 C1200 0.949 . S
H1196 C1202 0.950 . S
H1197 C1203 0.950 . S
H1198 C1204 0.949 . S
C1199 H1194 0.950 . S
C1199 C1201 1.327 . S
C1199 C1205 1.429 . S
C1200 C1192 1.574 . S
C1200 H1195 0.949 . S
C1200 C1206 1.368 . S
C1201 C1185 1.349 . S
C1201 H1193 0.950 . S
C1201 C1199 1.327 . S
C1202 C1190 1.349 . S
C1202 H1196 0.950 . S
C1202 C1203 1.327 . S
C1203 H1197 0.950 . S
C1203 C1202 1.327 . S
C1203 C1207 1.429 . S
C1204 C1187 1.574 . S
C1204 H1198 0.949 . S
C1204 C1208 1.368 . S
C1205 C1186 1.429 . S
C1205 C1199 1.429 . S
C1205 C1206 1.523 . S
C1206 C1187 1.368 . S
C1206 C1200 1.368 . S
C1206 C1205 1.523 . S
C1207 C1191 1.429 . S
C1207 C1203 1.429 . S
C1207 C1208 1.523 . S
C1208 C1192 1.368 . S
C1208 C1204 1.368 . S
C1208 C1207 1.523 . S
H1209 C1184 0.950 . S
H1210 C1186 0.950 . S
H1211 C1187 0.949 . S
H1212 C1189 0.950 . S
H1213 C1191 0.950 . S
C1214 C1215 1.349 . S
C1214 C1216 1.327 . S
C1214 H1239 0.950 . S
C1215 C1214 1.349 . S
C1215 C1231 1.349 . S
C1216 C1214 1.327 . S
C1216 C1235 1.429 . S
C1216 H1240 0.950 . S
C1217 C1234 1.574 . S
C1217 C1236 1.368 . S
C1217 H1241 0.949 . S
H1218 C1222 0.949 . S
C1219 C1220 1.349 . S
C1219 C1221 1.327 . S
C1219 H1242 0.950 . S
C1220 C1219 1.349 . S
C1220 C1232 1.349 . S
C1221 C1219 1.327 . S
C1221 C1237 1.429 . S
C1221 H1243 0.950 . S
C1222 H1218 0.949 . S
C1222 C1230 1.574 . S
C1222 C1238 1.368 . S
H1223 C1231 0.950 . S
H1224 C1229 0.950 . S
H1225 C1230 0.949 . S
H1226 C1232 0.950 . S
H1227 C1233 0.950 . S
H1228 C1234 0.949 . S
C1229 H1224 0.950 . S
C1229 C1231 1.327 . S
C1229 C1235 1.429 . S
C1230 C1222 1.574 . S
C1230 H1225 0.949 . S
C1230 C1236 1.368 . S
C1231 C1215 1.349 . S
C1231 H1223 0.950 . S
C1231 C1229 1.327 . S
C1232 C1220 1.349 . S
C1232 H1226 0.950 . S
C1232 C1233 1.327 . S
C1233 H1227 0.950 . S
C1233 C1232 1.327 . S
C1233 C1237 1.429 . S
C1234 C1217 1.574 . S
C1234 H1228 0.949 . S
C1234 C1238 1.368 . S
C1235 C1216 1.429 . S
C1235 C1229 1.429 . S
C1235 C1236 1.523 . S
C1236 C1217 1.368 . S
C1236 C1230 1.368 . S
C1236 C1235 1.523 . S
C1237 C1221 1.429 . S
C1237 C1233 1.429 . S
C1237 C1238 1.523 . S
C1238 C1222 1.368 . S
C1238 C1234 1.368 . S
C1238 C1237 1.523 . S
H1239 C1214 0.950 . S
H1240 C1216 0.950 . S
H1241 C1217 0.949 . S
H1242 C1219 0.950 . S
H1243 C1221 0.950 . S
C1244 C1245 1.349 . S
C1244 C1246 1.327 . S
C1244 H1269 0.950 . S
C1245 C1244 1.349 . S
C1245 C1261 1.349 . S
C1246 C1244 1.327 . S
C1246 C1265 1.429 . S
C1246 H1270 0.950 . S
C1247 C1264 1.574 . S
C1247 C1266 1.368 . S
C1247 H1271 0.949 . S
H1248 C1252 0.949 . S
C1249 C1250 1.349 . S
C1249 C1251 1.327 . S
C1249 H1272 0.950 . S
C1250 C1249 1.349 . S
C1250 C1262 1.349 . S
C1251 C1249 1.327 . S
C1251 C1267 1.429 . S
C1251 H1273 0.950 . S
C1252 H1248 0.949 . S
C1252 C1260 1.574 . S
C1252 C1268 1.368 . S
H1253 C1261 0.950 . S
H1254 C1259 0.950 . S
H1255 C1260 0.949 . S
H1256 C1262 0.950 . S
H1257 C1263 0.950 . S
H1258 C1264 0.949 . S
C1259 H1254 0.950 . S
C1259 C1261 1.327 . S
C1259 C1265 1.429 . S
C1260 C1252 1.574 . S
C1260 H1255 0.949 . S
C1260 C1266 1.368 . S
C1261 C1245 1.349 . S
C1261 H1253 0.950 . S
C1261 C1259 1.327 . S
C1262 C1250 1.349 . S
C1262 H1256 0.950 . S
C1262 C1263 1.327 . S
C1263 H1257 0.950 . S
C1263 C1262 1.327 . S
C1263 C1267 1.429 . S
C1264 C1247 1.574 . S
C1264 H1258 0.949 . S
C1264 C1268 1.368 . S
C1265 C1246 1.429 . S
C1265 C1259 1.429 . S
C1265 C1266 1.523 . S
C1266 C1247 1.368 . S
C1266 C1260 1.368 . S
C1266 C1265 1.523 . S
C1267 C1251 1.429 . S
C1267 C1263 1.429 . S
C1267 C1268 1.523 . S
C1268 C1252 1.368 . S
C1268 C1264 1.368 . S
C1268 C1267 1.523 . S
H1269 C1244 0.950 . S
H1270 C1246 0.950 . S
H1271 C1247 0.949 . S
H1272 C1249 0.950 . S
H1273 C1251 0.950 . S
C1274 C1275 1.349 . S
C1274 C1276 1.327 . S
C1274 H1299 0.950 . S
C1275 C1274 1.349 . S
C1275 C1291 1.349 . S
C1276 C1274 1.327 . S
C1276 C1295 1.429 . S
C1276 H1300 0.950 . S
C1277 C1294 1.574 . S
C1277 C1296 1.368 . S
C1277 H1301 0.949 . S
H1278 C1282 0.949 . S
C1279 C1280 1.349 . S
C1279 C1281 1.327 . S
C1279 H1302 0.950 . S
C1280 C1279 1.349 . S
C1280 C1292 1.349 . S
C1281 C1279 1.327 . S
C1281 C1297 1.429 . S
C1281 H1303 0.950 . S
C1282 H1278 0.949 . S
C1282 C1290 1.574 . S
C1282 C1298 1.368 . S
H1283 C1291 0.950 . S
H1284 C1289 0.950 . S
H1285 C1290 0.949 . S
H1286 C1292 0.950 . S
H1287 C1293 0.950 . S
H1288 C1294 0.949 . S
C1289 H1284 0.950 . S
C1289 C1291 1.327 . S
C1289 C1295 1.429 . S
C1290 C1282 1.574 . S
C1290 H1285 0.949 . S
C1290 C1296 1.368 . S
C1291 C1275 1.349 . S
C1291 H1283 0.950 . S
C1291 C1289 1.327 . S
C1292 C1280 1.349 . S
C1292 H1286 0.950 . S
C1292 C1293 1.327 . S
C1293 H1287 0.950 . S
C1293 C1292 1.327 . S
C1293 C1297 1.429 . S
C1294 C1277 1.574 . S
C1294 H1288 0.949 . S
C1294 C1298 1.368 . S
C1295 C1276 1.429 . S
C1295 C1289 1.429 . S
C1295 C1296 1.523 . S
C1296 C1277 1.368 . S
C1296 C1290 1.368 . S
C1296 C1295 1.523 . S
C1297 C1281 1.429 . S
C1297 C1293 1.429 . S
C1297 C1298 1.523 . S
C1298 C1282 1.368 . S
C1298 C1294 1.368 . S
C1298 C1297 1.523 . S
H1299 C1274 0.950 . S
H1300 C1276 0.950 . S
H1301 C1277 0.949 . S
H1302 C1279 0.950 . S
H1303 C1281 0.950 . S
C1304 C1305 1.349 . S
C1304 C1306 1.327 . S
C1304 H1329 0.950 . S
C1305 C1304 1.349 . S
C1305 C1321 1.349 . S
C1306 C1304 1.327 . S
C1306 C1325 1.429 . S
C1306 H1330 0.950 . S
C1307 C1324 1.574 . S
C1307 C1326 1.368 . S
C1307 H1331 0.949 . S
H1308 C1312 0.949 . S
C1309 C1310 1.349 . S
C1309 C1311 1.327 . S
C1309 H1332 0.950 . S
C1310 C1309 1.349 . S
C1310 C1322 1.349 . S
C1311 C1309 1.327 . S
C1311 C1327 1.429 . S
C1311 H1333 0.950 . S
C1312 H1308 0.949 . S
C1312 C1320 1.574 . S
C1312 C1328 1.368 . S
H1313 C1321 0.950 . S
H1314 C1319 0.950 . S
H1315 C1320 0.949 . S
H1316 C1322 0.950 . S
H1317 C1323 0.950 . S
H1318 C1324 0.949 . S
C1319 H1314 0.950 . S
C1319 C1321 1.327 . S
C1319 C1325 1.429 . S
C1320 C1312 1.574 . S
C1320 H1315 0.949 . S
C1320 C1326 1.368 . S
C1321 C1305 1.349 . S
C1321 H1313 0.950 . S
C1321 C1319 1.327 . S
C1322 C1310 1.349 . S
C1322 H1316 0.950 . S
C1322 C1323 1.327 . S
C1323 H1317 0.950 . S
C1323 C1322 1.327 . S
C1323 C1327 1.429 . S
C1324 C1307 1.574 . S
C1324 H1318 0.949 . S
C1324 C1328 1.368 . S
C1325 C1306 1.429 . S
C1325 C1319 1.429 . S
C1325 C1326 1.523 . S
C1326 C1307 1.368 . S
C1326 C1320 1.368 . S
C1326 C1325 1.523 . S
C1327 C1311 1.429 . S
C1327 C1323 1.429 . S
C1327 C1328 1.523 . S
C1328 C1312 1.368 . S
C1328 C1324 1.368 . S
C1328 C1327 1.523 . S
H1329 C1304 0.950 . S
H1330 C1306 0.950 . S
H1331 C1307 0.949 . S
H1332 C1309 0.950 . S
H1333 C1311 0.950 . S
C1334 C1335 1.349 . S
C1334 C1336 1.327 . S
C1334 H1359 0.950 . S
C1335 C1334 1.349 . S
C1335 C1351 1.349 . S
C1336 C1334 1.327 . S
C1336 C1355 1.429 . S
C1336 H1360 0.950 . S
C1337 C1354 1.574 . S
C1337 C1356 1.368 . S
C1337 H1361 0.949 . S
H1338 C1342 0.949 . S
C1339 C1340 1.349 . S
C1339 C1341 1.327 . S
C1339 H1362 0.950 . S
C1340 C1339 1.349 . S
C1340 C1352 1.349 . S
C1341 C1339 1.327 . S
C1341 C1357 1.429 . S
C1341 H1363 0.950 . S
C1342 H1338 0.949 . S
C1342 C1350 1.574 . S
C1342 C1358 1.368 . S
H1343 C1351 0.950 . S
H1344 C1349 0.950 . S
H1345 C1350 0.949 . S
H1346 C1352 0.950 . S
H1347 C1353 0.950 . S
H1348 C1354 0.949 . S
C1349 H1344 0.950 . S
C1349 C1351 1.327 . S
C1349 C1355 1.429 . S
C1350 C1342 1.574 . S
C1350 H1345 0.949 . S
C1350 C1356 1.368 . S
C1351 C1335 1.349 . S
C1351 H1343 0.950 . S
C1351 C1349 1.327 . S
C1352 C1340 1.349 . S
C1352 H1346 0.950 . S
C1352 C1353 1.327 . S
C1353 H1347 0.950 . S
C1353 C1352 1.327 . S
C1353 C1357 1.429 . S
C1354 C1337 1.574 . S
C1354 H1348 0.949 . S
C1354 C1358 1.368 . S
C1355 C1336 1.429 . S
C1355 C1349 1.429 . S
C1355 C1356 1.523 . S
C1356 C1337 1.368 . S
C1356 C1350 1.368 . S
C1356 C1355 1.523 . S
C1357 C1341 1.429 . S
C1357 C1353 1.429 . S
C1357 C1358 1.523 . S
C1358 C1342 1.368 . S
C1358 C1354 1.368 . S
C1358 C1357 1.523 . S
H1359 C1334 0.950 . S
H1360 C1336 0.950 . S
H1361 C1337 0.949 . S
H1362 C1339 0.950 . S
H1363 C1341 0.950 . S
C1364 C1365 1.349 . S
C1364 C1366 1.327 . S
C1364 H1389 0.950 . S
C1365 C1364 1.349 . S
C1365 C1381 1.349 . S
C1366 C1364 1.327 . S
C1366 C1385 1.429 . S
C1366 H1390 0.950 . S
C1367 C1384 1.574 . S
C1367 C1386 1.368 . S
C1367 H1391 0.949 . S
H1368 C1372 0.949 . S
C1369 C1370 1.349 . S
C1369 C1371 1.327 . S
C1369 H1392 0.950 . S
C1370 C1369 1.349 . S
C1370 C1382 1.349 . S
C1371 C1369 1.327 . S
C1371 C1387 1.429 . S
C1371 H1393 0.950 . S
C1372 H1368 0.949 . S
C1372 C1380 1.574 . S
C1372 C1388 1.368 . S
H1373 C1381 0.950 . S
H1374 C1379 0.950 . S
H1375 C1380 0.949 . S
H1376 C1382 0.950 . S
H1377 C1383 0.950 . S
H1378 C1384 0.949 . S
C1379 H1374 0.950 . S
C1379 C1381 1.327 . S
C1379 C1385 1.429 . S
C1380 C1372 1.574 . S
C1380 H1375 0.949 . S
C1380 C1386 1.368 . S
C1381 C1365 1.349 . S
C1381 H1373 0.950 . S
C1381 C1379 1.327 . S
C1382 C1370 1.349 . S
C1382 H1376 0.950 . S
C1382 C1383 1.327 . S
C1383 H1377 0.950 . S
C1383 C1382 1.327 . S
C1383 C1387 1.429 . S
C1384 C1367 1.574 . S
C1384 H1378 0.949 . S
C1384 C1388 1.368 . S
C1385 C1366 1.429 . S
C1385 C1379 1.429 . S
C1385 C1386 1.523 . S
C1386 C1367 1.368 . S
C1386 C1380 1.368 . S
C1386 C1385 1.523 . S
C1387 C1371 1.429 . S
C1387 C1383 1.429 . S
C1387 C1388 1.523 . S
C1388 C1372 1.368 . S
C1388 C1384 1.368 . S
C1388 C1387 1.523 . S
H1389 C1364 0.950 . S
H1390 C1366 0.950 . S
H1391 C1367 0.949 . S
H1392 C1369 0.950 . S
H1393 C1371 0.950 . S
C1394 C1395 1.349 . S
C1394 C1396 1.327 . S
C1394 H1419 0.950 . S
C1395 C1394 1.349 . S
C1395 C1411 1.349 . S
C1396 C1394 1.327 . S
C1396 C1415 1.429 . S
C1396 H1420 0.950 . S
C1397 C1414 1.574 . S
C1397 C1416 1.368 . S
C1397 H1421 0.949 . S
H1398 C1402 0.949 . S
C1399 C1400 1.349 . S
C1399 C1401 1.327 . S
C1399 H1422 0.950 . S
C1400 C1399 1.349 . S
C1400 C1412 1.349 . S
C1401 C1399 1.327 . S
C1401 C1417 1.429 . S
C1401 H1423 0.950 . S
C1402 H1398 0.949 . S
C1402 C1410 1.574 . S
C1402 C1418 1.368 . S
H1403 C1411 0.950 . S
H1404 C1409 0.950 . S
H1405 C1410 0.949 . S
H1406 C1412 0.950 . S
H1407 C1413 0.950 . S
H1408 C1414 0.949 . S
C1409 H1404 0.950 . S
C1409 C1411 1.327 . S
C1409 C1415 1.429 . S
C1410 C1402 1.574 . S
C1410 H1405 0.949 . S
C1410 C1416 1.368 . S
C1411 C1395 1.349 . S
C1411 H1403 0.950 . S
C1411 C1409 1.327 . S
C1412 C1400 1.349 . S
C1412 H1406 0.950 . S
C1412 C1413 1.327 . S
C1413 H1407 0.950 . S
C1413 C1412 1.327 . S
C1413 C1417 1.429 . S
C1414 C1397 1.574 . S
C1414 H1408 0.949 . S
C1414 C1418 1.368 . S
C1415 C1396 1.429 . S
C1415 C1409 1.429 . S
C1415 C1416 1.523 . S
C1416 C1397 1.368 . S
C1416 C1410 1.368 . S
C1416 C1415 1.523 . S
C1417 C1401 1.429 . S
C1417 C1413 1.429 . S
C1417 C1418 1.523 . S
C1418 C1402 1.368 . S
C1418 C1414 1.368 . S
C1418 C1417 1.523 . S
H1419 C1394 0.950 . S
H1420 C1396 0.950 . S
H1421 C1397 0.949 . S
H1422 C1399 0.950 . S
H1423 C1401 0.950 . S
C1424 C1425 1.349 . S
C1424 C1426 1.327 . S
C1424 H1449 0.950 . S
C1425 C1424 1.349 . S
C1425 C1441 1.349 . S
C1426 C1424 1.327 . S
C1426 C1445 1.429 . S
C1426 H1450 0.950 . S
C1427 C1444 1.574 . S
C1427 C1446 1.368 . S
C1427 H1451 0.949 . S
H1428 C1432 0.949 . S
C1429 C1430 1.349 . S
C1429 C1431 1.327 . S
C1429 H1452 0.950 . S
C1430 C1429 1.349 . S
C1430 C1442 1.349 . S
C1431 C1429 1.327 . S
C1431 C1447 1.429 . S
C1431 H1453 0.950 . S
C1432 H1428 0.949 . S
C1432 C1440 1.574 . S
C1432 C1448 1.368 . S
H1433 C1441 0.950 . S
H1434 C1439 0.950 . S
H1435 C1440 0.949 . S
H1436 C1442 0.950 . S
H1437 C1443 0.950 . S
H1438 C1444 0.949 . S
C1439 H1434 0.950 . S
C1439 C1441 1.327 . S
C1439 C1445 1.429 . S
C1440 C1432 1.574 . S
C1440 H1435 0.949 . S
C1440 C1446 1.368 . S
C1441 C1425 1.349 . S
C1441 H1433 0.950 . S
C1441 C1439 1.327 . S
C1442 C1430 1.349 . S
C1442 H1436 0.950 . S
C1442 C1443 1.327 . S
C1443 H1437 0.950 . S
C1443 C1442 1.327 . S
C1443 C1447 1.429 . S
C1444 C1427 1.574 . S
C1444 H1438 0.949 . S
C1444 C1448 1.368 . S
C1445 C1426 1.429 . S
C1445 C1439 1.429 . S
C1445 C1446 1.523 . S
C1446 C1427 1.368 . S
C1446 C1440 1.368 . S
C1446 C1445 1.523 . S
C1447 C1431 1.429 . S
C1447 C1443 1.429 . S
C1447 C1448 1.523 . S
C1448 C1432 1.368 . S
C1448 C1444 1.368 . S
C1448 C1447 1.523 . S
H1449 C1424 0.950 . S
H1450 C1426 0.950 . S
H1451 C1427 0.949 . S
H1452 C1429 0.950 . S
H1453 C1431 0.950 . S
C1454 C1455 1.349 . S
C1454 C1456 1.327 . S
C1454 H1479 0.950 . S
C1455 C1454 1.349 . S
C1455 C1471 1.349 . S
C1456 C1454 1.327 . S
C1456 C1475 1.429 . S
C1456 H1480 0.950 . S
C1457 C1474 1.574 . S
C1457 C1476 1.368 . S
C1457 H1481 0.949 . S
H1458 C1462 0.949 . S
C1459 C1460 1.349 . S
C1459 C1461 1.327 . S
C1459 H1482 0.950 . S
C1460 C1459 1.349 . S
C1460 C1472 1.349 . S
C1461 C1459 1.327 . S
C1461 C1477 1.429 . S
C1461 H1483 0.950 . S
C1462 H1458 0.949 . S
C1462 C1470 1.574 . S
C1462 C1478 1.368 . S
H1463 C1471 0.950 . S
H1464 C1469 0.950 . S
H1465 C1470 0.949 . S
H1466 C1472 0.950 . S
H1467 C1473 0.950 . S
H1468 C1474 0.949 . S
C1469 H1464 0.950 . S
C1469 C1471 1.327 . S
C1469 C1475 1.429 . S
C1470 C1462 1.574 . S
C1470 H1465 0.949 . S
C1470 C1476 1.368 . S
C1471 C1455 1.349 . S
C1471 H1463 0.950 . S
C1471 C1469 1.327 . S
C1472 C1460 1.349 . S
C1472 H1466 0.950 . S
C1472 C1473 1.327 . S
C1473 H1467 0.950 . S
C1473 C1472 1.327 . S
C1473 C1477 1.429 . S
C1474 C1457 1.574 . S
C1474 H1468 0.949 . S
C1474 C1478 1.368 . S
C1475 C1456 1.429 . S
C1475 C1469 1.429 . S
C1475 C1476 1.523 . S
C1476 C1457 1.368 . S
C1476 C1470 1.368 . S
C1476 C1475 1.523 . S
C1477 C1461 1.429 . S
C1477 C1473 1.429 . S
C1477 C1478 1.523 . S
C1478 C1462 1.368 . S
C1478 C1474 1.368 . S
C1478 C1477 1.523 . S
H1479 C1454 0.950 . S
H1480 C1456 0.950 . S
H1481 C1457 0.949 . S
H1482 C1459 0.950 . S
H1483 C1461 0.950 . S
C1484 C1485 1.349 . S
C1484 C1486 1.327 . S
C1484 H1509 0.950 . S
C1485 C1484 1.349 . S
C1485 C1501 1.349 . S
C1486 C1484 1.327 . S
C1486 C1505 1.429 . S
C1486 H1510 0.950 . S
C1487 C1504 1.574 . S
C1487 C1506 1.368 . S
C1487 H1511 0.949 . S
H1488 C1492 0.949 . S
C1489 C1490 1.349 . S
C1489 C1491 1.327 . S
C1489 H1512 0.950 . S
C1490 C1489 1.349 . S
C1490 C1502 1.349 . S
C1491 C1489 1.327 . S
C1491 C1507 1.429 . S
C1491 H1513 0.950 . S
C1492 H1488 0.949 . S
C1492 C1500 1.574 . S
C1492 C1508 1.368 . S
H1493 C1501 0.950 . S
H1494 C1499 0.950 . S
H1495 C1500 0.949 . S
H1496 C1502 0.950 . S
H1497 C1503 0.950 . S
H1498 C1504 0.949 . S
C1499 H1494 0.950 . S
C1499 C1501 1.327 . S
C1499 C1505 1.429 . S
C1500 C1492 1.574 . S
C1500 H1495 0.949 . S
C1500 C1506 1.368 . S
C1501 C1485 1.349 . S
C1501 H1493 0.950 . S
C1501 C1499 1.327 . S
C1502 C1490 1.349 . S
C1502 H1496 0.950 . S
C1502 C1503 1.327 . S
C1503 H1497 0.950 . S
C1503 C1502 1.327 . S
C1503 C1507 1.429 . S
C1504 C1487 1.574 . S
C1504 H1498 0.949 . S
C1504 C1508 1.368 . S
C1505 C1486 1.429 . S
C1505 C1499 1.429 . S
C1505 C1506 1.523 . S
C1506 C1487 1.368 . S
C1506 C1500 1.368 . S
C1506 C1505 1.523 . S
C1507 C1491 1.429 . S
C1507 C1503 1.429 . S
C1507 C1508 1.523 . S
C1508 C1492 1.368 . S
C1508 C1504 1.368 . S
C1508 C1507 1.523 . S
H1509 C1484 0.950 . S
H1510 C1486 0.950 . S
H1511 C1487 0.949 . S
H1512 C1489 0.950 . S
H1513 C1491 0.950 . S
C1514 C1515 1.349 . S
C1514 C1516 1.327 . S
C1514 H1539 0.950 . S
C1515 C1514 1.349 . S
C1515 C1531 1.349 . S
C1516 C1514 1.327 . S
C1516 C1535 1.429 . S
C1516 H1540 0.950 . S
C1517 C1534 1.574 . S
C1517 C1536 1.368 . S
C1517 H1541 0.949 . S
H1518 C1522 0.949 . S
C1519 C1520 1.349 . S
C1519 C1521 1.327 . S
C1519 H1542 0.950 . S
C1520 C1519 1.349 . S
C1520 C1532 1.349 . S
C1521 C1519 1.327 . S
C1521 C1537 1.429 . S
C1521 H1543 0.950 . S
C1522 H1518 0.949 . S
C1522 C1530 1.574 . S
C1522 C1538 1.368 . S
H1523 C1531 0.950 . S
H1524 C1529 0.950 . S
H1525 C1530 0.949 . S
H1526 C1532 0.950 . S
H1527 C1533 0.950 . S
H1528 C1534 0.949 . S
C1529 H1524 0.950 . S
C1529 C1531 1.327 . S
C1529 C1535 1.429 . S
C1530 C1522 1.574 . S
C1530 H1525 0.949 . S
C1530 C1536 1.368 . S
C1531 C1515 1.349 . S
C1531 H1523 0.950 . S
C1531 C1529 1.327 . S
C1532 C1520 1.349 . S
C1532 H1526 0.950 . S
C1532 C1533 1.327 . S
C1533 H1527 0.950 . S
C1533 C1532 1.327 . S
C1533 C1537 1.429 . S
C1534 C1517 1.574 . S
C1534 H1528 0.949 . S
C1534 C1538 1.368 . S
C1535 C1516 1.429 . S
C1535 C1529 1.429 . S
C1535 C1536 1.523 . S
C1536 C1517 1.368 . S
C1536 C1530 1.368 . S
C1536 C1535 1.523 . S
C1537 C1521 1.429 . S
C1537 C1533 1.429 . S
C1537 C1538 1.523 . S
C1538 C1522 1.368 . S
C1538 C1534 1.368 . S
C1538 C1537 1.523 . S
H1539 C1514 0.950 . S
H1540 C1516 0.950 . S
H1541 C1517 0.949 . S
H1542 C1519 0.950 . S
H1543 C1521 0.950 . S
C1544 C1545 1.349 . S
C1544 C1546 1.327 . S
C1544 H1569 0.950 . S
C1545 C1544 1.349 . S
C1545 C1561 1.349 . S
C1546 C1544 1.327 . S
C1546 C1565 1.429 . S
C1546 H1570 0.950 . S
C1547 C1564 1.574 . S
C1547 C1566 1.368 . S
C1547 H1571 0.949 . S
H1548 C1552 0.949 . S
C1549 C1550 1.349 . S
C1549 C1551 1.327 . S
C1549 H1572 0.950 . S
C1550 C1549 1.349 . S
C1550 C1562 1.349 . S
C1551 C1549 1.327 . S
C1551 C1567 1.429 . S
C1551 H1573 0.950 . S
C1552 H1548 0.949 . S
C1552 C1560 1.574 . S
C1552 C1568 1.368 . S
H1553 C1561 0.950 . S
H1554 C1559 0.950 . S
H1555 C1560 0.949 . S
H1556 C1562 0.950 . S
H1557 C1563 0.950 . S
H1558 C1564 0.949 . S
C1559 H1554 0.950 . S
C1559 C1561 1.327 . S
C1559 C1565 1.429 . S
C1560 C1552 1.574 . S
C1560 H1555 0.949 . S
C1560 C1566 1.368 . S
C1561 C1545 1.349 . S
C1561 H1553 0.950 . S
C1561 C1559 1.327 . S
C1562 C1550 1.349 . S
C1562 H1556 0.950 . S
C1562 C1563 1.327 . S
C1563 H1557 0.950 . S
C1563 C1562 1.327 . S
C1563 C1567 1.429 . S
C1564 C1547 1.574 . S
C1564 H1558 0.949 . S
C1564 C1568 1.368 . S
C1565 C1546 1.429 . S
C1565 C1559 1.429 . S
C1565 C1566 1.523 . S
C1566 C1547 1.368 . S
C1566 C1560 1.368 . S
C1566 C1565 1.523 . S
C1567 C1551 1.429 . S
C1567 C1563 1.429 . S
C1567 C1568 1.523 . S
C1568 C1552 1.368 . S
C1568 C1564 1.368 . S
C1568 C1567 1.523 . S
H1569 C1544 0.950 . S
H1570 C1546 0.950 . S
H1571 C1547 0.949 . S
H1572 C1549 0.950 . S
H1573 C1551 0.950 . S
C1574 C1575 1.349 . S
C1574 C1576 1.327 . S
C1574 H1599 0.950 . S
C1575 C1574 1.349 . S
C1575 C1591 1.349 . S
C1576 C1574 1.327 . S
C1576 C1595 1.429 . S
C1576 H1600 0.950 . S
C1577 C1594 1.574 . S
C1577 C1596 1.368 . S
C1577 H1601 0.949 . S
H1578 C1582 0.949 . S
C1579 C1580 1.349 . S
C1579 C1581 1.327 . S
C1579 H1602 0.950 . S
C1580 C1579 1.349 . S
C1580 C1592 1.349 . S
C1581 C1579 1.327 . S
C1581 C1597 1.429 . S
C1581 H1603 0.950 . S
C1582 H1578 0.949 . S
C1582 C1590 1.574 . S
C1582 C1598 1.368 . S
H1583 C1591 0.950 . S
H1584 C1589 0.950 . S
H1585 C1590 0.949 . S
H1586 C1592 0.950 . S
H1587 C1593 0.950 . S
H1588 C1594 0.949 . S
C1589 H1584 0.950 . S
C1589 C1591 1.327 . S
C1589 C1595 1.429 . S
C1590 C1582 1.574 . S
C1590 H1585 0.949 . S
C1590 C1596 1.368 . S
C1591 C1575 1.349 . S
C1591 H1583 0.950 . S
C1591 C1589 1.327 . S
C1592 C1580 1.349 . S
C1592 H1586 0.950 . S
C1592 C1593 1.327 . S
C1593 H1587 0.950 . S
C1593 C1592 1.327 . S
C1593 C1597 1.429 . S
C1594 C1577 1.574 . S
C1594 H1588 0.949 . S
C1594 C1598 1.368 . S
C1595 C1576 1.429 . S
C1595 C1589 1.429 . S
C1595 C1596 1.523 . S
C1596 C1577 1.368 . S
C1596 C1590 1.368 . S
C1596 C1595 1.523 . S
C1597 C1581 1.429 . S
C1597 C1593 1.429 . S
C1597 C1598 1.523 . S
C1598 C1582 1.368 . S
C1598 C1594 1.368 . S
C1598 C1597 1.523 . S
H1599 C1574 0.950 . S
H1600 C1576 0.950 . S
H1601 C1577 0.949 . S
H1602 C1579 0.950 . S
H1603 C1581 0.950 . S
C1604 C1605 1.349 . S
C1604 C1606 1.327 . S
C1604 H1629 0.950 . S
C1605 C1604 1.349 . S
C1605 C1621 1.349 . S
C1606 C1604 1.327 . S
C1606 C1625 1.429 . S
C1606 H1630 0.950 . S
C1607 C1624 1.574 . S
C1607 C1626 1.368 . S
C1607 H1631 0.949 . S
H1608 C1612 0.949 . S
C1609 C1610 1.349 . S
C1609 C1611 1.327 . S
C1609 H1632 0.950 . S
C1610 C1609 1.349 . S
C1610 C1622 1.349 . S
C1611 C1609 1.327 . S
C1611 C1627 1.429 . S
C1611 H1633 0.950 . S
C1612 H1608 0.949 . S
C1612 C1620 1.574 . S
C1612 C1628 1.368 . S
H1613 C1621 0.950 . S
H1614 C1619 0.950 . S
H1615 C1620 0.949 . S
H1616 C1622 0.950 . S
H1617 C1623 0.950 . S
H1618 C1624 0.949 . S
C1619 H1614 0.950 . S
C1619 C1621 1.327 . S
C1619 C1625 1.429 . S
C1620 C1612 1.574 . S
C1620 H1615 0.949 . S
C1620 C1626 1.368 . S
C1621 C1605 1.349 . S
C1621 H1613 0.950 . S
C1621 C1619 1.327 . S
C1622 C1610 1.349 . S
C1622 H1616 0.950 . S
C1622 C1623 1.327 . S
C1623 H1617 0.950 . S
C1623 C1622 1.327 . S
C1623 C1627 1.429 . S
C1624 C1607 1.574 . S
C1624 H1618 0.949 . S
C1624 C1628 1.368 . S
C1625 C1606 1.429 . S
C1625 C1619 1.429 . S
C1625 C1626 1.523 . S
C1626 C1607 1.368 . S
C1626 C1620 1.368 . S
C1626 C1625 1.523 . S
C1627 C1611 1.429 . S
C1627 C1623 1.429 . S
C1627 C1628 1.523 . S
C1628 C1612 1.368 . S
C1628 C1624 1.368 . S
C1628 C1627 1.523 . S
H1629 C1604 0.950 . S
H1630 C1606 0.950 . S
H1631 C1607 0.949 . S
H1632 C1609 0.950 . S
H1633 C1611 0.950 . S
C1634 C1635 1.349 . S
C1634 C1636 1.327 . S
C1634 H1659 0.950 . S
C1635 C1634 1.349 . S
C1635 C1651 1.349 . S
C1636 C1634 1.327 . S
C1636 C1655 1.429 . S
C1636 H1660 0.950 . S
C1637 C1654 1.574 . S
C1637 C1656 1.368 . S
C1637 H1661 0.949 . S
H1638 C1642 0.949 . S
C1639 C1640 1.349 . S
C1639 C1641 1.327 . S
C1639 H1662 0.950 . S
C1640 C1639 1.349 . S
C1640 C1652 1.349 . S
C1641 C1639 1.327 . S
C1641 C1657 1.429 . S
C1641 H1663 0.950 . S
C1642 H1638 0.949 . S
C1642 C1650 1.574 . S
C1642 C1658 1.368 . S
H1643 C1651 0.950 . S
H1644 C1649 0.950 . S
H1645 C1650 0.949 . S
H1646 C1652 0.950 . S
H1647 C1653 0.950 . S
H1648 C1654 0.949 . S
C1649 H1644 0.950 . S
C1649 C1651 1.327 . S
C1649 C1655 1.429 . S
C1650 C1642 1.574 . S
C1650 H1645 0.949 . S
C1650 C1656 1.368 . S
C1651 C1635 1.349 . S
C1651 H1643 0.950 . S
C1651 C1649 1.327 . S
C1652 C1640 1.349 . S
C1652 H1646 0.950 . S
C1652 C1653 1.327 . S
C1653 H1647 0.950 . S
C1653 C1652 1.327 . S
C1653 C1657 1.429 . S
C1654 C1637 1.574 . S
C1654 H1648 0.949 . S
C1654 C1658 1.368 . S
C1655 C1636 1.429 . S
C1655 C1649 1.429 . S
C1655 C1656 1.523 . S
C1656 C1637 1.368 . S
C1656 C1650 1.368 . S
C1656 C1655 1.523 . S
C1657 C1641 1.429 . S
C1657 C1653 1.429 . S
C1657 C1658 1.523 . S
C1658 C1642 1.368 . S
C1658 C1654 1.368 . S
C1658 C1657 1.523 . S
H1659 C1634 0.950 . S
H1660 C1636 0.950 . S
H1661 C1637 0.949 . S
H1662 C1639 0.950 . S
H1663 C1641 0.950 . S
C1664 C1665 1.349 . S
C1664 C1666 1.327 1_565 S
C1664 H1689 0.950 . S
C1665 C1664 1.349 . S
C1665 C1681 1.349 . S
C1666 C1664 1.327 1_545 S
C1666 C1685 1.429 . S
C1666 H1690 0.950 . S
C1667 C1684 1.574 . S
C1667 C1686 1.368 . S
C1667 H1691 0.949 . S
H1668 C1672 0.949 . S
C1669 C1670 1.349 . S
C1669 C1671 1.327 . S
C1669 H1692 0.950 . S
C1670 C1669 1.349 . S
C1670 C1682 1.349 . S
C1671 C1669 1.327 . S
C1671 C1687 1.429 . S
C1671 H1693 0.950 . S
C1672 H1668 0.949 . S
C1672 C1680 1.574 . S
C1672 C1688 1.368 . S
H1673 C1681 0.950 . S
H1674 C1679 0.950 . S
H1675 C1680 0.949 . S
H1676 C1682 0.950 . S
H1677 C1683 0.950 . S
H1678 C1684 0.949 . S
C1679 H1674 0.950 . S
C1679 C1681 1.327 1_545 S
C1679 C1685 1.429 . S
C1680 C1672 1.574 . S
C1680 H1675 0.949 . S
C1680 C1686 1.368 . S
C1681 C1665 1.349 . S
C1681 H1673 0.950 . S
C1681 C1679 1.327 1_565 S
C1682 C1670 1.349 . S
C1682 H1676 0.950 . S
C1682 C1683 1.327 . S
C1683 H1677 0.950 . S
C1683 C1682 1.327 . S
C1683 C1687 1.429 . S
C1684 C1667 1.574 . S
C1684 H1678 0.949 . S
C1684 C1688 1.368 . S
C1685 C1666 1.429 . S
C1685 C1679 1.429 . S
C1685 C1686 1.523 . S
C1686 C1667 1.368 . S
C1686 C1680 1.368 . S
C1686 C1685 1.523 . S
C1687 C1671 1.429 . S
C1687 C1683 1.429 . S
C1687 C1688 1.523 . S
C1688 C1672 1.368 . S
C1688 C1684 1.368 . S
C1688 C1687 1.523 . S
H1689 C1664 0.950 . S
H1690 C1666 0.950 . S
H1691 C1667 0.949 . S
H1692 C1669 0.950 . S
H1693 C1671 0.950 . S
C1694 C1695 1.349 . S
C1694 C1696 1.327 1_455 S
C1694 H1719 0.950 . S
C1695 C1694 1.349 . S
C1695 C1711 1.349 . S
C1696 C1694 1.327 1_655 S
C1696 C1715 1.429 . S
C1696 H1720 0.950 . S
C1697 C1714 1.574 . S
C1697 C1716 1.368 . S
C1697 H1721 0.949 . S
H1698 C1702 0.949 . S
C1699 C1700 1.349 . S
C1699 C1701 1.327 . S
C1699 H1722 0.950 . S
C1700 C1699 1.349 . S
C1700 C1712 1.349 . S
C1701 C1699 1.327 . S
C1701 C1717 1.429 . S
C1701 H1723 0.950 . S
C1702 H1698 0.949 . S
C1702 C1710 1.574 . S
C1702 C1718 1.368 . S
H1703 C1711 0.950 . S
H1704 C1709 0.950 . S
H1705 C1710 0.949 . S
H1706 C1712 0.950 . S
H1707 C1713 0.950 . S
H1708 C1714 0.949 . S
C1709 H1704 0.950 . S
C1709 C1711 1.327 1_655 S
C1709 C1715 1.429 . S
C1710 C1702 1.574 . S
C1710 H1705 0.949 . S
C1710 C1716 1.368 . S
C1711 C1695 1.349 . S
C1711 H1703 0.950 . S
C1711 C1709 1.327 1_455 S
C1712 C1700 1.349 . S
C1712 H1706 0.950 . S
C1712 C1713 1.327 . S
C1713 H1707 0.950 . S
C1713 C1712 1.327 . S
C1713 C1717 1.429 . S
C1714 C1697 1.574 . S
C1714 H1708 0.949 . S
C1714 C1718 1.368 . S
C1715 C1696 1.429 . S
C1715 C1709 1.429 . S
C1715 C1716 1.523 . S
C1716 C1697 1.368 . S
C1716 C1710 1.368 . S
C1716 C1715 1.523 . S
C1717 C1701 1.429 . S
C1717 C1713 1.429 . S
C1717 C1718 1.523 . S
C1718 C1702 1.368 . S
C1718 C1714 1.368 . S
C1718 C1717 1.523 . S
H1719 C1694 0.950 . S
H1720 C1696 0.950 . S
H1721 C1697 0.949 . S
H1722 C1699 0.950 . S
H1723 C1701 0.950 . S
C1724 C1725 1.349 . S
C1724 C1726 1.327 . S
C1724 H1749 0.950 . S
C1725 C1724 1.349 . S
C1725 C1741 1.349 . S
C1726 C1724 1.327 . S
C1726 C1745 1.429 . S
C1726 H1750 0.950 . S
C1727 C1744 1.574 . S
C1727 C1746 1.368 . S
C1727 H1751 0.949 . S
H1728 C1732 0.949 . S
C1729 C1730 1.349 . S
C1729 C1731 1.327 1_545 S
C1729 H1752 0.950 . S
C1730 C1729 1.349 . S
C1730 C1742 1.349 . S
C1731 C1729 1.327 1_565 S
C1731 C1747 1.429 . S
C1731 H1753 0.950 . S
C1732 H1728 0.949 . S
C1732 C1740 1.574 . S
C1732 C1748 1.368 . S
H1733 C1741 0.950 . S
H1734 C1739 0.950 . S
H1735 C1740 0.949 . S
H1736 C1742 0.950 . S
H1737 C1743 0.950 . S
H1738 C1744 0.949 . S
C1739 H1734 0.950 . S
C1739 C1741 1.327 . S
C1739 C1745 1.429 . S
C1740 C1732 1.574 . S
C1740 H1735 0.949 . S
C1740 C1746 1.368 . S
C1741 C1725 1.349 . S
C1741 H1733 0.950 . S
C1741 C1739 1.327 . S
C1742 C1730 1.349 . S
C1742 H1736 0.950 . S
C1742 C1743 1.327 1_545 S
C1743 H1737 0.950 . S
C1743 C1742 1.327 1_565 S
C1743 C1747 1.429 . S
C1744 C1727 1.574 . S
C1744 H1738 0.949 . S
C1744 C1748 1.368 . S
C1745 C1726 1.429 . S
C1745 C1739 1.429 . S
C1745 C1746 1.523 . S
C1746 C1727 1.368 . S
C1746 C1740 1.368 . S
C1746 C1745 1.523 . S
C1747 C1731 1.429 . S
C1747 C1743 1.429 . S
C1747 C1748 1.523 . S
C1748 C1732 1.368 . S
C1748 C1744 1.368 . S
C1748 C1747 1.523 . S
H1749 C1724 0.950 . S
H1750 C1726 0.950 . S
H1751 C1727 0.949 . S
H1752 C1729 0.950 . S
H1753 C1731 0.950 . S
C1754 C1755 1.349 . S
C1754 C1756 1.327 . S
C1754 H1779 0.950 . S
C1755 C1754 1.349 . S
C1755 C1771 1.349 . S
C1756 C1754 1.327 . S
C1756 C1775 1.429 . S
C1756 H1780 0.950 . S
C1757 C1774 1.574 . S
C1757 C1776 1.368 . S
C1757 H1781 0.949 . S
H1758 C1762 0.949 . S
C1759 C1760 1.349 . S
C1759 C1761 1.327 1_655 S
C1759 H1782 0.950 . S
C1760 C1759 1.349 . S
C1760 C1772 1.349 . S
C1761 C1759 1.327 1_455 S
C1761 C1777 1.429 . S
C1761 H1783 0.950 . S
C1762 H1758 0.949 . S
C1762 C1770 1.574 . S
C1762 C1778 1.368 . S
H1763 C1771 0.950 . S
H1764 C1769 0.950 . S
H1765 C1770 0.949 . S
H1766 C1772 0.950 . S
H1767 C1773 0.950 . S
H1768 C1774 0.949 . S
C1769 H1764 0.950 . S
C1769 C1771 1.327 . S
C1769 C1775 1.429 . S
C1770 C1762 1.574 . S
C1770 H1765 0.949 . S
C1770 C1776 1.368 . S
C1771 C1755 1.349 . S
C1771 H1763 0.950 . S
C1771 C1769 1.327 . S
C1772 C1760 1.349 . S
C1772 H1766 0.950 . S
C1772 C1773 1.327 1_655 S
C1773 H1767 0.950 . S
C1773 C1772 1.327 1_455 S
C1773 C1777 1.429 . S
C1774 C1757 1.574 . S
C1774 H1768 0.949 . S
C1774 C1778 1.368 . S
C1775 C1756 1.429 . S
C1775 C1769 1.429 . S
C1775 C1776 1.523 . S
C1776 C1757 1.368 . S
C1776 C1770 1.368 . S
C1776 C1775 1.523 . S
C1777 C1761 1.429 . S
C1777 C1773 1.429 . S
C1777 C1778 1.523 . S
C1778 C1762 1.368 . S
C1778 C1774 1.368 . S
C1778 C1777 1.523 . S
H1779 C1754 0.950 . S
H1780 C1756 0.950 . S
H1781 C1757 0.949 . S
H1782 C1759 0.950 . S
H1783 C1761 0.950 . S
C1784 C1785 1.349 . S
C1784 C1786 1.327 1_545 S
C1784 H1809 0.950 . S
C1785 C1784 1.349 . S
C1785 C1801 1.349 . S
C1786 C1784 1.327 1_565 S
C1786 C1805 1.429 . S
C1786 H1810 0.950 . S
C1787 C1804 1.574 . S
C1787 C1806 1.368 . S
C1787 H1811 0.949 . S
H1788 C1792 0.949 . S
C1789 C1790 1.349 . S
C1789 C1791 1.327 . S
C1789 H1812 0.950 . S
C1790 C1789 1.349 . S
C1790 C1802 1.349 . S
C1791 C1789 1.327 . S
C1791 C1807 1.429 . S
C1791 H1813 0.950 . S
C1792 H1788 0.949 . S
C1792 C1800 1.574 . S
C1792 C1808 1.368 . S
H1793 C1801 0.950 . S
H1794 C1799 0.950 . S
H1795 C1800 0.949 . S
H1796 C1802 0.950 . S
H1797 C1803 0.950 . S
H1798 C1804 0.949 . S
C1799 H1794 0.950 . S
C1799 C1801 1.327 1_565 S
C1799 C1805 1.429 . S
C1800 C1792 1.574 . S
C1800 H1795 0.949 . S
C1800 C1806 1.368 . S
C1801 C1785 1.349 . S
C1801 H1793 0.950 . S
C1801 C1799 1.327 1_545 S
C1802 C1790 1.349 . S
C1802 H1796 0.950 . S
C1802 C1803 1.327 . S
C1803 H1797 0.950 . S
C1803 C1802 1.327 . S
C1803 C1807 1.429 . S
C1804 C1787 1.574 . S
C1804 H1798 0.949 . S
C1804 C1808 1.368 . S
C1805 C1786 1.429 . S
C1805 C1799 1.429 . S
C1805 C1806 1.523 . S
C1806 C1787 1.368 . S
C1806 C1800 1.368 . S
C1806 C1805 1.523 . S
C1807 C1791 1.429 . S
C1807 C1803 1.429 . S
C1807 C1808 1.523 . S
C1808 C1792 1.368 . S
C1808 C1804 1.368 . S
C1808 C1807 1.523 . S
H1809 C1784 0.950 . S
H1810 C1786 0.950 . S
H1811 C1787 0.949 . S
H1812 C1789 0.950 . S
H1813 C1791 0.950 . S
C1814 C1815 1.349 . S
C1814 C1816 1.327 1_655 S
C1814 H1839 0.950 . S
C1815 C1814 1.349 . S
C1815 C1831 1.349 . S
C1816 C1814 1.327 1_455 S
C1816 C1835 1.429 . S
C1816 H1840 0.950 . S
C1817 C1834 1.574 . S
C1817 C1836 1.368 . S
C1817 H1841 0.949 . S
H1818 C1822 0.949 . S
C1819 C1820 1.349 . S
C1819 C1821 1.327 . S
C1819 H1842 0.950 . S
C1820 C1819 1.349 . S
C1820 C1832 1.349 . S
C1821 C1819 1.327 . S
C1821 C1837 1.429 . S
C1821 H1843 0.950 . S
C1822 H1818 0.949 . S
C1822 C1830 1.574 . S
C1822 C1838 1.368 . S
H1823 C1831 0.950 . S
H1824 C1829 0.950 . S
H1825 C1830 0.949 . S
H1826 C1832 0.950 . S
H1827 C1833 0.950 . S
H1828 C1834 0.949 . S
C1829 H1824 0.950 . S
C1829 C1831 1.327 1_455 S
C1829 C1835 1.429 . S
C1830 C1822 1.574 . S
C1830 H1825 0.949 . S
C1830 C1836 1.368 . S
C1831 C1815 1.349 . S
C1831 H1823 0.950 . S
C1831 C1829 1.327 1_655 S
C1832 C1820 1.349 . S
C1832 H1826 0.950 . S
C1832 C1833 1.327 . S
C1833 H1827 0.950 . S
C1833 C1832 1.327 . S
C1833 C1837 1.429 . S
C1834 C1817 1.574 . S
C1834 H1828 0.949 . S
C1834 C1838 1.368 . S
C1835 C1816 1.429 . S
C1835 C1829 1.429 . S
C1835 C1836 1.523 . S
C1836 C1817 1.368 . S
C1836 C1830 1.368 . S
C1836 C1835 1.523 . S
C1837 C1821 1.429 . S
C1837 C1833 1.429 . S
C1837 C1838 1.523 . S
C1838 C1822 1.368 . S
C1838 C1834 1.368 . S
C1838 C1837 1.523 . S
H1839 C1814 0.950 . S
H1840 C1816 0.950 . S
H1841 C1817 0.949 . S
H1842 C1819 0.950 . S
H1843 C1821 0.950 . S
C1844 C1845 1.349 . S
C1844 C1846 1.327 1_565 S
C1844 H1869 0.950 . S
C1845 C1844 1.349 . S
C1845 C1861 1.349 . S
C1846 C1844 1.327 1_545 S
C1846 C1865 1.429 . S
C1846 H1870 0.950 . S
C1847 C1864 1.574 . S
C1847 C1866 1.368 . S
C1847 H1871 0.949 . S
H1848 C1852 0.949 . S
C1849 C1850 1.349 . S
C1849 C1851 1.327 . S
C1849 H1872 0.950 . S
C1850 C1849 1.349 . S
C1850 C1862 1.349 . S
C1851 C1849 1.327 . S
C1851 C1867 1.429 . S
C1851 H1873 0.950 . S
C1852 H1848 0.949 . S
C1852 C1860 1.574 . S
C1852 C1868 1.368 . S
H1853 C1861 0.950 . S
H1854 C1859 0.950 . S
H1855 C1860 0.949 . S
H1856 C1862 0.950 . S
H1857 C1863 0.950 . S
H1858 C1864 0.949 . S
C1859 H1854 0.950 . S
C1859 C1861 1.327 1_545 S
C1859 C1865 1.429 . S
C1860 C1852 1.574 . S
C1860 H1855 0.949 . S
C1860 C1866 1.368 . S
C1861 C1845 1.349 . S
C1861 H1853 0.950 . S
C1861 C1859 1.327 1_565 S
C1862 C1850 1.349 . S
C1862 H1856 0.950 . S
C1862 C1863 1.327 . S
C1863 H1857 0.950 . S
C1863 C1862 1.327 . S
C1863 C1867 1.429 . S
C1864 C1847 1.574 . S
C1864 H1858 0.949 . S
C1864 C1868 1.368 . S
C1865 C1846 1.429 . S
C1865 C1859 1.429 . S
C1865 C1866 1.523 . S
C1866 C1847 1.368 . S
C1866 C1860 1.368 . S
C1866 C1865 1.523 . S
C1867 C1851 1.429 . S
C1867 C1863 1.429 . S
C1867 C1868 1.523 . S
C1868 C1852 1.368 . S
C1868 C1864 1.368 . S
C1868 C1867 1.523 . S
H1869 C1844 0.950 . S
H1870 C1846 0.950 . S
H1871 C1847 0.949 . S
H1872 C1849 0.950 . S
H1873 C1851 0.950 . S
C1874 C1875 1.349 . S
C1874 C1876 1.327 . S
C1874 H1899 0.950 . S
C1875 C1874 1.349 . S
C1875 C1891 1.349 . S
C1876 C1874 1.327 . S
C1876 C1895 1.429 . S
C1876 H1900 0.950 . S
C1877 C1894 1.574 . S
C1877 C1896 1.368 . S
C1877 H1901 0.949 . S
H1878 C1882 0.949 . S
C1879 C1880 1.349 . S
C1879 C1881 1.327 1_455 S
C1879 H1902 0.950 . S
C1880 C1879 1.349 . S
C1880 C1892 1.349 . S
C1881 C1879 1.327 1_655 S
C1881 C1897 1.429 . S
C1881 H1903 0.950 . S
C1882 H1878 0.949 . S
C1882 C1890 1.574 . S
C1882 C1898 1.368 . S
H1883 C1891 0.950 . S
H1884 C1889 0.950 . S
H1885 C1890 0.949 . S
H1886 C1892 0.950 . S
H1887 C1893 0.950 . S
H1888 C1894 0.949 . S
C1889 H1884 0.950 . S
C1889 C1891 1.327 . S
C1889 C1895 1.429 . S
C1890 C1882 1.574 . S
C1890 H1885 0.949 . S
C1890 C1896 1.368 . S
C1891 C1875 1.349 . S
C1891 H1883 0.950 . S
C1891 C1889 1.327 . S
C1892 C1880 1.349 . S
C1892 H1886 0.950 . S
C1892 C1893 1.327 1_455 S
C1893 H1887 0.950 . S
C1893 C1892 1.327 1_655 S
C1893 C1897 1.429 . S
C1894 C1877 1.574 . S
C1894 H1888 0.949 . S
C1894 C1898 1.368 . S
C1895 C1876 1.429 . S
C1895 C1889 1.429 . S
C1895 C1896 1.523 . S
C1896 C1877 1.368 . S
C1896 C1890 1.368 . S
C1896 C1895 1.523 . S
C1897 C1881 1.429 . S
C1897 C1893 1.429 . S
C1897 C1898 1.523 . S
C1898 C1882 1.368 . S
C1898 C1894 1.368 . S
C1898 C1897 1.523 . S
H1899 C1874 0.950 . S
H1900 C1876 0.950 . S
H1901 C1877 0.949 . S
H1902 C1879 0.950 . S
H1903 C1881 0.950 . S
C1904 C1905 1.349 . S
C1904 C1906 1.327 1_545 S
C1904 H1929 0.950 . S
C1905 C1904 1.349 . S
C1905 C1921 1.349 . S
C1906 C1904 1.327 1_565 S
C1906 C1925 1.429 . S
C1906 H1930 0.950 . S
C1907 C1924 1.574 . S
C1907 C1926 1.368 . S
C1907 H1931 0.949 . S
H1908 C1912 0.949 . S
C1909 C1910 1.349 . S
C1909 C1911 1.327 . S
C1909 H1932 0.950 . S
C1910 C1909 1.349 . S
C1910 C1922 1.349 . S
C1911 C1909 1.327 . S
C1911 C1927 1.429 . S
C1911 H1933 0.950 . S
C1912 H1908 0.949 . S
C1912 C1920 1.574 . S
C1912 C1928 1.368 . S
H1913 C1921 0.950 . S
H1914 C1919 0.950 . S
H1915 C1920 0.949 . S
H1916 C1922 0.950 . S
H1917 C1923 0.950 . S
H1918 C1924 0.949 . S
C1919 H1914 0.950 . S
C1919 C1921 1.327 1_565 S
C1919 C1925 1.429 . S
C1920 C1912 1.574 . S
C1920 H1915 0.949 . S
C1920 C1926 1.368 . S
C1921 C1905 1.349 . S
C1921 H1913 0.950 . S
C1921 C1919 1.327 1_545 S
C1922 C1910 1.349 . S
C1922 H1916 0.950 . S
C1922 C1923 1.327 . S
C1923 H1917 0.950 . S
C1923 C1922 1.327 . S
C1923 C1927 1.429 . S
C1924 C1907 1.574 . S
C1924 H1918 0.949 . S
C1924 C1928 1.368 . S
C1925 C1906 1.429 . S
C1925 C1919 1.429 . S
C1925 C1926 1.523 . S
C1926 C1907 1.368 . S
C1926 C1920 1.368 . S
C1926 C1925 1.523 . S
C1927 C1911 1.429 . S
C1927 C1923 1.429 . S
C1927 C1928 1.523 . S
C1928 C1912 1.368 . S
C1928 C1924 1.368 . S
C1928 C1927 1.523 . S
H1929 C1904 0.950 . S
H1930 C1906 0.950 . S
H1931 C1907 0.949 . S
H1932 C1909 0.950 . S
H1933 C1911 0.950 . S
C1934 C1935 1.349 . S
C1934 C1936 1.327 1_655 S
C1934 H1959 0.950 . S
C1935 C1934 1.349 . S
C1935 C1951 1.349 . S
C1936 C1934 1.327 1_455 S
C1936 C1955 1.429 . S
C1936 H1960 0.950 . S
C1937 C1954 1.574 . S
C1937 C1956 1.368 . S
C1937 H1961 0.949 . S
H1938 C1942 0.949 . S
C1939 C1940 1.349 . S
C1939 C1941 1.327 . S
C1939 H1962 0.950 . S
C1940 C1939 1.349 . S
C1940 C1952 1.349 . S
C1941 C1939 1.327 . S
C1941 C1957 1.429 . S
C1941 H1963 0.950 . S
C1942 H1938 0.949 . S
C1942 C1950 1.574 . S
C1942 C1958 1.368 . S
H1943 C1951 0.950 . S
H1944 C1949 0.950 . S
H1945 C1950 0.949 . S
H1946 C1952 0.950 . S
H1947 C1953 0.950 . S
H1948 C1954 0.949 . S
C1949 H1944 0.950 . S
C1949 C1951 1.327 1_455 S
C1949 C1955 1.429 . S
C1950 C1942 1.574 . S
C1950 H1945 0.949 . S
C1950 C1956 1.368 . S
C1951 C1935 1.349 . S
C1951 H1943 0.950 . S
C1951 C1949 1.327 1_655 S
C1952 C1940 1.349 . S
C1952 H1946 0.950 . S
C1952 C1953 1.327 . S
C1953 H1947 0.950 . S
C1953 C1952 1.327 . S
C1953 C1957 1.429 . S
C1954 C1937 1.574 . S
C1954 H1948 0.949 . S
C1954 C1958 1.368 . S
C1955 C1936 1.429 . S
C1955 C1949 1.429 . S
C1955 C1956 1.523 . S
C1956 C1937 1.368 . S
C1956 C1950 1.368 . S
C1956 C1955 1.523 . S
C1957 C1941 1.429 . S
C1957 C1953 1.429 . S
C1957 C1958 1.523 . S
C1958 C1942 1.368 . S
C1958 C1954 1.368 . S
C1958 C1957 1.523 . S
H1959 C1934 0.950 . S
H1960 C1936 0.950 . S
H1961 C1937 0.949 . S
H1962 C1939 0.950 . S
H1963 C1941 0.950 . S
C1964 C1965 1.349 . S
C1964 C1966 1.327 . S
C1964 H1989 0.950 . S
C1965 C1964 1.349 . S
C1965 C1981 1.349 . S
C1966 C1964 1.327 . S
C1966 C1985 1.429 . S
C1966 H1990 0.950 . S
C1967 C1984 1.574 . S
C1967 C1986 1.368 . S
C1967 H1991 0.949 . S
H1968 C1972 0.949 . S
C1969 C1970 1.349 . S
C1969 C1971 1.327 1_565 S
C1969 H1992 0.950 . S
C1970 C1969 1.349 . S
C1970 C1982 1.349 . S
C1971 C1969 1.327 1_545 S
C1971 C1987 1.429 . S
C1971 H1993 0.950 . S
C1972 H1968 0.949 . S
C1972 C1980 1.574 . S
C1972 C1988 1.368 . S
H1973 C1981 0.950 . S
H1974 C1979 0.950 . S
H1975 C1980 0.949 . S
H1976 C1982 0.950 . S
H1977 C1983 0.950 . S
H1978 C1984 0.949 . S
C1979 H1974 0.950 . S
C1979 C1981 1.327 . S
C1979 C1985 1.429 . S
C1980 C1972 1.574 . S
C1980 H1975 0.949 . S
C1980 C1986 1.368 . S
C1981 C1965 1.349 . S
C1981 H1973 0.950 . S
C1981 C1979 1.327 . S
C1982 C1970 1.349 . S
C1982 H1976 0.950 . S
C1982 C1983 1.327 1_565 S
C1983 H1977 0.950 . S
C1983 C1982 1.327 1_545 S
C1983 C1987 1.429 . S
C1984 C1967 1.574 . S
C1984 H1978 0.949 . S
C1984 C1988 1.368 . S
C1985 C1966 1.429 . S
C1985 C1979 1.429 . S
C1985 C1986 1.523 . S
C1986 C1967 1.368 . S
C1986 C1980 1.368 . S
C1986 C1985 1.523 . S
C1987 C1971 1.429 . S
C1987 C1983 1.429 . S
C1987 C1988 1.523 . S
C1988 C1972 1.368 . S
C1988 C1984 1.368 . S
C1988 C1987 1.523 . S
H1989 C1964 0.950 . S
H1990 C1966 0.950 . S
H1991 C1967 0.949 . S
H1992 C1969 0.950 . S
H1993 C1971 0.950 . S
C1994 C1995 1.349 . S
C1994 C1996 1.327 . S
C1994 H2019 0.950 . S
C1995 C1994 1.349 . S
C1995 C2011 1.349 . S
C1996 C1994 1.327 . S
C1996 C2015 1.429 . S
C1996 H2020 0.950 . S
C1997 C2014 1.574 . S
C1997 C2016 1.368 . S
C1997 H2021 0.949 . S
H1998 C2002 0.949 . S
C1999 C2000 1.349 . S
C1999 C2001 1.327 1_455 S
C1999 H2022 0.950 . S
C2000 C1999 1.349 . S
C2000 C2012 1.349 . S
C2001 C1999 1.327 1_655 S
C2001 C2017 1.429 . S
C2001 H2023 0.950 . S
C2002 H1998 0.949 . S
C2002 C2010 1.574 . S
C2002 C2018 1.368 . S
H2003 C2011 0.950 . S
H2004 C2009 0.950 . S
H2005 C2010 0.949 . S
H2006 C2012 0.950 . S
H2007 C2013 0.950 . S
H2008 C2014 0.949 . S
C2009 H2004 0.950 . S
C2009 C2011 1.327 . S
C2009 C2015 1.429 . S
C2010 C2002 1.574 . S
C2010 H2005 0.949 . S
C2010 C2016 1.368 . S
C2011 C1995 1.349 . S
C2011 H2003 0.950 . S
C2011 C2009 1.327 . S
C2012 C2000 1.349 . S
C2012 H2006 0.950 . S
C2012 C2013 1.327 1_455 S
C2013 H2007 0.950 . S
C2013 C2012 1.327 1_655 S
C2013 C2017 1.429 . S
C2014 C1997 1.574 . S
C2014 H2008 0.949 . S
C2014 C2018 1.368 . S
C2015 C1996 1.429 . S
C2015 C2009 1.429 . S
C2015 C2016 1.523 . S
C2016 C1997 1.368 . S
C2016 C2010 1.368 . S
C2016 C2015 1.523 . S
C2017 C2001 1.429 . S
C2017 C2013 1.429 . S
C2017 C2018 1.523 . S
C2018 C2002 1.368 . S
C2018 C2014 1.368 . S
C2018 C2017 1.523 . S
H2019 C1994 0.950 . S
H2020 C1996 0.950 . S
H2021 C1997 0.949 . S
H2022 C1999 0.950 . S
H2023 C2001 0.950 . S
C2024 C2025 1.349 . S
C2024 C2026 1.327 1_565 S
C2024 H2049 0.950 . S
C2025 C2024 1.349 . S
C2025 C2041 1.349 . S
C2026 C2024 1.327 1_545 S
C2026 C2045 1.429 . S
C2026 H2050 0.950 . S
C2027 C2044 1.574 . S
C2027 C2046 1.368 . S
C2027 H2051 0.949 . S
H2028 C2032 0.949 . S
C2029 C2030 1.349 . S
C2029 C2031 1.327 . S
C2029 H2052 0.950 . S
C2030 C2029 1.349 . S
C2030 C2042 1.349 . S
C2031 C2029 1.327 . S
C2031 C2047 1.429 . S
C2031 H2053 0.950 . S
C2032 H2028 0.949 . S
C2032 C2040 1.574 . S
C2032 C2048 1.368 . S
H2033 C2041 0.950 . S
H2034 C2039 0.950 . S
H2035 C2040 0.949 . S
H2036 C2042 0.950 . S
H2037 C2043 0.950 . S
H2038 C2044 0.949 . S
C2039 H2034 0.950 . S
C2039 C2041 1.327 1_545 S
C2039 C2045 1.429 . S
C2040 C2032 1.574 . S
C2040 H2035 0.949 . S
C2040 C2046 1.368 . S
C2041 C2025 1.349 . S
C2041 H2033 0.950 . S
C2041 C2039 1.327 1_565 S
C2042 C2030 1.349 . S
C2042 H2036 0.950 . S
C2042 C2043 1.327 . S
C2043 H2037 0.950 . S
C2043 C2042 1.327 . S
C2043 C2047 1.429 . S
C2044 C2027 1.574 . S
C2044 H2038 0.949 . S
C2044 C2048 1.368 . S
C2045 C2026 1.429 . S
C2045 C2039 1.429 . S
C2045 C2046 1.523 . S
C2046 C2027 1.368 . S
C2046 C2040 1.368 . S
C2046 C2045 1.523 . S
C2047 C2031 1.429 . S
C2047 C2043 1.429 . S
C2047 C2048 1.523 . S
C2048 C2032 1.368 . S
C2048 C2044 1.368 . S
C2048 C2047 1.523 . S
H2049 C2024 0.950 . S
H2050 C2026 0.950 . S
H2051 C2027 0.949 . S
H2052 C2029 0.950 . S
H2053 C2031 0.950 . S
C2054 C2055 1.349 . S
C2054 C2056 1.327 . S
C2054 H2079 0.950 . S
C2055 C2054 1.349 . S
C2055 C2071 1.349 . S
C2056 C2054 1.327 . S
C2056 C2075 1.429 . S
C2056 H2080 0.950 . S
C2057 C2074 1.574 . S
C2057 C2076 1.368 . S
C2057 H2081 0.949 . S
H2058 C2062 0.949 . S
C2059 C2060 1.349 . S
C2059 C2061 1.327 1_455 S
C2059 H2082 0.950 . S
C2060 C2059 1.349 . S
C2060 C2072 1.349 . S
C2061 C2059 1.327 1_655 S
C2061 C2077 1.429 . S
C2061 H2083 0.950 . S
C2062 H2058 0.949 . S
C2062 C2070 1.574 . S
C2062 C2078 1.368 . S
H2063 C2071 0.950 . S
H2064 C2069 0.950 . S
H2065 C2070 0.949 . S
H2066 C2072 0.950 . S
H2067 C2073 0.950 . S
H2068 C2074 0.949 . S
C2069 H2064 0.950 . S
C2069 C2071 1.327 . S
C2069 C2075 1.429 . S
C2070 C2062 1.574 . S
C2070 H2065 0.949 . S
C2070 C2076 1.368 . S
C2071 C2055 1.349 . S
C2071 H2063 0.950 . S
C2071 C2069 1.327 . S
C2072 C2060 1.349 . S
C2072 H2066 0.950 . S
C2072 C2073 1.327 1_455 S
C2073 H2067 0.950 . S
C2073 C2072 1.327 1_655 S
C2073 C2077 1.429 . S
C2074 C2057 1.574 . S
C2074 H2068 0.949 . S
C2074 C2078 1.368 . S
C2075 C2056 1.429 . S
C2075 C2069 1.429 . S
C2075 C2076 1.523 . S
C2076 C2057 1.368 . S
C2076 C2070 1.368 . S
C2076 C2075 1.523 . S
C2077 C2061 1.429 . S
C2077 C2073 1.429 . S
C2077 C2078 1.523 . S
C2078 C2062 1.368 . S
C2078 C2074 1.368 . S
C2078 C2077 1.523 . S
H2079 C2054 0.950 . S
H2080 C2056 0.950 . S
H2081 C2057 0.949 . S
H2082 C2059 0.950 . S
H2083 C2061 0.950 . S
C2084 C2085 1.349 . S
C2084 C2086 1.327 . S
C2084 H2109 0.950 . S
C2085 C2084 1.349 . S
C2085 C2101 1.349 . S
C2086 C2084 1.327 . S
C2086 C2105 1.429 . S
C2086 H2110 0.950 . S
C2087 C2104 1.574 . S
C2087 C2106 1.368 . S
C2087 H2111 0.949 . S
H2088 C2092 0.949 . S
C2089 C2090 1.349 . S
C2089 C2091 1.327 1_545 S
C2089 H2112 0.950 . S
C2090 C2089 1.349 . S
C2090 C2102 1.349 . S
C2091 C2089 1.327 1_565 S
C2091 C2107 1.429 . S
C2091 H2113 0.950 . S
C2092 H2088 0.949 . S
C2092 C2100 1.574 . S
C2092 C2108 1.368 . S
H2093 C2101 0.950 . S
H2094 C2099 0.950 . S
H2095 C2100 0.949 . S
H2096 C2102 0.950 . S
H2097 C2103 0.950 . S
H2098 C2104 0.949 . S
C2099 H2094 0.950 . S
C2099 C2101 1.327 . S
C2099 C2105 1.429 . S
C2100 C2092 1.574 . S
C2100 H2095 0.949 . S
C2100 C2106 1.368 . S
C2101 C2085 1.349 . S
C2101 H2093 0.950 . S
C2101 C2099 1.327 . S
C2102 C2090 1.349 . S
C2102 H2096 0.950 . S
C2102 C2103 1.327 1_545 S
C2103 H2097 0.950 . S
C2103 C2102 1.327 1_565 S
C2103 C2107 1.429 . S
C2104 C2087 1.574 . S
C2104 H2098 0.949 . S
C2104 C2108 1.368 . S
C2105 C2086 1.429 . S
C2105 C2099 1.429 . S
C2105 C2106 1.523 . S
C2106 C2087 1.368 . S
C2106 C2100 1.368 . S
C2106 C2105 1.523 . S
C2107 C2091 1.429 . S
C2107 C2103 1.429 . S
C2107 C2108 1.523 . S
C2108 C2092 1.368 . S
C2108 C2104 1.368 . S
C2108 C2107 1.523 . S
H2109 C2084 0.950 . S
H2110 C2086 0.950 . S
H2111 C2087 0.949 . S
H2112 C2089 0.950 . S
H2113 C2091 0.950 . S
C2114 C2115 1.349 . S
C2114 C2116 1.327 . S
C2114 H2139 0.950 . S
C2115 C2114 1.349 . S
C2115 C2131 1.349 . S
C2116 C2114 1.327 . S
C2116 C2135 1.429 . S
C2116 H2140 0.950 . S
C2117 C2134 1.574 . S
C2117 C2136 1.368 . S
C2117 H2141 0.949 . S
H2118 C2122 0.949 . S
C2119 C2120 1.349 . S
C2119 C2121 1.327 1_655 S
C2119 H2142 0.950 . S
C2120 C2119 1.349 . S
C2120 C2132 1.349 . S
C2121 C2119 1.327 1_455 S
C2121 C2137 1.429 . S
C2121 H2143 0.950 . S
C2122 H2118 0.949 . S
C2122 C2130 1.574 . S
C2122 C2138 1.368 . S
H2123 C2131 0.950 . S
H2124 C2129 0.950 . S
H2125 C2130 0.949 . S
H2126 C2132 0.950 . S
H2127 C2133 0.950 . S
H2128 C2134 0.949 . S
C2129 H2124 0.950 . S
C2129 C2131 1.327 . S
C2129 C2135 1.429 . S
C2130 C2122 1.574 . S
C2130 H2125 0.949 . S
C2130 C2136 1.368 . S
C2131 C2115 1.349 . S
C2131 H2123 0.950 . S
C2131 C2129 1.327 . S
C2132 C2120 1.349 . S
C2132 H2126 0.950 . S
C2132 C2133 1.327 1_655 S
C2133 H2127 0.950 . S
C2133 C2132 1.327 1_455 S
C2133 C2137 1.429 . S
C2134 C2117 1.574 . S
C2134 H2128 0.949 . S
C2134 C2138 1.368 . S
C2135 C2116 1.429 . S
C2135 C2129 1.429 . S
C2135 C2136 1.523 . S
C2136 C2117 1.368 . S
C2136 C2130 1.368 . S
C2136 C2135 1.523 . S
C2137 C2121 1.429 . S
C2137 C2133 1.429 . S
C2137 C2138 1.523 . S
C2138 C2122 1.368 . S
C2138 C2134 1.368 . S
C2138 C2137 1.523 . S
H2139 C2114 0.950 . S
H2140 C2116 0.950 . S
H2141 C2117 0.949 . S
H2142 C2119 0.950 . S
H2143 C2121 0.950 . S
C2144 C2145 1.349 . S
C2144 C2146 1.327 . S
C2144 H2169 0.950 . S
C2145 C2144 1.349 . S
C2145 C2161 1.349 . S
C2146 C2144 1.327 . S
C2146 C2165 1.429 . S
C2146 H2170 0.950 . S
C2147 C2164 1.574 . S
C2147 C2166 1.368 . S
C2147 H2171 0.949 . S
H2148 C2152 0.949 . S
C2149 C2150 1.349 . S
C2149 C2151 1.327 . S
C2149 H2172 0.950 . S
C2150 C2149 1.349 . S
C2150 C2162 1.349 . S
C2151 C2149 1.327 . S
C2151 C2167 1.429 . S
C2151 H2173 0.950 . S
C2152 H2148 0.949 . S
C2152 C2160 1.574 . S
C2152 C2168 1.368 . S
H2153 C2161 0.950 . S
H2154 C2159 0.950 . S
H2155 C2160 0.949 . S
H2156 C2162 0.950 . S
H2157 C2163 0.950 . S
H2158 C2164 0.949 . S
C2159 H2154 0.950 . S
C2159 C2161 1.327 . S
C2159 C2165 1.429 . S
C2160 C2152 1.574 . S
C2160 H2155 0.949 . S
C2160 C2166 1.368 . S
C2161 C2145 1.349 . S
C2161 H2153 0.950 . S
C2161 C2159 1.327 . S
C2162 C2150 1.349 . S
C2162 H2156 0.950 . S
C2162 C2163 1.327 . S
C2163 H2157 0.950 . S
C2163 C2162 1.327 . S
C2163 C2167 1.429 . S
C2164 C2147 1.574 . S
C2164 H2158 0.949 . S
C2164 C2168 1.368 . S
C2165 C2146 1.429 . S
C2165 C2159 1.429 . S
C2165 C2166 1.523 . S
C2166 C2147 1.368 . S
C2166 C2160 1.368 . S
C2166 C2165 1.523 . S
C2167 C2151 1.429 . S
C2167 C2163 1.429 . S
C2167 C2168 1.523 . S
C2168 C2152 1.368 . S
C2168 C2164 1.368 . S
C2168 C2167 1.523 . S
H2169 C2144 0.950 . S
H2170 C2146 0.950 . S
H2171 C2147 0.949 . S
H2172 C2149 0.950 . S
H2173 C2151 0.950 . S
C2174 C2175 1.349 . S
C2174 C2176 1.327 . S
C2174 H2199 0.950 . S
C2175 C2174 1.349 . S
C2175 C2191 1.349 . S
C2176 C2174 1.327 . S
C2176 C2195 1.429 . S
C2176 H2200 0.950 . S
C2177 C2194 1.574 . S
C2177 C2196 1.368 . S
C2177 H2201 0.949 . S
H2178 C2182 0.949 . S
C2179 C2180 1.349 . S
C2179 C2181 1.327 . S
C2179 H2202 0.950 . S
C2180 C2179 1.349 . S
C2180 C2192 1.349 . S
C2181 C2179 1.327 . S
C2181 C2197 1.429 . S
C2181 H2203 0.950 . S
C2182 H2178 0.949 . S
C2182 C2190 1.574 . S
C2182 C2198 1.368 . S
H2183 C2191 0.950 . S
H2184 C2189 0.950 . S
H2185 C2190 0.949 . S
H2186 C2192 0.950 . S
H2187 C2193 0.950 . S
H2188 C2194 0.949 . S
C2189 H2184 0.950 . S
C2189 C2191 1.327 . S
C2189 C2195 1.429 . S
C2190 C2182 1.574 . S
C2190 H2185 0.949 . S
C2190 C2196 1.368 . S
C2191 C2175 1.349 . S
C2191 H2183 0.950 . S
C2191 C2189 1.327 . S
C2192 C2180 1.349 . S
C2192 H2186 0.950 . S
C2192 C2193 1.327 . S
C2193 H2187 0.950 . S
C2193 C2192 1.327 . S
C2193 C2197 1.429 . S
C2194 C2177 1.574 . S
C2194 H2188 0.949 . S
C2194 C2198 1.368 . S
C2195 C2176 1.429 . S
C2195 C2189 1.429 . S
C2195 C2196 1.523 . S
C2196 C2177 1.368 . S
C2196 C2190 1.368 . S
C2196 C2195 1.523 . S
C2197 C2181 1.429 . S
C2197 C2193 1.429 . S
C2197 C2198 1.523 . S
C2198 C2182 1.368 . S
C2198 C2194 1.368 . S
C2198 C2197 1.523 . S
H2199 C2174 0.950 . S
H2200 C2176 0.950 . S
H2201 C2177 0.949 . S
H2202 C2179 0.950 . S
H2203 C2181 0.950 . S
C2204 C2205 1.349 . S
C2204 C2206 1.327 . S
C2204 H2229 0.950 . S
C2205 C2204 1.349 . S
C2205 C2221 1.349 . S
C2206 C2204 1.327 . S
C2206 C2225 1.429 . S
C2206 H2230 0.950 . S
C2207 C2224 1.574 . S
C2207 C2226 1.368 . S
C2207 H2231 0.949 . S
H2208 C2212 0.949 . S
C2209 C2210 1.349 . S
C2209 C2211 1.327 . S
C2209 H2232 0.950 . S
C2210 C2209 1.349 . S
C2210 C2222 1.349 . S
C2211 C2209 1.327 . S
C2211 C2227 1.429 . S
C2211 H2233 0.950 . S
C2212 H2208 0.949 . S
C2212 C2220 1.574 . S
C2212 C2228 1.368 . S
H2213 C2221 0.950 . S
H2214 C2219 0.950 . S
H2215 C2220 0.949 . S
H2216 C2222 0.950 . S
H2217 C2223 0.950 . S
H2218 C2224 0.949 . S
C2219 H2214 0.950 . S
C2219 C2221 1.327 . S
C2219 C2225 1.429 . S
C2220 C2212 1.574 . S
C2220 H2215 0.949 . S
C2220 C2226 1.368 . S
C2221 C2205 1.349 . S
C2221 H2213 0.950 . S
C2221 C2219 1.327 . S
C2222 C2210 1.349 . S
C2222 H2216 0.950 . S
C2222 C2223 1.327 . S
C2223 H2217 0.950 . S
C2223 C2222 1.327 . S
C2223 C2227 1.429 . S
C2224 C2207 1.574 . S
C2224 H2218 0.949 . S
C2224 C2228 1.368 . S
C2225 C2206 1.429 . S
C2225 C2219 1.429 . S
C2225 C2226 1.523 . S
C2226 C2207 1.368 . S
C2226 C2220 1.368 . S
C2226 C2225 1.523 . S
C2227 C2211 1.429 . S
C2227 C2223 1.429 . S
C2227 C2228 1.523 . S
C2228 C2212 1.368 . S
C2228 C2224 1.368 . S
C2228 C2227 1.523 . S
H2229 C2204 0.950 . S
H2230 C2206 0.950 . S
H2231 C2207 0.949 . S
H2232 C2209 0.950 . S
H2233 C2211 0.950 . S
C2234 C2235 1.349 . S
C2234 C2236 1.327 . S
C2234 H2259 0.950 . S
C2235 C2234 1.349 . S
C2235 C2251 1.349 . S
C2236 C2234 1.327 . S
C2236 C2255 1.429 . S
C2236 H2260 0.950 . S
C2237 C2254 1.574 . S
C2237 C2256 1.368 . S
C2237 H2261 0.949 . S
H2238 C2242 0.949 . S
C2239 C2240 1.349 . S
C2239 C2241 1.327 . S
C2239 H2262 0.950 . S
C2240 C2239 1.349 . S
C2240 C2252 1.349 . S
C2241 C2239 1.327 . S
C2241 C2257 1.429 . S
C2241 H2263 0.950 . S
C2242 H2238 0.949 . S
C2242 C2250 1.574 . S
C2242 C2258 1.368 . S
H2243 C2251 0.950 . S
H2244 C2249 0.950 . S
H2245 C2250 0.949 . S
H2246 C2252 0.950 . S
H2247 C2253 0.950 . S
H2248 C2254 0.949 . S
C2249 H2244 0.950 . S
C2249 C2251 1.327 . S
C2249 C2255 1.429 . S
C2250 C2242 1.574 . S
C2250 H2245 0.949 . S
C2250 C2256 1.368 . S
C2251 C2235 1.349 . S
C2251 H2243 0.950 . S
C2251 C2249 1.327 . S
C2252 C2240 1.349 . S
C2252 H2246 0.950 . S
C2252 C2253 1.327 . S
C2253 H2247 0.950 . S
C2253 C2252 1.327 . S
C2253 C2257 1.429 . S
C2254 C2237 1.574 . S
C2254 H2248 0.949 . S
C2254 C2258 1.368 . S
C2255 C2236 1.429 . S
C2255 C2249 1.429 . S
C2255 C2256 1.523 . S
C2256 C2237 1.368 . S
C2256 C2250 1.368 . S
C2256 C2255 1.523 . S
C2257 C2241 1.429 . S
C2257 C2253 1.429 . S
C2257 C2258 1.523 . S
C2258 C2242 1.368 . S
C2258 C2254 1.368 . S
C2258 C2257 1.523 . S
H2259 C2234 0.950 . S
H2260 C2236 0.950 . S
H2261 C2237 0.949 . S
H2262 C2239 0.950 . S
H2263 C2241 0.950 . S
C2264 C2265 1.349 . S
C2264 C2266 1.327 . S
C2264 H2289 0.950 . S
C2265 C2264 1.349 . S
C2265 C2281 1.349 . S
C2266 C2264 1.327 . S
C2266 C2285 1.429 . S
C2266 H2290 0.950 . S
C2267 C2284 1.574 . S
C2267 C2286 1.368 . S
C2267 H2291 0.949 . S
H2268 C2272 0.949 . S
C2269 C2270 1.349 . S
C2269 C2271 1.327 . S
C2269 H2292 0.950 . S
C2270 C2269 1.349 . S
C2270 C2282 1.349 . S
C2271 C2269 1.327 . S
C2271 C2287 1.429 . S
C2271 H2293 0.950 . S
C2272 H2268 0.949 . S
C2272 C2280 1.574 . S
C2272 C2288 1.368 . S
H2273 C2281 0.950 . S
H2274 C2279 0.950 . S
H2275 C2280 0.949 . S
H2276 C2282 0.950 . S
H2277 C2283 0.950 . S
H2278 C2284 0.949 . S
C2279 H2274 0.950 . S
C2279 C2281 1.327 . S
C2279 C2285 1.429 . S
C2280 C2272 1.574 . S
C2280 H2275 0.949 . S
C2280 C2286 1.368 . S
C2281 C2265 1.349 . S
C2281 H2273 0.950 . S
C2281 C2279 1.327 . S
C2282 C2270 1.349 . S
C2282 H2276 0.950 . S
C2282 C2283 1.327 . S
C2283 H2277 0.950 . S
C2283 C2282 1.327 . S
C2283 C2287 1.429 . S
C2284 C2267 1.574 . S
C2284 H2278 0.949 . S
C2284 C2288 1.368 . S
C2285 C2266 1.429 . S
C2285 C2279 1.429 . S
C2285 C2286 1.523 . S
C2286 C2267 1.368 . S
C2286 C2280 1.368 . S
C2286 C2285 1.523 . S
C2287 C2271 1.429 . S
C2287 C2283 1.429 . S
C2287 C2288 1.523 . S
C2288 C2272 1.368 . S
C2288 C2284 1.368 . S
C2288 C2287 1.523 . S
H2289 C2264 0.950 . S
H2290 C2266 0.950 . S
H2291 C2267 0.949 . S
H2292 C2269 0.950 . S
H2293 C2271 0.950 . S
C2294 C2295 1.349 . S
C2294 C2296 1.327 . S
C2294 H2319 0.950 . S
C2295 C2294 1.349 . S
C2295 C2311 1.349 . S
C2296 C2294 1.327 . S
C2296 C2315 1.429 . S
C2296 H2320 0.950 . S
C2297 C2314 1.574 . S
C2297 C2316 1.368 . S
C2297 H2321 0.949 . S
H2298 C2302 0.949 . S
C2299 C2300 1.349 . S
C2299 C2301 1.327 . S
C2299 H2322 0.950 . S
C2300 C2299 1.349 . S
C2300 C2312 1.349 . S
C2301 C2299 1.327 . S
C2301 C2317 1.429 . S
C2301 H2323 0.950 . S
C2302 H2298 0.949 . S
C2302 C2310 1.574 . S
C2302 C2318 1.368 . S
H2303 C2311 0.950 . S
H2304 C2309 0.950 . S
H2305 C2310 0.949 . S
H2306 C2312 0.950 . S
H2307 C2313 0.950 . S
H2308 C2314 0.949 . S
C2309 H2304 0.950 . S
C2309 C2311 1.327 . S
C2309 C2315 1.429 . S
C2310 C2302 1.574 . S
C2310 H2305 0.949 . S
C2310 C2316 1.368 . S
C2311 C2295 1.349 . S
C2311 H2303 0.950 . S
C2311 C2309 1.327 . S
C2312 C2300 1.349 . S
C2312 H2306 0.950 . S
C2312 C2313 1.327 . S
C2313 H2307 0.950 . S
C2313 C2312 1.327 . S
C2313 C2317 1.429 . S
C2314 C2297 1.574 . S
C2314 H2308 0.949 . S
C2314 C2318 1.368 . S
C2315 C2296 1.429 . S
C2315 C2309 1.429 . S
C2315 C2316 1.523 . S
C2316 C2297 1.368 . S
C2316 C2310 1.368 . S
C2316 C2315 1.523 . S
C2317 C2301 1.429 . S
C2317 C2313 1.429 . S
C2317 C2318 1.523 . S
C2318 C2302 1.368 . S
C2318 C2314 1.368 . S
C2318 C2317 1.523 . S
H2319 C2294 0.950 . S
H2320 C2296 0.950 . S
H2321 C2297 0.949 . S
H2322 C2299 0.950 . S
H2323 C2301 0.950 . S
C2324 C2325 1.349 . S
C2324 C2326 1.327 . S
C2324 H2349 0.950 . S
C2325 C2324 1.349 . S
C2325 C2341 1.349 . S
C2326 C2324 1.327 . S
C2326 C2345 1.429 . S
C2326 H2350 0.950 . S
C2327 C2344 1.574 . S
C2327 C2346 1.368 . S
C2327 H2351 0.949 . S
H2328 C2332 0.949 . S
C2329 C2330 1.349 . S
C2329 C2331 1.327 . S
C2329 H2352 0.950 . S
C2330 C2329 1.349 . S
C2330 C2342 1.349 . S
C2331 C2329 1.327 . S
C2331 C2347 1.429 . S
C2331 H2353 0.950 . S
C2332 H2328 0.949 . S
C2332 C2340 1.574 . S
C2332 C2348 1.368 . S
H2333 C2341 0.950 . S
H2334 C2339 0.950 . S
H2335 C2340 0.949 . S
H2336 C2342 0.950 . S
H2337 C2343 0.950 . S
H2338 C2344 0.949 . S
C2339 H2334 0.950 . S
C2339 C2341 1.327 . S
C2339 C2345 1.429 . S
C2340 C2332 1.574 . S
C2340 H2335 0.949 . S
C2340 C2346 1.368 . S
C2341 C2325 1.349 . S
C2341 H2333 0.950 . S
C2341 C2339 1.327 . S
C2342 C2330 1.349 . S
C2342 H2336 0.950 . S
C2342 C2343 1.327 . S
C2343 H2337 0.950 . S
C2343 C2342 1.327 . S
C2343 C2347 1.429 . S
C2344 C2327 1.574 . S
C2344 H2338 0.949 . S
C2344 C2348 1.368 . S
C2345 C2326 1.429 . S
C2345 C2339 1.429 . S
C2345 C2346 1.523 . S
C2346 C2327 1.368 . S
C2346 C2340 1.368 . S
C2346 C2345 1.523 . S
C2347 C2331 1.429 . S
C2347 C2343 1.429 . S
C2347 C2348 1.523 . S
C2348 C2332 1.368 . S
C2348 C2344 1.368 . S
C2348 C2347 1.523 . S
H2349 C2324 0.950 . S
H2350 C2326 0.950 . S
H2351 C2327 0.949 . S
H2352 C2329 0.950 . S
H2353 C2331 0.950 . S
C2354 C2355 1.349 . S
C2354 C2356 1.327 . S
C2354 H2379 0.950 . S
C2355 C2354 1.349 . S
C2355 C2371 1.349 . S
C2356 C2354 1.327 . S
C2356 C2375 1.429 . S
C2356 H2380 0.950 . S
C2357 C2374 1.574 . S
C2357 C2376 1.368 . S
C2357 H2381 0.949 . S
H2358 C2362 0.949 . S
C2359 C2360 1.349 . S
C2359 C2361 1.327 . S
C2359 H2382 0.950 . S
C2360 C2359 1.349 . S
C2360 C2372 1.349 . S
C2361 C2359 1.327 . S
C2361 C2377 1.429 . S
C2361 H2383 0.950 . S
C2362 H2358 0.949 . S
C2362 C2370 1.574 . S
C2362 C2378 1.368 . S
H2363 C2371 0.950 . S
H2364 C2369 0.950 . S
H2365 C2370 0.949 . S
H2366 C2372 0.950 . S
H2367 C2373 0.950 . S
H2368 C2374 0.949 . S
C2369 H2364 0.950 . S
C2369 C2371 1.327 . S
C2369 C2375 1.429 . S
C2370 C2362 1.574 . S
C2370 H2365 0.949 . S
C2370 C2376 1.368 . S
C2371 C2355 1.349 . S
C2371 H2363 0.950 . S
C2371 C2369 1.327 . S
C2372 C2360 1.349 . S
C2372 H2366 0.950 . S
C2372 C2373 1.327 . S
C2373 H2367 0.950 . S
C2373 C2372 1.327 . S
C2373 C2377 1.429 . S
C2374 C2357 1.574 . S
C2374 H2368 0.949 . S
C2374 C2378 1.368 . S
C2375 C2356 1.429 . S
C2375 C2369 1.429 . S
C2375 C2376 1.523 . S
C2376 C2357 1.368 . S
C2376 C2370 1.368 . S
C2376 C2375 1.523 . S
C2377 C2361 1.429 . S
C2377 C2373 1.429 . S
C2377 C2378 1.523 . S
C2378 C2362 1.368 . S
C2378 C2374 1.368 . S
C2378 C2377 1.523 . S
H2379 C2354 0.950 . S
H2380 C2356 0.950 . S
H2381 C2357 0.949 . S
H2382 C2359 0.950 . S
H2383 C2361 0.950 . S
C2384 C2385 1.349 . S
C2384 C2386 1.327 . S
C2384 H2409 0.950 . S
C2385 C2384 1.349 . S
C2385 C2401 1.349 . S
C2386 C2384 1.327 . S
C2386 C2405 1.429 . S
C2386 H2410 0.950 . S
C2387 C2404 1.574 . S
C2387 C2406 1.368 . S
C2387 H2411 0.949 . S
H2388 C2392 0.949 . S
C2389 C2390 1.349 . S
C2389 C2391 1.327 . S
C2389 H2412 0.950 . S
C2390 C2389 1.349 . S
C2390 C2402 1.349 . S
C2391 C2389 1.327 . S
C2391 C2407 1.429 . S
C2391 H2413 0.950 . S
C2392 H2388 0.949 . S
C2392 C2400 1.574 . S
C2392 C2408 1.368 . S
H2393 C2401 0.950 . S
H2394 C2399 0.950 . S
H2395 C2400 0.949 . S
H2396 C2402 0.950 . S
H2397 C2403 0.950 . S
H2398 C2404 0.949 . S
C2399 H2394 0.950 . S
C2399 C2401 1.327 . S
C2399 C2405 1.429 . S
C2400 C2392 1.574 . S
C2400 H2395 0.949 . S
C2400 C2406 1.368 . S
C2401 C2385 1.349 . S
C2401 H2393 0.950 . S
C2401 C2399 1.327 . S
C2402 C2390 1.349 . S
C2402 H2396 0.950 . S
C2402 C2403 1.327 . S
C2403 H2397 0.950 . S
C2403 C2402 1.327 . S
C2403 C2407 1.429 . S
C2404 C2387 1.574 . S
C2404 H2398 0.949 . S
C2404 C2408 1.368 . S
C2405 C2386 1.429 . S
C2405 C2399 1.429 . S
C2405 C2406 1.523 . S
C2406 C2387 1.368 . S
C2406 C2400 1.368 . S
C2406 C2405 1.523 . S
C2407 C2391 1.429 . S
C2407 C2403 1.429 . S
C2407 C2408 1.523 . S
C2408 C2392 1.368 . S
C2408 C2404 1.368 . S
C2408 C2407 1.523 . S
H2409 C2384 0.950 . S
H2410 C2386 0.950 . S
H2411 C2387 0.949 . S
H2412 C2389 0.950 . S
H2413 C2391 0.950 . S
C2414 C2415 1.349 . S
C2414 C2416 1.327 . S
C2414 H2439 0.950 . S
C2415 C2414 1.349 . S
C2415 C2431 1.349 . S
C2416 C2414 1.327 . S
C2416 C2435 1.429 . S
C2416 H2440 0.950 . S
C2417 C2434 1.574 . S
C2417 C2436 1.368 . S
C2417 H2441 0.949 . S
H2418 C2422 0.949 . S
C2419 C2420 1.349 . S
C2419 C2421 1.327 . S
C2419 H2442 0.950 . S
C2420 C2419 1.349 . S
C2420 C2432 1.349 . S
C2421 C2419 1.327 . S
C2421 C2437 1.429 . S
C2421 H2443 0.950 . S
C2422 H2418 0.949 . S
C2422 C2430 1.574 . S
C2422 C2438 1.368 . S
H2423 C2431 0.950 . S
H2424 C2429 0.950 . S
H2425 C2430 0.949 . S
H2426 C2432 0.950 . S
H2427 C2433 0.950 . S
H2428 C2434 0.949 . S
C2429 H2424 0.950 . S
C2429 C2431 1.327 . S
C2429 C2435 1.429 . S
C2430 C2422 1.574 . S
C2430 H2425 0.949 . S
C2430 C2436 1.368 . S
C2431 C2415 1.349 . S
C2431 H2423 0.950 . S
C2431 C2429 1.327 . S
C2432 C2420 1.349 . S
C2432 H2426 0.950 . S
C2432 C2433 1.327 . S
C2433 H2427 0.950 . S
C2433 C2432 1.327 . S
C2433 C2437 1.429 . S
C2434 C2417 1.574 . S
C2434 H2428 0.949 . S
C2434 C2438 1.368 . S
C2435 C2416 1.429 . S
C2435 C2429 1.429 . S
C2435 C2436 1.523 . S
C2436 C2417 1.368 . S
C2436 C2430 1.368 . S
C2436 C2435 1.523 . S
C2437 C2421 1.429 . S
C2437 C2433 1.429 . S
C2437 C2438 1.523 . S
C2438 C2422 1.368 . S
C2438 C2434 1.368 . S
C2438 C2437 1.523 . S
H2439 C2414 0.950 . S
H2440 C2416 0.950 . S
H2441 C2417 0.949 . S
H2442 C2419 0.950 . S
H2443 C2421 0.950 . S
C2444 C2445 1.349 . S
C2444 C2446 1.327 . S
C2444 H2469 0.950 . S
C2445 C2444 1.349 . S
C2445 C2461 1.349 . S
C2446 C2444 1.327 . S
C2446 C2465 1.429 . S
C2446 H2470 0.950 . S
C2447 C2464 1.574 . S
C2447 C2466 1.368 . S
C2447 H2471 0.949 . S
H2448 C2452 0.949 . S
C2449 C2450 1.349 . S
C2449 C2451 1.327 . S
C2449 H2472 0.950 . S
C2450 C2449 1.349 . S
C2450 C2462 1.349 . S
C2451 C2449 1.327 . S
C2451 C2467 1.429 . S
C2451 H2473 0.950 . S
C2452 H2448 0.949 . S
C2452 C2460 1.574 . S
C2452 C2468 1.368 . S
H2453 C2461 0.950 . S
H2454 C2459 0.950 . S
H2455 C2460 0.949 . S
H2456 C2462 0.950 . S
H2457 C2463 0.950 . S
H2458 C2464 0.949 . S
C2459 H2454 0.950 . S
C2459 C2461 1.327 . S
C2459 C2465 1.429 . S
C2460 C2452 1.574 . S
C2460 H2455 0.949 . S
C2460 C2466 1.368 . S
C2461 C2445 1.349 . S
C2461 H2453 0.950 . S
C2461 C2459 1.327 . S
C2462 C2450 1.349 . S
C2462 H2456 0.950 . S
C2462 C2463 1.327 . S
C2463 H2457 0.950 . S
C2463 C2462 1.327 . S
C2463 C2467 1.429 . S
C2464 C2447 1.574 . S
C2464 H2458 0.949 . S
C2464 C2468 1.368 . S
C2465 C2446 1.429 . S
C2465 C2459 1.429 . S
C2465 C2466 1.523 . S
C2466 C2447 1.368 . S
C2466 C2460 1.368 . S
C2466 C2465 1.523 . S
C2467 C2451 1.429 . S
C2467 C2463 1.429 . S
C2467 C2468 1.523 . S
C2468 C2452 1.368 . S
C2468 C2464 1.368 . S
C2468 C2467 1.523 . S
H2469 C2444 0.950 . S
H2470 C2446 0.950 . S
H2471 C2447 0.949 . S
H2472 C2449 0.950 . S
H2473 C2451 0.950 . S
C2474 C2475 1.349 . S
C2474 C2476 1.327 . S
C2474 H2499 0.950 . S
C2475 C2474 1.349 . S
C2475 C2491 1.349 . S
C2476 C2474 1.327 . S
C2476 C2495 1.429 . S
C2476 H2500 0.950 . S
C2477 C2494 1.574 . S
C2477 C2496 1.368 . S
C2477 H2501 0.949 . S
H2478 C2482 0.949 . S
C2479 C2480 1.349 . S
C2479 C2481 1.327 . S
C2479 H2502 0.950 . S
C2480 C2479 1.349 . S
C2480 C2492 1.349 . S
C2481 C2479 1.327 . S
C2481 C2497 1.429 . S
C2481 H2503 0.950 . S
C2482 H2478 0.949 . S
C2482 C2490 1.574 . S
C2482 C2498 1.368 . S
H2483 C2491 0.950 . S
H2484 C2489 0.950 . S
H2485 C2490 0.949 . S
H2486 C2492 0.950 . S
H2487 C2493 0.950 . S
H2488 C2494 0.949 . S
C2489 H2484 0.950 . S
C2489 C2491 1.327 . S
C2489 C2495 1.429 . S
C2490 C2482 1.574 . S
C2490 H2485 0.949 . S
C2490 C2496 1.368 . S
C2491 C2475 1.349 . S
C2491 H2483 0.950 . S
C2491 C2489 1.327 . S
C2492 C2480 1.349 . S
C2492 H2486 0.950 . S
C2492 C2493 1.327 . S
C2493 H2487 0.950 . S
C2493 C2492 1.327 . S
C2493 C2497 1.429 . S
C2494 C2477 1.574 . S
C2494 H2488 0.949 . S
C2494 C2498 1.368 . S
C2495 C2476 1.429 . S
C2495 C2489 1.429 . S
C2495 C2496 1.523 . S
C2496 C2477 1.368 . S
C2496 C2490 1.368 . S
C2496 C2495 1.523 . S
C2497 C2481 1.429 . S
C2497 C2493 1.429 . S
C2497 C2498 1.523 . S
C2498 C2482 1.368 . S
C2498 C2494 1.368 . S
C2498 C2497 1.523 . S
H2499 C2474 0.950 . S
H2500 C2476 0.950 . S
H2501 C2477 0.949 . S
H2502 C2479 0.950 . S
H2503 C2481 0.950 . S
C2504 C2505 1.349 . S
C2504 C2506 1.327 . S
C2504 H2529 0.950 . S
C2505 C2504 1.349 . S
C2505 C2521 1.349 . S
C2506 C2504 1.327 . S
C2506 C2525 1.429 . S
C2506 H2530 0.950 . S
C2507 C2524 1.574 . S
C2507 C2526 1.368 . S
C2507 H2531 0.949 . S
H2508 C2512 0.949 . S
C2509 C2510 1.349 . S
C2509 C2511 1.327 . S
C2509 H2532 0.950 . S
C2510 C2509 1.349 . S
C2510 C2522 1.349 . S
C2511 C2509 1.327 . S
C2511 C2527 1.429 . S
C2511 H2533 0.950 . S
C2512 H2508 0.949 . S
C2512 C2520 1.574 . S
C2512 C2528 1.368 . S
H2513 C2521 0.950 . S
H2514 C2519 0.950 . S
H2515 C2520 0.949 . S
H2516 C2522 0.950 . S
H2517 C2523 0.950 . S
H2518 C2524 0.949 . S
C2519 H2514 0.950 . S
C2519 C2521 1.327 . S
C2519 C2525 1.429 . S
C2520 C2512 1.574 . S
C2520 H2515 0.949 . S
C2520 C2526 1.368 . S
C2521 C2505 1.349 . S
C2521 H2513 0.950 . S
C2521 C2519 1.327 . S
C2522 C2510 1.349 . S
C2522 H2516 0.950 . S
C2522 C2523 1.327 . S
C2523 H2517 0.950 . S
C2523 C2522 1.327 . S
C2523 C2527 1.429 . S
C2524 C2507 1.574 . S
C2524 H2518 0.949 . S
C2524 C2528 1.368 . S
C2525 C2506 1.429 . S
C2525 C2519 1.429 . S
C2525 C2526 1.523 . S
C2526 C2507 1.368 . S
C2526 C2520 1.368 . S
C2526 C2525 1.523 . S
C2527 C2511 1.429 . S
C2527 C2523 1.429 . S
C2527 C2528 1.523 . S
C2528 C2512 1.368 . S
C2528 C2524 1.368 . S
C2528 C2527 1.523 . S
H2529 C2504 0.950 . S
H2530 C2506 0.950 . S
H2531 C2507 0.949 . S
H2532 C2509 0.950 . S
H2533 C2511 0.950 . S
C2534 C2535 1.349 . S
C2534 C2536 1.327 . S
C2534 H2559 0.950 . S
C2535 C2534 1.349 . S
C2535 C2551 1.349 . S
C2536 C2534 1.327 . S
C2536 C2555 1.429 . S
C2536 H2560 0.950 . S
C2537 C2554 1.574 . S
C2537 C2556 1.368 . S
C2537 H2561 0.949 . S
H2538 C2542 0.949 . S
C2539 C2540 1.349 . S
C2539 C2541 1.327 . S
C2539 H2562 0.950 . S
C2540 C2539 1.349 . S
C2540 C2552 1.349 . S
C2541 C2539 1.327 . S
C2541 C2557 1.429 . S
C2541 H2563 0.950 . S
C2542 H2538 0.949 . S
C2542 C2550 1.574 . S
C2542 C2558 1.368 . S
H2543 C2551 0.950 . S
H2544 C2549 0.950 . S
H2545 C2550 0.949 . S
H2546 C2552 0.950 . S
H2547 C2553 0.950 . S
H2548 C2554 0.949 . S
C2549 H2544 0.950 . S
C2549 C2551 1.327 . S
C2549 C2555 1.429 . S
C2550 C2542 1.574 . S
C2550 H2545 0.949 . S
C2550 C2556 1.368 . S
C2551 C2535 1.349 . S
C2551 H2543 0.950 . S
C2551 C2549 1.327 . S
C2552 C2540 1.349 . S
C2552 H2546 0.950 . S
C2552 C2553 1.327 . S
C2553 H2547 0.950 . S
C2553 C2552 1.327 . S
C2553 C2557 1.429 . S
C2554 C2537 1.574 . S
C2554 H2548 0.949 . S
C2554 C2558 1.368 . S
C2555 C2536 1.429 . S
C2555 C2549 1.429 . S
C2555 C2556 1.523 . S
C2556 C2537 1.368 . S
C2556 C2550 1.368 . S
C2556 C2555 1.523 . S
C2557 C2541 1.429 . S
C2557 C2553 1.429 . S
C2557 C2558 1.523 . S
C2558 C2542 1.368 . S
C2558 C2554 1.368 . S
C2558 C2557 1.523 . S
H2559 C2534 0.950 . S
H2560 C2536 0.950 . S
H2561 C2537 0.949 . S
H2562 C2539 0.950 . S
H2563 C2541 0.950 . S
C2564 C2565 1.349 . S
C2564 C2566 1.327 . S
C2564 H2589 0.950 . S
C2565 C2564 1.349 . S
C2565 C2581 1.349 . S
C2566 C2564 1.327 . S
C2566 C2585 1.429 . S
C2566 H2590 0.950 . S
C2567 C2584 1.574 . S
C2567 C2586 1.368 . S
C2567 H2591 0.949 . S
H2568 C2572 0.949 . S
C2569 C2570 1.349 . S
C2569 C2571 1.327 . S
C2569 H2592 0.950 . S
C2570 C2569 1.349 . S
C2570 C2582 1.349 . S
C2571 C2569 1.327 . S
C2571 C2587 1.429 . S
C2571 H2593 0.950 . S
C2572 H2568 0.949 . S
C2572 C2580 1.574 . S
C2572 C2588 1.368 . S
H2573 C2581 0.950 . S
H2574 C2579 0.950 . S
H2575 C2580 0.949 . S
H2576 C2582 0.950 . S
H2577 C2583 0.950 . S
H2578 C2584 0.949 . S
C2579 H2574 0.950 . S
C2579 C2581 1.327 . S
C2579 C2585 1.429 . S
C2580 C2572 1.574 . S
C2580 H2575 0.949 . S
C2580 C2586 1.368 . S
C2581 C2565 1.349 . S
C2581 H2573 0.950 . S
C2581 C2579 1.327 . S
C2582 C2570 1.349 . S
C2582 H2576 0.950 . S
C2582 C2583 1.327 . S
C2583 H2577 0.950 . S
C2583 C2582 1.327 . S
C2583 C2587 1.429 . S
C2584 C2567 1.574 . S
C2584 H2578 0.949 . S
C2584 C2588 1.368 . S
C2585 C2566 1.429 . S
C2585 C2579 1.429 . S
C2585 C2586 1.523 . S
C2586 C2567 1.368 . S
C2586 C2580 1.368 . S
C2586 C2585 1.523 . S
C2587 C2571 1.429 . S
C2587 C2583 1.429 . S
C2587 C2588 1.523 . S
C2588 C2572 1.368 . S
C2588 C2584 1.368 . S
C2588 C2587 1.523 . S
H2589 C2564 0.950 . S
H2590 C2566 0.950 . S
H2591 C2567 0.949 . S
H2592 C2569 0.950 . S
H2593 C2571 0.950 . S
C2594 C2595 1.349 . S
C2594 C2596 1.327 . S
C2594 H2619 0.950 . S
C2595 C2594 1.349 . S
C2595 C2611 1.349 . S
C2596 C2594 1.327 . S
C2596 C2615 1.429 . S
C2596 H2620 0.950 . S
C2597 C2614 1.574 . S
C2597 C2616 1.368 . S
C2597 H2621 0.949 . S
H2598 C2602 0.949 . S
C2599 C2600 1.349 . S
C2599 C2601 1.327 . S
C2599 H2622 0.950 . S
C2600 C2599 1.349 . S
C2600 C2612 1.349 . S
C2601 C2599 1.327 . S
C2601 C2617 1.429 . S
C2601 H2623 0.950 . S
C2602 H2598 0.949 . S
C2602 C2610 1.574 . S
C2602 C2618 1.368 . S
H2603 C2611 0.950 . S
H2604 C2609 0.950 . S
H2605 C2610 0.949 . S
H2606 C2612 0.950 . S
H2607 C2613 0.950 . S
H2608 C2614 0.949 . S
C2609 H2604 0.950 . S
C2609 C2611 1.327 . S
C2609 C2615 1.429 . S
C2610 C2602 1.574 . S
C2610 H2605 0.949 . S
C2610 C2616 1.368 . S
C2611 C2595 1.349 . S
C2611 H2603 0.950 . S
C2611 C2609 1.327 . S
C2612 C2600 1.349 . S
C2612 H2606 0.950 . S
C2612 C2613 1.327 . S
C2613 H2607 0.950 . S
C2613 C2612 1.327 . S
C2613 C2617 1.429 . S
C2614 C2597 1.574 . S
C2614 H2608 0.949 . S
C2614 C2618 1.368 . S
C2615 C2596 1.429 . S
C2615 C2609 1.429 . S
C2615 C2616 1.523 . S
C2616 C2597 1.368 . S
C2616 C2610 1.368 . S
C2616 C2615 1.523 . S
C2617 C2601 1.429 . S
C2617 C2613 1.429 . S
C2617 C2618 1.523 . S
C2618 C2602 1.368 . S
C2618 C2614 1.368 . S
C2618 C2617 1.523 . S
H2619 C2594 0.950 . S
H2620 C2596 0.950 . S
H2621 C2597 0.949 . S
H2622 C2599 0.950 . S
H2623 C2601 0.950 . S
C2624 C2625 1.349 . S
C2624 C2626 1.327 . S
C2624 H2649 0.950 . S
C2625 C2624 1.349 . S
C2625 C2641 1.349 . S
C2626 C2624 1.327 . S
C2626 C2645 1.429 . S
C2626 H2650 0.950 . S
C2627 C2644 1.574 . S
C2627 C2646 1.368 1_655 S
C2627 H2651 0.949 . S
H2628 C2632 0.949 . S
C2629 C2630 1.349 . S
C2629 C2631 1.327 . S
C2629 H2652 0.950 . S
C2630 C2629 1.349 . S
C2630 C2642 1.349 . S
C2631 C2629 1.327 . S
C2631 C2647 1.429 . S
C2631 H2653 0.950 . S
C2632 H2628 0.949 . S
C2632 C2640 1.574 . S
C2632 C2648 1.368 1_455 S
H2633 C2641 0.950 . S
H2634 C2639 0.950 . S
H2635 C2640 0.949 . S
H2636 C2642 0.950 . S
H2637 C2643 0.950 . S
H2638 C2644 0.949 . S
C2639 H2634 0.950 . S
C2639 C2641 1.327 . S
C2639 C2645 1.429 . S
C2640 C2632 1.574 . S
C2640 H2635 0.949 . S
C2640 C2646 1.368 . S
C2641 C2625 1.349 . S
C2641 H2633 0.950 . S
C2641 C2639 1.327 . S
C2642 C2630 1.349 . S
C2642 H2636 0.950 . S
C2642 C2643 1.327 . S
C2643 H2637 0.950 . S
C2643 C2642 1.327 . S
C2643 C2647 1.429 . S
C2644 C2627 1.574 . S
C2644 H2638 0.949 . S
C2644 C2648 1.368 . S
C2645 C2626 1.429 . S
C2645 C2639 1.429 . S
C2645 C2646 1.523 . S
C2646 C2627 1.368 1_455 S
C2646 C2640 1.368 . S
C2646 C2645 1.523 . S
C2647 C2631 1.429 . S
C2647 C2643 1.429 . S
C2647 C2648 1.523 . S
C2648 C2632 1.368 1_655 S
C2648 C2644 1.368 . S
C2648 C2647 1.523 . S
H2649 C2624 0.950 . S
H2650 C2626 0.950 . S
H2651 C2627 0.949 . S
H2652 C2629 0.950 . S
H2653 C2631 0.950 . S
C2654 C2655 1.349 . S
C2654 C2656 1.327 . S
C2654 H2679 0.950 . S
C2655 C2654 1.349 . S
C2655 C2671 1.349 . S
C2656 C2654 1.327 . S
C2656 C2675 1.429 . S
C2656 H2680 0.950 . S
C2657 C2674 1.574 . S
C2657 C2676 1.368 . S
C2657 H2681 0.949 . S
H2658 C2662 0.949 . S
C2659 C2660 1.349 . S
C2659 C2661 1.327 . S
C2659 H2682 0.950 . S
C2660 C2659 1.349 . S
C2660 C2672 1.349 . S
C2661 C2659 1.327 . S
C2661 C2677 1.429 . S
C2661 H2683 0.950 . S
C2662 H2658 0.949 . S
C2662 C2670 1.574 . S
C2662 C2678 1.368 . S
H2663 C2671 0.950 . S
H2664 C2669 0.950 . S
H2665 C2670 0.949 . S
H2666 C2672 0.950 . S
H2667 C2673 0.950 . S
H2668 C2674 0.949 . S
C2669 H2664 0.950 . S
C2669 C2671 1.327 . S
C2669 C2675 1.429 . S
C2670 C2662 1.574 . S
C2670 H2665 0.949 . S
C2670 C2676 1.368 1_545 S
C2671 C2655 1.349 . S
C2671 H2663 0.950 . S
C2671 C2669 1.327 . S
C2672 C2660 1.349 . S
C2672 H2666 0.950 . S
C2672 C2673 1.327 . S
C2673 H2667 0.950 . S
C2673 C2672 1.327 . S
C2673 C2677 1.429 . S
C2674 C2657 1.574 . S
C2674 H2668 0.949 . S
C2674 C2678 1.368 1_565 S
C2675 C2656 1.429 . S
C2675 C2669 1.429 . S
C2675 C2676 1.523 . S
C2676 C2657 1.368 . S
C2676 C2670 1.368 1_565 S
C2676 C2675 1.523 . S
C2677 C2661 1.429 . S
C2677 C2673 1.429 . S
C2677 C2678 1.523 . S
C2678 C2662 1.368 . S
C2678 C2674 1.368 1_545 S
C2678 C2677 1.523 . S
H2679 C2654 0.950 . S
H2680 C2656 0.950 . S
H2681 C2657 0.949 . S
H2682 C2659 0.950 . S
H2683 C2661 0.950 . S
C2684 C2685 1.349 . S
C2684 C2686 1.327 . S
C2684 H2709 0.950 . S
C2685 C2684 1.349 . S
C2685 C2701 1.349 . S
C2686 C2684 1.327 . S
C2686 C2705 1.429 . S
C2686 H2710 0.950 . S
C2687 C2704 1.574 . S
C2687 C2706 1.368 . S
C2687 H2711 0.949 . S
H2688 C2692 0.949 . S
C2689 C2690 1.349 . S
C2689 C2691 1.327 . S
C2689 H2712 0.950 . S
C2690 C2689 1.349 . S
C2690 C2702 1.349 . S
C2691 C2689 1.327 . S
C2691 C2707 1.429 . S
C2691 H2713 0.950 . S
C2692 H2688 0.949 . S
C2692 C2700 1.574 . S
C2692 C2708 1.368 . S
H2693 C2701 0.950 . S
H2694 C2699 0.950 . S
H2695 C2700 0.949 . S
H2696 C2702 0.950 . S
H2697 C2703 0.950 . S
H2698 C2704 0.949 . S
C2699 H2694 0.950 . S
C2699 C2701 1.327 . S
C2699 C2705 1.429 . S
C2700 C2692 1.574 . S
C2700 H2695 0.949 . S
C2700 C2706 1.368 1_455 S
C2701 C2685 1.349 . S
C2701 H2693 0.950 . S
C2701 C2699 1.327 . S
C2702 C2690 1.349 . S
C2702 H2696 0.950 . S
C2702 C2703 1.327 . S
C2703 H2697 0.950 . S
C2703 C2702 1.327 . S
C2703 C2707 1.429 . S
C2704 C2687 1.574 . S
C2704 H2698 0.949 . S
C2704 C2708 1.368 1_655 S
C2705 C2686 1.429 . S
C2705 C2699 1.429 . S
C2705 C2706 1.523 . S
C2706 C2687 1.368 . S
C2706 C2700 1.368 1_655 S
C2706 C2705 1.523 . S
C2707 C2691 1.429 . S
C2707 C2703 1.429 . S
C2707 C2708 1.523 . S
C2708 C2692 1.368 . S
C2708 C2704 1.368 1_455 S
C2708 C2707 1.523 . S
H2709 C2684 0.950 . S
H2710 C2686 0.950 . S
H2711 C2687 0.949 . S
H2712 C2689 0.950 . S
H2713 C2691 0.950 . S
C2714 C2715 1.349 . S
C2714 C2716 1.327 . S
C2714 H2739 0.950 . S
C2715 C2714 1.349 . S
C2715 C2731 1.349 . S
C2716 C2714 1.327 . S
C2716 C2735 1.429 . S
C2716 H2740 0.950 . S
C2717 C2734 1.574 1_545 S
C2717 C2736 1.368 . S
C2717 H2741 0.949 . S
H2718 C2722 0.949 . S
C2719 C2720 1.349 . S
C2719 C2721 1.327 . S
C2719 H2742 0.950 . S
C2720 C2719 1.349 . S
C2720 C2732 1.349 . S
C2721 C2719 1.327 . S
C2721 C2737 1.429 . S
C2721 H2743 0.950 . S
C2722 H2718 0.949 . S
C2722 C2730 1.574 1_565 S
C2722 C2738 1.368 . S
H2723 C2731 0.950 . S
H2724 C2729 0.950 . S
H2725 C2730 0.949 . S
H2726 C2732 0.950 . S
H2727 C2733 0.950 . S
H2728 C2734 0.949 . S
C2729 H2724 0.950 . S
C2729 C2731 1.327 . S
C2729 C2735 1.429 . S
C2730 C2722 1.574 1_545 S
C2730 H2725 0.949 . S
C2730 C2736 1.368 . S
C2731 C2715 1.349 . S
C2731 H2723 0.950 . S
C2731 C2729 1.327 . S
C2732 C2720 1.349 . S
C2732 H2726 0.950 . S
C2732 C2733 1.327 . S
C2733 H2727 0.950 . S
C2733 C2732 1.327 . S
C2733 C2737 1.429 . S
C2734 C2717 1.574 1_565 S
C2734 H2728 0.949 . S
C2734 C2738 1.368 . S
C2735 C2716 1.429 . S
C2735 C2729 1.429 . S
C2735 C2736 1.523 . S
C2736 C2717 1.368 . S
C2736 C2730 1.368 . S
C2736 C2735 1.523 . S
C2737 C2721 1.429 . S
C2737 C2733 1.429 . S
C2737 C2738 1.523 . S
C2738 C2722 1.368 . S
C2738 C2734 1.368 . S
C2738 C2737 1.523 . S
H2739 C2714 0.950 . S
H2740 C2716 0.950 . S
H2741 C2717 0.949 . S
H2742 C2719 0.950 . S
H2743 C2721 0.950 . S
C2744 C2745 1.349 . S
C2744 C2746 1.327 . S
C2744 H2769 0.950 . S
C2745 C2744 1.349 . S
C2745 C2761 1.349 . S
C2746 C2744 1.327 . S
C2746 C2765 1.429 . S
C2746 H2770 0.950 . S
C2747 C2764 1.574 . S
C2747 C2766 1.368 1_455 S
C2747 H2771 0.949 . S
H2748 C2752 0.949 . S
C2749 C2750 1.349 . S
C2749 C2751 1.327 . S
C2749 H2772 0.950 . S
C2750 C2749 1.349 . S
C2750 C2762 1.349 . S
C2751 C2749 1.327 . S
C2751 C2767 1.429 . S
C2751 H2773 0.950 . S
C2752 H2748 0.949 . S
C2752 C2760 1.574 . S
C2752 C2768 1.368 1_655 S
H2753 C2761 0.950 . S
H2754 C2759 0.950 . S
H2755 C2760 0.949 . S
H2756 C2762 0.950 . S
H2757 C2763 0.950 . S
H2758 C2764 0.949 . S
C2759 H2754 0.950 . S
C2759 C2761 1.327 . S
C2759 C2765 1.429 . S
C2760 C2752 1.574 . S
C2760 H2755 0.949 . S
C2760 C2766 1.368 . S
C2761 C2745 1.349 . S
C2761 H2753 0.950 . S
C2761 C2759 1.327 . S
C2762 C2750 1.349 . S
C2762 H2756 0.950 . S
C2762 C2763 1.327 . S
C2763 H2757 0.950 . S
C2763 C2762 1.327 . S
C2763 C2767 1.429 . S
C2764 C2747 1.574 . S
C2764 H2758 0.949 . S
C2764 C2768 1.368 . S
C2765 C2746 1.429 . S
C2765 C2759 1.429 . S
C2765 C2766 1.523 . S
C2766 C2747 1.368 1_655 S
C2766 C2760 1.368 . S
C2766 C2765 1.523 . S
C2767 C2751 1.429 . S
C2767 C2763 1.429 . S
C2767 C2768 1.523 . S
C2768 C2752 1.368 1_455 S
C2768 C2764 1.368 . S
C2768 C2767 1.523 . S
H2769 C2744 0.950 . S
H2770 C2746 0.950 . S
H2771 C2747 0.949 . S
H2772 C2749 0.950 . S
H2773 C2751 0.950 . S
C2774 C2775 1.349 . S
C2774 C2776 1.327 . S
C2774 H2799 0.950 . S
C2775 C2774 1.349 . S
C2775 C2791 1.349 . S
C2776 C2774 1.327 . S
C2776 C2795 1.429 . S
C2776 H2800 0.950 . S
C2777 C2794 1.574 . S
C2777 C2796 1.368 1_565 S
C2777 H2801 0.949 . S
H2778 C2782 0.949 . S
C2779 C2780 1.349 . S
C2779 C2781 1.327 . S
C2779 H2802 0.950 . S
C2780 C2779 1.349 . S
C2780 C2792 1.349 . S
C2781 C2779 1.327 . S
C2781 C2797 1.429 . S
C2781 H2803 0.950 . S
C2782 H2778 0.949 . S
C2782 C2790 1.574 . S
C2782 C2798 1.368 1_545 S
H2783 C2791 0.950 . S
H2784 C2789 0.950 . S
H2785 C2790 0.949 . S
H2786 C2792 0.950 . S
H2787 C2793 0.950 . S
H2788 C2794 0.949 . S
C2789 H2784 0.950 . S
C2789 C2791 1.327 . S
C2789 C2795 1.429 . S
C2790 C2782 1.574 . S
C2790 H2785 0.949 . S
C2790 C2796 1.368 . S
C2791 C2775 1.349 . S
C2791 H2783 0.950 . S
C2791 C2789 1.327 . S
C2792 C2780 1.349 . S
C2792 H2786 0.950 . S
C2792 C2793 1.327 . S
C2793 H2787 0.950 . S
C2793 C2792 1.327 . S
C2793 C2797 1.429 . S
C2794 C2777 1.574 . S
C2794 H2788 0.949 . S
C2794 C2798 1.368 . S
C2795 C2776 1.429 . S
C2795 C2789 1.429 . S
C2795 C2796 1.523 . S
C2796 C2777 1.368 1_545 S
C2796 C2790 1.368 . S
C2796 C2795 1.523 . S
C2797 C2781 1.429 . S
C2797 C2793 1.429 . S
C2797 C2798 1.523 . S
C2798 C2782 1.368 1_565 S
C2798 C2794 1.368 . S
C2798 C2797 1.523 . S
H2799 C2774 0.950 . S
H2800 C2776 0.950 . S
H2801 C2777 0.949 . S
H2802 C2779 0.950 . S
H2803 C2781 0.950 . S
C2804 C2805 1.349 . S
C2804 C2806 1.327 . S
C2804 H2829 0.950 . S
C2805 C2804 1.349 . S
C2805 C2821 1.349 . S
C2806 C2804 1.327 . S
C2806 C2825 1.429 . S
C2806 H2830 0.950 . S
C2807 C2824 1.574 . S
C2807 C2826 1.368 . S
C2807 H2831 0.949 . S
H2808 C2812 0.949 . S
C2809 C2810 1.349 . S
C2809 C2811 1.327 . S
C2809 H2832 0.950 . S
C2810 C2809 1.349 . S
C2810 C2822 1.349 . S
C2811 C2809 1.327 . S
C2811 C2827 1.429 . S
C2811 H2833 0.950 . S
C2812 H2808 0.949 . S
C2812 C2820 1.574 . S
C2812 C2828 1.368 . S
H2813 C2821 0.950 . S
H2814 C2819 0.950 . S
H2815 C2820 0.949 . S
H2816 C2822 0.950 . S
H2817 C2823 0.950 . S
H2818 C2824 0.949 . S
C2819 H2814 0.950 . S
C2819 C2821 1.327 . S
C2819 C2825 1.429 . S
C2820 C2812 1.574 . S
C2820 H2815 0.949 . S
C2820 C2826 1.368 1_455 S
C2821 C2805 1.349 . S
C2821 H2813 0.950 . S
C2821 C2819 1.327 . S
C2822 C2810 1.349 . S
C2822 H2816 0.950 . S
C2822 C2823 1.327 . S
C2823 H2817 0.950 . S
C2823 C2822 1.327 . S
C2823 C2827 1.429 . S
C2824 C2807 1.574 . S
C2824 H2818 0.949 . S
C2824 C2828 1.368 1_655 S
C2825 C2806 1.429 . S
C2825 C2819 1.429 . S
C2825 C2826 1.523 . S
C2826 C2807 1.368 . S
C2826 C2820 1.368 1_655 S
C2826 C2825 1.523 . S
C2827 C2811 1.429 . S
C2827 C2823 1.429 . S
C2827 C2828 1.523 . S
C2828 C2812 1.368 . S
C2828 C2824 1.368 1_455 S
C2828 C2827 1.523 . S
H2829 C2804 0.950 . S
H2830 C2806 0.950 . S
H2831 C2807 0.949 . S
H2832 C2809 0.950 . S
H2833 C2811 0.950 . S
C2834 C2835 1.349 . S
C2834 C2836 1.327 . S
C2834 H2859 0.950 . S
C2835 C2834 1.349 . S
C2835 C2851 1.349 . S
C2836 C2834 1.327 . S
C2836 C2855 1.429 . S
C2836 H2860 0.950 . S
C2837 C2854 1.574 . S
C2837 C2856 1.368 1_545 S
C2837 H2861 0.949 . S
H2838 C2842 0.949 . S
C2839 C2840 1.349 . S
C2839 C2841 1.327 . S
C2839 H2862 0.950 . S
C2840 C2839 1.349 . S
C2840 C2852 1.349 . S
C2841 C2839 1.327 . S
C2841 C2857 1.429 . S
C2841 H2863 0.950 . S
C2842 H2838 0.949 . S
C2842 C2850 1.574 . S
C2842 C2858 1.368 1_565 S
H2843 C2851 0.950 . S
H2844 C2849 0.950 . S
H2845 C2850 0.949 . S
H2846 C2852 0.950 . S
H2847 C2853 0.950 . S
H2848 C2854 0.949 . S
C2849 H2844 0.950 . S
C2849 C2851 1.327 . S
C2849 C2855 1.429 . S
C2850 C2842 1.574 . S
C2850 H2845 0.949 . S
C2850 C2856 1.368 . S
C2851 C2835 1.349 . S
C2851 H2843 0.950 . S
C2851 C2849 1.327 . S
C2852 C2840 1.349 . S
C2852 H2846 0.950 . S
C2852 C2853 1.327 . S
C2853 H2847 0.950 . S
C2853 C2852 1.327 . S
C2853 C2857 1.429 . S
C2854 C2837 1.574 . S
C2854 H2848 0.949 . S
C2854 C2858 1.368 . S
C2855 C2836 1.429 . S
C2855 C2849 1.429 . S
C2855 C2856 1.523 . S
C2856 C2837 1.368 1_565 S
C2856 C2850 1.368 . S
C2856 C2855 1.523 . S
C2857 C2841 1.429 . S
C2857 C2853 1.429 . S
C2857 C2858 1.523 . S
C2858 C2842 1.368 1_545 S
C2858 C2854 1.368 . S
C2858 C2857 1.523 . S
H2859 C2834 0.950 . S
H2860 C2836 0.950 . S
H2861 C2837 0.949 . S
H2862 C2839 0.950 . S
H2863 C2841 0.950 . S
C2864 C2865 1.349 . S
C2864 C2866 1.327 . S
C2864 H2889 0.950 . S
C2865 C2864 1.349 . S
C2865 C2881 1.349 . S
C2866 C2864 1.327 . S
C2866 C2885 1.429 . S
C2866 H2890 0.950 . S
C2867 C2884 1.574 . S
C2867 C2886 1.368 . S
C2867 H2891 0.949 . S
H2868 C2872 0.949 . S
C2869 C2870 1.349 . S
C2869 C2871 1.327 . S
C2869 H2892 0.950 . S
C2870 C2869 1.349 . S
C2870 C2882 1.349 . S
C2871 C2869 1.327 . S
C2871 C2887 1.429 . S
C2871 H2893 0.950 . S
C2872 H2868 0.949 . S
C2872 C2880 1.574 . S
C2872 C2888 1.368 . S
H2873 C2881 0.950 . S
H2874 C2879 0.950 . S
H2875 C2880 0.949 . S
H2876 C2882 0.950 . S
H2877 C2883 0.950 . S
H2878 C2884 0.949 . S
C2879 H2874 0.950 . S
C2879 C2881 1.327 . S
C2879 C2885 1.429 . S
C2880 C2872 1.574 . S
C2880 H2875 0.949 . S
C2880 C2886 1.368 . S
C2881 C2865 1.349 . S
C2881 H2873 0.950 . S
C2881 C2879 1.327 . S
C2882 C2870 1.349 . S
C2882 H2876 0.950 . S
C2882 C2883 1.327 . S
C2883 H2877 0.950 . S
C2883 C2882 1.327 . S
C2883 C2887 1.429 . S
C2884 C2867 1.574 . S
C2884 H2878 0.949 . S
C2884 C2888 1.368 . S
C2885 C2866 1.429 . S
C2885 C2879 1.429 . S
C2885 C2886 1.523 . S
C2886 C2867 1.368 . S
C2886 C2880 1.368 . S
C2886 C2885 1.523 . S
C2887 C2871 1.429 . S
C2887 C2883 1.429 . S
C2887 C2888 1.523 . S
C2888 C2872 1.368 . S
C2888 C2884 1.368 . S
C2888 C2887 1.523 . S
H2889 C2864 0.950 . S
H2890 C2866 0.950 . S
H2891 C2867 0.949 . S
H2892 C2869 0.950 . S
H2893 C2871 0.950 . S
C2894 C2895 1.349 . S
C2894 C2896 1.327 . S
C2894 H2919 0.950 . S
C2895 C2894 1.349 . S
C2895 C2911 1.349 . S
C2896 C2894 1.327 . S
C2896 C2915 1.429 . S
C2896 H2920 0.950 . S
C2897 C2914 1.574 . S
C2897 C2916 1.368 . S
C2897 H2921 0.949 . S
H2898 C2902 0.949 . S
C2899 C2900 1.349 . S
C2899 C2901 1.327 . S
C2899 H2922 0.950 . S
C2900 C2899 1.349 . S
C2900 C2912 1.349 . S
C2901 C2899 1.327 . S
C2901 C2917 1.429 . S
C2901 H2923 0.950 . S
C2902 H2898 0.949 . S
C2902 C2910 1.574 . S
C2902 C2918 1.368 . S
H2903 C2911 0.950 . S
H2904 C2909 0.950 . S
H2905 C2910 0.949 . S
H2906 C2912 0.950 . S
H2907 C2913 0.950 . S
H2908 C2914 0.949 . S
C2909 H2904 0.950 . S
C2909 C2911 1.327 . S
C2909 C2915 1.429 . S
C2910 C2902 1.574 . S
C2910 H2905 0.949 . S
C2910 C2916 1.368 . S
C2911 C2895 1.349 . S
C2911 H2903 0.950 . S
C2911 C2909 1.327 . S
C2912 C2900 1.349 . S
C2912 H2906 0.950 . S
C2912 C2913 1.327 . S
C2913 H2907 0.950 . S
C2913 C2912 1.327 . S
C2913 C2917 1.429 . S
C2914 C2897 1.574 . S
C2914 H2908 0.949 . S
C2914 C2918 1.368 . S
C2915 C2896 1.429 . S
C2915 C2909 1.429 . S
C2915 C2916 1.523 . S
C2916 C2897 1.368 . S
C2916 C2910 1.368 . S
C2916 C2915 1.523 . S
C2917 C2901 1.429 . S
C2917 C2913 1.429 . S
C2917 C2918 1.523 . S
C2918 C2902 1.368 . S
C2918 C2914 1.368 . S
C2918 C2917 1.523 . S
H2919 C2894 0.950 . S
H2920 C2896 0.950 . S
H2921 C2897 0.949 . S
H2922 C2899 0.950 . S
H2923 C2901 0.950 . S
C2924 C2925 1.349 . S
C2924 C2926 1.327 . S
C2924 H2949 0.950 . S
C2925 C2924 1.349 . S
C2925 C2941 1.349 . S
C2926 C2924 1.327 . S
C2926 C2945 1.429 . S
C2926 H2950 0.950 . S
C2927 C2944 1.574 . S
C2927 C2946 1.368 . S
C2927 H2951 0.949 . S
H2928 C2932 0.949 . S
C2929 C2930 1.349 . S
C2929 C2931 1.327 . S
C2929 H2952 0.950 . S
C2930 C2929 1.349 . S
C2930 C2942 1.349 . S
C2931 C2929 1.327 . S
C2931 C2947 1.429 . S
C2931 H2953 0.950 . S
C2932 H2928 0.949 . S
C2932 C2940 1.574 . S
C2932 C2948 1.368 . S
H2933 C2941 0.950 . S
H2934 C2939 0.950 . S
H2935 C2940 0.949 . S
H2936 C2942 0.950 . S
H2937 C2943 0.950 . S
H2938 C2944 0.949 . S
C2939 H2934 0.950 . S
C2939 C2941 1.327 . S
C2939 C2945 1.429 . S
C2940 C2932 1.574 . S
C2940 H2935 0.949 . S
C2940 C2946 1.368 . S
C2941 C2925 1.349 . S
C2941 H2933 0.950 . S
C2941 C2939 1.327 . S
C2942 C2930 1.349 . S
C2942 H2936 0.950 . S
C2942 C2943 1.327 . S
C2943 H2937 0.950 . S
C2943 C2942 1.327 . S
C2943 C2947 1.429 . S
C2944 C2927 1.574 . S
C2944 H2938 0.949 . S
C2944 C2948 1.368 . S
C2945 C2926 1.429 . S
C2945 C2939 1.429 . S
C2945 C2946 1.523 . S
C2946 C2927 1.368 . S
C2946 C2940 1.368 . S
C2946 C2945 1.523 . S
C2947 C2931 1.429 . S
C2947 C2943 1.429 . S
C2947 C2948 1.523 . S
C2948 C2932 1.368 . S
C2948 C2944 1.368 . S
C2948 C2947 1.523 . S
H2949 C2924 0.950 . S
H2950 C2926 0.950 . S
H2951 C2927 0.949 . S
H2952 C2929 0.950 . S
H2953 C2931 0.950 . S
C2954 C2955 1.349 . S
C2954 C2956 1.327 . S
C2954 H2979 0.950 . S
C2955 C2954 1.349 . S
C2955 C2971 1.349 . S
C2956 C2954 1.327 . S
C2956 C2975 1.429 . S
C2956 H2980 0.950 . S
C2957 C2974 1.574 . S
C2957 C2976 1.368 . S
C2957 H2981 0.949 . S
H2958 C2962 0.949 . S
C2959 C2960 1.349 . S
C2959 C2961 1.327 . S
C2959 H2982 0.950 . S
C2960 C2959 1.349 . S
C2960 C2972 1.349 . S
C2961 C2959 1.327 . S
C2961 C2977 1.429 . S
C2961 H2983 0.950 . S
C2962 H2958 0.949 . S
C2962 C2970 1.574 . S
C2962 C2978 1.368 . S
H2963 C2971 0.950 . S
H2964 C2969 0.950 . S
H2965 C2970 0.949 . S
H2966 C2972 0.950 . S
H2967 C2973 0.950 . S
H2968 C2974 0.949 . S
C2969 H2964 0.950 . S
C2969 C2971 1.327 . S
C2969 C2975 1.429 . S
C2970 C2962 1.574 . S
C2970 H2965 0.949 . S
C2970 C2976 1.368 . S
C2971 C2955 1.349 . S
C2971 H2963 0.950 . S
C2971 C2969 1.327 . S
C2972 C2960 1.349 . S
C2972 H2966 0.950 . S
C2972 C2973 1.327 . S
C2973 H2967 0.950 . S
C2973 C2972 1.327 . S
C2973 C2977 1.429 . S
C2974 C2957 1.574 . S
C2974 H2968 0.949 . S
C2974 C2978 1.368 . S
C2975 C2956 1.429 . S
C2975 C2969 1.429 . S
C2975 C2976 1.523 . S
C2976 C2957 1.368 . S
C2976 C2970 1.368 . S
C2976 C2975 1.523 . S
C2977 C2961 1.429 . S
C2977 C2973 1.429 . S
C2977 C2978 1.523 . S
C2978 C2962 1.368 . S
C2978 C2974 1.368 . S
C2978 C2977 1.523 . S
H2979 C2954 0.950 . S
H2980 C2956 0.950 . S
H2981 C2957 0.949 . S
H2982 C2959 0.950 . S
H2983 C2961 0.950 . S
C2984 C2985 1.349 . S
C2984 C2986 1.327 . S
C2984 H3009 0.950 . S
C2985 C2984 1.349 . S
C2985 C3001 1.349 . S
C2986 C2984 1.327 . S
C2986 C3005 1.429 . S
C2986 H3010 0.950 . S
C2987 C3004 1.574 . S
C2987 C3006 1.368 . S
C2987 H3011 0.949 . S
H2988 C2992 0.949 . S
C2989 C2990 1.349 . S
C2989 C2991 1.327 . S
C2989 H3012 0.950 . S
C2990 C2989 1.349 . S
C2990 C3002 1.349 . S
C2991 C2989 1.327 . S
C2991 C3007 1.429 . S
C2991 H3013 0.950 . S
C2992 H2988 0.949 . S
C2992 C3000 1.574 . S
C2992 C3008 1.368 . S
H2993 C3001 0.950 . S
H2994 C2999 0.950 . S
H2995 C3000 0.949 . S
H2996 C3002 0.950 . S
H2997 C3003 0.950 . S
H2998 C3004 0.949 . S
C2999 H2994 0.950 . S
C2999 C3001 1.327 . S
C2999 C3005 1.429 . S
C3000 C2992 1.574 . S
C3000 H2995 0.949 . S
C3000 C3006 1.368 . S
C3001 C2985 1.349 . S
C3001 H2993 0.950 . S
C3001 C2999 1.327 . S
C3002 C2990 1.349 . S
C3002 H2996 0.950 . S
C3002 C3003 1.327 . S
C3003 H2997 0.950 . S
C3003 C3002 1.327 . S
C3003 C3007 1.429 . S
C3004 C2987 1.574 . S
C3004 H2998 0.949 . S
C3004 C3008 1.368 . S
C3005 C2986 1.429 . S
C3005 C2999 1.429 . S
C3005 C3006 1.523 . S
C3006 C2987 1.368 . S
C3006 C3000 1.368 . S
C3006 C3005 1.523 . S
C3007 C2991 1.429 . S
C3007 C3003 1.429 . S
C3007 C3008 1.523 . S
C3008 C2992 1.368 . S
C3008 C3004 1.368 . S
C3008 C3007 1.523 . S
H3009 C2984 0.950 . S
H3010 C2986 0.950 . S
H3011 C2987 0.949 . S
H3012 C2989 0.950 . S
H3013 C2991 0.950 . S
C3014 C3015 1.349 . S
C3014 C3016 1.327 . S
C3014 H3039 0.950 . S
C3015 C3014 1.349 . S
C3015 C3031 1.349 . S
C3016 C3014 1.327 . S
C3016 C3035 1.429 . S
C3016 H3040 0.950 . S
C3017 C3034 1.574 . S
C3017 C3036 1.368 . S
C3017 H3041 0.949 . S
H3018 C3022 0.949 . S
C3019 C3020 1.349 . S
C3019 C3021 1.327 . S
C3019 H3042 0.950 . S
C3020 C3019 1.349 . S
C3020 C3032 1.349 . S
C3021 C3019 1.327 . S
C3021 C3037 1.429 . S
C3021 H3043 0.950 . S
C3022 H3018 0.949 . S
C3022 C3030 1.574 . S
C3022 C3038 1.368 . S
H3023 C3031 0.950 . S
H3024 C3029 0.950 . S
H3025 C3030 0.949 . S
H3026 C3032 0.950 . S
H3027 C3033 0.950 . S
H3028 C3034 0.949 . S
C3029 H3024 0.950 . S
C3029 C3031 1.327 . S
C3029 C3035 1.429 . S
C3030 C3022 1.574 . S
C3030 H3025 0.949 . S
C3030 C3036 1.368 . S
C3031 C3015 1.349 . S
C3031 H3023 0.950 . S
C3031 C3029 1.327 . S
C3032 C3020 1.349 . S
C3032 H3026 0.950 . S
C3032 C3033 1.327 . S
C3033 H3027 0.950 . S
C3033 C3032 1.327 . S
C3033 C3037 1.429 . S
C3034 C3017 1.574 . S
C3034 H3028 0.949 . S
C3034 C3038 1.368 . S
C3035 C3016 1.429 . S
C3035 C3029 1.429 . S
C3035 C3036 1.523 . S
C3036 C3017 1.368 . S
C3036 C3030 1.368 . S
C3036 C3035 1.523 . S
C3037 C3021 1.429 . S
C3037 C3033 1.429 . S
C3037 C3038 1.523 . S
C3038 C3022 1.368 . S
C3038 C3034 1.368 . S
C3038 C3037 1.523 . S
H3039 C3014 0.950 . S
H3040 C3016 0.950 . S
H3041 C3017 0.949 . S
H3042 C3019 0.950 . S
H3043 C3021 0.950 . S
C3044 C3045 1.349 . S
C3044 C3046 1.327 . S
C3044 H3069 0.950 . S
C3045 C3044 1.349 . S
C3045 C3061 1.349 . S
C3046 C3044 1.327 . S
C3046 C3065 1.429 . S
C3046 H3070 0.950 . S
C3047 C3064 1.574 . S
C3047 C3066 1.368 . S
C3047 H3071 0.949 . S
H3048 C3052 0.949 . S
C3049 C3050 1.349 . S
C3049 C3051 1.327 . S
C3049 H3072 0.950 . S
C3050 C3049 1.349 . S
C3050 C3062 1.349 . S
C3051 C3049 1.327 . S
C3051 C3067 1.429 . S
C3051 H3073 0.950 . S
C3052 H3048 0.949 . S
C3052 C3060 1.574 . S
C3052 C3068 1.368 . S
H3053 C3061 0.950 . S
H3054 C3059 0.950 . S
H3055 C3060 0.949 . S
H3056 C3062 0.950 . S
H3057 C3063 0.950 . S
H3058 C3064 0.949 . S
C3059 H3054 0.950 . S
C3059 C3061 1.327 . S
C3059 C3065 1.429 . S
C3060 C3052 1.574 . S
C3060 H3055 0.949 . S
C3060 C3066 1.368 . S
C3061 C3045 1.349 . S
C3061 H3053 0.950 . S
C3061 C3059 1.327 . S
C3062 C3050 1.349 . S
C3062 H3056 0.950 . S
C3062 C3063 1.327 . S
C3063 H3057 0.950 . S
C3063 C3062 1.327 . S
C3063 C3067 1.429 . S
C3064 C3047 1.574 . S
C3064 H3058 0.949 . S
C3064 C3068 1.368 . S
C3065 C3046 1.429 . S
C3065 C3059 1.429 . S
C3065 C3066 1.523 . S
C3066 C3047 1.368 . S
C3066 C3060 1.368 . S
C3066 C3065 1.523 . S
C3067 C3051 1.429 . S
C3067 C3063 1.429 . S
C3067 C3068 1.523 . S
C3068 C3052 1.368 . S
C3068 C3064 1.368 . S
C3068 C3067 1.523 . S
H3069 C3044 0.950 . S
H3070 C3046 0.950 . S
H3071 C3047 0.949 . S
H3072 C3049 0.950 . S
H3073 C3051 0.950 . S
C3074 C3075 1.349 . S
C3074 C3076 1.327 . S
C3074 H3099 0.950 . S
C3075 C3074 1.349 . S
C3075 C3091 1.349 . S
C3076 C3074 1.327 . S
C3076 C3095 1.429 . S
C3076 H3100 0.950 . S
C3077 C3094 1.574 . S
C3077 C3096 1.368 . S
C3077 H3101 0.949 . S
H3078 C3082 0.949 . S
C3079 C3080 1.349 . S
C3079 C3081 1.327 . S
C3079 H3102 0.950 . S
C3080 C3079 1.349 . S
C3080 C3092 1.349 . S
C3081 C3079 1.327 . S
C3081 C3097 1.429 . S
C3081 H3103 0.950 . S
C3082 H3078 0.949 . S
C3082 C3090 1.574 . S
C3082 C3098 1.368 . S
H3083 C3091 0.950 . S
H3084 C3089 0.950 . S
H3085 C3090 0.949 . S
H3086 C3092 0.950 . S
H3087 C3093 0.950 . S
H3088 C3094 0.949 . S
C3089 H3084 0.950 . S
C3089 C3091 1.327 . S
C3089 C3095 1.429 . S
C3090 C3082 1.574 . S
C3090 H3085 0.949 . S
C3090 C3096 1.368 . S
C3091 C3075 1.349 . S
C3091 H3083 0.950 . S
C3091 C3089 1.327 . S
C3092 C3080 1.349 . S
C3092 H3086 0.950 . S
C3092 C3093 1.327 . S
C3093 H3087 0.950 . S
C3093 C3092 1.327 . S
C3093 C3097 1.429 . S
C3094 C3077 1.574 . S
C3094 H3088 0.949 . S
C3094 C3098 1.368 . S
C3095 C3076 1.429 . S
C3095 C3089 1.429 . S
C3095 C3096 1.523 . S
C3096 C3077 1.368 . S
C3096 C3090 1.368 . S
C3096 C3095 1.523 . S
C3097 C3081 1.429 . S
C3097 C3093 1.429 . S
C3097 C3098 1.523 . S
C3098 C3082 1.368 . S
C3098 C3094 1.368 . S
C3098 C3097 1.523 . S
H3099 C3074 0.950 . S
H3100 C3076 0.950 . S
H3101 C3077 0.949 . S
H3102 C3079 0.950 . S
H3103 C3081 0.950 . S
C3104 C3105 1.349 . S
C3104 C3106 1.327 . S
C3104 H3129 0.950 . S
C3105 C3104 1.349 . S
C3105 C3121 1.349 . S
C3106 C3104 1.327 . S
C3106 C3125 1.429 . S
C3106 H3130 0.950 . S
C3107 C3124 1.574 1_556 S
C3107 C3126 1.368 . S
C3107 H3131 0.949 . S
H3108 C3112 0.949 . S
C3109 C3110 1.349 . S
C3109 C3111 1.327 . S
C3109 H3132 0.950 . S
C3110 C3109 1.349 . S
C3110 C3122 1.349 . S
C3111 C3109 1.327 . S
C3111 C3127 1.429 . S
C3111 H3133 0.950 . S
C3112 H3108 0.949 . S
C3112 C3120 1.574 1_554 S
C3112 C3128 1.368 . S
H3113 C3121 0.950 . S
H3114 C3119 0.950 . S
H3115 C3120 0.949 . S
H3116 C3122 0.950 . S
H3117 C3123 0.950 . S
H3118 C3124 0.949 . S
C3119 H3114 0.950 . S
C3119 C3121 1.327 . S
C3119 C3125 1.429 . S
C3120 C3112 1.574 1_556 S
C3120 H3115 0.949 . S
C3120 C3126 1.368 . S
C3121 C3105 1.349 . S
C3121 H3113 0.950 . S
C3121 C3119 1.327 . S
C3122 C3110 1.349 . S
C3122 H3116 0.950 . S
C3122 C3123 1.327 . S
C3123 H3117 0.950 . S
C3123 C3122 1.327 . S
C3123 C3127 1.429 . S
C3124 C3107 1.574 1_554 S
C3124 H3118 0.949 . S
C3124 C3128 1.368 . S
C3125 C3106 1.429 . S
C3125 C3119 1.429 . S
C3125 C3126 1.523 . S
C3126 C3107 1.368 . S
C3126 C3120 1.368 . S
C3126 C3125 1.523 . S
C3127 C3111 1.429 . S
C3127 C3123 1.429 . S
C3127 C3128 1.523 . S
C3128 C3112 1.368 . S
C3128 C3124 1.368 . S
C3128 C3127 1.523 . S
H3129 C3104 0.950 . S
H3130 C3106 0.950 . S
H3131 C3107 0.949 . S
H3132 C3109 0.950 . S
H3133 C3111 0.950 . S
C3134 C3135 1.349 . S
C3134 C3136 1.327 . S
C3134 H3159 0.950 . S
C3135 C3134 1.349 . S
C3135 C3151 1.349 . S
C3136 C3134 1.327 . S
C3136 C3155 1.429 . S
C3136 H3160 0.950 . S
C3137 C3154 1.574 1_554 S
C3137 C3156 1.368 . S
C3137 H3161 0.949 . S
H3138 C3142 0.949 . S
C3139 C3140 1.349 . S
C3139 C3141 1.327 . S
C3139 H3162 0.950 . S
C3140 C3139 1.349 . S
C3140 C3152 1.349 . S
C3141 C3139 1.327 . S
C3141 C3157 1.429 . S
C3141 H3163 0.950 . S
C3142 H3138 0.949 . S
C3142 C3150 1.574 1_556 S
C3142 C3158 1.368 . S
H3143 C3151 0.950 . S
H3144 C3149 0.950 . S
H3145 C3150 0.949 . S
H3146 C3152 0.950 . S
H3147 C3153 0.950 . S
H3148 C3154 0.949 . S
C3149 H3144 0.950 . S
C3149 C3151 1.327 . S
C3149 C3155 1.429 . S
C3150 C3142 1.574 1_554 S
C3150 H3145 0.949 . S
C3150 C3156 1.368 . S
C3151 C3135 1.349 . S
C3151 H3143 0.950 . S
C3151 C3149 1.327 . S
C3152 C3140 1.349 . S
C3152 H3146 0.950 . S
C3152 C3153 1.327 . S
C3153 H3147 0.950 . S
C3153 C3152 1.327 . S
C3153 C3157 1.429 . S
C3154 C3137 1.574 1_556 S
C3154 H3148 0.949 . S
C3154 C3158 1.368 . S
C3155 C3136 1.429 . S
C3155 C3149 1.429 . S
C3155 C3156 1.523 . S
C3156 C3137 1.368 . S
C3156 C3150 1.368 . S
C3156 C3155 1.523 . S
C3157 C3141 1.429 . S
C3157 C3153 1.429 . S
C3157 C3158 1.523 . S
C3158 C3142 1.368 . S
C3158 C3154 1.368 . S
C3158 C3157 1.523 . S
H3159 C3134 0.950 . S
H3160 C3136 0.950 . S
H3161 C3137 0.949 . S
H3162 C3139 0.950 . S
H3163 C3141 0.950 . S
C3164 C3165 1.349 . S
C3164 C3166 1.327 . S
C3164 H3189 0.950 . S
C3165 C3164 1.349 . S
C3165 C3181 1.349 . S
C3166 C3164 1.327 . S
C3166 C3185 1.429 . S
C3166 H3190 0.950 . S
C3167 C3184 1.574 1_556 S
C3167 C3186 1.368 . S
C3167 H3191 0.949 . S
H3168 C3172 0.949 . S
C3169 C3170 1.349 . S
C3169 C3171 1.327 . S
C3169 H3192 0.950 . S
C3170 C3169 1.349 . S
C3170 C3182 1.349 . S
C3171 C3169 1.327 . S
C3171 C3187 1.429 . S
C3171 H3193 0.950 . S
C3172 H3168 0.949 . S
C3172 C3180 1.574 1_554 S
C3172 C3188 1.368 . S
H3173 C3181 0.950 . S
H3174 C3179 0.950 . S
H3175 C3180 0.949 . S
H3176 C3182 0.950 . S
H3177 C3183 0.950 . S
H3178 C3184 0.949 . S
C3179 H3174 0.950 . S
C3179 C3181 1.327 . S
C3179 C3185 1.429 . S
C3180 C3172 1.574 1_556 S
C3180 H3175 0.949 . S
C3180 C3186 1.368 . S
C3181 C3165 1.349 . S
C3181 H3173 0.950 . S
C3181 C3179 1.327 . S
C3182 C3170 1.349 . S
C3182 H3176 0.950 . S
C3182 C3183 1.327 . S
C3183 H3177 0.950 . S
C3183 C3182 1.327 . S
C3183 C3187 1.429 . S
C3184 C3167 1.574 1_554 S
C3184 H3178 0.949 . S
C3184 C3188 1.368 . S
C3185 C3166 1.429 . S
C3185 C3179 1.429 . S
C3185 C3186 1.523 . S
C3186 C3167 1.368 . S
C3186 C3180 1.368 . S
C3186 C3185 1.523 . S
C3187 C3171 1.429 . S
C3187 C3183 1.429 . S
C3187 C3188 1.523 . S
C3188 C3172 1.368 . S
C3188 C3184 1.368 . S
C3188 C3187 1.523 . S
H3189 C3164 0.950 . S
H3190 C3166 0.950 . S
H3191 C3167 0.949 . S
H3192 C3169 0.950 . S
H3193 C3171 0.950 . S
C3194 C3195 1.349 . S
C3194 C3196 1.327 . S
C3194 H3219 0.950 . S
C3195 C3194 1.349 . S
C3195 C3211 1.349 . S
C3196 C3194 1.327 . S
C3196 C3215 1.429 . S
C3196 H3220 0.950 . S
C3197 C3214 1.574 1_556 S
C3197 C3216 1.368 . S
C3197 H3221 0.949 . S
H3198 C3202 0.949 . S
C3199 C3200 1.349 . S
C3199 C3201 1.327 . S
C3199 H3222 0.950 . S
C3200 C3199 1.349 . S
C3200 C3212 1.349 . S
C3201 C3199 1.327 . S
C3201 C3217 1.429 . S
C3201 H3223 0.950 . S
C3202 H3198 0.949 . S
C3202 C3210 1.574 1_554 S
C3202 C3218 1.368 . S
H3203 C3211 0.950 . S
H3204 C3209 0.950 . S
H3205 C3210 0.949 . S
H3206 C3212 0.950 . S
H3207 C3213 0.950 . S
H3208 C3214 0.949 . S
C3209 H3204 0.950 . S
C3209 C3211 1.327 . S
C3209 C3215 1.429 . S
C3210 C3202 1.574 1_556 S
C3210 H3205 0.949 . S
C3210 C3216 1.368 . S
C3211 C3195 1.349 . S
C3211 H3203 0.950 . S
C3211 C3209 1.327 . S
C3212 C3200 1.349 . S
C3212 H3206 0.950 . S
C3212 C3213 1.327 . S
C3213 H3207 0.950 . S
C3213 C3212 1.327 . S
C3213 C3217 1.429 . S
C3214 C3197 1.574 1_554 S
C3214 H3208 0.949 . S
C3214 C3218 1.368 . S
C3215 C3196 1.429 . S
C3215 C3209 1.429 . S
C3215 C3216 1.523 . S
C3216 C3197 1.368 . S
C3216 C3210 1.368 . S
C3216 C3215 1.523 . S
C3217 C3201 1.429 . S
C3217 C3213 1.429 . S
C3217 C3218 1.523 . S
C3218 C3202 1.368 . S
C3218 C3214 1.368 . S
C3218 C3217 1.523 . S
H3219 C3194 0.950 . S
H3220 C3196 0.950 . S
H3221 C3197 0.949 . S
H3222 C3199 0.950 . S
H3223 C3201 0.950 . S
C3224 C3225 1.349 . S
C3224 C3226 1.327 . S
C3224 H3249 0.950 . S
C3225 C3224 1.349 . S
C3225 C3241 1.349 . S
C3226 C3224 1.327 . S
C3226 C3245 1.429 . S
C3226 H3250 0.950 . S
C3227 C3244 1.574 . S
C3227 C3246 1.368 . S
C3227 H3251 0.949 . S
H3228 C3232 0.949 . S
C3229 C3230 1.349 . S
C3229 C3231 1.327 . S
C3229 H3252 0.950 . S
C3230 C3229 1.349 . S
C3230 C3242 1.349 . S
C3231 C3229 1.327 . S
C3231 C3247 1.429 . S
C3231 H3253 0.950 . S
C3232 H3228 0.949 . S
C3232 C3240 1.574 . S
C3232 C3248 1.368 . S
H3233 C3241 0.950 . S
H3234 C3239 0.950 . S
H3235 C3240 0.949 . S
H3236 C3242 0.950 . S
H3237 C3243 0.950 . S
H3238 C3244 0.949 . S
C3239 H3234 0.950 . S
C3239 C3241 1.327 . S
C3239 C3245 1.429 . S
C3240 C3232 1.574 . S
C3240 H3235 0.949 . S
C3240 C3246 1.368 . S
C3241 C3225 1.349 . S
C3241 H3233 0.950 . S
C3241 C3239 1.327 . S
C3242 C3230 1.349 . S
C3242 H3236 0.950 . S
C3242 C3243 1.327 . S
C3243 H3237 0.950 . S
C3243 C3242 1.327 . S
C3243 C3247 1.429 . S
C3244 C3227 1.574 . S
C3244 H3238 0.949 . S
C3244 C3248 1.368 . S
C3245 C3226 1.429 . S
C3245 C3239 1.429 . S
C3245 C3246 1.523 . S
C3246 C3227 1.368 . S
C3246 C3240 1.368 . S
C3246 C3245 1.523 . S
C3247 C3231 1.429 . S
C3247 C3243 1.429 . S
C3247 C3248 1.523 . S
C3248 C3232 1.368 . S
C3248 C3244 1.368 . S
C3248 C3247 1.523 . S
H3249 C3224 0.950 . S
H3250 C3226 0.950 . S
H3251 C3227 0.949 . S
H3252 C3229 0.950 . S
H3253 C3231 0.950 . S
C3254 C3255 1.349 . S
C3254 C3256 1.327 . S
C3254 H3279 0.950 . S
C3255 C3254 1.349 . S
C3255 C3271 1.349 . S
C3256 C3254 1.327 . S
C3256 C3275 1.429 . S
C3256 H3280 0.950 . S
C3257 C3274 1.574 . S
C3257 C3276 1.368 . S
C3257 H3281 0.949 . S
H3258 C3262 0.949 . S
C3259 C3260 1.349 . S
C3259 C3261 1.327 . S
C3259 H3282 0.950 . S
C3260 C3259 1.349 . S
C3260 C3272 1.349 . S
C3261 C3259 1.327 . S
C3261 C3277 1.429 . S
C3261 H3283 0.950 . S
C3262 H3258 0.949 . S
C3262 C3270 1.574 . S
C3262 C3278 1.368 . S
H3263 C3271 0.950 . S
H3264 C3269 0.950 . S
H3265 C3270 0.949 . S
H3266 C3272 0.950 . S
H3267 C3273 0.950 . S
H3268 C3274 0.949 . S
C3269 H3264 0.950 . S
C3269 C3271 1.327 . S
C3269 C3275 1.429 . S
C3270 C3262 1.574 . S
C3270 H3265 0.949 . S
C3270 C3276 1.368 . S
C3271 C3255 1.349 . S
C3271 H3263 0.950 . S
C3271 C3269 1.327 . S
C3272 C3260 1.349 . S
C3272 H3266 0.950 . S
C3272 C3273 1.327 . S
C3273 H3267 0.950 . S
C3273 C3272 1.327 . S
C3273 C3277 1.429 . S
C3274 C3257 1.574 . S
C3274 H3268 0.949 . S
C3274 C3278 1.368 . S
C3275 C3256 1.429 . S
C3275 C3269 1.429 . S
C3275 C3276 1.523 . S
C3276 C3257 1.368 . S
C3276 C3270 1.368 . S
C3276 C3275 1.523 . S
C3277 C3261 1.429 . S
C3277 C3273 1.429 . S
C3277 C3278 1.523 . S
C3278 C3262 1.368 . S
C3278 C3274 1.368 . S
C3278 C3277 1.523 . S
H3279 C3254 0.950 . S
H3280 C3256 0.950 . S
H3281 C3257 0.949 . S
H3282 C3259 0.950 . S
H3283 C3261 0.950 . S
C3284 C3285 1.349 . S
C3284 C3286 1.327 . S
C3284 H3309 0.950 . S
C3285 C3284 1.349 . S
C3285 C3301 1.349 . S
C3286 C3284 1.327 . S
C3286 C3305 1.429 . S
C3286 H3310 0.950 . S
C3287 C3304 1.574 . S
C3287 C3306 1.368 . S
C3287 H3311 0.949 . S
H3288 C3292 0.949 . S
C3289 C3290 1.349 . S
C3289 C3291 1.327 . S
C3289 H3312 0.950 . S
C3290 C3289 1.349 . S
C3290 C3302 1.349 . S
C3291 C3289 1.327 . S
C3291 C3307 1.429 . S
C3291 H3313 0.950 . S
C3292 H3288 0.949 . S
C3292 C3300 1.574 . S
C3292 C3308 1.368 . S
H3293 C3301 0.950 . S
H3294 C3299 0.950 . S
H3295 C3300 0.949 . S
H3296 C3302 0.950 . S
H3297 C3303 0.950 . S
H3298 C3304 0.949 . S
C3299 H3294 0.950 . S
C3299 C3301 1.327 . S
C3299 C3305 1.429 . S
C3300 C3292 1.574 . S
C3300 H3295 0.949 . S
C3300 C3306 1.368 . S
C3301 C3285 1.349 . S
C3301 H3293 0.950 . S
C3301 C3299 1.327 . S
C3302 C3290 1.349 . S
C3302 H3296 0.950 . S
C3302 C3303 1.327 . S
C3303 H3297 0.950 . S
C3303 C3302 1.327 . S
C3303 C3307 1.429 . S
C3304 C3287 1.574 . S
C3304 H3298 0.949 . S
C3304 C3308 1.368 . S
C3305 C3286 1.429 . S
C3305 C3299 1.429 . S
C3305 C3306 1.523 . S
C3306 C3287 1.368 . S
C3306 C3300 1.368 . S
C3306 C3305 1.523 . S
C3307 C3291 1.429 . S
C3307 C3303 1.429 . S
C3307 C3308 1.523 . S
C3308 C3292 1.368 . S
C3308 C3304 1.368 . S
C3308 C3307 1.523 . S
H3309 C3284 0.950 . S
H3310 C3286 0.950 . S
H3311 C3287 0.949 . S
H3312 C3289 0.950 . S
H3313 C3291 0.950 . S
C3314 C3315 1.349 . S
C3314 C3316 1.327 . S
C3314 H3339 0.950 . S
C3315 C3314 1.349 . S
C3315 C3331 1.349 . S
C3316 C3314 1.327 . S
C3316 C3335 1.429 . S
C3316 H3340 0.950 . S
C3317 C3334 1.574 . S
C3317 C3336 1.368 . S
C3317 H3341 0.949 . S
H3318 C3322 0.949 . S
C3319 C3320 1.349 . S
C3319 C3321 1.327 . S
C3319 H3342 0.950 . S
C3320 C3319 1.349 . S
C3320 C3332 1.349 . S
C3321 C3319 1.327 . S
C3321 C3337 1.429 . S
C3321 H3343 0.950 . S
C3322 H3318 0.949 . S
C3322 C3330 1.574 . S
C3322 C3338 1.368 . S
H3323 C3331 0.950 . S
H3324 C3329 0.950 . S
H3325 C3330 0.949 . S
H3326 C3332 0.950 . S
H3327 C3333 0.950 . S
H3328 C3334 0.949 . S
C3329 H3324 0.950 . S
C3329 C3331 1.327 . S
C3329 C3335 1.429 . S
C3330 C3322 1.574 . S
C3330 H3325 0.949 . S
C3330 C3336 1.368 . S
C3331 C3315 1.349 . S
C3331 H3323 0.950 . S
C3331 C3329 1.327 . S
C3332 C3320 1.349 . S
C3332 H3326 0.950 . S
C3332 C3333 1.327 . S
C3333 H3327 0.950 . S
C3333 C3332 1.327 . S
C3333 C3337 1.429 . S
C3334 C3317 1.574 . S
C3334 H3328 0.949 . S
C3334 C3338 1.368 . S
C3335 C3316 1.429 . S
C3335 C3329 1.429 . S
C3335 C3336 1.523 . S
C3336 C3317 1.368 . S
C3336 C3330 1.368 . S
C3336 C3335 1.523 . S
C3337 C3321 1.429 . S
C3337 C3333 1.429 . S
C3337 C3338 1.523 . S
C3338 C3322 1.368 . S
C3338 C3334 1.368 . S
C3338 C3337 1.523 . S
H3339 C3314 0.950 . S
H3340 C3316 0.950 . S
H3341 C3317 0.949 . S
H3342 C3319 0.950 . S
H3343 C3321 0.950 . S
C3344 C3345 1.349 . S
C3344 C3346 1.327 . S
C3344 H3369 0.950 . S
C3345 C3344 1.349 . S
C3345 C3361 1.349 . S
C3346 C3344 1.327 . S
C3346 C3365 1.429 . S
C3346 H3370 0.950 . S
C3347 C3364 1.574 . S
C3347 C3366 1.368 . S
C3347 H3371 0.949 . S
H3348 C3352 0.949 . S
C3349 C3350 1.349 . S
C3349 C3351 1.327 . S
C3349 H3372 0.950 . S
C3350 C3349 1.349 . S
C3350 C3362 1.349 . S
C3351 C3349 1.327 . S
C3351 C3367 1.429 . S
C3351 H3373 0.950 . S
C3352 H3348 0.949 . S
C3352 C3360 1.574 . S
C3352 C3368 1.368 . S
H3353 C3361 0.950 . S
H3354 C3359 0.950 . S
H3355 C3360 0.949 . S
H3356 C3362 0.950 . S
H3357 C3363 0.950 . S
H3358 C3364 0.949 . S
C3359 H3354 0.950 . S
C3359 C3361 1.327 . S
C3359 C3365 1.429 . S
C3360 C3352 1.574 . S
C3360 H3355 0.949 . S
C3360 C3366 1.368 . S
C3361 C3345 1.349 . S
C3361 H3353 0.950 . S
C3361 C3359 1.327 . S
C3362 C3350 1.349 . S
C3362 H3356 0.950 . S
C3362 C3363 1.327 . S
C3363 H3357 0.950 . S
C3363 C3362 1.327 . S
C3363 C3367 1.429 . S
C3364 C3347 1.574 . S
C3364 H3358 0.949 . S
C3364 C3368 1.368 . S
C3365 C3346 1.429 . S
C3365 C3359 1.429 . S
C3365 C3366 1.523 . S
C3366 C3347 1.368 . S
C3366 C3360 1.368 . S
C3366 C3365 1.523 . S
C3367 C3351 1.429 . S
C3367 C3363 1.429 . S
C3367 C3368 1.523 . S
C3368 C3352 1.368 . S
C3368 C3364 1.368 . S
C3368 C3367 1.523 . S
H3369 C3344 0.950 . S
H3370 C3346 0.950 . S
H3371 C3347 0.949 . S
H3372 C3349 0.950 . S
H3373 C3351 0.950 . S
C3374 C3375 1.349 . S
C3374 C3376 1.327 . S
C3374 H3399 0.950 . S
C3375 C3374 1.349 . S
C3375 C3391 1.349 . S
C3376 C3374 1.327 . S
C3376 C3395 1.429 . S
C3376 H3400 0.950 . S
C3377 C3394 1.574 . S
C3377 C3396 1.368 . S
C3377 H3401 0.949 . S
H3378 C3382 0.949 . S
C3379 C3380 1.349 . S
C3379 C3381 1.327 . S
C3379 H3402 0.950 . S
C3380 C3379 1.349 . S
C3380 C3392 1.349 . S
C3381 C3379 1.327 . S
C3381 C3397 1.429 . S
C3381 H3403 0.950 . S
C3382 H3378 0.949 . S
C3382 C3390 1.574 . S
C3382 C3398 1.368 . S
H3383 C3391 0.950 . S
H3384 C3389 0.950 . S
H3385 C3390 0.949 . S
H3386 C3392 0.950 . S
H3387 C3393 0.950 . S
H3388 C3394 0.949 . S
C3389 H3384 0.950 . S
C3389 C3391 1.327 . S
C3389 C3395 1.429 . S
C3390 C3382 1.574 . S
C3390 H3385 0.949 . S
C3390 C3396 1.368 . S
C3391 C3375 1.349 . S
C3391 H3383 0.950 . S
C3391 C3389 1.327 . S
C3392 C3380 1.349 . S
C3392 H3386 0.950 . S
C3392 C3393 1.327 . S
C3393 H3387 0.950 . S
C3393 C3392 1.327 . S
C3393 C3397 1.429 . S
C3394 C3377 1.574 . S
C3394 H3388 0.949 . S
C3394 C3398 1.368 . S
C3395 C3376 1.429 . S
C3395 C3389 1.429 . S
C3395 C3396 1.523 . S
C3396 C3377 1.368 . S
C3396 C3390 1.368 . S
C3396 C3395 1.523 . S
C3397 C3381 1.429 . S
C3397 C3393 1.429 . S
C3397 C3398 1.523 . S
C3398 C3382 1.368 . S
C3398 C3394 1.368 . S
C3398 C3397 1.523 . S
H3399 C3374 0.950 . S
H3400 C3376 0.950 . S
H3401 C3377 0.949 . S
H3402 C3379 0.950 . S
H3403 C3381 0.950 . S
C3404 C3405 1.349 . S
C3404 C3406 1.327 . S
C3404 H3429 0.950 . S
C3405 C3404 1.349 . S
C3405 C3421 1.349 . S
C3406 C3404 1.327 . S
C3406 C3425 1.429 . S
C3406 H3430 0.950 . S
C3407 C3424 1.574 . S
C3407 C3426 1.368 . S
C3407 H3431 0.949 . S
H3408 C3412 0.949 . S
C3409 C3410 1.349 . S
C3409 C3411 1.327 . S
C3409 H3432 0.950 . S
C3410 C3409 1.349 . S
C3410 C3422 1.349 . S
C3411 C3409 1.327 . S
C3411 C3427 1.429 . S
C3411 H3433 0.950 . S
C3412 H3408 0.949 . S
C3412 C3420 1.574 . S
C3412 C3428 1.368 . S
H3413 C3421 0.950 . S
H3414 C3419 0.950 . S
H3415 C3420 0.949 . S
H3416 C3422 0.950 . S
H3417 C3423 0.950 . S
H3418 C3424 0.949 . S
C3419 H3414 0.950 . S
C3419 C3421 1.327 . S
C3419 C3425 1.429 . S
C3420 C3412 1.574 . S
C3420 H3415 0.949 . S
C3420 C3426 1.368 . S
C3421 C3405 1.349 . S
C3421 H3413 0.950 . S
C3421 C3419 1.327 . S
C3422 C3410 1.349 . S
C3422 H3416 0.950 . S
C3422 C3423 1.327 . S
C3423 H3417 0.950 . S
C3423 C3422 1.327 . S
C3423 C3427 1.429 . S
C3424 C3407 1.574 . S
C3424 H3418 0.949 . S
C3424 C3428 1.368 . S
C3425 C3406 1.429 . S
C3425 C3419 1.429 . S
C3425 C3426 1.523 . S
C3426 C3407 1.368 . S
C3426 C3420 1.368 . S
C3426 C3425 1.523 . S
C3427 C3411 1.429 . S
C3427 C3423 1.429 . S
C3427 C3428 1.523 . S
C3428 C3412 1.368 . S
C3428 C3424 1.368 . S
C3428 C3427 1.523 . S
H3429 C3404 0.950 . S
H3430 C3406 0.950 . S
H3431 C3407 0.949 . S
H3432 C3409 0.950 . S
H3433 C3411 0.950 . S
C3434 C3435 1.349 . S
C3434 C3436 1.327 . S
C3434 H3459 0.950 . S
C3435 C3434 1.349 . S
C3435 C3451 1.349 . S
C3436 C3434 1.327 . S
C3436 C3455 1.429 . S
C3436 H3460 0.950 . S
C3437 C3454 1.574 . S
C3437 C3456 1.368 . S
C3437 H3461 0.949 . S
H3438 C3442 0.949 . S
C3439 C3440 1.349 . S
C3439 C3441 1.327 . S
C3439 H3462 0.950 . S
C3440 C3439 1.349 . S
C3440 C3452 1.349 . S
C3441 C3439 1.327 . S
C3441 C3457 1.429 . S
C3441 H3463 0.950 . S
C3442 H3438 0.949 . S
C3442 C3450 1.574 . S
C3442 C3458 1.368 . S
H3443 C3451 0.950 . S
H3444 C3449 0.950 . S
H3445 C3450 0.949 . S
H3446 C3452 0.950 . S
H3447 C3453 0.950 . S
H3448 C3454 0.949 . S
C3449 H3444 0.950 . S
C3449 C3451 1.327 . S
C3449 C3455 1.429 . S
C3450 C3442 1.574 . S
C3450 H3445 0.949 . S
C3450 C3456 1.368 . S
C3451 C3435 1.349 . S
C3451 H3443 0.950 . S
C3451 C3449 1.327 . S
C3452 C3440 1.349 . S
C3452 H3446 0.950 . S
C3452 C3453 1.327 . S
C3453 H3447 0.950 . S
C3453 C3452 1.327 . S
C3453 C3457 1.429 . S
C3454 C3437 1.574 . S
C3454 H3448 0.949 . S
C3454 C3458 1.368 . S
C3455 C3436 1.429 . S
C3455 C3449 1.429 . S
C3455 C3456 1.523 . S
C3456 C3437 1.368 . S
C3456 C3450 1.368 . S
C3456 C3455 1.523 . S
C3457 C3441 1.429 . S
C3457 C3453 1.429 . S
C3457 C3458 1.523 . S
C3458 C3442 1.368 . S
C3458 C3454 1.368 . S
C3458 C3457 1.523 . S
H3459 C3434 0.950 . S
H3460 C3436 0.950 . S
H3461 C3437 0.949 . S
H3462 C3439 0.950 . S
H3463 C3441 0.950 . S
C3464 C3465 1.349 . S
C3464 C3466 1.327 . S
C3464 H3489 0.950 . S
C3465 C3464 1.349 . S
C3465 C3481 1.349 . S
C3466 C3464 1.327 . S
C3466 C3485 1.429 . S
C3466 H3490 0.950 . S
C3467 C3484 1.574 1_554 S
C3467 C3486 1.368 . S
C3467 H3491 0.949 . S
H3468 C3472 0.949 . S
C3469 C3470 1.349 . S
C3469 C3471 1.327 . S
C3469 H3492 0.950 . S
C3470 C3469 1.349 . S
C3470 C3482 1.349 . S
C3471 C3469 1.327 . S
C3471 C3487 1.429 . S
C3471 H3493 0.950 . S
C3472 H3468 0.949 . S
C3472 C3480 1.574 1_556 S
C3472 C3488 1.368 . S
H3473 C3481 0.950 . S
H3474 C3479 0.950 . S
H3475 C3480 0.949 . S
H3476 C3482 0.950 . S
H3477 C3483 0.950 . S
H3478 C3484 0.949 . S
C3479 H3474 0.950 . S
C3479 C3481 1.327 . S
C3479 C3485 1.429 . S
C3480 C3472 1.574 1_554 S
C3480 H3475 0.949 . S
C3480 C3486 1.368 . S
C3481 C3465 1.349 . S
C3481 H3473 0.950 . S
C3481 C3479 1.327 . S
C3482 C3470 1.349 . S
C3482 H3476 0.950 . S
C3482 C3483 1.327 . S
C3483 H3477 0.950 . S
C3483 C3482 1.327 . S
C3483 C3487 1.429 . S
C3484 C3467 1.574 1_556 S
C3484 H3478 0.949 . S
C3484 C3488 1.368 . S
C3485 C3466 1.429 . S
C3485 C3479 1.429 . S
C3485 C3486 1.523 . S
C3486 C3467 1.368 . S
C3486 C3480 1.368 . S
C3486 C3485 1.523 . S
C3487 C3471 1.429 . S
C3487 C3483 1.429 . S
C3487 C3488 1.523 . S
C3488 C3472 1.368 . S
C3488 C3484 1.368 . S
C3488 C3487 1.523 . S
H3489 C3464 0.950 . S
H3490 C3466 0.950 . S
H3491 C3467 0.949 . S
H3492 C3469 0.950 . S
H3493 C3471 0.950 . S
C3494 C3495 1.349 . S
C3494 C3496 1.327 . S
C3494 H3519 0.950 . S
C3495 C3494 1.349 . S
C3495 C3511 1.349 . S
C3496 C3494 1.327 . S
C3496 C3515 1.429 . S
C3496 H3520 0.950 . S
C3497 C3514 1.574 1_556 S
C3497 C3516 1.368 . S
C3497 H3521 0.949 . S
H3498 C3502 0.949 . S
C3499 C3500 1.349 . S
C3499 C3501 1.327 . S
C3499 H3522 0.950 . S
C3500 C3499 1.349 . S
C3500 C3512 1.349 . S
C3501 C3499 1.327 . S
C3501 C3517 1.429 . S
C3501 H3523 0.950 . S
C3502 H3498 0.949 . S
C3502 C3510 1.574 1_554 S
C3502 C3518 1.368 . S
H3503 C3511 0.950 . S
H3504 C3509 0.950 . S
H3505 C3510 0.949 . S
H3506 C3512 0.950 . S
H3507 C3513 0.950 . S
H3508 C3514 0.949 . S
C3509 H3504 0.950 . S
C3509 C3511 1.327 . S
C3509 C3515 1.429 . S
C3510 C3502 1.574 1_556 S
C3510 H3505 0.949 . S
C3510 C3516 1.368 . S
C3511 C3495 1.349 . S
C3511 H3503 0.950 . S
C3511 C3509 1.327 . S
C3512 C3500 1.349 . S
C3512 H3506 0.950 . S
C3512 C3513 1.327 . S
C3513 H3507 0.950 . S
C3513 C3512 1.327 . S
C3513 C3517 1.429 . S
C3514 C3497 1.574 1_554 S
C3514 H3508 0.949 . S
C3514 C3518 1.368 . S
C3515 C3496 1.429 . S
C3515 C3509 1.429 . S
C3515 C3516 1.523 . S
C3516 C3497 1.368 . S
C3516 C3510 1.368 . S
C3516 C3515 1.523 . S
C3517 C3501 1.429 . S
C3517 C3513 1.429 . S
C3517 C3518 1.523 . S
C3518 C3502 1.368 . S
C3518 C3514 1.368 . S
C3518 C3517 1.523 . S
H3519 C3494 0.950 . S
H3520 C3496 0.950 . S
H3521 C3497 0.949 . S
H3522 C3499 0.950 . S
H3523 C3501 0.950 . S
C3524 C3525 1.349 . S
C3524 C3526 1.327 . S
C3524 H3549 0.950 . S
C3525 C3524 1.349 . S
C3525 C3541 1.349 . S
C3526 C3524 1.327 . S
C3526 C3545 1.429 . S
C3526 H3550 0.950 . S
C3527 C3544 1.574 1_556 S
C3527 C3546 1.368 . S
C3527 H3551 0.949 . S
H3528 C3532 0.949 . S
C3529 C3530 1.349 . S
C3529 C3531 1.327 . S
C3529 H3552 0.950 . S
C3530 C3529 1.349 . S
C3530 C3542 1.349 . S
C3531 C3529 1.327 . S
C3531 C3547 1.429 . S
C3531 H3553 0.950 . S
C3532 H3528 0.949 . S
C3532 C3540 1.574 1_554 S
C3532 C3548 1.368 . S
H3533 C3541 0.950 . S
H3534 C3539 0.950 . S
H3535 C3540 0.949 . S
H3536 C3542 0.950 . S
H3537 C3543 0.950 . S
H3538 C3544 0.949 . S
C3539 H3534 0.950 . S
C3539 C3541 1.327 . S
C3539 C3545 1.429 . S
C3540 C3532 1.574 1_556 S
C3540 H3535 0.949 . S
C3540 C3546 1.368 . S
C3541 C3525 1.349 . S
C3541 H3533 0.950 . S
C3541 C3539 1.327 . S
C3542 C3530 1.349 . S
C3542 H3536 0.950 . S
C3542 C3543 1.327 . S
C3543 H3537 0.950 . S
C3543 C3542 1.327 . S
C3543 C3547 1.429 . S
C3544 C3527 1.574 1_554 S
C3544 H3538 0.949 . S
C3544 C3548 1.368 . S
C3545 C3526 1.429 . S
C3545 C3539 1.429 . S
C3545 C3546 1.523 . S
C3546 C3527 1.368 . S
C3546 C3540 1.368 . S
C3546 C3545 1.523 . S
C3547 C3531 1.429 . S
C3547 C3543 1.429 . S
C3547 C3548 1.523 . S
C3548 C3532 1.368 . S
C3548 C3544 1.368 . S
C3548 C3547 1.523 . S
H3549 C3524 0.950 . S
H3550 C3526 0.950 . S
H3551 C3527 0.949 . S
H3552 C3529 0.950 . S
H3553 C3531 0.950 . S
C3554 C3555 1.349 . S
C3554 C3556 1.327 . S
C3554 H3579 0.950 . S
C3555 C3554 1.349 . S
C3555 C3571 1.349 . S
C3556 C3554 1.327 . S
C3556 C3575 1.429 . S
C3556 H3580 0.950 . S
C3557 C3574 1.574 1_554 S
C3557 C3576 1.368 . S
C3557 H3581 0.949 . S
H3558 C3562 0.949 . S
C3559 C3560 1.349 . S
C3559 C3561 1.327 . S
C3559 H3582 0.950 . S
C3560 C3559 1.349 . S
C3560 C3572 1.349 . S
C3561 C3559 1.327 . S
C3561 C3577 1.429 . S
C3561 H3583 0.950 . S
C3562 H3558 0.949 . S
C3562 C3570 1.574 1_556 S
C3562 C3578 1.368 . S
H3563 C3571 0.950 . S
H3564 C3569 0.950 . S
H3565 C3570 0.949 . S
H3566 C3572 0.950 . S
H3567 C3573 0.950 . S
H3568 C3574 0.949 . S
C3569 H3564 0.950 . S
C3569 C3571 1.327 . S
C3569 C3575 1.429 . S
C3570 C3562 1.574 1_554 S
C3570 H3565 0.949 . S
C3570 C3576 1.368 . S
C3571 C3555 1.349 . S
C3571 H3563 0.950 . S
C3571 C3569 1.327 . S
C3572 C3560 1.349 . S
C3572 H3566 0.950 . S
C3572 C3573 1.327 . S
C3573 H3567 0.950 . S
C3573 C3572 1.327 . S
C3573 C3577 1.429 . S
C3574 C3557 1.574 1_556 S
C3574 H3568 0.949 . S
C3574 C3578 1.368 . S
C3575 C3556 1.429 . S
C3575 C3569 1.429 . S
C3575 C3576 1.523 . S
C3576 C3557 1.368 . S
C3576 C3570 1.368 . S
C3576 C3575 1.523 . S
C3577 C3561 1.429 . S
C3577 C3573 1.429 . S
C3577 C3578 1.523 . S
C3578 C3562 1.368 . S
C3578 C3574 1.368 . S
C3578 C3577 1.523 . S
H3579 C3554 0.950 . S
H3580 C3556 0.950 . S
H3581 C3557 0.949 . S
H3582 C3559 0.950 . S
H3583 C3561 0.950 . S
C705 C117 0.854 . S
C710 C7 0.854 . S
C735 C139 0.854 . S
C740 C29 0.854 . S
C765 C65 0.854 . S
C770 C169 0.854 . S
C795 C103 0.854 . S
C800 C73 0.854 . S
C825 C191 0.854 . S
C830 C307 0.854 . S
C855 C329 0.854 . S
C860 C205 0.854 . S
C885 C345 0.854 . S
C890 C235 0.854 . S
C915 C257 0.854 . S
C920 C285 0.854 . S
C945 C359 0.854 . S
C950 C469 0.854 . S
C975 C491 0.854 . S
C980 C381 0.854 . S
C1005 C417 0.854 . S
C1010 C521 0.854 . S
C1035 C439 0.854 . S
C1040 C455 0.854 . S
C1065 C653 0.854 . S
C1070 C535 0.854 . S
C1095 C675 0.854 . S
C1100 C557 0.854 . S
C1125 C703 0.854 . S
C1130 C593 0.854 . S
C1155 C601 0.854 . S
C1160 C631 0.854 . S
C1185 C659 1.065 . S
C1190 C15 1.065 . S
C1215 C681 1.065 . S
C1220 C37 1.065 . S
C1245 C689 1.065 . S
C1250 C51 1.065 . S
C1275 C81 1.065 . S
C1280 C637 1.065 . S
C1305 C109 1.065 . S
C1310 C609 1.065 . S
C1335 C543 1.065 . S
C1340 C125 1.065 . S
C1365 C147 1.065 . S
C1370 C565 1.065 . S
C1395 C579 1.065 . S
C1400 C175 1.065 . S
C1425 C477 1.065 . S
C1430 C197 1.065 . S
C1455 C499 1.065 . S
C1460 C213 1.065 . S
C1485 C241 1.065 . S
C1490 C527 1.065 . S
C1515 C461 1.065 . S
C1520 C263 1.065 . S
C1545 C425 1.065 . S
C1550 C271 1.065 . S
C1575 C293 1.065 . S
C1580 C367 1.065 . S
C1605 C315 1.065 . S
C1610 C389 1.065 . S
C1635 C403 1.065 . S
C1640 C351 1.065 . S
C1665 C74 1.570 . S
C1670 C18 1.568 . S
C1695 C8 1.570 . S
C1700 C40 1.568 . S
C1725 C52 1.568 . S
C1730 C30 1.570 . S
C1755 C84 1.568 . S
C1760 C54 1.570 . S
C1785 C118 1.570 . S
C1790 C98 1.568 . S
C1815 C140 1.570 . S
C1820 C128 1.568 . S
C1845 C172 1.570 . S
C1850 C150 1.568 . S
C1875 C164 1.568 . S
C1880 C106 1.570 . S
C1905 C260 1.570 . S
C1910 C186 1.568 . S
C1935 C194 1.570 . S
C1940 C216 1.568 . S
C1965 C230 1.568 . S
C1970 C206 1.570 . S
C1995 C252 1.568 . S
C2000 C238 1.570 . S
C2025 C296 1.570 . S
C2030 C272 1.568 . S
C2055 C294 1.568 . S
C2060 C318 1.570 . S
C2085 C316 1.568 . S
C2090 C348 1.570 . S
C2115 C340 1.568 . S
C2120 C274 1.570 . S
C2145 C428 1.570 . S
C2150 C370 1.568 . S
C2175 C392 1.568 . S
C2180 C360 1.570 . S
C2205 C382 1.570 . S
C2210 C404 1.568 . S
C2235 C426 1.568 . S
C2240 C406 1.570 . S
C2265 C450 1.568 . S
C2270 C470 1.570 . S
C2295 C492 1.570 . S
C2300 C480 1.568 . S
C2325 C502 1.568 . S
C2330 C524 1.570 . S
C2355 C516 1.568 . S
C2360 C458 1.570 . S
C2385 C602 1.570 . S
C2390 C546 1.568 . S
C2415 C568 1.568 . S
C2420 C536 1.570 . S
C2445 C580 1.568 . S
C2450 C558 1.570 . S
C2475 C612 1.568 . S
C2480 C582 1.570 . S
C2505 C656 1.570 . S
C2510 C626 1.568 . S
C2535 C648 1.568 . S
C2540 C678 1.570 . S
C2565 C692 1.570 . S
C2570 C670 1.568 . S
C2595 C634 1.570 . S
C2600 C690 1.568 . S
C2625 C21 0.962 . S
C2630 C153 0.962 . S
C2655 C161 0.962 . S
C2660 C43 0.962 . S
C2685 C59 0.962 . S
C2690 C95 0.962 . S
C2715 C131 0.962 . S
C2720 C87 0.962 . S
C2745 C183 0.962 . S
C2750 C323 0.962 . S
C2775 C337 0.962 . S
C2780 C219 0.962 . S
C2805 C279 0.962 . S
C2810 C227 0.962 . S
C2835 C301 0.962 . S
C2840 C249 0.962 . S
C2865 C505 0.962 . S
C2870 C373 0.962 . S
C2895 C395 0.962 . S
C2900 C513 0.962 . S
C2925 C447 0.962 . S
C2930 C411 0.962 . S
C2955 C433 0.962 . S
C2960 C483 0.962 . S
C2985 C549 0.962 . S
C2990 C667 0.962 . S
C3015 C697 0.962 . S
C3020 C571 0.962 . S
C3045 C623 0.962 . S
C3050 C587 0.962 . S
C3075 C645 0.962 . S
C3080 C615 0.962 . S
C3105 C228 1.441 . S
C3110 C10 1.441 . S
C3135 C32 1.441 . S
C3140 C250 1.441 . S
C3165 C184 1.441 . S
C3170 C62 1.441 . S
C3195 C208 1.441 . S
C3200 C76 1.441 . S
C3225 C326 1.441 . S
C3230 C96 1.441 . S
C3255 C120 1.441 . S
C3260 C338 1.441 . S
C3285 C282 1.441 . S
C3290 C142 1.441 . S
C3315 C162 1.441 . S
C3320 C304 1.441 . S
C3345 C590 1.441 . S
C3350 C362 1.441 . S
C3375 C604 1.441 . S
C3380 C384 1.441 . S
C3405 C414 1.441 . S
C3410 C538 1.441 . S
C3435 C436 1.441 . S
C3440 C560 1.441 . S
C3465 C668 1.441 . S
C3470 C448 1.441 . S
C3495 C472 1.441 . S
C3500 C700 1.441 . S
C3525 C494 1.441 . S
C3530 C624 1.441 . S
C3555 C646 1.441 . S
C3560 C514 1.441 . S
