# Generated by pormake.
# Topology snl, (6)-cn, num edge types: 1
# Building blocks:
#     Node 0, Type 0, BuildingBlock: VOLQOD_clean_sbu_1, # of connection points: 6
#     Node 1, Type 0, BuildingBlock: VOLQOD_clean_sbu_1, # of connection points: 6
#     Node 2, Type 0, BuildingBlock: VOLQOD_clean_sbu_1, # of connection points: 6
#     Node 3, Type 0, BuildingBlock: VOLQOD_clean_sbu_1, # of connection points: 6
#     Node 4, Type 0, BuildingBlock: VOLQOD_clean_sbu_1, # of connection points: 6
#     Node 5, Type 0, BuildingBlock: VOLQOD_clean_sbu_1, # of connection points: 6
#     Node 6, Type 0, BuildingBlock: VOLQOD_clean_sbu_1, # of connection points: 6
#     Node 7, Type 0, BuildingBlock: VOLQOD_clean_sbu_1, # of connection points: 6
#     Node 8, Type 0, BuildingBlock: VOLQOD_clean_sbu_1, # of connection points: 6
#     Node 9, Type 0, BuildingBlock: VOLQOD_clean_sbu_1, # of connection points: 6
#     Node 10, Type 0, BuildingBlock: VOLQOD_clean_sbu_1, # of connection points: 6
#     Node 11, Type 0, BuildingBlock: VOLQOD_clean_sbu_1, # of connection points: 6
#     Node 12, Type 0, BuildingBlock: VOLQOD_clean_sbu_1, # of connection points: 6
#     Node 13, Type 0, BuildingBlock: VOLQOD_clean_sbu_1, # of connection points: 6
#     Node 14, Type 0, BuildingBlock: VOLQOD_clean_sbu_1, # of connection points: 6
#     Node 15, Type 0, BuildingBlock: VOLQOD_clean_sbu_1, # of connection points: 6
#     Edge 16, Type (0, 0), None
#     Edge 17, Type (0, 0), None
#     Edge 18, Type (0, 0), None
#     Edge 19, Type (0, 0), None
#     Edge 20, Type (0, 0), None
#     Edge 21, Type (0, 0), None
#     Edge 22, Type (0, 0), None
#     Edge 23, Type (0, 0), None
#     Edge 24, Type (0, 0), None
#     Edge 25, Type (0, 0), None
#     Edge 26, Type (0, 0), None
#     Edge 27, Type (0, 0), None
#     Edge 28, Type (0, 0), None
#     Edge 29, Type (0, 0), None
#     Edge 30, Type (0, 0), None
#     Edge 31, Type (0, 0), None
#     Edge 32, Type (0, 0), None
#     Edge 33, Type (0, 0), None
#     Edge 34, Type (0, 0), None
#     Edge 35, Type (0, 0), None
#     Edge 36, Type (0, 0), None
#     Edge 37, Type (0, 0), None
#     Edge 38, Type (0, 0), None
#     Edge 39, Type (0, 0), None
#     Edge 40, Type (0, 0), None
#     Edge 41, Type (0, 0), None
#     Edge 42, Type (0, 0), None
#     Edge 43, Type (0, 0), None
#     Edge 44, Type (0, 0), None
#     Edge 45, Type (0, 0), None
#     Edge 46, Type (0, 0), None
#     Edge 47, Type (0, 0), None
#     Edge 48, Type (0, 0), None
#     Edge 49, Type (0, 0), None
#     Edge 50, Type (0, 0), None
#     Edge 51, Type (0, 0), None
#     Edge 52, Type (0, 0), None
#     Edge 53, Type (0, 0), None
#     Edge 54, Type (0, 0), None
#     Edge 55, Type (0, 0), None
#     Edge 56, Type (0, 0), None
#     Edge 57, Type (0, 0), None
#     Edge 58, Type (0, 0), None
#     Edge 59, Type (0, 0), None
#     Edge 60, Type (0, 0), None
#     Edge 61, Type (0, 0), None
#     Edge 62, Type (0, 0), None
#     Edge 63, Type (0, 0), None
# Relax obj value: 0.048
# Max RMSD: 0.083
# Mean RMSD: 0.081
data_MOF--net-snl--node1-VOLQOD_clean_sbu_1--edge1-none
_symmetry_space_group_name_H-M    P1
_symmetry_Int_Tables_number       1
_symmetry_cell_setting            triclinic
loop_
_symmetry_equiv_pos_as_xyz
'x, y, z'
_cell_length_a     34.546191
_cell_length_b     34.562665
_cell_length_c     8.6763754
_cell_angle_alpha  90.118652
_cell_angle_beta   89.971327
_cell_angle_gamma 90.03921
loop_
_atom_site_label
_atom_site_type_symbol
_atom_site_fract_x
_atom_site_fract_y
_atom_site_fract_z
_atom_type_partial_charge
O0 O 0.09235 0.6293 0.46047 0.0
Zn1 Zn 0.07541 0.63505 0.24234 0.0
O2 O 0.10525 0.60038 0.1175 0.0
Zn3 Zn 0.1436 0.62819 -0.00175 0.0
Zn4 Zn 0.12925 0.56082 0.2442 0.0
Zn5 Zn 0.07038 0.57567 0.97711 0.0
O6 O 0.13815 0.61027 0.77226 0.0
O7 O 0.07474 0.59804 0.77078 0.0
O8 O 0.08582 0.68937 0.17999 0.0
O9 O 0.13361 0.6867 0.00838 0.0
O10 O 0.19654 0.61931 0.10035 0.0
O11 O 0.18574 0.57173 0.26746 0.0
O12 O 0.12155 0.5067 0.14525 0.0
O13 O 0.01763 0.62487 0.22562 0.0
O14 O 0.08522 0.52103 0.94151 0.0
O15 O 0.01519 0.57915 0.04528 0.0
C16 C 0.10568 0.60041 0.53355 0.0
C17 C 0.10655 0.60281 0.70071 0.0
C18 C 0.20799 0.59693 0.20865 0.0
C19 C 0.10934 0.70596 0.08859 0.0
C20 C 0.10544 0.49722 0.01752 0.0
C21 C -0.00134 0.60077 0.14396 0.0
O22 O 0.11343 0.56828 0.46707 0.0
O23 O 0.59153 0.82706 0.01885 0.0
Zn24 Zn 0.57372 0.82256 0.23697 0.0
O25 O 0.6048 0.85658 0.36068 0.0
Zn26 Zn 0.64332 0.82849 0.47669 0.0
Zn27 Zn 0.62844 0.89644 0.2355 0.0
Zn28 Zn 0.57098 0.88073 0.50576 0.0
O29 O 0.63875 0.84618 0.70452 0.0
O30 O 0.5751 0.85654 0.70859 0.0
O31 O 0.58139 0.76785 0.30449 0.0
O32 O 0.63145 0.77077 0.46606 0.0
O33 O 0.69639 0.83664 0.37193 0.0
O34 O 0.68535 0.88755 0.22137 0.0
O35 O 0.61866 0.95061 0.33195 0.0
O36 O 0.51647 0.83559 0.25116 0.0
O37 O 0.5865 0.93491 0.54521 0.0
O38 O 0.51577 0.87916 0.43977 0.0
C39 C 0.60633 0.8552 0.94514 0.0
C40 C 0.6071 0.85249 0.77771 0.0
C41 C 0.7076 0.86117 0.27097 0.0
C42 C 0.60541 0.75166 0.39467 0.0
C43 C 0.60444 0.95947 0.46402 0.0
C44 C 0.49847 0.85954 0.33686 0.0
O45 O 0.61477 0.88732 0.01056 0.0
O46 O 0.36219 0.32837 0.96705 0.0
Zn47 Zn 0.3806 0.32247 0.75062 0.0
O48 O 0.35096 0.35699 0.62346 0.0
Zn49 Zn 0.31241 0.32932 0.50507 0.0
Zn50 Zn 0.32658 0.3966 0.74744 0.0
Zn51 Zn 0.38615 0.38115 0.48321 0.0
O52 O 0.31685 0.34775 0.27927 0.0
O53 O 0.38021 0.36025 0.27493 0.0
O54 O 0.37143 0.26802 0.68448 0.0
O55 O 0.32428 0.27173 0.51002 0.0
O56 O 0.25921 0.3364 0.61053 0.0
O57 O 0.27021 0.38612 0.76767 0.0
O58 O 0.33328 0.44987 0.64306 0.0
O59 O 0.43857 0.3328 0.73944 0.0
O60 O 0.37455 0.43664 0.45338 0.0
O61 O 0.44059 0.37508 0.54723 0.0
C62 C 0.34882 0.35753 0.03903 0.0
C63 C 0.34818 0.35558 0.20638 0.0
C64 C 0.24807 0.35994 0.71555 0.0
C65 C 0.3488 0.25227 0.58744 0.0
C66 C 0.35238 0.46003 0.52298 0.0
C67 C 0.45745 0.35491 0.64922 0.0
O68 O 0.34185 0.38969 0.97168 0.0
O69 O 0.8768 0.11332 0.21594 0.0
Zn70 Zn 0.88323 0.13165 9e-05 0.0
O71 O 0.84838 0.10258 0.87148 0.0
Zn72 Zn 0.87607 0.06454 0.75096 0.0
Zn73 Zn 0.80913 0.07779 -0.00367 0.0
Zn74 Zn 0.82331 0.13787 0.73459 0.0
O75 O 0.85788 0.06939 0.52581 0.0
O76 O 0.84283 0.13217 0.52395 0.0
O77 O 0.93785 0.12215 0.93651 0.0
O78 O 0.93402 0.07585 0.75828 0.0
O79 O 0.86866 0.0114 0.85312 0.0
O80 O 0.82189 0.02209 0.02416 0.0
O81 O 0.75571 0.0823 0.88963 0.0
O82 O 0.87353 0.18956 0.98941 0.0
O83 O 0.76768 0.12584 0.70746 0.0
O84 O 0.83031 0.19223 0.8001 0.0
C85 C 0.84701 0.1012 0.2871 0.0
C86 C 0.84873 0.10047 0.45431 0.0
C87 C 0.84707 3e-05 0.96419 0.0
C88 C 0.95364 0.09971 0.83887 0.0
C89 C 0.74496 0.10218 0.77259 0.0
C90 C 0.85127 0.20874 0.90101 0.0
O91 O 0.81477 0.09504 0.21865 0.0
O92 O 0.09134 0.32476 0.51802 0.0
Zn93 Zn 0.074 0.32017 0.73657 0.0
O94 O 0.10534 0.35387 0.86015 0.0
Zn95 Zn 0.14381 0.32527 0.97559 0.0
Zn96 Zn 0.12867 0.39392 0.73471 0.0
Zn97 Zn 0.07175 0.37848 0.00503 0.0
O98 O 0.139 0.343 0.2037 0.0
O99 O 0.07543 0.35397 0.20727 0.0
O100 O 0.08238 0.26542 0.80096 0.0
O101 O 0.13209 0.26706 0.96409 0.0
O102 O 0.19694 0.33435 0.87081 0.0
O103 O 0.18547 0.38556 0.72214 0.0
O104 O 0.11905 0.44814 0.83046 0.0
O105 O 0.01665 0.33324 0.75332 0.0
O106 O 0.08808 0.43243 0.04629 0.0
O107 O 0.01651 0.37782 0.9382 0.0
C108 C 0.10655 0.35261 0.44406 0.0
C109 C 0.10738 0.34973 0.27662 0.0
C110 C 0.20797 0.35938 0.77132 0.0
C111 C 0.10634 0.24834 0.88907 0.0
C112 C 0.10569 0.45697 0.96391 0.0
C113 C -0.00108 0.35785 0.83714 0.0
O114 O 0.11545 0.38463 0.50926 0.0
O115 O 0.86275 0.82871 0.46968 0.0
Zn116 Zn 0.88083 0.82272 0.25265 0.0
O117 O 0.85103 0.85727 0.12584 0.0
Zn118 Zn 0.81234 0.82928 0.00822 0.0
Zn119 Zn 0.8266 0.89686 0.25046 0.0
Zn120 Zn 0.88629 0.88208 0.98674 0.0
O121 O 0.81729 0.84711 0.78173 0.0
O122 O 0.88026 0.86164 0.77784 0.0
O123 O 0.87169 0.76815 0.18766 0.0
O124 O 0.82392 0.77138 0.01581 0.0
O125 O 0.75881 0.8374 0.11121 0.0
O126 O 0.77028 0.88671 0.26987 0.0
O127 O 0.83261 0.95025 0.14688 0.0
O128 O 0.93882 0.83269 0.23885 0.0
O129 O 0.87415 0.93764 0.95764 0.0
O130 O 0.94109 0.87563 0.04897 0.0
C131 C 0.84912 0.85773 0.54179 0.0
C132 C 0.84845 0.85577 0.70914 0.0
C133 C 0.74777 0.86113 0.21586 0.0
C134 C 0.84873 0.7521 0.09269 0.0
C135 C 0.85153 0.96069 0.02686 0.0
C136 C 0.95786 0.85482 0.14922 0.0
O137 O 0.8418 0.88983 0.4746 0.0
O138 O 0.37977 0.61292 0.71302 0.0
Zn139 Zn 0.38576 0.63131 0.49711 0.0
O140 O 0.35126 0.60193 0.36865 0.0
Zn141 Zn 0.37966 0.5638 0.24968 0.0
Zn142 Zn 0.31186 0.57753 0.49456 0.0
Zn143 Zn 0.32573 0.63709 0.23217 0.0
O144 O 0.36212 0.56913 0.02345 0.0
O145 O 0.34512 0.63146 0.02159 0.0
O146 O 0.44031 0.62173 0.43473 0.0
O147 O 0.43817 0.5744 0.26086 0.0
O148 O 0.37082 0.51063 0.35072 0.0
O149 O 0.32407 0.52191 0.5215 0.0
O150 O 0.2583 0.58171 0.38913 0.0
O151 O 0.37564 0.68928 0.48637 0.0
O152 O 0.27014 0.62464 0.2048 0.0
O153 O 0.33218 0.69158 0.2979 0.0
C154 C 0.35015 0.60068 0.78481 0.0
C155 C 0.35209 0.59997 0.95202 0.0
C156 C 0.34883 0.4995 0.46109 0.0
C157 C 0.45719 0.59866 0.34219 0.0
C158 C 0.24748 0.60113 0.27107 0.0
C159 C 0.35305 0.70828 0.3986 0.0
O160 O 0.3178 0.59461 0.71707 0.0
O161 O 0.5891 0.13165 0.96151 0.0
Zn162 Zn 0.57257 0.13747 0.7426 0.0
O163 O 0.60274 0.10273 0.61917 0.0
Zn164 Zn 0.64126 0.13025 0.49987 0.0
Zn165 Zn 0.62646 0.06312 0.74637 0.0
Zn166 Zn 0.56821 0.07783 0.47815 0.0
O167 O 0.63545 0.11253 0.27346 0.0
O168 O 0.57193 0.10093 0.27294 0.0
O169 O 0.58353 0.19192 0.68096 0.0
O170 O 0.63177 0.18883 0.51129 0.0
O171 O 0.69421 0.12079 0.60154 0.0
O172 O 0.68291 0.07357 0.7697 0.0
O173 O 0.61899 0.00905 0.64738 0.0
O174 O 0.51474 0.12689 0.72378 0.0
O175 O 0.58397 0.0235 0.44024 0.0
O176 O 0.51302 0.08028 0.54691 0.0
C177 C 0.60265 0.10293 0.03509 0.0
C178 C 0.60369 0.10551 0.20228 0.0
C179 C 0.70543 0.09839 0.71019 0.0
C180 C 0.60754 0.20832 0.59088 0.0
C181 C 0.60383 -0.00031 0.51771 0.0
C182 C 0.49613 0.10212 0.64382 0.0
O183 O 0.61072 0.07082 0.9691 0.0
O184 O 0.86211 0.39151 0.53112 0.0
Zn185 Zn 0.87995 0.39597 0.75826 0.0
O186 O 0.85157 0.35746 0.8742 0.0
Zn187 Zn 0.81175 0.38156 -0.00168 0.0
Zn188 Zn 0.82726 0.32251 0.7329 0.0
Zn189 Zn 0.88573 0.32737 0.00153 0.0
O190 O 0.81935 0.36684 0.22314 0.0
O191 O 0.88061 0.3463 0.21764 0.0
O192 O 0.8718 0.4493 0.86297 0.0
O193 O 0.82135 0.43803 0.01605 0.0
O194 O 0.75826 0.37439 0.89515 0.0
O195 O 0.7718 0.33418 0.70227 0.0
O196 O 0.83268 0.26807 0.79689 0.0
O197 O 0.9378 0.38366 0.76663 0.0
O198 O 0.87418 0.26968 0.99211 0.0
O199 O 0.94033 0.33501 0.93441 0.0
C200 C 0.85374 0.3604 0.45743 0.0
C201 C 0.85164 0.35992 0.29001 0.0
C202 C 0.7482 0.35575 0.77364 0.0
C203 C 0.8474 0.46042 0.96498 0.0
C204 C 0.85211 0.25106 0.90068 0.0
C205 C 0.9567 0.35805 0.84088 0.0
O206 O 0.84831 0.32843 0.5252 0.0
O207 O 0.3596 0.07066 0.95581 0.0
Zn208 Zn 0.37709 0.0656 0.72887 0.0
O209 O 0.34833 0.10368 0.61179 0.0
Zn210 Zn 0.30935 0.07849 0.48649 0.0
Zn211 Zn 0.32245 0.13857 0.75028 0.0
Zn212 Zn 0.38252 0.13393 0.48512 0.0
O213 O 0.31584 0.09453 0.2632 0.0
O214 O 0.37692 0.11572 0.26793 0.0
O215 O 0.3699 0.01184 0.62702 0.0
O216 O 0.32139 0.02261 0.46435 0.0
O217 O 0.25558 0.08295 0.59025 0.0
O218 O 0.26723 0.12507 0.77851 0.0
O219 O 0.32716 0.19358 0.68684 0.0
O220 O 0.43481 0.07769 0.7184 0.0
O221 O 0.37072 0.19144 0.49837 0.0
O222 O 0.43752 0.12597 0.54914 0.0
C223 C 0.34984 0.10152 0.0284 0.0
C224 C 0.3479 0.10213 0.19576 0.0
C225 C 0.24466 0.10185 0.70988 0.0
C226 C 0.34713 0.00055 0.51961 0.0
C227 C 0.34747 0.21019 0.58455 0.0
C228 C 0.45388 0.10285 0.6424 0.0
O229 O 0.34263 0.13303 0.95978 0.0
O230 O 0.59564 0.57011 0.02549 0.0
Zn231 Zn 0.57771 0.56455 0.25174 0.0
O232 O 0.60543 0.60295 0.37119 0.0
Zn233 Zn 0.64521 0.57925 0.49785 0.0
Zn234 Zn 0.63003 0.63746 0.22983 0.0
Zn235 Zn 0.57086 0.63321 0.49491 0.0
O236 O 0.6373 0.59466 0.72123 0.0
O237 O 0.57653 0.61656 0.71344 0.0
O238 O 0.58711 0.51163 0.35352 0.0
O239 O 0.63495 0.52268 0.51972 0.0
O240 O 0.69931 0.58736 0.39884 0.0
O241 O 0.68432 0.62199 0.1914 0.0
O242 O 0.62776 0.69257 0.29873 0.0
O243 O 0.51911 0.57457 0.2625 0.0
O244 O 0.58155 0.69093 0.47693 0.0
O245 O 0.5164 0.62278 0.43256 0.0
C246 C 0.60255 0.60184 0.95426 0.0
C247 C 0.60518 0.60282 0.78707 0.0
C248 C 0.70843 0.60253 0.26899 0.0
C249 C 0.60983 0.50027 0.46101 0.0
C250 C 0.60619 0.70947 0.39643 0.0
C251 C 0.49981 0.59901 0.34192 0.0
O252 O 0.60671 0.63367 0.02491 0.0
O253 O 0.14007 0.84415 0.77471 0.0
Zn254 Zn 0.14495 0.82615 0.00098 0.0
O255 O 0.10652 0.85389 0.11951 0.0
Zn256 Zn 0.12957 0.89407 0.24617 0.0
Zn257 Zn 0.07209 0.87757 0.97683 0.0
Zn258 Zn 0.07655 0.81953 0.24494 0.0
O259 O 0.11429 0.88603 0.46992 0.0
O260 O 0.09461 0.82456 0.46155 0.0
O261 O 0.19756 0.8359 0.10442 0.0
O262 O 0.18614 0.8843 0.26811 0.0
O263 O 0.12082 0.948 0.14658 0.0
O264 O 0.08627 0.93221 0.93944 0.0
O265 O 0.01738 0.87403 0.04526 0.0
O266 O 0.13449 0.7676 0.01111 0.0
O267 O 0.0188 0.83068 0.23385 0.0
O268 O 0.08596 0.76527 0.17971 0.0
C269 C 0.10844 0.85091 0.70246 0.0
C270 C 0.10765 0.85355 0.53532 0.0
C271 C 0.10535 0.95675 0.01684 0.0
C272 C 0.20868 0.85908 0.21106 0.0
C273 C 0.00027 0.85383 0.14686 0.0
C274 C 0.10961 0.74852 0.08914 0.0
O275 O 0.07642 0.85444 0.772 0.0
O276 O 0.86166 0.56981 0.45463 0.0
Zn277 Zn 0.87943 0.56496 0.22702 0.0
O278 O 0.85143 0.60344 0.11045 0.0
Zn279 Zn 0.81166 0.57956 0.98494 0.0
Zn280 Zn 0.82699 0.63723 0.25518 0.0
Zn281 Zn 0.88552 0.63463 0.98771 0.0
O282 O 0.82054 0.59344 0.7602 0.0
O283 O 0.88058 0.61736 0.76892 0.0
O284 O 0.8714 0.51179 0.12272 0.0
O285 O 0.82094 0.52279 0.96955 0.0
O286 O 0.7575 0.58848 0.08252 0.0
O287 O 0.77299 0.62099 0.29542 0.0
O288 O 0.82815 0.69251 0.18907 0.0
O289 O 0.93719 0.57647 0.21597 0.0
O290 O 0.87281 0.69197 0.0047 0.0
O291 O 0.94036 0.6262 0.05326 0.0
C292 C 0.85528 0.60151 0.52749 0.0
C293 C 0.85253 0.60238 0.69491 0.0
C294 C 0.74863 0.6025 0.21493 0.0
C295 C 0.84719 0.50057 0.02038 0.0
C296 C 0.84837 0.70991 0.08844 0.0
C297 C 0.95646 0.6021 0.14329 0.0
O298 O 0.85135 0.63344 0.45805 0.0
O299 O 0.13499 0.11039 0.20757 0.0
Zn300 Zn 0.14038 0.12815 0.98149 0.0
O301 O 0.10236 0.09995 0.86207 0.0
Zn302 Zn 0.12681 0.0606 0.73488 0.0
Zn303 Zn 0.0679 0.07474 0.00244 0.0
Zn304 Zn 0.07203 0.1343 0.73801 0.0
O305 O 0.11082 0.06784 0.51203 0.0
O306 O 0.089 0.12861 0.51985 0.0
O307 O 0.19348 0.11952 0.88052 0.0
O308 O 0.18308 0.07219 0.71124 0.0
O309 O 0.1203 0.00644 0.83464 0.0
O310 O 0.08369 0.02043 0.03826 0.0
O311 O 0.01269 0.07733 0.9346 0.0
O312 O 0.13005 0.18655 0.96963 0.0
O313 O 0.0144 0.12301 0.75475 0.0
O314 O 0.08189 0.18904 0.79975 0.0
C315 C 0.10352 0.10238 0.27904 0.0
C316 C 0.10267 0.09989 0.44617 0.0
C317 C 0.10447 -0.00309 0.96282 0.0
C318 C 0.20514 0.09739 0.77143 0.0
C319 C -0.00417 0.09855 0.83587 0.0
C320 C 0.10565 0.20575 0.8901 0.0
O321 O 0.07178 0.09724 0.20893 0.0
O322 O 0.6391 0.3457 0.2744 0.0
Zn323 Zn 0.64416 0.32816 0.5007 0.0
O324 O 0.60614 0.35684 0.61907 0.0
Zn325 Zn 0.63056 0.3963 0.74501 0.0
Zn326 Zn 0.57094 0.3822 0.48219 0.0
Zn327 Zn 0.57672 0.32252 0.74781 0.0
O328 O 0.61368 0.39022 0.96773 0.0
O329 O 0.59547 0.32827 0.96332 0.0
O330 O 0.69738 0.33694 0.60243 0.0
O331 O 0.68633 0.38419 0.77144 0.0
O332 O 0.62585 0.44993 0.6402 0.0
O333 O 0.58284 0.43785 0.45597 0.0
O334 O 0.5165 0.3755 0.54703 0.0
O335 O 0.63301 0.2697 0.51139 0.0
O336 O 0.51881 0.33285 0.73805 0.0
O337 O 0.58561 0.26798 0.68475 0.0
C338 C 0.60837 0.35594 0.20247 0.0
C339 C 0.60776 0.35786 0.03527 0.0
C340 C 0.60617 0.46068 0.52258 0.0
C341 C 0.70864 0.35919 0.71196 0.0
C342 C 0.4998 0.35505 0.64883 0.0
C343 C 0.60847 0.25091 0.59207 0.0
O344 O 0.57684 0.36302 0.27147 0.0
O345 O 0.36126 0.89119 0.03028 0.0
Zn346 Zn 0.37929 0.89596 0.25676 0.0
O347 O 0.35141 0.8573 0.37418 0.0
Zn348 Zn 0.31169 0.8815 0.49836 0.0
Zn349 Zn 0.32715 0.82208 0.23387 0.0
Zn350 Zn 0.3858 0.82745 0.50132 0.0
O351 O 0.31878 0.86628 0.7226 0.0
O352 O 0.38013 0.84594 0.71778 0.0
O353 O 0.37127 0.94944 0.36018 0.0
O354 O 0.32199 0.93777 0.51853 0.0
O355 O 0.25826 0.87503 0.39373 0.0
O356 O 0.27168 0.83377 0.20422 0.0
O357 O 0.33312 0.76755 0.29719 0.0
O358 O 0.4371 0.88414 0.26413 0.0
O359 O 0.37533 0.7695 0.48989 0.0
O360 O 0.44026 0.83628 0.43539 0.0
C361 C 0.35302 0.85996 0.95722 0.0
C362 C 0.351 0.85934 0.78987 0.0
C363 C 0.24821 0.85596 0.27329 0.0
C364 C 0.34764 0.96032 0.46538 0.0
C365 C 0.35324 0.75065 0.39926 0.0
C366 C 0.45631 0.85918 0.34045 0.0
O367 O 0.34785 0.82803 0.02554 0.0
loop_
_geom_bond_atom_site_label_1
_geom_bond_atom_site_label_2
_geom_bond_distance
_geom_bond_site_symmetry_2
_ccdc_geom_bond_type
O0 Zn1 1.953 . S
O0 C16 1.225 . S
Zn1 O0 1.953 . S
Zn1 O2 1.949 . S
Zn1 O8 1.919 . S
Zn1 O13 1.924 . S
O2 Zn1 1.949 . S
O2 Zn3 1.923 . S
O2 Zn4 1.950 . S
O2 Zn5 1.945 1_554 S
Zn3 O2 1.923 . S
Zn3 O6 1.933 1_554 S
Zn3 O9 1.941 . S
Zn3 O10 1.965 . S
Zn4 O2 1.950 . S
Zn4 O11 1.938 . S
Zn4 O12 1.906 . S
Zn4 O22 1.953 . S
Zn5 O2 1.945 1_556 S
Zn5 O7 1.932 . S
Zn5 O14 1.977 . S
Zn5 O15 1.910 1_556 S
O6 Zn3 1.933 1_556 S
O6 C17 1.226 . S
O7 Zn5 1.932 . S
O7 C17 1.307 . S
O8 Zn1 1.919 . S
O8 C19 1.253 . S
O9 Zn3 1.941 . S
O9 C19 1.283 . S
O10 Zn3 1.965 . S
O10 C18 1.303 . S
O11 Zn4 1.938 . S
O11 C18 1.247 . S
O12 Zn4 1.906 . S
O12 C20 1.304 . S
O13 Zn1 1.924 . S
O13 C21 1.311 . S
O14 Zn5 1.977 . S
O14 C20 1.272 1_556 S
O15 Zn5 1.910 1_554 S
O15 C21 1.231 . S
C16 O0 1.225 . S
C16 O22 1.298 . S
C17 O6 1.226 . S
C17 O7 1.307 . S
C18 O10 1.303 . S
C18 O11 1.247 . S
C19 O8 1.253 . S
C19 O9 1.283 . S
C20 O12 1.304 . S
C20 O14 1.272 1_554 S
C21 O13 1.311 . S
C21 O15 1.231 . S
O22 Zn4 1.953 . S
O22 C16 1.298 . S
O23 Zn24 1.953 . S
O23 C39 1.225 1_554 S
Zn24 O23 1.953 . S
Zn24 O25 1.949 . S
Zn24 O31 1.919 . S
Zn24 O36 1.924 . S
O25 Zn24 1.949 . S
O25 Zn26 1.923 . S
O25 Zn27 1.950 . S
O25 Zn28 1.945 . S
Zn26 O25 1.923 . S
Zn26 O29 1.933 . S
Zn26 O32 1.941 . S
Zn26 O33 1.965 . S
Zn27 O25 1.950 . S
Zn27 O34 1.938 . S
Zn27 O35 1.906 . S
Zn27 O45 1.953 . S
Zn28 O25 1.945 . S
Zn28 O30 1.932 . S
Zn28 O37 1.977 . S
Zn28 O38 1.910 . S
O29 Zn26 1.933 . S
O29 C40 1.226 . S
O30 Zn28 1.932 . S
O30 C40 1.307 . S
O31 Zn24 1.919 . S
O31 C42 1.253 . S
O32 Zn26 1.941 . S
O32 C42 1.283 . S
O33 Zn26 1.965 . S
O33 C41 1.303 . S
O34 Zn27 1.938 . S
O34 C41 1.247 . S
O35 Zn27 1.906 . S
O35 C43 1.304 . S
O36 Zn24 1.924 . S
O36 C44 1.311 . S
O37 Zn28 1.977 . S
O37 C43 1.272 . S
O38 Zn28 1.910 . S
O38 C44 1.231 . S
C39 O23 1.225 1_556 S
C39 O45 1.298 1_556 S
C40 O29 1.226 . S
C40 O30 1.307 . S
C41 O33 1.303 . S
C41 O34 1.247 . S
C42 O31 1.253 . S
C42 O32 1.283 . S
C43 O35 1.304 . S
C43 O37 1.272 . S
C44 O36 1.311 . S
C44 O38 1.231 . S
O45 Zn27 1.953 . S
O45 C39 1.298 1_554 S
O46 Zn47 1.953 . S
O46 C62 1.225 1_556 S
Zn47 O46 1.953 . S
Zn47 O48 1.949 . S
Zn47 O54 1.919 . S
Zn47 O59 1.924 . S
O48 Zn47 1.949 . S
O48 Zn49 1.923 . S
O48 Zn50 1.950 . S
O48 Zn51 1.945 . S
Zn49 O48 1.923 . S
Zn49 O52 1.933 . S
Zn49 O55 1.941 . S
Zn49 O56 1.965 . S
Zn50 O48 1.950 . S
Zn50 O57 1.938 . S
Zn50 O58 1.906 . S
Zn50 O68 1.953 . S
Zn51 O48 1.945 . S
Zn51 O53 1.932 . S
Zn51 O60 1.977 . S
Zn51 O61 1.910 . S
O52 Zn49 1.933 . S
O52 C63 1.226 . S
O53 Zn51 1.932 . S
O53 C63 1.307 . S
O54 Zn47 1.919 . S
O54 C65 1.253 . S
O55 Zn49 1.941 . S
O55 C65 1.283 . S
O56 Zn49 1.965 . S
O56 C64 1.303 . S
O57 Zn50 1.938 . S
O57 C64 1.247 . S
O58 Zn50 1.906 . S
O58 C66 1.304 . S
O59 Zn47 1.924 . S
O59 C67 1.311 . S
O60 Zn51 1.977 . S
O60 C66 1.272 . S
O61 Zn51 1.910 . S
O61 C67 1.231 . S
C62 O46 1.225 1_554 S
C62 O68 1.298 1_554 S
C63 O52 1.226 . S
C63 O53 1.307 . S
C64 O56 1.303 . S
C64 O57 1.247 . S
C65 O54 1.253 . S
C65 O55 1.283 . S
C66 O58 1.304 . S
C66 O60 1.272 . S
C67 O59 1.311 . S
C67 O61 1.231 . S
O68 Zn50 1.953 . S
O68 C62 1.298 1_556 S
O69 Zn70 1.953 . S
O69 C85 1.225 . S
Zn70 O69 1.953 . S
Zn70 O71 1.949 1_554 S
Zn70 O77 1.919 1_554 S
Zn70 O82 1.924 1_554 S
O71 Zn70 1.949 1_556 S
O71 Zn72 1.923 . S
O71 Zn73 1.950 1_556 S
O71 Zn74 1.945 . S
Zn72 O71 1.923 . S
Zn72 O75 1.933 . S
Zn72 O78 1.941 . S
Zn72 O79 1.965 . S
Zn73 O71 1.950 1_554 S
Zn73 O80 1.938 . S
Zn73 O81 1.906 1_554 S
Zn73 O91 1.953 . S
Zn74 O71 1.945 . S
Zn74 O76 1.932 . S
Zn74 O83 1.977 . S
Zn74 O84 1.910 . S
O75 Zn72 1.933 . S
O75 C86 1.226 . S
O76 Zn74 1.932 . S
O76 C86 1.307 . S
O77 Zn70 1.919 1_556 S
O77 C88 1.253 . S
O78 Zn72 1.941 . S
O78 C88 1.283 . S
O79 Zn72 1.965 . S
O79 C87 1.303 . S
O80 Zn73 1.938 . S
O80 C87 1.247 1_554 S
O81 Zn73 1.906 1_556 S
O81 C89 1.304 . S
O82 Zn70 1.924 1_556 S
O82 C90 1.311 . S
O83 Zn74 1.977 . S
O83 C89 1.272 . S
O84 Zn74 1.910 . S
O84 C90 1.231 . S
C85 O69 1.225 . S
C85 O91 1.298 . S
C86 O75 1.226 . S
C86 O76 1.307 . S
C87 O79 1.303 . S
C87 O80 1.247 1_556 S
C88 O77 1.253 . S
C88 O78 1.283 . S
C89 O81 1.304 . S
C89 O83 1.272 . S
C90 O82 1.311 . S
C90 O84 1.231 . S
O91 Zn73 1.953 . S
O91 C85 1.298 . S
O92 Zn93 1.953 . S
O92 C108 1.225 . S
Zn93 O92 1.953 . S
Zn93 O94 1.949 . S
Zn93 O100 1.919 . S
Zn93 O105 1.924 . S
O94 Zn93 1.949 . S
O94 Zn95 1.923 . S
O94 Zn96 1.950 . S
O94 Zn97 1.945 1_556 S
Zn95 O94 1.923 . S
Zn95 O98 1.933 1_556 S
Zn95 O101 1.941 . S
Zn95 O102 1.965 . S
Zn96 O94 1.950 . S
Zn96 O103 1.938 . S
Zn96 O104 1.906 . S
Zn96 O114 1.953 . S
Zn97 O94 1.945 1_554 S
Zn97 O99 1.932 . S
Zn97 O106 1.977 . S
Zn97 O107 1.910 1_554 S
O98 Zn95 1.933 1_554 S
O98 C109 1.226 . S
O99 Zn97 1.932 . S
O99 C109 1.307 . S
O100 Zn93 1.919 . S
O100 C111 1.253 . S
O101 Zn95 1.941 . S
O101 C111 1.283 . S
O102 Zn95 1.965 . S
O102 C110 1.303 . S
O103 Zn96 1.938 . S
O103 C110 1.247 . S
O104 Zn96 1.906 . S
O104 C112 1.304 . S
O105 Zn93 1.924 . S
O105 C113 1.311 . S
O106 Zn97 1.977 . S
O106 C112 1.272 1_554 S
O107 Zn97 1.910 1_556 S
O107 C113 1.231 . S
C108 O92 1.225 . S
C108 O114 1.298 . S
C109 O98 1.226 . S
C109 O99 1.307 . S
C110 O102 1.303 . S
C110 O103 1.247 . S
C111 O100 1.253 . S
C111 O101 1.283 . S
C112 O104 1.304 . S
C112 O106 1.272 1_556 S
C113 O105 1.311 . S
C113 O107 1.231 . S
O114 Zn96 1.953 . S
O114 C108 1.298 . S
O115 Zn116 1.953 . S
O115 C131 1.225 . S
Zn116 O115 1.953 . S
Zn116 O117 1.949 . S
Zn116 O123 1.919 . S
Zn116 O128 1.924 . S
O117 Zn116 1.949 . S
O117 Zn118 1.923 . S
O117 Zn119 1.950 . S
O117 Zn120 1.945 1_554 S
Zn118 O117 1.923 . S
Zn118 O121 1.933 1_554 S
Zn118 O124 1.941 . S
Zn118 O125 1.965 . S
Zn119 O117 1.950 . S
Zn119 O126 1.938 . S
Zn119 O127 1.906 . S
Zn119 O137 1.953 . S
Zn120 O117 1.945 1_556 S
Zn120 O122 1.932 . S
Zn120 O129 1.977 . S
Zn120 O130 1.910 1_556 S
O121 Zn118 1.933 1_556 S
O121 C132 1.226 . S
O122 Zn120 1.932 . S
O122 C132 1.307 . S
O123 Zn116 1.919 . S
O123 C134 1.253 . S
O124 Zn118 1.941 . S
O124 C134 1.283 . S
O125 Zn118 1.965 . S
O125 C133 1.303 . S
O126 Zn119 1.938 . S
O126 C133 1.247 . S
O127 Zn119 1.906 . S
O127 C135 1.304 . S
O128 Zn116 1.924 . S
O128 C136 1.311 . S
O129 Zn120 1.977 . S
O129 C135 1.272 1_556 S
O130 Zn120 1.910 1_554 S
O130 C136 1.231 . S
C131 O115 1.225 . S
C131 O137 1.298 . S
C132 O121 1.226 . S
C132 O122 1.307 . S
C133 O125 1.303 . S
C133 O126 1.247 . S
C134 O123 1.253 . S
C134 O124 1.283 . S
C135 O127 1.304 . S
C135 O129 1.272 1_554 S
C136 O128 1.311 . S
C136 O130 1.231 . S
O137 Zn119 1.953 . S
O137 C131 1.298 . S
O138 Zn139 1.953 . S
O138 C154 1.225 . S
Zn139 O138 1.953 . S
Zn139 O140 1.949 . S
Zn139 O146 1.919 . S
Zn139 O151 1.924 . S
O140 Zn139 1.949 . S
O140 Zn141 1.923 . S
O140 Zn142 1.950 . S
O140 Zn143 1.945 . S
Zn141 O140 1.923 . S
Zn141 O144 1.933 . S
Zn141 O147 1.941 . S
Zn141 O148 1.965 . S
Zn142 O140 1.950 . S
Zn142 O149 1.938 . S
Zn142 O150 1.906 . S
Zn142 O160 1.953 . S
Zn143 O140 1.945 . S
Zn143 O145 1.932 . S
Zn143 O152 1.977 . S
Zn143 O153 1.910 . S
O144 Zn141 1.933 . S
O144 C155 1.226 1_554 S
O145 Zn143 1.932 . S
O145 C155 1.307 1_554 S
O146 Zn139 1.919 . S
O146 C157 1.253 . S
O147 Zn141 1.941 . S
O147 C157 1.283 . S
O148 Zn141 1.965 . S
O148 C156 1.303 . S
O149 Zn142 1.938 . S
O149 C156 1.247 . S
O150 Zn142 1.906 . S
O150 C158 1.304 . S
O151 Zn139 1.924 . S
O151 C159 1.311 . S
O152 Zn143 1.977 . S
O152 C158 1.272 . S
O153 Zn143 1.910 . S
O153 C159 1.231 . S
C154 O138 1.225 . S
C154 O160 1.298 . S
C155 O144 1.226 1_556 S
C155 O145 1.307 1_556 S
C156 O148 1.303 . S
C156 O149 1.247 . S
C157 O146 1.253 . S
C157 O147 1.283 . S
C158 O150 1.304 . S
C158 O152 1.272 . S
C159 O151 1.311 . S
C159 O153 1.231 . S
O160 Zn142 1.953 . S
O160 C154 1.298 . S
O161 Zn162 1.953 . S
O161 C177 1.225 1_556 S
Zn162 O161 1.953 . S
Zn162 O163 1.949 . S
Zn162 O169 1.919 . S
Zn162 O174 1.924 . S
O163 Zn162 1.949 . S
O163 Zn164 1.923 . S
O163 Zn165 1.950 . S
O163 Zn166 1.945 . S
Zn164 O163 1.923 . S
Zn164 O167 1.933 . S
Zn164 O170 1.941 . S
Zn164 O171 1.965 . S
Zn165 O163 1.950 . S
Zn165 O172 1.938 . S
Zn165 O173 1.906 . S
Zn165 O183 1.953 . S
Zn166 O163 1.945 . S
Zn166 O168 1.932 . S
Zn166 O175 1.977 . S
Zn166 O176 1.910 . S
O167 Zn164 1.933 . S
O167 C178 1.226 . S
O168 Zn166 1.932 . S
O168 C178 1.307 . S
O169 Zn162 1.919 . S
O169 C180 1.253 . S
O170 Zn164 1.941 . S
O170 C180 1.283 . S
O171 Zn164 1.965 . S
O171 C179 1.303 . S
O172 Zn165 1.938 . S
O172 C179 1.247 . S
O173 Zn165 1.906 . S
O173 C181 1.304 . S
O174 Zn162 1.924 . S
O174 C182 1.311 . S
O175 Zn166 1.977 . S
O175 C181 1.272 . S
O176 Zn166 1.910 . S
O176 C182 1.231 . S
C177 O161 1.225 1_554 S
C177 O183 1.298 1_554 S
C178 O167 1.226 . S
C178 O168 1.307 . S
C179 O171 1.303 . S
C179 O172 1.247 . S
C180 O169 1.253 . S
C180 O170 1.283 . S
C181 O173 1.304 . S
C181 O175 1.272 . S
C182 O174 1.311 . S
C182 O176 1.231 . S
O183 Zn165 1.953 . S
O183 C177 1.298 1_556 S
O184 Zn185 1.953 . S
O184 C200 1.225 . S
Zn185 O184 1.953 . S
Zn185 O186 1.949 . S
Zn185 O192 1.919 . S
Zn185 O197 1.924 . S
O186 Zn185 1.949 . S
O186 Zn187 1.923 1_556 S
O186 Zn188 1.950 . S
O186 Zn189 1.945 1_556 S
Zn187 O186 1.923 1_554 S
Zn187 O190 1.933 . S
Zn187 O193 1.941 1_554 S
Zn187 O194 1.965 1_554 S
Zn188 O186 1.950 . S
Zn188 O195 1.938 . S
Zn188 O196 1.906 . S
Zn188 O206 1.953 . S
Zn189 O186 1.945 1_554 S
Zn189 O191 1.932 . S
Zn189 O198 1.977 1_554 S
Zn189 O199 1.910 1_554 S
O190 Zn187 1.933 . S
O190 C201 1.226 . S
O191 Zn189 1.932 . S
O191 C201 1.307 . S
O192 Zn185 1.919 . S
O192 C203 1.253 . S
O193 Zn187 1.941 1_556 S
O193 C203 1.283 . S
O194 Zn187 1.965 1_556 S
O194 C202 1.303 . S
O195 Zn188 1.938 . S
O195 C202 1.247 . S
O196 Zn188 1.906 . S
O196 C204 1.304 . S
O197 Zn185 1.924 . S
O197 C205 1.311 . S
O198 Zn189 1.977 1_556 S
O198 C204 1.272 . S
O199 Zn189 1.910 1_556 S
O199 C205 1.231 . S
C200 O184 1.225 . S
C200 O206 1.298 . S
C201 O190 1.226 . S
C201 O191 1.307 . S
C202 O194 1.303 . S
C202 O195 1.247 . S
C203 O192 1.253 . S
C203 O193 1.283 . S
C204 O196 1.304 . S
C204 O198 1.272 . S
C205 O197 1.311 . S
C205 O199 1.231 . S
O206 Zn188 1.953 . S
O206 C200 1.298 . S
O207 Zn208 1.953 . S
O207 C223 1.225 1_556 S
Zn208 O207 1.953 . S
Zn208 O209 1.949 . S
Zn208 O215 1.919 . S
Zn208 O220 1.924 . S
O209 Zn208 1.949 . S
O209 Zn210 1.923 . S
O209 Zn211 1.950 . S
O209 Zn212 1.945 . S
Zn210 O209 1.923 . S
Zn210 O213 1.933 . S
Zn210 O216 1.941 . S
Zn210 O217 1.965 . S
Zn211 O209 1.950 . S
Zn211 O218 1.938 . S
Zn211 O219 1.906 . S
Zn211 O229 1.953 . S
Zn212 O209 1.945 . S
Zn212 O214 1.932 . S
Zn212 O221 1.977 . S
Zn212 O222 1.910 . S
O213 Zn210 1.933 . S
O213 C224 1.226 . S
O214 Zn212 1.932 . S
O214 C224 1.307 . S
O215 Zn208 1.919 . S
O215 C226 1.253 . S
O216 Zn210 1.941 . S
O216 C226 1.283 . S
O217 Zn210 1.965 . S
O217 C225 1.303 . S
O218 Zn211 1.938 . S
O218 C225 1.247 . S
O219 Zn211 1.906 . S
O219 C227 1.304 . S
O220 Zn208 1.924 . S
O220 C228 1.311 . S
O221 Zn212 1.977 . S
O221 C227 1.272 . S
O222 Zn212 1.910 . S
O222 C228 1.231 . S
C223 O207 1.225 1_554 S
C223 O229 1.298 1_554 S
C224 O213 1.226 . S
C224 O214 1.307 . S
C225 O217 1.303 . S
C225 O218 1.247 . S
C226 O215 1.253 . S
C226 O216 1.283 . S
C227 O219 1.304 . S
C227 O221 1.272 . S
C228 O220 1.311 . S
C228 O222 1.231 . S
O229 Zn211 1.953 . S
O229 C223 1.298 1_556 S
O230 Zn231 1.953 . S
O230 C246 1.225 1_554 S
Zn231 O230 1.953 . S
Zn231 O232 1.949 . S
Zn231 O238 1.919 . S
Zn231 O243 1.924 . S
O232 Zn231 1.949 . S
O232 Zn233 1.923 . S
O232 Zn234 1.950 . S
O232 Zn235 1.945 . S
Zn233 O232 1.923 . S
Zn233 O236 1.933 . S
Zn233 O239 1.941 . S
Zn233 O240 1.965 . S
Zn234 O232 1.950 . S
Zn234 O241 1.938 . S
Zn234 O242 1.906 . S
Zn234 O252 1.953 . S
Zn235 O232 1.945 . S
Zn235 O237 1.932 . S
Zn235 O244 1.977 . S
Zn235 O245 1.910 . S
O236 Zn233 1.933 . S
O236 C247 1.226 . S
O237 Zn235 1.932 . S
O237 C247 1.307 . S
O238 Zn231 1.919 . S
O238 C249 1.253 . S
O239 Zn233 1.941 . S
O239 C249 1.283 . S
O240 Zn233 1.965 . S
O240 C248 1.303 . S
O241 Zn234 1.938 . S
O241 C248 1.247 . S
O242 Zn234 1.906 . S
O242 C250 1.304 . S
O243 Zn231 1.924 . S
O243 C251 1.311 . S
O244 Zn235 1.977 . S
O244 C250 1.272 . S
O245 Zn235 1.910 . S
O245 C251 1.231 . S
C246 O230 1.225 1_556 S
C246 O252 1.298 1_556 S
C247 O236 1.226 . S
C247 O237 1.307 . S
C248 O240 1.303 . S
C248 O241 1.247 . S
C249 O238 1.253 . S
C249 O239 1.283 . S
C250 O242 1.304 . S
C250 O244 1.272 . S
C251 O243 1.311 . S
C251 O245 1.231 . S
O252 Zn234 1.953 . S
O252 C246 1.298 1_554 S
O253 Zn254 1.953 1_556 S
O253 C269 1.225 . S
Zn254 O253 1.953 1_554 S
Zn254 O255 1.949 . S
Zn254 O261 1.919 . S
Zn254 O266 1.924 . S
O255 Zn254 1.949 . S
O255 Zn256 1.923 . S
O255 Zn257 1.950 1_554 S
O255 Zn258 1.945 . S
Zn256 O255 1.923 . S
Zn256 O259 1.933 . S
Zn256 O262 1.941 . S
Zn256 O263 1.965 . S
Zn257 O255 1.950 1_556 S
Zn257 O264 1.938 . S
Zn257 O265 1.906 1_556 S
Zn257 O275 1.953 . S
Zn258 O255 1.945 . S
Zn258 O260 1.932 . S
Zn258 O267 1.977 . S
Zn258 O268 1.910 . S
O259 Zn256 1.933 . S
O259 C270 1.226 . S
O260 Zn258 1.932 . S
O260 C270 1.307 . S
O261 Zn254 1.919 . S
O261 C272 1.253 . S
O262 Zn256 1.941 . S
O262 C272 1.283 . S
O263 Zn256 1.965 . S
O263 C271 1.303 . S
O264 Zn257 1.938 . S
O264 C271 1.247 1_556 S
O265 Zn257 1.906 1_554 S
O265 C273 1.304 . S
O266 Zn254 1.924 . S
O266 C274 1.311 . S
O267 Zn258 1.977 . S
O267 C273 1.272 . S
O268 Zn258 1.910 . S
O268 C274 1.231 . S
C269 O253 1.225 . S
C269 O275 1.298 . S
C270 O259 1.226 . S
C270 O260 1.307 . S
C271 O263 1.303 . S
C271 O264 1.247 1_554 S
C272 O261 1.253 . S
C272 O262 1.283 . S
C273 O265 1.304 . S
C273 O267 1.272 . S
C274 O266 1.311 . S
C274 O268 1.231 . S
O275 Zn257 1.953 . S
O275 C269 1.298 . S
O276 Zn277 1.953 . S
O276 C292 1.225 . S
Zn277 O276 1.953 . S
Zn277 O278 1.949 . S
Zn277 O284 1.919 . S
Zn277 O289 1.924 . S
O278 Zn277 1.949 . S
O278 Zn279 1.923 1_554 S
O278 Zn280 1.950 . S
O278 Zn281 1.945 1_554 S
Zn279 O278 1.923 1_556 S
Zn279 O282 1.933 . S
Zn279 O285 1.941 1_556 S
Zn279 O286 1.965 1_556 S
Zn280 O278 1.950 . S
Zn280 O287 1.938 . S
Zn280 O288 1.906 . S
Zn280 O298 1.953 . S
Zn281 O278 1.945 1_556 S
Zn281 O283 1.932 . S
Zn281 O290 1.977 1_556 S
Zn281 O291 1.910 1_556 S
O282 Zn279 1.933 . S
O282 C293 1.226 . S
O283 Zn281 1.932 . S
O283 C293 1.307 . S
O284 Zn277 1.919 . S
O284 C295 1.253 . S
O285 Zn279 1.941 1_554 S
O285 C295 1.283 . S
O286 Zn279 1.965 1_554 S
O286 C294 1.303 . S
O287 Zn280 1.938 . S
O287 C294 1.247 . S
O288 Zn280 1.906 . S
O288 C296 1.304 . S
O289 Zn277 1.924 . S
O289 C297 1.311 . S
O290 Zn281 1.977 1_554 S
O290 C296 1.272 . S
O291 Zn281 1.910 1_554 S
O291 C297 1.231 . S
C292 O276 1.225 . S
C292 O298 1.298 . S
C293 O282 1.226 . S
C293 O283 1.307 . S
C294 O286 1.303 . S
C294 O287 1.247 . S
C295 O284 1.253 . S
C295 O285 1.283 . S
C296 O288 1.304 . S
C296 O290 1.272 . S
C297 O289 1.311 . S
C297 O291 1.231 . S
O298 Zn280 1.953 . S
O298 C292 1.298 . S
O299 Zn300 1.953 1_554 S
O299 C315 1.225 . S
Zn300 O299 1.953 1_556 S
Zn300 O301 1.949 . S
Zn300 O307 1.919 . S
Zn300 O312 1.924 . S
O301 Zn300 1.949 . S
O301 Zn302 1.923 . S
O301 Zn303 1.950 1_556 S
O301 Zn304 1.945 . S
Zn302 O301 1.923 . S
Zn302 O305 1.933 . S
Zn302 O308 1.941 . S
Zn302 O309 1.965 . S
Zn303 O301 1.950 1_554 S
Zn303 O310 1.938 . S
Zn303 O311 1.906 1_554 S
Zn303 O321 1.953 . S
Zn304 O301 1.945 . S
Zn304 O306 1.932 . S
Zn304 O313 1.977 . S
Zn304 O314 1.910 . S
O305 Zn302 1.933 . S
O305 C316 1.226 . S
O306 Zn304 1.932 . S
O306 C316 1.307 . S
O307 Zn300 1.919 . S
O307 C318 1.253 . S
O308 Zn302 1.941 . S
O308 C318 1.283 . S
O309 Zn302 1.965 . S
O309 C317 1.303 . S
O310 Zn303 1.938 . S
O310 C317 1.247 1_554 S
O311 Zn303 1.906 1_556 S
O311 C319 1.304 . S
O312 Zn300 1.924 . S
O312 C320 1.311 . S
O313 Zn304 1.977 . S
O313 C319 1.272 . S
O314 Zn304 1.910 . S
O314 C320 1.231 . S
C315 O299 1.225 . S
C315 O321 1.298 . S
C316 O305 1.226 . S
C316 O306 1.307 . S
C317 O309 1.303 . S
C317 O310 1.247 1_556 S
C318 O307 1.253 . S
C318 O308 1.283 . S
C319 O311 1.304 . S
C319 O313 1.272 . S
C320 O312 1.311 . S
C320 O314 1.231 . S
O321 Zn303 1.953 . S
O321 C315 1.298 . S
O322 Zn323 1.953 . S
O322 C338 1.225 . S
Zn323 O322 1.953 . S
Zn323 O324 1.949 . S
Zn323 O330 1.919 . S
Zn323 O335 1.924 . S
O324 Zn323 1.949 . S
O324 Zn325 1.923 . S
O324 Zn326 1.950 . S
O324 Zn327 1.945 . S
Zn325 O324 1.923 . S
Zn325 O328 1.933 . S
Zn325 O331 1.941 . S
Zn325 O332 1.965 . S
Zn326 O324 1.950 . S
Zn326 O333 1.938 . S
Zn326 O334 1.906 . S
Zn326 O344 1.953 . S
Zn327 O324 1.945 . S
Zn327 O329 1.932 . S
Zn327 O336 1.977 . S
Zn327 O337 1.910 . S
O328 Zn325 1.933 . S
O328 C339 1.226 1_556 S
O329 Zn327 1.932 . S
O329 C339 1.307 1_556 S
O330 Zn323 1.919 . S
O330 C341 1.253 . S
O331 Zn325 1.941 . S
O331 C341 1.283 . S
O332 Zn325 1.965 . S
O332 C340 1.303 . S
O333 Zn326 1.938 . S
O333 C340 1.247 . S
O334 Zn326 1.906 . S
O334 C342 1.304 . S
O335 Zn323 1.924 . S
O335 C343 1.311 . S
O336 Zn327 1.977 . S
O336 C342 1.272 . S
O337 Zn327 1.910 . S
O337 C343 1.231 . S
C338 O322 1.225 . S
C338 O344 1.298 . S
C339 O328 1.226 1_554 S
C339 O329 1.307 1_554 S
C340 O332 1.303 . S
C340 O333 1.247 . S
C341 O330 1.253 . S
C341 O331 1.283 . S
C342 O334 1.304 . S
C342 O336 1.272 . S
C343 O335 1.311 . S
C343 O337 1.231 . S
O344 Zn326 1.953 . S
O344 C338 1.298 . S
O345 Zn346 1.953 . S
O345 C361 1.225 1_554 S
Zn346 O345 1.953 . S
Zn346 O347 1.949 . S
Zn346 O353 1.919 . S
Zn346 O358 1.924 . S
O347 Zn346 1.949 . S
O347 Zn348 1.923 . S
O347 Zn349 1.950 . S
O347 Zn350 1.945 . S
Zn348 O347 1.923 . S
Zn348 O351 1.933 . S
Zn348 O354 1.941 . S
Zn348 O355 1.965 . S
Zn349 O347 1.950 . S
Zn349 O356 1.938 . S
Zn349 O357 1.906 . S
Zn349 O367 1.953 . S
Zn350 O347 1.945 . S
Zn350 O352 1.932 . S
Zn350 O359 1.977 . S
Zn350 O360 1.910 . S
O351 Zn348 1.933 . S
O351 C362 1.226 . S
O352 Zn350 1.932 . S
O352 C362 1.307 . S
O353 Zn346 1.919 . S
O353 C364 1.253 . S
O354 Zn348 1.941 . S
O354 C364 1.283 . S
O355 Zn348 1.965 . S
O355 C363 1.303 . S
O356 Zn349 1.938 . S
O356 C363 1.247 . S
O357 Zn349 1.906 . S
O357 C365 1.304 . S
O358 Zn346 1.924 . S
O358 C366 1.311 . S
O359 Zn350 1.977 . S
O359 C365 1.272 . S
O360 Zn350 1.910 . S
O360 C366 1.231 . S
C361 O345 1.225 1_556 S
C361 O367 1.298 1_556 S
C362 O351 1.226 . S
C362 O352 1.307 . S
C363 O355 1.303 . S
C363 O356 1.247 . S
C364 O353 1.253 . S
C364 O354 1.283 . S
C365 O357 1.304 . S
C365 O359 1.272 . S
C366 O358 1.311 . S
C366 O360 1.231 . S
O367 Zn349 1.953 . S
O367 C361 1.298 1_554 S
C17 C16 1.543 . S
C39 C40 1.543 . S
C63 C62 1.546 . S
C86 C85 1.543 . S
C109 C108 1.544 . S
C132 C131 1.546 . S
C154 C155 1.544 . S
C177 C178 1.539 . S
C201 C200 1.575 . S
C224 C223 1.576 . S
C246 C247 1.587 . S
C270 C269 1.585 . S
C293 C292 1.580 . S
C316 C315 1.587 . S
C338 C339 1.582 . S
C361 C362 1.575 . S
C19 C274 1.415 . S
C44 C366 1.412 . S
C65 C227 1.437 . S
C88 C319 1.459 1_655 S
C111 C320 1.425 . S
C273 C136 1.401 1_455 S
C159 C365 1.369 . S
C182 C228 1.401 . S
C90 C204 1.366 . S
C42 C250 1.455 . S
C296 C134 1.437 . S
C180 C343 1.403 . S
C205 C113 1.418 1_655 S
C157 C251 1.438 . S
C67 C342 1.399 . S
C21 C297 1.414 1_455 S
C20 C112 1.454 1_554 S
C41 C133 1.504 . S
C66 C156 1.515 . S
C89 C179 1.472 . S
C295 C203 1.496 1_554 S
C318 C225 1.477 . S
C249 C340 1.483 . S
C363 C272 1.472 . S
C43 C181 1.441 1_565 S
C110 C64 1.502 . S
C135 C87 1.517 1_564 S
C18 C158 1.487 . S
C364 C226 1.493 1_565 S
C294 C248 1.387 . S
C317 C271 1.410 1_546 S
C341 C202 1.468 . S
