# Generated by pormake.
# Topology afw, (4)-cn, num edge types: 1
# Building blocks:
#     Node 0, Type 0, BuildingBlock: GALJAG_clean_sbu_0, # of connection points: 4
#     Node 1, Type 0, BuildingBlock: GALJAG_clean_sbu_0, # of connection points: 4
#     Node 2, Type 0, BuildingBlock: GALJAG_clean_sbu_0, # of connection points: 4
#     Node 3, Type 0, BuildingBlock: GALJAG_clean_sbu_0, # of connection points: 4
#     Node 4, Type 0, BuildingBlock: GALJAG_clean_sbu_0, # of connection points: 4
#     Node 5, Type 0, BuildingBlock: GALJAG_clean_sbu_0, # of connection points: 4
#     Node 6, Type 0, BuildingBlock: GALJAG_clean_sbu_0, # of connection points: 4
#     Node 7, Type 0, BuildingBlock: GALJAG_clean_sbu_0, # of connection points: 4
#     Node 8, Type 0, BuildingBlock: GALJAG_clean_sbu_0, # of connection points: 4
#     Edge 9, Type (0, 0), BuildingBlock: KIFKEQ_clean_linker_1, # of connection points: 2
#     Edge 10, Type (0, 0), BuildingBlock: KIFKEQ_clean_linker_1, # of connection points: 2
#     Edge 11, Type (0, 0), BuildingBlock: KIFKEQ_clean_linker_1, # of connection points: 2
#     Edge 12, Type (0, 0), BuildingBlock: KIFKEQ_clean_linker_1, # of connection points: 2
#     Edge 13, Type (0, 0), BuildingBlock: KIFKEQ_clean_linker_1, # of connection points: 2
#     Edge 14, Type (0, 0), BuildingBlock: KIFKEQ_clean_linker_1, # of connection points: 2
#     Edge 15, Type (0, 0), BuildingBlock: KIFKEQ_clean_linker_1, # of connection points: 2
#     Edge 16, Type (0, 0), BuildingBlock: KIFKEQ_clean_linker_1, # of connection points: 2
#     Edge 17, Type (0, 0), BuildingBlock: KIFKEQ_clean_linker_1, # of connection points: 2
#     Edge 18, Type (0, 0), BuildingBlock: KIFKEQ_clean_linker_1, # of connection points: 2
#     Edge 19, Type (0, 0), BuildingBlock: KIFKEQ_clean_linker_1, # of connection points: 2
#     Edge 20, Type (0, 0), BuildingBlock: KIFKEQ_clean_linker_1, # of connection points: 2
#     Edge 21, Type (0, 0), BuildingBlock: KIFKEQ_clean_linker_1, # of connection points: 2
#     Edge 22, Type (0, 0), BuildingBlock: KIFKEQ_clean_linker_1, # of connection points: 2
#     Edge 23, Type (0, 0), BuildingBlock: KIFKEQ_clean_linker_1, # of connection points: 2
#     Edge 24, Type (0, 0), BuildingBlock: KIFKEQ_clean_linker_1, # of connection points: 2
#     Edge 25, Type (0, 0), BuildingBlock: KIFKEQ_clean_linker_1, # of connection points: 2
#     Edge 26, Type (0, 0), BuildingBlock: KIFKEQ_clean_linker_1, # of connection points: 2
# Relax obj value: 0.092
# Max RMSD: 0.157
# Mean RMSD: 0.157
data_MOF--net-afw--node1-GALJAG_clean_sbu_0--edge1-KIFKEQ_clean_linker_1
_symmetry_space_group_name_H-M    P1
_symmetry_Int_Tables_number       1
_symmetry_cell_setting            triclinic
loop_
_symmetry_equiv_pos_as_xyz
'x, y, z'
_cell_length_a     47.073917
_cell_length_b     47.170498
_cell_length_c     28.253077
_cell_angle_alpha  90.131456
_cell_angle_beta   89.702079
_cell_angle_gamma 120.30598
loop_
_atom_site_label
_atom_site_type_symbol
_atom_site_fract_x
_atom_site_fract_y
_atom_site_fract_z
_atom_type_partial_charge
In0 In 0.00555 0.19943 -0.00823 0.0
O1 O 0.0041 0.22495 0.92389 0.0
O2 O 0.04688 0.24841 0.96747 0.0
C3 C 0.95432 0.13769 -0.00769 0.0
C4 C 0.98513 0.22842 0.05385 0.0
C5 C 0.05228 0.18291 -0.00994 0.0
O6 O 0.96259 0.1553 0.95534 0.0
O7 O 0.97137 0.15165 0.02846 0.0
O8 O 0.04726 0.19565 0.02637 0.0
O9 O 0.034 0.17901 0.95516 0.0
C10 C 0.03237 0.2497 0.93081 0.0
O11 O 0.00805 0.2228 0.06379 0.0
O12 O 0.9726 0.21892 0.01342 0.0
In13 In 0.8236 0.83129 -0.00998 0.0
O14 O 0.80132 0.80926 0.91818 0.0
O15 O 0.77146 0.81527 0.9698 0.0
C16 C 0.886 0.84399 -0.00971 0.0
C17 C 0.79738 0.78083 0.05079 0.0
C18 C 0.83648 0.89362 -0.01059 0.0
O19 O 0.86782 0.83227 0.95423 0.0
O20 O 0.87244 0.84878 0.02563 0.0
O21 O 0.82437 0.8754 0.02548 0.0
O22 O 0.84159 0.88015 0.95433 0.0
C23 C 0.77349 0.80559 0.9289 0.0
O24 O 0.80147 0.80868 0.06199 0.0
O25 O 0.8069 0.77898 0.00966 0.0
In26 In 0.19215 0.01535 -0.01337 0.0
O27 O 0.21487 0.01461 0.05754 0.0
O28 O 0.24325 0.05338 0.00869 0.0
C29 C 0.13043 0.96396 -0.01478 0.0
C30 C 0.22184 -0.00452 0.92497 0.0
C31 C 0.17643 0.06269 -0.01191 0.0
O32 O 0.14816 0.97136 0.02188 0.0
O33 O 0.14423 0.982 0.94969 0.0
O34 O 0.18799 0.05668 0.95133 0.0
O35 O 0.17344 0.0452 0.02361 0.0
C36 C 0.24199 0.04032 0.04815 0.0
O37 O 0.21752 0.01932 0.9159 0.0
O38 O 0.21035 0.98146 0.96418 0.0
In39 In 0.6765 0.53366 0.32686 0.0
O40 O 0.67632 0.55625 0.25565 0.0
O41 O 0.7139 0.58536 0.3055 0.0
C42 C 0.62596 0.47157 0.32685 0.0
C43 C 0.65214 0.56078 0.38552 0.0
C44 C 0.7253 0.51984 0.32859 0.0
O45 O 0.63609 0.48839 0.28922 0.0
O46 O 0.64097 0.48632 0.36397 0.0
O47 O 0.71833 0.53131 0.36455 0.0
O48 O 0.70804 0.51602 0.29254 0.0
C49 C 0.70136 0.58372 0.26546 0.0
O50 O 0.67576 0.55674 0.39767 0.0
O51 O 0.64093 0.55068 0.34456 0.0
In52 In 0.49131 0.166 0.31879 0.0
O53 O 0.46896 0.14465 0.24664 0.0
O54 O 0.43863 0.14814 0.30018 0.0
C55 C 0.55399 0.17984 0.31329 0.0
C56 C 0.46489 0.11284 0.37415 0.0
C57 C 0.50257 0.22746 0.32971 0.0
O58 O 0.53715 0.17597 0.2765 0.0
O59 O 0.53912 0.17657 0.35194 0.0
O60 O 0.49909 0.20941 0.36489 0.0
O61 O 0.49987 0.21428 0.28988 0.0
C62 C 0.44071 0.13937 0.25869 0.0
O63 O 0.46377 0.1383 0.38532 0.0
O64 O 0.4798 0.11476 0.33595 0.0
In65 In 0.86069 0.34867 0.33336 0.0
O66 O 0.88246 0.34643 0.40438 0.0
O67 O 0.91163 0.38606 0.35716 0.0
C68 C 0.79856 0.29812 0.33066 0.0
C69 C 0.88956 0.32711 0.27299 0.0
C70 C 0.84643 0.39711 0.33345 0.0
O71 O 0.81457 0.3075 0.36894 0.0
O72 O 0.81418 0.31375 0.29425 0.0
O73 O 0.85888 0.39128 0.2975 0.0
O74 O 0.84178 0.37884 0.36864 0.0
C75 C 0.90973 0.37227 0.39622 0.0
O76 O 0.88531 0.35085 0.26265 0.0
O77 O 0.87876 0.3143 0.31311 0.0
In78 In 0.3404 0.86885 0.65004 0.0
O79 O 0.33513 0.88828 0.57859 0.0
O80 O 0.3808 0.91434 0.61547 0.0
C81 C 0.28778 0.80855 0.66125 0.0
C82 C 0.32487 0.90373 0.70876 0.0
C83 C 0.38693 0.85204 0.64791 0.0
O84 O 0.29382 0.82392 0.62241 0.0
O85 O 0.30803 0.82381 0.69391 0.0
O86 O 0.38502 0.86889 0.68148 0.0
O87 O 0.36534 0.84377 0.61619 0.0
C88 C 0.36415 0.91265 0.57962 0.0
O89 O 0.3462 0.8961 0.71981 0.0
O90 O 0.31175 0.8936 0.66886 0.0
In91 In 0.1533 0.50632 0.67654 0.0
O92 O 0.13232 0.48255 0.60493 0.0
O93 O 0.09977 0.48313 0.65728 0.0
C94 C 0.21754 0.52569 0.67258 0.0
C95 C 0.1326 0.45709 0.73893 0.0
C96 C 0.16055 0.56656 0.67651 0.0
O97 O 0.19839 0.51112 0.63828 0.0
O98 O 0.20411 0.53013 0.70842 0.0
O99 O 0.15404 0.54981 0.71415 0.0
O100 O 0.16255 0.55249 0.63968 0.0
C101 C 0.10317 0.47468 0.61621 0.0
O102 O 0.12743 0.48069 0.74541 0.0
O103 O 0.1487 0.45904 0.70204 0.0
In104 In 0.52747 0.6883 0.65171 0.0
O105 O 0.54958 0.68767 0.72307 0.0
O106 O 0.58015 0.72338 0.67164 0.0
C107 C 0.46364 0.64142 0.65516 0.0
C108 C 0.55171 0.66165 0.59173 0.0
C109 C 0.51736 0.73943 0.64912 0.0
O110 O 0.4822 0.64843 0.69081 0.0
O111 O 0.47761 0.65742 0.61815 0.0
O112 O 0.52584 0.72989 0.61254 0.0
O113 O 0.51498 0.72371 0.68642 0.0
C114 C 0.57782 0.71134 0.71232 0.0
O115 O 0.55046 0.68705 0.58096 0.0
O116 O 0.54004 0.64963 0.63189 0.0
H117 H 0.17843 0.10272 0.91651 0.0
H118 H 0.14819 0.07634 0.06206 0.0
H119 H 0.1543 0.13804 0.91682 0.0
H120 H 0.12332 0.11061 0.06202 0.0
H121 H 0.09491 0.18794 0.05961 0.0
H122 H 0.13127 0.16496 0.05885 0.0
H123 H 0.09919 0.12849 0.9171 0.0
H124 H 0.06386 0.1522 0.91742 0.0
C125 C 0.16689 0.1047 0.94864 0.0
C126 C 0.16497 0.08661 -0.01088 0.0
C127 C 0.15292 0.12477 0.94878 0.0
C128 C 0.13666 0.127 -0.01064 0.0
C129 C 0.136 0.10987 0.03036 0.0
C130 C 0.15005 0.08997 0.03026 0.0
C131 C 0.09603 0.17539 0.02814 0.0
C132 C 0.07638 0.17165 -0.01125 0.0
C133 C 0.11672 0.1621 0.02773 0.0
C134 C 0.11803 0.14471 -0.012 0.0
C135 C 0.0992 0.1421 0.94804 0.0
C136 C 0.07869 0.15547 0.94838 0.0
H137 H 0.82817 0.92937 0.05912 0.0
H138 H 0.86669 0.937 0.9177 0.0
H139 H 0.84902 0.9885 0.05942 0.0
H140 H 0.88843 -0.00419 0.91849 0.0
H141 H 0.915 0.1003 0.91935 0.0
H142 H 0.87886 0.04068 0.91833 0.0
H143 H 0.90199 0.03621 0.06506 0.0
H144 H 0.93684 0.09548 0.06641 0.0
C145 C 0.84086 0.94364 0.02802 0.0
C146 C 0.84607 0.92864 -0.01141 0.0
C147 C 0.85293 0.97752 0.02821 0.0
C148 C 0.87063 -0.00296 -0.01092 0.0
C149 C 0.87454 0.98163 0.94898 0.0
C150 C 0.86232 0.94785 0.9487 0.0
C151 C 0.91177 0.08655 0.95155 0.0
C152 C 0.929 0.10249 -0.00722 0.0
C153 C 0.89125 0.05239 0.95095 0.0
C154 C 0.88778 0.03352 -0.00853 0.0
C155 C 0.90369 0.04983 0.03334 0.0
C156 C 0.92395 0.08389 0.034 0.0
H157 H 0.922 0.83699 0.91946 0.0
H158 H 0.92934 0.87307 0.06214 0.0
H159 H 0.98135 0.85837 0.91828 0.0
H160 H 0.98838 0.8953 0.06053 0.0
H161 H 0.09343 0.92295 0.05733 0.0
H162 H 0.03379 0.88621 0.05866 0.0
H163 H 0.02862 0.91197 0.91347 0.0
H164 H 0.08793 0.94753 0.91179 0.0
C165 C 0.93625 0.84922 0.95066 0.0
C166 C 0.92111 0.85365 -0.00931 0.0
C167 C 0.97024 0.8616 0.94997 0.0
C168 C 0.98974 0.87879 -0.01081 0.0
C169 C 0.9742 0.88184 0.02992 0.0
C170 C 0.94031 0.86933 0.03069 0.0
C171 C 0.07953 0.92019 0.0255 0.0
C172 C 0.09527 0.93836 -0.01535 0.0
C173 C 0.04537 0.89932 0.02629 0.0
C174 C 0.0263 0.89639 -0.01367 0.0
C175 C 0.04242 0.91326 0.94474 0.0
C176 C 0.0765 0.93391 0.94389 0.0
H177 H 0.81603 0.40984 0.40534 0.0
H178 H 0.85282 0.43984 0.26299 0.0
H179 H 0.79273 0.44544 0.40425 0.0
H180 H 0.83035 0.47661 0.26236 0.0
H181 H 0.74118 0.49266 0.25588 0.0
H182 H 0.77631 0.46884 0.25773 0.0
H183 H 0.80121 0.49979 0.4032 0.0
H184 H 0.76487 0.52282 0.40169 0.0
C185 C 0.81968 0.42456 0.37406 0.0
C186 C 0.83593 0.42178 0.33402 0.0
C187 C 0.80655 0.44526 0.3736 0.0
C188 C 0.8095 0.46385 0.33315 0.0
C189 C 0.82717 0.46223 0.29384 0.0
C190 C 0.84018 0.44131 0.29422 0.0
C191 C 0.75443 0.49476 0.28814 0.0
C192 C 0.74998 0.50929 0.32884 0.0
C193 C 0.77487 0.48132 0.28907 0.0
C194 C 0.79153 0.48223 0.33067 0.0
C195 C 0.78832 0.49822 0.37078 0.0
C196 C 0.76767 0.51156 0.3699 0.0
H197 H 0.534 0.26906 0.4032 0.0
H198 H 0.49347 0.26441 0.26484 0.0
H199 H 0.55865 0.32855 0.40328 0.0
H200 H 0.51642 0.32364 0.26571 0.0
H201 H 0.60402 0.42902 0.25248 0.0
H202 H 0.56855 0.36968 0.25574 0.0
H203 H 0.55423 0.37572 0.40603 0.0
H204 H 0.59119 0.43496 0.40284 0.0
C205 C 0.52957 0.28074 0.37343 0.0
C206 C 0.5122 0.2623 0.33383 0.0
C207 C 0.54358 0.31487 0.37345 0.0
C208 C 0.53996 0.33113 0.33415 0.0
C209 C 0.52054 0.31217 0.296 0.0
C210 C 0.50711 0.27818 0.29564 0.0
C211 C 0.59287 0.41765 0.28601 0.0
C212 C 0.60055 0.43648 0.32744 0.0
C213 C 0.57233 0.38358 0.28796 0.0
C214 C 0.55859 0.36767 0.33131 0.0
C215 C 0.56491 0.38693 0.37226 0.0
C216 C 0.58589 0.42093 0.3704 0.0
H217 H 0.58833 0.17045 0.38213 0.0
H218 H 0.5986 0.21151 0.2425 0.0
H219 H 0.64741 0.19209 0.3853 0.0
H220 H 0.65801 0.23492 0.24642 0.0
H221 H 0.76361 0.26408 0.25348 0.0
H222 H 0.70416 0.22872 0.24738 0.0
H223 H 0.69446 0.24295 0.39667 0.0
H224 H 0.75395 0.27672 0.4029 0.0
C225 C 0.60333 0.18404 0.35199 0.0
C226 C 0.58904 0.18955 0.31219 0.0
C227 C 0.63725 0.19668 0.35392 0.0
C228 C 0.65776 0.21577 0.31649 0.0
C229 C 0.64312 0.22004 0.27576 0.0
C230 C 0.60905 0.20678 0.27348 0.0
C231 C 0.7487 0.25904 0.28511 0.0
C232 C 0.76329 0.27321 0.32863 0.0
C233 C 0.71459 0.23902 0.28157 0.0
C234 C 0.69426 0.23323 0.32133 0.0
C235 C 0.70916 0.24636 0.36532 0.0
C236 C 0.74334 0.2659 0.36898 0.0
H237 H 0.39284 0.81372 0.58131 0.0
H238 H 0.43747 0.86768 0.70955 0.0
H239 H 0.43108 0.79344 0.58008 0.0
H240 H 0.47663 0.84803 0.70767 0.0
H241 H 0.49893 0.76285 0.72386 0.0
H242 H 0.47295 0.79607 0.72166 0.0
H243 H 0.48708 0.80612 0.57001 0.0
H244 H 0.51238 0.77185 0.57216 0.0
C245 C 0.41118 0.82163 0.60892 0.0
C246 C 0.41194 0.84198 0.64584 0.0
C247 C 0.43337 0.81027 0.60793 0.0
C248 C 0.45697 0.8191 0.64376 0.0
C249 C 0.45849 0.84046 0.67983 0.0
C250 C 0.43614 0.85176 0.6809 0.0
C251 C 0.49701 0.7726 0.6901 0.0
C252 C 0.50725 0.76438 0.64807 0.0
C253 C 0.48231 0.79188 0.68889 0.0
C254 C 0.47759 0.80349 0.6456 0.0
C255 C 0.48982 0.79704 0.60385 0.0
C256 C 0.50451 0.77763 0.60507 0.0
H257 H 0.23739 0.77142 0.60033 0.0
H258 H 0.27765 0.76833 0.73593 0.0
H259 H 0.19726 0.71286 0.60681 0.0
H260 H 0.23889 0.70989 0.74154 0.0
H261 H 0.16276 0.60508 0.75096 0.0
H262 H 0.18512 0.66447 0.74985 0.0
H263 H 0.20117 0.66537 0.59885 0.0
H264 H 0.17773 0.60643 0.59984 0.0
C265 C 0.23746 0.75827 0.63166 0.0
C266 C 0.26089 0.77429 0.66729 0.0
C267 C 0.21459 0.7247 0.63534 0.0
C268 C 0.21505 0.70643 0.67442 0.0
C269 C 0.2374 0.72305 0.71121 0.0
C270 C 0.25992 0.75661 0.70778 0.0
C271 C 0.17039 0.61799 0.71747 0.0
C272 C 0.16892 0.60122 0.67562 0.0
C273 C 0.18341 0.65203 0.71682 0.0
C274 C 0.19542 0.66989 0.67435 0.0
C275 C 0.1919 0.65259 0.63215 0.0
C276 C 0.17869 0.61869 0.63277 0.0
H277 H 0.26291 0.56061 0.7401 0.0
H278 H 0.2527 0.51809 0.60123 0.0
H279 H 0.32216 0.58388 0.73586 0.0
H280 H 0.31217 0.54065 0.59744 0.0
H281 H 0.41978 0.62607 0.58377 0.0
H282 H 0.36014 0.59402 0.58853 0.0
H283 H 0.36644 0.5724 0.7354 0.0
H284 H 0.42643 0.60548 0.73089 0.0
C285 C 0.27332 0.55585 0.70888 0.0
C286 C 0.2532 0.53771 0.67084 0.0
C287 C 0.30731 0.56897 0.70662 0.0
C288 C 0.32199 0.56415 0.66632 0.0
C289 C 0.3017 0.54519 0.62876 0.0
C290 C 0.26764 0.53215 0.63097 0.0
C291 C 0.40848 0.61415 0.61695 0.0
C292 C 0.42776 0.61849 0.65709 0.0
C293 C 0.37422 0.59556 0.61959 0.0
C294 C 0.35843 0.58074 0.66241 0.0
C295 C 0.37783 0.58392 0.70207 0.0
C296 C 0.41217 0.60267 0.69945 0.0
H297 H 0.09672 0.29672 0.92542 0.0
H298 H 0.00113 0.26917 0.86876 0.0
H299 H 0.12121 0.34769 0.88007 0.0
H300 H 0.02577 0.32068 0.82366 0.0
H301 H 0.08121 0.43526 0.80138 0.0
H302 H 0.05611 0.38389 0.84685 0.0
H303 H 0.12853 0.36222 0.79067 0.0
H304 H 0.15325 0.41304 0.74496 0.0
C305 C 0.081 0.30152 0.90304 0.0
C306 C 0.04708 0.27904 0.90039 0.0
C307 C 0.09502 0.33064 0.87715 0.0
C308 C 0.07529 0.33807 0.84873 0.0
C309 C 0.04137 0.31554 0.84576 0.0
C310 C 0.02739 0.28604 0.8711 0.0
C311 C 0.09188 0.41962 0.79922 0.0
C312 C 0.11917 0.42805 0.76985 0.0
C313 C 0.07737 0.39019 0.82476 0.0
C314 C 0.09037 0.36918 0.82192 0.0
C315 C 0.11814 0.37809 0.7935 0.0
C316 C 0.13225 0.40712 0.76741 0.0
H317 H 0.77151 0.78604 0.8371 0.0
H318 H 0.71111 0.79132 0.94853 0.0
H319 H 0.7238 0.76141 0.78455 0.0
H320 H 0.66375 0.76707 0.89611 0.0
H321 H 0.5791 0.6929 0.80361 0.0
H322 H 0.62683 0.71419 0.85585 0.0
H323 H 0.68846 0.77937 0.74479 0.0
H324 H 0.64101 0.75799 0.69261 0.0
C325 C 0.74808 0.78194 0.8503 0.0
C326 C 0.74502 0.79066 0.89678 0.0
C327 C 0.72085 0.76797 0.82026 0.0
C328 C 0.69007 0.76228 0.83633 0.0
C329 C 0.68703 0.77076 0.88296 0.0
C330 C 0.71423 0.78488 0.91282 0.0
C331 C 0.60287 0.71173 0.79043 0.0
C332 C 0.60635 0.72388 0.74418 0.0
C333 C 0.63013 0.72397 0.82031 0.0
C334 C 0.66134 0.74841 0.80431 0.0
C335 C 0.6648 0.76027 0.75787 0.0
C336 C 0.63757 0.74819 0.72816 0.0
H337 H 0.34131 0.92061 0.80163 0.0
H338 H 0.28537 0.92808 0.6865 0.0
H339 H 0.3201 0.94694 0.85452 0.0
H340 H 0.264 0.95382 0.73911 0.0
H341 H 0.24904 0.02085 0.83841 0.0
H342 H 0.27896 0.00318 0.78651 0.0
H343 H 0.26519 0.92919 0.88862 0.0
H344 H 0.23582 0.94703 0.9405 0.0
C345 C 0.32477 0.92815 0.78759 0.0
C346 C 0.31474 0.92206 0.74016 0.0
C347 C 0.31253 0.94305 0.81781 0.0
C348 C 0.29028 0.95228 0.80094 0.0
C349 C 0.28135 0.94731 0.75304 0.0
C350 C 0.2934 0.93231 0.72301 0.0
C351 C 0.25251 0.00088 0.84969 0.0
C352 C 0.23991 0.98515 0.89326 0.0
C353 C 0.26961 0.99078 0.82007 0.0
C354 C 0.27449 0.96487 0.83362 0.0
C355 C 0.26229 0.94955 0.87754 0.0
C356 C 0.24515 0.95955 0.90701 0.0
H357 H 0.43852 0.12293 0.16524 0.0
H358 H 0.37752 0.11998 0.28216 0.0
H359 H 0.38997 0.09705 0.11428 0.0
H360 H 0.32932 0.09443 0.23139 0.0
H361 H 0.24581 0.01956 0.13707 0.0
H362 H 0.29438 0.04192 0.1879 0.0
H363 H 0.35149 0.11356 0.08043 0.0
H364 H 0.30329 0.09125 0.02975 0.0
C365 C 0.41479 0.11673 0.17999 0.0
C366 C 0.41179 0.12358 0.22751 0.0
C367 C 0.38707 0.10204 0.15089 0.0
C368 C 0.35591 0.09372 0.16898 0.0
C369 C 0.35294 0.10021 0.21667 0.0
C370 C 0.38061 0.11508 0.24558 0.0
C371 C 0.26876 0.04008 0.12444 0.0
C372 C 0.27077 0.05375 0.07961 0.0
C373 C 0.29649 0.05289 0.15347 0.0
C374 C 0.3267 0.07939 0.13795 0.0
C375 C 0.32866 0.09286 0.09301 0.0
C376 C 0.30097 0.08024 0.06421 0.0
H377 H 0.94051 0.24716 0.03513 0.0
H378 H 0.00389 0.24749 0.14549 0.0
H379 H 0.92005 0.27349 0.08831 0.0
H380 H 0.9835 0.2743 0.19889 0.0
H381 H 0.90466 0.27978 0.29166 0.0
H382 H 0.93049 0.25837 0.23899 0.0
H383 H 0.93811 0.326 0.13 0.0
H384 H 0.91184 0.34728 0.18274 0.0
C385 C 0.9502 0.25302 0.07075 0.0
C386 C 0.97366 0.24511 0.08631 0.0
C387 C 0.93866 0.26836 0.10106 0.0
C388 C 0.95022 0.27602 0.14769 0.0
C389 C 0.97398 0.26843 0.16319 0.0
C390 C 0.98569 0.2532 0.13268 0.0
C391 C 0.91193 0.29017 0.2565 0.0
C392 C 0.90605 0.31505 0.24113 0.0
C393 C 0.92698 0.27808 0.22651 0.0
C394 C 0.93634 0.29052 0.18044 0.0
C395 C 0.93087 0.31575 0.16524 0.0
C396 C 0.91593 0.32798 0.19539 0.0
H397 H 0.75062 0.64583 0.28403 0.0
H398 H 0.68174 0.5864 0.17545 0.0
H399 H 0.77246 0.69366 0.23238 0.0
H400 H 0.70357 0.6345 0.12372 0.0
H401 H 0.7808 0.71822 0.02935 0.0
H402 H 0.75634 0.6705 0.08124 0.0
H403 H 0.75481 0.7305 0.19583 0.0
H404 H 0.7796 0.77858 0.14375 0.0
C405 C 0.74014 0.643 0.24909 0.0
C406 C 0.71457 0.61237 0.23362 0.0
C407 C 0.75248 0.67046 0.21971 0.0
C408 C 0.73965 0.66781 0.17414 0.0
C409 C 0.71407 0.63716 0.1586 0.0
C410 C 0.70155 0.60968 0.18817 0.0
C411 C 0.77522 0.72127 0.0656 0.0
C412 C 0.7822 0.75214 0.08262 0.0
C413 C 0.76099 0.69387 0.09518 0.0
C414 C 0.75362 0.69678 0.14249 0.0
C415 C 0.76049 0.72764 0.15955 0.0
C416 C 0.77455 0.75508 0.12978 0.0
H417 H 0.03866 0.45088 0.63714 0.0
H418 H 0.10388 0.45878 0.52323 0.0
H419 H -0.00821 0.42381 0.58406 0.0
H420 H 0.05674 0.43131 0.47003 0.0
H421 H 0.97113 0.42396 0.38104 0.0
H422 H 0.01799 0.44624 0.43424 0.0
H423 H 0.95925 0.37224 0.5381 0.0
H424 H 0.91198 0.34995 0.48473 0.0
C425 C 0.04294 0.44664 0.60078 0.0
C426 C 0.07493 0.45711 0.58416 0.0
C427 C 0.01605 0.4309 0.57052 0.0
C428 C 0.02062 0.42548 0.52295 0.0
C429 C 0.05257 0.43547 0.50648 0.0
C430 C 0.0795 0.45107 0.53689 0.0
C431 C 0.96818 0.41238 0.4152 0.0
C432 C 0.93786 0.3853 0.42888 0.0
C433 C -0.00488 0.42499 0.44548 0.0
C434 C -0.0077 0.4109 0.49019 0.0
C435 C 0.96201 0.3837 0.5039 0.0
C436 C 0.93503 0.37093 0.4734 0.0
H437 H 0.60704 0.57788 0.36145 0.0
H438 H 0.66674 0.57939 0.47819 0.0
H439 H 0.58382 0.60343 0.41118 0.0
H440 H 0.64346 0.60523 0.52811 0.0
H441 H 0.56243 0.61165 0.61279 0.0
H442 H 0.58819 0.58856 0.56314 0.0
H443 H 0.60144 0.65687 0.45185 0.0
H444 H 0.57542 0.68 0.5016 0.0
C445 C 0.61526 0.58375 0.39777 0.0
C446 C 0.63861 0.57655 0.41607 0.0
C447 C 0.60212 0.5986 0.42609 0.0
C448 C 0.61188 0.60636 0.47342 0.0
C449 C 0.63533 0.59926 0.49178 0.0
C450 C 0.64871 0.5846 0.46325 0.0
C451 C 0.57079 0.62174 0.57769 0.0
C452 C 0.56682 0.64755 0.56093 0.0
C453 C 0.58578 0.60868 0.54947 0.0
C454 C 0.59691 0.621 0.50376 0.0
C455 C 0.59286 0.64677 0.48688 0.0
C456 C 0.57806 0.66003 0.51531 0.0
H457 H 0.42823 0.95308 0.55754 0.0
H458 H 0.33012 0.93135 0.52197 0.0
H459 H 0.4514 0.00047 0.50465 0.0
H460 H 0.35351 0.97947 0.4695 0.0
H461 H 0.41831 0.0953 0.44356 0.0
H462 H 0.39167 0.0439 0.48885 0.0
H463 H 0.44968 0.0109 0.41346 0.0
H464 H 0.47592 0.06181 0.36782 0.0
C465 C 0.41166 0.95831 0.53798 0.0
C466 C 0.37746 0.93869 0.54364 0.0
C467 C 0.4249 0.98533 0.50776 0.0
C468 C 0.40417 0.99355 0.4834 0.0
C469 C 0.3699 0.97359 0.48825 0.0
C470 C 0.35659 0.94605 0.51783 0.0
C471 C 0.42531 0.07703 0.43676 0.0
C472 C 0.44925 0.08252 0.40248 0.0
C473 C 0.40989 0.04761 0.46225 0.0
C474 C 0.41864 0.02359 0.45432 0.0
C475 C 0.44261 0.02914 0.42013 0.0
C476 C 0.45758 0.05823 0.39416 0.0
loop_
_geom_bond_atom_site_label_1
_geom_bond_atom_site_label_2
_geom_bond_distance
_geom_bond_site_symmetry_2
_ccdc_geom_bond_type
In0 O1 2.294 1_554 S
In0 O2 2.326 1_554 S
In0 O6 2.266 1_454 S
In0 O7 2.326 1_455 S
In0 O8 2.266 . S
In0 O9 2.326 1_554 S
In0 O11 2.294 . S
In0 O12 2.326 1_455 S
O1 In0 2.294 1_556 S
O1 C10 1.240 . S
O2 In0 2.326 1_556 S
O2 C10 1.252 . S
C3 O6 1.252 1_554 S
C3 O7 1.260 . S
C4 O11 1.240 1_655 S
C4 O12 1.252 . S
C5 O8 1.252 . S
C5 O9 1.260 1_554 S
O6 In0 2.266 1_656 S
O6 C3 1.252 1_556 S
O7 In0 2.326 1_655 S
O7 C3 1.260 . S
O8 In0 2.266 . S
O8 C5 1.252 . S
O9 In0 2.326 1_556 S
O9 C5 1.260 1_556 S
C10 O1 1.240 . S
C10 O2 1.252 . S
O11 In0 2.294 . S
O11 C4 1.240 1_455 S
O12 In0 2.326 1_655 S
O12 C4 1.252 . S
In13 O14 2.294 1_554 S
In13 O15 2.326 1_554 S
In13 O19 2.266 1_554 S
In13 O20 2.326 . S
In13 O21 2.266 . S
In13 O22 2.326 1_554 S
In13 O24 2.294 . S
In13 O25 2.326 . S
O14 In13 2.294 1_556 S
O14 C23 1.240 . S
O15 In13 2.326 1_556 S
O15 C23 1.252 . S
C16 O19 1.252 1_554 S
C16 O20 1.260 . S
C17 O24 1.240 . S
C17 O25 1.252 . S
C18 O21 1.252 . S
C18 O22 1.260 1_554 S
O19 In13 2.266 1_556 S
O19 C16 1.252 1_556 S
O20 In13 2.326 . S
O20 C16 1.260 . S
O21 In13 2.266 . S
O21 C18 1.252 . S
O22 In13 2.326 1_556 S
O22 C18 1.260 1_556 S
C23 O14 1.240 . S
C23 O15 1.252 . S
O24 In13 2.294 . S
O24 C17 1.240 . S
O25 In13 2.326 . S
O25 C17 1.252 . S
In26 O27 2.294 . S
In26 O28 2.326 . S
In26 O32 2.266 1_545 S
In26 O33 2.326 1_544 S
In26 O34 2.266 1_554 S
In26 O35 2.326 . S
In26 O37 2.294 1_554 S
In26 O38 2.322 1_544 S
O27 In26 2.294 . S
O27 C36 1.240 . S
O28 In26 2.326 . S
O28 C36 1.252 . S
C29 O32 1.252 . S
C29 O33 1.260 1_554 S
C30 O37 1.265 . S
C30 O38 1.266 1_545 S
C31 O34 1.252 1_554 S
C31 O35 1.260 . S
O32 In26 2.266 1_565 S
O32 C29 1.252 . S
O33 In26 2.326 1_566 S
O33 C29 1.260 1_556 S
O34 In26 2.266 1_556 S
O34 C31 1.252 1_556 S
O35 In26 2.326 . S
O35 C31 1.260 . S
C36 O27 1.240 . S
C36 O28 1.252 . S
O37 In26 2.294 1_556 S
O37 C30 1.265 . S
O38 In26 2.322 1_566 S
O38 C30 1.266 1_565 S
In39 O40 2.294 . S
In39 O41 2.326 . S
In39 O45 2.266 . S
In39 O46 2.326 . S
In39 O47 2.266 . S
In39 O48 2.326 . S
In39 O50 2.294 . S
In39 O51 2.326 . S
O40 In39 2.294 . S
O40 C49 1.240 . S
O41 In39 2.326 . S
O41 C49 1.252 . S
C42 O45 1.252 . S
C42 O46 1.260 . S
C43 O50 1.240 . S
C43 O51 1.252 . S
C44 O47 1.252 . S
C44 O48 1.260 . S
O45 In39 2.266 . S
O45 C42 1.252 . S
O46 In39 2.326 . S
O46 C42 1.260 . S
O47 In39 2.266 . S
O47 C44 1.252 . S
O48 In39 2.326 . S
O48 C44 1.260 . S
C49 O40 1.240 . S
C49 O41 1.252 . S
O50 In39 2.294 . S
O50 C43 1.240 . S
O51 In39 2.326 . S
O51 C43 1.252 . S
In52 O53 2.294 . S
In52 O54 2.326 . S
In52 O58 2.266 . S
In52 O59 2.326 . S
In52 O60 2.266 . S
In52 O61 2.326 . S
In52 O63 2.294 . S
In52 O64 2.326 . S
O53 In52 2.294 . S
O53 C62 1.240 . S
O54 In52 2.326 . S
O54 C62 1.252 . S
C55 O58 1.252 . S
C55 O59 1.260 . S
C56 O63 1.240 . S
C56 O64 1.252 . S
C57 O60 1.252 . S
C57 O61 1.260 . S
O58 In52 2.266 . S
O58 C55 1.252 . S
O59 In52 2.326 . S
O59 C55 1.260 . S
O60 In52 2.266 . S
O60 C57 1.252 . S
O61 In52 2.326 . S
O61 C57 1.260 . S
C62 O53 1.240 . S
C62 O54 1.252 . S
O63 In52 2.294 . S
O63 C56 1.240 . S
O64 In52 2.326 . S
O64 C56 1.252 . S
In65 O66 2.294 . S
In65 O67 2.326 . S
In65 O71 2.266 . S
In65 O72 2.326 . S
In65 O73 2.266 . S
In65 O74 2.326 . S
In65 O76 2.294 . S
In65 O77 2.326 . S
O66 In65 2.294 . S
O66 C75 1.240 . S
O67 In65 2.326 . S
O67 C75 1.252 . S
C68 O71 1.252 . S
C68 O72 1.260 . S
C69 O76 1.240 . S
C69 O77 1.252 . S
C70 O73 1.252 . S
C70 O74 1.260 . S
O71 In65 2.266 . S
O71 C68 1.252 . S
O72 In65 2.326 . S
O72 C68 1.260 . S
O73 In65 2.266 . S
O73 C70 1.252 . S
O74 In65 2.326 . S
O74 C70 1.260 . S
C75 O66 1.240 . S
C75 O67 1.252 . S
O76 In65 2.294 . S
O76 C69 1.240 . S
O77 In65 2.326 . S
O77 C69 1.252 . S
In78 O79 2.294 . S
In78 O80 2.326 . S
In78 O84 2.266 . S
In78 O85 2.326 . S
In78 O86 2.266 . S
In78 O87 2.326 . S
In78 O89 2.294 . S
In78 O90 2.326 . S
O79 In78 2.294 . S
O79 C88 1.240 . S
O80 In78 2.326 . S
O80 C88 1.252 . S
C81 O84 1.252 . S
C81 O85 1.260 . S
C82 O89 1.240 . S
C82 O90 1.252 . S
C83 O86 1.252 . S
C83 O87 1.260 . S
O84 In78 2.266 . S
O84 C81 1.252 . S
O85 In78 2.326 . S
O85 C81 1.260 . S
O86 In78 2.266 . S
O86 C83 1.252 . S
O87 In78 2.326 . S
O87 C83 1.260 . S
C88 O79 1.240 . S
C88 O80 1.252 . S
O89 In78 2.294 . S
O89 C82 1.240 . S
O90 In78 2.326 . S
O90 C82 1.252 . S
In91 O92 2.294 . S
In91 O93 2.326 . S
In91 O97 2.266 . S
In91 O98 2.326 . S
In91 O99 2.266 . S
In91 O100 2.326 . S
In91 O102 2.294 . S
In91 O103 2.326 . S
O92 In91 2.294 . S
O92 C101 1.240 . S
O93 In91 2.326 . S
O93 C101 1.252 . S
C94 O97 1.252 . S
C94 O98 1.260 . S
C95 O102 1.240 . S
C95 O103 1.252 . S
C96 O99 1.252 . S
C96 O100 1.260 . S
O97 In91 2.266 . S
O97 C94 1.252 . S
O98 In91 2.326 . S
O98 C94 1.260 . S
O99 In91 2.266 . S
O99 C96 1.252 . S
O100 In91 2.326 . S
O100 C96 1.260 . S
C101 O92 1.240 . S
C101 O93 1.252 . S
O102 In91 2.294 . S
O102 C95 1.240 . S
O103 In91 2.326 . S
O103 C95 1.252 . S
In104 O105 2.294 . S
In104 O106 2.326 . S
In104 O110 2.266 . S
In104 O111 2.326 . S
In104 O112 2.266 . S
In104 O113 2.326 . S
In104 O115 2.294 . S
In104 O116 2.326 . S
O105 In104 2.294 . S
O105 C114 1.240 . S
O106 In104 2.326 . S
O106 C114 1.252 . S
C107 O110 1.252 . S
C107 O111 1.260 . S
C108 O115 1.240 . S
C108 O116 1.252 . S
C109 O112 1.252 . S
C109 O113 1.260 . S
O110 In104 2.266 . S
O110 C107 1.252 . S
O111 In104 2.326 . S
O111 C107 1.260 . S
O112 In104 2.266 . S
O112 C109 1.252 . S
O113 In104 2.326 . S
O113 C109 1.260 . S
C114 O105 1.240 . S
C114 O106 1.252 . S
O115 In104 2.294 . S
O115 C108 1.240 . S
O116 In104 2.326 . S
O116 C108 1.252 . S
H117 C125 0.950 . S
H118 C130 0.950 . S
H119 C127 0.950 . S
H120 C129 0.950 . S
H121 C131 0.950 . S
H122 C133 0.950 . S
H123 C135 0.950 . S
H124 C136 0.951 1_556 S
C125 H117 0.950 . S
C125 C126 1.386 1_556 S
C125 C127 1.391 . S
C126 C125 1.386 1_554 S
C126 C130 1.393 . S
C127 H119 0.950 . S
C127 C125 1.391 . S
C127 C128 1.400 1_556 S
C128 C127 1.400 1_554 S
C128 C129 1.398 . S
C128 C134 1.491 . S
C129 H120 0.950 . S
C129 C128 1.398 . S
C129 C130 1.391 . S
C130 H118 0.950 . S
C130 C126 1.393 . S
C130 C129 1.391 . S
C131 H121 0.950 . S
C131 C132 1.386 . S
C131 C133 1.391 . S
C132 C131 1.386 . S
C132 C136 1.392 . S
C133 H122 0.950 . S
C133 C131 1.391 . S
C133 C134 1.400 . S
C134 C128 1.491 . S
C134 C133 1.400 . S
C134 C135 1.398 1_554 S
C135 H123 0.950 . S
C135 C134 1.398 1_556 S
C135 C136 1.391 1_556 S
C136 H124 0.951 1_554 S
C136 C132 1.392 . S
C136 C135 1.391 1_554 S
H137 C145 0.950 . S
H138 C150 0.950 1_556 S
H139 C147 0.951 . S
H140 C149 0.950 1_556 S
H141 C151 0.950 . S
H142 C153 0.950 . S
H143 C155 0.950 . S
H144 C156 0.950 . S
C145 H137 0.950 . S
C145 C146 1.386 . S
C145 C147 1.391 . S
C146 C145 1.386 . S
C146 C150 1.393 . S
C147 H139 0.951 . S
C147 C145 1.391 . S
C147 C148 1.400 1_565 S
C148 C147 1.400 1_545 S
C148 C149 1.398 1_545 S
C148 C154 1.491 . S
C149 H140 0.950 1_554 S
C149 C148 1.398 1_565 S
C149 C150 1.391 . S
C150 H138 0.950 1_554 S
C150 C146 1.393 . S
C150 C149 1.391 . S
C151 H141 0.950 . S
C151 C152 1.386 1_556 S
C151 C153 1.391 . S
C152 C151 1.386 1_554 S
C152 C156 1.393 . S
C153 H142 0.950 . S
C153 C151 1.391 . S
C153 C154 1.400 1_556 S
C154 C148 1.491 . S
C154 C153 1.400 1_554 S
C154 C155 1.398 . S
C155 H143 0.950 . S
C155 C154 1.398 . S
C155 C156 1.391 . S
C156 H144 0.950 . S
C156 C152 1.393 . S
C156 C155 1.391 . S
H157 C165 0.950 . S
H158 C170 0.950 . S
H159 C167 0.950 . S
H160 C169 0.950 . S
H161 C171 0.950 . S
H162 C173 0.950 . S
H163 C175 0.950 . S
H164 C176 0.950 . S
C165 H157 0.950 . S
C165 C166 1.386 1_556 S
C165 C167 1.391 . S
C166 C165 1.386 1_554 S
C166 C170 1.393 . S
C167 H159 0.950 . S
C167 C165 1.391 . S
C167 C168 1.405 1_556 S
C168 C167 1.405 1_554 S
C168 C169 1.427 . S
C168 C174 1.459 1_655 S
C169 H160 0.950 . S
C169 C168 1.427 . S
C169 C170 1.391 . S
C170 H158 0.950 . S
C170 C166 1.393 . S
C170 C169 1.391 . S
C171 H161 0.950 . S
C171 C172 1.386 . S
C171 C173 1.391 . S
C172 C171 1.386 . S
C172 C176 1.393 1_554 S
C173 H162 0.950 . S
C173 C171 1.391 . S
C173 C174 1.400 . S
C174 C168 1.459 1_455 S
C174 C173 1.400 . S
C174 C175 1.398 1_554 S
C175 H163 0.950 . S
C175 C174 1.398 1_556 S
C175 C176 1.391 . S
C176 H164 0.950 . S
C176 C172 1.393 1_556 S
C176 C175 1.391 . S
H177 C185 0.950 . S
H178 C190 0.950 . S
H179 C187 0.950 . S
H180 C189 0.950 . S
H181 C191 0.950 . S
H182 C193 0.950 . S
H183 C195 0.950 . S
H184 C196 0.950 . S
C185 H177 0.950 . S
C185 C186 1.386 . S
C185 C187 1.391 . S
C186 C185 1.386 . S
C186 C190 1.393 . S
C187 H179 0.950 . S
C187 C185 1.391 . S
C187 C188 1.400 . S
C188 C187 1.400 . S
C188 C189 1.398 . S
C188 C194 1.491 . S
C189 H180 0.950 . S
C189 C188 1.398 . S
C189 C190 1.391 . S
C190 H178 0.950 . S
C190 C186 1.393 . S
C190 C189 1.391 . S
C191 H181 0.950 . S
C191 C192 1.386 . S
C191 C193 1.391 . S
C192 C191 1.386 . S
C192 C196 1.393 . S
C193 H182 0.950 . S
C193 C191 1.391 . S
C193 C194 1.400 . S
C194 C188 1.491 . S
C194 C193 1.400 . S
C194 C195 1.398 . S
C195 H183 0.950 . S
C195 C194 1.398 . S
C195 C196 1.391 . S
C196 H184 0.950 . S
C196 C192 1.393 . S
C196 C195 1.391 . S
H197 C205 0.950 . S
H198 C210 0.950 . S
H199 C207 0.950 . S
H200 C209 0.950 . S
H201 C211 0.950 . S
H202 C213 0.950 . S
H203 C215 0.950 . S
H204 C216 0.950 . S
C205 H197 0.950 . S
C205 C206 1.386 . S
C205 C207 1.391 . S
C206 C205 1.386 . S
C206 C210 1.393 . S
C207 H199 0.950 . S
C207 C205 1.391 . S
C207 C208 1.400 . S
C208 C207 1.400 . S
C208 C209 1.398 . S
C208 C214 1.491 . S
C209 H200 0.950 . S
C209 C208 1.398 . S
C209 C210 1.391 . S
C210 H198 0.950 . S
C210 C206 1.393 . S
C210 C209 1.391 . S
C211 H201 0.950 . S
C211 C212 1.386 . S
C211 C213 1.391 . S
C212 C211 1.386 . S
C212 C216 1.393 . S
C213 H202 0.950 . S
C213 C211 1.391 . S
C213 C214 1.400 . S
C214 C208 1.491 . S
C214 C213 1.400 . S
C214 C215 1.398 . S
C215 H203 0.950 . S
C215 C214 1.398 . S
C215 C216 1.391 . S
C216 H204 0.950 . S
C216 C212 1.393 . S
C216 C215 1.391 . S
H217 C225 0.950 . S
H218 C230 0.950 . S
H219 C227 0.950 . S
H220 C229 0.950 . S
H221 C231 0.950 . S
H222 C233 0.950 . S
H223 C235 0.950 . S
H224 C236 0.950 . S
C225 H217 0.950 . S
C225 C226 1.386 . S
C225 C227 1.391 . S
C226 C225 1.386 . S
C226 C230 1.393 . S
C227 H219 0.950 . S
C227 C225 1.391 . S
C227 C228 1.400 . S
C228 C227 1.400 . S
C228 C229 1.398 . S
C228 C234 1.491 . S
C229 H220 0.950 . S
C229 C228 1.398 . S
C229 C230 1.391 . S
C230 H218 0.950 . S
C230 C226 1.393 . S
C230 C229 1.391 . S
C231 H221 0.950 . S
C231 C232 1.386 . S
C231 C233 1.391 . S
C232 C231 1.386 . S
C232 C236 1.393 . S
C233 H222 0.950 . S
C233 C231 1.391 . S
C233 C234 1.400 . S
C234 C228 1.491 . S
C234 C233 1.400 . S
C234 C235 1.398 . S
C235 H223 0.950 . S
C235 C234 1.398 . S
C235 C236 1.391 . S
C236 H224 0.950 . S
C236 C232 1.393 . S
C236 C235 1.391 . S
H237 C245 0.950 . S
H238 C250 0.950 . S
H239 C247 0.950 . S
H240 C249 0.950 . S
H241 C251 0.950 . S
H242 C253 0.950 . S
H243 C255 0.950 . S
H244 C256 0.950 . S
C245 H237 0.950 . S
C245 C246 1.386 . S
C245 C247 1.391 . S
C246 C245 1.386 . S
C246 C250 1.393 . S
C247 H239 0.950 . S
C247 C245 1.391 . S
C247 C248 1.400 . S
C248 C247 1.400 . S
C248 C249 1.398 . S
C248 C254 1.491 . S
C249 H240 0.950 . S
C249 C248 1.398 . S
C249 C250 1.391 . S
C250 H238 0.950 . S
C250 C246 1.393 . S
C250 C249 1.391 . S
C251 H241 0.950 . S
C251 C252 1.386 . S
C251 C253 1.391 . S
C252 C251 1.386 . S
C252 C256 1.393 . S
C253 H242 0.950 . S
C253 C251 1.391 . S
C253 C254 1.400 . S
C254 C248 1.491 . S
C254 C253 1.400 . S
C254 C255 1.398 . S
C255 H243 0.950 . S
C255 C254 1.398 . S
C255 C256 1.391 . S
C256 H244 0.950 . S
C256 C252 1.393 . S
C256 C255 1.391 . S
H257 C265 0.950 . S
H258 C270 0.950 . S
H259 C267 0.950 . S
H260 C269 0.950 . S
H261 C271 0.950 . S
H262 C273 0.950 . S
H263 C275 0.950 . S
H264 C276 0.950 . S
C265 H257 0.950 . S
C265 C266 1.386 . S
C265 C267 1.391 . S
C266 C265 1.386 . S
C266 C270 1.393 . S
C267 H259 0.950 . S
C267 C265 1.391 . S
C267 C268 1.400 . S
C268 C267 1.400 . S
C268 C269 1.398 . S
C268 C274 1.491 . S
C269 H260 0.950 . S
C269 C268 1.398 . S
C269 C270 1.391 . S
C270 H258 0.950 . S
C270 C266 1.393 . S
C270 C269 1.391 . S
C271 H261 0.950 . S
C271 C272 1.386 . S
C271 C273 1.391 . S
C272 C271 1.386 . S
C272 C276 1.393 . S
C273 H262 0.950 . S
C273 C271 1.391 . S
C273 C274 1.400 . S
C274 C268 1.491 . S
C274 C273 1.400 . S
C274 C275 1.398 . S
C275 H263 0.950 . S
C275 C274 1.398 . S
C275 C276 1.391 . S
C276 H264 0.950 . S
C276 C272 1.393 . S
C276 C275 1.391 . S
H277 C285 0.950 . S
H278 C290 0.950 . S
H279 C287 0.950 . S
H280 C289 0.950 . S
H281 C291 0.950 . S
H282 C293 0.950 . S
H283 C295 0.950 . S
H284 C296 0.950 . S
C285 H277 0.950 . S
C285 C286 1.386 . S
C285 C287 1.391 . S
C286 C285 1.386 . S
C286 C290 1.393 . S
C287 H279 0.950 . S
C287 C285 1.391 . S
C287 C288 1.400 . S
C288 C287 1.400 . S
C288 C289 1.398 . S
C288 C294 1.491 . S
C289 H280 0.950 . S
C289 C288 1.398 . S
C289 C290 1.391 . S
C290 H278 0.950 . S
C290 C286 1.393 . S
C290 C289 1.391 . S
C291 H281 0.950 . S
C291 C292 1.386 . S
C291 C293 1.391 . S
C292 C291 1.386 . S
C292 C296 1.393 . S
C293 H282 0.950 . S
C293 C291 1.391 . S
C293 C294 1.400 . S
C294 C288 1.491 . S
C294 C293 1.400 . S
C294 C295 1.398 . S
C295 H283 0.950 . S
C295 C294 1.398 . S
C295 C296 1.391 . S
C296 H284 0.950 . S
C296 C292 1.393 . S
C296 C295 1.391 . S
H297 C305 0.950 . S
H298 C310 0.950 . S
H299 C307 0.950 . S
H300 C309 0.950 . S
H301 C311 0.950 . S
H302 C313 0.950 . S
H303 C315 0.950 . S
H304 C316 0.950 . S
C305 H297 0.950 . S
C305 C306 1.386 . S
C305 C307 1.391 . S
C306 C305 1.386 . S
C306 C310 1.393 . S
C307 H299 0.950 . S
C307 C305 1.391 . S
C307 C308 1.400 . S
C308 C307 1.400 . S
C308 C309 1.398 . S
C308 C314 1.491 . S
C309 H300 0.950 . S
C309 C308 1.398 . S
C309 C310 1.391 . S
C310 H298 0.950 . S
C310 C306 1.393 . S
C310 C309 1.391 . S
C311 H301 0.950 . S
C311 C312 1.386 . S
C311 C313 1.391 . S
C312 C311 1.386 . S
C312 C316 1.393 . S
C313 H302 0.950 . S
C313 C311 1.391 . S
C313 C314 1.400 . S
C314 C308 1.491 . S
C314 C313 1.400 . S
C314 C315 1.398 . S
C315 H303 0.950 . S
C315 C314 1.398 . S
C315 C316 1.391 . S
C316 H304 0.950 . S
C316 C312 1.393 . S
C316 C315 1.391 . S
H317 C325 0.950 . S
H318 C330 0.950 . S
H319 C327 0.950 . S
H320 C329 0.950 . S
H321 C331 0.950 . S
H322 C333 0.950 . S
H323 C335 0.950 . S
H324 C336 0.950 . S
C325 H317 0.950 . S
C325 C326 1.386 . S
C325 C327 1.391 . S
C326 C325 1.386 . S
C326 C330 1.393 . S
C327 H319 0.950 . S
C327 C325 1.391 . S
C327 C328 1.400 . S
C328 C327 1.400 . S
C328 C329 1.398 . S
C328 C334 1.491 . S
C329 H320 0.950 . S
C329 C328 1.398 . S
C329 C330 1.391 . S
C330 H318 0.950 . S
C330 C326 1.393 . S
C330 C329 1.391 . S
C331 H321 0.950 . S
C331 C332 1.386 . S
C331 C333 1.391 . S
C332 C331 1.386 . S
C332 C336 1.393 . S
C333 H322 0.950 . S
C333 C331 1.391 . S
C333 C334 1.400 . S
C334 C328 1.491 . S
C334 C333 1.400 . S
C334 C335 1.398 . S
C335 H323 0.950 . S
C335 C334 1.398 . S
C335 C336 1.391 . S
C336 H324 0.950 . S
C336 C332 1.393 . S
C336 C335 1.391 . S
H337 C345 0.950 . S
H338 C350 0.950 . S
H339 C347 0.950 . S
H340 C349 0.950 . S
H341 C351 0.950 . S
H342 C353 0.950 . S
H343 C355 0.950 . S
H344 C356 0.950 . S
C345 H337 0.950 . S
C345 C346 1.386 . S
C345 C347 1.391 . S
C346 C345 1.386 . S
C346 C350 1.393 . S
C347 H339 0.950 . S
C347 C345 1.391 . S
C347 C348 1.400 . S
C348 C347 1.400 . S
C348 C349 1.398 . S
C348 C354 1.491 . S
C349 H340 0.950 . S
C349 C348 1.398 . S
C349 C350 1.391 . S
C350 H338 0.950 . S
C350 C346 1.393 . S
C350 C349 1.391 . S
C351 H341 0.950 . S
C351 C352 1.386 1_545 S
C351 C353 1.391 1_545 S
C352 C351 1.386 1_565 S
C352 C356 1.393 . S
C353 H342 0.950 . S
C353 C351 1.391 1_565 S
C353 C354 1.400 . S
C354 C348 1.491 . S
C354 C353 1.400 . S
C354 C355 1.398 . S
C355 H343 0.950 . S
C355 C354 1.398 . S
C355 C356 1.391 . S
C356 H344 0.950 . S
C356 C352 1.393 . S
C356 C355 1.391 . S
H357 C365 0.950 . S
H358 C370 0.950 . S
H359 C367 0.950 . S
H360 C369 0.950 . S
H361 C371 0.950 . S
H362 C373 0.950 . S
H363 C375 0.950 . S
H364 C376 0.950 . S
C365 H357 0.950 . S
C365 C366 1.386 . S
C365 C367 1.391 . S
C366 C365 1.386 . S
C366 C370 1.393 . S
C367 H359 0.950 . S
C367 C365 1.391 . S
C367 C368 1.400 . S
C368 C367 1.400 . S
C368 C369 1.398 . S
C368 C374 1.491 . S
C369 H360 0.950 . S
C369 C368 1.398 . S
C369 C370 1.391 . S
C370 H358 0.950 . S
C370 C366 1.393 . S
C370 C369 1.391 . S
C371 H361 0.950 . S
C371 C372 1.386 . S
C371 C373 1.391 . S
C372 C371 1.386 . S
C372 C376 1.393 . S
C373 H362 0.950 . S
C373 C371 1.391 . S
C373 C374 1.400 . S
C374 C368 1.491 . S
C374 C373 1.400 . S
C374 C375 1.398 . S
C375 H363 0.950 . S
C375 C374 1.398 . S
C375 C376 1.391 . S
C376 H364 0.950 . S
C376 C372 1.393 . S
C376 C375 1.391 . S
H377 C385 0.950 . S
H378 C390 0.950 . S
H379 C387 0.950 . S
H380 C389 0.950 . S
H381 C391 0.950 . S
H382 C393 0.950 . S
H383 C395 0.950 . S
H384 C396 0.950 . S
C385 H377 0.950 . S
C385 C386 1.386 . S
C385 C387 1.391 . S
C386 C385 1.386 . S
C386 C390 1.393 . S
C387 H379 0.950 . S
C387 C385 1.391 . S
C387 C388 1.400 . S
C388 C387 1.400 . S
C388 C389 1.398 . S
C388 C394 1.491 . S
C389 H380 0.950 . S
C389 C388 1.398 . S
C389 C390 1.391 . S
C390 H378 0.950 . S
C390 C386 1.393 . S
C390 C389 1.391 . S
C391 H381 0.950 . S
C391 C392 1.386 . S
C391 C393 1.391 . S
C392 C391 1.386 . S
C392 C396 1.393 . S
C393 H382 0.950 . S
C393 C391 1.391 . S
C393 C394 1.400 . S
C394 C388 1.491 . S
C394 C393 1.400 . S
C394 C395 1.398 . S
C395 H383 0.950 . S
C395 C394 1.398 . S
C395 C396 1.391 . S
C396 H384 0.950 . S
C396 C392 1.393 . S
C396 C395 1.391 . S
H397 C405 0.950 . S
H398 C410 0.950 . S
H399 C407 0.950 . S
H400 C409 0.950 . S
H401 C411 0.950 . S
H402 C413 0.950 . S
H403 C415 0.950 . S
H404 C416 0.950 . S
C405 H397 0.950 . S
C405 C406 1.386 . S
C405 C407 1.391 . S
C406 C405 1.386 . S
C406 C410 1.393 . S
C407 H399 0.950 . S
C407 C405 1.391 . S
C407 C408 1.400 . S
C408 C407 1.400 . S
C408 C409 1.398 . S
C408 C414 1.491 . S
C409 H400 0.950 . S
C409 C408 1.398 . S
C409 C410 1.391 . S
C410 H398 0.950 . S
C410 C406 1.393 . S
C410 C409 1.391 . S
C411 H401 0.950 . S
C411 C412 1.386 . S
C411 C413 1.391 . S
C412 C411 1.386 . S
C412 C416 1.393 . S
C413 H402 0.950 . S
C413 C411 1.391 . S
C413 C414 1.400 . S
C414 C408 1.491 . S
C414 C413 1.400 . S
C414 C415 1.398 . S
C415 H403 0.950 . S
C415 C414 1.398 . S
C415 C416 1.391 . S
C416 H404 0.950 . S
C416 C412 1.393 . S
C416 C415 1.391 . S
H417 C425 0.950 . S
H418 C430 0.950 . S
H419 C427 0.950 . S
H420 C429 0.950 . S
H421 C431 0.950 . S
H422 C433 0.950 1_455 S
H423 C435 0.950 . S
H424 C436 0.950 . S
C425 H417 0.950 . S
C425 C426 1.386 . S
C425 C427 1.391 . S
C426 C425 1.386 . S
C426 C430 1.393 . S
C427 H419 0.950 . S
C427 C425 1.391 . S
C427 C428 1.400 . S
C428 C427 1.400 . S
C428 C429 1.398 . S
C428 C434 1.491 . S
C429 H420 0.950 . S
C429 C428 1.398 . S
C429 C430 1.391 . S
C430 H418 0.950 . S
C430 C426 1.393 . S
C430 C429 1.391 . S
C431 H421 0.950 . S
C431 C432 1.386 . S
C431 C433 1.391 . S
C432 C431 1.386 . S
C432 C436 1.393 . S
C433 H422 0.950 1_655 S
C433 C431 1.391 . S
C433 C434 1.400 1_655 S
C434 C428 1.491 . S
C434 C433 1.400 1_455 S
C434 C435 1.398 1_455 S
C435 H423 0.950 . S
C435 C434 1.398 1_655 S
C435 C436 1.391 . S
C436 H424 0.950 . S
C436 C432 1.393 . S
C436 C435 1.391 . S
H437 C445 0.950 . S
H438 C450 0.950 . S
H439 C447 0.950 . S
H440 C449 0.950 . S
H441 C451 0.950 . S
H442 C453 0.950 . S
H443 C455 0.950 . S
H444 C456 0.950 . S
C445 H437 0.950 . S
C445 C446 1.386 . S
C445 C447 1.391 . S
C446 C445 1.386 . S
C446 C450 1.393 . S
C447 H439 0.950 . S
C447 C445 1.391 . S
C447 C448 1.400 . S
C448 C447 1.400 . S
C448 C449 1.398 . S
C448 C454 1.491 . S
C449 H440 0.950 . S
C449 C448 1.398 . S
C449 C450 1.391 . S
C450 H438 0.950 . S
C450 C446 1.393 . S
C450 C449 1.391 . S
C451 H441 0.950 . S
C451 C452 1.386 . S
C451 C453 1.391 . S
C452 C451 1.386 . S
C452 C456 1.393 . S
C453 H442 0.950 . S
C453 C451 1.391 . S
C453 C454 1.400 . S
C454 C448 1.491 . S
C454 C453 1.400 . S
C454 C455 1.398 . S
C455 H443 0.950 . S
C455 C454 1.398 . S
C455 C456 1.391 . S
C456 H444 0.950 . S
C456 C452 1.393 . S
C456 C455 1.391 . S
H457 C465 0.950 . S
H458 C470 0.950 . S
H459 C467 0.950 . S
H460 C469 0.950 1_545 S
H461 C471 0.950 . S
H462 C473 0.950 . S
H463 C475 0.950 . S
H464 C476 0.950 . S
C465 H457 0.950 . S
C465 C466 1.386 . S
C465 C467 1.391 . S
C466 C465 1.386 . S
C466 C470 1.393 . S
C467 H459 0.950 . S
C467 C465 1.391 . S
C467 C468 1.400 1_565 S
C468 C467 1.400 1_545 S
C468 C469 1.398 1_545 S
C468 C474 1.491 . S
C469 H460 0.950 1_565 S
C469 C468 1.398 1_565 S
C469 C470 1.391 . S
C470 H458 0.950 . S
C470 C466 1.393 . S
C470 C469 1.391 . S
C471 H461 0.950 . S
C471 C472 1.386 . S
C471 C473 1.391 . S
C472 C471 1.386 . S
C472 C476 1.393 . S
C473 H462 0.950 . S
C473 C471 1.391 . S
C473 C474 1.400 . S
C474 C468 1.491 . S
C474 C473 1.400 . S
C474 C475 1.398 . S
C475 H463 0.950 . S
C475 C474 1.398 . S
C475 C476 1.391 . S
C476 H464 0.950 . S
C476 C472 1.393 . S
C476 C475 1.391 . S
C126 C31 1.102 . S
C132 C5 1.113 . S
C146 C18 1.097 . S
C152 C3 1.101 . S
C166 C16 1.100 . S
C172 C29 1.114 . S
C186 C70 1.102 . S
C192 C44 1.095 . S
C206 C57 1.095 . S
C212 C42 1.113 . S
C226 C55 1.110 . S
C232 C68 1.094 . S
C246 C83 1.104 . S
C252 C109 1.095 . S
C266 C81 1.104 . S
C272 C96 1.112 . S
C286 C94 1.113 . S
C292 C107 1.103 . S
C306 C10 1.418 . S
C312 C95 1.418 . S
C326 C23 1.415 . S
C332 C114 1.415 . S
C346 C82 1.417 . S
C352 C30 1.399 1_565 S
C366 C62 1.415 . S
C372 C36 1.415 . S
C386 C4 1.415 . S
C392 C69 1.416 . S
C406 C49 1.417 . S
C412 C17 1.418 . S
C426 C101 1.418 . S
C432 C75 1.418 . S
C446 C43 1.418 . S
C452 C108 1.418 . S
C466 C88 1.418 . S
C472 C56 1.418 . S
