# Generated by pormake.
# Topology umk, (4)-cn, num edge types: 1
# Building blocks:
#     Node 0, Type 0, BuildingBlock: QUQFOY_clean_sbu_3, # of connection points: 4
#     Node 1, Type 0, BuildingBlock: QUQFOY_clean_sbu_3, # of connection points: 4
#     Node 2, Type 0, BuildingBlock: QUQFOY_clean_sbu_3, # of connection points: 4
#     Node 3, Type 0, BuildingBlock: QUQFOY_clean_sbu_3, # of connection points: 4
#     Node 4, Type 0, BuildingBlock: QUQFOY_clean_sbu_3, # of connection points: 4
#     Node 5, Type 0, BuildingBlock: QUQFOY_clean_sbu_3, # of connection points: 4
#     Node 6, Type 0, BuildingBlock: QUQFOY_clean_sbu_3, # of connection points: 4
#     Node 7, Type 0, BuildingBlock: QUQFOY_clean_sbu_3, # of connection points: 4
#     Node 8, Type 0, BuildingBlock: QUQFOY_clean_sbu_3, # of connection points: 4
#     Node 9, Type 0, BuildingBlock: QUQFOY_clean_sbu_3, # of connection points: 4
#     Node 10, Type 0, BuildingBlock: QUQFOY_clean_sbu_3, # of connection points: 4
#     Node 11, Type 0, BuildingBlock: QUQFOY_clean_sbu_3, # of connection points: 4
#     Node 12, Type 0, BuildingBlock: QUQFOY_clean_sbu_3, # of connection points: 4
#     Node 13, Type 0, BuildingBlock: QUQFOY_clean_sbu_3, # of connection points: 4
#     Node 14, Type 0, BuildingBlock: QUQFOY_clean_sbu_3, # of connection points: 4
#     Node 15, Type 0, BuildingBlock: QUQFOY_clean_sbu_3, # of connection points: 4
#     Node 16, Type 0, BuildingBlock: QUQFOY_clean_sbu_3, # of connection points: 4
#     Node 17, Type 0, BuildingBlock: QUQFOY_clean_sbu_3, # of connection points: 4
#     Node 18, Type 0, BuildingBlock: QUQFOY_clean_sbu_3, # of connection points: 4
#     Node 19, Type 0, BuildingBlock: QUQFOY_clean_sbu_3, # of connection points: 4
#     Node 20, Type 0, BuildingBlock: QUQFOY_clean_sbu_3, # of connection points: 4
#     Node 21, Type 0, BuildingBlock: QUQFOY_clean_sbu_3, # of connection points: 4
#     Node 22, Type 0, BuildingBlock: QUQFOY_clean_sbu_3, # of connection points: 4
#     Node 23, Type 0, BuildingBlock: QUQFOY_clean_sbu_3, # of connection points: 4
#     Edge 24, Type (0, 0), BuildingBlock: XIVTED_clean_linker_0, # of connection points: 2
#     Edge 25, Type (0, 0), BuildingBlock: XIVTED_clean_linker_0, # of connection points: 2
#     Edge 26, Type (0, 0), BuildingBlock: XIVTED_clean_linker_0, # of connection points: 2
#     Edge 27, Type (0, 0), BuildingBlock: XIVTED_clean_linker_0, # of connection points: 2
#     Edge 28, Type (0, 0), BuildingBlock: XIVTED_clean_linker_0, # of connection points: 2
#     Edge 29, Type (0, 0), BuildingBlock: XIVTED_clean_linker_0, # of connection points: 2
#     Edge 30, Type (0, 0), BuildingBlock: XIVTED_clean_linker_0, # of connection points: 2
#     Edge 31, Type (0, 0), BuildingBlock: XIVTED_clean_linker_0, # of connection points: 2
#     Edge 32, Type (0, 0), BuildingBlock: XIVTED_clean_linker_0, # of connection points: 2
#     Edge 33, Type (0, 0), BuildingBlock: XIVTED_clean_linker_0, # of connection points: 2
#     Edge 34, Type (0, 0), BuildingBlock: XIVTED_clean_linker_0, # of connection points: 2
#     Edge 35, Type (0, 0), BuildingBlock: XIVTED_clean_linker_0, # of connection points: 2
#     Edge 36, Type (0, 0), BuildingBlock: XIVTED_clean_linker_0, # of connection points: 2
#     Edge 37, Type (0, 0), BuildingBlock: XIVTED_clean_linker_0, # of connection points: 2
#     Edge 38, Type (0, 0), BuildingBlock: XIVTED_clean_linker_0, # of connection points: 2
#     Edge 39, Type (0, 0), BuildingBlock: XIVTED_clean_linker_0, # of connection points: 2
#     Edge 40, Type (0, 0), BuildingBlock: XIVTED_clean_linker_0, # of connection points: 2
#     Edge 41, Type (0, 0), BuildingBlock: XIVTED_clean_linker_0, # of connection points: 2
#     Edge 42, Type (0, 0), BuildingBlock: XIVTED_clean_linker_0, # of connection points: 2
#     Edge 43, Type (0, 0), BuildingBlock: XIVTED_clean_linker_0, # of connection points: 2
#     Edge 44, Type (0, 0), BuildingBlock: XIVTED_clean_linker_0, # of connection points: 2
#     Edge 45, Type (0, 0), BuildingBlock: XIVTED_clean_linker_0, # of connection points: 2
#     Edge 46, Type (0, 0), BuildingBlock: XIVTED_clean_linker_0, # of connection points: 2
#     Edge 47, Type (0, 0), BuildingBlock: XIVTED_clean_linker_0, # of connection points: 2
#     Edge 48, Type (0, 0), BuildingBlock: XIVTED_clean_linker_0, # of connection points: 2
#     Edge 49, Type (0, 0), BuildingBlock: XIVTED_clean_linker_0, # of connection points: 2
#     Edge 50, Type (0, 0), BuildingBlock: XIVTED_clean_linker_0, # of connection points: 2
#     Edge 51, Type (0, 0), BuildingBlock: XIVTED_clean_linker_0, # of connection points: 2
#     Edge 52, Type (0, 0), BuildingBlock: XIVTED_clean_linker_0, # of connection points: 2
#     Edge 53, Type (0, 0), BuildingBlock: XIVTED_clean_linker_0, # of connection points: 2
#     Edge 54, Type (0, 0), BuildingBlock: XIVTED_clean_linker_0, # of connection points: 2
#     Edge 55, Type (0, 0), BuildingBlock: XIVTED_clean_linker_0, # of connection points: 2
#     Edge 56, Type (0, 0), BuildingBlock: XIVTED_clean_linker_0, # of connection points: 2
#     Edge 57, Type (0, 0), BuildingBlock: XIVTED_clean_linker_0, # of connection points: 2
#     Edge 58, Type (0, 0), BuildingBlock: XIVTED_clean_linker_0, # of connection points: 2
#     Edge 59, Type (0, 0), BuildingBlock: XIVTED_clean_linker_0, # of connection points: 2
#     Edge 60, Type (0, 0), BuildingBlock: XIVTED_clean_linker_0, # of connection points: 2
#     Edge 61, Type (0, 0), BuildingBlock: XIVTED_clean_linker_0, # of connection points: 2
#     Edge 62, Type (0, 0), BuildingBlock: XIVTED_clean_linker_0, # of connection points: 2
#     Edge 63, Type (0, 0), BuildingBlock: XIVTED_clean_linker_0, # of connection points: 2
#     Edge 64, Type (0, 0), BuildingBlock: XIVTED_clean_linker_0, # of connection points: 2
#     Edge 65, Type (0, 0), BuildingBlock: XIVTED_clean_linker_0, # of connection points: 2
#     Edge 66, Type (0, 0), BuildingBlock: XIVTED_clean_linker_0, # of connection points: 2
#     Edge 67, Type (0, 0), BuildingBlock: XIVTED_clean_linker_0, # of connection points: 2
#     Edge 68, Type (0, 0), BuildingBlock: XIVTED_clean_linker_0, # of connection points: 2
#     Edge 69, Type (0, 0), BuildingBlock: XIVTED_clean_linker_0, # of connection points: 2
#     Edge 70, Type (0, 0), BuildingBlock: XIVTED_clean_linker_0, # of connection points: 2
#     Edge 71, Type (0, 0), BuildingBlock: XIVTED_clean_linker_0, # of connection points: 2
# Relax obj value: 0.059
# Max RMSD: 0.041
# Mean RMSD: 0.041
data_MOF--net-umk--node1-QUQFOY_clean_sbu_3--edge1-XIVTED_clean_linker_0
_symmetry_space_group_name_H-M    P1
_symmetry_Int_Tables_number       1
_symmetry_cell_setting            triclinic
loop_
_symmetry_equiv_pos_as_xyz
'x, y, z'
_cell_length_a     68.469865
_cell_length_b     68.328604
_cell_length_c     44.890831
_cell_angle_alpha  90.030104
_cell_angle_beta   89.868828
_cell_angle_gamma 119.89312
loop_
_atom_site_label
_atom_site_type_symbol
_atom_site_fract_x
_atom_site_fract_y
_atom_site_fract_z
_atom_type_partial_charge
C0 C 0.32712 0.47606 0.12488 0.0
O1 O 0.34584 0.49299 0.11743 0.0
Cd2 Cd 0.36289 0.50129 0.06984 0.0
O3 O 0.3145 0.46137 0.10573 0.0
Cd4 Cd 0.31474 0.45674 0.05016 0.0
C5 C 0.36022 0.44989 0.05525 0.0
O6 O 0.3323 0.49649 0.04084 0.0
O7 O 0.33034 0.47746 0.00205 0.0
O8 O 0.2753 0.44568 0.05431 0.0
C9 C 0.33623 0.4966 0.01338 0.0
O10 O 0.3713 0.47107 0.06022 0.0
C11 C 0.26829 0.43021 0.03482 0.0
O12 O 0.33887 0.43964 0.05215 0.0
O13 O 0.28288 0.42625 0.02307 0.0
C14 C 0.84672 0.33638 0.63431 0.0
O15 O 0.84966 0.35558 0.62675 0.0
Cd16 Cd 0.85626 0.37147 0.57857 0.0
O17 O 0.84662 0.32262 0.61495 0.0
Cd18 Cd 0.84907 0.32206 0.55899 0.0
C19 C 0.90246 0.366 0.55916 0.0
O20 O 0.82754 0.34079 0.55247 0.0
O21 O 0.84217 0.33751 0.51203 0.0
O22 O 0.8204 0.28251 0.56407 0.0
C23 C 0.82981 0.34397 0.52473 0.0
O24 O 0.89358 0.37813 0.56487 0.0
C25 C 0.8276 0.2755 0.54289 0.0
O26 O 0.89039 0.34458 0.55742 0.0
O27 O 0.84556 0.29002 0.53 0.0
C28 C 0.50857 0.86847 0.12717 0.0
O29 O 0.49365 0.87306 0.11852 0.0
Cd30 Cd 0.47759 0.8683 0.07038 0.0
O31 O 0.51765 0.86099 0.10897 0.0
Cd32 Cd 0.51429 0.85398 0.05395 0.0
C33 C 0.52607 0.90713 0.03619 0.0
O34 O 0.47355 0.8335 0.05422 0.0
O35 O 0.48813 0.84106 0.01061 0.0
O36 O 0.52422 0.82467 0.06198 0.0
C37 C 0.47046 0.83138 0.02644 0.0
O38 O 0.50558 0.90062 0.04238 0.0
C39 C 0.53747 0.83025 0.03978 0.0
O40 O 0.53429 0.89429 0.04082 0.0
O41 O 0.54073 0.84753 0.02516 0.0
C42 C 0.65222 0.51642 0.63603 0.0
O43 O 0.63425 0.49744 0.63485 0.0
Cd44 Cd 0.61174 0.48375 0.59124 0.0
O45 O 0.66102 0.52809 0.61262 0.0
Cd46 Cd 0.65525 0.52255 0.55769 0.0
C47 C 0.61308 0.53309 0.5671 0.0
O48 O 0.63516 0.48145 0.55438 0.0
O49 O 0.63116 0.49883 0.51711 0.0
O50 O 0.69394 0.53092 0.55576 0.0
C51 C 0.62678 0.48022 0.52888 0.0
O52 O 0.60256 0.51305 0.57754 0.0
C53 C 0.69959 0.54389 0.5333 0.0
O54 O 0.63366 0.54202 0.55921 0.0
O55 O 0.68463 0.54752 0.52216 0.0
C56 C 0.12674 0.65374 0.13852 0.0
O57 O 0.12298 0.63384 0.13368 0.0
Cd58 Cd 0.11922 0.61518 0.08764 0.0
O59 O 0.12929 0.66719 0.11721 0.0
Cd60 Cd 0.12994 0.665 0.06138 0.0
C61 C 0.07653 0.62103 0.05553 0.0
O62 O 0.14987 0.64426 0.06197 0.0
O63 O 0.14024 0.64861 0.01833 0.0
O64 O 0.15912 0.70463 0.06187 0.0
C65 C 0.14977 0.64063 0.03444 0.0
O66 O 0.08408 0.60853 0.06509 0.0
C67 C 0.151 0.71041 0.04043 0.0
O68 O 0.08909 0.64241 0.05419 0.0
O69 O 0.13259 0.69518 0.0294 0.0
C70 C 0.47864 0.13424 0.62887 0.0
O71 O 0.4947 0.13238 0.61774 0.0
Cd72 Cd 0.5022 0.12896 0.56716 0.0
O73 O 0.46394 0.13493 0.61213 0.0
Cd74 Cd 0.45889 0.13479 0.55651 0.0
C75 C 0.45104 0.08234 0.54906 0.0
O76 O 0.49842 0.15756 0.54318 0.0
O77 O 0.47695 0.13868 0.50718 0.0
O78 O 0.44785 0.16344 0.56244 0.0
C79 C 0.49667 0.15269 0.51584 0.0
O80 O 0.47238 0.09173 0.55147 0.0
C81 C 0.43144 0.15443 0.5444 0.0
O82 O 0.44101 0.09366 0.5526 0.0
O83 O 0.42716 0.13573 0.53291 0.0
C84 C 0.52626 0.65089 0.84625 0.0
O85 O 0.51359 0.62964 0.84838 0.0
Cd86 Cd 0.49205 0.60962 0.89135 0.0
O87 O 0.53021 0.66371 0.86875 0.0
Cd88 Cd 0.52123 0.65784 0.92279 0.0
C89 C 0.53602 0.61783 0.93471 0.0
O90 O 0.48092 0.63407 0.91352 0.0
O91 O 0.49066 0.63899 0.95958 0.0
O92 O 0.52975 0.69697 0.92135 0.0
C93 C 0.47497 0.63036 0.94054 0.0
O94 O 0.51727 0.6039 0.92296 0.0
C95 C 0.53989 0.70233 0.94623 0.0
O96 O 0.54294 0.63893 0.93473 0.0
O97 O 0.54181 0.68711 0.95985 0.0
C98 C 0.87435 0.52777 0.35056 0.0
O99 O 0.87913 0.51249 0.35672 0.0
Cd100 Cd 0.87196 0.49114 0.40134 0.0
O101 O 0.86513 0.53437 0.36977 0.0
Cd102 Cd 0.85513 0.52579 0.42343 0.0
C103 C 0.90779 0.53677 0.44289 0.0
O104 O 0.83654 0.48529 0.41704 0.0
O105 O 0.84004 0.49603 0.46249 0.0
O106 O 0.82538 0.53512 0.41587 0.0
C107 C 0.83275 0.4798 0.44416 0.0
O108 O 0.90205 0.51699 0.43374 0.0
C109 C 0.82978 0.54701 0.43931 0.0
O110 O 0.89484 0.54503 0.43949 0.0
O111 O 0.84655 0.54974 0.45459 0.0
C112 C 0.33641 0.87584 0.84953 0.0
O113 O 0.3559 0.8792 0.85599 0.0
Cd114 Cd 0.36903 0.87248 0.90169 0.0
O115 O 0.32073 0.86866 0.86899 0.0
Cd116 Cd 0.31936 0.86098 0.92356 0.0
C117 C 0.36386 0.91302 0.93914 0.0
O118 O 0.33796 0.83881 0.91958 0.0
O119 O 0.33267 0.84601 0.96433 0.0
O120 O 0.27951 0.83344 0.91751 0.0
C121 C 0.33967 0.83614 0.94708 0.0
O122 O 0.3765 0.90525 0.93106 0.0
C123 C 0.27322 0.83909 0.94104 0.0
O124 O 0.34252 0.90128 0.9364 0.0
O125 O 0.28826 0.85573 0.95555 0.0
C126 C 0.46921 0.3273 0.34916 0.0
O127 O 0.48671 0.3456 0.35628 0.0
Cd128 Cd 0.49301 0.36431 0.4025 0.0
O129 O 0.45368 0.31614 0.36817 0.0
Cd130 Cd 0.44921 0.31904 0.42339 0.0
C131 C 0.44196 0.36331 0.41178 0.0
O132 O 0.48869 0.3367 0.43752 0.0
O133 O 0.46731 0.34 0.46958 0.0
O134 O 0.4389 0.27962 0.42526 0.0
C135 C 0.4868 0.34352 0.46294 0.0
O136 O 0.46323 0.37401 0.40774 0.0
C137 C 0.42335 0.27376 0.44447 0.0
O138 O 0.43143 0.34207 0.41632 0.0
O139 O 0.41892 0.28884 0.45311 0.0
C140 C 0.12546 0.4714 0.85114 0.0
O141 O 0.12354 0.48869 0.85597 0.0
Cd142 Cd 0.11692 0.50107 0.90217 0.0
O143 O 0.12465 0.45856 0.87233 0.0
Cd144 Cd 0.12224 0.45824 0.92811 0.0
C145 C 0.06965 0.45119 0.92506 0.0
O146 O 0.14441 0.49856 0.93043 0.0
O147 O 0.13161 0.48335 0.9729 0.0
O148 O 0.14915 0.44514 0.92343 0.0
C149 C 0.14313 0.50127 0.95798 0.0
O150 O 0.07913 0.47178 0.91688 0.0
C151 C 0.14203 0.43186 0.9456 0.0
O152 O 0.08114 0.44141 0.92936 0.0
O153 O 0.12503 0.4302 0.95938 0.0
C154 C 0.64231 0.11278 0.35047 0.0
O155 O 0.62262 0.10938 0.35556 0.0
Cd156 Cd 0.60745 0.11345 0.40115 0.0
O157 O 0.65691 0.11891 0.37119 0.0
Cd158 Cd 0.65553 0.12474 0.4261 0.0
C159 C 0.61236 0.07163 0.4362 0.0
O160 O 0.63607 0.14644 0.42426 0.0
O161 O 0.63573 0.13198 0.46674 0.0
O162 O 0.69499 0.15427 0.42383 0.0
C163 C 0.6308 0.14452 0.45153 0.0
O164 O 0.59975 0.07941 0.42797 0.0
C165 C 0.70087 0.148 0.44711 0.0
O166 O 0.63375 0.08383 0.43511 0.0
O167 O 0.6858 0.1304 0.46011 0.0
C168 C 0.65177 0.52709 0.84883 0.0
O169 O 0.63081 0.51359 0.85222 0.0
Cd170 Cd 0.6122 0.49274 0.89625 0.0
O171 O 0.66541 0.53249 0.87061 0.0
Cd172 Cd 0.66134 0.52525 0.92515 0.0
C173 C 0.61964 0.53764 0.93749 0.0
O174 O 0.63849 0.48461 0.91904 0.0
O175 O 0.64386 0.49606 0.96433 0.0
O176 O 0.70034 0.53353 0.9246 0.0
C177 C 0.63511 0.4796 0.94636 0.0
O178 O 0.6061 0.51825 0.92691 0.0
C179 C 0.70621 0.54609 0.94751 0.0
O180 O 0.64088 0.54557 0.93659 0.0
O181 O 0.69133 0.54948 0.95948 0.0
C182 C 0.12197 0.64973 0.35645 0.0
O183 O 0.11774 0.62986 0.36272 0.0
Cd184 Cd 0.11449 0.6132 0.41001 0.0
O185 O 0.12506 0.66402 0.37687 0.0
Cd186 Cd 0.12648 0.66388 0.43293 0.0
C187 C 0.0727 0.62126 0.44104 0.0
O188 O 0.14621 0.64303 0.4328 0.0
O189 O 0.13699 0.64797 0.47644 0.0
O190 O 0.1558 0.70335 0.42838 0.0
C191 C 0.14659 0.63998 0.46039 0.0
O192 O 0.07991 0.60819 0.4326 0.0
C193 C 0.14961 0.71007 0.45099 0.0
O194 O 0.08556 0.64262 0.44103 0.0
O195 O 0.13204 0.69546 0.4645 0.0
C196 C 0.47818 0.12758 0.85184 0.0
O197 O 0.49296 0.12349 0.86245 0.0
Cd198 Cd 0.50267 0.12236 0.91263 0.0
O199 O 0.46551 0.13133 0.86908 0.0
Cd200 Cd 0.46239 0.13314 0.92497 0.0
C201 C 0.45133 0.07951 0.93663 0.0
O202 O 0.50261 0.15449 0.93177 0.0
O203 O 0.4844 0.14286 0.97262 0.0
O204 O 0.45152 0.16184 0.9173 0.0
C205 C 0.50331 0.15415 0.95979 0.0
O206 O 0.47232 0.08712 0.93266 0.0
C207 C 0.43647 0.15444 0.93746 0.0
O208 O 0.44277 0.09215 0.93287 0.0
O209 O 0.43281 0.13655 0.95081 0.0
C210 C 0.32794 0.47891 0.34265 0.0
O211 O 0.34732 0.49548 0.3484 0.0
Cd212 Cd 0.36651 0.50463 0.39448 0.0
O213 O 0.31565 0.46515 0.36294 0.0
Cd214 Cd 0.31793 0.46232 0.41855 0.0
C215 C 0.36159 0.45254 0.4107 0.0
O216 O 0.33763 0.50244 0.42516 0.0
O217 O 0.33531 0.48448 0.4652 0.0
O218 O 0.27857 0.45227 0.41799 0.0
C219 C 0.342 0.50334 0.45254 0.0
O220 O 0.37346 0.47342 0.4042 0.0
C221 C 0.27219 0.43705 0.43782 0.0
O222 O 0.34052 0.44362 0.41576 0.0
O223 O 0.28702 0.43289 0.44809 0.0
C224 C 0.84361 0.33411 0.85348 0.0
O225 O 0.84584 0.35308 0.8608 0.0
Cd226 Cd 0.85334 0.36992 0.90844 0.0
O227 O 0.84462 0.32095 0.87284 0.0
Cd228 Cd 0.84802 0.32129 0.92872 0.0
C229 C 0.90079 0.36629 0.92629 0.0
O230 O 0.82591 0.33928 0.93613 0.0
O231 O 0.84167 0.33693 0.97592 0.0
O232 O 0.81969 0.28159 0.92603 0.0
C233 C 0.82878 0.34288 0.96373 0.0
O234 O 0.89138 0.37792 0.9206 0.0
C235 C 0.82816 0.27517 0.94626 0.0
O236 O 0.88917 0.34488 0.92882 0.0
O237 O 0.84667 0.29011 0.95745 0.0
C238 C 0.50777 0.86555 0.34755 0.0
O239 O 0.49199 0.86859 0.35704 0.0
Cd240 Cd 0.47695 0.86374 0.4059 0.0
O241 O 0.51836 0.85939 0.3651 0.0
Cd242 Cd 0.51698 0.85254 0.42016 0.0
C243 C 0.52605 0.90509 0.43662 0.0
O244 O 0.47642 0.83081 0.42302 0.0
O245 O 0.49263 0.83976 0.46548 0.0
O246 O 0.52804 0.82413 0.41125 0.0
C247 C 0.47438 0.82947 0.45101 0.0
O248 O 0.50523 0.89744 0.43124 0.0
C249 C 0.54247 0.83079 0.43209 0.0
O250 O 0.53516 0.89299 0.43221 0.0
O251 O 0.54577 0.84822 0.44637 0.0
C252 C 0.47104 0.33243 0.13167 0.0
O253 O 0.48746 0.35192 0.12581 0.0
Cd254 Cd 0.49736 0.3705 0.07921 0.0
O255 O 0.45767 0.31991 0.11125 0.0
Cd256 Cd 0.45582 0.32259 0.05546 0.0
C257 C 0.44638 0.36658 0.06045 0.0
O258 O 0.49613 0.34149 0.04947 0.0
O259 O 0.47863 0.34011 0.00944 0.0
O260 O 0.44485 0.28285 0.05577 0.0
C261 C 0.49726 0.34587 0.02204 0.0
O262 O 0.46718 0.37835 0.06707 0.0
C263 C 0.43079 0.2772 0.03462 0.0
O264 O 0.43721 0.34533 0.05658 0.0
O265 O 0.42744 0.29251 0.02403 0.0
C266 C 0.12714 0.46849 0.63571 0.0
O267 O 0.12464 0.48552 0.63186 0.0
Cd268 Cd 0.11767 0.49886 0.58674 0.0
O269 O 0.12682 0.45631 0.61394 0.0
Cd270 Cd 0.12414 0.45727 0.55829 0.0
C271 C 0.07115 0.44914 0.562 0.0
O272 O 0.14542 0.49775 0.55727 0.0
O273 O 0.13279 0.4831 0.51457 0.0
O274 O 0.15211 0.44539 0.56055 0.0
C275 C 0.14392 0.50084 0.5299 0.0
O276 O 0.08035 0.46953 0.57096 0.0
C277 C 0.14514 0.43266 0.53786 0.0
O278 O 0.08285 0.43964 0.55721 0.0
O279 O 0.12764 0.43056 0.52511 0.0
C280 C 0.64177 0.10821 0.13474 0.0
O281 O 0.6216 0.10318 0.12929 0.0
Cd282 Cd 0.60644 0.10944 0.08486 0.0
O283 O 0.65702 0.1167 0.11473 0.0
Cd284 Cd 0.65669 0.12437 0.06044 0.0
C285 C 0.61351 0.07178 0.04322 0.0
O286 O 0.6358 0.14424 0.0668 0.0
O287 O 0.64256 0.13986 0.02142 0.0
O288 O 0.69636 0.15286 0.06588 0.0
C289 C 0.63404 0.14773 0.03958 0.0
O290 O 0.60021 0.07824 0.05306 0.0
C291 C 0.70272 0.14753 0.04213 0.0
O292 O 0.6348 0.08428 0.04564 0.0
O293 O 0.68777 0.1309 0.02752 0.0
C294 C 0.51664 0.6596 0.63512 0.0
O295 O 0.4978 0.64142 0.63428 0.0
Cd296 Cd 0.48116 0.61881 0.59118 0.0
O297 O 0.52776 0.66887 0.61145 0.0
Cd298 Cd 0.52186 0.66336 0.55652 0.0
C299 C 0.52854 0.61788 0.5643 0.0
O300 O 0.4811 0.64475 0.55691 0.0
O301 O 0.49574 0.64395 0.51492 0.0
O302 O 0.53323 0.70305 0.55396 0.0
C303 C 0.47809 0.63851 0.52999 0.0
O304 O 0.5088 0.60806 0.57557 0.0
C305 C 0.54605 0.70746 0.53147 0.0
O306 O 0.53807 0.63854 0.55638 0.0
O307 O 0.54847 0.69145 0.52121 0.0
C308 C 0.87682 0.52882 0.13545 0.0
O309 O 0.88128 0.51323 0.12991 0.0
Cd310 Cd 0.87396 0.49125 0.08587 0.0
O311 O 0.86806 0.53555 0.11581 0.0
Cd312 Cd 0.85896 0.52676 0.06203 0.0
C313 C 0.91147 0.53614 0.04464 0.0
O314 O 0.83909 0.48631 0.06931 0.0
O315 O 0.84344 0.49665 0.02361 0.0
O316 O 0.83044 0.53785 0.06832 0.0
C317 C 0.8354 0.48059 0.04227 0.0
O318 O 0.90501 0.51623 0.05395 0.0
C319 C 0.83509 0.54899 0.04417 0.0
O320 O 0.89889 0.54488 0.04726 0.0
O321 O 0.85153 0.5506 0.02905 0.0
C322 C 0.34012 0.87662 0.63323 0.0
O323 O 0.35994 0.88059 0.62747 0.0
Cd324 Cd 0.37442 0.87477 0.58217 0.0
O325 O 0.32484 0.86913 0.6133 0.0
Cd326 Cd 0.32482 0.86191 0.55878 0.0
C327 C 0.36854 0.915 0.54534 0.0
O328 O 0.34451 0.84072 0.56306 0.0
O329 O 0.33935 0.84796 0.51827 0.0
O330 O 0.28503 0.83368 0.56389 0.0
C331 C 0.34659 0.83836 0.53554 0.0
O332 O 0.38158 0.90779 0.55366 0.0
C333 C 0.27891 0.83939 0.54029 0.0
O334 O 0.3472 0.90249 0.54708 0.0
O335 O 0.29401 0.85623 0.52607 0.0
H336 H 0.30201 0.4377 0.15864 0.0
H337 H 0.33247 0.51221 0.30632 0.0
H338 H 0.33642 0.51044 0.16239 0.0
H339 H 0.30553 0.4402 0.30906 0.0
H340 H 0.32546 0.50991 0.25308 0.0
H341 H 0.2955 0.43646 0.21286 0.0
C342 C 0.30783 0.45333 0.17079 0.0
C343 C 0.32011 0.47421 0.15627 0.0
C344 C 0.32082 0.49449 0.26518 0.0
C345 C 0.31263 0.47296 0.21761 0.0
C346 C 0.3248 0.49583 0.29561 0.0
C347 C 0.31987 0.47642 0.31183 0.0
C348 C 0.31235 0.47363 0.25059 0.0
C349 C 0.30965 0.45554 0.2971 0.0
C350 C 0.30417 0.45263 0.20162 0.0
C351 C 0.32727 0.49399 0.17284 0.0
N352 N 0.30661 0.45472 0.26702 0.0
N353 N 0.32354 0.49286 0.20255 0.0
H354 H 0.8574 0.30878 0.66721 0.0
H355 H 0.817 0.3416 0.81689 0.0
H356 H 0.82573 0.34966 0.67337 0.0
H357 H 0.85957 0.31173 0.81867 0.0
H358 H 0.81329 0.33634 0.76334 0.0
H359 H 0.85256 0.30243 0.72156 0.0
C360 C 0.84919 0.31613 0.67992 0.0
C361 C 0.84226 0.33004 0.666 0.0
C362 C 0.82336 0.33075 0.77528 0.0
C363 C 0.83647 0.32271 0.72741 0.0
C364 C 0.82544 0.33373 0.80589 0.0
C365 C 0.83891 0.32743 0.822 0.0
C366 C 0.83522 0.32181 0.76037 0.0
C367 C 0.84914 0.31693 0.80683 0.0
C368 C 0.84649 0.31256 0.7108 0.0
C369 C 0.83169 0.33916 0.68329 0.0
N370 N 0.84744 0.3148 0.77658 0.0
N371 N 0.82921 0.33539 0.71297 0.0
H372 H 0.50254 0.89408 0.31118 0.0
H373 H 0.5267 0.84756 0.16069 0.0
H374 H 0.52615 0.84615 0.31136 0.0
H375 H 0.50399 0.89611 0.16626 0.0
H376 H 0.53147 0.84969 0.21517 0.0
H377 H 0.50797 0.89811 0.25772 0.0
C378 C 0.50898 0.88444 0.29988 0.0
C379 C 0.51359 0.86952 0.31563 0.0
C380 C 0.52573 0.86005 0.20431 0.0
C381 C 0.51964 0.87382 0.25395 0.0
C382 C 0.52307 0.8589 0.17329 0.0
C383 C 0.51461 0.87141 0.15905 0.0
C384 C 0.51999 0.87393 0.22092 0.0
C385 C 0.51017 0.88585 0.17634 0.0
C386 C 0.51214 0.88678 0.26927 0.0
C387 C 0.5223 0.85776 0.29993 0.0
N388 N 0.51277 0.88657 0.20626 0.0
N389 N 0.52474 0.8599 0.26975 0.0
H390 H 0.68711 0.52662 0.82167 0.0
H391 H 0.65863 0.55537 0.66099 0.0
H392 H 0.63507 0.54356 0.8071 0.0
H393 H 0.66606 0.49733 0.67779 0.0
H394 H 0.6659 0.56551 0.71408 0.0
H395 H 0.69514 0.53062 0.76784 0.0
C396 C 0.67795 0.53196 0.80725 0.0
C397 C 0.66031 0.53462 0.81852 0.0
C398 C 0.66663 0.55099 0.70582 0.0
C399 C 0.66961 0.53956 0.75772 0.0
C400 C 0.66261 0.54528 0.6757 0.0
C401 C 0.66173 0.5255 0.66538 0.0
C402 C 0.6703 0.53707 0.72526 0.0
C403 C 0.66658 0.51268 0.68516 0.0
C404 C 0.68247 0.53413 0.7767 0.0
C405 C 0.64869 0.54123 0.79905 0.0
N406 N 0.67059 0.51863 0.71432 0.0
N407 N 0.65347 0.54337 0.76946 0.0
H408 H 0.10925 0.67645 0.32502 0.0
H409 H 0.15821 0.65463 0.17453 0.0
H410 H 0.14377 0.63842 0.31644 0.0
H411 H 0.10438 0.67003 0.17261 0.0
H412 H 0.16102 0.66015 0.22824 0.0
H413 H 0.11401 0.68399 0.27076 0.0
C414 C 0.11805 0.66998 0.31179 0.0
C415 C 0.12588 0.65656 0.32494 0.0
C416 C 0.14874 0.66263 0.21617 0.0
C417 C 0.13174 0.66541 0.26386 0.0
C418 C 0.14723 0.65958 0.18554 0.0
C419 C 0.13093 0.66169 0.16945 0.0
C420 C 0.13348 0.66733 0.23101 0.0
C421 C 0.11714 0.66825 0.18452 0.0
C422 C 0.1207 0.67422 0.28101 0.0
C423 C 0.13717 0.64854 0.30707 0.0
N424 N 0.11843 0.67046 0.21477 0.0
N425 N 0.13973 0.65308 0.27756 0.0
H426 H 0.50701 0.12655 0.8113 0.0
H427 H 0.44352 0.13003 0.66448 0.0
H428 H 0.44684 0.13188 0.81734 0.0
H429 H 0.51135 0.14117 0.6683 0.0
H430 H 0.44231 0.12925 0.71946 0.0
H431 H 0.50638 0.1295 0.75791 0.0
C432 C 0.49353 0.12829 0.80141 0.0
C433 C 0.47692 0.12895 0.81902 0.0
C434 C 0.45744 0.13201 0.70807 0.0
C435 C 0.47619 0.13249 0.75699 0.0
C436 C 0.45815 0.13247 0.67678 0.0
C437 C 0.47745 0.13536 0.66172 0.0
C438 C 0.47613 0.13441 0.72408 0.0
C439 C 0.49595 0.13853 0.67875 0.0
C440 C 0.49326 0.13011 0.77071 0.0
C441 C 0.45999 0.13132 0.8046 0.0
N442 N 0.49475 0.13785 0.70881 0.0
N443 N 0.45999 0.13294 0.77428 0.0
H444 H 0.55491 0.66361 0.65857 0.0
H445 H 0.52718 0.68801 0.82248 0.0
H446 H 0.49945 0.67453 0.67824 0.0
H447 H 0.54253 0.6354 0.8024 0.0
H448 H 0.53207 0.69853 0.76947 0.0
H449 H 0.56523 0.66903 0.71166 0.0
C450 C 0.54549 0.66803 0.67394 0.0
C451 C 0.52635 0.66864 0.66439 0.0
C452 C 0.53502 0.68515 0.77696 0.0
C453 C 0.53805 0.67499 0.72434 0.0
C454 C 0.53234 0.67921 0.80707 0.0
C455 C 0.53425 0.66069 0.81653 0.0
C456 C 0.54019 0.67281 0.7566 0.0
C457 C 0.54071 0.64964 0.79578 0.0
C458 C 0.55129 0.67098 0.70406 0.0
C459 C 0.51433 0.67396 0.685 0.0
N460 N 0.54333 0.65579 0.76665 0.0
N461 N 0.52031 0.67682 0.71417 0.0
H462 H 0.85114 0.54352 0.31779 0.0
H463 H 0.91219 0.53716 0.17041 0.0
H464 H 0.90826 0.53309 0.31431 0.0
H465 H 0.8517 0.54187 0.16903 0.0
H466 H 0.91616 0.54576 0.22337 0.0
H467 H 0.85585 0.55231 0.26422 0.0
C468 C 0.86494 0.54359 0.30588 0.0
C469 C 0.87906 0.53714 0.32019 0.0
C470 C 0.90214 0.54524 0.21155 0.0
C471 C 0.88457 0.54715 0.25944 0.0
C472 C 0.8999 0.54034 0.18131 0.0
C473 C 0.88138 0.53841 0.16563 0.0
C474 C 0.8854 0.54764 0.22647 0.0
C475 C 0.86612 0.54306 0.18055 0.0
C476 C 0.86759 0.54852 0.27537 0.0
C477 C 0.89672 0.53751 0.30393 0.0
N478 N 0.86817 0.54697 0.21044 0.0
N479 N 0.89882 0.54218 0.27441 0.0
H480 H 0.3678 0.91114 0.66886 0.0
H481 H 0.29784 0.85286 0.81604 0.0
H482 H 0.30172 0.85199 0.66666 0.0
H483 H 0.36605 0.90858 0.81296 0.0
H484 H 0.29481 0.85679 0.76196 0.0
H485 H 0.36302 0.91534 0.72169 0.0
C486 C 0.35214 0.89915 0.67958 0.0
C487 C 0.33529 0.88097 0.66368 0.0
C488 C 0.31025 0.86839 0.7733 0.0
C489 C 0.32985 0.88527 0.72444 0.0
C490 C 0.31195 0.86621 0.80408 0.0
C491 C 0.33237 0.88016 0.81869 0.0
C492 C 0.32905 0.88478 0.75743 0.0
C493 C 0.35016 0.89719 0.80237 0.0
C494 C 0.34938 0.90153 0.70976 0.0
C495 C 0.31515 0.86613 0.67837 0.0
N496 N 0.34814 0.89888 0.77263 0.0
N497 N 0.31314 0.86831 0.70823 0.0
H498 H 0.50274 0.33098 0.31372 0.0
H499 H 0.43199 0.30573 0.16339 0.0
H500 H 0.4313 0.30669 0.31398 0.0
H501 H 0.50444 0.34105 0.17026 0.0
H502 H 0.42946 0.29753 0.21727 0.0
H503 H 0.50143 0.32527 0.26017 0.0
C504 C 0.48668 0.32415 0.30242 0.0
C505 C 0.46718 0.31965 0.31808 0.0
C506 C 0.44585 0.30677 0.20677 0.0
C507 C 0.46558 0.31361 0.2565 0.0
C508 C 0.44729 0.31137 0.17613 0.0
C509 C 0.46845 0.32438 0.16264 0.0
C510 C 0.46574 0.31498 0.22355 0.0
C511 C 0.48779 0.33132 0.17994 0.0
C512 C 0.48592 0.32093 0.27182 0.0
C513 C 0.44673 0.31048 0.30253 0.0
N514 N 0.48596 0.32664 0.20943 0.0
N515 N 0.44651 0.30817 0.27234 0.0
H516 H 0.16193 0.49742 0.66932 0.0
H517 H 0.10821 0.43105 0.82091 0.0
H518 H 0.10366 0.43074 0.67054 0.0
H519 H 0.15313 0.50273 0.81185 0.0
H520 H 0.11298 0.42657 0.76724 0.0
H521 H 0.16636 0.49481 0.72274 0.0
C522 C 0.15035 0.48202 0.68092 0.0
C523 C 0.13232 0.46436 0.66589 0.0
C524 C 0.12203 0.44317 0.77725 0.0
C525 C 0.13669 0.4615 0.72708 0.0
C526 C 0.11937 0.44571 0.80772 0.0
C527 C 0.13004 0.46733 0.82046 0.0
C528 C 0.13579 0.46236 0.75994 0.0
C529 C 0.14431 0.48583 0.80268 0.0
C530 C 0.15278 0.48054 0.71138 0.0
C531 C 0.11775 0.44469 0.68164 0.0
N532 N 0.14669 0.48293 0.77336 0.0
N533 N 0.11996 0.44392 0.71171 0.0
H534 H 0.68122 0.13749 0.31778 0.0
H535 H 0.61639 0.07274 0.17061 0.0
H536 H 0.61488 0.0788 0.31416 0.0
H537 H 0.67913 0.13581 0.16811 0.0
H538 H 0.62116 0.07011 0.22385 0.0
H539 H 0.68581 0.13305 0.26411 0.0
C540 C 0.66789 0.12343 0.30581 0.0
C541 C 0.6475 0.10869 0.32007 0.0
C542 C 0.63411 0.08444 0.21175 0.0
C543 C 0.6526 0.10344 0.25937 0.0
C544 C 0.63138 0.08589 0.18134 0.0
C545 C 0.64721 0.10467 0.16522 0.0
C546 C 0.65251 0.10223 0.22641 0.0
C547 C 0.6665 0.12112 0.17997 0.0
C548 C 0.67046 0.12094 0.27528 0.0
C549 C 0.6307 0.09075 0.30378 0.0
N550 N 0.6684 0.11979 0.21001 0.0
N551 N 0.63356 0.08874 0.27433 0.0
H552 H 0.17288 0.42525 0.91549 0.0
H553 H 0.2509 0.40569 0.98363 0.0
H554 H 0.14067 0.41495 0.00128 0.0
H555 H 0.2326 0.43115 0.06042 0.0
H556 H 0.21498 0.39646 0.96045 0.0
H557 H 0.19959 0.41559 0.93702 0.0
C558 C 0.17107 0.42033 0.93872 0.0
C559 C 0.15474 0.42117 0.95673 0.0
C560 C 0.21878 0.40393 0.98245 0.0
C561 C 0.18524 0.40998 0.98164 0.0
C562 C 0.23916 0.40896 -0.00416 0.0
C563 C 0.24496 0.41974 0.02365 0.0
C564 C 0.20424 0.40983 -0.00298 0.0
C565 C 0.229 0.42331 0.03864 0.0
C566 C 0.18623 0.4146 0.951 0.0
C567 C 0.15309 0.41461 0.98665 0.0
N568 N 0.20949 0.41865 0.02496 0.0
N569 N 0.16855 0.40985 -0.00163 0.0
H570 H 0.73867 0.18121 0.41998 0.0
H571 H 0.79333 0.23902 0.57093 0.0
H572 H 0.7143 0.14691 0.5041 0.0
H573 H 0.83026 0.25951 0.48809 0.0
H574 H 0.76578 0.20357 0.54764 0.0
H575 H 0.77376 0.20846 0.44423 0.0
C576 C 0.74087 0.1792 0.44346 0.0
C577 C 0.72347 0.16198 0.46016 0.0
C578 C 0.78017 0.21559 0.53472 0.0
C579 C 0.76336 0.19328 0.48814 0.0
C580 C 0.79588 0.23584 0.54801 0.0
C581 C 0.81391 0.25233 0.53128 0.0
C582 C 0.78224 0.21206 0.50433 0.0
C583 C 0.81651 0.24729 0.50173 0.0
C584 C 0.76093 0.19472 0.45728 0.0
C585 C 0.72725 0.16004 0.49045 0.0
N586 N 0.80056 0.2278 0.48898 0.0
N587 N 0.74662 0.1758 0.50362 0.0
H588 H 0.53696 0.79473 0.06869 0.0
H589 H 0.54557 0.74057 0.91902 0.0
H590 H 0.55727 0.83214 0.98618 0.0
H591 H 0.5505 0.71451 0.0045 0.0
H592 H 0.55219 0.77536 0.94331 0.0
H593 H 0.5444 0.76638 0.04659 0.0
C594 C 0.5434 0.7972 0.04612 0.0
C595 C 0.54619 0.81563 0.02909 0.0
C596 C 0.55223 0.7622 0.9567 0.0
C597 C 0.55433 0.78311 0.00353 0.0
C598 C 0.54837 0.74232 0.94285 0.0
C599 C 0.54722 0.72457 0.95984 0.0
C600 C 0.55447 0.76413 0.98782 0.0
C601 C 0.55113 0.72776 0.99061 0.0
C602 C 0.54766 0.78102 0.03352 0.0
C603 C 0.5547 0.81808 2e-05 0.0
N604 N 0.55417 0.74701 0.00373 0.0
N605 N 0.55805 0.80175 0.98795 0.0
H606 H 0.73808 0.55086 0.56018 0.0
H607 H 0.79406 0.54592 0.41033 0.0
H608 H 0.7118 0.55611 0.47517 0.0
H609 H 0.83046 0.56562 0.49343 0.0
H610 H 0.76503 0.55232 0.43245 0.0
H611 H 0.77322 0.55893 0.53586 0.0
C612 C 0.73988 0.55408 0.53642 0.0
C613 C 0.72199 0.55261 0.51957 0.0
C614 C 0.7796 0.55568 0.44564 0.0
C615 C 0.76196 0.5614 0.49146 0.0
C616 C 0.79616 0.55199 0.43304 0.0
C617 C 0.81452 0.5549 0.45022 0.0
C618 C 0.78126 0.56192 0.47574 0.0
C619 C 0.81647 0.56294 0.47946 0.0
C620 C 0.75996 0.55875 0.52254 0.0
C621 C 0.72522 0.55706 0.48891 0.0
N622 N 0.79982 0.56576 0.49147 0.0
N623 N 0.74469 0.5608 0.47568 0.0
H624 H 0.23639 0.80539 0.91291 0.0
H625 H 0.14254 0.72499 0.98775 0.0
H626 H 0.25818 0.84002 -0.00285 0.0
H627 H 0.18847 0.7474 0.06214 0.0
H628 H 0.16766 0.76025 0.96175 0.0
H629 H 0.20169 0.77692 0.93656 0.0
C630 C 0.23357 0.80734 0.93621 0.0
C631 C 0.25029 0.82495 0.95317 0.0
C632 C 0.17219 0.75747 0.98379 0.0
C633 C 0.21057 0.79244 0.98047 0.0
C634 C 0.15776 0.73745 -0.00122 0.0
C635 C 0.16371 0.73307 0.02688 0.0
C636 C 0.19267 0.77312 -0.00294 0.0
C637 C 0.18346 0.74992 0.04027 0.0
C638 C 0.21364 0.79114 0.94971 0.0
C639 C 0.24578 0.82666 0.98328 0.0
N640 N 0.19735 0.76912 0.02511 0.0
N641 N 0.22657 0.81028 -0.00385 0.0
H642 H 0.4306 0.18976 0.57167 0.0
H643 H 0.40339 0.26141 0.49941 0.0
H644 H 0.40712 0.14758 0.49348 0.0
H645 H 0.42145 0.23559 0.42282 0.0
H646 H 0.39614 0.22765 0.52746 0.0
H647 H 0.41923 0.21504 0.54914 0.0
C648 C 0.42246 0.1855 0.5501 0.0
C649 C 0.42002 0.16672 0.53426 0.0
C650 C 0.4014 0.22927 0.5044 0.0
C651 C 0.40701 0.19555 0.50827 0.0
C652 C 0.40529 0.24839 0.48828 0.0
C653 C 0.4135 0.25146 0.45898 0.0
C654 C 0.40568 0.21321 0.49094 0.0
C655 C 0.41556 0.23404 0.44557 0.0
C656 C 0.41579 0.19984 0.53732 0.0
C657 C 0.40938 0.16194 0.50639 0.0
N658 N 0.41193 0.21575 0.46177 0.0
N659 N 0.40383 0.17663 0.49391 0.0
H660 H 0.80129 0.55154 0.07324 0.0
H661 H 0.72099 0.56718 0.00136 0.0
H662 H 0.83473 0.56417 0.98799 0.0
H663 H 0.7423 0.54409 0.925 0.0
H664 H 0.75583 0.57551 0.02683 0.0
H665 H 0.77245 0.55769 0.05067 0.0
C666 C 0.80287 0.55619 0.04993 0.0
C667 C 0.8203 0.55714 0.03241 0.0
C668 C 0.75287 0.56862 0.00452 0.0
C669 C 0.7874 0.56432 0.00635 0.0
C670 C 0.7331 0.56407 0.98984 0.0
C671 C 0.72855 0.55448 0.96125 0.0
C672 C 0.76813 0.56349 0.99047 0.0
C673 C 0.74495 0.5511 0.94723 0.0
C674 C 0.78645 0.55988 0.03705 0.0
C675 C 0.82152 0.56318 0.0023 0.0
N676 N 0.76394 0.55543 0.96209 0.0
N677 N 0.80499 0.56606 0.99007 0.0
H678 H 0.14796 0.72554 0.5066 0.0
H679 H 0.26425 0.84055 0.4841 0.0
H680 H 0.18376 0.74671 0.42296 0.0
H681 H 0.24167 0.806 0.5684 0.0
H682 H 0.22867 0.81246 0.46158 0.0
H683 H 0.17617 0.76123 0.52896 0.0
C684 C 0.16146 0.7379 0.49276 0.0
C685 C 0.16375 0.73305 0.463 0.0
C686 C 0.23138 0.8113 0.48512 0.0
C687 C 0.19592 0.77378 0.4884 0.0
C688 C 0.25161 0.82736 0.49804 0.0
C689 C 0.25603 0.82538 0.52806 0.0
C690 C 0.21541 0.7933 0.50245 0.0
C691 C 0.23904 0.80797 0.54507 0.0
C692 C 0.17758 0.75819 0.50558 0.0
C693 C 0.18155 0.74967 0.4461 0.0
N694 N 0.21954 0.79245 0.53195 0.0
N695 N 0.1971 0.76923 0.45912 0.0
H696 H 0.43611 0.18966 0.90905 0.0
H697 H 0.41155 0.26429 0.97946 0.0
H698 H 0.41385 0.14985 0.98951 0.0
H699 H 0.42913 0.23933 0.05725 0.0
H700 H 0.40433 0.23018 0.95242 0.0
H701 H 0.42614 0.2162 0.93099 0.0
C702 C 0.42854 0.18619 0.93103 0.0
C703 C 0.42603 0.16768 0.94761 0.0
C704 C 0.40957 0.2321 0.97548 0.0
C705 C 0.41457 0.19795 0.97292 0.0
C706 C 0.41344 0.25143 0.99103 0.0
C707 C 0.42143 0.25482 0.02043 0.0
C708 C 0.41367 0.21615 0.98956 0.0
C709 C 0.42341 0.23756 0.03442 0.0
C710 C 0.42267 0.20127 0.9435 0.0
C711 C 0.41617 0.16397 0.976 0.0
N712 N 0.4198 0.21905 0.01875 0.0
N713 N 0.41133 0.17931 0.98807 0.0
H714 H 0.17768 0.42719 0.56506 0.0
H715 H 0.25639 0.41208 0.48902 0.0
H716 H 0.14374 0.41769 0.48096 0.0
H717 H 0.23593 0.43884 0.41603 0.0
H718 H 0.22098 0.402 0.51459 0.0
H719 H 0.20523 0.41988 0.54072 0.0
C720 C 0.17569 0.42293 0.5416 0.0
C721 C 0.15856 0.42327 0.52493 0.0
C722 C 0.22421 0.40998 0.49292 0.0
C723 C 0.19004 0.41483 0.4968 0.0
C724 C 0.24431 0.41552 0.47818 0.0
C725 C 0.24931 0.4268 0.45069 0.0
C726 C 0.20913 0.41583 0.48003 0.0
C727 C 0.23294 0.43058 0.43748 0.0
C728 C 0.19135 0.41857 0.5277 0.0
C729 C 0.15674 0.41766 0.49461 0.0
N730 N 0.21368 0.42534 0.45243 0.0
N731 N 0.17265 0.41422 0.48134 0.0
H732 H 0.83566 0.25956 -0.00124 0.0
H733 H 0.73945 0.18092 0.0708 0.0
H734 H 0.79128 0.23861 0.92277 0.0
H735 H 0.71818 0.14672 0.98622 0.0
H736 H 0.77494 0.20868 0.04803 0.0
H737 H 0.80941 0.22433 0.02401 0.0
C738 C 0.82059 0.24738 0.98718 0.0
C739 C 0.81535 0.25221 0.9589 0.0
C740 C 0.76289 0.19471 0.03463 0.0
C741 C 0.78508 0.21226 0.98787 0.0
C742 C 0.7425 0.17894 0.0476 0.0
C743 C 0.72576 0.16165 0.0303 0.0
C744 C 0.76642 0.19329 0.00403 0.0
C745 C 0.73059 0.15987 0.00035 0.0
C746 C 0.80549 0.2274 0.00176 0.0
C747 C 0.79574 0.23573 0.94481 0.0
N748 N 0.75028 0.17581 0.98799 0.0
N749 N 0.78119 0.21659 0.95958 0.0
H750 H 0.54148 0.79486 0.40366 0.0
H751 H 0.56282 0.71807 0.47462 0.0
H752 H 0.56555 0.8351 0.4835 0.0
H753 H 0.54996 0.74661 0.55292 0.0
H754 H 0.5704 0.75186 0.44647 0.0
H755 H 0.55052 0.76765 0.42546 0.0
C756 C 0.54926 0.79828 0.42546 0.0
C757 C 0.5525 0.81711 0.44195 0.0
C758 C 0.56605 0.75076 0.46985 0.0
C759 C 0.56296 0.78608 0.46708 0.0
C760 C 0.56198 0.73161 0.48601 0.0
C761 C 0.55527 0.72936 0.51597 0.0
C762 C 0.56341 0.7677 0.48386 0.0
C763 C 0.55465 0.74748 0.5297 0.0
C764 C 0.55459 0.7828 0.43785 0.0
C765 C 0.56263 0.82073 0.47008 0.0
N766 N 0.55843 0.7658 0.51346 0.0
N767 N 0.56699 0.80505 0.48206 0.0
H768 H 0.40566 0.46707 0.05793 0.0
H769 H 0.40068 0.34757 0.05103 0.0
H770 H 0.34317 0.40399 0.04936 0.0
H771 H 0.46136 0.41174 0.06361 0.0
H772 H 0.37912 0.36738 0.04795 0.0
H773 H 0.4261 0.44654 0.05746 0.0
C774 C 0.39618 0.44885 0.05589 0.0
C775 C 0.37259 0.43726 0.05383 0.0
C776 C 0.39716 0.37706 0.05132 0.0
C777 C 0.39609 0.41347 0.05333 0.0
C778 C 0.40948 0.36579 0.05306 0.0
C779 C 0.43288 0.37799 0.0577 0.0
C780 C 0.40835 0.40068 0.05418 0.0
C781 C 0.44337 0.40156 0.06015 0.0
C782 C 0.40792 0.4371 0.05563 0.0
C783 C 0.36134 0.41363 0.05107 0.0
N784 N 0.43105 0.41207 0.05839 0.0
N785 N 0.3732 0.40248 0.05101 0.0
H786 H 0.04276 0.46623 0.56083 0.0
H787 H 0.92932 0.3466 0.55368 0.0
H788 H 0.04308 0.40336 0.55377 0.0
H789 H 0.93223 0.41118 0.55675 0.0
H790 H 0.97064 0.36635 0.55119 0.0
H791 H 0.00202 0.44568 0.55688 0.0
C792 C 0.03426 0.44805 0.55838 0.0
C793 C 0.04641 0.43651 0.55787 0.0
C794 C 0.96216 0.37612 0.55223 0.0
C795 C -0.00061 0.41268 0.55341 0.0
C796 C 0.93859 0.36488 0.55363 0.0
C797 C 0.92725 0.37723 0.55568 0.0
C798 C 0.97439 0.39984 0.55288 0.0
C799 C 0.94015 0.40089 0.55547 0.0
C800 C 0.01091 0.43628 0.55607 0.0
C801 C 0.03438 0.41294 0.55434 0.0
N802 N 0.96294 0.41135 0.55425 0.0
N803 N 0.01148 0.40175 0.55246 0.0
H804 H 0.51323 0.93559 0.01218 0.0
H805 H 0.63289 0.04496 0.03946 0.0
H806 H 0.57229 0.93253 0.03827 0.0
H807 H 0.57138 0.04556 0.02083 0.0
H808 H 0.61337 0.00436 0.02868 0.0
H809 H 0.53663 0.97608 0.00446 0.0
C810 C 0.5312 0.94341 0.01594 0.0
C811 C 0.54076 0.93073 0.02642 0.0
C812 C 0.60429 0.01349 0.02648 0.0
C813 C 0.5677 0.97728 0.01804 0.0
C814 C 0.61544 0.03667 0.0325 0.0
C815 C 0.60362 0.04854 0.03154 0.0
C816 C 0.58124 0.00227 0.01933 0.0
C817 C 0.58105 0.03698 0.02237 0.0
C818 C 0.54459 0.96657 0.01153 0.0
C819 C 0.5642 0.94172 0.03043 0.0
N820 N 0.57056 0.01449 0.01695 0.0
N821 N 0.57685 0.96447 0.02673 0.0
H822 H 0.62977 0.57707 0.54883 0.0
H823 H 0.51219 0.57308 0.57529 0.0
H824 H 0.5688 0.51838 0.57918 0.0
H825 H 0.5726 0.63347 0.54753 0.0
H826 H 0.53266 0.55253 0.57392 0.0
H827 H 0.60917 0.5978 0.54566 0.0
C828 C 0.61208 0.56852 0.55476 0.0
C829 C 0.60104 0.54596 0.56442 0.0
C830 C 0.54148 0.57026 0.56803 0.0
C831 C 0.57743 0.56955 0.56077 0.0
C832 C 0.52977 0.58205 0.56879 0.0
C833 C 0.54071 0.60511 0.56169 0.0
C834 C 0.56439 0.58155 0.56019 0.0
C835 C 0.5635 0.61572 0.55325 0.0
C836 C 0.60034 0.58037 0.55294 0.0
C837 C 0.57808 0.53576 0.57176 0.0
N838 N 0.57464 0.60387 0.55288 0.0
N839 N 0.5671 0.54763 0.56982 0.0
H840 H 0.93927 0.52135 0.02397 0.0
H841 H 0.0504 0.64083 0.04728 0.0
H842 H 0.93765 0.58237 0.04362 0.0
H843 H 0.0484 0.57674 0.04235 0.0
H844 H 0.01002 0.62155 0.03565 0.0
H845 H 0.98005 0.54351 0.01883 0.0
C846 C 0.94748 0.5395 0.02671 0.0
C847 C 0.93511 0.54999 0.03478 0.0
C848 C 0.01853 0.61181 0.03683 0.0
C849 C 0.98191 0.57546 0.0295 0.0
C850 C 0.04154 0.62278 0.04346 0.0
C851 C 0.05269 0.61031 0.04626 0.0
C852 C 0.00674 0.5883 0.03271 0.0
C853 C 0.04044 0.58699 0.04093 0.0
C854 C 0.9708 0.55215 0.02388 0.0
C855 C 0.94659 0.5736 0.0376 0.0
N856 N 0.01815 0.57677 0.03459 0.0
N857 N 0.96946 0.58554 0.0355 0.0
H858 H 0.46733 0.05474 0.53257 0.0
H859 H 0.34839 0.94118 0.54354 0.0
H860 H 0.40502 0.05413 0.55037 0.0
H861 H 0.41205 0.94387 0.52917 0.0
H862 H 0.36756 0.98239 0.53892 0.0
H863 H 0.4462 0.01418 0.52471 0.0
C864 C 0.44916 0.04609 0.53477 0.0
C865 C 0.43797 0.05786 0.54254 0.0
C866 C 0.37724 0.97389 0.53638 0.0
C867 C 0.41355 0.01115 0.53356 0.0
C868 C 0.36629 0.95036 0.53883 0.0
C869 C 0.3787 0.93909 0.53714 0.0
C870 C 0.4007 0.98613 0.53214 0.0
C871 C 0.40185 0.95186 0.53106 0.0
C872 C 0.43707 0.02287 0.53017 0.0
C873 C 0.41435 0.04571 0.54463 0.0
N874 N 0.4121 0.97466 0.52907 0.0
N875 N 0.40292 0.02295 0.54046 0.0
H876 H 0.5822 0.63976 0.93933 0.0
H877 H 0.57856 0.5226 0.96265 0.0
H878 H 0.52226 0.57585 0.95626 0.0
H879 H 0.63898 0.58385 0.9377 0.0
H880 H 0.56 0.54441 0.97249 0.0
H881 H 0.60514 0.62215 0.95006 0.0
C882 C 0.57391 0.62218 0.94594 0.0
C883 C 0.55032 0.60909 0.94636 0.0
C884 C 0.57741 0.55322 0.96523 0.0
C885 C 0.57629 0.58896 0.95859 0.0
C886 C 0.58801 0.54075 0.95962 0.0
C887 C 0.61016 0.55141 0.9488 0.0
C888 C 0.58887 0.57651 0.95941 0.0
C889 C 0.62178 0.57499 0.94579 0.0
C890 C 0.58699 0.61213 0.95195 0.0
C891 C 0.5404 0.58643 0.95509 0.0
N892 N 0.61083 0.58676 0.95047 0.0
N893 N 0.55341 0.57705 0.96054 0.0
H894 H 0.93476 0.52266 0.46798 0.0
H895 H 0.04655 0.64145 0.4441 0.0
H896 H 0.93381 0.58304 0.44236 0.0
H897 H 0.04442 0.57795 0.45835 0.0
H898 H 0.00581 0.62261 0.45359 0.0
H899 H 0.97522 0.54511 0.47594 0.0
C900 C 0.94305 0.54075 0.4645 0.0
C901 C 0.93099 0.55095 0.45399 0.0
C902 C 0.01437 0.61292 0.45499 0.0
C903 C 0.97749 0.57676 0.46245 0.0
C904 C 0.03759 0.62365 0.44962 0.0
C905 C 0.0488 0.61115 0.44993 0.0
C906 C 0.00244 0.58962 0.46095 0.0
C907 C 0.03642 0.58817 0.45732 0.0
C908 C 0.96618 0.55357 0.46896 0.0
C909 C 0.94252 0.57449 0.45028 0.0
N910 N 0.01394 0.57816 0.46231 0.0
N911 N 0.96527 0.58659 0.45396 0.0
H912 H 0.405 0.05426 0.93665 0.0
H913 H 0.40642 0.93924 0.96031 0.0
H914 H 0.46459 0.04973 0.9543 0.0
H915 H 0.34612 0.94133 0.93858 0.0
H916 H 0.42647 0.98002 0.96667 0.0
H917 H 0.38192 0.01346 0.94488 0.0
C918 C 0.41321 0.04476 0.94257 0.0
C919 C 0.4368 0.05539 0.94436 0.0
C920 C 0.40878 0.97161 0.96084 0.0
C921 C 0.41054 0.00882 0.95384 0.0
C922 C 0.3973 0.94827 0.95727 0.0
C923 C 0.37465 0.93691 0.94847 0.0
C924 C 0.39766 0.9838 0.95522 0.0
C925 C 0.36362 0.94945 0.94523 0.0
C926 C 0.40003 0.02148 0.94725 0.0
C927 C 0.44651 0.04226 0.95223 0.0
N928 N 0.37534 0.97232 0.94813 0.0
N929 N 0.43337 0.0197 0.95645 0.0
H930 H 0.34232 0.40688 0.42151 0.0
H931 H 0.45934 0.4084 0.402 0.0
H932 H 0.40609 0.46641 0.40206 0.0
H933 H 0.39665 0.34744 0.42092 0.0
H934 H 0.43951 0.42956 0.40222 0.0
H935 H 0.36135 0.38453 0.4219 0.0
C936 C 0.36029 0.41527 0.41739 0.0
C937 C 0.3726 0.43859 0.41171 0.0
C938 C 0.43002 0.41156 0.40632 0.0
C939 C 0.39441 0.41313 0.41208 0.0
C940 C 0.44136 0.3994 0.40618 0.0
C941 C 0.42967 0.37605 0.41145 0.0
C942 C 0.40673 0.40038 0.41178 0.0
C943 C 0.40635 0.36542 0.41672 0.0
C944 C 0.37112 0.40249 0.41758 0.0
C945 C 0.39585 0.44852 0.4065 0.0
N946 N 0.39563 0.37768 0.41677 0.0
N947 N 0.40593 0.43575 0.4068 0.0
H948 H 0.04097 0.46803 0.92394 0.0
H949 H 0.92823 0.34783 0.93405 0.0
H950 H 0.04169 0.40554 0.93409 0.0
H951 H 0.9301 0.41168 0.92511 0.0
H952 H 0.96951 0.36817 0.93653 0.0
H953 H 0.00013 0.4472 0.92688 0.0
C954 C 0.03255 0.44989 0.92687 0.0
C955 C 0.04484 0.43852 0.92857 0.0
C956 C 0.96082 0.37767 0.93415 0.0
C957 C -0.00224 0.41441 0.93186 0.0
C958 C 0.93726 0.36609 0.93275 0.0
C959 C 0.92564 0.37804 0.92918 0.0
C960 C 0.97277 0.40134 0.93199 0.0
C961 C 0.93825 0.40169 0.92767 0.0
C962 C 0.00915 0.43797 0.92858 0.0
C963 C 0.0329 0.415 0.93261 0.0
N964 N 0.96106 0.41249 0.92899 0.0
N965 N 0.00998 0.40367 0.93394 0.0
H966 H 0.51146 0.93317 0.45714 0.0
H967 H 0.63153 0.04459 0.43935 0.0
H968 H 0.57223 0.93168 0.43591 0.0
H969 H 0.56862 0.04376 0.45226 0.0
H970 H 0.6117 0.00355 0.44669 0.0
H971 H 0.53377 0.97377 0.46444 0.0
C972 C 0.52956 0.94136 0.4543 0.0
C973 C 0.53994 0.92903 0.44544 0.0
C974 C 0.60234 0.01244 0.44828 0.0
C975 C 0.56567 0.97575 0.45348 0.0
C976 C 0.61365 0.03585 0.4442 0.0
C977 C 0.60165 0.04757 0.44478 0.0
C978 C 0.57894 0.00077 0.45311 0.0
C979 C 0.57851 0.0354 0.45117 0.0
C980 C 0.54231 0.96459 0.45847 0.0
C981 C 0.56351 0.94055 0.44253 0.0
N982 N 0.56792 0.0127 0.45483 0.0
N983 N 0.57558 0.96335 0.44613 0.0
H984 H 0.45547 0.62353 -0.00454 0.0
H985 H 0.3538 0.50267 0.95672 0.0
H986 H 0.44195 0.59829 0.90534 0.0
H987 H 0.35608 0.53901 0.03655 0.0
H988 H 0.38529 0.53748 0.93645 0.0
H989 H 0.41859 0.59269 0.01058 0.0
C990 C 0.44463 0.61162 0.97883 0.0
C991 C 0.4518 0.61337 0.94921 0.0
C992 C 0.37863 0.53786 0.95821 0.0
C993 C 0.40971 0.57785 0.96633 0.0
C994 C 0.36067 0.51802 0.96977 0.0
C995 C 0.35253 0.51787 -0.00148 0.0
C996 C 0.3886 0.55752 0.97572 0.0
C997 C 0.36199 0.53827 0.01442 0.0
C998 C 0.42355 0.59405 0.98741 0.0
C999 C 0.43703 0.59752 0.92847 0.0
N1000 N 0.37972 0.55716 0.003 0.0
N1001 N 0.4168 0.5802 0.93751 0.0
H1002 H 0.80925 0.3652 0.55025 0.0
H1003 H 0.82876 0.44484 0.41005 0.0
H1004 H 0.83725 0.35909 0.4668 0.0
H1005 H 0.82207 0.46222 0.5005 0.0
H1006 H 0.82297 0.40845 0.42763 0.0
H1007 H 0.80482 0.39558 0.52896 0.0
C1008 C 0.81419 0.37003 0.52728 0.0
C1009 C 0.82397 0.35982 0.51038 0.0
C1010 C 0.82252 0.42014 0.44354 0.0
C1011 C 0.81892 0.39463 0.48596 0.0
C1012 C 0.82572 0.44087 0.43355 0.0
C1013 C 0.82615 0.45668 0.45394 0.0
C1014 C 0.8195 0.4151 0.47406 0.0
C1015 C 0.82209 0.45061 0.48409 0.0
C1016 C 0.8117 0.38743 0.51521 0.0
C1017 C 0.82985 0.36666 0.48069 0.0
N1018 N 0.81906 0.43034 0.49328 0.0
N1019 N 0.82742 0.38382 0.46947 0.0
H1020 H 0.36582 0.82439 0.91401 0.0
H1021 H 0.4309 0.81643 0.05663 0.0
H1022 H 0.34769 0.82924 0.00477 0.0
H1023 H 0.45881 0.83025 0.96774 0.0
H1024 H 0.39542 0.81103 0.03668 0.0
H1025 H 0.39482 0.81662 0.9325 0.0
C1026 C 0.36768 0.82345 0.93784 0.0
C1027 C 0.35457 0.82783 0.95793 0.0
C1028 C 0.40921 0.81495 0.0215 0.0
C1029 C 0.3877 0.81895 0.97913 0.0
C1030 C 0.42946 0.81798 0.03283 0.0
C1031 C 0.44798 0.82422 0.01386 0.0
C1032 C 0.40742 0.81811 0.99097 0.0
C1033 C 0.44505 0.82575 0.98319 0.0
C1034 C 0.38428 0.81908 0.94834 0.0
C1035 C 0.35762 0.82626 0.98853 0.0
N1036 N 0.42521 0.82298 0.97272 0.0
N1037 N 0.37403 0.82216 -0.00179 0.0
H1038 H 0.4905 0.37891 0.49544 0.0
H1039 H 0.61944 0.43727 0.53593 0.0
H1040 H 0.529 0.34868 0.46393 0.0
H1041 H 0.58963 0.47485 0.49997 0.0
H1042 H 0.58495 0.4019 0.52264 0.0
H1043 H 0.52547 0.4117 0.51254 0.0
C1044 C 0.50624 0.37893 0.49279 0.0
C1045 C 0.50695 0.36115 0.47818 0.0
C1046 C 0.58616 0.41798 0.51762 0.0
C1047 C 0.54673 0.39839 0.49773 0.0
C1048 C 0.60572 0.43805 0.52506 0.0
C1049 C 0.60737 0.45892 0.51871 0.0
C1050 C 0.56802 0.41899 0.50483 0.0
C1051 C 0.58913 0.45913 0.50487 0.0
C1052 C 0.52613 0.39768 0.50227 0.0
C1053 C 0.52784 0.36214 0.47502 0.0
N1054 N 0.57007 0.43943 0.49875 0.0
N1055 N 0.54701 0.38052 0.48475 0.0
H1056 H 0.15894 0.54064 0.92706 0.0
H1057 H 0.15873 0.61241 0.06725 0.0
H1058 H 0.1415 0.51321 0.01602 0.0
H1059 H 0.15098 0.62838 0.97656 0.0
H1060 H 0.16134 0.58003 0.04926 0.0
H1061 H 0.16495 0.57677 0.94578 0.0
C1062 C 0.15664 0.54228 0.95063 0.0
C1063 C 0.14945 0.52379 0.96999 0.0
C1064 C 0.15929 0.59076 0.03331 0.0
C1065 C 0.1564 0.56516 0.99147 0.0
C1066 C 0.1579 0.60931 0.0435 0.0
C1067 C 0.15439 0.62298 0.02335 0.0
C1068 C 0.15743 0.586 0.00274 0.0
C1069 C 0.1535 0.61817 -0.00715 0.0
C1070 C 0.16001 0.5629 0.96123 0.0
C1071 C 0.14685 0.52697 0.0003 0.0
N1072 N 0.1549 0.59999 0.98346 0.0
N1073 N 0.15022 0.54726 0.01011 0.0
H1074 H 0.49837 0.12216 0.47849 0.0
H1075 H 0.62647 0.18144 0.43959 0.0
H1076 H 0.54006 0.18757 0.51834 0.0
H1077 H 0.59392 0.11705 0.48451 0.0
H1078 H 0.59384 0.18612 0.45204 0.0
H1079 H 0.53246 0.12219 0.46164 0.0
C1080 C 0.51466 0.13685 0.48284 0.0
C1081 C 0.51648 0.15493 0.49979 0.0
C1082 C 0.59409 0.17111 0.45925 0.0
C1083 C 0.55522 0.155 0.48051 0.0
C1084 C 0.61258 0.16846 0.45232 0.0
C1085 C 0.6129 0.149 0.46147 0.0
C1086 C 0.57563 0.15373 0.47427 0.0
C1087 C 0.59445 0.13247 0.47753 0.0
C1088 C 0.53401 0.13671 0.4735 0.0
C1089 C 0.53804 0.17335 0.50528 0.0
N1090 N 0.57637 0.13505 0.48303 0.0
N1091 N 0.5567 0.17295 0.49567 0.0
H1092 H 0.50556 0.36132 0.96432 0.0
H1093 H 0.62694 0.46254 0.00288 0.0
H1094 H 0.53863 0.36678 0.04819 0.0
H1095 H 0.60325 0.44536 0.91242 0.0
H1096 H 0.59494 0.4269 0.01966 0.0
H1097 H 0.54131 0.39136 0.94413 0.0
C1098 C 0.52038 0.36863 0.97834 0.0
C1099 C 0.51907 0.36174 0.00806 0.0
C1100 C 0.59689 0.43077 -0.00392 0.0
C1101 C 0.55983 0.39616 0.98531 0.0
C1102 C 0.61513 0.45113 0.98653 0.0
C1103 C 0.61763 0.45696 0.95628 0.0
C1104 C 0.58083 0.41635 0.97529 0.0
C1105 C 0.60191 0.44153 0.93598 0.0
C1106 C 0.54077 0.38574 0.96682 0.0
C1107 C 0.53881 0.3717 0.02522 0.0
N1108 N 0.58397 0.42205 0.94591 0.0
N1109 N 0.55829 0.3886 0.01373 0.0
H1110 H 0.14699 0.62733 0.51836 0.0
H1111 H 0.14316 0.51359 0.47219 0.0
H1112 H 0.15744 0.61303 0.42789 0.0
H1113 H 0.15693 0.5392 0.56219 0.0
H1114 H 0.14824 0.54993 0.45531 0.0
H1115 H 0.15063 0.59518 0.53525 0.0
C1116 C 0.15033 0.61761 0.50213 0.0
C1117 C 0.1517 0.62272 0.47168 0.0
C1118 C 0.15042 0.54766 0.4787 0.0
C1119 C 0.15555 0.58585 0.4907 0.0
C1120 C 0.14748 0.52693 0.48832 0.0
C1121 C 0.14944 0.52332 0.51863 0.0
C1122 C 0.15499 0.56473 0.49963 0.0
C1123 C 0.15515 0.54121 0.5386 0.0
C1124 C 0.15241 0.5993 0.51174 0.0
C1125 C 0.15612 0.60962 0.45157 0.0
N1126 N 0.15742 0.56104 0.52881 0.0
N1127 N 0.15756 0.59161 0.46139 0.0
H1128 H 0.62888 0.15978 0.98337 0.0
H1129 H 0.51003 0.1477 0.01855 0.0
H1130 H 0.60285 0.152 0.07287 0.0
H1131 H 0.54528 0.1736 0.93529 0.0
H1132 H 0.5446 0.15148 0.04012 0.0
H1133 H 0.59925 0.16702 0.96606 0.0
C1134 C 0.61708 0.15987 -0.00058 0.0
C1135 C 0.61819 0.15508 0.02952 0.0
C1136 C 0.54483 0.15667 0.01727 0.0
C1137 C 0.58405 0.16304 0.00987 0.0
C1138 C 0.52512 0.15454 0.00498 0.0
C1139 C 0.52468 0.16001 0.97496 0.0
C1140 C 0.5641 0.16409 -0.00072 0.0
C1141 C 0.54476 0.1689 0.95843 0.0
C1142 C 0.60019 0.16404 0.98957 0.0
C1143 C 0.60255 0.15553 0.04942 0.0
N1144 N 0.56352 0.17033 0.97066 0.0
N1145 N 0.5859 0.15908 0.03917 0.0
H1146 H 0.46485 0.62756 0.47227 0.0
H1147 H 0.3564 0.51153 0.51073 0.0
H1148 H 0.44077 0.61014 0.56266 0.0
H1149 H 0.36615 0.54417 0.42529 0.0
H1150 H 0.38762 0.54667 0.53073 0.0
H1151 H 0.42919 0.59621 0.4545 0.0
C1152 C 0.45195 0.61726 0.48833 0.0
C1153 C 0.45575 0.62137 0.51893 0.0
C1154 C 0.38267 0.54615 0.50772 0.0
C1155 C 0.41515 0.58529 0.49888 0.0
C1156 C 0.36492 0.52613 0.49631 0.0
C1157 C 0.35882 0.52487 0.46626 0.0
C1158 C 0.39454 0.56482 0.48877 0.0
C1159 C 0.37036 0.54431 0.44855 0.0
C1160 C 0.4316 0.59942 0.47821 0.0
C1161 C 0.43847 0.60755 0.53885 0.0
N1162 N 0.38785 0.56336 0.45996 0.0
N1163 N 0.41901 0.58987 0.5285 0.0
H1164 H 0.80762 0.36365 0.93879 0.0
H1165 H 0.83035 0.44561 0.07719 0.0
H1166 H 0.83716 0.35867 0.02129 0.0
H1167 H 0.82384 0.46239 0.98643 0.0
H1168 H 0.82328 0.40858 0.0604 0.0
H1169 H 0.80375 0.39444 0.9599 0.0
C1170 C 0.81299 0.3688 0.96153 0.0
C1171 C 0.82308 0.35883 0.97817 0.0
C1172 C 0.82313 0.42028 0.04426 0.0
C1173 C 0.81866 0.39407 0.00237 0.0
C1174 C 0.82707 0.44137 0.05379 0.0
C1175 C 0.82796 0.45718 0.03306 0.0
C1176 C 0.81982 0.4149 0.01386 0.0
C1177 C 0.82354 0.45078 0.00307 0.0
C1178 C 0.81083 0.38643 0.97349 0.0
C1179 C 0.82952 0.36607 0.00759 0.0
N1180 N 0.8198 0.43015 -0.00567 0.0
N1181 N 0.8274 0.38344 0.0187 0.0
H1182 H 0.43367 0.81333 0.42367 0.0
H1183 H 0.37424 0.82844 0.56819 0.0
H1184 H 0.46514 0.8312 0.51021 0.0
H1185 H 0.35318 0.82972 0.478 0.0
H1186 H 0.40267 0.81995 0.54903 0.0
H1187 H 0.39922 0.80943 0.44546 0.0
C1188 C 0.43323 0.81607 0.44737 0.0
C1189 C 0.45245 0.82301 0.46507 0.0
C1190 C 0.39163 0.82181 0.5335 0.0
C1191 C 0.41308 0.81866 0.49006 0.0
C1192 C 0.37535 0.82658 0.54438 0.0
C1193 C 0.36154 0.83009 0.52459 0.0
C1194 C 0.39397 0.82035 0.50264 0.0
C1195 C 0.36367 0.82741 0.494 0.0
C1196 C 0.41357 0.81392 0.45975 0.0
C1197 C 0.4508 0.8261 0.49569 0.0
N1198 N 0.37971 0.82287 0.48394 0.0
N1199 N 0.43152 0.82417 0.50718 0.0
loop_
_geom_bond_atom_site_label_1
_geom_bond_atom_site_label_2
_geom_bond_distance
_geom_bond_site_symmetry_2
_ccdc_geom_bond_type
C0 O1 1.306 . S
C0 O3 1.160 . S
O1 C0 1.306 . S
O1 Cd2 2.228 . S
Cd2 O1 2.228 . S
Cd2 O6 2.273 . S
Cd2 O10 2.277 . S
O3 C0 1.160 . S
O3 Cd4 2.203 . S
Cd4 O3 2.203 . S
Cd4 O6 2.411 . S
Cd4 O7 2.333 . S
Cd4 O8 2.352 . S
Cd4 O12 2.277 . S
Cd4 O13 2.356 . S
C5 O10 1.209 . S
C5 O12 1.226 . S
O6 Cd2 2.273 . S
O6 Cd4 2.411 . S
O6 C9 1.320 . S
O7 Cd4 2.333 . S
O7 C9 1.214 . S
O8 Cd4 2.352 . S
O8 C11 1.258 . S
C9 O6 1.320 . S
C9 O7 1.214 . S
O10 Cd2 2.277 . S
O10 C5 1.209 . S
C11 O8 1.258 . S
C11 O13 1.282 . S
O12 Cd4 2.277 . S
O12 C5 1.226 . S
O13 Cd4 2.356 . S
O13 C11 1.282 . S
C14 O15 1.306 . S
C14 O17 1.160 . S
O15 C14 1.306 . S
O15 Cd16 2.228 . S
Cd16 O15 2.228 . S
Cd16 O20 2.273 . S
Cd16 O24 2.277 . S
O17 C14 1.160 . S
O17 Cd18 2.203 . S
Cd18 O17 2.203 . S
Cd18 O20 2.411 . S
Cd18 O21 2.333 . S
Cd18 O22 2.352 . S
Cd18 O26 2.277 . S
Cd18 O27 2.356 . S
C19 O24 1.209 . S
C19 O26 1.226 . S
O20 Cd16 2.273 . S
O20 Cd18 2.411 . S
O20 C23 1.320 . S
O21 Cd18 2.333 . S
O21 C23 1.214 . S
O22 Cd18 2.352 . S
O22 C25 1.258 . S
C23 O20 1.320 . S
C23 O21 1.214 . S
O24 Cd16 2.277 . S
O24 C19 1.209 . S
C25 O22 1.258 . S
C25 O27 1.282 . S
O26 Cd18 2.277 . S
O26 C19 1.226 . S
O27 Cd18 2.356 . S
O27 C25 1.282 . S
C28 O29 1.306 . S
C28 O31 1.160 . S
O29 C28 1.306 . S
O29 Cd30 2.228 . S
Cd30 O29 2.228 . S
Cd30 O34 2.273 . S
Cd30 O38 2.277 . S
O31 C28 1.160 . S
O31 Cd32 2.203 . S
Cd32 O31 2.203 . S
Cd32 O34 2.411 . S
Cd32 O35 2.333 . S
Cd32 O36 2.352 . S
Cd32 O40 2.277 . S
Cd32 O41 2.356 . S
C33 O38 1.209 . S
C33 O40 1.226 . S
O34 Cd30 2.273 . S
O34 Cd32 2.411 . S
O34 C37 1.320 . S
O35 Cd32 2.333 . S
O35 C37 1.214 . S
O36 Cd32 2.352 . S
O36 C39 1.258 . S
C37 O34 1.320 . S
C37 O35 1.214 . S
O38 Cd30 2.277 . S
O38 C33 1.209 . S
C39 O36 1.258 . S
C39 O41 1.282 . S
O40 Cd32 2.277 . S
O40 C33 1.226 . S
O41 Cd32 2.356 . S
O41 C39 1.282 . S
C42 O43 1.306 . S
C42 O45 1.160 . S
O43 C42 1.306 . S
O43 Cd44 2.228 . S
Cd44 O43 2.228 . S
Cd44 O48 2.273 . S
Cd44 O52 2.277 . S
O45 C42 1.160 . S
O45 Cd46 2.203 . S
Cd46 O45 2.203 . S
Cd46 O48 2.411 . S
Cd46 O49 2.333 . S
Cd46 O50 2.352 . S
Cd46 O54 2.277 . S
Cd46 O55 2.356 . S
C47 O52 1.209 . S
C47 O54 1.226 . S
O48 Cd44 2.273 . S
O48 Cd46 2.411 . S
O48 C51 1.320 . S
O49 Cd46 2.333 . S
O49 C51 1.214 . S
O50 Cd46 2.352 . S
O50 C53 1.258 . S
C51 O48 1.320 . S
C51 O49 1.214 . S
O52 Cd44 2.277 . S
O52 C47 1.209 . S
C53 O50 1.258 . S
C53 O55 1.282 . S
O54 Cd46 2.277 . S
O54 C47 1.226 . S
O55 Cd46 2.356 . S
O55 C53 1.282 . S
C56 O57 1.306 . S
C56 O59 1.160 . S
O57 C56 1.306 . S
O57 Cd58 2.228 . S
Cd58 O57 2.228 . S
Cd58 O62 2.273 . S
Cd58 O66 2.277 . S
O59 C56 1.160 . S
O59 Cd60 2.203 . S
Cd60 O59 2.203 . S
Cd60 O62 2.411 . S
Cd60 O63 2.333 . S
Cd60 O64 2.352 . S
Cd60 O68 2.277 . S
Cd60 O69 2.356 . S
C61 O66 1.209 . S
C61 O68 1.226 . S
O62 Cd58 2.273 . S
O62 Cd60 2.411 . S
O62 C65 1.320 . S
O63 Cd60 2.333 . S
O63 C65 1.214 . S
O64 Cd60 2.352 . S
O64 C67 1.258 . S
C65 O62 1.320 . S
C65 O63 1.214 . S
O66 Cd58 2.277 . S
O66 C61 1.209 . S
C67 O64 1.258 . S
C67 O69 1.282 . S
O68 Cd60 2.277 . S
O68 C61 1.226 . S
O69 Cd60 2.356 . S
O69 C67 1.282 . S
C70 O71 1.306 . S
C70 O73 1.160 . S
O71 C70 1.306 . S
O71 Cd72 2.228 . S
Cd72 O71 2.228 . S
Cd72 O76 2.273 . S
Cd72 O80 2.277 . S
O73 C70 1.160 . S
O73 Cd74 2.203 . S
Cd74 O73 2.203 . S
Cd74 O76 2.411 . S
Cd74 O77 2.333 . S
Cd74 O78 2.352 . S
Cd74 O82 2.277 . S
Cd74 O83 2.356 . S
C75 O80 1.209 . S
C75 O82 1.226 . S
O76 Cd72 2.273 . S
O76 Cd74 2.411 . S
O76 C79 1.320 . S
O77 Cd74 2.333 . S
O77 C79 1.214 . S
O78 Cd74 2.352 . S
O78 C81 1.258 . S
C79 O76 1.320 . S
C79 O77 1.214 . S
O80 Cd72 2.277 . S
O80 C75 1.209 . S
C81 O78 1.258 . S
C81 O83 1.282 . S
O82 Cd74 2.277 . S
O82 C75 1.226 . S
O83 Cd74 2.356 . S
O83 C81 1.282 . S
C84 O85 1.306 . S
C84 O87 1.160 . S
O85 C84 1.306 . S
O85 Cd86 2.228 . S
Cd86 O85 2.228 . S
Cd86 O90 2.273 . S
Cd86 O94 2.277 . S
O87 C84 1.160 . S
O87 Cd88 2.203 . S
Cd88 O87 2.203 . S
Cd88 O90 2.411 . S
Cd88 O91 2.333 . S
Cd88 O92 2.352 . S
Cd88 O96 2.277 . S
Cd88 O97 2.356 . S
C89 O94 1.209 . S
C89 O96 1.226 . S
O90 Cd86 2.273 . S
O90 Cd88 2.411 . S
O90 C93 1.320 . S
O91 Cd88 2.333 . S
O91 C93 1.214 . S
O92 Cd88 2.352 . S
O92 C95 1.258 . S
C93 O90 1.320 . S
C93 O91 1.214 . S
O94 Cd86 2.277 . S
O94 C89 1.209 . S
C95 O92 1.258 . S
C95 O97 1.282 . S
O96 Cd88 2.277 . S
O96 C89 1.226 . S
O97 Cd88 2.356 . S
O97 C95 1.282 . S
C98 O99 1.306 . S
C98 O101 1.160 . S
O99 C98 1.306 . S
O99 Cd100 2.228 . S
Cd100 O99 2.228 . S
Cd100 O104 2.273 . S
Cd100 O108 2.277 . S
O101 C98 1.160 . S
O101 Cd102 2.203 . S
Cd102 O101 2.203 . S
Cd102 O104 2.411 . S
Cd102 O105 2.333 . S
Cd102 O106 2.352 . S
Cd102 O110 2.277 . S
Cd102 O111 2.356 . S
C103 O108 1.209 . S
C103 O110 1.226 . S
O104 Cd100 2.273 . S
O104 Cd102 2.411 . S
O104 C107 1.320 . S
O105 Cd102 2.333 . S
O105 C107 1.214 . S
O106 Cd102 2.352 . S
O106 C109 1.258 . S
C107 O104 1.320 . S
C107 O105 1.214 . S
O108 Cd100 2.277 . S
O108 C103 1.209 . S
C109 O106 1.258 . S
C109 O111 1.282 . S
O110 Cd102 2.277 . S
O110 C103 1.226 . S
O111 Cd102 2.356 . S
O111 C109 1.282 . S
C112 O113 1.306 . S
C112 O115 1.160 . S
O113 C112 1.306 . S
O113 Cd114 2.228 . S
Cd114 O113 2.228 . S
Cd114 O118 2.273 . S
Cd114 O122 2.277 . S
O115 C112 1.160 . S
O115 Cd116 2.203 . S
Cd116 O115 2.203 . S
Cd116 O118 2.411 . S
Cd116 O119 2.333 . S
Cd116 O120 2.352 . S
Cd116 O124 2.277 . S
Cd116 O125 2.356 . S
C117 O122 1.209 . S
C117 O124 1.226 . S
O118 Cd114 2.273 . S
O118 Cd116 2.411 . S
O118 C121 1.320 . S
O119 Cd116 2.333 . S
O119 C121 1.214 . S
O120 Cd116 2.352 . S
O120 C123 1.258 . S
C121 O118 1.320 . S
C121 O119 1.214 . S
O122 Cd114 2.277 . S
O122 C117 1.209 . S
C123 O120 1.258 . S
C123 O125 1.282 . S
O124 Cd116 2.277 . S
O124 C117 1.226 . S
O125 Cd116 2.356 . S
O125 C123 1.282 . S
C126 O127 1.306 . S
C126 O129 1.160 . S
O127 C126 1.306 . S
O127 Cd128 2.228 . S
Cd128 O127 2.228 . S
Cd128 O132 2.273 . S
Cd128 O136 2.277 . S
O129 C126 1.160 . S
O129 Cd130 2.203 . S
Cd130 O129 2.203 . S
Cd130 O132 2.411 . S
Cd130 O133 2.333 . S
Cd130 O134 2.352 . S
Cd130 O138 2.277 . S
Cd130 O139 2.356 . S
C131 O136 1.209 . S
C131 O138 1.226 . S
O132 Cd128 2.273 . S
O132 Cd130 2.411 . S
O132 C135 1.320 . S
O133 Cd130 2.333 . S
O133 C135 1.214 . S
O134 Cd130 2.352 . S
O134 C137 1.258 . S
C135 O132 1.320 . S
C135 O133 1.214 . S
O136 Cd128 2.277 . S
O136 C131 1.209 . S
C137 O134 1.258 . S
C137 O139 1.282 . S
O138 Cd130 2.277 . S
O138 C131 1.226 . S
O139 Cd130 2.356 . S
O139 C137 1.282 . S
C140 O141 1.306 . S
C140 O143 1.160 . S
O141 C140 1.306 . S
O141 Cd142 2.228 . S
Cd142 O141 2.228 . S
Cd142 O146 2.273 . S
Cd142 O150 2.277 . S
O143 C140 1.160 . S
O143 Cd144 2.203 . S
Cd144 O143 2.203 . S
Cd144 O146 2.411 . S
Cd144 O147 2.333 . S
Cd144 O148 2.352 . S
Cd144 O152 2.277 . S
Cd144 O153 2.356 . S
C145 O150 1.209 . S
C145 O152 1.226 . S
O146 Cd142 2.273 . S
O146 Cd144 2.411 . S
O146 C149 1.320 . S
O147 Cd144 2.333 . S
O147 C149 1.214 . S
O148 Cd144 2.352 . S
O148 C151 1.258 . S
C149 O146 1.320 . S
C149 O147 1.214 . S
O150 Cd142 2.277 . S
O150 C145 1.209 . S
C151 O148 1.258 . S
C151 O153 1.282 . S
O152 Cd144 2.277 . S
O152 C145 1.226 . S
O153 Cd144 2.356 . S
O153 C151 1.282 . S
C154 O155 1.306 . S
C154 O157 1.160 . S
O155 C154 1.306 . S
O155 Cd156 2.228 . S
Cd156 O155 2.228 . S
Cd156 O160 2.273 . S
Cd156 O164 2.277 . S
O157 C154 1.160 . S
O157 Cd158 2.203 . S
Cd158 O157 2.203 . S
Cd158 O160 2.411 . S
Cd158 O161 2.333 . S
Cd158 O162 2.352 . S
Cd158 O166 2.277 . S
Cd158 O167 2.356 . S
C159 O164 1.209 . S
C159 O166 1.226 . S
O160 Cd156 2.273 . S
O160 Cd158 2.411 . S
O160 C163 1.320 . S
O161 Cd158 2.333 . S
O161 C163 1.214 . S
O162 Cd158 2.352 . S
O162 C165 1.258 . S
C163 O160 1.320 . S
C163 O161 1.214 . S
O164 Cd156 2.277 . S
O164 C159 1.209 . S
C165 O162 1.258 . S
C165 O167 1.282 . S
O166 Cd158 2.277 . S
O166 C159 1.226 . S
O167 Cd158 2.356 . S
O167 C165 1.282 . S
C168 O169 1.306 . S
C168 O171 1.160 . S
O169 C168 1.306 . S
O169 Cd170 2.228 . S
Cd170 O169 2.228 . S
Cd170 O174 2.273 . S
Cd170 O178 2.277 . S
O171 C168 1.160 . S
O171 Cd172 2.203 . S
Cd172 O171 2.203 . S
Cd172 O174 2.411 . S
Cd172 O175 2.333 . S
Cd172 O176 2.352 . S
Cd172 O180 2.277 . S
Cd172 O181 2.356 . S
C173 O178 1.209 . S
C173 O180 1.226 . S
O174 Cd170 2.273 . S
O174 Cd172 2.411 . S
O174 C177 1.320 . S
O175 Cd172 2.333 . S
O175 C177 1.214 . S
O176 Cd172 2.352 . S
O176 C179 1.258 . S
C177 O174 1.320 . S
C177 O175 1.214 . S
O178 Cd170 2.277 . S
O178 C173 1.209 . S
C179 O176 1.258 . S
C179 O181 1.282 . S
O180 Cd172 2.277 . S
O180 C173 1.226 . S
O181 Cd172 2.356 . S
O181 C179 1.282 . S
C182 O183 1.306 . S
C182 O185 1.160 . S
O183 C182 1.306 . S
O183 Cd184 2.228 . S
Cd184 O183 2.228 . S
Cd184 O188 2.273 . S
Cd184 O192 2.277 . S
O185 C182 1.160 . S
O185 Cd186 2.203 . S
Cd186 O185 2.203 . S
Cd186 O188 2.411 . S
Cd186 O189 2.333 . S
Cd186 O190 2.352 . S
Cd186 O194 2.277 . S
Cd186 O195 2.356 . S
C187 O192 1.209 . S
C187 O194 1.226 . S
O188 Cd184 2.273 . S
O188 Cd186 2.411 . S
O188 C191 1.320 . S
O189 Cd186 2.333 . S
O189 C191 1.214 . S
O190 Cd186 2.352 . S
O190 C193 1.258 . S
C191 O188 1.320 . S
C191 O189 1.214 . S
O192 Cd184 2.277 . S
O192 C187 1.209 . S
C193 O190 1.258 . S
C193 O195 1.282 . S
O194 Cd186 2.277 . S
O194 C187 1.226 . S
O195 Cd186 2.356 . S
O195 C193 1.282 . S
C196 O197 1.306 . S
C196 O199 1.160 . S
O197 C196 1.306 . S
O197 Cd198 2.228 . S
Cd198 O197 2.228 . S
Cd198 O202 2.273 . S
Cd198 O206 2.277 . S
O199 C196 1.160 . S
O199 Cd200 2.203 . S
Cd200 O199 2.203 . S
Cd200 O202 2.411 . S
Cd200 O203 2.333 . S
Cd200 O204 2.352 . S
Cd200 O208 2.277 . S
Cd200 O209 2.356 . S
C201 O206 1.209 . S
C201 O208 1.226 . S
O202 Cd198 2.273 . S
O202 Cd200 2.411 . S
O202 C205 1.320 . S
O203 Cd200 2.333 . S
O203 C205 1.214 . S
O204 Cd200 2.352 . S
O204 C207 1.258 . S
C205 O202 1.320 . S
C205 O203 1.214 . S
O206 Cd198 2.277 . S
O206 C201 1.209 . S
C207 O204 1.258 . S
C207 O209 1.282 . S
O208 Cd200 2.277 . S
O208 C201 1.226 . S
O209 Cd200 2.356 . S
O209 C207 1.282 . S
C210 O211 1.306 . S
C210 O213 1.160 . S
O211 C210 1.306 . S
O211 Cd212 2.228 . S
Cd212 O211 2.228 . S
Cd212 O216 2.273 . S
Cd212 O220 2.277 . S
O213 C210 1.160 . S
O213 Cd214 2.203 . S
Cd214 O213 2.203 . S
Cd214 O216 2.411 . S
Cd214 O217 2.333 . S
Cd214 O218 2.352 . S
Cd214 O222 2.277 . S
Cd214 O223 2.356 . S
C215 O220 1.209 . S
C215 O222 1.226 . S
O216 Cd212 2.273 . S
O216 Cd214 2.411 . S
O216 C219 1.320 . S
O217 Cd214 2.333 . S
O217 C219 1.214 . S
O218 Cd214 2.352 . S
O218 C221 1.258 . S
C219 O216 1.320 . S
C219 O217 1.214 . S
O220 Cd212 2.277 . S
O220 C215 1.209 . S
C221 O218 1.258 . S
C221 O223 1.282 . S
O222 Cd214 2.277 . S
O222 C215 1.226 . S
O223 Cd214 2.356 . S
O223 C221 1.282 . S
C224 O225 1.306 . S
C224 O227 1.160 . S
O225 C224 1.306 . S
O225 Cd226 2.228 . S
Cd226 O225 2.228 . S
Cd226 O230 2.273 . S
Cd226 O234 2.277 . S
O227 C224 1.160 . S
O227 Cd228 2.203 . S
Cd228 O227 2.203 . S
Cd228 O230 2.411 . S
Cd228 O231 2.333 . S
Cd228 O232 2.352 . S
Cd228 O236 2.277 . S
Cd228 O237 2.356 . S
C229 O234 1.209 . S
C229 O236 1.226 . S
O230 Cd226 2.273 . S
O230 Cd228 2.411 . S
O230 C233 1.320 . S
O231 Cd228 2.333 . S
O231 C233 1.214 . S
O232 Cd228 2.352 . S
O232 C235 1.258 . S
C233 O230 1.320 . S
C233 O231 1.214 . S
O234 Cd226 2.277 . S
O234 C229 1.209 . S
C235 O232 1.258 . S
C235 O237 1.282 . S
O236 Cd228 2.277 . S
O236 C229 1.226 . S
O237 Cd228 2.356 . S
O237 C235 1.282 . S
C238 O239 1.306 . S
C238 O241 1.160 . S
O239 C238 1.306 . S
O239 Cd240 2.228 . S
Cd240 O239 2.228 . S
Cd240 O244 2.273 . S
Cd240 O248 2.277 . S
O241 C238 1.160 . S
O241 Cd242 2.203 . S
Cd242 O241 2.203 . S
Cd242 O244 2.411 . S
Cd242 O245 2.333 . S
Cd242 O246 2.352 . S
Cd242 O250 2.277 . S
Cd242 O251 2.356 . S
C243 O248 1.209 . S
C243 O250 1.226 . S
O244 Cd240 2.273 . S
O244 Cd242 2.411 . S
O244 C247 1.320 . S
O245 Cd242 2.333 . S
O245 C247 1.214 . S
O246 Cd242 2.352 . S
O246 C249 1.258 . S
C247 O244 1.320 . S
C247 O245 1.214 . S
O248 Cd240 2.277 . S
O248 C243 1.209 . S
C249 O246 1.258 . S
C249 O251 1.282 . S
O250 Cd242 2.277 . S
O250 C243 1.226 . S
O251 Cd242 2.356 . S
O251 C249 1.282 . S
C252 O253 1.306 . S
C252 O255 1.160 . S
O253 C252 1.306 . S
O253 Cd254 2.228 . S
Cd254 O253 2.228 . S
Cd254 O258 2.273 . S
Cd254 O262 2.277 . S
O255 C252 1.160 . S
O255 Cd256 2.203 . S
Cd256 O255 2.203 . S
Cd256 O258 2.411 . S
Cd256 O259 2.333 . S
Cd256 O260 2.352 . S
Cd256 O264 2.277 . S
Cd256 O265 2.356 . S
C257 O262 1.209 . S
C257 O264 1.226 . S
O258 Cd254 2.273 . S
O258 Cd256 2.411 . S
O258 C261 1.320 . S
O259 Cd256 2.333 . S
O259 C261 1.214 . S
O260 Cd256 2.352 . S
O260 C263 1.258 . S
C261 O258 1.320 . S
C261 O259 1.214 . S
O262 Cd254 2.277 . S
O262 C257 1.209 . S
C263 O260 1.258 . S
C263 O265 1.282 . S
O264 Cd256 2.277 . S
O264 C257 1.226 . S
O265 Cd256 2.356 . S
O265 C263 1.282 . S
C266 O267 1.306 . S
C266 O269 1.160 . S
O267 C266 1.306 . S
O267 Cd268 2.228 . S
Cd268 O267 2.228 . S
Cd268 O272 2.273 . S
Cd268 O276 2.277 . S
O269 C266 1.160 . S
O269 Cd270 2.203 . S
Cd270 O269 2.203 . S
Cd270 O272 2.411 . S
Cd270 O273 2.333 . S
Cd270 O274 2.352 . S
Cd270 O278 2.277 . S
Cd270 O279 2.356 . S
C271 O276 1.209 . S
C271 O278 1.226 . S
O272 Cd268 2.273 . S
O272 Cd270 2.411 . S
O272 C275 1.320 . S
O273 Cd270 2.333 . S
O273 C275 1.214 . S
O274 Cd270 2.352 . S
O274 C277 1.258 . S
C275 O272 1.320 . S
C275 O273 1.214 . S
O276 Cd268 2.277 . S
O276 C271 1.209 . S
C277 O274 1.258 . S
C277 O279 1.282 . S
O278 Cd270 2.277 . S
O278 C271 1.226 . S
O279 Cd270 2.356 . S
O279 C277 1.282 . S
C280 O281 1.306 . S
C280 O283 1.160 . S
O281 C280 1.306 . S
O281 Cd282 2.228 . S
Cd282 O281 2.228 . S
Cd282 O286 2.273 . S
Cd282 O290 2.277 . S
O283 C280 1.160 . S
O283 Cd284 2.203 . S
Cd284 O283 2.203 . S
Cd284 O286 2.411 . S
Cd284 O287 2.333 . S
Cd284 O288 2.352 . S
Cd284 O292 2.277 . S
Cd284 O293 2.356 . S
C285 O290 1.209 . S
C285 O292 1.226 . S
O286 Cd282 2.273 . S
O286 Cd284 2.411 . S
O286 C289 1.320 . S
O287 Cd284 2.333 . S
O287 C289 1.214 . S
O288 Cd284 2.352 . S
O288 C291 1.258 . S
C289 O286 1.320 . S
C289 O287 1.214 . S
O290 Cd282 2.277 . S
O290 C285 1.209 . S
C291 O288 1.258 . S
C291 O293 1.282 . S
O292 Cd284 2.277 . S
O292 C285 1.226 . S
O293 Cd284 2.356 . S
O293 C291 1.282 . S
C294 O295 1.306 . S
C294 O297 1.160 . S
O295 C294 1.306 . S
O295 Cd296 2.228 . S
Cd296 O295 2.228 . S
Cd296 O300 2.273 . S
Cd296 O304 2.277 . S
O297 C294 1.160 . S
O297 Cd298 2.203 . S
Cd298 O297 2.203 . S
Cd298 O300 2.411 . S
Cd298 O301 2.333 . S
Cd298 O302 2.352 . S
Cd298 O306 2.277 . S
Cd298 O307 2.356 . S
C299 O304 1.209 . S
C299 O306 1.226 . S
O300 Cd296 2.273 . S
O300 Cd298 2.411 . S
O300 C303 1.320 . S
O301 Cd298 2.333 . S
O301 C303 1.214 . S
O302 Cd298 2.352 . S
O302 C305 1.258 . S
C303 O300 1.320 . S
C303 O301 1.214 . S
O304 Cd296 2.277 . S
O304 C299 1.209 . S
C305 O302 1.258 . S
C305 O307 1.282 . S
O306 Cd298 2.277 . S
O306 C299 1.226 . S
O307 Cd298 2.356 . S
O307 C305 1.282 . S
C308 O309 1.306 . S
C308 O311 1.160 . S
O309 C308 1.306 . S
O309 Cd310 2.228 . S
Cd310 O309 2.228 . S
Cd310 O314 2.273 . S
Cd310 O318 2.277 . S
O311 C308 1.160 . S
O311 Cd312 2.203 . S
Cd312 O311 2.203 . S
Cd312 O314 2.411 . S
Cd312 O315 2.333 . S
Cd312 O316 2.352 . S
Cd312 O320 2.277 . S
Cd312 O321 2.356 . S
C313 O318 1.209 . S
C313 O320 1.226 . S
O314 Cd310 2.273 . S
O314 Cd312 2.411 . S
O314 C317 1.320 . S
O315 Cd312 2.333 . S
O315 C317 1.214 . S
O316 Cd312 2.352 . S
O316 C319 1.258 . S
C317 O314 1.320 . S
C317 O315 1.214 . S
O318 Cd310 2.277 . S
O318 C313 1.209 . S
C319 O316 1.258 . S
C319 O321 1.282 . S
O320 Cd312 2.277 . S
O320 C313 1.226 . S
O321 Cd312 2.356 . S
O321 C319 1.282 . S
C322 O323 1.306 . S
C322 O325 1.160 . S
O323 C322 1.306 . S
O323 Cd324 2.228 . S
Cd324 O323 2.228 . S
Cd324 O328 2.273 . S
Cd324 O332 2.277 . S
O325 C322 1.160 . S
O325 Cd326 2.203 . S
Cd326 O325 2.203 . S
Cd326 O328 2.411 . S
Cd326 O329 2.333 . S
Cd326 O330 2.352 . S
Cd326 O334 2.277 . S
Cd326 O335 2.356 . S
C327 O332 1.209 . S
C327 O334 1.226 . S
O328 Cd324 2.273 . S
O328 Cd326 2.411 . S
O328 C331 1.320 . S
O329 Cd326 2.333 . S
O329 C331 1.214 . S
O330 Cd326 2.352 . S
O330 C333 1.258 . S
C331 O328 1.320 . S
C331 O329 1.214 . S
O332 Cd324 2.277 . S
O332 C327 1.209 . S
C333 O330 1.258 . S
C333 O335 1.282 . S
O334 Cd326 2.277 . S
O334 C327 1.226 . S
O335 Cd326 2.356 . S
O335 C333 1.282 . S
H336 C342 0.930 . S
H337 C346 0.930 . S
H338 C351 0.929 . S
H339 C349 0.929 . S
H340 C344 0.929 . S
H341 C350 0.929 . S
C342 H336 0.930 . S
C342 C343 1.367 . S
C342 C350 1.378 . S
C343 C342 1.367 . S
C343 C351 1.433 . S
C344 H340 0.929 . S
C344 C346 1.378 . S
C344 C348 1.350 . S
C345 C348 1.463 . S
C345 C350 1.350 . S
C345 N353 1.427 . S
C346 H337 0.930 . S
C346 C344 1.378 . S
C346 C347 1.367 . S
C347 C346 1.367 . S
C347 C349 1.433 . S
C348 C344 1.350 . S
C348 C345 1.463 . S
C348 N352 1.427 . S
C349 H339 0.929 . S
C349 C347 1.433 . S
C349 N352 1.384 . S
C350 H341 0.929 . S
C350 C342 1.378 . S
C350 C345 1.350 . S
C351 H338 0.929 . S
C351 C343 1.433 . S
C351 N353 1.384 . S
N352 C348 1.427 . S
N352 C349 1.384 . S
N353 C345 1.427 . S
N353 C351 1.384 . S
H354 C360 0.930 . S
H355 C364 0.930 . S
H356 C369 0.929 . S
H357 C367 0.929 . S
H358 C362 0.929 . S
H359 C368 0.929 . S
C360 H354 0.930 . S
C360 C361 1.367 . S
C360 C368 1.378 . S
C361 C360 1.367 . S
C361 C369 1.433 . S
C362 H358 0.929 . S
C362 C364 1.378 . S
C362 C366 1.350 . S
C363 C366 1.463 . S
C363 C368 1.350 . S
C363 N371 1.427 . S
C364 H355 0.930 . S
C364 C362 1.378 . S
C364 C365 1.367 . S
C365 C364 1.367 . S
C365 C367 1.433 . S
C366 C362 1.350 . S
C366 C363 1.463 . S
C366 N370 1.427 . S
C367 H357 0.929 . S
C367 C365 1.433 . S
C367 N370 1.384 . S
C368 H359 0.929 . S
C368 C360 1.378 . S
C368 C363 1.350 . S
C369 H356 0.929 . S
C369 C361 1.433 . S
C369 N371 1.384 . S
N370 C366 1.427 . S
N370 C367 1.384 . S
N371 C363 1.427 . S
N371 C369 1.384 . S
H372 C378 0.930 . S
H373 C382 0.930 . S
H374 C387 0.929 . S
H375 C385 0.929 . S
H376 C380 0.929 . S
H377 C386 0.929 . S
C378 H372 0.930 . S
C378 C379 1.367 . S
C378 C386 1.378 . S
C379 C378 1.367 . S
C379 C387 1.433 . S
C380 H376 0.929 . S
C380 C382 1.378 . S
C380 C384 1.350 . S
C381 C384 1.463 . S
C381 C386 1.350 . S
C381 N389 1.427 . S
C382 H373 0.930 . S
C382 C380 1.378 . S
C382 C383 1.367 . S
C383 C382 1.367 . S
C383 C385 1.433 . S
C384 C380 1.350 . S
C384 C381 1.463 . S
C384 N388 1.427 . S
C385 H375 0.929 . S
C385 C383 1.433 . S
C385 N388 1.384 . S
C386 H377 0.929 . S
C386 C378 1.378 . S
C386 C381 1.350 . S
C387 H374 0.929 . S
C387 C379 1.433 . S
C387 N389 1.384 . S
N388 C384 1.427 . S
N388 C385 1.384 . S
N389 C381 1.427 . S
N389 C387 1.384 . S
H390 C396 0.930 . S
H391 C400 0.930 . S
H392 C405 0.929 . S
H393 C403 0.929 . S
H394 C398 0.929 . S
H395 C404 0.929 . S
C396 H390 0.930 . S
C396 C397 1.367 . S
C396 C404 1.378 . S
C397 C396 1.367 . S
C397 C405 1.433 . S
C398 H394 0.929 . S
C398 C400 1.378 . S
C398 C402 1.350 . S
C399 C402 1.463 . S
C399 C404 1.350 . S
C399 N407 1.427 . S
C400 H391 0.930 . S
C400 C398 1.378 . S
C400 C401 1.367 . S
C401 C400 1.367 . S
C401 C403 1.433 . S
C402 C398 1.350 . S
C402 C399 1.463 . S
C402 N406 1.427 . S
C403 H393 0.929 . S
C403 C401 1.433 . S
C403 N406 1.384 . S
C404 H395 0.929 . S
C404 C396 1.378 . S
C404 C399 1.350 . S
C405 H392 0.929 . S
C405 C397 1.433 . S
C405 N407 1.384 . S
N406 C402 1.427 . S
N406 C403 1.384 . S
N407 C399 1.427 . S
N407 C405 1.384 . S
H408 C414 0.930 . S
H409 C418 0.930 . S
H410 C423 0.929 . S
H411 C421 0.929 . S
H412 C416 0.929 . S
H413 C422 0.929 . S
C414 H408 0.930 . S
C414 C415 1.367 . S
C414 C422 1.378 . S
C415 C414 1.367 . S
C415 C423 1.433 . S
C416 H412 0.929 . S
C416 C418 1.378 . S
C416 C420 1.350 . S
C417 C420 1.463 . S
C417 C422 1.350 . S
C417 N425 1.427 . S
C418 H409 0.930 . S
C418 C416 1.378 . S
C418 C419 1.367 . S
C419 C418 1.367 . S
C419 C421 1.433 . S
C420 C416 1.350 . S
C420 C417 1.463 . S
C420 N424 1.427 . S
C421 H411 0.929 . S
C421 C419 1.433 . S
C421 N424 1.384 . S
C422 H413 0.929 . S
C422 C414 1.378 . S
C422 C417 1.350 . S
C423 H410 0.929 . S
C423 C415 1.433 . S
C423 N425 1.384 . S
N424 C420 1.427 . S
N424 C421 1.384 . S
N425 C417 1.427 . S
N425 C423 1.384 . S
H426 C432 0.930 . S
H427 C436 0.930 . S
H428 C441 0.929 . S
H429 C439 0.929 . S
H430 C434 0.929 . S
H431 C440 0.929 . S
C432 H426 0.930 . S
C432 C433 1.367 . S
C432 C440 1.378 . S
C433 C432 1.367 . S
C433 C441 1.433 . S
C434 H430 0.929 . S
C434 C436 1.378 . S
C434 C438 1.350 . S
C435 C438 1.463 . S
C435 C440 1.350 . S
C435 N443 1.427 . S
C436 H427 0.930 . S
C436 C434 1.378 . S
C436 C437 1.367 . S
C437 C436 1.367 . S
C437 C439 1.433 . S
C438 C434 1.350 . S
C438 C435 1.463 . S
C438 N442 1.427 . S
C439 H429 0.929 . S
C439 C437 1.433 . S
C439 N442 1.384 . S
C440 H431 0.929 . S
C440 C432 1.378 . S
C440 C435 1.350 . S
C441 H428 0.929 . S
C441 C433 1.433 . S
C441 N443 1.384 . S
N442 C438 1.427 . S
N442 C439 1.384 . S
N443 C435 1.427 . S
N443 C441 1.384 . S
H444 C450 0.930 . S
H445 C454 0.930 . S
H446 C459 0.929 . S
H447 C457 0.929 . S
H448 C452 0.929 . S
H449 C458 0.929 . S
C450 H444 0.930 . S
C450 C451 1.367 . S
C450 C458 1.378 . S
C451 C450 1.367 . S
C451 C459 1.433 . S
C452 H448 0.929 . S
C452 C454 1.378 . S
C452 C456 1.350 . S
C453 C456 1.463 . S
C453 C458 1.350 . S
C453 N461 1.427 . S
C454 H445 0.930 . S
C454 C452 1.378 . S
C454 C455 1.367 . S
C455 C454 1.367 . S
C455 C457 1.433 . S
C456 C452 1.350 . S
C456 C453 1.463 . S
C456 N460 1.427 . S
C457 H447 0.929 . S
C457 C455 1.433 . S
C457 N460 1.384 . S
C458 H449 0.929 . S
C458 C450 1.378 . S
C458 C453 1.350 . S
C459 H446 0.929 . S
C459 C451 1.433 . S
C459 N461 1.384 . S
N460 C456 1.427 . S
N460 C457 1.384 . S
N461 C453 1.427 . S
N461 C459 1.384 . S
H462 C468 0.930 . S
H463 C472 0.930 . S
H464 C477 0.929 . S
H465 C475 0.929 . S
H466 C470 0.929 . S
H467 C476 0.929 . S
C468 H462 0.930 . S
C468 C469 1.367 . S
C468 C476 1.378 . S
C469 C468 1.367 . S
C469 C477 1.433 . S
C470 H466 0.929 . S
C470 C472 1.378 . S
C470 C474 1.350 . S
C471 C474 1.463 . S
C471 C476 1.350 . S
C471 N479 1.427 . S
C472 H463 0.930 . S
C472 C470 1.378 . S
C472 C473 1.367 . S
C473 C472 1.367 . S
C473 C475 1.433 . S
C474 C470 1.350 . S
C474 C471 1.463 . S
C474 N478 1.427 . S
C475 H465 0.929 . S
C475 C473 1.433 . S
C475 N478 1.384 . S
C476 H467 0.929 . S
C476 C468 1.378 . S
C476 C471 1.350 . S
C477 H464 0.929 . S
C477 C469 1.433 . S
C477 N479 1.384 . S
N478 C474 1.427 . S
N478 C475 1.384 . S
N479 C471 1.427 . S
N479 C477 1.384 . S
H480 C486 0.930 . S
H481 C490 0.930 . S
H482 C495 0.929 . S
H483 C493 0.929 . S
H484 C488 0.929 . S
H485 C494 0.929 . S
C486 H480 0.930 . S
C486 C487 1.367 . S
C486 C494 1.378 . S
C487 C486 1.367 . S
C487 C495 1.433 . S
C488 H484 0.929 . S
C488 C490 1.378 . S
C488 C492 1.350 . S
C489 C492 1.463 . S
C489 C494 1.350 . S
C489 N497 1.427 . S
C490 H481 0.930 . S
C490 C488 1.378 . S
C490 C491 1.367 . S
C491 C490 1.367 . S
C491 C493 1.433 . S
C492 C488 1.350 . S
C492 C489 1.463 . S
C492 N496 1.427 . S
C493 H483 0.929 . S
C493 C491 1.433 . S
C493 N496 1.384 . S
C494 H485 0.929 . S
C494 C486 1.378 . S
C494 C489 1.350 . S
C495 H482 0.929 . S
C495 C487 1.433 . S
C495 N497 1.384 . S
N496 C492 1.427 . S
N496 C493 1.384 . S
N497 C489 1.427 . S
N497 C495 1.384 . S
H498 C504 0.930 . S
H499 C508 0.930 . S
H500 C513 0.929 . S
H501 C511 0.929 . S
H502 C506 0.929 . S
H503 C512 0.929 . S
C504 H498 0.930 . S
C504 C505 1.367 . S
C504 C512 1.378 . S
C505 C504 1.367 . S
C505 C513 1.433 . S
C506 H502 0.929 . S
C506 C508 1.378 . S
C506 C510 1.350 . S
C507 C510 1.463 . S
C507 C512 1.350 . S
C507 N515 1.427 . S
C508 H499 0.930 . S
C508 C506 1.378 . S
C508 C509 1.367 . S
C509 C508 1.367 . S
C509 C511 1.433 . S
C510 C506 1.350 . S
C510 C507 1.463 . S
C510 N514 1.427 . S
C511 H501 0.929 . S
C511 C509 1.433 . S
C511 N514 1.384 . S
C512 H503 0.929 . S
C512 C504 1.378 . S
C512 C507 1.350 . S
C513 H500 0.929 . S
C513 C505 1.433 . S
C513 N515 1.384 . S
N514 C510 1.427 . S
N514 C511 1.384 . S
N515 C507 1.427 . S
N515 C513 1.384 . S
H516 C522 0.930 . S
H517 C526 0.930 . S
H518 C531 0.929 . S
H519 C529 0.929 . S
H520 C524 0.929 . S
H521 C530 0.929 . S
C522 H516 0.930 . S
C522 C523 1.367 . S
C522 C530 1.378 . S
C523 C522 1.367 . S
C523 C531 1.433 . S
C524 H520 0.929 . S
C524 C526 1.378 . S
C524 C528 1.350 . S
C525 C528 1.463 . S
C525 C530 1.350 . S
C525 N533 1.427 . S
C526 H517 0.930 . S
C526 C524 1.378 . S
C526 C527 1.367 . S
C527 C526 1.367 . S
C527 C529 1.433 . S
C528 C524 1.350 . S
C528 C525 1.463 . S
C528 N532 1.427 . S
C529 H519 0.929 . S
C529 C527 1.433 . S
C529 N532 1.384 . S
C530 H521 0.929 . S
C530 C522 1.378 . S
C530 C525 1.350 . S
C531 H518 0.929 . S
C531 C523 1.433 . S
C531 N533 1.384 . S
N532 C528 1.427 . S
N532 C529 1.384 . S
N533 C525 1.427 . S
N533 C531 1.384 . S
H534 C540 0.930 . S
H535 C544 0.930 . S
H536 C549 0.929 . S
H537 C547 0.929 . S
H538 C542 0.929 . S
H539 C548 0.929 . S
C540 H534 0.930 . S
C540 C541 1.367 . S
C540 C548 1.378 . S
C541 C540 1.367 . S
C541 C549 1.433 . S
C542 H538 0.929 . S
C542 C544 1.378 . S
C542 C546 1.350 . S
C543 C546 1.463 . S
C543 C548 1.350 . S
C543 N551 1.427 . S
C544 H535 0.930 . S
C544 C542 1.378 . S
C544 C545 1.367 . S
C545 C544 1.367 . S
C545 C547 1.433 . S
C546 C542 1.350 . S
C546 C543 1.463 . S
C546 N550 1.427 . S
C547 H537 0.929 . S
C547 C545 1.433 . S
C547 N550 1.384 . S
C548 H539 0.929 . S
C548 C540 1.378 . S
C548 C543 1.350 . S
C549 H536 0.929 . S
C549 C541 1.433 . S
C549 N551 1.384 . S
N550 C546 1.427 . S
N550 C547 1.384 . S
N551 C543 1.427 . S
N551 C549 1.384 . S
H552 C558 0.930 . S
H553 C562 0.930 . S
H554 C567 0.929 . S
H555 C565 0.929 . S
H556 C560 0.929 1_556 S
H557 C566 0.929 1_554 S
C558 H552 0.930 . S
C558 C559 1.367 . S
C558 C566 1.378 . S
C559 C558 1.367 . S
C559 C567 1.433 . S
C560 H556 0.929 1_554 S
C560 C562 1.378 . S
C560 C564 1.350 . S
C561 C564 1.463 1_556 S
C561 C566 1.350 . S
C561 N569 1.427 . S
C562 H553 0.930 . S
C562 C560 1.378 . S
C562 C563 1.367 . S
C563 C562 1.367 . S
C563 C565 1.433 . S
C564 C560 1.350 . S
C564 C561 1.463 1_554 S
C564 N568 1.427 . S
C565 H555 0.929 . S
C565 C563 1.433 . S
C565 N568 1.384 . S
C566 H557 0.929 1_556 S
C566 C558 1.378 . S
C566 C561 1.350 . S
C567 H554 0.929 . S
C567 C559 1.433 . S
C567 N569 1.384 . S
N568 C564 1.427 . S
N568 C565 1.384 . S
N569 C561 1.427 . S
N569 C567 1.384 . S
H570 C576 0.930 . S
H571 C580 0.930 . S
H572 C585 0.929 . S
H573 C583 0.929 . S
H574 C578 0.929 . S
H575 C584 0.929 . S
C576 H570 0.930 . S
C576 C577 1.367 . S
C576 C584 1.378 . S
C577 C576 1.367 . S
C577 C585 1.433 . S
C578 H574 0.929 . S
C578 C580 1.378 . S
C578 C582 1.350 . S
C579 C582 1.463 . S
C579 C584 1.350 . S
C579 N587 1.427 . S
C580 H571 0.930 . S
C580 C578 1.378 . S
C580 C581 1.367 . S
C581 C580 1.367 . S
C581 C583 1.433 . S
C582 C578 1.350 . S
C582 C579 1.463 . S
C582 N586 1.427 . S
C583 H573 0.929 . S
C583 C581 1.433 . S
C583 N586 1.384 . S
C584 H575 0.929 . S
C584 C576 1.378 . S
C584 C579 1.350 . S
C585 H572 0.929 . S
C585 C577 1.433 . S
C585 N587 1.384 . S
N586 C582 1.427 . S
N586 C583 1.384 . S
N587 C579 1.427 . S
N587 C585 1.384 . S
H588 C594 0.930 . S
H589 C598 0.930 . S
H590 C603 0.929 . S
H591 C601 0.929 . S
H592 C596 0.929 . S
H593 C602 0.929 . S
C594 H588 0.930 . S
C594 C595 1.367 . S
C594 C602 1.378 . S
C595 C594 1.367 . S
C595 C603 1.433 . S
C596 H592 0.929 . S
C596 C598 1.378 . S
C596 C600 1.350 . S
C597 C600 1.463 1_554 S
C597 C602 1.350 . S
C597 N605 1.427 1_554 S
C598 H589 0.930 . S
C598 C596 1.378 . S
C598 C599 1.367 . S
C599 C598 1.367 . S
C599 C601 1.433 . S
C600 C596 1.350 . S
C600 C597 1.463 1_556 S
C600 N604 1.427 1_556 S
C601 H591 0.929 . S
C601 C599 1.433 . S
C601 N604 1.384 1_556 S
C602 H593 0.929 . S
C602 C594 1.378 . S
C602 C597 1.350 . S
C603 H590 0.929 . S
C603 C595 1.433 . S
C603 N605 1.384 1_554 S
N604 C600 1.427 1_554 S
N604 C601 1.384 1_554 S
N605 C597 1.427 1_556 S
N605 C603 1.384 1_556 S
H606 C612 0.930 . S
H607 C616 0.930 . S
H608 C621 0.929 . S
H609 C619 0.929 . S
H610 C614 0.929 . S
H611 C620 0.929 . S
C612 H606 0.930 . S
C612 C613 1.367 . S
C612 C620 1.378 . S
C613 C612 1.367 . S
C613 C621 1.433 . S
C614 H610 0.929 . S
C614 C616 1.378 . S
C614 C618 1.350 . S
C615 C618 1.463 . S
C615 C620 1.350 . S
C615 N623 1.427 . S
C616 H607 0.930 . S
C616 C614 1.378 . S
C616 C617 1.367 . S
C617 C616 1.367 . S
C617 C619 1.433 . S
C618 C614 1.350 . S
C618 C615 1.463 . S
C618 N622 1.427 . S
C619 H609 0.929 . S
C619 C617 1.433 . S
C619 N622 1.384 . S
C620 H611 0.929 . S
C620 C612 1.378 . S
C620 C615 1.350 . S
C621 H608 0.929 . S
C621 C613 1.433 . S
C621 N623 1.384 . S
N622 C618 1.427 . S
N622 C619 1.384 . S
N623 C615 1.427 . S
N623 C621 1.384 . S
H624 C630 0.930 . S
H625 C634 0.930 . S
H626 C639 0.929 . S
H627 C637 0.929 . S
H628 C632 0.929 . S
H629 C638 0.929 . S
C630 H624 0.930 . S
C630 C631 1.367 . S
C630 C638 1.378 . S
C631 C630 1.367 . S
C631 C639 1.433 . S
C632 H628 0.929 . S
C632 C634 1.378 . S
C632 C636 1.350 . S
C633 C636 1.463 1_556 S
C633 C638 1.350 . S
C633 N641 1.427 . S
C634 H625 0.930 . S
C634 C632 1.378 . S
C634 C635 1.367 . S
C635 C634 1.367 . S
C635 C637 1.433 . S
C636 C632 1.350 . S
C636 C633 1.463 1_554 S
C636 N640 1.427 . S
C637 H627 0.929 . S
C637 C635 1.433 . S
C637 N640 1.384 . S
C638 H629 0.929 . S
C638 C630 1.378 . S
C638 C633 1.350 . S
C639 H626 0.929 . S
C639 C631 1.433 . S
C639 N641 1.384 . S
N640 C636 1.427 . S
N640 C637 1.384 . S
N641 C633 1.427 . S
N641 C639 1.384 . S
H642 C648 0.930 . S
H643 C652 0.930 . S
H644 C657 0.929 . S
H645 C655 0.929 . S
H646 C650 0.929 . S
H647 C656 0.929 . S
C648 H642 0.930 . S
C648 C649 1.367 . S
C648 C656 1.378 . S
C649 C648 1.367 . S
C649 C657 1.433 . S
C650 H646 0.929 . S
C650 C652 1.378 . S
C650 C654 1.350 . S
C651 C654 1.463 . S
C651 C656 1.350 . S
C651 N659 1.427 . S
C652 H643 0.930 . S
C652 C650 1.378 . S
C652 C653 1.367 . S
C653 C652 1.367 . S
C653 C655 1.433 . S
C654 C650 1.350 . S
C654 C651 1.463 . S
C654 N658 1.427 . S
C655 H645 0.929 . S
C655 C653 1.433 . S
C655 N658 1.384 . S
C656 H647 0.929 . S
C656 C648 1.378 . S
C656 C651 1.350 . S
C657 H644 0.929 . S
C657 C649 1.433 . S
C657 N659 1.384 . S
N658 C654 1.427 . S
N658 C655 1.384 . S
N659 C651 1.427 . S
N659 C657 1.384 . S
H660 C666 0.930 . S
H661 C670 0.930 . S
H662 C675 0.929 . S
H663 C673 0.929 . S
H664 C668 0.929 . S
H665 C674 0.929 . S
C666 H660 0.930 . S
C666 C667 1.367 . S
C666 C674 1.378 . S
C667 C666 1.367 . S
C667 C675 1.433 . S
C668 H664 0.929 . S
C668 C670 1.378 . S
C668 C672 1.350 . S
C669 C672 1.463 1_554 S
C669 C674 1.350 . S
C669 N677 1.427 . S
C670 H661 0.930 . S
C670 C668 1.378 . S
C670 C671 1.367 . S
C671 C670 1.367 . S
C671 C673 1.433 . S
C672 C668 1.350 . S
C672 C669 1.463 1_556 S
C672 N676 1.427 . S
C673 H663 0.929 . S
C673 C671 1.433 . S
C673 N676 1.384 . S
C674 H665 0.929 . S
C674 C666 1.378 . S
C674 C669 1.350 . S
C675 H662 0.929 . S
C675 C667 1.433 . S
C675 N677 1.384 . S
N676 C672 1.427 . S
N676 C673 1.384 . S
N677 C669 1.427 . S
N677 C675 1.384 . S
H678 C684 0.930 . S
H679 C688 0.930 . S
H680 C693 0.929 . S
H681 C691 0.929 . S
H682 C686 0.929 . S
H683 C692 0.929 . S
C684 H678 0.930 . S
C684 C685 1.367 . S
C684 C692 1.378 . S
C685 C684 1.367 . S
C685 C693 1.433 . S
C686 H682 0.929 . S
C686 C688 1.378 . S
C686 C690 1.350 . S
C687 C690 1.463 . S
C687 C692 1.350 . S
C687 N695 1.427 . S
C688 H679 0.930 . S
C688 C686 1.378 . S
C688 C689 1.367 . S
C689 C688 1.367 . S
C689 C691 1.433 . S
C690 C686 1.350 . S
C690 C687 1.463 . S
C690 N694 1.427 . S
C691 H681 0.929 . S
C691 C689 1.433 . S
C691 N694 1.384 . S
C692 H683 0.929 . S
C692 C684 1.378 . S
C692 C687 1.350 . S
C693 H680 0.929 . S
C693 C685 1.433 . S
C693 N695 1.384 . S
N694 C690 1.427 . S
N694 C691 1.384 . S
N695 C687 1.427 . S
N695 C693 1.384 . S
H696 C702 0.930 . S
H697 C706 0.930 . S
H698 C711 0.929 . S
H699 C709 0.929 . S
H700 C704 0.929 . S
H701 C710 0.929 . S
C702 H696 0.930 . S
C702 C703 1.367 . S
C702 C710 1.378 . S
C703 C702 1.367 . S
C703 C711 1.433 . S
C704 H700 0.929 . S
C704 C706 1.378 . S
C704 C708 1.350 . S
C705 C708 1.463 1_556 S
C705 C710 1.350 . S
C705 N713 1.427 . S
C706 H697 0.930 . S
C706 C704 1.378 . S
C706 C707 1.367 . S
C707 C706 1.367 . S
C707 C709 1.433 . S
C708 C704 1.350 . S
C708 C705 1.463 1_554 S
C708 N712 1.427 . S
C709 H699 0.929 . S
C709 C707 1.433 . S
C709 N712 1.384 . S
C710 H701 0.929 . S
C710 C702 1.378 . S
C710 C705 1.350 . S
C711 H698 0.929 . S
C711 C703 1.433 . S
C711 N713 1.384 . S
N712 C708 1.427 . S
N712 C709 1.384 . S
N713 C705 1.427 . S
N713 C711 1.384 . S
H714 C720 0.930 . S
H715 C724 0.930 . S
H716 C729 0.929 . S
H717 C727 0.929 . S
H718 C722 0.929 . S
H719 C728 0.929 . S
C720 H714 0.930 . S
C720 C721 1.367 . S
C720 C728 1.378 . S
C721 C720 1.367 . S
C721 C729 1.433 . S
C722 H718 0.929 . S
C722 C724 1.378 . S
C722 C726 1.350 . S
C723 C726 1.463 . S
C723 C728 1.350 . S
C723 N731 1.427 . S
C724 H715 0.930 . S
C724 C722 1.378 . S
C724 C725 1.367 . S
C725 C724 1.367 . S
C725 C727 1.433 . S
C726 C722 1.350 . S
C726 C723 1.463 . S
C726 N730 1.427 . S
C727 H717 0.929 . S
C727 C725 1.433 . S
C727 N730 1.384 . S
C728 H719 0.929 . S
C728 C720 1.378 . S
C728 C723 1.350 . S
C729 H716 0.929 . S
C729 C721 1.433 . S
C729 N731 1.384 . S
N730 C726 1.427 . S
N730 C727 1.384 . S
N731 C723 1.427 . S
N731 C729 1.384 . S
H732 C738 0.930 . S
H733 C742 0.930 . S
H734 C747 0.929 . S
H735 C745 0.929 . S
H736 C740 0.929 . S
H737 C746 0.929 . S
C738 H732 0.930 . S
C738 C739 1.367 . S
C738 C746 1.378 . S
C739 C738 1.367 . S
C739 C747 1.433 . S
C740 H736 0.929 . S
C740 C742 1.378 . S
C740 C744 1.350 . S
C741 C744 1.463 1_556 S
C741 C746 1.350 . S
C741 N749 1.427 . S
C742 H733 0.930 . S
C742 C740 1.378 . S
C742 C743 1.367 . S
C743 C742 1.367 . S
C743 C745 1.433 . S
C744 C740 1.350 . S
C744 C741 1.463 1_554 S
C744 N748 1.427 . S
C745 H735 0.929 . S
C745 C743 1.433 . S
C745 N748 1.384 . S
C746 H737 0.929 . S
C746 C738 1.378 . S
C746 C741 1.350 . S
C747 H734 0.929 . S
C747 C739 1.433 . S
C747 N749 1.384 . S
N748 C744 1.427 . S
N748 C745 1.384 . S
N749 C741 1.427 . S
N749 C747 1.384 . S
H750 C756 0.930 . S
H751 C760 0.930 . S
H752 C765 0.929 . S
H753 C763 0.929 . S
H754 C758 0.929 . S
H755 C764 0.929 . S
C756 H750 0.930 . S
C756 C757 1.367 . S
C756 C764 1.378 . S
C757 C756 1.367 . S
C757 C765 1.433 . S
C758 H754 0.929 . S
C758 C760 1.378 . S
C758 C762 1.350 . S
C759 C762 1.463 . S
C759 C764 1.350 . S
C759 N767 1.427 . S
C760 H751 0.930 . S
C760 C758 1.378 . S
C760 C761 1.367 . S
C761 C760 1.367 . S
C761 C763 1.433 . S
C762 C758 1.350 . S
C762 C759 1.463 . S
C762 N766 1.427 . S
C763 H753 0.929 . S
C763 C761 1.433 . S
C763 N766 1.384 . S
C764 H755 0.929 . S
C764 C756 1.378 . S
C764 C759 1.350 . S
C765 H752 0.929 . S
C765 C757 1.433 . S
C765 N767 1.384 . S
N766 C762 1.427 . S
N766 C763 1.384 . S
N767 C759 1.427 . S
N767 C765 1.384 . S
H768 C774 0.930 . S
H769 C778 0.930 . S
H770 C783 0.929 . S
H771 C781 0.929 . S
H772 C776 0.929 . S
H773 C782 0.929 . S
C774 H768 0.930 . S
C774 C775 1.367 . S
C774 C782 1.378 . S
C775 C774 1.367 . S
C775 C783 1.433 . S
C776 H772 0.929 . S
C776 C778 1.378 . S
C776 C780 1.350 . S
C777 C780 1.463 . S
C777 C782 1.350 . S
C777 N785 1.427 . S
C778 H769 0.930 . S
C778 C776 1.378 . S
C778 C779 1.367 . S
C779 C778 1.367 . S
C779 C781 1.433 . S
C780 C776 1.350 . S
C780 C777 1.463 . S
C780 N784 1.427 . S
C781 H771 0.929 . S
C781 C779 1.433 . S
C781 N784 1.384 . S
C782 H773 0.929 . S
C782 C774 1.378 . S
C782 C777 1.350 . S
C783 H770 0.929 . S
C783 C775 1.433 . S
C783 N785 1.384 . S
N784 C780 1.427 . S
N784 C781 1.384 . S
N785 C777 1.427 . S
N785 C783 1.384 . S
H786 C792 0.930 . S
H787 C796 0.930 . S
H788 C801 0.929 . S
H789 C799 0.929 . S
H790 C794 0.929 . S
H791 C800 0.929 . S
C792 H786 0.930 . S
C792 C793 1.367 . S
C792 C800 1.378 . S
C793 C792 1.367 . S
C793 C801 1.433 . S
C794 H790 0.929 . S
C794 C796 1.378 . S
C794 C798 1.350 . S
C795 C798 1.463 1_455 S
C795 C800 1.350 . S
C795 N803 1.427 . S
C796 H787 0.930 . S
C796 C794 1.378 . S
C796 C797 1.367 . S
C797 C796 1.367 . S
C797 C799 1.433 . S
C798 C794 1.350 . S
C798 C795 1.463 1_655 S
C798 N802 1.427 . S
C799 H789 0.929 . S
C799 C797 1.433 . S
C799 N802 1.384 . S
C800 H791 0.929 . S
C800 C792 1.378 . S
C800 C795 1.350 . S
C801 H788 0.929 . S
C801 C793 1.433 . S
C801 N803 1.384 . S
N802 C798 1.427 . S
N802 C799 1.384 . S
N803 C795 1.427 . S
N803 C801 1.384 . S
H804 C810 0.930 . S
H805 C814 0.930 . S
H806 C819 0.929 . S
H807 C817 0.929 . S
H808 C812 0.929 . S
H809 C818 0.929 . S
C810 H804 0.930 . S
C810 C811 1.367 . S
C810 C818 1.378 . S
C811 C810 1.367 . S
C811 C819 1.433 . S
C812 H808 0.929 . S
C812 C814 1.378 . S
C812 C816 1.350 . S
C813 C816 1.463 1_565 S
C813 C818 1.350 . S
C813 N821 1.427 . S
C814 H805 0.930 . S
C814 C812 1.378 . S
C814 C815 1.367 . S
C815 C814 1.367 . S
C815 C817 1.433 . S
C816 C812 1.350 . S
C816 C813 1.463 1_545 S
C816 N820 1.427 . S
C817 H807 0.929 . S
C817 C815 1.433 . S
C817 N820 1.384 . S
C818 H809 0.929 . S
C818 C810 1.378 . S
C818 C813 1.350 . S
C819 H806 0.929 . S
C819 C811 1.433 . S
C819 N821 1.384 . S
N820 C816 1.427 . S
N820 C817 1.384 . S
N821 C813 1.427 . S
N821 C819 1.384 . S
H822 C828 0.930 . S
H823 C832 0.930 . S
H824 C837 0.929 . S
H825 C835 0.929 . S
H826 C830 0.929 . S
H827 C836 0.929 . S
C828 H822 0.930 . S
C828 C829 1.367 . S
C828 C836 1.378 . S
C829 C828 1.367 . S
C829 C837 1.433 . S
C830 H826 0.929 . S
C830 C832 1.378 . S
C830 C834 1.350 . S
C831 C834 1.463 . S
C831 C836 1.350 . S
C831 N839 1.427 . S
C832 H823 0.930 . S
C832 C830 1.378 . S
C832 C833 1.367 . S
C833 C832 1.367 . S
C833 C835 1.433 . S
C834 C830 1.350 . S
C834 C831 1.463 . S
C834 N838 1.427 . S
C835 H825 0.929 . S
C835 C833 1.433 . S
C835 N838 1.384 . S
C836 H827 0.929 . S
C836 C828 1.378 . S
C836 C831 1.350 . S
C837 H824 0.929 . S
C837 C829 1.433 . S
C837 N839 1.384 . S
N838 C834 1.427 . S
N838 C835 1.384 . S
N839 C831 1.427 . S
N839 C837 1.384 . S
H840 C846 0.930 . S
H841 C850 0.930 . S
H842 C855 0.929 . S
H843 C853 0.929 . S
H844 C848 0.929 . S
H845 C854 0.929 . S
C846 H840 0.930 . S
C846 C847 1.367 . S
C846 C854 1.378 . S
C847 C846 1.367 . S
C847 C855 1.433 . S
C848 H844 0.929 . S
C848 C850 1.378 . S
C848 C852 1.350 . S
C849 C852 1.463 1_655 S
C849 C854 1.350 . S
C849 N857 1.427 . S
C850 H841 0.930 . S
C850 C848 1.378 . S
C850 C851 1.367 . S
C851 C850 1.367 . S
C851 C853 1.433 . S
C852 C848 1.350 . S
C852 C849 1.463 1_455 S
C852 N856 1.427 . S
C853 H843 0.929 . S
C853 C851 1.433 . S
C853 N856 1.384 . S
C854 H845 0.929 . S
C854 C846 1.378 . S
C854 C849 1.350 . S
C855 H842 0.929 . S
C855 C847 1.433 . S
C855 N857 1.384 . S
N856 C852 1.427 . S
N856 C853 1.384 . S
N857 C849 1.427 . S
N857 C855 1.384 . S
H858 C864 0.930 . S
H859 C868 0.930 . S
H860 C873 0.929 . S
H861 C871 0.929 . S
H862 C866 0.929 . S
H863 C872 0.929 . S
C864 H858 0.930 . S
C864 C865 1.367 . S
C864 C872 1.378 . S
C865 C864 1.367 . S
C865 C873 1.433 . S
C866 H862 0.929 . S
C866 C868 1.378 . S
C866 C870 1.350 . S
C867 C870 1.463 1_545 S
C867 C872 1.350 . S
C867 N875 1.427 . S
C868 H859 0.930 . S
C868 C866 1.378 . S
C868 C869 1.367 . S
C869 C868 1.367 . S
C869 C871 1.433 . S
C870 C866 1.350 . S
C870 C867 1.463 1_565 S
C870 N874 1.427 . S
C871 H861 0.929 . S
C871 C869 1.433 . S
C871 N874 1.384 . S
C872 H863 0.929 . S
C872 C864 1.378 . S
C872 C867 1.350 . S
C873 H860 0.929 . S
C873 C865 1.433 . S
C873 N875 1.384 . S
N874 C870 1.427 . S
N874 C871 1.384 . S
N875 C867 1.427 . S
N875 C873 1.384 . S
H876 C882 0.930 . S
H877 C886 0.930 . S
H878 C891 0.929 . S
H879 C889 0.929 . S
H880 C884 0.929 . S
H881 C890 0.929 . S
C882 H876 0.930 . S
C882 C883 1.367 . S
C882 C890 1.378 . S
C883 C882 1.367 . S
C883 C891 1.433 . S
C884 H880 0.929 . S
C884 C886 1.378 . S
C884 C888 1.350 . S
C885 C888 1.463 . S
C885 C890 1.350 . S
C885 N893 1.427 . S
C886 H877 0.930 . S
C886 C884 1.378 . S
C886 C887 1.367 . S
C887 C886 1.367 . S
C887 C889 1.433 . S
C888 C884 1.350 . S
C888 C885 1.463 . S
C888 N892 1.427 . S
C889 H879 0.929 . S
C889 C887 1.433 . S
C889 N892 1.384 . S
C890 H881 0.929 . S
C890 C882 1.378 . S
C890 C885 1.350 . S
C891 H878 0.929 . S
C891 C883 1.433 . S
C891 N893 1.384 . S
N892 C888 1.427 . S
N892 C889 1.384 . S
N893 C885 1.427 . S
N893 C891 1.384 . S
H894 C900 0.930 . S
H895 C904 0.930 . S
H896 C909 0.929 . S
H897 C907 0.929 . S
H898 C902 0.929 . S
H899 C908 0.929 . S
C900 H894 0.930 . S
C900 C901 1.367 . S
C900 C908 1.378 . S
C901 C900 1.367 . S
C901 C909 1.433 . S
C902 H898 0.929 . S
C902 C904 1.378 . S
C902 C906 1.350 . S
C903 C906 1.463 1_655 S
C903 C908 1.350 . S
C903 N911 1.427 . S
C904 H895 0.930 . S
C904 C902 1.378 . S
C904 C905 1.367 . S
C905 C904 1.367 . S
C905 C907 1.433 . S
C906 C902 1.350 . S
C906 C903 1.463 1_455 S
C906 N910 1.427 . S
C907 H897 0.929 . S
C907 C905 1.433 . S
C907 N910 1.384 . S
C908 H899 0.929 . S
C908 C900 1.378 . S
C908 C903 1.350 . S
C909 H896 0.929 . S
C909 C901 1.433 . S
C909 N911 1.384 . S
N910 C906 1.427 . S
N910 C907 1.384 . S
N911 C903 1.427 . S
N911 C909 1.384 . S
H912 C918 0.930 . S
H913 C922 0.930 . S
H914 C927 0.929 . S
H915 C925 0.929 . S
H916 C920 0.929 . S
H917 C926 0.929 . S
C918 H912 0.930 . S
C918 C919 1.367 . S
C918 C926 1.378 . S
C919 C918 1.367 . S
C919 C927 1.433 . S
C920 H916 0.929 . S
C920 C922 1.378 . S
C920 C924 1.350 . S
C921 C924 1.463 1_545 S
C921 C926 1.350 . S
C921 N929 1.427 . S
C922 H913 0.930 . S
C922 C920 1.378 . S
C922 C923 1.367 . S
C923 C922 1.367 . S
C923 C925 1.433 . S
C924 C920 1.350 . S
C924 C921 1.463 1_565 S
C924 N928 1.427 . S
C925 H915 0.929 . S
C925 C923 1.433 . S
C925 N928 1.384 . S
C926 H917 0.929 . S
C926 C918 1.378 . S
C926 C921 1.350 . S
C927 H914 0.929 . S
C927 C919 1.433 . S
C927 N929 1.384 . S
N928 C924 1.427 . S
N928 C925 1.384 . S
N929 C921 1.427 . S
N929 C927 1.384 . S
H930 C936 0.930 . S
H931 C940 0.930 . S
H932 C945 0.929 . S
H933 C943 0.929 . S
H934 C938 0.929 . S
H935 C944 0.929 . S
C936 H930 0.930 . S
C936 C937 1.367 . S
C936 C944 1.378 . S
C937 C936 1.367 . S
C937 C945 1.433 . S
C938 H934 0.929 . S
C938 C940 1.378 . S
C938 C942 1.350 . S
C939 C942 1.463 . S
C939 C944 1.350 . S
C939 N947 1.427 . S
C940 H931 0.930 . S
C940 C938 1.378 . S
C940 C941 1.367 . S
C941 C940 1.367 . S
C941 C943 1.433 . S
C942 C938 1.350 . S
C942 C939 1.463 . S
C942 N946 1.427 . S
C943 H933 0.929 . S
C943 C941 1.433 . S
C943 N946 1.384 . S
C944 H935 0.929 . S
C944 C936 1.378 . S
C944 C939 1.350 . S
C945 H932 0.929 . S
C945 C937 1.433 . S
C945 N947 1.384 . S
N946 C942 1.427 . S
N946 C943 1.384 . S
N947 C939 1.427 . S
N947 C945 1.384 . S
H948 C954 0.930 . S
H949 C958 0.930 . S
H950 C963 0.929 . S
H951 C961 0.929 . S
H952 C956 0.929 . S
H953 C962 0.929 . S
C954 H948 0.930 . S
C954 C955 1.367 . S
C954 C962 1.378 . S
C955 C954 1.367 . S
C955 C963 1.433 . S
C956 H952 0.929 . S
C956 C958 1.378 . S
C956 C960 1.350 . S
C957 C960 1.463 1_455 S
C957 C962 1.350 . S
C957 N965 1.427 . S
C958 H949 0.930 . S
C958 C956 1.378 . S
C958 C959 1.367 . S
C959 C958 1.367 . S
C959 C961 1.433 . S
C960 C956 1.350 . S
C960 C957 1.463 1_655 S
C960 N964 1.427 . S
C961 H951 0.929 . S
C961 C959 1.433 . S
C961 N964 1.384 . S
C962 H953 0.929 . S
C962 C954 1.378 . S
C962 C957 1.350 . S
C963 H950 0.929 . S
C963 C955 1.433 . S
C963 N965 1.384 . S
N964 C960 1.427 . S
N964 C961 1.384 . S
N965 C957 1.427 . S
N965 C963 1.384 . S
H966 C972 0.930 . S
H967 C976 0.930 . S
H968 C981 0.929 . S
H969 C979 0.929 . S
H970 C974 0.929 . S
H971 C980 0.929 . S
C972 H966 0.930 . S
C972 C973 1.367 . S
C972 C980 1.378 . S
C973 C972 1.367 . S
C973 C981 1.433 . S
C974 H970 0.929 . S
C974 C976 1.378 . S
C974 C978 1.350 . S
C975 C978 1.463 1_565 S
C975 C980 1.350 . S
C975 N983 1.427 . S
C976 H967 0.930 . S
C976 C974 1.378 . S
C976 C977 1.367 . S
C977 C976 1.367 . S
C977 C979 1.433 . S
C978 C974 1.350 . S
C978 C975 1.463 1_545 S
C978 N982 1.427 . S
C979 H969 0.929 . S
C979 C977 1.433 . S
C979 N982 1.384 . S
C980 H971 0.929 . S
C980 C972 1.378 . S
C980 C975 1.350 . S
C981 H968 0.929 . S
C981 C973 1.433 . S
C981 N983 1.384 . S
N982 C978 1.427 . S
N982 C979 1.384 . S
N983 C975 1.427 . S
N983 C981 1.384 . S
H984 C990 0.918 1_554 S
H985 C994 0.918 1_556 S
H986 C999 0.929 . S
H987 C997 0.929 . S
H988 C992 0.929 . S
H989 C998 0.929 . S
C990 H984 0.918 1_556 S
C990 C991 1.389 . S
C990 C998 1.369 1_556 S
C991 C990 1.389 . S
C991 C999 1.433 . S
C992 H988 0.929 . S
C992 C994 1.369 1_556 S
C992 C996 1.350 1_556 S
C993 C996 1.463 1_556 S
C993 C998 1.350 1_556 S
C993 N1001 1.427 . S
C994 H985 0.918 1_554 S
C994 C992 1.369 1_554 S
C994 C995 1.389 . S
C995 C994 1.389 . S
C995 C997 1.433 . S
C996 C992 1.350 1_554 S
C996 C993 1.463 1_554 S
C996 N1000 1.427 . S
C997 H987 0.929 . S
C997 C995 1.433 . S
C997 N1000 1.384 . S
C998 H989 0.929 . S
C998 C990 1.369 1_554 S
C998 C993 1.350 1_554 S
C999 H986 0.929 . S
C999 C991 1.433 . S
C999 N1001 1.384 . S
N1000 C996 1.427 . S
N1000 C997 1.384 . S
N1001 C993 1.427 . S
N1001 C999 1.384 . S
H1002 C1008 0.930 . S
H1003 C1012 0.930 . S
H1004 C1017 0.929 . S
H1005 C1015 0.929 . S
H1006 C1010 0.929 . S
H1007 C1016 0.929 . S
C1008 H1002 0.930 . S
C1008 C1009 1.367 . S
C1008 C1016 1.378 . S
C1009 C1008 1.367 . S
C1009 C1017 1.433 . S
C1010 H1006 0.929 . S
C1010 C1012 1.378 . S
C1010 C1014 1.350 . S
C1011 C1014 1.463 . S
C1011 C1016 1.350 . S
C1011 N1019 1.427 . S
C1012 H1003 0.930 . S
C1012 C1010 1.378 . S
C1012 C1013 1.367 . S
C1013 C1012 1.367 . S
C1013 C1015 1.433 . S
C1014 C1010 1.350 . S
C1014 C1011 1.463 . S
C1014 N1018 1.427 . S
C1015 H1005 0.929 . S
C1015 C1013 1.433 . S
C1015 N1018 1.384 . S
C1016 H1007 0.929 . S
C1016 C1008 1.378 . S
C1016 C1011 1.350 . S
C1017 H1004 0.929 . S
C1017 C1009 1.433 . S
C1017 N1019 1.384 . S
N1018 C1014 1.427 . S
N1018 C1015 1.384 . S
N1019 C1011 1.427 . S
N1019 C1017 1.384 . S
H1020 C1026 0.930 . S
H1021 C1030 0.930 . S
H1022 C1035 0.921 1_554 S
H1023 C1033 0.921 1_556 S
H1024 C1028 0.929 . S
H1025 C1034 0.929 . S
C1026 H1020 0.930 . S
C1026 C1027 1.367 . S
C1026 C1034 1.378 . S
C1027 C1026 1.367 . S
C1027 C1035 1.433 . S
C1028 H1024 0.929 . S
C1028 C1030 1.378 . S
C1028 C1032 1.350 . S
C1029 C1032 1.463 1_556 S
C1029 C1034 1.350 . S
C1029 N1037 1.427 1_556 S
C1030 H1021 0.930 . S
C1030 C1028 1.378 . S
C1030 C1031 1.367 . S
C1031 C1030 1.367 . S
C1031 C1033 1.433 . S
C1032 C1028 1.350 . S
C1032 C1029 1.463 1_554 S
C1032 N1036 1.427 1_554 S
C1033 H1023 0.921 1_554 S
C1033 C1031 1.433 . S
C1033 N1036 1.384 1_554 S
C1034 H1025 0.929 . S
C1034 C1026 1.378 . S
C1034 C1029 1.350 . S
C1035 H1022 0.921 1_556 S
C1035 C1027 1.433 . S
C1035 N1037 1.384 1_556 S
N1036 C1032 1.427 1_556 S
N1036 C1033 1.384 1_556 S
N1037 C1029 1.427 1_554 S
N1037 C1035 1.384 1_554 S
H1038 C1044 0.930 . S
H1039 C1048 0.930 . S
H1040 C1053 0.929 . S
H1041 C1051 0.929 . S
H1042 C1046 0.929 . S
H1043 C1052 0.929 . S
C1044 H1038 0.930 . S
C1044 C1045 1.367 . S
C1044 C1052 1.378 . S
C1045 C1044 1.367 . S
C1045 C1053 1.433 . S
C1046 H1042 0.929 . S
C1046 C1048 1.378 . S
C1046 C1050 1.350 . S
C1047 C1050 1.463 . S
C1047 C1052 1.350 . S
C1047 N1055 1.427 . S
C1048 H1039 0.930 . S
C1048 C1046 1.378 . S
C1048 C1049 1.367 . S
C1049 C1048 1.367 . S
C1049 C1051 1.433 . S
C1050 C1046 1.350 . S
C1050 C1047 1.463 . S
C1050 N1054 1.427 . S
C1051 H1041 0.929 . S
C1051 C1049 1.433 . S
C1051 N1054 1.384 . S
C1052 H1043 0.929 . S
C1052 C1044 1.378 . S
C1052 C1047 1.350 . S
C1053 H1040 0.929 . S
C1053 C1045 1.433 . S
C1053 N1055 1.384 . S
N1054 C1050 1.427 . S
N1054 C1051 1.384 . S
N1055 C1047 1.427 . S
N1055 C1053 1.384 . S
H1056 C1062 0.930 . S
H1057 C1066 0.930 . S
H1058 C1071 0.929 . S
H1059 C1069 0.929 . S
H1060 C1064 0.929 . S
H1061 C1070 0.929 . S
C1062 H1056 0.930 . S
C1062 C1063 1.367 . S
C1062 C1070 1.378 . S
C1063 C1062 1.367 . S
C1063 C1071 1.433 . S
C1064 H1060 0.929 . S
C1064 C1066 1.378 . S
C1064 C1068 1.350 . S
C1065 C1068 1.463 1_556 S
C1065 C1070 1.350 . S
C1065 N1073 1.427 1_556 S
C1066 H1057 0.930 . S
C1066 C1064 1.378 . S
C1066 C1067 1.367 . S
C1067 C1066 1.367 . S
C1067 C1069 1.433 . S
C1068 C1064 1.350 . S
C1068 C1065 1.463 1_554 S
C1068 N1072 1.427 1_554 S
C1069 H1059 0.929 . S
C1069 C1067 1.433 . S
C1069 N1072 1.384 1_554 S
C1070 H1061 0.929 . S
C1070 C1062 1.378 . S
C1070 C1065 1.350 . S
C1071 H1058 0.929 . S
C1071 C1063 1.433 . S
C1071 N1073 1.384 1_556 S
N1072 C1068 1.427 1_556 S
N1072 C1069 1.384 1_556 S
N1073 C1065 1.427 1_554 S
N1073 C1071 1.384 1_554 S
H1074 C1080 0.930 . S
H1075 C1084 0.930 . S
H1076 C1089 0.929 . S
H1077 C1087 0.929 . S
H1078 C1082 0.929 . S
H1079 C1088 0.929 . S
C1080 H1074 0.930 . S
C1080 C1081 1.367 . S
C1080 C1088 1.378 . S
C1081 C1080 1.367 . S
C1081 C1089 1.433 . S
C1082 H1078 0.929 . S
C1082 C1084 1.378 . S
C1082 C1086 1.350 . S
C1083 C1086 1.463 . S
C1083 C1088 1.350 . S
C1083 N1091 1.427 . S
C1084 H1075 0.930 . S
C1084 C1082 1.378 . S
C1084 C1085 1.367 . S
C1085 C1084 1.367 . S
C1085 C1087 1.433 . S
C1086 C1082 1.350 . S
C1086 C1083 1.463 . S
C1086 N1090 1.427 . S
C1087 H1077 0.929 . S
C1087 C1085 1.433 . S
C1087 N1090 1.384 . S
C1088 H1079 0.929 . S
C1088 C1080 1.378 . S
C1088 C1083 1.350 . S
C1089 H1076 0.929 . S
C1089 C1081 1.433 . S
C1089 N1091 1.384 . S
N1090 C1086 1.427 . S
N1090 C1087 1.384 . S
N1091 C1083 1.427 . S
N1091 C1089 1.384 . S
H1092 C1098 0.930 . S
H1093 C1102 0.930 . S
H1094 C1107 0.929 . S
H1095 C1105 0.929 . S
H1096 C1100 0.931 1_554 S
H1097 C1106 0.931 1_556 S
C1098 H1092 0.930 . S
C1098 C1099 1.367 . S
C1098 C1106 1.376 . S
C1099 C1098 1.367 . S
C1099 C1107 1.433 . S
C1100 H1096 0.931 1_556 S
C1100 C1102 1.376 . S
C1100 C1104 1.349 . S
C1101 C1104 1.463 1_554 S
C1101 C1106 1.349 . S
C1101 N1109 1.427 . S
C1102 H1093 0.930 . S
C1102 C1100 1.376 . S
C1102 C1103 1.367 . S
C1103 C1102 1.367 . S
C1103 C1105 1.433 . S
C1104 C1100 1.349 . S
C1104 C1101 1.463 1_556 S
C1104 N1108 1.427 . S
C1105 H1095 0.929 . S
C1105 C1103 1.433 . S
C1105 N1108 1.384 . S
C1106 H1097 0.931 1_554 S
C1106 C1098 1.376 . S
C1106 C1101 1.349 . S
C1107 H1094 0.929 . S
C1107 C1099 1.433 . S
C1107 N1109 1.384 . S
N1108 C1104 1.427 . S
N1108 C1105 1.384 . S
N1109 C1101 1.427 . S
N1109 C1107 1.384 . S
H1110 C1116 0.930 . S
H1111 C1120 0.930 . S
H1112 C1125 0.929 . S
H1113 C1123 0.929 . S
H1114 C1118 0.929 . S
H1115 C1124 0.929 . S
C1116 H1110 0.930 . S
C1116 C1117 1.367 . S
C1116 C1124 1.378 . S
C1117 C1116 1.367 . S
C1117 C1125 1.433 . S
C1118 H1114 0.929 . S
C1118 C1120 1.378 . S
C1118 C1122 1.350 . S
C1119 C1122 1.463 . S
C1119 C1124 1.350 . S
C1119 N1127 1.427 . S
C1120 H1111 0.930 . S
C1120 C1118 1.378 . S
C1120 C1121 1.367 . S
C1121 C1120 1.367 . S
C1121 C1123 1.433 . S
C1122 C1118 1.350 . S
C1122 C1119 1.463 . S
C1122 N1126 1.427 . S
C1123 H1113 0.929 . S
C1123 C1121 1.433 . S
C1123 N1126 1.384 . S
C1124 H1115 0.929 . S
C1124 C1116 1.378 . S
C1124 C1119 1.350 . S
C1125 H1112 0.929 . S
C1125 C1117 1.433 . S
C1125 N1127 1.384 . S
N1126 C1122 1.427 . S
N1126 C1123 1.384 . S
N1127 C1119 1.427 . S
N1127 C1125 1.384 . S
H1128 C1134 0.930 1_556 S
H1129 C1138 0.930 1_554 S
H1130 C1143 0.929 . S
H1131 C1141 0.929 . S
H1132 C1136 0.929 . S
H1133 C1142 0.929 . S
C1134 H1128 0.930 1_554 S
C1134 C1135 1.367 . S
C1134 C1142 1.378 1_554 S
C1135 C1134 1.367 . S
C1135 C1143 1.433 . S
C1136 H1132 0.929 . S
C1136 C1138 1.378 1_554 S
C1136 C1140 1.350 1_554 S
C1137 C1140 1.463 1_554 S
C1137 C1142 1.350 1_554 S
C1137 N1145 1.427 . S
C1138 H1129 0.930 1_556 S
C1138 C1136 1.378 1_556 S
C1138 C1139 1.367 . S
C1139 C1138 1.367 . S
C1139 C1141 1.433 . S
C1140 C1136 1.350 1_556 S
C1140 C1137 1.463 1_556 S
C1140 N1144 1.427 . S
C1141 H1131 0.929 . S
C1141 C1139 1.433 . S
C1141 N1144 1.384 . S
C1142 H1133 0.929 . S
C1142 C1134 1.378 1_556 S
C1142 C1137 1.350 1_556 S
C1143 H1130 0.929 . S
C1143 C1135 1.433 . S
C1143 N1145 1.384 . S
N1144 C1140 1.427 . S
N1144 C1141 1.384 . S
N1145 C1137 1.427 . S
N1145 C1143 1.384 . S
H1146 C1152 0.930 . S
H1147 C1156 0.930 . S
H1148 C1161 0.929 . S
H1149 C1159 0.929 . S
H1150 C1154 0.929 . S
H1151 C1160 0.929 . S
C1152 H1146 0.930 . S
C1152 C1153 1.367 . S
C1152 C1160 1.378 . S
C1153 C1152 1.367 . S
C1153 C1161 1.433 . S
C1154 H1150 0.929 . S
C1154 C1156 1.378 . S
C1154 C1158 1.350 . S
C1155 C1158 1.463 . S
C1155 C1160 1.350 . S
C1155 N1163 1.427 . S
C1156 H1147 0.930 . S
C1156 C1154 1.378 . S
C1156 C1157 1.367 . S
C1157 C1156 1.367 . S
C1157 C1159 1.433 . S
C1158 C1154 1.350 . S
C1158 C1155 1.463 . S
C1158 N1162 1.427 . S
C1159 H1149 0.929 . S
C1159 C1157 1.433 . S
C1159 N1162 1.384 . S
C1160 H1151 0.929 . S
C1160 C1152 1.378 . S
C1160 C1155 1.350 . S
C1161 H1148 0.929 . S
C1161 C1153 1.433 . S
C1161 N1163 1.384 . S
N1162 C1158 1.427 . S
N1162 C1159 1.384 . S
N1163 C1155 1.427 . S
N1163 C1161 1.384 . S
H1164 C1170 0.930 . S
H1165 C1174 0.930 . S
H1166 C1179 0.932 . S
H1167 C1177 0.932 . S
H1168 C1172 0.929 . S
H1169 C1178 0.929 . S
C1170 H1164 0.930 . S
C1170 C1171 1.367 . S
C1170 C1178 1.378 . S
C1171 C1170 1.367 . S
C1171 C1179 1.428 1_556 S
C1172 H1168 0.929 . S
C1172 C1174 1.378 . S
C1172 C1176 1.350 . S
C1173 C1176 1.463 1_556 S
C1173 C1178 1.350 . S
C1173 N1181 1.427 1_556 S
C1174 H1165 0.930 . S
C1174 C1172 1.378 . S
C1174 C1175 1.367 . S
C1175 C1174 1.367 . S
C1175 C1177 1.428 1_554 S
C1176 C1172 1.350 . S
C1176 C1173 1.463 1_554 S
C1176 N1180 1.427 1_554 S
C1177 H1167 0.932 . S
C1177 C1175 1.428 1_556 S
C1177 N1180 1.386 . S
C1178 H1169 0.929 . S
C1178 C1170 1.378 . S
C1178 C1173 1.350 . S
C1179 H1166 0.932 . S
C1179 C1171 1.428 1_554 S
C1179 N1181 1.386 . S
N1180 C1176 1.427 1_556 S
N1180 C1177 1.386 . S
N1181 C1173 1.427 1_554 S
N1181 C1179 1.386 . S
H1182 C1188 0.930 . S
H1183 C1192 0.930 . S
H1184 C1197 0.929 . S
H1185 C1195 0.929 . S
H1186 C1190 0.929 . S
H1187 C1196 0.929 . S
C1188 H1182 0.930 . S
C1188 C1189 1.367 . S
C1188 C1196 1.378 . S
C1189 C1188 1.367 . S
C1189 C1197 1.433 . S
C1190 H1186 0.929 . S
C1190 C1192 1.378 . S
C1190 C1194 1.350 . S
C1191 C1194 1.463 . S
C1191 C1196 1.350 . S
C1191 N1199 1.427 . S
C1192 H1183 0.930 . S
C1192 C1190 1.378 . S
C1192 C1193 1.367 . S
C1193 C1192 1.367 . S
C1193 C1195 1.433 . S
C1194 C1190 1.350 . S
C1194 C1191 1.463 . S
C1194 N1198 1.427 . S
C1195 H1185 0.929 . S
C1195 C1193 1.433 . S
C1195 N1198 1.384 . S
C1196 H1187 0.929 . S
C1196 C1188 1.378 . S
C1196 C1191 1.350 . S
C1197 H1184 0.929 . S
C1197 C1189 1.433 . S
C1197 N1199 1.384 . S
N1198 C1194 1.427 . S
N1198 C1195 1.384 . S
N1199 C1191 1.427 . S
N1199 C1197 1.384 . S
C343 C0 1.484 . S
C347 C210 1.487 . S
C361 C14 1.488 . S
C365 C224 1.483 . S
C379 C238 1.484 . S
C383 C28 1.488 . S
C397 C168 1.490 . S
C401 C42 1.481 . S
C415 C182 1.489 . S
C419 C56 1.482 . S
C433 C196 1.481 . S
C437 C70 1.490 . S
C451 C294 1.481 . S
C455 C84 1.490 . S
C469 C98 1.488 . S
C473 C308 1.484 . S
C487 C322 1.485 . S
C491 C112 1.487 . S
C505 C126 1.482 . S
C509 C252 1.489 . S
C523 C266 1.482 . S
C527 C140 1.489 . S
C541 C154 1.491 . S
C545 C280 1.481 . S
C559 C151 1.361 . S
C563 C11 1.361 . S
C577 C165 1.365 . S
C581 C25 1.365 . S
C595 C39 1.365 . S
C599 C95 1.365 . S
C613 C53 1.366 . S
C617 C109 1.366 . S
C631 C123 1.362 . S
C635 C67 1.363 . S
C649 C81 1.363 . S
C653 C137 1.363 . S
C667 C319 1.364 . S
C671 C179 1.365 . S
C685 C193 1.360 . S
C689 C333 1.359 . S
C703 C207 1.363 . S
C707 C263 1.364 . S
C721 C277 1.364 . S
C725 C221 1.364 . S
C739 C235 1.364 . S
C743 C291 1.363 . S
C757 C249 1.361 . S
C761 C305 1.361 . S
C775 C5 1.399 . S
C779 C257 1.400 . S
C793 C271 1.397 . S
C797 C19 1.402 . S
C811 C33 1.399 . S
C815 C285 1.400 . S
C829 C47 1.402 . S
C833 C299 1.397 . S
C847 C313 1.397 . S
C851 C61 1.402 . S
C865 C75 1.399 . S
C869 C327 1.400 . S
C883 C89 1.400 . S
C887 C173 1.399 . S
C901 C103 1.398 . S
C905 C187 1.401 . S
C919 C201 1.402 . S
C923 C117 1.397 . S
C937 C215 1.400 . S
C941 C131 1.399 . S
C955 C145 1.398 . S
C959 C229 1.401 . S
C973 C243 1.397 . S
C977 C159 1.402 . S
C991 C93 1.517 . S
C995 C9 1.517 . S
C1009 C23 1.517 . S
C1013 C107 1.517 . S
C1027 C121 1.518 . S
C1031 C37 1.517 . S
C1045 C135 1.517 . S
C1049 C51 1.517 . S
C1063 C149 1.518 . S
C1067 C65 1.517 . S
C1081 C79 1.517 . S
C1085 C163 1.517 . S
C1099 C261 1.517 . S
C1103 C177 1.517 . S
C1117 C191 1.517 . S
C1121 C275 1.517 . S
C1135 C289 1.517 . S
C1139 C205 1.517 . S
C1153 C303 1.517 . S
C1157 C219 1.517 . S
C1171 C233 1.517 . S
C1175 C317 1.517 . S
C1189 C247 1.517 . S
C1193 C331 1.517 . S
