# Generated by pormake.
# Topology yfh, (5)-cn, num edge types: 1
# Building blocks:
#     Node 0, Type 0, BuildingBlock: XOMCOT_clean_sbu_0, # of connection points: 5
#     Node 1, Type 0, BuildingBlock: XOMCOT_clean_sbu_0, # of connection points: 5
#     Node 2, Type 0, BuildingBlock: XOMCOT_clean_sbu_0, # of connection points: 5
#     Node 3, Type 0, BuildingBlock: XOMCOT_clean_sbu_0, # of connection points: 5
#     Node 4, Type 0, BuildingBlock: XOMCOT_clean_sbu_0, # of connection points: 5
#     Node 5, Type 0, BuildingBlock: XOMCOT_clean_sbu_0, # of connection points: 5
#     Node 6, Type 0, BuildingBlock: XOMCOT_clean_sbu_0, # of connection points: 5
#     Node 7, Type 0, BuildingBlock: XOMCOT_clean_sbu_0, # of connection points: 5
#     Edge 8, Type (0, 0), BuildingBlock: ZUJKAS_clean_linker_0, # of connection points: 2
#     Edge 9, Type (0, 0), BuildingBlock: ZUJKAS_clean_linker_0, # of connection points: 2
#     Edge 10, Type (0, 0), BuildingBlock: ZUJKAS_clean_linker_0, # of connection points: 2
#     Edge 11, Type (0, 0), BuildingBlock: ZUJKAS_clean_linker_0, # of connection points: 2
#     Edge 12, Type (0, 0), BuildingBlock: ZUJKAS_clean_linker_0, # of connection points: 2
#     Edge 13, Type (0, 0), BuildingBlock: ZUJKAS_clean_linker_0, # of connection points: 2
#     Edge 14, Type (0, 0), BuildingBlock: ZUJKAS_clean_linker_0, # of connection points: 2
#     Edge 15, Type (0, 0), BuildingBlock: ZUJKAS_clean_linker_0, # of connection points: 2
#     Edge 16, Type (0, 0), BuildingBlock: ZUJKAS_clean_linker_0, # of connection points: 2
#     Edge 17, Type (0, 0), BuildingBlock: ZUJKAS_clean_linker_0, # of connection points: 2
#     Edge 18, Type (0, 0), BuildingBlock: ZUJKAS_clean_linker_0, # of connection points: 2
#     Edge 19, Type (0, 0), BuildingBlock: ZUJKAS_clean_linker_0, # of connection points: 2
#     Edge 20, Type (0, 0), BuildingBlock: ZUJKAS_clean_linker_0, # of connection points: 2
#     Edge 21, Type (0, 0), BuildingBlock: ZUJKAS_clean_linker_0, # of connection points: 2
#     Edge 22, Type (0, 0), BuildingBlock: ZUJKAS_clean_linker_0, # of connection points: 2
#     Edge 23, Type (0, 0), BuildingBlock: ZUJKAS_clean_linker_0, # of connection points: 2
#     Edge 24, Type (0, 0), BuildingBlock: ZUJKAS_clean_linker_0, # of connection points: 2
#     Edge 25, Type (0, 0), BuildingBlock: ZUJKAS_clean_linker_0, # of connection points: 2
#     Edge 26, Type (0, 0), BuildingBlock: ZUJKAS_clean_linker_0, # of connection points: 2
#     Edge 27, Type (0, 0), BuildingBlock: ZUJKAS_clean_linker_0, # of connection points: 2
# Relax obj value: 0.357
# Max RMSD: 0.264
# Mean RMSD: 0.264
data_MOF--net-yfh--node1-XOMCOT_clean_sbu_0--edge1-ZUJKAS_clean_linker_0
_symmetry_space_group_name_H-M    P1
_symmetry_Int_Tables_number       1
_symmetry_cell_setting            triclinic
loop_
_symmetry_equiv_pos_as_xyz
'x, y, z'
_cell_length_a     35.871458
_cell_length_b     35.846202
_cell_length_c     73.610927
_cell_angle_alpha  90.057295
_cell_angle_beta   90.023759
_cell_angle_gamma 90.013983
loop_
_atom_site_label
_atom_site_type_symbol
_atom_site_fract_x
_atom_site_fract_y
_atom_site_fract_z
_atom_type_partial_charge
Co0 Co 0.3398 0.18137 0.1293 0.0
C1 C 0.30713 0.21909 0.09676 0.0
C2 C 0.27017 0.1796 0.10897 0.0
C3 C 0.25172 0.1968 0.09499 0.0
N4 N 0.30538 0.19262 0.10974 0.0
N5 N 0.27498 0.22177 0.08726 0.0
H6 H 0.33047 0.23738 0.09488 0.0
H7 H 0.2584 0.15941 0.11825 0.0
C8 C 0.31889 0.10823 0.11339 0.0
O9 O 0.32514 0.12431 0.09764 0.0
N10 N 0.37231 0.17061 0.14934 0.0
C11 C 0.4046 0.18783 0.15348 0.0
C12 C 0.41748 0.1738 0.16974 0.0
C13 C 0.36594 0.14639 0.16293 0.0
N14 N 0.39315 0.14774 0.17557 0.0
C15 C 0.39517 0.20135 0.10292 0.0
C16 C 0.42658 0.1315 0.09896 0.0
C17 C 0.43722 0.16008 0.08704 0.0
C18 C 0.4223 0.19573 0.08968 0.0
C19 C 0.39913 0.13845 0.11205 0.0
N20 N 0.38142 0.17223 0.11277 0.0
H21 H 0.38549 0.22934 0.10525 0.0
H22 H 0.39158 0.11634 0.12131 0.0
H23 H 0.41742 0.20954 0.14542 0.0
H24 H 0.34123 0.12915 0.16388 0.0
O25 O 0.34771 0.23384 0.13302 0.0
O26 O 0.30215 0.20134 0.14573 0.0
O27 O 0.32382 0.12679 0.12813 0.0
C28 C 0.31795 0.23367 0.14299 0.0
H29 H 0.22326 0.19117 0.09102 0.0
H30 H 0.44263 0.18221 0.17677 0.0
H31 H 0.43847 0.10383 0.09785 0.0
H32 H 0.43147 0.21916 0.08154 0.0
Co33 Co 0.32624 0.84253 0.38086 0.0
C34 C 0.28903 0.81229 0.34769 0.0
C35 C 0.32203 0.7716 0.36163 0.0
C36 C 0.30312 0.75399 0.34786 0.0
N37 N 0.31391 0.80837 0.3613 0.0
N38 N 0.28226 0.77964 0.33919 0.0
H39 H 0.27497 0.83787 0.34438 0.0
H40 H 0.33933 0.75823 0.37175 0.0
C41 C 0.39816 0.81423 0.3667 0.0
O42 O 0.38345 0.81984 0.35057 0.0
N43 N 0.33739 0.87516 0.40085 0.0
C44 C 0.32478 0.9102 0.40312 0.0
C45 C 0.33678 0.92309 0.41973 0.0
C46 C 0.3566 0.86695 0.41603 0.0
N47 N 0.35672 0.89586 0.42786 0.0
C48 C 0.31277 0.89971 0.35435 0.0
C49 C 0.38561 0.92382 0.35105 0.0
C50 C 0.35838 0.9387 0.33952 0.0
C51 C 0.32136 0.92733 0.34172 0.0
C52 C 0.37557 0.89672 0.36378 0.0
N53 N 0.34009 0.8827 0.36424 0.0
H54 H 0.28393 0.89237 0.35622 0.0
H55 H 0.39654 0.88698 0.37316 0.0
H56 H 0.30735 0.92501 0.39355 0.0
H57 H 0.36988 0.84029 0.41835 0.0
O58 O 0.27422 0.85424 0.38334 0.0
O59 O 0.30221 0.80704 0.39709 0.0
O60 O 0.37946 0.82246 0.38103 0.0
C61 C 0.27128 0.8246 0.39332 0.0
H62 H 0.30349 0.72439 0.34496 0.0
H63 H 0.33025 0.95002 0.42556 0.0
H64 H 0.41429 0.93316 0.35027 0.0
H65 H 0.29929 0.93902 0.33345 0.0
Co66 Co 0.65963 0.8352 0.63237 0.0
C67 C 0.68854 0.80835 0.59617 0.0
C68 C 0.7283 0.83921 0.61187 0.0
C69 C 0.74538 0.82754 0.59623 0.0
N70 N 0.69246 0.82782 0.61176 0.0
N71 N 0.72033 0.8082 0.58636 0.0
H72 H 0.66353 0.79429 0.59195 0.0
H73 H 0.74129 0.85462 0.62282 0.0
C74 C 0.67745 0.91039 0.6185 0.0
O75 O 0.66942 0.89598 0.60255 0.0
N76 N 0.62908 0.84232 0.65351 0.0
C77 C 0.59553 0.82709 0.65695 0.0
C78 C 0.58541 0.83618 0.67446 0.0
C79 C 0.63911 0.86016 0.66883 0.0
N80 N 0.61295 0.85685 0.68194 0.0
C81 C 0.60191 0.81826 0.60674 0.0
C82 C 0.57032 0.88843 0.60534 0.0
C83 C 0.55948 0.86155 0.59252 0.0
C84 C 0.57415 0.8255 0.59403 0.0
C85 C 0.59819 0.87975 0.61796 0.0
N86 N 0.61631 0.84618 0.6172 0.0
H87 H 0.61237 0.79018 0.60783 0.0
H88 H 0.60615 0.90056 0.62785 0.0
H89 H 0.58011 0.80965 0.64759 0.0
H90 H 0.66537 0.87466 0.67034 0.0
O91 O 0.65246 0.78228 0.63419 0.0
O92 O 0.69882 0.81292 0.64728 0.0
O93 O 0.67514 0.89003 0.63282 0.0
C94 C 0.68286 0.78101 0.64366 0.0
H95 H 0.77425 0.83219 0.59263 0.0
H96 H 0.56038 0.82702 0.68132 0.0
H97 H 0.55861 0.91627 0.60515 0.0
H98 H 0.56482 0.80321 0.58518 0.0
Co99 Co 0.69499 0.1526 0.87744 0.0
C100 C 0.71047 0.15646 0.83719 0.0
C101 C 0.69195 0.20816 0.84872 0.0
C102 C 0.6965 0.21309 0.83037 0.0
N103 N 0.70012 0.17251 0.85302 0.0
N104 N 0.70796 0.1805 0.82317 0.0
H105 H 0.7186 0.12784 0.83551 0.0
H106 H 0.68232 0.22896 0.85828 0.0
C107 C 0.61852 0.16716 0.86378 0.0
O108 O 0.62981 0.1502 0.84893 0.0
N109 N 0.6903 0.13417 0.90185 0.0
C110 C 0.7089 0.10507 0.909 0.0
C111 C 0.69673 0.09968 0.92651 0.0
C112 C 0.66716 0.14621 0.91501 0.0
N113 N 0.67044 0.12551 0.93028 0.0
C114 C 0.70782 0.08162 0.86045 0.0
C115 C 0.63559 0.05556 0.86294 0.0
C116 C 0.66081 0.03694 0.85155 0.0
C117 C 0.69798 0.04899 0.85132 0.0
C118 C 0.6469 0.08799 0.87196 0.0
N119 N 0.68136 0.10292 0.86878 0.0
H120 H 0.73628 0.09124 0.85955 0.0
H121 H 0.62726 0.102 0.88073 0.0
H122 H 0.72934 0.08848 0.90183 0.0
H123 H 0.64835 0.16956 0.9134 0.0
O124 O 0.74829 0.14591 0.87861 0.0
O125 O 0.71895 0.19786 0.88627 0.0
O126 O 0.64074 0.1699 0.87741 0.0
C127 C 0.75046 0.18038 0.8839 0.0
H128 H 0.69159 0.23861 0.8229 0.0
H129 H 0.7058 0.07769 0.93555 0.0
H130 H 0.60707 0.04603 0.86429 0.0
H131 H 0.7188 0.03505 0.84311 0.0
Co132 Co 0.84324 0.33556 0.6149 0.0
C133 C 0.81347 0.29416 0.64685 0.0
C134 C 0.77851 0.33954 0.63884 0.0
C135 C 0.7601 0.31927 0.65183 0.0
N136 N 0.81262 0.32463 0.63605 0.0
N137 N 0.78208 0.29061 0.6568 0.0
H138 H 0.83507 0.27336 0.64655 0.0
H139 H 0.76653 0.36202 0.63099 0.0
C140 C 0.82714 0.40945 0.63085 0.0
O141 O 0.8377 0.39379 0.64615 0.0
N142 N 0.8717 0.34562 0.59333 0.0
C143 C 0.9054 0.33156 0.58913 0.0
C144 C 0.91521 0.34402 0.57212 0.0
C145 C 0.86123 0.36611 0.57889 0.0
N146 N 0.88738 0.36567 0.56566 0.0
C147 C 0.90122 0.31987 0.6407 0.0
C148 C 0.93667 0.38819 0.6386 0.0
C149 C 0.94823 0.36239 0.65173 0.0
C150 C 0.93098 0.32741 0.65225 0.0
C151 C 0.90647 0.37947 0.62734 0.0
N152 N 0.88744 0.34663 0.62941 0.0
H153 H 0.88977 0.29224 0.64071 0.0
H154 H 0.89776 0.39957 0.61725 0.0
H155 H 0.92155 0.31333 0.59779 0.0
H156 H 0.83461 0.38017 0.57796 0.0
O157 O 0.852 0.28323 0.61156 0.0
O158 O 0.80327 0.31363 0.60047 0.0
O159 O 0.82673 0.39002 0.61616 0.0
C160 C 0.82045 0.2819 0.60299 0.0
H161 H 0.73182 0.32398 0.6564 0.0
H162 H 0.94098 0.33771 0.56513 0.0
H163 H 0.95002 0.41518 0.63743 0.0
H164 H 0.94047 0.30597 0.66154 0.0
Co165 Co 0.1893 0.34236 0.85627 0.0
C166 C 0.20161 0.32564 0.89463 0.0
C167 C 0.16917 0.28263 0.8818 0.0
C168 C 0.17246 0.27438 0.90001 0.0
N169 N 0.18712 0.31495 0.87862 0.0
N170 N 0.19279 0.30155 0.90796 0.0
H171 H 0.21692 0.35136 0.89659 0.0
H172 H 0.15429 0.26655 0.8717 0.0
C173 C 0.10813 0.34309 0.84644 0.0
O174 O 0.11132 0.379 0.84318 0.0
N175 N 0.19234 0.36909 0.8333 0.0
C176 C 0.21824 0.39442 0.82823 0.0
C177 C 0.21277 0.40369 0.81031 0.0
C178 C 0.17296 0.36182 0.81796 0.0
N179 N 0.1842 0.3832 0.8039 0.0
C180 C 0.19107 0.41736 0.87014 0.0
C181 C 0.1316 0.40906 0.89364 0.0
C182 C 0.15423 0.44074 0.89522 0.0
C183 C 0.1835 0.44528 0.88283 0.0
C184 C 0.14004 0.38185 0.88071 0.0
N185 N 0.16981 0.38583 0.86922 0.0
H186 H 0.216 0.41999 0.86222 0.0
H187 H 0.12444 0.3561 0.88108 0.0
H188 H 0.24107 0.40422 0.83651 0.0
H189 H 0.15144 0.34086 0.81696 0.0
O190 O 0.24147 0.3512 0.86048 0.0
O191 O 0.21886 0.30213 0.84584 0.0
O192 O 0.13709 0.32397 0.85053 0.0
C193 C 0.24785 0.31971 0.85233 0.0
H194 H 0.16083 0.25033 0.90685 0.0
H195 H 0.22945 0.42295 0.80245 0.0
H196 H 0.10927 0.40384 0.90321 0.0
H197 H 0.20176 0.46931 0.88357 0.0
Co198 Co 0.1571 0.67882 0.11254 0.0
C199 C 0.16755 0.7073 0.15058 0.0
C200 C 0.21727 0.68409 0.13904 0.0
C201 C 0.22541 0.69672 0.15621 0.0
N202 N 0.18085 0.69025 0.13557 0.0
N203 N 0.19406 0.71117 0.16342 0.0
H204 H 0.13958 0.71744 0.15222 0.0
H205 H 0.23652 0.67097 0.12971 0.0
C206 C 0.177 0.60645 0.12952 0.0
O207 O 0.16376 0.62099 0.14459 0.0
N208 N 0.1346 0.66827 0.0894 0.0
C209 C 0.10285 0.68347 0.08307 0.0
C210 C 0.09555 0.6688 0.06619 0.0
C211 C 0.14645 0.64477 0.07633 0.0
N212 N 0.12292 0.64446 0.06196 0.0
C213 C 0.08841 0.69466 0.13099 0.0
C214 C 0.06292 0.62212 0.13317 0.0
C215 C 0.04364 0.65025 0.14245 0.0
C216 C 0.05582 0.68715 0.1406 0.0
C217 C 0.0952 0.63107 0.12346 0.0
N218 N 0.10952 0.66644 0.12397 0.0
H219 H 0.09734 0.72329 0.12981 0.0
H220 H 0.10885 0.6093 0.11583 0.0
H221 H 0.0862 0.70385 0.09025 0.0
H222 H 0.17144 0.62801 0.07741 0.0
O223 O 0.14881 0.73136 0.10878 0.0
O224 O 0.2001 0.70135 0.10071 0.0
O225 O 0.17557 0.62516 0.11466 0.0
C226 C 0.18229 0.73292 0.10217 0.0
H227 H 0.25212 0.69471 0.16298 0.0
H228 H 0.07218 0.67599 0.05758 0.0
H229 H 0.05339 0.59346 0.13357 0.0
H230 H 0.0413 0.70992 0.1472 0.0
Co231 Co 0.83512 0.66794 0.3586 0.0
C232 C 0.81701 0.6905 0.3958 0.0
C233 C 0.84876 0.73269 0.382 0.0
C234 C 0.84034 0.74536 0.39917 0.0
N235 N 0.83421 0.69833 0.38004 0.0
N236 N 0.8204 0.71874 0.40777 0.0
H237 H 0.80171 0.66497 0.39824 0.0
H238 H 0.864 0.74761 0.37163 0.0
C239 C 0.91658 0.66724 0.3501 0.0
O240 O 0.9134 0.6312 0.34717 0.0
N241 N 0.83538 0.6385 0.3364 0.0
C242 C 0.81193 0.61072 0.33152 0.0
C243 C 0.81786 0.60188 0.31355 0.0
C244 C 0.8539 0.64717 0.32101 0.0
N245 N 0.8444 0.62478 0.30701 0.0
C246 C 0.83326 0.59526 0.37522 0.0
C247 C 0.89294 0.6071 0.39826 0.0
C248 C 0.87128 0.57492 0.40054 0.0
C249 C 0.84157 0.5688 0.38854 0.0
C250 C 0.88352 0.63292 0.38487 0.0
N251 N 0.85415 0.62685 0.37336 0.0
H252 H 0.80816 0.59153 0.3675 0.0
H253 H 0.89849 0.65904 0.38466 0.0
H254 H 0.79003 0.59919 0.33982 0.0
H255 H 0.87249 0.67077 0.31976 0.0
O256 O 0.78274 0.65831 0.36159 0.0
O257 O 0.80607 0.70614 0.34628 0.0
O258 O 0.8875 0.68662 0.35366 0.0
C259 C 0.77676 0.68874 0.35251 0.0
H260 H 0.84841 0.77199 0.40489 0.0
H261 H 0.80307 0.5809 0.3058 0.0
H262 H 0.91606 0.61318 0.40725 0.0
H263 H 0.82324 0.54502 0.39016 0.0
H264 H 0.20861 0.2316 0.06968 0.0
H265 H 0.19923 0.26154 0.04057 0.0
H266 H 0.31391 0.2974 0.04017 0.0
H267 H 0.32454 0.26586 0.0688 0.0
H268 H 0.20782 0.33171 0.02584 0.0
H269 H 0.30835 0.23036 -0.0041 0.0
H270 H 0.29145 0.22612 0.01885 0.0
H271 H 0.32683 0.25986 0.01344 0.0
C272 C 0.23207 0.24567 0.06358 0.0
C273 C 0.26774 0.24487 0.07157 0.0
C274 C 0.22642 0.26327 0.04694 0.0
C275 C 0.25613 0.2808 0.03805 0.0
C276 C 0.29086 0.28313 0.04666 0.0
H277 H 0.25502 0.33265 0.92198 0.0
H278 H 0.2719 0.33685 0.95416 0.0
C279 C 0.29675 0.26507 0.06318 0.0
C280 C 0.25145 0.29282 0.01904 0.0
H281 H 0.2773 0.27012 0.97585 0.0
C282 C 0.22334 0.31869 0.0149 0.0
C283 C 0.27174 0.27558 0.00483 0.0
C284 C 0.30107 0.24622 0.00838 0.0
C285 C 0.21409 0.32681 -0.00317 0.0
C286 C 0.23341 0.30847 0.98272 0.0
C287 C 0.26275 0.28415 0.98682 0.0
C288 C 0.22123 0.31066 0.96368 0.0
C289 C 0.18315 0.35413 0.99292 0.0
C290 C 0.1873 0.29437 0.95853 0.0
C291 C 0.17779 0.2916 0.94022 0.0
C292 C 0.20209 0.30517 0.92682 0.0
C293 C 0.23568 0.32226 0.93207 0.0
C294 C 0.24532 0.32474 0.95038 0.0
H295 H 0.17788 0.37284 0.00468 0.0
H296 H 0.18982 0.37138 0.98082 0.0
H297 H 0.15711 0.33848 0.99003 0.0
H298 H 0.16874 0.2827 0.96865 0.0
H299 H 0.15155 0.27875 0.93654 0.0
H300 H 0.13127 0.71005 0.18388 0.0
H301 H 0.12509 0.73076 0.21543 0.0
H302 H 0.24048 0.76474 0.21546 0.0
H303 H 0.24648 0.74526 0.18387 0.0
H304 H 0.16358 0.70114 0.2435 0.0
H305 H 0.19132 0.8522 0.24064 0.0
H306 H 0.17858 0.82549 0.22074 0.0
H307 H 0.2264 0.8273 0.22825 0.0
C308 C 0.15502 0.72287 0.19047 0.0
C309 C 0.18943 0.72599 0.18143 0.0
C310 C 0.15145 0.73456 0.20849 0.0
C311 C 0.18211 0.74987 0.21766 0.0
C312 C 0.21618 0.75387 0.2085 0.0
H313 H 0.28928 0.72655 0.31346 0.0
H314 H 0.25183 0.71957 0.28611 0.0
C315 C 0.21977 0.74218 0.19053 0.0
C316 C 0.18043 0.7575 0.23735 0.0
H317 H 0.21074 0.8206 0.26864 0.0
C318 C 0.1728 0.72761 0.24907 0.0
C319 C 0.1915 0.79225 0.24465 0.0
C320 C 0.19698 0.82621 0.23287 0.0
C321 C 0.17993 0.73043 0.26773 0.0
C322 C 0.19565 0.76368 0.27464 0.0
C323 C 0.19932 0.79484 0.26325 0.0
C324 C 0.21411 0.76486 0.29255 0.0
C325 C 0.17242 0.69714 0.2797 0.0
C326 C 0.20548 0.79281 0.3052 0.0
C327 C 0.22709 0.79698 0.32086 0.0
C328 C 0.25784 0.77345 0.324 0.0
C329 C 0.26553 0.74475 0.31157 0.0
C330 C 0.244 0.74063 0.29596 0.0
H331 H 0.1485 0.68062 0.27446 0.0
H332 H 0.19725 0.67868 0.27971 0.0
H333 H 0.16643 0.70571 0.2939 0.0
H334 H 0.18264 0.81191 0.30273 0.0
H335 H 0.22003 0.81892 0.33036 0.0
H336 H 0.79983 0.78054 0.42625 0.0
H337 H 0.77616 0.78339 0.45731 0.0
H338 H 0.78163 0.66345 0.46108 0.0
H339 H 0.80649 0.6604 0.43015 0.0
H340 H 0.71146 0.74808 0.47288 0.0
H341 H 0.84553 0.70239 0.50414 0.0
H342 H 0.84273 0.7182 0.48091 0.0
H343 H 0.8255 0.67288 0.48693 0.0
C344 C 0.79629 0.7548 0.43372 0.0
C345 C 0.80532 0.72029 0.42582 0.0
C346 C 0.7824 0.75643 0.45136 0.0
C347 C 0.77742 0.72363 0.46142 0.0
C348 C 0.78559 0.68904 0.45351 0.0
H349 H 0.68418 0.74842 0.57191 0.0
H350 H 0.69445 0.72099 0.5418 0.0
C351 C 0.79952 0.68737 0.43583 0.0
C352 C 0.76519 0.72636 0.48047 0.0
H353 H 0.79816 0.72212 0.52385 0.0
C354 C 0.73002 0.74175 0.4841 0.0
C355 C 0.78973 0.71809 0.49494 0.0
C356 C 0.8281 0.70217 0.49166 0.0
C357 C 0.71941 0.75087 0.50187 0.0
C358 C 0.74463 0.74415 0.51622 0.0
C359 C 0.77898 0.72698 0.51271 0.0
C360 C 0.73825 0.75958 0.53447 0.0
C361 C 0.68241 0.76975 0.5051 0.0
C362 C 0.75969 0.79005 0.54018 0.0
C363 C 0.75377 0.80589 0.55719 0.0
C364 C 0.72641 0.79139 0.56887 0.0
C365 C 0.70509 0.76057 0.56313 0.0
C366 C 0.711 0.74475 0.54602 0.0
H367 H 0.66725 0.77548 0.49224 0.0
H368 H 0.66466 0.75168 0.51376 0.0
H369 H 0.68666 0.79649 0.51245 0.0
H370 H 0.78071 0.80193 0.53133 0.0
H371 H 0.77023 0.82993 0.56104 0.0
H372 H 0.73384 0.29546 0.68481 0.0
H373 H 0.72256 0.24894 0.70818 0.0
H374 H 0.79922 0.1736 0.68194 0.0
H375 H 0.81008 0.21983 0.65803 0.0
H376 H 0.70119 0.1665 0.70584 0.0
H377 H 0.84155 0.19849 0.73477 0.0
H378 H 0.81974 0.2306 0.71918 0.0
H379 H 0.83638 0.18643 0.71112 0.0
C380 C 0.7477 0.26876 0.68369 0.0
C381 C 0.77325 0.26169 0.66966 0.0
C382 C 0.74121 0.24218 0.69707 0.0
C383 C 0.76021 0.20805 0.69676 0.0
C384 C 0.78452 0.19997 0.6824 0.0
H385 H 0.75711 0.13101 0.80891 0.0
H386 H 0.76998 0.12062 0.77656 0.0
C387 C 0.79095 0.22661 0.66889 0.0
C388 C 0.75704 0.18352 0.71271 0.0
H389 H 0.79639 0.17469 0.75457 0.0
C390 C 0.72242 0.16698 0.71634 0.0
C391 C 0.78503 0.18369 0.72622 0.0
C392 C 0.82287 0.20068 0.72277 0.0
C393 C 0.71372 0.15422 0.73382 0.0
C394 C 0.73999 0.15915 0.74794 0.0
C395 C 0.77613 0.17135 0.74374 0.0
C396 C 0.72849 0.15997 0.7672 0.0
C397 C 0.6756 0.13799 0.73728 0.0
C398 C 0.70103 0.18554 0.7726 0.0
C399 C 0.69385 0.19165 0.79094 0.0
C400 C 0.71415 0.17249 0.80428 0.0
C401 C 0.7409 0.146 0.7989 0.0
C402 C 0.74822 0.13998 0.78046 0.0
H403 H 0.66557 0.12229 0.72521 0.0
H404 H 0.67568 0.11909 0.74923 0.0
H405 H 0.65556 0.16098 0.73983 0.0
H406 H 0.6862 0.20209 0.76264 0.0
H407 H 0.67271 0.21178 0.79467 0.0
H408 H 0.6015 0.15574 0.93429 0.0
H409 H 0.56491 0.15945 0.96221 0.0
H410 H 0.65338 0.10489 0.99163 0.0
H411 H 0.69075 0.10233 0.96396 0.0
H412 H 0.54046 0.10031 0.98343 0.0
H413 H 0.63131 0.19537 0.02348 0.0
H414 H 0.63637 0.18937 -0.00075 0.0
H415 H 0.6544 0.15482 0.0146 0.0
C416 C 0.61353 0.14515 0.94674 0.0
C417 C 0.64919 0.12883 0.94684 0.0
C418 C 0.59243 0.14703 0.96267 0.0
C419 C 0.6066 0.13282 0.97903 0.0
C420 C 0.64216 0.1166 0.97923 0.0
H421 H 0.50277 0.12032 0.08693 0.0
H422 H 0.54491 0.11016 0.06104 0.0
C423 C 0.66332 0.11477 0.96332 0.0
C424 C 0.58352 0.13382 -0.0043 0.0
H425 H 0.57954 0.16913 0.03878 0.0
C426 C 0.54902 0.11534 -0.00446 0.0
C427 C 0.5949 0.15322 0.01152 0.0
C428 C 0.63111 0.17461 0.01226 0.0
C429 C 0.52542 0.116 0.01072 0.0
C430 C 0.53647 0.13598 0.02637 0.0
C431 C 0.57131 0.15372 0.02674 0.0
C432 C 0.51101 0.14108 0.04196 0.0
C433 C 0.48877 0.09539 0.0099 0.0
C434 C 0.47834 0.162 0.03975 0.0
C435 C 0.45447 0.1679 0.05441 0.0
C436 C 0.46282 0.15303 0.07161 0.0
C437 C 0.49553 0.13187 0.0738 0.0
C438 C 0.51962 0.12619 0.05909 0.0
H439 H 0.48866 0.07392 -0.001 0.0
H440 H 0.48258 0.08167 0.02307 0.0
H441 H 0.46606 0.11555 0.007 0.0
H442 H 0.47146 0.17407 0.02669 0.0
H443 H 0.42928 0.18396 0.05226 0.0
H444 H 0.32606 0.00563 0.33157 0.0
H445 H 0.33712 0.04444 0.30474 0.0
H446 H 0.42287 0.9683 0.28697 0.0
H447 H 0.41273 0.93015 0.31412 0.0
H448 H 0.44197 0.03939 0.27993 0.0
H449 H 0.29788 0.01293 0.25589 0.0
H450 H 0.29929 0.03502 0.27775 0.0
H451 H 0.31778 0.98866 0.275 0.0
C452 C 0.34756 0.99752 0.32202 0.0
C453 C 0.36833 0.9648 0.32477 0.0
C454 C 0.35371 0.01952 0.30667 0.0
C455 C 0.38007 0.00866 0.2936 0.0
C456 C 0.40221 0.97705 0.29682 0.0
H457 H 0.37057 0.07685 0.1809 0.0
H458 H 0.37057 0.04246 0.2096 0.0
C459 C 0.39647 0.95534 0.31233 0.0
C460 C 0.38332 0.02909 0.27618 0.0
H461 H 0.33318 0.05703 0.23923 0.0
C462 C 0.41824 0.04321 0.27099 0.0
C463 C 0.35248 0.03333 0.26435 0.0
C464 C 0.31485 0.01636 0.26841 0.0
C465 C 0.42306 0.06185 0.25438 0.0
C466 C 0.39184 0.06743 0.24292 0.0
C467 C 0.35704 0.05303 0.24807 0.0
C468 C 0.39443 0.0876 0.22537 0.0
C469 C 0.46171 0.07447 0.24911 0.0
C470 C 0.40789 0.12436 0.22466 0.0
C471 C 0.40837 0.1438 0.20821 0.0
C472 C 0.39458 0.12712 0.19229 0.0
C473 C 0.38109 0.09039 0.19302 0.0
C474 C 0.38117 0.07076 0.20938 0.0
H475 H 0.48352 0.05818 0.25631 0.0
H476 H 0.46631 0.07171 0.23425 0.0
H477 H 0.46526 0.10421 0.25291 0.0
H478 H 0.41721 0.13837 0.23688 0.0
H479 H 0.41835 0.1723 0.20804 0.0
H480 H 0.37353 0.83714 0.44971 0.0
H481 H 0.40256 0.83954 0.47965 0.0
H482 H 0.40558 0.95967 0.47695 0.0
H483 H 0.37794 0.95751 0.44666 0.0
H484 H 0.47151 0.93081 0.4876 0.0
H485 H 0.35804 0.8683 0.52832 0.0
H486 H 0.37084 0.83938 0.50943 0.0
H487 H 0.35103 0.88477 0.50539 0.0
C488 C 0.38049 0.86409 0.45539 0.0
C489 C 0.37332 0.89714 0.44571 0.0
C490 C 0.39656 0.86544 0.47266 0.0
C491 C 0.40546 0.89983 0.48069 0.0
C492 C 0.39847 0.93285 0.47109 0.0
H493 H 0.49542 0.90401 0.59245 0.0
H494 H 0.45608 0.91932 0.5661 0.0
C495 C 0.3825 0.93155 0.45379 0.0
C496 C 0.42442 0.90107 0.49856 0.0
H497 H 0.41915 0.8683 0.54203 0.0
C498 C 0.45979 0.91767 0.49957 0.0
C499 C 0.40883 0.88456 0.51428 0.0
C500 C 0.36991 0.86861 0.51438 0.0
C501 C 0.48091 0.91623 0.51557 0.0
C502 C 0.46651 0.89716 0.53084 0.0
C503 C 0.43026 0.88254 0.53021 0.0
C504 C 0.49006 0.88896 0.54682 0.0
C505 C 0.51884 0.93443 0.51588 0.0
C506 C 0.52172 0.86652 0.54467 0.0
C507 C 0.544 0.85779 0.55955 0.0
C508 C 0.53497 0.87109 0.57698 0.0
C509 C 0.50315 0.89357 0.57917 0.0
C510 C 0.48065 0.90221 0.56418 0.0
H511 H 0.52086 0.95711 0.50565 0.0
H512 H 0.52521 0.94615 0.52951 0.0
H513 H 0.54036 0.91326 0.51257 0.0
H514 H 0.5291 0.85554 0.53143 0.0
H515 H 0.56861 0.84088 0.55735 0.0
H516 H 0.69525 0.9718 0.84121 0.0
H517 H 0.6812 0.93472 0.81406 0.0
H518 H 0.5838 1.00201 0.80409 0.0
H519 H 0.59782 0.03955 0.83094 0.0
H520 H 0.60807 0.89667 0.79966 0.0
H521 H 0.66359 0.01807 0.7609 0.0
H522 H 0.67421 0.01072 0.78461 0.0
H523 H 0.62908 0.02749 0.77805 0.0
C524 C 0.6704 0.97818 0.83346 0.0
C525 C 0.64786 0.00885 0.83812 0.0
C526 C 0.66233 0.95687 0.81803 0.0
C527 C 0.63172 0.966 0.80706 0.0
C528 C 0.60758 0.99468 0.81243 0.0
H529 H 0.55513 0.87017 0.70492 0.0
H530 H 0.55876 0.89418 0.73598 0.0
C531 C 0.61553 0.01592 0.82786 0.0
C532 C 0.62774 0.94889 0.78892 0.0
H533 H 0.64132 0.96709 0.74392 0.0
C534 C 0.61516 0.91197 0.78743 0.0
C535 C 0.6375 0.96899 0.7731 0.0
C536 C 0.65209 0.00845 0.7741 0.0
C537 C 0.61179 0.89466 0.77037 0.0
C538 C 0.6212 0.91494 0.75455 0.0
C539 C 0.63399 0.95175 0.7561 0.0
C540 C 0.6189 0.89834 0.73619 0.0
C541 C 0.59892 0.85466 0.76934 0.0
C542 C 0.65148 0.8931 0.72602 0.0
C543 C 0.64957 0.87925 0.70831 0.0
C544 C 0.61492 0.87071 0.70034 0.0
C545 C 0.58229 0.87594 0.71066 0.0
C546 C 0.58428 0.88966 0.72843 0.0
H547 H 0.59928 0.8409 0.78286 0.0
H548 H 0.56997 0.85381 0.76404 0.0
H549 H 0.6168 0.83848 0.75987 0.0
H550 H 0.67846 0.89976 0.7318 0.0
H551 H 0.67534 0.87504 0.70098 0.0
H552 H 0.14898 0.32719 0.78598 0.0
H553 H 0.11785 0.33121 0.75655 0.0
H554 H 0.15276 0.44583 0.75136 0.0
H555 H 0.1832 0.44233 0.78105 0.0
H556 H 0.07698 0.43523 0.74588 0.0
H557 H 0.15872 0.33534 0.70458 0.0
H558 H 0.14398 0.31602 0.72589 0.0
H559 H 0.1759 0.35475 0.72565 0.0
C560 C 0.15018 0.35321 0.77857 0.0
C561 C 0.16846 0.38449 0.7859 0.0
C562 C 0.13281 0.35532 0.76163 0.0
C563 C 0.13353 0.38865 0.75167 0.0
C564 C 0.15227 0.41974 0.75877 0.0
H565 H 0.0168 0.39426 0.64589 0.0
H566 H 0.06534 0.4069 0.66877 0.0
C567 C 0.16977 0.41762 0.77569 0.0
C568 C 0.11168 0.39185 0.7347 0.0
H569 H 0.09683 0.34964 0.69376 0.0
C570 C 0.08176 0.41705 0.73433 0.0
C571 C 0.11826 0.36846 0.71956 0.0
C572 C 0.15121 0.34238 0.71882 0.0
C573 C 0.05675 0.41769 0.7197 0.0
C574 C 0.06174 0.39234 0.70521 0.0
C575 C 0.09301 0.36887 0.70499 0.0
C576 C 0.03252 0.3867 0.69136 0.0
C577 C 0.02441 0.44456 0.72013 0.0
C578 C 0.99837 0.37109 0.69659 0.0
C579 C 0.971 0.36368 0.68367 0.0
C580 C 0.97725 0.37179 0.66526 0.0
C581 C 0.01129 0.38798 0.66003 0.0
C582 C 0.03895 0.39507 0.67301 0.0
H583 H 0.02998 0.46851 0.72934 0.0
H584 H 0.01821 0.45536 0.70632 0.0
H585 H 0.99926 0.42981 0.72518 0.0
H586 H 0.99312 0.36407 0.71068 0.0
H587 H 0.94487 0.35153 0.68808 0.0
H588 H 0.08979 0.46753 0.91059 0.0
H589 H 0.08392 0.50454 0.93848 0.0
H590 H 0.20361 0.50732 0.94372 0.0
H591 H 0.20976 0.47028 0.9161 0.0
H592 H 0.11016 0.48359 0.97286 0.0
H593 H 0.17467 0.61673 0.95076 0.0
H594 H 0.15903 0.58164 0.93487 0.0
H595 H 0.2029 0.57635 0.94641 0.0
C596 C 0.11485 0.47633 0.91761 0.0
C597 C 0.15024 0.46624 0.91102 0.0
C598 C 0.11145 0.49751 0.93349 0.0
C599 C 0.14335 0.50911 0.943 0.0
C600 C 0.17867 0.49947 0.93635 0.0
H601 H 0.1864 0.61974 0.04591 0.0
H602 H 0.19132 0.58522 0.01725 0.0
C603 C 0.18211 0.47835 0.92051 0.0
C604 C 0.13983 0.5292 0.96049 0.0
H605 H 0.16454 0.60934 0.98252 0.0
C606 C 0.12176 0.51121 0.97495 0.0
C607 C 0.15528 0.56509 0.96318 0.0
C608 C 0.17377 0.58628 0.94795 0.0
C609 C 0.11928 0.52791 0.99215 0.0
C610 C 0.13482 0.56375 -0.00515 0.0
C611 C 0.15284 0.58178 0.9804 0.0
C612 C 0.13184 0.58342 0.01247 0.0
C613 C 0.10076 0.50678 0.00739 0.0
C614 C 0.09681 0.59385 0.01919 0.0
C615 C 0.09393 0.6134 0.03553 0.0
C616 C 0.12605 0.62307 0.04545 0.0
C617 C 0.16115 0.61235 0.03872 0.0
C618 C 0.16401 0.59287 0.0223 0.0
H619 H 0.09883 0.47645 0.00439 0.0
H620 H 0.11619 0.5106 0.02034 0.0
H621 H 0.07204 0.51757 0.00932 0.0
H622 H 0.07169 0.58726 0.01167 0.0
H623 H 0.06648 0.62085 0.04041 0.0
H624 H 0.0428 0.59584 0.16813 0.0
H625 H 0.99823 0.58842 0.19288 0.0
H626 H 0.93118 0.67739 0.17074 0.0
H627 H 0.97629 0.68544 0.14609 0.0
H628 H 0.94695 0.69016 0.20506 0.0
H629 H 0.89628 0.54519 0.19953 0.0
H630 H 0.94622 0.54659 0.19949 0.0
H631 H 0.92065 0.56812 0.18121 0.0
C632 C 0.01795 0.61302 0.16821 0.0
C633 C 0.01302 0.64126 0.15521 0.0
C634 C 0.99239 0.60867 0.18235 0.0
C635 C 0.96108 0.63205 0.18358 0.0
C636 C 0.95508 0.65897 0.17004 0.0
H637 H 0.80805 0.60623 0.27593 0.0
H638 H 0.83274 0.60925 0.24494 0.0
C639 C 0.98085 0.66359 0.15599 0.0
C640 C 0.93758 0.63159 0.20015 0.0
H641 H 0.89186 0.57354 0.22937 0.0
C642 C 0.93434 0.66477 0.21019 0.0
C643 C 0.92069 0.59863 0.20679 0.0
C644 C 0.92079 0.56275 0.19606 0.0
C645 C 0.91631 0.66549 0.22707 0.0
C646 C 0.90199 0.63192 0.23434 0.0
C647 C 0.90345 0.59914 0.22391 0.0
C648 C 0.88689 0.63002 0.25305 0.0
C649 C 0.91305 0.70222 0.23699 0.0
C650 C 0.90936 0.64008 0.26788 0.0
C651 C 0.89533 0.63848 0.28554 0.0
C652 C 0.85869 0.62629 0.28875 0.0
C653 C 0.83645 0.61551 0.2739 0.0
C654 C 0.85045 0.61735 0.25619 0.0
H655 H 0.91409 0.72615 0.22742 0.0
H656 H 0.88672 0.70384 0.24488 0.0
H657 H 0.93679 0.70514 0.24655 0.0
H658 H 0.93792 0.64892 0.26581 0.0
H659 H 0.91337 0.64621 0.29671 0.0
H660 H 0.88862 0.59522 0.43535 0.0
H661 H 0.89442 0.55513 0.46193 0.0
H662 H 0.87094 0.45858 0.42888 0.0
H663 H 0.86587 0.4985 0.40196 0.0
H664 H 0.82686 0.46548 0.46137 0.0
H665 H 0.97839 0.48012 0.47497 0.0
H666 H 0.95424 0.52353 0.47175 0.0
H667 H 0.95776 0.49104 0.45322 0.0
C668 C 0.88562 0.56537 0.43357 0.0
C669 C 0.87714 0.55005 0.41644 0.0
C670 C 0.88879 0.54252 0.44882 0.0
C671 C 0.88354 0.50391 0.4473 0.0
C672 C 0.87523 0.48836 0.43028 0.0
H673 H 0.92476 0.34619 0.535 0.0
H674 H 0.9232 0.3779 0.50568 0.0
C675 C 0.87222 0.51121 0.41495 0.0
C676 C 0.88486 0.48021 0.46373 0.0
H677 H 0.94156 0.45365 0.49863 0.0
C678 C 0.85199 0.46257 0.46945 0.0
C679 C 0.91777 0.47631 0.47412 0.0
C680 C 0.95417 0.49345 0.46816 0.0
C681 C 0.85088 0.44201 0.48566 0.0
C682 C 0.88341 0.43941 0.49644 0.0
C683 C 0.91658 0.45604 0.49041 0.0
C684 C 0.88355 0.41986 0.51414 0.0
C685 C 0.81496 0.42322 0.49113 0.0
C686 C 0.862 0.43321 0.52865 0.0
C687 C 0.86305 0.41535 0.54552 0.0
C688 C 0.88581 0.38386 0.5482 0.0
C689 C 0.90733 0.37062 0.53355 0.0
C690 C 0.90632 0.38856 0.51672 0.0
H691 H 0.7956 0.42015 0.47944 0.0
H692 H 0.82043 0.39521 0.49699 0.0
H693 H 0.80087 0.44036 0.50164 0.0
H694 H 0.84479 0.45781 0.52701 0.0
H695 H 0.8466 0.4267 0.55652 0.0
H696 H 0.25698 0.7487 0.10341 0.0
H697 H 0.28541 0.81072 0.10641 0.0
H698 H 0.17753 0.86166 0.09909 0.0
H699 H 0.14898 0.79999 0.09662 0.0
H700 H 0.29043 0.87276 0.08587 0.0
H701 H 0.20825 0.90477 0.14743 0.0
H702 H 0.20988 0.85868 0.13759 0.0
H703 H 0.17872 0.89344 0.12856 0.0
C704 C 0.2395 0.77318 0.10206 0.0
C705 C 0.20074 0.76952 0.09986 0.0
C706 C 0.25572 0.8086 0.10392 0.0
C707 C 0.23343 0.84086 0.10358 0.0
C708 C 0.19513 0.8372 0.10004 0.0
H709 H 0.29226 0.06811 0.08495 0.0
H710 H 0.27501 1.00259 0.08408 0.0
C711 C 0.1789 0.80193 0.0984 0.0
C712 C 0.24979 0.87832 0.10721 0.0
H713 H 0.23812 0.95684 0.13301 0.0
C714 C 0.27923 0.89099 0.0963 0.0
C715 C 0.23603 0.90183 0.12119 0.0
C716 C 0.20678 0.88883 0.13449 0.0
C717 C 0.29388 0.92714 0.09832 0.0
C718 C 0.27799 0.9517 0.1113 0.0
C719 C 0.24993 0.93834 0.12286 0.0
C720 C 0.28841 0.99188 0.11226 0.0
C721 C 0.32629 0.93858 0.08651 0.0
C722 C 0.30009 0.00843 0.12865 0.0
C723 C 0.30949 0.04647 0.12929 0.0
C724 C 0.30734 0.06849 0.11353 0.0
C725 C 0.29482 0.05192 0.0973 0.0
C726 C 0.2852 0.01424 0.09672 0.0
H727 H 0.34318 0.91401 0.08239 0.0
H728 H 0.31552 0.95183 0.07394 0.0
H729 H 0.34474 0.95879 0.09359 0.0
H730 H 0.30233 0.99184 0.14089 0.0
H731 H 0.319 0.05843 0.142 0.0
H732 H 0.75615 0.76182 0.34788 0.0
H733 H 0.69348 0.78815 0.35203 0.0
H734 H 0.64912 0.67733 0.35938 0.0
H735 H 0.7115 0.65118 0.35585 0.0
H736 H 0.62817 0.78114 0.33514 0.0
H737 H 0.61253 0.72688 0.40489 0.0
H738 H 0.65643 0.72581 0.39295 0.0
H739 H 0.62214 0.68985 0.3892 0.0
C740 C 0.73288 0.74312 0.35012 0.0
C741 C 0.73871 0.70448 0.35165 0.0
C742 C 0.69714 0.75818 0.35262 0.0
C743 C 0.66672 0.73481 0.35663 0.0
C744 C 0.67228 0.69606 0.357 0.0
H745 H 0.4345 0.77344 0.34141 0.0
H746 H 0.50032 0.75716 0.34043 0.0
C747 C 0.70791 0.6811 0.35474 0.0
C748 C 0.62906 0.75057 0.3603 0.0
H749 H 0.55583 0.74584 0.38996 0.0
C750 C 0.61255 0.77376 0.34723 0.0
C751 C 0.6089 0.74194 0.37633 0.0
C752 C 0.6261 0.72012 0.39173 0.0
C753 C 0.57584 0.78677 0.34926 0.0
C754 C 0.55458 0.77538 0.36452 0.0
C755 C 0.57178 0.75398 0.37809 0.0
C756 C 0.51402 0.78359 0.36602 0.0
C757 C 0.56024 0.81259 0.33497 0.0
C758 C 0.49911 0.8019 0.38131 0.0
C759 C 0.46095 0.81065 0.38209 0.0
C760 C 0.4373 0.80129 0.36755 0.0
C761 C 0.45211 0.78157 0.3527 0.0
C762 C 0.48987 0.77251 0.35204 0.0
H763 H 0.58277 0.82868 0.3282 0.0
H764 H 0.54591 0.79584 0.32438 0.0
H765 H 0.5399 0.83255 0.34087 0.0
H766 H 0.51714 0.81027 0.3924 0.0
H767 H 0.4503 0.8259 0.39369 0.0
H768 H 0.65435 0.96389 0.59531 0.0
H769 H 0.67552 0.02827 0.59324 0.0
H770 H 0.74401 0.01269 0.64079 0.0
H771 H 0.72203 0.94764 0.64318 0.0
H772 H 0.70843 0.08384 0.63914 0.0
H773 H 0.78045 0.05037 0.57456 0.0
H774 H 0.73183 0.03863 0.57422 0.0
H775 H 0.76274 0.0148 0.58958 0.0
C776 C 0.6737 0.97415 0.60546 0.0
C777 C 0.68703 0.95054 0.61925 0.0
C778 C 0.68584 0.01099 0.60421 0.0
C779 C 0.71211 0.02501 0.61654 0.0
C780 C 0.72396 1.00227 0.63101 0.0
H781 H 0.85503 0.21532 0.59892 0.0
H782 H 0.82717 0.15351 0.60187 0.0
C783 C 0.71139 0.96521 0.6324 0.0
C784 C 0.72827 0.06271 0.61354 0.0
H785 H 0.7751 0.11467 0.58202 0.0
C786 C 0.72312 0.09061 0.6267 0.0
C787 C 0.74791 0.07138 0.59738 0.0
C788 C 0.75643 0.04214 0.5832 0.0
C789 C 0.73643 0.12714 0.62395 0.0
C790 C 0.75469 0.13609 0.60745 0.0
C791 C 0.76043 0.10799 0.59449 0.0
C792 C 0.77051 0.17372 0.6039 0.0
C793 C 0.73165 0.15561 0.63888 0.0
C794 C 0.74775 0.20564 0.60321 0.0
C795 C 0.76367 0.24119 0.6013 0.0
C796 C 0.80257 0.24523 0.60009 0.0
C797 C 0.82496 0.21306 0.59973 0.0
C798 C 0.80909 0.17771 0.60153 0.0
H799 H 0.72487 0.14234 0.65211 0.0
H800 H 0.75734 0.17256 0.64055 0.0
H801 H 0.70851 0.17477 0.63529 0.0
H802 H 0.71781 0.20314 0.60465 0.0
H803 H 0.74579 0.2655 0.60188 0.0
H804 H 0.56745 0.16486 0.83654 0.0
H805 H 0.50499 0.19097 0.836 0.0
H806 H 0.51849 0.22982 0.89104 0.0
H807 H 0.58191 0.20338 0.8918 0.0
H808 H 0.44632 0.19219 0.88188 0.0
H809 H 0.4845 0.30569 0.83412 0.0
H810 H 0.49926 0.25992 0.82722 0.0
H811 H 0.5187 0.28061 0.84735 0.0
C812 C 0.55739 0.17886 0.84863 0.0
C813 C 0.57997 0.18225 0.86421 0.0
C814 C 0.52156 0.19386 0.84823 0.0
C815 C 0.50729 0.21275 0.86336 0.0
C816 C 0.52915 0.21548 0.87917 0.0
H817 H 0.31208 0.35496 0.86168 0.0
H818 H 0.37428 0.32825 0.86466 0.0
C819 C 0.56534 0.20045 0.87958 0.0
C820 C 0.46971 0.22993 0.86224 0.0
H821 H 0.41982 0.29522 0.83879 0.0
C822 C 0.44049 0.21491 0.87258 0.0
C823 C 0.46226 0.25964 0.85014 0.0
C824 C 0.49285 0.27771 0.83916 0.0
C825 C 0.40378 0.22833 0.87082 0.0
C826 C 0.39614 0.2572 0.85824 0.0
C827 C 0.42559 0.27275 0.84823 0.0
C828 C 0.35814 0.273 0.85584 0.0
C829 C 0.37357 0.21185 0.88258 0.0
C830 C 0.32841 0.25105 0.84942 0.0
C831 C 0.29259 0.26637 0.84759 0.0
C832 C 0.28601 0.30388 0.85216 0.0
C833 C 0.31612 0.32594 0.85808 0.0
C834 C 0.35176 0.31071 0.85983 0.0
H835 H 0.38527 0.19614 0.89427 0.0
H836 H 0.35481 0.23401 0.88785 0.0
H837 H 0.35655 0.19228 0.87434 0.0
H838 H 0.33286 0.22204 0.84592 0.0
H839 H 0.26996 0.24866 0.84304 0.0
H840 H 0.78815 0.45028 0.60525 0.0
H841 H 0.76713 0.51541 0.60809 0.0
H842 H 0.8219 0.52369 0.66011 0.0
H843 H 0.84216 0.45925 0.65757 0.0
H844 H 0.75083 0.54755 0.66186 0.0
H845 H 0.82296 0.61419 0.6036 0.0
H846 H 0.79501 0.57443 0.59765 0.0
H847 H 0.83531 0.5684 0.61186 0.0
C848 C 0.796 0.46621 0.61717 0.0
C849 C 0.81655 0.44946 0.63123 0.0
C850 C 0.78415 0.50346 0.61875 0.0
C851 C 0.79313 0.52457 0.63429 0.0
C852 C 0.8145 0.50803 0.64803 0.0
H853 H 0.75701 0.76517 0.64893 0.0
H854 H 0.78591 0.7029 0.64835 0.0
C855 C 0.82603 0.47104 0.64654 0.0
C856 C 0.77862 0.56307 0.63704 0.0
H857 H 0.77848 0.65124 0.6194 0.0
C858 C 0.75703 0.57023 0.65259 0.0
C859 C 0.78715 0.59282 0.62513 0.0
C860 C 0.81166 0.5873 0.6087 0.0
C861 C 0.74325 0.60604 0.65639 0.0
C862 C 0.75065 0.63551 0.64416 0.0
C863 C 0.77281 0.62861 0.62878 0.0
C864 C 0.73361 0.67301 0.64647 0.0
C865 C 0.72107 0.61205 0.67356 0.0
C866 C 0.69472 0.67679 0.64597 0.0
C867 C 0.67831 0.71206 0.64639 0.0
C868 C 0.70038 0.74443 0.64729 0.0
C869 C 0.7393 0.7407 0.64856 0.0
C870 C 0.75581 0.70521 0.64802 0.0
H871 H 0.72738 0.59039 0.6839 0.0
H872 H 0.72676 0.63994 0.67953 0.0
H873 H 0.69089 0.61032 0.67035 0.0
H874 H 0.67704 0.65248 0.64448 0.0
H875 H 0.64826 0.71404 0.64523 0.0
H876 H 0.8192 0.14842 0.88499 0.0
H877 H 0.87936 0.1788 0.88021 0.0
H878 H 0.82496 0.28592 0.87795 0.0
H879 H 0.76435 0.25557 0.88277 0.0
H880 H 0.87259 0.26845 0.8475 0.0
H881 H 0.94454 0.24567 0.91331 0.0
H882 H 0.92315 0.20473 0.90381 0.0
H883 H 0.89447 0.24314 0.91094 0.0
C884 C 0.82007 0.17855 0.8839 0.0
C885 C 0.78702 0.19962 0.88435 0.0
C886 C 0.85454 0.19588 0.8812 0.0
C887 C 0.85672 0.23465 0.87884 0.0
C888 C 0.82391 0.25597 0.87985 0.0
H889 H 0.04048 0.37815 0.84421 0.0
H890 H 0.97924 0.35251 0.85148 0.0
C891 C 0.78935 0.23864 0.88273 0.0
C892 C 0.89284 0.25222 0.87385 0.0
H893 H 0.98226 0.26524 0.88853 0.0
C894 C 0.89651 0.26813 0.85652 0.0
C895 C 0.92407 0.25139 0.88557 0.0
C896 C 0.92145 0.23561 0.90451 0.0
C897 C 0.93083 0.28234 0.8504 0.0
C898 C 0.96218 0.2814 0.8621 0.0
C899 C 0.95833 0.26584 0.87952 0.0
C900 C 0.99921 0.29654 0.85663 0.0
C901 C 0.93342 0.29705 0.83124 0.0
C902 C 0.03108 0.27379 0.85723 0.0
C903 C 0.06631 0.28847 0.85321 0.0
C904 C 0.07047 0.32631 0.84854 0.0
C905 C 0.03837 0.34881 0.84756 0.0
C906 C 1.0032 0.33415 0.85167 0.0
H907 H 0.91069 0.28592 0.82252 0.0
H908 H 0.93085 0.32789 0.83149 0.0
H909 H 0.9606 0.28977 0.82495 0.0
H910 H 0.02875 0.24471 0.86106 0.0
H911 H 0.09036 0.27033 0.85417 0.0
H912 H 0.20239 0.5699 0.1592 0.0
H913 H 0.22363 0.50565 0.16154 0.0
H914 H 0.20463 0.49018 0.10414 0.0
H915 H 0.18431 0.55551 0.1016 0.0
H916 H 0.18725 0.44262 0.15584 0.0
H917 H 0.30829 0.44924 0.10898 0.0
H918 H 0.28404 0.49048 0.11655 0.0
H919 H 0.26479 0.46208 0.09869 0.0
C920 C 0.20295 0.55299 0.147 0.0
C921 C 0.19173 0.56784 0.13019 0.0
C922 C 0.21504 0.51613 0.14838 0.0
C923 C 0.21604 0.49296 0.13303 0.0
C924 C 0.20489 0.50766 0.11614 0.0
H925 H 0.24361 0.24979 0.14268 0.0
H926 H 0.21608 0.31228 0.14102 0.0
C927 C 0.19318 0.54495 0.11469 0.0
C928 C 0.22823 0.45343 0.1351 0.0
H929 H 0.29343 0.3902 0.12117 0.0
C930 C 0.21048 0.43114 0.14824 0.0
C931 C 0.25874 0.43848 0.12533 0.0
C932 C 0.28033 0.46136 0.11172 0.0
C933 C 0.22271 0.39471 0.15208 0.0
C934 C 0.25295 0.37964 0.14216 0.0
C935 C 0.27026 0.40169 0.1288 0.0
C936 C 0.26808 0.34158 0.14565 0.0
C937 C 0.20393 0.37332 0.16716 0.0
C938 C 0.30633 0.337 0.14907 0.0
C939 C 0.32207 0.3014 0.1498 0.0
C940 C 0.29985 0.26953 0.14736 0.0
C941 C 0.2612 0.27386 0.1451 0.0
C942 C 0.24548 0.30963 0.14406 0.0
H943 H 0.18912 0.39223 0.17671 0.0
H944 H 0.183 0.35405 0.16122 0.0
H945 H 0.2244 0.35654 0.17498 0.0
H946 H 0.32437 0.3611 0.15041 0.0
H947 H 0.352 0.29883 0.15134 0.0
H948 H 0.25436 0.75058 0.3973 0.0
H949 H 0.19333 0.72196 0.39147 0.0
H950 H 0.14364 0.83115 0.38766 0.0
H951 H 0.20436 0.85984 0.3933 0.0
H952 H 0.11882 0.7281 0.40677 0.0
H953 H 0.1287 0.78384 0.33661 0.0
H954 H 0.16805 0.78219 0.35186 0.0
H955 H 0.13388 0.81858 0.35403 0.0
C956 C 0.23017 0.76843 0.39591 0.0
C957 C 0.23413 0.80746 0.39571 0.0
C958 C 0.19538 0.75205 0.3924 0.0
C959 C 0.1642 0.77449 0.38868 0.0
C960 C 0.16752 0.81336 0.39013 0.0
H961 H 0.93443 0.7404 0.35691 0.0
H962 H 0.99539 0.76551 0.36572 0.0
C963 C 0.20216 0.8297 0.39353 0.0
C964 C 0.129 0.75774 0.38186 0.0
H965 H 0.07069 0.75676 0.34508 0.0
C966 C 0.10838 0.73416 0.39326 0.0
C967 C 0.11565 0.76539 0.36413 0.0
C968 C 0.13783 0.78858 0.35085 0.0
C969 C 0.07413 0.71898 0.38758 0.0
C970 C 0.06036 0.72749 0.37006 0.0
C971 C 0.08122 0.75059 0.35856 0.0
C972 C 0.02417 0.71271 0.36351 0.0
C973 C 0.05241 0.69447 0.40043 0.0
C974 C 0.0205 0.67497 0.35884 0.0
C975 C 0.98585 0.66059 0.35361 0.0
C976 C 0.95411 0.68367 0.35307 0.0
C977 C 0.95824 0.72182 0.35717 0.0
C978 C 0.99301 0.73622 0.36226 0.0
H979 H 0.06439 0.69457 0.41435 0.0
H980 H 0.02292 0.7038 0.40115 0.0
H981 H 0.05253 0.66537 0.39527 0.0
H982 H 0.04435 0.65648 0.35955 0.0
H983 H 0.98376 0.63109 0.35059 0.0
loop_
_geom_bond_atom_site_label_1
_geom_bond_atom_site_label_2
_geom_bond_distance
_geom_bond_site_symmetry_2
_ccdc_geom_bond_type
Co0 N4 2.148 . S
Co0 N10 2.128 . S
Co0 N20 2.194 . S
Co0 O25 2.351 . S
Co0 O26 2.155 . S
Co0 O27 2.096 . S
C1 N4 1.301 . S
C1 N5 1.328 . S
C1 H6 0.930 . S
C2 C3 1.333 . S
C2 N4 1.317 . S
C2 H7 0.930 . S
C3 C2 1.333 . S
C3 N5 1.350 . S
C3 H29 0.931 . S
N4 Co0 2.148 . S
N4 C1 1.301 . S
N4 C2 1.317 . S
N5 C1 1.328 . S
N5 C3 1.350 . S
H6 C1 0.930 . S
H7 C2 0.930 . S
C8 O9 1.224 . S
C8 O27 1.247 . S
O9 C8 1.224 . S
N10 Co0 2.128 . S
N10 C11 1.355 . S
N10 C13 1.311 . S
C11 N10 1.355 . S
C11 C12 1.363 . S
C11 H23 0.929 . S
C12 C11 1.363 . S
C12 N14 1.375 . S
C12 H30 0.931 . S
C13 N10 1.311 . S
C13 N14 1.347 . S
C13 H24 0.929 . S
N14 C12 1.375 . S
N14 C13 1.347 . S
C15 C18 1.365 . S
C15 N20 1.328 . S
C15 H21 0.929 . S
C16 C17 1.362 . S
C16 C19 1.378 . S
C16 H31 0.929 . S
C17 C16 1.362 . S
C17 C18 1.366 . S
C18 C15 1.365 . S
C18 C17 1.366 . S
C18 H32 0.930 . S
C19 C16 1.378 . S
C19 N20 1.315 . S
C19 H22 0.930 . S
N20 Co0 2.194 . S
N20 C15 1.328 . S
N20 C19 1.315 . S
H21 C15 0.929 . S
H22 C19 0.930 . S
H23 C11 0.929 . S
H24 C13 0.929 . S
O25 Co0 2.351 . S
O25 C28 1.244 . S
O26 Co0 2.155 . S
O26 C28 1.240 . S
O27 Co0 2.096 . S
O27 C8 1.247 . S
C28 O25 1.244 . S
C28 O26 1.240 . S
H29 C3 0.931 . S
H30 C12 0.931 . S
H31 C16 0.929 . S
H32 C18 0.930 . S
Co33 N37 2.148 . S
Co33 N43 2.128 . S
Co33 N53 2.194 . S
Co33 O58 2.351 . S
Co33 O59 2.155 . S
Co33 O60 2.096 . S
C34 N37 1.301 . S
C34 N38 1.328 . S
C34 H39 0.930 . S
C35 C36 1.333 . S
C35 N37 1.317 . S
C35 H40 0.930 . S
C36 C35 1.333 . S
C36 N38 1.350 . S
C36 H62 0.931 . S
N37 Co33 2.148 . S
N37 C34 1.301 . S
N37 C35 1.317 . S
N38 C34 1.328 . S
N38 C36 1.350 . S
H39 C34 0.930 . S
H40 C35 0.930 . S
C41 O42 1.224 . S
C41 O60 1.247 . S
O42 C41 1.224 . S
N43 Co33 2.128 . S
N43 C44 1.355 . S
N43 C46 1.311 . S
C44 N43 1.355 . S
C44 C45 1.363 . S
C44 H56 0.929 . S
C45 C44 1.363 . S
C45 N47 1.375 . S
C45 H63 0.931 . S
C46 N43 1.311 . S
C46 N47 1.347 . S
C46 H57 0.929 . S
N47 C45 1.375 . S
N47 C46 1.347 . S
C48 C51 1.365 . S
C48 N53 1.328 . S
C48 H54 0.929 . S
C49 C50 1.362 . S
C49 C52 1.378 . S
C49 H64 0.929 . S
C50 C49 1.362 . S
C50 C51 1.366 . S
C51 C48 1.365 . S
C51 C50 1.366 . S
C51 H65 0.930 . S
C52 C49 1.378 . S
C52 N53 1.315 . S
C52 H55 0.930 . S
N53 Co33 2.194 . S
N53 C48 1.328 . S
N53 C52 1.315 . S
H54 C48 0.929 . S
H55 C52 0.930 . S
H56 C44 0.929 . S
H57 C46 0.929 . S
O58 Co33 2.351 . S
O58 C61 1.244 . S
O59 Co33 2.155 . S
O59 C61 1.240 . S
O60 Co33 2.096 . S
O60 C41 1.247 . S
C61 O58 1.244 . S
C61 O59 1.240 . S
H62 C36 0.931 . S
H63 C45 0.931 . S
H64 C49 0.929 . S
H65 C51 0.930 . S
Co66 N70 2.148 . S
Co66 N76 2.128 . S
Co66 N86 2.194 . S
Co66 O91 2.351 . S
Co66 O92 2.155 . S
Co66 O93 2.096 . S
C67 N70 1.301 . S
C67 N71 1.328 . S
C67 H72 0.930 . S
C68 C69 1.333 . S
C68 N70 1.317 . S
C68 H73 0.930 . S
C69 C68 1.333 . S
C69 N71 1.350 . S
C69 H95 0.931 . S
N70 Co66 2.148 . S
N70 C67 1.301 . S
N70 C68 1.317 . S
N71 C67 1.328 . S
N71 C69 1.350 . S
H72 C67 0.930 . S
H73 C68 0.930 . S
C74 O75 1.224 . S
C74 O93 1.247 . S
O75 C74 1.224 . S
N76 Co66 2.128 . S
N76 C77 1.355 . S
N76 C79 1.311 . S
C77 N76 1.355 . S
C77 C78 1.363 . S
C77 H89 0.929 . S
C78 C77 1.363 . S
C78 N80 1.375 . S
C78 H96 0.931 . S
C79 N76 1.311 . S
C79 N80 1.347 . S
C79 H90 0.929 . S
N80 C78 1.375 . S
N80 C79 1.347 . S
C81 C84 1.365 . S
C81 N86 1.328 . S
C81 H87 0.929 . S
C82 C83 1.362 . S
C82 C85 1.378 . S
C82 H97 0.929 . S
C83 C82 1.362 . S
C83 C84 1.366 . S
C84 C81 1.365 . S
C84 C83 1.366 . S
C84 H98 0.930 . S
C85 C82 1.378 . S
C85 N86 1.315 . S
C85 H88 0.930 . S
N86 Co66 2.194 . S
N86 C81 1.328 . S
N86 C85 1.315 . S
H87 C81 0.929 . S
H88 C85 0.930 . S
H89 C77 0.929 . S
H90 C79 0.929 . S
O91 Co66 2.351 . S
O91 C94 1.244 . S
O92 Co66 2.155 . S
O92 C94 1.240 . S
O93 Co66 2.096 . S
O93 C74 1.247 . S
C94 O91 1.244 . S
C94 O92 1.240 . S
H95 C69 0.931 . S
H96 C78 0.931 . S
H97 C82 0.929 . S
H98 C84 0.930 . S
Co99 N103 2.148 . S
Co99 N109 2.128 . S
Co99 N119 2.194 . S
Co99 O124 2.351 . S
Co99 O125 2.155 . S
Co99 O126 2.096 . S
C100 N103 1.301 . S
C100 N104 1.328 . S
C100 H105 0.930 . S
C101 C102 1.333 . S
C101 N103 1.317 . S
C101 H106 0.930 . S
C102 C101 1.333 . S
C102 N104 1.350 . S
C102 H128 0.931 . S
N103 Co99 2.148 . S
N103 C100 1.301 . S
N103 C101 1.317 . S
N104 C100 1.328 . S
N104 C102 1.350 . S
H105 C100 0.930 . S
H106 C101 0.930 . S
C107 O108 1.224 . S
C107 O126 1.247 . S
O108 C107 1.224 . S
N109 Co99 2.128 . S
N109 C110 1.355 . S
N109 C112 1.311 . S
C110 N109 1.355 . S
C110 C111 1.363 . S
C110 H122 0.929 . S
C111 C110 1.363 . S
C111 N113 1.375 . S
C111 H129 0.931 . S
C112 N109 1.311 . S
C112 N113 1.347 . S
C112 H123 0.929 . S
N113 C111 1.375 . S
N113 C112 1.347 . S
C114 C117 1.365 . S
C114 N119 1.328 . S
C114 H120 0.929 . S
C115 C116 1.362 . S
C115 C118 1.378 . S
C115 H130 0.929 . S
C116 C115 1.362 . S
C116 C117 1.366 . S
C117 C114 1.365 . S
C117 C116 1.366 . S
C117 H131 0.930 . S
C118 C115 1.378 . S
C118 N119 1.315 . S
C118 H121 0.930 . S
N119 Co99 2.194 . S
N119 C114 1.328 . S
N119 C118 1.315 . S
H120 C114 0.929 . S
H121 C118 0.930 . S
H122 C110 0.929 . S
H123 C112 0.929 . S
O124 Co99 2.351 . S
O124 C127 1.244 . S
O125 Co99 2.155 . S
O125 C127 1.240 . S
O126 Co99 2.096 . S
O126 C107 1.247 . S
C127 O124 1.244 . S
C127 O125 1.240 . S
H128 C102 0.931 . S
H129 C111 0.931 . S
H130 C115 0.929 . S
H131 C117 0.930 . S
Co132 N136 2.148 . S
Co132 N142 2.128 . S
Co132 N152 2.194 . S
Co132 O157 2.351 . S
Co132 O158 2.155 . S
Co132 O159 2.096 . S
C133 N136 1.301 . S
C133 N137 1.328 . S
C133 H138 0.930 . S
C134 C135 1.333 . S
C134 N136 1.317 . S
C134 H139 0.930 . S
C135 C134 1.333 . S
C135 N137 1.350 . S
C135 H161 0.931 . S
N136 Co132 2.148 . S
N136 C133 1.301 . S
N136 C134 1.317 . S
N137 C133 1.328 . S
N137 C135 1.350 . S
H138 C133 0.930 . S
H139 C134 0.930 . S
C140 O141 1.224 . S
C140 O159 1.247 . S
O141 C140 1.224 . S
N142 Co132 2.128 . S
N142 C143 1.355 . S
N142 C145 1.311 . S
C143 N142 1.355 . S
C143 C144 1.363 . S
C143 H155 0.929 . S
C144 C143 1.363 . S
C144 N146 1.375 . S
C144 H162 0.931 . S
C145 N142 1.311 . S
C145 N146 1.347 . S
C145 H156 0.929 . S
N146 C144 1.375 . S
N146 C145 1.347 . S
C147 C150 1.365 . S
C147 N152 1.328 . S
C147 H153 0.929 . S
C148 C149 1.362 . S
C148 C151 1.378 . S
C148 H163 0.929 . S
C149 C148 1.362 . S
C149 C150 1.366 . S
C150 C147 1.365 . S
C150 C149 1.366 . S
C150 H164 0.930 . S
C151 C148 1.378 . S
C151 N152 1.315 . S
C151 H154 0.930 . S
N152 Co132 2.194 . S
N152 C147 1.328 . S
N152 C151 1.315 . S
H153 C147 0.929 . S
H154 C151 0.930 . S
H155 C143 0.929 . S
H156 C145 0.929 . S
O157 Co132 2.351 . S
O157 C160 1.244 . S
O158 Co132 2.155 . S
O158 C160 1.240 . S
O159 Co132 2.096 . S
O159 C140 1.247 . S
C160 O157 1.244 . S
C160 O158 1.240 . S
H161 C135 0.931 . S
H162 C144 0.931 . S
H163 C148 0.929 . S
H164 C150 0.930 . S
Co165 N169 2.148 . S
Co165 N175 2.128 . S
Co165 N185 2.194 . S
Co165 O190 2.351 . S
Co165 O191 2.155 . S
Co165 O192 2.096 . S
C166 N169 1.301 . S
C166 N170 1.328 . S
C166 H171 0.930 . S
C167 C168 1.333 . S
C167 N169 1.317 . S
C167 H172 0.930 . S
C168 C167 1.333 . S
C168 N170 1.350 . S
C168 H194 0.931 . S
N169 Co165 2.148 . S
N169 C166 1.301 . S
N169 C167 1.317 . S
N170 C166 1.328 . S
N170 C168 1.350 . S
H171 C166 0.930 . S
H172 C167 0.930 . S
C173 O174 1.224 . S
C173 O192 1.247 . S
O174 C173 1.224 . S
N175 Co165 2.128 . S
N175 C176 1.355 . S
N175 C178 1.311 . S
C176 N175 1.355 . S
C176 C177 1.363 . S
C176 H188 0.929 . S
C177 C176 1.363 . S
C177 N179 1.375 . S
C177 H195 0.931 . S
C178 N175 1.311 . S
C178 N179 1.347 . S
C178 H189 0.929 . S
N179 C177 1.375 . S
N179 C178 1.347 . S
C180 C183 1.365 . S
C180 N185 1.328 . S
C180 H186 0.929 . S
C181 C182 1.362 . S
C181 C184 1.378 . S
C181 H196 0.929 . S
C182 C181 1.362 . S
C182 C183 1.366 . S
C183 C180 1.365 . S
C183 C182 1.366 . S
C183 H197 0.930 . S
C184 C181 1.378 . S
C184 N185 1.315 . S
C184 H187 0.930 . S
N185 Co165 2.194 . S
N185 C180 1.328 . S
N185 C184 1.315 . S
H186 C180 0.929 . S
H187 C184 0.930 . S
H188 C176 0.929 . S
H189 C178 0.929 . S
O190 Co165 2.351 . S
O190 C193 1.244 . S
O191 Co165 2.155 . S
O191 C193 1.240 . S
O192 Co165 2.096 . S
O192 C173 1.247 . S
C193 O190 1.244 . S
C193 O191 1.240 . S
H194 C168 0.931 . S
H195 C177 0.931 . S
H196 C181 0.929 . S
H197 C183 0.930 . S
Co198 N202 2.148 . S
Co198 N208 2.128 . S
Co198 N218 2.194 . S
Co198 O223 2.351 . S
Co198 O224 2.155 . S
Co198 O225 2.096 . S
C199 N202 1.301 . S
C199 N203 1.328 . S
C199 H204 0.930 . S
C200 C201 1.333 . S
C200 N202 1.317 . S
C200 H205 0.930 . S
C201 C200 1.333 . S
C201 N203 1.350 . S
C201 H227 0.931 . S
N202 Co198 2.148 . S
N202 C199 1.301 . S
N202 C200 1.317 . S
N203 C199 1.328 . S
N203 C201 1.350 . S
H204 C199 0.930 . S
H205 C200 0.930 . S
C206 O207 1.224 . S
C206 O225 1.247 . S
O207 C206 1.224 . S
N208 Co198 2.128 . S
N208 C209 1.355 . S
N208 C211 1.311 . S
C209 N208 1.355 . S
C209 C210 1.363 . S
C209 H221 0.929 . S
C210 C209 1.363 . S
C210 N212 1.375 . S
C210 H228 0.931 . S
C211 N208 1.311 . S
C211 N212 1.347 . S
C211 H222 0.929 . S
N212 C210 1.375 . S
N212 C211 1.347 . S
C213 C216 1.365 . S
C213 N218 1.328 . S
C213 H219 0.929 . S
C214 C215 1.362 . S
C214 C217 1.378 . S
C214 H229 0.929 . S
C215 C214 1.362 . S
C215 C216 1.366 . S
C216 C213 1.365 . S
C216 C215 1.366 . S
C216 H230 0.930 . S
C217 C214 1.378 . S
C217 N218 1.315 . S
C217 H220 0.930 . S
N218 Co198 2.194 . S
N218 C213 1.328 . S
N218 C217 1.315 . S
H219 C213 0.929 . S
H220 C217 0.930 . S
H221 C209 0.929 . S
H222 C211 0.929 . S
O223 Co198 2.351 . S
O223 C226 1.244 . S
O224 Co198 2.155 . S
O224 C226 1.240 . S
O225 Co198 2.096 . S
O225 C206 1.247 . S
C226 O223 1.244 . S
C226 O224 1.240 . S
H227 C201 0.931 . S
H228 C210 0.931 . S
H229 C214 0.929 . S
H230 C216 0.930 . S
Co231 N235 2.148 . S
Co231 N241 2.128 . S
Co231 N251 2.194 . S
Co231 O256 2.351 . S
Co231 O257 2.155 . S
Co231 O258 2.096 . S
C232 N235 1.301 . S
C232 N236 1.328 . S
C232 H237 0.930 . S
C233 C234 1.333 . S
C233 N235 1.317 . S
C233 H238 0.930 . S
C234 C233 1.333 . S
C234 N236 1.350 . S
C234 H260 0.931 . S
N235 Co231 2.148 . S
N235 C232 1.301 . S
N235 C233 1.317 . S
N236 C232 1.328 . S
N236 C234 1.350 . S
H237 C232 0.930 . S
H238 C233 0.930 . S
C239 O240 1.224 . S
C239 O258 1.247 . S
O240 C239 1.224 . S
N241 Co231 2.128 . S
N241 C242 1.355 . S
N241 C244 1.311 . S
C242 N241 1.355 . S
C242 C243 1.363 . S
C242 H254 0.929 . S
C243 C242 1.363 . S
C243 N245 1.375 . S
C243 H261 0.931 . S
C244 N241 1.311 . S
C244 N245 1.347 . S
C244 H255 0.929 . S
N245 C243 1.375 . S
N245 C244 1.347 . S
C246 C249 1.365 . S
C246 N251 1.328 . S
C246 H252 0.929 . S
C247 C248 1.362 . S
C247 C250 1.378 . S
C247 H262 0.929 . S
C248 C247 1.362 . S
C248 C249 1.366 . S
C249 C246 1.365 . S
C249 C248 1.366 . S
C249 H263 0.930 . S
C250 C247 1.378 . S
C250 N251 1.315 . S
C250 H253 0.930 . S
N251 Co231 2.194 . S
N251 C246 1.328 . S
N251 C250 1.315 . S
H252 C246 0.929 . S
H253 C250 0.930 . S
H254 C242 0.929 . S
H255 C244 0.929 . S
O256 Co231 2.351 . S
O256 C259 1.244 . S
O257 Co231 2.155 . S
O257 C259 1.240 . S
O258 Co231 2.096 . S
O258 C239 1.247 . S
C259 O256 1.244 . S
C259 O257 1.240 . S
H260 C234 0.931 . S
H261 C243 0.931 . S
H262 C247 0.929 . S
H263 C249 0.930 . S
H264 C272 0.929 . S
H265 C274 0.930 . S
H266 C276 0.930 . S
H267 C279 0.929 . S
H268 C282 0.930 . S
H269 C284 0.960 . S
H270 C284 0.960 . S
H271 C284 0.960 . S
C272 H264 0.929 . S
C272 C273 1.377 . S
C272 C274 1.384 . S
C273 C272 1.377 . S
C273 C279 1.390 . S
C274 H265 0.930 . S
C274 C272 1.384 . S
C274 C275 1.372 . S
C275 C274 1.372 . S
C275 C276 1.400 . S
C275 C280 1.490 . S
C276 H266 0.930 . S
C276 C275 1.400 . S
C276 C279 1.386 . S
H277 C293 0.930 . S
H278 C294 0.931 . S
C279 H267 0.929 . S
C279 C273 1.390 . S
C279 C276 1.386 . S
C280 C275 1.490 . S
C280 C282 1.395 . S
C280 C283 1.403 1_554 S
H281 C287 0.930 . S
C282 H268 0.930 . S
C282 C280 1.395 . S
C282 C285 1.403 . S
C283 C280 1.403 1_556 S
C283 C284 1.524 . S
C283 C287 1.400 . S
C284 H269 0.960 . S
C284 H270 0.960 . S
C284 H271 0.960 . S
C284 C283 1.524 . S
C285 C282 1.403 . S
C285 C286 1.392 1_554 S
C285 C289 1.495 . S
C286 C285 1.392 1_556 S
C286 C287 1.385 . S
C286 C288 1.478 . S
C287 H281 0.930 . S
C287 C283 1.400 . S
C287 C286 1.385 . S
C288 C286 1.478 . S
C288 C290 1.381 . S
C288 C294 1.383 . S
C289 C285 1.495 . S
C289 H295 0.959 . S
C289 H296 0.961 . S
C289 H297 0.960 . S
C290 C288 1.381 . S
C290 C291 1.394 . S
C290 H298 0.930 . S
C291 C290 1.394 . S
C291 C292 1.383 . S
C291 H299 0.929 . S
C292 C291 1.383 . S
C292 C293 1.377 . S
C293 H277 0.930 . S
C293 C292 1.377 . S
C293 C294 1.379 . S
C294 H278 0.931 . S
C294 C288 1.383 . S
C294 C293 1.379 . S
H295 C289 0.959 . S
H296 C289 0.961 . S
H297 C289 0.960 . S
H298 C290 0.930 . S
H299 C291 0.929 . S
H300 C308 0.929 . S
H301 C310 0.930 . S
H302 C312 0.930 . S
H303 C315 0.929 . S
H304 C318 0.930 . S
H305 C320 0.960 . S
H306 C320 0.960 . S
H307 C320 0.960 . S
C308 H300 0.929 . S
C308 C309 1.377 . S
C308 C310 1.384 . S
C309 C308 1.377 . S
C309 C315 1.390 . S
C310 H301 0.930 . S
C310 C308 1.384 . S
C310 C311 1.372 . S
C311 C310 1.372 . S
C311 C312 1.400 . S
C311 C316 1.490 . S
C312 H302 0.930 . S
C312 C311 1.400 . S
C312 C315 1.386 . S
H313 C329 0.930 . S
H314 C330 0.931 . S
C315 H303 0.929 . S
C315 C309 1.390 . S
C315 C312 1.386 . S
C316 C311 1.490 . S
C316 C318 1.395 . S
C316 C319 1.403 . S
H317 C323 0.930 . S
C318 H304 0.930 . S
C318 C316 1.395 . S
C318 C321 1.403 . S
C319 C316 1.403 . S
C319 C320 1.524 . S
C319 C323 1.400 . S
C320 H305 0.960 . S
C320 H306 0.960 . S
C320 H307 0.960 . S
C320 C319 1.524 . S
C321 C318 1.403 . S
C321 C322 1.392 . S
C321 C325 1.495 . S
C322 C321 1.392 . S
C322 C323 1.385 . S
C322 C324 1.478 . S
C323 H317 0.930 . S
C323 C319 1.400 . S
C323 C322 1.385 . S
C324 C322 1.478 . S
C324 C326 1.381 . S
C324 C330 1.383 . S
C325 C321 1.495 . S
C325 H331 0.959 . S
C325 H332 0.961 . S
C325 H333 0.960 . S
C326 C324 1.381 . S
C326 C327 1.394 . S
C326 H334 0.930 . S
C327 C326 1.394 . S
C327 C328 1.383 . S
C327 H335 0.929 . S
C328 C327 1.383 . S
C328 C329 1.377 . S
C329 H313 0.930 . S
C329 C328 1.377 . S
C329 C330 1.379 . S
C330 H314 0.931 . S
C330 C324 1.383 . S
C330 C329 1.379 . S
H331 C325 0.959 . S
H332 C325 0.961 . S
H333 C325 0.960 . S
H334 C326 0.930 . S
H335 C327 0.929 . S
H336 C344 0.929 . S
H337 C346 0.930 . S
H338 C348 0.930 . S
H339 C351 0.929 . S
H340 C354 0.930 . S
H341 C356 0.960 . S
H342 C356 0.960 . S
H343 C356 0.960 . S
C344 H336 0.929 . S
C344 C345 1.377 . S
C344 C346 1.384 . S
C345 C344 1.377 . S
C345 C351 1.390 . S
C346 H337 0.930 . S
C346 C344 1.384 . S
C346 C347 1.372 . S
C347 C346 1.372 . S
C347 C348 1.400 . S
C347 C352 1.490 . S
C348 H338 0.930 . S
C348 C347 1.400 . S
C348 C351 1.386 . S
H349 C365 0.930 . S
H350 C366 0.931 . S
C351 H339 0.929 . S
C351 C345 1.390 . S
C351 C348 1.386 . S
C352 C347 1.490 . S
C352 C354 1.395 . S
C352 C355 1.403 . S
H353 C359 0.930 . S
C354 H340 0.930 . S
C354 C352 1.395 . S
C354 C357 1.403 . S
C355 C352 1.403 . S
C355 C356 1.524 . S
C355 C359 1.400 . S
C356 H341 0.960 . S
C356 H342 0.960 . S
C356 H343 0.960 . S
C356 C355 1.524 . S
C357 C354 1.403 . S
C357 C358 1.392 . S
C357 C361 1.495 . S
C358 C357 1.392 . S
C358 C359 1.385 . S
C358 C360 1.478 . S
C359 H353 0.930 . S
C359 C355 1.400 . S
C359 C358 1.385 . S
C360 C358 1.478 . S
C360 C362 1.381 . S
C360 C366 1.383 . S
C361 C357 1.495 . S
C361 H367 0.959 . S
C361 H368 0.961 . S
C361 H369 0.960 . S
C362 C360 1.381 . S
C362 C363 1.394 . S
C362 H370 0.930 . S
C363 C362 1.394 . S
C363 C364 1.383 . S
C363 H371 0.929 . S
C364 C363 1.383 . S
C364 C365 1.377 . S
C365 H349 0.930 . S
C365 C364 1.377 . S
C365 C366 1.379 . S
C366 H350 0.931 . S
C366 C360 1.383 . S
C366 C365 1.379 . S
H367 C361 0.959 . S
H368 C361 0.961 . S
H369 C361 0.960 . S
H370 C362 0.930 . S
H371 C363 0.929 . S
H372 C380 0.929 . S
H373 C382 0.930 . S
H374 C384 0.930 . S
H375 C387 0.929 . S
H376 C390 0.930 . S
H377 C392 0.960 . S
H378 C392 0.960 . S
H379 C392 0.960 . S
C380 H372 0.929 . S
C380 C381 1.377 . S
C380 C382 1.384 . S
C381 C380 1.377 . S
C381 C387 1.390 . S
C382 H373 0.930 . S
C382 C380 1.384 . S
C382 C383 1.372 . S
C383 C382 1.372 . S
C383 C384 1.400 . S
C383 C388 1.490 . S
C384 H374 0.930 . S
C384 C383 1.400 . S
C384 C387 1.386 . S
H385 C401 0.930 . S
H386 C402 0.931 . S
C387 H375 0.929 . S
C387 C381 1.390 . S
C387 C384 1.386 . S
C388 C383 1.490 . S
C388 C390 1.395 . S
C388 C391 1.403 . S
H389 C395 0.930 . S
C390 H376 0.930 . S
C390 C388 1.395 . S
C390 C393 1.403 . S
C391 C388 1.403 . S
C391 C392 1.524 . S
C391 C395 1.400 . S
C392 H377 0.960 . S
C392 H378 0.960 . S
C392 H379 0.960 . S
C392 C391 1.524 . S
C393 C390 1.403 . S
C393 C394 1.392 . S
C393 C397 1.495 . S
C394 C393 1.392 . S
C394 C395 1.385 . S
C394 C396 1.478 . S
C395 H389 0.930 . S
C395 C391 1.400 . S
C395 C394 1.385 . S
C396 C394 1.478 . S
C396 C398 1.381 . S
C396 C402 1.383 . S
C397 C393 1.495 . S
C397 H403 0.959 . S
C397 H404 0.961 . S
C397 H405 0.960 . S
C398 C396 1.381 . S
C398 C399 1.394 . S
C398 H406 0.930 . S
C399 C398 1.394 . S
C399 C400 1.383 . S
C399 H407 0.929 . S
C400 C399 1.383 . S
C400 C401 1.377 . S
C401 H385 0.930 . S
C401 C400 1.377 . S
C401 C402 1.379 . S
C402 H386 0.931 . S
C402 C396 1.383 . S
C402 C401 1.379 . S
H403 C397 0.959 . S
H404 C397 0.961 . S
H405 C397 0.960 . S
H406 C398 0.930 . S
H407 C399 0.929 . S
H408 C416 0.929 . S
H409 C418 0.930 . S
H410 C420 0.930 . S
H411 C423 0.929 . S
H412 C426 0.930 . S
H413 C428 0.960 . S
H414 C428 0.960 . S
H415 C428 0.960 . S
C416 H408 0.929 . S
C416 C417 1.377 . S
C416 C418 1.384 . S
C417 C416 1.377 . S
C417 C423 1.390 . S
C418 H409 0.930 . S
C418 C416 1.384 . S
C418 C419 1.372 . S
C419 C418 1.372 . S
C419 C420 1.400 . S
C419 C424 1.490 . S
C420 H410 0.930 . S
C420 C419 1.400 . S
C420 C423 1.386 . S
H421 C437 0.930 . S
H422 C438 0.931 . S
C423 H411 0.929 . S
C423 C417 1.390 . S
C423 C420 1.386 . S
C424 C419 1.490 . S
C424 C426 1.395 . S
C424 C427 1.403 . S
H425 C431 0.930 . S
C426 H412 0.930 . S
C426 C424 1.395 . S
C426 C429 1.403 1_556 S
C427 C424 1.403 . S
C427 C428 1.524 . S
C427 C431 1.400 1_556 S
C428 H413 0.960 . S
C428 H414 0.960 . S
C428 H415 0.960 . S
C428 C427 1.524 . S
C429 C426 1.403 1_554 S
C429 C430 1.392 . S
C429 C433 1.495 . S
C430 C429 1.392 . S
C430 C431 1.385 . S
C430 C432 1.478 . S
C431 H425 0.930 . S
C431 C427 1.400 1_554 S
C431 C430 1.385 . S
C432 C430 1.478 . S
C432 C434 1.381 . S
C432 C438 1.383 . S
C433 C429 1.495 . S
C433 H439 0.959 . S
C433 H440 0.961 . S
C433 H441 0.960 . S
C434 C432 1.381 . S
C434 C435 1.394 . S
C434 H442 0.930 . S
C435 C434 1.394 . S
C435 C436 1.383 . S
C435 H443 0.929 . S
C436 C435 1.383 . S
C436 C437 1.377 . S
C437 H421 0.930 . S
C437 C436 1.377 . S
C437 C438 1.379 . S
C438 H422 0.931 . S
C438 C432 1.383 . S
C438 C437 1.379 . S
H439 C433 0.959 . S
H440 C433 0.961 . S
H441 C433 0.960 . S
H442 C434 0.930 . S
H443 C435 0.929 . S
H444 C452 0.929 . S
H445 C454 0.930 . S
H446 C456 0.930 1_565 S
H447 C459 0.929 . S
H448 C462 0.930 . S
H449 C464 0.960 . S
H450 C464 0.960 . S
H451 C464 0.960 1_565 S
C452 H444 0.929 . S
C452 C453 1.377 . S
C452 C454 1.384 . S
C453 C452 1.377 . S
C453 C459 1.390 1_545 S
C454 H445 0.930 . S
C454 C452 1.384 . S
C454 C455 1.372 . S
C455 C454 1.372 . S
C455 C456 1.400 . S
C455 C460 1.490 . S
C456 H446 0.930 1_545 S
C456 C455 1.400 . S
C456 C459 1.386 1_545 S
H457 C473 0.930 . S
H458 C474 0.931 . S
C459 H447 0.929 . S
C459 C453 1.390 1_565 S
C459 C456 1.386 1_565 S
C460 C455 1.490 . S
C460 C462 1.395 . S
C460 C463 1.403 . S
H461 C467 0.930 . S
C462 H448 0.930 . S
C462 C460 1.395 . S
C462 C465 1.403 . S
C463 C460 1.403 . S
C463 C464 1.524 . S
C463 C467 1.400 . S
C464 H449 0.960 . S
C464 H450 0.960 . S
C464 H451 0.960 1_545 S
C464 C463 1.524 . S
C465 C462 1.403 . S
C465 C466 1.392 . S
C465 C469 1.495 . S
C466 C465 1.392 . S
C466 C467 1.385 . S
C466 C468 1.478 . S
C467 H461 0.930 . S
C467 C463 1.400 . S
C467 C466 1.385 . S
C468 C466 1.478 . S
C468 C470 1.381 . S
C468 C474 1.383 . S
C469 C465 1.495 . S
C469 H475 0.959 . S
C469 H476 0.961 . S
C469 H477 0.960 . S
C470 C468 1.381 . S
C470 C471 1.394 . S
C470 H478 0.930 . S
C471 C470 1.394 . S
C471 C472 1.383 . S
C471 H479 0.929 . S
C472 C471 1.383 . S
C472 C473 1.377 . S
C473 H457 0.930 . S
C473 C472 1.377 . S
C473 C474 1.379 . S
C474 H458 0.931 . S
C474 C468 1.383 . S
C474 C473 1.379 . S
H475 C469 0.959 . S
H476 C469 0.961 . S
H477 C469 0.960 . S
H478 C470 0.930 . S
H479 C471 0.929 . S
H480 C488 0.929 . S
H481 C490 0.930 . S
H482 C492 0.930 . S
H483 C495 0.929 . S
H484 C498 0.930 . S
H485 C500 0.960 . S
H486 C500 0.960 . S
H487 C500 0.960 . S
C488 H480 0.929 . S
C488 C489 1.377 . S
C488 C490 1.384 . S
C489 C488 1.377 . S
C489 C495 1.390 . S
C490 H481 0.930 . S
C490 C488 1.384 . S
C490 C491 1.372 . S
C491 C490 1.372 . S
C491 C492 1.400 . S
C491 C496 1.490 . S
C492 H482 0.930 . S
C492 C491 1.400 . S
C492 C495 1.386 . S
H493 C509 0.930 . S
H494 C510 0.931 . S
C495 H483 0.929 . S
C495 C489 1.390 . S
C495 C492 1.386 . S
C496 C491 1.490 . S
C496 C498 1.395 . S
C496 C499 1.403 . S
H497 C503 0.930 . S
C498 H484 0.930 . S
C498 C496 1.395 . S
C498 C501 1.403 . S
C499 C496 1.403 . S
C499 C500 1.524 . S
C499 C503 1.400 . S
C500 H485 0.960 . S
C500 H486 0.960 . S
C500 H487 0.960 . S
C500 C499 1.524 . S
C501 C498 1.403 . S
C501 C502 1.392 . S
C501 C505 1.495 . S
C502 C501 1.392 . S
C502 C503 1.385 . S
C502 C504 1.478 . S
C503 H497 0.930 . S
C503 C499 1.400 . S
C503 C502 1.385 . S
C504 C502 1.478 . S
C504 C506 1.381 . S
C504 C510 1.383 . S
C505 C501 1.495 . S
C505 H511 0.959 . S
C505 H512 0.961 . S
C505 H513 0.960 . S
C506 C504 1.381 . S
C506 C507 1.394 . S
C506 H514 0.930 . S
C507 C506 1.394 . S
C507 C508 1.383 . S
C507 H515 0.929 . S
C508 C507 1.383 . S
C508 C509 1.377 . S
C509 H493 0.930 . S
C509 C508 1.377 . S
C509 C510 1.379 . S
C510 H494 0.931 . S
C510 C504 1.383 . S
C510 C509 1.379 . S
H511 C505 0.959 . S
H512 C505 0.961 . S
H513 C505 0.960 . S
H514 C506 0.930 . S
H515 C507 0.929 . S
H516 C524 0.929 . S
H517 C526 0.930 . S
H518 C528 0.930 . S
H519 C531 0.929 . S
H520 C534 0.930 . S
H521 C536 0.960 . S
H522 C536 0.960 . S
H523 C536 0.960 . S
C524 H516 0.929 . S
C524 C525 1.377 . S
C524 C526 1.384 . S
C525 C524 1.377 . S
C525 C531 1.390 . S
C526 H517 0.930 . S
C526 C524 1.384 . S
C526 C527 1.372 . S
C527 C526 1.372 . S
C527 C528 1.400 . S
C527 C532 1.490 . S
C528 H518 0.930 . S
C528 C527 1.400 . S
C528 C531 1.386 . S
H529 C545 0.930 . S
H530 C546 0.931 . S
C531 H519 0.929 . S
C531 C525 1.390 . S
C531 C528 1.386 . S
C532 C527 1.490 . S
C532 C534 1.395 . S
C532 C535 1.403 . S
H533 C539 0.930 . S
C534 H520 0.930 . S
C534 C532 1.395 . S
C534 C537 1.403 . S
C535 C532 1.403 . S
C535 C536 1.524 1_565 S
C535 C539 1.400 . S
C536 H521 0.960 . S
C536 H522 0.960 . S
C536 H523 0.960 . S
C536 C535 1.524 1_545 S
C537 C534 1.403 . S
C537 C538 1.392 . S
C537 C541 1.495 . S
C538 C537 1.392 . S
C538 C539 1.385 . S
C538 C540 1.478 . S
C539 H533 0.930 . S
C539 C535 1.400 . S
C539 C538 1.385 . S
C540 C538 1.478 . S
C540 C542 1.381 . S
C540 C546 1.383 . S
C541 C537 1.495 . S
C541 H547 0.959 . S
C541 H548 0.961 . S
C541 H549 0.960 . S
C542 C540 1.381 . S
C542 C543 1.394 . S
C542 H550 0.930 . S
C543 C542 1.394 . S
C543 C544 1.383 . S
C543 H551 0.929 . S
C544 C543 1.383 . S
C544 C545 1.377 . S
C545 H529 0.930 . S
C545 C544 1.377 . S
C545 C546 1.379 . S
C546 H530 0.931 . S
C546 C540 1.383 . S
C546 C545 1.379 . S
H547 C541 0.959 . S
H548 C541 0.961 . S
H549 C541 0.960 . S
H550 C542 0.930 . S
H551 C543 0.929 . S
H552 C560 0.929 . S
H553 C562 0.930 . S
H554 C564 0.930 . S
H555 C567 0.929 . S
H556 C570 0.930 . S
H557 C572 0.960 . S
H558 C572 0.960 . S
H559 C572 0.960 . S
C560 H552 0.929 . S
C560 C561 1.377 . S
C560 C562 1.384 . S
C561 C560 1.377 . S
C561 C567 1.390 . S
C562 H553 0.930 . S
C562 C560 1.384 . S
C562 C563 1.372 . S
C563 C562 1.372 . S
C563 C564 1.400 . S
C563 C568 1.490 . S
C564 H554 0.930 . S
C564 C563 1.400 . S
C564 C567 1.386 . S
H565 C581 0.930 . S
H566 C582 0.931 . S
C567 H555 0.929 . S
C567 C561 1.390 . S
C567 C564 1.386 . S
C568 C563 1.490 . S
C568 C570 1.395 . S
C568 C571 1.403 . S
H569 C575 0.930 . S
C570 H556 0.930 . S
C570 C568 1.395 . S
C570 C573 1.403 . S
C571 C568 1.403 . S
C571 C572 1.524 . S
C571 C575 1.400 . S
C572 H557 0.960 . S
C572 H558 0.960 . S
C572 H559 0.960 . S
C572 C571 1.524 . S
C573 C570 1.403 . S
C573 C574 1.392 . S
C573 C577 1.495 1_455 S
C574 C573 1.392 . S
C574 C575 1.385 . S
C574 C576 1.478 . S
C575 H569 0.930 . S
C575 C571 1.400 . S
C575 C574 1.385 . S
C576 C574 1.478 . S
C576 C578 1.381 . S
C576 C582 1.383 . S
C577 C573 1.495 1_655 S
C577 H583 0.959 . S
C577 H584 0.961 . S
C577 H585 0.960 . S
C578 C576 1.381 . S
C578 C579 1.394 . S
C578 H586 0.930 . S
C579 C578 1.394 . S
C579 C580 1.383 . S
C579 H587 0.929 . S
C580 C579 1.383 . S
C580 C581 1.377 . S
C581 H565 0.930 . S
C581 C580 1.377 . S
C581 C582 1.379 . S
C582 H566 0.931 . S
C582 C576 1.383 . S
C582 C581 1.379 . S
H583 C577 0.959 . S
H584 C577 0.961 . S
H585 C577 0.960 . S
H586 C578 0.930 . S
H587 C579 0.929 . S
H588 C596 0.929 . S
H589 C598 0.930 . S
H590 C600 0.930 . S
H591 C603 0.929 . S
H592 C606 0.920 1_556 S
H593 C608 0.960 . S
H594 C608 0.960 . S
H595 C608 0.960 . S
C596 H588 0.929 . S
C596 C597 1.377 . S
C596 C598 1.384 . S
C597 C596 1.377 . S
C597 C603 1.390 . S
C598 H589 0.930 . S
C598 C596 1.384 . S
C598 C599 1.372 . S
C599 C598 1.372 . S
C599 C600 1.400 . S
C599 C604 1.490 . S
C600 H590 0.930 . S
C600 C599 1.400 . S
C600 C603 1.386 . S
H601 C617 0.930 . S
H602 C618 0.931 . S
C603 H591 0.929 . S
C603 C597 1.390 . S
C603 C600 1.386 . S
C604 C599 1.490 . S
C604 C606 1.368 1_556 S
C604 C607 1.403 . S
H605 C611 0.930 . S
C606 H592 0.920 1_554 S
C606 C604 1.368 1_554 S
C606 C609 1.441 . S
C607 C604 1.403 . S
C607 C608 1.524 . S
C607 C611 1.400 1_556 S
C608 H593 0.960 . S
C608 H594 0.960 . S
C608 H595 0.960 . S
C608 C607 1.524 . S
C609 C606 1.441 . S
C609 C610 1.392 . S
C609 C613 1.495 . S
C610 C609 1.392 . S
C610 C611 1.385 . S
C610 C612 1.478 . S
C611 H605 0.930 . S
C611 C607 1.400 1_554 S
C611 C610 1.385 . S
C612 C610 1.478 . S
C612 C614 1.381 . S
C612 C618 1.383 . S
C613 C609 1.495 . S
C613 H619 0.959 . S
C613 H620 0.961 . S
C613 H621 0.960 . S
C614 C612 1.381 . S
C614 C615 1.394 . S
C614 H622 0.930 . S
C615 C614 1.394 . S
C615 C616 1.383 . S
C615 H623 0.929 . S
C616 C615 1.383 . S
C616 C617 1.377 . S
C617 H601 0.930 . S
C617 C616 1.377 . S
C617 C618 1.379 . S
C618 H602 0.931 . S
C618 C612 1.383 . S
C618 C617 1.379 . S
H619 C613 0.959 . S
H620 C613 0.961 . S
H621 C613 0.960 . S
H622 C614 0.930 . S
H623 C615 0.929 . S
H624 C632 0.929 . S
H625 C634 0.930 1_455 S
H626 C636 0.930 . S
H627 C639 0.929 . S
H628 C642 0.930 . S
H629 C644 0.960 . S
H630 C644 0.960 . S
H631 C644 0.960 . S
C632 H624 0.929 . S
C632 C633 1.377 1_455 S
C632 C634 1.384 1_455 S
C633 C632 1.377 1_655 S
C633 C639 1.390 . S
C634 H625 0.930 1_655 S
C634 C632 1.384 1_655 S
C634 C635 1.372 . S
C635 C634 1.372 . S
C635 C636 1.400 . S
C635 C640 1.490 . S
C636 H626 0.930 . S
C636 C635 1.400 . S
C636 C639 1.386 . S
H637 C653 0.930 . S
H638 C654 0.931 . S
C639 H627 0.929 . S
C639 C633 1.390 . S
C639 C636 1.386 . S
C640 C635 1.490 . S
C640 C642 1.395 . S
C640 C643 1.403 . S
H641 C647 0.930 . S
C642 H628 0.930 . S
C642 C640 1.395 . S
C642 C645 1.403 . S
C643 C640 1.403 . S
C643 C644 1.524 . S
C643 C647 1.400 . S
C644 H629 0.960 . S
C644 H630 0.960 . S
C644 H631 0.960 . S
C644 C643 1.524 . S
C645 C642 1.403 . S
C645 C646 1.392 . S
C645 C649 1.495 . S
C646 C645 1.392 . S
C646 C647 1.385 . S
C646 C648 1.478 . S
C647 H641 0.930 . S
C647 C643 1.400 . S
C647 C646 1.385 . S
C648 C646 1.478 . S
C648 C650 1.381 . S
C648 C654 1.383 . S
C649 C645 1.495 . S
C649 H655 0.959 . S
C649 H656 0.961 . S
C649 H657 0.960 . S
C650 C648 1.381 . S
C650 C651 1.394 . S
C650 H658 0.930 . S
C651 C650 1.394 . S
C651 C652 1.383 . S
C651 H659 0.929 . S
C652 C651 1.383 . S
C652 C653 1.377 . S
C653 H637 0.930 . S
C653 C652 1.377 . S
C653 C654 1.379 . S
C654 H638 0.931 . S
C654 C648 1.383 . S
C654 C653 1.379 . S
H655 C649 0.959 . S
H656 C649 0.961 . S
H657 C649 0.960 . S
H658 C650 0.930 . S
H659 C651 0.929 . S
H660 C668 0.929 . S
H661 C670 0.930 . S
H662 C672 0.930 . S
H663 C675 0.929 . S
H664 C678 0.930 . S
H665 C680 0.960 . S
H666 C680 0.960 . S
H667 C680 0.960 . S
C668 H660 0.929 . S
C668 C669 1.377 . S
C668 C670 1.384 . S
C669 C668 1.377 . S
C669 C675 1.390 . S
C670 H661 0.930 . S
C670 C668 1.384 . S
C670 C671 1.372 . S
C671 C670 1.372 . S
C671 C672 1.400 . S
C671 C676 1.490 . S
C672 H662 0.930 . S
C672 C671 1.400 . S
C672 C675 1.386 . S
H673 C689 0.930 . S
H674 C690 0.931 . S
C675 H663 0.929 . S
C675 C669 1.390 . S
C675 C672 1.386 . S
C676 C671 1.490 . S
C676 C678 1.395 . S
C676 C679 1.403 . S
H677 C683 0.930 . S
C678 H664 0.930 . S
C678 C676 1.395 . S
C678 C681 1.403 . S
C679 C676 1.403 . S
C679 C680 1.524 . S
C679 C683 1.400 . S
C680 H665 0.960 . S
C680 H666 0.960 . S
C680 H667 0.960 . S
C680 C679 1.524 . S
C681 C678 1.403 . S
C681 C682 1.392 . S
C681 C685 1.495 . S
C682 C681 1.392 . S
C682 C683 1.385 . S
C682 C684 1.478 . S
C683 H677 0.930 . S
C683 C679 1.400 . S
C683 C682 1.385 . S
C684 C682 1.478 . S
C684 C686 1.381 . S
C684 C690 1.383 . S
C685 C681 1.495 . S
C685 H691 0.959 . S
C685 H692 0.961 . S
C685 H693 0.960 . S
C686 C684 1.381 . S
C686 C687 1.394 . S
C686 H694 0.930 . S
C687 C686 1.394 . S
C687 C688 1.383 . S
C687 H695 0.929 . S
C688 C687 1.383 . S
C688 C689 1.377 . S
C689 H673 0.930 . S
C689 C688 1.377 . S
C689 C690 1.379 . S
C690 H674 0.931 . S
C690 C684 1.383 . S
C690 C689 1.379 . S
H691 C685 0.959 . S
H692 C685 0.961 . S
H693 C685 0.960 . S
H694 C686 0.930 . S
H695 C687 0.929 . S
H696 C704 0.929 . S
H697 C706 0.930 . S
H698 C708 0.930 . S
H699 C711 0.929 . S
H700 C714 0.930 . S
H701 C716 0.960 . S
H702 C716 0.960 . S
H703 C716 0.960 . S
C704 H696 0.929 . S
C704 C705 1.377 . S
C704 C706 1.384 . S
C705 C704 1.377 . S
C705 C711 1.390 . S
C706 H697 0.930 . S
C706 C704 1.384 . S
C706 C707 1.372 . S
C707 C706 1.372 . S
C707 C708 1.400 . S
C707 C712 1.490 . S
C708 H698 0.930 . S
C708 C707 1.400 . S
C708 C711 1.386 . S
H709 C725 0.930 . S
H710 C726 0.931 . S
C711 H699 0.929 . S
C711 C705 1.390 . S
C711 C708 1.386 . S
C712 C707 1.490 . S
C712 C714 1.395 . S
C712 C715 1.403 . S
H713 C719 0.930 . S
C714 H700 0.930 . S
C714 C712 1.395 . S
C714 C717 1.403 . S
C715 C712 1.403 . S
C715 C716 1.524 . S
C715 C719 1.400 . S
C716 H701 0.960 . S
C716 H702 0.960 . S
C716 H703 0.960 . S
C716 C715 1.524 . S
C717 C714 1.403 . S
C717 C718 1.392 . S
C717 C721 1.495 . S
C718 C717 1.392 . S
C718 C719 1.385 . S
C718 C720 1.478 . S
C719 H713 0.930 . S
C719 C715 1.400 . S
C719 C718 1.385 . S
C720 C718 1.478 . S
C720 C722 1.381 . S
C720 C726 1.383 1_565 S
C721 C717 1.495 . S
C721 H727 0.959 . S
C721 H728 0.961 . S
C721 H729 0.960 . S
C722 C720 1.381 . S
C722 C723 1.394 1_565 S
C722 H730 0.930 . S
C723 C722 1.394 1_545 S
C723 C724 1.383 . S
C723 H731 0.929 . S
C724 C723 1.383 . S
C724 C725 1.377 . S
C725 H709 0.930 . S
C725 C724 1.377 . S
C725 C726 1.379 . S
C726 H710 0.931 . S
C726 C720 1.383 1_545 S
C726 C725 1.379 . S
H727 C721 0.959 . S
H728 C721 0.961 . S
H729 C721 0.960 . S
H730 C722 0.930 . S
H731 C723 0.929 . S
H732 C740 0.929 . S
H733 C742 0.930 . S
H734 C744 0.930 . S
H735 C747 0.929 . S
H736 C750 0.930 . S
H737 C752 0.960 . S
H738 C752 0.960 . S
H739 C752 0.960 . S
C740 H732 0.929 . S
C740 C741 1.377 . S
C740 C742 1.384 . S
C741 C740 1.377 . S
C741 C747 1.390 . S
C742 H733 0.930 . S
C742 C740 1.384 . S
C742 C743 1.372 . S
C743 C742 1.372 . S
C743 C744 1.400 . S
C743 C748 1.490 . S
C744 H734 0.930 . S
C744 C743 1.400 . S
C744 C747 1.386 . S
H745 C761 0.930 . S
H746 C762 0.931 . S
C747 H735 0.929 . S
C747 C741 1.390 . S
C747 C744 1.386 . S
C748 C743 1.490 . S
C748 C750 1.395 . S
C748 C751 1.403 . S
H749 C755 0.930 . S
C750 H736 0.930 . S
C750 C748 1.395 . S
C750 C753 1.403 . S
C751 C748 1.403 . S
C751 C752 1.524 . S
C751 C755 1.400 . S
C752 H737 0.960 . S
C752 H738 0.960 . S
C752 H739 0.960 . S
C752 C751 1.524 . S
C753 C750 1.403 . S
C753 C754 1.392 . S
C753 C757 1.495 . S
C754 C753 1.392 . S
C754 C755 1.385 . S
C754 C756 1.478 . S
C755 H749 0.930 . S
C755 C751 1.400 . S
C755 C754 1.385 . S
C756 C754 1.478 . S
C756 C758 1.381 . S
C756 C762 1.383 . S
C757 C753 1.495 . S
C757 H763 0.959 . S
C757 H764 0.961 . S
C757 H765 0.960 . S
C758 C756 1.381 . S
C758 C759 1.394 . S
C758 H766 0.930 . S
C759 C758 1.394 . S
C759 C760 1.383 . S
C759 H767 0.929 . S
C760 C759 1.383 . S
C760 C761 1.377 . S
C761 H745 0.930 . S
C761 C760 1.377 . S
C761 C762 1.379 . S
C762 H746 0.931 . S
C762 C756 1.383 . S
C762 C761 1.379 . S
H763 C757 0.959 . S
H764 C757 0.961 . S
H765 C757 0.960 . S
H766 C758 0.930 . S
H767 C759 0.929 . S
H768 C776 0.929 . S
H769 C778 0.930 . S
H770 C780 0.930 . S
H771 C783 0.929 . S
H772 C786 0.930 . S
H773 C788 0.960 . S
H774 C788 0.960 . S
H775 C788 0.960 . S
C776 H768 0.929 . S
C776 C777 1.377 . S
C776 C778 1.384 1_565 S
C777 C776 1.377 . S
C777 C783 1.390 . S
C778 H769 0.930 . S
C778 C776 1.384 1_545 S
C778 C779 1.372 . S
C779 C778 1.372 . S
C779 C780 1.400 1_545 S
C779 C784 1.490 . S
C780 H770 0.930 . S
C780 C779 1.400 1_565 S
C780 C783 1.386 . S
H781 C797 0.930 . S
H782 C798 0.931 . S
C783 H771 0.929 . S
C783 C777 1.390 . S
C783 C780 1.386 . S
C784 C779 1.490 . S
C784 C786 1.395 . S
C784 C787 1.403 . S
H785 C791 0.930 . S
C786 H772 0.930 . S
C786 C784 1.395 . S
C786 C789 1.403 . S
C787 C784 1.403 . S
C787 C788 1.524 . S
C787 C791 1.400 . S
C788 H773 0.960 . S
C788 H774 0.960 . S
C788 H775 0.960 . S
C788 C787 1.524 . S
C789 C786 1.403 . S
C789 C790 1.392 . S
C789 C793 1.495 . S
C790 C789 1.392 . S
C790 C791 1.385 . S
C790 C792 1.478 . S
C791 H785 0.930 . S
C791 C787 1.400 . S
C791 C790 1.385 . S
C792 C790 1.478 . S
C792 C794 1.381 . S
C792 C798 1.383 . S
C793 C789 1.495 . S
C793 H799 0.959 . S
C793 H800 0.961 . S
C793 H801 0.960 . S
C794 C792 1.381 . S
C794 C795 1.394 . S
C794 H802 0.930 . S
C795 C794 1.394 . S
C795 C796 1.383 . S
C795 H803 0.929 . S
C796 C795 1.383 . S
C796 C797 1.377 . S
C797 H781 0.930 . S
C797 C796 1.377 . S
C797 C798 1.379 . S
C798 H782 0.931 . S
C798 C792 1.383 . S
C798 C797 1.379 . S
H799 C793 0.959 . S
H800 C793 0.961 . S
H801 C793 0.960 . S
H802 C794 0.930 . S
H803 C795 0.929 . S
H804 C812 0.929 . S
H805 C814 0.930 . S
H806 C816 0.930 . S
H807 C819 0.929 . S
H808 C822 0.930 . S
H809 C824 0.960 . S
H810 C824 0.960 . S
H811 C824 0.960 . S
C812 H804 0.929 . S
C812 C813 1.377 . S
C812 C814 1.384 . S
C813 C812 1.377 . S
C813 C819 1.390 . S
C814 H805 0.930 . S
C814 C812 1.384 . S
C814 C815 1.372 . S
C815 C814 1.372 . S
C815 C816 1.400 . S
C815 C820 1.490 . S
C816 H806 0.930 . S
C816 C815 1.400 . S
C816 C819 1.386 . S
H817 C833 0.930 . S
H818 C834 0.931 . S
C819 H807 0.929 . S
C819 C813 1.390 . S
C819 C816 1.386 . S
C820 C815 1.490 . S
C820 C822 1.395 . S
C820 C823 1.403 . S
H821 C827 0.930 . S
C822 H808 0.930 . S
C822 C820 1.395 . S
C822 C825 1.403 . S
C823 C820 1.403 . S
C823 C824 1.524 . S
C823 C827 1.400 . S
C824 H809 0.960 . S
C824 H810 0.960 . S
C824 H811 0.960 . S
C824 C823 1.524 . S
C825 C822 1.403 . S
C825 C826 1.392 . S
C825 C829 1.495 . S
C826 C825 1.392 . S
C826 C827 1.385 . S
C826 C828 1.478 . S
C827 H821 0.930 . S
C827 C823 1.400 . S
C827 C826 1.385 . S
C828 C826 1.478 . S
C828 C830 1.381 . S
C828 C834 1.383 . S
C829 C825 1.495 . S
C829 H835 0.959 . S
C829 H836 0.961 . S
C829 H837 0.960 . S
C830 C828 1.381 . S
C830 C831 1.394 . S
C830 H838 0.930 . S
C831 C830 1.394 . S
C831 C832 1.383 . S
C831 H839 0.929 . S
C832 C831 1.383 . S
C832 C833 1.377 . S
C833 H817 0.930 . S
C833 C832 1.377 . S
C833 C834 1.379 . S
C834 H818 0.931 . S
C834 C828 1.383 . S
C834 C833 1.379 . S
H835 C829 0.959 . S
H836 C829 0.961 . S
H837 C829 0.960 . S
H838 C830 0.930 . S
H839 C831 0.929 . S
H840 C848 0.929 . S
H841 C850 0.930 . S
H842 C852 0.930 . S
H843 C855 0.929 . S
H844 C858 0.930 . S
H845 C860 0.960 . S
H846 C860 0.960 . S
H847 C860 0.960 . S
C848 H840 0.929 . S
C848 C849 1.377 . S
C848 C850 1.384 . S
C849 C848 1.377 . S
C849 C855 1.390 . S
C850 H841 0.930 . S
C850 C848 1.384 . S
C850 C851 1.372 . S
C851 C850 1.372 . S
C851 C852 1.400 . S
C851 C856 1.490 . S
C852 H842 0.930 . S
C852 C851 1.400 . S
C852 C855 1.386 . S
H853 C869 0.930 . S
H854 C870 0.931 . S
C855 H843 0.929 . S
C855 C849 1.390 . S
C855 C852 1.386 . S
C856 C851 1.490 . S
C856 C858 1.395 . S
C856 C859 1.403 . S
H857 C863 0.930 . S
C858 H844 0.930 . S
C858 C856 1.395 . S
C858 C861 1.403 . S
C859 C856 1.403 . S
C859 C860 1.524 . S
C859 C863 1.400 . S
C860 H845 0.960 . S
C860 H846 0.960 . S
C860 H847 0.960 . S
C860 C859 1.524 . S
C861 C858 1.403 . S
C861 C862 1.392 . S
C861 C865 1.495 . S
C862 C861 1.392 . S
C862 C863 1.385 . S
C862 C864 1.478 . S
C863 H857 0.930 . S
C863 C859 1.400 . S
C863 C862 1.385 . S
C864 C862 1.478 . S
C864 C866 1.381 . S
C864 C870 1.383 . S
C865 C861 1.495 . S
C865 H871 0.959 . S
C865 H872 0.961 . S
C865 H873 0.960 . S
C866 C864 1.381 . S
C866 C867 1.394 . S
C866 H874 0.930 . S
C867 C866 1.394 . S
C867 C868 1.383 . S
C867 H875 0.929 . S
C868 C867 1.383 . S
C868 C869 1.377 . S
C869 H853 0.930 . S
C869 C868 1.377 . S
C869 C870 1.379 . S
C870 H854 0.931 . S
C870 C864 1.383 . S
C870 C869 1.379 . S
H871 C865 0.959 . S
H872 C865 0.961 . S
H873 C865 0.960 . S
H874 C866 0.930 . S
H875 C867 0.929 . S
H876 C884 0.929 . S
H877 C886 0.930 . S
H878 C888 0.930 . S
H879 C891 0.929 . S
H880 C894 0.930 . S
H881 C896 0.960 . S
H882 C896 0.960 . S
H883 C896 0.960 . S
C884 H876 0.929 . S
C884 C885 1.377 . S
C884 C886 1.384 . S
C885 C884 1.377 . S
C885 C891 1.390 . S
C886 H877 0.930 . S
C886 C884 1.384 . S
C886 C887 1.372 . S
C887 C886 1.372 . S
C887 C888 1.400 . S
C887 C892 1.490 . S
C888 H878 0.930 . S
C888 C887 1.400 . S
C888 C891 1.386 . S
H889 C905 0.930 . S
H890 C906 0.931 . S
C891 H879 0.929 . S
C891 C885 1.390 . S
C891 C888 1.386 . S
C892 C887 1.490 . S
C892 C894 1.395 . S
C892 C895 1.403 . S
H893 C899 0.930 . S
C894 H880 0.930 . S
C894 C892 1.395 . S
C894 C897 1.403 . S
C895 C892 1.403 . S
C895 C896 1.524 . S
C895 C899 1.400 . S
C896 H881 0.960 . S
C896 H882 0.960 . S
C896 H883 0.960 . S
C896 C895 1.524 . S
C897 C894 1.403 . S
C897 C898 1.392 . S
C897 C901 1.495 . S
C898 C897 1.392 . S
C898 C899 1.385 . S
C898 C900 1.478 . S
C899 H893 0.930 . S
C899 C895 1.400 . S
C899 C898 1.385 . S
C900 C898 1.478 . S
C900 C902 1.381 1_655 S
C900 C906 1.383 . S
C901 C897 1.495 . S
C901 H907 0.959 . S
C901 H908 0.961 . S
C901 H909 0.960 . S
C902 C900 1.381 1_455 S
C902 C903 1.394 . S
C902 H910 0.930 . S
C903 C902 1.394 . S
C903 C904 1.383 . S
C903 H911 0.929 . S
C904 C903 1.383 . S
C904 C905 1.377 . S
C905 H889 0.930 . S
C905 C904 1.377 . S
C905 C906 1.379 1_455 S
C906 H890 0.931 . S
C906 C900 1.383 . S
C906 C905 1.379 1_655 S
H907 C901 0.959 . S
H908 C901 0.961 . S
H909 C901 0.960 . S
H910 C902 0.930 . S
H911 C903 0.929 . S
H912 C920 0.929 . S
H913 C922 0.930 . S
H914 C924 0.930 . S
H915 C927 0.929 . S
H916 C930 0.930 . S
H917 C932 0.960 . S
H918 C932 0.960 . S
H919 C932 0.960 . S
C920 H912 0.929 . S
C920 C921 1.377 . S
C920 C922 1.384 . S
C921 C920 1.377 . S
C921 C927 1.390 . S
C922 H913 0.930 . S
C922 C920 1.384 . S
C922 C923 1.372 . S
C923 C922 1.372 . S
C923 C924 1.400 . S
C923 C928 1.490 . S
C924 H914 0.930 . S
C924 C923 1.400 . S
C924 C927 1.386 . S
H925 C941 0.930 . S
H926 C942 0.931 . S
C927 H915 0.929 . S
C927 C921 1.390 . S
C927 C924 1.386 . S
C928 C923 1.490 . S
C928 C930 1.395 . S
C928 C931 1.403 . S
H929 C935 0.930 . S
C930 H916 0.930 . S
C930 C928 1.395 . S
C930 C933 1.403 . S
C931 C928 1.403 . S
C931 C932 1.524 . S
C931 C935 1.400 . S
C932 H917 0.960 . S
C932 H918 0.960 . S
C932 H919 0.960 . S
C932 C931 1.524 . S
C933 C930 1.403 . S
C933 C934 1.392 . S
C933 C937 1.495 . S
C934 C933 1.392 . S
C934 C935 1.385 . S
C934 C936 1.478 . S
C935 H929 0.930 . S
C935 C931 1.400 . S
C935 C934 1.385 . S
C936 C934 1.478 . S
C936 C938 1.381 . S
C936 C942 1.383 . S
C937 C933 1.495 . S
C937 H943 0.959 . S
C937 H944 0.961 . S
C937 H945 0.960 . S
C938 C936 1.381 . S
C938 C939 1.394 . S
C938 H946 0.930 . S
C939 C938 1.394 . S
C939 C940 1.383 . S
C939 H947 0.929 . S
C940 C939 1.383 . S
C940 C941 1.377 . S
C941 H925 0.930 . S
C941 C940 1.377 . S
C941 C942 1.379 . S
C942 H926 0.931 . S
C942 C936 1.383 . S
C942 C941 1.379 . S
H943 C937 0.959 . S
H944 C937 0.961 . S
H945 C937 0.960 . S
H946 C938 0.930 . S
H947 C939 0.929 . S
H948 C956 0.929 . S
H949 C958 0.930 . S
H950 C960 0.930 . S
H951 C963 0.929 . S
H952 C966 0.930 . S
H953 C968 0.960 . S
H954 C968 0.960 . S
H955 C968 0.960 . S
C956 H948 0.929 . S
C956 C957 1.377 . S
C956 C958 1.384 . S
C957 C956 1.377 . S
C957 C963 1.390 . S
C958 H949 0.930 . S
C958 C956 1.384 . S
C958 C959 1.372 . S
C959 C958 1.372 . S
C959 C960 1.400 . S
C959 C964 1.490 . S
C960 H950 0.930 . S
C960 C959 1.400 . S
C960 C963 1.386 . S
H961 C977 0.930 . S
H962 C978 0.931 . S
C963 H951 0.929 . S
C963 C957 1.390 . S
C963 C960 1.386 . S
C964 C959 1.490 . S
C964 C966 1.395 . S
C964 C967 1.403 . S
H965 C971 0.930 . S
C966 H952 0.930 . S
C966 C964 1.395 . S
C966 C969 1.403 . S
C967 C964 1.403 . S
C967 C968 1.524 . S
C967 C971 1.400 . S
C968 H953 0.960 . S
C968 H954 0.960 . S
C968 H955 0.960 . S
C968 C967 1.524 . S
C969 C966 1.403 . S
C969 C970 1.392 . S
C969 C973 1.495 . S
C970 C969 1.392 . S
C970 C971 1.385 . S
C970 C972 1.478 . S
C971 H965 0.930 . S
C971 C967 1.400 . S
C971 C970 1.385 . S
C972 C970 1.478 . S
C972 C974 1.381 . S
C972 C978 1.383 1_455 S
C973 C969 1.495 . S
C973 H979 0.959 . S
C973 H980 0.961 . S
C973 H981 0.960 . S
C974 C972 1.381 . S
C974 C975 1.394 1_455 S
C974 H982 0.930 . S
C975 C974 1.394 1_655 S
C975 C976 1.383 . S
C975 H983 0.929 . S
C976 C975 1.383 . S
C976 C977 1.377 . S
C977 H961 0.930 . S
C977 C976 1.377 . S
C977 C978 1.379 . S
C978 H962 0.931 . S
C978 C972 1.383 1_655 S
C978 C977 1.379 . S
H979 C973 0.959 . S
H980 C973 0.961 . S
H981 C973 0.960 . S
H982 C974 0.930 . S
H983 C975 0.929 . S
C273 N5 0.290 . S
C292 N170 0.334 . S
C309 N203 0.325 . S
C328 N38 0.258 . S
C345 N236 0.290 . S
C364 N71 0.343 . S
C381 N137 0.289 . S
C400 N104 0.356 . S
C417 N113 1.151 . S
C436 C17 1.070 . S
C453 C50 1.095 1_545 S
C472 N14 1.146 . S
C489 N47 1.144 . S
C508 C83 1.037 . S
C525 C116 1.084 1_565 S
C544 N80 1.119 . S
C561 N179 1.145 . S
C580 C149 1.036 1_455 S
C597 C182 1.094 . S
C616 N212 1.173 . S
C633 C215 1.082 1_655 S
C652 N245 1.135 . S
C669 C248 1.083 . S
C688 N146 1.139 . S
C705 C226 1.955 . S
C724 C8 1.970 . S
C741 C259 1.955 . S
C760 C41 1.970 . S
C777 C74 1.978 . S
C796 C160 1.942 . S
C813 C107 1.978 . S
C832 C193 1.942 . S
C849 C140 1.979 . S
C868 C94 1.955 . S
C885 C127 1.959 . S
C904 C173 1.977 . S
C921 C206 1.981 . S
C940 C28 1.961 . S
C957 C61 1.954 . S
C976 C239 1.971 . S
