# Generated by pormake.
# Topology fnl, (5)-cn, num edge types: 1
# Building blocks:
#     Node 0, Type 0, BuildingBlock: BEQFEK_clean_sbu_0, # of connection points: 5
#     Node 1, Type 0, BuildingBlock: BEQFEK_clean_sbu_0, # of connection points: 5
#     Node 2, Type 0, BuildingBlock: BEQFEK_clean_sbu_0, # of connection points: 5
#     Node 3, Type 0, BuildingBlock: BEQFEK_clean_sbu_0, # of connection points: 5
#     Node 4, Type 0, BuildingBlock: BEQFEK_clean_sbu_0, # of connection points: 5
#     Node 5, Type 0, BuildingBlock: BEQFEK_clean_sbu_0, # of connection points: 5
#     Node 6, Type 0, BuildingBlock: BEQFEK_clean_sbu_0, # of connection points: 5
#     Node 7, Type 0, BuildingBlock: BEQFEK_clean_sbu_0, # of connection points: 5
#     Node 8, Type 0, BuildingBlock: BEQFEK_clean_sbu_0, # of connection points: 5
#     Node 9, Type 0, BuildingBlock: BEQFEK_clean_sbu_0, # of connection points: 5
#     Node 10, Type 0, BuildingBlock: BEQFEK_clean_sbu_0, # of connection points: 5
#     Node 11, Type 0, BuildingBlock: BEQFEK_clean_sbu_0, # of connection points: 5
#     Node 12, Type 0, BuildingBlock: BEQFEK_clean_sbu_0, # of connection points: 5
#     Node 13, Type 0, BuildingBlock: BEQFEK_clean_sbu_0, # of connection points: 5
#     Node 14, Type 0, BuildingBlock: BEQFEK_clean_sbu_0, # of connection points: 5
#     Node 15, Type 0, BuildingBlock: BEQFEK_clean_sbu_0, # of connection points: 5
#     Edge 16, Type (0, 0), BuildingBlock: XUDNAN_clean_linker_2, # of connection points: 2
#     Edge 17, Type (0, 0), BuildingBlock: XUDNAN_clean_linker_2, # of connection points: 2
#     Edge 18, Type (0, 0), BuildingBlock: XUDNAN_clean_linker_2, # of connection points: 2
#     Edge 19, Type (0, 0), BuildingBlock: XUDNAN_clean_linker_2, # of connection points: 2
#     Edge 20, Type (0, 0), BuildingBlock: XUDNAN_clean_linker_2, # of connection points: 2
#     Edge 21, Type (0, 0), BuildingBlock: XUDNAN_clean_linker_2, # of connection points: 2
#     Edge 22, Type (0, 0), BuildingBlock: XUDNAN_clean_linker_2, # of connection points: 2
#     Edge 23, Type (0, 0), BuildingBlock: XUDNAN_clean_linker_2, # of connection points: 2
#     Edge 24, Type (0, 0), BuildingBlock: XUDNAN_clean_linker_2, # of connection points: 2
#     Edge 25, Type (0, 0), BuildingBlock: XUDNAN_clean_linker_2, # of connection points: 2
#     Edge 26, Type (0, 0), BuildingBlock: XUDNAN_clean_linker_2, # of connection points: 2
#     Edge 27, Type (0, 0), BuildingBlock: XUDNAN_clean_linker_2, # of connection points: 2
#     Edge 28, Type (0, 0), BuildingBlock: XUDNAN_clean_linker_2, # of connection points: 2
#     Edge 29, Type (0, 0), BuildingBlock: XUDNAN_clean_linker_2, # of connection points: 2
#     Edge 30, Type (0, 0), BuildingBlock: XUDNAN_clean_linker_2, # of connection points: 2
#     Edge 31, Type (0, 0), BuildingBlock: XUDNAN_clean_linker_2, # of connection points: 2
#     Edge 32, Type (0, 0), BuildingBlock: XUDNAN_clean_linker_2, # of connection points: 2
#     Edge 33, Type (0, 0), BuildingBlock: XUDNAN_clean_linker_2, # of connection points: 2
#     Edge 34, Type (0, 0), BuildingBlock: XUDNAN_clean_linker_2, # of connection points: 2
#     Edge 35, Type (0, 0), BuildingBlock: XUDNAN_clean_linker_2, # of connection points: 2
#     Edge 36, Type (0, 0), BuildingBlock: XUDNAN_clean_linker_2, # of connection points: 2
#     Edge 37, Type (0, 0), BuildingBlock: XUDNAN_clean_linker_2, # of connection points: 2
#     Edge 38, Type (0, 0), BuildingBlock: XUDNAN_clean_linker_2, # of connection points: 2
#     Edge 39, Type (0, 0), BuildingBlock: XUDNAN_clean_linker_2, # of connection points: 2
#     Edge 40, Type (0, 0), BuildingBlock: XUDNAN_clean_linker_2, # of connection points: 2
#     Edge 41, Type (0, 0), BuildingBlock: XUDNAN_clean_linker_2, # of connection points: 2
#     Edge 42, Type (0, 0), BuildingBlock: XUDNAN_clean_linker_2, # of connection points: 2
#     Edge 43, Type (0, 0), BuildingBlock: XUDNAN_clean_linker_2, # of connection points: 2
#     Edge 44, Type (0, 0), BuildingBlock: XUDNAN_clean_linker_2, # of connection points: 2
#     Edge 45, Type (0, 0), BuildingBlock: XUDNAN_clean_linker_2, # of connection points: 2
#     Edge 46, Type (0, 0), BuildingBlock: XUDNAN_clean_linker_2, # of connection points: 2
#     Edge 47, Type (0, 0), BuildingBlock: XUDNAN_clean_linker_2, # of connection points: 2
#     Edge 48, Type (0, 0), BuildingBlock: XUDNAN_clean_linker_2, # of connection points: 2
#     Edge 49, Type (0, 0), BuildingBlock: XUDNAN_clean_linker_2, # of connection points: 2
#     Edge 50, Type (0, 0), BuildingBlock: XUDNAN_clean_linker_2, # of connection points: 2
#     Edge 51, Type (0, 0), BuildingBlock: XUDNAN_clean_linker_2, # of connection points: 2
#     Edge 52, Type (0, 0), BuildingBlock: XUDNAN_clean_linker_2, # of connection points: 2
#     Edge 53, Type (0, 0), BuildingBlock: XUDNAN_clean_linker_2, # of connection points: 2
#     Edge 54, Type (0, 0), BuildingBlock: XUDNAN_clean_linker_2, # of connection points: 2
#     Edge 55, Type (0, 0), BuildingBlock: XUDNAN_clean_linker_2, # of connection points: 2
# Relax obj value: 0.390
# Max RMSD: 0.231
# Mean RMSD: 0.231
data_MOF--net-fnl--node1-BEQFEK_clean_sbu_0--edge1-XUDNAN_clean_linker_2
_symmetry_space_group_name_H-M    P1
_symmetry_Int_Tables_number       1
_symmetry_cell_setting            triclinic
loop_
_symmetry_equiv_pos_as_xyz
'x, y, z'
_cell_length_a     35.746854
_cell_length_b     35.781432
_cell_length_c     101.61031
_cell_angle_alpha  90.042516
_cell_angle_beta   90.082446
_cell_angle_gamma 90.063486
loop_
_atom_site_label
_atom_site_type_symbol
_atom_site_fract_x
_atom_site_fract_y
_atom_site_fract_z
_atom_type_partial_charge
Co0 Co 0.00511 0.09107 0.07566 0.0
Co1 Co 0.01326 0.16964 0.08763 0.0
C2 C 0.95094 0.1202 0.09616 0.0
O3 O 0.96349 0.095 0.08852 0.0
O4 O 0.96679 0.1521 0.09682 0.0
C5 C 0.96375 0.04153 0.05963 0.0
O6 O 0.93626 0.06532 0.06142 0.0
C7 C 0.00376 0.25031 0.09192 0.0
C8 C 0.05988 0.26572 0.09931 0.0
C9 C 0.02553 0.28036 0.09582 0.0
N10 N 0.02451 0.21921 0.09291 0.0
N11 N 0.05779 0.22854 0.09757 0.0
C12 C 0.96377 0.25097 0.08758 0.0
H13 H 0.95582 0.22392 0.083 0.0
H14 H 0.95878 0.2743 0.08061 0.0
H15 H 0.94577 0.25583 0.0963 0.0
C16 C 0.0101 0.13248 0.0508 0.0
N17 N 0.00833 0.13171 0.06402 0.0
N18 N 0.00982 0.16602 0.06867 0.0
C19 C 0.01111 0.18984 0.05829 0.0
C20 C 0.01122 0.16913 0.04672 0.0
C21 C 0.01184 0.0988 0.04204 0.0
H22 H 0.98304 0.08905 0.03989 0.0
H23 H 0.02534 0.10534 0.03251 0.0
H24 H 0.02806 0.07623 0.04683 0.0
O25 O 0.05348 0.0846 0.08443 0.0
O26 O 0.05719 0.14013 0.09407 0.0
H27 H 0.02439 0.24337 0.04976 0.0
H28 H 0.98617 0.24325 0.0612 0.0
C29 C 0.01417 0.2314 0.05917 0.0
H30 H 0.03359 0.23933 0.0672 0.0
H31 H 0.07962 0.20968 0.09912 0.0
O32 O 0.99493 0.0467 0.06535 0.0
C33 C 0.07049 0.10778 0.09179 0.0
Co34 Co 0.32232 0.87021 0.32795 0.0
Co35 Co 0.24662 0.8967 0.33988 0.0
C36 C 0.28173 0.82536 0.34856 0.0
O37 O 0.30847 0.83129 0.34062 0.0
O38 O 0.25438 0.8481 0.34961 0.0
C39 C 0.37918 0.81972 0.31856 0.0
O40 O 0.35897 0.79285 0.32376 0.0
C41 C 0.16526 0.90574 0.34543 0.0
C42 C 0.16373 0.96629 0.34979 0.0
C43 C 0.14138 0.93483 0.34885 0.0
N44 N 0.20012 0.91965 0.34432 0.0
N45 N 0.19888 0.95581 0.34696 0.0
C46 C 0.1556 0.86528 0.34388 0.0
H47 H 0.1809 0.84767 0.345 0.0
H48 H 0.14386 0.86043 0.33391 0.0
H49 H 0.13411 0.85701 0.3512 0.0
C50 C 0.28364 0.88249 0.30314 0.0
N51 N 0.28352 0.88066 0.31633 0.0
N52 N 0.25125 0.89235 0.32095 0.0
C53 C 0.22953 0.90226 0.3106 0.0
C54 C 0.24929 0.89595 0.29896 0.0
C55 C 0.318 0.87639 0.29497 0.0
H56 H 0.34178 0.89198 0.29936 0.0
H57 H 0.32518 0.84623 0.29505 0.0
H58 H 0.31441 0.88581 0.28466 0.0
O59 O 0.338 0.91602 0.33745 0.0
O60 O 0.28465 0.93208 0.34702 0.0
H61 H 0.1931 0.94545 0.31741 0.0
H62 H 0.17824 0.92384 0.30212 0.0
C63 C 0.1913 0.91879 0.31186 0.0
H64 H 0.17329 0.89944 0.31752 0.0
H65 H 0.22211 0.97349 0.34677 0.0
O66 O 0.36669 0.85293 0.31857 0.0
C67 C 0.3194 0.93712 0.34508 0.0
Co68 Co 0.56137 0.24191 0.58609 0.0
Co69 Co 0.53308 0.16024 0.58742 0.0
C70 C 0.60538 0.18372 0.60013 0.0
O71 O 0.60083 0.21594 0.59524 0.0
O72 O 0.58089 0.15801 0.59852 0.0
C73 C 0.58426 0.30867 0.59523 0.0
O74 O 0.59335 0.28684 0.60512 0.0
C75 C 0.5228 0.07777 0.58797 0.0
C76 C 0.46327 0.07453 0.58206 0.0
C77 C 0.49327 0.05302 0.5861 0.0
N78 N 0.51057 0.1124 0.58515 0.0
N79 N 0.47513 0.11012 0.58151 0.0
C80 C 0.5605 0.06964 0.59368 0.0
H81 H 0.58238 0.08265 0.58743 0.0
H82 H 0.56567 0.03921 0.59457 0.0
H83 H 0.56246 0.0826 0.60358 0.0
C84 C 0.55078 0.23148 0.55776 0.0
N85 N 0.55043 0.21866 0.57018 0.0
N86 N 0.53994 0.18343 0.57034 0.0
C87 C 0.53365 0.17251 0.55778 0.0
C88 C 0.54034 0.20266 0.54938 0.0
C89 C 0.55826 0.27144 0.55425 0.0
H90 H 0.58883 0.27671 0.55473 0.0
H91 H 0.5479 0.27831 0.54425 0.0
H92 H 0.54444 0.29012 0.56147 0.0
O93 O 0.51644 0.24573 0.59718 0.0
O94 O 0.49425 0.18815 0.59772 0.0
H95 H 0.52983 0.12809 0.54343 0.0
H96 H 0.53615 0.11301 0.5603 0.0
C97 C 0.52235 0.13382 0.55384 0.0
H98 H 0.49162 0.13089 0.55494 0.0
H99 H 0.45865 0.13316 0.57907 0.0
O100 O 0.57693 0.29368 0.58418 0.0
C101 C 0.49188 0.22244 0.60093 0.0
Co102 Co 0.17442 0.45865 0.83578 0.0
Co103 Co 0.25904 0.43875 0.83836 0.0
C104 C 0.22521 0.51041 0.84941 0.0
O105 O 0.19372 0.50263 0.84438 0.0
O106 O 0.25287 0.48782 0.84869 0.0
C107 C 0.10376 0.46744 0.8443 0.0
O108 O 0.12361 0.47548 0.85483 0.0
C109 C 0.34199 0.44769 0.83523 0.0
C110 C 0.3598 0.38867 0.83623 0.0
C111 C 0.37348 0.42467 0.83481 0.0
N112 N 0.31133 0.42608 0.83673 0.0
N113 N 0.32235 0.39087 0.8373 0.0
C114 C 0.34108 0.48948 0.83476 0.0
H115 H 0.31518 0.50039 0.83926 0.0
H116 H 0.34169 0.49874 0.82434 0.0
H117 H 0.36574 0.50143 0.83992 0.0
C118 C 0.18876 0.44924 0.8078 0.0
N119 N 0.20043 0.44951 0.82034 0.0
N120 N 0.23646 0.44213 0.82094 0.0
C121 C 0.24904 0.43735 0.80849 0.0
C122 C 0.21914 0.44197 0.79974 0.0
C123 C 0.1486 0.45352 0.80384 0.0
H124 H 0.13069 0.4365 0.81043 0.0
H125 H 0.14027 0.48322 0.80498 0.0
H126 H 0.14363 0.44449 0.79355 0.0
O127 O 0.17681 0.41484 0.84697 0.0
O128 O 0.23527 0.39567 0.84847 0.0
H129 H 0.29742 0.40241 0.80909 0.0
H130 H 0.2938 0.43048 0.7943 0.0
C131 C 0.28905 0.43001 0.80508 0.0
H132 H 0.30696 0.45153 0.80977 0.0
H133 H 0.30424 0.36823 0.83848 0.0
O134 O 0.12057 0.46438 0.83334 0.0
C135 C 0.20065 0.39147 0.85111 0.0
Co136 Co 0.99106 0.23826 0.91995 0.0
Co137 Co 0.99502 0.15538 0.91104 0.0
C138 C 0.9264 0.20359 0.90609 0.0
O139 O 0.94112 0.23071 0.91237 0.0
O140 O 0.94407 0.17277 0.90445 0.0
C141 C 0.97733 0.30867 0.9348 0.0
O142 O 0.94417 0.29777 0.93883 0.0
C143 C 0.97733 0.07457 0.90698 0.0
C144 C 0.03402 0.05052 0.90888 0.0
C145 C 0.99692 0.04094 0.90689 0.0
N146 N 0.00192 0.1026 0.90892 0.0
N147 N 0.03571 0.08793 0.90998 0.0
C148 C 0.93589 0.0799 0.90626 0.0
H149 H 0.92742 0.10391 0.91249 0.0
H150 H 0.92087 0.05435 0.90949 0.0
H151 H 0.92791 0.0862 0.89594 0.0
C152 C 0.00748 0.20523 0.9458 0.0
N153 N 0.00264 0.20227 0.93272 0.0
N154 N 0.00045 0.16679 0.92945 0.0
C155 C 0.00156 0.14614 0.9406 0.0
C156 C 0.00649 0.17 0.95129 0.0
C157 C 0.01024 0.24126 0.95324 0.0
H158 H 0.02801 0.26132 0.94778 0.0
H159 H 0.98183 0.25303 0.95452 0.0
H160 H 0.02254 0.23692 0.96315 0.0
O161 O 0.02766 0.23857 0.90602 0.0
O162 O 0.03651 0.17971 0.90017 0.0
H163 H 0.01967 0.09027 0.93705 0.0
H164 H 0.99045 0.09529 0.9514 0.0
C165 C 0.99497 0.10491 0.94114 0.0
H166 H 0.97035 0.09756 0.935 0.0
H167 H 0.05993 0.10351 0.91168 0.0
O168 O 0.99669 0.28786 0.92738 0.0
C169 C 0.04442 0.21436 0.89913 0.0
Co170 Co 0.17712 0.93775 0.16874 0.0
Co171 Co 0.2602 0.91683 0.16366 0.0
C172 C 0.19919 0.87027 0.15225 0.0
O173 O 0.17526 0.89277 0.15722 0.0
O174 O 0.23438 0.87402 0.15436 0.0
C175 C 0.12447 0.98859 0.17798 0.0
O176 O 0.15288 0.01146 0.17648 0.0
C177 C 0.33958 0.89074 0.16067 0.0
C178 C 0.36712 0.94268 0.16752 0.0
C179 C 0.37444 0.90714 0.16283 0.0
N180 N 0.31314 0.91575 0.16401 0.0
N181 N 0.32991 0.94663 0.16802 0.0
C182 C 0.3313 0.85197 0.15602 0.0
H183 H 0.30381 0.84254 0.15986 0.0
H184 H 0.35361 0.83238 0.1592 0.0
H185 H 0.32994 0.85188 0.14511 0.0
C186 C 0.2006 0.93191 0.19638 0.0
N187 N 0.20781 0.9301 0.1834 0.0
N188 N 0.24319 0.92166 0.18158 0.0
C189 C 0.25965 0.91782 0.19353 0.0
C190 C 0.23317 0.92479 0.20324 0.0
C191 C 0.16276 0.93841 0.20225 0.0
H192 H 0.15635 0.96871 0.20198 0.0
H193 H 0.14125 0.92298 0.19657 0.0
H194 H 0.16167 0.929 0.21265 0.0
O195 O 0.19413 0.97901 0.15798 0.0
O196 O 0.25119 0.96204 0.15246 0.0
H197 H 0.31713 0.93375 0.19422 0.0
H198 H 0.30479 0.89787 0.20581 0.0
C199 C 0.29992 0.9083 0.19567 0.0
H200 H 0.30891 0.88684 0.18846 0.0
H201 H 0.31576 0.97056 0.1711 0.0
O202 O 0.12787 0.95421 0.17494 0.0
C203 C 0.22393 0.98461 0.15162 0.0
Co204 Co 0.49747 0.09497 0.43015 0.0
Co205 Co 0.49458 0.17103 0.41553 0.0
C206 C 0.56404 0.12472 0.41518 0.0
O207 O 0.5486 0.1 0.42245 0.0
O208 O 0.54666 0.15427 0.41164 0.0
C209 C 0.51857 0.03334 0.44777 0.0
O210 O 0.55409 0.04141 0.44603 0.0
C211 C 0.50298 0.2495 0.4059 0.0
C212 C 0.44363 0.26114 0.40125 0.0
C213 C 0.47891 0.27701 0.4012 0.0
N214 N 0.4825 0.21893 0.40868 0.0
N215 N 0.44718 0.22614 0.40581 0.0
C216 C 0.54465 0.25146 0.40713 0.0
H217 H 0.55712 0.22335 0.40589 0.0
H218 H 0.55216 0.26189 0.41707 0.0
H219 H 0.55653 0.27083 0.39969 0.0
C220 C 0.4837 0.14279 0.45311 0.0
N221 N 0.48524 0.13787 0.43998 0.0
N222 N 0.48539 0.17053 0.4341 0.0
C223 C 0.48442 0.19751 0.44341 0.0
C224 C 0.48326 0.18084 0.45581 0.0
C225 C 0.4899 0.11186 0.46281 0.0
H226 H 0.46878 0.08964 0.46117 0.0
H227 H 0.51816 0.09998 0.46125 0.0
H228 H 0.48803 0.12113 0.47317 0.0
O229 O 0.46122 0.08373 0.41595 0.0
O230 O 0.46114 0.13744 0.40529 0.0
H231 H 0.46766 0.24681 0.43307 0.0
H232 H 0.48439 0.25538 0.44961 0.0
C233 C 0.48847 0.23832 0.44059 0.0
H234 H 0.51678 0.24369 0.43657 0.0
H235 H 0.42533 0.20711 0.40707 0.0
O236 O 0.49357 0.05187 0.4418 0.0
C237 C 0.45027 0.10379 0.4064 0.0
Co238 Co 0.32633 0.41781 0.67902 0.0
Co239 Co 0.25048 0.40602 0.66479 0.0
C240 C 0.2963 0.47804 0.66224 0.0
O241 O 0.32126 0.46661 0.67025 0.0
O242 O 0.26822 0.4575 0.65922 0.0
C243 C 0.388 0.44185 0.69621 0.0
O244 O 0.38043 0.47699 0.69359 0.0
C245 C 0.1718 0.42081 0.65847 0.0
C246 C 0.15076 0.36362 0.6548 0.0
C247 C 0.13932 0.40039 0.65617 0.0
N248 N 0.20074 0.39695 0.6589 0.0
N249 N 0.18811 0.36294 0.65641 0.0
C250 C 0.17585 0.46226 0.65992 0.0
H251 H 0.18062 0.46942 0.67041 0.0
H252 H 0.15084 0.47725 0.6562 0.0
H253 H 0.20047 0.47187 0.65428 0.0
C254 C 0.27968 0.40658 0.70245 0.0
N255 N 0.28396 0.40676 0.68929 0.0
N256 N 0.25133 0.40177 0.68359 0.0
C257 C 0.22505 0.39815 0.6931 0.0
C258 C 0.24232 0.40078 0.70534 0.0
C259 C 0.30975 0.41765 0.71197 0.0
H260 H 0.32147 0.44502 0.70898 0.0
H261 H 0.29945 0.42031 0.7222 0.0
H262 H 0.33227 0.39644 0.71176 0.0
O263 O 0.33695 0.37945 0.66558 0.0
O264 O 0.28238 0.36697 0.65621 0.0
H265 H 0.17903 0.37196 0.68323 0.0
H266 H 0.1689 0.38673 0.69986 0.0
C267 C 0.18399 0.39406 0.69067 0.0
H268 H 0.1727 0.42076 0.68686 0.0
H269 H 0.20475 0.33899 0.65647 0.0
O270 O 0.36945 0.41592 0.69075 0.0
C271 C 0.31734 0.36111 0.65738 0.0
Co272 Co 0.68232 0.39647 0.67423 0.0
Co273 Co 0.75962 0.4101 0.66167 0.0
C274 C 0.72171 0.33566 0.65922 0.0
O275 O 0.69519 0.34743 0.6665 0.0
O276 O 0.74898 0.35694 0.65598 0.0
C277 C 0.62655 0.366 0.69242 0.0
O278 O 0.6454 0.3346 0.69325 0.0
C279 C 0.84156 0.41143 0.65639 0.0
C280 C 0.84828 0.47205 0.65286 0.0
C281 C 0.86808 0.43913 0.65425 0.0
N282 N 0.80759 0.42757 0.65646 0.0
N283 N 0.81186 0.4636 0.65402 0.0
C284 C 0.84871 0.3714 0.65977 0.0
H285 H 0.82304 0.35801 0.6637 0.0
H286 H 0.87179 0.36933 0.66705 0.0
H287 H 0.85763 0.35632 0.65076 0.0
C288 C 0.72224 0.41976 0.69836 0.0
N289 N 0.72096 0.41453 0.68523 0.0
N290 N 0.75502 0.41604 0.68043 0.0
C291 C 0.7792 0.42033 0.6906 0.0
C292 C 0.75913 0.4229 0.7023 0.0
C293 C 0.6892 0.4175 0.70735 0.0
H294 H 0.66484 0.43145 0.70277 0.0
H295 H 0.68261 0.38775 0.70931 0.0
H296 H 0.69504 0.43128 0.71691 0.0
O297 O 0.66915 0.43216 0.66028 0.0
O298 O 0.725 0.44508 0.65213 0.0
H299 H 0.83042 0.43958 0.68214 0.0
H300 H 0.83459 0.42438 0.69903 0.0
C301 C 0.82081 0.41868 0.68943 0.0
H302 H 0.82907 0.3905 0.68599 0.0
H303 H 0.79001 0.48289 0.65391 0.0
O304 O 0.63745 0.39186 0.6848 0.0
C305 C 0.68979 0.45012 0.65235 0.0
Co306 Co 0.825 0.94356 0.17946 0.0
Co307 Co 0.74923 0.92296 0.16632 0.0
C308 C 0.79125 0.98858 0.15695 0.0
O309 O 0.81629 0.98056 0.16537 0.0
O310 O 0.76127 0.96936 0.15595 0.0
C311 C 0.87047 0.99777 0.19219 0.0
O312 O 0.8443 0.02132 0.18851 0.0
C313 C 0.6689 0.9141 0.15913 0.0
C314 C 0.66758 0.85338 0.15501 0.0
C315 C 0.64539 0.88492 0.15544 0.0
N316 N 0.70347 0.90018 0.16089 0.0
N317 N 0.7024 0.86394 0.15833 0.0
C318 C 0.65931 0.95468 0.16019 0.0
H319 H 0.68505 0.97187 0.16104 0.0
H320 H 0.64169 0.9596 0.16897 0.0
H321 H 0.64289 0.9634 0.15143 0.0
C322 C 0.78065 0.93904 0.20355 0.0
N323 N 0.78338 0.93747 0.19037 0.0
N324 N 0.75044 0.93013 0.18518 0.0
C325 C 0.72532 0.92747 0.19511 0.0
C326 C 0.74381 0.93288 0.20704 0.0
C327 C 0.81269 0.94795 0.21256 0.0
H328 H 0.83764 0.93156 0.20963 0.0
H329 H 0.81945 0.97808 0.21171 0.0
H330 H 0.80619 0.94201 0.223 0.0
O331 O 0.83994 0.89533 0.1717 0.0
O332 O 0.78679 0.88511 0.16105 0.0
H333 H 0.68112 0.8954 0.18639 0.0
H334 H 0.6713 0.91186 0.20288 0.0
C335 C 0.68468 0.91898 0.19336 0.0
H336 H 0.67061 0.94389 0.18921 0.0
H337 H 0.72543 0.84614 0.159 0.0
O338 O 0.86696 0.96322 0.18954 0.0
C339 C 0.82023 0.87598 0.16382 0.0
Co340 Co 0.82137 0.34916 0.83186 0.0
Co341 Co 0.75339 0.39958 0.83758 0.0
C342 C 0.76339 0.32041 0.84852 0.0
O343 O 0.78889 0.31332 0.84027 0.0
O344 O 0.74874 0.35297 0.84922 0.0
C345 C 0.88413 0.30982 0.83744 0.0
O346 O 0.86279 0.29758 0.84704 0.0
C347 C 0.67212 0.41529 0.83678 0.0
C348 C 0.67176 0.47697 0.83751 0.0
C349 C 0.64841 0.44614 0.83645 0.0
N350 N 0.70763 0.4275 0.83795 0.0
N351 N 0.70711 0.46438 0.8385 0.0
C352 C 0.66192 0.37512 0.8348 0.0
H353 H 0.65261 0.36317 0.84432 0.0
H354 H 0.68655 0.35902 0.83133 0.0
H355 H 0.63865 0.37248 0.82761 0.0
C356 C 0.80502 0.36696 0.80457 0.0
N357 N 0.7978 0.37005 0.81746 0.0
N358 N 0.76727 0.38974 0.81934 0.0
C359 C 0.7536 0.39954 0.80737 0.0
C360 C 0.77704 0.38505 0.79759 0.0
C361 C 0.83913 0.34805 0.7992 0.0
H362 H 0.86398 0.35638 0.80505 0.0
H363 H 0.83572 0.31733 0.80008 0.0
H364 H 0.84417 0.35549 0.78875 0.0
O365 O 0.83736 0.38819 0.84443 0.0
O366 O 0.79305 0.43085 0.84654 0.0
H367 H 0.71962 0.44779 0.81059 0.0
H368 H 0.71189 0.42539 0.79482 0.0
C369 C 0.71792 0.42059 0.80538 0.0
H370 H 0.69451 0.4045 0.80974 0.0
H371 H 0.73102 0.48103 0.83921 0.0
O372 O 0.86832 0.32414 0.82744 0.0
C373 C 0.82589 0.41904 0.84915 0.0
Co374 Co 0.66951 0.95333 0.33858 0.0
Co375 Co 0.75434 0.93662 0.34128 0.0
C376 C 0.71609 0.00284 0.35467 0.0
O377 O 0.68539 0.99643 0.34875 0.0
O378 O 0.74459 0.98154 0.35321 0.0
C379 C 0.5957 0.94219 0.34341 0.0
O380 O 0.60823 0.94261 0.35557 0.0
C381 C 0.83649 0.94566 0.34326 0.0
C382 C 0.85492 0.88949 0.33694 0.0
C383 C 0.86812 0.92348 0.34156 0.0
N384 N 0.80622 0.92536 0.33997 0.0
N385 N 0.81749 0.89193 0.33615 0.0
C386 C 0.83471 0.98584 0.34728 0.0
H387 H 0.81042 -0.00039 0.34252 0.0
H388 H 0.86077 0.00078 0.34454 0.0
H389 H 0.83091 0.98754 0.3581 0.0
C390 C 0.68673 0.95144 0.31053 0.0
N391 N 0.6973 0.94858 0.32317 0.0
N392 N 0.73357 0.94309 0.3239 0.0
C393 C 0.7475 0.94296 0.31152 0.0
C394 C 0.71817 0.94845 0.30264 0.0
C395 C 0.64677 0.95478 0.3062 0.0
H396 H 0.62983 0.93291 0.31113 0.0
H397 H 0.63572 0.98245 0.30923 0.0
H398 H 0.64351 0.95134 0.29542 0.0
O399 O 0.67363 0.90879 0.34967 0.0
O400 O 0.73286 0.89155 0.35023 0.0
H401 H 0.7966 0.90976 0.30927 0.0
H402 H 0.79413 0.94898 0.29814 0.0
C403 C 0.78817 0.93946 0.30831 0.0
H404 H 0.80498 0.95614 0.31538 0.0
H405 H 0.79948 0.87055 0.33318 0.0
O406 O 0.61629 0.95518 0.33436 0.0
C407 C 0.69888 0.88638 0.35338 0.0
Co408 Co 0.44274 0.58809 0.5871 0.0
Co409 Co 0.47531 0.66785 0.58947 0.0
C410 C 0.40588 0.64331 0.60406 0.0
O411 O 0.4058 0.61272 0.59783 0.0
O412 O 0.43204 0.66722 0.60255 0.0
C413 C 0.41684 0.52028 0.59497 0.0
O414 O 0.40619 0.54057 0.60507 0.0
C415 C 0.47486 0.74956 0.58919 0.0
C416 C 0.5349 0.76289 0.58703 0.0
C417 C 0.50005 0.77921 0.58866 0.0
N418 N 0.49407 0.7175 0.58813 0.0
N419 N 0.52992 0.72561 0.58678 0.0
C420 C 0.43307 0.75106 0.58986 0.0
H421 H 0.42426 0.7512 0.60033 0.0
H422 H 0.42081 0.72595 0.58509 0.0
H423 H 0.42229 0.77663 0.58499 0.0
C424 C 0.44671 0.60346 0.55893 0.0
N425 N 0.45044 0.61405 0.57153 0.0
N426 N 0.46295 0.64857 0.57216 0.0
C427 C 0.46731 0.66131 0.55972 0.0
C428 C 0.45695 0.6331 0.55091 0.0
C429 C 0.43701 0.56439 0.55484 0.0
H430 H 0.45229 0.54416 0.56111 0.0
H431 H 0.40659 0.55977 0.5563 0.0
H432 H 0.44427 0.5589 0.54441 0.0
O433 O 0.49027 0.58188 0.59678 0.0
O434 O 0.51675 0.63775 0.59734 0.0
H435 H 0.51126 0.70165 0.55881 0.0
H436 H 0.47682 0.70621 0.54583 0.0
C437 C 0.48104 0.69965 0.5564 0.0
H438 H 0.46603 0.72058 0.56246 0.0
H439 H 0.55104 0.70565 0.58585 0.0
O440 O 0.42593 0.53687 0.5844 0.0
C441 C 0.51749 0.60295 0.59994 0.0
Co442 Co 0.97603 0.74072 0.07652 0.0
Co443 Co 0.99323 0.66221 0.08733 0.0
C444 C 0.04906 0.72148 0.09078 0.0
O445 O 0.02595 0.74376 0.0853 0.0
O446 O 0.04207 0.68658 0.09156 0.0
C447 C 0.99128 0.79807 0.05798 0.0
O448 O 0.02388 0.78163 0.05658 0.0
C449 C 0.0164 0.58348 0.09005 0.0
C450 C 0.96958 0.56145 0.10195 0.0
C451 C 0.00217 0.55115 0.09563 0.0
N452 N 0.99294 0.61166 0.09285 0.0
N453 N 0.96535 0.59838 0.10013 0.0
C454 C 0.05226 0.58784 0.08264 0.0
H455 H 0.0544 0.61627 0.07834 0.0
H456 H 0.05446 0.56644 0.07479 0.0
H457 H 0.07602 0.58338 0.08951 0.0
C458 C 0.95909 0.69896 0.05239 0.0
N459 N 0.97015 0.70002 0.06505 0.0
N460 N 0.97931 0.66621 0.06894 0.0
C461 C 0.97554 0.64277 0.05849 0.0
C462 C 0.96287 0.66312 0.04771 0.0
C463 C 0.94364 0.73123 0.04476 0.0
H464 H 0.92724 0.74971 0.0513 0.0
H465 H 0.96697 0.74696 0.04019 0.0
H466 H 0.92512 0.72135 0.03669 0.0
O467 O 0.93835 0.73975 0.09025 0.0
O468 O 0.95597 0.6865 0.09941 0.0
H469 H 0.97306 0.58896 0.06765 0.0
H470 H 0.97179 0.58784 0.04986 0.0
C471 C 0.98416 0.60196 0.05857 0.0
H472 H 0.01489 0.59816 0.05827 0.0
H473 H 0.94294 0.61431 0.10355 0.0
O474 O 0.96814 0.78606 0.06642 0.0
C475 C 0.93589 0.71587 0.09942 0.0
Co476 Co 0.49138 0.73042 0.42856 0.0
Co477 Co 0.50624 0.65349 0.41578 0.0
C478 C 0.43704 0.69743 0.40923 0.0
O479 O 0.44678 0.72288 0.41733 0.0
O480 O 0.45733 0.66845 0.40746 0.0
C481 C 0.45594 0.78762 0.44478 0.0
O482 O 0.42377 0.77029 0.44333 0.0
C483 C 0.49996 0.57518 0.40698 0.0
C484 C 0.55944 0.5582 0.4076 0.0
C485 C 0.52382 0.54522 0.40481 0.0
N486 N 0.5207 0.60455 0.41082 0.0
N487 N 0.5562 0.59429 0.41107 0.0
C488 C 0.45813 0.57535 0.40648 0.0
H489 H 0.44681 0.59646 0.4134 0.0
H490 H 0.4467 0.54736 0.40893 0.0
H491 H 0.449 0.58285 0.39638 0.0
C492 C 0.49951 0.68675 0.45301 0.0
N493 N 0.50018 0.68964 0.4398 0.0
N494 N 0.50393 0.65626 0.43458 0.0
C495 C 0.50423 0.63074 0.4444 0.0
C496 C 0.50183 0.64935 0.4564 0.0
C497 C 0.49281 0.71888 0.46216 0.0
H498 H 0.463 0.72715 0.46155 0.0
H499 H 0.49904 0.71175 0.47254 0.0
H500 H 0.51058 0.74291 0.45929 0.0
O501 O 0.5348 0.74087 0.41741 0.0
O502 O 0.54691 0.68589 0.40847 0.0
H503 H 0.50321 0.57399 0.45176 0.0
H504 H 0.48143 0.58111 0.43583 0.0
C505 C 0.50504 0.58939 0.4423 0.0
H506 H 0.53141 0.58164 0.43726 0.0
H507 H 0.57818 0.61184 0.41384 0.0
O508 O 0.48501 0.7752 0.43914 0.0
C509 C 0.55438 0.72042 0.40988 0.0
Co510 Co 0.03881 0.59763 0.92664 0.0
Co511 Co 0.00029 0.66348 0.91205 0.0
C512 C 0.08251 0.64068 0.90772 0.0
O513 O 0.08079 0.61628 0.91675 0.0
O514 O 0.05388 0.66052 0.90474 0.0
C515 C 0.08648 0.54197 0.9396 0.0
O516 O 0.11453 0.55193 0.93203 0.0
C517 C 0.98961 0.7442 0.90729 0.0
C518 C 0.93319 0.74524 0.89843 0.0
C519 C 0.9622 0.7684 0.90246 0.0
N520 N 0.97696 0.70885 0.90625 0.0
N521 N 0.94327 0.70972 0.90092 0.0
C522 C 0.02765 0.75379 0.91245 0.0
H523 H 0.04626 0.72908 0.91213 0.0
H524 H 0.02529 0.76274 0.92287 0.0
H525 H 0.04017 0.7769 0.90666 0.0
C526 C 0.01213 0.6363 0.94987 0.0
N527 N 0.01683 0.63472 0.93678 0.0
N528 N 0.99808 0.66176 0.93106 0.0
C529 C 0.9795 0.68089 0.94054 0.0
C530 C 0.98833 0.6655 0.95277 0.0
C531 C 0.02689 0.60765 0.95929 0.0
H532 H 0.05733 0.60386 0.95767 0.0
H533 H 0.0222 0.61547 0.96971 0.0
H534 H 0.01258 0.58065 0.95741 0.0
O535 O 0.00268 0.57463 0.91423 0.0
O536 O 0.9718 0.6201 0.90418 0.0
H537 H 0.93403 0.70411 0.92952 0.0
H538 H 0.93499 0.71769 0.94674 0.0
C539 C 0.95231 0.71172 0.93793 0.0
H540 H 0.96795 0.73737 0.93525 0.0
H541 H 0.92696 0.68607 0.89911 0.0
O542 O 0.05489 0.55759 0.93831 0.0
C543 C 0.97793 0.58537 0.90604 0.0
H544 H 0.01581 0.49663 0.11355 0.0
H545 H 0.00778 0.51819 0.07168 0.0
H546 H 0.0126 0.45049 0.06717 0.0
H547 H 0.08291 0.41797 0.1109 0.0
H548 H 0.06148 0.39304 0.12434 0.0
H549 H 0.06051 0.44337 0.12403 0.0
H550 H 0.98827 0.44149 0.12613 0.0
H551 H 0.98891 0.39118 0.12611 0.0
H552 H 0.9612 0.41594 0.11413 0.0
H553 H 0.01115 0.38071 0.06742 0.0
H554 H 0.01341 0.31294 0.07219 0.0
H555 H 0.02527 0.33669 0.11381 0.0
C556 C 0.01624 0.48698 0.10344 0.0
C557 C 0.01245 0.5123 0.09292 0.0
C558 C 0.01203 0.49909 0.0798 0.0
C559 C 0.01423 0.46074 0.07718 0.0
C560 C 0.0171 0.4363 0.08779 0.0
C561 C 0.01898 0.44888 0.10065 0.0
C562 C 0.02157 0.4167 0.11026 0.0
C563 C 0.05884 0.41784 0.11783 0.0
C564 C 0.98798 0.41633 0.11971 0.0
C565 C 0.0201 0.38406 0.10081 0.0
C566 C 0.01709 0.39599 0.08791 0.0
C567 C 0.01383 0.37099 0.07746 0.0
C568 C 0.01466 0.3327 0.08026 0.0
C569 C 0.01892 0.32009 0.09335 0.0
C570 C 0.02163 0.34596 0.10374 0.0
H571 H 0.08841 0.89829 0.33402 0.0
H572 H 0.10205 0.97335 0.36721 0.0
H573 H 0.03334 0.97884 0.36911 0.0
H574 H 0.01246 0.94572 0.31953 0.0
H575 H 0.9885 0.90411 0.31411 0.0
H576 H 0.03862 0.90393 0.31589 0.0
H577 H 0.03449 0.84733 0.33173 0.0
H578 H 0.98437 0.84697 0.32985 0.0
H579 H 0.00485 0.85012 0.34604 0.0
H580 H 0.96327 0.9769 0.36713 0.0
H581 H 0.89685 0.96718 0.36157 0.0
H582 H 0.92926 0.89536 0.32909 0.0
C583 C 0.07697 0.91492 0.34194 0.0
C584 C 0.10044 0.93472 0.35067 0.0
C585 C 0.0844 0.95767 0.36051 0.0
C586 C 0.04548 0.96097 0.36166 0.0
C587 C 0.02307 0.94138 0.35281 0.0
C588 C 0.03819 0.91874 0.34315 0.0
C589 C 0.00796 0.90192 0.33455 0.0
C590 C 0.01215 0.9147 0.32017 0.0
C591 C 0.00791 0.85904 0.33561 0.0
C592 C 0.97352 0.9187 0.34086 0.0
C593 C 0.9828 0.94133 0.35138 0.0
C594 C 0.95565 0.95957 0.35882 0.0
C595 C 0.91794 0.95434 0.35544 0.0
C596 C 0.90782 0.93144 0.34463 0.0
C597 C 0.93612 0.91339 0.33732 0.0
H598 H 0.53831 0.99683 0.57688 0.0
H599 H 0.44191 0.01899 0.60149 0.0
H600 H 0.43405 0.95124 0.60537 0.0
H601 H 0.50051 0.91643 0.56132 0.0
H602 H 0.54411 0.89125 0.56058 0.0
H603 H 0.54419 0.94157 0.56056 0.0
H604 H 0.588 0.94209 0.5809 0.0
H605 H 0.58832 0.89173 0.58091 0.0
H606 H 0.57453 0.91685 0.5955 0.0
H607 H 0.43607 0.88161 0.60632 0.0
H608 H 0.44672 0.81408 0.60388 0.0
H609 H 0.53961 0.83637 0.57754 0.0
C610 C 0.51614 0.98729 0.58331 0.0
C611 C 0.49109 0.01285 0.58912 0.0
C612 C 0.46154 -0.00039 0.5971 0.0
C613 C 0.4569 0.9613 0.59935 0.0
C614 C 0.48183 0.93667 0.59341 0.0
C615 C 0.51083 0.94902 0.58554 0.0
C616 C 0.5324 0.91646 0.57978 0.0
C617 C 0.53015 0.91644 0.56466 0.0
C618 C 0.57323 0.91681 0.58457 0.0
C619 C 0.51084 0.88397 0.58561 0.0
C620 C 0.48196 0.89629 0.5935 0.0
C621 C 0.4583 0.87157 0.60002 0.0
C622 C 0.46421 0.83315 0.5984 0.0
C623 C 0.49314 0.8198 0.59014 0.0
C624 C 0.51695 0.84571 0.5838 0.0
H625 H 0.43342 0.38791 0.84537 0.0
H626 H 0.4051 0.48227 0.82047 0.0
H627 H 0.47195 0.49784 0.81841 0.0
H628 H 0.51065 0.43054 0.86241 0.0
H629 H 0.53846 0.38856 0.86265 0.0
H630 H 0.48818 0.38541 0.86246 0.0
H631 H 0.49129 0.34388 0.84159 0.0
H632 H 0.54159 0.34706 0.84168 0.0
H633 H 0.51567 0.36072 0.82724 0.0
H634 H 0.542 0.50368 0.81926 0.0
H635 H 0.61026 0.49835 0.82244 0.0
H636 H 0.59355 0.39888 0.84612 0.0
C637 C 0.44124 0.41194 0.8395 0.0
C638 C 0.41371 0.43458 0.83344 0.0
C639 C 0.42526 0.46544 0.82572 0.0
C640 C 0.46334 0.47422 0.82433 0.0
C641 C 0.48964 0.4516 0.83058 0.0
C642 C 0.47913 0.42096 0.83796 0.0
C643 C 0.51302 0.40091 0.84352 0.0
C644 C 0.51254 0.4014 0.85866 0.0
C645 C 0.51553 0.36076 0.83819 0.0
C646 C 0.54426 0.42512 0.83814 0.0
C647 C 0.53011 0.45425 0.83072 0.0
C648 C 0.55339 0.48085 0.82498 0.0
C649 C 0.59212 0.47762 0.82687 0.0
C650 C 0.60735 0.44785 0.83434 0.0
C651 C 0.58295 0.42132 0.84005 0.0
H652 H -0.00053 0.82093 0.91799 0.0
H653 H 0.92231 0.81074 0.88513 0.0
H654 H 0.91955 0.87945 0.88346 0.0
H655 H 0.96025 0.90297 0.93244 0.0
H656 H 0.00491 0.92288 0.93681 0.0
H657 H -0.0005 0.87289 0.93586 0.0
H658 H 0.05408 0.86909 0.91915 0.0
H659 H 0.05995 0.91899 0.92017 0.0
H660 H 0.05242 0.89706 0.90441 0.0
H661 H 0.92596 0.94979 0.88518 0.0
H662 H 0.94424 0.01553 0.88932 0.0
H663 H 0.01979 0.97893 0.92013 0.0
C664 C 0.98275 0.83271 0.9102 0.0
C665 C 0.96182 0.80996 0.90149 0.0
C666 C 0.9388 0.82738 0.8919 0.0
C667 C 0.93701 0.86645 0.89087 0.0
C668 C 0.95841 0.88792 0.89949 0.0
C669 C 0.98104 0.87164 0.90891 0.0
C670 C 0.00217 0.90092 0.91671 0.0
C671 C 0.99103 0.89984 0.93132 0.0
C672 C 0.04467 0.89623 0.915 0.0
C673 C 0.98821 0.9362 0.91012 0.0
C674 C 0.96256 0.9282 0.90033 0.0
C675 C 0.9459 0.95638 0.89286 0.0
C676 C 0.95618 0.99365 0.89535 0.0
C677 C 0.98304 0.00227 0.90514 0.0
C678 C -0.00094 0.9731 0.91261 0.0
H679 H 0.43612 0.92356 0.17704 0.0
H680 H 0.39934 0.86157 0.14267 0.0
H681 H 0.46528 0.84754 0.13721 0.0
H682 H 0.51128 0.9677 0.16207 0.0
H683 H 0.5417 0.96603 0.17622 0.0
H684 H 0.49177 0.96693 0.17842 0.0
H685 H 0.4946 0.90578 0.19207 0.0
H686 H 0.5447 0.90517 0.19018 0.0
H687 H 0.51732 0.8652 0.18525 0.0
H688 H 0.53607 0.84428 0.13485 0.0
H689 H 0.6051 0.85001 0.13628 0.0
H690 H 0.59377 0.9165 0.17171 0.0
C691 C 0.44184 0.90636 0.1685 0.0
C692 C 0.41261 0.89307 0.16041 0.0
C693 C 0.4212 0.87105 0.14924 0.0
C694 C 0.45861 0.86334 0.14598 0.0
C695 C 0.48681 0.87795 0.154 0.0
C696 C 0.47875 0.89869 0.1651 0.0
C697 C 0.5138 0.91295 0.17175 0.0
C698 C 0.51466 0.95594 0.17213 0.0
C699 C 0.51784 0.89626 0.18563 0.0
C700 C 0.54302 0.89768 0.16251 0.0
C701 C 0.52706 0.8773 0.15238 0.0
C702 C 0.5488 0.86024 0.14272 0.0
C703 C 0.58784 0.86378 0.14357 0.0
C704 C 0.60449 0.8847 0.15386 0.0
C705 C 0.58174 0.90176 0.16343 0.0
H706 H 0.52876 0.32518 0.41296 0.0
H707 H 0.44371 0.31843 0.38255 0.0
H708 H 0.44871 0.38651 0.37903 0.0
H709 H 0.49876 0.407 0.42698 0.0
H710 H 0.54448 0.42584 0.43048 0.0
H711 H 0.5379 0.37608 0.42952 0.0
H712 H 0.58928 0.37134 0.41163 0.0
H713 H 0.59653 0.42111 0.41269 0.0
H714 H 0.58589 0.39979 0.39704 0.0
H715 H 0.45787 0.45581 0.38057 0.0
H716 H 0.47347 0.52128 0.38624 0.0
H717 H 0.55358 0.48209 0.41518 0.0
C718 C 0.51242 0.33761 0.40515 0.0
C719 C 0.48648 0.31639 0.39781 0.0
C720 C 0.46406 0.33423 0.38819 0.0
C721 C 0.46673 0.37281 0.3861 0.0
C722 C 0.49207 0.39308 0.39368 0.0
C723 C 0.51487 0.37605 0.40291 0.0
C724 C 0.53793 0.40447 0.41039 0.0
C725 C 0.52922 0.40326 0.42522 0.0
C726 C 0.5799 0.39884 0.40777 0.0
C727 C 0.52382 0.44016 0.40417 0.0
C728 C 0.49744 0.43304 0.39453 0.0
C729 C 0.47881 0.46175 0.38798 0.0
C730 C 0.4875 0.49877 0.39136 0.0
C731 C 0.51446 0.50649 0.40119 0.0
C732 C 0.53307 0.47682 0.40754 0.0
H733 H 0.91893 0.39155 0.64284 0.0
H734 H 0.90823 0.48328 0.6705 0.0
H735 H 0.97649 0.48306 0.67407 0.0
H736 H 0.9944 0.34288 0.65965 0.0
H737 H 0.01799 0.33002 0.64465 0.0
H738 H 0.96796 0.33608 0.64472 0.0
H739 H 0.97367 0.38448 0.62586 0.0
H740 H 0.02372 0.37875 0.6258 0.0
H741 H 0.00371 0.42456 0.62796 0.0
H742 H 0.0447 0.47211 0.67515 0.0
H743 H 0.11039 0.45325 0.67286 0.0
H744 H 0.07876 0.37212 0.64306 0.0
C745 C 0.9311 0.41121 0.64973 0.0
C746 C 0.90864 0.43731 0.65647 0.0
C747 C 0.92525 0.46317 0.66525 0.0
C748 C 0.96387 0.46318 0.66736 0.0
C749 C 0.98543 0.43743 0.66049 0.0
C750 C 0.96984 0.41203 0.6518 0.0
C751 C -0.0002 0.38841 0.64533 0.0
C752 C 0.99473 0.34689 0.6488 0.0
C753 C 0.00024 0.39443 0.63035 0.0
C754 C 0.03451 0.40457 0.65177 0.0
C755 C 0.02543 0.43258 0.66055 0.0
C756 C 0.05237 0.45085 0.66807 0.0
C757 C 0.08977 0.44039 0.66652 0.0
C758 C 0.09999 0.41258 0.65728 0.0
C759 C 0.07184 0.39416 0.64994 0.0
H760 H 0.06287 0.17064 0.02703 0.0
H761 H 0.94592 0.1899 0.03561 0.0
H762 H 0.93144 0.18905 0.01178 0.0
H763 H 0.06589 0.22616 0.99571 0.0
H764 H 0.09774 0.19345 0.98822 0.0
H765 H 0.09879 0.20078 0.00576 0.0
H766 H 0.08989 0.12954 0.00913 0.0
H767 H 0.08719 0.12214 0.99162 0.0
H768 H 0.04958 0.10668 1.0021 0.0
H769 H 0.92872 0.1781 0.98741 0.0
H770 H 0.9396 0.17043 0.9635 0.0
H771 H 0.05848 0.15898 0.9706 0.0
C772 C 0.0346 0.17649 0.02379 0.0
C773 C 0.00552 0.18121 0.03301 0.0
C774 C 0.96855 0.18726 0.02859 0.0
C775 C 0.96006 0.18625 0.01511 0.0
C776 C 0.98901 0.17936 0.00626 0.0
C777 C 0.02572 0.17566 0.01036 0.0
C778 C 0.05135 0.16727 0.99886 0.0
C779 C 0.08014 0.1988 0.99703 0.0
C780 C 0.07063 0.12914 1.00053 0.0
C781 C 0.02329 0.16634 0.98768 0.0
C782 C 0.98743 0.17297 0.9922 0.0
C783 C 0.95668 0.17308 0.98375 0.0
C784 C 0.96299 0.16811 0.97025 0.0
C785 C -0.00033 0.16319 0.96537 0.0
C786 C 0.03009 0.16161 0.9742 0.0
H787 H 0.25253 0.85163 0.27717 0.0
H788 H 0.22668 0.96422 0.28994 0.0
H789 H 0.22058 0.984 0.26668 0.0
H790 H 0.30989 0.87758 0.25051 0.0
H791 H 0.29492 0.84041 0.23973 0.0
H792 H 0.29351 0.83403 0.25731 0.0
H793 H 0.2229 0.81784 0.25612 0.0
H794 H 0.22425 0.82341 0.23851 0.0
H795 H 0.1912 0.84979 0.24813 0.0
H796 H 0.22098 0.9921 0.2421 0.0
H797 H 0.22311 0.98709 0.21783 0.0
H798 H 0.25108 0.86968 0.22097 0.0
C799 C 0.24479 0.88024 0.27502 0.0
C800 C 0.23957 0.90639 0.28528 0.0
C801 C 0.23002 0.94369 0.28219 0.0
C802 C 0.22691 0.9552 0.26903 0.0
C803 C 0.23355 0.92901 0.25912 0.0
C804 C 0.24192 0.8922 0.26195 0.0
C805 C 0.24906 0.86993 0.24951 0.0
C806 C 0.28923 0.85459 0.24926 0.0
C807 C 0.22012 0.83838 0.24798 0.0
C808 C 0.2436 0.89999 0.23919 0.0
C809 C 0.23469 0.93387 0.24497 0.0
C810 C 0.22796 0.96576 0.23749 0.0
C811 C 0.22948 0.96274 0.22375 0.0
C812 C 0.23786 0.9282 0.21764 0.0
C813 C 0.24544 0.89655 0.22545 0.0
H814 H 0.48143 0.17994 0.53386 0.0
H815 H 0.59188 0.22983 0.53221 0.0
H816 H 0.58568 0.23717 0.50811 0.0
H817 H 0.48987 0.1272 0.50399 0.0
H818 H 0.44169 0.13355 0.49926 0.0
H819 H 0.45451 0.13402 0.51639 0.0
H820 H 0.42358 0.19918 0.51887 0.0
H821 H 0.41135 0.19914 0.50166 0.0
H822 H 0.43852 0.23705 0.50842 0.0
H823 H 0.56891 0.23628 0.48416 0.0
H824 H 0.545 0.22198 0.46187 0.0
H825 H 0.44464 0.17444 0.47888 0.0
C826 C 0.50431 0.19223 0.52838 0.0
C827 C 0.53706 0.20458 0.53485 0.0
C828 C 0.5664 0.22062 0.52741 0.0
C829 C 0.56308 0.22499 0.51375 0.0
C830 C 0.53018 0.21319 0.50766 0.0
C831 C 0.50142 0.19683 0.51471 0.0
C832 C 0.4698 0.18494 0.50567 0.0
C833 C 0.46362 0.14241 0.50637 0.0
C834 C 0.43367 0.20637 0.50885 0.0
C835 C 0.48554 0.1966 0.49244 0.0
C836 C 0.52027 0.21315 0.49382 0.0
C837 C 0.54151 0.22385 0.48295 0.0
C838 C 0.52758 0.21599 0.47033 0.0
C839 C 0.49282 0.19763 0.46871 0.0
C840 C 0.47099 0.18915 0.4799 0.0
H841 H 0.25467 0.36022 0.72757 0.0
H842 H 0.19466 0.45618 0.71252 0.0
H843 H 0.1803 0.47603 0.7353 0.0
H844 H 0.1938 0.34386 0.75725 0.0
H845 H 0.23352 0.33083 0.76718 0.0
H846 H 0.23352 0.32133 0.74976 0.0
H847 H 0.29601 0.35749 0.7476 0.0
H848 H 0.29572 0.36815 0.76491 0.0
H849 H 0.29853 0.40541 0.75302 0.0
H850 H 0.18159 0.49064 0.75936 0.0
H851 H 0.18956 0.49426 0.78346 0.0
H852 H 0.24725 0.38774 0.7832 0.0
C853 C 0.23713 0.38448 0.72914 0.0
C854 C 0.22521 0.4065 0.7184 0.0
C855 C 0.2033 0.43869 0.72067 0.0
C856 C 0.1954 0.45031 0.73356 0.0
C857 C 0.20934 0.42912 0.74399 0.0
C858 C 0.22899 0.39639 0.74194 0.0
C859 C 0.24284 0.38008 0.75483 0.0
C860 C 0.22483 0.34175 0.75741 0.0
C861 C 0.28582 0.37765 0.7551 0.0
C862 C 0.22872 0.40923 0.76443 0.0
C863 C 0.20959 0.43731 0.75794 0.0
C864 C 0.19574 0.46839 0.76457 0.0
C865 C 0.20054 0.47027 0.77824 0.0
C866 C 0.21865 0.44112 0.78517 0.0
C867 C 0.23335 0.41044 0.77814 0.0
H868 H 0.76527 0.44463 0.78063 0.0
H869 H 0.77936 0.3243 0.78176 0.0
H870 H 0.78288 0.32261 0.75755 0.0
H871 H 0.70452 0.44334 0.75127 0.0
H872 H 0.72305 0.48667 0.74499 0.0
H873 H 0.72214 0.47831 0.76247 0.0
H874 H 0.79345 0.49117 0.76349 0.0
H875 H 0.7947 0.49856 0.74596 0.0
H876 H 0.82467 0.46399 0.75338 0.0
H877 H 0.78875 0.33382 0.73352 0.0
H878 H 0.78328 0.35556 0.71051 0.0
H879 H 0.76017 0.46777 0.72428 0.0
C880 C 0.76833 0.41792 0.77573 0.0
C881 C 0.77262 0.3846 0.78306 0.0
C882 C 0.77669 0.35019 0.77632 0.0
C883 C 0.77884 0.34895 0.76258 0.0
C884 C 0.77606 0.38234 0.75565 0.0
C885 C 0.76975 0.41606 0.76191 0.0
C886 C 0.76573 0.44742 0.75194 0.0
C887 C 0.72653 0.46496 0.75271 0.0
C888 C 0.79648 0.47704 0.75381 0.0
C889 C 0.77108 0.42601 0.73916 0.0
C890 C 0.77771 0.38861 0.7416 0.0
C891 C 0.78349 0.36302 0.73146 0.0
C892 C 0.78082 0.37564 0.71845 0.0
C893 C 0.772 0.41332 0.71571 0.0
C894 C 0.76779 0.43899 0.72618 0.0
H895 H 0.75909 0.88853 0.22816 0.0
H896 H 0.69621 0.98603 0.21608 0.0
H897 H 0.68228 0.00036 0.23944 0.0
H898 H 0.69944 0.86342 0.25693 0.0
H899 H 0.73929 0.84891 0.26654 0.0
H900 H 0.74002 0.84421 0.24888 0.0
H901 H 0.80139 0.88271 0.24817 0.0
H902 H 0.80038 0.88843 0.26577 0.0
H903 H 0.80235 0.92892 0.25525 0.0
H904 H 0.68233 0.00831 0.26396 0.0
H905 H 0.68821 0.00467 0.28815 0.0
H906 H 0.75016 0.90112 0.28449 0.0
C907 C 0.74135 0.91215 0.23048 0.0
C908 C 0.72834 0.93612 0.22044 0.0
C909 C 0.70585 0.96719 0.2237 0.0
C910 C 0.69816 0.97565 0.23691 0.0
C911 C 0.71295 0.95248 0.24666 0.0
C912 C 0.73342 0.92091 0.24361 0.0
C913 C 0.74742 0.90157 0.25595 0.0
C914 C 0.73052 0.86219 0.25715 0.0
C915 C 0.79043 0.90035 0.2563 0.0
C916 C 0.73219 0.92754 0.26643 0.0
C917 C 0.71254 0.9568 0.26083 0.0
C918 C 0.69703 0.98517 0.26845 0.0
C919 C 0.70063 0.98294 0.28215 0.0
C920 C 0.7192 0.9524 0.28813 0.0
C921 C 0.7358 0.92473 0.28015 0.0
H922 H 0.5433 0.6567 0.47879 0.0
H923 H 0.43966 0.61104 0.4636 0.0
H924 H 0.41741 0.60043 0.48636 0.0
H925 H 0.55015 0.59511 0.50856 0.0
H926 H 0.56869 0.63261 0.51848 0.0
H927 H 0.57824 0.63114 0.50107 0.0
H928 H 0.55137 0.69802 0.49878 0.0
H929 H 0.54069 0.69937 0.51608 0.0
H930 H 0.50424 0.70734 0.50413 0.0
H931 H 0.40307 0.60345 0.51046 0.0
H932 H 0.40079 0.61125 0.53461 0.0
H933 H 0.51432 0.65398 0.53439 0.0
C934 C 0.51658 0.64309 0.48033 0.0
C935 C 0.49327 0.63412 0.46956 0.0
C936 C 0.45805 0.61736 0.47179 0.0
C937 C 0.44512 0.61162 0.48466 0.0
C938 C 0.46795 0.62259 0.49513 0.0
C939 C 0.50329 0.63723 0.49312 0.0
C940 C 0.52132 0.64871 0.50604 0.0
C941 C 0.55669 0.6255 0.5087 0.0
C942 C 0.5299 0.69086 0.50626 0.0
C943 C 0.49033 0.63895 0.51559 0.0
C944 C 0.45978 0.62403 0.50907 0.0
C945 C 0.42708 0.61441 0.51569 0.0
C946 C 0.42599 0.61908 0.52938 0.0
C947 C 0.45744 0.63293 0.53633 0.0
C948 C 0.48983 0.64348 0.52931 0.0
H949 H 0.02391 0.69537 0.97377 0.0
H950 H 0.919 0.64604 0.9615 0.0
H951 H 0.90098 0.63743 0.98488 0.0
H952 H 0.04191 0.6337 0.99877 0.0
H953 H 0.0625 0.6668 0.01005 0.0
H954 H 0.0646 0.67514 0.9926 0.0
H955 H 0.03223 0.73947 0.9954 0.0
H956 H 0.03151 0.73211 0.01293 0.0
H957 H 0.98868 0.7423 0.00427 0.0
H958 H 0.89794 0.62848 0.00989 0.0
H959 H 0.90654 0.62815 0.03418 0.0
H960 H 0.01476 0.68071 0.02955 0.0
C961 C 0.99636 0.68454 0.97607 0.0
C962 C 0.97229 0.67232 0.96594 0.0
C963 C 0.93719 0.6566 0.96919 0.0
C964 C 0.92706 0.65111 0.98242 0.0
C965 C 0.95245 0.66151 0.99223 0.0
C966 C 0.98606 0.67865 0.98918 0.0
C967 C 0.00949 0.68521 1.00138 0.0
C968 C 0.04682 0.66394 1.00064 0.0
C969 C 0.01583 0.72727 1.00363 0.0
C970 C 0.98415 0.66873 0.01178 0.0
C971 C 0.95135 0.65512 0.00636 0.0
C972 C 0.92356 0.63902 0.0142 0.0
C973 C 0.92885 0.63835 0.02794 0.0
C974 C 0.96174 0.65334 0.0336 0.0
C975 C 0.9899 0.668 0.02538 0.0
H976 H 0.18881 0.05141 0.15289 0.0
H977 H 0.25274 0.98019 0.12685 0.0
H978 H 0.22855 0.01499 0.10771 0.0
H979 H 0.11156 0.04982 0.13692 0.0
H980 H 0.09632 0.09745 0.13904 0.0
H981 H 0.12775 0.07706 0.15075 0.0
H982 H 0.17604 0.12984 0.14692 0.0
H983 H 0.14421 0.1514 0.13542 0.0
H984 H 0.19132 0.14043 0.13044 0.0
H985 H 0.18248 0.04147 0.09208 0.0
H986 H 0.12595 0.06569 0.08096 0.0
H987 H 0.09362 0.12297 0.11673 0.0
C988 C 0.19944 0.04477 0.14319 0.0
C989 C 0.22269 0.0134 0.14129 0.0
C990 C 0.23548 0.00461 0.1285 0.0
C991 C 0.22164 0.02412 0.11757 0.0
C992 C 0.19598 0.0529 0.11968 0.0
C993 C 0.18606 0.06419 0.13222 0.0
C994 C 0.15402 0.09188 0.13189 0.0
C995 C 0.12047 0.07819 0.14013 0.0
C996 C 0.1672 0.1307 0.13643 0.0
C997 C 0.14516 0.09176 0.11733 0.0
C998 C 0.17002 0.06956 0.11041 0.0
C999 C 0.16383 0.06019 0.09726 0.0
C1000 C 0.1315 0.07371 0.09106 0.0
C1001 C 0.10599 0.09659 0.09798 0.0
C1002 C 0.11343 0.10645 0.11115 0.0
H1003 H 0.32675 0.94536 0.37158 0.0
H1004 H 0.35615 0.99624 0.33433 0.0
H1005 H 0.38857 0.04758 0.34619 0.0
H1006 H 0.31362 0.03016 0.39073 0.0
H1007 H 0.33549 0.01139 0.40528 0.0
H1008 H 0.31185 0.98065 0.39394 0.0
H1009 H 0.37211 0.94103 0.39157 0.0
H1010 H 0.39584 0.9715 0.40295 0.0
H1011 H 0.41516 0.96354 0.38682 0.0
H1012 H 0.41688 0.09345 0.36216 0.0
H1013 H 0.44706 0.1261 0.38076 0.0
H1014 H 0.40447 0.04194 0.40761 0.0
C1015 C 0.33971 0.96763 0.36598 0.0
C1016 C 0.33865 0.96751 0.3521 0.0
C1017 C 0.3566 0.99629 0.34499 0.0
C1018 C 0.37485 0.02551 0.35164 0.0
C1019 C 0.37543 0.02496 0.36537 0.0
C1020 C 0.35893 0.9964 0.37246 0.0
C1021 C 0.36637 0.00068 0.38708 0.0
C1022 C 0.32964 0.00605 0.3947 0.0
C1023 C 0.3887 0.96721 0.39241 0.0
C1024 C 0.38964 0.03611 0.38712 0.0
C1025 C 0.39386 0.05006 0.37452 0.0
C1026 C 0.41388 0.08272 0.37206 0.0
C1027 C 0.43075 0.10119 0.38271 0.0
C1028 C 0.42817 0.08656 0.39564 0.0
C1029 C 0.40698 0.05376 0.39784 0.0
H1030 H 0.48564 0.2904 0.613 0.0
H1031 H 0.42679 0.18534 0.60753 0.0
H1032 H 0.37433 0.20935 0.62105 0.0
H1033 H 0.46071 0.30572 0.64637 0.0
H1034 H 0.45602 0.35555 0.64435 0.0
H1035 H 0.48754 0.32973 0.63397 0.0
H1036 H 0.45318 0.35557 0.6132 0.0
H1037 H 0.42201 0.38142 0.62379 0.0
H1038 H 0.40343 0.34954 0.61171 0.0
H1039 H 0.32676 0.24723 0.63472 0.0
H1040 H 0.29225 0.29252 0.64875 0.0
H1041 H 0.38543 0.36969 0.64609 0.0
C1042 C 0.46177 0.2723 0.6146 0.0
C1043 C 0.46035 0.23596 0.60916 0.0
C1044 C 0.42856 0.21327 0.6116 0.0
C1045 C 0.39858 0.22672 0.61923 0.0
C1046 C 0.40095 0.26279 0.62442 0.0
C1047 C 0.43196 0.28504 0.62226 0.0
C1048 C 0.42827 0.32248 0.62901 0.0
C1049 C 0.46001 0.32872 0.63902 0.0
C1050 C 0.42665 0.35416 0.61882 0.0
C1051 C 0.39089 0.31759 0.63571 0.0
C1052 C 0.37491 0.28343 0.6327 0.0
C1053 C 0.33928 0.27385 0.63723 0.0
C1054 C 0.31983 0.2997 0.64514 0.0
C1055 C 0.33648 0.33423 0.64863 0.0
C1056 C 0.37236 0.34314 0.64379 0.0
H1057 H 0.03766 0.27559 0.88417 0.0
H1058 H 0.11565 0.1873 0.89388 0.0
H1059 H 0.16607 0.22173 0.88203 0.0
H1060 H 0.07523 0.29798 0.85165 0.0
H1061 H 0.06726 0.34727 0.85362 0.0
H1062 H 0.03668 0.31411 0.86154 0.0
H1063 H 0.04901 0.34459 0.88398 0.0
H1064 H 0.08061 0.37812 0.8769 0.0
H1065 H 0.09623 0.34849 0.8901 0.0
H1066 H 0.20949 0.27176 0.87051 0.0
H1067 H 0.23805 0.32729 0.85964 0.0
H1068 H 0.12904 0.38055 0.85894 0.0
C1069 C 0.06512 0.2629 0.8835 0.0
C1070 C 0.07278 0.2287 0.88981 0.0
C1071 C 0.10911 0.2132 0.88888 0.0
C1072 C 0.13791 0.23278 0.88228 0.0
C1073 C 0.12962 0.2675 0.87662 0.0
C1074 C 0.09373 0.28187 0.87704 0.0
C1075 C 0.09153 0.32022 0.87097 0.0
C1076 C 0.06615 0.31987 0.85872 0.0
C1077 C 0.07857 0.34954 0.88109 0.0
C1078 C 0.13192 0.32592 0.86725 0.0
C1079 C 0.15381 0.29544 0.87043 0.0
C1080 C 0.19233 0.29555 0.86792 0.0
C1081 C 0.20841 0.32728 0.86182 0.0
C1082 C 0.18595 0.35844 0.85839 0.0
C1083 C 0.14733 0.3574 0.86133 0.0
H1084 H 0.8844 0.26739 0.9067 0.0
H1085 H 0.88537 0.15513 0.89053 0.0
H1086 H 0.82876 0.17009 0.87753 0.0
H1087 H 0.77969 0.28161 0.90662 0.0
H1088 H 0.78516 0.32978 0.90179 0.0
H1089 H 0.82009 0.30774 0.91198 0.0
H1090 H 0.8717 0.32527 0.89508 0.0
H1091 H 0.83704 0.3479 0.88513 0.0
H1092 H 0.86577 0.3117 0.87811 0.0
H1093 H 0.7811 0.20099 0.86308 0.0
H1094 H 0.75143 0.24535 0.84771 0.0
H1095 H 0.77931 0.3369 0.8737 0.0
C1096 C 0.87212 0.24543 0.90076 0.0
C1097 C 0.88938 0.20993 0.89972 0.0
C1098 C 0.87263 0.18241 0.8916 0.0
C1099 C 0.84029 0.19065 0.88422 0.0
C1100 C 0.8247 0.22637 0.88519 0.0
C1101 C 0.84008 0.25325 0.89334 0.0
C1102 C 0.82173 0.29098 0.89127 0.0
C1103 C 0.80039 0.30324 0.90366 0.0
C1104 C 0.85077 0.32067 0.88715 0.0
C1105 C 0.79498 0.28178 0.88015 0.0
C1106 C 0.79642 0.24413 0.87698 0.0
C1107 C 0.77875 0.23018 0.86575 0.0
C1108 C 0.76146 0.25553 0.85712 0.0
C1109 C 0.76197 0.29438 0.85975 0.0
C1110 C 0.77679 0.3072 0.87181 0.0
H1111 H 0.67359 0.21542 0.59838 0.0
H1112 H 0.60341 0.15043 0.62438 0.0
H1113 H 0.64015 0.17273 0.64343 0.0
H1114 H 0.76422 0.21535 0.62012 0.0
H1115 H 0.77281 0.26315 0.61541 0.0
H1116 H 0.7518 0.23111 0.60384 0.0
H1117 H 0.69643 0.27698 0.60079 0.0
H1118 H 0.71675 0.30861 0.61244 0.0
H1119 H 0.66991 0.29141 0.615 0.0
H1120 H 0.66873 0.21703 0.65937 0.0
H1121 H 0.68958 0.2746 0.67055 0.0
H1122 H 0.74143 0.31274 0.6345 0.0
C1123 C 0.6677 0.20392 0.60802 0.0
C1124 C 0.63596 0.18089 0.60991 0.0
C1125 C 0.62811 0.16728 0.62266 0.0
C1126 C 0.64872 0.18023 0.63357 0.0
C1127 C 0.67742 0.20621 0.6315 0.0
C1128 C 0.6876 0.21716 0.61895 0.0
C1129 C 0.714 0.25044 0.61933 0.0
C1130 C 0.75303 0.23934 0.61438 0.0
C1131 C 0.69829 0.28378 0.61143 0.0
C1132 C 0.71465 0.25861 0.63395 0.0
C1133 C 0.6942 0.23218 0.64085 0.0
C1134 C 0.68592 0.23702 0.65415 0.0
C1135 C 0.69775 0.26994 0.66042 0.0
C1136 C 0.7177 0.29781 0.65344 0.0
C1137 C 0.72744 0.2913 0.64018 0.0
H1138 H 0.6803 0.06946 0.35387 0.0
H1139 H 0.74552 -0.00202 0.37941 0.0
H1140 H 0.72231 0.0327 0.39877 0.0
H1141 H 0.68509 0.15835 0.37607 0.0
H1142 H 0.63774 0.16982 0.3715 0.0
H1143 H 0.66829 0.14749 0.35978 0.0
H1144 H 0.61917 0.09504 0.35658 0.0
H1145 H 0.58892 0.11649 0.36842 0.0
H1146 H 0.60354 0.06872 0.37067 0.0
H1147 H 0.67753 0.06067 0.41488 0.0
H1148 H 0.62163 0.08528 0.42626 0.0
H1149 H 0.58786 0.14201 0.39055 0.0
C1150 C 0.6914 0.06269 0.3635 0.0
C1151 C 0.71496 0.03139 0.36517 0.0
C1152 C 0.72816 0.02241 0.3779 0.0
C1153 C 0.71485 0.04187 0.38897 0.0
C1154 C 0.68924 0.07085 0.38707 0.0
C1155 C 0.67864 0.08211 0.37458 0.0
C1156 C 0.64704 0.11029 0.37513 0.0
C1157 C 0.66035 0.14878 0.37034 0.0
C1158 C 0.61268 0.09679 0.36725 0.0
C1159 C 0.6393 0.11079 0.38977 0.0
C1160 C 0.66427 0.08832 0.39654 0.0
C1161 C 0.65884 0.07956 0.40979 0.0
C1162 C 0.62691 0.09349 0.41617 0.0
C1163 C 0.60097 0.11623 0.40935 0.0
C1164 C 0.60802 0.12589 0.39613 0.0
H1165 H 0.81095 0.97956 0.13141 0.0
H1166 H 0.79759 0.0629 0.16188 0.0
H1167 H 0.83018 0.10944 0.14796 0.0
H1168 H 0.90121 0.00143 0.12459 0.0
H1169 H 0.89948 0.9931 0.10711 0.0
H1170 H 0.8675 0.96917 0.11782 0.0
H1171 H 0.81119 0.99478 0.10456 0.0
H1172 H 0.84307 0.01841 0.09363 0.0
H1173 H 0.80689 0.0444 0.10191 0.0
H1174 H 0.87249 0.14384 0.13217 0.0
H1175 H 0.92093 0.16276 0.11615 0.0
H1176 H 0.90914 0.05575 0.09641 0.0
C1177 C 0.8131 0.00821 0.13478 0.0
C1178 C 0.80037 0.01828 0.14743 0.0
C1179 C 0.80588 0.05524 0.15198 0.0
C1180 C 0.82457 0.08172 0.14417 0.0
C1181 C 0.83801 0.07064 0.13188 0.0
C1182 C 0.83231 0.03475 0.12717 0.0
C1183 C 0.85395 0.02828 0.11455 0.0
C1184 C 0.8822 0.99611 0.11612 0.0
C1185 C 0.82717 0.02105 0.10297 0.0
C1186 C 0.87362 0.06562 0.11311 0.0
C1187 C 0.86362 0.08993 0.12306 0.0
C1188 C 0.88004 0.12521 0.12422 0.0
C1189 C 0.90762 0.13573 0.11506 0.0
C1190 C 0.91892 0.11088 0.10496 0.0
C1191 C 0.90106 0.07562 0.10392 0.0
H1192 H 0.62392 0.4425 0.63917 0.0
H1193 H 0.71599 0.51936 0.64546 0.0
H1194 H 0.68315 0.56727 0.63209 0.0
H1195 H 0.60826 0.47247 0.60469 0.0
H1196 H 0.55856 0.46546 0.60569 0.0
H1197 H 0.58984 0.43669 0.61531 0.0
H1198 H 0.55456 0.45515 0.63645 0.0
H1199 H 0.52332 0.48478 0.62732 0.0
H1200 H 0.55006 0.50386 0.64077 0.0
H1201 H 0.63663 0.60842 0.61943 0.0
H1202 H 0.58368 0.63697 0.60731 0.0
H1203 H 0.5247 0.53087 0.60852 0.0
C1204 C 0.63727 0.46934 0.63763 0.0
C1205 C 0.67225 0.47751 0.6434 0.0
C1206 C 0.68918 0.51267 0.64107 0.0
C1207 C 0.67069 0.54 0.63353 0.0
C1208 C 0.63581 0.53127 0.62814 0.0
C1209 C 0.61975 0.49644 0.62987 0.0
C1210 C 0.58257 0.49357 0.62283 0.0
C1211 C 0.58493 0.46532 0.61147 0.0
C1212 C 0.55077 0.48375 0.63242 0.0
C1213 C 0.57888 0.53292 0.61761 0.0
C1214 C 0.61001 0.55424 0.62058 0.0
C1215 C 0.61232 0.59179 0.61694 0.0
C1216 C 0.58207 0.6078 0.61008 0.0
C1217 C 0.54996 0.58625 0.60693 0.0
C1218 C 0.54876 0.54825 0.61072 0.0
H1219 H 0.91281 0.59144 0.8909 0.0
H1220 H -0.00097 0.51302 0.90302 0.0
H1221 H 0.96943 0.46389 0.88981 0.0
H1222 H 0.83642 0.52405 0.89168 0.0
H1223 H 0.81299 0.54267 0.8774 0.0
H1224 H 0.84099 0.5729 0.88764 0.0
H1225 H 0.88015 0.59238 0.86736 0.0
H1226 H 0.85227 0.5622 0.85706 0.0
H1227 H 0.90239 0.55686 0.85751 0.0
H1228 H 0.93249 0.42319 0.87544 0.0
H1229 H 0.88784 0.39143 0.86096 0.0
H1230 H 0.82255 0.49339 0.8578 0.0
C1231 C 0.92536 0.56391 0.89076 0.0
C1232 C 0.95834 0.55629 0.89808 0.0
C1233 C 0.97374 0.51977 0.89764 0.0
C1234 C 0.95719 0.49153 0.89011 0.0
C1235 C 0.92485 0.49983 0.88309 0.0
C1236 C 0.90878 0.53491 0.88335 0.0
C1237 C 0.8734 0.53551 0.87496 0.0
C1238 C 0.83891 0.5443 0.88343 0.0
C1239 C 0.8773 0.5634 0.86354 0.0
C1240 C 0.87241 0.49536 0.86996 0.0
C1241 C 0.90265 0.4756 0.87478 0.0
C1242 C 0.90865 0.43832 0.8716 0.0
C1243 C 0.88309 0.42055 0.86328 0.0
C1244 C 0.85164 0.43979 0.85811 0.0
C1245 C 0.84618 0.47782 0.86159 0.0
H1246 H 0.87407 0.76022 0.1006 0.0
H1247 H 0.95051 0.69615 0.12486 0.0
H1248 H 0.92447 0.72592 0.14478 0.0
H1249 H 0.88148 0.84216 0.11678 0.0
H1250 H 0.83318 0.85612 0.11556 0.0
H1251 H 0.85272 0.82516 0.10347 0.0
H1252 H 0.80128 0.77597 0.1083 0.0
H1253 H 0.78101 0.80712 0.12027 0.0
H1254 H 0.79392 0.7603 0.12495 0.0
H1255 H 0.89997 0.77273 0.16126 0.0
H1256 H 0.87121 0.82554 0.17342 0.0
H1257 H 0.80743 0.85496 0.13864 0.0
C1258 C 0.8843 0.75143 0.11015 0.0
C1259 C 0.91415 0.72588 0.11123 0.0
C1260 C 0.92726 0.71533 0.12384 0.0
C1261 C 0.91279 0.73226 0.13521 0.0
C1262 C 0.8846 0.75883 0.13377 0.0
C1263 C 0.86969 0.76749 0.12157 0.0
C1264 C 0.84131 0.79868 0.12254 0.0
C1265 C 0.8529 0.83251 0.11409 0.0
C1266 C 0.80205 0.78467 0.1188 0.0
C1267 C 0.84389 0.80746 0.13706 0.0
C1268 C 0.86904 0.7843 0.1434 0.0
C1269 C 0.8793 0.79022 0.15651 0.0
C1270 C 0.86313 0.82036 0.1633 0.0
C1271 C 0.83672 0.84369 0.157 0.0
C1272 C 0.82679 0.83682 0.14378 0.0
H1273 H 0.64869 0.89063 0.37306 0.0
H1274 H 0.7232 0.81317 0.35345 0.0
H1275 H 0.69738 0.76122 0.36696 0.0
H1276 H 0.6549 0.84658 0.40577 0.0
H1277 H 0.60672 0.85703 0.40946 0.0
H1278 H 0.63315 0.88757 0.39887 0.0
H1279 H 0.58279 0.88003 0.38066 0.0
H1280 H 0.5564 0.84955 0.3912 0.0
H1281 H 0.57026 0.83372 0.3751 0.0
H1282 H 0.65675 0.71703 0.38101 0.0
H1283 H 0.60983 0.68615 0.39531 0.0
H1284 H 0.56619 0.79488 0.40631 0.0
C1285 C 0.65995 0.86278 0.37173 0.0
C1286 C 0.68771 0.85565 0.36221 0.0
C1287 C 0.70202 0.81905 0.36077 0.0
C1288 C 0.68743 0.78949 0.36836 0.0
C1289 C 0.65933 0.79743 0.37751 0.0
C1290 C 0.64636 0.83343 0.37936 0.0
C1291 C 0.61581 0.83503 0.3896 0.0
C1292 C 0.62841 0.8579 0.40164 0.0
C1293 C 0.57918 0.85048 0.38377 0.0
C1294 C 0.61236 0.79407 0.3929 0.0
C1295 C 0.63761 0.77263 0.38589 0.0
C1296 C 0.63739 0.73368 0.38671 0.0
C1297 C 0.61058 0.71638 0.39482 0.0
C1298 C 0.58453 0.73808 0.40204 0.0
C1299 C 0.58603 0.77741 0.40113 0.0
H1300 H 0.38846 0.75657 0.41031 0.0
H1301 H 0.41059 0.65414 0.3888 0.0
H1302 H 0.36122 0.67081 0.37282 0.0
H1303 H 0.28471 0.76119 0.40336 0.0
H1304 H 0.28654 0.81132 0.40175 0.0
H1305 H 0.31797 0.78779 0.41289 0.0
H1306 H 0.37467 0.81857 0.40127 0.0
H1307 H 0.34352 0.84221 0.3902 0.0
H1308 H 0.38015 0.81291 0.38374 0.0
H1309 H 0.31952 0.70441 0.35695 0.0
H1310 H 0.28944 0.75178 0.34276 0.0
H1311 H 0.29177 0.83114 0.37486 0.0
C1312 C 0.3822 0.73698 0.40249 0.0
C1313 C 0.40345 0.70392 0.40087 0.0
C1314 C 0.39463 0.67948 0.39033 0.0
C1315 C 0.3665 0.68869 0.38121 0.0
C1316 C 0.34699 0.72216 0.38286 0.0
C1317 C 0.35422 0.74574 0.39333 0.0
C1318 C 0.33264 0.78203 0.39208 0.0
C1319 C 0.30375 0.78579 0.40318 0.0
C1320 C 0.35934 0.81589 0.3918 0.0
C1321 C 0.31363 0.77613 0.3789 0.0
C1322 C 0.32175 0.74113 0.37383 0.0
C1323 C 0.31181 0.73128 0.36101 0.0
C1324 C 0.2945 0.75823 0.35303 0.0
C1325 C 0.2869 0.79443 0.35793 0.0
C1326 C 0.29542 0.80299 0.37115 0.0
H1327 H 0.14083 0.87796 0.13547 0.0
H1328 H 0.22644 0.79917 0.14733 0.0
H1329 H 0.20031 0.75243 0.13165 0.0
H1330 H 0.0662 0.8149 0.13177 0.0
H1331 H 0.04702 0.83789 0.1175 0.0
H1332 H 0.07341 0.86431 0.12938 0.0
H1333 H 0.11805 0.88683 0.1109 0.0
H1334 H 0.09187 0.86023 0.09897 0.0
H1335 H 0.14149 0.85286 0.10074 0.0
H1336 H 0.1595 0.71252 0.11576 0.0
H1337 H 0.11161 0.68564 0.10076 0.0
H1338 H 0.05762 0.79395 0.09842 0.0
C1339 C 0.15415 0.85085 0.1348 0.0
C1340 C 0.1853 0.84192 0.14276 0.0
C1341 C 0.2024 0.80646 0.14137 0.0
C1342 C 0.18774 0.77982 0.13248 0.0
C1343 C 0.15665 0.78955 0.12484 0.0
C1344 C 0.14055 0.82454 0.12582 0.0
C1345 C 0.10761 0.82869 0.11659 0.0
C1346 C 0.07144 0.83691 0.12427 0.0
C1347 C 0.11523 0.85894 0.10618 0.0
C1348 C 0.10676 0.79019 0.11047 0.0
C1349 C 0.13509 0.76778 0.11531 0.0
C1350 C 0.13771 0.73014 0.11174 0.0
C1351 C 0.11042 0.71509 0.10319 0.0
C1352 C 0.08114 0.73774 0.0982 0.0
C1353 C 0.08005 0.77593 0.10175 0.0
H1354 H 0.14477 0.59801 0.91111 0.0
H1355 H 0.09618 0.68007 0.88478 0.0
H1356 H 0.14501 0.66564 0.86835 0.0
H1357 H 0.24645 0.60408 0.89917 0.0
H1358 H 0.25109 0.55413 0.90077 0.0
H1359 H 0.2216 0.57972 0.91199 0.0
H1360 H 0.16576 0.53669 0.90598 0.0
H1361 H 0.19491 0.51115 0.89485 0.0
H1362 H 0.15215 0.53198 0.88896 0.0
H1363 H 0.18736 0.63186 0.85306 0.0
H1364 H 0.21399 0.58006 0.84014 0.0
H1365 H 0.23333 0.51739 0.87582 0.0
C1366 C 0.1452 0.61421 0.90212 0.0
C1367 C 0.11656 0.64036 0.89929 0.0
C1368 C 0.11795 0.66027 0.88728 0.0
C1369 C 0.14573 0.65224 0.87789 0.0
C1370 C 0.17205 0.62439 0.88067 0.0
C1371 C 0.17206 0.60584 0.89259 0.0
C1372 C 0.19777 0.57212 0.89233 0.0
C1373 C 0.23122 0.57788 0.90162 0.0
C1374 C 0.17635 0.5359 0.89571 0.0
C1375 C 0.21013 0.57275 0.87808 0.0
C1376 C 0.19624 0.60402 0.87166 0.0
C1377 C 0.19938 0.60803 0.85806 0.0
C1378 C 0.21485 0.57856 0.85078 0.0
C1379 C 0.22674 0.54533 0.85706 0.0
C1380 C 0.22616 0.54326 0.8709 0.0
H1381 H 0.35893 0.52221 0.66262 0.0
H1382 H 0.24687 0.5161 0.64632 0.0
H1383 H 0.25934 0.57282 0.63327 0.0
H1384 H 0.3691 0.62753 0.6622 0.0
H1385 H 0.41739 0.62396 0.65728 0.0
H1386 H 0.39693 0.58845 0.66761 0.0
H1387 H 0.41635 0.53737 0.65085 0.0
H1388 H 0.43718 0.57248 0.64063 0.0
H1389 H 0.40195 0.54182 0.63392 0.0
H1390 H 0.2877 0.62131 0.6188 0.0
H1391 H 0.33058 0.65233 0.60323 0.0
H1392 H 0.42365 0.62947 0.62914 0.0
C1393 C 0.3365 0.53348 0.65666 0.0
C1394 C 0.30172 0.51475 0.65564 0.0
C1395 C 0.27361 0.52996 0.6474 0.0
C1396 C 0.28039 0.56242 0.63999 0.0
C1397 C 0.31534 0.57964 0.64097 0.0
C1398 C 0.34294 0.56565 0.64914 0.0
C1399 C 0.37986 0.58554 0.64694 0.0
C1400 C 0.39149 0.60769 0.65925 0.0
C1401 C 0.41061 0.55766 0.64283 0.0
C1402 C 0.36933 0.61157 0.63577 0.0
C1403 C 0.33172 0.60844 0.63268 0.0
C1404 C 0.31681 0.62509 0.62141 0.0
C1405 C 0.34126 0.6432 0.61268 0.0
C1406 C 0.38009 0.64463 0.61528 0.0
C1407 C 0.39379 0.63063 0.62733 0.0
H1408 H 0.01924 0.002 0.04839 0.0
H1409 H 0.89873 0.00789 0.05171 0.0
H1410 H 0.89353 0.94476 0.04227 0.0
H1411 H 0.02026 0.92676 0.01886 0.0
H1412 H 0.06095 0.90595 0.02634 0.0
H1413 H 0.05496 0.95601 0.02662 0.0
H1414 H 0.06248 0.95539 0.05192 0.0
H1415 H 0.06801 0.90591 0.05176 0.0
H1416 H 0.03168 0.92659 0.06168 0.0
H1417 H 0.90141 0.87855 0.04207 0.0
H1418 H 0.92093 0.81782 0.05073 0.0
H1419 H 0.03712 0.85028 0.04738 0.0
C1420 C 0.99175 0.99041 0.04655 0.0
C1421 C 0.95943 0.00908 0.05094 0.0
C1422 C 0.92382 0.99377 0.04841 0.0
C1423 C 0.92069 0.95802 0.04293 0.0
C1424 C 0.95341 0.93847 0.0399 0.0
C1425 C 0.98845 0.95462 0.04126 0.0
C1426 C 0.01929 0.92571 0.04046 0.0
C1427 C 0.04007 0.92879 0.02728 0.0
C1428 C 0.04685 0.92857 0.05216 0.0
C1429 C 0.99605 0.89044 0.04091 0.0
C1430 C 0.95818 0.89837 0.03968 0.0
C1431 C 0.93088 0.87178 0.04253 0.0
C1432 C 0.94223 0.83742 0.04761 0.0
C1433 C 0.98056 0.82988 0.04973 0.0
C1434 C 0.00776 0.85556 0.04555 0.0
H1435 H 0.42576 0.8618 0.30383 0.0
H1436 H 0.4238 0.77174 0.33226 0.0
H1437 H 0.48751 0.78813 0.33926 0.0
H1438 H 0.53566 0.86314 0.29865 0.0
H1439 H 0.53368 0.91337 0.29752 0.0
H1440 H 0.49603 0.88537 0.29096 0.0
H1441 H 0.4496 0.92336 0.30511 0.0
H1442 H 0.48676 0.95012 0.31232 0.0
H1443 H 0.45527 0.92428 0.32275 0.0
H1444 H 0.53755 0.82703 0.34862 0.0
H1445 H 0.57979 0.87728 0.35605 0.0
H1446 H 0.55004 0.94342 0.3219 0.0
C1447 C 0.43993 0.84399 0.31086 0.0
C1448 C 0.41999 0.81591 0.31762 0.0
C1449 C 0.43872 0.79327 0.32691 0.0
C1450 C 0.47491 0.80263 0.33104 0.0
C1451 C 0.49199 0.83388 0.32546 0.0
C1452 C 0.47585 0.85334 0.31514 0.0
C1453 C 0.49655 0.88953 0.31244 0.0
C1454 C 0.51669 0.88773 0.2991 0.0
C1455 C 0.47047 0.92379 0.31321 0.0
C1456 C 0.52421 0.88919 0.32367 0.0
C1457 C 0.52162 0.85659 0.33092 0.0
C1458 C 0.54077 0.85206 0.34276 0.0
C1459 C 0.56395 0.88111 0.34708 0.0
C1460 C 0.5676 0.91428 0.33961 0.0
C1461 C 0.54768 0.91821 0.32774 0.0
H1462 H 0.55821 0.35938 0.57749 0.0
H1463 H 0.56857 0.33844 0.61945 0.0
H1464 H 0.52253 0.38807 0.62389 0.0
H1465 H 0.54454 0.46143 0.58003 0.0
H1466 H 0.5119 0.46133 0.56649 0.0
H1467 H 0.54895 0.42732 0.56705 0.0
H1468 H 0.49925 0.37464 0.56494 0.0
H1469 H 0.46197 0.40843 0.56495 0.0
H1470 H 0.46239 0.37143 0.57699 0.0
H1471 H 0.47079 0.43515 0.62356 0.0
H1472 H 0.42588 0.48554 0.61879 0.0
H1473 H 0.44852 0.47353 0.57699 0.0
C1474 C 0.55169 0.36595 0.58764 0.0
C1475 C 0.56671 0.34489 0.5981 0.0
C1476 C 0.55743 0.35426 0.61126 0.0
C1477 C 0.53092 0.38202 0.61388 0.0
C1478 C 0.5145 0.40022 0.60325 0.0
C1479 C 0.52528 0.39334 0.59043 0.0
C1480 C 0.50297 0.41626 0.58075 0.0
C1481 C 0.52862 0.44319 0.57314 0.0
C1482 C 0.48032 0.39118 0.57136 0.0
C1483 C 0.47772 0.43693 0.59014 0.0
C1484 C 0.48465 0.42721 0.60306 0.0
C1485 C 0.46521 0.44322 0.61348 0.0
C1486 C 0.43943 0.47149 0.61065 0.0
C1487 C 0.4339 0.48362 0.59751 0.0
C1488 C 0.45205 0.46482 0.58713 0.0
H1489 H 0.05726 0.442 0.82487 0.0
H1490 H 0.06767 0.45137 0.86735 0.0
H1491 H 0.01486 0.40774 0.87008 0.0
H1492 H 0.9538 0.43436 0.82445 0.0
H1493 H 0.95489 0.40222 0.81079 0.0
H1494 H 0.99089 0.43714 0.81248 0.0
H1495 H 0.04076 0.38451 0.81157 0.0
H1496 H 0.00485 0.34932 0.81047 0.0
H1497 H 0.03912 0.34723 0.82349 0.0
H1498 H 0.96816 0.3557 0.86815 0.0
H1499 H 0.91677 0.31341 0.86184 0.0
H1500 H 0.93564 0.33993 0.82068 0.0
C1501 C 0.04786 0.43566 0.83475 0.0
C1502 C 0.06682 0.44976 0.84588 0.0
C1503 C 0.05361 0.44086 0.85865 0.0
C1504 C 0.02387 0.41583 0.86032 0.0
C1505 C 0.00765 0.40031 0.84913 0.0
C1506 C 0.01824 0.41086 0.8366 0.0
C1507 C 0.99609 0.39023 0.8262 0.0
C1508 C 0.9725 0.41761 0.818 0.0
C1509 C 0.02175 0.36642 0.81742 0.0
C1510 C 0.97188 0.36592 0.83486 0.0
C1511 C 0.97948 0.37162 0.84803 0.0
C1512 C 0.96131 0.3516 0.85787 0.0
C1513 C 0.93246 0.32726 0.85416 0.0
C1514 C 0.92167 0.32403 0.84077 0.0
C1515 C 0.94302 0.3421 0.83099 0.0
H1516 H 0.03997 0.34138 0.92542 0.0
H1517 H 0.95651 0.35145 0.95618 0.0
H1518 H 0.9903 0.4065 0.96505 0.0
H1519 H 0.12239 0.37565 0.94499 0.0
H1520 H 0.14084 0.39986 0.93086 0.0
H1521 H 0.11476 0.3571 0.92871 0.0
H1522 H 0.06877 0.39056 0.91281 0.0
H1523 H 0.09536 0.43267 0.91464 0.0
H1524 H 0.04594 0.43282 0.91817 0.0
H1525 H 0.02673 0.46468 0.96826 0.0
H1526 H 0.05402 0.52605 0.96302 0.0
H1527 H 0.11478 0.47726 0.93051 0.0
C1528 C 0.02912 0.35462 0.93421 0.0
C1529 C 0.99574 0.34216 0.94017 0.0
C1530 C 0.98202 0.3607 0.95145 0.0
C1531 C 0.00139 0.39151 0.95667 0.0
C1532 C 0.03449 0.40291 0.95056 0.0
C1533 C 0.04798 0.38512 0.93948 0.0
C1534 C 0.0804 0.40592 0.9334 0.0
C1535 C 0.11675 0.38327 0.93457 0.0
C1536 C 0.07207 0.41612 0.91892 0.0
C1537 C 0.08143 0.43992 0.94221 0.0
C1538 C 0.05577 0.43692 0.95239 0.0
C1539 C 0.0475 0.46702 0.96057 0.0
C1540 C 0.06326 0.50175 0.95757 0.0
C1541 C 0.08645 0.50595 0.9464 0.0
C1542 C 0.09804 0.47428 0.93932 0.0
H1543 H 0.07563 0.94827 0.19252 0.0
H1544 H 0.09595 0.05922 0.17706 0.0
H1545 H 0.03461 0.07995 0.18556 0.0
H1546 H 0.98869 0.93911 0.1832 0.0
H1547 H 0.97132 0.9147 0.19747 0.0
H1548 H 0.01994 0.91228 0.19345 0.0
H1549 H 0.03674 0.93702 0.21673 0.0
H1550 H 0.98768 0.93991 0.22076 0.0
H1551 H 0.01717 0.98055 0.22241 0.0
H1552 H 0.96697 0.0834 0.1903 0.0
H1553 H 0.89971 0.0683 0.18984 0.0
H1554 H 0.9241 0.95674 0.20396 0.0
C1555 C 0.06751 0.97719 0.19128 0.0
C1556 C 0.09001 0.00214 0.18412 0.0
C1557 C 0.07885 0.03977 0.18259 0.0
C1558 C 0.0443 0.05184 0.1875 0.0
C1559 C 0.02203 0.02618 0.19423 0.0
C1560 C 0.03356 0.98973 0.19632 0.0
C1561 C 0.00268 0.96605 0.20204 0.0
C1562 C 0.99522 0.93105 0.19352 0.0
C1563 C 0.01161 0.95526 0.21634 0.0
C1564 C 0.97079 0.99364 0.20144 0.0
C1565 C 0.98269 0.02865 0.19741 0.0
C1566 C 0.95738 0.0566 0.19389 0.0
C1567 C 0.91917 0.0478 0.19367 0.0
C1568 C 0.90705 0.01125 0.19677 0.0
C1569 C 0.93286 0.98494 0.20162 0.0
H1570 H 0.52014 0.82193 0.45199 0.0
H1571 H 0.39954 0.83136 0.45481 0.0
H1572 H 0.40665 0.89522 0.46365 0.0
H1573 H 0.54504 0.89192 0.48029 0.0
H1574 H 0.58388 0.90873 0.47066 0.0
H1575 H 0.57072 0.86007 0.46994 0.0
H1576 H 0.56491 0.86481 0.44458 0.0
H1577 H 0.5777 0.91304 0.44522 0.0
H1578 H 0.53423 0.89947 0.43754 0.0
H1579 H 0.42449 0.96062 0.46533 0.0
H1580 H 0.44997 0.02116 0.45844 0.0
H1581 H 0.55959 0.9715 0.4537 0.0
C1582 C 0.49525 0.83694 0.45495 0.0
C1583 C 0.45929 0.82203 0.45262 0.0
C1584 C 0.42736 0.84234 0.45654 0.0
C1585 C 0.43123 0.87852 0.46168 0.0
C1586 C 0.46717 0.89355 0.46296 0.0
C1587 C 0.49875 0.8731 0.45984 0.0
C1588 C 0.5333 0.89754 0.45918 0.0
C1589 C 0.55979 0.88906 0.47071 0.0
C1590 C 0.55362 0.89349 0.44584 0.0
C1591 C 0.51555 0.93557 0.46076 0.0
C1592 C 0.47775 0.93251 0.46366 0.0
C1593 C 0.45416 0.96341 0.46346 0.0
C1594 C 0.46887 0.99769 0.45942 0.0
C1595 C 0.50672 0.00067 0.45547 0.0
C1596 C 0.53077 0.96988 0.45692 0.0
H1597 H 0.5972 0.43357 0.69787 0.0
H1598 H 0.58193 0.31541 0.70543 0.0
H1599 H 0.5204 0.32888 0.71538 0.0
H1600 H 0.53396 0.47019 0.72684 0.0
H1601 H 0.51792 0.50728 0.71625 0.0
H1602 H 0.5656 0.4911 0.71517 0.0
H1603 H 0.5566 0.4792 0.69022 0.0
H1604 H 0.50938 0.49497 0.69123 0.0
H1605 H 0.51916 0.44902 0.68479 0.0
H1606 H 0.4565 0.35067 0.71717 0.0
H1607 H 0.39699 0.37669 0.70954 0.0
H1608 H 0.45141 0.48178 0.70065 0.0
C1609 C 0.58153 0.41067 0.7021 0.0
C1610 C 0.5939 0.37344 0.70079 0.0
C1611 C 0.57283 0.34415 0.70638 0.0
C1612 C 0.53803 0.35169 0.71215 0.0
C1613 C 0.52531 0.38865 0.71244 0.0
C1614 C 0.54686 0.41784 0.70774 0.0
C1615 C 0.52439 0.45344 0.70632 0.0
C1616 C 0.53616 0.4822 0.71677 0.0
C1617 C 0.52754 0.47001 0.69232 0.0
C1618 C 0.4857 0.43848 0.70913 0.0
C1619 C 0.48712 0.40165 0.7134 0.0
C1620 C 0.45504 0.37974 0.71428 0.0
C1621 C 0.42131 0.39473 0.70982 0.0
C1622 C 0.41998 0.43121 0.70447 0.0
C1623 C 0.45187 0.45413 0.70496 0.0
loop_
_geom_bond_atom_site_label_1
_geom_bond_atom_site_label_2
_geom_bond_distance
_geom_bond_site_symmetry_2
_ccdc_geom_bond_type
Co0 O3 1.970 1_455 S
Co0 N17 1.989 . S
Co0 O25 1.967 . S
Co0 O32 1.920 . S
Co1 O4 1.966 1_455 S
Co1 N10 2.022 . S
Co1 N18 1.993 . S
Co1 O26 1.941 . S
C2 O3 1.258 . S
C2 O4 1.263 . S
O3 Co0 1.970 1_655 S
O3 C2 1.258 . S
O4 Co1 1.966 1_655 S
O4 C2 1.263 . S
C5 O6 1.235 . S
C5 O32 1.289 1_655 S
O6 C5 1.235 . S
C7 C9 1.400 . S
C7 N10 1.351 1_655 S
C7 C12 1.501 . S
C8 C9 1.387 1_455 S
C8 N11 1.341 . S
C9 C7 1.400 . S
C9 C8 1.387 1_655 S
N10 Co1 2.022 . S
N10 C7 1.351 1_455 S
N10 N11 1.365 . S
N11 C8 1.341 . S
N11 N10 1.365 . S
N11 H31 0.862 . S
C12 C7 1.501 . S
C12 H13 0.961 . S
C12 H14 0.961 . S
C12 H15 0.960 . S
H13 C12 0.961 . S
H14 C12 0.961 . S
H15 C12 0.960 . S
C16 N17 1.342 . S
C16 C20 1.401 . S
C16 C21 1.499 . S
N17 Co0 1.989 . S
N17 C16 1.342 . S
N17 N18 1.388 . S
N18 Co1 1.993 . S
N18 N17 1.388 . S
N18 C19 1.346 . S
C19 N18 1.346 . S
C19 C20 1.396 . S
C19 C29 1.510 . S
C20 C16 1.401 . S
C20 C19 1.396 . S
C21 C16 1.499 . S
C21 H22 0.959 . S
C21 H23 0.962 1_455 S
C21 H24 0.961 . S
H22 C21 0.959 . S
H23 C21 0.962 1_655 S
H24 C21 0.961 . S
O25 Co0 1.967 . S
O25 C33 1.258 . S
O26 Co1 1.941 . S
O26 C33 1.266 . S
H27 C29 0.959 . S
H28 C29 0.961 1_655 S
C29 C19 1.510 . S
C29 H27 0.959 . S
C29 H28 0.961 1_455 S
C29 H30 0.960 . S
H30 C29 0.960 . S
H31 N11 0.862 . S
O32 Co0 1.920 . S
O32 C5 1.289 1_455 S
C33 O25 1.258 . S
C33 O26 1.266 . S
Co34 O37 1.970 . S
Co34 N51 1.989 . S
Co34 O59 1.967 . S
Co34 O66 1.920 . S
Co35 O38 1.966 . S
Co35 N44 2.022 . S
Co35 N52 1.993 . S
Co35 O60 1.941 . S
C36 O37 1.258 . S
C36 O38 1.263 . S
O37 Co34 1.970 . S
O37 C36 1.258 . S
O38 Co35 1.966 . S
O38 C36 1.263 . S
C39 O40 1.235 . S
C39 O66 1.289 . S
O40 C39 1.235 . S
C41 C43 1.400 . S
C41 N44 1.351 . S
C41 C46 1.501 . S
C42 C43 1.387 . S
C42 N45 1.341 . S
C43 C41 1.400 . S
C43 C42 1.387 . S
N44 Co35 2.022 . S
N44 C41 1.351 . S
N44 N45 1.365 . S
N45 C42 1.341 . S
N45 N44 1.365 . S
N45 H65 0.862 . S
C46 C41 1.501 . S
C46 H47 0.961 . S
C46 H48 0.961 . S
C46 H49 0.960 . S
H47 C46 0.961 . S
H48 C46 0.961 . S
H49 C46 0.960 . S
C50 N51 1.342 . S
C50 C54 1.401 . S
C50 C55 1.499 . S
N51 Co34 1.989 . S
N51 C50 1.342 . S
N51 N52 1.388 . S
N52 Co35 1.993 . S
N52 N51 1.388 . S
N52 C53 1.346 . S
C53 N52 1.346 . S
C53 C54 1.396 . S
C53 C63 1.510 . S
C54 C50 1.401 . S
C54 C53 1.396 . S
C55 C50 1.499 . S
C55 H56 0.959 . S
C55 H57 0.960 . S
C55 H58 0.961 . S
H56 C55 0.959 . S
H57 C55 0.960 . S
H58 C55 0.961 . S
O59 Co34 1.967 . S
O59 C67 1.258 . S
O60 Co35 1.941 . S
O60 C67 1.266 . S
H61 C63 0.959 . S
H62 C63 0.961 . S
C63 C53 1.510 . S
C63 H61 0.959 . S
C63 H62 0.961 . S
C63 H64 0.960 . S
H64 C63 0.960 . S
H65 N45 0.862 . S
O66 Co34 1.920 . S
O66 C39 1.289 . S
C67 O59 1.258 . S
C67 O60 1.266 . S
Co68 O71 1.970 . S
Co68 N85 1.989 . S
Co68 O93 1.967 . S
Co68 O100 1.920 . S
Co69 O72 1.966 . S
Co69 N78 2.022 . S
Co69 N86 1.993 . S
Co69 O94 1.941 . S
C70 O71 1.258 . S
C70 O72 1.263 . S
O71 Co68 1.970 . S
O71 C70 1.258 . S
O72 Co69 1.966 . S
O72 C70 1.263 . S
C73 O74 1.235 . S
C73 O100 1.289 . S
O74 C73 1.235 . S
C75 C77 1.400 . S
C75 N78 1.351 . S
C75 C80 1.501 . S
C76 C77 1.387 . S
C76 N79 1.341 . S
C77 C75 1.400 . S
C77 C76 1.387 . S
N78 Co69 2.022 . S
N78 C75 1.351 . S
N78 N79 1.365 . S
N79 C76 1.341 . S
N79 N78 1.365 . S
N79 H99 0.862 . S
C80 C75 1.501 . S
C80 H81 0.961 . S
C80 H82 0.961 . S
C80 H83 0.960 . S
H81 C80 0.961 . S
H82 C80 0.961 . S
H83 C80 0.960 . S
C84 N85 1.342 . S
C84 C88 1.401 . S
C84 C89 1.499 . S
N85 Co68 1.989 . S
N85 C84 1.342 . S
N85 N86 1.388 . S
N86 Co69 1.993 . S
N86 N85 1.388 . S
N86 C87 1.346 . S
C87 N86 1.346 . S
C87 C88 1.396 . S
C87 C97 1.510 . S
C88 C84 1.401 . S
C88 C87 1.396 . S
C89 C84 1.499 . S
C89 H90 0.959 . S
C89 H91 0.960 . S
C89 H92 0.961 . S
H90 C89 0.959 . S
H91 C89 0.960 . S
H92 C89 0.961 . S
O93 Co68 1.967 . S
O93 C101 1.258 . S
O94 Co69 1.941 . S
O94 C101 1.266 . S
H95 C97 0.959 . S
H96 C97 0.961 . S
C97 C87 1.510 . S
C97 H95 0.959 . S
C97 H96 0.961 . S
C97 H98 0.960 . S
H98 C97 0.960 . S
H99 N79 0.862 . S
O100 Co68 1.920 . S
O100 C73 1.289 . S
C101 O93 1.258 . S
C101 O94 1.266 . S
Co102 O105 1.970 . S
Co102 N119 1.989 . S
Co102 O127 1.967 . S
Co102 O134 1.920 . S
Co103 O106 1.966 . S
Co103 N112 2.022 . S
Co103 N120 1.993 . S
Co103 O128 1.941 . S
C104 O105 1.258 . S
C104 O106 1.263 . S
O105 Co102 1.970 . S
O105 C104 1.258 . S
O106 Co103 1.966 . S
O106 C104 1.263 . S
C107 O108 1.235 . S
C107 O134 1.289 . S
O108 C107 1.235 . S
C109 C111 1.400 . S
C109 N112 1.351 . S
C109 C114 1.501 . S
C110 C111 1.387 . S
C110 N113 1.341 . S
C111 C109 1.400 . S
C111 C110 1.387 . S
N112 Co103 2.022 . S
N112 C109 1.351 . S
N112 N113 1.365 . S
N113 C110 1.341 . S
N113 N112 1.365 . S
N113 H133 0.862 . S
C114 C109 1.501 . S
C114 H115 0.961 . S
C114 H116 0.961 . S
C114 H117 0.960 . S
H115 C114 0.961 . S
H116 C114 0.961 . S
H117 C114 0.960 . S
C118 N119 1.342 . S
C118 C122 1.401 . S
C118 C123 1.499 . S
N119 Co102 1.989 . S
N119 C118 1.342 . S
N119 N120 1.388 . S
N120 Co103 1.993 . S
N120 N119 1.388 . S
N120 C121 1.346 . S
C121 N120 1.346 . S
C121 C122 1.396 . S
C121 C131 1.510 . S
C122 C118 1.401 . S
C122 C121 1.396 . S
C123 C118 1.499 . S
C123 H124 0.959 . S
C123 H125 0.960 . S
C123 H126 0.961 . S
H124 C123 0.959 . S
H125 C123 0.960 . S
H126 C123 0.961 . S
O127 Co102 1.967 . S
O127 C135 1.258 . S
O128 Co103 1.941 . S
O128 C135 1.266 . S
H129 C131 0.959 . S
H130 C131 0.961 . S
C131 C121 1.510 . S
C131 H129 0.959 . S
C131 H130 0.961 . S
C131 H132 0.960 . S
H132 C131 0.960 . S
H133 N113 0.862 . S
O134 Co102 1.920 . S
O134 C107 1.289 . S
C135 O127 1.258 . S
C135 O128 1.266 . S
Co136 O139 1.970 1_455 S
Co136 N153 1.989 . S
Co136 O161 1.967 . S
Co136 O168 1.920 . S
Co137 O140 1.966 1_455 S
Co137 N146 2.022 . S
Co137 N154 1.993 . S
Co137 O162 1.941 . S
C138 O139 1.258 . S
C138 O140 1.263 . S
O139 Co136 1.970 1_655 S
O139 C138 1.258 . S
O140 Co137 1.966 1_655 S
O140 C138 1.263 . S
C141 O142 1.235 . S
C141 O168 1.289 1_655 S
O142 C141 1.235 . S
C143 C145 1.400 . S
C143 N146 1.351 1_655 S
C143 C148 1.501 . S
C144 C145 1.387 1_455 S
C144 N147 1.341 . S
C145 C143 1.400 . S
C145 C144 1.387 1_655 S
N146 Co137 2.022 . S
N146 C143 1.351 1_455 S
N146 N147 1.365 . S
N147 C144 1.341 . S
N147 N146 1.365 . S
N147 H167 0.862 . S
C148 C143 1.501 . S
C148 H149 0.961 . S
C148 H150 0.961 . S
C148 H151 0.960 . S
H149 C148 0.961 . S
H150 C148 0.961 . S
H151 C148 0.960 . S
C152 N153 1.342 . S
C152 C156 1.401 . S
C152 C157 1.499 . S
N153 Co136 1.989 . S
N153 C152 1.342 . S
N153 N154 1.388 . S
N154 Co137 1.993 . S
N154 N153 1.388 . S
N154 C155 1.346 . S
C155 N154 1.346 . S
C155 C156 1.396 . S
C155 C165 1.510 . S
C156 C152 1.401 . S
C156 C155 1.396 . S
C157 C152 1.499 . S
C157 H158 0.959 . S
C157 H159 0.954 1_455 S
C157 H160 0.961 . S
H158 C157 0.959 . S
H159 C157 0.954 1_655 S
H160 C157 0.961 . S
O161 Co136 1.967 . S
O161 C169 1.258 . S
O162 Co137 1.941 . S
O162 C169 1.266 . S
H163 C165 0.959 . S
H164 C165 0.961 1_655 S
C165 C155 1.510 . S
C165 H163 0.959 . S
C165 H164 0.961 1_455 S
C165 H166 0.960 . S
H166 C165 0.960 . S
H167 N147 0.862 . S
O168 Co136 1.920 . S
O168 C141 1.289 1_455 S
C169 O161 1.258 . S
C169 O162 1.266 . S
Co170 O173 1.970 . S
Co170 N187 1.989 . S
Co170 O195 1.967 . S
Co170 O202 1.920 . S
Co171 O174 1.966 . S
Co171 N180 2.022 . S
Co171 N188 1.993 . S
Co171 O196 1.941 . S
C172 O173 1.258 . S
C172 O174 1.263 . S
O173 Co170 1.970 . S
O173 C172 1.258 . S
O174 Co171 1.966 . S
O174 C172 1.263 . S
C175 O176 1.235 . S
C175 O202 1.289 . S
O176 C175 1.235 . S
C177 C179 1.400 . S
C177 N180 1.351 . S
C177 C182 1.501 . S
C178 C179 1.387 . S
C178 N181 1.341 . S
C179 C177 1.400 . S
C179 C178 1.387 . S
N180 Co171 2.022 . S
N180 C177 1.351 . S
N180 N181 1.365 . S
N181 C178 1.341 . S
N181 N180 1.365 . S
N181 H201 0.862 . S
C182 C177 1.501 . S
C182 H183 0.961 . S
C182 H184 0.961 . S
C182 H185 0.960 . S
H183 C182 0.961 . S
H184 C182 0.961 . S
H185 C182 0.960 . S
C186 N187 1.342 . S
C186 C190 1.401 . S
C186 C191 1.499 . S
N187 Co170 1.989 . S
N187 C186 1.342 . S
N187 N188 1.388 . S
N188 Co171 1.993 . S
N188 N187 1.388 . S
N188 C189 1.346 . S
C189 N188 1.346 . S
C189 C190 1.396 . S
C189 C199 1.510 . S
C190 C186 1.401 . S
C190 C189 1.396 . S
C191 C186 1.499 . S
C191 H192 0.959 . S
C191 H193 0.960 . S
C191 H194 0.961 . S
H192 C191 0.959 . S
H193 C191 0.960 . S
H194 C191 0.961 . S
O195 Co170 1.967 . S
O195 C203 1.258 . S
O196 Co171 1.941 . S
O196 C203 1.266 . S
H197 C199 0.959 . S
H198 C199 0.961 . S
C199 C189 1.510 . S
C199 H197 0.959 . S
C199 H198 0.961 . S
C199 H200 0.960 . S
H200 C199 0.960 . S
H201 N181 0.862 . S
O202 Co170 1.920 . S
O202 C175 1.289 . S
C203 O195 1.258 . S
C203 O196 1.266 . S
Co204 O207 1.970 . S
Co204 N221 1.989 . S
Co204 O229 1.967 . S
Co204 O236 1.920 . S
Co205 O208 1.966 . S
Co205 N214 2.022 . S
Co205 N222 1.993 . S
Co205 O230 1.941 . S
C206 O207 1.258 . S
C206 O208 1.263 . S
O207 Co204 1.970 . S
O207 C206 1.258 . S
O208 Co205 1.966 . S
O208 C206 1.263 . S
C209 O210 1.235 . S
C209 O236 1.289 . S
O210 C209 1.235 . S
C211 C213 1.400 . S
C211 N214 1.351 . S
C211 C216 1.501 . S
C212 C213 1.387 . S
C212 N215 1.341 . S
C213 C211 1.400 . S
C213 C212 1.387 . S
N214 Co205 2.022 . S
N214 C211 1.351 . S
N214 N215 1.365 . S
N215 C212 1.341 . S
N215 N214 1.365 . S
N215 H235 0.862 . S
C216 C211 1.501 . S
C216 H217 0.961 . S
C216 H218 0.961 . S
C216 H219 0.960 . S
H217 C216 0.961 . S
H218 C216 0.961 . S
H219 C216 0.960 . S
C220 N221 1.342 . S
C220 C224 1.401 . S
C220 C225 1.499 . S
N221 Co204 1.989 . S
N221 C220 1.342 . S
N221 N222 1.388 . S
N222 Co205 1.993 . S
N222 N221 1.388 . S
N222 C223 1.346 . S
C223 N222 1.346 . S
C223 C224 1.396 . S
C223 C233 1.510 . S
C224 C220 1.401 . S
C224 C223 1.396 . S
C225 C220 1.499 . S
C225 H226 0.959 . S
C225 H227 0.960 . S
C225 H228 0.961 . S
H226 C225 0.959 . S
H227 C225 0.960 . S
H228 C225 0.961 . S
O229 Co204 1.967 . S
O229 C237 1.258 . S
O230 Co205 1.941 . S
O230 C237 1.266 . S
H231 C233 0.959 . S
H232 C233 0.961 . S
C233 C223 1.510 . S
C233 H231 0.959 . S
C233 H232 0.961 . S
C233 H234 0.960 . S
H234 C233 0.960 . S
H235 N215 0.862 . S
O236 Co204 1.920 . S
O236 C209 1.289 . S
C237 O229 1.258 . S
C237 O230 1.266 . S
Co238 O241 1.970 . S
Co238 N255 1.989 . S
Co238 O263 1.967 . S
Co238 O270 1.920 . S
Co239 O242 1.966 . S
Co239 N248 2.022 . S
Co239 N256 1.993 . S
Co239 O264 1.941 . S
C240 O241 1.258 . S
C240 O242 1.263 . S
O241 Co238 1.970 . S
O241 C240 1.258 . S
O242 Co239 1.966 . S
O242 C240 1.263 . S
C243 O244 1.235 . S
C243 O270 1.289 . S
O244 C243 1.235 . S
C245 C247 1.400 . S
C245 N248 1.351 . S
C245 C250 1.501 . S
C246 C247 1.387 . S
C246 N249 1.341 . S
C247 C245 1.400 . S
C247 C246 1.387 . S
N248 Co239 2.022 . S
N248 C245 1.351 . S
N248 N249 1.365 . S
N249 C246 1.341 . S
N249 N248 1.365 . S
N249 H269 0.862 . S
C250 C245 1.501 . S
C250 H251 0.961 . S
C250 H252 0.961 . S
C250 H253 0.960 . S
H251 C250 0.961 . S
H252 C250 0.961 . S
H253 C250 0.960 . S
C254 N255 1.342 . S
C254 C258 1.401 . S
C254 C259 1.499 . S
N255 Co238 1.989 . S
N255 C254 1.342 . S
N255 N256 1.388 . S
N256 Co239 1.993 . S
N256 N255 1.388 . S
N256 C257 1.346 . S
C257 N256 1.346 . S
C257 C258 1.396 . S
C257 C267 1.510 . S
C258 C254 1.401 . S
C258 C257 1.396 . S
C259 C254 1.499 . S
C259 H260 0.959 . S
C259 H261 0.960 . S
C259 H262 0.961 . S
H260 C259 0.959 . S
H261 C259 0.960 . S
H262 C259 0.961 . S
O263 Co238 1.967 . S
O263 C271 1.258 . S
O264 Co239 1.941 . S
O264 C271 1.266 . S
H265 C267 0.959 . S
H266 C267 0.961 . S
C267 C257 1.510 . S
C267 H265 0.959 . S
C267 H266 0.961 . S
C267 H268 0.960 . S
H268 C267 0.960 . S
H269 N249 0.862 . S
O270 Co238 1.920 . S
O270 C243 1.289 . S
C271 O263 1.258 . S
C271 O264 1.266 . S
Co272 O275 1.970 . S
Co272 N289 1.989 . S
Co272 O297 1.967 . S
Co272 O304 1.920 . S
Co273 O276 1.966 . S
Co273 N282 2.022 . S
Co273 N290 1.993 . S
Co273 O298 1.941 . S
C274 O275 1.258 . S
C274 O276 1.263 . S
O275 Co272 1.970 . S
O275 C274 1.258 . S
O276 Co273 1.966 . S
O276 C274 1.263 . S
C277 O278 1.235 . S
C277 O304 1.289 . S
O278 C277 1.235 . S
C279 C281 1.400 . S
C279 N282 1.351 . S
C279 C284 1.501 . S
C280 C281 1.387 . S
C280 N283 1.341 . S
C281 C279 1.400 . S
C281 C280 1.387 . S
N282 Co273 2.022 . S
N282 C279 1.351 . S
N282 N283 1.365 . S
N283 C280 1.341 . S
N283 N282 1.365 . S
N283 H303 0.862 . S
C284 C279 1.501 . S
C284 H285 0.961 . S
C284 H286 0.961 . S
C284 H287 0.960 . S
H285 C284 0.961 . S
H286 C284 0.961 . S
H287 C284 0.960 . S
C288 N289 1.342 . S
C288 C292 1.401 . S
C288 C293 1.499 . S
N289 Co272 1.989 . S
N289 C288 1.342 . S
N289 N290 1.388 . S
N290 Co273 1.993 . S
N290 N289 1.388 . S
N290 C291 1.346 . S
C291 N290 1.346 . S
C291 C292 1.396 . S
C291 C301 1.510 . S
C292 C288 1.401 . S
C292 C291 1.396 . S
C293 C288 1.499 . S
C293 H294 0.959 . S
C293 H295 0.960 . S
C293 H296 0.961 . S
H294 C293 0.959 . S
H295 C293 0.960 . S
H296 C293 0.961 . S
O297 Co272 1.967 . S
O297 C305 1.258 . S
O298 Co273 1.941 . S
O298 C305 1.266 . S
H299 C301 0.959 . S
H300 C301 0.961 . S
C301 C291 1.510 . S
C301 H299 0.959 . S
C301 H300 0.961 . S
C301 H302 0.960 . S
H302 C301 0.960 . S
H303 N283 0.862 . S
O304 Co272 1.920 . S
O304 C277 1.289 . S
C305 O297 1.258 . S
C305 O298 1.266 . S
Co306 O309 1.970 . S
Co306 N323 1.989 . S
Co306 O331 1.967 . S
Co306 O338 1.920 . S
Co307 O310 1.966 . S
Co307 N316 2.022 . S
Co307 N324 1.993 . S
Co307 O332 1.941 . S
C308 O309 1.258 . S
C308 O310 1.263 . S
O309 Co306 1.970 . S
O309 C308 1.258 . S
O310 Co307 1.966 . S
O310 C308 1.263 . S
C311 O312 1.235 . S
C311 O338 1.289 . S
O312 C311 1.235 . S
C313 C315 1.400 . S
C313 N316 1.351 . S
C313 C318 1.501 . S
C314 C315 1.387 . S
C314 N317 1.341 . S
C315 C313 1.400 . S
C315 C314 1.387 . S
N316 Co307 2.022 . S
N316 C313 1.351 . S
N316 N317 1.365 . S
N317 C314 1.341 . S
N317 N316 1.365 . S
N317 H337 0.862 . S
C318 C313 1.501 . S
C318 H319 0.961 . S
C318 H320 0.961 . S
C318 H321 0.960 . S
H319 C318 0.961 . S
H320 C318 0.961 . S
H321 C318 0.960 . S
C322 N323 1.342 . S
C322 C326 1.401 . S
C322 C327 1.499 . S
N323 Co306 1.989 . S
N323 C322 1.342 . S
N323 N324 1.388 . S
N324 Co307 1.993 . S
N324 N323 1.388 . S
N324 C325 1.346 . S
C325 N324 1.346 . S
C325 C326 1.396 . S
C325 C335 1.510 . S
C326 C322 1.401 . S
C326 C325 1.396 . S
C327 C322 1.499 . S
C327 H328 0.959 . S
C327 H329 0.960 . S
C327 H330 0.961 . S
H328 C327 0.959 . S
H329 C327 0.960 . S
H330 C327 0.961 . S
O331 Co306 1.967 . S
O331 C339 1.258 . S
O332 Co307 1.941 . S
O332 C339 1.266 . S
H333 C335 0.959 . S
H334 C335 0.961 . S
C335 C325 1.510 . S
C335 H333 0.959 . S
C335 H334 0.961 . S
C335 H336 0.960 . S
H336 C335 0.960 . S
H337 N317 0.862 . S
O338 Co306 1.920 . S
O338 C311 1.289 . S
C339 O331 1.258 . S
C339 O332 1.266 . S
Co340 O343 1.970 . S
Co340 N357 1.989 . S
Co340 O365 1.967 . S
Co340 O372 1.920 . S
Co341 O344 1.966 . S
Co341 N350 2.022 . S
Co341 N358 1.993 . S
Co341 O366 1.941 . S
C342 O343 1.258 . S
C342 O344 1.263 . S
O343 Co340 1.970 . S
O343 C342 1.258 . S
O344 Co341 1.966 . S
O344 C342 1.263 . S
C345 O346 1.235 . S
C345 O372 1.289 . S
O346 C345 1.235 . S
C347 C349 1.400 . S
C347 N350 1.351 . S
C347 C352 1.501 . S
C348 C349 1.387 . S
C348 N351 1.341 . S
C349 C347 1.400 . S
C349 C348 1.387 . S
N350 Co341 2.022 . S
N350 C347 1.351 . S
N350 N351 1.365 . S
N351 C348 1.341 . S
N351 N350 1.365 . S
N351 H371 0.862 . S
C352 C347 1.501 . S
C352 H353 0.961 . S
C352 H354 0.961 . S
C352 H355 0.960 . S
H353 C352 0.961 . S
H354 C352 0.961 . S
H355 C352 0.960 . S
C356 N357 1.342 . S
C356 C360 1.401 . S
C356 C361 1.499 . S
N357 Co340 1.989 . S
N357 C356 1.342 . S
N357 N358 1.388 . S
N358 Co341 1.993 . S
N358 N357 1.388 . S
N358 C359 1.346 . S
C359 N358 1.346 . S
C359 C360 1.396 . S
C359 C369 1.510 . S
C360 C356 1.401 . S
C360 C359 1.396 . S
C361 C356 1.499 . S
C361 H362 0.959 . S
C361 H363 0.960 . S
C361 H364 0.961 . S
H362 C361 0.959 . S
H363 C361 0.960 . S
H364 C361 0.961 . S
O365 Co340 1.967 . S
O365 C373 1.258 . S
O366 Co341 1.941 . S
O366 C373 1.266 . S
H367 C369 0.959 . S
H368 C369 0.961 . S
C369 C359 1.510 . S
C369 H367 0.959 . S
C369 H368 0.961 . S
C369 H370 0.960 . S
H370 C369 0.960 . S
H371 N351 0.862 . S
O372 Co340 1.920 . S
O372 C345 1.289 . S
C373 O365 1.258 . S
C373 O366 1.266 . S
Co374 O377 1.970 . S
Co374 N391 1.989 . S
Co374 O399 1.967 . S
Co374 O406 1.920 . S
Co375 O378 1.966 . S
Co375 N384 2.022 . S
Co375 N392 1.993 . S
Co375 O400 1.941 . S
C376 O377 1.258 . S
C376 O378 1.263 . S
O377 Co374 1.970 . S
O377 C376 1.258 . S
O378 Co375 1.966 . S
O378 C376 1.263 . S
C379 O380 1.235 . S
C379 O406 1.289 . S
O380 C379 1.235 . S
C381 C383 1.400 . S
C381 N384 1.351 . S
C381 C386 1.501 . S
C382 C383 1.387 . S
C382 N385 1.341 . S
C383 C381 1.400 . S
C383 C382 1.387 . S
N384 Co375 2.022 . S
N384 C381 1.351 . S
N384 N385 1.365 . S
N385 C382 1.341 . S
N385 N384 1.365 . S
N385 H405 0.862 . S
C386 C381 1.501 . S
C386 H387 0.961 . S
C386 H388 0.961 . S
C386 H389 0.960 . S
H387 C386 0.961 . S
H388 C386 0.961 . S
H389 C386 0.960 . S
C390 N391 1.342 . S
C390 C394 1.401 . S
C390 C395 1.499 . S
N391 Co374 1.989 . S
N391 C390 1.342 . S
N391 N392 1.388 . S
N392 Co375 1.993 . S
N392 N391 1.388 . S
N392 C393 1.346 . S
C393 N392 1.346 . S
C393 C394 1.396 . S
C393 C403 1.510 . S
C394 C390 1.401 . S
C394 C393 1.396 . S
C395 C390 1.499 . S
C395 H396 0.959 . S
C395 H397 0.960 . S
C395 H398 0.961 . S
H396 C395 0.959 . S
H397 C395 0.960 . S
H398 C395 0.961 . S
O399 Co374 1.967 . S
O399 C407 1.258 . S
O400 Co375 1.941 . S
O400 C407 1.266 . S
H401 C403 0.959 . S
H402 C403 0.961 . S
C403 C393 1.510 . S
C403 H401 0.959 . S
C403 H402 0.961 . S
C403 H404 0.960 . S
H404 C403 0.960 . S
H405 N385 0.862 . S
O406 Co374 1.920 . S
O406 C379 1.289 . S
C407 O399 1.258 . S
C407 O400 1.266 . S
Co408 O411 1.970 . S
Co408 N425 1.989 . S
Co408 O433 1.967 . S
Co408 O440 1.920 . S
Co409 O412 1.966 . S
Co409 N418 2.022 . S
Co409 N426 1.993 . S
Co409 O434 1.941 . S
C410 O411 1.258 . S
C410 O412 1.263 . S
O411 Co408 1.970 . S
O411 C410 1.258 . S
O412 Co409 1.966 . S
O412 C410 1.263 . S
C413 O414 1.235 . S
C413 O440 1.289 . S
O414 C413 1.235 . S
C415 C417 1.400 . S
C415 N418 1.351 . S
C415 C420 1.501 . S
C416 C417 1.387 . S
C416 N419 1.341 . S
C417 C415 1.400 . S
C417 C416 1.387 . S
N418 Co409 2.022 . S
N418 C415 1.351 . S
N418 N419 1.365 . S
N419 C416 1.341 . S
N419 N418 1.365 . S
N419 H439 0.862 . S
C420 C415 1.501 . S
C420 H421 0.961 . S
C420 H422 0.961 . S
C420 H423 0.960 . S
H421 C420 0.961 . S
H422 C420 0.961 . S
H423 C420 0.960 . S
C424 N425 1.342 . S
C424 C428 1.401 . S
C424 C429 1.499 . S
N425 Co408 1.989 . S
N425 C424 1.342 . S
N425 N426 1.388 . S
N426 Co409 1.993 . S
N426 N425 1.388 . S
N426 C427 1.346 . S
C427 N426 1.346 . S
C427 C428 1.396 . S
C427 C437 1.510 . S
C428 C424 1.401 . S
C428 C427 1.396 . S
C429 C424 1.499 . S
C429 H430 0.959 . S
C429 H431 0.960 . S
C429 H432 0.961 . S
H430 C429 0.959 . S
H431 C429 0.960 . S
H432 C429 0.961 . S
O433 Co408 1.967 . S
O433 C441 1.258 . S
O434 Co409 1.941 . S
O434 C441 1.266 . S
H435 C437 0.959 . S
H436 C437 0.961 . S
C437 C427 1.510 . S
C437 H435 0.959 . S
C437 H436 0.961 . S
C437 H438 0.960 . S
H438 C437 0.960 . S
H439 N419 0.862 . S
O440 Co408 1.920 . S
O440 C413 1.289 . S
C441 O433 1.258 . S
C441 O434 1.266 . S
Co442 O445 1.970 . S
Co442 N459 1.989 1_455 S
Co442 O467 1.967 1_455 S
Co442 O474 1.920 1_455 S
Co443 O446 1.966 1_655 S
Co443 N452 2.022 . S
Co443 N460 1.993 . S
Co443 O468 1.941 . S
C444 O445 1.258 . S
C444 O446 1.263 . S
O445 Co442 1.970 . S
O445 C444 1.258 . S
O446 Co443 1.966 1_455 S
O446 C444 1.263 . S
C447 O448 1.235 . S
C447 O474 1.289 1_455 S
O448 C447 1.235 . S
C449 C451 1.400 . S
C449 N452 1.351 1_455 S
C449 C454 1.501 . S
C450 C451 1.387 1_655 S
C450 N453 1.341 . S
C451 C449 1.400 . S
C451 C450 1.387 1_455 S
N452 Co443 2.022 . S
N452 C449 1.351 1_655 S
N452 N453 1.365 . S
N453 C450 1.341 . S
N453 N452 1.365 . S
N453 H473 0.862 . S
C454 C449 1.501 . S
C454 H455 0.961 . S
C454 H456 0.961 . S
C454 H457 0.960 . S
H455 C454 0.961 . S
H456 C454 0.961 . S
H457 C454 0.960 . S
C458 N459 1.342 . S
C458 C462 1.401 . S
C458 C463 1.499 . S
N459 Co442 1.989 1_655 S
N459 C458 1.342 . S
N459 N460 1.388 . S
N460 Co443 1.993 . S
N460 N459 1.388 . S
N460 C461 1.346 . S
C461 N460 1.346 . S
C461 C462 1.396 . S
C461 C471 1.510 . S
C462 C458 1.401 . S
C462 C461 1.396 . S
C463 C458 1.499 . S
C463 H464 0.959 . S
C463 H465 0.960 1_655 S
C463 H466 0.961 . S
H464 C463 0.959 . S
H465 C463 0.960 1_455 S
H466 C463 0.961 . S
O467 Co442 1.967 1_655 S
O467 C475 1.258 . S
O468 Co443 1.941 . S
O468 C475 1.266 . S
H469 C471 0.959 . S
H470 C471 0.961 1_455 S
C471 C461 1.510 . S
C471 H469 0.959 . S
C471 H470 0.961 1_655 S
C471 H472 0.960 . S
H472 C471 0.960 . S
H473 N453 0.862 . S
O474 Co442 1.920 1_655 S
O474 C447 1.289 1_655 S
C475 O467 1.258 . S
C475 O468 1.266 . S
Co476 O479 1.970 . S
Co476 N493 1.989 . S
Co476 O501 1.967 . S
Co476 O508 1.920 . S
Co477 O480 1.966 . S
Co477 N486 2.022 . S
Co477 N494 1.993 . S
Co477 O502 1.941 . S
C478 O479 1.258 . S
C478 O480 1.263 . S
O479 Co476 1.970 . S
O479 C478 1.258 . S
O480 Co477 1.966 . S
O480 C478 1.263 . S
C481 O482 1.235 . S
C481 O508 1.289 . S
O482 C481 1.235 . S
C483 C485 1.400 . S
C483 N486 1.351 . S
C483 C488 1.501 . S
C484 C485 1.387 . S
C484 N487 1.341 . S
C485 C483 1.400 . S
C485 C484 1.387 . S
N486 Co477 2.022 . S
N486 C483 1.351 . S
N486 N487 1.365 . S
N487 C484 1.341 . S
N487 N486 1.365 . S
N487 H507 0.862 . S
C488 C483 1.501 . S
C488 H489 0.961 . S
C488 H490 0.961 . S
C488 H491 0.960 . S
H489 C488 0.961 . S
H490 C488 0.961 . S
H491 C488 0.960 . S
C492 N493 1.342 . S
C492 C496 1.401 . S
C492 C497 1.499 . S
N493 Co476 1.989 . S
N493 C492 1.342 . S
N493 N494 1.388 . S
N494 Co477 1.993 . S
N494 N493 1.388 . S
N494 C495 1.346 . S
C495 N494 1.346 . S
C495 C496 1.396 . S
C495 C505 1.510 . S
C496 C492 1.401 . S
C496 C495 1.396 . S
C497 C492 1.499 . S
C497 H498 0.959 . S
C497 H499 0.960 . S
C497 H500 0.961 . S
H498 C497 0.959 . S
H499 C497 0.960 . S
H500 C497 0.961 . S
O501 Co476 1.967 . S
O501 C509 1.258 . S
O502 Co477 1.941 . S
O502 C509 1.266 . S
H503 C505 0.959 . S
H504 C505 0.961 . S
C505 C495 1.510 . S
C505 H503 0.959 . S
C505 H504 0.961 . S
C505 H506 0.960 . S
H506 C505 0.960 . S
H507 N487 0.862 . S
O508 Co476 1.920 . S
O508 C481 1.289 . S
C509 O501 1.258 . S
C509 O502 1.266 . S
Co510 O513 1.970 . S
Co510 N527 1.989 1_455 S
Co510 O535 1.967 1_455 S
Co510 O542 1.920 1_455 S
Co511 O514 1.966 1_655 S
Co511 N520 2.022 . S
Co511 N528 1.993 . S
Co511 O536 1.941 . S
C512 O513 1.258 . S
C512 O514 1.263 . S
O513 Co510 1.970 . S
O513 C512 1.258 . S
O514 Co511 1.966 1_455 S
O514 C512 1.263 . S
C515 O516 1.235 . S
C515 O542 1.289 1_455 S
O516 C515 1.235 . S
C517 C519 1.400 . S
C517 N520 1.351 1_455 S
C517 C522 1.501 . S
C518 C519 1.387 1_655 S
C518 N521 1.341 . S
C519 C517 1.400 . S
C519 C518 1.387 1_455 S
N520 Co511 2.022 . S
N520 C517 1.351 1_655 S
N520 N521 1.365 . S
N521 C518 1.341 . S
N521 N520 1.365 . S
N521 H541 0.862 . S
C522 C517 1.501 . S
C522 H523 0.961 . S
C522 H524 0.961 . S
C522 H525 0.960 . S
H523 C522 0.961 . S
H524 C522 0.961 . S
H525 C522 0.960 . S
C526 N527 1.342 . S
C526 C530 1.401 . S
C526 C531 1.499 . S
N527 Co510 1.989 1_655 S
N527 C526 1.342 . S
N527 N528 1.388 . S
N528 Co511 1.993 . S
N528 N527 1.388 . S
N528 C529 1.346 . S
C529 N528 1.346 . S
C529 C530 1.396 . S
C529 C539 1.510 . S
C530 C526 1.401 . S
C530 C529 1.396 . S
C531 C526 1.499 . S
C531 H532 0.959 . S
C531 H533 0.960 1_655 S
C531 H534 0.961 . S
H532 C531 0.959 . S
H533 C531 0.960 1_455 S
H534 C531 0.961 . S
O535 Co510 1.967 1_655 S
O535 C543 1.258 . S
O536 Co511 1.941 . S
O536 C543 1.266 . S
H537 C539 0.959 . S
H538 C539 0.961 1_455 S
C539 C529 1.510 . S
C539 H537 0.959 . S
C539 H538 0.961 1_655 S
C539 H540 0.960 . S
H540 C539 0.960 . S
H541 N521 0.862 . S
O542 Co510 1.920 1_655 S
O542 C515 1.289 1_655 S
C543 O535 1.258 . S
C543 O536 1.266 . S
H544 C556 0.930 . S
H545 C558 0.930 . S
H546 C559 0.924 1_655 S
H547 C563 0.959 . S
H548 C563 0.959 . S
H549 C563 0.961 . S
H550 C564 0.960 . S
H551 C564 0.961 . S
H552 C564 0.959 . S
H553 C567 0.929 . S
H554 C568 0.931 . S
H555 C570 0.930 . S
C556 H544 0.930 . S
C556 C557 1.399 . S
C556 C561 1.399 . S
C557 C556 1.399 . S
C557 C558 1.376 . S
C558 H545 0.930 . S
C558 C557 1.376 . S
C558 C559 1.388 . S
C559 H546 0.924 1_455 S
C559 C558 1.388 . S
C559 C560 1.390 . S
C560 C559 1.390 . S
C560 C561 1.394 . S
C560 C566 1.465 1_455 S
C561 C556 1.399 . S
C561 C560 1.394 . S
C561 C562 1.516 . S
C562 C561 1.516 . S
C562 C563 1.502 . S
C562 C564 1.561 1_455 S
C562 C565 1.526 1_455 S
C563 H547 0.959 . S
C563 H548 0.959 . S
C563 H549 0.961 . S
C563 C562 1.502 . S
C564 H550 0.960 . S
C564 H551 0.961 . S
C564 H552 0.959 . S
C564 C562 1.561 1_655 S
C565 C562 1.526 1_655 S
C565 C566 1.396 . S
C565 C570 1.390 . S
C566 C560 1.465 1_655 S
C566 C565 1.396 . S
C566 C567 1.399 . S
C567 H553 0.929 . S
C567 C566 1.399 . S
C567 C568 1.385 . S
C568 H554 0.931 . S
C568 C567 1.385 . S
C568 C569 1.389 . S
C569 C568 1.389 . S
C569 C570 1.387 . S
C570 H555 0.930 . S
C570 C565 1.390 . S
C570 C569 1.387 . S
H571 C583 0.930 . S
H572 C585 0.930 . S
H573 C586 0.930 . S
H574 C590 0.959 . S
H575 C590 0.959 1_655 S
H576 C590 0.961 . S
H577 C591 0.960 1_455 S
H578 C591 0.961 . S
H579 C591 0.959 . S
H580 C594 0.929 . S
H581 C595 0.931 . S
H582 C597 0.930 . S
C583 H571 0.930 . S
C583 C584 1.399 . S
C583 C588 1.399 . S
C584 C583 1.399 . S
C584 C585 1.376 . S
C585 H572 0.930 . S
C585 C584 1.376 . S
C585 C586 1.388 . S
C586 H573 0.930 . S
C586 C585 1.388 . S
C586 C587 1.390 . S
C587 C586 1.390 . S
C587 C588 1.394 . S
C587 C593 1.465 1_455 S
C588 C583 1.399 . S
C588 C587 1.394 . S
C588 C589 1.516 . S
C589 C588 1.516 . S
C589 C590 1.502 . S
C589 C591 1.561 1_455 S
C589 C592 1.526 1_455 S
C590 H574 0.959 . S
C590 H575 0.959 1_455 S
C590 H576 0.961 . S
C590 C589 1.502 . S
C591 H577 0.960 1_655 S
C591 H578 0.961 . S
C591 H579 0.959 . S
C591 C589 1.561 1_655 S
C592 C589 1.526 1_655 S
C592 C593 1.396 . S
C592 C597 1.390 . S
C593 C587 1.465 1_655 S
C593 C592 1.396 . S
C593 C594 1.399 . S
C594 H580 0.929 . S
C594 C593 1.399 . S
C594 C595 1.385 . S
C595 H581 0.931 . S
C595 C594 1.385 . S
C595 C596 1.389 . S
C596 C595 1.389 . S
C596 C597 1.387 . S
C597 H582 0.930 . S
C597 C592 1.390 . S
C597 C596 1.387 . S
H598 C610 0.930 . S
H599 C612 0.930 1_545 S
H600 C613 0.930 . S
H601 C617 0.959 . S
H602 C617 0.959 . S
H603 C617 0.961 . S
H604 C618 0.960 . S
H605 C618 0.961 . S
H606 C618 0.959 . S
H607 C621 0.929 . S
H608 C622 0.931 . S
H609 C624 0.930 . S
C610 H598 0.930 . S
C610 C611 1.399 1_565 S
C610 C615 1.399 . S
C611 C610 1.399 1_545 S
C611 C612 1.376 1_545 S
C612 H599 0.930 1_565 S
C612 C611 1.376 1_565 S
C612 C613 1.388 . S
C613 H600 0.930 . S
C613 C612 1.388 . S
C613 C614 1.390 . S
C614 C613 1.390 . S
C614 C615 1.394 . S
C614 C620 1.465 . S
C615 C610 1.399 . S
C615 C614 1.394 . S
C615 C616 1.516 . S
C616 C615 1.516 . S
C616 C617 1.502 . S
C616 C618 1.561 . S
C616 C619 1.526 . S
C617 H601 0.959 . S
C617 H602 0.959 . S
C617 H603 0.961 . S
C617 C616 1.502 . S
C618 H604 0.960 . S
C618 H605 0.961 . S
C618 H606 0.959 . S
C618 C616 1.561 . S
C619 C616 1.526 . S
C619 C620 1.396 . S
C619 C624 1.390 . S
C620 C614 1.465 . S
C620 C619 1.396 . S
C620 C621 1.399 . S
C621 H607 0.929 . S
C621 C620 1.399 . S
C621 C622 1.385 . S
C622 H608 0.931 . S
C622 C621 1.385 . S
C622 C623 1.389 . S
C623 C622 1.389 . S
C623 C624 1.387 . S
C624 H609 0.930 . S
C624 C619 1.390 . S
C624 C623 1.387 . S
H625 C637 0.930 . S
H626 C639 0.930 . S
H627 C640 0.930 . S
H628 C644 0.959 . S
H629 C644 0.959 . S
H630 C644 0.961 . S
H631 C645 0.960 . S
H632 C645 0.961 . S
H633 C645 0.959 . S
H634 C648 0.929 . S
H635 C649 0.931 . S
H636 C651 0.930 . S
C637 H625 0.930 . S
C637 C638 1.399 . S
C637 C642 1.399 . S
C638 C637 1.399 . S
C638 C639 1.376 . S
C639 H626 0.930 . S
C639 C638 1.376 . S
C639 C640 1.388 . S
C640 H627 0.930 . S
C640 C639 1.388 . S
C640 C641 1.390 . S
C641 C640 1.390 . S
C641 C642 1.394 . S
C641 C647 1.465 . S
C642 C637 1.399 . S
C642 C641 1.394 . S
C642 C643 1.516 . S
C643 C642 1.516 . S
C643 C644 1.502 . S
C643 C645 1.561 . S
C643 C646 1.526 . S
C644 H628 0.959 . S
C644 H629 0.959 . S
C644 H630 0.961 . S
C644 C643 1.502 . S
C645 H631 0.960 . S
C645 H632 0.961 . S
C645 H633 0.959 . S
C645 C643 1.561 . S
C646 C643 1.526 . S
C646 C647 1.396 . S
C646 C651 1.390 . S
C647 C641 1.465 . S
C647 C646 1.396 . S
C647 C648 1.399 . S
C648 H634 0.929 . S
C648 C647 1.399 . S
C648 C649 1.385 . S
C649 H635 0.931 . S
C649 C648 1.385 . S
C649 C650 1.389 . S
C650 C649 1.389 . S
C650 C651 1.387 . S
C651 H636 0.930 . S
C651 C646 1.390 . S
C651 C650 1.387 . S
H652 C664 0.930 . S
H653 C666 0.930 . S
H654 C667 0.930 . S
H655 C671 0.959 . S
H656 C671 0.959 . S
H657 C671 0.961 . S
H658 C672 0.960 . S
H659 C672 0.961 . S
H660 C672 0.959 . S
H661 C675 0.929 . S
H662 C676 0.931 . S
H663 C678 0.930 . S
C664 H652 0.930 . S
C664 C665 1.399 . S
C664 C669 1.399 . S
C665 C664 1.399 . S
C665 C666 1.376 . S
C666 H653 0.930 . S
C666 C665 1.376 . S
C666 C667 1.388 . S
C667 H654 0.930 . S
C667 C666 1.388 . S
C667 C668 1.390 . S
C668 C667 1.390 . S
C668 C669 1.394 . S
C668 C674 1.465 . S
C669 C664 1.399 . S
C669 C668 1.394 . S
C669 C670 1.514 1_455 S
C670 C669 1.514 1_655 S
C670 C671 1.510 . S
C670 C672 1.554 1_655 S
C670 C673 1.526 . S
C671 H655 0.959 . S
C671 H656 0.959 . S
C671 H657 0.961 . S
C671 C670 1.510 . S
C672 H658 0.960 . S
C672 H659 0.961 . S
C672 H660 0.959 . S
C672 C670 1.554 1_455 S
C673 C670 1.526 . S
C673 C674 1.396 1_655 S
C673 C678 1.390 . S
C674 C668 1.465 . S
C674 C673 1.396 1_455 S
C674 C675 1.399 . S
C675 H661 0.929 . S
C675 C674 1.399 . S
C675 C676 1.385 1_465 S
C676 H662 0.931 . S
C676 C675 1.385 1_645 S
C676 C677 1.389 . S
C677 C676 1.389 . S
C677 C678 1.387 1_545 S
C678 H663 0.930 . S
C678 C673 1.390 . S
C678 C677 1.387 1_565 S
H679 C691 0.930 . S
H680 C693 0.930 . S
H681 C694 0.930 . S
H682 C698 0.959 . S
H683 C698 0.959 . S
H684 C698 0.961 . S
H685 C699 0.960 . S
H686 C699 0.961 . S
H687 C699 0.959 . S
H688 C702 0.929 . S
H689 C703 0.931 . S
H690 C705 0.930 . S
C691 H679 0.930 . S
C691 C692 1.399 . S
C691 C696 1.399 . S
C692 C691 1.399 . S
C692 C693 1.376 . S
C693 H680 0.930 . S
C693 C692 1.376 . S
C693 C694 1.388 . S
C694 H681 0.930 . S
C694 C693 1.388 . S
C694 C695 1.390 . S
C695 C694 1.390 . S
C695 C696 1.394 . S
C695 C701 1.465 . S
C696 C691 1.399 . S
C696 C695 1.394 . S
C696 C697 1.516 . S
C697 C696 1.516 . S
C697 C698 1.502 . S
C697 C699 1.561 . S
C697 C700 1.526 . S
C698 H682 0.959 . S
C698 H683 0.959 . S
C698 H684 0.961 . S
C698 C697 1.502 . S
C699 H685 0.960 . S
C699 H686 0.961 . S
C699 H687 0.959 . S
C699 C697 1.561 . S
C700 C697 1.526 . S
C700 C701 1.396 . S
C700 C705 1.390 . S
C701 C695 1.465 . S
C701 C700 1.396 . S
C701 C702 1.399 . S
C702 H688 0.929 . S
C702 C701 1.399 . S
C702 C703 1.385 . S
C703 H689 0.931 . S
C703 C702 1.385 . S
C703 C704 1.389 . S
C704 C703 1.389 . S
C704 C705 1.387 . S
C705 H690 0.930 . S
C705 C700 1.390 . S
C705 C704 1.387 . S
H706 C718 0.930 . S
H707 C720 0.930 . S
H708 C721 0.930 . S
H709 C725 0.959 . S
H710 C725 0.959 . S
H711 C725 0.961 . S
H712 C726 0.960 . S
H713 C726 0.961 . S
H714 C726 0.959 . S
H715 C729 0.929 . S
H716 C730 0.931 . S
H717 C732 0.930 . S
C718 H706 0.930 . S
C718 C719 1.399 . S
C718 C723 1.399 . S
C719 C718 1.399 . S
C719 C720 1.376 . S
C720 H707 0.930 . S
C720 C719 1.376 . S
C720 C721 1.388 . S
C721 H708 0.930 . S
C721 C720 1.388 . S
C721 C722 1.390 . S
C722 C721 1.390 . S
C722 C723 1.394 . S
C722 C728 1.465 . S
C723 C718 1.399 . S
C723 C722 1.394 . S
C723 C724 1.516 . S
C724 C723 1.516 . S
C724 C725 1.502 . S
C724 C726 1.561 . S
C724 C727 1.526 . S
C725 H709 0.959 . S
C725 H710 0.959 . S
C725 H711 0.961 . S
C725 C724 1.502 . S
C726 H712 0.960 . S
C726 H713 0.961 . S
C726 H714 0.959 . S
C726 C724 1.561 . S
C727 C724 1.526 . S
C727 C728 1.396 . S
C727 C732 1.390 . S
C728 C722 1.465 . S
C728 C727 1.396 . S
C728 C729 1.399 . S
C729 H715 0.929 . S
C729 C728 1.399 . S
C729 C730 1.385 . S
C730 H716 0.931 . S
C730 C729 1.385 . S
C730 C731 1.389 . S
C731 C730 1.389 . S
C731 C732 1.387 . S
C732 H717 0.930 . S
C732 C727 1.390 . S
C732 C731 1.387 . S
H733 C745 0.930 . S
H734 C747 0.930 . S
H735 C748 0.930 . S
H736 C752 0.959 . S
H737 C752 0.959 . S
H738 C752 0.961 1_655 S
H739 C753 0.960 1_655 S
H740 C753 0.961 . S
H741 C753 0.958 1_655 S
H742 C756 0.929 . S
H743 C757 0.931 . S
H744 C759 0.930 . S
C745 H733 0.930 . S
C745 C746 1.399 . S
C745 C750 1.399 . S
C746 C745 1.399 . S
C746 C747 1.376 . S
C747 H734 0.930 . S
C747 C746 1.376 . S
C747 C748 1.388 . S
C748 H735 0.930 . S
C748 C747 1.388 . S
C748 C749 1.390 . S
C749 C748 1.390 . S
C749 C750 1.394 . S
C749 C755 1.465 1_655 S
C750 C745 1.399 . S
C750 C749 1.394 . S
C750 C751 1.516 1_655 S
C751 C750 1.516 1_455 S
C751 C752 1.502 . S
C751 C753 1.561 . S
C751 C754 1.526 . S
C752 H736 0.959 . S
C752 H737 0.959 . S
C752 H738 0.961 1_455 S
C752 C751 1.502 . S
C753 H739 0.960 1_455 S
C753 H740 0.961 . S
C753 H741 0.958 1_455 S
C753 C751 1.561 . S
C754 C751 1.526 . S
C754 C755 1.396 . S
C754 C759 1.390 . S
C755 C749 1.465 1_455 S
C755 C754 1.396 . S
C755 C756 1.399 . S
C756 H742 0.929 . S
C756 C755 1.399 . S
C756 C757 1.385 . S
C757 H743 0.931 . S
C757 C756 1.385 . S
C757 C758 1.389 . S
C758 C757 1.389 . S
C758 C759 1.387 . S
C759 H744 0.930 . S
C759 C754 1.390 . S
C759 C758 1.387 . S
H760 C772 0.930 . S
H761 C774 0.930 1_655 S
H762 C775 0.930 . S
H763 C779 0.959 . S
H764 C779 0.959 . S
H765 C779 0.961 1_554 S
H766 C780 0.960 1_554 S
H767 C780 0.961 . S
H768 C780 0.959 1_655 S
H769 C783 0.943 . S
H770 C784 0.931 1_655 S
H771 C786 0.930 . S
C772 H760 0.930 . S
C772 C773 1.399 . S
C772 C777 1.399 . S
C773 C772 1.399 . S
C773 C774 1.376 . S
C774 H761 0.930 1_455 S
C774 C773 1.376 . S
C774 C775 1.388 1_455 S
C775 H762 0.930 . S
C775 C774 1.388 1_655 S
C775 C776 1.390 1_655 S
C776 C775 1.390 1_455 S
C776 C777 1.394 . S
C776 C782 1.465 1_554 S
C777 C772 1.399 . S
C777 C776 1.394 . S
C777 C778 1.476 1_554 S
C778 C777 1.476 1_556 S
C778 C779 1.504 . S
C778 C780 1.564 . S
C778 C781 1.564 . S
C779 H763 0.959 . S
C779 H764 0.959 . S
C779 H765 0.961 1_556 S
C779 C778 1.504 . S
C780 H766 0.960 1_556 S
C780 H767 0.961 . S
C780 H768 0.959 1_455 S
C780 C778 1.564 . S
C781 C778 1.564 . S
C781 C782 1.396 . S
C781 C786 1.390 . S
C782 C776 1.465 1_556 S
C782 C781 1.396 . S
C782 C783 1.389 1_455 S
C783 H769 0.943 . S
C783 C782 1.389 1_655 S
C783 C784 1.381 1_655 S
C784 H770 0.931 1_455 S
C784 C783 1.381 1_455 S
C784 C785 1.389 . S
C785 C784 1.389 . S
C785 C786 1.387 . S
C786 H771 0.930 . S
C786 C781 1.390 . S
C786 C785 1.387 . S
H787 C799 0.930 . S
H788 C801 0.930 . S
H789 C802 0.936 . S
H790 C806 0.959 . S
H791 C806 0.959 . S
H792 C806 0.961 . S
H793 C807 0.960 . S
H794 C807 0.961 . S
H795 C807 0.959 . S
H796 C810 0.914 1_545 S
H797 C811 0.931 . S
H798 C813 0.930 . S
C799 H787 0.930 . S
C799 C800 1.399 . S
C799 C804 1.399 . S
C800 C799 1.399 . S
C800 C801 1.376 . S
C801 H788 0.930 . S
C801 C800 1.376 . S
C801 C802 1.388 . S
C802 H789 0.936 . S
C802 C801 1.388 . S
C802 C803 1.390 . S
C803 C802 1.390 . S
C803 C804 1.394 . S
C803 C809 1.465 . S
C804 C799 1.399 . S
C804 C803 1.394 . S
C804 C805 1.516 . S
C805 C804 1.516 . S
C805 C806 1.502 . S
C805 C807 1.561 . S
C805 C808 1.526 . S
C806 H790 0.959 . S
C806 H791 0.959 . S
C806 H792 0.961 . S
C806 C805 1.502 . S
C807 H793 0.960 . S
C807 H794 0.961 . S
C807 H795 0.959 . S
C807 C805 1.561 . S
C808 C805 1.526 . S
C808 C809 1.396 . S
C808 C813 1.390 . S
C809 C803 1.465 . S
C809 C808 1.396 . S
C809 C810 1.399 . S
C810 H796 0.914 1_565 S
C810 C809 1.399 . S
C810 C811 1.385 . S
C811 H797 0.931 . S
C811 C810 1.385 . S
C811 C812 1.389 . S
C812 C811 1.389 . S
C812 C813 1.387 . S
C813 H798 0.930 . S
C813 C808 1.390 . S
C813 C812 1.387 . S
H814 C826 0.930 . S
H815 C828 0.930 . S
H816 C829 0.930 . S
H817 C833 0.959 . S
H818 C833 0.959 . S
H819 C833 0.961 . S
H820 C834 0.960 . S
H821 C834 0.961 . S
H822 C834 0.959 . S
H823 C837 0.929 . S
H824 C838 0.931 . S
H825 C840 0.930 . S
C826 H814 0.930 . S
C826 C827 1.399 . S
C826 C831 1.399 . S
C827 C826 1.399 . S
C827 C828 1.376 . S
C828 H815 0.930 . S
C828 C827 1.376 . S
C828 C829 1.388 . S
C829 H816 0.930 . S
C829 C828 1.388 . S
C829 C830 1.390 . S
C830 C829 1.390 . S
C830 C831 1.394 . S
C830 C836 1.465 . S
C831 C826 1.399 . S
C831 C830 1.394 . S
C831 C832 1.516 . S
C832 C831 1.516 . S
C832 C833 1.502 . S
C832 C834 1.561 . S
C832 C835 1.526 . S
C833 H817 0.959 . S
C833 H818 0.959 . S
C833 H819 0.961 . S
C833 C832 1.502 . S
C834 H820 0.960 . S
C834 H821 0.961 . S
C834 H822 0.959 . S
C834 C832 1.561 . S
C835 C832 1.526 . S
C835 C836 1.396 . S
C835 C840 1.390 . S
C836 C830 1.465 . S
C836 C835 1.396 . S
C836 C837 1.399 . S
C837 H823 0.929 . S
C837 C836 1.399 . S
C837 C838 1.385 . S
C838 H824 0.931 . S
C838 C837 1.385 . S
C838 C839 1.389 . S
C839 C838 1.389 . S
C839 C840 1.387 . S
C840 H825 0.930 . S
C840 C835 1.390 . S
C840 C839 1.387 . S
H841 C853 0.930 . S
H842 C855 0.930 . S
H843 C856 0.930 . S
H844 C860 0.959 . S
H845 C860 0.959 . S
H846 C860 0.961 . S
H847 C861 0.960 . S
H848 C861 0.961 . S
H849 C861 0.959 . S
H850 C864 0.929 . S
H851 C865 0.931 . S
H852 C867 0.930 . S
C853 H841 0.930 . S
C853 C854 1.399 . S
C853 C858 1.399 . S
C854 C853 1.399 . S
C854 C855 1.376 . S
C855 H842 0.930 . S
C855 C854 1.376 . S
C855 C856 1.388 . S
C856 H843 0.930 . S
C856 C855 1.388 . S
C856 C857 1.390 . S
C857 C856 1.390 . S
C857 C858 1.394 . S
C857 C863 1.465 . S
C858 C853 1.399 . S
C858 C857 1.394 . S
C858 C859 1.516 . S
C859 C858 1.516 . S
C859 C860 1.502 . S
C859 C861 1.561 . S
C859 C862 1.526 . S
C860 H844 0.959 . S
C860 H845 0.959 . S
C860 H846 0.961 . S
C860 C859 1.502 . S
C861 H847 0.960 . S
C861 H848 0.961 . S
C861 H849 0.959 . S
C861 C859 1.561 . S
C862 C859 1.526 . S
C862 C863 1.396 . S
C862 C867 1.390 . S
C863 C857 1.465 . S
C863 C862 1.396 . S
C863 C864 1.399 . S
C864 H850 0.929 . S
C864 C863 1.399 . S
C864 C865 1.385 . S
C865 H851 0.931 . S
C865 C864 1.385 . S
C865 C866 1.389 . S
C866 C865 1.389 . S
C866 C867 1.387 . S
C867 H852 0.930 . S
C867 C862 1.390 . S
C867 C866 1.387 . S
H868 C880 0.930 . S
H869 C882 0.930 . S
H870 C883 0.930 . S
H871 C887 0.959 . S
H872 C887 0.959 . S
H873 C887 0.961 . S
H874 C888 0.960 . S
H875 C888 0.961 . S
H876 C888 0.959 . S
H877 C891 0.929 . S
H878 C892 0.931 . S
H879 C894 0.930 . S
C880 H868 0.930 . S
C880 C881 1.399 . S
C880 C885 1.399 . S
C881 C880 1.399 . S
C881 C882 1.376 . S
C882 H869 0.930 . S
C882 C881 1.376 . S
C882 C883 1.388 . S
C883 H870 0.930 . S
C883 C882 1.388 . S
C883 C884 1.390 . S
C884 C883 1.390 . S
C884 C885 1.394 . S
C884 C890 1.465 . S
C885 C880 1.399 . S
C885 C884 1.394 . S
C885 C886 1.516 . S
C886 C885 1.516 . S
C886 C887 1.502 . S
C886 C888 1.561 . S
C886 C889 1.526 . S
C887 H871 0.959 . S
C887 H872 0.959 . S
C887 H873 0.961 . S
C887 C886 1.502 . S
C888 H874 0.960 . S
C888 H875 0.961 . S
C888 H876 0.959 . S
C888 C886 1.561 . S
C889 C886 1.526 . S
C889 C890 1.396 . S
C889 C894 1.390 . S
C890 C884 1.465 . S
C890 C889 1.396 . S
C890 C891 1.399 . S
C891 H877 0.929 . S
C891 C890 1.399 . S
C891 C892 1.385 . S
C892 H878 0.931 . S
C892 C891 1.385 . S
C892 C893 1.389 . S
C893 C892 1.389 . S
C893 C894 1.387 . S
C894 H879 0.930 . S
C894 C889 1.390 . S
C894 C893 1.387 . S
H895 C907 0.930 . S
H896 C909 0.930 . S
H897 C910 0.930 . S
H898 C914 0.959 . S
H899 C914 0.959 . S
H900 C914 0.961 . S
H901 C915 0.960 . S
H902 C915 0.961 . S
H903 C915 0.959 . S
H904 C918 0.929 . S
H905 C919 0.931 . S
H906 C921 0.930 . S
C907 H895 0.930 . S
C907 C908 1.399 . S
C907 C912 1.399 . S
C908 C907 1.399 . S
C908 C909 1.376 . S
C909 H896 0.930 . S
C909 C908 1.376 . S
C909 C910 1.388 . S
C910 H897 0.930 . S
C910 C909 1.388 . S
C910 C911 1.390 . S
C911 C910 1.390 . S
C911 C912 1.394 . S
C911 C917 1.465 . S
C912 C907 1.399 . S
C912 C911 1.394 . S
C912 C913 1.516 . S
C913 C912 1.516 . S
C913 C914 1.502 . S
C913 C915 1.561 . S
C913 C916 1.526 . S
C914 H898 0.959 . S
C914 H899 0.959 . S
C914 H900 0.961 . S
C914 C913 1.502 . S
C915 H901 0.960 . S
C915 H902 0.961 . S
C915 H903 0.959 . S
C915 C913 1.561 . S
C916 C913 1.526 . S
C916 C917 1.396 . S
C916 C921 1.390 . S
C917 C911 1.465 . S
C917 C916 1.396 . S
C917 C918 1.399 . S
C918 H904 0.929 . S
C918 C917 1.399 . S
C918 C919 1.385 . S
C919 H905 0.931 . S
C919 C918 1.385 . S
C919 C920 1.389 . S
C920 C919 1.389 . S
C920 C921 1.387 . S
C921 H906 0.930 . S
C921 C916 1.390 . S
C921 C920 1.387 . S
H922 C934 0.930 . S
H923 C936 0.930 . S
H924 C937 0.930 . S
H925 C941 0.959 . S
H926 C941 0.959 . S
H927 C941 0.961 . S
H928 C942 0.960 . S
H929 C942 0.961 . S
H930 C942 0.959 . S
H931 C945 0.929 . S
H932 C946 0.931 . S
H933 C948 0.930 . S
C934 H922 0.930 . S
C934 C935 1.399 . S
C934 C939 1.399 . S
C935 C934 1.399 . S
C935 C936 1.376 . S
C936 H923 0.930 . S
C936 C935 1.376 . S
C936 C937 1.388 . S
C937 H924 0.930 . S
C937 C936 1.388 . S
C937 C938 1.390 . S
C938 C937 1.390 . S
C938 C939 1.394 . S
C938 C944 1.465 . S
C939 C934 1.399 . S
C939 C938 1.394 . S
C939 C940 1.516 . S
C940 C939 1.516 . S
C940 C941 1.502 . S
C940 C942 1.561 . S
C940 C943 1.526 . S
C941 H925 0.959 . S
C941 H926 0.959 . S
C941 H927 0.961 . S
C941 C940 1.502 . S
C942 H928 0.960 . S
C942 H929 0.961 . S
C942 H930 0.959 . S
C942 C940 1.561 . S
C943 C940 1.526 . S
C943 C944 1.396 . S
C943 C948 1.390 . S
C944 C938 1.465 . S
C944 C943 1.396 . S
C944 C945 1.399 . S
C945 H931 0.929 . S
C945 C944 1.399 . S
C945 C946 1.385 . S
C946 H932 0.931 . S
C946 C945 1.385 . S
C946 C947 1.389 . S
C947 C946 1.389 . S
C947 C948 1.387 . S
C948 H933 0.930 . S
C948 C943 1.390 . S
C948 C947 1.387 . S
H949 C961 0.930 1_455 S
H950 C963 0.930 . S
H951 C964 0.930 . S
H952 C968 0.954 1_554 S
H953 C968 0.934 1_554 S
H954 C968 0.990 . S
H955 C969 1.031 . S
H956 C969 0.902 1_554 S
H957 C969 0.955 1_554 S
H958 C972 0.929 . S
H959 C973 0.931 . S
H960 C975 0.930 1_455 S
C961 H949 0.930 1_655 S
C961 C962 1.399 . S
C961 C966 1.399 . S
C962 C961 1.399 . S
C962 C963 1.376 . S
C963 H950 0.930 . S
C963 C962 1.376 . S
C963 C964 1.388 . S
C964 H951 0.930 . S
C964 C963 1.388 . S
C964 C965 1.390 . S
C965 C964 1.390 . S
C965 C966 1.394 . S
C965 C971 1.465 1_556 S
C966 C961 1.399 . S
C966 C965 1.394 . S
C966 C967 1.547 1_655 S
C967 C966 1.547 1_455 S
C967 C968 1.503 . S
C967 C969 1.560 1_455 S
C967 C970 1.494 1_456 S
C968 H952 0.954 1_556 S
C968 H953 0.934 1_556 S
C968 H954 0.990 . S
C968 C967 1.503 . S
C969 H955 1.031 . S
C969 H956 0.902 1_556 S
C969 H957 0.955 1_556 S
C969 C967 1.560 1_655 S
C970 C967 1.494 1_654 S
C970 C971 1.396 . S
C970 C975 1.390 . S
C971 C965 1.465 1_554 S
C971 C970 1.396 . S
C971 C972 1.399 . S
C972 H958 0.929 . S
C972 C971 1.399 . S
C972 C973 1.385 . S
C973 H959 0.931 . S
C973 C972 1.385 . S
C973 C974 1.389 . S
C974 C973 1.389 . S
C974 C975 1.387 . S
C975 H960 0.930 1_655 S
C975 C970 1.390 . S
C975 C974 1.387 . S
H976 C988 0.930 . S
H977 C990 0.929 1_565 S
H978 C991 0.930 . S
H979 C995 0.959 . S
H980 C995 0.959 . S
H981 C995 0.961 . S
H982 C996 0.960 . S
H983 C996 0.961 . S
H984 C996 0.959 . S
H985 C999 0.929 . S
H986 C1000 0.931 . S
H987 C1002 0.930 . S
C988 H976 0.930 . S
C988 C989 1.399 . S
C988 C993 1.399 . S
C989 C988 1.399 . S
C989 C990 1.377 . S
C990 H977 0.929 1_545 S
C990 C989 1.377 . S
C990 C991 1.390 . S
C991 H978 0.930 . S
C991 C990 1.390 . S
C991 C992 1.390 . S
C992 C991 1.390 . S
C992 C993 1.394 . S
C992 C998 1.465 . S
C993 C988 1.399 . S
C993 C992 1.394 . S
C993 C994 1.516 . S
C994 C993 1.516 . S
C994 C995 1.502 . S
C994 C996 1.561 . S
C994 C997 1.526 . S
C995 H979 0.959 . S
C995 H980 0.959 . S
C995 H981 0.961 . S
C995 C994 1.502 . S
C996 H982 0.960 . S
C996 H983 0.961 . S
C996 H984 0.959 . S
C996 C994 1.561 . S
C997 C994 1.526 . S
C997 C998 1.396 . S
C997 C1002 1.390 . S
C998 C992 1.465 . S
C998 C997 1.396 . S
C998 C999 1.399 . S
C999 H985 0.929 . S
C999 C998 1.399 . S
C999 C1000 1.385 . S
C1000 H986 0.931 . S
C1000 C999 1.385 . S
C1000 C1001 1.389 . S
C1001 C1000 1.389 . S
C1001 C1002 1.387 . S
C1002 H987 0.930 . S
C1002 C997 1.390 . S
C1002 C1001 1.387 . S
H1003 C1015 0.930 . S
H1004 C1017 0.930 1_565 S
H1005 C1018 0.930 . S
H1006 C1022 0.959 . S
H1007 C1022 0.959 . S
H1008 C1022 0.961 . S
H1009 C1023 0.960 . S
H1010 C1023 0.961 . S
H1011 C1023 0.959 . S
H1012 C1026 0.929 . S
H1013 C1027 0.931 . S
H1014 C1029 0.930 . S
C1015 H1003 0.930 . S
C1015 C1016 1.394 1_545 S
C1015 C1020 1.399 . S
C1016 C1015 1.394 1_565 S
C1016 C1017 1.376 1_565 S
C1017 H1004 0.930 1_545 S
C1017 C1016 1.376 1_545 S
C1017 C1018 1.388 . S
C1018 H1005 0.930 . S
C1018 C1017 1.388 . S
C1018 C1019 1.390 . S
C1019 C1018 1.390 . S
C1019 C1020 1.394 . S
C1019 C1025 1.465 . S
C1020 C1015 1.399 . S
C1020 C1019 1.394 . S
C1020 C1021 1.516 . S
C1021 C1020 1.516 . S
C1021 C1022 1.502 . S
C1021 C1023 1.561 . S
C1021 C1024 1.526 . S
C1022 H1006 0.959 . S
C1022 H1007 0.959 . S
C1022 H1008 0.961 . S
C1022 C1021 1.502 . S
C1023 H1009 0.960 . S
C1023 H1010 0.961 . S
C1023 H1011 0.959 . S
C1023 C1021 1.561 . S
C1024 C1021 1.526 . S
C1024 C1025 1.396 . S
C1024 C1029 1.390 . S
C1025 C1019 1.465 . S
C1025 C1024 1.396 . S
C1025 C1026 1.399 . S
C1026 H1012 0.929 . S
C1026 C1025 1.399 . S
C1026 C1027 1.385 . S
C1027 H1013 0.931 . S
C1027 C1026 1.385 . S
C1027 C1028 1.389 . S
C1028 C1027 1.389 . S
C1028 C1029 1.387 . S
C1029 H1014 0.930 . S
C1029 C1024 1.390 . S
C1029 C1028 1.387 . S
H1030 C1042 0.930 . S
H1031 C1044 0.930 . S
H1032 C1045 0.930 . S
H1033 C1049 0.959 . S
H1034 C1049 0.959 . S
H1035 C1049 0.961 . S
H1036 C1050 0.960 . S
H1037 C1050 0.961 . S
H1038 C1050 0.959 . S
H1039 C1053 0.929 . S
H1040 C1054 0.931 . S
H1041 C1056 0.930 . S
C1042 H1030 0.930 . S
C1042 C1043 1.399 . S
C1042 C1047 1.399 . S
C1043 C1042 1.399 . S
C1043 C1044 1.376 . S
C1044 H1031 0.930 . S
C1044 C1043 1.376 . S
C1044 C1045 1.388 . S
C1045 H1032 0.930 . S
C1045 C1044 1.388 . S
C1045 C1046 1.390 . S
C1046 C1045 1.390 . S
C1046 C1047 1.394 . S
C1046 C1052 1.465 . S
C1047 C1042 1.399 . S
C1047 C1046 1.394 . S
C1047 C1048 1.516 . S
C1048 C1047 1.516 . S
C1048 C1049 1.502 . S
C1048 C1050 1.561 . S
C1048 C1051 1.526 . S
C1049 H1033 0.959 . S
C1049 H1034 0.959 . S
C1049 H1035 0.961 . S
C1049 C1048 1.502 . S
C1050 H1036 0.960 . S
C1050 H1037 0.961 . S
C1050 H1038 0.959 . S
C1050 C1048 1.561 . S
C1051 C1048 1.526 . S
C1051 C1052 1.396 . S
C1051 C1056 1.390 . S
C1052 C1046 1.465 . S
C1052 C1051 1.396 . S
C1052 C1053 1.399 . S
C1053 H1039 0.929 . S
C1053 C1052 1.399 . S
C1053 C1054 1.385 . S
C1054 H1040 0.931 . S
C1054 C1053 1.385 . S
C1054 C1055 1.389 . S
C1055 C1054 1.389 . S
C1055 C1056 1.387 . S
C1056 H1041 0.930 . S
C1056 C1051 1.390 . S
C1056 C1055 1.387 . S
H1057 C1069 0.930 . S
H1058 C1071 0.930 . S
H1059 C1072 0.930 . S
H1060 C1076 0.959 . S
H1061 C1076 0.959 . S
H1062 C1076 0.961 . S
H1063 C1077 0.960 . S
H1064 C1077 0.961 . S
H1065 C1077 0.959 . S
H1066 C1080 0.929 . S
H1067 C1081 0.931 . S
H1068 C1083 0.930 . S
C1069 H1057 0.930 . S
C1069 C1070 1.399 . S
C1069 C1074 1.399 . S
C1070 C1069 1.399 . S
C1070 C1071 1.376 . S
C1071 H1058 0.930 . S
C1071 C1070 1.376 . S
C1071 C1072 1.388 . S
C1072 H1059 0.930 . S
C1072 C1071 1.388 . S
C1072 C1073 1.390 . S
C1073 C1072 1.390 . S
C1073 C1074 1.394 . S
C1073 C1079 1.465 . S
C1074 C1069 1.399 . S
C1074 C1073 1.394 . S
C1074 C1075 1.516 . S
C1075 C1074 1.516 . S
C1075 C1076 1.502 . S
C1075 C1077 1.561 . S
C1075 C1078 1.526 . S
C1076 H1060 0.959 . S
C1076 H1061 0.959 . S
C1076 H1062 0.961 . S
C1076 C1075 1.502 . S
C1077 H1063 0.960 . S
C1077 H1064 0.961 . S
C1077 H1065 0.959 . S
C1077 C1075 1.561 . S
C1078 C1075 1.526 . S
C1078 C1079 1.396 . S
C1078 C1083 1.390 . S
C1079 C1073 1.465 . S
C1079 C1078 1.396 . S
C1079 C1080 1.399 . S
C1080 H1066 0.929 . S
C1080 C1079 1.399 . S
C1080 C1081 1.385 . S
C1081 H1067 0.931 . S
C1081 C1080 1.385 . S
C1081 C1082 1.389 . S
C1082 C1081 1.389 . S
C1082 C1083 1.387 . S
C1083 H1068 0.930 . S
C1083 C1078 1.390 . S
C1083 C1082 1.387 . S
H1084 C1096 0.930 . S
H1085 C1098 0.930 . S
H1086 C1099 0.930 . S
H1087 C1103 0.959 . S
H1088 C1103 0.959 . S
H1089 C1103 0.961 . S
H1090 C1104 0.960 . S
H1091 C1104 0.961 . S
H1092 C1104 0.959 . S
H1093 C1107 0.929 . S
H1094 C1108 0.931 . S
H1095 C1110 0.930 . S
C1096 H1084 0.930 . S
C1096 C1097 1.399 . S
C1096 C1101 1.399 . S
C1097 C1096 1.399 . S
C1097 C1098 1.376 . S
C1098 H1085 0.930 . S
C1098 C1097 1.376 . S
C1098 C1099 1.388 . S
C1099 H1086 0.930 . S
C1099 C1098 1.388 . S
C1099 C1100 1.390 . S
C1100 C1099 1.390 . S
C1100 C1101 1.394 . S
C1100 C1106 1.465 . S
C1101 C1096 1.399 . S
C1101 C1100 1.394 . S
C1101 C1102 1.516 . S
C1102 C1101 1.516 . S
C1102 C1103 1.502 . S
C1102 C1104 1.561 . S
C1102 C1105 1.526 . S
C1103 H1087 0.959 . S
C1103 H1088 0.959 . S
C1103 H1089 0.961 . S
C1103 C1102 1.502 . S
C1104 H1090 0.960 . S
C1104 H1091 0.961 . S
C1104 H1092 0.959 . S
C1104 C1102 1.561 . S
C1105 C1102 1.526 . S
C1105 C1106 1.396 . S
C1105 C1110 1.390 . S
C1106 C1100 1.465 . S
C1106 C1105 1.396 . S
C1106 C1107 1.399 . S
C1107 H1093 0.929 . S
C1107 C1106 1.399 . S
C1107 C1108 1.385 . S
C1108 H1094 0.931 . S
C1108 C1107 1.385 . S
C1108 C1109 1.389 . S
C1109 C1108 1.389 . S
C1109 C1110 1.387 . S
C1110 H1095 0.930 . S
C1110 C1105 1.390 . S
C1110 C1109 1.387 . S
H1111 C1123 0.930 . S
H1112 C1125 0.930 . S
H1113 C1126 0.930 . S
H1114 C1130 0.959 . S
H1115 C1130 0.959 . S
H1116 C1130 0.961 . S
H1117 C1131 0.960 . S
H1118 C1131 0.961 . S
H1119 C1131 0.959 . S
H1120 C1134 0.929 . S
H1121 C1135 0.931 . S
H1122 C1137 0.930 . S
C1123 H1111 0.930 . S
C1123 C1124 1.399 . S
C1123 C1128 1.399 . S
C1124 C1123 1.399 . S
C1124 C1125 1.376 . S
C1125 H1112 0.930 . S
C1125 C1124 1.376 . S
C1125 C1126 1.388 . S
C1126 H1113 0.930 . S
C1126 C1125 1.388 . S
C1126 C1127 1.390 . S
C1127 C1126 1.390 . S
C1127 C1128 1.394 . S
C1127 C1133 1.465 . S
C1128 C1123 1.399 . S
C1128 C1127 1.394 . S
C1128 C1129 1.516 . S
C1129 C1128 1.516 . S
C1129 C1130 1.502 . S
C1129 C1131 1.561 . S
C1129 C1132 1.526 . S
C1130 H1114 0.959 . S
C1130 H1115 0.959 . S
C1130 H1116 0.961 . S
C1130 C1129 1.502 . S
C1131 H1117 0.960 . S
C1131 H1118 0.961 . S
C1131 H1119 0.959 . S
C1131 C1129 1.561 . S
C1132 C1129 1.526 . S
C1132 C1133 1.396 . S
C1132 C1137 1.390 . S
C1133 C1127 1.465 . S
C1133 C1132 1.396 . S
C1133 C1134 1.399 . S
C1134 H1120 0.929 . S
C1134 C1133 1.399 . S
C1134 C1135 1.385 . S
C1135 H1121 0.931 . S
C1135 C1134 1.385 . S
C1135 C1136 1.389 . S
C1136 C1135 1.389 . S
C1136 C1137 1.387 . S
C1137 H1122 0.930 . S
C1137 C1132 1.390 . S
C1137 C1136 1.387 . S
H1138 C1150 0.930 . S
H1139 C1152 0.930 . S
H1140 C1153 0.930 . S
H1141 C1157 0.959 . S
H1142 C1157 0.959 . S
H1143 C1157 0.961 . S
H1144 C1158 0.960 . S
H1145 C1158 0.961 . S
H1146 C1158 0.959 . S
H1147 C1161 0.929 . S
H1148 C1162 0.931 . S
H1149 C1164 0.930 . S
C1150 H1138 0.930 . S
C1150 C1151 1.399 1_545 S
C1150 C1155 1.399 . S
C1151 C1150 1.399 1_565 S
C1151 C1152 1.376 . S
C1152 H1139 0.930 . S
C1152 C1151 1.376 . S
C1152 C1153 1.388 . S
C1153 H1140 0.930 . S
C1153 C1152 1.388 . S
C1153 C1154 1.390 1_565 S
C1154 C1153 1.390 1_545 S
C1154 C1155 1.394 . S
C1154 C1160 1.465 . S
C1155 C1150 1.399 . S
C1155 C1154 1.394 . S
C1155 C1156 1.516 . S
C1156 C1155 1.516 . S
C1156 C1157 1.502 . S
C1156 C1158 1.561 . S
C1156 C1159 1.526 . S
C1157 H1141 0.959 . S
C1157 H1142 0.959 . S
C1157 H1143 0.961 . S
C1157 C1156 1.502 . S
C1158 H1144 0.960 . S
C1158 H1145 0.961 . S
C1158 H1146 0.959 . S
C1158 C1156 1.561 . S
C1159 C1156 1.526 . S
C1159 C1160 1.396 . S
C1159 C1164 1.390 . S
C1160 C1154 1.465 . S
C1160 C1159 1.396 . S
C1160 C1161 1.399 . S
C1161 H1147 0.929 . S
C1161 C1160 1.399 . S
C1161 C1162 1.385 . S
C1162 H1148 0.931 . S
C1162 C1161 1.385 . S
C1162 C1163 1.389 . S
C1163 C1162 1.389 . S
C1163 C1164 1.387 . S
C1164 H1149 0.930 . S
C1164 C1159 1.390 . S
C1164 C1163 1.387 . S
H1165 C1177 0.930 1_565 S
H1166 C1179 0.939 . S
H1167 C1180 0.930 . S
H1168 C1184 0.959 . S
H1169 C1184 0.959 . S
H1170 C1184 0.961 . S
H1171 C1185 0.960 . S
H1172 C1185 0.961 . S
H1173 C1185 0.959 . S
H1174 C1188 0.929 . S
H1175 C1189 0.931 . S
H1176 C1191 0.930 . S
C1177 H1165 0.930 1_545 S
C1177 C1178 1.399 1_545 S
C1177 C1182 1.399 . S
C1178 C1177 1.399 1_565 S
C1178 C1179 1.376 1_565 S
C1179 H1166 0.939 . S
C1179 C1178 1.376 1_545 S
C1179 C1180 1.388 . S
C1180 H1167 0.930 . S
C1180 C1179 1.388 . S
C1180 C1181 1.390 . S
C1181 C1180 1.390 . S
C1181 C1182 1.394 . S
C1181 C1187 1.465 . S
C1182 C1177 1.399 . S
C1182 C1181 1.394 . S
C1182 C1183 1.516 . S
C1183 C1182 1.516 . S
C1183 C1184 1.502 . S
C1183 C1185 1.561 . S
C1183 C1186 1.526 . S
C1184 H1168 0.959 . S
C1184 H1169 0.959 . S
C1184 H1170 0.961 . S
C1184 C1183 1.502 . S
C1185 H1171 0.960 . S
C1185 H1172 0.961 . S
C1185 H1173 0.959 . S
C1185 C1183 1.561 . S
C1186 C1183 1.526 . S
C1186 C1187 1.396 . S
C1186 C1191 1.390 . S
C1187 C1181 1.465 . S
C1187 C1186 1.396 . S
C1187 C1188 1.399 . S
C1188 H1174 0.929 . S
C1188 C1187 1.399 . S
C1188 C1189 1.385 . S
C1189 H1175 0.931 . S
C1189 C1188 1.385 . S
C1189 C1190 1.389 . S
C1190 C1189 1.389 . S
C1190 C1191 1.387 . S
C1191 H1176 0.930 . S
C1191 C1186 1.390 . S
C1191 C1190 1.387 . S
H1192 C1204 0.930 . S
H1193 C1206 0.930 . S
H1194 C1207 0.930 . S
H1195 C1211 0.959 . S
H1196 C1211 0.959 . S
H1197 C1211 0.961 . S
H1198 C1212 0.960 . S
H1199 C1212 0.961 . S
H1200 C1212 0.959 . S
H1201 C1215 0.929 . S
H1202 C1216 0.931 . S
H1203 C1218 0.930 . S
C1204 H1192 0.930 . S
C1204 C1205 1.399 . S
C1204 C1209 1.399 . S
C1205 C1204 1.399 . S
C1205 C1206 1.376 . S
C1206 H1193 0.930 . S
C1206 C1205 1.376 . S
C1206 C1207 1.388 . S
C1207 H1194 0.930 . S
C1207 C1206 1.388 . S
C1207 C1208 1.390 . S
C1208 C1207 1.390 . S
C1208 C1209 1.394 . S
C1208 C1214 1.465 . S
C1209 C1204 1.399 . S
C1209 C1208 1.394 . S
C1209 C1210 1.516 . S
C1210 C1209 1.516 . S
C1210 C1211 1.502 . S
C1210 C1212 1.561 . S
C1210 C1213 1.526 . S
C1211 H1195 0.959 . S
C1211 H1196 0.959 . S
C1211 H1197 0.961 . S
C1211 C1210 1.502 . S
C1212 H1198 0.960 . S
C1212 H1199 0.961 . S
C1212 H1200 0.959 . S
C1212 C1210 1.561 . S
C1213 C1210 1.526 . S
C1213 C1214 1.396 . S
C1213 C1218 1.390 . S
C1214 C1208 1.465 . S
C1214 C1213 1.396 . S
C1214 C1215 1.399 . S
C1215 H1201 0.929 . S
C1215 C1214 1.399 . S
C1215 C1216 1.385 . S
C1216 H1202 0.931 . S
C1216 C1215 1.385 . S
C1216 C1217 1.389 . S
C1217 C1216 1.389 . S
C1217 C1218 1.387 . S
C1218 H1203 0.930 . S
C1218 C1213 1.390 . S
C1218 C1217 1.387 . S
H1219 C1231 0.930 . S
H1220 C1233 0.930 . S
H1221 C1234 0.930 . S
H1222 C1238 0.959 . S
H1223 C1238 0.959 . S
H1224 C1238 0.961 . S
H1225 C1239 0.960 . S
H1226 C1239 0.961 . S
H1227 C1239 0.959 . S
H1228 C1242 0.929 . S
H1229 C1243 0.931 . S
H1230 C1245 0.930 . S
C1231 H1219 0.930 . S
C1231 C1232 1.399 . S
C1231 C1236 1.399 . S
C1232 C1231 1.399 . S
C1232 C1233 1.376 . S
C1233 H1220 0.930 . S
C1233 C1232 1.376 . S
C1233 C1234 1.388 . S
C1234 H1221 0.930 . S
C1234 C1233 1.388 . S
C1234 C1235 1.390 . S
C1235 C1234 1.390 . S
C1235 C1236 1.394 . S
C1235 C1241 1.465 . S
C1236 C1231 1.399 . S
C1236 C1235 1.394 . S
C1236 C1237 1.516 . S
C1237 C1236 1.516 . S
C1237 C1238 1.502 . S
C1237 C1239 1.561 . S
C1237 C1240 1.526 . S
C1238 H1222 0.959 . S
C1238 H1223 0.959 . S
C1238 H1224 0.961 . S
C1238 C1237 1.502 . S
C1239 H1225 0.960 . S
C1239 H1226 0.961 . S
C1239 H1227 0.959 . S
C1239 C1237 1.561 . S
C1240 C1237 1.526 . S
C1240 C1241 1.396 . S
C1240 C1245 1.390 . S
C1241 C1235 1.465 . S
C1241 C1240 1.396 . S
C1241 C1242 1.399 . S
C1242 H1228 0.929 . S
C1242 C1241 1.399 . S
C1242 C1243 1.385 . S
C1243 H1229 0.931 . S
C1243 C1242 1.385 . S
C1243 C1244 1.389 . S
C1244 C1243 1.389 . S
C1244 C1245 1.387 . S
C1245 H1230 0.930 . S
C1245 C1240 1.390 . S
C1245 C1244 1.387 . S
H1246 C1258 0.930 . S
H1247 C1260 0.930 . S
H1248 C1261 0.930 . S
H1249 C1265 0.959 . S
H1250 C1265 0.959 . S
H1251 C1265 0.961 . S
H1252 C1266 0.960 . S
H1253 C1266 0.961 . S
H1254 C1266 0.959 . S
H1255 C1269 0.929 . S
H1256 C1270 0.931 . S
H1257 C1272 0.930 . S
C1258 H1246 0.930 . S
C1258 C1259 1.399 . S
C1258 C1263 1.399 . S
C1259 C1258 1.399 . S
C1259 C1260 1.376 . S
C1260 H1247 0.930 . S
C1260 C1259 1.376 . S
C1260 C1261 1.388 . S
C1261 H1248 0.930 . S
C1261 C1260 1.388 . S
C1261 C1262 1.390 . S
C1262 C1261 1.390 . S
C1262 C1263 1.394 . S
C1262 C1268 1.465 . S
C1263 C1258 1.399 . S
C1263 C1262 1.394 . S
C1263 C1264 1.516 . S
C1264 C1263 1.516 . S
C1264 C1265 1.502 . S
C1264 C1266 1.561 . S
C1264 C1267 1.526 . S
C1265 H1249 0.959 . S
C1265 H1250 0.959 . S
C1265 H1251 0.961 . S
C1265 C1264 1.502 . S
C1266 H1252 0.960 . S
C1266 H1253 0.961 . S
C1266 H1254 0.959 . S
C1266 C1264 1.561 . S
C1267 C1264 1.526 . S
C1267 C1268 1.396 . S
C1267 C1272 1.390 . S
C1268 C1262 1.465 . S
C1268 C1267 1.396 . S
C1268 C1269 1.399 . S
C1269 H1255 0.929 . S
C1269 C1268 1.399 . S
C1269 C1270 1.385 . S
C1270 H1256 0.931 . S
C1270 C1269 1.385 . S
C1270 C1271 1.389 . S
C1271 C1270 1.389 . S
C1271 C1272 1.387 . S
C1272 H1257 0.930 . S
C1272 C1267 1.390 . S
C1272 C1271 1.387 . S
H1273 C1285 0.930 . S
H1274 C1287 0.930 . S
H1275 C1288 0.930 . S
H1276 C1292 0.959 . S
H1277 C1292 0.959 . S
H1278 C1292 0.961 . S
H1279 C1293 0.960 . S
H1280 C1293 0.961 . S
H1281 C1293 0.959 . S
H1282 C1296 0.929 . S
H1283 C1297 0.931 . S
H1284 C1299 0.930 . S
C1285 H1273 0.930 . S
C1285 C1286 1.399 . S
C1285 C1290 1.399 . S
C1286 C1285 1.399 . S
C1286 C1287 1.376 . S
C1287 H1274 0.930 . S
C1287 C1286 1.376 . S
C1287 C1288 1.388 . S
C1288 H1275 0.930 . S
C1288 C1287 1.388 . S
C1288 C1289 1.390 . S
C1289 C1288 1.390 . S
C1289 C1290 1.394 . S
C1289 C1295 1.465 . S
C1290 C1285 1.399 . S
C1290 C1289 1.394 . S
C1290 C1291 1.516 . S
C1291 C1290 1.516 . S
C1291 C1292 1.502 . S
C1291 C1293 1.561 . S
C1291 C1294 1.526 . S
C1292 H1276 0.959 . S
C1292 H1277 0.959 . S
C1292 H1278 0.961 . S
C1292 C1291 1.502 . S
C1293 H1279 0.960 . S
C1293 H1280 0.961 . S
C1293 H1281 0.959 . S
C1293 C1291 1.561 . S
C1294 C1291 1.526 . S
C1294 C1295 1.396 . S
C1294 C1299 1.390 . S
C1295 C1289 1.465 . S
C1295 C1294 1.396 . S
C1295 C1296 1.399 . S
C1296 H1282 0.929 . S
C1296 C1295 1.399 . S
C1296 C1297 1.385 . S
C1297 H1283 0.931 . S
C1297 C1296 1.385 . S
C1297 C1298 1.389 . S
C1298 C1297 1.389 . S
C1298 C1299 1.387 . S
C1299 H1284 0.930 . S
C1299 C1294 1.390 . S
C1299 C1298 1.387 . S
H1300 C1312 0.930 . S
H1301 C1314 0.930 . S
H1302 C1315 0.930 . S
H1303 C1319 0.959 . S
H1304 C1319 0.959 . S
H1305 C1319 0.961 . S
H1306 C1320 0.960 . S
H1307 C1320 0.961 . S
H1308 C1320 0.959 . S
H1309 C1323 0.929 . S
H1310 C1324 0.931 . S
H1311 C1326 0.930 . S
C1312 H1300 0.930 . S
C1312 C1313 1.399 . S
C1312 C1317 1.399 . S
C1313 C1312 1.399 . S
C1313 C1314 1.376 . S
C1314 H1301 0.930 . S
C1314 C1313 1.376 . S
C1314 C1315 1.388 . S
C1315 H1302 0.930 . S
C1315 C1314 1.388 . S
C1315 C1316 1.390 . S
C1316 C1315 1.390 . S
C1316 C1317 1.394 . S
C1316 C1322 1.465 . S
C1317 C1312 1.399 . S
C1317 C1316 1.394 . S
C1317 C1318 1.516 . S
C1318 C1317 1.516 . S
C1318 C1319 1.502 . S
C1318 C1320 1.561 . S
C1318 C1321 1.526 . S
C1319 H1303 0.959 . S
C1319 H1304 0.959 . S
C1319 H1305 0.961 . S
C1319 C1318 1.502 . S
C1320 H1306 0.960 . S
C1320 H1307 0.961 . S
C1320 H1308 0.959 . S
C1320 C1318 1.561 . S
C1321 C1318 1.526 . S
C1321 C1322 1.396 . S
C1321 C1326 1.390 . S
C1322 C1316 1.465 . S
C1322 C1321 1.396 . S
C1322 C1323 1.399 . S
C1323 H1309 0.929 . S
C1323 C1322 1.399 . S
C1323 C1324 1.385 . S
C1324 H1310 0.931 . S
C1324 C1323 1.385 . S
C1324 C1325 1.389 . S
C1325 C1324 1.389 . S
C1325 C1326 1.387 . S
C1326 H1311 0.930 . S
C1326 C1321 1.390 . S
C1326 C1325 1.387 . S
H1327 C1339 0.930 . S
H1328 C1341 0.930 . S
H1329 C1342 0.930 . S
H1330 C1346 0.959 . S
H1331 C1346 0.959 . S
H1332 C1346 0.961 . S
H1333 C1347 0.960 . S
H1334 C1347 0.961 . S
H1335 C1347 0.959 . S
H1336 C1350 0.929 . S
H1337 C1351 0.931 . S
H1338 C1353 0.930 . S
C1339 H1327 0.930 . S
C1339 C1340 1.399 . S
C1339 C1344 1.399 . S
C1340 C1339 1.399 . S
C1340 C1341 1.376 . S
C1341 H1328 0.930 . S
C1341 C1340 1.376 . S
C1341 C1342 1.388 . S
C1342 H1329 0.930 . S
C1342 C1341 1.388 . S
C1342 C1343 1.390 . S
C1343 C1342 1.390 . S
C1343 C1344 1.394 . S
C1343 C1349 1.465 . S
C1344 C1339 1.399 . S
C1344 C1343 1.394 . S
C1344 C1345 1.516 . S
C1345 C1344 1.516 . S
C1345 C1346 1.502 . S
C1345 C1347 1.561 . S
C1345 C1348 1.526 . S
C1346 H1330 0.959 . S
C1346 H1331 0.959 . S
C1346 H1332 0.961 . S
C1346 C1345 1.502 . S
C1347 H1333 0.960 . S
C1347 H1334 0.961 . S
C1347 H1335 0.959 . S
C1347 C1345 1.561 . S
C1348 C1345 1.526 . S
C1348 C1349 1.396 . S
C1348 C1353 1.390 . S
C1349 C1343 1.465 . S
C1349 C1348 1.396 . S
C1349 C1350 1.399 . S
C1350 H1336 0.929 . S
C1350 C1349 1.399 . S
C1350 C1351 1.385 . S
C1351 H1337 0.931 . S
C1351 C1350 1.385 . S
C1351 C1352 1.389 . S
C1352 C1351 1.389 . S
C1352 C1353 1.387 . S
C1353 H1338 0.930 . S
C1353 C1348 1.390 . S
C1353 C1352 1.387 . S
H1354 C1366 0.930 . S
H1355 C1368 0.930 . S
H1356 C1369 0.930 . S
H1357 C1373 0.959 . S
H1358 C1373 0.959 . S
H1359 C1373 0.961 . S
H1360 C1374 0.960 . S
H1361 C1374 0.961 . S
H1362 C1374 0.959 . S
H1363 C1377 0.929 . S
H1364 C1378 0.931 . S
H1365 C1380 0.930 . S
C1366 H1354 0.930 . S
C1366 C1367 1.399 . S
C1366 C1371 1.399 . S
C1367 C1366 1.399 . S
C1367 C1368 1.376 . S
C1368 H1355 0.930 . S
C1368 C1367 1.376 . S
C1368 C1369 1.388 . S
C1369 H1356 0.930 . S
C1369 C1368 1.388 . S
C1369 C1370 1.390 . S
C1370 C1369 1.390 . S
C1370 C1371 1.394 . S
C1370 C1376 1.465 . S
C1371 C1366 1.399 . S
C1371 C1370 1.394 . S
C1371 C1372 1.516 . S
C1372 C1371 1.516 . S
C1372 C1373 1.502 . S
C1372 C1374 1.561 . S
C1372 C1375 1.526 . S
C1373 H1357 0.959 . S
C1373 H1358 0.959 . S
C1373 H1359 0.961 . S
C1373 C1372 1.502 . S
C1374 H1360 0.960 . S
C1374 H1361 0.961 . S
C1374 H1362 0.959 . S
C1374 C1372 1.561 . S
C1375 C1372 1.526 . S
C1375 C1376 1.396 . S
C1375 C1380 1.390 . S
C1376 C1370 1.465 . S
C1376 C1375 1.396 . S
C1376 C1377 1.399 . S
C1377 H1363 0.929 . S
C1377 C1376 1.399 . S
C1377 C1378 1.385 . S
C1378 H1364 0.931 . S
C1378 C1377 1.385 . S
C1378 C1379 1.389 . S
C1379 C1378 1.389 . S
C1379 C1380 1.387 . S
C1380 H1365 0.930 . S
C1380 C1375 1.390 . S
C1380 C1379 1.387 . S
H1381 C1393 0.930 . S
H1382 C1395 0.930 . S
H1383 C1396 0.930 . S
H1384 C1400 0.959 . S
H1385 C1400 0.959 . S
H1386 C1400 0.961 . S
H1387 C1401 0.960 . S
H1388 C1401 0.961 . S
H1389 C1401 0.959 . S
H1390 C1404 0.929 . S
H1391 C1405 0.931 . S
H1392 C1407 0.930 . S
C1393 H1381 0.930 . S
C1393 C1394 1.399 . S
C1393 C1398 1.399 . S
C1394 C1393 1.399 . S
C1394 C1395 1.376 . S
C1395 H1382 0.930 . S
C1395 C1394 1.376 . S
C1395 C1396 1.388 . S
C1396 H1383 0.930 . S
C1396 C1395 1.388 . S
C1396 C1397 1.390 . S
C1397 C1396 1.390 . S
C1397 C1398 1.394 . S
C1397 C1403 1.465 . S
C1398 C1393 1.399 . S
C1398 C1397 1.394 . S
C1398 C1399 1.516 . S
C1399 C1398 1.516 . S
C1399 C1400 1.502 . S
C1399 C1401 1.561 . S
C1399 C1402 1.526 . S
C1400 H1384 0.959 . S
C1400 H1385 0.959 . S
C1400 H1386 0.961 . S
C1400 C1399 1.502 . S
C1401 H1387 0.960 . S
C1401 H1388 0.961 . S
C1401 H1389 0.959 . S
C1401 C1399 1.561 . S
C1402 C1399 1.526 . S
C1402 C1403 1.396 . S
C1402 C1407 1.390 . S
C1403 C1397 1.465 . S
C1403 C1402 1.396 . S
C1403 C1404 1.399 . S
C1404 H1390 0.929 . S
C1404 C1403 1.399 . S
C1404 C1405 1.385 . S
C1405 H1391 0.931 . S
C1405 C1404 1.385 . S
C1405 C1406 1.389 . S
C1406 C1405 1.389 . S
C1406 C1407 1.387 . S
C1407 H1392 0.930 . S
C1407 C1402 1.390 . S
C1407 C1406 1.387 . S
H1408 C1420 0.930 1_545 S
H1409 C1422 0.930 1_545 S
H1410 C1423 0.930 . S
H1411 C1427 0.959 . S
H1412 C1427 0.959 . S
H1413 C1427 0.961 . S
H1414 C1428 0.960 . S
H1415 C1428 0.961 . S
H1416 C1428 0.959 . S
H1417 C1431 0.929 . S
H1418 C1432 0.931 . S
H1419 C1434 0.930 . S
C1420 H1408 0.930 1_565 S
C1420 C1421 1.399 1_465 S
C1420 C1425 1.399 . S
C1421 C1420 1.399 1_645 S
C1421 C1422 1.376 1_545 S
C1422 H1409 0.930 1_565 S
C1422 C1421 1.376 1_565 S
C1422 C1423 1.388 . S
C1423 H1410 0.930 . S
C1423 C1422 1.388 . S
C1423 C1424 1.390 . S
C1424 C1423 1.390 . S
C1424 C1425 1.394 1_655 S
C1424 C1430 1.465 . S
C1425 C1420 1.399 . S
C1425 C1424 1.394 1_455 S
C1425 C1426 1.516 . S
C1426 C1425 1.516 . S
C1426 C1427 1.502 . S
C1426 C1428 1.561 . S
C1426 C1429 1.526 . S
C1427 H1411 0.959 . S
C1427 H1412 0.959 . S
C1427 H1413 0.961 . S
C1427 C1426 1.502 . S
C1428 H1414 0.960 . S
C1428 H1415 0.961 . S
C1428 H1416 0.959 . S
C1428 C1426 1.561 . S
C1429 C1426 1.526 . S
C1429 C1430 1.396 1_455 S
C1429 C1434 1.390 . S
C1430 C1424 1.465 . S
C1430 C1429 1.396 1_655 S
C1430 C1431 1.399 . S
C1431 H1417 0.929 . S
C1431 C1430 1.399 . S
C1431 C1432 1.385 . S
C1432 H1418 0.931 . S
C1432 C1431 1.385 . S
C1432 C1433 1.389 1_655 S
C1433 C1432 1.389 1_455 S
C1433 C1434 1.387 . S
C1434 H1419 0.930 . S
C1434 C1429 1.390 . S
C1434 C1433 1.387 . S
H1435 C1447 0.930 . S
H1436 C1449 0.930 . S
H1437 C1450 0.930 . S
H1438 C1454 0.959 . S
H1439 C1454 0.959 . S
H1440 C1454 0.961 . S
H1441 C1455 0.960 1_545 S
H1442 C1455 0.961 1_545 S
H1443 C1455 0.959 . S
H1444 C1458 0.929 . S
H1445 C1459 0.931 . S
H1446 C1461 0.930 . S
C1447 H1435 0.930 . S
C1447 C1448 1.399 . S
C1447 C1452 1.399 . S
C1448 C1447 1.399 . S
C1448 C1449 1.376 . S
C1449 H1436 0.930 . S
C1449 C1448 1.376 . S
C1449 C1450 1.388 . S
C1450 H1437 0.930 . S
C1450 C1449 1.388 . S
C1450 C1451 1.390 . S
C1451 C1450 1.390 . S
C1451 C1452 1.394 . S
C1451 C1457 1.465 . S
C1452 C1447 1.399 . S
C1452 C1451 1.394 . S
C1452 C1453 1.516 . S
C1453 C1452 1.516 . S
C1453 C1454 1.502 . S
C1453 C1455 1.561 . S
C1453 C1456 1.526 . S
C1454 H1438 0.959 . S
C1454 H1439 0.959 . S
C1454 H1440 0.961 . S
C1454 C1453 1.502 . S
C1455 H1441 0.960 1_565 S
C1455 H1442 0.961 1_565 S
C1455 H1443 0.959 . S
C1455 C1453 1.561 . S
C1456 C1453 1.526 . S
C1456 C1457 1.396 . S
C1456 C1461 1.390 . S
C1457 C1451 1.465 . S
C1457 C1456 1.396 . S
C1457 C1458 1.399 . S
C1458 H1444 0.929 . S
C1458 C1457 1.399 . S
C1458 C1459 1.385 . S
C1459 H1445 0.931 . S
C1459 C1458 1.385 . S
C1459 C1460 1.389 . S
C1460 C1459 1.389 . S
C1460 C1461 1.387 . S
C1461 H1446 0.930 . S
C1461 C1456 1.390 . S
C1461 C1460 1.387 . S
H1462 C1474 0.930 . S
H1463 C1476 0.930 . S
H1464 C1477 0.930 . S
H1465 C1481 0.959 . S
H1466 C1481 0.959 . S
H1467 C1481 0.961 . S
H1468 C1482 0.960 . S
H1469 C1482 0.961 . S
H1470 C1482 0.959 . S
H1471 C1485 0.929 . S
H1472 C1486 0.931 . S
H1473 C1488 0.930 . S
C1474 H1462 0.930 . S
C1474 C1475 1.399 . S
C1474 C1479 1.399 . S
C1475 C1474 1.399 . S
C1475 C1476 1.376 . S
C1476 H1463 0.930 . S
C1476 C1475 1.376 . S
C1476 C1477 1.388 . S
C1477 H1464 0.930 . S
C1477 C1476 1.388 . S
C1477 C1478 1.390 . S
C1478 C1477 1.390 . S
C1478 C1479 1.394 . S
C1478 C1484 1.465 . S
C1479 C1474 1.399 . S
C1479 C1478 1.394 . S
C1479 C1480 1.516 . S
C1480 C1479 1.516 . S
C1480 C1481 1.502 . S
C1480 C1482 1.561 . S
C1480 C1483 1.526 . S
C1481 H1465 0.959 . S
C1481 H1466 0.959 . S
C1481 H1467 0.961 . S
C1481 C1480 1.502 . S
C1482 H1468 0.960 . S
C1482 H1469 0.961 . S
C1482 H1470 0.959 . S
C1482 C1480 1.561 . S
C1483 C1480 1.526 . S
C1483 C1484 1.396 . S
C1483 C1488 1.390 . S
C1484 C1478 1.465 . S
C1484 C1483 1.396 . S
C1484 C1485 1.399 . S
C1485 H1471 0.929 . S
C1485 C1484 1.399 . S
C1485 C1486 1.385 . S
C1486 H1472 0.931 . S
C1486 C1485 1.385 . S
C1486 C1487 1.389 . S
C1487 C1486 1.389 . S
C1487 C1488 1.387 . S
C1488 H1473 0.930 . S
C1488 C1483 1.390 . S
C1488 C1487 1.387 . S
H1489 C1501 0.930 . S
H1490 C1503 0.930 . S
H1491 C1504 0.930 . S
H1492 C1508 0.959 . S
H1493 C1508 0.959 . S
H1494 C1508 0.961 1_455 S
H1495 C1509 0.960 . S
H1496 C1509 0.961 1_655 S
H1497 C1509 0.959 . S
H1498 C1512 0.929 . S
H1499 C1513 0.931 . S
H1500 C1515 0.930 . S
C1501 H1489 0.930 . S
C1501 C1502 1.399 . S
C1501 C1506 1.399 . S
C1502 C1501 1.399 . S
C1502 C1503 1.376 . S
C1503 H1490 0.930 . S
C1503 C1502 1.376 . S
C1503 C1504 1.388 . S
C1504 H1491 0.930 . S
C1504 C1503 1.388 . S
C1504 C1505 1.390 . S
C1505 C1504 1.390 . S
C1505 C1506 1.394 . S
C1505 C1511 1.465 1_455 S
C1506 C1501 1.399 . S
C1506 C1505 1.394 . S
C1506 C1507 1.516 . S
C1507 C1506 1.516 . S
C1507 C1508 1.502 1_455 S
C1507 C1509 1.561 . S
C1507 C1510 1.526 1_455 S
C1508 H1492 0.959 . S
C1508 H1493 0.959 . S
C1508 H1494 0.961 1_655 S
C1508 C1507 1.502 1_655 S
C1509 H1495 0.960 . S
C1509 H1496 0.961 1_455 S
C1509 H1497 0.959 . S
C1509 C1507 1.561 . S
C1510 C1507 1.526 1_655 S
C1510 C1511 1.396 . S
C1510 C1515 1.390 . S
C1511 C1505 1.465 1_655 S
C1511 C1510 1.396 . S
C1511 C1512 1.399 . S
C1512 H1498 0.929 . S
C1512 C1511 1.399 . S
C1512 C1513 1.385 . S
C1513 H1499 0.931 . S
C1513 C1512 1.385 . S
C1513 C1514 1.389 . S
C1514 C1513 1.389 . S
C1514 C1515 1.387 . S
C1515 H1500 0.930 . S
C1515 C1510 1.390 . S
C1515 C1514 1.387 . S
H1516 C1528 0.930 1_455 S
H1517 C1530 0.930 . S
H1518 C1531 0.930 . S
H1519 C1535 0.959 . S
H1520 C1535 0.959 . S
H1521 C1535 0.961 . S
H1522 C1536 0.960 . S
H1523 C1536 0.970 . S
H1524 C1536 0.959 . S
H1525 C1539 0.929 . S
H1526 C1540 0.932 . S
H1527 C1542 0.930 . S
C1528 H1516 0.930 1_655 S
C1528 C1529 1.399 . S
C1528 C1533 1.399 1_655 S
C1529 C1528 1.399 . S
C1529 C1530 1.376 . S
C1530 H1517 0.930 . S
C1530 C1529 1.376 . S
C1530 C1531 1.388 . S
C1531 H1518 0.930 . S
C1531 C1530 1.388 . S
C1531 C1532 1.390 . S
C1532 C1531 1.390 . S
C1532 C1533 1.394 1_655 S
C1532 C1538 1.465 . S
C1533 C1528 1.399 1_455 S
C1533 C1532 1.394 1_455 S
C1533 C1534 1.516 . S
C1534 C1533 1.516 . S
C1534 C1535 1.502 . S
C1534 C1536 1.561 1_455 S
C1534 C1537 1.526 . S
C1535 H1519 0.959 . S
C1535 H1520 0.959 . S
C1535 H1521 0.961 . S
C1535 C1534 1.502 . S
C1536 H1522 0.960 . S
C1536 H1523 0.970 . S
C1536 H1524 0.959 . S
C1536 C1534 1.561 1_655 S
C1537 C1534 1.526 . S
C1537 C1538 1.396 1_455 S
C1537 C1542 1.390 . S
C1538 C1532 1.465 . S
C1538 C1537 1.396 1_655 S
C1538 C1539 1.399 . S
C1539 H1525 0.929 . S
C1539 C1538 1.399 . S
C1539 C1540 1.385 1_655 S
C1540 H1526 0.932 . S
C1540 C1539 1.385 1_455 S
C1540 C1541 1.389 . S
C1541 C1540 1.389 . S
C1541 C1542 1.387 . S
C1542 H1527 0.930 . S
C1542 C1537 1.390 . S
C1542 C1541 1.387 . S
H1543 C1555 0.930 . S
H1544 C1557 0.930 . S
H1545 C1558 0.930 . S
H1546 C1562 0.959 . S
H1547 C1562 0.959 . S
H1548 C1562 0.961 1_455 S
H1549 C1563 0.960 . S
H1550 C1563 0.961 1_655 S
H1551 C1563 0.959 . S
H1552 C1566 0.929 . S
H1553 C1567 0.931 . S
H1554 C1569 0.930 . S
C1555 H1543 0.930 . S
C1555 C1556 1.399 . S
C1555 C1560 1.399 . S
C1556 C1555 1.399 . S
C1556 C1557 1.376 . S
C1557 H1544 0.930 . S
C1557 C1556 1.376 . S
C1557 C1558 1.388 . S
C1558 H1545 0.930 . S
C1558 C1557 1.388 . S
C1558 C1559 1.390 . S
C1559 C1558 1.390 . S
C1559 C1560 1.394 . S
C1559 C1565 1.465 1_455 S
C1560 C1555 1.399 . S
C1560 C1559 1.394 . S
C1560 C1561 1.516 . S
C1561 C1560 1.516 . S
C1561 C1562 1.502 1_455 S
C1561 C1563 1.561 . S
C1561 C1564 1.526 1_455 S
C1562 H1546 0.959 . S
C1562 H1547 0.959 . S
C1562 H1548 0.961 1_655 S
C1562 C1561 1.502 1_655 S
C1563 H1549 0.960 . S
C1563 H1550 0.961 1_455 S
C1563 H1551 0.959 . S
C1563 C1561 1.561 . S
C1564 C1561 1.526 1_655 S
C1564 C1565 1.396 . S
C1564 C1569 1.390 . S
C1565 C1559 1.465 1_655 S
C1565 C1564 1.396 . S
C1565 C1566 1.399 . S
C1566 H1552 0.929 . S
C1566 C1565 1.399 . S
C1566 C1567 1.385 . S
C1567 H1553 0.931 . S
C1567 C1566 1.385 . S
C1567 C1568 1.389 . S
C1568 C1567 1.389 . S
C1568 C1569 1.387 . S
C1569 H1554 0.930 . S
C1569 C1564 1.390 . S
C1569 C1568 1.387 . S
H1570 C1582 0.930 . S
H1571 C1584 0.930 . S
H1572 C1585 0.930 . S
H1573 C1589 0.959 . S
H1574 C1589 0.959 . S
H1575 C1589 0.961 . S
H1576 C1590 0.960 . S
H1577 C1590 0.961 . S
H1578 C1590 0.959 . S
H1579 C1593 0.929 . S
H1580 C1594 0.931 . S
H1581 C1596 0.930 . S
C1582 H1570 0.930 . S
C1582 C1583 1.399 . S
C1582 C1587 1.399 . S
C1583 C1582 1.399 . S
C1583 C1584 1.376 . S
C1584 H1571 0.930 . S
C1584 C1583 1.376 . S
C1584 C1585 1.388 . S
C1585 H1572 0.930 . S
C1585 C1584 1.388 . S
C1585 C1586 1.390 . S
C1586 C1585 1.390 . S
C1586 C1587 1.394 . S
C1586 C1592 1.465 . S
C1587 C1582 1.399 . S
C1587 C1586 1.394 . S
C1587 C1588 1.516 . S
C1588 C1587 1.516 . S
C1588 C1589 1.502 . S
C1588 C1590 1.561 . S
C1588 C1591 1.526 . S
C1589 H1573 0.959 . S
C1589 H1574 0.959 . S
C1589 H1575 0.961 . S
C1589 C1588 1.502 . S
C1590 H1576 0.960 . S
C1590 H1577 0.961 . S
C1590 H1578 0.959 . S
C1590 C1588 1.561 . S
C1591 C1588 1.526 . S
C1591 C1592 1.396 . S
C1591 C1596 1.390 . S
C1592 C1586 1.465 . S
C1592 C1591 1.396 . S
C1592 C1593 1.399 . S
C1593 H1579 0.929 . S
C1593 C1592 1.399 . S
C1593 C1594 1.385 1_565 S
C1594 H1580 0.931 . S
C1594 C1593 1.385 1_545 S
C1594 C1595 1.389 . S
C1595 C1594 1.389 . S
C1595 C1596 1.387 1_545 S
C1596 H1581 0.930 . S
C1596 C1591 1.390 . S
C1596 C1595 1.387 1_565 S
H1597 C1609 0.930 . S
H1598 C1611 0.930 . S
H1599 C1612 0.930 . S
H1600 C1616 0.959 . S
H1601 C1616 0.959 . S
H1602 C1616 0.961 . S
H1603 C1617 0.960 . S
H1604 C1617 0.961 . S
H1605 C1617 0.959 . S
H1606 C1620 0.929 . S
H1607 C1621 0.931 . S
H1608 C1623 0.930 . S
C1609 H1597 0.930 . S
C1609 C1610 1.399 . S
C1609 C1614 1.399 . S
C1610 C1609 1.399 . S
C1610 C1611 1.376 . S
C1611 H1598 0.930 . S
C1611 C1610 1.376 . S
C1611 C1612 1.388 . S
C1612 H1599 0.930 . S
C1612 C1611 1.388 . S
C1612 C1613 1.390 . S
C1613 C1612 1.390 . S
C1613 C1614 1.394 . S
C1613 C1619 1.465 . S
C1614 C1609 1.399 . S
C1614 C1613 1.394 . S
C1614 C1615 1.516 . S
C1615 C1614 1.516 . S
C1615 C1616 1.502 . S
C1615 C1617 1.561 . S
C1615 C1618 1.526 . S
C1616 H1600 0.959 . S
C1616 H1601 0.959 . S
C1616 H1602 0.961 . S
C1616 C1615 1.502 . S
C1617 H1603 0.960 . S
C1617 H1604 0.961 . S
C1617 H1605 0.959 . S
C1617 C1615 1.561 . S
C1618 C1615 1.526 . S
C1618 C1619 1.396 . S
C1618 C1623 1.390 . S
C1619 C1613 1.465 . S
C1619 C1618 1.396 . S
C1619 C1620 1.399 . S
C1620 H1606 0.929 . S
C1620 C1619 1.399 . S
C1620 C1621 1.385 . S
C1621 H1607 0.931 . S
C1621 C1620 1.385 . S
C1621 C1622 1.389 . S
C1622 C1621 1.389 . S
C1622 C1623 1.387 . S
C1623 H1608 0.930 . S
C1623 C1618 1.390 . S
C1623 C1622 1.387 . S
C557 C451 1.075 . S
C569 C9 1.132 . S
C584 C43 1.153 . S
C596 C383 1.103 . S
C611 C77 1.156 . S
C623 C417 1.100 . S
C638 C111 1.081 . S
C650 C349 1.126 . S
C665 C519 1.162 . S
C677 C145 1.094 . S
C692 C179 1.183 . S
C704 C315 1.060 . S
C719 C213 1.133 . S
C731 C485 1.126 . S
C746 C281 1.052 . S
C758 C247 1.158 . S
C773 C20 1.625 . S
C785 C156 1.609 . S
C800 C54 1.648 . S
C812 C190 1.633 . S
C827 C88 1.627 . S
C839 C224 1.609 . S
C854 C258 1.607 . S
C866 C122 1.622 . S
C881 C360 1.616 . S
C893 C292 1.607 . S
C908 C326 1.610 . S
C920 C394 1.612 . S
C935 C496 1.627 . S
C947 C428 1.609 . S
C962 C530 1.629 . S
C974 C462 1.646 . S
C989 C203 1.069 1_545 S
C1001 C33 1.061 . S
C1016 C67 1.018 . S
C1028 C237 1.017 . S
C1043 C101 1.087 . S
C1055 C271 1.083 . S
C1070 C169 1.064 . S
C1082 C135 1.071 . S
C1097 C138 1.398 . S
C1109 C342 1.355 . S
C1124 C70 1.388 . S
C1136 C274 1.341 . S
C1151 C376 1.353 . S
C1163 C206 1.316 . S
C1178 C308 1.335 . S
C1190 C2 1.383 . S
C1205 C305 1.052 . S
C1217 C441 1.061 . S
C1232 C543 1.007 . S
C1244 C373 1.007 . S
C1259 C475 1.085 . S
C1271 C339 1.081 . S
C1286 C407 1.059 . S
C1298 C509 1.067 . S
C1313 C478 1.364 . S
C1325 C36 1.320 . S
C1340 C172 1.365 . S
C1352 C444 1.401 . S
C1367 C512 1.390 . S
C1379 C104 1.343 . S
C1394 C240 1.386 . S
C1406 C410 1.339 . S
C1421 C5 0.356 . S
C1433 C447 0.342 . S
C1448 C39 0.328 . S
C1460 C379 0.318 . S
C1475 C73 0.313 . S
C1487 C413 0.321 . S
C1502 C107 0.313 . S
C1514 C345 0.322 . S
C1529 C141 0.406 . S
C1541 C515 0.397 . S
C1556 C175 0.318 . S
C1568 C311 0.328 . S
C1583 C481 0.391 . S
C1595 C209 0.377 . S
C1610 C277 0.384 . S
C1622 C243 0.370 . S
