# Generated by pormake.
# Topology bcu, (8)-cn, num edge types: 1
# Building blocks:
#     Node 0, Type 0, BuildingBlock: VETTIZ_charged_sbu_0, # of connection points: 8
#     Node 1, Type 0, BuildingBlock: VETTIZ_charged_sbu_0, # of connection points: 8
#     Edge 2, Type (0, 0), BuildingBlock: TEMPAE_clean_linker_10, # of connection points: 2
#     Edge 3, Type (0, 0), BuildingBlock: TEMPAE_clean_linker_10, # of connection points: 2
#     Edge 4, Type (0, 0), BuildingBlock: TEMPAE_clean_linker_10, # of connection points: 2
#     Edge 5, Type (0, 0), BuildingBlock: TEMPAE_clean_linker_10, # of connection points: 2
#     Edge 6, Type (0, 0), BuildingBlock: TEMPAE_clean_linker_10, # of connection points: 2
#     Edge 7, Type (0, 0), BuildingBlock: TEMPAE_clean_linker_10, # of connection points: 2
#     Edge 8, Type (0, 0), BuildingBlock: TEMPAE_clean_linker_10, # of connection points: 2
#     Edge 9, Type (0, 0), BuildingBlock: TEMPAE_clean_linker_10, # of connection points: 2
# Relax obj value: 0.000
# Max RMSD: 0.009
# Mean RMSD: 0.009
data_MOF--net-bcu--node1-VETTIZ_charged_sbu_0--edge1-TEMPAE_clean_linker_10
_symmetry_space_group_name_H-M    P1
_symmetry_Int_Tables_number       1
_symmetry_cell_setting            triclinic
loop_
_symmetry_equiv_pos_as_xyz
'x, y, z'
_cell_length_a     19.332342
_cell_length_b     20.63937
_cell_length_c     19.351676
_cell_angle_alpha  89.942382
_cell_angle_beta   89.949521
_cell_angle_gamma 89.917839
loop_
_atom_site_label
_atom_site_type_symbol
_atom_site_fract_x
_atom_site_fract_y
_atom_site_fract_z
_atom_type_partial_charge
Fe0 Fe 1.0207 0.92031 0.02452 0.0
O1 O 0.06865 0.99219 0.07395 0.0
Fe2 Fe 0.96991 0.99304 0.87117 0.0
Fe3 Fe 0.07552 -0.00319 0.17474 0.0
O4 O 0.97567 0.99239 0.97232 0.0
O5 O 0.97599 -0.00094 0.97208 0.0
O6 O 0.06878 -0.00134 0.07383 0.0
Fe7 Fe 0.02471 0.07092 1.02105 0.0
C8 C 0.94446 0.91478 0.15937 0.0
O9 O 0.07715 0.85397 0.08639 0.0
O10 O 0.1411 0.91992 0.15845 0.0
O11 O 0.10593 0.06835 0.95178 0.0
O12 O 0.04722 0.05994 0.85314 0.0
O13 O 0.0413 0.91987 0.85758 0.0
O14 O 0.10167 0.91697 0.95522 0.0
O15 O 0.14434 0.07057 0.15584 0.0
O16 O 0.08402 0.13681 0.0807 0.0
C17 C 0.09675 0.90781 0.89049 0.0
O18 O 0.9703 0.13741 0.95715 0.0
O19 O 0.90611 0.07119 0.8855 0.0
O20 O 0.9399 0.92151 0.09418 0.0
O21 O 0.9996 0.92829 0.19231 0.0
C22 C 0.12828 0.86467 0.12907 0.0
C23 C 0.13389 0.12554 0.12479 0.0
C24 C 0.9481 0.0832 0.15562 0.0
O25 O 1.00249 0.06853 0.18933 0.0
O26 O 0.94375 0.07591 0.09044 0.0
C27 C 0.10192 0.07415 0.88643 0.0
O28 O 0.90002 0.92062 0.89084 0.0
O29 O 0.96163 0.85423 0.96471 0.0
C30 C 0.92209 0.12734 0.911 0.0
C31 C 0.91086 0.86561 0.92165 0.0
Fe32 Fe 0.52065 0.57126 0.52299 0.0
O33 O 0.47035 0.49879 0.56938 0.0
Fe34 Fe 0.67448 0.49888 0.47295 0.0
Fe35 Fe 0.36924 0.49464 0.57513 0.0
O36 O 0.57323 0.49981 0.47756 0.0
O37 O 0.57322 0.49324 0.47754 0.0
O38 O 0.47028 0.49221 0.56922 0.0
Fe39 Fe 0.52231 0.4206 0.52329 0.0
C40 C 0.41541 0.62536 0.63057 0.0
O41 O 0.45168 0.57126 0.44167 0.0
O42 O 0.35311 0.56492 0.50097 0.0
O43 O 0.58497 0.355 0.46689 0.0
O44 O 0.66052 0.42158 0.40753 0.0
O45 O 0.65598 0.57213 0.40361 0.0
O46 O 0.58141 0.63793 0.46521 0.0
O47 O 0.35456 0.4246 0.50029 0.0
O48 O 0.45369 0.41905 0.44171 0.0
C49 C 0.6252 0.62713 0.41484 0.0
O50 O 0.59012 0.41962 0.60497 0.0
O51 O 0.69108 0.43204 0.55071 0.0
O52 O 0.45832 0.63682 0.57975 0.0
O53 O 0.38566 0.57002 0.64237 0.0
C54 C 0.38644 0.57841 0.44607 0.0
C55 C 0.38851 0.41124 0.44567 0.0
C56 C 0.41749 0.36424 0.63043 0.0
O57 O 0.38689 0.4192 0.64218 0.0
O58 O 0.46125 0.35374 0.58006 0.0
C59 C 0.62995 0.36643 0.4179 0.0
O60 O 0.68752 0.57142 0.54506 0.0
O61 O 0.58924 0.57356 0.60461 0.0
C62 C 0.65583 0.4172 0.60409 0.0
C63 C 0.65403 0.58316 0.60027 0.0
C64 C 0.15563 0.24354 0.15018 0.0
C65 C 0.17928 0.17929 0.14789 0.0
C66 C 0.19232 0.29099 0.18755 0.0
C67 C 0.25329 0.27331 0.22376 0.0
C68 C 0.28041 0.21004 0.21607 0.0
C69 C 0.24344 0.16416 0.17784 0.0
C70 C 0.16311 0.35862 0.19243 0.0
C71 C 0.34518 0.1888 0.25351 0.0
C72 C 0.37533 0.38699 0.31909 0.0
C73 C 0.35126 0.38087 0.38721 0.0
C74 C 0.34111 0.35599 0.2641 0.0
C75 C 0.28291 0.31638 0.27804 0.0
C76 C 0.25743 0.31169 0.34655 0.0
C77 C 0.29138 0.34456 0.4 0.0
C78 C 0.36867 0.36398 0.19164 0.0
C79 C 0.19627 0.26922 0.36418 0.0
H80 H 0.10638 0.25583 0.12682 0.0
H81 H 0.26294 0.11494 0.17504 0.0
H82 H 0.13671 0.3647 0.24294 0.0
H83 H 0.20498 0.39526 0.18951 0.0
H84 H 0.12495 0.36839 0.15079 0.0
H85 H 0.36282 0.13992 0.2371 0.0
H86 H 0.38775 0.22371 0.24446 0.0
H87 H 0.33505 0.18759 0.30997 0.0
H88 H 0.42095 0.41594 0.30877 0.0
H89 H 0.27249 0.33964 0.45251 0.0
H90 H 0.32571 0.36952 0.15409 0.0
H91 H 0.39843 0.32014 0.17689 0.0
H92 H 0.40347 0.40659 0.18727 0.0
H93 H 0.1511 0.28246 0.33181 0.0
H94 H 0.18108 0.27311 0.4194 0.0
H95 H 0.20912 0.21785 0.35298 0.0
C96 C 0.82166 0.10743 0.17094 0.0
C97 C 0.89022 0.1139 0.19353 0.0
C98 C 0.76706 0.13792 0.20652 0.0
C99 C 0.78188 0.17734 0.26456 0.0
C100 C 0.85092 0.18251 0.28841 0.0
C101 C 0.90398 0.15015 0.25313 0.0
C102 C 0.69402 0.1295 0.1807 0.0
C103 C 0.86945 0.22488 0.34929 0.0
C104 C 0.68153 0.32871 0.30741 0.0
C105 C 0.65318 0.31306 0.37213 0.0
C106 C 0.71909 0.28319 0.26915 0.0
C107 C 0.72783 0.21983 0.29565 0.0
C108 C 0.69325 0.20165 0.35738 0.0
C109 C 0.65641 0.24873 0.39529 0.0
C110 C 0.75479 0.30492 0.2036 0.0
C111 C 0.69939 0.1339 0.38601 0.0
H112 H 0.81068 0.07845 0.12555 0.0
H113 H 0.95689 0.15528 0.27085 0.0
H114 H 0.65753 0.12317 0.22448 0.0
H115 H 0.67796 0.1735 0.15191 0.0
H116 H 0.68938 0.08721 0.14553 0.0
H117 H 0.92511 0.22142 0.36307 0.0
H118 H 0.8573 0.2762 0.33704 0.0
H119 H 0.83828 0.21114 0.39513 0.0
H120 H 0.67784 0.37801 0.28831 0.0
H121 H 0.63418 0.23611 0.44495 0.0
H122 H 0.74511 0.2701 0.16114 0.0
H123 H 0.81152 0.30651 0.21229 0.0
H124 H 0.73742 0.35374 0.18664 0.0
H125 H 0.69574 0.09746 0.34404 0.0
H126 H 0.65874 0.12374 0.42515 0.0
H127 H 0.75063 0.12794 0.411 0.0
C128 C 0.8179 0.89078 0.1742 0.0
C129 C 0.88626 0.88497 0.19773 0.0
C130 C 0.76323 0.85963 0.20896 0.0
C131 C 0.77773 0.82015 0.26714 0.0
C132 C 0.84645 0.81597 0.29223 0.0
C133 C 0.89958 0.84903 0.25776 0.0
C134 C 0.69051 0.86715 0.18184 0.0
C135 C 0.86469 0.77362 0.35332 0.0
C136 C 0.65032 0.74544 0.39412 0.0
C137 C 0.64847 0.68137 0.37007 0.0
C138 C 0.68748 0.79338 0.35778 0.0
C139 C 0.72398 0.77639 0.29678 0.0
C140 C 0.71688 0.71326 0.26934 0.0
C141 C 0.67879 0.6669 0.30592 0.0
C142 C 0.6917 0.86086 0.3873 0.0
C143 C 0.75468 0.69271 0.20455 0.0
H144 H 0.80717 0.91943 0.12844 0.0
H145 H 0.95228 0.84434 0.27624 0.0
H146 H 0.676 0.82325 0.15222 0.0
H147 H 0.65305 0.87236 0.22497 0.0
H148 H 0.68565 0.90977 0.14706 0.0
H149 H 0.91991 0.77814 0.36839 0.0
H150 H 0.83211 0.78637 0.3985 0.0
H151 H 0.8542 0.72215 0.34052 0.0
H152 H 0.62667 0.75723 0.44335 0.0
H153 H 0.67631 0.61784 0.28608 0.0
H154 H 0.68853 0.89775 0.34564 0.0
H155 H 0.74214 0.86715 0.41372 0.0
H156 H 0.64985 0.87007 0.42544 0.0
H157 H 0.74501 0.7276 0.16206 0.0
H158 H 0.73907 0.64366 0.18693 0.0
H159 H 0.81122 0.69228 0.21453 0.0
C160 C 0.14794 0.74659 0.15576 0.0
C161 C 0.17299 0.81022 0.15169 0.0
C162 C 0.18502 0.69868 0.19221 0.0
C163 C 0.24783 0.71529 0.22558 0.0
C164 C 0.27619 0.77776 0.21581 0.0
C165 C 0.23871 0.82415 0.17863 0.0
C166 C 0.15443 0.63182 0.19934 0.0
C167 C 0.34302 0.79777 0.25012 0.0
C168 C 0.28985 0.64657 0.40197 0.0
C169 C 0.34838 0.60863 0.38812 0.0
C170 C 0.25499 0.6792 0.34889 0.0
C171 C 0.2781 0.6725 0.27975 0.0
C172 C 0.33483 0.63121 0.26489 0.0
C173 C 0.37014 0.60057 0.3195 0.0
C174 C 0.19556 0.72357 0.36747 0.0
C175 C 0.35974 0.62103 0.1918 0.0
H176 H 0.09751 0.73526 0.13457 0.0
H177 H 0.25925 0.87284 0.17424 0.0
H178 H 0.19528 0.59417 0.19533 0.0
H179 H 0.12995 0.62694 0.25096 0.0
H180 H 0.1144 0.62251 0.15942 0.0
H181 H 0.36126 0.84591 0.23202 0.0
H182 H 0.33529 0.80007 0.30691 0.0
H183 H 0.38422 0.7616 0.23999 0.0
H184 H 0.27284 0.65294 0.45495 0.0
H185 H 0.41471 0.57032 0.30852 0.0
H186 H 0.14896 0.71079 0.33706 0.0
H187 H 0.20927 0.77435 0.35445 0.0
H188 H 0.18222 0.72124 0.42327 0.0
H189 H 0.31549 0.61699 0.15557 0.0
H190 H 0.39226 0.5768 0.18726 0.0
H191 H 0.39125 0.66321 0.17544 0.0
C192 C 0.14137 0.83964 0.79432 0.0
C193 C 0.15488 0.87758 0.85273 0.0
C194 C 0.19483 0.8076 0.75938 0.0
C195 C 0.26394 0.81483 0.78241 0.0
C196 C 0.27842 0.85598 0.83912 0.0
C197 C 0.22348 0.88613 0.87441 0.0
C198 C 0.17674 0.76343 0.69984 0.0
C199 C 0.35148 0.86658 0.86398 0.0
C200 C 0.36622 0.66434 0.74159 0.0
C201 C 0.39286 0.67914 0.67597 0.0
C202 C 0.32889 0.71016 0.77965 0.0
C203 C 0.31861 0.77283 0.75186 0.0
C204 C 0.35176 0.79032 0.68917 0.0
C205 C 0.38844 0.743 0.65157 0.0
C206 C 0.29485 0.68929 0.84637 0.0
C207 C 0.34397 0.8574 0.65915 0.0
H208 H 0.08843 0.83296 0.77732 0.0
H209 H 0.23419 0.91644 0.91885 0.0
H210 H 0.20704 0.7768 0.6533 0.0
H211 H 0.19033 0.71269 0.71327 0.0
H212 H 0.12086 0.76533 0.68661 0.0
H213 H 0.35555 0.91041 0.89701 0.0
H214 H 0.36841 0.82412 0.89484 0.0
H215 H 0.38765 0.87157 0.81973 0.0
H216 H 0.37091 0.61542 0.76156 0.0
H217 H 0.40942 0.75495 0.60119 0.0
H218 H 0.23805 0.68624 0.83868 0.0
H219 H 0.30435 0.72535 0.88768 0.0
H220 H 0.31373 0.64129 0.86435 0.0
H221 H 0.29228 0.86203 0.63476 0.0
H222 H 0.38387 0.86742 0.61921 0.0
H223 H 0.34753 0.89472 0.70024 0.0
C224 C 0.36415 0.32394 0.73927 0.0
C225 C 0.39472 0.30977 0.67517 0.0
C226 C 0.32708 0.27703 0.77609 0.0
C227 C 0.32128 0.21368 0.74893 0.0
C228 C 0.35812 0.19711 0.68801 0.0
C229 C 0.39424 0.24558 0.65142 0.0
C230 C 0.28891 0.29714 0.84082 0.0
C231 C 0.35537 0.12942 0.65887 0.0
C232 C 0.2284 0.09894 0.8719 0.0
C233 C 0.16009 0.10393 0.84804 0.0
C234 C 0.28286 0.13034 0.83705 0.0
C235 C 0.26812 0.16928 0.7785 0.0
C236 C 0.19949 0.17253 0.75305 0.0
C237 C 0.14663 0.13922 0.7876 0.0
C238 C 0.35553 0.12373 0.86454 0.0
C239 C 0.18096 0.21428 0.69157 0.0
H240 H 0.36568 0.37308 0.75897 0.0
H241 H 0.41822 0.23399 0.6023 0.0
H242 H 0.23236 0.29645 0.83092 0.0
H243 H 0.2994 0.26262 0.88347 0.0
H244 H 0.30348 0.34656 0.8582 0.0
H245 H 0.39749 0.12079 0.62087 0.0
H246 H 0.35921 0.09281 0.70075 0.0
H247 H 0.30513 0.12207 0.63237 0.0
H248 H 0.23923 0.07078 0.91798 0.0
H249 H 0.09395 0.14328 0.76887 0.0
H250 H 0.36883 0.16737 0.89515 0.0
H251 H 0.39346 0.1199 0.82166 0.0
H252 H 0.36097 0.08064 0.89857 0.0
H253 H 0.19064 0.26596 0.70408 0.0
H254 H 0.12589 0.20897 0.67626 0.0
H255 H 0.21394 0.20167 0.64664 0.0
C256 C 0.86756 0.23895 0.91266 0.0
C257 C 0.88757 0.18289 0.877 0.0
C258 C 0.82967 0.28816 0.87872 0.0
C259 C 0.8123 0.28075 0.80787 0.0
C260 C 0.83505 0.22527 0.77152 0.0
C261 C 0.87225 0.17743 0.80641 0.0
C262 C 0.8066 0.34688 0.91896 0.0
C263 C 0.81887 0.21542 0.69576 0.0
C264 C 0.65943 0.35004 0.7119 0.0
C265 C 0.69276 0.39185 0.66547 0.0
C266 C 0.69677 0.3181 0.76404 0.0
C267 C 0.76888 0.3289 0.77032 0.0
C268 C 0.80109 0.3762 0.7282 0.0
C269 C 0.7628 0.40664 0.67579 0.0
C270 C 0.66028 0.26813 0.80782 0.0
C271 C 0.87738 0.39048 0.73423 0.0
H272 H 0.87951 0.24336 0.96716 0.0
H273 H 0.88906 0.13491 0.77807 0.0
H274 H 0.81749 0.3919 0.88954 0.0
H275 H 0.74987 0.34462 0.92727 0.0
H276 H 0.83231 0.34988 0.97017 0.0
H277 H 0.84118 0.16973 0.67512 0.0
H278 H 0.76203 0.21419 0.68795 0.0
H279 H 0.83951 0.25639 0.6649 0.0
H280 H 0.60507 0.33902 0.70483 0.0
H281 H 0.78842 0.44039 0.64128 0.0
H282 H 0.67667 0.27184 0.86257 0.0
H283 H 0.67437 0.21895 0.78934 0.0
H284 H 0.60312 0.27326 0.80511 0.0
H285 H 0.8936 0.39204 0.78917 0.0
H286 H 0.89109 0.43722 0.70923 0.0
H287 H 0.90724 0.35133 0.70858 0.0
C288 C 0.75055 0.65047 0.64603 0.0
C289 C 0.69115 0.61348 0.65879 0.0
C290 C 0.78477 0.68274 0.69969 0.0
C291 C 0.76006 0.67672 0.76836 0.0
C292 C 0.70225 0.6366 0.78218 0.0
C293 C 0.66774 0.6062 0.727 0.0
C294 C 0.84543 0.72589 0.68221 0.0
C295 C 0.67564 0.62728 0.85482 0.0
C296 C 0.88899 0.74787 0.89541 0.0
C297 C 0.86513 0.81197 0.89913 0.0
C298 C 0.85179 0.70084 0.85798 0.0
C299 C 0.79013 0.71886 0.82315 0.0
C300 C 0.76283 0.78186 0.83245 0.0
C301 C 0.80029 0.82729 0.87078 0.0
C302 C 0.88126 0.63343 0.85133 0.0
C303 C 0.69744 0.8035 0.79636 0.0
H304 H 0.76895 0.65626 0.59344 0.0
H305 H 0.6225 0.57673 0.73725 0.0
H306 H 0.83254 0.77693 0.69493 0.0
H307 H 0.89116 0.71211 0.71352 0.0
H308 H 0.85979 0.72331 0.62668 0.0
H309 H 0.63934 0.58573 0.85848 0.0
H310 H 0.71913 0.6192 0.89122 0.0
H311 H 0.64796 0.6716 0.87177 0.0
H312 H 0.93877 0.73547 0.91754 0.0
H313 H 0.7807 0.87641 0.87473 0.0
H314 H 0.90739 0.6285 0.80054 0.0
H315 H 0.83961 0.59654 0.85367 0.0
H316 H 0.91974 0.623 0.8925 0.0
H317 H 0.70696 0.80624 0.73986 0.0
H318 H 0.67959 0.85182 0.81438 0.0
H319 H 0.65524 0.76807 0.80482 0.0
loop_
_geom_bond_atom_site_label_1
_geom_bond_atom_site_label_2
_geom_bond_distance
_geom_bond_site_symmetry_2
_ccdc_geom_bond_type
Fe0 O1 1.886 . S
Fe0 O4 1.715 1_554 S
Fe0 O9 2.077 . S
Fe0 O14 1.935 1_554 S
Fe0 O20 2.077 1_455 S
Fe0 O29 1.935 1_454 S
O1 Fe0 1.886 . S
O1 Fe3 1.715 1_565 S
Fe2 O4 1.886 . S
Fe2 O5 1.715 1_565 S
Fe2 O12 1.935 1_565 S
Fe2 O13 2.077 . S
Fe2 O19 1.935 1_465 S
Fe2 O28 2.077 1_455 S
Fe3 O1 1.715 1_545 S
Fe3 O6 1.886 . S
Fe3 O10 1.935 1_545 S
Fe3 O15 2.077 . S
Fe3 O21 1.935 1_445 S
Fe3 O25 2.077 1_455 S
O4 Fe0 1.715 1_556 S
O4 Fe2 1.886 . S
O5 Fe2 1.715 1_545 S
O5 Fe7 1.886 . S
O6 Fe3 1.886 . S
O6 Fe7 1.715 1_554 S
Fe7 O5 1.886 . S
Fe7 O6 1.715 1_556 S
Fe7 O11 2.077 . S
Fe7 O16 1.935 1_556 S
Fe7 O18 2.077 1_455 S
Fe7 O26 1.935 1_456 S
C8 O20 1.381 . S
C8 O21 1.421 . S
O9 Fe0 2.077 . S
O9 C22 1.381 . S
O10 Fe3 1.935 1_565 S
O10 C22 1.421 . S
O11 Fe7 2.077 . S
O11 C27 1.381 . S
O12 Fe2 1.935 1_545 S
O12 C27 1.421 . S
O13 Fe2 2.077 . S
O13 C17 1.381 . S
O14 Fe0 1.935 1_556 S
O14 C17 1.421 . S
O15 Fe3 2.077 . S
O15 C23 1.381 . S
O16 Fe7 1.935 1_554 S
O16 C23 1.421 . S
C17 O13 1.381 . S
C17 O14 1.421 . S
O18 Fe7 2.077 1_655 S
O18 C30 1.381 . S
O19 Fe2 1.935 1_645 S
O19 C30 1.421 . S
O20 Fe0 2.077 1_655 S
O20 C8 1.381 . S
O21 Fe3 1.935 1_665 S
O21 C8 1.421 . S
C22 O9 1.381 . S
C22 O10 1.421 . S
C23 O15 1.381 . S
C23 O16 1.421 . S
C24 O25 1.381 . S
C24 O26 1.421 . S
O25 Fe3 2.077 1_655 S
O25 C24 1.381 . S
O26 Fe7 1.935 1_654 S
O26 C24 1.421 . S
C27 O11 1.381 . S
C27 O12 1.421 . S
O28 Fe2 2.077 1_655 S
O28 C31 1.381 . S
O29 Fe0 1.935 1_656 S
O29 C31 1.421 . S
C30 O18 1.381 . S
C30 O19 1.421 . S
C31 O28 1.381 . S
C31 O29 1.421 . S
Fe32 O33 1.886 . S
Fe32 O36 1.715 . S
Fe32 O41 2.077 . S
Fe32 O46 1.935 . S
Fe32 O52 2.077 . S
Fe32 O61 1.935 . S
O33 Fe32 1.886 . S
O33 Fe35 1.715 . S
Fe34 O36 1.886 . S
Fe34 O37 1.715 . S
Fe34 O44 1.935 . S
Fe34 O45 2.077 . S
Fe34 O51 1.935 . S
Fe34 O60 2.077 . S
Fe35 O33 1.715 . S
Fe35 O38 1.886 . S
Fe35 O42 1.935 . S
Fe35 O47 2.077 . S
Fe35 O53 1.935 . S
Fe35 O57 2.077 . S
O36 Fe32 1.715 . S
O36 Fe34 1.886 . S
O37 Fe34 1.715 . S
O37 Fe39 1.886 . S
O38 Fe35 1.886 . S
O38 Fe39 1.715 . S
Fe39 O37 1.886 . S
Fe39 O38 1.715 . S
Fe39 O43 2.077 . S
Fe39 O48 1.935 . S
Fe39 O50 2.077 . S
Fe39 O58 1.935 . S
C40 O52 1.381 . S
C40 O53 1.421 . S
O41 Fe32 2.077 . S
O41 C54 1.381 . S
O42 Fe35 1.935 . S
O42 C54 1.421 . S
O43 Fe39 2.077 . S
O43 C59 1.381 . S
O44 Fe34 1.935 . S
O44 C59 1.421 . S
O45 Fe34 2.077 . S
O45 C49 1.381 . S
O46 Fe32 1.935 . S
O46 C49 1.421 . S
O47 Fe35 2.077 . S
O47 C55 1.381 . S
O48 Fe39 1.935 . S
O48 C55 1.421 . S
C49 O45 1.381 . S
C49 O46 1.421 . S
O50 Fe39 2.077 . S
O50 C62 1.381 . S
O51 Fe34 1.935 . S
O51 C62 1.421 . S
O52 Fe32 2.077 . S
O52 C40 1.381 . S
O53 Fe35 1.935 . S
O53 C40 1.421 . S
C54 O41 1.381 . S
C54 O42 1.421 . S
C55 O47 1.381 . S
C55 O48 1.421 . S
C56 O57 1.381 . S
C56 O58 1.421 . S
O57 Fe35 2.077 . S
O57 C56 1.381 . S
O58 Fe39 1.935 . S
O58 C56 1.421 . S
C59 O43 1.381 . S
C59 O44 1.421 . S
O60 Fe34 2.077 . S
O60 C63 1.381 . S
O61 Fe32 1.935 . S
O61 C63 1.421 . S
C62 O50 1.381 . S
C62 O51 1.421 . S
C63 O60 1.381 . S
C63 O61 1.421 . S
C64 C65 1.391 . S
C64 C66 1.394 . S
C64 H80 0.931 . S
C65 C64 1.391 . S
C65 C69 1.376 . S
C66 C64 1.394 . S
C66 C67 1.369 . S
C66 C70 1.531 . S
C67 C66 1.369 . S
C67 C68 1.410 . S
C67 C75 1.503 . S
C68 C67 1.410 . S
C68 C69 1.392 . S
C68 C71 1.511 . S
C69 C65 1.376 . S
C69 C68 1.392 . S
C69 H81 0.929 . S
C70 C66 1.531 . S
C70 H82 0.960 . S
C70 H83 0.962 . S
C70 H84 0.960 . S
C71 C68 1.511 . S
C71 H85 0.961 . S
C71 H86 0.961 . S
C71 H87 0.961 . S
C72 C73 1.370 . S
C72 C74 1.363 . S
C72 H88 0.931 . S
C73 C72 1.370 . S
C73 C77 1.408 . S
C74 C72 1.363 . S
C74 C75 1.370 . S
C74 C78 1.524 . S
C75 C67 1.503 . S
C75 C74 1.370 . S
C75 C76 1.403 . S
C76 C75 1.403 . S
C76 C77 1.404 . S
C76 C79 1.539 . S
C77 C73 1.408 . S
C77 C76 1.404 . S
C77 H89 0.930 . S
C78 C74 1.524 . S
C78 H90 0.956 . S
C78 H91 0.961 . S
C78 H92 0.961 . S
C79 C76 1.539 . S
C79 H93 0.958 . S
C79 H94 0.961 . S
C79 H95 0.960 . S
H80 C64 0.931 . S
H81 C69 0.929 . S
H82 C70 0.960 . S
H83 C70 0.962 . S
H84 C70 0.960 . S
H85 C71 0.961 . S
H86 C71 0.961 . S
H87 C71 0.961 . S
H88 C72 0.931 . S
H89 C77 0.930 . S
H90 C78 0.956 . S
H91 C78 0.961 . S
H92 C78 0.961 . S
H93 C79 0.958 . S
H94 C79 0.961 . S
H95 C79 0.960 . S
C96 C97 1.391 . S
C96 C98 1.394 . S
C96 H112 0.931 . S
C97 C96 1.391 . S
C97 C101 1.376 . S
C98 C96 1.394 . S
C98 C99 1.369 . S
C98 C102 1.531 . S
C99 C98 1.369 . S
C99 C100 1.410 . S
C99 C107 1.503 . S
C100 C99 1.410 . S
C100 C101 1.392 . S
C100 C103 1.511 . S
C101 C97 1.376 . S
C101 C100 1.392 . S
C101 H113 0.929 . S
C102 C98 1.531 . S
C102 H114 0.960 . S
C102 H115 0.962 . S
C102 H116 0.960 . S
C103 C100 1.511 . S
C103 H117 0.961 . S
C103 H118 0.961 . S
C103 H119 0.961 . S
C104 C105 1.370 . S
C104 C106 1.363 . S
C104 H120 0.931 . S
C105 C104 1.370 . S
C105 C109 1.408 . S
C106 C104 1.363 . S
C106 C107 1.370 . S
C106 C110 1.524 . S
C107 C99 1.503 . S
C107 C106 1.370 . S
C107 C108 1.403 . S
C108 C107 1.403 . S
C108 C109 1.404 . S
C108 C111 1.539 . S
C109 C105 1.408 . S
C109 C108 1.404 . S
C109 H121 0.930 . S
C110 C106 1.524 . S
C110 H122 0.956 . S
C110 H123 0.961 . S
C110 H124 0.961 . S
C111 C108 1.539 . S
C111 H125 0.958 . S
C111 H126 0.961 . S
C111 H127 0.960 . S
H112 C96 0.931 . S
H113 C101 0.929 . S
H114 C102 0.960 . S
H115 C102 0.962 . S
H116 C102 0.960 . S
H117 C103 0.961 . S
H118 C103 0.961 . S
H119 C103 0.961 . S
H120 C104 0.931 . S
H121 C109 0.930 . S
H122 C110 0.956 . S
H123 C110 0.961 . S
H124 C110 0.961 . S
H125 C111 0.958 . S
H126 C111 0.961 . S
H127 C111 0.960 . S
C128 C129 1.391 . S
C128 C130 1.394 . S
C128 H144 0.931 . S
C129 C128 1.391 . S
C129 C133 1.376 . S
C130 C128 1.394 . S
C130 C131 1.369 . S
C130 C134 1.531 . S
C131 C130 1.369 . S
C131 C132 1.410 . S
C131 C139 1.503 . S
C132 C131 1.410 . S
C132 C133 1.392 . S
C132 C135 1.511 . S
C133 C129 1.376 . S
C133 C132 1.392 . S
C133 H145 0.929 . S
C134 C130 1.531 . S
C134 H146 0.960 . S
C134 H147 0.962 . S
C134 H148 0.960 . S
C135 C132 1.511 . S
C135 H149 0.961 . S
C135 H150 0.961 . S
C135 H151 0.961 . S
C136 C137 1.370 . S
C136 C138 1.363 . S
C136 H152 0.931 . S
C137 C136 1.370 . S
C137 C141 1.408 . S
C138 C136 1.363 . S
C138 C139 1.370 . S
C138 C142 1.524 . S
C139 C131 1.503 . S
C139 C138 1.370 . S
C139 C140 1.403 . S
C140 C139 1.403 . S
C140 C141 1.404 . S
C140 C143 1.539 . S
C141 C137 1.408 . S
C141 C140 1.404 . S
C141 H153 0.930 . S
C142 C138 1.524 . S
C142 H154 0.956 . S
C142 H155 0.961 . S
C142 H156 0.961 . S
C143 C140 1.539 . S
C143 H157 0.958 . S
C143 H158 0.961 . S
C143 H159 0.960 . S
H144 C128 0.931 . S
H145 C133 0.929 . S
H146 C134 0.960 . S
H147 C134 0.962 . S
H148 C134 0.960 . S
H149 C135 0.961 . S
H150 C135 0.961 . S
H151 C135 0.961 . S
H152 C136 0.931 . S
H153 C141 0.930 . S
H154 C142 0.956 . S
H155 C142 0.961 . S
H156 C142 0.961 . S
H157 C143 0.958 . S
H158 C143 0.961 . S
H159 C143 0.960 . S
C160 C161 1.391 . S
C160 C162 1.394 . S
C160 H176 0.931 . S
C161 C160 1.391 . S
C161 C165 1.376 . S
C162 C160 1.394 . S
C162 C163 1.369 . S
C162 C166 1.531 . S
C163 C162 1.369 . S
C163 C164 1.410 . S
C163 C171 1.503 . S
C164 C163 1.410 . S
C164 C165 1.392 . S
C164 C167 1.511 . S
C165 C161 1.376 . S
C165 C164 1.392 . S
C165 H177 0.929 . S
C166 C162 1.531 . S
C166 H178 0.960 . S
C166 H179 0.962 . S
C166 H180 0.960 . S
C167 C164 1.511 . S
C167 H181 0.961 . S
C167 H182 0.961 . S
C167 H183 0.961 . S
C168 C169 1.370 . S
C168 C170 1.363 . S
C168 H184 0.931 . S
C169 C168 1.370 . S
C169 C173 1.408 . S
C170 C168 1.363 . S
C170 C171 1.370 . S
C170 C174 1.524 . S
C171 C163 1.503 . S
C171 C170 1.370 . S
C171 C172 1.403 . S
C172 C171 1.403 . S
C172 C173 1.404 . S
C172 C175 1.539 . S
C173 C169 1.408 . S
C173 C172 1.404 . S
C173 H185 0.930 . S
C174 C170 1.524 . S
C174 H186 0.956 . S
C174 H187 0.961 . S
C174 H188 0.961 . S
C175 C172 1.539 . S
C175 H189 0.958 . S
C175 H190 0.961 . S
C175 H191 0.960 . S
H176 C160 0.931 . S
H177 C165 0.929 . S
H178 C166 0.960 . S
H179 C166 0.962 . S
H180 C166 0.960 . S
H181 C167 0.961 . S
H182 C167 0.961 . S
H183 C167 0.961 . S
H184 C168 0.931 . S
H185 C173 0.930 . S
H186 C174 0.956 . S
H187 C174 0.961 . S
H188 C174 0.961 . S
H189 C175 0.958 . S
H190 C175 0.961 . S
H191 C175 0.960 . S
C192 C193 1.391 . S
C192 C194 1.394 . S
C192 H208 0.931 . S
C193 C192 1.391 . S
C193 C197 1.376 . S
C194 C192 1.394 . S
C194 C195 1.369 . S
C194 C198 1.531 . S
C195 C194 1.369 . S
C195 C196 1.410 . S
C195 C203 1.503 . S
C196 C195 1.410 . S
C196 C197 1.392 . S
C196 C199 1.511 . S
C197 C193 1.376 . S
C197 C196 1.392 . S
C197 H209 0.929 . S
C198 C194 1.531 . S
C198 H210 0.960 . S
C198 H211 0.962 . S
C198 H212 0.960 . S
C199 C196 1.511 . S
C199 H213 0.961 . S
C199 H214 0.961 . S
C199 H215 0.961 . S
C200 C201 1.370 . S
C200 C202 1.363 . S
C200 H216 0.931 . S
C201 C200 1.370 . S
C201 C205 1.408 . S
C202 C200 1.363 . S
C202 C203 1.370 . S
C202 C206 1.524 . S
C203 C195 1.503 . S
C203 C202 1.370 . S
C203 C204 1.403 . S
C204 C203 1.403 . S
C204 C205 1.404 . S
C204 C207 1.539 . S
C205 C201 1.408 . S
C205 C204 1.404 . S
C205 H217 0.930 . S
C206 C202 1.524 . S
C206 H218 0.956 . S
C206 H219 0.961 . S
C206 H220 0.961 . S
C207 C204 1.539 . S
C207 H221 0.958 . S
C207 H222 0.961 . S
C207 H223 0.960 . S
H208 C192 0.931 . S
H209 C197 0.929 . S
H210 C198 0.960 . S
H211 C198 0.962 . S
H212 C198 0.960 . S
H213 C199 0.961 . S
H214 C199 0.961 . S
H215 C199 0.961 . S
H216 C200 0.931 . S
H217 C205 0.930 . S
H218 C206 0.956 . S
H219 C206 0.961 . S
H220 C206 0.961 . S
H221 C207 0.958 . S
H222 C207 0.961 . S
H223 C207 0.960 . S
C224 C225 1.391 . S
C224 C226 1.394 . S
C224 H240 0.931 . S
C225 C224 1.391 . S
C225 C229 1.376 . S
C226 C224 1.394 . S
C226 C227 1.369 . S
C226 C230 1.531 . S
C227 C226 1.369 . S
C227 C228 1.410 . S
C227 C235 1.503 . S
C228 C227 1.410 . S
C228 C229 1.392 . S
C228 C231 1.511 . S
C229 C225 1.376 . S
C229 C228 1.392 . S
C229 H241 0.929 . S
C230 C226 1.531 . S
C230 H242 0.960 . S
C230 H243 0.962 . S
C230 H244 0.960 . S
C231 C228 1.511 . S
C231 H245 0.961 . S
C231 H246 0.961 . S
C231 H247 0.961 . S
C232 C233 1.370 . S
C232 C234 1.363 . S
C232 H248 0.931 . S
C233 C232 1.370 . S
C233 C237 1.408 . S
C234 C232 1.363 . S
C234 C235 1.370 . S
C234 C238 1.524 . S
C235 C227 1.503 . S
C235 C234 1.370 . S
C235 C236 1.403 . S
C236 C235 1.403 . S
C236 C237 1.404 . S
C236 C239 1.539 . S
C237 C233 1.408 . S
C237 C236 1.404 . S
C237 H249 0.930 . S
C238 C234 1.524 . S
C238 H250 0.956 . S
C238 H251 0.961 . S
C238 H252 0.961 . S
C239 C236 1.539 . S
C239 H253 0.958 . S
C239 H254 0.961 . S
C239 H255 0.960 . S
H240 C224 0.931 . S
H241 C229 0.929 . S
H242 C230 0.960 . S
H243 C230 0.962 . S
H244 C230 0.960 . S
H245 C231 0.961 . S
H246 C231 0.961 . S
H247 C231 0.961 . S
H248 C232 0.931 . S
H249 C237 0.930 . S
H250 C238 0.956 . S
H251 C238 0.961 . S
H252 C238 0.961 . S
H253 C239 0.958 . S
H254 C239 0.961 . S
H255 C239 0.960 . S
C256 C257 1.391 . S
C256 C258 1.394 . S
C256 H272 0.931 . S
C257 C256 1.391 . S
C257 C261 1.376 . S
C258 C256 1.394 . S
C258 C259 1.369 . S
C258 C262 1.531 . S
C259 C258 1.369 . S
C259 C260 1.410 . S
C259 C267 1.503 . S
C260 C259 1.410 . S
C260 C261 1.392 . S
C260 C263 1.511 . S
C261 C257 1.376 . S
C261 C260 1.392 . S
C261 H273 0.929 . S
C262 C258 1.531 . S
C262 H274 0.960 . S
C262 H275 0.962 . S
C262 H276 0.960 . S
C263 C260 1.511 . S
C263 H277 0.961 . S
C263 H278 0.961 . S
C263 H279 0.961 . S
C264 C265 1.370 . S
C264 C266 1.363 . S
C264 H280 0.931 . S
C265 C264 1.370 . S
C265 C269 1.408 . S
C266 C264 1.363 . S
C266 C267 1.370 . S
C266 C270 1.524 . S
C267 C259 1.503 . S
C267 C266 1.370 . S
C267 C268 1.403 . S
C268 C267 1.403 . S
C268 C269 1.404 . S
C268 C271 1.539 . S
C269 C265 1.408 . S
C269 C268 1.404 . S
C269 H281 0.930 . S
C270 C266 1.524 . S
C270 H282 0.956 . S
C270 H283 0.961 . S
C270 H284 0.961 . S
C271 C268 1.539 . S
C271 H285 0.958 . S
C271 H286 0.961 . S
C271 H287 0.960 . S
H272 C256 0.931 . S
H273 C261 0.929 . S
H274 C262 0.960 . S
H275 C262 0.962 . S
H276 C262 0.960 . S
H277 C263 0.961 . S
H278 C263 0.961 . S
H279 C263 0.961 . S
H280 C264 0.931 . S
H281 C269 0.930 . S
H282 C270 0.956 . S
H283 C270 0.961 . S
H284 C270 0.961 . S
H285 C271 0.958 . S
H286 C271 0.961 . S
H287 C271 0.960 . S
C288 C289 1.391 . S
C288 C290 1.394 . S
C288 H304 0.931 . S
C289 C288 1.391 . S
C289 C293 1.376 . S
C290 C288 1.394 . S
C290 C291 1.369 . S
C290 C294 1.531 . S
C291 C290 1.369 . S
C291 C292 1.410 . S
C291 C299 1.503 . S
C292 C291 1.410 . S
C292 C293 1.392 . S
C292 C295 1.511 . S
C293 C289 1.376 . S
C293 C292 1.392 . S
C293 H305 0.929 . S
C294 C290 1.531 . S
C294 H306 0.960 . S
C294 H307 0.962 . S
C294 H308 0.960 . S
C295 C292 1.511 . S
C295 H309 0.961 . S
C295 H310 0.961 . S
C295 H311 0.961 . S
C296 C297 1.370 . S
C296 C298 1.363 . S
C296 H312 0.931 . S
C297 C296 1.370 . S
C297 C301 1.408 . S
C298 C296 1.363 . S
C298 C299 1.370 . S
C298 C302 1.524 . S
C299 C291 1.503 . S
C299 C298 1.370 . S
C299 C300 1.403 . S
C300 C299 1.403 . S
C300 C301 1.404 . S
C300 C303 1.539 . S
C301 C297 1.408 . S
C301 C300 1.404 . S
C301 H313 0.930 . S
C302 C298 1.524 . S
C302 H314 0.956 . S
C302 H315 0.961 . S
C302 H316 0.961 . S
C303 C300 1.539 . S
C303 H317 0.958 . S
C303 H318 0.961 . S
C303 H319 0.960 . S
H304 C288 0.931 . S
H305 C293 0.929 . S
H306 C294 0.960 . S
H307 C294 0.962 . S
H308 C294 0.960 . S
H309 C295 0.961 . S
H310 C295 0.961 . S
H311 C295 0.961 . S
H312 C296 0.931 . S
H313 C301 0.930 . S
H314 C302 0.956 . S
H315 C302 0.961 . S
H316 C302 0.961 . S
H317 C303 0.958 . S
H318 C303 0.961 . S
H319 C303 0.960 . S
C65 C23 1.428 . S
C73 C55 1.436 . S
C97 C24 1.449 . S
C105 C59 1.438 . S
C129 C8 1.437 . S
C137 C49 1.458 . S
C161 C22 1.458 . S
C169 C54 1.461 . S
C193 C17 1.455 . S
C201 C40 1.445 . S
C225 C56 1.430 . S
C233 C27 1.438 . S
C257 C30 1.434 . S
C265 C62 1.453 . S
C289 C63 1.436 . S
C297 C31 1.466 . S
