# Generated by pormake.
# Topology fno, (5)-cn, num edge types: 1
# Building blocks:
#     Node 0, Type 0, BuildingBlock: BEQFEK_clean_sbu_0, # of connection points: 5
#     Node 1, Type 0, BuildingBlock: BEQFEK_clean_sbu_0, # of connection points: 5
#     Node 2, Type 0, BuildingBlock: BEQFEK_clean_sbu_0, # of connection points: 5
#     Node 3, Type 0, BuildingBlock: BEQFEK_clean_sbu_0, # of connection points: 5
#     Node 4, Type 0, BuildingBlock: BEQFEK_clean_sbu_0, # of connection points: 5
#     Node 5, Type 0, BuildingBlock: BEQFEK_clean_sbu_0, # of connection points: 5
#     Node 6, Type 0, BuildingBlock: BEQFEK_clean_sbu_0, # of connection points: 5
#     Node 7, Type 0, BuildingBlock: BEQFEK_clean_sbu_0, # of connection points: 5
#     Node 8, Type 0, BuildingBlock: BEQFEK_clean_sbu_0, # of connection points: 5
#     Node 9, Type 0, BuildingBlock: BEQFEK_clean_sbu_0, # of connection points: 5
#     Node 10, Type 0, BuildingBlock: BEQFEK_clean_sbu_0, # of connection points: 5
#     Node 11, Type 0, BuildingBlock: BEQFEK_clean_sbu_0, # of connection points: 5
#     Node 12, Type 0, BuildingBlock: BEQFEK_clean_sbu_0, # of connection points: 5
#     Node 13, Type 0, BuildingBlock: BEQFEK_clean_sbu_0, # of connection points: 5
#     Node 14, Type 0, BuildingBlock: BEQFEK_clean_sbu_0, # of connection points: 5
#     Node 15, Type 0, BuildingBlock: BEQFEK_clean_sbu_0, # of connection points: 5
#     Node 16, Type 0, BuildingBlock: BEQFEK_clean_sbu_0, # of connection points: 5
#     Node 17, Type 0, BuildingBlock: BEQFEK_clean_sbu_0, # of connection points: 5
#     Node 18, Type 0, BuildingBlock: BEQFEK_clean_sbu_0, # of connection points: 5
#     Node 19, Type 0, BuildingBlock: BEQFEK_clean_sbu_0, # of connection points: 5
#     Node 20, Type 0, BuildingBlock: BEQFEK_clean_sbu_0, # of connection points: 5
#     Node 21, Type 0, BuildingBlock: BEQFEK_clean_sbu_0, # of connection points: 5
#     Node 22, Type 0, BuildingBlock: BEQFEK_clean_sbu_0, # of connection points: 5
#     Node 23, Type 0, BuildingBlock: BEQFEK_clean_sbu_0, # of connection points: 5
#     Node 24, Type 0, BuildingBlock: BEQFEK_clean_sbu_0, # of connection points: 5
#     Node 25, Type 0, BuildingBlock: BEQFEK_clean_sbu_0, # of connection points: 5
#     Node 26, Type 0, BuildingBlock: BEQFEK_clean_sbu_0, # of connection points: 5
#     Node 27, Type 0, BuildingBlock: BEQFEK_clean_sbu_0, # of connection points: 5
#     Node 28, Type 0, BuildingBlock: BEQFEK_clean_sbu_0, # of connection points: 5
#     Node 29, Type 0, BuildingBlock: BEQFEK_clean_sbu_0, # of connection points: 5
#     Node 30, Type 0, BuildingBlock: BEQFEK_clean_sbu_0, # of connection points: 5
#     Node 31, Type 0, BuildingBlock: BEQFEK_clean_sbu_0, # of connection points: 5
#     Node 32, Type 0, BuildingBlock: BEQFEK_clean_sbu_0, # of connection points: 5
#     Node 33, Type 0, BuildingBlock: BEQFEK_clean_sbu_0, # of connection points: 5
#     Node 34, Type 0, BuildingBlock: BEQFEK_clean_sbu_0, # of connection points: 5
#     Node 35, Type 0, BuildingBlock: BEQFEK_clean_sbu_0, # of connection points: 5
#     Node 36, Type 0, BuildingBlock: BEQFEK_clean_sbu_0, # of connection points: 5
#     Node 37, Type 0, BuildingBlock: BEQFEK_clean_sbu_0, # of connection points: 5
#     Node 38, Type 0, BuildingBlock: BEQFEK_clean_sbu_0, # of connection points: 5
#     Node 39, Type 0, BuildingBlock: BEQFEK_clean_sbu_0, # of connection points: 5
#     Node 40, Type 0, BuildingBlock: BEQFEK_clean_sbu_0, # of connection points: 5
#     Node 41, Type 0, BuildingBlock: BEQFEK_clean_sbu_0, # of connection points: 5
#     Node 42, Type 0, BuildingBlock: BEQFEK_clean_sbu_0, # of connection points: 5
#     Node 43, Type 0, BuildingBlock: BEQFEK_clean_sbu_0, # of connection points: 5
#     Node 44, Type 0, BuildingBlock: BEQFEK_clean_sbu_0, # of connection points: 5
#     Node 45, Type 0, BuildingBlock: BEQFEK_clean_sbu_0, # of connection points: 5
#     Node 46, Type 0, BuildingBlock: BEQFEK_clean_sbu_0, # of connection points: 5
#     Node 47, Type 0, BuildingBlock: BEQFEK_clean_sbu_0, # of connection points: 5
#     Edge 48, Type (0, 0), BuildingBlock: OJICUG_clean_linker_0, # of connection points: 2
#     Edge 49, Type (0, 0), BuildingBlock: OJICUG_clean_linker_0, # of connection points: 2
#     Edge 50, Type (0, 0), BuildingBlock: OJICUG_clean_linker_0, # of connection points: 2
#     Edge 51, Type (0, 0), BuildingBlock: OJICUG_clean_linker_0, # of connection points: 2
#     Edge 52, Type (0, 0), BuildingBlock: OJICUG_clean_linker_0, # of connection points: 2
#     Edge 53, Type (0, 0), BuildingBlock: OJICUG_clean_linker_0, # of connection points: 2
#     Edge 54, Type (0, 0), BuildingBlock: OJICUG_clean_linker_0, # of connection points: 2
#     Edge 55, Type (0, 0), BuildingBlock: OJICUG_clean_linker_0, # of connection points: 2
#     Edge 56, Type (0, 0), BuildingBlock: OJICUG_clean_linker_0, # of connection points: 2
#     Edge 57, Type (0, 0), BuildingBlock: OJICUG_clean_linker_0, # of connection points: 2
#     Edge 58, Type (0, 0), BuildingBlock: OJICUG_clean_linker_0, # of connection points: 2
#     Edge 59, Type (0, 0), BuildingBlock: OJICUG_clean_linker_0, # of connection points: 2
#     Edge 60, Type (0, 0), BuildingBlock: OJICUG_clean_linker_0, # of connection points: 2
#     Edge 61, Type (0, 0), BuildingBlock: OJICUG_clean_linker_0, # of connection points: 2
#     Edge 62, Type (0, 0), BuildingBlock: OJICUG_clean_linker_0, # of connection points: 2
#     Edge 63, Type (0, 0), BuildingBlock: OJICUG_clean_linker_0, # of connection points: 2
#     Edge 64, Type (0, 0), BuildingBlock: OJICUG_clean_linker_0, # of connection points: 2
#     Edge 65, Type (0, 0), BuildingBlock: OJICUG_clean_linker_0, # of connection points: 2
#     Edge 66, Type (0, 0), BuildingBlock: OJICUG_clean_linker_0, # of connection points: 2
#     Edge 67, Type (0, 0), BuildingBlock: OJICUG_clean_linker_0, # of connection points: 2
#     Edge 68, Type (0, 0), BuildingBlock: OJICUG_clean_linker_0, # of connection points: 2
#     Edge 69, Type (0, 0), BuildingBlock: OJICUG_clean_linker_0, # of connection points: 2
#     Edge 70, Type (0, 0), BuildingBlock: OJICUG_clean_linker_0, # of connection points: 2
#     Edge 71, Type (0, 0), BuildingBlock: OJICUG_clean_linker_0, # of connection points: 2
#     Edge 72, Type (0, 0), BuildingBlock: OJICUG_clean_linker_0, # of connection points: 2
#     Edge 73, Type (0, 0), BuildingBlock: OJICUG_clean_linker_0, # of connection points: 2
#     Edge 74, Type (0, 0), BuildingBlock: OJICUG_clean_linker_0, # of connection points: 2
#     Edge 75, Type (0, 0), BuildingBlock: OJICUG_clean_linker_0, # of connection points: 2
#     Edge 76, Type (0, 0), BuildingBlock: OJICUG_clean_linker_0, # of connection points: 2
#     Edge 77, Type (0, 0), BuildingBlock: OJICUG_clean_linker_0, # of connection points: 2
#     Edge 78, Type (0, 0), BuildingBlock: OJICUG_clean_linker_0, # of connection points: 2
#     Edge 79, Type (0, 0), BuildingBlock: OJICUG_clean_linker_0, # of connection points: 2
#     Edge 80, Type (0, 0), BuildingBlock: OJICUG_clean_linker_0, # of connection points: 2
#     Edge 81, Type (0, 0), BuildingBlock: OJICUG_clean_linker_0, # of connection points: 2
#     Edge 82, Type (0, 0), BuildingBlock: OJICUG_clean_linker_0, # of connection points: 2
#     Edge 83, Type (0, 0), BuildingBlock: OJICUG_clean_linker_0, # of connection points: 2
#     Edge 84, Type (0, 0), BuildingBlock: OJICUG_clean_linker_0, # of connection points: 2
#     Edge 85, Type (0, 0), BuildingBlock: OJICUG_clean_linker_0, # of connection points: 2
#     Edge 86, Type (0, 0), BuildingBlock: OJICUG_clean_linker_0, # of connection points: 2
#     Edge 87, Type (0, 0), BuildingBlock: OJICUG_clean_linker_0, # of connection points: 2
#     Edge 88, Type (0, 0), BuildingBlock: OJICUG_clean_linker_0, # of connection points: 2
#     Edge 89, Type (0, 0), BuildingBlock: OJICUG_clean_linker_0, # of connection points: 2
#     Edge 90, Type (0, 0), BuildingBlock: OJICUG_clean_linker_0, # of connection points: 2
#     Edge 91, Type (0, 0), BuildingBlock: OJICUG_clean_linker_0, # of connection points: 2
#     Edge 92, Type (0, 0), BuildingBlock: OJICUG_clean_linker_0, # of connection points: 2
#     Edge 93, Type (0, 0), BuildingBlock: OJICUG_clean_linker_0, # of connection points: 2
#     Edge 94, Type (0, 0), BuildingBlock: OJICUG_clean_linker_0, # of connection points: 2
#     Edge 95, Type (0, 0), BuildingBlock: OJICUG_clean_linker_0, # of connection points: 2
#     Edge 96, Type (0, 0), BuildingBlock: OJICUG_clean_linker_0, # of connection points: 2
#     Edge 97, Type (0, 0), BuildingBlock: OJICUG_clean_linker_0, # of connection points: 2
#     Edge 98, Type (0, 0), BuildingBlock: OJICUG_clean_linker_0, # of connection points: 2
#     Edge 99, Type (0, 0), BuildingBlock: OJICUG_clean_linker_0, # of connection points: 2
#     Edge 100, Type (0, 0), BuildingBlock: OJICUG_clean_linker_0, # of connection points: 2
#     Edge 101, Type (0, 0), BuildingBlock: OJICUG_clean_linker_0, # of connection points: 2
#     Edge 102, Type (0, 0), BuildingBlock: OJICUG_clean_linker_0, # of connection points: 2
#     Edge 103, Type (0, 0), BuildingBlock: OJICUG_clean_linker_0, # of connection points: 2
#     Edge 104, Type (0, 0), BuildingBlock: OJICUG_clean_linker_0, # of connection points: 2
#     Edge 105, Type (0, 0), BuildingBlock: OJICUG_clean_linker_0, # of connection points: 2
#     Edge 106, Type (0, 0), BuildingBlock: OJICUG_clean_linker_0, # of connection points: 2
#     Edge 107, Type (0, 0), BuildingBlock: OJICUG_clean_linker_0, # of connection points: 2
#     Edge 108, Type (0, 0), BuildingBlock: OJICUG_clean_linker_0, # of connection points: 2
#     Edge 109, Type (0, 0), BuildingBlock: OJICUG_clean_linker_0, # of connection points: 2
#     Edge 110, Type (0, 0), BuildingBlock: OJICUG_clean_linker_0, # of connection points: 2
#     Edge 111, Type (0, 0), BuildingBlock: OJICUG_clean_linker_0, # of connection points: 2
#     Edge 112, Type (0, 0), BuildingBlock: OJICUG_clean_linker_0, # of connection points: 2
#     Edge 113, Type (0, 0), BuildingBlock: OJICUG_clean_linker_0, # of connection points: 2
#     Edge 114, Type (0, 0), BuildingBlock: OJICUG_clean_linker_0, # of connection points: 2
#     Edge 115, Type (0, 0), BuildingBlock: OJICUG_clean_linker_0, # of connection points: 2
#     Edge 116, Type (0, 0), BuildingBlock: OJICUG_clean_linker_0, # of connection points: 2
#     Edge 117, Type (0, 0), BuildingBlock: OJICUG_clean_linker_0, # of connection points: 2
#     Edge 118, Type (0, 0), BuildingBlock: OJICUG_clean_linker_0, # of connection points: 2
#     Edge 119, Type (0, 0), BuildingBlock: OJICUG_clean_linker_0, # of connection points: 2
#     Edge 120, Type (0, 0), BuildingBlock: OJICUG_clean_linker_0, # of connection points: 2
#     Edge 121, Type (0, 0), BuildingBlock: OJICUG_clean_linker_0, # of connection points: 2
#     Edge 122, Type (0, 0), BuildingBlock: OJICUG_clean_linker_0, # of connection points: 2
#     Edge 123, Type (0, 0), BuildingBlock: OJICUG_clean_linker_0, # of connection points: 2
#     Edge 124, Type (0, 0), BuildingBlock: OJICUG_clean_linker_0, # of connection points: 2
#     Edge 125, Type (0, 0), BuildingBlock: OJICUG_clean_linker_0, # of connection points: 2
#     Edge 126, Type (0, 0), BuildingBlock: OJICUG_clean_linker_0, # of connection points: 2
#     Edge 127, Type (0, 0), BuildingBlock: OJICUG_clean_linker_0, # of connection points: 2
#     Edge 128, Type (0, 0), BuildingBlock: OJICUG_clean_linker_0, # of connection points: 2
#     Edge 129, Type (0, 0), BuildingBlock: OJICUG_clean_linker_0, # of connection points: 2
#     Edge 130, Type (0, 0), BuildingBlock: OJICUG_clean_linker_0, # of connection points: 2
#     Edge 131, Type (0, 0), BuildingBlock: OJICUG_clean_linker_0, # of connection points: 2
#     Edge 132, Type (0, 0), BuildingBlock: OJICUG_clean_linker_0, # of connection points: 2
#     Edge 133, Type (0, 0), BuildingBlock: OJICUG_clean_linker_0, # of connection points: 2
#     Edge 134, Type (0, 0), BuildingBlock: OJICUG_clean_linker_0, # of connection points: 2
#     Edge 135, Type (0, 0), BuildingBlock: OJICUG_clean_linker_0, # of connection points: 2
#     Edge 136, Type (0, 0), BuildingBlock: OJICUG_clean_linker_0, # of connection points: 2
#     Edge 137, Type (0, 0), BuildingBlock: OJICUG_clean_linker_0, # of connection points: 2
#     Edge 138, Type (0, 0), BuildingBlock: OJICUG_clean_linker_0, # of connection points: 2
#     Edge 139, Type (0, 0), BuildingBlock: OJICUG_clean_linker_0, # of connection points: 2
#     Edge 140, Type (0, 0), BuildingBlock: OJICUG_clean_linker_0, # of connection points: 2
#     Edge 141, Type (0, 0), BuildingBlock: OJICUG_clean_linker_0, # of connection points: 2
#     Edge 142, Type (0, 0), BuildingBlock: OJICUG_clean_linker_0, # of connection points: 2
#     Edge 143, Type (0, 0), BuildingBlock: OJICUG_clean_linker_0, # of connection points: 2
#     Edge 144, Type (0, 0), BuildingBlock: OJICUG_clean_linker_0, # of connection points: 2
#     Edge 145, Type (0, 0), BuildingBlock: OJICUG_clean_linker_0, # of connection points: 2
#     Edge 146, Type (0, 0), BuildingBlock: OJICUG_clean_linker_0, # of connection points: 2
#     Edge 147, Type (0, 0), BuildingBlock: OJICUG_clean_linker_0, # of connection points: 2
#     Edge 148, Type (0, 0), BuildingBlock: OJICUG_clean_linker_0, # of connection points: 2
#     Edge 149, Type (0, 0), BuildingBlock: OJICUG_clean_linker_0, # of connection points: 2
#     Edge 150, Type (0, 0), BuildingBlock: OJICUG_clean_linker_0, # of connection points: 2
#     Edge 151, Type (0, 0), BuildingBlock: OJICUG_clean_linker_0, # of connection points: 2
#     Edge 152, Type (0, 0), BuildingBlock: OJICUG_clean_linker_0, # of connection points: 2
#     Edge 153, Type (0, 0), BuildingBlock: OJICUG_clean_linker_0, # of connection points: 2
#     Edge 154, Type (0, 0), BuildingBlock: OJICUG_clean_linker_0, # of connection points: 2
#     Edge 155, Type (0, 0), BuildingBlock: OJICUG_clean_linker_0, # of connection points: 2
#     Edge 156, Type (0, 0), BuildingBlock: OJICUG_clean_linker_0, # of connection points: 2
#     Edge 157, Type (0, 0), BuildingBlock: OJICUG_clean_linker_0, # of connection points: 2
#     Edge 158, Type (0, 0), BuildingBlock: OJICUG_clean_linker_0, # of connection points: 2
#     Edge 159, Type (0, 0), BuildingBlock: OJICUG_clean_linker_0, # of connection points: 2
#     Edge 160, Type (0, 0), BuildingBlock: OJICUG_clean_linker_0, # of connection points: 2
#     Edge 161, Type (0, 0), BuildingBlock: OJICUG_clean_linker_0, # of connection points: 2
#     Edge 162, Type (0, 0), BuildingBlock: OJICUG_clean_linker_0, # of connection points: 2
#     Edge 163, Type (0, 0), BuildingBlock: OJICUG_clean_linker_0, # of connection points: 2
#     Edge 164, Type (0, 0), BuildingBlock: OJICUG_clean_linker_0, # of connection points: 2
#     Edge 165, Type (0, 0), BuildingBlock: OJICUG_clean_linker_0, # of connection points: 2
#     Edge 166, Type (0, 0), BuildingBlock: OJICUG_clean_linker_0, # of connection points: 2
#     Edge 167, Type (0, 0), BuildingBlock: OJICUG_clean_linker_0, # of connection points: 2
# Relax obj value: 0.227
# Max RMSD: 0.145
# Mean RMSD: 0.130
data_MOF--net-fno--node1-BEQFEK_clean_sbu_0--edge1-OJICUG_clean_linker_0
_symmetry_space_group_name_H-M    P1
_symmetry_Int_Tables_number       1
_symmetry_cell_setting            triclinic
loop_
_symmetry_equiv_pos_as_xyz
'x, y, z'
_cell_length_a     46.361856
_cell_length_b     46.483423
_cell_length_c     45.857951
_cell_angle_alpha  90.023127
_cell_angle_beta   89.965492
_cell_angle_gamma 89.852884
loop_
_atom_site_label
_atom_site_type_symbol
_atom_site_fract_x
_atom_site_fract_y
_atom_site_fract_z
_atom_type_partial_charge
Co0 Co 0.09503 0.3473 0.07636 0.0
Co1 Co 0.08955 0.35341 0.14456 0.0
C2 C 0.14469 0.33607 0.11725 0.0
O3 O 0.13374 0.33728 0.09182 0.0
O4 O 0.12944 0.34049 0.13984 0.0
C5 C 0.11995 0.34624 0.0201 0.0
O6 O 0.14336 0.3398 0.03476 0.0
C7 C 0.09973 0.35763 0.20701 0.0
C8 C 0.05641 0.36697 0.22472 0.0
C9 C 0.08508 0.36374 0.23238 0.0
N10 N 0.08072 0.35713 0.18495 0.0
N11 N 0.05486 0.36307 0.19562 0.0
C12 C 0.13135 0.35219 0.20386 0.0
H13 H 0.13455 0.33009 0.19532 0.0
H14 H 0.14293 0.35412 0.22492 0.0
H15 H 0.14054 0.36775 0.18808 0.0
C16 C 0.04622 0.30644 0.08703 0.0
N17 N 0.06536 0.3264 0.09593 0.0
N18 N 0.06425 0.3283 0.12459 0.0
C19 C 0.0453 0.30894 0.13487 0.0
C20 C 0.03272 0.2948 0.11149 0.0
C21 C 0.04156 0.29848 0.0558 0.0
H22 H 0.04566 0.31729 0.04153 0.0
H23 H 0.05698 0.28118 0.04973 0.0
H24 H 0.01927 0.29052 0.05232 0.0
O25 O 0.09157 0.38881 0.08231 0.0
O26 O 0.08872 0.39316 0.13012 0.0
H27 H 0.02564 0.31377 0.17683 0.0
H28 H 0.03724 0.2777 0.16881 0.0
C29 C 0.04287 0.30077 0.1664 0.0
H30 H 0.06353 0.30468 0.17783 0.0
H31 H 0.03626 0.36504 0.18297 0.0
O32 O 0.09561 0.34575 0.03302 0.0
C33 C 0.09036 0.40438 0.10496 0.0
Co34 Co 0.88886 0.84808 0.33835 0.0
Co35 Co 0.88306 0.8432 0.40486 0.0
C36 C 0.89377 0.90024 0.37329 0.0
O37 O 0.8989 0.88854 0.34869 0.0
O38 O 0.88725 0.88494 0.39531 0.0
C39 C 0.87039 0.86238 0.28473 0.0
O40 O 0.85925 0.88224 0.30179 0.0
C41 C 0.89568 0.86012 0.464 0.0
C42 C 0.86356 0.83421 0.48795 0.0
C43 C 0.88244 0.85707 0.49081 0.0
N44 N 0.88451 0.84041 0.44583 0.0
N45 N 0.86599 0.82441 0.46048 0.0
C46 C 0.91497 0.88414 0.4546 0.0
H47 H 0.92649 0.87834 0.4342 0.0
H48 H 0.93102 0.88906 0.47178 0.0
H49 H 0.90184 0.90379 0.45096 0.0
C50 C 0.93343 0.80101 0.34879 0.0
N51 N 0.91302 0.81999 0.35771 0.0
N52 N 0.91084 0.81855 0.38626 0.0
C53 C 0.92979 0.79876 0.39641 0.0
C54 C 0.94499 0.78677 0.37303 0.0
C55 C 0.94248 0.79744 0.3177 0.0
H56 H 0.93932 0.81786 0.30559 0.0
H57 H 0.96537 0.79054 0.31626 0.0
H58 H 0.92887 0.78067 0.3074 0.0
O59 O 0.84699 0.84505 0.34788 0.0
O60 O 0.8426 0.83448 0.39447 0.0
H61 H 0.94513 0.77084 0.43099 0.0
H62 H 0.94259 0.80872 0.43996 0.0
C63 C 0.93228 0.79077 0.42791 0.0
H64 H 0.91044 0.78757 0.43722 0.0
H65 H 0.85301 0.80864 0.45103 0.0
O66 O 0.88782 0.84411 0.29562 0.0
C67 C 0.83124 0.83962 0.36982 0.0
Co68 Co 0.39385 0.64853 0.65987 0.0
Co69 Co 0.39678 0.64681 0.59257 0.0
C70 C 0.4068 0.59472 0.62364 0.0
O71 O 0.39949 0.60791 0.64685 0.0
O72 O 0.41108 0.60827 0.60003 0.0
C73 C 0.37753 0.63005 0.71342 0.0
O74 O 0.36201 0.6143 0.69558 0.0
C75 C 0.39161 0.63263 0.53146 0.0
C76 C 0.38754 0.67519 0.5104 0.0
C77 C 0.38727 0.64592 0.50501 0.0
N78 N 0.39469 0.6531 0.55188 0.0
N79 N 0.39176 0.67851 0.53925 0.0
C80 C 0.39175 0.60099 0.53741 0.0
H81 H 0.41389 0.59431 0.54361 0.0
H82 H 0.38499 0.58841 0.51803 0.0
H83 H 0.37711 0.59619 0.55593 0.0
C84 C 0.43728 0.69514 0.65064 0.0
N85 N 0.41892 0.67485 0.64098 0.0
N86 N 0.42012 0.67388 0.61231 0.0
C87 C 0.44008 0.69267 0.60287 0.0
C88 C 0.4512 0.70721 0.62673 0.0
C89 C 0.44089 0.70301 0.68205 0.0
H90 H 0.4204 0.69954 0.69404 0.0
H91 H 0.45766 0.68895 0.69184 0.0
H92 H 0.44778 0.72574 0.68435 0.0
O93 O 0.35385 0.65795 0.65144 0.0
O94 O 0.35595 0.6466 0.60478 0.0
H95 H 0.44003 0.71147 0.56029 0.0
H96 H 0.47466 0.69885 0.57211 0.0
C97 C 0.45123 0.69398 0.57224 0.0
H98 H 0.44757 0.67327 0.56086 0.0
H99 H 0.39164 0.69806 0.55043 0.0
O100 O 0.39547 0.64795 0.70277 0.0
C101 C 0.34143 0.65209 0.6276 0.0
Co102 Co 0.59959 0.14482 0.91976 0.0
Co103 Co 0.59053 0.13838 0.85223 0.0
C104 C 0.64887 0.14998 0.88029 0.0
O105 O 0.63906 0.15441 0.90587 0.0
O106 O 0.63213 0.14375 0.85931 0.0
C107 C 0.62044 0.13363 0.9761 0.0
O108 O 0.64298 0.12608 0.96048 0.0
C109 C 0.60403 0.15091 0.79107 0.0
C110 C 0.57756 0.1182 0.76883 0.0
C111 C 0.59949 0.13788 0.76424 0.0
N112 N 0.58595 0.13907 0.81071 0.0
N113 N 0.56967 0.12008 0.79702 0.0
C114 C 0.62794 0.17106 0.79872 0.0
H115 H 0.64828 0.15868 0.80115 0.0
H116 H 0.62307 0.18245 0.81943 0.0
H117 H 0.63117 0.18705 0.78109 0.0
C118 C 0.55206 0.18918 0.91099 0.0
N119 N 0.5702 0.1684 0.90118 0.0
N120 N 0.56699 0.16596 0.87273 0.0
C121 C 0.54693 0.18512 0.86363 0.0
C122 C 0.53658 0.20071 0.88753 0.0
C123 C 0.55075 0.19888 0.94205 0.0
H124 H 0.57199 0.19573 0.95273 0.0
H125 H 0.54419 0.22182 0.94349 0.0
H126 H 0.53457 0.18571 0.95382 0.0
O127 O 0.5961 0.10306 0.91112 0.0
O128 O 0.5839 0.09802 0.86479 0.0
H129 H 0.51703 0.20014 0.83065 0.0
H130 H 0.55461 0.19895 0.81996 0.0
C131 C 0.53749 0.18786 0.83256 0.0
H132 H 0.53457 0.16615 0.82297 0.0
H133 H 0.55493 0.10662 0.80744 0.0
O134 O 0.59874 0.14492 0.96332 0.0
C135 C 0.59 0.08708 0.8895 0.0
Co136 Co 0.09839 0.64268 0.41067 0.0
Co137 Co 0.09174 0.63633 0.34368 0.0
C138 C 0.14953 0.64667 0.37382 0.0
O139 O 0.13875 0.6521 0.39881 0.0
O140 O 0.13338 0.64037 0.35238 0.0
C141 C 0.11566 0.62739 0.46587 0.0
O142 O 0.13654 0.61695 0.44961 0.0
C143 C 0.10789 0.64819 0.28379 0.0
C144 C 0.08209 0.61558 0.26052 0.0
C145 C 0.10463 0.63479 0.25704 0.0
N146 N 0.08857 0.6369 0.30243 0.0
N147 N 0.07267 0.61803 0.28816 0.0
C148 C 0.13165 0.66809 0.29262 0.0
H149 H 0.15189 0.6556 0.29534 0.0
H150 H 0.12619 0.67913 0.31335 0.0
H151 H 0.13544 0.68447 0.27551 0.0
C152 C 0.05036 0.68658 0.40055 0.0
N153 N 0.06955 0.66647 0.39136 0.0
N154 N 0.06768 0.66429 0.36282 0.0
C155 C 0.04768 0.68315 0.35292 0.0
C156 C 0.03557 0.69804 0.37649 0.0
C157 C 0.04562 0.69387 0.43197 0.0
H158 H 0.0506 0.67504 0.44592 0.0
H159 H 0.0603 0.71166 0.43817 0.0
H160 H 0.02303 0.70088 0.43582 0.0
O161 O 0.09526 0.60095 0.40168 0.0
O162 O 0.08335 0.59625 0.35533 0.0
H163 H 0.02756 0.67072 0.31298 0.0
H164 H 0.03156 0.70922 0.31728 0.0
C165 C 0.04187 0.68802 0.3212 0.0
H166 H 0.06235 0.68707 0.30877 0.0
H167 H 0.05719 0.60493 0.29794 0.0
O168 O 0.09589 0.64235 0.45385 0.0
C169 C 0.08925 0.58513 0.37995 0.0
Co170 Co 0.60083 0.8462 0.58488 0.0
Co171 Co 0.59508 0.85434 0.65291 0.0
C172 C 0.65023 0.83495 0.62349 0.0
O173 O 0.63922 0.83366 0.59811 0.0
O174 O 0.63525 0.84237 0.64552 0.0
C175 C 0.62051 0.85942 0.5306 0.0
O176 O 0.64029 0.87001 0.54803 0.0
C177 C 0.60727 0.85214 0.71548 0.0
C178 C 0.5727 0.8802 0.73272 0.0
C179 C 0.59791 0.86616 0.74042 0.0
N180 N 0.58853 0.85783 0.69385 0.0
N181 N 0.56771 0.8743 0.70445 0.0
C182 C 0.63617 0.83865 0.71071 0.0
H183 H 0.6503 0.8548 0.70016 0.0
H184 H 0.634 0.81972 0.69615 0.0
H185 H 0.64661 0.83189 0.73128 0.0
C186 C 0.55201 0.80606 0.59668 0.0
N187 N 0.57113 0.82615 0.60516 0.0
N188 N 0.56894 0.82972 0.6336 0.0
C189 C 0.54844 0.81212 0.6441 0.0
C190 C 0.53706 0.79643 0.6211 0.0
C191 C 0.54979 0.79484 0.56619 0.0
H192 H 0.5709 0.79663 0.55495 0.0
H193 H 0.54251 0.77211 0.56608 0.0
H194 H 0.5338 0.80798 0.55405 0.0
O195 O 0.59948 0.88782 0.59188 0.0
O196 O 0.59265 0.89393 0.63907 0.0
H197 H 0.53356 0.83271 0.68292 0.0
H198 H 0.52145 0.79623 0.67939 0.0
C199 C 0.53987 0.81089 0.67556 0.0
H200 H 0.55864 0.80389 0.68882 0.0
H201 H 0.55125 0.88325 0.69185 0.0
O202 O 0.59987 0.8449 0.54165 0.0
C203 C 0.59645 0.90419 0.61376 0.0
Co204 Co 0.38836 0.35317 0.91084 0.0
Co205 Co 0.39787 0.355 0.84416 0.0
C206 C 0.33825 0.34877 0.87128 0.0
O207 O 0.34831 0.34538 0.89692 0.0
O208 O 0.35506 0.35267 0.84967 0.0
C209 C 0.36954 0.37351 0.96295 0.0
O210 O 0.3515 0.38526 0.94432 0.0
C211 C 0.38831 0.3463 0.7818 0.0
C212 C 0.42804 0.36537 0.76349 0.0
C213 C 0.40136 0.35436 0.75591 0.0
N214 N 0.40641 0.35255 0.80378 0.0
N215 N 0.43033 0.36339 0.79266 0.0
C216 C 0.35773 0.33697 0.78605 0.0
H217 H 0.35658 0.32081 0.80381 0.0
H218 H 0.34837 0.32771 0.76595 0.0
H219 H 0.34456 0.35592 0.79235 0.0
C220 C 0.43483 0.30706 0.90633 0.0
N221 N 0.41675 0.32703 0.89487 0.0
N222 N 0.41975 0.32711 0.86635 0.0
C223 C 0.43932 0.30679 0.85872 0.0
C224 C 0.45004 0.29331 0.88381 0.0
C225 C 0.43826 0.30216 0.93837 0.0
H226 H 0.43349 0.32221 0.95058 0.0
H227 H 0.42277 0.28541 0.94547 0.0
H228 H 0.46045 0.29478 0.94357 0.0
O229 O 0.39541 0.39399 0.90085 0.0
O230 O 0.40712 0.39544 0.85429 0.0
H231 H 0.46223 0.3144 0.81905 0.0
H232 H 0.45467 0.27688 0.82596 0.0
C233 C 0.44604 0.29909 0.82774 0.0
H234 H 0.42628 0.30075 0.81426 0.0
H235 H 0.44745 0.37116 0.80513 0.0
O236 O 0.38797 0.35529 0.9537 0.0
C237 C 0.4025 0.40819 0.87836 0.0
Co238 Co 0.89886 0.14427 0.16685 0.0
Co239 Co 0.88086 0.15476 0.10205 0.0
C240 C 0.89218 0.09567 0.12725 0.0
O241 O 0.90219 0.10482 0.15132 0.0
O242 O 0.88288 0.11292 0.10796 0.0
C243 C 0.88863 0.12401 0.22066 0.0
O244 O 0.87325 0.10785 0.20307 0.0
C245 C 0.88402 0.14294 0.04017 0.0
C246 C 0.84714 0.16866 0.02421 0.0
C247 C 0.86639 0.14722 0.01605 0.0
N248 N 0.87482 0.16032 0.06169 0.0
N249 N 0.85326 0.17615 0.0518 0.0
C250 C 0.90745 0.12101 0.04391 0.0
H251 H 0.91531 0.12042 0.06668 0.0
H252 H 0.92614 0.127 0.03013 0.0
H253 H 0.89976 0.09946 0.03702 0.0
C254 C 0.94334 0.1881 0.15012 0.0
N255 N 0.92087 0.17073 0.14428 0.0
N256 N 0.91354 0.17406 0.11671 0.0
C257 C 0.93116 0.1933 0.1041 0.0
C258 C 0.95067 0.20284 0.1248 0.0
C259 C 0.95708 0.19086 0.17946 0.0
H260 H 0.95558 0.1702 0.19147 0.0
H261 H 0.97998 0.19749 0.17736 0.0
H262 H 0.94539 0.20754 0.19215 0.0
O263 O 0.85771 0.15384 0.16563 0.0
O264 O 0.84528 0.16723 0.12126 0.0
H265 H 0.94217 0.22222 0.06863 0.0
H266 H 0.93236 0.18602 0.05814 0.0
C267 C 0.92767 0.20389 0.07348 0.0
H268 H 0.90498 0.21068 0.06996 0.0
H269 H 0.84123 0.19035 0.0646 0.0
O270 O 0.90546 0.14278 0.2096 0.0
C271 C 0.83888 0.16279 0.14777 0.0
Co272 Co 0.09551 0.09055 0.35625 0.0
Co273 Co 0.16303 0.08953 0.36046 0.0
C274 C 0.12955 0.14411 0.34862 0.0
O275 O 0.10552 0.13096 0.347 0.0
O276 O 0.153 0.13045 0.35302 0.0
C277 C 0.04279 0.10507 0.37569 0.0
O278 O 0.06034 0.12425 0.38691 0.0
C279 C 0.22379 0.10382 0.35074 0.0
C280 C 0.24423 0.07465 0.38272 0.0
C281 C 0.24964 0.09778 0.36457 0.0
N282 N 0.20379 0.08538 0.36075 0.0
N283 N 0.21636 0.06756 0.37928 0.0
C284 C 0.21734 0.12929 0.33195 0.0
H285 H 0.19698 0.12602 0.31971 0.0
H286 H 0.23518 0.13303 0.31631 0.0
H287 H 0.21545 0.14866 0.34594 0.0
C288 C 0.10758 0.0435 0.31337 0.0
N289 N 0.11599 0.0636 0.33277 0.0
N290 N 0.14434 0.06328 0.33462 0.0
C291 C 0.15486 0.04293 0.31654 0.0
C292 C 0.13194 0.02965 0.30233 0.0
C293 C 0.07685 0.03851 0.30493 0.0
H294 H 0.06419 0.05867 0.30726 0.0
H295 H 0.07534 0.03049 0.28218 0.0
H296 H 0.06743 0.02212 0.31971 0.0
O297 O 0.10487 0.08631 0.39755 0.0
O298 O 0.15215 0.0839 0.40153 0.0
H299 H 0.19 0.01586 0.30112 0.0
H300 H 0.19809 0.05383 0.3048 0.0
C301 C 0.18622 0.03543 0.31441 0.0
H302 H 0.19492 0.03167 0.33659 0.0
H303 H 0.20536 0.05205 0.39138 0.0
O304 O 0.0529 0.08675 0.35763 0.0
C305 C 0.12733 0.08476 0.41315 0.0
Co306 Co 0.13233 0.91933 0.59902 0.0
Co307 Co 0.12405 0.85267 0.59286 0.0
C308 C 0.13713 0.88249 0.65038 0.0
O309 O 0.14266 0.90687 0.63905 0.0
O310 O 0.12938 0.86133 0.63471 0.0
C311 C 0.11726 0.97275 0.6178 0.0
O312 O 0.10485 0.95494 0.63614 0.0
C313 C 0.13059 0.7915 0.60733 0.0
C314 C 0.09797 0.7731 0.57766 0.0
C315 C 0.11505 0.7665 0.60156 0.0
N316 N 0.12212 0.81195 0.58834 0.0
N317 N 0.10319 0.80054 0.57024 0.0
C318 C 0.15126 0.79679 0.63181 0.0
H319 H 0.15904 0.81923 0.63181 0.0
H320 H 0.17061 0.78306 0.62891 0.0
H321 H 0.14104 0.79142 0.65301 0.0
C322 C 0.17474 0.90708 0.5501 0.0
N323 N 0.15471 0.89903 0.56991 0.0
N324 N 0.15155 0.8709 0.56834 0.0
C325 C 0.16931 0.86022 0.54771 0.0
C326 C 0.1848 0.88273 0.53534 0.0
C327 C 0.18469 0.93738 0.54608 0.0
H328 H 0.18224 0.94964 0.5667 0.0
H329 H 0.2075 0.93791 0.53872 0.0
H330 H 0.17116 0.94785 0.52916 0.0
O331 O 0.09038 0.91146 0.59644 0.0
O332 O 0.08493 0.86576 0.58461 0.0
H333 H 0.18338 0.82542 0.51939 0.0
H334 H 0.17856 0.81623 0.55749 0.0
C335 C 0.17001 0.82917 0.53908 0.0
H336 H 0.14773 0.82176 0.53463 0.0
H337 H 0.09207 0.81215 0.55433 0.0
O338 O 0.13349 0.96232 0.5979 0.0
C339 C 0.07427 0.89023 0.59046 0.0
Co340 Co 0.42067 0.90149 0.84575 0.0
Co341 Co 0.35661 0.91763 0.85354 0.0
C342 C 0.37853 0.8564 0.8419 0.0
O343 O 0.40412 0.86369 0.83512 0.0
O344 O 0.35997 0.87523 0.84935 0.0
C345 C 0.47001 0.87921 0.86608 0.0
O346 O 0.45045 0.86078 0.87498 0.0
C347 C 0.29636 0.91004 0.8406 0.0
C348 C 0.27617 0.94129 0.87063 0.0
C349 C 0.26993 0.91836 0.85226 0.0
N350 N 0.31698 0.92659 0.85237 0.0
N351 N 0.3048 0.94562 0.86984 0.0
C352 C 0.30255 0.88719 0.81846 0.0
H353 H 0.3227 0.89232 0.80647 0.0
H354 H 0.28446 0.88532 0.80274 0.0
H355 H 0.30567 0.86624 0.82964 0.0
C356 C 0.4178 0.95002 0.80254 0.0
N357 N 0.40614 0.93243 0.82275 0.0
N358 N 0.37862 0.93873 0.82572 0.0
C359 C 0.37175 0.96028 0.8073 0.0
C360 C 0.39642 0.96844 0.79201 0.0
C361 C 0.449 0.94961 0.7942 0.0
H362 H 0.46242 0.94309 0.81309 0.0
H363 H 0.45227 0.93362 0.77653 0.0
H364 H 0.45603 0.97102 0.78627 0.0
O365 O 0.41166 0.90587 0.88742 0.0
O366 O 0.3685 0.92447 0.89416 0.0
H367 H 0.33551 0.98463 0.82229 0.0
H368 H 0.33943 0.98416 0.78298 0.0
C369 C 0.34164 0.97127 0.80319 0.0
H370 H 0.32649 0.95291 0.802 0.0
H371 H 0.31618 0.9602 0.88272 0.0
O372 O 0.46271 0.89892 0.84827 0.0
C373 C 0.39207 0.9149 0.90438 0.0
Co374 Co 0.35219 0.17102 0.10441 0.0
Co375 Co 0.35916 0.10574 0.09233 0.0
C376 C 0.40982 0.13784 0.09485 0.0
O377 O 0.39412 0.15869 0.10376 0.0
O378 O 0.39855 0.11577 0.0833 0.0
C379 C 0.36801 0.22473 0.12538 0.0
O380 O 0.38421 0.20752 0.14117 0.0
C381 C 0.37504 0.04531 0.0959 0.0
C382 C 0.33388 0.02274 0.0885 0.0
C383 C 0.3627 0.01827 0.09509 0.0
N384 N 0.35457 0.06497 0.08977 0.0
N385 N 0.3299 0.05134 0.08577 0.0
C386 C 0.40581 0.05257 0.1023 0.0
H387 H 0.416 0.06055 0.082 0.0
H388 H 0.41825 0.03368 0.11005 0.0
H389 H 0.40672 0.07001 0.11881 0.0
C390 C 0.30741 0.16431 0.05781 0.0
N391 N 0.32893 0.1542 0.07469 0.0
N392 N 0.3337 0.12712 0.06816 0.0
C393 C 0.31758 0.1198 0.04497 0.0
C394 C 0.29919 0.14281 0.03792 0.0
C395 C 0.29375 0.19307 0.06298 0.0
H396 H 0.29931 0.20116 0.08504 0.0
H397 H 0.302 0.20866 0.04669 0.0
H398 H 0.26994 0.19165 0.06106 0.0
O399 O 0.33862 0.15834 0.14196 0.0
O400 O 0.35533 0.11437 0.13482 0.0
H401 H 0.30839 0.07584 0.03391 0.0
H402 H 0.32078 0.09749 0.00384 0.0
C403 C 0.32346 0.09316 0.02749 0.0
H404 H 0.34576 0.08538 0.0316 0.0
H405 H 0.31012 0.06155 0.0824 0.0
O406 O 0.35148 0.21382 0.10612 0.0
C407 C 0.34676 0.13423 0.15191 0.0
Co408 Co 0.17042 0.88585 0.15255 0.0
Co409 Co 0.10263 0.88646 0.15206 0.0
C410 C 0.13692 0.90336 0.09972 0.0
O411 O 0.16083 0.89943 0.11282 0.0
O412 O 0.11294 0.90028 0.11287 0.0
C413 C 0.22367 0.86777 0.13637 0.0
O414 O 0.20655 0.85762 0.116 0.0
C415 C 0.04153 0.89114 0.13625 0.0
C416 C 0.02081 0.87178 0.1749 0.0
C417 C 0.0153 0.8818 0.14703 0.0
N418 N 0.06176 0.88682 0.15684 0.0
N419 N 0.04912 0.8756 0.18003 0.0
C420 C 0.04802 0.89988 0.10558 0.0
H421 H 0.06199 0.8833 0.09532 0.0
H422 H 0.0599 0.92056 0.10581 0.0
H423 H 0.02821 0.9023 0.09229 0.0
C424 C 0.16009 0.9257 0.20269 0.0
N425 N 0.15073 0.90752 0.18184 0.0
N426 N 0.12232 0.90796 0.18137 0.0
C427 C 0.11273 0.92677 0.2016 0.0
C428 C 0.13631 0.93858 0.21601 0.0
C429 C 0.19125 0.93085 0.20925 0.0
H430 H 0.20369 0.91061 0.20653 0.0
H431 H 0.19985 0.94687 0.19359 0.0
H432 H 0.19412 0.93916 0.23175 0.0
O433 O 0.15995 0.8451 0.15279 0.0
O434 O 0.11236 0.84497 0.15182 0.0
H435 H 0.07039 0.92019 0.21863 0.0
H436 H 0.07994 0.95753 0.21446 0.0
C437 C 0.08185 0.93583 0.20455 0.0
H438 H 0.07131 0.9361 0.18286 0.0
H439 H 0.06016 0.8688 0.19863 0.0
O440 O 0.21296 0.8839 0.15612 0.0
C441 C 0.1363 0.83164 0.15124 0.0
Co442 Co 0.3319 0.83947 0.38703 0.0
Co443 Co 0.33045 0.90653 0.38547 0.0
C444 C 0.38455 0.87225 0.39927 0.0
O445 O 0.37179 0.84803 0.40015 0.0
O446 O 0.37071 0.8953 0.39392 0.0
C447 C 0.34741 0.78751 0.36624 0.0
O448 O 0.36764 0.80521 0.35739 0.0
C449 C 0.34716 0.96441 0.40092 0.0
C450 C 0.32686 0.98814 0.36463 0.0
C451 C 0.34746 0.99043 0.38636 0.0
N452 N 0.32807 0.94709 0.38766 0.0
N453 N 0.31516 0.9618 0.36674 0.0
C454 C 0.36739 0.95508 0.4245 0.0
H455 H 0.38996 0.95721 0.41682 0.0
H456 H 0.36282 0.93278 0.43163 0.0
H457 H 0.36482 0.96948 0.44361 0.0
C458 C 0.28332 0.85045 0.43 0.0
N459 N 0.30323 0.8591 0.41034 0.0
N460 N 0.30333 0.88742 0.40967 0.0
C461 C 0.28389 0.89768 0.42893 0.0
C462 C 0.2702 0.87465 0.44251 0.0
C463 C 0.27721 0.81959 0.43673 0.0
H464 H 0.28132 0.80604 0.41724 0.0
H465 H 0.29185 0.81233 0.4544 0.0
H466 H 0.25458 0.81682 0.44411 0.0
O467 O 0.33225 0.85135 0.34562 0.0
O468 O 0.32613 0.89829 0.34352 0.0
H469 H 0.27033 0.94027 0.41783 0.0
H470 H 0.26851 0.93258 0.45652 0.0
C471 C 0.281 0.92897 0.43622 0.0
H472 H 0.30272 0.93845 0.43911 0.0
H473 H 0.30076 0.95286 0.35181 0.0
O474 O 0.32776 0.7971 0.38317 0.0
C475 C 0.33026 0.87434 0.33092 0.0
Co476 Co 0.42642 0.11075 0.63769 0.0
Co477 Co 0.35866 0.10393 0.63763 0.0
C478 C 0.38939 0.16165 0.63884 0.0
O479 O 0.4146 0.15142 0.64288 0.0
O480 O 0.36755 0.14534 0.63655 0.0
C481 C 0.47941 0.12457 0.61457 0.0
O482 O 0.46171 0.1417 0.60042 0.0
C483 C 0.29887 0.12056 0.65157 0.0
C484 C 0.27479 0.0813 0.64002 0.0
C485 C 0.27137 0.10935 0.64955 0.0
N486 N 0.31792 0.1001 0.64357 0.0
N487 N 0.3033 0.07666 0.63673 0.0
C488 C 0.30667 0.15039 0.66078 0.0
H489 H 0.32658 0.14995 0.67418 0.0
H490 H 0.28892 0.16049 0.67345 0.0
H491 H 0.31065 0.16361 0.64109 0.0
C492 C 0.42061 0.06871 0.68658 0.0
N493 N 0.40933 0.08577 0.66568 0.0
N494 N 0.381 0.08352 0.66616 0.0
C495 C 0.37341 0.06531 0.68775 0.0
C496 C 0.39824 0.05518 0.70136 0.0
C497 C 0.45222 0.06575 0.69232 0.0
H498 H 0.46284 0.08701 0.69022 0.0
H499 H 0.45632 0.05668 0.71433 0.0
H500 H 0.46177 0.05119 0.67572 0.0
O501 O 0.4137 0.10168 0.59815 0.0
O502 O 0.3671 0.09161 0.59727 0.0
H503 H 0.3413 0.04319 0.71394 0.0
H504 H 0.32929 0.076 0.69647 0.0
C505 C 0.34299 0.05655 0.69401 0.0
H506 H 0.33472 0.04388 0.67535 0.0
H507 H 0.31273 0.05778 0.62885 0.0
O508 O 0.46924 0.10846 0.63458 0.0
C509 C 0.39112 0.09481 0.58422 0.0
Co510 Co 0.14973 0.16923 0.88825 0.0
Co511 Co 0.13913 0.10613 0.90413 0.0
C512 C 0.09074 0.14096 0.90274 0.0
O513 O 0.1077 0.15945 0.89163 0.0
O514 O 0.10072 0.11872 0.91523 0.0
C515 C 0.13009 0.22665 0.88759 0.0
O516 O 0.10696 0.21515 0.89922 0.0
C517 C 0.12053 0.04739 0.90193 0.0
C518 C 0.16169 0.02336 0.90169 0.0
C519 C 0.1322 0.02029 0.89803 0.0
N520 N 0.1421 0.06571 0.90794 0.0
N521 N 0.16666 0.05121 0.90796 0.0
C522 C 0.09045 0.05674 0.89467 0.0
H523 H 0.09113 0.07565 0.87993 0.0
H524 H 0.07931 0.06325 0.91505 0.0
H525 H 0.0779 0.03939 0.88403 0.0
C526 C 0.19616 0.16271 0.93278 0.0
N527 N 0.1735 0.1529 0.91742 0.0
N528 N 0.16758 0.12657 0.92563 0.0
C529 C 0.18454 0.11947 0.94831 0.0
C530 C 0.20418 0.14189 0.95345 0.0
C531 C 0.21087 0.19042 0.9255 0.0
H532 H 0.20541 0.19717 0.90296 0.0
H533 H 0.20333 0.20747 0.94066 0.0
H534 H 0.23463 0.18812 0.92737 0.0
O535 O 0.1601 0.1542 0.85066 0.0
O536 O 0.14093 0.1119 0.86072 0.0
H537 H 0.19325 0.07554 0.95961 0.0
H538 H 0.18307 0.09808 0.99003 0.0
C539 C 0.17898 0.0934 0.96666 0.0
H540 H 0.15631 0.08624 0.964 0.0
H541 H 0.18697 0.06067 0.90972 0.0
O542 O 0.15259 0.21134 0.88415 0.0
C543 C 0.14999 0.13029 0.84233 0.0
Co544 Co 0.83778 0.34176 0.89266 0.0
Co545 Co 0.84188 0.40831 0.89613 0.0
C546 C 0.89304 0.37373 0.90829 0.0
O547 O 0.87901 0.35111 0.90171 0.0
O548 O 0.88034 0.39785 0.91081 0.0
C549 C 0.85341 0.28875 0.87453 0.0
O550 O 0.87282 0.30598 0.86319 0.0
C551 C 0.86131 0.46696 0.89237 0.0
C552 C 0.82099 0.49177 0.88688 0.0
C553 C 0.85075 0.49431 0.88736 0.0
N554 N 0.83885 0.44903 0.8955 0.0
N555 N 0.81478 0.46392 0.89193 0.0
C556 C 0.89194 0.45716 0.88895 0.0
H557 H 0.89272 0.43714 0.87581 0.0
H558 H 0.9011 0.4527 0.91082 0.0
H559 H 0.90545 0.47355 0.87795 0.0
C560 C 0.78968 0.35277 0.93599 0.0
N561 N 0.81045 0.36165 0.91733 0.0
N562 N 0.81248 0.38987 0.91889 0.0
C563 C 0.79372 0.39967 0.9392 0.0
C564 C 0.77816 0.37663 0.95054 0.0
C565 C 0.78116 0.322 0.93974 0.0
H566 H 0.78433 0.31006 0.91902 0.0
H567 H 0.7951 0.31202 0.95662 0.0
H568 H 0.75833 0.32028 0.94682 0.0
O569 O 0.83395 0.35178 0.85124 0.0
O570 O 0.84249 0.39834 0.85387 0.0
H571 H 0.77686 0.44251 0.9388 0.0
H572 H 0.78797 0.43021 0.97416 0.0
C573 C 0.79347 0.42986 0.9506 0.0
H574 H 0.81482 0.44007 0.94744 0.0
H575 H 0.79421 0.45485 0.89128 0.0
O576 O 0.83427 0.29932 0.89144 0.0
C577 C 0.83923 0.37558 0.83892 0.0
Co578 Co 0.93038 0.60814 0.14076 0.0
Co579 Co 0.86405 0.59737 0.13438 0.0
C580 C 0.89072 0.65673 0.14276 0.0
O581 O 0.91613 0.64776 0.14824 0.0
O582 O 0.87048 0.63927 0.13697 0.0
C583 C 0.98319 0.62602 0.12181 0.0
O584 O 0.96517 0.64388 0.10906 0.0
C585 C 0.80391 0.6108 0.1471 0.0
C586 C 0.78186 0.58291 0.11517 0.0
C587 C 0.77739 0.60568 0.13416 0.0
N588 N 0.82329 0.5923 0.13573 0.0
N589 N 0.80977 0.5752 0.11724 0.0
C590 C 0.81164 0.6356 0.16634 0.0
H591 H 0.83259 0.6316 0.17731 0.0
H592 H 0.79479 0.63912 0.18312 0.0
H593 H 0.81311 0.65543 0.15299 0.0
C594 C 0.92293 0.56296 0.18723 0.0
N595 N 0.91273 0.58024 0.1659 0.0
N596 N 0.88473 0.57616 0.16334 0.0
C597 C 0.87627 0.55623 0.18289 0.0
C598 C 0.90016 0.54711 0.19888 0.0
C599 C 0.95373 0.56246 0.19688 0.0
H600 H 0.9638 0.58379 0.19326 0.0
H601 H 0.95541 0.5564 0.22023 0.0
H602 H 0.96566 0.5463 0.18373 0.0
O603 O 0.92146 0.60116 0.09937 0.0
O604 O 0.87617 0.58735 0.09453 0.0
H605 H 0.84492 0.52481 0.19743 0.0
H606 H 0.83243 0.56171 0.19604 0.0
C607 C 0.84602 0.54528 0.18505 0.0
H608 H 0.83717 0.54182 0.16287 0.0
H609 H 0.82009 0.55996 0.10414 0.0
O610 O 0.97324 0.60787 0.14006 0.0
C611 C 0.90062 0.59308 0.08347 0.0
Co612 Co 0.63695 0.66593 0.39597 0.0
Co613 Co 0.64586 0.59968 0.3951 0.0
C614 C 0.58671 0.62863 0.39824 0.0
O615 O 0.59709 0.65347 0.4031 0.0
O616 O 0.60324 0.60693 0.39488 0.0
C617 C 0.61923 0.71709 0.37408 0.0
O618 O 0.60083 0.69895 0.36247 0.0
C619 C 0.63374 0.53864 0.40495 0.0
C620 C 0.67453 0.5186 0.39056 0.0
C621 C 0.64677 0.51248 0.39961 0.0
N622 N 0.65286 0.55959 0.39926 0.0
N623 N 0.67733 0.54741 0.39096 0.0
C624 C 0.60302 0.54336 0.41352 0.0
H625 H 0.60099 0.56286 0.42731 0.0
H626 H 0.59457 0.52445 0.42556 0.0
H627 H 0.58999 0.54611 0.39348 0.0
C628 C 0.683 0.66241 0.44108 0.0
N629 N 0.66399 0.65028 0.42254 0.0
N630 N 0.66747 0.62217 0.4227 0.0
C631 C 0.68881 0.61553 0.44159 0.0
C632 C 0.69957 0.64078 0.45374 0.0
C633 C 0.68665 0.6942 0.44446 0.0
H634 H 0.6876 0.70442 0.42261 0.0
H635 H 0.66755 0.70312 0.45596 0.0
H636 H 0.70645 0.6996 0.45685 0.0
O637 O 0.64536 0.65448 0.35586 0.0
O638 O 0.65726 0.6085 0.35467 0.0
H639 H 0.71375 0.57844 0.43054 0.0
H640 H 0.71032 0.58452 0.46919 0.0
C641 C 0.6988 0.58557 0.44801 0.0
H642 H 0.68012 0.57075 0.44863 0.0
H643 H 0.6954 0.55881 0.3839 0.0
O644 O 0.63747 0.70796 0.39267 0.0
C645 C 0.65313 0.63233 0.34177 0.0
Co646 Co 0.92007 0.39994 0.35155 0.0
Co647 Co 0.85392 0.40258 0.34399 0.0
C648 C 0.88784 0.34656 0.34204 0.0
O649 O 0.91223 0.35908 0.34199 0.0
O650 O 0.86458 0.36113 0.34249 0.0
C651 C 0.96744 0.38607 0.38162 0.0
O652 O 0.94814 0.36742 0.39061 0.0
C653 C 0.79861 0.38607 0.31955 0.0
C654 C 0.77007 0.42049 0.33582 0.0
C655 C 0.77015 0.39446 0.32111 0.0
N656 N 0.81479 0.40593 0.33302 0.0
N657 N 0.79767 0.42686 0.34211 0.0
C658 C 0.80979 0.35879 0.30649 0.0
H659 H 0.83191 0.36195 0.29788 0.0
H660 H 0.7954 0.35143 0.28865 0.0
H661 H 0.81011 0.3419 0.32346 0.0
C662 C 0.91786 0.44592 0.30542 0.0
N663 N 0.90568 0.42652 0.32357 0.0
N664 N 0.87753 0.42712 0.3201 0.0
C665 C 0.87093 0.44656 0.29924 0.0
C666 C 0.89622 0.45951 0.28934 0.0
C667 C 0.94951 0.45199 0.3044 0.0
H668 H 0.95939 0.44813 0.32607 0.0
H669 H 0.95982 0.43725 0.28845 0.0
H670 H 0.95361 0.4745 0.29749 0.0
O671 O 0.90284 0.40562 0.38999 0.0
O672 O 0.85573 0.41082 0.38671 0.0
H673 H 0.82834 0.46376 0.3035 0.0
H674 H 0.84134 0.46257 0.26635 0.0
C675 C 0.84111 0.4511 0.28754 0.0
H676 H 0.83043 0.43004 0.28433 0.0
H677 H 0.80464 0.44459 0.35414 0.0
O678 O 0.96099 0.40339 0.3611 0.0
C679 C 0.87852 0.40902 0.40206 0.0
Co680 Co 0.59468 0.58816 0.85371 0.0
Co681 Co 0.65975 0.59901 0.84568 0.0
C682 C 0.62482 0.64731 0.84301 0.0
O683 O 0.60519 0.63025 0.85182 0.0
O684 O 0.64838 0.6374 0.83305 0.0
C685 C 0.53733 0.60875 0.85378 0.0
O686 O 0.55003 0.63231 0.84477 0.0
C687 C 0.71757 0.61887 0.85571 0.0
C688 C 0.7442 0.57957 0.85319 0.0
C689 C 0.74537 0.60875 0.85932 0.0
N690 N 0.70073 0.59695 0.84717 0.0
N691 N 0.71673 0.57339 0.8459 0.0
C692 C 0.70634 0.64772 0.86484 0.0
H693 H 0.68426 0.64573 0.87389 0.0
H694 H 0.70575 0.66196 0.84548 0.0
H695 H 0.72041 0.65771 0.88155 0.0
C696 C 0.60643 0.54303 0.80865 0.0
N697 N 0.61455 0.5649 0.82602 0.0
N698 N 0.6419 0.57062 0.82144 0.0
C699 C 0.65155 0.55428 0.79918 0.0
C700 C 0.62961 0.53536 0.79043 0.0
C701 C 0.57766 0.5288 0.81161 0.0
H702 H 0.56837 0.53321 0.83348 0.0
H703 H 0.56267 0.5377 0.79504 0.0
H704 H 0.57961 0.50519 0.80854 0.0
O705 O 0.60581 0.57687 0.89253 0.0
O706 O 0.64816 0.59776 0.88779 0.0
H707 H 0.69627 0.54464 0.79232 0.0
H708 H 0.67755 0.55726 0.76032 0.0
C709 C 0.67972 0.55993 0.78427 0.0
H710 H 0.68721 0.58209 0.78908 0.0
H711 H 0.70867 0.55288 0.84175 0.0
O712 O 0.55173 0.5854 0.85478 0.0
C713 C 0.62793 0.58822 0.90383 0.0
Co714 Co 0.91218 0.64823 0.91021 0.0
Co715 Co 0.89837 0.66149 0.84643 0.0
C716 C 0.85237 0.66343 0.88523 0.0
O717 O 0.86951 0.65198 0.90361 0.0
O718 O 0.86213 0.67553 0.86247 0.0
C719 C 0.90268 0.6221 0.9617 0.0
O720 O 0.88551 0.60887 0.94331 0.0
C721 C 0.87429 0.66332 0.7885 0.0
C722 C 0.91217 0.65211 0.76147 0.0
C723 C 0.88259 0.6561 0.76055 0.0
N724 N 0.89798 0.66371 0.80535 0.0
N725 N 0.92059 0.65722 0.78904 0.0
C726 C 0.84411 0.66451 0.80004 0.0
H727 H 0.84031 0.68582 0.81025 0.0
H728 H 0.82783 0.66099 0.7827 0.0
H729 H 0.84141 0.64773 0.81702 0.0
C730 C 0.95643 0.69419 0.90008 0.0
N731 N 0.93459 0.67704 0.8916 0.0
N732 N 0.92953 0.68137 0.86369 0.0
C733 C 0.94765 0.70165 0.85362 0.0
C734 C 0.96548 0.7102 0.8762 0.0
C735 C 0.96863 0.69474 0.93023 0.0
H736 H 0.96742 0.67301 0.94015 0.0
H737 H 0.95559 0.70967 0.9438 0.0
H738 H 0.9913 0.70237 0.93005 0.0
O739 O 0.92216 0.61084 0.89388 0.0
O740 O 0.89766 0.61952 0.85377 0.0
H741 H 0.96074 0.70182 0.80899 0.0
H742 H 0.95411 0.73697 0.82384 0.0
C743 C 0.94644 0.71437 0.82367 0.0
H744 H 0.92411 0.71366 0.81507 0.0
H745 H 0.94137 0.65403 0.79717 0.0
O746 O 0.91803 0.64294 0.95252 0.0
C747 C 0.90848 0.60184 0.87182 0.0
Co748 Co 0.09625 0.14245 0.67114 0.0
Co749 Co 0.10903 0.15456 0.60658 0.0
C750 C 0.09539 0.0948 0.63096 0.0
O751 O 0.0866 0.10399 0.65556 0.0
O752 O 0.10496 0.11215 0.61186 0.0
C753 C 0.10624 0.12046 0.7256 0.0
O754 O 0.11478 0.09891 0.70917 0.0
C755 C 0.10154 0.14227 0.54561 0.0
C756 C 0.13739 0.16727 0.52663 0.0
C757 C 0.11783 0.1456 0.52051 0.0
N758 N 0.1117 0.16048 0.56589 0.0
N759 N 0.1325 0.17602 0.55415 0.0
C760 C 0.07986 0.11925 0.55184 0.0
H761 H 0.06892 0.12327 0.57297 0.0
H762 H 0.06313 0.11877 0.53464 0.0
H763 H 0.09073 0.09795 0.55215 0.0
C764 C 0.05422 0.19131 0.66216 0.0
N765 N 0.07476 0.17278 0.65282 0.0
N766 N 0.07918 0.1769 0.62482 0.0
C767 C 0.06117 0.19774 0.61524 0.0
C768 C 0.04465 0.20796 0.63864 0.0
C769 C 0.04502 0.19375 0.69335 0.0
H770 H 0.06313 0.188 0.70801 0.0
H771 H 0.02708 0.17852 0.69743 0.0
H772 H 0.03757 0.21589 0.69845 0.0
O773 O 0.13842 0.14572 0.66583 0.0
O774 O 0.14783 0.16306 0.62214 0.0
H775 H 0.07608 0.22176 0.57853 0.0
H776 H 0.03747 0.21621 0.5791 0.0
C777 C 0.05871 0.20625 0.58386 0.0
H778 H 0.06145 0.1871 0.56972 0.0
H779 H 0.14527 0.19049 0.56576 0.0
O780 O 0.09369 0.14188 0.7138 0.0
C781 C 0.15641 0.15433 0.64691 0.0
Co782 Co 0.60009 0.35633 0.32985 0.0
Co783 Co 0.62687 0.33726 0.38967 0.0
C784 C 0.60779 0.39873 0.37519 0.0
O785 O 0.59553 0.39335 0.35095 0.0
O786 O 0.62011 0.37894 0.38969 0.0
C787 C 0.60389 0.38072 0.27636 0.0
O788 O 0.61755 0.39868 0.29361 0.0
C789 C 0.62809 0.34347 0.4521 0.0
C790 C 0.66916 0.32213 0.46338 0.0
C791 C 0.64805 0.34027 0.47459 0.0
N792 N 0.63762 0.32884 0.42872 0.0
N793 N 0.66194 0.31573 0.43571 0.0
C794 C 0.60033 0.35999 0.4522 0.0
H795 H 0.58566 0.35164 0.43505 0.0
H796 H 0.58967 0.35842 0.47382 0.0
H797 H 0.60462 0.38294 0.44735 0.0
C798 C 0.56001 0.30826 0.3449 0.0
N799 N 0.58292 0.32511 0.35053 0.0
N800 N 0.59416 0.31739 0.37577 0.0
C801 C 0.57882 0.29548 0.38693 0.0
C802 C 0.55666 0.28904 0.36781 0.0
C803 C 0.54199 0.31039 0.31797 0.0
H804 H 0.54027 0.33317 0.31095 0.0
H805 H 0.52019 0.30125 0.32166 0.0
H806 H 0.55267 0.29809 0.30023 0.0
O807 O 0.64183 0.35098 0.32606 0.0
O808 O 0.6609 0.33086 0.36511 0.0
H809 H 0.57324 0.26067 0.41775 0.0
H810 H 0.57989 0.2957 0.43344 0.0
C811 C 0.58553 0.28099 0.41524 0.0
H812 H 0.60901 0.2765 0.41658 0.0
H813 H 0.67473 0.30427 0.42099 0.0
O814 O 0.5899 0.36003 0.28788 0.0
C815 C 0.66344 0.34076 0.33944 0.0
Co816 Co 0.40109 0.85739 0.16374 0.0
Co817 Co 0.39565 0.84282 0.09759 0.0
C818 C 0.40236 0.90389 0.12187 0.0
O819 O 0.40807 0.89681 0.14809 0.0
O820 O 0.39717 0.88483 0.10276 0.0
C821 C 0.37967 0.87703 0.2153 0.0
O822 O 0.3693 0.89527 0.19608 0.0
C823 C 0.40975 0.85525 0.03757 0.0
C824 C 0.37577 0.83056 0.01508 0.0
C825 C 0.39586 0.85221 0.01102 0.0
N826 N 0.39778 0.83685 0.05668 0.0
N827 N 0.37815 0.82148 0.04282 0.0
C828 C 0.43072 0.87827 0.04578 0.0
H829 H 0.43939 0.87452 0.06801 0.0
H830 H 0.44893 0.87851 0.03011 0.0
H831 H 0.41998 0.89959 0.0447 0.0
C832 C 0.4483 0.81231 0.15863 0.0
N833 N 0.42681 0.82873 0.14756 0.0
N834 N 0.42455 0.82328 0.11946 0.0
C835 C 0.44451 0.80356 0.11175 0.0
C836 C 0.46041 0.79582 0.13627 0.0
C837 C 0.45758 0.81303 0.18982 0.0
H838 H 0.45228 0.83419 0.19971 0.0
H839 H 0.48107 0.80867 0.19169 0.0
H840 H 0.44585 0.79607 0.202 0.0
O841 O 0.3604 0.84972 0.15399 0.0
O842 O 0.35615 0.83252 0.1094 0.0
H843 H 0.46069 0.77185 0.08115 0.0
H844 H 0.45773 0.80823 0.06743 0.0
C845 C 0.44747 0.79177 0.08153 0.0
H846 H 0.42579 0.78714 0.07246 0.0
H847 H 0.36425 0.80701 0.05304 0.0
O848 O 0.39806 0.85829 0.20691 0.0
C849 C 0.34488 0.84005 0.13348 0.0
Co850 Co 0.89665 0.35731 0.66607 0.0
Co851 Co 0.88797 0.34223 0.60005 0.0
C852 C 0.89067 0.40359 0.62436 0.0
O853 O 0.89945 0.39708 0.64983 0.0
O854 O 0.8854 0.38413 0.60572 0.0
C855 C 0.8797 0.37765 0.71966 0.0
O856 O 0.86733 0.39573 0.70152 0.0
C857 C 0.89664 0.35677 0.53908 0.0
C858 C 0.86342 0.32967 0.51838 0.0
C859 C 0.88127 0.35302 0.51324 0.0
N860 N 0.88744 0.3372 0.55865 0.0
N861 N 0.86814 0.3206 0.54584 0.0
C862 C 0.917 0.38065 0.54647 0.0
H863 H 0.90669 0.4018 0.54208 0.0
H864 H 0.9241 0.37926 0.56948 0.0
H865 H 0.93666 0.37883 0.53287 0.0
C866 C 0.94471 0.31392 0.65851 0.0
N867 N 0.92303 0.33045 0.64809 0.0
N868 N 0.91989 0.32508 0.62003 0.0
C869 C 0.93964 0.30535 0.61171 0.0
C870 C 0.95611 0.29744 0.63582 0.0
C871 C 0.95389 0.31349 0.68974 0.0
H872 H 0.95097 0.33511 0.69959 0.0
H873 H 0.97671 0.30649 0.69179 0.0
H874 H 0.9401 0.29809 0.70184 0.0
O875 O 0.8564 0.34576 0.65934 0.0
O876 O 0.85099 0.32781 0.61504 0.0
H877 H 0.95608 0.2743 0.58052 0.0
H878 H 0.94831 0.30982 0.56626 0.0
C879 C 0.94107 0.2929 0.58166 0.0
H880 H 0.91918 0.28609 0.57478 0.0
H881 H 0.85617 0.3049 0.55665 0.0
O882 O 0.89699 0.35873 0.70951 0.0
C883 C 0.84075 0.33414 0.63996 0.0
Co884 Co 0.40969 0.14596 0.41149 0.0
Co885 Co 0.41945 0.13581 0.34555 0.0
C886 C 0.3608 0.14857 0.37324 0.0
O887 O 0.37072 0.15619 0.39792 0.0
O888 O 0.37753 0.13985 0.3531 0.0
C889 C 0.39034 0.12917 0.46412 0.0
O890 O 0.37085 0.11914 0.44602 0.0
C891 C 0.40619 0.14693 0.28527 0.0
C892 C 0.43003 0.11146 0.26398 0.0
C893 C 0.40878 0.13197 0.25919 0.0
N894 N 0.42427 0.13501 0.3047 0.0
N895 N 0.4391 0.11442 0.29164 0.0
C896 C 0.3849 0.17008 0.29275 0.0
H897 H 0.38648 0.17625 0.31601 0.0
H898 H 0.3898 0.18965 0.27991 0.0
H899 H 0.3627 0.16303 0.28733 0.0
C900 C 0.45674 0.18907 0.40134 0.0
N901 N 0.43868 0.1681 0.39258 0.0
N902 N 0.44191 0.16416 0.36434 0.0
C903 C 0.46189 0.1825 0.35413 0.0
C904 C 0.47218 0.19888 0.37725 0.0
C905 C 0.45927 0.19916 0.4322 0.0
H906 H 0.45424 0.18136 0.44746 0.0
H907 H 0.44347 0.21675 0.43595 0.0
H908 H 0.48124 0.2075 0.43664 0.0
O909 O 0.41285 0.1047 0.40322 0.0
O910 O 0.42875 0.09689 0.35873 0.0
H911 H 0.48093 0.16615 0.31501 0.0
H912 H 0.48211 0.20502 0.31797 0.0
C913 C 0.46905 0.18558 0.32243 0.0
H914 H 0.44883 0.18705 0.30964 0.0
H915 H 0.45339 0.10062 0.30231 0.0
O916 O 0.41025 0.14539 0.45432 0.0
C917 C 0.42056 0.08745 0.3833 0.0
Co918 Co 0.61058 0.64917 0.16572 0.0
Co919 Co 0.61374 0.6565 0.09868 0.0
C920 C 0.60435 0.59867 0.12816 0.0
O921 O 0.60077 0.60942 0.15345 0.0
O922 O 0.60971 0.61463 0.10633 0.0
C923 C 0.62884 0.63154 0.21903 0.0
O924 O 0.641 0.61267 0.20154 0.0
C925 C 0.60376 0.64269 0.03776 0.0
C926 C 0.63121 0.67521 0.0163 0.0
C927 C 0.61606 0.65005 0.01123 0.0
N928 N 0.61201 0.6622 0.05772 0.0
N929 N 0.62766 0.68206 0.04457 0.0
C930 C 0.58843 0.61534 0.04518 0.0
H931 H 0.57522 0.61828 0.06512 0.0
H932 H 0.57398 0.60839 0.02738 0.0
H933 H 0.60455 0.59805 0.04875 0.0
C934 C 0.5663 0.6962 0.15912 0.0
N935 N 0.58607 0.67761 0.14834 0.0
N936 N 0.58663 0.67987 0.11976 0.0
C937 C 0.56683 0.69955 0.11136 0.0
C938 C 0.55321 0.71091 0.13605 0.0
C939 C 0.56097 0.70041 0.19102 0.0
H940 H 0.58113 0.69675 0.20348 0.0
H941 H 0.54473 0.68453 0.19848 0.0
H942 H 0.55279 0.72241 0.19558 0.0
O943 O 0.65166 0.65382 0.15575 0.0
O944 O 0.65432 0.66429 0.10895 0.0
H945 H 0.57592 0.72081 0.07113 0.0
H946 H 0.5379 0.71504 0.07774 0.0
C947 C 0.55977 0.70562 0.08011 0.0
H948 H 0.56087 0.68546 0.06724 0.0
H949 H 0.63809 0.6988 0.05542 0.0
O950 O 0.61165 0.65019 0.20842 0.0
C951 C 0.66651 0.65954 0.13327 0.0
Co952 Co 0.1064 0.85763 0.82954 0.0
Co953 Co 0.10562 0.86164 0.89655 0.0
C954 C 0.08908 0.91082 0.86546 0.0
O955 O 0.09838 0.89818 0.84259 0.0
O956 O 0.0843 0.89678 0.8887 0.0
C957 C 0.12014 0.8754 0.77495 0.0
O958 O 0.13383 0.89341 0.79212 0.0
C959 C 0.11061 0.87803 0.95754 0.0
C960 C 0.13399 0.84071 0.97589 0.0
C961 C 0.1242 0.86811 0.98248 0.0
N962 N 0.11204 0.85723 0.93717 0.0
N963 N 0.12613 0.83504 0.94826 0.0
C964 C 0.10144 0.90831 0.95128 0.0
H965 H 0.1135 0.91636 0.93206 0.0
H966 H 0.0781 0.90865 0.94597 0.0
H967 H 0.10564 0.923 0.96982 0.0
C968 C 0.06548 0.80917 0.84247 0.0
N969 N 0.08428 0.82982 0.85037 0.0
N970 N 0.08583 0.83059 0.87902 0.0
C971 C 0.06804 0.81067 0.89035 0.0
C972 C 0.05439 0.79637 0.86757 0.0
C973 C 0.05668 0.8035 0.81163 0.0
H974 H 0.05925 0.8232 0.79825 0.0
H975 H 0.03398 0.79603 0.81055 0.0
H976 H 0.07078 0.78646 0.80241 0.0
O977 O 0.14772 0.85181 0.8366 0.0
O978 O 0.14457 0.86903 0.88129 0.0
H979 H 0.04827 0.78909 0.92758 0.0
H980 H 0.0587 0.8263 0.93332 0.0
C981 C 0.0645 0.80574 0.92244 0.0
H982 H 0.0853 0.79832 0.93157 0.0
H983 H 0.13213 0.81684 0.93638 0.0
O984 O 0.10391 0.8564 0.78641 0.0
C985 C 0.15931 0.86305 0.85881 0.0
Co986 Co 0.90641 0.89849 0.65533 0.0
Co987 Co 0.84062 0.90417 0.64713 0.0
C988 C 0.87269 0.84657 0.65176 0.0
O989 O 0.89624 0.85723 0.66102 0.0
O990 O 0.85153 0.86277 0.64527 0.0
C991 C 0.95808 0.88576 0.63366 0.0
O992 O 0.94015 0.86718 0.62202 0.0
C993 C 0.78255 0.88353 0.65472 0.0
C994 C 0.75893 0.91413 0.62656 0.0
C995 C 0.75641 0.88805 0.64093 0.0
N996 N 0.80002 0.90557 0.64798 0.0
N997 N 0.78553 0.92419 0.63187 0.0
C998 C 0.79235 0.85669 0.66981 0.0
H999 H 0.812 0.86096 0.6829 0.0
H1000 H 0.7754 0.8484 0.68455 0.0
H1001 H 0.79695 0.83982 0.65332 0.0
C1002 C 0.89421 0.94297 0.70166 0.0
N1003 N 0.88617 0.92384 0.68109 0.0
N1004 N 0.85801 0.92529 0.67785 0.0
C1005 C 0.84719 0.94528 0.69612 0.0
C1006 C 0.86973 0.95726 0.712 0.0
C1007 C 0.92482 0.94795 0.71051 0.0
H1008 H 0.9375 0.9278 0.70819 0.0
H1009 H 0.92598 0.9559 0.73331 0.0
H1010 H 0.93442 0.96439 0.69592 0.0
O1011 O 0.8967 0.90651 0.61431 0.0
O1012 O 0.85137 0.9195 0.6091 0.0
H1013 H 0.81241 0.97387 0.70966 0.0
H1014 H 0.80232 0.93692 0.70251 0.0
C1015 C 0.81636 0.95495 0.69551 0.0
H1016 H 0.81036 0.96064 0.67284 0.0
H1017 H 0.79466 0.94229 0.62212 0.0
O1018 O 0.9488 0.9026 0.65354 0.0
C1019 C 0.87611 0.91492 0.59827 0.0
Co1020 Co 0.8651 0.07987 0.39649 0.0
Co1021 Co 0.87421 0.14709 0.40196 0.0
C1022 C 0.86508 0.11689 0.3442 0.0
O1023 O 0.8593 0.09248 0.3554 0.0
O1024 O 0.87092 0.13852 0.36007 0.0
C1025 C 0.87833 0.02432 0.37911 0.0
O1026 O 0.89304 0.04052 0.36097 0.0
C1027 C 0.86803 0.20813 0.38641 0.0
C1028 C 0.89898 0.22789 0.41702 0.0
C1029 C 0.88219 0.23369 0.39275 0.0
N1030 N 0.87653 0.18805 0.40579 0.0
N1031 N 0.89457 0.20021 0.42436 0.0
C1032 C 0.85023 0.20171 0.36001 0.0
H1033 H 0.83675 0.18238 0.36377 0.0
H1034 H 0.83608 0.22012 0.3544 0.0
H1035 H 0.86476 0.19775 0.3412 0.0
C1036 C 0.8193 0.09419 0.44183 0.0
N1037 N 0.84092 0.10149 0.42342 0.0
N1038 N 0.84448 0.12961 0.42472 0.0
C1039 C 0.82526 0.14097 0.44364 0.0
C1040 C 0.80848 0.11898 0.45528 0.0
C1041 C 0.80871 0.06411 0.44587 0.0
H1042 H 0.81196 0.05148 0.42559 0.0
H1043 H 0.78557 0.06401 0.45211 0.0
H1044 H 0.82128 0.05374 0.46359 0.0
O1045 O 0.90683 0.08634 0.40288 0.0
O1046 O 0.91272 0.13266 0.41216 0.0
H1047 H 0.80911 0.17662 0.4696 0.0
H1048 H 0.8174 0.18474 0.43187 0.0
C1049 C 0.82417 0.17224 0.45133 0.0
H1050 H 0.84606 0.1796 0.45752 0.0
H1051 H 0.90551 0.18909 0.44075 0.0
O1052 O 0.86197 0.03664 0.3978 0.0
C1053 C 0.92306 0.10755 0.40873 0.0
Co1054 Co 0.57658 0.09772 0.1457 0.0
Co1055 Co 0.64016 0.10997 0.15861 0.0
C1056 C 0.60304 0.15749 0.15962 0.0
O1057 O 0.58418 0.1403 0.14951 0.0
O1058 O 0.62646 0.14782 0.16993 0.0
C1059 C 0.51879 0.11543 0.1506 0.0
O1060 O 0.52995 0.1347 0.1682 0.0
C1061 C 0.69849 0.13133 0.16418 0.0
C1062 C 0.72432 0.0916 0.16862 0.0
C1063 C 0.72628 0.12128 0.16733 0.0
N1064 N 0.68058 0.1087 0.16417 0.0
N1065 N 0.69614 0.08494 0.16654 0.0
C1066 C 0.68902 0.16198 0.16146 0.0
H1067 H 0.67358 0.16416 0.14311 0.0
H1068 H 0.67795 0.16825 0.18194 0.0
H1069 H 0.70741 0.17682 0.15815 0.0
C1070 C 0.58744 0.05062 0.19028 0.0
N1071 N 0.59516 0.07371 0.17423 0.0
N1072 N 0.62144 0.08116 0.18135 0.0
C1073 C 0.63031 0.06527 0.20422 0.0
C1074 C 0.60965 0.04397 0.21039 0.0
C1075 C 0.55992 0.03485 0.18466 0.0
H1076 H 0.55032 0.04182 0.16364 0.0
H1077 H 0.54424 0.03969 0.20228 0.0
H1078 H 0.56393 0.01132 0.18378 0.0
O1079 O 0.59073 0.08948 0.10689 0.0
O1080 O 0.63411 0.10761 0.11472 0.0
H1081 H 0.67481 0.06151 0.21678 0.0
H1082 H 0.6506 0.07108 0.24614 0.0
C1083 C 0.65543 0.07427 0.22266 0.0
H1084 H 0.66041 0.09732 0.21898 0.0
H1085 H 0.68762 0.0642 0.16599 0.0
O1086 O 0.53424 0.09429 0.14233 0.0
C1087 C 0.61449 0.09903 0.09725 0.0
Co1088 Co 0.63891 0.91206 0.90877 0.0
Co1089 Co 0.63393 0.8441 0.91163 0.0
C1090 C 0.64357 0.87735 0.85553 0.0
O1091 O 0.64722 0.90178 0.86757 0.0
O1092 O 0.63836 0.85499 0.87056 0.0
C1093 C 0.62025 0.9659 0.89329 0.0
O1094 O 0.60841 0.94856 0.87412 0.0
C1095 C 0.64295 0.7835 0.89483 0.0
C1096 C 0.61292 0.76246 0.92543 0.0
C1097 C 0.62934 0.75736 0.90064 0.0
N1098 N 0.63396 0.80304 0.9146 0.0
N1099 N 0.61664 0.79006 0.93324 0.0
C1100 C 0.66299 0.79039 0.87025 0.0
H1101 H 0.65304 0.78436 0.84911 0.0
H1102 H 0.66912 0.81333 0.87032 0.0
H1103 H 0.68326 0.77798 0.87298 0.0
C1104 C 0.68425 0.89881 0.95437 0.0
N1105 N 0.66322 0.89102 0.93561 0.0
N1106 N 0.66109 0.86273 0.93594 0.0
C1107 C 0.68067 0.85169 0.9545 0.0
C1108 C 0.69601 0.87411 0.96711 0.0
C1109 C 0.69264 0.92933 0.96009 0.0
H1110 H 0.67393 0.94384 0.95662 0.0
H1111 H 0.70992 0.93556 0.94458 0.0
H1112 H 0.70096 0.93186 0.98264 0.0
O1113 O 0.59804 0.90187 0.91288 0.0
O1114 O 0.59419 0.85517 0.92064 0.0
H1115 H 0.66823 0.81038 0.97054 0.0
H1116 H 0.7069 0.81557 0.96887 0.0
C1117 C 0.68611 0.82008 0.95783 0.0
H1118 H 0.68651 0.80976 0.93604 0.0
H1119 H 0.60559 0.80058 0.94999 0.0
O1120 O 0.63757 0.95519 0.91209 0.0
C1121 C 0.5827 0.87972 0.91716 0.0
Co1122 Co 0.82402 0.11333 0.84735 0.0
Co1123 Co 0.89188 0.11587 0.84732 0.0
C1124 C 0.85944 0.10189 0.90116 0.0
O1125 O 0.83544 0.10438 0.88796 0.0
O1126 O 0.88322 0.10412 0.88754 0.0
C1127 C 0.77101 0.12881 0.86621 0.0
O1128 O 0.78914 0.14183 0.88379 0.0
C1129 C 0.95213 0.122 0.86397 0.0
C1130 C 0.9745 0.12657 0.82176 0.0
C1131 C 0.97887 0.12685 0.85164 0.0
N1132 N 0.93279 0.11817 0.84247 0.0
N1133 N 0.94628 0.12125 0.81727 0.0
C1134 C 0.94442 0.12533 0.89545 0.0
H1135 H 0.92363 0.13696 0.89764 0.0
H1136 H 0.94246 0.10362 0.9052 0.0
H1137 H 0.96109 0.13751 0.90759 0.0
C1138 C 0.83628 0.06884 0.80138 0.0
N1139 N 0.84472 0.08969 0.82 0.0
N1140 N 0.87317 0.0904 0.8206 0.0
C1141 C 0.88361 0.06953 0.80305 0.0
C1142 C 0.86069 0.05535 0.78987 0.0
C1143 C 0.80542 0.06168 0.79544 0.0
H1144 H 0.79183 0.08125 0.79744 0.0
H1145 H 0.79793 0.0458 0.81183 0.0
H1146 H 0.80292 0.05221 0.77336 0.0
O1147 O 0.8318 0.15451 0.84234 0.0
O1148 O 0.87933 0.15636 0.84415 0.0
H1149 H 0.92585 0.07163 0.78447 0.0
H1150 H 0.91645 0.0368 0.79842 0.0
C1151 C 0.91458 0.06028 0.80241 0.0
H1152 H 0.92526 0.06545 0.82337 0.0
H1153 H 0.93601 0.12098 0.79697 0.0
O1154 O 0.7811 0.11215 0.8465 0.0
C1155 C 0.85498 0.16884 0.84291 0.0
Co1156 Co 0.65091 0.16352 0.59384 0.0
Co1157 Co 0.65886 0.09832 0.60308 0.0
C1158 C 0.60127 0.12581 0.58801 0.0
O1159 O 0.61226 0.14999 0.58136 0.0
O1160 O 0.61706 0.10524 0.59692 0.0
C1161 C 0.62758 0.21776 0.6017 0.0
O1162 O 0.60451 0.2018 0.60512 0.0
C1163 C 0.64686 0.0381 0.59329 0.0
C1164 C 0.67637 0.01774 0.62503 0.0
C1165 C 0.65352 0.01221 0.60643 0.0
N1166 N 0.66469 0.0582 0.604 0.0
N1167 N 0.68282 0.04579 0.62234 0.0
C1168 C 0.62138 0.0445 0.57435 0.0
H1169 H 0.62559 0.06381 0.5608 0.0
H1170 H 0.61642 0.02606 0.55989 0.0
H1171 H 0.60226 0.04852 0.58833 0.0
C1172 C 0.70129 0.15314 0.5522 0.0
N1173 N 0.68153 0.14476 0.57223 0.0
N1174 N 0.68349 0.11672 0.57548 0.0
C1175 C 0.70404 0.10629 0.55747 0.0
C1176 C 0.71653 0.12899 0.54211 0.0
C1177 C 0.70565 0.18375 0.54328 0.0
H1178 H 0.69905 0.19848 0.56113 0.0
H1179 H 0.69204 0.1884 0.52395 0.0
H1180 H 0.72854 0.18766 0.53741 0.0
O1181 O 0.65155 0.15609 0.63666 0.0
O1182 O 0.66516 0.11112 0.64343 0.0
H1183 H 0.72212 0.06648 0.57211 0.0
H1184 H 0.72148 0.07032 0.53281 0.0
C1185 C 0.70958 0.07479 0.55329 0.0
H1186 H 0.6888 0.06311 0.55246 0.0
H1187 H 0.69799 0.0569 0.63477 0.0
O1188 O 0.65109 0.20605 0.59337 0.0
C1189 C 0.65758 0.13537 0.65367 0.0
Co1190 Co 0.6556 0.88861 0.35253 0.0
Co1191 Co 0.58744 0.88893 0.35392 0.0
C1192 C 0.62119 0.89139 0.40873 0.0
O1193 O 0.64519 0.8924 0.3951 0.0
O1194 O 0.59732 0.89101 0.39517 0.0
C1195 C 0.70948 0.86864 0.367 0.0
O1196 O 0.69192 0.85489 0.38462 0.0
C1197 C 0.52608 0.89408 0.3697 0.0
C1198 C 0.50595 0.87417 0.331 0.0
C1199 C 0.50009 0.88396 0.35889 0.0
N1200 N 0.54652 0.88991 0.34925 0.0
N1201 N 0.53418 0.8786 0.32596 0.0
C1202 C 0.53216 0.90353 0.40025 0.0
H1203 H 0.55041 0.91889 0.40055 0.0
H1204 H 0.51304 0.91378 0.41039 0.0
H1205 H 0.53786 0.88438 0.41343 0.0
C1206 C 0.64319 0.93468 0.30716 0.0
N1207 N 0.63512 0.91551 0.32774 0.0
N1208 N 0.60701 0.91715 0.33106 0.0
C1209 C 0.59652 0.93877 0.31464 0.0
C1210 C 0.61887 0.95059 0.29782 0.0
C1211 C 0.6733 0.93564 0.29546 0.0
H1212 H 0.68494 0.91542 0.30073 0.0
H1213 H 0.68508 0.95374 0.30574 0.0
H1214 H 0.67312 0.93862 0.27145 0.0
O1215 O 0.64535 0.84915 0.34303 0.0
O1216 O 0.59768 0.84897 0.34328 0.0
H1217 H 0.55204 0.93853 0.30209 0.0
H1218 H 0.56502 0.97315 0.31478 0.0
C1219 C 0.56622 0.94953 0.31805 0.0
H1220 H 0.55815 0.94466 0.34027 0.0
H1221 H 0.54542 0.87203 0.30739 0.0
O1222 O 0.69888 0.88748 0.34973 0.0
C1223 C 0.62163 0.83582 0.34102 0.0
Co1224 Co 0.85037 0.82989 0.1068 0.0
Co1225 Co 0.84448 0.89682 0.11172 0.0
C1226 C 0.90152 0.86895 0.10143 0.0
O1227 O 0.89016 0.84408 0.10018 0.0
O1228 O 0.88614 0.89136 0.10497 0.0
C1229 C 0.87169 0.77791 0.12189 0.0
O1230 O 0.88732 0.79661 0.13637 0.0
C1231 C 0.85271 0.95834 0.10334 0.0
C1232 C 0.82202 0.97552 0.13593 0.0
C1233 C 0.84431 0.98325 0.11747 0.0
N1234 N 0.83641 0.93666 0.11337 0.0
N1235 N 0.81761 0.94718 0.13227 0.0
C1236 C 0.87862 0.95445 0.08431 0.0
H1237 H 0.87669 0.93447 0.07122 0.0
H1238 H 0.8812 0.97308 0.06945 0.0
H1239 H 0.89811 0.95318 0.09825 0.0
C1240 C 0.80342 0.84024 0.06202 0.0
N1241 N 0.82269 0.84902 0.08223 0.0
N1242 N 0.8211 0.87724 0.08438 0.0
C1243 C 0.80109 0.8873 0.06571 0.0
C1244 C 0.78917 0.86427 0.05075 0.0
C1245 C 0.79901 0.80953 0.05349 0.0
H1246 H 0.8194 0.79725 0.056 0.0
H1247 H 0.79114 0.80796 0.03068 0.0
H1248 H 0.7826 0.79988 0.06811 0.0
O1249 O 0.84303 0.83665 0.1486 0.0
O1250 O 0.83802 0.88381 0.15177 0.0
H1251 H 0.77421 0.92185 0.04861 0.0
H1252 H 0.81113 0.93136 0.05707 0.0
C1253 C 0.79232 0.91829 0.06394 0.0
H1254 H 0.78555 0.92578 0.08586 0.0
H1255 H 0.80332 0.93464 0.14437 0.0
O1256 O 0.85226 0.78723 0.10455 0.0
C1257 C 0.83924 0.85922 0.16368 0.0
Co1258 Co 0.15467 0.66249 0.09142 0.0
Co1259 Co 0.1611 0.59648 0.09818 0.0
C1260 C 0.10353 0.62708 0.08872 0.0
O1261 O 0.11468 0.65112 0.0818 0.0
O1262 O 0.11933 0.60577 0.09566 0.0
C1263 C 0.13663 0.71472 0.10934 0.0
O1264 O 0.11713 0.69687 0.11947 0.0
C1265 C 0.14496 0.53752 0.08596 0.0
C1266 C 0.17388 0.51416 0.11607 0.0
C1267 C 0.15009 0.51081 0.09816 0.0
N1268 N 0.16454 0.55599 0.09664 0.0
N1269 N 0.18224 0.54174 0.11401 0.0
C1270 C 0.11927 0.54632 0.06834 0.0
H1271 H 0.12392 0.56635 0.05607 0.0
H1272 H 0.11316 0.52912 0.0528 0.0
H1273 H 0.10071 0.55007 0.08316 0.0
C1274 C 0.20147 0.65218 0.04676 0.0
N1275 N 0.18252 0.64343 0.06727 0.0
N1276 N 0.18439 0.6153 0.06986 0.0
C1277 C 0.20449 0.60523 0.05119 0.0
C1278 C 0.21606 0.62823 0.03572 0.0
C1279 C 0.20499 0.6828 0.03749 0.0
H1280 H 0.18454 0.69483 0.04075 0.0
H1281 H 0.21177 0.68406 0.0143 0.0
H1282 H 0.22192 0.69297 0.0511 0.0
O1283 O 0.15872 0.65274 0.13313 0.0
O1284 O 0.1712 0.60724 0.13819 0.0
H1285 H 0.21817 0.56647 0.07214 0.0
H1286 H 0.23314 0.57124 0.03619 0.0
C1287 C 0.21361 0.57435 0.0498 0.0
H1288 H 0.19565 0.56132 0.04083 0.0
H1289 H 0.19846 0.55136 0.12639 0.0
O1290 O 0.1566 0.70494 0.09293 0.0
C1291 C 0.16531 0.63158 0.14929 0.0
Co1292 Co 0.1609 0.39153 0.84734 0.0
Co1293 Co 0.0945 0.39935 0.85781 0.0
C1294 C 0.13004 0.39983 0.90732 0.0
O1295 O 0.15079 0.39253 0.89049 0.0
O1296 O 0.10639 0.40903 0.89695 0.0
C1297 C 0.21514 0.37082 0.86098 0.0
O1298 O 0.19742 0.35519 0.87673 0.0
C1299 C 0.03417 0.39665 0.87705 0.0
C1300 C 0.01115 0.39071 0.83538 0.0
C1301 C 0.00722 0.39112 0.86533 0.0
N1302 N 0.05322 0.39955 0.85504 0.0
N1303 N 0.03922 0.39611 0.83018 0.0
C1304 C 0.04249 0.39501 0.90849 0.0
H1305 H 0.0606 0.37959 0.91107 0.0
H1306 H 0.04989 0.41653 0.91571 0.0
H1307 H 0.02429 0.38803 0.92248 0.0
C1308 C 0.14729 0.43618 0.80101 0.0
N1309 N 0.14027 0.41947 0.82401 0.0
N1310 N 0.11298 0.42378 0.83035 0.0
C1311 C 0.10238 0.44511 0.81368 0.0
C1312 C 0.12337 0.45356 0.7933 0.0
C1313 C 0.17561 0.43304 0.78567 0.0
H1314 H 0.18635 0.41267 0.79219 0.0
H1315 H 0.18994 0.45112 0.79186 0.0
H1316 H 0.17249 0.43301 0.76168 0.0
O1317 O 0.14913 0.3534 0.83555 0.0
O1318 O 0.10505 0.35798 0.85338 0.0
H1319 H 0.05699 0.44979 0.80608 0.0
H1320 H 0.07504 0.48264 0.81685 0.0
C1321 C 0.07394 0.45904 0.8203 0.0
H1322 H 0.06773 0.45493 0.84329 0.0
H1323 H 0.04911 0.39584 0.80973 0.0
O1324 O 0.20446 0.3905 0.84472 0.0
C1325 C 0.12567 0.34231 0.84411 0.0
Co1326 Co 0.35888 0.33124 0.58495 0.0
Co1327 Co 0.36064 0.39775 0.58358 0.0
C1328 C 0.41216 0.36706 0.56907 0.0
O1329 O 0.39933 0.34403 0.5766 0.0
O1330 O 0.39836 0.39051 0.56641 0.0
C1331 C 0.37863 0.28005 0.60262 0.0
O1332 O 0.39543 0.29924 0.61492 0.0
C1333 C 0.37594 0.45731 0.59087 0.0
C1334 C 0.33427 0.47766 0.60212 0.0
C1335 C 0.36359 0.48284 0.59999 0.0
N1336 N 0.35482 0.4379 0.58726 0.0
N1337 N 0.32995 0.45014 0.59411 0.0
C1338 C 0.40741 0.44993 0.59085 0.0
H1339 H 0.41093 0.4295 0.60283 0.0
H1340 H 0.41472 0.44695 0.56801 0.0
H1341 H 0.42064 0.4669 0.60126 0.0
C1342 C 0.30934 0.34181 0.54386 0.0
N1343 N 0.33083 0.35056 0.56155 0.0
N1344 N 0.33185 0.37889 0.56125 0.0
C1345 C 0.31184 0.38899 0.54261 0.0
C1346 C 0.29647 0.36595 0.53131 0.0
C1347 C 0.30106 0.31101 0.53972 0.0
H1348 H 0.3069 0.29824 0.55929 0.0
H1349 H 0.31302 0.30215 0.52076 0.0
H1350 H 0.27759 0.3091 0.53535 0.0
O1351 O 0.35188 0.33931 0.62601 0.0
O1352 O 0.36281 0.38536 0.62486 0.0
H1353 H 0.29374 0.43121 0.54636 0.0
H1354 H 0.303 0.42102 0.50976 0.0
C1355 C 0.30994 0.4197 0.53289 0.0
H1356 H 0.33112 0.43046 0.53528 0.0
H1357 H 0.31034 0.43923 0.59524 0.0
O1358 O 0.35918 0.28862 0.58491 0.0
C1359 C 0.35796 0.36246 0.6391 0.0
Co1360 Co 0.07501 0.59736 0.63968 0.0
Co1361 Co 0.14146 0.60323 0.64504 0.0
C1362 C 0.10806 0.65404 0.65194 0.0
O1363 O 0.08618 0.63894 0.64506 0.0
O1364 O 0.13223 0.64221 0.6569 0.0
C1365 C 0.01767 0.61849 0.64487 0.0
O1366 O 0.0307 0.64034 0.65727 0.0
C1367 C 0.20211 0.61813 0.64503 0.0
C1368 C 0.22313 0.57596 0.638 0.0
C1369 C 0.2285 0.60514 0.64047 0.0
N1370 N 0.18187 0.59756 0.64565 0.0
N1371 N 0.19454 0.57237 0.64151 0.0
C1372 C 0.19569 0.64968 0.64459 0.0
H1373 H 0.1781 0.65405 0.62881 0.0
H1374 H 0.18841 0.65638 0.66662 0.0
H1375 H 0.21476 0.66262 0.63831 0.0
C1376 C 0.08721 0.5495 0.68347 0.0
N1377 N 0.09491 0.57139 0.66573 0.0
N1378 N 0.12247 0.57645 0.6694 0.0
C1379 C 0.13273 0.56014 0.69126 0.0
C1380 C 0.11113 0.5412 0.70071 0.0
C1381 C 0.05778 0.53644 0.68242 0.0
H1382 H 0.04644 0.54298 0.66216 0.0
H1383 H 0.04494 0.54417 0.7013 0.0
H1384 H 0.05927 0.51262 0.68314 0.0
O1385 O 0.08507 0.59019 0.59902 0.0
O1386 O 0.1314 0.60069 0.60275 0.0
H1387 H 0.17809 0.55243 0.6964 0.0
H1388 H 0.15976 0.56335 0.72951 0.0
C1389 C 0.16107 0.56659 0.70558 0.0
H1390 H 0.16734 0.58923 0.70139 0.0
H1391 H 0.1835 0.5529 0.63981 0.0
O1392 O 0.03202 0.59568 0.63951 0.0
C1393 C 0.10927 0.59538 0.58727 0.0
Co1394 Co 0.40356 0.40099 0.13953 0.0
Co1395 Co 0.33691 0.40319 0.13556 0.0
C1396 C 0.37127 0.34777 0.1447 0.0
O1397 O 0.39532 0.3601 0.1495 0.0
O1398 O 0.34878 0.36237 0.13886 0.0
C1399 C 0.45631 0.38955 0.11804 0.0
O1400 O 0.43964 0.36955 0.10691 0.0
C1401 C 0.27852 0.38347 0.14553 0.0
C1402 C 0.25453 0.4147 0.11842 0.0
C1403 C 0.2519 0.38881 0.13309 0.0
N1404 N 0.29635 0.40492 0.13782 0.0
N1405 N 0.28167 0.42393 0.12236 0.0
C1406 C 0.28805 0.35636 0.16026 0.0
H1407 H 0.30709 0.36055 0.17425 0.0
H1408 H 0.27059 0.34732 0.17392 0.0
H1409 H 0.29369 0.34013 0.14347 0.0
C1410 C 0.39191 0.44787 0.18368 0.0
N1411 N 0.38352 0.42779 0.16417 0.0
N1412 N 0.35517 0.4278 0.16286 0.0
C1413 C 0.3446 0.44754 0.1816 0.0
C1414 C 0.36749 0.46105 0.1955 0.0
C1415 C 0.42269 0.45418 0.19088 0.0
H1416 H 0.43587 0.4343 0.18908 0.0
H1417 H 0.42461 0.46336 0.21315 0.0
H1418 H 0.43113 0.47008 0.175 0.0
O1419 O 0.39219 0.40443 0.09815 0.0
O1420 O 0.34562 0.41339 0.09509 0.0
H1421 H 0.30912 0.47178 0.20065 0.0
H1422 H 0.30122 0.43489 0.19077 0.0
C1423 C 0.31319 0.45456 0.18443 0.0
H1424 H 0.30486 0.46172 0.16297 0.0
H1425 H 0.29087 0.44175 0.11217 0.0
O1426 O 0.44568 0.40681 0.1368 0.0
C1427 C 0.3699 0.40947 0.08298 0.0
Co1428 Co 0.63303 0.42091 0.10073 0.0
Co1429 Co 0.62428 0.35438 0.09469 0.0
C1430 C 0.6309 0.38501 0.15309 0.0
O1431 O 0.63828 0.40891 0.14184 0.0
O1432 O 0.6248 0.36353 0.1371 0.0
C1433 C 0.61898 0.4753 0.11827 0.0
O1434 O 0.60379 0.45849 0.1354 0.0
C1435 C 0.62853 0.29376 0.11139 0.0
C1436 C 0.59818 0.27462 0.07987 0.0
C1437 C 0.61306 0.26861 0.10544 0.0
N1438 N 0.62194 0.31354 0.09098 0.0
N1439 N 0.60432 0.3017 0.07187 0.0
C1440 C 0.64797 0.29997 0.13664 0.0
H1441 H 0.65665 0.32209 0.13542 0.0
H1442 H 0.66684 0.2853 0.1359 0.0
H1443 H 0.63626 0.29679 0.15751 0.0
C1444 C 0.67936 0.40779 0.05596 0.0
N1445 N 0.65804 0.3999 0.07441 0.0
N1446 N 0.65459 0.37183 0.07257 0.0
C1447 C 0.67333 0.36106 0.05281 0.0
C1448 C 0.68994 0.38343 0.04149 0.0
C1449 C 0.68967 0.43808 0.05274 0.0
H1450 H 0.68674 0.44997 0.07351 0.0
H1451 H 0.7127 0.43857 0.04613 0.0
H1452 H 0.67667 0.44898 0.03568 0.0
O1453 O 0.59145 0.41412 0.09317 0.0
O1454 O 0.58656 0.36816 0.08192 0.0
H1455 H 0.68578 0.32697 0.02292 0.0
H1456 H 0.68287 0.31682 0.06094 0.0
C1457 C 0.67341 0.33024 0.04335 0.0
H1458 H 0.65093 0.32297 0.03983 0.0
H1459 H 0.59466 0.31282 0.05468 0.0
O1460 O 0.63602 0.46374 0.09976 0.0
C1461 C 0.57576 0.39298 0.08578 0.0
Co1462 Co 0.84963 0.67311 0.59944 0.0
Co1463 Co 0.84741 0.60519 0.596 0.0
C1464 C 0.90323 0.63492 0.59774 0.0
O1465 O 0.89056 0.65915 0.60046 0.0
O1466 O 0.88901 0.61208 0.59294 0.0
C1467 C 0.86647 0.7256 0.6212 0.0
O1468 O 0.88048 0.70694 0.63743 0.0
C1469 C 0.86077 0.54332 0.59607 0.0
C1470 C 0.81781 0.52369 0.60119 0.0
C1471 C 0.84696 0.51732 0.60011 0.0
N1472 N 0.84079 0.56437 0.59476 0.0
N1473 N 0.81511 0.55241 0.59801 0.0
C1474 C 0.89259 0.548 0.59417 0.0
H1475 H 0.89747 0.56083 0.57441 0.0
H1476 H 0.90463 0.52738 0.59297 0.0
H1477 H 0.89985 0.56014 0.61366 0.0
C1478 C 0.80852 0.66674 0.54954 0.0
N1479 N 0.82684 0.65564 0.56945 0.0
N1480 N 0.82617 0.6273 0.56774 0.0
C1481 C 0.8081 0.61962 0.54603 0.0
C1482 C 0.79594 0.64433 0.53394 0.0
C1483 C 0.80267 0.69821 0.54618 0.0
H1484 H 0.82299 0.71048 0.54878 0.0
H1485 H 0.79289 0.703 0.52462 0.0
H1486 H 0.78758 0.70521 0.5636 0.0
O1487 O 0.83375 0.66344 0.63742 0.0
O1488 O 0.83824 0.61609 0.63662 0.0
H1489 H 0.79408 0.58672 0.51566 0.0
H1490 H 0.81978 0.57501 0.54255 0.0
C1491 C 0.80088 0.5891 0.53865 0.0
H1492 H 0.78272 0.58196 0.5526 0.0
H1493 H 0.79586 0.56394 0.59946 0.0
O1494 O 0.8507 0.71619 0.60046 0.0
C1495 C 0.83317 0.63934 0.65032 0.0
Co1496 Co 0.66702 0.37666 0.65342 0.0
Co1497 Co 0.6066 0.39373 0.63317 0.0
C1498 C 0.64802 0.39019 0.5897 0.0
O1499 O 0.66398 0.37939 0.60955 0.0
O1500 O 0.62468 0.40299 0.59622 0.0
C1501 C 0.7184 0.35 0.64719 0.0
O1502 O 0.70106 0.33585 0.6297 0.0
C1503 C 0.55008 0.39481 0.6068 0.0
C1504 C 0.52155 0.3957 0.64539 0.0
C1505 C 0.52161 0.39269 0.61535 0.0
N1506 N 0.56623 0.39914 0.63073 0.0
N1507 N 0.54903 0.39992 0.65371 0.0
C1508 C 0.56223 0.38814 0.57731 0.0
H1509 H 0.57876 0.37093 0.57925 0.0
H1510 H 0.57302 0.4076 0.56859 0.0
H1511 H 0.54523 0.38124 0.5618 0.0
C1512 C 0.6561 0.4236 0.69682 0.0
N1513 N 0.64877 0.40724 0.67375 0.0
N1514 N 0.62356 0.41557 0.66392 0.0
C1515 C 0.61491 0.43904 0.67882 0.0
C1516 C 0.63493 0.44491 0.701 0.0
C1517 C 0.68179 0.41693 0.7154 0.0
H1518 H 0.68832 0.39411 0.71254 0.0
H1519 H 0.70014 0.43065 0.70856 0.0
H1520 H 0.67697 0.42094 0.73875 0.0
O1521 O 0.64903 0.34059 0.66323 0.0
O1522 O 0.61103 0.35069 0.63621 0.0
H1523 H 0.57048 0.45144 0.68187 0.0
H1524 H 0.59465 0.48041 0.67254 0.0
C1525 C 0.58997 0.45724 0.66917 0.0
H1526 H 0.58532 0.45345 0.64575 0.0
H1527 H 0.55624 0.40102 0.67523 0.0
O1528 O 0.70835 0.37109 0.6618 0.0
C1529 C 0.62728 0.3324 0.64882 0.0
Co1530 Co 0.36552 0.58642 0.89063 0.0
Co1531 Co 0.37003 0.65437 0.89377 0.0
C1532 C 0.36005 0.62169 0.83762 0.0
O1533 O 0.35696 0.59708 0.84944 0.0
O1534 O 0.3649 0.64407 0.85272 0.0
C1535 C 0.3826 0.53126 0.87623 0.0
O1536 O 0.39619 0.54717 0.85697 0.0
C1537 C 0.36363 0.71523 0.87604 0.0
C1538 C 0.37451 0.73819 0.91667 0.0
C1539 C 0.36735 0.74237 0.88769 0.0
N1540 N 0.3684 0.69559 0.89712 0.0
N1541 N 0.37489 0.70957 0.92137 0.0
C1542 C 0.35581 0.70835 0.84521 0.0
H1543 H 0.33903 0.6914 0.84475 0.0
H1544 H 0.34769 0.72768 0.83358 0.0
H1545 H 0.37528 0.70035 0.83378 0.0
C1546 C 0.32081 0.59814 0.93675 0.0
N1547 N 0.34135 0.60684 0.91781 0.0
N1548 N 0.34261 0.63518 0.91824 0.0
C1549 C 0.32244 0.64532 0.93688 0.0
C1550 C 0.30808 0.62226 0.94963 0.0
C1551 C 0.31403 0.56725 0.94269 0.0
H1552 H 0.33375 0.5539 0.94036 0.0
H1553 H 0.29794 0.55968 0.92652 0.0
H1554 H 0.30498 0.56449 0.96492 0.0
O1555 O 0.40656 0.59586 0.89534 0.0
O1556 O 0.41038 0.64292 0.90147 0.0
H1557 H 0.3299 0.68652 0.95608 0.0
H1558 H 0.29255 0.67945 0.94799 0.0
C1559 C 0.315 0.67653 0.94013 0.0
H1560 H 0.31727 0.68767 0.91891 0.0
H1561 H 0.38031 0.69953 0.94098 0.0
O1562 O 0.3654 0.54354 0.89409 0.0
C1563 C 0.42189 0.61815 0.89899 0.0
Co1564 Co 0.13903 0.41085 0.39777 0.0
Co1565 Co 0.13066 0.34411 0.40684 0.0
C1566 C 0.13222 0.37355 0.34759 0.0
O1567 O 0.14057 0.39804 0.35665 0.0
O1568 O 0.12769 0.35293 0.36515 0.0
C1569 C 0.1199 0.46421 0.38222 0.0
O1570 O 0.10526 0.44638 0.36567 0.0
C1571 C 0.14046 0.28427 0.38971 0.0
C1572 C 0.11311 0.26137 0.42156 0.0
C1573 C 0.12914 0.25748 0.39636 0.0
N1574 N 0.13116 0.3032 0.40988 0.0
N1575 N 0.11526 0.28924 0.42914 0.0
C1576 C 0.15612 0.29265 0.36249 0.0
H1577 H 0.16825 0.3129 0.36602 0.0
H1578 H 0.1712 0.27545 0.35551 0.0
H1579 H 0.14022 0.29602 0.34473 0.0
C1580 C 0.18949 0.39843 0.43696 0.0
N1581 N 0.16614 0.3904 0.4215 0.0
N1582 N 0.16252 0.36244 0.42463 0.0
C1583 C 0.18326 0.35184 0.44208 0.0
C1584 C 0.20122 0.37421 0.45045 0.0
C1585 C 0.2004 0.42863 0.43845 0.0
H1586 H 0.19476 0.44042 0.4182 0.0
H1587 H 0.2241 0.4289 0.44185 0.0
H1588 H 0.18995 0.43976 0.4571 0.0
O1589 O 0.09938 0.40259 0.40987 0.0
O1590 O 0.09402 0.35729 0.42325 0.0
H1591 H 0.19924 0.31823 0.47079 0.0
H1592 H 0.19106 0.30727 0.43383 0.0
C1593 C 0.18423 0.32124 0.45222 0.0
H1594 H 0.16234 0.31442 0.45903 0.0
H1595 H 0.10429 0.29912 0.44633 0.0
O1596 O 0.13938 0.45394 0.39897 0.0
C1597 C 0.08375 0.38237 0.41953 0.0
Co1598 Co 0.32581 0.61061 0.34099 0.0
Co1599 Co 0.392 0.62059 0.32899 0.0
C1600 C 0.36704 0.60759 0.38876 0.0
O1601 O 0.34142 0.60219 0.38042 0.0
O1602 O 0.3864 0.61482 0.37066 0.0
C1603 C 0.27229 0.62443 0.36293 0.0
O1604 O 0.29019 0.63753 0.3807 0.0
C1605 C 0.45303 0.61041 0.3407 0.0
C1606 C 0.47237 0.64717 0.31745 0.0
C1607 C 0.47838 0.62593 0.33776 0.0
N1608 N 0.43279 0.62241 0.32344 0.0
N1609 N 0.4448 0.64386 0.30898 0.0
C1610 C 0.44719 0.58703 0.36231 0.0
H1611 H 0.45001 0.59542 0.38476 0.0
H1612 H 0.42517 0.57821 0.35947 0.0
H1613 H 0.46294 0.5693 0.35925 0.0
C1614 C 0.3362 0.56608 0.29372 0.0
N1615 N 0.34487 0.58787 0.31114 0.0
N1616 N 0.37269 0.59203 0.3069 0.0
C1617 C 0.38262 0.57302 0.28712 0.0
C1618 C 0.35984 0.55587 0.27776 0.0
C1619 C 0.30582 0.55546 0.29238 0.0
H1620 H 0.29055 0.5732 0.29735 0.0
H1621 H 0.30288 0.53837 0.309 0.0
H1622 H 0.30096 0.54632 0.27057 0.0
O1623 O 0.33216 0.65242 0.33617 0.0
O1624 O 0.3771 0.65961 0.32188 0.0
H1625 H 0.42074 0.58822 0.26598 0.0
H1626 H 0.41853 0.54936 0.26812 0.0
C1627 C 0.41393 0.56978 0.2797 0.0
H1628 H 0.42689 0.57019 0.29997 0.0
H1629 H 0.43346 0.65794 0.29544 0.0
O1630 O 0.28272 0.60848 0.3428 0.0
C1631 C 0.35234 0.66929 0.32872 0.0
C1632 C 0.14785 0.35612 0.97446 0.0
C1633 C 0.12293 0.36038 0.99141 0.0
H1634 H 0.17009 0.36573 0.93475 0.0
C1635 C 0.10235 0.3806 0.98217 0.0
H1636 H 0.16438 0.3411 0.98139 0.0
C1637 C 0.10614 0.39554 0.95605 0.0
C1638 C 0.13017 0.39006 0.93811 0.0
H1639 H 0.08342 0.38513 0.99527 0.0
H1640 H 0.08963 0.41068 0.94945 0.0
C1641 C 0.15136 0.37065 0.94799 0.0
C1642 C 0.84462 0.88301 0.24189 0.0
C1643 C 0.86078 0.86044 0.25417 0.0
H1644 H 0.82448 0.90004 0.20367 0.0
C1645 C 0.86669 0.83592 0.23731 0.0
H1646 H 0.8394 0.90206 0.25446 0.0
C1647 C 0.85754 0.8345 0.20833 0.0
C1648 C 0.84269 0.85776 0.19561 0.0
H1649 H 0.87868 0.818 0.24637 0.0
H1650 H 0.86346 0.81581 0.19551 0.0
C1651 C 0.83579 0.88175 0.21287 0.0
C1652 C 0.35679 0.61902 0.46966 0.0
C1653 C 0.38306 0.63223 0.47667 0.0
H1654 H 0.33098 0.6002 0.43591 0.0
C1655 C 0.40511 0.63353 0.45602 0.0
H1656 H 0.33964 0.61778 0.48567 0.0
C1657 C 0.40055 0.62302 0.42804 0.0
C1658 C 0.37357 0.61153 0.42002 0.0
H1659 H 0.42558 0.64346 0.4613 0.0
H1660 H 0.41768 0.62568 0.41224 0.0
C1661 C 0.35199 0.6088 0.44138 0.0
C1662 C 0.63827 0.1636 0.69629 0.0
C1663 C 0.64879 0.13746 0.68479 0.0
H1664 H 0.61418 0.18424 0.73052 0.0
C1665 C 0.64555 0.11224 0.70142 0.0
H1666 H 0.64022 0.18341 0.68402 0.0
C1667 C 0.63025 0.11275 0.72768 0.0
C1668 C 0.61836 0.13852 0.73824 0.0
H1669 H 0.65318 0.0917 0.69331 0.0
H1670 H 0.62698 0.09276 0.73935 0.0
C1671 C 0.62328 0.16413 0.72286 0.0
C1672 C 0.08733 0.61882 0.51151 0.0
C1673 C 0.11393 0.61904 0.4969 0.0
H1674 H 0.06487 0.6101 0.55128 0.0
C1675 C 0.13875 0.60952 0.51168 0.0
H1676 H 0.06779 0.62566 0.50055 0.0
C1677 C 0.13715 0.60075 0.54079 0.0
C1678 C 0.11058 0.60067 0.5555 0.0
H1679 H 0.15953 0.60929 0.50087 0.0
H1680 H 0.15677 0.59438 0.5519 0.0
C1681 C 0.08562 0.60945 0.54042 0.0
C1682 C 0.63622 0.84825 0.81058 0.0
C1683 C 0.63846 0.87546 0.8238 0.0
H1684 H 0.62052 0.82389 0.77435 0.0
C1685 C 0.62964 0.89991 0.80809 0.0
H1686 H 0.64259 0.82898 0.82213 0.0
C1687 C 0.61699 0.89691 0.78059 0.0
C1688 C 0.61338 0.86951 0.76824 0.0
H1689 H 0.63071 0.92114 0.81777 0.0
H1690 H 0.60935 0.91592 0.7693 0.0
C1691 C 0.62357 0.84528 0.78319 0.0
C1692 C 0.34652 0.3992 0.0048 0.0
C1693 C 0.3701 0.38384 0.99333 0.0
H1694 H 0.32802 0.41984 0.04217 0.0
C1695 C 0.39467 0.37972 0.01066 0.0
H1696 H 0.32739 0.40298 0.99177 0.0
C1697 C 0.39534 0.39006 0.03921 0.0
C1698 C 0.37123 0.40426 0.05122 0.0
H1699 H 0.41337 0.36845 0.0022 0.0
H1700 H 0.41436 0.38577 0.05221 0.0
C1701 C 0.34698 0.40913 0.03355 0.0
C1702 C 0.86764 0.09872 0.26374 0.0
C1703 C 0.88339 0.12205 0.25238 0.0
H1704 H 0.8492 0.07887 0.30153 0.0
C1705 C 0.89208 0.14409 0.27126 0.0
H1706 H 0.86053 0.0814 0.24969 0.0
C1707 C 0.8851 0.14286 0.30088 0.0
C1708 C 0.8695 0.11942 0.31232 0.0
H1709 H 0.90398 0.16244 0.26313 0.0
H1710 H 0.89259 0.16001 0.31492 0.0
C1711 C 0.86092 0.09734 0.2934 0.0
C1712 C 0.97309 0.12696 0.41241 0.0
C1713 C 0.95457 0.10436 0.40475 0.0
H1714 H 0.01523 0.14495 0.40899 0.0
C1715 C 0.96574 0.08102 0.38864 0.0
H1716 H 0.96517 0.14528 0.42466 0.0
C1717 C 0.9944 0.08109 0.37907 0.0
C1718 C 0.01251 0.10431 0.38575 0.0
H1719 H 0.95198 0.06335 0.38211 0.0
H1720 H 0.00223 0.06319 0.36613 0.0
C1721 C 0.00174 0.12687 0.40312 0.0
C1722 C 0.13551 0.72821 0.63484 0.0
C1723 C 0.11226 0.73978 0.61909 0.0
H1724 H 0.15177 0.69283 0.65948 0.0
C1725 C 0.08593 0.72476 0.61897 0.0
H1726 H 0.15628 0.73851 0.63514 0.0
C1727 C 0.08354 0.69793 0.63241 0.0
C1728 C 0.10748 0.68542 0.64628 0.0
H1729 H 0.06733 0.73324 0.60752 0.0
H1730 H 0.06348 0.68624 0.63017 0.0
C1731 C 0.13298 0.70158 0.64868 0.0
C1732 C 0.5148 0.90502 0.88055 0.0
C1733 C 0.49823 0.87985 0.88069 0.0
H1734 H 0.55389 0.92531 0.89352 0.0
C1735 C 0.50787 0.85592 0.8967 0.0
H1736 H 0.50751 0.92406 0.86906 0.0
C1737 C 0.53451 0.85656 0.91085 0.0
C1738 C 0.55181 0.8813 0.90952 0.0
H1739 H 0.4952 0.83639 0.89763 0.0
H1740 H 0.54209 0.83726 0.92168 0.0
C1741 C 0.54117 0.90585 0.89507 0.0
C1742 C 0.34772 0.30368 0.12471 0.0
C1743 C 0.36982 0.31606 0.14162 0.0
H1744 H 0.33002 0.2654 0.10598 0.0
C1745 C 0.39131 0.29808 0.1532 0.0
H1746 H 0.33118 0.31695 0.11482 0.0
C1747 C 0.39059 0.26837 0.14806 0.0
C1748 C 0.36866 0.25614 0.13082 0.0
H1749 H 0.40874 0.30697 0.16606 0.0
H1750 H 0.40747 0.25505 0.15729 0.0
C1751 C 0.34722 0.27413 0.11927 0.0
C1752 C 0.9754 0.85071 0.12957 0.0
C1753 C 0.9881 0.87799 0.13099 0.0
H1754 H 0.93846 0.82614 0.11759 0.0
C1755 C 0.97401 0.90158 0.11831 0.0
H1756 H 0.98615 0.83218 0.13896 0.0
C1757 C 0.94658 0.89825 0.10612 0.0
C1758 C 0.93297 0.87122 0.10627 0.0
H1759 H 0.98358 0.92281 0.11914 0.0
H1760 H 0.93544 0.91708 0.09797 0.0
C1761 C 0.94825 0.84726 0.11698 0.0
C1762 C 0.37038 0.74789 0.33769 0.0
C1763 C 0.34729 0.75768 0.35503 0.0
H1764 H 0.38981 0.71254 0.31516 0.0
C1765 C 0.32426 0.73898 0.36074 0.0
H1766 H 0.38834 0.76185 0.33254 0.0
C1767 C 0.32491 0.7107 0.35029 0.0
C1768 C 0.34873 0.7005 0.33415 0.0
H1769 H 0.30599 0.74602 0.37366 0.0
H1770 H 0.30731 0.6965 0.35603 0.0
C1771 C 0.37113 0.71964 0.32743 0.0
C1772 C 0.55768 0.10129 0.60856 0.0
C1773 C 0.56951 0.12333 0.59119 0.0
H1774 H 0.52019 0.08468 0.63009 0.0
C1775 C 0.55113 0.14501 0.58065 0.0
H1776 H 0.57122 0.08441 0.6174 0.0
C1777 C 0.52184 0.14511 0.58798 0.0
C1778 C 0.51031 0.12376 0.60634 0.0
H1779 H 0.55952 0.16238 0.56742 0.0
H1780 H 0.50837 0.16239 0.57981 0.0
C1781 C 0.52846 0.10161 0.61621 0.0
C1782 C 0.15207 0.2672 0.85961 0.0
C1783 C 0.12852 0.25574 0.87493 0.0
H1784 H 0.16932 0.3033 0.8368 0.0
C1785 C 0.10281 0.2717 0.8767 0.0
H1786 H 0.17201 0.25519 0.85741 0.0
C1787 C 0.10109 0.29912 0.86453 0.0
C1788 C 0.12509 0.31119 0.85042 0.0
H1789 H 0.08409 0.26325 0.88791 0.0
H1790 H 0.08133 0.31131 0.86734 0.0
C1791 C 0.15035 0.29462 0.8474 0.0
C1792 C 0.39997 0.95675 0.13427 0.0
C1793 C 0.39665 0.93433 0.11396 0.0
H1794 H 0.39168 0.00122 0.14416 0.0
C1795 C 0.38396 0.94059 0.08674 0.0
H1796 H 0.40932 0.95264 0.15551 0.0
C1797 C 0.37364 0.96808 0.08051 0.0
C1798 C 0.37623 0.99015 0.10104 0.0
H1799 H 0.38061 0.92393 0.0706 0.0
H1800 H 0.36309 0.97198 0.0598 0.0
C1801 C 0.3899 0.9845 0.1278 0.0
C1802 C 0.90674 0.55271 0.8937 0.0
C1803 C 0.89779 0.57197 0.87188 0.0
H1804 H 0.89825 0.51329 0.91617 0.0
C1805 C 0.87441 0.5644 0.85386 0.0
H1806 H 0.92442 0.55802 0.90816 0.0
C1807 C 0.85923 0.539 0.85878 0.0
C1808 C 0.86752 0.52046 0.88134 0.0
H1809 H 0.86673 0.57884 0.83702 0.0
H1810 H 0.84077 0.53405 0.84521 0.0
C1811 C 0.89167 0.52721 0.89843 0.0
C1812 C 0.73928 0.63344 0.10821 0.0
C1813 C 0.75144 0.62413 0.13461 0.0
H1814 H 0.70333 0.65332 0.08706 0.0
C1815 C 0.73764 0.63106 0.1609 0.0
H1816 H 0.74975 0.62859 0.08765 0.0
C1817 C 0.71107 0.64539 0.16066 0.0
C1818 C 0.69781 0.65296 0.13408 0.0
H1819 H 0.74641 0.62382 0.18151 0.0
H1820 H 0.70004 0.64877 0.18122 0.0
C1821 C 0.71286 0.64795 0.10793 0.0
C1822 C 0.63039 0.43414 0.40899 0.0
C1823 C 0.61252 0.42876 0.38472 0.0
H1824 H 0.6556 0.46511 0.43238 0.0
C1825 C 0.60322 0.45206 0.36759 0.0
H1826 H 0.63804 0.41678 0.42273 0.0
C1827 C 0.61312 0.47983 0.37356 0.0
C1828 C 0.63261 0.48453 0.39648 0.0
H1829 H 0.58958 0.44866 0.34874 0.0
H1830 H 0.60686 0.49736 0.35932 0.0
C1831 C 0.64062 0.46174 0.41457 0.0
C1832 C 0.30111 0.85725 0.16035 0.0
C1833 C 0.31317 0.84312 0.136 0.0
H1834 H 0.26358 0.87665 0.17937 0.0
C1835 C 0.29515 0.83595 0.11253 0.0
H1836 H 0.31435 0.8632 0.17884 0.0
C1837 C 0.26603 0.84376 0.1129 0.0
C1838 C 0.25435 0.85907 0.13663 0.0
H1839 H 0.30371 0.82522 0.09341 0.0
H1840 H 0.25286 0.83835 0.09419 0.0
C1841 C 0.27205 0.86528 0.16059 0.0
C1842 C 0.09433 0.0143 0.64365 0.0
C1843 C 0.11101 0.00398 0.62018 0.0
H1844 H 0.07596 0.05081 0.66528 0.0
C1845 C 0.12083 0.02361 0.59918 0.0
H1846 H 0.08622 0.99978 0.66018 0.0
C1847 C 0.1146 0.053 0.60198 0.0
C1848 C 0.09853 0.0634 0.62591 0.0
H1849 H 0.13351 0.01634 0.58074 0.0
H1850 H 0.12315 0.06764 0.5858 0.0
C1851 C 0.08824 0.04361 0.64653 0.0
C1852 C 0.69511 0.36908 0.3065 0.0
C1853 C 0.69234 0.34762 0.32806 0.0
H1854 H 0.72236 0.40148 0.28791 0.0
C1855 C 0.71708 0.338 0.34276 0.0
H1856 H 0.67652 0.37689 0.29457 0.0
C1857 C 0.74339 0.35176 0.33832 0.0
C1858 C 0.74514 0.37542 0.31937 0.0
H1859 H 0.71564 0.32149 0.35937 0.0
H1860 H 0.76171 0.34556 0.35158 0.0
C1861 C 0.72126 0.38328 0.30263 0.0
C1862 C 0.81509 0.62694 0.8974 0.0
C1863 C 0.8221 0.65359 0.88467 0.0
H1864 H 0.7856 0.59154 0.89864 0.0
C1865 C 0.80209 0.66671 0.86587 0.0
H1866 H 0.83013 0.616 0.9117 0.0
C1867 C 0.77664 0.65252 0.85832 0.0
C1868 C 0.77076 0.62499 0.86945 0.0
H1869 H 0.80696 0.68709 0.85557 0.0
H1870 H 0.76234 0.66242 0.84256 0.0
C1871 C 0.78983 0.61263 0.88957 0.0
C1872 C 0.9264 0.61242 0.03989 0.0
C1873 C 0.90342 0.59627 0.05154 0.0
H1874 H 0.94387 0.63383 0.00251 0.0
C1875 C 0.88125 0.58721 0.03288 0.0
H1876 H 0.94382 0.6199 0.05366 0.0
C1877 C 0.88146 0.5951 0.00351 0.0
C1878 C 0.9036 0.61259 0.99234 0.0
H1879 H 0.86323 0.57486 0.04117 0.0
H1880 H 0.86372 0.5883 0.98981 0.0
C1881 C 0.92634 0.62072 0.01065 0.0
C1882 C 0.13524 0.09992 0.79976 0.0
C1883 C 0.14182 0.12705 0.81147 0.0
H1884 H 0.1187 0.07655 0.76306 0.0
C1885 C 0.13625 0.15182 0.79479 0.0
H1886 H 0.13894 0.08052 0.81232 0.0
C1887 C 0.12366 0.14962 0.76734 0.0
C1888 C 0.11702 0.12257 0.75565 0.0
H1889 H 0.14055 0.1731 0.80338 0.0
H1890 H 0.11956 0.16913 0.75508 0.0
C1891 C 0.12333 0.09768 0.77183 0.0
C1892 C 0.66749 0.35524 0.55337 0.0
C1893 C 0.65233 0.38086 0.55917 0.0
H1894 H 0.67711 0.32207 0.52256 0.0
C1895 C 0.63728 0.39425 0.53634 0.0
H1896 H 0.67913 0.34415 0.57049 0.0
C1897 C 0.63634 0.38164 0.50867 0.0
C1898 C 0.64967 0.35487 0.50343 0.0
H1899 H 0.62557 0.41412 0.54008 0.0
H1900 H 0.62515 0.39311 0.49166 0.0
C1901 C 0.66604 0.34236 0.5259 0.0
C1902 C 0.35086 0.89979 0.25531 0.0
C1903 C 0.36679 0.87614 0.2448 0.0
H1904 H 0.32638 0.91772 0.29059 0.0
C1905 C 0.36836 0.85111 0.26179 0.0
H1906 H 0.34899 0.9193 0.24254 0.0
C1907 C 0.35468 0.84991 0.28894 0.0
C1908 C 0.33956 0.87391 0.29997 0.0
H1909 H 0.37999 0.83236 0.25405 0.0
H1910 H 0.35693 0.83045 0.30172 0.0
C1911 C 0.33759 0.89878 0.28269 0.0
C1912 C 0.90286 0.401 0.44984 0.0
C1913 C 0.87705 0.40245 0.43369 0.0
H1914 H 0.92499 0.38312 0.48623 0.0
C1915 C 0.85196 0.3905 0.44581 0.0
H1916 H 0.92271 0.40972 0.44107 0.0
C1917 C 0.85328 0.37538 0.47222 0.0
C1918 C 0.87962 0.37203 0.48717 0.0
H1919 H 0.8318 0.39087 0.43389 0.0
H1920 H 0.83381 0.36536 0.48037 0.0
C1921 C 0.9042 0.38573 0.47604 0.0
C1922 C 0.37731 0.15814 0.22338 0.0
C1923 C 0.38914 0.13236 0.23385 0.0
H1924 H 0.35298 0.17877 0.18996 0.0
C1925 C 0.38255 0.10646 0.21951 0.0
H1926 H 0.38252 0.17855 0.23324 0.0
C1927 C 0.36589 0.10657 0.19421 0.0
C1928 C 0.3555 0.13261 0.18276 0.0
H1929 H 0.39099 0.08613 0.22735 0.0
H1930 H 0.36268 0.08649 0.18265 0.0
C1931 C 0.36027 0.15822 0.19836 0.0
C1932 C 0.65014 0.61112 0.94764 0.0
C1933 C 0.62602 0.59859 0.9342 0.0
H1934 H 0.66569 0.63731 0.98266 0.0
C1935 C 0.59875 0.60171 0.94737 0.0
H1936 H 0.67135 0.6094 0.93785 0.0
C1937 C 0.59542 0.61844 0.9724 0.0
C1938 C 0.61937 0.63162 0.98528 0.0
H1939 H 0.57957 0.59299 0.93723 0.0
H1940 H 0.5739 0.62221 0.9807 0.0
C1941 C 0.64683 0.62745 0.97298 0.0
C1942 C 0.12219 0.85523 0.69496 0.0
C1943 C 0.13543 0.87956 0.68249 0.0
H1944 H 0.10642 0.83504 0.73382 0.0
C1945 C 0.14406 0.90214 0.70083 0.0
H1946 H 0.11506 0.83748 0.68148 0.0
C1947 C 0.1391 0.90064 0.73084 0.0
C1948 C 0.12512 0.87669 0.74314 0.0
H1949 H 0.15414 0.92122 0.69196 0.0
H1950 H 0.14584 0.91852 0.74435 0.0
C1951 C 0.11692 0.8539 0.72494 0.0
C1952 C 0.02483 0.8694 0.58946 0.0
C1953 C 0.0432 0.89205 0.5973 0.0
H1954 H 0.98382 0.84953 0.59514 0.0
C1955 C 0.03285 0.9136 0.61624 0.0
H1956 H 0.03217 0.85242 0.57504 0.0
C1957 C 0.00522 0.91164 0.62832 0.0
C1958 C 0.98738 0.88829 0.62139 0.0
H1959 H 0.04658 0.93122 0.62296 0.0
H1960 H 0.99801 0.92817 0.64332 0.0
C1961 C 0.99721 0.86761 0.60129 0.0
C1962 C 0.91174 0.29974 0.35505 0.0
C1963 C 0.88641 0.31528 0.34874 0.0
H1964 H 0.93009 0.26178 0.37419 0.0
C1965 C 0.85961 0.30219 0.35447 0.0
H1966 H 0.93278 0.30911 0.35126 0.0
C1967 C 0.85814 0.27512 0.36765 0.0
C1968 C 0.88343 0.26047 0.37539 0.0
H1969 H 0.83965 0.31358 0.35064 0.0
H1970 H 0.83721 0.26654 0.37344 0.0
C1971 C 0.91023 0.27273 0.36845 0.0
C1972 C 0.48264 0.10545 0.11133 0.0
C1973 C 0.4912 0.12167 0.13569 0.0
H1974 H 0.451 0.09896 0.0781 0.0
C1975 C 0.47444 0.14552 0.14406 0.0
H1976 H 0.49543 0.08738 0.10383 0.0
C1977 C 0.44904 0.15229 0.12916 0.0
C1978 C 0.43983 0.13534 0.10554 0.0
H1979 H 0.48069 0.15878 0.16242 0.0
H1980 H 0.43598 0.16999 0.13709 0.0
C1981 C 0.45734 0.11233 0.09633 0.0
C1982 C 0.60255 0.71346 0.88491 0.0
C1983 C 0.62726 0.73083 0.88249 0.0
H1984 H 0.5819 0.67402 0.87375 0.0
C1985 C 0.64928 0.72207 0.86331 0.0
H1986 H 0.58484 0.71957 0.89904 0.0
C1987 C 0.6471 0.69618 0.84791 0.0
C1988 C 0.62334 0.67792 0.85204 0.0
H1989 H 0.66893 0.73413 0.861 0.0
H1990 H 0.66487 0.68974 0.83405 0.0
C1991 C 0.60061 0.6874 0.86994 0.0
C1992 C 0.02468 0.15432 0.85695 0.0
C1993 C 0.00622 0.13264 0.86692 0.0
H1994 H 0.0655 0.17497 0.86145 0.0
C1995 C 0.0143 0.11612 0.89123 0.0
H1996 H 0.01877 0.16747 0.83837 0.0
C1997 C 0.04095 0.12046 0.90466 0.0
C1998 C 0.06008 0.1413 0.89391 0.0
H1999 H 0.00051 0.09905 0.89915 0.0
H2000 H 0.04711 0.10654 0.92255 0.0
C2001 C 0.05124 0.15884 0.87049 0.0
C2002 C 0.60206 0.26392 0.61243 0.0
C2003 C 0.62733 0.24719 0.61343 0.0
H2004 H 0.58205 0.30424 0.62306 0.0
C2005 C 0.65142 0.25758 0.6285 0.0
H2006 H 0.58302 0.25605 0.60133 0.0
C2007 C 0.65045 0.28442 0.64203 0.0
C2008 C 0.62565 0.30186 0.64 0.0
H2009 H 0.67088 0.24474 0.63028 0.0
H2010 H 0.66963 0.2919 0.65313 0.0
C2011 C 0.60136 0.29124 0.62522 0.0
C2012 C 0.45922 0.85276 0.37426 0.0
C2013 C 0.47265 0.87979 0.37456 0.0
H2014 H 0.42096 0.82873 0.38329 0.0
C2015 C 0.45859 0.90308 0.38784 0.0
H2016 H 0.4698 0.83444 0.36423 0.0
C2017 C 0.43073 0.8998 0.39893 0.0
C2018 C 0.41636 0.87326 0.39679 0.0
H2019 H 0.46834 0.92423 0.38796 0.0
H2020 H 0.41975 0.91854 0.40741 0.0
C2021 C 0.43142 0.84942 0.38555 0.0
C2022 C 0.85591 0.72649 0.11824 0.0
C2023 C 0.87626 0.74688 0.12723 0.0
H2024 H 0.84428 0.6821 0.11659 0.0
C2025 C 0.90091 0.73754 0.1425 0.0
H2026 H 0.83664 0.73304 0.10664 0.0
C2027 C 0.90536 0.70835 0.14828 0.0
C2028 C 0.88507 0.6879 0.13922 0.0
H2029 H 0.91702 0.75277 0.14979 0.0
H2030 H 0.92481 0.70181 0.15959 0.0
C2031 C 0.86019 0.69732 0.12431 0.0
C2032 C 0.61024 0.04411 0.91599 0.0
C2033 C 0.59498 0.05553 0.89199 0.0
H2034 H 0.63072 0.00712 0.93509 0.0
C2035 C 0.5878 0.03702 0.86893 0.0
H2036 H 0.61644 0.05776 0.93407 0.0
C2037 C 0.59604 0.00805 0.86958 0.0
C2038 C 0.61198 0.99682 0.89314 0.0
H2039 H 0.57629 0.04502 0.85003 0.0
H2040 H 0.59025 0.99455 0.85125 0.0
C2041 C 0.61877 0.01513 0.91649 0.0
C2042 C 0.10472 0.45075 0.12788 0.0
C2043 C 0.09849 0.43499 0.1025 0.0
H2044 H 0.12653 0.48703 0.14616 0.0
C2045 C 0.10614 0.44658 0.07519 0.0
H2046 H 0.0991 0.44258 0.14925 0.0
C2047 C 0.122 0.47204 0.07354 0.0
C2048 C 0.13029 0.48624 0.09912 0.0
H2049 H 0.10171 0.43498 0.05519 0.0
H2050 H 0.12924 0.47962 0.05244 0.0
C2051 C 0.12073 0.47601 0.12619 0.0
C2052 C 0.28712 0.34221 0.88826 0.0
C2053 C 0.30657 0.35235 0.86719 0.0
H2054 H 0.24333 0.33999 0.9027 0.0
C2055 C 0.29562 0.36859 0.84365 0.0
H2056 H 0.29476 0.3299 0.90677 0.0
C2057 C 0.26605 0.37495 0.84157 0.0
C2058 C 0.24668 0.36488 0.86277 0.0
H2059 H 0.31003 0.37725 0.8273 0.0
H2060 H 0.25838 0.38773 0.8234 0.0
C2061 C 0.25759 0.34816 0.88593 0.0
C2062 C 0.3824 0.55038 0.64098 0.0
C2063 C 0.40205 0.56345 0.62175 0.0
H2064 H 0.35425 0.51469 0.64859 0.0
C2065 C 0.41149 0.54815 0.59708 0.0
H2066 H 0.37451 0.56165 0.66008 0.0
C2067 C 0.39971 0.52133 0.59051 0.0
C2068 C 0.37841 0.50944 0.60855 0.0
H2069 H 0.4266 0.55767 0.58189 0.0
H2070 H 0.40613 0.51062 0.57054 0.0
C2071 C 0.37042 0.52373 0.63422 0.0
C2072 C 0.72944 0.14964 0.89389 0.0
C2073 C 0.7398 0.13483 0.86918 0.0
H2074 H 0.6927 0.16633 0.91673 0.0
C2075 C 0.72025 0.12677 0.84739 0.0
H2076 H 0.74399 0.15626 0.91108 0.0
C2077 C 0.69088 0.13302 0.85044 0.0
C2078 C 0.68038 0.14722 0.87551 0.0
H2079 H 0.72758 0.11557 0.82803 0.0
H2080 H 0.67631 0.12578 0.83354 0.0
C2081 C 0.70005 0.15561 0.8971 0.0
C2082 C 0.87725 0.94492 0.3996 0.0
C2083 C 0.89159 0.93215 0.3757 0.0
H2084 H 0.86133 0.9838 0.41929 0.0
C2085 C 0.90138 0.95003 0.35312 0.0
H2086 H 0.86897 0.93182 0.41722 0.0
C2087 C 0.89695 0.97982 0.35437 0.0
C2088 C 0.88226 0.99255 0.37804 0.0
H2089 H 0.91227 0.941 0.33431 0.0
H2090 H 0.90483 0.99288 0.33652 0.0
C2091 C 0.87252 0.97473 0.40069 0.0
C2092 C 0.29364 0.65178 0.65261 0.0
C2093 C 0.3106 0.6447 0.62822 0.0
H2094 H 0.25412 0.64438 0.67566 0.0
C2095 C 0.29941 0.62596 0.60697 0.0
H2096 H 0.30178 0.66598 0.66942 0.0
C2097 C 0.27257 0.61315 0.61097 0.0
C2098 C 0.25625 0.61943 0.63585 0.0
H2099 H 0.31205 0.61982 0.58808 0.0
H2100 H 0.26472 0.59807 0.59481 0.0
C2101 C 0.26656 0.6393 0.65632 0.0
C2102 C 0.21807 0.36326 0.10047 0.0
C2103 C 0.22824 0.36837 0.12878 0.0
H2104 H 0.18395 0.34704 0.07427 0.0
C2105 C 0.21425 0.35567 0.15255 0.0
H2106 H 0.22906 0.37229 0.08174 0.0
C2107 C 0.18863 0.34057 0.14824 0.0
C2108 C 0.17627 0.33888 0.12027 0.0
H2109 H 0.22178 0.35927 0.1746 0.0
H2110 H 0.17721 0.33267 0.16713 0.0
C2111 C 0.19243 0.34835 0.09619 0.0
C2112 C 0.64538 0.88923 0.4578 0.0
C2113 C 0.62078 0.88527 0.44045 0.0
H2114 H 0.66459 0.88404 0.49993 0.0
C2115 C 0.59632 0.87222 0.45296 0.0
H2116 H 0.66468 0.89882 0.44875 0.0
C2117 C 0.59641 0.86325 0.48199 0.0
C2118 C 0.6209 0.8673 0.49936 0.0
H2119 H 0.57728 0.86801 0.44009 0.0
H2120 H 0.5772 0.85328 0.49083 0.0
C2121 C 0.64535 0.88054 0.48703 0.0
C2122 C 0.37657 0.38563 0.68446 0.0
C2123 C 0.36483 0.3614 0.67051 0.0
H2124 H 0.39767 0.40208 0.72248 0.0
C2125 C 0.3638 0.33508 0.68565 0.0
H2126 H 0.37788 0.40616 0.67338 0.0
C2127 C 0.37537 0.33279 0.71365 0.0
C2128 C 0.38793 0.35678 0.72701 0.0
H2129 H 0.35521 0.31591 0.67544 0.0
H2130 H 0.37538 0.31206 0.72443 0.0
C2131 C 0.38818 0.38326 0.7124 0.0
C2132 C 0.88862 0.11813 0.97545 0.0
C2133 C 0.8642 0.13012 0.98891 0.0
H2134 H 0.90577 0.09728 0.93781 0.0
C2135 C 0.83718 0.12691 0.97541 0.0
H2136 H 0.90983 0.12036 0.98477 0.0
C2137 C 0.835 0.11429 0.94792 0.0
C2138 C 0.85988 0.10477 0.93326 0.0
H2139 H 0.81778 0.13532 0.98551 0.0
H2140 H 0.81413 0.11416 0.9373 0.0
C2141 C 0.88635 0.10509 0.94814 0.0
C2142 C 0.14825 0.65984 0.19236 0.0
C2143 C 0.15751 0.63339 0.18052 0.0
H2144 H 0.12344 0.68094 0.22557 0.0
C2145 C 0.15249 0.60802 0.19638 0.0
H2146 H 0.15165 0.67979 0.18067 0.0
C2147 C 0.1361 0.60876 0.2219 0.0
C2148 C 0.12492 0.6349 0.23233 0.0
H2149 H 0.15919 0.58728 0.18794 0.0
H2150 H 0.13121 0.58873 0.23291 0.0
C2151 C 0.132 0.66055 0.21804 0.0
C2152 C 0.6446 0.12068 0.02332 0.0
C2153 C 0.61913 0.1253 0.00725 0.0
H2154 H 0.66325 0.10878 0.0645 0.0
C2155 C 0.59248 0.11983 0.02058 0.0
H2156 H 0.66549 0.12457 0.01352 0.0
C2157 C 0.59127 0.10987 0.0493 0.0
C2158 C 0.61666 0.10574 0.06568 0.0
H2159 H 0.57252 0.12279 0.00867 0.0
H2160 H 0.57025 0.10623 0.05895 0.0
C2161 C 0.64336 0.1114 0.0524 0.0
C2162 C 0.09142 0.34546 0.28254 0.0
C2163 C 0.09747 0.36636 0.26158 0.0
H2164 H 0.09853 0.33082 0.32593 0.0
C2165 C 0.11648 0.38889 0.26815 0.0
H2166 H 0.07704 0.32777 0.27759 0.0
C2167 C 0.12879 0.39089 0.29589 0.0
C2168 C 0.12259 0.37005 0.31714 0.0
H2169 H 0.12151 0.40505 0.25192 0.0
H2170 H 0.14278 0.40889 0.30081 0.0
C2171 C 0.10408 0.3471 0.31 0.0
C2172 C 0.85386 0.90503 0.55005 0.0
C2173 C 0.87886 0.90978 0.56666 0.0
H2174 H 0.83559 0.8838 0.51303 0.0
C2175 C 0.90581 0.90149 0.55511 0.0
H2176 H 0.83279 0.91119 0.55819 0.0
C2177 C 0.90729 0.88551 0.52938 0.0
C2178 C 0.88191 0.87797 0.51478 0.0
H2179 H 0.9255 0.90495 0.56732 0.0
H2180 H 0.92798 0.87724 0.52223 0.0
C2181 C 0.85538 0.88894 0.52446 0.0
C2182 C 0.355 0.60606 0.7567 0.0
C2183 C 0.37289 0.62773 0.74516 0.0
H2184 H 0.33673 0.58708 0.79521 0.0
C2185 C 0.3858 0.64744 0.76415 0.0
H2186 H 0.34478 0.59047 0.74255 0.0
C2187 C 0.3809 0.64564 0.79405 0.0
C2188 C 0.363 0.62409 0.80569 0.0
H2189 H 0.39976 0.66427 0.75598 0.0
H2190 H 0.39199 0.66065 0.80812 0.0
C2191 C 0.35027 0.60412 0.78678 0.0
C2192 C 0.49336 0.5861 0.87602 0.0
C2193 C 0.50836 0.61079 0.86716 0.0
H2194 H 0.45437 0.56905 0.89397 0.0
C2195 C 0.49611 0.63799 0.87263 0.0
H2196 H 0.50245 0.56487 0.87259 0.0
C2197 C 0.46893 0.64046 0.88546 0.0
C2198 C 0.45315 0.61577 0.89283 0.0
H2199 H 0.50736 0.65752 0.86668 0.0
H2200 H 0.45972 0.66174 0.88815 0.0
C2201 C 0.46598 0.58855 0.88864 0.0
C2202 C 0.62757 0.23338 0.14546 0.0
C2203 C 0.60858 0.24201 0.12317 0.0
H2204 H 0.63952 0.20083 0.17601 0.0
C2205 C 0.58472 0.22425 0.11706 0.0
H2206 H 0.64626 0.24574 0.15123 0.0
C2207 C 0.58119 0.19784 0.13113 0.0
C2208 C 0.60148 0.18839 0.15175 0.0
H2209 H 0.5691 0.2302 0.10057 0.0
H2210 H 0.56357 0.1841 0.12441 0.0
C2211 C 0.62381 0.20714 0.15981 0.0
C2212 C 0.00577 0.36312 0.41173 0.0
C2213 C 0.99579 0.38694 0.39577 0.0
H2214 H 0.04175 0.34315 0.43275 0.0
C2215 C 0.01317 0.41141 0.39336 0.0
H2216 H 0.99247 0.34417 0.41442 0.0
C2217 C 0.04102 0.41119 0.40466 0.0
C2218 C 0.05223 0.38617 0.41782 0.0
H2219 H 0.00561 0.43037 0.38192 0.0
H2220 H 0.05445 0.42987 0.40094 0.0
C2221 C 0.03386 0.36266 0.42257 0.0
C2222 C 0.84904 0.80533 0.62586 0.0
C2223 C 0.87058 0.81537 0.64502 0.0
H2224 H 0.83111 0.76937 0.60285 0.0
C2225 C 0.89094 0.79568 0.65577 0.0
H2226 H 0.83327 0.81999 0.6167 0.0
C2227 C 0.88961 0.76662 0.64781 0.0
C2228 C 0.86817 0.75665 0.62854 0.0
H2229 H 0.90792 0.80269 0.67033 0.0
H2230 H 0.90555 0.75198 0.65668 0.0
C2231 C 0.84795 0.77636 0.61758 0.0
C2232 C 0.48522 0.40069 0.57624 0.0
C2233 C 0.49703 0.38296 0.59786 0.0
H2234 H 0.44869 0.4089 0.54889 0.0
C2235 C 0.48372 0.3568 0.60464 0.0
H2236 H 0.4955 0.42083 0.57057 0.0
C2237 C 0.45748 0.34956 0.59181 0.0
C2238 C 0.44375 0.36887 0.57269 0.0
H2239 H 0.49288 0.34266 0.62101 0.0
H2240 H 0.44674 0.33021 0.59917 0.0
C2241 C 0.45863 0.39373 0.56375 0.0
C2242 C 0.87798 0.24602 0.85296 0.0
C2243 C 0.85326 0.25821 0.86583 0.0
H2244 H 0.89783 0.20824 0.83527 0.0
C2245 C 0.82839 0.24137 0.86894 0.0
H2246 H 0.89744 0.25856 0.85011 0.0
C2247 C 0.82842 0.21269 0.85973 0.0
C2248 C 0.85348 0.20022 0.84773 0.0
H2249 H 0.80894 0.25033 0.87842 0.0
H2250 H 0.80913 0.20002 0.86309 0.0
C2251 C 0.87817 0.21727 0.84423 0.0
C2252 C 0.0608 0.60246 0.1109 0.0
C2253 C 0.07206 0.6253 0.09422 0.0
H2254 H 0.02418 0.58504 0.13325 0.0
C2255 C 0.05365 0.64804 0.08639 0.0
H2256 H 0.07443 0.58474 0.11771 0.0
C2257 C 0.02484 0.64819 0.09543 0.0
C2258 C 0.01386 0.62578 0.1128 0.0
H2259 H 0.06163 0.66607 0.07381 0.0
H2260 H 0.01129 0.66616 0.08915 0.0
C2261 C 0.03208 0.60278 0.12021 0.0
C2262 C 0.59578 0.75961 0.35074 0.0
C2263 C 0.62027 0.74686 0.36338 0.0
H2264 H 0.577 0.79804 0.33321 0.0
C2265 C 0.64607 0.76241 0.36478 0.0
H2266 H 0.57571 0.74784 0.34907 0.0
C2267 C 0.6471 0.79068 0.35479 0.0
C2268 C 0.62212 0.80421 0.34391 0.0
H2269 H 0.66542 0.75283 0.37382 0.0
H2270 H 0.66712 0.80238 0.35724 0.0
C2271 C 0.5966 0.78819 0.34135 0.0
C2272 C 0.86452 0.43856 0.59258 0.0
C2273 C 0.88237 0.43354 0.61697 0.0
H2274 H 0.83893 0.46893 0.56865 0.0
C2275 C 0.88956 0.45684 0.63508 0.0
H2276 H 0.85833 0.42115 0.57818 0.0
C2277 C 0.8787 0.4844 0.62913 0.0
C2278 C 0.86009 0.4889 0.60536 0.0
H2279 H 0.90308 0.45368 0.65406 0.0
H2280 H 0.88411 0.50202 0.64357 0.0
C2281 C 0.85321 0.46585 0.5871 0.0
C2282 C 0.38428 0.01964 0.36066 0.0
C2283 C 0.37066 0.01192 0.38684 0.0
H2284 H 0.41257 0.0489 0.33918 0.0
C2285 C 0.37897 0.02523 0.4129 0.0
H2286 H 0.3787 0.00905 0.34038 0.0
C2287 C 0.39872 0.04784 0.41235 0.0
C2288 C 0.41021 0.05756 0.38566 0.0
H2289 H 0.36885 0.01951 0.43336 0.0
H2290 H 0.403 0.05931 0.43246 0.0
C2291 C 0.40414 0.04208 0.36009 0.0
C2292 C 0.22291 0.11473 0.67204 0.0
C2293 C 0.24364 0.12461 0.65231 0.0
H2294 H 0.17935 0.11746 0.68677 0.0
C2295 C 0.2367 0.14725 0.63326 0.0
H2296 H 0.22791 0.09728 0.68688 0.0
C2297 C 0.20864 0.15851 0.63261 0.0
C2298 C 0.18736 0.14768 0.65148 0.0
H2299 H 0.25248 0.15504 0.61775 0.0
H2300 H 0.20329 0.1747 0.61651 0.0
C2301 C 0.19518 0.12648 0.672 0.0
C2302 C 0.08166 0.95711 0.89208 0.0
C2303 C 0.09388 0.94201 0.86852 0.0
H2304 H 0.08456 0.99401 0.92009 0.0
C2305 C 0.11645 0.95479 0.85265 0.0
H2306 H 0.06437 0.94771 0.90478 0.0
C2307 C 0.12847 0.98065 0.86198 0.0
C2308 C 0.11757 0.9946 0.88673 0.0
H2309 H 0.12659 0.94364 0.83459 0.0
H2310 H 0.14689 0.98929 0.85039 0.0
C2311 C 0.09336 0.98335 0.90104 0.0
C2312 C 0.79094 0.32078 0.62409 0.0
C2313 C 0.80928 0.33333 0.6448 0.0
H2314 H 0.74769 0.3161 0.6088 0.0
C2315 C 0.7971 0.34899 0.6681 0.0
H2316 H 0.79962 0.30858 0.60596 0.0
C2317 C 0.76742 0.35382 0.66941 0.0
C2318 C 0.74931 0.34264 0.64776 0.0
H2319 H 0.8106 0.35897 0.68449 0.0
H2320 H 0.75878 0.36696 0.68688 0.0
C2321 C 0.7612 0.32522 0.62569 0.0
C2322 C 0.62132 0.55507 0.10079 0.0
C2323 C 0.60623 0.56701 0.12462 0.0
H2324 H 0.63764 0.51687 0.08026 0.0
C2325 C 0.59544 0.5485 0.14615 0.0
H2326 H 0.63051 0.56876 0.08413 0.0
C2327 C 0.59962 0.51878 0.14393 0.0
C2328 C 0.61505 0.50688 0.12033 0.0
H2329 H 0.58397 0.55699 0.16487 0.0
H2330 H 0.59101 0.50515 0.16097 0.0
C2331 C 0.62579 0.52535 0.09874 0.0
C2332 C 0.23857 0.87441 0.84438 0.0
C2333 C 0.24146 0.90394 0.85095 0.0
H2334 H 0.20993 0.83821 0.84119 0.0
C2335 C 0.21686 0.91943 0.85964 0.0
H2336 H 0.2569 0.86118 0.83897 0.0
C2337 C 0.19037 0.90575 0.8624 0.0
C2338 C 0.18768 0.87641 0.85592 0.0
H2339 H 0.21815 0.94211 0.86495 0.0
H2340 H 0.17184 0.91822 0.86946 0.0
C2341 C 0.21171 0.86091 0.84624 0.0
C2342 C 0.31238 0.13928 0.39491 0.0
C2343 C 0.32962 0.14289 0.36997 0.0
H2344 H 0.27353 0.12154 0.41256 0.0
C2345 C 0.31843 0.13494 0.34258 0.0
H2346 H 0.32033 0.14503 0.41633 0.0
C2347 C 0.29157 0.12152 0.3405 0.0
C2348 C 0.27564 0.11577 0.36576 0.0
H2349 H 0.33121 0.13731 0.32297 0.0
H2350 H 0.28418 0.11402 0.31943 0.0
C2351 C 0.28575 0.12553 0.39283 0.0
C2352 C 0.41717 0.10838 0.53876 0.0
C2353 C 0.39183 0.09813 0.55217 0.0
H2354 H 0.43628 0.12719 0.50086 0.0
C2355 C 0.36637 0.09664 0.53567 0.0
H2356 H 0.43727 0.10979 0.5507 0.0
C2357 C 0.36596 0.10659 0.50691 0.0
C2358 C 0.39086 0.11856 0.49434 0.0
H2359 H 0.34648 0.08901 0.54532 0.0
H2360 H 0.3459 0.10571 0.49483 0.0
C2361 C 0.41659 0.11881 0.51029 0.0
C2362 C 0.65749 0.60889 0.29272 0.0
C2363 C 0.65137 0.63334 0.30965 0.0
H2364 H 0.65496 0.58913 0.25063 0.0
C2365 C 0.63921 0.65769 0.29607 0.0
H2366 H 0.66673 0.58979 0.30254 0.0
C2367 C 0.6318 0.65703 0.26666 0.0
C2368 C 0.6369 0.63224 0.25004 0.0
H2369 H 0.63415 0.67693 0.3084 0.0
H2370 H 0.62187 0.67589 0.25702 0.0
C2371 C 0.65049 0.60843 0.26309 0.0
C2372 C 0.15991 0.89094 0.05235 0.0
C2373 C 0.13658 0.90326 0.06752 0.0
H2374 H 0.17395 0.86965 0.01342 0.0
C2375 C 0.11063 0.90837 0.0525 0.0
H2376 H 0.18023 0.88666 0.06319 0.0
C2377 C 0.10702 0.89835 0.02404 0.0
C2378 C 0.12943 0.88343 0.01007 0.0
H2379 H 0.0924 0.91813 0.06345 0.0
H2380 H 0.08607 0.90049 0.0138 0.0
C2381 C 0.15624 0.88081 0.02397 0.0
C2382 C 0.85837 0.40214 0.76322 0.0
C2383 C 0.87009 0.3772 0.75043 0.0
H2384 H 0.83931 0.42125 0.80124 0.0
C2385 C 0.87009 0.35146 0.7664 0.0
H2386 H 0.85788 0.42226 0.7513 0.0
C2387 C 0.85853 0.35067 0.79458 0.0
C2388 C 0.8473 0.37576 0.80765 0.0
H2389 H 0.87854 0.33182 0.75693 0.0
H2390 H 0.85921 0.33055 0.80646 0.0
C2391 C 0.84746 0.40153 0.79168 0.0
C2392 C 0.36873 0.90106 0.95129 0.0
C2393 C 0.39406 0.90629 0.93536 0.0
H2394 H 0.34958 0.87922 0.98754 0.0
C2395 C 0.4206 0.89651 0.94666 0.0
H2396 H 0.34792 0.90802 0.94314 0.0
C2397 C 0.42147 0.87983 0.97201 0.0
C2398 C 0.39584 0.87263 0.98641 0.0
H2399 H 0.44051 0.90003 0.9348 0.0
H2400 H 0.44193 0.87111 0.97921 0.0
C2401 C 0.3696 0.88414 0.97644 0.0
C2402 C 0.86653 0.62252 0.72193 0.0
C2403 C 0.86392 0.64925 0.73576 0.0
H2404 H 0.85677 0.59748 0.6843 0.0
C2405 C 0.84508 0.67004 0.72447 0.0
H2406 H 0.88061 0.60604 0.73074 0.0
C2407 C 0.83141 0.66529 0.6978 0.0
C2408 C 0.83644 0.63964 0.68227 0.0
H2409 H 0.84264 0.69071 0.73515 0.0
H2410 H 0.8191 0.68268 0.68814 0.0
C2411 C 0.85247 0.61752 0.69559 0.0
C2412 C 0.14931 0.09986 0.4604 0.0
C2413 C 0.12459 0.09279 0.44422 0.0
H2414 H 0.16635 0.12252 0.49717 0.0
C2415 C 0.09728 0.1003 0.45543 0.0
H2416 H 0.17066 0.09448 0.45245 0.0
C2417 C 0.09492 0.11697 0.48061 0.0
C2418 C 0.11974 0.12581 0.49548 0.0
H2419 H 0.07775 0.09536 0.4435 0.0
H2420 H 0.0738 0.12445 0.48719 0.0
C2421 C 0.14688 0.11634 0.48573 0.0
C2422 C 0.63123 0.40675 0.20317 0.0
C2423 C 0.62534 0.38322 0.18492 0.0
H2424 H 0.62861 0.42456 0.24607 0.0
C2425 C 0.61138 0.35904 0.1969 0.0
H2426 H 0.64165 0.42584 0.19469 0.0
C2427 C 0.60341 0.3585 0.22636 0.0
C2428 C 0.60942 0.38203 0.24456 0.0
H2429 H 0.60618 0.34063 0.18343 0.0
H2430 H 0.59298 0.33948 0.23495 0.0
C2431 C 0.62347 0.40612 0.23261 0.0
C2432 C 0.52639 0.3728 0.07952 0.0
C2433 C 0.54414 0.39541 0.08886 0.0
H2434 H 0.48491 0.35315 0.08165 0.0
C2435 C 0.53211 0.41744 0.10614 0.0
H2436 H 0.535 0.35549 0.06626 0.0
C2437 C 0.50346 0.41581 0.11551 0.0
C2438 C 0.48626 0.39232 0.10747 0.0
H2439 H 0.54526 0.43508 0.11392 0.0
H2440 H 0.49502 0.43257 0.12958 0.0
C2441 C 0.49775 0.37133 0.08864 0.0
C2442 C 0.34779 0.79165 0.88022 0.0
C2443 C 0.36741 0.77014 0.87225 0.0
H2444 H 0.335 0.83551 0.87563 0.0
C2445 C 0.38843 0.77601 0.85102 0.0
H2446 H 0.33138 0.78744 0.8965 0.0
C2447 C 0.39101 0.80374 0.83936 0.0
C2448 C 0.37218 0.8258 0.84833 0.0
H2449 H 0.40379 0.75957 0.84464 0.0
H2450 H 0.40851 0.80822 0.82438 0.0
C2451 C 0.34982 0.81908 0.86803 0.0
C2452 C 0.94694 0.65359 0.62342 0.0
C2453 C 0.93391 0.63209 0.60639 0.0
H2454 H 0.98304 0.66585 0.64952 0.0
C2455 C 0.94895 0.60615 0.60179 0.0
H2456 H 0.93591 0.67372 0.62773 0.0
C2457 C 0.97585 0.6014 0.61473 0.0
C2458 C 0.98843 0.62258 0.63248 0.0
H2459 H 0.93971 0.58923 0.5886 0.0
H2460 H 0.98678 0.58114 0.61079 0.0
C2461 C 0.97382 0.64886 0.63634 0.0
C2462 C 0.15542 0.21807 0.37014 0.0
C2463 C 0.12938 0.23102 0.37857 0.0
H2464 H 0.17592 0.18046 0.35298 0.0
C2465 C 0.10329 0.21714 0.37225 0.0
H2466 H 0.17584 0.22821 0.37511 0.0
C2467 C 0.10324 0.18992 0.35934 0.0
C2468 C 0.12938 0.17574 0.35309 0.0
H2469 H 0.0829 0.22687 0.37838 0.0
H2470 H 0.08274 0.17919 0.35637 0.0
C2471 C 0.15542 0.19067 0.35747 0.0
C2472 C 0.54514 0.6004 0.37785 0.0
C2473 C 0.55607 0.62645 0.38894 0.0
H2474 H 0.5123 0.57981 0.35243 0.0
C2475 C 0.53946 0.65161 0.38552 0.0
H2476 H 0.55734 0.58068 0.37973 0.0
C2477 C 0.51386 0.6511 0.36949 0.0
C2478 C 0.50395 0.62539 0.35698 0.0
H2479 H 0.54707 0.67211 0.39364 0.0
H2480 H 0.50215 0.67105 0.36622 0.0
C2481 C 0.5193 0.59987 0.36206 0.0
C2482 C 0.11165 0.78435 0.14377 0.0
C2483 C 0.13694 0.80086 0.14316 0.0
H2484 H 0.09176 0.74419 0.13331 0.0
C2485 C 0.16222 0.78877 0.1312 0.0
H2486 H 0.09181 0.79312 0.15259 0.0
C2487 C 0.16201 0.76105 0.11945 0.0
C2488 C 0.13667 0.74468 0.1199 0.0
H2489 H 0.18202 0.80102 0.13005 0.0
H2490 H 0.18174 0.75236 0.1103 0.0
C2491 C 0.11159 0.75644 0.13248 0.0
C2492 C 0.96888 0.40234 0.90221 0.0
C2493 C 0.9802 0.38394 0.88076 0.0
H2494 H 0.93227 0.41303 0.92874 0.0
C2495 C 0.96456 0.35945 0.87263 0.0
H2496 H 0.98061 0.42139 0.90881 0.0
C2497 C 0.9373 0.35426 0.88448 0.0
C2498 C 0.92475 0.37396 0.90409 0.0
H2499 H 0.97302 0.3448 0.85632 0.0
H2500 H 0.92517 0.33606 0.87636 0.0
C2501 C 0.9413 0.39747 0.91368 0.0
C2502 C 0.40757 0.21234 0.63793 0.0
C2503 C 0.3858 0.19243 0.63159 0.0
H2504 H 0.42238 0.2556 0.63355 0.0
C2505 C 0.3617 0.2015 0.61524 0.0
H2506 H 0.42652 0.20595 0.65014 0.0
C2507 C 0.3595 0.2298 0.60529 0.0
C2508 C 0.38126 0.24968 0.61165 0.0
H2509 H 0.34489 0.18651 0.60925 0.0
H2510 H 0.34073 0.2361 0.59274 0.0
C2511 C 0.40523 0.24072 0.62822 0.0
C2512 C 0.11999 0.51348 0.40506 0.0
C2513 C 0.11189 0.49513 0.3822 0.0
H2514 H 0.11837 0.55606 0.42279 0.0
C2515 C 0.09455 0.50622 0.35961 0.0
H2516 H 0.13301 0.50553 0.42295 0.0
C2517 C 0.08615 0.53514 0.35943 0.0
C2518 C 0.0945 0.55365 0.38208 0.0
H2519 H 0.08776 0.49262 0.34171 0.0
H2520 H 0.07353 0.5431 0.34126 0.0
C2521 C 0.11121 0.54236 0.40512 0.0
C2522 C 0.60928 0.9513 0.63598 0.0
C2523 C 0.60466 0.93467 0.61082 0.0
H2524 H 0.62906 0.9888 0.65412 0.0
C2525 C 0.61369 0.94542 0.5836 0.0
H2526 H 0.60264 0.94371 0.65728 0.0
C2527 C 0.629 0.97117 0.58194 0.0
C2528 C 0.63535 0.9865 0.60741 0.0
H2529 H 0.61056 0.93309 0.5638 0.0
H2530 H 0.63708 0.97832 0.561 0.0
C2531 C 0.62474 0.97689 0.63429 0.0
C2532 C 0.78791 0.85999 0.34399 0.0
C2533 C 0.79957 0.84442 0.36764 0.0
H2534 H 0.75059 0.88049 0.32545 0.0
C2535 C 0.78119 0.83668 0.39066 0.0
H2536 H 0.80148 0.86663 0.32598 0.0
C2537 C 0.75205 0.8446 0.39024 0.0
C2538 C 0.74058 0.86084 0.36702 0.0
H2539 H 0.78941 0.82492 0.40928 0.0
H2540 H 0.73859 0.83834 0.40847 0.0
C2541 C 0.7588 0.8683 0.34379 0.0
C2542 C 0.87032 0.02024 0.14605 0.0
C2543 C 0.86023 0.0104 0.11901 0.0
H2544 H 0.88962 0.05476 0.16972 0.0
C2545 C 0.86448 0.02709 0.094 0.0
H2546 H 0.86747 0.00739 0.16555 0.0
C2547 C 0.87712 0.0542 0.0963 0.0
C2548 C 0.88583 0.06485 0.12365 0.0
H2549 H 0.85674 0.01982 0.07297 0.0
H2550 H 0.87871 0.0674 0.07691 0.0
C2551 C 0.8833 0.04715 0.14833 0.0
C2552 C 0.22991 0.64494 0.39002 0.0
C2553 C 0.24088 0.63021 0.36551 0.0
H2554 H 0.19265 0.66194 0.41188 0.0
C2555 C 0.22175 0.6223 0.34325 0.0
H2556 H 0.24409 0.65146 0.40757 0.0
C2557 C 0.19233 0.62878 0.34553 0.0
C2558 C 0.18123 0.64312 0.37025 0.0
H2559 H 0.22948 0.61115 0.32401 0.0
H2560 H 0.17819 0.62176 0.32816 0.0
C2561 C 0.20043 0.65116 0.39245 0.0
C2562 C 0.40353 0.48632 0.85453 0.0
C2563 C 0.38857 0.49991 0.87748 0.0
H2564 H 0.41995 0.44686 0.83684 0.0
C2565 C 0.38025 0.4834 0.90167 0.0
H2566 H 0.41042 0.49845 0.83561 0.0
C2567 C 0.38628 0.45388 0.90263 0.0
C2568 C 0.4004 0.44008 0.87922 0.0
H2569 H 0.36901 0.49325 0.91984 0.0
H2570 H 0.37893 0.44171 0.92134 0.0
C2571 C 0.4092 0.45675 0.85529 0.0
C2572 C 0.75908 0.15346 0.1398 0.0
C2573 C 0.75306 0.1377 0.16515 0.0
H2574 H 0.7913 0.17492 0.11464 0.0
C2575 C 0.77386 0.13536 0.18706 0.0
H2576 H 0.74317 0.15531 0.1226 0.0
C2577 C 0.80119 0.147 0.18284 0.0
C2578 C 0.8083 0.1603 0.15619 0.0
H2579 H 0.76938 0.12342 0.20683 0.0
H2580 H 0.81736 0.14334 0.19948 0.0
C2581 C 0.78655 0.16477 0.13534 0.0
C2582 C 0.69756 0.84799 0.60246 0.0
C2583 C 0.6818 0.8372 0.62621 0.0
H2584 H 0.73365 0.87322 0.5889 0.0
C2585 C 0.6944 0.83759 0.65408 0.0
H2586 H 0.68873 0.84772 0.5806 0.0
C2587 C 0.71973 0.853 0.65896 0.0
C2588 C 0.7333 0.86712 0.63574 0.0
H2589 H 0.68326 0.82845 0.67255 0.0
H2590 H 0.72713 0.85582 0.68114 0.0
C2591 C 0.72302 0.86309 0.60727 0.0
C2592 C 0.9942 0.22369 0.10076 0.0
C2593 C 0.97186 0.2261 0.1213 0.0
H2594 H 0.03149 0.24348 0.0818 0.0
C2595 C 0.96891 0.25143 0.13753 0.0
H2596 H 0.99663 0.20426 0.08793 0.0
C2597 C 0.98812 0.2741 0.13337 0.0
C2598 C 0.011 0.27158 0.11338 0.0
H2599 H 0.95148 0.25384 0.15309 0.0
H2600 H 0.98516 0.2936 0.14595 0.0
C2601 C 0.01381 0.24622 0.09698 0.0
C2602 C 0.98818 0.7181 0.35723 0.0
C2603 C 0.01222 0.72077 0.37587 0.0
H2604 H 0.94853 0.73664 0.34151 0.0
C2605 C 0.01379 0.74551 0.39358 0.0
H2606 H 0.98575 0.69919 0.34368 0.0
C2607 C 0.99208 0.76677 0.3927 0.0
C2608 C 0.96824 0.76414 0.37386 0.0
H2609 H 0.03208 0.74873 0.40786 0.0
H2610 H 0.99414 0.78554 0.40653 0.0
C2611 C 0.96669 0.73956 0.35604 0.0
C2612 C 0.49106 0.77439 0.60424 0.0
C2613 C 0.51518 0.7735 0.62259 0.0
H2614 H 0.45144 0.7543 0.59181 0.0
C2615 C 0.51816 0.75077 0.64256 0.0
H2616 H 0.48827 0.79182 0.58881 0.0
C2617 C 0.49711 0.72939 0.64438 0.0
C2618 C 0.47294 0.73034 0.62605 0.0
H2619 H 0.53691 0.74944 0.65659 0.0
H2620 H 0.50003 0.71184 0.65963 0.0
C2621 C 0.47006 0.753 0.606 0.0
C2622 C 0.47005 0.24678 0.90541 0.0
C2623 C 0.47273 0.26999 0.88579 0.0
H2624 H 0.48795 0.207 0.9215 0.0
C2625 C 0.49725 0.27051 0.86759 0.0
H2626 H 0.45143 0.24528 0.91955 0.0
C2627 C 0.51785 0.24823 0.8683 0.0
C2628 C 0.51493 0.22489 0.88759 0.0
H2629 H 0.50063 0.28826 0.85272 0.0
H2630 H 0.53625 0.24935 0.85379 0.0
C2631 C 0.49096 0.22468 0.90644 0.0
C2632 C 0.11712 0.9596 0.26255 0.0
C2633 C 0.13586 0.96156 0.23853 0.0
H2634 H 0.10135 0.97955 0.30167 0.0
C2635 C 0.15328 0.98606 0.23564 0.0
H2636 H 0.10355 0.94087 0.26537 0.0
C2637 C 0.15193 0.0082 0.25631 0.0
C2638 C 0.13322 0.00622 0.28034 0.0
H2639 H 0.1675 0.98841 0.21705 0.0
H2640 H 0.16526 0.02707 0.25331 0.0
C2641 C 0.11579 0.98173 0.28324 0.0
C2642 C 0.2245 0.89528 0.46385 0.0
C2643 C 0.24794 0.87607 0.46605 0.0
H2644 H 0.18646 0.91271 0.48412 0.0
C2645 C 0.25042 0.85914 0.49132 0.0
H2646 H 0.22176 0.90836 0.4445 0.0
C2647 C 0.23006 0.86149 0.51387 0.0
C2648 C 0.20682 0.88088 0.51172 0.0
H2649 H 0.26841 0.84449 0.49396 0.0
H2650 H 0.23263 0.8483 0.53317 0.0
C2651 C 0.20432 0.89784 0.48652 0.0
C2652 C 0.41411 0.0074 0.72121 0.0
C2653 C 0.40012 0.03391 0.72539 0.0
H2654 H 0.42341 0.9656 0.7388 0.0
C2655 C 0.38654 0.03942 0.75217 0.0
H2656 H 0.42468 0.00267 0.70068 0.0
C2657 C 0.38614 0.01847 0.77408 0.0
C2658 C 0.39901 0.99142 0.76953 0.0
H2659 H 0.37587 0.05985 0.75599 0.0
H2660 H 0.37541 0.02331 0.79449 0.0
C2661 C 0.41344 0.98627 0.74303 0.0
C2662 C 0.24033 0.16866 0.98523 0.0
C2663 C 0.22861 0.14261 0.97499 0.0
H2664 H 0.2732 0.18942 0.00978 0.0
C2665 C 0.2408 0.11693 0.9855 0.0
H2666 H 0.23142 0.18914 0.97882 0.0
C2667 C 0.2625 0.1172 0.00655 0.0
C2668 C 0.27513 0.14309 0.01591 0.0
H2669 H 0.23388 0.09624 0.97765 0.0
H2670 H 0.26891 0.09675 0.01545 0.0
C2671 C 0.26396 0.16886 0.00433 0.0
C2672 C 0.7127 0.40104 0.99475 0.0
C2673 C 0.71271 0.38172 0.01833 0.0
H2674 H 0.73278 0.41414 0.95475 0.0
C2675 C 0.73436 0.36043 0.01932 0.0
H2676 H 0.69613 0.41741 0.99303 0.0
C2677 C 0.75536 0.35845 0.99725 0.0
C2678 C 0.75533 0.3778 0.97368 0.0
H2679 H 0.73523 0.34543 0.03736 0.0
H2680 H 0.77196 0.34213 -0.00101 0.0
C2681 C 0.73369 0.39909 0.97275 0.0
C2682 C 0.88092 0.52769 0.24609 0.0
C2683 C 0.90081 0.52567 0.22306 0.0
H2684 H 0.86445 0.50887 0.28536 0.0
C2685 C 0.92048 0.50259 0.22286 0.0
H2686 H 0.86583 0.54549 0.24709 0.0
C2687 C 0.91949 0.48136 0.24467 0.0
C2688 C 0.89894 0.48292 0.2672 0.0
H2689 H 0.93599 0.50044 0.20532 0.0
H2690 H 0.93421 0.46329 0.24337 0.0
C2691 C 0.8801 0.50667 0.26795 0.0
C2692 C 0.72256 0.65867 0.49997 0.0
C2693 C 0.72485 0.64378 0.4734 0.0
H2694 H 0.74338 0.67036 0.54011 0.0
C2695 C 0.75131 0.63093 0.46598 0.0
H2696 H 0.70238 0.66876 0.50616 0.0
C2697 C 0.77476 0.63216 0.48514 0.0
C2698 C 0.77213 0.64587 0.5123 0.0
H2699 H 0.75379 0.61976 0.44539 0.0
H2700 H 0.7949 0.62204 0.47886 0.0
C2701 C 0.74599 0.65965 0.5193 0.0
C2702 C 0.6059 0.50252 0.75317 0.0
C2703 C 0.63094 0.51232 0.76733 0.0
H2704 H 0.58692 0.4722 0.72435 0.0
C2705 C 0.65735 0.49957 0.75923 0.0
H2706 H 0.58511 0.51203 0.75751 0.0
C2707 C 0.65879 0.47885 0.73709 0.0
C2708 C 0.63363 0.46821 0.72381 0.0
H2709 H 0.67721 0.50522 0.76996 0.0
H2710 H 0.67987 0.47144 0.73055 0.0
C2711 C 0.6071 0.48011 0.73277 0.0
C2712 C 0.01159 0.72817 0.85511 0.0
C2713 C 0.98857 0.73186 0.87465 0.0
H2714 H 0.05095 0.74558 0.83804 0.0
C2715 C 0.98686 0.757 0.89139 0.0
H2716 H 0.01307 0.70895 0.84181 0.0
C2717 C 0.00789 0.77829 0.88853 0.0
C2718 C 0.03148 0.77431 0.86964 0.0
H2719 H 0.96889 0.76047 0.9061 0.0
H2720 H 0.00562 0.79796 0.90099 0.0
C2721 C 0.03304 0.74914 0.85279 0.0
C2722 C 0.00452 0.27782 0.62093 0.0
C2723 C 0.97908 0.27499 0.63729 0.0
H2724 H 0.04558 0.25971 0.60952 0.0
C2725 C 0.97542 0.25027 0.65448 0.0
H2726 H 0.00793 0.29676 0.60762 0.0
C2727 C 0.99652 0.22851 0.6548 0.0
C2728 C 0.02213 0.23125 0.63848 0.0
H2729 H 0.95588 0.24745 0.66712 0.0
H2730 H 0.99246 0.2093 0.66745 0.0
C2731 C 0.02594 0.25642 0.62182 0.0
C2732 C 0.48921 0.24874 0.3889 0.0
C2733 C 0.49428 0.22176 0.37603 0.0
H2734 H 0.50533 0.29147 0.39617 0.0
C2735 C 0.52028 0.217 0.36099 0.0
H2736 H 0.46926 0.25301 0.40041 0.0
C2737 C 0.54053 0.23902 0.3582 0.0
C2738 C 0.53519 0.266 0.37067 0.0
H2739 H 0.52487 0.19624 0.35126 0.0
H2740 H 0.56035 0.23502 0.34634 0.0
C2741 C 0.50961 0.27072 0.38629 0.0
C2742 C 0.50628 0.73062 0.15635 0.0
C2743 C 0.52997 0.73338 0.1373 0.0
H2744 H 0.46594 0.74837 0.17125 0.0
C2745 C 0.53107 0.75765 0.119 0.0
H2746 H 0.50444 0.71207 0.17047 0.0
C2747 C 0.5087 0.77803 0.11901 0.0
C2748 C 0.4849 0.77501 0.13773 0.0
H2749 H 0.54924 0.7609 0.10455 0.0
H2750 H 0.50998 0.79622 0.1043 0.0
C2751 C 0.48414 0.75134 0.15675 0.0
C2752 C 0.84547 0.00569 0.77419 0.0
C2753 C 0.86256 0.03022 0.76981 0.0
H2754 H 0.8348 0.96311 0.75959 0.0
C2755 C 0.88253 0.03025 0.7467 0.0
H2756 H 0.83034 0.00475 0.79215 0.0
C2757 C 0.8853 0.00635 0.72831 0.0
C2758 C 0.86805 0.98194 0.73255 0.0
H2759 H 0.89585 0.04894 0.74266 0.0
H2760 H 0.90047 0.00723 0.71037 0.0
C2761 C 0.8482 0.98179 0.75573 0.0
C2762 C 0.76137 0.14026 0.47285 0.0
C2763 C 0.78486 0.12155 0.47738 0.0
H2764 H 0.72122 0.15692 0.48921 0.0
C2765 C 0.78601 0.10587 0.50351 0.0
H2766 H 0.75985 0.15256 0.45285 0.0
C2767 C 0.7643 0.10893 0.52467 0.0
C2768 C 0.74044 0.12723 0.52002 0.0
H2769 H 0.804 0.09158 0.5078 0.0
H2770 H 0.76625 0.09694 0.54481 0.0
C2771 C 0.73936 0.14295 0.49382 0.0
C2772 C 0.58768 0.00359 0.24145 0.0
C2773 C 0.61186 0.01968 0.23256 0.0
H2774 H 0.57131 0.96777 0.26489 0.0
C2775 C 0.63861 0.01174 0.24497 0.0
H2776 H 0.56636 0.00841 0.23365 0.0
C2777 C 0.64071 0.99054 0.26665 0.0
C2778 C 0.61667 0.9741 0.275 0.0
H2779 H 0.65848 0.02148 0.23814 0.0
H2780 H 0.66147 0.98743 0.2767 0.0
C2781 C 0.59031 0.98051 0.26104 0.0
C2782 C 0.74581 0.88678 0.98443 0.0
C2783 C 0.71994 0.87169 0.98856 0.0
H2784 H 0.78827 0.89572 0.00068 0.0
C2785 C 0.71737 0.85341 0.01287 0.0
H2786 H 0.7486 0.90064 0.96567 0.0
C2787 C 0.7402 0.85023 0.03261 0.0
C2788 C 0.7659 0.86558 0.02861 0.0
H2789 H 0.69756 0.84171 0.01675 0.0
H2790 H 0.73751 0.83636 0.05139 0.0
C2791 C 0.76856 0.88374 0.00426 0.0
C2792 C 0.28622 0.64267 0.99547 0.0
C2793 C 0.28442 0.62359 0.9717 0.0
H2794 H 0.26597 0.65924 0.03416 0.0
C2795 C 0.25967 0.60641 0.96893 0.0
H2796 H 0.30515 0.65595 -0.00155 0.0
C2797 C 0.23736 0.60817 0.98952 0.0
C2798 C 0.23924 0.62723 0.01327 0.0
H2799 H 0.25735 0.59189 0.95062 0.0
H2800 H 0.21851 0.5947 0.98683 0.0
C2801 C 0.2638 0.6446 0.01591 0.0
C2802 C 0.08974 0.50594 0.7377 0.0
C2803 C 0.11388 0.51787 0.72364 0.0
H2804 H 0.07327 0.47454 0.76663 0.0
C2805 C 0.14115 0.50705 0.73192 0.0
H2806 H 0.06819 0.51316 0.73295 0.0
C2807 C 0.1443 0.48751 0.75496 0.0
C2808 C 0.1202 0.4753 0.76883 0.0
H2809 H 0.16055 0.51344 0.72081 0.0
H2810 H 0.16596 0.48242 0.76162 0.0
C2811 C 0.09281 0.48418 0.7587 0.0
C2812 C 0.2501 0.38818 0.51484 0.0
C2813 C 0.27195 0.36755 0.51065 0.0
H2814 H 0.21066 0.40653 0.49893 0.0
C2815 C 0.2706 0.34939 0.48623 0.0
H2816 H 0.25035 0.40216 0.53372 0.0
C2817 C 0.24782 0.35187 0.46638 0.0
C2818 C 0.22605 0.37255 0.47062 0.0
H2819 H 0.28738 0.33364 0.4822 0.0
H2820 H 0.24722 0.3377 0.44763 0.0
C2821 C 0.22744 0.39075 0.49494 0.0
C2822 C 0.3479 0.50515 0.26249 0.0
C2823 C 0.36116 0.53164 0.25644 0.0
H2824 H 0.33976 0.46195 0.24798 0.0
C2825 C 0.37664 0.53459 0.2302 0.0
H2826 H 0.33619 0.502 0.28267 0.0
C2827 C 0.37926 0.51148 0.21074 0.0
C2828 C 0.36594 0.48509 0.2168 0.0
H2829 H 0.38673 0.55486 0.22468 0.0
H2830 H 0.39124 0.51439 0.19067 0.0
C2831 C 0.35017 0.48215 0.24281 0.0
loop_
_geom_bond_atom_site_label_1
_geom_bond_atom_site_label_2
_geom_bond_distance
_geom_bond_site_symmetry_2
_ccdc_geom_bond_type
Co0 O3 1.970 . S
Co0 N17 1.989 . S
Co0 O25 1.967 . S
Co0 O32 1.920 . S
Co1 O4 1.966 . S
Co1 N10 2.022 . S
Co1 N18 1.993 . S
Co1 O26 1.941 . S
C2 O3 1.258 . S
C2 O4 1.263 . S
O3 Co0 1.970 . S
O3 C2 1.258 . S
O4 Co1 1.966 . S
O4 C2 1.263 . S
C5 O6 1.235 . S
C5 O32 1.289 . S
O6 C5 1.235 . S
C7 C9 1.400 . S
C7 N10 1.351 . S
C7 C12 1.501 . S
C8 C9 1.387 . S
C8 N11 1.341 . S
C9 C7 1.400 . S
C9 C8 1.387 . S
N10 Co1 2.022 . S
N10 C7 1.351 . S
N10 N11 1.365 . S
N11 C8 1.341 . S
N11 N10 1.365 . S
N11 H31 0.862 . S
C12 C7 1.501 . S
C12 H13 0.961 . S
C12 H14 0.961 . S
C12 H15 0.960 . S
H13 C12 0.961 . S
H14 C12 0.961 . S
H15 C12 0.960 . S
C16 N17 1.342 . S
C16 C20 1.401 . S
C16 C21 1.499 . S
N17 Co0 1.989 . S
N17 C16 1.342 . S
N17 N18 1.388 . S
N18 Co1 1.993 . S
N18 N17 1.388 . S
N18 C19 1.346 . S
C19 N18 1.346 . S
C19 C20 1.396 . S
C19 C29 1.510 . S
C20 C16 1.401 . S
C20 C19 1.396 . S
C21 C16 1.499 . S
C21 H22 0.959 . S
C21 H23 0.960 . S
C21 H24 0.961 . S
H22 C21 0.959 . S
H23 C21 0.960 . S
H24 C21 0.961 . S
O25 Co0 1.967 . S
O25 C33 1.258 . S
O26 Co1 1.941 . S
O26 C33 1.266 . S
H27 C29 0.959 . S
H28 C29 0.961 . S
C29 C19 1.510 . S
C29 H27 0.959 . S
C29 H28 0.961 . S
C29 H30 0.960 . S
H30 C29 0.960 . S
H31 N11 0.862 . S
O32 Co0 1.920 . S
O32 C5 1.289 . S
C33 O25 1.258 . S
C33 O26 1.266 . S
Co34 O37 1.970 . S
Co34 N51 1.989 . S
Co34 O59 1.967 . S
Co34 O66 1.920 . S
Co35 O38 1.966 . S
Co35 N44 2.022 . S
Co35 N52 1.993 . S
Co35 O60 1.941 . S
C36 O37 1.258 . S
C36 O38 1.263 . S
O37 Co34 1.970 . S
O37 C36 1.258 . S
O38 Co35 1.966 . S
O38 C36 1.263 . S
C39 O40 1.235 . S
C39 O66 1.289 . S
O40 C39 1.235 . S
C41 C43 1.400 . S
C41 N44 1.351 . S
C41 C46 1.501 . S
C42 C43 1.387 . S
C42 N45 1.341 . S
C43 C41 1.400 . S
C43 C42 1.387 . S
N44 Co35 2.022 . S
N44 C41 1.351 . S
N44 N45 1.365 . S
N45 C42 1.341 . S
N45 N44 1.365 . S
N45 H65 0.862 . S
C46 C41 1.501 . S
C46 H47 0.961 . S
C46 H48 0.961 . S
C46 H49 0.960 . S
H47 C46 0.961 . S
H48 C46 0.961 . S
H49 C46 0.960 . S
C50 N51 1.342 . S
C50 C54 1.401 . S
C50 C55 1.499 . S
N51 Co34 1.989 . S
N51 C50 1.342 . S
N51 N52 1.388 . S
N52 Co35 1.993 . S
N52 N51 1.388 . S
N52 C53 1.346 . S
C53 N52 1.346 . S
C53 C54 1.396 . S
C53 C63 1.510 . S
C54 C50 1.401 . S
C54 C53 1.396 . S
C55 C50 1.499 . S
C55 H56 0.959 . S
C55 H57 0.960 . S
C55 H58 0.961 . S
H56 C55 0.959 . S
H57 C55 0.960 . S
H58 C55 0.961 . S
O59 Co34 1.967 . S
O59 C67 1.258 . S
O60 Co35 1.941 . S
O60 C67 1.266 . S
H61 C63 0.959 . S
H62 C63 0.961 . S
C63 C53 1.510 . S
C63 H61 0.959 . S
C63 H62 0.961 . S
C63 H64 0.960 . S
H64 C63 0.960 . S
H65 N45 0.862 . S
O66 Co34 1.920 . S
O66 C39 1.289 . S
C67 O59 1.258 . S
C67 O60 1.266 . S
Co68 O71 1.970 . S
Co68 N85 1.989 . S
Co68 O93 1.967 . S
Co68 O100 1.920 . S
Co69 O72 1.966 . S
Co69 N78 2.022 . S
Co69 N86 1.993 . S
Co69 O94 1.941 . S
C70 O71 1.258 . S
C70 O72 1.263 . S
O71 Co68 1.970 . S
O71 C70 1.258 . S
O72 Co69 1.966 . S
O72 C70 1.263 . S
C73 O74 1.235 . S
C73 O100 1.289 . S
O74 C73 1.235 . S
C75 C77 1.400 . S
C75 N78 1.351 . S
C75 C80 1.501 . S
C76 C77 1.387 . S
C76 N79 1.341 . S
C77 C75 1.400 . S
C77 C76 1.387 . S
N78 Co69 2.022 . S
N78 C75 1.351 . S
N78 N79 1.365 . S
N79 C76 1.341 . S
N79 N78 1.365 . S
N79 H99 0.862 . S
C80 C75 1.501 . S
C80 H81 0.961 . S
C80 H82 0.961 . S
C80 H83 0.960 . S
H81 C80 0.961 . S
H82 C80 0.961 . S
H83 C80 0.960 . S
C84 N85 1.342 . S
C84 C88 1.401 . S
C84 C89 1.499 . S
N85 Co68 1.989 . S
N85 C84 1.342 . S
N85 N86 1.388 . S
N86 Co69 1.993 . S
N86 N85 1.388 . S
N86 C87 1.346 . S
C87 N86 1.346 . S
C87 C88 1.396 . S
C87 C97 1.510 . S
C88 C84 1.401 . S
C88 C87 1.396 . S
C89 C84 1.499 . S
C89 H90 0.959 . S
C89 H91 0.960 . S
C89 H92 0.961 . S
H90 C89 0.959 . S
H91 C89 0.960 . S
H92 C89 0.961 . S
O93 Co68 1.967 . S
O93 C101 1.258 . S
O94 Co69 1.941 . S
O94 C101 1.266 . S
H95 C97 0.959 . S
H96 C97 0.961 . S
C97 C87 1.510 . S
C97 H95 0.959 . S
C97 H96 0.961 . S
C97 H98 0.960 . S
H98 C97 0.960 . S
H99 N79 0.862 . S
O100 Co68 1.920 . S
O100 C73 1.289 . S
C101 O93 1.258 . S
C101 O94 1.266 . S
Co102 O105 1.970 . S
Co102 N119 1.989 . S
Co102 O127 1.967 . S
Co102 O134 1.920 . S
Co103 O106 1.966 . S
Co103 N112 2.022 . S
Co103 N120 1.993 . S
Co103 O128 1.941 . S
C104 O105 1.258 . S
C104 O106 1.263 . S
O105 Co102 1.970 . S
O105 C104 1.258 . S
O106 Co103 1.966 . S
O106 C104 1.263 . S
C107 O108 1.235 . S
C107 O134 1.289 . S
O108 C107 1.235 . S
C109 C111 1.400 . S
C109 N112 1.351 . S
C109 C114 1.501 . S
C110 C111 1.387 . S
C110 N113 1.341 . S
C111 C109 1.400 . S
C111 C110 1.387 . S
N112 Co103 2.022 . S
N112 C109 1.351 . S
N112 N113 1.365 . S
N113 C110 1.341 . S
N113 N112 1.365 . S
N113 H133 0.862 . S
C114 C109 1.501 . S
C114 H115 0.961 . S
C114 H116 0.961 . S
C114 H117 0.960 . S
H115 C114 0.961 . S
H116 C114 0.961 . S
H117 C114 0.960 . S
C118 N119 1.342 . S
C118 C122 1.401 . S
C118 C123 1.499 . S
N119 Co102 1.989 . S
N119 C118 1.342 . S
N119 N120 1.388 . S
N120 Co103 1.993 . S
N120 N119 1.388 . S
N120 C121 1.346 . S
C121 N120 1.346 . S
C121 C122 1.396 . S
C121 C131 1.510 . S
C122 C118 1.401 . S
C122 C121 1.396 . S
C123 C118 1.499 . S
C123 H124 0.959 . S
C123 H125 0.960 . S
C123 H126 0.961 . S
H124 C123 0.959 . S
H125 C123 0.960 . S
H126 C123 0.961 . S
O127 Co102 1.967 . S
O127 C135 1.258 . S
O128 Co103 1.941 . S
O128 C135 1.266 . S
H129 C131 0.959 . S
H130 C131 0.961 . S
C131 C121 1.510 . S
C131 H129 0.959 . S
C131 H130 0.961 . S
C131 H132 0.960 . S
H132 C131 0.960 . S
H133 N113 0.862 . S
O134 Co102 1.920 . S
O134 C107 1.289 . S
C135 O127 1.258 . S
C135 O128 1.266 . S
Co136 O139 1.970 . S
Co136 N153 1.989 . S
Co136 O161 1.967 . S
Co136 O168 1.920 . S
Co137 O140 1.966 . S
Co137 N146 2.022 . S
Co137 N154 1.993 . S
Co137 O162 1.941 . S
C138 O139 1.258 . S
C138 O140 1.263 . S
O139 Co136 1.970 . S
O139 C138 1.258 . S
O140 Co137 1.966 . S
O140 C138 1.263 . S
C141 O142 1.235 . S
C141 O168 1.289 . S
O142 C141 1.235 . S
C143 C145 1.400 . S
C143 N146 1.351 . S
C143 C148 1.501 . S
C144 C145 1.387 . S
C144 N147 1.341 . S
C145 C143 1.400 . S
C145 C144 1.387 . S
N146 Co137 2.022 . S
N146 C143 1.351 . S
N146 N147 1.365 . S
N147 C144 1.341 . S
N147 N146 1.365 . S
N147 H167 0.862 . S
C148 C143 1.501 . S
C148 H149 0.961 . S
C148 H150 0.961 . S
C148 H151 0.960 . S
H149 C148 0.961 . S
H150 C148 0.961 . S
H151 C148 0.960 . S
C152 N153 1.342 . S
C152 C156 1.401 . S
C152 C157 1.499 . S
N153 Co136 1.989 . S
N153 C152 1.342 . S
N153 N154 1.388 . S
N154 Co137 1.993 . S
N154 N153 1.388 . S
N154 C155 1.346 . S
C155 N154 1.346 . S
C155 C156 1.396 . S
C155 C165 1.510 . S
C156 C152 1.401 . S
C156 C155 1.396 . S
C157 C152 1.499 . S
C157 H158 0.959 . S
C157 H159 0.960 . S
C157 H160 0.961 . S
H158 C157 0.959 . S
H159 C157 0.960 . S
H160 C157 0.961 . S
O161 Co136 1.967 . S
O161 C169 1.258 . S
O162 Co137 1.941 . S
O162 C169 1.266 . S
H163 C165 0.959 . S
H164 C165 0.961 . S
C165 C155 1.510 . S
C165 H163 0.959 . S
C165 H164 0.961 . S
C165 H166 0.960 . S
H166 C165 0.960 . S
H167 N147 0.862 . S
O168 Co136 1.920 . S
O168 C141 1.289 . S
C169 O161 1.258 . S
C169 O162 1.266 . S
Co170 O173 1.970 . S
Co170 N187 1.989 . S
Co170 O195 1.967 . S
Co170 O202 1.920 . S
Co171 O174 1.966 . S
Co171 N180 2.022 . S
Co171 N188 1.993 . S
Co171 O196 1.941 . S
C172 O173 1.258 . S
C172 O174 1.263 . S
O173 Co170 1.970 . S
O173 C172 1.258 . S
O174 Co171 1.966 . S
O174 C172 1.263 . S
C175 O176 1.235 . S
C175 O202 1.289 . S
O176 C175 1.235 . S
C177 C179 1.400 . S
C177 N180 1.351 . S
C177 C182 1.501 . S
C178 C179 1.387 . S
C178 N181 1.341 . S
C179 C177 1.400 . S
C179 C178 1.387 . S
N180 Co171 2.022 . S
N180 C177 1.351 . S
N180 N181 1.365 . S
N181 C178 1.341 . S
N181 N180 1.365 . S
N181 H201 0.862 . S
C182 C177 1.501 . S
C182 H183 0.961 . S
C182 H184 0.961 . S
C182 H185 0.960 . S
H183 C182 0.961 . S
H184 C182 0.961 . S
H185 C182 0.960 . S
C186 N187 1.342 . S
C186 C190 1.401 . S
C186 C191 1.499 . S
N187 Co170 1.989 . S
N187 C186 1.342 . S
N187 N188 1.388 . S
N188 Co171 1.993 . S
N188 N187 1.388 . S
N188 C189 1.346 . S
C189 N188 1.346 . S
C189 C190 1.396 . S
C189 C199 1.510 . S
C190 C186 1.401 . S
C190 C189 1.396 . S
C191 C186 1.499 . S
C191 H192 0.959 . S
C191 H193 0.960 . S
C191 H194 0.961 . S
H192 C191 0.959 . S
H193 C191 0.960 . S
H194 C191 0.961 . S
O195 Co170 1.967 . S
O195 C203 1.258 . S
O196 Co171 1.941 . S
O196 C203 1.266 . S
H197 C199 0.959 . S
H198 C199 0.961 . S
C199 C189 1.510 . S
C199 H197 0.959 . S
C199 H198 0.961 . S
C199 H200 0.960 . S
H200 C199 0.960 . S
H201 N181 0.862 . S
O202 Co170 1.920 . S
O202 C175 1.289 . S
C203 O195 1.258 . S
C203 O196 1.266 . S
Co204 O207 1.970 . S
Co204 N221 1.989 . S
Co204 O229 1.967 . S
Co204 O236 1.920 . S
Co205 O208 1.966 . S
Co205 N214 2.022 . S
Co205 N222 1.993 . S
Co205 O230 1.941 . S
C206 O207 1.258 . S
C206 O208 1.263 . S
O207 Co204 1.970 . S
O207 C206 1.258 . S
O208 Co205 1.966 . S
O208 C206 1.263 . S
C209 O210 1.235 . S
C209 O236 1.289 . S
O210 C209 1.235 . S
C211 C213 1.400 . S
C211 N214 1.351 . S
C211 C216 1.501 . S
C212 C213 1.387 . S
C212 N215 1.341 . S
C213 C211 1.400 . S
C213 C212 1.387 . S
N214 Co205 2.022 . S
N214 C211 1.351 . S
N214 N215 1.365 . S
N215 C212 1.341 . S
N215 N214 1.365 . S
N215 H235 0.862 . S
C216 C211 1.501 . S
C216 H217 0.961 . S
C216 H218 0.961 . S
C216 H219 0.960 . S
H217 C216 0.961 . S
H218 C216 0.961 . S
H219 C216 0.960 . S
C220 N221 1.342 . S
C220 C224 1.401 . S
C220 C225 1.499 . S
N221 Co204 1.989 . S
N221 C220 1.342 . S
N221 N222 1.388 . S
N222 Co205 1.993 . S
N222 N221 1.388 . S
N222 C223 1.346 . S
C223 N222 1.346 . S
C223 C224 1.396 . S
C223 C233 1.510 . S
C224 C220 1.401 . S
C224 C223 1.396 . S
C225 C220 1.499 . S
C225 H226 0.959 . S
C225 H227 0.960 . S
C225 H228 0.961 . S
H226 C225 0.959 . S
H227 C225 0.960 . S
H228 C225 0.961 . S
O229 Co204 1.967 . S
O229 C237 1.258 . S
O230 Co205 1.941 . S
O230 C237 1.266 . S
H231 C233 0.959 . S
H232 C233 0.961 . S
C233 C223 1.510 . S
C233 H231 0.959 . S
C233 H232 0.961 . S
C233 H234 0.960 . S
H234 C233 0.960 . S
H235 N215 0.862 . S
O236 Co204 1.920 . S
O236 C209 1.289 . S
C237 O229 1.258 . S
C237 O230 1.266 . S
Co238 O241 1.970 . S
Co238 N255 1.989 . S
Co238 O263 1.967 . S
Co238 O270 1.920 . S
Co239 O242 1.966 . S
Co239 N248 2.022 . S
Co239 N256 1.993 . S
Co239 O264 1.941 . S
C240 O241 1.258 . S
C240 O242 1.263 . S
O241 Co238 1.970 . S
O241 C240 1.258 . S
O242 Co239 1.966 . S
O242 C240 1.263 . S
C243 O244 1.235 . S
C243 O270 1.289 . S
O244 C243 1.235 . S
C245 C247 1.400 . S
C245 N248 1.351 . S
C245 C250 1.501 . S
C246 C247 1.387 . S
C246 N249 1.341 . S
C247 C245 1.400 . S
C247 C246 1.387 . S
N248 Co239 2.022 . S
N248 C245 1.351 . S
N248 N249 1.365 . S
N249 C246 1.341 . S
N249 N248 1.365 . S
N249 H269 0.862 . S
C250 C245 1.501 . S
C250 H251 0.961 . S
C250 H252 0.961 . S
C250 H253 0.960 . S
H251 C250 0.961 . S
H252 C250 0.961 . S
H253 C250 0.960 . S
C254 N255 1.342 . S
C254 C258 1.401 . S
C254 C259 1.499 . S
N255 Co238 1.989 . S
N255 C254 1.342 . S
N255 N256 1.388 . S
N256 Co239 1.993 . S
N256 N255 1.388 . S
N256 C257 1.346 . S
C257 N256 1.346 . S
C257 C258 1.396 . S
C257 C267 1.510 . S
C258 C254 1.401 . S
C258 C257 1.396 . S
C259 C254 1.499 . S
C259 H260 0.959 . S
C259 H261 0.960 . S
C259 H262 0.961 . S
H260 C259 0.959 . S
H261 C259 0.960 . S
H262 C259 0.961 . S
O263 Co238 1.967 . S
O263 C271 1.258 . S
O264 Co239 1.941 . S
O264 C271 1.266 . S
H265 C267 0.959 . S
H266 C267 0.961 . S
C267 C257 1.510 . S
C267 H265 0.959 . S
C267 H266 0.961 . S
C267 H268 0.960 . S
H268 C267 0.960 . S
H269 N249 0.862 . S
O270 Co238 1.920 . S
O270 C243 1.289 . S
C271 O263 1.258 . S
C271 O264 1.266 . S
Co272 O275 1.970 . S
Co272 N289 1.989 . S
Co272 O297 1.967 . S
Co272 O304 1.920 . S
Co273 O276 1.966 . S
Co273 N282 2.022 . S
Co273 N290 1.993 . S
Co273 O298 1.941 . S
C274 O275 1.258 . S
C274 O276 1.263 . S
O275 Co272 1.970 . S
O275 C274 1.258 . S
O276 Co273 1.966 . S
O276 C274 1.263 . S
C277 O278 1.235 . S
C277 O304 1.289 . S
O278 C277 1.235 . S
C279 C281 1.400 . S
C279 N282 1.351 . S
C279 C284 1.501 . S
C280 C281 1.387 . S
C280 N283 1.341 . S
C281 C279 1.400 . S
C281 C280 1.387 . S
N282 Co273 2.022 . S
N282 C279 1.351 . S
N282 N283 1.365 . S
N283 C280 1.341 . S
N283 N282 1.365 . S
N283 H303 0.862 . S
C284 C279 1.501 . S
C284 H285 0.961 . S
C284 H286 0.961 . S
C284 H287 0.960 . S
H285 C284 0.961 . S
H286 C284 0.961 . S
H287 C284 0.960 . S
C288 N289 1.342 . S
C288 C292 1.401 . S
C288 C293 1.499 . S
N289 Co272 1.989 . S
N289 C288 1.342 . S
N289 N290 1.388 . S
N290 Co273 1.993 . S
N290 N289 1.388 . S
N290 C291 1.346 . S
C291 N290 1.346 . S
C291 C292 1.396 . S
C291 C301 1.510 . S
C292 C288 1.401 . S
C292 C291 1.396 . S
C293 C288 1.499 . S
C293 H294 0.959 . S
C293 H295 0.960 . S
C293 H296 0.961 . S
H294 C293 0.959 . S
H295 C293 0.960 . S
H296 C293 0.961 . S
O297 Co272 1.967 . S
O297 C305 1.258 . S
O298 Co273 1.941 . S
O298 C305 1.266 . S
H299 C301 0.959 . S
H300 C301 0.961 . S
C301 C291 1.510 . S
C301 H299 0.959 . S
C301 H300 0.961 . S
C301 H302 0.960 . S
H302 C301 0.960 . S
H303 N283 0.862 . S
O304 Co272 1.920 . S
O304 C277 1.289 . S
C305 O297 1.258 . S
C305 O298 1.266 . S
Co306 O309 1.970 . S
Co306 N323 1.989 . S
Co306 O331 1.967 . S
Co306 O338 1.920 . S
Co307 O310 1.966 . S
Co307 N316 2.022 . S
Co307 N324 1.993 . S
Co307 O332 1.941 . S
C308 O309 1.258 . S
C308 O310 1.263 . S
O309 Co306 1.970 . S
O309 C308 1.258 . S
O310 Co307 1.966 . S
O310 C308 1.263 . S
C311 O312 1.235 . S
C311 O338 1.289 . S
O312 C311 1.235 . S
C313 C315 1.400 . S
C313 N316 1.351 . S
C313 C318 1.501 . S
C314 C315 1.387 . S
C314 N317 1.341 . S
C315 C313 1.400 . S
C315 C314 1.387 . S
N316 Co307 2.022 . S
N316 C313 1.351 . S
N316 N317 1.365 . S
N317 C314 1.341 . S
N317 N316 1.365 . S
N317 H337 0.862 . S
C318 C313 1.501 . S
C318 H319 0.961 . S
C318 H320 0.961 . S
C318 H321 0.960 . S
H319 C318 0.961 . S
H320 C318 0.961 . S
H321 C318 0.960 . S
C322 N323 1.342 . S
C322 C326 1.401 . S
C322 C327 1.499 . S
N323 Co306 1.989 . S
N323 C322 1.342 . S
N323 N324 1.388 . S
N324 Co307 1.993 . S
N324 N323 1.388 . S
N324 C325 1.346 . S
C325 N324 1.346 . S
C325 C326 1.396 . S
C325 C335 1.510 . S
C326 C322 1.401 . S
C326 C325 1.396 . S
C327 C322 1.499 . S
C327 H328 0.959 . S
C327 H329 0.960 . S
C327 H330 0.961 . S
H328 C327 0.959 . S
H329 C327 0.960 . S
H330 C327 0.961 . S
O331 Co306 1.967 . S
O331 C339 1.258 . S
O332 Co307 1.941 . S
O332 C339 1.266 . S
H333 C335 0.959 . S
H334 C335 0.961 . S
C335 C325 1.510 . S
C335 H333 0.959 . S
C335 H334 0.961 . S
C335 H336 0.960 . S
H336 C335 0.960 . S
H337 N317 0.862 . S
O338 Co306 1.920 . S
O338 C311 1.289 . S
C339 O331 1.258 . S
C339 O332 1.266 . S
Co340 O343 1.970 . S
Co340 N357 1.989 . S
Co340 O365 1.967 . S
Co340 O372 1.920 . S
Co341 O344 1.966 . S
Co341 N350 2.022 . S
Co341 N358 1.993 . S
Co341 O366 1.941 . S
C342 O343 1.258 . S
C342 O344 1.263 . S
O343 Co340 1.970 . S
O343 C342 1.258 . S
O344 Co341 1.966 . S
O344 C342 1.263 . S
C345 O346 1.235 . S
C345 O372 1.289 . S
O346 C345 1.235 . S
C347 C349 1.400 . S
C347 N350 1.351 . S
C347 C352 1.501 . S
C348 C349 1.387 . S
C348 N351 1.341 . S
C349 C347 1.400 . S
C349 C348 1.387 . S
N350 Co341 2.022 . S
N350 C347 1.351 . S
N350 N351 1.365 . S
N351 C348 1.341 . S
N351 N350 1.365 . S
N351 H371 0.862 . S
C352 C347 1.501 . S
C352 H353 0.961 . S
C352 H354 0.961 . S
C352 H355 0.960 . S
H353 C352 0.961 . S
H354 C352 0.961 . S
H355 C352 0.960 . S
C356 N357 1.342 . S
C356 C360 1.401 . S
C356 C361 1.499 . S
N357 Co340 1.989 . S
N357 C356 1.342 . S
N357 N358 1.388 . S
N358 Co341 1.993 . S
N358 N357 1.388 . S
N358 C359 1.346 . S
C359 N358 1.346 . S
C359 C360 1.396 . S
C359 C369 1.510 . S
C360 C356 1.401 . S
C360 C359 1.396 . S
C361 C356 1.499 . S
C361 H362 0.959 . S
C361 H363 0.960 . S
C361 H364 0.961 . S
H362 C361 0.959 . S
H363 C361 0.960 . S
H364 C361 0.961 . S
O365 Co340 1.967 . S
O365 C373 1.258 . S
O366 Co341 1.941 . S
O366 C373 1.266 . S
H367 C369 0.959 . S
H368 C369 0.961 . S
C369 C359 1.510 . S
C369 H367 0.959 . S
C369 H368 0.961 . S
C369 H370 0.960 . S
H370 C369 0.960 . S
H371 N351 0.862 . S
O372 Co340 1.920 . S
O372 C345 1.289 . S
C373 O365 1.258 . S
C373 O366 1.266 . S
Co374 O377 1.970 . S
Co374 N391 1.989 . S
Co374 O399 1.967 . S
Co374 O406 1.920 . S
Co375 O378 1.966 . S
Co375 N384 2.022 . S
Co375 N392 1.993 . S
Co375 O400 1.941 . S
C376 O377 1.258 . S
C376 O378 1.263 . S
O377 Co374 1.970 . S
O377 C376 1.258 . S
O378 Co375 1.966 . S
O378 C376 1.263 . S
C379 O380 1.235 . S
C379 O406 1.289 . S
O380 C379 1.235 . S
C381 C383 1.400 . S
C381 N384 1.351 . S
C381 C386 1.501 . S
C382 C383 1.387 . S
C382 N385 1.341 . S
C383 C381 1.400 . S
C383 C382 1.387 . S
N384 Co375 2.022 . S
N384 C381 1.351 . S
N384 N385 1.365 . S
N385 C382 1.341 . S
N385 N384 1.365 . S
N385 H405 0.862 . S
C386 C381 1.501 . S
C386 H387 0.961 . S
C386 H388 0.961 . S
C386 H389 0.960 . S
H387 C386 0.961 . S
H388 C386 0.961 . S
H389 C386 0.960 . S
C390 N391 1.342 . S
C390 C394 1.401 . S
C390 C395 1.499 . S
N391 Co374 1.989 . S
N391 C390 1.342 . S
N391 N392 1.388 . S
N392 Co375 1.993 . S
N392 N391 1.388 . S
N392 C393 1.346 . S
C393 N392 1.346 . S
C393 C394 1.396 . S
C393 C403 1.510 . S
C394 C390 1.401 . S
C394 C393 1.396 . S
C395 C390 1.499 . S
C395 H396 0.959 . S
C395 H397 0.960 . S
C395 H398 0.961 . S
H396 C395 0.959 . S
H397 C395 0.960 . S
H398 C395 0.961 . S
O399 Co374 1.967 . S
O399 C407 1.258 . S
O400 Co375 1.941 . S
O400 C407 1.266 . S
H401 C403 0.959 . S
H402 C403 0.961 . S
C403 C393 1.510 . S
C403 H401 0.959 . S
C403 H402 0.961 . S
C403 H404 0.960 . S
H404 C403 0.960 . S
H405 N385 0.862 . S
O406 Co374 1.920 . S
O406 C379 1.289 . S
C407 O399 1.258 . S
C407 O400 1.266 . S
Co408 O411 1.970 . S
Co408 N425 1.989 . S
Co408 O433 1.967 . S
Co408 O440 1.920 . S
Co409 O412 1.966 . S
Co409 N418 2.022 . S
Co409 N426 1.993 . S
Co409 O434 1.941 . S
C410 O411 1.258 . S
C410 O412 1.263 . S
O411 Co408 1.970 . S
O411 C410 1.258 . S
O412 Co409 1.966 . S
O412 C410 1.263 . S
C413 O414 1.235 . S
C413 O440 1.289 . S
O414 C413 1.235 . S
C415 C417 1.400 . S
C415 N418 1.351 . S
C415 C420 1.501 . S
C416 C417 1.387 . S
C416 N419 1.341 . S
C417 C415 1.400 . S
C417 C416 1.387 . S
N418 Co409 2.022 . S
N418 C415 1.351 . S
N418 N419 1.365 . S
N419 C416 1.341 . S
N419 N418 1.365 . S
N419 H439 0.862 . S
C420 C415 1.501 . S
C420 H421 0.961 . S
C420 H422 0.961 . S
C420 H423 0.960 . S
H421 C420 0.961 . S
H422 C420 0.961 . S
H423 C420 0.960 . S
C424 N425 1.342 . S
C424 C428 1.401 . S
C424 C429 1.499 . S
N425 Co408 1.989 . S
N425 C424 1.342 . S
N425 N426 1.388 . S
N426 Co409 1.993 . S
N426 N425 1.388 . S
N426 C427 1.346 . S
C427 N426 1.346 . S
C427 C428 1.396 . S
C427 C437 1.510 . S
C428 C424 1.401 . S
C428 C427 1.396 . S
C429 C424 1.499 . S
C429 H430 0.959 . S
C429 H431 0.960 . S
C429 H432 0.961 . S
H430 C429 0.959 . S
H431 C429 0.960 . S
H432 C429 0.961 . S
O433 Co408 1.967 . S
O433 C441 1.258 . S
O434 Co409 1.941 . S
O434 C441 1.266 . S
H435 C437 0.959 . S
H436 C437 0.961 . S
C437 C427 1.510 . S
C437 H435 0.959 . S
C437 H436 0.961 . S
C437 H438 0.960 . S
H438 C437 0.960 . S
H439 N419 0.862 . S
O440 Co408 1.920 . S
O440 C413 1.289 . S
C441 O433 1.258 . S
C441 O434 1.266 . S
Co442 O445 1.970 . S
Co442 N459 1.989 . S
Co442 O467 1.967 . S
Co442 O474 1.920 . S
Co443 O446 1.966 . S
Co443 N452 2.022 . S
Co443 N460 1.993 . S
Co443 O468 1.941 . S
C444 O445 1.258 . S
C444 O446 1.263 . S
O445 Co442 1.970 . S
O445 C444 1.258 . S
O446 Co443 1.966 . S
O446 C444 1.263 . S
C447 O448 1.235 . S
C447 O474 1.289 . S
O448 C447 1.235 . S
C449 C451 1.400 . S
C449 N452 1.351 . S
C449 C454 1.501 . S
C450 C451 1.387 . S
C450 N453 1.341 . S
C451 C449 1.400 . S
C451 C450 1.387 . S
N452 Co443 2.022 . S
N452 C449 1.351 . S
N452 N453 1.365 . S
N453 C450 1.341 . S
N453 N452 1.365 . S
N453 H473 0.862 . S
C454 C449 1.501 . S
C454 H455 0.961 . S
C454 H456 0.961 . S
C454 H457 0.960 . S
H455 C454 0.961 . S
H456 C454 0.961 . S
H457 C454 0.960 . S
C458 N459 1.342 . S
C458 C462 1.401 . S
C458 C463 1.499 . S
N459 Co442 1.989 . S
N459 C458 1.342 . S
N459 N460 1.388 . S
N460 Co443 1.993 . S
N460 N459 1.388 . S
N460 C461 1.346 . S
C461 N460 1.346 . S
C461 C462 1.396 . S
C461 C471 1.510 . S
C462 C458 1.401 . S
C462 C461 1.396 . S
C463 C458 1.499 . S
C463 H464 0.959 . S
C463 H465 0.960 . S
C463 H466 0.961 . S
H464 C463 0.959 . S
H465 C463 0.960 . S
H466 C463 0.961 . S
O467 Co442 1.967 . S
O467 C475 1.258 . S
O468 Co443 1.941 . S
O468 C475 1.266 . S
H469 C471 0.959 . S
H470 C471 0.961 . S
C471 C461 1.510 . S
C471 H469 0.959 . S
C471 H470 0.961 . S
C471 H472 0.960 . S
H472 C471 0.960 . S
H473 N453 0.862 . S
O474 Co442 1.920 . S
O474 C447 1.289 . S
C475 O467 1.258 . S
C475 O468 1.266 . S
Co476 O479 1.970 . S
Co476 N493 1.989 . S
Co476 O501 1.967 . S
Co476 O508 1.920 . S
Co477 O480 1.966 . S
Co477 N486 2.022 . S
Co477 N494 1.993 . S
Co477 O502 1.941 . S
C478 O479 1.258 . S
C478 O480 1.263 . S
O479 Co476 1.970 . S
O479 C478 1.258 . S
O480 Co477 1.966 . S
O480 C478 1.263 . S
C481 O482 1.235 . S
C481 O508 1.289 . S
O482 C481 1.235 . S
C483 C485 1.400 . S
C483 N486 1.351 . S
C483 C488 1.501 . S
C484 C485 1.387 . S
C484 N487 1.341 . S
C485 C483 1.400 . S
C485 C484 1.387 . S
N486 Co477 2.022 . S
N486 C483 1.351 . S
N486 N487 1.365 . S
N487 C484 1.341 . S
N487 N486 1.365 . S
N487 H507 0.862 . S
C488 C483 1.501 . S
C488 H489 0.961 . S
C488 H490 0.961 . S
C488 H491 0.960 . S
H489 C488 0.961 . S
H490 C488 0.961 . S
H491 C488 0.960 . S
C492 N493 1.342 . S
C492 C496 1.401 . S
C492 C497 1.499 . S
N493 Co476 1.989 . S
N493 C492 1.342 . S
N493 N494 1.388 . S
N494 Co477 1.993 . S
N494 N493 1.388 . S
N494 C495 1.346 . S
C495 N494 1.346 . S
C495 C496 1.396 . S
C495 C505 1.510 . S
C496 C492 1.401 . S
C496 C495 1.396 . S
C497 C492 1.499 . S
C497 H498 0.959 . S
C497 H499 0.960 . S
C497 H500 0.961 . S
H498 C497 0.959 . S
H499 C497 0.960 . S
H500 C497 0.961 . S
O501 Co476 1.967 . S
O501 C509 1.258 . S
O502 Co477 1.941 . S
O502 C509 1.266 . S
H503 C505 0.959 . S
H504 C505 0.961 . S
C505 C495 1.510 . S
C505 H503 0.959 . S
C505 H504 0.961 . S
C505 H506 0.960 . S
H506 C505 0.960 . S
H507 N487 0.862 . S
O508 Co476 1.920 . S
O508 C481 1.289 . S
C509 O501 1.258 . S
C509 O502 1.266 . S
Co510 O513 1.970 . S
Co510 N527 1.989 . S
Co510 O535 1.967 . S
Co510 O542 1.920 . S
Co511 O514 1.966 . S
Co511 N520 2.022 . S
Co511 N528 1.993 . S
Co511 O536 1.941 . S
C512 O513 1.258 . S
C512 O514 1.263 . S
O513 Co510 1.970 . S
O513 C512 1.258 . S
O514 Co511 1.966 . S
O514 C512 1.263 . S
C515 O516 1.235 . S
C515 O542 1.289 . S
O516 C515 1.235 . S
C517 C519 1.400 . S
C517 N520 1.351 . S
C517 C522 1.501 . S
C518 C519 1.387 . S
C518 N521 1.341 . S
C519 C517 1.400 . S
C519 C518 1.387 . S
N520 Co511 2.022 . S
N520 C517 1.351 . S
N520 N521 1.365 . S
N521 C518 1.341 . S
N521 N520 1.365 . S
N521 H541 0.862 . S
C522 C517 1.501 . S
C522 H523 0.961 . S
C522 H524 0.961 . S
C522 H525 0.960 . S
H523 C522 0.961 . S
H524 C522 0.961 . S
H525 C522 0.960 . S
C526 N527 1.342 . S
C526 C530 1.401 . S
C526 C531 1.499 . S
N527 Co510 1.989 . S
N527 C526 1.342 . S
N527 N528 1.388 . S
N528 Co511 1.993 . S
N528 N527 1.388 . S
N528 C529 1.346 . S
C529 N528 1.346 . S
C529 C530 1.396 . S
C529 C539 1.510 . S
C530 C526 1.401 . S
C530 C529 1.396 . S
C531 C526 1.499 . S
C531 H532 0.959 . S
C531 H533 0.960 . S
C531 H534 0.961 . S
H532 C531 0.959 . S
H533 C531 0.960 . S
H534 C531 0.961 . S
O535 Co510 1.967 . S
O535 C543 1.258 . S
O536 Co511 1.941 . S
O536 C543 1.266 . S
H537 C539 0.959 . S
H538 C539 0.961 . S
C539 C529 1.510 . S
C539 H537 0.959 . S
C539 H538 0.961 . S
C539 H540 0.960 . S
H540 C539 0.960 . S
H541 N521 0.862 . S
O542 Co510 1.920 . S
O542 C515 1.289 . S
C543 O535 1.258 . S
C543 O536 1.266 . S
Co544 O547 1.970 . S
Co544 N561 1.989 . S
Co544 O569 1.967 . S
Co544 O576 1.920 . S
Co545 O548 1.966 . S
Co545 N554 2.022 . S
Co545 N562 1.993 . S
Co545 O570 1.941 . S
C546 O547 1.258 . S
C546 O548 1.263 . S
O547 Co544 1.970 . S
O547 C546 1.258 . S
O548 Co545 1.966 . S
O548 C546 1.263 . S
C549 O550 1.235 . S
C549 O576 1.289 . S
O550 C549 1.235 . S
C551 C553 1.400 . S
C551 N554 1.351 . S
C551 C556 1.501 . S
C552 C553 1.387 . S
C552 N555 1.341 . S
C553 C551 1.400 . S
C553 C552 1.387 . S
N554 Co545 2.022 . S
N554 C551 1.351 . S
N554 N555 1.365 . S
N555 C552 1.341 . S
N555 N554 1.365 . S
N555 H575 0.862 . S
C556 C551 1.501 . S
C556 H557 0.961 . S
C556 H558 0.961 . S
C556 H559 0.960 . S
H557 C556 0.961 . S
H558 C556 0.961 . S
H559 C556 0.960 . S
C560 N561 1.342 . S
C560 C564 1.401 . S
C560 C565 1.499 . S
N561 Co544 1.989 . S
N561 C560 1.342 . S
N561 N562 1.388 . S
N562 Co545 1.993 . S
N562 N561 1.388 . S
N562 C563 1.346 . S
C563 N562 1.346 . S
C563 C564 1.396 . S
C563 C573 1.510 . S
C564 C560 1.401 . S
C564 C563 1.396 . S
C565 C560 1.499 . S
C565 H566 0.959 . S
C565 H567 0.960 . S
C565 H568 0.961 . S
H566 C565 0.959 . S
H567 C565 0.960 . S
H568 C565 0.961 . S
O569 Co544 1.967 . S
O569 C577 1.258 . S
O570 Co545 1.941 . S
O570 C577 1.266 . S
H571 C573 0.959 . S
H572 C573 0.961 . S
C573 C563 1.510 . S
C573 H571 0.959 . S
C573 H572 0.961 . S
C573 H574 0.960 . S
H574 C573 0.960 . S
H575 N555 0.862 . S
O576 Co544 1.920 . S
O576 C549 1.289 . S
C577 O569 1.258 . S
C577 O570 1.266 . S
Co578 O581 1.970 . S
Co578 N595 1.989 . S
Co578 O603 1.967 . S
Co578 O610 1.920 . S
Co579 O582 1.966 . S
Co579 N588 2.022 . S
Co579 N596 1.993 . S
Co579 O604 1.941 . S
C580 O581 1.258 . S
C580 O582 1.263 . S
O581 Co578 1.970 . S
O581 C580 1.258 . S
O582 Co579 1.966 . S
O582 C580 1.263 . S
C583 O584 1.235 . S
C583 O610 1.289 . S
O584 C583 1.235 . S
C585 C587 1.400 . S
C585 N588 1.351 . S
C585 C590 1.501 . S
C586 C587 1.387 . S
C586 N589 1.341 . S
C587 C585 1.400 . S
C587 C586 1.387 . S
N588 Co579 2.022 . S
N588 C585 1.351 . S
N588 N589 1.365 . S
N589 C586 1.341 . S
N589 N588 1.365 . S
N589 H609 0.862 . S
C590 C585 1.501 . S
C590 H591 0.961 . S
C590 H592 0.961 . S
C590 H593 0.960 . S
H591 C590 0.961 . S
H592 C590 0.961 . S
H593 C590 0.960 . S
C594 N595 1.342 . S
C594 C598 1.401 . S
C594 C599 1.499 . S
N595 Co578 1.989 . S
N595 C594 1.342 . S
N595 N596 1.388 . S
N596 Co579 1.993 . S
N596 N595 1.388 . S
N596 C597 1.346 . S
C597 N596 1.346 . S
C597 C598 1.396 . S
C597 C607 1.510 . S
C598 C594 1.401 . S
C598 C597 1.396 . S
C599 C594 1.499 . S
C599 H600 0.959 . S
C599 H601 0.960 . S
C599 H602 0.961 . S
H600 C599 0.959 . S
H601 C599 0.960 . S
H602 C599 0.961 . S
O603 Co578 1.967 . S
O603 C611 1.258 . S
O604 Co579 1.941 . S
O604 C611 1.266 . S
H605 C607 0.959 . S
H606 C607 0.961 . S
C607 C597 1.510 . S
C607 H605 0.959 . S
C607 H606 0.961 . S
C607 H608 0.960 . S
H608 C607 0.960 . S
H609 N589 0.862 . S
O610 Co578 1.920 . S
O610 C583 1.289 . S
C611 O603 1.258 . S
C611 O604 1.266 . S
Co612 O615 1.970 . S
Co612 N629 1.989 . S
Co612 O637 1.967 . S
Co612 O644 1.920 . S
Co613 O616 1.966 . S
Co613 N622 2.022 . S
Co613 N630 1.993 . S
Co613 O638 1.941 . S
C614 O615 1.258 . S
C614 O616 1.263 . S
O615 Co612 1.970 . S
O615 C614 1.258 . S
O616 Co613 1.966 . S
O616 C614 1.263 . S
C617 O618 1.235 . S
C617 O644 1.289 . S
O618 C617 1.235 . S
C619 C621 1.400 . S
C619 N622 1.351 . S
C619 C624 1.501 . S
C620 C621 1.387 . S
C620 N623 1.341 . S
C621 C619 1.400 . S
C621 C620 1.387 . S
N622 Co613 2.022 . S
N622 C619 1.351 . S
N622 N623 1.365 . S
N623 C620 1.341 . S
N623 N622 1.365 . S
N623 H643 0.862 . S
C624 C619 1.501 . S
C624 H625 0.961 . S
C624 H626 0.961 . S
C624 H627 0.960 . S
H625 C624 0.961 . S
H626 C624 0.961 . S
H627 C624 0.960 . S
C628 N629 1.342 . S
C628 C632 1.401 . S
C628 C633 1.499 . S
N629 Co612 1.989 . S
N629 C628 1.342 . S
N629 N630 1.388 . S
N630 Co613 1.993 . S
N630 N629 1.388 . S
N630 C631 1.346 . S
C631 N630 1.346 . S
C631 C632 1.396 . S
C631 C641 1.510 . S
C632 C628 1.401 . S
C632 C631 1.396 . S
C633 C628 1.499 . S
C633 H634 0.959 . S
C633 H635 0.960 . S
C633 H636 0.961 . S
H634 C633 0.959 . S
H635 C633 0.960 . S
H636 C633 0.961 . S
O637 Co612 1.967 . S
O637 C645 1.258 . S
O638 Co613 1.941 . S
O638 C645 1.266 . S
H639 C641 0.959 . S
H640 C641 0.961 . S
C641 C631 1.510 . S
C641 H639 0.959 . S
C641 H640 0.961 . S
C641 H642 0.960 . S
H642 C641 0.960 . S
H643 N623 0.862 . S
O644 Co612 1.920 . S
O644 C617 1.289 . S
C645 O637 1.258 . S
C645 O638 1.266 . S
Co646 O649 1.970 . S
Co646 N663 1.989 . S
Co646 O671 1.967 . S
Co646 O678 1.920 . S
Co647 O650 1.966 . S
Co647 N656 2.022 . S
Co647 N664 1.993 . S
Co647 O672 1.941 . S
C648 O649 1.258 . S
C648 O650 1.263 . S
O649 Co646 1.970 . S
O649 C648 1.258 . S
O650 Co647 1.966 . S
O650 C648 1.263 . S
C651 O652 1.235 . S
C651 O678 1.289 . S
O652 C651 1.235 . S
C653 C655 1.400 . S
C653 N656 1.351 . S
C653 C658 1.501 . S
C654 C655 1.387 . S
C654 N657 1.341 . S
C655 C653 1.400 . S
C655 C654 1.387 . S
N656 Co647 2.022 . S
N656 C653 1.351 . S
N656 N657 1.365 . S
N657 C654 1.341 . S
N657 N656 1.365 . S
N657 H677 0.862 . S
C658 C653 1.501 . S
C658 H659 0.961 . S
C658 H660 0.961 . S
C658 H661 0.960 . S
H659 C658 0.961 . S
H660 C658 0.961 . S
H661 C658 0.960 . S
C662 N663 1.342 . S
C662 C666 1.401 . S
C662 C667 1.499 . S
N663 Co646 1.989 . S
N663 C662 1.342 . S
N663 N664 1.388 . S
N664 Co647 1.993 . S
N664 N663 1.388 . S
N664 C665 1.346 . S
C665 N664 1.346 . S
C665 C666 1.396 . S
C665 C675 1.510 . S
C666 C662 1.401 . S
C666 C665 1.396 . S
C667 C662 1.499 . S
C667 H668 0.959 . S
C667 H669 0.960 . S
C667 H670 0.961 . S
H668 C667 0.959 . S
H669 C667 0.960 . S
H670 C667 0.961 . S
O671 Co646 1.967 . S
O671 C679 1.258 . S
O672 Co647 1.941 . S
O672 C679 1.266 . S
H673 C675 0.959 . S
H674 C675 0.961 . S
C675 C665 1.510 . S
C675 H673 0.959 . S
C675 H674 0.961 . S
C675 H676 0.960 . S
H676 C675 0.960 . S
H677 N657 0.862 . S
O678 Co646 1.920 . S
O678 C651 1.289 . S
C679 O671 1.258 . S
C679 O672 1.266 . S
Co680 O683 1.970 . S
Co680 N697 1.989 . S
Co680 O705 1.967 . S
Co680 O712 1.920 . S
Co681 O684 1.966 . S
Co681 N690 2.022 . S
Co681 N698 1.993 . S
Co681 O706 1.941 . S
C682 O683 1.258 . S
C682 O684 1.263 . S
O683 Co680 1.970 . S
O683 C682 1.258 . S
O684 Co681 1.966 . S
O684 C682 1.263 . S
C685 O686 1.235 . S
C685 O712 1.289 . S
O686 C685 1.235 . S
C687 C689 1.400 . S
C687 N690 1.351 . S
C687 C692 1.501 . S
C688 C689 1.387 . S
C688 N691 1.341 . S
C689 C687 1.400 . S
C689 C688 1.387 . S
N690 Co681 2.022 . S
N690 C687 1.351 . S
N690 N691 1.365 . S
N691 C688 1.341 . S
N691 N690 1.365 . S
N691 H711 0.862 . S
C692 C687 1.501 . S
C692 H693 0.961 . S
C692 H694 0.961 . S
C692 H695 0.960 . S
H693 C692 0.961 . S
H694 C692 0.961 . S
H695 C692 0.960 . S
C696 N697 1.342 . S
C696 C700 1.401 . S
C696 C701 1.499 . S
N697 Co680 1.989 . S
N697 C696 1.342 . S
N697 N698 1.388 . S
N698 Co681 1.993 . S
N698 N697 1.388 . S
N698 C699 1.346 . S
C699 N698 1.346 . S
C699 C700 1.396 . S
C699 C709 1.510 . S
C700 C696 1.401 . S
C700 C699 1.396 . S
C701 C696 1.499 . S
C701 H702 0.959 . S
C701 H703 0.960 . S
C701 H704 0.961 . S
H702 C701 0.959 . S
H703 C701 0.960 . S
H704 C701 0.961 . S
O705 Co680 1.967 . S
O705 C713 1.258 . S
O706 Co681 1.941 . S
O706 C713 1.266 . S
H707 C709 0.959 . S
H708 C709 0.961 . S
C709 C699 1.510 . S
C709 H707 0.959 . S
C709 H708 0.961 . S
C709 H710 0.960 . S
H710 C709 0.960 . S
H711 N691 0.862 . S
O712 Co680 1.920 . S
O712 C685 1.289 . S
C713 O705 1.258 . S
C713 O706 1.266 . S
Co714 O717 1.970 . S
Co714 N731 1.989 . S
Co714 O739 1.967 . S
Co714 O746 1.920 . S
Co715 O718 1.966 . S
Co715 N724 2.022 . S
Co715 N732 1.993 . S
Co715 O740 1.941 . S
C716 O717 1.258 . S
C716 O718 1.263 . S
O717 Co714 1.970 . S
O717 C716 1.258 . S
O718 Co715 1.966 . S
O718 C716 1.263 . S
C719 O720 1.235 . S
C719 O746 1.289 . S
O720 C719 1.235 . S
C721 C723 1.400 . S
C721 N724 1.351 . S
C721 C726 1.501 . S
C722 C723 1.387 . S
C722 N725 1.341 . S
C723 C721 1.400 . S
C723 C722 1.387 . S
N724 Co715 2.022 . S
N724 C721 1.351 . S
N724 N725 1.365 . S
N725 C722 1.341 . S
N725 N724 1.365 . S
N725 H745 0.862 . S
C726 C721 1.501 . S
C726 H727 0.961 . S
C726 H728 0.961 . S
C726 H729 0.960 . S
H727 C726 0.961 . S
H728 C726 0.961 . S
H729 C726 0.960 . S
C730 N731 1.342 . S
C730 C734 1.401 . S
C730 C735 1.499 . S
N731 Co714 1.989 . S
N731 C730 1.342 . S
N731 N732 1.388 . S
N732 Co715 1.993 . S
N732 N731 1.388 . S
N732 C733 1.346 . S
C733 N732 1.346 . S
C733 C734 1.396 . S
C733 C743 1.510 . S
C734 C730 1.401 . S
C734 C733 1.396 . S
C735 C730 1.499 . S
C735 H736 0.959 . S
C735 H737 0.960 . S
C735 H738 0.961 . S
H736 C735 0.959 . S
H737 C735 0.960 . S
H738 C735 0.961 . S
O739 Co714 1.967 . S
O739 C747 1.258 . S
O740 Co715 1.941 . S
O740 C747 1.266 . S
H741 C743 0.959 . S
H742 C743 0.961 . S
C743 C733 1.510 . S
C743 H741 0.959 . S
C743 H742 0.961 . S
C743 H744 0.960 . S
H744 C743 0.960 . S
H745 N725 0.862 . S
O746 Co714 1.920 . S
O746 C719 1.289 . S
C747 O739 1.258 . S
C747 O740 1.266 . S
Co748 O751 1.970 . S
Co748 N765 1.989 . S
Co748 O773 1.967 . S
Co748 O780 1.920 . S
Co749 O752 1.966 . S
Co749 N758 2.022 . S
Co749 N766 1.993 . S
Co749 O774 1.941 . S
C750 O751 1.258 . S
C750 O752 1.263 . S
O751 Co748 1.970 . S
O751 C750 1.258 . S
O752 Co749 1.966 . S
O752 C750 1.263 . S
C753 O754 1.235 . S
C753 O780 1.289 . S
O754 C753 1.235 . S
C755 C757 1.400 . S
C755 N758 1.351 . S
C755 C760 1.501 . S
C756 C757 1.387 . S
C756 N759 1.341 . S
C757 C755 1.400 . S
C757 C756 1.387 . S
N758 Co749 2.022 . S
N758 C755 1.351 . S
N758 N759 1.365 . S
N759 C756 1.341 . S
N759 N758 1.365 . S
N759 H779 0.862 . S
C760 C755 1.501 . S
C760 H761 0.961 . S
C760 H762 0.961 . S
C760 H763 0.960 . S
H761 C760 0.961 . S
H762 C760 0.961 . S
H763 C760 0.960 . S
C764 N765 1.342 . S
C764 C768 1.401 . S
C764 C769 1.499 . S
N765 Co748 1.989 . S
N765 C764 1.342 . S
N765 N766 1.388 . S
N766 Co749 1.993 . S
N766 N765 1.388 . S
N766 C767 1.346 . S
C767 N766 1.346 . S
C767 C768 1.396 . S
C767 C777 1.510 . S
C768 C764 1.401 . S
C768 C767 1.396 . S
C769 C764 1.499 . S
C769 H770 0.959 . S
C769 H771 0.960 . S
C769 H772 0.961 . S
H770 C769 0.959 . S
H771 C769 0.960 . S
H772 C769 0.961 . S
O773 Co748 1.967 . S
O773 C781 1.258 . S
O774 Co749 1.941 . S
O774 C781 1.266 . S
H775 C777 0.959 . S
H776 C777 0.961 . S
C777 C767 1.510 . S
C777 H775 0.959 . S
C777 H776 0.961 . S
C777 H778 0.960 . S
H778 C777 0.960 . S
H779 N759 0.862 . S
O780 Co748 1.920 . S
O780 C753 1.289 . S
C781 O773 1.258 . S
C781 O774 1.266 . S
Co782 O785 1.970 . S
Co782 N799 1.989 . S
Co782 O807 1.967 . S
Co782 O814 1.920 . S
Co783 O786 1.966 . S
Co783 N792 2.022 . S
Co783 N800 1.993 . S
Co783 O808 1.941 . S
C784 O785 1.258 . S
C784 O786 1.263 . S
O785 Co782 1.970 . S
O785 C784 1.258 . S
O786 Co783 1.966 . S
O786 C784 1.263 . S
C787 O788 1.235 . S
C787 O814 1.289 . S
O788 C787 1.235 . S
C789 C791 1.400 . S
C789 N792 1.351 . S
C789 C794 1.501 . S
C790 C791 1.387 . S
C790 N793 1.341 . S
C791 C789 1.400 . S
C791 C790 1.387 . S
N792 Co783 2.022 . S
N792 C789 1.351 . S
N792 N793 1.365 . S
N793 C790 1.341 . S
N793 N792 1.365 . S
N793 H813 0.862 . S
C794 C789 1.501 . S
C794 H795 0.961 . S
C794 H796 0.961 . S
C794 H797 0.960 . S
H795 C794 0.961 . S
H796 C794 0.961 . S
H797 C794 0.960 . S
C798 N799 1.342 . S
C798 C802 1.401 . S
C798 C803 1.499 . S
N799 Co782 1.989 . S
N799 C798 1.342 . S
N799 N800 1.388 . S
N800 Co783 1.993 . S
N800 N799 1.388 . S
N800 C801 1.346 . S
C801 N800 1.346 . S
C801 C802 1.396 . S
C801 C811 1.510 . S
C802 C798 1.401 . S
C802 C801 1.396 . S
C803 C798 1.499 . S
C803 H804 0.959 . S
C803 H805 0.960 . S
C803 H806 0.961 . S
H804 C803 0.959 . S
H805 C803 0.960 . S
H806 C803 0.961 . S
O807 Co782 1.967 . S
O807 C815 1.258 . S
O808 Co783 1.941 . S
O808 C815 1.266 . S
H809 C811 0.959 . S
H810 C811 0.961 . S
C811 C801 1.510 . S
C811 H809 0.959 . S
C811 H810 0.961 . S
C811 H812 0.960 . S
H812 C811 0.960 . S
H813 N793 0.862 . S
O814 Co782 1.920 . S
O814 C787 1.289 . S
C815 O807 1.258 . S
C815 O808 1.266 . S
Co816 O819 1.970 . S
Co816 N833 1.989 . S
Co816 O841 1.967 . S
Co816 O848 1.920 . S
Co817 O820 1.966 . S
Co817 N826 2.022 . S
Co817 N834 1.993 . S
Co817 O842 1.941 . S
C818 O819 1.258 . S
C818 O820 1.263 . S
O819 Co816 1.970 . S
O819 C818 1.258 . S
O820 Co817 1.966 . S
O820 C818 1.263 . S
C821 O822 1.235 . S
C821 O848 1.289 . S
O822 C821 1.235 . S
C823 C825 1.400 . S
C823 N826 1.351 . S
C823 C828 1.501 . S
C824 C825 1.387 . S
C824 N827 1.341 . S
C825 C823 1.400 . S
C825 C824 1.387 . S
N826 Co817 2.022 . S
N826 C823 1.351 . S
N826 N827 1.365 . S
N827 C824 1.341 . S
N827 N826 1.365 . S
N827 H847 0.862 . S
C828 C823 1.501 . S
C828 H829 0.961 . S
C828 H830 0.961 . S
C828 H831 0.960 . S
H829 C828 0.961 . S
H830 C828 0.961 . S
H831 C828 0.960 . S
C832 N833 1.342 . S
C832 C836 1.401 . S
C832 C837 1.499 . S
N833 Co816 1.989 . S
N833 C832 1.342 . S
N833 N834 1.388 . S
N834 Co817 1.993 . S
N834 N833 1.388 . S
N834 C835 1.346 . S
C835 N834 1.346 . S
C835 C836 1.396 . S
C835 C845 1.510 . S
C836 C832 1.401 . S
C836 C835 1.396 . S
C837 C832 1.499 . S
C837 H838 0.959 . S
C837 H839 0.960 . S
C837 H840 0.961 . S
H838 C837 0.959 . S
H839 C837 0.960 . S
H840 C837 0.961 . S
O841 Co816 1.967 . S
O841 C849 1.258 . S
O842 Co817 1.941 . S
O842 C849 1.266 . S
H843 C845 0.959 . S
H844 C845 0.961 . S
C845 C835 1.510 . S
C845 H843 0.959 . S
C845 H844 0.961 . S
C845 H846 0.960 . S
H846 C845 0.960 . S
H847 N827 0.862 . S
O848 Co816 1.920 . S
O848 C821 1.289 . S
C849 O841 1.258 . S
C849 O842 1.266 . S
Co850 O853 1.970 . S
Co850 N867 1.989 . S
Co850 O875 1.967 . S
Co850 O882 1.920 . S
Co851 O854 1.966 . S
Co851 N860 2.022 . S
Co851 N868 1.993 . S
Co851 O876 1.941 . S
C852 O853 1.258 . S
C852 O854 1.263 . S
O853 Co850 1.970 . S
O853 C852 1.258 . S
O854 Co851 1.966 . S
O854 C852 1.263 . S
C855 O856 1.235 . S
C855 O882 1.289 . S
O856 C855 1.235 . S
C857 C859 1.400 . S
C857 N860 1.351 . S
C857 C862 1.501 . S
C858 C859 1.387 . S
C858 N861 1.341 . S
C859 C857 1.400 . S
C859 C858 1.387 . S
N860 Co851 2.022 . S
N860 C857 1.351 . S
N860 N861 1.365 . S
N861 C858 1.341 . S
N861 N860 1.365 . S
N861 H881 0.862 . S
C862 C857 1.501 . S
C862 H863 0.961 . S
C862 H864 0.961 . S
C862 H865 0.960 . S
H863 C862 0.961 . S
H864 C862 0.961 . S
H865 C862 0.960 . S
C866 N867 1.342 . S
C866 C870 1.401 . S
C866 C871 1.499 . S
N867 Co850 1.989 . S
N867 C866 1.342 . S
N867 N868 1.388 . S
N868 Co851 1.993 . S
N868 N867 1.388 . S
N868 C869 1.346 . S
C869 N868 1.346 . S
C869 C870 1.396 . S
C869 C879 1.510 . S
C870 C866 1.401 . S
C870 C869 1.396 . S
C871 C866 1.499 . S
C871 H872 0.959 . S
C871 H873 0.960 . S
C871 H874 0.961 . S
H872 C871 0.959 . S
H873 C871 0.960 . S
H874 C871 0.961 . S
O875 Co850 1.967 . S
O875 C883 1.258 . S
O876 Co851 1.941 . S
O876 C883 1.266 . S
H877 C879 0.959 . S
H878 C879 0.961 . S
C879 C869 1.510 . S
C879 H877 0.959 . S
C879 H878 0.961 . S
C879 H880 0.960 . S
H880 C879 0.960 . S
H881 N861 0.862 . S
O882 Co850 1.920 . S
O882 C855 1.289 . S
C883 O875 1.258 . S
C883 O876 1.266 . S
Co884 O887 1.970 . S
Co884 N901 1.989 . S
Co884 O909 1.967 . S
Co884 O916 1.920 . S
Co885 O888 1.966 . S
Co885 N894 2.022 . S
Co885 N902 1.993 . S
Co885 O910 1.941 . S
C886 O887 1.258 . S
C886 O888 1.263 . S
O887 Co884 1.970 . S
O887 C886 1.258 . S
O888 Co885 1.966 . S
O888 C886 1.263 . S
C889 O890 1.235 . S
C889 O916 1.289 . S
O890 C889 1.235 . S
C891 C893 1.400 . S
C891 N894 1.351 . S
C891 C896 1.501 . S
C892 C893 1.387 . S
C892 N895 1.341 . S
C893 C891 1.400 . S
C893 C892 1.387 . S
N894 Co885 2.022 . S
N894 C891 1.351 . S
N894 N895 1.365 . S
N895 C892 1.341 . S
N895 N894 1.365 . S
N895 H915 0.862 . S
C896 C891 1.501 . S
C896 H897 0.961 . S
C896 H898 0.961 . S
C896 H899 0.960 . S
H897 C896 0.961 . S
H898 C896 0.961 . S
H899 C896 0.960 . S
C900 N901 1.342 . S
C900 C904 1.401 . S
C900 C905 1.499 . S
N901 Co884 1.989 . S
N901 C900 1.342 . S
N901 N902 1.388 . S
N902 Co885 1.993 . S
N902 N901 1.388 . S
N902 C903 1.346 . S
C903 N902 1.346 . S
C903 C904 1.396 . S
C903 C913 1.510 . S
C904 C900 1.401 . S
C904 C903 1.396 . S
C905 C900 1.499 . S
C905 H906 0.959 . S
C905 H907 0.960 . S
C905 H908 0.961 . S
H906 C905 0.959 . S
H907 C905 0.960 . S
H908 C905 0.961 . S
O909 Co884 1.967 . S
O909 C917 1.258 . S
O910 Co885 1.941 . S
O910 C917 1.266 . S
H911 C913 0.959 . S
H912 C913 0.961 . S
C913 C903 1.510 . S
C913 H911 0.959 . S
C913 H912 0.961 . S
C913 H914 0.960 . S
H914 C913 0.960 . S
H915 N895 0.862 . S
O916 Co884 1.920 . S
O916 C889 1.289 . S
C917 O909 1.258 . S
C917 O910 1.266 . S
Co918 O921 1.970 . S
Co918 N935 1.989 . S
Co918 O943 1.967 . S
Co918 O950 1.920 . S
Co919 O922 1.966 . S
Co919 N928 2.022 . S
Co919 N936 1.993 . S
Co919 O944 1.941 . S
C920 O921 1.258 . S
C920 O922 1.263 . S
O921 Co918 1.970 . S
O921 C920 1.258 . S
O922 Co919 1.966 . S
O922 C920 1.263 . S
C923 O924 1.235 . S
C923 O950 1.289 . S
O924 C923 1.235 . S
C925 C927 1.400 . S
C925 N928 1.351 . S
C925 C930 1.501 . S
C926 C927 1.387 . S
C926 N929 1.341 . S
C927 C925 1.400 . S
C927 C926 1.387 . S
N928 Co919 2.022 . S
N928 C925 1.351 . S
N928 N929 1.365 . S
N929 C926 1.341 . S
N929 N928 1.365 . S
N929 H949 0.862 . S
C930 C925 1.501 . S
C930 H931 0.961 . S
C930 H932 0.961 . S
C930 H933 0.960 . S
H931 C930 0.961 . S
H932 C930 0.961 . S
H933 C930 0.960 . S
C934 N935 1.342 . S
C934 C938 1.401 . S
C934 C939 1.499 . S
N935 Co918 1.989 . S
N935 C934 1.342 . S
N935 N936 1.388 . S
N936 Co919 1.993 . S
N936 N935 1.388 . S
N936 C937 1.346 . S
C937 N936 1.346 . S
C937 C938 1.396 . S
C937 C947 1.510 . S
C938 C934 1.401 . S
C938 C937 1.396 . S
C939 C934 1.499 . S
C939 H940 0.959 . S
C939 H941 0.960 . S
C939 H942 0.961 . S
H940 C939 0.959 . S
H941 C939 0.960 . S
H942 C939 0.961 . S
O943 Co918 1.967 . S
O943 C951 1.258 . S
O944 Co919 1.941 . S
O944 C951 1.266 . S
H945 C947 0.959 . S
H946 C947 0.961 . S
C947 C937 1.510 . S
C947 H945 0.959 . S
C947 H946 0.961 . S
C947 H948 0.960 . S
H948 C947 0.960 . S
H949 N929 0.862 . S
O950 Co918 1.920 . S
O950 C923 1.289 . S
C951 O943 1.258 . S
C951 O944 1.266 . S
Co952 O955 1.970 . S
Co952 N969 1.989 . S
Co952 O977 1.967 . S
Co952 O984 1.920 . S
Co953 O956 1.966 . S
Co953 N962 2.022 . S
Co953 N970 1.993 . S
Co953 O978 1.941 . S
C954 O955 1.258 . S
C954 O956 1.263 . S
O955 Co952 1.970 . S
O955 C954 1.258 . S
O956 Co953 1.966 . S
O956 C954 1.263 . S
C957 O958 1.235 . S
C957 O984 1.289 . S
O958 C957 1.235 . S
C959 C961 1.400 . S
C959 N962 1.351 . S
C959 C964 1.501 . S
C960 C961 1.387 . S
C960 N963 1.341 . S
C961 C959 1.400 . S
C961 C960 1.387 . S
N962 Co953 2.022 . S
N962 C959 1.351 . S
N962 N963 1.365 . S
N963 C960 1.341 . S
N963 N962 1.365 . S
N963 H983 0.862 . S
C964 C959 1.501 . S
C964 H965 0.961 . S
C964 H966 0.961 . S
C964 H967 0.960 . S
H965 C964 0.961 . S
H966 C964 0.961 . S
H967 C964 0.960 . S
C968 N969 1.342 . S
C968 C972 1.401 . S
C968 C973 1.499 . S
N969 Co952 1.989 . S
N969 C968 1.342 . S
N969 N970 1.388 . S
N970 Co953 1.993 . S
N970 N969 1.388 . S
N970 C971 1.346 . S
C971 N970 1.346 . S
C971 C972 1.396 . S
C971 C981 1.510 . S
C972 C968 1.401 . S
C972 C971 1.396 . S
C973 C968 1.499 . S
C973 H974 0.959 . S
C973 H975 0.960 . S
C973 H976 0.961 . S
H974 C973 0.959 . S
H975 C973 0.960 . S
H976 C973 0.961 . S
O977 Co952 1.967 . S
O977 C985 1.258 . S
O978 Co953 1.941 . S
O978 C985 1.266 . S
H979 C981 0.959 . S
H980 C981 0.961 . S
C981 C971 1.510 . S
C981 H979 0.959 . S
C981 H980 0.961 . S
C981 H982 0.960 . S
H982 C981 0.960 . S
H983 N963 0.862 . S
O984 Co952 1.920 . S
O984 C957 1.289 . S
C985 O977 1.258 . S
C985 O978 1.266 . S
Co986 O989 1.970 . S
Co986 N1003 1.989 . S
Co986 O1011 1.967 . S
Co986 O1018 1.920 . S
Co987 O990 1.966 . S
Co987 N996 2.022 . S
Co987 N1004 1.993 . S
Co987 O1012 1.941 . S
C988 O989 1.258 . S
C988 O990 1.263 . S
O989 Co986 1.970 . S
O989 C988 1.258 . S
O990 Co987 1.966 . S
O990 C988 1.263 . S
C991 O992 1.235 . S
C991 O1018 1.289 . S
O992 C991 1.235 . S
C993 C995 1.400 . S
C993 N996 1.351 . S
C993 C998 1.501 . S
C994 C995 1.387 . S
C994 N997 1.341 . S
C995 C993 1.400 . S
C995 C994 1.387 . S
N996 Co987 2.022 . S
N996 C993 1.351 . S
N996 N997 1.365 . S
N997 C994 1.341 . S
N997 N996 1.365 . S
N997 H1017 0.862 . S
C998 C993 1.501 . S
C998 H999 0.961 . S
C998 H1000 0.961 . S
C998 H1001 0.960 . S
H999 C998 0.961 . S
H1000 C998 0.961 . S
H1001 C998 0.960 . S
C1002 N1003 1.342 . S
C1002 C1006 1.401 . S
C1002 C1007 1.499 . S
N1003 Co986 1.989 . S
N1003 C1002 1.342 . S
N1003 N1004 1.388 . S
N1004 Co987 1.993 . S
N1004 N1003 1.388 . S
N1004 C1005 1.346 . S
C1005 N1004 1.346 . S
C1005 C1006 1.396 . S
C1005 C1015 1.510 . S
C1006 C1002 1.401 . S
C1006 C1005 1.396 . S
C1007 C1002 1.499 . S
C1007 H1008 0.959 . S
C1007 H1009 0.960 . S
C1007 H1010 0.961 . S
H1008 C1007 0.959 . S
H1009 C1007 0.960 . S
H1010 C1007 0.961 . S
O1011 Co986 1.967 . S
O1011 C1019 1.258 . S
O1012 Co987 1.941 . S
O1012 C1019 1.266 . S
H1013 C1015 0.959 . S
H1014 C1015 0.961 . S
C1015 C1005 1.510 . S
C1015 H1013 0.959 . S
C1015 H1014 0.961 . S
C1015 H1016 0.960 . S
H1016 C1015 0.960 . S
H1017 N997 0.862 . S
O1018 Co986 1.920 . S
O1018 C991 1.289 . S
C1019 O1011 1.258 . S
C1019 O1012 1.266 . S
Co1020 O1023 1.970 . S
Co1020 N1037 1.989 . S
Co1020 O1045 1.967 . S
Co1020 O1052 1.920 . S
Co1021 O1024 1.966 . S
Co1021 N1030 2.022 . S
Co1021 N1038 1.993 . S
Co1021 O1046 1.941 . S
C1022 O1023 1.258 . S
C1022 O1024 1.263 . S
O1023 Co1020 1.970 . S
O1023 C1022 1.258 . S
O1024 Co1021 1.966 . S
O1024 C1022 1.263 . S
C1025 O1026 1.235 . S
C1025 O1052 1.289 . S
O1026 C1025 1.235 . S
C1027 C1029 1.400 . S
C1027 N1030 1.351 . S
C1027 C1032 1.501 . S
C1028 C1029 1.387 . S
C1028 N1031 1.341 . S
C1029 C1027 1.400 . S
C1029 C1028 1.387 . S
N1030 Co1021 2.022 . S
N1030 C1027 1.351 . S
N1030 N1031 1.365 . S
N1031 C1028 1.341 . S
N1031 N1030 1.365 . S
N1031 H1051 0.862 . S
C1032 C1027 1.501 . S
C1032 H1033 0.961 . S
C1032 H1034 0.961 . S
C1032 H1035 0.960 . S
H1033 C1032 0.961 . S
H1034 C1032 0.961 . S
H1035 C1032 0.960 . S
C1036 N1037 1.342 . S
C1036 C1040 1.401 . S
C1036 C1041 1.499 . S
N1037 Co1020 1.989 . S
N1037 C1036 1.342 . S
N1037 N1038 1.388 . S
N1038 Co1021 1.993 . S
N1038 N1037 1.388 . S
N1038 C1039 1.346 . S
C1039 N1038 1.346 . S
C1039 C1040 1.396 . S
C1039 C1049 1.510 . S
C1040 C1036 1.401 . S
C1040 C1039 1.396 . S
C1041 C1036 1.499 . S
C1041 H1042 0.959 . S
C1041 H1043 0.960 . S
C1041 H1044 0.961 . S
H1042 C1041 0.959 . S
H1043 C1041 0.960 . S
H1044 C1041 0.961 . S
O1045 Co1020 1.967 . S
O1045 C1053 1.258 . S
O1046 Co1021 1.941 . S
O1046 C1053 1.266 . S
H1047 C1049 0.959 . S
H1048 C1049 0.961 . S
C1049 C1039 1.510 . S
C1049 H1047 0.959 . S
C1049 H1048 0.961 . S
C1049 H1050 0.960 . S
H1050 C1049 0.960 . S
H1051 N1031 0.862 . S
O1052 Co1020 1.920 . S
O1052 C1025 1.289 . S
C1053 O1045 1.258 . S
C1053 O1046 1.266 . S
Co1054 O1057 1.970 . S
Co1054 N1071 1.989 . S
Co1054 O1079 1.967 . S
Co1054 O1086 1.920 . S
Co1055 O1058 1.966 . S
Co1055 N1064 2.022 . S
Co1055 N1072 1.993 . S
Co1055 O1080 1.941 . S
C1056 O1057 1.258 . S
C1056 O1058 1.263 . S
O1057 Co1054 1.970 . S
O1057 C1056 1.258 . S
O1058 Co1055 1.966 . S
O1058 C1056 1.263 . S
C1059 O1060 1.235 . S
C1059 O1086 1.289 . S
O1060 C1059 1.235 . S
C1061 C1063 1.400 . S
C1061 N1064 1.351 . S
C1061 C1066 1.501 . S
C1062 C1063 1.387 . S
C1062 N1065 1.341 . S
C1063 C1061 1.400 . S
C1063 C1062 1.387 . S
N1064 Co1055 2.022 . S
N1064 C1061 1.351 . S
N1064 N1065 1.365 . S
N1065 C1062 1.341 . S
N1065 N1064 1.365 . S
N1065 H1085 0.862 . S
C1066 C1061 1.501 . S
C1066 H1067 0.961 . S
C1066 H1068 0.961 . S
C1066 H1069 0.960 . S
H1067 C1066 0.961 . S
H1068 C1066 0.961 . S
H1069 C1066 0.960 . S
C1070 N1071 1.342 . S
C1070 C1074 1.401 . S
C1070 C1075 1.499 . S
N1071 Co1054 1.989 . S
N1071 C1070 1.342 . S
N1071 N1072 1.388 . S
N1072 Co1055 1.993 . S
N1072 N1071 1.388 . S
N1072 C1073 1.346 . S
C1073 N1072 1.346 . S
C1073 C1074 1.396 . S
C1073 C1083 1.510 . S
C1074 C1070 1.401 . S
C1074 C1073 1.396 . S
C1075 C1070 1.499 . S
C1075 H1076 0.959 . S
C1075 H1077 0.960 . S
C1075 H1078 0.961 . S
H1076 C1075 0.959 . S
H1077 C1075 0.960 . S
H1078 C1075 0.961 . S
O1079 Co1054 1.967 . S
O1079 C1087 1.258 . S
O1080 Co1055 1.941 . S
O1080 C1087 1.266 . S
H1081 C1083 0.959 . S
H1082 C1083 0.961 . S
C1083 C1073 1.510 . S
C1083 H1081 0.959 . S
C1083 H1082 0.961 . S
C1083 H1084 0.960 . S
H1084 C1083 0.960 . S
H1085 N1065 0.862 . S
O1086 Co1054 1.920 . S
O1086 C1059 1.289 . S
C1087 O1079 1.258 . S
C1087 O1080 1.266 . S
Co1088 O1091 1.970 . S
Co1088 N1105 1.989 . S
Co1088 O1113 1.967 . S
Co1088 O1120 1.920 . S
Co1089 O1092 1.966 . S
Co1089 N1098 2.022 . S
Co1089 N1106 1.993 . S
Co1089 O1114 1.941 . S
C1090 O1091 1.258 . S
C1090 O1092 1.263 . S
O1091 Co1088 1.970 . S
O1091 C1090 1.258 . S
O1092 Co1089 1.966 . S
O1092 C1090 1.263 . S
C1093 O1094 1.235 . S
C1093 O1120 1.289 . S
O1094 C1093 1.235 . S
C1095 C1097 1.400 . S
C1095 N1098 1.351 . S
C1095 C1100 1.501 . S
C1096 C1097 1.387 . S
C1096 N1099 1.341 . S
C1097 C1095 1.400 . S
C1097 C1096 1.387 . S
N1098 Co1089 2.022 . S
N1098 C1095 1.351 . S
N1098 N1099 1.365 . S
N1099 C1096 1.341 . S
N1099 N1098 1.365 . S
N1099 H1119 0.862 . S
C1100 C1095 1.501 . S
C1100 H1101 0.961 . S
C1100 H1102 0.961 . S
C1100 H1103 0.960 . S
H1101 C1100 0.961 . S
H1102 C1100 0.961 . S
H1103 C1100 0.960 . S
C1104 N1105 1.342 . S
C1104 C1108 1.401 . S
C1104 C1109 1.499 . S
N1105 Co1088 1.989 . S
N1105 C1104 1.342 . S
N1105 N1106 1.388 . S
N1106 Co1089 1.993 . S
N1106 N1105 1.388 . S
N1106 C1107 1.346 . S
C1107 N1106 1.346 . S
C1107 C1108 1.396 . S
C1107 C1117 1.510 . S
C1108 C1104 1.401 . S
C1108 C1107 1.396 . S
C1109 C1104 1.499 . S
C1109 H1110 0.959 . S
C1109 H1111 0.960 . S
C1109 H1112 0.961 . S
H1110 C1109 0.959 . S
H1111 C1109 0.960 . S
H1112 C1109 0.961 . S
O1113 Co1088 1.967 . S
O1113 C1121 1.258 . S
O1114 Co1089 1.941 . S
O1114 C1121 1.266 . S
H1115 C1117 0.959 . S
H1116 C1117 0.961 . S
C1117 C1107 1.510 . S
C1117 H1115 0.959 . S
C1117 H1116 0.961 . S
C1117 H1118 0.960 . S
H1118 C1117 0.960 . S
H1119 N1099 0.862 . S
O1120 Co1088 1.920 . S
O1120 C1093 1.289 . S
C1121 O1113 1.258 . S
C1121 O1114 1.266 . S
Co1122 O1125 1.970 . S
Co1122 N1139 1.989 . S
Co1122 O1147 1.967 . S
Co1122 O1154 1.920 . S
Co1123 O1126 1.966 . S
Co1123 N1132 2.022 . S
Co1123 N1140 1.993 . S
Co1123 O1148 1.941 . S
C1124 O1125 1.258 . S
C1124 O1126 1.263 . S
O1125 Co1122 1.970 . S
O1125 C1124 1.258 . S
O1126 Co1123 1.966 . S
O1126 C1124 1.263 . S
C1127 O1128 1.235 . S
C1127 O1154 1.289 . S
O1128 C1127 1.235 . S
C1129 C1131 1.400 1_655 S
C1129 N1132 1.351 . S
C1129 C1134 1.501 . S
C1130 C1131 1.387 1_655 S
C1130 N1133 1.341 . S
C1131 C1129 1.400 1_455 S
C1131 C1130 1.387 1_455 S
N1132 Co1123 2.022 . S
N1132 C1129 1.351 . S
N1132 N1133 1.365 . S
N1133 C1130 1.341 . S
N1133 N1132 1.365 . S
N1133 H1153 0.862 . S
C1134 C1129 1.501 . S
C1134 H1135 0.961 . S
C1134 H1136 0.961 . S
C1134 H1137 0.960 . S
H1135 C1134 0.961 . S
H1136 C1134 0.961 . S
H1137 C1134 0.960 . S
C1138 N1139 1.342 . S
C1138 C1142 1.401 . S
C1138 C1143 1.499 . S
N1139 Co1122 1.989 . S
N1139 C1138 1.342 . S
N1139 N1140 1.388 . S
N1140 Co1123 1.993 . S
N1140 N1139 1.388 . S
N1140 C1141 1.346 . S
C1141 N1140 1.346 . S
C1141 C1142 1.396 . S
C1141 C1151 1.510 . S
C1142 C1138 1.401 . S
C1142 C1141 1.396 . S
C1143 C1138 1.499 . S
C1143 H1144 0.959 . S
C1143 H1145 0.960 . S
C1143 H1146 0.961 . S
H1144 C1143 0.959 . S
H1145 C1143 0.960 . S
H1146 C1143 0.961 . S
O1147 Co1122 1.967 . S
O1147 C1155 1.258 . S
O1148 Co1123 1.941 . S
O1148 C1155 1.266 . S
H1149 C1151 0.959 . S
H1150 C1151 0.961 . S
C1151 C1141 1.510 . S
C1151 H1149 0.959 . S
C1151 H1150 0.961 . S
C1151 H1152 0.960 . S
H1152 C1151 0.960 . S
H1153 N1133 0.862 . S
O1154 Co1122 1.920 . S
O1154 C1127 1.289 . S
C1155 O1147 1.258 . S
C1155 O1148 1.266 . S
Co1156 O1159 1.970 . S
Co1156 N1173 1.989 . S
Co1156 O1181 1.967 . S
Co1156 O1188 1.920 . S
Co1157 O1160 1.966 . S
Co1157 N1166 2.022 . S
Co1157 N1174 1.993 . S
Co1157 O1182 1.941 . S
C1158 O1159 1.258 . S
C1158 O1160 1.263 . S
O1159 Co1156 1.970 . S
O1159 C1158 1.258 . S
O1160 Co1157 1.966 . S
O1160 C1158 1.263 . S
C1161 O1162 1.235 . S
C1161 O1188 1.289 . S
O1162 C1161 1.235 . S
C1163 C1165 1.400 . S
C1163 N1166 1.351 . S
C1163 C1168 1.501 . S
C1164 C1165 1.387 . S
C1164 N1167 1.341 . S
C1165 C1163 1.400 . S
C1165 C1164 1.387 . S
N1166 Co1157 2.022 . S
N1166 C1163 1.351 . S
N1166 N1167 1.365 . S
N1167 C1164 1.341 . S
N1167 N1166 1.365 . S
N1167 H1187 0.862 . S
C1168 C1163 1.501 . S
C1168 H1169 0.961 . S
C1168 H1170 0.961 . S
C1168 H1171 0.960 . S
H1169 C1168 0.961 . S
H1170 C1168 0.961 . S
H1171 C1168 0.960 . S
C1172 N1173 1.342 . S
C1172 C1176 1.401 . S
C1172 C1177 1.499 . S
N1173 Co1156 1.989 . S
N1173 C1172 1.342 . S
N1173 N1174 1.388 . S
N1174 Co1157 1.993 . S
N1174 N1173 1.388 . S
N1174 C1175 1.346 . S
C1175 N1174 1.346 . S
C1175 C1176 1.396 . S
C1175 C1185 1.510 . S
C1176 C1172 1.401 . S
C1176 C1175 1.396 . S
C1177 C1172 1.499 . S
C1177 H1178 0.959 . S
C1177 H1179 0.960 . S
C1177 H1180 0.961 . S
H1178 C1177 0.959 . S
H1179 C1177 0.960 . S
H1180 C1177 0.961 . S
O1181 Co1156 1.967 . S
O1181 C1189 1.258 . S
O1182 Co1157 1.941 . S
O1182 C1189 1.266 . S
H1183 C1185 0.959 . S
H1184 C1185 0.961 . S
C1185 C1175 1.510 . S
C1185 H1183 0.959 . S
C1185 H1184 0.961 . S
C1185 H1186 0.960 . S
H1186 C1185 0.960 . S
H1187 N1167 0.862 . S
O1188 Co1156 1.920 . S
O1188 C1161 1.289 . S
C1189 O1181 1.258 . S
C1189 O1182 1.266 . S
Co1190 O1193 1.970 . S
Co1190 N1207 1.989 . S
Co1190 O1215 1.967 . S
Co1190 O1222 1.920 . S
Co1191 O1194 1.966 . S
Co1191 N1200 2.022 . S
Co1191 N1208 1.993 . S
Co1191 O1216 1.941 . S
C1192 O1193 1.258 . S
C1192 O1194 1.263 . S
O1193 Co1190 1.970 . S
O1193 C1192 1.258 . S
O1194 Co1191 1.966 . S
O1194 C1192 1.263 . S
C1195 O1196 1.235 . S
C1195 O1222 1.289 . S
O1196 C1195 1.235 . S
C1197 C1199 1.400 . S
C1197 N1200 1.351 . S
C1197 C1202 1.501 . S
C1198 C1199 1.387 . S
C1198 N1201 1.341 . S
C1199 C1197 1.400 . S
C1199 C1198 1.387 . S
N1200 Co1191 2.022 . S
N1200 C1197 1.351 . S
N1200 N1201 1.365 . S
N1201 C1198 1.341 . S
N1201 N1200 1.365 . S
N1201 H1221 0.862 . S
C1202 C1197 1.501 . S
C1202 H1203 0.961 . S
C1202 H1204 0.961 . S
C1202 H1205 0.960 . S
H1203 C1202 0.961 . S
H1204 C1202 0.961 . S
H1205 C1202 0.960 . S
C1206 N1207 1.342 . S
C1206 C1210 1.401 . S
C1206 C1211 1.499 . S
N1207 Co1190 1.989 . S
N1207 C1206 1.342 . S
N1207 N1208 1.388 . S
N1208 Co1191 1.993 . S
N1208 N1207 1.388 . S
N1208 C1209 1.346 . S
C1209 N1208 1.346 . S
C1209 C1210 1.396 . S
C1209 C1219 1.510 . S
C1210 C1206 1.401 . S
C1210 C1209 1.396 . S
C1211 C1206 1.499 . S
C1211 H1212 0.959 . S
C1211 H1213 0.960 . S
C1211 H1214 0.961 . S
H1212 C1211 0.959 . S
H1213 C1211 0.960 . S
H1214 C1211 0.961 . S
O1215 Co1190 1.967 . S
O1215 C1223 1.258 . S
O1216 Co1191 1.941 . S
O1216 C1223 1.266 . S
H1217 C1219 0.959 . S
H1218 C1219 0.961 . S
C1219 C1209 1.510 . S
C1219 H1217 0.959 . S
C1219 H1218 0.961 . S
C1219 H1220 0.960 . S
H1220 C1219 0.960 . S
H1221 N1201 0.862 . S
O1222 Co1190 1.920 . S
O1222 C1195 1.289 . S
C1223 O1215 1.258 . S
C1223 O1216 1.266 . S
Co1224 O1227 1.970 . S
Co1224 N1241 1.989 . S
Co1224 O1249 1.967 . S
Co1224 O1256 1.920 . S
Co1225 O1228 1.966 . S
Co1225 N1234 2.022 . S
Co1225 N1242 1.993 . S
Co1225 O1250 1.941 . S
C1226 O1227 1.258 . S
C1226 O1228 1.263 . S
O1227 Co1224 1.970 . S
O1227 C1226 1.258 . S
O1228 Co1225 1.966 . S
O1228 C1226 1.263 . S
C1229 O1230 1.235 . S
C1229 O1256 1.289 . S
O1230 C1229 1.235 . S
C1231 C1233 1.400 . S
C1231 N1234 1.351 . S
C1231 C1236 1.501 . S
C1232 C1233 1.387 . S
C1232 N1235 1.341 . S
C1233 C1231 1.400 . S
C1233 C1232 1.387 . S
N1234 Co1225 2.022 . S
N1234 C1231 1.351 . S
N1234 N1235 1.365 . S
N1235 C1232 1.341 . S
N1235 N1234 1.365 . S
N1235 H1255 0.862 . S
C1236 C1231 1.501 . S
C1236 H1237 0.961 . S
C1236 H1238 0.961 . S
C1236 H1239 0.960 . S
H1237 C1236 0.961 . S
H1238 C1236 0.961 . S
H1239 C1236 0.960 . S
C1240 N1241 1.342 . S
C1240 C1244 1.401 . S
C1240 C1245 1.499 . S
N1241 Co1224 1.989 . S
N1241 C1240 1.342 . S
N1241 N1242 1.388 . S
N1242 Co1225 1.993 . S
N1242 N1241 1.388 . S
N1242 C1243 1.346 . S
C1243 N1242 1.346 . S
C1243 C1244 1.396 . S
C1243 C1253 1.510 . S
C1244 C1240 1.401 . S
C1244 C1243 1.396 . S
C1245 C1240 1.499 . S
C1245 H1246 0.959 . S
C1245 H1247 0.960 . S
C1245 H1248 0.961 . S
H1246 C1245 0.959 . S
H1247 C1245 0.960 . S
H1248 C1245 0.961 . S
O1249 Co1224 1.967 . S
O1249 C1257 1.258 . S
O1250 Co1225 1.941 . S
O1250 C1257 1.266 . S
H1251 C1253 0.959 . S
H1252 C1253 0.961 . S
C1253 C1243 1.510 . S
C1253 H1251 0.959 . S
C1253 H1252 0.961 . S
C1253 H1254 0.960 . S
H1254 C1253 0.960 . S
H1255 N1235 0.862 . S
O1256 Co1224 1.920 . S
O1256 C1229 1.289 . S
C1257 O1249 1.258 . S
C1257 O1250 1.266 . S
Co1258 O1261 1.970 . S
Co1258 N1275 1.989 . S
Co1258 O1283 1.967 . S
Co1258 O1290 1.920 . S
Co1259 O1262 1.966 . S
Co1259 N1268 2.022 . S
Co1259 N1276 1.993 . S
Co1259 O1284 1.941 . S
C1260 O1261 1.258 . S
C1260 O1262 1.263 . S
O1261 Co1258 1.970 . S
O1261 C1260 1.258 . S
O1262 Co1259 1.966 . S
O1262 C1260 1.263 . S
C1263 O1264 1.235 . S
C1263 O1290 1.289 . S
O1264 C1263 1.235 . S
C1265 C1267 1.400 . S
C1265 N1268 1.351 . S
C1265 C1270 1.501 . S
C1266 C1267 1.387 . S
C1266 N1269 1.341 . S
C1267 C1265 1.400 . S
C1267 C1266 1.387 . S
N1268 Co1259 2.022 . S
N1268 C1265 1.351 . S
N1268 N1269 1.365 . S
N1269 C1266 1.341 . S
N1269 N1268 1.365 . S
N1269 H1289 0.862 . S
C1270 C1265 1.501 . S
C1270 H1271 0.961 . S
C1270 H1272 0.961 . S
C1270 H1273 0.960 . S
H1271 C1270 0.961 . S
H1272 C1270 0.961 . S
H1273 C1270 0.960 . S
C1274 N1275 1.342 . S
C1274 C1278 1.401 . S
C1274 C1279 1.499 . S
N1275 Co1258 1.989 . S
N1275 C1274 1.342 . S
N1275 N1276 1.388 . S
N1276 Co1259 1.993 . S
N1276 N1275 1.388 . S
N1276 C1277 1.346 . S
C1277 N1276 1.346 . S
C1277 C1278 1.396 . S
C1277 C1287 1.510 . S
C1278 C1274 1.401 . S
C1278 C1277 1.396 . S
C1279 C1274 1.499 . S
C1279 H1280 0.959 . S
C1279 H1281 0.960 . S
C1279 H1282 0.961 . S
H1280 C1279 0.959 . S
H1281 C1279 0.960 . S
H1282 C1279 0.961 . S
O1283 Co1258 1.967 . S
O1283 C1291 1.258 . S
O1284 Co1259 1.941 . S
O1284 C1291 1.266 . S
H1285 C1287 0.959 . S
H1286 C1287 0.961 . S
C1287 C1277 1.510 . S
C1287 H1285 0.959 . S
C1287 H1286 0.961 . S
C1287 H1288 0.960 . S
H1288 C1287 0.960 . S
H1289 N1269 0.862 . S
O1290 Co1258 1.920 . S
O1290 C1263 1.289 . S
C1291 O1283 1.258 . S
C1291 O1284 1.266 . S
Co1292 O1295 1.970 . S
Co1292 N1309 1.989 . S
Co1292 O1317 1.967 . S
Co1292 O1324 1.920 . S
Co1293 O1296 1.966 . S
Co1293 N1302 2.022 . S
Co1293 N1310 1.993 . S
Co1293 O1318 1.941 . S
C1294 O1295 1.258 . S
C1294 O1296 1.263 . S
O1295 Co1292 1.970 . S
O1295 C1294 1.258 . S
O1296 Co1293 1.966 . S
O1296 C1294 1.263 . S
C1297 O1298 1.235 . S
C1297 O1324 1.289 . S
O1298 C1297 1.235 . S
C1299 C1301 1.400 . S
C1299 N1302 1.351 . S
C1299 C1304 1.501 . S
C1300 C1301 1.387 . S
C1300 N1303 1.341 . S
C1301 C1299 1.400 . S
C1301 C1300 1.387 . S
N1302 Co1293 2.022 . S
N1302 C1299 1.351 . S
N1302 N1303 1.365 . S
N1303 C1300 1.341 . S
N1303 N1302 1.365 . S
N1303 H1323 0.862 . S
C1304 C1299 1.501 . S
C1304 H1305 0.961 . S
C1304 H1306 0.961 . S
C1304 H1307 0.960 . S
H1305 C1304 0.961 . S
H1306 C1304 0.961 . S
H1307 C1304 0.960 . S
C1308 N1309 1.342 . S
C1308 C1312 1.401 . S
C1308 C1313 1.499 . S
N1309 Co1292 1.989 . S
N1309 C1308 1.342 . S
N1309 N1310 1.388 . S
N1310 Co1293 1.993 . S
N1310 N1309 1.388 . S
N1310 C1311 1.346 . S
C1311 N1310 1.346 . S
C1311 C1312 1.396 . S
C1311 C1321 1.510 . S
C1312 C1308 1.401 . S
C1312 C1311 1.396 . S
C1313 C1308 1.499 . S
C1313 H1314 0.959 . S
C1313 H1315 0.960 . S
C1313 H1316 0.961 . S
H1314 C1313 0.959 . S
H1315 C1313 0.960 . S
H1316 C1313 0.961 . S
O1317 Co1292 1.967 . S
O1317 C1325 1.258 . S
O1318 Co1293 1.941 . S
O1318 C1325 1.266 . S
H1319 C1321 0.959 . S
H1320 C1321 0.961 . S
C1321 C1311 1.510 . S
C1321 H1319 0.959 . S
C1321 H1320 0.961 . S
C1321 H1322 0.960 . S
H1322 C1321 0.960 . S
H1323 N1303 0.862 . S
O1324 Co1292 1.920 . S
O1324 C1297 1.289 . S
C1325 O1317 1.258 . S
C1325 O1318 1.266 . S
Co1326 O1329 1.970 . S
Co1326 N1343 1.989 . S
Co1326 O1351 1.967 . S
Co1326 O1358 1.920 . S
Co1327 O1330 1.966 . S
Co1327 N1336 2.022 . S
Co1327 N1344 1.993 . S
Co1327 O1352 1.941 . S
C1328 O1329 1.258 . S
C1328 O1330 1.263 . S
O1329 Co1326 1.970 . S
O1329 C1328 1.258 . S
O1330 Co1327 1.966 . S
O1330 C1328 1.263 . S
C1331 O1332 1.235 . S
C1331 O1358 1.289 . S
O1332 C1331 1.235 . S
C1333 C1335 1.400 . S
C1333 N1336 1.351 . S
C1333 C1338 1.501 . S
C1334 C1335 1.387 . S
C1334 N1337 1.341 . S
C1335 C1333 1.400 . S
C1335 C1334 1.387 . S
N1336 Co1327 2.022 . S
N1336 C1333 1.351 . S
N1336 N1337 1.365 . S
N1337 C1334 1.341 . S
N1337 N1336 1.365 . S
N1337 H1357 0.862 . S
C1338 C1333 1.501 . S
C1338 H1339 0.961 . S
C1338 H1340 0.961 . S
C1338 H1341 0.960 . S
H1339 C1338 0.961 . S
H1340 C1338 0.961 . S
H1341 C1338 0.960 . S
C1342 N1343 1.342 . S
C1342 C1346 1.401 . S
C1342 C1347 1.499 . S
N1343 Co1326 1.989 . S
N1343 C1342 1.342 . S
N1343 N1344 1.388 . S
N1344 Co1327 1.993 . S
N1344 N1343 1.388 . S
N1344 C1345 1.346 . S
C1345 N1344 1.346 . S
C1345 C1346 1.396 . S
C1345 C1355 1.510 . S
C1346 C1342 1.401 . S
C1346 C1345 1.396 . S
C1347 C1342 1.499 . S
C1347 H1348 0.959 . S
C1347 H1349 0.960 . S
C1347 H1350 0.961 . S
H1348 C1347 0.959 . S
H1349 C1347 0.960 . S
H1350 C1347 0.961 . S
O1351 Co1326 1.967 . S
O1351 C1359 1.258 . S
O1352 Co1327 1.941 . S
O1352 C1359 1.266 . S
H1353 C1355 0.959 . S
H1354 C1355 0.961 . S
C1355 C1345 1.510 . S
C1355 H1353 0.959 . S
C1355 H1354 0.961 . S
C1355 H1356 0.960 . S
H1356 C1355 0.960 . S
H1357 N1337 0.862 . S
O1358 Co1326 1.920 . S
O1358 C1331 1.289 . S
C1359 O1351 1.258 . S
C1359 O1352 1.266 . S
Co1360 O1363 1.970 . S
Co1360 N1377 1.989 . S
Co1360 O1385 1.967 . S
Co1360 O1392 1.920 . S
Co1361 O1364 1.966 . S
Co1361 N1370 2.022 . S
Co1361 N1378 1.993 . S
Co1361 O1386 1.941 . S
C1362 O1363 1.258 . S
C1362 O1364 1.263 . S
O1363 Co1360 1.970 . S
O1363 C1362 1.258 . S
O1364 Co1361 1.966 . S
O1364 C1362 1.263 . S
C1365 O1366 1.235 . S
C1365 O1392 1.289 . S
O1366 C1365 1.235 . S
C1367 C1369 1.400 . S
C1367 N1370 1.351 . S
C1367 C1372 1.501 . S
C1368 C1369 1.387 . S
C1368 N1371 1.341 . S
C1369 C1367 1.400 . S
C1369 C1368 1.387 . S
N1370 Co1361 2.022 . S
N1370 C1367 1.351 . S
N1370 N1371 1.365 . S
N1371 C1368 1.341 . S
N1371 N1370 1.365 . S
N1371 H1391 0.862 . S
C1372 C1367 1.501 . S
C1372 H1373 0.961 . S
C1372 H1374 0.961 . S
C1372 H1375 0.960 . S
H1373 C1372 0.961 . S
H1374 C1372 0.961 . S
H1375 C1372 0.960 . S
C1376 N1377 1.342 . S
C1376 C1380 1.401 . S
C1376 C1381 1.499 . S
N1377 Co1360 1.989 . S
N1377 C1376 1.342 . S
N1377 N1378 1.388 . S
N1378 Co1361 1.993 . S
N1378 N1377 1.388 . S
N1378 C1379 1.346 . S
C1379 N1378 1.346 . S
C1379 C1380 1.396 . S
C1379 C1389 1.510 . S
C1380 C1376 1.401 . S
C1380 C1379 1.396 . S
C1381 C1376 1.499 . S
C1381 H1382 0.959 . S
C1381 H1383 0.960 . S
C1381 H1384 0.961 . S
H1382 C1381 0.959 . S
H1383 C1381 0.960 . S
H1384 C1381 0.961 . S
O1385 Co1360 1.967 . S
O1385 C1393 1.258 . S
O1386 Co1361 1.941 . S
O1386 C1393 1.266 . S
H1387 C1389 0.959 . S
H1388 C1389 0.961 . S
C1389 C1379 1.510 . S
C1389 H1387 0.959 . S
C1389 H1388 0.961 . S
C1389 H1390 0.960 . S
H1390 C1389 0.960 . S
H1391 N1371 0.862 . S
O1392 Co1360 1.920 . S
O1392 C1365 1.289 . S
C1393 O1385 1.258 . S
C1393 O1386 1.266 . S
Co1394 O1397 1.970 . S
Co1394 N1411 1.989 . S
Co1394 O1419 1.967 . S
Co1394 O1426 1.920 . S
Co1395 O1398 1.966 . S
Co1395 N1404 2.022 . S
Co1395 N1412 1.993 . S
Co1395 O1420 1.941 . S
C1396 O1397 1.258 . S
C1396 O1398 1.263 . S
O1397 Co1394 1.970 . S
O1397 C1396 1.258 . S
O1398 Co1395 1.966 . S
O1398 C1396 1.263 . S
C1399 O1400 1.235 . S
C1399 O1426 1.289 . S
O1400 C1399 1.235 . S
C1401 C1403 1.400 . S
C1401 N1404 1.351 . S
C1401 C1406 1.501 . S
C1402 C1403 1.387 . S
C1402 N1405 1.341 . S
C1403 C1401 1.400 . S
C1403 C1402 1.387 . S
N1404 Co1395 2.022 . S
N1404 C1401 1.351 . S
N1404 N1405 1.365 . S
N1405 C1402 1.341 . S
N1405 N1404 1.365 . S
N1405 H1425 0.862 . S
C1406 C1401 1.501 . S
C1406 H1407 0.961 . S
C1406 H1408 0.961 . S
C1406 H1409 0.960 . S
H1407 C1406 0.961 . S
H1408 C1406 0.961 . S
H1409 C1406 0.960 . S
C1410 N1411 1.342 . S
C1410 C1414 1.401 . S
C1410 C1415 1.499 . S
N1411 Co1394 1.989 . S
N1411 C1410 1.342 . S
N1411 N1412 1.388 . S
N1412 Co1395 1.993 . S
N1412 N1411 1.388 . S
N1412 C1413 1.346 . S
C1413 N1412 1.346 . S
C1413 C1414 1.396 . S
C1413 C1423 1.510 . S
C1414 C1410 1.401 . S
C1414 C1413 1.396 . S
C1415 C1410 1.499 . S
C1415 H1416 0.959 . S
C1415 H1417 0.960 . S
C1415 H1418 0.961 . S
H1416 C1415 0.959 . S
H1417 C1415 0.960 . S
H1418 C1415 0.961 . S
O1419 Co1394 1.967 . S
O1419 C1427 1.258 . S
O1420 Co1395 1.941 . S
O1420 C1427 1.266 . S
H1421 C1423 0.959 . S
H1422 C1423 0.961 . S
C1423 C1413 1.510 . S
C1423 H1421 0.959 . S
C1423 H1422 0.961 . S
C1423 H1424 0.960 . S
H1424 C1423 0.960 . S
H1425 N1405 0.862 . S
O1426 Co1394 1.920 . S
O1426 C1399 1.289 . S
C1427 O1419 1.258 . S
C1427 O1420 1.266 . S
Co1428 O1431 1.970 . S
Co1428 N1445 1.989 . S
Co1428 O1453 1.967 . S
Co1428 O1460 1.920 . S
Co1429 O1432 1.966 . S
Co1429 N1438 2.022 . S
Co1429 N1446 1.993 . S
Co1429 O1454 1.941 . S
C1430 O1431 1.258 . S
C1430 O1432 1.263 . S
O1431 Co1428 1.970 . S
O1431 C1430 1.258 . S
O1432 Co1429 1.966 . S
O1432 C1430 1.263 . S
C1433 O1434 1.235 . S
C1433 O1460 1.289 . S
O1434 C1433 1.235 . S
C1435 C1437 1.400 . S
C1435 N1438 1.351 . S
C1435 C1440 1.501 . S
C1436 C1437 1.387 . S
C1436 N1439 1.341 . S
C1437 C1435 1.400 . S
C1437 C1436 1.387 . S
N1438 Co1429 2.022 . S
N1438 C1435 1.351 . S
N1438 N1439 1.365 . S
N1439 C1436 1.341 . S
N1439 N1438 1.365 . S
N1439 H1459 0.862 . S
C1440 C1435 1.501 . S
C1440 H1441 0.961 . S
C1440 H1442 0.961 . S
C1440 H1443 0.960 . S
H1441 C1440 0.961 . S
H1442 C1440 0.961 . S
H1443 C1440 0.960 . S
C1444 N1445 1.342 . S
C1444 C1448 1.401 . S
C1444 C1449 1.499 . S
N1445 Co1428 1.989 . S
N1445 C1444 1.342 . S
N1445 N1446 1.388 . S
N1446 Co1429 1.993 . S
N1446 N1445 1.388 . S
N1446 C1447 1.346 . S
C1447 N1446 1.346 . S
C1447 C1448 1.396 . S
C1447 C1457 1.510 . S
C1448 C1444 1.401 . S
C1448 C1447 1.396 . S
C1449 C1444 1.499 . S
C1449 H1450 0.959 . S
C1449 H1451 0.960 . S
C1449 H1452 0.961 . S
H1450 C1449 0.959 . S
H1451 C1449 0.960 . S
H1452 C1449 0.961 . S
O1453 Co1428 1.967 . S
O1453 C1461 1.258 . S
O1454 Co1429 1.941 . S
O1454 C1461 1.266 . S
H1455 C1457 0.959 . S
H1456 C1457 0.961 . S
C1457 C1447 1.510 . S
C1457 H1455 0.959 . S
C1457 H1456 0.961 . S
C1457 H1458 0.960 . S
H1458 C1457 0.960 . S
H1459 N1439 0.862 . S
O1460 Co1428 1.920 . S
O1460 C1433 1.289 . S
C1461 O1453 1.258 . S
C1461 O1454 1.266 . S
Co1462 O1465 1.970 . S
Co1462 N1479 1.989 . S
Co1462 O1487 1.967 . S
Co1462 O1494 1.920 . S
Co1463 O1466 1.966 . S
Co1463 N1472 2.022 . S
Co1463 N1480 1.993 . S
Co1463 O1488 1.941 . S
C1464 O1465 1.258 . S
C1464 O1466 1.263 . S
O1465 Co1462 1.970 . S
O1465 C1464 1.258 . S
O1466 Co1463 1.966 . S
O1466 C1464 1.263 . S
C1467 O1468 1.235 . S
C1467 O1494 1.289 . S
O1468 C1467 1.235 . S
C1469 C1471 1.400 . S
C1469 N1472 1.351 . S
C1469 C1474 1.501 . S
C1470 C1471 1.387 . S
C1470 N1473 1.341 . S
C1471 C1469 1.400 . S
C1471 C1470 1.387 . S
N1472 Co1463 2.022 . S
N1472 C1469 1.351 . S
N1472 N1473 1.365 . S
N1473 C1470 1.341 . S
N1473 N1472 1.365 . S
N1473 H1493 0.862 . S
C1474 C1469 1.501 . S
C1474 H1475 0.961 . S
C1474 H1476 0.961 . S
C1474 H1477 0.960 . S
H1475 C1474 0.961 . S
H1476 C1474 0.961 . S
H1477 C1474 0.960 . S
C1478 N1479 1.342 . S
C1478 C1482 1.401 . S
C1478 C1483 1.499 . S
N1479 Co1462 1.989 . S
N1479 C1478 1.342 . S
N1479 N1480 1.388 . S
N1480 Co1463 1.993 . S
N1480 N1479 1.388 . S
N1480 C1481 1.346 . S
C1481 N1480 1.346 . S
C1481 C1482 1.396 . S
C1481 C1491 1.510 . S
C1482 C1478 1.401 . S
C1482 C1481 1.396 . S
C1483 C1478 1.499 . S
C1483 H1484 0.959 . S
C1483 H1485 0.960 . S
C1483 H1486 0.961 . S
H1484 C1483 0.959 . S
H1485 C1483 0.960 . S
H1486 C1483 0.961 . S
O1487 Co1462 1.967 . S
O1487 C1495 1.258 . S
O1488 Co1463 1.941 . S
O1488 C1495 1.266 . S
H1489 C1491 0.959 . S
H1490 C1491 0.961 . S
C1491 C1481 1.510 . S
C1491 H1489 0.959 . S
C1491 H1490 0.961 . S
C1491 H1492 0.960 . S
H1492 C1491 0.960 . S
H1493 N1473 0.862 . S
O1494 Co1462 1.920 . S
O1494 C1467 1.289 . S
C1495 O1487 1.258 . S
C1495 O1488 1.266 . S
Co1496 O1499 1.970 . S
Co1496 N1513 1.989 . S
Co1496 O1521 1.967 . S
Co1496 O1528 1.920 . S
Co1497 O1500 1.966 . S
Co1497 N1506 2.022 . S
Co1497 N1514 1.993 . S
Co1497 O1522 1.941 . S
C1498 O1499 1.258 . S
C1498 O1500 1.263 . S
O1499 Co1496 1.970 . S
O1499 C1498 1.258 . S
O1500 Co1497 1.966 . S
O1500 C1498 1.263 . S
C1501 O1502 1.235 . S
C1501 O1528 1.289 . S
O1502 C1501 1.235 . S
C1503 C1505 1.400 . S
C1503 N1506 1.351 . S
C1503 C1508 1.501 . S
C1504 C1505 1.387 . S
C1504 N1507 1.341 . S
C1505 C1503 1.400 . S
C1505 C1504 1.387 . S
N1506 Co1497 2.022 . S
N1506 C1503 1.351 . S
N1506 N1507 1.365 . S
N1507 C1504 1.341 . S
N1507 N1506 1.365 . S
N1507 H1527 0.862 . S
C1508 C1503 1.501 . S
C1508 H1509 0.961 . S
C1508 H1510 0.961 . S
C1508 H1511 0.960 . S
H1509 C1508 0.961 . S
H1510 C1508 0.961 . S
H1511 C1508 0.960 . S
C1512 N1513 1.342 . S
C1512 C1516 1.401 . S
C1512 C1517 1.499 . S
N1513 Co1496 1.989 . S
N1513 C1512 1.342 . S
N1513 N1514 1.388 . S
N1514 Co1497 1.993 . S
N1514 N1513 1.388 . S
N1514 C1515 1.346 . S
C1515 N1514 1.346 . S
C1515 C1516 1.396 . S
C1515 C1525 1.510 . S
C1516 C1512 1.401 . S
C1516 C1515 1.396 . S
C1517 C1512 1.499 . S
C1517 H1518 0.959 . S
C1517 H1519 0.960 . S
C1517 H1520 0.961 . S
H1518 C1517 0.959 . S
H1519 C1517 0.960 . S
H1520 C1517 0.961 . S
O1521 Co1496 1.967 . S
O1521 C1529 1.258 . S
O1522 Co1497 1.941 . S
O1522 C1529 1.266 . S
H1523 C1525 0.959 . S
H1524 C1525 0.961 . S
C1525 C1515 1.510 . S
C1525 H1523 0.959 . S
C1525 H1524 0.961 . S
C1525 H1526 0.960 . S
H1526 C1525 0.960 . S
H1527 N1507 0.862 . S
O1528 Co1496 1.920 . S
O1528 C1501 1.289 . S
C1529 O1521 1.258 . S
C1529 O1522 1.266 . S
Co1530 O1533 1.970 . S
Co1530 N1547 1.989 . S
Co1530 O1555 1.967 . S
Co1530 O1562 1.920 . S
Co1531 O1534 1.966 . S
Co1531 N1540 2.022 . S
Co1531 N1548 1.993 . S
Co1531 O1556 1.941 . S
C1532 O1533 1.258 . S
C1532 O1534 1.263 . S
O1533 Co1530 1.970 . S
O1533 C1532 1.258 . S
O1534 Co1531 1.966 . S
O1534 C1532 1.263 . S
C1535 O1536 1.235 . S
C1535 O1562 1.289 . S
O1536 C1535 1.235 . S
C1537 C1539 1.400 . S
C1537 N1540 1.351 . S
C1537 C1542 1.501 . S
C1538 C1539 1.387 . S
C1538 N1541 1.341 . S
C1539 C1537 1.400 . S
C1539 C1538 1.387 . S
N1540 Co1531 2.022 . S
N1540 C1537 1.351 . S
N1540 N1541 1.365 . S
N1541 C1538 1.341 . S
N1541 N1540 1.365 . S
N1541 H1561 0.862 . S
C1542 C1537 1.501 . S
C1542 H1543 0.961 . S
C1542 H1544 0.961 . S
C1542 H1545 0.960 . S
H1543 C1542 0.961 . S
H1544 C1542 0.961 . S
H1545 C1542 0.960 . S
C1546 N1547 1.342 . S
C1546 C1550 1.401 . S
C1546 C1551 1.499 . S
N1547 Co1530 1.989 . S
N1547 C1546 1.342 . S
N1547 N1548 1.388 . S
N1548 Co1531 1.993 . S
N1548 N1547 1.388 . S
N1548 C1549 1.346 . S
C1549 N1548 1.346 . S
C1549 C1550 1.396 . S
C1549 C1559 1.510 . S
C1550 C1546 1.401 . S
C1550 C1549 1.396 . S
C1551 C1546 1.499 . S
C1551 H1552 0.959 . S
C1551 H1553 0.960 . S
C1551 H1554 0.961 . S
H1552 C1551 0.959 . S
H1553 C1551 0.960 . S
H1554 C1551 0.961 . S
O1555 Co1530 1.967 . S
O1555 C1563 1.258 . S
O1556 Co1531 1.941 . S
O1556 C1563 1.266 . S
H1557 C1559 0.959 . S
H1558 C1559 0.961 . S
C1559 C1549 1.510 . S
C1559 H1557 0.959 . S
C1559 H1558 0.961 . S
C1559 H1560 0.960 . S
H1560 C1559 0.960 . S
H1561 N1541 0.862 . S
O1562 Co1530 1.920 . S
O1562 C1535 1.289 . S
C1563 O1555 1.258 . S
C1563 O1556 1.266 . S
Co1564 O1567 1.970 . S
Co1564 N1581 1.989 . S
Co1564 O1589 1.967 . S
Co1564 O1596 1.920 . S
Co1565 O1568 1.966 . S
Co1565 N1574 2.022 . S
Co1565 N1582 1.993 . S
Co1565 O1590 1.941 . S
C1566 O1567 1.258 . S
C1566 O1568 1.263 . S
O1567 Co1564 1.970 . S
O1567 C1566 1.258 . S
O1568 Co1565 1.966 . S
O1568 C1566 1.263 . S
C1569 O1570 1.235 . S
C1569 O1596 1.289 . S
O1570 C1569 1.235 . S
C1571 C1573 1.400 . S
C1571 N1574 1.351 . S
C1571 C1576 1.501 . S
C1572 C1573 1.387 . S
C1572 N1575 1.341 . S
C1573 C1571 1.400 . S
C1573 C1572 1.387 . S
N1574 Co1565 2.022 . S
N1574 C1571 1.351 . S
N1574 N1575 1.365 . S
N1575 C1572 1.341 . S
N1575 N1574 1.365 . S
N1575 H1595 0.862 . S
C1576 C1571 1.501 . S
C1576 H1577 0.961 . S
C1576 H1578 0.961 . S
C1576 H1579 0.960 . S
H1577 C1576 0.961 . S
H1578 C1576 0.961 . S
H1579 C1576 0.960 . S
C1580 N1581 1.342 . S
C1580 C1584 1.401 . S
C1580 C1585 1.499 . S
N1581 Co1564 1.989 . S
N1581 C1580 1.342 . S
N1581 N1582 1.388 . S
N1582 Co1565 1.993 . S
N1582 N1581 1.388 . S
N1582 C1583 1.346 . S
C1583 N1582 1.346 . S
C1583 C1584 1.396 . S
C1583 C1593 1.510 . S
C1584 C1580 1.401 . S
C1584 C1583 1.396 . S
C1585 C1580 1.499 . S
C1585 H1586 0.959 . S
C1585 H1587 0.960 . S
C1585 H1588 0.961 . S
H1586 C1585 0.959 . S
H1587 C1585 0.960 . S
H1588 C1585 0.961 . S
O1589 Co1564 1.967 . S
O1589 C1597 1.258 . S
O1590 Co1565 1.941 . S
O1590 C1597 1.266 . S
H1591 C1593 0.959 . S
H1592 C1593 0.961 . S
C1593 C1583 1.510 . S
C1593 H1591 0.959 . S
C1593 H1592 0.961 . S
C1593 H1594 0.960 . S
H1594 C1593 0.960 . S
H1595 N1575 0.862 . S
O1596 Co1564 1.920 . S
O1596 C1569 1.289 . S
C1597 O1589 1.258 . S
C1597 O1590 1.266 . S
Co1598 O1601 1.970 . S
Co1598 N1615 1.989 . S
Co1598 O1623 1.967 . S
Co1598 O1630 1.920 . S
Co1599 O1602 1.966 . S
Co1599 N1608 2.022 . S
Co1599 N1616 1.993 . S
Co1599 O1624 1.941 . S
C1600 O1601 1.258 . S
C1600 O1602 1.263 . S
O1601 Co1598 1.970 . S
O1601 C1600 1.258 . S
O1602 Co1599 1.966 . S
O1602 C1600 1.263 . S
C1603 O1604 1.235 . S
C1603 O1630 1.289 . S
O1604 C1603 1.235 . S
C1605 C1607 1.400 . S
C1605 N1608 1.351 . S
C1605 C1610 1.501 . S
C1606 C1607 1.387 . S
C1606 N1609 1.341 . S
C1607 C1605 1.400 . S
C1607 C1606 1.387 . S
N1608 Co1599 2.022 . S
N1608 C1605 1.351 . S
N1608 N1609 1.365 . S
N1609 C1606 1.341 . S
N1609 N1608 1.365 . S
N1609 H1629 0.862 . S
C1610 C1605 1.501 . S
C1610 H1611 0.961 . S
C1610 H1612 0.961 . S
C1610 H1613 0.960 . S
H1611 C1610 0.961 . S
H1612 C1610 0.961 . S
H1613 C1610 0.960 . S
C1614 N1615 1.342 . S
C1614 C1618 1.401 . S
C1614 C1619 1.499 . S
N1615 Co1598 1.989 . S
N1615 C1614 1.342 . S
N1615 N1616 1.388 . S
N1616 Co1599 1.993 . S
N1616 N1615 1.388 . S
N1616 C1617 1.346 . S
C1617 N1616 1.346 . S
C1617 C1618 1.396 . S
C1617 C1627 1.510 . S
C1618 C1614 1.401 . S
C1618 C1617 1.396 . S
C1619 C1614 1.499 . S
C1619 H1620 0.959 . S
C1619 H1621 0.960 . S
C1619 H1622 0.961 . S
H1620 C1619 0.959 . S
H1621 C1619 0.960 . S
H1622 C1619 0.961 . S
O1623 Co1598 1.967 . S
O1623 C1631 1.258 . S
O1624 Co1599 1.941 . S
O1624 C1631 1.266 . S
H1625 C1627 0.959 . S
H1626 C1627 0.961 . S
C1627 C1617 1.510 . S
C1627 H1625 0.959 . S
C1627 H1626 0.961 . S
C1627 H1628 0.960 . S
H1628 C1627 0.960 . S
H1629 N1609 0.862 . S
O1630 Co1598 1.920 . S
O1630 C1603 1.289 . S
C1631 O1623 1.258 . S
C1631 O1624 1.266 . S
C1632 C1633 1.387 . S
C1632 H1636 0.950 . S
C1632 C1641 1.390 . S
C1633 C1632 1.387 . S
C1633 C1635 1.387 . S
H1634 C1641 0.950 . S
C1635 C1633 1.387 . S
C1635 C1637 1.390 . S
C1635 H1639 0.950 1_556 S
H1636 C1632 0.950 . S
C1637 C1635 1.390 . S
C1637 C1638 1.387 . S
C1637 H1640 0.950 . S
C1638 C1637 1.387 . S
C1638 C1641 1.387 . S
H1639 C1635 0.950 1_554 S
H1640 C1637 0.950 . S
C1641 C1632 1.390 . S
C1641 H1634 0.950 . S
C1641 C1638 1.387 . S
C1642 C1643 1.387 . S
C1642 H1646 0.950 . S
C1642 C1651 1.390 . S
C1643 C1642 1.387 . S
C1643 C1645 1.387 . S
H1644 C1651 0.950 . S
C1645 C1643 1.387 . S
C1645 C1647 1.390 . S
C1645 H1649 0.950 . S
H1646 C1642 0.950 . S
C1647 C1645 1.390 . S
C1647 C1648 1.387 . S
C1647 H1650 0.950 . S
C1648 C1647 1.387 . S
C1648 C1651 1.387 . S
H1649 C1645 0.950 . S
H1650 C1647 0.950 . S
C1651 C1642 1.390 . S
C1651 H1644 0.950 . S
C1651 C1648 1.387 . S
C1652 C1653 1.387 . S
C1652 H1656 0.950 . S
C1652 C1661 1.390 . S
C1653 C1652 1.387 . S
C1653 C1655 1.387 . S
H1654 C1661 0.950 . S
C1655 C1653 1.387 . S
C1655 C1657 1.390 . S
C1655 H1659 0.950 . S
H1656 C1652 0.950 . S
C1657 C1655 1.390 . S
C1657 C1658 1.387 . S
C1657 H1660 0.950 . S
C1658 C1657 1.387 . S
C1658 C1661 1.387 . S
H1659 C1655 0.950 . S
H1660 C1657 0.950 . S
C1661 C1652 1.390 . S
C1661 H1654 0.950 . S
C1661 C1658 1.387 . S
C1662 C1663 1.387 . S
C1662 H1666 0.950 . S
C1662 C1671 1.390 . S
C1663 C1662 1.387 . S
C1663 C1665 1.387 . S
H1664 C1671 0.950 . S
C1665 C1663 1.387 . S
C1665 C1667 1.390 . S
C1665 H1669 0.950 . S
H1666 C1662 0.950 . S
C1667 C1665 1.390 . S
C1667 C1668 1.387 . S
C1667 H1670 0.950 . S
C1668 C1667 1.387 . S
C1668 C1671 1.387 . S
H1669 C1665 0.950 . S
H1670 C1667 0.950 . S
C1671 C1662 1.390 . S
C1671 H1664 0.950 . S
C1671 C1668 1.387 . S
C1672 C1673 1.387 . S
C1672 H1676 0.950 . S
C1672 C1681 1.390 . S
C1673 C1672 1.387 . S
C1673 C1675 1.387 . S
H1674 C1681 0.950 . S
C1675 C1673 1.387 . S
C1675 C1677 1.390 . S
C1675 H1679 0.950 . S
H1676 C1672 0.950 . S
C1677 C1675 1.390 . S
C1677 C1678 1.387 . S
C1677 H1680 0.950 . S
C1678 C1677 1.387 . S
C1678 C1681 1.387 . S
H1679 C1675 0.950 . S
H1680 C1677 0.950 . S
C1681 C1672 1.390 . S
C1681 H1674 0.950 . S
C1681 C1678 1.387 . S
C1682 C1683 1.387 . S
C1682 H1686 0.950 . S
C1682 C1691 1.390 . S
C1683 C1682 1.387 . S
C1683 C1685 1.387 . S
H1684 C1691 0.950 . S
C1685 C1683 1.387 . S
C1685 C1687 1.390 . S
C1685 H1689 0.950 . S
H1686 C1682 0.950 . S
C1687 C1685 1.390 . S
C1687 C1688 1.387 . S
C1687 H1690 0.950 . S
C1688 C1687 1.387 . S
C1688 C1691 1.387 . S
H1689 C1685 0.950 . S
H1690 C1687 0.950 . S
C1691 C1682 1.390 . S
C1691 H1684 0.950 . S
C1691 C1688 1.387 . S
C1692 C1693 1.382 1_554 S
C1692 H1696 0.950 1_554 S
C1692 C1701 1.390 . S
C1693 C1692 1.382 1_556 S
C1693 C1695 1.379 1_556 S
H1694 C1701 0.950 . S
C1695 C1693 1.379 1_554 S
C1695 C1697 1.390 . S
C1695 H1699 0.950 . S
H1696 C1692 0.950 1_556 S
C1697 C1695 1.390 . S
C1697 C1698 1.387 . S
C1697 H1700 0.950 . S
C1698 C1697 1.387 . S
C1698 C1701 1.387 . S
H1699 C1695 0.950 . S
H1700 C1697 0.950 . S
C1701 C1692 1.390 . S
C1701 H1694 0.950 . S
C1701 C1698 1.387 . S
C1702 C1703 1.387 . S
C1702 H1706 0.950 . S
C1702 C1711 1.390 . S
C1703 C1702 1.387 . S
C1703 C1705 1.387 . S
H1704 C1711 0.950 . S
C1705 C1703 1.387 . S
C1705 C1707 1.390 . S
C1705 H1709 0.950 . S
H1706 C1702 0.950 . S
C1707 C1705 1.390 . S
C1707 C1708 1.387 . S
C1707 H1710 0.950 . S
C1708 C1707 1.387 . S
C1708 C1711 1.387 . S
H1709 C1705 0.950 . S
H1710 C1707 0.950 . S
C1711 C1702 1.390 . S
C1711 H1704 0.950 . S
C1711 C1708 1.387 . S
C1712 C1713 1.387 . S
C1712 H1716 0.950 . S
C1712 C1721 1.390 . S
C1713 C1712 1.387 . S
C1713 C1715 1.387 . S
H1714 C1721 0.950 . S
C1715 C1713 1.387 . S
C1715 C1717 1.390 . S
C1715 H1719 0.950 . S
H1716 C1712 0.950 . S
C1717 C1715 1.390 . S
C1717 C1718 1.387 . S
C1717 H1720 0.950 1_655 S
C1718 C1717 1.387 . S
C1718 C1721 1.387 . S
H1719 C1715 0.950 . S
H1720 C1717 0.950 1_455 S
C1721 C1712 1.390 . S
C1721 H1714 0.950 . S
C1721 C1718 1.387 . S
C1722 C1723 1.387 . S
C1722 H1726 0.950 . S
C1722 C1731 1.390 . S
C1723 C1722 1.387 . S
C1723 C1725 1.387 . S
H1724 C1731 0.950 . S
C1725 C1723 1.387 . S
C1725 C1727 1.390 . S
C1725 H1729 0.950 . S
H1726 C1722 0.950 . S
C1727 C1725 1.390 . S
C1727 C1728 1.387 . S
C1727 H1730 0.950 . S
C1728 C1727 1.387 . S
C1728 C1731 1.387 . S
H1729 C1725 0.950 . S
H1730 C1727 0.950 . S
C1731 C1722 1.390 . S
C1731 H1724 0.950 . S
C1731 C1728 1.387 . S
C1732 C1733 1.387 . S
C1732 H1736 0.950 . S
C1732 C1741 1.390 . S
C1733 C1732 1.387 . S
C1733 C1735 1.387 . S
H1734 C1741 0.950 . S
C1735 C1733 1.387 . S
C1735 C1737 1.390 . S
C1735 H1739 0.950 . S
H1736 C1732 0.950 . S
C1737 C1735 1.390 . S
C1737 C1738 1.387 . S
C1737 H1740 0.950 . S
C1738 C1737 1.387 . S
C1738 C1741 1.387 . S
H1739 C1735 0.950 . S
H1740 C1737 0.950 . S
C1741 C1732 1.390 . S
C1741 H1734 0.950 . S
C1741 C1738 1.387 . S
C1742 C1743 1.387 . S
C1742 H1746 0.950 . S
C1742 C1751 1.390 . S
C1743 C1742 1.387 . S
C1743 C1745 1.387 . S
H1744 C1751 0.950 . S
C1745 C1743 1.387 . S
C1745 C1747 1.390 . S
C1745 H1749 0.950 . S
H1746 C1742 0.950 . S
C1747 C1745 1.390 . S
C1747 C1748 1.387 . S
C1747 H1750 0.950 . S
C1748 C1747 1.387 . S
C1748 C1751 1.387 . S
H1749 C1745 0.950 . S
H1750 C1747 0.950 . S
C1751 C1742 1.390 . S
C1751 H1744 0.950 . S
C1751 C1748 1.387 . S
C1752 C1753 1.387 . S
C1752 H1756 0.950 . S
C1752 C1761 1.390 . S
C1753 C1752 1.387 . S
C1753 C1755 1.387 . S
H1754 C1761 0.950 . S
C1755 C1753 1.387 . S
C1755 C1757 1.390 . S
C1755 H1759 0.950 . S
H1756 C1752 0.950 . S
C1757 C1755 1.390 . S
C1757 C1758 1.387 . S
C1757 H1760 0.950 . S
C1758 C1757 1.387 . S
C1758 C1761 1.387 . S
H1759 C1755 0.950 . S
H1760 C1757 0.950 . S
C1761 C1752 1.390 . S
C1761 H1754 0.950 . S
C1761 C1758 1.387 . S
C1762 C1763 1.387 . S
C1762 H1766 0.950 . S
C1762 C1771 1.390 . S
C1763 C1762 1.387 . S
C1763 C1765 1.387 . S
H1764 C1771 0.950 . S
C1765 C1763 1.387 . S
C1765 C1767 1.390 . S
C1765 H1769 0.950 . S
H1766 C1762 0.950 . S
C1767 C1765 1.390 . S
C1767 C1768 1.387 . S
C1767 H1770 0.950 . S
C1768 C1767 1.387 . S
C1768 C1771 1.387 . S
H1769 C1765 0.950 . S
H1770 C1767 0.950 . S
C1771 C1762 1.390 . S
C1771 H1764 0.950 . S
C1771 C1768 1.387 . S
C1772 C1773 1.387 . S
C1772 H1776 0.950 . S
C1772 C1781 1.390 . S
C1773 C1772 1.387 . S
C1773 C1775 1.387 . S
H1774 C1781 0.950 . S
C1775 C1773 1.387 . S
C1775 C1777 1.390 . S
C1775 H1779 0.950 . S
H1776 C1772 0.950 . S
C1777 C1775 1.390 . S
C1777 C1778 1.387 . S
C1777 H1780 0.950 . S
C1778 C1777 1.387 . S
C1778 C1781 1.387 . S
H1779 C1775 0.950 . S
H1780 C1777 0.950 . S
C1781 C1772 1.390 . S
C1781 H1774 0.950 . S
C1781 C1778 1.387 . S
C1782 C1783 1.387 . S
C1782 H1786 0.950 . S
C1782 C1791 1.390 . S
C1783 C1782 1.387 . S
C1783 C1785 1.387 . S
H1784 C1791 0.950 . S
C1785 C1783 1.387 . S
C1785 C1787 1.390 . S
C1785 H1789 0.950 . S
H1786 C1782 0.950 . S
C1787 C1785 1.390 . S
C1787 C1788 1.387 . S
C1787 H1790 0.950 . S
C1788 C1787 1.387 . S
C1788 C1791 1.387 . S
H1789 C1785 0.950 . S
H1790 C1787 0.950 . S
C1791 C1782 1.390 . S
C1791 H1784 0.950 . S
C1791 C1788 1.387 . S
C1792 C1793 1.387 . S
C1792 H1796 0.950 . S
C1792 C1801 1.390 . S
C1793 C1792 1.387 . S
C1793 C1795 1.387 . S
H1794 C1801 0.950 . S
C1795 C1793 1.387 . S
C1795 C1797 1.390 . S
C1795 H1799 0.950 . S
H1796 C1792 0.950 . S
C1797 C1795 1.390 . S
C1797 C1798 1.387 . S
C1797 H1800 0.950 . S
C1798 C1797 1.387 . S
C1798 C1801 1.387 . S
H1799 C1795 0.950 . S
H1800 C1797 0.950 . S
C1801 C1792 1.390 . S
C1801 H1794 0.950 . S
C1801 C1798 1.387 . S
C1802 C1803 1.387 . S
C1802 H1806 0.950 . S
C1802 C1811 1.390 . S
C1803 C1802 1.387 . S
C1803 C1805 1.387 . S
H1804 C1811 0.950 . S
C1805 C1803 1.387 . S
C1805 C1807 1.390 . S
C1805 H1809 0.950 . S
H1806 C1802 0.950 . S
C1807 C1805 1.390 . S
C1807 C1808 1.387 . S
C1807 H1810 0.950 . S
C1808 C1807 1.387 . S
C1808 C1811 1.387 . S
H1809 C1805 0.950 . S
H1810 C1807 0.950 . S
C1811 C1802 1.390 . S
C1811 H1804 0.950 . S
C1811 C1808 1.387 . S
C1812 C1813 1.387 . S
C1812 H1816 0.950 . S
C1812 C1821 1.390 . S
C1813 C1812 1.387 . S
C1813 C1815 1.387 . S
H1814 C1821 0.950 . S
C1815 C1813 1.387 . S
C1815 C1817 1.390 . S
C1815 H1819 0.950 . S
H1816 C1812 0.950 . S
C1817 C1815 1.390 . S
C1817 C1818 1.387 . S
C1817 H1820 0.950 . S
C1818 C1817 1.387 . S
C1818 C1821 1.387 . S
H1819 C1815 0.950 . S
H1820 C1817 0.950 . S
C1821 C1812 1.390 . S
C1821 H1814 0.950 . S
C1821 C1818 1.387 . S
C1822 C1823 1.387 . S
C1822 H1826 0.950 . S
C1822 C1831 1.390 . S
C1823 C1822 1.387 . S
C1823 C1825 1.387 . S
H1824 C1831 0.950 . S
C1825 C1823 1.387 . S
C1825 C1827 1.390 . S
C1825 H1829 0.950 . S
H1826 C1822 0.950 . S
C1827 C1825 1.390 . S
C1827 C1828 1.387 . S
C1827 H1830 0.950 . S
C1828 C1827 1.387 . S
C1828 C1831 1.387 . S
H1829 C1825 0.950 . S
H1830 C1827 0.950 . S
C1831 C1822 1.390 . S
C1831 H1824 0.950 . S
C1831 C1828 1.387 . S
C1832 C1833 1.387 . S
C1832 H1836 0.950 . S
C1832 C1841 1.390 . S
C1833 C1832 1.387 . S
C1833 C1835 1.387 . S
H1834 C1841 0.950 . S
C1835 C1833 1.387 . S
C1835 C1837 1.390 . S
C1835 H1839 0.950 . S
H1836 C1832 0.950 . S
C1837 C1835 1.390 . S
C1837 C1838 1.387 . S
C1837 H1840 0.950 . S
C1838 C1837 1.387 . S
C1838 C1841 1.387 . S
H1839 C1835 0.950 . S
H1840 C1837 0.950 . S
C1841 C1832 1.390 . S
C1841 H1834 0.950 . S
C1841 C1838 1.387 . S
C1842 C1843 1.389 . S
C1842 H1846 0.950 1_545 S
C1842 C1851 1.390 . S
C1843 C1842 1.389 . S
C1843 C1845 1.390 . S
H1844 C1851 0.950 . S
C1845 C1843 1.390 . S
C1845 C1847 1.390 . S
C1845 H1849 0.950 . S
H1846 C1842 0.950 1_565 S
C1847 C1845 1.390 . S
C1847 C1848 1.387 . S
C1847 H1850 0.950 . S
C1848 C1847 1.387 . S
C1848 C1851 1.387 . S
H1849 C1845 0.950 . S
H1850 C1847 0.950 . S
C1851 C1842 1.390 . S
C1851 H1844 0.950 . S
C1851 C1848 1.387 . S
C1852 C1853 1.387 . S
C1852 H1856 0.950 . S
C1852 C1861 1.390 . S
C1853 C1852 1.387 . S
C1853 C1855 1.387 . S
H1854 C1861 0.950 . S
C1855 C1853 1.387 . S
C1855 C1857 1.390 . S
C1855 H1859 0.950 . S
H1856 C1852 0.950 . S
C1857 C1855 1.390 . S
C1857 C1858 1.387 . S
C1857 H1860 0.950 . S
C1858 C1857 1.387 . S
C1858 C1861 1.387 . S
H1859 C1855 0.950 . S
H1860 C1857 0.950 . S
C1861 C1852 1.390 . S
C1861 H1854 0.950 . S
C1861 C1858 1.387 . S
C1862 C1863 1.387 . S
C1862 H1866 0.950 . S
C1862 C1871 1.390 . S
C1863 C1862 1.387 . S
C1863 C1865 1.387 . S
H1864 C1871 0.950 . S
C1865 C1863 1.387 . S
C1865 C1867 1.390 . S
C1865 H1869 0.950 . S
H1866 C1862 0.950 . S
C1867 C1865 1.390 . S
C1867 C1868 1.387 . S
C1867 H1870 0.950 . S
C1868 C1867 1.387 . S
C1868 C1871 1.387 . S
H1869 C1865 0.950 . S
H1870 C1867 0.950 . S
C1871 C1862 1.390 . S
C1871 H1864 0.950 . S
C1871 C1868 1.387 . S
C1872 C1873 1.387 . S
C1872 H1876 0.950 . S
C1872 C1881 1.390 . S
C1873 C1872 1.387 . S
C1873 C1875 1.387 . S
H1874 C1881 0.950 1_556 S
C1875 C1873 1.387 . S
C1875 C1877 1.390 . S
C1875 H1879 0.950 . S
H1876 C1872 0.950 . S
C1877 C1875 1.390 . S
C1877 C1878 1.387 . S
C1877 H1880 0.950 . S
C1878 C1877 1.387 . S
C1878 C1881 1.387 . S
H1879 C1875 0.950 . S
H1880 C1877 0.950 . S
C1881 C1872 1.390 . S
C1881 H1874 0.950 1_554 S
C1881 C1878 1.387 . S
C1882 C1883 1.387 . S
C1882 H1886 0.950 . S
C1882 C1891 1.390 . S
C1883 C1882 1.387 . S
C1883 C1885 1.387 . S
H1884 C1891 0.950 . S
C1885 C1883 1.387 . S
C1885 C1887 1.390 . S
C1885 H1889 0.950 . S
H1886 C1882 0.950 . S
C1887 C1885 1.390 . S
C1887 C1888 1.387 . S
C1887 H1890 0.950 . S
C1888 C1887 1.387 . S
C1888 C1891 1.387 . S
H1889 C1885 0.950 . S
H1890 C1887 0.950 . S
C1891 C1882 1.390 . S
C1891 H1884 0.950 . S
C1891 C1888 1.387 . S
C1892 C1893 1.387 . S
C1892 H1896 0.950 . S
C1892 C1901 1.390 . S
C1893 C1892 1.387 . S
C1893 C1895 1.387 . S
H1894 C1901 0.950 . S
C1895 C1893 1.387 . S
C1895 C1897 1.390 . S
C1895 H1899 0.950 . S
H1896 C1892 0.950 . S
C1897 C1895 1.390 . S
C1897 C1898 1.387 . S
C1897 H1900 0.950 . S
C1898 C1897 1.387 . S
C1898 C1901 1.387 . S
H1899 C1895 0.950 . S
H1900 C1897 0.950 . S
C1901 C1892 1.390 . S
C1901 H1894 0.950 . S
C1901 C1898 1.387 . S
C1902 C1903 1.387 . S
C1902 H1906 0.950 . S
C1902 C1911 1.390 . S
C1903 C1902 1.387 . S
C1903 C1905 1.387 . S
H1904 C1911 0.950 . S
C1905 C1903 1.387 . S
C1905 C1907 1.390 . S
C1905 H1909 0.950 . S
H1906 C1902 0.950 . S
C1907 C1905 1.390 . S
C1907 C1908 1.387 . S
C1907 H1910 0.950 . S
C1908 C1907 1.387 . S
C1908 C1911 1.387 . S
H1909 C1905 0.950 . S
H1910 C1907 0.950 . S
C1911 C1902 1.390 . S
C1911 H1904 0.950 . S
C1911 C1908 1.387 . S
C1912 C1913 1.387 . S
C1912 H1916 0.950 . S
C1912 C1921 1.390 . S
C1913 C1912 1.387 . S
C1913 C1915 1.387 . S
H1914 C1921 0.950 . S
C1915 C1913 1.387 . S
C1915 C1917 1.390 . S
C1915 H1919 0.950 . S
H1916 C1912 0.950 . S
C1917 C1915 1.390 . S
C1917 C1918 1.387 . S
C1917 H1920 0.950 . S
C1918 C1917 1.387 . S
C1918 C1921 1.387 . S
H1919 C1915 0.950 . S
H1920 C1917 0.950 . S
C1921 C1912 1.390 . S
C1921 H1914 0.950 . S
C1921 C1918 1.387 . S
C1922 C1923 1.387 . S
C1922 H1926 0.950 . S
C1922 C1931 1.390 . S
C1923 C1922 1.387 . S
C1923 C1925 1.387 . S
H1924 C1931 0.950 . S
C1925 C1923 1.387 . S
C1925 C1927 1.390 . S
C1925 H1929 0.950 . S
H1926 C1922 0.950 . S
C1927 C1925 1.390 . S
C1927 C1928 1.387 . S
C1927 H1930 0.950 . S
C1928 C1927 1.387 . S
C1928 C1931 1.387 . S
H1929 C1925 0.950 . S
H1930 C1927 0.950 . S
C1931 C1922 1.390 . S
C1931 H1924 0.950 . S
C1931 C1928 1.387 . S
C1932 C1933 1.387 . S
C1932 H1936 0.950 . S
C1932 C1941 1.390 1_556 S
C1933 C1932 1.387 . S
C1933 C1935 1.387 . S
H1934 C1941 0.950 . S
C1935 C1933 1.387 . S
C1935 C1937 1.390 . S
C1935 H1939 0.950 . S
H1936 C1932 0.950 . S
C1937 C1935 1.390 . S
C1937 C1938 1.387 . S
C1937 H1940 0.950 . S
C1938 C1937 1.387 . S
C1938 C1941 1.387 1_556 S
H1939 C1935 0.950 . S
H1940 C1937 0.950 . S
C1941 C1932 1.390 1_554 S
C1941 H1934 0.950 . S
C1941 C1938 1.387 1_554 S
C1942 C1943 1.387 . S
C1942 H1946 0.950 . S
C1942 C1951 1.390 . S
C1943 C1942 1.387 . S
C1943 C1945 1.387 . S
H1944 C1951 0.950 . S
C1945 C1943 1.387 . S
C1945 C1947 1.390 . S
C1945 H1949 0.950 . S
H1946 C1942 0.950 . S
C1947 C1945 1.390 . S
C1947 C1948 1.387 . S
C1947 H1950 0.950 . S
C1948 C1947 1.387 . S
C1948 C1951 1.387 . S
H1949 C1945 0.950 . S
H1950 C1947 0.950 . S
C1951 C1942 1.390 . S
C1951 H1944 0.950 . S
C1951 C1948 1.387 . S
C1952 C1953 1.387 . S
C1952 H1956 0.950 . S
C1952 C1961 1.390 . S
C1953 C1952 1.387 . S
C1953 C1955 1.387 . S
H1954 C1961 0.950 . S
C1955 C1953 1.387 . S
C1955 C1957 1.390 . S
C1955 H1959 0.950 . S
H1956 C1952 0.950 . S
C1957 C1955 1.390 . S
C1957 C1958 1.387 . S
C1957 H1960 0.950 . S
C1958 C1957 1.387 . S
C1958 C1961 1.387 . S
H1959 C1955 0.950 . S
H1960 C1957 0.950 . S
C1961 C1952 1.390 . S
C1961 H1954 0.950 . S
C1961 C1958 1.387 . S
C1962 C1963 1.387 . S
C1962 H1966 0.950 . S
C1962 C1971 1.390 . S
C1963 C1962 1.387 . S
C1963 C1965 1.387 . S
H1964 C1971 0.950 . S
C1965 C1963 1.387 . S
C1965 C1967 1.390 . S
C1965 H1969 0.950 . S
H1966 C1962 0.950 . S
C1967 C1965 1.390 . S
C1967 C1968 1.387 . S
C1967 H1970 0.950 . S
C1968 C1967 1.387 . S
C1968 C1971 1.387 . S
H1969 C1965 0.950 . S
H1970 C1967 0.950 . S
C1971 C1962 1.390 . S
C1971 H1964 0.950 . S
C1971 C1968 1.387 . S
C1972 C1973 1.387 . S
C1972 H1976 0.950 . S
C1972 C1981 1.390 . S
C1973 C1972 1.387 . S
C1973 C1975 1.387 . S
H1974 C1981 0.950 . S
C1975 C1973 1.387 . S
C1975 C1977 1.390 . S
C1975 H1979 0.950 . S
H1976 C1972 0.950 . S
C1977 C1975 1.390 . S
C1977 C1978 1.387 . S
C1977 H1980 0.950 . S
C1978 C1977 1.387 . S
C1978 C1981 1.387 . S
H1979 C1975 0.950 . S
H1980 C1977 0.950 . S
C1981 C1972 1.390 . S
C1981 H1974 0.950 . S
C1981 C1978 1.387 . S
C1982 C1983 1.387 . S
C1982 H1986 0.950 . S
C1982 C1991 1.390 . S
C1983 C1982 1.387 . S
C1983 C1985 1.387 . S
H1984 C1991 0.950 . S
C1985 C1983 1.387 . S
C1985 C1987 1.390 . S
C1985 H1989 0.950 . S
H1986 C1982 0.950 . S
C1987 C1985 1.390 . S
C1987 C1988 1.387 . S
C1987 H1990 0.950 . S
C1988 C1987 1.387 . S
C1988 C1991 1.387 . S
H1989 C1985 0.950 . S
H1990 C1987 0.950 . S
C1991 C1982 1.390 . S
C1991 H1984 0.950 . S
C1991 C1988 1.387 . S
C1992 C1993 1.387 . S
C1992 H1996 0.950 . S
C1992 C2001 1.390 . S
C1993 C1992 1.387 . S
C1993 C1995 1.387 . S
H1994 C2001 0.950 . S
C1995 C1993 1.387 . S
C1995 C1997 1.390 . S
C1995 H1999 0.950 . S
H1996 C1992 0.950 . S
C1997 C1995 1.390 . S
C1997 C1998 1.387 . S
C1997 H2000 0.950 . S
C1998 C1997 1.387 . S
C1998 C2001 1.387 . S
H1999 C1995 0.950 . S
H2000 C1997 0.950 . S
C2001 C1992 1.390 . S
C2001 H1994 0.950 . S
C2001 C1998 1.387 . S
C2002 C2003 1.387 . S
C2002 H2006 0.950 . S
C2002 C2011 1.390 . S
C2003 C2002 1.387 . S
C2003 C2005 1.387 . S
H2004 C2011 0.950 . S
C2005 C2003 1.387 . S
C2005 C2007 1.390 . S
C2005 H2009 0.950 . S
H2006 C2002 0.950 . S
C2007 C2005 1.390 . S
C2007 C2008 1.387 . S
C2007 H2010 0.950 . S
C2008 C2007 1.387 . S
C2008 C2011 1.387 . S
H2009 C2005 0.950 . S
H2010 C2007 0.950 . S
C2011 C2002 1.390 . S
C2011 H2004 0.950 . S
C2011 C2008 1.387 . S
C2012 C2013 1.387 . S
C2012 H2016 0.950 . S
C2012 C2021 1.390 . S
C2013 C2012 1.387 . S
C2013 C2015 1.387 . S
H2014 C2021 0.950 . S
C2015 C2013 1.387 . S
C2015 C2017 1.390 . S
C2015 H2019 0.950 . S
H2016 C2012 0.950 . S
C2017 C2015 1.390 . S
C2017 C2018 1.387 . S
C2017 H2020 0.950 . S
C2018 C2017 1.387 . S
C2018 C2021 1.387 . S
H2019 C2015 0.950 . S
H2020 C2017 0.950 . S
C2021 C2012 1.390 . S
C2021 H2014 0.950 . S
C2021 C2018 1.387 . S
C2022 C2023 1.387 . S
C2022 H2026 0.950 . S
C2022 C2031 1.390 . S
C2023 C2022 1.387 . S
C2023 C2025 1.387 . S
H2024 C2031 0.950 . S
C2025 C2023 1.387 . S
C2025 C2027 1.390 . S
C2025 H2029 0.950 . S
H2026 C2022 0.950 . S
C2027 C2025 1.390 . S
C2027 C2028 1.387 . S
C2027 H2030 0.950 . S
C2028 C2027 1.387 . S
C2028 C2031 1.387 . S
H2029 C2025 0.950 . S
H2030 C2027 0.950 . S
C2031 C2022 1.390 . S
C2031 H2024 0.950 . S
C2031 C2028 1.387 . S
C2032 C2033 1.387 . S
C2032 H2036 0.950 . S
C2032 C2041 1.390 . S
C2033 C2032 1.387 . S
C2033 C2035 1.387 . S
H2034 C2041 0.950 . S
C2035 C2033 1.387 . S
C2035 C2037 1.390 . S
C2035 H2039 0.950 . S
H2036 C2032 0.950 . S
C2037 C2035 1.390 . S
C2037 C2038 1.387 1_545 S
C2037 H2040 0.950 1_545 S
C2038 C2037 1.387 1_565 S
C2038 C2041 1.387 1_565 S
H2039 C2035 0.950 . S
H2040 C2037 0.950 1_565 S
C2041 C2032 1.390 . S
C2041 H2034 0.950 . S
C2041 C2038 1.387 1_545 S
C2042 C2043 1.387 . S
C2042 H2046 0.950 . S
C2042 C2051 1.390 . S
C2043 C2042 1.387 . S
C2043 C2045 1.387 . S
H2044 C2051 0.950 . S
C2045 C2043 1.387 . S
C2045 C2047 1.390 . S
C2045 H2049 0.950 . S
H2046 C2042 0.950 . S
C2047 C2045 1.390 . S
C2047 C2048 1.387 . S
C2047 H2050 0.950 . S
C2048 C2047 1.387 . S
C2048 C2051 1.387 . S
H2049 C2045 0.950 . S
H2050 C2047 0.950 . S
C2051 C2042 1.390 . S
C2051 H2044 0.950 . S
C2051 C2048 1.387 . S
C2052 C2053 1.387 . S
C2052 H2056 0.950 . S
C2052 C2061 1.390 . S
C2053 C2052 1.387 . S
C2053 C2055 1.387 . S
H2054 C2061 0.950 . S
C2055 C2053 1.387 . S
C2055 C2057 1.390 . S
C2055 H2059 0.950 . S
H2056 C2052 0.950 . S
C2057 C2055 1.390 . S
C2057 C2058 1.387 . S
C2057 H2060 0.950 . S
C2058 C2057 1.387 . S
C2058 C2061 1.387 . S
H2059 C2055 0.950 . S
H2060 C2057 0.950 . S
C2061 C2052 1.390 . S
C2061 H2054 0.950 . S
C2061 C2058 1.387 . S
C2062 C2063 1.387 . S
C2062 H2066 0.950 . S
C2062 C2071 1.390 . S
C2063 C2062 1.387 . S
C2063 C2065 1.387 . S
H2064 C2071 0.950 . S
C2065 C2063 1.387 . S
C2065 C2067 1.390 . S
C2065 H2069 0.950 . S
H2066 C2062 0.950 . S
C2067 C2065 1.390 . S
C2067 C2068 1.387 . S
C2067 H2070 0.950 . S
C2068 C2067 1.387 . S
C2068 C2071 1.387 . S
H2069 C2065 0.950 . S
H2070 C2067 0.950 . S
C2071 C2062 1.390 . S
C2071 H2064 0.950 . S
C2071 C2068 1.387 . S
C2072 C2073 1.387 . S
C2072 H2076 0.950 . S
C2072 C2081 1.390 . S
C2073 C2072 1.387 . S
C2073 C2075 1.387 . S
H2074 C2081 0.950 . S
C2075 C2073 1.387 . S
C2075 C2077 1.390 . S
C2075 H2079 0.950 . S
H2076 C2072 0.950 . S
C2077 C2075 1.390 . S
C2077 C2078 1.387 . S
C2077 H2080 0.950 . S
C2078 C2077 1.387 . S
C2078 C2081 1.387 . S
H2079 C2075 0.950 . S
H2080 C2077 0.950 . S
C2081 C2072 1.390 . S
C2081 H2074 0.950 . S
C2081 C2078 1.387 . S
C2082 C2083 1.387 . S
C2082 H2086 0.950 . S
C2082 C2091 1.390 . S
C2083 C2082 1.387 . S
C2083 C2085 1.387 . S
H2084 C2091 0.950 . S
C2085 C2083 1.387 . S
C2085 C2087 1.390 . S
C2085 H2089 0.950 . S
H2086 C2082 0.950 . S
C2087 C2085 1.390 . S
C2087 C2088 1.387 . S
C2087 H2090 0.950 . S
C2088 C2087 1.387 . S
C2088 C2091 1.387 . S
H2089 C2085 0.950 . S
H2090 C2087 0.950 . S
C2091 C2082 1.390 . S
C2091 H2084 0.950 . S
C2091 C2088 1.387 . S
C2092 C2093 1.387 . S
C2092 H2096 0.950 . S
C2092 C2101 1.390 . S
C2093 C2092 1.387 . S
C2093 C2095 1.387 . S
H2094 C2101 0.950 . S
C2095 C2093 1.387 . S
C2095 C2097 1.390 . S
C2095 H2099 0.950 . S
H2096 C2092 0.950 . S
C2097 C2095 1.390 . S
C2097 C2098 1.387 . S
C2097 H2100 0.950 . S
C2098 C2097 1.387 . S
C2098 C2101 1.387 . S
H2099 C2095 0.950 . S
H2100 C2097 0.950 . S
C2101 C2092 1.390 . S
C2101 H2094 0.950 . S
C2101 C2098 1.387 . S
C2102 C2103 1.387 . S
C2102 H2106 0.950 . S
C2102 C2111 1.390 . S
C2103 C2102 1.387 . S
C2103 C2105 1.387 . S
H2104 C2111 0.950 . S
C2105 C2103 1.387 . S
C2105 C2107 1.390 . S
C2105 H2109 0.950 . S
H2106 C2102 0.950 . S
C2107 C2105 1.390 . S
C2107 C2108 1.387 . S
C2107 H2110 0.950 . S
C2108 C2107 1.387 . S
C2108 C2111 1.387 . S
H2109 C2105 0.950 . S
H2110 C2107 0.950 . S
C2111 C2102 1.390 . S
C2111 H2104 0.950 . S
C2111 C2108 1.387 . S
C2112 C2113 1.387 . S
C2112 H2116 0.950 . S
C2112 C2121 1.390 . S
C2113 C2112 1.387 . S
C2113 C2115 1.387 . S
H2114 C2121 0.950 . S
C2115 C2113 1.387 . S
C2115 C2117 1.390 . S
C2115 H2119 0.950 . S
H2116 C2112 0.950 . S
C2117 C2115 1.390 . S
C2117 C2118 1.387 . S
C2117 H2120 0.950 . S
C2118 C2117 1.387 . S
C2118 C2121 1.387 . S
H2119 C2115 0.950 . S
H2120 C2117 0.950 . S
C2121 C2112 1.390 . S
C2121 H2114 0.950 . S
C2121 C2118 1.387 . S
C2122 C2123 1.387 . S
C2122 H2126 0.950 . S
C2122 C2131 1.390 . S
C2123 C2122 1.387 . S
C2123 C2125 1.387 . S
H2124 C2131 0.950 . S
C2125 C2123 1.387 . S
C2125 C2127 1.390 . S
C2125 H2129 0.950 . S
H2126 C2122 0.950 . S
C2127 C2125 1.390 . S
C2127 C2128 1.387 . S
C2127 H2130 0.950 . S
C2128 C2127 1.387 . S
C2128 C2131 1.387 . S
H2129 C2125 0.950 . S
H2130 C2127 0.950 . S
C2131 C2122 1.390 . S
C2131 H2124 0.950 . S
C2131 C2128 1.387 . S
C2132 C2133 1.387 . S
C2132 H2136 0.950 . S
C2132 C2141 1.390 . S
C2133 C2132 1.387 . S
C2133 C2135 1.387 . S
H2134 C2141 0.950 . S
C2135 C2133 1.387 . S
C2135 C2137 1.390 . S
C2135 H2139 0.950 . S
H2136 C2132 0.950 . S
C2137 C2135 1.390 . S
C2137 C2138 1.387 . S
C2137 H2140 0.950 . S
C2138 C2137 1.387 . S
C2138 C2141 1.387 . S
H2139 C2135 0.950 . S
H2140 C2137 0.950 . S
C2141 C2132 1.390 . S
C2141 H2134 0.950 . S
C2141 C2138 1.387 . S
C2142 C2143 1.387 . S
C2142 H2146 0.950 . S
C2142 C2151 1.390 . S
C2143 C2142 1.387 . S
C2143 C2145 1.387 . S
H2144 C2151 0.950 . S
C2145 C2143 1.387 . S
C2145 C2147 1.390 . S
C2145 H2149 0.950 . S
H2146 C2142 0.950 . S
C2147 C2145 1.390 . S
C2147 C2148 1.387 . S
C2147 H2150 0.950 . S
C2148 C2147 1.387 . S
C2148 C2151 1.387 . S
H2149 C2145 0.950 . S
H2150 C2147 0.950 . S
C2151 C2142 1.390 . S
C2151 H2144 0.950 . S
C2151 C2148 1.387 . S
C2152 C2153 1.387 . S
C2152 H2156 0.950 . S
C2152 C2161 1.390 . S
C2153 C2152 1.387 . S
C2153 C2155 1.387 . S
H2154 C2161 0.950 . S
C2155 C2153 1.387 . S
C2155 C2157 1.390 . S
C2155 H2159 0.950 . S
H2156 C2152 0.950 . S
C2157 C2155 1.390 . S
C2157 C2158 1.387 . S
C2157 H2160 0.950 . S
C2158 C2157 1.387 . S
C2158 C2161 1.387 . S
H2159 C2155 0.950 . S
H2160 C2157 0.950 . S
C2161 C2152 1.390 . S
C2161 H2154 0.950 . S
C2161 C2158 1.387 . S
C2162 C2163 1.387 . S
C2162 H2166 0.950 . S
C2162 C2171 1.390 . S
C2163 C2162 1.387 . S
C2163 C2165 1.387 . S
H2164 C2171 0.950 . S
C2165 C2163 1.387 . S
C2165 C2167 1.390 . S
C2165 H2169 0.950 . S
H2166 C2162 0.950 . S
C2167 C2165 1.390 . S
C2167 C2168 1.387 . S
C2167 H2170 0.950 . S
C2168 C2167 1.387 . S
C2168 C2171 1.387 . S
H2169 C2165 0.950 . S
H2170 C2167 0.950 . S
C2171 C2162 1.390 . S
C2171 H2164 0.950 . S
C2171 C2168 1.387 . S
C2172 C2173 1.387 . S
C2172 H2176 0.950 . S
C2172 C2181 1.390 . S
C2173 C2172 1.387 . S
C2173 C2175 1.387 . S
H2174 C2181 0.950 . S
C2175 C2173 1.387 . S
C2175 C2177 1.390 . S
C2175 H2179 0.950 . S
H2176 C2172 0.950 . S
C2177 C2175 1.390 . S
C2177 C2178 1.387 . S
C2177 H2180 0.950 . S
C2178 C2177 1.387 . S
C2178 C2181 1.387 . S
H2179 C2175 0.950 . S
H2180 C2177 0.950 . S
C2181 C2172 1.390 . S
C2181 H2174 0.950 . S
C2181 C2178 1.387 . S
C2182 C2183 1.387 . S
C2182 H2186 0.950 . S
C2182 C2191 1.390 . S
C2183 C2182 1.387 . S
C2183 C2185 1.387 . S
H2184 C2191 0.950 . S
C2185 C2183 1.387 . S
C2185 C2187 1.390 . S
C2185 H2189 0.950 . S
H2186 C2182 0.950 . S
C2187 C2185 1.390 . S
C2187 C2188 1.387 . S
C2187 H2190 0.950 . S
C2188 C2187 1.387 . S
C2188 C2191 1.387 . S
H2189 C2185 0.950 . S
H2190 C2187 0.950 . S
C2191 C2182 1.390 . S
C2191 H2184 0.950 . S
C2191 C2188 1.387 . S
C2192 C2193 1.387 . S
C2192 H2196 0.950 . S
C2192 C2201 1.390 . S
C2193 C2192 1.387 . S
C2193 C2195 1.387 . S
H2194 C2201 0.950 . S
C2195 C2193 1.387 . S
C2195 C2197 1.390 . S
C2195 H2199 0.950 . S
H2196 C2192 0.950 . S
C2197 C2195 1.390 . S
C2197 C2198 1.387 . S
C2197 H2200 0.950 . S
C2198 C2197 1.387 . S
C2198 C2201 1.387 . S
H2199 C2195 0.950 . S
H2200 C2197 0.950 . S
C2201 C2192 1.390 . S
C2201 H2194 0.950 . S
C2201 C2198 1.387 . S
C2202 C2203 1.387 . S
C2202 H2206 0.950 . S
C2202 C2211 1.390 . S
C2203 C2202 1.387 . S
C2203 C2205 1.387 . S
H2204 C2211 0.950 . S
C2205 C2203 1.387 . S
C2205 C2207 1.390 . S
C2205 H2209 0.950 . S
H2206 C2202 0.950 . S
C2207 C2205 1.390 . S
C2207 C2208 1.387 . S
C2207 H2210 0.950 . S
C2208 C2207 1.387 . S
C2208 C2211 1.387 . S
H2209 C2205 0.950 . S
H2210 C2207 0.950 . S
C2211 C2202 1.390 . S
C2211 H2204 0.950 . S
C2211 C2208 1.387 . S
C2212 C2213 1.387 1_455 S
C2212 H2216 0.954 . S
C2212 C2221 1.390 . S
C2213 C2212 1.387 1_655 S
C2213 C2215 1.387 1_655 S
H2214 C2221 0.950 . S
C2215 C2213 1.387 1_455 S
C2215 C2217 1.390 . S
C2215 H2219 0.950 1_455 S
H2216 C2212 0.954 . S
C2217 C2215 1.390 . S
C2217 C2218 1.387 . S
C2217 H2220 0.950 . S
C2218 C2217 1.387 . S
C2218 C2221 1.387 . S
H2219 C2215 0.950 1_655 S
H2220 C2217 0.950 . S
C2221 C2212 1.390 . S
C2221 H2214 0.950 . S
C2221 C2218 1.387 . S
C2222 C2223 1.387 . S
C2222 H2226 0.950 . S
C2222 C2231 1.390 . S
C2223 C2222 1.387 . S
C2223 C2225 1.387 . S
H2224 C2231 0.950 . S
C2225 C2223 1.387 . S
C2225 C2227 1.390 . S
C2225 H2229 0.950 . S
H2226 C2222 0.950 . S
C2227 C2225 1.390 . S
C2227 C2228 1.387 . S
C2227 H2230 0.950 . S
C2228 C2227 1.387 . S
C2228 C2231 1.387 . S
H2229 C2225 0.950 . S
H2230 C2227 0.950 . S
C2231 C2222 1.390 . S
C2231 H2224 0.950 . S
C2231 C2228 1.387 . S
C2232 C2233 1.387 . S
C2232 H2236 0.950 . S
C2232 C2241 1.390 . S
C2233 C2232 1.387 . S
C2233 C2235 1.387 . S
H2234 C2241 0.950 . S
C2235 C2233 1.387 . S
C2235 C2237 1.390 . S
C2235 H2239 0.950 . S
H2236 C2232 0.950 . S
C2237 C2235 1.390 . S
C2237 C2238 1.387 . S
C2237 H2240 0.950 . S
C2238 C2237 1.387 . S
C2238 C2241 1.387 . S
H2239 C2235 0.950 . S
H2240 C2237 0.950 . S
C2241 C2232 1.390 . S
C2241 H2234 0.950 . S
C2241 C2238 1.387 . S
C2242 C2243 1.387 . S
C2242 H2246 0.950 . S
C2242 C2251 1.390 . S
C2243 C2242 1.387 . S
C2243 C2245 1.387 . S
H2244 C2251 0.950 . S
C2245 C2243 1.387 . S
C2245 C2247 1.390 . S
C2245 H2249 0.950 . S
H2246 C2242 0.950 . S
C2247 C2245 1.390 . S
C2247 C2248 1.387 . S
C2247 H2250 0.950 . S
C2248 C2247 1.387 . S
C2248 C2251 1.387 . S
H2249 C2245 0.950 . S
H2250 C2247 0.950 . S
C2251 C2242 1.390 . S
C2251 H2244 0.950 . S
C2251 C2248 1.387 . S
C2252 C2253 1.387 . S
C2252 H2256 0.950 . S
C2252 C2261 1.390 . S
C2253 C2252 1.387 . S
C2253 C2255 1.387 . S
H2254 C2261 0.950 1_655 S
C2255 C2253 1.387 . S
C2255 C2257 1.390 . S
C2255 H2259 0.950 . S
H2256 C2252 0.950 . S
C2257 C2255 1.390 . S
C2257 C2258 1.387 1_455 S
C2257 H2260 0.950 . S
C2258 C2257 1.387 1_655 S
C2258 C2261 1.387 1_655 S
H2259 C2255 0.950 . S
H2260 C2257 0.950 . S
C2261 C2252 1.390 . S
C2261 H2254 0.950 1_455 S
C2261 C2258 1.387 1_455 S
C2262 C2263 1.387 . S
C2262 H2266 0.950 . S
C2262 C2271 1.390 . S
C2263 C2262 1.387 . S
C2263 C2265 1.387 . S
H2264 C2271 0.950 . S
C2265 C2263 1.387 . S
C2265 C2267 1.390 . S
C2265 H2269 0.950 . S
H2266 C2262 0.950 . S
C2267 C2265 1.390 . S
C2267 C2268 1.387 . S
C2267 H2270 0.950 . S
C2268 C2267 1.387 . S
C2268 C2271 1.387 . S
H2269 C2265 0.950 . S
H2270 C2267 0.950 . S
C2271 C2262 1.390 . S
C2271 H2264 0.950 . S
C2271 C2268 1.387 . S
C2272 C2273 1.387 . S
C2272 H2276 0.950 . S
C2272 C2281 1.390 . S
C2273 C2272 1.387 . S
C2273 C2275 1.387 . S
H2274 C2281 0.950 . S
C2275 C2273 1.387 . S
C2275 C2277 1.390 . S
C2275 H2279 0.950 . S
H2276 C2272 0.950 . S
C2277 C2275 1.390 . S
C2277 C2278 1.387 . S
C2277 H2280 0.950 . S
C2278 C2277 1.387 . S
C2278 C2281 1.387 . S
H2279 C2275 0.950 . S
H2280 C2277 0.950 . S
C2281 C2272 1.390 . S
C2281 H2274 0.950 . S
C2281 C2278 1.387 . S
C2282 C2283 1.387 . S
C2282 H2286 0.950 . S
C2282 C2291 1.390 . S
C2283 C2282 1.387 . S
C2283 C2285 1.387 . S
H2284 C2291 0.950 . S
C2285 C2283 1.387 . S
C2285 C2287 1.390 . S
C2285 H2289 0.950 . S
H2286 C2282 0.950 . S
C2287 C2285 1.390 . S
C2287 C2288 1.387 . S
C2287 H2290 0.950 . S
C2288 C2287 1.387 . S
C2288 C2291 1.387 . S
H2289 C2285 0.950 . S
H2290 C2287 0.950 . S
C2291 C2282 1.390 . S
C2291 H2284 0.950 . S
C2291 C2288 1.387 . S
C2292 C2293 1.387 . S
C2292 H2296 0.950 . S
C2292 C2301 1.390 . S
C2293 C2292 1.387 . S
C2293 C2295 1.387 . S
H2294 C2301 0.950 . S
C2295 C2293 1.387 . S
C2295 C2297 1.390 . S
C2295 H2299 0.950 . S
H2296 C2292 0.950 . S
C2297 C2295 1.390 . S
C2297 C2298 1.387 . S
C2297 H2300 0.950 . S
C2298 C2297 1.387 . S
C2298 C2301 1.387 . S
H2299 C2295 0.950 . S
H2300 C2297 0.950 . S
C2301 C2292 1.390 . S
C2301 H2294 0.950 . S
C2301 C2298 1.387 . S
C2302 C2303 1.387 . S
C2302 H2306 0.950 . S
C2302 C2311 1.390 . S
C2303 C2302 1.387 . S
C2303 C2305 1.387 . S
H2304 C2311 0.950 . S
C2305 C2303 1.387 . S
C2305 C2307 1.390 . S
C2305 H2309 0.950 . S
H2306 C2302 0.950 . S
C2307 C2305 1.390 . S
C2307 C2308 1.387 . S
C2307 H2310 0.950 . S
C2308 C2307 1.387 . S
C2308 C2311 1.387 . S
H2309 C2305 0.950 . S
H2310 C2307 0.950 . S
C2311 C2302 1.390 . S
C2311 H2304 0.950 . S
C2311 C2308 1.387 . S
C2312 C2313 1.387 . S
C2312 H2316 0.950 . S
C2312 C2321 1.390 . S
C2313 C2312 1.387 . S
C2313 C2315 1.387 . S
H2314 C2321 0.950 . S
C2315 C2313 1.387 . S
C2315 C2317 1.390 . S
C2315 H2319 0.950 . S
H2316 C2312 0.950 . S
C2317 C2315 1.390 . S
C2317 C2318 1.387 . S
C2317 H2320 0.950 . S
C2318 C2317 1.387 . S
C2318 C2321 1.387 . S
H2319 C2315 0.950 . S
H2320 C2317 0.950 . S
C2321 C2312 1.390 . S
C2321 H2314 0.950 . S
C2321 C2318 1.387 . S
C2322 C2323 1.387 . S
C2322 H2326 0.950 . S
C2322 C2331 1.390 . S
C2323 C2322 1.387 . S
C2323 C2325 1.387 . S
H2324 C2331 0.950 . S
C2325 C2323 1.387 . S
C2325 C2327 1.390 . S
C2325 H2329 0.950 . S
H2326 C2322 0.950 . S
C2327 C2325 1.390 . S
C2327 C2328 1.387 . S
C2327 H2330 0.950 . S
C2328 C2327 1.387 . S
C2328 C2331 1.387 . S
H2329 C2325 0.950 . S
H2330 C2327 0.950 . S
C2331 C2322 1.390 . S
C2331 H2324 0.950 . S
C2331 C2328 1.387 . S
C2332 C2333 1.387 . S
C2332 H2336 0.950 . S
C2332 C2341 1.390 . S
C2333 C2332 1.387 . S
C2333 C2335 1.387 . S
H2334 C2341 0.950 . S
C2335 C2333 1.387 . S
C2335 C2337 1.390 . S
C2335 H2339 0.950 . S
H2336 C2332 0.950 . S
C2337 C2335 1.390 . S
C2337 C2338 1.387 . S
C2337 H2340 0.950 . S
C2338 C2337 1.387 . S
C2338 C2341 1.387 . S
H2339 C2335 0.950 . S
H2340 C2337 0.950 . S
C2341 C2332 1.390 . S
C2341 H2334 0.950 . S
C2341 C2338 1.387 . S
C2342 C2343 1.387 . S
C2342 H2346 0.950 . S
C2342 C2351 1.390 . S
C2343 C2342 1.387 . S
C2343 C2345 1.387 . S
H2344 C2351 0.950 . S
C2345 C2343 1.387 . S
C2345 C2347 1.390 . S
C2345 H2349 0.950 . S
H2346 C2342 0.950 . S
C2347 C2345 1.390 . S
C2347 C2348 1.387 . S
C2347 H2350 0.950 . S
C2348 C2347 1.387 . S
C2348 C2351 1.387 . S
H2349 C2345 0.950 . S
H2350 C2347 0.950 . S
C2351 C2342 1.390 . S
C2351 H2344 0.950 . S
C2351 C2348 1.387 . S
C2352 C2353 1.387 . S
C2352 H2356 0.950 . S
C2352 C2361 1.390 . S
C2353 C2352 1.387 . S
C2353 C2355 1.387 . S
H2354 C2361 0.950 . S
C2355 C2353 1.387 . S
C2355 C2357 1.390 . S
C2355 H2359 0.950 . S
H2356 C2352 0.950 . S
C2357 C2355 1.390 . S
C2357 C2358 1.387 . S
C2357 H2360 0.950 . S
C2358 C2357 1.387 . S
C2358 C2361 1.387 . S
H2359 C2355 0.950 . S
H2360 C2357 0.950 . S
C2361 C2352 1.390 . S
C2361 H2354 0.950 . S
C2361 C2358 1.387 . S
C2362 C2363 1.387 . S
C2362 H2366 0.950 . S
C2362 C2371 1.390 . S
C2363 C2362 1.387 . S
C2363 C2365 1.387 . S
H2364 C2371 0.950 . S
C2365 C2363 1.387 . S
C2365 C2367 1.390 . S
C2365 H2369 0.950 . S
H2366 C2362 0.950 . S
C2367 C2365 1.390 . S
C2367 C2368 1.387 . S
C2367 H2370 0.950 . S
C2368 C2367 1.387 . S
C2368 C2371 1.387 . S
H2369 C2365 0.950 . S
H2370 C2367 0.950 . S
C2371 C2362 1.390 . S
C2371 H2364 0.950 . S
C2371 C2368 1.387 . S
C2372 C2373 1.387 . S
C2372 H2376 0.950 . S
C2372 C2381 1.390 . S
C2373 C2372 1.387 . S
C2373 C2375 1.387 . S
H2374 C2381 0.950 . S
C2375 C2373 1.387 . S
C2375 C2377 1.390 . S
C2375 H2379 0.950 . S
H2376 C2372 0.950 . S
C2377 C2375 1.390 . S
C2377 C2378 1.387 . S
C2377 H2380 0.950 . S
C2378 C2377 1.387 . S
C2378 C2381 1.387 . S
H2379 C2375 0.950 . S
H2380 C2377 0.950 . S
C2381 C2372 1.390 . S
C2381 H2374 0.950 . S
C2381 C2378 1.387 . S
C2382 C2383 1.387 . S
C2382 H2386 0.950 . S
C2382 C2391 1.390 . S
C2383 C2382 1.387 . S
C2383 C2385 1.387 . S
H2384 C2391 0.950 . S
C2385 C2383 1.387 . S
C2385 C2387 1.390 . S
C2385 H2389 0.950 . S
H2386 C2382 0.950 . S
C2387 C2385 1.390 . S
C2387 C2388 1.387 . S
C2387 H2390 0.950 . S
C2388 C2387 1.387 . S
C2388 C2391 1.387 . S
H2389 C2385 0.950 . S
H2390 C2387 0.950 . S
C2391 C2382 1.390 . S
C2391 H2384 0.950 . S
C2391 C2388 1.387 . S
C2392 C2393 1.387 . S
C2392 H2396 0.950 . S
C2392 C2401 1.390 . S
C2393 C2392 1.387 . S
C2393 C2395 1.387 . S
H2394 C2401 0.950 1_554 S
C2395 C2393 1.387 . S
C2395 C2397 1.390 . S
C2395 H2399 0.950 . S
H2396 C2392 0.950 . S
C2397 C2395 1.390 . S
C2397 C2398 1.387 . S
C2397 H2400 0.950 . S
C2398 C2397 1.387 . S
C2398 C2401 1.387 . S
H2399 C2395 0.950 . S
H2400 C2397 0.950 . S
C2401 C2392 1.390 . S
C2401 H2394 0.950 1_556 S
C2401 C2398 1.387 . S
C2402 C2403 1.387 . S
C2402 H2406 0.950 . S
C2402 C2411 1.390 . S
C2403 C2402 1.387 . S
C2403 C2405 1.387 . S
H2404 C2411 0.950 . S
C2405 C2403 1.387 . S
C2405 C2407 1.390 . S
C2405 H2409 0.950 . S
H2406 C2402 0.950 . S
C2407 C2405 1.390 . S
C2407 C2408 1.387 . S
C2407 H2410 0.950 . S
C2408 C2407 1.387 . S
C2408 C2411 1.387 . S
H2409 C2405 0.950 . S
H2410 C2407 0.950 . S
C2411 C2402 1.390 . S
C2411 H2404 0.950 . S
C2411 C2408 1.387 . S
C2412 C2413 1.387 . S
C2412 H2416 0.950 . S
C2412 C2421 1.390 . S
C2413 C2412 1.387 . S
C2413 C2415 1.387 . S
H2414 C2421 0.950 . S
C2415 C2413 1.387 . S
C2415 C2417 1.390 . S
C2415 H2419 0.950 . S
H2416 C2412 0.950 . S
C2417 C2415 1.390 . S
C2417 C2418 1.387 . S
C2417 H2420 0.950 . S
C2418 C2417 1.387 . S
C2418 C2421 1.387 . S
H2419 C2415 0.950 . S
H2420 C2417 0.950 . S
C2421 C2412 1.390 . S
C2421 H2414 0.950 . S
C2421 C2418 1.387 . S
C2422 C2423 1.387 . S
C2422 H2426 0.950 . S
C2422 C2431 1.390 . S
C2423 C2422 1.387 . S
C2423 C2425 1.387 . S
H2424 C2431 0.950 . S
C2425 C2423 1.387 . S
C2425 C2427 1.390 . S
C2425 H2429 0.950 . S
H2426 C2422 0.950 . S
C2427 C2425 1.390 . S
C2427 C2428 1.387 . S
C2427 H2430 0.950 . S
C2428 C2427 1.387 . S
C2428 C2431 1.387 . S
H2429 C2425 0.950 . S
H2430 C2427 0.950 . S
C2431 C2422 1.390 . S
C2431 H2424 0.950 . S
C2431 C2428 1.387 . S
C2432 C2433 1.387 . S
C2432 H2436 0.950 . S
C2432 C2441 1.390 . S
C2433 C2432 1.387 . S
C2433 C2435 1.387 . S
H2434 C2441 0.950 . S
C2435 C2433 1.387 . S
C2435 C2437 1.390 . S
C2435 H2439 0.950 . S
H2436 C2432 0.950 . S
C2437 C2435 1.390 . S
C2437 C2438 1.387 . S
C2437 H2440 0.950 . S
C2438 C2437 1.387 . S
C2438 C2441 1.387 . S
H2439 C2435 0.950 . S
H2440 C2437 0.950 . S
C2441 C2432 1.390 . S
C2441 H2434 0.950 . S
C2441 C2438 1.387 . S
C2442 C2443 1.387 . S
C2442 H2446 0.950 . S
C2442 C2451 1.390 . S
C2443 C2442 1.387 . S
C2443 C2445 1.387 . S
H2444 C2451 0.950 . S
C2445 C2443 1.387 . S
C2445 C2447 1.390 . S
C2445 H2449 0.950 . S
H2446 C2442 0.950 . S
C2447 C2445 1.390 . S
C2447 C2448 1.387 . S
C2447 H2450 0.950 . S
C2448 C2447 1.387 . S
C2448 C2451 1.387 . S
H2449 C2445 0.950 . S
H2450 C2447 0.950 . S
C2451 C2442 1.390 . S
C2451 H2444 0.950 . S
C2451 C2448 1.387 . S
C2452 C2453 1.387 . S
C2452 H2456 0.950 . S
C2452 C2461 1.390 . S
C2453 C2452 1.387 . S
C2453 C2455 1.387 . S
H2454 C2461 0.950 . S
C2455 C2453 1.387 . S
C2455 C2457 1.390 1_655 S
C2455 H2459 0.950 . S
H2456 C2452 0.950 . S
C2457 C2455 1.390 1_455 S
C2457 C2458 1.387 . S
C2457 H2460 0.950 . S
C2458 C2457 1.387 . S
C2458 C2461 1.387 1_455 S
H2459 C2455 0.950 . S
H2460 C2457 0.950 . S
C2461 C2452 1.390 . S
C2461 H2454 0.950 . S
C2461 C2458 1.387 1_655 S
C2462 C2463 1.387 . S
C2462 H2466 0.950 . S
C2462 C2471 1.390 . S
C2463 C2462 1.387 . S
C2463 C2465 1.387 . S
H2464 C2471 0.950 . S
C2465 C2463 1.387 . S
C2465 C2467 1.390 . S
C2465 H2469 0.950 . S
H2466 C2462 0.950 . S
C2467 C2465 1.390 . S
C2467 C2468 1.387 . S
C2467 H2470 0.950 . S
C2468 C2467 1.387 . S
C2468 C2471 1.387 . S
H2469 C2465 0.950 . S
H2470 C2467 0.950 . S
C2471 C2462 1.390 . S
C2471 H2464 0.950 . S
C2471 C2468 1.387 . S
C2472 C2473 1.387 . S
C2472 H2476 0.950 . S
C2472 C2481 1.390 . S
C2473 C2472 1.387 . S
C2473 C2475 1.387 . S
H2474 C2481 0.950 . S
C2475 C2473 1.387 . S
C2475 C2477 1.390 . S
C2475 H2479 0.950 . S
H2476 C2472 0.950 . S
C2477 C2475 1.390 . S
C2477 C2478 1.387 . S
C2477 H2480 0.950 . S
C2478 C2477 1.387 . S
C2478 C2481 1.387 . S
H2479 C2475 0.950 . S
H2480 C2477 0.950 . S
C2481 C2472 1.390 . S
C2481 H2474 0.950 . S
C2481 C2478 1.387 . S
C2482 C2483 1.387 . S
C2482 H2486 0.950 . S
C2482 C2491 1.390 . S
C2483 C2482 1.387 . S
C2483 C2485 1.387 . S
H2484 C2491 0.950 . S
C2485 C2483 1.387 . S
C2485 C2487 1.390 . S
C2485 H2489 0.950 . S
H2486 C2482 0.950 . S
C2487 C2485 1.390 . S
C2487 C2488 1.387 . S
C2487 H2490 0.950 . S
C2488 C2487 1.387 . S
C2488 C2491 1.387 . S
H2489 C2485 0.950 . S
H2490 C2487 0.950 . S
C2491 C2482 1.390 . S
C2491 H2484 0.950 . S
C2491 C2488 1.387 . S
C2492 C2493 1.387 . S
C2492 H2496 0.950 . S
C2492 C2501 1.390 . S
C2493 C2492 1.387 . S
C2493 C2495 1.387 . S
H2494 C2501 0.950 . S
C2495 C2493 1.387 . S
C2495 C2497 1.390 . S
C2495 H2499 0.950 . S
H2496 C2492 0.950 . S
C2497 C2495 1.390 . S
C2497 C2498 1.387 . S
C2497 H2500 0.950 . S
C2498 C2497 1.387 . S
C2498 C2501 1.387 . S
H2499 C2495 0.950 . S
H2500 C2497 0.950 . S
C2501 C2492 1.390 . S
C2501 H2494 0.950 . S
C2501 C2498 1.387 . S
C2502 C2503 1.387 . S
C2502 H2506 0.950 . S
C2502 C2511 1.390 . S
C2503 C2502 1.387 . S
C2503 C2505 1.387 . S
H2504 C2511 0.950 . S
C2505 C2503 1.387 . S
C2505 C2507 1.390 . S
C2505 H2509 0.950 . S
H2506 C2502 0.950 . S
C2507 C2505 1.390 . S
C2507 C2508 1.387 . S
C2507 H2510 0.950 . S
C2508 C2507 1.387 . S
C2508 C2511 1.387 . S
H2509 C2505 0.950 . S
H2510 C2507 0.950 . S
C2511 C2502 1.390 . S
C2511 H2504 0.950 . S
C2511 C2508 1.387 . S
C2512 C2513 1.387 . S
C2512 H2516 0.950 . S
C2512 C2521 1.390 . S
C2513 C2512 1.387 . S
C2513 C2515 1.387 . S
H2514 C2521 0.950 . S
C2515 C2513 1.387 . S
C2515 C2517 1.390 . S
C2515 H2519 0.950 . S
H2516 C2512 0.950 . S
C2517 C2515 1.390 . S
C2517 C2518 1.387 . S
C2517 H2520 0.950 . S
C2518 C2517 1.387 . S
C2518 C2521 1.387 . S
H2519 C2515 0.950 . S
H2520 C2517 0.950 . S
C2521 C2512 1.390 . S
C2521 H2514 0.950 . S
C2521 C2518 1.387 . S
C2522 C2523 1.387 . S
C2522 H2526 0.950 . S
C2522 C2531 1.390 . S
C2523 C2522 1.387 . S
C2523 C2525 1.387 . S
H2524 C2531 0.950 1_545 S
C2525 C2523 1.387 . S
C2525 C2527 1.390 . S
C2525 H2529 0.950 . S
H2526 C2522 0.950 . S
C2527 C2525 1.390 . S
C2527 C2528 1.387 . S
C2527 H2530 0.950 . S
C2528 C2527 1.387 . S
C2528 C2531 1.387 . S
H2529 C2525 0.950 . S
H2530 C2527 0.950 . S
C2531 C2522 1.390 . S
C2531 H2524 0.950 1_565 S
C2531 C2528 1.387 . S
C2532 C2533 1.387 . S
C2532 H2536 0.950 . S
C2532 C2541 1.390 . S
C2533 C2532 1.387 . S
C2533 C2535 1.387 . S
H2534 C2541 0.950 . S
C2535 C2533 1.387 . S
C2535 C2537 1.390 . S
C2535 H2539 0.950 . S
H2536 C2532 0.950 . S
C2537 C2535 1.390 . S
C2537 C2538 1.387 . S
C2537 H2540 0.950 . S
C2538 C2537 1.387 . S
C2538 C2541 1.387 . S
H2539 C2535 0.950 . S
H2540 C2537 0.950 . S
C2541 C2532 1.390 . S
C2541 H2534 0.950 . S
C2541 C2538 1.387 . S
C2542 C2543 1.387 . S
C2542 H2546 0.950 1_545 S
C2542 C2551 1.390 . S
C2543 C2542 1.387 . S
C2543 C2545 1.387 . S
H2544 C2551 0.950 . S
C2545 C2543 1.387 . S
C2545 C2547 1.390 . S
C2545 H2549 0.950 . S
H2546 C2542 0.950 1_565 S
C2547 C2545 1.390 . S
C2547 C2548 1.387 . S
C2547 H2550 0.950 . S
C2548 C2547 1.387 . S
C2548 C2551 1.387 . S
H2549 C2545 0.950 . S
H2550 C2547 0.950 . S
C2551 C2542 1.390 . S
C2551 H2544 0.950 . S
C2551 C2548 1.387 . S
C2552 C2553 1.387 . S
C2552 H2556 0.950 . S
C2552 C2561 1.390 . S
C2553 C2552 1.387 . S
C2553 C2555 1.387 . S
H2554 C2561 0.950 . S
C2555 C2553 1.387 . S
C2555 C2557 1.390 . S
C2555 H2559 0.950 . S
H2556 C2552 0.950 . S
C2557 C2555 1.390 . S
C2557 C2558 1.387 . S
C2557 H2560 0.950 . S
C2558 C2557 1.387 . S
C2558 C2561 1.387 . S
H2559 C2555 0.950 . S
H2560 C2557 0.950 . S
C2561 C2552 1.390 . S
C2561 H2554 0.950 . S
C2561 C2558 1.387 . S
C2562 C2563 1.387 . S
C2562 H2566 0.950 . S
C2562 C2571 1.390 . S
C2563 C2562 1.387 . S
C2563 C2565 1.387 . S
H2564 C2571 0.950 . S
C2565 C2563 1.387 . S
C2565 C2567 1.390 . S
C2565 H2569 0.950 . S
H2566 C2562 0.950 . S
C2567 C2565 1.390 . S
C2567 C2568 1.387 . S
C2567 H2570 0.950 . S
C2568 C2567 1.387 . S
C2568 C2571 1.387 . S
H2569 C2565 0.950 . S
H2570 C2567 0.950 . S
C2571 C2562 1.390 . S
C2571 H2564 0.950 . S
C2571 C2568 1.387 . S
C2572 C2573 1.387 . S
C2572 H2576 0.950 . S
C2572 C2581 1.390 . S
C2573 C2572 1.387 . S
C2573 C2575 1.387 . S
H2574 C2581 0.950 . S
C2575 C2573 1.387 . S
C2575 C2577 1.390 . S
C2575 H2579 0.950 . S
H2576 C2572 0.950 . S
C2577 C2575 1.390 . S
C2577 C2578 1.387 . S
C2577 H2580 0.950 . S
C2578 C2577 1.387 . S
C2578 C2581 1.387 . S
H2579 C2575 0.950 . S
H2580 C2577 0.950 . S
C2581 C2572 1.390 . S
C2581 H2574 0.950 . S
C2581 C2578 1.387 . S
C2582 C2583 1.387 . S
C2582 H2586 0.950 . S
C2582 C2591 1.390 . S
C2583 C2582 1.387 . S
C2583 C2585 1.387 . S
H2584 C2591 0.950 . S
C2585 C2583 1.387 . S
C2585 C2587 1.390 . S
C2585 H2589 0.950 . S
H2586 C2582 0.950 . S
C2587 C2585 1.390 . S
C2587 C2588 1.387 . S
C2587 H2590 0.950 . S
C2588 C2587 1.387 . S
C2588 C2591 1.387 . S
H2589 C2585 0.950 . S
H2590 C2587 0.950 . S
C2591 C2582 1.390 . S
C2591 H2584 0.950 . S
C2591 C2588 1.387 . S
C2592 C2593 1.387 . S
C2592 H2596 0.950 . S
C2592 C2601 1.390 1_655 S
C2593 C2592 1.387 . S
C2593 C2595 1.387 . S
H2594 C2601 0.950 . S
C2595 C2593 1.387 . S
C2595 C2597 1.390 1_655 S
C2595 H2599 0.950 . S
H2596 C2592 0.950 . S
C2597 C2595 1.390 1_455 S
C2597 C2598 1.387 . S
C2597 H2600 0.950 . S
C2598 C2597 1.387 . S
C2598 C2601 1.387 . S
H2599 C2595 0.950 . S
H2600 C2597 0.950 . S
C2601 C2592 1.390 1_455 S
C2601 H2594 0.950 . S
C2601 C2598 1.387 . S
C2602 C2603 1.387 . S
C2602 H2606 0.950 . S
C2602 C2611 1.390 1_455 S
C2603 C2602 1.387 . S
C2603 C2605 1.387 . S
H2604 C2611 0.950 . S
C2605 C2603 1.387 . S
C2605 C2607 1.390 1_455 S
C2605 H2609 0.950 . S
H2606 C2602 0.950 . S
C2607 C2605 1.390 1_655 S
C2607 C2608 1.387 . S
C2607 H2610 0.950 . S
C2608 C2607 1.387 . S
C2608 C2611 1.387 . S
H2609 C2605 0.950 . S
H2610 C2607 0.950 . S
C2611 C2602 1.390 1_655 S
C2611 H2604 0.950 . S
C2611 C2608 1.387 . S
C2612 C2613 1.387 . S
C2612 H2616 0.950 . S
C2612 C2621 1.390 . S
C2613 C2612 1.387 . S
C2613 C2615 1.387 . S
H2614 C2621 0.950 . S
C2615 C2613 1.387 . S
C2615 C2617 1.390 . S
C2615 H2619 0.950 . S
H2616 C2612 0.950 . S
C2617 C2615 1.390 . S
C2617 C2618 1.387 . S
C2617 H2620 0.950 . S
C2618 C2617 1.387 . S
C2618 C2621 1.387 . S
H2619 C2615 0.950 . S
H2620 C2617 0.950 . S
C2621 C2612 1.390 . S
C2621 H2614 0.950 . S
C2621 C2618 1.387 . S
C2622 C2623 1.387 . S
C2622 H2626 0.950 . S
C2622 C2631 1.390 . S
C2623 C2622 1.387 . S
C2623 C2625 1.387 . S
H2624 C2631 0.950 . S
C2625 C2623 1.387 . S
C2625 C2627 1.390 . S
C2625 H2629 0.950 . S
H2626 C2622 0.950 . S
C2627 C2625 1.390 . S
C2627 C2628 1.387 . S
C2627 H2630 0.950 . S
C2628 C2627 1.387 . S
C2628 C2631 1.387 . S
H2629 C2625 0.950 . S
H2630 C2627 0.950 . S
C2631 C2622 1.390 . S
C2631 H2624 0.950 . S
C2631 C2628 1.387 . S
C2632 C2633 1.387 . S
C2632 H2636 0.950 . S
C2632 C2641 1.390 . S
C2633 C2632 1.387 . S
C2633 C2635 1.387 . S
H2634 C2641 0.950 . S
C2635 C2633 1.387 . S
C2635 C2637 1.390 . S
C2635 H2639 0.950 . S
H2636 C2632 0.950 . S
C2637 C2635 1.390 . S
C2637 C2638 1.387 . S
C2637 H2640 0.933 1_565 S
C2638 C2637 1.387 . S
C2638 C2641 1.387 . S
H2639 C2635 0.950 . S
H2640 C2637 0.933 1_545 S
C2641 C2632 1.390 . S
C2641 H2634 0.950 . S
C2641 C2638 1.387 . S
C2642 C2643 1.387 . S
C2642 H2646 0.950 . S
C2642 C2651 1.390 . S
C2643 C2642 1.387 . S
C2643 C2645 1.387 . S
H2644 C2651 0.950 . S
C2645 C2643 1.387 . S
C2645 C2647 1.390 . S
C2645 H2649 0.950 . S
H2646 C2642 0.950 . S
C2647 C2645 1.390 . S
C2647 C2648 1.387 . S
C2647 H2650 0.950 . S
C2648 C2647 1.387 . S
C2648 C2651 1.387 . S
H2649 C2645 0.950 . S
H2650 C2647 0.950 . S
C2651 C2642 1.390 . S
C2651 H2644 0.950 . S
C2651 C2648 1.387 . S
C2652 C2653 1.387 . S
C2652 H2656 0.950 . S
C2652 C2661 1.390 1_545 S
C2653 C2652 1.387 . S
C2653 C2655 1.387 . S
H2654 C2661 0.950 . S
C2655 C2653 1.387 . S
C2655 C2657 1.390 1_545 S
C2655 H2659 0.950 . S
H2656 C2652 0.950 . S
C2657 C2655 1.390 1_565 S
C2657 C2658 1.387 . S
C2657 H2660 0.950 . S
C2658 C2657 1.387 . S
C2658 C2661 1.387 . S
H2659 C2655 0.950 . S
H2660 C2657 0.950 . S
C2661 C2652 1.390 1_565 S
C2661 H2654 0.950 . S
C2661 C2658 1.387 . S
C2662 C2663 1.387 . S
C2662 H2666 0.950 . S
C2662 C2671 1.414 . S
C2663 C2662 1.387 . S
C2663 C2665 1.387 . S
H2664 C2671 0.940 1_554 S
C2665 C2663 1.387 . S
C2665 C2667 1.390 1_556 S
C2665 H2669 0.950 . S
H2666 C2662 0.950 . S
C2667 C2665 1.390 1_554 S
C2667 C2668 1.387 . S
C2667 H2670 0.950 . S
C2668 C2667 1.387 . S
C2668 C2671 1.374 1_554 S
H2669 C2665 0.950 . S
H2670 C2667 0.950 . S
C2671 C2662 1.414 . S
C2671 H2664 0.940 1_556 S
C2671 C2668 1.374 1_556 S
C2672 C2673 1.387 1_556 S
C2672 H2676 0.950 . S
C2672 C2681 1.390 . S
C2673 C2672 1.387 1_554 S
C2673 C2675 1.387 . S
H2674 C2681 0.950 . S
C2675 C2673 1.387 . S
C2675 C2677 1.390 1_554 S
C2675 H2679 0.950 . S
H2676 C2672 0.950 . S
C2677 C2675 1.390 1_556 S
C2677 C2678 1.387 . S
C2677 H2680 0.950 . S
C2678 C2677 1.387 . S
C2678 C2681 1.387 . S
H2679 C2675 0.950 . S
H2680 C2677 0.950 . S
C2681 C2672 1.390 . S
C2681 H2674 0.950 . S
C2681 C2678 1.387 . S
C2682 C2683 1.387 . S
C2682 H2686 0.950 . S
C2682 C2691 1.390 . S
C2683 C2682 1.387 . S
C2683 C2685 1.387 . S
H2684 C2691 0.950 . S
C2685 C2683 1.387 . S
C2685 C2687 1.390 . S
C2685 H2689 0.950 . S
H2686 C2682 0.950 . S
C2687 C2685 1.390 . S
C2687 C2688 1.387 . S
C2687 H2690 0.950 . S
C2688 C2687 1.387 . S
C2688 C2691 1.387 . S
H2689 C2685 0.950 . S
H2690 C2687 0.950 . S
C2691 C2682 1.390 . S
C2691 H2684 0.950 . S
C2691 C2688 1.387 . S
C2692 C2693 1.387 . S
C2692 H2696 0.950 . S
C2692 C2701 1.390 . S
C2693 C2692 1.387 . S
C2693 C2695 1.387 . S
H2694 C2701 0.950 . S
C2695 C2693 1.387 . S
C2695 C2697 1.390 . S
C2695 H2699 0.950 . S
H2696 C2692 0.950 . S
C2697 C2695 1.390 . S
C2697 C2698 1.387 . S
C2697 H2700 0.950 . S
C2698 C2697 1.387 . S
C2698 C2701 1.387 . S
H2699 C2695 0.950 . S
H2700 C2697 0.950 . S
C2701 C2692 1.390 . S
C2701 H2694 0.950 . S
C2701 C2698 1.387 . S
C2702 C2703 1.387 . S
C2702 H2706 0.950 . S
C2702 C2711 1.390 . S
C2703 C2702 1.387 . S
C2703 C2705 1.387 . S
H2704 C2711 0.950 . S
C2705 C2703 1.387 . S
C2705 C2707 1.390 . S
C2705 H2709 0.950 . S
H2706 C2702 0.950 . S
C2707 C2705 1.390 . S
C2707 C2708 1.387 . S
C2707 H2710 0.950 . S
C2708 C2707 1.387 . S
C2708 C2711 1.387 . S
H2709 C2705 0.950 . S
H2710 C2707 0.950 . S
C2711 C2702 1.390 . S
C2711 H2704 0.950 . S
C2711 C2708 1.387 . S
C2712 C2713 1.387 . S
C2712 H2716 0.950 . S
C2712 C2721 1.390 1_655 S
C2713 C2712 1.387 . S
C2713 C2715 1.387 . S
H2714 C2721 0.950 . S
C2715 C2713 1.387 . S
C2715 C2717 1.390 1_655 S
C2715 H2719 0.950 . S
H2716 C2712 0.950 . S
C2717 C2715 1.390 1_455 S
C2717 C2718 1.387 . S
C2717 H2720 0.950 . S
C2718 C2717 1.387 . S
C2718 C2721 1.387 . S
H2719 C2715 0.950 . S
H2720 C2717 0.950 . S
C2721 C2712 1.390 1_455 S
C2721 H2714 0.950 . S
C2721 C2718 1.387 . S
C2722 C2723 1.387 . S
C2722 H2726 0.950 . S
C2722 C2731 1.390 1_655 S
C2723 C2722 1.387 . S
C2723 C2725 1.387 . S
H2724 C2731 0.950 . S
C2725 C2723 1.387 . S
C2725 C2727 1.393 . S
C2725 H2729 0.950 . S
H2726 C2722 0.950 . S
C2727 C2725 1.393 . S
C2727 C2728 1.386 1_655 S
C2727 H2730 0.948 1_655 S
C2728 C2727 1.386 1_455 S
C2728 C2731 1.387 . S
H2729 C2725 0.950 . S
H2730 C2727 0.948 1_455 S
C2731 C2722 1.390 1_455 S
C2731 H2724 0.950 . S
C2731 C2728 1.387 . S
C2732 C2733 1.387 . S
C2732 H2736 0.950 . S
C2732 C2741 1.390 . S
C2733 C2732 1.387 . S
C2733 C2735 1.387 . S
H2734 C2741 0.950 . S
C2735 C2733 1.387 . S
C2735 C2737 1.390 . S
C2735 H2739 0.950 . S
H2736 C2732 0.950 . S
C2737 C2735 1.390 . S
C2737 C2738 1.387 . S
C2737 H2740 0.950 . S
C2738 C2737 1.387 . S
C2738 C2741 1.387 . S
H2739 C2735 0.950 . S
H2740 C2737 0.950 . S
C2741 C2732 1.390 . S
C2741 H2734 0.950 . S
C2741 C2738 1.387 . S
C2742 C2743 1.387 . S
C2742 H2746 0.950 . S
C2742 C2751 1.390 . S
C2743 C2742 1.387 . S
C2743 C2745 1.387 . S
H2744 C2751 0.950 . S
C2745 C2743 1.387 . S
C2745 C2747 1.390 . S
C2745 H2749 0.950 . S
H2746 C2742 0.950 . S
C2747 C2745 1.390 . S
C2747 C2748 1.387 . S
C2747 H2750 0.950 . S
C2748 C2747 1.387 . S
C2748 C2751 1.387 . S
H2749 C2745 0.950 . S
H2750 C2747 0.950 . S
C2751 C2742 1.390 . S
C2751 H2744 0.950 . S
C2751 C2748 1.387 . S
C2752 C2753 1.387 . S
C2752 H2756 0.950 . S
C2752 C2761 1.393 1_545 S
C2753 C2752 1.387 . S
C2753 C2755 1.387 . S
H2754 C2761 0.947 . S
C2755 C2753 1.387 . S
C2755 C2757 1.390 . S
C2755 H2759 0.950 . S
H2756 C2752 0.950 . S
C2757 C2755 1.390 . S
C2757 C2758 1.387 1_545 S
C2757 H2760 0.950 . S
C2758 C2757 1.387 1_565 S
C2758 C2761 1.387 . S
H2759 C2755 0.950 . S
H2760 C2757 0.950 . S
C2761 C2752 1.393 1_565 S
C2761 H2754 0.947 . S
C2761 C2758 1.387 . S
C2762 C2763 1.387 . S
C2762 H2766 0.950 . S
C2762 C2771 1.390 . S
C2763 C2762 1.387 . S
C2763 C2765 1.387 . S
H2764 C2771 0.950 . S
C2765 C2763 1.387 . S
C2765 C2767 1.390 . S
C2765 H2769 0.950 . S
H2766 C2762 0.950 . S
C2767 C2765 1.390 . S
C2767 C2768 1.387 . S
C2767 H2770 0.950 . S
C2768 C2767 1.387 . S
C2768 C2771 1.387 . S
H2769 C2765 0.950 . S
H2770 C2767 0.950 . S
C2771 C2762 1.390 . S
C2771 H2764 0.950 . S
C2771 C2768 1.387 . S
C2772 C2773 1.387 1_565 S
C2772 H2776 0.950 1_565 S
C2772 C2781 1.390 . S
C2773 C2772 1.387 1_545 S
C2773 C2775 1.387 1_545 S
H2774 C2781 0.950 . S
C2775 C2773 1.387 1_565 S
C2775 C2777 1.390 . S
C2775 H2779 0.950 1_565 S
H2776 C2772 0.950 1_545 S
C2777 C2775 1.390 . S
C2777 C2778 1.387 . S
C2777 H2780 0.950 . S
C2778 C2777 1.387 . S
C2778 C2781 1.387 . S
H2779 C2775 0.950 1_545 S
H2780 C2777 0.950 . S
C2781 C2772 1.390 . S
C2781 H2774 0.950 . S
C2781 C2778 1.387 . S
C2782 C2783 1.387 . S
C2782 H2786 0.950 . S
C2782 C2791 1.390 . S
C2783 C2782 1.387 . S
C2783 C2785 1.387 . S
H2784 C2791 0.950 . S
C2785 C2783 1.387 . S
C2785 C2787 1.390 . S
C2785 H2789 0.950 . S
H2786 C2782 0.950 . S
C2787 C2785 1.390 . S
C2787 C2788 1.387 . S
C2787 H2790 0.950 . S
C2788 C2787 1.387 . S
C2788 C2791 1.387 . S
H2789 C2785 0.950 . S
H2790 C2787 0.950 . S
C2791 C2782 1.390 . S
C2791 H2784 0.950 . S
C2791 C2788 1.387 . S
C2792 C2793 1.387 1_554 S
C2792 H2796 0.950 . S
C2792 C2801 1.390 . S
C2793 C2792 1.387 1_556 S
C2793 C2795 1.387 . S
H2794 C2801 0.950 . S
C2795 C2793 1.387 . S
C2795 C2797 1.390 . S
C2795 H2799 0.950 . S
H2796 C2792 0.950 . S
C2797 C2795 1.390 . S
C2797 C2798 1.387 1_556 S
C2797 H2800 0.950 . S
C2798 C2797 1.387 1_554 S
C2798 C2801 1.387 . S
H2799 C2795 0.950 . S
H2800 C2797 0.950 . S
C2801 C2792 1.390 . S
C2801 H2794 0.950 . S
C2801 C2798 1.387 . S
C2802 C2803 1.387 . S
C2802 H2806 0.950 . S
C2802 C2811 1.390 . S
C2803 C2802 1.387 . S
C2803 C2805 1.387 . S
H2804 C2811 0.950 . S
C2805 C2803 1.387 . S
C2805 C2807 1.390 . S
C2805 H2809 0.950 . S
H2806 C2802 0.950 . S
C2807 C2805 1.390 . S
C2807 C2808 1.387 . S
C2807 H2810 0.950 . S
C2808 C2807 1.387 . S
C2808 C2811 1.387 . S
H2809 C2805 0.950 . S
H2810 C2807 0.950 . S
C2811 C2802 1.390 . S
C2811 H2804 0.950 . S
C2811 C2808 1.387 . S
C2812 C2813 1.387 . S
C2812 H2816 0.950 . S
C2812 C2821 1.390 . S
C2813 C2812 1.387 . S
C2813 C2815 1.387 . S
H2814 C2821 0.950 . S
C2815 C2813 1.387 . S
C2815 C2817 1.390 . S
C2815 H2819 0.950 . S
H2816 C2812 0.950 . S
C2817 C2815 1.390 . S
C2817 C2818 1.387 . S
C2817 H2820 0.950 . S
C2818 C2817 1.387 . S
C2818 C2821 1.387 . S
H2819 C2815 0.950 . S
H2820 C2817 0.950 . S
C2821 C2812 1.390 . S
C2821 H2814 0.950 . S
C2821 C2818 1.387 . S
C2822 C2823 1.387 . S
C2822 H2826 0.950 . S
C2822 C2831 1.390 . S
C2823 C2822 1.387 . S
C2823 C2825 1.387 . S
H2824 C2831 0.950 . S
C2825 C2823 1.387 . S
C2825 C2827 1.390 . S
C2825 H2829 0.950 . S
H2826 C2822 0.950 . S
C2827 C2825 1.390 . S
C2827 C2828 1.387 . S
C2827 H2830 0.950 . S
C2828 C2827 1.387 . S
C2828 C2831 1.387 . S
H2829 C2825 0.950 . S
H2830 C2827 0.950 . S
C2831 C2822 1.390 . S
C2831 H2824 0.950 . S
C2831 C2828 1.387 . S
C1633 C5 1.386 1_556 S
C1638 C1294 1.382 . S
C1643 C39 1.290 . S
C1648 C1257 1.217 . S
C1653 C77 1.094 . S
C1658 C1600 1.231 . S
C1663 C1189 1.038 . S
C1668 C111 0.985 . S
C1673 C141 1.393 . S
C1678 C1393 1.336 . S
C1683 C1090 1.275 . S
C1688 C179 1.143 . S
C1693 C209 1.313 . S
C1698 C1427 1.205 . S
C1703 C243 1.374 . S
C1708 C1022 1.369 . S
C1713 C1053 1.223 . S
C1718 C277 1.271 1_655 S
C1723 C315 1.027 . S
C1728 C1362 1.122 . S
C1733 C345 1.484 . S
C1738 C1121 1.391 . S
C1743 C1396 1.467 . S
C1748 C379 1.489 . S
C1753 C417 1.078 1_655 S
C1758 C1226 1.148 . S
C1763 C447 1.473 . S
C1768 C1631 1.411 . S
C1773 C1158 1.521 . S
C1778 C481 1.548 . S
C1783 C515 1.350 . S
C1788 C1325 1.294 . S
C1793 C818 1.356 . S
C1798 C383 1.178 1_565 S
C1803 C747 1.055 . S
C1808 C553 1.025 . S
C1813 C587 1.028 . S
C1818 C951 1.130 . S
C1823 C784 1.243 . S
C1828 C621 1.118 . S
C1833 C849 1.386 . S
C1838 C413 1.415 . S
C1843 C311 1.375 1_545 S
C1848 C750 1.361 . S
C1853 C815 1.177 . S
C1858 C655 1.066 . S
C1863 C716 1.274 . S
C1868 C689 1.194 . S
C1873 C611 1.419 . S
C1878 C719 1.460 1_554 S
C1883 C543 1.307 . S
C1888 C753 1.405 . S
C1893 C1498 1.238 . S
C1898 C791 1.114 . S
C1903 C821 1.416 . S
C1908 C475 1.341 . S
C1913 C679 1.105 . S
C1918 C859 1.048 . S
C1923 C893 1.025 . S
C1928 C407 1.096 . S
C1933 C713 1.085 . S
C1938 C927 1.000 1_556 S
C1943 C308 1.396 . S
C1948 C957 1.408 . S
C1953 C339 1.162 . S
C1958 C991 1.212 1_455 S
C1963 C648 1.158 . S
C1968 C1029 1.070 . S
C1973 C1059 1.490 . S
C1978 C376 1.478 . S
C1983 C1097 1.223 . S
C1988 C682 1.322 . S
C1993 C1131 1.033 . S
C1998 C512 1.102 . S
C2003 C1161 1.379 . S
C2008 C1529 1.289 . S
C2013 C1199 1.134 . S
C2018 C444 1.214 . S
C2023 C1229 1.298 . S
C2028 C580 1.284 . S
C2033 C135 1.421 . S
C2038 C1093 1.456 . S
C2043 C33 1.167 . S
C2048 C1267 1.059 . S
C2053 C206 1.323 . S
C2058 C1297 1.339 . S
C2063 C70 1.275 . S
C2068 C1335 1.150 . S
C2073 C1127 1.471 . S
C2078 C104 1.469 . S
C2083 C36 1.447 . S
C2088 C1025 1.459 1_565 S
C2093 C101 1.002 . S
C2098 C1369 0.943 . S
C2103 C1403 1.120 . S
C2108 C2 1.227 . S
C2113 C1192 1.516 . S
C2118 C175 1.521 . S
C2123 C1359 1.048 . S
C2128 C213 0.981 . S
C2133 C247 1.059 1_556 S
C2138 C1124 1.193 . S
C2143 C1291 1.006 . S
C2148 C145 0.971 . S
C2153 C107 1.399 1_554 S
C2158 C1087 1.336 . S
C2163 C9 1.102 . S
C2168 C1566 1.236 . S
C2173 C1019 0.940 . S
C2178 C43 0.919 . S
C2183 C73 1.497 . S
C2188 C1532 1.494 . S
C2193 C685 1.245 . S
C2198 C1563 1.185 . S
C2203 C1437 1.020 . S
C2208 C1056 1.102 . S
C2213 C651 1.491 . S
C2218 C1597 1.392 . S
C2223 C988 1.487 . S
C2228 C1467 1.510 . S
C2233 C1505 1.114 . S
C2238 C1328 1.191 . S
C2243 C549 1.477 . S
C2248 C1155 1.412 . S
C2253 C1260 1.526 . S
C2258 C583 1.558 . S
C2263 C617 1.323 . S
C2268 C1223 1.251 . S
C2273 C852 1.359 . S
C2278 C1471 1.177 . S
C2283 C451 1.008 1_545 S
C2288 C917 1.038 . S
C2293 C485 1.031 . S
C2298 C781 1.133 . S
C2303 C954 1.252 . S
C2308 C519 1.129 1_565 S
C2313 C883 1.389 . S
C2318 C1501 1.419 . S
C2323 C920 1.342 . S
C2328 C1433 1.356 . S
C2333 C349 1.056 . S
C2338 C985 1.169 . S
C2343 C886 1.290 . S
C2348 C281 1.214 . S
C2353 C509 1.415 . S
C2358 C889 1.463 . S
C2363 C645 1.298 . S
C2368 C923 1.393 . S
C2373 C410 1.250 . S
C2378 C961 1.123 1_554 S
C2383 C855 1.434 . S
C2388 C577 1.364 . S
C2393 C373 1.078 . S
C2398 C825 1.024 1_556 S
C2403 C723 1.012 . S
C2408 C1495 1.089 . S
C2413 C305 1.080 . S
C2418 C757 1.003 . S
C2423 C1430 1.402 . S
C2428 C787 1.409 . S
C2433 C1461 1.168 . S
C2438 C1399 1.210 . S
C2443 C1539 1.136 . S
C2448 C342 1.198 . S
C2453 C1464 1.471 . S
C2458 C1365 1.484 . S
C2463 C1573 1.180 . S
C2468 C274 1.273 . S
C2473 C614 1.151 . S
C2478 C1607 1.077 . S
C2483 C441 1.290 . S
C2488 C1263 1.379 . S
C2493 C1301 1.072 1_655 S
C2498 C546 1.172 . S
C2503 C478 1.276 . S
C2508 C1331 1.294 . S
C2513 C1569 1.412 . S
C2518 C169 1.370 . S
C2523 C203 1.168 . S
C2528 C1165 1.061 1_565 S
C2533 C67 1.224 . S
C2538 C1195 1.280 . S
C2543 C1233 1.073 1_545 S
C2548 C240 1.169 . S
C2553 C1603 1.521 . S
C2558 C138 1.522 . S
C2563 C1535 1.406 . S
C2568 C237 1.355 . S
C2573 C1063 0.950 . S
C2578 C271 1.012 . S
C2583 C172 1.330 . S
C2588 C995 1.195 . S
C2593 C258 1.985 . S
C2598 C20 1.981 . S
C2603 C156 2.422 . S
C2608 C54 2.427 . S
C2613 C190 2.052 . S
C2618 C88 2.056 . S
C2623 C224 2.427 . S
C2628 C122 2.428 . S
C2633 C428 2.138 . S
C2638 C292 2.159 1_565 S
C2643 C462 2.333 . S
C2648 C326 2.343 . S
C2653 C496 2.241 . S
C2658 C360 2.242 . S
C2663 C530 2.192 . S
C2668 C394 2.204 . S
C2673 C1448 2.335 . S
C2678 C564 2.323 . S
C2683 C598 2.231 . S
C2688 C666 2.233 . S
C2693 C632 2.247 . S
C2698 C1482 2.259 . S
C2703 C700 2.207 . S
C2708 C1516 2.188 . S
C2713 C734 2.017 . S
C2718 C972 2.012 . S
C2723 C870 2.298 . S
C2728 C768 2.308 . S
C2733 C904 2.016 . S
C2738 C802 2.013 . S
C2743 C938 2.317 . S
C2748 C836 2.306 . S
C2753 C1142 2.219 . S
C2758 C1006 2.237 . S
C2763 C1040 2.312 . S
C2768 C1176 2.322 . S
C2773 C1074 2.347 . S
C2778 C1210 2.327 . S
C2783 C1108 2.214 1_554 S
C2788 C1244 2.238 . S
C2793 C1550 2.341 . S
C2798 C1278 2.363 . S
C2803 C1380 2.312 . S
C2808 C1312 2.304 . S
C2813 C1346 2.196 . S
C2818 C1584 2.158 . S
C2823 C1618 2.278 . S
C2828 C1414 2.283 . S
