# Generated by pormake.
# Topology snk, (6)-cn, num edge types: 1
# Building blocks:
#     Node 0, Type 0, BuildingBlock: CUWYAW_clean_sbu_0, # of connection points: 6
#     Node 1, Type 0, BuildingBlock: CUWYAW_clean_sbu_0, # of connection points: 6
#     Node 2, Type 0, BuildingBlock: CUWYAW_clean_sbu_0, # of connection points: 6
#     Node 3, Type 0, BuildingBlock: CUWYAW_clean_sbu_0, # of connection points: 6
#     Node 4, Type 0, BuildingBlock: CUWYAW_clean_sbu_0, # of connection points: 6
#     Node 5, Type 0, BuildingBlock: CUWYAW_clean_sbu_0, # of connection points: 6
#     Node 6, Type 0, BuildingBlock: CUWYAW_clean_sbu_0, # of connection points: 6
#     Node 7, Type 0, BuildingBlock: CUWYAW_clean_sbu_0, # of connection points: 6
#     Edge 8, Type (0, 0), BuildingBlock: KIFKEQ_clean_linker_1, # of connection points: 2
#     Edge 9, Type (0, 0), BuildingBlock: KIFKEQ_clean_linker_1, # of connection points: 2
#     Edge 10, Type (0, 0), BuildingBlock: KIFKEQ_clean_linker_1, # of connection points: 2
#     Edge 11, Type (0, 0), BuildingBlock: KIFKEQ_clean_linker_1, # of connection points: 2
#     Edge 12, Type (0, 0), BuildingBlock: KIFKEQ_clean_linker_1, # of connection points: 2
#     Edge 13, Type (0, 0), BuildingBlock: KIFKEQ_clean_linker_1, # of connection points: 2
#     Edge 14, Type (0, 0), BuildingBlock: KIFKEQ_clean_linker_1, # of connection points: 2
#     Edge 15, Type (0, 0), BuildingBlock: KIFKEQ_clean_linker_1, # of connection points: 2
#     Edge 16, Type (0, 0), BuildingBlock: KIFKEQ_clean_linker_1, # of connection points: 2
#     Edge 17, Type (0, 0), BuildingBlock: KIFKEQ_clean_linker_1, # of connection points: 2
#     Edge 18, Type (0, 0), BuildingBlock: KIFKEQ_clean_linker_1, # of connection points: 2
#     Edge 19, Type (0, 0), BuildingBlock: KIFKEQ_clean_linker_1, # of connection points: 2
#     Edge 20, Type (0, 0), BuildingBlock: KIFKEQ_clean_linker_1, # of connection points: 2
#     Edge 21, Type (0, 0), BuildingBlock: KIFKEQ_clean_linker_1, # of connection points: 2
#     Edge 22, Type (0, 0), BuildingBlock: KIFKEQ_clean_linker_1, # of connection points: 2
#     Edge 23, Type (0, 0), BuildingBlock: KIFKEQ_clean_linker_1, # of connection points: 2
#     Edge 24, Type (0, 0), BuildingBlock: KIFKEQ_clean_linker_1, # of connection points: 2
#     Edge 25, Type (0, 0), BuildingBlock: KIFKEQ_clean_linker_1, # of connection points: 2
#     Edge 26, Type (0, 0), BuildingBlock: KIFKEQ_clean_linker_1, # of connection points: 2
#     Edge 27, Type (0, 0), BuildingBlock: KIFKEQ_clean_linker_1, # of connection points: 2
#     Edge 28, Type (0, 0), BuildingBlock: KIFKEQ_clean_linker_1, # of connection points: 2
#     Edge 29, Type (0, 0), BuildingBlock: KIFKEQ_clean_linker_1, # of connection points: 2
#     Edge 30, Type (0, 0), BuildingBlock: KIFKEQ_clean_linker_1, # of connection points: 2
#     Edge 31, Type (0, 0), BuildingBlock: KIFKEQ_clean_linker_1, # of connection points: 2
# Relax obj value: 0.080
# Max RMSD: 0.153
# Mean RMSD: 0.125
data_MOF--net-snk--node1-CUWYAW_clean_sbu_0--edge1-KIFKEQ_clean_linker_1
_symmetry_space_group_name_H-M    P1
_symmetry_Int_Tables_number       1
_symmetry_cell_setting            triclinic
loop_
_symmetry_equiv_pos_as_xyz
'x, y, z'
_cell_length_a     38.530448
_cell_length_b     38.374801
_cell_length_c     25.716527
_cell_angle_alpha  95.823449
_cell_angle_beta   95.635037
_cell_angle_gamma 90.589562
loop_
_atom_site_label
_atom_site_type_symbol
_atom_site_fract_x
_atom_site_fract_y
_atom_site_fract_z
_atom_type_partial_charge
C0 C 0.0367 0.0464 0.67307 0.0
Eu1 Eu 0.01657 0.02692 0.57426 0.0
C2 C 0.0303 0.03884 0.72669 0.0
C3 C 0.02227 0.06659 0.76311 0.0
C4 C 0.01753 0.06083 0.81479 0.0
C5 C 0.02093 0.02712 0.83153 0.0
C6 C 0.02857 0.9992 0.79471 0.0
C7 C 0.03318 1.00498 0.74283 0.0
C8 C 0.97062 0.06171 0.51318 0.0
C9 C 0.95479 0.9664 0.56128 0.0
C10 C 0.97101 0.97129 0.36711 0.0
Eu11 Eu 0.99333 0.98891 0.4657 0.0
C12 C 0.97748 0.9782 0.31351 0.0
C13 C 0.96701 0.9529 0.27157 0.0
C14 C 0.97223 0.95871 0.2201 0.0
C15 C 0.98814 0.99002 0.2094 0.0
C16 C 0.99896 0.01527 0.25175 0.0
C17 C 0.9936 0.00944 0.30336 0.0
C18 C 0.03944 0.95385 0.52633 0.0
C19 C 0.05621 0.04833 0.47907 0.0
O20 O 0.05273 0.02291 0.64412 0.0
O21 O 0.01155 0.06129 0.64606 0.0
O22 O 0.99637 0.07674 0.54386 0.0
O23 O 0.96936 0.02924 0.51746 0.0
O24 O 0.97954 0.98432 0.59259 0.0
O25 O 0.95191 0.96718 0.5098 0.0
O26 O 0.95788 0.99666 0.39656 0.0
O27 O 0.99503 0.95435 0.39315 0.0
O28 O 0.01525 0.93862 0.49282 0.0
O29 O 0.04033 0.98638 0.52282 0.0
O30 O 0.03102 0.03107 0.44777 0.0
O31 O 0.05906 0.0472 0.53052 0.0
H32 H 0.01987 0.09293 0.75163 0.0
H33 H 0.01102 0.08286 0.84158 0.0
H34 H 0.03172 0.97295 0.80621 0.0
H35 H 0.03935 0.98302 0.71567 0.0
H36 H 0.95466 0.92855 0.27865 0.0
H37 H 0.96408 0.93846 0.18867 0.0
H38 H 0.01102 0.03979 0.24491 0.0
H39 H 1.00177 0.02935 0.33523 0.0
C40 C 0.25144 0.80676 0.90875 0.0
Eu41 Eu 0.25223 0.77639 0.81325 0.0
C42 C 0.25472 0.79756 0.96343 0.0
C43 C 0.24281 0.76501 0.97596 0.0
C44 C 0.24451 0.75765 0.02844 0.0
C45 C 0.25836 0.78258 0.06942 0.0
C46 C 0.27092 0.81484 0.05642 0.0
C47 C 0.26905 0.82223 1.00401 0.0
C48 C 0.20944 0.72348 0.76649 0.0
C49 C 0.30579 0.71023 0.81188 0.0
C50 C 0.27594 0.71075 0.61266 0.0
Eu51 Eu 0.27333 0.74094 0.70802 0.0
C52 C 0.27129 0.71915 0.55776 0.0
C53 C 0.26297 0.75302 0.5452 0.0
C54 C 0.25992 0.76054 0.49268 0.0
C55 C 0.26507 0.7343 0.4518 0.0
C56 C 0.27312 0.70036 0.46491 0.0
C57 C 0.27618 0.69292 0.51729 0.0
C58 C 0.31666 0.79273 0.75668 0.0
C59 C 0.21957 0.80689 0.70977 0.0
O60 O 0.27957 0.80458 0.88399 0.0
O61 O 0.2234 0.79526 0.8788 0.0
O62 O 0.19854 0.75075 0.79377 0.0
O63 O 0.24213 0.72417 0.76852 0.0
O64 O 0.29487 0.73903 0.83775 0.0
O65 O 0.29587 0.70183 0.76135 0.0
O66 O 0.24799 0.71066 0.63775 0.0
O67 O 0.30297 0.7253 0.64185 0.0
O68 O 0.32736 0.76471 0.73104 0.0
O69 O 0.28391 0.79294 0.75301 0.0
O70 O 0.23005 0.77791 0.68378 0.0
O71 O 0.23007 0.81545 0.75999 0.0
H72 H 0.23188 0.74542 0.94526 0.0
H73 H 0.23508 0.73235 0.03691 0.0
H74 H 0.28144 0.83478 0.08687 0.0
H75 H 0.27837 0.84751 0.99521 0.0
H76 H 0.25905 0.77364 0.57597 0.0
H77 H 0.25329 0.78685 0.48409 0.0
H78 H 0.27781 0.67961 0.43477 0.0
H79 H 0.28278 0.66665 0.52626 0.0
C80 C 0.45734 0.0188 0.87234 0.0
Eu81 Eu 0.48709 0.01615 0.96769 0.0
C82 C 0.46586 0.01322 0.81745 0.0
C83 C 0.50041 0.00919 0.80523 0.0
C84 C 0.50797 1.00584 0.75269 0.0
C85 C 0.4811 1.00636 0.71139 0.0
C86 C 0.4465 0.00986 0.72413 0.0
C87 C 0.43901 0.01326 0.77655 0.0
C88 C 0.53647 0.06109 0.01859 0.0
C89 C 0.55531 0.96521 0.96704 0.0
C90 C 0.5521 0.9914 0.16686 0.0
Eu91 Eu 0.52308 0.99399 0.07115 0.0
C92 C 0.54261 0.99508 0.22158 0.0
C93 C 0.51228 0.97908 0.23526 0.0
C94 C 0.50508 0.98098 0.28785 0.0
C95 C 0.52793 0.9991 0.32793 0.0
C96 C 0.55783 0.01578 0.31383 0.0
C97 C 0.56509 0.0137 0.26128 0.0
C98 C 0.47335 0.94926 0.02027 0.0
C99 C 0.45524 0.04559 0.07187 0.0
O100 O 0.45603 0.99106 0.89789 0.0
O101 O 0.47261 0.04571 0.90121 0.0
O102 O 0.50791 0.07112 0.99397 0.0
O103 O 0.53843 0.02827 1.01331 0.0
O104 O 0.52619 0.97542 0.94161 0.0
O105 O 0.5632 0.97445 0.01782 0.0
O106 O 0.55197 0.01979 0.14257 0.0
O107 O 0.53957 0.96391 0.13622 0.0
O108 O 0.5018 0.93906 0.04494 0.0
O109 O 0.47173 0.98208 0.02576 0.0
O110 O 0.48406 0.03475 0.09733 0.0
O111 O 0.44735 0.03668 0.02101 0.0
H112 H 0.52153 0.009 0.8363 0.0
H113 H 0.53485 1.00273 0.74442 0.0
H114 H 0.42517 0.01085 0.69361 0.0
H115 H 0.4122 0.01648 0.78519 0.0
H116 H 0.4943 0.96474 0.20543 0.0
H117 H 0.48156 0.96829 0.29712 0.0
H118 H 0.57617 0.02969 0.34358 0.0
H119 H 0.58867 0.0262 0.25173 0.0
C120 C 0.22553 0.22025 0.12231 0.0
Eu121 Eu 0.2406 0.24361 0.22099 0.0
C122 C 0.23132 0.22936 0.06925 0.0
C123 C 0.2027 0.22962 0.03109 0.0
C124 C 0.20745 0.23648 0.97984 0.0
C125 C 0.24102 0.24303 0.96548 0.0
C126 C 0.26967 0.24319 1.00397 0.0
C127 C 0.26488 0.23654 0.0554 0.0
C128 C 0.20427 0.29048 0.27851 0.0
C129 C 0.29822 0.30854 0.2329 0.0
C130 C 0.29285 0.29193 0.42821 0.0
Eu131 Eu 0.27686 0.26993 0.32912 0.0
C132 C 0.28446 0.28459 0.48127 0.0
C133 C 0.30554 0.26227 0.51035 0.0
C134 C 0.29934 0.2571 0.56173 0.0
C135 C 0.27203 0.2743 0.58561 0.0
C136 C 0.25073 0.29641 0.55636 0.0
C137 C 0.25692 0.30156 0.50487 0.0
C138 C 0.31264 0.22267 0.27109 0.0
C139 C 0.21851 0.20602 0.31712 0.0
O140 O 0.25248 0.21014 0.1517 0.0
O141 O 0.20503 0.24054 0.14895 0.0
O142 O 0.18997 0.26427 0.24766 0.0
O143 O 0.23674 0.29205 0.27542 0.0
O144 O 0.2805 0.28334 0.20209 0.0
O145 O 0.29811 0.31149 0.28454 0.0
O146 O 0.2687 0.30596 0.39797 0.0
O147 O 0.31052 0.2684 0.40204 0.0
O148 O 0.32724 0.24907 0.30112 0.0
O149 O 0.28031 0.22142 0.27506 0.0
O150 O 0.23436 0.23266 0.34732 0.0
O151 O 0.2212 0.20139 0.26607 0.0
H152 H 0.17662 0.22401 0.04078 0.0
H153 H 0.18487 0.23578 0.9511 0.0
H154 H 0.29581 0.24855 0.99436 0.0
H155 H 0.28745 0.23673 0.08408 0.0
H156 H 0.32733 0.24922 0.49376 0.0
H157 H 0.31663 0.24033 0.58326 0.0
H158 H 0.22925 0.30981 0.57325 0.0
H159 H 0.24036 0.31921 0.48385 0.0
C160 C 0.73614 0.3027 0.41926 0.0
Eu161 Eu 0.73788 0.27206 0.32406 0.0
C162 C 0.74028 0.29416 0.47411 0.0
C163 C 0.74096 0.25932 0.4863 0.0
C164 C 0.74314 0.25192 0.53882 0.0
C165 C 0.74465 0.27924 0.58006 0.0
C166 C 0.74466 0.31408 0.56735 0.0
C167 C 0.74247 0.32141 0.51495 0.0
C168 C 0.69454 0.22017 0.27633 0.0
C169 C 0.79145 0.20577 0.32238 0.0
C170 C 0.75961 0.2065 0.12328 0.0
Eu171 Eu 0.7589 0.23657 0.2189 0.0
C172 C 0.75639 0.2159 0.06861 0.0
C173 C 0.77483 0.24466 0.0543 0.0
C174 C 0.7728 0.25187 1.00176 0.0
C175 C 0.75219 0.2306 0.96236 0.0
C176 C 0.73324 0.20225 0.97716 0.0
C177 C 0.73539 0.19498 0.02965 0.0
C178 C 0.80133 0.28997 0.26531 0.0
C179 C 0.70501 0.30244 0.22024 0.0
O180 O 0.76417 0.30168 0.39427 0.0
O181 O 0.70864 0.28919 0.38998 0.0
O182 O 0.68391 0.24808 0.30232 0.0
O183 O 0.7273 0.21994 0.27925 0.0
O184 O 0.78057 0.23451 0.34852 0.0
O185 O 0.7815 0.19757 0.2719 0.0
O186 O 0.73147 0.20862 0.14803 0.0
O187 O 0.78773 0.21751 0.15347 0.0
O188 O 0.81248 0.26279 0.23815 0.0
O189 O 0.76867 0.28886 0.26319 0.0
O190 O 0.71591 0.27361 0.19442 0.0
O191 O 0.71515 0.31099 0.27065 0.0
H192 H 0.7393 0.2379 0.45523 0.0
H193 H 0.7428 0.2248 0.54704 0.0
H194 H 0.74644 0.33578 0.59795 0.0
H195 H 0.74215 0.34847 0.5063 0.0
H196 H 0.7912 0.26132 0.08354 0.0
H197 H 0.78806 0.27368 0.99192 0.0
H198 H 0.71659 0.18566 0.94821 0.0
H199 H 0.72082 0.17276 0.03977 0.0
C200 C 0.7227 0.71773 0.61427 0.0
Eu201 Eu 0.73693 0.74269 0.71258 0.0
C202 C 0.72721 0.72615 0.56061 0.0
C203 C 0.70647 0.70839 0.51813 0.0
C204 C 0.71063 0.71509 0.46663 0.0
C205 C 0.73565 0.73985 0.45639 0.0
C206 C 0.75632 0.75782 0.49931 0.0
C207 C 0.75213 0.75102 0.55094 0.0
C208 C 0.70078 0.79019 0.76928 0.0
C209 C 0.79477 0.80772 0.72569 0.0
C210 C 0.78978 0.79101 0.92023 0.0
Eu211 Eu 0.77294 0.7689 0.82139 0.0
C212 C 0.78245 0.784 0.97361 0.0
C213 C 0.81019 0.78523 1.0134 0.0
C214 C 0.80429 0.77963 0.06472 0.0
C215 C 0.77039 0.77275 0.07755 0.0
C216 C 0.74256 0.77134 0.03747 0.0
C217 C 0.74853 0.7768 0.98592 0.0
C218 C 0.80815 0.72143 0.76285 0.0
C219 C 0.71432 0.70539 0.8091 0.0
O220 O 0.75086 0.71025 0.64347 0.0
O221 O 0.70134 0.73718 0.64053 0.0
O222 O 0.68629 0.76434 0.73786 0.0
O223 O 0.73334 0.79122 0.76691 0.0
O224 O 0.77686 0.78286 0.69434 0.0
O225 O 0.7944 0.81046 0.77727 0.0
O226 O 0.76493 0.80456 0.89059 0.0
O227 O 0.8071 0.76722 0.89402 0.0
O228 O 0.8231 0.74799 0.79208 0.0
O229 O 0.77595 0.72043 0.76743 0.0
O230 O 0.73014 0.73199 0.83941 0.0
O231 O 0.71726 0.70072 0.75808 0.0
H232 H 0.68721 0.68898 0.52478 0.0
H233 H 0.69465 0.70031 0.43474 0.0
H234 H 0.77556 0.77733 0.49308 0.0
H235 H 0.76842 0.76502 0.58323 0.0
H236 H 0.83654 0.79086 1.00484 0.0
H237 H 0.82626 0.78137 0.09461 0.0
H238 H 0.71619 0.76573 0.04585 0.0
H239 H 0.72668 0.77551 0.95583 0.0
C240 C 0.54483 0.53497 0.16931 0.0
Eu241 Eu 0.51924 0.52306 0.07113 0.0
C242 C 0.53623 0.52966 0.22287 0.0
C243 C 0.5049 0.54139 0.24174 0.0
C244 C 0.49844 0.53766 0.29362 0.0
C245 C 0.52311 0.52208 0.32774 0.0
C246 C 0.55411 0.50979 0.30824 0.0
C247 C 0.56059 0.51363 0.25651 0.0
C248 C 0.47267 0.56153 1.01725 0.0
C249 C 0.45278 0.46704 0.05901 0.0
C250 C 0.46574 0.47493 0.86346 0.0
Eu251 Eu 0.49034 0.4889 0.96183 0.0
C252 C 0.4717 0.48402 0.81061 0.0
C253 C 0.50482 0.4943 0.79856 0.0
C254 C 0.51016 0.50039 0.74705 0.0
C255 C 0.48248 0.49631 0.70666 0.0
C256 C 0.44917 0.48696 0.71951 0.0
C257 C 0.4439 0.48086 0.77089 0.0
C258 C 0.53679 0.45068 1.01655 0.0
C259 C 0.55575 0.54549 0.97393 0.0
O260 O 0.55153 0.50694 0.13885 0.0
O261 O 0.52678 0.55779 0.144 0.0
O262 O 0.49917 0.57502 0.0481 0.0
O263 O 0.47064 0.52882 0.01884 0.0
O264 O 0.47825 0.48432 0.08975 0.0
O265 O 0.44945 0.46755 1.00742 0.0
O266 O 0.45335 0.49938 0.89537 0.0
O267 O 0.48977 0.45661 0.88712 0.0
O268 O 0.51 0.43713 0.9865 0.0
O269 O 0.5389 0.48327 1.01404 0.0
O270 O 0.52841 0.53082 0.94417 0.0
O271 O 0.56101 0.54183 0.02466 0.0
H272 H 0.48557 0.55384 0.21671 0.0
H273 H 0.47443 0.54773 0.3073 0.0
H274 H 0.57343 0.49706 0.3329 0.0
H275 H 0.58489 0.50428 0.24285 0.0
H276 H 0.52667 0.49696 0.8287 0.0
H277 H 0.53619 0.50732 0.73862 0.0
H278 H 0.4271 0.48426 0.68979 0.0
H279 H 0.4181 0.47314 0.77946 0.0
C280 C 0.97178 0.54588 0.37008 0.0
Eu281 Eu 0.9968 0.52592 0.46004 0.0
C282 C 0.97694 0.53866 0.31352 0.0
C283 C 0.99883 0.56073 0.29019 0.0
C284 C 1.00301 0.555 0.23663 0.0
C285 C 0.98514 0.52723 0.20471 0.0
C286 C 0.96325 0.50509 0.22808 0.0
C287 C 0.95915 0.51076 0.2818 0.0
C288 C 0.049 0.55681 0.52726 0.0
C289 C 0.05501 0.46768 0.46357 0.0
C290 C 0.03791 0.47421 0.65412 0.0
Eu291 Eu 0.01187 0.49332 0.56419 0.0
C292 C 0.03119 0.48035 0.70985 0.0
C293 C 0.99708 0.48092 0.72489 0.0
C294 C 0.99143 0.48617 0.77806 0.0
C295 C 0.01974 0.49132 0.81719 0.0
C296 C 0.05381 0.49116 0.80184 0.0
C297 C 0.05944 0.48563 0.74873 0.0
C298 C 0.95943 0.46247 0.49731 0.0
C299 C 0.95229 0.55042 0.5599 0.0
O300 O 0.95723 0.52114 0.3927 0.0
O301 O 0.99723 0.56239 0.40057 0.0
O302 O 0.04984 0.55312 0.47664 0.0
O303 O 0.02042 0.54565 0.53944 0.0
O304 O 0.03178 0.48306 0.43281 0.0
O305 O 0.05486 0.47122 0.51544 0.0
O306 O 0.05001 0.50102 0.63327 0.0
O307 O 0.01449 0.45568 0.62225 0.0
O308 O 0.95907 0.46565 0.54804 0.0
O309 O 0.98797 0.47364 0.48497 0.0
O310 O 0.97401 0.53361 0.59108 0.0
O311 O 0.95446 0.54914 0.50856 0.0
H312 H 0.0127 0.58265 0.31332 0.0
H313 H 0.02049 0.5723 0.22033 0.0
H314 H 0.94868 0.48374 0.20467 0.0
H315 H 0.94175 0.49347 0.2983 0.0
H316 H 0.97479 0.47728 0.6956 0.0
H317 H 0.96488 0.48661 0.78854 0.0
H318 H 0.07618 0.49473 0.83099 0.0
H319 H 0.08595 0.48533 0.738 0.0
H320 H 0.0535 0.06437 0.37756 0.0
H321 H 0.11616 0.08139 0.52703 0.0
H322 H 0.09355 0.10127 0.3392 0.0
H323 H 0.15699 0.11753 0.48814 0.0
H324 H 0.1996 0.21212 0.41736 0.0
H325 H 0.16157 0.17328 0.45619 0.0
H326 H 0.15039 0.10462 0.3113 0.0
H327 H 0.18758 0.14416 0.27184 0.0
C328 C 0.07602 0.07567 0.40218 0.0
C329 C 0.0815 0.06991 0.45548 0.0
C330 C 0.0992 0.09674 0.38001 0.0
C331 C 0.12864 0.11246 0.41044 0.0
C332 C 0.13434 0.10633 0.46365 0.0
C333 C 0.111 0.08542 0.48593 0.0
C334 C 0.18916 0.18868 0.39375 0.0
C335 C 0.19659 0.18136 0.34134 0.0
C336 C 0.16746 0.16623 0.41621 0.0
C337 C 0.15277 0.13573 0.38698 0.0
C338 C 0.16071 0.12814 0.33478 0.0
C339 C 0.18224 0.15073 0.31219 0.0
H340 H 0.05884 0.95605 0.63093 0.0
H341 H 0.08249 0.90748 0.48055 0.0
H342 H 0.10357 0.92171 0.67498 0.0
H343 H 0.12842 0.87402 0.52364 0.0
H344 H 0.17948 0.79064 0.61685 0.0
H345 H 0.13705 0.82697 0.57296 0.0
H346 H 0.16307 0.91236 0.69421 0.0
H347 H 0.20432 0.87516 0.73948 0.0
C348 C 0.07438 0.93865 0.6074 0.0
C349 C 0.06774 0.93466 0.5526 0.0
C350 C 0.10004 0.91887 0.63248 0.0
C351 C 0.11989 0.89492 0.60306 0.0
C352 C 0.11337 0.89157 0.54786 0.0
C353 C 0.08729 0.91092 0.523 0.0
C354 C 0.17625 0.81723 0.63405 0.0
C355 C 0.19523 0.82996 0.68175 0.0
C356 C 0.152 0.83825 0.60864 0.0
C357 C 0.14645 0.87282 0.62978 0.0
C358 C 0.16602 0.88573 0.6771 0.0
C359 C 0.18992 0.86447 0.70296 0.0
H360 H 0.37484 0.775 0.81483 0.0
H361 H 0.30851 0.86204 0.78513 0.0
H362 H 0.41136 0.81225 0.88071 0.0
H363 H 0.34668 0.90063 0.84763 0.0
H364 H 0.40394 0.95657 0.99494 0.0
H365 H 0.36517 0.91829 0.93296 0.0
H366 H 0.45329 0.85469 0.89495 0.0
H367 H 0.49084 0.89129 0.96038 0.0
C368 C 0.36861 0.80245 0.82183 0.0
C369 C 0.33921 0.8159 0.79488 0.0
C370 C 0.38968 0.824 0.85936 0.0
C371 C 0.38249 0.85985 0.86956 0.0
C372 C 0.35292 0.87317 0.84194 0.0
C373 C 0.33118 0.85124 0.80562 0.0
C374 C 0.41467 0.93408 0.97351 0.0
C375 C 0.45006 0.92641 0.98266 0.0
C376 C 0.39261 0.9123 0.93748 0.0
C377 C 0.40581 0.88305 0.90855 0.0
C378 C 0.44166 0.87613 0.9173 0.0
C379 C 0.46339 0.89725 0.95456 0.0
H380 H 0.467 0.07485 0.1734 0.0
H381 H 0.39122 0.07017 0.0371 0.0
H382 H 0.43123 0.11655 0.22058 0.0
H383 H 0.35542 0.11229 0.08469 0.0
H384 H 0.28694 0.16292 0.2118 0.0
H385 H 0.31997 0.11873 0.16276 0.0
H386 H 0.41506 0.17844 0.21336 0.0
H387 H 0.38216 0.22245 0.26188 0.0
C388 C 0.4426 0.08251 0.15351 0.0
C389 C 0.43207 0.06919 0.1013 0.0
C390 C 0.42221 0.10663 0.18053 0.0
C391 C 0.39066 0.11793 0.15622 0.0
C392 C 0.37954 0.10393 0.10454 0.0
C393 C 0.40013 0.07992 0.07724 0.0
C394 C 0.31486 0.16664 0.21203 0.0
C395 C 0.33201 0.1961 0.24057 0.0
C396 C 0.33373 0.14141 0.18395 0.0
C397 C 0.37013 0.14501 0.18447 0.0
C398 C 0.38712 0.17465 0.21281 0.0
C399 C 0.36826 0.19993 0.24042 0.0
H400 H 0.93788 0.97309 0.66241 0.0
H401 H 0.91555 0.91021 0.51366 0.0
H402 H 0.89749 0.93697 0.70172 0.0
H403 H 0.87668 0.87267 0.55344 0.0
H404 H 0.78669 0.82678 0.6257 0.0
H405 H 0.82342 0.86665 0.58625 0.0
H406 H 0.8902 0.8832 0.73236 0.0
H407 H 0.85223 0.84489 0.77224 0.0
C408 C 0.92451 0.95133 0.63819 0.0
C409 C 0.92987 0.94455 0.5849 0.0
C410 C 0.90147 0.93035 0.66084 0.0
C411 C 0.8837 0.90156 0.63107 0.0
C412 C 0.88919 0.8949 0.57761 0.0
C413 C 0.91172 0.91632 0.55474 0.0
C414 C 0.80914 0.83913 0.64938 0.0
C415 C 0.81652 0.83274 0.7021 0.0
C416 C 0.83044 0.86186 0.62666 0.0
C417 C 0.86011 0.87828 0.65581 0.0
C418 C 0.86731 0.87179 0.70872 0.0
C419 C 0.84562 0.8496 0.73166 0.0
H420 H 0.96964 0.13167 0.50599 0.0
H421 H 0.91128 0.03581 0.45339 0.0
H422 H 0.92514 0.16493 0.45976 0.0
H423 H 0.86652 0.06926 0.40666 0.0
H424 H 0.8164 0.14223 0.28513 0.0
H425 H 0.85893 0.10603 0.33051 0.0
H426 H 0.86356 0.18051 0.46874 0.0
H427 H 0.82135 0.21674 0.42367 0.0
C428 C 0.94728 0.1177 0.48442 0.0
C429 C 0.94391 0.08116 0.48331 0.0
C430 C 0.9217 0.13678 0.45817 0.0
C431 C 0.89218 0.11976 0.42988 0.0
C432 C 0.88907 0.08307 0.4279 0.0
C433 C 0.91464 0.06395 0.45464 0.0
C434 C 0.82633 0.1508 0.32531 0.0
C435 C 0.81558 0.18254 0.3506 0.0
C436 C 0.85058 0.12995 0.35135 0.0
C437 C 0.8648 0.14055 0.40304 0.0
C438 C 0.85348 0.17189 0.42864 0.0
C439 C 0.82911 0.19257 0.40282 0.0
H440 H 0.63534 0.23699 0.21982 0.0
H441 H 0.70304 0.15083 0.24864 0.0
H442 H 0.59833 0.19905 0.15551 0.0
H443 H 0.66445 0.11156 0.18784 0.0
H444 H 0.60609 0.05447 0.04239 0.0
H445 H 0.64509 0.09332 0.10311 0.0
H446 H 0.55684 0.15618 0.14292 0.0
H447 H 0.51899 0.11899 0.07864 0.0
C448 C 0.64177 0.20959 0.21299 0.0
C449 C 0.6717 0.19658 0.23918 0.0
C450 C 0.62043 0.18764 0.17637 0.0
C451 C 0.6279 0.15184 0.16642 0.0
C452 C 0.65798 0.13897 0.19335 0.0
C453 C 0.67997 0.16129 0.22869 0.0
C454 C 0.59538 0.0769 0.06396 0.0
C455 C 0.55986 0.08421 0.0556 0.0
C456 C 0.61758 0.09902 0.09927 0.0
C457 C 0.6044 0.12824 0.1283 0.0
C458 C 0.56842 0.13477 0.12043 0.0
C459 C 0.54654 0.11332 0.08384 0.0
H460 H 0.726 0.84906 0.83139 0.0
H461 H 0.63087 0.79104 0.77474 0.0
H462 H 0.69233 0.893 0.87978 0.0
H463 H 0.59736 0.83474 0.82266 0.0
H464 H 0.61882 0.94016 1.00303 0.0
H465 H 0.65535 0.89877 0.95559 0.0
H466 H 0.58176 0.89672 0.81735 0.0
H467 H 0.54522 0.93769 0.86442 0.0
C468 C 0.69796 0.84562 0.82956 0.0
C469 C 0.68103 0.81666 0.79936 0.0
C470 C 0.67871 0.87071 0.85726 0.0
C471 C 0.64217 0.86745 0.85474 0.0
C472 C 0.6254 0.8383 0.82474 0.0
C473 C 0.64462 0.81318 0.79748 0.0
C474 C 0.61056 0.93107 0.96241 0.0
C475 C 0.57896 0.94213 0.93769 0.0
C476 C 0.63157 0.90747 0.9352 0.0
C477 C 0.62128 0.89426 0.88288 0.0
C478 C 0.59013 0.906 0.85788 0.0
C479 C 0.56928 0.92967 0.88487 0.0
H480 H 0.55047 0.56322 0.87311 0.0
H481 H 0.61719 0.57695 0.01924 0.0
H482 H 0.58955 0.60067 0.83378 0.0
H483 H 0.65691 0.61371 0.97929 0.0
H484 H 0.69723 0.71011 0.91031 0.0
H485 H 0.66014 0.67058 0.94955 0.0
H486 H 0.64577 0.60417 0.80267 0.0
H487 H 0.68213 0.64433 0.76288 0.0
C488 C 0.57366 0.57394 0.89679 0.0
C489 C 0.58057 0.56711 0.9495 0.0
C490 C 0.59625 0.5953 0.87403 0.0
C491 C 0.62646 0.61032 0.90327 0.0
C492 C 0.63363 0.60306 0.95579 0.0
C493 C 0.61093 0.58178 0.97864 0.0
C494 C 0.68626 0.68704 0.88632 0.0
C495 C 0.69262 0.68051 0.8333 0.0
C496 C 0.66512 0.66419 0.90901 0.0
C497 C 0.64988 0.63408 0.87939 0.0
C498 C 0.65661 0.62734 0.82651 0.0
C499 C 0.67764 0.65031 0.80372 0.0
H500 H 0.68261 0.36791 0.25405 0.0
H501 H 0.67363 0.28928 0.12032 0.0
H502 H 0.64224 0.40485 0.20575 0.0
H503 H 0.63377 0.32616 0.07241 0.0
H504 H 0.53256 0.38133 0.02782 0.0
H505 H 0.57356 0.34664 0.07829 0.0
H506 H 0.63851 0.43892 0.12646 0.0
H507 H 0.59733 0.47373 0.07549 0.0
C508 C 0.67217 0.35855 0.2144 0.0
C509 C 0.68133 0.32559 0.19115 0.0
C510 C 0.6492 0.37979 0.18667 0.0
C511 C 0.6347 0.36833 0.13538 0.0
C512 C 0.64413 0.33553 0.11211 0.0
C513 C 0.66718 0.31448 0.13956 0.0
C514 C 0.5556 0.39422 0.04914 0.0
C515 C 0.56176 0.43021 0.04781 0.0
C516 C 0.57914 0.37434 0.07791 0.0
C517 C 0.60934 0.39001 0.1062 0.0
C518 C 0.61531 0.42618 0.10543 0.0
C519 C 0.59182 0.44607 0.07621 0.0
H520 H 0.89814 0.4336 0.51823 0.0
H521 H 0.96389 0.44306 0.39346 0.0
H522 H 0.8587 0.39398 0.45883 0.0
H523 H 0.92442 0.40359 0.33405 0.0
H524 H 0.87223 0.29461 0.27577 0.0
H525 H 0.90923 0.33942 0.32944 0.0
H526 H 0.81747 0.39288 0.37657 0.0
H527 H 0.78051 0.34818 0.32263 0.0
C528 C 0.90391 0.42747 0.47797 0.0
C529 C 0.9341 0.44112 0.46047 0.0
C530 C 0.88131 0.40496 0.44395 0.0
C531 C 0.88866 0.39557 0.39196 0.0
C532 C 0.91839 0.41005 0.37412 0.0
C533 C 0.94084 0.43275 0.40801 0.0
C534 C 0.86004 0.3161 0.29729 0.0
C535 C 0.8236 0.31785 0.29548 0.0
C536 C 0.88116 0.3418 0.32778 0.0
C537 C 0.86618 0.36956 0.35724 0.0
C538 C 0.82969 0.37156 0.35469 0.0
C539 C 0.80859 0.34605 0.32381 0.0
H540 H 0.78674 0.65515 0.7237 0.0
H541 H 0.87057 0.73084 0.72501 0.0
H542 H 0.81872 0.61226 0.67017 0.0
H543 H 0.9019 0.68839 0.6702 0.0
H544 H 0.92509 0.61044 0.52555 0.0
H545 H 0.8875 0.65192 0.57133 0.0
H546 H 0.88381 0.58394 0.69444 0.0
H547 H 0.92216 0.54294 0.6497 0.0
C548 C 0.81181 0.66266 0.71209 0.0
C549 C 0.82639 0.69612 0.72867 0.0
C550 C 0.83002 0.6382 0.68161 0.0
C551 C 0.86262 0.64719 0.66611 0.0
C552 C 0.87669 0.68099 0.68144 0.0
C553 C 0.8589 0.70512 0.71296 0.0
C554 C 0.91588 0.60416 0.56202 0.0
C555 C 0.92658 0.57353 0.58417 0.0
C556 C 0.89456 0.62792 0.58822 0.0
C557 C 0.88287 0.62098 0.63624 0.0
C558 C 0.89237 0.58971 0.65728 0.0
C559 C 0.91437 0.56638 0.6318 0.0
H560 H 0.35464 0.34842 0.27766 0.0
H561 H 0.28889 0.32553 0.13207 0.0
H562 H 0.39088 0.38715 0.2354 0.0
H563 H 0.32365 0.36583 0.09039 0.0
H564 H 0.41368 0.41011 1.01397 0.0
H565 H 0.37603 0.3728 0.05622 0.0
H566 H 0.39653 0.44014 0.20177 0.0
H567 H 0.4358 0.47603 0.16 0.0
C568 C 0.34759 0.35216 0.2368 0.0
C569 C 0.31898 0.33385 0.20821 0.0
C570 C 0.36827 0.3746 0.21248 0.0
C571 C 0.36044 0.37985 0.15915 0.0
C572 C 0.33118 0.36203 0.13106 0.0
C573 C 0.31097 0.33906 0.15511 0.0
C574 C 0.40994 0.41699 0.05492 0.0
C575 C 0.42776 0.44595 0.08364 0.0
C576 C 0.38814 0.39568 0.07926 0.0
C577 C 0.38302 0.40319 0.13276 0.0
C578 C 0.40027 0.43284 0.16097 0.0
C579 C 0.42262 0.4537 0.13688 0.0
H580 H 0.47711 0.63098 1.00646 0.0
H581 H 0.41243 0.5387 0.9574 0.0
H582 H 0.43655 0.66579 0.95545 0.0
H583 H 0.37172 0.57361 0.90585 0.0
H584 H 0.3284 0.6448 0.7781 0.0
H585 H 0.36854 0.6078 0.82675 0.0
H586 H 0.37629 0.68631 0.9603 0.0
H587 H 0.33669 0.72323 0.91209 0.0
C588 C 0.45419 0.61814 0.98472 0.0
C589 C 0.44794 0.58214 0.98579 0.0
C590 C 0.4309 0.63809 0.95561 0.0
C591 C 0.40086 0.62248 0.92674 0.0
C592 C 0.39481 0.58631 0.92729 0.0
C593 C 0.41805 0.56636 0.95681 0.0
C594 C 0.33865 0.65411 0.81786 0.0
C595 C 0.32935 0.68702 0.84109 0.0
C596 C 0.36148 0.63284 0.84579 0.0
C597 C 0.37572 0.64423 0.89726 0.0
C598 C 0.36616 0.67699 0.92048 0.0
C599 C 0.34324 0.69807 0.89284 0.0
H600 H 0.13854 0.72127 0.75339 0.0
H601 H 0.22926 0.66508 0.70839 0.0
H602 H 0.10087 0.6783 0.69722 0.0
H603 H 0.19158 0.62218 0.65187 0.0
H604 H 0.0436 0.57676 0.63055 0.0
H605 H 0.08354 0.61487 0.69113 0.0
H606 H 0.15142 0.62262 0.56854 0.0
H607 H 0.11146 0.58421 0.50788 0.0
C608 C 0.15036 0.69959 0.73173 0.0
C609 C 0.18674 0.69657 0.73484 0.0
C610 C 0.12884 0.67495 0.69976 0.0
C611 C 0.14334 0.64696 0.67012 0.0
C612 C 0.17975 0.64371 0.67386 0.0
C613 C 0.20126 0.66818 0.70623 0.0
C614 C 0.06722 0.58635 0.61669 0.0
C615 C 0.07444 0.57773 0.56452 0.0
C616 C 0.08994 0.6083 0.65127 0.0
C617 C 0.12044 0.62185 0.63443 0.0
C618 C 0.1282 0.61234 0.58265 0.0
C619 C 0.10531 0.59054 0.54791 0.0
H620 H 0.22902 0.3489 0.34246 0.0
H621 H 0.13429 0.29109 0.28267 0.0
H622 H 0.19472 0.39244 0.39088 0.0
H623 H 0.10022 0.33479 0.32974 0.0
H624 H 0.05201 0.44243 0.36043 0.0
H625 H 0.08973 0.40012 0.31872 0.0
H626 H 0.15181 0.39533 0.4668 0.0
H627 H 0.11357 0.43785 0.50942 0.0
C628 C 0.20098 0.34535 0.34005 0.0
C629 C 0.18431 0.3166 0.30891 0.0
C630 C 0.18141 0.37021 0.36771 0.0
C631 C 0.14486 0.36701 0.36379 0.0
C632 C 0.12835 0.33805 0.33305 0.0
C633 C 0.14786 0.31304 0.30617 0.0
C634 C 0.07378 0.43266 0.38432 0.0
C635 C 0.07966 0.44348 0.43843 0.0
C636 C 0.09528 0.40824 0.36034 0.0
C637 C 0.1235 0.3943 0.38961 0.0
C638 C 0.13022 0.40578 0.44337 0.0
C639 C 0.10828 0.42997 0.46772 0.0
H640 H 0.98946 0.97127 0.86861 0.0
H641 H 0.04315 0.06986 0.92101 0.0
H642 H 0.98271 0.96213 0.9595 0.0
H643 H 0.03485 0.06156 1.01156 0.0
H644 H 0.04519 0.01888 0.17235 0.0
H645 H 0.05373 0.02734 0.08165 0.0
H646 H 0.95068 0.98375 0.03091 0.0
H647 H 0.94235 0.97504 0.12136 0.0
C648 C 0.99989 0.99099 0.89944 0.0
C649 C 0.0168 0.02135 0.88721 0.0
C650 C 0.99562 0.98596 0.95164 0.0
C651 C 0.00807 0.01117 0.99309 0.0
C652 C 0.0252 0.0414 0.98087 0.0
C653 C 0.02954 0.04639 0.92872 0.0
C654 C 0.02426 0.01137 0.14188 0.0
C655 C 0.99314 0.99615 0.15422 0.0
C656 C 0.02914 0.01622 0.08979 0.0
C657 C 1.00296 1.00611 0.0487 0.0
C658 C 0.97172 0.99121 0.06123 0.0
C659 C 0.9669 0.98627 0.11322 0.0
H660 H 0.2885 0.79315 0.41225 0.0
H661 H 0.23638 0.69324 0.36416 0.0
H662 H 0.28595 0.80521 0.32066 0.0
H663 H 0.2352 0.7046 0.27257 0.0
H664 H 0.20768 0.75076 0.11699 0.0
H665 H 0.20836 0.73995 0.20887 0.0
H666 H 0.31156 0.78706 0.24094 0.0
H667 H 0.3107 0.79812 0.14911 0.0
C668 C 0.27634 0.7738 0.38222 0.0
C669 C 0.26269 0.74218 0.39582 0.0
C670 C 0.2753 0.78052 0.32953 0.0
C671 C 0.26053 0.75583 0.28894 0.0
C672 C 0.2465 0.7244 0.30262 0.0
C673 C 0.24755 0.71769 0.35526 0.0
C674 C 0.23066 0.75852 0.14352 0.0
C675 C 0.25914 0.7753 0.1255 0.0
C676 C 0.23106 0.75233 0.19633 0.0
C677 C 0.26 0.76264 0.23261 0.0
C678 C 0.28855 0.7793 0.21449 0.0
C679 C 0.2881 0.78558 0.16171 0.0
H680 H 0.53555 0.03717 0.67028 0.0
H681 H 0.4444 0.97044 0.62512 0.0
H682 H 0.5474 0.03466 0.57856 0.0
H683 H 0.45539 0.96913 0.5333 0.0
H684 H 0.50432 0.94549 0.37893 0.0
H685 H 0.49396 0.94647 0.47105 0.0
H686 H 0.52551 0.0557 0.49689 0.0
H687 H 0.53614 0.05458 0.40478 0.0
C688 C 0.5181 0.02181 0.64088 0.0
C689 C 0.48898 1.00403 0.65534 0.0
C690 C 0.52465 0.02074 0.58807 0.0
C691 C 0.50229 1.00182 0.5482 0.0
C692 C 0.4734 0.98372 0.56278 0.0
C693 C 0.46685 0.9848 0.61553 0.0
C694 C 0.50874 0.96982 0.40412 0.0
C695 C 0.52103 0.99997 0.38424 0.0
C696 C 0.5028 0.97039 0.45708 0.0
C697 C 0.50888 1.00116 0.49171 0.0
C698 C 0.5211 0.03134 0.47176 0.0
C699 C 0.52714 0.03074 0.41881 0.0
H700 H 0.20193 0.28288 0.89999 0.0
H701 H 0.29136 0.21597 0.90577 0.0
H702 H 0.20871 0.29023 0.80831 0.0
H703 H 0.29869 0.22403 0.81452 0.0
H704 H 0.27641 0.21411 0.63494 0.0
H705 H 0.26929 0.20725 0.72655 0.0
H706 H 0.24793 0.31748 0.75405 0.0
H707 H 0.25526 0.32443 0.66251 0.0
C708 C 0.22307 0.26978 0.88171 0.0
C709 C 0.24607 0.24879 0.91024 0.0
C710 C 0.22715 0.27424 0.82928 0.0
C711 C 0.2542 0.25765 0.80394 0.0
C712 C 0.27734 0.23687 0.8326 0.0
C713 C 0.27339 0.23257 0.88513 0.0
C714 C 0.27044 0.23696 0.66057 0.0
C715 C 0.26647 0.26984 0.6412 0.0
C716 C 0.26638 0.23302 0.71316 0.0
C717 C 0.25815 0.26183 0.74778 0.0
C718 C 0.25382 0.29464 0.72833 0.0
C719 C 0.25796 0.2986 0.67576 0.0
H720 H 0.75093 0.29423 0.92186 0.0
H721 H 0.75055 0.18289 0.87489 0.0
H722 H 0.75001 0.30559 0.83026 0.0
H723 H 0.74797 0.19424 0.78311 0.0
H724 H 0.78095 0.22819 0.62864 0.0
H725 H 0.78278 0.2164 0.72034 0.0
H726 H 0.71206 0.30112 0.74988 0.0
H727 H 0.71032 0.31293 0.65845 0.0
C728 C 0.75066 0.27213 0.89207 0.0
C729 C 0.75084 0.23761 0.90605 0.0
C730 C 0.7497 0.27866 0.83935 0.0
C731 C 0.74884 0.25085 0.79905 0.0
C732 C 0.749 0.21634 0.81301 0.0
C733 C 0.75 0.20981 0.86573 0.0
C734 C 0.76558 0.24413 0.65459 0.0
C735 C 0.74561 0.27163 0.63602 0.0
C736 C 0.7666 0.23736 0.70726 0.0
C737 C 0.74765 0.25786 0.74277 0.0
C738 C 0.72753 0.28519 0.72405 0.0
C739 C 0.72652 0.29197 0.67148 0.0
H740 H 0.68527 0.74314 0.37377 0.0
H741 H 0.79684 0.75102 0.41341 0.0
H742 H 0.69318 0.75032 0.28265 0.0
H743 H 0.80464 0.75988 0.32276 0.0
H744 H 0.80947 0.73516 0.14625 0.0
H745 H 0.8009 0.72812 0.23722 0.0
H746 H 0.70924 0.79186 0.22525 0.0
H747 H 0.71769 0.79856 0.13394 0.0
C748 C 0.71152 0.74647 0.36314 0.0
C749 C 0.74042 0.74628 0.40113 0.0
C750 C 0.71603 0.75103 0.31086 0.0
C751 C 0.74957 0.75559 0.29503 0.0
C752 C 0.77844 0.75593 0.3332 0.0
C753 C 0.77393 0.75133 0.38548 0.0
C754 C 0.78757 0.74783 0.16308 0.0
C755 C 0.76432 0.7675 0.13271 0.0
C756 C 0.7827 0.74387 0.2154 0.0
C757 C 0.75448 0.75958 0.23895 0.0
C758 C 0.73102 0.77899 0.20838 0.0
C759 C 0.73584 0.78284 0.15593 0.0
H760 H 0.45496 0.4568 0.61707 0.0
H761 H 0.52344 0.54582 0.6702 0.0
H762 H 0.4644 0.46368 0.52647 0.0
H763 H 0.53289 0.55274 0.57931 0.0
H764 H 0.57035 0.53124 0.4154 0.0
H765 H 0.56059 0.52502 0.50615 0.0
H766 H 0.45159 0.50147 0.45811 0.0
H767 H 0.46167 0.50613 0.36694 0.0
C768 C 0.47174 0.47812 0.60945 0.0
C769 C 0.48832 0.50083 0.65114 0.0
C770 C 0.47716 0.48208 0.55734 0.0
C771 C 0.49935 0.50883 0.54535 0.0
C772 C 0.51599 0.53154 0.58703 0.0
C773 C 0.51057 0.52757 0.63922 0.0
C774 C 0.54435 0.52435 0.42401 0.0
C775 C 0.51685 0.51901 0.38356 0.0
C776 C 0.53865 0.52125 0.47629 0.0
C777 C 0.50529 0.51275 0.48967 0.0
C778 C 0.47773 0.50764 0.44929 0.0
C779 C 0.48343 0.51072 0.39697 0.0
H780 H 0.05191 0.5392 0.89329 0.0
H781 H 0.97433 0.4556 0.86916 0.0
H782 H 0.04312 0.5474 0.98643 0.0
H783 H 0.96504 0.46426 0.96223 0.0
H784 H 0.98918 0.46497 0.14263 0.0
H785 H 0.99656 0.45634 0.04903 0.0
H786 H 0.99794 0.56837 0.04312 0.0
H787 H 0.99001 0.57708 0.13632 0.0
C788 C 0.03301 0.52254 0.9079 0.0
C789 C 0.01385 0.49672 0.8738 0.0
C790 C 0.02773 0.52745 0.96118 0.0
C791 C 1.00335 0.50651 0.98179 0.0
C792 C 0.98422 0.48064 0.94771 0.0
C793 C 0.9893 0.47591 0.89429 0.0
C794 C 0.99063 0.48778 0.1213 0.0
C795 C 0.98914 0.52175 0.1473 0.0
C796 C 0.99491 0.48281 0.06761 0.0
C797 C 0.99799 0.51167 0.03863 0.0
C798 C 0.99625 0.54559 0.06447 0.0
C799 C 0.99177 0.55056 0.11802 0.0
loop_
_geom_bond_atom_site_label_1
_geom_bond_atom_site_label_2
_geom_bond_distance
_geom_bond_site_symmetry_2
_ccdc_geom_bond_type
C0 Eu1 2.835 1_655 S
C0 C2 1.500 . S
C0 O20 1.257 1_655 S
C0 O21 1.260 . S
Eu1 C0 2.835 1_455 S
Eu1 O20 2.473 . S
Eu1 O21 2.480 1_455 S
Eu1 O22 2.430 1_455 S
Eu1 O23 2.670 1_455 S
Eu1 O24 2.394 1_445 S
Eu1 O29 2.355 1_545 S
Eu1 O31 2.374 . S
C2 C0 1.500 . S
C2 C3 1.377 . S
C2 C7 1.372 1_645 S
C3 C2 1.377 . S
C3 C4 1.395 . S
C3 H32 0.931 . S
C4 C3 1.395 . S
C4 C5 1.383 . S
C4 H33 0.931 . S
C5 C4 1.383 . S
C5 C6 1.394 1_545 S
C6 C5 1.394 1_565 S
C6 C7 1.374 1_655 S
C6 H34 0.931 1_655 S
C7 C2 1.372 1_465 S
C7 C6 1.374 1_455 S
C7 H35 0.940 . S
C8 O22 1.259 . S
C8 O23 1.270 . S
C9 O24 1.251 . S
C9 O25 1.251 . S
C10 Eu11 2.835 1_455 S
C10 C12 1.500 . S
C10 O26 1.257 1_455 S
C10 O27 1.260 . S
Eu11 C10 2.835 1_655 S
Eu11 O23 2.355 1_565 S
Eu11 O25 2.374 . S
Eu11 O26 2.473 . S
Eu11 O27 2.480 1_655 S
Eu11 O28 2.430 1_655 S
Eu11 O29 2.670 1_655 S
Eu11 O30 2.394 1_665 S
C12 C10 1.500 . S
C12 C13 1.377 . S
C12 C17 1.375 1_465 S
C13 C12 1.377 . S
C13 C14 1.395 . S
C13 H36 0.931 . S
C14 C13 1.395 . S
C14 C15 1.383 . S
C14 H37 0.931 . S
C15 C14 1.383 . S
C15 C16 1.394 1_565 S
C16 C15 1.394 1_545 S
C16 C17 1.376 1_455 S
C16 H38 0.931 1_455 S
C17 C12 1.375 1_645 S
C17 C16 1.376 1_655 S
C17 H39 0.935 . S
C18 O28 1.259 . S
C18 O29 1.270 . S
C19 O30 1.251 . S
C19 O31 1.251 . S
O20 C0 1.257 1_455 S
O20 Eu1 2.473 . S
O21 C0 1.260 . S
O21 Eu1 2.480 1_655 S
O22 Eu1 2.430 1_655 S
O22 C8 1.259 . S
O23 Eu1 2.670 1_655 S
O23 C8 1.270 . S
O23 Eu11 2.355 1_545 S
O24 Eu1 2.394 1_665 S
O24 C9 1.251 . S
O25 C9 1.251 . S
O25 Eu11 2.374 . S
O26 C10 1.257 1_655 S
O26 Eu11 2.473 . S
O27 C10 1.260 . S
O27 Eu11 2.480 1_455 S
O28 Eu11 2.430 1_455 S
O28 C18 1.259 . S
O29 Eu1 2.355 1_565 S
O29 Eu11 2.670 1_455 S
O29 C18 1.270 . S
O30 Eu11 2.394 1_445 S
O30 C19 1.251 . S
O31 Eu1 2.374 . S
O31 C19 1.251 . S
H32 C3 0.931 . S
H33 C4 0.931 . S
H34 C6 0.931 1_455 S
H35 C7 0.940 . S
H36 C13 0.931 . S
H37 C14 0.931 . S
H38 C16 0.931 1_655 S
H39 C17 0.935 . S
C40 Eu41 2.835 . S
C40 C42 1.500 . S
C40 O60 1.257 . S
C40 O61 1.260 . S
Eu41 C40 2.835 . S
Eu41 O60 2.473 . S
Eu41 O61 2.480 . S
Eu41 O62 2.430 . S
Eu41 O63 2.670 . S
Eu41 O64 2.394 . S
Eu41 O69 2.355 . S
Eu41 O71 2.374 . S
C42 C40 1.500 . S
C42 C43 1.377 . S
C42 C47 1.377 . S
C43 C42 1.377 . S
C43 C44 1.395 1_556 S
C43 H72 0.931 . S
C44 C43 1.395 1_554 S
C44 C45 1.383 . S
C44 H73 0.931 . S
C45 C44 1.383 . S
C45 C46 1.394 . S
C46 C45 1.394 . S
C46 C47 1.378 1_554 S
C46 H74 0.931 . S
C47 C42 1.377 . S
C47 C46 1.378 1_556 S
C47 H75 0.931 . S
C48 O62 1.259 . S
C48 O63 1.270 . S
C49 O64 1.251 . S
C49 O65 1.251 . S
C50 Eu51 2.835 . S
C50 C52 1.500 . S
C50 O66 1.257 . S
C50 O67 1.260 . S
Eu51 C50 2.835 . S
Eu51 O63 2.355 . S
Eu51 O65 2.374 . S
Eu51 O66 2.473 . S
Eu51 O67 2.480 . S
Eu51 O68 2.430 . S
Eu51 O69 2.670 . S
Eu51 O70 2.394 . S
C52 C50 1.500 . S
C52 C53 1.377 . S
C52 C57 1.377 . S
C53 C52 1.377 . S
C53 C54 1.395 . S
C53 H76 0.931 . S
C54 C53 1.395 . S
C54 C55 1.383 . S
C54 H77 0.931 . S
C55 C54 1.383 . S
C55 C56 1.394 . S
C56 C55 1.394 . S
C56 C57 1.378 . S
C56 H78 0.931 . S
C57 C52 1.377 . S
C57 C56 1.378 . S
C57 H79 0.931 . S
C58 O68 1.259 . S
C58 O69 1.270 . S
C59 O70 1.251 . S
C59 O71 1.251 . S
O60 C40 1.257 . S
O60 Eu41 2.473 . S
O61 C40 1.260 . S
O61 Eu41 2.480 . S
O62 Eu41 2.430 . S
O62 C48 1.259 . S
O63 Eu41 2.670 . S
O63 C48 1.270 . S
O63 Eu51 2.355 . S
O64 Eu41 2.394 . S
O64 C49 1.251 . S
O65 C49 1.251 . S
O65 Eu51 2.374 . S
O66 C50 1.257 . S
O66 Eu51 2.473 . S
O67 C50 1.260 . S
O67 Eu51 2.480 . S
O68 Eu51 2.430 . S
O68 C58 1.259 . S
O69 Eu41 2.355 . S
O69 Eu51 2.670 . S
O69 C58 1.270 . S
O70 Eu51 2.394 . S
O70 C59 1.251 . S
O71 Eu41 2.374 . S
O71 C59 1.251 . S
H72 C43 0.931 . S
H73 C44 0.931 . S
H74 C46 0.931 . S
H75 C47 0.931 . S
H76 C53 0.931 . S
H77 C54 0.931 . S
H78 C56 0.931 . S
H79 C57 0.931 . S
C80 Eu81 2.835 . S
C80 C82 1.500 . S
C80 O100 1.257 1_545 S
C80 O101 1.260 . S
Eu81 C80 2.835 . S
Eu81 O100 2.473 1_545 S
Eu81 O101 2.480 . S
Eu81 O102 2.430 . S
Eu81 O103 2.670 1_556 S
Eu81 O104 2.394 1_545 S
Eu81 O109 2.355 1_545 S
Eu81 O111 2.374 1_556 S
C82 C80 1.500 . S
C82 C83 1.377 . S
C82 C87 1.377 1_545 S
C83 C82 1.377 . S
C83 C84 1.395 . S
C83 H112 0.931 . S
C84 C83 1.395 . S
C84 C85 1.383 1_545 S
C84 H113 0.931 . S
C85 C84 1.383 1_565 S
C85 C86 1.394 . S
C86 C85 1.394 . S
C86 C87 1.378 . S
C86 H114 0.931 . S
C87 C82 1.377 1_565 S
C87 C86 1.378 . S
C87 H115 0.931 . S
C88 O102 1.259 1_554 S
C88 O103 1.270 . S
C89 O104 1.251 . S
C89 O105 1.251 . S
C90 Eu91 2.835 . S
C90 C92 1.500 . S
C90 O106 1.257 1_565 S
C90 O107 1.260 . S
Eu91 C90 2.835 . S
Eu91 O103 2.355 1_565 S
Eu91 O105 2.374 1_554 S
Eu91 O106 2.473 1_565 S
Eu91 O107 2.480 . S
Eu91 O108 2.430 . S
Eu91 O109 2.670 1_554 S
Eu91 O110 2.394 1_565 S
C92 C90 1.500 . S
C92 C93 1.377 . S
C92 C97 1.377 1_565 S
C93 C92 1.377 . S
C93 C94 1.395 . S
C93 H116 0.931 . S
C94 C93 1.395 . S
C94 C95 1.383 1_565 S
C94 H117 0.931 . S
C95 C94 1.383 1_545 S
C95 C96 1.394 . S
C96 C95 1.394 . S
C96 C97 1.378 . S
C96 H118 0.931 . S
C97 C92 1.377 1_545 S
C97 C96 1.378 . S
C97 H119 0.931 . S
C98 O108 1.259 1_556 S
C98 O109 1.270 . S
C99 O110 1.251 . S
C99 O111 1.251 . S
O100 C80 1.257 1_565 S
O100 Eu81 2.473 1_565 S
O101 C80 1.260 . S
O101 Eu81 2.480 . S
O102 Eu81 2.430 . S
O102 C88 1.259 1_556 S
O103 Eu81 2.670 1_554 S
O103 C88 1.270 . S
O103 Eu91 2.355 1_545 S
O104 Eu81 2.394 1_565 S
O104 C89 1.251 . S
O105 C89 1.251 . S
O105 Eu91 2.374 1_556 S
O106 C90 1.257 1_545 S
O106 Eu91 2.473 1_545 S
O107 C90 1.260 . S
O107 Eu91 2.480 . S
O108 Eu91 2.430 . S
O108 C98 1.259 1_554 S
O109 Eu81 2.355 1_565 S
O109 Eu91 2.670 1_556 S
O109 C98 1.270 . S
O110 Eu91 2.394 1_545 S
O110 C99 1.251 . S
O111 Eu81 2.374 1_554 S
O111 C99 1.251 . S
H112 C83 0.931 . S
H113 C84 0.931 . S
H114 C86 0.931 . S
H115 C87 0.931 . S
H116 C93 0.931 . S
H117 C94 0.931 . S
H118 C96 0.931 . S
H119 C97 0.931 . S
C120 Eu121 2.835 . S
C120 C122 1.500 . S
C120 O140 1.257 . S
C120 O141 1.260 . S
Eu121 C120 2.835 . S
Eu121 O140 2.473 . S
Eu121 O141 2.480 . S
Eu121 O142 2.430 . S
Eu121 O143 2.670 . S
Eu121 O144 2.394 . S
Eu121 O149 2.355 . S
Eu121 O151 2.374 . S
C122 C120 1.500 . S
C122 C123 1.377 . S
C122 C127 1.377 . S
C123 C122 1.377 . S
C123 C124 1.395 1_554 S
C123 H152 0.931 . S
C124 C123 1.395 1_556 S
C124 C125 1.383 . S
C124 H153 0.931 . S
C125 C124 1.383 . S
C125 C126 1.394 . S
C126 C125 1.394 . S
C126 C127 1.378 1_556 S
C126 H154 0.931 . S
C127 C122 1.377 . S
C127 C126 1.378 1_554 S
C127 H155 0.931 . S
C128 O142 1.259 . S
C128 O143 1.270 . S
C129 O144 1.251 . S
C129 O145 1.251 . S
C130 Eu131 2.835 . S
C130 C132 1.500 . S
C130 O146 1.257 . S
C130 O147 1.260 . S
Eu131 C130 2.835 . S
Eu131 O143 2.355 . S
Eu131 O145 2.374 . S
Eu131 O146 2.473 . S
Eu131 O147 2.480 . S
Eu131 O148 2.430 . S
Eu131 O149 2.670 . S
Eu131 O150 2.394 . S
C132 C130 1.500 . S
C132 C133 1.377 . S
C132 C137 1.377 . S
C133 C132 1.377 . S
C133 C134 1.395 . S
C133 H156 0.931 . S
C134 C133 1.395 . S
C134 C135 1.383 . S
C134 H157 0.931 . S
C135 C134 1.383 . S
C135 C136 1.394 . S
C136 C135 1.394 . S
C136 C137 1.378 . S
C136 H158 0.931 . S
C137 C132 1.377 . S
C137 C136 1.378 . S
C137 H159 0.931 . S
C138 O148 1.259 . S
C138 O149 1.270 . S
C139 O150 1.251 . S
C139 O151 1.251 . S
O140 C120 1.257 . S
O140 Eu121 2.473 . S
O141 C120 1.260 . S
O141 Eu121 2.480 . S
O142 Eu121 2.430 . S
O142 C128 1.259 . S
O143 Eu121 2.670 . S
O143 C128 1.270 . S
O143 Eu131 2.355 . S
O144 Eu121 2.394 . S
O144 C129 1.251 . S
O145 C129 1.251 . S
O145 Eu131 2.374 . S
O146 C130 1.257 . S
O146 Eu131 2.473 . S
O147 C130 1.260 . S
O147 Eu131 2.480 . S
O148 Eu131 2.430 . S
O148 C138 1.259 . S
O149 Eu121 2.355 . S
O149 Eu131 2.670 . S
O149 C138 1.270 . S
O150 Eu131 2.394 . S
O150 C139 1.251 . S
O151 Eu121 2.374 . S
O151 C139 1.251 . S
H152 C123 0.931 . S
H153 C124 0.931 . S
H154 C126 0.931 . S
H155 C127 0.931 . S
H156 C133 0.931 . S
H157 C134 0.931 . S
H158 C136 0.931 . S
H159 C137 0.931 . S
C160 Eu161 2.835 . S
C160 C162 1.500 . S
C160 O180 1.257 . S
C160 O181 1.260 . S
Eu161 C160 2.835 . S
Eu161 O180 2.473 . S
Eu161 O181 2.480 . S
Eu161 O182 2.430 . S
Eu161 O183 2.670 . S
Eu161 O184 2.394 . S
Eu161 O189 2.355 . S
Eu161 O191 2.374 . S
C162 C160 1.500 . S
C162 C163 1.377 . S
C162 C167 1.377 . S
C163 C162 1.377 . S
C163 C164 1.395 . S
C163 H192 0.931 . S
C164 C163 1.395 . S
C164 C165 1.383 . S
C164 H193 0.931 . S
C165 C164 1.383 . S
C165 C166 1.394 . S
C166 C165 1.394 . S
C166 C167 1.378 . S
C166 H194 0.931 . S
C167 C162 1.377 . S
C167 C166 1.378 . S
C167 H195 0.931 . S
C168 O182 1.259 . S
C168 O183 1.270 . S
C169 O184 1.251 . S
C169 O185 1.251 . S
C170 Eu171 2.835 . S
C170 C172 1.500 . S
C170 O186 1.257 . S
C170 O187 1.260 . S
Eu171 C170 2.835 . S
Eu171 O183 2.355 . S
Eu171 O185 2.374 . S
Eu171 O186 2.473 . S
Eu171 O187 2.480 . S
Eu171 O188 2.430 . S
Eu171 O189 2.670 . S
Eu171 O190 2.394 . S
C172 C170 1.500 . S
C172 C173 1.377 . S
C172 C177 1.377 . S
C173 C172 1.377 . S
C173 C174 1.395 1_554 S
C173 H196 0.931 . S
C174 C173 1.395 1_556 S
C174 C175 1.383 . S
C174 H197 0.931 . S
C175 C174 1.383 . S
C175 C176 1.394 . S
C176 C175 1.394 . S
C176 C177 1.378 1_556 S
C176 H198 0.931 . S
C177 C172 1.377 . S
C177 C176 1.378 1_554 S
C177 H199 0.931 . S
C178 O188 1.259 . S
C178 O189 1.270 . S
C179 O190 1.251 . S
C179 O191 1.251 . S
O180 C160 1.257 . S
O180 Eu161 2.473 . S
O181 C160 1.260 . S
O181 Eu161 2.480 . S
O182 Eu161 2.430 . S
O182 C168 1.259 . S
O183 Eu161 2.670 . S
O183 C168 1.270 . S
O183 Eu171 2.355 . S
O184 Eu161 2.394 . S
O184 C169 1.251 . S
O185 C169 1.251 . S
O185 Eu171 2.374 . S
O186 C170 1.257 . S
O186 Eu171 2.473 . S
O187 C170 1.260 . S
O187 Eu171 2.480 . S
O188 Eu171 2.430 . S
O188 C178 1.259 . S
O189 Eu161 2.355 . S
O189 Eu171 2.670 . S
O189 C178 1.270 . S
O190 Eu171 2.394 . S
O190 C179 1.251 . S
O191 Eu161 2.374 . S
O191 C179 1.251 . S
H192 C163 0.931 . S
H193 C164 0.931 . S
H194 C166 0.931 . S
H195 C167 0.931 . S
H196 C173 0.931 . S
H197 C174 0.931 . S
H198 C176 0.931 . S
H199 C177 0.931 . S
C200 Eu201 2.835 . S
C200 C202 1.500 . S
C200 O220 1.257 . S
C200 O221 1.260 . S
Eu201 C200 2.835 . S
Eu201 O220 2.473 . S
Eu201 O221 2.480 . S
Eu201 O222 2.430 . S
Eu201 O223 2.670 . S
Eu201 O224 2.394 . S
Eu201 O229 2.355 . S
Eu201 O231 2.374 . S
C202 C200 1.500 . S
C202 C203 1.377 . S
C202 C207 1.377 . S
C203 C202 1.377 . S
C203 C204 1.395 . S
C203 H232 0.931 . S
C204 C203 1.395 . S
C204 C205 1.383 . S
C204 H233 0.931 . S
C205 C204 1.383 . S
C205 C206 1.394 . S
C206 C205 1.394 . S
C206 C207 1.378 . S
C206 H234 0.931 . S
C207 C202 1.377 . S
C207 C206 1.378 . S
C207 H235 0.931 . S
C208 O222 1.259 . S
C208 O223 1.270 . S
C209 O224 1.251 . S
C209 O225 1.251 . S
C210 Eu211 2.835 . S
C210 C212 1.500 . S
C210 O226 1.257 . S
C210 O227 1.260 . S
Eu211 C210 2.835 . S
Eu211 O223 2.355 . S
Eu211 O225 2.374 . S
Eu211 O226 2.473 . S
Eu211 O227 2.480 . S
Eu211 O228 2.430 . S
Eu211 O229 2.670 . S
Eu211 O230 2.394 . S
C212 C210 1.500 . S
C212 C213 1.377 . S
C212 C217 1.377 . S
C213 C212 1.377 . S
C213 C214 1.395 1_556 S
C213 H236 0.931 . S
C214 C213 1.395 1_554 S
C214 C215 1.383 . S
C214 H237 0.931 . S
C215 C214 1.383 . S
C215 C216 1.394 . S
C216 C215 1.394 . S
C216 C217 1.378 1_554 S
C216 H238 0.931 . S
C217 C212 1.377 . S
C217 C216 1.378 1_556 S
C217 H239 0.931 . S
C218 O228 1.259 . S
C218 O229 1.270 . S
C219 O230 1.251 . S
C219 O231 1.251 . S
O220 C200 1.257 . S
O220 Eu201 2.473 . S
O221 C200 1.260 . S
O221 Eu201 2.480 . S
O222 Eu201 2.430 . S
O222 C208 1.259 . S
O223 Eu201 2.670 . S
O223 C208 1.270 . S
O223 Eu211 2.355 . S
O224 Eu201 2.394 . S
O224 C209 1.251 . S
O225 C209 1.251 . S
O225 Eu211 2.374 . S
O226 C210 1.257 . S
O226 Eu211 2.473 . S
O227 C210 1.260 . S
O227 Eu211 2.480 . S
O228 Eu211 2.430 . S
O228 C218 1.259 . S
O229 Eu201 2.355 . S
O229 Eu211 2.670 . S
O229 C218 1.270 . S
O230 Eu211 2.394 . S
O230 C219 1.251 . S
O231 Eu201 2.374 . S
O231 C219 1.251 . S
H232 C203 0.931 . S
H233 C204 0.931 . S
H234 C206 0.931 . S
H235 C207 0.931 . S
H236 C213 0.931 . S
H237 C214 0.931 . S
H238 C216 0.931 . S
H239 C217 0.931 . S
C240 Eu241 2.835 . S
C240 C242 1.500 . S
C240 O260 1.257 . S
C240 O261 1.260 . S
Eu241 C240 2.835 . S
Eu241 O260 2.473 . S
Eu241 O261 2.480 . S
Eu241 O262 2.430 . S
Eu241 O263 2.670 1_554 S
Eu241 O264 2.394 . S
Eu241 O269 2.355 . S
Eu241 O271 2.374 . S
C242 C240 1.500 . S
C242 C243 1.377 . S
C242 C247 1.377 . S
C243 C242 1.377 . S
C243 C244 1.395 . S
C243 H272 0.931 . S
C244 C243 1.395 . S
C244 C245 1.383 . S
C244 H273 0.931 . S
C245 C244 1.383 . S
C245 C246 1.394 . S
C246 C245 1.394 . S
C246 C247 1.378 . S
C246 H274 0.931 . S
C247 C242 1.377 . S
C247 C246 1.378 . S
C247 H275 0.931 . S
C248 O262 1.259 1_556 S
C248 O263 1.270 . S
C249 O264 1.251 . S
C249 O265 1.251 1_554 S
C250 Eu251 2.835 . S
C250 C252 1.500 . S
C250 O266 1.257 . S
C250 O267 1.260 . S
Eu251 C250 2.835 . S
Eu251 O263 2.355 . S
Eu251 O265 2.374 . S
Eu251 O266 2.473 . S
Eu251 O267 2.480 . S
Eu251 O268 2.430 . S
Eu251 O269 2.670 1_556 S
Eu251 O270 2.394 . S
C252 C250 1.500 . S
C252 C253 1.377 . S
C252 C257 1.377 . S
C253 C252 1.377 . S
C253 C254 1.395 . S
C253 H276 0.931 . S
C254 C253 1.395 . S
C254 C255 1.383 . S
C254 H277 0.931 . S
C255 C254 1.383 . S
C255 C256 1.394 . S
C256 C255 1.394 . S
C256 C257 1.378 . S
C256 H278 0.931 . S
C257 C252 1.377 . S
C257 C256 1.378 . S
C257 H279 0.931 . S
C258 O268 1.259 1_554 S
C258 O269 1.270 . S
C259 O270 1.251 . S
C259 O271 1.251 1_556 S
O260 C240 1.257 . S
O260 Eu241 2.473 . S
O261 C240 1.260 . S
O261 Eu241 2.480 . S
O262 Eu241 2.430 . S
O262 C248 1.259 1_554 S
O263 Eu241 2.670 1_556 S
O263 C248 1.270 . S
O263 Eu251 2.355 . S
O264 Eu241 2.394 . S
O264 C249 1.251 . S
O265 C249 1.251 1_556 S
O265 Eu251 2.374 . S
O266 C250 1.257 . S
O266 Eu251 2.473 . S
O267 C250 1.260 . S
O267 Eu251 2.480 . S
O268 Eu251 2.430 . S
O268 C258 1.259 1_556 S
O269 Eu241 2.355 . S
O269 Eu251 2.670 1_554 S
O269 C258 1.270 . S
O270 Eu251 2.394 . S
O270 C259 1.251 . S
O271 Eu241 2.374 . S
O271 C259 1.251 1_554 S
H272 C243 0.931 . S
H273 C244 0.931 . S
H274 C246 0.931 . S
H275 C247 0.931 . S
H276 C253 0.931 . S
H277 C254 0.931 . S
H278 C256 0.931 . S
H279 C257 0.931 . S
C280 Eu281 2.835 1_455 S
C280 C282 1.500 . S
C280 O300 1.257 1_455 S
C280 O301 1.260 . S
Eu281 C280 2.835 1_655 S
Eu281 O300 2.473 . S
Eu281 O301 2.480 1_655 S
Eu281 O302 2.430 1_655 S
Eu281 O303 2.670 1_655 S
Eu281 O304 2.394 1_655 S
Eu281 O309 2.355 . S
Eu281 O311 2.374 . S
C282 C280 1.500 . S
C282 C283 1.377 . S
C282 C287 1.371 1_455 S
C283 C282 1.377 . S
C283 C284 1.395 . S
C283 H312 0.931 . S
C284 C283 1.395 . S
C284 C285 1.383 . S
C284 H313 0.931 . S
C285 C284 1.383 . S
C285 C286 1.394 . S
C286 C285 1.394 . S
C286 C287 1.373 1_455 S
C286 H314 0.931 1_455 S
C287 C282 1.371 1_655 S
C287 C286 1.373 1_655 S
C287 H315 0.942 . S
C288 O302 1.259 . S
C288 O303 1.270 . S
C289 O304 1.251 . S
C289 O305 1.251 . S
C290 Eu291 2.835 1_655 S
C290 C292 1.500 . S
C290 O306 1.257 1_655 S
C290 O307 1.260 . S
Eu291 C290 2.835 1_455 S
Eu291 O303 2.355 . S
Eu291 O305 2.374 . S
Eu291 O306 2.473 . S
Eu291 O307 2.480 1_455 S
Eu291 O308 2.430 1_455 S
Eu291 O309 2.670 1_455 S
Eu291 O310 2.394 1_455 S
C292 C290 1.500 . S
C292 C293 1.377 . S
C292 C297 1.369 1_655 S
C293 C292 1.377 . S
C293 C294 1.395 . S
C293 H316 0.931 . S
C294 C293 1.395 . S
C294 C295 1.383 . S
C294 H317 0.931 . S
C295 C294 1.383 . S
C295 C296 1.394 . S
C296 C295 1.394 . S
C296 C297 1.371 1_655 S
C296 H318 0.931 1_655 S
C297 C292 1.369 1_455 S
C297 C296 1.371 1_455 S
C297 H319 0.947 . S
C298 O308 1.259 . S
C298 O309 1.270 . S
C299 O310 1.251 . S
C299 O311 1.251 . S
O300 C280 1.257 1_655 S
O300 Eu281 2.473 . S
O301 C280 1.260 . S
O301 Eu281 2.480 1_455 S
O302 Eu281 2.430 1_455 S
O302 C288 1.259 . S
O303 Eu281 2.670 1_455 S
O303 C288 1.270 . S
O303 Eu291 2.355 . S
O304 Eu281 2.394 1_455 S
O304 C289 1.251 . S
O305 C289 1.251 . S
O305 Eu291 2.374 . S
O306 C290 1.257 1_455 S
O306 Eu291 2.473 . S
O307 C290 1.260 . S
O307 Eu291 2.480 1_655 S
O308 Eu291 2.430 1_655 S
O308 C298 1.259 . S
O309 Eu281 2.355 . S
O309 Eu291 2.670 1_655 S
O309 C298 1.270 . S
O310 Eu291 2.394 1_655 S
O310 C299 1.251 . S
O311 Eu281 2.374 . S
O311 C299 1.251 . S
H312 C283 0.931 . S
H313 C284 0.931 . S
H314 C286 0.931 1_655 S
H315 C287 0.942 . S
H316 C293 0.931 . S
H317 C294 0.931 . S
H318 C296 0.931 1_455 S
H319 C297 0.947 . S
H320 C328 0.950 . S
H321 C333 0.950 . S
H322 C330 0.950 . S
H323 C332 0.950 . S
H324 C334 0.950 . S
H325 C336 0.950 . S
H326 C338 0.950 . S
H327 C339 0.950 . S
C328 H320 0.950 . S
C328 C329 1.386 . S
C328 C330 1.391 . S
C329 C328 1.386 . S
C329 C333 1.393 . S
C330 H322 0.950 . S
C330 C328 1.391 . S
C330 C331 1.400 . S
C331 C330 1.400 . S
C331 C332 1.398 . S
C331 C337 1.491 . S
C332 H323 0.950 . S
C332 C331 1.398 . S
C332 C333 1.391 . S
C333 H321 0.950 . S
C333 C329 1.393 . S
C333 C332 1.391 . S
C334 H324 0.950 . S
C334 C335 1.386 . S
C334 C336 1.391 . S
C335 C334 1.386 . S
C335 C339 1.393 . S
C336 H325 0.950 . S
C336 C334 1.391 . S
C336 C337 1.400 . S
C337 C331 1.491 . S
C337 C336 1.400 . S
C337 C338 1.398 . S
C338 H326 0.950 . S
C338 C337 1.398 . S
C338 C339 1.391 . S
C339 H327 0.950 . S
C339 C335 1.393 . S
C339 C338 1.391 . S
H340 C348 0.950 . S
H341 C353 0.950 . S
H342 C350 0.950 . S
H343 C352 0.950 . S
H344 C354 0.950 . S
H345 C356 0.950 . S
H346 C358 0.950 . S
H347 C359 0.950 . S
C348 H340 0.950 . S
C348 C349 1.386 . S
C348 C350 1.391 . S
C349 C348 1.386 . S
C349 C353 1.393 . S
C350 H342 0.950 . S
C350 C348 1.391 . S
C350 C351 1.400 . S
C351 C350 1.400 . S
C351 C352 1.398 . S
C351 C357 1.491 . S
C352 H343 0.950 . S
C352 C351 1.398 . S
C352 C353 1.391 . S
C353 H341 0.950 . S
C353 C349 1.393 . S
C353 C352 1.391 . S
C354 H344 0.950 . S
C354 C355 1.386 . S
C354 C356 1.391 . S
C355 C354 1.386 . S
C355 C359 1.393 . S
C356 H345 0.950 . S
C356 C354 1.391 . S
C356 C357 1.400 . S
C357 C351 1.491 . S
C357 C356 1.400 . S
C357 C358 1.398 . S
C358 H346 0.950 . S
C358 C357 1.398 . S
C358 C359 1.391 . S
C359 H347 0.950 . S
C359 C355 1.393 . S
C359 C358 1.391 . S
H360 C368 0.950 . S
H361 C373 0.950 . S
H362 C370 0.950 . S
H363 C372 0.950 . S
H364 C374 0.950 . S
H365 C376 0.950 . S
H366 C378 0.950 . S
H367 C379 0.950 . S
C368 H360 0.950 . S
C368 C369 1.386 . S
C368 C370 1.391 . S
C369 C368 1.386 . S
C369 C373 1.393 . S
C370 H362 0.950 . S
C370 C368 1.391 . S
C370 C371 1.400 . S
C371 C370 1.400 . S
C371 C372 1.398 . S
C371 C377 1.491 . S
C372 H363 0.950 . S
C372 C371 1.398 . S
C372 C373 1.391 . S
C373 H361 0.950 . S
C373 C369 1.393 . S
C373 C372 1.391 . S
C374 H364 0.950 . S
C374 C375 1.386 . S
C374 C376 1.391 . S
C375 C374 1.386 . S
C375 C379 1.393 . S
C376 H365 0.950 . S
C376 C374 1.391 . S
C376 C377 1.400 . S
C377 C371 1.491 . S
C377 C376 1.400 . S
C377 C378 1.398 . S
C378 H366 0.950 . S
C378 C377 1.398 . S
C378 C379 1.391 . S
C379 H367 0.950 . S
C379 C375 1.393 . S
C379 C378 1.391 . S
H380 C388 0.950 . S
H381 C393 0.950 . S
H382 C390 0.950 . S
H383 C392 0.950 . S
H384 C394 0.950 . S
H385 C396 0.950 . S
H386 C398 0.950 . S
H387 C399 0.950 . S
C388 H380 0.950 . S
C388 C389 1.386 . S
C388 C390 1.391 . S
C389 C388 1.386 . S
C389 C393 1.393 . S
C390 H382 0.950 . S
C390 C388 1.391 . S
C390 C391 1.400 . S
C391 C390 1.400 . S
C391 C392 1.398 . S
C391 C397 1.491 . S
C392 H383 0.950 . S
C392 C391 1.398 . S
C392 C393 1.391 . S
C393 H381 0.950 . S
C393 C389 1.393 . S
C393 C392 1.391 . S
C394 H384 0.950 . S
C394 C395 1.386 . S
C394 C396 1.391 . S
C395 C394 1.386 . S
C395 C399 1.393 . S
C396 H385 0.950 . S
C396 C394 1.391 . S
C396 C397 1.400 . S
C397 C391 1.491 . S
C397 C396 1.400 . S
C397 C398 1.398 . S
C398 H386 0.950 . S
C398 C397 1.398 . S
C398 C399 1.391 . S
C399 H387 0.950 . S
C399 C395 1.393 . S
C399 C398 1.391 . S
H400 C408 0.950 . S
H401 C413 0.950 . S
H402 C410 0.950 . S
H403 C412 0.950 . S
H404 C414 0.950 . S
H405 C416 0.950 . S
H406 C418 0.950 . S
H407 C419 0.950 . S
C408 H400 0.950 . S
C408 C409 1.386 . S
C408 C410 1.391 . S
C409 C408 1.386 . S
C409 C413 1.393 . S
C410 H402 0.950 . S
C410 C408 1.391 . S
C410 C411 1.400 . S
C411 C410 1.400 . S
C411 C412 1.398 . S
C411 C417 1.491 . S
C412 H403 0.950 . S
C412 C411 1.398 . S
C412 C413 1.391 . S
C413 H401 0.950 . S
C413 C409 1.393 . S
C413 C412 1.391 . S
C414 H404 0.950 . S
C414 C415 1.386 . S
C414 C416 1.391 . S
C415 C414 1.386 . S
C415 C419 1.393 . S
C416 H405 0.950 . S
C416 C414 1.391 . S
C416 C417 1.400 . S
C417 C411 1.491 . S
C417 C416 1.400 . S
C417 C418 1.398 . S
C418 H406 0.950 . S
C418 C417 1.398 . S
C418 C419 1.391 . S
C419 H407 0.950 . S
C419 C415 1.393 . S
C419 C418 1.391 . S
H420 C428 0.950 . S
H421 C433 0.950 . S
H422 C430 0.950 . S
H423 C432 0.950 . S
H424 C434 0.950 . S
H425 C436 0.950 . S
H426 C438 0.950 . S
H427 C439 0.950 . S
C428 H420 0.950 . S
C428 C429 1.386 . S
C428 C430 1.391 . S
C429 C428 1.386 . S
C429 C433 1.393 . S
C430 H422 0.950 . S
C430 C428 1.391 . S
C430 C431 1.400 . S
C431 C430 1.400 . S
C431 C432 1.398 . S
C431 C437 1.491 . S
C432 H423 0.950 . S
C432 C431 1.398 . S
C432 C433 1.391 . S
C433 H421 0.950 . S
C433 C429 1.393 . S
C433 C432 1.391 . S
C434 H424 0.950 . S
C434 C435 1.386 . S
C434 C436 1.391 . S
C435 C434 1.386 . S
C435 C439 1.393 . S
C436 H425 0.950 . S
C436 C434 1.391 . S
C436 C437 1.400 . S
C437 C431 1.491 . S
C437 C436 1.400 . S
C437 C438 1.398 . S
C438 H426 0.950 . S
C438 C437 1.398 . S
C438 C439 1.391 . S
C439 H427 0.950 . S
C439 C435 1.393 . S
C439 C438 1.391 . S
H440 C448 0.950 . S
H441 C453 0.950 . S
H442 C450 0.950 . S
H443 C452 0.950 . S
H444 C454 0.950 . S
H445 C456 0.950 . S
H446 C458 0.950 . S
H447 C459 0.950 . S
C448 H440 0.950 . S
C448 C449 1.386 . S
C448 C450 1.391 . S
C449 C448 1.386 . S
C449 C453 1.393 . S
C450 H442 0.950 . S
C450 C448 1.391 . S
C450 C451 1.400 . S
C451 C450 1.400 . S
C451 C452 1.398 . S
C451 C457 1.491 . S
C452 H443 0.950 . S
C452 C451 1.398 . S
C452 C453 1.391 . S
C453 H441 0.950 . S
C453 C449 1.393 . S
C453 C452 1.391 . S
C454 H444 0.950 . S
C454 C455 1.386 . S
C454 C456 1.391 . S
C455 C454 1.386 . S
C455 C459 1.393 . S
C456 H445 0.950 . S
C456 C454 1.391 . S
C456 C457 1.400 . S
C457 C451 1.491 . S
C457 C456 1.400 . S
C457 C458 1.398 . S
C458 H446 0.950 . S
C458 C457 1.398 . S
C458 C459 1.391 . S
C459 H447 0.950 . S
C459 C455 1.393 . S
C459 C458 1.391 . S
H460 C468 0.950 . S
H461 C473 0.950 . S
H462 C470 0.950 . S
H463 C472 0.950 . S
H464 C474 0.950 . S
H465 C476 0.950 . S
H466 C478 0.950 . S
H467 C479 0.950 . S
C468 H460 0.950 . S
C468 C469 1.386 . S
C468 C470 1.391 . S
C469 C468 1.386 . S
C469 C473 1.393 . S
C470 H462 0.950 . S
C470 C468 1.391 . S
C470 C471 1.400 . S
C471 C470 1.400 . S
C471 C472 1.398 . S
C471 C477 1.491 . S
C472 H463 0.950 . S
C472 C471 1.398 . S
C472 C473 1.391 . S
C473 H461 0.950 . S
C473 C469 1.393 . S
C473 C472 1.391 . S
C474 H464 0.950 . S
C474 C475 1.386 . S
C474 C476 1.391 . S
C475 C474 1.386 . S
C475 C479 1.393 . S
C476 H465 0.950 . S
C476 C474 1.391 . S
C476 C477 1.400 . S
C477 C471 1.491 . S
C477 C476 1.400 . S
C477 C478 1.398 . S
C478 H466 0.950 . S
C478 C477 1.398 . S
C478 C479 1.391 . S
C479 H467 0.950 . S
C479 C475 1.393 . S
C479 C478 1.391 . S
H480 C488 0.950 . S
H481 C493 0.950 . S
H482 C490 0.950 . S
H483 C492 0.950 . S
H484 C494 0.950 . S
H485 C496 0.950 . S
H486 C498 0.950 . S
H487 C499 0.950 . S
C488 H480 0.950 . S
C488 C489 1.386 . S
C488 C490 1.391 . S
C489 C488 1.386 . S
C489 C493 1.393 . S
C490 H482 0.950 . S
C490 C488 1.391 . S
C490 C491 1.400 . S
C491 C490 1.400 . S
C491 C492 1.398 . S
C491 C497 1.491 . S
C492 H483 0.950 . S
C492 C491 1.398 . S
C492 C493 1.391 . S
C493 H481 0.950 . S
C493 C489 1.393 . S
C493 C492 1.391 . S
C494 H484 0.950 . S
C494 C495 1.386 . S
C494 C496 1.391 . S
C495 C494 1.386 . S
C495 C499 1.393 . S
C496 H485 0.950 . S
C496 C494 1.391 . S
C496 C497 1.400 . S
C497 C491 1.491 . S
C497 C496 1.400 . S
C497 C498 1.398 . S
C498 H486 0.950 . S
C498 C497 1.398 . S
C498 C499 1.391 . S
C499 H487 0.950 . S
C499 C495 1.393 . S
C499 C498 1.391 . S
H500 C508 0.950 . S
H501 C513 0.950 . S
H502 C510 0.950 . S
H503 C512 0.950 . S
H504 C514 0.950 1_556 S
H505 C516 0.950 . S
H506 C518 0.950 . S
H507 C519 0.950 . S
C508 H500 0.950 . S
C508 C509 1.386 . S
C508 C510 1.391 . S
C509 C508 1.386 . S
C509 C513 1.393 . S
C510 H502 0.950 . S
C510 C508 1.391 . S
C510 C511 1.400 . S
C511 C510 1.400 . S
C511 C512 1.398 . S
C511 C517 1.491 . S
C512 H503 0.950 . S
C512 C511 1.398 . S
C512 C513 1.391 . S
C513 H501 0.950 . S
C513 C509 1.393 . S
C513 C512 1.391 . S
C514 H504 0.950 1_554 S
C514 C515 1.386 . S
C514 C516 1.391 . S
C515 C514 1.386 . S
C515 C519 1.393 . S
C516 H505 0.950 . S
C516 C514 1.391 . S
C516 C517 1.400 . S
C517 C511 1.491 . S
C517 C516 1.400 . S
C517 C518 1.398 . S
C518 H506 0.950 . S
C518 C517 1.398 . S
C518 C519 1.391 . S
C519 H507 0.950 . S
C519 C515 1.393 . S
C519 C518 1.391 . S
H520 C528 0.950 . S
H521 C533 0.950 . S
H522 C530 0.950 . S
H523 C532 0.950 . S
H524 C534 0.950 . S
H525 C536 0.950 . S
H526 C538 0.950 . S
H527 C539 0.950 . S
C528 H520 0.950 . S
C528 C529 1.386 . S
C528 C530 1.391 . S
C529 C528 1.386 . S
C529 C533 1.393 . S
C530 H522 0.950 . S
C530 C528 1.391 . S
C530 C531 1.400 . S
C531 C530 1.400 . S
C531 C532 1.398 . S
C531 C537 1.491 . S
C532 H523 0.950 . S
C532 C531 1.398 . S
C532 C533 1.391 . S
C533 H521 0.950 . S
C533 C529 1.393 . S
C533 C532 1.391 . S
C534 H524 0.950 . S
C534 C535 1.386 . S
C534 C536 1.391 . S
C535 C534 1.386 . S
C535 C539 1.393 . S
C536 H525 0.950 . S
C536 C534 1.391 . S
C536 C537 1.400 . S
C537 C531 1.491 . S
C537 C536 1.400 . S
C537 C538 1.398 . S
C538 H526 0.950 . S
C538 C537 1.398 . S
C538 C539 1.391 . S
C539 H527 0.950 . S
C539 C535 1.393 . S
C539 C538 1.391 . S
H540 C548 0.950 . S
H541 C553 0.950 . S
H542 C550 0.950 . S
H543 C552 0.950 . S
H544 C554 0.950 . S
H545 C556 0.950 . S
H546 C558 0.950 . S
H547 C559 0.950 . S
C548 H540 0.950 . S
C548 C549 1.386 . S
C548 C550 1.391 . S
C549 C548 1.386 . S
C549 C553 1.393 . S
C550 H542 0.950 . S
C550 C548 1.391 . S
C550 C551 1.400 . S
C551 C550 1.400 . S
C551 C552 1.398 . S
C551 C557 1.491 . S
C552 H543 0.950 . S
C552 C551 1.398 . S
C552 C553 1.391 . S
C553 H541 0.950 . S
C553 C549 1.393 . S
C553 C552 1.391 . S
C554 H544 0.950 . S
C554 C555 1.386 . S
C554 C556 1.391 . S
C555 C554 1.386 . S
C555 C559 1.393 . S
C556 H545 0.950 . S
C556 C554 1.391 . S
C556 C557 1.400 . S
C557 C551 1.491 . S
C557 C556 1.400 . S
C557 C558 1.398 . S
C558 H546 0.950 . S
C558 C557 1.398 . S
C558 C559 1.391 . S
C559 H547 0.950 . S
C559 C555 1.393 . S
C559 C558 1.391 . S
H560 C568 0.950 . S
H561 C573 0.950 . S
H562 C570 0.950 . S
H563 C572 0.950 . S
H564 C574 0.950 . S
H565 C576 0.950 . S
H566 C578 0.950 . S
H567 C579 0.950 . S
C568 H560 0.950 . S
C568 C569 1.386 . S
C568 C570 1.391 . S
C569 C568 1.386 . S
C569 C573 1.393 . S
C570 H562 0.950 . S
C570 C568 1.391 . S
C570 C571 1.400 . S
C571 C570 1.400 . S
C571 C572 1.398 . S
C571 C577 1.491 . S
C572 H563 0.950 . S
C572 C571 1.398 . S
C572 C573 1.391 . S
C573 H561 0.950 . S
C573 C569 1.393 . S
C573 C572 1.391 . S
C574 H564 0.950 . S
C574 C575 1.386 . S
C574 C576 1.391 . S
C575 C574 1.386 . S
C575 C579 1.393 . S
C576 H565 0.950 . S
C576 C574 1.391 . S
C576 C577 1.400 . S
C577 C571 1.491 . S
C577 C576 1.400 . S
C577 C578 1.398 . S
C578 H566 0.950 . S
C578 C577 1.398 . S
C578 C579 1.391 . S
C579 H567 0.950 . S
C579 C575 1.393 . S
C579 C578 1.391 . S
H580 C588 0.950 1_554 S
H581 C593 0.950 . S
H582 C590 0.950 . S
H583 C592 0.950 . S
H584 C594 0.950 . S
H585 C596 0.950 . S
H586 C598 0.950 . S
H587 C599 0.950 . S
C588 H580 0.950 1_556 S
C588 C589 1.386 . S
C588 C590 1.391 . S
C589 C588 1.386 . S
C589 C593 1.393 . S
C590 H582 0.950 . S
C590 C588 1.391 . S
C590 C591 1.400 . S
C591 C590 1.400 . S
C591 C592 1.398 . S
C591 C597 1.491 . S
C592 H583 0.950 . S
C592 C591 1.398 . S
C592 C593 1.391 . S
C593 H581 0.950 . S
C593 C589 1.393 . S
C593 C592 1.391 . S
C594 H584 0.950 . S
C594 C595 1.386 . S
C594 C596 1.391 . S
C595 C594 1.386 . S
C595 C599 1.393 . S
C596 H585 0.950 . S
C596 C594 1.391 . S
C596 C597 1.400 . S
C597 C591 1.491 . S
C597 C596 1.400 . S
C597 C598 1.398 . S
C598 H586 0.950 . S
C598 C597 1.398 . S
C598 C599 1.391 . S
C599 H587 0.950 . S
C599 C595 1.393 . S
C599 C598 1.391 . S
H600 C608 0.950 . S
H601 C613 0.950 . S
H602 C610 0.950 . S
H603 C612 0.950 . S
H604 C614 0.950 . S
H605 C616 0.950 . S
H606 C618 0.950 . S
H607 C619 0.950 . S
C608 H600 0.950 . S
C608 C609 1.386 . S
C608 C610 1.391 . S
C609 C608 1.386 . S
C609 C613 1.393 . S
C610 H602 0.950 . S
C610 C608 1.391 . S
C610 C611 1.400 . S
C611 C610 1.400 . S
C611 C612 1.398 . S
C611 C617 1.491 . S
C612 H603 0.950 . S
C612 C611 1.398 . S
C612 C613 1.391 . S
C613 H601 0.950 . S
C613 C609 1.393 . S
C613 C612 1.391 . S
C614 H604 0.950 . S
C614 C615 1.386 . S
C614 C616 1.391 . S
C615 C614 1.386 . S
C615 C619 1.393 . S
C616 H605 0.950 . S
C616 C614 1.391 . S
C616 C617 1.400 . S
C617 C611 1.491 . S
C617 C616 1.400 . S
C617 C618 1.398 . S
C618 H606 0.950 . S
C618 C617 1.398 . S
C618 C619 1.391 . S
C619 H607 0.950 . S
C619 C615 1.393 . S
C619 C618 1.391 . S
H620 C628 0.950 . S
H621 C633 0.950 . S
H622 C630 0.950 . S
H623 C632 0.950 . S
H624 C634 0.950 . S
H625 C636 0.950 . S
H626 C638 0.950 . S
H627 C639 0.950 . S
C628 H620 0.950 . S
C628 C629 1.386 . S
C628 C630 1.391 . S
C629 C628 1.386 . S
C629 C633 1.393 . S
C630 H622 0.950 . S
C630 C628 1.391 . S
C630 C631 1.400 . S
C631 C630 1.400 . S
C631 C632 1.398 . S
C631 C637 1.491 . S
C632 H623 0.950 . S
C632 C631 1.398 . S
C632 C633 1.391 . S
C633 H621 0.950 . S
C633 C629 1.393 . S
C633 C632 1.391 . S
C634 H624 0.950 . S
C634 C635 1.386 . S
C634 C636 1.391 . S
C635 C634 1.386 . S
C635 C639 1.393 . S
C636 H625 0.950 . S
C636 C634 1.391 . S
C636 C637 1.400 . S
C637 C631 1.491 . S
C637 C636 1.400 . S
C637 C638 1.398 . S
C638 H626 0.950 . S
C638 C637 1.398 . S
C638 C639 1.391 . S
C639 H627 0.950 . S
C639 C635 1.393 . S
C639 C638 1.391 . S
H640 C648 0.950 . S
H641 C653 0.949 1_455 S
H642 C650 0.950 . S
H643 C652 0.950 . S
H644 C654 0.950 . S
H645 C656 0.950 . S
H646 C658 0.950 . S
H647 C659 0.949 . S
C648 H640 0.950 . S
C648 C649 1.386 1_565 S
C648 C650 1.391 . S
C649 C648 1.386 1_545 S
C649 C653 1.393 . S
C650 H642 0.950 . S
C650 C648 1.391 . S
C650 C651 1.400 1_565 S
C651 C650 1.400 1_545 S
C651 C652 1.398 1_655 S
C651 C657 1.491 1_646 S
C652 H643 0.950 . S
C652 C651 1.398 1_455 S
C652 C653 1.391 1_455 S
C653 H641 0.949 1_655 S
C653 C649 1.393 . S
C653 C652 1.391 1_655 S
C654 H644 0.950 . S
C654 C655 1.386 1_545 S
C654 C656 1.391 . S
C655 C654 1.386 1_565 S
C655 C659 1.393 . S
C656 H645 0.950 . S
C656 C654 1.391 . S
C656 C657 1.400 1_545 S
C657 C651 1.491 1_464 S
C657 C656 1.400 1_565 S
C657 C658 1.398 1_455 S
C658 H646 0.950 . S
C658 C657 1.398 1_655 S
C658 C659 1.391 1_655 S
C659 H647 0.949 . S
C659 C655 1.393 . S
C659 C658 1.391 1_455 S
H660 C668 0.950 . S
H661 C673 0.950 . S
H662 C670 0.950 . S
H663 C672 0.950 . S
H664 C674 0.950 . S
H665 C676 0.950 . S
H666 C678 0.950 . S
H667 C679 0.950 . S
C668 H660 0.950 . S
C668 C669 1.386 . S
C668 C670 1.391 . S
C669 C668 1.386 . S
C669 C673 1.393 . S
C670 H662 0.950 . S
C670 C668 1.391 . S
C670 C671 1.400 . S
C671 C670 1.400 . S
C671 C672 1.398 . S
C671 C677 1.491 . S
C672 H663 0.950 . S
C672 C671 1.398 . S
C672 C673 1.391 . S
C673 H661 0.950 . S
C673 C669 1.393 . S
C673 C672 1.391 . S
C674 H664 0.950 . S
C674 C675 1.386 . S
C674 C676 1.391 . S
C675 C674 1.386 . S
C675 C679 1.393 . S
C676 H665 0.950 . S
C676 C674 1.391 . S
C676 C677 1.400 . S
C677 C671 1.491 . S
C677 C676 1.400 . S
C677 C678 1.398 . S
C678 H666 0.950 . S
C678 C677 1.398 . S
C678 C679 1.391 . S
C679 H667 0.950 . S
C679 C675 1.393 . S
C679 C678 1.391 . S
H680 C688 0.950 . S
H681 C693 0.950 . S
H682 C690 0.950 . S
H683 C692 0.950 . S
H684 C694 0.950 . S
H685 C696 0.950 . S
H686 C698 0.950 . S
H687 C699 0.950 . S
C688 H680 0.950 . S
C688 C689 1.386 1_545 S
C688 C690 1.391 . S
C689 C688 1.386 1_565 S
C689 C693 1.393 . S
C690 H682 0.950 . S
C690 C688 1.391 . S
C690 C691 1.400 1_545 S
C691 C690 1.400 1_565 S
C691 C692 1.398 . S
C691 C697 1.489 1_565 S
C692 H683 0.950 . S
C692 C691 1.398 . S
C692 C693 1.391 . S
C693 H681 0.950 . S
C693 C689 1.393 . S
C693 C692 1.391 . S
C694 H684 0.950 . S
C694 C695 1.386 1_565 S
C694 C696 1.391 . S
C695 C694 1.386 1_545 S
C695 C699 1.393 . S
C696 H685 0.950 . S
C696 C694 1.391 . S
C696 C697 1.395 1_565 S
C697 C691 1.489 1_545 S
C697 C696 1.395 1_545 S
C697 C698 1.405 . S
C698 H686 0.950 . S
C698 C697 1.405 . S
C698 C699 1.391 . S
C699 H687 0.950 . S
C699 C695 1.393 . S
C699 C698 1.391 . S
H700 C708 0.950 . S
H701 C713 0.950 . S
H702 C710 0.950 . S
H703 C712 0.950 . S
H704 C714 0.950 . S
H705 C716 0.950 . S
H706 C718 0.950 . S
H707 C719 0.950 . S
C708 H700 0.950 . S
C708 C709 1.386 . S
C708 C710 1.391 . S
C709 C708 1.386 . S
C709 C713 1.393 . S
C710 H702 0.950 . S
C710 C708 1.391 . S
C710 C711 1.400 . S
C711 C710 1.400 . S
C711 C712 1.398 . S
C711 C717 1.491 . S
C712 H703 0.950 . S
C712 C711 1.398 . S
C712 C713 1.391 . S
C713 H701 0.950 . S
C713 C709 1.393 . S
C713 C712 1.391 . S
C714 H704 0.950 . S
C714 C715 1.386 . S
C714 C716 1.391 . S
C715 C714 1.386 . S
C715 C719 1.393 . S
C716 H705 0.950 . S
C716 C714 1.391 . S
C716 C717 1.400 . S
C717 C711 1.491 . S
C717 C716 1.400 . S
C717 C718 1.398 . S
C718 H706 0.950 . S
C718 C717 1.398 . S
C718 C719 1.391 . S
C719 H707 0.950 . S
C719 C715 1.393 . S
C719 C718 1.391 . S
H720 C728 0.950 . S
H721 C733 0.950 . S
H722 C730 0.950 . S
H723 C732 0.950 . S
H724 C734 0.950 . S
H725 C736 0.950 . S
H726 C738 0.950 . S
H727 C739 0.950 . S
C728 H720 0.950 . S
C728 C729 1.386 . S
C728 C730 1.391 . S
C729 C728 1.386 . S
C729 C733 1.393 . S
C730 H722 0.950 . S
C730 C728 1.391 . S
C730 C731 1.400 . S
C731 C730 1.400 . S
C731 C732 1.398 . S
C731 C737 1.491 . S
C732 H723 0.950 . S
C732 C731 1.398 . S
C732 C733 1.391 . S
C733 H721 0.950 . S
C733 C729 1.393 . S
C733 C732 1.391 . S
C734 H724 0.950 . S
C734 C735 1.386 . S
C734 C736 1.391 . S
C735 C734 1.386 . S
C735 C739 1.393 . S
C736 H725 0.950 . S
C736 C734 1.391 . S
C736 C737 1.400 . S
C737 C731 1.491 . S
C737 C736 1.400 . S
C737 C738 1.398 . S
C738 H726 0.950 . S
C738 C737 1.398 . S
C738 C739 1.391 . S
C739 H727 0.950 . S
C739 C735 1.393 . S
C739 C738 1.391 . S
H740 C748 0.950 . S
H741 C753 0.950 . S
H742 C750 0.950 . S
H743 C752 0.950 . S
H744 C754 0.950 . S
H745 C756 0.950 . S
H746 C758 0.950 . S
H747 C759 0.950 . S
C748 H740 0.950 . S
C748 C749 1.386 . S
C748 C750 1.391 . S
C749 C748 1.386 . S
C749 C753 1.393 . S
C750 H742 0.950 . S
C750 C748 1.391 . S
C750 C751 1.400 . S
C751 C750 1.400 . S
C751 C752 1.398 . S
C751 C757 1.491 . S
C752 H743 0.950 . S
C752 C751 1.398 . S
C752 C753 1.391 . S
C753 H741 0.950 . S
C753 C749 1.393 . S
C753 C752 1.391 . S
C754 H744 0.950 . S
C754 C755 1.386 . S
C754 C756 1.391 . S
C755 C754 1.386 . S
C755 C759 1.393 . S
C756 H745 0.950 . S
C756 C754 1.391 . S
C756 C757 1.400 . S
C757 C751 1.491 . S
C757 C756 1.400 . S
C757 C758 1.398 . S
C758 H746 0.950 . S
C758 C757 1.398 . S
C758 C759 1.391 . S
C759 H747 0.950 . S
C759 C755 1.393 . S
C759 C758 1.391 . S
H760 C768 0.950 . S
H761 C773 0.950 . S
H762 C770 0.950 . S
H763 C772 0.950 . S
H764 C774 0.950 . S
H765 C776 0.950 . S
H766 C778 0.950 . S
H767 C779 0.950 . S
C768 H760 0.950 . S
C768 C769 1.386 . S
C768 C770 1.391 . S
C769 C768 1.386 . S
C769 C773 1.393 . S
C770 H762 0.950 . S
C770 C768 1.391 . S
C770 C771 1.400 . S
C771 C770 1.400 . S
C771 C772 1.398 . S
C771 C777 1.491 . S
C772 H763 0.950 . S
C772 C771 1.398 . S
C772 C773 1.391 . S
C773 H761 0.950 . S
C773 C769 1.393 . S
C773 C772 1.391 . S
C774 H764 0.950 . S
C774 C775 1.386 . S
C774 C776 1.391 . S
C775 C774 1.386 . S
C775 C779 1.393 . S
C776 H765 0.950 . S
C776 C774 1.391 . S
C776 C777 1.400 . S
C777 C771 1.491 . S
C777 C776 1.400 . S
C777 C778 1.398 . S
C778 H766 0.950 . S
C778 C777 1.398 . S
C778 C779 1.391 . S
C779 H767 0.950 . S
C779 C775 1.393 . S
C779 C778 1.391 . S
H780 C788 0.950 1_455 S
H781 C793 0.950 . S
H782 C790 0.950 . S
H783 C792 0.950 . S
H784 C794 0.950 1_655 S
H785 C796 0.950 . S
H786 C798 0.950 . S
H787 C799 0.950 . S
C788 H780 0.950 1_655 S
C788 C789 1.386 . S
C788 C790 1.391 1_655 S
C789 C788 1.386 . S
C789 C793 1.393 . S
C790 H782 0.950 . S
C790 C788 1.391 1_455 S
C790 C791 1.400 1_455 S
C791 C790 1.400 1_655 S
C791 C792 1.398 . S
C791 C797 1.491 1_656 S
C792 H783 0.950 . S
C792 C791 1.398 . S
C792 C793 1.391 . S
C793 H781 0.950 . S
C793 C789 1.393 . S
C793 C792 1.391 . S
C794 H784 0.950 1_455 S
C794 C795 1.386 . S
C794 C796 1.391 1_455 S
C795 C794 1.386 . S
C795 C799 1.393 . S
C796 H785 0.950 . S
C796 C794 1.391 1_655 S
C796 C797 1.400 1_655 S
C797 C791 1.491 1_454 S
C797 C796 1.400 1_455 S
C797 C798 1.398 . S
C798 H786 0.950 . S
C798 C797 1.398 . S
C798 C799 1.391 . S
C799 H787 0.950 . S
C799 C795 1.393 . S
C799 C798 1.391 . S
C329 C19 1.975 . S
C335 C139 1.968 . S
C349 C18 1.495 . S
C355 C59 1.533 . S
C369 C58 1.010 . S
C375 C98 0.989 . S
C389 C99 1.536 . S
C395 C138 1.506 . S
C409 C9 1.972 . S
C415 C209 1.980 . S
C429 C8 1.503 . S
C435 C169 1.537 . S
C449 C168 1.013 . S
C455 C88 1.008 . S
C469 C208 1.495 . S
C475 C89 1.534 . S
C489 C259 1.975 . S
C495 C219 1.974 . S
C509 C179 1.536 . S
C515 C258 1.500 . S
C529 C298 1.001 . S
C535 C178 1.019 . S
C549 C218 1.510 . S
C555 C299 1.542 . S
C569 C129 1.974 . S
C575 C249 1.969 . S
C589 C248 1.495 . S
C595 C49 1.533 . S
C609 C48 1.015 . S
C615 C288 0.986 . S
C629 C128 1.514 . S
C635 C289 1.537 . S
C649 C5 1.470 . S
C655 C15 1.470 . S
C669 C55 1.358 . S
C675 C45 1.358 . S
C689 C85 1.370 . S
C695 C95 1.370 . S
C709 C125 1.472 . S
C715 C135 1.472 . S
C729 C175 1.358 . S
C735 C165 1.358 . S
C749 C205 1.477 . S
C755 C215 1.477 . S
C769 C255 1.473 . S
C775 C245 1.473 . S
C789 C295 1.372 . S
C795 C285 1.372 . S
