# Generated by pormake.
# Topology son, (6)-cn, num edge types: 1
# Building blocks:
#     Node 0, Type 0, BuildingBlock: LEVNOQ01_clean_sbu_1, # of connection points: 6
#     Node 1, Type 0, BuildingBlock: LEVNOQ01_clean_sbu_1, # of connection points: 6
#     Node 2, Type 0, BuildingBlock: LEVNOQ01_clean_sbu_1, # of connection points: 6
#     Node 3, Type 0, BuildingBlock: LEVNOQ01_clean_sbu_1, # of connection points: 6
#     Node 4, Type 0, BuildingBlock: LEVNOQ01_clean_sbu_1, # of connection points: 6
#     Node 5, Type 0, BuildingBlock: LEVNOQ01_clean_sbu_1, # of connection points: 6
#     Node 6, Type 0, BuildingBlock: LEVNOQ01_clean_sbu_1, # of connection points: 6
#     Node 7, Type 0, BuildingBlock: LEVNOQ01_clean_sbu_1, # of connection points: 6
#     Node 8, Type 0, BuildingBlock: LEVNOQ01_clean_sbu_1, # of connection points: 6
#     Node 9, Type 0, BuildingBlock: LEVNOQ01_clean_sbu_1, # of connection points: 6
#     Node 10, Type 0, BuildingBlock: LEVNOQ01_clean_sbu_1, # of connection points: 6
#     Node 11, Type 0, BuildingBlock: LEVNOQ01_clean_sbu_1, # of connection points: 6
#     Node 12, Type 0, BuildingBlock: LEVNOQ01_clean_sbu_1, # of connection points: 6
#     Node 13, Type 0, BuildingBlock: LEVNOQ01_clean_sbu_1, # of connection points: 6
#     Node 14, Type 0, BuildingBlock: LEVNOQ01_clean_sbu_1, # of connection points: 6
#     Node 15, Type 0, BuildingBlock: LEVNOQ01_clean_sbu_1, # of connection points: 6
#     Node 16, Type 0, BuildingBlock: LEVNOQ01_clean_sbu_1, # of connection points: 6
#     Node 17, Type 0, BuildingBlock: LEVNOQ01_clean_sbu_1, # of connection points: 6
#     Node 18, Type 0, BuildingBlock: LEVNOQ01_clean_sbu_1, # of connection points: 6
#     Node 19, Type 0, BuildingBlock: LEVNOQ01_clean_sbu_1, # of connection points: 6
#     Node 20, Type 0, BuildingBlock: LEVNOQ01_clean_sbu_1, # of connection points: 6
#     Node 21, Type 0, BuildingBlock: LEVNOQ01_clean_sbu_1, # of connection points: 6
#     Node 22, Type 0, BuildingBlock: LEVNOQ01_clean_sbu_1, # of connection points: 6
#     Node 23, Type 0, BuildingBlock: LEVNOQ01_clean_sbu_1, # of connection points: 6
#     Node 24, Type 0, BuildingBlock: LEVNOQ01_clean_sbu_1, # of connection points: 6
#     Node 25, Type 0, BuildingBlock: LEVNOQ01_clean_sbu_1, # of connection points: 6
#     Node 26, Type 0, BuildingBlock: LEVNOQ01_clean_sbu_1, # of connection points: 6
#     Node 27, Type 0, BuildingBlock: LEVNOQ01_clean_sbu_1, # of connection points: 6
#     Node 28, Type 0, BuildingBlock: LEVNOQ01_clean_sbu_1, # of connection points: 6
#     Node 29, Type 0, BuildingBlock: LEVNOQ01_clean_sbu_1, # of connection points: 6
#     Node 30, Type 0, BuildingBlock: LEVNOQ01_clean_sbu_1, # of connection points: 6
#     Node 31, Type 0, BuildingBlock: LEVNOQ01_clean_sbu_1, # of connection points: 6
#     Edge 32, Type (0, 0), BuildingBlock: AJUNOK_clean_linker_0, # of connection points: 2
#     Edge 33, Type (0, 0), BuildingBlock: AJUNOK_clean_linker_0, # of connection points: 2
#     Edge 34, Type (0, 0), BuildingBlock: AJUNOK_clean_linker_0, # of connection points: 2
#     Edge 35, Type (0, 0), BuildingBlock: AJUNOK_clean_linker_0, # of connection points: 2
#     Edge 36, Type (0, 0), BuildingBlock: AJUNOK_clean_linker_0, # of connection points: 2
#     Edge 37, Type (0, 0), BuildingBlock: AJUNOK_clean_linker_0, # of connection points: 2
#     Edge 38, Type (0, 0), BuildingBlock: AJUNOK_clean_linker_0, # of connection points: 2
#     Edge 39, Type (0, 0), BuildingBlock: AJUNOK_clean_linker_0, # of connection points: 2
#     Edge 40, Type (0, 0), BuildingBlock: AJUNOK_clean_linker_0, # of connection points: 2
#     Edge 41, Type (0, 0), BuildingBlock: AJUNOK_clean_linker_0, # of connection points: 2
#     Edge 42, Type (0, 0), BuildingBlock: AJUNOK_clean_linker_0, # of connection points: 2
#     Edge 43, Type (0, 0), BuildingBlock: AJUNOK_clean_linker_0, # of connection points: 2
#     Edge 44, Type (0, 0), BuildingBlock: AJUNOK_clean_linker_0, # of connection points: 2
#     Edge 45, Type (0, 0), BuildingBlock: AJUNOK_clean_linker_0, # of connection points: 2
#     Edge 46, Type (0, 0), BuildingBlock: AJUNOK_clean_linker_0, # of connection points: 2
#     Edge 47, Type (0, 0), BuildingBlock: AJUNOK_clean_linker_0, # of connection points: 2
#     Edge 48, Type (0, 0), BuildingBlock: AJUNOK_clean_linker_0, # of connection points: 2
#     Edge 49, Type (0, 0), BuildingBlock: AJUNOK_clean_linker_0, # of connection points: 2
#     Edge 50, Type (0, 0), BuildingBlock: AJUNOK_clean_linker_0, # of connection points: 2
#     Edge 51, Type (0, 0), BuildingBlock: AJUNOK_clean_linker_0, # of connection points: 2
#     Edge 52, Type (0, 0), BuildingBlock: AJUNOK_clean_linker_0, # of connection points: 2
#     Edge 53, Type (0, 0), BuildingBlock: AJUNOK_clean_linker_0, # of connection points: 2
#     Edge 54, Type (0, 0), BuildingBlock: AJUNOK_clean_linker_0, # of connection points: 2
#     Edge 55, Type (0, 0), BuildingBlock: AJUNOK_clean_linker_0, # of connection points: 2
#     Edge 56, Type (0, 0), BuildingBlock: AJUNOK_clean_linker_0, # of connection points: 2
#     Edge 57, Type (0, 0), BuildingBlock: AJUNOK_clean_linker_0, # of connection points: 2
#     Edge 58, Type (0, 0), BuildingBlock: AJUNOK_clean_linker_0, # of connection points: 2
#     Edge 59, Type (0, 0), BuildingBlock: AJUNOK_clean_linker_0, # of connection points: 2
#     Edge 60, Type (0, 0), BuildingBlock: AJUNOK_clean_linker_0, # of connection points: 2
#     Edge 61, Type (0, 0), BuildingBlock: AJUNOK_clean_linker_0, # of connection points: 2
#     Edge 62, Type (0, 0), BuildingBlock: AJUNOK_clean_linker_0, # of connection points: 2
#     Edge 63, Type (0, 0), BuildingBlock: AJUNOK_clean_linker_0, # of connection points: 2
#     Edge 64, Type (0, 0), BuildingBlock: AJUNOK_clean_linker_0, # of connection points: 2
#     Edge 65, Type (0, 0), BuildingBlock: AJUNOK_clean_linker_0, # of connection points: 2
#     Edge 66, Type (0, 0), BuildingBlock: AJUNOK_clean_linker_0, # of connection points: 2
#     Edge 67, Type (0, 0), BuildingBlock: AJUNOK_clean_linker_0, # of connection points: 2
#     Edge 68, Type (0, 0), BuildingBlock: AJUNOK_clean_linker_0, # of connection points: 2
#     Edge 69, Type (0, 0), BuildingBlock: AJUNOK_clean_linker_0, # of connection points: 2
#     Edge 70, Type (0, 0), BuildingBlock: AJUNOK_clean_linker_0, # of connection points: 2
#     Edge 71, Type (0, 0), BuildingBlock: AJUNOK_clean_linker_0, # of connection points: 2
#     Edge 72, Type (0, 0), BuildingBlock: AJUNOK_clean_linker_0, # of connection points: 2
#     Edge 73, Type (0, 0), BuildingBlock: AJUNOK_clean_linker_0, # of connection points: 2
#     Edge 74, Type (0, 0), BuildingBlock: AJUNOK_clean_linker_0, # of connection points: 2
#     Edge 75, Type (0, 0), BuildingBlock: AJUNOK_clean_linker_0, # of connection points: 2
#     Edge 76, Type (0, 0), BuildingBlock: AJUNOK_clean_linker_0, # of connection points: 2
#     Edge 77, Type (0, 0), BuildingBlock: AJUNOK_clean_linker_0, # of connection points: 2
#     Edge 78, Type (0, 0), BuildingBlock: AJUNOK_clean_linker_0, # of connection points: 2
#     Edge 79, Type (0, 0), BuildingBlock: AJUNOK_clean_linker_0, # of connection points: 2
#     Edge 80, Type (0, 0), BuildingBlock: AJUNOK_clean_linker_0, # of connection points: 2
#     Edge 81, Type (0, 0), BuildingBlock: AJUNOK_clean_linker_0, # of connection points: 2
#     Edge 82, Type (0, 0), BuildingBlock: AJUNOK_clean_linker_0, # of connection points: 2
#     Edge 83, Type (0, 0), BuildingBlock: AJUNOK_clean_linker_0, # of connection points: 2
#     Edge 84, Type (0, 0), BuildingBlock: AJUNOK_clean_linker_0, # of connection points: 2
#     Edge 85, Type (0, 0), BuildingBlock: AJUNOK_clean_linker_0, # of connection points: 2
#     Edge 86, Type (0, 0), BuildingBlock: AJUNOK_clean_linker_0, # of connection points: 2
#     Edge 87, Type (0, 0), BuildingBlock: AJUNOK_clean_linker_0, # of connection points: 2
#     Edge 88, Type (0, 0), BuildingBlock: AJUNOK_clean_linker_0, # of connection points: 2
#     Edge 89, Type (0, 0), BuildingBlock: AJUNOK_clean_linker_0, # of connection points: 2
#     Edge 90, Type (0, 0), BuildingBlock: AJUNOK_clean_linker_0, # of connection points: 2
#     Edge 91, Type (0, 0), BuildingBlock: AJUNOK_clean_linker_0, # of connection points: 2
#     Edge 92, Type (0, 0), BuildingBlock: AJUNOK_clean_linker_0, # of connection points: 2
#     Edge 93, Type (0, 0), BuildingBlock: AJUNOK_clean_linker_0, # of connection points: 2
#     Edge 94, Type (0, 0), BuildingBlock: AJUNOK_clean_linker_0, # of connection points: 2
#     Edge 95, Type (0, 0), BuildingBlock: AJUNOK_clean_linker_0, # of connection points: 2
#     Edge 96, Type (0, 0), BuildingBlock: AJUNOK_clean_linker_0, # of connection points: 2
#     Edge 97, Type (0, 0), BuildingBlock: AJUNOK_clean_linker_0, # of connection points: 2
#     Edge 98, Type (0, 0), BuildingBlock: AJUNOK_clean_linker_0, # of connection points: 2
#     Edge 99, Type (0, 0), BuildingBlock: AJUNOK_clean_linker_0, # of connection points: 2
#     Edge 100, Type (0, 0), BuildingBlock: AJUNOK_clean_linker_0, # of connection points: 2
#     Edge 101, Type (0, 0), BuildingBlock: AJUNOK_clean_linker_0, # of connection points: 2
#     Edge 102, Type (0, 0), BuildingBlock: AJUNOK_clean_linker_0, # of connection points: 2
#     Edge 103, Type (0, 0), BuildingBlock: AJUNOK_clean_linker_0, # of connection points: 2
#     Edge 104, Type (0, 0), BuildingBlock: AJUNOK_clean_linker_0, # of connection points: 2
#     Edge 105, Type (0, 0), BuildingBlock: AJUNOK_clean_linker_0, # of connection points: 2
#     Edge 106, Type (0, 0), BuildingBlock: AJUNOK_clean_linker_0, # of connection points: 2
#     Edge 107, Type (0, 0), BuildingBlock: AJUNOK_clean_linker_0, # of connection points: 2
#     Edge 108, Type (0, 0), BuildingBlock: AJUNOK_clean_linker_0, # of connection points: 2
#     Edge 109, Type (0, 0), BuildingBlock: AJUNOK_clean_linker_0, # of connection points: 2
#     Edge 110, Type (0, 0), BuildingBlock: AJUNOK_clean_linker_0, # of connection points: 2
#     Edge 111, Type (0, 0), BuildingBlock: AJUNOK_clean_linker_0, # of connection points: 2
#     Edge 112, Type (0, 0), BuildingBlock: AJUNOK_clean_linker_0, # of connection points: 2
#     Edge 113, Type (0, 0), BuildingBlock: AJUNOK_clean_linker_0, # of connection points: 2
#     Edge 114, Type (0, 0), BuildingBlock: AJUNOK_clean_linker_0, # of connection points: 2
#     Edge 115, Type (0, 0), BuildingBlock: AJUNOK_clean_linker_0, # of connection points: 2
#     Edge 116, Type (0, 0), BuildingBlock: AJUNOK_clean_linker_0, # of connection points: 2
#     Edge 117, Type (0, 0), BuildingBlock: AJUNOK_clean_linker_0, # of connection points: 2
#     Edge 118, Type (0, 0), BuildingBlock: AJUNOK_clean_linker_0, # of connection points: 2
#     Edge 119, Type (0, 0), BuildingBlock: AJUNOK_clean_linker_0, # of connection points: 2
#     Edge 120, Type (0, 0), BuildingBlock: AJUNOK_clean_linker_0, # of connection points: 2
#     Edge 121, Type (0, 0), BuildingBlock: AJUNOK_clean_linker_0, # of connection points: 2
#     Edge 122, Type (0, 0), BuildingBlock: AJUNOK_clean_linker_0, # of connection points: 2
#     Edge 123, Type (0, 0), BuildingBlock: AJUNOK_clean_linker_0, # of connection points: 2
#     Edge 124, Type (0, 0), BuildingBlock: AJUNOK_clean_linker_0, # of connection points: 2
#     Edge 125, Type (0, 0), BuildingBlock: AJUNOK_clean_linker_0, # of connection points: 2
#     Edge 126, Type (0, 0), BuildingBlock: AJUNOK_clean_linker_0, # of connection points: 2
#     Edge 127, Type (0, 0), BuildingBlock: AJUNOK_clean_linker_0, # of connection points: 2
# Relax obj value: 0.046
# Max RMSD: 0.092
# Mean RMSD: 0.092
data_MOF--net-son--node1-LEVNOQ01_clean_sbu_1--edge1-AJUNOK_clean_linker_0
_symmetry_space_group_name_H-M    P1
_symmetry_Int_Tables_number       1
_symmetry_cell_setting            triclinic
loop_
_symmetry_equiv_pos_as_xyz
'x, y, z'
_cell_length_a     88.561801
_cell_length_b     44.523017
_cell_length_c     11.675954
_cell_angle_alpha  89.832992
_cell_angle_beta   89.940265
_cell_angle_gamma 89.887174
loop_
_atom_site_label
_atom_site_type_symbol
_atom_site_fract_x
_atom_site_fract_y
_atom_site_fract_z
_atom_type_partial_charge
O0 O 0.32638 0.22483 0.40417 0.0
Mg1 Mg 0.32767 0.21187 0.23265 0.0
O2 O 0.30523 0.24989 0.37435 0.0
Mg3 Mg 0.31087 0.25165 0.18418 0.0
O4 O 0.30797 0.19748 0.16963 0.0
O5 O 0.32607 0.16759 0.2457 0.0
O6 O 0.31715 0.25212 -0.00628 0.0
O7 O 0.28566 0.24848 0.12578 0.0
Mg8 Mg 0.29883 0.31196 0.05114 0.0
O9 O 0.31028 0.30279 0.19481 0.0
O10 O 0.31173 0.2966 0.91601 0.0
O11 O 0.27719 0.29276 0.06464 0.0
O12 O 0.3051 0.34954 0.13721 0.0
C13 C 0.34872 0.24848 0.19868 0.0
C14 C 0.31507 0.2389 0.44198 0.0
C15 C 0.31279 0.17114 0.20288 0.0
C16 C 0.31719 0.27038 0.90948 0.0
C17 C 0.27511 0.26506 0.08512 0.0
C18 C 0.31063 0.33143 0.21285 0.0
O19 O 0.34721 0.22487 0.14024 0.0
O20 O 0.33683 0.2608 0.23851 0.0
O21 O 0.92702 0.01265 0.44654 0.0
Mg22 Mg 0.92644 0.03672 0.29346 0.0
O23 O 0.94864 0.99471 0.38729 0.0
Mg24 Mg 0.94026 0.99585 0.20173 0.0
O25 O 0.94338 0.04807 0.18618 0.0
O26 O 0.93495 0.07767 0.32798 0.0
O27 O 0.93298 0.99468 0.0151 0.0
O28 O 0.96449 0.00899 0.1339 0.0
Mg29 Mg 0.95639 0.96083 0.15292 0.0
O30 O 0.93794 0.94159 0.22218 0.0
O31 O 0.95389 0.96976 0.97843 0.0
O32 O 0.97733 0.975 0.22359 0.0
O33 O 0.95768 0.9166 0.14858 0.0
C34 C 0.90335 0.00698 0.22741 0.0
C35 C 0.93911 -0.0011 0.4665 0.0
C36 C 0.94335 0.07365 0.23919 0.0
C37 C 0.9421 0.98284 0.94434 0.0
C38 C 0.97719 -0.00201 0.16008 0.0
C39 C 0.94446 0.91642 0.19409 0.0
O40 O 0.90615 0.03427 0.20723 0.0
O41 O 0.91425 0.98915 0.25097 0.0
O42 O 0.31439 0.04059 0.81842 0.0
Mg43 Mg 0.31598 0.06026 0.9756 0.0
O44 O 0.30779 0.99537 0.88307 0.0
Mg45 Mg 0.31405 0.99035 0.07476 0.0
O46 O 0.31037 0.03981 0.12569 0.0
O47 O 0.29266 0.04758 0.00142 0.0
O48 O 0.32155 0.98521 0.2629 0.0
O49 O 0.28832 0.99004 0.1298 0.0
Mg50 Mg 0.30081 0.94362 0.14274 0.0
O51 O 0.31789 0.93768 0.02794 0.0
O52 O 0.30317 0.9551 0.31118 0.0
O53 O 0.27815 0.94648 0.09231 0.0
O54 O 0.30829 0.9021 0.14577 0.0
C55 C 0.34576 0.02098 0.97708 0.0
C56 C 0.31057 0.01372 0.80136 0.0
C57 C 0.29772 0.05257 0.1015 0.0
C58 C 0.31384 0.97194 0.3397 0.0
C59 C 0.27669 0.97332 0.12529 0.0
C60 C 0.31667 0.90956 0.06022 0.0
O61 O 0.33921 0.04647 0.97688 0.0
O62 O 0.33894 -0.00266 0.01227 0.0
O63 O 0.92684 0.23088 0.75093 0.0
Mg64 Mg 0.93024 0.20553 0.89727 0.0
O65 O 0.94708 0.25575 0.79858 0.0
Mg66 Mg 0.94098 0.25394 -0.00813 0.0
O67 O 0.94687 0.20348 0.01675 0.0
O68 O 0.94602 0.17347 0.8638 0.0
O69 O 0.9355 0.25691 0.18334 0.0
O70 O 0.96619 0.25798 0.04221 0.0
Mg71 Mg 0.94682 0.31889 0.11455 0.0
O72 O 0.93589 0.30273 0.97309 0.0
O73 O 0.92942 0.30431 0.22422 0.0
O74 O 0.96647 0.29593 0.16489 0.0
O75 O 0.95014 0.34205 0.95968 0.0
C76 C 0.90509 0.22745 0.97312 0.0
C77 C 0.93711 0.24891 0.72536 0.0
C78 C 0.95071 0.17866 0.96624 0.0
C79 C 0.93053 0.2768 0.25283 0.0
C80 C 0.97254 0.27285 0.12195 0.0
C81 C 0.94109 0.32379 0.91013 0.0
O82 O 0.90981 0.20063 0.98123 0.0
O83 O 0.91458 0.24885 0.95968 0.0
O84 O 0.67704 0.76021 0.53862 0.0
Mg85 Mg 0.67616 0.77006 0.71574 0.0
O86 O 0.69928 0.74046 0.57002 0.0
Mg87 Mg 0.6922 0.7381 0.75832 0.0
O88 O 0.69324 0.79367 0.77965 0.0
O89 O 0.67228 0.81376 0.70358 0.0
O90 O 0.68652 0.73521 0.94717 0.0
O91 O 0.71725 0.74226 0.82066 0.0
Mg92 Mg 0.70932 0.67545 0.87002 0.0
O93 O 0.69364 0.68879 0.7589 0.0
O94 O 0.70078 0.69729 0.01642 0.0
O95 O 0.72872 0.69804 0.80821 0.0
O96 O 0.69664 0.64087 0.79134 0.0
C97 C 0.65462 0.73489 0.74219 0.0
C98 C 0.68925 0.74961 0.50068 0.0
C99 C 0.68505 0.81703 0.75364 0.0
C100 C 0.69187 0.71949 0.02935 0.0
C101 C 0.72914 0.72597 0.83051 0.0
C102 C 0.68918 0.66198 0.74123 0.0
O103 O 0.6565 0.7568 0.80848 0.0
O104 O 0.66643 0.7238 0.69689 0.0
O105 O 0.074 0.97775 0.5271 0.0
Mg106 Mg 0.07654 0.96169 0.68877 0.0
O107 O 0.05489 0.00487 0.58659 0.0
Mg108 Mg 0.06376 0.00442 0.77504 0.0
O109 O 0.06059 0.95185 0.80434 0.0
O110 O 0.06915 0.91981 0.67016 0.0
O111 O 0.0723 0.00593 0.95847 0.0
O112 O 0.03908 0.99614 0.85468 0.0
Mg113 Mg 0.04922 0.04264 0.82794 0.0
O114 O 0.06771 0.05803 0.7484 0.0
O115 O 0.05337 0.03572 0.00099 0.0
O116 O 0.02682 0.03283 0.77504 0.0
O117 O 0.05 0.08664 0.83188 0.0
C118 C 0.1005 0.99179 0.72023 0.0
C119 C 0.06287 0.99414 0.50556 0.0
C120 C 0.06129 0.92508 0.7606 0.0
C121 C 0.06463 0.02044 0.03183 0.0
C122 C 0.02666 0.00978 0.8382 0.0
C123 C 0.0629 0.08417 0.78242 0.0
O124 O 0.09855 0.96449 0.74534 0.0
O125 O 0.08912 0.00925 0.71139 0.0
O126 O 0.70094 0.96085 0.18636 0.0
Mg127 Mg 0.6887 0.9425 0.05729 0.0
O128 O 0.6965 0.00636 0.1203 0.0
Mg129 Mg 0.68955 0.00823 0.92709 0.0
O130 O 0.68897 0.95771 0.89198 0.0
O131 O 0.70873 0.93526 0.96006 0.0
O132 O 0.68217 0.01125 0.73832 0.0
O133 O 0.71483 0.00078 0.86788 0.0
Mg134 Mg 0.7051 0.04883 0.86076 0.0
O135 O 0.68719 0.06225 0.95312 0.0
O136 O 0.70254 0.03654 0.69277 0.0
O137 O 0.72675 0.04059 0.92702 0.0
O138 O 0.70154 0.09182 0.84032 0.0
C139 C 0.65966 0.98773 0.06305 0.0
C140 C 0.70061 0.98877 0.20109 0.0
C141 C 0.69966 0.93858 0.87688 0.0
C142 C 0.69085 0.02272 0.66326 0.0
C143 C 0.72718 0.0148 0.88244 0.0
C144 C 0.69045 0.08869 0.91039 0.0
O145 O 0.66701 0.96403 0.09081 0.0
O146 O 0.66516 0.00711 -0.00646 0.0
O147 O 0.04257 0.75326 0.15479 0.0
Mg148 Mg 0.06314 0.77023 0.08954 0.0
O149 O 0.0592 0.71952 0.11386 0.0
Mg150 Mg 0.06335 0.73519 0.91769 0.0
O151 O 0.06111 0.78882 0.93449 0.0
O152 O 0.06284 0.81417 0.10289 0.0
O153 O 0.06774 0.74775 0.72164 0.0
O154 O 0.03805 0.73456 0.87218 0.0
Mg155 Mg 0.06183 0.69216 0.72423 0.0
O156 O 0.06479 0.68379 0.89214 0.0
O157 O 0.08272 0.71114 0.67833 0.0
O158 O 0.04037 0.71489 0.69786 0.0
O159 O 0.06252 0.64763 0.75955 0.0
C160 C 0.09389 0.74215 0.06134 0.0
C161 C 0.0505 0.73153 0.18802 0.0
C162 C 0.06094 0.81369 -0.00647 0.0
C163 C 0.07602 0.73463 0.64718 0.0
C164 C 0.03261 0.72857 0.77352 0.0
C165 C 0.06516 0.65566 0.86373 0.0
O166 O 0.08505 0.75349 0.1352 0.0
O167 O 0.08892 0.73605 0.96138 0.0
O168 O 0.29435 0.72837 0.90192 0.0
Mg169 Mg 0.31078 0.70544 0.80842 0.0
O170 O 0.3095 0.76282 0.84134 0.0
Mg171 Mg 0.31381 0.75817 0.64883 0.0
O172 O 0.31269 0.7064 0.6322 0.0
O173 O 0.29782 0.67477 0.72405 0.0
O174 O 0.31979 0.75655 0.45513 0.0
O175 O 0.28875 0.75992 0.59601 0.0
Mg176 Mg 0.30664 0.82029 0.50043 0.0
O177 O 0.31547 0.80875 0.6527 0.0
O178 O 0.32212 0.80261 0.38495 0.0
O179 O 0.28442 0.80095 0.49133 0.0
O180 O 0.3132 0.85641 0.60075 0.0
C181 C 0.34299 0.73658 0.79295 0.0
C182 C 0.30209 0.75117 0.92285 0.0
C183 C 0.3039 0.68331 0.63018 0.0
C184 C 0.32314 0.7744 0.37299 0.0
C185 C 0.27999 0.77626 0.53527 0.0
C186 C 0.31739 0.83677 0.67553 0.0
O187 O 0.33424 0.71751 0.84183 0.0
O188 O 0.33833 0.75339 0.71055 0.0
O189 O 0.92593 0.51024 0.94713 0.0
Mg190 Mg 0.92359 0.53231 0.78669 0.0
O191 O 0.94719 0.49026 0.88821 0.0
Mg192 Mg 0.93998 0.49376 0.70046 0.0
O193 O 0.9424 0.54779 0.7056 0.0
O194 O 0.92717 0.57588 0.81701 0.0
O195 O 0.93604 0.49056 0.51036 0.0
O196 O 0.96428 0.50085 0.63482 0.0
Mg197 Mg 0.96065 0.43956 0.65759 0.0
O198 O 0.93809 0.44376 0.69114 0.0
O199 O 0.95361 0.45405 0.48597 0.0
O200 O 0.97751 0.46765 0.72647 0.0
O201 O 0.95185 0.41588 0.80025 0.0
C202 C 0.9024 0.49752 0.72453 0.0
C203 C 0.93785 0.49569 0.96781 0.0
C204 C 0.939 0.57348 0.75336 0.0
C205 C 0.94387 0.47286 0.44665 0.0
C206 C 0.97703 0.49054 0.66368 0.0
C207 C 0.93862 0.42302 0.76601 0.0
O208 O 0.90362 0.52448 0.69281 0.0
O209 O 0.91436 0.48329 0.75116 0.0
O210 O 0.29289 0.5106 0.31614 0.0
Mg211 Mg 0.314 0.52043 0.39097 0.0
O212 O 0.30706 0.47247 0.35559 0.0
Mg213 Mg 0.31326 0.48739 0.55067 0.0
O214 O 0.31378 0.54281 0.53891 0.0
O215 O 0.31734 0.56342 0.363 0.0
O216 O 0.31876 0.4968 0.74859 0.0
O217 O 0.28851 0.49281 0.60189 0.0
Mg218 Mg 0.30887 0.44217 0.73923 0.0
O219 O 0.31193 0.43513 0.57112 0.0
O220 O 0.33016 0.45552 0.79647 0.0
O221 O 0.28878 0.46795 0.7677 0.0
O222 O 0.30709 0.39849 0.69937 0.0
C223 C 0.34272 0.48753 0.39518 0.0
C224 C 0.29905 0.48671 0.28258 0.0
C225 C 0.31535 0.56617 0.47137 0.0
C226 C 0.32533 0.4809 0.8255 0.0
C227 C 0.2824 0.48563 0.69698 0.0
C228 C 0.31065 0.40676 0.59682 0.0
O229 O 0.33377 0.49997 0.32563 0.0
O230 O 0.33851 0.48296 0.49853 0.0
O231 O 0.94659 0.71203 0.23154 0.0
Mg232 Mg 0.93742 0.68912 0.36658 0.0
O233 O 0.94409 0.75401 0.32724 0.0
Mg234 Mg 0.93936 0.74755 0.51793 0.0
O235 O 0.94363 0.69604 0.53367 0.0
O236 O 0.95454 0.6625 0.42238 0.0
O237 O 0.93305 0.74674 0.71046 0.0
O238 O 0.9648 0.75136 0.56657 0.0
Mg239 Mg 0.9447 0.80702 0.67274 0.0
O240 O 0.93571 0.79786 0.51415 0.0
O241 O 0.92524 0.79219 0.75753 0.0
O242 O 0.96539 0.78358 0.71125 0.0
O243 O 0.948 0.83962 0.54922 0.0
C244 C 0.90685 0.71839 0.418 0.0
C245 C 0.94662 0.74017 0.23465 0.0
C246 C 0.95355 0.67477 0.52151 0.0
C247 C 0.92737 0.76495 0.78388 0.0
C248 C 0.97168 0.76361 0.65019 0.0
C249 C 0.94167 0.8222 0.47602 0.0
O250 O 0.91381 0.69536 0.3803 0.0
O251 O 0.91388 0.74007 0.46694 0.0
O252 O 0.67249 0.25797 0.07796 0.0
Mg253 Mg 0.67187 0.26962 0.25147 0.0
O254 O 0.69578 0.24144 0.09984 0.0
Mg255 Mg 0.69132 0.23775 0.29194 0.0
O256 O 0.69001 0.29192 0.3057 0.0
O257 O 0.66834 0.31321 0.24249 0.0
O258 O 0.68613 0.23509 0.48281 0.0
O259 O 0.7167 0.24612 0.33932 0.0
Mg260 Mg 0.70599 0.17607 0.43055 0.0
O261 O 0.69511 0.18929 0.28999 0.0
O262 O 0.69113 0.19017 0.55992 0.0
O263 O 0.72543 0.20414 0.4237 0.0
O264 O 0.69976 0.14151 0.31579 0.0
C265 C 0.65392 0.2284 0.28744 0.0
C266 C 0.68473 0.24874 0.03568 0.0
C267 C 0.68196 0.31545 0.27956 0.0
C268 C 0.6859 0.2167 0.56661 0.0
C269 C 0.72724 0.23105 0.38849 0.0
C270 C 0.69376 0.16242 0.2546 0.0
O271 O 0.65426 0.251 0.35236 0.0
O272 O 0.66639 0.21986 0.24434 0.0
O273 O 0.07106 0.46069 0.03222 0.0
Mg274 Mg 0.07731 0.43963 0.18134 0.0
O275 O 0.0574 0.49877 0.09999 0.0
Mg276 Mg 0.06342 0.50137 0.28944 0.0
O277 O 0.06406 0.45063 0.31741 0.0
O278 O 0.06127 0.40841 0.2236 0.0
O279 O 0.06963 0.50428 0.4776 0.0
O280 O 0.03817 0.49949 0.34939 0.0
Mg281 Mg 0.05064 0.56241 0.40215 0.0
O282 O 0.06383 0.55273 0.26843 0.0
O283 O 0.06116 0.54736 0.55007 0.0
O284 O 0.02904 0.5456 0.36513 0.0
O285 O 0.05841 0.59975 0.3233 0.0
C286 C 0.09996 0.48434 0.22427 0.0
C287 C 0.0626 0.48315 0.01771 0.0
C288 C 0.05657 0.42609 0.30318 0.0
C289 C 0.06791 0.52245 0.56055 0.0
C290 C 0.02715 0.51744 0.36746 0.0
C291 C 0.06443 0.58147 0.25072 0.0
O292 O 0.09835 0.45607 0.23294 0.0
O293 O 0.08878 0.50241 0.23283 0.0
O294 O 0.70842 0.48079 0.66553 0.0
Mg295 Mg 0.69208 0.46223 0.55845 0.0
O296 O 0.69217 0.5145 0.6146 0.0
Mg297 Mg 0.68695 0.50935 0.4219 0.0
O298 O 0.69022 0.45794 0.38502 0.0
O299 O 0.70529 0.42937 0.49166 0.0
O300 O 0.6806 0.51061 0.23009 0.0
O301 O 0.71213 0.5072 0.36525 0.0
Mg302 Mg 0.70176 0.55598 0.35805 0.0
O303 O 0.68219 0.56158 0.44709 0.0
O304 O 0.69836 0.54377 0.19042 0.0
O305 O 0.72411 0.54751 0.41612 0.0
O306 O 0.69566 0.59866 0.364 0.0
C307 C 0.65857 0.48273 0.56332 0.0
C308 C 0.70094 0.50376 0.68951 0.0
C309 C 0.69846 0.43404 0.3968 0.0
C310 C 0.68821 0.52592 0.15773 0.0
C311 C 0.72444 0.52153 0.37284 0.0
C312 C 0.68415 0.58996 0.42319 0.0
O313 O 0.66825 0.46467 0.60759 0.0
O314 O 0.66246 0.50165 0.48562 0.0
O315 O 0.0789 0.26555 0.66783 0.0
Mg316 Mg 0.07758 0.27922 0.49427 0.0
O317 O 0.05613 0.24651 0.65022 0.0
Mg318 Mg 0.06068 0.24394 0.45845 0.0
O319 O 0.05808 0.2988 0.4498 0.0
O320 O 0.07858 0.32329 0.51421 0.0
O321 O 0.06553 0.24206 0.26662 0.0
O322 O 0.03503 0.24579 0.40745 0.0
Mg323 Mg 0.04878 0.17949 0.33236 0.0
O324 O 0.06044 0.1946 0.46668 0.0
O325 O 0.06138 0.19633 0.19385 0.0
O326 O 0.02745 0.20068 0.34665 0.0
O327 O 0.05747 0.14626 0.44047 0.0
C328 C 0.09793 0.24314 0.44656 0.0
C329 C 0.06717 0.25457 0.7126 0.0
C330 C 0.06461 0.32347 0.48412 0.0
C331 C 0.0659 0.22329 0.18433 0.0
C332 C 0.02481 0.22826 0.36739 0.0
C333 C 0.06333 0.16774 0.4989 0.0
O334 O 0.09546 0.26575 0.38378 0.0
O335 O 0.08671 0.23184 0.499 0.0
O336 O 0.79147 0.2383 0.94655 0.0
Mg337 Mg 0.80981 0.214 0.8781 0.0
O338 O 0.80909 0.26796 0.88622 0.0
Mg339 Mg 0.81409 0.25427 0.69543 0.0
O340 O 0.80945 0.20195 0.71069 0.0
O341 O 0.80618 0.17024 0.86078 0.0
O342 O 0.8194 0.24337 0.50162 0.0
O343 O 0.79024 0.26272 0.62672 0.0
Mg344 Mg 0.81653 0.31079 0.50187 0.0
O345 O 0.81859 0.3035 0.6709 0.0
O346 O 0.83369 0.28094 0.4519 0.0
O347 O 0.79348 0.29417 0.47784 0.0
O348 O 0.82172 0.34892 0.60258 0.0
C349 C 0.84197 0.23685 0.86012 0.0
C350 C 0.80026 0.25988 0.96675 0.0
C351 C 0.80725 0.17502 0.75195 0.0
C352 C 0.82684 0.25726 0.42391 0.0
C353 C 0.7852 0.27652 0.53782 0.0
C354 C 0.82091 0.33141 0.69006 0.0
O355 O 0.83227 0.22483 0.92606 0.0
O356 O 0.83832 0.247 0.76122 0.0
O357 O 0.42841 0.01301 0.95601 0.0
Mg358 Mg 0.43072 0.04241 0.81971 0.0
O359 O 0.44743 0.98698 0.89078 0.0
Mg360 Mg 0.43993 0.98857 0.69895 0.0
O361 O 0.44326 0.03922 0.67258 0.0
O362 O 0.45169 0.06254 0.82664 0.0
O363 O 0.43513 0.98119 0.50887 0.0
O364 O 0.46468 0.98926 0.63214 0.0
Mg365 Mg 0.45765 0.92768 0.65259 0.0
O366 O 0.43631 0.9388 0.71276 0.0
O367 O 0.44974 0.93995 0.48452 0.0
O368 O 0.47817 0.95055 0.68113 0.0
O369 O 0.45061 0.90784 0.80661 0.0
C370 C 0.40457 0.01649 0.75059 0.0
C371 C 0.4384 0.99348 0.9717 0.0
C372 C 0.45134 0.06033 0.71729 0.0
C373 C 0.44123 0.96087 0.44535 0.0
C374 C 0.47736 0.97595 0.634 0.0
C375 C 0.43749 0.91937 0.79265 0.0
O376 O 0.41002 0.04269 0.73977 0.0
O377 O 0.41351 0.9936 0.75186 0.0
O378 O 0.78994 0.0118 0.28667 0.0
Mg379 Mg 0.81037 0.03168 0.33787 0.0
O380 O 0.80692 0.97861 0.3266 0.0
Mg381 Mg 0.81277 0.99058 0.51574 0.0
O382 O 0.81049 0.04397 0.50353 0.0
O383 O 0.80893 0.07592 0.3522 0.0
O384 O 0.81914 -0.0003 0.70782 0.0
O385 O 0.78776 0.99042 0.5762 0.0
Mg386 Mg 0.80195 0.93499 0.66256 0.0
O387 O 0.81658 0.93942 0.5324 0.0
O388 O 0.81048 0.95905 0.79838 0.0
O389 O 0.77966 0.94486 0.6157 0.0
O390 O 0.81193 0.89574 0.6212 0.0
C391 C 0.84115 0.00052 0.35286 0.0
C392 C 0.79844 0.99099 0.25248 0.0
C393 C 0.80938 0.07114 0.46129 0.0
C394 C 0.81689 0.98444 0.79936 0.0
C395 C 0.77713 0.97272 0.60564 0.0
C396 C 0.81875 0.91065 0.54146 0.0
O397 O 0.83192 0.01456 0.28877 0.0
O398 O 0.8373 0.99228 0.45357 0.0
O399 O 0.4581 0.22117 0.29116 0.0
Mg400 Mg 0.4378 0.21369 0.37841 0.0
O401 O 0.44576 0.26169 0.33341 0.0
Mg402 Mg 0.43937 0.25142 0.52804 0.0
O403 O 0.44044 0.1971 0.53709 0.0
O404 O 0.43495 0.16989 0.37902 0.0
O405 O 0.43668 0.25405 0.72311 0.0
O406 O 0.46421 0.2463 0.58308 0.0
Mg407 Mg 0.45935 0.30898 0.5733 0.0
O408 O 0.43689 0.30119 0.53668 0.0
O409 O 0.45298 0.29266 0.74168 0.0
O410 O 0.4782 0.28292 0.52202 0.0
O411 O 0.45018 0.3284 0.42254 0.0
C412 C 0.40908 0.24751 0.38038 0.0
C413 C 0.45415 0.24733 0.26406 0.0
C414 C 0.4391 0.1713 0.48457 0.0
C415 C 0.44441 0.27244 0.78517 0.0
C416 C 0.47718 0.25784 0.57156 0.0
C417 C 0.43706 0.31986 0.45425 0.0
O418 O 0.41776 0.23344 0.31345 0.0
O419 O 0.4136 0.25363 0.48148 0.0
O420 O 0.2099 0.7518 0.09623 0.0
Mg421 Mg 0.18827 0.76818 0.14366 0.0
O422 O 0.19326 0.7175 0.12098 0.0
Mg423 Mg 0.18848 0.73131 0.30998 0.0
O424 O 0.18844 0.7861 0.30098 0.0
O425 O 0.18806 0.81251 0.13514 0.0
O426 O 0.18379 0.74061 0.50282 0.0
O427 O 0.21431 0.73503 0.3491 0.0
Mg428 Mg 0.20324 0.68024 0.44345 0.0
O429 O 0.18703 0.67871 0.32388 0.0
O430 O 0.19699 0.70389 0.58525 0.0
O431 O 0.22465 0.69069 0.38036 0.0
O432 O 0.19459 0.63875 0.42717 0.0
C433 C 0.15794 0.73817 0.16944 0.0
C434 C 0.20269 0.73017 0.05508 0.0
C435 C 0.18819 0.81177 0.24562 0.0
C436 C 0.189 0.7273 0.59127 0.0
C437 C 0.22595 0.71872 0.36631 0.0
C438 C 0.18696 0.64979 0.34258 0.0
O439 O 0.16655 0.75012 0.0951 0.0
O440 O 0.16318 0.7309 0.26747 0.0
O441 O 0.57092 0.97033 -0.00503 0.0
Mg442 Mg 0.57349 0.94679 0.14562 0.0
O443 O 0.5562 0.00466 0.07288 0.0
Mg444 Mg 0.56174 0.00652 0.26439 0.0
O445 O 0.56257 0.95603 0.29782 0.0
O446 O 0.55279 0.92558 0.17129 0.0
O447 O 0.56514 0.01454 0.45599 0.0
O448 O 0.5364 0.00296 0.31125 0.0
Mg449 Mg 0.5424 0.06744 0.3316 0.0
O450 O 0.56108 0.05566 0.24203 0.0
O451 O 0.54919 0.0527 0.49573 0.0
O452 O 0.52284 0.04347 0.27879 0.0
O453 O 0.55387 0.10278 0.25113 0.0
C454 C 0.59816 0.98703 0.21933 0.0
C455 C 0.56191 0.99198 -0.014 0.0
C456 C 0.5543 0.93299 0.27614 0.0
C457 C 0.5585 0.03236 0.52603 0.0
C458 C 0.52362 0.01619 0.31045 0.0
C459 C 0.56386 0.08328 0.22016 0.0
O460 O 0.59451 0.95952 0.21055 0.0
O461 O 0.58812 0.00784 0.22608 0.0
O462 O 0.20867 0.97537 0.65698 0.0
Mg463 Mg 0.18804 0.97186 0.57004 0.0
O464 O 0.1966 0.01713 0.62835 0.0
Mg465 Mg 0.1912 0.00776 0.4329 0.0
O466 O 0.1891 0.95246 0.41576 0.0
O467 O 0.1827 0.92891 0.57987 0.0
O468 O 0.18965 0.00953 0.23477 0.0
O469 O 0.21658 0.00168 0.40193 0.0
Mg470 Mg 0.21147 0.06606 0.35905 0.0
O471 O 0.1914 0.05822 0.43164 0.0
O472 O 0.20675 0.04594 0.203 0.0
O473 O 0.22861 0.04294 0.4495 0.0
O474 O 0.19949 0.10445 0.40546 0.0
C475 C 0.16045 0.00818 0.56174 0.0
C476 C 0.20518 0.00119 0.69107 0.0
C477 C 0.18571 0.92785 0.47219 0.0
C478 C 0.19777 0.02582 0.16736 0.0
C479 C 0.22888 0.01563 0.41887 0.0
C480 C 0.18889 0.08662 0.43841 0.0
O481 O 0.16856 0.99475 0.63455 0.0
O482 O 0.16556 0.01247 0.46124 0.0
O483 O 0.5439 0.76404 0.63233 0.0
Mg484 Mg 0.56498 0.77303 0.55778 0.0
O485 O 0.55769 0.72492 0.59735 0.0
Mg486 Mg 0.56408 0.73725 0.4017 0.0
O487 O 0.56365 0.79235 0.40404 0.0
O488 O 0.56845 0.81638 0.57168 0.0
O489 O 0.56857 0.74627 0.20231 0.0
O490 O 0.53886 0.74006 0.351 0.0
Mg491 Mg 0.56014 0.69061 0.22792 0.0
O492 O 0.56455 0.68431 0.39391 0.0
O493 O 0.57997 0.70565 0.14876 0.0
O494 O 0.53852 0.71078 0.19725 0.0
O495 O 0.56044 0.64679 0.26748 0.0
C496 C 0.594 0.73988 0.55677 0.0
C497 C 0.54931 0.73953 0.66674 0.0
C498 C 0.5656 0.81695 0.46357 0.0
C499 C 0.57469 0.73092 0.12246 0.0
C500 C 0.5321 0.72949 0.26331 0.0
C501 C 0.56402 0.65578 0.36893 0.0
O502 O 0.58484 0.75278 0.62348 0.0
O503 O 0.58991 0.73463 0.45356 0.0
O504 O 0.80402 0.71195 0.51013 0.0
Mg505 Mg 0.81146 0.68873 0.36738 0.0
O506 O 0.80618 0.75391 0.41286 0.0
Mg507 Mg 0.81078 0.75123 0.2189 0.0
O508 O 0.80902 0.70051 0.196 0.0
O509 O 0.79079 0.67815 0.28675 0.0
O510 O 0.81403 0.75865 0.02854 0.0
O511 O 0.78571 0.75103 0.16498 0.0
Mg512 Mg 0.79276 0.81365 0.18367 0.0
O513 O 0.81434 0.80044 0.23076 0.0
O514 O 0.79963 0.80037 0.01182 0.0
O515 O 0.77245 0.79025 0.21282 0.0
O516 O 0.80061 0.8245 0.3509 0.0
C517 C 0.84248 0.72297 0.31641 0.0
C518 C 0.80376 0.74013 0.50609 0.0
C519 C 0.79811 0.68163 0.19372 0.0
C520 C 0.80767 0.77933 0.96799 0.0
C521 C 0.7731 0.76453 0.16871 0.0
C522 C 0.81383 0.81605 0.32137 0.0
O523 O 0.83485 0.70087 0.35539 0.0
O524 O 0.83621 0.74505 0.26377 0.0
O525 O 0.42558 0.50868 0.44921 0.0
Mg526 Mg 0.42501 0.52705 0.28426 0.0
O527 O 0.44767 0.48923 0.40985 0.0
Mg528 Mg 0.44192 0.48732 0.22041 0.0
O529 O 0.44357 0.54058 0.19864 0.0
O530 O 0.42933 0.57016 0.31231 0.0
O531 O 0.43762 0.48301 0.02948 0.0
O532 O 0.46726 0.49248 0.17274 0.0
Mg533 Mg 0.4596 0.42696 0.12628 0.0
O534 O 0.44302 0.43757 0.23808 0.0
O535 O 0.45055 0.44239 0.97068 0.0
O536 O 0.47982 0.44937 0.16799 0.0
O537 O 0.45037 0.39068 0.21314 0.0
C538 C 0.40361 0.49311 0.22792 0.0
C539 C 0.43743 0.49567 0.4813 0.0
C540 C 0.44052 0.56671 0.2431 0.0
C541 C 0.44213 0.465 0.95174 0.0
C542 C 0.47955 0.47779 0.16192 0.0
C543 C 0.44136 0.40957 0.26131 0.0
O544 O 0.40534 0.51932 0.18899 0.0
O545 O 0.41532 0.47848 0.26026 0.0
O546 O 0.79322 0.52039 0.82137 0.0
Mg547 Mg 0.81465 0.52506 0.89617 0.0
O548 O 0.80507 0.47892 0.8564 0.0
Mg549 Mg 0.8125 0.48895 0.04627 0.0
O550 O 0.81388 0.54412 0.05091 0.0
O551 O 0.81935 0.56794 0.88408 0.0
O552 O 0.81823 0.49043 0.24251 0.0
O553 O 0.78756 0.50043 0.09944 0.0
Mg554 Mg 0.79456 0.44907 0.11767 0.0
O555 O 0.81293 0.43495 0.03492 0.0
O556 O 0.7978 0.46382 0.28196 0.0
O557 O 0.77463 0.46278 0.03498 0.0
O558 O 0.79634 0.40456 0.12437 0.0
C559 C 0.84213 0.48831 0.89262 0.0
C560 C 0.7971 0.49466 0.78878 0.0
C561 C 0.81589 0.56885 -0.00887 0.0
C562 C 0.80909 0.47865 0.31482 0.0
C563 C 0.77481 0.4885 0.07983 0.0
C564 C 0.80802 0.40807 0.05984 0.0
O565 O 0.83353 0.50239 0.82505 0.0
O566 O 0.83774 0.48324 -0.00508 0.0
O567 O 0.45453 0.7244 0.8117 0.0
Mg568 Mg 0.43562 0.71733 0.9146 0.0
O569 O 0.4422 0.76497 0.85445 0.0
Mg570 Mg 0.43778 0.75794 0.05095 0.0
O571 O 0.44086 0.70409 0.07468 0.0
O572 O 0.43509 0.67371 0.92599 0.0
O573 O 0.43461 0.75898 0.2488 0.0
O574 O 0.4636 0.75906 0.08619 0.0
Mg575 Mg 0.44829 0.82105 0.16495 0.0
O576 O 0.43507 0.80796 0.03602 0.0
O577 O 0.43528 0.80704 0.30149 0.0
O578 O 0.47059 0.80325 0.15512 0.0
O579 O 0.43966 0.85598 0.0725 0.0
C580 C 0.40571 0.74539 0.92933 0.0
C581 C 0.45007 0.75008 0.78366 0.0
C582 C 0.44011 0.6774 0.02848 0.0
C583 C 0.43374 0.77949 0.32534 0.0
C584 C 0.47376 0.77659 0.12501 0.0
C585 C 0.43209 0.83588 0.0173 0.0
O586 O 0.41369 0.73049 0.86018 0.0
O587 O 0.41165 0.7557 0.02044 0.0
O588 O 0.19466 0.28405 0.49643 0.0
Mg589 Mg 0.18455 0.30093 0.64199 0.0
O590 O 0.19291 0.23912 0.57425 0.0
Mg591 Mg 0.18766 0.23443 0.76675 0.0
O592 O 0.1869 0.28555 0.81003 0.0
O593 O 0.20624 0.30395 0.7203 0.0
O594 O 0.1831 0.22582 0.95856 0.0
O595 O 0.21303 0.23609 0.81653 0.0
Mg596 Mg 0.20462 0.17612 0.8312 0.0
O597 O 0.18755 0.1843 0.71754 0.0
O598 O 0.19939 0.18936 -0.00095 0.0
O599 O 0.22514 0.19436 0.7754 0.0
O600 O 0.1927 0.13923 0.78702 0.0
C601 C 0.15672 0.25373 0.64721 0.0
C602 C 0.19548 0.2559 0.48827 0.0
C603 C 0.19813 0.30382 0.81011 0.0
C604 C 0.19015 0.20934 0.03115 0.0
C605 C 0.22533 0.22122 0.81109 0.0
C606 C 0.18336 0.15673 0.73428 0.0
O607 O 0.16338 0.27745 0.61259 0.0
O608 O 0.1628 0.23548 0.71791 0.0
O609 O 0.55533 0.46075 0.54991 0.0
Mg610 Mg 0.56418 0.44015 0.69107 0.0
O611 O 0.55884 0.50556 0.62381 0.0
Mg612 Mg 0.56419 0.50647 0.8166 0.0
O613 O 0.56226 0.456 0.85499 0.0
O614 O 0.54308 0.43399 0.77587 0.0
O615 O 0.57014 0.50926 0.0047 0.0
O616 O 0.53904 0.51145 0.87418 0.0
Mg617 Mg 0.56046 0.56938 0.95338 0.0
O618 O 0.56656 0.55674 0.79217 0.0
O619 O 0.57581 0.55346 0.07546 0.0
O620 O 0.53806 0.55298 0.98088 0.0
O621 O 0.56616 0.60443 0.84738 0.0
C622 C 0.59538 0.4772 0.70994 0.0
C623 C 0.55591 0.48879 0.5387 0.0
C624 C 0.55168 0.43635 0.86242 0.0
C625 C 0.57434 0.52539 0.08834 0.0
C626 C 0.53199 0.52922 0.94187 0.0
C627 C 0.56812 0.58486 0.76779 0.0
O628 O 0.58775 0.45406 0.68104 0.0
O629 O 0.58919 0.49936 0.76199 0.0
O630 O 0.20915 0.48657 0.14203 0.0
Mg631 Mg 0.18972 0.47008 0.0574 0.0
O632 O 0.19274 0.52003 0.09198 0.0
Mg633 Mg 0.1889 0.50778 0.90422 0.0
O634 O 0.19151 0.45203 0.9 0.0
O635 O 0.18986 0.42604 0.0676 0.0
O636 O 0.18596 0.50295 0.70917 0.0
O637 O 0.21392 0.51125 0.86741 0.0
Mg638 Mg 0.19517 0.57014 0.74909 0.0
O639 O 0.18679 0.5589 0.90177 0.0
O640 O 0.17926 0.54802 0.64698 0.0
O641 O 0.21782 0.55138 0.75567 0.0
O642 O 0.18799 0.60646 0.84978 0.0
C643 C 0.15895 0.49789 0.04097 0.0
C644 C 0.20188 0.51007 0.16598 0.0
C645 C 0.19131 0.42661 0.95785 0.0
C646 C 0.1818 0.5205 0.62863 0.0
C647 C 0.2226 0.52799 0.80805 0.0
C648 C 0.18461 0.58679 0.92656 0.0
O649 O 0.16802 0.48541 0.11011 0.0
O650 O 0.16337 0.50525 0.94091 0.0
O651 O 0.5723 0.25949 0.19869 0.0
Mg652 Mg 0.57797 0.26971 0.0296 0.0
O653 O 0.55354 0.23273 0.13441 0.0
Mg654 Mg 0.56264 0.23385 0.95036 0.0
O655 O 0.56201 0.28948 0.93183 0.0
O656 O 0.5786 0.31345 0.04558 0.0
O657 O 0.56794 0.22838 0.76095 0.0
O658 O 0.53833 0.24073 0.87807 0.0
Mg659 Mg 0.54271 0.17446 0.88084 0.0
O660 O 0.56282 0.1843 0.94988 0.0
O661 O 0.55116 0.19155 0.71998 0.0
O662 O 0.52513 0.20254 0.94067 0.0
O663 O 0.55153 0.14389 0.00379 0.0
C664 C 0.60019 0.23418 0.01565 0.0
C665 C 0.56066 0.24413 0.21741 0.0
C666 C 0.56775 0.31425 0.97299 0.0
C667 C 0.56065 0.21178 0.68963 0.0
C668 C 0.52563 0.22769 0.89024 0.0
C669 C 0.56322 0.16078 0.01189 0.0
O670 O 0.60025 0.26035 0.97513 0.0
O671 O 0.58749 0.22103 0.02458 0.0
C672 C 0.23725 0.25923 0.93982 0.0
C673 C 0.23842 0.23203 0.87875 0.0
C674 C 0.24869 0.26862 0.01413 0.0
C675 C 0.26174 0.25118 0.03131 0.0
H676 H 0.22741 0.27353 0.93053 0.0
H677 H 0.24749 0.2902 0.05598 0.0
S678 S 0.27035 0.17799 0.89399 0.0
N679 N 0.25369 0.18757 0.84233 0.0
N680 N 0.27515 0.20523 0.98224 0.0
C681 C 0.26293 0.2236 0.97333 0.0
C682 C 0.25133 0.21414 0.89663 0.0
C683 C 0.99915 0.01029 0.88572 0.0
C684 C 0.01411 0.00549 0.92049 0.0
C685 C 0.98729 0.00926 0.96522 0.0
C686 C 0.98999 0.00377 0.0826 0.0
H687 H 0.99659 0.01467 0.79648 0.0
H688 H 0.97589 0.012 0.93376 0.0
S689 S 0.02702 0.99407 0.2208 0.0
N690 N 0.03096 -0.00274 0.083 0.0
N691 N 0.00852 -0.00364 0.23114 0.0
C692 C 0.00482 6e-05 0.11909 0.0
C693 C 0.01692 0.00061 0.03841 0.0
C694 C 0.24865 0.02397 0.27191 0.0
C695 C 0.24194 0.00476 0.35311 0.0
C696 C 0.25925 0.01314 0.19319 0.0
C697 C 0.2634 0.98268 0.19207 0.0
H698 H 0.24539 0.04741 0.26697 0.0
H699 H 0.26436 0.02879 0.13351 0.0
S700 S 0.24966 0.92361 0.39142 0.0
N701 N 0.24035 0.95417 0.42971 0.0
N702 N 0.26052 0.93371 0.28289 0.0
C703 C 0.25678 0.96323 0.27302 0.0
C704 C 0.24599 0.97431 0.35328 0.0
C705 C 0.99899 0.22137 0.28422 0.0
C706 C 0.01071 0.24094 0.31795 0.0
C707 C 0.98698 0.23141 0.21566 0.0
C708 C 0.98622 0.26141 0.17873 0.0
H709 H 0.99924 0.19788 0.30878 0.0
H710 H 0.97809 0.21578 0.19351 0.0
S711 S 0.01348 0.32181 0.24211 0.0
N712 N 0.02047 0.29199 0.30791 0.0
N713 N 0.99769 0.31064 0.1814 0.0
C714 C 0.99754 0.28129 0.21347 0.0
C715 C 0.0098 0.27116 0.28268 0.0
C716 C 0.75023 0.71573 0.96821 0.0
C717 C 0.74143 0.73674 0.90652 0.0
C718 C 0.75996 0.72477 0.05623 0.0
C719 C 0.76123 0.75513 0.08701 0.0
H720 H 0.74932 0.69191 0.95103 0.0
H721 H 0.76655 0.70781 0.10052 0.0
S722 S 0.74211 0.81943 0.94347 0.0
N723 N 0.73562 0.78952 0.87663 0.0
N724 N 0.75385 0.80657 0.04186 0.0
C725 C 0.75285 0.77648 0.02391 0.0
C726 C 0.74303 0.76729 0.93368 0.0
C727 C 0.75254 0.96505 0.70521 0.0
C728 C 0.76354 0.98503 0.66307 0.0
C729 C 0.74127 0.97469 0.78047 0.0
C730 C 0.74051 0.0047 0.81711 0.0
H731 H 0.75281 0.94149 0.68229 0.0
H732 H 0.73302 0.95842 0.80973 0.0
S733 S 0.76539 0.067 0.72154 0.0
N734 N 0.77219 0.03697 0.65677 0.0
N735 N 0.75094 0.05502 0.79835 0.0
C736 C 0.75112 0.02522 0.77321 0.0
C737 C 0.76257 0.01545 0.69561 0.0
C738 C 0.99967 0.76838 0.63139 0.0
C739 C 0.98713 0.75385 0.68003 0.0
C740 C 0.01445 0.76016 0.66248 0.0
C741 C 0.01708 0.73768 0.74509 0.0
H742 H 0.99803 0.78617 0.56909 0.0
H743 H 0.02389 0.77158 0.6224 0.0
S744 S 0.98818 0.69241 0.8953 0.0
N745 N 0.97838 0.71518 0.81153 0.0
N746 N 0.00611 0.7008 0.87331 0.0
C747 C 0.00467 0.72318 0.79465 0.0
C748 C 0.98968 0.73102 0.76129 0.0
C749 C 0.24726 0.75487 0.34305 0.0
C750 C 0.2397 0.73323 0.4087 0.0
C751 C 0.25997 0.76967 0.38687 0.0
C752 C 0.26537 0.76354 0.49824 0.0
H753 H 0.24346 0.76004 0.25701 0.0
H754 H 0.26587 0.78535 0.33171 0.0
S755 S 0.24788 0.71185 0.70961 0.0
N756 N 0.23737 0.70846 0.59366 0.0
N757 N 0.26124 0.7362 0.67617 0.0
C758 C 0.25747 0.74271 0.56601 0.0
C759 C 0.24461 0.7276 0.5212 0.0
C760 C 0.98911 0.48994 0.47066 0.0
C761 C 0.98996 0.49643 0.58871 0.0
C762 C 0.0014 0.49538 0.39741 0.0
C763 C 0.01482 0.50724 0.44138 0.0
H764 H 0.97893 0.48051 0.435 0.0
H765 H 1.00031 0.49097 0.30661 0.0
S766 S 0.02287 0.52562 0.74381 0.0
N767 N 0.00534 0.51334 0.74604 0.0
N768 N 0.0285 0.52398 0.60932 0.0
C769 C 0.01589 0.51272 0.55953 0.0
C770 C 0.00345 0.50711 0.63329 0.0
C771 C 0.26444 0.52739 0.73878 0.0
C772 C 0.26727 0.49656 0.72441 0.0
C773 C 0.24997 0.53763 0.76872 0.0
C774 C 0.23806 0.51724 0.78584 0.0
H775 H 0.27347 0.54354 0.72765 0.0
H776 H 0.24808 0.56154 0.77854 0.0
S777 S 0.23982 0.43444 0.74884 0.0
N778 N 0.25719 0.44607 0.72352 0.0
N779 N 0.23003 0.4649 0.78051 0.0
C780 C 0.2409 0.48633 0.77164 0.0
C781 C 0.25553 0.47609 0.74051 0.0
C782 C 0.75996 0.25394 0.57416 0.0
C783 C 0.76967 0.26921 0.49857 0.0
C784 C 0.74615 0.2425 0.53725 0.0
C785 C 0.74131 0.24608 0.42348 0.0
H786 H 0.76321 0.24996 0.66236 0.0
H787 H 0.73925 0.23029 0.59834 0.0
S788 S 0.76183 0.28542 0.19138 0.0
N789 N 0.77306 0.28828 0.30385 0.0
N790 N 0.74677 0.2669 0.23593 0.0
C791 C 0.75043 0.26241 0.34762 0.0
C792 C 0.76469 0.27396 0.38482 0.0
C793 C 0.75167 0.52456 0.31598 0.0
C794 C 0.73731 0.51197 0.30009 0.0
C795 C 0.76356 0.51809 0.24057 0.0
C796 C 0.76153 0.49893 0.14569 0.0
H797 H 0.75376 0.53946 0.38738 0.0
H798 H 0.77454 0.52762 0.25896 0.0
S799 S 0.72589 0.46175 0.06036 0.0
N800 N 0.72159 0.48013 0.17856 0.0
N801 N 0.74392 0.46861 0.03697 0.0
C802 C 0.74717 0.48669 0.12734 0.0
C803 C 0.73509 0.49293 0.20461 0.0
C804 C 0.48735 0.01162 0.48485 0.0
C805 C 0.48958 0.98608 0.55458 0.0
C806 C 0.4979 0.02012 0.40096 0.0
C807 C 0.51121 0.00344 0.38246 0.0
H808 H 0.47732 0.02522 0.49472 0.0
H809 H 0.49575 0.04043 0.35227 0.0
S810 S 0.52223 0.93367 0.53819 0.0
N811 N 0.50601 0.9436 0.59659 0.0
N812 N 0.52569 0.95917 0.4389 0.0
C813 C 0.5134 0.97731 0.4495 0.0
C814 C 0.5027 0.96884 0.53566 0.0
C815 C 0.504 0.26109 0.63881 0.0
C816 C 0.48963 0.24787 0.6485 0.0
C817 C 0.51535 0.25544 0.71982 0.0
C818 C 0.51283 0.23636 0.81449 0.0
H819 H 0.50648 0.27625 0.56856 0.0
H820 H 0.52628 0.26578 0.70661 0.0
S821 S 0.4771 0.19656 0.8823 0.0
N822 N 0.47349 0.21489 0.76237 0.0
N823 N 0.49477 0.20459 0.91423 0.0
C824 C 0.49851 0.22303 0.82563 0.0
C825 C 0.48696 0.22861 0.74279 0.0
C826 C 0.49075 0.73399 0.18196 0.0
C827 C 0.48898 0.76448 0.15139 0.0
C828 C 0.50473 0.72274 0.21956 0.0
C829 C 0.51732 0.74167 0.22936 0.0
H830 H 0.48119 0.71886 0.1796 0.0
H831 H 0.50566 0.69921 0.24247 0.0
S832 S 0.5192 0.82208 0.14856 0.0
N833 N 0.50142 0.81268 0.12579 0.0
N834 N 0.5276 0.79144 0.19713 0.0
C835 C 0.51584 0.77187 0.19669 0.0
C836 C 0.50169 0.78331 0.1577 0.0
C837 C 0.50604 0.50665 0.93318 0.0
C838 C 0.51798 0.51863 -0.00252 0.0
C839 C 0.49338 0.49421 -0.01196 0.0
C840 C 0.49246 0.49283 0.10838 0.0
H841 H 0.50655 0.50672 0.84047 0.0
H842 H 0.48438 0.48498 0.93617 0.0
S843 S 0.52092 0.51927 0.31466 0.0
N844 N 0.52814 0.52761 0.18804 0.0
N845 N 0.50443 0.50345 0.28947 0.0
C846 C 0.50424 0.50452 0.17326 0.0
C847 C 0.517 0.51764 0.11806 0.0
C848 C 0.391 0.25693 0.22062 0.0
C849 C 0.39362 0.25441 0.33952 0.0
C850 C 0.37633 0.25711 0.1756 0.0
C851 C 0.36372 0.25527 0.24778 0.0
H852 H 0.40041 0.25729 0.16117 0.0
H853 H 0.37487 0.25736 0.08348 0.0
S854 S 0.36437 0.24897 0.56516 0.0
N855 N 0.38234 0.25104 0.52847 0.0
N856 N 0.35478 0.25141 0.44427 0.0
C857 C 0.36614 0.25442 0.36713 0.0
C858 C 0.3811 0.2541 0.41301 0.0
C859 C 0.86134 0.01233 0.21269 0.0
C860 C 0.85673 -0.00366 0.31088 0.0
C861 C 0.87646 0.01351 0.18076 0.0
C862 C 0.88753 -0.00165 0.24432 0.0
H863 H 0.85338 0.02561 0.16346 0.0
H864 H 0.87962 0.0278 0.10932 0.0
S865 S 0.88109 0.94805 0.49317 0.0
N866 N 0.86413 0.96104 0.46049 0.0
N867 N 0.89281 0.96334 0.39965 0.0
C868 C 0.88299 0.97975 0.33546 0.0
C869 C 0.8675 0.97875 0.36902 0.0
C870 C 0.38389 0.9914 0.8663 0.0
C871 C 0.38867 0.01459 0.79209 0.0
C872 C 0.37004 0.99333 0.92616 0.0
C873 C 0.36062 0.0188 0.91592 0.0
H874 H 0.39116 0.97225 0.88205 0.0
H875 H 0.36688 0.9751 0.98288 0.0
S876 S 0.36732 0.08411 0.72167 0.0
N877 N 0.38212 0.06221 0.70285 0.0
N878 N 0.35673 0.06659 0.81673 0.0
C879 C 0.36509 0.0415 0.83793 0.0
C880 C 0.3789 0.03916 0.77569 0.0
C881 C 0.86331 0.21212 0.95955 0.0
C882 C 0.85778 0.23687 0.89744 0.0
C883 C 0.87854 0.21003 -0.01121 0.0
C884 C 0.88876 0.23286 0.95866 0.0
H885 H 0.85593 0.1936 0.98175 0.0
H886 H 0.8824 0.18991 0.03233 0.0
S887 S 0.87917 0.30481 0.81371 0.0
N888 N 0.86307 0.28623 0.81863 0.0
N889 N 0.89184 0.28274 0.87494 0.0
C890 C 0.88313 0.25878 0.90364 0.0
C891 C 0.86759 0.26064 0.87235 0.0
C892 C 0.61207 0.73579 0.7207 0.0
C893 C 0.60938 0.73298 0.60189 0.0
C894 C 0.62667 0.73411 0.76641 0.0
C895 C 0.63926 0.72901 0.69605 0.0
H896 H 0.60288 0.7406 0.77918 0.0
H897 H 0.62818 0.73812 0.85719 0.0
S898 S 0.63841 0.71788 0.38085 0.0
N899 N 0.62054 0.72316 0.41586 0.0
N900 N 0.64799 0.7195 0.50201 0.0
C901 C 0.63668 0.72427 0.57821 0.0
C902 C 0.62176 0.72634 0.53115 0.0
C903 C 0.11991 0.98698 0.57073 0.0
C904 C 0.11496 0.00078 0.67199 0.0
C905 C 0.13438 0.99237 0.52808 0.0
C906 C 0.14438 0.0111 0.58723 0.0
H907 H 0.11272 0.97112 0.52648 0.0
H908 H 0.13816 0.97997 0.45354 0.0
S909 S 0.13612 0.05446 0.85071 0.0
N910 N 0.12033 0.03605 0.82418 0.0
N911 N 0.14808 0.04492 0.7481 0.0
C912 C 0.13929 0.02611 0.68583 0.0
C913 C 0.12437 0.02127 0.72723 0.0
C914 C 0.63944 0.971 0.19738 0.0
C915 C 0.6445 0.99217 0.11612 0.0
C916 C 0.62476 0.9718 0.24043 0.0
C917 C 0.61438 0.99372 0.2043 0.0
H918 H 0.64664 0.95267 0.22505 0.0
H919 H 0.62121 0.95379 0.29699 0.0
S920 S 0.62276 0.05854 0.01461 0.0
N921 N 0.63866 0.03905 0.01715 0.0
N922 N 0.61075 0.0401 0.09726 0.0
C923 C 0.61961 0.01693 0.13262 0.0
C924 C 0.63473 0.0162 0.08845 0.0
C925 C 0.121 0.73529 0.00425 0.0
C926 C 0.11006 0.73777 0.09114 0.0
C927 C 0.13647 0.73447 0.03039 0.0
C928 C 0.14158 0.73551 0.14456 0.0
H929 H 0.11765 0.73509 0.91505 0.0
H930 H 0.1445 0.73352 0.96041 0.0
S931 S 0.11754 0.74013 0.40444 0.0
N932 N 0.10546 0.73987 0.29691 0.0
N933 N 0.13444 0.73795 0.34535 0.0
C934 C 0.13075 0.7367 0.23246 0.0
C935 C 0.11502 0.73795 0.20597 0.0
C936 C 0.36746 0.76515 0.80604 0.0
C937 C 0.35875 0.73973 0.83549 0.0
C938 C 0.38252 0.76803 0.84265 0.0
C939 C 0.38929 0.74577 0.91093 0.0
H940 H 0.3627 0.78276 0.75291 0.0
H941 H 0.38904 0.78725 0.81441 0.0
S942 S 0.37175 0.6753 0.01354 0.0
N943 N 0.35829 0.69218 0.93969 0.0
N944 N 0.38648 0.6979 0.00712 0.0
C945 C 0.38072 0.72077 0.94322 0.0
C946 C 0.36546 0.7177 0.90623 0.0
C947 C 0.87561 0.48295 0.69412 0.0
C948 C 0.88773 0.4875 0.76898 0.0
C949 C 0.86085 0.48024 0.73637 0.0
C950 C 0.85776 0.48252 0.85466 0.0
H951 H 0.87745 0.48302 0.60235 0.0
H952 H 0.8517 0.47823 0.67541 0.0
S953 S 0.8858 0.49402 0.08524 0.0
N954 N 0.89586 0.49315 0.96622 0.0
N955 N 0.86816 0.48841 0.04556 0.0
C956 C 0.86993 0.48529 0.93054 0.0
C957 C 0.88493 0.48786 0.88751 0.0
C958 C 0.36157 0.47959 0.23891 0.0
C959 C 0.3584 0.48254 0.35695 0.0
C960 C 0.37643 0.48107 0.19735 0.0
C961 C 0.38857 0.48521 0.27255 0.0
H962 H 0.35245 0.47752 0.17762 0.0
H963 H 0.37837 0.48024 0.10576 0.0
S964 S 0.38605 0.49749 0.58634 0.0
N965 N 0.36851 0.49114 0.54661 0.0
N966 N 0.39627 0.49447 0.46865 0.0
C967 C 0.38552 0.48776 0.39041 0.0
C968 C 0.37046 0.48613 0.43273 0.0
C969 C 0.86744 0.74881 0.3518 0.0
C970 C 0.85902 0.72228 0.33686 0.0
C971 C 0.88284 0.74765 0.3822 0.0
C972 C 0.89031 0.71994 0.39778 0.0
H973 H 0.86204 0.77052 0.34203 0.0
H974 H 0.88898 0.76852 0.39139 0.0
S975 S 0.87334 0.64413 0.36664 0.0
N976 N 0.85947 0.66763 0.33721 0.0
N977 N 0.88799 0.66549 0.39656 0.0
C978 C 0.88196 0.69339 0.38279 0.0
C979 C 0.86645 0.69456 0.35161 0.0
C980 C 0.64001 0.21515 0.10824 0.0
C981 C 0.63964 0.22148 0.22674 0.0
C982 C 0.62698 0.21746 0.04017 0.0
C983 C 0.61301 0.22502 0.08891 0.0
H984 H 0.65065 0.21076 0.06582 0.0
H985 H 0.62797 0.2147 0.9483 0.0
S986 S 0.60563 0.24095 0.3961 0.0
N987 N 0.62392 0.23386 0.39028 0.0
N988 N 0.5994 0.23699 0.26382 0.0
C989 C 0.61229 0.22926 0.20833 0.0
C990 C 0.62559 0.22763 0.27701 0.0
C991 C 0.12591 0.50433 0.24144 0.0
C992 C 0.11397 0.49495 0.17227 0.0
C993 C 0.14038 0.50768 0.19515 0.0
C994 C 0.14324 0.50189 0.07845 0.0
H995 H 0.12428 0.50722 0.33273 0.0
H996 H 0.14954 0.51318 0.25257 0.0
S997 S 0.11514 0.47963 0.86029 0.0
N998 N 0.10543 0.48192 0.98089 0.0
N999 N 0.13265 0.489 0.89316 0.0
C1000 C 0.13109 0.49486 0.00674 0.0
C1001 C 0.11641 0.49105 0.05419 0.0
C1002 C 0.6346 0.50741 0.63253 0.0
C1003 C 0.64258 0.48125 0.6017 0.0
C1004 C 0.6195 0.50599 0.67075 0.0
C1005 C 0.6117 0.4784 0.67709 0.0
H1006 H 0.64012 0.52906 0.62816 0.0
H1007 H 0.61382 0.52672 0.69317 0.0
S1008 S 0.62749 0.40371 0.60006 0.0
N1009 N 0.64155 0.42732 0.57809 0.0
N1010 N 0.61329 0.42443 0.64598 0.0
C1011 C 0.61962 0.45221 0.64511 0.0
C1012 C 0.63501 0.45369 0.6086 0.0
C1013 C 0.12952 0.23958 0.66212 0.0
C1014 C 0.14216 0.24615 0.59428 0.0
C1015 C 0.11526 0.23588 0.61192 0.0
C1016 C 0.11326 0.23862 0.49245 0.0
H1017 H 0.13051 0.23887 0.75457 0.0
H1018 H 0.10563 0.23283 0.66787 0.0
S1019 S 0.14343 0.24939 0.27689 0.0
N1020 N 0.15226 0.25082 0.40134 0.0
N1021 N 0.12542 0.24398 0.30734 0.0
C1022 C 0.12603 0.24285 0.42355 0.0
C1023 C 0.1405 0.24664 0.47447 0.0
C1024 C 0.30984 0.22723 0.64402 0.0
C1025 C 0.31544 0.24707 0.56119 0.0
C1026 C 0.3119 0.2333 0.76015 0.0
C1027 C 0.31972 0.25918 0.79477 0.0
H1028 H 0.30375 0.2072 0.61889 0.0
H1029 H 0.30657 0.21873 0.82275 0.0
S1030 S 0.33835 0.31536 0.60848 0.0
N1031 N 0.3304 0.29143 0.51919 0.0
N1032 N 0.33424 0.303 0.7383 0.0
C1033 C 0.32611 0.27808 0.7121 0.0
C1034 C 0.32395 0.27199 0.59461 0.0
C1035 C 0.94919 0.01271 0.65244 0.0
C1036 C 0.94219 0.99114 0.58376 0.0
C1037 C 0.94835 0.01059 0.77115 0.0
C1038 C 0.94045 0.98695 0.82289 0.0
H1039 H 0.95473 0.03198 0.61419 0.0
H1040 H 0.95389 0.02747 0.82279 0.0
S1041 S 0.9208 0.92429 0.67914 0.0
N1042 N 0.92737 0.94537 0.57356 0.0
N1043 N 0.92622 0.94077 0.79898 0.0
C1044 C 0.93376 0.96478 0.75533 0.0
C1045 C 0.93452 0.96706 0.63448 0.0
C1046 C 0.30472 0.96703 0.53897 0.0
C1047 C 0.31515 0.97962 0.46097 0.0
C1048 C 0.30323 0.97822 0.64942 0.0
C1049 C 0.31212 0.00227 0.68527 0.0
H1050 H 0.29714 0.94919 0.51348 0.0
H1051 H 0.29482 0.96851 0.70593 0.0
S1052 S 0.34316 0.03901 0.52252 0.0
N1053 N 0.33595 0.01439 0.43267 0.0
N1054 N 0.3332 0.03568 0.64136 0.0
C1055 C 0.32332 0.01373 0.61118 0.0
C1056 C 0.32489 0.00218 0.49879 0.0
C1057 C 0.9442 0.25306 0.41271 0.0
C1058 C 0.93181 0.27031 0.37477 0.0
C1059 C 0.94681 0.2485 0.5291 0.0
C1060 C 0.93699 0.26078 0.61013 0.0
H1061 H 0.95205 0.24321 0.35211 0.0
H1062 H 0.95607 0.23413 0.55552 0.0
S1063 S 0.90351 0.3087 0.55624 0.0
N1064 N 0.91029 0.30131 0.42746 0.0
N1065 N 0.91467 0.291 0.64757 0.0
C1066 C 0.92472 0.27838 0.57396 0.0
C1067 C 0.92229 0.28371 0.45563 0.0
C1068 C 0.68003 0.71565 0.21771 0.0
C1069 C 0.69008 0.73024 0.14453 0.0
C1070 C 0.68001 0.72233 0.33378 0.0
C1071 C 0.69024 0.74307 0.37953 0.0
H1072 H 0.67244 0.69857 0.18558 0.0
H1073 H 0.67219 0.7106 0.38853 0.0
S1074 S 0.71884 0.78703 0.2205 0.0
N1075 N 0.71049 0.76626 0.12212 0.0
N1076 N 0.7105 0.77864 0.34331 0.0
C1077 C 0.70034 0.75794 0.3069 0.0
C1078 C 0.70023 0.75148 0.18803 0.0
C1079 C 0.06527 0.98492 0.19095 0.0
C1080 C 0.06616 0.01467 0.1531 0.0
C1081 C 0.06257 0.97865 0.30588 0.0
C1082 C 0.06084 0.00193 0.38607 0.0
H1083 H 0.06593 0.96646 0.13076 0.0
H1084 H 0.06219 0.95535 0.33302 0.0
S1085 S 0.06406 0.08339 0.32964 0.0
N1086 N 0.06599 0.0676 0.20262 0.0
N1087 N 0.06147 0.05561 0.42169 0.0
C1088 C 0.06202 0.03177 0.34949 0.0
C1089 C 0.06465 0.03818 0.232 0.0
C1090 C 0.68924 0.03398 0.45815 0.0
C1091 C 0.6907 0.01269 0.54614 0.0
C1092 C 0.69363 0.02703 0.34636 0.0
C1093 C 0.70004 -0.0011 0.32068 0.0
H1094 H 0.68497 0.05629 0.4765 0.0
H1095 H 0.69165 0.04352 0.27958 0.0
S1096 S 0.70888 0.93803 0.52989 0.0
N1097 N 0.70025 0.96412 0.60574 0.0
N1098 N 0.70949 0.95127 0.39775 0.0
C1099 C 0.70247 0.97825 0.411 0.0
C1100 C 0.69743 0.985 0.52309 0.0
C1101 C 0.06132 0.70627 0.36124 0.0
C1102 C 0.05609 0.73253 0.30798 0.0
C1103 C 0.06828 0.70735 0.46896 0.0
C1104 C 0.07048 0.73483 0.52735 0.0
H1105 H 0.06002 0.68475 0.31928 0.0
H1106 H 0.07168 0.68625 0.50761 0.0
S1107 S 0.06054 0.81041 0.41984 0.0
N1108 N 0.0545 0.78728 0.31962 0.0
N1109 N 0.06794 0.78885 0.5204 0.0
C1110 C 0.0657 0.76126 0.47401 0.0
C1111 C 0.05841 0.76024 0.36502 0.0
C1112 C 0.31723 0.78042 0.06042 0.0
C1113 C 0.30869 0.75463 0.03799 0.0
C1114 C 0.32413 0.78477 0.16579 0.0
C1115 C 0.32262 0.76349 0.25418 0.0
H1116 H 0.31851 0.79766 -0.00351 0.0
H1117 H 0.32961 0.80615 0.1808 0.0
S1118 S 0.3068 0.68685 0.22496 0.0
N1119 N 0.30284 0.70362 0.10214 0.0
N1120 N 0.31587 0.71203 0.30213 0.0
C1121 C 0.31614 0.73558 0.22779 0.0
C1122 C 0.30898 0.73118 0.1198 0.0
C1123 C 0.95334 0.49451 0.26587 0.0
C1124 C 0.94287 0.47613 0.3229 0.0
C1125 C 0.95232 0.49921 0.14774 0.0
C1126 C 0.94069 0.48584 0.08473 0.0
H1127 H 0.96204 0.50611 0.3133 0.0
H1128 H 0.96014 0.51452 0.10666 0.0
S1129 S 0.91173 0.43291 0.19232 0.0
N1130 N 0.92153 0.44224 0.30725 0.0
N1131 N 0.9194 0.45153 0.08436 0.0
C1132 C 0.9306 0.46634 0.1399 0.0
C1133 C 0.93174 0.46134 0.25979 0.0
C1134 C 0.31406 0.45667 0.00073 0.0
C1135 C 0.31921 0.48289 0.9438 0.0
C1136 C 0.30688 0.45805 0.1079 0.0
C1137 C 0.30429 0.4857 0.16163 0.0
H1138 H 0.31541 0.43478 0.96178 0.0
H1139 H 0.30345 0.43736 0.14942 0.0
S1140 S 0.31675 0.56046 0.05315 0.0
N1141 N 0.32213 0.53674 0.95274 0.0
N1142 N 0.30816 0.53992 0.15137 0.0
C1143 C 0.3094 0.51205 0.1054 0.0
C1144 C 0.31697 0.51048 -0.00253 0.0
C1145 C 0.94618 0.74739 0.92204 0.0
C1146 C 0.93185 0.75999 0.90263 0.0
C1147 C 0.95207 0.74486 0.03149 0.0
C1148 C 0.94381 0.75489 0.1258 0.0
H1149 H 0.95293 0.73927 0.85169 0.0
H1150 H 0.96268 0.73308 0.04325 0.0
S1151 S 0.90665 0.79355 0.12128 0.0
N1152 N 0.9102 0.78576 0.98547 0.0
N1153 N 0.92129 0.78079 0.19435 0.0
C1154 C 0.92996 0.76976 0.10791 0.0
C1155 C 0.9239 0.77222 -0.00452 0.0
C1156 C 0.67619 0.20959 0.76211 0.0
C1157 C 0.68312 0.22823 0.68084 0.0
C1158 C 0.67679 0.21674 0.87785 0.0
C1159 C 0.68481 0.24199 0.91503 0.0
H1160 H 0.67079 0.18885 0.73643 0.0
H1161 H 0.67142 0.20187 0.93902 0.0
S1162 S 0.70362 0.29934 0.73579 0.0
N1163 N 0.69711 0.27437 0.64394 0.0
N1164 N 0.69858 0.28715 0.86408 0.0
C1165 C 0.69118 0.26157 0.83506 0.0
C1166 C 0.69024 0.2548 0.71673 0.0
C1167 C 0.05564 0.47979 0.81617 0.0
C1168 C 0.06282 0.49544 0.904 0.0
C1169 C 0.05837 0.48749 0.70268 0.0
C1170 C 0.06854 0.51056 0.67508 0.0
H1171 H 0.04798 0.4615 0.8354 0.0
H1172 H 0.05195 0.47633 0.63639 0.0
S1173 S 0.09151 0.55543 0.87508 0.0
N1174 N 0.08156 0.5327 0.95784 0.0
N1175 N 0.08632 0.54793 0.74229 0.0
C1176 C 0.07608 0.52582 0.76201 0.0
C1177 C 0.07335 0.51793 0.87754 0.0
C1178 C 0.69227 0.54423 0.96177 0.0
C1179 C 0.68745 0.52081 0.03459 0.0
C1180 C 0.69688 0.53847 0.84998 0.0
C1181 C 0.69691 0.50912 0.80836 0.0
H1182 H 0.69332 0.56698 -0.00636 0.0
H1183 H 0.70079 0.55689 0.79687 0.0
S1184 S 0.6821 0.44117 0.95538 0.0
N1185 N 0.68068 0.46814 0.05161 0.0
N1186 N 0.68934 0.45709 0.83971 0.0
C1187 C 0.69088 0.48587 0.87652 0.0
C1188 C 0.68603 0.49183 -0.00979 0.0
C1189 C 0.07828 0.2291 0.87918 0.0
C1190 C 0.06727 0.24861 0.83448 0.0
C1191 C 0.07829 0.22166 -0.00474 0.0
C1192 C 0.06773 0.23475 0.0692 0.0
H1193 H 0.08646 0.21852 0.82314 0.0
H1194 H 0.0863 0.20518 0.02682 0.0
S1195 S 0.03733 0.28855 -0.00577 0.0
N1196 N 0.04595 0.28152 0.87154 0.0
N1197 N 0.04635 0.26857 0.09211 0.0
C1198 C 0.05711 0.25529 0.02622 0.0
C1199 C 0.05679 0.26205 0.90767 0.0
C1200 C 0.79971 0.24547 0.17486 0.0
C1201 C 0.80601 0.26307 0.0863 0.0
C1202 C 0.80689 0.24232 0.2814 0.0
C1203 C 0.82072 0.25667 0.30479 0.0
H1204 H 0.78931 0.23326 0.16104 0.0
H1205 H 0.80136 0.22885 0.34641 0.0
S1206 S 0.84188 0.30614 0.10391 0.0
N1207 N 0.82672 0.29612 0.03181 0.0
N1208 N 0.8404 0.28939 0.22966 0.0
C1209 C 0.82708 0.27461 0.2174 0.0
C1210 C 0.81964 0.27822 0.1096 0.0
C1211 C 0.42661 0.97197 0.26972 0.0
C1212 C 0.4403 0.96398 0.32086 0.0
C1213 C 0.42608 0.97952 0.1539 0.0
C1214 C 0.43927 0.97979 0.08598 0.0
H1215 H 0.41636 0.97323 0.32022 0.0
H1216 H 0.41531 0.98634 0.11832 0.0
S1217 S 0.47783 0.95913 0.17996 0.0
N1218 N 0.46723 0.9549 0.29535 0.0
N1219 N 0.46623 0.96998 0.077 0.0
C1220 C 0.4529 0.97027 0.13472 0.0
C1221 C 0.45342 0.96218 0.25271 0.0
C1222 C 0.82431 0.97808 -0.00273 0.0
C1223 C 0.81838 -0.00263 0.91348 0.0
C1224 C 0.81771 0.97616 0.10553 0.0
C1225 C 0.80504 0.99374 0.13534 0.0
H1226 H 0.83288 0.96172 0.97449 0.0
H1227 H 0.8226 0.96046 0.16543 0.0
S1228 S 0.78969 0.05654 0.95974 0.0
N1229 N 0.80235 0.04041 0.87604 0.0
N1230 N 0.78982 0.03727 0.08075 0.0
C1231 C 0.80064 0.01649 0.05756 0.0
C1232 C 0.80754 0.01851 0.94715 0.0
C1233 C 0.44296 0.23902 0.95578 0.0
C1234 C 0.44566 0.2677 0.9101 0.0
C1235 C 0.44653 0.23239 0.06951 0.0
C1236 C 0.45271 0.2543 0.14217 0.0
H1237 H 0.43853 0.22122 0.90255 0.0
H1238 H 0.4441 0.21004 0.10148 0.0
S1239 S 0.46161 0.33295 0.06753 0.0
N1240 N 0.45476 0.3185 0.94827 0.0
N1241 N 0.4611 0.30567 0.16351 0.0
C1242 C 0.45519 0.28316 0.09936 0.0
C1243 C 0.45175 0.28996 0.98294 0.0
C1244 C 0.18542 0.71722 0.8947 0.0
C1245 C 0.19849 0.73215 0.93299 0.0
C1246 C 0.18002 0.7213 0.78373 0.0
C1247 C 0.18777 0.73953 0.70548 0.0
H1248 H 0.17937 0.70184 0.95011 0.0
H1249 H 0.17076 0.70732 0.75499 0.0
S1250 S 0.22156 0.78589 0.76313 0.0
N1251 N 0.21823 0.76826 0.88517 0.0
N1252 N 0.20815 0.77492 0.6745 0.0
C1253 C 0.2001 0.75637 0.74415 0.0
C1254 C 0.20564 0.75243 0.85757 0.0
C1255 C 0.54644 0.01231 0.6986 0.0
C1256 C 0.55916 0.02543 0.64671 0.0
C1257 C 0.54706 0.00248 0.81201 0.0
C1258 C 0.5604 0.00579 0.87469 0.0
H1259 H 0.53619 0.00867 0.64987 0.0
H1260 H 0.53737 0.99126 0.84915 0.0
S1261 S 0.59601 0.04154 0.78023 0.0
N1262 N 0.58479 0.04365 0.66749 0.0
N1263 N 0.58618 0.02432 0.88115 0.0
C1264 C 0.57295 0.01986 0.8249 0.0
C1265 C 0.57227 0.03002 0.71013 0.0
C1266 C 0.20059 0.9843 0.88903 0.0
C1267 C 0.20522 0.00713 0.8132 0.0
C1268 C 0.19721 0.99074 0.00313 0.0
C1269 C 0.19851 0.02013 0.04427 0.0
H1270 H 0.19903 0.9615 0.85907 0.0
H1271 H 0.19396 0.97255 0.05979 0.0
S1272 S 0.2113 0.08713 0.88011 0.0
N1273 N 0.21162 0.0595 0.78637 0.0
N1274 N 0.20519 0.07218 0.00093 0.0
C1275 C 0.20331 0.04308 0.96881 0.0
C1276 C 0.20676 0.0364 0.85322 0.0
C1277 C 0.5601 0.76309 0.84161 0.0
C1278 C 0.55347 0.73786 0.78857 0.0
C1279 C 0.56701 0.76086 0.9495 0.0
C1280 C 0.56773 0.73322 0.00705 0.0
H1281 H 0.56051 0.7845 0.79734 0.0
H1282 H 0.5721 0.78065 -0.01324 0.0
S1283 S 0.54955 0.66205 0.91222 0.0
N1284 N 0.54633 0.68582 0.80648 0.0
N1285 N 0.55954 0.68077 0.00733 0.0
C1286 C 0.56052 0.70814 0.95625 0.0
C1287 C 0.55334 0.71068 0.84747 0.0
C1288 C 0.81847 0.75003 0.67905 0.0
C1289 C 0.80549 0.75604 0.61403 0.0
C1290 C 0.81967 0.76005 0.79153 0.0
C1291 C 0.80789 0.77629 0.84257 0.0
H1292 H 0.82745 0.7362 0.64434 0.0
H1293 H 0.82953 0.75359 0.84076 0.0
S1294 S 0.77245 0.80141 0.7004 0.0
N1295 N 0.78143 0.78181 0.60142 0.0
N1296 N 0.78351 0.8011 0.81433 0.0
C1297 C 0.79539 0.78478 0.77447 0.0
C1298 C 0.7942 0.77441 0.65946 0.0
C1299 C 0.45107 0.49206 0.7831 0.0
C1300 C 0.44013 0.47359 0.83402 0.0
C1301 C 0.45042 0.4986 0.66654 0.0
C1302 C 0.43871 0.48699 0.59997 0.0
H1303 H 0.46025 0.50114 0.83349 0.0
H1304 H 0.4589 0.51311 0.62883 0.0
S1305 S 0.40832 0.43519 0.69269 0.0
N1306 N 0.41805 0.44212 0.81032 0.0
N1307 N 0.41653 0.45494 0.59007 0.0
C1308 C 0.42777 0.46834 0.6501 0.0
C1309 C 0.42859 0.46137 0.76812 0.0
C1310 C 0.80906 0.51119 0.48522 0.0
C1311 C 0.81016 0.48236 0.43858 0.0
C1312 C 0.80401 0.51509 0.59781 0.0
C1313 C 0.7999 0.49026 0.66653 0.0
H1314 H 0.81115 0.53082 0.43248 0.0
H1315 H 0.80343 0.53774 0.63133 0.0
S1316 S 0.80148 0.4102 0.5845 0.0
N1317 N 0.80747 0.42856 0.47008 0.0
N1318 N 0.79784 0.43611 0.68155 0.0
C1319 C 0.8015 0.46136 0.62194 0.0
C1320 C 0.80676 0.45736 0.50827 0.0
C1321 C 0.45181 0.7824 0.61473 0.0
C1322 C 0.44711 0.75551 0.66392 0.0
C1323 C 0.44686 0.79028 0.50602 0.0
C1324 C 0.43686 0.77165 0.44421 0.0
H1325 H 0.45918 0.79751 0.66096 0.0
H1326 H 0.45118 0.81096 0.46961 0.0
S1327 S 0.41984 0.70066 0.54521 0.0
N1328 N 0.43124 0.71104 0.64968 0.0
N1329 N 0.42167 0.72637 0.44382 0.0
C1330 C 0.43187 0.74491 0.49389 0.0
C1331 C 0.43707 0.7367 0.60447 0.0
C1332 C 0.1833 0.24505 0.18451 0.0
C1333 C 0.19023 0.21794 0.15312 0.0
C1334 C 0.18568 0.25747 0.29197 0.0
C1335 C 0.19476 0.24296 0.37369 0.0
H1336 H 0.17638 0.25751 0.12441 0.0
H1337 H 0.18009 0.2785 0.31176 0.0
S1338 S 0.21466 0.17044 0.34024 0.0
N1339 N 0.20622 0.17608 0.21582 0.0
N1340 N 0.21014 0.19955 0.42071 0.0
C1341 C 0.20134 0.21531 0.34649 0.0
C1342 C 0.19917 0.20272 0.23558 0.0
C1343 C 0.56801 0.52515 0.40694 0.0
C1344 C 0.55864 0.49998 0.42242 0.0
C1345 C 0.57394 0.53222 0.29954 0.0
C1346 C 0.57095 0.51406 0.20401 0.0
H1347 H 0.57134 0.53883 0.47899 0.0
H1348 H 0.58079 0.55225 0.29121 0.0
S1349 S 0.54703 0.44532 0.19974 0.0
N1350 N 0.54634 0.45718 0.33325 0.0
N1351 N 0.55812 0.46927 0.13267 0.0
C1352 C 0.56179 0.48841 0.21893 0.0
C1353 C 0.55539 0.48182 0.32744 0.0
C1354 C 0.18305 0.52504 0.31116 0.0
C1355 C 0.19788 0.51556 0.28567 0.0
C1356 C 0.17746 0.52391 0.42224 0.0
C1357 C 0.18656 0.5138 0.51219 0.0
H1358 H 0.17547 0.53274 0.24459 0.0
H1359 H 0.16607 0.53181 0.43851 0.0
S1360 S 0.22706 0.49249 0.49401 0.0
N1361 N 0.22208 0.49929 0.36027 0.0
N1362 N 0.21171 0.49793 0.5719 0.0
C1363 C 0.20164 0.50563 0.48919 0.0
C1364 C 0.20731 0.50658 0.37532 0.0
C1365 C 0.55754 0.20588 0.36843 0.0
C1366 C 0.55729 0.23618 0.3355 0.0
C1367 C 0.55912 0.19794 0.48384 0.0
C1368 C 0.56048 0.22018 0.56855 0.0
H1369 H 0.55737 0.18832 0.30436 0.0
H1370 H 0.55955 0.17435 0.50678 0.0
S1371 S 0.55661 0.30237 0.52614 0.0
N1372 N 0.55606 0.28821 0.39563 0.0
N1373 N 0.55868 0.2734 0.61333 0.0
C1374 C 0.55903 0.25046 0.53675 0.0
C1375 C 0.55745 0.25845 0.41975 0.0
C1376 C 0.32234 0.39037 0.41507 0.0
C1377 C 0.31299 0.38392 0.50904 0.0
C1378 C 0.32326 0.37057 0.32315 0.0
C1379 C 0.31479 0.34398 0.32273 0.0
H1380 H 0.32842 0.41143 0.41011 0.0
H1381 H 0.32962 0.37727 0.24793 0.0
S1382 S 0.28982 0.31546 0.55262 0.0
N1383 N 0.29628 0.34773 0.60145 0.0
N1384 N 0.29771 0.31102 0.42566 0.0
C1385 C 0.30637 0.33614 0.41964 0.0
C1386 C 0.3055 0.35611 0.51384 0.0
C1387 C 0.92615 0.86043 0.38495 0.0
C1388 C 0.93634 0.83644 0.37121 0.0
C1389 C 0.92718 0.88591 0.31523 0.0
C1390 C 0.9381 0.88722 0.22826 0.0
H1391 H 0.91906 0.86155 0.46059 0.0
H1392 H 0.9208 0.90573 0.33903 0.0
S1393 S 0.96276 0.82513 0.1295 0.0
N1394 N 0.95497 0.8126 0.249 0.0
N1395 N 0.95524 0.85854 0.10677 0.0
C1396 C 0.94572 0.86059 0.1979 0.0
C1397 C 0.94533 0.83549 0.27291 0.0
C1398 C 0.31017 0.86169 0.96994 0.0
C1399 C 0.32066 0.88525 0.98145 0.0
C1400 C 0.31029 0.8433 0.87409 0.0
C1401 C 0.32126 0.84699 0.78957 0.0
H1402 H 0.30077 0.8593 0.02872 0.0
H1403 H 0.30098 0.82786 0.86162 0.0
S1404 S 0.35379 0.89905 0.79557 0.0
N1405 N 0.34401 0.90742 0.91196 0.0
N1406 N 0.34456 0.87149 0.73197 0.0
C1407 C 0.33296 0.8677 0.80673 0.0
C1408 C 0.33264 0.88712 0.90342 0.0
C1409 C 0.91989 0.38762 0.8402 0.0
C1410 C 0.92886 0.39703 0.74817 0.0
C1411 C 0.92041 0.35757 0.87557 0.0
C1412 C 0.93114 0.338 0.82653 0.0
H1413 H 0.91465 0.40403 0.89597 0.0
H1414 H 0.91528 0.35196 0.95725 0.0
S1415 S 0.95131 0.34982 0.5528 0.0
N1416 N 0.94261 0.38198 0.57798 0.0
N1417 N 0.94669 0.3274 0.66024 0.0
C1418 C 0.93713 0.34553 0.71944 0.0
C1419 C 0.93504 0.37502 0.67588 0.0
C1420 C 0.68012 0.66397 0.54613 0.0
C1421 C 0.67745 0.65453 0.65857 0.0
C1422 C 0.67876 0.64345 0.45666 0.0
C1423 C 0.67516 0.61326 0.48103 0.0
H1424 H 0.68622 0.68458 0.53022 0.0
H1425 H 0.68338 0.64973 0.37399 0.0
S1426 S 0.65836 0.58484 0.75033 0.0
N1427 N 0.66424 0.6191 0.7808 0.0
N1428 N 0.66217 0.57968 0.6132 0.0
C1429 C 0.6682 0.60682 0.58611 0.0
C1430 C 0.66928 0.62802 0.67619 0.0
C1431 C 0.08133 0.11165 0.66138 0.0
C1432 C 0.07086 0.11195 0.75157 0.0
C1433 C 0.08227 0.13642 0.58798 0.0
C1434 C 0.07206 0.16042 0.60075 0.0
H1435 H 0.08698 0.09103 0.63684 0.0
H1436 H 0.08848 0.13384 0.50855 0.0
S1437 S 0.04859 0.1767 0.85537 0.0
N1438 N 0.05585 0.14314 0.87969 0.0
N1439 N 0.05556 0.18743 0.73059 0.0
C1440 C 0.06474 0.16388 0.706 0.0
C1441 C 0.06457 0.13963 0.78465 0.0
C1442 C 0.67422 0.11311 0.05466 0.0
C1443 C 0.68411 0.11612 0.96137 0.0
C1444 C 0.67551 0.13253 0.14768 0.0
C1445 C 0.68652 0.15512 0.14709 0.0
H1446 H 0.66732 0.09319 0.0643 0.0
H1447 H 0.66947 0.12716 0.22589 0.0
S1448 S 0.71039 0.17905 0.90338 0.0
N1449 N 0.7008 0.14994 0.85558 0.0
N1450 N 0.70456 0.18407 0.03629 0.0
C1451 C 0.69398 0.16211 0.04507 0.0
C1452 C 0.69218 0.14323 0.94876 0.0
C1453 C 0.07701 0.63951 0.04541 0.0
C1454 C 0.06776 0.63288 0.95134 0.0
C1455 C 0.07761 0.62012 0.13934 0.0
C1456 C 0.06894 0.59378 0.14109 0.0
H1457 H 0.08316 0.66051 0.04904 0.0
H1458 H 0.08384 0.62697 0.2147 0.0
S1459 S 0.04299 0.56692 0.91741 0.0
N1460 N 0.05023 0.59798 0.86372 0.0
N1461 N 0.05107 0.56197 0.04296 0.0
C1462 C 0.06043 0.58608 0.04502 0.0
C1463 C 0.05988 0.60563 0.94909 0.0
C1464 C 0.82735 0.38397 0.935 0.0
C1465 C 0.81346 0.38219 -0.00696 0.0
C1466 C 0.83043 0.3652 0.84179 0.0
C1467 C 0.81971 0.34423 0.80456 0.0
H1468 H 0.83537 0.40146 0.95592 0.0
H1469 H 0.84077 0.36852 0.79374 0.0
S1470 S 0.78209 0.32941 0.93116 0.0
N1471 N 0.7896 0.35539 0.01368 0.0
N1472 N 0.79496 0.32221 0.83269 0.0
C1473 C 0.80628 0.34076 0.86644 0.0
C1474 C 0.80332 0.35913 0.96313 0.0
C1475 C 0.42701 0.86995 0.75648 0.0
C1476 C 0.42509 0.89816 0.80955 0.0
C1477 C 0.42489 0.84363 0.82028 0.0
C1478 C 0.42065 0.84602 0.93541 0.0
H1479 H 0.43317 0.86833 0.67641 0.0
H1480 H 0.42983 0.82298 0.78847 0.0
S1481 S 0.40432 0.91209 0.07849 0.0
N1482 N 0.41217 0.92552 0.96041 0.0
N1483 N 0.40634 0.87522 0.07261 0.0
C1484 C 0.41321 0.87242 0.96912 0.0
C1485 C 0.41638 0.89948 0.90915 0.0
C1486 C 0.83333 0.84037 0.43705 0.0
C1487 C 0.82518 0.83947 0.33459 0.0
C1488 C 0.83472 0.86754 0.49594 0.0
C1489 C 0.82713 0.89336 0.45604 0.0
H1490 H 0.83637 0.81969 0.48053 0.0
H1491 H 0.83908 0.86688 0.58262 0.0
S1492 S 0.80825 0.90245 0.17567 0.0
N1493 N 0.81418 0.86736 0.17743 0.0
N1494 N 0.81422 0.91724 0.29698 0.0
C1495 C 0.82184 0.89367 0.34307 0.0
C1496 C 0.82164 0.8666 0.27923 0.0
C1497 C 0.41847 0.34838 0.34692 0.0
C1498 C 0.42565 0.3437 0.45226 0.0
C1499 C 0.4203 0.3759 0.29032 0.0
C1500 C 0.4297 0.39805 0.33783 0.0
H1501 H 0.41433 0.32938 0.29849 0.0
H1502 H 0.41717 0.37718 0.20069 0.0
S1503 S 0.445 0.39899 0.63203 0.0
N1504 N 0.43607 0.36662 0.62195 0.0
N1505 N 0.44222 0.41627 0.5084 0.0
C1506 C 0.43324 0.39606 0.45442 0.0
C1507 C 0.43006 0.36906 0.51513 0.0
C1508 C 0.19073 0.58791 0.13164 0.0
C1509 C 0.18115 0.59695 0.04294 0.0
C1510 C 0.19078 0.60282 0.23618 0.0
C1511 C 0.18206 0.62892 0.25254 0.0
H1512 H 0.19955 0.57169 0.1162 0.0
H1513 H 0.19915 0.59592 0.2987 0.0
S1514 S 0.15353 0.65951 0.05204 0.0
N1515 N 0.16116 0.63094 0.98267 0.0
N1516 N 0.16206 0.6608 0.1778 0.0
C1517 C 0.1716 0.63704 0.16782 0.0
C1518 C 0.1711 0.62086 0.06258 0.0
C1519 C 0.57856 0.09135 0.04818 0.0
C1520 C 0.57799 0.09362 0.1678 0.0
C1521 C 0.57918 0.11776 0.98243 0.0
C1522 C 0.57764 0.14571 0.03828 0.0
H1523 H 0.57513 0.07077 0.00667 0.0
H1524 H 0.57648 0.11602 0.89214 0.0
S1525 S 0.5895 0.15941 0.33683 0.0
N1526 N 0.58716 0.12265 0.32865 0.0
N1527 N 0.58569 0.17294 0.20783 0.0
C1528 C 0.58287 0.14701 0.15118 0.0
C1529 C 0.58372 0.12002 0.21587 0.0
C1530 C 0.17187 0.0897 0.60277 0.0
C1531 C 0.17528 0.09933 0.49142 0.0
C1532 C 0.16938 0.11114 0.68827 0.0
C1533 C 0.17177 0.14183 0.66316 0.0
H1534 H 0.1741 0.06674 0.62857 0.0
H1535 H 0.16948 0.10345 0.77645 0.0
S1536 S 0.16812 0.17516 0.37411 0.0
N1537 N 0.17092 0.13893 0.35155 0.0
N1538 N 0.1681 0.17973 0.51472 0.0
C1539 C 0.16984 0.15077 0.54894 0.0
C1540 C 0.17135 0.12887 0.46139 0.0
C1541 C 0.58047 0.61799 0.62792 0.0
C1542 C 0.56971 0.59564 0.65073 0.0
C1543 C 0.57899 0.63674 0.5325 0.0
C1544 C 0.56675 0.63336 0.45764 0.0
H1545 H 0.58943 0.62241 0.68868 0.0
H1546 H 0.58704 0.65476 0.51999 0.0
S1547 S 0.53596 0.57761 0.47809 0.0
N1548 N 0.54676 0.57061 0.59021 0.0
N1549 N 0.54427 0.60519 0.40751 0.0
C1550 C 0.55657 0.60969 0.47472 0.0
C1551 C 0.55798 0.59091 0.57263 0.0
C1552 C 0.29828 0.13659 0.0804 0.0
C1553 C 0.30351 0.14425 0.18918 0.0
C1554 C 0.29435 0.10692 0.05621 0.0
C1555 C 0.29595 0.08401 0.13974 0.0
H1556 H 0.29875 0.15273 0.01092 0.0
H1557 H 0.29172 0.10155 0.96803 0.0
S1558 S 0.30404 0.09549 0.44716 0.0
N1559 N 0.30615 0.12907 0.38848 0.0
N1560 N 0.29928 0.07272 0.34164 0.0
C1561 C 0.29901 0.09244 0.25266 0.0
C1562 C 0.30273 0.1228 0.27768 0.0
C1563 C 0.93627 0.13895 0.05226 0.0
C1564 C 0.95049 0.1522 0.03871 0.0
C1565 C 0.93446 0.11344 0.1179 0.0
C1566 C 0.94679 0.10022 0.17265 0.0
H1567 H 0.92637 0.14841 0.01109 0.0
H1568 H 0.92324 0.10388 0.1257 0.0
S1569 S 0.98649 0.12626 0.16602 0.0
N1570 N 0.97726 0.15084 0.08549 0.0
N1571 N 0.97381 0.10166 0.21146 0.0
C1572 C 0.96122 0.11298 0.16098 0.0
C1573 C 0.96308 0.13949 0.09328 0.0
C1574 C 0.70691 0.88956 0.78989 0.0
C1575 C 0.69547 0.90942 0.82684 0.0
C1576 C 0.70382 0.85908 0.76931 0.0
C1577 C 0.68922 0.84769 0.78648 0.0
H1578 H 0.7184 0.89752 0.78012 0.0
H1579 H 0.71279 0.84452 0.73914 0.0
S1580 S 0.6558 0.88896 0.89598 0.0
N1581 N 0.66917 0.91453 0.88596 0.0
N1582 N 0.66364 0.8575 0.85146 0.0
C1583 C 0.67784 0.86706 0.82578 0.0
C1584 C 0.68085 0.89791 0.84435 0.0
C1585 C 0.07194 0.88979 0.89424 0.0
C1586 C 0.05909 0.89951 0.83476 0.0
C1587 C 0.07237 0.86158 0.94447 0.0
C1588 C 0.05997 0.84236 0.93603 0.0
H1589 H 0.08202 0.90357 0.89698 0.0
H1590 H 0.08258 0.85447 -0.01194 0.0
S1591 S 0.02291 0.85899 0.80392 0.0
N1592 N 0.03322 0.88923 0.77784 0.0
N1593 N 0.0339 0.83562 0.87631 0.0
C1594 C 0.04673 0.85222 0.88195 0.0
C1595 C 0.04631 0.88112 0.82996 0.0
C1596 C 0.32188 0.64431 0.57905 0.0
C1597 C 0.30785 0.65813 0.55729 0.0
C1598 C 0.32411 0.6138 0.55661 0.0
C1599 C 0.31242 0.59652 0.51095 0.0
H1600 H 0.33075 0.65655 0.62249 0.0
H1601 H 0.33496 0.60366 0.57568 0.0
S1602 S 0.27452 0.62315 0.42195 0.0
N1603 N 0.2827 0.6531 0.47742 0.0
N1604 N 0.28708 0.59574 0.43123 0.0
C1605 C 0.29875 0.61053 0.48117 0.0
C1606 C 0.29643 0.64145 0.5049 0.0
C1607 C 0.96408 0.62671 0.59124 0.0
C1608 C 0.95718 0.65443 0.61827 0.0
C1609 C 0.95907 0.60011 0.64244 0.0
C1610 C 0.94786 0.60087 0.72737 0.0
H1611 H 0.97144 0.62485 0.51737 0.0
H1612 H 0.96297 0.57893 0.60765 0.0
S1613 S 0.93418 0.66938 0.8767 0.0
N1614 N 0.94394 0.6822 0.76635 0.0
N1615 N 0.93531 0.63238 0.86977 0.0
C1616 C 0.94413 0.62901 0.77536 0.0
C1617 C 0.94887 0.65599 0.72022 0.0
C1618 C 0.70095 0.39102 0.26168 0.0
C1619 C 0.69295 0.40643 0.34728 0.0
C1620 C 0.69781 0.36059 0.24048 0.0
C1621 C 0.6871 0.3453 0.30788 0.0
H1622 H 0.70983 0.40217 0.21393 0.0
H1623 H 0.7037 0.34905 0.17214 0.0
S1624 S 0.66522 0.37481 0.55169 0.0
N1625 N 0.67472 0.40392 0.50241 0.0
N1626 N 0.66966 0.34659 0.46711 0.0
C1627 C 0.67945 0.36041 0.3944 0.0
C1628 C 0.68213 0.39116 0.41269 0.0
C1629 C 0.04432 0.35708 0.40908 0.0
C1630 C 0.05668 0.35263 0.48188 0.0
C1631 C 0.04042 0.3861 0.37271 0.0
C1632 C 0.04975 0.41053 0.40137 0.0
H1633 H 0.03896 0.33809 0.36932 0.0
H1634 H 0.03248 0.38825 0.30255 0.0
S1635 S 0.07782 0.41198 0.63572 0.0
N1636 N 0.07363 0.37612 0.61949 0.0
N1637 N 0.06711 0.43027 0.54309 0.0
C1638 C 0.05918 0.4072 0.49696 0.0
C1639 C 0.0629 0.3779 0.53655 0.0
C1640 C 0.80013 0.12238 0.50612 0.0
C1641 C 0.80889 0.0972 0.537 0.0
C1642 C 0.79976 0.14797 0.57518 0.0
C1643 C 0.80811 0.14891 0.67686 0.0
H1644 H 0.79341 0.12217 0.42864 0.0
H1645 H 0.79273 0.16683 0.55019 0.0
S1646 S 0.83473 0.09097 0.78488 0.0
N1647 N 0.82737 0.07612 0.66824 0.0
N1648 N 0.82663 0.1242 0.79904 0.0
C1649 C 0.81733 0.12435 0.7064 0.0
C1650 C 0.81772 0.0984 0.63614 0.0
C1651 C 0.44489 0.14229 0.66084 0.0
C1652 C 0.4438 0.14331 0.54144 0.0
C1653 C 0.44895 0.11579 0.71654 0.0
C1654 C 0.45185 0.08912 0.65501 0.0
H1655 H 0.44213 0.16179 0.71214 0.0
H1656 H 0.44879 0.11598 0.80928 0.0
S1657 S 0.4535 0.08168 0.33933 0.0
N1658 N 0.44834 0.11684 0.36154 0.0
N1659 N 0.45534 0.0665 0.46778 0.0
C1660 C 0.45185 0.09039 0.53512 0.0
C1661 C 0.44791 0.11758 0.47796 0.0
C1662 C 0.18853 0.89579 0.29809 0.0
C1663 C 0.18597 0.898 0.41628 0.0
C1664 C 0.18934 0.86778 0.24451 0.0
C1665 C 0.18769 0.84078 0.30693 0.0
H1666 H 0.18995 0.91581 0.24625 0.0
H1667 H 0.19133 0.86744 0.15297 0.0
S1668 S 0.18073 0.83394 0.61902 0.0
N1669 N 0.18169 0.87042 0.59493 0.0
N1670 N 0.18332 0.81799 0.49323 0.0
C1671 C 0.18514 0.84256 0.42519 0.0
C1672 C 0.18422 0.87109 0.48001 0.0
C1673 C 0.54848 0.85428 0.37628 0.0
C1674 C 0.56301 0.84647 0.41348 0.0
C1675 C 0.54511 0.88385 0.34436 0.0
C1676 C 0.55617 0.90644 0.34937 0.0
H1677 H 0.53965 0.83749 0.37279 0.0
H1678 H 0.53402 0.88882 0.30995 0.0
S1679 S 0.59592 0.89681 0.44548 0.0
N1680 N 0.58837 0.86309 0.45825 0.0
N1681 N 0.58223 0.91877 0.3981 0.0
C1682 C 0.57062 0.89891 0.39144 0.0
C1683 C 0.57401 0.86882 0.42307 0.0
C1684 C 0.80594 0.62842 0.20676 0.0
C1685 C 0.80183 0.65316 0.13763 0.0
C1686 C 0.81088 0.60151 0.15888 0.0
C1687 C 0.81204 0.59837 0.04003 0.0
H1688 H 0.80557 0.62999 0.29932 0.0
H1689 H 0.81379 0.58307 0.21552 0.0
S1690 S 0.80234 0.65657 0.82148 0.0
N1691 N 0.79915 0.67312 0.94561 0.0
N1692 N 0.80833 0.62237 0.85299 0.0
C1693 C 0.80802 0.62311 0.96942 0.0
C1694 C 0.80296 0.65058 0.01892 0.0
C1695 C 0.44896 0.59617 0.07801 0.0
C1696 C 0.4474 0.59393 0.19685 0.0
C1697 C 0.44784 0.62408 0.02476 0.0
C1698 C 0.44529 0.65038 0.08915 0.0
H1699 H 0.44911 0.57624 0.02494 0.0
H1700 H 0.44779 0.6246 0.93197 0.0
S1701 S 0.44721 0.65657 0.40473 0.0
N1702 N 0.44808 0.62014 0.37907 0.0
N1703 N 0.44599 0.67316 0.27828 0.0
C1704 C 0.44658 0.64882 0.20854 0.0
C1705 C 0.44771 0.62028 0.26277 0.0
C1706 C 0.20866 0.35269 0.87595 0.0
C1707 C 0.19592 0.33439 0.85766 0.0
C1708 C 0.20715 0.38346 0.89938 0.0
C1709 C 0.19287 0.39721 0.90263 0.0
H1710 H 0.21991 0.34314 0.87109 0.0
H1711 H 0.21718 0.39644 0.91821 0.0
S1712 S 0.15597 0.36005 0.85903 0.0
N1713 N 0.16848 0.33283 0.84336 0.0
N1714 N 0.1658 0.39062 0.88752 0.0
C1715 C 0.18007 0.3794 0.88434 0.0
C1716 C 0.18155 0.34801 0.86184 0.0
C1717 C 0.54812 0.35432 0.94442 0.0
C1718 C 0.56311 0.34431 0.93495 0.0
C1719 C 0.54459 0.38493 0.9299 0.0
C1720 C 0.55596 0.40642 0.90783 0.0
H1721 H 0.5392 0.33862 0.96535 0.0
H1722 H 0.53286 0.39182 0.93337 0.0
S1723 S 0.59697 0.39039 0.87383 0.0
N1724 N 0.58922 0.35738 0.89809 0.0
N1725 N 0.58293 0.4147 0.87835 0.0
C1726 C 0.57103 0.39633 0.90055 0.0
C1727 C 0.57447 0.36531 0.91138 0.0
loop_
_geom_bond_atom_site_label_1
_geom_bond_atom_site_label_2
_geom_bond_distance
_geom_bond_site_symmetry_2
_ccdc_geom_bond_type
O0 Mg1 1.990 . S
O0 C14 1.253 . S
Mg1 O0 1.990 . S
Mg1 O4 2.180 . S
Mg1 O5 2.117 . S
Mg1 O19 2.030 . S
O2 Mg3 2.072 . S
O2 C14 1.260 . S
Mg3 O2 2.072 . S
Mg3 O4 2.099 . S
Mg3 O6 2.079 . S
Mg3 O7 2.072 . S
Mg3 O9 2.099 . S
Mg3 O20 2.079 . S
O4 Mg1 2.180 . S
O4 Mg3 2.099 . S
O4 C15 1.279 . S
O5 Mg1 2.117 . S
O5 C15 1.250 . S
O6 Mg3 2.079 . S
O6 C16 1.264 1_554 S
O7 Mg3 2.072 . S
O7 C17 1.260 . S
Mg8 O9 2.180 . S
Mg8 O10 2.030 1_554 S
Mg8 O11 1.990 . S
Mg8 O12 2.117 . S
O9 Mg3 2.099 . S
O9 Mg8 2.180 . S
O9 C18 1.279 . S
O10 Mg8 2.030 1_556 S
O10 C16 1.248 . S
O11 Mg8 1.990 . S
O11 C17 1.253 . S
O12 Mg8 2.117 . S
O12 C18 1.250 . S
C13 O19 1.248 . S
C13 O20 1.264 . S
C14 O0 1.253 . S
C14 O2 1.260 . S
C15 O4 1.279 . S
C15 O5 1.250 . S
C16 O6 1.264 1_556 S
C16 O10 1.248 . S
C17 O7 1.260 . S
C17 O11 1.253 . S
C18 O9 1.279 . S
C18 O12 1.250 . S
O19 Mg1 2.030 . S
O19 C13 1.248 . S
O20 Mg3 2.079 . S
O20 C13 1.264 . S
O21 Mg22 1.990 . S
O21 C35 1.253 . S
Mg22 O21 1.990 . S
Mg22 O25 2.180 . S
Mg22 O26 2.117 . S
Mg22 O40 2.030 . S
O23 Mg24 2.072 . S
O23 C35 1.260 1_565 S
Mg24 O23 2.072 . S
Mg24 O25 2.099 1_565 S
Mg24 O27 2.079 . S
Mg24 O28 2.072 1_565 S
Mg24 O30 2.099 . S
Mg24 O41 2.079 . S
O25 Mg22 2.180 . S
O25 Mg24 2.099 1_545 S
O25 C36 1.279 . S
O26 Mg22 2.117 . S
O26 C36 1.250 . S
O27 Mg24 2.079 . S
O27 C37 1.264 1_554 S
O28 Mg24 2.072 1_545 S
O28 C38 1.260 1_545 S
Mg29 O30 2.180 . S
Mg29 O31 2.030 1_554 S
Mg29 O32 1.990 . S
Mg29 O33 2.117 . S
O30 Mg24 2.099 . S
O30 Mg29 2.180 . S
O30 C39 1.279 . S
O31 Mg29 2.030 1_556 S
O31 C37 1.248 . S
O32 Mg29 1.990 . S
O32 C38 1.253 . S
O33 Mg29 2.117 . S
O33 C39 1.250 . S
C34 O40 1.241 1_565 S
C34 O41 1.267 . S
C35 O21 1.253 . S
C35 O23 1.260 1_545 S
C36 O25 1.279 . S
C36 O26 1.250 . S
C37 O27 1.264 1_556 S
C37 O31 1.248 . S
C38 O28 1.260 1_565 S
C38 O32 1.253 . S
C39 O30 1.279 . S
C39 O33 1.250 . S
O40 Mg22 2.030 . S
O40 C34 1.241 1_545 S
O41 Mg24 2.079 . S
O41 C34 1.267 . S
O42 Mg43 1.990 . S
O42 C56 1.253 . S
Mg43 O42 1.990 . S
Mg43 O46 2.180 1_556 S
Mg43 O47 2.117 . S
Mg43 O61 2.030 . S
O44 Mg45 2.072 1_556 S
O44 C56 1.260 1_565 S
Mg45 O44 2.072 1_554 S
Mg45 O46 2.099 1_565 S
Mg45 O48 2.079 . S
Mg45 O49 2.072 1_565 S
Mg45 O51 2.099 . S
Mg45 O62 2.079 . S
O46 Mg43 2.180 1_554 S
O46 Mg45 2.099 1_545 S
O46 C57 1.279 . S
O47 Mg43 2.117 . S
O47 C57 1.250 1_556 S
O48 Mg45 2.079 . S
O48 C58 1.264 . S
O49 Mg45 2.072 1_545 S
O49 C59 1.260 1_545 S
Mg50 O51 2.180 . S
Mg50 O52 2.030 . S
Mg50 O53 1.990 . S
Mg50 O54 2.117 . S
O51 Mg45 2.099 . S
O51 Mg50 2.180 . S
O51 C60 1.279 . S
O52 Mg50 2.030 . S
O52 C58 1.248 . S
O53 Mg50 1.990 . S
O53 C59 1.253 . S
O54 Mg50 2.117 . S
O54 C60 1.250 . S
C55 O61 1.241 1_565 S
C55 O62 1.267 1_556 S
C56 O42 1.253 . S
C56 O44 1.260 1_545 S
C57 O46 1.279 . S
C57 O47 1.250 1_554 S
C58 O48 1.264 . S
C58 O52 1.248 . S
C59 O49 1.260 1_565 S
C59 O53 1.253 . S
C60 O51 1.279 . S
C60 O54 1.250 . S
O61 Mg43 2.030 . S
O61 C55 1.241 1_545 S
O62 Mg45 2.079 . S
O62 C55 1.267 1_554 S
O63 Mg64 1.990 . S
O63 C77 1.253 . S
Mg64 O63 1.990 . S
Mg64 O67 2.180 1_556 S
Mg64 O68 2.117 . S
Mg64 O82 2.030 . S
O65 Mg66 2.072 1_556 S
O65 C77 1.260 . S
Mg66 O65 2.072 1_554 S
Mg66 O67 2.099 . S
Mg66 O69 2.079 . S
Mg66 O70 2.072 . S
Mg66 O72 2.099 . S
Mg66 O83 2.079 . S
O67 Mg64 2.180 1_554 S
O67 Mg66 2.099 . S
O67 C78 1.279 . S
O68 Mg64 2.117 . S
O68 C78 1.250 1_556 S
O69 Mg66 2.079 . S
O69 C79 1.264 . S
O70 Mg66 2.072 . S
O70 C80 1.260 . S
Mg71 O72 2.180 . S
Mg71 O73 2.030 . S
Mg71 O74 1.990 . S
Mg71 O75 2.117 . S
O72 Mg66 2.099 . S
O72 Mg71 2.180 . S
O72 C81 1.279 . S
O73 Mg71 2.030 . S
O73 C79 1.248 . S
O74 Mg71 1.990 . S
O74 C80 1.253 . S
O75 Mg71 2.117 . S
O75 C81 1.250 . S
C76 O82 1.248 . S
C76 O83 1.264 1_556 S
C77 O63 1.253 . S
C77 O65 1.260 . S
C78 O67 1.279 . S
C78 O68 1.250 1_554 S
C79 O69 1.264 . S
C79 O73 1.248 . S
C80 O70 1.260 . S
C80 O74 1.253 . S
C81 O72 1.279 . S
C81 O75 1.250 . S
O82 Mg64 2.030 . S
O82 C76 1.248 . S
O83 Mg66 2.079 . S
O83 C76 1.264 1_554 S
O84 Mg85 1.990 . S
O84 C98 1.253 . S
Mg85 O84 1.990 . S
Mg85 O88 2.180 . S
Mg85 O89 2.117 . S
Mg85 O103 2.030 . S
O86 Mg87 2.072 . S
O86 C98 1.260 . S
Mg87 O86 2.072 . S
Mg87 O88 2.099 . S
Mg87 O90 2.079 . S
Mg87 O91 2.072 . S
Mg87 O93 2.099 . S
Mg87 O104 2.079 . S
O88 Mg85 2.180 . S
O88 Mg87 2.099 . S
O88 C99 1.279 . S
O89 Mg85 2.117 . S
O89 C99 1.250 . S
O90 Mg87 2.079 . S
O90 C100 1.264 1_556 S
O91 Mg87 2.072 . S
O91 C101 1.260 . S
Mg92 O93 2.180 . S
Mg92 O94 2.030 1_556 S
Mg92 O95 1.990 . S
Mg92 O96 2.117 . S
O93 Mg87 2.099 . S
O93 Mg92 2.180 . S
O93 C102 1.279 . S
O94 Mg92 2.030 1_554 S
O94 C100 1.248 . S
O95 Mg92 1.990 . S
O95 C101 1.253 . S
O96 Mg92 2.117 . S
O96 C102 1.250 . S
C97 O103 1.248 . S
C97 O104 1.264 . S
C98 O84 1.253 . S
C98 O86 1.260 . S
C99 O88 1.279 . S
C99 O89 1.250 . S
C100 O90 1.264 1_554 S
C100 O94 1.248 . S
C101 O91 1.260 . S
C101 O95 1.253 . S
C102 O93 1.279 . S
C102 O96 1.250 . S
O103 Mg85 2.030 . S
O103 C97 1.248 . S
O104 Mg87 2.079 . S
O104 C97 1.264 . S
O105 Mg106 1.990 . S
O105 C119 1.253 . S
Mg106 O105 1.990 . S
Mg106 O109 2.180 . S
Mg106 O110 2.117 . S
Mg106 O124 2.030 . S
O107 Mg108 2.072 . S
O107 C119 1.260 1_545 S
Mg108 O107 2.072 . S
Mg108 O109 2.099 1_545 S
Mg108 O111 2.079 . S
Mg108 O112 2.072 1_545 S
Mg108 O114 2.099 . S
Mg108 O125 2.079 . S
O109 Mg106 2.180 . S
O109 Mg108 2.099 1_565 S
O109 C120 1.279 . S
O110 Mg106 2.117 . S
O110 C120 1.250 . S
O111 Mg108 2.079 . S
O111 C121 1.264 1_556 S
O112 Mg108 2.072 1_565 S
O112 C122 1.260 1_565 S
Mg113 O114 2.180 . S
Mg113 O115 2.030 1_556 S
Mg113 O116 1.990 . S
Mg113 O117 2.117 . S
O114 Mg108 2.099 . S
O114 Mg113 2.180 . S
O114 C123 1.279 . S
O115 Mg113 2.030 1_554 S
O115 C121 1.248 . S
O116 Mg113 1.990 . S
O116 C122 1.253 . S
O117 Mg113 2.117 . S
O117 C123 1.250 . S
C118 O124 1.241 1_545 S
C118 O125 1.267 . S
C119 O105 1.253 . S
C119 O107 1.260 1_565 S
C120 O109 1.279 . S
C120 O110 1.250 . S
C121 O111 1.264 1_554 S
C121 O115 1.248 . S
C122 O112 1.260 1_545 S
C122 O116 1.253 . S
C123 O114 1.279 . S
C123 O117 1.250 . S
O124 Mg106 2.030 . S
O124 C118 1.241 1_565 S
O125 Mg108 2.079 . S
O125 C118 1.267 . S
O126 Mg127 1.990 . S
O126 C140 1.253 . S
Mg127 O126 1.990 . S
Mg127 O130 2.180 1_554 S
Mg127 O131 2.117 . S
Mg127 O145 2.030 . S
O128 Mg129 2.072 1_554 S
O128 C140 1.260 1_545 S
Mg129 O128 2.072 1_556 S
Mg129 O130 2.099 1_545 S
Mg129 O132 2.079 . S
Mg129 O133 2.072 1_545 S
Mg129 O135 2.099 . S
Mg129 O146 2.079 . S
O130 Mg127 2.180 1_556 S
O130 Mg129 2.099 1_565 S
O130 C141 1.279 . S
O131 Mg127 2.117 . S
O131 C141 1.250 1_554 S
O132 Mg129 2.079 . S
O132 C142 1.264 . S
O133 Mg129 2.072 1_565 S
O133 C143 1.260 1_565 S
Mg134 O135 2.180 . S
Mg134 O136 2.030 . S
Mg134 O137 1.990 . S
Mg134 O138 2.117 . S
O135 Mg129 2.099 . S
O135 Mg134 2.180 . S
O135 C144 1.279 . S
O136 Mg134 2.030 . S
O136 C142 1.248 . S
O137 Mg134 1.990 . S
O137 C143 1.253 . S
O138 Mg134 2.117 . S
O138 C144 1.250 . S
C139 O145 1.241 1_545 S
C139 O146 1.267 1_554 S
C140 O126 1.253 . S
C140 O128 1.260 1_565 S
C141 O130 1.279 . S
C141 O131 1.250 1_556 S
C142 O132 1.264 . S
C142 O136 1.248 . S
C143 O133 1.260 1_545 S
C143 O137 1.253 . S
C144 O135 1.279 . S
C144 O138 1.250 . S
O145 Mg127 2.030 . S
O145 C139 1.241 1_565 S
O146 Mg129 2.079 . S
O146 C139 1.267 1_556 S
O147 Mg148 1.990 . S
O147 C161 1.253 . S
Mg148 O147 1.990 . S
Mg148 O151 2.180 1_554 S
Mg148 O152 2.117 . S
Mg148 O166 2.030 . S
O149 Mg150 2.072 1_554 S
O149 C161 1.260 . S
Mg150 O149 2.072 1_556 S
Mg150 O151 2.099 . S
Mg150 O153 2.079 . S
Mg150 O154 2.072 . S
Mg150 O156 2.099 . S
Mg150 O167 2.079 . S
O151 Mg148 2.180 1_556 S
O151 Mg150 2.099 . S
O151 C162 1.279 . S
O152 Mg148 2.117 . S
O152 C162 1.250 1_554 S
O153 Mg150 2.079 . S
O153 C163 1.264 . S
O154 Mg150 2.072 . S
O154 C164 1.260 . S
Mg155 O156 2.180 . S
Mg155 O157 2.030 . S
Mg155 O158 1.990 . S
Mg155 O159 2.117 . S
O156 Mg150 2.099 . S
O156 Mg155 2.180 . S
O156 C165 1.279 . S
O157 Mg155 2.030 . S
O157 C163 1.248 . S
O158 Mg155 1.990 . S
O158 C164 1.253 . S
O159 Mg155 2.117 . S
O159 C165 1.250 . S
C160 O166 1.248 . S
C160 O167 1.264 1_554 S
C161 O147 1.253 . S
C161 O149 1.260 . S
C162 O151 1.279 . S
C162 O152 1.250 1_556 S
C163 O153 1.264 . S
C163 O157 1.248 . S
C164 O154 1.260 . S
C164 O158 1.253 . S
C165 O156 1.279 . S
C165 O159 1.250 . S
O166 Mg148 2.030 . S
O166 C160 1.248 . S
O167 Mg150 2.079 . S
O167 C160 1.264 1_556 S
O168 Mg169 1.990 . S
O168 C182 1.253 . S
Mg169 O168 1.990 . S
Mg169 O172 2.180 . S
Mg169 O173 2.117 . S
Mg169 O187 2.030 . S
O170 Mg171 2.072 . S
O170 C182 1.260 . S
Mg171 O170 2.072 . S
Mg171 O172 2.099 . S
Mg171 O174 2.079 . S
Mg171 O175 2.072 . S
Mg171 O177 2.099 . S
Mg171 O188 2.079 . S
O172 Mg169 2.180 . S
O172 Mg171 2.099 . S
O172 C183 1.279 . S
O173 Mg169 2.117 . S
O173 C183 1.250 . S
O174 Mg171 2.079 . S
O174 C184 1.264 . S
O175 Mg171 2.072 . S
O175 C185 1.260 . S
Mg176 O177 2.180 . S
Mg176 O178 2.030 . S
Mg176 O179 1.990 . S
Mg176 O180 2.117 . S
O177 Mg171 2.099 . S
O177 Mg176 2.180 . S
O177 C186 1.279 . S
O178 Mg176 2.030 . S
O178 C184 1.248 . S
O179 Mg176 1.990 . S
O179 C185 1.253 . S
O180 Mg176 2.117 . S
O180 C186 1.250 . S
C181 O187 1.248 . S
C181 O188 1.264 . S
C182 O168 1.253 . S
C182 O170 1.260 . S
C183 O172 1.279 . S
C183 O173 1.250 . S
C184 O174 1.264 . S
C184 O178 1.248 . S
C185 O175 1.260 . S
C185 O179 1.253 . S
C186 O177 1.279 . S
C186 O180 1.250 . S
O187 Mg169 2.030 . S
O187 C181 1.248 . S
O188 Mg171 2.079 . S
O188 C181 1.264 . S
O189 Mg190 1.990 . S
O189 C203 1.253 . S
Mg190 O189 1.990 . S
Mg190 O193 2.180 . S
Mg190 O194 2.117 . S
Mg190 O208 2.030 . S
O191 Mg192 2.072 . S
O191 C203 1.260 . S
Mg192 O191 2.072 . S
Mg192 O193 2.099 . S
Mg192 O195 2.079 . S
Mg192 O196 2.072 . S
Mg192 O198 2.099 . S
Mg192 O209 2.079 . S
O193 Mg190 2.180 . S
O193 Mg192 2.099 . S
O193 C204 1.279 . S
O194 Mg190 2.117 . S
O194 C204 1.250 . S
O195 Mg192 2.079 . S
O195 C205 1.264 . S
O196 Mg192 2.072 . S
O196 C206 1.260 . S
Mg197 O198 2.180 . S
Mg197 O199 2.030 . S
Mg197 O200 1.990 . S
Mg197 O201 2.117 . S
O198 Mg192 2.099 . S
O198 Mg197 2.180 . S
O198 C207 1.279 . S
O199 Mg197 2.030 . S
O199 C205 1.248 . S
O200 Mg197 1.990 . S
O200 C206 1.253 . S
O201 Mg197 2.117 . S
O201 C207 1.250 . S
C202 O208 1.248 . S
C202 O209 1.264 . S
C203 O189 1.253 . S
C203 O191 1.260 . S
C204 O193 1.279 . S
C204 O194 1.250 . S
C205 O195 1.264 . S
C205 O199 1.248 . S
C206 O196 1.260 . S
C206 O200 1.253 . S
C207 O198 1.279 . S
C207 O201 1.250 . S
O208 Mg190 2.030 . S
O208 C202 1.248 . S
O209 Mg192 2.079 . S
O209 C202 1.264 . S
O210 Mg211 1.990 . S
O210 C224 1.253 . S
Mg211 O210 1.990 . S
Mg211 O214 2.180 . S
Mg211 O215 2.117 . S
Mg211 O229 2.030 . S
O212 Mg213 2.072 . S
O212 C224 1.260 . S
Mg213 O212 2.072 . S
Mg213 O214 2.099 . S
Mg213 O216 2.079 . S
Mg213 O217 2.072 . S
Mg213 O219 2.099 . S
Mg213 O230 2.079 . S
O214 Mg211 2.180 . S
O214 Mg213 2.099 . S
O214 C225 1.279 . S
O215 Mg211 2.117 . S
O215 C225 1.250 . S
O216 Mg213 2.079 . S
O216 C226 1.264 . S
O217 Mg213 2.072 . S
O217 C227 1.260 . S
Mg218 O219 2.180 . S
Mg218 O220 2.030 . S
Mg218 O221 1.990 . S
Mg218 O222 2.117 . S
O219 Mg213 2.099 . S
O219 Mg218 2.180 . S
O219 C228 1.279 . S
O220 Mg218 2.030 . S
O220 C226 1.248 . S
O221 Mg218 1.990 . S
O221 C227 1.253 . S
O222 Mg218 2.117 . S
O222 C228 1.250 . S
C223 O229 1.248 . S
C223 O230 1.264 . S
C224 O210 1.253 . S
C224 O212 1.260 . S
C225 O214 1.279 . S
C225 O215 1.250 . S
C226 O216 1.264 . S
C226 O220 1.248 . S
C227 O217 1.260 . S
C227 O221 1.253 . S
C228 O219 1.279 . S
C228 O222 1.250 . S
O229 Mg211 2.030 . S
O229 C223 1.248 . S
O230 Mg213 2.079 . S
O230 C223 1.264 . S
O231 Mg232 1.990 . S
O231 C245 1.253 . S
Mg232 O231 1.990 . S
Mg232 O235 2.180 . S
Mg232 O236 2.117 . S
Mg232 O250 2.030 . S
O233 Mg234 2.072 . S
O233 C245 1.260 . S
Mg234 O233 2.072 . S
Mg234 O235 2.099 . S
Mg234 O237 2.079 . S
Mg234 O238 2.072 . S
Mg234 O240 2.099 . S
Mg234 O251 2.079 . S
O235 Mg232 2.180 . S
O235 Mg234 2.099 . S
O235 C246 1.279 . S
O236 Mg232 2.117 . S
O236 C246 1.250 . S
O237 Mg234 2.079 . S
O237 C247 1.264 . S
O238 Mg234 2.072 . S
O238 C248 1.260 . S
Mg239 O240 2.180 . S
Mg239 O241 2.030 . S
Mg239 O242 1.990 . S
Mg239 O243 2.117 . S
O240 Mg234 2.099 . S
O240 Mg239 2.180 . S
O240 C249 1.279 . S
O241 Mg239 2.030 . S
O241 C247 1.248 . S
O242 Mg239 1.990 . S
O242 C248 1.253 . S
O243 Mg239 2.117 . S
O243 C249 1.250 . S
C244 O250 1.248 . S
C244 O251 1.264 . S
C245 O231 1.253 . S
C245 O233 1.260 . S
C246 O235 1.279 . S
C246 O236 1.250 . S
C247 O237 1.264 . S
C247 O241 1.248 . S
C248 O238 1.260 . S
C248 O242 1.253 . S
C249 O240 1.279 . S
C249 O243 1.250 . S
O250 Mg232 2.030 . S
O250 C244 1.248 . S
O251 Mg234 2.079 . S
O251 C244 1.264 . S
O252 Mg253 1.990 . S
O252 C266 1.253 . S
Mg253 O252 1.990 . S
Mg253 O256 2.180 . S
Mg253 O257 2.117 . S
Mg253 O271 2.030 . S
O254 Mg255 2.072 . S
O254 C266 1.260 . S
Mg255 O254 2.072 . S
Mg255 O256 2.099 . S
Mg255 O258 2.079 . S
Mg255 O259 2.072 . S
Mg255 O261 2.099 . S
Mg255 O272 2.079 . S
O256 Mg253 2.180 . S
O256 Mg255 2.099 . S
O256 C267 1.279 . S
O257 Mg253 2.117 . S
O257 C267 1.250 . S
O258 Mg255 2.079 . S
O258 C268 1.264 . S
O259 Mg255 2.072 . S
O259 C269 1.260 . S
Mg260 O261 2.180 . S
Mg260 O262 2.030 . S
Mg260 O263 1.990 . S
Mg260 O264 2.117 . S
O261 Mg255 2.099 . S
O261 Mg260 2.180 . S
O261 C270 1.279 . S
O262 Mg260 2.030 . S
O262 C268 1.248 . S
O263 Mg260 1.990 . S
O263 C269 1.253 . S
O264 Mg260 2.117 . S
O264 C270 1.250 . S
C265 O271 1.248 . S
C265 O272 1.264 . S
C266 O252 1.253 . S
C266 O254 1.260 . S
C267 O256 1.279 . S
C267 O257 1.250 . S
C268 O258 1.264 . S
C268 O262 1.248 . S
C269 O259 1.260 . S
C269 O263 1.253 . S
C270 O261 1.279 . S
C270 O264 1.250 . S
O271 Mg253 2.030 . S
O271 C265 1.248 . S
O272 Mg255 2.079 . S
O272 C265 1.264 . S
O273 Mg274 1.990 . S
O273 C287 1.253 . S
Mg274 O273 1.990 . S
Mg274 O277 2.180 . S
Mg274 O278 2.117 . S
Mg274 O292 2.030 . S
O275 Mg276 2.072 . S
O275 C287 1.260 . S
Mg276 O275 2.072 . S
Mg276 O277 2.099 . S
Mg276 O279 2.079 . S
Mg276 O280 2.072 . S
Mg276 O282 2.099 . S
Mg276 O293 2.079 . S
O277 Mg274 2.180 . S
O277 Mg276 2.099 . S
O277 C288 1.279 . S
O278 Mg274 2.117 . S
O278 C288 1.250 . S
O279 Mg276 2.079 . S
O279 C289 1.264 . S
O280 Mg276 2.072 . S
O280 C290 1.260 . S
Mg281 O282 2.180 . S
Mg281 O283 2.030 . S
Mg281 O284 1.990 . S
Mg281 O285 2.117 . S
O282 Mg276 2.099 . S
O282 Mg281 2.180 . S
O282 C291 1.279 . S
O283 Mg281 2.030 . S
O283 C289 1.248 . S
O284 Mg281 1.990 . S
O284 C290 1.253 . S
O285 Mg281 2.117 . S
O285 C291 1.250 . S
C286 O292 1.248 . S
C286 O293 1.264 . S
C287 O273 1.253 . S
C287 O275 1.260 . S
C288 O277 1.279 . S
C288 O278 1.250 . S
C289 O279 1.264 . S
C289 O283 1.248 . S
C290 O280 1.260 . S
C290 O284 1.253 . S
C291 O282 1.279 . S
C291 O285 1.250 . S
O292 Mg274 2.030 . S
O292 C286 1.248 . S
O293 Mg276 2.079 . S
O293 C286 1.264 . S
O294 Mg295 1.990 . S
O294 C308 1.253 . S
Mg295 O294 1.990 . S
Mg295 O298 2.180 . S
Mg295 O299 2.117 . S
Mg295 O313 2.030 . S
O296 Mg297 2.072 . S
O296 C308 1.260 . S
Mg297 O296 2.072 . S
Mg297 O298 2.099 . S
Mg297 O300 2.079 . S
Mg297 O301 2.072 . S
Mg297 O303 2.099 . S
Mg297 O314 2.079 . S
O298 Mg295 2.180 . S
O298 Mg297 2.099 . S
O298 C309 1.279 . S
O299 Mg295 2.117 . S
O299 C309 1.250 . S
O300 Mg297 2.079 . S
O300 C310 1.264 . S
O301 Mg297 2.072 . S
O301 C311 1.260 . S
Mg302 O303 2.180 . S
Mg302 O304 2.030 . S
Mg302 O305 1.990 . S
Mg302 O306 2.117 . S
O303 Mg297 2.099 . S
O303 Mg302 2.180 . S
O303 C312 1.279 . S
O304 Mg302 2.030 . S
O304 C310 1.248 . S
O305 Mg302 1.990 . S
O305 C311 1.253 . S
O306 Mg302 2.117 . S
O306 C312 1.250 . S
C307 O313 1.248 . S
C307 O314 1.264 . S
C308 O294 1.253 . S
C308 O296 1.260 . S
C309 O298 1.279 . S
C309 O299 1.250 . S
C310 O300 1.264 . S
C310 O304 1.248 . S
C311 O301 1.260 . S
C311 O305 1.253 . S
C312 O303 1.279 . S
C312 O306 1.250 . S
O313 Mg295 2.030 . S
O313 C307 1.248 . S
O314 Mg297 2.079 . S
O314 C307 1.264 . S
O315 Mg316 1.990 . S
O315 C329 1.253 . S
Mg316 O315 1.990 . S
Mg316 O319 2.180 . S
Mg316 O320 2.117 . S
Mg316 O334 2.030 . S
O317 Mg318 2.072 . S
O317 C329 1.260 . S
Mg318 O317 2.072 . S
Mg318 O319 2.099 . S
Mg318 O321 2.079 . S
Mg318 O322 2.072 . S
Mg318 O324 2.099 . S
Mg318 O335 2.079 . S
O319 Mg316 2.180 . S
O319 Mg318 2.099 . S
O319 C330 1.279 . S
O320 Mg316 2.117 . S
O320 C330 1.250 . S
O321 Mg318 2.079 . S
O321 C331 1.264 . S
O322 Mg318 2.072 . S
O322 C332 1.260 . S
Mg323 O324 2.180 . S
Mg323 O325 2.030 . S
Mg323 O326 1.990 . S
Mg323 O327 2.117 . S
O324 Mg318 2.099 . S
O324 Mg323 2.180 . S
O324 C333 1.279 . S
O325 Mg323 2.030 . S
O325 C331 1.248 . S
O326 Mg323 1.990 . S
O326 C332 1.253 . S
O327 Mg323 2.117 . S
O327 C333 1.250 . S
C328 O334 1.248 . S
C328 O335 1.264 . S
C329 O315 1.253 . S
C329 O317 1.260 . S
C330 O319 1.279 . S
C330 O320 1.250 . S
C331 O321 1.264 . S
C331 O325 1.248 . S
C332 O322 1.260 . S
C332 O326 1.253 . S
C333 O324 1.279 . S
C333 O327 1.250 . S
O334 Mg316 2.030 . S
O334 C328 1.248 . S
O335 Mg318 2.079 . S
O335 C328 1.264 . S
O336 Mg337 1.990 . S
O336 C350 1.253 . S
Mg337 O336 1.990 . S
Mg337 O340 2.180 . S
Mg337 O341 2.117 . S
Mg337 O355 2.030 . S
O338 Mg339 2.072 . S
O338 C350 1.260 . S
Mg339 O338 2.072 . S
Mg339 O340 2.099 . S
Mg339 O342 2.079 . S
Mg339 O343 2.072 . S
Mg339 O345 2.099 . S
Mg339 O356 2.079 . S
O340 Mg337 2.180 . S
O340 Mg339 2.099 . S
O340 C351 1.279 . S
O341 Mg337 2.117 . S
O341 C351 1.250 . S
O342 Mg339 2.079 . S
O342 C352 1.264 . S
O343 Mg339 2.072 . S
O343 C353 1.260 . S
Mg344 O345 2.180 . S
Mg344 O346 2.030 . S
Mg344 O347 1.990 . S
Mg344 O348 2.117 . S
O345 Mg339 2.099 . S
O345 Mg344 2.180 . S
O345 C354 1.279 . S
O346 Mg344 2.030 . S
O346 C352 1.248 . S
O347 Mg344 1.990 . S
O347 C353 1.253 . S
O348 Mg344 2.117 . S
O348 C354 1.250 . S
C349 O355 1.248 . S
C349 O356 1.264 . S
C350 O336 1.253 . S
C350 O338 1.260 . S
C351 O340 1.279 . S
C351 O341 1.250 . S
C352 O342 1.264 . S
C352 O346 1.248 . S
C353 O343 1.260 . S
C353 O347 1.253 . S
C354 O345 1.279 . S
C354 O348 1.250 . S
O355 Mg337 2.030 . S
O355 C349 1.248 . S
O356 Mg339 2.079 . S
O356 C349 1.264 . S
O357 Mg358 1.990 . S
O357 C371 1.253 . S
Mg358 O357 1.990 . S
Mg358 O361 2.180 . S
Mg358 O362 2.117 . S
Mg358 O376 2.030 . S
O359 Mg360 2.072 . S
O359 C371 1.260 1_565 S
Mg360 O359 2.072 . S
Mg360 O361 2.099 1_565 S
Mg360 O363 2.079 . S
Mg360 O364 2.072 1_565 S
Mg360 O366 2.099 . S
Mg360 O377 2.079 . S
O361 Mg358 2.180 . S
O361 Mg360 2.099 1_545 S
O361 C372 1.279 . S
O362 Mg358 2.117 . S
O362 C372 1.250 . S
O363 Mg360 2.079 . S
O363 C373 1.264 . S
O364 Mg360 2.072 1_545 S
O364 C374 1.260 1_545 S
Mg365 O366 2.180 . S
Mg365 O367 2.030 . S
Mg365 O368 1.990 . S
Mg365 O369 2.117 . S
O366 Mg360 2.099 . S
O366 Mg365 2.180 . S
O366 C375 1.279 . S
O367 Mg365 2.030 . S
O367 C373 1.248 . S
O368 Mg365 1.990 . S
O368 C374 1.253 . S
O369 Mg365 2.117 . S
O369 C375 1.250 . S
C370 O376 1.241 1_565 S
C370 O377 1.267 . S
C371 O357 1.253 . S
C371 O359 1.260 1_545 S
C372 O361 1.279 . S
C372 O362 1.250 . S
C373 O363 1.264 . S
C373 O367 1.248 . S
C374 O364 1.260 1_565 S
C374 O368 1.253 . S
C375 O366 1.279 . S
C375 O369 1.250 . S
O376 Mg358 2.030 . S
O376 C370 1.241 1_545 S
O377 Mg360 2.079 . S
O377 C370 1.267 . S
O378 Mg379 1.990 . S
O378 C392 1.253 . S
Mg379 O378 1.990 . S
Mg379 O382 2.180 . S
Mg379 O383 2.117 . S
Mg379 O397 2.030 . S
O380 Mg381 2.072 . S
O380 C392 1.260 1_565 S
Mg381 O380 2.072 . S
Mg381 O382 2.099 1_565 S
Mg381 O384 2.079 . S
Mg381 O385 2.072 1_565 S
Mg381 O387 2.099 . S
Mg381 O398 2.079 . S
O382 Mg379 2.180 . S
O382 Mg381 2.099 1_545 S
O382 C393 1.279 . S
O383 Mg379 2.117 . S
O383 C393 1.250 . S
O384 Mg381 2.079 . S
O384 C394 1.264 . S
O385 Mg381 2.072 1_545 S
O385 C395 1.260 1_545 S
Mg386 O387 2.180 . S
Mg386 O388 2.030 . S
Mg386 O389 1.990 . S
Mg386 O390 2.117 . S
O387 Mg381 2.099 . S
O387 Mg386 2.180 . S
O387 C396 1.279 . S
O388 Mg386 2.030 . S
O388 C394 1.248 . S
O389 Mg386 1.990 . S
O389 C395 1.253 . S
O390 Mg386 2.117 . S
O390 C396 1.250 . S
C391 O397 1.241 1_565 S
C391 O398 1.267 . S
C392 O378 1.253 . S
C392 O380 1.260 1_545 S
C393 O382 1.279 . S
C393 O383 1.250 . S
C394 O384 1.264 . S
C394 O388 1.248 . S
C395 O385 1.260 1_565 S
C395 O389 1.253 . S
C396 O387 1.279 . S
C396 O390 1.250 . S
O397 Mg379 2.030 . S
O397 C391 1.241 1_545 S
O398 Mg381 2.079 . S
O398 C391 1.267 . S
O399 Mg400 1.990 . S
O399 C413 1.253 . S
Mg400 O399 1.990 . S
Mg400 O403 2.180 . S
Mg400 O404 2.117 . S
Mg400 O418 2.030 . S
O401 Mg402 2.072 . S
O401 C413 1.260 . S
Mg402 O401 2.072 . S
Mg402 O403 2.099 . S
Mg402 O405 2.079 . S
Mg402 O406 2.072 . S
Mg402 O408 2.099 . S
Mg402 O419 2.079 . S
O403 Mg400 2.180 . S
O403 Mg402 2.099 . S
O403 C414 1.279 . S
O404 Mg400 2.117 . S
O404 C414 1.250 . S
O405 Mg402 2.079 . S
O405 C415 1.264 . S
O406 Mg402 2.072 . S
O406 C416 1.260 . S
Mg407 O408 2.180 . S
Mg407 O409 2.030 . S
Mg407 O410 1.990 . S
Mg407 O411 2.117 . S
O408 Mg402 2.099 . S
O408 Mg407 2.180 . S
O408 C417 1.279 . S
O409 Mg407 2.030 . S
O409 C415 1.248 . S
O410 Mg407 1.990 . S
O410 C416 1.253 . S
O411 Mg407 2.117 . S
O411 C417 1.250 . S
C412 O418 1.248 . S
C412 O419 1.264 . S
C413 O399 1.253 . S
C413 O401 1.260 . S
C414 O403 1.279 . S
C414 O404 1.250 . S
C415 O405 1.264 . S
C415 O409 1.248 . S
C416 O406 1.260 . S
C416 O410 1.253 . S
C417 O408 1.279 . S
C417 O411 1.250 . S
O418 Mg400 2.030 . S
O418 C412 1.248 . S
O419 Mg402 2.079 . S
O419 C412 1.264 . S
O420 Mg421 1.990 . S
O420 C434 1.253 . S
Mg421 O420 1.990 . S
Mg421 O424 2.180 . S
Mg421 O425 2.117 . S
Mg421 O439 2.030 . S
O422 Mg423 2.072 . S
O422 C434 1.260 . S
Mg423 O422 2.072 . S
Mg423 O424 2.099 . S
Mg423 O426 2.079 . S
Mg423 O427 2.072 . S
Mg423 O429 2.099 . S
Mg423 O440 2.079 . S
O424 Mg421 2.180 . S
O424 Mg423 2.099 . S
O424 C435 1.279 . S
O425 Mg421 2.117 . S
O425 C435 1.250 . S
O426 Mg423 2.079 . S
O426 C436 1.264 . S
O427 Mg423 2.072 . S
O427 C437 1.260 . S
Mg428 O429 2.180 . S
Mg428 O430 2.030 . S
Mg428 O431 1.990 . S
Mg428 O432 2.117 . S
O429 Mg423 2.099 . S
O429 Mg428 2.180 . S
O429 C438 1.279 . S
O430 Mg428 2.030 . S
O430 C436 1.248 . S
O431 Mg428 1.990 . S
O431 C437 1.253 . S
O432 Mg428 2.117 . S
O432 C438 1.250 . S
C433 O439 1.248 . S
C433 O440 1.264 . S
C434 O420 1.253 . S
C434 O422 1.260 . S
C435 O424 1.279 . S
C435 O425 1.250 . S
C436 O426 1.264 . S
C436 O430 1.248 . S
C437 O427 1.260 . S
C437 O431 1.253 . S
C438 O429 1.279 . S
C438 O432 1.250 . S
O439 Mg421 2.030 . S
O439 C433 1.248 . S
O440 Mg423 2.079 . S
O440 C433 1.264 . S
O441 Mg442 1.990 . S
O441 C455 1.253 . S
Mg442 O441 1.990 . S
Mg442 O445 2.180 . S
Mg442 O446 2.117 . S
Mg442 O460 2.030 . S
O443 Mg444 2.072 . S
O443 C455 1.260 1_545 S
Mg444 O443 2.072 . S
Mg444 O445 2.099 1_545 S
Mg444 O447 2.079 . S
Mg444 O448 2.072 1_545 S
Mg444 O450 2.099 . S
Mg444 O461 2.079 . S
O445 Mg442 2.180 . S
O445 Mg444 2.099 1_565 S
O445 C456 1.279 . S
O446 Mg442 2.117 . S
O446 C456 1.250 . S
O447 Mg444 2.079 . S
O447 C457 1.264 . S
O448 Mg444 2.072 1_565 S
O448 C458 1.260 1_565 S
Mg449 O450 2.180 . S
Mg449 O451 2.030 . S
Mg449 O452 1.990 . S
Mg449 O453 2.117 . S
O450 Mg444 2.099 . S
O450 Mg449 2.180 . S
O450 C459 1.279 . S
O451 Mg449 2.030 . S
O451 C457 1.248 . S
O452 Mg449 1.990 . S
O452 C458 1.253 . S
O453 Mg449 2.117 . S
O453 C459 1.250 . S
C454 O460 1.241 1_545 S
C454 O461 1.267 . S
C455 O441 1.253 . S
C455 O443 1.260 1_565 S
C456 O445 1.279 . S
C456 O446 1.250 . S
C457 O447 1.264 . S
C457 O451 1.248 . S
C458 O448 1.260 1_545 S
C458 O452 1.253 . S
C459 O450 1.279 . S
C459 O453 1.250 . S
O460 Mg442 2.030 . S
O460 C454 1.241 1_565 S
O461 Mg444 2.079 . S
O461 C454 1.267 . S
O462 Mg463 1.990 . S
O462 C476 1.253 . S
Mg463 O462 1.990 . S
Mg463 O466 2.180 . S
Mg463 O467 2.117 . S
Mg463 O481 2.030 . S
O464 Mg465 2.072 . S
O464 C476 1.260 1_545 S
Mg465 O464 2.072 . S
Mg465 O466 2.099 1_545 S
Mg465 O468 2.079 . S
Mg465 O469 2.072 1_545 S
Mg465 O471 2.099 . S
Mg465 O482 2.079 . S
O466 Mg463 2.180 . S
O466 Mg465 2.099 1_565 S
O466 C477 1.279 . S
O467 Mg463 2.117 . S
O467 C477 1.250 . S
O468 Mg465 2.079 . S
O468 C478 1.264 . S
O469 Mg465 2.072 1_565 S
O469 C479 1.260 1_565 S
Mg470 O471 2.180 . S
Mg470 O472 2.030 . S
Mg470 O473 1.990 . S
Mg470 O474 2.117 . S
O471 Mg465 2.099 . S
O471 Mg470 2.180 . S
O471 C480 1.279 . S
O472 Mg470 2.030 . S
O472 C478 1.248 . S
O473 Mg470 1.990 . S
O473 C479 1.253 . S
O474 Mg470 2.117 . S
O474 C480 1.250 . S
C475 O481 1.241 1_545 S
C475 O482 1.267 . S
C476 O462 1.253 . S
C476 O464 1.260 1_565 S
C477 O466 1.279 . S
C477 O467 1.250 . S
C478 O468 1.264 . S
C478 O472 1.248 . S
C479 O469 1.260 1_545 S
C479 O473 1.253 . S
C480 O471 1.279 . S
C480 O474 1.250 . S
O481 Mg463 2.030 . S
O481 C475 1.241 1_565 S
O482 Mg465 2.079 . S
O482 C475 1.267 . S
O483 Mg484 1.990 . S
O483 C497 1.253 . S
Mg484 O483 1.990 . S
Mg484 O487 2.180 . S
Mg484 O488 2.117 . S
Mg484 O502 2.030 . S
O485 Mg486 2.072 . S
O485 C497 1.260 . S
Mg486 O485 2.072 . S
Mg486 O487 2.099 . S
Mg486 O489 2.079 . S
Mg486 O490 2.072 . S
Mg486 O492 2.099 . S
Mg486 O503 2.079 . S
O487 Mg484 2.180 . S
O487 Mg486 2.099 . S
O487 C498 1.279 . S
O488 Mg484 2.117 . S
O488 C498 1.250 . S
O489 Mg486 2.079 . S
O489 C499 1.264 . S
O490 Mg486 2.072 . S
O490 C500 1.260 . S
Mg491 O492 2.180 . S
Mg491 O493 2.030 . S
Mg491 O494 1.990 . S
Mg491 O495 2.117 . S
O492 Mg486 2.099 . S
O492 Mg491 2.180 . S
O492 C501 1.279 . S
O493 Mg491 2.030 . S
O493 C499 1.248 . S
O494 Mg491 1.990 . S
O494 C500 1.253 . S
O495 Mg491 2.117 . S
O495 C501 1.250 . S
C496 O502 1.248 . S
C496 O503 1.264 . S
C497 O483 1.253 . S
C497 O485 1.260 . S
C498 O487 1.279 . S
C498 O488 1.250 . S
C499 O489 1.264 . S
C499 O493 1.248 . S
C500 O490 1.260 . S
C500 O494 1.253 . S
C501 O492 1.279 . S
C501 O495 1.250 . S
O502 Mg484 2.030 . S
O502 C496 1.248 . S
O503 Mg486 2.079 . S
O503 C496 1.264 . S
O504 Mg505 1.990 . S
O504 C518 1.253 . S
Mg505 O504 1.990 . S
Mg505 O508 2.180 . S
Mg505 O509 2.117 . S
Mg505 O523 2.030 . S
O506 Mg507 2.072 . S
O506 C518 1.260 . S
Mg507 O506 2.072 . S
Mg507 O508 2.099 . S
Mg507 O510 2.079 . S
Mg507 O511 2.072 . S
Mg507 O513 2.099 . S
Mg507 O524 2.079 . S
O508 Mg505 2.180 . S
O508 Mg507 2.099 . S
O508 C519 1.279 . S
O509 Mg505 2.117 . S
O509 C519 1.250 . S
O510 Mg507 2.079 . S
O510 C520 1.264 1_554 S
O511 Mg507 2.072 . S
O511 C521 1.260 . S
Mg512 O513 2.180 . S
Mg512 O514 2.030 1_554 S
Mg512 O515 1.990 . S
Mg512 O516 2.117 . S
O513 Mg507 2.099 . S
O513 Mg512 2.180 . S
O513 C522 1.279 . S
O514 Mg512 2.030 1_556 S
O514 C520 1.248 . S
O515 Mg512 1.990 . S
O515 C521 1.253 . S
O516 Mg512 2.117 . S
O516 C522 1.250 . S
C517 O523 1.248 . S
C517 O524 1.264 . S
C518 O504 1.253 . S
C518 O506 1.260 . S
C519 O508 1.279 . S
C519 O509 1.250 . S
C520 O510 1.264 1_556 S
C520 O514 1.248 . S
C521 O511 1.260 . S
C521 O515 1.253 . S
C522 O513 1.279 . S
C522 O516 1.250 . S
O523 Mg505 2.030 . S
O523 C517 1.248 . S
O524 Mg507 2.079 . S
O524 C517 1.264 . S
O525 Mg526 1.990 . S
O525 C539 1.253 . S
Mg526 O525 1.990 . S
Mg526 O529 2.180 . S
Mg526 O530 2.117 . S
Mg526 O544 2.030 . S
O527 Mg528 2.072 . S
O527 C539 1.260 . S
Mg528 O527 2.072 . S
Mg528 O529 2.099 . S
Mg528 O531 2.079 . S
Mg528 O532 2.072 . S
Mg528 O534 2.099 . S
Mg528 O545 2.079 . S
O529 Mg526 2.180 . S
O529 Mg528 2.099 . S
O529 C540 1.279 . S
O530 Mg526 2.117 . S
O530 C540 1.250 . S
O531 Mg528 2.079 . S
O531 C541 1.264 1_554 S
O532 Mg528 2.072 . S
O532 C542 1.260 . S
Mg533 O534 2.180 . S
Mg533 O535 2.030 1_554 S
Mg533 O536 1.990 . S
Mg533 O537 2.117 . S
O534 Mg528 2.099 . S
O534 Mg533 2.180 . S
O534 C543 1.279 . S
O535 Mg533 2.030 1_556 S
O535 C541 1.248 . S
O536 Mg533 1.990 . S
O536 C542 1.253 . S
O537 Mg533 2.117 . S
O537 C543 1.250 . S
C538 O544 1.248 . S
C538 O545 1.264 . S
C539 O525 1.253 . S
C539 O527 1.260 . S
C540 O529 1.279 . S
C540 O530 1.250 . S
C541 O531 1.264 1_556 S
C541 O535 1.248 . S
C542 O532 1.260 . S
C542 O536 1.253 . S
C543 O534 1.279 . S
C543 O537 1.250 . S
O544 Mg526 2.030 . S
O544 C538 1.248 . S
O545 Mg528 2.079 . S
O545 C538 1.264 . S
O546 Mg547 1.990 . S
O546 C560 1.253 . S
Mg547 O546 1.990 . S
Mg547 O550 2.180 1_556 S
Mg547 O551 2.117 . S
Mg547 O565 2.030 . S
O548 Mg549 2.072 1_556 S
O548 C560 1.260 . S
Mg549 O548 2.072 1_554 S
Mg549 O550 2.099 . S
Mg549 O552 2.079 . S
Mg549 O553 2.072 . S
Mg549 O555 2.099 . S
Mg549 O566 2.079 . S
O550 Mg547 2.180 1_554 S
O550 Mg549 2.099 . S
O550 C561 1.279 . S
O551 Mg547 2.117 . S
O551 C561 1.250 1_556 S
O552 Mg549 2.079 . S
O552 C562 1.264 . S
O553 Mg549 2.072 . S
O553 C563 1.260 . S
Mg554 O555 2.180 . S
Mg554 O556 2.030 . S
Mg554 O557 1.990 . S
Mg554 O558 2.117 . S
O555 Mg549 2.099 . S
O555 Mg554 2.180 . S
O555 C564 1.279 . S
O556 Mg554 2.030 . S
O556 C562 1.248 . S
O557 Mg554 1.990 . S
O557 C563 1.253 . S
O558 Mg554 2.117 . S
O558 C564 1.250 . S
C559 O565 1.248 . S
C559 O566 1.264 1_556 S
C560 O546 1.253 . S
C560 O548 1.260 . S
C561 O550 1.279 . S
C561 O551 1.250 1_554 S
C562 O552 1.264 . S
C562 O556 1.248 . S
C563 O553 1.260 . S
C563 O557 1.253 . S
C564 O555 1.279 . S
C564 O558 1.250 . S
O565 Mg547 2.030 . S
O565 C559 1.248 . S
O566 Mg549 2.079 . S
O566 C559 1.264 1_554 S
O567 Mg568 1.990 . S
O567 C581 1.253 . S
Mg568 O567 1.990 . S
Mg568 O571 2.180 1_556 S
Mg568 O572 2.117 . S
Mg568 O586 2.030 . S
O569 Mg570 2.072 1_556 S
O569 C581 1.260 . S
Mg570 O569 2.072 1_554 S
Mg570 O571 2.099 . S
Mg570 O573 2.079 . S
Mg570 O574 2.072 . S
Mg570 O576 2.099 . S
Mg570 O587 2.079 . S
O571 Mg568 2.180 1_554 S
O571 Mg570 2.099 . S
O571 C582 1.279 . S
O572 Mg568 2.117 . S
O572 C582 1.250 1_556 S
O573 Mg570 2.079 . S
O573 C583 1.264 . S
O574 Mg570 2.072 . S
O574 C584 1.260 . S
Mg575 O576 2.180 . S
Mg575 O577 2.030 . S
Mg575 O578 1.990 . S
Mg575 O579 2.117 . S
O576 Mg570 2.099 . S
O576 Mg575 2.180 . S
O576 C585 1.279 . S
O577 Mg575 2.030 . S
O577 C583 1.248 . S
O578 Mg575 1.990 . S
O578 C584 1.253 . S
O579 Mg575 2.117 . S
O579 C585 1.250 . S
C580 O586 1.248 . S
C580 O587 1.264 1_556 S
C581 O567 1.253 . S
C581 O569 1.260 . S
C582 O571 1.279 . S
C582 O572 1.250 1_554 S
C583 O573 1.264 . S
C583 O577 1.248 . S
C584 O574 1.260 . S
C584 O578 1.253 . S
C585 O576 1.279 . S
C585 O579 1.250 . S
O586 Mg568 2.030 . S
O586 C580 1.248 . S
O587 Mg570 2.079 . S
O587 C580 1.264 1_554 S
O588 Mg589 1.990 . S
O588 C602 1.253 . S
Mg589 O588 1.990 . S
Mg589 O592 2.180 . S
Mg589 O593 2.117 . S
Mg589 O607 2.030 . S
O590 Mg591 2.072 . S
O590 C602 1.260 . S
Mg591 O590 2.072 . S
Mg591 O592 2.099 . S
Mg591 O594 2.079 . S
Mg591 O595 2.072 . S
Mg591 O597 2.099 . S
Mg591 O608 2.079 . S
O592 Mg589 2.180 . S
O592 Mg591 2.099 . S
O592 C603 1.279 . S
O593 Mg589 2.117 . S
O593 C603 1.250 . S
O594 Mg591 2.079 . S
O594 C604 1.264 1_556 S
O595 Mg591 2.072 . S
O595 C605 1.260 . S
Mg596 O597 2.180 . S
Mg596 O598 2.030 1_556 S
Mg596 O599 1.990 . S
Mg596 O600 2.117 . S
O597 Mg591 2.099 . S
O597 Mg596 2.180 . S
O597 C606 1.279 . S
O598 Mg596 2.030 1_554 S
O598 C604 1.248 . S
O599 Mg596 1.990 . S
O599 C605 1.253 . S
O600 Mg596 2.117 . S
O600 C606 1.250 . S
C601 O607 1.248 . S
C601 O608 1.264 . S
C602 O588 1.253 . S
C602 O590 1.260 . S
C603 O592 1.279 . S
C603 O593 1.250 . S
C604 O594 1.264 1_554 S
C604 O598 1.248 . S
C605 O595 1.260 . S
C605 O599 1.253 . S
C606 O597 1.279 . S
C606 O600 1.250 . S
O607 Mg589 2.030 . S
O607 C601 1.248 . S
O608 Mg591 2.079 . S
O608 C601 1.264 . S
O609 Mg610 1.990 . S
O609 C623 1.253 . S
Mg610 O609 1.990 . S
Mg610 O613 2.180 . S
Mg610 O614 2.117 . S
Mg610 O628 2.030 . S
O611 Mg612 2.072 . S
O611 C623 1.260 . S
Mg612 O611 2.072 . S
Mg612 O613 2.099 . S
Mg612 O615 2.079 . S
Mg612 O616 2.072 . S
Mg612 O618 2.099 . S
Mg612 O629 2.079 . S
O613 Mg610 2.180 . S
O613 Mg612 2.099 . S
O613 C624 1.279 . S
O614 Mg610 2.117 . S
O614 C624 1.250 . S
O615 Mg612 2.079 . S
O615 C625 1.264 1_556 S
O616 Mg612 2.072 . S
O616 C626 1.260 . S
Mg617 O618 2.180 . S
Mg617 O619 2.030 1_556 S
Mg617 O620 1.990 . S
Mg617 O621 2.117 . S
O618 Mg612 2.099 . S
O618 Mg617 2.180 . S
O618 C627 1.279 . S
O619 Mg617 2.030 1_554 S
O619 C625 1.248 . S
O620 Mg617 1.990 . S
O620 C626 1.253 . S
O621 Mg617 2.117 . S
O621 C627 1.250 . S
C622 O628 1.248 . S
C622 O629 1.264 . S
C623 O609 1.253 . S
C623 O611 1.260 . S
C624 O613 1.279 . S
C624 O614 1.250 . S
C625 O615 1.264 1_554 S
C625 O619 1.248 . S
C626 O616 1.260 . S
C626 O620 1.253 . S
C627 O618 1.279 . S
C627 O621 1.250 . S
O628 Mg610 2.030 . S
O628 C622 1.248 . S
O629 Mg612 2.079 . S
O629 C622 1.264 . S
O630 Mg631 1.990 . S
O630 C644 1.253 . S
Mg631 O630 1.990 . S
Mg631 O634 2.180 1_554 S
Mg631 O635 2.117 . S
Mg631 O649 2.030 . S
O632 Mg633 2.072 1_554 S
O632 C644 1.260 . S
Mg633 O632 2.072 1_556 S
Mg633 O634 2.099 . S
Mg633 O636 2.079 . S
Mg633 O637 2.072 . S
Mg633 O639 2.099 . S
Mg633 O650 2.079 . S
O634 Mg631 2.180 1_556 S
O634 Mg633 2.099 . S
O634 C645 1.279 . S
O635 Mg631 2.117 . S
O635 C645 1.250 1_554 S
O636 Mg633 2.079 . S
O636 C646 1.264 . S
O637 Mg633 2.072 . S
O637 C647 1.260 . S
Mg638 O639 2.180 . S
Mg638 O640 2.030 . S
Mg638 O641 1.990 . S
Mg638 O642 2.117 . S
O639 Mg633 2.099 . S
O639 Mg638 2.180 . S
O639 C648 1.279 . S
O640 Mg638 2.030 . S
O640 C646 1.248 . S
O641 Mg638 1.990 . S
O641 C647 1.253 . S
O642 Mg638 2.117 . S
O642 C648 1.250 . S
C643 O649 1.248 . S
C643 O650 1.264 1_554 S
C644 O630 1.253 . S
C644 O632 1.260 . S
C645 O634 1.279 . S
C645 O635 1.250 1_556 S
C646 O636 1.264 . S
C646 O640 1.248 . S
C647 O637 1.260 . S
C647 O641 1.253 . S
C648 O639 1.279 . S
C648 O642 1.250 . S
O649 Mg631 2.030 . S
O649 C643 1.248 . S
O650 Mg633 2.079 . S
O650 C643 1.264 1_556 S
O651 Mg652 1.990 . S
O651 C665 1.253 . S
Mg652 O651 1.990 . S
Mg652 O655 2.180 1_554 S
Mg652 O656 2.117 . S
Mg652 O670 2.030 . S
O653 Mg654 2.072 1_554 S
O653 C665 1.260 . S
Mg654 O653 2.072 1_556 S
Mg654 O655 2.099 . S
Mg654 O657 2.079 . S
Mg654 O658 2.072 . S
Mg654 O660 2.099 . S
Mg654 O671 2.079 . S
O655 Mg652 2.180 1_556 S
O655 Mg654 2.099 . S
O655 C666 1.279 . S
O656 Mg652 2.117 . S
O656 C666 1.250 1_554 S
O657 Mg654 2.079 . S
O657 C667 1.264 . S
O658 Mg654 2.072 . S
O658 C668 1.260 . S
Mg659 O660 2.180 . S
Mg659 O661 2.030 . S
Mg659 O662 1.990 . S
Mg659 O663 2.117 . S
O660 Mg654 2.099 . S
O660 Mg659 2.180 . S
O660 C669 1.279 . S
O661 Mg659 2.030 . S
O661 C667 1.248 . S
O662 Mg659 1.990 . S
O662 C668 1.253 . S
O663 Mg659 2.117 . S
O663 C669 1.250 . S
C664 O670 1.248 . S
C664 O671 1.264 1_554 S
C665 O651 1.253 . S
C665 O653 1.260 . S
C666 O655 1.279 . S
C666 O656 1.250 1_556 S
C667 O657 1.264 . S
C667 O661 1.248 . S
C668 O658 1.260 . S
C668 O662 1.253 . S
C669 O660 1.279 . S
C669 O663 1.250 . S
O670 Mg652 2.030 . S
O670 C664 1.248 . S
O671 Mg654 2.079 . S
O671 C664 1.264 1_556 S
C672 C673 1.369 . S
C672 C674 1.419 1_556 S
C672 H676 0.930 . S
C673 C672 1.369 . S
C673 C682 1.429 . S
C674 C672 1.419 1_554 S
C674 C675 1.363 . S
C674 H677 0.929 . S
C675 C674 1.363 . S
C675 C681 1.428 . S
H676 C672 0.930 . S
H677 C674 0.929 . S
S678 N679 1.613 . S
S678 N680 1.610 1_556 S
N679 S678 1.613 . S
N679 C682 1.350 . S
N680 S678 1.610 1_554 S
N680 C681 1.351 . S
C681 C675 1.428 . S
C681 N680 1.351 . S
C681 C682 1.434 1_554 S
C682 C673 1.429 . S
C682 N679 1.350 . S
C682 C681 1.434 1_556 S
C683 C684 1.310 1_655 S
C683 C685 1.471 . S
C683 H687 0.940 . S
C684 C683 1.310 1_455 S
C684 C693 1.429 1_566 S
C685 C683 1.471 . S
C685 C686 1.363 1_566 S
C685 H688 0.929 . S
C686 C685 1.363 1_544 S
C686 C692 1.428 1_655 S
H687 C683 0.940 . S
H688 C685 0.929 . S
S689 N690 1.613 . S
S689 N691 1.610 . S
N690 S689 1.613 . S
N690 C693 1.350 . S
N691 S689 1.610 . S
N691 C692 1.351 . S
C692 C686 1.428 1_455 S
C692 N691 1.351 . S
C692 C693 1.434 . S
C693 C684 1.429 1_544 S
C693 N690 1.350 . S
C693 C692 1.434 . S
C694 C695 1.369 1_545 S
C694 C696 1.419 . S
C694 H698 0.930 . S
C695 C694 1.369 1_565 S
C695 C704 1.429 . S
C696 C694 1.419 . S
C696 C697 1.363 . S
C696 H699 0.929 . S
C697 C696 1.363 . S
C697 C703 1.428 1_545 S
H698 C694 0.930 . S
H699 C696 0.929 . S
S700 N701 1.613 . S
S700 N702 1.610 . S
N701 S700 1.613 . S
N701 C704 1.350 . S
N702 S700 1.610 . S
N702 C703 1.351 . S
C703 C697 1.428 1_565 S
C703 N702 1.351 . S
C703 C704 1.434 . S
C704 C695 1.429 . S
C704 N701 1.350 . S
C704 C703 1.434 . S
C705 C706 1.369 . S
C705 C707 1.419 1_455 S
C705 H709 0.930 . S
C706 C705 1.369 . S
C706 C715 1.429 . S
C707 C705 1.419 1_655 S
C707 C708 1.363 . S
C707 H710 0.929 . S
C708 C707 1.363 . S
C708 C714 1.428 . S
H709 C705 0.930 . S
H710 C707 0.929 . S
S711 N712 1.613 . S
S711 N713 1.610 1_455 S
N712 S711 1.613 . S
N712 C715 1.350 . S
N713 S711 1.610 1_655 S
N713 C714 1.351 . S
C714 C708 1.428 . S
C714 N713 1.351 . S
C714 C715 1.434 1_655 S
C715 C706 1.429 . S
C715 N712 1.350 . S
C715 C714 1.434 1_455 S
C716 C717 1.369 . S
C716 C718 1.419 1_556 S
C716 H720 0.930 . S
C717 C716 1.369 . S
C717 C726 1.429 . S
C718 C716 1.419 1_554 S
C718 C719 1.363 . S
C718 H721 0.929 . S
C719 C718 1.363 . S
C719 C725 1.428 . S
H720 C716 0.930 . S
H721 C718 0.929 . S
S722 N723 1.613 . S
S722 N724 1.610 . S
N723 S722 1.613 . S
N723 C726 1.350 . S
N724 S722 1.610 . S
N724 C725 1.351 1_556 S
C725 C719 1.428 . S
C725 N724 1.351 1_554 S
C725 C726 1.434 1_554 S
C726 C717 1.429 . S
C726 N723 1.350 . S
C726 C725 1.434 1_556 S
C727 C728 1.369 1_565 S
C727 C729 1.419 . S
C727 H731 0.930 . S
C728 C727 1.369 1_545 S
C728 C737 1.429 . S
C729 C727 1.419 . S
C729 C730 1.394 . S
C729 H732 0.929 . S
C730 C729 1.394 . S
C730 C736 1.396 1_565 S
H731 C727 0.930 . S
H732 C729 0.929 . S
S733 N734 1.613 . S
S733 N735 1.610 . S
N734 S733 1.613 . S
N734 C737 1.350 . S
N735 S733 1.610 . S
N735 C736 1.351 . S
C736 C730 1.396 1_545 S
C736 N735 1.351 . S
C736 C737 1.434 . S
C737 C728 1.429 . S
C737 N734 1.350 . S
C737 C736 1.434 . S
C738 C739 1.389 . S
C738 C740 1.400 1_655 S
C738 H742 0.930 1_655 S
C739 C738 1.389 . S
C739 C748 1.429 . S
C740 C738 1.400 1_455 S
C740 C741 1.363 . S
C740 H743 0.929 . S
C741 C740 1.363 . S
C741 C747 1.421 1_455 S
H742 C738 0.930 1_455 S
H743 C740 0.929 . S
S744 N745 1.613 . S
S744 N746 1.610 . S
N745 S744 1.613 . S
N745 C748 1.350 . S
N746 S744 1.610 . S
N746 C747 1.352 . S
C747 C741 1.421 1_655 S
C747 N746 1.352 . S
C747 C748 1.441 . S
C748 C739 1.429 . S
C748 N745 1.350 . S
C748 C747 1.441 . S
C749 C750 1.369 . S
C749 C751 1.419 . S
C749 H753 0.930 . S
C750 C749 1.369 . S
C750 C759 1.429 . S
C751 C749 1.419 . S
C751 C752 1.363 . S
C751 H754 0.929 . S
C752 C751 1.363 . S
C752 C758 1.428 . S
H753 C749 0.930 . S
H754 C751 0.929 . S
S755 N756 1.613 . S
S755 N757 1.610 . S
N756 S755 1.613 . S
N756 C759 1.350 . S
N757 S755 1.610 . S
N757 C758 1.351 . S
C758 C752 1.428 . S
C758 N757 1.351 . S
C758 C759 1.434 . S
C759 C750 1.429 . S
C759 N756 1.350 . S
C759 C758 1.434 . S
C760 C761 1.369 . S
C760 C762 1.458 . S
C760 H764 0.930 . S
C761 C760 1.369 . S
C761 C770 1.429 1_655 S
C762 C760 1.458 . S
C762 C763 1.319 1_655 S
C762 H765 0.936 . S
C763 C762 1.319 1_455 S
C763 C769 1.428 . S
H764 C760 0.930 . S
H765 C762 0.936 . S
S766 N767 1.613 . S
S766 N768 1.610 . S
N767 S766 1.613 . S
N767 C770 1.350 . S
N768 S766 1.610 . S
N768 C769 1.351 . S
C769 C763 1.428 . S
C769 N768 1.351 . S
C769 C770 1.434 . S
C770 C761 1.429 1_455 S
C770 N767 1.350 . S
C770 C769 1.434 . S
C771 C772 1.369 . S
C771 C773 1.419 . S
C771 H775 0.930 . S
C772 C771 1.369 . S
C772 C781 1.429 . S
C773 C771 1.419 . S
C773 C774 1.363 . S
C773 H776 0.929 . S
C774 C773 1.363 . S
C774 C780 1.428 . S
H775 C771 0.930 . S
H776 C773 0.929 . S
S777 N778 1.613 . S
S777 N779 1.610 . S
N778 S777 1.613 . S
N778 C781 1.350 . S
N779 S777 1.610 . S
N779 C780 1.351 . S
C780 C774 1.428 . S
C780 N779 1.351 . S
C780 C781 1.434 . S
C781 C772 1.429 . S
C781 N778 1.350 . S
C781 C780 1.434 . S
C782 C783 1.369 . S
C782 C784 1.419 . S
C782 H786 0.930 . S
C783 C782 1.369 . S
C783 C792 1.429 . S
C784 C782 1.419 . S
C784 C785 1.363 . S
C784 H787 0.929 . S
C785 C784 1.363 . S
C785 C791 1.428 . S
H786 C782 0.930 . S
H787 C784 0.929 . S
S788 N789 1.613 . S
S788 N790 1.610 . S
N789 S788 1.613 . S
N789 C792 1.350 . S
N790 S788 1.610 . S
N790 C791 1.351 . S
C791 C785 1.428 . S
C791 N790 1.351 . S
C791 C792 1.434 . S
C792 C783 1.429 . S
C792 N789 1.350 . S
C792 C791 1.434 . S
C793 C794 1.369 . S
C793 C795 1.419 . S
C793 H797 0.930 . S
C794 C793 1.369 . S
C794 C803 1.429 . S
C795 C793 1.419 . S
C795 C796 1.363 . S
C795 H798 0.929 . S
C796 C795 1.363 . S
C796 C802 1.428 . S
H797 C793 0.930 . S
H798 C795 0.929 . S
S799 N800 1.613 . S
S799 N801 1.610 . S
N800 S799 1.613 . S
N800 C803 1.350 . S
N801 S799 1.610 . S
N801 C802 1.351 . S
C802 C796 1.428 . S
C802 N801 1.351 . S
C802 C803 1.434 . S
C803 C794 1.429 . S
C803 N800 1.350 . S
C803 C802 1.434 . S
C804 C805 1.397 . S
C804 C806 1.419 . S
C804 H808 0.930 . S
C805 C804 1.397 . S
C805 C814 1.399 1_545 S
C806 C804 1.419 . S
C806 C807 1.363 1_545 S
C806 H809 0.929 . S
C807 C806 1.363 1_565 S
C807 C813 1.428 . S
H808 C804 0.930 . S
H809 C806 0.929 . S
S810 N811 1.613 . S
S810 N812 1.610 . S
N811 S810 1.613 . S
N811 C814 1.350 . S
N812 S810 1.610 . S
N812 C813 1.351 . S
C813 C807 1.428 . S
C813 N812 1.351 . S
C813 C814 1.434 . S
C814 C805 1.399 1_565 S
C814 N811 1.350 . S
C814 C813 1.434 . S
C815 C816 1.369 . S
C815 C817 1.419 . S
C815 H819 0.930 . S
C816 C815 1.369 . S
C816 C825 1.429 . S
C817 C815 1.419 . S
C817 C818 1.363 . S
C817 H820 0.929 . S
C818 C817 1.363 . S
C818 C824 1.428 . S
H819 C815 0.930 . S
H820 C817 0.929 . S
S821 N822 1.613 . S
S821 N823 1.610 . S
N822 S821 1.613 . S
N822 C825 1.350 . S
N823 S821 1.610 . S
N823 C824 1.351 . S
C824 C818 1.428 . S
C824 N823 1.351 . S
C824 C825 1.434 . S
C825 C816 1.429 . S
C825 N822 1.350 . S
C825 C824 1.434 . S
C826 C827 1.369 . S
C826 C828 1.419 . S
C826 H830 0.930 . S
C827 C826 1.369 . S
C827 C836 1.429 . S
C828 C826 1.419 . S
C828 C829 1.363 . S
C828 H831 0.929 . S
C829 C828 1.363 . S
C829 C835 1.428 . S
H830 C826 0.930 . S
H831 C828 0.929 . S
S832 N833 1.613 . S
S832 N834 1.610 . S
N833 S832 1.613 . S
N833 C836 1.350 . S
N834 S832 1.610 . S
N834 C835 1.351 . S
C835 C829 1.428 . S
C835 N834 1.351 . S
C835 C836 1.434 . S
C836 C827 1.429 . S
C836 N833 1.350 . S
C836 C835 1.434 . S
C837 C838 1.369 . S
C837 C839 1.419 . S
C837 H841 0.930 . S
C838 C837 1.369 . S
C838 C847 1.429 1_556 S
C839 C837 1.419 . S
C839 C840 1.363 1_556 S
C839 H842 0.929 . S
C840 C839 1.363 1_554 S
C840 C846 1.428 . S
H841 C837 0.930 . S
H842 C839 0.929 . S
S843 N844 1.613 . S
S843 N845 1.610 . S
N844 S843 1.613 . S
N844 C847 1.350 . S
N845 S843 1.610 . S
N845 C846 1.351 . S
C846 C840 1.428 . S
C846 N845 1.351 . S
C846 C847 1.434 . S
C847 C838 1.429 1_554 S
C847 N844 1.350 . S
C847 C846 1.434 . S
C848 C849 1.369 . S
C848 C850 1.419 . S
C848 H852 0.930 . S
C849 C848 1.369 . S
C849 C858 1.429 . S
C850 C848 1.419 . S
C850 C851 1.363 . S
C850 H853 0.929 . S
C851 C850 1.363 . S
C851 C857 1.428 . S
H852 C848 0.930 . S
H853 C850 0.929 . S
S854 N855 1.613 . S
S854 N856 1.610 . S
N855 S854 1.613 . S
N855 C858 1.350 . S
N856 S854 1.610 . S
N856 C857 1.351 . S
C857 C851 1.428 . S
C857 N856 1.351 . S
C857 C858 1.434 . S
C858 C849 1.429 . S
C858 N855 1.350 . S
C858 C857 1.434 . S
C859 C860 1.369 1_545 S
C859 C861 1.419 . S
C859 H863 0.930 . S
C860 C859 1.369 1_565 S
C860 C869 1.429 . S
C861 C859 1.419 . S
C861 C862 1.363 1_545 S
C861 H864 0.929 . S
C862 C861 1.363 1_565 S
C862 C868 1.428 . S
H863 C859 0.930 . S
H864 C861 0.929 . S
S865 N866 1.613 . S
S865 N867 1.610 . S
N866 S865 1.613 . S
N866 C869 1.350 . S
N867 S865 1.610 . S
N867 C868 1.351 . S
C868 C862 1.428 . S
C868 N867 1.351 . S
C868 C869 1.434 . S
C869 C860 1.429 . S
C869 N866 1.350 . S
C869 C868 1.434 . S
C870 C871 1.369 . S
C870 C872 1.419 . S
C870 H874 0.930 . S
C871 C870 1.369 . S
C871 C880 1.429 1_565 S
C872 C870 1.419 . S
C872 C873 1.363 . S
C872 H875 0.929 . S
C873 C872 1.363 . S
C873 C879 1.428 1_565 S
H874 C870 0.930 . S
H875 C872 0.929 . S
S876 N877 1.613 . S
S876 N878 1.610 . S
N877 S876 1.613 . S
N877 C880 1.350 . S
N878 S876 1.610 . S
N878 C879 1.351 . S
C879 C873 1.428 1_545 S
C879 N878 1.351 . S
C879 C880 1.434 . S
C880 C871 1.429 1_545 S
C880 N877 1.350 . S
C880 C879 1.434 . S
C881 C882 1.369 . S
C881 C883 1.419 . S
C881 H885 0.930 . S
C882 C881 1.369 . S
C882 C891 1.429 . S
C883 C881 1.419 . S
C883 C884 1.363 . S
C883 H886 0.929 . S
C884 C883 1.363 . S
C884 C890 1.428 . S
H885 C881 0.930 . S
H886 C883 0.929 . S
S887 N888 1.613 . S
S887 N889 1.610 . S
N888 S887 1.613 . S
N888 C891 1.350 . S
N889 S887 1.610 . S
N889 C890 1.351 . S
C890 C884 1.428 . S
C890 N889 1.351 . S
C890 C891 1.434 . S
C891 C882 1.429 . S
C891 N888 1.350 . S
C891 C890 1.434 . S
C892 C893 1.369 . S
C892 C894 1.419 . S
C892 H896 0.930 . S
C893 C892 1.369 . S
C893 C902 1.429 . S
C894 C892 1.419 . S
C894 C895 1.363 . S
C894 H897 0.929 . S
C895 C894 1.363 . S
C895 C901 1.428 . S
H896 C892 0.930 . S
H897 C894 0.929 . S
S898 N899 1.613 . S
S898 N900 1.610 . S
N899 S898 1.613 . S
N899 C902 1.350 . S
N900 S898 1.610 . S
N900 C901 1.351 . S
C901 C895 1.428 . S
C901 N900 1.351 . S
C901 C902 1.434 . S
C902 C893 1.429 . S
C902 N899 1.350 . S
C902 C901 1.434 . S
C903 C904 1.369 1_565 S
C903 C905 1.419 . S
C903 H907 0.930 . S
C904 C903 1.369 1_545 S
C904 C913 1.429 . S
C905 C903 1.419 . S
C905 C906 1.363 1_565 S
C905 H908 0.929 . S
C906 C905 1.363 1_545 S
C906 C912 1.428 . S
H907 C903 0.930 . S
H908 C905 0.929 . S
S909 N910 1.613 . S
S909 N911 1.610 . S
N910 S909 1.613 . S
N910 C913 1.350 . S
N911 S909 1.610 . S
N911 C912 1.351 . S
C912 C906 1.428 . S
C912 N911 1.351 . S
C912 C913 1.434 . S
C913 C904 1.429 . S
C913 N910 1.350 . S
C913 C912 1.434 . S
C914 C915 1.369 1_565 S
C914 C916 1.419 . S
C914 H918 0.930 . S
C915 C914 1.369 1_545 S
C915 C924 1.429 . S
C916 C914 1.419 . S
C916 C917 1.363 1_565 S
C916 H919 0.929 . S
C917 C916 1.363 1_545 S
C917 C923 1.428 . S
H918 C914 0.930 . S
H919 C916 0.929 . S
S920 N921 1.613 . S
S920 N922 1.610 1_556 S
N921 S920 1.613 . S
N921 C924 1.350 1_556 S
N922 S920 1.610 1_554 S
N922 C923 1.351 . S
C923 C917 1.428 . S
C923 N922 1.351 . S
C923 C924 1.434 . S
C924 C915 1.429 . S
C924 N921 1.350 1_554 S
C924 C923 1.434 . S
C925 C926 1.369 . S
C925 C927 1.419 . S
C925 H929 0.930 1_554 S
C926 C925 1.369 . S
C926 C935 1.429 . S
C927 C925 1.419 . S
C927 C928 1.363 . S
C927 H930 0.929 . S
C928 C927 1.363 . S
C928 C934 1.428 . S
H929 C925 0.930 1_556 S
H930 C927 0.929 . S
S931 N932 1.613 . S
S931 N933 1.610 . S
N932 S931 1.613 . S
N932 C935 1.350 . S
N933 S931 1.610 . S
N933 C934 1.351 . S
C934 C928 1.428 . S
C934 N933 1.351 . S
C934 C935 1.434 . S
C935 C926 1.429 . S
C935 N932 1.350 . S
C935 C934 1.434 . S
C936 C937 1.369 . S
C936 C938 1.419 . S
C936 H940 0.930 . S
C937 C936 1.369 . S
C937 C946 1.429 . S
C938 C936 1.419 . S
C938 C939 1.363 . S
C938 H941 0.929 . S
C939 C938 1.363 . S
C939 C945 1.428 . S
H940 C936 0.930 . S
H941 C938 0.929 . S
S942 N943 1.613 . S
S942 N944 1.610 . S
N943 S942 1.613 . S
N943 C946 1.350 . S
N944 S942 1.610 . S
N944 C945 1.351 . S
C945 C939 1.428 . S
C945 N944 1.351 . S
C945 C946 1.434 . S
C946 C937 1.429 . S
C946 N943 1.350 . S
C946 C945 1.434 . S
C947 C948 1.369 . S
C947 C949 1.419 . S
C947 H951 0.930 . S
C948 C947 1.369 . S
C948 C957 1.429 . S
C949 C947 1.419 . S
C949 C950 1.363 . S
C949 H952 0.929 . S
C950 C949 1.363 . S
C950 C956 1.428 . S
H951 C947 0.930 . S
H952 C949 0.929 . S
S953 N954 1.613 . S
S953 N955 1.610 . S
N954 S953 1.613 . S
N954 C957 1.350 1_554 S
N955 S953 1.610 . S
N955 C956 1.351 1_554 S
C956 C950 1.428 . S
C956 N955 1.351 1_556 S
C956 C957 1.434 . S
C957 C948 1.429 . S
C957 N954 1.350 1_556 S
C957 C956 1.434 . S
C958 C959 1.369 . S
C958 C960 1.419 . S
C958 H962 0.930 . S
C959 C958 1.369 . S
C959 C968 1.429 . S
C960 C958 1.419 . S
C960 C961 1.363 . S
C960 H963 0.929 . S
C961 C960 1.363 . S
C961 C967 1.428 . S
H962 C958 0.930 . S
H963 C960 0.929 . S
S964 N965 1.613 . S
S964 N966 1.610 . S
N965 S964 1.613 . S
N965 C968 1.350 . S
N966 S964 1.610 . S
N966 C967 1.351 . S
C967 C961 1.428 . S
C967 N966 1.351 . S
C967 C968 1.434 . S
C968 C959 1.429 . S
C968 N965 1.350 . S
C968 C967 1.434 . S
C969 C970 1.369 . S
C969 C971 1.419 . S
C969 H973 0.930 . S
C970 C969 1.369 . S
C970 C979 1.429 . S
C971 C969 1.419 . S
C971 C972 1.363 . S
C971 H974 0.929 . S
C972 C971 1.363 . S
C972 C978 1.428 . S
H973 C969 0.930 . S
H974 C971 0.929 . S
S975 N976 1.613 . S
S975 N977 1.610 . S
N976 S975 1.613 . S
N976 C979 1.350 . S
N977 S975 1.610 . S
N977 C978 1.351 . S
C978 C972 1.428 . S
C978 N977 1.351 . S
C978 C979 1.434 . S
C979 C970 1.429 . S
C979 N976 1.350 . S
C979 C978 1.434 . S
C980 C981 1.369 . S
C980 C982 1.419 . S
C980 H984 0.930 . S
C981 C980 1.369 . S
C981 C990 1.429 . S
C982 C980 1.419 . S
C982 C983 1.363 . S
C982 H985 0.929 1_554 S
C983 C982 1.363 . S
C983 C989 1.428 . S
H984 C980 0.930 . S
H985 C982 0.929 1_556 S
S986 N987 1.613 . S
S986 N988 1.610 . S
N987 S986 1.613 . S
N987 C990 1.350 . S
N988 S986 1.610 . S
N988 C989 1.351 . S
C989 C983 1.428 . S
C989 N988 1.351 . S
C989 C990 1.434 . S
C990 C981 1.429 . S
C990 N987 1.350 . S
C990 C989 1.434 . S
C991 C992 1.369 . S
C991 C993 1.419 . S
C991 H995 0.930 . S
C992 C991 1.369 . S
C992 C1001 1.429 . S
C993 C991 1.419 . S
C993 C994 1.363 . S
C993 H996 0.929 . S
C994 C993 1.363 . S
C994 C1000 1.428 . S
H995 C991 0.930 . S
H996 C993 0.929 . S
S997 N998 1.613 . S
S997 N999 1.610 . S
N998 S997 1.613 . S
N998 C1001 1.350 1_556 S
N999 S997 1.610 . S
N999 C1000 1.351 1_556 S
C1000 C994 1.428 . S
C1000 N999 1.351 1_554 S
C1000 C1001 1.434 . S
C1001 C992 1.429 . S
C1001 N998 1.350 1_554 S
C1001 C1000 1.434 . S
C1002 C1003 1.369 . S
C1002 C1004 1.419 . S
C1002 H1006 0.930 . S
C1003 C1002 1.369 . S
C1003 C1012 1.429 . S
C1004 C1002 1.419 . S
C1004 C1005 1.363 . S
C1004 H1007 0.929 . S
C1005 C1004 1.363 . S
C1005 C1011 1.428 . S
H1006 C1002 0.930 . S
H1007 C1004 0.929 . S
S1008 N1009 1.613 . S
S1008 N1010 1.610 . S
N1009 S1008 1.613 . S
N1009 C1012 1.350 . S
N1010 S1008 1.610 . S
N1010 C1011 1.351 . S
C1011 C1005 1.428 . S
C1011 N1010 1.351 . S
C1011 C1012 1.434 . S
C1012 C1003 1.429 . S
C1012 N1009 1.350 . S
C1012 C1011 1.434 . S
C1013 C1014 1.369 . S
C1013 C1015 1.419 . S
C1013 H1017 0.930 . S
C1014 C1013 1.369 . S
C1014 C1023 1.429 . S
C1015 C1013 1.419 . S
C1015 C1016 1.363 . S
C1015 H1018 0.929 . S
C1016 C1015 1.363 . S
C1016 C1022 1.428 . S
H1017 C1013 0.930 . S
H1018 C1015 0.929 . S
S1019 N1020 1.613 . S
S1019 N1021 1.610 . S
N1020 S1019 1.613 . S
N1020 C1023 1.350 . S
N1021 S1019 1.610 . S
N1021 C1022 1.351 . S
C1022 C1016 1.428 . S
C1022 N1021 1.351 . S
C1022 C1023 1.434 . S
C1023 C1014 1.429 . S
C1023 N1020 1.350 . S
C1023 C1022 1.434 . S
C1024 C1025 1.369 . S
C1024 C1026 1.419 . S
C1024 H1028 0.930 . S
C1025 C1024 1.369 . S
C1025 C1034 1.429 . S
C1026 C1024 1.419 . S
C1026 C1027 1.363 . S
C1026 H1029 0.929 . S
C1027 C1026 1.363 . S
C1027 C1033 1.428 . S
H1028 C1024 0.930 . S
H1029 C1026 0.929 . S
S1030 N1031 1.613 . S
S1030 N1032 1.610 . S
N1031 S1030 1.613 . S
N1031 C1034 1.350 . S
N1032 S1030 1.610 . S
N1032 C1033 1.351 . S
C1033 C1027 1.428 . S
C1033 N1032 1.351 . S
C1033 C1034 1.434 . S
C1034 C1025 1.429 . S
C1034 N1031 1.350 . S
C1034 C1033 1.434 . S
C1035 C1036 1.369 1_545 S
C1035 C1037 1.419 . S
C1035 H1039 0.930 . S
C1036 C1035 1.369 1_565 S
C1036 C1045 1.429 . S
C1037 C1035 1.419 . S
C1037 C1038 1.363 1_545 S
C1037 H1040 0.929 . S
C1038 C1037 1.363 1_565 S
C1038 C1044 1.428 . S
H1039 C1035 0.930 . S
H1040 C1037 0.929 . S
S1041 N1042 1.613 . S
S1041 N1043 1.610 . S
N1042 S1041 1.613 . S
N1042 C1045 1.350 . S
N1043 S1041 1.610 . S
N1043 C1044 1.351 . S
C1044 C1038 1.428 . S
C1044 N1043 1.351 . S
C1044 C1045 1.434 . S
C1045 C1036 1.429 . S
C1045 N1042 1.350 . S
C1045 C1044 1.434 . S
C1046 C1047 1.369 . S
C1046 C1048 1.419 . S
C1046 H1050 0.930 . S
C1047 C1046 1.369 . S
C1047 C1056 1.429 1_565 S
C1048 C1046 1.419 . S
C1048 C1049 1.363 . S
C1048 H1051 0.929 . S
C1049 C1048 1.363 . S
C1049 C1055 1.428 1_565 S
H1050 C1046 0.930 . S
H1051 C1048 0.929 . S
S1052 N1053 1.613 . S
S1052 N1054 1.610 . S
N1053 S1052 1.613 . S
N1053 C1056 1.350 . S
N1054 S1052 1.610 . S
N1054 C1055 1.351 . S
C1055 C1049 1.428 1_545 S
C1055 N1054 1.351 . S
C1055 C1056 1.434 . S
C1056 C1047 1.429 1_545 S
C1056 N1053 1.350 . S
C1056 C1055 1.434 . S
C1057 C1058 1.369 . S
C1057 C1059 1.419 . S
C1057 H1061 0.930 . S
C1058 C1057 1.369 . S
C1058 C1067 1.429 . S
C1059 C1057 1.419 . S
C1059 C1060 1.363 . S
C1059 H1062 0.929 . S
C1060 C1059 1.363 . S
C1060 C1066 1.428 . S
H1061 C1057 0.930 . S
H1062 C1059 0.929 . S
S1063 N1064 1.613 . S
S1063 N1065 1.610 . S
N1064 S1063 1.613 . S
N1064 C1067 1.350 . S
N1065 S1063 1.610 . S
N1065 C1066 1.351 . S
C1066 C1060 1.428 . S
C1066 N1065 1.351 . S
C1066 C1067 1.434 . S
C1067 C1058 1.429 . S
C1067 N1064 1.350 . S
C1067 C1066 1.434 . S
C1068 C1069 1.369 . S
C1068 C1070 1.419 . S
C1068 H1072 0.930 . S
C1069 C1068 1.369 . S
C1069 C1078 1.429 . S
C1070 C1068 1.419 . S
C1070 C1071 1.363 . S
C1070 H1073 0.929 . S
C1071 C1070 1.363 . S
C1071 C1077 1.428 . S
H1072 C1068 0.930 . S
H1073 C1070 0.929 . S
S1074 N1075 1.613 . S
S1074 N1076 1.610 . S
N1075 S1074 1.613 . S
N1075 C1078 1.350 . S
N1076 S1074 1.610 . S
N1076 C1077 1.351 . S
C1077 C1071 1.428 . S
C1077 N1076 1.351 . S
C1077 C1078 1.434 . S
C1078 C1069 1.429 . S
C1078 N1075 1.350 . S
C1078 C1077 1.434 . S
C1079 C1080 1.369 1_565 S
C1079 C1081 1.419 . S
C1079 H1083 0.930 . S
C1080 C1079 1.369 1_545 S
C1080 C1089 1.429 . S
C1081 C1079 1.419 . S
C1081 C1082 1.363 1_565 S
C1081 H1084 0.929 . S
C1082 C1081 1.363 1_545 S
C1082 C1088 1.428 . S
H1083 C1079 0.930 . S
H1084 C1081 0.929 . S
S1085 N1086 1.613 . S
S1085 N1087 1.610 . S
N1086 S1085 1.613 . S
N1086 C1089 1.350 . S
N1087 S1085 1.610 . S
N1087 C1088 1.351 . S
C1088 C1082 1.428 . S
C1088 N1087 1.351 . S
C1088 C1089 1.434 . S
C1089 C1080 1.429 . S
C1089 N1086 1.350 . S
C1089 C1088 1.434 . S
C1090 C1091 1.369 . S
C1090 C1092 1.419 . S
C1090 H1094 0.930 . S
C1091 C1090 1.369 . S
C1091 C1100 1.429 1_545 S
C1092 C1090 1.419 . S
C1092 C1093 1.363 . S
C1092 H1095 0.929 . S
C1093 C1092 1.363 . S
C1093 C1099 1.428 1_545 S
H1094 C1090 0.930 . S
H1095 C1092 0.929 . S
S1096 N1097 1.613 . S
S1096 N1098 1.610 . S
N1097 S1096 1.613 . S
N1097 C1100 1.350 . S
N1098 S1096 1.610 . S
N1098 C1099 1.351 . S
C1099 C1093 1.428 1_565 S
C1099 N1098 1.351 . S
C1099 C1100 1.434 . S
C1100 C1091 1.429 1_565 S
C1100 N1097 1.350 . S
C1100 C1099 1.434 . S
C1101 C1102 1.369 . S
C1101 C1103 1.419 . S
C1101 H1105 0.930 . S
C1102 C1101 1.369 . S
C1102 C1111 1.429 . S
C1103 C1101 1.419 . S
C1103 C1104 1.363 . S
C1103 H1106 0.929 . S
C1104 C1103 1.363 . S
C1104 C1110 1.428 . S
H1105 C1101 0.930 . S
H1106 C1103 0.929 . S
S1107 N1108 1.613 . S
S1107 N1109 1.610 . S
N1108 S1107 1.613 . S
N1108 C1111 1.350 . S
N1109 S1107 1.610 . S
N1109 C1110 1.351 . S
C1110 C1104 1.428 . S
C1110 N1109 1.351 . S
C1110 C1111 1.434 . S
C1111 C1102 1.429 . S
C1111 N1108 1.350 . S
C1111 C1110 1.434 . S
C1112 C1113 1.369 . S
C1112 C1114 1.419 . S
C1112 H1116 0.930 . S
C1113 C1112 1.369 . S
C1113 C1122 1.429 . S
C1114 C1112 1.419 . S
C1114 C1115 1.363 . S
C1114 H1117 0.929 . S
C1115 C1114 1.363 . S
C1115 C1121 1.428 . S
H1116 C1112 0.930 . S
H1117 C1114 0.929 . S
S1118 N1119 1.613 . S
S1118 N1120 1.610 . S
N1119 S1118 1.613 . S
N1119 C1122 1.350 . S
N1120 S1118 1.610 . S
N1120 C1121 1.351 . S
C1121 C1115 1.428 . S
C1121 N1120 1.351 . S
C1121 C1122 1.434 . S
C1122 C1113 1.429 . S
C1122 N1119 1.350 . S
C1122 C1121 1.434 . S
C1123 C1124 1.369 . S
C1123 C1125 1.419 . S
C1123 H1127 0.930 . S
C1124 C1123 1.369 . S
C1124 C1133 1.429 . S
C1125 C1123 1.419 . S
C1125 C1126 1.363 . S
C1125 H1128 0.929 . S
C1126 C1125 1.363 . S
C1126 C1132 1.428 . S
H1127 C1123 0.930 . S
H1128 C1125 0.929 . S
S1129 N1130 1.613 . S
S1129 N1131 1.610 . S
N1130 S1129 1.613 . S
N1130 C1133 1.350 . S
N1131 S1129 1.610 . S
N1131 C1132 1.351 . S
C1132 C1126 1.428 . S
C1132 N1131 1.351 . S
C1132 C1133 1.434 . S
C1133 C1124 1.429 . S
C1133 N1130 1.350 . S
C1133 C1132 1.434 . S
C1134 C1135 1.369 . S
C1134 C1136 1.419 1_556 S
C1134 H1138 0.930 . S
C1135 C1134 1.369 . S
C1135 C1144 1.429 . S
C1136 C1134 1.419 1_554 S
C1136 C1137 1.363 . S
C1136 H1139 0.929 . S
C1137 C1136 1.363 . S
C1137 C1143 1.428 . S
H1138 C1134 0.930 . S
H1139 C1136 0.929 . S
S1140 N1141 1.613 1_554 S
S1140 N1142 1.610 . S
N1141 S1140 1.613 1_556 S
N1141 C1144 1.350 . S
N1142 S1140 1.610 . S
N1142 C1143 1.351 . S
C1143 C1137 1.428 . S
C1143 N1142 1.351 . S
C1143 C1144 1.434 1_554 S
C1144 C1135 1.429 . S
C1144 N1141 1.350 . S
C1144 C1143 1.434 1_556 S
C1145 C1146 1.369 . S
C1145 C1147 1.419 1_556 S
C1145 H1149 0.930 . S
C1146 C1145 1.369 . S
C1146 C1155 1.429 1_556 S
C1147 C1145 1.419 1_554 S
C1147 C1148 1.363 . S
C1147 H1150 0.929 . S
C1148 C1147 1.363 . S
C1148 C1154 1.428 . S
H1149 C1145 0.930 . S
H1150 C1147 0.929 . S
S1151 N1152 1.613 1_554 S
S1151 N1153 1.610 . S
N1152 S1151 1.613 1_556 S
N1152 C1155 1.350 1_556 S
N1153 S1151 1.610 . S
N1153 C1154 1.351 . S
C1154 C1148 1.428 . S
C1154 N1153 1.351 . S
C1154 C1155 1.434 . S
C1155 C1146 1.429 1_554 S
C1155 N1152 1.350 1_554 S
C1155 C1154 1.434 . S
C1156 C1157 1.369 . S
C1156 C1158 1.419 . S
C1156 H1160 0.930 . S
C1157 C1156 1.369 . S
C1157 C1166 1.429 . S
C1158 C1156 1.419 . S
C1158 C1159 1.363 . S
C1158 H1161 0.929 . S
C1159 C1158 1.363 . S
C1159 C1165 1.428 . S
H1160 C1156 0.930 . S
H1161 C1158 0.929 . S
S1162 N1163 1.613 . S
S1162 N1164 1.610 . S
N1163 S1162 1.613 . S
N1163 C1166 1.350 . S
N1164 S1162 1.610 . S
N1164 C1165 1.351 . S
C1165 C1159 1.428 . S
C1165 N1164 1.351 . S
C1165 C1166 1.434 . S
C1166 C1157 1.429 . S
C1166 N1163 1.350 . S
C1166 C1165 1.434 . S
C1167 C1168 1.369 . S
C1167 C1169 1.419 . S
C1167 H1171 0.930 . S
C1168 C1167 1.369 . S
C1168 C1177 1.429 . S
C1169 C1167 1.419 . S
C1169 C1170 1.363 . S
C1169 H1172 0.929 . S
C1170 C1169 1.363 . S
C1170 C1176 1.428 . S
H1171 C1167 0.930 . S
H1172 C1169 0.929 . S
S1173 N1174 1.613 . S
S1173 N1175 1.610 . S
N1174 S1173 1.613 . S
N1174 C1177 1.350 . S
N1175 S1173 1.610 . S
N1175 C1176 1.351 . S
C1176 C1170 1.428 . S
C1176 N1175 1.351 . S
C1176 C1177 1.434 . S
C1177 C1168 1.429 . S
C1177 N1174 1.350 . S
C1177 C1176 1.434 . S
C1178 C1179 1.369 . S
C1178 C1180 1.419 1_554 S
C1178 H1182 0.930 . S
C1179 C1178 1.369 . S
C1179 C1188 1.429 . S
C1180 C1178 1.419 1_556 S
C1180 C1181 1.363 . S
C1180 H1183 0.929 . S
C1181 C1180 1.363 . S
C1181 C1187 1.428 . S
H1182 C1178 0.930 . S
H1183 C1180 0.929 . S
S1184 N1185 1.613 1_556 S
S1184 N1186 1.610 . S
N1185 S1184 1.613 1_554 S
N1185 C1188 1.350 . S
N1186 S1184 1.610 . S
N1186 C1187 1.351 . S
C1187 C1181 1.428 . S
C1187 N1186 1.351 . S
C1187 C1188 1.434 1_556 S
C1188 C1179 1.429 . S
C1188 N1185 1.350 . S
C1188 C1187 1.434 1_554 S
C1189 C1190 1.369 . S
C1189 C1191 1.419 . S
C1189 H1193 0.930 . S
C1190 C1189 1.369 . S
C1190 C1199 1.429 . S
C1191 C1189 1.419 . S
C1191 C1192 1.363 1_556 S
C1191 H1194 0.929 1_556 S
C1192 C1191 1.363 1_554 S
C1192 C1198 1.428 . S
H1193 C1189 0.930 . S
H1194 C1191 0.929 1_554 S
S1195 N1196 1.613 1_554 S
S1195 N1197 1.610 . S
N1196 S1195 1.613 1_556 S
N1196 C1199 1.350 . S
N1197 S1195 1.610 . S
N1197 C1198 1.351 . S
C1198 C1192 1.428 . S
C1198 N1197 1.351 . S
C1198 C1199 1.434 1_554 S
C1199 C1190 1.429 . S
C1199 N1196 1.350 . S
C1199 C1198 1.434 1_556 S
C1200 C1201 1.369 . S
C1200 C1202 1.419 . S
C1200 H1204 0.930 . S
C1201 C1200 1.369 . S
C1201 C1210 1.429 . S
C1202 C1200 1.419 . S
C1202 C1203 1.363 . S
C1202 H1205 0.929 . S
C1203 C1202 1.363 . S
C1203 C1209 1.428 . S
H1204 C1200 0.930 . S
H1205 C1202 0.929 . S
S1206 N1207 1.613 . S
S1206 N1208 1.610 . S
N1207 S1206 1.613 . S
N1207 C1210 1.350 . S
N1208 S1206 1.610 . S
N1208 C1209 1.351 . S
C1209 C1203 1.428 . S
C1209 N1208 1.351 . S
C1209 C1210 1.434 . S
C1210 C1201 1.429 . S
C1210 N1207 1.350 . S
C1210 C1209 1.434 . S
C1211 C1212 1.369 . S
C1211 C1213 1.419 1_565 S
C1211 H1215 0.930 1_565 S
C1212 C1211 1.369 . S
C1212 C1221 1.429 . S
C1213 C1211 1.419 1_545 S
C1213 C1214 1.363 1_545 S
C1213 H1216 0.929 . S
C1214 C1213 1.363 1_565 S
C1214 C1220 1.428 . S
H1215 C1211 0.930 1_545 S
H1216 C1213 0.929 . S
S1217 N1218 1.613 . S
S1217 N1219 1.610 . S
N1218 S1217 1.613 . S
N1218 C1221 1.350 . S
N1219 S1217 1.610 . S
N1219 C1220 1.351 . S
C1220 C1214 1.428 . S
C1220 N1219 1.351 . S
C1220 C1221 1.434 . S
C1221 C1212 1.429 . S
C1221 N1218 1.350 . S
C1221 C1220 1.434 . S
C1222 C1223 1.369 . S
C1222 C1224 1.419 1_556 S
C1222 H1226 0.930 . S
C1223 C1222 1.369 . S
C1223 C1232 1.429 1_565 S
C1224 C1222 1.419 1_554 S
C1224 C1225 1.363 . S
C1224 H1227 0.929 . S
C1225 C1224 1.363 . S
C1225 C1231 1.428 1_565 S
H1226 C1222 0.930 . S
H1227 C1224 0.929 . S
S1228 N1229 1.613 1_554 S
S1228 N1230 1.610 . S
N1229 S1228 1.613 1_556 S
N1229 C1232 1.350 . S
N1230 S1228 1.610 . S
N1230 C1231 1.351 . S
C1231 C1225 1.428 1_545 S
C1231 N1230 1.351 . S
C1231 C1232 1.434 1_554 S
C1232 C1223 1.429 1_545 S
C1232 N1229 1.350 . S
C1232 C1231 1.434 1_556 S
C1233 C1234 1.369 . S
C1233 C1235 1.419 1_556 S
C1233 H1237 0.930 . S
C1234 C1233 1.369 . S
C1234 C1243 1.429 . S
C1235 C1233 1.419 1_554 S
C1235 C1236 1.363 . S
C1235 H1238 0.929 . S
C1236 C1235 1.363 . S
C1236 C1242 1.428 . S
H1237 C1233 0.930 . S
H1238 C1235 0.929 . S
S1239 N1240 1.613 1_554 S
S1239 N1241 1.610 . S
N1240 S1239 1.613 1_556 S
N1240 C1243 1.350 . S
N1241 S1239 1.610 . S
N1241 C1242 1.351 . S
C1242 C1236 1.428 . S
C1242 N1241 1.351 . S
C1242 C1243 1.434 1_554 S
C1243 C1234 1.429 . S
C1243 N1240 1.350 . S
C1243 C1242 1.434 1_556 S
C1244 C1245 1.369 . S
C1244 C1246 1.419 . S
C1244 H1248 0.930 . S
C1245 C1244 1.369 . S
C1245 C1254 1.429 . S
C1246 C1244 1.419 . S
C1246 C1247 1.363 . S
C1246 H1249 0.929 . S
C1247 C1246 1.363 . S
C1247 C1253 1.428 . S
H1248 C1244 0.930 . S
H1249 C1246 0.929 . S
S1250 N1251 1.613 . S
S1250 N1252 1.610 . S
N1251 S1250 1.613 . S
N1251 C1254 1.350 . S
N1252 S1250 1.610 . S
N1252 C1253 1.351 . S
C1253 C1247 1.428 . S
C1253 N1252 1.351 . S
C1253 C1254 1.434 . S
C1254 C1245 1.429 . S
C1254 N1251 1.350 . S
C1254 C1253 1.434 . S
C1255 C1256 1.369 1_565 S
C1255 C1257 1.419 . S
C1255 H1259 0.930 . S
C1256 C1255 1.369 1_545 S
C1256 C1265 1.429 . S
C1257 C1255 1.419 . S
C1257 C1258 1.363 1_565 S
C1257 H1260 0.929 . S
C1258 C1257 1.363 1_545 S
C1258 C1264 1.428 . S
H1259 C1255 0.930 . S
H1260 C1257 0.929 . S
S1261 N1262 1.613 . S
S1261 N1263 1.610 . S
N1262 S1261 1.613 . S
N1262 C1265 1.350 . S
N1263 S1261 1.610 . S
N1263 C1264 1.351 . S
C1264 C1258 1.428 . S
C1264 N1263 1.351 . S
C1264 C1265 1.434 . S
C1265 C1256 1.429 . S
C1265 N1262 1.350 . S
C1265 C1264 1.434 . S
C1266 C1267 1.369 1_565 S
C1266 C1268 1.419 1_556 S
C1266 H1270 0.930 . S
C1267 C1266 1.369 1_545 S
C1267 C1276 1.429 . S
C1268 C1266 1.419 1_554 S
C1268 C1269 1.363 1_565 S
C1268 H1271 0.929 . S
C1269 C1268 1.363 1_545 S
C1269 C1275 1.428 . S
H1270 C1266 0.930 . S
H1271 C1268 0.929 . S
S1272 N1273 1.613 . S
S1272 N1274 1.610 1_556 S
N1273 S1272 1.613 . S
N1273 C1276 1.350 . S
N1274 S1272 1.610 1_554 S
N1274 C1275 1.351 . S
C1275 C1269 1.428 . S
C1275 N1274 1.351 . S
C1275 C1276 1.434 1_554 S
C1276 C1267 1.429 . S
C1276 N1273 1.350 . S
C1276 C1275 1.434 1_556 S
C1277 C1278 1.369 . S
C1277 C1279 1.419 1_556 S
C1277 H1281 0.930 . S
C1278 C1277 1.369 . S
C1278 C1287 1.429 . S
C1279 C1277 1.419 1_554 S
C1279 C1280 1.363 . S
C1279 H1282 0.929 . S
C1280 C1279 1.363 . S
C1280 C1286 1.428 . S
H1281 C1277 0.930 . S
H1282 C1279 0.929 . S
S1283 N1284 1.613 . S
S1283 N1285 1.610 1_556 S
N1284 S1283 1.613 . S
N1284 C1287 1.350 . S
N1285 S1283 1.610 1_554 S
N1285 C1286 1.351 . S
C1286 C1280 1.428 . S
C1286 N1285 1.351 . S
C1286 C1287 1.434 1_554 S
C1287 C1278 1.429 . S
C1287 N1284 1.350 . S
C1287 C1286 1.434 1_556 S
C1288 C1289 1.369 . S
C1288 C1290 1.419 . S
C1288 H1292 0.930 . S
C1289 C1288 1.369 . S
C1289 C1298 1.429 . S
C1290 C1288 1.419 . S
C1290 C1291 1.363 . S
C1290 H1293 0.929 . S
C1291 C1290 1.363 . S
C1291 C1297 1.428 . S
H1292 C1288 0.930 . S
H1293 C1290 0.929 . S
S1294 N1295 1.613 . S
S1294 N1296 1.610 . S
N1295 S1294 1.613 . S
N1295 C1298 1.350 . S
N1296 S1294 1.610 . S
N1296 C1297 1.351 . S
C1297 C1291 1.428 . S
C1297 N1296 1.351 . S
C1297 C1298 1.434 . S
C1298 C1289 1.429 . S
C1298 N1295 1.350 . S
C1298 C1297 1.434 . S
C1299 C1300 1.369 . S
C1299 C1301 1.419 . S
C1299 H1303 0.930 . S
C1300 C1299 1.369 . S
C1300 C1309 1.429 . S
C1301 C1299 1.419 . S
C1301 C1302 1.363 . S
C1301 H1304 0.929 . S
C1302 C1301 1.363 . S
C1302 C1308 1.428 . S
H1303 C1299 0.930 . S
H1304 C1301 0.929 . S
S1305 N1306 1.613 . S
S1305 N1307 1.610 . S
N1306 S1305 1.613 . S
N1306 C1309 1.350 . S
N1307 S1305 1.610 . S
N1307 C1308 1.351 . S
C1308 C1302 1.428 . S
C1308 N1307 1.351 . S
C1308 C1309 1.434 . S
C1309 C1300 1.429 . S
C1309 N1306 1.350 . S
C1309 C1308 1.434 . S
C1310 C1311 1.369 . S
C1310 C1312 1.419 . S
C1310 H1314 0.930 . S
C1311 C1310 1.369 . S
C1311 C1320 1.429 . S
C1312 C1310 1.419 . S
C1312 C1313 1.363 . S
C1312 H1315 0.929 . S
C1313 C1312 1.363 . S
C1313 C1319 1.428 . S
H1314 C1310 0.930 . S
H1315 C1312 0.929 . S
S1316 N1317 1.613 . S
S1316 N1318 1.610 . S
N1317 S1316 1.613 . S
N1317 C1320 1.350 . S
N1318 S1316 1.610 . S
N1318 C1319 1.351 . S
C1319 C1313 1.428 . S
C1319 N1318 1.351 . S
C1319 C1320 1.434 . S
C1320 C1311 1.429 . S
C1320 N1317 1.350 . S
C1320 C1319 1.434 . S
C1321 C1322 1.369 . S
C1321 C1323 1.419 . S
C1321 H1325 0.930 . S
C1322 C1321 1.369 . S
C1322 C1331 1.429 . S
C1323 C1321 1.419 . S
C1323 C1324 1.363 . S
C1323 H1326 0.929 . S
C1324 C1323 1.363 . S
C1324 C1330 1.428 . S
H1325 C1321 0.930 . S
H1326 C1323 0.929 . S
S1327 N1328 1.613 . S
S1327 N1329 1.610 . S
N1328 S1327 1.613 . S
N1328 C1331 1.350 . S
N1329 S1327 1.610 . S
N1329 C1330 1.351 . S
C1330 C1324 1.428 . S
C1330 N1329 1.351 . S
C1330 C1331 1.434 . S
C1331 C1322 1.429 . S
C1331 N1328 1.350 . S
C1331 C1330 1.434 . S
C1332 C1333 1.369 . S
C1332 C1334 1.419 . S
C1332 H1336 0.930 . S
C1333 C1332 1.369 . S
C1333 C1342 1.429 . S
C1334 C1332 1.419 . S
C1334 C1335 1.363 . S
C1334 H1337 0.929 . S
C1335 C1334 1.363 . S
C1335 C1341 1.428 . S
H1336 C1332 0.930 . S
H1337 C1334 0.929 . S
S1338 N1339 1.613 . S
S1338 N1340 1.610 . S
N1339 S1338 1.613 . S
N1339 C1342 1.350 . S
N1340 S1338 1.610 . S
N1340 C1341 1.351 . S
C1341 C1335 1.428 . S
C1341 N1340 1.351 . S
C1341 C1342 1.434 . S
C1342 C1333 1.429 . S
C1342 N1339 1.350 . S
C1342 C1341 1.434 . S
C1343 C1344 1.369 . S
C1343 C1345 1.419 . S
C1343 H1347 0.930 . S
C1344 C1343 1.369 . S
C1344 C1353 1.429 . S
C1345 C1343 1.419 . S
C1345 C1346 1.363 . S
C1345 H1348 0.929 . S
C1346 C1345 1.363 . S
C1346 C1352 1.428 . S
H1347 C1343 0.930 . S
H1348 C1345 0.929 . S
S1349 N1350 1.613 . S
S1349 N1351 1.610 . S
N1350 S1349 1.613 . S
N1350 C1353 1.350 . S
N1351 S1349 1.610 . S
N1351 C1352 1.351 . S
C1352 C1346 1.428 . S
C1352 N1351 1.351 . S
C1352 C1353 1.434 . S
C1353 C1344 1.429 . S
C1353 N1350 1.350 . S
C1353 C1352 1.434 . S
C1354 C1355 1.369 . S
C1354 C1356 1.419 . S
C1354 H1358 0.930 . S
C1355 C1354 1.369 . S
C1355 C1364 1.429 . S
C1356 C1354 1.419 . S
C1356 C1357 1.363 . S
C1356 H1359 0.929 . S
C1357 C1356 1.363 . S
C1357 C1363 1.428 . S
H1358 C1354 0.930 . S
H1359 C1356 0.929 . S
S1360 N1361 1.613 . S
S1360 N1362 1.610 . S
N1361 S1360 1.613 . S
N1361 C1364 1.350 . S
N1362 S1360 1.610 . S
N1362 C1363 1.351 . S
C1363 C1357 1.428 . S
C1363 N1362 1.351 . S
C1363 C1364 1.434 . S
C1364 C1355 1.429 . S
C1364 N1361 1.350 . S
C1364 C1363 1.434 . S
C1365 C1366 1.369 . S
C1365 C1367 1.419 . S
C1365 H1369 0.930 . S
C1366 C1365 1.369 . S
C1366 C1375 1.429 . S
C1367 C1365 1.419 . S
C1367 C1368 1.363 . S
C1367 H1370 0.929 . S
C1368 C1367 1.363 . S
C1368 C1374 1.428 . S
H1369 C1365 0.930 . S
H1370 C1367 0.929 . S
S1371 N1372 1.613 . S
S1371 N1373 1.610 . S
N1372 S1371 1.613 . S
N1372 C1375 1.350 . S
N1373 S1371 1.610 . S
N1373 C1374 1.351 . S
C1374 C1368 1.428 . S
C1374 N1373 1.351 . S
C1374 C1375 1.434 . S
C1375 C1366 1.429 . S
C1375 N1372 1.350 . S
C1375 C1374 1.434 . S
C1376 C1377 1.369 . S
C1376 C1378 1.419 . S
C1376 H1380 0.930 . S
C1377 C1376 1.369 . S
C1377 C1386 1.429 . S
C1378 C1376 1.419 . S
C1378 C1379 1.363 . S
C1378 H1381 0.929 . S
C1379 C1378 1.363 . S
C1379 C1385 1.428 . S
H1380 C1376 0.930 . S
H1381 C1378 0.929 . S
S1382 N1383 1.613 . S
S1382 N1384 1.610 . S
N1383 S1382 1.613 . S
N1383 C1386 1.350 . S
N1384 S1382 1.610 . S
N1384 C1385 1.351 . S
C1385 C1379 1.428 . S
C1385 N1384 1.351 . S
C1385 C1386 1.434 . S
C1386 C1377 1.429 . S
C1386 N1383 1.350 . S
C1386 C1385 1.434 . S
C1387 C1388 1.369 . S
C1387 C1389 1.419 . S
C1387 H1391 0.930 . S
C1388 C1387 1.369 . S
C1388 C1397 1.429 . S
C1389 C1387 1.419 . S
C1389 C1390 1.363 . S
C1389 H1392 0.929 . S
C1390 C1389 1.363 . S
C1390 C1396 1.428 . S
H1391 C1387 0.930 . S
H1392 C1389 0.929 . S
S1393 N1394 1.613 . S
S1393 N1395 1.610 . S
N1394 S1393 1.613 . S
N1394 C1397 1.350 . S
N1395 S1393 1.610 . S
N1395 C1396 1.351 . S
C1396 C1390 1.428 . S
C1396 N1395 1.351 . S
C1396 C1397 1.434 . S
C1397 C1388 1.429 . S
C1397 N1394 1.350 . S
C1397 C1396 1.434 . S
C1398 C1399 1.369 . S
C1398 C1400 1.419 . S
C1398 H1402 0.930 . S
C1399 C1398 1.369 . S
C1399 C1408 1.429 . S
C1400 C1398 1.419 . S
C1400 C1401 1.363 . S
C1400 H1403 0.929 . S
C1401 C1400 1.363 . S
C1401 C1407 1.428 . S
H1402 C1398 0.930 . S
H1403 C1400 0.929 . S
S1404 N1405 1.613 . S
S1404 N1406 1.610 . S
N1405 S1404 1.613 . S
N1405 C1408 1.350 . S
N1406 S1404 1.610 . S
N1406 C1407 1.351 . S
C1407 C1401 1.428 . S
C1407 N1406 1.351 . S
C1407 C1408 1.434 . S
C1408 C1399 1.429 . S
C1408 N1405 1.350 . S
C1408 C1407 1.434 . S
C1409 C1410 1.369 . S
C1409 C1411 1.419 . S
C1409 H1413 0.930 . S
C1410 C1409 1.369 . S
C1410 C1419 1.429 . S
C1411 C1409 1.419 . S
C1411 C1412 1.363 . S
C1411 H1414 0.929 1_556 S
C1412 C1411 1.363 . S
C1412 C1418 1.428 . S
H1413 C1409 0.930 . S
H1414 C1411 0.929 1_554 S
S1415 N1416 1.613 . S
S1415 N1417 1.610 . S
N1416 S1415 1.613 . S
N1416 C1419 1.350 . S
N1417 S1415 1.610 . S
N1417 C1418 1.351 . S
C1418 C1412 1.428 . S
C1418 N1417 1.351 . S
C1418 C1419 1.434 . S
C1419 C1410 1.429 . S
C1419 N1416 1.350 . S
C1419 C1418 1.434 . S
C1420 C1421 1.369 . S
C1420 C1422 1.419 . S
C1420 H1424 0.930 . S
C1421 C1420 1.369 . S
C1421 C1430 1.429 . S
C1422 C1420 1.419 . S
C1422 C1423 1.363 . S
C1422 H1425 0.929 . S
C1423 C1422 1.363 . S
C1423 C1429 1.428 . S
H1424 C1420 0.930 . S
H1425 C1422 0.929 . S
S1426 N1427 1.613 . S
S1426 N1428 1.610 . S
N1427 S1426 1.613 . S
N1427 C1430 1.350 . S
N1428 S1426 1.610 . S
N1428 C1429 1.351 . S
C1429 C1423 1.428 . S
C1429 N1428 1.351 . S
C1429 C1430 1.434 . S
C1430 C1421 1.429 . S
C1430 N1427 1.350 . S
C1430 C1429 1.434 . S
C1431 C1432 1.369 . S
C1431 C1433 1.419 . S
C1431 H1435 0.930 . S
C1432 C1431 1.369 . S
C1432 C1441 1.429 . S
C1433 C1431 1.419 . S
C1433 C1434 1.363 . S
C1433 H1436 0.929 . S
C1434 C1433 1.363 . S
C1434 C1440 1.428 . S
H1435 C1431 0.930 . S
H1436 C1433 0.929 . S
S1437 N1438 1.613 . S
S1437 N1439 1.610 . S
N1438 S1437 1.613 . S
N1438 C1441 1.350 . S
N1439 S1437 1.610 . S
N1439 C1440 1.351 . S
C1440 C1434 1.428 . S
C1440 N1439 1.351 . S
C1440 C1441 1.434 . S
C1441 C1432 1.429 . S
C1441 N1438 1.350 . S
C1441 C1440 1.434 . S
C1442 C1443 1.369 . S
C1442 C1444 1.419 . S
C1442 H1446 0.930 . S
C1443 C1442 1.369 . S
C1443 C1452 1.429 . S
C1444 C1442 1.419 . S
C1444 C1445 1.363 . S
C1444 H1447 0.929 . S
C1445 C1444 1.363 . S
C1445 C1451 1.428 . S
H1446 C1442 0.930 . S
H1447 C1444 0.929 . S
S1448 N1449 1.613 1_554 S
S1448 N1450 1.610 . S
N1449 S1448 1.613 1_556 S
N1449 C1452 1.350 1_556 S
N1450 S1448 1.610 . S
N1450 C1451 1.351 . S
C1451 C1445 1.428 . S
C1451 N1450 1.351 . S
C1451 C1452 1.434 . S
C1452 C1443 1.429 . S
C1452 N1449 1.350 1_554 S
C1452 C1451 1.434 . S
C1453 C1454 1.369 . S
C1453 C1455 1.419 . S
C1453 H1457 0.930 . S
C1454 C1453 1.369 . S
C1454 C1463 1.429 . S
C1455 C1453 1.419 . S
C1455 C1456 1.363 . S
C1455 H1458 0.929 . S
C1456 C1455 1.363 . S
C1456 C1462 1.428 . S
H1457 C1453 0.930 . S
H1458 C1455 0.929 . S
S1459 N1460 1.613 . S
S1459 N1461 1.610 1_556 S
N1460 S1459 1.613 . S
N1460 C1463 1.350 1_556 S
N1461 S1459 1.610 1_554 S
N1461 C1462 1.351 . S
C1462 C1456 1.428 . S
C1462 N1461 1.351 . S
C1462 C1463 1.434 . S
C1463 C1454 1.429 . S
C1463 N1460 1.350 1_554 S
C1463 C1462 1.434 . S
C1464 C1465 1.369 . S
C1464 C1466 1.419 . S
C1464 H1468 0.930 . S
C1465 C1464 1.369 . S
C1465 C1474 1.429 . S
C1466 C1464 1.419 . S
C1466 C1467 1.363 . S
C1466 H1469 0.929 . S
C1467 C1466 1.363 . S
C1467 C1473 1.428 . S
H1468 C1464 0.930 . S
H1469 C1466 0.929 . S
S1470 N1471 1.613 . S
S1470 N1472 1.610 1_554 S
N1471 S1470 1.613 . S
N1471 C1474 1.350 1_554 S
N1472 S1470 1.610 1_556 S
N1472 C1473 1.351 . S
C1473 C1467 1.428 . S
C1473 N1472 1.351 . S
C1473 C1474 1.434 . S
C1474 C1465 1.429 . S
C1474 N1471 1.350 1_556 S
C1474 C1473 1.434 . S
C1475 C1476 1.369 . S
C1475 C1477 1.419 . S
C1475 H1479 0.930 . S
C1476 C1475 1.369 . S
C1476 C1485 1.429 . S
C1477 C1475 1.419 . S
C1477 C1478 1.363 . S
C1477 H1480 0.929 . S
C1478 C1477 1.363 . S
C1478 C1484 1.428 . S
H1479 C1475 0.930 . S
H1480 C1477 0.929 . S
S1481 N1482 1.613 . S
S1481 N1483 1.610 . S
N1482 S1481 1.613 . S
N1482 C1485 1.350 1_554 S
N1483 S1481 1.610 . S
N1483 C1484 1.351 1_554 S
C1484 C1478 1.428 . S
C1484 N1483 1.351 1_556 S
C1484 C1485 1.434 . S
C1485 C1476 1.429 . S
C1485 N1482 1.350 1_556 S
C1485 C1484 1.434 . S
C1486 C1487 1.369 . S
C1486 C1488 1.419 . S
C1486 H1490 0.930 . S
C1487 C1486 1.369 . S
C1487 C1496 1.429 . S
C1488 C1486 1.419 . S
C1488 C1489 1.363 . S
C1488 H1491 0.929 . S
C1489 C1488 1.363 . S
C1489 C1495 1.428 . S
H1490 C1486 0.930 . S
H1491 C1488 0.929 . S
S1492 N1493 1.613 . S
S1492 N1494 1.610 . S
N1493 S1492 1.613 . S
N1493 C1496 1.350 . S
N1494 S1492 1.610 . S
N1494 C1495 1.351 . S
C1495 C1489 1.428 . S
C1495 N1494 1.351 . S
C1495 C1496 1.434 . S
C1496 C1487 1.429 . S
C1496 N1493 1.350 . S
C1496 C1495 1.434 . S
C1497 C1498 1.369 . S
C1497 C1499 1.419 . S
C1497 H1501 0.930 . S
C1498 C1497 1.369 . S
C1498 C1507 1.429 . S
C1499 C1497 1.419 . S
C1499 C1500 1.363 . S
C1499 H1502 0.929 . S
C1500 C1499 1.363 . S
C1500 C1506 1.428 . S
H1501 C1497 0.930 . S
H1502 C1499 0.929 . S
S1503 N1504 1.613 . S
S1503 N1505 1.610 . S
N1504 S1503 1.613 . S
N1504 C1507 1.350 . S
N1505 S1503 1.610 . S
N1505 C1506 1.351 . S
C1506 C1500 1.428 . S
C1506 N1505 1.351 . S
C1506 C1507 1.434 . S
C1507 C1498 1.429 . S
C1507 N1504 1.350 . S
C1507 C1506 1.434 . S
C1508 C1509 1.369 . S
C1508 C1510 1.419 . S
C1508 H1512 0.930 . S
C1509 C1508 1.369 . S
C1509 C1518 1.429 . S
C1510 C1508 1.419 . S
C1510 C1511 1.363 . S
C1510 H1513 0.929 . S
C1511 C1510 1.363 . S
C1511 C1517 1.428 . S
H1512 C1508 0.930 . S
H1513 C1510 0.929 . S
S1514 N1515 1.613 . S
S1514 N1516 1.610 1_556 S
N1515 S1514 1.613 . S
N1515 C1518 1.350 1_556 S
N1516 S1514 1.610 1_554 S
N1516 C1517 1.351 . S
C1517 C1511 1.428 . S
C1517 N1516 1.351 . S
C1517 C1518 1.434 . S
C1518 C1509 1.429 . S
C1518 N1515 1.350 1_554 S
C1518 C1517 1.434 . S
C1519 C1520 1.369 . S
C1519 C1521 1.419 . S
C1519 H1523 0.930 . S
C1520 C1519 1.369 . S
C1520 C1529 1.429 . S
C1521 C1519 1.419 . S
C1521 C1522 1.363 . S
C1521 H1524 0.929 1_554 S
C1522 C1521 1.363 . S
C1522 C1528 1.428 . S
H1523 C1519 0.930 . S
H1524 C1521 0.929 1_556 S
S1525 N1526 1.613 . S
S1525 N1527 1.610 . S
N1526 S1525 1.613 . S
N1526 C1529 1.350 . S
N1527 S1525 1.610 . S
N1527 C1528 1.351 . S
C1528 C1522 1.428 . S
C1528 N1527 1.351 . S
C1528 C1529 1.434 . S
C1529 C1520 1.429 . S
C1529 N1526 1.350 . S
C1529 C1528 1.434 . S
C1530 C1531 1.369 . S
C1530 C1532 1.419 . S
C1530 H1534 0.930 . S
C1531 C1530 1.369 . S
C1531 C1540 1.429 . S
C1532 C1530 1.419 . S
C1532 C1533 1.363 . S
C1532 H1535 0.929 . S
C1533 C1532 1.363 . S
C1533 C1539 1.428 . S
H1534 C1530 0.930 . S
H1535 C1532 0.929 . S
S1536 N1537 1.613 . S
S1536 N1538 1.610 . S
N1537 S1536 1.613 . S
N1537 C1540 1.350 . S
N1538 S1536 1.610 . S
N1538 C1539 1.351 . S
C1539 C1533 1.428 . S
C1539 N1538 1.351 . S
C1539 C1540 1.434 . S
C1540 C1531 1.429 . S
C1540 N1537 1.350 . S
C1540 C1539 1.434 . S
C1541 C1542 1.369 . S
C1541 C1543 1.419 . S
C1541 H1545 0.930 . S
C1542 C1541 1.369 . S
C1542 C1551 1.429 . S
C1543 C1541 1.419 . S
C1543 C1544 1.363 . S
C1543 H1546 0.929 . S
C1544 C1543 1.363 . S
C1544 C1550 1.428 . S
H1545 C1541 0.930 . S
H1546 C1543 0.929 . S
S1547 N1548 1.613 . S
S1547 N1549 1.610 . S
N1548 S1547 1.613 . S
N1548 C1551 1.350 . S
N1549 S1547 1.610 . S
N1549 C1550 1.351 . S
C1550 C1544 1.428 . S
C1550 N1549 1.351 . S
C1550 C1551 1.434 . S
C1551 C1542 1.429 . S
C1551 N1548 1.350 . S
C1551 C1550 1.434 . S
C1552 C1553 1.369 . S
C1552 C1554 1.419 . S
C1552 H1556 0.930 . S
C1553 C1552 1.369 . S
C1553 C1562 1.429 . S
C1554 C1552 1.419 . S
C1554 C1555 1.363 . S
C1554 H1557 0.929 1_554 S
C1555 C1554 1.363 . S
C1555 C1561 1.428 . S
H1556 C1552 0.930 . S
H1557 C1554 0.929 1_556 S
S1558 N1559 1.613 . S
S1558 N1560 1.610 . S
N1559 S1558 1.613 . S
N1559 C1562 1.350 . S
N1560 S1558 1.610 . S
N1560 C1561 1.351 . S
C1561 C1555 1.428 . S
C1561 N1560 1.351 . S
C1561 C1562 1.434 . S
C1562 C1553 1.429 . S
C1562 N1559 1.350 . S
C1562 C1561 1.434 . S
C1563 C1564 1.369 . S
C1563 C1565 1.419 . S
C1563 H1567 0.930 . S
C1564 C1563 1.369 . S
C1564 C1573 1.429 . S
C1565 C1563 1.419 . S
C1565 C1566 1.363 . S
C1565 H1568 0.929 . S
C1566 C1565 1.363 . S
C1566 C1572 1.428 . S
H1567 C1563 0.930 . S
H1568 C1565 0.929 . S
S1569 N1570 1.613 . S
S1569 N1571 1.610 . S
N1570 S1569 1.613 . S
N1570 C1573 1.350 . S
N1571 S1569 1.610 . S
N1571 C1572 1.351 . S
C1572 C1566 1.428 . S
C1572 N1571 1.351 . S
C1572 C1573 1.434 . S
C1573 C1564 1.429 . S
C1573 N1570 1.350 . S
C1573 C1572 1.434 . S
C1574 C1575 1.369 . S
C1574 C1576 1.419 . S
C1574 H1578 0.930 . S
C1575 C1574 1.369 . S
C1575 C1584 1.429 . S
C1576 C1574 1.419 . S
C1576 C1577 1.363 . S
C1576 H1579 0.929 . S
C1577 C1576 1.363 . S
C1577 C1583 1.428 . S
H1578 C1574 0.930 . S
H1579 C1576 0.929 . S
S1580 N1581 1.613 . S
S1580 N1582 1.610 . S
N1581 S1580 1.613 . S
N1581 C1584 1.350 . S
N1582 S1580 1.610 . S
N1582 C1583 1.351 . S
C1583 C1577 1.428 . S
C1583 N1582 1.351 . S
C1583 C1584 1.434 . S
C1584 C1575 1.429 . S
C1584 N1581 1.350 . S
C1584 C1583 1.434 . S
C1585 C1586 1.369 . S
C1585 C1587 1.419 . S
C1585 H1589 0.930 . S
C1586 C1585 1.369 . S
C1586 C1595 1.429 . S
C1587 C1585 1.419 . S
C1587 C1588 1.363 . S
C1587 H1590 0.929 . S
C1588 C1587 1.363 . S
C1588 C1594 1.428 . S
H1589 C1585 0.930 . S
H1590 C1587 0.929 . S
S1591 N1592 1.613 . S
S1591 N1593 1.610 . S
N1592 S1591 1.613 . S
N1592 C1595 1.350 . S
N1593 S1591 1.610 . S
N1593 C1594 1.351 . S
C1594 C1588 1.428 . S
C1594 N1593 1.351 . S
C1594 C1595 1.434 . S
C1595 C1586 1.429 . S
C1595 N1592 1.350 . S
C1595 C1594 1.434 . S
C1596 C1597 1.369 . S
C1596 C1598 1.419 . S
C1596 H1600 0.930 . S
C1597 C1596 1.369 . S
C1597 C1606 1.429 . S
C1598 C1596 1.419 . S
C1598 C1599 1.363 . S
C1598 H1601 0.929 . S
C1599 C1598 1.363 . S
C1599 C1605 1.428 . S
H1600 C1596 0.930 . S
H1601 C1598 0.929 . S
S1602 N1603 1.613 . S
S1602 N1604 1.610 . S
N1603 S1602 1.613 . S
N1603 C1606 1.350 . S
N1604 S1602 1.610 . S
N1604 C1605 1.351 . S
C1605 C1599 1.428 . S
C1605 N1604 1.351 . S
C1605 C1606 1.434 . S
C1606 C1597 1.429 . S
C1606 N1603 1.350 . S
C1606 C1605 1.434 . S
C1607 C1608 1.369 . S
C1607 C1609 1.419 . S
C1607 H1611 0.930 . S
C1608 C1607 1.369 . S
C1608 C1617 1.429 . S
C1609 C1607 1.419 . S
C1609 C1610 1.363 . S
C1609 H1612 0.929 . S
C1610 C1609 1.363 . S
C1610 C1616 1.428 . S
H1611 C1607 0.930 . S
H1612 C1609 0.929 . S
S1613 N1614 1.613 . S
S1613 N1615 1.610 . S
N1614 S1613 1.613 . S
N1614 C1617 1.350 . S
N1615 S1613 1.610 . S
N1615 C1616 1.351 . S
C1616 C1610 1.428 . S
C1616 N1615 1.351 . S
C1616 C1617 1.434 . S
C1617 C1608 1.429 . S
C1617 N1614 1.350 . S
C1617 C1616 1.434 . S
C1618 C1619 1.369 . S
C1618 C1620 1.419 . S
C1618 H1622 0.930 . S
C1619 C1618 1.369 . S
C1619 C1628 1.429 . S
C1620 C1618 1.419 . S
C1620 C1621 1.363 . S
C1620 H1623 0.929 . S
C1621 C1620 1.363 . S
C1621 C1627 1.428 . S
H1622 C1618 0.930 . S
H1623 C1620 0.929 . S
S1624 N1625 1.613 . S
S1624 N1626 1.610 . S
N1625 S1624 1.613 . S
N1625 C1628 1.350 . S
N1626 S1624 1.610 . S
N1626 C1627 1.351 . S
C1627 C1621 1.428 . S
C1627 N1626 1.351 . S
C1627 C1628 1.434 . S
C1628 C1619 1.429 . S
C1628 N1625 1.350 . S
C1628 C1627 1.434 . S
C1629 C1630 1.369 . S
C1629 C1631 1.419 . S
C1629 H1633 0.930 . S
C1630 C1629 1.369 . S
C1630 C1639 1.429 . S
C1631 C1629 1.419 . S
C1631 C1632 1.363 . S
C1631 H1634 0.929 . S
C1632 C1631 1.363 . S
C1632 C1638 1.428 . S
H1633 C1629 0.930 . S
H1634 C1631 0.929 . S
S1635 N1636 1.613 . S
S1635 N1637 1.610 . S
N1636 S1635 1.613 . S
N1636 C1639 1.350 . S
N1637 S1635 1.610 . S
N1637 C1638 1.351 . S
C1638 C1632 1.428 . S
C1638 N1637 1.351 . S
C1638 C1639 1.434 . S
C1639 C1630 1.429 . S
C1639 N1636 1.350 . S
C1639 C1638 1.434 . S
C1640 C1641 1.369 . S
C1640 C1642 1.419 . S
C1640 H1644 0.930 . S
C1641 C1640 1.369 . S
C1641 C1650 1.429 . S
C1642 C1640 1.419 . S
C1642 C1643 1.363 . S
C1642 H1645 0.929 . S
C1643 C1642 1.363 . S
C1643 C1649 1.428 . S
H1644 C1640 0.930 . S
H1645 C1642 0.929 . S
S1646 N1647 1.613 . S
S1646 N1648 1.610 . S
N1647 S1646 1.613 . S
N1647 C1650 1.350 . S
N1648 S1646 1.610 . S
N1648 C1649 1.351 . S
C1649 C1643 1.428 . S
C1649 N1648 1.351 . S
C1649 C1650 1.434 . S
C1650 C1641 1.429 . S
C1650 N1647 1.350 . S
C1650 C1649 1.434 . S
C1651 C1652 1.369 . S
C1651 C1653 1.419 . S
C1651 H1655 0.930 . S
C1652 C1651 1.369 . S
C1652 C1661 1.429 . S
C1653 C1651 1.419 . S
C1653 C1654 1.363 . S
C1653 H1656 0.929 . S
C1654 C1653 1.363 . S
C1654 C1660 1.428 . S
H1655 C1651 0.930 . S
H1656 C1653 0.929 . S
S1657 N1658 1.613 . S
S1657 N1659 1.610 . S
N1658 S1657 1.613 . S
N1658 C1661 1.350 . S
N1659 S1657 1.610 . S
N1659 C1660 1.351 . S
C1660 C1654 1.428 . S
C1660 N1659 1.351 . S
C1660 C1661 1.434 . S
C1661 C1652 1.429 . S
C1661 N1658 1.350 . S
C1661 C1660 1.434 . S
C1662 C1663 1.369 . S
C1662 C1664 1.419 . S
C1662 H1666 0.930 . S
C1663 C1662 1.369 . S
C1663 C1672 1.429 . S
C1664 C1662 1.419 . S
C1664 C1665 1.363 . S
C1664 H1667 0.929 . S
C1665 C1664 1.363 . S
C1665 C1671 1.428 . S
H1666 C1662 0.930 . S
H1667 C1664 0.929 . S
S1668 N1669 1.613 . S
S1668 N1670 1.610 . S
N1669 S1668 1.613 . S
N1669 C1672 1.350 . S
N1670 S1668 1.610 . S
N1670 C1671 1.351 . S
C1671 C1665 1.428 . S
C1671 N1670 1.351 . S
C1671 C1672 1.434 . S
C1672 C1663 1.429 . S
C1672 N1669 1.350 . S
C1672 C1671 1.434 . S
C1673 C1674 1.369 . S
C1673 C1675 1.419 . S
C1673 H1677 0.930 . S
C1674 C1673 1.369 . S
C1674 C1683 1.429 . S
C1675 C1673 1.419 . S
C1675 C1676 1.363 . S
C1675 H1678 0.929 . S
C1676 C1675 1.363 . S
C1676 C1682 1.428 . S
H1677 C1673 0.930 . S
H1678 C1675 0.929 . S
S1679 N1680 1.613 . S
S1679 N1681 1.610 . S
N1680 S1679 1.613 . S
N1680 C1683 1.350 . S
N1681 S1679 1.610 . S
N1681 C1682 1.351 . S
C1682 C1676 1.428 . S
C1682 N1681 1.351 . S
C1682 C1683 1.434 . S
C1683 C1674 1.429 . S
C1683 N1680 1.350 . S
C1683 C1682 1.434 . S
C1684 C1685 1.369 . S
C1684 C1686 1.419 . S
C1684 H1688 0.930 . S
C1685 C1684 1.369 . S
C1685 C1694 1.429 . S
C1686 C1684 1.419 . S
C1686 C1687 1.363 . S
C1686 H1689 0.929 . S
C1687 C1686 1.363 . S
C1687 C1693 1.428 . S
H1688 C1684 0.930 . S
H1689 C1686 0.929 . S
S1690 N1691 1.613 . S
S1690 N1692 1.610 . S
N1691 S1690 1.613 . S
N1691 C1694 1.350 1_556 S
N1692 S1690 1.610 . S
N1692 C1693 1.351 1_556 S
C1693 C1687 1.428 . S
C1693 N1692 1.351 1_554 S
C1693 C1694 1.434 . S
C1694 C1685 1.429 . S
C1694 N1691 1.350 1_554 S
C1694 C1693 1.434 . S
C1695 C1696 1.369 . S
C1695 C1697 1.419 . S
C1695 H1699 0.930 1_554 S
C1696 C1695 1.369 . S
C1696 C1705 1.429 . S
C1697 C1695 1.419 . S
C1697 C1698 1.363 . S
C1697 H1700 0.929 1_554 S
C1698 C1697 1.363 . S
C1698 C1704 1.428 . S
H1699 C1695 0.930 1_556 S
H1700 C1697 0.929 1_556 S
S1701 N1702 1.613 . S
S1701 N1703 1.610 . S
N1702 S1701 1.613 . S
N1702 C1705 1.350 . S
N1703 S1701 1.610 . S
N1703 C1704 1.351 . S
C1704 C1698 1.428 . S
C1704 N1703 1.351 . S
C1704 C1705 1.434 . S
C1705 C1696 1.429 . S
C1705 N1702 1.350 . S
C1705 C1704 1.434 . S
C1706 C1707 1.369 . S
C1706 C1708 1.419 . S
C1706 H1710 0.930 . S
C1707 C1706 1.369 . S
C1707 C1716 1.429 . S
C1708 C1706 1.419 . S
C1708 C1709 1.363 . S
C1708 H1711 0.929 . S
C1709 C1708 1.363 . S
C1709 C1715 1.428 . S
H1710 C1706 0.930 . S
H1711 C1708 0.929 . S
S1712 N1713 1.613 . S
S1712 N1714 1.610 . S
N1713 S1712 1.613 . S
N1713 C1716 1.350 . S
N1714 S1712 1.610 . S
N1714 C1715 1.351 . S
C1715 C1709 1.428 . S
C1715 N1714 1.351 . S
C1715 C1716 1.434 . S
C1716 C1707 1.429 . S
C1716 N1713 1.350 . S
C1716 C1715 1.434 . S
C1717 C1718 1.369 . S
C1717 C1719 1.419 . S
C1717 H1721 0.930 . S
C1718 C1717 1.369 . S
C1718 C1727 1.429 . S
C1719 C1717 1.419 . S
C1719 C1720 1.363 . S
C1719 H1722 0.929 . S
C1720 C1719 1.363 . S
C1720 C1726 1.428 . S
H1721 C1717 0.930 . S
H1722 C1719 0.929 . S
S1723 N1724 1.613 . S
S1723 N1725 1.610 . S
N1724 S1723 1.613 . S
N1724 C1727 1.350 . S
N1725 S1723 1.610 . S
N1725 C1726 1.351 . S
C1726 C1720 1.428 . S
C1726 N1725 1.351 . S
C1726 C1727 1.434 . S
C1727 C1718 1.429 . S
C1727 N1724 1.350 . S
C1727 C1726 1.434 . S
C673 C605 1.471 . S
C675 C17 1.480 . S
C684 C122 1.475 1_565 S
C686 C38 1.478 1_545 S
C695 C479 1.481 1_565 S
C697 C59 1.473 1_545 S
C706 C332 1.482 . S
C708 C80 1.472 . S
C717 C101 1.482 . S
C719 C521 1.472 . S
C728 C395 1.480 1_545 S
C730 C143 1.464 1_565 S
C739 C248 1.474 . S
C741 C164 1.478 . S
C750 C437 1.475 . S
C752 C185 1.478 . S
C761 C206 1.482 . S
C763 C290 1.472 . S
C772 C227 1.477 . S
C774 C647 1.476 . S
C783 C353 1.471 . S
C785 C269 1.480 . S
C794 C311 1.479 . S
C796 C563 1.475 . S
C805 C374 1.465 1_545 S
C807 C458 1.479 1_565 S
C816 C416 1.476 . S
C818 C668 1.476 . S
C827 C584 1.476 . S
C829 C500 1.477 . S
C838 C626 1.474 . S
C840 C542 1.479 . S
C849 C412 1.451 . S
C851 C13 1.447 . S
C860 C391 1.457 . S
C862 C34 1.453 . S
C871 C370 1.447 . S
C873 C55 1.449 . S
C882 C349 1.454 . S
C884 C76 1.450 . S
C893 C496 1.454 . S
C895 C97 1.449 . S
C904 C118 1.457 . S
C906 C475 1.454 . S
C915 C139 1.456 . S
C917 C454 1.455 . S
C926 C160 1.444 . S
C928 C433 1.449 . S
C937 C181 1.444 . S
C939 C580 1.448 . S
C948 C202 1.448 . S
C950 C559 1.452 . S
C959 C223 1.450 . S
C961 C538 1.446 . S
C970 C517 1.444 . S
C972 C244 1.446 . S
C981 C265 1.452 . S
C983 C664 1.447 . S
C992 C286 1.444 . S
C994 C643 1.449 . S
C1003 C307 1.447 . S
C1005 C622 1.445 . S
C1014 C601 1.446 . S
C1016 C328 1.451 . S
C1025 C14 1.231 . S
C1027 C16 1.222 . S
C1036 C35 1.234 1_565 S
C1038 C37 1.219 . S
C1047 C58 1.225 . S
C1049 C56 1.229 1_565 S
C1058 C79 1.216 . S
C1060 C77 1.236 . S
C1069 C100 1.216 . S
C1071 C98 1.233 . S
C1080 C121 1.221 . S
C1082 C119 1.233 1_545 S
C1091 C142 1.219 . S
C1093 C140 1.231 1_545 S
C1102 C161 1.227 . S
C1104 C163 1.224 . S
C1113 C182 1.231 1_554 S
C1115 C184 1.220 . S
C1124 C205 1.222 . S
C1126 C203 1.232 1_554 S
C1135 C226 1.225 . S
C1137 C224 1.229 . S
C1146 C247 1.217 . S
C1148 C245 1.236 . S
C1157 C268 1.218 . S
C1159 C266 1.232 1_556 S
C1168 C287 1.234 1_556 S
C1170 C289 1.220 . S
C1179 C310 1.223 . S
C1181 C308 1.229 . S
C1190 C329 1.230 . S
C1192 C331 1.219 . S
C1201 C350 1.230 1_554 S
C1203 C352 1.223 . S
C1212 C373 1.215 . S
C1214 C371 1.235 1_564 S
C1223 C394 1.225 . S
C1225 C392 1.229 1_565 S
C1234 C415 1.213 . S
C1236 C413 1.237 . S
C1245 C434 1.230 1_556 S
C1247 C436 1.219 . S
C1256 C457 1.224 . S
C1258 C455 1.231 1_546 S
C1267 C476 1.238 1_545 S
C1269 C478 1.215 . S
C1278 C497 1.236 . S
C1280 C499 1.215 . S
C1289 C518 1.238 . S
C1291 C520 1.215 . S
C1300 C541 1.218 . S
C1302 C539 1.235 . S
C1311 C562 1.213 . S
C1313 C560 1.237 . S
C1322 C581 1.227 . S
C1324 C583 1.224 . S
C1333 C604 1.218 . S
C1335 C602 1.235 . S
C1344 C623 1.228 . S
C1346 C625 1.222 . S
C1355 C644 1.235 . S
C1357 C646 1.216 . S
C1366 C665 1.229 . S
C1368 C667 1.221 . S
C1377 C228 1.304 . S
C1379 C18 1.313 . S
C1388 C249 1.316 . S
C1390 C39 1.306 . S
C1399 C60 1.318 1_556 S
C1401 C186 1.313 . S
C1410 C207 1.308 . S
C1412 C81 1.316 1_556 S
C1421 C102 1.310 . S
C1423 C312 1.317 . S
C1432 C123 1.304 . S
C1434 C333 1.310 . S
C1443 C144 1.306 1_554 S
C1445 C270 1.308 . S
C1454 C165 1.304 1_554 S
C1456 C291 1.310 . S
C1465 C564 1.303 1_556 S
C1467 C354 1.311 . S
C1476 C375 1.317 . S
C1478 C585 1.307 1_556 S
C1487 C522 1.305 . S
C1489 C396 1.315 . S
C1498 C417 1.304 . S
C1500 C543 1.314 . S
C1509 C648 1.310 1_554 S
C1511 C438 1.317 . S
C1520 C459 1.307 . S
C1522 C669 1.317 1_554 S
C1531 C480 1.304 . S
C1533 C606 1.315 . S
C1542 C627 1.311 . S
C1544 C501 1.305 . S
C1553 C15 1.357 . S
C1555 C57 1.369 . S
C1564 C78 1.366 . S
C1566 C36 1.367 . S
C1575 C141 1.354 . S
C1577 C99 1.363 . S
C1586 C120 1.370 . S
C1588 C162 1.364 . S
C1597 C183 1.370 . S
C1599 C225 1.363 . S
C1608 C246 1.371 . S
C1610 C204 1.358 . S
C1619 C309 1.355 . S
C1621 C267 1.366 . S
C1630 C330 1.354 . S
C1632 C288 1.364 . S
C1641 C393 1.368 . S
C1643 C351 1.356 . S
C1652 C414 1.356 . S
C1654 C372 1.369 . S
C1663 C477 1.358 . S
C1665 C435 1.369 . S
C1674 C498 1.356 . S
C1676 C456 1.361 . S
C1685 C519 1.371 . S
C1687 C561 1.361 . S
C1696 C540 1.354 . S
C1698 C582 1.365 . S
C1707 C603 1.355 . S
C1709 C645 1.362 . S
C1718 C666 1.356 . S
C1720 C624 1.361 . S
