# Generated by pormake.
# Topology mok, (4)-cn, num edge types: 1
# Building blocks:
#     Node 0, Type 0, BuildingBlock: TATPOV_clean_sbu_0, # of connection points: 4
#     Node 1, Type 0, BuildingBlock: TATPOV_clean_sbu_0, # of connection points: 4
#     Node 2, Type 0, BuildingBlock: TATPOV_clean_sbu_0, # of connection points: 4
#     Node 3, Type 0, BuildingBlock: TATPOV_clean_sbu_0, # of connection points: 4
#     Node 4, Type 0, BuildingBlock: TATPOV_clean_sbu_0, # of connection points: 4
#     Node 5, Type 0, BuildingBlock: TATPOV_clean_sbu_0, # of connection points: 4
#     Node 6, Type 0, BuildingBlock: TATPOV_clean_sbu_0, # of connection points: 4
#     Node 7, Type 0, BuildingBlock: TATPOV_clean_sbu_0, # of connection points: 4
#     Edge 8, Type (0, 0), BuildingBlock: XUDNAN_clean_linker_2, # of connection points: 2
#     Edge 9, Type (0, 0), BuildingBlock: XUDNAN_clean_linker_2, # of connection points: 2
#     Edge 10, Type (0, 0), BuildingBlock: XUDNAN_clean_linker_2, # of connection points: 2
#     Edge 11, Type (0, 0), BuildingBlock: XUDNAN_clean_linker_2, # of connection points: 2
#     Edge 12, Type (0, 0), BuildingBlock: XUDNAN_clean_linker_2, # of connection points: 2
#     Edge 13, Type (0, 0), BuildingBlock: XUDNAN_clean_linker_2, # of connection points: 2
#     Edge 14, Type (0, 0), BuildingBlock: XUDNAN_clean_linker_2, # of connection points: 2
#     Edge 15, Type (0, 0), BuildingBlock: XUDNAN_clean_linker_2, # of connection points: 2
#     Edge 16, Type (0, 0), BuildingBlock: XUDNAN_clean_linker_2, # of connection points: 2
#     Edge 17, Type (0, 0), BuildingBlock: XUDNAN_clean_linker_2, # of connection points: 2
#     Edge 18, Type (0, 0), BuildingBlock: XUDNAN_clean_linker_2, # of connection points: 2
#     Edge 19, Type (0, 0), BuildingBlock: XUDNAN_clean_linker_2, # of connection points: 2
#     Edge 20, Type (0, 0), BuildingBlock: XUDNAN_clean_linker_2, # of connection points: 2
#     Edge 21, Type (0, 0), BuildingBlock: XUDNAN_clean_linker_2, # of connection points: 2
#     Edge 22, Type (0, 0), BuildingBlock: XUDNAN_clean_linker_2, # of connection points: 2
#     Edge 23, Type (0, 0), BuildingBlock: XUDNAN_clean_linker_2, # of connection points: 2
# Relax obj value: 0.024
# Max RMSD: 0.042
# Mean RMSD: 0.042
data_MOF--net-mok--node1-TATPOV_clean_sbu_0--edge1-XUDNAN_clean_linker_2
_symmetry_space_group_name_H-M    P1
_symmetry_Int_Tables_number       1
_symmetry_cell_setting            triclinic
loop_
_symmetry_equiv_pos_as_xyz
'x, y, z'
_cell_length_a     45.870072
_cell_length_b     20.000716
_cell_length_c     26.856513
_cell_angle_alpha  89.9489
_cell_angle_beta   90.319786
_cell_angle_gamma 89.838032
loop_
_atom_site_label
_atom_site_type_symbol
_atom_site_fract_x
_atom_site_fract_y
_atom_site_fract_z
_atom_type_partial_charge
Zn0 Zn 0.63221 0.44271 -0.01 0.0
Zn1 Zn 0.6012 0.32518 -0.00731 0.0
O2 O 0.58754 0.37847 0.05334 0.0
O3 O 0.61244 0.47242 0.05333 0.0
O4 O 0.57837 0.23859 -0.00127 0.0
O5 O 0.61132 0.46193 0.92491 0.0
O6 O 0.58708 0.36693 0.92735 0.0
C7 C 0.59335 0.43503 0.07268 0.0
C8 C 0.66895 0.32537 -0.0066 0.0
O9 O 0.64434 0.29569 -0.00644 0.0
O10 O 0.66996 0.38868 -0.00781 0.0
C11 C 0.57652 0.21179 0.04158 0.0
O12 O 0.59024 0.2398 0.0792 0.0
C13 C 0.59279 0.42227 0.90605 0.0
Zn14 Zn 0.3956 0.58285 0.98558 0.0
Zn15 Zn 0.42652 0.69958 -0.01167 0.0
O16 O 0.44027 0.64653 0.0497 0.0
O17 O 0.41524 0.55281 0.0492 0.0
O18 O 0.4493 0.78621 -0.00505 0.0
O19 O 0.416 0.56335 0.92071 0.0
O20 O 0.44031 0.65826 0.9226 0.0
C21 C 0.43431 0.59007 0.06904 0.0
C22 C 0.35871 0.6994 -0.01197 0.0
O23 O 0.38331 0.72916 -0.01142 0.0
O24 O 0.35774 0.63611 -0.01305 0.0
C25 C 0.45051 0.81314 0.03782 0.0
O26 O 0.43619 0.78526 0.0746 0.0
C27 C 0.4343 0.60292 0.90145 0.0
Zn28 Zn 0.61477 0.52969 0.49125 0.0
Zn29 Zn 0.59971 0.65879 0.49338 0.0
O30 O 0.58263 0.62394 0.42631 0.0
O31 O 0.59413 0.51678 0.42701 0.0
O32 O 0.5856 0.7552 0.49784 0.0
O33 O 0.59182 0.51023 0.55206 0.0
O34 O 0.58089 0.61744 0.55649 0.0
C35 C 0.58168 0.56607 0.40645 0.0
C36 C 0.66458 0.61807 0.4963 0.0
O37 O 0.64506 0.66378 0.49617 0.0
O38 O 0.65712 0.55715 0.49443 0.0
C39 C 0.57545 0.78947 0.46166 0.0
O40 O 0.57506 0.76338 0.41679 0.0
C41 C 0.57895 0.55805 0.57348 0.0
Zn42 Zn 0.40765 0.45916 0.48385 0.0
Zn43 Zn 0.43785 0.34155 0.48777 0.0
O44 O 0.45235 0.38325 0.42216 0.0
O45 O 0.42828 0.4791 0.41989 0.0
O46 O 0.46059 0.25489 0.49494 0.0
O47 O 0.42763 0.48952 0.54642 0.0
O48 O 0.45039 0.39236 0.55126 0.0
C49 C 0.44661 0.43901 0.40127 0.0
C50 C 0.37026 0.34336 0.48496 0.0
O51 O 0.39472 0.31271 0.48559 0.0
O52 O 0.36956 0.40672 0.485 0.0
C53 C 0.467 0.21536 0.45952 0.0
O54 O 0.45815 0.22959 0.41412 0.0
C55 C 0.44527 0.45059 0.56837 0.0
Zn56 Zn 0.11114 0.97776 0.00397 0.0
Zn57 Zn 0.09377 0.85415 -0.00146 0.0
O58 O 0.07837 0.88902 0.0668 0.0
O59 O 0.09513 0.99188 0.07077 0.0
O60 O 0.07644 0.76023 -0.00716 0.0
O61 O 0.08685 0.00794 0.94729 0.0
O62 O 0.07562 0.90198 0.93643 0.0
C63 C 0.08078 0.94464 0.08979 0.0
C64 C 0.15932 0.88688 -0.00633 0.0
O65 O 0.13929 0.84256 -0.00456 0.0
O66 O 0.15253 0.94823 -0.00477 0.0
C67 C 0.07018 0.72291 0.02974 0.0
O68 O 0.07643 0.74347 0.07499 0.0
C69 C 0.07372 0.96312 0.92297 0.0
Zn70 Zn 0.91532 0.04489 0.03259 0.0
Zn71 Zn 0.93281 0.16818 0.02547 0.0
O72 O 0.94574 0.13836 0.09724 0.0
O73 O 0.92949 0.03509 0.10144 0.0
O74 O 0.95016 0.26167 0.01588 0.0
O75 O 0.94061 0.01042 0.979 0.0
O76 O 0.95179 0.11597 0.96623 0.0
C77 C 0.94264 0.08369 0.1213 0.0
C78 C 0.86757 0.13576 0.01505 0.0
O79 O 0.88759 0.18001 0.01777 0.0
O80 O 0.87419 0.07445 0.01887 0.0
C81 C 0.96246 0.29701 0.04942 0.0
O82 O 0.96345 0.27464 0.09539 0.0
C83 C 0.9539 0.05433 0.95424 0.0
Zn84 Zn 0.12435 0.0668 0.50432 0.0
Zn85 Zn 0.10513 0.18779 0.49729 0.0
O86 O 0.08604 0.13735 0.43734 0.0
O87 O 0.09948 0.03288 0.44978 0.0
O88 O 0.08698 0.28114 0.49245 0.0
O89 O 0.10985 0.05364 0.57227 0.0
O90 O 0.09021 0.1538 0.56608 0.0
C91 C 0.08494 0.07559 0.42541 0.0
C92 C 0.17115 0.15751 0.48925 0.0
O93 O 0.15066 0.20096 0.4918 0.0
O94 O 0.16511 0.09598 0.49224 0.0
C95 C 0.08378 0.30936 0.45027 0.0
O96 O 0.09385 0.279 0.41052 0.0
C97 C 0.09407 0.09939 0.5902 0.0
Zn98 Zn 0.89646 0.9245 0.54316 0.0
Zn99 Zn 0.93014 0.81479 0.52913 0.0
O100 O 0.94072 0.87912 0.47147 0.0
O101 O 0.9148 0.97032 0.48506 0.0
O102 O 0.95572 0.73242 0.51646 0.0
O103 O 0.91556 0.93789 0.60921 0.0
O104 O 0.9438 0.84977 0.59823 0.0
C105 C 0.93354 0.93885 0.45985 0.0
C106 C 0.86244 0.806 0.52826 0.0
O107 O 0.88766 0.77886 0.52582 0.0
O108 O 0.86017 0.86842 0.5352 0.0
C109 C 0.95955 0.71271 0.47189 0.0
O110 O 0.94635 0.74514 0.43562 0.0
C111 C 0.93592 0.90001 0.62425 0.0
H112 H 0.8418 0.262 0.01371 0.0
H113 H 0.82221 0.05011 0.00152 0.0
H114 H 0.77013 0.07617 -0.00634 0.0
H115 H 0.77929 0.3054 0.08676 0.0
H116 H 0.77299 0.3846 0.05642 0.0
H117 H 0.80931 0.35035 0.05969 0.0
H118 H 0.81349 0.3579 0.9637 0.0
H119 H 0.7772 0.39236 0.96016 0.0
H120 H 0.78625 0.31841 0.92513 0.0
H121 H 0.72007 0.123 -0.01025 0.0
H122 H 0.67473 0.18938 -0.0121 0.0
H123 H 0.72546 0.37165 0.00162 0.0
C124 C 0.82657 0.2212 0.00904 0.0
C125 C 0.83631 0.15395 0.00832 0.0
C126 C 0.81552 0.10207 0.00234 0.0
C127 C 0.78575 0.11625 -0.00222 0.0
C128 C 0.77685 0.18267 -0.00088 0.0
C129 C 0.79652 0.23447 0.00438 0.0
C130 C 0.78078 0.30137 0.00521 0.0
C131 C 0.7859 0.33755 0.05498 0.0
C132 C 0.78998 0.34508 0.9609 0.0
C133 C 0.74931 0.27872 -9e-05 0.0
C134 C 0.74764 0.21 -0.00353 0.0
C135 C 0.72105 0.17695 -0.00783 0.0
C136 C 0.69538 0.21514 -0.00876 0.0
C137 C 0.69641 0.2858 -0.00551 0.0
C138 C 0.72386 0.31778 -0.00117 0.0
H139 H 0.18536 0.76072 -0.00629 0.0
H140 H 0.20493 0.9731 -0.01265 0.0
H141 H 0.25718 0.9477 0.98503 0.0
H142 H 0.24595 0.71492 0.07266 0.0
H143 H 0.25323 0.63699 0.04138 0.0
H144 H 0.21679 0.67083 0.04176 0.0
H145 H 0.21525 0.66695 0.94537 0.0
H146 H 0.25166 0.63295 0.94473 0.0
H147 H 0.24342 0.70817 0.91036 0.0
H148 H 0.30734 0.9015 0.98507 0.0
H149 H 0.35281 0.83558 0.9855 0.0
H150 H 0.30216 0.65245 -0.00899 0.0
C151 C 0.20064 0.80177 -0.00839 0.0
C152 C 0.19079 0.86896 -0.00923 0.0
C153 C 0.21166 0.92117 -0.0119 0.0
C154 C 0.24154 0.90737 -0.01323 0.0
C155 C 0.25051 0.84102 -0.01202 0.0
C156 C 0.23082 0.7889 -0.00985 0.0
C157 C 0.24667 0.72212 -0.00882 0.0
C158 C 0.24028 0.68398 0.03963 0.0
C159 C 0.23878 0.68007 0.94517 0.0
C160 C 0.27819 0.74522 -0.01053 0.0
C161 C 0.27981 0.81405 -0.01232 0.0
C162 C 0.30641 0.84747 -0.01368 0.0
C163 C 0.33215 0.80953 -0.01336 0.0
C164 C 0.33119 0.73878 -0.01179 0.0
C165 C 0.30373 0.70643 -0.01032 0.0
H166 H 0.80561 0.8499 0.52909 0.0
H167 H 0.85825 0.67027 0.51394 0.0
H168 H 0.81337 0.60351 0.5035 0.0
H169 H 0.74742 0.77536 0.59878 0.0
H170 H 0.71924 0.8238 0.56852 0.0
H171 H 0.75546 0.85741 0.57473 0.0
H172 H 0.75762 0.87573 0.47932 0.0
H173 H 0.72143 0.84207 0.47278 0.0
H174 H 0.75113 0.80619 0.4381 0.0
H175 H 0.7629 0.55641 0.49509 0.0
H176 H 0.71052 0.53141 0.48938 0.0
H177 H 0.69034 0.74201 0.50938 0.0
C178 C 0.80779 0.79649 0.52364 0.0
C179 C 0.83557 0.76535 0.52241 0.0
C180 C 0.8373 0.69533 0.51508 0.0
C181 C 0.81191 0.65699 0.50908 0.0
C182 C 0.78495 0.68937 0.51042 0.0
C183 C 0.78271 0.75752 0.51752 0.0
C184 C 0.75108 0.78007 0.51744 0.0
C185 C 0.74282 0.81097 0.56787 0.0
C186 C 0.74497 0.8289 0.47434 0.0
C187 C 0.73582 0.71384 0.50926 0.0
C188 C 0.7558 0.66225 0.50533 0.0
C189 C 0.74707 0.59641 0.49807 0.0
C190 C 0.71717 0.58279 0.49491 0.0
C191 C 0.69614 0.63471 0.49891 0.0
C192 C 0.70576 0.70119 0.50602 0.0
H193 H 0.19693 0.28349 0.49578 0.0
H194 H 0.21631 0.07344 0.47026 0.0
H195 H 0.26838 0.09903 0.46557 0.0
H196 H 0.25337 0.34868 0.41265 0.0
H197 H 0.26235 0.41797 0.45271 0.0
H198 H 0.22595 0.38434 0.45256 0.0
H199 H 0.22941 0.36559 0.54784 0.0
H200 H 0.26587 0.39882 0.54824 0.0
H201 H 0.25907 0.31661 0.57307 0.0
H202 H 0.31839 0.14416 0.46721 0.0
H203 H 0.36397 0.20874 0.47146 0.0
H204 H 0.31388 0.39073 0.49448 0.0
C205 C 0.21212 0.24312 0.48872 0.0
C206 C 0.20231 0.17638 0.48359 0.0
C207 C 0.22304 0.12497 0.47464 0.0
C208 C 0.25282 0.13888 0.47182 0.0
C209 C 0.26182 0.20461 0.4778 0.0
C210 C 0.24223 0.25614 0.48573 0.0
C211 C 0.25819 0.32218 0.49152 0.0
C212 C 0.24944 0.37118 0.44987 0.0
C213 C 0.25281 0.35257 0.54325 0.0
C214 C 0.28964 0.29921 0.486 0.0
C215 C 0.29111 0.23112 0.47818 0.0
C216 C 0.31759 0.19766 0.47302 0.0
C217 C 0.3434 0.23481 0.47564 0.0
C218 C 0.34263 0.30487 0.48319 0.0
C219 C 0.31527 0.33731 0.48842 0.0
H220 H 0.59871 0.55445 0.12153 0.0
H221 H 0.55551 0.36195 0.12922 0.0
H222 H 0.53692 0.39056 0.21228 0.0
H223 H 0.62527 0.55507 0.23594 0.0
H224 H 0.62039 0.64265 0.24953 0.0
H225 H 0.62367 0.61565 0.1862 0.0
H226 H 0.57433 0.67227 0.1647 0.0
H227 H 0.57075 0.69937 0.22843 0.0
H228 H 0.54223 0.65093 0.19958 0.0
H229 H 0.53311 0.42583 0.29864 0.0
H230 H 0.54527 0.46509 0.38308 0.0
H231 H 0.58889 0.63757 0.32122 0.0
C232 C 0.58444 0.51932 0.13993 0.0
C233 C 0.57862 0.45596 0.11894 0.0
C234 C 0.5602 0.41092 0.14442 0.0
C235 C 0.5492 0.42706 0.19142 0.0
C236 C 0.55619 0.48899 0.21191 0.0
C237 C 0.5731 0.53492 0.18675 0.0
C238 C 0.58125 0.59325 0.21996 0.0
C239 C 0.6146 0.60206 0.2231 0.0
C240 C 0.56624 0.65778 0.20211 0.0
C241 C 0.56865 0.56984 0.26895 0.0
C242 C 0.55351 0.51049 0.26302 0.0
C243 C 0.54404 0.47325 0.30362 0.0
C244 C 0.55104 0.49585 0.35141 0.0
C245 C 0.56747 0.55485 0.35816 0.0
C246 C 0.57527 0.59383 0.31668 0.0
H247 H 0.43003 0.46897 0.11562 0.0
H248 H 0.4702 0.66436 0.12927 0.0
H249 H 0.48796 0.63436 0.21319 0.0
H250 H 0.40211 0.46288 0.23012 0.0
H251 H 0.40788 0.37493 0.24132 0.0
H252 H 0.40442 0.40522 0.1787 0.0
H253 H 0.45415 0.35214 0.15697 0.0
H254 H 0.45823 0.32211 0.21999 0.0
H255 H 0.48607 0.37362 0.19272 0.0
H256 H 0.4903 0.59582 0.30022 0.0
H257 H 0.47916 0.54856 0.38293 0.0
H258 H 0.44062 0.37494 0.31315 0.0
C259 C 0.44336 0.5047 0.13561 0.0
C260 C 0.44862 0.56907 0.11599 0.0
C261 C 0.46592 0.61467 0.14348 0.0
C262 C 0.4763 0.59789 0.19106 0.0
C263 C 0.46973 0.53489 0.21015 0.0
C264 C 0.45405 0.48852 0.18295 0.0
C265 C 0.44653 0.42795 0.21418 0.0
C266 C 0.41328 0.41722 0.21621 0.0
C267 C 0.46219 0.36524 0.19483 0.0
C268 C 0.45869 0.44946 0.26414 0.0
C269 C 0.47236 0.51099 0.26082 0.0
C270 C 0.48069 0.54663 0.30312 0.0
C271 C 0.47433 0.51952 0.34988 0.0
C272 C 0.45995 0.4574 0.35383 0.0
C273 C 0.45294 0.42093 0.31065 0.0
H274 H 0.43184 0.48229 0.85457 0.0
H275 H 0.46658 0.68277 0.83932 0.0
H276 H 0.48337 0.65505 0.75455 0.0
H277 H 0.48811 0.39423 0.77655 0.0
H278 H 0.46118 0.33905 0.75021 0.0
H279 H 0.45728 0.36911 0.81316 0.0
H280 H 0.40613 0.41631 0.79229 0.0
H281 H 0.40936 0.38571 0.72982 0.0
H282 H 0.40183 0.47302 0.74052 0.0
H283 H 0.48676 0.61437 0.66748 0.0
H284 H 0.47558 0.56463 0.58532 0.0
H285 H 0.44123 0.38843 0.6575 0.0
C286 C 0.44375 0.51985 0.83402 0.0
C287 C 0.44786 0.58473 0.8535 0.0
C288 C 0.46329 0.63262 0.82523 0.0
C289 C 0.47308 0.61715 0.77718 0.0
C290 C 0.46789 0.55318 0.7585 0.0
C291 C 0.45379 0.50506 0.78632 0.0
C292 C 0.44718 0.44342 0.75569 0.0
C293 C 0.46447 0.38282 0.77505 0.0
C294 C 0.41419 0.42886 0.7545 0.0
C295 C 0.45814 0.46581 0.70539 0.0
C296 C 0.47052 0.52884 0.70795 0.0
C297 C 0.47797 0.56431 0.66518 0.0
C298 C 0.47153 0.53586 0.61876 0.0
C299 C 0.45819 0.47239 0.61566 0.0
C300 C 0.4525 0.4359 0.6593 0.0
H301 H 0.59495 0.5423 0.85783 0.0
H302 H 0.55853 0.34289 0.84664 0.0
H303 H 0.53929 0.37017 0.7632 0.0
H304 H 0.5364 0.63135 0.78091 0.0
H305 H 0.56317 0.68485 0.75264 0.0
H306 H 0.56806 0.65661 0.81597 0.0
H307 H 0.61863 0.60733 0.79426 0.0
H308 H 0.61438 0.63642 0.73153 0.0
H309 H 0.62167 0.54916 0.74327 0.0
H310 H 0.53231 0.40977 0.67742 0.0
H311 H 0.5439 0.45282 0.59382 0.0
H312 H 0.58336 0.62834 0.65951 0.0
C313 C 0.58204 0.50509 0.83854 0.0
C314 C 0.57817 0.44054 0.85877 0.0
C315 C 0.56158 0.39288 0.83208 0.0
C316 C 0.55022 0.40826 0.78488 0.0
C317 C 0.55488 0.47206 0.76553 0.0
C318 C 0.57038 0.51986 0.79165 0.0
C319 C 0.57676 0.58032 0.75958 0.0
C320 C 0.5601 0.64195 0.77839 0.0
C321 C 0.6098 0.594 0.75699 0.0
C322 C 0.56464 0.55673 0.71013 0.0
C323 C 0.55111 0.4952 0.71483 0.0
C324 C 0.54218 0.45855 0.67341 0.0
C325 C 0.54886 0.48329 0.6261 0.0
C326 C 0.56422 0.54405 0.62072 0.0
C327 C 0.57075 0.58289 0.66297 0.0
H328 H 0.07478 0.06268 0.13829 0.0
H329 H 0.05992 0.84968 0.15458 0.0
H330 H 0.04751 0.86727 0.24301 0.0
H331 H 0.11263 0.08165 0.24345 0.0
H332 H 0.09922 0.16376 0.25913 0.0
H333 H 0.09929 0.1371 0.19544 0.0
H334 H 0.04405 0.1617 0.18922 0.0
H335 H 0.0433 0.18732 0.25363 0.0
H336 H 0.01944 0.12202 0.23191 0.0
H337 H 0.04642 0.90398 0.33098 0.0
H338 H 0.06022 0.95399 0.41135 0.0
H339 H 0.07611 0.14366 0.33851 0.0
C340 C 0.06792 0.01991 0.15997 0.0
C341 C 0.06827 0.95476 0.13968 0.0
C342 C 0.05953 0.90006 0.16932 0.0
C343 C 0.0523 0.90975 0.21949 0.0
C344 C 0.05325 0.97455 0.23888 0.0
C345 C 0.0607 0.02879 0.20983 0.0
C346 C 0.06492 0.09128 0.24076 0.0
C347 C 0.09584 0.12003 0.23432 0.0
C348 C 0.04154 0.14376 0.22814 0.0
C349 C 0.06054 0.06295 0.29236 0.0
C350 C 0.05294 0.99598 0.29034 0.0
C351 C 0.05161 0.95666 0.33303 0.0
C352 C 0.05961 0.98545 0.37849 0.0
C353 C 0.06911 0.05268 0.38083 0.0
C354 C 0.06818 0.09272 0.33773 0.0
H355 H 0.94471 0.88045 0.37067 0.0
H356 H 0.9472 0.07026 0.44805 0.0
H357 H 0.95947 0.12768 0.36935 0.0
H358 H 1.00043 0.91417 0.27618 0.0
H359 H 0.98029 0.87557 0.22616 0.0
H360 H 0.97681 0.84493 0.28908 0.0
H361 H 0.92138 0.86208 0.28851 0.0
H362 H 0.9233 0.8892 0.22487 0.0
H363 H 0.90638 0.94209 0.27078 0.0
H364 H 0.96226 0.16643 0.2806 0.0
H365 H 0.95523 0.18237 0.18978 0.0
H366 H 0.95057 0.96725 0.17109 0.0
C367 C 0.94903 0.93366 0.37126 0.0
C368 C 0.94553 0.97097 0.4152 0.0
C369 C 0.95008 0.04094 0.41453 0.0
C370 C 0.95717 0.07386 0.37012 0.0
C371 C 0.95933 0.03605 0.32676 0.0
C372 C 0.95536 0.9674 0.32705 0.0
C373 C 0.95422 0.93961 0.27483 0.0
C374 C 0.97944 0.8906 0.26595 0.0
C375 C 0.92457 0.90635 0.26415 0.0
C376 C 0.9578 1.0033 0.2451 0.0
C377 C 0.96086 0.0585 0.27552 0.0
C378 C 0.96061 0.12347 0.2563 0.0
C379 C 0.95666 0.13215 0.20472 0.0
C380 C 0.95249 0.07611 0.17345 0.0
C381 C 0.95406 0.01112 0.19396 0.0
H382 H 0.93646 0.0206 0.67011 0.0
H383 H 0.96751 0.81671 0.68629 0.0
H384 H 0.98654 0.8443 0.77034 0.0
H385 H 0.99541 0.1046 0.74375 0.0
H386 H 0.97008 0.16297 0.77072 0.0
H387 H 0.96407 0.13167 0.70852 0.0
H388 H 0.91282 0.08954 0.73276 0.0
H389 H 0.91809 0.12202 0.79434 0.0
H390 H 0.90901 0.03512 0.78587 0.0
H391 H 0.9937 0.88806 0.85644 0.0
H392 H 0.98501 0.94056 0.93817 0.0
H393 H 0.95103 0.11748 0.86501 0.0
C394 C 0.94796 0.98207 0.69075 0.0
C395 C 0.95053 0.91648 0.67182 0.0
C396 C 0.96547 0.86737 0.70006 0.0
C397 C 0.97641 0.88274 0.74769 0.0
C398 C 0.97301 0.94786 0.76562 0.0
C399 C 0.9592 0.99679 0.73778 0.0
C400 C 0.95435 0.05989 0.76767 0.0
C401 C 0.97203 0.11828 0.7464 0.0
C402 C 0.92165 0.07758 0.77033 0.0
C403 C 0.96623 0.03791 0.81769 0.0
C404 C 0.97749 0.9736 0.8155 0.0
C405 C 0.98565 0.93889 0.85837 0.0
C406 C 0.9807 0.96911 0.90462 0.0
C407 C 0.96777 0.03334 0.90752 0.0
C408 C 0.96192 0.0694 0.86357 0.0
H409 H 0.07458 0.8947 0.83587 0.0
H410 H 0.04423 0.0782 0.90358 0.0
H411 H 0.03631 0.12757 0.8205 0.0
H412 H 0.11781 0.96537 0.75806 0.0
H413 H 0.11314 0.9117 0.70476 0.0
H414 H 0.10595 0.88009 0.76592 0.0
H415 H 0.05192 0.84917 0.74189 0.0
H416 H 0.06163 0.87414 0.67957 0.0
H417 H 0.03035 0.91071 0.70894 0.0
H418 H 0.045 0.16727 0.73402 0.0
H419 H 0.06506 0.1894 0.65019 0.0
H420 H 0.09143 0.98133 0.63967 0.0
C421 C 0.06456 0.94364 0.8329 0.0
C422 C 0.05984 0.98262 0.87568 0.0
C423 C 0.04788 0.04763 0.87091 0.0
C424 C 0.04327 0.07601 0.82388 0.0
C425 C 0.05065 0.03856 0.78211 0.0
C426 C 0.06038 0.973 0.78608 0.0
C427 C 0.07211 0.94801 0.73694 0.0
C428 C 0.10413 0.92503 0.74177 0.0
C429 C 0.05284 0.89211 0.71566 0.0
C430 C 0.06937 0.01087 0.70605 0.0
C431 C 0.05631 0.06215 0.7321 0.0
C432 C 0.05441 0.12687 0.71264 0.0
C433 C 0.06603 0.13918 0.66522 0.0
C434 C 0.07985 0.08722 0.63851 0.0
C435 C 0.08093 0.02222 0.65904 0.0
H436 H 0.47736 0.89568 0.96936 0.0
H437 H 0.46513 0.86578 0.12808 0.0
H438 H 0.49623 0.96317 0.14556 0.0
H439 H 0.55241 0.94776 0.97585 0.0
H440 H 0.54878 0.01017 0.92774 0.0
H441 H 0.52559 0.93762 0.92712 0.0
H442 H 0.47991 0.01406 0.92572 0.0
H443 H 0.50296 0.08683 0.92621 0.0
H444 H 0.47553 0.07664 0.97339 0.0
H445 H 0.5293 0.06152 0.14657 0.0
H446 H 0.56061 0.15901 0.13096 0.0
H447 H 0.55074 0.12921 0.97157 0.0
C448 C 0.48123 0.90967 0.00776 0.0
C449 C 0.46879 0.87289 0.04735 0.0
C450 C 0.47429 0.89311 0.09708 0.0
C451 C 0.49202 0.94834 0.10745 0.0
C452 C 0.50398 0.98333 0.06772 0.0
C453 C 0.49872 0.96527 0.01885 0.0
C454 C 0.51399 0.01245 0.98321 0.0
C455 C 0.53653 0.97473 0.95162 0.0
C456 C 0.49177 0.0497 0.95019 0.0
C457 C 0.5287 0.05955 0.01977 0.0
C458 C 0.52272 0.04142 0.0683 0.0
C459 C 0.53408 0.0764 0.10873 0.0
C460 C 0.55192 0.13169 0.09943 0.0
C461 C 0.55815 0.15196 0.05005 0.0
C462 C 0.54632 0.11518 0.00973 0.0
H463 H 0.54859 0.87262 0.3937 0.0
H464 H 0.57195 0.85709 0.55022 0.0
H465 H 0.54754 0.96501 0.56626 0.0
H466 H 0.55797 0.05286 0.38318 0.0
H467 H 0.52735 0.0629 0.34146 0.0
H468 H 0.54769 0.98572 0.34197 0.0
H469 H 0.50011 0.92007 0.35859 0.0
H470 H 0.47965 0.99703 0.35841 0.0
H471 H 0.47798 0.9419 0.41145 0.0
H472 H 0.51904 0.07263 0.56595 0.0
H473 H 0.48948 0.17343 0.54903 0.0
H474 H 0.48459 0.11914 0.39267 0.0
C475 C 0.54884 0.89212 0.4313 0.0
C476 C 0.56227 0.85624 0.4707 0.0
C477 C 0.56189 0.88355 0.51938 0.0
C478 C 0.54805 0.94486 0.52889 0.0
C479 C 0.53472 0.97846 0.48935 0.0
C480 C 0.53511 0.95326 0.44147 0.0
C481 C 0.51867 0.99873 0.40579 0.0
C482 C 0.53915 0.02671 0.36574 0.0
C483 C 0.49256 0.96224 0.38218 0.0
C484 C 0.50874 0.05311 0.44117 0.0
C485 C 0.51829 0.04051 0.48917 0.0
C486 C 0.51155 0.08315 0.52847 0.0
C487 C 0.49469 0.1403 0.51846 0.0
C488 C 0.48468 0.15443 0.46951 0.0
C489 C 0.49189 0.10998 0.43048 0.0
H490 H 0.05338 0.63158 0.10073 0.0
H491 H 0.05078 0.66914 0.94152 0.0
H492 H 0.02267 0.56521 0.92925 0.0
H493 H 0.06166 0.45195 0.0928 0.0
H494 H 0.03896 0.43595 0.14604 0.0
H495 H 0.05914 0.51286 0.14205 0.0
H496 H 1.01129 0.58023 0.15303 0.0
H497 H 0.99094 0.50353 0.15678 0.0
H498 H 0.98116 0.5658 0.11104 0.0
H499 H 0.99379 0.45775 0.93458 0.0
H500 H 0.96813 0.35352 0.95671 0.0
H501 H 0.98989 0.38575 0.11238 0.0
C502 C 0.04705 0.61791 0.06321 0.0
C503 C 0.05437 0.65879 0.02207 0.0
C504 C 0.04555 0.63881 0.97365 0.0
C505 C 0.02949 0.57984 0.9663 0.0
C506 C 0.02244 0.5411 0.0077 0.0
C507 C 0.03107 0.55915 0.05518 0.0
C508 C 0.02068 0.50874 0.09338 0.0
C509 C 0.04666 0.47541 0.12013 0.0
C510 C 0.99978 0.54155 0.13076 0.0
C511 C 1.00481 0.45956 0.06001 0.0
C512 C 1.006 0.4792 0.01072 0.0
C513 C 0.99279 0.44187 0.97306 0.0
C514 C 0.97819 0.38272 0.98604 0.0
C515 C 0.97692 0.36115 0.03629 0.0
C516 C 0.99039 0.4006 0.07361 0.0
H517 H 0.05763 0.38544 0.52398 0.0
H518 H 0.07215 0.37771 0.36439 0.0
H519 H 0.04286 0.48004 0.35359 0.0
H520 H 0.98369 0.44214 0.51782 0.0
H521 H 0.98649 0.49695 0.57087 0.0
H522 H 1.00949 0.42402 0.56693 0.0
H523 H 0.05531 0.49824 0.577 0.0
H524 H 0.03244 0.57141 0.58116 0.0
H525 H 0.06077 0.56739 0.535 0.0
H526 H 1.01053 0.57996 0.35885 0.0
H527 H 0.97842 0.67432 0.3802 0.0
H528 H 0.98484 0.6209 0.53669 0.0
C529 C 0.05485 0.40559 0.48682 0.0
C530 C 0.06731 0.37325 0.44503 0.0
C531 C 0.06296 0.40129 0.39704 0.0
C532 C 0.0463 0.45952 0.39046 0.0
C533 C 0.03412 0.48967 0.43221 0.0
C534 C 0.03828 0.4641 0.47952 0.0
C535 C 0.02238 0.5063 0.51789 0.0
C536 C 0.99913 0.46487 0.54496 0.0
C537 C 0.04402 0.5377 0.55495 0.0
C538 C 1.00849 0.55914 0.48461 0.0
C539 C 0.01558 0.54832 0.43533 0.0
C540 C 1.00495 0.58919 0.39734 0.0
C541 C 0.98661 0.64267 0.40991 0.0
C542 C 0.97906 0.65536 0.46015 0.0
C543 C 0.9903 0.61288 0.49797 0.0
loop_
_geom_bond_atom_site_label_1
_geom_bond_atom_site_label_2
_geom_bond_distance
_geom_bond_site_symmetry_2
_ccdc_geom_bond_type
Zn0 O3 2.031 . S
Zn0 O5 2.049 1_554 S
Zn0 O10 2.067 1_554 S
Zn1 O2 1.962 . S
Zn1 O4 1.986 1_554 S
Zn1 O6 1.996 1_554 S
Zn1 O9 1.943 . S
O2 Zn1 1.962 . S
O2 C7 1.254 . S
O3 Zn0 2.031 . S
O3 C7 1.269 . S
O4 Zn1 1.986 1_556 S
O4 C11 1.262 1_556 S
O5 Zn0 2.049 1_556 S
O5 C13 1.260 . S
O6 Zn1 1.996 1_556 S
O6 C13 1.257 . S
C7 O2 1.254 . S
C7 O3 1.269 . S
C8 O9 1.249 . S
C8 O10 1.270 1_554 S
O9 Zn1 1.943 . S
O9 C8 1.249 . S
O10 Zn0 2.067 1_556 S
O10 C8 1.270 1_556 S
C11 O4 1.262 1_554 S
C11 O12 1.232 . S
O12 C11 1.232 . S
C13 O5 1.260 . S
C13 O6 1.257 . S
Zn14 O17 2.031 . S
Zn14 O19 2.049 1_554 S
Zn14 O24 2.067 1_554 S
Zn15 O16 1.962 . S
Zn15 O18 1.986 1_554 S
Zn15 O20 1.996 1_554 S
Zn15 O23 1.943 . S
O16 Zn15 1.962 . S
O16 C21 1.254 . S
O17 Zn14 2.031 . S
O17 C21 1.269 . S
O18 Zn15 1.986 1_556 S
O18 C25 1.262 1_556 S
O19 Zn14 2.049 1_556 S
O19 C27 1.260 . S
O20 Zn15 1.996 1_556 S
O20 C27 1.257 . S
C21 O16 1.254 . S
C21 O17 1.269 . S
C22 O23 1.249 . S
C22 O24 1.270 1_554 S
O23 Zn15 1.943 . S
O23 C22 1.249 . S
O24 Zn14 2.067 1_556 S
O24 C22 1.270 1_556 S
C25 O18 1.262 1_554 S
C25 O26 1.232 . S
O26 C25 1.232 . S
C27 O19 1.260 . S
C27 O20 1.257 . S
Zn28 O31 2.031 . S
Zn28 O33 2.049 . S
Zn28 O38 2.067 . S
Zn29 O30 1.962 . S
Zn29 O32 1.986 . S
Zn29 O34 1.996 . S
Zn29 O37 1.943 . S
O30 Zn29 1.962 . S
O30 C35 1.254 . S
O31 Zn28 2.031 . S
O31 C35 1.269 . S
O32 Zn29 1.986 . S
O32 C39 1.262 . S
O33 Zn28 2.049 . S
O33 C41 1.260 . S
O34 Zn29 1.996 . S
O34 C41 1.257 . S
C35 O30 1.254 . S
C35 O31 1.269 . S
C36 O37 1.249 . S
C36 O38 1.270 . S
O37 Zn29 1.943 . S
O37 C36 1.249 . S
O38 Zn28 2.067 . S
O38 C36 1.270 . S
C39 O32 1.262 . S
C39 O40 1.232 . S
O40 C39 1.232 . S
C41 O33 1.260 . S
C41 O34 1.257 . S
Zn42 O45 2.031 . S
Zn42 O47 2.049 . S
Zn42 O52 2.067 . S
Zn43 O44 1.962 . S
Zn43 O46 1.986 . S
Zn43 O48 1.996 . S
Zn43 O51 1.943 . S
O44 Zn43 1.962 . S
O44 C49 1.254 . S
O45 Zn42 2.031 . S
O45 C49 1.269 . S
O46 Zn43 1.986 . S
O46 C53 1.262 . S
O47 Zn42 2.049 . S
O47 C55 1.260 . S
O48 Zn43 1.996 . S
O48 C55 1.257 . S
C49 O44 1.254 . S
C49 O45 1.269 . S
C50 O51 1.249 . S
C50 O52 1.270 . S
O51 Zn43 1.943 . S
O51 C50 1.249 . S
O52 Zn42 2.067 . S
O52 C50 1.270 . S
C53 O46 1.262 . S
C53 O54 1.232 . S
O54 C53 1.232 . S
C55 O47 1.260 . S
C55 O48 1.257 . S
Zn56 O59 2.031 . S
Zn56 O61 2.049 1_554 S
Zn56 O66 2.067 1_554 S
Zn57 O58 1.962 . S
Zn57 O60 1.986 1_554 S
Zn57 O62 1.996 1_554 S
Zn57 O65 1.943 . S
O58 Zn57 1.962 . S
O58 C63 1.254 . S
O59 Zn56 2.031 . S
O59 C63 1.269 . S
O60 Zn57 1.986 1_556 S
O60 C67 1.262 1_556 S
O61 Zn56 2.049 1_556 S
O61 C69 1.260 . S
O62 Zn57 1.996 1_556 S
O62 C69 1.257 . S
C63 O58 1.254 . S
C63 O59 1.269 . S
C64 O65 1.249 . S
C64 O66 1.270 1_554 S
O65 Zn57 1.943 . S
O65 C64 1.249 . S
O66 Zn56 2.067 1_556 S
O66 C64 1.270 1_556 S
C67 O60 1.262 1_554 S
C67 O68 1.232 . S
O68 C67 1.232 . S
C69 O61 1.260 . S
C69 O62 1.257 . S
Zn70 O73 2.031 . S
Zn70 O75 2.049 1_554 S
Zn70 O80 2.067 1_554 S
Zn71 O72 1.962 . S
Zn71 O74 1.986 1_554 S
Zn71 O76 1.996 1_554 S
Zn71 O79 1.943 . S
O72 Zn71 1.962 . S
O72 C77 1.254 . S
O73 Zn70 2.031 . S
O73 C77 1.269 . S
O74 Zn71 1.986 1_556 S
O74 C81 1.262 1_556 S
O75 Zn70 2.049 1_556 S
O75 C83 1.260 . S
O76 Zn71 1.996 1_556 S
O76 C83 1.257 . S
C77 O72 1.254 . S
C77 O73 1.269 . S
C78 O79 1.249 . S
C78 O80 1.270 1_554 S
O79 Zn71 1.943 . S
O79 C78 1.249 . S
O80 Zn70 2.067 1_556 S
O80 C78 1.270 1_556 S
C81 O74 1.262 1_554 S
C81 O82 1.232 . S
O82 C81 1.232 . S
C83 O75 1.260 . S
C83 O76 1.257 . S
Zn84 O87 2.031 . S
Zn84 O89 2.049 . S
Zn84 O94 2.067 . S
Zn85 O86 1.962 . S
Zn85 O88 1.986 . S
Zn85 O90 1.996 . S
Zn85 O93 1.943 . S
O86 Zn85 1.962 . S
O86 C91 1.254 . S
O87 Zn84 2.031 . S
O87 C91 1.269 . S
O88 Zn85 1.986 . S
O88 C95 1.262 . S
O89 Zn84 2.049 . S
O89 C97 1.260 . S
O90 Zn85 1.996 . S
O90 C97 1.257 . S
C91 O86 1.254 . S
C91 O87 1.269 . S
C92 O93 1.249 . S
C92 O94 1.270 . S
O93 Zn85 1.943 . S
O93 C92 1.249 . S
O94 Zn84 2.067 . S
O94 C92 1.270 . S
C95 O88 1.262 . S
C95 O96 1.232 . S
O96 C95 1.232 . S
C97 O89 1.260 . S
C97 O90 1.257 . S
Zn98 O101 2.031 . S
Zn98 O103 2.049 . S
Zn98 O108 2.067 . S
Zn99 O100 1.962 . S
Zn99 O102 1.986 . S
Zn99 O104 1.996 . S
Zn99 O107 1.943 . S
O100 Zn99 1.962 . S
O100 C105 1.254 . S
O101 Zn98 2.031 . S
O101 C105 1.269 . S
O102 Zn99 1.986 . S
O102 C109 1.262 . S
O103 Zn98 2.049 . S
O103 C111 1.260 . S
O104 Zn99 1.996 . S
O104 C111 1.257 . S
C105 O100 1.254 . S
C105 O101 1.269 . S
C106 O107 1.249 . S
C106 O108 1.270 . S
O107 Zn99 1.943 . S
O107 C106 1.249 . S
O108 Zn98 2.067 . S
O108 C106 1.270 . S
C109 O102 1.262 . S
C109 O110 1.232 . S
O110 C109 1.232 . S
C111 O103 1.260 . S
C111 O104 1.257 . S
H112 C124 0.931 . S
H113 C126 0.930 . S
H114 C127 0.930 . S
H115 C131 0.959 . S
H116 C131 0.959 . S
H117 C131 0.961 . S
H118 C132 0.960 . S
H119 C132 0.961 . S
H120 C132 0.959 . S
H121 C135 0.929 . S
H122 C136 0.931 . S
H123 C138 0.930 1_556 S
C124 H112 0.931 . S
C124 C125 1.399 . S
C124 C129 1.399 . S
C125 C124 1.399 . S
C125 C126 1.376 . S
C126 H113 0.930 . S
C126 C125 1.376 . S
C126 C127 1.388 . S
C127 H114 0.930 . S
C127 C126 1.388 . S
C127 C128 1.390 . S
C128 C127 1.390 . S
C128 C129 1.394 . S
C128 C134 1.465 . S
C129 C124 1.399 . S
C129 C128 1.394 . S
C129 C130 1.516 1_554 S
C130 C129 1.516 1_556 S
C130 C131 1.502 1_556 S
C130 C132 1.561 . S
C130 C133 1.526 1_556 S
C131 H115 0.959 . S
C131 H116 0.959 . S
C131 H117 0.961 . S
C131 C130 1.502 1_554 S
C132 H118 0.960 . S
C132 H119 0.961 . S
C132 H120 0.959 . S
C132 C130 1.561 . S
C133 C130 1.526 1_554 S
C133 C134 1.396 . S
C133 C138 1.390 . S
C134 C128 1.465 . S
C134 C133 1.396 . S
C134 C135 1.399 . S
C135 H121 0.929 . S
C135 C134 1.399 . S
C135 C136 1.385 . S
C136 H122 0.931 . S
C136 C135 1.385 . S
C136 C137 1.389 . S
C137 C136 1.389 . S
C137 C138 1.387 . S
C138 H123 0.930 1_554 S
C138 C133 1.390 . S
C138 C137 1.387 . S
H139 C151 0.930 . S
H140 C153 0.930 . S
H141 C154 0.930 . S
H142 C158 0.959 . S
H143 C158 0.959 . S
H144 C158 0.961 . S
H145 C159 0.960 . S
H146 C159 0.961 . S
H147 C159 0.959 . S
H148 C162 0.929 . S
H149 C163 0.931 . S
H150 C165 0.930 . S
C151 H139 0.930 . S
C151 C152 1.399 1_556 S
C151 C156 1.402 . S
C152 C151 1.399 1_554 S
C152 C153 1.376 . S
C153 H140 0.930 . S
C153 C152 1.376 . S
C153 C154 1.388 . S
C154 H141 0.930 . S
C154 C153 1.388 . S
C154 C155 1.390 . S
C155 C154 1.390 . S
C155 C156 1.379 1_554 S
C155 C161 1.465 . S
C156 C151 1.402 . S
C156 C155 1.379 1_556 S
C156 C157 1.526 . S
C157 C156 1.526 . S
C157 C158 1.502 . S
C157 C159 1.561 . S
C157 C160 1.529 . S
C158 H142 0.959 . S
C158 H143 0.959 . S
C158 H144 0.961 . S
C158 C157 1.502 . S
C159 H145 0.960 . S
C159 H146 0.961 . S
C159 H147 0.959 . S
C159 C157 1.561 . S
C160 C157 1.529 . S
C160 C161 1.392 1_556 S
C160 C165 1.390 . S
C161 C155 1.465 . S
C161 C160 1.392 1_554 S
C161 C162 1.399 . S
C162 H148 0.929 . S
C162 C161 1.399 . S
C162 C163 1.385 . S
C163 H149 0.931 . S
C163 C162 1.385 . S
C163 C164 1.389 . S
C164 C163 1.389 . S
C164 C165 1.387 1_554 S
C165 H150 0.930 . S
C165 C160 1.390 . S
C165 C164 1.387 1_556 S
H166 C178 0.930 . S
H167 C180 0.930 . S
H168 C181 0.930 . S
H169 C185 0.959 . S
H170 C185 0.959 . S
H171 C185 0.961 . S
H172 C186 0.960 . S
H173 C186 0.961 . S
H174 C186 0.959 . S
H175 C189 0.929 . S
H176 C190 0.931 . S
H177 C192 0.930 . S
C178 H166 0.930 . S
C178 C179 1.399 . S
C178 C183 1.399 . S
C179 C178 1.399 . S
C179 C180 1.376 . S
C180 H167 0.930 . S
C180 C179 1.376 . S
C180 C181 1.388 . S
C181 H168 0.930 . S
C181 C180 1.388 . S
C181 C182 1.390 . S
C182 C181 1.390 . S
C182 C183 1.394 . S
C182 C188 1.465 . S
C183 C178 1.399 . S
C183 C182 1.394 . S
C183 C184 1.516 . S
C184 C183 1.516 . S
C184 C185 1.502 . S
C184 C186 1.561 . S
C184 C187 1.526 . S
C185 H169 0.959 . S
C185 H170 0.959 . S
C185 H171 0.961 . S
C185 C184 1.502 . S
C186 H172 0.960 . S
C186 H173 0.961 . S
C186 H174 0.959 . S
C186 C184 1.561 . S
C187 C184 1.526 . S
C187 C188 1.396 . S
C187 C192 1.390 . S
C188 C182 1.465 . S
C188 C187 1.396 . S
C188 C189 1.399 . S
C189 H175 0.929 . S
C189 C188 1.399 . S
C189 C190 1.385 . S
C190 H176 0.931 . S
C190 C189 1.385 . S
C190 C191 1.389 . S
C191 C190 1.389 . S
C191 C192 1.387 . S
C192 H177 0.930 . S
C192 C187 1.390 . S
C192 C191 1.387 . S
H193 C205 0.930 . S
H194 C207 0.930 . S
H195 C208 0.930 . S
H196 C212 0.959 . S
H197 C212 0.959 . S
H198 C212 0.961 . S
H199 C213 0.960 . S
H200 C213 0.961 . S
H201 C213 0.959 . S
H202 C216 0.929 . S
H203 C217 0.931 . S
H204 C219 0.930 . S
C205 H193 0.930 . S
C205 C206 1.399 . S
C205 C210 1.399 . S
C206 C205 1.399 . S
C206 C207 1.376 . S
C207 H194 0.930 . S
C207 C206 1.376 . S
C207 C208 1.388 . S
C208 H195 0.930 . S
C208 C207 1.388 . S
C208 C209 1.390 . S
C209 C208 1.390 . S
C209 C210 1.394 . S
C209 C215 1.465 . S
C210 C205 1.399 . S
C210 C209 1.394 . S
C210 C211 1.516 . S
C211 C210 1.516 . S
C211 C212 1.502 . S
C211 C213 1.561 . S
C211 C214 1.526 . S
C212 H196 0.959 . S
C212 H197 0.959 . S
C212 H198 0.961 . S
C212 C211 1.502 . S
C213 H199 0.960 . S
C213 H200 0.961 . S
C213 H201 0.959 . S
C213 C211 1.561 . S
C214 C211 1.526 . S
C214 C215 1.396 . S
C214 C219 1.390 . S
C215 C209 1.465 . S
C215 C214 1.396 . S
C215 C216 1.399 . S
C216 H202 0.929 . S
C216 C215 1.399 . S
C216 C217 1.385 . S
C217 H203 0.931 . S
C217 C216 1.385 . S
C217 C218 1.389 . S
C218 C217 1.389 . S
C218 C219 1.387 . S
C219 H204 0.930 . S
C219 C214 1.390 . S
C219 C218 1.387 . S
H220 C232 0.930 . S
H221 C234 0.930 . S
H222 C235 0.930 . S
H223 C239 0.959 . S
H224 C239 0.959 . S
H225 C239 0.961 . S
H226 C240 0.960 . S
H227 C240 0.961 . S
H228 C240 0.959 . S
H229 C243 0.929 . S
H230 C244 0.931 . S
H231 C246 0.930 . S
C232 H220 0.930 . S
C232 C233 1.399 . S
C232 C237 1.399 . S
C233 C232 1.399 . S
C233 C234 1.376 . S
C234 H221 0.930 . S
C234 C233 1.376 . S
C234 C235 1.388 . S
C235 H222 0.930 . S
C235 C234 1.388 . S
C235 C236 1.390 . S
C236 C235 1.390 . S
C236 C237 1.394 . S
C236 C242 1.465 . S
C237 C232 1.399 . S
C237 C236 1.394 . S
C237 C238 1.516 . S
C238 C237 1.516 . S
C238 C239 1.502 . S
C238 C240 1.561 . S
C238 C241 1.526 . S
C239 H223 0.959 . S
C239 H224 0.959 . S
C239 H225 0.961 . S
C239 C238 1.502 . S
C240 H226 0.960 . S
C240 H227 0.961 . S
C240 H228 0.959 . S
C240 C238 1.561 . S
C241 C238 1.526 . S
C241 C242 1.396 . S
C241 C246 1.390 . S
C242 C236 1.465 . S
C242 C241 1.396 . S
C242 C243 1.399 . S
C243 H229 0.929 . S
C243 C242 1.399 . S
C243 C244 1.385 . S
C244 H230 0.931 . S
C244 C243 1.385 . S
C244 C245 1.389 . S
C245 C244 1.389 . S
C245 C246 1.387 . S
C246 H231 0.930 . S
C246 C241 1.390 . S
C246 C245 1.387 . S
H247 C259 0.930 . S
H248 C261 0.930 . S
H249 C262 0.930 . S
H250 C266 0.959 . S
H251 C266 0.959 . S
H252 C266 0.961 . S
H253 C267 0.960 . S
H254 C267 0.961 . S
H255 C267 0.959 . S
H256 C270 0.929 . S
H257 C271 0.931 . S
H258 C273 0.930 . S
C259 H247 0.930 . S
C259 C260 1.399 . S
C259 C264 1.399 . S
C260 C259 1.399 . S
C260 C261 1.376 . S
C261 H248 0.930 . S
C261 C260 1.376 . S
C261 C262 1.388 . S
C262 H249 0.930 . S
C262 C261 1.388 . S
C262 C263 1.390 . S
C263 C262 1.390 . S
C263 C264 1.394 . S
C263 C269 1.465 . S
C264 C259 1.399 . S
C264 C263 1.394 . S
C264 C265 1.516 . S
C265 C264 1.516 . S
C265 C266 1.502 . S
C265 C267 1.561 . S
C265 C268 1.526 . S
C266 H250 0.959 . S
C266 H251 0.959 . S
C266 H252 0.961 . S
C266 C265 1.502 . S
C267 H253 0.960 . S
C267 H254 0.961 . S
C267 H255 0.959 . S
C267 C265 1.561 . S
C268 C265 1.526 . S
C268 C269 1.396 . S
C268 C273 1.390 . S
C269 C263 1.465 . S
C269 C268 1.396 . S
C269 C270 1.399 . S
C270 H256 0.929 . S
C270 C269 1.399 . S
C270 C271 1.385 . S
C271 H257 0.931 . S
C271 C270 1.385 . S
C271 C272 1.389 . S
C272 C271 1.389 . S
C272 C273 1.387 . S
C273 H258 0.930 . S
C273 C268 1.390 . S
C273 C272 1.387 . S
H274 C286 0.930 . S
H275 C288 0.930 . S
H276 C289 0.930 . S
H277 C293 0.959 . S
H278 C293 0.959 . S
H279 C293 0.961 . S
H280 C294 0.960 . S
H281 C294 0.961 . S
H282 C294 0.959 . S
H283 C297 0.929 . S
H284 C298 0.931 . S
H285 C300 0.930 . S
C286 H274 0.930 . S
C286 C287 1.399 . S
C286 C291 1.399 . S
C287 C286 1.399 . S
C287 C288 1.376 . S
C288 H275 0.930 . S
C288 C287 1.376 . S
C288 C289 1.388 . S
C289 H276 0.930 . S
C289 C288 1.388 . S
C289 C290 1.390 . S
C290 C289 1.390 . S
C290 C291 1.394 . S
C290 C296 1.465 . S
C291 C286 1.399 . S
C291 C290 1.394 . S
C291 C292 1.516 . S
C292 C291 1.516 . S
C292 C293 1.502 . S
C292 C294 1.561 . S
C292 C295 1.526 . S
C293 H277 0.959 . S
C293 H278 0.959 . S
C293 H279 0.961 . S
C293 C292 1.502 . S
C294 H280 0.960 . S
C294 H281 0.961 . S
C294 H282 0.959 . S
C294 C292 1.561 . S
C295 C292 1.526 . S
C295 C296 1.396 . S
C295 C300 1.390 . S
C296 C290 1.465 . S
C296 C295 1.396 . S
C296 C297 1.399 . S
C297 H283 0.929 . S
C297 C296 1.399 . S
C297 C298 1.385 . S
C298 H284 0.931 . S
C298 C297 1.385 . S
C298 C299 1.389 . S
C299 C298 1.389 . S
C299 C300 1.387 . S
C300 H285 0.930 . S
C300 C295 1.390 . S
C300 C299 1.387 . S
H301 C313 0.930 . S
H302 C315 0.930 . S
H303 C316 0.930 . S
H304 C320 0.959 . S
H305 C320 0.959 . S
H306 C320 0.961 . S
H307 C321 0.960 . S
H308 C321 0.961 . S
H309 C321 0.959 . S
H310 C324 0.929 . S
H311 C325 0.931 . S
H312 C327 0.930 . S
C313 H301 0.930 . S
C313 C314 1.399 . S
C313 C318 1.399 . S
C314 C313 1.399 . S
C314 C315 1.376 . S
C315 H302 0.930 . S
C315 C314 1.376 . S
C315 C316 1.388 . S
C316 H303 0.930 . S
C316 C315 1.388 . S
C316 C317 1.390 . S
C317 C316 1.390 . S
C317 C318 1.394 . S
C317 C323 1.465 . S
C318 C313 1.399 . S
C318 C317 1.394 . S
C318 C319 1.516 . S
C319 C318 1.516 . S
C319 C320 1.502 . S
C319 C321 1.561 . S
C319 C322 1.526 . S
C320 H304 0.959 . S
C320 H305 0.959 . S
C320 H306 0.961 . S
C320 C319 1.502 . S
C321 H307 0.960 . S
C321 H308 0.961 . S
C321 H309 0.959 . S
C321 C319 1.561 . S
C322 C319 1.526 . S
C322 C323 1.396 . S
C322 C327 1.390 . S
C323 C317 1.465 . S
C323 C322 1.396 . S
C323 C324 1.399 . S
C324 H310 0.929 . S
C324 C323 1.399 . S
C324 C325 1.385 . S
C325 H311 0.931 . S
C325 C324 1.385 . S
C325 C326 1.389 . S
C326 C325 1.389 . S
C326 C327 1.387 . S
C327 H312 0.930 . S
C327 C322 1.390 . S
C327 C326 1.387 . S
H328 C340 0.930 1_545 S
H329 C342 0.930 . S
H330 C343 0.930 . S
H331 C347 0.959 . S
H332 C347 0.959 . S
H333 C347 0.961 . S
H334 C348 0.960 . S
H335 C348 0.961 . S
H336 C348 0.959 . S
H337 C351 0.929 . S
H338 C352 0.931 . S
H339 C354 0.930 . S
C340 H328 0.930 1_565 S
C340 C341 1.399 . S
C340 C345 1.404 . S
C341 C340 1.399 . S
C341 C342 1.376 . S
C342 H329 0.930 . S
C342 C341 1.376 . S
C342 C343 1.388 . S
C343 H330 0.930 . S
C343 C342 1.388 . S
C343 C344 1.390 . S
C344 C343 1.390 . S
C344 C345 1.402 . S
C344 C350 1.465 . S
C345 C340 1.404 . S
C345 C344 1.402 . S
C345 C346 1.503 1_565 S
C346 C345 1.503 1_545 S
C346 C347 1.502 . S
C346 C348 1.561 . S
C346 C349 1.526 . S
C347 H331 0.959 . S
C347 H332 0.959 . S
C347 H333 0.961 . S
C347 C346 1.502 . S
C348 H334 0.960 . S
C348 H335 0.961 . S
C348 H336 0.959 . S
C348 C346 1.561 . S
C349 C346 1.526 . S
C349 C350 1.396 1_545 S
C349 C354 1.390 . S
C350 C344 1.465 . S
C350 C349 1.396 1_565 S
C350 C351 1.399 . S
C351 H337 0.929 . S
C351 C350 1.399 . S
C351 C352 1.385 1_565 S
C352 H338 0.931 . S
C352 C351 1.385 1_545 S
C352 C353 1.389 . S
C353 C352 1.389 . S
C353 C354 1.387 . S
C354 H339 0.930 . S
C354 C349 1.390 . S
C354 C353 1.387 . S
H355 C367 0.930 . S
H356 C369 0.928 1_545 S
H357 C370 0.930 . S
H358 C374 0.959 . S
H359 C374 0.959 . S
H360 C374 0.961 . S
H361 C375 0.960 . S
H362 C375 0.961 . S
H363 C375 0.959 . S
H364 C378 0.929 . S
H365 C379 0.931 . S
H366 C381 0.930 1_565 S
C367 H355 0.930 . S
C367 C368 1.399 . S
C367 C372 1.399 . S
C368 C367 1.399 . S
C368 C369 1.376 . S
C369 H356 0.928 1_565 S
C369 C368 1.376 . S
C369 C370 1.388 1_565 S
C370 H357 0.930 . S
C370 C369 1.388 1_545 S
C370 C371 1.390 . S
C371 C370 1.390 . S
C371 C372 1.394 1_545 S
C371 C377 1.465 . S
C372 C367 1.399 . S
C372 C371 1.394 1_565 S
C372 C373 1.516 . S
C373 C372 1.516 . S
C373 C374 1.502 . S
C373 C375 1.561 . S
C373 C376 1.522 1_565 S
C374 H358 0.959 . S
C374 H359 0.959 . S
C374 H360 0.961 . S
C374 C373 1.502 . S
C375 H361 0.960 . S
C375 H362 0.961 . S
C375 H363 0.959 . S
C375 C373 1.561 . S
C376 C373 1.522 1_545 S
C376 C377 1.398 . S
C376 C381 1.391 . S
C377 C371 1.465 . S
C377 C376 1.398 . S
C377 C378 1.399 . S
C378 H364 0.929 . S
C378 C377 1.399 . S
C378 C379 1.385 . S
C379 H365 0.931 . S
C379 C378 1.385 . S
C379 C380 1.389 . S
C380 C379 1.389 . S
C380 C381 1.387 . S
C381 H366 0.930 1_545 S
C381 C376 1.391 . S
C381 C380 1.387 . S
H382 C394 0.938 . S
H383 C396 0.930 . S
H384 C397 0.930 . S
H385 C401 0.959 . S
H386 C401 0.959 . S
H387 C401 0.961 . S
H388 C402 0.960 . S
H389 C402 0.961 . S
H390 C402 0.959 . S
H391 C405 0.929 . S
H392 C406 0.931 . S
H393 C408 0.930 . S
C394 H382 0.938 . S
C394 C395 1.399 . S
C394 C399 1.399 . S
C395 C394 1.399 . S
C395 C396 1.376 . S
C396 H383 0.930 . S
C396 C395 1.376 . S
C396 C397 1.388 . S
C397 H384 0.930 . S
C397 C396 1.388 . S
C397 C398 1.390 . S
C398 C397 1.390 . S
C398 C399 1.394 . S
C398 C404 1.465 . S
C399 C394 1.399 . S
C399 C398 1.394 . S
C399 C400 1.516 1_565 S
C400 C399 1.516 1_545 S
C400 C401 1.502 . S
C400 C402 1.561 . S
C400 C403 1.526 . S
C401 H385 0.959 . S
C401 H386 0.959 . S
C401 H387 0.961 . S
C401 C400 1.502 . S
C402 H388 0.960 . S
C402 H389 0.961 . S
C402 H390 0.959 . S
C402 C400 1.561 . S
C403 C400 1.526 . S
C403 C404 1.396 1_545 S
C403 C408 1.390 . S
C404 C398 1.465 . S
C404 C403 1.396 1_565 S
C404 C405 1.399 . S
C405 H391 0.929 . S
C405 C404 1.399 . S
C405 C406 1.385 1_565 S
C406 H392 0.931 . S
C406 C405 1.385 1_545 S
C406 C407 1.389 . S
C407 C406 1.389 . S
C407 C408 1.387 . S
C408 H393 0.930 . S
C408 C403 1.390 . S
C408 C407 1.387 . S
H409 C421 0.930 . S
H410 C423 0.930 . S
H411 C424 0.930 . S
H412 C428 0.959 . S
H413 C428 0.959 . S
H414 C428 0.961 . S
H415 C429 0.960 . S
H416 C429 0.961 . S
H417 C429 0.959 . S
H418 C432 0.929 . S
H419 C433 0.931 . S
H420 C435 0.930 1_565 S
C421 H409 0.930 . S
C421 C422 1.399 . S
C421 C426 1.399 . S
C422 C421 1.399 . S
C422 C423 1.376 . S
C423 H410 0.930 . S
C423 C422 1.376 . S
C423 C424 1.388 1_565 S
C424 H411 0.930 . S
C424 C423 1.388 1_545 S
C424 C425 1.390 . S
C425 C424 1.390 . S
C425 C426 1.394 1_545 S
C425 C431 1.465 . S
C426 C421 1.399 . S
C426 C425 1.394 1_565 S
C426 C427 1.516 . S
C427 C426 1.516 . S
C427 C428 1.502 . S
C427 C429 1.561 . S
C427 C430 1.512 1_565 S
C428 H412 0.959 . S
C428 H413 0.959 . S
C428 H414 0.961 . S
C428 C427 1.502 . S
C429 H415 0.960 . S
C429 H416 0.961 . S
C429 H417 0.959 . S
C429 C427 1.561 . S
C430 C427 1.512 1_545 S
C430 C431 1.405 . S
C430 C435 1.395 . S
C431 C425 1.465 . S
C431 C430 1.405 . S
C431 C432 1.399 . S
C432 H418 0.929 . S
C432 C431 1.399 . S
C432 C433 1.385 . S
C433 H419 0.931 . S
C433 C432 1.385 . S
C433 C434 1.389 . S
C434 C433 1.389 . S
C434 C435 1.387 . S
C435 H420 0.930 1_545 S
C435 C430 1.395 . S
C435 C434 1.387 . S
H436 C448 0.930 . S
H437 C450 0.930 . S
H438 C451 0.930 . S
H439 C455 0.959 . S
H440 C455 0.959 1_545 S
H441 C455 0.961 . S
H442 C456 0.960 . S
H443 C456 0.961 . S
H444 C456 0.959 . S
H445 C459 0.929 . S
H446 C460 0.931 . S
H447 C462 0.930 . S
C448 H436 0.930 . S
C448 C449 1.399 1_556 S
C448 C453 1.399 . S
C449 C448 1.399 1_554 S
C449 C450 1.376 . S
C450 H437 0.930 . S
C450 C449 1.376 . S
C450 C451 1.388 . S
C451 H438 0.930 . S
C451 C450 1.388 . S
C451 C452 1.390 . S
C452 C451 1.390 . S
C452 C453 1.394 1_554 S
C452 C458 1.465 1_565 S
C453 C448 1.399 . S
C453 C452 1.394 1_556 S
C453 C454 1.516 1_565 S
C454 C453 1.516 1_545 S
C454 C455 1.502 1_545 S
C454 C456 1.561 . S
C454 C457 1.526 . S
C455 H439 0.959 . S
C455 H440 0.959 1_565 S
C455 H441 0.961 . S
C455 C454 1.502 1_565 S
C456 H442 0.960 . S
C456 H443 0.961 . S
C456 H444 0.959 . S
C456 C454 1.561 . S
C457 C454 1.526 . S
C457 C458 1.396 1_556 S
C457 C462 1.390 . S
C458 C452 1.465 1_545 S
C458 C457 1.396 1_554 S
C458 C459 1.399 . S
C459 H445 0.929 . S
C459 C458 1.399 . S
C459 C460 1.385 . S
C460 H446 0.931 . S
C460 C459 1.385 . S
C460 C461 1.389 . S
C461 C460 1.389 . S
C461 C462 1.387 1_554 S
C462 H447 0.930 . S
C462 C457 1.390 . S
C462 C461 1.387 1_556 S
H463 C475 0.930 . S
H464 C477 0.930 . S
H465 C478 0.930 . S
H466 C482 0.959 . S
H467 C482 0.959 . S
H468 C482 0.961 1_565 S
H469 C483 0.960 . S
H470 C483 0.961 . S
H471 C483 0.959 . S
H472 C486 0.929 . S
H473 C487 0.931 . S
H474 C489 0.930 . S
C475 H463 0.930 . S
C475 C476 1.399 . S
C475 C480 1.399 . S
C476 C475 1.399 . S
C476 C477 1.376 . S
C477 H464 0.930 . S
C477 C476 1.376 . S
C477 C478 1.388 . S
C478 H465 0.930 . S
C478 C477 1.388 . S
C478 C479 1.390 . S
C479 C478 1.390 . S
C479 C480 1.394 . S
C479 C485 1.465 1_565 S
C480 C475 1.399 . S
C480 C479 1.394 . S
C480 C481 1.516 . S
C481 C480 1.516 . S
C481 C482 1.502 1_565 S
C481 C483 1.561 . S
C481 C484 1.526 1_565 S
C482 H466 0.959 . S
C482 H467 0.959 . S
C482 H468 0.961 1_545 S
C482 C481 1.502 1_545 S
C483 H469 0.960 . S
C483 H470 0.961 . S
C483 H471 0.959 . S
C483 C481 1.561 . S
C484 C481 1.526 1_545 S
C484 C485 1.396 . S
C484 C489 1.390 . S
C485 C479 1.465 1_545 S
C485 C484 1.396 . S
C485 C486 1.399 . S
C486 H472 0.929 . S
C486 C485 1.399 . S
C486 C487 1.385 . S
C487 H473 0.931 . S
C487 C486 1.385 . S
C487 C488 1.389 . S
C488 C487 1.389 . S
C488 C489 1.387 . S
C489 H474 0.930 . S
C489 C484 1.390 . S
C489 C488 1.387 . S
H490 C502 0.930 . S
H491 C504 0.930 . S
H492 C505 0.925 1_655 S
H493 C509 0.959 . S
H494 C509 0.959 . S
H495 C509 0.961 . S
H496 C510 0.960 . S
H497 C510 0.961 . S
H498 C510 0.959 . S
H499 C513 0.929 . S
H500 C514 0.931 . S
H501 C516 0.930 . S
C502 H490 0.930 . S
C502 C503 1.399 . S
C502 C507 1.399 . S
C503 C502 1.399 . S
C503 C504 1.376 1_554 S
C504 H491 0.930 . S
C504 C503 1.376 1_556 S
C504 C505 1.388 . S
C505 H492 0.925 1_455 S
C505 C504 1.388 . S
C505 C506 1.390 . S
C506 C505 1.390 . S
C506 C507 1.394 1_556 S
C506 C512 1.465 1_455 S
C507 C502 1.399 . S
C507 C506 1.394 1_554 S
C507 C508 1.516 . S
C508 C507 1.516 . S
C508 C509 1.502 . S
C508 C510 1.561 1_455 S
C508 C511 1.526 1_455 S
C509 H493 0.959 . S
C509 H494 0.959 . S
C509 H495 0.961 . S
C509 C508 1.502 . S
C510 H496 0.960 . S
C510 H497 0.961 . S
C510 H498 0.959 . S
C510 C508 1.561 1_655 S
C511 C508 1.526 1_655 S
C511 C512 1.396 1_554 S
C511 C516 1.390 . S
C512 C506 1.465 1_655 S
C512 C511 1.396 1_556 S
C512 C513 1.399 . S
C513 H499 0.929 . S
C513 C512 1.399 . S
C513 C514 1.385 . S
C514 H500 0.931 . S
C514 C513 1.385 . S
C514 C515 1.389 1_556 S
C515 C514 1.389 1_554 S
C515 C516 1.387 . S
C516 H501 0.930 . S
C516 C511 1.390 . S
C516 C515 1.387 . S
H517 C529 0.930 . S
H518 C531 0.930 . S
H519 C532 0.930 1_655 S
H520 C536 0.959 1_655 S
H521 C536 0.959 . S
H522 C536 0.961 . S
H523 C537 0.960 . S
H524 C537 0.961 . S
H525 C537 0.959 . S
H526 C540 0.929 . S
H527 C541 0.931 . S
H528 C543 0.930 . S
C529 H517 0.930 . S
C529 C530 1.399 . S
C529 C534 1.399 . S
C530 C529 1.399 . S
C530 C531 1.376 . S
C531 H518 0.930 . S
C531 C530 1.376 . S
C531 C532 1.388 . S
C532 H519 0.930 1_455 S
C532 C531 1.388 . S
C532 C533 1.390 . S
C533 C532 1.390 . S
C533 C534 1.394 . S
C533 C539 1.465 1_455 S
C534 C529 1.399 . S
C534 C533 1.394 . S
C534 C535 1.516 . S
C535 C534 1.516 . S
C535 C536 1.502 . S
C535 C537 1.561 . S
C535 C538 1.526 1_455 S
C536 H520 0.959 1_455 S
C536 H521 0.959 . S
C536 H522 0.961 . S
C536 C535 1.502 . S
C537 H523 0.960 . S
C537 H524 0.961 . S
C537 H525 0.959 . S
C537 C535 1.561 . S
C538 C535 1.526 1_655 S
C538 C539 1.396 . S
C538 C543 1.390 . S
C539 C533 1.465 1_655 S
C539 C538 1.396 . S
C539 C540 1.399 . S
C540 H526 0.929 . S
C540 C539 1.399 . S
C540 C541 1.385 . S
C541 H527 0.931 . S
C541 C540 1.385 . S
C541 C542 1.389 . S
C542 C541 1.389 . S
C542 C543 1.387 . S
C543 H528 0.930 . S
C543 C538 1.390 . S
C543 C542 1.387 . S
C125 C78 1.421 . S
C137 C8 1.486 . S
C152 C64 1.453 . S
C164 C22 1.485 . S
C179 C106 1.448 . S
C191 C36 1.487 . S
C206 C92 1.451 . S
C218 C50 1.486 . S
C233 C7 1.409 . S
C245 C35 1.387 . S
C260 C21 1.409 . S
C272 C49 1.385 . S
C287 C27 1.337 . S
C299 C55 1.273 . S
C314 C13 1.338 . S
C326 C41 1.273 . S
C341 C63 1.409 . S
C353 C91 1.390 . S
C368 C105 1.376 . S
C380 C77 1.399 . S
C395 C111 1.316 . S
C407 C83 1.269 . S
C422 C69 1.330 . S
C434 C97 1.381 . S
C449 C25 1.488 . S
C461 C11 1.488 . S
C476 C39 1.514 . S
C488 C53 1.514 . S
C503 C67 1.511 . S
C515 C81 1.512 . S
C530 C95 1.488 . S
C542 C109 1.489 . S
