# Generated by pormake.
# Topology wiv, (6)-cn, num edge types: 1
# Building blocks:
#     Node 0, Type 0, BuildingBlock: VOLQOD_clean_sbu_1, # of connection points: 6
#     Node 1, Type 0, BuildingBlock: VOLQOD_clean_sbu_1, # of connection points: 6
#     Node 2, Type 0, BuildingBlock: VOLQOD_clean_sbu_1, # of connection points: 6
#     Node 3, Type 0, BuildingBlock: VOLQOD_clean_sbu_1, # of connection points: 6
#     Node 4, Type 0, BuildingBlock: VOLQOD_clean_sbu_1, # of connection points: 6
#     Node 5, Type 0, BuildingBlock: VOLQOD_clean_sbu_1, # of connection points: 6
#     Node 6, Type 0, BuildingBlock: VOLQOD_clean_sbu_1, # of connection points: 6
#     Node 7, Type 0, BuildingBlock: VOLQOD_clean_sbu_1, # of connection points: 6
#     Node 8, Type 0, BuildingBlock: VOLQOD_clean_sbu_1, # of connection points: 6
#     Node 9, Type 0, BuildingBlock: VOLQOD_clean_sbu_1, # of connection points: 6
#     Node 10, Type 0, BuildingBlock: VOLQOD_clean_sbu_1, # of connection points: 6
#     Node 11, Type 0, BuildingBlock: VOLQOD_clean_sbu_1, # of connection points: 6
#     Node 12, Type 0, BuildingBlock: VOLQOD_clean_sbu_1, # of connection points: 6
#     Node 13, Type 0, BuildingBlock: VOLQOD_clean_sbu_1, # of connection points: 6
#     Node 14, Type 0, BuildingBlock: VOLQOD_clean_sbu_1, # of connection points: 6
#     Node 15, Type 0, BuildingBlock: VOLQOD_clean_sbu_1, # of connection points: 6
#     Edge 16, Type (0, 0), BuildingBlock: UVAHIK_clean_linker_0, # of connection points: 2
#     Edge 17, Type (0, 0), BuildingBlock: UVAHIK_clean_linker_0, # of connection points: 2
#     Edge 18, Type (0, 0), BuildingBlock: UVAHIK_clean_linker_0, # of connection points: 2
#     Edge 19, Type (0, 0), BuildingBlock: UVAHIK_clean_linker_0, # of connection points: 2
#     Edge 20, Type (0, 0), BuildingBlock: UVAHIK_clean_linker_0, # of connection points: 2
#     Edge 21, Type (0, 0), BuildingBlock: UVAHIK_clean_linker_0, # of connection points: 2
#     Edge 22, Type (0, 0), BuildingBlock: UVAHIK_clean_linker_0, # of connection points: 2
#     Edge 23, Type (0, 0), BuildingBlock: UVAHIK_clean_linker_0, # of connection points: 2
#     Edge 24, Type (0, 0), BuildingBlock: UVAHIK_clean_linker_0, # of connection points: 2
#     Edge 25, Type (0, 0), BuildingBlock: UVAHIK_clean_linker_0, # of connection points: 2
#     Edge 26, Type (0, 0), BuildingBlock: UVAHIK_clean_linker_0, # of connection points: 2
#     Edge 27, Type (0, 0), BuildingBlock: UVAHIK_clean_linker_0, # of connection points: 2
#     Edge 28, Type (0, 0), BuildingBlock: UVAHIK_clean_linker_0, # of connection points: 2
#     Edge 29, Type (0, 0), BuildingBlock: UVAHIK_clean_linker_0, # of connection points: 2
#     Edge 30, Type (0, 0), BuildingBlock: UVAHIK_clean_linker_0, # of connection points: 2
#     Edge 31, Type (0, 0), BuildingBlock: UVAHIK_clean_linker_0, # of connection points: 2
#     Edge 32, Type (0, 0), BuildingBlock: UVAHIK_clean_linker_0, # of connection points: 2
#     Edge 33, Type (0, 0), BuildingBlock: UVAHIK_clean_linker_0, # of connection points: 2
#     Edge 34, Type (0, 0), BuildingBlock: UVAHIK_clean_linker_0, # of connection points: 2
#     Edge 35, Type (0, 0), BuildingBlock: UVAHIK_clean_linker_0, # of connection points: 2
#     Edge 36, Type (0, 0), BuildingBlock: UVAHIK_clean_linker_0, # of connection points: 2
#     Edge 37, Type (0, 0), BuildingBlock: UVAHIK_clean_linker_0, # of connection points: 2
#     Edge 38, Type (0, 0), BuildingBlock: UVAHIK_clean_linker_0, # of connection points: 2
#     Edge 39, Type (0, 0), BuildingBlock: UVAHIK_clean_linker_0, # of connection points: 2
#     Edge 40, Type (0, 0), BuildingBlock: UVAHIK_clean_linker_0, # of connection points: 2
#     Edge 41, Type (0, 0), BuildingBlock: UVAHIK_clean_linker_0, # of connection points: 2
#     Edge 42, Type (0, 0), BuildingBlock: UVAHIK_clean_linker_0, # of connection points: 2
#     Edge 43, Type (0, 0), BuildingBlock: UVAHIK_clean_linker_0, # of connection points: 2
#     Edge 44, Type (0, 0), BuildingBlock: UVAHIK_clean_linker_0, # of connection points: 2
#     Edge 45, Type (0, 0), BuildingBlock: UVAHIK_clean_linker_0, # of connection points: 2
#     Edge 46, Type (0, 0), BuildingBlock: UVAHIK_clean_linker_0, # of connection points: 2
#     Edge 47, Type (0, 0), BuildingBlock: UVAHIK_clean_linker_0, # of connection points: 2
#     Edge 48, Type (0, 0), BuildingBlock: UVAHIK_clean_linker_0, # of connection points: 2
#     Edge 49, Type (0, 0), BuildingBlock: UVAHIK_clean_linker_0, # of connection points: 2
#     Edge 50, Type (0, 0), BuildingBlock: UVAHIK_clean_linker_0, # of connection points: 2
#     Edge 51, Type (0, 0), BuildingBlock: UVAHIK_clean_linker_0, # of connection points: 2
#     Edge 52, Type (0, 0), BuildingBlock: UVAHIK_clean_linker_0, # of connection points: 2
#     Edge 53, Type (0, 0), BuildingBlock: UVAHIK_clean_linker_0, # of connection points: 2
#     Edge 54, Type (0, 0), BuildingBlock: UVAHIK_clean_linker_0, # of connection points: 2
#     Edge 55, Type (0, 0), BuildingBlock: UVAHIK_clean_linker_0, # of connection points: 2
#     Edge 56, Type (0, 0), BuildingBlock: UVAHIK_clean_linker_0, # of connection points: 2
#     Edge 57, Type (0, 0), BuildingBlock: UVAHIK_clean_linker_0, # of connection points: 2
#     Edge 58, Type (0, 0), BuildingBlock: UVAHIK_clean_linker_0, # of connection points: 2
#     Edge 59, Type (0, 0), BuildingBlock: UVAHIK_clean_linker_0, # of connection points: 2
#     Edge 60, Type (0, 0), BuildingBlock: UVAHIK_clean_linker_0, # of connection points: 2
#     Edge 61, Type (0, 0), BuildingBlock: UVAHIK_clean_linker_0, # of connection points: 2
#     Edge 62, Type (0, 0), BuildingBlock: UVAHIK_clean_linker_0, # of connection points: 2
#     Edge 63, Type (0, 0), BuildingBlock: UVAHIK_clean_linker_0, # of connection points: 2
# Relax obj value: 0.187
# Max RMSD: 0.160
# Mean RMSD: 0.158
data_MOF--net-wiv--node1-VOLQOD_clean_sbu_1--edge1-UVAHIK_clean_linker_0
_symmetry_space_group_name_H-M    P1
_symmetry_Int_Tables_number       1
_symmetry_cell_setting            triclinic
loop_
_symmetry_equiv_pos_as_xyz
'x, y, z'
_cell_length_a     81.142388
_cell_length_b     81.365572
_cell_length_c     20.15113
_cell_angle_alpha  89.999378
_cell_angle_beta   89.986614
_cell_angle_gamma 90.042809
loop_
_atom_site_label
_atom_site_type_symbol
_atom_site_fract_x
_atom_site_fract_y
_atom_site_fract_z
_atom_type_partial_charge
O0 O 0.36762 0.14264 0.06831 0.0
Zn1 Zn 0.36468 0.14106 0.16664 0.0
O2 O 0.35311 0.12088 0.18916 0.0
Zn3 Zn 0.33081 0.12656 0.21873 0.0
Zn4 Zn 0.35207 0.10635 0.11331 0.0
Zn5 Zn 0.36537 0.10971 0.25761 0.0
O6 O 0.32836 0.12182 0.31633 0.0
O7 O 0.3526 0.1106 0.3412 0.0
O8 O 0.35174 0.16077 0.19382 0.0
O9 O 0.32654 0.15088 0.21012 0.0
O10 O 0.31347 0.11496 0.16426 0.0
O11 O 0.32859 0.10215 0.08839 0.0
O12 O 0.36235 0.08429 0.12972 0.0
O13 O 0.38711 0.14229 0.20846 0.0
O14 O 0.36999 0.08626 0.23502 0.0
O15 O 0.38739 0.12029 0.27326 0.0
C16 C 0.36723 0.13169 0.02332 0.0
C17 C 0.33834 0.11558 0.35806 0.0
C18 C 0.31463 0.10599 0.11262 0.0
C19 C 0.33647 0.16292 0.20516 0.0
C20 C 0.36861 0.07802 0.1817 0.0
C21 C 0.39438 0.13307 0.25016 0.0
O22 O 0.36261 0.11703 0.03513 0.0
O23 O 0.0973 0.61078 0.97933 0.0
Zn24 Zn 0.09591 0.61352 0.88067 0.0
O25 O 0.1121 0.62935 0.84966 0.0
Zn26 Zn 0.10036 0.64943 0.82667 0.0
Zn27 Zn 0.12794 0.6339 0.91869 0.0
Zn28 Zn 0.12413 0.62056 0.77442 0.0
O29 O 0.10199 0.65351 0.72935 0.0
O30 O 0.11938 0.63419 0.69446 0.0
O31 O 0.0729 0.62121 0.86363 0.0
O32 O 0.0761 0.64794 0.84635 0.0
O33 O 0.10968 0.66889 0.87429 0.0
O34 O 0.12955 0.65813 0.93615 0.0
O35 O 0.15052 0.62594 0.89684 0.0
O36 O 0.09886 0.59186 0.83562 0.0
O37 O 0.14873 0.61997 0.78976 0.0
O38 O 0.11712 0.5972 0.75631 0.0
C39 C 0.10817 0.61542 0.02074 0.0
C40 C 0.11026 0.64663 0.68358 0.0
C41 C 0.12139 0.67049 0.91579 0.0
C42 C 0.06687 0.63549 0.85549 0.0
C43 C 0.15719 0.62155 0.84259 0.0
C44 C 0.10734 0.58734 0.78571 0.0
O45 O 0.12065 0.62377 0.00297 0.0
O46 O 0.62372 0.8512 0.03608 0.0
Zn47 Zn 0.6268 0.85271 0.13471 0.0
O48 O 0.63943 0.87217 0.15694 0.0
Zn49 Zn 0.66175 0.86549 0.18262 0.0
Zn50 Zn 0.63975 0.88692 0.08191 0.0
Zn51 Zn 0.6287 0.88364 0.22811 0.0
O52 O 0.66525 0.86899 0.28114 0.0
O53 O 0.64165 0.88089 0.31019 0.0
O54 O 0.63893 0.83246 0.16167 0.0
O55 O 0.66485 0.84105 0.17016 0.0
O56 O 0.67886 0.87729 0.12703 0.0
O57 O 0.66307 0.89044 0.05416 0.0
O58 O 0.63043 0.90933 0.10161 0.0
O59 O 0.60449 0.85283 0.1782 0.0
O60 O 0.62645 0.90764 0.21018 0.0
O61 O 0.60604 0.87465 0.24397 0.0
C62 C 0.62397 0.86224 -0.00859 0.0
C63 C 0.65574 0.87514 0.32489 0.0
C64 C 0.67722 0.88638 0.07587 0.0
C65 C 0.65423 0.82953 0.16865 0.0
C66 C 0.62666 0.91595 0.15676 0.0
C67 C 0.59808 0.86243 0.22092 0.0
O68 O 0.62851 0.87689 0.0039 0.0
O69 O 0.89598 0.38262 0.97964 0.0
Zn70 Zn 0.89676 0.37786 0.8825 0.0
O71 O 0.87971 0.36216 0.85729 0.0
Zn72 Zn 0.89028 0.34191 0.8259 0.0
Zn73 Zn 0.86565 0.35758 0.93264 0.0
Zn74 Zn 0.8659 0.37164 0.78889 0.0
O75 O 0.88605 0.3385 0.72854 0.0
O76 O 0.8695 0.3595 0.70522 0.0
O77 O 0.91936 0.36917 0.86452 0.0
O78 O 0.91502 0.34337 0.83365 0.0
O79 O 0.88294 0.32231 0.87976 0.0
O80 O 0.86811 0.33405 0.95955 0.0
O81 O 0.84161 0.36153 0.91419 0.0
O82 O 0.8939 0.39927 0.83494 0.0
O83 O 0.84178 0.37039 0.81026 0.0
O84 O 0.8718 0.39533 0.77203 0.0
C85 C 0.88502 0.37973 0.02316 0.0
C86 C 0.8775 0.34681 0.6876 0.0
C87 C 0.87475 0.32142 0.93363 0.0
C88 C 0.92479 0.35512 0.84759 0.0
C89 C 0.834 0.36636 0.86259 0.0
C90 C 0.88337 0.40452 0.79326 0.0
O91 O 0.87237 0.37106 0.01041 0.0
O92 O 0.37132 0.3569 0.17724 0.0
Zn93 Zn 0.36527 0.35379 0.08203 0.0
O94 O 0.35104 0.37161 0.05174 0.0
Zn95 Zn 0.32943 0.36254 0.02682 0.0
Zn96 Zn 0.34842 0.38805 0.12073 0.0
Zn97 Zn 0.36141 0.38231 0.9771 0.0
O98 O 0.32579 0.36426 0.92804 0.0
O99 O 0.34735 0.37949 0.89789 0.0
O100 O 0.35334 0.33235 0.08076 0.0
O101 O 0.3278 0.33857 0.05076 0.0
O102 O 0.3111 0.37379 0.07708 0.0
O103 O 0.32467 0.39048 0.14504 0.0
O104 O 0.35674 0.41033 0.09465 0.0
O105 O 0.3862 0.35207 0.02904 0.0
O106 O 0.36511 0.40638 -0.00868 0.0
O107 O 0.38351 0.37245 0.95686 0.0
C108 C 0.36849 0.36837 0.21845 0.0
C109 C 0.33402 0.372 0.88424 0.0
C110 C 0.31124 0.38433 0.12384 0.0
C111 C 0.33845 0.32818 0.07035 0.0
C112 C 0.3629 0.41576 0.04095 0.0
C113 C 0.39175 0.36056 0.98092 0.0
O114 O 0.36017 0.38101 0.20256 0.0
O115 O 0.39442 0.60822 0.70419 0.0
Zn116 Zn 0.39557 0.61187 0.80257 0.0
O117 O 0.37918 0.62789 0.83169 0.0
Zn118 Zn 0.39041 0.64816 0.85842 0.0
Zn119 Zn 0.36401 0.63229 0.75988 0.0
Zn120 Zn 0.36641 0.61909 0.90481 0.0
O121 O 0.38666 0.6529 0.95462 0.0
O122 O 0.36985 0.6327 0.98548 0.0
O123 O 0.41843 0.62 0.82023 0.0
O124 O 0.41502 0.64609 0.84941 0.0
O125 O 0.38268 0.66746 0.80446 0.0
O126 O 0.36466 0.65609 0.73517 0.0
O127 O 0.34064 0.62643 0.7811 0.0
O128 O 0.39256 0.59029 0.84976 0.0
O129 O 0.3421 0.6184 0.8859 0.0
O130 O 0.37343 0.59602 0.92518 0.0
C131 C 0.38322 0.61183 0.6626 0.0
C132 C 0.37809 0.64561 -0.00154 0.0
C133 C 0.37247 0.66856 0.75668 0.0
C134 C 0.42434 0.63395 0.83615 0.0
C135 C 0.33374 0.62133 0.83385 0.0
C136 C 0.38357 0.58605 0.89869 0.0
O137 O 0.37066 0.62019 0.6791 0.0
O138 O 0.61497 0.63471 0.20912 0.0
Zn139 Zn 0.62094 0.63614 0.11266 0.0
O140 O 0.63473 0.61757 0.0862 0.0
Zn141 Zn 0.6567 0.62551 0.05968 0.0
Zn142 Zn 0.63653 0.60209 0.15871 0.0
Zn143 Zn 0.62436 0.60606 0.01374 0.0
O144 O 0.66017 0.62281 0.96091 0.0
O145 O 0.63817 0.60799 0.93336 0.0
O146 O 0.63349 0.65716 0.10525 0.0
O147 O 0.65896 0.64975 0.07848 0.0
O148 O 0.67465 0.61417 0.11248 0.0
O149 O 0.65996 0.60002 0.186 0.0
O150 O 0.62854 0.57944 0.13644 0.0
O151 O 0.60002 0.63753 0.05877 0.0
O152 O 0.62052 0.58219 0.03206 0.0
O153 O 0.60256 0.61602 -0.00812 0.0
C154 C 0.61694 0.62341 0.25191 0.0
C155 C 0.65162 0.61507 0.91813 0.0
C156 C 0.67375 0.60493 0.16349 0.0
C157 C 0.64852 0.66073 0.09445 0.0
C158 C 0.62261 0.57338 0.08345 0.0
C159 C 0.59448 0.6284 0.01252 0.0
O160 O 0.62443 0.61013 0.23794 0.0
O161 O 0.59642 0.38356 0.73867 0.0
Zn162 Zn 0.59473 0.37843 0.83563 0.0
O163 O 0.61068 0.36171 0.86216 0.0
Zn164 Zn 0.59884 0.34183 0.89078 0.0
Zn165 Zn 0.62514 0.35693 0.7883 0.0
Zn166 Zn 0.62447 0.37 0.93317 0.0
O167 O 0.60228 0.33759 -0.01159 0.0
O168 O 0.62038 0.35707 0.01447 0.0
O169 O 0.57161 0.37064 0.84951 0.0
O170 O 0.57426 0.3446 0.88042 0.0
O171 O 0.60564 0.32218 0.83578 0.0
O172 O 0.62226 0.33356 0.7609 0.0
O173 O 0.64912 0.36048 0.80861 0.0
O174 O 0.59804 0.39931 0.88686 0.0
O175 O 0.64869 0.36879 0.9132 0.0
O176 O 0.61884 0.39343 0.95442 0.0
C177 C 0.60729 0.37987 0.69583 0.0
C178 C 0.61144 0.34486 0.03042 0.0
C179 C 0.61461 0.32116 0.78397 0.0
C180 C 0.56529 0.35688 0.8653 0.0
C181 C 0.65661 0.365 0.86095 0.0
C182 C 0.60807 0.40342 0.93251 0.0
O183 O 0.61927 0.37041 0.70967 0.0
O184 O 0.87644 0.6356 0.5165 0.0
Zn185 Zn 0.87025 0.63838 0.61185 0.0
O186 O 0.8567 0.62013 0.64292 0.0
Zn187 Zn 0.83474 0.62829 0.6686 0.0
Zn188 Zn 0.8548 0.60374 0.57353 0.0
Zn189 Zn 0.86747 0.60974 0.71738 0.0
O190 O 0.8309 0.62561 0.76702 0.0
O191 O 0.85306 0.61122 0.79607 0.0
O192 O 0.8576 0.65937 0.61509 0.0
O193 O 0.83247 0.65251 0.64868 0.0
O194 O 0.81688 0.61674 0.6163 0.0
O195 O 0.83138 0.60161 0.54542 0.0
O196 O 0.8626 0.58137 0.60111 0.0
O197 O 0.89098 0.64088 0.66532 0.0
O198 O 0.87241 0.5859 0.70202 0.0
O199 O 0.8886 0.62112 0.74069 0.0
C200 C 0.87467 0.6237 0.47629 0.0
C201 C 0.83937 0.61793 0.81018 0.0
C202 C 0.81767 0.60699 0.5669 0.0
C203 C 0.84278 0.66321 0.6285 0.0
C204 C 0.86955 0.57625 0.65372 0.0
C205 C 0.89643 0.63318 0.71571 0.0
O206 O 0.86718 0.6106 0.49299 0.0
O207 O 0.59783 0.10801 0.45344 0.0
Zn208 Zn 0.59744 0.1135 0.35617 0.0
O209 O 0.61402 0.13011 0.33437 0.0
Zn210 Zn 0.60294 0.15004 0.3026 0.0
Zn211 Zn 0.62725 0.13491 0.41159 0.0
Zn212 Zn 0.62896 0.1218 0.26747 0.0
O213 O 0.60685 0.1532 0.20459 0.0
O214 O 0.62526 0.13369 0.18313 0.0
O215 O 0.57462 0.12174 0.33868 0.0
O216 O 0.57828 0.14793 0.31183 0.0
O217 O 0.60982 0.16994 0.35614 0.0
O218 O 0.62414 0.15832 0.43769 0.0
O219 O 0.65147 0.13129 0.39771 0.0
O220 O 0.60124 0.09268 0.30461 0.0
O221 O 0.65286 0.12371 0.29236 0.0
O222 O 0.62426 0.09807 0.24895 0.0
C223 C 0.60807 0.11172 0.49876 0.0
C224 C 0.61619 0.14553 0.16432 0.0
C225 C 0.61757 0.17088 0.41106 0.0
C226 C 0.56883 0.13582 0.32422 0.0
C227 C 0.65986 0.1272 0.34705 0.0
C228 C 0.6127 0.08828 0.2652 0.0
O229 O 0.62012 0.12135 0.48811 0.0
O230 O 0.12255 0.35259 0.5343 0.0
Zn231 Zn 0.12587 0.35309 0.6327 0.0
O232 O 0.13821 0.3726 0.6582 0.0
Zn233 Zn 0.16047 0.36601 0.6859 0.0
Zn234 Zn 0.13948 0.38784 0.58451 0.0
Zn235 Zn 0.12648 0.38349 0.72891 0.0
O236 O 0.16414 0.37148 0.78236 0.0
O237 O 0.14011 0.38274 0.81014 0.0
O238 O 0.13811 0.33274 0.65723 0.0
O239 O 0.1634 0.34145 0.68059 0.0
O240 O 0.17786 0.37623 0.62737 0.0
O241 O 0.16294 0.39091 0.5566 0.0
O242 O 0.13029 0.4102 0.60501 0.0
O243 O 0.10369 0.35201 0.6767 0.0
O244 O 0.12173 0.40701 0.7086 0.0
O245 O 0.10468 0.37277 0.74781 0.0
C246 C 0.12297 0.36406 0.49149 0.0
C247 C 0.15457 0.37799 0.825 0.0
C248 C 0.17681 0.38572 0.57721 0.0
C249 C 0.15305 0.32988 0.67231 0.0
C250 C 0.1237 0.41591 0.65741 0.0
C251 C 0.09715 0.36056 0.72252 0.0
O252 O 0.12798 0.37845 0.50591 0.0
O253 O 0.39418 0.88385 0.4781 0.0
Zn254 Zn 0.39604 0.87992 0.38041 0.0
O255 O 0.37951 0.86438 0.34919 0.0
Zn256 Zn 0.39067 0.84415 0.32163 0.0
Zn257 Zn 0.36406 0.85973 0.41996 0.0
Zn258 Zn 0.36713 0.87394 0.27621 0.0
O259 O 0.38668 0.83971 0.22564 0.0
O260 O 0.37018 0.86022 0.1955 0.0
O261 O 0.41878 0.87144 0.36588 0.0
O262 O 0.41538 0.84579 0.33138 0.0
O263 O 0.38264 0.82477 0.37414 0.0
O264 O 0.3645 0.83583 0.44373 0.0
O265 O 0.34084 0.86587 0.3977 0.0
O266 O 0.39413 0.90136 0.33289 0.0
O267 O 0.34279 0.8752 0.29474 0.0
O268 O 0.37489 0.89697 0.25659 0.0
C269 C 0.38279 0.88021 0.51878 0.0
C270 C 0.37812 0.84715 0.18225 0.0
C271 C 0.37233 0.82345 0.42146 0.0
C272 C 0.4247 0.85767 0.3481 0.0
C273 C 0.33422 0.87176 0.34574 0.0
C274 C 0.3855 0.90629 0.28408 0.0
O275 O 0.37039 0.87169 0.50146 0.0
O276 O 0.87487 0.85363 0.71352 0.0
Zn277 Zn 0.87083 0.85483 0.61535 0.0
O278 O 0.8588 0.87478 0.59294 0.0
Zn279 Zn 0.83648 0.86882 0.56373 0.0
Zn280 Zn 0.85779 0.88923 0.66901 0.0
Zn281 Zn 0.87053 0.88638 0.52406 0.0
O282 O 0.83378 0.87332 0.46582 0.0
O283 O 0.85752 0.88558 0.44121 0.0
O284 O 0.85776 0.83493 0.59126 0.0
O285 O 0.8325 0.8444 0.57295 0.0
O286 O 0.81915 0.88045 0.61831 0.0
O287 O 0.83436 0.89224 0.69676 0.0
O288 O 0.86699 0.91179 0.65152 0.0
O289 O 0.89263 0.85351 0.56809 0.0
O290 O 0.87495 0.90989 0.54666 0.0
O291 O 0.89225 0.87578 0.50469 0.0
C292 C 0.87449 0.8647 0.75805 0.0
C293 C 0.84346 0.88009 0.42422 0.0
C294 C 0.8204 0.88868 0.6719 0.0
C295 C 0.84256 0.83252 0.57937 0.0
C296 C 0.87317 0.9182 0.59959 0.0
C297 C 0.89938 0.86282 0.52519 0.0
O298 O 0.86929 0.87914 0.74603 0.0
O299 O 0.89725 0.10841 0.25264 0.0
Zn300 Zn 0.89876 0.11298 0.35054 0.0
O301 O 0.88271 0.12953 0.37845 0.0
Zn302 Zn 0.89439 0.14957 0.4059 0.0
Zn303 Zn 0.86804 0.13428 0.30544 0.0
Zn304 Zn 0.86917 0.12114 0.4504 0.0
O305 O 0.89043 0.15436 0.50233 0.0
O306 O 0.87285 0.13462 0.5311 0.0
O307 O 0.92184 0.12084 0.36579 0.0
O308 O 0.91899 0.1468 0.3977 0.0
O309 O 0.88766 0.16905 0.35001 0.0
O310 O 0.87033 0.15773 0.27782 0.0
O311 O 0.84431 0.13012 0.32609 0.0
O312 O 0.89555 0.09191 0.40117 0.0
O313 O 0.84482 0.12155 0.43034 0.0
O314 O 0.8755 0.0979 0.47231 0.0
C315 C 0.88611 0.11209 0.21087 0.0
C316 C 0.88144 0.14721 0.54528 0.0
C317 C 0.87823 0.17011 0.29961 0.0
C318 C 0.92805 0.13458 0.38271 0.0
C319 C 0.83688 0.12525 0.37801 0.0
C320 C 0.88601 0.08787 0.44871 0.0
O321 O 0.87397 0.12114 0.22646 0.0
O322 O 0.12125 0.12962 0.71631 0.0
Zn323 Zn 0.12677 0.13397 0.62126 0.0
O324 O 0.14112 0.11677 0.58636 0.0
Zn325 Zn 0.16278 0.12621 0.56427 0.0
Zn326 Zn 0.1437 0.09913 0.65068 0.0
Zn327 Zn 0.13085 0.10744 0.50878 0.0
O328 O 0.16765 0.12418 0.46644 0.0
O329 O 0.14577 0.11 0.43204 0.0
O330 O 0.13837 0.15562 0.62166 0.0
O331 O 0.16376 0.15027 0.5871 0.0
O332 O 0.18074 0.11527 0.61726 0.0
O333 O 0.1674 0.09638 0.6759 0.0
O334 O 0.13508 0.07737 0.61913 0.0
O335 O 0.10567 0.13621 0.56935 0.0
O336 O 0.1259 0.08353 0.51873 0.0
O337 O 0.10933 0.11831 0.48776 0.0
C338 C 0.12407 0.11745 0.75418 0.0
C339 C 0.15961 0.11681 0.42113 0.0
C340 C 0.18069 0.10368 0.65976 0.0
C341 C 0.153 0.16027 0.60884 0.0
C342 C 0.12819 0.07319 0.56503 0.0
C343 C 0.10068 0.12922 0.51652 0.0
O344 O 0.13208 0.10496 0.73422 0.0
O345 O 0.09664 0.88063 0.21549 0.0
Zn346 Zn 0.09578 0.87739 0.31411 0.0
O347 O 0.11295 0.86227 0.34364 0.0
Zn348 Zn 0.1025 0.84167 0.36997 0.0
Zn349 Zn 0.12839 0.85833 0.27238 0.0
Zn350 Zn 0.12533 0.87169 0.41674 0.0
O351 O 0.10632 0.83719 0.46603 0.0
O352 O 0.12228 0.858 0.49768 0.0
O353 O 0.07325 0.86847 0.33283 0.0
O354 O 0.07788 0.84248 0.36018 0.0
O355 O 0.11118 0.82274 0.31709 0.0
O356 O 0.1299 0.83428 0.2516 0.0
O357 O 0.1511 0.86634 0.29201 0.0
O358 O 0.09797 0.89916 0.35994 0.0
O359 O 0.1497 0.87343 0.39798 0.0
O360 O 0.11729 0.89455 0.43582 0.0
C361 C 0.10776 0.87697 0.17361 0.0
C362 C 0.1145 0.84477 0.51022 0.0
C363 C 0.1222 0.82165 0.27233 0.0
C364 C 0.06799 0.85421 0.34792 0.0
C365 C 0.15793 0.87148 0.34482 0.0
C366 C 0.10674 0.90397 0.4086 0.0
O367 O 0.12063 0.8691 0.19023 0.0
C368 C 0.39839 0.93408 0.29372 0.0
C369 C 0.38732 0.92347 0.26136 0.0
C370 C 0.39901 0.95069 0.27711 0.0
C371 C 0.3875 0.98156 0.15216 0.0
H372 H 0.38332 0.01016 0.30517 0.0
C373 C 0.36751 0.04961 0.1344 0.0
C374 C 0.3739 0.0607 0.18124 0.0
C375 C 0.37135 0.03291 0.13824 0.0
C376 C 0.38484 0.00243 0.26184 0.0
H377 H 0.36889 0.92181 0.18352 0.0
H378 H 0.36998 0.95095 0.15477 0.0
H379 H 0.3864 0.98079 0.32137 0.0
H380 H 0.39019 0.06324 0.26594 0.0
H381 H 0.39732 0.03425 0.27136 0.0
H382 H 0.38586 0.00329 0.09257 0.0
C383 C 0.37817 0.94633 0.19288 0.0
C384 C 0.38655 0.98558 0.2712 0.0
C385 C 0.37748 0.92968 0.20968 0.0
C386 C 0.38486 0.05493 0.22983 0.0
C387 C 0.38888 0.03831 0.23307 0.0
C388 C 0.38593 -0.00149 0.14272 0.0
C389 C 0.38865 0.95704 0.22765 0.0
C390 C 0.38779 0.97497 0.21655 0.0
C391 C 0.38182 0.02702 0.18851 0.0
C392 C 0.38447 0.00912 0.19754 0.0
H393 H 0.40627 0.92969 0.3333 0.0
H394 H 0.40737 0.95866 0.30402 0.0
H395 H 0.38852 0.97361 0.10924 0.0
H396 H 0.35901 0.05373 0.09642 0.0
H397 H 0.36557 0.02454 0.10351 0.0
C398 C 0.91653 0.63344 0.80952 0.0
C399 C 0.91254 0.63775 0.74401 0.0
C400 C 0.93231 0.63638 0.83437 0.0
C401 C 0.97246 0.65692 0.79506 0.0
H402 H 0.99014 0.62079 0.89818 0.0
C403 C 0.03853 0.62376 0.84807 0.0
C404 C 0.0488 0.63754 0.8553 0.0
C405 C 0.02148 0.6256 0.84536 0.0
C406 C 0.98544 0.63096 0.86914 0.0
H407 H 0.9217 0.64905 0.65383 0.0
H408 H 0.94941 0.65348 0.69579 0.0
H409 H 0.96104 0.6213 0.87187 0.0
H410 H 0.04923 0.66402 0.86741 0.0
H411 H 0.01933 0.66721 0.86454 0.0
H412 H -0.00284 0.66586 0.78807 0.0
C413 C 0.9403 0.64829 0.729 0.0
C414 C 0.96863 0.63142 0.85497 0.0
C415 C 0.92442 0.64563 0.70462 0.0
C416 C 0.04162 0.65318 0.86123 0.0
C417 C 0.0245 0.65501 0.85934 0.0
C418 C 0.98934 0.65632 0.80836 0.0
C419 C 0.94455 0.64338 0.79376 0.0
C420 C 0.96198 0.64419 0.81635 0.0
C421 C 0.01423 0.64124 0.85077 0.0
C422 C 0.99609 0.64309 0.84406 0.0
H423 H 0.90751 0.62757 0.84135 0.0
H424 H 0.935 0.63281 0.88499 0.0
H425 H 0.96773 0.66713 0.76643 0.0
H426 H 0.04367 0.61154 0.84289 0.0
H427 H 0.01402 0.61474 0.83715 0.0
C428 C 0.62041 0.94292 0.10186 0.0
C429 C 0.62341 0.93378 0.15986 0.0
C430 C 0.61833 0.95996 0.10523 0.0
C431 C 0.63112 0.99489 0.20297 0.0
H432 H 0.59309 0.01806 0.13335 0.0
C433 C 0.62713 0.06516 0.20792 0.0
C434 C 0.61297 0.07127 0.23964 0.0
C435 C 0.62796 0.04873 0.18846 0.0
C436 C 0.60379 0.0117 0.15262 0.0
H437 H 0.6263 0.93528 0.26685 0.0
H438 H 0.62299 0.96498 0.27223 0.0
H439 H 0.59526 0.98815 0.11893 0.0
H440 H 0.58825 0.06515 0.27264 0.0
H441 H 0.58972 0.0364 0.23815 0.0
H442 H 0.63965 0.01825 0.23723 0.0
C443 C 0.62218 0.95894 0.22441 0.0
C444 C 0.60506 0.99469 0.14413 0.0
C445 C 0.624 0.94195 0.22125 0.0
C446 C 0.59938 0.06078 0.24878 0.0
C447 C 0.60015 0.04438 0.22861 0.0
C448 C 0.62999 0.01186 0.21054 0.0
C449 C 0.61952 0.96809 0.16644 0.0
C450 C 0.6186 0.98616 0.17035 0.0
C451 C 0.61459 0.03815 0.19962 0.0
C452 C 0.61622 0.02038 0.18629 0.0
H453 H 0.61982 0.93694 0.05389 0.0
H454 H 0.61629 0.96683 0.05993 0.0
H455 H 0.64172 0.98853 0.22318 0.0
H456 H 0.6378 0.07292 0.19985 0.0
H457 H 0.63918 0.04422 0.16574 0.0
C458 C 0.95367 0.36447 0.86861 0.0
C459 C 0.9428 0.35255 0.84338 0.0
C460 C 0.97067 0.36245 0.86272 0.0
C461 C 0.00149 0.34288 0.75812 0.0
H462 H 0.03134 0.35495 0.90035 0.0
C463 C 0.0719 0.34276 0.7206 0.0
C464 C 0.08023 0.35665 0.74506 0.0
C465 C 0.05557 0.33968 0.7388 0.0
C466 C 0.02317 0.35161 0.86006 0.0
H467 H 0.94128 0.329 0.79318 0.0
H468 H 0.97109 0.32556 0.78239 0.0
H469 H 0.00171 0.35426 0.92099 0.0
H470 H 0.07806 0.37796 0.80927 0.0
H471 H 0.04957 0.37279 0.83982 0.0
H472 H 0.02282 0.34084 0.6964 0.0
C473 C 0.96637 0.33646 0.80666 0.0
C474 C 0.00623 0.35117 0.87195 0.0
C475 C 0.94933 0.33842 0.81306 0.0
C476 C 0.07203 0.36714 0.78953 0.0
C477 C 0.0557 0.3641 0.80747 0.0
C478 C 0.01843 0.34341 0.74609 0.0
C479 C 0.97719 0.34852 0.83109 0.0
C480 C 0.99521 0.34713 0.82074 0.0
C481 C 0.04721 0.35045 0.78169 0.0
C482 C 0.02944 0.34811 0.79657 0.0
H483 H 0.94906 0.37548 0.89247 0.0
H484 H 0.9787 0.37204 0.88126 0.0
H485 H 0.99327 0.33989 0.71753 0.0
H486 H 0.0779 0.33435 0.68667 0.0
H487 H 0.04945 0.32893 0.71883 0.0
C488 C 0.36277 0.44448 0.08563 0.0
C489 C 0.36736 0.43332 0.03568 0.0
C490 C 0.36636 0.46118 0.07911 0.0
C491 C 0.36466 0.49601 0.02468 0.0
H492 H 0.4068 0.51156 0.95874 0.0
C493 C 0.37653 0.56476 0.98356 0.0
C494 C 0.38438 0.56902 0.9238 0.0
C495 C 0.37623 0.54846 0.00501 0.0
C496 C 0.39494 0.50739 0.9768 0.0
H497 H 0.37975 0.43087 0.94068 0.0
H498 H 0.38599 0.46003 0.92944 0.0
H499 H 0.40294 0.48234 0.98183 0.0
H500 H 0.39851 0.55959 0.84069 0.0
H501 H 0.39763 0.5311 0.87725 0.0
H502 H 0.3564 0.52084 0.01759 0.0
C503 C 0.37968 0.45583 0.9737 0.0
C504 C 0.39275 0.49069 -0.00987 0.0
C505 C 0.37598 0.43915 0.97994 0.0
C506 C 0.39237 0.55671 0.88701 0.0
C507 C 0.39196 0.54038 0.90821 0.0
C508 C 0.3668 0.51266 0.01095 0.0
C509 C 0.37473 0.46702 0.02283 0.0
C510 C 0.37754 0.48483 0.01348 0.0
C511 C 0.38365 0.53604 0.96691 0.0
C512 C 0.3819 0.51853 0.98613 0.0
H513 H 0.35615 0.44038 0.12929 0.0
H514 H 0.36253 0.46955 0.11795 0.0
H515 H 0.35273 0.49178 0.04175 0.0
H516 H 0.37042 0.57399 0.0135 0.0
H517 H 0.37001 0.54557 0.05111 0.0
C518 C 0.56795 0.64428 0.00862 0.0
C519 C 0.57803 0.63164 0.9838 0.0
C520 C 0.55187 0.64626 0.98487 0.0
C521 C 0.51885 0.62176 0.91259 0.0
H522 H 0.49815 0.66353 0.87241 0.0
C523 C 0.4529 0.62393 0.81429 0.0
C524 C 0.44238 0.63578 0.84211 0.0
C525 C 0.46986 0.6248 0.82449 0.0
C526 C 0.50374 0.65179 0.88398 0.0
H527 H 0.57941 0.61175 0.91202 0.0
H528 H 0.55149 0.61524 0.871 0.0
H529 H 0.52727 0.66277 0.90407 0.0
H530 H 0.44145 0.65816 0.90047 0.0
H531 H 0.47109 0.65943 0.91984 0.0
H532 H 0.49543 0.61074 0.89461 0.0
C533 C 0.55593 0.62345 0.9094 0.0
C534 C 0.52038 0.65137 0.90196 0.0
C535 C 0.57195 0.6215 0.93288 0.0
C536 C 0.44925 0.64886 0.87834 0.0
C537 C 0.46625 0.64963 0.88916 0.0
C538 C 0.50226 0.62218 0.89514 0.0
C539 C 0.54561 0.6356 0.93614 0.0
C540 C 0.52808 0.63633 0.9162 0.0
C541 C 0.4767 0.63741 0.86345 0.0
C542 C 0.49449 0.63718 0.88042 0.0
H543 H 0.57228 0.65235 0.04765 0.0
H544 H 0.54413 0.65569 0.0065 0.0
H545 H 0.52438 0.61002 0.92466 0.0
H546 H 0.448 0.61383 0.78531 0.0
H547 H 0.47761 0.61542 0.80263 0.0
C548 C 0.62422 0.54492 0.13019 0.0
C549 C 0.61855 0.55571 0.08072 0.0
C550 C 0.62133 0.52805 0.12501 0.0
C551 C 0.59548 0.49704 0.04245 0.0
H552 H 0.63417 0.46928 0.05529 0.0
C553 C 0.59806 0.43246 0.9281 0.0
C554 C 0.60739 0.42024 0.95991 0.0
C555 C 0.59803 0.44854 0.95214 0.0
C556 C 0.62316 0.47676 0.05287 0.0
H557 H 0.60482 0.55735 -0.0115 0.0
H558 H 0.59973 0.52792 0.97978 0.0
H559 H 0.63632 0.49835 0.08228 0.0
H560 H 0.62348 0.41516 0.04345 0.0
H561 H 0.62314 0.44315 0.08617 0.0
H562 H 0.58233 0.47551 0.01244 0.0
C563 C 0.6064 0.53253 0.02248 0.0
C564 C 0.62441 0.49342 0.06823 0.0
C565 C 0.60943 0.54936 0.02725 0.0
C566 C 0.61631 0.42434 0.01736 0.0
C567 C 0.61616 0.44039 0.04174 0.0
C568 C 0.59418 0.48034 0.02764 0.0
C569 C 0.61254 0.5217 0.07075 0.0
C570 C 0.61067 0.50377 0.06184 0.0
C571 C 0.6072 0.45273 0.00887 0.0
C572 C 0.60809 0.47007 0.0313 0.0
H573 H 0.63127 0.54944 0.17205 0.0
H574 H 0.6261 0.51995 0.16306 0.0
H575 H 0.58466 0.50476 0.03793 0.0
H576 H 0.59109 0.42972 0.88362 0.0
H577 H 0.59121 0.45778 0.92495 0.0
C578 C 0.41543 0.36769 0.90673 0.0
C579 C 0.40858 0.35741 0.95561 0.0
C580 C 0.43191 0.36604 0.88831 0.0
C581 C 0.46819 0.33883 0.89396 0.0
H582 H 0.49241 0.37993 0.89779 0.0
C583 C 0.53951 0.3422 0.90041 0.0
C584 C 0.54714 0.3553 0.86687 0.0
C585 C 0.52233 0.34139 0.905 0.0
C586 C 0.48584 0.36836 0.89527 0.0
H587 H 0.41347 0.33669 0.02059 0.0
H588 H 0.44232 0.33386 -0.01174 0.0
H589 H 0.46279 0.38009 0.91451 0.0
H590 H 0.54274 0.37736 0.809 0.0
H591 H 0.51289 0.37571 0.81549 0.0
H592 H 0.49134 0.3271 0.87476 0.0
C593 C 0.43488 0.34318 0.96432 0.0
C594 C 0.46884 0.36846 0.90498 0.0
C595 C 0.41837 0.34487 0.98304 0.0
C596 C 0.53725 0.36723 0.83606 0.0
C597 C 0.52012 0.36632 0.84002 0.0
C598 C 0.48525 0.33873 0.88369 0.0
C599 C 0.4419 0.35403 0.91807 0.0
C600 C 0.45984 0.35372 0.90465 0.0
C601 C 0.51245 0.35358 0.87561 0.0
C602 C 0.49427 0.35351 0.88445 0.0
H603 H 0.40822 0.37739 0.88411 0.0
H604 H 0.43696 0.37441 0.85174 0.0
H605 H 0.46152 0.3273 0.89313 0.0
H606 H 0.54681 0.33283 0.92475 0.0
H607 H 0.51684 0.33149 0.93334 0.0
C608 C 0.87389 0.42766 0.72048 0.0
C609 C 0.88428 0.42181 0.77108 0.0
C610 C 0.87418 0.44424 0.70236 0.0
C611 C 0.88325 0.48449 0.77201 0.0
H612 H 0.88274 0.49955 0.58945 0.0
C613 C 0.88421 0.55329 0.71116 0.0
C614 C 0.87371 0.55866 0.66021 0.0
C615 C 0.88724 0.53657 0.72027 0.0
C616 C 0.88272 0.49553 0.64068 0.0
H617 H 0.90345 0.42872 0.84099 0.0
H618 H 0.90381 0.45761 0.8096 0.0
H619 H 0.8846 0.47014 0.61313 0.0
H620 H 0.85845 0.55073 0.57778 0.0
H621 H 0.86334 0.52152 0.59488 0.0
H622 H 0.88082 0.50965 0.80003 0.0
C623 C 0.89541 0.44937 0.78426 0.0
C624 C 0.88383 0.47872 0.65414 0.0
C625 C 0.89523 0.43281 0.802 0.0
C626 C 0.86665 0.54698 0.6174 0.0
C627 C 0.86953 0.53023 0.62699 0.0
C628 C 0.88198 0.50124 0.75864 0.0
C629 C 0.88475 0.45528 0.73489 0.0
C630 C 0.88408 0.47306 0.71996 0.0
C631 C 0.87967 0.52481 0.67917 0.0
C632 C 0.88167 0.50699 0.69283 0.0
H633 H 0.86536 0.4195 0.69548 0.0
H634 H 0.86575 0.44851 0.66442 0.0
H635 H 0.88314 0.48043 0.82322 0.0
H636 H 0.88999 0.56201 0.74449 0.0
H637 H 0.89541 0.53285 0.76001 0.0
C638 C 0.54376 0.15263 0.29742 0.0
C639 C 0.55075 0.13812 0.32281 0.0
C640 C 0.52665 0.15461 0.29576 0.0
C641 C 0.48817 0.13924 0.3704 0.0
H642 H 0.46796 0.15253 0.20457 0.0
C643 C 0.42054 0.12551 0.30833 0.0
C644 C 0.41162 0.13669 0.26918 0.0
C645 C 0.43722 0.12811 0.32142 0.0
C646 C 0.47338 0.14913 0.25171 0.0
H647 H 0.54524 0.11443 0.36729 0.0
H648 H 0.51548 0.11792 0.36433 0.0
H649 H 0.49788 0.15269 0.21496 0.0
H650 H 0.41307 0.1598 0.21566 0.0
H651 H 0.44217 0.16446 0.23947 0.0
H652 H 0.46372 0.13545 0.407 0.0
C653 C 0.52322 0.12779 0.34608 0.0
C654 C 0.49053 0.14919 0.25755 0.0
C655 C 0.54028 0.12574 0.34722 0.0
C656 C 0.41961 0.15087 0.24556 0.0
C657 C 0.43631 0.15351 0.25891 0.0
C658 C 0.47103 0.13927 0.36474 0.0
C659 C 0.51623 0.1422 0.32012 0.0
C660 C 0.49809 0.14389 0.31644 0.0
C661 C 0.44537 0.14201 0.29601 0.0
C662 C 0.46344 0.14385 0.30482 0.0
H663 H 0.55149 0.1624 0.27828 0.0
H664 H 0.52157 0.16587 0.27573 0.0
H665 H 0.49369 0.13535 0.41676 0.0
H666 H 0.41479 0.11444 0.32729 0.0
H667 H 0.44386 0.11888 0.34939 0.0
C668 C 0.09607 0.55889 0.79721 0.0
C669 C 0.1062 0.57009 0.76316 0.0
C670 C 0.09584 0.54235 0.77933 0.0
C671 C 0.10631 0.51293 0.64723 0.0
H672 H 0.11188 0.48271 0.7943 0.0
C673 C 0.12527 0.44481 0.61512 0.0
C674 C 0.11882 0.43335 0.66037 0.0
C675 C 0.12188 0.46155 0.62244 0.0
C676 C 0.11001 0.49092 0.75267 0.0
H677 H 0.12351 0.5728 0.68169 0.0
H678 H 0.12315 0.5438 0.65076 0.0
H679 H 0.10915 0.51192 0.8161 0.0
H680 H 0.10289 0.43026 0.74599 0.0
H681 H 0.09664 0.45933 0.75765 0.0
H682 H 0.10726 0.49184 0.58374 0.0
C683 C 0.11535 0.54791 0.69111 0.0
C684 C 0.10849 0.50767 0.76522 0.0
C685 C 0.11563 0.56448 0.70914 0.0
C686 C 0.10826 0.43883 0.71095 0.0
C687 C 0.10473 0.4555 0.71781 0.0
C688 C 0.10773 0.4961 0.63462 0.0
C689 C 0.10569 0.53665 0.72692 0.0
C690 C 0.10668 0.51885 0.7127 0.0
C691 C 0.11185 0.4671 0.67476 0.0
C692 C 0.10965 0.48492 0.68728 0.0
H693 H 0.08854 0.5628 0.83869 0.0
H694 H 0.08811 0.53396 0.80715 0.0
H695 H 0.10482 0.52131 0.60589 0.0
H696 H 0.13346 0.44094 0.57564 0.0
H697 H 0.12765 0.47018 0.58875 0.0
C698 C 0.57354 0.87057 0.28831 0.0
C699 C 0.58086 0.85978 0.24249 0.0
C700 C 0.55698 0.86887 0.30535 0.0
C701 C 0.52158 0.84051 0.30376 0.0
H702 H 0.49629 0.88093 0.30034 0.0
C703 C 0.45004 0.84283 0.30923 0.0
C704 C 0.44279 0.85582 0.34478 0.0
C705 C 0.46716 0.8421 0.30144 0.0
C706 C 0.50319 0.86955 0.30254 0.0
H707 H 0.57665 0.83834 0.18061 0.0
H708 H 0.54761 0.83547 0.21026 0.0
H709 H 0.52572 0.88179 0.27884 0.0
H710 H 0.44784 0.87764 0.40337 0.0
H711 H 0.47756 0.87617 0.39093 0.0
H712 H 0.4989 0.82829 0.32734 0.0
C713 C 0.55477 0.84518 0.2331 0.0
C714 C 0.52006 0.87005 0.29013 0.0
C715 C 0.57137 0.84689 0.21588 0.0
C716 C 0.45301 0.86761 0.37481 0.0
C717 C 0.47006 0.86681 0.36745 0.0
C718 C 0.50463 0.84001 0.31648 0.0
C719 C 0.54735 0.85635 0.27706 0.0
C720 C 0.52945 0.85557 0.29083 0.0
C721 C 0.47731 0.85429 0.32938 0.0
C722 C 0.49528 0.85456 0.31626 0.0
H723 H 0.58051 0.88054 0.31025 0.0
H724 H 0.55164 0.87749 0.34022 0.0
H725 H 0.52855 0.82917 0.30494 0.0
H726 H 0.44248 0.83356 0.28552 0.0
H727 H 0.47237 0.83235 0.27152 0.0
C728 C 0.87206 0.94638 0.64964 0.0
C729 C 0.87769 0.9358 0.59938 0.0
C730 C 0.87504 0.96327 0.6457 0.0
C731 C 0.90054 0.99475 0.56272 0.0
H732 H 0.8615 0.02197 0.57708 0.0
C733 C 0.89636 0.0589 0.4448 0.0
C734 C 0.88704 0.0711 0.47673 0.0
C735 C 0.89678 0.04291 0.46978 0.0
C736 C 0.87262 0.01465 0.57422 0.0
H737 H 0.89159 0.9345 0.50746 0.0
H738 H 0.89681 0.96391 0.50085 0.0
H739 H 0.85989 0.99294 0.60527 0.0
H740 H 0.87132 0.07623 0.56144 0.0
H741 H 0.87229 0.04839 0.60563 0.0
H742 H 0.91322 0.0164 0.53071 0.0
C743 C 0.8901 0.95917 0.54323 0.0
C744 C 0.87167 -0.002 0.59035 0.0
C745 C 0.88699 0.94233 0.54678 0.0
C746 C 0.87849 0.06707 0.5352 0.0
C747 C 0.879 0.0511 0.56046 0.0
C748 C 0.90152 0.01144 0.54705 0.0
C749 C 0.88388 0.96984 0.59191 0.0
C750 C 0.88553 0.98782 0.58332 0.0
C751 C 0.88798 0.03878 0.52757 0.0
C752 C 0.88747 0.0215 0.55114 0.0
H753 H 0.86488 0.94171 0.69088 0.0
H754 H 0.87021 0.97124 0.68412 0.0
H755 H 0.91145 0.98719 0.55766 0.0
H756 H 0.90307 0.06159 0.39959 0.0
H757 H 0.9036 0.03367 0.44257 0.0
C758 C 0.07389 0.14461 0.5217 0.0
C759 C 0.084 0.13286 0.49066 0.0
C760 C 0.05751 0.14663 0.50167 0.0
C761 C 0.02423 0.12263 0.42986 0.0
H762 H 0.00176 0.16435 0.40876 0.0
C763 C 0.95629 0.12471 0.35398 0.0
C764 C 0.94616 0.13618 0.38626 0.0
C765 C 0.97339 0.1256 0.36 0.0
C766 C 0.00783 0.15261 0.41513 0.0
H767 H 0.08508 0.11469 0.41177 0.0
H768 H 0.05656 0.11821 0.37736 0.0
H769 H 0.0314 0.16392 0.43126 0.0
H770 H 0.94602 0.15784 0.44903 0.0
H771 H 0.97588 0.15909 0.46141 0.0
H772 H 0.00081 0.11123 0.4163 0.0
C773 C 0.06126 0.12571 0.41754 0.0
C774 C 0.02479 0.15238 0.42774 0.0
C775 C 0.07762 0.12376 0.43719 0.0
C776 C 0.95351 0.14883 0.42344 0.0
C777 C 0.97064 0.1496 0.4302 0.0
C778 C 0.00732 0.12285 0.41797 0.0
C779 C 0.05095 0.13688 0.45058 0.0
C780 C 0.03313 0.13738 0.43511 0.0
C781 C 0.98078 0.13785 0.39928 0.0
C782 C -0.00111 0.13782 0.41036 0.0
H783 H 0.07844 0.15188 0.56282 0.0
H784 H 0.0498 0.15529 0.52813 0.0
H785 H 0.03029 0.11089 0.43667 0.0
H786 H 0.95101 0.11495 0.32418 0.0
H787 H 0.98081 0.11658 0.33417 0.0
C788 C 0.114 0.92644 0.48826 0.0
C789 C 0.10519 0.9211 0.43215 0.0
C790 C 0.11358 0.94291 0.50743 0.0
C791 C 0.1083 0.9835 0.43552 0.0
H792 H 0.10646 -0.00189 0.61858 0.0
C793 C 0.11263 0.05189 0.50148 0.0
C794 C 0.1229 0.05601 0.55511 0.0
C795 C 0.10814 0.03559 0.49016 0.0
C796 C 0.1071 0.9942 0.56728 0.0
H797 H 0.08849 0.92875 0.35385 0.0
H798 H 0.08785 0.95753 0.38736 0.0
H799 H 0.1025 0.96903 0.59265 0.0
H800 H 0.13621 0.04631 0.63984 0.0
H801 H 0.12873 0.01777 0.61901 0.0
H802 H 0.11348 0.00842 0.40998 0.0
C803 C 0.09515 0.94895 0.41607 0.0
C804 C 0.10478 0.97759 0.55249 0.0
C805 C 0.09549 0.93247 0.39708 0.0
C806 C 0.12827 0.04353 0.59811 0.0
C807 C 0.12389 0.02718 0.58643 0.0
C808 C 0.11073 5e-05 0.45029 0.0
C809 C 0.10442 0.95437 0.47071 0.0
C810 C 0.10552 0.97208 0.48651 0.0
C811 C 0.11393 0.02302 0.53184 0.0
C812 C 0.11032 0.00558 0.51636 0.0
H813 H 0.12152 0.91798 0.51659 0.0
H814 H 0.12095 0.94678 0.54944 0.0
H815 H 0.10922 0.97955 0.38432 0.0
H816 H 0.10811 0.06125 0.4679 0.0
H817 H 0.1002 0.03284 0.44841 0.0
C818 C 0.04388 0.83703 0.38324 0.0
C819 C 0.05004 0.85145 0.35383 0.0
C820 C 0.02697 0.83506 0.39349 0.0
C821 C 0.98616 0.85099 0.34416 0.0
H822 H 0.97337 0.83979 0.52402 0.0
C823 C 0.92373 0.86926 0.45378 0.0
C824 C 0.91584 0.85863 0.49866 0.0
C825 C 0.93943 0.86564 0.42987 0.0
C826 C 0.97667 0.8426 0.4732 0.0
H827 H 0.04323 0.8748 0.30952 0.0
H828 H 0.01378 0.87136 0.32751 0.0
H829 H 0.00223 0.83805 0.49156 0.0
H830 H 0.91812 0.8356 0.55229 0.0
H831 H 0.94557 0.82923 0.50996 0.0
H832 H 0.96066 0.85591 0.32616 0.0
C833 C 0.02201 0.86155 0.3424 0.0
C834 C 0.99322 0.84161 0.45463 0.0
C835 C 0.0389 0.86357 0.33261 0.0
C836 C 0.9239 0.84411 0.51812 0.0
C837 C 0.93963 0.84047 0.49402 0.0
C838 C 0.96961 0.85191 0.36261 0.0
C839 C 0.0159 0.8474 0.37394 0.0
C840 C -0.00183 0.84621 0.39046 0.0
C841 C 0.94761 0.85127 0.45002 0.0
C842 C 0.96475 0.84816 0.42786 0.0
H843 H 0.05214 0.82743 0.39999 0.0
H844 H 0.02256 0.82398 0.41748 0.0
H845 H 0.98962 0.85436 0.29405 0.0
H846 H 0.9179 0.88056 0.43774 0.0
H847 H 0.94534 0.87437 0.39697 0.0
C848 C 0.31417 0.18385 0.18951 0.0
C849 C 0.33026 0.17987 0.20984 0.0
C850 C 0.30922 0.2003 0.18583 0.0
C851 C 0.32065 0.24232 0.23824 0.0
H852 H 0.30907 0.25535 0.05899 0.0
C853 C 0.34397 0.30114 0.12362 0.0
C854 C 0.33323 0.31132 0.08766 0.0
C855 C 0.33881 0.28577 0.14553 0.0
C856 C 0.31188 0.25192 0.10969 0.0
H857 H 0.35335 0.18971 0.24652 0.0
H858 H 0.3447 0.21824 0.24109 0.0
H859 H 0.30777 0.22635 0.09056 0.0
H860 H 0.30873 0.31314 0.04497 0.0
H861 H 0.29985 0.28581 0.08221 0.0
H862 H 0.32584 0.26771 0.25608 0.0
C863 C 0.33591 0.20878 0.22771 0.0
C864 C 0.31109 0.23535 0.12783 0.0
C865 C 0.34093 0.19245 0.23023 0.0
C866 C 0.31729 0.30557 0.07263 0.0
C867 C 0.31218 0.29 0.09398 0.0
C868 C 0.32145 0.25882 0.22013 0.0
C869 C 0.32018 0.2129 0.20394 0.0
C870 C 0.31631 0.23036 0.19122 0.0
C871 C 0.32284 0.28012 0.13158 0.0
C872 C 0.3179 0.26362 0.15476 0.0
H873 H 0.30573 0.17433 0.17341 0.0
H874 H 0.29704 0.2032 0.16726 0.0
H875 H 0.32449 0.23879 0.28772 0.0
H876 H 0.35632 0.30514 0.1362 0.0
H877 H 0.3474 0.27821 0.17315 0.0
C878 C 0.30646 0.62039 0.77596 0.0
C879 C 0.31567 0.61903 0.83482 0.0
C880 C 0.28934 0.61876 0.77711 0.0
C881 C 0.25417 0.62396 0.8877 0.0
H882 H 0.23031 0.59902 0.75471 0.0
C883 C 0.18396 0.61713 0.90087 0.0
C884 C 0.17517 0.61872 0.84117 0.0
C885 C 0.20106 0.61546 0.90033 0.0
C886 C 0.23679 0.60616 0.79181 0.0
H887 H 0.31412 0.61459 0.94087 0.0
H888 H 0.28419 0.61185 0.94276 0.0
H889 H 0.26042 0.59927 0.75333 0.0
H890 H 0.17736 0.61941 0.73393 0.0
H891 H 0.20732 0.61692 0.73302 0.0
H892 H 0.2307 0.63126 0.92529 0.0
C893 C 0.29026 0.61425 0.89586 0.0
C894 C 0.25401 0.60626 0.79109 0.0
C895 C 0.3074 0.61575 0.89468 0.0
C896 C 0.1838 0.61818 0.78076 0.0
C897 C 0.20095 0.61667 0.78025 0.0
C898 C 0.23699 0.62396 0.88815 0.0
C899 C 0.28107 0.61586 0.83717 0.0
C900 C 0.26285 0.61519 0.83898 0.0
C901 C 0.20979 0.61552 0.84013 0.0
C902 C 0.22808 0.61509 0.84018 0.0
H903 H 0.31245 0.62285 0.72895 0.0
H904 H 0.28253 0.62021 0.73124 0.0
H905 H 0.26067 0.63118 0.92453 0.0
H906 H 0.17766 0.61728 0.94826 0.0
H907 H 0.20744 0.61423 0.94727 0.0
C908 C 0.64848 0.80046 0.1981 0.0
C909 C 0.65959 0.8123 0.17432 0.0
C910 C 0.65286 0.78394 0.19948 0.0
C911 C 0.67657 0.75431 0.10953 0.0
H912 H 0.66238 0.72585 0.25302 0.0
C913 C 0.66991 0.68306 0.08668 0.0
C914 C 0.65406 0.67781 0.10568 0.0
C915 C 0.67517 0.69909 0.10071 0.0
C916 C 0.66659 0.73364 0.21282 0.0
H917 H 0.68413 0.81626 0.13481 0.0
H918 H 0.69166 0.78701 0.13552 0.0
H919 H 0.66404 0.75546 0.27109 0.0
H920 H 0.63135 0.68526 0.15413 0.0
H921 H 0.64051 0.71297 0.17846 0.0
H922 H 0.67812 0.7325 0.05009 0.0
C923 C 0.67965 0.79068 0.15377 0.0
C924 C 0.66757 0.75053 0.22319 0.0
C925 C 0.67536 0.80735 0.15351 0.0
C926 C 0.64361 0.68888 0.13863 0.0
C927 C 0.64892 0.70472 0.15328 0.0
C928 C 0.67559 0.73735 0.09912 0.0
C929 C 0.66836 0.77885 0.17634 0.0
C930 C 0.67176 0.76107 0.17071 0.0
C931 C 0.66476 0.70995 0.13493 0.0
C932 C 0.66979 0.72701 0.14981 0.0
H933 H 0.63628 0.80393 0.21485 0.0
H934 H 0.64381 0.77505 0.21619 0.0
H935 H 0.67979 0.76221 0.06821 0.0
H936 H 0.67824 0.6748 0.06117 0.0
H937 H 0.6874 0.70292 0.08571 0.0
C938 C 0.80696 0.36559 0.92274 0.0
C939 C 0.81578 0.367 0.86293 0.0
C940 C 0.78974 0.3659 0.92275 0.0
C941 C 0.75415 0.3574 0.8173 0.0
H942 H 0.73016 0.38478 0.94164 0.0
C943 C 0.6837 0.36489 0.80142 0.0
C944 C 0.67482 0.36572 0.8612 0.0
C945 C 0.7009 0.36544 0.80166 0.0
C946 C 0.73665 0.37688 0.90719 0.0
H947 H 0.81342 0.36986 0.75623 0.0
H948 H 0.78335 0.37022 0.75639 0.0
H949 H 0.76022 0.38487 0.94269 0.0
H950 H 0.67705 0.36769 0.9682 0.0
H951 H 0.70704 0.36818 0.96879 0.0
H952 H 0.73071 0.34908 0.78262 0.0
C953 C 0.7898 0.36888 0.80316 0.0
C954 C 0.75387 0.377 0.9077 0.0
C955 C 0.80701 0.36877 0.80318 0.0
C956 C 0.68352 0.36713 0.92123 0.0
C957 C 0.70073 0.36751 0.92152 0.0
C958 C 0.73695 0.35715 0.81721 0.0
C959 C 0.78101 0.36743 0.8629 0.0
C960 C 0.76277 0.3673 0.86262 0.0
C961 C 0.70964 0.36666 0.86173 0.0
C962 C 0.72797 0.36692 0.86202 0.0
H963 H 0.81335 0.36425 0.96962 0.0
H964 H 0.78325 0.36464 0.96945 0.0
H965 H 0.76073 0.34963 0.7826 0.0
H966 H 0.67736 0.36393 0.75427 0.0
H967 H 0.70733 0.36507 0.75459 0.0
C968 C 0.84773 0.69113 0.582 0.0
C969 C 0.83741 0.68034 0.61711 0.0
C970 C 0.84282 0.7072 0.56943 0.0
C971 C 0.81787 0.74029 0.63385 0.0
H972 H 0.82986 0.76019 0.46561 0.0
C973 C 0.82056 0.81098 0.58999 0.0
C974 C 0.83671 0.81547 0.5723 0.0
C975 C 0.81567 0.79447 0.5874 0.0
C976 C 0.82618 0.75477 0.51245 0.0
H977 H 0.81378 0.67799 0.66672 0.0
H978 H 0.80529 0.70646 0.64549 0.0
H979 H 0.83014 0.73033 0.47696 0.0
H980 H 0.86013 0.80651 0.53527 0.0
H981 H 0.85152 0.77792 0.52938 0.0
H982 H 0.8148 0.76488 0.67014 0.0
C983 C 0.81714 0.70227 0.62743 0.0
C984 C 0.8264 0.73773 0.51906 0.0
C985 C 0.82201 0.68603 0.63953 0.0
C986 C 0.84764 0.80337 0.5496 0.0
C987 C 0.84267 0.78704 0.54566 0.0
C988 C 0.81758 0.7574 0.6271 0.0
C989 C 0.82749 0.71296 0.59186 0.0
C990 C 0.82309 0.73039 0.58074 0.0
C991 C 0.82674 0.78239 0.56534 0.0
C992 C 0.82254 0.76475 0.56727 0.0
H993 H 0.85966 0.68719 0.56383 0.0
H994 H 0.85123 0.71526 0.54316 0.0
H995 H 0.81528 0.73494 0.68196 0.0
H996 H 0.81192 0.82011 0.60784 0.0
H997 H 0.80335 0.79112 0.60309 0.0
C998 C 0.80975 0.12239 0.43673 0.0
C999 C 0.81869 0.12408 0.37732 0.0
C1000 C 0.79253 0.12187 0.43575 0.0
C1001 C 0.75722 0.11288 0.32792 0.0
H1002 H 0.73295 0.1416 0.44626 0.0
C1003 C 0.68776 0.1247 0.29483 0.0
C1004 C 0.67802 0.12634 0.3521 0.0
C1005 C 0.70491 0.12386 0.29968 0.0
C1006 C 0.73951 0.13331 0.41359 0.0
H1007 H 0.81656 0.1262 0.27025 0.0
H1008 H 0.78656 0.12514 0.26872 0.0
H1009 H 0.76294 0.14062 0.45264 0.0
H1010 H 0.67866 0.12819 0.45951 0.0
H1011 H 0.70851 0.12633 0.46806 0.0
H1012 H 0.73387 0.10541 0.28916 0.0
C1013 C 0.79288 0.12423 0.31594 0.0
C1014 C 0.75669 0.13278 0.41722 0.0
C1015 C 0.81006 0.12494 0.31693 0.0
C1016 C 0.68581 0.12705 0.41435 0.0
C1017 C 0.70294 0.12606 0.41924 0.0
C1018 C 0.74004 0.11328 0.32468 0.0
C1019 C 0.78395 0.12281 0.37533 0.0
C1020 C 0.76571 0.12268 0.37398 0.0
C1021 C 0.71272 0.12449 0.36196 0.0
C1022 C 0.73097 0.12363 0.36701 0.0
H1023 H 0.81604 0.12171 0.48406 0.0
H1024 H 0.78592 0.12066 0.48221 0.0
H1025 H 0.76389 0.10483 0.29456 0.0
H1026 H 0.68216 0.12422 0.24607 0.0
H1027 H 0.71205 0.12295 0.25443 0.0
C1028 C 0.14663 0.30077 0.69877 0.0
C1029 C 0.15829 0.31268 0.68057 0.0
C1030 C 0.15112 0.28432 0.70343 0.0
C1031 C 0.17752 0.25465 0.62859 0.0
H1032 H 0.16072 0.22679 0.76941 0.0
C1033 C 0.17339 0.18355 0.60643 0.0
C1034 C 0.15767 0.17748 0.62291 0.0
C1035 C 0.17774 0.19976 0.6219 0.0
C1036 C 0.1656 0.23441 0.72993 0.0
H1037 H 0.18387 0.31686 0.65418 0.0
H1038 H 0.19163 0.2877 0.66029 0.0
H1039 H 0.16106 0.25655 0.78417 0.0
H1040 H 0.13423 0.18367 0.66866 0.0
H1041 H 0.14175 0.21174 0.69485 0.0
H1042 H 0.18102 0.23256 0.57256 0.0
C1043 C 0.17909 0.29128 0.67182 0.0
C1044 C 0.16586 0.25139 0.73853 0.0
C1045 C 0.17466 0.30788 0.66842 0.0
C1046 C 0.14644 0.18791 0.65517 0.0
C1047 C 0.15081 0.20397 0.67093 0.0
C1048 C 0.17719 0.23761 0.61983 0.0
C1049 C 0.1673 0.27939 0.68906 0.0
C1050 C 0.17111 0.26167 0.68679 0.0
C1051 C 0.1665 0.21006 0.65471 0.0
C1052 C 0.17048 0.22743 0.66927 0.0
H1053 H 0.13396 0.30415 0.70886 0.0
H1054 H 0.14174 0.27535 0.71589 0.0
H1055 H 0.18156 0.26237 0.58788 0.0
H1056 H 0.18233 0.17581 0.58163 0.0
H1057 H 0.1899 0.20419 0.60868 0.0
C1058 C 0.30805 0.87805 0.28477 0.0
C1059 C 0.3162 0.87443 0.34457 0.0
C1060 C 0.29094 0.87988 0.28346 0.0
C1061 C 0.25476 0.8882 0.3882 0.0
H1062 H 0.23109 0.86317 0.2551 0.0
C1063 C 0.18478 0.8757 0.40386 0.0
C1064 C 0.17584 0.87474 0.34431 0.0
C1065 C 0.20191 0.87755 0.40271 0.0
C1066 C 0.23747 0.87049 0.29186 0.0
H1067 H 0.3128 0.87036 0.4502 0.0
H1068 H 0.28296 0.8736 0.44772 0.0
H1069 H 0.26106 0.86326 0.25457 0.0
H1070 H 0.1777 0.87583 0.23697 0.0
H1071 H 0.20743 0.87951 0.23501 0.0
H1072 H 0.23118 0.89545 0.42557 0.0
C1073 C 0.28983 0.87505 0.40199 0.0
C1074 C 0.25466 0.8705 0.29158 0.0
C1075 C 0.30691 0.87307 0.40324 0.0
C1076 C 0.18427 0.8763 0.28373 0.0
C1077 C 0.20133 0.87833 0.28259 0.0
C1078 C 0.23754 0.88832 0.38816 0.0
C1079 C 0.28167 0.87828 0.34198 0.0
C1080 C 0.26347 0.87921 0.34011 0.0
C1081 C 0.2104 0.87865 0.34199 0.0
C1082 C 0.22869 0.87933 0.34035 0.0
H1083 H 0.31485 0.87921 0.23873 0.0
H1084 H 0.28495 0.8825 0.23661 0.0
H1085 H 0.26128 0.89515 0.42579 0.0
H1086 H 0.17863 0.8745 0.45133 0.0
H1087 H 0.20852 0.87757 0.44939 0.0
C1088 C 0.19606 0.08723 0.74459 0.0
C1089 C 0.19589 0.09998 0.69739 0.0
C1090 C 0.2093 0.08552 0.7883 0.0
C1091 C 0.24249 0.08153 0.85947 0.0
H1092 H 0.2555 0.12275 0.94091 0.0
C1093 C 0.30068 0.09052 0.02128 0.0
C1094 C 0.29961 0.10136 0.07552 0.0
C1095 C 0.28722 0.0882 0.97924 0.0
C1096 C 0.25188 0.11112 0.91918 0.0
H1097 H 0.21005 0.12018 0.65606 0.0
H1098 H 0.23316 0.11713 0.73231 0.0
H1099 H 0.23465 0.12271 0.85407 0.0
H1100 H 0.2832 0.11735 0.13079 0.0
H1101 H 0.25967 0.11326 0.05721 0.0
H1102 H 0.25981 0.06998 0.92494 0.0
C1103 C 0.22291 0.10864 0.736 0.0
C1104 C 0.24013 0.11112 0.86875 0.0
C1105 C 0.20972 0.1103 0.69205 0.0
C1106 C 0.28447 0.109 0.08926 0.0
C1107 C 0.27103 0.10674 0.04693 0.0
C1108 C 0.25438 0.08154 0.90971 0.0
C1109 C 0.22258 0.09656 0.78582 0.0
C1110 C 0.23537 0.09636 0.83818 0.0
C1111 C 0.27244 0.09672 -0.00959 0.0
C1112 C 0.25918 0.09635 0.94001 0.0
H1113 H 0.18564 0.079 0.7498 0.0
H1114 H 0.20872 0.07611 0.82627 0.0
H1115 H 0.23902 0.06998 0.83671 0.0
H1116 H 0.31214 0.08434 0.00957 0.0
H1117 H 0.28869 0.08045 0.93595 0.0
C1118 C 0.1367 0.68879 -0.00555 0.0
C1119 C 0.12479 0.68686 0.94435 0.0
C1120 C 0.13854 0.70386 0.02677 0.0
C1121 C 0.11387 0.73955 0.07034 0.0
H1122 H 0.15545 0.75914 0.1232 0.0
C1123 C 0.13678 0.80416 0.1886 0.0
C1124 C 0.12532 0.80558 0.24068 0.0
C1125 C 0.13842 0.78938 0.15406 0.0
C1126 C 0.14377 0.7538 0.10854 0.0
H1127 H 0.1062 0.6995 0.88604 0.0
H1128 H 0.10947 0.72576 0.94237 0.0
H1129 H 0.1554 0.73444 0.05355 0.0
H1130 H 0.10727 0.79233 0.29971 0.0
H1131 H 0.11021 0.76658 0.23949 0.0
H1132 H 0.10221 0.75882 0.12472 0.0
C1133 C 0.11719 0.71554 0.95727 0.0
C1134 C 0.14374 0.73967 0.06909 0.0
C1135 C 0.11537 0.70051 0.92491 0.0
C1136 C 0.1161 0.79171 0.25947 0.0
C1137 C 0.11772 0.77698 0.22485 0.0
C1138 C 0.11391 0.75355 0.10996 0.0
C1139 C 0.12847 0.71723 0.00964 0.0
C1140 C 0.12877 0.73245 0.04957 0.0
C1141 C 0.1286 0.77579 0.17088 0.0
C1142 C 0.12884 0.76079 0.12963 0.0
H1143 H 0.14422 0.67853 0.0104 0.0
H1144 H 0.14728 0.70482 0.06719 0.0
H1145 H 0.10215 0.73412 0.05682 0.0
H1146 H 0.14412 0.81459 0.17306 0.0
H1147 H 0.14685 0.7888 0.11245 0.0
C1148 C 0.68988 0.89721 0.97187 0.0
C1149 C 0.69187 0.89126 0.03697 0.0
C1150 C 0.70354 0.90008 0.93166 0.0
C1151 C 0.74746 0.90817 0.92747 0.0
H1152 H 0.7474 0.88214 0.76624 0.0
C1153 C 0.80647 0.89605 0.77796 0.0
C1154 C 0.80542 0.89305 0.70945 0.0
C1155 C 0.79227 0.89849 0.81555 0.0
C1156 C 0.74753 0.88983 0.81004 0.0
H1157 H 0.70981 0.88456 0.11205 0.0
H1158 H 0.73382 0.88996 0.04152 0.0
H1159 H 0.72332 0.882 0.83798 0.0
H1160 H 0.78875 0.89118 0.6258 0.0
H1161 H 0.76391 0.89621 0.69087 0.0
H1162 H 0.77151 0.91631 0.89932 0.0
C1163 C 0.7216 0.89221 0.02196 0.0
C1164 C 0.73376 0.88963 0.85138 0.0
C1165 C 0.70788 0.88906 0.06207 0.0
C1166 C 0.78991 0.8933 0.67867 0.0
C1167 C 0.77568 0.89607 0.71614 0.0
C1168 C 0.76115 0.90866 0.88542 0.0
C1169 C 0.71948 0.89735 0.95599 0.0
C1170 C 0.73372 0.89858 0.91083 0.0
C1171 C 0.77665 0.89829 0.78537 0.0
C1172 C 0.76148 0.89924 0.82673 0.0
H1173 H 0.67773 0.89905 0.95087 0.0
H1174 H 0.70166 0.90413 0.88099 0.0
H1175 H 0.74759 0.91529 0.97291 0.0
H1176 H 0.81825 0.89582 0.80328 0.0
H1177 H 0.79357 0.89985 0.86873 0.0
C1178 C 0.87108 0.30552 0.03822 0.0
C1179 C 0.8737 0.30563 0.96935 0.0
C1180 C 0.87099 0.29076 0.07333 0.0
C1181 C 0.88397 0.2471 0.05909 0.0
H1182 H 0.85662 0.24225 0.21588 0.0
C1183 C 0.87278 0.18566 0.19544 0.0
C1184 C 0.877 0.18576 0.26311 0.0
C1185 C 0.87214 0.2003 0.1596 0.0
C1186 C 0.86435 0.24353 0.17234 0.0
H1187 H 0.87781 0.29039 0.88277 0.0
H1188 H 0.87685 0.26448 0.94348 0.0
H1189 H 0.85508 0.26748 0.15079 0.0
H1190 H 0.88357 0.20123 0.34664 0.0
H1191 H 0.88191 0.22702 0.28388 0.0
H1192 H 0.89268 0.22277 0.07984 0.0
C1193 C 0.87544 0.27583 0.97093 0.0
C1194 C 0.86357 0.25798 0.13514 0.0
C1195 C 0.87587 0.29066 0.93595 0.0
C1196 C 0.88032 0.20081 0.29454 0.0
C1197 C 0.87932 0.21552 0.25887 0.0
C1198 C 0.88448 0.23253 0.09556 0.0
C1199 C 0.87318 0.2757 0.04025 0.0
C1200 C 0.87348 0.26003 0.0783 0.0
C1201 C 0.87537 0.21531 0.19104 0.0
C1202 C 0.87477 0.23071 0.15265 0.0
H1203 H 0.86957 0.3169 0.06548 0.0
H1204 H 0.86958 0.29126 0.12671 0.0
H1205 H 0.89204 0.2483 0.01656 0.0
H1206 H 0.87027 0.17423 0.16978 0.0
H1207 H 0.86901 0.19991 0.10734 0.0
C1208 C 0.29565 0.40051 0.20865 0.0
C1209 C 0.29581 0.38819 0.15968 0.0
C1210 C 0.28205 0.40238 0.25037 0.0
C1211 C 0.24868 0.40722 0.31792 0.0
H1212 H 0.23329 0.36602 0.39251 0.0
C1213 C 0.19082 0.40055 0.4842 0.0
C1214 C 0.19167 0.38936 0.53733 0.0
C1215 C 0.20395 0.40214 0.43993 0.0
C1216 C 0.23755 0.37763 0.37254 0.0
H1217 H 0.28136 0.3689 0.11327 0.0
H1218 H 0.25758 0.37222 0.18619 0.0
H1219 H 0.25428 0.36576 0.30613 0.0
H1220 H 0.2074 0.37181 0.5879 0.0
H1221 H 0.23036 0.37465 0.51054 0.0
H1222 H 0.23199 0.41907 0.38509 0.0
C1223 C 0.2681 0.38027 0.1927 0.0
C1224 C 0.24938 0.37747 0.32237 0.0
C1225 C 0.28167 0.37845 0.15066 0.0
C1226 C 0.20631 0.38049 0.54738 0.0
C1227 C 0.21941 0.38201 0.50283 0.0
C1228 C 0.23673 0.40738 0.3679 0.0
C1229 C 0.26837 0.39193 0.24417 0.0
C1230 C 0.2551 0.39225 0.29464 0.0
C1231 C 0.21817 0.39252 0.4477 0.0
C1232 C 0.23113 0.39257 0.39594 0.0
H1233 H 0.3063 0.40829 0.21666 0.0
H1234 H 0.28263 0.41143 0.28973 0.0
H1235 H 0.25286 0.41879 0.29731 0.0
H1236 H 0.17975 0.40765 0.47522 0.0
H1237 H 0.20264 0.4103 0.39779 0.0
C1238 C 0.37338 0.69928 0.75652 0.0
C1239 C 0.37019 0.68447 0.72309 0.0
C1240 C 0.3718 0.71428 0.72339 0.0
C1241 C 0.37757 0.73278 0.56604 0.0
H1242 H 0.3471 0.76696 0.61988 0.0
C1243 C 0.37256 0.7928 0.41759 0.0
C1244 C 0.36994 0.80735 0.45332 0.0
C1245 C 0.37101 0.77757 0.44882 0.0
C1246 C 0.35586 0.75767 0.60472 0.0
H1247 H 0.36286 0.67365 0.62913 0.0
H1248 H 0.36067 0.69991 0.57081 0.0
H1249 H 0.34771 0.74094 0.68029 0.0
H1250 H 0.36365 0.81751 0.54946 0.0
H1251 H 0.36179 0.79107 0.60492 0.0
H1252 H 0.38647 0.74952 0.49299 0.0
C1253 C 0.36409 0.69985 0.62278 0.0
C1254 C 0.35609 0.74277 0.63909 0.0
C1255 C 0.3653 0.6849 0.6562 0.0
C1256 C 0.36559 0.80644 0.52061 0.0
C1257 C 0.36442 0.79124 0.55226 0.0
C1258 C 0.37763 0.74778 0.53261 0.0
C1259 C 0.36738 0.7146 0.65612 0.0
C1260 C 0.36693 0.73026 0.61981 0.0
C1261 C 0.36721 0.77659 0.5169 0.0
C1262 C 0.36677 0.76044 0.55143 0.0
H1263 H 0.37711 0.69927 0.80813 0.0
H1264 H 0.37446 0.72559 0.7497 0.0
H1265 H 0.38612 0.72327 0.55094 0.0
H1266 H 0.37576 0.79319 0.3654 0.0
H1267 H 0.37285 0.76658 0.41948 0.0
C1268 C 0.68728 0.59553 0.26774 0.0
C1269 C 0.68877 0.60104 0.20182 0.0
C1270 C 0.70118 0.59367 0.30747 0.0
C1271 C 0.74469 0.58641 0.31299 0.0
H1272 H 0.74534 0.61575 0.46472 0.0
C1273 C 0.80376 0.59863 0.46218 0.0
C1274 C 0.8026 0.60294 0.5295 0.0
C1275 C 0.78961 0.59637 0.42418 0.0
C1276 C 0.74527 0.60717 0.42365 0.0
H1277 H 0.70609 0.60808 0.12485 0.0
H1278 H 0.7306 0.60436 0.19464 0.0
H1279 H 0.72128 0.61502 0.39276 0.0
H1280 H 0.78574 0.60744 0.61085 0.0
H1281 H 0.76091 0.60265 0.54537 0.0
H1282 H 0.76839 0.57811 0.34449 0.0
C1283 C 0.71855 0.6017 0.21512 0.0
C1284 C 0.73154 0.60691 0.38214 0.0
C1285 C 0.70456 0.60386 0.17547 0.0
C1286 C 0.78698 0.60427 0.55887 0.0
C1287 C 0.77277 0.60164 0.52111 0.0
C1288 C 0.75831 0.58639 0.35536 0.0
C1289 C 0.71686 0.59697 0.28178 0.0
C1290 C 0.73124 0.59668 0.32619 0.0
C1291 C 0.7739 0.59803 0.45286 0.0
C1292 C 0.75888 0.59695 0.41078 0.0
H1293 H 0.6753 0.59326 0.28973 0.0
H1294 H 0.69967 0.58997 0.35878 0.0
H1295 H 0.74458 0.57832 0.27027 0.0
H1296 H 0.81565 0.59767 0.43793 0.0
H1297 H 0.79106 0.59393 0.3717 0.0
C1298 C 0.62055 0.18652 0.51646 0.0
C1299 C 0.61816 0.1866 0.44744 0.0
C1300 C 0.62045 0.20114 0.5523 0.0
C1301 C 0.60748 0.24479 0.54062 0.0
H1302 H 0.63513 0.24909 0.6968 0.0
C1303 C 0.61927 0.30576 0.6789 0.0
C1304 C 0.61551 0.30555 0.74701 0.0
C1305 C 0.61958 0.29121 0.64253 0.0
C1306 C 0.62729 0.24796 0.6535 0.0
H1307 H 0.61412 0.20206 0.36147 0.0
H1308 H 0.6147 0.22781 0.42367 0.0
H1309 H 0.63654 0.2241 0.63027 0.0
H1310 H 0.60938 0.28997 0.83074 0.0
H1311 H 0.61046 0.26428 0.76695 0.0
H1312 H 0.59881 0.26904 0.56304 0.0
C1313 C 0.61613 0.21637 0.45052 0.0
C1314 C 0.62801 0.23365 0.61546 0.0
C1315 C 0.61591 0.20165 0.41472 0.0
C1316 C 0.61229 0.29046 0.77831 0.0
C1317 C 0.61295 0.27583 0.74205 0.0
C1318 C 0.60702 0.25922 0.57798 0.0
C1319 C 0.61828 0.21628 0.5199 0.0
C1320 C 0.61801 0.23181 0.5588 0.0
C1321 C 0.61645 0.27615 0.67382 0.0
C1322 C 0.61684 0.26084 0.63487 0.0
H1323 H 0.62209 0.17508 0.54327 0.0
H1324 H 0.62174 0.20049 0.60571 0.0
H1325 H 0.59937 0.24373 0.49819 0.0
H1326 H 0.62168 0.31722 0.6533 0.0
H1327 H 0.62239 0.29169 0.58999 0.0
C1328 C 0.34318 0.10644 0.47314 0.0
C1329 C 0.33511 0.11714 0.42936 0.0
C1330 C 0.34584 0.11111 0.53858 0.0
C1331 C 0.33669 0.13953 0.67251 0.0
H1332 H 0.38357 0.1347 0.7064 0.0
C1333 C 0.36309 0.15125 0.93027 0.0
C1334 C 0.36968 0.13641 0.95393 0.0
C1335 C 0.36097 0.15361 0.86218 0.0
C1336 C 0.37052 0.13634 0.69726 0.0
H1337 H 0.32159 0.14004 0.42107 0.0
H1338 H 0.32619 0.14816 0.53656 0.0
H1339 H 0.37248 0.12766 0.59761 0.0
H1340 H 0.38092 0.11328 0.92631 0.0
H1341 H 0.37764 0.11752 0.80767 0.0
H1342 H 0.33465 0.14744 0.77347 0.0
C1343 C 0.33057 0.13629 0.51984 0.0
C1344 C 0.36415 0.13217 0.63549 0.0
C1345 C 0.32783 0.13157 0.45406 0.0
C1346 C 0.37576 0.12478 0.90894 0.0
C1347 C 0.37394 0.12727 0.84112 0.0
C1348 C 0.34308 0.14367 0.73467 0.0
C1349 C 0.3405 0.12654 0.56099 0.0
C1350 C 0.34712 0.13306 0.62364 0.0
C1351 C 0.36576 0.1413 0.8174 0.0
C1352 C 0.35994 0.14144 0.7482 0.0
H1353 H 0.34874 0.09517 0.45527 0.0
H1354 H 0.35314 0.1032 0.5703 0.0
H1355 H 0.32355 0.14047 0.66399 0.0
H1356 H 0.35825 0.16035 0.96432 0.0
H1357 H 0.35471 0.16455 0.8448 0.0
C1358 C 0.12059 0.64999 0.56901 0.0
C1359 C 0.10773 0.65172 0.61476 0.0
C1360 C 0.11736 0.6509 0.50141 0.0
C1361 C 0.08592 0.63692 0.39451 0.0
H1362 H 0.11601 0.65255 0.25903 0.0
C1363 C 0.08855 0.61671 0.11515 0.0
C1364 C 0.10475 0.61449 0.09204 0.0
C1365 C 0.08582 0.6222 0.17992 0.0
C1366 C 0.10747 0.64815 0.2964 0.0
H1367 H 0.08173 0.65708 0.62715 0.0
H1368 H 0.07596 0.65813 0.50787 0.0
H1369 H 0.11642 0.66516 0.36883 0.0
H1370 H 0.13052 0.61385 0.1201 0.0
H1371 H 0.12571 0.62297 0.23349 0.0
H1372 H 0.07765 0.61928 0.32274 0.0
C1373 C 0.08852 0.65631 0.52452 0.0
C1374 C 0.10759 0.65548 0.35869 0.0
C1375 C 0.09184 0.65575 0.59243 0.0
C1376 C 0.11795 0.61569 0.13666 0.0
C1377 C 0.11522 0.62108 0.20111 0.0
C1378 C 0.0858 0.62958 0.33191 0.0
C1379 C 0.10116 0.65323 0.47871 0.0
C1380 C 0.0974 0.64938 0.4091 0.0
C1381 C 0.09927 0.62537 0.22169 0.0
C1382 C 0.09717 0.63463 0.28373 0.0
H1383 H 0.13294 0.64695 0.5854 0.0
H1384 H 0.1273 0.64833 0.46702 0.0
H1385 H 0.07804 0.63193 0.43294 0.0
H1386 H 0.07817 0.61589 0.08152 0.0
H1387 H 0.0734 0.62524 0.19534 0.0
C1388 C 0.65296 0.88462 0.44043 0.0
C1389 C 0.65929 0.87304 0.39571 0.0
C1390 C 0.65009 0.88025 0.50609 0.0
C1391 C 0.65607 0.85143 0.64046 0.0
H1392 H 0.6098 0.86063 0.67326 0.0
C1393 C 0.62795 0.84252 0.89845 0.0
C1394 C 0.62184 0.85763 0.92154 0.0
C1395 C 0.63051 0.84008 0.83059 0.0
C1396 C 0.62267 0.85782 0.66459 0.0
H1397 H 0.66951 0.84855 0.38561 0.0
H1398 H 0.6646 0.84093 0.50175 0.0
H1399 H 0.62159 0.86622 0.56429 0.0
H1400 H 0.61196 0.88127 0.89251 0.0
H1401 H 0.61604 0.87694 0.77438 0.0
H1402 H 0.65733 0.84382 0.74207 0.0
C1403 C 0.66177 0.85331 0.48555 0.0
C1404 C 0.62944 0.86112 0.60259 0.0
C1405 C 0.6647 0.85772 0.41946 0.0
C1406 C 0.61672 0.86954 0.87577 0.0
C1407 C 0.61902 0.86701 0.80815 0.0
C1408 C 0.6493 0.8482 0.70294 0.0
C1409 C 0.65349 0.86424 0.52787 0.0
C1410 C 0.6463 0.85857 0.59092 0.0
C1411 C 0.62668 0.8526 0.78522 0.0
C1412 C 0.63269 0.85199 0.71613 0.0
H1413 H 0.64879 0.89653 0.42318 0.0
H1414 H 0.64404 0.88899 0.53856 0.0
H1415 H 0.66907 0.84925 0.63208 0.0
H1416 H 0.63207 0.83318 0.93294 0.0
H1417 H 0.63631 0.82882 0.81394 0.0
C1418 C 0.87478 0.38618 0.13574 0.0
C1419 C 0.88814 0.38406 0.09254 0.0
C1420 C 0.87717 0.38536 0.20395 0.0
C1421 C 0.90194 0.3612 0.31197 0.0
H1422 H 0.87619 0.38296 0.44797 0.0
C1423 C 0.89522 0.34158 0.58983 0.0
C1424 C 0.8794 0.34413 0.61621 0.0
C1425 C 0.89851 0.34582 0.52398 0.0
C1426 C 0.8834 0.37674 0.41032 0.0
H1427 H 0.91466 0.38116 0.08582 0.0
H1428 H 0.91879 0.37941 0.20587 0.0
H1429 H 0.87977 0.39614 0.3403 0.0
H1430 H 0.85416 0.35061 0.59333 0.0
H1431 H 0.85977 0.35745 0.47785 0.0
H1432 H 0.90502 0.34149 0.38156 0.0
C1433 C 0.90653 0.38173 0.18682 0.0
C1434 C 0.8856 0.38437 0.34923 0.0
C1435 C 0.90416 0.38284 0.11839 0.0
C1436 C 0.86647 0.34871 0.57399 0.0
C1437 C 0.86973 0.35282 0.50837 0.0
C1438 C 0.89976 0.35355 0.37335 0.0
C1439 C 0.89292 0.38217 0.22977 0.0
C1440 C 0.89434 0.37639 0.29874 0.0
C1441 C 0.88597 0.35249 0.48437 0.0
C1442 C 0.8899 0.36099 0.42188 0.0
H1443 H 0.86233 0.38724 0.11673 0.0
H1444 H 0.86644 0.38567 0.23596 0.0
H1445 H 0.90859 0.3547 0.27345 0.0
H1446 H 0.90539 0.33812 0.62172 0.0
H1447 H 0.9111 0.3453 0.50613 0.0
C1448 C 0.37149 0.34983 0.31567 0.0
C1449 C 0.37214 0.36577 0.28896 0.0
C1450 C 0.36964 0.34762 0.38393 0.0
C1451 C 0.36948 0.36913 0.54537 0.0
H1452 H 0.32855 0.34551 0.576 0.0
C1453 C 0.33266 0.38361 0.77192 0.0
C1454 C 0.33015 0.37011 0.81388 0.0
C1455 C 0.33634 0.38111 0.70534 0.0
C1456 C 0.34005 0.35199 0.56814 0.0
H1457 H 0.37352 0.39173 0.31226 0.0
H1458 H 0.37058 0.38791 0.43121 0.0
H1459 H 0.3423 0.34344 0.46814 0.0
H1460 H 0.32731 0.34367 0.81873 0.0
H1461 H 0.33378 0.33925 0.70139 0.0
H1462 H 0.36697 0.37815 0.64426 0.0
C1463 C 0.37129 0.37712 0.39986 0.0
C1464 C 0.34802 0.35068 0.50693 0.0
C1465 C 0.37291 0.37933 0.33176 0.0
C1466 C 0.3291 0.35425 0.78684 0.0
C1467 C 0.33294 0.35171 0.72001 0.0
C1468 C 0.36152 0.37047 0.60619 0.0
C1469 C 0.36872 0.36132 0.42606 0.0
C1470 C 0.36252 0.35968 0.49447 0.0
C1471 C 0.3377 0.36507 0.68027 0.0
C1472 C 0.34645 0.36239 0.61722 0.0
H1473 H 0.37088 0.33916 0.2836 0.0
H1474 H 0.36788 0.33532 0.40326 0.0
H1475 H 0.38074 0.37601 0.53718 0.0
H1476 H 0.33347 0.39594 0.79202 0.0
H1477 H 0.33954 0.39162 0.67491 0.0
C1478 C 0.39502 0.65505 0.09369 0.0
C1479 C 0.37958 0.65049 0.06809 0.0
C1480 C 0.39775 0.65466 0.16206 0.0
C1481 C 0.37744 0.64934 0.32471 0.0
H1482 H 0.41126 0.6165 0.35645 0.0
C1483 C 0.37265 0.609 0.54851 0.0
C1484 C 0.38622 0.60981 0.59141 0.0
C1485 C 0.37429 0.6139 0.48279 0.0
C1486 C 0.40194 0.62581 0.34836 0.0
H1487 H 0.35443 0.64398 0.09265 0.0
H1488 H 0.35904 0.64366 0.21176 0.0
H1489 H 0.40969 0.63016 0.24842 0.0
H1490 H 0.41255 0.61409 0.59792 0.0
H1491 H 0.41543 0.62263 0.48216 0.0
H1492 H 0.36924 0.64452 0.42344 0.0
C1493 C 0.36909 0.64735 0.17964 0.0
C1494 C 0.40113 0.63376 0.28705 0.0
C1495 C 0.36645 0.64745 0.11152 0.0
C1496 C 0.40191 0.61335 0.56558 0.0
C1497 C 0.40354 0.61837 0.49962 0.0
C1498 C 0.37822 0.6414 0.38568 0.0
C1499 C 0.38498 0.65004 0.20517 0.0
C1500 C 0.38848 0.64513 0.27405 0.0
C1501 C 0.3895 0.61972 0.45936 0.0
C1502 C 0.39005 0.6291 0.39698 0.0
H1503 H 0.40534 0.65739 0.06088 0.0
H1504 H 0.41006 0.65689 0.18086 0.0
H1505 H 0.3677 0.65819 0.31599 0.0
H1506 H 0.36047 0.60614 0.56733 0.0
H1507 H 0.3634 0.61439 0.45177 0.0
C1508 C 0.65069 0.60389 0.80469 0.0
C1509 C 0.65508 0.61682 0.84715 0.0
C1510 C 0.64704 0.60705 0.73852 0.0
C1511 C 0.64709 0.63653 0.60193 0.0
H1512 H 0.60363 0.61802 0.57051 0.0
C1513 C 0.61644 0.64245 0.34827 0.0
C1514 C 0.61347 0.62672 0.32211 0.0
C1515 C 0.61863 0.6445 0.41652 0.0
C1516 C 0.61569 0.62337 0.57877 0.0
H1517 H 0.66121 0.6427 0.85273 0.0
H1518 H 0.65488 0.64825 0.73604 0.0
H1519 H 0.6169 0.61414 0.6778 0.0
H1520 H 0.60845 0.60127 0.34626 0.0
H1521 H 0.61191 0.60486 0.46509 0.0
H1522 H 0.6461 0.64521 0.50175 0.0
C1523 C 0.65418 0.63573 0.75415 0.0
C1524 C 0.62335 0.62103 0.63977 0.0
C1525 C 0.65794 0.63253 0.82063 0.0
C1526 C 0.6108 0.6135 0.36539 0.0
C1527 C 0.61275 0.61559 0.43344 0.0
C1528 C 0.63943 0.63881 0.5405 0.0
C1529 C 0.64766 0.62319 0.7141 0.0
C1530 C 0.63933 0.62709 0.65104 0.0
C1531 C 0.61757 0.6309 0.45919 0.0
C1532 C 0.62388 0.63178 0.5278 0.0
H1533 H 0.6485 0.59166 0.82417 0.0
H1534 H 0.64246 0.59711 0.70784 0.0
H1535 H 0.65934 0.64144 0.60991 0.0
H1536 H 0.61862 0.65284 0.31576 0.0
H1537 H 0.62216 0.65646 0.43541 0.0
C1538 C 0.61822 0.38483 0.58302 0.0
C1539 C 0.60464 0.38398 0.62584 0.0
C1540 C 0.61598 0.38346 0.51485 0.0
C1541 C 0.58942 0.3605 0.40729 0.0
H1542 H 0.61726 0.37928 0.27061 0.0
C1543 C 0.59348 0.34084 0.12841 0.0
C1544 C 0.60943 0.34175 0.10151 0.0
C1545 C 0.59083 0.34507 0.19479 0.0
C1546 C 0.60947 0.37388 0.30848 0.0
H1547 H 0.57797 0.38279 0.63146 0.0
H1548 H 0.57406 0.38021 0.51155 0.0
H1549 H 0.61499 0.39303 0.37764 0.0
H1550 H 0.63529 0.34522 0.12384 0.0
H1551 H 0.63075 0.35202 0.24012 0.0
H1552 H 0.5843 0.34109 0.33818 0.0
C1553 C 0.5864 0.38188 0.53088 0.0
C1554 C 0.60805 0.38184 0.36928 0.0
C1555 C 0.58864 0.38351 0.59926 0.0
C1556 C 0.62288 0.34458 0.1436 0.0
C1557 C 0.62026 0.34866 0.20973 0.0
C1558 C 0.59081 0.35255 0.34612 0.0
C1559 C 0.60013 0.38102 0.48859 0.0
C1560 C 0.59847 0.37493 0.42 0.0
C1561 C 0.60415 0.35007 0.23441 0.0
C1562 C 0.60134 0.35888 0.29726 0.0
H1563 H 0.63066 0.38527 0.60253 0.0
H1564 H 0.6268 0.38278 0.48345 0.0
H1565 H 0.58209 0.35481 0.44591 0.0
H1566 H 0.58291 0.33878 0.09663 0.0
H1567 H 0.57831 0.34592 0.21311 0.0
C1568 C 0.83346 0.63483 0.90911 0.0
C1569 C 0.83536 0.6192 0.8807 0.0
C1570 C 0.83722 0.63723 0.97609 0.0
C1571 C 0.86675 0.61938 0.08899 0.0
H1572 H 0.84677 0.64599 0.22653 0.0
C1573 C 0.87976 0.61245 0.36386 0.0
C1574 C 0.87827 0.62616 0.40559 0.0
C1575 C 0.87778 0.61419 0.29565 0.0
C1576 C 0.85268 0.63886 0.1879 0.0
H1577 H 0.84014 0.59349 0.90039 0.0
H1578 H 0.84605 0.59755 0.01779 0.0
H1579 H 0.8329 0.64308 0.11934 0.0
H1580 H 0.87549 0.65268 0.40868 0.0
H1581 H 0.87196 0.65568 0.28894 0.0
H1582 H 0.88634 0.61487 0.15748 0.0
C1583 C 0.84226 0.60802 -0.01172 0.0
C1584 C 0.84465 0.63706 0.12705 0.0
C1585 C 0.83866 0.60566 0.92153 0.0
C1586 C 0.87666 0.64189 0.37753 0.0
C1587 C 0.87448 0.64361 0.30919 0.0
C1588 C 0.87478 0.62122 0.14949 0.0
C1589 C 0.84276 0.62397 0.0147 0.0
C1590 C 0.85138 0.62687 0.07801 0.0
C1591 C 0.87418 0.62965 0.26828 0.0
C1592 C 0.86759 0.63057 0.20017 0.0
H1593 H 0.83106 0.64545 0.87817 0.0
H1594 H 0.83739 0.64963 -0.00433 0.0
H1595 H 0.87247 0.61189 0.05098 0.0
H1596 H 0.88112 0.60022 0.38434 0.0
H1597 H 0.8776 0.6032 0.2653 0.0
C1598 C 0.58877 0.1089 0.5936 0.0
C1599 C 0.60474 0.10717 0.56777 0.0
C1600 C 0.58644 0.11018 0.6621 0.0
C1601 C 0.60751 0.10713 0.82465 0.0
H1602 H 0.58823 0.15 0.85836 0.0
C1603 C 0.62688 0.14284 0.05005 0.0
C1604 C 0.61404 0.1476 0.09248 0.0
C1605 C 0.62351 0.13848 0.98473 0.0
C1606 C 0.59345 0.13793 0.84978 0.0
H1607 H 0.63045 0.10339 0.59195 0.0
H1608 H 0.62641 0.10519 0.71116 0.0
H1609 H 0.5846 0.137 0.74986 0.0
H1610 H 0.58803 0.15357 0.0982 0.0
H1611 H 0.58216 0.14602 0.98311 0.0
H1612 H 0.61696 0.10834 0.9234 0.0
C1613 C 0.61568 0.10575 0.67925 0.0
C1614 C 0.59125 0.13041 0.78811 0.0
C1615 C 0.61803 0.10475 0.61102 0.0
C1616 C 0.59816 0.14997 0.06633 0.0
C1617 C 0.59476 0.14552 0.00073 0.0
C1618 C 0.60975 0.11465 0.88599 0.0
C1619 C 0.60004 0.10942 0.70514 0.0
C1620 C 0.59877 0.11521 0.77434 0.0
C1621 C 0.60726 0.13878 0.96097 0.0
C1622 C 0.60328 0.13038 0.89815 0.0
H1623 H 0.57836 0.11089 0.56093 0.0
H1624 H 0.57425 0.11287 0.68109 0.0
H1625 H 0.61328 0.09533 0.81546 0.0
H1626 H 0.63925 0.14108 0.06897 0.0
H1627 H 0.63344 0.13379 0.95416 0.0
C1628 C 0.11547 0.37272 0.37782 0.0
C1629 C 0.12047 0.36022 0.42118 0.0
C1630 C 0.11776 0.37096 0.30983 0.0
C1631 C 0.14822 0.35318 0.2032 0.0
H1632 H 0.12124 0.37272 0.06561 0.0
C1633 C 0.16461 0.36243 0.92254 0.0
C1634 C 0.15858 0.37719 0.89573 0.0
C1635 C 0.16183 0.35876 -0.01063 0.0
C1636 C 0.12892 0.36729 0.10373 0.0
H1637 H 0.13027 0.33548 0.42796 0.0
H1638 H 0.13446 0.33248 0.30831 0.0
H1639 H 0.109 0.36639 0.17303 0.0
H1640 H 0.14739 0.40068 0.91836 0.0
H1641 H 0.14301 0.39449 0.03531 0.0
H1642 H 0.16826 0.35451 0.13378 0.0
C1643 C 0.12881 0.34361 0.3271 0.0
C1644 C 0.12188 0.36353 0.16475 0.0
C1645 C 0.12628 0.34528 0.39529 0.0
C1646 C 0.15199 0.38917 0.93807 0.0
C1647 C 0.14933 0.38556 0.00461 0.0
C1648 C 0.15527 0.35689 0.14175 0.0
C1649 C 0.12526 0.35675 0.28431 0.0
C1650 C 0.13159 0.35698 0.21576 0.0
C1651 C 0.15314 0.3699 0.0294 0.0
C1652 C 0.14579 0.36455 0.09259 0.0
H1653 H 0.11092 0.38432 0.39682 0.0
H1654 H 0.11498 0.38132 0.27801 0.0
H1655 H 0.15602 0.34828 0.24207 0.0
H1656 H 0.16966 0.35299 0.89057 0.0
H1657 H 0.165 0.34666 0.00781 0.0
C1658 C 0.39435 0.83698 0.08642 0.0
C1659 C 0.37917 0.84207 0.11281 0.0
C1660 C 0.39679 0.83708 0.0179 0.0
C1661 C 0.37619 0.84284 0.8564 0.0
H1662 H 0.41018 0.87557 0.82482 0.0
C1663 C 0.37169 0.88301 0.63203 0.0
C1664 C 0.38544 0.88238 0.59003 0.0
C1665 C 0.37314 0.87818 0.69789 0.0
C1666 C 0.4008 0.8663 0.83283 0.0
H1667 H 0.35409 0.84913 0.08979 0.0
H1668 H 0.35819 0.84896 0.97034 0.0
H1669 H 0.40873 0.86166 0.93225 0.0
H1670 H 0.41186 0.87857 0.58522 0.0
H1671 H 0.4144 0.87008 0.701 0.0
H1672 H 0.36785 0.84789 0.75812 0.0
C1673 C 0.36827 0.84509 0.00196 0.0
C1674 C 0.40008 0.8582 0.89377 0.0
C1675 C 0.36592 0.84528 0.07024 0.0
C1676 C 0.40108 0.87914 0.61686 0.0
C1677 C 0.40252 0.87416 0.68287 0.0
C1678 C 0.37691 0.85091 0.79571 0.0
C1679 C 0.38396 0.84193 0.97554 0.0
C1680 C 0.38738 0.84687 0.90673 0.0
C1681 C 0.38834 0.87258 0.72221 0.0
C1682 C 0.3888 0.86317 0.78448 0.0
H1683 H 0.40474 0.83446 0.11859 0.0
H1684 H 0.40895 0.8345 -0.00168 0.0
H1685 H 0.36639 0.83405 0.86524 0.0
H1686 H 0.35954 0.88567 0.6124 0.0
H1687 H 0.36213 0.87756 0.72825 0.0
C1688 C 0.83407 0.86377 0.32723 0.0
C1689 C 0.84035 0.87857 0.35279 0.0
C1690 C 0.83721 0.85942 0.26129 0.0
C1691 C 0.87059 0.86615 0.14603 0.0
H1692 H 0.84244 0.8483 0.0085 0.0
C1693 C 0.88297 0.87238 0.87174 0.0
C1694 C 0.87735 0.86031 0.82763 0.0
C1695 C 0.88104 0.87026 0.93976 0.0
C1696 C 0.85054 0.85283 0.04714 0.0
H1697 H 0.8526 0.90144 0.3282 0.0
H1698 H 0.85768 0.89405 0.2129 0.0
H1699 H 0.83075 0.85478 0.11744 0.0
H1700 H 0.86676 0.83592 0.81932 0.0
H1701 H 0.86316 0.83228 0.93907 0.0
H1702 H 0.89026 0.86474 0.07567 0.0
C1703 C 0.85086 0.88559 0.24406 0.0
C1704 C 0.84379 0.85668 0.10902 0.0
C1705 C 0.84779 0.88989 0.30966 0.0
C1706 C 0.87125 0.84537 0.85259 0.0
C1707 C 0.86906 0.84335 0.92086 0.0
C1708 C 0.87732 0.86225 0.08455 0.0
C1709 C 0.84656 0.86991 0.22076 0.0
C1710 C 0.85366 0.864 0.15786 0.0
C1711 C 0.87325 0.85611 0.96464 0.0
C1712 C 0.86723 0.85616 0.03373 0.0
H1713 H 0.82835 0.85481 0.3597 0.0
H1714 H 0.83364 0.84733 0.24397 0.0
H1715 H 0.87855 0.87132 0.18384 0.0
H1716 H 0.88774 0.88397 0.85344 0.0
H1717 H 0.88431 0.88035 0.97229 0.0
C1718 C 0.90444 0.11236 0.11262 0.0
C1719 C 0.88881 0.10927 0.13989 0.0
C1720 C 0.90588 0.11688 0.04596 0.0
C1721 C 0.88039 0.13976 0.93232 0.0
H1722 H 0.91188 0.12855 0.79512 0.0
C1723 C 0.8695 0.14882 0.65784 0.0
C1724 C 0.8829 0.15164 0.61547 0.0
C1725 C 0.87193 0.14782 0.726 0.0
C1726 C 0.9033 0.13211 0.83369 0.0
H1727 H 0.86292 0.10581 0.11791 0.0
H1728 H 0.86549 0.11316 0.00119 0.0
H1729 H 0.91317 0.11457 0.90258 0.0
H1730 H 0.90899 0.15727 0.61056 0.0
H1731 H 0.91329 0.15534 0.73056 0.0
H1732 H 0.87024 0.15698 0.86346 0.0
C1733 C 0.87651 0.11271 0.03151 0.0
C1734 C 0.90393 0.12398 0.89467 0.0
C1735 C 0.87506 0.10833 0.09793 0.0
C1736 C 0.89846 0.15514 0.64251 0.0
C1737 C 0.90095 0.15388 0.71088 0.0
C1738 C 0.87979 0.14791 0.87172 0.0
C1739 C 0.8917 0.11816 0.00644 0.0
C1740 C 0.8921 0.12735 0.94346 0.0
C1741 C 0.88784 0.14942 0.75267 0.0
C1742 C 0.89088 0.14378 0.8211 0.0
H1743 H 0.91522 0.11321 0.14419 0.0
H1744 H 0.91774 0.12088 0.02735 0.0
H1745 H 0.87146 0.14296 0.97017 0.0
H1746 H 0.85739 0.14613 0.63789 0.0
H1747 H 0.8616 0.1443 0.75698 0.0
C1748 C 0.12159 0.10499 0.86601 0.0
C1749 C 0.12111 0.11905 0.82578 0.0
C1750 C 0.12425 0.10649 0.93393 0.0
C1751 C 0.14726 0.13341 0.04175 0.0
H1752 H 0.13139 0.10397 0.1787 0.0
C1753 C 0.16498 0.13345 0.3214 0.0
C1754 C 0.16471 0.11796 0.35194 0.0
C1755 C 0.16194 0.13473 0.25336 0.0
C1756 C 0.13608 0.11212 0.1406 0.0
H1757 H 0.12099 0.14573 0.82562 0.0
H1758 H 0.1256 0.14831 0.94485 0.0
H1759 H 0.1171 0.10515 0.07268 0.0
H1760 H 0.16367 0.0917 0.3359 0.0
H1761 H 0.15911 0.09387 0.21669 0.0
H1762 H 0.16635 0.14026 0.11009 0.0
C1763 C 0.1242 0.13617 0.92353 0.0
C1764 C 0.12778 0.11292 0.08034 0.0
C1765 C 0.12139 0.13467 0.85551 0.0
C1766 C 0.1639 0.10375 0.31293 0.0
C1767 C 0.16108 0.10501 0.24509 0.0
C1768 C 0.15555 0.13266 0.10238 0.0
C1769 C 0.1265 0.12207 0.96254 0.0
C1770 C 0.13349 0.1233 0.02988 0.0
C1771 C 0.15878 0.12051 0.21596 0.0
C1772 C 0.15025 0.12169 0.15159 0.0
H1773 H 0.12126 0.09281 0.84433 0.0
H1774 H 0.12595 0.09539 0.96282 0.0
H1775 H 0.15206 0.14137 0.00321 0.0
H1776 H 0.16542 0.14455 0.35105 0.0
H1777 H 0.16032 0.14682 0.23181 0.0
C1778 C 0.09791 0.8339 0.60395 0.0
C1779 C 0.11307 0.83966 0.57959 0.0
C1780 C 0.09497 0.83363 0.67217 0.0
C1781 C 0.11441 0.83895 0.83618 0.0
H1782 H 0.07921 0.87026 0.86904 0.0
C1783 C 0.11786 0.87965 0.05887 0.0
C1784 C 0.10446 0.87845 0.10249 0.0
C1785 C 0.11623 0.87444 -0.00642 0.0
C1786 C 0.0889 0.86134 0.86067 0.0
H1787 H 0.13765 0.8477 0.60603 0.0
H1788 H 0.13271 0.84687 0.72494 0.0
H1789 H 0.08149 0.85705 0.76027 0.0
H1790 H 0.07837 0.87302 0.11077 0.0
H1791 H 0.07552 0.86391 -0.00437 0.0
H1792 H 0.12229 0.8438 0.93529 0.0
C1793 C 0.12302 0.84275 0.6919 0.0
C1794 C 0.09012 0.85366 0.79894 0.0
C1795 C 0.12584 0.84332 0.62393 0.0
C1796 C 0.08887 0.87409 0.0778 0.0
C1797 C 0.08726 0.86874 0.01224 0.0
C1798 C 0.1132 0.84662 0.89759 0.0
C1799 C 0.1073 0.83876 0.71634 0.0
C1800 C 0.1033 0.84294 0.7855 0.0
C1801 C 0.10122 0.86789 0.97132 0.0
C1802 C 0.10089 0.85841 0.90921 0.0
H1803 H 0.08786 0.83105 0.57044 0.0
H1804 H 0.0828 0.83045 0.69016 0.0
H1805 H 0.12456 0.83061 0.82703 0.0
H1806 H 0.12996 0.88314 0.07685 0.0
H1807 H 0.12704 0.87433 0.96197 0.0
loop_
_geom_bond_atom_site_label_1
_geom_bond_atom_site_label_2
_geom_bond_distance
_geom_bond_site_symmetry_2
_ccdc_geom_bond_type
O0 Zn1 1.953 1_556 S
O0 C16 1.225 . S
Zn1 O0 1.953 1_554 S
Zn1 O2 1.949 . S
Zn1 O8 1.919 . S
Zn1 O13 1.924 . S
O2 Zn1 1.949 . S
O2 Zn3 1.923 . S
O2 Zn4 1.950 . S
O2 Zn5 1.945 . S
Zn3 O2 1.923 . S
Zn3 O6 1.933 . S
Zn3 O9 1.941 . S
Zn3 O10 1.965 . S
Zn4 O2 1.950 . S
Zn4 O11 1.938 . S
Zn4 O12 1.906 . S
Zn4 O22 1.953 1_554 S
Zn5 O2 1.945 . S
Zn5 O7 1.932 . S
Zn5 O14 1.977 . S
Zn5 O15 1.910 . S
O6 Zn3 1.933 . S
O6 C17 1.226 . S
O7 Zn5 1.932 . S
O7 C17 1.307 . S
O8 Zn1 1.919 . S
O8 C19 1.253 . S
O9 Zn3 1.941 . S
O9 C19 1.283 . S
O10 Zn3 1.965 . S
O10 C18 1.303 . S
O11 Zn4 1.938 . S
O11 C18 1.247 . S
O12 Zn4 1.906 . S
O12 C20 1.304 . S
O13 Zn1 1.924 . S
O13 C21 1.311 . S
O14 Zn5 1.977 . S
O14 C20 1.272 . S
O15 Zn5 1.910 . S
O15 C21 1.231 . S
C16 O0 1.225 . S
C16 O22 1.298 . S
C17 O6 1.226 . S
C17 O7 1.307 . S
C18 O10 1.303 . S
C18 O11 1.247 . S
C19 O8 1.253 . S
C19 O9 1.283 . S
C20 O12 1.304 . S
C20 O14 1.272 . S
C21 O13 1.311 . S
C21 O15 1.231 . S
O22 Zn4 1.953 1_556 S
O22 C16 1.298 . S
O23 Zn24 1.953 1_554 S
O23 C39 1.225 . S
Zn24 O23 1.953 1_556 S
Zn24 O25 1.949 . S
Zn24 O31 1.919 . S
Zn24 O36 1.924 . S
O25 Zn24 1.949 . S
O25 Zn26 1.923 . S
O25 Zn27 1.950 . S
O25 Zn28 1.945 . S
Zn26 O25 1.923 . S
Zn26 O29 1.933 . S
Zn26 O32 1.941 . S
Zn26 O33 1.965 . S
Zn27 O25 1.950 . S
Zn27 O34 1.938 . S
Zn27 O35 1.906 . S
Zn27 O45 1.953 1_556 S
Zn28 O25 1.945 . S
Zn28 O30 1.932 . S
Zn28 O37 1.977 . S
Zn28 O38 1.910 . S
O29 Zn26 1.933 . S
O29 C40 1.226 . S
O30 Zn28 1.932 . S
O30 C40 1.307 . S
O31 Zn24 1.919 . S
O31 C42 1.253 . S
O32 Zn26 1.941 . S
O32 C42 1.283 . S
O33 Zn26 1.965 . S
O33 C41 1.303 . S
O34 Zn27 1.938 . S
O34 C41 1.247 . S
O35 Zn27 1.906 . S
O35 C43 1.304 . S
O36 Zn24 1.924 . S
O36 C44 1.311 . S
O37 Zn28 1.977 . S
O37 C43 1.272 . S
O38 Zn28 1.910 . S
O38 C44 1.231 . S
C39 O23 1.225 . S
C39 O45 1.298 . S
C40 O29 1.226 . S
C40 O30 1.307 . S
C41 O33 1.303 . S
C41 O34 1.247 . S
C42 O31 1.253 . S
C42 O32 1.283 . S
C43 O35 1.304 . S
C43 O37 1.272 . S
C44 O36 1.311 . S
C44 O38 1.231 . S
O45 Zn27 1.953 1_554 S
O45 C39 1.298 . S
O46 Zn47 1.953 1_556 S
O46 C62 1.225 . S
Zn47 O46 1.953 1_554 S
Zn47 O48 1.949 . S
Zn47 O54 1.919 . S
Zn47 O59 1.924 . S
O48 Zn47 1.949 . S
O48 Zn49 1.923 . S
O48 Zn50 1.950 . S
O48 Zn51 1.945 . S
Zn49 O48 1.923 . S
Zn49 O52 1.933 . S
Zn49 O55 1.941 . S
Zn49 O56 1.965 . S
Zn50 O48 1.950 . S
Zn50 O57 1.938 . S
Zn50 O58 1.906 . S
Zn50 O68 1.953 1_554 S
Zn51 O48 1.945 . S
Zn51 O53 1.932 . S
Zn51 O60 1.977 . S
Zn51 O61 1.910 . S
O52 Zn49 1.933 . S
O52 C63 1.226 . S
O53 Zn51 1.932 . S
O53 C63 1.307 . S
O54 Zn47 1.919 . S
O54 C65 1.253 . S
O55 Zn49 1.941 . S
O55 C65 1.283 . S
O56 Zn49 1.965 . S
O56 C64 1.303 . S
O57 Zn50 1.938 . S
O57 C64 1.247 . S
O58 Zn50 1.906 . S
O58 C66 1.304 . S
O59 Zn47 1.924 . S
O59 C67 1.311 . S
O60 Zn51 1.977 . S
O60 C66 1.272 . S
O61 Zn51 1.910 . S
O61 C67 1.231 . S
C62 O46 1.225 . S
C62 O68 1.298 . S
C63 O52 1.226 . S
C63 O53 1.307 . S
C64 O56 1.303 . S
C64 O57 1.247 . S
C65 O54 1.253 . S
C65 O55 1.283 . S
C66 O58 1.304 . S
C66 O60 1.272 . S
C67 O59 1.311 . S
C67 O61 1.231 . S
O68 Zn50 1.953 1_556 S
O68 C62 1.298 . S
O69 Zn70 1.953 1_554 S
O69 C85 1.225 . S
Zn70 O69 1.953 1_556 S
Zn70 O71 1.949 . S
Zn70 O77 1.919 . S
Zn70 O82 1.924 . S
O71 Zn70 1.949 . S
O71 Zn72 1.923 . S
O71 Zn73 1.950 . S
O71 Zn74 1.945 . S
Zn72 O71 1.923 . S
Zn72 O75 1.933 . S
Zn72 O78 1.941 . S
Zn72 O79 1.965 . S
Zn73 O71 1.950 . S
Zn73 O80 1.938 . S
Zn73 O81 1.906 . S
Zn73 O91 1.953 1_556 S
Zn74 O71 1.945 . S
Zn74 O76 1.932 . S
Zn74 O83 1.977 . S
Zn74 O84 1.910 . S
O75 Zn72 1.933 . S
O75 C86 1.226 . S
O76 Zn74 1.932 . S
O76 C86 1.307 . S
O77 Zn70 1.919 . S
O77 C88 1.253 . S
O78 Zn72 1.941 . S
O78 C88 1.283 . S
O79 Zn72 1.965 . S
O79 C87 1.303 . S
O80 Zn73 1.938 . S
O80 C87 1.247 . S
O81 Zn73 1.906 . S
O81 C89 1.304 . S
O82 Zn70 1.924 . S
O82 C90 1.311 . S
O83 Zn74 1.977 . S
O83 C89 1.272 . S
O84 Zn74 1.910 . S
O84 C90 1.231 . S
C85 O69 1.225 . S
C85 O91 1.298 . S
C86 O75 1.226 . S
C86 O76 1.307 . S
C87 O79 1.303 . S
C87 O80 1.247 . S
C88 O77 1.253 . S
C88 O78 1.283 . S
C89 O81 1.304 . S
C89 O83 1.272 . S
C90 O82 1.311 . S
C90 O84 1.231 . S
O91 Zn73 1.953 1_554 S
O91 C85 1.298 . S
O92 Zn93 1.953 . S
O92 C108 1.225 . S
Zn93 O92 1.953 . S
Zn93 O94 1.949 . S
Zn93 O100 1.919 . S
Zn93 O105 1.924 . S
O94 Zn93 1.949 . S
O94 Zn95 1.923 . S
O94 Zn96 1.950 . S
O94 Zn97 1.945 . S
Zn95 O94 1.923 . S
Zn95 O98 1.933 1_554 S
Zn95 O101 1.941 . S
Zn95 O102 1.965 . S
Zn96 O94 1.950 . S
Zn96 O103 1.938 . S
Zn96 O104 1.906 . S
Zn96 O114 1.953 . S
Zn97 O94 1.945 . S
Zn97 O99 1.932 1_554 S
Zn97 O106 1.977 . S
Zn97 O107 1.910 . S
O98 Zn95 1.933 1_556 S
O98 C109 1.226 . S
O99 Zn97 1.932 1_556 S
O99 C109 1.307 . S
O100 Zn93 1.919 . S
O100 C111 1.253 . S
O101 Zn95 1.941 . S
O101 C111 1.283 . S
O102 Zn95 1.965 . S
O102 C110 1.303 . S
O103 Zn96 1.938 . S
O103 C110 1.247 . S
O104 Zn96 1.906 . S
O104 C112 1.304 . S
O105 Zn93 1.924 . S
O105 C113 1.311 . S
O106 Zn97 1.977 . S
O106 C112 1.272 . S
O107 Zn97 1.910 . S
O107 C113 1.231 . S
C108 O92 1.225 . S
C108 O114 1.298 . S
C109 O98 1.226 . S
C109 O99 1.307 . S
C110 O102 1.303 . S
C110 O103 1.247 . S
C111 O100 1.253 . S
C111 O101 1.283 . S
C112 O104 1.304 . S
C112 O106 1.272 . S
C113 O105 1.311 . S
C113 O107 1.231 . S
O114 Zn96 1.953 . S
O114 C108 1.298 . S
O115 Zn116 1.953 . S
O115 C131 1.225 . S
Zn116 O115 1.953 . S
Zn116 O117 1.949 . S
Zn116 O123 1.919 . S
Zn116 O128 1.924 . S
O117 Zn116 1.949 . S
O117 Zn118 1.923 . S
O117 Zn119 1.950 . S
O117 Zn120 1.945 . S
Zn118 O117 1.923 . S
Zn118 O121 1.933 1_556 S
Zn118 O124 1.941 . S
Zn118 O125 1.965 . S
Zn119 O117 1.950 . S
Zn119 O126 1.938 . S
Zn119 O127 1.906 . S
Zn119 O137 1.953 . S
Zn120 O117 1.945 . S
Zn120 O122 1.932 1_556 S
Zn120 O129 1.977 . S
Zn120 O130 1.910 . S
O121 Zn118 1.933 1_554 S
O121 C132 1.226 . S
O122 Zn120 1.932 1_554 S
O122 C132 1.307 . S
O123 Zn116 1.919 . S
O123 C134 1.253 . S
O124 Zn118 1.941 . S
O124 C134 1.283 . S
O125 Zn118 1.965 . S
O125 C133 1.303 . S
O126 Zn119 1.938 . S
O126 C133 1.247 . S
O127 Zn119 1.906 . S
O127 C135 1.304 . S
O128 Zn116 1.924 . S
O128 C136 1.311 . S
O129 Zn120 1.977 . S
O129 C135 1.272 . S
O130 Zn120 1.910 . S
O130 C136 1.231 . S
C131 O115 1.225 . S
C131 O137 1.298 . S
C132 O121 1.226 . S
C132 O122 1.307 . S
C133 O125 1.303 . S
C133 O126 1.247 . S
C134 O123 1.253 . S
C134 O124 1.283 . S
C135 O127 1.304 . S
C135 O129 1.272 . S
C136 O128 1.311 . S
C136 O130 1.231 . S
O137 Zn119 1.953 . S
O137 C131 1.298 . S
O138 Zn139 1.953 . S
O138 C154 1.225 . S
Zn139 O138 1.953 . S
Zn139 O140 1.949 . S
Zn139 O146 1.919 . S
Zn139 O151 1.924 . S
O140 Zn139 1.949 . S
O140 Zn141 1.923 . S
O140 Zn142 1.950 . S
O140 Zn143 1.945 . S
Zn141 O140 1.923 . S
Zn141 O144 1.933 1_554 S
Zn141 O147 1.941 . S
Zn141 O148 1.965 . S
Zn142 O140 1.950 . S
Zn142 O149 1.938 . S
Zn142 O150 1.906 . S
Zn142 O160 1.953 . S
Zn143 O140 1.945 . S
Zn143 O145 1.932 1_554 S
Zn143 O152 1.977 . S
Zn143 O153 1.910 . S
O144 Zn141 1.933 1_556 S
O144 C155 1.226 . S
O145 Zn143 1.932 1_556 S
O145 C155 1.307 . S
O146 Zn139 1.919 . S
O146 C157 1.253 . S
O147 Zn141 1.941 . S
O147 C157 1.283 . S
O148 Zn141 1.965 . S
O148 C156 1.303 . S
O149 Zn142 1.938 . S
O149 C156 1.247 . S
O150 Zn142 1.906 . S
O150 C158 1.304 . S
O151 Zn139 1.924 . S
O151 C159 1.311 . S
O152 Zn143 1.977 . S
O152 C158 1.272 . S
O153 Zn143 1.910 . S
O153 C159 1.231 . S
C154 O138 1.225 . S
C154 O160 1.298 . S
C155 O144 1.226 . S
C155 O145 1.307 . S
C156 O148 1.303 . S
C156 O149 1.247 . S
C157 O146 1.253 . S
C157 O147 1.283 . S
C158 O150 1.304 . S
C158 O152 1.272 . S
C159 O151 1.311 . S
C159 O153 1.231 . S
O160 Zn142 1.953 . S
O160 C154 1.298 . S
O161 Zn162 1.953 . S
O161 C177 1.225 . S
Zn162 O161 1.953 . S
Zn162 O163 1.949 . S
Zn162 O169 1.919 . S
Zn162 O174 1.924 . S
O163 Zn162 1.949 . S
O163 Zn164 1.923 . S
O163 Zn165 1.950 . S
O163 Zn166 1.945 . S
Zn164 O163 1.923 . S
Zn164 O167 1.933 1_556 S
Zn164 O170 1.941 . S
Zn164 O171 1.965 . S
Zn165 O163 1.950 . S
Zn165 O172 1.938 . S
Zn165 O173 1.906 . S
Zn165 O183 1.953 . S
Zn166 O163 1.945 . S
Zn166 O168 1.932 1_556 S
Zn166 O175 1.977 . S
Zn166 O176 1.910 . S
O167 Zn164 1.933 1_554 S
O167 C178 1.226 . S
O168 Zn166 1.932 1_554 S
O168 C178 1.307 . S
O169 Zn162 1.919 . S
O169 C180 1.253 . S
O170 Zn164 1.941 . S
O170 C180 1.283 . S
O171 Zn164 1.965 . S
O171 C179 1.303 . S
O172 Zn165 1.938 . S
O172 C179 1.247 . S
O173 Zn165 1.906 . S
O173 C181 1.304 . S
O174 Zn162 1.924 . S
O174 C182 1.311 . S
O175 Zn166 1.977 . S
O175 C181 1.272 . S
O176 Zn166 1.910 . S
O176 C182 1.231 . S
C177 O161 1.225 . S
C177 O183 1.298 . S
C178 O167 1.226 . S
C178 O168 1.307 . S
C179 O171 1.303 . S
C179 O172 1.247 . S
C180 O169 1.253 . S
C180 O170 1.283 . S
C181 O173 1.304 . S
C181 O175 1.272 . S
C182 O174 1.311 . S
C182 O176 1.231 . S
O183 Zn165 1.953 . S
O183 C177 1.298 . S
O184 Zn185 1.953 . S
O184 C200 1.225 . S
Zn185 O184 1.953 . S
Zn185 O186 1.949 . S
Zn185 O192 1.919 . S
Zn185 O197 1.924 . S
O186 Zn185 1.949 . S
O186 Zn187 1.923 . S
O186 Zn188 1.950 . S
O186 Zn189 1.945 . S
Zn187 O186 1.923 . S
Zn187 O190 1.933 . S
Zn187 O193 1.941 . S
Zn187 O194 1.965 . S
Zn188 O186 1.950 . S
Zn188 O195 1.938 . S
Zn188 O196 1.906 . S
Zn188 O206 1.953 . S
Zn189 O186 1.945 . S
Zn189 O191 1.932 . S
Zn189 O198 1.977 . S
Zn189 O199 1.910 . S
O190 Zn187 1.933 . S
O190 C201 1.226 . S
O191 Zn189 1.932 . S
O191 C201 1.307 . S
O192 Zn185 1.919 . S
O192 C203 1.253 . S
O193 Zn187 1.941 . S
O193 C203 1.283 . S
O194 Zn187 1.965 . S
O194 C202 1.303 . S
O195 Zn188 1.938 . S
O195 C202 1.247 . S
O196 Zn188 1.906 . S
O196 C204 1.304 . S
O197 Zn185 1.924 . S
O197 C205 1.311 . S
O198 Zn189 1.977 . S
O198 C204 1.272 . S
O199 Zn189 1.910 . S
O199 C205 1.231 . S
C200 O184 1.225 . S
C200 O206 1.298 . S
C201 O190 1.226 . S
C201 O191 1.307 . S
C202 O194 1.303 . S
C202 O195 1.247 . S
C203 O192 1.253 . S
C203 O193 1.283 . S
C204 O196 1.304 . S
C204 O198 1.272 . S
C205 O197 1.311 . S
C205 O199 1.231 . S
O206 Zn188 1.953 . S
O206 C200 1.298 . S
O207 Zn208 1.953 . S
O207 C223 1.225 . S
Zn208 O207 1.953 . S
Zn208 O209 1.949 . S
Zn208 O215 1.919 . S
Zn208 O220 1.924 . S
O209 Zn208 1.949 . S
O209 Zn210 1.923 . S
O209 Zn211 1.950 . S
O209 Zn212 1.945 . S
Zn210 O209 1.923 . S
Zn210 O213 1.933 . S
Zn210 O216 1.941 . S
Zn210 O217 1.965 . S
Zn211 O209 1.950 . S
Zn211 O218 1.938 . S
Zn211 O219 1.906 . S
Zn211 O229 1.953 . S
Zn212 O209 1.945 . S
Zn212 O214 1.932 . S
Zn212 O221 1.977 . S
Zn212 O222 1.910 . S
O213 Zn210 1.933 . S
O213 C224 1.226 . S
O214 Zn212 1.932 . S
O214 C224 1.307 . S
O215 Zn208 1.919 . S
O215 C226 1.253 . S
O216 Zn210 1.941 . S
O216 C226 1.283 . S
O217 Zn210 1.965 . S
O217 C225 1.303 . S
O218 Zn211 1.938 . S
O218 C225 1.247 . S
O219 Zn211 1.906 . S
O219 C227 1.304 . S
O220 Zn208 1.924 . S
O220 C228 1.311 . S
O221 Zn212 1.977 . S
O221 C227 1.272 . S
O222 Zn212 1.910 . S
O222 C228 1.231 . S
C223 O207 1.225 . S
C223 O229 1.298 . S
C224 O213 1.226 . S
C224 O214 1.307 . S
C225 O217 1.303 . S
C225 O218 1.247 . S
C226 O215 1.253 . S
C226 O216 1.283 . S
C227 O219 1.304 . S
C227 O221 1.272 . S
C228 O220 1.311 . S
C228 O222 1.231 . S
O229 Zn211 1.953 . S
O229 C223 1.298 . S
O230 Zn231 1.953 . S
O230 C246 1.225 . S
Zn231 O230 1.953 . S
Zn231 O232 1.949 . S
Zn231 O238 1.919 . S
Zn231 O243 1.924 . S
O232 Zn231 1.949 . S
O232 Zn233 1.923 . S
O232 Zn234 1.950 . S
O232 Zn235 1.945 . S
Zn233 O232 1.923 . S
Zn233 O236 1.933 . S
Zn233 O239 1.941 . S
Zn233 O240 1.965 . S
Zn234 O232 1.950 . S
Zn234 O241 1.938 . S
Zn234 O242 1.906 . S
Zn234 O252 1.953 . S
Zn235 O232 1.945 . S
Zn235 O237 1.932 . S
Zn235 O244 1.977 . S
Zn235 O245 1.910 . S
O236 Zn233 1.933 . S
O236 C247 1.226 . S
O237 Zn235 1.932 . S
O237 C247 1.307 . S
O238 Zn231 1.919 . S
O238 C249 1.253 . S
O239 Zn233 1.941 . S
O239 C249 1.283 . S
O240 Zn233 1.965 . S
O240 C248 1.303 . S
O241 Zn234 1.938 . S
O241 C248 1.247 . S
O242 Zn234 1.906 . S
O242 C250 1.304 . S
O243 Zn231 1.924 . S
O243 C251 1.311 . S
O244 Zn235 1.977 . S
O244 C250 1.272 . S
O245 Zn235 1.910 . S
O245 C251 1.231 . S
C246 O230 1.225 . S
C246 O252 1.298 . S
C247 O236 1.226 . S
C247 O237 1.307 . S
C248 O240 1.303 . S
C248 O241 1.247 . S
C249 O238 1.253 . S
C249 O239 1.283 . S
C250 O242 1.304 . S
C250 O244 1.272 . S
C251 O243 1.311 . S
C251 O245 1.231 . S
O252 Zn234 1.953 . S
O252 C246 1.298 . S
O253 Zn254 1.953 . S
O253 C269 1.225 . S
Zn254 O253 1.953 . S
Zn254 O255 1.949 . S
Zn254 O261 1.919 . S
Zn254 O266 1.924 . S
O255 Zn254 1.949 . S
O255 Zn256 1.923 . S
O255 Zn257 1.950 . S
O255 Zn258 1.945 . S
Zn256 O255 1.923 . S
Zn256 O259 1.933 . S
Zn256 O262 1.941 . S
Zn256 O263 1.965 . S
Zn257 O255 1.950 . S
Zn257 O264 1.938 . S
Zn257 O265 1.906 . S
Zn257 O275 1.953 . S
Zn258 O255 1.945 . S
Zn258 O260 1.932 . S
Zn258 O267 1.977 . S
Zn258 O268 1.910 . S
O259 Zn256 1.933 . S
O259 C270 1.226 . S
O260 Zn258 1.932 . S
O260 C270 1.307 . S
O261 Zn254 1.919 . S
O261 C272 1.253 . S
O262 Zn256 1.941 . S
O262 C272 1.283 . S
O263 Zn256 1.965 . S
O263 C271 1.303 . S
O264 Zn257 1.938 . S
O264 C271 1.247 . S
O265 Zn257 1.906 . S
O265 C273 1.304 . S
O266 Zn254 1.924 . S
O266 C274 1.311 . S
O267 Zn258 1.977 . S
O267 C273 1.272 . S
O268 Zn258 1.910 . S
O268 C274 1.231 . S
C269 O253 1.225 . S
C269 O275 1.298 . S
C270 O259 1.226 . S
C270 O260 1.307 . S
C271 O263 1.303 . S
C271 O264 1.247 . S
C272 O261 1.253 . S
C272 O262 1.283 . S
C273 O265 1.304 . S
C273 O267 1.272 . S
C274 O266 1.311 . S
C274 O268 1.231 . S
O275 Zn257 1.953 . S
O275 C269 1.298 . S
O276 Zn277 1.953 . S
O276 C292 1.225 . S
Zn277 O276 1.953 . S
Zn277 O278 1.949 . S
Zn277 O284 1.919 . S
Zn277 O289 1.924 . S
O278 Zn277 1.949 . S
O278 Zn279 1.923 . S
O278 Zn280 1.950 . S
O278 Zn281 1.945 . S
Zn279 O278 1.923 . S
Zn279 O282 1.933 . S
Zn279 O285 1.941 . S
Zn279 O286 1.965 . S
Zn280 O278 1.950 . S
Zn280 O287 1.938 . S
Zn280 O288 1.906 . S
Zn280 O298 1.953 . S
Zn281 O278 1.945 . S
Zn281 O283 1.932 . S
Zn281 O290 1.977 . S
Zn281 O291 1.910 . S
O282 Zn279 1.933 . S
O282 C293 1.226 . S
O283 Zn281 1.932 . S
O283 C293 1.307 . S
O284 Zn277 1.919 . S
O284 C295 1.253 . S
O285 Zn279 1.941 . S
O285 C295 1.283 . S
O286 Zn279 1.965 . S
O286 C294 1.303 . S
O287 Zn280 1.938 . S
O287 C294 1.247 . S
O288 Zn280 1.906 . S
O288 C296 1.304 . S
O289 Zn277 1.924 . S
O289 C297 1.311 . S
O290 Zn281 1.977 . S
O290 C296 1.272 . S
O291 Zn281 1.910 . S
O291 C297 1.231 . S
C292 O276 1.225 . S
C292 O298 1.298 . S
C293 O282 1.226 . S
C293 O283 1.307 . S
C294 O286 1.303 . S
C294 O287 1.247 . S
C295 O284 1.253 . S
C295 O285 1.283 . S
C296 O288 1.304 . S
C296 O290 1.272 . S
C297 O289 1.311 . S
C297 O291 1.231 . S
O298 Zn280 1.953 . S
O298 C292 1.298 . S
O299 Zn300 1.953 . S
O299 C315 1.225 . S
Zn300 O299 1.953 . S
Zn300 O301 1.949 . S
Zn300 O307 1.919 . S
Zn300 O312 1.924 . S
O301 Zn300 1.949 . S
O301 Zn302 1.923 . S
O301 Zn303 1.950 . S
O301 Zn304 1.945 . S
Zn302 O301 1.923 . S
Zn302 O305 1.933 . S
Zn302 O308 1.941 . S
Zn302 O309 1.965 . S
Zn303 O301 1.950 . S
Zn303 O310 1.938 . S
Zn303 O311 1.906 . S
Zn303 O321 1.953 . S
Zn304 O301 1.945 . S
Zn304 O306 1.932 . S
Zn304 O313 1.977 . S
Zn304 O314 1.910 . S
O305 Zn302 1.933 . S
O305 C316 1.226 . S
O306 Zn304 1.932 . S
O306 C316 1.307 . S
O307 Zn300 1.919 . S
O307 C318 1.253 . S
O308 Zn302 1.941 . S
O308 C318 1.283 . S
O309 Zn302 1.965 . S
O309 C317 1.303 . S
O310 Zn303 1.938 . S
O310 C317 1.247 . S
O311 Zn303 1.906 . S
O311 C319 1.304 . S
O312 Zn300 1.924 . S
O312 C320 1.311 . S
O313 Zn304 1.977 . S
O313 C319 1.272 . S
O314 Zn304 1.910 . S
O314 C320 1.231 . S
C315 O299 1.225 . S
C315 O321 1.298 . S
C316 O305 1.226 . S
C316 O306 1.307 . S
C317 O309 1.303 . S
C317 O310 1.247 . S
C318 O307 1.253 . S
C318 O308 1.283 . S
C319 O311 1.304 . S
C319 O313 1.272 . S
C320 O312 1.311 . S
C320 O314 1.231 . S
O321 Zn303 1.953 . S
O321 C315 1.298 . S
O322 Zn323 1.953 . S
O322 C338 1.225 . S
Zn323 O322 1.953 . S
Zn323 O324 1.949 . S
Zn323 O330 1.919 . S
Zn323 O335 1.924 . S
O324 Zn323 1.949 . S
O324 Zn325 1.923 . S
O324 Zn326 1.950 . S
O324 Zn327 1.945 . S
Zn325 O324 1.923 . S
Zn325 O328 1.933 . S
Zn325 O331 1.941 . S
Zn325 O332 1.965 . S
Zn326 O324 1.950 . S
Zn326 O333 1.938 . S
Zn326 O334 1.906 . S
Zn326 O344 1.953 . S
Zn327 O324 1.945 . S
Zn327 O329 1.932 . S
Zn327 O336 1.977 . S
Zn327 O337 1.910 . S
O328 Zn325 1.933 . S
O328 C339 1.226 . S
O329 Zn327 1.932 . S
O329 C339 1.307 . S
O330 Zn323 1.919 . S
O330 C341 1.253 . S
O331 Zn325 1.941 . S
O331 C341 1.283 . S
O332 Zn325 1.965 . S
O332 C340 1.303 . S
O333 Zn326 1.938 . S
O333 C340 1.247 . S
O334 Zn326 1.906 . S
O334 C342 1.304 . S
O335 Zn323 1.924 . S
O335 C343 1.311 . S
O336 Zn327 1.977 . S
O336 C342 1.272 . S
O337 Zn327 1.910 . S
O337 C343 1.231 . S
C338 O322 1.225 . S
C338 O344 1.298 . S
C339 O328 1.226 . S
C339 O329 1.307 . S
C340 O332 1.303 . S
C340 O333 1.247 . S
C341 O330 1.253 . S
C341 O331 1.283 . S
C342 O334 1.304 . S
C342 O336 1.272 . S
C343 O335 1.311 . S
C343 O337 1.231 . S
O344 Zn326 1.953 . S
O344 C338 1.298 . S
O345 Zn346 1.953 . S
O345 C361 1.225 . S
Zn346 O345 1.953 . S
Zn346 O347 1.949 . S
Zn346 O353 1.919 . S
Zn346 O358 1.924 . S
O347 Zn346 1.949 . S
O347 Zn348 1.923 . S
O347 Zn349 1.950 . S
O347 Zn350 1.945 . S
Zn348 O347 1.923 . S
Zn348 O351 1.933 . S
Zn348 O354 1.941 . S
Zn348 O355 1.965 . S
Zn349 O347 1.950 . S
Zn349 O356 1.938 . S
Zn349 O357 1.906 . S
Zn349 O367 1.953 . S
Zn350 O347 1.945 . S
Zn350 O352 1.932 . S
Zn350 O359 1.977 . S
Zn350 O360 1.910 . S
O351 Zn348 1.933 . S
O351 C362 1.226 . S
O352 Zn350 1.932 . S
O352 C362 1.307 . S
O353 Zn346 1.919 . S
O353 C364 1.253 . S
O354 Zn348 1.941 . S
O354 C364 1.283 . S
O355 Zn348 1.965 . S
O355 C363 1.303 . S
O356 Zn349 1.938 . S
O356 C363 1.247 . S
O357 Zn349 1.906 . S
O357 C365 1.304 . S
O358 Zn346 1.924 . S
O358 C366 1.311 . S
O359 Zn350 1.977 . S
O359 C365 1.272 . S
O360 Zn350 1.910 . S
O360 C366 1.231 . S
C361 O345 1.225 . S
C361 O367 1.298 . S
C362 O351 1.226 . S
C362 O352 1.307 . S
C363 O355 1.303 . S
C363 O356 1.247 . S
C364 O353 1.253 . S
C364 O354 1.283 . S
C365 O357 1.304 . S
C365 O359 1.272 . S
C366 O358 1.311 . S
C366 O360 1.231 . S
O367 Zn349 1.953 . S
O367 C361 1.298 . S
C368 C369 1.349 . S
C368 C370 1.327 . S
C368 H393 0.950 . S
C369 C368 1.349 . S
C369 C385 1.349 . S
C370 C368 1.327 . S
C370 C389 1.429 . S
C370 H394 0.950 . S
C371 C388 1.574 1_565 S
C371 C390 1.368 . S
C371 H395 0.949 . S
H372 C376 0.949 . S
C373 C374 1.349 . S
C373 C375 1.327 . S
C373 H396 0.950 . S
C374 C373 1.349 . S
C374 C386 1.349 . S
C375 C373 1.327 . S
C375 C391 1.429 . S
C375 H397 0.950 . S
C376 H372 0.949 . S
C376 C384 1.574 1_545 S
C376 C392 1.368 . S
H377 C385 0.950 . S
H378 C383 0.950 . S
H379 C384 0.949 . S
H380 C386 0.950 . S
H381 C387 0.950 . S
H382 C388 0.949 . S
C383 H378 0.950 . S
C383 C385 1.327 . S
C383 C389 1.429 . S
C384 C376 1.574 1_565 S
C384 H379 0.949 . S
C384 C390 1.368 . S
C385 C369 1.349 . S
C385 H377 0.950 . S
C385 C383 1.327 . S
C386 C374 1.349 . S
C386 H380 0.950 . S
C386 C387 1.327 . S
C387 H381 0.950 . S
C387 C386 1.327 . S
C387 C391 1.429 . S
C388 C371 1.574 1_545 S
C388 H382 0.949 . S
C388 C392 1.368 . S
C389 C370 1.429 . S
C389 C383 1.429 . S
C389 C390 1.523 . S
C390 C371 1.368 . S
C390 C384 1.368 . S
C390 C389 1.523 . S
C391 C375 1.429 . S
C391 C387 1.429 . S
C391 C392 1.523 . S
C392 C376 1.368 . S
C392 C388 1.368 . S
C392 C391 1.523 . S
H393 C368 0.950 . S
H394 C370 0.950 . S
H395 C371 0.949 . S
H396 C373 0.950 . S
H397 C375 0.950 . S
C398 C399 1.349 . S
C398 C400 1.327 . S
C398 H423 0.950 . S
C399 C398 1.349 . S
C399 C415 1.349 . S
C400 C398 1.327 . S
C400 C419 1.429 . S
C400 H424 0.950 . S
C401 C418 1.574 1_655 S
C401 C420 1.368 . S
C401 H425 0.949 . S
H402 C406 0.932 1_455 S
C403 C404 1.349 . S
C403 C405 1.327 . S
C403 H426 0.950 . S
C404 C403 1.349 . S
C404 C416 1.349 . S
C405 C403 1.327 . S
C405 C421 1.429 . S
C405 H427 0.950 . S
C406 H402 0.932 1_655 S
C406 C414 1.640 . S
C406 C422 1.325 1_655 S
H407 C415 0.950 . S
H408 C413 0.950 . S
H409 C414 0.949 . S
H410 C416 0.950 . S
H411 C417 0.950 . S
H412 C418 0.949 . S
C413 H408 0.950 . S
C413 C415 1.327 . S
C413 C419 1.429 . S
C414 C406 1.640 . S
C414 H409 0.949 . S
C414 C420 1.368 . S
C415 C399 1.349 . S
C415 H407 0.950 . S
C415 C413 1.327 . S
C416 C404 1.349 . S
C416 H410 0.950 . S
C416 C417 1.327 . S
C417 H411 0.950 . S
C417 C416 1.327 . S
C417 C421 1.429 . S
C418 C401 1.574 1_455 S
C418 H412 0.949 . S
C418 C422 1.368 . S
C419 C400 1.429 . S
C419 C413 1.429 . S
C419 C420 1.523 . S
C420 C401 1.368 . S
C420 C414 1.368 . S
C420 C419 1.523 . S
C421 C405 1.429 . S
C421 C417 1.429 . S
C421 C422 1.523 . S
C422 C406 1.325 1_455 S
C422 C418 1.368 . S
C422 C421 1.523 . S
H423 C398 0.950 . S
H424 C400 0.950 . S
H425 C401 0.949 . S
H426 C403 0.950 . S
H427 C405 0.950 . S
C428 C429 1.349 . S
C428 C430 1.327 . S
C428 H453 0.950 . S
C429 C428 1.349 . S
C429 C445 1.349 . S
C430 C428 1.327 . S
C430 C449 1.429 . S
C430 H454 0.950 . S
C431 C448 1.574 1_565 S
C431 C450 1.368 . S
C431 H455 0.949 . S
H432 C436 0.949 . S
C433 C434 1.349 . S
C433 C435 1.327 . S
C433 H456 0.950 . S
C434 C433 1.349 . S
C434 C446 1.349 . S
C435 C433 1.327 . S
C435 C451 1.429 . S
C435 H457 0.950 . S
C436 H432 0.949 . S
C436 C444 1.574 1_545 S
C436 C452 1.368 . S
H437 C445 0.950 . S
H438 C443 0.950 . S
H439 C444 0.949 . S
H440 C446 0.950 . S
H441 C447 0.950 . S
H442 C448 0.949 . S
C443 H438 0.950 . S
C443 C445 1.327 . S
C443 C449 1.429 . S
C444 C436 1.574 1_565 S
C444 H439 0.949 . S
C444 C450 1.368 . S
C445 C429 1.349 . S
C445 H437 0.950 . S
C445 C443 1.327 . S
C446 C434 1.349 . S
C446 H440 0.950 . S
C446 C447 1.327 . S
C447 H441 0.950 . S
C447 C446 1.327 . S
C447 C451 1.429 . S
C448 C431 1.574 1_545 S
C448 H442 0.949 . S
C448 C452 1.368 . S
C449 C430 1.429 . S
C449 C443 1.429 . S
C449 C450 1.523 . S
C450 C431 1.368 . S
C450 C444 1.368 . S
C450 C449 1.523 . S
C451 C435 1.429 . S
C451 C447 1.429 . S
C451 C452 1.523 . S
C452 C436 1.368 . S
C452 C448 1.368 . S
C452 C451 1.523 . S
H453 C428 0.950 . S
H454 C430 0.950 . S
H455 C431 0.949 . S
H456 C433 0.950 . S
H457 C435 0.950 . S
C458 C459 1.349 . S
C458 C460 1.327 . S
C458 H483 0.950 . S
C459 C458 1.349 . S
C459 C475 1.349 . S
C460 C458 1.327 . S
C460 C479 1.429 . S
C460 H484 0.950 . S
C461 C478 1.574 1_655 S
C461 C480 1.368 . S
C461 H485 0.949 . S
H462 C466 0.949 . S
C463 C464 1.349 . S
C463 C465 1.327 . S
C463 H486 0.950 . S
C464 C463 1.349 . S
C464 C476 1.349 . S
C465 C463 1.327 . S
C465 C481 1.429 . S
C465 H487 0.950 . S
C466 H462 0.949 . S
C466 C474 1.574 1_455 S
C466 C482 1.368 . S
H467 C475 0.950 . S
H468 C473 0.950 . S
H469 C474 0.949 . S
H470 C476 0.950 . S
H471 C477 0.950 . S
H472 C478 0.949 . S
C473 H468 0.950 . S
C473 C475 1.327 . S
C473 C479 1.429 . S
C474 C466 1.574 1_655 S
C474 H469 0.949 . S
C474 C480 1.368 . S
C475 C459 1.349 . S
C475 H467 0.950 . S
C475 C473 1.327 . S
C476 C464 1.349 . S
C476 H470 0.950 . S
C476 C477 1.327 . S
C477 H471 0.950 . S
C477 C476 1.327 . S
C477 C481 1.429 . S
C478 C461 1.574 1_455 S
C478 H472 0.949 . S
C478 C482 1.368 . S
C479 C460 1.429 . S
C479 C473 1.429 . S
C479 C480 1.523 . S
C480 C461 1.368 . S
C480 C474 1.368 . S
C480 C479 1.523 . S
C481 C465 1.429 . S
C481 C477 1.429 . S
C481 C482 1.523 . S
C482 C466 1.368 . S
C482 C478 1.368 . S
C482 C481 1.523 . S
H483 C458 0.950 . S
H484 C460 0.950 . S
H485 C461 0.949 . S
H486 C463 0.950 . S
H487 C465 0.950 . S
C488 C489 1.349 . S
C488 C490 1.327 . S
C488 H513 0.950 . S
C489 C488 1.349 . S
C489 C505 1.349 1_554 S
C490 C488 1.327 . S
C490 C509 1.429 . S
C490 H514 0.950 . S
C491 C508 1.574 . S
C491 C510 1.368 . S
C491 H515 0.949 . S
H492 C496 0.949 . S
C493 C494 1.349 . S
C493 C495 1.327 . S
C493 H516 0.950 . S
C494 C493 1.349 . S
C494 C506 1.349 . S
C495 C493 1.327 . S
C495 C511 1.429 . S
C495 H517 0.950 . S
C496 H492 0.949 . S
C496 C504 1.574 . S
C496 C512 1.368 1_554 S
H497 C505 0.950 . S
H498 C503 0.950 . S
H499 C504 0.949 . S
H500 C506 0.950 . S
H501 C507 0.950 1_554 S
H502 C508 0.949 . S
C503 H498 0.950 . S
C503 C505 1.327 . S
C503 C509 1.429 1_556 S
C504 C496 1.574 . S
C504 H499 0.949 . S
C504 C510 1.368 1_554 S
C505 C489 1.349 1_556 S
C505 H497 0.950 . S
C505 C503 1.327 . S
C506 C494 1.349 . S
C506 H500 0.950 . S
C506 C507 1.327 . S
C507 H501 0.950 1_556 S
C507 C506 1.327 . S
C507 C511 1.429 . S
C508 C491 1.574 . S
C508 H502 0.949 . S
C508 C512 1.368 . S
C509 C490 1.429 . S
C509 C503 1.429 1_554 S
C509 C510 1.523 1_554 S
C510 C491 1.368 . S
C510 C504 1.368 1_556 S
C510 C509 1.523 1_556 S
C511 C495 1.429 . S
C511 C507 1.429 . S
C511 C512 1.523 . S
C512 C496 1.368 1_556 S
C512 C508 1.368 . S
C512 C511 1.523 . S
H513 C488 0.950 . S
H514 C490 0.950 . S
H515 C491 0.949 . S
H516 C493 0.950 . S
H517 C495 0.950 . S
C518 C519 1.349 . S
C518 C520 1.327 . S
C518 H543 0.950 . S
C519 C518 1.349 . S
C519 C535 1.349 . S
C520 C518 1.327 . S
C520 C539 1.429 . S
C520 H544 0.950 . S
C521 C538 1.574 . S
C521 C540 1.368 . S
C521 H545 0.949 . S
H522 C526 0.949 . S
C523 C524 1.349 . S
C523 C525 1.327 . S
C523 H546 0.950 . S
C524 C523 1.349 . S
C524 C536 1.349 . S
C525 C523 1.327 . S
C525 C541 1.429 . S
C525 H547 0.950 1_556 S
C526 H522 0.949 . S
C526 C534 1.574 1_556 S
C526 C542 1.368 . S
H527 C535 0.950 . S
H528 C533 0.950 . S
H529 C534 0.949 1_556 S
H530 C536 0.950 . S
H531 C537 0.950 . S
H532 C538 0.949 . S
C533 H528 0.950 . S
C533 C535 1.327 . S
C533 C539 1.429 . S
C534 C526 1.574 1_554 S
C534 H529 0.949 1_554 S
C534 C540 1.368 . S
C535 C519 1.349 . S
C535 H527 0.950 . S
C535 C533 1.327 . S
C536 C524 1.349 . S
C536 H530 0.950 . S
C536 C537 1.327 . S
C537 H531 0.950 . S
C537 C536 1.327 . S
C537 C541 1.429 . S
C538 C521 1.574 . S
C538 H532 0.949 . S
C538 C542 1.368 1_554 S
C539 C520 1.429 . S
C539 C533 1.429 . S
C539 C540 1.523 . S
C540 C521 1.368 . S
C540 C534 1.368 . S
C540 C539 1.523 . S
C541 C525 1.429 . S
C541 C537 1.429 . S
C541 C542 1.523 . S
C542 C526 1.368 . S
C542 C538 1.368 1_556 S
C542 C541 1.523 . S
H543 C518 0.950 . S
H544 C520 0.950 . S
H545 C521 0.949 . S
H546 C523 0.950 . S
H547 C525 0.950 1_554 S
C548 C549 1.349 . S
C548 C550 1.327 . S
C548 H573 0.950 . S
C549 C548 1.349 . S
C549 C565 1.349 . S
C550 C548 1.327 . S
C550 C569 1.429 . S
C550 H574 0.950 1_554 S
C551 C568 1.574 1_554 S
C551 C570 1.368 1_554 S
C551 H575 0.949 . S
H552 C556 0.949 . S
C553 C554 1.349 . S
C553 C555 1.327 . S
C553 H576 0.950 . S
C554 C553 1.349 . S
C554 C566 1.349 . S
C555 C553 1.327 . S
C555 C571 1.429 . S
C555 H577 0.950 . S
C556 H552 0.949 . S
C556 C564 1.574 . S
C556 C572 1.368 . S
H557 C565 0.950 . S
H558 C563 0.950 . S
H559 C564 0.949 . S
H560 C566 0.950 . S
H561 C567 0.950 . S
H562 C568 0.949 . S
C563 H558 0.950 . S
C563 C565 1.327 . S
C563 C569 1.429 . S
C564 C556 1.574 . S
C564 H559 0.949 . S
C564 C570 1.368 . S
C565 C549 1.349 . S
C565 H557 0.950 . S
C565 C563 1.327 . S
C566 C554 1.349 . S
C566 H560 0.950 . S
C566 C567 1.327 . S
C567 H561 0.950 . S
C567 C566 1.327 . S
C567 C571 1.429 . S
C568 C551 1.574 1_556 S
C568 H562 0.949 . S
C568 C572 1.368 . S
C569 C550 1.429 . S
C569 C563 1.429 . S
C569 C570 1.523 1_554 S
C570 C551 1.368 1_556 S
C570 C564 1.368 . S
C570 C569 1.523 1_556 S
C571 C555 1.429 . S
C571 C567 1.429 . S
C571 C572 1.523 . S
C572 C556 1.368 . S
C572 C568 1.368 . S
C572 C571 1.523 . S
H573 C548 0.950 . S
H574 C550 0.950 1_556 S
H575 C551 0.949 . S
H576 C553 0.950 . S
H577 C555 0.950 . S
C578 C579 1.349 . S
C578 C580 1.327 . S
C578 H603 0.950 . S
C579 C578 1.349 . S
C579 C595 1.349 . S
C580 C578 1.327 . S
C580 C599 1.429 . S
C580 H604 0.950 . S
C581 C598 1.577 . S
C581 C600 1.362 1_556 S
C581 H605 0.952 . S
H582 C586 0.949 . S
C583 C584 1.349 . S
C583 C585 1.327 . S
C583 H606 0.950 . S
C584 C583 1.349 . S
C584 C596 1.349 . S
C585 C583 1.327 . S
C585 C601 1.429 . S
C585 H607 0.950 . S
C586 H582 0.949 . S
C586 C594 1.574 . S
C586 C602 1.368 1_554 S
H587 C595 0.950 . S
H588 C593 0.950 . S
H589 C594 0.949 . S
H590 C596 0.950 . S
H591 C597 0.950 1_554 S
H592 C598 0.949 . S
C593 H588 0.950 . S
C593 C595 1.327 . S
C593 C599 1.429 . S
C594 C586 1.574 . S
C594 H589 0.949 . S
C594 C600 1.368 . S
C595 C579 1.349 . S
C595 H587 0.950 . S
C595 C593 1.327 . S
C596 C584 1.349 . S
C596 H590 0.950 . S
C596 C597 1.327 . S
C597 H591 0.950 1_556 S
C597 C596 1.327 . S
C597 C601 1.429 . S
C598 C581 1.577 . S
C598 H592 0.949 . S
C598 C602 1.368 . S
C599 C580 1.429 . S
C599 C593 1.429 . S
C599 C600 1.523 . S
C600 C581 1.362 1_554 S
C600 C594 1.368 . S
C600 C599 1.523 . S
C601 C585 1.429 . S
C601 C597 1.429 . S
C601 C602 1.523 . S
C602 C586 1.368 1_556 S
C602 C598 1.368 . S
C602 C601 1.523 . S
H603 C578 0.950 . S
H604 C580 0.950 . S
H605 C581 0.952 . S
H606 C583 0.950 . S
H607 C585 0.950 . S
C608 C609 1.349 . S
C608 C610 1.327 . S
C608 H633 0.950 . S
C609 C608 1.349 . S
C609 C625 1.349 . S
C610 C608 1.327 . S
C610 C629 1.429 . S
C610 H634 0.950 . S
C611 C628 1.574 . S
C611 C630 1.368 . S
C611 H635 0.949 . S
H612 C616 0.949 . S
C613 C614 1.349 . S
C613 C615 1.327 . S
C613 H636 0.950 . S
C614 C613 1.349 . S
C614 C626 1.349 . S
C615 C613 1.327 . S
C615 C631 1.429 . S
C615 H637 0.950 . S
C616 H612 0.949 . S
C616 C624 1.574 . S
C616 C632 1.368 . S
H617 C625 0.950 . S
H618 C623 0.950 . S
H619 C624 0.949 . S
H620 C626 0.950 . S
H621 C627 0.950 . S
H622 C628 0.949 . S
C623 H618 0.950 . S
C623 C625 1.327 . S
C623 C629 1.429 . S
C624 C616 1.574 . S
C624 H619 0.949 . S
C624 C630 1.368 . S
C625 C609 1.349 . S
C625 H617 0.950 . S
C625 C623 1.327 . S
C626 C614 1.349 . S
C626 H620 0.950 . S
C626 C627 1.327 . S
C627 H621 0.950 . S
C627 C626 1.327 . S
C627 C631 1.429 . S
C628 C611 1.574 . S
C628 H622 0.949 . S
C628 C632 1.368 . S
C629 C610 1.429 . S
C629 C623 1.429 . S
C629 C630 1.523 . S
C630 C611 1.368 . S
C630 C624 1.368 . S
C630 C629 1.523 . S
C631 C615 1.429 . S
C631 C627 1.429 . S
C631 C632 1.523 . S
C632 C616 1.368 . S
C632 C628 1.368 . S
C632 C631 1.523 . S
H633 C608 0.950 . S
H634 C610 0.950 . S
H635 C611 0.949 . S
H636 C613 0.950 . S
H637 C615 0.950 . S
C638 C639 1.349 . S
C638 C640 1.327 . S
C638 H663 0.950 . S
C639 C638 1.349 . S
C639 C655 1.349 . S
C640 C638 1.327 . S
C640 C659 1.429 . S
C640 H664 0.950 . S
C641 C658 1.574 . S
C641 C660 1.368 . S
C641 H665 0.949 . S
H642 C646 0.949 . S
C643 C644 1.349 . S
C643 C645 1.327 . S
C643 H666 0.950 . S
C644 C643 1.349 . S
C644 C656 1.349 . S
C645 C643 1.327 . S
C645 C661 1.429 . S
C645 H667 0.950 . S
C646 H642 0.949 . S
C646 C654 1.574 . S
C646 C662 1.368 . S
H647 C655 0.950 . S
H648 C653 0.950 . S
H649 C654 0.949 . S
H650 C656 0.950 . S
H651 C657 0.950 . S
H652 C658 0.949 . S
C653 H648 0.950 . S
C653 C655 1.327 . S
C653 C659 1.429 . S
C654 C646 1.574 . S
C654 H649 0.949 . S
C654 C660 1.368 . S
C655 C639 1.349 . S
C655 H647 0.950 . S
C655 C653 1.327 . S
C656 C644 1.349 . S
C656 H650 0.950 . S
C656 C657 1.327 . S
C657 H651 0.950 . S
C657 C656 1.327 . S
C657 C661 1.429 . S
C658 C641 1.574 . S
C658 H652 0.949 . S
C658 C662 1.368 . S
C659 C640 1.429 . S
C659 C653 1.429 . S
C659 C660 1.523 . S
C660 C641 1.368 . S
C660 C654 1.368 . S
C660 C659 1.523 . S
C661 C645 1.429 . S
C661 C657 1.429 . S
C661 C662 1.523 . S
C662 C646 1.368 . S
C662 C658 1.368 . S
C662 C661 1.523 . S
H663 C638 0.950 . S
H664 C640 0.950 . S
H665 C641 0.949 . S
H666 C643 0.950 . S
H667 C645 0.950 . S
C668 C669 1.349 . S
C668 C670 1.327 . S
C668 H693 0.950 . S
C669 C668 1.349 . S
C669 C685 1.349 . S
C670 C668 1.327 . S
C670 C689 1.429 . S
C670 H694 0.950 . S
C671 C688 1.574 . S
C671 C690 1.368 . S
C671 H695 0.949 . S
H672 C676 0.949 . S
C673 C674 1.349 . S
C673 C675 1.327 . S
C673 H696 0.950 . S
C674 C673 1.349 . S
C674 C686 1.349 . S
C675 C673 1.327 . S
C675 C691 1.429 . S
C675 H697 0.950 . S
C676 H672 0.949 . S
C676 C684 1.574 . S
C676 C692 1.368 . S
H677 C685 0.950 . S
H678 C683 0.950 . S
H679 C684 0.949 . S
H680 C686 0.950 . S
H681 C687 0.950 . S
H682 C688 0.949 . S
C683 H678 0.950 . S
C683 C685 1.327 . S
C683 C689 1.429 . S
C684 C676 1.574 . S
C684 H679 0.949 . S
C684 C690 1.368 . S
C685 C669 1.349 . S
C685 H677 0.950 . S
C685 C683 1.327 . S
C686 C674 1.349 . S
C686 H680 0.950 . S
C686 C687 1.327 . S
C687 H681 0.950 . S
C687 C686 1.327 . S
C687 C691 1.429 . S
C688 C671 1.574 . S
C688 H682 0.949 . S
C688 C692 1.368 . S
C689 C670 1.429 . S
C689 C683 1.429 . S
C689 C690 1.523 . S
C690 C671 1.368 . S
C690 C684 1.368 . S
C690 C689 1.523 . S
C691 C675 1.429 . S
C691 C687 1.429 . S
C691 C692 1.523 . S
C692 C676 1.368 . S
C692 C688 1.368 . S
C692 C691 1.523 . S
H693 C668 0.950 . S
H694 C670 0.950 . S
H695 C671 0.949 . S
H696 C673 0.950 . S
H697 C675 0.950 . S
C698 C699 1.349 . S
C698 C700 1.327 . S
C698 H723 0.950 . S
C699 C698 1.349 . S
C699 C715 1.349 . S
C700 C698 1.327 . S
C700 C719 1.429 . S
C700 H724 0.950 . S
C701 C718 1.574 . S
C701 C720 1.368 . S
C701 H725 0.949 . S
H702 C706 0.949 . S
C703 C704 1.349 . S
C703 C705 1.327 . S
C703 H726 0.950 . S
C704 C703 1.349 . S
C704 C716 1.349 . S
C705 C703 1.327 . S
C705 C721 1.429 . S
C705 H727 0.950 . S
C706 H702 0.949 . S
C706 C714 1.574 . S
C706 C722 1.368 . S
H707 C715 0.950 . S
H708 C713 0.950 . S
H709 C714 0.949 . S
H710 C716 0.950 . S
H711 C717 0.950 . S
H712 C718 0.949 . S
C713 H708 0.950 . S
C713 C715 1.327 . S
C713 C719 1.429 . S
C714 C706 1.574 . S
C714 H709 0.949 . S
C714 C720 1.368 . S
C715 C699 1.349 . S
C715 H707 0.950 . S
C715 C713 1.327 . S
C716 C704 1.349 . S
C716 H710 0.950 . S
C716 C717 1.327 . S
C717 H711 0.950 . S
C717 C716 1.327 . S
C717 C721 1.429 . S
C718 C701 1.574 . S
C718 H712 0.949 . S
C718 C722 1.368 . S
C719 C700 1.429 . S
C719 C713 1.429 . S
C719 C720 1.523 . S
C720 C701 1.368 . S
C720 C714 1.368 . S
C720 C719 1.523 . S
C721 C705 1.429 . S
C721 C717 1.429 . S
C721 C722 1.523 . S
C722 C706 1.368 . S
C722 C718 1.368 . S
C722 C721 1.523 . S
H723 C698 0.950 . S
H724 C700 0.950 . S
H725 C701 0.949 . S
H726 C703 0.950 . S
H727 C705 0.950 . S
C728 C729 1.349 . S
C728 C730 1.327 . S
C728 H753 0.950 . S
C729 C728 1.349 . S
C729 C745 1.349 . S
C730 C728 1.327 . S
C730 C749 1.429 . S
C730 H754 0.950 . S
C731 C748 1.574 1_565 S
C731 C750 1.368 . S
C731 H755 0.949 . S
H732 C736 0.949 . S
C733 C734 1.349 . S
C733 C735 1.327 . S
C733 H756 0.950 . S
C734 C733 1.349 . S
C734 C746 1.349 . S
C735 C733 1.327 . S
C735 C751 1.429 . S
C735 H757 0.950 . S
C736 H732 0.949 . S
C736 C744 1.574 1_545 S
C736 C752 1.368 . S
H737 C745 0.950 . S
H738 C743 0.950 . S
H739 C744 0.949 . S
H740 C746 0.950 . S
H741 C747 0.950 . S
H742 C748 0.949 . S
C743 H738 0.950 . S
C743 C745 1.327 . S
C743 C749 1.429 . S
C744 C736 1.574 1_565 S
C744 H739 0.949 . S
C744 C750 1.368 . S
C745 C729 1.349 . S
C745 H737 0.950 . S
C745 C743 1.327 . S
C746 C734 1.349 . S
C746 H740 0.950 . S
C746 C747 1.327 . S
C747 H741 0.950 . S
C747 C746 1.327 . S
C747 C751 1.429 . S
C748 C731 1.574 1_545 S
C748 H742 0.949 . S
C748 C752 1.368 . S
C749 C730 1.429 . S
C749 C743 1.429 . S
C749 C750 1.523 . S
C750 C731 1.368 . S
C750 C744 1.368 . S
C750 C749 1.523 . S
C751 C735 1.429 . S
C751 C747 1.429 . S
C751 C752 1.523 . S
C752 C736 1.368 . S
C752 C748 1.368 . S
C752 C751 1.523 . S
H753 C728 0.950 . S
H754 C730 0.950 . S
H755 C731 0.949 . S
H756 C733 0.950 . S
H757 C735 0.950 . S
C758 C759 1.349 . S
C758 C760 1.327 . S
C758 H783 0.950 . S
C759 C758 1.349 . S
C759 C775 1.349 . S
C760 C758 1.327 . S
C760 C779 1.429 . S
C760 H784 0.950 . S
C761 C778 1.574 1_455 S
C761 C780 1.368 . S
C761 H785 0.949 . S
H762 C766 0.977 . S
C763 C764 1.349 . S
C763 C765 1.327 . S
C763 H786 0.950 . S
C764 C763 1.349 . S
C764 C776 1.349 . S
C765 C763 1.327 . S
C765 C781 1.429 . S
C765 H787 0.950 . S
C766 H762 0.977 . S
C766 C774 1.509 1_655 S
C766 C782 1.405 . S
H767 C775 0.950 . S
H768 C773 0.950 . S
H769 C774 0.949 . S
H770 C776 0.950 . S
H771 C777 0.950 . S
H772 C778 0.949 . S
C773 H768 0.950 . S
C773 C775 1.327 . S
C773 C779 1.429 . S
C774 C766 1.509 1_455 S
C774 H769 0.949 . S
C774 C780 1.368 . S
C775 C759 1.349 . S
C775 H767 0.950 . S
C775 C773 1.327 . S
C776 C764 1.349 . S
C776 H770 0.950 . S
C776 C777 1.327 . S
C777 H771 0.950 . S
C777 C776 1.327 . S
C777 C781 1.429 . S
C778 C761 1.574 1_655 S
C778 H772 0.949 . S
C778 C782 1.368 . S
C779 C760 1.429 . S
C779 C773 1.429 . S
C779 C780 1.523 . S
C780 C761 1.368 . S
C780 C774 1.368 . S
C780 C779 1.523 . S
C781 C765 1.429 . S
C781 C777 1.429 . S
C781 C782 1.523 . S
C782 C766 1.405 . S
C782 C778 1.368 . S
C782 C781 1.523 . S
H783 C758 0.950 . S
H784 C760 0.950 . S
H785 C761 0.949 . S
H786 C763 0.950 . S
H787 C765 0.950 . S
C788 C789 1.349 . S
C788 C790 1.327 . S
C788 H813 0.950 . S
C789 C788 1.349 . S
C789 C805 1.349 . S
C790 C788 1.327 . S
C790 C809 1.429 . S
C790 H814 0.950 . S
C791 C808 1.574 1_565 S
C791 C810 1.368 . S
C791 H815 0.949 . S
H792 C796 0.949 . S
C793 C794 1.349 . S
C793 C795 1.327 . S
C793 H816 0.950 . S
C794 C793 1.349 . S
C794 C806 1.349 . S
C795 C793 1.327 . S
C795 C811 1.429 . S
C795 H817 0.950 . S
C796 H792 0.949 . S
C796 C804 1.574 1_545 S
C796 C812 1.368 . S
H797 C805 0.950 . S
H798 C803 0.950 . S
H799 C804 0.949 . S
H800 C806 0.950 . S
H801 C807 0.950 . S
H802 C808 0.949 . S
C803 H798 0.950 . S
C803 C805 1.327 . S
C803 C809 1.429 . S
C804 C796 1.574 1_565 S
C804 H799 0.949 . S
C804 C810 1.368 . S
C805 C789 1.349 . S
C805 H797 0.950 . S
C805 C803 1.327 . S
C806 C794 1.349 . S
C806 H800 0.950 . S
C806 C807 1.327 . S
C807 H801 0.950 . S
C807 C806 1.327 . S
C807 C811 1.429 . S
C808 C791 1.574 1_545 S
C808 H802 0.949 . S
C808 C812 1.368 . S
C809 C790 1.429 . S
C809 C803 1.429 . S
C809 C810 1.523 . S
C810 C791 1.368 . S
C810 C804 1.368 . S
C810 C809 1.523 . S
C811 C795 1.429 . S
C811 C807 1.429 . S
C811 C812 1.523 . S
C812 C796 1.368 . S
C812 C808 1.368 . S
C812 C811 1.523 . S
H813 C788 0.950 . S
H814 C790 0.950 . S
H815 C791 0.949 . S
H816 C793 0.950 . S
H817 C795 0.950 . S
C818 C819 1.349 . S
C818 C820 1.327 . S
C818 H843 0.950 . S
C819 C818 1.349 . S
C819 C835 1.349 . S
C820 C818 1.327 . S
C820 C839 1.429 . S
C820 H844 0.950 . S
C821 C838 1.626 . S
C821 C840 1.334 1_655 S
C821 H845 0.934 1_655 S
H822 C826 0.949 . S
C823 C824 1.349 . S
C823 C825 1.327 . S
C823 H846 0.950 . S
C824 C823 1.349 . S
C824 C836 1.349 . S
C825 C823 1.327 . S
C825 C841 1.429 . S
C825 H847 0.950 . S
C826 H822 0.949 . S
C826 C834 1.574 1_655 S
C826 C842 1.368 . S
H827 C835 0.950 . S
H828 C833 0.950 . S
H829 C834 0.949 . S
H830 C836 0.950 . S
H831 C837 0.950 . S
H832 C838 0.949 . S
C833 H828 0.950 . S
C833 C835 1.327 . S
C833 C839 1.429 . S
C834 C826 1.574 1_455 S
C834 H829 0.949 . S
C834 C840 1.368 . S
C835 C819 1.349 . S
C835 H827 0.950 . S
C835 C833 1.327 . S
C836 C824 1.349 . S
C836 H830 0.950 . S
C836 C837 1.327 . S
C837 H831 0.950 . S
C837 C836 1.327 . S
C837 C841 1.429 . S
C838 C821 1.626 . S
C838 H832 0.949 . S
C838 C842 1.368 . S
C839 C820 1.429 . S
C839 C833 1.429 . S
C839 C840 1.523 . S
C840 C821 1.334 1_455 S
C840 C834 1.368 . S
C840 C839 1.523 . S
C841 C825 1.429 . S
C841 C837 1.429 . S
C841 C842 1.523 . S
C842 C826 1.368 . S
C842 C838 1.368 . S
C842 C841 1.523 . S
H843 C818 0.950 . S
H844 C820 0.950 . S
H845 C821 0.934 1_455 S
H846 C823 0.950 . S
H847 C825 0.950 . S
C848 C849 1.349 . S
C848 C850 1.327 . S
C848 H873 0.950 . S
C849 C848 1.349 . S
C849 C865 1.349 . S
C850 C848 1.327 . S
C850 C869 1.429 . S
C850 H874 0.950 . S
C851 C868 1.574 . S
C851 C870 1.368 . S
C851 H875 0.949 . S
H852 C856 0.949 . S
C853 C854 1.349 . S
C853 C855 1.327 . S
C853 H876 0.950 . S
C854 C853 1.349 . S
C854 C866 1.349 . S
C855 C853 1.327 . S
C855 C871 1.429 . S
C855 H877 0.950 . S
C856 H852 0.949 . S
C856 C864 1.574 . S
C856 C872 1.368 . S
H857 C865 0.950 . S
H858 C863 0.950 . S
H859 C864 0.949 . S
H860 C866 0.950 . S
H861 C867 0.950 . S
H862 C868 0.949 . S
C863 H858 0.950 . S
C863 C865 1.327 . S
C863 C869 1.429 . S
C864 C856 1.574 . S
C864 H859 0.949 . S
C864 C870 1.368 . S
C865 C849 1.349 . S
C865 H857 0.950 . S
C865 C863 1.327 . S
C866 C854 1.349 . S
C866 H860 0.950 . S
C866 C867 1.327 . S
C867 H861 0.950 . S
C867 C866 1.327 . S
C867 C871 1.429 . S
C868 C851 1.574 . S
C868 H862 0.949 . S
C868 C872 1.368 . S
C869 C850 1.429 . S
C869 C863 1.429 . S
C869 C870 1.523 . S
C870 C851 1.368 . S
C870 C864 1.368 . S
C870 C869 1.523 . S
C871 C855 1.429 . S
C871 C867 1.429 . S
C871 C872 1.523 . S
C872 C856 1.368 . S
C872 C868 1.368 . S
C872 C871 1.523 . S
H873 C848 0.950 . S
H874 C850 0.950 . S
H875 C851 0.949 . S
H876 C853 0.950 . S
H877 C855 0.950 . S
C878 C879 1.349 . S
C878 C880 1.327 . S
C878 H903 0.950 . S
C879 C878 1.349 . S
C879 C895 1.349 . S
C880 C878 1.327 . S
C880 C899 1.429 . S
C880 H904 0.950 . S
C881 C898 1.574 . S
C881 C900 1.368 . S
C881 H905 0.949 . S
H882 C886 0.949 . S
C883 C884 1.349 . S
C883 C885 1.327 . S
C883 H906 0.950 . S
C884 C883 1.349 . S
C884 C896 1.349 . S
C885 C883 1.327 . S
C885 C901 1.429 . S
C885 H907 0.950 . S
C886 H882 0.949 . S
C886 C894 1.574 . S
C886 C902 1.368 . S
H887 C895 0.950 . S
H888 C893 0.950 . S
H889 C894 0.949 . S
H890 C896 0.950 . S
H891 C897 0.950 . S
H892 C898 0.949 . S
C893 H888 0.950 . S
C893 C895 1.327 . S
C893 C899 1.429 . S
C894 C886 1.574 . S
C894 H889 0.949 . S
C894 C900 1.368 . S
C895 C879 1.349 . S
C895 H887 0.950 . S
C895 C893 1.327 . S
C896 C884 1.349 . S
C896 H890 0.950 . S
C896 C897 1.327 . S
C897 H891 0.950 . S
C897 C896 1.327 . S
C897 C901 1.429 . S
C898 C881 1.574 . S
C898 H892 0.949 . S
C898 C902 1.368 . S
C899 C880 1.429 . S
C899 C893 1.429 . S
C899 C900 1.523 . S
C900 C881 1.368 . S
C900 C894 1.368 . S
C900 C899 1.523 . S
C901 C885 1.429 . S
C901 C897 1.429 . S
C901 C902 1.523 . S
C902 C886 1.368 . S
C902 C898 1.368 . S
C902 C901 1.523 . S
H903 C878 0.950 . S
H904 C880 0.950 . S
H905 C881 0.949 . S
H906 C883 0.950 . S
H907 C885 0.950 . S
C908 C909 1.349 . S
C908 C910 1.327 . S
C908 H933 0.950 . S
C909 C908 1.349 . S
C909 C925 1.349 . S
C910 C908 1.327 . S
C910 C929 1.429 . S
C910 H934 0.950 . S
C911 C928 1.574 . S
C911 C930 1.368 . S
C911 H935 0.949 . S
H912 C916 0.949 . S
C913 C914 1.349 . S
C913 C915 1.327 . S
C913 H936 0.950 . S
C914 C913 1.349 . S
C914 C926 1.349 . S
C915 C913 1.327 . S
C915 C931 1.429 . S
C915 H937 0.950 . S
C916 H912 0.949 . S
C916 C924 1.574 . S
C916 C932 1.368 . S
H917 C925 0.950 . S
H918 C923 0.950 . S
H919 C924 0.949 . S
H920 C926 0.950 . S
H921 C927 0.950 . S
H922 C928 0.949 . S
C923 H918 0.950 . S
C923 C925 1.327 . S
C923 C929 1.429 . S
C924 C916 1.574 . S
C924 H919 0.949 . S
C924 C930 1.368 . S
C925 C909 1.349 . S
C925 H917 0.950 . S
C925 C923 1.327 . S
C926 C914 1.349 . S
C926 H920 0.950 . S
C926 C927 1.327 . S
C927 H921 0.950 . S
C927 C926 1.327 . S
C927 C931 1.429 . S
C928 C911 1.574 . S
C928 H922 0.949 . S
C928 C932 1.368 . S
C929 C910 1.429 . S
C929 C923 1.429 . S
C929 C930 1.523 . S
C930 C911 1.368 . S
C930 C924 1.368 . S
C930 C929 1.523 . S
C931 C915 1.429 . S
C931 C927 1.429 . S
C931 C932 1.523 . S
C932 C916 1.368 . S
C932 C928 1.368 . S
C932 C931 1.523 . S
H933 C908 0.950 . S
H934 C910 0.950 . S
H935 C911 0.949 . S
H936 C913 0.950 . S
H937 C915 0.950 . S
C938 C939 1.349 . S
C938 C940 1.327 . S
C938 H963 0.950 . S
C939 C938 1.349 . S
C939 C955 1.349 . S
C940 C938 1.327 . S
C940 C959 1.429 . S
C940 H964 0.950 . S
C941 C958 1.574 . S
C941 C960 1.368 . S
C941 H965 0.949 . S
H942 C946 0.949 . S
C943 C944 1.349 . S
C943 C945 1.327 . S
C943 H966 0.950 . S
C944 C943 1.349 . S
C944 C956 1.349 . S
C945 C943 1.327 . S
C945 C961 1.429 . S
C945 H967 0.950 . S
C946 H942 0.949 . S
C946 C954 1.574 . S
C946 C962 1.368 . S
H947 C955 0.950 . S
H948 C953 0.950 . S
H949 C954 0.949 . S
H950 C956 0.950 . S
H951 C957 0.950 . S
H952 C958 0.949 . S
C953 H948 0.950 . S
C953 C955 1.327 . S
C953 C959 1.429 . S
C954 C946 1.574 . S
C954 H949 0.949 . S
C954 C960 1.368 . S
C955 C939 1.349 . S
C955 H947 0.950 . S
C955 C953 1.327 . S
C956 C944 1.349 . S
C956 H950 0.950 . S
C956 C957 1.327 . S
C957 H951 0.950 . S
C957 C956 1.327 . S
C957 C961 1.429 . S
C958 C941 1.574 . S
C958 H952 0.949 . S
C958 C962 1.368 . S
C959 C940 1.429 . S
C959 C953 1.429 . S
C959 C960 1.523 . S
C960 C941 1.368 . S
C960 C954 1.368 . S
C960 C959 1.523 . S
C961 C945 1.429 . S
C961 C957 1.429 . S
C961 C962 1.523 . S
C962 C946 1.368 . S
C962 C958 1.368 . S
C962 C961 1.523 . S
H963 C938 0.950 . S
H964 C940 0.950 . S
H965 C941 0.949 . S
H966 C943 0.950 . S
H967 C945 0.950 . S
C968 C969 1.349 . S
C968 C970 1.327 . S
C968 H993 0.950 . S
C969 C968 1.349 . S
C969 C985 1.349 . S
C970 C968 1.327 . S
C970 C989 1.429 . S
C970 H994 0.950 . S
C971 C988 1.574 . S
C971 C990 1.368 . S
C971 H995 0.949 . S
H972 C976 0.949 . S
C973 C974 1.349 . S
C973 C975 1.327 . S
C973 H996 0.950 . S
C974 C973 1.349 . S
C974 C986 1.349 . S
C975 C973 1.327 . S
C975 C991 1.429 . S
C975 H997 0.950 . S
C976 H972 0.949 . S
C976 C984 1.574 . S
C976 C992 1.368 . S
H977 C985 0.950 . S
H978 C983 0.950 . S
H979 C984 0.949 . S
H980 C986 0.950 . S
H981 C987 0.950 . S
H982 C988 0.949 . S
C983 H978 0.950 . S
C983 C985 1.327 . S
C983 C989 1.429 . S
C984 C976 1.574 . S
C984 H979 0.949 . S
C984 C990 1.368 . S
C985 C969 1.349 . S
C985 H977 0.950 . S
C985 C983 1.327 . S
C986 C974 1.349 . S
C986 H980 0.950 . S
C986 C987 1.327 . S
C987 H981 0.950 . S
C987 C986 1.327 . S
C987 C991 1.429 . S
C988 C971 1.574 . S
C988 H982 0.949 . S
C988 C992 1.368 . S
C989 C970 1.429 . S
C989 C983 1.429 . S
C989 C990 1.523 . S
C990 C971 1.368 . S
C990 C984 1.368 . S
C990 C989 1.523 . S
C991 C975 1.429 . S
C991 C987 1.429 . S
C991 C992 1.523 . S
C992 C976 1.368 . S
C992 C988 1.368 . S
C992 C991 1.523 . S
H993 C968 0.950 . S
H994 C970 0.950 . S
H995 C971 0.949 . S
H996 C973 0.950 . S
H997 C975 0.950 . S
C998 C999 1.349 . S
C998 C1000 1.327 . S
C998 H1023 0.950 . S
C999 C998 1.349 . S
C999 C1015 1.349 . S
C1000 C998 1.327 . S
C1000 C1019 1.429 . S
C1000 H1024 0.950 . S
C1001 C1018 1.574 . S
C1001 C1020 1.368 . S
C1001 H1025 0.949 . S
H1002 C1006 0.949 . S
C1003 C1004 1.349 . S
C1003 C1005 1.327 . S
C1003 H1026 0.950 . S
C1004 C1003 1.349 . S
C1004 C1016 1.349 . S
C1005 C1003 1.327 . S
C1005 C1021 1.429 . S
C1005 H1027 0.950 . S
C1006 H1002 0.949 . S
C1006 C1014 1.574 . S
C1006 C1022 1.368 . S
H1007 C1015 0.950 . S
H1008 C1013 0.950 . S
H1009 C1014 0.949 . S
H1010 C1016 0.950 . S
H1011 C1017 0.950 . S
H1012 C1018 0.949 . S
C1013 H1008 0.950 . S
C1013 C1015 1.327 . S
C1013 C1019 1.429 . S
C1014 C1006 1.574 . S
C1014 H1009 0.949 . S
C1014 C1020 1.368 . S
C1015 C999 1.349 . S
C1015 H1007 0.950 . S
C1015 C1013 1.327 . S
C1016 C1004 1.349 . S
C1016 H1010 0.950 . S
C1016 C1017 1.327 . S
C1017 H1011 0.950 . S
C1017 C1016 1.327 . S
C1017 C1021 1.429 . S
C1018 C1001 1.574 . S
C1018 H1012 0.949 . S
C1018 C1022 1.368 . S
C1019 C1000 1.429 . S
C1019 C1013 1.429 . S
C1019 C1020 1.523 . S
C1020 C1001 1.368 . S
C1020 C1014 1.368 . S
C1020 C1019 1.523 . S
C1021 C1005 1.429 . S
C1021 C1017 1.429 . S
C1021 C1022 1.523 . S
C1022 C1006 1.368 . S
C1022 C1018 1.368 . S
C1022 C1021 1.523 . S
H1023 C998 0.950 . S
H1024 C1000 0.950 . S
H1025 C1001 0.949 . S
H1026 C1003 0.950 . S
H1027 C1005 0.950 . S
C1028 C1029 1.349 . S
C1028 C1030 1.327 . S
C1028 H1053 0.950 . S
C1029 C1028 1.349 . S
C1029 C1045 1.349 . S
C1030 C1028 1.327 . S
C1030 C1049 1.429 . S
C1030 H1054 0.950 . S
C1031 C1048 1.574 . S
C1031 C1050 1.368 . S
C1031 H1055 0.949 . S
H1032 C1036 0.949 . S
C1033 C1034 1.349 . S
C1033 C1035 1.327 . S
C1033 H1056 0.950 . S
C1034 C1033 1.349 . S
C1034 C1046 1.349 . S
C1035 C1033 1.327 . S
C1035 C1051 1.429 . S
C1035 H1057 0.950 . S
C1036 H1032 0.949 . S
C1036 C1044 1.574 . S
C1036 C1052 1.368 . S
H1037 C1045 0.950 . S
H1038 C1043 0.950 . S
H1039 C1044 0.949 . S
H1040 C1046 0.950 . S
H1041 C1047 0.950 . S
H1042 C1048 0.949 . S
C1043 H1038 0.950 . S
C1043 C1045 1.327 . S
C1043 C1049 1.429 . S
C1044 C1036 1.574 . S
C1044 H1039 0.949 . S
C1044 C1050 1.368 . S
C1045 C1029 1.349 . S
C1045 H1037 0.950 . S
C1045 C1043 1.327 . S
C1046 C1034 1.349 . S
C1046 H1040 0.950 . S
C1046 C1047 1.327 . S
C1047 H1041 0.950 . S
C1047 C1046 1.327 . S
C1047 C1051 1.429 . S
C1048 C1031 1.574 . S
C1048 H1042 0.949 . S
C1048 C1052 1.368 . S
C1049 C1030 1.429 . S
C1049 C1043 1.429 . S
C1049 C1050 1.523 . S
C1050 C1031 1.368 . S
C1050 C1044 1.368 . S
C1050 C1049 1.523 . S
C1051 C1035 1.429 . S
C1051 C1047 1.429 . S
C1051 C1052 1.523 . S
C1052 C1036 1.368 . S
C1052 C1048 1.368 . S
C1052 C1051 1.523 . S
H1053 C1028 0.950 . S
H1054 C1030 0.950 . S
H1055 C1031 0.949 . S
H1056 C1033 0.950 . S
H1057 C1035 0.950 . S
C1058 C1059 1.349 . S
C1058 C1060 1.327 . S
C1058 H1083 0.950 . S
C1059 C1058 1.349 . S
C1059 C1075 1.349 . S
C1060 C1058 1.327 . S
C1060 C1079 1.429 . S
C1060 H1084 0.950 . S
C1061 C1078 1.574 . S
C1061 C1080 1.368 . S
C1061 H1085 0.949 . S
H1062 C1066 0.949 . S
C1063 C1064 1.349 . S
C1063 C1065 1.327 . S
C1063 H1086 0.950 . S
C1064 C1063 1.349 . S
C1064 C1076 1.349 . S
C1065 C1063 1.327 . S
C1065 C1081 1.429 . S
C1065 H1087 0.950 . S
C1066 H1062 0.949 . S
C1066 C1074 1.574 . S
C1066 C1082 1.368 . S
H1067 C1075 0.950 . S
H1068 C1073 0.950 . S
H1069 C1074 0.949 . S
H1070 C1076 0.950 . S
H1071 C1077 0.950 . S
H1072 C1078 0.949 . S
C1073 H1068 0.950 . S
C1073 C1075 1.327 . S
C1073 C1079 1.429 . S
C1074 C1066 1.574 . S
C1074 H1069 0.949 . S
C1074 C1080 1.368 . S
C1075 C1059 1.349 . S
C1075 H1067 0.950 . S
C1075 C1073 1.327 . S
C1076 C1064 1.349 . S
C1076 H1070 0.950 . S
C1076 C1077 1.327 . S
C1077 H1071 0.950 . S
C1077 C1076 1.327 . S
C1077 C1081 1.429 . S
C1078 C1061 1.574 . S
C1078 H1072 0.949 . S
C1078 C1082 1.368 . S
C1079 C1060 1.429 . S
C1079 C1073 1.429 . S
C1079 C1080 1.523 . S
C1080 C1061 1.368 . S
C1080 C1074 1.368 . S
C1080 C1079 1.523 . S
C1081 C1065 1.429 . S
C1081 C1077 1.429 . S
C1081 C1082 1.523 . S
C1082 C1066 1.368 . S
C1082 C1078 1.368 . S
C1082 C1081 1.523 . S
H1083 C1058 0.950 . S
H1084 C1060 0.950 . S
H1085 C1061 0.949 . S
H1086 C1063 0.950 . S
H1087 C1065 0.950 . S
C1088 C1089 1.349 . S
C1088 C1090 1.327 . S
C1088 H1113 0.950 . S
C1089 C1088 1.349 . S
C1089 C1105 1.349 . S
C1090 C1088 1.327 . S
C1090 C1109 1.429 . S
C1090 H1114 0.950 . S
C1091 C1108 1.574 . S
C1091 C1110 1.368 . S
C1091 H1115 0.949 . S
H1092 C1096 0.949 . S
C1093 C1094 1.349 1_556 S
C1093 C1095 1.327 . S
C1093 H1116 0.950 . S
C1094 C1093 1.349 1_554 S
C1094 C1106 1.349 . S
C1095 C1093 1.327 . S
C1095 C1111 1.429 . S
C1095 H1117 0.950 . S
C1096 H1092 0.949 . S
C1096 C1104 1.574 . S
C1096 C1112 1.368 . S
H1097 C1105 0.950 . S
H1098 C1103 0.950 . S
H1099 C1104 0.949 . S
H1100 C1106 0.950 . S
H1101 C1107 0.950 . S
H1102 C1108 0.949 . S
C1103 H1098 0.950 . S
C1103 C1105 1.327 . S
C1103 C1109 1.429 . S
C1104 C1096 1.574 . S
C1104 H1099 0.949 . S
C1104 C1110 1.368 . S
C1105 C1089 1.349 . S
C1105 H1097 0.950 . S
C1105 C1103 1.327 . S
C1106 C1094 1.349 . S
C1106 H1100 0.950 . S
C1106 C1107 1.327 . S
C1107 H1101 0.950 . S
C1107 C1106 1.327 . S
C1107 C1111 1.429 1_554 S
C1108 C1091 1.574 . S
C1108 H1102 0.949 . S
C1108 C1112 1.368 . S
C1109 C1090 1.429 . S
C1109 C1103 1.429 . S
C1109 C1110 1.523 . S
C1110 C1091 1.368 . S
C1110 C1104 1.368 . S
C1110 C1109 1.523 . S
C1111 C1095 1.429 . S
C1111 C1107 1.429 1_556 S
C1111 C1112 1.523 . S
C1112 C1096 1.368 . S
C1112 C1108 1.368 . S
C1112 C1111 1.523 . S
H1113 C1088 0.950 . S
H1114 C1090 0.950 . S
H1115 C1091 0.949 . S
H1116 C1093 0.950 . S
H1117 C1095 0.950 . S
C1118 C1119 1.349 1_554 S
C1118 C1120 1.327 . S
C1118 H1143 0.950 . S
C1119 C1118 1.349 1_556 S
C1119 C1135 1.349 . S
C1120 C1118 1.327 . S
C1120 C1139 1.429 . S
C1120 H1144 0.950 . S
C1121 C1138 1.574 . S
C1121 C1140 1.368 . S
C1121 H1145 0.949 . S
H1122 C1126 0.949 . S
C1123 C1124 1.349 . S
C1123 C1125 1.327 . S
C1123 H1146 0.950 . S
C1124 C1123 1.349 . S
C1124 C1136 1.349 . S
C1125 C1123 1.327 . S
C1125 C1141 1.429 . S
C1125 H1147 0.950 . S
C1126 H1122 0.949 . S
C1126 C1134 1.574 . S
C1126 C1142 1.368 . S
H1127 C1135 0.950 . S
H1128 C1133 0.950 . S
H1129 C1134 0.949 . S
H1130 C1136 0.950 . S
H1131 C1137 0.950 . S
H1132 C1138 0.949 . S
C1133 H1128 0.950 . S
C1133 C1135 1.327 . S
C1133 C1139 1.429 1_556 S
C1134 C1126 1.574 . S
C1134 H1129 0.949 . S
C1134 C1140 1.368 . S
C1135 C1119 1.349 . S
C1135 H1127 0.950 . S
C1135 C1133 1.327 . S
C1136 C1124 1.349 . S
C1136 H1130 0.950 . S
C1136 C1137 1.327 . S
C1137 H1131 0.950 . S
C1137 C1136 1.327 . S
C1137 C1141 1.429 . S
C1138 C1121 1.574 . S
C1138 H1132 0.949 . S
C1138 C1142 1.368 . S
C1139 C1120 1.429 . S
C1139 C1133 1.429 1_554 S
C1139 C1140 1.523 . S
C1140 C1121 1.368 . S
C1140 C1134 1.368 . S
C1140 C1139 1.523 . S
C1141 C1125 1.429 . S
C1141 C1137 1.429 . S
C1141 C1142 1.523 . S
C1142 C1126 1.368 . S
C1142 C1138 1.368 . S
C1142 C1141 1.523 . S
H1143 C1118 0.950 . S
H1144 C1120 0.950 . S
H1145 C1121 0.949 . S
H1146 C1123 0.950 . S
H1147 C1125 0.950 . S
C1148 C1149 1.349 1_556 S
C1148 C1150 1.327 . S
C1148 H1173 0.950 . S
C1149 C1148 1.349 1_554 S
C1149 C1165 1.349 . S
C1150 C1148 1.327 . S
C1150 C1169 1.429 . S
C1150 H1174 0.950 . S
C1151 C1168 1.574 . S
C1151 C1170 1.368 . S
C1151 H1175 0.949 . S
H1152 C1156 0.949 . S
C1153 C1154 1.349 . S
C1153 C1155 1.327 . S
C1153 H1176 0.950 . S
C1154 C1153 1.349 . S
C1154 C1166 1.349 . S
C1155 C1153 1.327 . S
C1155 C1171 1.429 . S
C1155 H1177 0.950 . S
C1156 H1152 0.949 . S
C1156 C1164 1.574 . S
C1156 C1172 1.368 . S
H1157 C1165 0.950 . S
H1158 C1163 0.950 . S
H1159 C1164 0.949 . S
H1160 C1166 0.950 . S
H1161 C1167 0.950 . S
H1162 C1168 0.949 . S
C1163 H1158 0.950 . S
C1163 C1165 1.327 . S
C1163 C1169 1.429 1_554 S
C1164 C1156 1.574 . S
C1164 H1159 0.949 . S
C1164 C1170 1.368 . S
C1165 C1149 1.349 . S
C1165 H1157 0.950 . S
C1165 C1163 1.327 . S
C1166 C1154 1.349 . S
C1166 H1160 0.950 . S
C1166 C1167 1.327 . S
C1167 H1161 0.950 . S
C1167 C1166 1.327 . S
C1167 C1171 1.429 . S
C1168 C1151 1.574 . S
C1168 H1162 0.949 . S
C1168 C1172 1.368 . S
C1169 C1150 1.429 . S
C1169 C1163 1.429 1_556 S
C1169 C1170 1.523 . S
C1170 C1151 1.368 . S
C1170 C1164 1.368 . S
C1170 C1169 1.523 . S
C1171 C1155 1.429 . S
C1171 C1167 1.429 . S
C1171 C1172 1.523 . S
C1172 C1156 1.368 . S
C1172 C1168 1.368 . S
C1172 C1171 1.523 . S
H1173 C1148 0.950 . S
H1174 C1150 0.950 . S
H1175 C1151 0.949 . S
H1176 C1153 0.950 . S
H1177 C1155 0.950 . S
C1178 C1179 1.349 1_554 S
C1178 C1180 1.327 . S
C1178 H1203 0.950 . S
C1179 C1178 1.349 1_556 S
C1179 C1195 1.349 . S
C1180 C1178 1.327 . S
C1180 C1199 1.429 . S
C1180 H1204 0.950 . S
C1181 C1198 1.574 . S
C1181 C1200 1.368 . S
C1181 H1205 0.949 . S
H1182 C1186 0.949 . S
C1183 C1184 1.349 . S
C1183 C1185 1.327 . S
C1183 H1206 0.950 . S
C1184 C1183 1.349 . S
C1184 C1196 1.349 . S
C1185 C1183 1.327 . S
C1185 C1201 1.429 . S
C1185 H1207 0.950 . S
C1186 H1182 0.949 . S
C1186 C1194 1.574 . S
C1186 C1202 1.368 . S
H1187 C1195 0.950 . S
H1188 C1193 0.950 . S
H1189 C1194 0.949 . S
H1190 C1196 0.950 . S
H1191 C1197 0.950 . S
H1192 C1198 0.949 . S
C1193 H1188 0.950 . S
C1193 C1195 1.327 . S
C1193 C1199 1.429 1_556 S
C1194 C1186 1.574 . S
C1194 H1189 0.949 . S
C1194 C1200 1.368 . S
C1195 C1179 1.349 . S
C1195 H1187 0.950 . S
C1195 C1193 1.327 . S
C1196 C1184 1.349 . S
C1196 H1190 0.950 . S
C1196 C1197 1.327 . S
C1197 H1191 0.950 . S
C1197 C1196 1.327 . S
C1197 C1201 1.429 . S
C1198 C1181 1.574 . S
C1198 H1192 0.949 . S
C1198 C1202 1.368 . S
C1199 C1180 1.429 . S
C1199 C1193 1.429 1_554 S
C1199 C1200 1.523 . S
C1200 C1181 1.368 . S
C1200 C1194 1.368 . S
C1200 C1199 1.523 . S
C1201 C1185 1.429 . S
C1201 C1197 1.429 . S
C1201 C1202 1.523 . S
C1202 C1186 1.368 . S
C1202 C1198 1.368 . S
C1202 C1201 1.523 . S
H1203 C1178 0.950 . S
H1204 C1180 0.950 . S
H1205 C1181 0.949 . S
H1206 C1183 0.950 . S
H1207 C1185 0.950 . S
C1208 C1209 1.349 . S
C1208 C1210 1.327 . S
C1208 H1233 0.950 . S
C1209 C1208 1.349 . S
C1209 C1225 1.349 . S
C1210 C1208 1.327 . S
C1210 C1229 1.429 . S
C1210 H1234 0.950 . S
C1211 C1228 1.574 . S
C1211 C1230 1.368 . S
C1211 H1235 0.949 . S
H1212 C1216 0.949 . S
C1213 C1214 1.349 . S
C1213 C1215 1.327 . S
C1213 H1236 0.950 . S
C1214 C1213 1.349 . S
C1214 C1226 1.349 . S
C1215 C1213 1.327 . S
C1215 C1231 1.429 . S
C1215 H1237 0.950 . S
C1216 H1212 0.949 . S
C1216 C1224 1.574 . S
C1216 C1232 1.368 . S
H1217 C1225 0.950 . S
H1218 C1223 0.950 . S
H1219 C1224 0.949 . S
H1220 C1226 0.950 . S
H1221 C1227 0.950 . S
H1222 C1228 0.949 . S
C1223 H1218 0.950 . S
C1223 C1225 1.327 . S
C1223 C1229 1.429 . S
C1224 C1216 1.574 . S
C1224 H1219 0.949 . S
C1224 C1230 1.368 . S
C1225 C1209 1.349 . S
C1225 H1217 0.950 . S
C1225 C1223 1.327 . S
C1226 C1214 1.349 . S
C1226 H1220 0.950 . S
C1226 C1227 1.327 . S
C1227 H1221 0.950 . S
C1227 C1226 1.327 . S
C1227 C1231 1.429 . S
C1228 C1211 1.574 . S
C1228 H1222 0.949 . S
C1228 C1232 1.368 . S
C1229 C1210 1.429 . S
C1229 C1223 1.429 . S
C1229 C1230 1.523 . S
C1230 C1211 1.368 . S
C1230 C1224 1.368 . S
C1230 C1229 1.523 . S
C1231 C1215 1.429 . S
C1231 C1227 1.429 . S
C1231 C1232 1.523 . S
C1232 C1216 1.368 . S
C1232 C1228 1.368 . S
C1232 C1231 1.523 . S
H1233 C1208 0.950 . S
H1234 C1210 0.950 . S
H1235 C1211 0.949 . S
H1236 C1213 0.950 . S
H1237 C1215 0.950 . S
C1238 C1239 1.349 . S
C1238 C1240 1.327 . S
C1238 H1263 0.950 . S
C1239 C1238 1.349 . S
C1239 C1255 1.349 . S
C1240 C1238 1.327 . S
C1240 C1259 1.429 . S
C1240 H1264 0.950 . S
C1241 C1258 1.574 . S
C1241 C1260 1.368 . S
C1241 H1265 0.949 . S
H1242 C1246 0.949 . S
C1243 C1244 1.349 . S
C1243 C1245 1.327 . S
C1243 H1266 0.950 . S
C1244 C1243 1.349 . S
C1244 C1256 1.349 . S
C1245 C1243 1.327 . S
C1245 C1261 1.429 . S
C1245 H1267 0.950 . S
C1246 H1242 0.949 . S
C1246 C1254 1.574 . S
C1246 C1262 1.368 . S
H1247 C1255 0.950 . S
H1248 C1253 0.950 . S
H1249 C1254 0.949 . S
H1250 C1256 0.950 . S
H1251 C1257 0.950 . S
H1252 C1258 0.949 . S
C1253 H1248 0.950 . S
C1253 C1255 1.327 . S
C1253 C1259 1.429 . S
C1254 C1246 1.574 . S
C1254 H1249 0.949 . S
C1254 C1260 1.368 . S
C1255 C1239 1.349 . S
C1255 H1247 0.950 . S
C1255 C1253 1.327 . S
C1256 C1244 1.349 . S
C1256 H1250 0.950 . S
C1256 C1257 1.327 . S
C1257 H1251 0.950 . S
C1257 C1256 1.327 . S
C1257 C1261 1.429 . S
C1258 C1241 1.574 . S
C1258 H1252 0.949 . S
C1258 C1262 1.368 . S
C1259 C1240 1.429 . S
C1259 C1253 1.429 . S
C1259 C1260 1.523 . S
C1260 C1241 1.368 . S
C1260 C1254 1.368 . S
C1260 C1259 1.523 . S
C1261 C1245 1.429 . S
C1261 C1257 1.429 . S
C1261 C1262 1.523 . S
C1262 C1246 1.368 . S
C1262 C1258 1.368 . S
C1262 C1261 1.523 . S
H1263 C1238 0.950 . S
H1264 C1240 0.950 . S
H1265 C1241 0.949 . S
H1266 C1243 0.950 . S
H1267 C1245 0.950 . S
C1268 C1269 1.349 . S
C1268 C1270 1.327 . S
C1268 H1293 0.950 . S
C1269 C1268 1.349 . S
C1269 C1285 1.349 . S
C1270 C1268 1.327 . S
C1270 C1289 1.429 . S
C1270 H1294 0.950 . S
C1271 C1288 1.574 . S
C1271 C1290 1.368 . S
C1271 H1295 0.949 . S
H1272 C1276 0.949 . S
C1273 C1274 1.349 . S
C1273 C1275 1.327 . S
C1273 H1296 0.950 . S
C1274 C1273 1.349 . S
C1274 C1286 1.349 . S
C1275 C1273 1.327 . S
C1275 C1291 1.429 . S
C1275 H1297 0.950 . S
C1276 H1272 0.949 . S
C1276 C1284 1.574 . S
C1276 C1292 1.368 . S
H1277 C1285 0.950 . S
H1278 C1283 0.950 . S
H1279 C1284 0.949 . S
H1280 C1286 0.950 . S
H1281 C1287 0.950 . S
H1282 C1288 0.949 . S
C1283 H1278 0.950 . S
C1283 C1285 1.327 . S
C1283 C1289 1.429 . S
C1284 C1276 1.574 . S
C1284 H1279 0.949 . S
C1284 C1290 1.368 . S
C1285 C1269 1.349 . S
C1285 H1277 0.950 . S
C1285 C1283 1.327 . S
C1286 C1274 1.349 . S
C1286 H1280 0.950 . S
C1286 C1287 1.327 . S
C1287 H1281 0.950 . S
C1287 C1286 1.327 . S
C1287 C1291 1.429 . S
C1288 C1271 1.574 . S
C1288 H1282 0.949 . S
C1288 C1292 1.368 . S
C1289 C1270 1.429 . S
C1289 C1283 1.429 . S
C1289 C1290 1.523 . S
C1290 C1271 1.368 . S
C1290 C1284 1.368 . S
C1290 C1289 1.523 . S
C1291 C1275 1.429 . S
C1291 C1287 1.429 . S
C1291 C1292 1.523 . S
C1292 C1276 1.368 . S
C1292 C1288 1.368 . S
C1292 C1291 1.523 . S
H1293 C1268 0.950 . S
H1294 C1270 0.950 . S
H1295 C1271 0.949 . S
H1296 C1273 0.950 . S
H1297 C1275 0.950 . S
C1298 C1299 1.349 . S
C1298 C1300 1.327 . S
C1298 H1323 0.950 . S
C1299 C1298 1.349 . S
C1299 C1315 1.349 . S
C1300 C1298 1.327 . S
C1300 C1319 1.429 . S
C1300 H1324 0.950 . S
C1301 C1318 1.574 . S
C1301 C1320 1.368 . S
C1301 H1325 0.949 . S
H1302 C1306 0.949 . S
C1303 C1304 1.349 . S
C1303 C1305 1.327 . S
C1303 H1326 0.950 . S
C1304 C1303 1.349 . S
C1304 C1316 1.349 . S
C1305 C1303 1.327 . S
C1305 C1321 1.429 . S
C1305 H1327 0.950 . S
C1306 H1302 0.949 . S
C1306 C1314 1.574 . S
C1306 C1322 1.368 . S
H1307 C1315 0.950 . S
H1308 C1313 0.950 . S
H1309 C1314 0.949 . S
H1310 C1316 0.950 . S
H1311 C1317 0.950 . S
H1312 C1318 0.949 . S
C1313 H1308 0.950 . S
C1313 C1315 1.327 . S
C1313 C1319 1.429 . S
C1314 C1306 1.574 . S
C1314 H1309 0.949 . S
C1314 C1320 1.368 . S
C1315 C1299 1.349 . S
C1315 H1307 0.950 . S
C1315 C1313 1.327 . S
C1316 C1304 1.349 . S
C1316 H1310 0.950 . S
C1316 C1317 1.327 . S
C1317 H1311 0.950 . S
C1317 C1316 1.327 . S
C1317 C1321 1.429 . S
C1318 C1301 1.574 . S
C1318 H1312 0.949 . S
C1318 C1322 1.368 . S
C1319 C1300 1.429 . S
C1319 C1313 1.429 . S
C1319 C1320 1.523 . S
C1320 C1301 1.368 . S
C1320 C1314 1.368 . S
C1320 C1319 1.523 . S
C1321 C1305 1.429 . S
C1321 C1317 1.429 . S
C1321 C1322 1.523 . S
C1322 C1306 1.368 . S
C1322 C1318 1.368 . S
C1322 C1321 1.523 . S
H1323 C1298 0.950 . S
H1324 C1300 0.950 . S
H1325 C1301 0.949 . S
H1326 C1303 0.950 . S
H1327 C1305 0.950 . S
C1328 C1329 1.349 . S
C1328 C1330 1.327 . S
C1328 H1353 0.950 . S
C1329 C1328 1.349 . S
C1329 C1345 1.349 . S
C1330 C1328 1.327 . S
C1330 C1349 1.429 . S
C1330 H1354 0.950 . S
C1331 C1348 1.574 . S
C1331 C1350 1.368 . S
C1331 H1355 0.949 . S
H1332 C1336 0.949 . S
C1333 C1334 1.349 . S
C1333 C1335 1.327 . S
C1333 H1356 0.950 . S
C1334 C1333 1.349 . S
C1334 C1346 1.349 . S
C1335 C1333 1.327 . S
C1335 C1351 1.429 . S
C1335 H1357 0.950 . S
C1336 H1332 0.949 . S
C1336 C1344 1.574 . S
C1336 C1352 1.368 . S
H1337 C1345 0.950 . S
H1338 C1343 0.950 . S
H1339 C1344 0.949 . S
H1340 C1346 0.950 . S
H1341 C1347 0.950 . S
H1342 C1348 0.949 . S
C1343 H1338 0.950 . S
C1343 C1345 1.327 . S
C1343 C1349 1.429 . S
C1344 C1336 1.574 . S
C1344 H1339 0.949 . S
C1344 C1350 1.368 . S
C1345 C1329 1.349 . S
C1345 H1337 0.950 . S
C1345 C1343 1.327 . S
C1346 C1334 1.349 . S
C1346 H1340 0.950 . S
C1346 C1347 1.327 . S
C1347 H1341 0.950 . S
C1347 C1346 1.327 . S
C1347 C1351 1.429 . S
C1348 C1331 1.574 . S
C1348 H1342 0.949 . S
C1348 C1352 1.368 . S
C1349 C1330 1.429 . S
C1349 C1343 1.429 . S
C1349 C1350 1.523 . S
C1350 C1331 1.368 . S
C1350 C1344 1.368 . S
C1350 C1349 1.523 . S
C1351 C1335 1.429 . S
C1351 C1347 1.429 . S
C1351 C1352 1.523 . S
C1352 C1336 1.368 . S
C1352 C1348 1.368 . S
C1352 C1351 1.523 . S
H1353 C1328 0.950 . S
H1354 C1330 0.950 . S
H1355 C1331 0.949 . S
H1356 C1333 0.950 . S
H1357 C1335 0.950 . S
C1358 C1359 1.349 . S
C1358 C1360 1.327 . S
C1358 H1383 0.950 . S
C1359 C1358 1.349 . S
C1359 C1375 1.349 . S
C1360 C1358 1.327 . S
C1360 C1379 1.429 . S
C1360 H1384 0.950 . S
C1361 C1378 1.574 . S
C1361 C1380 1.368 . S
C1361 H1385 0.949 . S
H1362 C1366 0.949 . S
C1363 C1364 1.349 . S
C1363 C1365 1.327 . S
C1363 H1386 0.950 . S
C1364 C1363 1.349 . S
C1364 C1376 1.349 . S
C1365 C1363 1.327 . S
C1365 C1381 1.429 . S
C1365 H1387 0.950 . S
C1366 H1362 0.949 . S
C1366 C1374 1.574 . S
C1366 C1382 1.368 . S
H1367 C1375 0.950 . S
H1368 C1373 0.950 . S
H1369 C1374 0.949 . S
H1370 C1376 0.950 . S
H1371 C1377 0.950 . S
H1372 C1378 0.949 . S
C1373 H1368 0.950 . S
C1373 C1375 1.327 . S
C1373 C1379 1.429 . S
C1374 C1366 1.574 . S
C1374 H1369 0.949 . S
C1374 C1380 1.368 . S
C1375 C1359 1.349 . S
C1375 H1367 0.950 . S
C1375 C1373 1.327 . S
C1376 C1364 1.349 . S
C1376 H1370 0.950 . S
C1376 C1377 1.327 . S
C1377 H1371 0.950 . S
C1377 C1376 1.327 . S
C1377 C1381 1.429 . S
C1378 C1361 1.574 . S
C1378 H1372 0.949 . S
C1378 C1382 1.368 . S
C1379 C1360 1.429 . S
C1379 C1373 1.429 . S
C1379 C1380 1.523 . S
C1380 C1361 1.368 . S
C1380 C1374 1.368 . S
C1380 C1379 1.523 . S
C1381 C1365 1.429 . S
C1381 C1377 1.429 . S
C1381 C1382 1.523 . S
C1382 C1366 1.368 . S
C1382 C1378 1.368 . S
C1382 C1381 1.523 . S
H1383 C1358 0.950 . S
H1384 C1360 0.950 . S
H1385 C1361 0.949 . S
H1386 C1363 0.950 . S
H1387 C1365 0.950 . S
C1388 C1389 1.349 . S
C1388 C1390 1.327 . S
C1388 H1413 0.950 . S
C1389 C1388 1.349 . S
C1389 C1405 1.349 . S
C1390 C1388 1.327 . S
C1390 C1409 1.429 . S
C1390 H1414 0.950 . S
C1391 C1408 1.574 . S
C1391 C1410 1.368 . S
C1391 H1415 0.949 . S
H1392 C1396 0.949 . S
C1393 C1394 1.349 . S
C1393 C1395 1.327 . S
C1393 H1416 0.950 . S
C1394 C1393 1.349 . S
C1394 C1406 1.349 . S
C1395 C1393 1.327 . S
C1395 C1411 1.429 . S
C1395 H1417 0.950 . S
C1396 H1392 0.949 . S
C1396 C1404 1.574 . S
C1396 C1412 1.368 . S
H1397 C1405 0.950 . S
H1398 C1403 0.950 . S
H1399 C1404 0.949 . S
H1400 C1406 0.950 . S
H1401 C1407 0.950 . S
H1402 C1408 0.949 . S
C1403 H1398 0.950 . S
C1403 C1405 1.327 . S
C1403 C1409 1.429 . S
C1404 C1396 1.574 . S
C1404 H1399 0.949 . S
C1404 C1410 1.368 . S
C1405 C1389 1.349 . S
C1405 H1397 0.950 . S
C1405 C1403 1.327 . S
C1406 C1394 1.349 . S
C1406 H1400 0.950 . S
C1406 C1407 1.327 . S
C1407 H1401 0.950 . S
C1407 C1406 1.327 . S
C1407 C1411 1.429 . S
C1408 C1391 1.574 . S
C1408 H1402 0.949 . S
C1408 C1412 1.368 . S
C1409 C1390 1.429 . S
C1409 C1403 1.429 . S
C1409 C1410 1.523 . S
C1410 C1391 1.368 . S
C1410 C1404 1.368 . S
C1410 C1409 1.523 . S
C1411 C1395 1.429 . S
C1411 C1407 1.429 . S
C1411 C1412 1.523 . S
C1412 C1396 1.368 . S
C1412 C1408 1.368 . S
C1412 C1411 1.523 . S
H1413 C1388 0.950 . S
H1414 C1390 0.950 . S
H1415 C1391 0.949 . S
H1416 C1393 0.950 . S
H1417 C1395 0.950 . S
C1418 C1419 1.349 . S
C1418 C1420 1.327 . S
C1418 H1443 0.950 . S
C1419 C1418 1.349 . S
C1419 C1435 1.349 . S
C1420 C1418 1.327 . S
C1420 C1439 1.429 . S
C1420 H1444 0.950 . S
C1421 C1438 1.574 . S
C1421 C1440 1.368 . S
C1421 H1445 0.949 . S
H1422 C1426 0.949 . S
C1423 C1424 1.349 . S
C1423 C1425 1.327 . S
C1423 H1446 0.950 . S
C1424 C1423 1.349 . S
C1424 C1436 1.349 . S
C1425 C1423 1.327 . S
C1425 C1441 1.429 . S
C1425 H1447 0.950 . S
C1426 H1422 0.949 . S
C1426 C1434 1.574 . S
C1426 C1442 1.368 . S
H1427 C1435 0.950 . S
H1428 C1433 0.950 . S
H1429 C1434 0.949 . S
H1430 C1436 0.950 . S
H1431 C1437 0.950 . S
H1432 C1438 0.949 . S
C1433 H1428 0.950 . S
C1433 C1435 1.327 . S
C1433 C1439 1.429 . S
C1434 C1426 1.574 . S
C1434 H1429 0.949 . S
C1434 C1440 1.368 . S
C1435 C1419 1.349 . S
C1435 H1427 0.950 . S
C1435 C1433 1.327 . S
C1436 C1424 1.349 . S
C1436 H1430 0.950 . S
C1436 C1437 1.327 . S
C1437 H1431 0.950 . S
C1437 C1436 1.327 . S
C1437 C1441 1.429 . S
C1438 C1421 1.574 . S
C1438 H1432 0.949 . S
C1438 C1442 1.368 . S
C1439 C1420 1.429 . S
C1439 C1433 1.429 . S
C1439 C1440 1.523 . S
C1440 C1421 1.368 . S
C1440 C1434 1.368 . S
C1440 C1439 1.523 . S
C1441 C1425 1.429 . S
C1441 C1437 1.429 . S
C1441 C1442 1.523 . S
C1442 C1426 1.368 . S
C1442 C1438 1.368 . S
C1442 C1441 1.523 . S
H1443 C1418 0.950 . S
H1444 C1420 0.950 . S
H1445 C1421 0.949 . S
H1446 C1423 0.950 . S
H1447 C1425 0.950 . S
C1448 C1449 1.349 . S
C1448 C1450 1.327 . S
C1448 H1473 0.950 . S
C1449 C1448 1.349 . S
C1449 C1465 1.349 . S
C1450 C1448 1.327 . S
C1450 C1469 1.429 . S
C1450 H1474 0.950 . S
C1451 C1468 1.574 . S
C1451 C1470 1.368 . S
C1451 H1475 0.949 . S
H1452 C1456 0.949 . S
C1453 C1454 1.349 . S
C1453 C1455 1.327 . S
C1453 H1476 0.950 . S
C1454 C1453 1.349 . S
C1454 C1466 1.349 . S
C1455 C1453 1.327 . S
C1455 C1471 1.429 . S
C1455 H1477 0.950 . S
C1456 H1452 0.949 . S
C1456 C1464 1.574 . S
C1456 C1472 1.368 . S
H1457 C1465 0.950 . S
H1458 C1463 0.950 . S
H1459 C1464 0.949 . S
H1460 C1466 0.950 . S
H1461 C1467 0.950 . S
H1462 C1468 0.949 . S
C1463 H1458 0.950 . S
C1463 C1465 1.327 . S
C1463 C1469 1.429 . S
C1464 C1456 1.574 . S
C1464 H1459 0.949 . S
C1464 C1470 1.368 . S
C1465 C1449 1.349 . S
C1465 H1457 0.950 . S
C1465 C1463 1.327 . S
C1466 C1454 1.349 . S
C1466 H1460 0.950 . S
C1466 C1467 1.327 . S
C1467 H1461 0.950 . S
C1467 C1466 1.327 . S
C1467 C1471 1.429 . S
C1468 C1451 1.574 . S
C1468 H1462 0.949 . S
C1468 C1472 1.368 . S
C1469 C1450 1.429 . S
C1469 C1463 1.429 . S
C1469 C1470 1.523 . S
C1470 C1451 1.368 . S
C1470 C1464 1.368 . S
C1470 C1469 1.523 . S
C1471 C1455 1.429 . S
C1471 C1467 1.429 . S
C1471 C1472 1.523 . S
C1472 C1456 1.368 . S
C1472 C1468 1.368 . S
C1472 C1471 1.523 . S
H1473 C1448 0.950 . S
H1474 C1450 0.950 . S
H1475 C1451 0.949 . S
H1476 C1453 0.950 . S
H1477 C1455 0.950 . S
C1478 C1479 1.349 . S
C1478 C1480 1.327 . S
C1478 H1503 0.950 . S
C1479 C1478 1.349 . S
C1479 C1495 1.349 . S
C1480 C1478 1.327 . S
C1480 C1499 1.429 . S
C1480 H1504 0.950 . S
C1481 C1498 1.574 . S
C1481 C1500 1.368 . S
C1481 H1505 0.949 . S
H1482 C1486 0.949 . S
C1483 C1484 1.349 . S
C1483 C1485 1.327 . S
C1483 H1506 0.950 . S
C1484 C1483 1.349 . S
C1484 C1496 1.349 . S
C1485 C1483 1.327 . S
C1485 C1501 1.429 . S
C1485 H1507 0.950 . S
C1486 H1482 0.949 . S
C1486 C1494 1.574 . S
C1486 C1502 1.368 . S
H1487 C1495 0.950 . S
H1488 C1493 0.950 . S
H1489 C1494 0.949 . S
H1490 C1496 0.950 . S
H1491 C1497 0.950 . S
H1492 C1498 0.949 . S
C1493 H1488 0.950 . S
C1493 C1495 1.327 . S
C1493 C1499 1.429 . S
C1494 C1486 1.574 . S
C1494 H1489 0.949 . S
C1494 C1500 1.368 . S
C1495 C1479 1.349 . S
C1495 H1487 0.950 . S
C1495 C1493 1.327 . S
C1496 C1484 1.349 . S
C1496 H1490 0.950 . S
C1496 C1497 1.327 . S
C1497 H1491 0.950 . S
C1497 C1496 1.327 . S
C1497 C1501 1.429 . S
C1498 C1481 1.574 . S
C1498 H1492 0.949 . S
C1498 C1502 1.368 . S
C1499 C1480 1.429 . S
C1499 C1493 1.429 . S
C1499 C1500 1.523 . S
C1500 C1481 1.368 . S
C1500 C1494 1.368 . S
C1500 C1499 1.523 . S
C1501 C1485 1.429 . S
C1501 C1497 1.429 . S
C1501 C1502 1.523 . S
C1502 C1486 1.368 . S
C1502 C1498 1.368 . S
C1502 C1501 1.523 . S
H1503 C1478 0.950 . S
H1504 C1480 0.950 . S
H1505 C1481 0.949 . S
H1506 C1483 0.950 . S
H1507 C1485 0.950 . S
C1508 C1509 1.349 . S
C1508 C1510 1.327 . S
C1508 H1533 0.950 . S
C1509 C1508 1.349 . S
C1509 C1525 1.349 . S
C1510 C1508 1.327 . S
C1510 C1529 1.429 . S
C1510 H1534 0.950 . S
C1511 C1528 1.574 . S
C1511 C1530 1.368 . S
C1511 H1535 0.949 . S
H1512 C1516 0.949 . S
C1513 C1514 1.349 . S
C1513 C1515 1.327 . S
C1513 H1536 0.950 . S
C1514 C1513 1.349 . S
C1514 C1526 1.349 . S
C1515 C1513 1.327 . S
C1515 C1531 1.429 . S
C1515 H1537 0.950 . S
C1516 H1512 0.949 . S
C1516 C1524 1.574 . S
C1516 C1532 1.368 . S
H1517 C1525 0.950 . S
H1518 C1523 0.950 . S
H1519 C1524 0.949 . S
H1520 C1526 0.950 . S
H1521 C1527 0.950 . S
H1522 C1528 0.949 . S
C1523 H1518 0.950 . S
C1523 C1525 1.327 . S
C1523 C1529 1.429 . S
C1524 C1516 1.574 . S
C1524 H1519 0.949 . S
C1524 C1530 1.368 . S
C1525 C1509 1.349 . S
C1525 H1517 0.950 . S
C1525 C1523 1.327 . S
C1526 C1514 1.349 . S
C1526 H1520 0.950 . S
C1526 C1527 1.327 . S
C1527 H1521 0.950 . S
C1527 C1526 1.327 . S
C1527 C1531 1.429 . S
C1528 C1511 1.574 . S
C1528 H1522 0.949 . S
C1528 C1532 1.368 . S
C1529 C1510 1.429 . S
C1529 C1523 1.429 . S
C1529 C1530 1.523 . S
C1530 C1511 1.368 . S
C1530 C1524 1.368 . S
C1530 C1529 1.523 . S
C1531 C1515 1.429 . S
C1531 C1527 1.429 . S
C1531 C1532 1.523 . S
C1532 C1516 1.368 . S
C1532 C1528 1.368 . S
C1532 C1531 1.523 . S
H1533 C1508 0.950 . S
H1534 C1510 0.950 . S
H1535 C1511 0.949 . S
H1536 C1513 0.950 . S
H1537 C1515 0.950 . S
C1538 C1539 1.349 . S
C1538 C1540 1.327 . S
C1538 H1563 0.950 . S
C1539 C1538 1.349 . S
C1539 C1555 1.349 . S
C1540 C1538 1.327 . S
C1540 C1559 1.429 . S
C1540 H1564 0.950 . S
C1541 C1558 1.574 . S
C1541 C1560 1.368 . S
C1541 H1565 0.949 . S
H1542 C1546 0.949 . S
C1543 C1544 1.349 . S
C1543 C1545 1.327 . S
C1543 H1566 0.950 . S
C1544 C1543 1.349 . S
C1544 C1556 1.349 . S
C1545 C1543 1.327 . S
C1545 C1561 1.429 . S
C1545 H1567 0.950 . S
C1546 H1542 0.949 . S
C1546 C1554 1.574 . S
C1546 C1562 1.368 . S
H1547 C1555 0.950 . S
H1548 C1553 0.950 . S
H1549 C1554 0.949 . S
H1550 C1556 0.950 . S
H1551 C1557 0.950 . S
H1552 C1558 0.949 . S
C1553 H1548 0.950 . S
C1553 C1555 1.327 . S
C1553 C1559 1.429 . S
C1554 C1546 1.574 . S
C1554 H1549 0.949 . S
C1554 C1560 1.368 . S
C1555 C1539 1.349 . S
C1555 H1547 0.950 . S
C1555 C1553 1.327 . S
C1556 C1544 1.349 . S
C1556 H1550 0.950 . S
C1556 C1557 1.327 . S
C1557 H1551 0.950 . S
C1557 C1556 1.327 . S
C1557 C1561 1.429 . S
C1558 C1541 1.574 . S
C1558 H1552 0.949 . S
C1558 C1562 1.368 . S
C1559 C1540 1.429 . S
C1559 C1553 1.429 . S
C1559 C1560 1.523 . S
C1560 C1541 1.368 . S
C1560 C1554 1.368 . S
C1560 C1559 1.523 . S
C1561 C1545 1.429 . S
C1561 C1557 1.429 . S
C1561 C1562 1.523 . S
C1562 C1546 1.368 . S
C1562 C1558 1.368 . S
C1562 C1561 1.523 . S
H1563 C1538 0.950 . S
H1564 C1540 0.950 . S
H1565 C1541 0.949 . S
H1566 C1543 0.950 . S
H1567 C1545 0.950 . S
C1568 C1569 1.349 . S
C1568 C1570 1.327 . S
C1568 H1593 0.950 . S
C1569 C1568 1.349 . S
C1569 C1585 1.349 . S
C1570 C1568 1.327 . S
C1570 C1589 1.429 . S
C1570 H1594 0.950 . S
C1571 C1588 1.574 . S
C1571 C1590 1.368 . S
C1571 H1595 0.949 . S
H1572 C1576 0.949 . S
C1573 C1574 1.349 . S
C1573 C1575 1.327 . S
C1573 H1596 0.950 . S
C1574 C1573 1.349 . S
C1574 C1586 1.349 . S
C1575 C1573 1.327 . S
C1575 C1591 1.429 . S
C1575 H1597 0.950 . S
C1576 H1572 0.949 . S
C1576 C1584 1.574 . S
C1576 C1592 1.368 . S
H1577 C1585 0.950 . S
H1578 C1583 0.950 . S
H1579 C1584 0.949 . S
H1580 C1586 0.950 . S
H1581 C1587 0.950 . S
H1582 C1588 0.949 . S
C1583 H1578 0.950 . S
C1583 C1585 1.327 . S
C1583 C1589 1.429 . S
C1584 C1576 1.574 . S
C1584 H1579 0.949 . S
C1584 C1590 1.368 . S
C1585 C1569 1.349 . S
C1585 H1577 0.950 . S
C1585 C1583 1.327 . S
C1586 C1574 1.349 . S
C1586 H1580 0.950 . S
C1586 C1587 1.327 . S
C1587 H1581 0.950 . S
C1587 C1586 1.327 . S
C1587 C1591 1.429 . S
C1588 C1571 1.574 . S
C1588 H1582 0.949 . S
C1588 C1592 1.368 . S
C1589 C1570 1.429 . S
C1589 C1583 1.429 . S
C1589 C1590 1.523 1_556 S
C1590 C1571 1.368 . S
C1590 C1584 1.368 . S
C1590 C1589 1.523 1_554 S
C1591 C1575 1.429 . S
C1591 C1587 1.429 . S
C1591 C1592 1.523 . S
C1592 C1576 1.368 . S
C1592 C1588 1.368 . S
C1592 C1591 1.523 . S
H1593 C1568 0.950 . S
H1594 C1570 0.950 . S
H1595 C1571 0.949 . S
H1596 C1573 0.950 . S
H1597 C1575 0.950 . S
C1598 C1599 1.349 . S
C1598 C1600 1.327 . S
C1598 H1623 0.950 . S
C1599 C1598 1.349 . S
C1599 C1615 1.349 . S
C1600 C1598 1.327 . S
C1600 C1619 1.429 . S
C1600 H1624 0.950 . S
C1601 C1618 1.574 . S
C1601 C1620 1.368 . S
C1601 H1625 0.949 . S
H1602 C1606 0.949 . S
C1603 C1604 1.349 . S
C1603 C1605 1.327 . S
C1603 H1626 0.950 . S
C1604 C1603 1.349 . S
C1604 C1616 1.349 . S
C1605 C1603 1.327 . S
C1605 C1621 1.429 . S
C1605 H1627 0.950 . S
C1606 H1602 0.949 . S
C1606 C1614 1.574 . S
C1606 C1622 1.368 . S
H1607 C1615 0.950 . S
H1608 C1613 0.950 . S
H1609 C1614 0.949 . S
H1610 C1616 0.950 . S
H1611 C1617 0.950 . S
H1612 C1618 0.949 . S
C1613 H1608 0.950 . S
C1613 C1615 1.327 . S
C1613 C1619 1.429 . S
C1614 C1606 1.574 . S
C1614 H1609 0.949 . S
C1614 C1620 1.368 . S
C1615 C1599 1.349 . S
C1615 H1607 0.950 . S
C1615 C1613 1.327 . S
C1616 C1604 1.349 . S
C1616 H1610 0.950 . S
C1616 C1617 1.327 . S
C1617 H1611 0.950 . S
C1617 C1616 1.327 . S
C1617 C1621 1.429 . S
C1618 C1601 1.574 . S
C1618 H1612 0.949 . S
C1618 C1622 1.368 . S
C1619 C1600 1.429 . S
C1619 C1613 1.429 . S
C1619 C1620 1.523 . S
C1620 C1601 1.368 . S
C1620 C1614 1.368 . S
C1620 C1619 1.523 . S
C1621 C1605 1.429 . S
C1621 C1617 1.429 . S
C1621 C1622 1.523 1_554 S
C1622 C1606 1.368 . S
C1622 C1618 1.368 . S
C1622 C1621 1.523 1_556 S
H1623 C1598 0.950 . S
H1624 C1600 0.950 . S
H1625 C1601 0.949 . S
H1626 C1603 0.950 . S
H1627 C1605 0.950 . S
C1628 C1629 1.349 . S
C1628 C1630 1.327 . S
C1628 H1653 0.950 . S
C1629 C1628 1.349 . S
C1629 C1645 1.349 . S
C1630 C1628 1.327 . S
C1630 C1649 1.429 . S
C1630 H1654 0.950 . S
C1631 C1648 1.574 . S
C1631 C1650 1.368 . S
C1631 H1655 0.949 . S
H1632 C1636 0.949 . S
C1633 C1634 1.349 . S
C1633 C1635 1.327 . S
C1633 H1656 0.950 . S
C1634 C1633 1.349 . S
C1634 C1646 1.349 . S
C1635 C1633 1.327 . S
C1635 C1651 1.429 . S
C1635 H1657 0.950 . S
C1636 H1632 0.949 . S
C1636 C1644 1.574 . S
C1636 C1652 1.368 . S
H1637 C1645 0.950 . S
H1638 C1643 0.950 . S
H1639 C1644 0.949 . S
H1640 C1646 0.950 . S
H1641 C1647 0.950 . S
H1642 C1648 0.949 . S
C1643 H1638 0.950 . S
C1643 C1645 1.327 . S
C1643 C1649 1.429 . S
C1644 C1636 1.574 . S
C1644 H1639 0.949 . S
C1644 C1650 1.368 . S
C1645 C1629 1.349 . S
C1645 H1637 0.950 . S
C1645 C1643 1.327 . S
C1646 C1634 1.349 . S
C1646 H1640 0.950 . S
C1646 C1647 1.327 . S
C1647 H1641 0.950 . S
C1647 C1646 1.327 . S
C1647 C1651 1.429 . S
C1648 C1631 1.574 . S
C1648 H1642 0.949 . S
C1648 C1652 1.368 . S
C1649 C1630 1.429 . S
C1649 C1643 1.429 . S
C1649 C1650 1.523 . S
C1650 C1631 1.368 . S
C1650 C1644 1.368 . S
C1650 C1649 1.523 . S
C1651 C1635 1.429 . S
C1651 C1647 1.429 . S
C1651 C1652 1.523 1_556 S
C1652 C1636 1.368 . S
C1652 C1648 1.368 . S
C1652 C1651 1.523 1_554 S
H1653 C1628 0.950 . S
H1654 C1630 0.950 . S
H1655 C1631 0.949 . S
H1656 C1633 0.950 . S
H1657 C1635 0.950 . S
C1658 C1659 1.349 . S
C1658 C1660 1.327 . S
C1658 H1683 0.950 . S
C1659 C1658 1.349 . S
C1659 C1675 1.349 . S
C1660 C1658 1.327 . S
C1660 C1679 1.429 . S
C1660 H1684 0.950 . S
C1661 C1678 1.574 . S
C1661 C1680 1.368 . S
C1661 H1685 0.949 . S
H1662 C1666 0.949 . S
C1663 C1664 1.349 . S
C1663 C1665 1.327 . S
C1663 H1686 0.950 . S
C1664 C1663 1.349 . S
C1664 C1676 1.349 . S
C1665 C1663 1.327 . S
C1665 C1681 1.429 . S
C1665 H1687 0.950 . S
C1666 H1662 0.949 . S
C1666 C1674 1.574 . S
C1666 C1682 1.368 . S
H1667 C1675 0.950 . S
H1668 C1673 0.950 . S
H1669 C1674 0.949 . S
H1670 C1676 0.950 . S
H1671 C1677 0.950 . S
H1672 C1678 0.949 . S
C1673 H1668 0.950 . S
C1673 C1675 1.327 . S
C1673 C1679 1.429 . S
C1674 C1666 1.574 . S
C1674 H1669 0.949 . S
C1674 C1680 1.368 . S
C1675 C1659 1.349 . S
C1675 H1667 0.950 . S
C1675 C1673 1.327 . S
C1676 C1664 1.349 . S
C1676 H1670 0.950 . S
C1676 C1677 1.327 . S
C1677 H1671 0.950 . S
C1677 C1676 1.327 . S
C1677 C1681 1.429 . S
C1678 C1661 1.574 . S
C1678 H1672 0.949 . S
C1678 C1682 1.368 . S
C1679 C1660 1.429 . S
C1679 C1673 1.429 . S
C1679 C1680 1.523 1_554 S
C1680 C1661 1.368 . S
C1680 C1674 1.368 . S
C1680 C1679 1.523 1_556 S
C1681 C1665 1.429 . S
C1681 C1677 1.429 . S
C1681 C1682 1.523 . S
C1682 C1666 1.368 . S
C1682 C1678 1.368 . S
C1682 C1681 1.523 . S
H1683 C1658 0.950 . S
H1684 C1660 0.950 . S
H1685 C1661 0.949 . S
H1686 C1663 0.950 . S
H1687 C1665 0.950 . S
C1688 C1689 1.349 . S
C1688 C1690 1.327 . S
C1688 H1713 0.950 . S
C1689 C1688 1.349 . S
C1689 C1705 1.349 . S
C1690 C1688 1.327 . S
C1690 C1709 1.429 . S
C1690 H1714 0.950 . S
C1691 C1708 1.574 . S
C1691 C1710 1.368 . S
C1691 H1715 0.949 . S
H1692 C1696 0.949 . S
C1693 C1694 1.349 . S
C1693 C1695 1.327 . S
C1693 H1716 0.950 . S
C1694 C1693 1.349 . S
C1694 C1706 1.349 . S
C1695 C1693 1.327 . S
C1695 C1711 1.429 . S
C1695 H1717 0.950 . S
C1696 H1692 0.949 . S
C1696 C1704 1.574 . S
C1696 C1712 1.368 . S
H1697 C1705 0.950 . S
H1698 C1703 0.950 . S
H1699 C1704 0.949 . S
H1700 C1706 0.950 . S
H1701 C1707 0.950 . S
H1702 C1708 0.949 . S
C1703 H1698 0.950 . S
C1703 C1705 1.327 . S
C1703 C1709 1.429 . S
C1704 C1696 1.574 . S
C1704 H1699 0.949 . S
C1704 C1710 1.368 . S
C1705 C1689 1.349 . S
C1705 H1697 0.950 . S
C1705 C1703 1.327 . S
C1706 C1694 1.349 . S
C1706 H1700 0.950 . S
C1706 C1707 1.327 . S
C1707 H1701 0.950 . S
C1707 C1706 1.327 . S
C1707 C1711 1.429 . S
C1708 C1691 1.574 . S
C1708 H1702 0.949 . S
C1708 C1712 1.368 . S
C1709 C1690 1.429 . S
C1709 C1703 1.429 . S
C1709 C1710 1.523 . S
C1710 C1691 1.368 . S
C1710 C1704 1.368 . S
C1710 C1709 1.523 . S
C1711 C1695 1.429 . S
C1711 C1707 1.429 . S
C1711 C1712 1.523 1_556 S
C1712 C1696 1.368 . S
C1712 C1708 1.368 . S
C1712 C1711 1.523 1_554 S
H1713 C1688 0.950 . S
H1714 C1690 0.950 . S
H1715 C1691 0.949 . S
H1716 C1693 0.950 . S
H1717 C1695 0.950 . S
C1718 C1719 1.349 . S
C1718 C1720 1.327 . S
C1718 H1743 0.950 . S
C1719 C1718 1.349 . S
C1719 C1735 1.349 . S
C1720 C1718 1.327 . S
C1720 C1739 1.429 . S
C1720 H1744 0.950 . S
C1721 C1738 1.574 . S
C1721 C1740 1.368 . S
C1721 H1745 0.949 . S
H1722 C1726 0.949 . S
C1723 C1724 1.349 . S
C1723 C1725 1.327 . S
C1723 H1746 0.950 . S
C1724 C1723 1.349 . S
C1724 C1736 1.349 . S
C1725 C1723 1.327 . S
C1725 C1741 1.429 . S
C1725 H1747 0.950 . S
C1726 H1722 0.949 . S
C1726 C1734 1.574 . S
C1726 C1742 1.368 . S
H1727 C1735 0.950 . S
H1728 C1733 0.950 . S
H1729 C1734 0.949 . S
H1730 C1736 0.950 . S
H1731 C1737 0.950 . S
H1732 C1738 0.949 . S
C1733 H1728 0.950 . S
C1733 C1735 1.327 . S
C1733 C1739 1.429 . S
C1734 C1726 1.574 . S
C1734 H1729 0.949 . S
C1734 C1740 1.368 . S
C1735 C1719 1.349 . S
C1735 H1727 0.950 . S
C1735 C1733 1.327 . S
C1736 C1724 1.349 . S
C1736 H1730 0.950 . S
C1736 C1737 1.327 . S
C1737 H1731 0.950 . S
C1737 C1736 1.327 . S
C1737 C1741 1.429 . S
C1738 C1721 1.574 . S
C1738 H1732 0.949 . S
C1738 C1742 1.368 . S
C1739 C1720 1.429 . S
C1739 C1733 1.429 . S
C1739 C1740 1.523 1_554 S
C1740 C1721 1.368 . S
C1740 C1734 1.368 . S
C1740 C1739 1.523 1_556 S
C1741 C1725 1.429 . S
C1741 C1737 1.429 . S
C1741 C1742 1.523 . S
C1742 C1726 1.368 . S
C1742 C1738 1.368 . S
C1742 C1741 1.523 . S
H1743 C1718 0.950 . S
H1744 C1720 0.950 . S
H1745 C1721 0.949 . S
H1746 C1723 0.950 . S
H1747 C1725 0.950 . S
C1748 C1749 1.349 . S
C1748 C1750 1.327 . S
C1748 H1773 0.950 . S
C1749 C1748 1.349 . S
C1749 C1765 1.349 . S
C1750 C1748 1.327 . S
C1750 C1769 1.429 . S
C1750 H1774 0.950 . S
C1751 C1768 1.574 . S
C1751 C1770 1.368 . S
C1751 H1775 0.949 . S
H1752 C1756 0.949 . S
C1753 C1754 1.349 . S
C1753 C1755 1.327 . S
C1753 H1776 0.950 . S
C1754 C1753 1.349 . S
C1754 C1766 1.349 . S
C1755 C1753 1.327 . S
C1755 C1771 1.429 . S
C1755 H1777 0.950 . S
C1756 H1752 0.949 . S
C1756 C1764 1.574 . S
C1756 C1772 1.368 . S
H1757 C1765 0.950 . S
H1758 C1763 0.950 . S
H1759 C1764 0.949 . S
H1760 C1766 0.950 . S
H1761 C1767 0.950 . S
H1762 C1768 0.949 . S
C1763 H1758 0.950 . S
C1763 C1765 1.327 . S
C1763 C1769 1.429 . S
C1764 C1756 1.574 . S
C1764 H1759 0.949 . S
C1764 C1770 1.368 . S
C1765 C1749 1.349 . S
C1765 H1757 0.950 . S
C1765 C1763 1.327 . S
C1766 C1754 1.349 . S
C1766 H1760 0.950 . S
C1766 C1767 1.327 . S
C1767 H1761 0.950 . S
C1767 C1766 1.327 . S
C1767 C1771 1.429 . S
C1768 C1751 1.574 . S
C1768 H1762 0.949 . S
C1768 C1772 1.368 . S
C1769 C1750 1.429 . S
C1769 C1763 1.429 . S
C1769 C1770 1.523 1_556 S
C1770 C1751 1.368 . S
C1770 C1764 1.368 . S
C1770 C1769 1.523 1_554 S
C1771 C1755 1.429 . S
C1771 C1767 1.429 . S
C1771 C1772 1.523 . S
C1772 C1756 1.368 . S
C1772 C1768 1.368 . S
C1772 C1771 1.523 . S
H1773 C1748 0.950 . S
H1774 C1750 0.950 . S
H1775 C1751 0.949 . S
H1776 C1753 0.950 . S
H1777 C1755 0.950 . S
C1778 C1779 1.349 . S
C1778 C1780 1.327 . S
C1778 H1803 0.950 . S
C1779 C1778 1.349 . S
C1779 C1795 1.349 . S
C1780 C1778 1.327 . S
C1780 C1799 1.429 . S
C1780 H1804 0.950 . S
C1781 C1798 1.574 . S
C1781 C1800 1.368 . S
C1781 H1805 0.949 . S
H1782 C1786 0.949 . S
C1783 C1784 1.349 . S
C1783 C1785 1.327 . S
C1783 H1806 0.950 . S
C1784 C1783 1.349 . S
C1784 C1796 1.349 . S
C1785 C1783 1.327 . S
C1785 C1801 1.429 . S
C1785 H1807 0.950 . S
C1786 H1782 0.949 . S
C1786 C1794 1.574 . S
C1786 C1802 1.368 . S
H1787 C1795 0.950 . S
H1788 C1793 0.950 . S
H1789 C1794 0.949 . S
H1790 C1796 0.950 . S
H1791 C1797 0.950 . S
H1792 C1798 0.949 . S
C1793 H1788 0.950 . S
C1793 C1795 1.327 . S
C1793 C1799 1.429 . S
C1794 C1786 1.574 . S
C1794 H1789 0.949 . S
C1794 C1800 1.368 . S
C1795 C1779 1.349 . S
C1795 H1787 0.950 . S
C1795 C1793 1.327 . S
C1796 C1784 1.349 . S
C1796 H1790 0.950 . S
C1796 C1797 1.327 . S
C1797 H1791 0.950 . S
C1797 C1796 1.327 . S
C1797 C1801 1.429 . S
C1798 C1781 1.574 . S
C1798 H1792 0.949 . S
C1798 C1802 1.368 . S
C1799 C1780 1.429 . S
C1799 C1793 1.429 . S
C1799 C1800 1.523 . S
C1800 C1781 1.368 . S
C1800 C1794 1.368 . S
C1800 C1799 1.523 . S
C1801 C1785 1.429 . S
C1801 C1797 1.429 . S
C1801 C1802 1.523 1_554 S
C1802 C1786 1.368 . S
C1802 C1798 1.368 . S
C1802 C1801 1.523 1_556 S
H1803 C1778 0.950 . S
H1804 C1780 0.950 . S
H1805 C1781 0.949 . S
H1806 C1783 0.950 . S
H1807 C1785 0.950 . S
C369 C274 1.464 . S
C374 C20 1.503 . S
C399 C205 1.467 . S
C404 C42 1.520 . S
C429 C66 1.503 . S
C434 C228 1.464 . S
C459 C88 1.520 . S
C464 C251 1.467 . S
C489 C112 1.503 . S
C494 C136 1.464 . S
C519 C159 1.467 . S
C524 C134 1.520 . S
C549 C158 1.503 . S
C554 C182 1.464 . S
C579 C113 1.467 . S
C584 C180 1.520 . S
C609 C90 1.464 . S
C614 C204 1.503 . S
C639 C226 1.520 . S
C644 C21 1.467 . S
C669 C44 1.464 . S
C674 C250 1.503 . S
C699 C67 1.467 . S
C704 C272 1.520 . S
C729 C296 1.503 . S
C734 C320 1.464 . S
C759 C343 1.467 . S
C764 C318 1.520 . S
C789 C366 1.464 . S
C794 C342 1.503 . S
C819 C364 1.520 . S
C824 C297 1.467 . S
C849 C19 1.188 . S
C854 C111 1.188 . S
C879 C135 1.294 . S
C884 C43 1.294 . S
C909 C65 1.188 . S
C914 C157 1.188 . S
C939 C89 1.294 . S
C944 C181 1.294 . S
C969 C203 1.188 . S
C974 C295 1.188 . S
C999 C319 1.294 . S
C1004 C227 1.294 . S
C1029 C249 1.188 . S
C1034 C341 1.188 . S
C1059 C273 1.294 . S
C1064 C365 1.294 . S
C1089 C340 1.668 . S
C1094 C18 1.668 . S
C1119 C41 1.735 . S
C1124 C363 1.735 . S
C1149 C64 1.668 . S
C1154 C294 1.668 . S
C1179 C87 1.735 . S
C1184 C317 1.735 . S
C1209 C110 1.668 . S
C1214 C248 1.668 . S
C1239 C133 1.735 . S
C1244 C271 1.735 . S
C1269 C156 1.668 . S
C1274 C202 1.668 . S
C1299 C225 1.735 . S
C1304 C179 1.735 . S
C1329 C17 0.747 . S
C1334 C16 0.747 . S
C1359 C40 0.735 . S
C1364 C39 0.735 . S
C1389 C63 0.747 . S
C1394 C62 0.747 . S
C1419 C85 0.735 . S
C1424 C86 0.735 . S
C1449 C108 0.747 . S
C1454 C109 0.747 . S
C1479 C132 0.735 . S
C1484 C131 0.735 . S
C1509 C155 0.747 . S
C1514 C154 0.747 . S
C1539 C177 0.735 . S
C1544 C178 0.735 . S
C1569 C201 0.747 . S
C1574 C200 0.747 . S
C1599 C223 0.735 . S
C1604 C224 0.735 . S
C1629 C246 0.747 . S
C1634 C247 0.747 . S
C1659 C270 0.735 . S
C1664 C269 0.735 . S
C1689 C293 0.747 . S
C1694 C292 0.747 . S
C1719 C315 0.735 . S
C1724 C316 0.735 . S
C1749 C338 0.747 . S
C1754 C339 0.747 . S
C1779 C362 0.735 . S
C1784 C361 0.735 . S
