# Generated by pormake.
# Topology fcm, (5)-cn, num edge types: 1
# Building blocks:
#     Node 0, Type 0, BuildingBlock: XOMCOT_clean_sbu_1, # of connection points: 5
#     Node 1, Type 0, BuildingBlock: XOMCOT_clean_sbu_1, # of connection points: 5
#     Node 2, Type 0, BuildingBlock: XOMCOT_clean_sbu_1, # of connection points: 5
#     Node 3, Type 0, BuildingBlock: XOMCOT_clean_sbu_1, # of connection points: 5
#     Node 4, Type 0, BuildingBlock: XOMCOT_clean_sbu_1, # of connection points: 5
#     Node 5, Type 0, BuildingBlock: XOMCOT_clean_sbu_1, # of connection points: 5
#     Node 6, Type 0, BuildingBlock: XOMCOT_clean_sbu_1, # of connection points: 5
#     Node 7, Type 0, BuildingBlock: XOMCOT_clean_sbu_1, # of connection points: 5
#     Node 8, Type 0, BuildingBlock: XOMCOT_clean_sbu_1, # of connection points: 5
#     Node 9, Type 0, BuildingBlock: XOMCOT_clean_sbu_1, # of connection points: 5
#     Node 10, Type 0, BuildingBlock: XOMCOT_clean_sbu_1, # of connection points: 5
#     Node 11, Type 0, BuildingBlock: XOMCOT_clean_sbu_1, # of connection points: 5
#     Node 12, Type 0, BuildingBlock: XOMCOT_clean_sbu_1, # of connection points: 5
#     Node 13, Type 0, BuildingBlock: XOMCOT_clean_sbu_1, # of connection points: 5
#     Node 14, Type 0, BuildingBlock: XOMCOT_clean_sbu_1, # of connection points: 5
#     Node 15, Type 0, BuildingBlock: XOMCOT_clean_sbu_1, # of connection points: 5
#     Node 16, Type 0, BuildingBlock: XOMCOT_clean_sbu_1, # of connection points: 5
#     Node 17, Type 0, BuildingBlock: XOMCOT_clean_sbu_1, # of connection points: 5
#     Node 18, Type 0, BuildingBlock: XOMCOT_clean_sbu_1, # of connection points: 5
#     Node 19, Type 0, BuildingBlock: XOMCOT_clean_sbu_1, # of connection points: 5
#     Node 20, Type 0, BuildingBlock: XOMCOT_clean_sbu_1, # of connection points: 5
#     Node 21, Type 0, BuildingBlock: XOMCOT_clean_sbu_1, # of connection points: 5
#     Node 22, Type 0, BuildingBlock: XOMCOT_clean_sbu_1, # of connection points: 5
#     Node 23, Type 0, BuildingBlock: XOMCOT_clean_sbu_1, # of connection points: 5
#     Node 24, Type 0, BuildingBlock: XOMCOT_clean_sbu_1, # of connection points: 5
#     Node 25, Type 0, BuildingBlock: XOMCOT_clean_sbu_1, # of connection points: 5
#     Node 26, Type 0, BuildingBlock: XOMCOT_clean_sbu_1, # of connection points: 5
#     Node 27, Type 0, BuildingBlock: XOMCOT_clean_sbu_1, # of connection points: 5
#     Node 28, Type 0, BuildingBlock: XOMCOT_clean_sbu_1, # of connection points: 5
#     Node 29, Type 0, BuildingBlock: XOMCOT_clean_sbu_1, # of connection points: 5
#     Node 30, Type 0, BuildingBlock: XOMCOT_clean_sbu_1, # of connection points: 5
#     Node 31, Type 0, BuildingBlock: XOMCOT_clean_sbu_1, # of connection points: 5
#     Node 32, Type 0, BuildingBlock: XOMCOT_clean_sbu_1, # of connection points: 5
#     Node 33, Type 0, BuildingBlock: XOMCOT_clean_sbu_1, # of connection points: 5
#     Node 34, Type 0, BuildingBlock: XOMCOT_clean_sbu_1, # of connection points: 5
#     Node 35, Type 0, BuildingBlock: XOMCOT_clean_sbu_1, # of connection points: 5
#     Node 36, Type 0, BuildingBlock: XOMCOT_clean_sbu_1, # of connection points: 5
#     Node 37, Type 0, BuildingBlock: XOMCOT_clean_sbu_1, # of connection points: 5
#     Node 38, Type 0, BuildingBlock: XOMCOT_clean_sbu_1, # of connection points: 5
#     Node 39, Type 0, BuildingBlock: XOMCOT_clean_sbu_1, # of connection points: 5
#     Node 40, Type 0, BuildingBlock: XOMCOT_clean_sbu_1, # of connection points: 5
#     Node 41, Type 0, BuildingBlock: XOMCOT_clean_sbu_1, # of connection points: 5
#     Node 42, Type 0, BuildingBlock: XOMCOT_clean_sbu_1, # of connection points: 5
#     Node 43, Type 0, BuildingBlock: XOMCOT_clean_sbu_1, # of connection points: 5
#     Node 44, Type 0, BuildingBlock: XOMCOT_clean_sbu_1, # of connection points: 5
#     Node 45, Type 0, BuildingBlock: XOMCOT_clean_sbu_1, # of connection points: 5
#     Node 46, Type 0, BuildingBlock: XOMCOT_clean_sbu_1, # of connection points: 5
#     Node 47, Type 0, BuildingBlock: XOMCOT_clean_sbu_1, # of connection points: 5
#     Edge 48, Type (0, 0), BuildingBlock: AJUNOK_clean_linker_0, # of connection points: 2
#     Edge 49, Type (0, 0), BuildingBlock: AJUNOK_clean_linker_0, # of connection points: 2
#     Edge 50, Type (0, 0), BuildingBlock: AJUNOK_clean_linker_0, # of connection points: 2
#     Edge 51, Type (0, 0), BuildingBlock: AJUNOK_clean_linker_0, # of connection points: 2
#     Edge 52, Type (0, 0), BuildingBlock: AJUNOK_clean_linker_0, # of connection points: 2
#     Edge 53, Type (0, 0), BuildingBlock: AJUNOK_clean_linker_0, # of connection points: 2
#     Edge 54, Type (0, 0), BuildingBlock: AJUNOK_clean_linker_0, # of connection points: 2
#     Edge 55, Type (0, 0), BuildingBlock: AJUNOK_clean_linker_0, # of connection points: 2
#     Edge 56, Type (0, 0), BuildingBlock: AJUNOK_clean_linker_0, # of connection points: 2
#     Edge 57, Type (0, 0), BuildingBlock: AJUNOK_clean_linker_0, # of connection points: 2
#     Edge 58, Type (0, 0), BuildingBlock: AJUNOK_clean_linker_0, # of connection points: 2
#     Edge 59, Type (0, 0), BuildingBlock: AJUNOK_clean_linker_0, # of connection points: 2
#     Edge 60, Type (0, 0), BuildingBlock: AJUNOK_clean_linker_0, # of connection points: 2
#     Edge 61, Type (0, 0), BuildingBlock: AJUNOK_clean_linker_0, # of connection points: 2
#     Edge 62, Type (0, 0), BuildingBlock: AJUNOK_clean_linker_0, # of connection points: 2
#     Edge 63, Type (0, 0), BuildingBlock: AJUNOK_clean_linker_0, # of connection points: 2
#     Edge 64, Type (0, 0), BuildingBlock: AJUNOK_clean_linker_0, # of connection points: 2
#     Edge 65, Type (0, 0), BuildingBlock: AJUNOK_clean_linker_0, # of connection points: 2
#     Edge 66, Type (0, 0), BuildingBlock: AJUNOK_clean_linker_0, # of connection points: 2
#     Edge 67, Type (0, 0), BuildingBlock: AJUNOK_clean_linker_0, # of connection points: 2
#     Edge 68, Type (0, 0), BuildingBlock: AJUNOK_clean_linker_0, # of connection points: 2
#     Edge 69, Type (0, 0), BuildingBlock: AJUNOK_clean_linker_0, # of connection points: 2
#     Edge 70, Type (0, 0), BuildingBlock: AJUNOK_clean_linker_0, # of connection points: 2
#     Edge 71, Type (0, 0), BuildingBlock: AJUNOK_clean_linker_0, # of connection points: 2
#     Edge 72, Type (0, 0), BuildingBlock: AJUNOK_clean_linker_0, # of connection points: 2
#     Edge 73, Type (0, 0), BuildingBlock: AJUNOK_clean_linker_0, # of connection points: 2
#     Edge 74, Type (0, 0), BuildingBlock: AJUNOK_clean_linker_0, # of connection points: 2
#     Edge 75, Type (0, 0), BuildingBlock: AJUNOK_clean_linker_0, # of connection points: 2
#     Edge 76, Type (0, 0), BuildingBlock: AJUNOK_clean_linker_0, # of connection points: 2
#     Edge 77, Type (0, 0), BuildingBlock: AJUNOK_clean_linker_0, # of connection points: 2
#     Edge 78, Type (0, 0), BuildingBlock: AJUNOK_clean_linker_0, # of connection points: 2
#     Edge 79, Type (0, 0), BuildingBlock: AJUNOK_clean_linker_0, # of connection points: 2
#     Edge 80, Type (0, 0), BuildingBlock: AJUNOK_clean_linker_0, # of connection points: 2
#     Edge 81, Type (0, 0), BuildingBlock: AJUNOK_clean_linker_0, # of connection points: 2
#     Edge 82, Type (0, 0), BuildingBlock: AJUNOK_clean_linker_0, # of connection points: 2
#     Edge 83, Type (0, 0), BuildingBlock: AJUNOK_clean_linker_0, # of connection points: 2
#     Edge 84, Type (0, 0), BuildingBlock: AJUNOK_clean_linker_0, # of connection points: 2
#     Edge 85, Type (0, 0), BuildingBlock: AJUNOK_clean_linker_0, # of connection points: 2
#     Edge 86, Type (0, 0), BuildingBlock: AJUNOK_clean_linker_0, # of connection points: 2
#     Edge 87, Type (0, 0), BuildingBlock: AJUNOK_clean_linker_0, # of connection points: 2
#     Edge 88, Type (0, 0), BuildingBlock: AJUNOK_clean_linker_0, # of connection points: 2
#     Edge 89, Type (0, 0), BuildingBlock: AJUNOK_clean_linker_0, # of connection points: 2
#     Edge 90, Type (0, 0), BuildingBlock: AJUNOK_clean_linker_0, # of connection points: 2
#     Edge 91, Type (0, 0), BuildingBlock: AJUNOK_clean_linker_0, # of connection points: 2
#     Edge 92, Type (0, 0), BuildingBlock: AJUNOK_clean_linker_0, # of connection points: 2
#     Edge 93, Type (0, 0), BuildingBlock: AJUNOK_clean_linker_0, # of connection points: 2
#     Edge 94, Type (0, 0), BuildingBlock: AJUNOK_clean_linker_0, # of connection points: 2
#     Edge 95, Type (0, 0), BuildingBlock: AJUNOK_clean_linker_0, # of connection points: 2
#     Edge 96, Type (0, 0), BuildingBlock: AJUNOK_clean_linker_0, # of connection points: 2
#     Edge 97, Type (0, 0), BuildingBlock: AJUNOK_clean_linker_0, # of connection points: 2
#     Edge 98, Type (0, 0), BuildingBlock: AJUNOK_clean_linker_0, # of connection points: 2
#     Edge 99, Type (0, 0), BuildingBlock: AJUNOK_clean_linker_0, # of connection points: 2
#     Edge 100, Type (0, 0), BuildingBlock: AJUNOK_clean_linker_0, # of connection points: 2
#     Edge 101, Type (0, 0), BuildingBlock: AJUNOK_clean_linker_0, # of connection points: 2
#     Edge 102, Type (0, 0), BuildingBlock: AJUNOK_clean_linker_0, # of connection points: 2
#     Edge 103, Type (0, 0), BuildingBlock: AJUNOK_clean_linker_0, # of connection points: 2
#     Edge 104, Type (0, 0), BuildingBlock: AJUNOK_clean_linker_0, # of connection points: 2
#     Edge 105, Type (0, 0), BuildingBlock: AJUNOK_clean_linker_0, # of connection points: 2
#     Edge 106, Type (0, 0), BuildingBlock: AJUNOK_clean_linker_0, # of connection points: 2
#     Edge 107, Type (0, 0), BuildingBlock: AJUNOK_clean_linker_0, # of connection points: 2
#     Edge 108, Type (0, 0), BuildingBlock: AJUNOK_clean_linker_0, # of connection points: 2
#     Edge 109, Type (0, 0), BuildingBlock: AJUNOK_clean_linker_0, # of connection points: 2
#     Edge 110, Type (0, 0), BuildingBlock: AJUNOK_clean_linker_0, # of connection points: 2
#     Edge 111, Type (0, 0), BuildingBlock: AJUNOK_clean_linker_0, # of connection points: 2
#     Edge 112, Type (0, 0), BuildingBlock: AJUNOK_clean_linker_0, # of connection points: 2
#     Edge 113, Type (0, 0), BuildingBlock: AJUNOK_clean_linker_0, # of connection points: 2
#     Edge 114, Type (0, 0), BuildingBlock: AJUNOK_clean_linker_0, # of connection points: 2
#     Edge 115, Type (0, 0), BuildingBlock: AJUNOK_clean_linker_0, # of connection points: 2
#     Edge 116, Type (0, 0), BuildingBlock: AJUNOK_clean_linker_0, # of connection points: 2
#     Edge 117, Type (0, 0), BuildingBlock: AJUNOK_clean_linker_0, # of connection points: 2
#     Edge 118, Type (0, 0), BuildingBlock: AJUNOK_clean_linker_0, # of connection points: 2
#     Edge 119, Type (0, 0), BuildingBlock: AJUNOK_clean_linker_0, # of connection points: 2
#     Edge 120, Type (0, 0), BuildingBlock: AJUNOK_clean_linker_0, # of connection points: 2
#     Edge 121, Type (0, 0), BuildingBlock: AJUNOK_clean_linker_0, # of connection points: 2
#     Edge 122, Type (0, 0), BuildingBlock: AJUNOK_clean_linker_0, # of connection points: 2
#     Edge 123, Type (0, 0), BuildingBlock: AJUNOK_clean_linker_0, # of connection points: 2
#     Edge 124, Type (0, 0), BuildingBlock: AJUNOK_clean_linker_0, # of connection points: 2
#     Edge 125, Type (0, 0), BuildingBlock: AJUNOK_clean_linker_0, # of connection points: 2
#     Edge 126, Type (0, 0), BuildingBlock: AJUNOK_clean_linker_0, # of connection points: 2
#     Edge 127, Type (0, 0), BuildingBlock: AJUNOK_clean_linker_0, # of connection points: 2
#     Edge 128, Type (0, 0), BuildingBlock: AJUNOK_clean_linker_0, # of connection points: 2
#     Edge 129, Type (0, 0), BuildingBlock: AJUNOK_clean_linker_0, # of connection points: 2
#     Edge 130, Type (0, 0), BuildingBlock: AJUNOK_clean_linker_0, # of connection points: 2
#     Edge 131, Type (0, 0), BuildingBlock: AJUNOK_clean_linker_0, # of connection points: 2
#     Edge 132, Type (0, 0), BuildingBlock: AJUNOK_clean_linker_0, # of connection points: 2
#     Edge 133, Type (0, 0), BuildingBlock: AJUNOK_clean_linker_0, # of connection points: 2
#     Edge 134, Type (0, 0), BuildingBlock: AJUNOK_clean_linker_0, # of connection points: 2
#     Edge 135, Type (0, 0), BuildingBlock: AJUNOK_clean_linker_0, # of connection points: 2
#     Edge 136, Type (0, 0), BuildingBlock: AJUNOK_clean_linker_0, # of connection points: 2
#     Edge 137, Type (0, 0), BuildingBlock: AJUNOK_clean_linker_0, # of connection points: 2
#     Edge 138, Type (0, 0), BuildingBlock: AJUNOK_clean_linker_0, # of connection points: 2
#     Edge 139, Type (0, 0), BuildingBlock: AJUNOK_clean_linker_0, # of connection points: 2
#     Edge 140, Type (0, 0), BuildingBlock: AJUNOK_clean_linker_0, # of connection points: 2
#     Edge 141, Type (0, 0), BuildingBlock: AJUNOK_clean_linker_0, # of connection points: 2
#     Edge 142, Type (0, 0), BuildingBlock: AJUNOK_clean_linker_0, # of connection points: 2
#     Edge 143, Type (0, 0), BuildingBlock: AJUNOK_clean_linker_0, # of connection points: 2
#     Edge 144, Type (0, 0), BuildingBlock: AJUNOK_clean_linker_0, # of connection points: 2
#     Edge 145, Type (0, 0), BuildingBlock: AJUNOK_clean_linker_0, # of connection points: 2
#     Edge 146, Type (0, 0), BuildingBlock: AJUNOK_clean_linker_0, # of connection points: 2
#     Edge 147, Type (0, 0), BuildingBlock: AJUNOK_clean_linker_0, # of connection points: 2
#     Edge 148, Type (0, 0), BuildingBlock: AJUNOK_clean_linker_0, # of connection points: 2
#     Edge 149, Type (0, 0), BuildingBlock: AJUNOK_clean_linker_0, # of connection points: 2
#     Edge 150, Type (0, 0), BuildingBlock: AJUNOK_clean_linker_0, # of connection points: 2
#     Edge 151, Type (0, 0), BuildingBlock: AJUNOK_clean_linker_0, # of connection points: 2
#     Edge 152, Type (0, 0), BuildingBlock: AJUNOK_clean_linker_0, # of connection points: 2
#     Edge 153, Type (0, 0), BuildingBlock: AJUNOK_clean_linker_0, # of connection points: 2
#     Edge 154, Type (0, 0), BuildingBlock: AJUNOK_clean_linker_0, # of connection points: 2
#     Edge 155, Type (0, 0), BuildingBlock: AJUNOK_clean_linker_0, # of connection points: 2
#     Edge 156, Type (0, 0), BuildingBlock: AJUNOK_clean_linker_0, # of connection points: 2
#     Edge 157, Type (0, 0), BuildingBlock: AJUNOK_clean_linker_0, # of connection points: 2
#     Edge 158, Type (0, 0), BuildingBlock: AJUNOK_clean_linker_0, # of connection points: 2
#     Edge 159, Type (0, 0), BuildingBlock: AJUNOK_clean_linker_0, # of connection points: 2
#     Edge 160, Type (0, 0), BuildingBlock: AJUNOK_clean_linker_0, # of connection points: 2
#     Edge 161, Type (0, 0), BuildingBlock: AJUNOK_clean_linker_0, # of connection points: 2
#     Edge 162, Type (0, 0), BuildingBlock: AJUNOK_clean_linker_0, # of connection points: 2
#     Edge 163, Type (0, 0), BuildingBlock: AJUNOK_clean_linker_0, # of connection points: 2
#     Edge 164, Type (0, 0), BuildingBlock: AJUNOK_clean_linker_0, # of connection points: 2
#     Edge 165, Type (0, 0), BuildingBlock: AJUNOK_clean_linker_0, # of connection points: 2
#     Edge 166, Type (0, 0), BuildingBlock: AJUNOK_clean_linker_0, # of connection points: 2
#     Edge 167, Type (0, 0), BuildingBlock: AJUNOK_clean_linker_0, # of connection points: 2
# Relax obj value: 0.359
# Max RMSD: 0.279
# Mean RMSD: 0.279
data_MOF--net-fcm--node1-XOMCOT_clean_sbu_1--edge1-AJUNOK_clean_linker_0
_symmetry_space_group_name_H-M    P1
_symmetry_Int_Tables_number       1
_symmetry_cell_setting            triclinic
loop_
_symmetry_equiv_pos_as_xyz
'x, y, z'
_cell_length_a     53.402868
_cell_length_b     53.431104
_cell_length_c     53.510961
_cell_angle_alpha  90.148551
_cell_angle_beta   90.051174
_cell_angle_gamma 90.04099
loop_
_atom_site_label
_atom_site_type_symbol
_atom_site_fract_x
_atom_site_fract_y
_atom_site_fract_z
_atom_type_partial_charge
C0 C 0.00593 0.04283 0.34857 0.0
C1 C 0.99965 0.03315 0.32565 0.0
N2 N 0.02095 0.02981 0.31263 0.0
N3 N 0.03098 0.04552 0.34968 0.0
C4 C 0.03969 0.03708 0.3277 0.0
H5 H 0.99312 0.04807 0.36332 0.0
Co6 Co 0.04778 0.05824 0.37638 0.0
C7 C 0.09727 0.07533 0.35875 0.0
O8 O 0.09442 0.0937 0.37484 0.0
N9 N 0.06462 0.07011 0.40494 0.0
C10 C 0.07189 0.08408 0.44336 0.0
C11 C 0.05934 0.08863 0.42128 0.0
C12 C 0.08121 0.05543 0.41709 0.0
N13 N 0.08498 0.06262 0.44086 0.0
O14 O 0.05054 0.02452 0.38847 0.0
H15 H 0.04561 0.10316 0.41842 0.0
H16 H 0.08804 0.03787 0.40966 0.0
O17 O 0.08066 0.05784 0.35772 0.0
C18 C 0.03275 0.02271 0.40435 0.0
O19 O 0.0201 0.04298 0.4102 0.0
N20 N 0.04008 0.09044 0.3643 0.0
C21 C 0.00501 0.11398 0.33381 0.0
C22 C 0.02922 0.10943 0.32511 0.0
C23 C 0.04617 0.09691 0.3403 0.0
C24 C 0.01803 0.09865 0.3743 0.0
C25 C 1.00001 0.11029 0.35925 0.0
H26 H 0.06161 0.08843 0.3307 0.0
H27 H 0.01233 0.09212 0.39253 0.0
H28 H 0.05928 0.03644 0.3227 0.0
H29 H 0.9809 0.02976 0.31869 0.0
H30 H 0.06973 0.09459 0.46054 0.0
H31 H 0.03394 0.11243 0.30565 0.0
H32 H 0.98145 0.11359 0.36671 0.0
C33 C 0.23285 0.73643 0.5724 0.0
C34 C 0.24271 0.73066 0.54961 0.0
N35 N 0.24821 0.75219 0.53799 0.0
N36 N 0.23197 0.76158 0.57521 0.0
C37 C 0.24174 0.77072 0.55388 0.0
H38 H 0.22534 0.72295 0.58527 0.0
Co39 Co 0.21864 0.7785 0.60258 0.0
C40 C 0.1844 0.81616 0.57876 0.0
O41 O 0.16563 0.80666 0.59138 0.0
N42 N 0.20774 0.79574 0.63063 0.0
C43 C 0.19095 0.81617 0.66273 0.0
C44 C 0.18598 0.80116 0.6423 0.0
C45 C 0.22545 0.80748 0.6443 0.0
N46 N 0.21585 0.82018 0.66381 0.0
O47 O 0.23347 0.75254 0.62444 0.0
H48 H 0.16767 0.79464 0.63669 0.0
H49 H 0.24521 0.80678 0.63984 0.0
O50 O 0.20635 0.80662 0.581 0.0
C51 C 0.23147 0.73071 0.63412 0.0
O52 O 0.21195 0.71657 0.62942 0.0
N53 N 0.18747 0.76037 0.59779 0.0
C54 C 0.15191 0.72446 0.58418 0.0
C55 C 0.16238 0.74018 0.56629 0.0
C56 C 0.17981 0.75804 0.57342 0.0
C57 C 0.1746 0.74776 0.61594 0.0
C58 C 0.15694 0.7292 0.60949 0.0
H59 H 0.1886 0.76873 0.55875 0.0
H60 H 0.17957 0.75021 0.63538 0.0
H61 H 0.24288 0.79048 0.54959 0.0
H62 H 0.24486 0.71208 0.54177 0.0
H63 H 0.17738 0.82301 0.67611 0.0
H64 H 0.15827 0.73764 0.5466 0.0
H65 H 0.14865 0.71771 0.62392 0.0
C66 C 0.50398 0.95465 0.83574 0.0
C67 C 0.51181 0.96265 0.81281 0.0
N68 N 0.49194 0.97226 0.80073 0.0
N69 N 0.47919 0.95885 0.83804 0.0
C70 C 0.47229 0.96965 0.81639 0.0
H71 H 0.51585 0.94708 0.85023 0.0
Co72 Co 0.46232 0.95335 0.86756 0.0
C73 C 0.4099 0.9412 0.8562 0.0
O74 O 0.41208 0.92468 0.87419 0.0
N75 N 0.44643 0.94887 0.89873 0.0
C76 C 0.43997 0.94036 0.93886 0.0
C77 C 0.45083 0.93207 0.91704 0.0
C78 C 0.43218 0.96671 0.90982 0.0
N79 N 0.42844 0.96227 0.93427 0.0
O80 O 0.46333 0.98875 0.8739 0.0
H81 H 0.46254 0.91573 0.91543 0.0
H82 H 0.42656 0.98389 0.90075 0.0
O83 O 0.42879 0.95498 0.85044 0.0
C84 C 0.48413 0.99224 0.88515 0.0
O85 O 0.49815 0.97271 0.89024 0.0
N86 N 0.46529 0.91869 0.86121 0.0
C87 C 0.49503 0.88544 0.83435 0.0
C88 C 0.4711 0.89167 0.82578 0.0
C89 C 0.4565 0.90843 0.83941 0.0
C90 C 0.48681 0.90965 0.87163 0.0
C91 C 0.50208 0.89298 0.85843 0.0
H92 H 0.44055 0.91602 0.82988 0.0
H93 H 0.49473 0.91891 0.88778 0.0
H94 H 0.45342 0.97582 0.81243 0.0
H95 H 0.53088 0.96246 0.80596 0.0
H96 H 0.44186 0.93183 0.9571 0.0
H97 H 0.46498 0.88605 0.80728 0.0
H98 H 0.52061 0.88888 0.86556 0.0
C99 C 0.27149 0.27039 0.07885 0.0
C100 C 0.25954 0.27582 0.05677 0.0
N101 N 0.25341 0.25404 0.04562 0.0
N102 N 0.27296 0.24535 0.08135 0.0
C103 C 0.26175 0.23586 0.06087 0.0
H104 H 0.27898 0.28377 0.09209 0.0
Co105 Co 0.28725 0.22926 0.10808 0.0
C106 C 0.30509 0.18067 0.09018 0.0
O107 O 0.32602 0.18683 0.10154 0.0
N108 N 0.30059 0.21266 0.13615 0.0
C109 C 0.3185 0.19973 0.1714 0.0
C110 C 0.32024 0.21629 0.15167 0.0
C111 C 0.28755 0.19374 0.14674 0.0
N112 N 0.29775 0.18573 0.16819 0.0
O113 O 0.2543 0.22649 0.12258 0.0
H114 H 0.33441 0.23054 0.14959 0.0
H115 H 0.27025 0.18635 0.13919 0.0
O116 O 0.28625 0.19576 0.09064 0.0
C117 C 0.254 0.24523 0.13756 0.0
O118 O 0.27445 0.25876 0.13975 0.0
N119 N 0.31877 0.23701 0.09446 0.0
C120 C 0.34872 0.26972 0.06712 0.0
C121 C 0.33997 0.24752 0.05629 0.0
C122 C 0.32462 0.23162 0.07011 0.0
C123 C 0.32905 0.25747 0.10583 0.0
C124 C 0.34421 0.27405 0.09252 0.0
H125 H 0.31483 0.21714 0.05997 0.0
H126 H 0.32275 0.26298 0.1242 0.0
H127 H 0.25981 0.21606 0.05706 0.0
H128 H 0.25638 0.29429 0.04911 0.0
H129 H 0.33072 0.19907 0.18754 0.0
H130 H 0.34265 0.24386 0.03655 0.0
H131 H 0.35058 0.29113 0.10144 0.0
C132 C 0.9957 0.99986 0.1752 0.0
C133 C 0.99318 0.00895 0.19885 0.0
N134 N 0.01597 0.00942 0.20933 0.0
N135 N 0.02003 0.99445 0.1707 0.0
C136 C 0.03207 0.00096 0.19192 0.0
H137 H 0.98019 0.9955 0.16323 0.0
Co138 Co 0.03237 0.97777 0.14269 0.0
C139 C 0.06851 0.94039 0.16186 0.0
O140 O 0.05602 0.92381 0.14868 0.0
N141 N 0.04521 0.96361 0.11416 0.0
C142 C 0.05806 0.94647 0.07864 0.0
C143 C 0.04393 0.94279 0.09986 0.0
C144 C 0.06035 0.97922 0.10158 0.0
N145 N 0.06816 0.96959 0.07972 0.0
O146 O 0.00594 0.99396 0.12198 0.0
H147 H 0.0335 0.92605 0.10421 0.0
H148 H 0.06542 0.9975 0.10867 0.0
O149 O 0.0611 0.96326 0.16211 0.0
C150 C 0.98299 0.99353 0.11483 0.0
O151 O 0.96724 0.97696 0.1237 0.0
N152 N 0.01176 0.94933 0.15133 0.0
C153 C 0.9745 0.91912 0.1717 0.0
C154 C 0.99393 0.92807 0.1866 0.0
C155 C 0.01226 0.943 0.17615 0.0
C156 C 0.9953 0.93725 0.13584 0.0
C157 C 0.97605 0.92231 0.14575 0.0
H158 H 0.0259 0.95092 0.18874 0.0
H159 H 0.99528 0.94105 0.11603 0.0
H160 H 0.05174 0.99754 0.19534 0.0
H161 H 0.97576 0.01317 0.20833 0.0
H162 H 0.06011 0.9334 0.06329 0.0
H163 H 0.99415 0.9248 0.20659 0.0
H164 H 0.96171 0.91481 0.13351 0.0
C165 C 0.2914 0.74417 0.39905 0.0
C166 C 0.28402 0.73572 0.42209 0.0
N167 N 0.28015 0.75582 0.43678 0.0
N168 N 0.29203 0.76938 0.39944 0.0
C169 C 0.28481 0.77599 0.42257 0.0
H170 H 0.29636 0.73273 0.38311 0.0
Co171 Co 0.3021 0.7886 0.37311 0.0
C172 C 0.31635 0.83837 0.39282 0.0
O173 O 0.33421 0.83756 0.37599 0.0
N174 N 0.31128 0.80764 0.3451 0.0
C175 C 0.32161 0.81792 0.30627 0.0
C176 C 0.32781 0.80327 0.32655 0.0
C177 C 0.29582 0.82541 0.3359 0.0
N178 N 0.30109 0.83139 0.31209 0.0
O179 O 0.26771 0.79017 0.36243 0.0
H180 H 0.34199 0.7889 0.32667 0.0
H181 H 0.2797 0.83244 0.34594 0.0
O182 O 0.30043 0.82027 0.39386 0.0
C183 C 0.26629 0.77312 0.34567 0.0
O184 O 0.28674 0.7609 0.33956 0.0
N185 N 0.33541 0.78245 0.3832 0.0
C186 C 0.36264 0.74752 0.41063 0.0
C187 C 0.35681 0.77083 0.42093 0.0
C188 C 0.3429 0.78788 0.4071 0.0
C189 C 0.34435 0.76141 0.37169 0.0
C190 C 0.35789 0.74349 0.38518 0.0
H191 H 0.33433 0.80254 0.41776 0.0
H192 H 0.33709 0.75606 0.3536 0.0
H193 H 0.28291 0.79512 0.42893 0.0
H194 H 0.28203 0.71639 0.42778 0.0
H195 H 0.3301 0.81697 0.28792 0.0
H196 H 0.36016 0.77459 0.44057 0.0
H197 H 0.36182 0.72553 0.37663 0.0
C198 C 0.51646 0.03618 0.67191 0.0
C199 C 0.52246 0.02673 0.69501 0.0
N200 N 0.50094 0.02129 0.70683 0.0
N201 N 0.49133 0.03632 0.66934 0.0
C202 C 0.48237 0.02714 0.69093 0.0
H203 H 0.52952 0.04208 0.65767 0.0
Co204 Co 0.47465 0.04539 0.64076 0.0
C205 C 0.42224 0.0548 0.65414 0.0
O206 O 0.42409 0.07447 0.63959 0.0
N207 N 0.4581 0.05363 0.61083 0.0
C208 C 0.44821 0.06717 0.57288 0.0
C209 C 0.46154 0.07239 0.59434 0.0
C210 C 0.44227 0.03762 0.59914 0.0
N211 N 0.43618 0.04522 0.57599 0.0
O212 O 0.47687 0.01129 0.62972 0.0
H213 H 0.47395 0.08813 0.59693 0.0
H214 H 0.4368 0.01969 0.60675 0.0
O215 O 0.44128 0.04047 0.65724 0.0
C216 C 0.49627 0.01139 0.61574 0.0
O217 O 0.50729 0.03294 0.61138 0.0
N218 N 0.4771 0.07883 0.65147 0.0
C219 C 0.50738 0.108 0.68218 0.0
C220 C 0.48326 0.10133 0.68986 0.0
C221 C 0.46845 0.0865 0.67429 0.0
C222 C 0.49878 0.0887 0.64225 0.0
C223 C 0.51434 0.1033 0.65739 0.0
H224 H 0.45233 0.07812 0.68261 0.0
H225 H 0.50638 0.0816 0.62493 0.0
H226 H 0.46275 0.02387 0.69473 0.0
H227 H 0.54107 0.02378 0.70246 0.0
H228 H 0.44846 0.07796 0.55579 0.0
H229 H 0.47702 0.10512 0.70875 0.0
H230 H 0.53286 0.10817 0.65074 0.0
C231 C 0.21004 0.25864 0.90719 0.0
C232 C 0.21577 0.2668 0.93081 0.0
N233 N 0.21816 0.24662 0.94556 0.0
N234 N 0.20905 0.23344 0.90706 0.0
C235 C 0.21438 0.22656 0.93071 0.0
H236 H 0.20667 0.27035 0.8911 0.0
Co237 Co 0.2011 0.21548 0.87873 0.0
C238 C 0.19065 0.16369 0.89281 0.0
O239 O 0.17217 0.16542 0.87669 0.0
N240 N 0.19403 0.19806 0.8489 0.0
C241 C 0.18449 0.18976 0.80932 0.0
C242 C 0.17734 0.20264 0.83049 0.0
C243 C 0.21055 0.18183 0.83865 0.0
N244 N 0.20544 0.17681 0.8146 0.0
O245 O 0.23568 0.217 0.86901 0.0
H246 H 0.16233 0.2161 0.83142 0.0
H247 H 0.2276 0.17588 0.84784 0.0
O248 O 0.20487 0.18274 0.89673 0.0
C249 C 0.23602 0.23517 0.85352 0.0
O250 O 0.21478 0.24644 0.84832 0.0
N251 N 0.1672 0.21838 0.88777 0.0
C252 C 0.13762 0.24976 0.91667 0.0
C253 C 0.14358 0.22576 0.92514 0.0
C254 C 0.15843 0.21026 0.91037 0.0
C255 C 0.15787 0.23985 0.87762 0.0
C256 C 0.1429 0.25589 0.89181 0.0
H257 H 0.16608 0.19413 0.91936 0.0
H258 H 0.1657 0.24703 0.86048 0.0
H259 H 0.21515 0.20737 0.93705 0.0
H260 H 0.21846 0.28602 0.93663 0.0
H261 H 0.17629 0.19155 0.7909 0.0
H262 H 0.13979 0.22029 0.94426 0.0
H263 H 0.13818 0.27416 0.88446 0.0
C264 C 0.3366 0.99681 0.0253 0.0
C265 C 0.31482 0.98985 0.01362 0.0
N266 N 0.3002 0.01024 0.01169 0.0
N267 N 0.33568 0.02146 0.03058 0.0
C268 C 0.31333 0.02926 0.0219 0.0
H269 H 0.35201 0.98462 0.03012 0.0
Co270 Co 0.3612 0.03739 0.04728 0.0
C271 C 0.34262 0.08636 0.06405 0.0
O272 O 0.3538 0.08082 0.08519 0.0
N273 N 0.3887 0.053 0.06352 0.0
C274 C 0.42453 0.0594 0.08391 0.0
C275 C 0.40213 0.04648 0.08389 0.0
C276 C 0.40308 0.07034 0.05197 0.0
N277 N 0.42518 0.07417 0.06355 0.0
O278 O 0.37769 0.04121 0.01564 0.0
H279 H 0.39713 0.03196 0.09694 0.0
H280 H 0.39817 0.0788 0.03428 0.0
O281 O 0.34381 0.07086 0.04558 0.0
C282 C 0.3935 0.02326 0.01482 0.0
O283 O 0.39734 0.01021 0.03526 0.0
N284 N 0.34489 0.02887 0.07726 0.0
C285 C 0.31233 0.99483 0.09974 0.0
C286 C 0.3041 0.01883 0.09343 0.0
C287 C 0.32046 0.03534 0.08165 0.0
C288 C 0.35384 0.00665 0.08604 0.0
C289 C 0.33787 0.98933 0.09739 0.0
H290 H 0.31201 0.05119 0.07268 0.0
H291 H 0.37237 0.00052 0.08074 0.0
H292 H 0.30673 0.04835 0.02322 0.0
H293 H 0.30977 0.97113 0.00766 0.0
H294 H 0.43994 0.05651 0.09673 0.0
H295 H 0.28456 0.02395 0.09527 0.0
H296 H 0.34497 0.97089 0.10185 0.0
C297 C 0.26864 0.07624 0.2837 0.0
C298 C 0.27187 0.05299 0.27318 0.0
N299 N 0.24998 0.04614 0.26281 0.0
N300 N 0.24485 0.08382 0.27975 0.0
C301 C 0.23391 0.06503 0.26694 0.0
H302 H 0.28296 0.08733 0.29277 0.0
Co303 Co 0.2322 0.1152 0.28689 0.0
C304 C 0.18097 0.10815 0.30437 0.0
O305 O 0.1872 0.12454 0.32162 0.0
N306 N 0.21943 0.14762 0.2928 0.0
C307 C 0.20808 0.18555 0.30588 0.0
C308 C 0.22333 0.16525 0.31056 0.0
C309 C 0.20211 0.15793 0.27742 0.0
N310 N 0.19486 0.18077 0.28499 0.0
O311 O 0.23196 0.12245 0.25179 0.0
H312 H 0.23587 0.16355 0.32628 0.0
H313 H 0.19421 0.14847 0.26134 0.0
O314 O 0.19709 0.10168 0.28771 0.0
C315 C 0.2544 0.13013 0.2484 0.0
O316 O 0.26947 0.13122 0.2678 0.0
N317 N 0.2369 0.10814 0.32095 0.0
C318 C 0.26494 0.08296 0.35673 0.0
C319 C 0.24136 0.07401 0.34967 0.0
C320 C 0.22776 0.08666 0.33146 0.0
C321 C 0.25855 0.1185 0.32973 0.0
C322 C 0.27288 0.10623 0.34774 0.0
H323 H 0.21227 0.07673 0.32324 0.0
H324 H 0.2668 0.1342 0.32005 0.0
H325 H 0.21501 0.06568 0.25965 0.0
H326 H 0.28904 0.04226 0.27248 0.0
H327 H 0.20678 0.20249 0.31694 0.0
H328 H 0.23497 0.0557 0.35557 0.0
H329 H 0.29121 0.11351 0.35254 0.0
C330 C 0.16916 0.00605 0.5458 0.0
C331 C 0.19233 0.01354 0.53768 0.0
N332 N 0.20383 0.99366 0.52729 0.0
N333 N 0.16617 0.98151 0.54076 0.0
C334 C 0.18759 0.97442 0.5295 0.0
H335 H 0.15517 0.01785 0.55444 0.0
Co336 Co 0.13682 0.96407 0.54646 0.0
C337 C 0.1491 0.91104 0.55142 0.0
O338 O 0.13424 0.91194 0.57093 0.0
N339 N 0.10611 0.94683 0.55093 0.0
C340 C 0.06926 0.93108 0.56238 0.0
C341 C 0.08953 0.94529 0.56993 0.0
C342 C 0.09538 0.93349 0.53218 0.0
N343 N 0.07307 0.92376 0.53857 0.0
O344 O 0.1273 0.97126 0.51264 0.0
H345 H 0.09168 0.95399 0.58803 0.0
H346 H 0.10377 0.93096 0.51394 0.0
O347 O 0.15312 0.931 0.53856 0.0
C348 C 0.11424 0.99109 0.51602 0.0
O349 O 0.11016 0.99849 0.53909 0.0
N350 N 0.14601 0.9621 0.5804 0.0
C351 C 0.17544 0.99215 0.61117 0.0
C352 C 0.18458 0.96919 0.60236 0.0
C353 C 0.16953 0.95429 0.587 0.0
C354 C 0.13543 0.9819 0.59261 0.0
C355 C 0.14995 0.99745 0.60786 0.0
H356 H 0.17875 0.93942 0.57702 0.0
H357 H 0.11738 0.98881 0.5867 0.0
H358 H 0.19119 0.95555 0.52312 0.0
H359 H 0.19988 0.03232 0.53876 0.0
H360 H 0.05263 0.92721 0.57325 0.0
H361 H 0.20409 0.96421 0.60485 0.0
H362 H 0.1421 0.01508 0.61407 0.0
C363 C 0.23362 0.91338 0.78192 0.0
C364 C 0.22723 0.93656 0.77312 0.0
N365 N 0.24846 0.94858 0.7669 0.0
N366 N 0.25876 0.91102 0.78153 0.0
C367 C 0.26735 0.93274 0.77218 0.0
H368 H 0.22076 0.89903 0.78807 0.0
Co369 Co 0.27511 0.88236 0.79115 0.0
C370 C 0.32384 0.89732 0.81281 0.0
O371 O 0.31934 0.87989 0.82945 0.0
N372 N 0.29103 0.85182 0.79986 0.0
C373 C 0.29846 0.81326 0.81367 0.0
C374 C 0.28652 0.83556 0.81863 0.0
C375 C 0.30647 0.83905 0.78425 0.0
N376 N 0.31077 0.81543 0.79183 0.0
O377 O 0.28014 0.87485 0.75648 0.0
H378 H 0.27437 0.83889 0.83436 0.0
H379 H 0.31285 0.84615 0.76647 0.0
O380 O 0.30812 0.90066 0.79483 0.0
C381 C 0.2606 0.86238 0.75055 0.0
O382 O 0.24431 0.85687 0.76807 0.0
N383 N 0.26581 0.89011 0.82428 0.0
C384 C 0.23197 0.9145 0.85574 0.0
C385 C 0.2551 0.92534 0.85016 0.0
C386 C 0.27142 0.91319 0.83394 0.0
C387 C 0.24435 0.87824 0.83156 0.0
C388 C 0.22712 0.89013 0.84733 0.0
H389 H 0.28601 0.92451 0.826 0.0
H390 H 0.23871 0.86114 0.82227 0.0
H391 H 0.28699 0.93693 0.76956 0.0
H392 H 0.20845 0.94389 0.77106 0.0
H393 H 0.29701 0.79629 0.82458 0.0
H394 H 0.25919 0.94446 0.85564 0.0
H395 H 0.20927 0.88126 0.85107 0.0
C396 C 0.33534 0.01295 0.46634 0.0
C397 C 0.31211 0.01926 0.4753 0.0
N398 N 0.30012 0.99797 0.48126 0.0
N399 N 0.33794 0.98785 0.46695 0.0
C400 C 0.31611 0.97918 0.47613 0.0
H401 H 0.3497 0.02587 0.46032 0.0
Co402 Co 0.36734 0.9715 0.45919 0.0
C403 C 0.35497 0.91995 0.44496 0.0
O404 O 0.37161 0.9235 0.42725 0.0
N405 N 0.39814 0.95543 0.45252 0.0
C406 C 0.43827 0.94834 0.44404 0.0
C407 C 0.417 0.96093 0.43664 0.0
C408 C 0.40829 0.93893 0.46881 0.0
N409 N 0.43264 0.93462 0.46431 0.0
O410 O 0.37617 0.97225 0.49414 0.0
H411 H 0.41627 0.97465 0.42192 0.0
H412 H 0.39867 0.93209 0.48523 0.0
O413 O 0.35033 0.93776 0.46055 0.0
C414 C 0.39005 0.9918 0.49476 0.0
O415 O 0.39373 0.00404 0.47381 0.0
N416 N 0.35931 0.9756 0.42527 0.0
C417 C 0.33254 0.00679 0.39365 0.0
C418 C 0.32332 0.98303 0.3995 0.0
C419 C 0.3369 0.96776 0.41562 0.0
C420 C 0.37011 0.99704 0.41656 0.0
C421 C 0.357 0.01298 0.40063 0.0
H422 H 0.32714 0.95205 0.42326 0.0
H423 H 0.3868 0.00426 0.42537 0.0
H424 H 0.31232 0.95967 0.47994 0.0
H425 H 0.30464 0.03796 0.47755 0.0
H426 H 0.45689 0.95068 0.4364 0.0
H427 H 0.30452 0.97756 0.39413 0.0
H428 H 0.36466 0.0313 0.39654 0.0
C429 C 0.23951 0.08379 0.71276 0.0
C430 C 0.2313 0.06125 0.72182 0.0
N431 N 0.25153 0.04709 0.72667 0.0
N432 N 0.26473 0.08371 0.71207 0.0
C433 C 0.27159 0.06116 0.72081 0.0
H434 H 0.22789 0.09933 0.70705 0.0
Co435 Co 0.28318 0.11059 0.70169 0.0
C436 C 0.3335 0.09331 0.68857 0.0
O437 O 0.33138 0.1089 0.66976 0.0
N438 N 0.30135 0.13937 0.69222 0.0
C439 C 0.31068 0.17781 0.67959 0.0
C440 C 0.29698 0.15655 0.67431 0.0
C441 C 0.31826 0.1504 0.70762 0.0
N442 N 0.32386 0.17394 0.70073 0.0
O443 O 0.28381 0.12198 0.73561 0.0
H444 H 0.28327 0.15479 0.65959 0.0
H445 H 0.32437 0.14226 0.7251 0.0
O446 O 0.31555 0.09159 0.70453 0.0
C447 C 0.26639 0.13831 0.73657 0.0
O448 O 0.25462 0.14426 0.71585 0.0
N449 N 0.27807 0.09925 0.66859 0.0
C450 C 0.24628 0.07029 0.63888 0.0
C451 C 0.26956 0.06103 0.64625 0.0
C452 C 0.28492 0.07553 0.66154 0.0
C453 C 0.2569 0.10965 0.65873 0.0
C454 C 0.24054 0.09536 0.64399 0.0
H455 H 0.29956 0.06556 0.67096 0.0
H456 H 0.25035 0.12746 0.66573 0.0
H457 H 0.29082 0.05531 0.72329 0.0
H458 H 0.21202 0.0556 0.72451 0.0
H459 H 0.30954 0.19542 0.6697 0.0
H460 H 0.27433 0.04155 0.64316 0.0
H461 H 0.22253 0.10305 0.63875 0.0
C462 C 0.16534 0.98993 0.95931 0.0
C463 C 0.18932 0.98432 0.96659 0.0
N464 N 0.20015 0.00553 0.97482 0.0
N465 N 0.16128 0.01465 0.9626 0.0
C466 C 0.1828 0.02365 0.97227 0.0
H467 H 0.15174 0.97683 0.952 0.0
Co468 Co 0.13161 0.03115 0.95517 0.0
C469 C 0.14585 0.08123 0.93746 0.0
O470 O 0.12748 0.07874 0.92135 0.0
N471 N 0.10057 0.04758 0.94877 0.0
C472 C 0.06345 0.06022 0.93445 0.0
C473 C 0.08425 0.04578 0.92949 0.0
C474 C 0.08902 0.06327 0.96513 0.0
N475 N 0.06649 0.07112 0.95694 0.0
O476 O 0.12524 0.03367 0.99005 0.0
H477 H 0.08695 0.03471 0.91283 0.0
H478 H 0.0969 0.06893 0.9829 0.0
O479 O 0.14968 0.06391 0.9536 0.0
C480 C 0.115 0.01248 0.9942 0.0
O481 O 0.11082 0.99741 0.9752 0.0
N482 N 0.13797 0.02434 0.92114 0.0
C483 C 0.1622 0.99013 0.89016 0.0
C484 C 0.17305 0.0134 0.89531 0.0
C485 C 0.16077 0.03019 0.91102 0.0
C486 C 0.12572 0.00321 0.91343 0.0
C487 C 0.13754 0.98577 0.89784 0.0
H488 H 0.17199 0.04511 0.91852 0.0
H489 H 0.10861 0.99766 0.92268 0.0
H490 H 0.18587 0.04312 0.97697 0.0
H491 H 0.1981 0.96607 0.96607 0.0
H492 H 0.04699 0.06193 0.92275 0.0
H493 H 0.19219 0.01729 0.88982 0.0
H494 H 0.1287 0.96781 0.89453 0.0
C495 C 0.25428 0.9198 0.19246 0.0
C496 C 0.26077 0.9439 0.19829 0.0
N497 N 0.24069 0.9552 0.2085 0.0
N498 N 0.23022 0.91585 0.1989 0.0
C499 C 0.22244 0.93769 0.20887 0.0
H500 H 0.26666 0.90573 0.18488 0.0
Co501 Co 0.21462 0.88501 0.19617 0.0
C502 C 0.16072 0.89395 0.18959 0.0
O503 O 0.16157 0.87549 0.17336 0.0
N504 N 0.19976 0.85302 0.19451 0.0
C505 C 0.19187 0.81256 0.18836 0.0
C506 C 0.20391 0.83337 0.1791 0.0
C507 C 0.18494 0.84362 0.21279 0.0
N508 N 0.17996 0.81915 0.2095 0.0
O509 O 0.21991 0.87998 0.23121 0.0
H510 H 0.21557 0.83353 0.16269 0.0
H511 H 0.17886 0.85428 0.22891 0.0
O512 O 0.18085 0.90067 0.20096 0.0
C513 C 0.24186 0.8705 0.23207 0.0
O514 O 0.25348 0.86582 0.21094 0.0
N515 N 0.21356 0.88991 0.1613 0.0
C516 C 0.24094 0.91706 0.12652 0.0
C517 C 0.21712 0.9252 0.13381 0.0
C518 C 0.20355 0.91122 0.15121 0.0
C519 C 0.23465 0.87976 0.15106 0.0
C520 C 0.24868 0.89308 0.13357 0.0
H521 H 0.18759 0.92023 0.15949 0.0
H522 H 0.24365 0.8641 0.16005 0.0
H523 H 0.20408 0.94052 0.21691 0.0
H524 H 0.27929 0.95194 0.19655 0.0
H525 H 0.19227 0.79388 0.18049 0.0
H526 H 0.21057 0.94374 0.12891 0.0
H527 H 0.26705 0.88623 0.12836 0.0
C528 C 0.04818 0.33336 0.9903 0.0
C529 C 0.03807 0.31058 0.98418 0.0
N530 N 0.03007 0.29956 0.00533 0.0
N531 N 0.0467 0.33671 0.01522 0.0
C532 C 0.03556 0.3158 0.02394 0.0
H533 H 0.05621 0.34666 0.97739 0.0
Co534 Co 0.05849 0.36513 0.03133 0.0
C535 C 0.06943 0.35065 0.08314 0.0
O536 O 0.09025 0.36345 0.08043 0.0
N537 N 0.06964 0.39479 0.04709 0.0
C538 C 0.08508 0.43253 0.05601 0.0
C539 C 0.0892 0.4104 0.04326 0.0
C540 C 0.05446 0.40762 0.06267 0.0
N541 N 0.06309 0.43067 0.06814 0.0
O542 O 0.02509 0.37883 0.02991 0.0
H543 H 0.1048 0.40686 0.03096 0.0
H544 H 0.03622 0.40087 0.06822 0.0
O545 O 0.05371 0.34932 0.06496 0.0
C546 C 0.02543 0.39076 0.00922 0.0
O547 O 0.04657 0.39173 0.99672 0.0
N548 N 0.09084 0.35219 0.02809 0.0
C549 C 0.11777 0.32138 0.99607 0.0
C550 C 0.11069 0.31282 0.01976 0.0
C551 C 0.09687 0.32844 0.03545 0.0
C552 C 0.101 0.36187 0.00685 0.0
C553 C 0.11435 0.34672 0.99041 0.0
H554 H 0.08762 0.31973 0.05101 0.0
H555 H 0.09469 0.37978 2e-05 0.0
H556 H 0.03204 0.31234 0.04352 0.0
H557 H 0.03643 0.30284 0.96554 0.0
H558 H 0.09671 0.44911 0.05534 0.0
H559 H 0.11313 0.29336 0.02487 0.0
H560 H 0.11882 0.35404 0.97211 0.0
C561 C 0.53168 0.18357 0.00341 0.0
C562 C 0.51838 0.2052 0.00597 0.0
N563 N 0.50341 0.20729 0.98599 0.0
N564 N 0.52504 0.17196 0.98185 0.0
C565 C 0.50786 0.1872 0.97147 0.0
H566 H 0.54529 0.17702 0.01678 0.0
Co567 Co 0.53349 0.14064 0.96928 0.0
C568 C 0.57078 0.15131 0.92875 0.0
O569 O 0.58477 0.13312 0.93745 0.0
N570 N 0.54006 0.10905 0.95619 0.0
C571 C 0.5533 0.07138 0.94455 0.0
C572 C 0.55879 0.09224 0.95864 0.0
C573 C 0.52331 0.09778 0.94092 0.0
N574 N 0.531 0.07498 0.93337 0.0
O575 O 0.51377 0.1247 0.99631 0.0
H576 H 0.57559 0.09486 0.96958 0.0
H577 H 0.50576 0.10627 0.9354 0.0
O578 O 0.5502 0.15667 0.93985 0.0
C579 C 0.51009 0.12607 0.01996 0.0
O580 O 0.52384 0.14109 0.03367 0.0
N581 N 0.56421 0.1414 0.9887 0.0
C582 C 0.60104 0.15303 0.02411 0.0
C583 C 0.59849 0.16729 0.00248 0.0
C584 C 0.57989 0.16144 0.98528 0.0
C585 C 0.56859 0.12548 0.00827 0.0
C586 C 0.5865 0.13135 0.02665 0.0
H587 H 0.5763 0.17515 0.971 0.0
H588 H 0.55706 0.10907 0.01078 0.0
H589 H 0.49865 0.18352 0.95381 0.0
H590 H 0.51993 0.21872 0.02101 0.0
H591 H 0.5646 0.05463 0.94304 0.0
H592 H 0.60919 0.18436 2e-05 0.0
H593 H 0.58822 0.1197 0.04309 0.0
C594 C 0.07665 0.28151 0.26638 0.0
C595 C 0.05268 0.27417 0.2717 0.0
N596 N 0.04076 0.26994 0.24993 0.0
N597 N 0.07982 0.28185 0.24139 0.0
C598 C 0.05769 0.27436 0.23179 0.0
H599 H 0.09076 0.28679 0.2799 0.0
Co600 Co 0.109 0.29298 0.22655 0.0
C601 C 0.09579 0.3133 0.17753 0.0
O602 O 0.11022 0.33208 0.1842 0.0
N603 N 0.13952 0.3031 0.21181 0.0
C604 C 0.17866 0.31555 0.205 0.0
C605 C 0.15705 0.32012 0.21836 0.0
C606 C 0.15079 0.28899 0.19398 0.0
N607 N 0.17469 0.29577 0.18983 0.0
O608 O 0.11969 0.25871 0.2232 0.0
H609 H 0.15514 0.33401 0.23288 0.0
H610 H 0.14228 0.27257 0.18569 0.0
O611 O 0.09285 0.29467 0.19251 0.0
C612 C 0.1314 0.25562 0.24385 0.0
O613 O 0.13363 0.27483 0.25907 0.0
N614 N 0.09868 0.32585 0.23468 0.0
C615 C 0.07048 0.35323 0.26912 0.0
C616 C 0.06085 0.34785 0.24539 0.0
C617 C 0.07512 0.33392 0.22852 0.0
C618 C 0.10934 0.33366 0.25657 0.0
C619 C 0.0956 0.34749 0.27402 0.0
H620 H 0.06524 0.32599 0.21286 0.0
H621 H 0.12687 0.32564 0.26261 0.0
H622 H 0.05377 0.27289 0.212 0.0
H623 H 0.0447 0.27194 0.29015 0.0
H624 H 0.19637 0.32515 0.20734 0.0
H625 H 0.04139 0.35159 0.24103 0.0
H626 H 0.10375 0.35145 0.29214 0.0
C627 C 0.95033 0.83582 0.49476 0.0
C628 C 0.95432 0.81048 0.49583 0.0
N629 N 0.95984 0.8024 0.47262 0.0
N630 N 0.95305 0.8435 0.47096 0.0
C631 C 0.95889 0.82275 0.45791 0.0
H632 H 0.94657 0.84807 0.51039 0.0
Co633 Co 0.9508 0.87609 0.45997 0.0
C634 C 0.93338 0.87305 0.40782 0.0
O635 O 0.91975 0.89279 0.41319 0.0
N636 N 0.94976 0.90973 0.44895 0.0
C637 C 0.94585 0.95114 0.44679 0.0
C638 C 0.93517 0.92937 0.45546 0.0
C639 C 0.96855 0.92014 0.43547 0.0
N640 N 0.96694 0.9452 0.43443 0.0
O641 O 0.98689 0.87784 0.46003 0.0
H642 H 0.91855 0.92848 0.46684 0.0
H643 H 0.98433 0.9098 0.42813 0.0
O644 O 0.94801 0.86412 0.42461 0.0
C645 C 0.99132 0.88503 0.48245 0.0
O646 O 0.97226 0.88928 0.49736 0.0
N647 N 0.91594 0.87404 0.46483 0.0
C648 C 0.88402 0.84826 0.49679 0.0
C649 C 0.88655 0.84075 0.47178 0.0
C650 C 0.90246 0.85411 0.45588 0.0
C651 C 0.91045 0.88373 0.48782 0.0
C652 C 0.89418 0.87133 0.50397 0.0
H653 H 0.9072 0.84538 0.43835 0.0
H654 H 0.92211 0.89827 0.49569 0.0
H655 H 0.96294 0.82259 0.43813 0.0
H656 H 0.95458 0.79913 0.51256 0.0
H657 H 0.93944 0.97 0.45055 0.0
H658 H 0.8789 0.82306 0.4654 0.0
H659 H 0.89214 0.87814 0.52294 0.0
C660 C 0.91203 0.20596 0.26398 0.0
C661 C 0.93349 0.21875 0.26981 0.0
N662 N 0.94368 0.22694 0.24836 0.0
N663 N 0.9088 0.20604 0.23899 0.0
C664 C 0.92852 0.21887 0.22986 0.0
H665 H 0.89945 0.19719 0.27714 0.0
Co666 Co 0.88095 0.19222 0.224 0.0
C667 C 0.8955 0.17732 0.17299 0.0
O668 O 0.88358 0.15644 0.17813 0.0
N669 N 0.85159 0.17893 0.20946 0.0
C670 C 0.81571 0.15936 0.20102 0.0
C671 C 0.8379 0.15816 0.21414 0.0
C672 C 0.83746 0.19211 0.1932 0.0
N673 N 0.81548 0.18088 0.18799 0.0
O674 O 0.86633 0.22532 0.22351 0.0
H675 H 0.84295 0.1434 0.22688 0.0
H676 H 0.84288 0.21015 0.18581 0.0
O677 O 0.89633 0.19488 0.18955 0.0
C678 C 0.85487 0.22597 0.24453 0.0
O679 O 0.85255 0.20495 0.25701 0.0
N680 N 0.89523 0.16062 0.22951 0.0
C681 C 0.92675 0.134 0.26116 0.0
C682 C 0.93504 0.14136 0.23749 0.0
C683 C 0.91909 0.15498 0.222 0.0
C684 C 0.88615 0.15103 0.25132 0.0
C685 C 0.90165 0.13771 0.2675 0.0
H686 H 0.92754 0.1642 0.20624 0.0
H687 H 0.86823 0.15721 0.25833 0.0
H688 H 0.93153 0.22258 0.21022 0.0
H689 H 0.94123 0.22154 0.28831 0.0
H690 H 0.80042 0.14611 0.20212 0.0
H691 H 0.95454 0.13934 0.23228 0.0
H692 H 0.89476 0.13254 0.28582 0.0
C693 C 0.46123 0.67092 0.48376 0.0
C694 C 0.46976 0.69422 0.47734 0.0
N695 N 0.47611 0.70631 0.49849 0.0
N696 N 0.46223 0.66843 0.50882 0.0
C697 C 0.47155 0.69025 0.51733 0.0
H698 H 0.45487 0.65657 0.47096 0.0
Co699 Co 0.45338 0.63962 0.52547 0.0
C700 C 0.43389 0.65464 0.57478 0.0
O701 O 0.41597 0.63848 0.57001 0.0
N702 N 0.44549 0.60937 0.54195 0.0
C703 C 0.43298 0.57079 0.55119 0.0
C704 C 0.42732 0.59219 0.53807 0.0
C705 C 0.46143 0.59813 0.55814 0.0
N706 N 0.45461 0.57453 0.56361 0.0
O707 O 0.48846 0.6316 0.5281 0.0
H708 H 0.41159 0.59426 0.5256 0.0
H709 H 0.4789 0.60633 0.56431 0.0
O710 O 0.45168 0.65764 0.55877 0.0
C711 C 0.49235 0.61964 0.5077 0.0
O712 O 0.47317 0.61491 0.49304 0.0
N713 N 0.41977 0.64735 0.518 0.0
C714 C 0.38946 0.67204 0.48355 0.0
C715 C 0.39481 0.68299 0.50672 0.0
C716 C 0.41037 0.67056 0.5235 0.0
C717 C 0.41208 0.63524 0.49682 0.0
C718 C 0.39689 0.64728 0.47928 0.0
H719 H 0.41832 0.68176 0.53823 0.0
H720 H 0.42107 0.61798 0.49131 0.0
H721 H 0.47552 0.69406 0.5368 0.0
H722 H 0.47121 0.70175 0.45863 0.0
H723 H 0.42274 0.55331 0.55048 0.0
H724 H 0.38991 0.70232 0.51043 0.0
H725 H 0.3932 0.6383 0.46148 0.0
C726 C 0.07135 0.69455 0.25237 0.0
C727 C 0.04697 0.70253 0.25258 0.0
N728 N 0.04395 0.71766 0.27242 0.0
N729 N 0.08352 0.70423 0.27232 0.0
C730 C 0.06633 0.71857 0.28402 0.0
H731 H 0.07983 0.68345 0.2378 0.0
Co732 Co 0.11744 0.70131 0.2798 0.0
C733 C 0.11982 0.68309 0.33173 0.0
O734 O 0.13912 0.66971 0.3244 0.0
N735 N 0.15202 0.69973 0.28717 0.0
C736 C 0.19357 0.69788 0.28428 0.0
C737 C 0.17131 0.68787 0.27588 0.0
C738 C 0.16323 0.71639 0.30276 0.0
N739 N 0.18833 0.71603 0.30094 0.0
O740 O 0.1202 0.73708 0.2817 0.0
H741 H 0.16977 0.67385 0.26146 0.0
H742 H 0.15311 0.72989 0.31397 0.0
O743 O 0.10911 0.69766 0.31594 0.0
C744 C 0.12353 0.74433 0.25924 0.0
O745 O 0.12048 0.7279 0.24119 0.0
N746 N 0.1148 0.66649 0.27408 0.0
C747 C 0.09223 0.62711 0.24828 0.0
C748 C 0.0866 0.63148 0.27351 0.0
C749 C 0.09784 0.65152 0.28606 0.0
C750 C 0.12264 0.66045 0.25053 0.0
C751 C 0.11183 0.64056 0.23738 0.0
H752 H 0.08991 0.65691 0.30377 0.0
H753 H 0.13405 0.67351 0.2402 0.0
H754 H 0.07044 0.73035 0.3 0.0
H755 H 0.033 0.69897 0.23832 0.0
H756 H 0.21214 0.69293 0.27785 0.0
H757 H 0.07152 0.62138 0.28253 0.0
H758 H 0.11637 0.63805 0.21781 0.0
C759 C 0.425 0.28784 0.74125 0.0
C760 C 0.44981 0.28221 0.738 0.0
N761 N 0.45941 0.2757 0.76033 0.0
N762 N 0.41897 0.28489 0.76551 0.0
C763 C 0.44024 0.27712 0.77668 0.0
H764 H 0.41212 0.29373 0.72683 0.0
Co765 Co 0.3874 0.29157 0.77796 0.0
C766 C 0.39322 0.30808 0.82992 0.0
O767 O 0.37543 0.32401 0.82417 0.0
N768 N 0.35458 0.29741 0.78993 0.0
C769 C 0.31487 0.30867 0.79539 0.0
C770 C 0.33719 0.31486 0.78418 0.0
C771 C 0.34235 0.28116 0.80501 0.0
N772 N 0.31819 0.28741 0.80839 0.0
O773 O 0.38007 0.25614 0.77726 0.0
H774 H 0.33993 0.33076 0.77215 0.0
H775 H 0.35065 0.26421 0.81228 0.0
O776 O 0.40057 0.29219 0.81333 0.0
C777 C 0.36905 0.25448 0.75603 0.0
O778 O 0.36702 0.27484 0.74245 0.0
N779 N 0.39438 0.32576 0.7739 0.0
C780 C 0.4213 0.35975 0.74551 0.0
C781 C 0.42912 0.35387 0.76974 0.0
C782 C 0.41542 0.33668 0.78368 0.0
C783 C 0.38495 0.33388 0.75164 0.0
C784 C 0.39805 0.35108 0.73717 0.0
H785 H 0.42434 0.32941 0.80012 0.0
H786 H 0.36962 0.32395 0.74295 0.0
H787 H 0.44175 0.27271 0.79634 0.0
H788 H 0.45982 0.28224 0.72042 0.0
H789 H 0.2973 0.31858 0.79343 0.0
H790 H 0.44715 0.36015 0.77663 0.0
H791 H 0.39172 0.35479 0.7183 0.0
C792 C 0.49884 0.55059 0.83112 0.0
C793 C 0.4897 0.54263 0.80852 0.0
N794 N 0.50912 0.53423 0.79494 0.0
N795 N 0.52387 0.54717 0.8317 0.0
C796 C 0.52961 0.53707 0.80936 0.0
H797 H 0.48779 0.5577 0.84648 0.0
Co798 Co 0.54334 0.55217 0.85976 0.0
C799 C 0.59607 0.55782 0.84383 0.0
O800 O 0.59808 0.57443 0.86185 0.0
N801 N 0.56212 0.55625 0.88923 0.0
C802 C 0.57434 0.56674 0.92753 0.0
C803 C 0.56112 0.57438 0.9068 0.0
C804 C 0.57641 0.53806 0.89959 0.0
N805 N 0.58385 0.54384 0.92293 0.0
O806 O 0.53966 0.51726 0.86718 0.0
H807 H 0.55036 0.59141 0.90543 0.0
H808 H 0.57973 0.52004 0.89093 0.0
O809 O 0.57495 0.54694 0.83999 0.0
C810 C 0.51984 0.51664 0.88051 0.0
O811 O 0.50944 0.53791 0.88717 0.0
N812 N 0.54265 0.58678 0.85289 0.0
C813 C 0.51142 0.61654 0.824 0.0
C814 C 0.53591 0.61145 0.81612 0.0
C815 C 0.55133 0.59645 0.83091 0.0
C816 C 0.52119 0.59617 0.86309 0.0
C817 C 0.505 0.61087 0.84875 0.0
H818 H 0.5684 0.59003 0.8227 0.0
H819 H 0.51398 0.58817 0.88017 0.0
H820 H 0.54815 0.53079 0.80417 0.0
H821 H 0.47031 0.54267 0.80261 0.0
H822 H 0.57564 0.57661 0.94518 0.0
H823 H 0.54218 0.61673 0.79762 0.0
H824 H 0.4864 0.61474 0.85582 0.0
C825 C 0.7334 0.24507 0.06972 0.0
C826 C 0.74617 0.24875 0.04787 0.0
N827 N 0.75373 0.27276 0.04726 0.0
N828 N 0.73274 0.26683 0.08264 0.0
C829 C 0.74571 0.28311 0.06867 0.0
H830 H 0.72311 0.22836 0.07417 0.0
Co831 Co 0.71757 0.27728 0.11168 0.0
C832 C 0.68073 0.3154 0.09284 0.0
O833 O 0.66276 0.30433 0.10539 0.0
N834 N 0.70501 0.28909 0.14143 0.0
C835 C 0.68763 0.30152 0.17699 0.0
C836 C 0.68342 0.28947 0.15452 0.0
C837 C 0.72172 0.30116 0.15598 0.0
N838 N 0.71175 0.30897 0.17768 0.0
O839 O 0.73445 0.25012 0.12983 0.0
H840 H 0.66589 0.28132 0.14851 0.0
H841 H 0.74126 0.30324 0.15102 0.0
O842 O 0.70292 0.30644 0.09378 0.0
C843 C 0.73612 0.22621 0.13004 0.0
O844 O 0.72214 0.21266 0.11509 0.0
N845 N 0.68851 0.25695 0.10438 0.0
C846 C 0.65594 0.21986 0.0869 0.0
C847 C 0.66358 0.23933 0.0713 0.0
C848 C 0.67959 0.25773 0.08039 0.0
C849 C 0.67868 0.23988 0.12072 0.0
C850 C 0.66248 0.22089 0.11225 0.0
H851 H 0.68665 0.27132 0.06724 0.0
H852 H 0.68516 0.23934 0.13985 0.0
H853 H 0.74766 0.30276 0.07329 0.0
H854 H 0.74735 0.23562 0.03247 0.0
H855 H 0.67412 0.3043 0.19181 0.0
H856 H 0.65838 0.23952 0.05172 0.0
H857 H 0.65658 0.20628 0.12496 0.0
C858 C 0.00285 0.45137 0.34736 0.0
C859 C 0.00766 0.45636 0.3227 0.0
N860 N 0.9855 0.45871 0.31102 0.0
N861 N 0.97784 0.45077 0.35088 0.0
C862 C 0.96774 0.45523 0.32833 0.0
H863 H 0.01667 0.44824 0.36179 0.0
Co864 Co 0.96264 0.44516 0.38092 0.0
C865 C 0.91018 0.4315 0.37094 0.0
O866 O 0.91291 0.41527 0.38913 0.0
N867 N 0.9479 0.44059 0.41241 0.0
C868 C 0.94 0.43153 0.45213 0.0
C869 C 0.95259 0.42409 0.43088 0.0
C870 C 0.93233 0.45764 0.42284 0.0
N871 N 0.9274 0.45276 0.44697 0.0
O872 O 0.96286 0.48067 0.38672 0.0
H873 H 0.96522 0.40838 0.42958 0.0
H874 H 0.92536 0.47397 0.41315 0.0
O875 O 0.92866 0.44563 0.36494 0.0
C876 C 0.98367 0.48437 0.3979 0.0
O877 O 0.99712 0.46481 0.40429 0.0
N878 N 0.9666 0.41055 0.3748 0.0
C879 C 0.99776 0.38073 0.34554 0.0
C880 C 0.97291 0.38488 0.33843 0.0
C881 C 0.95748 0.39968 0.35341 0.0
C882 C 0.98939 0.4033 0.38386 0.0
C883 C 0.00541 0.38844 0.36939 0.0
H884 H 0.94017 0.40558 0.34513 0.0
H885 H 0.99719 0.41277 0.39994 0.0
H886 H 0.94788 0.45619 0.32453 0.0
H887 H 0.02586 0.45786 0.31393 0.0
H888 H 0.9413 0.42286 0.47034 0.0
H889 H 0.9663 0.37902 0.32017 0.0
H890 H 0.02458 0.38578 0.37546 0.0
C891 C 0.78175 0.77476 0.57726 0.0
C892 C 0.77214 0.78175 0.55458 0.0
N893 N 0.76398 0.76098 0.54288 0.0
N894 N 0.77992 0.7497 0.57959 0.0
C895 C 0.7689 0.74177 0.55839 0.0
H896 H 0.78991 0.78712 0.59108 0.0
Co897 Co 0.79125 0.7324 0.60704 0.0
C898 C 0.80653 0.68228 0.59072 0.0
O899 O 0.82692 0.68703 0.60361 0.0
N900 N 0.80163 0.71529 0.63588 0.0
C901 C 0.8177 0.7015 0.67164 0.0
C902 C 0.82091 0.71794 0.65202 0.0
C903 C 0.78716 0.69722 0.6461 0.0
N904 N 0.79636 0.68859 0.66778 0.0
O905 O 0.75735 0.73141 0.61914 0.0
H906 H 0.836 0.73125 0.65024 0.0
H907 H 0.76982 0.69063 0.6379 0.0
O908 O 0.78903 0.69889 0.58941 0.0
C909 C 0.75565 0.75187 0.63146 0.0
O910 O 0.77602 0.76533 0.63468 0.0
N911 N 0.82405 0.73797 0.59526 0.0
C912 C 0.85256 0.77077 0.56653 0.0
C913 C 0.84457 0.74792 0.55658 0.0
C914 C 0.83011 0.7319 0.57111 0.0
C915 C 0.83443 0.75866 0.60613 0.0
C916 C 0.84875 0.77542 0.59204 0.0
H917 H 0.82035 0.71733 0.56125 0.0
H918 H 0.8281 0.76462 0.62436 0.0
H919 H 0.76528 0.72231 0.55407 0.0
H920 H 0.77127 0.80057 0.54718 0.0
H921 H 0.82954 0.70001 0.68801 0.0
H922 H 0.84709 0.74372 0.53692 0.0
H923 H 0.8542 0.79312 0.60032 0.0
C924 C 0.4863 0.47051 0.66493 0.0
C925 C 0.48007 0.48136 0.68738 0.0
N926 N 0.50139 0.48871 0.69872 0.0
N927 N 0.51139 0.47089 0.66238 0.0
C928 C 0.52009 0.48198 0.68323 0.0
H929 H 0.47342 0.46298 0.65123 0.0
Co930 Co 0.5285 0.45985 0.63477 0.0
C931 C 0.57899 0.44517 0.65088 0.0
O932 O 0.576 0.4265 0.63515 0.0
N933 N 0.5455 0.44977 0.60572 0.0
C934 C 0.55507 0.43713 0.56736 0.0
C935 C 0.54086 0.43211 0.58822 0.0
C936 C 0.56308 0.46468 0.59531 0.0
N937 N 0.56887 0.45775 0.57191 0.0
O938 O 0.52898 0.49384 0.62284 0.0
H939 H 0.5268 0.41769 0.5894 0.0
H940 H 0.56967 0.48187 0.6038 0.0
O941 O 0.5617 0.4619 0.65281 0.0
C942 C 0.50992 0.49394 0.60831 0.0
O943 O 0.49763 0.47285 0.60505 0.0
N944 N 0.52342 0.42708 0.64608 0.0
C945 C 0.49357 0.39419 0.67294 0.0
C946 C 0.51571 0.40341 0.68334 0.0
C947 C 0.53004 0.42035 0.66985 0.0
C948 C 0.50326 0.41609 0.63484 0.0
C949 C 0.48812 0.39937 0.64792 0.0
H950 H 0.5435 0.43102 0.68038 0.0
H951 H 0.49639 0.42324 0.61728 0.0
H952 H 0.53976 0.48467 0.68714 0.0
H953 H 0.46133 0.48396 0.69462 0.0
H954 H 0.55381 0.42761 0.54951 0.0
H955 H 0.52001 0.40039 0.7029 0.0
H956 H 0.47086 0.3928 0.63949 0.0
C957 C 0.74797 0.3196 0.91306 0.0
C958 C 0.74121 0.31832 0.93779 0.0
N959 N 0.76213 0.31433 0.95116 0.0
N960 N 0.77286 0.31568 0.91101 0.0
C961 C 0.78099 0.31386 0.93471 0.0
H962 H 0.73541 0.32197 0.89737 0.0
Co963 Co 0.78869 0.31444 0.88056 0.0
C964 C 0.83175 0.34989 0.88576 0.0
O965 O 0.84465 0.33819 0.86845 0.0
N966 N 0.80203 0.3149 0.84929 0.0
C967 C 0.81595 0.30929 0.8107 0.0
C968 C 0.81975 0.30333 0.83555 0.0
C969 C 0.78799 0.32751 0.83283 0.0
N970 N 0.79565 0.32429 0.80918 0.0
O971 O 0.76559 0.28836 0.86896 0.0
H972 H 0.83376 0.29068 0.84281 0.0
H973 H 0.77105 0.3373 0.83814 0.0
O974 O 0.80994 0.34206 0.89153 0.0
C975 C 0.75379 0.27024 0.87915 0.0
O976 O 0.75642 0.26589 0.90317 0.0
N977 N 0.81291 0.28935 0.89202 0.0
C978 C 0.84039 0.25145 0.91594 0.0
C979 C 0.84384 0.27658 0.92228 0.0
C980 C 0.83054 0.29511 0.90977 0.0
C981 C 0.81182 0.26512 0.8835 0.0
C982 C 0.82482 0.24582 0.89563 0.0
H983 H 0.83318 0.31385 0.91651 0.0
H984 H 0.80053 0.26019 0.86752 0.0
H985 H 0.80013 0.31205 0.9404 0.0
H986 H 0.72235 0.3187 0.94519 0.0
H987 H 0.82683 0.30248 0.79506 0.0
H988 H 0.85565 0.28196 0.93786 0.0
H989 H 0.8224 0.22666 0.88941 0.0
C990 C 0.99501 0.48628 0.17319 0.0
C991 C 0.99751 0.47236 0.19432 0.0
N992 N 0.97614 0.47422 0.20734 0.0
N993 N 0.97188 0.49656 0.17249 0.0
C994 C 0.96073 0.48868 0.19365 0.0
H995 H 0.01015 0.49045 0.16049 0.0
Co996 Co 0.96134 0.51939 0.14854 0.0
C997 C 0.92902 0.55552 0.17546 0.0
O998 O 0.94338 0.57333 0.16656 0.0
N999 N 0.95023 0.5401 0.12353 0.0
C1000 C 0.94044 0.5655 0.09233 0.0
C1001 C 0.95335 0.56349 0.11461 0.0
C1002 C 0.93539 0.52857 0.10678 0.0
N1003 N 0.9292 0.54337 0.08747 0.0
O1004 O 0.98598 0.50519 0.12601 0.0
H1005 H 0.96506 0.57776 0.12294 0.0
H1006 H 0.93108 0.50882 0.10788 0.0
O1007 O 0.93431 0.53262 0.17056 0.0
C1008 C 0.99613 0.50725 0.10456 0.0
O1009 O 0.99035 0.526 0.08983 0.0
N1010 N 0.98531 0.54293 0.16195 0.0
C1011 C 0.02159 0.57226 0.18612 0.0
C1012 C 0.00253 0.56076 0.19963 0.0
C1013 C 0.98486 0.54619 0.18737 0.0
C1014 C 0.00404 0.55394 0.14839 0.0
C1015 C 0.02247 0.56867 0.16016 0.0
H1016 H 0.97078 0.53734 0.19873 0.0
H1017 H 0.00499 0.5514 0.12844 0.0
H1018 H 0.94289 0.49562 0.20028 0.0
H1019 H 0.01477 0.46428 0.20123 0.0
H1020 H 0.94033 0.58161 0.08011 0.0
H1021 H 0.00142 0.56274 0.21976 0.0
H1022 H 0.03709 0.57729 0.14911 0.0
C1023 C 0.71546 0.7634 0.40489 0.0
C1024 C 0.72355 0.77353 0.42709 0.0
N1025 N 0.72706 0.75463 0.44326 0.0
N1026 N 0.71413 0.73832 0.40721 0.0
C1027 C 0.7215 0.73348 0.43073 0.0
H1028 H 0.7105 0.77363 0.38819 0.0
Co1029 Co 0.70306 0.71739 0.3824 0.0
C1030 C 0.6938 0.66786 0.40414 0.0
O1031 O 0.67296 0.66833 0.39111 0.0
N1032 N 0.69263 0.69663 0.35612 0.0
C1033 C 0.6784 0.68195 0.31995 0.0
C1034 C 0.67398 0.69858 0.33922 0.0
C1035 C 0.7077 0.6785 0.34699 0.0
N1036 N 0.69981 0.66952 0.32488 0.0
O1037 O 0.73643 0.71704 0.36911 0.0
H1038 H 0.65928 0.71243 0.33968 0.0
H1039 H 0.72522 0.67316 0.35565 0.0
O1040 O 0.70882 0.68669 0.40346 0.0
C1041 C 0.73604 0.73288 0.35128 0.0
O1042 O 0.71457 0.74338 0.34546 0.0
N1043 N 0.67046 0.72205 0.39473 0.0
C1044 C 0.64168 0.75523 0.4226 0.0
C1045 C 0.6495 0.73257 0.43294 0.0
C1046 C 0.66421 0.71642 0.41885 0.0
C1047 C 0.65979 0.74225 0.38333 0.0
C1048 C 0.64542 0.75931 0.39704 0.0
H1049 H 0.67379 0.70219 0.42905 0.0
H1050 H 0.66599 0.74764 0.36489 0.0
H1051 H 0.72279 0.71489 0.43858 0.0
H1052 H 0.72625 0.79319 0.43121 0.0
H1053 H 0.66791 0.68078 0.30267 0.0
H1054 H 0.64691 0.72879 0.45266 0.0
H1055 H 0.63993 0.77681 0.38846 0.0
C1056 C 0.83405 0.49443 0.55074 0.0
C1057 C 0.81173 0.48634 0.54099 0.0
N1058 N 0.79952 0.50634 0.53184 0.0
N1059 N 0.83582 0.51944 0.54799 0.0
C1060 C 0.81449 0.52622 0.53635 0.0
H1061 H 0.84815 0.48278 0.55933 0.0
Co1062 Co 0.86345 0.53785 0.55814 0.0
C1063 C 0.84613 0.58928 0.56761 0.0
O1064 O 0.86008 0.58815 0.58778 0.0
N1065 N 0.89255 0.55586 0.56769 0.0
C1066 C 0.92746 0.57039 0.58551 0.0
C1067 C 0.90616 0.55617 0.58904 0.0
C1068 C 0.90595 0.57016 0.5517 0.0
N1069 N 0.92738 0.57879 0.56185 0.0
O1070 O 0.87565 0.53569 0.52437 0.0
H1071 H 0.90136 0.54645 0.60603 0.0
H1072 H 0.90028 0.57398 0.53267 0.0
O1073 O 0.84531 0.57036 0.55268 0.0
C1074 C 0.88846 0.51547 0.52496 0.0
O1075 O 0.89302 0.50526 0.5468 0.0
N1076 N 0.85163 0.53512 0.5911 0.0
C1077 C 0.82126 0.5005 0.61524 0.0
C1078 C 0.81214 0.5244 0.6095 0.0
C1079 C 0.8275 0.54137 0.59704 0.0
C1080 C 0.86207 0.51412 0.60111 0.0
C1081 C 0.84706 0.49617 0.61273 0.0
H1082 H 0.81823 0.55687 0.58831 0.0
H1083 H 0.8807 0.50858 0.5955 0.0
H1084 H 0.80987 0.54534 0.53164 0.0
H1085 H 0.8051 0.46719 0.54038 0.0
H1086 H 0.94232 0.5735 0.59895 0.0
H1087 H 0.79247 0.52881 0.6117 0.0
H1088 H 0.85511 0.47798 0.6164 0.0
C1089 C 0.77346 0.57839 0.77307 0.0
C1090 C 0.77967 0.55506 0.76435 0.0
N1091 N 0.7584 0.54335 0.75749 0.0
N1092 N 0.74842 0.58134 0.77169 0.0
C1093 C 0.73974 0.55976 0.76186 0.0
H1094 H 0.78637 0.59233 0.78009 0.0
Co1095 Co 0.73174 0.60989 0.78203 0.0
C1096 C 0.68194 0.59437 0.79926 0.0
O1097 O 0.68583 0.61034 0.81753 0.0
N1098 N 0.71524 0.63979 0.7916 0.0
C1099 C 0.70374 0.67627 0.80811 0.0
C1100 C 0.71789 0.65508 0.81161 0.0
C1101 C 0.69892 0.65203 0.77656 0.0
N1102 N 0.69192 0.67433 0.78597 0.0
O1103 O 0.72975 0.6201 0.74771 0.0
H1104 H 0.72961 0.65167 0.82765 0.0
H1105 H 0.69326 0.64535 0.75832 0.0
O1106 O 0.6986 0.59185 0.78206 0.0
C1107 C 0.75046 0.63199 0.74561 0.0
O1108 O 0.7643 0.6352 0.76568 0.0
N1109 N 0.73846 0.60024 0.81506 0.0
C1110 C 0.7723 0.57515 0.84552 0.0
C1111 C 0.74967 0.56381 0.83872 0.0
C1112 C 0.73303 0.5766 0.82325 0.0
C1113 C 0.75912 0.61242 0.82394 0.0
C1114 C 0.77614 0.60032 0.83951 0.0
H1115 H 0.71844 0.56568 0.81461 0.0
H1116 H 0.76459 0.63015 0.81594 0.0
H1117 H 0.72015 0.55594 0.75834 0.0
H1118 H 0.79839 0.54746 0.76283 0.0
H1119 H 0.70286 0.69229 0.82051 0.0
H1120 H 0.74626 0.54423 0.84272 0.0
H1121 H 0.79337 0.60974 0.84463 0.0
C1122 C 0.6846 0.49827 0.03392 0.0
C1123 C 0.70814 0.50198 0.02449 0.0
N1124 N 0.71566 0.48048 0.01386 0.0
N1125 N 0.67743 0.47446 0.02937 0.0
C1126 C 0.69674 0.46404 0.01681 0.0
H1127 H 0.6731 0.51227 0.04292 0.0
Co1128 Co 0.64588 0.46263 0.03751 0.0
C1129 C 0.65051 0.41087 0.05398 0.0
O1130 O 0.63572 0.41824 0.07215 0.0
N1131 N 0.61289 0.45112 0.04446 0.0
C1132 C 0.57373 0.44427 0.05706 0.0
C1133 C 0.59592 0.45636 0.06247 0.0
C1134 C 0.6004 0.4358 0.02847 0.0
N1135 N 0.57664 0.43142 0.03558 0.0
O1136 O 0.6371 0.4636 0.00258 0.0
H1137 H 0.59899 0.46838 0.0784 0.0
H1138 H 0.60854 0.42806 0.01163 0.0
O1139 O 0.65755 0.42673 0.03724 0.0
C1140 C 0.62679 0.48522 0.00161 0.0
O1141 O 0.62592 0.49868 0.02219 0.0
N1142 N 0.65472 0.46653 0.0715 0.0
C1143 C 0.68331 0.49466 0.10506 0.0
C1144 C 0.69128 0.47086 0.09744 0.0
C1145 C 0.67673 0.45703 0.08061 0.0
C1146 C 0.64549 0.48841 0.08094 0.0
C1147 C 0.65942 0.5027 0.09786 0.0
H1148 H 0.68531 0.44086 0.07214 0.0
H1149 H 0.62941 0.49706 0.07231 0.0
H1150 H 0.69662 0.44521 0.00929 0.0
H1151 H 0.71865 0.51932 0.0246 0.0
H1152 H 0.55649 0.44563 0.06761 0.0
H1153 H 0.7097 0.46405 0.10251 0.0
H1154 H 0.65281 0.52123 0.10275 0.0
C1155 C 0.73814 0.40891 0.29127 0.0
C1156 C 0.73299 0.43125 0.27983 0.0
N1157 N 0.75474 0.44088 0.27161 0.0
N1158 N 0.76301 0.40464 0.29028 0.0
C1159 C 0.77273 0.42453 0.27824 0.0
H1160 H 0.72456 0.39622 0.29923 0.0
Co1161 Co 0.77747 0.37497 0.30026 0.0
C1162 C 0.82746 0.38647 0.321 0.0
O1163 O 0.82267 0.36796 0.33634 0.0
N1164 N 0.79167 0.34357 0.30884 0.0
C1165 C 0.79873 0.30426 0.32066 0.0
C1166 C 0.78585 0.32602 0.32603 0.0
C1167 C 0.80835 0.33201 0.29359 0.0
N1168 N 0.81265 0.3081 0.30005 0.0
O1169 O 0.7798 0.36549 0.26563 0.0
H1170 H 0.77232 0.32814 0.34082 0.0
H1171 H 0.81651 0.34066 0.27724 0.0
O1172 O 0.81194 0.39112 0.30303 0.0
C1173 C 0.75933 0.35304 0.26383 0.0
O1174 O 0.74528 0.35094 0.28389 0.0
N1175 N 0.77018 0.3842 0.33347 0.0
C1176 C 0.74003 0.41069 0.36687 0.0
C1177 C 0.76294 0.42049 0.35908 0.0
C1178 C 0.77729 0.40736 0.34184 0.0
C1179 C 0.74883 0.37348 0.34258 0.0
C1180 C 0.73337 0.38649 0.35926 0.0
H1181 H 0.79179 0.41784 0.33262 0.0
H1182 H 0.74166 0.35656 0.33413 0.0
H1183 H 0.79233 0.42654 0.27353 0.0
H1184 H 0.71472 0.4397 0.27746 0.0
H1185 H 0.79676 0.28656 0.33025 0.0
H1186 H 0.76817 0.43957 0.36365 0.0
H1187 H 0.71537 0.37867 0.36436 0.0
C1188 C 0.83954 0.51377 0.94962 0.0
C1189 C 0.81436 0.51355 0.95475 0.0
N1190 N 0.80868 0.49138 0.96522 0.0
N1191 N 0.84961 0.49172 0.95657 0.0
C1192 C 0.83045 0.47869 0.96657 0.0
H1193 H 0.8499 0.5292 0.94168 0.0
Co1194 Co 0.88302 0.48277 0.95322 0.0
C1195 C 0.8837 0.43009 0.93728 0.0
O1196 O 0.90333 0.43624 0.92388 0.0
N1197 N 0.91723 0.47403 0.95117 0.0
C1198 C 0.95747 0.46802 0.94222 0.0
C1199 C 0.93595 0.4806 0.93552 0.0
C1200 C 0.92808 0.45796 0.96749 0.0
N1201 N 0.95234 0.45377 0.9623 0.0
O1202 O 0.88626 0.48343 0.9887 0.0
H1203 H 0.93426 0.49314 0.91985 0.0
H1204 H 0.91803 0.44851 0.98227 0.0
O1205 O 0.87365 0.44663 0.95163 0.0
C1206 C 0.89364 0.50584 0.99274 0.0
O1207 O 0.89598 0.52093 0.97351 0.0
N1208 N 0.87925 0.48596 0.91833 0.0
C1209 C 0.85185 0.51096 0.88207 0.0
C1210 C 0.84666 0.48593 0.88745 0.0
C1211 C 0.86048 0.47373 0.90579 0.0
C1212 C 0.88689 0.50902 0.91047 0.0
C1213 C 0.87342 0.52192 0.89219 0.0
H1214 H 0.85272 0.45648 0.91253 0.0
H1215 H 0.90041 0.5194 0.9214 0.0
H1216 H 0.83246 0.46045 0.97505 0.0
H1217 H 0.80143 0.52887 0.95189 0.0
H1218 H 0.97542 0.46905 0.9329 0.0
H1219 H 0.83003 0.47697 0.87998 0.0
H1220 H 0.87774 0.54141 0.88873 0.0
C1221 C 0.74137 0.57269 0.21328 0.0
C1222 C 0.73545 0.54846 0.2191 0.0
N1223 N 0.75659 0.53675 0.22619 0.0
N1224 N 0.76609 0.57632 0.21684 0.0
C1225 C 0.77488 0.55413 0.22495 0.0
H1226 H 0.72841 0.58686 0.20696 0.0
Co1227 Co 0.78185 0.60657 0.21104 0.0
C1228 C 0.83507 0.59661 0.20297 0.0
O1229 O 0.83325 0.61262 0.1845 0.0
N1230 N 0.79724 0.6381 0.20616 0.0
C1231 C 0.81144 0.67486 0.19273 0.0
C1232 C 0.79681 0.65438 0.18687 0.0
C1233 C 0.81193 0.64939 0.22357 0.0
N1234 N 0.82075 0.67169 0.21589 0.0
O1235 O 0.77792 0.61459 0.24562 0.0
H1236 H 0.787 0.65156 0.16945 0.0
H1237 H 0.81673 0.64107 0.24135 0.0
O1238 O 0.81561 0.59124 0.21601 0.0
C1239 C 0.7564 0.62498 0.24608 0.0
O1240 O 0.74492 0.62927 0.2248 0.0
N1241 N 0.7814 0.59846 0.17671 0.0
C1242 C 0.75306 0.56917 0.14411 0.0
C1243 C 0.77681 0.56123 0.1518 0.0
C1244 C 0.79078 0.57618 0.16813 0.0
C1245 C 0.76018 0.60807 0.16623 0.0
C1246 C 0.74565 0.59367 0.14988 0.0
H1247 H 0.8067 0.56757 0.17683 0.0
H1248 H 0.75207 0.62498 0.17383 0.0
H1249 H 0.79424 0.55068 0.2298 0.0
H1250 H 0.71687 0.54036 0.2189 0.0
H1251 H 0.81493 0.6909 0.18091 0.0
H1252 H 0.78322 0.54242 0.14772 0.0
H1253 H 0.72755 0.60063 0.14395 0.0
C1254 C 0.66755 0.48899 0.47011 0.0
C1255 C 0.69019 0.48174 0.47991 0.0
N1256 N 0.70336 0.50255 0.48527 0.0
N1257 N 0.66652 0.51421 0.46957 0.0
C1258 C 0.68858 0.52196 0.47905 0.0
H1259 H 0.65261 0.47672 0.46405 0.0
Co1260 Co 0.63896 0.53248 0.45961 0.0
C1261 C 0.65686 0.58182 0.44424 0.0
O1262 O 0.64107 0.57914 0.42561 0.0
N1263 N 0.60989 0.55087 0.45072 0.0
C1264 C 0.57277 0.56371 0.43679 0.0
C1265 C 0.59329 0.54883 0.43175 0.0
C1266 C 0.59916 0.56744 0.46667 0.0
N1267 N 0.57641 0.57502 0.45901 0.0
O1268 O 0.62866 0.53363 0.49383 0.0
H1269 H 0.5952 0.53662 0.41577 0.0
H1270 H 0.60748 0.5732 0.4842 0.0
O1271 O 0.65839 0.56462 0.46095 0.0
C1272 C 0.6133 0.51525 0.49391 0.0
O1273 O 0.60883 0.50351 0.47275 0.0
N1274 N 0.64857 0.5264 0.42634 0.0
C1275 C 0.67453 0.49081 0.39865 0.0
C1276 C 0.68562 0.51388 0.40429 0.0
C1277 C 0.67251 0.53127 0.4186 0.0
C1278 C 0.63628 0.50582 0.41737 0.0
C1279 C 0.649 0.48763 0.40354 0.0
H1280 H 0.68349 0.54588 0.42704 0.0
H1281 H 0.61802 0.50108 0.42461 0.0
H1282 H 0.69349 0.54137 0.48207 0.0
H1283 H 0.69655 0.46274 0.48285 0.0
H1284 H 0.55585 0.56496 0.42569 0.0
H1285 H 0.70526 0.51716 0.4004 0.0
H1286 H 0.63976 0.47003 0.39944 0.0
C1287 C 0.76059 0.4089 0.69897 0.0
C1288 C 0.77024 0.43086 0.7082 0.0
N1289 N 0.75099 0.44592 0.71414 0.0
N1290 N 0.73539 0.41018 0.69913 0.0
C1291 C 0.73005 0.43307 0.70839 0.0
H1292 H 0.77123 0.39266 0.69328 0.0
Co1293 Co 0.71515 0.38299 0.69245 0.0
C1294 C 0.66342 0.40101 0.68773 0.0
O1295 O 0.66152 0.38477 0.66937 0.0
N1296 N 0.69513 0.35423 0.68702 0.0
C1297 C 0.68449 0.31501 0.67801 0.0
C1298 C 0.6968 0.33606 0.66954 0.0
C1299 C 0.68098 0.344 0.7054 0.0
N1300 N 0.67479 0.32004 0.70071 0.0
O1301 O 0.7195 0.37308 0.72633 0.0
H1302 H 0.70819 0.33696 0.65291 0.0
H1303 H 0.67773 0.35296 0.72326 0.0
O1304 O 0.68426 0.40318 0.69954 0.0
C1305 C 0.73704 0.35684 0.72504 0.0
O1306 O 0.74539 0.35035 0.70286 0.0
N1307 N 0.71563 0.39208 0.65848 0.0
C1308 C 0.74812 0.42093 0.62998 0.0
C1309 C 0.72453 0.43021 0.63668 0.0
C1310 C 0.7084 0.41535 0.65078 0.0
C1311 C 0.73628 0.38124 0.64802 0.0
C1312 C 0.75297 0.39545 0.63376 0.0
H1313 H 0.69246 0.42443 0.65867 0.0
H1314 H 0.74259 0.36323 0.65463 0.0
H1315 H 0.7113 0.43979 0.71204 0.0
H1316 H 0.78985 0.43527 0.71077 0.0
H1317 H 0.6847 0.29672 0.66925 0.0
H1318 H 0.71983 0.44972 0.63387 0.0
H1319 H 0.77074 0.38736 0.6283 0.0
C1320 C 0.53486 0.84015 0.49153 0.0
C1321 C 0.52459 0.81821 0.48294 0.0
N1322 N 0.51843 0.80419 0.50288 0.0
N1323 N 0.53541 0.8397 0.51669 0.0
C1324 C 0.52523 0.81761 0.52314 0.0
H1325 H 0.54157 0.85549 0.48021 0.0
Co1326 Co 0.54742 0.86558 0.53577 0.0
C1327 C 0.5636 0.8449 0.58389 0.0
O1328 O 0.5835 0.85901 0.58086 0.0
N1329 N 0.5588 0.8932 0.55486 0.0
C1330 C 0.57513 0.92977 0.5662 0.0
C1331 C 0.57871 0.90852 0.55204 0.0
C1332 C 0.54403 0.90517 0.57161 0.0
N1333 N 0.55307 0.92773 0.57821 0.0
O1334 O 0.51363 0.87721 0.53884 0.0
H1335 H 0.59404 0.90563 0.53925 0.0
H1336 H 0.5256 0.89868 0.57692 0.0
O1337 O 0.5461 0.84516 0.56731 0.0
C1338 C 0.51176 0.89429 0.52228 0.0
O1339 O 0.53193 0.90094 0.50991 0.0
N1340 N 0.57983 0.85443 0.52814 0.0
C1341 C 0.61116 0.82956 0.49487 0.0
C1342 C 0.60315 0.81777 0.51669 0.0
C1343 C 0.58687 0.83025 0.53269 0.0
C1344 C 0.58948 0.86689 0.50808 0.0
C1345 C 0.6052 0.85474 0.49109 0.0
H1346 H 0.57693 0.81887 0.54591 0.0
H1347 H 0.58205 0.88501 0.50308 0.0
H1348 H 0.52331 0.81127 0.54222 0.0
H1349 H 0.52166 0.81302 0.46359 0.0
H1350 H 0.58687 0.9463 0.56606 0.0
H1351 H 0.60667 0.79801 0.51962 0.0
H1352 H 0.61062 0.86414 0.47401 0.0
C1353 C 0.03762 0.68924 0.49059 0.0
C1354 C 0.0263 0.71209 0.48924 0.0
N1355 N 0.01055 0.7116 0.46977 0.0
N1356 N 0.02902 0.67436 0.47189 0.0
C1357 C 0.01234 0.68868 0.45953 0.0
H1358 H 0.05018 0.68374 0.50537 0.0
Co1359 Co 0.03579 0.64126 0.46359 0.0
C1360 C 0.0755 0.64473 0.42381 0.0
O1361 O 0.08727 0.62544 0.43338 0.0
N1362 N 0.0411 0.60812 0.45462 0.0
C1363 C 0.0527 0.56852 0.44997 0.0
C1364 C 0.05833 0.59091 0.46135 0.0
C1365 C 0.02504 0.59566 0.43955 0.0
N1366 N 0.03182 0.5716 0.43619 0.0
O1367 O 0.01299 0.62937 0.48988 0.0
H1368 H 0.07408 0.5942 0.4736 0.0
H1369 H 0.00857 0.6041 0.43133 0.0
O1370 O 0.05574 0.65298 0.43455 0.0
C1371 C 0.00437 0.63592 0.51122 0.0
O1372 O 0.01261 0.65636 0.52207 0.0
N1373 N 0.06454 0.64163 0.48593 0.0
C1374 C 0.09776 0.65487 0.52422 0.0
C1375 C 0.10065 0.66464 0.50022 0.0
C1376 C 0.08378 0.65804 0.48145 0.0
C1377 C 0.06385 0.62931 0.50838 0.0
C1378 C 0.07981 0.6362 0.52805 0.0
H1379 H 0.08446 0.66901 0.46465 0.0
H1380 H 0.05002 0.61501 0.51184 0.0
H1381 H 0.00143 0.68227 0.44369 0.0
H1382 H 0.02871 0.72764 0.50205 0.0
H1383 H 0.06283 0.55112 0.45219 0.0
H1384 H 0.11425 0.67926 0.49662 0.0
H1385 H 0.07746 0.62781 0.5463 0.0
C1386 C 0.58139 0.77788 0.76583 0.0
C1387 C 0.55815 0.76906 0.77228 0.0
N1388 N 0.54601 0.76285 0.75111 0.0
N1389 N 0.58361 0.77751 0.74074 0.0
C1390 C 0.56182 0.76806 0.73224 0.0
H1391 H 0.59549 0.78495 0.77854 0.0
Co1392 Co 0.61081 0.79019 0.72402 0.0
C1393 C 0.59422 0.8053 0.67436 0.0
O1394 O 0.60671 0.82598 0.67896 0.0
N1395 N 0.63952 0.80211 0.70727 0.0
C1396 C 0.67586 0.81894 0.69591 0.0
C1397 C 0.65526 0.8215 0.71127 0.0
C1398 C 0.65088 0.78833 0.6893 0.0
N1399 N 0.67304 0.79791 0.68223 0.0
O1400 O 0.62433 0.75695 0.72228 0.0
H1401 H 0.65278 0.83597 0.72514 0.0
H1402 H 0.64342 0.77091 0.68208 0.0
O1403 O 0.59346 0.7878 0.69083 0.0
C1404 C 0.63907 0.75657 0.74112 0.0
O1405 O 0.64133 0.7771 0.75454 0.0
N1406 N 0.59778 0.8224 0.7302 0.0
C1407 C 0.5689 0.852 0.76194 0.0
C1408 C 0.55921 0.84381 0.73908 0.0
C1409 C 0.57376 0.82865 0.72365 0.0
C1410 C 0.60829 0.83261 0.75113 0.0
C1411 C 0.59414 0.84749 0.76734 0.0
H1412 H 0.5641 0.81902 0.70882 0.0
H1413 H 0.62637 0.82613 0.75745 0.0
H1414 H 0.55711 0.7662 0.71266 0.0
H1415 H 0.55054 0.76776 0.79097 0.0
H1416 H 0.69232 0.83077 0.69598 0.0
H1417 H 0.53961 0.84654 0.73458 0.0
H1418 H 0.60217 0.85344 0.78497 0.0
C1419 C 0.45634 0.34064 0.00231 0.0
C1420 C 0.4601 0.31567 0.00687 0.0
N1421 N 0.46375 0.30407 0.98479 0.0
N1422 N 0.45763 0.34464 0.9775 0.0
C1423 C 0.46206 0.32203 0.96732 0.0
H1424 H 0.45274 0.35496 0.01616 0.0
Co1425 Co 0.45284 0.37494 0.96198 0.0
C1426 C 0.4388 0.36339 0.90926 0.0
O1427 O 0.42522 0.38385 0.90988 0.0
N1428 N 0.44888 0.40626 0.94671 0.0
C1429 C 0.4388 0.44503 0.93558 0.0
C1430 C 0.4317 0.42459 0.94955 0.0
C1431 C 0.46609 0.41605 0.93096 0.0
N1432 N 0.46049 0.43953 0.92395 0.0
O1433 O 0.48863 0.38025 0.96278 0.0
H1434 H 0.41538 0.42363 0.96138 0.0
H1435 H 0.48272 0.40622 0.92487 0.0
O1436 O 0.45275 0.35812 0.92814 0.0
C1437 C 0.49167 0.39122 0.98387 0.0
O1438 O 0.47167 0.39715 0.99688 0.0
N1439 N 0.41817 0.36974 0.96585 0.0
C1440 C 0.38513 0.3436 0.9964 0.0
C1441 C 0.39024 0.33513 0.97221 0.0
C1442 C 0.40711 0.34821 0.95737 0.0
C1443 C 0.41025 0.38022 0.98778 0.0
C1444 C 0.39382 0.36731 0.00353 0.0
H1445 H 0.41456 0.33801 0.94183 0.0
H1446 H 0.42006 0.39625 0.99531 0.0
H1447 H 0.46344 0.31863 0.94747 0.0
H1448 H 0.46064 0.30683 0.02504 0.0
H1449 H 0.42935 0.46293 0.93494 0.0
H1450 H 0.38389 0.31684 0.96609 0.0
H1451 H 0.39057 0.37436 0.02224 0.0
C1452 C 0.40784 0.7174 0.76013 0.0
C1453 C 0.43023 0.72764 0.76736 0.0
N1454 N 0.44431 0.73086 0.74679 0.0
N1455 N 0.40784 0.7143 0.73513 0.0
C1456 C 0.43024 0.72288 0.72741 0.0
H1457 H 0.39273 0.71183 0.77235 0.0
Co1458 Co 0.38165 0.69918 0.71889 0.0
C1459 C 0.39752 0.68689 0.66768 0.0
O1460 O 0.3867 0.66522 0.67171 0.0
N1461 N 0.35357 0.68438 0.70316 0.0
C1462 C 0.31927 0.66253 0.69393 0.0
C1463 C 0.34172 0.66234 0.70673 0.0
C1464 C 0.33817 0.69727 0.68778 0.0
N1465 N 0.31688 0.68482 0.68241 0.0
O1466 O 0.36526 0.73122 0.71826 0.0
H1467 H 0.3483 0.64737 0.71853 0.0
H1468 H 0.3418 0.71626 0.68183 0.0
O1469 O 0.39764 0.70369 0.68502 0.0
C1470 C 0.35022 0.73131 0.73684 0.0
O1471 O 0.34686 0.71028 0.74908 0.0
N1472 N 0.39799 0.66843 0.72411 0.0
C1473 C 0.43179 0.64245 0.75413 0.0
C1474 C 0.43894 0.65095 0.7305 0.0
C1475 C 0.4219 0.66416 0.71589 0.0
C1476 C 0.39008 0.65805 0.74601 0.0
C1477 C 0.40675 0.64507 0.76142 0.0
H1478 H 0.42955 0.67409 0.70024 0.0
H1479 H 0.37188 0.66296 0.75337 0.0
H1480 H 0.43626 0.72288 0.70811 0.0
H1481 H 0.4361 0.73156 0.78635 0.0
H1482 H 0.30561 0.64758 0.69368 0.0
H1483 H 0.4583 0.64998 0.72455 0.0
H1484 H 0.40063 0.63893 0.7797 0.0
C1485 C 0.95657 0.17552 0.98562 0.0
C1486 C 0.96875 0.19756 0.98076 0.0
N1487 N 0.97726 0.20681 0.00257 0.0
N1488 N 0.95756 0.17087 0.01035 0.0
C1489 C 0.9703 0.19031 0.02029 0.0
H1490 H 0.94797 0.16332 0.97192 0.0
Co1491 Co 0.94569 0.1416 0.02434 0.0
C1492 C 0.92831 0.15452 0.0751 0.0
O1493 O 0.90783 0.14236 0.06902 0.0
N1494 N 0.93446 0.11084 0.0382 0.0
C1495 C 0.91476 0.07574 0.04916 0.0
C1496 C 0.91261 0.09813 0.03661 0.0
C1497 C 0.94932 0.09576 0.05211 0.0
N1498 N 0.9381 0.07413 0.05859 0.0
O1499 O 0.97995 0.1298 0.0258 0.0
H1500 H 0.89586 0.10456 0.02736 0.0
H1501 H 0.96838 0.1003 0.05715 0.0
O1502 O 0.94629 0.15637 0.05915 0.0
C1503 C 0.98324 0.1195 0.00442 0.0
O1504 O 0.96393 0.11766 0.98929 0.0
N1505 N 0.91299 0.15328 0.01807 0.0
C1506 C 0.88073 0.18077 0.98773 0.0
C1507 C 0.88937 0.19074 0.01036 0.0
C1508 C 0.90569 0.17679 0.0252 0.0
C1509 C 0.90296 0.14262 0.99709 0.0
C1510 C 0.88649 0.15595 0.98178 0.0
H1511 H 0.91526 0.18649 0.04008 0.0
H1512 H 0.91031 0.12501 0.99033 0.0
H1513 H 0.97516 0.19191 0.03987 0.0
H1514 H 0.97134 0.20612 0.96263 0.0
H1515 H 0.90005 0.06202 0.05143 0.0
H1516 H 0.88573 0.21011 0.01516 0.0
H1517 H 0.88064 0.14793 0.9641 0.0
C1518 C 0.5873 0.21125 0.74834 0.0
C1519 C 0.56451 0.22187 0.74337 0.0
N1520 N 0.55512 0.23056 0.765 0.0
N1521 N 0.59216 0.21323 0.773 0.0
C1522 C 0.57212 0.22509 0.78279 0.0
H1523 H 0.59999 0.20335 0.73471 0.0
Co1524 Co 0.62269 0.20434 0.78636 0.0
C1525 C 0.61484 0.18876 0.83822 0.0
O1526 O 0.63031 0.17056 0.83234 0.0
N1527 N 0.65479 0.19657 0.79919 0.0
C1528 C 0.69539 0.18777 0.80338 0.0
C1529 C 0.67363 0.18195 0.79066 0.0
C1530 C 0.6656 0.2108 0.81717 0.0
N1531 N 0.69011 0.20589 0.82003 0.0
O1532 O 0.63218 0.23919 0.7859 0.0
H1533 H 0.67241 0.16907 0.77518 0.0
H1534 H 0.65605 0.22588 0.82678 0.0
O1535 O 0.60901 0.20514 0.82155 0.0
C1536 C 0.64394 0.24078 0.76511 0.0
O1537 O 0.64702 0.22031 0.75181 0.0
N1538 N 0.61324 0.17061 0.78225 0.0
C1539 C 0.58391 0.13857 0.75337 0.0
C1540 C 0.57619 0.14548 0.77739 0.0
C1541 C 0.59105 0.1617 0.79153 0.0
C1542 C 0.62231 0.16144 0.76022 0.0
C1543 C 0.60793 0.14535 0.74548 0.0
H1544 H 0.58241 0.17004 0.80769 0.0
H1545 H 0.63845 0.17002 0.7517 0.0
H1546 H 0.57053 0.23066 0.80218 0.0
H1547 H 0.55571 0.22366 0.72522 0.0
H1548 H 0.71384 0.18018 0.79987 0.0
H1549 H 0.55749 0.14107 0.78389 0.0
H1550 H 0.61436 0.14059 0.72686 0.0
C1551 C 0.92935 0.79818 0.24433 0.0
C1552 C 0.95391 0.7906 0.24487 0.0
N1553 N 0.95775 0.7783 0.26642 0.0
N1554 N 0.91795 0.79095 0.26565 0.0
C1555 C 0.93569 0.77851 0.27855 0.0
H1556 H 0.92031 0.80777 0.22904 0.0
Co1557 Co 0.88469 0.79549 0.27497 0.0
C1558 C 0.88745 0.82109 0.32398 0.0
O1559 O 0.86704 0.83291 0.31709 0.0
N1560 N 0.85077 0.79904 0.28469 0.0
C1561 C 0.80964 0.80547 0.28659 0.0
C1562 C 0.83169 0.81307 0.27577 0.0
C1563 C 0.8397 0.78363 0.30147 0.0
N1564 N 0.81473 0.78678 0.3026 0.0
O1565 O 0.88147 0.75984 0.28029 0.0
H1566 H 0.83305 0.82741 0.26174 0.0
H1567 H 0.84961 0.7693 0.31171 0.0
O1568 O 0.89619 0.80366 0.30986 0.0
C1569 C 0.87673 0.75224 0.25804 0.0
O1570 O 0.87785 0.76864 0.23981 0.0
N1571 N 0.88735 0.82903 0.26499 0.0
C1572 C 0.90412 0.86712 0.23378 0.0
C1573 C 0.91373 0.8647 0.25805 0.0
C1574 C 0.90546 0.84516 0.27323 0.0
C1575 C 0.87685 0.83221 0.24194 0.0
C1576 C 0.88476 0.8513 0.22614 0.0
H1577 H 0.91616 0.84115 0.28981 0.0
H1578 H 0.86451 0.81801 0.23446 0.0
H1579 H 0.93234 0.76926 0.29621 0.0
H1580 H 0.96754 0.79277 0.23006 0.0
H1581 H 0.79113 0.81253 0.28234 0.0
H1582 H 0.92948 0.87597 0.26416 0.0
H1583 H 0.87741 0.85222 0.20728 0.0
C1584 C 0.11327 0.02932 0.45622 0.0
C1585 C 0.09292 0.04568 0.46029 0.0
C1586 C 0.11955 0.01063 0.47362 0.0
C1587 C 0.10557 0.00761 0.49563 0.0
H1588 H 0.12441 0.03108 0.43941 0.0
H1589 H 0.13583 0.99904 0.47019 0.0
S1590 S 0.04917 0.04387 0.51413 0.0
N1591 N 0.05788 0.05624 0.4873 0.0
N1592 N 0.0696 0.02147 0.51986 0.0
C1593 C 0.0848 0.02338 0.49956 0.0
C1594 C 0.07853 0.04236 0.482 0.0
C1595 C 0.26387 0.83452 0.71339 0.0
C1596 C 0.2539 0.85606 0.72468 0.0
C1597 C 0.25201 0.82352 0.69261 0.0
C1598 C 0.22962 0.83352 0.68283 0.0
H1599 H 0.27984 0.82518 0.72169 0.0
H1600 H 0.2595 0.80623 0.68514 0.0
S1601 S 0.19804 0.89152 0.70407 0.0
N1602 N 0.22194 0.88826 0.7234 0.0
N1603 N 0.19974 0.86773 0.68437 0.0
C1604 C 0.22049 0.85593 0.69308 0.0
C1605 C 0.23263 0.86715 0.71403 0.0
C1606 C 0.42741 0.00103 0.9927 0.0
C1607 C 0.40411 0.01323 0.99138 0.0
C1608 C 0.43539 0.98486 0.97374 0.0
C1609 C 0.42044 0.98029 0.95263 0.0
H1610 H 0.43904 0.00298 0.00921 0.0
H1611 H 0.45319 0.97538 0.97585 0.0
S1612 S 0.35859 0.00861 0.93923 0.0
N1613 N 0.36664 0.02053 0.96663 0.0
N1614 N 0.382 0.99031 0.93059 0.0
C1615 C 0.39779 0.99347 0.95024 0.0
C1616 C 0.38954 0.00994 0.96972 0.0
C1617 C 0.2493 0.15617 0.20988 0.0
C1618 C 0.26387 0.1399 0.22443 0.0
C1619 C 0.26034 0.17047 0.1908 0.0
C1620 C 0.28626 0.16896 0.1858 0.0
H1621 H 0.22972 0.15911 0.21432 0.0
H1622 H 0.24881 0.18376 0.1808 0.0
S1623 S 0.33142 0.12599 0.2158 0.0
N1624 N 0.30475 0.12077 0.23049 0.0
N1625 N 0.32529 0.14771 0.19476 0.0
C1626 C 0.30053 0.15153 0.19909 0.0
C1627 C 0.28935 0.13694 0.21834 0.0
C1628 C 0.11014 0.97821 0.02448 0.0
C1629 C 0.10758 0.00383 0.01913 0.0
C1630 C 0.09814 0.96746 0.04497 0.0
C1631 C 0.08285 0.98184 0.06076 0.0
H1632 H 0.1207 0.96612 0.01207 0.0
H1633 H 0.10021 0.94754 0.04802 0.0
S1634 S 0.07162 0.05037 0.0556 0.0
N1635 N 0.09051 0.04381 0.03207 0.0
N1636 N 0.06689 0.02362 0.07023 0.0
C1637 C 0.08124 0.00788 0.05636 0.0
C1638 C 0.09392 0.01888 0.03561 0.0
C1639 C 0.29582 0.85892 0.27574 0.0
C1640 C 0.28508 0.84437 0.2947 0.0
C1641 C 0.28114 0.86885 0.25651 0.0
C1642 C 0.25513 0.86465 0.25548 0.0
H1643 H 0.31587 0.86192 0.27538 0.0
H1644 H 0.29041 0.87909 0.2417 0.0
S1645 S 0.21764 0.82787 0.30043 0.0
N1646 N 0.24653 0.82649 0.31137 0.0
N1647 N 0.21907 0.8454 0.27509 0.0
C1648 C 0.24387 0.85108 0.27479 0.0
C1649 C 0.25883 0.84084 0.29445 0.0
C1650 C 0.42543 0.01456 0.51395 0.0
C1651 C 0.40277 0.00149 0.51735 0.0
C1652 C 0.43618 0.02859 0.5332 0.0
C1653 C 0.42484 0.03009 0.55677 0.0
H1654 H 0.43467 0.01456 0.49593 0.0
H1655 H 0.45349 0.0385 0.52957 0.0
S1656 S 0.36614 0.99841 0.57599 0.0
N1657 N 0.3698 0.99012 0.54643 0.0
N1658 N 0.39035 0.01641 0.58304 0.0
C1659 C 0.4028 0.01621 0.56093 0.0
C1660 C 0.39169 0.00189 0.54112 0.0
C1661 C 0.2468 0.13289 0.77845 0.0
C1662 C 0.25668 0.1488 0.76001 0.0
C1663 C 0.23041 0.14224 0.79682 0.0
C1664 C 0.22332 0.16757 0.79688 0.0
H1665 H 0.25036 0.11294 0.77764 0.0
H1666 H 0.22235 0.12951 0.81032 0.0
S1667 S 0.24731 0.21732 0.75526 0.0
N1668 N 0.26059 0.19141 0.74483 0.0
N1669 N 0.22985 0.20882 0.77927 0.0
C1670 C 0.23446 0.18383 0.77967 0.0
C1671 C 0.25115 0.17444 0.76121 0.0
C1672 C 0.45146 0.08602 0.02736 0.0
C1673 C 0.44668 0.08693 0.05324 0.0
C1674 C 0.47226 0.09818 0.01687 0.0
C1675 C 0.48915 0.11189 0.03181 0.0
H1676 H 0.43915 0.07559 0.01507 0.0
H1677 H 0.47489 0.09701 0.99683 0.0
S1678 S 0.48505 0.11981 0.10081 0.0
N1679 N 0.46051 0.10243 0.09357 0.0
N1680 N 0.49967 0.12519 0.07419 0.0
C1681 C 0.4847 0.11266 0.05783 0.0
C1682 C 0.46352 0.10019 0.06846 0.0
C1683 C 0.17783 0.20253 0.24788 0.0
C1684 C 0.17626 0.1964 0.27344 0.0
C1685 C 0.16147 0.22023 0.2372 0.0
C1686 C 0.14294 0.23189 0.25179 0.0
H1687 H 0.19268 0.19468 0.23654 0.0
H1688 H 0.16448 0.22608 0.21806 0.0
S1689 S 0.1285 0.2187 0.31826 0.0
N1690 N 0.15293 0.20084 0.312 0.0
N1691 N 0.12207 0.23372 0.29209 0.0
C1692 C 0.14005 0.22427 0.27677 0.0
C1693 C 0.15676 0.20662 0.28759 0.0
C1694 C 0.03139 0.90923 0.48347 0.0
C1695 C 0.01654 0.88963 0.49276 0.0
C1696 C 0.05086 0.91952 0.49805 0.0
C1697 C 0.05577 0.9107 0.52241 0.0
H1698 H 0.02671 0.91793 0.46581 0.0
H1699 H 0.06102 0.93552 0.49091 0.0
S1700 S 0.02444 0.85741 0.55354 0.0
N1701 N 0.00975 0.86012 0.5265 0.0
N1702 N 0.04619 0.87941 0.55371 0.0
C1703 C 0.04217 0.89002 0.53103 0.0
C1704 C 0.0226 0.87949 0.51622 0.0
C1705 C 0.30833 0.77196 0.77655 0.0
C1706 C 0.32054 0.79526 0.77671 0.0
C1707 C 0.31732 0.75198 0.76221 0.0
C1708 C 0.33893 0.75437 0.74735 0.0
H1709 H 0.29165 0.76909 0.78767 0.0
H1710 H 0.30754 0.73424 0.7633 0.0
S1711 S 0.3776 0.81161 0.74076 0.0
N1712 N 0.35508 0.81985 0.76027 0.0
N1713 N 0.3721 0.7821 0.73325 0.0
C1714 C 0.35092 0.77778 0.74662 0.0
C1715 C 0.34171 0.79826 0.76132 0.0
C1716 C 0.46975 0.88901 0.50276 0.0
C1717 C 0.48775 0.90473 0.51391 0.0
C1718 C 0.45104 0.89895 0.48711 0.0
C1719 C 0.45014 0.92474 0.48208 0.0
H1720 H 0.47126 0.86888 0.50462 0.0
H1721 H 0.43804 0.88639 0.47789 0.0
S1722 S 0.49034 0.97389 0.50995 0.0
N1723 N 0.50163 0.94741 0.52117 0.0
N1724 N 0.46649 0.96595 0.4919 0.0
C1725 C 0.46684 0.94068 0.49457 0.0
C1726 C 0.48568 0.93067 0.51048 0.0
C1727 C 0.32299 0.21613 0.7192 0.0
C1728 C 0.33492 0.19288 0.71653 0.0
C1729 C 0.33346 0.23513 0.73385 0.0
C1730 C 0.35636 0.23179 0.74647 0.0
H1731 H 0.30546 0.21975 0.70969 0.0
H1732 H 0.32391 0.25301 0.73457 0.0
S1733 S 0.39441 0.17389 0.74687 0.0
N1734 N 0.37018 0.16693 0.72888 0.0
N1735 N 0.39014 0.20307 0.75632 0.0
C1736 C 0.36798 0.20828 0.74503 0.0
C1737 C 0.35719 0.18873 0.73005 0.0
C1738 C 0.04226 0.08088 0.99535 0.0
C1739 C 0.04837 0.08613 0.97026 0.0
C1740 C 0.02228 0.0932 0.00749 0.0
C1741 C 0.00789 0.11119 0.99483 0.0
H1742 H 0.05202 0.06611 0.00507 0.0
H1743 H 0.0171 0.08748 0.0262 0.0
S1744 S 0.01867 0.13423 0.93036 0.0
N1745 N 0.04018 0.1124 0.93432 0.0
N1746 N 0.00281 0.13544 0.95681 0.0
C1747 C 0.01491 0.11764 0.97033 0.0
C1748 C 0.03507 0.10514 0.95809 0.0
C1749 C 0.1641 0.76216 0.24685 0.0
C1750 C 0.13894 0.76635 0.25336 0.0
C1751 C 0.17777 0.78 0.23343 0.0
C1752 C 0.1668 0.80274 0.22622 0.0
H1753 H 0.17274 0.74422 0.25064 0.0
H1754 H 0.19675 0.77564 0.22779 0.0
S1755 S 0.10212 0.82346 0.24009 0.0
N1756 N 0.10395 0.79526 0.25261 0.0
N1757 N 0.12996 0.82926 0.2279 0.0
C1758 C 0.14221 0.80787 0.23399 0.0
C1759 C 0.12815 0.7895 0.24741 0.0
C1760 C 0.04879 0.47473 0.06925 0.0
C1761 C 0.04857 0.45045 0.07942 0.0
C1762 C 0.03189 0.49311 0.07753 0.0
C1763 C 0.01418 0.48786 0.09627 0.0
H1764 H 0.06144 0.47929 0.05414 0.0
H1765 H 0.03255 0.51147 0.06901 0.0
S1766 S 0.00631 0.42723 0.1292 0.0
N1767 N 0.03007 0.42261 0.11007 0.0
N1768 N 0.99733 0.45634 0.12441 0.0
C1769 C 0.01404 0.46371 0.10675 0.0
C1770 C 0.03148 0.44525 0.09866 0.0
C1771 C 0.48027 0.03223 0.90933 0.0
C1772 C 0.49359 0.01709 0.89245 0.0
C1773 C 0.49222 0.05223 0.92176 0.0
C1774 C 0.5178 0.0574 0.91772 0.0
H1775 H 0.46117 0.02753 0.91428 0.0
H1776 H 0.4819 0.06266 0.93573 0.0
S1777 S 0.55938 0.0257 0.87223 0.0
N1778 N 0.53258 0.01039 0.87014 0.0
N1779 N 0.55486 0.04789 0.89328 0.0
C1780 C 0.53059 0.04351 0.8995 0.0
C1781 C 0.51851 0.02335 0.88691 0.0
C1782 C 0.2359 0.26434 0.17555 0.0
C1783 C 0.23182 0.25347 0.1519 0.0
C1784 C 0.21714 0.27787 0.1878 0.0
C1785 C 0.19343 0.28117 0.17693 0.0
H1786 H 0.25415 0.26314 0.18434 0.0
H1787 H 0.22132 0.28602 0.20587 0.0
S1788 S 0.1728 0.25591 0.1156 0.0
N1789 N 0.20208 0.24628 0.1183 0.0
N1790 N 0.16652 0.27171 0.14144 0.0
C1791 C 0.18867 0.26954 0.15372 0.0
C1792 C 0.20792 0.25566 0.14119 0.0
C1793 C 0.01374 0.98089 0.39588 0.0
C1794 C 0.02261 0.9987 0.41319 0.0
C1795 C 0.99617 0.96261 0.4031 0.0
C1796 C 0.98684 0.96197 0.42767 0.0
H1797 H 0.01885 0.98232 0.37634 0.0
H1798 H 0.98875 0.94986 0.38918 0.0
S1799 S 0.00743 0.00155 0.48067 0.0
N1800 N 0.02317 0.01243 0.45646 0.0
N1801 N 0.99031 0.97815 0.46988 0.0
C1802 C 0.99709 0.97835 0.44542 0.0
C1803 C 0.01496 0.99671 0.4382 0.0
C1804 C 0.79026 0.2174 0.17531 0.0
C1805 C 0.79501 0.19152 0.17405 0.0
C1806 C 0.77084 0.22832 0.16152 0.0
C1807 C 0.75538 0.21382 0.14582 0.0
H1808 H 0.8016 0.22932 0.18717 0.0
H1809 H 0.76814 0.24836 0.16304 0.0
S1810 S 0.76021 0.14503 0.13602 0.0
N1811 N 0.78286 0.15165 0.15597 0.0
N1812 N 0.74615 0.17189 0.13016 0.0
C1813 C 0.75974 0.18777 0.14471 0.0
C1814 C 0.77957 0.1767 0.15879 0.0
C1815 C 0.47215 0.53202 0.56292 0.0
C1816 C 0.47036 0.55554 0.5745 0.0
C1817 C 0.48666 0.51294 0.57325 0.0
C1818 C 0.49999 0.51645 0.59571 0.0
H1819 H 0.46205 0.52826 0.54576 0.0
H1820 H 0.48677 0.49491 0.56392 0.0
S1821 S 0.50268 0.57504 0.63279 0.0
N1822 N 0.48418 0.58188 0.60898 0.0
N1823 N 0.5114 0.54563 0.62869 0.0
C1824 C 0.49938 0.54022 0.60697 0.0
C1825 C 0.48455 0.55984 0.59631 0.0
C1826 C 0.22335 0.75482 0.34834 0.0
C1827 C 0.24275 0.76503 0.33383 0.0
C1828 C 0.20485 0.73956 0.33731 0.0
C1829 C 0.20549 0.73391 0.31159 0.0
H1830 H 0.22354 0.75706 0.36847 0.0
H1831 H 0.19084 0.73095 0.34911 0.0
S1832 S 0.24968 0.76001 0.2651 0.0
N1833 N 0.25961 0.77113 0.29218 0.0
N1834 N 0.2248 0.74282 0.27154 0.0
C1835 C 0.22362 0.74569 0.29674 0.0
C1836 C 0.24228 0.76116 0.30787 0.0
C1837 C 0.25618 0.25633 0.81787 0.0
C1838 C 0.25887 0.24457 0.84122 0.0
C1839 C 0.27577 0.26985 0.80718 0.0
C1840 C 0.29891 0.27218 0.81936 0.0
H1841 H 0.23845 0.25576 0.80802 0.0
H1842 H 0.27268 0.27881 0.78932 0.0
S1843 S 0.31616 0.24404 0.88028 0.0
N1844 N 0.28682 0.23521 0.87579 0.0
N1845 N 0.32397 0.26078 0.85554 0.0
C1846 C 0.30237 0.2596 0.8422 0.0
C1847 C 0.28226 0.24572 0.85316 0.0
C1848 C 0.58238 0.52498 0.96466 0.0
C1849 C 0.59384 0.52677 0.94117 0.0
C1850 C 0.59231 0.50968 0.98331 0.0
C1851 C 0.61421 0.49559 0.97934 0.0
H1852 H 0.56576 0.53584 0.96877 0.0
H1853 H 0.58323 0.50966 0.00142 0.0
S1854 S 0.65075 0.49277 0.92062 0.0
N1855 N 0.62751 0.51221 0.9143 0.0
N1856 N 0.64658 0.48358 0.94981 0.0
C1857 C 0.62529 0.4962 0.95557 0.0
C1858 C 0.615 0.5118 0.93637 0.0
C1859 C 0.72021 0.31106 0.22267 0.0
C1860 C 0.72505 0.31975 0.1985 0.0
C1861 C 0.73261 0.3212 0.2433 0.0
C1862 C 0.75024 0.3407 0.24075 0.0
H1863 H 0.70672 0.29623 0.22565 0.0
H1864 H 0.72788 0.31391 0.26158 0.0
S1865 S 0.76988 0.36992 0.18122 0.0
N1866 N 0.74907 0.34858 0.1728 0.0
N1867 N 0.77229 0.36798 0.21196 0.0
C1868 C 0.75584 0.34917 0.21659 0.0
C1869 C 0.74323 0.33865 0.19539 0.0
C1870 C 0.90812 0.51078 0.48247 0.0
C1871 C 0.89453 0.50059 0.50246 0.0
C1872 C 0.9181 0.49513 0.46373 0.0
C1873 C 0.9147 0.46891 0.46446 0.0
H1874 H 0.9122 0.53063 0.48206 0.0
H1875 H 0.92955 0.50345 0.44928 0.0
S1876 S 0.877 0.43383 0.51062 0.0
N1877 N 0.87584 0.46316 0.5203 0.0
N1878 N 0.89422 0.43413 0.48502 0.0
C1879 C 0.89977 0.4589 0.48345 0.0
C1880 C 0.88976 0.47466 0.50244 0.0
C1881 C 0.74633 0.65853 0.70732 0.0
C1882 C 0.76034 0.6418 0.72188 0.0
C1883 C 0.75806 0.67313 0.68885 0.0
C1884 C 0.78411 0.67149 0.68459 0.0
H1885 H 0.72669 0.66158 0.71134 0.0
H1886 H 0.74696 0.68676 0.67882 0.0
S1887 S 0.828 0.62756 0.71516 0.0
N1888 N 0.80084 0.62229 0.72891 0.0
N1889 N 0.82268 0.64966 0.6943 0.0
C1890 C 0.79782 0.65362 0.69791 0.0
C1891 C 0.78595 0.63876 0.71651 0.0
C1892 C 0.57711 0.49466 0.51334 0.0
C1893 C 0.60098 0.50541 0.51639 0.0
C1894 C 0.56684 0.47914 0.53155 0.0
C1895 C 0.57997 0.47388 0.55361 0.0
H1896 H 0.56667 0.49743 0.49619 0.0
H1897 H 0.54855 0.47099 0.52829 0.0
S1898 S 0.64215 0.49887 0.5717 0.0
N1899 N 0.63694 0.51086 0.54371 0.0
N1900 N 0.61716 0.48193 0.57854 0.0
C1901 C 0.60319 0.48564 0.55767 0.0
C1902 C 0.61382 0.50142 0.53891 0.0
C1903 C 0.75264 0.36232 0.76868 0.0
C1904 C 0.7504 0.34742 0.74719 0.0
C1905 C 0.76815 0.35496 0.78846 0.0
C1906 C 0.78182 0.33238 0.78755 0.0
H1907 H 0.743 0.38012 0.76992 0.0
H1908 H 0.7696 0.36714 0.8046 0.0
S1909 S 0.78102 0.28603 0.73587 0.0
N1910 N 0.76235 0.30869 0.72634 0.0
N1911 N 0.79109 0.29475 0.76372 0.0
C1912 C 0.7794 0.31718 0.76627 0.0
C1913 C 0.76371 0.32469 0.7461 0.0
C1914 C 0.91919 0.53469 0.01869 0.0
C1915 C 0.90168 0.51499 0.01754 0.0
C1916 C 0.92738 0.54443 0.04153 0.0
C1917 C 0.91829 0.53502 0.06423 0.0
H1918 H 0.92711 0.54242 0.00175 0.0
H1919 H 0.94158 0.55889 0.04134 0.0
S1920 S 0.87019 0.48526 0.07147 0.0
N1921 N 0.87436 0.48735 0.04096 0.0
N1922 N 0.88922 0.50613 0.08415 0.0
C1923 C 0.90013 0.51582 0.06339 0.0
C1924 C 0.892 0.50565 0.04 0.0
C1925 C 0.74073 0.65849 0.30611 0.0
C1926 C 0.71454 0.65497 0.30761 0.0
C1927 C 0.75494 0.64699 0.28724 0.0
C1928 C 0.74333 0.63178 0.26927 0.0
H1929 H 0.75012 0.67133 0.31869 0.0
H1930 H 0.7747 0.65135 0.28573 0.0
S1931 S 0.67635 0.61345 0.26725 0.0
N1932 N 0.67839 0.63272 0.29135 0.0
N1933 N 0.70492 0.61149 0.25562 0.0
C1934 C 0.71757 0.62684 0.27153 0.0
C1935 C 0.70319 0.63838 0.29075 0.0
C1936 C 0.9583 0.61316 0.56066 0.0
C1937 C 0.94699 0.59234 0.54926 0.0
C1938 C 0.97689 0.62699 0.54827 0.0
C1939 C 0.98515 0.62032 0.5241 0.0
H1940 H 0.95234 0.61907 0.57909 0.0
H1941 H 0.98472 0.64313 0.55776 0.0
S1942 S 0.96285 0.56554 0.48732 0.0
N1943 N 0.94628 0.56461 0.51331 0.0
N1944 N 0.98121 0.59029 0.48995 0.0
C1945 C 0.97438 0.59898 0.51284 0.0
C1946 C 0.9553 0.5851 0.52542 0.0
C1947 C 0.67546 0.73835 0.76305 0.0
C1948 C 0.65349 0.73435 0.74905 0.0
C1949 C 0.68789 0.71865 0.77477 0.0
C1950 C 0.67896 0.69402 0.77296 0.0
H1951 H 0.68291 0.75707 0.76551 0.0
H1952 H 0.70462 0.72276 0.78546 0.0
S1953 S 0.62273 0.67315 0.73786 0.0
N1954 N 0.62367 0.70374 0.73334 0.0
N1955 N 0.64726 0.66637 0.75544 0.0
C1956 C 0.65755 0.68945 0.75824 0.0
C1957 C 0.64477 0.7097 0.74623 0.0
C1958 C 0.555 0.4212 0.99572 0.0
C1959 C 0.55765 0.41799 0.02178 0.0
C1960 C 0.53457 0.41071 0.98264 0.0
C1961 C 0.51634 0.39659 0.99526 0.0
H1962 H 0.56801 0.43302 0.98569 0.0
H1963 H 0.53218 0.41499 0.963 0.0
S1964 S 0.51712 0.37927 0.06237 0.0
N1965 N 0.54207 0.39719 0.05885 0.0
N1966 N 0.50388 0.37755 0.03453 0.0
C1967 C 0.51986 0.39185 0.02088 0.0
C1968 C 0.54045 0.40254 0.0341 0.0
C1969 C 0.82284 0.28793 0.25939 0.0
C1970 C 0.82587 0.2895 0.28559 0.0
C1971 C 0.8335 0.26814 0.2455 0.0
C1972 C 0.84753 0.24941 0.25746 0.0
H1973 H 0.81119 0.30142 0.24978 0.0
H1974 H 0.82968 0.26678 0.22566 0.0
S1975 S 0.86425 0.24746 0.32486 0.0
N1976 N 0.84619 0.27237 0.32221 0.0
N1977 N 0.86625 0.23543 0.29649 0.0
C1978 C 0.8519 0.25179 0.28335 0.0
C1979 C 0.84104 0.27173 0.29734 0.0
C1980 C 0.97071 0.43532 0.00065 0.0
C1981 C 0.9686 0.43604 0.97438 0.0
C1982 C 0.98801 0.41927 0.01244 0.0
C1983 C 0.00342 0.40337 0.99821 0.0
H1984 H 0.95969 0.44799 0.01199 0.0
H1985 H 0.99027 0.42028 0.03254 0.0
S1986 S 0.00171 0.39514 0.92932 0.0
N1987 N 0.98101 0.41737 0.93497 0.0
N1988 N 0.01321 0.38721 0.95683 0.0
C1989 C 1.00014 0.40282 0.97211 0.0
C1990 C 0.98282 0.41917 0.96024 0.0
C1991 C 0.85791 0.69884 0.21653 0.0
C1992 C 0.8374 0.68839 0.22908 0.0
C1993 C 0.87241 0.71768 0.2276 0.0
C1994 C 0.86683 0.72712 0.25158 0.0
H1995 H 0.86218 0.69301 0.19761 0.0
H1996 H 0.88716 0.72613 0.21655 0.0
S1997 S 0.81598 0.70468 0.29299 0.0
N1998 N 0.81316 0.6874 0.26747 0.0
N1999 N 0.84026 0.72326 0.28821 0.0
C2000 C 0.84737 0.71567 0.26505 0.0
C2001 C 0.83264 0.69622 0.25377 0.0
C2002 C 0.52335 0.61854 0.47355 0.0
C2003 C 0.51737 0.61256 0.49846 0.0
C2004 C 0.54334 0.60698 0.46115 0.0
C2005 C 0.55817 0.58901 0.47317 0.0
H2006 H 0.51162 0.63137 0.46313 0.0
H2007 H 0.54674 0.61148 0.44173 0.0
S2008 S 0.5502 0.56657 0.53835 0.0
N2009 N 0.52791 0.58772 0.53484 0.0
N2010 N 0.56568 0.56589 0.51162 0.0
C2011 C 0.55307 0.58357 0.49847 0.0
C2012 C 0.5326 0.5954 0.51111 0.0
C2013 C 0.63741 0.28426 0.74869 0.0
C2014 C 0.65362 0.2643 0.75439 0.0
C2015 C 0.64463 0.30299 0.73156 0.0
C2016 C 0.668 0.30194 0.71942 0.0
H2017 H 0.61857 0.2845 0.75616 0.0
H2018 H 0.63151 0.3177 0.72688 0.0
S2019 S 0.71822 0.25556 0.73067 0.0
N2020 N 0.6949 0.24622 0.74861 0.0
N2021 N 0.70822 0.28111 0.71653 0.0
C2022 C 0.6848 0.283 0.72625 0.0
C2023 C 0.67764 0.26426 0.74371 0.0
C2024 C 0.53859 0.9713 0.57605 0.0
C2025 C 0.53834 0.94802 0.58813 0.0
C2026 C 0.52379 0.99109 0.58452 0.0
C2027 C 0.50809 0.98854 0.60549 0.0
H2028 H 0.55016 0.9742 0.55971 0.0
H2029 H 0.525 0.00876 0.57469 0.0
S2030 S 0.50011 0.93115 0.64341 0.0
N2031 N 0.52062 0.92313 0.6217 0.0
N2032 N 0.49276 0.96067 0.63789 0.0
C2033 C 0.50706 0.96517 0.61741 0.0
C2034 C 0.52221 0.94485 0.60868 0.0
C2035 C 0.98053 0.52823 0.41466 0.0
C2036 C 0.99432 0.50941 0.40251 0.0
C2037 C 0.99267 0.54958 0.42436 0.0
C2038 C 0.01883 0.55244 0.42235 0.0
H2039 H 0.96071 0.5257 0.41808 0.0
H2040 H 0.98181 0.56317 0.43471 0.0
S2041 S 0.06211 0.51098 0.38752 0.0
N2042 N 0.03465 0.4969 0.38558 0.0
N2043 N 0.05721 0.53679 0.40383 0.0
C2044 C 0.03225 0.53479 0.40834 0.0
C2045 C 0.02002 0.5133 0.39843 0.0
C2046 C 0.69547 0.75973 0.66818 0.0
C2047 C 0.69152 0.78584 0.6667 0.0
C2048 C 0.71532 0.74813 0.65527 0.0
C2049 C 0.73175 0.76233 0.64055 0.0
H2050 H 0.68394 0.74841 0.68036 0.0
H2051 H 0.71866 0.72833 0.658 0.0
S2052 S 0.72697 0.83031 0.62729 0.0
N2053 N 0.70383 0.82473 0.64695 0.0
N2054 N 0.7411 0.80318 0.62292 0.0
C2055 C 0.72698 0.78808 0.63771 0.0
C2056 C 0.7069 0.79979 0.65075 0.0
C2057 C 0.50219 0.45699 0.91369 0.0
C2058 C 0.47607 0.45621 0.90969 0.0
C2059 C 0.51717 0.47543 0.90237 0.0
C2060 C 0.5064 0.49343 0.88663 0.0
H2061 H 0.51084 0.4442 0.92676 0.0
H2062 H 0.53683 0.47662 0.90725 0.0
S2063 S 0.43989 0.49693 0.86699 0.0
N2064 N 0.44087 0.47308 0.88655 0.0
N2065 N 0.46882 0.50775 0.86546 0.0
C2066 C 0.48071 0.49171 0.88117 0.0
C2067 C 0.46556 0.47309 0.89267 0.0
C2068 C 0.27766 0.72542 0.64023 0.0
C2069 C 0.25305 0.71942 0.64735 0.0
C2070 C 0.2983 0.7135 0.65126 0.0
C2071 C 0.29519 0.69533 0.67008 0.0
H2072 H 0.28102 0.739 0.62561 0.0
H2073 H 0.31688 0.71849 0.64491 0.0
S2074 S 0.23444 0.67456 0.69674 0.0
N2075 N 0.22663 0.69486 0.67488 0.0
N2076 N 0.26532 0.67317 0.69629 0.0
C2077 C 0.27061 0.6895 0.67762 0.0
C2078 C 0.2496 0.7014 0.66613 0.0
C2079 C 0.96877 0.05822 0.08952 0.0
C2080 C 0.9495 0.0536 0.07202 0.0
C2081 C 0.98035 0.03862 0.10258 0.0
C2082 C 0.97285 0.01369 0.09892 0.0
H2083 H 0.97465 0.07718 0.09357 0.0
H2084 H 0.99463 0.04311 0.11628 0.0
S2085 S 0.92541 0.99098 0.05359 0.0
N2086 N 0.92526 0.02168 0.05026 0.0
N2087 N 0.94626 0.9851 0.0756 0.0
C2088 C 0.95408 0.00868 0.08119 0.0
C2089 C 0.94256 0.02855 0.06758 0.0
C2090 C 0.70341 0.22347 0.86044 0.0
C2091 C 0.70731 0.2205 0.83467 0.0
C2092 C 0.71884 0.23925 0.87476 0.0
C2093 C 0.73825 0.25317 0.86364 0.0
H2094 H 0.68823 0.21358 0.86949 0.0
H2095 H 0.71513 0.24099 0.89459 0.0
S2096 S 0.75544 0.25226 0.79639 0.0
N2097 N 0.73164 0.23262 0.79845 0.0
N2098 N 0.76037 0.26279 0.82502 0.0
C2099 C 0.74221 0.25036 0.83774 0.0
C2100 C 0.72681 0.23389 0.82334 0.0
C2101 C 0.75606 0.74994 0.31341 0.0
C2102 C 0.75867 0.74178 0.33824 0.0
C2103 C 0.77472 0.76406 0.3018 0.0
C2104 C 0.79677 0.77062 0.31453 0.0
H2105 H 0.73894 0.74625 0.30314 0.0
H2106 H 0.77165 0.7703 0.28281 0.0
S2107 S 0.81355 0.7525 0.37928 0.0
N2108 N 0.78557 0.74002 0.37481 0.0
N2109 N 0.82092 0.76667 0.35286 0.0
C2110 C 0.80032 0.76141 0.33891 0.0
C2111 C 0.7812 0.74691 0.35079 0.0
C2112 C 0.15523 0.07123 0.3175 0.0
C2113 C 0.15648 0.09575 0.3078 0.0
C2114 C 0.13464 0.06339 0.33218 0.0
C2115 C 0.11499 0.08002 0.3378 0.0
H2116 H 0.17125 0.05892 0.31588 0.0
H2117 H 0.13525 0.04517 0.34098 0.0
S2118 S 0.10806 0.14487 0.31361 0.0
N2119 N 0.13489 0.13506 0.3019 0.0
N2120 N 0.09708 0.12119 0.33002 0.0
C2121 C 0.11518 0.10371 0.3262 0.0
C2122 C 0.13565 0.1113 0.31096 0.0
C2123 C 0.1951 0.86006 0.56519 0.0
C2124 C 0.17946 0.83887 0.56346 0.0
C2125 C 0.1866 0.88385 0.55743 0.0
C2126 C 0.16237 0.88707 0.54745 0.0
H2127 H 0.21291 0.85874 0.5748 0.0
H2128 H 0.19803 0.90007 0.56167 0.0
S2129 S 0.11624 0.83687 0.53469 0.0
N2130 N 0.14018 0.82219 0.5476 0.0
N2131 N 0.12445 0.86663 0.5332 0.0
C2132 C 0.14788 0.86559 0.54313 0.0
C2133 C 0.15635 0.84156 0.55111 0.0
C2134 C 0.36552 0.91879 0.80584 0.0
C2135 C 0.34321 0.91626 0.81966 0.0
C2136 C 0.38694 0.93037 0.81644 0.0
C2137 C 0.38658 0.93978 0.84112 0.0
H2138 H 0.36714 0.90986 0.78772 0.0
H2139 H 0.40438 0.92977 0.80616 0.0
S2140 S 0.33199 0.94102 0.88366 0.0
N2141 N 0.32172 0.92651 0.85839 0.0
N2142 N 0.36132 0.94858 0.87761 0.0
C2143 C 0.36373 0.93955 0.85394 0.0
C2144 C 0.34223 0.92763 0.84344 0.0
C2145 C 0.33085 0.12951 0.04981 0.0
C2146 C 0.32554 0.10833 0.06438 0.0
C2147 C 0.32092 0.15315 0.0562 0.0
C2148 C 0.30503 0.15629 0.07704 0.0
H2149 H 0.34468 0.12835 0.03506 0.0
H2150 H 0.32767 0.16946 0.04625 0.0
S2151 S 0.28312 0.10624 0.11934 0.0
N2152 N 0.30154 0.09173 0.09922 0.0
N2153 N 0.28272 0.13586 0.11062 0.0
C2154 C 0.29772 0.13487 0.09014 0.0
C2155 C 0.30805 0.11095 0.08396 0.0
C2156 C 0.09201 0.90608 0.18258 0.0
C2157 C 0.09099 0.9315 0.17576 0.0
C2158 C 0.11449 0.89477 0.18984 0.0
C2159 C 0.13699 0.90836 0.19081 0.0
H2160 H 0.07557 0.89431 0.18079 0.0
H2161 H 0.11457 0.87474 0.193 0.0
S2162 S 0.14397 0.97633 0.17877 0.0
N2163 N 0.11399 0.97071 0.17343 0.0
N2164 N 0.15639 0.94937 0.18741 0.0
C2165 C 0.1359 0.93434 0.18655 0.0
C2166 C 0.11284 0.94594 0.17895 0.0
C2167 C 0.34485 0.85443 0.42568 0.0
C2168 C 0.32099 0.8553 0.41446 0.0
C2169 C 0.35413 0.87442 0.43985 0.0
C2170 C 0.34022 0.89647 0.4431 0.0
H2171 H 0.35757 0.83922 0.42149 0.0
H2172 H 0.37356 0.8738 0.44573 0.0
S2173 S 0.27477 0.90636 0.42199 0.0
N2174 N 0.2821 0.87842 0.41084 0.0
N2175 N 0.29955 0.91622 0.43774 0.0
C2176 C 0.31517 0.89643 0.43469 0.0
C2177 C 0.3056 0.87583 0.42015 0.0
C2178 C 0.35423 0.06117 0.66267 0.0
C2179 C 0.35292 0.07374 0.68581 0.0
C2180 C 0.37663 0.05063 0.65413 0.0
C2181 C 0.39865 0.05226 0.66835 0.0
H2182 H 0.33862 0.06191 0.64976 0.0
H2183 H 0.37743 0.04396 0.63499 0.0
S2184 S 0.40374 0.0779 0.73266 0.0
N2185 N 0.37439 0.08347 0.72456 0.0
N2186 N 0.41653 0.06289 0.70883 0.0
C2187 C 0.39674 0.06155 0.69297 0.0
C2188 C 0.37383 0.07258 0.70162 0.0
C2189 C 0.18798 0.1181 0.89541 0.0
C2190 C 0.19086 0.14082 0.90834 0.0
C2191 C 0.17551 0.09784 0.90622 0.0
C2192 C 0.16584 0.0992 0.93063 0.0
H2193 H 0.19269 0.11697 0.87574 0.0
H2194 H 0.17138 0.08187 0.89442 0.0
S2195 S 0.17341 0.15241 0.97444 0.0
N2196 N 0.18696 0.16204 0.94841 0.0
N2197 N 0.16343 0.12363 0.96884 0.0
C2198 C 0.17136 0.12057 0.94493 0.0
C2199 C 0.18408 0.14144 0.93379 0.0
C2200 C 0.08681 0.30374 0.13255 0.0
C2201 C 0.08068 0.31685 0.15451 0.0
C2202 C 0.08007 0.31318 0.10886 0.0
C2203 C 0.06682 0.33589 0.10639 0.0
H2204 H 0.09897 0.28755 0.13351 0.0
H2205 H 0.08729 0.30382 0.09242 0.0
S2206 S 0.04419 0.37582 0.1582 0.0
N2207 N 0.05881 0.35255 0.17223 0.0
N2208 N 0.04607 0.36987 0.12796 0.0
C2209 C 0.05878 0.34786 0.12825 0.0
C2210 C 0.06572 0.33843 0.15225 0.0
C2211 C 0.6069 0.16822 0.9047 0.0
C2212 C 0.58077 0.16657 0.90766 0.0
C2213 C 0.6176 0.17821 0.88305 0.0
C2214 C 0.60277 0.18698 0.86319 0.0
H2215 H 0.61932 0.16063 0.91879 0.0
H2216 H 0.6378 0.17752 0.88115 0.0
S2217 S 0.5334 0.18996 0.86265 0.0
N2218 N 0.5402 0.17713 0.88992 0.0
N2219 N 0.56049 0.1957 0.84886 0.0
C2220 C 0.57664 0.18744 0.86662 0.0
C2221 C 0.5656 0.17727 0.88894 0.0
C2222 C 0.91427 0.82001 0.36338 0.0
C2223 C 0.90328 0.83337 0.34353 0.0
C2224 C 0.92593 0.8327 0.38359 0.0
C2225 C 0.92719 0.85912 0.38437 0.0
H2226 H 0.91263 0.79981 0.36401 0.0
H2227 H 0.93259 0.82186 0.39932 0.0
S2228 S 0.90532 0.90233 0.33477 0.0
N2229 N 0.89714 0.87429 0.3247 0.0
N2230 N 0.91943 0.89769 0.3618 0.0
C2231 C 0.91804 0.87234 0.36362 0.0
C2232 C 0.90598 0.8596 0.34346 0.0
C2233 C 0.92641 0.15649 0.14501 0.0
C2234 C 0.91097 0.17738 0.14983 0.0
C2235 C 0.93516 0.15102 0.12081 0.0
C2236 C 0.92882 0.16616 0.10035 0.0
H2237 H 0.93013 0.14313 0.15976 0.0
H2238 H 0.94496 0.13352 0.11773 0.0
S2239 S 0.89087 0.22427 0.10316 0.0
N2240 N 0.89151 0.2144 0.1324 0.0
N2241 N 0.9077 0.20405 0.08688 0.0
C2242 C 0.91504 0.18815 0.10523 0.0
C2243 C 0.90623 0.19382 0.12998 0.0
C2244 C 0.4352 0.67756 0.64167 0.0
C2245 C 0.41158 0.68924 0.64391 0.0
C2246 C 0.44424 0.66902 0.61834 0.0
C2247 C 0.42983 0.67166 0.5965 0.0
H2248 H 0.44567 0.67276 0.65831 0.0
H2249 H 0.46132 0.6581 0.61787 0.0
S2250 S 0.36796 0.70311 0.59205 0.0
N2251 N 0.37525 0.70495 0.62198 0.0
N2252 N 0.39175 0.68881 0.57846 0.0
C2253 C 0.4072 0.68516 0.5983 0.0
C2254 C 0.39822 0.69399 0.62191 0.0
C2255 C 0.11159 0.65266 0.3952 0.0
C2256 C 0.08649 0.65749 0.40154 0.0
C2257 C 0.12232 0.66229 0.37338 0.0
C2258 C 0.1085 0.67711 0.35655 0.0
H2259 H 0.12311 0.6409 0.40699 0.0
H2260 H 0.14157 0.65735 0.36935 0.0
S2261 S 0.04242 0.69695 0.36515 0.0
N2262 N 0.04839 0.67956 0.38994 0.0
N2263 N 0.06852 0.6974 0.34859 0.0
C2264 C 0.08364 0.6831 0.36313 0.0
C2265 C 0.07268 0.67336 0.38564 0.0
C2266 C 0.3928 0.32375 0.87315 0.0
C2267 C 0.407 0.31357 0.85352 0.0
C2268 C 0.40376 0.33859 0.89166 0.0
C2269 C 0.42969 0.34328 0.89217 0.0
H2270 H 0.37255 0.3222 0.87294 0.0
H2271 H 0.39145 0.34768 0.90495 0.0
S2272 S 0.47617 0.31741 0.84773 0.0
N2273 N 0.44902 0.3067 0.83732 0.0
N2274 N 0.46987 0.33399 0.87311 0.0
C2275 C 0.44465 0.33111 0.87426 0.0
C2276 C 0.43328 0.31623 0.85481 0.0
C2277 C 0.64134 0.55257 0.83744 0.0
C2278 C 0.61767 0.55594 0.8265 0.0
C2279 C 0.66302 0.56216 0.82628 0.0
C2280 C 0.66199 0.57558 0.80369 0.0
H2281 H 0.64279 0.545 0.85616 0.0
H2282 H 0.68026 0.56147 0.83692 0.0
S2283 S 0.60543 0.58487 0.76474 0.0
N2284 N 0.5951 0.56944 0.78941 0.0
N2285 N 0.63592 0.58842 0.76888 0.0
C2286 C 0.63897 0.57641 0.79101 0.0
C2287 C 0.61677 0.56625 0.80228 0.0
C2288 C 0.64202 0.36627 0.06202 0.0
C2289 C 0.65967 0.38473 0.05566 0.0
C2290 C 0.64927 0.34349 0.07268 0.0
C2291 C 0.67458 0.33804 0.07762 0.0
H2292 H 0.62218 0.3702 0.06034 0.0
H2293 H 0.63466 0.33055 0.07817 0.0
S2294 S 0.72856 0.37874 0.06136 0.0
N2295 N 0.70381 0.39513 0.05268 0.0
N2296 N 0.71768 0.35209 0.07261 0.0
C2297 C 0.69268 0.35546 0.06942 0.0
C2298 C 0.68518 0.37885 0.05846 0.0
C2299 C 0.86793 0.4113 0.31741 0.0
C2300 C 0.84581 0.40536 0.33049 0.0
C2301 C 0.8884 0.42293 0.32976 0.0
C2302 C 0.88721 0.42901 0.35545 0.0
H2303 H 0.87023 0.40505 0.29829 0.0
H2304 H 0.90588 0.42507 0.31974 0.0
S2305 S 0.83265 0.42053 0.39714 0.0
N2306 N 0.8237 0.40856 0.37014 0.0
N2307 N 0.86123 0.43117 0.39239 0.0
C2308 C 0.86443 0.42538 0.36782 0.0
C2309 C 0.84401 0.41328 0.35562 0.0
C2310 C 0.80036 0.63667 0.59208 0.0
C2311 C 0.80587 0.65785 0.57762 0.0
C2312 C 0.81121 0.61331 0.58669 0.0
C2313 C 0.8278 0.61012 0.56645 0.0
H2314 H 0.79006 0.63877 0.60941 0.0
H2315 H 0.8085 0.59832 0.59999 0.0
S2316 S 0.8456 0.65881 0.52077 0.0
N2317 N 0.82682 0.67343 0.54051 0.0
N2318 N 0.84696 0.62945 0.53032 0.0
C2319 C 0.83136 0.63044 0.55033 0.0
C2320 C 0.82041 0.65432 0.55591 0.0
C2321 C 0.61849 0.4074 0.69385 0.0
C2322 C 0.64212 0.41847 0.6909 0.0
C2323 C 0.59698 0.41846 0.68383 0.0
C2324 C 0.59816 0.44116 0.67052 0.0
H2325 H 0.61703 0.3885 0.70104 0.0
H2326 H 0.57995 0.4075 0.6839 0.0
S2327 S 0.65443 0.48096 0.66343 0.0
N2328 N 0.6646 0.45612 0.67873 0.0
N2329 N 0.62412 0.4765 0.65893 0.0
C2330 C 0.621 0.45413 0.6705 0.0
C2331 C 0.64302 0.44292 0.68107 0.0
C2332 C 0.88309 0.3893 0.91497 0.0
C2333 C 0.87002 0.40715 0.92932 0.0
C2334 C 0.87053 0.37083 0.9013 0.0
C2335 C 0.84428 0.36909 0.90156 0.0
H2336 H 0.90329 0.39028 0.91328 0.0
H2337 H 0.88161 0.35808 0.89007 0.0
S2338 S 0.80116 0.40913 0.93858 0.0
N2339 N 0.82929 0.42043 0.94473 0.0
N2340 N 0.80559 0.38535 0.9193 0.0
C2341 C 0.83095 0.38565 0.91719 0.0
C2342 C 0.84383 0.40468 0.93108 0.0
C2343 C 0.90399 0.58798 0.19765 0.0
C2344 C 0.90609 0.56298 0.18946 0.0
C2345 C 0.88101 0.59794 0.20524 0.0
C2346 C 0.85918 0.58331 0.20537 0.0
H2347 H 0.91986 0.60057 0.19659 0.0
H2348 H 0.87991 0.61784 0.2091 0.0
S2349 S 0.85523 0.51563 0.19053 0.0
N2350 N 0.88489 0.52283 0.18544 0.0
N2351 N 0.84164 0.54166 0.20026 0.0
C2352 C 0.86143 0.55762 0.20003 0.0
C2353 C 0.88493 0.54741 0.19195 0.0
C2354 C 0.69014 0.60089 0.41851 0.0
C2355 C 0.67641 0.6012 0.44098 0.0
C2356 C 0.70047 0.62284 0.40859 0.0
C2357 C 0.69731 0.64598 0.42062 0.0
H2358 H 0.69045 0.58423 0.40697 0.0
H2359 H 0.70801 0.62218 0.38979 0.0
S2360 S 0.66795 0.65585 0.48268 0.0
N2361 N 0.66392 0.62568 0.47704 0.0
N2362 N 0.68374 0.667 0.4586 0.0
C2363 C 0.68674 0.6459 0.44476 0.0
C2364 C 0.67608 0.62346 0.45487 0.0
C2365 C 0.55792 0.81896 0.64886 0.0
C2366 C 0.57998 0.80458 0.65073 0.0
C2367 C 0.55034 0.82948 0.62592 0.0
C2368 C 0.56478 0.82614 0.60424 0.0
H2369 H 0.54797 0.82439 0.66565 0.0
H2370 H 0.53476 0.84247 0.62581 0.0
S2371 S 0.62243 0.78766 0.59885 0.0
N2372 N 0.61445 0.78538 0.62856 0.0
N2373 N 0.60073 0.80527 0.58572 0.0
C2374 C 0.58548 0.80982 0.60552 0.0
C2375 C 0.59293 0.79896 0.62871 0.0
C2376 C 0.94744 0.14162 0.30236 0.0
C2377 C 0.94522 0.12702 0.2805 0.0
C2378 C 0.96668 0.13727 0.3197 0.0
C2379 C 0.9844 0.11827 0.31566 0.0
H2380 H 0.93469 0.15704 0.30567 0.0
H2381 H 0.96805 0.14921 0.33603 0.0
S2382 S 0.98484 0.07316 0.26259 0.0
N2383 N 0.96106 0.09191 0.25657 0.0
N2384 N 0.99698 0.08325 0.28917 0.0
C2385 C 0.98173 0.10297 0.29425 0.0
C2386 C 0.96223 0.1075 0.27665 0.0
C2387 C 0.15071 0.68496 0.55974 0.0
C2388 C 0.13806 0.70212 0.57526 0.0
C2389 C 0.13755 0.66782 0.54485 0.0
C2390 C 0.11128 0.66703 0.54516 0.0
H2391 H 0.17087 0.6861 0.55771 0.0
H2392 H 0.14789 0.6563 0.53174 0.0
S2393 S 0.0695 0.70634 0.5842 0.0
N2394 N 0.098 0.71604 0.59143 0.0
N2395 N 0.07312 0.6835 0.56363 0.0
C2396 C 0.0985 0.68268 0.56207 0.0
C2397 C 0.11194 0.70032 0.57712 0.0
C2398 C 0.51726 0.88891 0.79351 0.0
C2399 C 0.51409 0.87625 0.81639 0.0
C2400 C 0.53554 0.88147 0.77628 0.0
C2401 C 0.55154 0.86131 0.78142 0.0
H2402 H 0.50563 0.90488 0.78895 0.0
H2403 H 0.5371 0.89147 0.75876 0.0
S2404 S 0.55034 0.82134 0.83802 0.0
N2405 N 0.52812 0.84228 0.84296 0.0
N2406 N 0.56257 0.82821 0.81053 0.0
C2407 C 0.54869 0.84854 0.80423 0.0
C2408 C 0.52998 0.85608 0.82175 0.0
C2409 C 0.38717 0.30191 0.01722 0.0
C2410 C 0.37571 0.32561 0.01527 0.0
C2411 C 0.3789 0.28422 0.0346 0.0
C2412 C 0.35907 0.28964 0.05092 0.0
H2413 H 0.40271 0.29697 0.00517 0.0
H2414 H 0.38792 0.26607 0.03513 0.0
S2415 S 0.32255 0.34868 0.05326 0.0
N2416 N 0.34352 0.35349 0.03111 0.0
N2417 N 0.32788 0.32018 0.0639 0.0
C2418 C 0.34769 0.31338 0.0495 0.0
C2419 C 0.35608 0.3314 0.03169 0.0
C2420 C 0.92814 0.87059 0.19398 0.0
C2421 C 0.91778 0.88233 0.21521 0.0
C2422 C 0.9453 0.88315 0.17863 0.0
C2423 C 0.95253 0.90781 0.18411 0.0
H2424 H 0.9242 0.85106 0.19012 0.0
H2425 H 0.95412 0.87304 0.16343 0.0
S2426 S 0.92769 0.948 0.23504 0.0
N2427 N 0.91379 0.9207 0.2392 0.0
N2428 N 0.94565 0.94458 0.21015 0.0
C2429 C 0.94077 0.92033 0.2041 0.0
C2430 C 0.92353 0.9075 0.21977 0.0
C2431 C 0.35973 0.7036 0.46613 0.0
C2432 C 0.38081 0.68827 0.46282 0.0
C2433 C 0.35379 0.72223 0.44877 0.0
C2434 C 0.36888 0.72648 0.42758 0.0
H2435 H 0.34815 0.7016 0.48262 0.0
H2436 H 0.33742 0.73372 0.45219 0.0
S2437 S 0.42611 0.69142 0.41031 0.0
N2438 N 0.41669 0.67832 0.4366 0.0
N2439 N 0.40543 0.7135 0.40399 0.0
C2440 C 0.38955 0.7108 0.42362 0.0
C2441 C 0.39557 0.6917 0.44126 0.0
C2442 C 0.54236 0.13617 0.69592 0.0
C2443 C 0.5265 0.11577 0.70078 0.0
C2444 C 0.5613 0.14291 0.71278 0.0
C2445 C 0.56522 0.12939 0.73502 0.0
H2446 H 0.53993 0.14712 0.67908 0.0
H2447 H 0.57264 0.15921 0.70863 0.0
S2448 S 0.53026 0.07314 0.75543 0.0
N2449 N 0.51702 0.0811 0.72871 0.0
N2450 N 0.55248 0.09409 0.76048 0.0
C2451 C 0.54978 0.10875 0.73994 0.0
C2452 C 0.5305 0.10184 0.72278 0.0
C2453 C 0.1127 0.26483 0.95328 0.0
C2454 C 0.13117 0.26939 0.93519 0.0
C2455 C 0.10885 0.28155 0.97308 0.0
C2456 C 0.12364 0.30327 0.97583 0.0
H2457 H 0.10125 0.24811 0.95219 0.0
H2458 H 0.0939 0.27755 0.98615 0.0
S2459 S 0.1749 0.3235 0.93379 0.0
N2460 N 0.16442 0.29725 0.92124 0.0
N2461 N 0.15765 0.32823 0.95892 0.0
C2462 C 0.14212 0.30808 0.95783 0.0
C2463 C 0.14578 0.29126 0.93743 0.0
C2464 C 0.28181 0.93914 0.13149 0.0
C2465 C 0.25964 0.93555 0.11762 0.0
C2466 C 0.29863 0.95839 0.12574 0.0
C2467 C 0.29403 0.97476 0.10577 0.0
H2468 H 0.2859 0.92742 0.14744 0.0
H2469 H 0.31516 0.96072 0.13726 0.0
S2470 S 0.24013 0.97154 0.06184 0.0
N2471 N 0.23471 0.94896 0.08217 0.0
N2472 N 0.26675 0.98465 0.0706 0.0
C2473 C 0.27234 0.97084 0.09116 0.0
C2474 C 0.25505 0.95138 0.09727 0.0
C2475 C 0.30588 0.06062 0.35609 0.0
C2476 C 0.28302 0.06552 0.3683 0.0
C2477 C 0.32185 0.04154 0.36428 0.0
C2478 C 0.31535 0.02654 0.38476 0.0
H2479 H 0.31106 0.07102 0.33952 0.0
H2480 H 0.33913 0.03816 0.35423 0.0
S2481 S 0.25893 0.03346 0.42471 0.0
N2482 N 0.25559 0.05505 0.40291 0.0
N2483 N 0.2856 0.01917 0.41842 0.0
C2484 C 0.29295 0.03177 0.39763 0.0
C2485 C 0.27677 0.05124 0.38935 0.0
C2486 C 0.21472 0.01684 0.60439 0.0
C2487 C 0.19317 0.01225 0.61892 0.0
C2488 C 0.23131 0.03634 0.61026 0.0
C2489 C 0.22679 0.05229 0.63065 0.0
H2490 H 0.21878 0.00537 0.58817 0.0
H2491 H 0.24793 0.03881 0.59894 0.0
S2492 S 0.17382 0.04787 0.67524 0.0
N2493 N 0.16873 0.02498 0.65507 0.0
N2494 N 0.19972 0.06189 0.66587 0.0
C2495 C 0.20527 0.04812 0.64523 0.0
C2496 C 0.1885 0.02809 0.6394 0.0
C2497 C 0.20042 0.96393 0.89537 0.0
C2498 C 0.17839 0.96917 0.88185 0.0
C2499 C 0.21691 0.94508 0.8877 0.0
C2500 C 0.21198 0.93063 0.86628 0.0
H2501 H 0.20515 0.97478 0.91184 0.0
H2502 H 0.23406 0.94228 0.89816 0.0
S2503 S 0.15677 0.93675 0.82453 0.0
N2504 N 0.15218 0.9581 0.84646 0.0
N2505 N 0.18339 0.92275 0.8317 0.0
C2506 C 0.18962 0.93514 0.85302 0.0
C2507 C 0.17276 0.95437 0.86091 0.0
C2508 C 0.65502 0.18563 0.05531 0.0
C2509 C 0.64331 0.19788 0.07548 0.0
C2510 C 0.64185 0.16876 0.04013 0.0
C2511 C 0.61651 0.16338 0.04467 0.0
H2512 H 0.6741 0.19034 0.05027 0.0
H2513 H 0.65099 0.16127 0.02366 0.0
S2514 S 0.57796 0.18854 0.09653 0.0
N2515 N 0.60562 0.2019 0.10046 0.0
N2516 N 0.58073 0.17006 0.07188 0.0
C2517 C 0.60515 0.17393 0.06595 0.0
C2518 C 0.6186 0.19122 0.08141 0.0
C2519 C 0.03622 0.38063 0.28587 0.0
C2520 C 0.05318 0.36088 0.28954 0.0
C2521 C 0.01826 0.38665 0.30402 0.0
C2522 C 0.01649 0.37308 0.32651 0.0
H2523 H 0.03677 0.39146 0.26879 0.0
H2524 H 0.00576 0.40222 0.3005 0.0
S2525 S 0.0552 0.31855 0.34447 0.0
N2526 N 0.06615 0.32689 0.31687 0.0
N2527 N 0.03262 0.3386 0.3511 0.0
C2528 C 0.03325 0.35329 0.33043 0.0
C2529 C 0.0515 0.34707 0.31191 0.0
C2530 C 0.85351 0.81571 0.51157 0.0
C2531 C 0.87513 0.8301 0.51592 0.0
C2532 C 0.8464 0.79666 0.52809 0.0
C2533 C 0.86078 0.79105 0.54948 0.0
H2534 H 0.84209 0.8191 0.49519 0.0
H2535 H 0.82943 0.78625 0.5241 0.0
S2536 S 0.91948 0.8224 0.56902 0.0
N2537 N 0.91107 0.83703 0.54322 0.0
N2538 N 0.89768 0.80108 0.57396 0.0
C2539 C 0.88227 0.80535 0.5542 0.0
C2540 C 0.88947 0.82486 0.53749 0.0
C2541 C 0.08263 0.59439 0.21555 0.0
C2542 C 0.07438 0.61318 0.23209 0.0
C2543 C 0.06567 0.58181 0.19972 0.0
C2544 C 0.04003 0.58788 0.19981 0.0
H2545 H 0.10221 0.58911 0.21516 0.0
H2546 H 0.07249 0.56677 0.18794 0.0
S2547 S 0.00965 0.63805 0.23691 0.0
N2548 N 0.03929 0.63884 0.24565 0.0
N2549 N 0.00766 0.61534 0.21603 0.0
C2550 C 0.03183 0.60736 0.21543 0.0
C2551 C 0.04893 0.61998 0.23154 0.0
C2552 C 0.47968 0.36446 0.70595 0.0
C2553 C 0.47414 0.38438 0.68983 0.0
C2554 C 0.46258 0.35703 0.72426 0.0
C2555 C 0.43952 0.36945 0.72724 0.0
H2556 H 0.49742 0.35473 0.70449 0.0
H2557 H 0.46733 0.34123 0.73601 0.0
S2558 S 0.41693 0.42376 0.69082 0.0
N2559 N 0.44456 0.41714 0.67866 0.0
N2560 N 0.41231 0.40292 0.71311 0.0
C2561 C 0.43379 0.38942 0.71131 0.0
C2562 C 0.45116 0.39697 0.69262 0.0
C2563 C 0.4732 0.6413 0.8119 0.0
C2564 C 0.49162 0.62353 0.80564 0.0
C2565 C 0.45343 0.64675 0.79547 0.0
C2566 C 0.45128 0.63453 0.77222 0.0
H2567 H 0.47417 0.65122 0.82956 0.0
H2568 H 0.44006 0.66105 0.80076 0.0
S2569 S 0.49319 0.58525 0.7475 0.0
N2570 N 0.5054 0.59274 0.77487 0.0
N2571 N 0.46838 0.6033 0.74415 0.0
C2572 C 0.46925 0.61653 0.76586 0.0
C2573 C 0.48936 0.61095 0.7825 0.0
C2574 C 0.84631 0.19515 0.95901 0.0
C2575 C 0.87081 0.1977 0.96825 0.0
C2576 C 0.8369 0.21191 0.94107 0.0
C2577 C 0.8518 0.23157 0.93169 0.0
H2578 H 0.83418 0.18061 0.96622 0.0
H2579 H 0.81754 0.2101 0.93529 0.0
S2580 S 0.91851 0.24345 0.94724 0.0
N2581 N 0.91054 0.21955 0.96503 0.0
N2582 N 0.89319 0.2506 0.93104 0.0
C2583 C 0.87679 0.23327 0.93984 0.0
C2584 C 0.8862 0.21645 0.95819 0.0
C2585 C 0.64265 0.79991 0.47764 0.0
C2586 C 0.62069 0.81386 0.4743 0.0
C2587 C 0.64949 0.78144 0.46039 0.0
C2588 C 0.63434 0.77595 0.43948 0.0
H2589 H 0.65421 0.80285 0.49404 0.0
H2590 H 0.6666 0.77105 0.4637 0.0
S2591 S 0.57476 0.80712 0.4227 0.0
N2592 N 0.58385 0.82126 0.44865 0.0
N2593 N 0.59662 0.78619 0.41629 0.0
C2594 C 0.61266 0.79022 0.43561 0.0
C2595 C 0.60581 0.80922 0.45308 0.0
C2596 C 0.78141 0.47804 0.60436 0.0
C2597 C 0.80339 0.47935 0.61901 0.0
C2598 C 0.76424 0.4584 0.607 0.0
C2599 C 0.76855 0.43887 0.62397 0.0
H2600 H 0.77733 0.49232 0.59062 0.0
H2601 H 0.74724 0.4587 0.59593 0.0
S2602 S 0.8239 0.43232 0.6656 0.0
N2603 N 0.82866 0.45892 0.65075 0.0
N2604 N 0.79716 0.42128 0.6547 0.0
C2605 C 0.79099 0.43926 0.63789 0.0
C2606 C 0.8082 0.45963 0.63566 0.0
C2607 C 0.8082 0.52715 0.88321 0.0
C2608 C 0.83187 0.52694 0.8716 0.0
C2609 C 0.78917 0.54316 0.87505 0.0
C2610 C 0.79316 0.55961 0.85504 0.0
H2611 H 0.80446 0.51508 0.89901 0.0
H2612 H 0.77125 0.54272 0.88451 0.0
S2613 S 0.85118 0.56486 0.81715 0.0
N2614 N 0.85799 0.54375 0.8386 0.0
N2615 N 0.82205 0.57359 0.82273 0.0
C2616 C 0.81666 0.55932 0.84302 0.0
C2617 C 0.83607 0.54308 0.85146 0.0
C2618 C 0.72492 0.51641 0.10522 0.0
C2619 C 0.70128 0.51273 0.11636 0.0
C2620 C 0.74144 0.53492 0.11398 0.0
C2621 C 0.73483 0.55068 0.13398 0.0
H2622 H 0.73049 0.50528 0.08922 0.0
H2623 H 0.75942 0.53709 0.10487 0.0
S2624 S 0.67609 0.54728 0.17096 0.0
N2625 N 0.67282 0.52533 0.14941 0.0
N2626 N 0.70363 0.56029 0.16569 0.0
C2627 C 0.71142 0.54691 0.14553 0.0
C2628 C 0.69471 0.52794 0.13675 0.0
C2629 C 0.69918 0.43316 0.3649 0.0
C2630 C 0.7215 0.42799 0.37795 0.0
C2631 C 0.68381 0.45331 0.37182 0.0
C2632 C 0.69038 0.46904 0.39187 0.0
H2633 H 0.69424 0.42236 0.34845 0.0
H2634 H 0.66716 0.45712 0.3609 0.0
S2635 S 0.74514 0.46123 0.43404 0.0
N2636 N 0.7482 0.43868 0.4131 0.0
N2637 N 0.71927 0.47631 0.42641 0.0
C2638 C 0.71197 0.46318 0.40586 0.0
C2639 C 0.72754 0.44273 0.39881 0.0
C2640 C 0.00553 0.99882 0.25232 0.0
C2641 C 0.02047 0.01215 0.23539 0.0
C2642 C 0.00666 0.00391 0.27781 0.0
C2643 C 0.02279 0.02245 0.28704 0.0
H2644 H 0.9923 0.98495 0.24562 0.0
H2645 H 0.99435 0.99385 0.29033 0.0
S2646 S 0.06609 0.06205 0.25004 0.0
N2647 N 0.05233 0.04379 0.22917 0.0
N2648 N 0.05446 0.05383 0.27741 0.0
C2649 C 0.0387 0.03512 0.27036 0.0
C2650 C 0.03754 0.02983 0.24436 0.0
C2651 C 0.25351 0.73886 0.46975 0.0
C2652 C 0.27213 0.75571 0.46223 0.0
C2653 C 0.24548 0.73821 0.4945 0.0
C2654 C 0.2559 0.75433 0.51252 0.0
H2655 H 0.24498 0.72626 0.45634 0.0
H2656 H 0.23095 0.72505 0.49961 0.0
S2657 S 0.30616 0.80095 0.50245 0.0
N2658 N 0.30144 0.78832 0.47463 0.0
N2659 N 0.28615 0.7871 0.52147 0.0
C2660 C 0.27448 0.77134 0.50526 0.0
C2661 C 0.28269 0.772 0.47999 0.0
C2662 C 0.51208 0.98761 0.73564 0.0
C2663 C 0.49821 0.00921 0.73043 0.0
C2664 C 0.50929 0.97523 0.75841 0.0
C2665 C 0.49275 0.98425 0.77679 0.0
H2666 H 0.52492 0.98011 0.72187 0.0
H2667 H 0.52018 0.95847 0.7617 0.0
S2668 S 0.45347 0.04132 0.77237 0.0
N2669 N 0.46794 0.03965 0.74515 0.0
N2670 N 0.46316 0.01687 0.78853 0.0
C2671 C 0.47885 0.00601 0.77176 0.0
C2672 C 0.48151 0.01841 0.7484 0.0
C2673 C 0.24347 0.23058 0.98036 0.0
C2674 C 0.22483 0.2468 0.97148 0.0
C2675 C 0.25226 0.23256 0.00493 0.0
C2676 C 0.24262 0.2508 0.02129 0.0
H2677 H 0.25199 0.21704 0.96792 0.0
H2678 H 0.26737 0.22045 0.01087 0.0
S2679 S 0.19064 0.29472 0.00813 0.0
N2680 N 0.19495 0.27953 0.98157 0.0
N2681 N 0.21149 0.28328 0.02785 0.0
C2682 C 0.22304 0.26618 0.013 0.0
C2683 C 0.21412 0.26415 0.98803 0.0
C2684 C 0.2448 0.99532 0.97156 0.0
C2685 C 0.22533 0.00813 0.98371 0.0
C2686 C 0.26936 0.99663 0.9805 0.0
C2687 C 0.27524 0.01078 0.00186 0.0
H2688 H 0.24096 0.9842 0.95505 0.0
H2689 H 0.28388 0.98641 0.97072 0.0
S2690 S 0.23071 0.04645 0.04129 0.0
N2691 N 0.21327 0.03467 0.01861 0.0
N2692 N 0.2596 0.0371 0.0355 0.0
C2693 C 0.25599 0.02379 0.01413 0.0
C2694 C 0.23095 0.02247 0.00502 0.0
C2695 C 0.23017 0.00525 0.25657 0.0
C2696 C 0.24566 0.02448 0.24781 0.0
C2697 C 0.22768 0.9829 0.24305 0.0
C2698 C 0.2405 0.97936 0.22032 0.0
H2699 H 0.22077 0.00721 0.27439 0.0
H2700 H 0.21659 0.96794 0.25098 0.0
S2701 S 0.28015 0.0262 0.18798 0.0
N2702 N 0.27198 0.03998 0.21442 0.0
N2703 N 0.26675 0.99833 0.18837 0.0
C2704 C 0.25482 0.99925 0.21077 0.0
C2705 C 0.25756 0.02177 0.2247 0.0
C2706 C 0.24709 0.00938 0.52536 0.0
C2707 C 0.2282 0.99362 0.51586 0.0
C2708 C 0.27059 0.01068 0.51395 0.0
C2709 C 0.2761 0.99602 0.49289 0.0
H2710 H 0.24368 0.02077 0.54177 0.0
H2711 H 0.28467 0.02306 0.52172 0.0
S2712 S 0.23317 0.95291 0.45975 0.0
N2713 N 0.21642 0.96396 0.48324 0.0
N2714 N 0.2611 0.96594 0.46241 0.0
C2715 C 0.25763 0.9801 0.48324 0.0
C2716 C 0.23353 0.97898 0.4946 0.0
C2717 C 0.23471 0.01623 0.756 0.0
C2718 C 0.25153 0.02236 0.73684 0.0
C2719 C 0.23406 0.99212 0.76594 0.0
C2720 C 0.25018 0.97337 0.75698 0.0
H2721 H 0.22212 0.03026 0.76347 0.0
H2722 H 0.22097 0.9881 0.78084 0.0
S2723 S 0.29627 0.97958 0.70561 0.0
N2724 N 0.28382 0.00773 0.7084 0.0
N2725 N 0.28255 0.96215 0.72707 0.0
C2726 C 0.26699 0.97922 0.7377 0.0
C2727 C 0.26767 0.00382 0.72761 0.0
C2728 C 0.02488 0.25644 0.99001 0.0
C2729 C 0.01816 0.27545 0.00697 0.0
C2730 C 0.01187 0.23376 0.98922 0.0
C2731 C 0.9919 0.22909 0.00557 0.0
H2732 H 0.04008 0.25929 0.97695 0.0
H2733 H 0.01722 0.21982 0.97549 0.0
S2734 S 0.9669 0.2722 0.05367 0.0
N2735 N 0.99013 0.28789 0.04065 0.0
N2736 N 0.96612 0.24474 0.03944 0.0
C2737 C 0.98549 0.24741 0.02324 0.0
C2738 C 0.99855 0.27072 0.0239 0.0
C2739 C 0.47005 0.23586 0.99782 0.0
C2740 C 0.48854 0.22868 0.9807 0.0
C2741 C 0.46066 0.26022 0.99788 0.0
C2742 C 0.46991 0.2782 0.98112 0.0
H2743 H 0.4641 0.22297 0.01223 0.0
H2744 H 0.44706 0.26538 0.01197 0.0
S2745 S 0.51744 0.2675 0.93155 0.0
N2746 N 0.51446 0.24013 0.9455 0.0
N2747 N 0.49765 0.28644 0.94586 0.0
C2748 C 0.48727 0.27062 0.96277 0.0
C2749 C 0.49642 0.24564 0.96253 0.0
C2750 C 0.98528 0.23219 0.22942 0.0
C2751 C 0.96673 0.24042 0.24612 0.0
C2752 C 0.00932 0.24275 0.22989 0.0
C2753 C 0.01534 0.2618 0.24705 0.0
H2754 H 0.98153 0.21666 0.21692 0.0
H2755 H 0.02361 0.23514 0.21771 0.0
S2756 S 0.97181 0.29292 0.29116 0.0
N2757 N 0.95486 0.27072 0.27782 0.0
N2758 N 0.99993 0.29082 0.27852 0.0
C2759 C 0.99638 0.27134 0.26252 0.0
C2760 C 0.97206 0.26056 0.2621 0.0
C2761 C 0.97151 0.7338 0.47679 0.0
C2762 C 0.99397 0.73139 0.4635 0.0
C2763 C 0.95924 0.75686 0.47812 0.0
C2764 C 0.96922 0.77807 0.46627 0.0
H2765 H 0.96464 0.71831 0.48788 0.0
H2766 H 0.94274 0.75854 0.48976 0.0
S2767 S 0.02676 0.78021 0.42745 0.0
N2768 N 0.02478 0.75085 0.43682 0.0
N2769 N 0.00203 0.79453 0.43925 0.0
C2770 C 0.9907 0.77525 0.45128 0.0
C2771 C 0.00304 0.75174 0.44996 0.0
C2772 C 0.51514 0.76248 0.48387 0.0
C2773 C 0.50771 0.7796 0.50238 0.0
C2774 C 0.50478 0.7385 0.48279 0.0
C2775 C 0.48672 0.73085 0.50024 0.0
H2776 H 0.52925 0.76759 0.47028 0.0
H2777 H 0.5111 0.72572 0.46838 0.0
S2778 S 0.45953 0.76923 0.55114 0.0
N2779 N 0.48027 0.78778 0.53773 0.0
N2780 N 0.46091 0.74243 0.53576 0.0
C2781 C 0.47899 0.74779 0.51874 0.0
C2782 C 0.48947 0.77226 0.51981 0.0
C2783 C 0.99885 0.72318 0.27842 0.0
C2784 C 0.02285 0.73366 0.27619 0.0
C2785 C 0.97745 0.73824 0.277 0.0
C2786 C 0.97955 0.76406 0.27261 0.0
H2787 H 0.99671 0.7031 0.2802 0.0
H2788 H 0.95917 0.72949 0.27769 0.0
S2789 S 0.03815 0.80053 0.26671 0.0
N2790 N 0.04759 0.77138 0.27083 0.0
N2791 N 0.00723 0.79968 0.26748 0.0
C2792 C 0.00343 0.77486 0.27137 0.0
C2793 C 0.02518 0.75963 0.27335 0.0
C2794 C 0.51256 0.23521 0.78177 0.0
C2795 C 0.5325 0.2446 0.76754 0.0
C2796 C 0.48878 0.24632 0.78047 0.0
C2797 C 0.48447 0.26711 0.76493 0.0
H2798 H 0.51506 0.21838 0.79274 0.0
H2799 H 0.47341 0.23777 0.7905 0.0
S2800 S 0.53211 0.3012 0.72786 0.0
N2801 N 0.54748 0.27737 0.74012 0.0
N2802 N 0.50304 0.2987 0.73806 0.0
C2803 C 0.50488 0.27773 0.75224 0.0
C2804 C 0.52887 0.26633 0.75344 0.0
C2805 C 0.4865 0.49476 0.74177 0.0
C2806 C 0.50367 0.50054 0.72274 0.0
C2807 C 0.48843 0.50583 0.76536 0.0
C2808 C 0.50779 0.52277 0.7708 0.0
H2809 H 0.47164 0.48135 0.7385 0.0
H2810 H 0.47492 0.50086 0.77959 0.0
S2811 S 0.5563 0.54581 0.7272 0.0
N2812 N 0.53959 0.52583 0.7105 0.0
N2813 N 0.5438 0.54568 0.7554 0.0
C2814 C 0.52508 0.52875 0.75208 0.0
C2815 C 0.52286 0.5179 0.72788 0.0
C2816 C 0.74649 0.30761 0.01856 0.0
C2817 C 0.7601 0.28606 0.0251 0.0
C2818 C 0.74811 0.31753 0.99455 0.0
C2819 C 0.76349 0.3063 0.97655 0.0
H2820 H 0.73324 0.31582 0.0315 0.0
H2821 H 0.73658 0.33346 0.98967 0.0
S2822 S 0.80457 0.25089 0.9855 0.0
N2823 N 0.79089 0.25513 0.01283 0.0
N2824 N 0.79367 0.27325 0.96727 0.0
C2825 C 0.77833 0.2856 0.98337 0.0
C2826 C 0.77669 0.27561 0.00782 0.0
C2827 C 0.96588 0.44831 0.27095 0.0
C2828 C 0.98145 0.46394 0.28532 0.0
C2829 C 0.96312 0.45233 0.24527 0.0
C2830 C 0.97556 0.47227 0.23379 0.0
H2831 H 0.95665 0.43243 0.2795 0.0
H2832 H 0.95203 0.43944 0.23419 0.0
S2833 S 0.01595 0.51992 0.26391 0.0
N2834 N 0.00777 0.50094 0.28683 0.0
N2835 N 0.00223 0.50878 0.23854 0.0
C2836 C 0.99007 0.48869 0.24824 0.0
C2837 C 0.99315 0.48442 0.27412 0.0
C2838 C 0.76425 0.77439 0.49907 0.0
C2839 C 0.75393 0.75958 0.51812 0.0
C2840 C 0.75513 0.77292 0.47464 0.0
C2841 C 0.73547 0.75657 0.46856 0.0
H2842 H 0.77982 0.78678 0.50301 0.0
H2843 H 0.76385 0.7842 0.46029 0.0
S2844 S 0.70024 0.716 0.51221 0.0
N2845 N 0.72185 0.72952 0.52976 0.0
N2846 N 0.70464 0.72677 0.48365 0.0
C2847 C 0.72455 0.74214 0.48753 0.0
C2848 C 0.73383 0.74363 0.5124 0.0
C2849 C 0.75681 0.48941 0.52851 0.0
C2850 C 0.77535 0.50608 0.52005 0.0
C2851 C 0.73336 0.48823 0.51694 0.0
C2852 C 0.72761 0.50379 0.49665 0.0
H2853 H 0.76041 0.47735 0.54434 0.0
H2854 H 0.71946 0.47535 0.52411 0.0
S2855 S 0.77008 0.5491 0.46602 0.0
N2856 N 0.78682 0.53738 0.48917 0.0
N2857 N 0.74243 0.53535 0.46767 0.0
C2858 C 0.74595 0.52037 0.48784 0.0
C2859 C 0.76991 0.52149 0.49951 0.0
C2860 C 0.73898 0.5136 0.72803 0.0
C2861 C 0.75611 0.51854 0.74741 0.0
C2862 C 0.73715 0.48969 0.7174 0.0
C2863 C 0.75246 0.47006 0.72578 0.0
H2864 H 0.72733 0.52846 0.72071 0.0
H2865 H 0.72411 0.4866 0.70218 0.0
S2866 S 0.79777 0.4725 0.77823 0.0
N2867 N 0.78686 0.50132 0.77611 0.0
N2868 N 0.78355 0.45642 0.75597 0.0
C2869 C 0.76906 0.47456 0.74564 0.0
C2870 C 0.77086 0.49881 0.7565 0.0
C2871 C 0.78345 0.47347 0.99934 0.0
C2872 C 0.78486 0.48426 0.97542 0.0
C2873 C 0.7603 0.47043 0.01133 0.0
C2874 C 0.73801 0.47768 0.99953 0.0
H2875 H 0.80041 0.46889 0.00944 0.0
H2876 H 0.75985 0.46374 0.03041 0.0
S2877 S 0.73127 0.50363 0.9359 0.0
N2878 N 0.76176 0.49973 0.93947 0.0
N2879 N 0.7183 0.49403 0.96222 0.0
C2880 C 0.73902 0.48688 0.9751 0.0
C2881 C 0.76247 0.49014 0.96295 0.0
C2882 C 0.77386 0.48238 0.26686 0.0
C2883 C 0.75765 0.46368 0.25802 0.0
C2884 C 0.77425 0.50608 0.25569 0.0
C2885 C 0.75854 0.51157 0.23529 0.0
H2886 H 0.78532 0.479 0.28321 0.0
H2887 H 0.786 0.52049 0.26378 0.0
S2888 S 0.7163 0.46714 0.20259 0.0
N2889 N 0.72787 0.45095 0.22619 0.0
N2890 N 0.72906 0.49523 0.20464 0.0
C2891 C 0.74359 0.49235 0.22529 0.0
C2892 C 0.74302 0.46843 0.23682 0.0
C2893 C 0.47712 0.75887 0.76258 0.0
C2894 C 0.46971 0.73949 0.74639 0.0
C2895 C 0.50209 0.76649 0.76391 0.0
C2896 C 0.52046 0.75501 0.74905 0.0
H2897 H 0.46346 0.76813 0.77434 0.0
H2898 H 0.5071 0.78155 0.77655 0.0
S2899 S 0.51104 0.70247 0.70474 0.0
N2900 N 0.48282 0.7083 0.71593 0.0
N2901 N 0.52992 0.72295 0.71824 0.0
C2902 C 0.51335 0.73572 0.73268 0.0
C2903 C 0.4879 0.72786 0.73139 0.0
loop_
_geom_bond_atom_site_label_1
_geom_bond_atom_site_label_2
_geom_bond_distance
_geom_bond_site_symmetry_2
_ccdc_geom_bond_type
C0 C1 1.351 . S
C0 N3 1.368 1_655 S
C0 H5 0.931 . S
C1 C0 1.351 . S
C1 N2 1.373 1_655 S
C1 H29 0.930 . S
N2 C1 1.373 1_455 S
N2 C4 1.340 . S
N3 C0 1.368 1_455 S
N3 C4 1.321 . S
N3 Co6 2.135 . S
C4 N2 1.340 . S
C4 N3 1.321 . S
C4 H28 0.930 . S
H5 C0 0.931 . S
Co6 N3 2.135 . S
Co6 N9 2.121 . S
Co6 O14 2.055 . S
Co6 O17 2.039 . S
Co6 N20 2.140 1_455 S
C7 O8 1.227 . S
C7 O17 1.265 . S
O8 C7 1.227 . S
N9 Co6 2.121 . S
N9 C11 1.375 . S
N9 C12 1.313 . S
C10 C11 1.338 . S
C10 N13 1.377 . S
C10 H30 0.930 . S
C11 N9 1.375 . S
C11 C10 1.338 . S
C11 H15 0.931 . S
C12 N9 1.313 . S
C12 N13 1.344 . S
C12 H16 0.930 . S
N13 C10 1.377 . S
N13 C12 1.344 . S
O14 Co6 2.055 . S
O14 C18 1.253 1_455 S
H15 C11 0.931 . S
H16 C12 0.930 . S
O17 Co6 2.039 . S
O17 C7 1.265 . S
C18 O14 1.253 1_655 S
C18 O19 1.227 . S
O19 C18 1.227 . S
N20 Co6 2.140 1_655 S
N20 C23 1.346 . S
N20 C24 1.345 . S
C21 C22 1.387 . S
C21 C25 1.391 . S
C22 C21 1.387 . S
C22 C23 1.369 . S
C22 H31 0.929 . S
C23 N20 1.346 . S
C23 C22 1.369 . S
C23 H26 0.928 1_655 S
C24 N20 1.345 . S
C24 C25 1.371 . S
C24 H27 0.931 . S
C25 C21 1.391 . S
C25 C24 1.371 . S
C25 H32 0.930 . S
H26 C23 0.928 1_455 S
H27 C24 0.931 . S
H28 C4 0.930 . S
H29 C1 0.930 . S
H30 C10 0.930 . S
H31 C22 0.929 . S
H32 C25 0.930 . S
C33 C34 1.351 . S
C33 N36 1.368 . S
C33 H38 0.931 . S
C34 C33 1.351 . S
C34 N35 1.373 . S
C34 H62 0.930 . S
N35 C34 1.373 . S
N35 C37 1.340 . S
N36 C33 1.368 . S
N36 C37 1.321 . S
N36 Co39 2.135 . S
C37 N35 1.340 . S
C37 N36 1.321 . S
C37 H61 0.930 . S
H38 C33 0.931 . S
Co39 N36 2.135 . S
Co39 N42 2.121 . S
Co39 O47 2.055 . S
Co39 O50 2.039 . S
Co39 N53 2.140 . S
C40 O41 1.227 . S
C40 O50 1.265 . S
O41 C40 1.227 . S
N42 Co39 2.121 . S
N42 C44 1.375 . S
N42 C45 1.313 . S
C43 C44 1.338 . S
C43 N46 1.377 . S
C43 H63 0.930 . S
C44 N42 1.375 . S
C44 C43 1.338 . S
C44 H48 0.931 . S
C45 N42 1.313 . S
C45 N46 1.344 . S
C45 H49 0.930 . S
N46 C43 1.377 . S
N46 C45 1.344 . S
O47 Co39 2.055 . S
O47 C51 1.253 . S
H48 C44 0.931 . S
H49 C45 0.930 . S
O50 Co39 2.039 . S
O50 C40 1.265 . S
C51 O47 1.253 . S
C51 O52 1.227 . S
O52 C51 1.227 . S
N53 Co39 2.140 . S
N53 C56 1.346 . S
N53 C57 1.345 . S
C54 C55 1.387 . S
C54 C58 1.391 . S
C55 C54 1.387 . S
C55 C56 1.369 . S
C55 H64 0.929 . S
C56 N53 1.346 . S
C56 C55 1.369 . S
C56 H59 0.928 . S
C57 N53 1.345 . S
C57 C58 1.371 . S
C57 H60 0.931 . S
C58 C54 1.391 . S
C58 C57 1.371 . S
C58 H65 0.930 . S
H59 C56 0.928 . S
H60 C57 0.931 . S
H61 C37 0.930 . S
H62 C34 0.930 . S
H63 C43 0.930 . S
H64 C55 0.929 . S
H65 C58 0.930 . S
C66 C67 1.351 . S
C66 N69 1.368 . S
C66 H71 0.931 . S
C67 C66 1.351 . S
C67 N68 1.373 . S
C67 H95 0.930 . S
N68 C67 1.373 . S
N68 C70 1.340 . S
N69 C66 1.368 . S
N69 C70 1.321 . S
N69 Co72 2.135 . S
C70 N68 1.340 . S
C70 N69 1.321 . S
C70 H94 0.930 . S
H71 C66 0.931 . S
Co72 N69 2.135 . S
Co72 N75 2.121 . S
Co72 O80 2.055 . S
Co72 O83 2.039 . S
Co72 N86 2.140 . S
C73 O74 1.227 . S
C73 O83 1.265 . S
O74 C73 1.227 . S
N75 Co72 2.121 . S
N75 C77 1.375 . S
N75 C78 1.313 . S
C76 C77 1.338 . S
C76 N79 1.377 . S
C76 H96 0.930 . S
C77 N75 1.375 . S
C77 C76 1.338 . S
C77 H81 0.931 . S
C78 N75 1.313 . S
C78 N79 1.344 . S
C78 H82 0.930 . S
N79 C76 1.377 . S
N79 C78 1.344 . S
O80 Co72 2.055 . S
O80 C84 1.253 . S
H81 C77 0.931 . S
H82 C78 0.930 . S
O83 Co72 2.039 . S
O83 C73 1.265 . S
C84 O80 1.253 . S
C84 O85 1.227 . S
O85 C84 1.227 . S
N86 Co72 2.140 . S
N86 C89 1.346 . S
N86 C90 1.345 . S
C87 C88 1.387 . S
C87 C91 1.391 . S
C88 C87 1.387 . S
C88 C89 1.369 . S
C88 H97 0.929 . S
C89 N86 1.346 . S
C89 C88 1.369 . S
C89 H92 0.928 . S
C90 N86 1.345 . S
C90 C91 1.371 . S
C90 H93 0.931 . S
C91 C87 1.391 . S
C91 C90 1.371 . S
C91 H98 0.930 . S
H92 C89 0.928 . S
H93 C90 0.931 . S
H94 C70 0.930 . S
H95 C67 0.930 . S
H96 C76 0.930 . S
H97 C88 0.929 . S
H98 C91 0.930 . S
C99 C100 1.351 . S
C99 N102 1.368 . S
C99 H104 0.931 . S
C100 C99 1.351 . S
C100 N101 1.373 . S
C100 H128 0.930 . S
N101 C100 1.373 . S
N101 C103 1.340 . S
N102 C99 1.368 . S
N102 C103 1.321 . S
N102 Co105 2.135 . S
C103 N101 1.340 . S
C103 N102 1.321 . S
C103 H127 0.930 . S
H104 C99 0.931 . S
Co105 N102 2.135 . S
Co105 N108 2.121 . S
Co105 O113 2.055 . S
Co105 O116 2.039 . S
Co105 N119 2.140 . S
C106 O107 1.227 . S
C106 O116 1.265 . S
O107 C106 1.227 . S
N108 Co105 2.121 . S
N108 C110 1.375 . S
N108 C111 1.313 . S
C109 C110 1.338 . S
C109 N112 1.377 . S
C109 H129 0.930 . S
C110 N108 1.375 . S
C110 C109 1.338 . S
C110 H114 0.931 . S
C111 N108 1.313 . S
C111 N112 1.344 . S
C111 H115 0.930 . S
N112 C109 1.377 . S
N112 C111 1.344 . S
O113 Co105 2.055 . S
O113 C117 1.253 . S
H114 C110 0.931 . S
H115 C111 0.930 . S
O116 Co105 2.039 . S
O116 C106 1.265 . S
C117 O113 1.253 . S
C117 O118 1.227 . S
O118 C117 1.227 . S
N119 Co105 2.140 . S
N119 C122 1.346 . S
N119 C123 1.345 . S
C120 C121 1.387 . S
C120 C124 1.391 . S
C121 C120 1.387 . S
C121 C122 1.369 . S
C121 H130 0.929 . S
C122 N119 1.346 . S
C122 C121 1.369 . S
C122 H125 0.928 . S
C123 N119 1.345 . S
C123 C124 1.371 . S
C123 H126 0.931 . S
C124 C120 1.391 . S
C124 C123 1.371 . S
C124 H131 0.930 . S
H125 C122 0.928 . S
H126 C123 0.931 . S
H127 C103 0.930 . S
H128 C100 0.930 . S
H129 C109 0.930 . S
H130 C121 0.929 . S
H131 C124 0.930 . S
C132 C133 1.351 . S
C132 N135 1.368 1_655 S
C132 H137 0.931 . S
C133 C132 1.351 . S
C133 N134 1.373 1_655 S
C133 H161 0.930 . S
N134 C133 1.373 1_455 S
N134 C136 1.340 . S
N135 C132 1.368 1_455 S
N135 C136 1.321 . S
N135 Co138 2.135 . S
C136 N134 1.340 . S
C136 N135 1.321 . S
C136 H160 0.930 . S
H137 C132 0.931 . S
Co138 N135 2.135 . S
Co138 N141 2.121 . S
Co138 O146 2.055 . S
Co138 O149 2.039 . S
Co138 N152 2.140 1_455 S
C139 O140 1.227 . S
C139 O149 1.265 . S
O140 C139 1.227 . S
N141 Co138 2.121 . S
N141 C143 1.375 . S
N141 C144 1.313 . S
C142 C143 1.338 . S
C142 N145 1.377 . S
C142 H162 0.930 . S
C143 N141 1.375 . S
C143 C142 1.338 . S
C143 H147 0.931 . S
C144 N141 1.313 . S
C144 N145 1.344 . S
C144 H148 0.930 . S
N145 C142 1.377 . S
N145 C144 1.344 . S
O146 Co138 2.055 . S
O146 C150 1.253 1_455 S
H147 C143 0.931 . S
H148 C144 0.930 . S
O149 Co138 2.039 . S
O149 C139 1.265 . S
C150 O146 1.253 1_655 S
C150 O151 1.227 . S
O151 C150 1.227 . S
N152 Co138 2.140 1_655 S
N152 C155 1.346 . S
N152 C156 1.345 . S
C153 C154 1.387 . S
C153 C157 1.391 . S
C154 C153 1.387 . S
C154 C155 1.369 . S
C154 H163 0.929 . S
C155 N152 1.346 . S
C155 C154 1.369 . S
C155 H158 0.928 1_655 S
C156 N152 1.345 . S
C156 C157 1.371 . S
C156 H159 0.931 . S
C157 C153 1.391 . S
C157 C156 1.371 . S
C157 H164 0.930 . S
H158 C155 0.928 1_455 S
H159 C156 0.931 . S
H160 C136 0.930 . S
H161 C133 0.930 . S
H162 C142 0.930 . S
H163 C154 0.929 . S
H164 C157 0.930 . S
C165 C166 1.351 . S
C165 N168 1.368 . S
C165 H170 0.931 . S
C166 C165 1.351 . S
C166 N167 1.373 . S
C166 H194 0.930 . S
N167 C166 1.373 . S
N167 C169 1.340 . S
N168 C165 1.368 . S
N168 C169 1.321 . S
N168 Co171 2.135 . S
C169 N167 1.340 . S
C169 N168 1.321 . S
C169 H193 0.930 . S
H170 C165 0.931 . S
Co171 N168 2.135 . S
Co171 N174 2.121 . S
Co171 O179 2.055 . S
Co171 O182 2.039 . S
Co171 N185 2.140 . S
C172 O173 1.227 . S
C172 O182 1.265 . S
O173 C172 1.227 . S
N174 Co171 2.121 . S
N174 C176 1.375 . S
N174 C177 1.313 . S
C175 C176 1.338 . S
C175 N178 1.377 . S
C175 H195 0.930 . S
C176 N174 1.375 . S
C176 C175 1.338 . S
C176 H180 0.931 . S
C177 N174 1.313 . S
C177 N178 1.344 . S
C177 H181 0.930 . S
N178 C175 1.377 . S
N178 C177 1.344 . S
O179 Co171 2.055 . S
O179 C183 1.253 . S
H180 C176 0.931 . S
H181 C177 0.930 . S
O182 Co171 2.039 . S
O182 C172 1.265 . S
C183 O179 1.253 . S
C183 O184 1.227 . S
O184 C183 1.227 . S
N185 Co171 2.140 . S
N185 C188 1.346 . S
N185 C189 1.345 . S
C186 C187 1.387 . S
C186 C190 1.391 . S
C187 C186 1.387 . S
C187 C188 1.369 . S
C187 H196 0.929 . S
C188 N185 1.346 . S
C188 C187 1.369 . S
C188 H191 0.928 . S
C189 N185 1.345 . S
C189 C190 1.371 . S
C189 H192 0.931 . S
C190 C186 1.391 . S
C190 C189 1.371 . S
C190 H197 0.930 . S
H191 C188 0.928 . S
H192 C189 0.931 . S
H193 C169 0.930 . S
H194 C166 0.930 . S
H195 C175 0.930 . S
H196 C187 0.929 . S
H197 C190 0.930 . S
C198 C199 1.351 . S
C198 N201 1.368 . S
C198 H203 0.931 . S
C199 C198 1.351 . S
C199 N200 1.373 . S
C199 H227 0.930 . S
N200 C199 1.373 . S
N200 C202 1.340 . S
N201 C198 1.368 . S
N201 C202 1.321 . S
N201 Co204 2.135 . S
C202 N200 1.340 . S
C202 N201 1.321 . S
C202 H226 0.930 . S
H203 C198 0.931 . S
Co204 N201 2.135 . S
Co204 N207 2.121 . S
Co204 O212 2.055 . S
Co204 O215 2.039 . S
Co204 N218 2.140 . S
C205 O206 1.227 . S
C205 O215 1.265 . S
O206 C205 1.227 . S
N207 Co204 2.121 . S
N207 C209 1.375 . S
N207 C210 1.313 . S
C208 C209 1.338 . S
C208 N211 1.377 . S
C208 H228 0.930 . S
C209 N207 1.375 . S
C209 C208 1.338 . S
C209 H213 0.931 . S
C210 N207 1.313 . S
C210 N211 1.344 . S
C210 H214 0.930 . S
N211 C208 1.377 . S
N211 C210 1.344 . S
O212 Co204 2.055 . S
O212 C216 1.253 . S
H213 C209 0.931 . S
H214 C210 0.930 . S
O215 Co204 2.039 . S
O215 C205 1.265 . S
C216 O212 1.253 . S
C216 O217 1.227 . S
O217 C216 1.227 . S
N218 Co204 2.140 . S
N218 C221 1.346 . S
N218 C222 1.345 . S
C219 C220 1.387 . S
C219 C223 1.391 . S
C220 C219 1.387 . S
C220 C221 1.369 . S
C220 H229 0.929 . S
C221 N218 1.346 . S
C221 C220 1.369 . S
C221 H224 0.928 . S
C222 N218 1.345 . S
C222 C223 1.371 . S
C222 H225 0.931 . S
C223 C219 1.391 . S
C223 C222 1.371 . S
C223 H230 0.930 . S
H224 C221 0.928 . S
H225 C222 0.931 . S
H226 C202 0.930 . S
H227 C199 0.930 . S
H228 C208 0.930 . S
H229 C220 0.929 . S
H230 C223 0.930 . S
C231 C232 1.351 . S
C231 N234 1.368 . S
C231 H236 0.931 . S
C232 C231 1.351 . S
C232 N233 1.373 . S
C232 H260 0.930 . S
N233 C232 1.373 . S
N233 C235 1.340 . S
N234 C231 1.368 . S
N234 C235 1.321 . S
N234 Co237 2.135 . S
C235 N233 1.340 . S
C235 N234 1.321 . S
C235 H259 0.930 . S
H236 C231 0.931 . S
Co237 N234 2.135 . S
Co237 N240 2.121 . S
Co237 O245 2.055 . S
Co237 O248 2.039 . S
Co237 N251 2.140 . S
C238 O239 1.227 . S
C238 O248 1.265 . S
O239 C238 1.227 . S
N240 Co237 2.121 . S
N240 C242 1.375 . S
N240 C243 1.313 . S
C241 C242 1.338 . S
C241 N244 1.377 . S
C241 H261 0.930 . S
C242 N240 1.375 . S
C242 C241 1.338 . S
C242 H246 0.931 . S
C243 N240 1.313 . S
C243 N244 1.344 . S
C243 H247 0.930 . S
N244 C241 1.377 . S
N244 C243 1.344 . S
O245 Co237 2.055 . S
O245 C249 1.253 . S
H246 C242 0.931 . S
H247 C243 0.930 . S
O248 Co237 2.039 . S
O248 C238 1.265 . S
C249 O245 1.253 . S
C249 O250 1.227 . S
O250 C249 1.227 . S
N251 Co237 2.140 . S
N251 C254 1.346 . S
N251 C255 1.345 . S
C252 C253 1.387 . S
C252 C256 1.391 . S
C253 C252 1.387 . S
C253 C254 1.369 . S
C253 H262 0.929 . S
C254 N251 1.346 . S
C254 C253 1.369 . S
C254 H257 0.928 . S
C255 N251 1.345 . S
C255 C256 1.371 . S
C255 H258 0.931 . S
C256 C252 1.391 . S
C256 C255 1.371 . S
C256 H263 0.930 . S
H257 C254 0.928 . S
H258 C255 0.931 . S
H259 C235 0.930 . S
H260 C232 0.930 . S
H261 C241 0.930 . S
H262 C253 0.929 . S
H263 C256 0.930 . S
C264 C265 1.351 . S
C264 N267 1.368 1_565 S
C264 H269 0.931 . S
C265 C264 1.351 . S
C265 N266 1.373 1_565 S
C265 H293 0.930 . S
N266 C265 1.373 1_545 S
N266 C268 1.340 . S
N267 C264 1.368 1_545 S
N267 C268 1.321 . S
N267 Co270 2.135 . S
C268 N266 1.340 . S
C268 N267 1.321 . S
C268 H292 0.930 . S
H269 C264 0.931 . S
Co270 N267 2.135 . S
Co270 N273 2.121 . S
Co270 O278 2.055 . S
Co270 O281 2.039 . S
Co270 N284 2.140 1_545 S
C271 O272 1.227 . S
C271 O281 1.265 . S
O272 C271 1.227 . S
N273 Co270 2.121 . S
N273 C275 1.375 . S
N273 C276 1.313 . S
C274 C275 1.338 . S
C274 N277 1.377 . S
C274 H294 0.930 . S
C275 N273 1.375 . S
C275 C274 1.338 . S
C275 H279 0.931 . S
C276 N273 1.313 . S
C276 N277 1.344 . S
C276 H280 0.930 . S
N277 C274 1.377 . S
N277 C276 1.344 . S
O278 Co270 2.055 . S
O278 C282 1.253 1_545 S
H279 C275 0.931 . S
H280 C276 0.930 . S
O281 Co270 2.039 . S
O281 C271 1.265 . S
C282 O278 1.253 1_565 S
C282 O283 1.227 . S
O283 C282 1.227 . S
N284 Co270 2.140 1_565 S
N284 C287 1.346 . S
N284 C288 1.345 . S
C285 C286 1.387 . S
C285 C289 1.391 . S
C286 C285 1.387 . S
C286 C287 1.369 . S
C286 H295 0.929 . S
C287 N284 1.346 . S
C287 C286 1.369 . S
C287 H290 0.928 1_565 S
C288 N284 1.345 . S
C288 C289 1.371 . S
C288 H291 0.931 . S
C289 C285 1.391 . S
C289 C288 1.371 . S
C289 H296 0.930 . S
H290 C287 0.928 1_545 S
H291 C288 0.931 . S
H292 C268 0.930 . S
H293 C265 0.930 . S
H294 C274 0.930 . S
H295 C286 0.929 . S
H296 C289 0.930 . S
C297 C298 1.351 . S
C297 N300 1.368 . S
C297 H302 0.931 . S
C298 C297 1.351 . S
C298 N299 1.373 . S
C298 H326 0.930 . S
N299 C298 1.373 . S
N299 C301 1.340 . S
N300 C297 1.368 . S
N300 C301 1.321 . S
N300 Co303 2.135 . S
C301 N299 1.340 . S
C301 N300 1.321 . S
C301 H325 0.930 . S
H302 C297 0.931 . S
Co303 N300 2.135 . S
Co303 N306 2.121 . S
Co303 O311 2.055 . S
Co303 O314 2.039 . S
Co303 N317 2.140 . S
C304 O305 1.227 . S
C304 O314 1.265 . S
O305 C304 1.227 . S
N306 Co303 2.121 . S
N306 C308 1.375 . S
N306 C309 1.313 . S
C307 C308 1.338 . S
C307 N310 1.377 . S
C307 H327 0.930 . S
C308 N306 1.375 . S
C308 C307 1.338 . S
C308 H312 0.931 . S
C309 N306 1.313 . S
C309 N310 1.344 . S
C309 H313 0.930 . S
N310 C307 1.377 . S
N310 C309 1.344 . S
O311 Co303 2.055 . S
O311 C315 1.253 . S
H312 C308 0.931 . S
H313 C309 0.930 . S
O314 Co303 2.039 . S
O314 C304 1.265 . S
C315 O311 1.253 . S
C315 O316 1.227 . S
O316 C315 1.227 . S
N317 Co303 2.140 . S
N317 C320 1.346 . S
N317 C321 1.345 . S
C318 C319 1.387 . S
C318 C322 1.391 . S
C319 C318 1.387 . S
C319 C320 1.369 . S
C319 H328 0.929 . S
C320 N317 1.346 . S
C320 C319 1.369 . S
C320 H323 0.928 . S
C321 N317 1.345 . S
C321 C322 1.371 . S
C321 H324 0.931 . S
C322 C318 1.391 . S
C322 C321 1.371 . S
C322 H329 0.930 . S
H323 C320 0.928 . S
H324 C321 0.931 . S
H325 C301 0.930 . S
H326 C298 0.930 . S
H327 C307 0.930 . S
H328 C319 0.929 . S
H329 C322 0.930 . S
C330 C331 1.351 . S
C330 N333 1.368 1_545 S
C330 H335 0.931 . S
C331 C330 1.351 . S
C331 N332 1.373 1_545 S
C331 H359 0.930 . S
N332 C331 1.373 1_565 S
N332 C334 1.340 . S
N333 C330 1.368 1_565 S
N333 C334 1.321 . S
N333 Co336 2.135 . S
C334 N332 1.340 . S
C334 N333 1.321 . S
C334 H358 0.930 . S
H335 C330 0.931 . S
Co336 N333 2.135 . S
Co336 N339 2.121 . S
Co336 O344 2.055 . S
Co336 O347 2.039 . S
Co336 N350 2.140 1_565 S
C337 O338 1.227 . S
C337 O347 1.265 . S
O338 C337 1.227 . S
N339 Co336 2.121 . S
N339 C341 1.375 . S
N339 C342 1.313 . S
C340 C341 1.338 . S
C340 N343 1.377 . S
C340 H360 0.930 . S
C341 N339 1.375 . S
C341 C340 1.338 . S
C341 H345 0.931 . S
C342 N339 1.313 . S
C342 N343 1.344 . S
C342 H346 0.930 . S
N343 C340 1.377 . S
N343 C342 1.344 . S
O344 Co336 2.055 . S
O344 C348 1.253 1_565 S
H345 C341 0.931 . S
H346 C342 0.930 . S
O347 Co336 2.039 . S
O347 C337 1.265 . S
C348 O344 1.253 1_545 S
C348 O349 1.227 . S
O349 C348 1.227 . S
N350 Co336 2.140 1_545 S
N350 C353 1.346 . S
N350 C354 1.345 . S
C351 C352 1.387 . S
C351 C355 1.391 . S
C352 C351 1.387 . S
C352 C353 1.369 . S
C352 H361 0.929 . S
C353 N350 1.346 . S
C353 C352 1.369 . S
C353 H356 0.928 1_545 S
C354 N350 1.345 . S
C354 C355 1.371 . S
C354 H357 0.931 . S
C355 C351 1.391 . S
C355 C354 1.371 . S
C355 H362 0.930 . S
H356 C353 0.928 1_565 S
H357 C354 0.931 . S
H358 C334 0.930 . S
H359 C331 0.930 . S
H360 C340 0.930 . S
H361 C352 0.929 . S
H362 C355 0.930 . S
C363 C364 1.351 . S
C363 N366 1.368 . S
C363 H368 0.931 . S
C364 C363 1.351 . S
C364 N365 1.373 . S
C364 H392 0.930 . S
N365 C364 1.373 . S
N365 C367 1.340 . S
N366 C363 1.368 . S
N366 C367 1.321 . S
N366 Co369 2.135 . S
C367 N365 1.340 . S
C367 N366 1.321 . S
C367 H391 0.930 . S
H368 C363 0.931 . S
Co369 N366 2.135 . S
Co369 N372 2.121 . S
Co369 O377 2.055 . S
Co369 O380 2.039 . S
Co369 N383 2.140 . S
C370 O371 1.227 . S
C370 O380 1.265 . S
O371 C370 1.227 . S
N372 Co369 2.121 . S
N372 C374 1.375 . S
N372 C375 1.313 . S
C373 C374 1.338 . S
C373 N376 1.377 . S
C373 H393 0.930 . S
C374 N372 1.375 . S
C374 C373 1.338 . S
C374 H378 0.931 . S
C375 N372 1.313 . S
C375 N376 1.344 . S
C375 H379 0.930 . S
N376 C373 1.377 . S
N376 C375 1.344 . S
O377 Co369 2.055 . S
O377 C381 1.253 . S
H378 C374 0.931 . S
H379 C375 0.930 . S
O380 Co369 2.039 . S
O380 C370 1.265 . S
C381 O377 1.253 . S
C381 O382 1.227 . S
O382 C381 1.227 . S
N383 Co369 2.140 . S
N383 C386 1.346 . S
N383 C387 1.345 . S
C384 C385 1.387 . S
C384 C388 1.391 . S
C385 C384 1.387 . S
C385 C386 1.369 . S
C385 H394 0.929 . S
C386 N383 1.346 . S
C386 C385 1.369 . S
C386 H389 0.928 . S
C387 N383 1.345 . S
C387 C388 1.371 . S
C387 H390 0.931 . S
C388 C384 1.391 . S
C388 C387 1.371 . S
C388 H395 0.930 . S
H389 C386 0.928 . S
H390 C387 0.931 . S
H391 C367 0.930 . S
H392 C364 0.930 . S
H393 C373 0.930 . S
H394 C385 0.929 . S
H395 C388 0.930 . S
C396 C397 1.351 . S
C396 N399 1.368 1_545 S
C396 H401 0.931 . S
C397 C396 1.351 . S
C397 N398 1.373 1_545 S
C397 H425 0.930 . S
N398 C397 1.373 1_565 S
N398 C400 1.340 . S
N399 C396 1.368 1_565 S
N399 C400 1.321 . S
N399 Co402 2.135 . S
C400 N398 1.340 . S
C400 N399 1.321 . S
C400 H424 0.930 . S
H401 C396 0.931 . S
Co402 N399 2.135 . S
Co402 N405 2.121 . S
Co402 O410 2.055 . S
Co402 O413 2.039 . S
Co402 N416 2.140 1_565 S
C403 O404 1.227 . S
C403 O413 1.265 . S
O404 C403 1.227 . S
N405 Co402 2.121 . S
N405 C407 1.375 . S
N405 C408 1.313 . S
C406 C407 1.338 . S
C406 N409 1.377 . S
C406 H426 0.930 . S
C407 N405 1.375 . S
C407 C406 1.338 . S
C407 H411 0.931 . S
C408 N405 1.313 . S
C408 N409 1.344 . S
C408 H412 0.930 . S
N409 C406 1.377 . S
N409 C408 1.344 . S
O410 Co402 2.055 . S
O410 C414 1.253 1_565 S
H411 C407 0.931 . S
H412 C408 0.930 . S
O413 Co402 2.039 . S
O413 C403 1.265 . S
C414 O410 1.253 1_545 S
C414 O415 1.227 . S
O415 C414 1.227 . S
N416 Co402 2.140 1_545 S
N416 C419 1.346 . S
N416 C420 1.345 . S
C417 C418 1.387 . S
C417 C421 1.391 . S
C418 C417 1.387 . S
C418 C419 1.369 . S
C418 H427 0.929 . S
C419 N416 1.346 . S
C419 C418 1.369 . S
C419 H422 0.928 1_545 S
C420 N416 1.345 . S
C420 C421 1.371 . S
C420 H423 0.931 . S
C421 C417 1.391 . S
C421 C420 1.371 . S
C421 H428 0.930 . S
H422 C419 0.928 1_565 S
H423 C420 0.931 . S
H424 C400 0.930 . S
H425 C397 0.930 . S
H426 C406 0.930 . S
H427 C418 0.929 . S
H428 C421 0.930 . S
C429 C430 1.351 . S
C429 N432 1.368 . S
C429 H434 0.931 . S
C430 C429 1.351 . S
C430 N431 1.373 . S
C430 H458 0.930 . S
N431 C430 1.373 . S
N431 C433 1.340 . S
N432 C429 1.368 . S
N432 C433 1.321 . S
N432 Co435 2.135 . S
C433 N431 1.340 . S
C433 N432 1.321 . S
C433 H457 0.930 . S
H434 C429 0.931 . S
Co435 N432 2.135 . S
Co435 N438 2.121 . S
Co435 O443 2.055 . S
Co435 O446 2.039 . S
Co435 N449 2.140 . S
C436 O437 1.227 . S
C436 O446 1.265 . S
O437 C436 1.227 . S
N438 Co435 2.121 . S
N438 C440 1.375 . S
N438 C441 1.313 . S
C439 C440 1.338 . S
C439 N442 1.377 . S
C439 H459 0.930 . S
C440 N438 1.375 . S
C440 C439 1.338 . S
C440 H444 0.931 . S
C441 N438 1.313 . S
C441 N442 1.344 . S
C441 H445 0.930 . S
N442 C439 1.377 . S
N442 C441 1.344 . S
O443 Co435 2.055 . S
O443 C447 1.253 . S
H444 C440 0.931 . S
H445 C441 0.930 . S
O446 Co435 2.039 . S
O446 C436 1.265 . S
C447 O443 1.253 . S
C447 O448 1.227 . S
O448 C447 1.227 . S
N449 Co435 2.140 . S
N449 C452 1.346 . S
N449 C453 1.345 . S
C450 C451 1.387 . S
C450 C454 1.391 . S
C451 C450 1.387 . S
C451 C452 1.369 . S
C451 H460 0.929 . S
C452 N449 1.346 . S
C452 C451 1.369 . S
C452 H455 0.928 . S
C453 N449 1.345 . S
C453 C454 1.371 . S
C453 H456 0.931 . S
C454 C450 1.391 . S
C454 C453 1.371 . S
C454 H461 0.930 . S
H455 C452 0.928 . S
H456 C453 0.931 . S
H457 C433 0.930 . S
H458 C430 0.930 . S
H459 C439 0.930 . S
H460 C451 0.929 . S
H461 C454 0.930 . S
C462 C463 1.351 . S
C462 N465 1.368 1_565 S
C462 H467 0.931 . S
C463 C462 1.351 . S
C463 N464 1.373 1_565 S
C463 H491 0.930 . S
N464 C463 1.373 1_545 S
N464 C466 1.340 . S
N465 C462 1.368 1_545 S
N465 C466 1.321 . S
N465 Co468 2.135 . S
C466 N464 1.340 . S
C466 N465 1.321 . S
C466 H490 0.930 . S
H467 C462 0.931 . S
Co468 N465 2.135 . S
Co468 N471 2.121 . S
Co468 O476 2.055 . S
Co468 O479 2.039 . S
Co468 N482 2.140 1_545 S
C469 O470 1.227 . S
C469 O479 1.265 . S
O470 C469 1.227 . S
N471 Co468 2.121 . S
N471 C473 1.375 . S
N471 C474 1.313 . S
C472 C473 1.338 . S
C472 N475 1.377 . S
C472 H492 0.930 . S
C473 N471 1.375 . S
C473 C472 1.338 . S
C473 H477 0.931 . S
C474 N471 1.313 . S
C474 N475 1.344 . S
C474 H478 0.930 . S
N475 C472 1.377 . S
N475 C474 1.344 . S
O476 Co468 2.055 . S
O476 C480 1.253 1_545 S
H477 C473 0.931 . S
H478 C474 0.930 . S
O479 Co468 2.039 . S
O479 C469 1.265 . S
C480 O476 1.253 1_565 S
C480 O481 1.227 . S
O481 C480 1.227 . S
N482 Co468 2.140 1_565 S
N482 C485 1.346 . S
N482 C486 1.345 . S
C483 C484 1.387 . S
C483 C487 1.391 . S
C484 C483 1.387 . S
C484 C485 1.369 . S
C484 H493 0.929 . S
C485 N482 1.346 . S
C485 C484 1.369 . S
C485 H488 0.928 1_565 S
C486 N482 1.345 . S
C486 C487 1.371 . S
C486 H489 0.931 . S
C487 C483 1.391 . S
C487 C486 1.371 . S
C487 H494 0.930 . S
H488 C485 0.928 1_545 S
H489 C486 0.931 . S
H490 C466 0.930 . S
H491 C463 0.930 . S
H492 C472 0.930 . S
H493 C484 0.929 . S
H494 C487 0.930 . S
C495 C496 1.351 . S
C495 N498 1.368 . S
C495 H500 0.931 . S
C496 C495 1.351 . S
C496 N497 1.373 . S
C496 H524 0.930 . S
N497 C496 1.373 . S
N497 C499 1.340 . S
N498 C495 1.368 . S
N498 C499 1.321 . S
N498 Co501 2.135 . S
C499 N497 1.340 . S
C499 N498 1.321 . S
C499 H523 0.930 . S
H500 C495 0.931 . S
Co501 N498 2.135 . S
Co501 N504 2.121 . S
Co501 O509 2.055 . S
Co501 O512 2.039 . S
Co501 N515 2.140 . S
C502 O503 1.227 . S
C502 O512 1.265 . S
O503 C502 1.227 . S
N504 Co501 2.121 . S
N504 C506 1.375 . S
N504 C507 1.313 . S
C505 C506 1.338 . S
C505 N508 1.377 . S
C505 H525 0.930 . S
C506 N504 1.375 . S
C506 C505 1.338 . S
C506 H510 0.931 . S
C507 N504 1.313 . S
C507 N508 1.344 . S
C507 H511 0.930 . S
N508 C505 1.377 . S
N508 C507 1.344 . S
O509 Co501 2.055 . S
O509 C513 1.253 . S
H510 C506 0.931 . S
H511 C507 0.930 . S
O512 Co501 2.039 . S
O512 C502 1.265 . S
C513 O509 1.253 . S
C513 O514 1.227 . S
O514 C513 1.227 . S
N515 Co501 2.140 . S
N515 C518 1.346 . S
N515 C519 1.345 . S
C516 C517 1.387 . S
C516 C520 1.391 . S
C517 C516 1.387 . S
C517 C518 1.369 . S
C517 H526 0.929 . S
C518 N515 1.346 . S
C518 C517 1.369 . S
C518 H521 0.928 . S
C519 N515 1.345 . S
C519 C520 1.371 . S
C519 H522 0.931 . S
C520 C516 1.391 . S
C520 C519 1.371 . S
C520 H527 0.930 . S
H521 C518 0.928 . S
H522 C519 0.931 . S
H523 C499 0.930 . S
H524 C496 0.930 . S
H525 C505 0.930 . S
H526 C517 0.929 . S
H527 C520 0.930 . S
C528 C529 1.351 . S
C528 N531 1.368 1_556 S
C528 H533 0.931 . S
C529 C528 1.351 . S
C529 N530 1.373 1_556 S
C529 H557 0.930 . S
N530 C529 1.373 1_554 S
N530 C532 1.340 . S
N531 C528 1.368 1_554 S
N531 C532 1.321 . S
N531 Co534 2.135 . S
C532 N530 1.340 . S
C532 N531 1.321 . S
C532 H556 0.930 . S
H533 C528 0.931 . S
Co534 N531 2.135 . S
Co534 N537 2.121 . S
Co534 O542 2.055 . S
Co534 O545 2.039 . S
Co534 N548 2.140 1_554 S
C535 O536 1.227 . S
C535 O545 1.265 . S
O536 C535 1.227 . S
N537 Co534 2.121 . S
N537 C539 1.375 . S
N537 C540 1.313 . S
C538 C539 1.338 . S
C538 N541 1.377 . S
C538 H558 0.930 . S
C539 N537 1.375 . S
C539 C538 1.338 . S
C539 H543 0.931 . S
C540 N537 1.313 . S
C540 N541 1.344 . S
C540 H544 0.930 . S
N541 C538 1.377 . S
N541 C540 1.344 . S
O542 Co534 2.055 . S
O542 C546 1.253 1_554 S
H543 C539 0.931 . S
H544 C540 0.930 . S
O545 Co534 2.039 . S
O545 C535 1.265 . S
C546 O542 1.253 1_556 S
C546 O547 1.227 . S
O547 C546 1.227 . S
N548 Co534 2.140 1_556 S
N548 C551 1.346 . S
N548 C552 1.345 . S
C549 C550 1.387 . S
C549 C553 1.391 . S
C550 C549 1.387 . S
C550 C551 1.369 . S
C550 H559 0.929 . S
C551 N548 1.346 . S
C551 C550 1.369 . S
C551 H554 0.928 1_556 S
C552 N548 1.345 . S
C552 C553 1.371 . S
C552 H555 0.931 . S
C553 C549 1.391 . S
C553 C552 1.371 . S
C553 H560 0.930 . S
H554 C551 0.928 1_554 S
H555 C552 0.931 . S
H556 C532 0.930 . S
H557 C529 0.930 . S
H558 C538 0.930 . S
H559 C550 0.929 . S
H560 C553 0.930 . S
C561 C562 1.351 . S
C561 N564 1.368 1_554 S
C561 H566 0.931 . S
C562 C561 1.351 . S
C562 N563 1.373 1_554 S
C562 H590 0.930 . S
N563 C562 1.373 1_556 S
N563 C565 1.340 . S
N564 C561 1.368 1_556 S
N564 C565 1.321 . S
N564 Co567 2.135 . S
C565 N563 1.340 . S
C565 N564 1.321 . S
C565 H589 0.930 . S
H566 C561 0.931 . S
Co567 N564 2.135 . S
Co567 N570 2.121 . S
Co567 O575 2.055 . S
Co567 O578 2.039 . S
Co567 N581 2.140 1_556 S
C568 O569 1.227 . S
C568 O578 1.265 . S
O569 C568 1.227 . S
N570 Co567 2.121 . S
N570 C572 1.375 . S
N570 C573 1.313 . S
C571 C572 1.338 . S
C571 N574 1.377 . S
C571 H591 0.930 . S
C572 N570 1.375 . S
C572 C571 1.338 . S
C572 H576 0.931 . S
C573 N570 1.313 . S
C573 N574 1.344 . S
C573 H577 0.930 . S
N574 C571 1.377 . S
N574 C573 1.344 . S
O575 Co567 2.055 . S
O575 C579 1.253 1_556 S
H576 C572 0.931 . S
H577 C573 0.930 . S
O578 Co567 2.039 . S
O578 C568 1.265 . S
C579 O575 1.253 1_554 S
C579 O580 1.227 . S
O580 C579 1.227 . S
N581 Co567 2.140 1_554 S
N581 C584 1.346 . S
N581 C585 1.345 . S
C582 C583 1.387 . S
C582 C586 1.391 . S
C583 C582 1.387 . S
C583 C584 1.369 . S
C583 H592 0.929 . S
C584 N581 1.346 . S
C584 C583 1.369 . S
C584 H587 0.928 1_554 S
C585 N581 1.345 . S
C585 C586 1.371 . S
C585 H588 0.931 . S
C586 C582 1.391 . S
C586 C585 1.371 . S
C586 H593 0.930 . S
H587 C584 0.928 1_556 S
H588 C585 0.931 . S
H589 C565 0.930 . S
H590 C562 0.930 . S
H591 C571 0.930 . S
H592 C583 0.929 . S
H593 C586 0.930 . S
C594 C595 1.351 . S
C594 N597 1.368 . S
C594 H599 0.931 . S
C595 C594 1.351 . S
C595 N596 1.373 . S
C595 H623 0.930 . S
N596 C595 1.373 . S
N596 C598 1.340 . S
N597 C594 1.368 . S
N597 C598 1.321 . S
N597 Co600 2.135 . S
C598 N596 1.340 . S
C598 N597 1.321 . S
C598 H622 0.930 . S
H599 C594 0.931 . S
Co600 N597 2.135 . S
Co600 N603 2.121 . S
Co600 O608 2.055 . S
Co600 O611 2.039 . S
Co600 N614 2.140 . S
C601 O602 1.227 . S
C601 O611 1.265 . S
O602 C601 1.227 . S
N603 Co600 2.121 . S
N603 C605 1.375 . S
N603 C606 1.313 . S
C604 C605 1.338 . S
C604 N607 1.377 . S
C604 H624 0.930 . S
C605 N603 1.375 . S
C605 C604 1.338 . S
C605 H609 0.931 . S
C606 N603 1.313 . S
C606 N607 1.344 . S
C606 H610 0.930 . S
N607 C604 1.377 . S
N607 C606 1.344 . S
O608 Co600 2.055 . S
O608 C612 1.253 . S
H609 C605 0.931 . S
H610 C606 0.930 . S
O611 Co600 2.039 . S
O611 C601 1.265 . S
C612 O608 1.253 . S
C612 O613 1.227 . S
O613 C612 1.227 . S
N614 Co600 2.140 . S
N614 C617 1.346 . S
N614 C618 1.345 . S
C615 C616 1.387 . S
C615 C619 1.391 . S
C616 C615 1.387 . S
C616 C617 1.369 . S
C616 H625 0.929 . S
C617 N614 1.346 . S
C617 C616 1.369 . S
C617 H620 0.928 . S
C618 N614 1.345 . S
C618 C619 1.371 . S
C618 H621 0.931 . S
C619 C615 1.391 . S
C619 C618 1.371 . S
C619 H626 0.930 . S
H620 C617 0.928 . S
H621 C618 0.931 . S
H622 C598 0.930 . S
H623 C595 0.930 . S
H624 C604 0.930 . S
H625 C616 0.929 . S
H626 C619 0.930 . S
C627 C628 1.351 . S
C627 N630 1.368 . S
C627 H632 0.931 . S
C628 C627 1.351 . S
C628 N629 1.373 . S
C628 H656 0.930 . S
N629 C628 1.373 . S
N629 C631 1.340 . S
N630 C627 1.368 . S
N630 C631 1.321 . S
N630 Co633 2.135 . S
C631 N629 1.340 . S
C631 N630 1.321 . S
C631 H655 0.930 . S
H632 C627 0.931 . S
Co633 N630 2.135 . S
Co633 N636 2.121 . S
Co633 O641 2.055 . S
Co633 O644 2.039 . S
Co633 N647 2.140 . S
C634 O635 1.227 . S
C634 O644 1.265 . S
O635 C634 1.227 . S
N636 Co633 2.121 . S
N636 C638 1.375 . S
N636 C639 1.313 . S
C637 C638 1.338 . S
C637 N640 1.377 . S
C637 H657 0.930 . S
C638 N636 1.375 . S
C638 C637 1.338 . S
C638 H642 0.931 . S
C639 N636 1.313 . S
C639 N640 1.344 . S
C639 H643 0.930 . S
N640 C637 1.377 . S
N640 C639 1.344 . S
O641 Co633 2.055 . S
O641 C645 1.253 . S
H642 C638 0.931 . S
H643 C639 0.930 . S
O644 Co633 2.039 . S
O644 C634 1.265 . S
C645 O641 1.253 . S
C645 O646 1.227 . S
O646 C645 1.227 . S
N647 Co633 2.140 . S
N647 C650 1.346 . S
N647 C651 1.345 . S
C648 C649 1.387 . S
C648 C652 1.391 . S
C649 C648 1.387 . S
C649 C650 1.369 . S
C649 H658 0.929 . S
C650 N647 1.346 . S
C650 C649 1.369 . S
C650 H653 0.928 . S
C651 N647 1.345 . S
C651 C652 1.371 . S
C651 H654 0.931 . S
C652 C648 1.391 . S
C652 C651 1.371 . S
C652 H659 0.930 . S
H653 C650 0.928 . S
H654 C651 0.931 . S
H655 C631 0.930 . S
H656 C628 0.930 . S
H657 C637 0.930 . S
H658 C649 0.929 . S
H659 C652 0.930 . S
C660 C661 1.351 . S
C660 N663 1.368 . S
C660 H665 0.931 . S
C661 C660 1.351 . S
C661 N662 1.373 . S
C661 H689 0.930 . S
N662 C661 1.373 . S
N662 C664 1.340 . S
N663 C660 1.368 . S
N663 C664 1.321 . S
N663 Co666 2.135 . S
C664 N662 1.340 . S
C664 N663 1.321 . S
C664 H688 0.930 . S
H665 C660 0.931 . S
Co666 N663 2.135 . S
Co666 N669 2.121 . S
Co666 O674 2.055 . S
Co666 O677 2.039 . S
Co666 N680 2.140 . S
C667 O668 1.227 . S
C667 O677 1.265 . S
O668 C667 1.227 . S
N669 Co666 2.121 . S
N669 C671 1.375 . S
N669 C672 1.313 . S
C670 C671 1.338 . S
C670 N673 1.377 . S
C670 H690 0.930 . S
C671 N669 1.375 . S
C671 C670 1.338 . S
C671 H675 0.931 . S
C672 N669 1.313 . S
C672 N673 1.344 . S
C672 H676 0.930 . S
N673 C670 1.377 . S
N673 C672 1.344 . S
O674 Co666 2.055 . S
O674 C678 1.253 . S
H675 C671 0.931 . S
H676 C672 0.930 . S
O677 Co666 2.039 . S
O677 C667 1.265 . S
C678 O674 1.253 . S
C678 O679 1.227 . S
O679 C678 1.227 . S
N680 Co666 2.140 . S
N680 C683 1.346 . S
N680 C684 1.345 . S
C681 C682 1.387 . S
C681 C685 1.391 . S
C682 C681 1.387 . S
C682 C683 1.369 . S
C682 H691 0.929 . S
C683 N680 1.346 . S
C683 C682 1.369 . S
C683 H686 0.928 . S
C684 N680 1.345 . S
C684 C685 1.371 . S
C684 H687 0.931 . S
C685 C681 1.391 . S
C685 C684 1.371 . S
C685 H692 0.930 . S
H686 C683 0.928 . S
H687 C684 0.931 . S
H688 C664 0.930 . S
H689 C661 0.930 . S
H690 C670 0.930 . S
H691 C682 0.929 . S
H692 C685 0.930 . S
C693 C694 1.351 . S
C693 N696 1.368 . S
C693 H698 0.931 . S
C694 C693 1.351 . S
C694 N695 1.373 . S
C694 H722 0.930 . S
N695 C694 1.373 . S
N695 C697 1.340 . S
N696 C693 1.368 . S
N696 C697 1.321 . S
N696 Co699 2.135 . S
C697 N695 1.340 . S
C697 N696 1.321 . S
C697 H721 0.930 . S
H698 C693 0.931 . S
Co699 N696 2.135 . S
Co699 N702 2.121 . S
Co699 O707 2.055 . S
Co699 O710 2.039 . S
Co699 N713 2.140 . S
C700 O701 1.227 . S
C700 O710 1.265 . S
O701 C700 1.227 . S
N702 Co699 2.121 . S
N702 C704 1.375 . S
N702 C705 1.313 . S
C703 C704 1.338 . S
C703 N706 1.377 . S
C703 H723 0.930 . S
C704 N702 1.375 . S
C704 C703 1.338 . S
C704 H708 0.931 . S
C705 N702 1.313 . S
C705 N706 1.344 . S
C705 H709 0.930 . S
N706 C703 1.377 . S
N706 C705 1.344 . S
O707 Co699 2.055 . S
O707 C711 1.253 . S
H708 C704 0.931 . S
H709 C705 0.930 . S
O710 Co699 2.039 . S
O710 C700 1.265 . S
C711 O707 1.253 . S
C711 O712 1.227 . S
O712 C711 1.227 . S
N713 Co699 2.140 . S
N713 C716 1.346 . S
N713 C717 1.345 . S
C714 C715 1.387 . S
C714 C718 1.391 . S
C715 C714 1.387 . S
C715 C716 1.369 . S
C715 H724 0.929 . S
C716 N713 1.346 . S
C716 C715 1.369 . S
C716 H719 0.928 . S
C717 N713 1.345 . S
C717 C718 1.371 . S
C717 H720 0.931 . S
C718 C714 1.391 . S
C718 C717 1.371 . S
C718 H725 0.930 . S
H719 C716 0.928 . S
H720 C717 0.931 . S
H721 C697 0.930 . S
H722 C694 0.930 . S
H723 C703 0.930 . S
H724 C715 0.929 . S
H725 C718 0.930 . S
C726 C727 1.351 . S
C726 N729 1.368 . S
C726 H731 0.931 . S
C727 C726 1.351 . S
C727 N728 1.373 . S
C727 H755 0.930 . S
N728 C727 1.373 . S
N728 C730 1.340 . S
N729 C726 1.368 . S
N729 C730 1.321 . S
N729 Co732 2.135 . S
C730 N728 1.340 . S
C730 N729 1.321 . S
C730 H754 0.930 . S
H731 C726 0.931 . S
Co732 N729 2.135 . S
Co732 N735 2.121 . S
Co732 O740 2.055 . S
Co732 O743 2.039 . S
Co732 N746 2.140 . S
C733 O734 1.227 . S
C733 O743 1.265 . S
O734 C733 1.227 . S
N735 Co732 2.121 . S
N735 C737 1.375 . S
N735 C738 1.313 . S
C736 C737 1.338 . S
C736 N739 1.377 . S
C736 H756 0.930 . S
C737 N735 1.375 . S
C737 C736 1.338 . S
C737 H741 0.931 . S
C738 N735 1.313 . S
C738 N739 1.344 . S
C738 H742 0.930 . S
N739 C736 1.377 . S
N739 C738 1.344 . S
O740 Co732 2.055 . S
O740 C744 1.253 . S
H741 C737 0.931 . S
H742 C738 0.930 . S
O743 Co732 2.039 . S
O743 C733 1.265 . S
C744 O740 1.253 . S
C744 O745 1.227 . S
O745 C744 1.227 . S
N746 Co732 2.140 . S
N746 C749 1.346 . S
N746 C750 1.345 . S
C747 C748 1.387 . S
C747 C751 1.391 . S
C748 C747 1.387 . S
C748 C749 1.369 . S
C748 H757 0.929 . S
C749 N746 1.346 . S
C749 C748 1.369 . S
C749 H752 0.928 . S
C750 N746 1.345 . S
C750 C751 1.371 . S
C750 H753 0.931 . S
C751 C747 1.391 . S
C751 C750 1.371 . S
C751 H758 0.930 . S
H752 C749 0.928 . S
H753 C750 0.931 . S
H754 C730 0.930 . S
H755 C727 0.930 . S
H756 C736 0.930 . S
H757 C748 0.929 . S
H758 C751 0.930 . S
C759 C760 1.351 . S
C759 N762 1.368 . S
C759 H764 0.931 . S
C760 C759 1.351 . S
C760 N761 1.373 . S
C760 H788 0.930 . S
N761 C760 1.373 . S
N761 C763 1.340 . S
N762 C759 1.368 . S
N762 C763 1.321 . S
N762 Co765 2.135 . S
C763 N761 1.340 . S
C763 N762 1.321 . S
C763 H787 0.930 . S
H764 C759 0.931 . S
Co765 N762 2.135 . S
Co765 N768 2.121 . S
Co765 O773 2.055 . S
Co765 O776 2.039 . S
Co765 N779 2.140 . S
C766 O767 1.227 . S
C766 O776 1.265 . S
O767 C766 1.227 . S
N768 Co765 2.121 . S
N768 C770 1.375 . S
N768 C771 1.313 . S
C769 C770 1.338 . S
C769 N772 1.377 . S
C769 H789 0.930 . S
C770 N768 1.375 . S
C770 C769 1.338 . S
C770 H774 0.931 . S
C771 N768 1.313 . S
C771 N772 1.344 . S
C771 H775 0.930 . S
N772 C769 1.377 . S
N772 C771 1.344 . S
O773 Co765 2.055 . S
O773 C777 1.253 . S
H774 C770 0.931 . S
H775 C771 0.930 . S
O776 Co765 2.039 . S
O776 C766 1.265 . S
C777 O773 1.253 . S
C777 O778 1.227 . S
O778 C777 1.227 . S
N779 Co765 2.140 . S
N779 C782 1.346 . S
N779 C783 1.345 . S
C780 C781 1.387 . S
C780 C784 1.391 . S
C781 C780 1.387 . S
C781 C782 1.369 . S
C781 H790 0.929 . S
C782 N779 1.346 . S
C782 C781 1.369 . S
C782 H785 0.928 . S
C783 N779 1.345 . S
C783 C784 1.371 . S
C783 H786 0.931 . S
C784 C780 1.391 . S
C784 C783 1.371 . S
C784 H791 0.930 . S
H785 C782 0.928 . S
H786 C783 0.931 . S
H787 C763 0.930 . S
H788 C760 0.930 . S
H789 C769 0.930 . S
H790 C781 0.929 . S
H791 C784 0.930 . S
C792 C793 1.351 . S
C792 N795 1.368 . S
C792 H797 0.931 . S
C793 C792 1.351 . S
C793 N794 1.373 . S
C793 H821 0.930 . S
N794 C793 1.373 . S
N794 C796 1.340 . S
N795 C792 1.368 . S
N795 C796 1.321 . S
N795 Co798 2.135 . S
C796 N794 1.340 . S
C796 N795 1.321 . S
C796 H820 0.930 . S
H797 C792 0.931 . S
Co798 N795 2.135 . S
Co798 N801 2.121 . S
Co798 O806 2.055 . S
Co798 O809 2.039 . S
Co798 N812 2.140 . S
C799 O800 1.227 . S
C799 O809 1.265 . S
O800 C799 1.227 . S
N801 Co798 2.121 . S
N801 C803 1.375 . S
N801 C804 1.313 . S
C802 C803 1.338 . S
C802 N805 1.377 . S
C802 H822 0.930 . S
C803 N801 1.375 . S
C803 C802 1.338 . S
C803 H807 0.931 . S
C804 N801 1.313 . S
C804 N805 1.344 . S
C804 H808 0.930 . S
N805 C802 1.377 . S
N805 C804 1.344 . S
O806 Co798 2.055 . S
O806 C810 1.253 . S
H807 C803 0.931 . S
H808 C804 0.930 . S
O809 Co798 2.039 . S
O809 C799 1.265 . S
C810 O806 1.253 . S
C810 O811 1.227 . S
O811 C810 1.227 . S
N812 Co798 2.140 . S
N812 C815 1.346 . S
N812 C816 1.345 . S
C813 C814 1.387 . S
C813 C817 1.391 . S
C814 C813 1.387 . S
C814 C815 1.369 . S
C814 H823 0.929 . S
C815 N812 1.346 . S
C815 C814 1.369 . S
C815 H818 0.928 . S
C816 N812 1.345 . S
C816 C817 1.371 . S
C816 H819 0.931 . S
C817 C813 1.391 . S
C817 C816 1.371 . S
C817 H824 0.930 . S
H818 C815 0.928 . S
H819 C816 0.931 . S
H820 C796 0.930 . S
H821 C793 0.930 . S
H822 C802 0.930 . S
H823 C814 0.929 . S
H824 C817 0.930 . S
C825 C826 1.351 . S
C825 N828 1.368 . S
C825 H830 0.931 . S
C826 C825 1.351 . S
C826 N827 1.373 . S
C826 H854 0.930 . S
N827 C826 1.373 . S
N827 C829 1.340 . S
N828 C825 1.368 . S
N828 C829 1.321 . S
N828 Co831 2.135 . S
C829 N827 1.340 . S
C829 N828 1.321 . S
C829 H853 0.930 . S
H830 C825 0.931 . S
Co831 N828 2.135 . S
Co831 N834 2.121 . S
Co831 O839 2.055 . S
Co831 O842 2.039 . S
Co831 N845 2.140 . S
C832 O833 1.227 . S
C832 O842 1.265 . S
O833 C832 1.227 . S
N834 Co831 2.121 . S
N834 C836 1.375 . S
N834 C837 1.313 . S
C835 C836 1.338 . S
C835 N838 1.377 . S
C835 H855 0.930 . S
C836 N834 1.375 . S
C836 C835 1.338 . S
C836 H840 0.931 . S
C837 N834 1.313 . S
C837 N838 1.344 . S
C837 H841 0.930 . S
N838 C835 1.377 . S
N838 C837 1.344 . S
O839 Co831 2.055 . S
O839 C843 1.253 . S
H840 C836 0.931 . S
H841 C837 0.930 . S
O842 Co831 2.039 . S
O842 C832 1.265 . S
C843 O839 1.253 . S
C843 O844 1.227 . S
O844 C843 1.227 . S
N845 Co831 2.140 . S
N845 C848 1.346 . S
N845 C849 1.345 . S
C846 C847 1.387 . S
C846 C850 1.391 . S
C847 C846 1.387 . S
C847 C848 1.369 . S
C847 H856 0.929 . S
C848 N845 1.346 . S
C848 C847 1.369 . S
C848 H851 0.928 . S
C849 N845 1.345 . S
C849 C850 1.371 . S
C849 H852 0.931 . S
C850 C846 1.391 . S
C850 C849 1.371 . S
C850 H857 0.930 . S
H851 C848 0.928 . S
H852 C849 0.931 . S
H853 C829 0.930 . S
H854 C826 0.930 . S
H855 C835 0.930 . S
H856 C847 0.929 . S
H857 C850 0.930 . S
C858 C859 1.351 . S
C858 N861 1.368 1_455 S
C858 H863 0.931 . S
C859 C858 1.351 . S
C859 N860 1.373 1_455 S
C859 H887 0.930 . S
N860 C859 1.373 1_655 S
N860 C862 1.340 . S
N861 C858 1.368 1_655 S
N861 C862 1.321 . S
N861 Co864 2.135 . S
C862 N860 1.340 . S
C862 N861 1.321 . S
C862 H886 0.930 . S
H863 C858 0.931 . S
Co864 N861 2.135 . S
Co864 N867 2.121 . S
Co864 O872 2.055 . S
Co864 O875 2.039 . S
Co864 N878 2.140 1_655 S
C865 O866 1.227 . S
C865 O875 1.265 . S
O866 C865 1.227 . S
N867 Co864 2.121 . S
N867 C869 1.375 . S
N867 C870 1.313 . S
C868 C869 1.338 . S
C868 N871 1.377 . S
C868 H888 0.930 . S
C869 N867 1.375 . S
C869 C868 1.338 . S
C869 H873 0.931 . S
C870 N867 1.313 . S
C870 N871 1.344 . S
C870 H874 0.930 . S
N871 C868 1.377 . S
N871 C870 1.344 . S
O872 Co864 2.055 . S
O872 C876 1.253 1_655 S
H873 C869 0.931 . S
H874 C870 0.930 . S
O875 Co864 2.039 . S
O875 C865 1.265 . S
C876 O872 1.253 1_455 S
C876 O877 1.227 . S
O877 C876 1.227 . S
N878 Co864 2.140 1_455 S
N878 C881 1.346 . S
N878 C882 1.345 . S
C879 C880 1.387 . S
C879 C883 1.391 . S
C880 C879 1.387 . S
C880 C881 1.369 . S
C880 H889 0.929 . S
C881 N878 1.346 . S
C881 C880 1.369 . S
C881 H884 0.928 1_455 S
C882 N878 1.345 . S
C882 C883 1.371 . S
C882 H885 0.931 . S
C883 C879 1.391 . S
C883 C882 1.371 . S
C883 H890 0.930 . S
H884 C881 0.928 1_655 S
H885 C882 0.931 . S
H886 C862 0.930 . S
H887 C859 0.930 . S
H888 C868 0.930 . S
H889 C880 0.929 . S
H890 C883 0.930 . S
C891 C892 1.351 . S
C891 N894 1.368 . S
C891 H896 0.931 . S
C892 C891 1.351 . S
C892 N893 1.373 . S
C892 H920 0.930 . S
N893 C892 1.373 . S
N893 C895 1.340 . S
N894 C891 1.368 . S
N894 C895 1.321 . S
N894 Co897 2.135 . S
C895 N893 1.340 . S
C895 N894 1.321 . S
C895 H919 0.930 . S
H896 C891 0.931 . S
Co897 N894 2.135 . S
Co897 N900 2.121 . S
Co897 O905 2.055 . S
Co897 O908 2.039 . S
Co897 N911 2.140 . S
C898 O899 1.227 . S
C898 O908 1.265 . S
O899 C898 1.227 . S
N900 Co897 2.121 . S
N900 C902 1.375 . S
N900 C903 1.313 . S
C901 C902 1.338 . S
C901 N904 1.377 . S
C901 H921 0.930 . S
C902 N900 1.375 . S
C902 C901 1.338 . S
C902 H906 0.931 . S
C903 N900 1.313 . S
C903 N904 1.344 . S
C903 H907 0.930 . S
N904 C901 1.377 . S
N904 C903 1.344 . S
O905 Co897 2.055 . S
O905 C909 1.253 . S
H906 C902 0.931 . S
H907 C903 0.930 . S
O908 Co897 2.039 . S
O908 C898 1.265 . S
C909 O905 1.253 . S
C909 O910 1.227 . S
O910 C909 1.227 . S
N911 Co897 2.140 . S
N911 C914 1.346 . S
N911 C915 1.345 . S
C912 C913 1.387 . S
C912 C916 1.391 . S
C913 C912 1.387 . S
C913 C914 1.369 . S
C913 H922 0.929 . S
C914 N911 1.346 . S
C914 C913 1.369 . S
C914 H917 0.928 . S
C915 N911 1.345 . S
C915 C916 1.371 . S
C915 H918 0.931 . S
C916 C912 1.391 . S
C916 C915 1.371 . S
C916 H923 0.930 . S
H917 C914 0.928 . S
H918 C915 0.931 . S
H919 C895 0.930 . S
H920 C892 0.930 . S
H921 C901 0.930 . S
H922 C913 0.929 . S
H923 C916 0.930 . S
C924 C925 1.351 . S
C924 N927 1.368 . S
C924 H929 0.931 . S
C925 C924 1.351 . S
C925 N926 1.373 . S
C925 H953 0.930 . S
N926 C925 1.373 . S
N926 C928 1.340 . S
N927 C924 1.368 . S
N927 C928 1.321 . S
N927 Co930 2.135 . S
C928 N926 1.340 . S
C928 N927 1.321 . S
C928 H952 0.930 . S
H929 C924 0.931 . S
Co930 N927 2.135 . S
Co930 N933 2.121 . S
Co930 O938 2.055 . S
Co930 O941 2.039 . S
Co930 N944 2.140 . S
C931 O932 1.227 . S
C931 O941 1.265 . S
O932 C931 1.227 . S
N933 Co930 2.121 . S
N933 C935 1.375 . S
N933 C936 1.313 . S
C934 C935 1.338 . S
C934 N937 1.377 . S
C934 H954 0.930 . S
C935 N933 1.375 . S
C935 C934 1.338 . S
C935 H939 0.931 . S
C936 N933 1.313 . S
C936 N937 1.344 . S
C936 H940 0.930 . S
N937 C934 1.377 . S
N937 C936 1.344 . S
O938 Co930 2.055 . S
O938 C942 1.253 . S
H939 C935 0.931 . S
H940 C936 0.930 . S
O941 Co930 2.039 . S
O941 C931 1.265 . S
C942 O938 1.253 . S
C942 O943 1.227 . S
O943 C942 1.227 . S
N944 Co930 2.140 . S
N944 C947 1.346 . S
N944 C948 1.345 . S
C945 C946 1.387 . S
C945 C949 1.391 . S
C946 C945 1.387 . S
C946 C947 1.369 . S
C946 H955 0.929 . S
C947 N944 1.346 . S
C947 C946 1.369 . S
C947 H950 0.928 . S
C948 N944 1.345 . S
C948 C949 1.371 . S
C948 H951 0.931 . S
C949 C945 1.391 . S
C949 C948 1.371 . S
C949 H956 0.930 . S
H950 C947 0.928 . S
H951 C948 0.931 . S
H952 C928 0.930 . S
H953 C925 0.930 . S
H954 C934 0.930 . S
H955 C946 0.929 . S
H956 C949 0.930 . S
C957 C958 1.351 . S
C957 N960 1.368 . S
C957 H962 0.931 . S
C958 C957 1.351 . S
C958 N959 1.373 . S
C958 H986 0.930 . S
N959 C958 1.373 . S
N959 C961 1.340 . S
N960 C957 1.368 . S
N960 C961 1.321 . S
N960 Co963 2.135 . S
C961 N959 1.340 . S
C961 N960 1.321 . S
C961 H985 0.930 . S
H962 C957 0.931 . S
Co963 N960 2.135 . S
Co963 N966 2.121 . S
Co963 O971 2.055 . S
Co963 O974 2.039 . S
Co963 N977 2.140 . S
C964 O965 1.227 . S
C964 O974 1.265 . S
O965 C964 1.227 . S
N966 Co963 2.121 . S
N966 C968 1.375 . S
N966 C969 1.313 . S
C967 C968 1.338 . S
C967 N970 1.377 . S
C967 H987 0.930 . S
C968 N966 1.375 . S
C968 C967 1.338 . S
C968 H972 0.931 . S
C969 N966 1.313 . S
C969 N970 1.344 . S
C969 H973 0.930 . S
N970 C967 1.377 . S
N970 C969 1.344 . S
O971 Co963 2.055 . S
O971 C975 1.253 . S
H972 C968 0.931 . S
H973 C969 0.930 . S
O974 Co963 2.039 . S
O974 C964 1.265 . S
C975 O971 1.253 . S
C975 O976 1.227 . S
O976 C975 1.227 . S
N977 Co963 2.140 . S
N977 C980 1.346 . S
N977 C981 1.345 . S
C978 C979 1.387 . S
C978 C982 1.391 . S
C979 C978 1.387 . S
C979 C980 1.369 . S
C979 H988 0.929 . S
C980 N977 1.346 . S
C980 C979 1.369 . S
C980 H983 0.928 . S
C981 N977 1.345 . S
C981 C982 1.371 . S
C981 H984 0.931 . S
C982 C978 1.391 . S
C982 C981 1.371 . S
C982 H989 0.930 . S
H983 C980 0.928 . S
H984 C981 0.931 . S
H985 C961 0.930 . S
H986 C958 0.930 . S
H987 C967 0.930 . S
H988 C979 0.929 . S
H989 C982 0.930 . S
C990 C991 1.351 . S
C990 N993 1.368 1_455 S
C990 H995 0.931 . S
C991 C990 1.351 . S
C991 N992 1.373 1_455 S
C991 H1019 0.930 . S
N992 C991 1.373 1_655 S
N992 C994 1.340 . S
N993 C990 1.368 1_655 S
N993 C994 1.321 . S
N993 Co996 2.135 . S
C994 N992 1.340 . S
C994 N993 1.321 . S
C994 H1018 0.930 . S
H995 C990 0.931 . S
Co996 N993 2.135 . S
Co996 N999 2.121 . S
Co996 O1004 2.055 . S
Co996 O1007 2.039 . S
Co996 N1010 2.140 1_655 S
C997 O998 1.227 . S
C997 O1007 1.265 . S
O998 C997 1.227 . S
N999 Co996 2.121 . S
N999 C1001 1.375 . S
N999 C1002 1.313 . S
C1000 C1001 1.338 . S
C1000 N1003 1.377 . S
C1000 H1020 0.930 . S
C1001 N999 1.375 . S
C1001 C1000 1.338 . S
C1001 H1005 0.931 . S
C1002 N999 1.313 . S
C1002 N1003 1.344 . S
C1002 H1006 0.930 . S
N1003 C1000 1.377 . S
N1003 C1002 1.344 . S
O1004 Co996 2.055 . S
O1004 C1008 1.253 1_655 S
H1005 C1001 0.931 . S
H1006 C1002 0.930 . S
O1007 Co996 2.039 . S
O1007 C997 1.265 . S
C1008 O1004 1.253 1_455 S
C1008 O1009 1.227 . S
O1009 C1008 1.227 . S
N1010 Co996 2.140 1_455 S
N1010 C1013 1.346 . S
N1010 C1014 1.345 . S
C1011 C1012 1.387 . S
C1011 C1015 1.391 . S
C1012 C1011 1.387 . S
C1012 C1013 1.369 . S
C1012 H1021 0.929 . S
C1013 N1010 1.346 . S
C1013 C1012 1.369 . S
C1013 H1016 0.928 1_455 S
C1014 N1010 1.345 . S
C1014 C1015 1.371 . S
C1014 H1017 0.931 . S
C1015 C1011 1.391 . S
C1015 C1014 1.371 . S
C1015 H1022 0.930 . S
H1016 C1013 0.928 1_655 S
H1017 C1014 0.931 . S
H1018 C994 0.930 . S
H1019 C991 0.930 . S
H1020 C1000 0.930 . S
H1021 C1012 0.929 . S
H1022 C1015 0.930 . S
C1023 C1024 1.351 . S
C1023 N1026 1.368 . S
C1023 H1028 0.931 . S
C1024 C1023 1.351 . S
C1024 N1025 1.373 . S
C1024 H1052 0.930 . S
N1025 C1024 1.373 . S
N1025 C1027 1.340 . S
N1026 C1023 1.368 . S
N1026 C1027 1.321 . S
N1026 Co1029 2.135 . S
C1027 N1025 1.340 . S
C1027 N1026 1.321 . S
C1027 H1051 0.930 . S
H1028 C1023 0.931 . S
Co1029 N1026 2.135 . S
Co1029 N1032 2.121 . S
Co1029 O1037 2.055 . S
Co1029 O1040 2.039 . S
Co1029 N1043 2.140 . S
C1030 O1031 1.227 . S
C1030 O1040 1.265 . S
O1031 C1030 1.227 . S
N1032 Co1029 2.121 . S
N1032 C1034 1.375 . S
N1032 C1035 1.313 . S
C1033 C1034 1.338 . S
C1033 N1036 1.377 . S
C1033 H1053 0.930 . S
C1034 N1032 1.375 . S
C1034 C1033 1.338 . S
C1034 H1038 0.931 . S
C1035 N1032 1.313 . S
C1035 N1036 1.344 . S
C1035 H1039 0.930 . S
N1036 C1033 1.377 . S
N1036 C1035 1.344 . S
O1037 Co1029 2.055 . S
O1037 C1041 1.253 . S
H1038 C1034 0.931 . S
H1039 C1035 0.930 . S
O1040 Co1029 2.039 . S
O1040 C1030 1.265 . S
C1041 O1037 1.253 . S
C1041 O1042 1.227 . S
O1042 C1041 1.227 . S
N1043 Co1029 2.140 . S
N1043 C1046 1.346 . S
N1043 C1047 1.345 . S
C1044 C1045 1.387 . S
C1044 C1048 1.391 . S
C1045 C1044 1.387 . S
C1045 C1046 1.369 . S
C1045 H1054 0.929 . S
C1046 N1043 1.346 . S
C1046 C1045 1.369 . S
C1046 H1049 0.928 . S
C1047 N1043 1.345 . S
C1047 C1048 1.371 . S
C1047 H1050 0.931 . S
C1048 C1044 1.391 . S
C1048 C1047 1.371 . S
C1048 H1055 0.930 . S
H1049 C1046 0.928 . S
H1050 C1047 0.931 . S
H1051 C1027 0.930 . S
H1052 C1024 0.930 . S
H1053 C1033 0.930 . S
H1054 C1045 0.929 . S
H1055 C1048 0.930 . S
C1056 C1057 1.351 . S
C1056 N1059 1.368 . S
C1056 H1061 0.931 . S
C1057 C1056 1.351 . S
C1057 N1058 1.373 . S
C1057 H1085 0.930 . S
N1058 C1057 1.373 . S
N1058 C1060 1.340 . S
N1059 C1056 1.368 . S
N1059 C1060 1.321 . S
N1059 Co1062 2.135 . S
C1060 N1058 1.340 . S
C1060 N1059 1.321 . S
C1060 H1084 0.930 . S
H1061 C1056 0.931 . S
Co1062 N1059 2.135 . S
Co1062 N1065 2.121 . S
Co1062 O1070 2.055 . S
Co1062 O1073 2.039 . S
Co1062 N1076 2.140 . S
C1063 O1064 1.227 . S
C1063 O1073 1.265 . S
O1064 C1063 1.227 . S
N1065 Co1062 2.121 . S
N1065 C1067 1.375 . S
N1065 C1068 1.313 . S
C1066 C1067 1.338 . S
C1066 N1069 1.377 . S
C1066 H1086 0.930 . S
C1067 N1065 1.375 . S
C1067 C1066 1.338 . S
C1067 H1071 0.931 . S
C1068 N1065 1.313 . S
C1068 N1069 1.344 . S
C1068 H1072 0.930 . S
N1069 C1066 1.377 . S
N1069 C1068 1.344 . S
O1070 Co1062 2.055 . S
O1070 C1074 1.253 . S
H1071 C1067 0.931 . S
H1072 C1068 0.930 . S
O1073 Co1062 2.039 . S
O1073 C1063 1.265 . S
C1074 O1070 1.253 . S
C1074 O1075 1.227 . S
O1075 C1074 1.227 . S
N1076 Co1062 2.140 . S
N1076 C1079 1.346 . S
N1076 C1080 1.345 . S
C1077 C1078 1.387 . S
C1077 C1081 1.391 . S
C1078 C1077 1.387 . S
C1078 C1079 1.369 . S
C1078 H1087 0.929 . S
C1079 N1076 1.346 . S
C1079 C1078 1.369 . S
C1079 H1082 0.928 . S
C1080 N1076 1.345 . S
C1080 C1081 1.371 . S
C1080 H1083 0.931 . S
C1081 C1077 1.391 . S
C1081 C1080 1.371 . S
C1081 H1088 0.930 . S
H1082 C1079 0.928 . S
H1083 C1080 0.931 . S
H1084 C1060 0.930 . S
H1085 C1057 0.930 . S
H1086 C1066 0.930 . S
H1087 C1078 0.929 . S
H1088 C1081 0.930 . S
C1089 C1090 1.351 . S
C1089 N1092 1.368 . S
C1089 H1094 0.931 . S
C1090 C1089 1.351 . S
C1090 N1091 1.373 . S
C1090 H1118 0.930 . S
N1091 C1090 1.373 . S
N1091 C1093 1.340 . S
N1092 C1089 1.368 . S
N1092 C1093 1.321 . S
N1092 Co1095 2.135 . S
C1093 N1091 1.340 . S
C1093 N1092 1.321 . S
C1093 H1117 0.930 . S
H1094 C1089 0.931 . S
Co1095 N1092 2.135 . S
Co1095 N1098 2.121 . S
Co1095 O1103 2.055 . S
Co1095 O1106 2.039 . S
Co1095 N1109 2.140 . S
C1096 O1097 1.227 . S
C1096 O1106 1.265 . S
O1097 C1096 1.227 . S
N1098 Co1095 2.121 . S
N1098 C1100 1.375 . S
N1098 C1101 1.313 . S
C1099 C1100 1.338 . S
C1099 N1102 1.377 . S
C1099 H1119 0.930 . S
C1100 N1098 1.375 . S
C1100 C1099 1.338 . S
C1100 H1104 0.931 . S
C1101 N1098 1.313 . S
C1101 N1102 1.344 . S
C1101 H1105 0.930 . S
N1102 C1099 1.377 . S
N1102 C1101 1.344 . S
O1103 Co1095 2.055 . S
O1103 C1107 1.253 . S
H1104 C1100 0.931 . S
H1105 C1101 0.930 . S
O1106 Co1095 2.039 . S
O1106 C1096 1.265 . S
C1107 O1103 1.253 . S
C1107 O1108 1.227 . S
O1108 C1107 1.227 . S
N1109 Co1095 2.140 . S
N1109 C1112 1.346 . S
N1109 C1113 1.345 . S
C1110 C1111 1.387 . S
C1110 C1114 1.391 . S
C1111 C1110 1.387 . S
C1111 C1112 1.369 . S
C1111 H1120 0.929 . S
C1112 N1109 1.346 . S
C1112 C1111 1.369 . S
C1112 H1115 0.928 . S
C1113 N1109 1.345 . S
C1113 C1114 1.371 . S
C1113 H1116 0.931 . S
C1114 C1110 1.391 . S
C1114 C1113 1.371 . S
C1114 H1121 0.930 . S
H1115 C1112 0.928 . S
H1116 C1113 0.931 . S
H1117 C1093 0.930 . S
H1118 C1090 0.930 . S
H1119 C1099 0.930 . S
H1120 C1111 0.929 . S
H1121 C1114 0.930 . S
C1122 C1123 1.351 . S
C1122 N1125 1.368 . S
C1122 H1127 0.931 . S
C1123 C1122 1.351 . S
C1123 N1124 1.373 . S
C1123 H1151 0.930 . S
N1124 C1123 1.373 . S
N1124 C1126 1.340 . S
N1125 C1122 1.368 . S
N1125 C1126 1.321 . S
N1125 Co1128 2.135 . S
C1126 N1124 1.340 . S
C1126 N1125 1.321 . S
C1126 H1150 0.930 . S
H1127 C1122 0.931 . S
Co1128 N1125 2.135 . S
Co1128 N1131 2.121 . S
Co1128 O1136 2.055 . S
Co1128 O1139 2.039 . S
Co1128 N1142 2.140 . S
C1129 O1130 1.227 . S
C1129 O1139 1.265 . S
O1130 C1129 1.227 . S
N1131 Co1128 2.121 . S
N1131 C1133 1.375 . S
N1131 C1134 1.313 . S
C1132 C1133 1.338 . S
C1132 N1135 1.377 . S
C1132 H1152 0.930 . S
C1133 N1131 1.375 . S
C1133 C1132 1.338 . S
C1133 H1137 0.931 . S
C1134 N1131 1.313 . S
C1134 N1135 1.344 . S
C1134 H1138 0.930 . S
N1135 C1132 1.377 . S
N1135 C1134 1.344 . S
O1136 Co1128 2.055 . S
O1136 C1140 1.253 . S
H1137 C1133 0.931 . S
H1138 C1134 0.930 . S
O1139 Co1128 2.039 . S
O1139 C1129 1.265 . S
C1140 O1136 1.253 . S
C1140 O1141 1.227 . S
O1141 C1140 1.227 . S
N1142 Co1128 2.140 . S
N1142 C1145 1.346 . S
N1142 C1146 1.345 . S
C1143 C1144 1.387 . S
C1143 C1147 1.391 . S
C1144 C1143 1.387 . S
C1144 C1145 1.369 . S
C1144 H1153 0.929 . S
C1145 N1142 1.346 . S
C1145 C1144 1.369 . S
C1145 H1148 0.928 . S
C1146 N1142 1.345 . S
C1146 C1147 1.371 . S
C1146 H1149 0.931 . S
C1147 C1143 1.391 . S
C1147 C1146 1.371 . S
C1147 H1154 0.930 . S
H1148 C1145 0.928 . S
H1149 C1146 0.931 . S
H1150 C1126 0.930 . S
H1151 C1123 0.930 . S
H1152 C1132 0.930 . S
H1153 C1144 0.929 . S
H1154 C1147 0.930 . S
C1155 C1156 1.351 . S
C1155 N1158 1.368 . S
C1155 H1160 0.931 . S
C1156 C1155 1.351 . S
C1156 N1157 1.373 . S
C1156 H1184 0.930 . S
N1157 C1156 1.373 . S
N1157 C1159 1.340 . S
N1158 C1155 1.368 . S
N1158 C1159 1.321 . S
N1158 Co1161 2.135 . S
C1159 N1157 1.340 . S
C1159 N1158 1.321 . S
C1159 H1183 0.930 . S
H1160 C1155 0.931 . S
Co1161 N1158 2.135 . S
Co1161 N1164 2.121 . S
Co1161 O1169 2.055 . S
Co1161 O1172 2.039 . S
Co1161 N1175 2.140 . S
C1162 O1163 1.227 . S
C1162 O1172 1.265 . S
O1163 C1162 1.227 . S
N1164 Co1161 2.121 . S
N1164 C1166 1.375 . S
N1164 C1167 1.313 . S
C1165 C1166 1.338 . S
C1165 N1168 1.377 . S
C1165 H1185 0.930 . S
C1166 N1164 1.375 . S
C1166 C1165 1.338 . S
C1166 H1170 0.931 . S
C1167 N1164 1.313 . S
C1167 N1168 1.344 . S
C1167 H1171 0.930 . S
N1168 C1165 1.377 . S
N1168 C1167 1.344 . S
O1169 Co1161 2.055 . S
O1169 C1173 1.253 . S
H1170 C1166 0.931 . S
H1171 C1167 0.930 . S
O1172 Co1161 2.039 . S
O1172 C1162 1.265 . S
C1173 O1169 1.253 . S
C1173 O1174 1.227 . S
O1174 C1173 1.227 . S
N1175 Co1161 2.140 . S
N1175 C1178 1.346 . S
N1175 C1179 1.345 . S
C1176 C1177 1.387 . S
C1176 C1180 1.391 . S
C1177 C1176 1.387 . S
C1177 C1178 1.369 . S
C1177 H1186 0.929 . S
C1178 N1175 1.346 . S
C1178 C1177 1.369 . S
C1178 H1181 0.928 . S
C1179 N1175 1.345 . S
C1179 C1180 1.371 . S
C1179 H1182 0.931 . S
C1180 C1176 1.391 . S
C1180 C1179 1.371 . S
C1180 H1187 0.930 . S
H1181 C1178 0.928 . S
H1182 C1179 0.931 . S
H1183 C1159 0.930 . S
H1184 C1156 0.930 . S
H1185 C1165 0.930 . S
H1186 C1177 0.929 . S
H1187 C1180 0.930 . S
C1188 C1189 1.351 . S
C1188 N1191 1.368 . S
C1188 H1193 0.931 . S
C1189 C1188 1.351 . S
C1189 N1190 1.373 . S
C1189 H1217 0.930 . S
N1190 C1189 1.373 . S
N1190 C1192 1.340 . S
N1191 C1188 1.368 . S
N1191 C1192 1.321 . S
N1191 Co1194 2.135 . S
C1192 N1190 1.340 . S
C1192 N1191 1.321 . S
C1192 H1216 0.930 . S
H1193 C1188 0.931 . S
Co1194 N1191 2.135 . S
Co1194 N1197 2.121 . S
Co1194 O1202 2.055 . S
Co1194 O1205 2.039 . S
Co1194 N1208 2.140 . S
C1195 O1196 1.227 . S
C1195 O1205 1.265 . S
O1196 C1195 1.227 . S
N1197 Co1194 2.121 . S
N1197 C1199 1.375 . S
N1197 C1200 1.313 . S
C1198 C1199 1.338 . S
C1198 N1201 1.377 . S
C1198 H1218 0.930 . S
C1199 N1197 1.375 . S
C1199 C1198 1.338 . S
C1199 H1203 0.931 . S
C1200 N1197 1.313 . S
C1200 N1201 1.344 . S
C1200 H1204 0.930 . S
N1201 C1198 1.377 . S
N1201 C1200 1.344 . S
O1202 Co1194 2.055 . S
O1202 C1206 1.253 . S
H1203 C1199 0.931 . S
H1204 C1200 0.930 . S
O1205 Co1194 2.039 . S
O1205 C1195 1.265 . S
C1206 O1202 1.253 . S
C1206 O1207 1.227 . S
O1207 C1206 1.227 . S
N1208 Co1194 2.140 . S
N1208 C1211 1.346 . S
N1208 C1212 1.345 . S
C1209 C1210 1.387 . S
C1209 C1213 1.391 . S
C1210 C1209 1.387 . S
C1210 C1211 1.369 . S
C1210 H1219 0.929 . S
C1211 N1208 1.346 . S
C1211 C1210 1.369 . S
C1211 H1214 0.928 . S
C1212 N1208 1.345 . S
C1212 C1213 1.371 . S
C1212 H1215 0.931 . S
C1213 C1209 1.391 . S
C1213 C1212 1.371 . S
C1213 H1220 0.930 . S
H1214 C1211 0.928 . S
H1215 C1212 0.931 . S
H1216 C1192 0.930 . S
H1217 C1189 0.930 . S
H1218 C1198 0.930 . S
H1219 C1210 0.929 . S
H1220 C1213 0.930 . S
C1221 C1222 1.351 . S
C1221 N1224 1.368 . S
C1221 H1226 0.931 . S
C1222 C1221 1.351 . S
C1222 N1223 1.373 . S
C1222 H1250 0.930 . S
N1223 C1222 1.373 . S
N1223 C1225 1.340 . S
N1224 C1221 1.368 . S
N1224 C1225 1.321 . S
N1224 Co1227 2.135 . S
C1225 N1223 1.340 . S
C1225 N1224 1.321 . S
C1225 H1249 0.930 . S
H1226 C1221 0.931 . S
Co1227 N1224 2.135 . S
Co1227 N1230 2.121 . S
Co1227 O1235 2.055 . S
Co1227 O1238 2.039 . S
Co1227 N1241 2.140 . S
C1228 O1229 1.227 . S
C1228 O1238 1.265 . S
O1229 C1228 1.227 . S
N1230 Co1227 2.121 . S
N1230 C1232 1.375 . S
N1230 C1233 1.313 . S
C1231 C1232 1.338 . S
C1231 N1234 1.377 . S
C1231 H1251 0.930 . S
C1232 N1230 1.375 . S
C1232 C1231 1.338 . S
C1232 H1236 0.931 . S
C1233 N1230 1.313 . S
C1233 N1234 1.344 . S
C1233 H1237 0.930 . S
N1234 C1231 1.377 . S
N1234 C1233 1.344 . S
O1235 Co1227 2.055 . S
O1235 C1239 1.253 . S
H1236 C1232 0.931 . S
H1237 C1233 0.930 . S
O1238 Co1227 2.039 . S
O1238 C1228 1.265 . S
C1239 O1235 1.253 . S
C1239 O1240 1.227 . S
O1240 C1239 1.227 . S
N1241 Co1227 2.140 . S
N1241 C1244 1.346 . S
N1241 C1245 1.345 . S
C1242 C1243 1.387 . S
C1242 C1246 1.391 . S
C1243 C1242 1.387 . S
C1243 C1244 1.369 . S
C1243 H1252 0.929 . S
C1244 N1241 1.346 . S
C1244 C1243 1.369 . S
C1244 H1247 0.928 . S
C1245 N1241 1.345 . S
C1245 C1246 1.371 . S
C1245 H1248 0.931 . S
C1246 C1242 1.391 . S
C1246 C1245 1.371 . S
C1246 H1253 0.930 . S
H1247 C1244 0.928 . S
H1248 C1245 0.931 . S
H1249 C1225 0.930 . S
H1250 C1222 0.930 . S
H1251 C1231 0.930 . S
H1252 C1243 0.929 . S
H1253 C1246 0.930 . S
C1254 C1255 1.351 . S
C1254 N1257 1.368 . S
C1254 H1259 0.931 . S
C1255 C1254 1.351 . S
C1255 N1256 1.373 . S
C1255 H1283 0.930 . S
N1256 C1255 1.373 . S
N1256 C1258 1.340 . S
N1257 C1254 1.368 . S
N1257 C1258 1.321 . S
N1257 Co1260 2.135 . S
C1258 N1256 1.340 . S
C1258 N1257 1.321 . S
C1258 H1282 0.930 . S
H1259 C1254 0.931 . S
Co1260 N1257 2.135 . S
Co1260 N1263 2.121 . S
Co1260 O1268 2.055 . S
Co1260 O1271 2.039 . S
Co1260 N1274 2.140 . S
C1261 O1262 1.227 . S
C1261 O1271 1.265 . S
O1262 C1261 1.227 . S
N1263 Co1260 2.121 . S
N1263 C1265 1.375 . S
N1263 C1266 1.313 . S
C1264 C1265 1.338 . S
C1264 N1267 1.377 . S
C1264 H1284 0.930 . S
C1265 N1263 1.375 . S
C1265 C1264 1.338 . S
C1265 H1269 0.931 . S
C1266 N1263 1.313 . S
C1266 N1267 1.344 . S
C1266 H1270 0.930 . S
N1267 C1264 1.377 . S
N1267 C1266 1.344 . S
O1268 Co1260 2.055 . S
O1268 C1272 1.253 . S
H1269 C1265 0.931 . S
H1270 C1266 0.930 . S
O1271 Co1260 2.039 . S
O1271 C1261 1.265 . S
C1272 O1268 1.253 . S
C1272 O1273 1.227 . S
O1273 C1272 1.227 . S
N1274 Co1260 2.140 . S
N1274 C1277 1.346 . S
N1274 C1278 1.345 . S
C1275 C1276 1.387 . S
C1275 C1279 1.391 . S
C1276 C1275 1.387 . S
C1276 C1277 1.369 . S
C1276 H1285 0.929 . S
C1277 N1274 1.346 . S
C1277 C1276 1.369 . S
C1277 H1280 0.928 . S
C1278 N1274 1.345 . S
C1278 C1279 1.371 . S
C1278 H1281 0.931 . S
C1279 C1275 1.391 . S
C1279 C1278 1.371 . S
C1279 H1286 0.930 . S
H1280 C1277 0.928 . S
H1281 C1278 0.931 . S
H1282 C1258 0.930 . S
H1283 C1255 0.930 . S
H1284 C1264 0.930 . S
H1285 C1276 0.929 . S
H1286 C1279 0.930 . S
C1287 C1288 1.351 . S
C1287 N1290 1.368 . S
C1287 H1292 0.931 . S
C1288 C1287 1.351 . S
C1288 N1289 1.373 . S
C1288 H1316 0.930 . S
N1289 C1288 1.373 . S
N1289 C1291 1.340 . S
N1290 C1287 1.368 . S
N1290 C1291 1.321 . S
N1290 Co1293 2.135 . S
C1291 N1289 1.340 . S
C1291 N1290 1.321 . S
C1291 H1315 0.930 . S
H1292 C1287 0.931 . S
Co1293 N1290 2.135 . S
Co1293 N1296 2.121 . S
Co1293 O1301 2.055 . S
Co1293 O1304 2.039 . S
Co1293 N1307 2.140 . S
C1294 O1295 1.227 . S
C1294 O1304 1.265 . S
O1295 C1294 1.227 . S
N1296 Co1293 2.121 . S
N1296 C1298 1.375 . S
N1296 C1299 1.313 . S
C1297 C1298 1.338 . S
C1297 N1300 1.377 . S
C1297 H1317 0.930 . S
C1298 N1296 1.375 . S
C1298 C1297 1.338 . S
C1298 H1302 0.931 . S
C1299 N1296 1.313 . S
C1299 N1300 1.344 . S
C1299 H1303 0.930 . S
N1300 C1297 1.377 . S
N1300 C1299 1.344 . S
O1301 Co1293 2.055 . S
O1301 C1305 1.253 . S
H1302 C1298 0.931 . S
H1303 C1299 0.930 . S
O1304 Co1293 2.039 . S
O1304 C1294 1.265 . S
C1305 O1301 1.253 . S
C1305 O1306 1.227 . S
O1306 C1305 1.227 . S
N1307 Co1293 2.140 . S
N1307 C1310 1.346 . S
N1307 C1311 1.345 . S
C1308 C1309 1.387 . S
C1308 C1312 1.391 . S
C1309 C1308 1.387 . S
C1309 C1310 1.369 . S
C1309 H1318 0.929 . S
C1310 N1307 1.346 . S
C1310 C1309 1.369 . S
C1310 H1313 0.928 . S
C1311 N1307 1.345 . S
C1311 C1312 1.371 . S
C1311 H1314 0.931 . S
C1312 C1308 1.391 . S
C1312 C1311 1.371 . S
C1312 H1319 0.930 . S
H1313 C1310 0.928 . S
H1314 C1311 0.931 . S
H1315 C1291 0.930 . S
H1316 C1288 0.930 . S
H1317 C1297 0.930 . S
H1318 C1309 0.929 . S
H1319 C1312 0.930 . S
C1320 C1321 1.351 . S
C1320 N1323 1.368 . S
C1320 H1325 0.931 . S
C1321 C1320 1.351 . S
C1321 N1322 1.373 . S
C1321 H1349 0.930 . S
N1322 C1321 1.373 . S
N1322 C1324 1.340 . S
N1323 C1320 1.368 . S
N1323 C1324 1.321 . S
N1323 Co1326 2.135 . S
C1324 N1322 1.340 . S
C1324 N1323 1.321 . S
C1324 H1348 0.930 . S
H1325 C1320 0.931 . S
Co1326 N1323 2.135 . S
Co1326 N1329 2.121 . S
Co1326 O1334 2.055 . S
Co1326 O1337 2.039 . S
Co1326 N1340 2.140 . S
C1327 O1328 1.227 . S
C1327 O1337 1.265 . S
O1328 C1327 1.227 . S
N1329 Co1326 2.121 . S
N1329 C1331 1.375 . S
N1329 C1332 1.313 . S
C1330 C1331 1.338 . S
C1330 N1333 1.377 . S
C1330 H1350 0.930 . S
C1331 N1329 1.375 . S
C1331 C1330 1.338 . S
C1331 H1335 0.931 . S
C1332 N1329 1.313 . S
C1332 N1333 1.344 . S
C1332 H1336 0.930 . S
N1333 C1330 1.377 . S
N1333 C1332 1.344 . S
O1334 Co1326 2.055 . S
O1334 C1338 1.253 . S
H1335 C1331 0.931 . S
H1336 C1332 0.930 . S
O1337 Co1326 2.039 . S
O1337 C1327 1.265 . S
C1338 O1334 1.253 . S
C1338 O1339 1.227 . S
O1339 C1338 1.227 . S
N1340 Co1326 2.140 . S
N1340 C1343 1.346 . S
N1340 C1344 1.345 . S
C1341 C1342 1.387 . S
C1341 C1345 1.391 . S
C1342 C1341 1.387 . S
C1342 C1343 1.369 . S
C1342 H1351 0.929 . S
C1343 N1340 1.346 . S
C1343 C1342 1.369 . S
C1343 H1346 0.928 . S
C1344 N1340 1.345 . S
C1344 C1345 1.371 . S
C1344 H1347 0.931 . S
C1345 C1341 1.391 . S
C1345 C1344 1.371 . S
C1345 H1352 0.930 . S
H1346 C1343 0.928 . S
H1347 C1344 0.931 . S
H1348 C1324 0.930 . S
H1349 C1321 0.930 . S
H1350 C1330 0.930 . S
H1351 C1342 0.929 . S
H1352 C1345 0.930 . S
C1353 C1354 1.351 . S
C1353 N1356 1.368 . S
C1353 H1358 0.931 . S
C1354 C1353 1.351 . S
C1354 N1355 1.373 . S
C1354 H1382 0.930 . S
N1355 C1354 1.373 . S
N1355 C1357 1.340 . S
N1356 C1353 1.368 . S
N1356 C1357 1.321 . S
N1356 Co1359 2.135 . S
C1357 N1355 1.340 . S
C1357 N1356 1.321 . S
C1357 H1381 0.930 . S
H1358 C1353 0.931 . S
Co1359 N1356 2.135 . S
Co1359 N1362 2.121 . S
Co1359 O1367 2.055 . S
Co1359 O1370 2.039 . S
Co1359 N1373 2.140 . S
C1360 O1361 1.227 . S
C1360 O1370 1.265 . S
O1361 C1360 1.227 . S
N1362 Co1359 2.121 . S
N1362 C1364 1.375 . S
N1362 C1365 1.313 . S
C1363 C1364 1.338 . S
C1363 N1366 1.377 . S
C1363 H1383 0.930 . S
C1364 N1362 1.375 . S
C1364 C1363 1.338 . S
C1364 H1368 0.931 . S
C1365 N1362 1.313 . S
C1365 N1366 1.344 . S
C1365 H1369 0.930 . S
N1366 C1363 1.377 . S
N1366 C1365 1.344 . S
O1367 Co1359 2.055 . S
O1367 C1371 1.253 . S
H1368 C1364 0.931 . S
H1369 C1365 0.930 . S
O1370 Co1359 2.039 . S
O1370 C1360 1.265 . S
C1371 O1367 1.253 . S
C1371 O1372 1.227 . S
O1372 C1371 1.227 . S
N1373 Co1359 2.140 . S
N1373 C1376 1.346 . S
N1373 C1377 1.345 . S
C1374 C1375 1.387 . S
C1374 C1378 1.391 . S
C1375 C1374 1.387 . S
C1375 C1376 1.369 . S
C1375 H1384 0.929 . S
C1376 N1373 1.346 . S
C1376 C1375 1.369 . S
C1376 H1379 0.928 . S
C1377 N1373 1.345 . S
C1377 C1378 1.371 . S
C1377 H1380 0.931 . S
C1378 C1374 1.391 . S
C1378 C1377 1.371 . S
C1378 H1385 0.930 . S
H1379 C1376 0.928 . S
H1380 C1377 0.931 . S
H1381 C1357 0.930 . S
H1382 C1354 0.930 . S
H1383 C1363 0.930 . S
H1384 C1375 0.929 . S
H1385 C1378 0.930 . S
C1386 C1387 1.351 . S
C1386 N1389 1.368 . S
C1386 H1391 0.931 . S
C1387 C1386 1.351 . S
C1387 N1388 1.373 . S
C1387 H1415 0.930 . S
N1388 C1387 1.373 . S
N1388 C1390 1.340 . S
N1389 C1386 1.368 . S
N1389 C1390 1.321 . S
N1389 Co1392 2.135 . S
C1390 N1388 1.340 . S
C1390 N1389 1.321 . S
C1390 H1414 0.930 . S
H1391 C1386 0.931 . S
Co1392 N1389 2.135 . S
Co1392 N1395 2.121 . S
Co1392 O1400 2.055 . S
Co1392 O1403 2.039 . S
Co1392 N1406 2.140 . S
C1393 O1394 1.227 . S
C1393 O1403 1.265 . S
O1394 C1393 1.227 . S
N1395 Co1392 2.121 . S
N1395 C1397 1.375 . S
N1395 C1398 1.313 . S
C1396 C1397 1.338 . S
C1396 N1399 1.377 . S
C1396 H1416 0.930 . S
C1397 N1395 1.375 . S
C1397 C1396 1.338 . S
C1397 H1401 0.931 . S
C1398 N1395 1.313 . S
C1398 N1399 1.344 . S
C1398 H1402 0.930 . S
N1399 C1396 1.377 . S
N1399 C1398 1.344 . S
O1400 Co1392 2.055 . S
O1400 C1404 1.253 . S
H1401 C1397 0.931 . S
H1402 C1398 0.930 . S
O1403 Co1392 2.039 . S
O1403 C1393 1.265 . S
C1404 O1400 1.253 . S
C1404 O1405 1.227 . S
O1405 C1404 1.227 . S
N1406 Co1392 2.140 . S
N1406 C1409 1.346 . S
N1406 C1410 1.345 . S
C1407 C1408 1.387 . S
C1407 C1411 1.391 . S
C1408 C1407 1.387 . S
C1408 C1409 1.369 . S
C1408 H1417 0.929 . S
C1409 N1406 1.346 . S
C1409 C1408 1.369 . S
C1409 H1412 0.928 . S
C1410 N1406 1.345 . S
C1410 C1411 1.371 . S
C1410 H1413 0.931 . S
C1411 C1407 1.391 . S
C1411 C1410 1.371 . S
C1411 H1418 0.930 . S
H1412 C1409 0.928 . S
H1413 C1410 0.931 . S
H1414 C1390 0.930 . S
H1415 C1387 0.930 . S
H1416 C1396 0.930 . S
H1417 C1408 0.929 . S
H1418 C1411 0.930 . S
C1419 C1420 1.351 . S
C1419 N1422 1.368 1_554 S
C1419 H1424 0.931 . S
C1420 C1419 1.351 . S
C1420 N1421 1.373 1_554 S
C1420 H1448 0.930 . S
N1421 C1420 1.373 1_556 S
N1421 C1423 1.340 . S
N1422 C1419 1.368 1_556 S
N1422 C1423 1.321 . S
N1422 Co1425 2.135 . S
C1423 N1421 1.340 . S
C1423 N1422 1.321 . S
C1423 H1447 0.930 . S
H1424 C1419 0.931 . S
Co1425 N1422 2.135 . S
Co1425 N1428 2.121 . S
Co1425 O1433 2.055 . S
Co1425 O1436 2.039 . S
Co1425 N1439 2.140 1_556 S
C1426 O1427 1.227 . S
C1426 O1436 1.265 . S
O1427 C1426 1.227 . S
N1428 Co1425 2.121 . S
N1428 C1430 1.375 . S
N1428 C1431 1.313 . S
C1429 C1430 1.338 . S
C1429 N1432 1.377 . S
C1429 H1449 0.930 . S
C1430 N1428 1.375 . S
C1430 C1429 1.338 . S
C1430 H1434 0.931 . S
C1431 N1428 1.313 . S
C1431 N1432 1.344 . S
C1431 H1435 0.930 . S
N1432 C1429 1.377 . S
N1432 C1431 1.344 . S
O1433 Co1425 2.055 . S
O1433 C1437 1.253 1_556 S
H1434 C1430 0.931 . S
H1435 C1431 0.930 . S
O1436 Co1425 2.039 . S
O1436 C1426 1.265 . S
C1437 O1433 1.253 1_554 S
C1437 O1438 1.227 . S
O1438 C1437 1.227 . S
N1439 Co1425 2.140 1_554 S
N1439 C1442 1.346 . S
N1439 C1443 1.345 . S
C1440 C1441 1.387 . S
C1440 C1444 1.391 . S
C1441 C1440 1.387 . S
C1441 C1442 1.369 . S
C1441 H1450 0.929 . S
C1442 N1439 1.346 . S
C1442 C1441 1.369 . S
C1442 H1445 0.928 1_554 S
C1443 N1439 1.345 . S
C1443 C1444 1.371 . S
C1443 H1446 0.931 . S
C1444 C1440 1.391 . S
C1444 C1443 1.371 . S
C1444 H1451 0.930 . S
H1445 C1442 0.928 1_556 S
H1446 C1443 0.931 . S
H1447 C1423 0.930 . S
H1448 C1420 0.930 . S
H1449 C1429 0.930 . S
H1450 C1441 0.929 . S
H1451 C1444 0.930 . S
C1452 C1453 1.351 . S
C1452 N1455 1.368 . S
C1452 H1457 0.931 . S
C1453 C1452 1.351 . S
C1453 N1454 1.373 . S
C1453 H1481 0.930 . S
N1454 C1453 1.373 . S
N1454 C1456 1.340 . S
N1455 C1452 1.368 . S
N1455 C1456 1.321 . S
N1455 Co1458 2.135 . S
C1456 N1454 1.340 . S
C1456 N1455 1.321 . S
C1456 H1480 0.930 . S
H1457 C1452 0.931 . S
Co1458 N1455 2.135 . S
Co1458 N1461 2.121 . S
Co1458 O1466 2.055 . S
Co1458 O1469 2.039 . S
Co1458 N1472 2.140 . S
C1459 O1460 1.227 . S
C1459 O1469 1.265 . S
O1460 C1459 1.227 . S
N1461 Co1458 2.121 . S
N1461 C1463 1.375 . S
N1461 C1464 1.313 . S
C1462 C1463 1.338 . S
C1462 N1465 1.377 . S
C1462 H1482 0.930 . S
C1463 N1461 1.375 . S
C1463 C1462 1.338 . S
C1463 H1467 0.931 . S
C1464 N1461 1.313 . S
C1464 N1465 1.344 . S
C1464 H1468 0.930 . S
N1465 C1462 1.377 . S
N1465 C1464 1.344 . S
O1466 Co1458 2.055 . S
O1466 C1470 1.253 . S
H1467 C1463 0.931 . S
H1468 C1464 0.930 . S
O1469 Co1458 2.039 . S
O1469 C1459 1.265 . S
C1470 O1466 1.253 . S
C1470 O1471 1.227 . S
O1471 C1470 1.227 . S
N1472 Co1458 2.140 . S
N1472 C1475 1.346 . S
N1472 C1476 1.345 . S
C1473 C1474 1.387 . S
C1473 C1477 1.391 . S
C1474 C1473 1.387 . S
C1474 C1475 1.369 . S
C1474 H1483 0.929 . S
C1475 N1472 1.346 . S
C1475 C1474 1.369 . S
C1475 H1478 0.928 . S
C1476 N1472 1.345 . S
C1476 C1477 1.371 . S
C1476 H1479 0.931 . S
C1477 C1473 1.391 . S
C1477 C1476 1.371 . S
C1477 H1484 0.930 . S
H1478 C1475 0.928 . S
H1479 C1476 0.931 . S
H1480 C1456 0.930 . S
H1481 C1453 0.930 . S
H1482 C1462 0.930 . S
H1483 C1474 0.929 . S
H1484 C1477 0.930 . S
C1485 C1486 1.351 . S
C1485 N1488 1.368 1_556 S
C1485 H1490 0.931 . S
C1486 C1485 1.351 . S
C1486 N1487 1.373 1_556 S
C1486 H1514 0.930 . S
N1487 C1486 1.373 1_554 S
N1487 C1489 1.340 . S
N1488 C1485 1.368 1_554 S
N1488 C1489 1.321 . S
N1488 Co1491 2.135 . S
C1489 N1487 1.340 . S
C1489 N1488 1.321 . S
C1489 H1513 0.930 . S
H1490 C1485 0.931 . S
Co1491 N1488 2.135 . S
Co1491 N1494 2.121 . S
Co1491 O1499 2.055 . S
Co1491 O1502 2.039 . S
Co1491 N1505 2.140 1_554 S
C1492 O1493 1.227 . S
C1492 O1502 1.265 . S
O1493 C1492 1.227 . S
N1494 Co1491 2.121 . S
N1494 C1496 1.375 . S
N1494 C1497 1.313 . S
C1495 C1496 1.338 . S
C1495 N1498 1.377 . S
C1495 H1515 0.930 . S
C1496 N1494 1.375 . S
C1496 C1495 1.338 . S
C1496 H1500 0.931 . S
C1497 N1494 1.313 . S
C1497 N1498 1.344 . S
C1497 H1501 0.930 . S
N1498 C1495 1.377 . S
N1498 C1497 1.344 . S
O1499 Co1491 2.055 . S
O1499 C1503 1.253 1_554 S
H1500 C1496 0.931 . S
H1501 C1497 0.930 . S
O1502 Co1491 2.039 . S
O1502 C1492 1.265 . S
C1503 O1499 1.253 1_556 S
C1503 O1504 1.227 . S
O1504 C1503 1.227 . S
N1505 Co1491 2.140 1_556 S
N1505 C1508 1.346 . S
N1505 C1509 1.345 . S
C1506 C1507 1.387 . S
C1506 C1510 1.391 . S
C1507 C1506 1.387 . S
C1507 C1508 1.369 . S
C1507 H1516 0.929 . S
C1508 N1505 1.346 . S
C1508 C1507 1.369 . S
C1508 H1511 0.928 1_556 S
C1509 N1505 1.345 . S
C1509 C1510 1.371 . S
C1509 H1512 0.931 . S
C1510 C1506 1.391 . S
C1510 C1509 1.371 . S
C1510 H1517 0.930 . S
H1511 C1508 0.928 1_554 S
H1512 C1509 0.931 . S
H1513 C1489 0.930 . S
H1514 C1486 0.930 . S
H1515 C1495 0.930 . S
H1516 C1507 0.929 . S
H1517 C1510 0.930 . S
C1518 C1519 1.351 . S
C1518 N1521 1.368 . S
C1518 H1523 0.931 . S
C1519 C1518 1.351 . S
C1519 N1520 1.373 . S
C1519 H1547 0.930 . S
N1520 C1519 1.373 . S
N1520 C1522 1.340 . S
N1521 C1518 1.368 . S
N1521 C1522 1.321 . S
N1521 Co1524 2.135 . S
C1522 N1520 1.340 . S
C1522 N1521 1.321 . S
C1522 H1546 0.930 . S
H1523 C1518 0.931 . S
Co1524 N1521 2.135 . S
Co1524 N1527 2.121 . S
Co1524 O1532 2.055 . S
Co1524 O1535 2.039 . S
Co1524 N1538 2.140 . S
C1525 O1526 1.227 . S
C1525 O1535 1.265 . S
O1526 C1525 1.227 . S
N1527 Co1524 2.121 . S
N1527 C1529 1.375 . S
N1527 C1530 1.313 . S
C1528 C1529 1.338 . S
C1528 N1531 1.377 . S
C1528 H1548 0.930 . S
C1529 N1527 1.375 . S
C1529 C1528 1.338 . S
C1529 H1533 0.931 . S
C1530 N1527 1.313 . S
C1530 N1531 1.344 . S
C1530 H1534 0.930 . S
N1531 C1528 1.377 . S
N1531 C1530 1.344 . S
O1532 Co1524 2.055 . S
O1532 C1536 1.253 . S
H1533 C1529 0.931 . S
H1534 C1530 0.930 . S
O1535 Co1524 2.039 . S
O1535 C1525 1.265 . S
C1536 O1532 1.253 . S
C1536 O1537 1.227 . S
O1537 C1536 1.227 . S
N1538 Co1524 2.140 . S
N1538 C1541 1.346 . S
N1538 C1542 1.345 . S
C1539 C1540 1.387 . S
C1539 C1543 1.391 . S
C1540 C1539 1.387 . S
C1540 C1541 1.369 . S
C1540 H1549 0.929 . S
C1541 N1538 1.346 . S
C1541 C1540 1.369 . S
C1541 H1544 0.928 . S
C1542 N1538 1.345 . S
C1542 C1543 1.371 . S
C1542 H1545 0.931 . S
C1543 C1539 1.391 . S
C1543 C1542 1.371 . S
C1543 H1550 0.930 . S
H1544 C1541 0.928 . S
H1545 C1542 0.931 . S
H1546 C1522 0.930 . S
H1547 C1519 0.930 . S
H1548 C1528 0.930 . S
H1549 C1540 0.929 . S
H1550 C1543 0.930 . S
C1551 C1552 1.351 . S
C1551 N1554 1.368 . S
C1551 H1556 0.931 . S
C1552 C1551 1.351 . S
C1552 N1553 1.373 . S
C1552 H1580 0.930 . S
N1553 C1552 1.373 . S
N1553 C1555 1.340 . S
N1554 C1551 1.368 . S
N1554 C1555 1.321 . S
N1554 Co1557 2.135 . S
C1555 N1553 1.340 . S
C1555 N1554 1.321 . S
C1555 H1579 0.930 . S
H1556 C1551 0.931 . S
Co1557 N1554 2.135 . S
Co1557 N1560 2.121 . S
Co1557 O1565 2.055 . S
Co1557 O1568 2.039 . S
Co1557 N1571 2.140 . S
C1558 O1559 1.227 . S
C1558 O1568 1.265 . S
O1559 C1558 1.227 . S
N1560 Co1557 2.121 . S
N1560 C1562 1.375 . S
N1560 C1563 1.313 . S
C1561 C1562 1.338 . S
C1561 N1564 1.377 . S
C1561 H1581 0.930 . S
C1562 N1560 1.375 . S
C1562 C1561 1.338 . S
C1562 H1566 0.931 . S
C1563 N1560 1.313 . S
C1563 N1564 1.344 . S
C1563 H1567 0.930 . S
N1564 C1561 1.377 . S
N1564 C1563 1.344 . S
O1565 Co1557 2.055 . S
O1565 C1569 1.253 . S
H1566 C1562 0.931 . S
H1567 C1563 0.930 . S
O1568 Co1557 2.039 . S
O1568 C1558 1.265 . S
C1569 O1565 1.253 . S
C1569 O1570 1.227 . S
O1570 C1569 1.227 . S
N1571 Co1557 2.140 . S
N1571 C1574 1.346 . S
N1571 C1575 1.345 . S
C1572 C1573 1.387 . S
C1572 C1576 1.391 . S
C1573 C1572 1.387 . S
C1573 C1574 1.369 . S
C1573 H1582 0.929 . S
C1574 N1571 1.346 . S
C1574 C1573 1.369 . S
C1574 H1577 0.928 . S
C1575 N1571 1.345 . S
C1575 C1576 1.371 . S
C1575 H1578 0.931 . S
C1576 C1572 1.391 . S
C1576 C1575 1.371 . S
C1576 H1583 0.930 . S
H1577 C1574 0.928 . S
H1578 C1575 0.931 . S
H1579 C1555 0.930 . S
H1580 C1552 0.930 . S
H1581 C1561 0.930 . S
H1582 C1573 0.929 . S
H1583 C1576 0.930 . S
C1584 C1585 1.369 . S
C1584 C1586 1.419 . S
C1584 H1588 0.930 . S
C1585 C1584 1.369 . S
C1585 C1594 1.429 . S
C1586 C1584 1.419 . S
C1586 C1587 1.363 . S
C1586 H1589 0.929 . S
C1587 C1586 1.363 . S
C1587 C1593 1.428 . S
H1588 C1584 0.930 . S
H1589 C1586 0.929 . S
S1590 N1591 1.613 . S
S1590 N1592 1.610 . S
N1591 S1590 1.613 . S
N1591 C1594 1.350 . S
N1592 S1590 1.610 . S
N1592 C1593 1.351 . S
C1593 C1587 1.428 . S
C1593 N1592 1.351 . S
C1593 C1594 1.434 . S
C1594 C1585 1.429 . S
C1594 N1591 1.350 . S
C1594 C1593 1.434 . S
C1595 C1596 1.369 . S
C1595 C1597 1.419 . S
C1595 H1599 0.930 . S
C1596 C1595 1.369 . S
C1596 C1605 1.429 . S
C1597 C1595 1.419 . S
C1597 C1598 1.363 . S
C1597 H1600 0.929 . S
C1598 C1597 1.363 . S
C1598 C1604 1.428 . S
H1599 C1595 0.930 . S
H1600 C1597 0.929 . S
S1601 N1602 1.613 . S
S1601 N1603 1.610 . S
N1602 S1601 1.613 . S
N1602 C1605 1.350 . S
N1603 S1601 1.610 . S
N1603 C1604 1.351 . S
C1604 C1598 1.428 . S
C1604 N1603 1.351 . S
C1604 C1605 1.434 . S
C1605 C1596 1.429 . S
C1605 N1602 1.350 . S
C1605 C1604 1.434 . S
C1606 C1607 1.369 . S
C1606 C1608 1.419 . S
C1606 H1610 0.930 1_556 S
C1607 C1606 1.369 . S
C1607 C1616 1.429 . S
C1608 C1606 1.419 . S
C1608 C1609 1.363 . S
C1608 H1611 0.929 . S
C1609 C1608 1.363 . S
C1609 C1615 1.428 . S
H1610 C1606 0.930 1_554 S
H1611 C1608 0.929 . S
S1612 N1613 1.613 . S
S1612 N1614 1.610 1_545 S
N1613 S1612 1.613 . S
N1613 C1616 1.350 1_545 S
N1614 S1612 1.610 1_565 S
N1614 C1615 1.351 . S
C1615 C1609 1.428 . S
C1615 N1614 1.351 . S
C1615 C1616 1.434 . S
C1616 C1607 1.429 . S
C1616 N1613 1.350 1_565 S
C1616 C1615 1.434 . S
C1617 C1618 1.369 . S
C1617 C1619 1.419 . S
C1617 H1621 0.930 . S
C1618 C1617 1.369 . S
C1618 C1627 1.429 . S
C1619 C1617 1.419 . S
C1619 C1620 1.363 . S
C1619 H1622 0.929 . S
C1620 C1619 1.363 . S
C1620 C1626 1.428 . S
H1621 C1617 0.930 . S
H1622 C1619 0.929 . S
S1623 N1624 1.613 . S
S1623 N1625 1.610 . S
N1624 S1623 1.613 . S
N1624 C1627 1.350 . S
N1625 S1623 1.610 . S
N1625 C1626 1.351 . S
C1626 C1620 1.428 . S
C1626 N1625 1.351 . S
C1626 C1627 1.434 . S
C1627 C1618 1.429 . S
C1627 N1624 1.350 . S
C1627 C1626 1.434 . S
C1628 C1629 1.369 . S
C1628 C1630 1.419 . S
C1628 H1632 0.930 . S
C1629 C1628 1.369 . S
C1629 C1638 1.429 . S
C1630 C1628 1.419 . S
C1630 C1631 1.363 . S
C1630 H1633 0.929 . S
C1631 C1630 1.363 . S
C1631 C1637 1.428 . S
H1632 C1628 0.930 . S
H1633 C1630 0.929 . S
S1634 N1635 1.613 . S
S1634 N1636 1.610 1_545 S
N1635 S1634 1.613 . S
N1635 C1638 1.350 1_545 S
N1636 S1634 1.610 1_565 S
N1636 C1637 1.351 . S
C1637 C1631 1.428 . S
C1637 N1636 1.351 . S
C1637 C1638 1.434 . S
C1638 C1629 1.429 . S
C1638 N1635 1.350 1_565 S
C1638 C1637 1.434 . S
C1639 C1640 1.369 . S
C1639 C1641 1.419 . S
C1639 H1643 0.930 . S
C1640 C1639 1.369 . S
C1640 C1649 1.429 . S
C1641 C1639 1.419 . S
C1641 C1642 1.363 . S
C1641 H1644 0.929 . S
C1642 C1641 1.363 . S
C1642 C1648 1.428 . S
H1643 C1639 0.930 . S
H1644 C1641 0.929 . S
S1645 N1646 1.613 . S
S1645 N1647 1.610 . S
N1646 S1645 1.613 . S
N1646 C1649 1.350 . S
N1647 S1645 1.610 . S
N1647 C1648 1.351 . S
C1648 C1642 1.428 . S
C1648 N1647 1.351 . S
C1648 C1649 1.434 . S
C1649 C1640 1.429 . S
C1649 N1646 1.350 . S
C1649 C1648 1.434 . S
C1650 C1651 1.369 . S
C1650 C1652 1.419 . S
C1650 H1654 0.930 . S
C1651 C1650 1.369 . S
C1651 C1660 1.429 . S
C1652 C1650 1.419 . S
C1652 C1653 1.363 . S
C1652 H1655 0.929 . S
C1653 C1652 1.363 . S
C1653 C1659 1.428 . S
H1654 C1650 0.930 . S
H1655 C1652 0.929 . S
S1656 N1657 1.622 . S
S1656 N1658 1.610 . S
N1657 S1656 1.622 . S
N1657 C1660 1.377 . S
N1658 S1656 1.610 . S
N1658 C1659 1.351 . S
C1659 C1653 1.428 . S
C1659 N1658 1.351 . S
C1659 C1660 1.434 . S
C1660 C1651 1.429 . S
C1660 N1657 1.377 . S
C1660 C1659 1.434 . S
C1661 C1662 1.369 . S
C1661 C1663 1.419 . S
C1661 H1665 0.930 . S
C1662 C1661 1.369 . S
C1662 C1671 1.429 . S
C1663 C1661 1.419 . S
C1663 C1664 1.363 . S
C1663 H1666 0.929 . S
C1664 C1663 1.363 . S
C1664 C1670 1.428 . S
H1665 C1661 0.930 . S
H1666 C1663 0.929 . S
S1667 N1668 1.613 . S
S1667 N1669 1.610 . S
N1668 S1667 1.613 . S
N1668 C1671 1.350 . S
N1669 S1667 1.610 . S
N1669 C1670 1.351 . S
C1670 C1664 1.428 . S
C1670 N1669 1.351 . S
C1670 C1671 1.434 . S
C1671 C1662 1.429 . S
C1671 N1668 1.350 . S
C1671 C1670 1.434 . S
C1672 C1673 1.369 . S
C1672 C1674 1.419 . S
C1672 H1676 0.930 . S
C1673 C1672 1.369 . S
C1673 C1682 1.429 . S
C1674 C1672 1.419 . S
C1674 C1675 1.363 . S
C1674 H1677 0.929 1_554 S
C1675 C1674 1.363 . S
C1675 C1681 1.428 . S
H1676 C1672 0.930 . S
H1677 C1674 0.929 1_556 S
S1678 N1679 1.613 . S
S1678 N1680 1.610 . S
N1679 S1678 1.613 . S
N1679 C1682 1.350 . S
N1680 S1678 1.610 . S
N1680 C1681 1.351 . S
C1681 C1675 1.428 . S
C1681 N1680 1.351 . S
C1681 C1682 1.434 . S
C1682 C1673 1.429 . S
C1682 N1679 1.350 . S
C1682 C1681 1.434 . S
C1683 C1684 1.369 . S
C1683 C1685 1.419 . S
C1683 H1687 0.930 . S
C1684 C1683 1.369 . S
C1684 C1693 1.429 . S
C1685 C1683 1.419 . S
C1685 C1686 1.363 . S
C1685 H1688 0.929 . S
C1686 C1685 1.363 . S
C1686 C1692 1.428 . S
H1687 C1683 0.930 . S
H1688 C1685 0.929 . S
S1689 N1690 1.613 . S
S1689 N1691 1.610 . S
N1690 S1689 1.613 . S
N1690 C1693 1.350 . S
N1691 S1689 1.610 . S
N1691 C1692 1.351 . S
C1692 C1686 1.428 . S
C1692 N1691 1.351 . S
C1692 C1693 1.434 . S
C1693 C1684 1.429 . S
C1693 N1690 1.350 . S
C1693 C1692 1.434 . S
C1694 C1695 1.369 . S
C1694 C1696 1.419 . S
C1694 H1698 0.930 . S
C1695 C1694 1.369 . S
C1695 C1704 1.429 . S
C1696 C1694 1.419 . S
C1696 C1697 1.363 . S
C1696 H1699 0.929 . S
C1697 C1696 1.363 . S
C1697 C1703 1.428 . S
H1698 C1694 0.930 . S
H1699 C1696 0.929 . S
S1700 N1701 1.613 . S
S1700 N1702 1.597 1_655 S
N1701 S1700 1.613 . S
N1701 C1704 1.350 1_655 S
N1702 S1700 1.597 1_455 S
N1702 C1703 1.361 . S
C1703 C1697 1.428 . S
C1703 N1702 1.361 . S
C1703 C1704 1.434 . S
C1704 C1695 1.429 . S
C1704 N1701 1.350 1_455 S
C1704 C1703 1.434 . S
C1705 C1706 1.369 . S
C1705 C1707 1.419 . S
C1705 H1709 0.930 . S
C1706 C1705 1.369 . S
C1706 C1715 1.429 . S
C1707 C1705 1.419 . S
C1707 C1708 1.363 . S
C1707 H1710 0.929 . S
C1708 C1707 1.363 . S
C1708 C1714 1.428 . S
H1709 C1705 0.930 . S
H1710 C1707 0.929 . S
S1711 N1712 1.613 . S
S1711 N1713 1.610 . S
N1712 S1711 1.613 . S
N1712 C1715 1.350 . S
N1713 S1711 1.610 . S
N1713 C1714 1.351 . S
C1714 C1708 1.428 . S
C1714 N1713 1.351 . S
C1714 C1715 1.434 . S
C1715 C1706 1.429 . S
C1715 N1712 1.350 . S
C1715 C1714 1.434 . S
C1716 C1717 1.369 . S
C1716 C1718 1.419 . S
C1716 H1720 0.930 . S
C1717 C1716 1.369 . S
C1717 C1726 1.429 . S
C1718 C1716 1.419 . S
C1718 C1719 1.363 . S
C1718 H1721 0.929 . S
C1719 C1718 1.363 . S
C1719 C1725 1.428 . S
H1720 C1716 0.930 . S
H1721 C1718 0.929 . S
S1722 N1723 1.613 . S
S1722 N1724 1.610 . S
N1723 S1722 1.613 . S
N1723 C1726 1.350 . S
N1724 S1722 1.610 . S
N1724 C1725 1.351 . S
C1725 C1719 1.428 . S
C1725 N1724 1.351 . S
C1725 C1726 1.434 . S
C1726 C1717 1.429 . S
C1726 N1723 1.350 . S
C1726 C1725 1.434 . S
C1727 C1728 1.369 . S
C1727 C1729 1.419 . S
C1727 H1731 0.930 . S
C1728 C1727 1.369 . S
C1728 C1737 1.429 . S
C1729 C1727 1.419 . S
C1729 C1730 1.363 . S
C1729 H1732 0.929 . S
C1730 C1729 1.363 . S
C1730 C1736 1.428 . S
H1731 C1727 0.930 . S
H1732 C1729 0.929 . S
S1733 N1734 1.613 . S
S1733 N1735 1.610 . S
N1734 S1733 1.613 . S
N1734 C1737 1.350 . S
N1735 S1733 1.610 . S
N1735 C1736 1.351 . S
C1736 C1730 1.428 . S
C1736 N1735 1.351 . S
C1736 C1737 1.434 . S
C1737 C1728 1.429 . S
C1737 N1734 1.350 . S
C1737 C1736 1.434 . S
C1738 C1739 1.369 . S
C1738 C1740 1.419 . S
C1738 H1742 0.930 . S
C1739 C1738 1.369 . S
C1739 C1748 1.429 . S
C1740 C1738 1.419 . S
C1740 C1741 1.363 . S
C1740 H1743 0.929 1_556 S
C1741 C1740 1.363 . S
C1741 C1747 1.428 . S
H1742 C1738 0.930 . S
H1743 C1740 0.929 1_554 S
S1744 N1745 1.613 1_655 S
S1744 N1746 1.610 . S
N1745 S1744 1.613 1_455 S
N1745 C1748 1.350 . S
N1746 S1744 1.610 . S
N1746 C1747 1.351 1_655 S
C1747 C1741 1.428 . S
C1747 N1746 1.351 1_455 S
C1747 C1748 1.434 . S
C1748 C1739 1.429 . S
C1748 N1745 1.350 . S
C1748 C1747 1.434 . S
C1749 C1750 1.369 . S
C1749 C1751 1.419 . S
C1749 H1753 0.930 . S
C1750 C1749 1.369 . S
C1750 C1759 1.429 . S
C1751 C1749 1.419 . S
C1751 C1752 1.363 . S
C1751 H1754 0.929 . S
C1752 C1751 1.363 . S
C1752 C1758 1.428 . S
H1753 C1749 0.930 . S
H1754 C1751 0.929 . S
S1755 N1756 1.613 . S
S1755 N1757 1.610 . S
N1756 S1755 1.613 . S
N1756 C1759 1.350 . S
N1757 S1755 1.610 . S
N1757 C1758 1.351 . S
C1758 C1752 1.428 . S
C1758 N1757 1.351 . S
C1758 C1759 1.434 . S
C1759 C1750 1.429 . S
C1759 N1756 1.350 . S
C1759 C1758 1.434 . S
C1760 C1761 1.369 . S
C1760 C1762 1.419 . S
C1760 H1764 0.930 . S
C1761 C1760 1.369 . S
C1761 C1770 1.429 . S
C1762 C1760 1.419 . S
C1762 C1763 1.363 . S
C1762 H1765 0.929 . S
C1763 C1762 1.363 . S
C1763 C1769 1.428 . S
H1764 C1760 0.930 . S
H1765 C1762 0.929 . S
S1766 N1767 1.613 1_655 S
S1766 N1768 1.610 . S
N1767 S1766 1.613 1_455 S
N1767 C1770 1.350 . S
N1768 S1766 1.610 . S
N1768 C1769 1.351 1_655 S
C1769 C1763 1.428 . S
C1769 N1768 1.351 1_455 S
C1769 C1770 1.434 . S
C1770 C1761 1.429 . S
C1770 N1767 1.350 . S
C1770 C1769 1.434 . S
C1771 C1772 1.369 . S
C1771 C1773 1.419 . S
C1771 H1775 0.930 . S
C1772 C1771 1.369 . S
C1772 C1781 1.429 . S
C1773 C1771 1.419 . S
C1773 C1774 1.363 . S
C1773 H1776 0.929 . S
C1774 C1773 1.363 . S
C1774 C1780 1.428 . S
H1775 C1771 0.930 . S
H1776 C1773 0.929 . S
S1777 N1778 1.613 . S
S1777 N1779 1.610 . S
N1778 S1777 1.613 . S
N1778 C1781 1.350 . S
N1779 S1777 1.610 . S
N1779 C1780 1.351 . S
C1780 C1774 1.428 . S
C1780 N1779 1.351 . S
C1780 C1781 1.434 . S
C1781 C1772 1.429 . S
C1781 N1778 1.350 . S
C1781 C1780 1.434 . S
C1782 C1783 1.369 . S
C1782 C1784 1.419 . S
C1782 H1786 0.930 . S
C1783 C1782 1.369 . S
C1783 C1792 1.429 . S
C1784 C1782 1.419 . S
C1784 C1785 1.363 . S
C1784 H1787 0.929 . S
C1785 C1784 1.363 . S
C1785 C1791 1.428 . S
H1786 C1782 0.930 . S
H1787 C1784 0.929 . S
S1788 N1789 1.613 . S
S1788 N1790 1.610 . S
N1789 S1788 1.613 . S
N1789 C1792 1.350 . S
N1790 S1788 1.610 . S
N1790 C1791 1.351 . S
C1791 C1785 1.428 . S
C1791 N1790 1.351 . S
C1791 C1792 1.434 . S
C1792 C1783 1.429 . S
C1792 N1789 1.350 . S
C1792 C1791 1.434 . S
C1793 C1794 1.369 . S
C1793 C1795 1.419 . S
C1793 H1797 0.930 . S
C1794 C1793 1.369 . S
C1794 C1803 1.429 1_565 S
C1795 C1793 1.419 . S
C1795 C1796 1.363 . S
C1795 H1798 0.929 . S
C1796 C1795 1.363 . S
C1796 C1802 1.428 . S
H1797 C1793 0.930 . S
H1798 C1795 0.929 . S
S1799 N1800 1.613 . S
S1799 N1801 1.610 . S
N1800 S1799 1.613 . S
N1800 C1803 1.350 . S
N1801 S1799 1.610 . S
N1801 C1802 1.351 1_545 S
C1802 C1796 1.428 . S
C1802 N1801 1.351 1_565 S
C1802 C1803 1.434 1_565 S
C1803 C1794 1.429 1_545 S
C1803 N1800 1.350 . S
C1803 C1802 1.434 1_545 S
C1804 C1805 1.369 . S
C1804 C1806 1.419 . S
C1804 H1808 0.930 . S
C1805 C1804 1.369 . S
C1805 C1814 1.429 . S
C1806 C1804 1.419 . S
C1806 C1807 1.363 . S
C1806 H1809 0.929 . S
C1807 C1806 1.363 . S
C1807 C1813 1.428 . S
H1808 C1804 0.930 . S
H1809 C1806 0.929 . S
S1810 N1811 1.613 . S
S1810 N1812 1.610 . S
N1811 S1810 1.613 . S
N1811 C1814 1.350 . S
N1812 S1810 1.610 . S
N1812 C1813 1.351 . S
C1813 C1807 1.428 . S
C1813 N1812 1.351 . S
C1813 C1814 1.434 . S
C1814 C1805 1.429 . S
C1814 N1811 1.350 . S
C1814 C1813 1.434 . S
C1815 C1816 1.369 . S
C1815 C1817 1.419 . S
C1815 H1819 0.930 . S
C1816 C1815 1.369 . S
C1816 C1825 1.429 . S
C1817 C1815 1.419 . S
C1817 C1818 1.363 . S
C1817 H1820 0.929 . S
C1818 C1817 1.363 . S
C1818 C1824 1.428 . S
H1819 C1815 0.930 . S
H1820 C1817 0.929 . S
S1821 N1822 1.613 . S
S1821 N1823 1.610 . S
N1822 S1821 1.613 . S
N1822 C1825 1.350 . S
N1823 S1821 1.610 . S
N1823 C1824 1.351 . S
C1824 C1818 1.428 . S
C1824 N1823 1.351 . S
C1824 C1825 1.434 . S
C1825 C1816 1.429 . S
C1825 N1822 1.350 . S
C1825 C1824 1.434 . S
C1826 C1827 1.369 . S
C1826 C1828 1.419 . S
C1826 H1830 0.930 . S
C1827 C1826 1.369 . S
C1827 C1836 1.429 . S
C1828 C1826 1.419 . S
C1828 C1829 1.363 . S
C1828 H1831 0.929 . S
C1829 C1828 1.363 . S
C1829 C1835 1.428 . S
H1830 C1826 0.930 . S
H1831 C1828 0.929 . S
S1832 N1833 1.613 . S
S1832 N1834 1.610 . S
N1833 S1832 1.613 . S
N1833 C1836 1.350 . S
N1834 S1832 1.610 . S
N1834 C1835 1.351 . S
C1835 C1829 1.428 . S
C1835 N1834 1.351 . S
C1835 C1836 1.434 . S
C1836 C1827 1.429 . S
C1836 N1833 1.350 . S
C1836 C1835 1.434 . S
C1837 C1838 1.369 . S
C1837 C1839 1.419 . S
C1837 H1841 0.930 . S
C1838 C1837 1.369 . S
C1838 C1847 1.429 . S
C1839 C1837 1.419 . S
C1839 C1840 1.363 . S
C1839 H1842 0.929 . S
C1840 C1839 1.363 . S
C1840 C1846 1.428 . S
H1841 C1837 0.930 . S
H1842 C1839 0.929 . S
S1843 N1844 1.613 . S
S1843 N1845 1.610 . S
N1844 S1843 1.613 . S
N1844 C1847 1.350 . S
N1845 S1843 1.610 . S
N1845 C1846 1.351 . S
C1846 C1840 1.428 . S
C1846 N1845 1.351 . S
C1846 C1847 1.434 . S
C1847 C1838 1.429 . S
C1847 N1844 1.350 . S
C1847 C1846 1.434 . S
C1848 C1849 1.369 . S
C1848 C1850 1.419 . S
C1848 H1852 0.930 . S
C1849 C1848 1.369 . S
C1849 C1858 1.429 . S
C1850 C1848 1.419 . S
C1850 C1851 1.363 . S
C1850 H1853 0.929 1_556 S
C1851 C1850 1.363 . S
C1851 C1857 1.428 . S
H1852 C1848 0.930 . S
H1853 C1850 0.929 1_554 S
S1854 N1855 1.613 . S
S1854 N1856 1.610 . S
N1855 S1854 1.613 . S
N1855 C1858 1.350 . S
N1856 S1854 1.610 . S
N1856 C1857 1.351 . S
C1857 C1851 1.428 . S
C1857 N1856 1.351 . S
C1857 C1858 1.434 . S
C1858 C1849 1.429 . S
C1858 N1855 1.350 . S
C1858 C1857 1.434 . S
C1859 C1860 1.369 . S
C1859 C1861 1.419 . S
C1859 H1863 0.930 . S
C1860 C1859 1.369 . S
C1860 C1869 1.429 . S
C1861 C1859 1.419 . S
C1861 C1862 1.363 . S
C1861 H1864 0.929 . S
C1862 C1861 1.363 . S
C1862 C1868 1.428 . S
H1863 C1859 0.930 . S
H1864 C1861 0.929 . S
S1865 N1866 1.613 . S
S1865 N1867 1.610 . S
N1866 S1865 1.613 . S
N1866 C1869 1.350 . S
N1867 S1865 1.610 . S
N1867 C1868 1.351 . S
C1868 C1862 1.428 . S
C1868 N1867 1.351 . S
C1868 C1869 1.434 . S
C1869 C1860 1.429 . S
C1869 N1866 1.350 . S
C1869 C1868 1.434 . S
C1870 C1871 1.369 . S
C1870 C1872 1.419 . S
C1870 H1874 0.930 . S
C1871 C1870 1.369 . S
C1871 C1880 1.429 . S
C1872 C1870 1.419 . S
C1872 C1873 1.363 . S
C1872 H1875 0.929 . S
C1873 C1872 1.363 . S
C1873 C1879 1.428 . S
H1874 C1870 0.930 . S
H1875 C1872 0.929 . S
S1876 N1877 1.613 . S
S1876 N1878 1.610 . S
N1877 S1876 1.613 . S
N1877 C1880 1.350 . S
N1878 S1876 1.610 . S
N1878 C1879 1.351 . S
C1879 C1873 1.428 . S
C1879 N1878 1.351 . S
C1879 C1880 1.434 . S
C1880 C1871 1.429 . S
C1880 N1877 1.350 . S
C1880 C1879 1.434 . S
C1881 C1882 1.369 . S
C1881 C1883 1.419 . S
C1881 H1885 0.930 . S
C1882 C1881 1.369 . S
C1882 C1891 1.429 . S
C1883 C1881 1.419 . S
C1883 C1884 1.363 . S
C1883 H1886 0.929 . S
C1884 C1883 1.363 . S
C1884 C1890 1.428 . S
H1885 C1881 0.930 . S
H1886 C1883 0.929 . S
S1887 N1888 1.613 . S
S1887 N1889 1.610 . S
N1888 S1887 1.613 . S
N1888 C1891 1.350 . S
N1889 S1887 1.610 . S
N1889 C1890 1.351 . S
C1890 C1884 1.428 . S
C1890 N1889 1.351 . S
C1890 C1891 1.434 . S
C1891 C1882 1.429 . S
C1891 N1888 1.350 . S
C1891 C1890 1.434 . S
C1892 C1893 1.369 . S
C1892 C1894 1.419 . S
C1892 H1896 0.930 . S
C1893 C1892 1.369 . S
C1893 C1902 1.429 . S
C1894 C1892 1.419 . S
C1894 C1895 1.363 . S
C1894 H1897 0.929 . S
C1895 C1894 1.363 . S
C1895 C1901 1.428 . S
H1896 C1892 0.930 . S
H1897 C1894 0.929 . S
S1898 N1899 1.613 . S
S1898 N1900 1.610 . S
N1899 S1898 1.613 . S
N1899 C1902 1.350 . S
N1900 S1898 1.610 . S
N1900 C1901 1.351 . S
C1901 C1895 1.428 . S
C1901 N1900 1.351 . S
C1901 C1902 1.434 . S
C1902 C1893 1.429 . S
C1902 N1899 1.350 . S
C1902 C1901 1.434 . S
C1903 C1904 1.369 . S
C1903 C1905 1.419 . S
C1903 H1907 0.930 . S
C1904 C1903 1.369 . S
C1904 C1913 1.429 . S
C1905 C1903 1.419 . S
C1905 C1906 1.363 . S
C1905 H1908 0.929 . S
C1906 C1905 1.363 . S
C1906 C1912 1.428 . S
H1907 C1903 0.930 . S
H1908 C1905 0.929 . S
S1909 N1910 1.613 . S
S1909 N1911 1.610 . S
N1910 S1909 1.613 . S
N1910 C1913 1.350 . S
N1911 S1909 1.610 . S
N1911 C1912 1.351 . S
C1912 C1906 1.428 . S
C1912 N1911 1.351 . S
C1912 C1913 1.434 . S
C1913 C1904 1.429 . S
C1913 N1910 1.350 . S
C1913 C1912 1.434 . S
C1914 C1915 1.369 . S
C1914 C1916 1.419 . S
C1914 H1918 0.930 . S
C1915 C1914 1.369 . S
C1915 C1924 1.429 . S
C1916 C1914 1.419 . S
C1916 C1917 1.363 . S
C1916 H1919 0.929 . S
C1917 C1916 1.363 . S
C1917 C1923 1.428 . S
H1918 C1914 0.930 . S
H1919 C1916 0.929 . S
S1920 N1921 1.613 . S
S1920 N1922 1.610 . S
N1921 S1920 1.613 . S
N1921 C1924 1.350 . S
N1922 S1920 1.610 . S
N1922 C1923 1.351 . S
C1923 C1917 1.428 . S
C1923 N1922 1.351 . S
C1923 C1924 1.434 . S
C1924 C1915 1.429 . S
C1924 N1921 1.350 . S
C1924 C1923 1.434 . S
C1925 C1926 1.369 . S
C1925 C1927 1.419 . S
C1925 H1929 0.930 . S
C1926 C1925 1.369 . S
C1926 C1935 1.429 . S
C1927 C1925 1.419 . S
C1927 C1928 1.363 . S
C1927 H1930 0.929 . S
C1928 C1927 1.363 . S
C1928 C1934 1.428 . S
H1929 C1925 0.930 . S
H1930 C1927 0.929 . S
S1931 N1932 1.613 . S
S1931 N1933 1.610 . S
N1932 S1931 1.613 . S
N1932 C1935 1.350 . S
N1933 S1931 1.610 . S
N1933 C1934 1.351 . S
C1934 C1928 1.428 . S
C1934 N1933 1.351 . S
C1934 C1935 1.434 . S
C1935 C1926 1.429 . S
C1935 N1932 1.350 . S
C1935 C1934 1.434 . S
C1936 C1937 1.369 . S
C1936 C1938 1.419 . S
C1936 H1940 0.930 . S
C1937 C1936 1.369 . S
C1937 C1946 1.429 . S
C1938 C1936 1.419 . S
C1938 C1939 1.363 . S
C1938 H1941 0.929 . S
C1939 C1938 1.363 . S
C1939 C1945 1.428 . S
H1940 C1936 0.930 . S
H1941 C1938 0.929 . S
S1942 N1943 1.613 1_455 S
S1942 N1944 1.610 . S
N1943 S1942 1.613 1_655 S
N1943 C1946 1.350 . S
N1944 S1942 1.610 . S
N1944 C1945 1.351 1_455 S
C1945 C1939 1.428 . S
C1945 N1944 1.351 1_655 S
C1945 C1946 1.434 . S
C1946 C1937 1.429 . S
C1946 N1943 1.350 . S
C1946 C1945 1.434 . S
C1947 C1948 1.369 . S
C1947 C1949 1.419 . S
C1947 H1951 0.930 . S
C1948 C1947 1.369 . S
C1948 C1957 1.429 . S
C1949 C1947 1.419 . S
C1949 C1950 1.363 . S
C1949 H1952 0.929 . S
C1950 C1949 1.363 . S
C1950 C1956 1.428 . S
H1951 C1947 0.930 . S
H1952 C1949 0.929 . S
S1953 N1954 1.613 . S
S1953 N1955 1.610 . S
N1954 S1953 1.613 . S
N1954 C1957 1.350 . S
N1955 S1953 1.610 . S
N1955 C1956 1.351 . S
C1956 C1950 1.428 . S
C1956 N1955 1.351 . S
C1956 C1957 1.434 . S
C1957 C1948 1.429 . S
C1957 N1954 1.350 . S
C1957 C1956 1.434 . S
C1958 C1959 1.369 . S
C1958 C1960 1.419 . S
C1958 H1962 0.930 . S
C1959 C1958 1.369 . S
C1959 C1968 1.429 . S
C1960 C1958 1.419 . S
C1960 C1961 1.363 . S
C1960 H1963 0.900 1_554 S
C1961 C1960 1.363 . S
C1961 C1967 1.428 . S
H1962 C1958 0.930 . S
H1963 C1960 0.900 1_556 S
S1964 N1965 1.613 . S
S1964 N1966 1.610 . S
N1965 S1964 1.613 . S
N1965 C1968 1.350 . S
N1966 S1964 1.610 . S
N1966 C1967 1.351 . S
C1967 C1961 1.428 . S
C1967 N1966 1.351 . S
C1967 C1968 1.434 . S
C1968 C1959 1.429 . S
C1968 N1965 1.350 . S
C1968 C1967 1.434 . S
C1969 C1970 1.369 . S
C1969 C1971 1.419 . S
C1969 H1973 0.930 . S
C1970 C1969 1.369 . S
C1970 C1979 1.429 . S
C1971 C1969 1.419 . S
C1971 C1972 1.363 . S
C1971 H1974 0.929 . S
C1972 C1971 1.363 . S
C1972 C1978 1.428 . S
H1973 C1969 0.930 . S
H1974 C1971 0.929 . S
S1975 N1976 1.613 . S
S1975 N1977 1.610 . S
N1976 S1975 1.613 . S
N1976 C1979 1.350 . S
N1977 S1975 1.610 . S
N1977 C1978 1.351 . S
C1978 C1972 1.428 . S
C1978 N1977 1.351 . S
C1978 C1979 1.434 . S
C1979 C1970 1.429 . S
C1979 N1976 1.350 . S
C1979 C1978 1.434 . S
C1980 C1981 1.369 . S
C1980 C1982 1.419 . S
C1980 H1984 0.930 . S
C1981 C1980 1.369 . S
C1981 C1990 1.429 . S
C1982 C1980 1.419 . S
C1982 C1983 1.363 . S
C1982 H1985 0.929 1_556 S
C1983 C1982 1.363 . S
C1983 C1989 1.428 . S
H1984 C1980 0.930 . S
H1985 C1982 0.929 1_554 S
S1986 N1987 1.613 . S
S1986 N1988 1.610 . S
N1987 S1986 1.613 . S
N1987 C1990 1.350 . S
N1988 S1986 1.610 . S
N1988 C1989 1.351 . S
C1989 C1983 1.428 . S
C1989 N1988 1.351 . S
C1989 C1990 1.434 . S
C1990 C1981 1.429 . S
C1990 N1987 1.350 . S
C1990 C1989 1.434 . S
C1991 C1992 1.369 . S
C1991 C1993 1.419 . S
C1991 H1995 0.930 . S
C1992 C1991 1.369 . S
C1992 C2001 1.429 . S
C1993 C1991 1.419 . S
C1993 C1994 1.363 . S
C1993 H1996 0.929 . S
C1994 C1993 1.363 . S
C1994 C2000 1.428 . S
H1995 C1991 0.930 . S
H1996 C1993 0.929 . S
S1997 N1998 1.613 . S
S1997 N1999 1.610 . S
N1998 S1997 1.613 . S
N1998 C2001 1.350 . S
N1999 S1997 1.610 . S
N1999 C2000 1.351 . S
C2000 C1994 1.428 . S
C2000 N1999 1.351 . S
C2000 C2001 1.434 . S
C2001 C1992 1.429 . S
C2001 N1998 1.350 . S
C2001 C2000 1.434 . S
C2002 C2003 1.369 . S
C2002 C2004 1.419 . S
C2002 H2006 0.930 . S
C2003 C2002 1.369 . S
C2003 C2012 1.429 . S
C2004 C2002 1.419 . S
C2004 C2005 1.363 . S
C2004 H2007 0.929 . S
C2005 C2004 1.363 . S
C2005 C2011 1.428 . S
H2006 C2002 0.930 . S
H2007 C2004 0.929 . S
S2008 N2009 1.613 . S
S2008 N2010 1.610 . S
N2009 S2008 1.613 . S
N2009 C2012 1.350 . S
N2010 S2008 1.610 . S
N2010 C2011 1.351 . S
C2011 C2005 1.428 . S
C2011 N2010 1.351 . S
C2011 C2012 1.434 . S
C2012 C2003 1.429 . S
C2012 N2009 1.350 . S
C2012 C2011 1.434 . S
C2013 C2014 1.369 . S
C2013 C2015 1.419 . S
C2013 H2017 0.930 . S
C2014 C2013 1.369 . S
C2014 C2023 1.429 . S
C2015 C2013 1.419 . S
C2015 C2016 1.363 . S
C2015 H2018 0.929 . S
C2016 C2015 1.363 . S
C2016 C2022 1.428 . S
H2017 C2013 0.930 . S
H2018 C2015 0.929 . S
S2019 N2020 1.613 . S
S2019 N2021 1.610 . S
N2020 S2019 1.613 . S
N2020 C2023 1.350 . S
N2021 S2019 1.610 . S
N2021 C2022 1.351 . S
C2022 C2016 1.428 . S
C2022 N2021 1.351 . S
C2022 C2023 1.434 . S
C2023 C2014 1.429 . S
C2023 N2020 1.350 . S
C2023 C2022 1.434 . S
C2024 C2025 1.369 . S
C2024 C2026 1.419 . S
C2024 H2028 0.950 . S
C2025 C2024 1.369 . S
C2025 C2034 1.429 . S
C2026 C2024 1.419 . S
C2026 C2027 1.363 . S
C2026 H2029 0.929 1_565 S
C2027 C2026 1.363 . S
C2027 C2033 1.428 . S
H2028 C2024 0.950 . S
H2029 C2026 0.929 1_545 S
S2030 N2031 1.613 . S
S2030 N2032 1.610 . S
N2031 S2030 1.613 . S
N2031 C2034 1.350 . S
N2032 S2030 1.610 . S
N2032 C2033 1.351 . S
C2033 C2027 1.428 . S
C2033 N2032 1.351 . S
C2033 C2034 1.434 . S
C2034 C2025 1.429 . S
C2034 N2031 1.350 . S
C2034 C2033 1.434 . S
C2035 C2036 1.369 . S
C2035 C2037 1.419 . S
C2035 H2039 0.930 1_455 S
C2036 C2035 1.369 . S
C2036 C2045 1.429 . S
C2037 C2035 1.419 . S
C2037 C2038 1.363 . S
C2037 H2040 0.929 . S
C2038 C2037 1.363 . S
C2038 C2044 1.428 . S
H2039 C2035 0.930 1_655 S
H2040 C2037 0.929 . S
S2041 N2042 1.613 . S
S2041 N2043 1.610 . S
N2042 S2041 1.613 . S
N2042 C2045 1.350 . S
N2043 S2041 1.610 . S
N2043 C2044 1.351 . S
C2044 C2038 1.428 . S
C2044 N2043 1.351 . S
C2044 C2045 1.434 . S
C2045 C2036 1.429 . S
C2045 N2042 1.350 . S
C2045 C2044 1.434 . S
C2046 C2047 1.369 . S
C2046 C2048 1.419 . S
C2046 H2050 0.930 . S
C2047 C2046 1.369 . S
C2047 C2056 1.429 . S
C2048 C2046 1.419 . S
C2048 C2049 1.363 . S
C2048 H2051 0.929 . S
C2049 C2048 1.363 . S
C2049 C2055 1.428 . S
H2050 C2046 0.930 . S
H2051 C2048 0.929 . S
S2052 N2053 1.613 . S
S2052 N2054 1.610 . S
N2053 S2052 1.613 . S
N2053 C2056 1.350 . S
N2054 S2052 1.610 . S
N2054 C2055 1.351 . S
C2055 C2049 1.428 . S
C2055 N2054 1.351 . S
C2055 C2056 1.434 . S
C2056 C2047 1.429 . S
C2056 N2053 1.350 . S
C2056 C2055 1.434 . S
C2057 C2058 1.369 . S
C2057 C2059 1.419 . S
C2057 H2061 0.930 . S
C2058 C2057 1.369 . S
C2058 C2067 1.429 . S
C2059 C2057 1.419 . S
C2059 C2060 1.363 . S
C2059 H2062 0.929 . S
C2060 C2059 1.363 . S
C2060 C2066 1.428 . S
H2061 C2057 0.930 . S
H2062 C2059 0.929 . S
S2063 N2064 1.613 . S
S2063 N2065 1.610 . S
N2064 S2063 1.613 . S
N2064 C2067 1.350 . S
N2065 S2063 1.610 . S
N2065 C2066 1.351 . S
C2066 C2060 1.428 . S
C2066 N2065 1.351 . S
C2066 C2067 1.434 . S
C2067 C2058 1.429 . S
C2067 N2064 1.350 . S
C2067 C2066 1.434 . S
C2068 C2069 1.369 . S
C2068 C2070 1.419 . S
C2068 H2072 0.930 . S
C2069 C2068 1.369 . S
C2069 C2078 1.429 . S
C2070 C2068 1.419 . S
C2070 C2071 1.363 . S
C2070 H2073 0.929 . S
C2071 C2070 1.363 . S
C2071 C2077 1.428 . S
H2072 C2068 0.930 . S
H2073 C2070 0.929 . S
S2074 N2075 1.613 . S
S2074 N2076 1.610 . S
N2075 S2074 1.613 . S
N2075 C2078 1.350 . S
N2076 S2074 1.610 . S
N2076 C2077 1.351 . S
C2077 C2071 1.428 . S
C2077 N2076 1.351 . S
C2077 C2078 1.434 . S
C2078 C2069 1.429 . S
C2078 N2075 1.350 . S
C2078 C2077 1.434 . S
C2079 C2080 1.369 . S
C2079 C2081 1.419 . S
C2079 H2083 0.930 . S
C2080 C2079 1.369 . S
C2080 C2089 1.429 . S
C2081 C2079 1.419 . S
C2081 C2082 1.363 . S
C2081 H2084 0.929 . S
C2082 C2081 1.363 . S
C2082 C2088 1.428 . S
H2083 C2079 0.930 . S
H2084 C2081 0.929 . S
S2085 N2086 1.613 . S
S2085 N2087 1.610 . S
N2086 S2085 1.613 . S
N2086 C2089 1.350 1_565 S
N2087 S2085 1.610 . S
N2087 C2088 1.351 1_565 S
C2088 C2082 1.428 . S
C2088 N2087 1.351 1_545 S
C2088 C2089 1.434 . S
C2089 C2080 1.429 . S
C2089 N2086 1.350 1_545 S
C2089 C2088 1.434 . S
C2090 C2091 1.369 . S
C2090 C2092 1.419 . S
C2090 H2094 0.930 . S
C2091 C2090 1.369 . S
C2091 C2100 1.429 . S
C2092 C2090 1.419 . S
C2092 C2093 1.363 . S
C2092 H2095 0.929 . S
C2093 C2092 1.363 . S
C2093 C2099 1.428 . S
H2094 C2090 0.930 . S
H2095 C2092 0.929 . S
S2096 N2097 1.613 . S
S2096 N2098 1.610 . S
N2097 S2096 1.613 . S
N2097 C2100 1.350 . S
N2098 S2096 1.610 . S
N2098 C2099 1.351 . S
C2099 C2093 1.428 . S
C2099 N2098 1.351 . S
C2099 C2100 1.434 . S
C2100 C2091 1.429 . S
C2100 N2097 1.350 . S
C2100 C2099 1.434 . S
C2101 C2102 1.369 . S
C2101 C2103 1.419 . S
C2101 H2105 0.930 . S
C2102 C2101 1.369 . S
C2102 C2111 1.429 . S
C2103 C2101 1.419 . S
C2103 C2104 1.363 . S
C2103 H2106 0.929 . S
C2104 C2103 1.363 . S
C2104 C2110 1.428 . S
H2105 C2101 0.930 . S
H2106 C2103 0.929 . S
S2107 N2108 1.613 . S
S2107 N2109 1.610 . S
N2108 S2107 1.613 . S
N2108 C2111 1.350 . S
N2109 S2107 1.610 . S
N2109 C2110 1.351 . S
C2110 C2104 1.428 . S
C2110 N2109 1.351 . S
C2110 C2111 1.434 . S
C2111 C2102 1.429 . S
C2111 N2108 1.350 . S
C2111 C2110 1.434 . S
C2112 C2113 1.369 . S
C2112 C2114 1.419 . S
C2112 H2116 0.930 . S
C2113 C2112 1.369 . S
C2113 C2122 1.429 . S
C2114 C2112 1.419 . S
C2114 C2115 1.363 . S
C2114 H2117 0.929 . S
C2115 C2114 1.363 . S
C2115 C2121 1.428 . S
H2116 C2112 0.930 . S
H2117 C2114 0.929 . S
S2118 N2119 1.613 . S
S2118 N2120 1.610 . S
N2119 S2118 1.613 . S
N2119 C2122 1.350 . S
N2120 S2118 1.610 . S
N2120 C2121 1.351 . S
C2121 C2115 1.428 . S
C2121 N2120 1.351 . S
C2121 C2122 1.434 . S
C2122 C2113 1.429 . S
C2122 N2119 1.350 . S
C2122 C2121 1.434 . S
C2123 C2124 1.369 . S
C2123 C2125 1.419 . S
C2123 H2127 0.930 . S
C2124 C2123 1.369 . S
C2124 C2133 1.429 . S
C2125 C2123 1.419 . S
C2125 C2126 1.363 . S
C2125 H2128 0.929 . S
C2126 C2125 1.363 . S
C2126 C2132 1.428 . S
H2127 C2123 0.930 . S
H2128 C2125 0.929 . S
S2129 N2130 1.613 . S
S2129 N2131 1.610 . S
N2130 S2129 1.613 . S
N2130 C2133 1.350 . S
N2131 S2129 1.610 . S
N2131 C2132 1.351 . S
C2132 C2126 1.428 . S
C2132 N2131 1.351 . S
C2132 C2133 1.434 . S
C2133 C2124 1.429 . S
C2133 N2130 1.350 . S
C2133 C2132 1.434 . S
C2134 C2135 1.369 . S
C2134 C2136 1.419 . S
C2134 H2138 0.930 . S
C2135 C2134 1.369 . S
C2135 C2144 1.429 . S
C2136 C2134 1.419 . S
C2136 C2137 1.363 . S
C2136 H2139 0.929 . S
C2137 C2136 1.363 . S
C2137 C2143 1.428 . S
H2138 C2134 0.930 . S
H2139 C2136 0.929 . S
S2140 N2141 1.613 . S
S2140 N2142 1.610 . S
N2141 S2140 1.613 . S
N2141 C2144 1.350 . S
N2142 S2140 1.610 . S
N2142 C2143 1.351 . S
C2143 C2137 1.428 . S
C2143 N2142 1.351 . S
C2143 C2144 1.434 . S
C2144 C2135 1.429 . S
C2144 N2141 1.350 . S
C2144 C2143 1.434 . S
C2145 C2146 1.369 . S
C2145 C2147 1.419 . S
C2145 H2149 0.930 . S
C2146 C2145 1.369 . S
C2146 C2155 1.429 . S
C2147 C2145 1.419 . S
C2147 C2148 1.363 . S
C2147 H2150 0.929 . S
C2148 C2147 1.363 . S
C2148 C2154 1.428 . S
H2149 C2145 0.930 . S
H2150 C2147 0.929 . S
S2151 N2152 1.613 . S
S2151 N2153 1.610 . S
N2152 S2151 1.613 . S
N2152 C2155 1.350 . S
N2153 S2151 1.610 . S
N2153 C2154 1.351 . S
C2154 C2148 1.428 . S
C2154 N2153 1.351 . S
C2154 C2155 1.434 . S
C2155 C2146 1.429 . S
C2155 N2152 1.350 . S
C2155 C2154 1.434 . S
C2156 C2157 1.369 . S
C2156 C2158 1.419 . S
C2156 H2160 0.930 . S
C2157 C2156 1.369 . S
C2157 C2166 1.429 . S
C2158 C2156 1.419 . S
C2158 C2159 1.363 . S
C2158 H2161 0.929 . S
C2159 C2158 1.363 . S
C2159 C2165 1.428 . S
H2160 C2156 0.930 . S
H2161 C2158 0.929 . S
S2162 N2163 1.613 . S
S2162 N2164 1.610 . S
N2163 S2162 1.613 . S
N2163 C2166 1.350 . S
N2164 S2162 1.610 . S
N2164 C2165 1.351 . S
C2165 C2159 1.428 . S
C2165 N2164 1.351 . S
C2165 C2166 1.434 . S
C2166 C2157 1.429 . S
C2166 N2163 1.350 . S
C2166 C2165 1.434 . S
C2167 C2168 1.369 . S
C2167 C2169 1.419 . S
C2167 H2171 0.930 . S
C2168 C2167 1.369 . S
C2168 C2177 1.429 . S
C2169 C2167 1.419 . S
C2169 C2170 1.363 . S
C2169 H2172 0.929 . S
C2170 C2169 1.363 . S
C2170 C2176 1.428 . S
H2171 C2167 0.930 . S
H2172 C2169 0.929 . S
S2173 N2174 1.613 . S
S2173 N2175 1.610 . S
N2174 S2173 1.613 . S
N2174 C2177 1.350 . S
N2175 S2173 1.610 . S
N2175 C2176 1.351 . S
C2176 C2170 1.428 . S
C2176 N2175 1.351 . S
C2176 C2177 1.434 . S
C2177 C2168 1.429 . S
C2177 N2174 1.350 . S
C2177 C2176 1.434 . S
C2178 C2179 1.369 . S
C2178 C2180 1.419 . S
C2178 H2182 0.930 . S
C2179 C2178 1.369 . S
C2179 C2188 1.429 . S
C2180 C2178 1.419 . S
C2180 C2181 1.363 . S
C2180 H2183 0.929 . S
C2181 C2180 1.363 . S
C2181 C2187 1.428 . S
H2182 C2178 0.930 . S
H2183 C2180 0.929 . S
S2184 N2185 1.613 . S
S2184 N2186 1.610 . S
N2185 S2184 1.613 . S
N2185 C2188 1.350 . S
N2186 S2184 1.610 . S
N2186 C2187 1.351 . S
C2187 C2181 1.428 . S
C2187 N2186 1.351 . S
C2187 C2188 1.434 . S
C2188 C2179 1.429 . S
C2188 N2185 1.350 . S
C2188 C2187 1.434 . S
C2189 C2190 1.369 . S
C2189 C2191 1.419 . S
C2189 H2193 0.930 . S
C2190 C2189 1.369 . S
C2190 C2199 1.429 . S
C2191 C2189 1.419 . S
C2191 C2192 1.363 . S
C2191 H2194 0.929 . S
C2192 C2191 1.363 . S
C2192 C2198 1.428 . S
H2193 C2189 0.930 . S
H2194 C2191 0.929 . S
S2195 N2196 1.613 . S
S2195 N2197 1.610 . S
N2196 S2195 1.613 . S
N2196 C2199 1.350 . S
N2197 S2195 1.610 . S
N2197 C2198 1.351 . S
C2198 C2192 1.428 . S
C2198 N2197 1.351 . S
C2198 C2199 1.434 . S
C2199 C2190 1.429 . S
C2199 N2196 1.350 . S
C2199 C2198 1.434 . S
C2200 C2201 1.369 . S
C2200 C2202 1.419 . S
C2200 H2204 0.930 . S
C2201 C2200 1.369 . S
C2201 C2210 1.429 . S
C2202 C2200 1.419 . S
C2202 C2203 1.363 . S
C2202 H2205 0.929 . S
C2203 C2202 1.363 . S
C2203 C2209 1.428 . S
H2204 C2200 0.930 . S
H2205 C2202 0.929 . S
S2206 N2207 1.613 . S
S2206 N2208 1.610 . S
N2207 S2206 1.613 . S
N2207 C2210 1.350 . S
N2208 S2206 1.610 . S
N2208 C2209 1.351 . S
C2209 C2203 1.428 . S
C2209 N2208 1.351 . S
C2209 C2210 1.434 . S
C2210 C2201 1.429 . S
C2210 N2207 1.350 . S
C2210 C2209 1.434 . S
C2211 C2212 1.369 . S
C2211 C2213 1.419 . S
C2211 H2215 0.930 . S
C2212 C2211 1.369 . S
C2212 C2221 1.429 . S
C2213 C2211 1.419 . S
C2213 C2214 1.363 . S
C2213 H2216 0.929 . S
C2214 C2213 1.363 . S
C2214 C2220 1.428 . S
H2215 C2211 0.930 . S
H2216 C2213 0.929 . S
S2217 N2218 1.613 . S
S2217 N2219 1.610 . S
N2218 S2217 1.613 . S
N2218 C2221 1.350 . S
N2219 S2217 1.610 . S
N2219 C2220 1.351 . S
C2220 C2214 1.428 . S
C2220 N2219 1.351 . S
C2220 C2221 1.434 . S
C2221 C2212 1.429 . S
C2221 N2218 1.350 . S
C2221 C2220 1.434 . S
C2222 C2223 1.369 . S
C2222 C2224 1.419 . S
C2222 H2226 0.930 . S
C2223 C2222 1.369 . S
C2223 C2232 1.429 . S
C2224 C2222 1.419 . S
C2224 C2225 1.363 . S
C2224 H2227 0.929 . S
C2225 C2224 1.363 . S
C2225 C2231 1.428 . S
H2226 C2222 0.930 . S
H2227 C2224 0.929 . S
S2228 N2229 1.613 . S
S2228 N2230 1.610 . S
N2229 S2228 1.613 . S
N2229 C2232 1.350 . S
N2230 S2228 1.610 . S
N2230 C2231 1.351 . S
C2231 C2225 1.428 . S
C2231 N2230 1.351 . S
C2231 C2232 1.434 . S
C2232 C2223 1.429 . S
C2232 N2229 1.350 . S
C2232 C2231 1.434 . S
C2233 C2234 1.369 . S
C2233 C2235 1.419 . S
C2233 H2237 0.930 . S
C2234 C2233 1.369 . S
C2234 C2243 1.429 . S
C2235 C2233 1.419 . S
C2235 C2236 1.363 . S
C2235 H2238 0.929 . S
C2236 C2235 1.363 . S
C2236 C2242 1.428 . S
H2237 C2233 0.930 . S
H2238 C2235 0.929 . S
S2239 N2240 1.613 . S
S2239 N2241 1.610 . S
N2240 S2239 1.613 . S
N2240 C2243 1.350 . S
N2241 S2239 1.610 . S
N2241 C2242 1.351 . S
C2242 C2236 1.428 . S
C2242 N2241 1.351 . S
C2242 C2243 1.434 . S
C2243 C2234 1.429 . S
C2243 N2240 1.350 . S
C2243 C2242 1.434 . S
C2244 C2245 1.369 . S
C2244 C2246 1.419 . S
C2244 H2248 0.930 . S
C2245 C2244 1.369 . S
C2245 C2254 1.429 . S
C2246 C2244 1.419 . S
C2246 C2247 1.363 . S
C2246 H2249 0.929 . S
C2247 C2246 1.363 . S
C2247 C2253 1.428 . S
H2248 C2244 0.930 . S
H2249 C2246 0.929 . S
S2250 N2251 1.613 . S
S2250 N2252 1.610 . S
N2251 S2250 1.613 . S
N2251 C2254 1.350 . S
N2252 S2250 1.610 . S
N2252 C2253 1.351 . S
C2253 C2247 1.428 . S
C2253 N2252 1.351 . S
C2253 C2254 1.434 . S
C2254 C2245 1.429 . S
C2254 N2251 1.350 . S
C2254 C2253 1.434 . S
C2255 C2256 1.369 . S
C2255 C2257 1.419 . S
C2255 H2259 0.930 . S
C2256 C2255 1.369 . S
C2256 C2265 1.429 . S
C2257 C2255 1.419 . S
C2257 C2258 1.363 . S
C2257 H2260 0.929 . S
C2258 C2257 1.363 . S
C2258 C2264 1.428 . S
H2259 C2255 0.930 . S
H2260 C2257 0.929 . S
S2261 N2262 1.613 . S
S2261 N2263 1.610 . S
N2262 S2261 1.613 . S
N2262 C2265 1.350 . S
N2263 S2261 1.610 . S
N2263 C2264 1.351 . S
C2264 C2258 1.428 . S
C2264 N2263 1.351 . S
C2264 C2265 1.434 . S
C2265 C2256 1.429 . S
C2265 N2262 1.350 . S
C2265 C2264 1.434 . S
C2266 C2267 1.369 . S
C2266 C2268 1.419 . S
C2266 H2270 0.930 . S
C2267 C2266 1.369 . S
C2267 C2276 1.429 . S
C2268 C2266 1.419 . S
C2268 C2269 1.363 . S
C2268 H2271 0.929 . S
C2269 C2268 1.363 . S
C2269 C2275 1.428 . S
H2270 C2266 0.930 . S
H2271 C2268 0.929 . S
S2272 N2273 1.613 . S
S2272 N2274 1.610 . S
N2273 S2272 1.613 . S
N2273 C2276 1.350 . S
N2274 S2272 1.610 . S
N2274 C2275 1.351 . S
C2275 C2269 1.428 . S
C2275 N2274 1.351 . S
C2275 C2276 1.434 . S
C2276 C2267 1.429 . S
C2276 N2273 1.350 . S
C2276 C2275 1.434 . S
C2277 C2278 1.369 . S
C2277 C2279 1.419 . S
C2277 H2281 0.930 . S
C2278 C2277 1.369 . S
C2278 C2287 1.429 . S
C2279 C2277 1.419 . S
C2279 C2280 1.363 . S
C2279 H2282 0.929 . S
C2280 C2279 1.363 . S
C2280 C2286 1.428 . S
H2281 C2277 0.930 . S
H2282 C2279 0.929 . S
S2283 N2284 1.613 . S
S2283 N2285 1.610 . S
N2284 S2283 1.613 . S
N2284 C2287 1.350 . S
N2285 S2283 1.610 . S
N2285 C2286 1.351 . S
C2286 C2280 1.428 . S
C2286 N2285 1.351 . S
C2286 C2287 1.434 . S
C2287 C2278 1.429 . S
C2287 N2284 1.350 . S
C2287 C2286 1.434 . S
C2288 C2289 1.369 . S
C2288 C2290 1.419 . S
C2288 H2292 0.930 . S
C2289 C2288 1.369 . S
C2289 C2298 1.429 . S
C2290 C2288 1.419 . S
C2290 C2291 1.363 . S
C2290 H2293 0.929 . S
C2291 C2290 1.363 . S
C2291 C2297 1.428 . S
H2292 C2288 0.930 . S
H2293 C2290 0.929 . S
S2294 N2295 1.613 . S
S2294 N2296 1.610 . S
N2295 S2294 1.613 . S
N2295 C2298 1.350 . S
N2296 S2294 1.610 . S
N2296 C2297 1.351 . S
C2297 C2291 1.428 . S
C2297 N2296 1.351 . S
C2297 C2298 1.434 . S
C2298 C2289 1.429 . S
C2298 N2295 1.350 . S
C2298 C2297 1.434 . S
C2299 C2300 1.369 . S
C2299 C2301 1.419 . S
C2299 H2303 0.930 . S
C2300 C2299 1.369 . S
C2300 C2309 1.429 . S
C2301 C2299 1.419 . S
C2301 C2302 1.363 . S
C2301 H2304 0.929 . S
C2302 C2301 1.363 . S
C2302 C2308 1.428 . S
H2303 C2299 0.930 . S
H2304 C2301 0.929 . S
S2305 N2306 1.613 . S
S2305 N2307 1.610 . S
N2306 S2305 1.613 . S
N2306 C2309 1.350 . S
N2307 S2305 1.610 . S
N2307 C2308 1.351 . S
C2308 C2302 1.428 . S
C2308 N2307 1.351 . S
C2308 C2309 1.434 . S
C2309 C2300 1.429 . S
C2309 N2306 1.350 . S
C2309 C2308 1.434 . S
C2310 C2311 1.369 . S
C2310 C2312 1.419 . S
C2310 H2314 0.930 . S
C2311 C2310 1.369 . S
C2311 C2320 1.429 . S
C2312 C2310 1.419 . S
C2312 C2313 1.363 . S
C2312 H2315 0.929 . S
C2313 C2312 1.363 . S
C2313 C2319 1.428 . S
H2314 C2310 0.930 . S
H2315 C2312 0.929 . S
S2316 N2317 1.613 . S
S2316 N2318 1.610 . S
N2317 S2316 1.613 . S
N2317 C2320 1.350 . S
N2318 S2316 1.610 . S
N2318 C2319 1.351 . S
C2319 C2313 1.428 . S
C2319 N2318 1.351 . S
C2319 C2320 1.434 . S
C2320 C2311 1.429 . S
C2320 N2317 1.350 . S
C2320 C2319 1.434 . S
C2321 C2322 1.369 . S
C2321 C2323 1.419 . S
C2321 H2325 0.930 . S
C2322 C2321 1.369 . S
C2322 C2331 1.429 . S
C2323 C2321 1.419 . S
C2323 C2324 1.363 . S
C2323 H2326 0.929 . S
C2324 C2323 1.363 . S
C2324 C2330 1.428 . S
H2325 C2321 0.930 . S
H2326 C2323 0.929 . S
S2327 N2328 1.613 . S
S2327 N2329 1.610 . S
N2328 S2327 1.613 . S
N2328 C2331 1.350 . S
N2329 S2327 1.610 . S
N2329 C2330 1.351 . S
C2330 C2324 1.428 . S
C2330 N2329 1.351 . S
C2330 C2331 1.434 . S
C2331 C2322 1.429 . S
C2331 N2328 1.350 . S
C2331 C2330 1.434 . S
C2332 C2333 1.369 . S
C2332 C2334 1.419 . S
C2332 H2336 0.930 . S
C2333 C2332 1.369 . S
C2333 C2342 1.429 . S
C2334 C2332 1.419 . S
C2334 C2335 1.363 . S
C2334 H2337 0.929 . S
C2335 C2334 1.363 . S
C2335 C2341 1.428 . S
H2336 C2332 0.930 . S
H2337 C2334 0.929 . S
S2338 N2339 1.613 . S
S2338 N2340 1.610 . S
N2339 S2338 1.613 . S
N2339 C2342 1.350 . S
N2340 S2338 1.610 . S
N2340 C2341 1.351 . S
C2341 C2335 1.428 . S
C2341 N2340 1.351 . S
C2341 C2342 1.434 . S
C2342 C2333 1.429 . S
C2342 N2339 1.350 . S
C2342 C2341 1.434 . S
C2343 C2344 1.369 . S
C2343 C2345 1.419 . S
C2343 H2347 0.930 . S
C2344 C2343 1.369 . S
C2344 C2353 1.429 . S
C2345 C2343 1.419 . S
C2345 C2346 1.363 . S
C2345 H2348 0.929 . S
C2346 C2345 1.363 . S
C2346 C2352 1.428 . S
H2347 C2343 0.930 . S
H2348 C2345 0.929 . S
S2349 N2350 1.613 . S
S2349 N2351 1.610 . S
N2350 S2349 1.613 . S
N2350 C2353 1.350 . S
N2351 S2349 1.610 . S
N2351 C2352 1.351 . S
C2352 C2346 1.428 . S
C2352 N2351 1.351 . S
C2352 C2353 1.434 . S
C2353 C2344 1.429 . S
C2353 N2350 1.350 . S
C2353 C2352 1.434 . S
C2354 C2355 1.369 . S
C2354 C2356 1.419 . S
C2354 H2358 0.930 . S
C2355 C2354 1.369 . S
C2355 C2364 1.429 . S
C2356 C2354 1.419 . S
C2356 C2357 1.363 . S
C2356 H2359 0.929 . S
C2357 C2356 1.363 . S
C2357 C2363 1.428 . S
H2358 C2354 0.930 . S
H2359 C2356 0.929 . S
S2360 N2361 1.613 . S
S2360 N2362 1.610 . S
N2361 S2360 1.613 . S
N2361 C2364 1.350 . S
N2362 S2360 1.610 . S
N2362 C2363 1.351 . S
C2363 C2357 1.428 . S
C2363 N2362 1.351 . S
C2363 C2364 1.434 . S
C2364 C2355 1.429 . S
C2364 N2361 1.350 . S
C2364 C2363 1.434 . S
C2365 C2366 1.369 . S
C2365 C2367 1.419 . S
C2365 H2369 0.930 . S
C2366 C2365 1.369 . S
C2366 C2375 1.429 . S
C2367 C2365 1.419 . S
C2367 C2368 1.363 . S
C2367 H2370 0.929 . S
C2368 C2367 1.363 . S
C2368 C2374 1.428 . S
H2369 C2365 0.930 . S
H2370 C2367 0.929 . S
S2371 N2372 1.613 . S
S2371 N2373 1.610 . S
N2372 S2371 1.613 . S
N2372 C2375 1.350 . S
N2373 S2371 1.610 . S
N2373 C2374 1.351 . S
C2374 C2368 1.428 . S
C2374 N2373 1.351 . S
C2374 C2375 1.434 . S
C2375 C2366 1.429 . S
C2375 N2372 1.350 . S
C2375 C2374 1.434 . S
C2376 C2377 1.369 . S
C2376 C2378 1.419 . S
C2376 H2380 0.930 . S
C2377 C2376 1.369 . S
C2377 C2386 1.429 . S
C2378 C2376 1.419 . S
C2378 C2379 1.363 . S
C2378 H2381 0.929 . S
C2379 C2378 1.363 . S
C2379 C2385 1.428 . S
H2380 C2376 0.930 . S
H2381 C2378 0.929 . S
S2382 N2383 1.613 . S
S2382 N2384 1.610 . S
N2383 S2382 1.613 . S
N2383 C2386 1.350 . S
N2384 S2382 1.610 . S
N2384 C2385 1.351 . S
C2385 C2379 1.428 . S
C2385 N2384 1.351 . S
C2385 C2386 1.434 . S
C2386 C2377 1.429 . S
C2386 N2383 1.350 . S
C2386 C2385 1.434 . S
C2387 C2388 1.369 . S
C2387 C2389 1.419 . S
C2387 H2391 0.930 . S
C2388 C2387 1.369 . S
C2388 C2397 1.429 . S
C2389 C2387 1.419 . S
C2389 C2390 1.363 . S
C2389 H2392 0.929 . S
C2390 C2389 1.363 . S
C2390 C2396 1.428 . S
H2391 C2387 0.930 . S
H2392 C2389 0.929 . S
S2393 N2394 1.613 . S
S2393 N2395 1.610 . S
N2394 S2393 1.613 . S
N2394 C2397 1.350 . S
N2395 S2393 1.610 . S
N2395 C2396 1.351 . S
C2396 C2390 1.428 . S
C2396 N2395 1.351 . S
C2396 C2397 1.434 . S
C2397 C2388 1.429 . S
C2397 N2394 1.350 . S
C2397 C2396 1.434 . S
C2398 C2399 1.369 . S
C2398 C2400 1.419 . S
C2398 H2402 0.930 . S
C2399 C2398 1.369 . S
C2399 C2408 1.429 . S
C2400 C2398 1.419 . S
C2400 C2401 1.363 . S
C2400 H2403 0.929 . S
C2401 C2400 1.363 . S
C2401 C2407 1.428 . S
H2402 C2398 0.930 . S
H2403 C2400 0.929 . S
S2404 N2405 1.613 . S
S2404 N2406 1.610 . S
N2405 S2404 1.613 . S
N2405 C2408 1.350 . S
N2406 S2404 1.610 . S
N2406 C2407 1.351 . S
C2407 C2401 1.428 . S
C2407 N2406 1.351 . S
C2407 C2408 1.434 . S
C2408 C2399 1.429 . S
C2408 N2405 1.350 . S
C2408 C2407 1.434 . S
C2409 C2410 1.369 . S
C2409 C2411 1.419 . S
C2409 H2413 0.930 . S
C2410 C2409 1.369 . S
C2410 C2419 1.429 . S
C2411 C2409 1.419 . S
C2411 C2412 1.363 . S
C2411 H2414 0.929 . S
C2412 C2411 1.363 . S
C2412 C2418 1.428 . S
H2413 C2409 0.930 . S
H2414 C2411 0.929 . S
S2415 N2416 1.613 . S
S2415 N2417 1.610 . S
N2416 S2415 1.613 . S
N2416 C2419 1.350 . S
N2417 S2415 1.610 . S
N2417 C2418 1.351 . S
C2418 C2412 1.428 . S
C2418 N2417 1.351 . S
C2418 C2419 1.434 . S
C2419 C2410 1.429 . S
C2419 N2416 1.350 . S
C2419 C2418 1.434 . S
C2420 C2421 1.369 . S
C2420 C2422 1.419 . S
C2420 H2424 0.930 . S
C2421 C2420 1.369 . S
C2421 C2430 1.429 . S
C2422 C2420 1.419 . S
C2422 C2423 1.363 . S
C2422 H2425 0.929 . S
C2423 C2422 1.363 . S
C2423 C2429 1.428 . S
H2424 C2420 0.930 . S
H2425 C2422 0.929 . S
S2426 N2427 1.613 . S
S2426 N2428 1.610 . S
N2427 S2426 1.613 . S
N2427 C2430 1.350 . S
N2428 S2426 1.610 . S
N2428 C2429 1.351 . S
C2429 C2423 1.428 . S
C2429 N2428 1.351 . S
C2429 C2430 1.434 . S
C2430 C2421 1.429 . S
C2430 N2427 1.350 . S
C2430 C2429 1.434 . S
C2431 C2432 1.369 . S
C2431 C2433 1.419 . S
C2431 H2435 0.930 . S
C2432 C2431 1.369 . S
C2432 C2441 1.429 . S
C2433 C2431 1.419 . S
C2433 C2434 1.363 . S
C2433 H2436 0.929 . S
C2434 C2433 1.363 . S
C2434 C2440 1.428 . S
H2435 C2431 0.930 . S
H2436 C2433 0.929 . S
S2437 N2438 1.613 . S
S2437 N2439 1.610 . S
N2438 S2437 1.613 . S
N2438 C2441 1.350 . S
N2439 S2437 1.610 . S
N2439 C2440 1.351 . S
C2440 C2434 1.428 . S
C2440 N2439 1.351 . S
C2440 C2441 1.434 . S
C2441 C2432 1.429 . S
C2441 N2438 1.350 . S
C2441 C2440 1.434 . S
C2442 C2443 1.369 . S
C2442 C2444 1.419 . S
C2442 H2446 0.930 . S
C2443 C2442 1.369 . S
C2443 C2452 1.429 . S
C2444 C2442 1.419 . S
C2444 C2445 1.363 . S
C2444 H2447 0.929 . S
C2445 C2444 1.363 . S
C2445 C2451 1.428 . S
H2446 C2442 0.930 . S
H2447 C2444 0.929 . S
S2448 N2449 1.613 . S
S2448 N2450 1.610 . S
N2449 S2448 1.613 . S
N2449 C2452 1.350 . S
N2450 S2448 1.610 . S
N2450 C2451 1.351 . S
C2451 C2445 1.428 . S
C2451 N2450 1.351 . S
C2451 C2452 1.434 . S
C2452 C2443 1.429 . S
C2452 N2449 1.350 . S
C2452 C2451 1.434 . S
C2453 C2454 1.369 . S
C2453 C2455 1.419 . S
C2453 H2457 0.930 . S
C2454 C2453 1.369 . S
C2454 C2463 1.429 . S
C2455 C2453 1.419 . S
C2455 C2456 1.363 . S
C2455 H2458 0.929 . S
C2456 C2455 1.363 . S
C2456 C2462 1.428 . S
H2457 C2453 0.930 . S
H2458 C2455 0.929 . S
S2459 N2460 1.613 . S
S2459 N2461 1.610 . S
N2460 S2459 1.613 . S
N2460 C2463 1.350 . S
N2461 S2459 1.610 . S
N2461 C2462 1.351 . S
C2462 C2456 1.428 . S
C2462 N2461 1.351 . S
C2462 C2463 1.434 . S
C2463 C2454 1.429 . S
C2463 N2460 1.350 . S
C2463 C2462 1.434 . S
C2464 C2465 1.369 . S
C2464 C2466 1.419 . S
C2464 H2468 0.930 . S
C2465 C2464 1.369 . S
C2465 C2474 1.429 . S
C2466 C2464 1.419 . S
C2466 C2467 1.363 . S
C2466 H2469 0.929 . S
C2467 C2466 1.363 . S
C2467 C2473 1.428 . S
H2468 C2464 0.930 . S
H2469 C2466 0.929 . S
S2470 N2471 1.613 . S
S2470 N2472 1.610 . S
N2471 S2470 1.613 . S
N2471 C2474 1.350 . S
N2472 S2470 1.610 . S
N2472 C2473 1.351 . S
C2473 C2467 1.428 . S
C2473 N2472 1.351 . S
C2473 C2474 1.434 . S
C2474 C2465 1.429 . S
C2474 N2471 1.350 . S
C2474 C2473 1.434 . S
C2475 C2476 1.369 . S
C2475 C2477 1.419 . S
C2475 H2479 0.930 . S
C2476 C2475 1.369 . S
C2476 C2485 1.429 . S
C2477 C2475 1.419 . S
C2477 C2478 1.363 . S
C2477 H2480 0.929 . S
C2478 C2477 1.363 . S
C2478 C2484 1.428 . S
H2479 C2475 0.930 . S
H2480 C2477 0.929 . S
S2481 N2482 1.613 . S
S2481 N2483 1.610 . S
N2482 S2481 1.613 . S
N2482 C2485 1.350 . S
N2483 S2481 1.610 . S
N2483 C2484 1.351 . S
C2484 C2478 1.428 . S
C2484 N2483 1.351 . S
C2484 C2485 1.434 . S
C2485 C2476 1.429 . S
C2485 N2482 1.350 . S
C2485 C2484 1.434 . S
C2486 C2487 1.369 . S
C2486 C2488 1.419 . S
C2486 H2490 0.930 . S
C2487 C2486 1.369 . S
C2487 C2496 1.429 . S
C2488 C2486 1.419 . S
C2488 C2489 1.363 . S
C2488 H2491 0.929 . S
C2489 C2488 1.363 . S
C2489 C2495 1.428 . S
H2490 C2486 0.930 . S
H2491 C2488 0.929 . S
S2492 N2493 1.613 . S
S2492 N2494 1.610 . S
N2493 S2492 1.613 . S
N2493 C2496 1.350 . S
N2494 S2492 1.610 . S
N2494 C2495 1.351 . S
C2495 C2489 1.428 . S
C2495 N2494 1.351 . S
C2495 C2496 1.434 . S
C2496 C2487 1.429 . S
C2496 N2493 1.350 . S
C2496 C2495 1.434 . S
C2497 C2498 1.369 . S
C2497 C2499 1.419 . S
C2497 H2501 0.930 . S
C2498 C2497 1.369 . S
C2498 C2507 1.429 . S
C2499 C2497 1.419 . S
C2499 C2500 1.363 . S
C2499 H2502 0.929 . S
C2500 C2499 1.363 . S
C2500 C2506 1.428 . S
H2501 C2497 0.930 . S
H2502 C2499 0.929 . S
S2503 N2504 1.613 . S
S2503 N2505 1.610 . S
N2504 S2503 1.613 . S
N2504 C2507 1.350 . S
N2505 S2503 1.610 . S
N2505 C2506 1.351 . S
C2506 C2500 1.428 . S
C2506 N2505 1.351 . S
C2506 C2507 1.434 . S
C2507 C2498 1.429 . S
C2507 N2504 1.350 . S
C2507 C2506 1.434 . S
C2508 C2509 1.369 . S
C2508 C2510 1.419 . S
C2508 H2512 0.930 . S
C2509 C2508 1.369 . S
C2509 C2518 1.429 . S
C2510 C2508 1.419 . S
C2510 C2511 1.363 . S
C2510 H2513 0.929 . S
C2511 C2510 1.363 . S
C2511 C2517 1.428 . S
H2512 C2508 0.930 . S
H2513 C2510 0.929 . S
S2514 N2515 1.613 . S
S2514 N2516 1.610 . S
N2515 S2514 1.613 . S
N2515 C2518 1.350 . S
N2516 S2514 1.610 . S
N2516 C2517 1.351 . S
C2517 C2511 1.428 . S
C2517 N2516 1.351 . S
C2517 C2518 1.434 . S
C2518 C2509 1.429 . S
C2518 N2515 1.350 . S
C2518 C2517 1.434 . S
C2519 C2520 1.369 . S
C2519 C2521 1.419 . S
C2519 H2523 0.930 . S
C2520 C2519 1.369 . S
C2520 C2529 1.429 . S
C2521 C2519 1.419 . S
C2521 C2522 1.363 . S
C2521 H2524 0.929 . S
C2522 C2521 1.363 . S
C2522 C2528 1.428 . S
H2523 C2519 0.930 . S
H2524 C2521 0.929 . S
S2525 N2526 1.613 . S
S2525 N2527 1.610 . S
N2526 S2525 1.613 . S
N2526 C2529 1.350 . S
N2527 S2525 1.610 . S
N2527 C2528 1.351 . S
C2528 C2522 1.428 . S
C2528 N2527 1.351 . S
C2528 C2529 1.434 . S
C2529 C2520 1.429 . S
C2529 N2526 1.350 . S
C2529 C2528 1.434 . S
C2530 C2531 1.369 . S
C2530 C2532 1.419 . S
C2530 H2534 0.930 . S
C2531 C2530 1.369 . S
C2531 C2540 1.429 . S
C2532 C2530 1.419 . S
C2532 C2533 1.363 . S
C2532 H2535 0.929 . S
C2533 C2532 1.363 . S
C2533 C2539 1.428 . S
H2534 C2530 0.930 . S
H2535 C2532 0.929 . S
S2536 N2537 1.613 . S
S2536 N2538 1.610 . S
N2537 S2536 1.613 . S
N2537 C2540 1.350 . S
N2538 S2536 1.610 . S
N2538 C2539 1.351 . S
C2539 C2533 1.428 . S
C2539 N2538 1.351 . S
C2539 C2540 1.434 . S
C2540 C2531 1.429 . S
C2540 N2537 1.350 . S
C2540 C2539 1.434 . S
C2541 C2542 1.369 . S
C2541 C2543 1.419 . S
C2541 H2545 0.930 . S
C2542 C2541 1.369 . S
C2542 C2551 1.429 . S
C2543 C2541 1.419 . S
C2543 C2544 1.363 . S
C2543 H2546 0.929 . S
C2544 C2543 1.363 . S
C2544 C2550 1.428 . S
H2545 C2541 0.930 . S
H2546 C2543 0.929 . S
S2547 N2548 1.613 . S
S2547 N2549 1.610 . S
N2548 S2547 1.613 . S
N2548 C2551 1.350 . S
N2549 S2547 1.610 . S
N2549 C2550 1.351 . S
C2550 C2544 1.428 . S
C2550 N2549 1.351 . S
C2550 C2551 1.434 . S
C2551 C2542 1.429 . S
C2551 N2548 1.350 . S
C2551 C2550 1.434 . S
C2552 C2553 1.369 . S
C2552 C2554 1.419 . S
C2552 H2556 0.930 . S
C2553 C2552 1.369 . S
C2553 C2562 1.429 . S
C2554 C2552 1.419 . S
C2554 C2555 1.363 . S
C2554 H2557 0.929 . S
C2555 C2554 1.363 . S
C2555 C2561 1.428 . S
H2556 C2552 0.930 . S
H2557 C2554 0.929 . S
S2558 N2559 1.613 . S
S2558 N2560 1.610 . S
N2559 S2558 1.613 . S
N2559 C2562 1.350 . S
N2560 S2558 1.610 . S
N2560 C2561 1.351 . S
C2561 C2555 1.428 . S
C2561 N2560 1.351 . S
C2561 C2562 1.434 . S
C2562 C2553 1.429 . S
C2562 N2559 1.350 . S
C2562 C2561 1.434 . S
C2563 C2564 1.369 . S
C2563 C2565 1.419 . S
C2563 H2567 0.930 . S
C2564 C2563 1.369 . S
C2564 C2573 1.429 . S
C2565 C2563 1.419 . S
C2565 C2566 1.363 . S
C2565 H2568 0.929 . S
C2566 C2565 1.363 . S
C2566 C2572 1.428 . S
H2567 C2563 0.930 . S
H2568 C2565 0.929 . S
S2569 N2570 1.613 . S
S2569 N2571 1.610 . S
N2570 S2569 1.613 . S
N2570 C2573 1.350 . S
N2571 S2569 1.610 . S
N2571 C2572 1.351 . S
C2572 C2566 1.428 . S
C2572 N2571 1.351 . S
C2572 C2573 1.434 . S
C2573 C2564 1.429 . S
C2573 N2570 1.350 . S
C2573 C2572 1.434 . S
C2574 C2575 1.369 . S
C2574 C2576 1.419 . S
C2574 H2578 0.930 . S
C2575 C2574 1.369 . S
C2575 C2584 1.429 . S
C2576 C2574 1.419 . S
C2576 C2577 1.363 . S
C2576 H2579 0.929 . S
C2577 C2576 1.363 . S
C2577 C2583 1.428 . S
H2578 C2574 0.930 . S
H2579 C2576 0.929 . S
S2580 N2581 1.613 . S
S2580 N2582 1.610 . S
N2581 S2580 1.613 . S
N2581 C2584 1.350 . S
N2582 S2580 1.610 . S
N2582 C2583 1.351 . S
C2583 C2577 1.428 . S
C2583 N2582 1.351 . S
C2583 C2584 1.434 . S
C2584 C2575 1.429 . S
C2584 N2581 1.350 . S
C2584 C2583 1.434 . S
C2585 C2586 1.369 . S
C2585 C2587 1.419 . S
C2585 H2589 0.930 . S
C2586 C2585 1.369 . S
C2586 C2595 1.429 . S
C2587 C2585 1.419 . S
C2587 C2588 1.363 . S
C2587 H2590 0.929 . S
C2588 C2587 1.363 . S
C2588 C2594 1.428 . S
H2589 C2585 0.930 . S
H2590 C2587 0.929 . S
S2591 N2592 1.613 . S
S2591 N2593 1.610 . S
N2592 S2591 1.613 . S
N2592 C2595 1.350 . S
N2593 S2591 1.610 . S
N2593 C2594 1.351 . S
C2594 C2588 1.428 . S
C2594 N2593 1.351 . S
C2594 C2595 1.434 . S
C2595 C2586 1.429 . S
C2595 N2592 1.350 . S
C2595 C2594 1.434 . S
C2596 C2597 1.369 . S
C2596 C2598 1.419 . S
C2596 H2600 0.930 . S
C2597 C2596 1.369 . S
C2597 C2606 1.429 . S
C2598 C2596 1.419 . S
C2598 C2599 1.363 . S
C2598 H2601 0.929 . S
C2599 C2598 1.363 . S
C2599 C2605 1.428 . S
H2600 C2596 0.930 . S
H2601 C2598 0.929 . S
S2602 N2603 1.613 . S
S2602 N2604 1.610 . S
N2603 S2602 1.613 . S
N2603 C2606 1.350 . S
N2604 S2602 1.610 . S
N2604 C2605 1.351 . S
C2605 C2599 1.428 . S
C2605 N2604 1.351 . S
C2605 C2606 1.434 . S
C2606 C2597 1.429 . S
C2606 N2603 1.350 . S
C2606 C2605 1.434 . S
C2607 C2608 1.369 . S
C2607 C2609 1.419 . S
C2607 H2611 0.930 . S
C2608 C2607 1.369 . S
C2608 C2617 1.429 . S
C2609 C2607 1.419 . S
C2609 C2610 1.363 . S
C2609 H2612 0.929 . S
C2610 C2609 1.363 . S
C2610 C2616 1.428 . S
H2611 C2607 0.930 . S
H2612 C2609 0.929 . S
S2613 N2614 1.613 . S
S2613 N2615 1.610 . S
N2614 S2613 1.613 . S
N2614 C2617 1.350 . S
N2615 S2613 1.610 . S
N2615 C2616 1.351 . S
C2616 C2610 1.428 . S
C2616 N2615 1.351 . S
C2616 C2617 1.434 . S
C2617 C2608 1.429 . S
C2617 N2614 1.350 . S
C2617 C2616 1.434 . S
C2618 C2619 1.369 . S
C2618 C2620 1.419 . S
C2618 H2622 0.930 . S
C2619 C2618 1.369 . S
C2619 C2628 1.429 . S
C2620 C2618 1.419 . S
C2620 C2621 1.363 . S
C2620 H2623 0.929 . S
C2621 C2620 1.363 . S
C2621 C2627 1.428 . S
H2622 C2618 0.930 . S
H2623 C2620 0.929 . S
S2624 N2625 1.613 . S
S2624 N2626 1.610 . S
N2625 S2624 1.613 . S
N2625 C2628 1.350 . S
N2626 S2624 1.610 . S
N2626 C2627 1.351 . S
C2627 C2621 1.428 . S
C2627 N2626 1.351 . S
C2627 C2628 1.434 . S
C2628 C2619 1.429 . S
C2628 N2625 1.350 . S
C2628 C2627 1.434 . S
C2629 C2630 1.369 . S
C2629 C2631 1.419 . S
C2629 H2633 0.930 . S
C2630 C2629 1.369 . S
C2630 C2639 1.429 . S
C2631 C2629 1.419 . S
C2631 C2632 1.363 . S
C2631 H2634 0.929 . S
C2632 C2631 1.363 . S
C2632 C2638 1.428 . S
H2633 C2629 0.930 . S
H2634 C2631 0.929 . S
S2635 N2636 1.613 . S
S2635 N2637 1.610 . S
N2636 S2635 1.613 . S
N2636 C2639 1.350 . S
N2637 S2635 1.610 . S
N2637 C2638 1.351 . S
C2638 C2632 1.428 . S
C2638 N2637 1.351 . S
C2638 C2639 1.434 . S
C2639 C2630 1.429 . S
C2639 N2636 1.350 . S
C2639 C2638 1.434 . S
C2640 C2641 1.369 1_655 S
C2640 C2642 1.419 1_565 S
C2640 H2644 0.930 . S
C2641 C2640 1.369 1_455 S
C2641 C2650 1.429 . S
C2642 C2640 1.419 1_545 S
C2642 C2643 1.363 1_655 S
C2642 H2645 0.929 . S
C2643 C2642 1.363 1_455 S
C2643 C2649 1.428 . S
H2644 C2640 0.930 . S
H2645 C2642 0.929 . S
S2646 N2647 1.613 1_545 S
S2646 N2648 1.610 . S
N2647 S2646 1.613 1_565 S
N2647 C2650 1.350 . S
N2648 S2646 1.610 . S
N2648 C2649 1.351 . S
C2649 C2643 1.428 . S
C2649 N2648 1.351 . S
C2649 C2650 1.434 1_545 S
C2650 C2641 1.429 . S
C2650 N2647 1.350 . S
C2650 C2649 1.434 1_565 S
C2651 C2652 1.369 . S
C2651 C2653 1.419 . S
C2651 H2655 0.930 . S
C2652 C2651 1.369 . S
C2652 C2661 1.429 . S
C2653 C2651 1.419 . S
C2653 C2654 1.363 . S
C2653 H2656 0.929 . S
C2654 C2653 1.363 . S
C2654 C2660 1.428 . S
H2655 C2651 0.930 . S
H2656 C2653 0.929 . S
S2657 N2658 1.613 . S
S2657 N2659 1.610 . S
N2658 S2657 1.613 . S
N2658 C2661 1.350 . S
N2659 S2657 1.610 . S
N2659 C2660 1.351 . S
C2660 C2654 1.428 . S
C2660 N2659 1.351 . S
C2660 C2661 1.434 . S
C2661 C2652 1.429 . S
C2661 N2658 1.350 . S
C2661 C2660 1.434 . S
C2662 C2663 1.369 1_565 S
C2662 C2664 1.419 . S
C2662 H2666 0.930 . S
C2663 C2662 1.369 1_545 S
C2663 C2672 1.429 . S
C2664 C2662 1.419 . S
C2664 C2665 1.363 . S
C2664 H2667 0.929 . S
C2665 C2664 1.363 . S
C2665 C2671 1.428 1_565 S
H2666 C2662 0.930 . S
H2667 C2664 0.929 . S
S2668 N2669 1.613 . S
S2668 N2670 1.610 . S
N2669 S2668 1.613 . S
N2669 C2672 1.350 . S
N2670 S2668 1.610 . S
N2670 C2671 1.351 . S
C2671 C2665 1.428 1_545 S
C2671 N2670 1.351 . S
C2671 C2672 1.434 . S
C2672 C2663 1.429 . S
C2672 N2669 1.350 . S
C2672 C2671 1.434 . S
C2673 C2674 1.369 . S
C2673 C2675 1.393 1_556 S
C2673 H2677 0.930 . S
C2674 C2673 1.369 . S
C2674 C2683 1.432 1_556 S
C2675 C2673 1.393 1_554 S
C2675 C2676 1.390 . S
C2675 H2678 0.929 . S
C2676 C2675 1.390 . S
C2676 C2682 1.428 . S
H2677 C2673 0.930 . S
H2678 C2675 0.929 . S
S2679 N2680 1.613 . S
S2679 N2681 1.610 . S
N2680 S2679 1.613 . S
N2680 C2683 1.349 . S
N2681 S2679 1.610 . S
N2681 C2682 1.351 . S
C2682 C2676 1.428 . S
C2682 N2681 1.351 . S
C2682 C2683 1.431 . S
C2683 C2674 1.432 1_554 S
C2683 N2680 1.349 . S
C2683 C2682 1.431 . S
C2684 C2685 1.369 . S
C2684 C2686 1.419 . S
C2684 H2688 0.930 . S
C2685 C2684 1.369 . S
C2685 C2694 1.429 1_556 S
C2686 C2684 1.419 . S
C2686 C2687 1.363 1_556 S
C2686 H2689 0.929 . S
C2687 C2686 1.363 1_554 S
C2687 C2693 1.428 . S
H2688 C2684 0.930 . S
H2689 C2686 0.929 . S
S2690 N2691 1.613 . S
S2690 N2692 1.610 . S
N2691 S2690 1.613 . S
N2691 C2694 1.350 . S
N2692 S2690 1.610 . S
N2692 C2693 1.351 . S
C2693 C2687 1.428 . S
C2693 N2692 1.351 . S
C2693 C2694 1.434 . S
C2694 C2685 1.429 1_554 S
C2694 N2691 1.350 . S
C2694 C2693 1.434 . S
C2695 C2696 1.369 . S
C2695 C2697 1.419 1_545 S
C2695 H2699 0.931 . S
C2696 C2695 1.369 . S
C2696 C2705 1.429 . S
C2697 C2695 1.419 1_565 S
C2697 C2698 1.363 . S
C2697 H2700 0.929 . S
C2698 C2697 1.363 . S
C2698 C2704 1.438 . S
H2699 C2695 0.931 . S
H2700 C2697 0.929 . S
S2701 N2702 1.613 . S
S2701 N2703 1.610 . S
N2702 S2701 1.613 . S
N2702 C2705 1.350 . S
N2703 S2701 1.610 . S
N2703 C2704 1.350 1_545 S
C2704 C2698 1.438 . S
C2704 N2703 1.350 1_565 S
C2704 C2705 1.424 1_565 S
C2705 C2696 1.429 . S
C2705 N2702 1.350 . S
C2705 C2704 1.424 1_545 S
C2706 C2707 1.369 . S
C2706 C2708 1.419 . S
C2706 H2710 0.930 . S
C2707 C2706 1.369 . S
C2707 C2716 1.429 . S
C2708 C2706 1.419 . S
C2708 C2709 1.363 . S
C2708 H2711 0.929 . S
C2709 C2708 1.363 . S
C2709 C2715 1.428 . S
H2710 C2706 0.930 . S
H2711 C2708 0.929 . S
S2712 N2713 1.613 . S
S2712 N2714 1.610 . S
N2713 S2712 1.613 . S
N2713 C2716 1.350 . S
N2714 S2712 1.610 . S
N2714 C2715 1.351 . S
C2715 C2709 1.428 . S
C2715 N2714 1.351 . S
C2715 C2716 1.434 . S
C2716 C2707 1.429 . S
C2716 N2713 1.350 . S
C2716 C2715 1.434 . S
C2717 C2718 1.369 . S
C2717 C2719 1.395 1_545 S
C2717 H2721 0.930 . S
C2718 C2717 1.369 . S
C2718 C2727 1.407 1_545 S
C2719 C2717 1.395 1_565 S
C2719 C2720 1.388 . S
C2719 H2722 0.928 1_565 S
C2720 C2719 1.388 . S
C2720 C2726 1.428 . S
H2721 C2717 0.930 . S
H2722 C2719 0.928 1_545 S
S2723 N2724 1.613 . S
S2723 N2725 1.610 . S
N2724 S2723 1.613 . S
N2724 C2727 1.354 . S
N2725 S2723 1.610 . S
N2725 C2726 1.351 . S
C2726 C2720 1.428 . S
C2726 N2725 1.351 . S
C2726 C2727 1.455 . S
C2727 C2718 1.407 1_565 S
C2727 N2724 1.354 . S
C2727 C2726 1.455 . S
C2728 C2729 1.369 . S
C2728 C2730 1.419 . S
C2728 H2732 0.930 1_554 S
C2729 C2728 1.369 . S
C2729 C2738 1.429 1_455 S
C2730 C2728 1.419 . S
C2730 C2731 1.363 1_455 S
C2730 H2733 0.929 1_554 S
C2731 C2730 1.363 1_655 S
C2731 C2737 1.428 . S
H2732 C2728 0.930 1_556 S
H2733 C2730 0.929 1_556 S
S2734 N2735 1.613 . S
S2734 N2736 1.610 . S
N2735 S2734 1.613 . S
N2735 C2738 1.350 . S
N2736 S2734 1.610 . S
N2736 C2737 1.351 . S
C2737 C2731 1.428 . S
C2737 N2736 1.351 . S
C2737 C2738 1.434 . S
C2738 C2729 1.429 1_655 S
C2738 N2735 1.350 . S
C2738 C2737 1.434 . S
C2739 C2740 1.369 1_554 S
C2739 C2741 1.419 . S
C2739 H2743 0.930 . S
C2740 C2739 1.369 1_556 S
C2740 C2749 1.429 . S
C2741 C2739 1.419 . S
C2741 C2742 1.363 1_554 S
C2741 H2744 0.929 . S
C2742 C2741 1.363 1_556 S
C2742 C2748 1.428 . S
H2743 C2739 0.930 . S
H2744 C2741 0.929 . S
S2745 N2746 1.613 . S
S2745 N2747 1.610 . S
N2746 S2745 1.613 . S
N2746 C2749 1.350 . S
N2747 S2745 1.610 . S
N2747 C2748 1.351 . S
C2748 C2742 1.428 . S
C2748 N2747 1.351 . S
C2748 C2749 1.434 . S
C2749 C2740 1.429 . S
C2749 N2746 1.350 . S
C2749 C2748 1.434 . S
C2750 C2751 1.369 . S
C2750 C2752 1.419 1_655 S
C2750 H2754 0.930 . S
C2751 C2750 1.369 . S
C2751 C2760 1.429 . S
C2752 C2750 1.419 1_455 S
C2752 C2753 1.363 . S
C2752 H2755 0.929 . S
C2753 C2752 1.363 . S
C2753 C2759 1.428 . S
H2754 C2750 0.930 . S
H2755 C2752 0.929 . S
S2756 N2757 1.613 . S
S2756 N2758 1.610 1_655 S
N2757 S2756 1.613 . S
N2757 C2760 1.350 . S
N2758 S2756 1.610 1_455 S
N2758 C2759 1.351 . S
C2759 C2753 1.428 . S
C2759 N2758 1.351 . S
C2759 C2760 1.434 1_455 S
C2760 C2751 1.429 . S
C2760 N2757 1.350 . S
C2760 C2759 1.434 1_655 S
C2761 C2762 1.369 1_655 S
C2761 C2763 1.419 . S
C2761 H2765 0.930 . S
C2762 C2761 1.369 1_455 S
C2762 C2771 1.429 . S
C2763 C2761 1.419 . S
C2763 C2764 1.363 . S
C2763 H2766 0.929 . S
C2764 C2763 1.363 . S
C2764 C2770 1.428 1_655 S
H2765 C2761 0.930 . S
H2766 C2763 0.929 . S
S2767 N2768 1.613 . S
S2767 N2769 1.610 . S
N2768 S2767 1.613 . S
N2768 C2771 1.350 . S
N2769 S2767 1.610 . S
N2769 C2770 1.351 . S
C2770 C2764 1.428 1_455 S
C2770 N2769 1.351 . S
C2770 C2771 1.434 . S
C2771 C2762 1.429 . S
C2771 N2768 1.350 . S
C2771 C2770 1.434 . S
C2772 C2773 1.369 . S
C2772 C2774 1.419 . S
C2772 H2776 0.930 . S
C2773 C2772 1.369 . S
C2773 C2782 1.429 . S
C2774 C2772 1.419 . S
C2774 C2775 1.363 . S
C2774 H2777 0.929 . S
C2775 C2774 1.363 . S
C2775 C2781 1.428 . S
H2776 C2772 0.930 . S
H2777 C2774 0.929 . S
S2778 N2779 1.613 . S
S2778 N2780 1.610 . S
N2779 S2778 1.613 . S
N2779 C2782 1.350 . S
N2780 S2778 1.610 . S
N2780 C2781 1.351 . S
C2781 C2775 1.428 . S
C2781 N2780 1.351 . S
C2781 C2782 1.434 . S
C2782 C2773 1.429 . S
C2782 N2779 1.350 . S
C2782 C2781 1.434 . S
C2783 C2784 1.369 . S
C2783 C2785 1.419 1_455 S
C2783 H2787 0.930 . S
C2784 C2783 1.369 . S
C2784 C2793 1.429 . S
C2785 C2783 1.419 1_655 S
C2785 C2786 1.363 . S
C2785 H2788 0.929 . S
C2786 C2785 1.363 . S
C2786 C2792 1.428 . S
H2787 C2783 0.930 . S
H2788 C2785 0.929 . S
S2789 N2790 1.613 . S
S2789 N2791 1.653 . S
N2790 S2789 1.613 . S
N2790 C2793 1.350 . S
N2791 S2789 1.653 . S
N2791 C2792 1.348 1_455 S
C2792 C2786 1.428 . S
C2792 N2791 1.348 1_655 S
C2792 C2793 1.434 1_655 S
C2793 C2784 1.429 . S
C2793 N2790 1.350 . S
C2793 C2792 1.434 1_455 S
C2794 C2795 1.369 . S
C2794 C2796 1.419 . S
C2794 H2798 0.930 . S
C2795 C2794 1.369 . S
C2795 C2804 1.429 . S
C2796 C2794 1.419 . S
C2796 C2797 1.363 . S
C2796 H2799 0.929 . S
C2797 C2796 1.363 . S
C2797 C2803 1.428 . S
H2798 C2794 0.930 . S
H2799 C2796 0.929 . S
S2800 N2801 1.613 . S
S2800 N2802 1.610 . S
N2801 S2800 1.613 . S
N2801 C2804 1.350 . S
N2802 S2800 1.610 . S
N2802 C2803 1.351 . S
C2803 C2797 1.428 . S
C2803 N2802 1.351 . S
C2803 C2804 1.434 . S
C2804 C2795 1.429 . S
C2804 N2801 1.350 . S
C2804 C2803 1.434 . S
C2805 C2806 1.369 . S
C2805 C2807 1.419 . S
C2805 H2809 0.930 . S
C2806 C2805 1.369 . S
C2806 C2815 1.429 . S
C2807 C2805 1.419 . S
C2807 C2808 1.363 . S
C2807 H2810 0.929 . S
C2808 C2807 1.363 . S
C2808 C2814 1.428 . S
H2809 C2805 0.930 . S
H2810 C2807 0.929 . S
S2811 N2812 1.613 . S
S2811 N2813 1.610 . S
N2812 S2811 1.613 . S
N2812 C2815 1.350 . S
N2813 S2811 1.610 . S
N2813 C2814 1.351 . S
C2814 C2808 1.428 . S
C2814 N2813 1.351 . S
C2814 C2815 1.434 . S
C2815 C2806 1.429 . S
C2815 N2812 1.350 . S
C2815 C2814 1.434 . S
C2816 C2817 1.369 . S
C2816 C2818 1.419 1_554 S
C2816 H2820 0.930 . S
C2817 C2816 1.369 . S
C2817 C2826 1.429 . S
C2818 C2816 1.419 1_556 S
C2818 C2819 1.363 . S
C2818 H2821 0.929 . S
C2819 C2818 1.363 . S
C2819 C2825 1.428 . S
H2820 C2816 0.930 . S
H2821 C2818 0.929 . S
S2822 N2823 1.613 . S
S2822 N2824 1.610 1_554 S
N2823 S2822 1.613 . S
N2823 C2826 1.350 . S
N2824 S2822 1.610 1_556 S
N2824 C2825 1.351 . S
C2825 C2819 1.428 . S
C2825 N2824 1.351 . S
C2825 C2826 1.434 1_556 S
C2826 C2817 1.429 . S
C2826 N2823 1.350 . S
C2826 C2825 1.434 1_554 S
C2827 C2828 1.369 . S
C2827 C2829 1.419 . S
C2827 H2831 0.930 . S
C2828 C2827 1.369 . S
C2828 C2837 1.429 1_655 S
C2829 C2827 1.419 . S
C2829 C2830 1.363 . S
C2829 H2832 0.929 . S
C2830 C2829 1.363 . S
C2830 C2836 1.428 1_655 S
H2831 C2827 0.930 . S
H2832 C2829 0.929 . S
S2833 N2834 1.613 . S
S2833 N2835 1.610 . S
N2834 S2833 1.613 . S
N2834 C2837 1.350 . S
N2835 S2833 1.610 . S
N2835 C2836 1.351 . S
C2836 C2830 1.428 1_455 S
C2836 N2835 1.351 . S
C2836 C2837 1.434 . S
C2837 C2828 1.429 1_455 S
C2837 N2834 1.350 . S
C2837 C2836 1.434 . S
C2838 C2839 1.369 . S
C2838 C2840 1.419 . S
C2838 H2842 0.930 . S
C2839 C2838 1.369 . S
C2839 C2848 1.429 . S
C2840 C2838 1.419 . S
C2840 C2841 1.363 . S
C2840 H2843 0.929 . S
C2841 C2840 1.363 . S
C2841 C2847 1.428 . S
H2842 C2838 0.930 . S
H2843 C2840 0.929 . S
S2844 N2845 1.613 . S
S2844 N2846 1.610 . S
N2845 S2844 1.613 . S
N2845 C2848 1.350 . S
N2846 S2844 1.610 . S
N2846 C2847 1.351 . S
C2847 C2841 1.428 . S
C2847 N2846 1.351 . S
C2847 C2848 1.434 . S
C2848 C2839 1.429 . S
C2848 N2845 1.350 . S
C2848 C2847 1.434 . S
C2849 C2850 1.369 . S
C2849 C2851 1.419 . S
C2849 H2853 0.930 . S
C2850 C2849 1.369 . S
C2850 C2859 1.429 . S
C2851 C2849 1.419 . S
C2851 C2852 1.363 . S
C2851 H2854 0.929 . S
C2852 C2851 1.363 . S
C2852 C2858 1.428 . S
H2853 C2849 0.930 . S
H2854 C2851 0.929 . S
S2855 N2856 1.613 . S
S2855 N2857 1.610 . S
N2856 S2855 1.613 . S
N2856 C2859 1.350 . S
N2857 S2855 1.610 . S
N2857 C2858 1.351 . S
C2858 C2852 1.428 . S
C2858 N2857 1.351 . S
C2858 C2859 1.434 . S
C2859 C2850 1.429 . S
C2859 N2856 1.350 . S
C2859 C2858 1.434 . S
C2860 C2861 1.369 . S
C2860 C2862 1.419 . S
C2860 H2864 0.930 . S
C2861 C2860 1.369 . S
C2861 C2870 1.429 . S
C2862 C2860 1.419 . S
C2862 C2863 1.363 . S
C2862 H2865 0.929 . S
C2863 C2862 1.363 . S
C2863 C2869 1.428 . S
H2864 C2860 0.930 . S
H2865 C2862 0.929 . S
S2866 N2867 1.613 . S
S2866 N2868 1.610 . S
N2867 S2866 1.613 . S
N2867 C2870 1.350 . S
N2868 S2866 1.610 . S
N2868 C2869 1.351 . S
C2869 C2863 1.428 . S
C2869 N2868 1.351 . S
C2869 C2870 1.434 . S
C2870 C2861 1.429 . S
C2870 N2867 1.350 . S
C2870 C2869 1.434 . S
C2871 C2872 1.369 1_554 S
C2871 C2873 1.419 . S
C2871 H2875 0.930 . S
C2872 C2871 1.369 1_556 S
C2872 C2881 1.429 . S
C2873 C2871 1.419 . S
C2873 C2874 1.363 . S
C2873 H2876 0.929 . S
C2874 C2873 1.363 . S
C2874 C2880 1.428 1_554 S
H2875 C2871 0.930 . S
H2876 C2873 0.929 . S
S2877 N2878 1.613 . S
S2877 N2879 1.610 . S
N2878 S2877 1.613 . S
N2878 C2881 1.350 . S
N2879 S2877 1.610 . S
N2879 C2880 1.351 . S
C2880 C2874 1.428 1_556 S
C2880 N2879 1.351 . S
C2880 C2881 1.434 . S
C2881 C2872 1.429 . S
C2881 N2878 1.350 . S
C2881 C2880 1.434 . S
C2882 C2883 1.369 . S
C2882 C2884 1.419 . S
C2882 H2886 0.930 . S
C2883 C2882 1.369 . S
C2883 C2892 1.429 . S
C2884 C2882 1.419 . S
C2884 C2885 1.363 . S
C2884 H2887 0.929 . S
C2885 C2884 1.363 . S
C2885 C2891 1.428 . S
H2886 C2882 0.930 . S
H2887 C2884 0.929 . S
S2888 N2889 1.613 . S
S2888 N2890 1.610 . S
N2889 S2888 1.613 . S
N2889 C2892 1.350 . S
N2890 S2888 1.610 . S
N2890 C2891 1.351 . S
C2891 C2885 1.428 . S
C2891 N2890 1.351 . S
C2891 C2892 1.434 . S
C2892 C2883 1.429 . S
C2892 N2889 1.350 . S
C2892 C2891 1.434 . S
C2893 C2894 1.369 . S
C2893 C2895 1.419 . S
C2893 H2897 0.930 . S
C2894 C2893 1.369 . S
C2894 C2903 1.429 . S
C2895 C2893 1.419 . S
C2895 C2896 1.363 . S
C2895 H2898 0.929 . S
C2896 C2895 1.363 . S
C2896 C2902 1.428 . S
H2897 C2893 0.930 . S
H2898 C2895 0.929 . S
S2899 N2900 1.613 . S
S2899 N2901 1.610 . S
N2900 S2899 1.613 . S
N2900 C2903 1.350 . S
N2901 S2899 1.610 . S
N2901 C2902 1.351 . S
C2902 C2896 1.428 . S
C2902 N2901 1.351 . S
C2902 C2903 1.434 . S
C2903 C2894 1.429 . S
C2903 N2900 1.350 . S
C2903 C2902 1.434 . S
C1585 N13 1.580 . S
C1587 C348 1.825 . S
C1596 C381 1.825 . S
C1598 N46 1.576 . S
C1607 C282 1.833 1_556 S
C1609 N79 1.569 . S
C1618 C315 1.826 . S
C1620 N112 1.575 . S
C1629 C480 1.832 1_554 S
C1631 N145 1.571 . S
C1640 N178 1.580 . S
C1642 C513 1.827 . S
C1651 C414 1.833 . S
C1653 N211 1.567 . S
C1662 C447 1.826 . S
C1664 N244 1.579 . S
C1673 N277 1.570 . S
C1675 C579 1.830 . S
C1684 N310 1.575 . S
C1686 C612 1.827 . S
C1695 C645 1.824 1_455 S
C1697 N343 1.578 . S
C1706 N376 1.567 . S
C1708 C1470 1.831 . S
C1717 C1338 1.827 . S
C1719 N409 1.578 . S
C1728 N442 1.568 . S
C1730 C777 1.831 . S
C1739 N475 1.573 . S
C1741 C1503 1.828 1_455 S
C1750 C744 1.833 . S
C1752 N508 1.568 . S
C1761 N541 1.573 . S
C1763 C1008 1.830 . S
C1772 C84 1.827 1_545 S
C1774 N574 1.572 . S
C1783 C117 1.833 . S
C1785 N607 1.568 . S
C1794 C18 1.824 1_565 S
C1796 N640 1.580 . S
C1805 N673 1.566 . S
C1807 C843 1.831 . S
C1816 N706 1.568 . S
C1818 C942 1.832 . S
C1827 C183 1.828 . S
C1829 N739 1.575 . S
C1838 C249 1.834 . S
C1840 N772 1.568 . S
C1849 N805 1.566 . S
C1851 C1140 1.832 1_556 S
C1860 N838 1.565 . S
C1862 C1173 1.832 . S
C1871 C1074 1.825 . S
C1873 N871 1.578 . S
C1882 C1107 1.827 . S
C1884 N904 1.574 . S
C1893 C1272 1.833 . S
C1895 N937 1.569 . S
C1904 C1305 1.824 . S
C1906 N970 1.579 . S
C1915 C1206 1.832 1_554 S
C1917 N1003 1.569 . S
C1926 N1036 1.572 . S
C1928 C1239 1.828 . S
C1937 N1069 1.581 . S
C1939 C1371 1.826 1_655 S
C1948 C1404 1.833 . S
C1950 N1102 1.568 . S
C1959 N1135 1.576 . S
C1961 C1437 1.826 . S
C1970 N1168 1.568 . S
C1972 C678 1.830 . S
C1981 N1201 1.570 . S
C1983 C546 1.829 1_655 S
C1992 N1234 1.577 . S
C1994 C1569 1.828 . S
C2003 C711 1.831 . S
C2005 N1267 1.573 . S
C2014 C1536 1.824 . S
C2016 N1300 1.579 . S
C2025 N1333 1.566 . S
C2027 C216 1.832 1_565 S
C2036 C876 1.825 . S
C2038 N1366 1.576 . S
C2047 N1399 1.569 . S
C2049 C909 1.830 . S
C2058 N1432 1.571 . S
C2060 C810 1.829 . S
C2069 C51 1.826 . S
C2071 N1465 1.579 . S
C2080 N1498 1.582 . S
C2082 C150 1.826 1_545 S
C2091 N1531 1.581 . S
C2093 C975 1.825 . S
C2102 C1041 1.827 . S
C2104 N1564 1.574 . S
C2113 C304 1.977 . S
C2115 C7 1.978 . S
C2124 C40 1.977 . S
C2126 C337 1.978 . S
C2135 C370 1.976 . S
C2137 C73 1.978 . S
C2146 C271 1.976 . S
C2148 C106 1.978 . S
C2157 C139 1.979 . S
C2159 C502 1.976 . S
C2168 C172 1.978 . S
C2170 C403 1.976 . S
C2179 C436 1.978 . S
C2181 C205 1.977 . S
C2190 C238 1.976 . S
C2192 C469 1.979 . S
C2201 C601 1.976 . S
C2203 C535 1.979 . S
C2212 C568 1.979 . S
C2214 C1525 1.976 . S
C2223 C1558 1.976 . S
C2225 C634 1.978 . S
C2234 C667 1.978 . S
C2236 C1492 1.977 . S
C2245 C1459 1.977 . S
C2247 C700 1.978 . S
C2256 C1360 1.979 . S
C2258 C733 1.976 . S
C2267 C766 1.976 . S
C2269 C1426 1.978 . S
C2278 C799 1.976 . S
C2280 C1096 1.979 . S
C2289 C1129 1.976 . S
C2291 C832 1.978 . S
C2300 C1162 1.976 . S
C2302 C865 1.978 . S
C2311 C898 1.978 . S
C2313 C1063 1.977 . S
C2322 C1294 1.976 . S
C2324 C931 1.979 . S
C2333 C1195 1.976 . S
C2335 C964 1.978 . S
C2344 C997 1.979 . S
C2346 C1228 1.976 . S
C2355 C1261 1.979 . S
C2357 C1030 1.977 . S
C2366 C1393 1.977 . S
C2368 C1327 1.978 . S
C2377 C681 1.326 . S
C2379 C21 1.314 . S
C2388 C54 1.323 . S
C2390 C1374 1.322 . S
C2399 C87 1.326 . S
C2401 C1407 1.320 . S
C2410 C1440 1.326 . S
C2412 C120 1.321 . S
C2421 C1572 1.321 . S
C2423 C153 1.315 . S
C2432 C714 1.313 . S
C2434 C186 1.325 . S
C2443 C219 1.313 . S
C2445 C1539 1.321 . S
C2454 C252 1.313 . S
C2456 C549 1.326 . S
C2465 C516 1.325 . S
C2467 C285 1.314 . S
C2476 C318 1.326 . S
C2478 C417 1.314 . S
C2487 C351 1.327 . S
C2489 C450 1.317 . S
C2498 C483 1.326 . S
C2500 C384 1.314 . S
C2509 C846 1.321 . S
C2511 C582 1.323 . S
C2520 C615 1.316 . S
C2522 C879 1.326 . S
C2531 C648 1.317 . S
C2533 C912 1.318 . S
C2542 C747 1.319 . S
C2544 C1011 1.315 . S
C2553 C945 1.314 . S
C2555 C780 1.326 . S
C2564 C813 1.315 . S
C2566 C1473 1.320 . S
C2575 C1506 1.315 . S
C2577 C978 1.319 . S
C2586 C1341 1.313 . S
C2588 C1044 1.326 . S
C2597 C1077 1.328 . S
C2599 C1308 1.315 . S
C2608 C1209 1.326 . S
C2610 C1110 1.314 . S
C2619 C1143 1.326 . S
C2621 C1242 1.319 . S
C2630 C1176 1.326 . S
C2632 C1275 1.314 . S
C2641 N134 1.177 . S
C2643 N2 1.176 . S
C2652 N167 1.178 . S
C2654 N35 1.175 . S
C2663 N200 1.181 . S
C2665 N68 1.170 . S
C2674 N233 1.178 . S
C2676 N101 1.170 . S
C2685 N464 1.169 . S
C2687 N266 1.180 . S
C2696 N299 1.168 . S
C2698 N497 1.179 . S
C2707 N332 1.169 . S
C2709 N398 1.180 . S
C2718 N431 1.181 . S
C2720 N365 1.170 . S
C2729 N530 1.171 . S
C2731 N1487 1.179 . S
C2740 N563 1.181 . S
C2742 N1421 1.171 . S
C2751 N662 1.168 . S
C2753 N596 1.177 . S
C2762 N1355 1.181 . S
C2764 N629 1.171 . S
C2773 N1322 1.172 . S
C2775 N695 1.179 . S
C2784 N728 1.168 . S
C2786 N1553 1.179 . S
C2795 N1520 1.169 . S
C2797 N761 1.180 . S
C2806 N926 1.168 . S
C2808 N794 1.180 . S
C2817 N827 1.168 . S
C2819 N959 1.177 . S
C2828 N860 1.168 . S
C2830 N992 1.179 . S
C2839 N893 1.175 . S
C2841 N1025 1.177 . S
C2850 N1058 1.178 . S
C2852 N1256 1.175 . S
C2861 N1091 1.176 . S
C2863 N1289 1.171 . S
C2872 N1190 1.179 . S
C2874 N1124 1.170 . S
C2883 N1157 1.168 . S
C2885 N1223 1.179 . S
C2894 N1454 1.181 . S
C2896 N1388 1.170 . S
