# Generated by pormake.
# Topology fnk, (5)-cn, num edge types: 1
# Building blocks:
#     Node 0, Type 0, BuildingBlock: XOMCOT_clean_sbu_1, # of connection points: 5
#     Node 1, Type 0, BuildingBlock: XOMCOT_clean_sbu_1, # of connection points: 5
#     Node 2, Type 0, BuildingBlock: XOMCOT_clean_sbu_1, # of connection points: 5
#     Node 3, Type 0, BuildingBlock: XOMCOT_clean_sbu_1, # of connection points: 5
#     Node 4, Type 0, BuildingBlock: XOMCOT_clean_sbu_1, # of connection points: 5
#     Node 5, Type 0, BuildingBlock: XOMCOT_clean_sbu_1, # of connection points: 5
#     Node 6, Type 0, BuildingBlock: XOMCOT_clean_sbu_1, # of connection points: 5
#     Node 7, Type 0, BuildingBlock: XOMCOT_clean_sbu_1, # of connection points: 5
#     Node 8, Type 0, BuildingBlock: XOMCOT_clean_sbu_1, # of connection points: 5
#     Node 9, Type 0, BuildingBlock: XOMCOT_clean_sbu_1, # of connection points: 5
#     Node 10, Type 0, BuildingBlock: XOMCOT_clean_sbu_1, # of connection points: 5
#     Node 11, Type 0, BuildingBlock: XOMCOT_clean_sbu_1, # of connection points: 5
#     Node 12, Type 0, BuildingBlock: XOMCOT_clean_sbu_1, # of connection points: 5
#     Node 13, Type 0, BuildingBlock: XOMCOT_clean_sbu_1, # of connection points: 5
#     Node 14, Type 0, BuildingBlock: XOMCOT_clean_sbu_1, # of connection points: 5
#     Node 15, Type 0, BuildingBlock: XOMCOT_clean_sbu_1, # of connection points: 5
#     Edge 16, Type (0, 0), BuildingBlock: XUDNAN_clean_linker_2, # of connection points: 2
#     Edge 17, Type (0, 0), BuildingBlock: XUDNAN_clean_linker_2, # of connection points: 2
#     Edge 18, Type (0, 0), BuildingBlock: XUDNAN_clean_linker_2, # of connection points: 2
#     Edge 19, Type (0, 0), BuildingBlock: XUDNAN_clean_linker_2, # of connection points: 2
#     Edge 20, Type (0, 0), BuildingBlock: XUDNAN_clean_linker_2, # of connection points: 2
#     Edge 21, Type (0, 0), BuildingBlock: XUDNAN_clean_linker_2, # of connection points: 2
#     Edge 22, Type (0, 0), BuildingBlock: XUDNAN_clean_linker_2, # of connection points: 2
#     Edge 23, Type (0, 0), BuildingBlock: XUDNAN_clean_linker_2, # of connection points: 2
#     Edge 24, Type (0, 0), BuildingBlock: XUDNAN_clean_linker_2, # of connection points: 2
#     Edge 25, Type (0, 0), BuildingBlock: XUDNAN_clean_linker_2, # of connection points: 2
#     Edge 26, Type (0, 0), BuildingBlock: XUDNAN_clean_linker_2, # of connection points: 2
#     Edge 27, Type (0, 0), BuildingBlock: XUDNAN_clean_linker_2, # of connection points: 2
#     Edge 28, Type (0, 0), BuildingBlock: XUDNAN_clean_linker_2, # of connection points: 2
#     Edge 29, Type (0, 0), BuildingBlock: XUDNAN_clean_linker_2, # of connection points: 2
#     Edge 30, Type (0, 0), BuildingBlock: XUDNAN_clean_linker_2, # of connection points: 2
#     Edge 31, Type (0, 0), BuildingBlock: XUDNAN_clean_linker_2, # of connection points: 2
#     Edge 32, Type (0, 0), BuildingBlock: XUDNAN_clean_linker_2, # of connection points: 2
#     Edge 33, Type (0, 0), BuildingBlock: XUDNAN_clean_linker_2, # of connection points: 2
#     Edge 34, Type (0, 0), BuildingBlock: XUDNAN_clean_linker_2, # of connection points: 2
#     Edge 35, Type (0, 0), BuildingBlock: XUDNAN_clean_linker_2, # of connection points: 2
#     Edge 36, Type (0, 0), BuildingBlock: XUDNAN_clean_linker_2, # of connection points: 2
#     Edge 37, Type (0, 0), BuildingBlock: XUDNAN_clean_linker_2, # of connection points: 2
#     Edge 38, Type (0, 0), BuildingBlock: XUDNAN_clean_linker_2, # of connection points: 2
#     Edge 39, Type (0, 0), BuildingBlock: XUDNAN_clean_linker_2, # of connection points: 2
#     Edge 40, Type (0, 0), BuildingBlock: XUDNAN_clean_linker_2, # of connection points: 2
#     Edge 41, Type (0, 0), BuildingBlock: XUDNAN_clean_linker_2, # of connection points: 2
#     Edge 42, Type (0, 0), BuildingBlock: XUDNAN_clean_linker_2, # of connection points: 2
#     Edge 43, Type (0, 0), BuildingBlock: XUDNAN_clean_linker_2, # of connection points: 2
#     Edge 44, Type (0, 0), BuildingBlock: XUDNAN_clean_linker_2, # of connection points: 2
#     Edge 45, Type (0, 0), BuildingBlock: XUDNAN_clean_linker_2, # of connection points: 2
#     Edge 46, Type (0, 0), BuildingBlock: XUDNAN_clean_linker_2, # of connection points: 2
#     Edge 47, Type (0, 0), BuildingBlock: XUDNAN_clean_linker_2, # of connection points: 2
#     Edge 48, Type (0, 0), BuildingBlock: XUDNAN_clean_linker_2, # of connection points: 2
#     Edge 49, Type (0, 0), BuildingBlock: XUDNAN_clean_linker_2, # of connection points: 2
#     Edge 50, Type (0, 0), BuildingBlock: XUDNAN_clean_linker_2, # of connection points: 2
#     Edge 51, Type (0, 0), BuildingBlock: XUDNAN_clean_linker_2, # of connection points: 2
#     Edge 52, Type (0, 0), BuildingBlock: XUDNAN_clean_linker_2, # of connection points: 2
#     Edge 53, Type (0, 0), BuildingBlock: XUDNAN_clean_linker_2, # of connection points: 2
#     Edge 54, Type (0, 0), BuildingBlock: XUDNAN_clean_linker_2, # of connection points: 2
#     Edge 55, Type (0, 0), BuildingBlock: XUDNAN_clean_linker_2, # of connection points: 2
# Relax obj value: 0.624
# Max RMSD: 0.261
# Mean RMSD: 0.261
data_MOF--net-fnk--node1-XOMCOT_clean_sbu_1--edge1-XUDNAN_clean_linker_2
_symmetry_space_group_name_H-M    P1
_symmetry_Int_Tables_number       1
_symmetry_cell_setting            triclinic
loop_
_symmetry_equiv_pos_as_xyz
'x, y, z'
_cell_length_a     45.138358
_cell_length_b     45.131304
_cell_length_c     47.494956
_cell_angle_alpha  89.896075
_cell_angle_beta   90.120802
_cell_angle_gamma 90.041984
loop_
_atom_site_label
_atom_site_type_symbol
_atom_site_fract_x
_atom_site_fract_y
_atom_site_fract_z
_atom_type_partial_charge
C0 C 0.22299 0.37893 0.1557 0.0
C1 C 0.2491 0.37125 0.16875 0.0
N2 N 0.24388 0.34837 0.18636 0.0
N3 N 0.20107 0.36094 0.16465 0.0
C4 C 0.21469 0.34231 0.18312 0.0
H5 H 0.22009 0.39737 0.14141 0.0
Co6 Co 0.16033 0.36584 0.15585 0.0
C7 C 0.14002 0.41471 0.19319 0.0
O8 O 0.11524 0.39995 0.19711 0.0
N9 N 0.1195 0.37172 0.14654 0.0
C10 C 0.07022 0.37089 0.14335 0.0
C11 C 0.09527 0.35414 0.14795 0.0
C12 C 0.10841 0.39849 0.13896 0.0
N13 N 0.07847 0.39909 0.13829 0.0
O14 O 0.16941 0.38585 0.12125 0.0
H15 H 0.09511 0.33089 0.15301 0.0
H16 H 0.12226 0.41779 0.13603 0.0
O17 O 0.16047 0.40365 0.17763 0.0
C18 C 0.17136 0.36641 0.10184 0.0
O19 O 0.17396 0.3385 0.10939 0.0
N20 N 0.15038 0.34302 0.18734 0.0
C21 C 0.11326 0.31134 0.22145 0.0
C22 C 0.1294 0.33526 0.23266 0.0
C23 C 0.14869 0.35079 0.21502 0.0
C24 C 0.14213 0.31532 0.17927 0.0
C25 C 0.12309 0.29885 0.19613 0.0
H26 H 0.15946 0.37052 0.22277 0.0
H27 H 0.14627 0.30819 0.1579 0.0
H28 H 0.20323 0.32552 0.19513 0.0
H29 H 0.27013 0.38233 0.16587 0.0
H30 H 0.04767 0.36302 0.14528 0.0
H31 H 0.12405 0.34433 0.25313 0.0
H32 H 0.11241 0.27962 0.18703 0.0
C33 C 0.67157 0.15628 0.13799 0.0
C34 C 0.69179 0.17335 0.15243 0.0
N35 N 0.67753 0.19687 0.16316 0.0
N36 N 0.6443 0.1685 0.14009 0.0
C37 C 0.64904 0.19375 0.15495 0.0
H38 H 0.67697 0.13613 0.12702 0.0
Co39 Co 0.60651 0.15509 0.12758 0.0
C40 C 0.59443 0.16716 0.18924 0.0
O41 O 0.61881 0.15438 0.19832 0.0
N42 N 0.56789 0.14287 0.11624 0.0
C43 C 0.51864 0.14466 0.11288 0.0
C44 C 0.5442 0.16112 0.11509 0.0
C45 C 0.55596 0.11536 0.11403 0.0
N46 N 0.52601 0.11577 0.11271 0.0
O47 O 0.59995 0.1934 0.11178 0.0
H48 H 0.54507 0.18483 0.11814 0.0
H49 H 0.56873 0.09515 0.11499 0.0
O50 O 0.58855 0.16799 0.16291 0.0
C51 C 0.60938 0.2034 0.08822 0.0
O52 O 0.6043 0.23135 0.08215 0.0
N53 N 0.61435 0.11663 0.14061 0.0
C54 C 0.62792 0.05709 0.14876 0.0
C55 C 0.63898 0.07241 0.12551 0.0
C56 C 0.63139 0.10191 0.12157 0.0
C57 C 0.60209 0.10172 0.16281 0.0
C58 C 0.60887 0.07185 0.1674 0.0
H59 H 0.63923 0.11324 0.10301 0.0
H60 H 0.5859 0.1121 0.17618 0.0
H61 H 0.63161 0.20905 0.16066 0.0
H62 H 0.71518 0.16875 0.15495 0.0
H63 H 0.49629 0.15326 0.11391 0.0
H64 H 0.65297 0.06152 0.11017 0.0
H65 H 0.59926 0.06041 0.18525 0.0
C66 C 0.84085 0.67667 0.14343 0.0
C67 C 0.82023 0.69574 0.1546 0.0
N68 N 0.80289 0.68024 0.17226 0.0
N69 N 0.83633 0.64914 0.15373 0.0
C70 C 0.81286 0.65207 0.17131 0.0
H71 H 0.85853 0.68271 0.12922 0.0
Co72 Co 0.86079 0.61653 0.14556 0.0
C73 C 0.84384 0.57002 0.18477 0.0
O74 O 0.87235 0.568 0.18992 0.0
N75 N 0.88519 0.58288 0.13641 0.0
C76 C 0.89466 0.53795 0.11901 0.0
C77 C 0.87385 0.55984 0.12174 0.0
C78 C 0.91334 0.57401 0.14242 0.0
N79 N 0.91957 0.5467 0.13216 0.0
O80 O 0.84035 0.61223 0.10983 0.0
H81 H 0.85133 0.55851 0.11406 0.0
H82 H 0.92866 0.58639 0.15525 0.0
O83 O 0.83421 0.58896 0.16666 0.0
C84 C 0.85765 0.6271 0.09374 0.0
O85 O 0.88274 0.63679 0.10438 0.0
N86 N 0.88278 0.62583 0.17777 0.0
C87 C 0.91328 0.66157 0.21622 0.0
C88 C 0.88567 0.64906 0.22316 0.0
C89 C 0.87095 0.631 0.20379 0.0
C90 C 0.90941 0.63776 0.17076 0.0
C91 C 0.92562 0.65426 0.18998 0.0
H92 H 0.84897 0.62339 0.20898 0.0
H93 H 0.91755 0.63581 0.14947 0.0
H94 H 0.80358 0.63416 0.18364 0.0
H95 H 0.81865 0.71935 0.15079 0.0
H96 H 0.89146 0.51711 0.10821 0.0
H97 H 0.87456 0.65423 0.24269 0.0
H98 H 0.94723 0.66193 0.18349 0.0
C99 C 0.31426 0.83198 0.16488 0.0
C100 C 0.29626 0.80848 0.17171 0.0
N101 N 0.30583 0.79692 0.1962 0.0
N102 N 0.33534 0.83546 0.18487 0.0
C103 C 0.32953 0.81349 0.20366 0.0
H104 H 0.3117 0.84603 0.14661 0.0
Co105 Co 0.36481 0.86564 0.18259 0.0
C106 C 0.39518 0.83506 0.23136 0.0
O107 O 0.37329 0.84169 0.24838 0.0
N108 N 0.39498 0.89471 0.17893 0.0
C109 C 0.44021 0.91281 0.17213 0.0
C110 C 0.42404 0.88782 0.1776 0.0
C111 C 0.39408 0.92428 0.17371 0.0
N112 N 0.4215 0.93589 0.1696 0.0
O113 O 0.37708 0.84917 0.14708 0.0
H114 H 0.43306 0.86569 0.17908 0.0
H115 H 0.3737 0.9368 0.17228 0.0
O116 O 0.39322 0.84113 0.20498 0.0
C117 C 0.36619 0.86678 0.12857 0.0
O118 O 0.35151 0.89016 0.1373 0.0
N119 N 0.3497 0.88496 0.21503 0.0
C120 C 0.32277 0.92065 0.25585 0.0
C121 C 0.35382 0.91847 0.25419 0.0
C122 C 0.36683 0.90054 0.23365 0.0
C123 C 0.31956 0.88729 0.21629 0.0
C124 C 0.30576 0.90392 0.23703 0.0
H125 H 0.39072 0.89967 0.23237 0.0
H126 H 0.30563 0.87735 0.20048 0.0
H127 H 0.34239 0.80903 0.22223 0.0
H128 H 0.27717 0.80093 0.1599 0.0
H129 H 0.46389 0.91349 0.1687 0.0
H130 H 0.36811 0.93146 0.2677 0.0
H131 H 0.2818 0.90446 0.23744 0.0
C132 C 0.18654 0.65704 0.37091 0.0
C133 C 0.21028 0.66874 0.35643 0.0
N134 N 0.20515 0.66576 0.32861 0.0
N135 N 0.16639 0.64663 0.35237 0.0
C136 C 0.17865 0.65187 0.32684 0.0
H137 H 0.18362 0.65774 0.39346 0.0
Co138 Co 0.12698 0.63492 0.35914 0.0
C139 C 0.11505 0.58802 0.31519 0.0
O140 O 0.08712 0.5959 0.31299 0.0
N141 N 0.08715 0.62341 0.36631 0.0
C142 C 0.03871 0.62481 0.37518 0.0
C143 C 0.06373 0.6415 0.37042 0.0
C144 C 0.07585 0.59577 0.36985 0.0
N145 N 0.0463 0.596 0.37444 0.0
O146 O 0.13888 0.61034 0.39015 0.0
H147 H 0.06449 0.66539 0.36996 0.0
H148 H 0.08894 0.57575 0.36839 0.0
O149 O 0.13241 0.60203 0.33193 0.0
C150 C 0.13438 0.62688 0.41154 0.0
O151 O 0.12605 0.65441 0.4074 0.0
N152 N 0.11449 0.66239 0.3321 0.0
C153 C 0.08018 0.70606 0.30763 0.0
C154 C 0.08839 0.68094 0.29203 0.0
C155 C 0.10606 0.65926 0.30468 0.0
C156 C 0.11157 0.68909 0.34517 0.0
C157 C 0.09422 0.71133 0.33337 0.0
H158 H 0.11133 0.63969 0.29287 0.0
H159 H 0.11987 0.69187 0.36635 0.0
H160 H 0.16725 0.64753 0.30724 0.0
H161 H 0.22926 0.67964 0.36575 0.0
H162 H 0.01646 0.6332 0.37803 0.0
H163 H 0.07863 0.67643 0.27162 0.0
H164 H 0.08892 0.73075 0.34576 0.0
C165 C 0.38492 0.21973 0.36291 0.0
C166 C 0.37401 0.24546 0.35135 0.0
N167 N 0.35569 0.23833 0.33 0.0
N168 N 0.373 0.19608 0.34963 0.0
C169 C 0.35564 0.20838 0.32932 0.0
H170 H 0.40205 0.21846 0.37881 0.0
Co171 Co 0.38778 0.15663 0.35195 0.0
C172 C 0.42803 0.17506 0.31611 0.0
O173 O 0.40452 0.16936 0.30069 0.0
N174 N 0.40314 0.11819 0.35236 0.0
C175 C 0.4103 0.07152 0.33942 0.0
C176 C 0.39317 0.09627 0.33557 0.0
C177 C 0.42686 0.10642 0.36584 0.0
N178 N 0.4316 0.07784 0.3584 0.0
O179 O 0.39529 0.1601 0.39318 0.0
H180 H 0.37516 0.09838 0.32069 0.0
H181 H 0.44071 0.11876 0.3803 0.0
O182 O 0.42647 0.1714 0.34268 0.0
C183 C 0.37878 0.17192 0.4121 0.0
O184 O 0.35489 0.18643 0.40432 0.0
N185 N 0.34965 0.14051 0.35869 0.0
C186 C 0.30497 0.09792 0.356 0.0
C187 C 0.30936 0.11781 0.33369 0.0
C188 C 0.33211 0.13866 0.33536 0.0
C189 C 0.3437 0.12295 0.38156 0.0
C190 C 0.32075 0.10236 0.38099 0.0
H191 H 0.33865 0.14956 0.3162 0.0
H192 H 0.35891 0.12119 0.39891 0.0
H193 H 0.34564 0.19609 0.31236 0.0
H194 H 0.38034 0.26771 0.35734 0.0
H195 H 0.4081 0.05089 0.32801 0.0
H196 H 0.29843 0.11459 0.31361 0.0
H197 H 0.3183 0.08719 0.39854 0.0
C198 C 0.81172 0.31671 0.34156 0.0
C199 C 0.78919 0.30135 0.32855 0.0
N200 N 0.78334 0.31449 0.30369 0.0
N201 N 0.82027 0.33946 0.32495 0.0
C202 C 0.80217 0.33773 0.30218 0.0
H203 H 0.82246 0.31019 0.36093 0.0
Co204 Co 0.85531 0.36202 0.32847 0.0
C205 C 0.82207 0.42008 0.32315 0.0
O206 O 0.82202 0.42667 0.35007 0.0
N207 N 0.89074 0.38442 0.33166 0.0
C208 C 0.93867 0.396 0.32986 0.0
C209 C 0.91794 0.37425 0.32496 0.0
C210 C 0.89567 0.41231 0.34113 0.0
N211 N 0.92468 0.42001 0.3401 0.0
O212 O 0.84724 0.36917 0.36791 0.0
H213 H 0.92249 0.35224 0.31711 0.0
H214 H 0.8784 0.42674 0.34868 0.0
O215 O 0.83417 0.3963 0.31457 0.0
C216 C 0.86348 0.34939 0.3797 0.0
O217 O 0.87876 0.33173 0.36319 0.0
N218 N 0.86558 0.35192 0.29196 0.0
C219 C 0.90205 0.33278 0.24887 0.0
C220 C 0.89115 0.36201 0.24899 0.0
C221 C 0.87297 0.37132 0.27106 0.0
C222 C 0.87255 0.32269 0.28999 0.0
C223 C 0.89054 0.31254 0.26845 0.0
H224 H 0.86775 0.3946 0.27298 0.0
H225 H 0.86697 0.30778 0.30703 0.0
H226 H 0.80463 0.35155 0.28367 0.0
H227 H 0.77895 0.28116 0.33612 0.0
H228 H 0.96233 0.39396 0.32675 0.0
H229 H 0.89908 0.37824 0.23396 0.0
H230 H 0.8983 0.28989 0.26957 0.0
C231 C 0.68992 0.82307 0.34505 0.0
C232 C 0.7067 0.80168 0.3318 0.0
N233 N 0.68943 0.78752 0.31296 0.0
N234 N 0.66202 0.82234 0.33481 0.0
C235 C 0.66237 0.79999 0.31583 0.0
H236 H 0.69843 0.83976 0.3592 0.0
Co237 Co 0.63276 0.85208 0.33664 0.0
C238 C 0.57695 0.8192 0.34209 0.0
O239 O 0.57238 0.83241 0.36633 0.0
N240 N 0.60273 0.88199 0.33717 0.0
C241 C 0.5611 0.90479 0.32406 0.0
C242 C 0.58041 0.88249 0.31807 0.0
C243 C 0.59648 0.90519 0.35444 0.0
N244 N 0.57101 0.91909 0.34695 0.0
O245 O 0.63092 0.848 0.37732 0.0
H246 H 0.5774 0.86691 0.30115 0.0
H247 H 0.60969 0.91137 0.37251 0.0
O248 O 0.60188 0.82258 0.32985 0.0
C249 C 0.64938 0.86693 0.38712 0.0
O250 O 0.66309 0.88416 0.36899 0.0
N251 N 0.63786 0.85845 0.29824 0.0
C252 C 0.65046 0.87784 0.24415 0.0
C253 C 0.62973 0.85516 0.24847 0.0
C254 C 0.62402 0.84538 0.27585 0.0
C255 C 0.65907 0.87939 0.2942 0.0
C256 C 0.66586 0.88934 0.26731 0.0
H257 H 0.60769 0.82827 0.27897 0.0
H258 H 0.67012 0.88907 0.31218 0.0
H259 H 0.64362 0.79453 0.30265 0.0
H260 H 0.73042 0.79886 0.33392 0.0
H261 H 0.54111 0.91009 0.31244 0.0
H262 H 0.61735 0.84592 0.231 0.0
H263 H 0.68166 0.90724 0.26488 0.0
C264 C 0.82711 0.68796 0.86651 0.0
C265 C 0.80783 0.70664 0.85281 0.0
N266 N 0.82365 0.72774 0.83947 0.0
N267 N 0.85521 0.69659 0.86144 0.0
C268 C 0.85226 0.72189 0.84622 0.0
H269 H 0.82107 0.6682 0.87809 0.0
Co270 Co 0.88862 0.67361 0.87192 0.0
C271 C 0.91094 0.69319 0.81216 0.0
O272 O 0.88664 0.70356 0.8006 0.0
N273 N 0.92221 0.65061 0.88272 0.0
C274 C 0.96011 0.6307 0.90626 0.0
C275 C 0.93832 0.65208 0.90668 0.0
C276 C 0.93496 0.62817 0.86806 0.0
N277 N 0.95784 0.61547 0.88201 0.0
O278 O 0.90491 0.70771 0.88957 0.0
H279 H 0.93434 0.66723 0.92378 0.0
H280 H 0.92723 0.62089 0.84762 0.0
O281 O 0.91081 0.68274 0.83724 0.0
C282 C 0.90102 0.71774 0.91446 0.0
O283 O 0.91404 0.74288 0.92095 0.0
N284 N 0.87119 0.64 0.85573 0.0
C285 C 0.84641 0.58891 0.83312 0.0
C286 C 0.84698 0.61536 0.81761 0.0
C287 C 0.85981 0.6405 0.82916 0.0
C288 C 0.86813 0.61535 0.87218 0.0
C289 C 0.85642 0.58927 0.86107 0.0
H290 H 0.85991 0.6605 0.81691 0.0
H291 H 0.87598 0.61547 0.89371 0.0
H292 H 0.87082 0.73499 0.83903 0.0
H293 H 0.78401 0.7041 0.85183 0.0
H294 H 0.97567 0.62598 0.92305 0.0
H295 H 0.83816 0.61657 0.79641 0.0
H296 H 0.85638 0.56944 0.87392 0.0
C297 C 0.31388 0.83045 0.87642 0.0
C298 C 0.29446 0.81472 0.85979 0.0
N299 N 0.29244 0.82825 0.83454 0.0
N300 N 0.32417 0.85405 0.86196 0.0
C301 C 0.31071 0.85201 0.83646 0.0
H302 H 0.32023 0.82459 0.89762 0.0
Co303 Co 0.35246 0.88259 0.87391 0.0
C304 C 0.308 0.92686 0.84985 0.0
O305 O 0.28713 0.92354 0.86883 0.0
N306 N 0.38022 0.91225 0.88564 0.0
C307 C 0.39571 0.9563 0.90105 0.0
C308 C 0.3717 0.93783 0.89793 0.0
C309 C 0.4099 0.91573 0.88186 0.0
N310 N 0.41974 0.94261 0.89059 0.0
O311 O 0.33064 0.88879 0.9082 0.0
H312 H 0.34905 0.94337 0.90309 0.0
H313 H 0.4239 0.89938 0.87193 0.0
O314 O 0.3321 0.91236 0.85194 0.0
C315 C 0.34498 0.8715 0.92477 0.0
O316 O 0.36724 0.8562 0.91448 0.0
N317 N 0.37578 0.87341 0.84325 0.0
C318 C 0.42637 0.85844 0.81446 0.0
C319 C 0.41376 0.88654 0.81074 0.0
C320 C 0.38805 0.89365 0.8254 0.0
C321 C 0.386 0.84503 0.84446 0.0
C322 C 0.41123 0.83688 0.82978 0.0
H323 H 0.3811 0.9165 0.82593 0.0
H324 H 0.37656 0.82951 0.8593 0.0
H325 H 0.31492 0.86731 0.81937 0.0
H326 H 0.28264 0.79491 0.86601 0.0
H327 H 0.39516 0.97884 0.90879 0.0
H328 H 0.42551 0.90377 0.79941 0.0
H329 H 0.42078 0.81516 0.83329 0.0
C330 C 0.1646 0.3128 0.86169 0.0
C331 C 0.17567 0.28831 0.84791 0.0
N332 N 0.16807 0.29018 0.82052 0.0
N333 N 0.15007 0.33017 0.84308 0.0
C334 C 0.15235 0.31558 0.81826 0.0
H335 H 0.16851 0.31827 0.88351 0.0
Co336 Co 0.13704 0.36957 0.84774 0.0
C337 C 0.08603 0.37416 0.80577 0.0
O338 O 0.08855 0.40298 0.8028 0.0
N339 N 0.12438 0.40949 0.85251 0.0
C340 C 0.12582 0.45863 0.85673 0.0
C341 C 0.14234 0.43342 0.85259 0.0
C342 C 0.09708 0.4208 0.85778 0.0
N343 N 0.09722 0.45079 0.85971 0.0
O344 O 0.11498 0.35903 0.88087 0.0
H345 H 0.16605 0.43278 0.84959 0.0
H346 H 0.07734 0.40729 0.85955 0.0
O347 O 0.10327 0.36004 0.8225 0.0
C348 C 0.13276 0.36575 0.90091 0.0
O349 O 0.15927 0.37567 0.89454 0.0
N350 N 0.16248 0.38095 0.81858 0.0
C351 C 0.20616 0.4149 0.79325 0.0
C352 C 0.17851 0.411 0.78002 0.0
C353 C 0.1569 0.39346 0.79297 0.0
C354 C 0.19055 0.38083 0.82924 0.0
C355 C 0.21288 0.39742 0.81673 0.0
H356 H 0.13553 0.39203 0.78325 0.0
H357 H 0.19491 0.37036 0.84931 0.0
H358 H 0.14456 0.32459 0.79845 0.0
H359 H 0.1891 0.27099 0.85719 0.0
H360 H 0.13418 0.48112 0.85659 0.0
H361 H 0.17246 0.42364 0.76149 0.0
H362 H 0.23421 0.39903 0.82712 0.0
C363 C 0.72756 0.13249 0.84813 0.0
C364 C 0.7465 0.15048 0.8331 0.0
N365 N 0.73071 0.17303 0.82208 0.0
N366 N 0.69977 0.14342 0.8467 0.0
C367 C 0.70253 0.16826 0.8308 0.0
H368 H 0.73359 0.11222 0.85889 0.0
Co369 Co 0.66552 0.12427 0.86135 0.0
C370 C 0.68313 0.06186 0.84468 0.0
O371 O 0.67807 0.04933 0.86919 0.0
N372 N 0.63151 0.10497 0.87546 0.0
C373 C 0.59226 0.09662 0.9025 0.0
C374 C 0.61662 0.11439 0.89826 0.0
C375 C 0.61546 0.08155 0.86594 0.0
N376 N 0.59138 0.07571 0.8822 0.0
O377 O 0.68608 0.11392 0.89562 0.0
H378 H 0.62281 0.13341 0.91077 0.0
H379 H 0.62124 0.06927 0.84725 0.0
O380 O 0.67826 0.08939 0.84122 0.0
C381 C 0.68773 0.13719 0.91094 0.0
O382 O 0.68281 0.16293 0.89882 0.0
N383 N 0.64336 0.13701 0.83113 0.0
C384 C 0.59476 0.15724 0.80108 0.0
C385 C 0.60991 0.13158 0.79243 0.0
C386 C 0.63442 0.1217 0.80789 0.0
C387 C 0.63019 0.16291 0.83855 0.0
C388 C 0.60607 0.17364 0.82365 0.0
H389 H 0.64448 0.10078 0.80246 0.0
H390 H 0.63721 0.17411 0.85755 0.0
H391 H 0.68407 0.18211 0.82477 0.0
H392 H 0.77004 0.14706 0.83041 0.0
H393 H 0.57618 0.09954 0.91909 0.0
H394 H 0.60177 0.11836 0.77504 0.0
H395 H 0.59482 0.19316 0.83143 0.0
C396 C 0.82303 0.32796 0.63988 0.0
C397 C 0.80419 0.31063 0.65546 0.0
N398 N 0.81921 0.29977 0.67767 0.0
N399 N 0.85 0.32841 0.65212 0.0
C400 C 0.84709 0.31054 0.67504 0.0
H401 H 0.81669 0.34125 0.62193 0.0
Co402 Co 0.87897 0.35607 0.64076 0.0
C403 C 0.93196 0.34719 0.67505 0.0
O404 O 0.93063 0.37591 0.67894 0.0
N405 N 0.90846 0.38431 0.62818 0.0
C406 C 0.95148 0.39793 0.609 0.0
C407 C 0.93116 0.37563 0.61154 0.0
C408 C 0.9157 0.41275 0.63508 0.0
N409 N 0.94223 0.42116 0.62428 0.0
O410 O 0.88414 0.33468 0.60596 0.0
H411 H 0.93412 0.35358 0.60321 0.0
H412 H 0.90354 0.42599 0.65004 0.0
O413 O 0.91147 0.33395 0.66091 0.0
C414 C 0.86969 0.34933 0.58731 0.0
O415 O 0.85506 0.37296 0.5955 0.0
N416 N 0.8696 0.37844 0.67236 0.0
C417 C 0.84614 0.41508 0.71339 0.0
C418 C 0.86161 0.38944 0.7211 0.0
C419 C 0.87277 0.371 0.70014 0.0
C420 C 0.85251 0.40192 0.6647 0.0
C421 C 0.84087 0.4208 0.68485 0.0
H422 H 0.88411 0.35103 0.7064 0.0
H423 H 0.84834 0.40624 0.64265 0.0
H424 H 0.86419 0.30739 0.69073 0.0
H425 H 0.78065 0.3079 0.65187 0.0
H426 H 0.97229 0.39648 0.59781 0.0
H427 H 0.86581 0.38418 0.74301 0.0
H428 H 0.82832 0.44004 0.67816 0.0
C429 C 0.68696 0.82585 0.65067 0.0
C430 C 0.70659 0.8089 0.66591 0.0
N431 N 0.72273 0.82692 0.68255 0.0
N432 N 0.69049 0.8546 0.65746 0.0
C433 C 0.71307 0.85463 0.67644 0.0
H434 H 0.66964 0.81744 0.6371 0.0
Co435 Co 0.66205 0.88352 0.6477 0.0
C436 C 0.67331 0.93512 0.68352 0.0
O437 O 0.64441 0.93615 0.68626 0.0
N438 N 0.63303 0.91301 0.63681 0.0
C439 C 0.61758 0.95514 0.61694 0.0
C440 C 0.64113 0.93649 0.62085 0.0
C441 C 0.60384 0.9183 0.64228 0.0
N442 N 0.594 0.94404 0.63069 0.0
O443 O 0.68131 0.88939 0.61188 0.0
H444 H 0.66328 0.94058 0.61317 0.0
H445 H 0.59028 0.90465 0.65571 0.0
O446 O 0.68513 0.91526 0.66765 0.0
C447 C 0.66655 0.87371 0.59429 0.0
O448 O 0.64468 0.85747 0.60408 0.0
N449 N 0.64202 0.8738 0.68072 0.0
C450 C 0.61113 0.85113 0.72657 0.0
C451 C 0.63936 0.86348 0.73014 0.0
C452 C 0.65437 0.87473 0.70699 0.0
C453 C 0.61633 0.85875 0.67641 0.0
C454 C 0.5999 0.84826 0.69906 0.0
H455 H 0.67615 0.88371 0.7104 0.0
H456 H 0.60824 0.85545 0.65519 0.0
H457 H 0.72041 0.87422 0.68755 0.0
H458 H 0.70771 0.78494 0.66583 0.0
H459 H 0.61816 0.97563 0.60512 0.0
H460 H 0.64977 0.86482 0.75065 0.0
H461 H 0.5783 0.83888 0.69483 0.0
C462 C 0.16423 0.70446 0.64891 0.0
C463 C 0.17667 0.72983 0.65986 0.0
N464 N 0.17681 0.72765 0.68814 0.0
N465 N 0.15631 0.68614 0.67011 0.0
C466 C 0.16398 0.7012 0.69376 0.0
H467 H 0.16238 0.69947 0.62676 0.0
Co468 Co 0.14257 0.64645 0.66765 0.0
C469 C 0.09176 0.64304 0.70825 0.0
O470 O 0.09799 0.61536 0.71456 0.0
N471 N 0.12881 0.60682 0.66501 0.0
C472 C 0.1242 0.55772 0.66637 0.0
C473 C 0.14329 0.58122 0.6702 0.0
C474 C 0.1012 0.59812 0.65727 0.0
N475 N 0.09756 0.56838 0.65843 0.0
O476 O 0.12143 0.65478 0.63331 0.0
H477 H 0.16611 0.57948 0.67685 0.0
H478 H 0.08385 0.61354 0.65157 0.0
O479 O 0.10799 0.65735 0.69074 0.0
C480 C 0.13917 0.64672 0.61383 0.0
O481 O 0.16615 0.63871 0.62092 0.0
N482 N 0.16675 0.63669 0.69827 0.0
C483 C 0.20869 0.60775 0.73073 0.0
C484 C 0.18215 0.61754 0.74295 0.0
C485 C 0.16139 0.63252 0.72628 0.0
C486 C 0.19419 0.63137 0.68753 0.0
C487 C 0.21558 0.61686 0.7034 0.0
H488 H 0.14098 0.63949 0.73578 0.0
H489 H 0.1986 0.63608 0.66564 0.0
H490 H 0.16095 0.69261 0.71481 0.0
H491 H 0.18631 0.74777 0.64781 0.0
H492 H 0.12942 0.53464 0.67006 0.0
H493 H 0.17636 0.61143 0.76431 0.0
H494 H 0.2361 0.61019 0.69346 0.0
C495 C 0.28251 0.12026 0.66127 0.0
C496 C 0.25777 0.13487 0.671 0.0
N497 N 0.26672 0.15784 0.68697 0.0
N498 N 0.30711 0.134 0.67081 0.0
C499 C 0.29664 0.15691 0.68636 0.0
H500 H 0.28253 0.1004 0.64856 0.0
Co501 Co 0.34655 0.12115 0.66504 0.0
C502 C 0.34852 0.06321 0.6969 0.0
O503 O 0.37665 0.06685 0.70314 0.0
N504 N 0.38629 0.10832 0.65858 0.0
C505 C 0.43537 0.10841 0.65354 0.0
C506 C 0.4109 0.12535 0.65925 0.0
C507 C 0.39657 0.0813 0.65054 0.0
N508 N 0.42651 0.08047 0.64832 0.0
O509 O 0.33744 0.1082 0.62746 0.0
H510 H 0.41153 0.14882 0.66328 0.0
H511 H 0.38231 0.06242 0.64685 0.0
O512 O 0.33501 0.08264 0.68192 0.0
C513 C 0.33871 0.13075 0.6112 0.0
O514 O 0.34045 0.15713 0.62277 0.0
N515 N 0.35711 0.13701 0.70008 0.0
C516 C 0.3891 0.16239 0.74345 0.0
C517 C 0.37136 0.13739 0.74857 0.0
C518 C 0.35477 0.12533 0.72652 0.0
C519 C 0.36938 0.16428 0.69642 0.0
C520 C 0.38589 0.17732 0.71775 0.0
H521 H 0.34144 0.10606 0.73065 0.0
H522 H 0.36867 0.17461 0.67586 0.0
H523 H 0.31054 0.17265 0.69728 0.0
H524 H 0.23496 0.12847 0.66738 0.0
H525 H 0.45806 0.11615 0.65395 0.0
H526 H 0.37208 0.12606 0.76869 0.0
H527 H 0.39858 0.19704 0.71291 0.0
H528 H 0.92583 0.48661 0.12824 0.0
H529 H 0.9751 0.56778 0.14315 0.0
H530 H 0.02125 0.53868 0.14709 0.0
H531 H 0.96829 0.43969 0.17516 0.0
H532 H 0.96617 0.40798 0.15226 0.0
H533 H 0.93686 0.43506 0.15209 0.0
H534 H 0.94356 0.44231 0.09829 0.0
H535 H 0.97288 0.41529 0.09831 0.0
H536 H 0.97954 0.45198 0.08465 0.0
H537 H 0.06229 0.50038 0.14875 0.0
H538 H 0.09467 0.45675 0.14776 0.0
H539 H 0.01865 0.401 0.1288 0.0
C540 C 0.94623 0.49847 0.13215 0.0
C541 C 0.9466 0.5297 0.13529 0.0
C542 C 0.97398 0.54396 0.14095 0.0
C543 C 1.0004 0.52759 0.14309 0.0
C544 C 0.99916 0.49694 0.13952 0.0
C545 C 0.97275 0.48253 0.13422 0.0
C546 C 0.97741 0.44947 0.13073 0.0
C547 C 0.96122 0.43203 0.15394 0.0
C548 C 0.96778 0.43917 0.10124 0.0
C549 C 0.01068 0.44754 0.13438 0.0
C550 C 0.02279 0.47509 0.13972 0.0
C551 C 0.05304 0.47876 0.14429 0.0
C552 C 0.07138 0.45366 0.14338 0.0
C553 C 0.05956 0.42506 0.13772 0.0
C554 C 0.02867 0.42227 0.13315 0.0
H555 H 0.53725 0.06452 0.14123 0.0
H556 H 0.46884 0.11146 0.09498 0.0
H557 H 0.43317 0.07147 0.10623 0.0
H558 H 0.51451 0.99037 0.11995 0.0
H559 H 0.52395 0.9747 0.15371 0.0
H560 H 0.54373 0.00661 0.14066 0.0
H561 H 0.53064 0.03444 0.18677 0.0
H562 H 0.51029 1.00277 0.19933 0.0
H563 H 0.4923 0.03833 0.19674 0.0
H564 H 0.40489 0.02521 0.12287 0.0
H565 H 0.38784 0.97681 0.14153 0.0
H566 H 0.47477 0.96238 0.17817 0.0
C567 C 0.51496 0.06625 0.13297 0.0
C568 C 0.50595 0.09118 0.11704 0.0
C569 C 0.47625 0.09267 0.10729 0.0
C570 C 0.45583 0.07005 0.11359 0.0
C571 C 0.46536 0.04606 0.12979 0.0
C572 C 0.49431 0.04403 0.13918 0.0
C573 C 0.49912 0.01611 0.15623 0.0
C574 C 0.5217 0.99575 0.14176 0.0
C575 C 0.50863 0.02336 0.18656 0.0
C576 C 0.46837 1.00281 0.15523 0.0
C577 C 0.44913 0.0202 0.13977 0.0
C578 C 0.4198 0.01152 0.13512 0.0
C579 C 0.41021 0.98406 0.14598 0.0
C580 C 0.42991 0.96558 0.16128 0.0
C581 C 0.45914 0.97566 0.16634 0.0
H582 H 0.97598 0.44446 0.32041 0.0
H583 H 0.90449 0.45834 0.37987 0.0
H584 H 0.92853 0.50454 0.39592 0.0
H585 H 0.03524 0.46995 0.36356 0.0
H586 H 0.05488 0.48878 0.33582 0.0
H587 H 0.0321 0.4571 0.32775 0.0
H588 H 1.00309 0.48754 0.29156 0.0
H589 H 0.02389 0.52075 0.29913 0.0
H590 H 0.98423 0.52087 0.30221 0.0
H591 H 0.96062 0.54954 0.40553 0.0
H592 H 0.99759 0.5901 0.40704 0.0
H593 H 0.04873 0.54627 0.34227 0.0
C594 C 0.96545 0.45703 0.33697 0.0
C595 C 0.93829 0.44755 0.34894 0.0
C596 C 0.92506 0.46516 0.37015 0.0
C597 C 0.93868 0.49138 0.37956 0.0
C598 C 0.96554 0.49987 0.3675 0.0
C599 C 0.9787 0.4833 0.34654 0.0
C600 C 0.0072 0.49771 0.33654 0.0
C601 C 0.03393 0.47715 0.34119 0.0
C602 C 0.00445 0.50724 0.30552 0.0
C603 C 0.00856 0.52447 0.35575 0.0
C604 C 0.98413 0.52551 0.37323 0.0
C605 C 0.97989 0.54882 0.39203 0.0
C606 C 1.00096 0.57174 0.39276 0.0
C607 C 0.02616 0.57114 0.37506 0.0
C608 C 0.03005 0.54697 0.35651 0.0
H609 H 0.51245 0.92412 0.35525 0.0
H610 H 0.59564 0.97049 0.36554 0.0
H611 H 0.56817 0.01672 0.3768 0.0
H612 H 0.47709 0.97779 0.31866 0.0
H613 H 0.44091 0.97215 0.33376 0.0
H614 H 0.46687 0.94204 0.33262 0.0
H615 H 0.46253 0.93513 0.38658 0.0
H616 H 0.43617 0.96508 0.38791 0.0
H617 H 0.46898 0.96622 0.40959 0.0
H618 H 0.53075 0.05955 0.37871 0.0
H619 H 0.48814 0.09355 0.37234 0.0
H620 H 0.43006 0.01801 0.36097 0.0
C621 C 0.52485 0.94382 0.36079 0.0
C622 C 0.5561 0.94385 0.35971 0.0
C623 C 0.5717 0.97 0.36676 0.0
C624 C 0.55623 0.99631 0.37301 0.0
C625 C 0.52523 0.99584 0.37253 0.0
C626 C 0.50979 0.96999 0.36703 0.0
C627 C 0.47681 0.97549 0.36485 0.0
C628 C 0.46474 0.96634 0.33575 0.0
C629 C 0.46014 0.95954 0.38866 0.0
C630 C 0.47602 0.00871 0.36871 0.0
C631 C 0.504 0.02015 0.37356 0.0
C632 C 0.50872 0.05069 0.37553 0.0
C633 C 0.48436 0.06987 0.37198 0.0
C634 C 0.45574 0.05846 0.36619 0.0
C635 C 0.45164 0.02745 0.3653 0.0
H636 H 0.01534 0.60297 0.89472 0.0
H637 H 0.93778 0.56821 0.85211 0.0
H638 H 0.9648 0.52172 0.8421 0.0
H639 H 0.06932 0.57064 0.84681 0.0
H640 H 0.0959 0.56344 0.87437 0.0
H641 H 0.07049 0.59401 0.87753 0.0
H642 H 0.05243 0.57333 0.92544 0.0
H643 H 0.0776 0.54257 0.92237 0.0
H644 H 0.0386 0.5359 0.92742 0.0
H645 H 0.99993 0.47747 0.83926 0.0
H646 H 0.04144 0.44166 0.83959 0.0
H647 H 0.09627 0.50584 0.88325 0.0
C648 C 0.00407 0.58559 0.88324 0.0
C649 C 0.97436 0.58924 0.8743 0.0
C650 C 0.96057 0.56609 0.85896 0.0
C651 C 0.9757 0.53949 0.85336 0.0
C652 C 0.0048 0.53642 0.86293 0.0
C653 C 0.01897 0.55905 0.87719 0.0
C654 C 0.05046 0.55043 0.88482 0.0
C655 C 0.07286 0.57084 0.86999 0.0
C656 C 0.05502 0.55056 0.91692 0.0
C657 C 0.05168 0.51919 0.87311 0.0
C658 C 0.0251 0.51143 0.86067 0.0
C659 C 0.02087 0.48343 0.84885 0.0
C660 C 0.04451 0.46309 0.84936 0.0
C661 C 0.07221 0.47081 0.86143 0.0
C662 C 0.07554 0.49927 0.87361 0.0
H663 H 0.44845 0.98134 0.92481 0.0
H664 H 0.4545 0.93699 0.84433 0.0
H665 H 0.50076 0.96447 0.83384 0.0
H666 H 0.47159 0.05184 0.90088 0.0
H667 H 0.49209 0.06096 0.9323 0.0
H668 H 0.46109 0.03594 0.93426 0.0
H669 H 0.49458 0.99593 0.95715 0.0
H670 H 0.52565 0.02095 0.95546 0.0
H671 H 0.52814 0.98477 0.93962 0.0
H672 H 0.54492 1.00035 0.83105 0.0
H673 H 0.58315 0.03889 0.83677 0.0
H674 H 0.5479 0.05929 0.9196 0.0
C675 C 0.45978 0.97712 0.90517 0.0
C676 C 0.44823 0.95644 0.88564 0.0
C677 C 0.46353 0.95182 0.86001 0.0
C678 C 0.48962 0.96768 0.85375 0.0
C679 C 0.50022 0.98817 0.87336 0.0
C680 C 0.48584 0.99271 0.89866 0.0
C681 C 0.50113 0.01656 0.91584 0.0
C682 C 0.48023 0.04288 0.92112 0.0
C683 C 0.51309 0.00378 0.94366 0.0
C684 C 0.52616 0.0251 0.89616 0.0
C685 C 0.52535 0.00853 0.87176 0.0
C686 C 0.54585 0.01322 0.85024 0.0
C687 C 0.56767 0.03528 0.85376 0.0
C688 C 0.56907 0.05262 0.8787 0.0
C689 C 0.54784 0.04702 0.90011 0.0
H690 H 1.00237 0.42421 0.62672 0.0
H691 H 0.9227 0.47637 0.63845 0.0
H692 H 0.95377 0.52045 0.64896 0.0
H693 H 0.04574 0.45786 0.68108 0.0
H694 H 0.07977 0.45623 0.66138 0.0
H695 H 0.05131 0.429 0.65542 0.0
H696 H 0.05037 0.44204 0.60237 0.0
H697 H 0.07904 0.46917 0.60793 0.0
H698 H 0.0446 0.47993 0.5916 0.0
H699 H 0.99471 0.55928 0.65687 0.0
H700 H 0.04064 0.58834 0.66303 0.0
H701 H 0.0927 0.51001 0.64442 0.0
C702 C 0.99126 0.44491 0.63114 0.0
C703 C 0.95994 0.44688 0.6313 0.0
C704 C 0.94658 0.47431 0.63817 0.0
C705 C 0.96409 0.49945 0.64406 0.0
C706 C 0.99493 0.49674 0.64316 0.0
C707 C 0.00831 0.47003 0.637 0.0
C708 C 0.04176 0.47263 0.6372 0.0
C709 C 0.05543 0.45275 0.66014 0.0
C710 C 0.0547 0.46553 0.60804 0.0
C711 C 0.04533 0.50511 0.6443 0.0
C712 C 0.01813 0.51871 0.64769 0.0
C713 C 0.01606 0.54876 0.6542 0.0
C714 C 0.04236 0.56519 0.65744 0.0
C715 C 0.07052 0.55162 0.65415 0.0
C716 C 0.07172 0.52113 0.6474 0.0
H717 H 0.48351 0.08086 0.62955 0.0
H718 H 0.41374 0.02213 0.65847 0.0
H719 H 0.44843 0.97977 0.65575 0.0
H720 H 0.51931 0.02994 0.58181 0.0
H721 H 0.55592 0.04289 0.59071 0.0
H722 H 0.52479 0.06771 0.59297 0.0
H723 H 0.53775 0.07856 0.64515 0.0
H724 H 0.56885 0.05373 0.64309 0.0
H725 H 0.54095 0.0482 0.66968 0.0
H726 H 0.49295 0.94379 0.65194 0.0
H727 H 0.54132 0.91863 0.64642 0.0
H728 H 0.58113 1.00263 0.62271 0.0
C729 C 0.47531 0.05917 0.63529 0.0
C730 C 0.44569 0.05506 0.64423 0.0
C731 C 0.4361 0.02599 0.65116 0.0
C732 C 0.45577 1.00175 0.64987 0.0
C733 C 0.48501 0.00685 0.6416 0.0
C734 C 0.4946 0.03493 0.63434 0.0
C735 C 0.52724 0.03509 0.62713 0.0
C736 C 0.53209 0.04446 0.59632 0.0
C737 C 0.54472 0.05507 0.64748 0.0
C738 C 0.53473 1.00274 0.63157 0.0
C739 C 0.5102 0.98664 0.63981 0.0
C740 C 0.51222 0.9563 0.64541 0.0
C741 C 0.53992 0.94218 0.64238 0.0
C742 C 0.56538 0.95836 0.6339 0.0
C743 C 0.56237 0.98913 0.62862 0.0
H744 H 0.24003 0.29451 0.21343 0.0
H745 H 0.29429 0.37381 0.20675 0.0
H746 H 0.32848 0.35368 0.24206 0.0
H747 H 0.24827 0.28581 0.2886 0.0
H748 H 0.24979 0.24592 0.2875 0.0
H749 H 0.22955 0.26596 0.26086 0.0
H750 H 0.26043 0.24033 0.22204 0.0
H751 H 0.28076 0.22019 0.24856 0.0
H752 H 0.3003 0.24261 0.2232 0.0
H753 H 0.35657 0.32608 0.27882 0.0
H754 H 0.37742 0.29191 0.31404 0.0
H755 H 0.30539 0.23023 0.29858 0.0
C756 C 0.25903 0.30772 0.21937 0.0
C757 C 0.26431 0.33583 0.20682 0.0
C758 C 0.28973 0.35209 0.21533 0.0
C759 C 0.30932 0.34092 0.23567 0.0
C760 C 0.3034 0.31336 0.24757 0.0
C761 C 0.27895 0.29688 0.23977 0.0
C762 C 0.2778 0.26793 0.2562 0.0
C763 C 0.24968 0.26632 0.27437 0.0
C764 C 0.27996 0.24118 0.2363 0.0
C765 C 0.30543 0.27081 0.27436 0.0
C766 C 0.31973 0.29729 0.26903 0.0
C767 C 0.34553 0.3053 0.28324 0.0
C768 C 0.35711 0.28577 0.30343 0.0
C769 C 0.34303 0.25836 0.30937 0.0
C770 C 0.31681 0.25087 0.29446 0.0
H771 H 0.77785 0.25694 0.28847 0.0
H772 H 0.74817 0.34561 0.26798 0.0
H773 H 0.71661 0.32522 0.22968 0.0
H774 H 0.78309 0.23176 0.21703 0.0
H775 H 0.77117 0.19458 0.22513 0.0
H776 H 0.79013 0.21623 0.2514 0.0
H777 H 0.74638 0.20837 0.28588 0.0
H778 H 0.72729 0.18667 0.25972 0.0
H779 H 0.70943 0.21847 0.27506 0.0
H780 H 0.68669 0.29398 0.19457 0.0
H781 H 0.66499 0.25566 0.1632 0.0
H782 H 0.71738 0.18835 0.2051 0.0
C783 C 0.76444 0.27201 0.27611 0.0
C784 C 0.76501 0.30281 0.28139 0.0
C785 C 0.74785 0.32195 0.26427 0.0
C786 C 0.72986 0.31053 0.24259 0.0
C787 C 0.72971 0.27996 0.238 0.0
C788 C 0.7469 0.26105 0.25411 0.0
C789 C 0.74395 0.22928 0.24425 0.0
C790 C 0.77386 0.21727 0.23383 0.0
C791 C 0.73099 0.20954 0.26762 0.0
C792 C 0.72225 0.23311 0.22017 0.0
C793 C 0.71396 0.26242 0.21705 0.0
C794 C 0.69328 0.27104 0.19671 0.0
C795 C 0.68099 0.24918 0.17907 0.0
C796 C 0.68979 0.21918 0.18154 0.0
C797 C 0.71067 0.2112 0.20241 0.0
H798 H 0.73685 0.7498 0.3124 0.0
H799 H 0.66559 0.78441 0.26037 0.0
H800 H 0.68482 0.75685 0.21982 0.0
H801 H 0.79275 0.75499 0.26095 0.0
H802 H 0.81143 0.72117 0.27063 0.0
H803 H 0.79061 0.74134 0.29658 0.0
H804 H 0.7595 0.6944 0.30719 0.0
H805 H 0.78027 0.67407 0.28124 0.0
H806 H 0.74045 0.67588 0.27883 0.0
H807 H 0.71459 0.73045 0.18342 0.0
H808 H 0.75206 0.70456 0.15434 0.0
H809 H 0.8033 0.68496 0.22911 0.0
C810 C 0.72508 0.75123 0.29257 0.0
C811 C 0.6994 0.76909 0.28989 0.0
C812 C 0.68479 0.77044 0.26342 0.0
C813 C 0.6957 0.75497 0.24007 0.0
C814 C 0.72117 0.73792 0.24336 0.0
C815 C 0.73558 0.73568 0.26898 0.0
C816 C 0.76327 0.71675 0.26639 0.0
C817 C 0.79116 0.73464 0.27409 0.0
C818 C 0.76071 0.6886 0.28449 0.0
C819 C 0.76252 0.70936 0.2352 0.0
C820 C 0.73798 0.72182 0.22235 0.0
C821 C 0.73353 0.72005 0.19333 0.0
C822 C 0.7548 0.70537 0.17698 0.0
C823 C 0.77992 0.69231 0.18968 0.0
C824 C 0.7837 0.69406 0.21917 0.0
H825 H 0.24251 0.7135 0.33086 0.0
H826 H 0.20504 0.64839 0.27379 0.0
H827 H 0.22915 0.67361 0.23381 0.0
H828 H 0.23365 0.77533 0.28707 0.0
H829 H 0.26802 0.79295 0.29681 0.0
H830 H 0.24971 0.76861 0.32128 0.0
H831 H 0.29723 0.73673 0.32532 0.0
H832 H 0.31578 0.76109 0.30094 0.0
H833 H 0.31387 0.72191 0.29388 0.0
H834 H 0.254 0.70818 0.19957 0.0
H835 H 0.27928 0.74855 0.17385 0.0
H836 H 0.30194 0.79039 0.25311 0.0
C837 C 0.23987 0.70404 0.31011 0.0
C838 C 0.22169 0.67885 0.30563 0.0
C839 C 0.21848 0.66778 0.27786 0.0
C840 C 0.23226 0.68187 0.25498 0.0
C841 C 0.24948 0.70694 0.26012 0.0
C842 C 0.25358 0.71778 0.28703 0.0
C843 C 0.27223 0.74579 0.28668 0.0
C844 C 0.25486 0.77222 0.29867 0.0
C845 C 0.30152 0.74109 0.30265 0.0
C846 C 0.2775 0.74932 0.25533 0.0
C847 C 0.26424 0.72662 0.2404 0.0
C848 C 0.26474 0.72587 0.21107 0.0
C849 C 0.279 0.74898 0.19663 0.0
C850 C 0.29271 0.77252 0.21144 0.0
C851 C 0.29216 0.77241 0.24123 0.0
H852 H 0.71801 0.77651 0.71372 0.0
H853 H 0.76982 0.85684 0.70476 0.0
H854 H 0.80159 0.84099 0.7448 0.0
H855 H 0.7193 0.77389 0.78901 0.0
H856 H 0.72158 0.73404 0.79049 0.0
H857 H 0.70355 0.75182 0.76113 0.0
H858 H 0.73839 0.72445 0.72654 0.0
H859 H 0.75639 0.70645 0.75577 0.0
H860 H 0.77795 0.72759 0.73093 0.0
H861 H 0.82883 0.81435 0.78583 0.0
H862 H 0.84693 0.78123 0.82396 0.0
H863 H 0.77585 0.71961 0.80537 0.0
C864 C 0.73625 0.79068 0.71984 0.0
C865 C 0.74162 0.81782 0.70573 0.0
C866 C 0.76527 0.83598 0.71516 0.0
C867 C 0.78346 0.82708 0.73786 0.0
C868 C 0.77754 0.80007 0.75118 0.0
C869 C 0.75432 0.78229 0.74249 0.0
C870 C 0.75204 0.75455 0.76034 0.0
C871 C 0.72236 0.75353 0.77618 0.0
C872 C 0.75647 0.72662 0.74232 0.0
C873 C 0.77773 0.75923 0.78039 0.0
C874 C 0.79235 0.7855 0.77485 0.0
C875 C 0.81733 0.79385 0.79038 0.0
C876 C 0.82753 0.77488 0.81198 0.0
C877 C 0.81266 0.74794 0.81808 0.0
C878 C 0.7874 0.7403 0.80191 0.0
H879 H 0.20225 0.71404 0.73883 0.0
H880 H 0.18428 0.78698 0.68171 0.0
H881 H 0.21157 0.82092 0.71322 0.0
H882 H 0.19536 0.75624 0.80395 0.0
H883 H 0.22503 0.73655 0.8212 0.0
H884 H 0.20312 0.71833 0.79462 0.0
H885 H 0.25082 0.70605 0.7668 0.0
H886 H 0.27287 0.72436 0.79319 0.0
H887 H 0.27559 0.73561 0.75685 0.0
H888 H 0.24229 0.8468 0.75056 0.0
H889 H 0.27286 0.86259 0.791 0.0
H890 H 0.27127 0.7726 0.82347 0.0
C891 C 0.20356 0.73723 0.73316 0.0
C892 C 0.19097 0.74779 0.7077 0.0
C893 C 0.19387 0.77827 0.70091 0.0
C894 C 0.20927 0.79777 0.71876 0.0
C895 C 0.22175 0.78655 0.74344 0.0
C896 C 0.21897 0.757 0.7507 0.0
C897 C 0.23512 0.75042 0.77806 0.0
C898 C 0.21335 0.73976 0.8008 0.0
C899 C 0.26008 0.72778 0.77343 0.0
C900 C 0.24747 0.78084 0.78501 0.0
C901 C 0.2395 0.80139 0.7648 0.0
C902 C 0.24862 0.83087 0.76652 0.0
C903 C 0.26621 0.83961 0.78954 0.0
C904 C 0.27463 0.81898 0.81065 0.0
C905 C 0.26502 0.78917 0.80809 0.0
H906 H 0.27874 0.18351 0.7377 0.0
H907 H 0.21226 0.17768 0.67194 0.0
H908 H 0.17963 0.21112 0.699 0.0
H909 H 0.22788 0.18308 0.79564 0.0
H910 H 0.24902 0.20881 0.8166 0.0
H911 H 0.26754 0.18525 0.79165 0.0
H912 H 0.29074 0.23128 0.76762 0.0
H913 H 0.27241 0.25499 0.79258 0.0
H914 H 0.26698 0.26071 0.75536 0.0
H915 H 0.15442 0.24592 0.73318 0.0
H916 H 0.13792 0.27771 0.77254 0.0
H917 H 0.22012 0.25972 0.81674 0.0
C918 C 0.25746 0.18955 0.72886 0.0
C919 C 0.24811 0.17806 0.70257 0.0
C920 C 0.21982 0.18605 0.69205 0.0
C921 C 0.20119 0.20513 0.70724 0.0
C922 C 0.211 0.21591 0.73313 0.0
C923 C 0.23843 0.20831 0.74393 0.0
C924 C 0.24332 0.22231 0.7726 0.0
C925 C 0.24716 0.19843 0.79547 0.0
C926 C 0.26994 0.24359 0.77199 0.0
C927 C 0.21441 0.23901 0.77623 0.0
C928 C 0.19615 0.2352 0.75313 0.0
C929 C 0.16852 0.24895 0.7514 0.0
C930 C 0.15935 0.26705 0.77381 0.0
C931 C 0.17756 0.27109 0.79783 0.0
C932 C 0.20544 0.25672 0.79893 0.0
H933 H 0.83319 0.24752 0.70363 0.0
H934 H 0.7737 0.32264 0.70656 0.0
H935 H 0.74615 0.29933 0.74568 0.0
H936 H 0.77805 0.19279 0.71527 0.0
H937 H 0.80075 0.169 0.73688 0.0
H938 H 0.81772 0.19266 0.71095 0.0
H939 H 0.8509 0.21607 0.74951 0.0
H940 H 0.8341 0.19236 0.77556 0.0
H941 H 0.83396 0.23197 0.78032 0.0
H942 H 0.72312 0.26688 0.78227 0.0
H943 H 0.70627 0.22752 0.8145 0.0
H944 H 0.77945 0.17202 0.78767 0.0
C945 C 0.81475 0.25917 0.71303 0.0
C946 C 0.80559 0.28695 0.7023 0.0
C947 C 0.78097 0.30138 0.71459 0.0
C948 C 0.76526 0.28833 0.73681 0.0
C949 C 0.77432 0.26066 0.74657 0.0
C950 C 0.79852 0.2462 0.7352 0.0
C951 C 0.80239 0.21587 0.7487 0.0
C952 C 0.79955 0.19112 0.72663 0.0
C953 C 0.8321 0.21396 0.76446 0.0
C954 C 0.77643 0.21549 0.76908 0.0
C955 C 0.76068 0.24165 0.76757 0.0
C956 C 0.73535 0.24632 0.78372 0.0
C957 C 0.72579 0.22368 0.80186 0.0
C958 C 0.74136 0.19648 0.80378 0.0
C959 C 0.76718 0.19258 0.78714 0.0
H960 H 0.18336 0.33265 0.05586 0.0
H961 H 0.13998 0.41412 0.08088 0.0
H962 H 0.11937 0.4194 0.03267 0.0
H963 H 0.20328 0.35644 0.98587 0.0
H964 H 0.19741 0.32017 0.97103 0.0
H965 H 0.20827 0.32382 0.00732 0.0
H966 H 0.1623 0.29287 0.02183 0.0
H967 H 0.1508 0.29003 0.98558 0.0
H968 H 0.12587 0.30512 0.01145 0.0
H969 H 0.10273 0.4147 0.98104 0.0
H970 H 0.09897 0.40516 0.92972 0.0
H971 H 0.1535 0.32706 0.93946 0.0
C972 C 0.16983 0.35185 0.05115 0.0
C973 C 0.16338 0.37304 0.07215 0.0
C974 C 0.14555 0.3978 0.06508 0.0
C975 C 0.13342 0.40074 0.03784 0.0
C976 C 0.13942 0.3788 0.01791 0.0
C977 C 0.15773 0.35516 0.02419 0.0
C978 C 0.16183 0.3351 0.99898 0.0
C979 C 0.19463 0.33383 0.99028 0.0
C980 C 0.14946 0.30394 1.00483 0.0
C981 C 0.1432 0.35121 0.97729 0.0
C982 C 0.12997 0.37611 0.98865 0.0
C983 C 0.11273 0.39508 0.9721 0.0
C984 C 0.11024 0.38924 0.94306 0.0
C985 C 0.12498 0.36475 0.93095 0.0
C986 C 0.14098 0.34519 0.94845 0.0
H987 H 0.69964 0.1819 0.94726 0.0
H988 H 0.66774 0.09138 0.94459 0.0
H989 H 0.64996 0.09625 0.99369 0.0
H990 H 0.71914 0.18432 0.02486 0.0
H991 H 0.70622 0.222 0.02735 0.0
H992 H 0.72244 0.20886 0.99504 0.0
H993 H 0.67529 0.22508 0.96797 0.0
H994 H 0.65869 0.23773 1.0001 0.0
H995 H 0.63974 0.21075 0.97866 0.0
H996 H 0.62712 0.11464 0.03957 0.0
H997 H 0.60396 0.14338 0.07755 0.0
H998 H 0.65042 0.22206 0.04997 0.0
C999 C 0.69009 0.16263 0.95741 0.0
C1000 C 0.68546 0.13611 0.94215 0.0
C1001 C 0.67219 0.11167 0.95599 0.0
C1002 C 0.66179 0.11437 0.98385 0.0
C1003 C 0.66517 0.14152 0.99769 0.0
C1004 C 0.67952 0.16506 0.98499 0.0
C1005 C 0.67735 0.19292 1.00268 0.0
C1006 C 0.70812 0.20259 0.01311 0.0
C1007 C 0.66184 0.21808 0.98638 0.0
C1008 C 0.65841 0.18187 0.02678 0.0
C1009 C 0.65199 0.15207 0.02385 0.0
C1010 C 0.63278 0.13776 0.0424 0.0
C1011 C 0.61977 0.15429 0.06422 0.0
C1012 C 0.62583 0.18486 0.0675 0.0
C1013 C 0.64568 0.19858 0.0485 0.0
H1014 H 0.89472 0.73371 0.96943 0.0
H1015 H 0.86924 0.66458 0.91112 0.0
H1016 H 0.84829 0.63556 0.95024 0.0
H1017 H 0.9185 0.68873 0.02288 0.0
H1018 H 0.90487 0.71172 0.051 0.0
H1019 H 0.91416 0.72807 0.01768 0.0
H1020 H 0.86129 0.75022 0.01398 0.0
H1021 H 0.85178 0.73374 0.04736 0.0
H1022 H 0.82955 0.72611 0.01664 0.0
H1023 H 0.83614 0.61097 0.99844 0.0
H1024 H 0.83503 0.59491 0.04868 0.0
H1025 H 0.86608 0.68176 0.07361 0.0
C1026 C 0.88421 0.71276 0.96458 0.0
C1027 C 0.88428 0.70137 0.93685 0.0
C1028 C 0.87017 0.67378 0.9319 0.0
C1029 C 0.85789 0.65715 0.95417 0.0
C1030 C 0.85918 0.66869 0.98139 0.0
C1031 C 0.87167 0.69617 0.98645 0.0
C1032 C 0.87236 0.70313 0.01755 0.0
C1033 C 0.90436 0.70818 0.02787 0.0
C1034 C 0.85256 0.72989 0.02427 0.0
C1035 C 0.85943 0.67483 0.02942 0.0
C1036 C 0.85152 0.65518 0.00844 0.0
C1037 C 0.84164 0.62651 0.01497 0.0
C1038 C 0.84081 0.61758 0.04353 0.0
C1039 C 0.85003 0.63725 0.06497 0.0
C1040 C 0.85841 0.66641 0.05766 0.0
H1041 H 0.34523 0.91234 0.96755 0.0
H1042 H 0.33307 0.81916 0.94927 0.0
H1043 H 0.33824 0.80712 0.99971 0.0
H1044 H 0.40059 0.90335 0.01694 0.0
H1045 H 0.38893 0.93219 0.04066 0.0
H1046 H 0.37979 0.93456 1.00381 0.0
H1047 H 0.32393 0.93885 0.01553 0.0
H1048 H 0.33298 0.93754 0.05247 0.0
H1049 H 0.30689 0.91144 0.03793 0.0
H1050 H 0.35152 0.80442 0.05138 0.0
H1051 H 0.36302 0.8127 0.10194 0.0
H1052 H 0.36645 0.90736 0.08655 0.0
C1053 C 0.3421 0.88966 0.97445 0.0
C1054 C 0.33786 0.86674 0.95469 0.0
C1055 C 0.33548 0.83708 0.96424 0.0
C1056 C 0.33877 0.82998 0.99281 0.0
C1057 C 0.34449 0.85283 0.01168 0.0
C1058 C 0.34541 0.88217 1.00305 0.0
C1059 C 0.35329 0.90228 0.02745 0.0
C1060 C 0.38238 0.91908 0.02186 0.0
C1061 C 0.32775 0.92379 0.03372 0.0
C1062 C 0.35707 0.87967 0.05086 0.0
C1063 C 0.35214 0.85123 0.04136 0.0
C1064 C 0.35513 0.82666 0.05915 0.0
C1065 C 0.36209 0.83146 0.08771 0.0
C1066 C 0.36576 0.86057 0.09804 0.0
C1067 C 0.36381 0.8848 0.07916 0.0
H1068 H 0.17495 0.64091 0.45085 0.0
H1069 H 0.09255 0.59389 0.43802 0.0
H1070 H 0.0833 0.59454 0.48949 0.0
H1071 H 0.1945 0.60608 0.52056 0.0
H1072 H 0.20996 0.6405 0.533 0.0
H1073 H 0.21151 0.63148 0.4961 0.0
H1074 H 0.18565 0.68137 0.48484 0.0
H1075 H 0.18277 0.68997 0.5217 0.0
H1076 H 0.14994 0.68919 0.50005 0.0
H1077 H 0.07999 0.60763 0.54218 0.0
H1078 H 0.08778 0.62321 0.59189 0.0
H1079 H 0.17251 0.66118 0.56891 0.0
C1080 C 0.15586 0.62925 0.45912 0.0
C1081 C 0.135 0.61635 0.44077 0.0
C1082 C 0.10937 0.60273 0.452 0.0
C1083 C 0.10372 0.60351 0.48113 0.0
C1084 C 0.12405 0.61788 0.49861 0.0
C1085 C 0.15006 0.62971 0.48804 0.0
C1086 C 0.16767 0.6453 0.51073 0.0
C1087 C 0.19768 0.62991 0.51538 0.0
C1088 C 0.17173 0.67841 0.5039 0.0
C1089 C 0.14732 0.64098 0.53564 0.0
C1090 C 0.12211 0.62535 0.52838 0.0
C1091 C 0.09983 0.61961 0.54809 0.0
C1092 C 0.10414 0.62894 0.57613 0.0
C1093 C 0.13056 0.64364 0.58402 0.0
C1094 C 0.15199 0.65016 0.56334 0.0
H1095 H 0.35365 0.19865 0.45755 0.0
H1096 H 0.40669 0.12255 0.43411 0.0
H1097 H 0.40029 0.10181 0.48209 0.0
H1098 H 0.38079 0.20429 0.53006 0.0
H1099 H 0.34507 0.21566 0.54303 0.0
H1100 H 0.35581 0.22458 0.50752 0.0
H1101 H 0.30813 0.19896 0.48917 0.0
H1102 H 0.29767 0.18923 0.52455 0.0
H1103 H 0.30116 0.16077 0.4982 0.0
H1104 H 0.38404 0.0877 0.53266 0.0
H1105 H 0.3664 0.08572 0.58216 0.0
H1106 H 0.32491 0.17155 0.57127 0.0
C1107 C 0.36448 0.1779 0.46262 0.0
C1108 C 0.38074 0.1623 0.44203 0.0
C1109 C 0.39443 0.13514 0.44959 0.0
C1110 C 0.39061 0.12301 0.47673 0.0
C1111 C 0.37333 0.13846 0.49617 0.0
C1112 C 0.36108 0.16567 0.48953 0.0
C1113 C 0.34351 0.17807 0.51391 0.0
C1114 C 0.35712 0.20738 0.52424 0.0
C1115 C 0.31068 0.18197 0.50597 0.0
C1116 C 0.34749 0.15356 0.53535 0.0
C1117 C 0.3645 0.13069 0.5248 0.0
C1118 C 0.37081 0.1056 0.54107 0.0
C1119 C 0.3604 0.10445 0.56905 0.0
C1120 C 0.34409 0.12836 0.58048 0.0
C1121 C 0.33718 0.15284 0.56309 0.0
H1122 H 0.83863 0.38191 0.42389 0.0
H1123 H 0.89376 0.30538 0.40583 0.0
H1124 H 0.9 0.29608 0.45623 0.0
H1125 H 0.88019 0.40654 0.48397 0.0
H1126 H 0.84822 0.41785 0.50392 0.0
H1127 H 0.84698 0.41834 0.46602 0.0
H1128 H 0.80054 0.38455 0.46688 0.0
H1129 H 0.80169 0.38395 0.50481 0.0
H1130 H 0.80201 0.34967 0.4854 0.0
H1131 H 0.9022 0.29535 0.50889 0.0
H1132 H 0.89936 0.30403 0.56035 0.0
H1133 H 0.8426 0.38003 0.54488 0.0
C1134 C 0.85182 0.36314 0.43058 0.0
C1135 C 0.86564 0.3445 0.41065 0.0
C1136 C 0.88287 0.32018 0.42043 0.0
C1137 C 0.8866 0.31455 0.44917 0.0
C1138 C 0.87294 0.3333 0.46825 0.0
C1139 C 0.85583 0.35707 0.45948 0.0
C1140 C 0.8441 0.37397 0.48466 0.0
C1141 C 0.85556 0.40607 0.48463 0.0
C1142 C 0.81007 0.37296 0.48548 0.0
C1143 C 0.85755 0.35612 0.50866 0.0
C1144 C 0.87406 0.3327 0.49876 0.0
C1145 C 0.88916 0.31354 0.51697 0.0
C1146 C 0.88743 0.31857 0.54616 0.0
C1147 C 0.87072 0.34255 0.55676 0.0
C1148 C 0.85549 0.36134 0.53759 0.0
H1149 H 0.62446 0.83843 0.43371 0.0
H1150 H 0.69074 0.90355 0.40977 0.0
H1151 H 0.70371 0.91102 0.45939 0.0
H1152 H 0.60002 0.87645 0.49597 0.0
H1153 H 0.59481 0.84316 0.51639 0.0
H1154 H 0.59105 0.84206 0.47866 0.0
H1155 H 0.6305 0.80045 0.47632 0.0
H1156 H 0.63442 0.80152 0.51407 0.0
H1157 H 0.66644 0.80643 0.49194 0.0
H1158 H 0.7092 0.91283 0.5121 0.0
H1159 H 0.70552 0.90871 0.56407 0.0
H1160 H 0.63647 0.84249 0.55411 0.0
C1161 C 0.64175 0.85413 0.43893 0.0
C1162 C 0.65648 0.87032 0.41761 0.0
C1163 C 0.67896 0.89079 0.4255 0.0
C1164 C 0.68664 0.89524 0.45376 0.0
C1165 C 0.67177 0.87908 0.47424 0.0
C1166 C 0.64978 0.85894 0.46727 0.0
C1167 C 0.63693 0.84497 0.49362 0.0
C1168 C 0.60374 0.8521 0.49631 0.0
C1169 C 0.64241 0.81135 0.494 0.0
C1170 C 0.65498 0.86055 0.51624 0.0
C1171 C 0.67503 0.88009 0.50466 0.0
C1172 C 0.69366 0.89745 0.52147 0.0
C1173 C 0.69151 0.89496 0.55096 0.0
C1174 C 0.67087 0.87526 0.56329 0.0
C1175 C 0.65265 0.85772 0.5455 0.0
H1176 H 0.08196 0.54678 0.28761 0.0
H1177 H 0.17294 0.57397 0.30192 0.0
H1178 H 0.19013 0.53391 0.27012 0.0
H1179 H 0.09636 0.46845 0.2867 0.0
H1180 H 0.06844 0.46151 0.2603 0.0
H1181 H 0.0646 0.49232 0.28391 0.0
H1182 H 0.05943 0.52748 0.24082 0.0
H1183 H 0.06429 0.49673 0.21718 0.0
H1184 H 0.08849 0.5284 0.21482 0.0
H1185 H 0.19675 0.48964 0.23589 0.0
H1186 H 0.19194 0.44472 0.20593 0.0
H1187 H 0.09646 0.44855 0.21528 0.0
C1188 C 0.10554 0.5445 0.28401 0.0
C1189 C 0.12611 0.56365 0.29711 0.0
C1190 C 0.15678 0.55952 0.29213 0.0
C1191 C 0.16671 0.53692 0.27399 0.0
C1192 C 0.1457 0.5186 0.26117 0.0
C1193 C 0.11575 0.52212 0.26624 0.0
C1194 C 0.0975 0.4992 0.25082 0.0
C1195 C 0.08076 0.47917 0.27167 0.0
C1196 C 0.07618 0.51384 0.22966 0.0
C1197 C 0.12171 0.4823 0.23603 0.0
C1198 C 0.14944 0.49362 0.24207 0.0
C1199 C 0.17508 0.48071 0.23105 0.0
C1200 C 0.17217 0.45531 0.21397 0.0
C1201 C 0.14386 0.4431 0.20836 0.0
C1202 C 0.11847 0.45721 0.21924 0.0
H1203 H 0.58186 0.14516 0.2419 0.0
H1204 H 0.55519 0.21202 0.18129 0.0
H1205 H 0.5141 0.22689 0.2124 0.0
H1206 H 0.51063 0.12141 0.25707 0.0
H1207 H 0.51684 0.11417 0.29396 0.0
H1208 H 0.54724 0.11231 0.26963 0.0
H1209 H 0.57621 0.15067 0.29946 0.0
H1210 H 0.54573 0.1527 0.32387 0.0
H1211 H 0.55947 0.18594 0.30732 0.0
H1212 H 0.47277 0.2303 0.24617 0.0
H1213 H 0.43188 0.2201 0.27919 0.0
H1214 H 0.48376 0.15073 0.3186 0.0
C1215 C 0.5679 0.16355 0.23568 0.0
C1216 C 0.57194 0.17783 0.20942 0.0
C1217 C 0.55259 0.20102 0.20143 0.0
C1218 C 0.52931 0.20971 0.21904 0.0
C1219 C 0.52551 0.19488 0.24456 0.0
C1220 C 0.54416 0.1722 0.25289 0.0
C1221 C 0.53291 0.15752 0.27965 0.0
C1222 C 0.52652 0.1244 0.27477 0.0
C1223 C 0.5549 0.16198 0.30402 0.0
C1224 C 0.50456 0.17486 0.28451 0.0
C1225 C 0.50111 0.19667 0.26424 0.0
C1226 C 0.47551 0.21379 0.26252 0.0
C1227 C 0.45244 0.20791 0.28137 0.0
C1228 C 0.4551 0.18522 0.30178 0.0
C1229 C 0.48176 0.16898 0.30388 0.0
H1230 H 0.83017 0.48012 0.324 0.0
H1231 H 0.7947 0.40887 0.27312 0.0
H1232 H 0.78589 0.44403 0.234 0.0
H1233 H 0.78392 0.54263 0.29414 0.0
H1234 H 0.81507 0.56764 0.29489 0.0
H1235 H 0.81196 0.53873 0.32098 0.0
H1236 H 0.86408 0.51932 0.30751 0.0
H1237 H 0.86737 0.5482 0.28167 0.0
H1238 H 0.87165 0.51003 0.27133 0.0
H1239 H 0.78796 0.48514 0.19803 0.0
H1240 H 0.8057 0.52638 0.16782 0.0
H1241 H 0.8417 0.57011 0.24128 0.0
C1242 C 0.81935 0.47227 0.30505 0.0
C1243 C 0.81238 0.44199 0.30179 0.0
C1244 C 0.7997 0.43213 0.27617 0.0
C1245 C 0.79451 0.45198 0.25388 0.0
C1246 C 0.80235 0.48165 0.25739 0.0
C1247 C 0.81464 0.49172 0.28236 0.0
C1248 C 0.82563 0.5233 0.27932 0.0
C1249 C 0.80809 0.54432 0.29847 0.0
C1250 C 0.85915 0.52531 0.28529 0.0
C1251 C 0.81865 0.52904 0.24854 0.0
C1252 C 0.80445 0.50511 0.23638 0.0
C1253 C 0.7984 0.5043 0.20748 0.0
C1254 C 0.80824 0.52792 0.19046 0.0
C1255 C 0.82424 0.55168 0.20241 0.0
C1256 C 0.82856 0.55262 0.23186 0.0
H1257 H 0.51849 0.83255 0.35088 0.0
H1258 H 0.57693 0.78741 0.29268 0.0
H1259 H 0.53588 0.78369 0.25826 0.0
H1260 H 0.44994 0.79123 0.33266 0.0
H1261 H 0.42739 0.82392 0.33649 0.0
H1262 H 0.46047 0.81963 0.35741 0.0
H1263 H 0.47965 0.87019 0.33895 0.0
H1264 H 0.44697 0.87448 0.31762 0.0
H1265 H 0.48308 0.87607 0.30156 0.0
H1266 H 0.48971 0.79155 0.22754 0.0
H1267 H 0.4416 0.80561 0.2058 0.0
H1268 H 0.41367 0.84331 0.28535 0.0
C1269 C 0.52249 0.8209 0.33135 0.0
C1270 C 0.55106 0.81032 0.32453 0.0
C1271 C 0.55531 0.79586 0.29836 0.0
C1272 C 0.5321 0.79364 0.27865 0.0
C1273 C 0.50456 0.80562 0.28554 0.0
C1274 C 0.49958 0.81845 0.31153 0.0
C1275 C 0.46864 0.83123 0.31331 0.0
C1276 C 0.45054 0.81556 0.33633 0.0
C1277 C 0.46966 0.86498 0.31814 0.0
C1278 C 0.45702 0.82387 0.28421 0.0
C1279 C 0.47802 0.80925 0.26833 0.0
C1280 C 0.47288 0.80238 0.24003 0.0
C1281 C 0.44556 0.81049 0.2278 0.0
C1282 C 0.42361 0.82498 0.24397 0.0
C1283 C 0.42959 0.83152 0.27256 0.0
H1284 H 0.85862 0.57344 0.77922 0.0
H1285 H 0.8172 0.54023 0.85547 0.0
H1286 H 0.80902 0.49188 0.83212 0.0
H1287 H 0.80925 0.53537 0.72943 0.0
H1288 H 0.83917 0.52942 0.70502 0.0
H1289 H 0.83929 0.56163 0.72738 0.0
H1290 H 0.89126 0.54694 0.74621 0.0
H1291 H 0.89123 0.51463 0.72417 0.0
H1292 H 0.89655 0.51079 0.76162 0.0
H1293 H 0.81041 0.44561 0.80116 0.0
H1294 H 0.81927 0.40696 0.76494 0.0
H1295 H 0.85726 0.47349 0.7098 0.0
C1296 C 0.84683 0.55653 0.79088 0.0
C1297 C 0.8383 0.56079 0.8191 0.0
C1298 C 0.82411 0.53742 0.83383 0.0
C1299 C 0.81916 0.50999 0.82069 0.0
C1300 C 0.82821 0.50661 0.79283 0.0
C1301 C 0.84142 0.52948 0.7781 0.0
C1302 C 0.85067 0.52024 0.74899 0.0
C1303 C 0.83356 0.5377 0.72637 0.0
C1304 C 0.88442 0.52332 0.74505 0.0
C1305 C 0.84126 0.48829 0.74973 0.0
C1306 C 0.82828 0.48063 0.77506 0.0
C1307 C 0.82 0.4515 0.78105 0.0
C1308 C 0.82522 0.42975 0.76053 0.0
C1309 C 0.83842 0.43753 0.73453 0.0
C1310 C 0.84627 0.46714 0.72916 0.0
H1311 H 0.567 0.8092 0.73114 0.0
H1312 H 0.61129 0.87939 0.77766 0.0
H1313 H 0.57213 0.8783 0.8127 0.0
H1314 H 0.50346 0.84178 0.73067 0.0
H1315 H 0.47925 0.81021 0.73426 0.0
H1316 H 0.51549 0.80554 0.71956 0.0
H1317 H 0.52847 0.76606 0.75721 0.0
H1318 H 0.49177 0.7699 0.77172 0.0
H1319 H 0.5238 0.77453 0.79401 0.0
H1320 H 0.52386 0.88215 0.83342 0.0
H1321 H 0.47019 0.8875 0.84066 0.0
H1322 H 0.45316 0.81927 0.77874 0.0
C1323 C 0.56892 0.82375 0.74912 0.0
C1324 C 0.59226 0.8445 0.75129 0.0
C1325 C 0.59415 0.86278 0.77548 0.0
C1326 C 0.57178 0.86243 0.79565 0.0
C1327 C 0.5476 0.84389 0.79133 0.0
C1328 C 0.54613 0.82446 0.76888 0.0
C1329 C 0.5152 0.81183 0.76546 0.0
C1330 C 0.50264 0.81773 0.73574 0.0
C1331 C 0.51479 0.7786 0.77254 0.0
C1332 C 0.49902 0.82953 0.78757 0.0
C1333 C 0.5184 0.84699 0.80293 0.0
C1334 C 0.50856 0.86805 0.82209 0.0
C1335 C 0.47813 0.87145 0.82558 0.0
C1336 C 0.45803 0.85429 0.80967 0.0
C1337 C 0.46844 0.83256 0.79099 0.0
H1338 H 0.21905 0.43893 0.74155 0.0
H1339 H 0.2321 0.45207 0.83113 0.0
H1340 H 0.24852 0.50288 0.82242 0.0
H1341 H 0.27967 0.49553 0.71696 0.0
H1342 H 0.25597 0.50685 0.68831 0.0
H1343 H 0.2559 0.46881 0.70004 0.0
H1344 H 0.19907 0.4716 0.70723 0.0
H1345 H 0.19897 0.50941 0.69586 0.0
H1346 H 0.184 0.49987 0.72985 0.0
H1347 H 0.246 0.55462 0.80708 0.0
H1348 H 0.22985 0.60158 0.78486 0.0
H1349 H 0.22078 0.55635 0.70501 0.0
C1350 C 0.22676 0.45213 0.75911 0.0
C1351 C 0.22442 0.4414 0.7869 0.0
C1352 C 0.23427 0.4594 0.80951 0.0
C1353 C 0.2436 0.48852 0.8048 0.0
C1354 C 0.24346 0.49926 0.77734 0.0
C1355 C 0.23608 0.48135 0.75469 0.0
C1356 C 0.23267 0.49939 0.72803 0.0
C1357 C 0.25755 0.49222 0.7071 0.0
C1358 C 0.20186 0.49481 0.7145 0.0
C1359 C 0.23621 0.53032 0.73981 0.0
C1360 C 0.24318 0.52985 0.76816 0.0
C1361 C 0.24193 0.55547 0.78464 0.0
C1362 C 0.23259 0.582 0.77198 0.0
C1363 C 0.22493 0.58258 0.74316 0.0
C1364 C 0.22787 0.55669 0.72681 0.0
H1365 H 0.42714 0.12192 0.76519 0.0
H1366 H 0.41202 0.21662 0.75868 0.0
H1367 H 0.46385 0.22581 0.77314 0.0
H1368 H 0.48068 0.12499 0.82611 0.0
H1369 H 0.50186 0.09488 0.81152 0.0
H1370 H 0.46243 0.09658 0.80582 0.0
H1371 H 0.47165 0.09345 0.75208 0.0
H1372 H 0.5111 0.09312 0.75742 0.0
H1373 H 0.49451 0.12102 0.73524 0.0
H1374 H 0.51899 0.22412 0.78045 0.0
H1375 H 0.57172 0.21205 0.78872 0.0
H1376 H 0.54971 0.11842 0.79089 0.0
C1377 C 0.43416 0.14464 0.76823 0.0
C1378 C 0.41554 0.16858 0.76092 0.0
C1379 C 0.42598 0.19798 0.76421 0.0
C1380 C 0.45538 0.20339 0.77227 0.0
C1381 C 0.47376 0.17914 0.77727 0.0
C1382 C 0.46333 0.15037 0.77618 0.0
C1383 C 0.48797 0.12813 0.78053 0.0
C1384 C 0.48294 0.11009 0.80761 0.0
C1385 C 0.49149 0.10775 0.75478 0.0
C1386 C 0.51404 0.14887 0.78345 0.0
C1387 C 0.50545 0.17818 0.7815 0.0
C1388 C 0.5259 0.20126 0.78257 0.0
C1389 C 0.55577 0.1942 0.78705 0.0
C1390 C 0.56479 0.16432 0.79043 0.0
C1391 C 0.54364 0.14144 0.78796 0.0
H1392 H 0.67328 1.00263 0.83472 0.0
H1393 H 0.71247 0.08143 0.79806 0.0
H1394 H 0.72335 0.05371 0.75451 0.0
H1395 H 0.72227 0.94676 0.79968 0.0
H1396 H 0.69185 0.92148 0.79434 0.0
H1397 H 0.69203 0.94582 0.8244 0.0
H1398 H 0.6407 0.9666 0.80967 0.0
H1399 H 0.64032 0.94204 0.77996 0.0
H1400 H 0.63586 0.98135 0.77466 0.0
H1401 H 0.72406 0.01919 0.71253 0.0
H1402 H 0.71049 0.98257 0.6757 0.0
H1403 H 0.67032 0.92714 0.73949 0.0
C1404 C 0.685 0.01374 0.81786 0.0
C1405 C 0.69239 0.04407 0.81995 0.0
C1406 C 0.70677 0.05813 0.79701 0.0
C1407 C 0.71322 0.04251 0.77222 0.0
C1408 C 0.70514 0.01275 0.77054 0.0
C1409 C 0.69124 0.99854 0.79278 0.0
C1410 C 0.68142 0.96768 0.78445 0.0
C1411 C 0.69789 0.94404 0.80175 0.0
C1412 C 0.64758 0.96424 0.78734 0.0
C1413 C 0.69103 0.96712 0.75388 0.0
C1414 C 0.70528 0.99301 0.74631 0.0
C1415 C 0.7136 0.9985 0.71839 0.0
C1416 C 0.70612 0.97751 0.6976 0.0
C1417 C 0.69037 0.95158 0.70491 0.0
C1418 C 0.68357 0.94611 0.73349 0.0
H1419 H 0.95746 0.65425 0.81678 0.0
H1420 H 0.92601 0.72979 0.76874 0.0
H1421 H 0.97061 0.72724 0.73873 0.0
H1422 H 0.03657 0.67065 0.81352 0.0
H1423 H 0.04679 0.63233 0.80917 0.0
H1424 H 0.01379 0.64178 0.82841 0.0
H1425 H 0.98273 0.60835 0.79557 0.0
H1426 H 0.01551 0.59878 0.7761 0.0
H1427 H 0.98396 0.61431 0.75803 0.0
H1428 H 0.01811 0.71571 0.7132 0.0
H1429 H 0.06313 0.69391 0.69203 0.0
H1430 H 0.06189 0.6242 0.75512 0.0
C1431 C 0.9602 0.67054 0.80027 0.0
C1432 C 0.93843 0.69241 0.79526 0.0
C1433 C 0.94248 0.7129 0.77297 0.0
C1434 C 0.96777 0.7117 0.7559 0.0
C1435 C 0.98867 0.68965 0.76118 0.0
C1436 C 0.98505 0.6693 0.7827 0.0
C1437 C 0.00965 0.64648 0.78264 0.0
C1438 C 0.02778 0.64792 0.81006 0.0
C1439 C 0.99721 0.61513 0.77778 0.0
C1440 C 0.02759 0.65712 0.75761 0.0
C1441 C 0.01535 0.68228 0.74576 0.0
C1442 C 0.02792 0.69602 0.72231 0.0
C1443 C 0.05351 0.68354 0.71045 0.0
C1444 C 0.06597 0.65734 0.72182 0.0
C1445 C 0.05285 0.64419 0.74584 0.0
H1446 H 0.36625 0.0083 0.71327 0.0
H1447 H 0.29371 0.07055 0.72062 0.0
H1448 H 0.27172 0.03977 0.75846 0.0
H1449 H 0.32058 0.93993 0.72843 0.0
H1450 H 0.35103 0.92299 0.74705 0.0
H1451 H 0.35818 0.94781 0.71807 0.0
H1452 H 0.39163 0.97958 0.75062 0.0
H1453 H 0.38413 0.95522 0.77972 0.0
H1454 H 0.37653 0.99428 0.78282 0.0
H1455 H 0.26308 0.00629 0.8017 0.0
H1456 H 0.26588 0.97075 0.84162 0.0
H1457 H 0.34084 0.92824 0.80174 0.0
C1458 C 0.34516 0.01484 0.72215 0.0
C1459 C 0.33155 0.04161 0.71393 0.0
C1460 C 0.30422 0.04981 0.72629 0.0
C1461 C 0.29169 0.03256 0.74795 0.0
C1462 C 0.30636 0.0068 0.75642 0.0
C1463 C 0.33208 0.99755 0.74324 0.0
C1464 C 0.34442 0.96989 0.75691 0.0
C1465 C 0.34348 0.94359 0.73639 0.0
C1466 C 0.37603 0.97508 0.76818 0.0
C1467 C 0.32254 0.96579 0.78066 0.0
C1468 C 0.30069 0.98716 0.78022 0.0
C1469 C 0.27976 0.98909 0.80183 0.0
C1470 C 0.28152 0.96884 0.82446 0.0
C1471 C 0.30403 0.94698 0.82526 0.0
C1472 C 0.32401 0.94512 0.80248 0.0
H1473 H 0.98811 0.36318 0.66943 0.0
H1474 H 0.93157 0.30184 0.71408 0.0
H1475 H 0.97086 0.29496 0.7502 0.0
H1476 H 0.06369 0.33391 0.69142 0.0
H1477 H 0.07701 0.37135 0.6954 0.0
H1478 H 0.04961 0.36293 0.66893 0.0
H1479 H 0.01528 0.40333 0.68978 0.0
H1480 H 0.04227 0.41146 0.71646 0.0
H1481 H 0.0051 0.40134 0.7264 0.0
H1482 H 0.01289 0.30315 0.78628 0.0
H1483 H 0.05086 0.32576 0.81764 0.0
H1484 H 0.07506 0.38667 0.75101 0.0
C1485 C 0.98484 0.34678 0.68585 0.0
C1486 C 0.95731 0.33227 0.68855 0.0
C1487 C 0.95298 0.3122 0.71105 0.0
C1488 C 0.97511 0.30855 0.73185 0.0
C1489 C 1.00118 0.32528 0.72979 0.0
C1490 C 0.00609 0.34387 0.70705 0.0
C1491 C 0.03238 0.36405 0.71195 0.0
C1492 C 0.05715 0.35765 0.69066 0.0
C1493 C 0.02319 0.39696 0.71111 0.0
C1494 C 0.0412 0.35467 0.74132 0.0
C1495 C 0.02361 0.33177 0.75115 0.0
C1496 C 0.02696 0.32078 0.77853 0.0
C1497 C 0.04849 0.33375 0.79624 0.0
C1498 C 0.06565 0.35803 0.78673 0.0
C1499 C 0.06214 0.36817 0.75883 0.0
H1500 H 0.3414 0.93949 0.30825 0.0
H1501 H 0.27183 0.95258 0.24608 0.0
H1502 H 0.2509 0.99227 0.27469 0.0
H1503 H 0.29834 0.9647 0.37263 0.0
H1504 H 0.33038 0.98383 0.38622 0.0
H1505 H 0.33493 0.95045 0.36586 0.0
H1506 H 0.3697 0.97831 0.33126 0.0
H1507 H 0.36562 0.01127 0.35183 0.0
H1508 H 0.35684 0.01198 0.3148 0.0
H1509 H 0.24371 0.03703 0.30313 0.0
H1510 H 0.25406 0.08473 0.32654 0.0
H1511 H 0.32917 0.0448 0.3691 0.0
C1512 C 0.32139 0.95021 0.3009 0.0
C1513 C 0.30818 0.94228 0.275 0.0
C1514 C 0.28203 0.95721 0.26623 0.0
C1515 C 0.26987 0.98001 0.28238 0.0
C1516 C 0.28402 0.98792 0.30729 0.0
C1517 C 0.3093 0.97349 0.31651 0.0
C1518 C 0.32344 0.98964 0.34096 0.0
C1519 C 0.32165 0.97104 0.36802 0.0
C1520 C 0.35577 0.99833 0.33428 0.0
C1521 C 0.30338 0.01647 0.34263 0.0
C1522 C 0.28014 0.01457 0.32374 0.0
C1523 C 0.26128 0.0385 0.31859 0.0
C1524 C 0.2673 0.06553 0.33193 0.0
C1525 C 0.29215 0.0684 0.34991 0.0
C1526 C 0.30933 0.04309 0.35635 0.0
H1527 H 0.07374 0.35425 0.23532 0.0
H1528 H 0.08103 0.25921 0.22286 0.0
H1529 H 0.02631 0.25547 0.22181 0.0
H1530 H 0.00953 0.35256 0.28096 0.0
H1531 H 0.99501 0.38631 0.26602 0.0
H1532 H 0.03435 0.38011 0.26679 0.0
H1533 H 0.03587 0.38878 0.2126 0.0
H1534 H 0.99629 0.39381 0.21176 0.0
H1535 H 0.0133 0.36603 0.18995 0.0
H1536 H 0.97073 0.26317 0.21877 0.0
H1537 H 0.91899 0.27937 0.22552 0.0
H1538 H 0.94997 0.3689 0.24166 0.0
C1539 C 0.06408 0.33237 0.23347 0.0
C1540 C 0.08181 0.30694 0.22937 0.0
C1541 C 0.0679 0.27898 0.22609 0.0
C1542 C 0.03689 0.27671 0.22513 0.0
C1543 C 0.02024 0.30259 0.22752 0.0
C1544 C 0.03339 0.32974 0.23237 0.0
C1545 C 0.01076 0.35424 0.23476 0.0
C1546 C 0.0125 0.36916 0.26386 0.0
C1547 C 0.01429 0.37705 0.21085 0.0
C1548 C 0.98262 0.3365 0.23124 0.0
C1549 C 0.9885 0.30691 0.22633 0.0
C1550 C 0.96588 0.28623 0.22293 0.0
C1551 C 0.93656 0.29568 0.2267 0.0
C1552 C 0.9303 0.32534 0.23455 0.0
C1553 C 0.95365 0.34619 0.23529 0.0
H1554 H 0.60498 0.90026 0.21409 0.0
H1555 H 0.70057 0.89302 0.21532 0.0
H1556 H 0.70414 0.93363 0.18067 0.0
H1557 H 0.60022 0.9283 0.13635 0.0
H1558 H 0.57065 0.95333 0.14466 0.0
H1559 H 0.57276 0.9178 0.16202 0.0
H1560 H 0.5728 0.94162 0.211 0.0
H1561 H 0.5692 0.97752 0.19526 0.0
H1562 H 0.59945 0.97018 0.21915 0.0
H1563 H 0.69831 0.98234 0.15806 0.0
H1564 H 0.68344 0.0336 0.14676 0.0
H1565 H 0.59159 0.01068 0.16161 0.0
C1566 C 0.62648 0.90601 0.20561 0.0
C1567 C 0.65248 0.8935 0.21698 0.0
C1568 C 0.68044 0.90225 0.20648 0.0
C1569 C 0.68263 0.92525 0.1868 0.0
C1570 C 0.65662 0.93893 0.17768 0.0
C1571 C 0.62896 0.92917 0.18623 0.0
C1572 C 0.60486 0.9505 0.17721 0.0
C1573 C 0.58598 0.93665 0.1537 0.0
C1574 C 0.5855 0.96054 0.20215 0.0
C1575 C 0.62359 0.97554 0.16582 0.0
C1576 C 0.65323 0.96784 0.16493 0.0
C1577 C 0.6751 0.98831 0.1578 0.0
C1578 C 0.66649 0.01739 0.15163 0.0
C1579 C 0.63636 0.02586 0.15329 0.0
C1580 C 0.61469 0.00456 0.16003 0.0
H1581 H 0.95486 0.7044 0.20283 0.0
H1582 H 0.90853 0.66605 0.27439 0.0
H1583 H 0.94 0.69455 0.30611 0.0
H1584 H 0.01915 0.68444 0.22698 0.0
H1585 H 0.04056 0.71521 0.21375 0.0
H1586 H 0.00673 0.70515 0.19667 0.0
H1587 H 0.98726 0.75873 0.20355 0.0
H1588 H 0.02127 0.76869 0.22119 0.0
H1589 H 0.98619 0.77459 0.23834 0.0
H1590 H 0.9825 0.71476 0.3303 0.0
H1591 H 0.03469 0.71253 0.34382 0.0
H1592 H 0.06056 0.72872 0.25744 0.0
C1593 C 0.95097 0.70184 0.22512 0.0
C1594 C 0.92911 0.68227 0.2357 0.0
C1595 C 0.9245 0.68104 0.2652 0.0
C1596 C 0.94239 0.6974 0.2836 0.0
C1597 C 0.96532 0.71449 0.27244 0.0
C1598 C 0.96991 0.71641 0.24374 0.0
C1599 C 1.00056 0.72818 0.23707 0.0
C1600 C 0.01773 0.70696 0.21753 0.0
C1601 C 0.9987 0.75941 0.22429 0.0
C1602 C 0.01367 0.7292 0.2664 0.0
C1603 C 0.99218 0.7237 0.28657 0.0
C1604 C 0.99936 0.71971 0.31483 0.0
C1605 C 0.02923 0.7186 0.32235 0.0
C1606 C 0.05153 0.72045 0.30151 0.0
C1607 C 0.04374 0.72777 0.27363 0.0
loop_
_geom_bond_atom_site_label_1
_geom_bond_atom_site_label_2
_geom_bond_distance
_geom_bond_site_symmetry_2
_ccdc_geom_bond_type
C0 C1 1.351 . S
C0 N3 1.368 . S
C0 H5 0.931 . S
C1 C0 1.351 . S
C1 N2 1.373 . S
C1 H29 0.930 . S
N2 C1 1.373 . S
N2 C4 1.340 . S
N3 C0 1.368 . S
N3 C4 1.321 . S
N3 Co6 2.135 . S
C4 N2 1.340 . S
C4 N3 1.321 . S
C4 H28 0.930 . S
H5 C0 0.931 . S
Co6 N3 2.135 . S
Co6 N9 2.121 . S
Co6 O14 2.055 . S
Co6 O17 2.039 . S
Co6 N20 2.140 . S
C7 O8 1.227 . S
C7 O17 1.265 . S
O8 C7 1.227 . S
N9 Co6 2.121 . S
N9 C11 1.375 . S
N9 C12 1.313 . S
C10 C11 1.338 . S
C10 N13 1.377 . S
C10 H30 0.930 . S
C11 N9 1.375 . S
C11 C10 1.338 . S
C11 H15 0.931 . S
C12 N9 1.313 . S
C12 N13 1.344 . S
C12 H16 0.930 . S
N13 C10 1.377 . S
N13 C12 1.344 . S
O14 Co6 2.055 . S
O14 C18 1.253 . S
H15 C11 0.931 . S
H16 C12 0.930 . S
O17 Co6 2.039 . S
O17 C7 1.265 . S
C18 O14 1.253 . S
C18 O19 1.227 . S
O19 C18 1.227 . S
N20 Co6 2.140 . S
N20 C23 1.346 . S
N20 C24 1.345 . S
C21 C22 1.387 . S
C21 C25 1.391 . S
C22 C21 1.387 . S
C22 C23 1.369 . S
C22 H31 0.929 . S
C23 N20 1.346 . S
C23 C22 1.369 . S
C23 H26 0.928 . S
C24 N20 1.345 . S
C24 C25 1.371 . S
C24 H27 0.931 . S
C25 C21 1.391 . S
C25 C24 1.371 . S
C25 H32 0.930 . S
H26 C23 0.928 . S
H27 C24 0.931 . S
H28 C4 0.930 . S
H29 C1 0.930 . S
H30 C10 0.930 . S
H31 C22 0.929 . S
H32 C25 0.930 . S
C33 C34 1.351 . S
C33 N36 1.368 . S
C33 H38 0.931 . S
C34 C33 1.351 . S
C34 N35 1.373 . S
C34 H62 0.930 . S
N35 C34 1.373 . S
N35 C37 1.340 . S
N36 C33 1.368 . S
N36 C37 1.321 . S
N36 Co39 2.135 . S
C37 N35 1.340 . S
C37 N36 1.321 . S
C37 H61 0.930 . S
H38 C33 0.931 . S
Co39 N36 2.135 . S
Co39 N42 2.121 . S
Co39 O47 2.055 . S
Co39 O50 2.039 . S
Co39 N53 2.140 . S
C40 O41 1.227 . S
C40 O50 1.265 . S
O41 C40 1.227 . S
N42 Co39 2.121 . S
N42 C44 1.375 . S
N42 C45 1.313 . S
C43 C44 1.338 . S
C43 N46 1.377 . S
C43 H63 0.930 . S
C44 N42 1.375 . S
C44 C43 1.338 . S
C44 H48 0.931 . S
C45 N42 1.313 . S
C45 N46 1.344 . S
C45 H49 0.930 . S
N46 C43 1.377 . S
N46 C45 1.344 . S
O47 Co39 2.055 . S
O47 C51 1.253 . S
H48 C44 0.931 . S
H49 C45 0.930 . S
O50 Co39 2.039 . S
O50 C40 1.265 . S
C51 O47 1.253 . S
C51 O52 1.227 . S
O52 C51 1.227 . S
N53 Co39 2.140 . S
N53 C56 1.346 . S
N53 C57 1.345 . S
C54 C55 1.387 . S
C54 C58 1.391 . S
C55 C54 1.387 . S
C55 C56 1.369 . S
C55 H64 0.929 . S
C56 N53 1.346 . S
C56 C55 1.369 . S
C56 H59 0.928 . S
C57 N53 1.345 . S
C57 C58 1.371 . S
C57 H60 0.931 . S
C58 C54 1.391 . S
C58 C57 1.371 . S
C58 H65 0.930 . S
H59 C56 0.928 . S
H60 C57 0.931 . S
H61 C37 0.930 . S
H62 C34 0.930 . S
H63 C43 0.930 . S
H64 C55 0.929 . S
H65 C58 0.930 . S
C66 C67 1.351 . S
C66 N69 1.368 . S
C66 H71 0.931 . S
C67 C66 1.351 . S
C67 N68 1.373 . S
C67 H95 0.930 . S
N68 C67 1.373 . S
N68 C70 1.340 . S
N69 C66 1.368 . S
N69 C70 1.321 . S
N69 Co72 2.135 . S
C70 N68 1.340 . S
C70 N69 1.321 . S
C70 H94 0.930 . S
H71 C66 0.931 . S
Co72 N69 2.135 . S
Co72 N75 2.121 . S
Co72 O80 2.055 . S
Co72 O83 2.039 . S
Co72 N86 2.140 . S
C73 O74 1.227 . S
C73 O83 1.265 . S
O74 C73 1.227 . S
N75 Co72 2.121 . S
N75 C77 1.375 . S
N75 C78 1.313 . S
C76 C77 1.338 . S
C76 N79 1.377 . S
C76 H96 0.930 . S
C77 N75 1.375 . S
C77 C76 1.338 . S
C77 H81 0.931 . S
C78 N75 1.313 . S
C78 N79 1.344 . S
C78 H82 0.930 . S
N79 C76 1.377 . S
N79 C78 1.344 . S
O80 Co72 2.055 . S
O80 C84 1.253 . S
H81 C77 0.931 . S
H82 C78 0.930 . S
O83 Co72 2.039 . S
O83 C73 1.265 . S
C84 O80 1.253 . S
C84 O85 1.227 . S
O85 C84 1.227 . S
N86 Co72 2.140 . S
N86 C89 1.346 . S
N86 C90 1.345 . S
C87 C88 1.387 . S
C87 C91 1.391 . S
C88 C87 1.387 . S
C88 C89 1.369 . S
C88 H97 0.929 . S
C89 N86 1.346 . S
C89 C88 1.369 . S
C89 H92 0.928 . S
C90 N86 1.345 . S
C90 C91 1.371 . S
C90 H93 0.931 . S
C91 C87 1.391 . S
C91 C90 1.371 . S
C91 H98 0.930 . S
H92 C89 0.928 . S
H93 C90 0.931 . S
H94 C70 0.930 . S
H95 C67 0.930 . S
H96 C76 0.930 . S
H97 C88 0.929 . S
H98 C91 0.930 . S
C99 C100 1.351 . S
C99 N102 1.368 . S
C99 H104 0.931 . S
C100 C99 1.351 . S
C100 N101 1.373 . S
C100 H128 0.930 . S
N101 C100 1.373 . S
N101 C103 1.340 . S
N102 C99 1.368 . S
N102 C103 1.321 . S
N102 Co105 2.135 . S
C103 N101 1.340 . S
C103 N102 1.321 . S
C103 H127 0.930 . S
H104 C99 0.931 . S
Co105 N102 2.135 . S
Co105 N108 2.121 . S
Co105 O113 2.055 . S
Co105 O116 2.039 . S
Co105 N119 2.140 . S
C106 O107 1.227 . S
C106 O116 1.265 . S
O107 C106 1.227 . S
N108 Co105 2.121 . S
N108 C110 1.375 . S
N108 C111 1.313 . S
C109 C110 1.338 . S
C109 N112 1.377 . S
C109 H129 0.930 . S
C110 N108 1.375 . S
C110 C109 1.338 . S
C110 H114 0.931 . S
C111 N108 1.313 . S
C111 N112 1.344 . S
C111 H115 0.930 . S
N112 C109 1.377 . S
N112 C111 1.344 . S
O113 Co105 2.055 . S
O113 C117 1.253 . S
H114 C110 0.931 . S
H115 C111 0.930 . S
O116 Co105 2.039 . S
O116 C106 1.265 . S
C117 O113 1.253 . S
C117 O118 1.227 . S
O118 C117 1.227 . S
N119 Co105 2.140 . S
N119 C122 1.346 . S
N119 C123 1.345 . S
C120 C121 1.387 . S
C120 C124 1.391 . S
C121 C120 1.387 . S
C121 C122 1.369 . S
C121 H130 0.929 . S
C122 N119 1.346 . S
C122 C121 1.369 . S
C122 H125 0.928 . S
C123 N119 1.345 . S
C123 C124 1.371 . S
C123 H126 0.931 . S
C124 C120 1.391 . S
C124 C123 1.371 . S
C124 H131 0.930 . S
H125 C122 0.928 . S
H126 C123 0.931 . S
H127 C103 0.930 . S
H128 C100 0.930 . S
H129 C109 0.930 . S
H130 C121 0.929 . S
H131 C124 0.930 . S
C132 C133 1.351 . S
C132 N135 1.368 . S
C132 H137 0.931 . S
C133 C132 1.351 . S
C133 N134 1.373 . S
C133 H161 0.930 . S
N134 C133 1.373 . S
N134 C136 1.340 . S
N135 C132 1.368 . S
N135 C136 1.321 . S
N135 Co138 2.135 . S
C136 N134 1.340 . S
C136 N135 1.321 . S
C136 H160 0.930 . S
H137 C132 0.931 . S
Co138 N135 2.135 . S
Co138 N141 2.121 . S
Co138 O146 2.055 . S
Co138 O149 2.039 . S
Co138 N152 2.140 . S
C139 O140 1.227 . S
C139 O149 1.265 . S
O140 C139 1.227 . S
N141 Co138 2.121 . S
N141 C143 1.375 . S
N141 C144 1.313 . S
C142 C143 1.338 . S
C142 N145 1.377 . S
C142 H162 0.930 . S
C143 N141 1.375 . S
C143 C142 1.338 . S
C143 H147 0.931 . S
C144 N141 1.313 . S
C144 N145 1.344 . S
C144 H148 0.930 . S
N145 C142 1.377 . S
N145 C144 1.344 . S
O146 Co138 2.055 . S
O146 C150 1.253 . S
H147 C143 0.931 . S
H148 C144 0.930 . S
O149 Co138 2.039 . S
O149 C139 1.265 . S
C150 O146 1.253 . S
C150 O151 1.227 . S
O151 C150 1.227 . S
N152 Co138 2.140 . S
N152 C155 1.346 . S
N152 C156 1.345 . S
C153 C154 1.387 . S
C153 C157 1.391 . S
C154 C153 1.387 . S
C154 C155 1.369 . S
C154 H163 0.929 . S
C155 N152 1.346 . S
C155 C154 1.369 . S
C155 H158 0.928 . S
C156 N152 1.345 . S
C156 C157 1.371 . S
C156 H159 0.931 . S
C157 C153 1.391 . S
C157 C156 1.371 . S
C157 H164 0.930 . S
H158 C155 0.928 . S
H159 C156 0.931 . S
H160 C136 0.930 . S
H161 C133 0.930 . S
H162 C142 0.930 . S
H163 C154 0.929 . S
H164 C157 0.930 . S
C165 C166 1.351 . S
C165 N168 1.368 . S
C165 H170 0.931 . S
C166 C165 1.351 . S
C166 N167 1.373 . S
C166 H194 0.930 . S
N167 C166 1.373 . S
N167 C169 1.340 . S
N168 C165 1.368 . S
N168 C169 1.321 . S
N168 Co171 2.135 . S
C169 N167 1.340 . S
C169 N168 1.321 . S
C169 H193 0.930 . S
H170 C165 0.931 . S
Co171 N168 2.135 . S
Co171 N174 2.121 . S
Co171 O179 2.055 . S
Co171 O182 2.039 . S
Co171 N185 2.140 . S
C172 O173 1.227 . S
C172 O182 1.265 . S
O173 C172 1.227 . S
N174 Co171 2.121 . S
N174 C176 1.375 . S
N174 C177 1.313 . S
C175 C176 1.338 . S
C175 N178 1.377 . S
C175 H195 0.930 . S
C176 N174 1.375 . S
C176 C175 1.338 . S
C176 H180 0.931 . S
C177 N174 1.313 . S
C177 N178 1.344 . S
C177 H181 0.930 . S
N178 C175 1.377 . S
N178 C177 1.344 . S
O179 Co171 2.055 . S
O179 C183 1.253 . S
H180 C176 0.931 . S
H181 C177 0.930 . S
O182 Co171 2.039 . S
O182 C172 1.265 . S
C183 O179 1.253 . S
C183 O184 1.227 . S
O184 C183 1.227 . S
N185 Co171 2.140 . S
N185 C188 1.346 . S
N185 C189 1.345 . S
C186 C187 1.387 . S
C186 C190 1.391 . S
C187 C186 1.387 . S
C187 C188 1.369 . S
C187 H196 0.929 . S
C188 N185 1.346 . S
C188 C187 1.369 . S
C188 H191 0.928 . S
C189 N185 1.345 . S
C189 C190 1.371 . S
C189 H192 0.931 . S
C190 C186 1.391 . S
C190 C189 1.371 . S
C190 H197 0.930 . S
H191 C188 0.928 . S
H192 C189 0.931 . S
H193 C169 0.930 . S
H194 C166 0.930 . S
H195 C175 0.930 . S
H196 C187 0.929 . S
H197 C190 0.930 . S
C198 C199 1.351 . S
C198 N201 1.368 . S
C198 H203 0.931 . S
C199 C198 1.351 . S
C199 N200 1.373 . S
C199 H227 0.930 . S
N200 C199 1.373 . S
N200 C202 1.340 . S
N201 C198 1.368 . S
N201 C202 1.321 . S
N201 Co204 2.135 . S
C202 N200 1.340 . S
C202 N201 1.321 . S
C202 H226 0.930 . S
H203 C198 0.931 . S
Co204 N201 2.135 . S
Co204 N207 2.121 . S
Co204 O212 2.055 . S
Co204 O215 2.039 . S
Co204 N218 2.140 . S
C205 O206 1.227 . S
C205 O215 1.265 . S
O206 C205 1.227 . S
N207 Co204 2.121 . S
N207 C209 1.375 . S
N207 C210 1.313 . S
C208 C209 1.338 . S
C208 N211 1.377 . S
C208 H228 0.930 . S
C209 N207 1.375 . S
C209 C208 1.338 . S
C209 H213 0.931 . S
C210 N207 1.313 . S
C210 N211 1.344 . S
C210 H214 0.930 . S
N211 C208 1.377 . S
N211 C210 1.344 . S
O212 Co204 2.055 . S
O212 C216 1.253 . S
H213 C209 0.931 . S
H214 C210 0.930 . S
O215 Co204 2.039 . S
O215 C205 1.265 . S
C216 O212 1.253 . S
C216 O217 1.227 . S
O217 C216 1.227 . S
N218 Co204 2.140 . S
N218 C221 1.346 . S
N218 C222 1.345 . S
C219 C220 1.387 . S
C219 C223 1.391 . S
C220 C219 1.387 . S
C220 C221 1.369 . S
C220 H229 0.929 . S
C221 N218 1.346 . S
C221 C220 1.369 . S
C221 H224 0.928 . S
C222 N218 1.345 . S
C222 C223 1.371 . S
C222 H225 0.931 . S
C223 C219 1.391 . S
C223 C222 1.371 . S
C223 H230 0.930 . S
H224 C221 0.928 . S
H225 C222 0.931 . S
H226 C202 0.930 . S
H227 C199 0.930 . S
H228 C208 0.930 . S
H229 C220 0.929 . S
H230 C223 0.930 . S
C231 C232 1.351 . S
C231 N234 1.368 . S
C231 H236 0.931 . S
C232 C231 1.351 . S
C232 N233 1.373 . S
C232 H260 0.930 . S
N233 C232 1.373 . S
N233 C235 1.340 . S
N234 C231 1.368 . S
N234 C235 1.321 . S
N234 Co237 2.135 . S
C235 N233 1.340 . S
C235 N234 1.321 . S
C235 H259 0.930 . S
H236 C231 0.931 . S
Co237 N234 2.135 . S
Co237 N240 2.121 . S
Co237 O245 2.055 . S
Co237 O248 2.039 . S
Co237 N251 2.140 . S
C238 O239 1.227 . S
C238 O248 1.265 . S
O239 C238 1.227 . S
N240 Co237 2.121 . S
N240 C242 1.375 . S
N240 C243 1.313 . S
C241 C242 1.338 . S
C241 N244 1.377 . S
C241 H261 0.930 . S
C242 N240 1.375 . S
C242 C241 1.338 . S
C242 H246 0.931 . S
C243 N240 1.313 . S
C243 N244 1.344 . S
C243 H247 0.930 . S
N244 C241 1.377 . S
N244 C243 1.344 . S
O245 Co237 2.055 . S
O245 C249 1.253 . S
H246 C242 0.931 . S
H247 C243 0.930 . S
O248 Co237 2.039 . S
O248 C238 1.265 . S
C249 O245 1.253 . S
C249 O250 1.227 . S
O250 C249 1.227 . S
N251 Co237 2.140 . S
N251 C254 1.346 . S
N251 C255 1.345 . S
C252 C253 1.387 . S
C252 C256 1.391 . S
C253 C252 1.387 . S
C253 C254 1.369 . S
C253 H262 0.929 . S
C254 N251 1.346 . S
C254 C253 1.369 . S
C254 H257 0.928 . S
C255 N251 1.345 . S
C255 C256 1.371 . S
C255 H258 0.931 . S
C256 C252 1.391 . S
C256 C255 1.371 . S
C256 H263 0.930 . S
H257 C254 0.928 . S
H258 C255 0.931 . S
H259 C235 0.930 . S
H260 C232 0.930 . S
H261 C241 0.930 . S
H262 C253 0.929 . S
H263 C256 0.930 . S
C264 C265 1.351 . S
C264 N267 1.368 . S
C264 H269 0.931 . S
C265 C264 1.351 . S
C265 N266 1.373 . S
C265 H293 0.930 . S
N266 C265 1.373 . S
N266 C268 1.340 . S
N267 C264 1.368 . S
N267 C268 1.321 . S
N267 Co270 2.135 . S
C268 N266 1.340 . S
C268 N267 1.321 . S
C268 H292 0.930 . S
H269 C264 0.931 . S
Co270 N267 2.135 . S
Co270 N273 2.121 . S
Co270 O278 2.055 . S
Co270 O281 2.039 . S
Co270 N284 2.140 . S
C271 O272 1.227 . S
C271 O281 1.265 . S
O272 C271 1.227 . S
N273 Co270 2.121 . S
N273 C275 1.375 . S
N273 C276 1.313 . S
C274 C275 1.338 . S
C274 N277 1.377 . S
C274 H294 0.930 . S
C275 N273 1.375 . S
C275 C274 1.338 . S
C275 H279 0.931 . S
C276 N273 1.313 . S
C276 N277 1.344 . S
C276 H280 0.930 . S
N277 C274 1.377 . S
N277 C276 1.344 . S
O278 Co270 2.055 . S
O278 C282 1.253 . S
H279 C275 0.931 . S
H280 C276 0.930 . S
O281 Co270 2.039 . S
O281 C271 1.265 . S
C282 O278 1.253 . S
C282 O283 1.227 . S
O283 C282 1.227 . S
N284 Co270 2.140 . S
N284 C287 1.346 . S
N284 C288 1.345 . S
C285 C286 1.387 . S
C285 C289 1.391 . S
C286 C285 1.387 . S
C286 C287 1.369 . S
C286 H295 0.929 . S
C287 N284 1.346 . S
C287 C286 1.369 . S
C287 H290 0.928 . S
C288 N284 1.345 . S
C288 C289 1.371 . S
C288 H291 0.931 . S
C289 C285 1.391 . S
C289 C288 1.371 . S
C289 H296 0.930 . S
H290 C287 0.928 . S
H291 C288 0.931 . S
H292 C268 0.930 . S
H293 C265 0.930 . S
H294 C274 0.930 . S
H295 C286 0.929 . S
H296 C289 0.930 . S
C297 C298 1.351 . S
C297 N300 1.368 . S
C297 H302 0.931 . S
C298 C297 1.351 . S
C298 N299 1.373 . S
C298 H326 0.930 . S
N299 C298 1.373 . S
N299 C301 1.340 . S
N300 C297 1.368 . S
N300 C301 1.321 . S
N300 Co303 2.135 . S
C301 N299 1.340 . S
C301 N300 1.321 . S
C301 H325 0.930 . S
H302 C297 0.931 . S
Co303 N300 2.135 . S
Co303 N306 2.121 . S
Co303 O311 2.055 . S
Co303 O314 2.039 . S
Co303 N317 2.140 . S
C304 O305 1.227 . S
C304 O314 1.265 . S
O305 C304 1.227 . S
N306 Co303 2.121 . S
N306 C308 1.375 . S
N306 C309 1.313 . S
C307 C308 1.338 . S
C307 N310 1.377 . S
C307 H327 0.930 . S
C308 N306 1.375 . S
C308 C307 1.338 . S
C308 H312 0.931 . S
C309 N306 1.313 . S
C309 N310 1.344 . S
C309 H313 0.930 . S
N310 C307 1.377 . S
N310 C309 1.344 . S
O311 Co303 2.055 . S
O311 C315 1.253 . S
H312 C308 0.931 . S
H313 C309 0.930 . S
O314 Co303 2.039 . S
O314 C304 1.265 . S
C315 O311 1.253 . S
C315 O316 1.227 . S
O316 C315 1.227 . S
N317 Co303 2.140 . S
N317 C320 1.346 . S
N317 C321 1.345 . S
C318 C319 1.387 . S
C318 C322 1.391 . S
C319 C318 1.387 . S
C319 C320 1.369 . S
C319 H328 0.929 . S
C320 N317 1.346 . S
C320 C319 1.369 . S
C320 H323 0.928 . S
C321 N317 1.345 . S
C321 C322 1.371 . S
C321 H324 0.931 . S
C322 C318 1.391 . S
C322 C321 1.371 . S
C322 H329 0.930 . S
H323 C320 0.928 . S
H324 C321 0.931 . S
H325 C301 0.930 . S
H326 C298 0.930 . S
H327 C307 0.930 . S
H328 C319 0.929 . S
H329 C322 0.930 . S
C330 C331 1.351 . S
C330 N333 1.368 . S
C330 H335 0.931 . S
C331 C330 1.351 . S
C331 N332 1.373 . S
C331 H359 0.930 . S
N332 C331 1.373 . S
N332 C334 1.340 . S
N333 C330 1.368 . S
N333 C334 1.321 . S
N333 Co336 2.135 . S
C334 N332 1.340 . S
C334 N333 1.321 . S
C334 H358 0.930 . S
H335 C330 0.931 . S
Co336 N333 2.135 . S
Co336 N339 2.121 . S
Co336 O344 2.055 . S
Co336 O347 2.039 . S
Co336 N350 2.140 . S
C337 O338 1.227 . S
C337 O347 1.265 . S
O338 C337 1.227 . S
N339 Co336 2.121 . S
N339 C341 1.375 . S
N339 C342 1.313 . S
C340 C341 1.338 . S
C340 N343 1.377 . S
C340 H360 0.930 . S
C341 N339 1.375 . S
C341 C340 1.338 . S
C341 H345 0.931 . S
C342 N339 1.313 . S
C342 N343 1.344 . S
C342 H346 0.930 . S
N343 C340 1.377 . S
N343 C342 1.344 . S
O344 Co336 2.055 . S
O344 C348 1.253 . S
H345 C341 0.931 . S
H346 C342 0.930 . S
O347 Co336 2.039 . S
O347 C337 1.265 . S
C348 O344 1.253 . S
C348 O349 1.227 . S
O349 C348 1.227 . S
N350 Co336 2.140 . S
N350 C353 1.346 . S
N350 C354 1.345 . S
C351 C352 1.387 . S
C351 C355 1.391 . S
C352 C351 1.387 . S
C352 C353 1.369 . S
C352 H361 0.929 . S
C353 N350 1.346 . S
C353 C352 1.369 . S
C353 H356 0.928 . S
C354 N350 1.345 . S
C354 C355 1.371 . S
C354 H357 0.931 . S
C355 C351 1.391 . S
C355 C354 1.371 . S
C355 H362 0.930 . S
H356 C353 0.928 . S
H357 C354 0.931 . S
H358 C334 0.930 . S
H359 C331 0.930 . S
H360 C340 0.930 . S
H361 C352 0.929 . S
H362 C355 0.930 . S
C363 C364 1.351 . S
C363 N366 1.368 . S
C363 H368 0.931 . S
C364 C363 1.351 . S
C364 N365 1.373 . S
C364 H392 0.930 . S
N365 C364 1.373 . S
N365 C367 1.340 . S
N366 C363 1.368 . S
N366 C367 1.321 . S
N366 Co369 2.135 . S
C367 N365 1.340 . S
C367 N366 1.321 . S
C367 H391 0.930 . S
H368 C363 0.931 . S
Co369 N366 2.135 . S
Co369 N372 2.121 . S
Co369 O377 2.055 . S
Co369 O380 2.039 . S
Co369 N383 2.140 . S
C370 O371 1.227 . S
C370 O380 1.265 . S
O371 C370 1.227 . S
N372 Co369 2.121 . S
N372 C374 1.375 . S
N372 C375 1.313 . S
C373 C374 1.338 . S
C373 N376 1.377 . S
C373 H393 0.930 . S
C374 N372 1.375 . S
C374 C373 1.338 . S
C374 H378 0.931 . S
C375 N372 1.313 . S
C375 N376 1.344 . S
C375 H379 0.930 . S
N376 C373 1.377 . S
N376 C375 1.344 . S
O377 Co369 2.055 . S
O377 C381 1.253 . S
H378 C374 0.931 . S
H379 C375 0.930 . S
O380 Co369 2.039 . S
O380 C370 1.265 . S
C381 O377 1.253 . S
C381 O382 1.227 . S
O382 C381 1.227 . S
N383 Co369 2.140 . S
N383 C386 1.346 . S
N383 C387 1.345 . S
C384 C385 1.387 . S
C384 C388 1.391 . S
C385 C384 1.387 . S
C385 C386 1.369 . S
C385 H394 0.929 . S
C386 N383 1.346 . S
C386 C385 1.369 . S
C386 H389 0.928 . S
C387 N383 1.345 . S
C387 C388 1.371 . S
C387 H390 0.931 . S
C388 C384 1.391 . S
C388 C387 1.371 . S
C388 H395 0.930 . S
H389 C386 0.928 . S
H390 C387 0.931 . S
H391 C367 0.930 . S
H392 C364 0.930 . S
H393 C373 0.930 . S
H394 C385 0.929 . S
H395 C388 0.930 . S
C396 C397 1.351 . S
C396 N399 1.368 . S
C396 H401 0.931 . S
C397 C396 1.351 . S
C397 N398 1.373 . S
C397 H425 0.930 . S
N398 C397 1.373 . S
N398 C400 1.340 . S
N399 C396 1.368 . S
N399 C400 1.321 . S
N399 Co402 2.135 . S
C400 N398 1.340 . S
C400 N399 1.321 . S
C400 H424 0.930 . S
H401 C396 0.931 . S
Co402 N399 2.135 . S
Co402 N405 2.121 . S
Co402 O410 2.055 . S
Co402 O413 2.039 . S
Co402 N416 2.140 . S
C403 O404 1.227 . S
C403 O413 1.265 . S
O404 C403 1.227 . S
N405 Co402 2.121 . S
N405 C407 1.375 . S
N405 C408 1.313 . S
C406 C407 1.338 . S
C406 N409 1.377 . S
C406 H426 0.930 . S
C407 N405 1.375 . S
C407 C406 1.338 . S
C407 H411 0.931 . S
C408 N405 1.313 . S
C408 N409 1.344 . S
C408 H412 0.930 . S
N409 C406 1.377 . S
N409 C408 1.344 . S
O410 Co402 2.055 . S
O410 C414 1.253 . S
H411 C407 0.931 . S
H412 C408 0.930 . S
O413 Co402 2.039 . S
O413 C403 1.265 . S
C414 O410 1.253 . S
C414 O415 1.227 . S
O415 C414 1.227 . S
N416 Co402 2.140 . S
N416 C419 1.346 . S
N416 C420 1.345 . S
C417 C418 1.387 . S
C417 C421 1.391 . S
C418 C417 1.387 . S
C418 C419 1.369 . S
C418 H427 0.929 . S
C419 N416 1.346 . S
C419 C418 1.369 . S
C419 H422 0.928 . S
C420 N416 1.345 . S
C420 C421 1.371 . S
C420 H423 0.931 . S
C421 C417 1.391 . S
C421 C420 1.371 . S
C421 H428 0.930 . S
H422 C419 0.928 . S
H423 C420 0.931 . S
H424 C400 0.930 . S
H425 C397 0.930 . S
H426 C406 0.930 . S
H427 C418 0.929 . S
H428 C421 0.930 . S
C429 C430 1.351 . S
C429 N432 1.368 . S
C429 H434 0.931 . S
C430 C429 1.351 . S
C430 N431 1.373 . S
C430 H458 0.930 . S
N431 C430 1.373 . S
N431 C433 1.340 . S
N432 C429 1.368 . S
N432 C433 1.321 . S
N432 Co435 2.135 . S
C433 N431 1.340 . S
C433 N432 1.321 . S
C433 H457 0.930 . S
H434 C429 0.931 . S
Co435 N432 2.135 . S
Co435 N438 2.121 . S
Co435 O443 2.055 . S
Co435 O446 2.039 . S
Co435 N449 2.140 . S
C436 O437 1.227 . S
C436 O446 1.265 . S
O437 C436 1.227 . S
N438 Co435 2.121 . S
N438 C440 1.375 . S
N438 C441 1.313 . S
C439 C440 1.338 . S
C439 N442 1.377 . S
C439 H459 0.930 . S
C440 N438 1.375 . S
C440 C439 1.338 . S
C440 H444 0.931 . S
C441 N438 1.313 . S
C441 N442 1.344 . S
C441 H445 0.930 . S
N442 C439 1.377 . S
N442 C441 1.344 . S
O443 Co435 2.055 . S
O443 C447 1.253 . S
H444 C440 0.931 . S
H445 C441 0.930 . S
O446 Co435 2.039 . S
O446 C436 1.265 . S
C447 O443 1.253 . S
C447 O448 1.227 . S
O448 C447 1.227 . S
N449 Co435 2.140 . S
N449 C452 1.346 . S
N449 C453 1.345 . S
C450 C451 1.387 . S
C450 C454 1.391 . S
C451 C450 1.387 . S
C451 C452 1.369 . S
C451 H460 0.929 . S
C452 N449 1.346 . S
C452 C451 1.369 . S
C452 H455 0.928 . S
C453 N449 1.345 . S
C453 C454 1.371 . S
C453 H456 0.931 . S
C454 C450 1.391 . S
C454 C453 1.371 . S
C454 H461 0.930 . S
H455 C452 0.928 . S
H456 C453 0.931 . S
H457 C433 0.930 . S
H458 C430 0.930 . S
H459 C439 0.930 . S
H460 C451 0.929 . S
H461 C454 0.930 . S
C462 C463 1.351 . S
C462 N465 1.368 . S
C462 H467 0.931 . S
C463 C462 1.351 . S
C463 N464 1.373 . S
C463 H491 0.930 . S
N464 C463 1.373 . S
N464 C466 1.340 . S
N465 C462 1.368 . S
N465 C466 1.321 . S
N465 Co468 2.135 . S
C466 N464 1.340 . S
C466 N465 1.321 . S
C466 H490 0.930 . S
H467 C462 0.931 . S
Co468 N465 2.135 . S
Co468 N471 2.121 . S
Co468 O476 2.055 . S
Co468 O479 2.039 . S
Co468 N482 2.140 . S
C469 O470 1.227 . S
C469 O479 1.265 . S
O470 C469 1.227 . S
N471 Co468 2.121 . S
N471 C473 1.375 . S
N471 C474 1.313 . S
C472 C473 1.338 . S
C472 N475 1.377 . S
C472 H492 0.930 . S
C473 N471 1.375 . S
C473 C472 1.338 . S
C473 H477 0.931 . S
C474 N471 1.313 . S
C474 N475 1.344 . S
C474 H478 0.930 . S
N475 C472 1.377 . S
N475 C474 1.344 . S
O476 Co468 2.055 . S
O476 C480 1.253 . S
H477 C473 0.931 . S
H478 C474 0.930 . S
O479 Co468 2.039 . S
O479 C469 1.265 . S
C480 O476 1.253 . S
C480 O481 1.227 . S
O481 C480 1.227 . S
N482 Co468 2.140 . S
N482 C485 1.346 . S
N482 C486 1.345 . S
C483 C484 1.387 . S
C483 C487 1.391 . S
C484 C483 1.387 . S
C484 C485 1.369 . S
C484 H493 0.929 . S
C485 N482 1.346 . S
C485 C484 1.369 . S
C485 H488 0.928 . S
C486 N482 1.345 . S
C486 C487 1.371 . S
C486 H489 0.931 . S
C487 C483 1.391 . S
C487 C486 1.371 . S
C487 H494 0.930 . S
H488 C485 0.928 . S
H489 C486 0.931 . S
H490 C466 0.930 . S
H491 C463 0.930 . S
H492 C472 0.930 . S
H493 C484 0.929 . S
H494 C487 0.930 . S
C495 C496 1.351 . S
C495 N498 1.368 . S
C495 H500 0.931 . S
C496 C495 1.351 . S
C496 N497 1.373 . S
C496 H524 0.930 . S
N497 C496 1.373 . S
N497 C499 1.340 . S
N498 C495 1.368 . S
N498 C499 1.321 . S
N498 Co501 2.135 . S
C499 N497 1.340 . S
C499 N498 1.321 . S
C499 H523 0.930 . S
H500 C495 0.931 . S
Co501 N498 2.135 . S
Co501 N504 2.121 . S
Co501 O509 2.055 . S
Co501 O512 2.039 . S
Co501 N515 2.140 . S
C502 O503 1.227 . S
C502 O512 1.265 . S
O503 C502 1.227 . S
N504 Co501 2.121 . S
N504 C506 1.375 . S
N504 C507 1.313 . S
C505 C506 1.338 . S
C505 N508 1.377 . S
C505 H525 0.930 . S
C506 N504 1.375 . S
C506 C505 1.338 . S
C506 H510 0.931 . S
C507 N504 1.313 . S
C507 N508 1.344 . S
C507 H511 0.930 . S
N508 C505 1.377 . S
N508 C507 1.344 . S
O509 Co501 2.055 . S
O509 C513 1.253 . S
H510 C506 0.931 . S
H511 C507 0.930 . S
O512 Co501 2.039 . S
O512 C502 1.265 . S
C513 O509 1.253 . S
C513 O514 1.227 . S
O514 C513 1.227 . S
N515 Co501 2.140 . S
N515 C518 1.346 . S
N515 C519 1.345 . S
C516 C517 1.387 . S
C516 C520 1.391 . S
C517 C516 1.387 . S
C517 C518 1.369 . S
C517 H526 0.929 . S
C518 N515 1.346 . S
C518 C517 1.369 . S
C518 H521 0.928 . S
C519 N515 1.345 . S
C519 C520 1.371 . S
C519 H522 0.931 . S
C520 C516 1.391 . S
C520 C519 1.371 . S
C520 H527 0.930 . S
H521 C518 0.928 . S
H522 C519 0.931 . S
H523 C499 0.930 . S
H524 C496 0.930 . S
H525 C505 0.930 . S
H526 C517 0.929 . S
H527 C520 0.930 . S
H528 C540 0.930 . S
H529 C542 0.930 . S
H530 C543 0.930 . S
H531 C547 0.959 . S
H532 C547 0.959 . S
H533 C547 0.961 . S
H534 C548 0.960 1_655 S
H535 C548 0.961 . S
H536 C548 0.959 . S
H537 C551 0.929 . S
H538 C552 0.931 . S
H539 C554 0.930 . S
C540 H528 0.930 . S
C540 C541 1.399 . S
C540 C545 1.399 . S
C541 C540 1.399 . S
C541 C542 1.376 . S
C542 H529 0.930 . S
C542 C541 1.376 . S
C542 C543 1.388 . S
C543 H530 0.930 . S
C543 C542 1.388 . S
C543 C544 1.390 . S
C544 C543 1.390 . S
C544 C545 1.394 . S
C544 C550 1.465 1_655 S
C545 C540 1.399 . S
C545 C544 1.394 . S
C545 C546 1.516 . S
C546 C545 1.516 . S
C546 C547 1.502 . S
C546 C548 1.561 1_655 S
C546 C549 1.526 1_655 S
C547 H531 0.959 . S
C547 H532 0.959 . S
C547 H533 0.961 . S
C547 C546 1.502 . S
C548 H534 0.960 1_455 S
C548 H535 0.961 . S
C548 H536 0.959 . S
C548 C546 1.561 1_455 S
C549 C546 1.526 1_455 S
C549 C550 1.396 . S
C549 C554 1.390 . S
C550 C544 1.465 1_455 S
C550 C549 1.396 . S
C550 C551 1.399 . S
C551 H537 0.929 . S
C551 C550 1.399 . S
C551 C552 1.385 . S
C552 H538 0.931 . S
C552 C551 1.385 . S
C552 C553 1.389 . S
C553 C552 1.389 . S
C553 C554 1.387 . S
C554 H539 0.930 . S
C554 C549 1.390 . S
C554 C553 1.387 . S
H555 C567 0.930 . S
H556 C569 0.930 . S
H557 C570 0.930 . S
H558 C574 0.959 . S
H559 C574 0.959 . S
H560 C574 0.961 . S
H561 C575 0.960 1_545 S
H562 C575 0.961 . S
H563 C575 0.959 1_545 S
H564 C578 0.929 . S
H565 C579 0.931 . S
H566 C581 0.930 . S
C567 H555 0.930 . S
C567 C568 1.399 . S
C567 C572 1.399 . S
C568 C567 1.399 . S
C568 C569 1.376 . S
C569 H556 0.930 . S
C569 C568 1.376 . S
C569 C570 1.388 . S
C570 H557 0.930 . S
C570 C569 1.388 . S
C570 C571 1.390 . S
C571 C570 1.390 . S
C571 C572 1.394 . S
C571 C577 1.465 1_545 S
C572 C567 1.399 . S
C572 C571 1.394 . S
C572 C573 1.516 1_545 S
C573 C572 1.516 1_565 S
C573 C574 1.502 . S
C573 C575 1.561 . S
C573 C576 1.526 . S
C574 H558 0.959 . S
C574 H559 0.959 . S
C574 H560 0.961 . S
C574 C573 1.502 . S
C575 H561 0.960 1_565 S
C575 H562 0.961 . S
C575 H563 0.959 1_565 S
C575 C573 1.561 . S
C576 C573 1.526 . S
C576 C577 1.396 . S
C576 C581 1.390 . S
C577 C571 1.465 1_565 S
C577 C576 1.396 . S
C577 C578 1.399 . S
C578 H564 0.929 . S
C578 C577 1.399 . S
C578 C579 1.385 . S
C579 H565 0.931 . S
C579 C578 1.385 . S
C579 C580 1.389 . S
C580 C579 1.389 . S
C580 C581 1.387 . S
C581 H566 0.930 . S
C581 C576 1.390 . S
C581 C580 1.387 . S
H582 C594 0.930 . S
H583 C596 0.930 . S
H584 C597 0.930 . S
H585 C601 0.959 . S
H586 C601 0.959 . S
H587 C601 0.961 . S
H588 C602 0.960 . S
H589 C602 0.961 1_455 S
H590 C602 0.959 . S
H591 C605 0.929 . S
H592 C606 0.931 . S
H593 C608 0.930 . S
C594 H582 0.930 . S
C594 C595 1.399 . S
C594 C599 1.399 . S
C595 C594 1.399 . S
C595 C596 1.376 . S
C596 H583 0.930 . S
C596 C595 1.376 . S
C596 C597 1.388 . S
C597 H584 0.930 . S
C597 C596 1.388 . S
C597 C598 1.390 . S
C598 C597 1.390 . S
C598 C599 1.394 . S
C598 C604 1.465 1_655 S
C599 C594 1.399 . S
C599 C598 1.394 . S
C599 C600 1.516 1_655 S
C600 C599 1.516 1_455 S
C600 C601 1.502 . S
C600 C602 1.561 1_455 S
C600 C603 1.526 . S
C601 H585 0.959 . S
C601 H586 0.959 . S
C601 H587 0.961 . S
C601 C600 1.502 . S
C602 H588 0.960 . S
C602 H589 0.961 1_655 S
C602 H590 0.959 . S
C602 C600 1.561 1_655 S
C603 C600 1.526 . S
C603 C604 1.396 . S
C603 C608 1.390 . S
C604 C598 1.465 1_455 S
C604 C603 1.396 . S
C604 C605 1.399 . S
C605 H591 0.929 . S
C605 C604 1.399 . S
C605 C606 1.385 . S
C606 H592 0.931 . S
C606 C605 1.385 . S
C606 C607 1.389 . S
C607 C606 1.389 . S
C607 C608 1.387 . S
C608 H593 0.930 . S
C608 C603 1.390 . S
C608 C607 1.387 . S
H609 C621 0.930 . S
H610 C623 0.930 . S
H611 C624 0.930 . S
H612 C628 0.959 1_545 S
H613 C628 0.959 1_545 S
H614 C628 0.961 . S
H615 C629 0.960 . S
H616 C629 0.961 . S
H617 C629 0.959 . S
H618 C632 0.929 . S
H619 C633 0.931 . S
H620 C635 0.930 . S
C621 H609 0.930 . S
C621 C622 1.399 . S
C621 C626 1.399 . S
C622 C621 1.399 . S
C622 C623 1.376 . S
C623 H610 0.930 . S
C623 C622 1.376 . S
C623 C624 1.388 . S
C624 H611 0.930 . S
C624 C623 1.388 . S
C624 C625 1.390 . S
C625 C624 1.390 . S
C625 C626 1.394 . S
C625 C631 1.465 1_565 S
C626 C621 1.399 . S
C626 C625 1.394 . S
C626 C627 1.516 . S
C627 C626 1.516 . S
C627 C628 1.502 . S
C627 C629 1.561 . S
C627 C630 1.526 1_565 S
C628 H612 0.959 1_565 S
C628 H613 0.959 1_565 S
C628 H614 0.961 . S
C628 C627 1.502 . S
C629 H615 0.960 . S
C629 H616 0.961 . S
C629 H617 0.959 . S
C629 C627 1.561 . S
C630 C627 1.526 1_545 S
C630 C631 1.396 . S
C630 C635 1.390 . S
C631 C625 1.465 1_545 S
C631 C630 1.396 . S
C631 C632 1.399 . S
C632 H618 0.929 . S
C632 C631 1.399 . S
C632 C633 1.385 . S
C633 H619 0.931 . S
C633 C632 1.385 . S
C633 C634 1.389 . S
C634 C633 1.389 . S
C634 C635 1.387 . S
C635 H620 0.930 . S
C635 C630 1.390 . S
C635 C634 1.387 . S
H636 C648 0.930 1_455 S
H637 C650 0.930 . S
H638 C651 0.930 . S
H639 C655 0.959 . S
H640 C655 0.959 . S
H641 C655 0.961 . S
H642 C656 0.960 . S
H643 C656 0.961 . S
H644 C656 0.959 . S
H645 C659 0.929 . S
H646 C660 0.941 . S
H647 C662 0.930 . S
C648 H636 0.930 1_655 S
C648 C649 1.399 . S
C648 C653 1.399 . S
C649 C648 1.399 . S
C649 C650 1.376 . S
C650 H637 0.930 . S
C650 C649 1.376 . S
C650 C651 1.388 . S
C651 H638 0.930 . S
C651 C650 1.388 . S
C651 C652 1.390 . S
C652 C651 1.390 . S
C652 C653 1.394 . S
C652 C658 1.465 . S
C653 C648 1.399 . S
C653 C652 1.394 . S
C653 C654 1.516 1_655 S
C654 C653 1.516 1_455 S
C654 C655 1.502 . S
C654 C656 1.561 . S
C654 C657 1.526 . S
C655 H639 0.959 . S
C655 H640 0.959 . S
C655 H641 0.961 . S
C655 C654 1.502 . S
C656 H642 0.960 . S
C656 H643 0.961 . S
C656 H644 0.959 . S
C656 C654 1.561 . S
C657 C654 1.526 . S
C657 C658 1.396 1_455 S
C657 C662 1.390 . S
C658 C652 1.465 . S
C658 C657 1.396 1_655 S
C658 C659 1.399 . S
C659 H645 0.929 . S
C659 C658 1.399 . S
C659 C660 1.385 1_655 S
C660 H646 0.941 . S
C660 C659 1.385 1_455 S
C660 C661 1.389 . S
C661 C660 1.389 . S
C661 C662 1.387 . S
C662 H647 0.930 . S
C662 C657 1.390 . S
C662 C661 1.387 . S
H663 C675 0.930 . S
H664 C677 0.930 . S
H665 C678 0.930 . S
H666 C682 0.959 . S
H667 C682 0.959 . S
H668 C682 0.961 . S
H669 C683 0.960 . S
H670 C683 0.961 . S
H671 C683 0.959 . S
H672 C686 0.918 1_565 S
H673 C687 0.931 . S
H674 C689 0.930 . S
C675 H663 0.930 . S
C675 C676 1.399 . S
C675 C680 1.399 . S
C676 C675 1.399 . S
C676 C677 1.376 . S
C677 H664 0.930 . S
C677 C676 1.376 . S
C677 C678 1.388 . S
C678 H665 0.930 . S
C678 C677 1.388 . S
C678 C679 1.390 . S
C679 C678 1.390 . S
C679 C680 1.394 . S
C679 C685 1.465 1_565 S
C680 C675 1.399 . S
C680 C679 1.394 . S
C680 C681 1.516 1_565 S
C681 C680 1.516 1_545 S
C681 C682 1.502 . S
C681 C683 1.561 1_545 S
C681 C684 1.526 . S
C682 H666 0.959 . S
C682 H667 0.959 . S
C682 H668 0.961 . S
C682 C681 1.502 . S
C683 H669 0.960 . S
C683 H670 0.961 . S
C683 H671 0.959 . S
C683 C681 1.561 1_565 S
C684 C681 1.526 . S
C684 C685 1.396 . S
C684 C689 1.390 . S
C685 C679 1.465 1_545 S
C685 C684 1.396 . S
C685 C686 1.399 . S
C686 H672 0.918 1_545 S
C686 C685 1.399 . S
C686 C687 1.385 . S
C687 H673 0.931 . S
C687 C686 1.385 . S
C687 C688 1.389 . S
C688 C687 1.389 . S
C688 C689 1.387 . S
C689 H674 0.930 . S
C689 C684 1.390 . S
C689 C688 1.387 . S
H690 C702 0.930 . S
H691 C704 0.930 . S
H692 C705 0.930 . S
H693 C709 0.959 . S
H694 C709 0.959 . S
H695 C709 0.961 . S
H696 C710 0.960 . S
H697 C710 0.961 1_455 S
H698 C710 0.959 . S
H699 C713 0.929 . S
H700 C714 0.931 . S
H701 C716 0.930 . S
C702 H690 0.930 . S
C702 C703 1.399 . S
C702 C707 1.399 . S
C703 C702 1.399 . S
C703 C704 1.376 . S
C704 H691 0.930 . S
C704 C703 1.376 . S
C704 C705 1.388 . S
C705 H692 0.930 . S
C705 C704 1.388 . S
C705 C706 1.390 . S
C706 C705 1.390 . S
C706 C707 1.394 . S
C706 C712 1.465 . S
C707 C702 1.399 . S
C707 C706 1.394 . S
C707 C708 1.516 1_655 S
C708 C707 1.516 1_455 S
C708 C709 1.502 . S
C708 C710 1.561 1_455 S
C708 C711 1.526 . S
C709 H693 0.959 . S
C709 H694 0.959 . S
C709 H695 0.961 . S
C709 C708 1.502 . S
C710 H696 0.960 . S
C710 H697 0.961 1_655 S
C710 H698 0.959 . S
C710 C708 1.561 1_655 S
C711 C708 1.526 . S
C711 C712 1.396 1_455 S
C711 C716 1.390 . S
C712 C706 1.465 . S
C712 C711 1.396 1_655 S
C712 C713 1.399 . S
C713 H699 0.929 . S
C713 C712 1.399 . S
C713 C714 1.385 1_655 S
C714 H700 0.931 . S
C714 C713 1.385 1_455 S
C714 C715 1.389 . S
C715 C714 1.389 . S
C715 C716 1.387 . S
C716 H701 0.930 . S
C716 C711 1.390 . S
C716 C715 1.387 . S
H717 C729 0.930 . S
H718 C731 0.930 . S
H719 C732 0.930 . S
H720 C736 0.954 1_565 S
H721 C736 0.958 1_565 S
H722 C736 0.965 . S
H723 C737 0.960 . S
H724 C737 0.961 . S
H725 C737 0.959 . S
H726 C740 0.929 . S
H727 C741 0.931 . S
H728 C743 0.930 . S
C729 H717 0.930 . S
C729 C730 1.399 . S
C729 C734 1.399 . S
C730 C729 1.399 . S
C730 C731 1.376 . S
C731 H718 0.930 . S
C731 C730 1.376 . S
C731 C732 1.388 . S
C732 H719 0.930 . S
C732 C731 1.388 . S
C732 C733 1.390 . S
C733 C732 1.390 . S
C733 C734 1.394 . S
C733 C739 1.465 1_545 S
C734 C729 1.399 . S
C734 C733 1.394 . S
C734 C735 1.516 . S
C735 C734 1.516 . S
C735 C736 1.504 . S
C735 C737 1.561 . S
C735 C738 1.526 1_545 S
C736 H720 0.954 1_545 S
C736 H721 0.958 1_545 S
C736 H722 0.965 . S
C736 C735 1.504 . S
C737 H723 0.960 . S
C737 H724 0.961 . S
C737 H725 0.959 . S
C737 C735 1.561 . S
C738 C735 1.526 1_565 S
C738 C739 1.396 . S
C738 C743 1.390 . S
C739 C733 1.465 1_565 S
C739 C738 1.396 . S
C739 C740 1.399 . S
C740 H726 0.929 . S
C740 C739 1.399 . S
C740 C741 1.385 . S
C741 H727 0.931 . S
C741 C740 1.385 . S
C741 C742 1.389 . S
C742 C741 1.389 . S
C742 C743 1.387 . S
C743 H728 0.930 . S
C743 C738 1.390 . S
C743 C742 1.387 . S
H744 C756 0.930 . S
H745 C758 0.930 . S
H746 C759 0.930 . S
H747 C763 0.959 . S
H748 C763 0.959 . S
H749 C763 0.961 . S
H750 C764 0.960 . S
H751 C764 0.961 . S
H752 C764 0.959 . S
H753 C767 0.929 . S
H754 C768 0.931 . S
H755 C770 0.930 . S
C756 H744 0.930 . S
C756 C757 1.399 . S
C756 C761 1.399 . S
C757 C756 1.399 . S
C757 C758 1.376 . S
C758 H745 0.930 . S
C758 C757 1.376 . S
C758 C759 1.388 . S
C759 H746 0.930 . S
C759 C758 1.388 . S
C759 C760 1.390 . S
C760 C759 1.390 . S
C760 C761 1.394 . S
C760 C766 1.465 . S
C761 C756 1.399 . S
C761 C760 1.394 . S
C761 C762 1.516 . S
C762 C761 1.516 . S
C762 C763 1.502 . S
C762 C764 1.561 . S
C762 C765 1.526 . S
C763 H747 0.959 . S
C763 H748 0.959 . S
C763 H749 0.961 . S
C763 C762 1.502 . S
C764 H750 0.960 . S
C764 H751 0.961 . S
C764 H752 0.959 . S
C764 C762 1.561 . S
C765 C762 1.526 . S
C765 C766 1.396 . S
C765 C770 1.390 . S
C766 C760 1.465 . S
C766 C765 1.396 . S
C766 C767 1.399 . S
C767 H753 0.929 . S
C767 C766 1.399 . S
C767 C768 1.385 . S
C768 H754 0.931 . S
C768 C767 1.385 . S
C768 C769 1.389 . S
C769 C768 1.389 . S
C769 C770 1.387 . S
C770 H755 0.930 . S
C770 C765 1.390 . S
C770 C769 1.387 . S
H771 C783 0.930 . S
H772 C785 0.930 . S
H773 C786 0.930 . S
H774 C790 0.959 . S
H775 C790 0.959 . S
H776 C790 0.961 . S
H777 C791 0.960 . S
H778 C791 0.961 . S
H779 C791 0.959 . S
H780 C794 0.929 . S
H781 C795 0.931 . S
H782 C797 0.930 . S
C783 H771 0.930 . S
C783 C784 1.399 . S
C783 C788 1.399 . S
C784 C783 1.399 . S
C784 C785 1.376 . S
C785 H772 0.930 . S
C785 C784 1.376 . S
C785 C786 1.388 . S
C786 H773 0.930 . S
C786 C785 1.388 . S
C786 C787 1.390 . S
C787 C786 1.390 . S
C787 C788 1.394 . S
C787 C793 1.465 . S
C788 C783 1.399 . S
C788 C787 1.394 . S
C788 C789 1.516 . S
C789 C788 1.516 . S
C789 C790 1.502 . S
C789 C791 1.561 . S
C789 C792 1.526 . S
C790 H774 0.959 . S
C790 H775 0.959 . S
C790 H776 0.961 . S
C790 C789 1.502 . S
C791 H777 0.960 . S
C791 H778 0.961 . S
C791 H779 0.959 . S
C791 C789 1.561 . S
C792 C789 1.526 . S
C792 C793 1.396 . S
C792 C797 1.390 . S
C793 C787 1.465 . S
C793 C792 1.396 . S
C793 C794 1.399 . S
C794 H780 0.929 . S
C794 C793 1.399 . S
C794 C795 1.385 . S
C795 H781 0.931 . S
C795 C794 1.385 . S
C795 C796 1.389 . S
C796 C795 1.389 . S
C796 C797 1.387 . S
C797 H782 0.930 . S
C797 C792 1.390 . S
C797 C796 1.387 . S
H798 C810 0.930 . S
H799 C812 0.930 . S
H800 C813 0.930 . S
H801 C817 0.959 . S
H802 C817 0.959 . S
H803 C817 0.961 . S
H804 C818 0.960 . S
H805 C818 0.961 . S
H806 C818 0.959 . S
H807 C821 0.929 . S
H808 C822 0.931 . S
H809 C824 0.930 . S
C810 H798 0.930 . S
C810 C811 1.399 . S
C810 C815 1.399 . S
C811 C810 1.399 . S
C811 C812 1.376 . S
C812 H799 0.930 . S
C812 C811 1.376 . S
C812 C813 1.388 . S
C813 H800 0.930 . S
C813 C812 1.388 . S
C813 C814 1.390 . S
C814 C813 1.390 . S
C814 C815 1.394 . S
C814 C820 1.465 . S
C815 C810 1.399 . S
C815 C814 1.394 . S
C815 C816 1.516 . S
C816 C815 1.516 . S
C816 C817 1.502 . S
C816 C818 1.561 . S
C816 C819 1.526 . S
C817 H801 0.959 . S
C817 H802 0.959 . S
C817 H803 0.961 . S
C817 C816 1.502 . S
C818 H804 0.960 . S
C818 H805 0.961 . S
C818 H806 0.959 . S
C818 C816 1.561 . S
C819 C816 1.526 . S
C819 C820 1.396 . S
C819 C824 1.390 . S
C820 C814 1.465 . S
C820 C819 1.396 . S
C820 C821 1.399 . S
C821 H807 0.929 . S
C821 C820 1.399 . S
C821 C822 1.385 . S
C822 H808 0.931 . S
C822 C821 1.385 . S
C822 C823 1.389 . S
C823 C822 1.389 . S
C823 C824 1.387 . S
C824 H809 0.930 . S
C824 C819 1.390 . S
C824 C823 1.387 . S
H825 C837 0.930 . S
H826 C839 0.930 . S
H827 C840 0.930 . S
H828 C844 0.959 . S
H829 C844 0.959 . S
H830 C844 0.961 . S
H831 C845 0.960 . S
H832 C845 0.961 . S
H833 C845 0.959 . S
H834 C848 0.929 . S
H835 C849 0.931 . S
H836 C851 0.930 . S
C837 H825 0.930 . S
C837 C838 1.399 . S
C837 C842 1.399 . S
C838 C837 1.399 . S
C838 C839 1.376 . S
C839 H826 0.930 . S
C839 C838 1.376 . S
C839 C840 1.388 . S
C840 H827 0.930 . S
C840 C839 1.388 . S
C840 C841 1.390 . S
C841 C840 1.390 . S
C841 C842 1.394 . S
C841 C847 1.465 . S
C842 C837 1.399 . S
C842 C841 1.394 . S
C842 C843 1.516 . S
C843 C842 1.516 . S
C843 C844 1.502 . S
C843 C845 1.561 . S
C843 C846 1.526 . S
C844 H828 0.959 . S
C844 H829 0.959 . S
C844 H830 0.961 . S
C844 C843 1.502 . S
C845 H831 0.960 . S
C845 H832 0.961 . S
C845 H833 0.959 . S
C845 C843 1.561 . S
C846 C843 1.526 . S
C846 C847 1.396 . S
C846 C851 1.390 . S
C847 C841 1.465 . S
C847 C846 1.396 . S
C847 C848 1.399 . S
C848 H834 0.929 . S
C848 C847 1.399 . S
C848 C849 1.385 . S
C849 H835 0.931 . S
C849 C848 1.385 . S
C849 C850 1.389 . S
C850 C849 1.389 . S
C850 C851 1.387 . S
C851 H836 0.930 . S
C851 C846 1.390 . S
C851 C850 1.387 . S
H852 C864 0.930 . S
H853 C866 0.930 . S
H854 C867 0.930 . S
H855 C871 0.959 . S
H856 C871 0.959 . S
H857 C871 0.961 . S
H858 C872 0.960 . S
H859 C872 0.961 . S
H860 C872 0.959 . S
H861 C875 0.929 . S
H862 C876 0.931 . S
H863 C878 0.930 . S
C864 H852 0.930 . S
C864 C865 1.399 . S
C864 C869 1.399 . S
C865 C864 1.399 . S
C865 C866 1.376 . S
C866 H853 0.930 . S
C866 C865 1.376 . S
C866 C867 1.388 . S
C867 H854 0.930 . S
C867 C866 1.388 . S
C867 C868 1.390 . S
C868 C867 1.390 . S
C868 C869 1.394 . S
C868 C874 1.465 . S
C869 C864 1.399 . S
C869 C868 1.394 . S
C869 C870 1.516 . S
C870 C869 1.516 . S
C870 C871 1.502 . S
C870 C872 1.561 . S
C870 C873 1.526 . S
C871 H855 0.959 . S
C871 H856 0.959 . S
C871 H857 0.961 . S
C871 C870 1.502 . S
C872 H858 0.960 . S
C872 H859 0.961 . S
C872 H860 0.959 . S
C872 C870 1.561 . S
C873 C870 1.526 . S
C873 C874 1.396 . S
C873 C878 1.390 . S
C874 C868 1.465 . S
C874 C873 1.396 . S
C874 C875 1.399 . S
C875 H861 0.929 . S
C875 C874 1.399 . S
C875 C876 1.385 . S
C876 H862 0.931 . S
C876 C875 1.385 . S
C876 C877 1.389 . S
C877 C876 1.389 . S
C877 C878 1.387 . S
C878 H863 0.930 . S
C878 C873 1.390 . S
C878 C877 1.387 . S
H879 C891 0.930 . S
H880 C893 0.930 . S
H881 C894 0.930 . S
H882 C898 0.959 . S
H883 C898 0.959 . S
H884 C898 0.961 . S
H885 C899 0.960 . S
H886 C899 0.961 . S
H887 C899 0.959 . S
H888 C902 0.929 . S
H889 C903 0.931 . S
H890 C905 0.930 . S
C891 H879 0.930 . S
C891 C892 1.399 . S
C891 C896 1.399 . S
C892 C891 1.399 . S
C892 C893 1.376 . S
C893 H880 0.930 . S
C893 C892 1.376 . S
C893 C894 1.388 . S
C894 H881 0.930 . S
C894 C893 1.388 . S
C894 C895 1.390 . S
C895 C894 1.390 . S
C895 C896 1.394 . S
C895 C901 1.465 . S
C896 C891 1.399 . S
C896 C895 1.394 . S
C896 C897 1.516 . S
C897 C896 1.516 . S
C897 C898 1.502 . S
C897 C899 1.561 . S
C897 C900 1.526 . S
C898 H882 0.959 . S
C898 H883 0.959 . S
C898 H884 0.961 . S
C898 C897 1.502 . S
C899 H885 0.960 . S
C899 H886 0.961 . S
C899 H887 0.959 . S
C899 C897 1.561 . S
C900 C897 1.526 . S
C900 C901 1.396 . S
C900 C905 1.390 . S
C901 C895 1.465 . S
C901 C900 1.396 . S
C901 C902 1.399 . S
C902 H888 0.929 . S
C902 C901 1.399 . S
C902 C903 1.385 . S
C903 H889 0.931 . S
C903 C902 1.385 . S
C903 C904 1.389 . S
C904 C903 1.389 . S
C904 C905 1.387 . S
C905 H890 0.930 . S
C905 C900 1.390 . S
C905 C904 1.387 . S
H906 C918 0.930 . S
H907 C920 0.930 . S
H908 C921 0.930 . S
H909 C925 0.959 . S
H910 C925 0.959 . S
H911 C925 0.961 . S
H912 C926 0.960 . S
H913 C926 0.961 . S
H914 C926 0.959 . S
H915 C929 0.929 . S
H916 C930 0.931 . S
H917 C932 0.930 . S
C918 H906 0.930 . S
C918 C919 1.399 . S
C918 C923 1.399 . S
C919 C918 1.399 . S
C919 C920 1.376 . S
C920 H907 0.930 . S
C920 C919 1.376 . S
C920 C921 1.388 . S
C921 H908 0.930 . S
C921 C920 1.388 . S
C921 C922 1.390 . S
C922 C921 1.390 . S
C922 C923 1.394 . S
C922 C928 1.465 . S
C923 C918 1.399 . S
C923 C922 1.394 . S
C923 C924 1.516 . S
C924 C923 1.516 . S
C924 C925 1.502 . S
C924 C926 1.561 . S
C924 C927 1.526 . S
C925 H909 0.959 . S
C925 H910 0.959 . S
C925 H911 0.961 . S
C925 C924 1.502 . S
C926 H912 0.960 . S
C926 H913 0.961 . S
C926 H914 0.959 . S
C926 C924 1.561 . S
C927 C924 1.526 . S
C927 C928 1.396 . S
C927 C932 1.390 . S
C928 C922 1.465 . S
C928 C927 1.396 . S
C928 C929 1.399 . S
C929 H915 0.929 . S
C929 C928 1.399 . S
C929 C930 1.385 . S
C930 H916 0.931 . S
C930 C929 1.385 . S
C930 C931 1.389 . S
C931 C930 1.389 . S
C931 C932 1.387 . S
C932 H917 0.930 . S
C932 C927 1.390 . S
C932 C931 1.387 . S
H933 C945 0.930 . S
H934 C947 0.930 . S
H935 C948 0.930 . S
H936 C952 0.959 . S
H937 C952 0.959 . S
H938 C952 0.961 . S
H939 C953 0.960 . S
H940 C953 0.961 . S
H941 C953 0.959 . S
H942 C956 0.929 . S
H943 C957 0.931 . S
H944 C959 0.930 . S
C945 H933 0.930 . S
C945 C946 1.399 . S
C945 C950 1.399 . S
C946 C945 1.399 . S
C946 C947 1.376 . S
C947 H934 0.930 . S
C947 C946 1.376 . S
C947 C948 1.388 . S
C948 H935 0.930 . S
C948 C947 1.388 . S
C948 C949 1.390 . S
C949 C948 1.390 . S
C949 C950 1.394 . S
C949 C955 1.465 . S
C950 C945 1.399 . S
C950 C949 1.394 . S
C950 C951 1.516 . S
C951 C950 1.516 . S
C951 C952 1.502 . S
C951 C953 1.561 . S
C951 C954 1.526 . S
C952 H936 0.959 . S
C952 H937 0.959 . S
C952 H938 0.961 . S
C952 C951 1.502 . S
C953 H939 0.960 . S
C953 H940 0.961 . S
C953 H941 0.959 . S
C953 C951 1.561 . S
C954 C951 1.526 . S
C954 C955 1.396 . S
C954 C959 1.390 . S
C955 C949 1.465 . S
C955 C954 1.396 . S
C955 C956 1.399 . S
C956 H942 0.929 . S
C956 C955 1.399 . S
C956 C957 1.385 . S
C957 H943 0.931 . S
C957 C956 1.385 . S
C957 C958 1.389 . S
C958 C957 1.389 . S
C958 C959 1.387 . S
C959 H944 0.930 . S
C959 C954 1.390 . S
C959 C958 1.387 . S
H960 C972 0.930 . S
H961 C974 0.930 . S
H962 C975 0.930 . S
H963 C979 0.960 . S
H964 C979 0.951 1_556 S
H965 C979 0.969 . S
H966 C980 0.960 1_554 S
H967 C980 0.961 . S
H968 C980 0.959 . S
H969 C983 0.929 . S
H970 C984 0.931 . S
H971 C986 0.930 . S
C972 H960 0.930 . S
C972 C973 1.399 . S
C972 C977 1.399 . S
C973 C972 1.399 . S
C973 C974 1.376 . S
C974 H961 0.930 . S
C974 C973 1.376 . S
C974 C975 1.388 . S
C975 H962 0.930 . S
C975 C974 1.388 . S
C975 C976 1.390 . S
C976 C975 1.390 . S
C976 C977 1.394 . S
C976 C982 1.465 1_554 S
C977 C972 1.399 . S
C977 C976 1.394 . S
C977 C978 1.516 1_554 S
C978 C977 1.516 1_556 S
C978 C979 1.501 1_556 S
C978 C980 1.561 . S
C978 C981 1.526 . S
C979 H963 0.960 . S
C979 H964 0.951 1_554 S
C979 H965 0.969 . S
C979 C978 1.501 1_554 S
C980 H966 0.960 1_556 S
C980 H967 0.961 . S
C980 H968 0.959 . S
C980 C978 1.561 . S
C981 C978 1.526 . S
C981 C982 1.396 . S
C981 C986 1.390 . S
C982 C976 1.465 1_556 S
C982 C981 1.396 . S
C982 C983 1.399 . S
C983 H969 0.929 . S
C983 C982 1.399 . S
C983 C984 1.385 . S
C984 H970 0.931 . S
C984 C983 1.385 . S
C984 C985 1.389 . S
C985 C984 1.389 . S
C985 C986 1.387 . S
C986 H971 0.930 . S
C986 C981 1.390 . S
C986 C985 1.387 . S
H987 C999 0.930 . S
H988 C1001 0.930 . S
H989 C1002 0.930 . S
H990 C1006 0.966 . S
H991 C1006 0.979 . S
H992 C1006 0.938 1_556 S
H993 C1007 0.960 . S
H994 C1007 0.961 1_554 S
H995 C1007 0.959 . S
H996 C1010 0.929 . S
H997 C1011 0.931 . S
H998 C1013 0.930 . S
C999 H987 0.930 . S
C999 C1000 1.399 . S
C999 C1004 1.399 . S
C1000 C999 1.399 . S
C1000 C1001 1.376 . S
C1001 H988 0.930 . S
C1001 C1000 1.376 . S
C1001 C1002 1.388 . S
C1002 H989 0.930 . S
C1002 C1001 1.388 . S
C1002 C1003 1.390 . S
C1003 C1002 1.390 . S
C1003 C1004 1.394 . S
C1003 C1009 1.465 1_556 S
C1004 C999 1.399 . S
C1004 C1003 1.394 . S
C1004 C1005 1.516 . S
C1005 C1004 1.516 . S
C1005 C1006 1.500 1_556 S
C1005 C1007 1.561 . S
C1005 C1008 1.526 1_556 S
C1006 H990 0.966 . S
C1006 H991 0.979 . S
C1006 H992 0.938 1_554 S
C1006 C1005 1.500 1_554 S
C1007 H993 0.960 . S
C1007 H994 0.961 1_556 S
C1007 H995 0.959 . S
C1007 C1005 1.561 . S
C1008 C1005 1.526 1_554 S
C1008 C1009 1.396 . S
C1008 C1013 1.390 . S
C1009 C1003 1.465 1_554 S
C1009 C1008 1.396 . S
C1009 C1010 1.399 . S
C1010 H996 0.929 . S
C1010 C1009 1.399 . S
C1010 C1011 1.385 . S
C1011 H997 0.931 . S
C1011 C1010 1.385 . S
C1011 C1012 1.389 . S
C1012 C1011 1.389 . S
C1012 C1013 1.387 . S
C1013 H998 0.930 . S
C1013 C1008 1.390 . S
C1013 C1012 1.387 . S
H1014 C1026 0.930 . S
H1015 C1028 0.930 . S
H1016 C1029 0.930 . S
H1017 C1033 0.959 . S
H1018 C1033 0.959 . S
H1019 C1033 0.961 1_556 S
H1020 C1034 0.960 1_556 S
H1021 C1034 0.961 . S
H1022 C1034 0.959 . S
H1023 C1037 0.929 . S
H1024 C1038 0.931 . S
H1025 C1040 0.930 . S
C1026 H1014 0.930 . S
C1026 C1027 1.399 . S
C1026 C1031 1.399 . S
C1027 C1026 1.399 . S
C1027 C1028 1.376 . S
C1028 H1015 0.930 . S
C1028 C1027 1.376 . S
C1028 C1029 1.388 . S
C1029 H1016 0.930 . S
C1029 C1028 1.388 . S
C1029 C1030 1.390 . S
C1030 C1029 1.390 . S
C1030 C1031 1.394 . S
C1030 C1036 1.465 1_556 S
C1031 C1026 1.399 . S
C1031 C1030 1.394 . S
C1031 C1032 1.516 1_556 S
C1032 C1031 1.516 1_554 S
C1032 C1033 1.502 . S
C1032 C1034 1.561 . S
C1032 C1035 1.526 . S
C1033 H1017 0.959 . S
C1033 H1018 0.959 . S
C1033 H1019 0.961 1_554 S
C1033 C1032 1.502 . S
C1034 H1020 0.960 1_554 S
C1034 H1021 0.961 . S
C1034 H1022 0.959 . S
C1034 C1032 1.561 . S
C1035 C1032 1.526 . S
C1035 C1036 1.396 . S
C1035 C1040 1.390 . S
C1036 C1030 1.465 1_554 S
C1036 C1035 1.396 . S
C1036 C1037 1.399 . S
C1037 H1023 0.929 . S
C1037 C1036 1.399 . S
C1037 C1038 1.385 . S
C1038 H1024 0.931 . S
C1038 C1037 1.385 . S
C1038 C1039 1.389 . S
C1039 C1038 1.389 . S
C1039 C1040 1.387 . S
C1040 H1025 0.930 . S
C1040 C1035 1.390 . S
C1040 C1039 1.387 . S
H1041 C1053 0.930 . S
H1042 C1055 0.930 . S
H1043 C1056 0.930 . S
H1044 C1060 0.960 . S
H1045 C1060 0.959 . S
H1046 C1060 0.961 1_556 S
H1047 C1061 0.960 1_556 S
H1048 C1061 0.961 . S
H1049 C1061 0.959 . S
H1050 C1064 0.929 . S
H1051 C1065 0.931 . S
H1052 C1067 0.930 . S
C1053 H1041 0.930 . S
C1053 C1054 1.399 . S
C1053 C1058 1.399 . S
C1054 C1053 1.399 . S
C1054 C1055 1.376 . S
C1055 H1042 0.930 . S
C1055 C1054 1.376 . S
C1055 C1056 1.388 . S
C1056 H1043 0.930 . S
C1056 C1055 1.388 . S
C1056 C1057 1.390 . S
C1057 C1056 1.390 . S
C1057 C1058 1.394 . S
C1057 C1063 1.465 1_556 S
C1058 C1053 1.399 . S
C1058 C1057 1.394 . S
C1058 C1059 1.516 1_556 S
C1059 C1058 1.516 1_554 S
C1059 C1060 1.502 . S
C1059 C1061 1.561 . S
C1059 C1062 1.526 . S
C1060 H1044 0.960 . S
C1060 H1045 0.959 . S
C1060 H1046 0.961 1_554 S
C1060 C1059 1.502 . S
C1061 H1047 0.960 1_554 S
C1061 H1048 0.961 . S
C1061 H1049 0.959 . S
C1061 C1059 1.561 . S
C1062 C1059 1.526 . S
C1062 C1063 1.396 . S
C1062 C1067 1.390 . S
C1063 C1057 1.465 1_554 S
C1063 C1062 1.396 . S
C1063 C1064 1.399 . S
C1064 H1050 0.929 . S
C1064 C1063 1.399 . S
C1064 C1065 1.385 . S
C1065 H1051 0.931 . S
C1065 C1064 1.385 . S
C1065 C1066 1.389 . S
C1066 C1065 1.389 . S
C1066 C1067 1.387 . S
C1067 H1052 0.930 . S
C1067 C1062 1.390 . S
C1067 C1066 1.387 . S
H1068 C1080 0.930 . S
H1069 C1082 0.930 . S
H1070 C1083 0.930 . S
H1071 C1087 0.959 . S
H1072 C1087 0.959 . S
H1073 C1087 0.961 . S
H1074 C1088 0.960 . S
H1075 C1088 0.961 . S
H1076 C1088 0.959 . S
H1077 C1091 0.929 . S
H1078 C1092 0.931 . S
H1079 C1094 0.930 . S
C1080 H1068 0.930 . S
C1080 C1081 1.399 . S
C1080 C1085 1.399 . S
C1081 C1080 1.399 . S
C1081 C1082 1.376 . S
C1082 H1069 0.930 . S
C1082 C1081 1.376 . S
C1082 C1083 1.388 . S
C1083 H1070 0.930 . S
C1083 C1082 1.388 . S
C1083 C1084 1.390 . S
C1084 C1083 1.390 . S
C1084 C1085 1.394 . S
C1084 C1090 1.465 . S
C1085 C1080 1.399 . S
C1085 C1084 1.394 . S
C1085 C1086 1.516 . S
C1086 C1085 1.516 . S
C1086 C1087 1.502 . S
C1086 C1088 1.561 . S
C1086 C1089 1.526 . S
C1087 H1071 0.959 . S
C1087 H1072 0.959 . S
C1087 H1073 0.961 . S
C1087 C1086 1.502 . S
C1088 H1074 0.960 . S
C1088 H1075 0.961 . S
C1088 H1076 0.959 . S
C1088 C1086 1.561 . S
C1089 C1086 1.526 . S
C1089 C1090 1.396 . S
C1089 C1094 1.390 . S
C1090 C1084 1.465 . S
C1090 C1089 1.396 . S
C1090 C1091 1.399 . S
C1091 H1077 0.929 . S
C1091 C1090 1.399 . S
C1091 C1092 1.385 . S
C1092 H1078 0.931 . S
C1092 C1091 1.385 . S
C1092 C1093 1.389 . S
C1093 C1092 1.389 . S
C1093 C1094 1.387 . S
C1094 H1079 0.930 . S
C1094 C1089 1.390 . S
C1094 C1093 1.387 . S
H1095 C1107 0.930 . S
H1096 C1109 0.930 . S
H1097 C1110 0.930 . S
H1098 C1114 0.959 . S
H1099 C1114 0.959 . S
H1100 C1114 0.961 . S
H1101 C1115 0.960 . S
H1102 C1115 0.961 . S
H1103 C1115 0.959 . S
H1104 C1118 0.929 . S
H1105 C1119 0.931 . S
H1106 C1121 0.930 . S
C1107 H1095 0.930 . S
C1107 C1108 1.399 . S
C1107 C1112 1.399 . S
C1108 C1107 1.399 . S
C1108 C1109 1.376 . S
C1109 H1096 0.930 . S
C1109 C1108 1.376 . S
C1109 C1110 1.388 . S
C1110 H1097 0.930 . S
C1110 C1109 1.388 . S
C1110 C1111 1.390 . S
C1111 C1110 1.390 . S
C1111 C1112 1.394 . S
C1111 C1117 1.465 . S
C1112 C1107 1.399 . S
C1112 C1111 1.394 . S
C1112 C1113 1.516 . S
C1113 C1112 1.516 . S
C1113 C1114 1.502 . S
C1113 C1115 1.561 . S
C1113 C1116 1.526 . S
C1114 H1098 0.959 . S
C1114 H1099 0.959 . S
C1114 H1100 0.961 . S
C1114 C1113 1.502 . S
C1115 H1101 0.960 . S
C1115 H1102 0.961 . S
C1115 H1103 0.959 . S
C1115 C1113 1.561 . S
C1116 C1113 1.526 . S
C1116 C1117 1.396 . S
C1116 C1121 1.390 . S
C1117 C1111 1.465 . S
C1117 C1116 1.396 . S
C1117 C1118 1.399 . S
C1118 H1104 0.929 . S
C1118 C1117 1.399 . S
C1118 C1119 1.385 . S
C1119 H1105 0.931 . S
C1119 C1118 1.385 . S
C1119 C1120 1.389 . S
C1120 C1119 1.389 . S
C1120 C1121 1.387 . S
C1121 H1106 0.930 . S
C1121 C1116 1.390 . S
C1121 C1120 1.387 . S
H1122 C1134 0.930 . S
H1123 C1136 0.930 . S
H1124 C1137 0.930 . S
H1125 C1141 0.959 . S
H1126 C1141 0.959 . S
H1127 C1141 0.961 . S
H1128 C1142 0.960 . S
H1129 C1142 0.961 . S
H1130 C1142 0.959 . S
H1131 C1145 0.929 . S
H1132 C1146 0.931 . S
H1133 C1148 0.930 . S
C1134 H1122 0.930 . S
C1134 C1135 1.399 . S
C1134 C1139 1.399 . S
C1135 C1134 1.399 . S
C1135 C1136 1.376 . S
C1136 H1123 0.930 . S
C1136 C1135 1.376 . S
C1136 C1137 1.388 . S
C1137 H1124 0.930 . S
C1137 C1136 1.388 . S
C1137 C1138 1.390 . S
C1138 C1137 1.390 . S
C1138 C1139 1.394 . S
C1138 C1144 1.465 . S
C1139 C1134 1.399 . S
C1139 C1138 1.394 . S
C1139 C1140 1.516 . S
C1140 C1139 1.516 . S
C1140 C1141 1.502 . S
C1140 C1142 1.561 . S
C1140 C1143 1.526 . S
C1141 H1125 0.959 . S
C1141 H1126 0.959 . S
C1141 H1127 0.961 . S
C1141 C1140 1.502 . S
C1142 H1128 0.960 . S
C1142 H1129 0.961 . S
C1142 H1130 0.959 . S
C1142 C1140 1.561 . S
C1143 C1140 1.526 . S
C1143 C1144 1.396 . S
C1143 C1148 1.390 . S
C1144 C1138 1.465 . S
C1144 C1143 1.396 . S
C1144 C1145 1.399 . S
C1145 H1131 0.929 . S
C1145 C1144 1.399 . S
C1145 C1146 1.385 . S
C1146 H1132 0.931 . S
C1146 C1145 1.385 . S
C1146 C1147 1.389 . S
C1147 C1146 1.389 . S
C1147 C1148 1.387 . S
C1148 H1133 0.930 . S
C1148 C1143 1.390 . S
C1148 C1147 1.387 . S
H1149 C1161 0.930 . S
H1150 C1163 0.930 . S
H1151 C1164 0.930 . S
H1152 C1168 0.959 . S
H1153 C1168 0.959 . S
H1154 C1168 0.961 . S
H1155 C1169 0.960 . S
H1156 C1169 0.961 . S
H1157 C1169 0.959 . S
H1158 C1172 0.929 . S
H1159 C1173 0.931 . S
H1160 C1175 0.930 . S
C1161 H1149 0.930 . S
C1161 C1162 1.399 . S
C1161 C1166 1.399 . S
C1162 C1161 1.399 . S
C1162 C1163 1.376 . S
C1163 H1150 0.930 . S
C1163 C1162 1.376 . S
C1163 C1164 1.388 . S
C1164 H1151 0.930 . S
C1164 C1163 1.388 . S
C1164 C1165 1.390 . S
C1165 C1164 1.390 . S
C1165 C1166 1.394 . S
C1165 C1171 1.465 . S
C1166 C1161 1.399 . S
C1166 C1165 1.394 . S
C1166 C1167 1.516 . S
C1167 C1166 1.516 . S
C1167 C1168 1.502 . S
C1167 C1169 1.561 . S
C1167 C1170 1.526 . S
C1168 H1152 0.959 . S
C1168 H1153 0.959 . S
C1168 H1154 0.961 . S
C1168 C1167 1.502 . S
C1169 H1155 0.960 . S
C1169 H1156 0.961 . S
C1169 H1157 0.959 . S
C1169 C1167 1.561 . S
C1170 C1167 1.526 . S
C1170 C1171 1.396 . S
C1170 C1175 1.390 . S
C1171 C1165 1.465 . S
C1171 C1170 1.396 . S
C1171 C1172 1.399 . S
C1172 H1158 0.929 . S
C1172 C1171 1.399 . S
C1172 C1173 1.385 . S
C1173 H1159 0.931 . S
C1173 C1172 1.385 . S
C1173 C1174 1.389 . S
C1174 C1173 1.389 . S
C1174 C1175 1.387 . S
C1175 H1160 0.930 . S
C1175 C1170 1.390 . S
C1175 C1174 1.387 . S
H1176 C1188 0.930 . S
H1177 C1190 0.930 . S
H1178 C1191 0.930 . S
H1179 C1195 0.959 . S
H1180 C1195 0.959 . S
H1181 C1195 0.961 . S
H1182 C1196 0.960 . S
H1183 C1196 0.961 . S
H1184 C1196 0.959 . S
H1185 C1199 0.929 . S
H1186 C1200 0.931 . S
H1187 C1202 0.930 . S
C1188 H1176 0.930 . S
C1188 C1189 1.399 . S
C1188 C1193 1.399 . S
C1189 C1188 1.399 . S
C1189 C1190 1.376 . S
C1190 H1177 0.930 . S
C1190 C1189 1.376 . S
C1190 C1191 1.388 . S
C1191 H1178 0.930 . S
C1191 C1190 1.388 . S
C1191 C1192 1.390 . S
C1192 C1191 1.390 . S
C1192 C1193 1.394 . S
C1192 C1198 1.465 . S
C1193 C1188 1.399 . S
C1193 C1192 1.394 . S
C1193 C1194 1.516 . S
C1194 C1193 1.516 . S
C1194 C1195 1.502 . S
C1194 C1196 1.561 . S
C1194 C1197 1.526 . S
C1195 H1179 0.959 . S
C1195 H1180 0.959 . S
C1195 H1181 0.961 . S
C1195 C1194 1.502 . S
C1196 H1182 0.960 . S
C1196 H1183 0.961 . S
C1196 H1184 0.959 . S
C1196 C1194 1.561 . S
C1197 C1194 1.526 . S
C1197 C1198 1.396 . S
C1197 C1202 1.390 . S
C1198 C1192 1.465 . S
C1198 C1197 1.396 . S
C1198 C1199 1.399 . S
C1199 H1185 0.929 . S
C1199 C1198 1.399 . S
C1199 C1200 1.385 . S
C1200 H1186 0.931 . S
C1200 C1199 1.385 . S
C1200 C1201 1.389 . S
C1201 C1200 1.389 . S
C1201 C1202 1.387 . S
C1202 H1187 0.930 . S
C1202 C1197 1.390 . S
C1202 C1201 1.387 . S
H1203 C1215 0.930 . S
H1204 C1217 0.930 . S
H1205 C1218 0.930 . S
H1206 C1222 0.959 . S
H1207 C1222 0.959 . S
H1208 C1222 0.961 . S
H1209 C1223 0.960 . S
H1210 C1223 0.961 . S
H1211 C1223 0.959 . S
H1212 C1226 0.929 . S
H1213 C1227 0.931 . S
H1214 C1229 0.930 . S
C1215 H1203 0.930 . S
C1215 C1216 1.399 . S
C1215 C1220 1.399 . S
C1216 C1215 1.399 . S
C1216 C1217 1.376 . S
C1217 H1204 0.930 . S
C1217 C1216 1.376 . S
C1217 C1218 1.388 . S
C1218 H1205 0.930 . S
C1218 C1217 1.388 . S
C1218 C1219 1.390 . S
C1219 C1218 1.390 . S
C1219 C1220 1.394 . S
C1219 C1225 1.465 . S
C1220 C1215 1.399 . S
C1220 C1219 1.394 . S
C1220 C1221 1.516 . S
C1221 C1220 1.516 . S
C1221 C1222 1.502 . S
C1221 C1223 1.561 . S
C1221 C1224 1.526 . S
C1222 H1206 0.959 . S
C1222 H1207 0.959 . S
C1222 H1208 0.961 . S
C1222 C1221 1.502 . S
C1223 H1209 0.960 . S
C1223 H1210 0.961 . S
C1223 H1211 0.959 . S
C1223 C1221 1.561 . S
C1224 C1221 1.526 . S
C1224 C1225 1.396 . S
C1224 C1229 1.390 . S
C1225 C1219 1.465 . S
C1225 C1224 1.396 . S
C1225 C1226 1.399 . S
C1226 H1212 0.929 . S
C1226 C1225 1.399 . S
C1226 C1227 1.385 . S
C1227 H1213 0.931 . S
C1227 C1226 1.385 . S
C1227 C1228 1.389 . S
C1228 C1227 1.389 . S
C1228 C1229 1.387 . S
C1229 H1214 0.930 . S
C1229 C1224 1.390 . S
C1229 C1228 1.387 . S
H1230 C1242 0.930 . S
H1231 C1244 0.930 . S
H1232 C1245 0.930 . S
H1233 C1249 0.959 . S
H1234 C1249 0.959 . S
H1235 C1249 0.961 . S
H1236 C1250 0.960 . S
H1237 C1250 0.961 . S
H1238 C1250 0.959 . S
H1239 C1253 0.929 . S
H1240 C1254 0.931 . S
H1241 C1256 0.930 . S
C1242 H1230 0.930 . S
C1242 C1243 1.399 . S
C1242 C1247 1.399 . S
C1243 C1242 1.399 . S
C1243 C1244 1.376 . S
C1244 H1231 0.930 . S
C1244 C1243 1.376 . S
C1244 C1245 1.388 . S
C1245 H1232 0.930 . S
C1245 C1244 1.388 . S
C1245 C1246 1.390 . S
C1246 C1245 1.390 . S
C1246 C1247 1.394 . S
C1246 C1252 1.465 . S
C1247 C1242 1.399 . S
C1247 C1246 1.394 . S
C1247 C1248 1.516 . S
C1248 C1247 1.516 . S
C1248 C1249 1.502 . S
C1248 C1250 1.561 . S
C1248 C1251 1.526 . S
C1249 H1233 0.959 . S
C1249 H1234 0.959 . S
C1249 H1235 0.961 . S
C1249 C1248 1.502 . S
C1250 H1236 0.960 . S
C1250 H1237 0.961 . S
C1250 H1238 0.959 . S
C1250 C1248 1.561 . S
C1251 C1248 1.526 . S
C1251 C1252 1.396 . S
C1251 C1256 1.390 . S
C1252 C1246 1.465 . S
C1252 C1251 1.396 . S
C1252 C1253 1.399 . S
C1253 H1239 0.929 . S
C1253 C1252 1.399 . S
C1253 C1254 1.385 . S
C1254 H1240 0.931 . S
C1254 C1253 1.385 . S
C1254 C1255 1.389 . S
C1255 C1254 1.389 . S
C1255 C1256 1.387 . S
C1256 H1241 0.930 . S
C1256 C1251 1.390 . S
C1256 C1255 1.387 . S
H1257 C1269 0.930 . S
H1258 C1271 0.930 . S
H1259 C1272 0.930 . S
H1260 C1276 0.959 . S
H1261 C1276 0.959 . S
H1262 C1276 0.961 . S
H1263 C1277 0.960 . S
H1264 C1277 0.961 . S
H1265 C1277 0.959 . S
H1266 C1280 0.929 . S
H1267 C1281 0.931 . S
H1268 C1283 0.930 . S
C1269 H1257 0.930 . S
C1269 C1270 1.399 . S
C1269 C1274 1.399 . S
C1270 C1269 1.399 . S
C1270 C1271 1.376 . S
C1271 H1258 0.930 . S
C1271 C1270 1.376 . S
C1271 C1272 1.388 . S
C1272 H1259 0.930 . S
C1272 C1271 1.388 . S
C1272 C1273 1.390 . S
C1273 C1272 1.390 . S
C1273 C1274 1.394 . S
C1273 C1279 1.465 . S
C1274 C1269 1.399 . S
C1274 C1273 1.394 . S
C1274 C1275 1.516 . S
C1275 C1274 1.516 . S
C1275 C1276 1.502 . S
C1275 C1277 1.561 . S
C1275 C1278 1.526 . S
C1276 H1260 0.959 . S
C1276 H1261 0.959 . S
C1276 H1262 0.961 . S
C1276 C1275 1.502 . S
C1277 H1263 0.960 . S
C1277 H1264 0.961 . S
C1277 H1265 0.959 . S
C1277 C1275 1.561 . S
C1278 C1275 1.526 . S
C1278 C1279 1.396 . S
C1278 C1283 1.390 . S
C1279 C1273 1.465 . S
C1279 C1278 1.396 . S
C1279 C1280 1.399 . S
C1280 H1266 0.929 . S
C1280 C1279 1.399 . S
C1280 C1281 1.385 . S
C1281 H1267 0.931 . S
C1281 C1280 1.385 . S
C1281 C1282 1.389 . S
C1282 C1281 1.389 . S
C1282 C1283 1.387 . S
C1283 H1268 0.930 . S
C1283 C1278 1.390 . S
C1283 C1282 1.387 . S
H1284 C1296 0.930 . S
H1285 C1298 0.930 . S
H1286 C1299 0.930 . S
H1287 C1303 0.959 . S
H1288 C1303 0.959 . S
H1289 C1303 0.961 . S
H1290 C1304 0.960 . S
H1291 C1304 0.961 . S
H1292 C1304 0.959 . S
H1293 C1307 0.929 . S
H1294 C1308 0.931 . S
H1295 C1310 0.930 . S
C1296 H1284 0.930 . S
C1296 C1297 1.399 . S
C1296 C1301 1.399 . S
C1297 C1296 1.399 . S
C1297 C1298 1.376 . S
C1298 H1285 0.930 . S
C1298 C1297 1.376 . S
C1298 C1299 1.388 . S
C1299 H1286 0.930 . S
C1299 C1298 1.388 . S
C1299 C1300 1.390 . S
C1300 C1299 1.390 . S
C1300 C1301 1.394 . S
C1300 C1306 1.465 . S
C1301 C1296 1.399 . S
C1301 C1300 1.394 . S
C1301 C1302 1.516 . S
C1302 C1301 1.516 . S
C1302 C1303 1.502 . S
C1302 C1304 1.561 . S
C1302 C1305 1.526 . S
C1303 H1287 0.959 . S
C1303 H1288 0.959 . S
C1303 H1289 0.961 . S
C1303 C1302 1.502 . S
C1304 H1290 0.960 . S
C1304 H1291 0.961 . S
C1304 H1292 0.959 . S
C1304 C1302 1.561 . S
C1305 C1302 1.526 . S
C1305 C1306 1.396 . S
C1305 C1310 1.390 . S
C1306 C1300 1.465 . S
C1306 C1305 1.396 . S
C1306 C1307 1.399 . S
C1307 H1293 0.929 . S
C1307 C1306 1.399 . S
C1307 C1308 1.385 . S
C1308 H1294 0.931 . S
C1308 C1307 1.385 . S
C1308 C1309 1.389 . S
C1309 C1308 1.389 . S
C1309 C1310 1.387 . S
C1310 H1295 0.930 . S
C1310 C1305 1.390 . S
C1310 C1309 1.387 . S
H1311 C1323 0.930 . S
H1312 C1325 0.930 . S
H1313 C1326 0.930 . S
H1314 C1330 0.959 . S
H1315 C1330 0.959 . S
H1316 C1330 0.961 . S
H1317 C1331 0.960 . S
H1318 C1331 0.961 . S
H1319 C1331 0.959 . S
H1320 C1334 0.929 . S
H1321 C1335 0.931 . S
H1322 C1337 0.930 . S
C1323 H1311 0.930 . S
C1323 C1324 1.399 . S
C1323 C1328 1.399 . S
C1324 C1323 1.399 . S
C1324 C1325 1.376 . S
C1325 H1312 0.930 . S
C1325 C1324 1.376 . S
C1325 C1326 1.388 . S
C1326 H1313 0.930 . S
C1326 C1325 1.388 . S
C1326 C1327 1.390 . S
C1327 C1326 1.390 . S
C1327 C1328 1.394 . S
C1327 C1333 1.465 . S
C1328 C1323 1.399 . S
C1328 C1327 1.394 . S
C1328 C1329 1.516 . S
C1329 C1328 1.516 . S
C1329 C1330 1.502 . S
C1329 C1331 1.561 . S
C1329 C1332 1.526 . S
C1330 H1314 0.959 . S
C1330 H1315 0.959 . S
C1330 H1316 0.961 . S
C1330 C1329 1.502 . S
C1331 H1317 0.960 . S
C1331 H1318 0.961 . S
C1331 H1319 0.959 . S
C1331 C1329 1.561 . S
C1332 C1329 1.526 . S
C1332 C1333 1.396 . S
C1332 C1337 1.390 . S
C1333 C1327 1.465 . S
C1333 C1332 1.396 . S
C1333 C1334 1.399 . S
C1334 H1320 0.929 . S
C1334 C1333 1.399 . S
C1334 C1335 1.385 . S
C1335 H1321 0.931 . S
C1335 C1334 1.385 . S
C1335 C1336 1.389 . S
C1336 C1335 1.389 . S
C1336 C1337 1.387 . S
C1337 H1322 0.930 . S
C1337 C1332 1.390 . S
C1337 C1336 1.387 . S
H1338 C1350 0.930 . S
H1339 C1352 0.930 . S
H1340 C1353 0.930 . S
H1341 C1357 0.959 . S
H1342 C1357 0.959 . S
H1343 C1357 0.961 . S
H1344 C1358 0.960 . S
H1345 C1358 0.961 . S
H1346 C1358 0.959 . S
H1347 C1361 0.929 . S
H1348 C1362 0.931 . S
H1349 C1364 0.930 . S
C1350 H1338 0.930 . S
C1350 C1351 1.399 . S
C1350 C1355 1.399 . S
C1351 C1350 1.399 . S
C1351 C1352 1.376 . S
C1352 H1339 0.930 . S
C1352 C1351 1.376 . S
C1352 C1353 1.388 . S
C1353 H1340 0.930 . S
C1353 C1352 1.388 . S
C1353 C1354 1.390 . S
C1354 C1353 1.390 . S
C1354 C1355 1.394 . S
C1354 C1360 1.465 . S
C1355 C1350 1.399 . S
C1355 C1354 1.394 . S
C1355 C1356 1.516 . S
C1356 C1355 1.516 . S
C1356 C1357 1.502 . S
C1356 C1358 1.561 . S
C1356 C1359 1.526 . S
C1357 H1341 0.959 . S
C1357 H1342 0.959 . S
C1357 H1343 0.961 . S
C1357 C1356 1.502 . S
C1358 H1344 0.960 . S
C1358 H1345 0.961 . S
C1358 H1346 0.959 . S
C1358 C1356 1.561 . S
C1359 C1356 1.526 . S
C1359 C1360 1.396 . S
C1359 C1364 1.390 . S
C1360 C1354 1.465 . S
C1360 C1359 1.396 . S
C1360 C1361 1.399 . S
C1361 H1347 0.929 . S
C1361 C1360 1.399 . S
C1361 C1362 1.385 . S
C1362 H1348 0.931 . S
C1362 C1361 1.385 . S
C1362 C1363 1.389 . S
C1363 C1362 1.389 . S
C1363 C1364 1.387 . S
C1364 H1349 0.930 . S
C1364 C1359 1.390 . S
C1364 C1363 1.387 . S
H1365 C1377 0.930 . S
H1366 C1379 0.930 . S
H1367 C1380 0.930 . S
H1368 C1384 0.959 . S
H1369 C1384 0.959 . S
H1370 C1384 0.961 . S
H1371 C1385 0.960 . S
H1372 C1385 0.961 . S
H1373 C1385 0.959 . S
H1374 C1388 0.929 . S
H1375 C1389 0.931 . S
H1376 C1391 0.930 . S
C1377 H1365 0.930 . S
C1377 C1378 1.399 . S
C1377 C1382 1.399 . S
C1378 C1377 1.399 . S
C1378 C1379 1.376 . S
C1379 H1366 0.930 . S
C1379 C1378 1.376 . S
C1379 C1380 1.388 . S
C1380 H1367 0.930 . S
C1380 C1379 1.388 . S
C1380 C1381 1.390 . S
C1381 C1380 1.390 . S
C1381 C1382 1.394 . S
C1381 C1387 1.465 . S
C1382 C1377 1.399 . S
C1382 C1381 1.394 . S
C1382 C1383 1.516 . S
C1383 C1382 1.516 . S
C1383 C1384 1.502 . S
C1383 C1385 1.561 . S
C1383 C1386 1.526 . S
C1384 H1368 0.959 . S
C1384 H1369 0.959 . S
C1384 H1370 0.961 . S
C1384 C1383 1.502 . S
C1385 H1371 0.960 . S
C1385 H1372 0.961 . S
C1385 H1373 0.959 . S
C1385 C1383 1.561 . S
C1386 C1383 1.526 . S
C1386 C1387 1.396 . S
C1386 C1391 1.390 . S
C1387 C1381 1.465 . S
C1387 C1386 1.396 . S
C1387 C1388 1.399 . S
C1388 H1374 0.929 . S
C1388 C1387 1.399 . S
C1388 C1389 1.385 . S
C1389 H1375 0.931 . S
C1389 C1388 1.385 . S
C1389 C1390 1.389 . S
C1390 C1389 1.389 . S
C1390 C1391 1.387 . S
C1391 H1376 0.930 . S
C1391 C1386 1.390 . S
C1391 C1390 1.387 . S
H1392 C1404 0.930 . S
H1393 C1406 0.930 . S
H1394 C1407 0.930 . S
H1395 C1411 0.959 . S
H1396 C1411 0.959 . S
H1397 C1411 0.961 . S
H1398 C1412 0.960 . S
H1399 C1412 0.961 . S
H1400 C1412 0.959 . S
H1401 C1415 0.929 1_545 S
H1402 C1416 0.931 . S
H1403 C1418 0.930 . S
C1404 H1392 0.930 . S
C1404 C1405 1.399 . S
C1404 C1409 1.399 . S
C1405 C1404 1.399 . S
C1405 C1406 1.376 . S
C1406 H1393 0.930 . S
C1406 C1405 1.376 . S
C1406 C1407 1.388 . S
C1407 H1394 0.930 . S
C1407 C1406 1.388 . S
C1407 C1408 1.390 . S
C1408 C1407 1.390 . S
C1408 C1409 1.394 . S
C1408 C1414 1.465 1_545 S
C1409 C1404 1.399 . S
C1409 C1408 1.394 . S
C1409 C1410 1.516 1_545 S
C1410 C1409 1.516 1_565 S
C1410 C1411 1.502 . S
C1410 C1412 1.561 . S
C1410 C1413 1.526 . S
C1411 H1395 0.959 . S
C1411 H1396 0.959 . S
C1411 H1397 0.961 . S
C1411 C1410 1.502 . S
C1412 H1398 0.960 . S
C1412 H1399 0.961 . S
C1412 H1400 0.959 . S
C1412 C1410 1.561 . S
C1413 C1410 1.526 . S
C1413 C1414 1.396 . S
C1413 C1418 1.390 . S
C1414 C1408 1.465 1_565 S
C1414 C1413 1.396 . S
C1414 C1415 1.399 . S
C1415 H1401 0.929 1_565 S
C1415 C1414 1.399 . S
C1415 C1416 1.385 . S
C1416 H1402 0.931 . S
C1416 C1415 1.385 . S
C1416 C1417 1.389 . S
C1417 C1416 1.389 . S
C1417 C1418 1.387 . S
C1418 H1403 0.930 . S
C1418 C1413 1.390 . S
C1418 C1417 1.387 . S
H1419 C1431 0.930 . S
H1420 C1433 0.930 . S
H1421 C1434 0.930 . S
H1422 C1438 0.959 . S
H1423 C1438 0.959 . S
H1424 C1438 0.961 . S
H1425 C1439 0.960 . S
H1426 C1439 0.961 . S
H1427 C1439 0.959 . S
H1428 C1442 0.929 . S
H1429 C1443 0.931 . S
H1430 C1445 0.930 . S
C1431 H1419 0.930 . S
C1431 C1432 1.399 . S
C1431 C1436 1.399 . S
C1432 C1431 1.399 . S
C1432 C1433 1.376 . S
C1433 H1420 0.930 . S
C1433 C1432 1.376 . S
C1433 C1434 1.388 . S
C1434 H1421 0.930 . S
C1434 C1433 1.388 . S
C1434 C1435 1.390 . S
C1435 C1434 1.390 . S
C1435 C1436 1.394 . S
C1435 C1441 1.465 1_655 S
C1436 C1431 1.399 . S
C1436 C1435 1.394 . S
C1436 C1437 1.516 . S
C1437 C1436 1.516 . S
C1437 C1438 1.502 1_655 S
C1437 C1439 1.561 . S
C1437 C1440 1.526 1_655 S
C1438 H1422 0.959 . S
C1438 H1423 0.959 . S
C1438 H1424 0.961 . S
C1438 C1437 1.502 1_455 S
C1439 H1425 0.960 . S
C1439 H1426 0.961 . S
C1439 H1427 0.959 . S
C1439 C1437 1.561 . S
C1440 C1437 1.526 1_455 S
C1440 C1441 1.396 . S
C1440 C1445 1.390 . S
C1441 C1435 1.465 1_455 S
C1441 C1440 1.396 . S
C1441 C1442 1.399 . S
C1442 H1428 0.929 . S
C1442 C1441 1.399 . S
C1442 C1443 1.385 . S
C1443 H1429 0.931 . S
C1443 C1442 1.385 . S
C1443 C1444 1.389 . S
C1444 C1443 1.389 . S
C1444 C1445 1.387 . S
C1445 H1430 0.930 . S
C1445 C1440 1.390 . S
C1445 C1444 1.387 . S
H1446 C1458 0.930 . S
H1447 C1460 0.930 . S
H1448 C1461 0.930 . S
H1449 C1465 0.959 . S
H1450 C1465 0.959 . S
H1451 C1465 0.961 . S
H1452 C1466 0.960 . S
H1453 C1466 0.961 . S
H1454 C1466 0.959 . S
H1455 C1469 0.930 1_545 S
H1456 C1470 0.931 . S
H1457 C1472 0.930 . S
C1458 H1446 0.930 . S
C1458 C1459 1.399 . S
C1458 C1463 1.399 . S
C1459 C1458 1.399 . S
C1459 C1460 1.376 . S
C1460 H1447 0.930 . S
C1460 C1459 1.376 . S
C1460 C1461 1.388 . S
C1461 H1448 0.930 . S
C1461 C1460 1.388 . S
C1461 C1462 1.390 . S
C1462 C1461 1.390 . S
C1462 C1463 1.394 . S
C1462 C1468 1.465 1_545 S
C1463 C1458 1.399 . S
C1463 C1462 1.394 . S
C1463 C1464 1.516 1_545 S
C1464 C1463 1.516 1_565 S
C1464 C1465 1.502 . S
C1464 C1466 1.561 . S
C1464 C1467 1.526 . S
C1465 H1449 0.959 . S
C1465 H1450 0.959 . S
C1465 H1451 0.961 . S
C1465 C1464 1.502 . S
C1466 H1452 0.960 . S
C1466 H1453 0.961 . S
C1466 H1454 0.959 . S
C1466 C1464 1.561 . S
C1467 C1464 1.526 . S
C1467 C1468 1.396 . S
C1467 C1472 1.390 . S
C1468 C1462 1.465 1_565 S
C1468 C1467 1.396 . S
C1468 C1469 1.399 . S
C1469 H1455 0.930 1_565 S
C1469 C1468 1.399 . S
C1469 C1470 1.384 . S
C1470 H1456 0.931 . S
C1470 C1469 1.384 . S
C1470 C1471 1.389 . S
C1471 C1470 1.389 . S
C1471 C1472 1.387 . S
C1472 H1457 0.930 . S
C1472 C1467 1.390 . S
C1472 C1471 1.387 . S
H1473 C1485 0.930 . S
H1474 C1487 0.930 . S
H1475 C1488 0.930 . S
H1476 C1492 0.959 . S
H1477 C1492 0.959 . S
H1478 C1492 0.961 . S
H1479 C1493 0.960 . S
H1480 C1493 0.963 . S
H1481 C1493 0.959 . S
H1482 C1496 0.929 . S
H1483 C1497 0.931 . S
H1484 C1499 0.930 . S
C1485 H1473 0.930 . S
C1485 C1486 1.399 . S
C1485 C1490 1.399 . S
C1486 C1485 1.399 . S
C1486 C1487 1.376 . S
C1487 H1474 0.930 . S
C1487 C1486 1.376 . S
C1487 C1488 1.388 . S
C1488 H1475 0.930 . S
C1488 C1487 1.388 . S
C1488 C1489 1.390 . S
C1489 C1488 1.390 . S
C1489 C1490 1.394 . S
C1489 C1495 1.465 1_655 S
C1490 C1485 1.399 . S
C1490 C1489 1.394 . S
C1490 C1491 1.516 1_655 S
C1491 C1490 1.516 1_455 S
C1491 C1492 1.502 . S
C1491 C1493 1.561 1_455 S
C1491 C1494 1.526 . S
C1492 H1476 0.959 . S
C1492 H1477 0.959 . S
C1492 H1478 0.961 . S
C1492 C1491 1.502 . S
C1493 H1479 0.960 . S
C1493 H1480 0.963 . S
C1493 H1481 0.959 . S
C1493 C1491 1.561 1_655 S
C1494 C1491 1.526 . S
C1494 C1495 1.396 . S
C1494 C1499 1.390 . S
C1495 C1489 1.465 1_455 S
C1495 C1494 1.396 . S
C1495 C1496 1.399 . S
C1496 H1482 0.929 . S
C1496 C1495 1.399 . S
C1496 C1497 1.385 . S
C1497 H1483 0.931 . S
C1497 C1496 1.385 . S
C1497 C1498 1.389 . S
C1498 C1497 1.389 . S
C1498 C1499 1.387 . S
C1499 H1484 0.930 . S
C1499 C1494 1.390 . S
C1499 C1498 1.387 . S
H1500 C1512 0.930 . S
H1501 C1514 0.930 . S
H1502 C1515 0.930 . S
H1503 C1519 0.959 1_545 S
H1504 C1519 0.959 . S
H1505 C1519 0.961 . S
H1506 C1520 0.960 . S
H1507 C1520 0.961 . S
H1508 C1520 0.959 . S
H1509 C1523 0.929 . S
H1510 C1524 0.931 . S
H1511 C1526 0.930 . S
C1512 H1500 0.930 . S
C1512 C1513 1.399 . S
C1512 C1517 1.399 . S
C1513 C1512 1.399 . S
C1513 C1514 1.376 . S
C1514 H1501 0.930 . S
C1514 C1513 1.376 . S
C1514 C1515 1.388 . S
C1515 H1502 0.930 . S
C1515 C1514 1.388 . S
C1515 C1516 1.390 . S
C1516 C1515 1.390 . S
C1516 C1517 1.394 . S
C1516 C1522 1.465 1_565 S
C1517 C1512 1.399 . S
C1517 C1516 1.394 . S
C1517 C1518 1.516 . S
C1518 C1517 1.516 . S
C1518 C1519 1.502 . S
C1518 C1520 1.561 . S
C1518 C1521 1.526 1_565 S
C1519 H1503 0.959 1_565 S
C1519 H1504 0.959 . S
C1519 H1505 0.961 . S
C1519 C1518 1.502 . S
C1520 H1506 0.960 . S
C1520 H1507 0.961 . S
C1520 H1508 0.959 . S
C1520 C1518 1.561 . S
C1521 C1518 1.526 1_545 S
C1521 C1522 1.396 . S
C1521 C1526 1.390 . S
C1522 C1516 1.465 1_545 S
C1522 C1521 1.396 . S
C1522 C1523 1.399 . S
C1523 H1509 0.929 . S
C1523 C1522 1.399 . S
C1523 C1524 1.385 . S
C1524 H1510 0.931 . S
C1524 C1523 1.385 . S
C1524 C1525 1.389 . S
C1525 C1524 1.389 . S
C1525 C1526 1.387 . S
C1526 H1511 0.930 . S
C1526 C1521 1.390 . S
C1526 C1525 1.387 . S
H1527 C1539 0.930 . S
H1528 C1541 0.930 . S
H1529 C1542 0.930 . S
H1530 C1546 0.959 . S
H1531 C1546 0.959 . S
H1532 C1546 0.961 . S
H1533 C1547 0.960 1_455 S
H1534 C1547 0.961 . S
H1535 C1547 0.959 . S
H1536 C1550 0.929 . S
H1537 C1551 0.931 . S
H1538 C1553 0.930 . S
C1539 H1527 0.930 . S
C1539 C1540 1.399 . S
C1539 C1544 1.399 . S
C1540 C1539 1.399 . S
C1540 C1541 1.376 . S
C1541 H1528 0.930 . S
C1541 C1540 1.376 . S
C1541 C1542 1.388 . S
C1542 H1529 0.930 . S
C1542 C1541 1.388 . S
C1542 C1543 1.390 . S
C1543 C1542 1.390 . S
C1543 C1544 1.394 . S
C1543 C1549 1.465 1_455 S
C1544 C1539 1.399 . S
C1544 C1543 1.394 . S
C1544 C1545 1.516 . S
C1545 C1544 1.516 . S
C1545 C1546 1.502 . S
C1545 C1547 1.561 1_455 S
C1545 C1548 1.526 1_455 S
C1546 H1530 0.959 . S
C1546 H1531 0.959 . S
C1546 H1532 0.961 . S
C1546 C1545 1.502 . S
C1547 H1533 0.960 1_655 S
C1547 H1534 0.961 . S
C1547 H1535 0.959 . S
C1547 C1545 1.561 1_655 S
C1548 C1545 1.526 1_655 S
C1548 C1549 1.396 . S
C1548 C1553 1.390 . S
C1549 C1543 1.465 1_655 S
C1549 C1548 1.396 . S
C1549 C1550 1.399 . S
C1550 H1536 0.929 . S
C1550 C1549 1.399 . S
C1550 C1551 1.385 . S
C1551 H1537 0.931 . S
C1551 C1550 1.385 . S
C1551 C1552 1.389 . S
C1552 C1551 1.389 . S
C1552 C1553 1.387 . S
C1553 H1538 0.930 . S
C1553 C1548 1.390 . S
C1553 C1552 1.387 . S
H1554 C1566 0.930 . S
H1555 C1568 0.930 . S
H1556 C1569 0.930 1_545 S
H1557 C1573 0.959 . S
H1558 C1573 0.959 . S
H1559 C1573 0.961 . S
H1560 C1574 0.960 . S
H1561 C1574 0.961 . S
H1562 C1574 0.959 . S
H1563 C1577 0.929 . S
H1564 C1578 0.931 . S
H1565 C1580 0.930 . S
C1566 H1554 0.930 . S
C1566 C1567 1.399 . S
C1566 C1571 1.399 . S
C1567 C1566 1.399 . S
C1567 C1568 1.376 . S
C1568 H1555 0.930 . S
C1568 C1567 1.376 . S
C1568 C1569 1.388 . S
C1569 H1556 0.930 1_565 S
C1569 C1568 1.388 . S
C1569 C1570 1.390 . S
C1570 C1569 1.390 . S
C1570 C1571 1.394 . S
C1570 C1576 1.465 1_565 S
C1571 C1566 1.399 . S
C1571 C1570 1.394 . S
C1571 C1572 1.516 . S
C1572 C1571 1.516 . S
C1572 C1573 1.502 . S
C1572 C1574 1.561 . S
C1572 C1575 1.526 1_565 S
C1573 H1557 0.959 . S
C1573 H1558 0.959 . S
C1573 H1559 0.961 . S
C1573 C1572 1.502 . S
C1574 H1560 0.960 . S
C1574 H1561 0.961 . S
C1574 H1562 0.959 . S
C1574 C1572 1.561 . S
C1575 C1572 1.526 1_545 S
C1575 C1576 1.396 . S
C1575 C1580 1.390 . S
C1576 C1570 1.465 1_545 S
C1576 C1575 1.396 . S
C1576 C1577 1.399 . S
C1577 H1563 0.929 . S
C1577 C1576 1.399 . S
C1577 C1578 1.385 . S
C1578 H1564 0.931 . S
C1578 C1577 1.385 . S
C1578 C1579 1.389 . S
C1579 C1578 1.389 . S
C1579 C1580 1.387 . S
C1580 H1565 0.930 . S
C1580 C1575 1.390 . S
C1580 C1579 1.387 . S
H1581 C1593 0.930 . S
H1582 C1595 0.930 . S
H1583 C1596 0.930 . S
H1584 C1600 0.959 . S
H1585 C1600 0.959 . S
H1586 C1600 0.961 . S
H1587 C1601 0.960 . S
H1588 C1601 0.961 1_455 S
H1589 C1601 0.959 . S
H1590 C1604 0.929 . S
H1591 C1605 0.931 . S
H1592 C1607 0.930 . S
C1593 H1581 0.930 . S
C1593 C1594 1.399 . S
C1593 C1598 1.399 . S
C1594 C1593 1.399 . S
C1594 C1595 1.376 . S
C1595 H1582 0.930 . S
C1595 C1594 1.376 . S
C1595 C1596 1.388 . S
C1596 H1583 0.930 . S
C1596 C1595 1.388 . S
C1596 C1597 1.390 . S
C1597 C1596 1.390 . S
C1597 C1598 1.394 . S
C1597 C1603 1.465 1_655 S
C1598 C1593 1.399 . S
C1598 C1597 1.394 . S
C1598 C1599 1.516 1_655 S
C1599 C1598 1.516 1_455 S
C1599 C1600 1.502 . S
C1599 C1601 1.561 1_455 S
C1599 C1602 1.526 . S
C1600 H1584 0.959 . S
C1600 H1585 0.959 . S
C1600 H1586 0.961 . S
C1600 C1599 1.502 . S
C1601 H1587 0.960 . S
C1601 H1588 0.961 1_655 S
C1601 H1589 0.959 . S
C1601 C1599 1.561 1_655 S
C1602 C1599 1.526 . S
C1602 C1603 1.396 . S
C1602 C1607 1.390 . S
C1603 C1597 1.465 1_455 S
C1603 C1602 1.396 . S
C1603 C1604 1.399 . S
C1604 H1590 0.929 . S
C1604 C1603 1.399 . S
C1604 C1605 1.385 . S
C1605 H1591 0.931 . S
C1605 C1604 1.385 . S
C1605 C1606 1.389 . S
C1606 C1605 1.389 . S
C1606 C1607 1.387 . S
C1607 H1592 0.930 . S
C1607 C1602 1.390 . S
C1607 C1606 1.387 . S
C541 N79 0.870 . S
C553 N13 0.861 . S
C568 N46 0.970 . S
C580 N112 0.984 . S
C595 N211 0.981 . S
C607 N145 0.992 . S
C622 N244 1.010 . S
C634 N178 1.004 . S
C649 N277 0.925 . S
C661 N343 0.907 . S
C676 N310 0.865 . S
C688 N376 0.857 . S
C703 N409 0.882 . S
C715 N475 0.870 . S
C730 N508 0.848 . S
C742 N442 0.850 . S
C757 N2 1.794 . S
C769 N167 1.805 . S
C784 N200 1.815 . S
C796 N35 1.813 . S
C811 N233 1.812 . S
C823 N68 1.801 . S
C838 N134 1.815 . S
C850 N101 1.806 . S
C865 N431 1.799 . S
C877 N266 1.811 . S
C892 N464 1.797 . S
C904 N299 1.808 . S
C919 N497 1.793 . S
C931 N332 1.802 . S
C946 N398 1.795 . S
C958 N365 1.794 . S
C973 C18 1.195 . S
C985 C348 1.193 . S
C1000 C381 1.142 . S
C1012 C51 1.143 . S
C1027 C282 1.154 . S
C1039 C84 1.168 . S
C1054 C315 1.193 . S
C1066 C117 1.195 . S
C1081 C150 1.144 . S
C1093 C480 1.142 . S
C1108 C183 1.142 . S
C1120 C513 1.151 . S
C1135 C216 1.142 . S
C1147 C414 1.150 . S
C1162 C249 1.160 . S
C1174 C447 1.175 . S
C1189 C139 1.038 . S
C1201 C7 1.082 . S
C1216 C40 1.054 . S
C1228 C172 0.988 . S
C1243 C205 0.973 . S
C1255 C73 1.033 . S
C1270 C238 0.988 . S
C1282 C106 0.973 . S
C1297 C285 0.555 . S
C1309 C417 0.586 . S
C1324 C450 0.522 . S
C1336 C318 0.500 . S
C1351 C351 0.527 . S
C1363 C483 0.557 . S
C1378 C516 0.607 . S
C1390 C384 0.631 . S
C1405 C370 0.972 . S
C1417 C436 1.031 . S
C1432 C271 1.061 . S
C1444 C469 1.080 . S
C1459 C502 0.988 . S
C1471 C304 1.055 . S
C1486 C403 1.050 . S
C1498 C337 1.082 . S
C1513 C120 0.481 . S
C1525 C186 0.495 . S
C1540 C21 0.643 . S
C1552 C219 0.656 . S
C1567 C252 0.520 . S
C1579 C54 0.549 . S
C1594 C87 0.507 . S
C1606 C153 0.490 . S
