# Generated by pormake.
# Topology wje, (4)-cn, num edge types: 1
# Building blocks:
#     Node 0, Type 0, BuildingBlock: QUQFOY_clean_sbu_3, # of connection points: 4
#     Node 1, Type 0, BuildingBlock: QUQFOY_clean_sbu_3, # of connection points: 4
#     Node 2, Type 0, BuildingBlock: QUQFOY_clean_sbu_3, # of connection points: 4
#     Node 3, Type 0, BuildingBlock: QUQFOY_clean_sbu_3, # of connection points: 4
#     Node 4, Type 0, BuildingBlock: QUQFOY_clean_sbu_3, # of connection points: 4
#     Node 5, Type 0, BuildingBlock: QUQFOY_clean_sbu_3, # of connection points: 4
#     Node 6, Type 0, BuildingBlock: QUQFOY_clean_sbu_3, # of connection points: 4
#     Node 7, Type 0, BuildingBlock: QUQFOY_clean_sbu_3, # of connection points: 4
#     Node 8, Type 0, BuildingBlock: QUQFOY_clean_sbu_3, # of connection points: 4
#     Node 9, Type 0, BuildingBlock: QUQFOY_clean_sbu_3, # of connection points: 4
#     Node 10, Type 0, BuildingBlock: QUQFOY_clean_sbu_3, # of connection points: 4
#     Node 11, Type 0, BuildingBlock: QUQFOY_clean_sbu_3, # of connection points: 4
#     Edge 12, Type (0, 0), BuildingBlock: KIFKEQ_clean_linker_1, # of connection points: 2
#     Edge 13, Type (0, 0), BuildingBlock: KIFKEQ_clean_linker_1, # of connection points: 2
#     Edge 14, Type (0, 0), BuildingBlock: KIFKEQ_clean_linker_1, # of connection points: 2
#     Edge 15, Type (0, 0), BuildingBlock: KIFKEQ_clean_linker_1, # of connection points: 2
#     Edge 16, Type (0, 0), BuildingBlock: KIFKEQ_clean_linker_1, # of connection points: 2
#     Edge 17, Type (0, 0), BuildingBlock: KIFKEQ_clean_linker_1, # of connection points: 2
#     Edge 18, Type (0, 0), BuildingBlock: KIFKEQ_clean_linker_1, # of connection points: 2
#     Edge 19, Type (0, 0), BuildingBlock: KIFKEQ_clean_linker_1, # of connection points: 2
#     Edge 20, Type (0, 0), BuildingBlock: KIFKEQ_clean_linker_1, # of connection points: 2
#     Edge 21, Type (0, 0), BuildingBlock: KIFKEQ_clean_linker_1, # of connection points: 2
#     Edge 22, Type (0, 0), BuildingBlock: KIFKEQ_clean_linker_1, # of connection points: 2
#     Edge 23, Type (0, 0), BuildingBlock: KIFKEQ_clean_linker_1, # of connection points: 2
#     Edge 24, Type (0, 0), BuildingBlock: KIFKEQ_clean_linker_1, # of connection points: 2
#     Edge 25, Type (0, 0), BuildingBlock: KIFKEQ_clean_linker_1, # of connection points: 2
#     Edge 26, Type (0, 0), BuildingBlock: KIFKEQ_clean_linker_1, # of connection points: 2
#     Edge 27, Type (0, 0), BuildingBlock: KIFKEQ_clean_linker_1, # of connection points: 2
#     Edge 28, Type (0, 0), BuildingBlock: KIFKEQ_clean_linker_1, # of connection points: 2
#     Edge 29, Type (0, 0), BuildingBlock: KIFKEQ_clean_linker_1, # of connection points: 2
#     Edge 30, Type (0, 0), BuildingBlock: KIFKEQ_clean_linker_1, # of connection points: 2
#     Edge 31, Type (0, 0), BuildingBlock: KIFKEQ_clean_linker_1, # of connection points: 2
#     Edge 32, Type (0, 0), BuildingBlock: KIFKEQ_clean_linker_1, # of connection points: 2
#     Edge 33, Type (0, 0), BuildingBlock: KIFKEQ_clean_linker_1, # of connection points: 2
#     Edge 34, Type (0, 0), BuildingBlock: KIFKEQ_clean_linker_1, # of connection points: 2
#     Edge 35, Type (0, 0), BuildingBlock: KIFKEQ_clean_linker_1, # of connection points: 2
# Relax obj value: 0.146
# Max RMSD: 0.092
# Mean RMSD: 0.092
data_MOF--net-wje--node1-QUQFOY_clean_sbu_3--edge1-KIFKEQ_clean_linker_1
_symmetry_space_group_name_H-M    P1
_symmetry_Int_Tables_number       1
_symmetry_cell_setting            triclinic
loop_
_symmetry_equiv_pos_as_xyz
'x, y, z'
_cell_length_a     42.709819
_cell_length_b     42.866301
_cell_length_c     39.921363
_cell_angle_alpha  90.199407
_cell_angle_beta   89.815704
_cell_angle_gamma 119.82488
loop_
_atom_site_label
_atom_site_type_symbol
_atom_site_fract_x
_atom_site_fract_y
_atom_site_fract_z
_atom_type_partial_charge
C0 C 0.23722 0.93308 0.29619 0.0
O1 O 0.25377 0.91616 0.2892 0.0
Cd2 Cd 0.31693 0.94344 0.2985 0.0
O3 O 0.25435 0.96686 0.30146 0.0
Cd4 Cd 0.31641 0.01841 0.29458 0.0
C5 C 0.32147 -0.00917 0.37197 0.0
O6 O 0.34309 -0.00859 0.26021 0.0
O7 O 0.38089 0.03954 0.28638 0.0
O8 O 0.28804 0.03327 0.25041 0.0
C9 C 0.37565 0.01467 0.26595 0.0
O10 O 0.32193 0.96508 0.35629 0.0
C11 C 0.30421 0.06686 0.25591 0.0
O12 O 0.31944 0.01558 0.35605 0.0
O13 O 0.32532 0.07841 0.28105 0.0
C14 C 0.28477 0.23855 0.62102 0.0
O15 O 0.31844 0.25441 0.61515 0.0
Cd16 Cd 0.35501 0.31673 0.62795 0.0
O17 O 0.26873 0.25637 0.62647 0.0
Cd18 Cd 0.28094 0.31895 0.62194 0.0
C19 C 0.3095 0.31884 0.70037 0.0
O20 O 0.33704 0.34787 0.59133 0.0
O21 O 0.32459 0.38339 0.6195 0.0
O22 O 0.2446 0.29923 0.57238 0.0
C23 C 0.34584 0.37974 0.59964 0.0
O24 O 0.33622 0.31935 0.68548 0.0
C25 C 0.22341 0.31077 0.5804 0.0
O26 O 0.28378 0.31834 0.68364 0.0
O27 O 0.22787 0.32539 0.60919 0.0
C28 C 0.01994 0.28142 0.95453 0.0
O29 O 0.03939 0.31457 0.94771 0.0
Cd30 Cd 0.01769 0.35424 0.96237 0.0
O31 O -0.01357 0.26789 0.96078 0.0
Cd32 Cd 0.93904 0.28479 0.95444 0.0
C33 C 0.96664 0.30902 0.03335 0.0
O34 O 0.97041 0.3413 0.92462 0.0
O35 O 0.92216 0.33126 0.95121 0.0
O36 O 0.92377 0.24624 0.90635 0.0
C37 C 0.94833 0.3518 0.93238 0.0
O38 O -0.00517 0.33386 0.01922 0.0
C39 C 0.88992 0.22937 0.91111 0.0
O40 O 0.93982 0.28608 0.01612 0.0
O41 O 0.87821 0.23724 0.93738 0.0
C42 C 0.71611 0.03365 0.27956 0.0
O43 O 0.70163 0.05256 0.27289 0.0
Cd44 Cd 0.63902 0.02983 0.28409 0.0
O45 O 0.69685 0.0001 0.28513 0.0
Cd46 Cd 0.63334 0.95195 0.2799 0.0
C47 C 0.63272 -0.0174 0.35756 0.0
O48 O 0.60637 -0.01965 0.24818 0.0
O49 O 0.56935 0.93327 0.27628 0.0
O50 O 0.65248 0.93336 0.23108 0.0
C51 C 0.57405 0.95827 0.25636 0.0
O52 O 0.63382 0.00905 0.34197 0.0
C53 C 0.63998 0.90081 0.23963 0.0
O54 O 0.63259 0.95665 0.34155 0.0
O55 O 0.62504 0.89166 0.26837 0.0
C56 C 0.65867 0.72422 0.61789 0.0
O57 O 0.62477 0.70796 0.6134 0.0
Cd58 Cd 0.58823 0.64556 0.62587 0.0
O59 O 0.67524 0.70685 0.62281 0.0
Cd60 Cd 0.66347 0.64433 0.61932 0.0
C61 C 0.63358 0.64293 0.6979 0.0
O62 O 0.60731 0.61523 0.58911 0.0
O63 O 0.62051 0.57971 0.61594 0.0
O64 O 0.69977 0.66397 0.56965 0.0
C65 C 0.59881 0.58335 0.59687 0.0
O66 O 0.60685 0.64232 0.68312 0.0
C67 C 0.72141 0.65308 0.57772 0.0
O68 O 0.65971 0.64414 0.6811 0.0
O69 O 0.71714 0.63876 0.60655 0.0
C70 C 0.9185 0.66335 0.95447 0.0
O71 O 0.90171 0.62973 0.94888 0.0
Cd72 Cd 0.92947 0.59477 0.96122 0.0
O73 O 0.9524 0.68025 0.95955 0.0
Cd74 Cd 0.00425 0.66976 0.95453 0.0
C75 C -0.02323 0.64119 0.03318 0.0
O76 O -0.02161 0.61405 0.92384 0.0
O77 O 0.02672 0.62708 0.95143 0.0
O78 O 0.02007 0.70601 0.905 0.0
C79 C 0.00203 0.60574 0.93166 0.0
O80 O 0.95095 0.61417 0.01856 0.0
C81 C 0.05255 0.72766 0.91303 0.0
O82 O 0.00138 0.66704 0.01621 0.0
O83 O 0.06286 0.72347 0.94178 0.0
C84 C 0.02939 0.72115 0.3672 0.0
O85 O 0.04632 0.70419 0.37192 0.0
Cd86 Cd 0.01901 0.6418 0.35869 0.0
O87 O -0.00448 0.70446 0.36198 0.0
Cd88 Cd 0.94375 0.64249 0.36508 0.0
C89 C 0.97233 0.64155 0.28654 0.0
O90 O 0.96939 0.61204 0.39521 0.0
O91 O 0.92093 0.57755 0.3675 0.0
O92 O 0.92754 0.66258 0.41484 0.0
C93 C 0.94566 0.58041 0.38699 0.0
O94 O -0.00202 0.64004 0.30132 0.0
C95 C 0.89515 0.65225 0.40666 0.0
O96 O 0.94758 0.64305 0.30334 0.0
O97 O 0.88502 0.6381 0.37773 0.0
C98 C 0.28694 0.03484 0.70279 0.0
O99 O 0.32037 0.05295 0.7095 0.0
Cd100 Cd 0.35887 0.02853 0.69866 0.0
O101 O 0.27168 0.00115 0.69737 0.0
Cd102 Cd 0.28469 0.95133 0.70296 0.0
C103 C 0.3164 -0.01887 0.62532 0.0
O104 O 0.33978 0.97899 0.73466 0.0
O105 O 0.32897 0.93109 0.70748 0.0
O106 O 0.24687 0.9346 0.75159 0.0
C107 C 0.34958 0.9564 0.72708 0.0
O108 O 0.34221 0.00727 0.64089 0.0
C109 C 0.2262 0.90201 0.74343 0.0
O110 O 0.29026 0.95565 0.64133 0.0
O111 O 0.23168 0.89197 0.71495 0.0
C112 C 0.2244 0.28192 0.0321 0.0
O113 O 0.2392 0.31536 0.03822 0.0
Cd114 Cd 0.30168 0.35397 0.02657 0.0
O115 O 0.24333 0.26705 0.02656 0.0
Cd116 Cd 0.30688 0.28158 0.03179 0.0
C117 C 0.30774 0.31115 0.95376 0.0
O118 O 0.33318 0.33695 0.06373 0.0
O119 O 0.37076 0.32643 0.03667 0.0
O120 O 0.28237 0.24103 0.07826 0.0
C121 C 0.36566 0.34685 0.05628 0.0
O122 O 0.30676 0.33682 0.96906 0.0
C123 C 0.29896 0.22391 0.07256 0.0
O124 O 0.30773 0.28553 0.97007 0.0
O125 O 0.31871 0.23248 0.04641 0.0
C126 C 0.91931 0.23303 0.36596 0.0
O127 O 0.90023 0.24733 0.37294 0.0
Cd128 Cd 0.92257 0.30862 0.35808 0.0
O129 O 0.95285 0.25239 0.35972 0.0
Cd130 Cd 0.00089 0.316 0.36539 0.0
C131 C 0.97221 0.31219 0.28662 0.0
O132 O 0.97109 0.3436 0.3944 0.0
O133 O 0.01922 0.37953 0.36655 0.0
O134 O 0.01775 0.29851 0.41615 0.0
C135 C -0.00641 0.37548 0.38559 0.0
O136 O 0.94435 0.30978 0.3009 0.0
C137 C 0.05062 0.31036 0.40854 0.0
O138 O -0.00103 0.31553 0.30369 0.0
O139 O 0.0608 0.3243 0.37956 0.0
C140 C 0.66504 0.93671 0.68742 0.0
O141 O 0.63151 0.91927 0.69395 0.0
Cd142 Cd 0.5944 0.94513 0.68432 0.0
O143 O 0.68114 0.97045 0.68214 0.0
Cd144 Cd 0.66907 0.02115 0.68842 0.0
C145 C 0.63664 -0.00731 0.61096 0.0
O146 O 0.61541 -0.00681 0.72258 0.0
O147 O 0.62465 0.04099 0.69663 0.0
O148 O 0.7126 0.03745 0.73256 0.0
C149 C 0.60536 0.0159 0.71688 0.0
O150 O 0.61072 0.96671 0.62656 0.0
C151 C 0.72925 0.07099 0.72692 0.0
O152 O 0.66314 0.01776 0.62695 0.0
O153 O 0.71911 0.08188 0.70173 0.0
C154 C 0.70732 0.65986 0.02993 0.0
O155 O 0.69103 0.62616 0.03486 0.0
Cd156 Cd 0.62837 0.59069 0.02252 0.0
O157 O 0.68983 0.67636 0.02535 0.0
Cd158 Cd 0.62708 0.66461 0.03035 0.0
C159 C 0.62632 0.637 0.95123 0.0
O160 O 0.59827 0.60877 0.06084 0.0
O161 O 0.56226 0.62111 0.0336 0.0
O162 O 0.64691 0.70104 0.07998 0.0
C163 C 0.56616 0.60011 0.05331 0.0
O164 O 0.62561 0.61002 0.96538 0.0
C165 C 0.6356 0.7223 0.07189 0.0
O166 O 0.62715 0.66245 0.96866 0.0
O167 O 0.62102 0.71774 0.04314 0.0
H168 H 0.35317 0.13721 0.2429 0.0
H169 H 0.24834 0.05058 0.21374 0.0
H170 H 0.35115 0.17399 0.19693 0.0
H171 H 0.24611 0.08752 0.16836 0.0
H172 H 0.24536 0.18582 0.11727 0.0
H173 H 0.24563 0.14819 0.16296 0.0
H174 H 0.34987 0.1664 0.1305 0.0
H175 H 0.34939 0.20367 0.08421 0.0
C176 C 0.32944 0.12634 0.22712 0.0
C177 C 0.30088 0.09112 0.23188 0.0
C178 C 0.32848 0.14717 0.20065 0.0
C179 C 0.29863 0.13335 0.17901 0.0
C180 C 0.26943 0.09874 0.1847 0.0
C181 C 0.2707 0.07769 0.21068 0.0
C182 C 0.2681 0.18136 0.11958 0.0
C183 C 0.29732 0.19753 0.09716 0.0
C184 C 0.26824 0.15991 0.14573 0.0
C185 C 0.29793 0.1548 0.15037 0.0
C186 C 0.32686 0.17033 0.12759 0.0
C187 C 0.3264 0.19125 0.10096 0.0
H188 H 0.21323 0.28558 0.51644 0.0
H189 H 0.17297 0.33205 0.58915 0.0
H190 H 0.17155 0.28523 0.47487 0.0
H191 H 0.13114 0.33178 0.5472 0.0
H192 H 0.03591 0.28784 0.47323 0.0
H193 H 0.077 0.28746 0.51508 0.0
H194 H 0.1633 0.33013 0.44223 0.0
H195 H 0.12199 0.33041 0.40002 0.0
C196 C 0.19535 0.2956 0.52363 0.0
C197 C 0.19638 0.30884 0.55615 0.0
C198 C 0.17168 0.29564 0.49967 0.0
C199 C 0.14827 0.30868 0.50769 0.0
C200 C 0.14877 0.32136 0.54037 0.0
C201 C 0.17271 0.32156 0.56437 0.0
C202 C 0.06362 0.29705 0.46601 0.0
C203 C 0.07571 0.30911 0.43324 0.0
C204 C 0.0872 0.29706 0.49012 0.0
C205 C 0.12336 0.30889 0.482 0.0
C206 C 0.13545 0.32061 0.44914 0.0
C207 C 0.11187 0.32085 0.425 0.0
H208 H 0.74888 0.14103 0.73983 0.0
H209 H 0.77021 0.0564 0.76885 0.0
H210 H 0.78754 0.17875 0.7856 0.0
H211 H 0.80919 0.09424 0.814 0.0
H212 H 0.90662 0.19297 0.86533 0.0
H213 H 0.86931 0.15551 0.81919 0.0
H214 H 0.78204 0.1717 0.85205 0.0
H215 H 0.81926 0.20886 0.89878 0.0
C216 C 0.7624 0.13082 0.75553 0.0
C217 C 0.75667 0.09588 0.7508 0.0
C218 C 0.78411 0.15218 0.78188 0.0
C219 C 0.80098 0.13917 0.80341 0.0
C220 C 0.79647 0.10485 0.79774 0.0
C221 C 0.77425 0.08328 0.77189 0.0
C222 C 0.87932 0.18819 0.86295 0.0
C223 C 0.86575 0.20369 0.88568 0.0
C224 C 0.85805 0.16683 0.83655 0.0
C225 C 0.82302 0.16109 0.83197 0.0
C226 C 0.80917 0.17612 0.85491 0.0
C227 C 0.83026 0.19698 0.88179 0.0
H228 H 0.61698 0.77431 0.06206 0.0
H229 H 0.65907 0.73182 0.13638 0.0
H230 H 0.61856 0.81746 0.10329 0.0
H231 H 0.66069 0.77482 0.17729 0.0
H232 H 0.61725 0.82932 0.24978 0.0
H233 H 0.61665 0.78638 0.2088 0.0
H234 H 0.66471 0.87093 0.13506 0.0
H235 H 0.66527 0.91363 0.17566 0.0
C236 C 0.62674 0.77432 0.08707 0.0
C237 C 0.63794 0.74972 0.09591 0.0
C238 C 0.62771 0.79902 0.11064 0.0
C239 C 0.63962 0.79936 0.14355 0.0
C240 C 0.65097 0.77488 0.15228 0.0
C241 C 0.65028 0.75045 0.12871 0.0
C242 C 0.62788 0.83872 0.22489 0.0
C243 C 0.6413 0.87484 0.21599 0.0
C244 C 0.62759 0.8142 0.20147 0.0
C245 C 0.64043 0.82531 0.16867 0.0
C246 C 0.65417 0.86148 0.15997 0.0
C247 C 0.65472 0.88598 0.18337 0.0
H248 H 0.82413 0.63324 0.39771 0.0
H249 H 0.91008 0.67695 0.47078 0.0
H250 H 0.78283 0.63449 0.43965 0.0
H251 H 0.869 0.6783 0.51235 0.0
H252 H 0.77269 0.63301 0.58648 0.0
H253 H 0.81508 0.6339 0.54455 0.0
H254 H 0.77385 0.67912 0.47227 0.0
H255 H 0.73159 0.67812 0.51382 0.0
C256 C 0.83426 0.64336 0.42257 0.0
C257 C 0.87033 0.65497 0.43089 0.0
C258 C 0.81067 0.64414 0.44655 0.0
C259 C 0.82269 0.65631 0.47934 0.0
C260 C 0.85885 0.66832 0.48746 0.0
C261 C 0.88242 0.66777 0.46351 0.0
C262 C 0.77289 0.64335 0.56172 0.0
C263 C 0.74879 0.65546 0.5535 0.0
C264 C 0.79716 0.64393 0.53774 0.0
C265 C 0.79759 0.6564 0.50507 0.0
C266 C 0.7738 0.66889 0.49706 0.0
C267 C 0.74977 0.66855 0.52101 0.0
H268 H 0.17642 0.83063 0.73423 0.0
H269 H 0.21417 0.91674 0.80693 0.0
H270 H 0.13395 0.78904 0.77572 0.0
H271 H 0.17189 0.87536 0.84804 0.0
H272 H 0.12316 0.77991 0.92238 0.0
H273 H 0.16433 0.82232 0.88069 0.0
H274 H 0.07886 0.77889 0.80729 0.0
H275 H 0.03785 0.73663 0.84867 0.0
C276 C 0.17546 0.84072 0.7589 0.0
C277 C 0.19865 0.87693 0.76727 0.0
C278 C 0.15114 0.81697 0.78262 0.0
C279 C 0.14981 0.82897 0.81518 0.0
C280 C 0.17267 0.86525 0.82333 0.0
C281 C 0.1967 0.88898 0.79963 0.0
C282 C 0.11315 0.77962 0.89742 0.0
C283 C 0.07728 0.75495 0.88886 0.0
C284 C 0.13666 0.8039 0.87358 0.0
C285 C 0.1248 0.80375 0.84069 0.0
C286 C 0.08886 0.77931 0.83229 0.0
C287 C 0.06534 0.7553 0.85612 0.0
H288 H 0.44785 0.05893 0.27582 0.0
H289 H 0.37053 0.95687 0.23222 0.0
H290 H 0.49592 0.04506 0.26549 0.0
H291 H 0.41873 0.94318 0.22172 0.0
H292 H 0.50226 0.9143 0.26789 0.0
H293 H 0.45438 0.92913 0.26226 0.0
H294 H 0.53091 0.03303 0.22184 0.0
H295 H 0.57902 0.01829 0.22762 0.0
C296 C 0.44125 0.03385 0.26349 0.0
C297 C 0.40539 0.00878 0.25526 0.0
C298 C 0.4688 0.02602 0.25736 0.0
C299 C 0.46095 -0.00708 0.24304 0.0
C300 C 0.42541 0.96871 0.23315 0.0
C301 C 0.39789 0.97663 0.23907 0.0
C302 C 0.50876 0.94007 0.2573 0.0
C303 C 0.5444 0.96528 0.24854 0.0
C304 C 0.48131 0.94847 0.25386 0.0
C305 C 0.48902 -0.01769 0.24177 0.0
C306 C 0.52435 0.00689 0.23152 0.0
C307 C 0.55179 -0.00163 0.23471 0.0
H308 H 0.54213 0.58586 0.56841 0.0
H309 H 0.57362 0.51222 0.60908 0.0
H310 H 0.48023 0.53648 0.5625 0.0
H311 H 0.51173 0.46297 0.60329 0.0
H312 H 0.37154 0.45086 0.61277 0.0
H313 H 0.43324 0.50008 0.60555 0.0
H314 H 0.4633 0.42654 0.56147 0.0
H315 H 0.40161 0.37719 0.5688 0.0
C316 C 0.53595 0.55906 0.57564 0.0
C317 C 0.5626 0.55291 0.58951 0.0
C318 C 0.50052 0.53088 0.57238 0.0
C319 C 0.4912 0.49601 0.58261 0.0
C320 C 0.51823 0.48955 0.59493 0.0
C321 C 0.5536 0.51776 0.59844 0.0
C322 C 0.39119 0.4453 0.60112 0.0
C323 C 0.38186 0.41016 0.59165 0.0
C324 C 0.42644 0.4735 0.5968 0.0
C325 C 0.45303 0.46703 0.5831 0.0
C326 C 0.44336 0.43215 0.57239 0.0
C327 C 0.40804 0.40399 0.57648 0.0
H328 H 0.04667 0.57928 0.94698 0.0
H329 H 0.94559 0.55109 0.89854 0.0
H330 H 0.03403 0.51747 0.94039 0.0
H331 H 0.93315 0.4894 0.8918 0.0
H332 H 0.90365 0.37935 0.94151 0.0
H333 H 0.91823 0.44158 0.93454 0.0
H334 H 0.02455 0.46943 0.89879 0.0
H335 H 0.01003 0.40702 0.90589 0.0
C336 C 0.02207 0.56005 0.93443 0.0
C337 C -0.00308 0.56989 0.92366 0.0
C338 C 0.01494 0.52473 0.93048 0.0
C339 C -0.01753 0.49863 0.91582 0.0
C340 C 0.95817 0.50892 0.90355 0.0
C341 C 0.96539 0.54425 0.90732 0.0
C342 C 0.92996 0.39864 0.93174 0.0
C343 C 0.9558 0.38844 0.9245 0.0
C344 C 0.93823 0.43421 0.92754 0.0
C345 C -0.02743 0.46031 0.91622 0.0
C346 C -0.00201 0.44986 0.90781 0.0
C347 C -0.0104 0.41416 0.91174 0.0
H348 H 0.00288 0.58117 0.41787 0.0
H349 H 0.8996 0.50973 0.37253 0.0
H350 H 0.01431 0.53108 0.4239 0.0
H351 H 0.9112 0.45974 0.37845 0.0
H352 H 0.03924 0.44671 0.37406 0.0
H353 H 0.02648 0.49584 0.38076 0.0
H354 H 0.92091 0.42158 0.42023 0.0
H355 H 0.93358 0.37226 0.41343 0.0
C356 C -0.01759 0.55469 0.40962 0.0
C357 C 0.9505 0.5494 0.3944 0.0
C358 C -0.01096 0.5261 0.41297 0.0
C359 C 0.96376 0.49166 0.40143 0.0
C360 C 0.93104 0.48598 0.38779 0.0
C361 C 0.9245 0.51462 0.38422 0.0
C362 C 0.01349 0.44094 0.38455 0.0
C363 C -0.01269 0.40565 0.39297 0.0
C364 C 0.00628 0.46909 0.3886 0.0
C365 C -0.02734 0.46244 0.40093 0.0
C366 C 0.94692 0.42734 0.41042 0.0
C367 C 0.95426 0.3992 0.40664 0.0
H368 H 0.55308 0.95698 0.74937 0.0
H369 H 0.57628 0.0593 0.70781 0.0
H370 H 0.49084 0.94214 0.7598 0.0
H371 H 0.51404 0.04431 0.71808 0.0
H372 H 0.37785 0.91285 0.7144 0.0
H373 H 0.44073 0.9281 0.71964 0.0
H374 H 0.46722 0.03119 0.76203 0.0
H375 H 0.40429 0.01607 0.75663 0.0
C376 C 0.54505 0.97653 0.74294 0.0
C377 C 0.56939 0.00914 0.7274 0.0
C378 C 0.50942 0.96795 0.74882 0.0
C379 C 0.4976 -0.00805 0.73954 0.0
C380 C 0.52249 0.02541 0.72575 0.0
C381 C 0.55805 0.0339 0.71967 0.0
C382 C 0.39697 0.93851 0.72534 0.0
C383 C 0.38627 0.96342 0.73473 0.0
C384 C 0.43292 0.94716 0.72855 0.0
C385 C 0.45885 -0.01907 0.74105 0.0
C386 C 0.44781 0.00512 0.752 0.0
C387 C 0.41179 -0.00362 0.74901 0.0
H388 H 0.36018 0.4025 0.08347 0.0
H389 H 0.4377 0.37353 0.04691 0.0
H390 H 0.40841 0.46483 0.08992 0.0
H391 H 0.48572 0.43571 0.05321 0.0
H392 H 0.56892 0.54612 0.08662 0.0
H393 H 0.51989 0.48464 0.09477 0.0
H394 H 0.44581 0.51171 0.0473 0.0
H395 H 0.49474 0.5733 0.03931 0.0
C396 C 0.38758 0.40932 0.07733 0.0
C397 C 0.39519 0.38327 0.0644 0.0
C398 C 0.4151 0.44499 0.08088 0.0
C399 C 0.45071 0.45509 0.07191 0.0
C400 C 0.45855 0.42863 0.06062 0.0
C401 C 0.43103 0.39308 0.0568 0.0
C402 C 0.54206 0.53911 0.07837 0.0
C403 C 0.53571 0.56439 0.06196 0.0
C404 C 0.51407 0.5039 0.08297 0.0
C405 C 0.47917 0.49339 0.07146 0.0
C406 C 0.47241 0.51916 0.05667 0.0
C407 C 0.50046 0.55434 0.05189 0.0
H408 H 0.0899 0.76875 0.40058 0.0
H409 H 0.01653 0.76112 0.32262 0.0
H410 H 0.13253 0.83019 0.3832 0.0
H411 H 0.05995 0.82223 0.30444 0.0
H412 H 0.2011 0.94277 0.34746 0.0
H413 H 0.1412 0.89816 0.36811 0.0
H414 H 0.12648 0.83191 0.28137 0.0
H415 H 0.18675 0.87562 0.26146 0.0
C416 C 0.08246 0.7807 0.38047 0.0
C417 C 0.05024 0.76031 0.36273 0.0
C418 C 0.10666 0.81584 0.37069 0.0
C419 C 0.09931 0.83066 0.34253 0.0
C420 C 0.06588 0.81132 0.3264 0.0
C421 C 0.04118 0.77647 0.3368 0.0
C422 C 0.18442 0.91931 0.33223 0.0
C423 C 0.19838 0.91225 0.30308 0.0
C424 C 0.1503 0.89393 0.34404 0.0
C425 C 0.12948 0.86189 0.3262 0.0
C426 C 0.14197 0.85671 0.29527 0.0
C427 C 0.17643 0.88151 0.284 0.0
H428 H 0.23388 0.20237 0.66847 0.0
H429 H 0.29458 0.18791 0.58921 0.0
H430 H 0.217 0.14277 0.6904 0.0
H431 H 0.27654 0.12791 0.61039 0.0
H432 H 0.29408 0.09427 0.73435 0.0
H433 H 0.27493 0.13529 0.71255 0.0
H434 H 0.2195 0.06169 0.63132 0.0
H435 H 0.23746 0.01987 0.65387 0.0
C436 C 0.24211 0.18575 0.65481 0.0
C437 C 0.26586 0.19969 0.62742 0.0
C438 C 0.23244 0.15175 0.66737 0.0
C439 C 0.24552 0.13103 0.65201 0.0
C440 C 0.26583 0.14335 0.62239 0.0
C441 C 0.27633 0.17768 0.6104 0.0
C442 C 0.27649 0.08621 0.71271 0.0
C443 C 0.26746 0.05422 0.6956 0.0
C444 C 0.26534 0.10948 0.70037 0.0
C445 C 0.24585 0.10146 0.67029 0.0
C446 C 0.23426 0.06814 0.6547 0.0
C447 C 0.24456 0.04435 0.66761 0.0
H448 H 0.18856 0.2302 0.98521 0.0
H449 H 0.17271 0.28934 0.06489 0.0
H450 H 0.12764 0.21068 0.96454 0.0
H451 H 0.11159 0.26885 0.04498 0.0
H452 H 0.00483 0.23282 0.00414 0.0
H453 H 0.04633 0.21385 0.02575 0.0
H454 H 0.11707 0.26428 0.94139 0.0
H455 H 0.07639 0.28429 0.92048 0.0
C456 C 0.17143 0.23757 -0.00079 0.0
C457 C 0.18529 0.26168 0.02629 0.0
C458 C 0.13666 0.22635 0.98741 0.0
C459 C 0.11515 0.23835 0.00317 0.0
C460 C 0.12756 0.25894 0.03262 0.0
C461 C 0.16258 0.27091 0.04386 0.0
C462 C 0.02848 0.23846 0.98951 0.0
C463 C 0.03788 0.26041 0.96096 0.0
C464 C 0.05211 0.22758 0.00187 0.0
C465 C 0.08478 0.23775 0.98524 0.0
C466 C 0.09183 0.25582 0.95446 0.0
C467 C 0.06875 0.26749 0.94262 0.0
H468 H 0.8606 0.1799 0.39753 0.0
H469 H 0.93551 0.19967 0.3166 0.0
H470 H 0.81981 0.12045 0.3745 0.0
H471 H 0.89396 0.14057 0.29289 0.0
H472 H 0.75001 0.01603 0.32703 0.0
H473 H 0.80993 0.05623 0.35017 0.0
H474 H 0.82942 0.1328 0.27167 0.0
H475 H 0.7692 0.09336 0.24926 0.0
C476 C 0.86891 0.17091 0.37558 0.0
C477 C 0.90085 0.19433 0.35861 0.0
C478 C 0.84573 0.13687 0.3625 0.0
C479 C 0.85383 0.12623 0.33187 0.0
C480 C 0.88738 0.14824 0.31664 0.0
C481 C 0.91105 0.18197 0.33023 0.0
C482 C 0.76769 0.04081 0.31396 0.0
C483 C 0.75499 0.052 0.28667 0.0
C484 C 0.80189 0.06368 0.3272 0.0
C485 C 0.82404 0.09744 0.31267 0.0
C486 C 0.81291 0.10668 0.28308 0.0
C487 C 0.77842 0.0843 0.27039 0.0
H488 H 0.71205 0.76364 0.66231 0.0
H489 H 0.64721 0.77254 0.58423 0.0
H490 H 0.73129 0.82531 0.68017 0.0
H491 H 0.66752 0.83446 0.60127 0.0
H492 H 0.65948 0.88047 0.72304 0.0
H493 H 0.67628 0.83674 0.70352 0.0
H494 H 0.72647 0.90167 0.61603 0.0
H495 H 0.71092 0.94632 0.6363 0.0
C496 C 0.70327 0.77935 0.64804 0.0
C497 C 0.67784 0.76343 0.62219 0.0
C498 C 0.71432 0.81453 0.65824 0.0
C499 C 0.70089 0.83439 0.642 0.0
C500 C 0.67856 0.81973 0.61387 0.0
C501 C 0.66673 0.7843 0.60429 0.0
C502 C 0.67553 0.88613 0.70045 0.0
C503 C 0.68375 0.91642 0.681 0.0
C504 C 0.68533 0.86131 0.68938 0.0
C505 C 0.70257 0.86601 0.6583 0.0
C506 C 0.71346 0.89779 0.64021 0.0
C507 C 0.70456 0.9232 0.6518 0.0
H508 H 0.75726 0.64979 0.06256 0.0
H509 H 0.74469 0.71044 0.98279 0.0
H510 H 0.8183 0.66842 0.04289 0.0
H511 H 0.80534 0.72784 0.9623 0.0
H512 H 0.85865 0.65297 0.92131 0.0
H513 H 0.81495 0.66979 0.94135 0.0
H514 H 0.88542 0.72807 0.02363 0.0
H515 H 0.92996 0.7125 0.0028 0.0
C516 C 0.76809 0.6681 0.04155 0.0
C517 C 0.74642 0.67855 0.02402 0.0
C518 C 0.80298 0.67891 0.03043 0.0
C519 C 0.81623 0.6995 0.00115 0.0
C520 C 0.79565 0.71226 0.98512 0.0
C521 C 0.76108 0.70229 -0.00316 0.0
C522 C 0.86544 0.67068 0.94279 0.0
C523 C 0.89739 0.6813 0.96067 0.0
C524 C 0.84062 0.68047 0.95414 0.0
C525 C 0.84705 0.70016 0.98397 0.0
C526 C 0.88022 0.71317 0.0004 0.0
C527 C 0.90556 0.70425 0.98847 0.0
H528 H 0.31494 0.93683 0.41259 0.0
H529 H 0.32681 0.04301 0.41577 0.0
H530 H 0.31261 0.93426 0.47342 0.0
H531 H 0.32437 0.04023 0.47702 0.0
H532 H 0.36182 0.03647 0.58475 0.0
H533 H 0.36234 0.03907 0.52393 0.0
H534 H 0.27196 0.93082 0.52021 0.0
H535 H 0.27136 0.92802 0.58148 0.0
C536 C 0.31715 0.95973 0.42622 0.0
C537 C 0.32121 -0.00975 0.40918 0.0
C538 C 0.31548 0.95805 0.46116 0.0
C539 C 0.31813 -0.01307 0.48004 0.0
C540 C 0.32247 0.01761 0.46313 0.0
C541 C 0.3238 0.01918 0.42805 0.0
C542 C 0.34202 0.01309 0.5711 0.0
C543 C 0.31659 -0.01808 0.58811 0.0
C544 C 0.34218 0.01477 0.53617 0.0
C545 C 0.31715 -0.01476 0.51725 0.0
C546 C 0.29177 0.95395 0.53413 0.0
C547 C 0.29136 0.95237 0.56921 0.0
H548 H 0.29788 0.35621 0.91263 0.0
H549 H 0.3164 0.26582 0.91043 0.0
H550 H 0.29682 0.35667 0.85181 0.0
H551 H 0.31513 0.26629 0.84911 0.0
H552 H 0.35478 0.30981 0.7422 0.0
H553 H 0.35298 0.30629 0.80299 0.0
H554 H 0.25935 0.31985 0.80409 0.0
H555 H 0.26114 0.32358 0.74289 0.0
C556 C 0.30173 0.33636 0.89921 0.0
C557 C 0.3074 0.31103 0.91654 0.0
C558 C 0.30079 0.33649 0.86426 0.0
C559 C 0.30576 0.31147 0.84562 0.0
C560 C 0.31146 0.2861 0.86282 0.0
C561 C 0.3121 0.28576 0.89792 0.0
C562 C 0.33375 0.31211 0.75528 0.0
C563 C 0.30817 0.31717 0.73755 0.0
C564 C 0.33259 0.30975 0.79018 0.0
C565 C 0.30598 0.31266 0.80837 0.0
C566 C 0.28036 0.31776 0.79076 0.0
C567 C 0.28133 0.31982 0.75571 0.0
H568 H 0.0286 0.34929 0.24341 0.0
H569 H 0.9156 0.26952 0.24678 0.0
H570 H 0.02668 0.34804 0.18237 0.0
H571 H 0.91391 0.26579 0.18605 0.0
H572 H 0.9104 0.29165 0.0765 0.0
H573 H 0.91223 0.29243 0.13756 0.0
H574 H 0.0242 0.31908 0.13392 0.0
H575 H 0.02268 0.32106 0.07322 0.0
C576 C 0.00353 0.33098 0.23097 0.0
C577 C 0.97224 0.30971 0.24971 0.0
C578 C 0.00234 0.32997 0.19589 0.0
C579 C 0.97002 0.30682 0.17874 0.0
C580 C 0.93906 0.28474 0.1979 0.0
C581 C 0.94006 0.28657 0.23285 0.0
C582 C 0.93527 0.2976 0.08896 0.0
C583 C 0.96642 0.30654 0.07025 0.0
C584 C 0.9364 0.29784 0.12405 0.0
C585 C 0.96848 0.30598 0.14121 0.0
C586 C -0.00075 0.31372 0.12207 0.0
C587 C -0.00165 0.31451 0.08713 0.0
H588 H 0.62401 0.92936 0.40137 0.0
H589 H 0.64298 0.03822 0.39818 0.0
H590 H 0.62599 0.93224 0.46264 0.0
H591 H 0.64477 0.04088 0.45901 0.0
H592 H 0.6835 0.04475 0.56735 0.0
H593 H 0.6833 0.04187 0.50611 0.0
H594 H 0.58907 0.93601 0.50929 0.0
H595 H 0.58921 0.93868 0.57012 0.0
C596 C 0.62853 0.95382 0.41365 0.0
C597 C 0.63321 -0.01654 0.39477 0.0
C598 C 0.62956 0.95545 0.44873 0.0
C599 C 0.63565 -0.01314 0.46565 0.0
C600 C 0.64049 0.01648 0.44675 0.0
C601 C 0.63915 0.01477 0.41182 0.0
C602 C 0.6627 0.02093 0.55498 0.0
C603 C 0.63635 -0.00796 0.57375 0.0
C604 C 0.66254 0.01929 0.51991 0.0
C605 C 0.63624 -0.01138 0.50288 0.0
C606 C 0.60996 0.9598 0.52164 0.0
C607 C 0.60992 0.96153 0.55658 0.0
H608 H 0.63553 0.59283 0.90786 0.0
H609 H 0.62132 0.68587 0.91032 0.0
H610 H 0.63918 0.59598 0.84706 0.0
H611 H 0.62514 0.689 0.84913 0.0
H612 H 0.58844 0.65213 0.74006 0.0
H613 H 0.58814 0.65231 0.80093 0.0
H614 H 0.67957 0.63518 0.80148 0.0
H615 H 0.6799 0.63483 0.74014 0.0
C616 C 0.63314 0.61399 0.89547 0.0
C617 C 0.62794 0.63903 0.91408 0.0
C618 C 0.63558 0.61594 0.86057 0.0
C619 C 0.63259 0.64279 0.84328 0.0
C620 C 0.62731 0.66783 0.86177 0.0
C621 C 0.62519 0.66609 0.89681 0.0
C622 C 0.60857 0.6484 0.75303 0.0
C623 C 0.63413 0.64328 0.7351 0.0
C624 C 0.60853 0.64881 0.788 0.0
C625 C 0.63384 0.64384 0.80604 0.0
C626 C 0.65953 0.63882 0.78824 0.0
C627 C 0.6598 0.63874 0.75312 0.0
H628 H 0.02689 0.65099 0.24461 0.0
H629 H 0.91876 0.63526 0.24413 0.0
H630 H 0.02815 0.65277 0.18375 0.0
H631 H 0.92021 0.63718 0.18281 0.0
H632 H 0.92271 0.59668 0.07552 0.0
H633 H 0.92151 0.59862 0.13635 0.0
H634 H 0.02881 0.69104 0.13644 0.0
H635 H 0.03021 0.68916 0.07517 0.0
C636 C 0.00333 0.64792 0.23156 0.0
C637 C -0.02741 0.64277 0.24935 0.0
C638 C 0.00425 0.64927 0.19661 0.0
C639 C -0.02565 0.6452 0.17846 0.0
C640 C 0.9436 0.64016 0.19614 0.0
C641 C 0.94279 0.63916 0.23124 0.0
C642 C 0.94616 0.61747 0.08838 0.0
C643 C -0.02331 0.64269 0.07036 0.0
C644 C 0.94527 0.61873 0.12331 0.0
C645 C -0.02503 0.64502 0.14121 0.0
C646 C 0.00556 0.67029 0.12331 0.0
C647 C 0.00634 0.66927 0.08823 0.0
loop_
_geom_bond_atom_site_label_1
_geom_bond_atom_site_label_2
_geom_bond_distance
_geom_bond_site_symmetry_2
_ccdc_geom_bond_type
C0 O1 1.306 . S
C0 O3 1.160 . S
O1 C0 1.306 . S
O1 Cd2 2.228 . S
Cd2 O1 2.228 . S
Cd2 O6 2.273 . S
Cd2 O10 2.277 . S
O3 C0 1.160 . S
O3 Cd4 2.203 1_565 S
Cd4 O3 2.203 1_545 S
Cd4 O6 2.411 1_545 S
Cd4 O7 2.333 . S
Cd4 O8 2.352 . S
Cd4 O12 2.277 . S
Cd4 O13 2.356 . S
C5 O10 1.209 1_545 S
C5 O12 1.226 . S
O6 Cd2 2.273 . S
O6 Cd4 2.411 1_565 S
O6 C9 1.320 1_565 S
O7 Cd4 2.333 . S
O7 C9 1.214 . S
O8 Cd4 2.352 . S
O8 C11 1.258 . S
C9 O6 1.320 1_545 S
C9 O7 1.214 . S
O10 Cd2 2.277 . S
O10 C5 1.209 1_565 S
C11 O8 1.258 . S
C11 O13 1.282 . S
O12 Cd4 2.277 . S
O12 C5 1.226 . S
O13 Cd4 2.356 . S
O13 C11 1.282 . S
C14 O15 1.306 . S
C14 O17 1.160 . S
O15 C14 1.306 . S
O15 Cd16 2.228 . S
Cd16 O15 2.228 . S
Cd16 O20 2.273 . S
Cd16 O24 2.277 . S
O17 C14 1.160 . S
O17 Cd18 2.203 . S
Cd18 O17 2.203 . S
Cd18 O20 2.411 . S
Cd18 O21 2.333 . S
Cd18 O22 2.352 . S
Cd18 O26 2.277 . S
Cd18 O27 2.356 . S
C19 O24 1.209 . S
C19 O26 1.226 . S
O20 Cd16 2.273 . S
O20 Cd18 2.411 . S
O20 C23 1.320 . S
O21 Cd18 2.333 . S
O21 C23 1.214 . S
O22 Cd18 2.352 . S
O22 C25 1.258 . S
C23 O20 1.320 . S
C23 O21 1.214 . S
O24 Cd16 2.277 . S
O24 C19 1.209 . S
C25 O22 1.258 . S
C25 O27 1.282 . S
O26 Cd18 2.277 . S
O26 C19 1.226 . S
O27 Cd18 2.356 . S
O27 C25 1.282 . S
C28 O29 1.306 . S
C28 O31 1.160 . S
O29 C28 1.306 . S
O29 Cd30 2.228 1_556 S
Cd30 O29 2.228 1_554 S
Cd30 O34 2.273 1_554 S
Cd30 O38 2.277 . S
O31 C28 1.160 . S
O31 Cd32 2.203 1_455 S
Cd32 O31 2.203 1_655 S
Cd32 O34 2.411 1_655 S
Cd32 O35 2.333 . S
Cd32 O36 2.352 . S
Cd32 O40 2.277 1_556 S
Cd32 O41 2.356 . S
C33 O38 1.209 1_655 S
C33 O40 1.226 . S
O34 Cd30 2.273 1_556 S
O34 Cd32 2.411 1_455 S
O34 C37 1.320 1_455 S
O35 Cd32 2.333 . S
O35 C37 1.214 . S
O36 Cd32 2.352 . S
O36 C39 1.258 . S
C37 O34 1.320 1_655 S
C37 O35 1.214 . S
O38 Cd30 2.277 . S
O38 C33 1.209 1_455 S
C39 O36 1.258 . S
C39 O41 1.282 . S
O40 Cd32 2.277 1_554 S
O40 C33 1.226 . S
O41 Cd32 2.356 . S
O41 C39 1.282 . S
C42 O43 1.306 . S
C42 O45 1.160 . S
O43 C42 1.306 . S
O43 Cd44 2.228 . S
Cd44 O43 2.228 . S
Cd44 O48 2.273 . S
Cd44 O52 2.277 . S
O45 C42 1.160 . S
O45 Cd46 2.203 1_545 S
Cd46 O45 2.203 1_565 S
Cd46 O48 2.411 1_565 S
Cd46 O49 2.333 . S
Cd46 O50 2.352 . S
Cd46 O54 2.277 . S
Cd46 O55 2.356 . S
C47 O52 1.209 1_565 S
C47 O54 1.226 . S
O48 Cd44 2.273 . S
O48 Cd46 2.411 1_545 S
O48 C51 1.320 1_545 S
O49 Cd46 2.333 . S
O49 C51 1.214 . S
O50 Cd46 2.352 . S
O50 C53 1.258 . S
C51 O48 1.320 1_565 S
C51 O49 1.214 . S
O52 Cd44 2.277 . S
O52 C47 1.209 1_545 S
C53 O50 1.258 . S
C53 O55 1.282 . S
O54 Cd46 2.277 . S
O54 C47 1.226 . S
O55 Cd46 2.356 . S
O55 C53 1.282 . S
C56 O57 1.306 . S
C56 O59 1.160 . S
O57 C56 1.306 . S
O57 Cd58 2.228 . S
Cd58 O57 2.228 . S
Cd58 O62 2.273 . S
Cd58 O66 2.277 . S
O59 C56 1.160 . S
O59 Cd60 2.203 . S
Cd60 O59 2.203 . S
Cd60 O62 2.411 . S
Cd60 O63 2.333 . S
Cd60 O64 2.352 . S
Cd60 O68 2.277 . S
Cd60 O69 2.356 . S
C61 O66 1.209 . S
C61 O68 1.226 . S
O62 Cd58 2.273 . S
O62 Cd60 2.411 . S
O62 C65 1.320 . S
O63 Cd60 2.333 . S
O63 C65 1.214 . S
O64 Cd60 2.352 . S
O64 C67 1.258 . S
C65 O62 1.320 . S
C65 O63 1.214 . S
O66 Cd58 2.277 . S
O66 C61 1.209 . S
C67 O64 1.258 . S
C67 O69 1.282 . S
O68 Cd60 2.277 . S
O68 C61 1.226 . S
O69 Cd60 2.356 . S
O69 C67 1.282 . S
C70 O71 1.306 . S
C70 O73 1.160 . S
O71 C70 1.306 . S
O71 Cd72 2.228 1_556 S
Cd72 O71 2.228 1_554 S
Cd72 O76 2.273 1_554 S
Cd72 O80 2.277 . S
O73 C70 1.160 . S
O73 Cd74 2.203 1_655 S
Cd74 O73 2.203 1_455 S
Cd74 O76 2.411 1_455 S
Cd74 O77 2.333 . S
Cd74 O78 2.352 . S
Cd74 O82 2.277 1_556 S
Cd74 O83 2.356 . S
C75 O80 1.209 1_455 S
C75 O82 1.226 . S
O76 Cd72 2.273 1_556 S
O76 Cd74 2.411 1_655 S
O76 C79 1.320 1_655 S
O77 Cd74 2.333 . S
O77 C79 1.214 . S
O78 Cd74 2.352 . S
O78 C81 1.258 . S
C79 O76 1.320 1_455 S
C79 O77 1.214 . S
O80 Cd72 2.277 . S
O80 C75 1.209 1_655 S
C81 O78 1.258 . S
C81 O83 1.282 . S
O82 Cd74 2.277 1_554 S
O82 C75 1.226 . S
O83 Cd74 2.356 . S
O83 C81 1.282 . S
C84 O85 1.306 . S
C84 O87 1.160 . S
O85 C84 1.306 . S
O85 Cd86 2.228 . S
Cd86 O85 2.228 . S
Cd86 O90 2.273 . S
Cd86 O94 2.277 . S
O87 C84 1.160 . S
O87 Cd88 2.203 1_455 S
Cd88 O87 2.203 1_655 S
Cd88 O90 2.411 1_655 S
Cd88 O91 2.333 . S
Cd88 O92 2.352 . S
Cd88 O96 2.277 . S
Cd88 O97 2.356 . S
C89 O94 1.209 1_655 S
C89 O96 1.226 . S
O90 Cd86 2.273 . S
O90 Cd88 2.411 1_455 S
O90 C93 1.320 1_455 S
O91 Cd88 2.333 . S
O91 C93 1.214 . S
O92 Cd88 2.352 . S
O92 C95 1.258 . S
C93 O90 1.320 1_655 S
C93 O91 1.214 . S
O94 Cd86 2.277 . S
O94 C89 1.209 1_455 S
C95 O92 1.258 . S
C95 O97 1.282 . S
O96 Cd88 2.277 . S
O96 C89 1.226 . S
O97 Cd88 2.356 . S
O97 C95 1.282 . S
C98 O99 1.306 . S
C98 O101 1.160 . S
O99 C98 1.306 . S
O99 Cd100 2.228 . S
Cd100 O99 2.228 . S
Cd100 O104 2.273 . S
Cd100 O108 2.277 . S
O101 C98 1.160 . S
O101 Cd102 2.203 1_545 S
Cd102 O101 2.203 1_565 S
Cd102 O104 2.411 1_565 S
Cd102 O105 2.333 . S
Cd102 O106 2.352 . S
Cd102 O110 2.277 . S
Cd102 O111 2.356 . S
C103 O108 1.209 1_565 S
C103 O110 1.226 . S
O104 Cd100 2.273 . S
O104 Cd102 2.411 1_545 S
O104 C107 1.320 1_545 S
O105 Cd102 2.333 . S
O105 C107 1.214 . S
O106 Cd102 2.352 . S
O106 C109 1.258 . S
C107 O104 1.320 1_565 S
C107 O105 1.214 . S
O108 Cd100 2.277 . S
O108 C103 1.209 1_545 S
C109 O106 1.258 . S
C109 O111 1.282 . S
O110 Cd102 2.277 . S
O110 C103 1.226 . S
O111 Cd102 2.356 . S
O111 C109 1.282 . S
C112 O113 1.306 . S
C112 O115 1.160 . S
O113 C112 1.306 . S
O113 Cd114 2.228 1_554 S
Cd114 O113 2.228 1_556 S
Cd114 O118 2.273 1_556 S
Cd114 O122 2.277 . S
O115 C112 1.160 . S
O115 Cd116 2.203 . S
Cd116 O115 2.203 . S
Cd116 O118 2.411 . S
Cd116 O119 2.333 . S
Cd116 O120 2.352 . S
Cd116 O124 2.277 1_554 S
Cd116 O125 2.356 . S
C117 O122 1.209 . S
C117 O124 1.226 . S
O118 Cd114 2.273 1_554 S
O118 Cd116 2.411 . S
O118 C121 1.320 . S
O119 Cd116 2.333 . S
O119 C121 1.214 . S
O120 Cd116 2.352 . S
O120 C123 1.258 . S
C121 O118 1.320 . S
C121 O119 1.214 . S
O122 Cd114 2.277 . S
O122 C117 1.209 . S
C123 O120 1.258 . S
C123 O125 1.282 . S
O124 Cd116 2.277 1_556 S
O124 C117 1.226 . S
O125 Cd116 2.356 . S
O125 C123 1.282 . S
C126 O127 1.306 . S
C126 O129 1.160 . S
O127 C126 1.306 . S
O127 Cd128 2.228 . S
Cd128 O127 2.228 . S
Cd128 O132 2.273 . S
Cd128 O136 2.277 . S
O129 C126 1.160 . S
O129 Cd130 2.203 1_655 S
Cd130 O129 2.203 1_455 S
Cd130 O132 2.411 1_455 S
Cd130 O133 2.333 . S
Cd130 O134 2.352 . S
Cd130 O138 2.277 . S
Cd130 O139 2.356 . S
C131 O136 1.209 1_455 S
C131 O138 1.226 . S
O132 Cd128 2.273 . S
O132 Cd130 2.411 1_655 S
O132 C135 1.320 1_655 S
O133 Cd130 2.333 . S
O133 C135 1.214 . S
O134 Cd130 2.352 . S
O134 C137 1.258 . S
C135 O132 1.320 1_455 S
C135 O133 1.214 . S
O136 Cd128 2.277 . S
O136 C131 1.209 1_655 S
C137 O134 1.258 . S
C137 O139 1.282 . S
O138 Cd130 2.277 . S
O138 C131 1.226 . S
O139 Cd130 2.356 . S
O139 C137 1.282 . S
C140 O141 1.306 . S
C140 O143 1.160 . S
O141 C140 1.306 . S
O141 Cd142 2.228 . S
Cd142 O141 2.228 . S
Cd142 O146 2.273 . S
Cd142 O150 2.277 . S
O143 C140 1.160 . S
O143 Cd144 2.203 1_565 S
Cd144 O143 2.203 1_545 S
Cd144 O146 2.411 1_545 S
Cd144 O147 2.333 . S
Cd144 O148 2.352 . S
Cd144 O152 2.277 . S
Cd144 O153 2.356 . S
C145 O150 1.209 1_545 S
C145 O152 1.226 . S
O146 Cd142 2.273 . S
O146 Cd144 2.411 1_565 S
O146 C149 1.320 1_565 S
O147 Cd144 2.333 . S
O147 C149 1.214 . S
O148 Cd144 2.352 . S
O148 C151 1.258 . S
C149 O146 1.320 1_545 S
C149 O147 1.214 . S
O150 Cd142 2.277 . S
O150 C145 1.209 1_565 S
C151 O148 1.258 . S
C151 O153 1.282 . S
O152 Cd144 2.277 . S
O152 C145 1.226 . S
O153 Cd144 2.356 . S
O153 C151 1.282 . S
C154 O155 1.306 . S
C154 O157 1.160 . S
O155 C154 1.306 . S
O155 Cd156 2.228 1_554 S
Cd156 O155 2.228 1_556 S
Cd156 O160 2.273 1_556 S
Cd156 O164 2.277 . S
O157 C154 1.160 . S
O157 Cd158 2.203 . S
Cd158 O157 2.203 . S
Cd158 O160 2.411 . S
Cd158 O161 2.333 . S
Cd158 O162 2.352 . S
Cd158 O166 2.277 1_554 S
Cd158 O167 2.356 . S
C159 O164 1.209 . S
C159 O166 1.226 . S
O160 Cd156 2.273 1_554 S
O160 Cd158 2.411 . S
O160 C163 1.320 . S
O161 Cd158 2.333 . S
O161 C163 1.214 . S
O162 Cd158 2.352 . S
O162 C165 1.258 . S
C163 O160 1.320 . S
C163 O161 1.214 . S
O164 Cd156 2.277 . S
O164 C159 1.209 . S
C165 O162 1.258 . S
C165 O167 1.282 . S
O166 Cd158 2.277 1_556 S
O166 C159 1.226 . S
O167 Cd158 2.356 . S
O167 C165 1.282 . S
H168 C176 0.950 . S
H169 C181 0.950 . S
H170 C178 0.950 . S
H171 C180 0.950 . S
H172 C182 0.950 . S
H173 C184 0.950 . S
H174 C186 0.950 . S
H175 C187 0.950 . S
C176 H168 0.950 . S
C176 C177 1.386 . S
C176 C178 1.391 . S
C177 C176 1.386 . S
C177 C181 1.393 . S
C178 H170 0.950 . S
C178 C176 1.391 . S
C178 C179 1.400 . S
C179 C178 1.400 . S
C179 C180 1.398 . S
C179 C185 1.491 . S
C180 H171 0.950 . S
C180 C179 1.398 . S
C180 C181 1.391 . S
C181 H169 0.950 . S
C181 C177 1.393 . S
C181 C180 1.391 . S
C182 H172 0.950 . S
C182 C183 1.386 . S
C182 C184 1.391 . S
C183 C182 1.386 . S
C183 C187 1.393 . S
C184 H173 0.950 . S
C184 C182 1.391 . S
C184 C185 1.400 . S
C185 C179 1.491 . S
C185 C184 1.400 . S
C185 C186 1.398 . S
C186 H174 0.950 . S
C186 C185 1.398 . S
C186 C187 1.391 . S
C187 H175 0.950 . S
C187 C183 1.393 . S
C187 C186 1.391 . S
H188 C196 0.950 . S
H189 C201 0.950 . S
H190 C198 0.950 . S
H191 C200 0.950 . S
H192 C202 0.950 . S
H193 C204 0.950 . S
H194 C206 0.950 . S
H195 C207 0.950 . S
C196 H188 0.950 . S
C196 C197 1.386 . S
C196 C198 1.391 . S
C197 C196 1.386 . S
C197 C201 1.393 . S
C198 H190 0.950 . S
C198 C196 1.391 . S
C198 C199 1.400 . S
C199 C198 1.400 . S
C199 C200 1.398 . S
C199 C205 1.491 . S
C200 H191 0.950 . S
C200 C199 1.398 . S
C200 C201 1.391 . S
C201 H189 0.950 . S
C201 C197 1.393 . S
C201 C200 1.391 . S
C202 H192 0.950 . S
C202 C203 1.386 . S
C202 C204 1.391 . S
C203 C202 1.386 . S
C203 C207 1.393 . S
C204 H193 0.950 . S
C204 C202 1.391 . S
C204 C205 1.400 . S
C205 C199 1.491 . S
C205 C204 1.400 . S
C205 C206 1.398 . S
C206 H194 0.950 . S
C206 C205 1.398 . S
C206 C207 1.391 . S
C207 H195 0.950 . S
C207 C203 1.393 . S
C207 C206 1.391 . S
H208 C216 0.950 . S
H209 C221 0.950 . S
H210 C218 0.950 . S
H211 C220 0.950 . S
H212 C222 0.950 . S
H213 C224 0.950 . S
H214 C226 0.950 . S
H215 C227 0.950 . S
C216 H208 0.950 . S
C216 C217 1.386 . S
C216 C218 1.391 . S
C217 C216 1.386 . S
C217 C221 1.393 . S
C218 H210 0.950 . S
C218 C216 1.391 . S
C218 C219 1.400 . S
C219 C218 1.400 . S
C219 C220 1.398 . S
C219 C225 1.491 . S
C220 H211 0.950 . S
C220 C219 1.398 . S
C220 C221 1.391 . S
C221 H209 0.950 . S
C221 C217 1.393 . S
C221 C220 1.391 . S
C222 H212 0.950 . S
C222 C223 1.386 . S
C222 C224 1.391 . S
C223 C222 1.386 . S
C223 C227 1.393 . S
C224 H213 0.950 . S
C224 C222 1.391 . S
C224 C225 1.400 . S
C225 C219 1.491 . S
C225 C224 1.400 . S
C225 C226 1.398 . S
C226 H214 0.950 . S
C226 C225 1.398 . S
C226 C227 1.391 . S
C227 H215 0.950 . S
C227 C223 1.393 . S
C227 C226 1.391 . S
H228 C236 0.950 . S
H229 C241 0.950 . S
H230 C238 0.950 . S
H231 C240 0.950 . S
H232 C242 0.950 . S
H233 C244 0.950 . S
H234 C246 0.950 . S
H235 C247 0.950 . S
C236 H228 0.950 . S
C236 C237 1.386 . S
C236 C238 1.391 . S
C237 C236 1.386 . S
C237 C241 1.393 . S
C238 H230 0.950 . S
C238 C236 1.391 . S
C238 C239 1.400 . S
C239 C238 1.400 . S
C239 C240 1.398 . S
C239 C245 1.491 . S
C240 H231 0.950 . S
C240 C239 1.398 . S
C240 C241 1.391 . S
C241 H229 0.950 . S
C241 C237 1.393 . S
C241 C240 1.391 . S
C242 H232 0.950 . S
C242 C243 1.386 . S
C242 C244 1.391 . S
C243 C242 1.386 . S
C243 C247 1.393 . S
C244 H233 0.950 . S
C244 C242 1.391 . S
C244 C245 1.400 . S
C245 C239 1.491 . S
C245 C244 1.400 . S
C245 C246 1.398 . S
C246 H234 0.950 . S
C246 C245 1.398 . S
C246 C247 1.391 . S
C247 H235 0.950 . S
C247 C243 1.393 . S
C247 C246 1.391 . S
H248 C256 0.950 . S
H249 C261 0.950 . S
H250 C258 0.950 . S
H251 C260 0.950 . S
H252 C262 0.950 . S
H253 C264 0.950 . S
H254 C266 0.950 . S
H255 C267 0.950 . S
C256 H248 0.950 . S
C256 C257 1.386 . S
C256 C258 1.391 . S
C257 C256 1.386 . S
C257 C261 1.393 . S
C258 H250 0.950 . S
C258 C256 1.391 . S
C258 C259 1.400 . S
C259 C258 1.400 . S
C259 C260 1.398 . S
C259 C265 1.491 . S
C260 H251 0.950 . S
C260 C259 1.398 . S
C260 C261 1.391 . S
C261 H249 0.950 . S
C261 C257 1.393 . S
C261 C260 1.391 . S
C262 H252 0.950 . S
C262 C263 1.386 . S
C262 C264 1.391 . S
C263 C262 1.386 . S
C263 C267 1.393 . S
C264 H253 0.950 . S
C264 C262 1.391 . S
C264 C265 1.400 . S
C265 C259 1.491 . S
C265 C264 1.400 . S
C265 C266 1.398 . S
C266 H254 0.950 . S
C266 C265 1.398 . S
C266 C267 1.391 . S
C267 H255 0.950 . S
C267 C263 1.393 . S
C267 C266 1.391 . S
H268 C276 0.950 . S
H269 C281 0.950 . S
H270 C278 0.950 . S
H271 C280 0.950 . S
H272 C282 0.950 . S
H273 C284 0.950 . S
H274 C286 0.950 . S
H275 C287 0.950 . S
C276 H268 0.950 . S
C276 C277 1.386 . S
C276 C278 1.391 . S
C277 C276 1.386 . S
C277 C281 1.393 . S
C278 H270 0.950 . S
C278 C276 1.391 . S
C278 C279 1.400 . S
C279 C278 1.400 . S
C279 C280 1.398 . S
C279 C285 1.491 . S
C280 H271 0.950 . S
C280 C279 1.398 . S
C280 C281 1.391 . S
C281 H269 0.950 . S
C281 C277 1.393 . S
C281 C280 1.391 . S
C282 H272 0.950 . S
C282 C283 1.386 . S
C282 C284 1.391 . S
C283 C282 1.386 . S
C283 C287 1.393 . S
C284 H273 0.950 . S
C284 C282 1.391 . S
C284 C285 1.400 . S
C285 C279 1.491 . S
C285 C284 1.400 . S
C285 C286 1.398 . S
C286 H274 0.950 . S
C286 C285 1.398 . S
C286 C287 1.391 . S
C287 H275 0.950 . S
C287 C283 1.393 . S
C287 C286 1.391 . S
H288 C296 0.950 . S
H289 C301 0.950 . S
H290 C298 0.950 . S
H291 C300 0.950 . S
H292 C302 0.950 . S
H293 C304 0.950 . S
H294 C306 0.950 . S
H295 C307 0.950 . S
C296 H288 0.950 . S
C296 C297 1.386 . S
C296 C298 1.391 . S
C297 C296 1.386 . S
C297 C301 1.393 1_545 S
C298 H290 0.950 . S
C298 C296 1.391 . S
C298 C299 1.400 . S
C299 C298 1.400 . S
C299 C300 1.398 1_545 S
C299 C305 1.491 1_545 S
C300 H291 0.950 . S
C300 C299 1.398 1_565 S
C300 C301 1.391 . S
C301 H289 0.950 . S
C301 C297 1.393 1_565 S
C301 C300 1.391 . S
C302 H292 0.950 . S
C302 C303 1.386 . S
C302 C304 1.391 . S
C303 C302 1.386 . S
C303 C307 1.393 1_565 S
C304 H293 0.950 . S
C304 C302 1.391 . S
C304 C305 1.400 . S
C305 C299 1.491 1_565 S
C305 C304 1.400 . S
C305 C306 1.398 1_565 S
C306 H294 0.950 . S
C306 C305 1.398 1_545 S
C306 C307 1.391 . S
C307 H295 0.950 . S
C307 C303 1.393 1_545 S
C307 C306 1.391 . S
H308 C316 0.950 . S
H309 C321 0.950 . S
H310 C318 0.950 . S
H311 C320 0.950 . S
H312 C322 0.950 . S
H313 C324 0.950 . S
H314 C326 0.950 . S
H315 C327 0.950 . S
C316 H308 0.950 . S
C316 C317 1.386 . S
C316 C318 1.391 . S
C317 C316 1.386 . S
C317 C321 1.393 . S
C318 H310 0.950 . S
C318 C316 1.391 . S
C318 C319 1.400 . S
C319 C318 1.400 . S
C319 C320 1.398 . S
C319 C325 1.491 . S
C320 H311 0.950 . S
C320 C319 1.398 . S
C320 C321 1.391 . S
C321 H309 0.950 . S
C321 C317 1.393 . S
C321 C320 1.391 . S
C322 H312 0.950 . S
C322 C323 1.386 . S
C322 C324 1.391 . S
C323 C322 1.386 . S
C323 C327 1.393 . S
C324 H313 0.950 . S
C324 C322 1.391 . S
C324 C325 1.400 . S
C325 C319 1.491 . S
C325 C324 1.400 . S
C325 C326 1.398 . S
C326 H314 0.950 . S
C326 C325 1.398 . S
C326 C327 1.391 . S
C327 H315 0.950 . S
C327 C323 1.393 . S
C327 C326 1.391 . S
H328 C336 0.950 . S
H329 C341 0.950 . S
H330 C338 0.950 . S
H331 C340 0.950 . S
H332 C342 0.950 . S
H333 C344 0.950 . S
H334 C346 0.950 . S
H335 C347 0.950 . S
C336 H328 0.950 . S
C336 C337 1.386 . S
C336 C338 1.391 . S
C337 C336 1.386 . S
C337 C341 1.393 1_455 S
C338 H330 0.950 . S
C338 C336 1.391 . S
C338 C339 1.400 . S
C339 C338 1.400 . S
C339 C340 1.398 1_455 S
C339 C345 1.491 1_455 S
C340 H331 0.950 . S
C340 C339 1.398 1_655 S
C340 C341 1.391 . S
C341 H329 0.950 . S
C341 C337 1.393 1_655 S
C341 C340 1.391 . S
C342 H332 0.950 . S
C342 C343 1.386 . S
C342 C344 1.391 . S
C343 C342 1.386 . S
C343 C347 1.393 1_655 S
C344 H333 0.950 . S
C344 C342 1.391 . S
C344 C345 1.400 . S
C345 C339 1.491 1_655 S
C345 C344 1.400 . S
C345 C346 1.398 1_655 S
C346 H334 0.950 . S
C346 C345 1.398 1_455 S
C346 C347 1.391 . S
C347 H335 0.950 . S
C347 C343 1.393 1_455 S
C347 C346 1.391 . S
H348 C356 0.950 . S
H349 C361 0.950 . S
H350 C358 0.950 . S
H351 C360 0.950 . S
H352 C362 0.950 . S
H353 C364 0.950 . S
H354 C366 0.950 . S
H355 C367 0.950 . S
C356 H348 0.950 . S
C356 C357 1.386 . S
C356 C358 1.391 . S
C357 C356 1.386 . S
C357 C361 1.393 . S
C358 H350 0.950 . S
C358 C356 1.391 . S
C358 C359 1.400 . S
C359 C358 1.400 . S
C359 C360 1.398 . S
C359 C365 1.491 1_655 S
C360 H351 0.950 . S
C360 C359 1.398 . S
C360 C361 1.391 . S
C361 H349 0.950 . S
C361 C357 1.393 . S
C361 C360 1.391 . S
C362 H352 0.950 . S
C362 C363 1.386 . S
C362 C364 1.391 . S
C363 C362 1.386 . S
C363 C367 1.393 . S
C364 H353 0.950 . S
C364 C362 1.391 . S
C364 C365 1.400 . S
C365 C359 1.491 1_455 S
C365 C364 1.400 . S
C365 C366 1.398 . S
C366 H354 0.950 . S
C366 C365 1.398 . S
C366 C367 1.391 . S
C367 H355 0.950 . S
C367 C363 1.393 . S
C367 C366 1.391 . S
H368 C376 0.950 . S
H369 C381 0.950 . S
H370 C378 0.950 1_565 S
H371 C380 0.950 . S
H372 C382 0.950 . S
H373 C384 0.950 1_545 S
H374 C386 0.950 . S
H375 C387 0.950 . S
C376 H368 0.950 . S
C376 C377 1.386 . S
C376 C378 1.391 . S
C377 C376 1.386 . S
C377 C381 1.393 . S
C378 H370 0.950 1_545 S
C378 C376 1.391 . S
C378 C379 1.400 . S
C379 C378 1.400 . S
C379 C380 1.398 . S
C379 C385 1.491 1_545 S
C380 H371 0.950 . S
C380 C379 1.398 . S
C380 C381 1.391 . S
C381 H369 0.950 . S
C381 C377 1.393 . S
C381 C380 1.391 . S
C382 H372 0.950 . S
C382 C383 1.386 . S
C382 C384 1.391 . S
C383 C382 1.386 . S
C383 C387 1.393 . S
C384 H373 0.950 1_565 S
C384 C382 1.391 . S
C384 C385 1.400 . S
C385 C379 1.491 1_565 S
C385 C384 1.400 . S
C385 C386 1.398 . S
C386 H374 0.950 . S
C386 C385 1.398 . S
C386 C387 1.391 . S
C387 H375 0.950 . S
C387 C383 1.393 . S
C387 C386 1.391 . S
H388 C396 0.950 . S
H389 C401 0.950 . S
H390 C398 0.950 . S
H391 C400 0.950 . S
H392 C402 0.950 . S
H393 C404 0.950 . S
H394 C406 0.950 . S
H395 C407 0.950 . S
C396 H388 0.950 . S
C396 C397 1.386 . S
C396 C398 1.391 . S
C397 C396 1.386 . S
C397 C401 1.393 . S
C398 H390 0.950 . S
C398 C396 1.391 . S
C398 C399 1.400 . S
C399 C398 1.400 . S
C399 C400 1.398 . S
C399 C405 1.491 . S
C400 H391 0.950 . S
C400 C399 1.398 . S
C400 C401 1.391 . S
C401 H389 0.950 . S
C401 C397 1.393 . S
C401 C400 1.391 . S
C402 H392 0.950 . S
C402 C403 1.386 . S
C402 C404 1.391 . S
C403 C402 1.386 . S
C403 C407 1.393 . S
C404 H393 0.950 . S
C404 C402 1.391 . S
C404 C405 1.400 . S
C405 C399 1.491 . S
C405 C404 1.400 . S
C405 C406 1.398 . S
C406 H394 0.950 . S
C406 C405 1.398 . S
C406 C407 1.391 . S
C407 H395 0.950 . S
C407 C403 1.393 . S
C407 C406 1.391 . S
H408 C416 0.950 . S
H409 C421 0.950 . S
H410 C418 0.950 . S
H411 C420 0.950 . S
H412 C422 0.950 . S
H413 C424 0.950 . S
H414 C426 0.950 . S
H415 C427 0.950 . S
C416 H408 0.950 . S
C416 C417 1.386 . S
C416 C418 1.391 . S
C417 C416 1.386 . S
C417 C421 1.393 . S
C418 H410 0.950 . S
C418 C416 1.391 . S
C418 C419 1.400 . S
C419 C418 1.400 . S
C419 C420 1.398 . S
C419 C425 1.491 . S
C420 H411 0.950 . S
C420 C419 1.398 . S
C420 C421 1.391 . S
C421 H409 0.950 . S
C421 C417 1.393 . S
C421 C420 1.391 . S
C422 H412 0.950 . S
C422 C423 1.386 . S
C422 C424 1.391 . S
C423 C422 1.386 . S
C423 C427 1.393 . S
C424 H413 0.950 . S
C424 C422 1.391 . S
C424 C425 1.400 . S
C425 C419 1.491 . S
C425 C424 1.400 . S
C425 C426 1.398 . S
C426 H414 0.950 . S
C426 C425 1.398 . S
C426 C427 1.391 . S
C427 H415 0.950 . S
C427 C423 1.393 . S
C427 C426 1.391 . S
H428 C436 0.950 . S
H429 C441 0.950 . S
H430 C438 0.950 . S
H431 C440 0.950 . S
H432 C442 0.950 . S
H433 C444 0.950 . S
H434 C446 0.950 . S
H435 C447 0.950 . S
C436 H428 0.950 . S
C436 C437 1.386 . S
C436 C438 1.391 . S
C437 C436 1.386 . S
C437 C441 1.393 . S
C438 H430 0.950 . S
C438 C436 1.391 . S
C438 C439 1.400 . S
C439 C438 1.400 . S
C439 C440 1.398 . S
C439 C445 1.491 . S
C440 H431 0.950 . S
C440 C439 1.398 . S
C440 C441 1.391 . S
C441 H429 0.950 . S
C441 C437 1.393 . S
C441 C440 1.391 . S
C442 H432 0.950 . S
C442 C443 1.386 . S
C442 C444 1.391 . S
C443 C442 1.386 . S
C443 C447 1.393 . S
C444 H433 0.950 . S
C444 C442 1.391 . S
C444 C445 1.400 . S
C445 C439 1.491 . S
C445 C444 1.400 . S
C445 C446 1.398 . S
C446 H434 0.950 . S
C446 C445 1.398 . S
C446 C447 1.391 . S
C447 H435 0.950 . S
C447 C443 1.393 . S
C447 C446 1.391 . S
H448 C456 0.950 . S
H449 C461 0.950 . S
H450 C458 0.950 . S
H451 C460 0.950 . S
H452 C462 0.950 . S
H453 C464 0.950 . S
H454 C466 0.950 . S
H455 C467 0.950 . S
C456 H448 0.950 . S
C456 C457 1.386 1_556 S
C456 C458 1.391 . S
C457 C456 1.386 1_554 S
C457 C461 1.393 . S
C458 H450 0.950 . S
C458 C456 1.391 . S
C458 C459 1.400 1_556 S
C459 C458 1.400 1_554 S
C459 C460 1.398 . S
C459 C465 1.491 1_554 S
C460 H451 0.950 . S
C460 C459 1.398 . S
C460 C461 1.391 . S
C461 H449 0.950 . S
C461 C457 1.393 . S
C461 C460 1.391 . S
C462 H452 0.950 . S
C462 C463 1.386 1_554 S
C462 C464 1.391 . S
C463 C462 1.386 1_556 S
C463 C467 1.393 . S
C464 H453 0.950 . S
C464 C462 1.391 . S
C464 C465 1.400 1_554 S
C465 C459 1.491 1_556 S
C465 C464 1.400 1_556 S
C465 C466 1.398 . S
C466 H454 0.950 . S
C466 C465 1.398 . S
C466 C467 1.391 . S
C467 H455 0.950 . S
C467 C463 1.393 . S
C467 C466 1.391 . S
H468 C476 0.950 . S
H469 C481 0.950 . S
H470 C478 0.950 . S
H471 C480 0.950 . S
H472 C482 0.950 . S
H473 C484 0.950 . S
H474 C486 0.950 . S
H475 C487 0.950 . S
C476 H468 0.950 . S
C476 C477 1.386 . S
C476 C478 1.391 . S
C477 C476 1.386 . S
C477 C481 1.393 . S
C478 H470 0.950 . S
C478 C476 1.391 . S
C478 C479 1.400 . S
C479 C478 1.400 . S
C479 C480 1.398 . S
C479 C485 1.491 . S
C480 H471 0.950 . S
C480 C479 1.398 . S
C480 C481 1.391 . S
C481 H469 0.950 . S
C481 C477 1.393 . S
C481 C480 1.391 . S
C482 H472 0.950 . S
C482 C483 1.386 . S
C482 C484 1.391 . S
C483 C482 1.386 . S
C483 C487 1.393 . S
C484 H473 0.950 . S
C484 C482 1.391 . S
C484 C485 1.400 . S
C485 C479 1.491 . S
C485 C484 1.400 . S
C485 C486 1.398 . S
C486 H474 0.950 . S
C486 C485 1.398 . S
C486 C487 1.391 . S
C487 H475 0.950 . S
C487 C483 1.393 . S
C487 C486 1.391 . S
H488 C496 0.950 . S
H489 C501 0.950 . S
H490 C498 0.950 . S
H491 C500 0.950 . S
H492 C502 0.950 . S
H493 C504 0.950 . S
H494 C506 0.950 . S
H495 C507 0.950 . S
C496 H488 0.950 . S
C496 C497 1.386 . S
C496 C498 1.391 . S
C497 C496 1.386 . S
C497 C501 1.393 . S
C498 H490 0.950 . S
C498 C496 1.391 . S
C498 C499 1.400 . S
C499 C498 1.400 . S
C499 C500 1.398 . S
C499 C505 1.491 . S
C500 H491 0.950 . S
C500 C499 1.398 . S
C500 C501 1.391 . S
C501 H489 0.950 . S
C501 C497 1.393 . S
C501 C500 1.391 . S
C502 H492 0.950 . S
C502 C503 1.386 . S
C502 C504 1.391 . S
C503 C502 1.386 . S
C503 C507 1.393 . S
C504 H493 0.950 . S
C504 C502 1.391 . S
C504 C505 1.400 . S
C505 C499 1.491 . S
C505 C504 1.400 . S
C505 C506 1.398 . S
C506 H494 0.950 . S
C506 C505 1.398 . S
C506 C507 1.391 . S
C507 H495 0.950 . S
C507 C503 1.393 . S
C507 C506 1.391 . S
H508 C516 0.950 . S
H509 C521 0.950 . S
H510 C518 0.950 . S
H511 C520 0.950 . S
H512 C522 0.950 . S
H513 C524 0.950 . S
H514 C526 0.950 . S
H515 C527 0.950 . S
C516 H508 0.950 . S
C516 C517 1.386 . S
C516 C518 1.391 . S
C517 C516 1.386 . S
C517 C521 1.393 1_554 S
C518 H510 0.950 . S
C518 C516 1.391 . S
C518 C519 1.400 . S
C519 C518 1.400 . S
C519 C520 1.398 1_554 S
C519 C525 1.491 1_554 S
C520 H511 0.950 . S
C520 C519 1.398 1_556 S
C520 C521 1.391 . S
C521 H509 0.950 . S
C521 C517 1.393 1_556 S
C521 C520 1.391 . S
C522 H512 0.950 . S
C522 C523 1.386 . S
C522 C524 1.391 . S
C523 C522 1.386 . S
C523 C527 1.393 1_556 S
C524 H513 0.950 . S
C524 C522 1.391 . S
C524 C525 1.400 . S
C525 C519 1.491 1_556 S
C525 C524 1.400 . S
C525 C526 1.398 1_556 S
C526 H514 0.950 . S
C526 C525 1.398 1_554 S
C526 C527 1.391 . S
C527 H515 0.950 . S
C527 C523 1.393 1_554 S
C527 C526 1.391 . S
H528 C536 0.950 . S
H529 C541 0.950 . S
H530 C538 0.955 1_565 S
H531 C540 0.950 . S
H532 C542 0.950 . S
H533 C544 0.955 1_545 S
H534 C546 0.950 . S
H535 C547 0.950 . S
C536 H528 0.950 . S
C536 C537 1.386 . S
C536 C538 1.396 . S
C537 C536 1.386 . S
C537 C541 1.393 . S
C538 H530 0.955 1_545 S
C538 C536 1.396 . S
C538 C539 1.391 . S
C539 C538 1.391 . S
C539 C540 1.398 . S
C539 C545 1.491 1_545 S
C540 H531 0.950 . S
C540 C539 1.398 . S
C540 C541 1.391 . S
C541 H529 0.950 . S
C541 C537 1.393 . S
C541 C540 1.391 . S
C542 H532 0.950 . S
C542 C543 1.386 . S
C542 C544 1.396 . S
C543 C542 1.386 . S
C543 C547 1.393 . S
C544 H533 0.955 1_565 S
C544 C542 1.396 . S
C544 C545 1.391 . S
C545 C539 1.491 1_565 S
C545 C544 1.391 . S
C545 C546 1.398 . S
C546 H534 0.950 . S
C546 C545 1.398 . S
C546 C547 1.391 . S
C547 H535 0.950 . S
C547 C543 1.393 . S
C547 C546 1.391 . S
H548 C556 0.950 . S
H549 C561 0.950 . S
H550 C558 0.950 . S
H551 C560 0.950 . S
H552 C562 0.950 . S
H553 C564 0.950 . S
H554 C566 0.950 . S
H555 C567 0.950 . S
C556 H548 0.950 . S
C556 C557 1.386 . S
C556 C558 1.391 . S
C557 C556 1.386 . S
C557 C561 1.393 . S
C558 H550 0.950 . S
C558 C556 1.391 . S
C558 C559 1.400 . S
C559 C558 1.400 . S
C559 C560 1.398 . S
C559 C565 1.491 . S
C560 H551 0.950 . S
C560 C559 1.398 . S
C560 C561 1.391 . S
C561 H549 0.950 . S
C561 C557 1.393 . S
C561 C560 1.391 . S
C562 H552 0.950 . S
C562 C563 1.386 . S
C562 C564 1.391 . S
C563 C562 1.386 . S
C563 C567 1.393 . S
C564 H553 0.950 . S
C564 C562 1.391 . S
C564 C565 1.400 . S
C565 C559 1.491 . S
C565 C564 1.400 . S
C565 C566 1.398 . S
C566 H554 0.950 . S
C566 C565 1.398 . S
C566 C567 1.391 . S
C567 H555 0.950 . S
C567 C563 1.393 . S
C567 C566 1.391 . S
H568 C576 0.950 . S
H569 C581 0.950 . S
H570 C578 0.950 . S
H571 C580 0.950 . S
H572 C582 0.950 . S
H573 C584 0.950 . S
H574 C586 0.950 . S
H575 C587 0.950 . S
C576 H568 0.950 . S
C576 C577 1.386 . S
C576 C578 1.391 . S
C577 C576 1.386 . S
C577 C581 1.393 1_455 S
C578 H570 0.950 . S
C578 C576 1.391 . S
C578 C579 1.400 . S
C579 C578 1.400 . S
C579 C580 1.398 1_455 S
C579 C585 1.491 1_455 S
C580 H571 0.950 . S
C580 C579 1.398 1_655 S
C580 C581 1.391 . S
C581 H569 0.950 . S
C581 C577 1.393 1_655 S
C581 C580 1.391 . S
C582 H572 0.950 . S
C582 C583 1.386 . S
C582 C584 1.391 . S
C583 C582 1.386 . S
C583 C587 1.393 1_655 S
C584 H573 0.950 . S
C584 C582 1.391 . S
C584 C585 1.400 . S
C585 C579 1.491 1_655 S
C585 C584 1.400 . S
C585 C586 1.398 1_655 S
C586 H574 0.950 . S
C586 C585 1.398 1_455 S
C586 C587 1.391 . S
C587 H575 0.950 . S
C587 C583 1.393 1_455 S
C587 C586 1.391 . S
H588 C596 0.950 . S
H589 C601 0.930 1_545 S
H590 C598 0.950 . S
H591 C600 0.950 . S
H592 C602 0.950 . S
H593 C604 0.950 . S
H594 C606 0.950 . S
H595 C607 0.930 1_565 S
C596 H588 0.950 . S
C596 C597 1.386 . S
C596 C598 1.391 . S
C597 C596 1.386 . S
C597 C601 1.393 . S
C598 H590 0.950 . S
C598 C596 1.391 . S
C598 C599 1.400 . S
C599 C598 1.400 . S
C599 C600 1.398 1_565 S
C599 C605 1.491 1_565 S
C600 H591 0.950 . S
C600 C599 1.398 1_545 S
C600 C601 1.391 1_545 S
C601 H589 0.930 1_565 S
C601 C597 1.393 . S
C601 C600 1.391 1_565 S
C602 H592 0.950 . S
C602 C603 1.386 . S
C602 C604 1.391 . S
C603 C602 1.386 . S
C603 C607 1.393 . S
C604 H593 0.950 . S
C604 C602 1.391 . S
C604 C605 1.400 . S
C605 C599 1.491 1_545 S
C605 C604 1.400 . S
C605 C606 1.398 1_545 S
C606 H594 0.950 . S
C606 C605 1.398 1_565 S
C606 C607 1.391 1_565 S
C607 H595 0.930 1_545 S
C607 C603 1.393 . S
C607 C606 1.391 1_545 S
H608 C616 0.950 . S
H609 C621 0.950 . S
H610 C618 0.950 . S
H611 C620 0.950 . S
H612 C622 0.950 . S
H613 C624 0.950 . S
H614 C626 0.950 . S
H615 C627 0.950 . S
C616 H608 0.950 . S
C616 C617 1.386 . S
C616 C618 1.391 . S
C617 C616 1.386 . S
C617 C621 1.393 . S
C618 H610 0.950 . S
C618 C616 1.391 . S
C618 C619 1.400 . S
C619 C618 1.400 . S
C619 C620 1.398 . S
C619 C625 1.491 . S
C620 H611 0.950 . S
C620 C619 1.398 . S
C620 C621 1.391 . S
C621 H609 0.950 . S
C621 C617 1.393 . S
C621 C620 1.391 . S
C622 H612 0.950 . S
C622 C623 1.386 . S
C622 C624 1.391 . S
C623 C622 1.386 . S
C623 C627 1.393 . S
C624 H613 0.950 . S
C624 C622 1.391 . S
C624 C625 1.400 . S
C625 C619 1.491 . S
C625 C624 1.400 . S
C625 C626 1.398 . S
C626 H614 0.950 . S
C626 C625 1.398 . S
C626 C627 1.391 . S
C627 H615 0.950 . S
C627 C623 1.393 . S
C627 C626 1.391 . S
H628 C636 0.950 . S
H629 C641 0.950 . S
H630 C638 0.950 1_455 S
H631 C640 0.950 . S
H632 C642 0.950 . S
H633 C644 0.950 1_655 S
H634 C646 0.950 . S
H635 C647 0.950 . S
C636 H628 0.950 . S
C636 C637 1.386 . S
C636 C638 1.391 . S
C637 C636 1.386 . S
C637 C641 1.393 . S
C638 H630 0.950 1_655 S
C638 C636 1.391 . S
C638 C639 1.400 . S
C639 C638 1.400 . S
C639 C640 1.398 . S
C639 C645 1.491 1_655 S
C640 H631 0.950 . S
C640 C639 1.398 . S
C640 C641 1.391 . S
C641 H629 0.950 . S
C641 C637 1.393 . S
C641 C640 1.391 . S
C642 H632 0.950 . S
C642 C643 1.386 . S
C642 C644 1.391 . S
C643 C642 1.386 . S
C643 C647 1.393 . S
C644 H633 0.950 1_455 S
C644 C642 1.391 . S
C644 C645 1.400 . S
C645 C639 1.491 1_455 S
C645 C644 1.400 . S
C645 C646 1.398 . S
C646 H634 0.950 . S
C646 C645 1.398 . S
C646 C647 1.391 . S
C647 H635 0.950 . S
C647 C643 1.393 . S
C647 C646 1.391 . S
C177 C11 1.795 . S
C183 C123 1.795 . S
C197 C25 1.792 . S
C203 C137 1.790 . S
C217 C151 1.795 . S
C223 C39 1.795 . S
C237 C165 1.794 . S
C243 C53 1.795 . S
C257 C95 1.794 . S
C263 C67 1.795 . S
C277 C109 1.793 . S
C283 C81 1.794 . S
C297 C9 1.587 . S
C303 C51 1.591 . S
C317 C65 1.590 . S
C323 C23 1.593 . S
C337 C79 1.589 . S
C343 C37 1.593 . S
C357 C93 1.592 . S
C363 C135 1.592 . S
C377 C149 1.592 . S
C383 C107 1.592 . S
C397 C121 1.592 . S
C403 C163 1.588 . S
C417 C84 0.871 . S
C423 C0 0.857 . S
C437 C14 0.899 . S
C443 C98 0.896 . S
C457 C112 0.887 . S
C463 C28 0.866 . S
C477 C126 0.857 . S
C483 C42 0.860 . S
C497 C56 0.884 . S
C503 C140 0.899 . S
C517 C154 0.858 . S
C523 C70 0.874 . S
C537 C5 1.035 . S
C543 C103 1.036 . S
C557 C117 1.054 . S
C563 C19 1.055 . S
C577 C131 1.043 . S
C583 C33 1.040 . S
C597 C47 1.035 . S
C603 C145 1.034 . S
C617 C159 1.050 . S
C623 C61 1.052 . S
C637 C89 1.034 . S
C643 C75 1.035 . S
