# Generated by pormake.
# Topology wiu, (6)-cn, num edge types: 1
# Building blocks:
#     Node 0, Type 0, BuildingBlock: BETFAJ_clean_sbu_0, # of connection points: 6
#     Node 1, Type 0, BuildingBlock: BETFAJ_clean_sbu_0, # of connection points: 6
#     Node 2, Type 0, BuildingBlock: BETFAJ_clean_sbu_0, # of connection points: 6
#     Node 3, Type 0, BuildingBlock: BETFAJ_clean_sbu_0, # of connection points: 6
#     Node 4, Type 0, BuildingBlock: BETFAJ_clean_sbu_0, # of connection points: 6
#     Node 5, Type 0, BuildingBlock: BETFAJ_clean_sbu_0, # of connection points: 6
#     Node 6, Type 0, BuildingBlock: BETFAJ_clean_sbu_0, # of connection points: 6
#     Node 7, Type 0, BuildingBlock: BETFAJ_clean_sbu_0, # of connection points: 6
#     Node 8, Type 0, BuildingBlock: BETFAJ_clean_sbu_0, # of connection points: 6
#     Node 9, Type 0, BuildingBlock: BETFAJ_clean_sbu_0, # of connection points: 6
#     Node 10, Type 0, BuildingBlock: BETFAJ_clean_sbu_0, # of connection points: 6
#     Node 11, Type 0, BuildingBlock: BETFAJ_clean_sbu_0, # of connection points: 6
#     Node 12, Type 0, BuildingBlock: BETFAJ_clean_sbu_0, # of connection points: 6
#     Node 13, Type 0, BuildingBlock: BETFAJ_clean_sbu_0, # of connection points: 6
#     Node 14, Type 0, BuildingBlock: BETFAJ_clean_sbu_0, # of connection points: 6
#     Node 15, Type 0, BuildingBlock: BETFAJ_clean_sbu_0, # of connection points: 6
#     Edge 16, Type (0, 0), BuildingBlock: UVAHIK_clean_linker_0, # of connection points: 2
#     Edge 17, Type (0, 0), BuildingBlock: UVAHIK_clean_linker_0, # of connection points: 2
#     Edge 18, Type (0, 0), BuildingBlock: UVAHIK_clean_linker_0, # of connection points: 2
#     Edge 19, Type (0, 0), BuildingBlock: UVAHIK_clean_linker_0, # of connection points: 2
#     Edge 20, Type (0, 0), BuildingBlock: UVAHIK_clean_linker_0, # of connection points: 2
#     Edge 21, Type (0, 0), BuildingBlock: UVAHIK_clean_linker_0, # of connection points: 2
#     Edge 22, Type (0, 0), BuildingBlock: UVAHIK_clean_linker_0, # of connection points: 2
#     Edge 23, Type (0, 0), BuildingBlock: UVAHIK_clean_linker_0, # of connection points: 2
#     Edge 24, Type (0, 0), BuildingBlock: UVAHIK_clean_linker_0, # of connection points: 2
#     Edge 25, Type (0, 0), BuildingBlock: UVAHIK_clean_linker_0, # of connection points: 2
#     Edge 26, Type (0, 0), BuildingBlock: UVAHIK_clean_linker_0, # of connection points: 2
#     Edge 27, Type (0, 0), BuildingBlock: UVAHIK_clean_linker_0, # of connection points: 2
#     Edge 28, Type (0, 0), BuildingBlock: UVAHIK_clean_linker_0, # of connection points: 2
#     Edge 29, Type (0, 0), BuildingBlock: UVAHIK_clean_linker_0, # of connection points: 2
#     Edge 30, Type (0, 0), BuildingBlock: UVAHIK_clean_linker_0, # of connection points: 2
#     Edge 31, Type (0, 0), BuildingBlock: UVAHIK_clean_linker_0, # of connection points: 2
#     Edge 32, Type (0, 0), BuildingBlock: UVAHIK_clean_linker_0, # of connection points: 2
#     Edge 33, Type (0, 0), BuildingBlock: UVAHIK_clean_linker_0, # of connection points: 2
#     Edge 34, Type (0, 0), BuildingBlock: UVAHIK_clean_linker_0, # of connection points: 2
#     Edge 35, Type (0, 0), BuildingBlock: UVAHIK_clean_linker_0, # of connection points: 2
#     Edge 36, Type (0, 0), BuildingBlock: UVAHIK_clean_linker_0, # of connection points: 2
#     Edge 37, Type (0, 0), BuildingBlock: UVAHIK_clean_linker_0, # of connection points: 2
#     Edge 38, Type (0, 0), BuildingBlock: UVAHIK_clean_linker_0, # of connection points: 2
#     Edge 39, Type (0, 0), BuildingBlock: UVAHIK_clean_linker_0, # of connection points: 2
#     Edge 40, Type (0, 0), BuildingBlock: UVAHIK_clean_linker_0, # of connection points: 2
#     Edge 41, Type (0, 0), BuildingBlock: UVAHIK_clean_linker_0, # of connection points: 2
#     Edge 42, Type (0, 0), BuildingBlock: UVAHIK_clean_linker_0, # of connection points: 2
#     Edge 43, Type (0, 0), BuildingBlock: UVAHIK_clean_linker_0, # of connection points: 2
#     Edge 44, Type (0, 0), BuildingBlock: UVAHIK_clean_linker_0, # of connection points: 2
#     Edge 45, Type (0, 0), BuildingBlock: UVAHIK_clean_linker_0, # of connection points: 2
#     Edge 46, Type (0, 0), BuildingBlock: UVAHIK_clean_linker_0, # of connection points: 2
#     Edge 47, Type (0, 0), BuildingBlock: UVAHIK_clean_linker_0, # of connection points: 2
#     Edge 48, Type (0, 0), BuildingBlock: UVAHIK_clean_linker_0, # of connection points: 2
#     Edge 49, Type (0, 0), BuildingBlock: UVAHIK_clean_linker_0, # of connection points: 2
#     Edge 50, Type (0, 0), BuildingBlock: UVAHIK_clean_linker_0, # of connection points: 2
#     Edge 51, Type (0, 0), BuildingBlock: UVAHIK_clean_linker_0, # of connection points: 2
#     Edge 52, Type (0, 0), BuildingBlock: UVAHIK_clean_linker_0, # of connection points: 2
#     Edge 53, Type (0, 0), BuildingBlock: UVAHIK_clean_linker_0, # of connection points: 2
#     Edge 54, Type (0, 0), BuildingBlock: UVAHIK_clean_linker_0, # of connection points: 2
#     Edge 55, Type (0, 0), BuildingBlock: UVAHIK_clean_linker_0, # of connection points: 2
#     Edge 56, Type (0, 0), BuildingBlock: UVAHIK_clean_linker_0, # of connection points: 2
#     Edge 57, Type (0, 0), BuildingBlock: UVAHIK_clean_linker_0, # of connection points: 2
#     Edge 58, Type (0, 0), BuildingBlock: UVAHIK_clean_linker_0, # of connection points: 2
#     Edge 59, Type (0, 0), BuildingBlock: UVAHIK_clean_linker_0, # of connection points: 2
#     Edge 60, Type (0, 0), BuildingBlock: UVAHIK_clean_linker_0, # of connection points: 2
#     Edge 61, Type (0, 0), BuildingBlock: UVAHIK_clean_linker_0, # of connection points: 2
#     Edge 62, Type (0, 0), BuildingBlock: UVAHIK_clean_linker_0, # of connection points: 2
#     Edge 63, Type (0, 0), BuildingBlock: UVAHIK_clean_linker_0, # of connection points: 2
# Relax obj value: 0.469
# Max RMSD: 0.312
# Mean RMSD: 0.312
data_MOF--net-wiu--node1-BETFAJ_clean_sbu_0--edge1-UVAHIK_clean_linker_0
_symmetry_space_group_name_H-M    P1
_symmetry_Int_Tables_number       1
_symmetry_cell_setting            triclinic
loop_
_symmetry_equiv_pos_as_xyz
'x, y, z'
_cell_length_a     47.099507
_cell_length_b     46.969728
_cell_length_c     71.896749
_cell_angle_alpha  90.020182
_cell_angle_beta   89.721185
_cell_angle_gamma 90.124087
loop_
_atom_site_label
_atom_site_type_symbol
_atom_site_fract_x
_atom_site_fract_y
_atom_site_fract_z
_atom_type_partial_charge
Sm0 Sm 0.31801 0.14674 0.28076 0.0
Sm1 Sm 0.35081 0.09871 0.2676 0.0
C2 C 0.28688 0.18906 0.29433 0.0
C3 C 0.27813 0.21742 0.28736 0.0
C4 C 0.2647 0.22058 0.27006 0.0
C5 C 0.25733 0.24763 0.26348 0.0
C6 C 0.26339 0.27222 0.27397 0.0
C7 C 0.27691 0.26892 0.29127 0.0
C8 C 0.28411 0.24185 0.29789 0.0
C9 C 0.37129 0.16317 0.26779 0.0
C10 C 0.34446 0.10087 0.31194 0.0
C11 C 0.38894 0.06499 0.2518 0.0
C12 C 0.40084 0.05937 0.23338 0.0
C13 C 0.395 0.07748 0.21839 0.0
C14 C 0.40833 0.07313 0.20125 0.0
C15 C 0.42769 0.05064 0.19893 0.0
C16 C 0.43273 0.03207 0.21388 0.0
C17 C 0.4194 0.03645 0.231 0.0
C18 C 0.29617 0.08333 0.2779 0.0
C19 C 0.31042 0.13086 0.23656 0.0
O20 O 0.31381 0.18596 0.29802 0.0
O21 O 0.27601 0.1667 0.28619 0.0
O22 O 0.36631 0.14193 0.27825 0.0
O23 O 0.34759 0.1748 0.26292 0.0
O24 O 0.32421 0.11988 0.30847 0.0
O25 O 0.36101 0.09217 0.29831 0.0
O26 O 0.39503 0.08985 0.25891 0.0
O27 O 0.36255 0.0575 0.25449 0.0
O28 O 0.30341 0.10529 0.2691 0.0
O29 O 0.31827 0.0676 0.28118 0.0
O30 O 0.33357 0.11535 0.2391 0.0
O31 O 0.2987 0.14404 0.25098 0.0
H32 H 0.25993 0.20218 0.26153 0.0
H33 H 0.24657 0.24918 0.25025 0.0
H34 H 0.28236 0.2873 0.29963 0.0
H35 H 0.29464 0.24003 0.3112 0.0
H36 H 0.38072 0.09535 0.22009 0.0
H37 H 0.40421 0.0879 0.19002 0.0
H38 H 0.44719 0.0143 0.2124 0.0
H39 H 0.424 0.02227 0.24248 0.0
Sm40 Sm 0.60647 0.57019 0.53028 0.0
Sm41 Sm 0.65356 0.60484 0.51806 0.0
C42 C 0.56503 0.53748 0.54349 0.0
C43 C 0.53668 0.52888 0.53657 0.0
C44 C 0.53352 0.51454 0.51952 0.0
C45 C 0.5065 0.50753 0.51289 0.0
C46 C 0.48196 0.51485 0.52306 0.0
C47 C 0.48524 0.52915 0.54014 0.0
C48 C 0.51227 0.53599 0.54682 0.0
C49 C 0.58918 0.62423 0.51931 0.0
C50 C 0.65038 0.59713 0.56204 0.0
C51 C 0.68609 0.64484 0.50325 0.0
C52 C 0.69836 0.65362 0.48546 0.0
C53 C 0.68503 0.64682 0.46863 0.0
C54 C 0.69487 0.65873 0.45203 0.0
C55 C 0.71817 0.67751 0.45209 0.0
C56 C 0.73245 0.68279 0.46886 0.0
C57 C 0.72253 0.67096 0.48544 0.0
C58 C 0.67008 0.54991 0.52661 0.0
C59 C 0.62299 0.5642 0.48589 0.0
O60 O 0.568 0.56423 0.54802 0.0
O61 O 0.58722 0.52746 0.53471 0.0
O62 O 0.61045 0.61888 0.52951 0.0
O63 O 0.57795 0.60063 0.51361 0.0
O64 O 0.63372 0.57518 0.55779 0.0
O65 O 0.65704 0.61562 0.54901 0.0
O66 O 0.65848 0.6469 0.50477 0.0
O67 O 0.69633 0.62183 0.51085 0.0
O68 O 0.64802 0.5571 0.5181 0.0
O69 O 0.68542 0.57219 0.53039 0.0
O70 O 0.63921 0.58685 0.48902 0.0
O71 O 0.60895 0.55242 0.49996 0.0
H72 H 0.55189 0.50881 0.51122 0.0
H73 H 0.50491 0.49612 0.49985 0.0
H74 H 0.46688 0.5355 0.54825 0.0
H75 H 0.5141 0.54718 0.55994 0.0
H76 H 0.66636 0.63331 0.46843 0.0
H77 H 0.68332 0.65442 0.43935 0.0
H78 H 0.75076 0.69677 0.46925 0.0
H79 H 0.73312 0.6762 0.49835 0.0
Sm80 Sm 0.18277 0.85773 0.78103 0.0
Sm81 Sm 0.14948 0.90536 0.76839 0.0
C82 C 0.21436 0.81583 0.79444 0.0
C83 C 0.22299 0.7874 0.7875 0.0
C84 C 0.23645 0.78407 0.77014 0.0
C85 C 0.24358 0.75694 0.76355 0.0
C86 C 0.23723 0.73245 0.77409 0.0
C87 C 0.22372 0.73591 0.79146 0.0
C88 C 0.21677 0.76306 0.79809 0.0
C89 C 0.12916 0.84091 0.76925 0.0
C90 C 0.15606 0.90289 0.81251 0.0
C91 C 0.11054 0.93839 0.75316 0.0
C92 C 0.1009 0.94778 0.7349 0.0
C93 C 0.10752 0.93217 0.71883 0.0
C94 C 0.09535 0.93954 0.70185 0.0
C95 C 0.07645 0.96262 0.70076 0.0
C96 C 0.07104 0.97897 0.71676 0.0
C97 C 0.08315 0.97154 0.73372 0.0
C98 C 0.20427 0.92124 0.77768 0.0
C99 C 0.19013 0.87388 0.73673 0.0
O100 O 0.18751 0.81892 0.79854 0.0
O101 O 0.22497 0.83807 0.78596 0.0
O102 O 0.13438 0.86227 0.77954 0.0
O103 O 0.15275 0.82939 0.76388 0.0
O104 O 0.17708 0.88488 0.80867 0.0
O105 O 0.13869 0.91058 0.79919 0.0
O106 O 0.10647 0.91148 0.75698 0.0
O107 O 0.13513 0.94792 0.75872 0.0
O108 O 0.19697 0.89918 0.76905 0.0
O109 O 0.18215 0.93684 0.78129 0.0
O110 O 0.16751 0.89011 0.7396 0.0
O111 O 0.20145 0.85998 0.75092 0.0
H112 H 0.24141 0.80239 0.76156 0.0
H113 H 0.25434 0.75523 0.75026 0.0
H114 H 0.21808 0.71761 0.79986 0.0
H115 H 0.20622 0.76503 0.81146 0.0
H116 H 0.12126 0.91374 0.71956 0.0
H117 H 0.09976 0.92643 0.68979 0.0
H118 H 0.05695 0.99715 0.71625 0.0
H119 H 0.078 0.98384 0.74604 0.0
Sm120 Sm 0.89671 0.43483 1.0297 0.0
Sm121 Sm 0.84961 0.40024 1.01796 0.0
C122 C 0.93793 0.46783 1.04283 0.0
C123 C 0.96635 0.4754 1.03571 0.0
C124 C 0.98336 0.49498 1.04528 0.0
C125 C 0.01024 0.50238 1.03835 0.0
C126 C 0.02061 0.49025 1.02173 0.0
C127 C 0.0034 0.47055 1.01224 0.0
C128 C 0.97653 0.46327 1.01913 0.0
C129 C 0.91397 0.38061 1.01881 0.0
C130 C 0.85338 0.4076 1.06168 0.0
C131 C 0.81698 0.36058 1.00309 0.0
C132 C 0.79981 0.35498 0.98658 0.0
C133 C 0.80885 0.36361 0.96883 0.0
C134 C 0.79361 0.35531 0.95314 0.0
C135 C 0.76907 0.3384 0.95499 0.0
C136 C 0.75929 0.33123 0.97289 0.0
C137 C 0.77462 0.33939 0.98855 0.0
C138 C 0.83281 0.45526 1.02636 0.0
C139 C 0.87956 0.44135 0.98553 0.0
O140 O 0.93439 0.44132 1.04777 0.0
O141 O 0.91656 0.47751 1.03324 0.0
O142 O 0.89269 0.38608 1.02911 0.0
O143 O 0.92523 0.40415 1.013 0.0
O144 O 0.86902 0.4302 1.05719 0.0
O145 O 0.84787 0.38855 1.04881 0.0
O146 O 0.84457 0.36157 1.00075 0.0
O147 O 0.80738 0.3798 1.01464 0.0
O148 O 0.85505 0.44803 1.01793 0.0
O149 O 0.81733 0.43298 1.02993 0.0
O150 O 0.86253 0.41936 0.98888 0.0
O151 O 0.89459 0.45234 0.99934 0.0
H152 H 0.97585 0.50456 1.0581 0.0
H153 H 0.02303 0.51739 1.04611 0.0
H154 H 0.0105 0.46111 0.99928 0.0
H155 H 0.9636 0.44827 1.01145 0.0
H156 H 0.82817 0.3759 0.96706 0.0
H157 H 0.80183 0.36098 0.93954 0.0
H158 H 0.7402 0.31863 0.97476 0.0
H159 H 0.76724 0.33281 1.00219 0.0
Sm160 Sm 0.65058 0.9038 0.97217 0.0
Sm161 Sm 0.68558 0.85676 0.96025 0.0
C162 C 0.61047 0.93591 0.98702 0.0
C163 C 0.60372 0.95339 1.00334 0.0
C164 C 0.60859 0.94354 1.02147 0.0
C165 C 0.5986 0.95906 1.03671 0.0
C166 C 0.58374 0.98468 1.03404 0.0
C167 C 0.58045 0.99522 1.01589 0.0
C168 C 0.59027 0.97963 1.00067 0.0
C169 C 0.70537 0.92123 0.96364 0.0
C170 C 0.69185 0.87447 1.00441 0.0
C171 C 0.7186 0.81541 0.94723 0.0
C172 C 0.72616 0.7871 0.95452 0.0
C173 C 0.74571 0.76989 0.94503 0.0
C174 C 0.75306 0.74311 0.95211 0.0
C175 C 0.74088 0.73303 0.96881 0.0
C176 C 0.72121 0.75042 0.97822 0.0
C177 C 0.714 0.77719 0.97118 0.0
C178 C 0.63176 0.83912 0.97157 0.0
C179 C 0.65818 0.89981 0.92835 0.0
O180 O 0.61189 0.90831 0.98943 0.0
O181 O 0.62966 0.94583 0.97554 0.0
O182 O 0.69827 0.89883 0.97196 0.0
O183 O 0.68308 0.9366 0.96031 0.0
O184 O 0.66974 0.89121 1.00116 0.0
O185 O 0.70301 0.85953 0.99054 0.0
O186 O 0.69216 0.81869 0.94232 0.0
O187 O 0.72821 0.83712 0.95666 0.0
O188 O 0.63697 0.86028 0.96109 0.0
O189 O 0.65535 0.82821 0.97729 0.0
O190 O 0.68072 0.88423 0.93274 0.0
O191 O 0.63917 0.90531 0.94129 0.0
H192 H 0.61914 0.92341 1.02385 0.0
H193 H 0.60128 0.95024 1.05051 0.0
H194 H 0.56954 0.01513 1.01341 0.0
H195 H 0.58653 0.98762 0.98676 0.0
H196 H 0.75531 0.77717 0.93216 0.0
H197 H 0.76805 0.73017 0.94441 0.0
H198 H 0.71174 0.74355 0.99123 0.0
H199 H 0.69903 0.79026 0.9788 0.0
Sm200 Sm 0.35003 0.4003 0.72289 0.0
Sm201 Sm 0.39646 0.43587 0.71055 0.0
C202 C 0.31849 0.35967 0.73782 0.0
C203 C 0.30123 0.3528 0.75422 0.0
C204 C 0.31094 0.35838 0.77228 0.0
C205 C 0.29564 0.34839 0.78763 0.0
C206 C 0.27039 0.33282 0.78512 0.0
C207 C 0.25995 0.32883 0.76703 0.0
C208 C 0.27533 0.33866 0.75171 0.0
C209 C 0.33204 0.45507 0.71487 0.0
C210 C 0.37961 0.44202 0.75494 0.0
C211 C 0.43742 0.4693 0.69744 0.0
C212 C 0.46609 0.47755 0.70417 0.0
C213 C 0.47017 0.5038 0.71318 0.0
C214 C 0.49672 0.51118 0.72041 0.0
C215 C 0.52002 0.49261 0.71869 0.0
C216 C 0.51605 0.46658 0.70934 0.0
C217 C 0.48945 0.45915 0.70217 0.0
C218 C 0.41454 0.382 0.72141 0.0
C219 C 0.35306 0.40831 0.67899 0.0
O220 O 0.34602 0.36146 0.74007 0.0
O221 O 0.30835 0.37875 0.72644 0.0
O222 O 0.35468 0.44819 0.72281 0.0
O223 O 0.3167 0.43255 0.71182 0.0
O224 O 0.36336 0.41937 0.75188 0.0
O225 O 0.39378 0.45362 0.74087 0.0
O226 O 0.43384 0.44296 0.69206 0.0
O227 O 0.41577 0.47882 0.70698 0.0
O228 O 0.39319 0.38711 0.71123 0.0
O229 O 0.42557 0.40572 0.72704 0.0
O230 O 0.36863 0.43099 0.68334 0.0
O231 O 0.34783 0.38915 0.6919 0.0
H232 H 0.33081 0.3695 0.77453 0.0
H233 H 0.30436 0.35162 0.80138 0.0
H234 H 0.24032 0.31735 0.76468 0.0
H235 H 0.26744 0.3344 0.73784 0.0
H236 H 0.45268 0.51852 0.7149 0.0
H237 H 0.4988 0.53126 0.72769 0.0
H238 H 0.53356 0.45195 0.70744 0.0
H239 H 0.48721 0.43884 0.69518 0.0
Sm240 Sm 0.85304 0.10106 0.47233 0.0
Sm241 Sm 0.8186 0.14829 0.46031 0.0
C242 C 0.8928 0.06884 0.48721 0.0
C243 C 0.89961 0.05271 0.50402 0.0
C244 C 0.89378 0.0636 0.5218 0.0
C245 C 0.90389 0.04956 0.53753 0.0
C246 C 0.91982 0.02441 0.53568 0.0
C247 C 0.92401 0.01271 0.51788 0.0
C248 C 0.91405 0.02684 0.50218 0.0
C249 C 0.7982 0.0841 0.46392 0.0
C250 C 0.81181 0.13093 0.50458 0.0
C251 C 0.78587 0.18972 0.44742 0.0
C252 C 0.77746 0.21832 0.45438 0.0
C253 C 0.75142 0.22204 0.46371 0.0
C254 C 0.74388 0.2486 0.47102 0.0
C255 C 0.76208 0.27224 0.46908 0.0
C256 C 0.78791 0.26862 0.45945 0.0
C257 C 0.79549 0.24203 0.45218 0.0
C258 C 0.87238 0.16568 0.47146 0.0
C259 C 0.84569 0.10436 0.42846 0.0
O260 O 0.89241 0.09663 0.48864 0.0
O261 O 0.87272 0.05864 0.47664 0.0
O262 O 0.80541 0.10647 0.47221 0.0
O263 O 0.8204 0.06854 0.46051 0.0
O264 O 0.83384 0.11404 0.50132 0.0
O265 O 0.80087 0.14585 0.49069 0.0
O266 O 0.81233 0.18631 0.44235 0.0
O267 O 0.77597 0.16775 0.45653 0.0
O268 O 0.86714 0.1444 0.4611 0.0
O269 O 0.8488 0.17693 0.47711 0.0
O270 O 0.82371 0.12092 0.43273 0.0
O271 O 0.86426 0.09824 0.44144 0.0
H272 H 0.88242 0.08347 0.52351 0.0
H273 H 0.90049 0.05922 0.55104 0.0
H274 H 0.93576 0.99311 0.51606 0.0
H275 H 0.9185 0.01806 0.48853 0.0
H276 H 0.73697 0.20428 0.46558 0.0
H277 H 0.72396 0.25044 0.4785 0.0
H278 H 0.80223 0.28641 0.45738 0.0
H279 H 0.8156 0.24006 0.44493 0.0
Sm280 Sm 0.15103 0.60471 0.22331 0.0
Sm281 Sm 0.1042 0.56982 0.21122 0.0
C282 C 0.1828 0.64499 0.23826 0.0
C283 C 0.19825 0.65182 0.25529 0.0
C284 C 0.18769 0.64387 0.27281 0.0
C285 C 0.2009 0.65372 0.28891 0.0
C286 C 0.2249 0.67153 0.28768 0.0
C287 C 0.23633 0.67794 0.27007 0.0
C288 C 0.22302 0.66821 0.254 0.0
C289 C 0.16837 0.54974 0.2151 0.0
C290 C 0.12104 0.56326 0.25544 0.0
C291 C 0.06286 0.53723 0.19798 0.0
C292 C 0.03422 0.52903 0.20476 0.0
C293 C 0.03027 0.51623 0.22226 0.0
C294 C 0.00297 0.50952 0.2287 0.0
C295 C 0.97891 0.51562 0.21787 0.0
C296 C 0.98298 0.52845 0.20034 0.0
C297 C 0.01031 0.53499 0.19386 0.0
C298 C 0.08679 0.62396 0.22209 0.0
C299 C 0.14811 0.59685 0.17948 0.0
O300 O 0.15505 0.64452 0.23945 0.0
O301 O 0.19323 0.62473 0.22785 0.0
O302 O 0.14581 0.55687 0.2232 0.0
O303 O 0.18386 0.57212 0.21183 0.0
O304 O 0.13729 0.5859 0.25231 0.0
O305 O 0.10678 0.55176 0.24145 0.0
O306 O 0.06623 0.56386 0.19325 0.0
O307 O 0.08464 0.5272 0.20703 0.0
O308 O 0.1081 0.6185 0.21181 0.0
O309 O 0.07558 0.60039 0.22795 0.0
O310 O 0.13206 0.57449 0.18385 0.0
O311 O 0.15382 0.61581 0.19238 0.0
H312 H 0.16866 0.63101 0.27405 0.0
H313 H 0.19146 0.64859 0.30226 0.0
H314 H 0.25507 0.69119 0.26871 0.0
H315 H 0.23154 0.6743 0.24054 0.0
H316 H 0.04824 0.51147 0.23107 0.0
H317 H 0.00078 0.49926 0.24212 0.0
H318 H 0.96502 0.53386 0.19171 0.0
H319 H 0.01275 0.54502 0.18038 0.0
Sm320 Sm 0.81766 0.64758 0.78035 0.0
Sm321 Sm 0.85172 0.60028 0.76834 0.0
C322 C 0.78546 0.68925 0.79367 0.0
C323 C 0.77708 0.71772 0.78672 0.0
C324 C 0.76301 0.72099 0.76964 0.0
C325 C 0.75617 0.74812 0.763 0.0
C326 C 0.76338 0.77268 0.77318 0.0
C327 C 0.77744 0.7693 0.79029 0.0
C328 C 0.78411 0.74215 0.79698 0.0
C329 C 0.87159 0.66482 0.76902 0.0
C330 C 0.84501 0.60435 0.81215 0.0
C331 C 0.89075 0.56724 0.75315 0.0
C332 C 0.89594 0.54975 0.73662 0.0
C333 C 0.88808 0.55905 0.71884 0.0
C334 C 0.89603 0.54339 0.70317 0.0
C335 C 0.9118 0.51816 0.70508 0.0
C336 C 0.91816 0.50816 0.723 0.0
C337 C 0.91036 0.52391 0.73864 0.0
C338 C 0.79678 0.58365 0.77704 0.0
C339 C 0.81076 0.63035 0.73618 0.0
O340 O 0.81214 0.68614 0.79806 0.0
O341 O 0.77523 0.66705 0.785 0.0
O342 O 0.86624 0.64355 0.77938 0.0
O343 O 0.84808 0.67598 0.76334 0.0
O344 O 0.82258 0.62016 0.80786 0.0
O345 O 0.86374 0.5986 0.7991 0.0
O346 O 0.88998 0.59487 0.75077 0.0
O347 O 0.87172 0.55783 0.76492 0.0
O348 O 0.8041 0.60584 0.76856 0.0
O349 O 0.81891 0.56812 0.78053 0.0
O350 O 0.83261 0.61326 0.7394 0.0
O351 O 0.79992 0.64545 0.75009 0.0
H352 H 0.75736 0.70262 0.76133 0.0
H353 H 0.74495 0.74979 0.74993 0.0
H354 H 0.78371 0.78766 0.79841 0.0
H355 H 0.7951 0.74025 0.81013 0.0
H356 H 0.87668 0.57886 0.71701 0.0
H357 H 0.89102 0.5518 0.68955 0.0
H358 H 0.92986 0.48856 0.72492 0.0
H359 H 0.91632 0.51632 0.75231 0.0
Sm360 Sm 0.10535 0.06798 1.03181 0.0
Sm361 Sm 0.15233 0.10253 1.01896 0.0
C362 C 0.06385 0.03525 1.04497 0.0
C363 C 0.03534 0.02686 1.038 0.0
C364 C 0.03179 1.00152 1.02785 0.0
C365 C 0.00531 0.9942 1.02048 0.0
C366 C 0.98158 0.01193 1.02316 0.0
C367 C 0.98502 0.03701 1.03364 0.0
C368 C 0.01153 0.04436 1.04098 0.0
C369 C 0.08781 0.12165 1.02022 0.0
C370 C 0.15 0.09507 1.0631 0.0
C371 C 0.18458 0.14239 1.00359 0.0
C372 C 0.19257 0.15273 0.98514 0.0
C373 C 0.17637 0.14567 0.96949 0.0
C374 C 0.18251 0.15811 0.95232 0.0
C375 C 0.20493 0.17777 0.95061 0.0
C376 C 0.22181 0.18381 0.96621 0.0
C377 C 0.21561 0.17139 0.98337 0.0
C378 C 0.16912 0.04772 1.02793 0.0
C379 C 0.12127 0.06166 0.98745 0.0
O380 O 0.06735 0.06181 1.04989 0.0
O381 O 0.08582 0.02526 1.03595 0.0
O382 O 0.10921 0.11661 1.03037 0.0
O383 O 0.07647 0.09787 1.01496 0.0
O384 O 0.13268 0.07348 1.0592 0.0
O385 O 0.15729 0.11296 1.04985 0.0
O386 O 0.15807 0.14633 1.00836 0.0
O387 O 0.19426 0.11746 1.00839 0.0
O388 O 0.14687 0.05476 1.01957 0.0
O389 O 0.18443 0.07016 1.03138 0.0
O390 O 0.1365 0.08506 0.9902 0.0
O391 O 0.10829 0.04945 1.00177 0.0
H392 H 0.04961 0.98745 1.02535 0.0
H393 H 0.0036 0.97487 1.01234 0.0
H394 H 0.96716 0.05094 1.03629 0.0
H395 H 0.01336 0.0639 1.04889 0.0
H396 H 0.15845 0.13128 0.97069 0.0
H397 H 0.16901 0.15323 0.94059 0.0
H398 H 0.2395 0.1985 0.96521 0.0
H399 H 0.22835 0.17691 0.99535 0.0
Sm400 Sm 0.68008 0.35949 0.2788 0.0
Sm401 Sm 0.64586 0.40624 0.26462 0.0
C402 C 0.71234 0.31827 0.29246 0.0
C403 C 0.72109 0.28958 0.28576 0.0
C404 C 0.74734 0.28584 0.2767 0.0
C405 C 0.75525 0.25918 0.26968 0.0
C406 C 0.7372 0.23542 0.27165 0.0
C407 C 0.71113 0.23907 0.281 0.0
C408 C 0.70319 0.26577 0.28797 0.0
C409 C 0.62739 0.34117 0.26596 0.0
C410 C 0.65411 0.40744 0.30919 0.0
C411 C 0.60588 0.43655 0.24809 0.0
C412 C 0.58893 0.43455 0.23113 0.0
C413 C 0.58943 0.40981 0.2202 0.0
C414 C 0.57243 0.40783 0.20437 0.0
C415 C 0.5547 0.43057 0.19928 0.0
C416 C 0.55452 0.45537 0.21028 0.0
C417 C 0.57148 0.4573 0.22609 0.0
C418 C 0.69976 0.42397 0.27453 0.0
C419 C 0.68772 0.37372 0.23438 0.0
O420 O 0.68569 0.3217 0.29708 0.0
O421 O 0.72257 0.34018 0.28344 0.0
O422 O 0.63174 0.363 0.27595 0.0
O423 O 0.65144 0.32967 0.26159 0.0
O424 O 0.67335 0.38718 0.30611 0.0
O425 O 0.63817 0.41654 0.29541 0.0
O426 O 0.6006 0.41715 0.26066 0.0
O427 O 0.63298 0.44147 0.24584 0.0
O428 O 0.69333 0.40109 0.26651 0.0
O429 O 0.67724 0.43966 0.27669 0.0
O430 O 0.66354 0.38781 0.23652 0.0
O431 O 0.69997 0.36222 0.24911 0.0
H432 H 0.76172 0.30366 0.27481 0.0
H433 H 0.77534 0.25735 0.26241 0.0
H434 H 0.69688 0.22122 0.28309 0.0
H435 H 0.68291 0.26772 0.29502 0.0
H436 H 0.60277 0.39199 0.22401 0.0
H437 H 0.57289 0.38839 0.19627 0.0
H438 H 0.54151 0.47345 0.20654 0.0
H439 H 0.57093 0.47654 0.2344 0.0
Sm440 Sm 0.39664 0.93662 0.53114 0.0
Sm441 Sm 0.35005 0.90141 0.51911 0.0
C442 C 0.43771 0.97 0.54395 0.0
C443 C 0.46642 0.97819 0.53706 0.0
C444 C 0.47056 0.00438 0.52798 0.0
C445 C 0.49719 0.01174 0.52068 0.0
C446 C 0.52048 0.9932 0.5224 0.0
C447 C 0.51643 0.96721 0.5318 0.0
C448 C 0.48977 0.9598 0.53904 0.0
C449 C 0.41468 0.88276 0.52014 0.0
C450 C 0.35293 0.90929 0.56301 0.0
C451 C 0.31823 0.86085 0.50444 0.0
C452 C 0.30571 0.85208 0.48678 0.0
C453 C 0.31854 0.85929 0.46978 0.0
C454 C 0.30854 0.84741 0.45327 0.0
C455 C 0.28555 0.82824 0.45359 0.0
C456 C 0.27176 0.8225 0.47056 0.0
C457 C 0.28185 0.8343 0.48705 0.0
C458 C 0.33272 0.95625 0.52766 0.0
C459 C 0.37997 0.94249 0.48688 0.0
O460 O 0.43408 0.94368 0.54935 0.0
O461 O 0.41608 0.97954 0.53454 0.0
O462 O 0.39326 0.8879 0.53038 0.0
O463 O 0.42578 0.90647 0.51449 0.0
O464 O 0.36911 0.93159 0.55868 0.0
O465 O 0.34684 0.89056 0.55004 0.0
O466 O 0.34592 0.85952 0.50545 0.0
O467 O 0.30757 0.8834 0.51245 0.0
O468 O 0.35495 0.94923 0.51916 0.0
O469 O 0.31756 0.93379 0.53138 0.0
O470 O 0.36415 0.91955 0.49002 0.0
O471 O 0.39379 0.95442 0.5009 0.0
H472 H 0.45308 0.01908 0.52627 0.0
H473 H 0.49934 0.03178 0.51337 0.0
H474 H 0.53394 0.95261 0.5337 0.0
H475 H 0.48747 0.93955 0.54609 0.0
H476 H 0.33697 0.87312 0.46936 0.0
H477 H 0.31971 0.85208 0.44043 0.0
H478 H 0.2537 0.80821 0.47117 0.0
H479 H 0.27164 0.82872 0.5001 0.0
Sm480 Sm 0.15044 0.40586 0.47431 0.0
Sm481 Sm 0.18406 0.35799 0.46117 0.0
C482 C 0.11119 0.43909 0.4893 0.0
C483 C 0.09838 0.44574 0.50729 0.0
C484 C 0.10343 0.4286 0.52288 0.0
C485 C 0.08861 0.43354 0.53942 0.0
C486 C 0.06854 0.45562 0.54051 0.0
C487 C 0.0645 0.47341 0.52503 0.0
C488 C 0.07931 0.46845 0.50853 0.0
C489 C 0.20501 0.42188 0.46443 0.0
C490 C 0.19092 0.37419 0.50556 0.0
C491 C 0.21607 0.31599 0.44803 0.0
C492 C 0.22457 0.28747 0.45508 0.0
C493 C 0.24989 0.28409 0.46513 0.0
C494 C 0.25744 0.25752 0.47238 0.0
C495 C 0.23996 0.23353 0.4697 0.0
C496 C 0.21486 0.23682 0.45938 0.0
C497 C 0.2073 0.26341 0.45214 0.0
C498 C 0.13041 0.34128 0.47333 0.0
C499 C 0.15784 0.40387 0.42995 0.0
O500 O 0.10598 0.4136 0.48285 0.0
O501 O 0.13742 0.44721 0.4867 0.0
O502 O 0.1979 0.3996 0.47294 0.0
O503 O 0.18284 0.43759 0.46133 0.0
O504 O 0.16777 0.3897 0.50295 0.0
O505 O 0.20269 0.36089 0.49119 0.0
O506 O 0.18945 0.31941 0.44352 0.0
O507 O 0.22642 0.33817 0.45665 0.0
O508 O 0.13573 0.3627 0.46311 0.0
O509 O 0.15397 0.32952 0.47838 0.0
O510 O 0.17825 0.38505 0.43349 0.0
O511 O 0.14094 0.41225 0.44348 0.0
H512 H 0.11813 0.41093 0.52206 0.0
H513 H 0.09201 0.4194 0.5511 0.0
H514 H 0.04953 0.49087 0.52559 0.0
H515 H 0.07531 0.48188 0.49657 0.0
H516 H 0.2638 0.30209 0.46759 0.0
H517 H 0.27677 0.25592 0.4804 0.0
H518 H 0.20112 0.21877 0.45674 0.0
H519 H 0.18779 0.26511 0.4443 0.0
Sm520 Sm 0.84934 0.90294 0.22178 0.0
Sm521 Sm 0.89628 0.93762 0.2096 0.0
C522 C 0.81687 0.86307 0.23675 0.0
C523 C 0.8014 0.85639 0.25389 0.0
C524 C 0.81221 0.86404 0.27134 0.0
C525 C 0.79899 0.85424 0.28752 0.0
C526 C 0.77474 0.83679 0.28645 0.0
C527 C 0.76304 0.83074 0.26894 0.0
C528 C 0.77636 0.84041 0.25278 0.0
C529 C 0.83234 0.95801 0.21358 0.0
C530 C 0.87932 0.94401 0.2539 0.0
C531 C 0.93777 0.97053 0.19663 0.0
C532 C 0.96625 0.97886 0.20367 0.0
C533 C 0.96989 0.00461 0.21336 0.0
C534 C 0.99629 0.01192 0.22086 0.0
C535 C 0.01983 0.99377 0.21876 0.0
C536 C 0.01631 0.96828 0.20873 0.0
C537 C 0.98989 0.96093 0.20127 0.0
C538 C 0.91363 0.8836 0.22064 0.0
C539 C 0.85289 0.91029 0.17791 0.0
O540 O 0.84462 0.86299 0.2377 0.0
O541 O 0.80679 0.88365 0.22654 0.0
O542 O 0.85467 0.95078 0.22176 0.0
O543 O 0.81698 0.93568 0.21003 0.0
O544 O 0.86301 0.92143 0.25081 0.0
O545 O 0.89357 0.95555 0.23984 0.0
O546 O 0.93429 0.94405 0.19156 0.0
O547 O 0.91581 0.9804 0.20571 0.0
O548 O 0.89243 0.88891 0.21036 0.0
O549 O 0.92482 0.90723 0.22631 0.0
O550 O 0.86885 0.93272 0.1822 0.0
O551 O 0.84702 0.89148 0.19091 0.0
H552 H 0.83145 0.87659 0.27244 0.0
H553 H 0.80865 0.85908 0.3008 0.0
H554 H 0.7441 0.81776 0.26771 0.0
H555 H 0.76764 0.83457 0.23938 0.0
H556 H 0.95219 0.01899 0.2154 0.0
H557 H 0.99805 0.03158 0.22864 0.0
H558 H 0.03405 0.95402 0.20652 0.0
H559 H 0.98798 0.94105 0.19374 0.0
Sm560 Sm 0.35477 0.59717 0.97465 0.0
Sm561 Sm 0.32162 0.64507 0.96224 0.0
C562 C 0.39264 0.56375 0.99064 0.0
C563 C 0.39649 0.5449 1.00682 0.0
C564 C 0.39618 0.55549 1.02509 0.0
C565 C 0.40267 0.53764 1.04 0.0
C566 C 0.40951 0.50885 1.03695 0.0
C567 C 0.40862 0.49809 1.01872 0.0
C568 C 0.40231 0.51597 1.00381 0.0
C569 C 0.29979 0.58116 0.96584 0.0
C570 C 0.3132 0.62817 1.00637 0.0
C571 C 0.29032 0.68729 0.94889 0.0
C572 C 0.28145 0.71563 0.95591 0.0
C573 C 0.26769 0.71874 0.9732 0.0
C574 C 0.26012 0.74576 0.97979 0.0
C575 C 0.26629 0.7704 0.96934 0.0
C576 C 0.28014 0.76716 0.95206 0.0
C577 C 0.28754 0.74011 0.94542 0.0
C578 C 0.37551 0.66133 0.97384 0.0
C579 C 0.34875 0.60073 0.93067 0.0
O580 O 0.39127 0.59124 0.99362 0.0
O581 O 0.37523 0.55496 0.97776 0.0
O582 O 0.30721 0.60351 0.97407 0.0
O583 O 0.32176 0.56514 0.96283 0.0
O584 O 0.33481 0.61066 1.00334 0.0
O585 O 0.30299 0.64335 0.99238 0.0
O586 O 0.31725 0.68427 0.94501 0.0
O587 O 0.27955 0.6649 0.95711 0.0
O588 O 0.37009 0.64013 0.96345 0.0
O589 O 0.35203 0.67282 0.97946 0.0
O590 O 0.32701 0.6177 0.93472 0.0
O591 O 0.36691 0.59424 0.94384 0.0
H592 H 0.39172 0.57772 1.02784 0.0
H593 H 0.4035 0.54674 1.05383 0.0
H594 H 0.41335 0.47594 1.01591 0.0
H595 H 0.40264 0.50731 0.98984 0.0
H596 H 0.2628 0.70032 0.9817 0.0
H597 H 0.24912 0.74727 0.99301 0.0
H598 H 0.28568 0.78556 0.94372 0.0
H599 H 0.2983 0.73834 0.93212 0.0
Sm600 Sm 0.65315 0.10452 0.72325 0.0
Sm601 Sm 0.60595 0.06933 0.71083 0.0
C602 C 0.68474 0.14535 0.73787 0.0
C603 C 0.69348 0.15661 0.75589 0.0
C604 C 0.6783 0.14994 0.77213 0.0
C605 C 0.68468 0.16381 0.78878 0.0
C606 C 0.70631 0.18449 0.78932 0.0
C607 C 0.72234 0.18997 0.77317 0.0
C608 C 0.71591 0.17615 0.75656 0.0
C609 C 0.67015 0.04994 0.71411 0.0
C610 C 0.62272 0.06315 0.75512 0.0
C611 C 0.56468 0.0362 0.69804 0.0
C612 C 0.53603 0.02791 0.70499 0.0
C613 C 0.53196 1.00159 0.71393 0.0
C614 C 0.50538 0.9941 0.72125 0.0
C615 C 0.48206 0.01264 0.71971 0.0
C616 C 0.48604 0.03877 0.71047 0.0
C617 C 0.51265 0.04631 0.70319 0.0
C618 C 0.58854 0.12317 0.72222 0.0
C619 C 0.65068 0.09619 0.67911 0.0
O620 O 0.65789 0.14839 0.73383 0.0
O621 O 0.69498 0.12063 0.73298 0.0
O622 O 0.64779 0.05681 0.72256 0.0
O623 O 0.68556 0.0724 0.71078 0.0
O624 O 0.63845 0.08622 0.75216 0.0
O625 O 0.60895 0.05135 0.74102 0.0
O626 O 0.56827 0.0626 0.69278 0.0
O627 O 0.58641 0.02649 0.70728 0.0
O628 O 0.60992 0.1179 0.71196 0.0
O629 O 0.57706 0.09951 0.72764 0.0
O630 O 0.63331 0.07466 0.68322 0.0
O631 O 0.65796 0.11428 0.69223 0.0
H632 H 0.66088 0.13486 0.77178 0.0
H633 H 0.67187 0.15928 0.80098 0.0
H634 H 0.73944 0.20543 0.77328 0.0
H635 H 0.72785 0.18139 0.74409 0.0
H636 H 0.54946 0.98687 0.71549 0.0
H637 H 0.50329 0.97394 0.72843 0.0
H638 H 0.46851 0.05338 0.7087 0.0
H639 H 0.51489 0.06666 0.69627 0.0
C640 C 0.40035 0.20473 0.25626 0.0
C641 C 0.39884 0.1794 0.26672 0.0
C642 C 0.42489 0.22184 0.25621 0.0
C643 C 0.5027 0.22228 0.26758 0.0
H644 H 0.49317 0.30419 0.2654 0.0
C645 C 0.5993 0.29809 0.25593 0.0
C646 C 0.60008 0.32452 0.2652 0.0
C647 C 0.57484 0.28085 0.25625 0.0
C648 C 0.4964 0.28141 0.26616 0.0
H649 H 0.42275 0.15211 0.28512 0.0
H650 H 0.46568 0.1819 0.28509 0.0
H651 H 0.45157 0.27326 0.26611 0.0
H652 H 0.57501 0.35359 0.28184 0.0
H653 H 0.53226 0.32361 0.28244 0.0
H654 H 0.54754 0.23046 0.26795 0.0
C655 C 0.44779 0.18853 0.27677 0.0
C656 C 0.47235 0.26348 0.26633 0.0
C657 C 0.42308 0.17135 0.27683 0.0
C658 C 0.57525 0.33347 0.27448 0.0
C659 C 0.55064 0.31618 0.27478 0.0
C660 C 0.52676 0.24021 0.26735 0.0
C661 C 0.44902 0.21434 0.26664 0.0
C662 C 0.47499 0.23353 0.26694 0.0
C663 C 0.55009 0.28933 0.26585 0.0
C664 C 0.52412 0.27015 0.26653 0.0
H665 H 0.38227 0.21167 0.24821 0.0
H666 H 0.42489 0.24102 0.24787 0.0
H667 H 0.50593 0.19948 0.26793 0.0
H668 H 0.61787 0.29041 0.24855 0.0
H669 H 0.57539 0.2608 0.24883 0.0
C670 C 0.58161 0.67608 0.52897 0.0
C671 C 0.57294 0.65183 0.51893 0.0
C672 C 0.56476 0.70099 0.52934 0.0
C673 C 0.48998 0.72643 0.52046 0.0
H674 H 0.52419 0.80143 0.52108 0.0
C675 C 0.4222 0.83078 0.5294 0.0
C676 C 0.43106 0.85525 0.51963 0.0
C677 C 0.43909 0.80591 0.52962 0.0
C678 C 0.5141 0.78071 0.52078 0.0
H679 H 0.53976 0.63542 0.50109 0.0
H680 H 0.51092 0.67834 0.50155 0.0
H681 H 0.55439 0.75932 0.52059 0.0
H682 H 0.46466 0.87211 0.5021 0.0
H683 H 0.49359 0.82924 0.50229 0.0
H684 H 0.4497 0.74782 0.52033 0.0
C685 C 0.5304 0.67822 0.50947 0.0
C686 C 0.53159 0.75636 0.52073 0.0
C687 C 0.54721 0.6535 0.50906 0.0
C688 C 0.45705 0.85385 0.50987 0.0
C689 C 0.4739 0.82916 0.51013 0.0
C690 C 0.47249 0.75078 0.5206 0.0
C691 C 0.53862 0.70241 0.51976 0.0
C692 C 0.5199 0.7287 0.52042 0.0
C693 C 0.46546 0.80473 0.52014 0.0
C694 C 0.48418 0.77844 0.5206 0.0
H695 H 0.60118 0.67566 0.5368 0.0
H696 H 0.57195 0.71891 0.53754 0.0
H697 H 0.47988 0.7057 0.52051 0.0
H698 H 0.40242 0.831 0.53715 0.0
H699 H 0.43172 0.7878 0.53762 0.0
C700 C 0.10004 0.79883 0.75875 0.0
C701 C 0.10157 0.82467 0.76867 0.0
C702 C 0.07539 0.78188 0.75906 0.0
C703 C 0.99737 0.7827 0.77001 0.0
H704 H 0.00611 0.70063 0.76991 0.0
C705 C 0.90071 0.7071 0.75862 0.0
C706 C 0.89907 0.68127 0.76856 0.0
C707 C 0.92529 0.72414 0.75899 0.0
C708 C 0.0031 0.72347 0.77008 0.0
H709 H 0.07758 0.85301 0.78649 0.0
H710 H 0.03441 0.82353 0.78704 0.0
H711 H 0.04802 0.7312 0.77024 0.0
H712 H 0.92278 0.65312 0.7865 0.0
H713 H 0.96581 0.68275 0.78714 0.0
H714 H 0.95243 0.77497 0.77008 0.0
C715 C 0.0524 0.81636 0.77889 0.0
C716 C 0.02733 0.74117 0.77004 0.0
C717 C 0.07725 0.83335 0.77862 0.0
C718 C 0.9232 0.67275 0.77861 0.0
C719 C 0.94797 0.68983 0.77893 0.0
C720 C 0.97313 0.765 0.76995 0.0
C721 C 0.05114 0.79007 0.76929 0.0
C722 C 0.02498 0.77116 0.76989 0.0
C723 C 0.94936 0.71606 0.76928 0.0
C724 C 0.97549 0.73501 0.76988 0.0
H725 H 0.11818 0.79137 0.75083 0.0
H726 H 0.07538 0.76228 0.75113 0.0
H727 H 0.99437 0.80554 0.76978 0.0
H728 H 0.88271 0.71444 0.75064 0.0
H729 H 0.9254 0.7437 0.75103 0.0
C730 C 0.04568 0.15062 1.0099 0.0
C731 C 0.0716 0.14925 1.01956 0.0
C732 C 0.02893 0.17538 1.01008 0.0
C733 C 0.03051 0.2539 1.02017 0.0
H734 H 0.94859 0.24556 1.02051 0.0
C735 C 0.95604 0.35125 1.00857 0.0
C736 C 0.93022 0.35302 1.0185 0.0
C737 C 0.97282 0.32652 1.00902 0.0
C738 C 0.97139 0.24847 1.02056 0.0
H739 H 0.10025 0.17365 1.03682 0.0
H740 H 0.07112 0.21696 1.03717 0.0
H741 H 0.97867 0.20338 1.02106 0.0
H742 H 0.9018 0.32938 1.03652 0.0
H743 H 0.93099 0.28612 1.03734 0.0
H744 H 0.02323 0.299 1.01994 0.0
C745 C 0.06372 0.19877 1.0293 0.0
C746 C 0.98882 0.22407 1.02064 0.0
C747 C 0.08052 0.17383 1.02915 0.0
C748 C 0.92144 0.32887 1.02864 0.0
C749 C 0.93827 0.30396 1.02905 0.0
C750 C 0.01308 0.27829 1.02001 0.0
C751 C 0.0374 0.19992 1.01992 0.0
C752 C 0.01875 0.22626 1.02034 0.0
C753 C 0.96449 0.30242 1.0194 0.0
C754 C 0.98315 0.2761 1.02009 0.0
H755 H 0.03803 0.13227 1.00226 0.0
H756 H 0.00928 0.17526 1.00232 0.0
H757 H 0.05331 0.2568 1.01981 0.0
H758 H 0.96358 0.36926 1.00052 0.0
H759 H 0.99238 0.32631 1.00105 0.0
C760 C 0.58007 0.83083 0.9623 0.0
C761 C 0.60441 0.82249 0.9722 0.0
C762 C 0.5554 0.81359 0.96219 0.0
C763 C 0.53094 0.7383 0.97138 0.0
H764 H 0.45579 0.77154 0.97199 0.0
C765 C 0.42707 0.66928 0.96382 0.0
C766 C 0.40303 0.6777 0.97415 0.0
C767 C 0.45178 0.68645 0.96326 0.0
C768 C 0.47657 0.76173 0.97194 0.0
H769 H 0.62128 0.78949 0.99005 0.0
H770 H 0.57878 0.75996 0.99 0.0
H771 H 0.49751 0.80243 0.97186 0.0
H772 H 0.38678 0.71072 0.99236 0.0
H773 H 0.42936 0.74012 0.99155 0.0
H774 H 0.51001 0.6976 0.97176 0.0
C775 C 0.57864 0.77949 0.98201 0.0
C776 C 0.50067 0.77961 0.97163 0.0
C777 C 0.60311 0.7967 0.98218 0.0
C778 C 0.40471 0.70346 0.98416 0.0
C779 C 0.42922 0.72059 0.98355 0.0
C780 C 0.50684 0.72042 0.97159 0.0
C781 C 0.55436 0.78738 0.97188 0.0
C782 C 0.52836 0.76827 0.97152 0.0
C783 C 0.45317 0.71266 0.97294 0.0
C784 C 0.47916 0.73176 0.97204 0.0
H785 H 0.58023 0.85044 0.95439 0.0
H786 H 0.53737 0.82052 0.9541 0.0
H787 H 0.55171 0.72849 0.97102 0.0
H788 H 0.42662 0.6497 0.95587 0.0
H789 H 0.46956 0.67948 0.95483 0.0
C790 C 0.58131 0.17511 0.71279 0.0
C791 C 0.57236 0.1508 0.7227 0.0
C792 C 0.5645 0.20003 0.71244 0.0
C793 C 0.48955 0.22553 0.72113 0.0
H794 H 0.52393 0.30048 0.7207 0.0
C795 C 0.42214 0.33001 0.71214 0.0
C796 C 0.43087 0.35447 0.72193 0.0
C797 C 0.43899 0.30511 0.71194 0.0
C798 C 0.51379 0.27977 0.72095 0.0
H799 H 0.53873 0.13429 0.74035 0.0
H800 H 0.50996 0.17727 0.73993 0.0
H801 H 0.55403 0.25831 0.72124 0.0
H802 H 0.46418 0.37129 0.73951 0.0
H803 H 0.49302 0.32837 0.73936 0.0
H804 H 0.44931 0.247 0.72118 0.0
C805 C 0.52964 0.17717 0.73209 0.0
C806 C 0.53123 0.25539 0.72102 0.0
C807 C 0.5464 0.15242 0.73247 0.0
C808 C 0.45668 0.35304 0.73172 0.0
C809 C 0.47349 0.32832 0.7315 0.0
C810 C 0.47211 0.24992 0.72099 0.0
C811 C 0.53814 0.20143 0.72192 0.0
C812 C 0.51948 0.22774 0.72126 0.0
C813 C 0.46519 0.30389 0.72147 0.0
C814 C 0.48386 0.27757 0.72104 0.0
H815 H 0.60106 0.17471 0.70503 0.0
H816 H 0.57192 0.218 0.70432 0.0
H817 H 0.47942 0.20483 0.72102 0.0
H818 H 0.4025 0.33025 0.70437 0.0
H819 H 0.43174 0.28701 0.70393 0.0
C820 C 0.10114 0.29889 0.48338 0.0
C821 C 0.10281 0.325 0.47377 0.0
C822 C 0.07649 0.28194 0.48285 0.0
C823 C 0.99861 0.28312 0.47177 0.0
H824 H 0.00715 0.20103 0.4712 0.0
C825 C 0.90143 0.20771 0.48216 0.0
C826 C 0.89993 0.18201 0.47208 0.0
C827 C 0.92609 0.22465 0.48201 0.0
C828 C 0.0042 0.22388 0.47121 0.0
H829 H 0.07908 0.35378 0.45627 0.0
H830 H 0.03596 0.32432 0.45534 0.0
H831 H 0.04915 0.2315 0.47127 0.0
H832 H 0.92398 0.15395 0.45411 0.0
H833 H 0.96716 0.18342 0.45382 0.0
H834 H 0.95367 0.27551 0.47145 0.0
C835 C 0.05381 0.31693 0.46342 0.0
C836 C 0.02848 0.24152 0.47149 0.0
C837 C 0.07864 0.33392 0.46391 0.0
C838 C 0.92428 0.17349 0.4621 0.0
C839 C 0.94914 0.19048 0.46198 0.0
C840 C 0.97434 0.26548 0.47158 0.0
C841 C 0.05239 0.29039 0.47271 0.0
C842 C 0.0262 0.27152 0.47189 0.0
C843 C 0.95039 0.2166 0.47178 0.0
C844 C 0.97661 0.23548 0.47141 0.0
H845 H 0.11916 0.29122 0.49121 0.0
H846 H 0.07636 0.26213 0.49055 0.0
H847 H 0.99565 0.30596 0.47218 0.0
H848 H 0.88327 0.21504 0.49011 0.0
H849 H 0.92608 0.24411 0.49008 0.0
C850 C 0.04462 0.65336 0.23219 0.0
C851 C 0.07056 0.65158 0.2224 0.0
C852 C 0.0279 0.67815 0.23172 0.0
C853 C 0.0297 0.75631 0.22045 0.0
H854 H 0.94774 0.74828 0.22069 0.0
C855 C 0.95559 0.85438 0.23102 0.0
C856 C 0.9298 0.85594 0.2212 0.0
C857 C 0.97226 0.82956 0.23083 0.0
C858 C 0.97056 0.7511 0.22047 0.0
H859 H 0.09925 0.67529 0.2046 0.0
H860 H 0.07019 0.71863 0.20376 0.0
H861 H 0.97768 0.70597 0.22063 0.0
H862 H 0.90133 0.83181 0.20366 0.0
H863 H 0.93032 0.78839 0.20332 0.0
H864 H 0.02258 0.80143 0.22004 0.0
C865 C 0.06275 0.70076 0.21195 0.0
C866 C 0.9879 0.72663 0.22067 0.0
C867 C 0.07951 0.67579 0.21238 0.0
C868 C 0.92095 0.83149 0.21145 0.0
C869 C 0.93767 0.80648 0.21131 0.0
C870 C 0.01236 0.78078 0.22034 0.0
C871 C 0.03642 0.70231 0.22147 0.0
C872 C 0.01785 0.72871 0.22077 0.0
C873 C 0.96385 0.80514 0.22085 0.0
C874 C 0.98241 0.77871 0.22045 0.0
H875 H 0.03694 0.63532 0.24015 0.0
H876 H 0.00824 0.67835 0.23958 0.0
H877 H 0.05251 0.75914 0.22063 0.0
H878 H 0.96318 0.87261 0.23878 0.0
H879 H 0.99179 0.82953 0.23871 0.0
C880 C 0.42973 0.05037 0.16408 0.0
C881 C 0.44349 0.04723 0.18125 0.0
C882 C 0.44488 0.04735 0.14747 0.0
C883 C 0.51758 0.04841 0.12806 0.0
H884 H 0.48469 0.00243 1.08887 0.0
C885 C 0.58232 1.00029 1.06743 0.0
C886 C 0.56932 0.99875 1.04991 0.0
C887 C 0.56721 0.01038 1.08282 0.0
C888 C 0.49398 0.01574 1.09954 0.0
H889 H 0.48395 0.03907 0.1945 0.0
H890 H 0.51022 0.03316 0.16552 0.0
H891 H 0.45735 0.01173 1.11701 0.0
H892 H 0.53061 0.00751 1.03468 0.0
H893 H 0.5046 0.02574 1.06141 0.0
H894 H 0.55446 0.05192 1.11067 0.0
C895 C 0.48782 0.03823 0.16489 0.0
C896 C 0.47832 0.02104 1.11566 0.0
C897 C 0.47269 0.04121 0.18148 0.0
C898 C 0.54137 0.00868 1.04793 0.0
C899 C 0.52631 0.01879 1.06329 0.0
C900 C 0.53327 0.0431 1.11192 0.0
C901 C 0.47407 0.04123 0.14772 0.0
C902 C 0.49007 0.03716 0.13017 0.0
C903 C 0.53883 0.01909 1.08096 0.0
C904 C 0.52171 0.02648 1.09758 0.0
H905 H 0.4072 0.05486 0.1635 0.0
H906 H 0.43378 0.04996 0.13442 0.0
H907 H 0.527 0.06127 0.13892 0.0
H908 H 0.60394 0.99307 1.06932 0.0
H909 H 0.57737 0.01022 1.0963 0.0
C910 C 0.7256 0.68041 0.41758 0.0
C911 C 0.72578 0.69361 0.43511 0.0
C912 C 0.73028 0.69642 0.4015 0.0
C913 C 0.75955 0.76454 0.38475 0.0
H914 H 0.70949 0.75184 0.34286 0.0
C915 C 0.76233 0.83695 0.32043 0.0
C916 C 0.76363 0.82252 0.30333 0.0
C917 C 0.75524 0.82228 0.33669 0.0
C918 C 0.72368 0.75551 0.35442 0.0
H919 H 0.7311 0.73384 0.44956 0.0
H920 H 0.73944 0.76165 0.42156 0.0
H921 H 0.70401 0.723 0.37088 0.0
H922 H 0.75788 0.78159 0.28979 0.0
H923 H 0.74533 0.75617 0.31807 0.0
H924 H 0.77936 0.79691 0.36826 0.0
C925 C 0.73607 0.73892 0.42024 0.0
C926 C 0.72065 0.73894 0.3704 0.0
C927 C 0.73138 0.72295 0.43628 0.0
C928 C 0.75658 0.79344 0.30269 0.0
C929 C 0.74945 0.77884 0.3189 0.0
C930 C 0.76258 0.78111 0.36878 0.0
C931 C 0.73521 0.72589 0.40268 0.0
C932 C 0.73864 0.74322 0.38568 0.0
C933 C 0.7493 0.79297 0.3361 0.0
C934 C 0.74476 0.77666 0.35344 0.0
H935 H 0.72163 0.65778 0.41629 0.0
H936 H 0.72994 0.68578 0.38813 0.0
H937 H 0.7739 0.76809 0.39625 0.0
H938 H 0.76731 0.85943 0.32128 0.0
H939 H 0.75485 0.83376 0.34975 0.0
C940 C 0.07466 0.96675 0.66601 0.0
C941 C 0.06088 0.96835 0.68335 0.0
C942 C 0.05944 0.9708 0.64962 0.0
C943 C 0.98675 0.9682 0.63103 0.0
H944 H 0.01821 0.01488 0.5915 0.0
C945 C 0.92115 0.0112 0.56949 0.0
C946 C 0.93448 0.01217 0.55198 0.0
C947 C 0.93634 0.00285 0.58519 0.0
C948 C 0.00932 1.00143 0.6023 0.0
H949 H 0.02038 0.97528 0.69713 0.0
H950 H 0.99401 0.98304 0.66857 0.0
H951 H 0.04568 0.00698 0.61963 0.0
H952 H 0.97394 0.00432 0.53711 0.0
H953 H 0.00013 0.9891 0.56438 0.0
H954 H 0.95022 0.96299 0.61374 0.0
C955 C 0.01648 0.97834 0.66763 0.0
C956 C 0.02504 0.99695 0.6184 0.0
C957 C 0.03167 0.97431 0.68399 0.0
C958 C 0.96294 0.00351 0.55036 0.0
C959 C 0.97807 0.99515 0.56602 0.0
C960 C 0.97101 0.97271 0.61491 0.0
C961 C 0.03016 0.97644 0.65029 0.0
C962 C 0.01384 0.98044 0.63297 0.0
C963 C 0.96513 0.99536 0.58363 0.0
C964 C 0.98211 0.98947 0.60043 0.0
H965 H 0.09719 0.96235 0.66512 0.0
H966 H 0.07049 0.96905 0.63642 0.0
H967 H 0.97778 0.95502 0.64193 0.0
H968 H 0.89917 0.0175 0.57112 0.0
H969 H 0.92586 0.00332 0.59863 0.0
C970 C 0.7526 0.34186 0.92192 0.0
C971 C 0.75548 0.32594 0.93834 0.0
C972 C 0.74308 0.32883 0.90564 0.0
C973 C 0.70832 0.26394 0.88728 0.0
H974 H 0.75551 0.27813 0.8439 0.0
C975 C 0.71036 0.18895 0.82396 0.0
C976 C 0.71086 0.20167 0.80629 0.0
C977 C 0.71363 0.20555 0.83991 0.0
C978 C 0.74188 0.27422 0.85581 0.0
H979 H 0.74991 0.28411 0.95069 0.0
H980 H 0.73322 0.26155 0.9224 0.0
H981 H 0.76304 0.30577 0.8721 0.0
H982 H 0.71464 0.24175 0.79145 0.0
H983 H 0.72052 0.27065 0.81928 0.0
H984 H 0.68754 0.23197 0.87105 0.0
C985 C 0.73793 0.28413 0.92213 0.0
C986 C 0.74612 0.29012 0.87193 0.0
C987 C 0.74747 0.2971 0.93836 0.0
C988 C 0.71475 0.23127 0.80487 0.0
C989 C 0.71802 0.24783 0.8208 0.0
C990 C 0.70408 0.24803 0.87115 0.0
C991 C 0.73624 0.2997 0.90551 0.0
C992 C 0.72963 0.28489 0.8879 0.0
C993 C 0.71743 0.23516 0.83847 0.0
C994 C 0.72106 0.25278 0.85534 0.0
H995 H 0.75825 0.36422 0.92157 0.0
H996 H 0.74159 0.34142 0.89306 0.0
H997 H 0.69509 0.25969 0.89934 0.0
H998 H 0.70766 0.16615 0.82543 0.0
H999 H 0.71354 0.19517 0.85336 0.0
C1000 C 0.25479 0.33175 0.81854 0.0
C1001 C 0.25669 0.31835 0.8011 0.0
C1002 C 0.24517 0.31664 0.83406 0.0
C1003 C 0.2422 0.24355 0.85128 0.0
H1004 H 0.19512 0.27563 0.89036 0.0
C1005 C 0.20784 0.17901 0.9158 0.0
C1006 C 0.20962 0.19323 0.93294 0.0
C1007 C 0.21133 0.19399 0.89918 0.0
C1008 C 0.20845 0.26649 0.87959 0.0
H1009 H 0.24904 0.27892 0.78615 0.0
H1010 H 0.23165 0.25287 0.81311 0.0
H1011 H 0.20387 0.30295 0.862 0.0
H1012 H 0.2161 0.23427 0.94615 0.0
H1013 H 0.2229 0.26023 0.91719 0.0
H1014 H 0.24725 0.20735 0.86895 0.0
C1015 C 0.23794 0.27492 0.81482 0.0
C1016 C 0.2134 0.2821 0.86338 0.0
C1017 C 0.24756 0.28997 0.79934 0.0
C1018 C 0.21501 0.22265 0.93315 0.0
C1019 C 0.21849 0.2376 0.91657 0.0
C1020 C 0.23729 0.22799 0.86748 0.0
C1021 C 0.23732 0.28787 0.83241 0.0
C1022 C 0.2305 0.27085 0.84914 0.0
C1023 C 0.21659 0.22346 0.89941 0.0
C1024 C 0.22059 0.2394 0.88187 0.0
H1025 H 0.2614 0.35369 0.82026 0.0
H1026 H 0.24504 0.32714 0.84748 0.0
H1027 H 0.2559 0.23455 0.84067 0.0
H1028 H 0.20387 0.15631 0.91523 0.0
H1029 H 0.20959 0.18257 0.88614 0.0
C1030 C 0.27721 0.82582 0.4192 0.0
C1031 C 0.27772 0.81231 0.43662 0.0
C1032 C 0.27215 0.81005 0.40309 0.0
C1033 C 0.24269 0.74206 0.38642 0.0
H1034 H 0.29092 0.75598 0.34347 0.0
C1035 C 0.23792 0.67094 0.32147 0.0
C1036 C 0.23609 0.68566 0.30452 0.0
C1037 C 0.24535 0.68537 0.33772 0.0
C1038 C 0.27722 0.75197 0.35534 0.0
H1039 H 0.2733 0.77177 0.45084 0.0
H1040 H 0.26427 0.74439 0.42278 0.0
H1041 H 0.29739 0.78424 0.37163 0.0
H1042 H 0.24113 0.72688 0.29122 0.0
H1043 H 0.25425 0.75188 0.31948 0.0
H1044 H 0.22239 0.70994 0.37011 0.0
C1045 C 0.2674 0.76717 0.42159 0.0
C1046 C 0.28083 0.76821 0.3714 0.0
C1047 C 0.27248 0.78289 0.43766 0.0
C1048 C 0.24285 0.71481 0.304 0.0
C1049 C 0.25031 0.72918 0.3202 0.0
C1050 C 0.23909 0.72583 0.37037 0.0
C1051 C 0.26751 0.78053 0.40413 0.0
C1052 C 0.26351 0.76349 0.38705 0.0
C1053 C 0.2511 0.71473 0.33727 0.0
C1054 C 0.25623 0.73072 0.35465 0.0
H1055 H 0.28089 0.84852 0.41802 0.0
H1056 H 0.27191 0.82094 0.38981 0.0
H1057 H 0.22884 0.73818 0.39823 0.0
H1058 H 0.23317 0.6484 0.32223 0.0
H1059 H 0.24623 0.67364 0.35068 0.0
C1060 C 0.06258 0.45714 0.57515 0.0
C1061 C 0.05072 0.45916 0.55732 0.0
C1062 C 0.04545 0.46002 0.59093 0.0
C1063 C 0.97747 0.49013 0.60641 0.0
H1064 H 0.98863 0.44152 0.64935 0.0
C1065 C 0.90849 0.50185 0.67191 0.0
C1066 C 0.92404 0.50405 0.68848 0.0
C1067 C 0.9215 0.49198 0.65566 0.0
C1068 C 0.98531 0.45524 0.63745 0.0
H1069 H 0.0116 0.46504 0.54199 0.0
H1070 H 0.98174 0.47013 0.56952 0.0
H1071 H 0.01692 0.43376 0.62125 0.0
H1072 H 0.96515 0.49677 0.70113 0.0
H1073 H 0.98768 0.47944 0.67291 0.0
H1074 H 0.94632 0.51199 0.62268 0.0
C1075 C 0.00432 0.4668 0.57132 0.0
C1076 C 0.00156 0.45088 0.62142 0.0
C1077 C 0.02142 0.46396 0.55557 0.0
C1078 C 0.95243 0.4949 0.68868 0.0
C1079 C 0.96538 0.48499 0.67249 0.0
C1080 C 0.96124 0.49447 0.62241 0.0
C1081 C 0.01615 0.46489 0.58915 0.0
C1082 C 0.99804 0.46853 0.60584 0.0
C1083 C 0.95026 0.48408 0.65572 0.0
C1084 C 0.96527 0.47732 0.63817 0.0
H1085 H 0.08515 0.4537 0.57689 0.0
H1086 H 0.05521 0.45889 0.60452 0.0
H1087 H 0.97455 0.50429 0.59469 0.0
H1088 H 0.88646 0.50836 0.67141 0.0
H1089 H 0.90926 0.4911 0.64296 0.0
C1090 C 0.50914 0.43991 0.18249 0.0
C1091 C 0.53686 0.42887 0.18238 0.0
C1092 C 0.49324 0.44075 0.16618 0.0
C1093 C 0.50408 0.44492 1.11591 0.0
H1094 H 0.42211 0.43733 1.11441 0.0
C1095 C 0.44309 0.47261 1.04981 0.0
C1096 C 0.4198 0.49086 1.0525 0.0
C1097 C 0.45513 0.4583 1.06482 0.0
C1098 C 0.445 0.43952 1.11463 0.0
H1099 H 0.56914 0.40888 0.1652 0.0
H1100 H 0.54116 0.40989 0.13676 0.0
H1101 H 0.44773 0.42389 0.14255 0.0
H1102 H 0.38972 0.50685 1.07289 0.0
H1103 H 0.41127 0.48252 1.09921 0.0
H1104 H 0.50144 0.46143 1.08834 0.0
C1105 C 0.5319 0.41826 0.14944 0.0
C1106 C 0.45966 0.43183 0.13072 0.0
C1107 C 0.54783 0.41746 0.16577 0.0
C1108 C 0.40794 0.49331 1.0704 0.0
C1109 C 0.42006 0.47906 1.08545 0.0
C1110 C 0.48947 0.45258 1.09987 0.0
C1111 C 0.50468 0.43051 0.14938 0.0
C1112 C 0.48931 0.43502 0.13166 0.0
C1113 C 0.44427 0.46201 1.08288 0.0
C1114 C 0.45972 0.45052 1.09916 0.0
H1115 H 0.49991 0.44841 0.19515 0.0
H1116 H 0.47246 0.45054 0.16659 0.0
H1117 H 0.52686 0.44812 1.11626 0.0
H1118 H 0.45294 0.47037 1.03624 0.0
H1119 H 0.47352 0.44499 1.06235 0.0
C1120 C 0.25744 0.30781 0.2479 0.0
C1121 C 0.25547 0.30112 0.26696 0.0
C1122 C 0.24941 0.33469 0.24133 0.0
C1123 C 0.20574 0.39735 0.25453 0.0
H1124 H 0.24588 0.4343 0.21394 0.0
C1125 C 0.1607 0.4981 0.22092 0.0
C1126 C 0.17961 0.52045 0.21689 0.0
C1127 C 0.17077 0.47108 0.2255 0.0
C1128 C 0.23454 0.42438 0.22536 0.0
H1129 H 0.24349 0.31789 0.294 0.0
H1130 H 0.23044 0.3648 0.28269 0.0
H1131 H 0.26261 0.3885 0.22564 0.0
H1132 H 0.22398 0.53171 0.21373 0.0
H1133 H 0.24178 0.48437 0.22198 0.0
H1134 H 0.17818 0.4334 0.25469 0.0
C1135 C 0.23773 0.34912 0.27272 0.0
C1136 C 0.24395 0.39792 0.23195 0.0
C1137 C 0.24562 0.32223 0.27927 0.0
C1138 C 0.2089 0.51485 0.21669 0.0
C1139 C 0.21906 0.4877 0.22141 0.0
C1140 C 0.19642 0.42373 0.248 0.0
C1141 C 0.23926 0.35568 0.25364 0.0
C1142 C 0.22963 0.38402 0.24662 0.0
C1143 C 0.2001 0.46567 0.22635 0.0
C1144 C 0.21054 0.43758 0.23325 0.0
H1145 H 0.26531 0.29232 0.238 0.0
H1146 H 0.25068 0.3388 0.22654 0.0
H1147 H 0.19389 0.38724 0.26567 0.0
H1148 H 0.13798 0.50172 0.22106 0.0
H1149 H 0.15548 0.45453 0.22871 0.0
C1150 C 0.43151 0.49848 0.5282 0.0
C1151 C 0.45312 0.50743 0.51594 0.0
C1152 C 0.40469 0.49092 0.52151 0.0
C1153 C 0.35719 0.49667 0.4804 0.0
H1154 H 0.32054 0.43134 0.50312 0.0
C1155 C 0.24025 0.46225 0.46535 0.0
C1156 C 0.23439 0.43291 0.46559 0.0
C1157 C 0.26746 0.47231 0.46985 0.0
C1158 C 0.33054 0.44946 0.49645 0.0
H1159 H 0.46292 0.51614 0.48696 0.0
H1160 H 0.41647 0.50209 0.47527 0.0
H1161 H 0.36649 0.44695 0.51437 0.0
H1162 H 0.25272 0.39107 0.46944 0.0
H1163 H 0.30006 0.40841 0.47672 0.0
H1164 H 0.32129 0.49861 0.46217 0.0
C1165 C 0.42017 0.50125 0.49011 0.0
C1166 C 0.35679 0.45871 0.50312 0.0
C1167 C 0.44699 0.50894 0.49681 0.0
C1168 C 0.25656 0.41383 0.46928 0.0
C1169 C 0.28365 0.4238 0.47365 0.0
C1170 C 0.33084 0.48734 0.47368 0.0
C1171 C 0.39872 0.49192 0.50236 0.0
C1172 C 0.37052 0.48243 0.49522 0.0
C1173 C 0.28927 0.45317 0.4746 0.0
C1174 C 0.31726 0.4635 0.48157 0.0
H1175 H 0.43543 0.49678 0.54298 0.0
H1176 H 0.38861 0.48425 0.53142 0.0
H1177 H 0.36698 0.51519 0.47408 0.0
H1178 H 0.22352 0.47746 0.46263 0.0
H1179 H 0.27101 0.49507 0.47048 0.0
C1180 C 0.2546 0.68235 0.77932 0.0
C1181 C 0.24486 0.70348 0.76706 0.0
C1182 C 0.26231 0.65541 0.77273 0.0
C1183 C 0.25588 0.60654 0.73207 0.0
H1184 H 0.32197 0.57134 0.75415 0.0
C1185 C 0.2913 0.48967 0.71675 0.0
C1186 C 0.32062 0.48428 0.71661 0.0
C1187 C 0.28102 0.51679 0.72147 0.0
C1188 C 0.30363 0.58093 0.74765 0.0
H1189 H 0.23496 0.71228 0.73818 0.0
H1190 H 0.2493 0.66567 0.72663 0.0
H1191 H 0.30621 0.61745 0.76527 0.0
H1192 H 0.36219 0.50334 0.72011 0.0
H1193 H 0.34449 0.55051 0.72776 0.0
H1194 H 0.2539 0.57011 0.7141 0.0
C1195 C 0.25062 0.66982 0.74141 0.0
C1196 C 0.2943 0.60728 0.75426 0.0
C1197 C 0.24277 0.69675 0.74802 0.0
C1198 C 0.33945 0.50681 0.72024 0.0
C1199 C 0.32927 0.5338 0.72482 0.0
C1200 C 0.26531 0.58011 0.7254 0.0
C1201 C 0.26071 0.64883 0.75366 0.0
C1202 C 0.2703 0.62051 0.74659 0.0
C1203 C 0.29993 0.539 0.72606 0.0
C1204 C 0.28942 0.56703 0.73305 0.0
H1205 H 0.2568 0.68672 0.79403 0.0
H1206 H 0.26956 0.63971 0.78265 0.0
H1207 H 0.23714 0.61591 0.72594 0.0
H1208 H 0.27629 0.47267 0.71408 0.0
H1209 H 0.2583 0.51998 0.72233 0.0
C1210 C 0.05823 0.5268 1.01448 0.0
C1211 C 0.04908 0.49829 1.0142 0.0
C1212 C 0.08477 0.53444 1.00719 0.0
C1213 C 0.15544 0.50536 0.99538 0.0
H1214 H 0.16295 0.57516 0.967 0.0
C1215 C 0.26359 0.54167 0.96426 0.0
C1216 C 0.27021 0.57054 0.96696 0.0
C1217 C 0.23598 0.53158 0.96771 0.0
C1218 C 0.16129 0.55568 0.97498 0.0
H1219 H 0.06097 0.45539 1.00622 0.0
H1220 H 0.10719 0.46877 0.99335 0.0
H1221 H 0.11627 0.56011 0.97803 0.0
H1222 H 0.25295 0.61165 0.97471 0.0
H1223 H 0.20523 0.59421 0.98079 0.0
H1224 H 0.20056 0.50123 0.99264 0.0
C1225 C 0.09385 0.48521 0.99929 0.0
C1226 C 0.1345 0.54707 0.98134 0.0
C1227 C 0.06723 0.47759 1.00651 0.0
C1228 C 0.24851 0.58927 0.97247 0.0
C1229 C 0.22105 0.57926 0.97586 0.0
C1230 C 0.18229 0.51402 0.98906 0.0
C1231 C 0.10292 0.51376 0.99948 0.0
C1232 C 0.13127 0.52202 0.99184 0.0
C1233 C 0.21446 0.55022 0.97383 0.0
C1234 C 0.18562 0.53953 0.97902 0.0
H1235 H 0.04471 0.54333 1.02013 0.0
H1236 H 0.0912 0.55657 1.00778 0.0
H1237 H 0.15378 0.48608 1.00357 0.0
H1238 H 0.27989 0.52674 0.96003 0.0
H1239 H 0.23157 0.50914 0.96579 0.0
C1240 C 0.79296 0.49098 1.02785 0.0
C1241 C 0.82184 0.48472 1.02514 0.0
C1242 C 0.78263 0.51846 1.02426 0.0
C1243 C 0.80608 0.59357 1.0166 0.0
H1244 H 0.73684 0.59977 0.98797 0.0
C1245 C 0.77731 0.69562 0.97627 0.0
C1246 C 0.74887 0.70467 0.97651 0.0
C1247 C 0.78491 0.66924 0.98377 0.0
C1248 C 0.75602 0.59848 0.99617 0.0
H1249 H 0.86267 0.5025 1.01725 0.0
H1250 H 0.84483 0.54995 1.01098 0.0
H1251 H 0.75211 0.55325 0.99923 0.0
H1252 H 0.70606 0.69272 0.9846 0.0
H1253 H 0.71937 0.64674 0.99779 0.0
H1254 H 0.81032 0.63868 1.01323 0.0
C1255 C 0.83006 0.53398 1.01599 0.0
C1256 C 0.76474 0.57178 1.00268 0.0
C1257 C 0.8403 0.50665 1.01951 0.0
C1258 C 0.7282 0.68655 0.98434 0.0
C1259 C 0.73579 0.66006 0.99175 0.0
C1260 C 0.79742 0.6202 1.01005 0.0
C1261 C 0.80103 0.54021 1.01803 0.0
C1262 C 0.79015 0.56891 1.01273 0.0
C1263 C 0.76426 0.65112 0.99163 0.0
C1264 C 0.77251 0.62295 0.99951 0.0
H1265 H 0.77823 0.47449 1.03216 0.0
H1266 H 0.76019 0.5226 1.02618 0.0
H1267 H 0.82547 0.59229 1.0246 0.0
H1268 H 0.79382 0.70912 0.97052 0.0
H1269 H 0.80699 0.6629 0.98322 0.0
C1270 C 0.5654 0.4796 0.7352 0.0
C1271 C 0.54822 0.50033 0.7267 0.0
C1272 C 0.59171 0.48697 0.74286 0.0
C1273 C 0.63224 0.54864 0.76075 0.0
H1274 H 0.69854 0.50211 0.75092 0.0
C1275 C 0.74564 0.59114 0.77018 0.0
C1276 C 0.76733 0.5727 0.77595 0.0
C1277 C 0.71834 0.58087 0.76676 0.0
C1278 C 0.68018 0.51508 0.75412 0.0
H1279 H 0.54582 0.54506 0.71934 0.0
H1280 H 0.59139 0.55789 0.73285 0.0
H1281 H 0.65214 0.48687 0.73956 0.0
H1282 H 0.77715 0.52915 0.78336 0.0
H1283 H 0.72905 0.51108 0.7776 0.0
H1284 H 0.66013 0.57697 0.77516 0.0
C1285 C 0.58432 0.53597 0.73381 0.0
C1286 C 0.65357 0.50638 0.74754 0.0
C1287 C 0.55813 0.5286 0.72606 0.0
C1288 C 0.76084 0.54385 0.77893 0.0
C1289 C 0.73337 0.5335 0.77547 0.0
C1290 C 0.65875 0.55726 0.7674 0.0
C1291 C 0.60143 0.51528 0.74234 0.0
C1292 C 0.62937 0.52334 0.75047 0.0
C1293 C 0.71187 0.55185 0.76907 0.0
C1294 C 0.6832 0.54092 0.76385 0.0
H1295 H 0.55833 0.45771 0.73623 0.0
H1296 H 0.60423 0.47057 0.74949 0.0
H1297 H 0.61394 0.56191 0.7636 0.0
H1298 H 0.74997 0.61349 0.76771 0.0
H1299 H 0.70259 0.59561 0.76159 0.0
C1300 C 0.77474 0.31807 0.48546 0.0
C1301 C 0.75417 0.30048 0.47712 0.0
C1302 C 0.76721 0.34447 0.49308 0.0
C1303 C 0.70538 0.38486 0.51091 0.0
H1304 H 0.75172 0.45149 0.50089 0.0
C1305 C 0.66276 0.49853 0.51973 0.0
C1306 C 0.68102 0.52042 0.52559 0.0
C1307 C 0.67304 0.47116 0.51643 0.0
C1308 C 0.73879 0.43304 0.50413 0.0
H1309 H 0.70955 0.29737 0.47 0.0
H1310 H 0.69646 0.34314 0.48339 0.0
H1311 H 0.76712 0.40489 0.4897 0.0
H1312 H 0.72426 0.5305 0.53324 0.0
H1313 H 0.74244 0.4823 0.52766 0.0
H1314 H 0.6769 0.4129 0.52516 0.0
C1315 C 0.71836 0.33633 0.48429 0.0
C1316 C 0.74759 0.40631 0.49766 0.0
C1317 C 0.72589 0.31003 0.4766 0.0
C1318 C 0.70973 0.51407 0.52875 0.0
C1319 C 0.72011 0.48652 0.52539 0.0
C1320 C 0.69665 0.4115 0.51744 0.0
C1321 C 0.7389 0.35388 0.49265 0.0
C1322 C 0.73071 0.38198 0.50067 0.0
C1323 C 0.70194 0.46482 0.51893 0.0
C1324 C 0.71293 0.43606 0.51382 0.0
H1325 H 0.79664 0.31127 0.48638 0.0
H1326 H 0.7835 0.35732 0.49959 0.0
H1327 H 0.69216 0.36647 0.51382 0.0
H1328 H 0.64048 0.50277 0.51713 0.0
H1329 H 0.65848 0.45524 0.51122 0.0
C1330 C 0.73464 0.46462 0.27293 0.0
C1331 C 0.72908 0.43524 0.27356 0.0
C1332 C 0.76202 0.47461 0.26863 0.0
C1333 C 0.82691 0.45037 0.24409 0.0
H1334 H 0.86124 0.51836 0.26476 0.0
C1335 C 0.929 0.49812 0.21246 0.0
C1336 C 0.94978 0.50842 0.22474 0.0
C1337 C 0.90192 0.49072 0.21894 0.0
C1338 C 0.85204 0.4992 0.25893 0.0
H1339 H 0.74803 0.39336 0.2715 0.0
H1340 H 0.79562 0.41063 0.26459 0.0
H1341 H 0.81508 0.50217 0.2764 0.0
H1342 H 0.95783 0.5197 0.25352 0.0
H1343 H 0.91094 0.50595 0.26489 0.0
H1344 H 0.86391 0.44687 0.22696 0.0
C1345 C 0.77889 0.42605 0.26681 0.0
C1346 C 0.82543 0.49009 0.26548 0.0
C1347 C 0.75164 0.41614 0.27096 0.0
C1348 C 0.94257 0.51144 0.24367 0.0
C1349 C 0.91549 0.50393 0.25017 0.0
C1350 C 0.85342 0.45941 0.23759 0.0
C1351 C 0.78429 0.45538 0.26497 0.0
C1352 C 0.81259 0.46545 0.2582 0.0
C1353 C 0.89486 0.49324 0.23791 0.0
C1354 C 0.8664 0.48395 0.24489 0.0
H1355 H 0.71761 0.47983 0.2748 0.0
H1356 H 0.76538 0.49733 0.2673 0.0
H1357 H 0.81751 0.43159 0.23789 0.0
H1358 H 0.93376 0.49522 0.19783 0.0
H1359 H 0.88649 0.48299 0.20901 0.0
C1360 C 0.74707 0.82318 0.77833 0.0
C1361 C 0.75609 0.80164 0.76606 0.0
C1362 C 0.73958 0.85009 0.77165 0.0
C1363 C 0.74553 0.89806 0.73052 0.0
H1364 H 0.68015 0.93424 0.75326 0.0
C1365 C 0.71071 0.01509 0.71522 0.0
C1366 C 0.68141 0.02063 0.71543 0.0
C1367 C 0.72089 0.98791 0.71982 0.0
C1368 C 0.69829 0.92437 0.74659 0.0
H1369 H 0.765 0.79207 0.73708 0.0
H1370 H 0.75109 0.83868 0.72541 0.0
H1371 H 0.69577 0.88823 0.76454 0.0
H1372 H 0.63979 1.00176 0.71934 0.0
H1373 H 0.65734 0.95452 0.72678 0.0
H1374 H 0.74748 0.93415 0.71224 0.0
C1375 C 0.75014 0.83485 0.74025 0.0
C1376 C 0.70755 0.89809 0.75328 0.0
C1377 C 0.75775 0.80794 0.74694 0.0
C1378 C 0.66251 0.99818 0.7192 0.0
C1379 C 0.6726 0.97114 0.72366 0.0
C1380 C 0.73621 0.92445 0.72378 0.0
C1381 C 0.74072 0.85624 0.7525 0.0
C1382 C 0.73127 0.88451 0.74535 0.0
C1383 C 0.70192 0.96583 0.72463 0.0
C1384 C 0.71234 0.93786 0.73167 0.0
H1385 H 0.74524 0.81914 0.79311 0.0
H1386 H 0.73284 0.86611 0.78155 0.0
H1387 H 0.76406 0.88839 0.72419 0.0
H1388 H 0.72577 0.03204 0.71244 0.0
H1389 H 0.74361 0.98461 0.72045 0.0
C1390 C 0.7409 0.96145 0.96241 0.0
C1391 C 0.73473 0.9324 0.96478 0.0
C1392 C 0.7683 0.9719 0.966 0.0
C1393 C 0.84324 0.94863 0.97317 0.0
H1394 H 0.84922 0.01716 1.00296 0.0
C1395 C 0.94415 0.97586 1.01463 0.0
C1396 C 0.95345 0.00433 1.015 0.0
C1397 C 0.91798 0.96863 1.00678 0.0
C1398 C 0.84799 0.9982 0.99443 0.0
H1399 H 0.75257 0.8914 0.97206 0.0
H1400 H 0.79987 0.90943 0.97834 0.0
H1401 H 0.80292 0.0021 0.99136 0.0
H1402 H 0.94235 0.0475 1.00717 0.0
H1403 H 0.89655 0.03488 0.99367 0.0
H1404 H 0.88815 0.94434 0.97659 0.0
C1405 C 0.7839 0.92426 0.97358 0.0
C1406 C 0.82142 0.9896 0.98772 0.0
C1407 C 0.75666 0.9139 0.97006 0.0
C1408 C 0.93574 0.02541 1.0074 0.0
C1409 C 0.90948 0.01818 0.9996 0.0
C1410 C 0.86972 0.95716 0.97992 0.0
C1411 C 0.79004 0.95345 0.9719 0.0
C1412 C 0.81863 0.9644 0.97728 0.0
C1413 C 0.90032 0.98968 0.99913 0.0
C1414 C 0.87238 0.98178 0.99091 0.0
H1415 H 0.7244 0.9762 0.95838 0.0
H1416 H 0.77237 0.99447 0.96437 0.0
H1417 H 0.84201 0.92943 0.96486 0.0
H1418 H 0.95691 0.9591 1.02064 0.0
H1419 H 0.91137 0.94654 1.00698 0.0
C1420 C 0.79237 0.99365 0.21221 0.0
C1421 C 0.82116 0.9874 0.21514 0.0
C1422 C 0.78181 0.02103 0.21596 0.0
C1423 C 0.80493 0.09607 0.22454 0.0
H1424 H 0.73391 0.10208 0.25171 0.0
C1425 C 0.77391 0.19779 0.26472 0.0
C1426 C 0.74554 0.20704 0.26395 0.0
C1427 C 0.78185 0.17141 0.25729 0.0
C1428 C 0.7536 0.10084 0.24392 0.0
H1429 H 0.8616 0.00513 0.22368 0.0
H1430 H 0.84336 0.05234 0.23029 0.0
H1431 H 0.74982 0.05565 0.24054 0.0
H1432 H 0.70334 0.19553 0.25452 0.0
H1433 H 0.71719 0.14939 0.24177 0.0
H1434 H 0.80903 0.14112 0.22825 0.0
C1435 C 0.82883 0.03646 0.22494 0.0
C1436 C 0.76271 0.07419 0.23746 0.0
C1437 C 0.8393 0.00926 0.22123 0.0
C1438 C 0.7253 0.189 0.25564 0.0
C1439 C 0.73325 0.16253 0.24827 0.0
C1440 C 0.7959 0.12263 0.23105 0.0
C1441 C 0.79987 0.0427 0.22261 0.0
C1442 C 0.78873 0.07137 0.22793 0.0
C1443 C 0.76166 0.15345 0.24893 0.0
C1444 C 0.77033 0.12533 0.24108 0.0
H1445 H 0.77788 0.97723 0.20755 0.0
H1446 H 0.75945 0.02516 0.21381 0.0
H1447 H 0.82479 0.09487 0.21693 0.0
H1448 H 0.79002 0.21076 0.2713 0.0
H1449 H 0.80383 0.16489 0.25837 0.0
C1450 C 0.76228 0.04428 0.46221 0.0
C1451 C 0.76874 0.07315 0.46512 0.0
C1452 C 0.73476 0.03395 0.46572 0.0
C1453 C 0.66004 0.0578 0.47376 0.0
H1454 H 0.65293 0.98745 0.5016 0.0
C1455 C 0.55867 0.0292 0.51498 0.0
C1456 C 0.54879 1.00093 0.51437 0.0
C1457 C 0.58499 0.03657 0.50725 0.0
C1458 C 0.65449 0.00695 0.49362 0.0
H1459 H 0.75129 0.11398 0.47331 0.0
H1460 H 0.70382 0.09614 0.47952 0.0
H1461 H 0.69952 0.00265 0.49028 0.0
H1462 H 0.55909 0.95828 0.50489 0.0
H1463 H 0.6052 0.97113 0.49166 0.0
H1464 H 0.61516 0.06247 0.47752 0.0
C1465 C 0.71964 0.08137 0.47437 0.0
C1466 C 0.68122 0.01563 0.48707 0.0
C1467 C 0.74699 0.09161 0.4709 0.0
C1468 C 0.56613 0.98018 0.5059 0.0
C1469 C 0.59256 0.98755 0.49825 0.0
C1470 C 0.63341 0.0492 0.48039 0.0
C1471 C 0.71318 0.05234 0.4721 0.0
C1472 C 0.68442 0.04145 0.47733 0.0
C1473 C 0.60226 0.01587 0.49877 0.0
C1474 C 0.63035 0.02391 0.49067 0.0
H1475 H 0.77864 0.02956 0.45778 0.0
H1476 H 0.73046 0.01152 0.46362 0.0
H1477 H 0.66155 0.07749 0.46599 0.0
H1478 H 0.54623 0.04567 0.52168 0.0
H1479 H 0.59203 0.05849 0.5082 0.0
C1480 C 0.27636 0.19628 0.47773 0.0
C1481 C 0.24788 0.20525 0.47765 0.0
C1482 C 0.28388 0.16994 0.48532 0.0
C1483 C 0.25498 0.0991 0.49761 0.0
H1484 H 0.32429 0.09318 0.52621 0.0
C1485 C 0.29255 0.99166 0.5292 0.0
C1486 C 0.32148 0.98563 0.52648 0.0
C1487 C 0.282 0.01907 0.52565 0.0
C1488 C 0.30494 0.09438 0.51817 0.0
H1489 H 0.20503 0.19338 0.48575 0.0
H1490 H 0.21816 0.14733 0.49885 0.0
H1491 H 0.309 0.1395 0.51485 0.0
H1492 H 0.36216 0.00375 0.51859 0.0
H1493 H 0.34396 0.05107 0.51239 0.0
H1494 H 0.25127 0.05384 0.50062 0.0
C1495 C 0.23464 0.16063 0.49286 0.0
C1496 C 0.29619 0.12098 0.51163 0.0
C1497 C 0.22711 0.18704 0.48531 0.0
C1498 C 0.33976 0.00772 0.52086 0.0
C1499 C 0.32931 0.03497 0.51739 0.0
C1500 C 0.26379 0.07243 0.50413 0.0
C1501 C 0.26314 0.15177 0.49302 0.0
C1502 C 0.27136 0.12365 0.501 0.0
C1503 C 0.30023 0.04098 0.51945 0.0
C1504 C 0.28917 0.06965 0.51422 0.0
H1505 H 0.29288 0.20943 0.47166 0.0
H1506 H 0.30597 0.1636 0.48487 0.0
H1507 H 0.23586 0.10032 0.48935 0.0
H1508 H 0.27796 0.97503 0.53349 0.0
H1509 H 0.25954 0.02304 0.52758 0.0
C1510 C 0.0575 0.02974 0.22706 0.0
C1511 C 0.04785 1.00137 0.22707 0.0
C1512 C 0.08357 0.03696 0.23503 0.0
C1513 C 0.15294 0.00711 0.24832 0.0
H1514 H 0.1592 0.0767 0.27703 0.0
C1515 C 0.26013 0.0437 0.28002 0.0
C1516 C 0.26662 0.0726 0.27725 0.0
C1517 C 0.23259 0.03346 0.27665 0.0
C1518 C 0.15789 0.05727 0.26897 0.0
H1519 H 0.05824 0.95839 0.23574 0.0
H1520 H 0.10391 0.97099 0.24943 0.0
H1521 H 0.11307 0.06189 0.26521 0.0
H1522 H 0.24918 0.11361 0.26959 0.0
H1523 H 0.20164 0.09594 0.26365 0.0
H1524 H 0.19791 0.00287 0.25167 0.0
C1525 C 0.0913 0.98761 0.24311 0.0
C1526 C 0.13142 0.04879 0.26218 0.0
C1527 C 0.06513 0.98039 0.2352 0.0
C1528 C 0.24484 0.09122 0.27188 0.0
C1529 C 0.21747 0.08107 0.26856 0.0
C1530 C 0.17949 0.01566 0.25506 0.0
C1531 C 0.1008 0.01601 0.24318 0.0
C1532 C 0.12867 0.02387 0.25149 0.0
C1533 C 0.21104 0.05198 0.27055 0.0
C1534 C 0.1824 0.04113 0.2652 0.0
H1535 H 0.04508 0.0464 0.22064 0.0
H1536 H 0.09046 0.05896 0.23453 0.0
H1537 H 0.15162 0.9879 0.24003 0.0
H1538 H 0.27651 0.02886 0.28413 0.0
H1539 H 0.2283 0.01099 0.27854 0.0
C1540 C 0.16171 0.99601 1.02225 0.0
C1541 C 0.18046 0.01842 1.02632 0.0
C1542 C 0.17195 0.96899 1.01773 0.0
C1543 C 0.23587 0.92244 1.01803 0.0
H1544 H 0.19619 0.8852 0.9776 0.0
C1545 C 0.25968 0.80595 0.99543 0.0
C1546 C 0.25812 0.79926 0.97636 0.0
C1547 C 0.25142 0.8328 1.002 0.0
C1548 C 0.20777 0.89533 0.98877 0.0
H1549 H 0.22473 0.02978 1.02964 0.0
H1550 H 0.24284 0.98247 1.02151 0.0
H1551 H 0.18009 0.93128 0.98857 0.0
H1552 H 0.24661 0.81603 0.94931 0.0
H1553 H 0.23315 0.86288 0.96063 0.0
H1554 H 0.26407 0.88665 1.0178 0.0
C1555 C 0.2201 0.98574 1.02198 0.0
C1556 C 0.19822 0.92168 0.99529 0.0
C1557 C 0.20976 0.01287 1.02665 0.0
C1558 C 0.24843 0.82036 0.96405 0.0
C1559 C 0.2403 0.84721 0.9706 0.0
C1560 C 0.2455 0.89601 1.01144 0.0
C1561 C 0.20131 0.96364 1.01697 0.0
C1562 C 0.21199 0.93557 1.01009 0.0
C1563 C 0.24143 0.85377 0.9897 0.0
C1564 C 0.23154 0.88207 0.99672 0.0
H1565 H 0.13899 0.99957 1.022 0.0
H1566 H 0.15678 0.95239 1.01447 0.0
H1567 H 0.24694 0.93239 1.02949 0.0
H1568 H 0.26741 0.79048 1.00533 0.0
H1569 H 0.25237 0.8369 1.01681 0.0
C1570 C 0.44393 0.97648 0.72696 0.0
C1571 C 0.45379 0.00476 0.72775 0.0
C1572 C 0.41763 0.96898 0.73467 0.0
C1573 C 0.34816 0.99844 0.74862 0.0
H1574 H 0.34106 0.92736 0.77567 0.0
C1575 C 0.24039 0.96082 0.77987 0.0
C1576 C 0.23381 0.93204 0.7767 0.0
C1577 C 0.26795 0.97111 0.77644 0.0
C1578 C 0.34259 0.94721 0.76806 0.0
H1579 H 0.4435 0.04724 0.73753 0.0
H1580 H 0.39744 0.03416 0.75074 0.0
H1581 H 0.38744 0.94252 0.76418 0.0
H1582 H 0.25111 0.8913 0.76817 0.0
H1583 H 0.29865 0.90908 0.76212 0.0
H1584 H 0.30316 0.00277 0.75209 0.0
C1585 C 0.41007 0.01785 0.74402 0.0
C1586 C 0.36921 0.95588 0.76146 0.0
C1587 C 0.43647 0.02535 0.73638 0.0
C1588 C 0.2555 0.9136 0.77079 0.0
C1589 C 0.28289 0.92381 0.7674 0.0
C1590 C 0.32144 0.98968 0.75516 0.0
C1591 C 0.40037 0.98954 0.74332 0.0
C1592 C 0.37228 0.98137 0.75139 0.0
C1593 C 0.28945 0.95278 0.76989 0.0
C1594 C 0.31822 0.96369 0.76468 0.0
H1595 H 0.45635 0.96012 0.72013 0.0
H1596 H 0.4106 0.94708 0.73358 0.0
H1597 H 0.34973 0.01809 0.74081 0.0
H1598 H 0.22408 0.97552 0.7844 0.0
H1599 H 0.27233 0.99348 0.77872 0.0
C1600 C 0.26913 0.14418 0.21556 0.0
C1601 C 0.29491 0.12953 0.21821 0.0
C1602 C 0.25307 0.14065 0.19918 0.0
C1603 C 0.24249 0.09092 0.15855 0.0
H1604 H 0.20085 0.15432 0.13779 0.0
C1605 C 0.16378 0.07703 1.09552 0.0
C1606 C 0.16362 0.09875 1.08198 0.0
C1607 C 0.17882 0.08039 1.11241 0.0
C1608 C 0.21238 0.13628 0.14325 0.0
H1609 H 0.32379 0.09968 0.20509 0.0
H1610 H 0.29615 0.09377 0.17666 0.0
H1611 H 0.22947 0.16131 0.16556 0.0
H1612 H 0.17918 0.14136 1.07619 0.0
H1613 H 0.20481 0.14715 1.10517 0.0
H1614 H 0.22564 0.066 0.13601 0.0
C1615 C 0.28806 0.10786 0.18736 0.0
C1616 C 0.22871 0.14026 0.15945 0.0
C1617 C 0.30421 0.11152 0.2037 0.0
C1618 C 0.17854 0.12405 1.08613 0.0
C1619 C 0.19327 0.12748 1.10296 0.0
C1620 C 0.22597 0.08688 0.14239 0.0
C1621 C 0.26202 0.12216 0.18481 0.0
C1622 C 0.24426 0.11773 0.16741 0.0
C1623 C 0.19396 0.10571 1.11644 0.0
C1624 C 0.21073 0.10954 0.13431 0.0
H1625 H 0.26094 0.15804 0.22636 0.0
H1626 H 0.23312 0.15191 0.19806 0.0
H1627 H 0.25369 0.0728 0.1642 0.0
H1628 H 0.15279 0.05716 1.09292 0.0
H1629 H 0.17845 0.06311 0.12237 0.0
C1630 C 0.6326 0.44556 0.32992 0.0
C1631 C 0.65108 0.42209 0.32792 0.0
C1632 C 0.62998 0.46044 0.34686 0.0
C1633 C 0.64297 0.45558 0.39834 0.0
H1634 H 0.63249 0.53737 0.39656 0.0
C1635 C 0.6123 0.52181 0.46486 0.0
C1636 C 0.62429 0.54914 0.46724 0.0
C1637 C 0.6158 0.50643 0.44811 0.0
C1638 C 0.63555 0.51458 0.39747 0.0
H1639 H 0.68118 0.3961 0.34294 0.0
H1640 H 0.67646 0.42188 0.37258 0.0
H1641 H 0.63898 0.51063 0.36778 0.0
H1642 H 0.64935 0.58145 0.45321 0.0
H1643 H 0.65511 0.55501 0.42413 0.0
H1644 H 0.63967 0.45963 0.42809 0.0
C1645 C 0.66384 0.42875 0.36087 0.0
C1646 C 0.639 0.49903 0.38079 0.0
C1647 C 0.66666 0.4139 0.34376 0.0
C1648 C 0.63951 0.56067 0.45204 0.0
C1649 C 0.64281 0.54538 0.43522 0.0
C1650 C 0.63924 0.47112 0.41504 0.0
C1651 C 0.6456 0.45252 0.36271 0.0
C1652 C 0.6427 0.46917 0.38083 0.0
C1653 C 0.63127 0.51778 0.43294 0.0
C1654 C 0.6354 0.50098 0.41498 0.0
H1655 H 0.62008 0.45279 0.31825 0.0
H1656 H 0.61532 0.47813 0.34752 0.0
H1657 H 0.64554 0.43272 0.39918 0.0
H1658 H 0.60058 0.51191 0.47614 0.0
H1659 H 0.60616 0.48555 0.44705 0.0
C1660 C 0.19677 0.89351 0.70391 0.0
C1661 C 0.20578 0.87527 0.71831 0.0
C1662 C 0.21307 0.89716 0.68753 0.0
C1663 C 0.27278 0.86455 0.65947 0.0
H1664 H 0.27574 0.93863 0.63581 0.0
C1665 C 0.3246 0.88023 0.58628 0.0
C1666 C 0.33905 0.90575 0.58191 0.0
C1667 C 0.30954 0.87689 0.6031 0.0
C1668 C 0.27546 0.9178 0.64225 0.0
H1669 H 0.23944 0.84638 0.72622 0.0
H1670 H 0.26755 0.85256 0.69791 0.0
H1671 H 0.24737 0.93191 0.66402 0.0
H1672 H 0.34867 0.94784 0.59245 0.0
H1673 H 0.32255 0.94203 0.6219 0.0
H1674 H 0.30111 0.85049 0.63791 0.0
C1675 C 0.24768 0.86397 0.69911 0.0
C1676 C 0.25874 0.9138 0.65843 0.0
C1677 C 0.23144 0.86041 0.71551 0.0
C1678 C 0.33807 0.9278 0.59522 0.0
C1679 C 0.32276 0.92451 0.61212 0.0
C1680 C 0.28936 0.86852 0.64328 0.0
C1681 C 0.23902 0.88265 0.68483 0.0
C1682 C 0.25698 0.88706 0.66738 0.0
C1683 C 0.30807 0.89897 0.61636 0.0
C1684 C 0.291 0.89518 0.63424 0.0
H1685 H 0.17729 0.90552 0.70542 0.0
H1686 H 0.20517 0.9114 0.67692 0.0
H1687 H 0.27205 0.84354 0.66563 0.0
H1688 H 0.32454 0.86267 0.57652 0.0
H1689 H 0.29837 0.85704 0.60544 0.0
C1690 C 0.87376 0.57557 0.83513 0.0
C1691 C 0.84852 0.59038 0.83099 0.0
C1692 C 0.87698 0.56039 0.85187 0.0
C1693 C 0.8359 0.52711 0.89142 0.0
H1694 H 0.91032 0.52195 0.9139 0.0
C1695 C 0.85888 0.44838 0.95309 0.0
C1696 C 0.87798 0.4569 0.96711 0.0
C1697 C 0.85532 0.46463 0.93672 0.0
C1698 C 0.88925 0.52317 0.90801 0.0
H1699 H 0.80681 0.60054 0.84187 0.0
H1700 H 0.81246 0.57433 0.87119 0.0
H1701 H 0.90367 0.55106 0.88629 0.0
H1702 H 0.90842 0.48968 0.97437 0.0
H1703 H 0.90233 0.51772 0.94614 0.0
H1704 H 0.82143 0.49954 0.91339 0.0
C1705 C 0.82984 0.57428 0.86128 0.0
C1706 C 0.88546 0.53978 0.89186 0.0
C1707 C 0.82665 0.58966 0.84446 0.0
C1708 C 0.89371 0.48205 0.96396 0.0
C1709 C 0.8902 0.49825 0.94759 0.0
C1710 C 0.83972 0.51039 0.90758 0.0
C1711 C 0.85509 0.5592 0.86531 0.0
C1712 C 0.85874 0.54205 0.88313 0.0
C1713 C 0.87074 0.49007 0.93366 0.0
C1714 C 0.86651 0.508 0.91622 0.0
H1715 H 0.89116 0.57527 0.82523 0.0
H1716 H 0.8966 0.54892 0.85401 0.0
H1717 H 0.81501 0.52786 0.88524 0.0
H1718 H 0.84618 0.42932 0.95489 0.0
H1719 H 0.84043 0.45708 0.92641 0.0
C1720 C 0.83851 0.92859 0.14565 0.0
C1721 C 0.83904 0.90672 0.15909 0.0
C1722 C 0.82331 0.9253 0.12881 0.0
C1723 C 0.78919 0.86935 1.09809 0.0
H1724 H 0.74916 0.93328 1.0767 0.0
C1725 C 0.73238 0.86071 1.02591 0.0
C1726 C 0.70723 0.87623 1.02282 0.0
C1727 C 0.74838 0.86435 1.0423 0.0
C1728 C 0.75996 0.91502 1.08248 0.0
H1729 H 0.82378 0.86396 0.16476 0.0
H1730 H 0.79775 0.85836 0.13595 0.0
H1731 H 0.77716 0.93994 1.10489 0.0
H1732 H 0.67943 0.9078 1.03517 0.0
H1733 H 0.70688 0.91382 1.06368 0.0
H1734 H 0.77165 0.84428 1.07597 0.0
C1735 C 0.80923 0.87805 0.13814 0.0
C1736 C 0.77648 0.91897 1.09865 0.0
C1737 C 0.82422 0.88138 0.15489 0.0
C1738 C 0.69851 0.89527 1.03691 0.0
C1739 C 0.71457 0.89898 1.0533 0.0
C1740 C 0.77279 0.86542 1.08192 0.0
C1741 C 0.80825 0.89995 0.12473 0.0
C1742 C 0.79134 0.89617 1.10689 0.0
C1743 C 0.73999 0.88376 1.0563 0.0
C1744 C 0.7577 0.88813 1.07376 0.0
H1745 H 0.84942 0.9485 0.14828 0.0
H1746 H 0.82351 0.94268 1.11893 0.0
H1747 H 0.80041 0.85116 1.10363 0.0
H1748 H 0.74015 0.84604 1.01545 0.0
H1749 H 0.76786 0.85238 1.04371 0.0
C1750 C 0.33393 0.59209 0.89673 0.0
C1751 C 0.35194 0.58629 0.91189 0.0
C1752 C 0.33666 0.57706 0.8797 0.0
C1753 C 0.36601 0.50896 0.85963 0.0
H1754 H 0.35839 0.54649 0.81196 0.0
C1755 C 0.36413 0.44548 0.78901 0.0
C1756 C 0.37815 0.45741 0.77346 0.0
C1757 C 0.36084 0.46095 0.80576 0.0
C1758 C 0.36074 0.53555 0.82512 0.0
H1759 H 0.38715 0.55967 0.92046 0.0
H1760 H 0.39165 0.53386 0.8913 0.0
H1761 H 0.35261 0.57386 0.84073 0.0
H1762 H 0.39955 0.4956 0.7638 0.0
H1763 H 0.39378 0.52233 0.79272 0.0
H1764 H 0.37418 0.47069 0.84409 0.0
C1765 C 0.37525 0.54989 0.89246 0.0
C1766 C 0.3571 0.55132 0.84173 0.0
C1767 C 0.37277 0.56504 0.9093 0.0
C1768 C 0.38883 0.48536 0.77537 0.0
C1769 C 0.38523 0.50095 0.79202 0.0
C1770 C 0.36928 0.49314 0.84304 0.0
C1771 C 0.3572 0.5554 0.87731 0.0
C1772 C 0.35992 0.5384 0.85935 0.0
C1773 C 0.37105 0.48914 0.80756 0.0
C1774 C 0.36694 0.50612 0.82542 0.0
H1775 H 0.31753 0.6081 0.89806 0.0
H1776 H 0.32217 0.58201 0.86852 0.0
H1777 H 0.36808 0.49791 0.87276 0.0
H1778 H 0.35533 0.4242 0.78819 0.0
H1779 H 0.34959 0.45097 0.8172 0.0
C1780 C 0.66422 0.07795 0.64656 0.0
C1781 C 0.6644 0.09963 0.66014 0.0
C1782 C 0.67932 0.08111 0.62957 0.0
C1783 C 0.71418 0.13667 0.59876 0.0
H1784 H 0.75341 0.07239 0.57688 0.0
C1785 C 0.77116 0.14495 0.52621 0.0
C1786 C 0.79625 0.12931 0.52303 0.0
C1787 C 0.75502 0.1414 0.54266 0.0
C1788 C 0.74282 0.09074 0.58279 0.0
H1789 H 0.68072 0.14195 0.66589 0.0
H1790 H 0.7065 0.14735 0.63682 0.0
H1791 H 0.72534 0.06588 0.60525 0.0
H1792 H 0.8238 0.0976 0.53529 0.0
H1793 H 0.79611 0.09171 0.56388 0.0
H1794 H 0.73197 0.16165 0.57657 0.0
C1795 C 0.69461 0.12789 0.63902 0.0
C1796 C 0.72627 0.08688 0.59907 0.0
C1797 C 0.67977 0.12467 0.65594 0.0
C1798 C 0.80478 0.11023 0.53709 0.0
C1799 C 0.78858 0.10659 0.55353 0.0
C1800 C 0.73059 0.14049 0.58247 0.0
C1801 C 0.69492 0.10617 0.62548 0.0
C1802 C 0.71174 0.10982 0.60749 0.0
C1803 C 0.76322 0.12194 0.55662 0.0
C1804 C 0.7454 0.11766 0.57415 0.0
H1805 H 0.65287 0.05827 0.64919 0.0
H1806 H 0.67863 0.06387 0.61958 0.0
H1807 H 0.70322 0.15495 0.60445 0.0
H1808 H 0.76353 0.15964 0.51577 0.0
H1809 H 0.7356 0.15348 0.54416 0.0
C1810 C 0.17163 0.41168 0.39557 0.0
C1811 C 0.15448 0.41813 0.41116 0.0
C1812 C 0.16849 0.42663 0.37854 0.0
C1813 C 0.13951 0.49534 0.35924 0.0
H1814 H 0.14384 0.45784 0.31134 0.0
C1815 C 0.13772 0.55934 0.28907 0.0
C1816 C 0.12298 0.54766 0.27382 0.0
C1817 C 0.14181 0.54362 0.3056 0.0
C1818 C 0.1424 0.46876 0.32457 0.0
H1819 H 0.12021 0.44568 0.42042 0.0
H1820 H 0.11499 0.47116 0.39136 0.0
H1821 H 0.15091 0.43029 0.33988 0.0
H1822 H 0.10107 0.50966 0.26446 0.0
H1823 H 0.1081 0.4825 0.29305 0.0
H1824 H 0.13085 0.53372 0.34407 0.0
C1825 C 0.13112 0.45482 0.39216 0.0
C1826 C 0.14679 0.45289 0.34104 0.0
C1827 C 0.13404 0.43983 0.40897 0.0
C1828 C 0.11231 0.5197 0.27582 0.0
C1829 C 0.11667 0.50387 0.29226 0.0
C1830 C 0.13544 0.51122 0.34282 0.0
C1831 C 0.14836 0.44877 0.3766 0.0
C1832 C 0.14514 0.46581 0.35874 0.0
C1833 C 0.13163 0.51543 0.30748 0.0
C1834 C 0.13656 0.49827 0.32513 0.0
H1835 H 0.18767 0.39528 0.39655 0.0
H1836 H 0.18233 0.42125 0.36701 0.0
H1837 H 0.13836 0.50639 0.37244 0.0
H1838 H 0.14656 0.5806 0.28817 0.0
H1839 H 0.15366 0.55342 0.31677 0.0
C1840 C 0.66405 0.57864 0.59442 0.0
C1841 C 0.66411 0.60047 0.58094 0.0
C1842 C 0.67912 0.58169 0.61134 0.0
C1843 C 0.71394 0.63707 0.64221 0.0
H1844 H 0.75263 0.57247 0.66381 0.0
C1845 C 0.77046 0.6448 0.71463 0.0
C1846 C 0.79534 0.62885 0.71776 0.0
C1847 C 0.75445 0.64142 0.6982 0.0
C1848 C 0.74221 0.59091 0.65798 0.0
H1849 H 0.68027 0.64291 0.5753 0.0
H1850 H 0.70604 0.64811 0.60425 0.0
H1851 H 0.72479 0.56627 0.6355 0.0
H1852 H 0.82261 0.5968 0.70545 0.0
H1853 H 0.79517 0.59123 0.67691 0.0
H1854 H 0.73169 0.66185 0.66441 0.0
C1855 C 0.69422 0.62863 0.60203 0.0
C1856 C 0.72577 0.58723 0.64173 0.0
C1857 C 0.67939 0.62553 0.58519 0.0
C1858 C 0.80376 0.60965 0.70368 0.0
C1859 C 0.7877 0.60621 0.68727 0.0
C1860 C 0.73024 0.64072 0.65846 0.0
C1861 C 0.69462 0.60677 0.61547 0.0
C1862 C 0.71141 0.61028 0.63341 0.0
C1863 C 0.76255 0.62186 0.68421 0.0
C1864 C 0.74486 0.61778 0.6667 0.0
H1865 H 0.6528 0.55895 0.59176 0.0
H1866 H 0.67847 0.56435 0.62124 0.0
H1867 H 0.7031 0.65544 0.63661 0.0
H1868 H 0.76291 0.6596 0.72508 0.0
H1869 H 0.7352 0.65374 0.69675 0.0
C1870 C 0.17065 0.91141 0.8465 0.0
C1871 C 0.15272 0.91712 0.8313 0.0
C1872 C 0.16766 0.92642 0.86353 0.0
C1873 C 0.13728 0.99427 0.88325 0.0
H1874 H 0.14485 0.95725 0.93108 0.0
C1875 C 0.1366 0.05842 0.95342 0.0
C1876 C 0.12288 0.04626 0.96899 0.0
C1877 C 0.14043 0.04285 0.93678 0.0
C1878 C 0.1425 0.96803 0.91788 0.0
H1879 H 0.11722 0.94337 0.82267 0.0
H1880 H 0.11223 0.969 0.85177 0.0
H1881 H 0.15149 0.92974 0.90246 0.0
H1882 H 0.10245 0.00764 0.97883 0.0
H1883 H 0.10902 0.98076 0.95005 0.0
H1884 H 0.12812 0.03248 0.89856 0.0
C1885 C 0.12884 0.95319 0.85066 0.0
C1886 C 0.14664 0.95219 0.90136 0.0
C1887 C 0.13163 0.93813 0.83384 0.0
C1888 C 0.11292 0.01803 0.96722 0.0
C1889 C 0.11701 0.00237 0.95066 0.0
C1890 C 0.13344 0.01014 0.89973 0.0
C1891 C 0.14688 0.94789 0.86583 0.0
C1892 C 0.14383 0.96494 0.88369 0.0
C1893 C 0.13101 0.01437 0.93513 0.0
C1894 C 0.13573 0.99733 0.9174 0.0
H1895 H 0.18722 0.89558 0.84521 0.0
H1896 H 0.18212 0.92164 0.87475 0.0
H1897 H 0.13523 0.00518 0.87006 0.0
H1898 H 0.14486 0.07993 0.95415 0.0
H1899 H 0.15152 0.05298 0.92533 0.0
C1900 C 0.82579 0.37832 1.08523 0.0
C1901 C 0.83929 0.40422 1.08053 0.0
C1902 C 0.81038 0.37512 1.10193 0.0
C1903 C 0.77321 0.41636 0.13968 0.0
H1904 H 0.77266 0.34342 0.16486 0.0
C1905 C 0.69395 0.39153 0.20105 0.0
C1906 C 0.70364 0.37484 0.21605 0.0
C1907 C 0.71046 0.39506 0.18473 0.0
C1908 C 0.77256 0.36407 0.15818 0.0
H1909 H 0.84682 0.44714 1.09034 0.0
H1910 H 0.82007 0.44159 1.11956 0.0
H1911 H 0.80219 0.3502 0.13731 0.0
H1912 H 0.73874 0.34859 0.22509 0.0
H1913 H 0.76716 0.3545 0.19691 0.0
H1914 H 0.74375 0.43028 0.16073 0.0
C1915 C 0.82132 0.42364 1.11014 0.0
C1916 C 0.78942 0.36791 0.1421 0.0
C1917 C 0.83701 0.42679 1.09339 0.0
C1918 C 0.73021 0.36139 0.21392 0.0
C1919 C 0.74663 0.36479 0.19759 0.0
C1920 C 0.75617 0.41246 0.15573 0.0
C1921 C 0.80757 0.39772 1.11472 0.0
C1922 C 0.79008 0.3941 0.13244 0.0
C1923 C 0.73728 0.38194 0.1827 0.0
C1924 C 0.75545 0.3862 0.16533 0.0
H1925 H 0.82675 0.36035 1.0758 0.0
H1926 H 0.79999 0.35492 1.10455 0.0
H1927 H 0.77271 0.4368 0.13273 0.0
H1928 H 0.67377 0.40245 0.20204 0.0
H1929 H 0.70206 0.40811 0.17364 0.0
C1930 C 0.36351 0.94602 0.45317 0.0
C1931 C 0.37815 0.95784 0.46841 0.0
C1932 C 0.35958 0.96158 0.43656 0.0
C1933 C 0.35937 0.03632 0.41736 0.0
H1934 H 0.36341 0.9984 0.36959 0.0
C1935 C 0.33077 0.09331 0.34632 0.0
C1936 C 0.34784 0.08667 0.33073 0.0
C1937 C 0.3338 0.07838 0.36336 0.0
C1938 C 0.36227 0.00953 0.38276 0.0
H1939 H 0.4001 0.99589 0.47767 0.0
H1940 H 0.39336 0.02274 0.44894 0.0
H1941 H 0.37063 0.97118 0.39804 0.0
H1942 H 0.38185 0.05882 0.32146 0.0
H1943 H 0.38691 0.03336 0.35056 0.0
H1944 H 0.35119 0.07476 0.40197 0.0
C1945 C 0.38472 1.0014 0.4498 0.0
C1946 C 0.36617 0.99371 0.39923 0.0
C1947 C 0.3889 0.98575 0.46632 0.0
C1948 C 0.36811 0.0648 0.33292 0.0
C1949 C 0.37092 0.04984 0.34975 0.0
C1950 C 0.35517 0.05212 0.40086 0.0
C1951 C 0.36983 0.98973 0.4346 0.0
C1952 C 0.36504 0.00677 0.41689 0.0
C1953 C 0.35374 0.05607 0.3653 0.0
C1954 C 0.35682 0.0391 0.3832 0.0
H1955 H 0.35462 0.92478 0.45415 0.0
H1956 H 0.34778 0.9517 0.42539 0.0
H1957 H 0.35792 0.04733 0.43056 0.0
H1958 H 0.31486 0.10983 0.34533 0.0
H1959 H 0.32001 0.0839 0.37489 0.0
C1960 C 0.33767 0.42708 0.64705 0.0
C1961 C 0.33898 0.40485 0.6602 0.0
C1962 C 0.32231 0.42389 0.63025 0.0
C1963 C 0.28943 0.36808 0.59885 0.0
H1964 H 0.24711 0.4315 0.57872 0.0
C1965 C 0.23224 0.36086 0.5266 0.0
C1966 C 0.20644 0.3755 0.52396 0.0
C1967 C 0.24829 0.36426 0.54301 0.0
C1968 C 0.25858 0.41338 0.58413 0.0
H1969 H 0.32497 0.36155 0.66541 0.0
H1970 H 0.29874 0.35606 0.63662 0.0
H1971 H 0.27525 0.43795 0.60689 0.0
H1972 H 0.17757 0.40526 0.53716 0.0
H1973 H 0.20515 0.41091 0.56566 0.0
H1974 H 0.27249 0.34338 0.57632 0.0
C1975 C 0.30968 0.376 0.63903 0.0
C1976 C 0.27516 0.41722 0.6003 0.0
C1977 C 0.32479 0.37925 0.65577 0.0
C1978 C 0.19715 0.39341 0.53853 0.0
C1979 C 0.21327 0.39692 0.55492 0.0
C1980 C 0.273 0.36428 0.58265 0.0
C1981 C 0.3079 0.39826 0.62592 0.0
C1982 C 0.29083 0.3946 0.60809 0.0
C1983 C 0.23933 0.38259 0.55747 0.0
C1984 C 0.25709 0.3868 0.57495 0.0
H1985 H 0.34806 0.4472 0.64986 0.0
H1986 H 0.32189 0.44157 0.6206 0.0
H1987 H 0.30127 0.35005 0.60404 0.0
H1988 H 0.24047 0.34709 0.51576 0.0
H1989 H 0.26823 0.353 0.54407 0.0
C1990 C 0.83042 0.09502 0.39468 0.0
C1991 C 0.84881 0.08983 0.40974 0.0
C1992 C 0.83326 0.07983 0.37771 0.0
C1993 C 0.8637 0.01208 0.35802 0.0
H1994 H 0.85599 0.04879 0.31009 0.0
C1995 C 0.86341 0.94766 0.28783 0.0
C1996 C 0.8776 0.95952 0.27233 0.0
C1997 C 0.85969 0.96331 0.30446 0.0
C1998 C 0.85835 0.03809 0.32333 0.0
H1999 H 0.88482 0.06418 0.41819 0.0
H2000 H 0.88947 0.03811 0.38919 0.0
H2001 H 0.8495 0.0765 0.33867 0.0
H2002 H 0.89885 0.99776 0.26261 0.0
H2003 H 0.89233 0.02482 0.29133 0.0
H2004 H 0.87259 0.97372 0.34277 0.0
C2005 C 0.8727 0.05376 0.39037 0.0
C2006 C 0.85431 0.05404 0.33981 0.0
C2007 C 0.87012 0.06907 0.40712 0.0
C2008 C 0.88804 0.98758 0.27416 0.0
C2009 C 0.88399 0.00334 0.29068 0.0
C2010 C 0.86736 0.99607 0.34156 0.0
C2011 C 0.85428 0.05863 0.37533 0.0
C2012 C 0.8572 0.04142 0.35751 0.0
C2013 C 0.86961 0.99161 0.30616 0.0
C2014 C 0.86501 0.00877 0.32386 0.0
H2015 H 0.81367 0.11065 0.39604 0.0
H2016 H 0.81851 0.08426 0.36658 0.0
H2017 H 0.86584 1.00128 0.37124 0.0
H2018 H 0.85479 0.9263 0.28706 0.0
H2019 H 0.84831 0.9534 0.31588 0.0
C2020 C 0.17738 0.62526 0.15635 0.0
C2021 C 0.16227 0.60011 0.16065 0.0
C2022 C 0.19265 0.62823 0.13958 0.0
C2023 C 0.22569 0.58639 1.10043 0.0
H2024 H 0.2318 0.66067 1.07729 0.0
C2025 C 0.30536 0.60815 1.03896 0.0
C2026 C 0.29725 0.62702 1.02468 0.0
C2027 C 0.28883 0.60495 1.05528 0.0
C2028 C 0.2303 0.63964 1.08337 0.0
H2029 H 0.15166 0.55829 0.15005 0.0
H2030 H 0.17806 0.56349 0.12069 0.0
H2031 H 0.20238 0.65453 1.10492 0.0
H2032 H 0.26493 0.65748 1.01689 0.0
H2033 H 0.23637 0.65201 1.04506 0.0
H2034 H 0.25329 0.57143 1.07864 0.0
C2035 C 0.17827 0.581 0.13048 0.0
C2036 C 0.21352 0.63614 1.09952 0.0
C2037 C 0.16279 0.57806 0.14733 0.0
C2038 C 0.27223 0.64293 1.02751 0.0
C2039 C 0.25574 0.63978 1.04384 0.0
C2040 C 0.24257 0.58991 1.08428 0.0
C2041 C 0.19364 0.60615 0.1263 0.0
C2042 C 0.21092 0.60949 1.10848 0.0
C2043 C 0.26351 0.62053 1.05802 0.0
C2044 C 0.24532 0.61664 1.07541 0.0
H2045 H 0.17782 0.64279 0.16613 0.0
H2046 H 0.20436 0.64779 0.1373 0.0
H2047 H 0.22467 0.56553 1.1068 0.0
H2048 H 0.32433 0.59536 1.03743 0.0
H2049 H 0.29607 0.59023 1.06581 0.0
C2050 C 0.62914 0.92788 0.90514 0.0
C2051 C 0.65471 0.91379 0.9095 0.0
C2052 C 0.62587 0.9431 0.88841 0.0
C2053 C 0.66683 0.97818 0.8495 0.0
H2054 H 0.59295 0.98088 0.8261 0.0
C2055 C 0.64258 0.05677 0.78787 0.0
C2056 C 0.62435 0.04756 0.77353 0.0
C2057 C 0.6463 0.0405 0.80423 0.0
C2058 C 0.61387 0.98036 0.83225 0.0
H2059 H 0.69697 0.90503 0.89904 0.0
H2060 H 0.69127 0.93137 0.86976 0.0
H2061 H 0.59985 0.95173 0.85367 0.0
H2062 H 0.59564 0.01353 0.76572 0.0
H2063 H 0.60197 0.98552 0.79392 0.0
H2064 H 0.68091 0.00655 0.82784 0.0
C2065 C 0.67365 0.93077 0.87947 0.0
C2066 C 0.61779 0.96372 0.84838 0.0
C2067 C 0.67688 0.91531 0.89627 0.0
C2068 C 0.60964 0.02171 0.77637 0.0
C2069 C 0.61329 0.00552 0.79273 0.0
C2070 C 0.66287 0.99495 0.83338 0.0
C2071 C 0.64806 0.9451 0.87522 0.0
C2072 C 0.64432 0.96231 0.85743 0.0
C2073 C 0.63189 0.01439 0.80697 0.0
C2074 C 0.63627 0.99646 0.8244 0.0
H2075 H 0.61149 0.92755 0.91484 0.0
H2076 H 0.60597 0.95397 0.8861 0.0
H2077 H 0.68756 0.9781 0.85594 0.0
H2078 H 0.65449 0.07638 0.78633 0.0
H2079 H 0.66051 0.04856 0.81479 0.0
loop_
_geom_bond_atom_site_label_1
_geom_bond_atom_site_label_2
_geom_bond_distance
_geom_bond_site_symmetry_2
_ccdc_geom_bond_type
Sm0 C2 2.846 . S
Sm0 O20 2.543 . S
Sm0 O21 2.450 . S
Sm0 O22 2.681 . S
Sm0 O23 2.464 . S
Sm0 O24 2.396 . S
Sm0 O28 2.386 . S
Sm0 O31 2.408 . S
Sm1 C11 2.846 . S
Sm1 O22 2.386 . S
Sm1 O25 2.408 . S
Sm1 O26 2.543 . S
Sm1 O27 2.450 . S
Sm1 O28 2.681 . S
Sm1 O29 2.464 . S
Sm1 O30 2.396 . S
C2 Sm0 2.846 . S
C2 C3 1.506 . S
C2 O20 1.261 . S
C2 O21 1.242 . S
C3 C2 1.506 . S
C3 C4 1.358 . S
C3 C8 1.382 . S
C4 C3 1.358 . S
C4 C5 1.385 . S
C4 H32 0.930 . S
C5 C4 1.385 . S
C5 C6 1.395 . S
C5 H33 0.929 . S
C6 C5 1.395 . S
C6 C7 1.335 . S
C7 C6 1.335 . S
C7 C8 1.398 . S
C7 H34 0.930 . S
C8 C3 1.382 . S
C8 C7 1.398 . S
C8 H35 0.929 . S
C9 O22 1.271 . S
C9 O23 1.251 . S
C10 O24 1.252 . S
C10 O25 1.272 . S
C11 Sm1 2.846 . S
C11 C12 1.506 . S
C11 O26 1.261 . S
C11 O27 1.242 . S
C12 C11 1.506 . S
C12 C13 1.358 . S
C12 C17 1.382 . S
C13 C12 1.358 . S
C13 C14 1.385 . S
C13 H36 0.930 . S
C14 C13 1.385 . S
C14 C15 1.395 . S
C14 H37 0.929 . S
C15 C14 1.395 . S
C15 C16 1.335 . S
C16 C15 1.335 . S
C16 C17 1.398 . S
C16 H38 0.930 1_545 S
C17 C12 1.382 . S
C17 C16 1.398 . S
C17 H39 0.929 . S
C18 O28 1.271 . S
C18 O29 1.251 . S
C19 O30 1.252 . S
C19 O31 1.272 . S
O20 Sm0 2.543 . S
O20 C2 1.261 . S
O21 Sm0 2.450 . S
O21 C2 1.242 . S
O22 Sm0 2.681 . S
O22 Sm1 2.386 . S
O22 C9 1.271 . S
O23 Sm0 2.464 . S
O23 C9 1.251 . S
O24 Sm0 2.396 . S
O24 C10 1.252 . S
O25 Sm1 2.408 . S
O25 C10 1.272 . S
O26 Sm1 2.543 . S
O26 C11 1.261 . S
O27 Sm1 2.450 . S
O27 C11 1.242 . S
O28 Sm0 2.386 . S
O28 Sm1 2.681 . S
O28 C18 1.271 . S
O29 Sm1 2.464 . S
O29 C18 1.251 . S
O30 Sm1 2.396 . S
O30 C19 1.252 . S
O31 Sm0 2.408 . S
O31 C19 1.272 . S
H32 C4 0.930 . S
H33 C5 0.929 . S
H34 C7 0.930 . S
H35 C8 0.929 . S
H36 C13 0.930 . S
H37 C14 0.929 . S
H38 C16 0.930 1_565 S
H39 C17 0.929 . S
Sm40 C42 2.846 . S
Sm40 O60 2.543 . S
Sm40 O61 2.450 . S
Sm40 O62 2.681 . S
Sm40 O63 2.464 . S
Sm40 O64 2.396 . S
Sm40 O68 2.386 . S
Sm40 O71 2.408 . S
Sm41 C51 2.846 . S
Sm41 O62 2.386 . S
Sm41 O65 2.408 . S
Sm41 O66 2.543 . S
Sm41 O67 2.450 . S
Sm41 O68 2.681 . S
Sm41 O69 2.464 . S
Sm41 O70 2.396 . S
C42 Sm40 2.846 . S
C42 C43 1.506 . S
C42 O60 1.261 . S
C42 O61 1.242 . S
C43 C42 1.506 . S
C43 C44 1.358 . S
C43 C48 1.382 . S
C44 C43 1.358 . S
C44 C45 1.385 . S
C44 H72 0.930 . S
C45 C44 1.385 . S
C45 C46 1.395 . S
C45 H73 0.929 . S
C46 C45 1.395 . S
C46 C47 1.335 . S
C47 C46 1.335 . S
C47 C48 1.398 . S
C47 H74 0.930 . S
C48 C43 1.382 . S
C48 C47 1.398 . S
C48 H75 0.929 . S
C49 O62 1.271 . S
C49 O63 1.251 . S
C50 O64 1.252 . S
C50 O65 1.272 . S
C51 Sm41 2.846 . S
C51 C52 1.506 . S
C51 O66 1.261 . S
C51 O67 1.242 . S
C52 C51 1.506 . S
C52 C53 1.358 . S
C52 C57 1.382 . S
C53 C52 1.358 . S
C53 C54 1.385 . S
C53 H76 0.930 . S
C54 C53 1.385 . S
C54 C55 1.395 . S
C54 H77 0.929 . S
C55 C54 1.395 . S
C55 C56 1.335 . S
C56 C55 1.335 . S
C56 C57 1.398 . S
C56 H78 0.930 . S
C57 C52 1.382 . S
C57 C56 1.398 . S
C57 H79 0.929 . S
C58 O68 1.271 . S
C58 O69 1.251 . S
C59 O70 1.252 . S
C59 O71 1.272 . S
O60 Sm40 2.543 . S
O60 C42 1.261 . S
O61 Sm40 2.450 . S
O61 C42 1.242 . S
O62 Sm40 2.681 . S
O62 Sm41 2.386 . S
O62 C49 1.271 . S
O63 Sm40 2.464 . S
O63 C49 1.251 . S
O64 Sm40 2.396 . S
O64 C50 1.252 . S
O65 Sm41 2.408 . S
O65 C50 1.272 . S
O66 Sm41 2.543 . S
O66 C51 1.261 . S
O67 Sm41 2.450 . S
O67 C51 1.242 . S
O68 Sm40 2.386 . S
O68 Sm41 2.681 . S
O68 C58 1.271 . S
O69 Sm41 2.464 . S
O69 C58 1.251 . S
O70 Sm41 2.396 . S
O70 C59 1.252 . S
O71 Sm40 2.408 . S
O71 C59 1.272 . S
H72 C44 0.930 . S
H73 C45 0.929 . S
H74 C47 0.930 . S
H75 C48 0.929 . S
H76 C53 0.930 . S
H77 C54 0.929 . S
H78 C56 0.930 . S
H79 C57 0.929 . S
Sm80 C82 2.846 . S
Sm80 O100 2.543 . S
Sm80 O101 2.450 . S
Sm80 O102 2.681 . S
Sm80 O103 2.464 . S
Sm80 O104 2.396 . S
Sm80 O108 2.386 . S
Sm80 O111 2.408 . S
Sm81 C91 2.846 . S
Sm81 O102 2.386 . S
Sm81 O105 2.408 . S
Sm81 O106 2.543 . S
Sm81 O107 2.450 . S
Sm81 O108 2.681 . S
Sm81 O109 2.464 . S
Sm81 O110 2.396 . S
C82 Sm80 2.846 . S
C82 C83 1.506 . S
C82 O100 1.261 . S
C82 O101 1.242 . S
C83 C82 1.506 . S
C83 C84 1.358 . S
C83 C88 1.382 . S
C84 C83 1.358 . S
C84 C85 1.385 . S
C84 H112 0.930 . S
C85 C84 1.385 . S
C85 C86 1.395 . S
C85 H113 0.929 . S
C86 C85 1.395 . S
C86 C87 1.335 . S
C87 C86 1.335 . S
C87 C88 1.398 . S
C87 H114 0.930 . S
C88 C83 1.382 . S
C88 C87 1.398 . S
C88 H115 0.929 . S
C89 O102 1.271 . S
C89 O103 1.251 . S
C90 O104 1.252 . S
C90 O105 1.272 . S
C91 Sm81 2.846 . S
C91 C92 1.506 . S
C91 O106 1.261 . S
C91 O107 1.242 . S
C92 C91 1.506 . S
C92 C93 1.358 . S
C92 C97 1.382 . S
C93 C92 1.358 . S
C93 C94 1.385 . S
C93 H116 0.930 . S
C94 C93 1.385 . S
C94 C95 1.395 . S
C94 H117 0.929 . S
C95 C94 1.395 . S
C95 C96 1.335 . S
C96 C95 1.335 . S
C96 C97 1.398 . S
C96 H118 0.930 1_565 S
C97 C92 1.382 . S
C97 C96 1.398 . S
C97 H119 0.929 . S
C98 O108 1.271 . S
C98 O109 1.251 . S
C99 O110 1.252 . S
C99 O111 1.272 . S
O100 Sm80 2.543 . S
O100 C82 1.261 . S
O101 Sm80 2.450 . S
O101 C82 1.242 . S
O102 Sm80 2.681 . S
O102 Sm81 2.386 . S
O102 C89 1.271 . S
O103 Sm80 2.464 . S
O103 C89 1.251 . S
O104 Sm80 2.396 . S
O104 C90 1.252 . S
O105 Sm81 2.408 . S
O105 C90 1.272 . S
O106 Sm81 2.543 . S
O106 C91 1.261 . S
O107 Sm81 2.450 . S
O107 C91 1.242 . S
O108 Sm80 2.386 . S
O108 Sm81 2.681 . S
O108 C98 1.271 . S
O109 Sm81 2.464 . S
O109 C98 1.251 . S
O110 Sm81 2.396 . S
O110 C99 1.252 . S
O111 Sm80 2.408 . S
O111 C99 1.272 . S
H112 C84 0.930 . S
H113 C85 0.929 . S
H114 C87 0.930 . S
H115 C88 0.929 . S
H116 C93 0.930 . S
H117 C94 0.929 . S
H118 C96 0.930 1_545 S
H119 C97 0.929 . S
Sm120 C122 2.846 . S
Sm120 O140 2.543 . S
Sm120 O141 2.450 . S
Sm120 O142 2.681 . S
Sm120 O143 2.464 . S
Sm120 O144 2.396 . S
Sm120 O148 2.386 . S
Sm120 O151 2.408 . S
Sm121 C131 2.846 . S
Sm121 O142 2.386 . S
Sm121 O145 2.408 . S
Sm121 O146 2.543 . S
Sm121 O147 2.450 . S
Sm121 O148 2.681 . S
Sm121 O149 2.464 . S
Sm121 O150 2.396 . S
C122 Sm120 2.846 . S
C122 C123 1.506 . S
C122 O140 1.261 . S
C122 O141 1.242 . S
C123 C122 1.506 . S
C123 C124 1.358 . S
C123 C128 1.382 1_655 S
C124 C123 1.358 . S
C124 C125 1.385 . S
C124 H152 0.930 . S
C125 C124 1.385 . S
C125 C126 1.395 1_655 S
C125 H153 0.929 . S
C126 C125 1.395 1_455 S
C126 C127 1.335 . S
C127 C126 1.335 . S
C127 C128 1.398 . S
C127 H154 0.930 . S
C128 C123 1.382 1_455 S
C128 C127 1.398 . S
C128 H155 0.929 . S
C129 O142 1.271 . S
C129 O143 1.251 . S
C130 O144 1.252 . S
C130 O145 1.272 . S
C131 Sm121 2.846 . S
C131 C132 1.506 . S
C131 O146 1.261 . S
C131 O147 1.242 . S
C132 C131 1.506 . S
C132 C133 1.358 . S
C132 C137 1.382 . S
C133 C132 1.358 . S
C133 C134 1.385 . S
C133 H156 0.930 . S
C134 C133 1.385 . S
C134 C135 1.395 . S
C134 H157 0.929 . S
C135 C134 1.395 . S
C135 C136 1.335 . S
C136 C135 1.335 . S
C136 C137 1.398 . S
C136 H158 0.930 . S
C137 C132 1.382 . S
C137 C136 1.398 . S
C137 H159 0.929 . S
C138 O148 1.271 . S
C138 O149 1.251 . S
C139 O150 1.252 . S
C139 O151 1.272 . S
O140 Sm120 2.543 . S
O140 C122 1.261 . S
O141 Sm120 2.450 . S
O141 C122 1.242 . S
O142 Sm120 2.681 . S
O142 Sm121 2.386 . S
O142 C129 1.271 . S
O143 Sm120 2.464 . S
O143 C129 1.251 . S
O144 Sm120 2.396 . S
O144 C130 1.252 . S
O145 Sm121 2.408 . S
O145 C130 1.272 . S
O146 Sm121 2.543 . S
O146 C131 1.261 . S
O147 Sm121 2.450 . S
O147 C131 1.242 . S
O148 Sm120 2.386 . S
O148 Sm121 2.681 . S
O148 C138 1.271 . S
O149 Sm121 2.464 . S
O149 C138 1.251 . S
O150 Sm121 2.396 . S
O150 C139 1.252 . S
O151 Sm120 2.408 . S
O151 C139 1.272 . S
H152 C124 0.930 . S
H153 C125 0.929 . S
H154 C127 0.930 . S
H155 C128 0.929 . S
H156 C133 0.930 . S
H157 C134 0.929 . S
H158 C136 0.930 . S
H159 C137 0.929 . S
Sm160 C162 2.846 . S
Sm160 O180 2.543 . S
Sm160 O181 2.450 . S
Sm160 O182 2.681 . S
Sm160 O183 2.464 . S
Sm160 O184 2.396 . S
Sm160 O188 2.386 . S
Sm160 O191 2.408 . S
Sm161 C171 2.846 . S
Sm161 O182 2.386 . S
Sm161 O185 2.408 . S
Sm161 O186 2.543 . S
Sm161 O187 2.450 . S
Sm161 O188 2.681 . S
Sm161 O189 2.464 . S
Sm161 O190 2.396 . S
C162 Sm160 2.846 . S
C162 C163 1.506 . S
C162 O180 1.261 . S
C162 O181 1.242 . S
C163 C162 1.506 . S
C163 C164 1.358 . S
C163 C168 1.382 . S
C164 C163 1.358 . S
C164 C165 1.385 . S
C164 H192 0.930 . S
C165 C164 1.385 . S
C165 C166 1.395 . S
C165 H193 0.929 . S
C166 C165 1.395 . S
C166 C167 1.335 . S
C167 C166 1.335 . S
C167 C168 1.398 . S
C167 H194 0.930 1_565 S
C168 C163 1.382 . S
C168 C167 1.398 . S
C168 H195 0.929 . S
C169 O182 1.271 . S
C169 O183 1.251 . S
C170 O184 1.252 . S
C170 O185 1.272 . S
C171 Sm161 2.846 . S
C171 C172 1.506 . S
C171 O186 1.261 . S
C171 O187 1.242 . S
C172 C171 1.506 . S
C172 C173 1.358 . S
C172 C177 1.382 . S
C173 C172 1.358 . S
C173 C174 1.385 . S
C173 H196 0.930 . S
C174 C173 1.385 . S
C174 C175 1.395 . S
C174 H197 0.929 . S
C175 C174 1.395 . S
C175 C176 1.335 . S
C176 C175 1.335 . S
C176 C177 1.398 . S
C176 H198 0.930 . S
C177 C172 1.382 . S
C177 C176 1.398 . S
C177 H199 0.929 . S
C178 O188 1.271 . S
C178 O189 1.251 . S
C179 O190 1.252 . S
C179 O191 1.272 . S
O180 Sm160 2.543 . S
O180 C162 1.261 . S
O181 Sm160 2.450 . S
O181 C162 1.242 . S
O182 Sm160 2.681 . S
O182 Sm161 2.386 . S
O182 C169 1.271 . S
O183 Sm160 2.464 . S
O183 C169 1.251 . S
O184 Sm160 2.396 . S
O184 C170 1.252 . S
O185 Sm161 2.408 . S
O185 C170 1.272 . S
O186 Sm161 2.543 . S
O186 C171 1.261 . S
O187 Sm161 2.450 . S
O187 C171 1.242 . S
O188 Sm160 2.386 . S
O188 Sm161 2.681 . S
O188 C178 1.271 . S
O189 Sm161 2.464 . S
O189 C178 1.251 . S
O190 Sm161 2.396 . S
O190 C179 1.252 . S
O191 Sm160 2.408 . S
O191 C179 1.272 . S
H192 C164 0.930 . S
H193 C165 0.929 . S
H194 C167 0.930 1_545 S
H195 C168 0.929 . S
H196 C173 0.930 . S
H197 C174 0.929 . S
H198 C176 0.930 . S
H199 C177 0.929 . S
Sm200 C202 2.846 . S
Sm200 O220 2.543 . S
Sm200 O221 2.450 . S
Sm200 O222 2.681 . S
Sm200 O223 2.464 . S
Sm200 O224 2.396 . S
Sm200 O228 2.386 . S
Sm200 O231 2.408 . S
Sm201 C211 2.846 . S
Sm201 O222 2.386 . S
Sm201 O225 2.408 . S
Sm201 O226 2.543 . S
Sm201 O227 2.450 . S
Sm201 O228 2.681 . S
Sm201 O229 2.464 . S
Sm201 O230 2.396 . S
C202 Sm200 2.846 . S
C202 C203 1.506 . S
C202 O220 1.261 . S
C202 O221 1.242 . S
C203 C202 1.506 . S
C203 C204 1.358 . S
C203 C208 1.382 . S
C204 C203 1.358 . S
C204 C205 1.385 . S
C204 H232 0.930 . S
C205 C204 1.385 . S
C205 C206 1.395 . S
C205 H233 0.929 . S
C206 C205 1.395 . S
C206 C207 1.335 . S
C207 C206 1.335 . S
C207 C208 1.398 . S
C207 H234 0.930 . S
C208 C203 1.382 . S
C208 C207 1.398 . S
C208 H235 0.929 . S
C209 O222 1.271 . S
C209 O223 1.251 . S
C210 O224 1.252 . S
C210 O225 1.272 . S
C211 Sm201 2.846 . S
C211 C212 1.506 . S
C211 O226 1.261 . S
C211 O227 1.242 . S
C212 C211 1.506 . S
C212 C213 1.358 . S
C212 C217 1.382 . S
C213 C212 1.358 . S
C213 C214 1.385 . S
C213 H236 0.930 . S
C214 C213 1.385 . S
C214 C215 1.395 . S
C214 H237 0.929 . S
C215 C214 1.395 . S
C215 C216 1.335 . S
C216 C215 1.335 . S
C216 C217 1.398 . S
C216 H238 0.930 . S
C217 C212 1.382 . S
C217 C216 1.398 . S
C217 H239 0.929 . S
C218 O228 1.271 . S
C218 O229 1.251 . S
C219 O230 1.252 . S
C219 O231 1.272 . S
O220 Sm200 2.543 . S
O220 C202 1.261 . S
O221 Sm200 2.450 . S
O221 C202 1.242 . S
O222 Sm200 2.681 . S
O222 Sm201 2.386 . S
O222 C209 1.271 . S
O223 Sm200 2.464 . S
O223 C209 1.251 . S
O224 Sm200 2.396 . S
O224 C210 1.252 . S
O225 Sm201 2.408 . S
O225 C210 1.272 . S
O226 Sm201 2.543 . S
O226 C211 1.261 . S
O227 Sm201 2.450 . S
O227 C211 1.242 . S
O228 Sm200 2.386 . S
O228 Sm201 2.681 . S
O228 C218 1.271 . S
O229 Sm201 2.464 . S
O229 C218 1.251 . S
O230 Sm201 2.396 . S
O230 C219 1.252 . S
O231 Sm200 2.408 . S
O231 C219 1.272 . S
H232 C204 0.930 . S
H233 C205 0.929 . S
H234 C207 0.930 . S
H235 C208 0.929 . S
H236 C213 0.930 . S
H237 C214 0.929 . S
H238 C216 0.930 . S
H239 C217 0.929 . S
Sm240 C242 2.846 . S
Sm240 O260 2.543 . S
Sm240 O261 2.450 . S
Sm240 O262 2.681 . S
Sm240 O263 2.464 . S
Sm240 O264 2.396 . S
Sm240 O268 2.386 . S
Sm240 O271 2.408 . S
Sm241 C251 2.846 . S
Sm241 O262 2.386 . S
Sm241 O265 2.408 . S
Sm241 O266 2.543 . S
Sm241 O267 2.450 . S
Sm241 O268 2.681 . S
Sm241 O269 2.464 . S
Sm241 O270 2.396 . S
C242 Sm240 2.846 . S
C242 C243 1.506 . S
C242 O260 1.261 . S
C242 O261 1.242 . S
C243 C242 1.506 . S
C243 C244 1.358 . S
C243 C248 1.382 . S
C244 C243 1.358 . S
C244 C245 1.385 . S
C244 H272 0.930 . S
C245 C244 1.385 . S
C245 C246 1.395 . S
C245 H273 0.929 . S
C246 C245 1.395 . S
C246 C247 1.335 . S
C247 C246 1.335 . S
C247 C248 1.398 . S
C247 H274 0.930 1_545 S
C248 C243 1.382 . S
C248 C247 1.398 . S
C248 H275 0.929 . S
C249 O262 1.271 . S
C249 O263 1.251 . S
C250 O264 1.252 . S
C250 O265 1.272 . S
C251 Sm241 2.846 . S
C251 C252 1.506 . S
C251 O266 1.261 . S
C251 O267 1.242 . S
C252 C251 1.506 . S
C252 C253 1.358 . S
C252 C257 1.382 . S
C253 C252 1.358 . S
C253 C254 1.385 . S
C253 H276 0.930 . S
C254 C253 1.385 . S
C254 C255 1.395 . S
C254 H277 0.929 . S
C255 C254 1.395 . S
C255 C256 1.335 . S
C256 C255 1.335 . S
C256 C257 1.398 . S
C256 H278 0.930 . S
C257 C252 1.382 . S
C257 C256 1.398 . S
C257 H279 0.929 . S
C258 O268 1.271 . S
C258 O269 1.251 . S
C259 O270 1.252 . S
C259 O271 1.272 . S
O260 Sm240 2.543 . S
O260 C242 1.261 . S
O261 Sm240 2.450 . S
O261 C242 1.242 . S
O262 Sm240 2.681 . S
O262 Sm241 2.386 . S
O262 C249 1.271 . S
O263 Sm240 2.464 . S
O263 C249 1.251 . S
O264 Sm240 2.396 . S
O264 C250 1.252 . S
O265 Sm241 2.408 . S
O265 C250 1.272 . S
O266 Sm241 2.543 . S
O266 C251 1.261 . S
O267 Sm241 2.450 . S
O267 C251 1.242 . S
O268 Sm240 2.386 . S
O268 Sm241 2.681 . S
O268 C258 1.271 . S
O269 Sm241 2.464 . S
O269 C258 1.251 . S
O270 Sm241 2.396 . S
O270 C259 1.252 . S
O271 Sm240 2.408 . S
O271 C259 1.272 . S
H272 C244 0.930 . S
H273 C245 0.929 . S
H274 C247 0.930 1_565 S
H275 C248 0.929 . S
H276 C253 0.930 . S
H277 C254 0.929 . S
H278 C256 0.930 . S
H279 C257 0.929 . S
Sm280 C282 2.846 . S
Sm280 O300 2.543 . S
Sm280 O301 2.450 . S
Sm280 O302 2.681 . S
Sm280 O303 2.464 . S
Sm280 O304 2.396 . S
Sm280 O308 2.386 . S
Sm280 O311 2.408 . S
Sm281 C291 2.846 . S
Sm281 O302 2.386 . S
Sm281 O305 2.408 . S
Sm281 O306 2.543 . S
Sm281 O307 2.450 . S
Sm281 O308 2.681 . S
Sm281 O309 2.464 . S
Sm281 O310 2.396 . S
C282 Sm280 2.846 . S
C282 C283 1.506 . S
C282 O300 1.261 . S
C282 O301 1.242 . S
C283 C282 1.506 . S
C283 C284 1.358 . S
C283 C288 1.382 . S
C284 C283 1.358 . S
C284 C285 1.385 . S
C284 H312 0.930 . S
C285 C284 1.385 . S
C285 C286 1.395 . S
C285 H313 0.929 . S
C286 C285 1.395 . S
C286 C287 1.335 . S
C287 C286 1.335 . S
C287 C288 1.398 . S
C287 H314 0.930 . S
C288 C283 1.382 . S
C288 C287 1.398 . S
C288 H315 0.929 . S
C289 O302 1.271 . S
C289 O303 1.251 . S
C290 O304 1.252 . S
C290 O305 1.272 . S
C291 Sm281 2.846 . S
C291 C292 1.506 . S
C291 O306 1.261 . S
C291 O307 1.242 . S
C292 C291 1.506 . S
C292 C293 1.358 . S
C292 C297 1.382 1_455 S
C293 C292 1.358 . S
C293 C294 1.385 . S
C293 H316 0.930 . S
C294 C293 1.385 . S
C294 C295 1.395 1_455 S
C294 H317 0.929 . S
C295 C294 1.395 1_655 S
C295 C296 1.335 . S
C296 C295 1.335 . S
C296 C297 1.398 . S
C296 H318 0.930 . S
C297 C292 1.382 1_655 S
C297 C296 1.398 . S
C297 H319 0.929 . S
C298 O308 1.271 . S
C298 O309 1.251 . S
C299 O310 1.252 . S
C299 O311 1.272 . S
O300 Sm280 2.543 . S
O300 C282 1.261 . S
O301 Sm280 2.450 . S
O301 C282 1.242 . S
O302 Sm280 2.681 . S
O302 Sm281 2.386 . S
O302 C289 1.271 . S
O303 Sm280 2.464 . S
O303 C289 1.251 . S
O304 Sm280 2.396 . S
O304 C290 1.252 . S
O305 Sm281 2.408 . S
O305 C290 1.272 . S
O306 Sm281 2.543 . S
O306 C291 1.261 . S
O307 Sm281 2.450 . S
O307 C291 1.242 . S
O308 Sm280 2.386 . S
O308 Sm281 2.681 . S
O308 C298 1.271 . S
O309 Sm281 2.464 . S
O309 C298 1.251 . S
O310 Sm281 2.396 . S
O310 C299 1.252 . S
O311 Sm280 2.408 . S
O311 C299 1.272 . S
H312 C284 0.930 . S
H313 C285 0.929 . S
H314 C287 0.930 . S
H315 C288 0.929 . S
H316 C293 0.930 . S
H317 C294 0.929 . S
H318 C296 0.930 . S
H319 C297 0.929 . S
Sm320 C322 2.846 . S
Sm320 O340 2.543 . S
Sm320 O341 2.450 . S
Sm320 O342 2.681 . S
Sm320 O343 2.464 . S
Sm320 O344 2.396 . S
Sm320 O348 2.386 . S
Sm320 O351 2.408 . S
Sm321 C331 2.846 . S
Sm321 O342 2.386 . S
Sm321 O345 2.408 . S
Sm321 O346 2.543 . S
Sm321 O347 2.450 . S
Sm321 O348 2.681 . S
Sm321 O349 2.464 . S
Sm321 O350 2.396 . S
C322 Sm320 2.846 . S
C322 C323 1.506 . S
C322 O340 1.261 . S
C322 O341 1.242 . S
C323 C322 1.506 . S
C323 C324 1.358 . S
C323 C328 1.382 . S
C324 C323 1.358 . S
C324 C325 1.385 . S
C324 H352 0.930 . S
C325 C324 1.385 . S
C325 C326 1.395 . S
C325 H353 0.929 . S
C326 C325 1.395 . S
C326 C327 1.335 . S
C327 C326 1.335 . S
C327 C328 1.398 . S
C327 H354 0.930 . S
C328 C323 1.382 . S
C328 C327 1.398 . S
C328 H355 0.929 . S
C329 O342 1.271 . S
C329 O343 1.251 . S
C330 O344 1.252 . S
C330 O345 1.272 . S
C331 Sm321 2.846 . S
C331 C332 1.506 . S
C331 O346 1.261 . S
C331 O347 1.242 . S
C332 C331 1.506 . S
C332 C333 1.358 . S
C332 C337 1.382 . S
C333 C332 1.358 . S
C333 C334 1.385 . S
C333 H356 0.930 . S
C334 C333 1.385 . S
C334 C335 1.395 . S
C334 H357 0.929 . S
C335 C334 1.395 . S
C335 C336 1.335 . S
C336 C335 1.335 . S
C336 C337 1.398 . S
C336 H358 0.930 . S
C337 C332 1.382 . S
C337 C336 1.398 . S
C337 H359 0.929 . S
C338 O348 1.271 . S
C338 O349 1.251 . S
C339 O350 1.252 . S
C339 O351 1.272 . S
O340 Sm320 2.543 . S
O340 C322 1.261 . S
O341 Sm320 2.450 . S
O341 C322 1.242 . S
O342 Sm320 2.681 . S
O342 Sm321 2.386 . S
O342 C329 1.271 . S
O343 Sm320 2.464 . S
O343 C329 1.251 . S
O344 Sm320 2.396 . S
O344 C330 1.252 . S
O345 Sm321 2.408 . S
O345 C330 1.272 . S
O346 Sm321 2.543 . S
O346 C331 1.261 . S
O347 Sm321 2.450 . S
O347 C331 1.242 . S
O348 Sm320 2.386 . S
O348 Sm321 2.681 . S
O348 C338 1.271 . S
O349 Sm321 2.464 . S
O349 C338 1.251 . S
O350 Sm321 2.396 . S
O350 C339 1.252 . S
O351 Sm320 2.408 . S
O351 C339 1.272 . S
H352 C324 0.930 . S
H353 C325 0.929 . S
H354 C327 0.930 . S
H355 C328 0.929 . S
H356 C333 0.930 . S
H357 C334 0.929 . S
H358 C336 0.930 . S
H359 C337 0.929 . S
Sm360 C362 2.846 . S
Sm360 O380 2.543 . S
Sm360 O381 2.450 . S
Sm360 O382 2.681 . S
Sm360 O383 2.464 . S
Sm360 O384 2.396 . S
Sm360 O388 2.386 . S
Sm360 O391 2.408 . S
Sm361 C371 2.846 . S
Sm361 O382 2.386 . S
Sm361 O385 2.408 . S
Sm361 O386 2.543 . S
Sm361 O387 2.450 . S
Sm361 O388 2.681 . S
Sm361 O389 2.464 . S
Sm361 O390 2.396 . S
C362 Sm360 2.846 . S
C362 C363 1.506 . S
C362 O380 1.261 . S
C362 O381 1.242 . S
C363 C362 1.506 . S
C363 C364 1.358 1_545 S
C363 C368 1.382 1_455 S
C364 C363 1.358 1_565 S
C364 C365 1.385 . S
C364 H392 0.930 . S
C365 C364 1.385 . S
C365 C366 1.395 1_455 S
C365 H393 0.929 . S
C366 C365 1.395 1_655 S
C366 C367 1.335 1_565 S
C367 C366 1.335 1_545 S
C367 C368 1.398 . S
C367 H394 0.930 . S
C368 C363 1.382 1_655 S
C368 C367 1.398 . S
C368 H395 0.929 . S
C369 O382 1.271 . S
C369 O383 1.251 . S
C370 O384 1.252 . S
C370 O385 1.272 . S
C371 Sm361 2.846 . S
C371 C372 1.506 . S
C371 O386 1.261 . S
C371 O387 1.242 . S
C372 C371 1.506 . S
C372 C373 1.358 . S
C372 C377 1.382 . S
C373 C372 1.358 . S
C373 C374 1.385 . S
C373 H396 0.930 . S
C374 C373 1.385 . S
C374 C375 1.395 . S
C374 H397 0.929 . S
C375 C374 1.395 . S
C375 C376 1.335 . S
C376 C375 1.335 . S
C376 C377 1.398 . S
C376 H398 0.930 . S
C377 C372 1.382 . S
C377 C376 1.398 . S
C377 H399 0.929 . S
C378 O388 1.271 . S
C378 O389 1.251 . S
C379 O390 1.252 . S
C379 O391 1.272 . S
O380 Sm360 2.543 . S
O380 C362 1.261 . S
O381 Sm360 2.450 . S
O381 C362 1.242 . S
O382 Sm360 2.681 . S
O382 Sm361 2.386 . S
O382 C369 1.271 . S
O383 Sm360 2.464 . S
O383 C369 1.251 . S
O384 Sm360 2.396 . S
O384 C370 1.252 . S
O385 Sm361 2.408 . S
O385 C370 1.272 . S
O386 Sm361 2.543 . S
O386 C371 1.261 . S
O387 Sm361 2.450 . S
O387 C371 1.242 . S
O388 Sm360 2.386 . S
O388 Sm361 2.681 . S
O388 C378 1.271 . S
O389 Sm361 2.464 . S
O389 C378 1.251 . S
O390 Sm361 2.396 . S
O390 C379 1.252 . S
O391 Sm360 2.408 . S
O391 C379 1.272 . S
H392 C364 0.930 . S
H393 C365 0.929 . S
H394 C367 0.930 . S
H395 C368 0.929 . S
H396 C373 0.930 . S
H397 C374 0.929 . S
H398 C376 0.930 . S
H399 C377 0.929 . S
Sm400 C402 2.846 . S
Sm400 O420 2.543 . S
Sm400 O421 2.450 . S
Sm400 O422 2.681 . S
Sm400 O423 2.464 . S
Sm400 O424 2.396 . S
Sm400 O428 2.386 . S
Sm400 O431 2.408 . S
Sm401 C411 2.846 . S
Sm401 O422 2.386 . S
Sm401 O425 2.408 . S
Sm401 O426 2.543 . S
Sm401 O427 2.450 . S
Sm401 O428 2.681 . S
Sm401 O429 2.464 . S
Sm401 O430 2.396 . S
C402 Sm400 2.846 . S
C402 C403 1.506 . S
C402 O420 1.261 . S
C402 O421 1.242 . S
C403 C402 1.506 . S
C403 C404 1.358 . S
C403 C408 1.382 . S
C404 C403 1.358 . S
C404 C405 1.385 . S
C404 H432 0.930 . S
C405 C404 1.385 . S
C405 C406 1.395 . S
C405 H433 0.929 . S
C406 C405 1.395 . S
C406 C407 1.335 . S
C407 C406 1.335 . S
C407 C408 1.398 . S
C407 H434 0.930 . S
C408 C403 1.382 . S
C408 C407 1.398 . S
C408 H435 0.929 . S
C409 O422 1.271 . S
C409 O423 1.251 . S
C410 O424 1.252 . S
C410 O425 1.272 . S
C411 Sm401 2.846 . S
C411 C412 1.506 . S
C411 O426 1.261 . S
C411 O427 1.242 . S
C412 C411 1.506 . S
C412 C413 1.358 . S
C412 C417 1.382 . S
C413 C412 1.358 . S
C413 C414 1.385 . S
C413 H436 0.930 . S
C414 C413 1.385 . S
C414 C415 1.395 . S
C414 H437 0.929 . S
C415 C414 1.395 . S
C415 C416 1.335 . S
C416 C415 1.335 . S
C416 C417 1.398 . S
C416 H438 0.930 . S
C417 C412 1.382 . S
C417 C416 1.398 . S
C417 H439 0.929 . S
C418 O428 1.271 . S
C418 O429 1.251 . S
C419 O430 1.252 . S
C419 O431 1.272 . S
O420 Sm400 2.543 . S
O420 C402 1.261 . S
O421 Sm400 2.450 . S
O421 C402 1.242 . S
O422 Sm400 2.681 . S
O422 Sm401 2.386 . S
O422 C409 1.271 . S
O423 Sm400 2.464 . S
O423 C409 1.251 . S
O424 Sm400 2.396 . S
O424 C410 1.252 . S
O425 Sm401 2.408 . S
O425 C410 1.272 . S
O426 Sm401 2.543 . S
O426 C411 1.261 . S
O427 Sm401 2.450 . S
O427 C411 1.242 . S
O428 Sm400 2.386 . S
O428 Sm401 2.681 . S
O428 C418 1.271 . S
O429 Sm401 2.464 . S
O429 C418 1.251 . S
O430 Sm401 2.396 . S
O430 C419 1.252 . S
O431 Sm400 2.408 . S
O431 C419 1.272 . S
H432 C404 0.930 . S
H433 C405 0.929 . S
H434 C407 0.930 . S
H435 C408 0.929 . S
H436 C413 0.930 . S
H437 C414 0.929 . S
H438 C416 0.930 . S
H439 C417 0.929 . S
Sm440 C442 2.846 . S
Sm440 O460 2.543 . S
Sm440 O461 2.450 . S
Sm440 O462 2.681 . S
Sm440 O463 2.464 . S
Sm440 O464 2.396 . S
Sm440 O468 2.386 . S
Sm440 O471 2.408 . S
Sm441 C451 2.846 . S
Sm441 O462 2.386 . S
Sm441 O465 2.408 . S
Sm441 O466 2.543 . S
Sm441 O467 2.450 . S
Sm441 O468 2.681 . S
Sm441 O469 2.464 . S
Sm441 O470 2.396 . S
C442 Sm440 2.846 . S
C442 C443 1.506 . S
C442 O460 1.261 . S
C442 O461 1.242 . S
C443 C442 1.506 . S
C443 C444 1.358 1_565 S
C443 C448 1.382 . S
C444 C443 1.358 1_545 S
C444 C445 1.385 . S
C444 H472 0.930 . S
C445 C444 1.385 . S
C445 C446 1.395 . S
C445 H473 0.929 . S
C446 C445 1.395 . S
C446 C447 1.335 1_545 S
C447 C446 1.335 1_565 S
C447 C448 1.398 . S
C447 H474 0.930 . S
C448 C443 1.382 . S
C448 C447 1.398 . S
C448 H475 0.929 . S
C449 O462 1.271 . S
C449 O463 1.251 . S
C450 O464 1.252 . S
C450 O465 1.272 . S
C451 Sm441 2.846 . S
C451 C452 1.506 . S
C451 O466 1.261 . S
C451 O467 1.242 . S
C452 C451 1.506 . S
C452 C453 1.358 . S
C452 C457 1.382 . S
C453 C452 1.358 . S
C453 C454 1.385 . S
C453 H476 0.930 . S
C454 C453 1.385 . S
C454 C455 1.395 . S
C454 H477 0.929 . S
C455 C454 1.395 . S
C455 C456 1.335 . S
C456 C455 1.335 . S
C456 C457 1.398 . S
C456 H478 0.930 . S
C457 C452 1.382 . S
C457 C456 1.398 . S
C457 H479 0.929 . S
C458 O468 1.271 . S
C458 O469 1.251 . S
C459 O470 1.252 . S
C459 O471 1.272 . S
O460 Sm440 2.543 . S
O460 C442 1.261 . S
O461 Sm440 2.450 . S
O461 C442 1.242 . S
O462 Sm440 2.681 . S
O462 Sm441 2.386 . S
O462 C449 1.271 . S
O463 Sm440 2.464 . S
O463 C449 1.251 . S
O464 Sm440 2.396 . S
O464 C450 1.252 . S
O465 Sm441 2.408 . S
O465 C450 1.272 . S
O466 Sm441 2.543 . S
O466 C451 1.261 . S
O467 Sm441 2.450 . S
O467 C451 1.242 . S
O468 Sm440 2.386 . S
O468 Sm441 2.681 . S
O468 C458 1.271 . S
O469 Sm441 2.464 . S
O469 C458 1.251 . S
O470 Sm441 2.396 . S
O470 C459 1.252 . S
O471 Sm440 2.408 . S
O471 C459 1.272 . S
H472 C444 0.930 . S
H473 C445 0.929 . S
H474 C447 0.930 . S
H475 C448 0.929 . S
H476 C453 0.930 . S
H477 C454 0.929 . S
H478 C456 0.930 . S
H479 C457 0.929 . S
Sm480 C482 2.846 . S
Sm480 O500 2.543 . S
Sm480 O501 2.450 . S
Sm480 O502 2.681 . S
Sm480 O503 2.464 . S
Sm480 O504 2.396 . S
Sm480 O508 2.386 . S
Sm480 O511 2.408 . S
Sm481 C491 2.846 . S
Sm481 O502 2.386 . S
Sm481 O505 2.408 . S
Sm481 O506 2.543 . S
Sm481 O507 2.450 . S
Sm481 O508 2.681 . S
Sm481 O509 2.464 . S
Sm481 O510 2.396 . S
C482 Sm480 2.846 . S
C482 C483 1.506 . S
C482 O500 1.261 . S
C482 O501 1.242 . S
C483 C482 1.506 . S
C483 C484 1.358 . S
C483 C488 1.382 . S
C484 C483 1.358 . S
C484 C485 1.385 . S
C484 H512 0.930 . S
C485 C484 1.385 . S
C485 C486 1.395 . S
C485 H513 0.929 . S
C486 C485 1.395 . S
C486 C487 1.335 . S
C487 C486 1.335 . S
C487 C488 1.398 . S
C487 H514 0.930 . S
C488 C483 1.382 . S
C488 C487 1.398 . S
C488 H515 0.929 . S
C489 O502 1.271 . S
C489 O503 1.251 . S
C490 O504 1.252 . S
C490 O505 1.272 . S
C491 Sm481 2.846 . S
C491 C492 1.506 . S
C491 O506 1.261 . S
C491 O507 1.242 . S
C492 C491 1.506 . S
C492 C493 1.358 . S
C492 C497 1.382 . S
C493 C492 1.358 . S
C493 C494 1.385 . S
C493 H516 0.930 . S
C494 C493 1.385 . S
C494 C495 1.395 . S
C494 H517 0.929 . S
C495 C494 1.395 . S
C495 C496 1.335 . S
C496 C495 1.335 . S
C496 C497 1.398 . S
C496 H518 0.930 . S
C497 C492 1.382 . S
C497 C496 1.398 . S
C497 H519 0.929 . S
C498 O508 1.271 . S
C498 O509 1.251 . S
C499 O510 1.252 . S
C499 O511 1.272 . S
O500 Sm480 2.543 . S
O500 C482 1.261 . S
O501 Sm480 2.450 . S
O501 C482 1.242 . S
O502 Sm480 2.681 . S
O502 Sm481 2.386 . S
O502 C489 1.271 . S
O503 Sm480 2.464 . S
O503 C489 1.251 . S
O504 Sm480 2.396 . S
O504 C490 1.252 . S
O505 Sm481 2.408 . S
O505 C490 1.272 . S
O506 Sm481 2.543 . S
O506 C491 1.261 . S
O507 Sm481 2.450 . S
O507 C491 1.242 . S
O508 Sm480 2.386 . S
O508 Sm481 2.681 . S
O508 C498 1.271 . S
O509 Sm481 2.464 . S
O509 C498 1.251 . S
O510 Sm481 2.396 . S
O510 C499 1.252 . S
O511 Sm480 2.408 . S
O511 C499 1.272 . S
H512 C484 0.930 . S
H513 C485 0.929 . S
H514 C487 0.930 . S
H515 C488 0.929 . S
H516 C493 0.930 . S
H517 C494 0.929 . S
H518 C496 0.930 . S
H519 C497 0.929 . S
Sm520 C522 2.846 . S
Sm520 O540 2.543 . S
Sm520 O541 2.450 . S
Sm520 O542 2.681 . S
Sm520 O543 2.464 . S
Sm520 O544 2.396 . S
Sm520 O548 2.386 . S
Sm520 O551 2.408 . S
Sm521 C531 2.846 . S
Sm521 O542 2.386 . S
Sm521 O545 2.408 . S
Sm521 O546 2.543 . S
Sm521 O547 2.450 . S
Sm521 O548 2.681 . S
Sm521 O549 2.464 . S
Sm521 O550 2.396 . S
C522 Sm520 2.846 . S
C522 C523 1.506 . S
C522 O540 1.261 . S
C522 O541 1.242 . S
C523 C522 1.506 . S
C523 C524 1.358 . S
C523 C528 1.382 . S
C524 C523 1.358 . S
C524 C525 1.385 . S
C524 H552 0.930 . S
C525 C524 1.385 . S
C525 C526 1.395 . S
C525 H553 0.929 . S
C526 C525 1.395 . S
C526 C527 1.335 . S
C527 C526 1.335 . S
C527 C528 1.398 . S
C527 H554 0.930 . S
C528 C523 1.382 . S
C528 C527 1.398 . S
C528 H555 0.929 . S
C529 O542 1.271 . S
C529 O543 1.251 . S
C530 O544 1.252 . S
C530 O545 1.272 . S
C531 Sm521 2.846 . S
C531 C532 1.506 . S
C531 O546 1.261 . S
C531 O547 1.242 . S
C532 C531 1.506 . S
C532 C533 1.358 1_565 S
C532 C537 1.382 1_655 S
C533 C532 1.358 1_545 S
C533 C534 1.385 . S
C533 H556 0.930 . S
C534 C533 1.385 . S
C534 C535 1.395 1_655 S
C534 H557 0.929 . S
C535 C534 1.395 1_455 S
C535 C536 1.335 1_545 S
C536 C535 1.335 1_565 S
C536 C537 1.398 . S
C536 H558 0.930 . S
C537 C532 1.382 1_455 S
C537 C536 1.398 . S
C537 H559 0.929 . S
C538 O548 1.271 . S
C538 O549 1.251 . S
C539 O550 1.252 . S
C539 O551 1.272 . S
O540 Sm520 2.543 . S
O540 C522 1.261 . S
O541 Sm520 2.450 . S
O541 C522 1.242 . S
O542 Sm520 2.681 . S
O542 Sm521 2.386 . S
O542 C529 1.271 . S
O543 Sm520 2.464 . S
O543 C529 1.251 . S
O544 Sm520 2.396 . S
O544 C530 1.252 . S
O545 Sm521 2.408 . S
O545 C530 1.272 . S
O546 Sm521 2.543 . S
O546 C531 1.261 . S
O547 Sm521 2.450 . S
O547 C531 1.242 . S
O548 Sm520 2.386 . S
O548 Sm521 2.681 . S
O548 C538 1.271 . S
O549 Sm521 2.464 . S
O549 C538 1.251 . S
O550 Sm521 2.396 . S
O550 C539 1.252 . S
O551 Sm520 2.408 . S
O551 C539 1.272 . S
H552 C524 0.930 . S
H553 C525 0.929 . S
H554 C527 0.930 . S
H555 C528 0.929 . S
H556 C533 0.930 . S
H557 C534 0.929 . S
H558 C536 0.930 . S
H559 C537 0.929 . S
Sm560 C562 2.846 . S
Sm560 O580 2.543 . S
Sm560 O581 2.450 . S
Sm560 O582 2.681 . S
Sm560 O583 2.464 . S
Sm560 O584 2.396 . S
Sm560 O588 2.386 . S
Sm560 O591 2.408 . S
Sm561 C571 2.846 . S
Sm561 O582 2.386 . S
Sm561 O585 2.408 . S
Sm561 O586 2.543 . S
Sm561 O587 2.450 . S
Sm561 O588 2.681 . S
Sm561 O589 2.464 . S
Sm561 O590 2.396 . S
C562 Sm560 2.846 . S
C562 C563 1.506 . S
C562 O580 1.261 . S
C562 O581 1.242 . S
C563 C562 1.506 . S
C563 C564 1.358 . S
C563 C568 1.382 . S
C564 C563 1.358 . S
C564 C565 1.385 . S
C564 H592 0.930 . S
C565 C564 1.385 . S
C565 C566 1.395 . S
C565 H593 0.929 . S
C566 C565 1.395 . S
C566 C567 1.335 . S
C567 C566 1.335 . S
C567 C568 1.398 . S
C567 H594 0.930 . S
C568 C563 1.382 . S
C568 C567 1.398 . S
C568 H595 0.929 . S
C569 O582 1.271 . S
C569 O583 1.251 . S
C570 O584 1.252 . S
C570 O585 1.272 . S
C571 Sm561 2.846 . S
C571 C572 1.506 . S
C571 O586 1.261 . S
C571 O587 1.242 . S
C572 C571 1.506 . S
C572 C573 1.358 . S
C572 C577 1.382 . S
C573 C572 1.358 . S
C573 C574 1.385 . S
C573 H596 0.930 . S
C574 C573 1.385 . S
C574 C575 1.395 . S
C574 H597 0.929 . S
C575 C574 1.395 . S
C575 C576 1.335 . S
C576 C575 1.335 . S
C576 C577 1.398 . S
C576 H598 0.930 . S
C577 C572 1.382 . S
C577 C576 1.398 . S
C577 H599 0.929 . S
C578 O588 1.271 . S
C578 O589 1.251 . S
C579 O590 1.252 . S
C579 O591 1.272 . S
O580 Sm560 2.543 . S
O580 C562 1.261 . S
O581 Sm560 2.450 . S
O581 C562 1.242 . S
O582 Sm560 2.681 . S
O582 Sm561 2.386 . S
O582 C569 1.271 . S
O583 Sm560 2.464 . S
O583 C569 1.251 . S
O584 Sm560 2.396 . S
O584 C570 1.252 . S
O585 Sm561 2.408 . S
O585 C570 1.272 . S
O586 Sm561 2.543 . S
O586 C571 1.261 . S
O587 Sm561 2.450 . S
O587 C571 1.242 . S
O588 Sm560 2.386 . S
O588 Sm561 2.681 . S
O588 C578 1.271 . S
O589 Sm561 2.464 . S
O589 C578 1.251 . S
O590 Sm561 2.396 . S
O590 C579 1.252 . S
O591 Sm560 2.408 . S
O591 C579 1.272 . S
H592 C564 0.930 . S
H593 C565 0.929 . S
H594 C567 0.930 . S
H595 C568 0.929 . S
H596 C573 0.930 . S
H597 C574 0.929 . S
H598 C576 0.930 . S
H599 C577 0.929 . S
Sm600 C602 2.846 . S
Sm600 O620 2.543 . S
Sm600 O621 2.450 . S
Sm600 O622 2.681 . S
Sm600 O623 2.464 . S
Sm600 O624 2.396 . S
Sm600 O628 2.386 . S
Sm600 O631 2.408 . S
Sm601 C611 2.846 . S
Sm601 O622 2.386 . S
Sm601 O625 2.408 . S
Sm601 O626 2.543 . S
Sm601 O627 2.450 . S
Sm601 O628 2.681 . S
Sm601 O629 2.464 . S
Sm601 O630 2.396 . S
C602 Sm600 2.846 . S
C602 C603 1.506 . S
C602 O620 1.261 . S
C602 O621 1.242 . S
C603 C602 1.506 . S
C603 C604 1.358 . S
C603 C608 1.382 . S
C604 C603 1.358 . S
C604 C605 1.385 . S
C604 H632 0.930 . S
C605 C604 1.385 . S
C605 C606 1.395 . S
C605 H633 0.929 . S
C606 C605 1.395 . S
C606 C607 1.335 . S
C607 C606 1.335 . S
C607 C608 1.398 . S
C607 H634 0.930 . S
C608 C603 1.382 . S
C608 C607 1.398 . S
C608 H635 0.929 . S
C609 O622 1.271 . S
C609 O623 1.251 . S
C610 O624 1.252 . S
C610 O625 1.272 . S
C611 Sm601 2.846 . S
C611 C612 1.506 . S
C611 O626 1.261 . S
C611 O627 1.242 . S
C612 C611 1.506 . S
C612 C613 1.358 1_545 S
C612 C617 1.382 . S
C613 C612 1.358 1_565 S
C613 C614 1.385 . S
C613 H636 0.930 . S
C614 C613 1.385 . S
C614 C615 1.395 . S
C614 H637 0.929 . S
C615 C614 1.395 . S
C615 C616 1.335 1_565 S
C616 C615 1.335 1_545 S
C616 C617 1.398 . S
C616 H638 0.930 . S
C617 C612 1.382 . S
C617 C616 1.398 . S
C617 H639 0.929 . S
C618 O628 1.271 . S
C618 O629 1.251 . S
C619 O630 1.252 . S
C619 O631 1.272 . S
O620 Sm600 2.543 . S
O620 C602 1.261 . S
O621 Sm600 2.450 . S
O621 C602 1.242 . S
O622 Sm600 2.681 . S
O622 Sm601 2.386 . S
O622 C609 1.271 . S
O623 Sm600 2.464 . S
O623 C609 1.251 . S
O624 Sm600 2.396 . S
O624 C610 1.252 . S
O625 Sm601 2.408 . S
O625 C610 1.272 . S
O626 Sm601 2.543 . S
O626 C611 1.261 . S
O627 Sm601 2.450 . S
O627 C611 1.242 . S
O628 Sm600 2.386 . S
O628 Sm601 2.681 . S
O628 C618 1.271 . S
O629 Sm601 2.464 . S
O629 C618 1.251 . S
O630 Sm601 2.396 . S
O630 C619 1.252 . S
O631 Sm600 2.408 . S
O631 C619 1.272 . S
H632 C604 0.930 . S
H633 C605 0.929 . S
H634 C607 0.930 . S
H635 C608 0.929 . S
H636 C613 0.930 . S
H637 C614 0.929 . S
H638 C616 0.930 . S
H639 C617 0.929 . S
C640 C641 1.349 . S
C640 C642 1.327 . S
C640 H665 0.950 . S
C641 C640 1.349 . S
C641 C657 1.349 . S
C642 C640 1.327 . S
C642 C661 1.429 . S
C642 H666 0.950 . S
C643 C660 1.574 . S
C643 C662 1.368 . S
C643 H667 0.949 . S
H644 C648 0.949 . S
C645 C646 1.349 . S
C645 C647 1.327 . S
C645 H668 0.950 . S
C646 C645 1.349 . S
C646 C658 1.349 . S
C647 C645 1.327 . S
C647 C663 1.429 . S
C647 H669 0.950 . S
C648 H644 0.949 . S
C648 C656 1.574 . S
C648 C664 1.368 . S
H649 C657 0.950 . S
H650 C655 0.950 . S
H651 C656 0.949 . S
H652 C658 0.950 . S
H653 C659 0.950 . S
H654 C660 0.949 . S
C655 H650 0.950 . S
C655 C657 1.327 . S
C655 C661 1.429 . S
C656 C648 1.574 . S
C656 H651 0.949 . S
C656 C662 1.368 . S
C657 C641 1.349 . S
C657 H649 0.950 . S
C657 C655 1.327 . S
C658 C646 1.349 . S
C658 H652 0.950 . S
C658 C659 1.327 . S
C659 H653 0.950 . S
C659 C658 1.327 . S
C659 C663 1.429 . S
C660 C643 1.574 . S
C660 H654 0.949 . S
C660 C664 1.368 . S
C661 C642 1.429 . S
C661 C655 1.429 . S
C661 C662 1.523 . S
C662 C643 1.368 . S
C662 C656 1.368 . S
C662 C661 1.523 . S
C663 C647 1.429 . S
C663 C659 1.429 . S
C663 C664 1.523 . S
C664 C648 1.368 . S
C664 C660 1.368 . S
C664 C663 1.523 . S
H665 C640 0.950 . S
H666 C642 0.950 . S
H667 C643 0.949 . S
H668 C645 0.950 . S
H669 C647 0.950 . S
C670 C671 1.349 . S
C670 C672 1.327 . S
C670 H695 0.950 . S
C671 C670 1.349 . S
C671 C687 1.349 . S
C672 C670 1.327 . S
C672 C691 1.429 . S
C672 H696 0.950 . S
C673 C690 1.574 . S
C673 C692 1.368 . S
C673 H697 0.949 . S
H674 C678 0.949 . S
C675 C676 1.349 . S
C675 C677 1.327 . S
C675 H698 0.950 . S
C676 C675 1.349 . S
C676 C688 1.349 . S
C677 C675 1.327 . S
C677 C693 1.429 . S
C677 H699 0.950 . S
C678 H674 0.949 . S
C678 C686 1.574 . S
C678 C694 1.368 . S
H679 C687 0.950 . S
H680 C685 0.950 . S
H681 C686 0.949 . S
H682 C688 0.950 . S
H683 C689 0.950 . S
H684 C690 0.949 . S
C685 H680 0.950 . S
C685 C687 1.327 . S
C685 C691 1.429 . S
C686 C678 1.574 . S
C686 H681 0.949 . S
C686 C692 1.368 . S
C687 C671 1.349 . S
C687 H679 0.950 . S
C687 C685 1.327 . S
C688 C676 1.349 . S
C688 H682 0.950 . S
C688 C689 1.327 . S
C689 H683 0.950 . S
C689 C688 1.327 . S
C689 C693 1.429 . S
C690 C673 1.574 . S
C690 H684 0.949 . S
C690 C694 1.368 . S
C691 C672 1.429 . S
C691 C685 1.429 . S
C691 C692 1.523 . S
C692 C673 1.368 . S
C692 C686 1.368 . S
C692 C691 1.523 . S
C693 C677 1.429 . S
C693 C689 1.429 . S
C693 C694 1.523 . S
C694 C678 1.368 . S
C694 C690 1.368 . S
C694 C693 1.523 . S
H695 C670 0.950 . S
H696 C672 0.950 . S
H697 C673 0.949 . S
H698 C675 0.950 . S
H699 C677 0.950 . S
C700 C701 1.349 . S
C700 C702 1.327 . S
C700 H725 0.950 . S
C701 C700 1.349 . S
C701 C717 1.349 . S
C702 C700 1.327 . S
C702 C721 1.429 . S
C702 H726 0.950 . S
C703 C720 1.574 1_455 S
C703 C722 1.368 . S
C703 H727 0.949 . S
H704 C708 0.949 . S
C705 C706 1.349 . S
C705 C707 1.327 . S
C705 H728 0.950 . S
C706 C705 1.349 . S
C706 C718 1.349 . S
C707 C705 1.327 . S
C707 C723 1.429 . S
C707 H729 0.950 . S
C708 H704 0.949 . S
C708 C716 1.574 1_655 S
C708 C724 1.368 . S
H709 C717 0.950 . S
H710 C715 0.950 . S
H711 C716 0.949 . S
H712 C718 0.950 . S
H713 C719 0.950 . S
H714 C720 0.949 . S
C715 H710 0.950 . S
C715 C717 1.327 . S
C715 C721 1.429 . S
C716 C708 1.574 1_455 S
C716 H711 0.949 . S
C716 C722 1.368 . S
C717 C701 1.349 . S
C717 H709 0.950 . S
C717 C715 1.327 . S
C718 C706 1.349 . S
C718 H712 0.950 . S
C718 C719 1.327 . S
C719 H713 0.950 . S
C719 C718 1.327 . S
C719 C723 1.429 . S
C720 C703 1.574 1_655 S
C720 H714 0.949 . S
C720 C724 1.368 . S
C721 C702 1.429 . S
C721 C715 1.429 . S
C721 C722 1.523 . S
C722 C703 1.368 . S
C722 C716 1.368 . S
C722 C721 1.523 . S
C723 C707 1.429 . S
C723 C719 1.429 . S
C723 C724 1.523 . S
C724 C708 1.368 . S
C724 C720 1.368 . S
C724 C723 1.523 . S
H725 C700 0.950 . S
H726 C702 0.950 . S
H727 C703 0.949 . S
H728 C705 0.950 . S
H729 C707 0.950 . S
C730 C731 1.349 . S
C730 C732 1.327 . S
C730 H755 0.950 . S
C731 C730 1.349 . S
C731 C747 1.349 . S
C732 C730 1.327 . S
C732 C751 1.429 . S
C732 H756 0.950 . S
C733 C750 1.574 . S
C733 C752 1.368 . S
C733 H757 0.949 . S
H734 C738 0.949 . S
C735 C736 1.349 . S
C735 C737 1.327 . S
C735 H758 0.950 . S
C736 C735 1.349 . S
C736 C748 1.349 . S
C737 C735 1.327 . S
C737 C753 1.429 . S
C737 H759 0.950 . S
C738 H734 0.949 . S
C738 C746 1.574 . S
C738 C754 1.368 . S
H739 C747 0.950 . S
H740 C745 0.950 . S
H741 C746 0.949 . S
H742 C748 0.950 . S
H743 C749 0.950 . S
H744 C750 0.949 . S
C745 H740 0.950 . S
C745 C747 1.327 . S
C745 C751 1.429 . S
C746 C738 1.574 . S
C746 H741 0.949 . S
C746 C752 1.368 1_655 S
C747 C731 1.349 . S
C747 H739 0.950 . S
C747 C745 1.327 . S
C748 C736 1.349 . S
C748 H742 0.950 . S
C748 C749 1.327 . S
C749 H743 0.950 . S
C749 C748 1.327 . S
C749 C753 1.429 . S
C750 C733 1.574 . S
C750 H744 0.949 . S
C750 C754 1.368 1_455 S
C751 C732 1.429 . S
C751 C745 1.429 . S
C751 C752 1.523 . S
C752 C733 1.368 . S
C752 C746 1.368 1_455 S
C752 C751 1.523 . S
C753 C737 1.429 . S
C753 C749 1.429 . S
C753 C754 1.523 . S
C754 C738 1.368 . S
C754 C750 1.368 1_655 S
C754 C753 1.523 . S
H755 C730 0.950 . S
H756 C732 0.950 . S
H757 C733 0.949 . S
H758 C735 0.950 . S
H759 C737 0.950 . S
C760 C761 1.349 . S
C760 C762 1.327 . S
C760 H785 0.950 . S
C761 C760 1.349 . S
C761 C777 1.349 . S
C762 C760 1.327 . S
C762 C781 1.429 . S
C762 H786 0.950 . S
C763 C780 1.574 . S
C763 C782 1.368 . S
C763 H787 0.949 . S
H764 C768 0.949 . S
C765 C766 1.349 . S
C765 C767 1.327 . S
C765 H788 0.950 . S
C766 C765 1.349 . S
C766 C778 1.349 . S
C767 C765 1.327 . S
C767 C783 1.429 . S
C767 H789 0.950 . S
C768 H764 0.949 . S
C768 C776 1.574 . S
C768 C784 1.368 . S
H769 C777 0.950 . S
H770 C775 0.950 . S
H771 C776 0.949 . S
H772 C778 0.950 . S
H773 C779 0.950 . S
H774 C780 0.949 . S
C775 H770 0.950 . S
C775 C777 1.327 . S
C775 C781 1.429 . S
C776 C768 1.574 . S
C776 H771 0.949 . S
C776 C782 1.368 . S
C777 C761 1.349 . S
C777 H769 0.950 . S
C777 C775 1.327 . S
C778 C766 1.349 . S
C778 H772 0.950 . S
C778 C779 1.327 . S
C779 H773 0.950 . S
C779 C778 1.327 . S
C779 C783 1.429 . S
C780 C763 1.574 . S
C780 H774 0.949 . S
C780 C784 1.368 . S
C781 C762 1.429 . S
C781 C775 1.429 . S
C781 C782 1.523 . S
C782 C763 1.368 . S
C782 C776 1.368 . S
C782 C781 1.523 . S
C783 C767 1.429 . S
C783 C779 1.429 . S
C783 C784 1.523 . S
C784 C768 1.368 . S
C784 C780 1.368 . S
C784 C783 1.523 . S
H785 C760 0.950 . S
H786 C762 0.950 . S
H787 C763 0.949 . S
H788 C765 0.950 . S
H789 C767 0.950 . S
C790 C791 1.349 . S
C790 C792 1.327 . S
C790 H815 0.950 . S
C791 C790 1.349 . S
C791 C807 1.349 . S
C792 C790 1.327 . S
C792 C811 1.429 . S
C792 H816 0.950 . S
C793 C810 1.574 . S
C793 C812 1.368 . S
C793 H817 0.949 . S
H794 C798 0.949 . S
C795 C796 1.349 . S
C795 C797 1.327 . S
C795 H818 0.950 . S
C796 C795 1.349 . S
C796 C808 1.349 . S
C797 C795 1.327 . S
C797 C813 1.429 . S
C797 H819 0.950 . S
C798 H794 0.949 . S
C798 C806 1.574 . S
C798 C814 1.368 . S
H799 C807 0.950 . S
H800 C805 0.950 . S
H801 C806 0.949 . S
H802 C808 0.950 . S
H803 C809 0.950 . S
H804 C810 0.949 . S
C805 H800 0.950 . S
C805 C807 1.327 . S
C805 C811 1.429 . S
C806 C798 1.574 . S
C806 H801 0.949 . S
C806 C812 1.368 . S
C807 C791 1.349 . S
C807 H799 0.950 . S
C807 C805 1.327 . S
C808 C796 1.349 . S
C808 H802 0.950 . S
C808 C809 1.327 . S
C809 H803 0.950 . S
C809 C808 1.327 . S
C809 C813 1.429 . S
C810 C793 1.574 . S
C810 H804 0.949 . S
C810 C814 1.368 . S
C811 C792 1.429 . S
C811 C805 1.429 . S
C811 C812 1.523 . S
C812 C793 1.368 . S
C812 C806 1.368 . S
C812 C811 1.523 . S
C813 C797 1.429 . S
C813 C809 1.429 . S
C813 C814 1.523 . S
C814 C798 1.368 . S
C814 C810 1.368 . S
C814 C813 1.523 . S
H815 C790 0.950 . S
H816 C792 0.950 . S
H817 C793 0.949 . S
H818 C795 0.950 . S
H819 C797 0.950 . S
C820 C821 1.349 . S
C820 C822 1.327 . S
C820 H845 0.950 . S
C821 C820 1.349 . S
C821 C837 1.349 . S
C822 C820 1.327 . S
C822 C841 1.429 . S
C822 H846 0.950 . S
C823 C840 1.574 1_455 S
C823 C842 1.368 . S
C823 H847 0.949 . S
H824 C828 0.949 . S
C825 C826 1.349 . S
C825 C827 1.327 . S
C825 H848 0.950 . S
C826 C825 1.349 . S
C826 C838 1.349 . S
C827 C825 1.327 . S
C827 C843 1.429 . S
C827 H849 0.950 . S
C828 H824 0.949 . S
C828 C836 1.574 1_655 S
C828 C844 1.368 . S
H829 C837 0.950 . S
H830 C835 0.950 . S
H831 C836 0.949 . S
H832 C838 0.950 . S
H833 C839 0.950 . S
H834 C840 0.949 . S
C835 H830 0.950 . S
C835 C837 1.327 . S
C835 C841 1.429 . S
C836 C828 1.574 1_455 S
C836 H831 0.949 . S
C836 C842 1.368 . S
C837 C821 1.349 . S
C837 H829 0.950 . S
C837 C835 1.327 . S
C838 C826 1.349 . S
C838 H832 0.950 . S
C838 C839 1.327 . S
C839 H833 0.950 . S
C839 C838 1.327 . S
C839 C843 1.429 . S
C840 C823 1.574 1_655 S
C840 H834 0.949 . S
C840 C844 1.368 . S
C841 C822 1.429 . S
C841 C835 1.429 . S
C841 C842 1.523 . S
C842 C823 1.368 . S
C842 C836 1.368 . S
C842 C841 1.523 . S
C843 C827 1.429 . S
C843 C839 1.429 . S
C843 C844 1.523 . S
C844 C828 1.368 . S
C844 C840 1.368 . S
C844 C843 1.523 . S
H845 C820 0.950 . S
H846 C822 0.950 . S
H847 C823 0.949 . S
H848 C825 0.950 . S
H849 C827 0.950 . S
C850 C851 1.349 . S
C850 C852 1.327 . S
C850 H875 0.950 . S
C851 C850 1.349 . S
C851 C867 1.349 . S
C852 C850 1.327 . S
C852 C871 1.429 . S
C852 H876 0.950 . S
C853 C870 1.574 . S
C853 C872 1.368 . S
C853 H877 0.949 . S
H854 C858 0.949 . S
C855 C856 1.349 . S
C855 C857 1.327 . S
C855 H878 0.950 . S
C856 C855 1.349 . S
C856 C868 1.349 . S
C857 C855 1.327 . S
C857 C873 1.429 . S
C857 H879 0.950 . S
C858 H854 0.949 . S
C858 C866 1.574 . S
C858 C874 1.368 . S
H859 C867 0.950 . S
H860 C865 0.950 . S
H861 C866 0.949 . S
H862 C868 0.950 . S
H863 C869 0.950 . S
H864 C870 0.949 . S
C865 H860 0.950 . S
C865 C867 1.327 . S
C865 C871 1.429 . S
C866 C858 1.574 . S
C866 H861 0.949 . S
C866 C872 1.368 1_655 S
C867 C851 1.349 . S
C867 H859 0.950 . S
C867 C865 1.327 . S
C868 C856 1.349 . S
C868 H862 0.950 . S
C868 C869 1.327 . S
C869 H863 0.950 . S
C869 C868 1.327 . S
C869 C873 1.429 . S
C870 C853 1.574 . S
C870 H864 0.949 . S
C870 C874 1.368 1_455 S
C871 C852 1.429 . S
C871 C865 1.429 . S
C871 C872 1.523 . S
C872 C853 1.368 . S
C872 C866 1.368 1_455 S
C872 C871 1.523 . S
C873 C857 1.429 . S
C873 C869 1.429 . S
C873 C874 1.523 . S
C874 C858 1.368 . S
C874 C870 1.368 1_655 S
C874 C873 1.523 . S
H875 C850 0.950 . S
H876 C852 0.950 . S
H877 C853 0.949 . S
H878 C855 0.950 . S
H879 C857 0.950 . S
C880 C881 1.349 1_565 S
C880 C882 1.327 . S
C880 H905 0.950 . S
C881 C880 1.349 1_545 S
C881 C897 1.349 . S
C882 C880 1.327 . S
C882 C901 1.429 1_565 S
C882 H906 0.950 . S
C883 C900 1.574 . S
C883 C902 1.368 . S
C883 H907 0.949 . S
H884 C888 0.949 . S
C885 C886 1.349 1_545 S
C885 C887 1.327 . S
C885 H908 0.950 . S
C886 C885 1.349 1_565 S
C886 C898 1.349 . S
C887 C885 1.327 . S
C887 C903 1.429 1_545 S
C887 H909 0.950 . S
C888 H884 0.949 . S
C888 C896 1.574 . S
C888 C904 1.368 . S
H889 C897 0.950 . S
H890 C895 0.950 . S
H891 C896 0.949 . S
H892 C898 0.950 . S
H893 C899 0.950 . S
H894 C900 0.949 . S
C895 H890 0.950 . S
C895 C897 1.327 . S
C895 C901 1.429 . S
C896 C888 1.574 . S
C896 H891 0.949 . S
C896 C902 1.368 1_566 S
C897 C881 1.349 . S
C897 H889 0.950 . S
C897 C895 1.327 . S
C898 C886 1.349 . S
C898 H892 0.950 . S
C898 C899 1.327 . S
C899 H893 0.950 . S
C899 C898 1.327 . S
C899 C903 1.429 . S
C900 C883 1.574 . S
C900 H894 0.949 . S
C900 C904 1.368 1_544 S
C901 C882 1.429 1_545 S
C901 C895 1.429 . S
C901 C902 1.523 . S
C902 C883 1.368 . S
C902 C896 1.368 1_544 S
C902 C901 1.523 . S
C903 C887 1.429 1_565 S
C903 C899 1.429 . S
C903 C904 1.523 . S
C904 C888 1.368 . S
C904 C900 1.368 1_566 S
C904 C903 1.523 . S
H905 C880 0.950 . S
H906 C882 0.950 . S
H907 C883 0.949 . S
H908 C885 0.950 . S
H909 C887 0.950 . S
C910 C911 1.349 . S
C910 C912 1.327 . S
C910 H935 0.950 . S
C911 C910 1.349 . S
C911 C927 1.349 . S
C912 C910 1.327 . S
C912 C931 1.429 . S
C912 H936 0.950 . S
C913 C930 1.574 . S
C913 C932 1.368 . S
C913 H937 0.949 . S
H914 C918 0.949 . S
C915 C916 1.349 . S
C915 C917 1.327 . S
C915 H938 0.950 . S
C916 C915 1.349 . S
C916 C928 1.349 . S
C917 C915 1.327 . S
C917 C933 1.429 . S
C917 H939 0.950 . S
C918 H914 0.949 . S
C918 C926 1.574 . S
C918 C934 1.368 . S
H919 C927 0.950 . S
H920 C925 0.950 . S
H921 C926 0.949 . S
H922 C928 0.950 . S
H923 C929 0.950 . S
H924 C930 0.949 . S
C925 H920 0.950 . S
C925 C927 1.327 . S
C925 C931 1.429 . S
C926 C918 1.574 . S
C926 H921 0.949 . S
C926 C932 1.368 . S
C927 C911 1.349 . S
C927 H919 0.950 . S
C927 C925 1.327 . S
C928 C916 1.349 . S
C928 H922 0.950 . S
C928 C929 1.327 . S
C929 H923 0.950 . S
C929 C928 1.327 . S
C929 C933 1.429 . S
C930 C913 1.574 . S
C930 H924 0.949 . S
C930 C934 1.368 . S
C931 C912 1.429 . S
C931 C925 1.429 . S
C931 C932 1.523 . S
C932 C913 1.368 . S
C932 C926 1.368 . S
C932 C931 1.523 . S
C933 C917 1.429 . S
C933 C929 1.429 . S
C933 C934 1.523 . S
C934 C918 1.368 . S
C934 C930 1.368 . S
C934 C933 1.523 . S
H935 C910 0.950 . S
H936 C912 0.950 . S
H937 C913 0.949 . S
H938 C915 0.950 . S
H939 C917 0.950 . S
C940 C941 1.349 1_545 S
C940 C942 1.327 . S
C940 H965 0.950 . S
C941 C940 1.349 1_565 S
C941 C957 1.349 . S
C942 C940 1.327 . S
C942 C961 1.429 1_545 S
C942 H966 0.950 . S
C943 C960 1.574 1_455 S
C943 C962 1.368 . S
C943 H967 0.949 . S
H944 C948 0.949 . S
C945 C946 1.349 1_565 S
C945 C947 1.327 . S
C945 H968 0.950 . S
C946 C945 1.349 1_545 S
C946 C958 1.349 . S
C947 C945 1.327 . S
C947 C963 1.429 1_565 S
C947 H969 0.950 . S
C948 H944 0.949 . S
C948 C956 1.574 1_655 S
C948 C964 1.368 . S
H949 C957 0.950 . S
H950 C955 0.950 . S
H951 C956 0.949 . S
H952 C958 0.950 . S
H953 C959 0.950 . S
H954 C960 0.949 . S
C955 H950 0.950 . S
C955 C957 1.327 . S
C955 C961 1.429 . S
C956 C948 1.574 1_455 S
C956 H951 0.949 . S
C956 C962 1.368 1_545 S
C957 C941 1.349 . S
C957 H949 0.950 . S
C957 C955 1.327 . S
C958 C946 1.349 . S
C958 H952 0.950 . S
C958 C959 1.327 . S
C959 H953 0.950 . S
C959 C958 1.327 . S
C959 C963 1.429 . S
C960 C943 1.574 1_655 S
C960 H954 0.949 . S
C960 C964 1.368 1_565 S
C961 C942 1.429 1_565 S
C961 C955 1.429 . S
C961 C962 1.523 . S
C962 C943 1.368 . S
C962 C956 1.368 1_565 S
C962 C961 1.523 . S
C963 C947 1.429 1_545 S
C963 C959 1.429 . S
C963 C964 1.523 . S
C964 C948 1.368 . S
C964 C960 1.368 1_545 S
C964 C963 1.523 . S
H965 C940 0.950 . S
H966 C942 0.950 . S
H967 C943 0.949 . S
H968 C945 0.950 . S
H969 C947 0.950 . S
C970 C971 1.349 . S
C970 C972 1.327 . S
C970 H995 0.950 . S
C971 C970 1.349 . S
C971 C987 1.349 . S
C972 C970 1.327 . S
C972 C991 1.429 . S
C972 H996 0.950 . S
C973 C990 1.574 . S
C973 C992 1.368 . S
C973 H997 0.949 . S
H974 C978 0.949 . S
C975 C976 1.349 . S
C975 C977 1.327 . S
C975 H998 0.950 . S
C976 C975 1.349 . S
C976 C988 1.349 . S
C977 C975 1.327 . S
C977 C993 1.429 . S
C977 H999 0.950 . S
C978 H974 0.949 . S
C978 C986 1.574 . S
C978 C994 1.368 . S
H979 C987 0.950 . S
H980 C985 0.950 . S
H981 C986 0.949 . S
H982 C988 0.950 . S
H983 C989 0.950 . S
H984 C990 0.949 . S
C985 H980 0.950 . S
C985 C987 1.327 . S
C985 C991 1.429 . S
C986 C978 1.574 . S
C986 H981 0.949 . S
C986 C992 1.368 . S
C987 C971 1.349 . S
C987 H979 0.950 . S
C987 C985 1.327 . S
C988 C976 1.349 . S
C988 H982 0.950 . S
C988 C989 1.327 . S
C989 H983 0.950 . S
C989 C988 1.327 . S
C989 C993 1.429 . S
C990 C973 1.574 . S
C990 H984 0.949 . S
C990 C994 1.368 . S
C991 C972 1.429 . S
C991 C985 1.429 . S
C991 C992 1.523 . S
C992 C973 1.368 . S
C992 C986 1.368 . S
C992 C991 1.523 . S
C993 C977 1.429 . S
C993 C989 1.429 . S
C993 C994 1.523 . S
C994 C978 1.368 . S
C994 C990 1.368 . S
C994 C993 1.523 . S
H995 C970 0.950 . S
H996 C972 0.950 . S
H997 C973 0.949 . S
H998 C975 0.950 . S
H999 C977 0.950 . S
C1000 C1001 1.349 . S
C1000 C1002 1.327 . S
C1000 H1025 0.950 . S
C1001 C1000 1.349 . S
C1001 C1017 1.349 . S
C1002 C1000 1.327 . S
C1002 C1021 1.429 . S
C1002 H1026 0.950 . S
C1003 C1020 1.574 . S
C1003 C1022 1.368 . S
C1003 H1027 0.949 . S
H1004 C1008 0.949 . S
C1005 C1006 1.349 . S
C1005 C1007 1.327 . S
C1005 H1028 0.950 . S
C1006 C1005 1.349 . S
C1006 C1018 1.349 . S
C1007 C1005 1.327 . S
C1007 C1023 1.429 . S
C1007 H1029 0.950 . S
C1008 H1004 0.949 . S
C1008 C1016 1.574 . S
C1008 C1024 1.368 . S
H1009 C1017 0.950 . S
H1010 C1015 0.950 . S
H1011 C1016 0.949 . S
H1012 C1018 0.950 . S
H1013 C1019 0.950 . S
H1014 C1020 0.949 . S
C1015 H1010 0.950 . S
C1015 C1017 1.327 . S
C1015 C1021 1.429 . S
C1016 C1008 1.574 . S
C1016 H1011 0.949 . S
C1016 C1022 1.368 . S
C1017 C1001 1.349 . S
C1017 H1009 0.950 . S
C1017 C1015 1.327 . S
C1018 C1006 1.349 . S
C1018 H1012 0.950 . S
C1018 C1019 1.327 . S
C1019 H1013 0.950 . S
C1019 C1018 1.327 . S
C1019 C1023 1.429 . S
C1020 C1003 1.574 . S
C1020 H1014 0.949 . S
C1020 C1024 1.368 . S
C1021 C1002 1.429 . S
C1021 C1015 1.429 . S
C1021 C1022 1.523 . S
C1022 C1003 1.368 . S
C1022 C1016 1.368 . S
C1022 C1021 1.523 . S
C1023 C1007 1.429 . S
C1023 C1019 1.429 . S
C1023 C1024 1.523 . S
C1024 C1008 1.368 . S
C1024 C1020 1.368 . S
C1024 C1023 1.523 . S
H1025 C1000 0.950 . S
H1026 C1002 0.950 . S
H1027 C1003 0.949 . S
H1028 C1005 0.950 . S
H1029 C1007 0.950 . S
C1030 C1031 1.349 . S
C1030 C1032 1.327 . S
C1030 H1055 0.950 . S
C1031 C1030 1.349 . S
C1031 C1047 1.349 . S
C1032 C1030 1.327 . S
C1032 C1051 1.429 . S
C1032 H1056 0.950 . S
C1033 C1050 1.574 . S
C1033 C1052 1.368 . S
C1033 H1057 0.949 . S
H1034 C1038 0.949 . S
C1035 C1036 1.349 . S
C1035 C1037 1.327 . S
C1035 H1058 0.950 . S
C1036 C1035 1.349 . S
C1036 C1048 1.349 . S
C1037 C1035 1.327 . S
C1037 C1053 1.429 . S
C1037 H1059 0.950 . S
C1038 H1034 0.949 . S
C1038 C1046 1.574 . S
C1038 C1054 1.368 . S
H1039 C1047 0.950 . S
H1040 C1045 0.950 . S
H1041 C1046 0.949 . S
H1042 C1048 0.950 . S
H1043 C1049 0.950 . S
H1044 C1050 0.949 . S
C1045 H1040 0.950 . S
C1045 C1047 1.327 . S
C1045 C1051 1.429 . S
C1046 C1038 1.574 . S
C1046 H1041 0.949 . S
C1046 C1052 1.368 . S
C1047 C1031 1.349 . S
C1047 H1039 0.950 . S
C1047 C1045 1.327 . S
C1048 C1036 1.349 . S
C1048 H1042 0.950 . S
C1048 C1049 1.327 . S
C1049 H1043 0.950 . S
C1049 C1048 1.327 . S
C1049 C1053 1.429 . S
C1050 C1033 1.574 . S
C1050 H1044 0.949 . S
C1050 C1054 1.368 . S
C1051 C1032 1.429 . S
C1051 C1045 1.429 . S
C1051 C1052 1.523 . S
C1052 C1033 1.368 . S
C1052 C1046 1.368 . S
C1052 C1051 1.523 . S
C1053 C1037 1.429 . S
C1053 C1049 1.429 . S
C1053 C1054 1.523 . S
C1054 C1038 1.368 . S
C1054 C1050 1.368 . S
C1054 C1053 1.523 . S
H1055 C1030 0.950 . S
H1056 C1032 0.950 . S
H1057 C1033 0.949 . S
H1058 C1035 0.950 . S
H1059 C1037 0.950 . S
C1060 C1061 1.349 . S
C1060 C1062 1.327 . S
C1060 H1085 0.950 . S
C1061 C1060 1.349 . S
C1061 C1077 1.349 . S
C1062 C1060 1.327 . S
C1062 C1081 1.429 . S
C1062 H1086 0.950 . S
C1063 C1080 1.574 1_455 S
C1063 C1082 1.368 . S
C1063 H1087 0.949 . S
H1064 C1068 0.949 . S
C1065 C1066 1.349 . S
C1065 C1067 1.327 . S
C1065 H1088 0.950 . S
C1066 C1065 1.349 . S
C1066 C1078 1.349 . S
C1067 C1065 1.327 . S
C1067 C1083 1.429 . S
C1067 H1089 0.950 . S
C1068 H1064 0.949 . S
C1068 C1076 1.574 1_655 S
C1068 C1084 1.368 . S
H1069 C1077 0.950 . S
H1070 C1075 0.950 . S
H1071 C1076 0.949 . S
H1072 C1078 0.950 . S
H1073 C1079 0.950 . S
H1074 C1080 0.949 . S
C1075 H1070 0.950 . S
C1075 C1077 1.327 . S
C1075 C1081 1.429 . S
C1076 C1068 1.574 1_455 S
C1076 H1071 0.949 . S
C1076 C1082 1.368 . S
C1077 C1061 1.349 . S
C1077 H1069 0.950 . S
C1077 C1075 1.327 . S
C1078 C1066 1.349 . S
C1078 H1072 0.950 . S
C1078 C1079 1.327 . S
C1079 H1073 0.950 . S
C1079 C1078 1.327 . S
C1079 C1083 1.429 . S
C1080 C1063 1.574 1_655 S
C1080 H1074 0.949 . S
C1080 C1084 1.368 . S
C1081 C1062 1.429 . S
C1081 C1075 1.429 . S
C1081 C1082 1.523 . S
C1082 C1063 1.368 . S
C1082 C1076 1.368 . S
C1082 C1081 1.523 . S
C1083 C1067 1.429 . S
C1083 C1079 1.429 . S
C1083 C1084 1.523 . S
C1084 C1068 1.368 . S
C1084 C1080 1.368 . S
C1084 C1083 1.523 . S
H1085 C1060 0.950 . S
H1086 C1062 0.950 . S
H1087 C1063 0.949 . S
H1088 C1065 0.950 . S
H1089 C1067 0.950 . S
C1090 C1091 1.349 . S
C1090 C1092 1.327 . S
C1090 H1115 0.950 . S
C1091 C1090 1.349 . S
C1091 C1107 1.349 . S
C1092 C1090 1.327 . S
C1092 C1111 1.429 . S
C1092 H1116 0.950 . S
C1093 C1110 1.574 . S
C1093 C1112 1.368 1_556 S
C1093 H1117 0.949 . S
H1094 C1098 0.949 . S
C1095 C1096 1.349 . S
C1095 C1097 1.327 . S
C1095 H1118 0.950 . S
C1096 C1095 1.349 . S
C1096 C1108 1.349 . S
C1097 C1095 1.327 . S
C1097 C1113 1.429 . S
C1097 H1119 0.950 . S
C1098 H1094 0.949 . S
C1098 C1106 1.574 . S
C1098 C1114 1.368 1_554 S
H1099 C1107 0.950 . S
H1100 C1105 0.950 1_556 S
H1101 C1106 0.949 . S
H1102 C1108 0.950 . S
H1103 C1109 0.950 1_554 S
H1104 C1110 0.949 . S
C1105 H1100 0.950 1_554 S
C1105 C1107 1.327 . S
C1105 C1111 1.429 . S
C1106 C1098 1.574 . S
C1106 H1101 0.949 . S
C1106 C1112 1.368 . S
C1107 C1091 1.349 . S
C1107 H1099 0.950 . S
C1107 C1105 1.327 . S
C1108 C1096 1.349 . S
C1108 H1102 0.950 . S
C1108 C1109 1.327 . S
C1109 H1103 0.950 1_556 S
C1109 C1108 1.327 . S
C1109 C1113 1.429 . S
C1110 C1093 1.574 . S
C1110 H1104 0.949 . S
C1110 C1114 1.368 . S
C1111 C1092 1.429 . S
C1111 C1105 1.429 . S
C1111 C1112 1.523 . S
C1112 C1093 1.368 1_554 S
C1112 C1106 1.368 . S
C1112 C1111 1.523 . S
C1113 C1097 1.429 . S
C1113 C1109 1.429 . S
C1113 C1114 1.523 . S
C1114 C1098 1.368 1_556 S
C1114 C1110 1.368 . S
C1114 C1113 1.523 . S
H1115 C1090 0.950 . S
H1116 C1092 0.950 . S
H1117 C1093 0.949 . S
H1118 C1095 0.950 . S
H1119 C1097 0.950 . S
C1120 C1121 1.349 . S
C1120 C1122 1.327 . S
C1120 H1145 0.950 . S
C1121 C1120 1.349 . S
C1121 C1137 1.349 . S
C1122 C1120 1.327 . S
C1122 C1141 1.429 . S
C1122 H1146 0.950 . S
C1123 C1140 1.574 . S
C1123 C1142 1.368 . S
C1123 H1147 0.949 . S
H1124 C1128 0.949 . S
C1125 C1126 1.349 . S
C1125 C1127 1.327 . S
C1125 H1148 0.950 . S
C1126 C1125 1.349 . S
C1126 C1138 1.349 . S
C1127 C1125 1.327 . S
C1127 C1143 1.429 . S
C1127 H1149 0.950 . S
C1128 H1124 0.949 . S
C1128 C1136 1.574 . S
C1128 C1144 1.368 . S
H1129 C1137 0.950 . S
H1130 C1135 0.950 . S
H1131 C1136 0.949 . S
H1132 C1138 0.950 . S
H1133 C1139 0.950 . S
H1134 C1140 0.949 . S
C1135 H1130 0.950 . S
C1135 C1137 1.327 . S
C1135 C1141 1.429 . S
C1136 C1128 1.574 . S
C1136 H1131 0.949 . S
C1136 C1142 1.368 . S
C1137 C1121 1.349 . S
C1137 H1129 0.950 . S
C1137 C1135 1.327 . S
C1138 C1126 1.349 . S
C1138 H1132 0.950 . S
C1138 C1139 1.327 . S
C1139 H1133 0.950 . S
C1139 C1138 1.327 . S
C1139 C1143 1.429 . S
C1140 C1123 1.574 . S
C1140 H1134 0.949 . S
C1140 C1144 1.368 . S
C1141 C1122 1.429 . S
C1141 C1135 1.429 . S
C1141 C1142 1.523 . S
C1142 C1123 1.368 . S
C1142 C1136 1.368 . S
C1142 C1141 1.523 . S
C1143 C1127 1.429 . S
C1143 C1139 1.429 . S
C1143 C1144 1.523 . S
C1144 C1128 1.368 . S
C1144 C1140 1.368 . S
C1144 C1143 1.523 . S
H1145 C1120 0.950 . S
H1146 C1122 0.950 . S
H1147 C1123 0.949 . S
H1148 C1125 0.950 . S
H1149 C1127 0.950 . S
C1150 C1151 1.349 . S
C1150 C1152 1.327 . S
C1150 H1175 0.950 . S
C1151 C1150 1.349 . S
C1151 C1167 1.349 . S
C1152 C1150 1.327 . S
C1152 C1171 1.429 . S
C1152 H1176 0.950 . S
C1153 C1170 1.574 . S
C1153 C1172 1.368 . S
C1153 H1177 0.949 . S
H1154 C1158 0.949 . S
C1155 C1156 1.349 . S
C1155 C1157 1.327 . S
C1155 H1178 0.950 . S
C1156 C1155 1.349 . S
C1156 C1168 1.349 . S
C1157 C1155 1.327 . S
C1157 C1173 1.429 . S
C1157 H1179 0.950 . S
C1158 H1154 0.949 . S
C1158 C1166 1.574 . S
C1158 C1174 1.368 . S
H1159 C1167 0.950 . S
H1160 C1165 0.950 . S
H1161 C1166 0.949 . S
H1162 C1168 0.950 . S
H1163 C1169 0.950 . S
H1164 C1170 0.949 . S
C1165 H1160 0.950 . S
C1165 C1167 1.327 . S
C1165 C1171 1.429 . S
C1166 C1158 1.574 . S
C1166 H1161 0.949 . S
C1166 C1172 1.368 . S
C1167 C1151 1.349 . S
C1167 H1159 0.950 . S
C1167 C1165 1.327 . S
C1168 C1156 1.349 . S
C1168 H1162 0.950 . S
C1168 C1169 1.327 . S
C1169 H1163 0.950 . S
C1169 C1168 1.327 . S
C1169 C1173 1.429 . S
C1170 C1153 1.574 . S
C1170 H1164 0.949 . S
C1170 C1174 1.368 . S
C1171 C1152 1.429 . S
C1171 C1165 1.429 . S
C1171 C1172 1.523 . S
C1172 C1153 1.368 . S
C1172 C1166 1.368 . S
C1172 C1171 1.523 . S
C1173 C1157 1.429 . S
C1173 C1169 1.429 . S
C1173 C1174 1.523 . S
C1174 C1158 1.368 . S
C1174 C1170 1.368 . S
C1174 C1173 1.523 . S
H1175 C1150 0.950 . S
H1176 C1152 0.950 . S
H1177 C1153 0.949 . S
H1178 C1155 0.950 . S
H1179 C1157 0.950 . S
C1180 C1181 1.349 . S
C1180 C1182 1.327 . S
C1180 H1205 0.950 . S
C1181 C1180 1.349 . S
C1181 C1197 1.349 . S
C1182 C1180 1.327 . S
C1182 C1201 1.429 . S
C1182 H1206 0.950 . S
C1183 C1200 1.574 . S
C1183 C1202 1.368 . S
C1183 H1207 0.949 . S
H1184 C1188 0.949 . S
C1185 C1186 1.349 . S
C1185 C1187 1.327 . S
C1185 H1208 0.950 . S
C1186 C1185 1.349 . S
C1186 C1198 1.349 . S
C1187 C1185 1.327 . S
C1187 C1203 1.429 . S
C1187 H1209 0.950 . S
C1188 H1184 0.949 . S
C1188 C1196 1.574 . S
C1188 C1204 1.368 . S
H1189 C1197 0.950 . S
H1190 C1195 0.950 . S
H1191 C1196 0.949 . S
H1192 C1198 0.950 . S
H1193 C1199 0.950 . S
H1194 C1200 0.949 . S
C1195 H1190 0.950 . S
C1195 C1197 1.327 . S
C1195 C1201 1.429 . S
C1196 C1188 1.574 . S
C1196 H1191 0.949 . S
C1196 C1202 1.368 . S
C1197 C1181 1.349 . S
C1197 H1189 0.950 . S
C1197 C1195 1.327 . S
C1198 C1186 1.349 . S
C1198 H1192 0.950 . S
C1198 C1199 1.327 . S
C1199 H1193 0.950 . S
C1199 C1198 1.327 . S
C1199 C1203 1.429 . S
C1200 C1183 1.574 . S
C1200 H1194 0.949 . S
C1200 C1204 1.368 . S
C1201 C1182 1.429 . S
C1201 C1195 1.429 . S
C1201 C1202 1.523 . S
C1202 C1183 1.368 . S
C1202 C1196 1.368 . S
C1202 C1201 1.523 . S
C1203 C1187 1.429 . S
C1203 C1199 1.429 . S
C1203 C1204 1.523 . S
C1204 C1188 1.368 . S
C1204 C1200 1.368 . S
C1204 C1203 1.523 . S
H1205 C1180 0.950 . S
H1206 C1182 0.950 . S
H1207 C1183 0.949 . S
H1208 C1185 0.950 . S
H1209 C1187 0.950 . S
C1210 C1211 1.349 . S
C1210 C1212 1.327 . S
C1210 H1235 0.950 . S
C1211 C1210 1.349 . S
C1211 C1227 1.349 . S
C1212 C1210 1.327 . S
C1212 C1231 1.429 . S
C1212 H1236 0.950 . S
C1213 C1230 1.574 . S
C1213 C1232 1.368 . S
C1213 H1237 0.949 . S
H1214 C1218 0.949 . S
C1215 C1216 1.349 . S
C1215 C1217 1.327 . S
C1215 H1238 0.950 . S
C1216 C1215 1.349 . S
C1216 C1228 1.349 . S
C1217 C1215 1.327 . S
C1217 C1233 1.429 . S
C1217 H1239 0.950 . S
C1218 H1214 0.949 . S
C1218 C1226 1.574 . S
C1218 C1234 1.368 . S
H1219 C1227 0.950 . S
H1220 C1225 0.950 . S
H1221 C1226 0.949 . S
H1222 C1228 0.950 . S
H1223 C1229 0.950 . S
H1224 C1230 0.949 . S
C1225 H1220 0.950 . S
C1225 C1227 1.327 . S
C1225 C1231 1.429 . S
C1226 C1218 1.574 . S
C1226 H1221 0.949 . S
C1226 C1232 1.368 . S
C1227 C1211 1.349 . S
C1227 H1219 0.950 . S
C1227 C1225 1.327 . S
C1228 C1216 1.349 . S
C1228 H1222 0.950 . S
C1228 C1229 1.327 . S
C1229 H1223 0.950 . S
C1229 C1228 1.327 . S
C1229 C1233 1.429 . S
C1230 C1213 1.574 . S
C1230 H1224 0.949 . S
C1230 C1234 1.368 . S
C1231 C1212 1.429 . S
C1231 C1225 1.429 . S
C1231 C1232 1.523 . S
C1232 C1213 1.368 . S
C1232 C1226 1.368 . S
C1232 C1231 1.523 . S
C1233 C1217 1.429 . S
C1233 C1229 1.429 . S
C1233 C1234 1.523 . S
C1234 C1218 1.368 . S
C1234 C1230 1.368 . S
C1234 C1233 1.523 . S
H1235 C1210 0.950 . S
H1236 C1212 0.950 . S
H1237 C1213 0.949 . S
H1238 C1215 0.950 . S
H1239 C1217 0.950 . S
C1240 C1241 1.349 . S
C1240 C1242 1.327 . S
C1240 H1265 0.950 . S
C1241 C1240 1.349 . S
C1241 C1257 1.349 . S
C1242 C1240 1.327 . S
C1242 C1261 1.429 . S
C1242 H1266 0.950 . S
C1243 C1260 1.574 . S
C1243 C1262 1.368 . S
C1243 H1267 0.949 . S
H1244 C1248 0.949 . S
C1245 C1246 1.349 . S
C1245 C1247 1.327 . S
C1245 H1268 0.950 . S
C1246 C1245 1.349 . S
C1246 C1258 1.349 . S
C1247 C1245 1.327 . S
C1247 C1263 1.429 . S
C1247 H1269 0.950 . S
C1248 H1244 0.949 . S
C1248 C1256 1.574 . S
C1248 C1264 1.368 . S
H1249 C1257 0.950 . S
H1250 C1255 0.950 . S
H1251 C1256 0.949 . S
H1252 C1258 0.950 . S
H1253 C1259 0.950 . S
H1254 C1260 0.949 . S
C1255 H1250 0.950 . S
C1255 C1257 1.327 . S
C1255 C1261 1.429 . S
C1256 C1248 1.574 . S
C1256 H1251 0.949 . S
C1256 C1262 1.368 . S
C1257 C1241 1.349 . S
C1257 H1249 0.950 . S
C1257 C1255 1.327 . S
C1258 C1246 1.349 . S
C1258 H1252 0.950 . S
C1258 C1259 1.327 . S
C1259 H1253 0.950 . S
C1259 C1258 1.327 . S
C1259 C1263 1.429 . S
C1260 C1243 1.574 . S
C1260 H1254 0.949 . S
C1260 C1264 1.368 . S
C1261 C1242 1.429 . S
C1261 C1255 1.429 . S
C1261 C1262 1.523 . S
C1262 C1243 1.368 . S
C1262 C1256 1.368 . S
C1262 C1261 1.523 . S
C1263 C1247 1.429 . S
C1263 C1259 1.429 . S
C1263 C1264 1.523 . S
C1264 C1248 1.368 . S
C1264 C1260 1.368 . S
C1264 C1263 1.523 . S
H1265 C1240 0.950 . S
H1266 C1242 0.950 . S
H1267 C1243 0.949 . S
H1268 C1245 0.950 . S
H1269 C1247 0.950 . S
C1270 C1271 1.349 . S
C1270 C1272 1.327 . S
C1270 H1295 0.950 . S
C1271 C1270 1.349 . S
C1271 C1287 1.349 . S
C1272 C1270 1.327 . S
C1272 C1291 1.429 . S
C1272 H1296 0.950 . S
C1273 C1290 1.574 . S
C1273 C1292 1.368 . S
C1273 H1297 0.949 . S
H1274 C1278 0.949 . S
C1275 C1276 1.349 . S
C1275 C1277 1.327 . S
C1275 H1298 0.950 . S
C1276 C1275 1.349 . S
C1276 C1288 1.349 . S
C1277 C1275 1.327 . S
C1277 C1293 1.429 . S
C1277 H1299 0.950 . S
C1278 H1274 0.949 . S
C1278 C1286 1.574 . S
C1278 C1294 1.368 . S
H1279 C1287 0.950 . S
H1280 C1285 0.950 . S
H1281 C1286 0.949 . S
H1282 C1288 0.950 . S
H1283 C1289 0.950 . S
H1284 C1290 0.949 . S
C1285 H1280 0.950 . S
C1285 C1287 1.327 . S
C1285 C1291 1.429 . S
C1286 C1278 1.574 . S
C1286 H1281 0.949 . S
C1286 C1292 1.368 . S
C1287 C1271 1.349 . S
C1287 H1279 0.950 . S
C1287 C1285 1.327 . S
C1288 C1276 1.349 . S
C1288 H1282 0.950 . S
C1288 C1289 1.327 . S
C1289 H1283 0.950 . S
C1289 C1288 1.327 . S
C1289 C1293 1.429 . S
C1290 C1273 1.574 . S
C1290 H1284 0.949 . S
C1290 C1294 1.368 . S
C1291 C1272 1.429 . S
C1291 C1285 1.429 . S
C1291 C1292 1.523 . S
C1292 C1273 1.368 . S
C1292 C1286 1.368 . S
C1292 C1291 1.523 . S
C1293 C1277 1.429 . S
C1293 C1289 1.429 . S
C1293 C1294 1.523 . S
C1294 C1278 1.368 . S
C1294 C1290 1.368 . S
C1294 C1293 1.523 . S
H1295 C1270 0.950 . S
H1296 C1272 0.950 . S
H1297 C1273 0.949 . S
H1298 C1275 0.950 . S
H1299 C1277 0.950 . S
C1300 C1301 1.349 . S
C1300 C1302 1.327 . S
C1300 H1325 0.950 . S
C1301 C1300 1.349 . S
C1301 C1317 1.349 . S
C1302 C1300 1.327 . S
C1302 C1321 1.429 . S
C1302 H1326 0.950 . S
C1303 C1320 1.574 . S
C1303 C1322 1.368 . S
C1303 H1327 0.949 . S
H1304 C1308 0.949 . S
C1305 C1306 1.349 . S
C1305 C1307 1.327 . S
C1305 H1328 0.950 . S
C1306 C1305 1.349 . S
C1306 C1318 1.349 . S
C1307 C1305 1.327 . S
C1307 C1323 1.429 . S
C1307 H1329 0.950 . S
C1308 H1304 0.949 . S
C1308 C1316 1.574 . S
C1308 C1324 1.368 . S
H1309 C1317 0.950 . S
H1310 C1315 0.950 . S
H1311 C1316 0.949 . S
H1312 C1318 0.950 . S
H1313 C1319 0.950 . S
H1314 C1320 0.949 . S
C1315 H1310 0.950 . S
C1315 C1317 1.327 . S
C1315 C1321 1.429 . S
C1316 C1308 1.574 . S
C1316 H1311 0.949 . S
C1316 C1322 1.368 . S
C1317 C1301 1.349 . S
C1317 H1309 0.950 . S
C1317 C1315 1.327 . S
C1318 C1306 1.349 . S
C1318 H1312 0.950 . S
C1318 C1319 1.327 . S
C1319 H1313 0.950 . S
C1319 C1318 1.327 . S
C1319 C1323 1.429 . S
C1320 C1303 1.574 . S
C1320 H1314 0.949 . S
C1320 C1324 1.368 . S
C1321 C1302 1.429 . S
C1321 C1315 1.429 . S
C1321 C1322 1.523 . S
C1322 C1303 1.368 . S
C1322 C1316 1.368 . S
C1322 C1321 1.523 . S
C1323 C1307 1.429 . S
C1323 C1319 1.429 . S
C1323 C1324 1.523 . S
C1324 C1308 1.368 . S
C1324 C1320 1.368 . S
C1324 C1323 1.523 . S
H1325 C1300 0.950 . S
H1326 C1302 0.950 . S
H1327 C1303 0.949 . S
H1328 C1305 0.950 . S
H1329 C1307 0.950 . S
C1330 C1331 1.349 . S
C1330 C1332 1.327 . S
C1330 H1355 0.950 . S
C1331 C1330 1.349 . S
C1331 C1347 1.349 . S
C1332 C1330 1.327 . S
C1332 C1351 1.429 . S
C1332 H1356 0.950 . S
C1333 C1350 1.574 . S
C1333 C1352 1.368 . S
C1333 H1357 0.949 . S
H1334 C1338 0.949 . S
C1335 C1336 1.349 . S
C1335 C1337 1.327 . S
C1335 H1358 0.950 . S
C1336 C1335 1.349 . S
C1336 C1348 1.349 . S
C1337 C1335 1.327 . S
C1337 C1353 1.429 . S
C1337 H1359 0.950 . S
C1338 H1334 0.949 . S
C1338 C1346 1.574 . S
C1338 C1354 1.368 . S
H1339 C1347 0.950 . S
H1340 C1345 0.950 . S
H1341 C1346 0.949 . S
H1342 C1348 0.950 . S
H1343 C1349 0.950 . S
H1344 C1350 0.949 . S
C1345 H1340 0.950 . S
C1345 C1347 1.327 . S
C1345 C1351 1.429 . S
C1346 C1338 1.574 . S
C1346 H1341 0.949 . S
C1346 C1352 1.368 . S
C1347 C1331 1.349 . S
C1347 H1339 0.950 . S
C1347 C1345 1.327 . S
C1348 C1336 1.349 . S
C1348 H1342 0.950 . S
C1348 C1349 1.327 . S
C1349 H1343 0.950 . S
C1349 C1348 1.327 . S
C1349 C1353 1.429 . S
C1350 C1333 1.574 . S
C1350 H1344 0.949 . S
C1350 C1354 1.368 . S
C1351 C1332 1.429 . S
C1351 C1345 1.429 . S
C1351 C1352 1.523 . S
C1352 C1333 1.368 . S
C1352 C1346 1.368 . S
C1352 C1351 1.523 . S
C1353 C1337 1.429 . S
C1353 C1349 1.429 . S
C1353 C1354 1.523 . S
C1354 C1338 1.368 . S
C1354 C1350 1.368 . S
C1354 C1353 1.523 . S
H1355 C1330 0.950 . S
H1356 C1332 0.950 . S
H1357 C1333 0.949 . S
H1358 C1335 0.950 . S
H1359 C1337 0.950 . S
C1360 C1361 1.349 . S
C1360 C1362 1.327 . S
C1360 H1385 0.950 . S
C1361 C1360 1.349 . S
C1361 C1377 1.349 . S
C1362 C1360 1.327 . S
C1362 C1381 1.429 . S
C1362 H1386 0.950 . S
C1363 C1380 1.574 . S
C1363 C1382 1.368 . S
C1363 H1387 0.949 . S
H1364 C1368 0.949 . S
C1365 C1366 1.365 . S
C1365 C1367 1.327 . S
C1365 H1388 0.950 . S
C1366 C1365 1.365 . S
C1366 C1378 1.356 . S
C1367 C1365 1.327 . S
C1367 C1383 1.429 . S
C1367 H1389 0.950 . S
C1368 H1364 0.949 . S
C1368 C1376 1.574 . S
C1368 C1384 1.368 . S
H1369 C1377 0.950 . S
H1370 C1375 0.950 . S
H1371 C1376 0.949 . S
H1372 C1378 0.950 1_545 S
H1373 C1379 0.950 . S
H1374 C1380 0.949 . S
C1375 H1370 0.950 . S
C1375 C1377 1.327 . S
C1375 C1381 1.429 . S
C1376 C1368 1.574 . S
C1376 H1371 0.949 . S
C1376 C1382 1.368 . S
C1377 C1361 1.349 . S
C1377 H1369 0.950 . S
C1377 C1375 1.327 . S
C1378 C1366 1.356 . S
C1378 H1372 0.950 1_565 S
C1378 C1379 1.327 . S
C1379 H1373 0.950 . S
C1379 C1378 1.327 . S
C1379 C1383 1.429 . S
C1380 C1363 1.574 . S
C1380 H1374 0.949 . S
C1380 C1384 1.368 . S
C1381 C1362 1.429 . S
C1381 C1375 1.429 . S
C1381 C1382 1.523 . S
C1382 C1363 1.368 . S
C1382 C1376 1.368 . S
C1382 C1381 1.523 . S
C1383 C1367 1.429 . S
C1383 C1379 1.429 . S
C1383 C1384 1.523 . S
C1384 C1368 1.368 . S
C1384 C1380 1.368 . S
C1384 C1383 1.523 . S
H1385 C1360 0.950 . S
H1386 C1362 0.950 . S
H1387 C1363 0.949 . S
H1388 C1365 0.950 . S
H1389 C1367 0.950 . S
C1390 C1391 1.349 . S
C1390 C1392 1.327 . S
C1390 H1415 0.950 . S
C1391 C1390 1.349 . S
C1391 C1407 1.349 . S
C1392 C1390 1.327 . S
C1392 C1411 1.429 . S
C1392 H1416 0.950 . S
C1393 C1410 1.574 . S
C1393 C1412 1.368 . S
C1393 H1417 0.949 . S
H1394 C1398 0.949 . S
C1395 C1396 1.349 . S
C1395 C1397 1.327 . S
C1395 H1418 0.950 . S
C1396 C1395 1.349 . S
C1396 C1408 1.349 . S
C1397 C1395 1.327 . S
C1397 C1413 1.429 . S
C1397 H1419 0.950 . S
C1398 H1394 0.949 . S
C1398 C1406 1.574 . S
C1398 C1414 1.368 . S
H1399 C1407 0.950 . S
H1400 C1405 0.950 . S
H1401 C1406 0.949 . S
H1402 C1408 0.950 . S
H1403 C1409 0.950 . S
H1404 C1410 0.949 . S
C1405 H1400 0.950 . S
C1405 C1407 1.327 . S
C1405 C1411 1.429 . S
C1406 C1398 1.574 . S
C1406 H1401 0.949 . S
C1406 C1412 1.368 . S
C1407 C1391 1.349 . S
C1407 H1399 0.950 . S
C1407 C1405 1.327 . S
C1408 C1396 1.349 . S
C1408 H1402 0.950 . S
C1408 C1409 1.327 . S
C1409 H1403 0.950 . S
C1409 C1408 1.327 . S
C1409 C1413 1.429 . S
C1410 C1393 1.574 . S
C1410 H1404 0.949 . S
C1410 C1414 1.368 . S
C1411 C1392 1.429 . S
C1411 C1405 1.429 . S
C1411 C1412 1.523 . S
C1412 C1393 1.368 . S
C1412 C1406 1.368 . S
C1412 C1411 1.523 . S
C1413 C1397 1.429 . S
C1413 C1409 1.429 . S
C1413 C1414 1.523 . S
C1414 C1398 1.368 . S
C1414 C1410 1.368 . S
C1414 C1413 1.523 . S
H1415 C1390 0.950 . S
H1416 C1392 0.950 . S
H1417 C1393 0.949 . S
H1418 C1395 0.950 . S
H1419 C1397 0.950 . S
C1420 C1421 1.356 . S
C1420 C1422 1.327 . S
C1420 H1445 0.950 1_545 S
C1421 C1420 1.356 . S
C1421 C1437 1.365 . S
C1422 C1420 1.327 . S
C1422 C1441 1.429 . S
C1422 H1446 0.950 . S
C1423 C1440 1.574 . S
C1423 C1442 1.368 . S
C1423 H1447 0.949 . S
H1424 C1428 0.949 . S
C1425 C1426 1.349 . S
C1425 C1427 1.327 . S
C1425 H1448 0.950 . S
C1426 C1425 1.349 . S
C1426 C1438 1.349 . S
C1427 C1425 1.327 . S
C1427 C1443 1.429 . S
C1427 H1449 0.950 . S
C1428 H1424 0.949 . S
C1428 C1436 1.574 . S
C1428 C1444 1.368 . S
H1429 C1437 0.950 . S
H1430 C1435 0.950 . S
H1431 C1436 0.949 . S
H1432 C1438 0.950 . S
H1433 C1439 0.950 . S
H1434 C1440 0.949 . S
C1435 H1430 0.950 . S
C1435 C1437 1.327 . S
C1435 C1441 1.429 . S
C1436 C1428 1.574 . S
C1436 H1431 0.949 . S
C1436 C1442 1.368 . S
C1437 C1421 1.365 . S
C1437 H1429 0.950 . S
C1437 C1435 1.327 . S
C1438 C1426 1.349 . S
C1438 H1432 0.950 . S
C1438 C1439 1.327 . S
C1439 H1433 0.950 . S
C1439 C1438 1.327 . S
C1439 C1443 1.429 . S
C1440 C1423 1.574 . S
C1440 H1434 0.949 . S
C1440 C1444 1.368 . S
C1441 C1422 1.429 . S
C1441 C1435 1.429 . S
C1441 C1442 1.523 . S
C1442 C1423 1.368 . S
C1442 C1436 1.368 . S
C1442 C1441 1.523 . S
C1443 C1427 1.429 . S
C1443 C1439 1.429 . S
C1443 C1444 1.523 . S
C1444 C1428 1.368 . S
C1444 C1440 1.368 . S
C1444 C1443 1.523 . S
H1445 C1420 0.950 1_565 S
H1446 C1422 0.950 . S
H1447 C1423 0.949 . S
H1448 C1425 0.950 . S
H1449 C1427 0.950 . S
C1450 C1451 1.349 . S
C1450 C1452 1.327 . S
C1450 H1475 0.950 . S
C1451 C1450 1.349 . S
C1451 C1467 1.349 . S
C1452 C1450 1.327 . S
C1452 C1471 1.429 . S
C1452 H1476 0.950 . S
C1453 C1470 1.574 . S
C1453 C1472 1.368 . S
C1453 H1477 0.949 . S
H1454 C1458 0.949 . S
C1455 C1456 1.349 . S
C1455 C1457 1.327 . S
C1455 H1478 0.950 . S
C1456 C1455 1.349 . S
C1456 C1468 1.349 . S
C1457 C1455 1.327 . S
C1457 C1473 1.429 . S
C1457 H1479 0.950 . S
C1458 H1454 0.949 . S
C1458 C1466 1.574 . S
C1458 C1474 1.368 . S
H1459 C1467 0.950 . S
H1460 C1465 0.950 . S
H1461 C1466 0.949 . S
H1462 C1468 0.950 . S
H1463 C1469 0.950 . S
H1464 C1470 0.949 . S
C1465 H1460 0.950 . S
C1465 C1467 1.327 . S
C1465 C1471 1.429 . S
C1466 C1458 1.574 . S
C1466 H1461 0.949 . S
C1466 C1472 1.368 . S
C1467 C1451 1.349 . S
C1467 H1459 0.950 . S
C1467 C1465 1.327 . S
C1468 C1456 1.349 . S
C1468 H1462 0.950 . S
C1468 C1469 1.327 . S
C1469 H1463 0.950 . S
C1469 C1468 1.327 . S
C1469 C1473 1.429 . S
C1470 C1453 1.574 . S
C1470 H1464 0.949 . S
C1470 C1474 1.368 . S
C1471 C1452 1.429 . S
C1471 C1465 1.429 . S
C1471 C1472 1.523 . S
C1472 C1453 1.368 . S
C1472 C1466 1.368 . S
C1472 C1471 1.523 . S
C1473 C1457 1.429 . S
C1473 C1469 1.429 . S
C1473 C1474 1.523 . S
C1474 C1458 1.368 . S
C1474 C1470 1.368 . S
C1474 C1473 1.523 . S
H1475 C1450 0.950 . S
H1476 C1452 0.950 . S
H1477 C1453 0.949 . S
H1478 C1455 0.950 . S
H1479 C1457 0.950 . S
C1480 C1481 1.349 . S
C1480 C1482 1.327 . S
C1480 H1505 0.950 . S
C1481 C1480 1.349 . S
C1481 C1497 1.349 . S
C1482 C1480 1.327 . S
C1482 C1501 1.429 . S
C1482 H1506 0.950 . S
C1483 C1500 1.574 . S
C1483 C1502 1.368 . S
C1483 H1507 0.949 . S
H1484 C1488 0.949 . S
C1485 C1486 1.356 . S
C1485 C1487 1.327 . S
C1485 H1508 0.950 1_545 S
C1486 C1485 1.356 . S
C1486 C1498 1.365 . S
C1487 C1485 1.327 . S
C1487 C1503 1.429 . S
C1487 H1509 0.950 . S
C1488 H1484 0.949 . S
C1488 C1496 1.574 . S
C1488 C1504 1.368 . S
H1489 C1497 0.950 . S
H1490 C1495 0.950 . S
H1491 C1496 0.949 . S
H1492 C1498 0.950 . S
H1493 C1499 0.950 . S
H1494 C1500 0.949 . S
C1495 H1490 0.950 . S
C1495 C1497 1.327 . S
C1495 C1501 1.429 . S
C1496 C1488 1.574 . S
C1496 H1491 0.949 . S
C1496 C1502 1.368 . S
C1497 C1481 1.349 . S
C1497 H1489 0.950 . S
C1497 C1495 1.327 . S
C1498 C1486 1.365 . S
C1498 H1492 0.950 . S
C1498 C1499 1.327 . S
C1499 H1493 0.950 . S
C1499 C1498 1.327 . S
C1499 C1503 1.429 . S
C1500 C1483 1.574 . S
C1500 H1494 0.949 . S
C1500 C1504 1.368 . S
C1501 C1482 1.429 . S
C1501 C1495 1.429 . S
C1501 C1502 1.523 . S
C1502 C1483 1.368 . S
C1502 C1496 1.368 . S
C1502 C1501 1.523 . S
C1503 C1487 1.429 . S
C1503 C1499 1.429 . S
C1503 C1504 1.523 . S
C1504 C1488 1.368 . S
C1504 C1500 1.368 . S
C1504 C1503 1.523 . S
H1505 C1480 0.950 . S
H1506 C1482 0.950 . S
H1507 C1483 0.949 . S
H1508 C1485 0.950 1_565 S
H1509 C1487 0.950 . S
C1510 C1511 1.349 . S
C1510 C1512 1.327 . S
C1510 H1535 0.950 . S
C1511 C1510 1.349 . S
C1511 C1527 1.349 . S
C1512 C1510 1.327 . S
C1512 C1531 1.429 . S
C1512 H1536 0.950 . S
C1513 C1530 1.574 . S
C1513 C1532 1.368 . S
C1513 H1537 0.949 . S
H1514 C1518 0.949 . S
C1515 C1516 1.349 . S
C1515 C1517 1.327 . S
C1515 H1538 0.950 . S
C1516 C1515 1.349 . S
C1516 C1528 1.349 . S
C1517 C1515 1.327 . S
C1517 C1533 1.429 . S
C1517 H1539 0.950 . S
C1518 H1514 0.949 . S
C1518 C1526 1.574 . S
C1518 C1534 1.368 . S
H1519 C1527 0.950 . S
H1520 C1525 0.950 . S
H1521 C1526 0.949 . S
H1522 C1528 0.950 . S
H1523 C1529 0.950 . S
H1524 C1530 0.949 . S
C1525 H1520 0.950 . S
C1525 C1527 1.327 . S
C1525 C1531 1.429 . S
C1526 C1518 1.574 . S
C1526 H1521 0.949 . S
C1526 C1532 1.368 . S
C1527 C1511 1.349 . S
C1527 H1519 0.950 . S
C1527 C1525 1.327 . S
C1528 C1516 1.349 . S
C1528 H1522 0.950 . S
C1528 C1529 1.327 . S
C1529 H1523 0.950 . S
C1529 C1528 1.327 . S
C1529 C1533 1.429 . S
C1530 C1513 1.574 . S
C1530 H1524 0.949 . S
C1530 C1534 1.368 . S
C1531 C1512 1.429 . S
C1531 C1525 1.429 . S
C1531 C1532 1.523 . S
C1532 C1513 1.368 . S
C1532 C1526 1.368 . S
C1532 C1531 1.523 . S
C1533 C1517 1.429 . S
C1533 C1529 1.429 . S
C1533 C1534 1.523 . S
C1534 C1518 1.368 . S
C1534 C1530 1.368 . S
C1534 C1533 1.523 . S
H1535 C1510 0.950 . S
H1536 C1512 0.950 . S
H1537 C1513 0.949 . S
H1538 C1515 0.950 . S
H1539 C1517 0.950 . S
C1540 C1541 1.356 . S
C1540 C1542 1.327 . S
C1540 H1565 0.950 1_565 S
C1541 C1540 1.356 . S
C1541 C1557 1.365 . S
C1542 C1540 1.327 . S
C1542 C1561 1.429 . S
C1542 H1566 0.950 . S
C1543 C1560 1.574 . S
C1543 C1562 1.368 . S
C1543 H1567 0.949 . S
H1544 C1548 0.949 . S
C1545 C1546 1.349 . S
C1545 C1547 1.327 . S
C1545 H1568 0.950 . S
C1546 C1545 1.349 . S
C1546 C1558 1.349 . S
C1547 C1545 1.327 . S
C1547 C1563 1.429 . S
C1547 H1569 0.950 . S
C1548 H1544 0.949 . S
C1548 C1556 1.574 . S
C1548 C1564 1.368 . S
H1549 C1557 0.950 . S
H1550 C1555 0.950 . S
H1551 C1556 0.949 . S
H1552 C1558 0.950 . S
H1553 C1559 0.950 . S
H1554 C1560 0.949 . S
C1555 H1550 0.950 . S
C1555 C1557 1.327 . S
C1555 C1561 1.429 . S
C1556 C1548 1.574 . S
C1556 H1551 0.949 . S
C1556 C1562 1.368 . S
C1557 C1541 1.365 . S
C1557 H1549 0.950 . S
C1557 C1555 1.327 . S
C1558 C1546 1.349 . S
C1558 H1552 0.950 . S
C1558 C1559 1.327 . S
C1559 H1553 0.950 . S
C1559 C1558 1.327 . S
C1559 C1563 1.429 . S
C1560 C1543 1.574 . S
C1560 H1554 0.949 . S
C1560 C1564 1.368 . S
C1561 C1542 1.429 . S
C1561 C1555 1.429 . S
C1561 C1562 1.523 . S
C1562 C1543 1.368 . S
C1562 C1556 1.368 . S
C1562 C1561 1.523 . S
C1563 C1547 1.429 . S
C1563 C1559 1.429 . S
C1563 C1564 1.523 . S
C1564 C1548 1.368 . S
C1564 C1560 1.368 . S
C1564 C1563 1.523 . S
H1565 C1540 0.950 1_545 S
H1566 C1542 0.950 . S
H1567 C1543 0.949 . S
H1568 C1545 0.950 . S
H1569 C1547 0.950 . S
C1570 C1571 1.349 . S
C1570 C1572 1.327 . S
C1570 H1595 0.950 . S
C1571 C1570 1.349 . S
C1571 C1587 1.349 . S
C1572 C1570 1.327 . S
C1572 C1591 1.429 . S
C1572 H1596 0.950 . S
C1573 C1590 1.574 . S
C1573 C1592 1.368 . S
C1573 H1597 0.949 . S
H1574 C1578 0.949 . S
C1575 C1576 1.349 . S
C1575 C1577 1.327 . S
C1575 H1598 0.950 . S
C1576 C1575 1.349 . S
C1576 C1588 1.349 . S
C1577 C1575 1.327 . S
C1577 C1593 1.429 . S
C1577 H1599 0.950 . S
C1578 H1574 0.949 . S
C1578 C1586 1.574 . S
C1578 C1594 1.368 . S
H1579 C1587 0.950 . S
H1580 C1585 0.950 . S
H1581 C1586 0.949 . S
H1582 C1588 0.950 . S
H1583 C1589 0.950 . S
H1584 C1590 0.949 . S
C1585 H1580 0.950 . S
C1585 C1587 1.327 . S
C1585 C1591 1.429 . S
C1586 C1578 1.574 . S
C1586 H1581 0.949 . S
C1586 C1592 1.368 . S
C1587 C1571 1.349 . S
C1587 H1579 0.950 . S
C1587 C1585 1.327 . S
C1588 C1576 1.349 . S
C1588 H1582 0.950 . S
C1588 C1589 1.327 . S
C1589 H1583 0.950 . S
C1589 C1588 1.327 . S
C1589 C1593 1.429 . S
C1590 C1573 1.574 . S
C1590 H1584 0.949 . S
C1590 C1594 1.368 . S
C1591 C1572 1.429 . S
C1591 C1585 1.429 . S
C1591 C1592 1.523 . S
C1592 C1573 1.368 . S
C1592 C1586 1.368 . S
C1592 C1591 1.523 . S
C1593 C1577 1.429 . S
C1593 C1589 1.429 . S
C1593 C1594 1.523 . S
C1594 C1578 1.368 . S
C1594 C1590 1.368 . S
C1594 C1593 1.523 . S
H1595 C1570 0.950 . S
H1596 C1572 0.950 . S
H1597 C1573 0.949 . S
H1598 C1575 0.950 . S
H1599 C1577 0.950 . S
C1600 C1601 1.349 . S
C1600 C1602 1.327 1_554 S
C1600 H1625 0.950 . S
C1601 C1600 1.349 . S
C1601 C1617 1.349 . S
C1602 C1600 1.327 1_556 S
C1602 C1621 1.429 . S
C1602 H1626 0.950 . S
C1603 C1620 1.574 . S
C1603 C1622 1.368 . S
C1603 H1627 0.949 . S
H1604 C1608 0.949 . S
C1605 C1606 1.349 . S
C1605 C1607 1.327 . S
C1605 H1628 0.950 . S
C1606 C1605 1.349 . S
C1606 C1618 1.349 . S
C1607 C1605 1.327 . S
C1607 C1623 1.429 . S
C1607 H1629 0.950 . S
C1608 H1604 0.949 . S
C1608 C1616 1.574 . S
C1608 C1624 1.368 . S
H1609 C1617 0.950 . S
H1610 C1615 0.950 . S
H1611 C1616 0.949 . S
H1612 C1618 0.950 . S
H1613 C1619 0.950 . S
H1614 C1620 0.949 . S
C1615 H1610 0.950 . S
C1615 C1617 1.327 . S
C1615 C1621 1.429 1_554 S
C1616 C1608 1.574 . S
C1616 H1611 0.949 . S
C1616 C1622 1.368 . S
C1617 C1601 1.349 . S
C1617 H1609 0.950 . S
C1617 C1615 1.327 . S
C1618 C1606 1.349 . S
C1618 H1612 0.950 . S
C1618 C1619 1.327 . S
C1619 H1613 0.950 . S
C1619 C1618 1.327 . S
C1619 C1623 1.429 . S
C1620 C1603 1.574 . S
C1620 H1614 0.949 . S
C1620 C1624 1.368 . S
C1621 C1602 1.429 . S
C1621 C1615 1.429 1_556 S
C1621 C1622 1.523 . S
C1622 C1603 1.368 . S
C1622 C1616 1.368 . S
C1622 C1621 1.523 . S
C1623 C1607 1.429 . S
C1623 C1619 1.429 . S
C1623 C1624 1.523 . S
C1624 C1608 1.368 . S
C1624 C1620 1.368 . S
C1624 C1623 1.523 . S
H1625 C1600 0.950 . S
H1626 C1602 0.950 . S
H1627 C1603 0.949 . S
H1628 C1605 0.950 . S
H1629 C1607 0.950 . S
C1630 C1631 1.349 . S
C1630 C1632 1.327 . S
C1630 H1655 0.950 . S
C1631 C1630 1.349 . S
C1631 C1647 1.349 . S
C1632 C1630 1.327 . S
C1632 C1651 1.429 . S
C1632 H1656 0.950 . S
C1633 C1650 1.574 . S
C1633 C1652 1.368 . S
C1633 H1657 0.949 . S
H1634 C1638 0.949 . S
C1635 C1636 1.349 . S
C1635 C1637 1.327 . S
C1635 H1658 0.950 . S
C1636 C1635 1.349 . S
C1636 C1648 1.349 . S
C1637 C1635 1.327 . S
C1637 C1653 1.429 . S
C1637 H1659 0.950 . S
C1638 H1634 0.949 . S
C1638 C1646 1.574 . S
C1638 C1654 1.368 . S
H1639 C1647 0.950 . S
H1640 C1645 0.950 . S
H1641 C1646 0.949 . S
H1642 C1648 0.950 . S
H1643 C1649 0.950 . S
H1644 C1650 0.949 . S
C1645 H1640 0.950 . S
C1645 C1647 1.327 . S
C1645 C1651 1.429 . S
C1646 C1638 1.574 . S
C1646 H1641 0.949 . S
C1646 C1652 1.368 . S
C1647 C1631 1.349 . S
C1647 H1639 0.950 . S
C1647 C1645 1.327 . S
C1648 C1636 1.349 . S
C1648 H1642 0.950 . S
C1648 C1649 1.327 . S
C1649 H1643 0.950 . S
C1649 C1648 1.327 . S
C1649 C1653 1.429 . S
C1650 C1633 1.574 . S
C1650 H1644 0.949 . S
C1650 C1654 1.368 . S
C1651 C1632 1.429 . S
C1651 C1645 1.429 . S
C1651 C1652 1.523 . S
C1652 C1633 1.368 . S
C1652 C1646 1.368 . S
C1652 C1651 1.523 . S
C1653 C1637 1.429 . S
C1653 C1649 1.429 . S
C1653 C1654 1.523 . S
C1654 C1638 1.368 . S
C1654 C1650 1.368 . S
C1654 C1653 1.523 . S
H1655 C1630 0.950 . S
H1656 C1632 0.950 . S
H1657 C1633 0.949 . S
H1658 C1635 0.950 . S
H1659 C1637 0.950 . S
C1660 C1661 1.349 . S
C1660 C1662 1.327 . S
C1660 H1685 0.950 . S
C1661 C1660 1.349 . S
C1661 C1677 1.349 . S
C1662 C1660 1.327 . S
C1662 C1681 1.429 . S
C1662 H1686 0.950 . S
C1663 C1680 1.574 . S
C1663 C1682 1.368 . S
C1663 H1687 0.949 . S
H1664 C1668 0.949 . S
C1665 C1666 1.349 . S
C1665 C1667 1.327 . S
C1665 H1688 0.950 . S
C1666 C1665 1.349 . S
C1666 C1678 1.349 . S
C1667 C1665 1.327 . S
C1667 C1683 1.429 . S
C1667 H1689 0.950 . S
C1668 H1664 0.949 . S
C1668 C1676 1.574 . S
C1668 C1684 1.368 . S
H1669 C1677 0.950 . S
H1670 C1675 0.950 . S
H1671 C1676 0.949 . S
H1672 C1678 0.950 . S
H1673 C1679 0.950 . S
H1674 C1680 0.949 . S
C1675 H1670 0.950 . S
C1675 C1677 1.327 . S
C1675 C1681 1.429 . S
C1676 C1668 1.574 . S
C1676 H1671 0.949 . S
C1676 C1682 1.368 . S
C1677 C1661 1.349 . S
C1677 H1669 0.950 . S
C1677 C1675 1.327 . S
C1678 C1666 1.349 . S
C1678 H1672 0.950 . S
C1678 C1679 1.327 . S
C1679 H1673 0.950 . S
C1679 C1678 1.327 . S
C1679 C1683 1.429 . S
C1680 C1663 1.574 . S
C1680 H1674 0.949 . S
C1680 C1684 1.368 . S
C1681 C1662 1.429 . S
C1681 C1675 1.429 . S
C1681 C1682 1.523 . S
C1682 C1663 1.368 . S
C1682 C1676 1.368 . S
C1682 C1681 1.523 . S
C1683 C1667 1.429 . S
C1683 C1679 1.429 . S
C1683 C1684 1.523 . S
C1684 C1668 1.368 . S
C1684 C1680 1.368 . S
C1684 C1683 1.523 . S
H1685 C1660 0.950 . S
H1686 C1662 0.950 . S
H1687 C1663 0.949 . S
H1688 C1665 0.950 . S
H1689 C1667 0.950 . S
C1690 C1691 1.349 . S
C1690 C1692 1.327 . S
C1690 H1715 0.950 . S
C1691 C1690 1.349 . S
C1691 C1707 1.349 . S
C1692 C1690 1.327 . S
C1692 C1711 1.429 . S
C1692 H1716 0.950 . S
C1693 C1710 1.574 . S
C1693 C1712 1.368 . S
C1693 H1717 0.949 . S
H1694 C1698 0.949 . S
C1695 C1696 1.349 . S
C1695 C1697 1.327 . S
C1695 H1718 0.950 . S
C1696 C1695 1.349 . S
C1696 C1708 1.349 . S
C1697 C1695 1.327 . S
C1697 C1713 1.429 . S
C1697 H1719 0.950 . S
C1698 H1694 0.949 . S
C1698 C1706 1.574 . S
C1698 C1714 1.368 . S
H1699 C1707 0.950 . S
H1700 C1705 0.950 . S
H1701 C1706 0.949 . S
H1702 C1708 0.950 . S
H1703 C1709 0.950 . S
H1704 C1710 0.949 . S
C1705 H1700 0.950 . S
C1705 C1707 1.327 . S
C1705 C1711 1.429 . S
C1706 C1698 1.574 . S
C1706 H1701 0.949 . S
C1706 C1712 1.368 . S
C1707 C1691 1.349 . S
C1707 H1699 0.950 . S
C1707 C1705 1.327 . S
C1708 C1696 1.349 . S
C1708 H1702 0.950 . S
C1708 C1709 1.327 . S
C1709 H1703 0.950 . S
C1709 C1708 1.327 . S
C1709 C1713 1.429 . S
C1710 C1693 1.574 . S
C1710 H1704 0.949 . S
C1710 C1714 1.368 . S
C1711 C1692 1.429 . S
C1711 C1705 1.429 . S
C1711 C1712 1.523 . S
C1712 C1693 1.368 . S
C1712 C1706 1.368 . S
C1712 C1711 1.523 . S
C1713 C1697 1.429 . S
C1713 C1709 1.429 . S
C1713 C1714 1.523 . S
C1714 C1698 1.368 . S
C1714 C1710 1.368 . S
C1714 C1713 1.523 . S
H1715 C1690 0.950 . S
H1716 C1692 0.950 . S
H1717 C1693 0.949 . S
H1718 C1695 0.950 . S
H1719 C1697 0.950 . S
C1720 C1721 1.349 . S
C1720 C1722 1.327 . S
C1720 H1745 0.950 . S
C1721 C1720 1.349 . S
C1721 C1737 1.349 . S
C1722 C1720 1.327 . S
C1722 C1741 1.429 . S
C1722 H1746 0.950 . S
C1723 C1740 1.574 . S
C1723 C1742 1.368 . S
C1723 H1747 0.949 . S
H1724 C1728 0.949 . S
C1725 C1726 1.349 . S
C1725 C1727 1.327 1_556 S
C1725 H1748 0.950 . S
C1726 C1725 1.349 . S
C1726 C1738 1.349 . S
C1727 C1725 1.327 1_554 S
C1727 C1743 1.429 . S
C1727 H1749 0.950 . S
C1728 H1724 0.949 . S
C1728 C1736 1.574 . S
C1728 C1744 1.368 . S
H1729 C1737 0.950 . S
H1730 C1735 0.950 . S
H1731 C1736 0.949 . S
H1732 C1738 0.950 . S
H1733 C1739 0.950 . S
H1734 C1740 0.949 . S
C1735 H1730 0.950 . S
C1735 C1737 1.327 . S
C1735 C1741 1.429 . S
C1736 C1728 1.574 . S
C1736 H1731 0.949 . S
C1736 C1742 1.368 . S
C1737 C1721 1.349 . S
C1737 H1729 0.950 . S
C1737 C1735 1.327 . S
C1738 C1726 1.349 . S
C1738 H1732 0.950 . S
C1738 C1739 1.327 . S
C1739 H1733 0.950 . S
C1739 C1738 1.327 . S
C1739 C1743 1.429 1_556 S
C1740 C1723 1.574 . S
C1740 H1734 0.949 . S
C1740 C1744 1.368 . S
C1741 C1722 1.429 . S
C1741 C1735 1.429 . S
C1741 C1742 1.523 . S
C1742 C1723 1.368 . S
C1742 C1736 1.368 . S
C1742 C1741 1.523 . S
C1743 C1727 1.429 . S
C1743 C1739 1.429 1_554 S
C1743 C1744 1.523 . S
C1744 C1728 1.368 . S
C1744 C1740 1.368 . S
C1744 C1743 1.523 . S
H1745 C1720 0.950 . S
H1746 C1722 0.950 . S
H1747 C1723 0.949 . S
H1748 C1725 0.950 . S
H1749 C1727 0.950 . S
C1750 C1751 1.349 . S
C1750 C1752 1.327 . S
C1750 H1775 0.950 . S
C1751 C1750 1.349 . S
C1751 C1767 1.349 . S
C1752 C1750 1.327 . S
C1752 C1771 1.429 . S
C1752 H1776 0.950 . S
C1753 C1770 1.574 . S
C1753 C1772 1.368 . S
C1753 H1777 0.949 . S
H1754 C1758 0.949 . S
C1755 C1756 1.349 . S
C1755 C1757 1.327 . S
C1755 H1778 0.950 . S
C1756 C1755 1.349 . S
C1756 C1768 1.349 . S
C1757 C1755 1.327 . S
C1757 C1773 1.429 . S
C1757 H1779 0.950 . S
C1758 H1754 0.949 . S
C1758 C1766 1.574 . S
C1758 C1774 1.368 . S
H1759 C1767 0.950 . S
H1760 C1765 0.950 . S
H1761 C1766 0.949 . S
H1762 C1768 0.950 . S
H1763 C1769 0.950 . S
H1764 C1770 0.949 . S
C1765 H1760 0.950 . S
C1765 C1767 1.327 . S
C1765 C1771 1.429 . S
C1766 C1758 1.574 . S
C1766 H1761 0.949 . S
C1766 C1772 1.368 . S
C1767 C1751 1.349 . S
C1767 H1759 0.950 . S
C1767 C1765 1.327 . S
C1768 C1756 1.349 . S
C1768 H1762 0.950 . S
C1768 C1769 1.327 . S
C1769 H1763 0.950 . S
C1769 C1768 1.327 . S
C1769 C1773 1.429 . S
C1770 C1753 1.574 . S
C1770 H1764 0.949 . S
C1770 C1774 1.368 . S
C1771 C1752 1.429 . S
C1771 C1765 1.429 . S
C1771 C1772 1.523 . S
C1772 C1753 1.368 . S
C1772 C1766 1.368 . S
C1772 C1771 1.523 . S
C1773 C1757 1.429 . S
C1773 C1769 1.429 . S
C1773 C1774 1.523 . S
C1774 C1758 1.368 . S
C1774 C1770 1.368 . S
C1774 C1773 1.523 . S
H1775 C1750 0.950 . S
H1776 C1752 0.950 . S
H1777 C1753 0.949 . S
H1778 C1755 0.950 . S
H1779 C1757 0.950 . S
C1780 C1781 1.349 . S
C1780 C1782 1.327 . S
C1780 H1805 0.950 . S
C1781 C1780 1.349 . S
C1781 C1797 1.349 . S
C1782 C1780 1.327 . S
C1782 C1801 1.429 . S
C1782 H1806 0.950 . S
C1783 C1800 1.574 . S
C1783 C1802 1.368 . S
C1783 H1807 0.949 . S
H1784 C1788 0.949 . S
C1785 C1786 1.349 . S
C1785 C1787 1.327 . S
C1785 H1808 0.950 . S
C1786 C1785 1.349 . S
C1786 C1798 1.349 . S
C1787 C1785 1.327 . S
C1787 C1803 1.429 . S
C1787 H1809 0.950 . S
C1788 H1784 0.949 . S
C1788 C1796 1.574 . S
C1788 C1804 1.368 . S
H1789 C1797 0.950 . S
H1790 C1795 0.950 . S
H1791 C1796 0.949 . S
H1792 C1798 0.950 . S
H1793 C1799 0.950 . S
H1794 C1800 0.949 . S
C1795 H1790 0.950 . S
C1795 C1797 1.327 . S
C1795 C1801 1.429 . S
C1796 C1788 1.574 . S
C1796 H1791 0.949 . S
C1796 C1802 1.368 . S
C1797 C1781 1.349 . S
C1797 H1789 0.950 . S
C1797 C1795 1.327 . S
C1798 C1786 1.349 . S
C1798 H1792 0.950 . S
C1798 C1799 1.327 . S
C1799 H1793 0.950 . S
C1799 C1798 1.327 . S
C1799 C1803 1.429 . S
C1800 C1783 1.574 . S
C1800 H1794 0.949 . S
C1800 C1804 1.368 . S
C1801 C1782 1.429 . S
C1801 C1795 1.429 . S
C1801 C1802 1.523 . S
C1802 C1783 1.368 . S
C1802 C1796 1.368 . S
C1802 C1801 1.523 . S
C1803 C1787 1.429 . S
C1803 C1799 1.429 . S
C1803 C1804 1.523 . S
C1804 C1788 1.368 . S
C1804 C1800 1.368 . S
C1804 C1803 1.523 . S
H1805 C1780 0.950 . S
H1806 C1782 0.950 . S
H1807 C1783 0.949 . S
H1808 C1785 0.950 . S
H1809 C1787 0.950 . S
C1810 C1811 1.349 . S
C1810 C1812 1.327 . S
C1810 H1835 0.950 . S
C1811 C1810 1.349 . S
C1811 C1827 1.349 . S
C1812 C1810 1.327 . S
C1812 C1831 1.429 . S
C1812 H1836 0.950 . S
C1813 C1830 1.574 . S
C1813 C1832 1.368 . S
C1813 H1837 0.949 . S
H1814 C1818 0.949 . S
C1815 C1816 1.349 . S
C1815 C1817 1.327 . S
C1815 H1838 0.950 . S
C1816 C1815 1.349 . S
C1816 C1828 1.349 . S
C1817 C1815 1.327 . S
C1817 C1833 1.429 . S
C1817 H1839 0.950 . S
C1818 H1814 0.949 . S
C1818 C1826 1.574 . S
C1818 C1834 1.368 . S
H1819 C1827 0.950 . S
H1820 C1825 0.950 . S
H1821 C1826 0.949 . S
H1822 C1828 0.950 . S
H1823 C1829 0.950 . S
H1824 C1830 0.949 . S
C1825 H1820 0.950 . S
C1825 C1827 1.327 . S
C1825 C1831 1.429 . S
C1826 C1818 1.574 . S
C1826 H1821 0.949 . S
C1826 C1832 1.368 . S
C1827 C1811 1.349 . S
C1827 H1819 0.950 . S
C1827 C1825 1.327 . S
C1828 C1816 1.349 . S
C1828 H1822 0.950 . S
C1828 C1829 1.327 . S
C1829 H1823 0.950 . S
C1829 C1828 1.327 . S
C1829 C1833 1.429 . S
C1830 C1813 1.574 . S
C1830 H1824 0.949 . S
C1830 C1834 1.368 . S
C1831 C1812 1.429 . S
C1831 C1825 1.429 . S
C1831 C1832 1.523 . S
C1832 C1813 1.368 . S
C1832 C1826 1.368 . S
C1832 C1831 1.523 . S
C1833 C1817 1.429 . S
C1833 C1829 1.429 . S
C1833 C1834 1.523 . S
C1834 C1818 1.368 . S
C1834 C1830 1.368 . S
C1834 C1833 1.523 . S
H1835 C1810 0.950 . S
H1836 C1812 0.950 . S
H1837 C1813 0.949 . S
H1838 C1815 0.950 . S
H1839 C1817 0.950 . S
C1840 C1841 1.349 . S
C1840 C1842 1.327 . S
C1840 H1865 0.950 . S
C1841 C1840 1.349 . S
C1841 C1857 1.349 . S
C1842 C1840 1.327 . S
C1842 C1861 1.429 . S
C1842 H1866 0.950 . S
C1843 C1860 1.574 . S
C1843 C1862 1.368 . S
C1843 H1867 0.949 . S
H1844 C1848 0.949 . S
C1845 C1846 1.349 . S
C1845 C1847 1.327 . S
C1845 H1868 0.950 . S
C1846 C1845 1.349 . S
C1846 C1858 1.349 . S
C1847 C1845 1.327 . S
C1847 C1863 1.429 . S
C1847 H1869 0.950 . S
C1848 H1844 0.949 . S
C1848 C1856 1.574 . S
C1848 C1864 1.368 . S
H1849 C1857 0.950 . S
H1850 C1855 0.950 . S
H1851 C1856 0.949 . S
H1852 C1858 0.950 . S
H1853 C1859 0.950 . S
H1854 C1860 0.949 . S
C1855 H1850 0.950 . S
C1855 C1857 1.327 . S
C1855 C1861 1.429 . S
C1856 C1848 1.574 . S
C1856 H1851 0.949 . S
C1856 C1862 1.368 . S
C1857 C1841 1.349 . S
C1857 H1849 0.950 . S
C1857 C1855 1.327 . S
C1858 C1846 1.349 . S
C1858 H1852 0.950 . S
C1858 C1859 1.327 . S
C1859 H1853 0.950 . S
C1859 C1858 1.327 . S
C1859 C1863 1.429 . S
C1860 C1843 1.574 . S
C1860 H1854 0.949 . S
C1860 C1864 1.368 . S
C1861 C1842 1.429 . S
C1861 C1855 1.429 . S
C1861 C1862 1.523 . S
C1862 C1843 1.368 . S
C1862 C1856 1.368 . S
C1862 C1861 1.523 . S
C1863 C1847 1.429 . S
C1863 C1859 1.429 . S
C1863 C1864 1.523 . S
C1864 C1848 1.368 . S
C1864 C1860 1.368 . S
C1864 C1863 1.523 . S
H1865 C1840 0.950 . S
H1866 C1842 0.950 . S
H1867 C1843 0.949 . S
H1868 C1845 0.950 . S
H1869 C1847 0.950 . S
C1870 C1871 1.349 . S
C1870 C1872 1.327 . S
C1870 H1895 0.950 . S
C1871 C1870 1.349 . S
C1871 C1887 1.349 . S
C1872 C1870 1.327 . S
C1872 C1891 1.429 . S
C1872 H1896 0.950 . S
C1873 C1890 1.574 . S
C1873 C1892 1.368 . S
C1873 H1897 0.949 . S
H1874 C1878 0.949 . S
C1875 C1876 1.349 . S
C1875 C1877 1.327 . S
C1875 H1898 0.950 . S
C1876 C1875 1.349 . S
C1876 C1888 1.349 1_545 S
C1877 C1875 1.327 . S
C1877 C1893 1.429 1_545 S
C1877 H1899 0.950 . S
C1878 H1874 0.949 . S
C1878 C1886 1.574 . S
C1878 C1894 1.368 . S
H1879 C1887 0.950 . S
H1880 C1885 0.950 . S
H1881 C1886 0.949 . S
H1882 C1888 0.950 . S
H1883 C1889 0.950 . S
H1884 C1890 0.949 1_545 S
C1885 H1880 0.950 . S
C1885 C1887 1.327 . S
C1885 C1891 1.429 . S
C1886 C1878 1.574 . S
C1886 H1881 0.949 . S
C1886 C1892 1.368 . S
C1887 C1871 1.349 . S
C1887 H1879 0.950 . S
C1887 C1885 1.327 . S
C1888 C1876 1.349 1_565 S
C1888 H1882 0.950 . S
C1888 C1889 1.327 . S
C1889 H1883 0.950 . S
C1889 C1888 1.327 . S
C1889 C1893 1.429 . S
C1890 C1873 1.574 . S
C1890 H1884 0.949 1_565 S
C1890 C1894 1.368 . S
C1891 C1872 1.429 . S
C1891 C1885 1.429 . S
C1891 C1892 1.523 . S
C1892 C1873 1.368 . S
C1892 C1886 1.368 . S
C1892 C1891 1.523 . S
C1893 C1877 1.429 1_565 S
C1893 C1889 1.429 . S
C1893 C1894 1.523 . S
C1894 C1878 1.368 . S
C1894 C1890 1.368 . S
C1894 C1893 1.523 . S
H1895 C1870 0.950 . S
H1896 C1872 0.950 . S
H1897 C1873 0.949 . S
H1898 C1875 0.950 . S
H1899 C1877 0.950 . S
C1900 C1901 1.349 . S
C1900 C1902 1.327 . S
C1900 H1925 0.950 . S
C1901 C1900 1.349 . S
C1901 C1917 1.349 . S
C1902 C1900 1.327 . S
C1902 C1921 1.429 . S
C1902 H1926 0.950 . S
C1903 C1920 1.574 . S
C1903 C1922 1.368 . S
C1903 H1927 0.949 . S
H1904 C1908 0.949 . S
C1905 C1906 1.349 . S
C1905 C1907 1.327 1_554 S
C1905 H1928 0.950 . S
C1906 C1905 1.349 . S
C1906 C1918 1.349 . S
C1907 C1905 1.327 1_556 S
C1907 C1923 1.429 . S
C1907 H1929 0.950 . S
C1908 H1904 0.949 . S
C1908 C1916 1.574 . S
C1908 C1924 1.368 . S
H1909 C1917 0.950 . S
H1910 C1915 0.950 . S
H1911 C1916 0.949 . S
H1912 C1918 0.950 . S
H1913 C1919 0.946 1_556 S
H1914 C1920 0.949 . S
C1915 H1910 0.950 . S
C1915 C1917 1.327 . S
C1915 C1921 1.429 . S
C1916 C1908 1.574 . S
C1916 H1911 0.949 . S
C1916 C1922 1.368 . S
C1917 C1901 1.349 . S
C1917 H1909 0.950 . S
C1917 C1915 1.327 . S
C1918 C1906 1.349 . S
C1918 H1912 0.950 . S
C1918 C1919 1.339 . S
C1919 H1913 0.946 1_554 S
C1919 C1918 1.339 . S
C1919 C1923 1.420 1_554 S
C1920 C1903 1.574 . S
C1920 H1914 0.949 . S
C1920 C1924 1.368 . S
C1921 C1902 1.429 . S
C1921 C1915 1.429 . S
C1921 C1922 1.523 . S
C1922 C1903 1.368 . S
C1922 C1916 1.368 . S
C1922 C1921 1.523 . S
C1923 C1907 1.429 . S
C1923 C1919 1.420 1_556 S
C1923 C1924 1.523 . S
C1924 C1908 1.368 . S
C1924 C1920 1.368 . S
C1924 C1923 1.523 . S
H1925 C1900 0.950 . S
H1926 C1902 0.950 . S
H1927 C1903 0.949 . S
H1928 C1905 0.950 . S
H1929 C1907 0.950 . S
C1930 C1931 1.349 . S
C1930 C1932 1.327 . S
C1930 H1955 0.950 . S
C1931 C1930 1.349 . S
C1931 C1947 1.349 1_565 S
C1932 C1930 1.327 . S
C1932 C1951 1.429 1_565 S
C1932 H1956 0.950 . S
C1933 C1950 1.574 . S
C1933 C1952 1.368 . S
C1933 H1957 0.949 . S
H1934 C1938 0.949 . S
C1935 C1936 1.349 . S
C1935 C1937 1.327 . S
C1935 H1958 0.950 . S
C1936 C1935 1.349 . S
C1936 C1948 1.349 . S
C1937 C1935 1.327 . S
C1937 C1953 1.429 . S
C1937 H1959 0.950 . S
C1938 H1934 0.949 . S
C1938 C1946 1.574 . S
C1938 C1954 1.368 . S
H1939 C1947 0.950 . S
H1940 C1945 0.950 . S
H1941 C1946 0.949 1_565 S
H1942 C1948 0.950 . S
H1943 C1949 0.950 . S
H1944 C1950 0.949 . S
C1945 H1940 0.950 . S
C1945 C1947 1.327 . S
C1945 C1951 1.429 . S
C1946 C1938 1.574 . S
C1946 H1941 0.949 1_545 S
C1946 C1952 1.368 . S
C1947 C1931 1.349 1_545 S
C1947 H1939 0.950 . S
C1947 C1945 1.327 . S
C1948 C1936 1.349 . S
C1948 H1942 0.950 . S
C1948 C1949 1.327 . S
C1949 H1943 0.950 . S
C1949 C1948 1.327 . S
C1949 C1953 1.429 . S
C1950 C1933 1.574 . S
C1950 H1944 0.949 . S
C1950 C1954 1.368 . S
C1951 C1932 1.429 1_545 S
C1951 C1945 1.429 . S
C1951 C1952 1.523 . S
C1952 C1933 1.368 . S
C1952 C1946 1.368 . S
C1952 C1951 1.523 . S
C1953 C1937 1.429 . S
C1953 C1949 1.429 . S
C1953 C1954 1.523 . S
C1954 C1938 1.368 . S
C1954 C1950 1.368 . S
C1954 C1953 1.523 . S
H1955 C1930 0.950 . S
H1956 C1932 0.950 . S
H1957 C1933 0.949 . S
H1958 C1935 0.950 . S
H1959 C1937 0.950 . S
C1960 C1961 1.349 . S
C1960 C1962 1.327 . S
C1960 H1985 0.950 . S
C1961 C1960 1.349 . S
C1961 C1977 1.349 . S
C1962 C1960 1.327 . S
C1962 C1981 1.429 . S
C1962 H1986 0.950 . S
C1963 C1980 1.574 . S
C1963 C1982 1.368 . S
C1963 H1987 0.949 . S
H1964 C1968 0.949 . S
C1965 C1966 1.349 . S
C1965 C1967 1.327 . S
C1965 H1988 0.950 . S
C1966 C1965 1.349 . S
C1966 C1978 1.349 . S
C1967 C1965 1.327 . S
C1967 C1983 1.429 . S
C1967 H1989 0.950 . S
C1968 H1964 0.949 . S
C1968 C1976 1.574 . S
C1968 C1984 1.368 . S
H1969 C1977 0.950 . S
H1970 C1975 0.950 . S
H1971 C1976 0.949 . S
H1972 C1978 0.950 . S
H1973 C1979 0.950 . S
H1974 C1980 0.949 . S
C1975 H1970 0.950 . S
C1975 C1977 1.327 . S
C1975 C1981 1.429 . S
C1976 C1968 1.574 . S
C1976 H1971 0.949 . S
C1976 C1982 1.368 . S
C1977 C1961 1.349 . S
C1977 H1969 0.950 . S
C1977 C1975 1.327 . S
C1978 C1966 1.349 . S
C1978 H1972 0.950 . S
C1978 C1979 1.327 . S
C1979 H1973 0.950 . S
C1979 C1978 1.327 . S
C1979 C1983 1.429 . S
C1980 C1963 1.574 . S
C1980 H1974 0.949 . S
C1980 C1984 1.368 . S
C1981 C1962 1.429 . S
C1981 C1975 1.429 . S
C1981 C1982 1.523 . S
C1982 C1963 1.368 . S
C1982 C1976 1.368 . S
C1982 C1981 1.523 . S
C1983 C1967 1.429 . S
C1983 C1979 1.429 . S
C1983 C1984 1.523 . S
C1984 C1968 1.368 . S
C1984 C1980 1.368 . S
C1984 C1983 1.523 . S
H1985 C1960 0.950 . S
H1986 C1962 0.950 . S
H1987 C1963 0.949 . S
H1988 C1965 0.950 . S
H1989 C1967 0.950 . S
C1990 C1991 1.349 . S
C1990 C1992 1.327 . S
C1990 H2015 0.950 . S
C1991 C1990 1.349 . S
C1991 C2007 1.349 . S
C1992 C1990 1.327 . S
C1992 C2011 1.429 . S
C1992 H2016 0.950 . S
C1993 C2010 1.574 . S
C1993 C2012 1.368 . S
C1993 H2017 0.949 . S
H1994 C1998 0.949 . S
C1995 C1996 1.349 . S
C1995 C1997 1.327 . S
C1995 H2018 0.950 . S
C1996 C1995 1.349 . S
C1996 C2008 1.349 1_565 S
C1997 C1995 1.327 . S
C1997 C2013 1.429 1_565 S
C1997 H2019 0.950 . S
C1998 H1994 0.949 . S
C1998 C2006 1.574 . S
C1998 C2014 1.368 . S
H1999 C2007 0.950 . S
H2000 C2005 0.950 . S
H2001 C2006 0.949 . S
H2002 C2008 0.950 . S
H2003 C2009 0.950 . S
H2004 C2010 0.949 1_565 S
C2005 H2000 0.950 . S
C2005 C2007 1.327 . S
C2005 C2011 1.429 . S
C2006 C1998 1.574 . S
C2006 H2001 0.949 . S
C2006 C2012 1.368 . S
C2007 C1991 1.349 . S
C2007 H1999 0.950 . S
C2007 C2005 1.327 . S
C2008 C1996 1.349 1_545 S
C2008 H2002 0.950 . S
C2008 C2009 1.327 . S
C2009 H2003 0.950 . S
C2009 C2008 1.327 . S
C2009 C2013 1.429 . S
C2010 C1993 1.574 . S
C2010 H2004 0.949 1_545 S
C2010 C2014 1.368 . S
C2011 C1992 1.429 . S
C2011 C2005 1.429 . S
C2011 C2012 1.523 . S
C2012 C1993 1.368 . S
C2012 C2006 1.368 . S
C2012 C2011 1.523 . S
C2013 C1997 1.429 1_545 S
C2013 C2009 1.429 . S
C2013 C2014 1.523 . S
C2014 C1998 1.368 . S
C2014 C2010 1.368 . S
C2014 C2013 1.523 . S
H2015 C1990 0.950 . S
H2016 C1992 0.950 . S
H2017 C1993 0.949 . S
H2018 C1995 0.950 . S
H2019 C1997 0.950 . S
C2020 C2021 1.349 . S
C2020 C2022 1.327 . S
C2020 H2045 0.950 . S
C2021 C2020 1.349 . S
C2021 C2037 1.349 . S
C2022 C2020 1.327 . S
C2022 C2041 1.429 . S
C2022 H2046 0.950 . S
C2023 C2040 1.574 . S
C2023 C2042 1.368 . S
C2023 H2047 0.949 . S
H2024 C2028 0.949 . S
C2025 C2026 1.349 . S
C2025 C2027 1.327 . S
C2025 H2048 0.950 . S
C2026 C2025 1.349 . S
C2026 C2038 1.349 . S
C2027 C2025 1.327 . S
C2027 C2043 1.429 1_556 S
C2027 H2049 0.950 . S
C2028 H2024 0.949 . S
C2028 C2036 1.574 . S
C2028 C2044 1.368 . S
H2029 C2037 0.950 . S
H2030 C2035 0.950 . S
H2031 C2036 0.949 . S
H2032 C2038 0.950 . S
H2033 C2039 0.950 . S
H2034 C2040 0.949 . S
C2035 H2030 0.950 . S
C2035 C2037 1.327 . S
C2035 C2041 1.429 . S
C2036 C2028 1.574 . S
C2036 H2031 0.949 . S
C2036 C2042 1.368 . S
C2037 C2021 1.349 . S
C2037 H2029 0.950 . S
C2037 C2035 1.327 . S
C2038 C2026 1.349 . S
C2038 H2032 0.950 . S
C2038 C2039 1.327 1_556 S
C2039 H2033 0.950 . S
C2039 C2038 1.327 1_554 S
C2039 C2043 1.429 . S
C2040 C2023 1.574 . S
C2040 H2034 0.949 . S
C2040 C2044 1.368 . S
C2041 C2022 1.429 . S
C2041 C2035 1.429 . S
C2041 C2042 1.523 . S
C2042 C2023 1.368 . S
C2042 C2036 1.368 . S
C2042 C2041 1.523 . S
C2043 C2027 1.429 1_554 S
C2043 C2039 1.429 . S
C2043 C2044 1.523 . S
C2044 C2028 1.368 . S
C2044 C2040 1.368 . S
C2044 C2043 1.523 . S
H2045 C2020 0.950 . S
H2046 C2022 0.950 . S
H2047 C2023 0.949 . S
H2048 C2025 0.950 . S
H2049 C2027 0.950 . S
C2050 C2051 1.349 . S
C2050 C2052 1.327 . S
C2050 H2075 0.950 . S
C2051 C2050 1.349 . S
C2051 C2067 1.349 . S
C2052 C2050 1.327 . S
C2052 C2071 1.429 . S
C2052 H2076 0.950 . S
C2053 C2070 1.574 . S
C2053 C2072 1.368 . S
C2053 H2077 0.949 . S
H2054 C2058 0.949 . S
C2055 C2056 1.349 . S
C2055 C2057 1.327 . S
C2055 H2078 0.950 . S
C2056 C2055 1.349 . S
C2056 C2068 1.349 1_545 S
C2057 C2055 1.327 . S
C2057 C2073 1.429 1_545 S
C2057 H2079 0.950 . S
C2058 H2054 0.949 . S
C2058 C2066 1.574 . S
C2058 C2074 1.368 . S
H2059 C2067 0.950 . S
H2060 C2065 0.950 . S
H2061 C2066 0.949 . S
H2062 C2068 0.950 . S
H2063 C2069 0.950 . S
H2064 C2070 0.949 . S
C2065 H2060 0.950 . S
C2065 C2067 1.327 . S
C2065 C2071 1.429 . S
C2066 C2058 1.574 . S
C2066 H2061 0.949 . S
C2066 C2072 1.368 . S
C2067 C2051 1.349 . S
C2067 H2059 0.950 . S
C2067 C2065 1.327 . S
C2068 C2056 1.349 1_565 S
C2068 H2062 0.950 . S
C2068 C2069 1.327 . S
C2069 H2063 0.950 . S
C2069 C2068 1.327 . S
C2069 C2073 1.429 . S
C2070 C2053 1.574 . S
C2070 H2064 0.949 . S
C2070 C2074 1.368 . S
C2071 C2052 1.429 . S
C2071 C2065 1.429 . S
C2071 C2072 1.523 . S
C2072 C2053 1.368 . S
C2072 C2066 1.368 . S
C2072 C2071 1.523 . S
C2073 C2057 1.429 1_565 S
C2073 C2069 1.429 . S
C2073 C2074 1.523 . S
C2074 C2058 1.368 . S
C2074 C2070 1.368 . S
C2074 C2073 1.523 . S
H2075 C2050 0.950 . S
H2076 C2052 0.950 . S
H2077 C2053 0.949 . S
H2078 C2055 0.950 . S
H2079 C2057 0.950 . S
C641 C9 2.266 . S
C646 C409 2.266 . S
C671 C49 2.266 . S
C676 C449 2.266 . S
C701 C89 2.266 . S
C706 C329 2.266 . S
C731 C369 2.266 . S
C736 C129 2.266 . S
C761 C178 2.266 . S
C766 C578 2.266 . S
C791 C618 2.266 . S
C796 C218 2.266 . S
C821 C498 2.266 . S
C826 C258 2.266 . S
C851 C298 2.266 . S
C856 C538 2.266 . S
C881 C15 0.739 . S
C886 C166 0.739 . S
C911 C55 0.739 . S
C916 C526 0.739 . S
C941 C95 0.739 . S
C946 C246 0.739 . S
C971 C135 0.739 . S
C976 C606 0.739 . S
C1001 C206 0.739 . S
C1006 C375 0.739 . S
C1031 C455 0.739 . S
C1036 C286 0.739 . S
C1061 C486 0.739 . S
C1066 C335 0.739 . S
C1091 C415 0.739 . S
C1096 C566 0.739 . S
C1121 C6 0.800 . S
C1126 C289 0.814 . S
C1151 C46 0.800 . S
C1156 C489 0.814 . S
C1181 C86 0.800 . S
C1186 C209 0.814 . S
C1211 C126 0.800 . S
C1216 C569 0.814 . S
C1241 C138 0.814 . S
C1246 C175 0.800 . S
C1271 C215 0.800 . S
C1276 C338 0.814 . S
C1301 C255 0.800 . S
C1306 C58 0.814 . S
C1331 C418 0.814 . S
C1336 C295 0.800 . S
C1361 C326 0.800 . S
C1366 C609 0.790 1_565 S
C1391 C169 0.814 . S
C1396 C366 0.800 . S
C1421 C529 0.790 1_545 S
C1426 C406 0.800 . S
C1451 C249 0.814 . S
C1456 C446 0.800 . S
C1481 C495 0.800 . S
C1486 C458 0.790 1_545 S
C1511 C535 0.800 . S
C1516 C18 0.814 . S
C1541 C378 0.790 1_565 S
C1546 C575 0.800 . S
C1571 C615 0.800 . S
C1576 C98 0.814 . S
C1601 C19 4.097 . S
C1606 C370 4.132 . S
C1631 C410 4.132 . S
C1636 C59 4.097 . S
C1661 C99 4.097 . S
C1666 C450 4.132 . S
C1691 C330 4.132 . S
C1696 C139 4.097 . S
C1721 C539 4.132 . S
C1726 C170 4.097 . S
C1751 C579 4.132 . S
C1756 C210 4.097 . S
C1781 C619 4.132 . S
C1786 C250 4.097 . S
C1811 C499 4.132 . S
C1816 C290 4.097 . S
C1841 C50 4.132 . S
C1846 C339 4.097 . S
C1871 C90 4.132 . S
C1876 C379 4.097 . S
C1901 C130 4.132 . S
C1906 C419 4.097 . S
C1931 C459 4.097 . S
C1936 C10 4.132 . S
C1961 C219 4.132 . S
C1966 C490 4.097 . S
C1991 C259 4.132 . S
C1996 C530 4.097 . S
C2021 C299 4.132 . S
C2026 C570 4.097 . S
C2051 C179 4.132 . S
C2056 C610 4.097 . S
