# Generated by pormake.
# Topology rob, (6)-cn, num edge types: 1
# Building blocks:
#     Node 0, Type 0, BuildingBlock: BETDIP_clean_sbu_0, # of connection points: 6
#     Node 1, Type 0, BuildingBlock: BETDIP_clean_sbu_0, # of connection points: 6
#     Node 2, Type 0, BuildingBlock: BETDIP_clean_sbu_0, # of connection points: 6
#     Node 3, Type 0, BuildingBlock: BETDIP_clean_sbu_0, # of connection points: 6
#     Edge 4, Type (0, 0), BuildingBlock: XIVTED_clean_linker_0, # of connection points: 2
#     Edge 5, Type (0, 0), BuildingBlock: XIVTED_clean_linker_0, # of connection points: 2
#     Edge 6, Type (0, 0), BuildingBlock: XIVTED_clean_linker_0, # of connection points: 2
#     Edge 7, Type (0, 0), BuildingBlock: XIVTED_clean_linker_0, # of connection points: 2
#     Edge 8, Type (0, 0), BuildingBlock: XIVTED_clean_linker_0, # of connection points: 2
#     Edge 9, Type (0, 0), BuildingBlock: XIVTED_clean_linker_0, # of connection points: 2
#     Edge 10, Type (0, 0), BuildingBlock: XIVTED_clean_linker_0, # of connection points: 2
#     Edge 11, Type (0, 0), BuildingBlock: XIVTED_clean_linker_0, # of connection points: 2
#     Edge 12, Type (0, 0), BuildingBlock: XIVTED_clean_linker_0, # of connection points: 2
#     Edge 13, Type (0, 0), BuildingBlock: XIVTED_clean_linker_0, # of connection points: 2
#     Edge 14, Type (0, 0), BuildingBlock: XIVTED_clean_linker_0, # of connection points: 2
#     Edge 15, Type (0, 0), BuildingBlock: XIVTED_clean_linker_0, # of connection points: 2
# Relax obj value: 0.036
# Max RMSD: 0.140
# Mean RMSD: 0.140
data_MOF--net-rob--node1-BETDIP_clean_sbu_0--edge1-XIVTED_clean_linker_0
_symmetry_space_group_name_H-M    P1
_symmetry_Int_Tables_number       1
_symmetry_cell_setting            triclinic
loop_
_symmetry_equiv_pos_as_xyz
'x, y, z'
_cell_length_a     15.151674
_cell_length_b     24.325616
_cell_length_c     36.688589
_cell_angle_alpha  96.090163
_cell_angle_beta   89.981168
_cell_angle_gamma 90.026656
loop_
_atom_site_label
_atom_site_type_symbol
_atom_site_fract_x
_atom_site_fract_y
_atom_site_fract_z
_atom_type_partial_charge
Tb0 Tb 0.16054 0.29326 0.04311 0.0
Tb1 Tb 0.33913 0.25264 1.01597 0.0
C2 C 0.01862 0.3019 0.07867 0.0
C3 C -0.00094 0.30342 0.11819 0.0
C4 C 0.92297 0.27746 0.1297 0.0
C5 C 0.90543 0.27646 0.16708 0.0
C6 C 0.96369 0.30154 0.19381 0.0
C7 C 0.04025 0.32737 0.18208 0.0
C8 C 0.05782 0.32819 0.14468 0.0
C9 C 0.27708 0.37088 0.03441 0.0
C10 C 0.30935 0.25874 0.09964 0.0
C11 C 0.48223 0.24345 0.9811 0.0
C12 C 0.50577 0.24668 0.94222 0.0
C13 C 0.47416 0.28969 0.92302 0.0
C14 C 0.49192 0.29004 0.88561 0.0
C15 C 0.54238 0.24771 0.86664 0.0
C16 C 0.5755 0.20535 0.88612 0.0
C17 C 0.55713 0.20479 0.92349 0.0
C18 C 0.22299 0.17518 0.02533 0.0
C19 C 0.18873 0.28628 0.95961 0.0
O20 O 0.049 0.25481 0.06309 0.0
O21 O 0.06168 0.34428 0.06833 0.0
O22 O 0.29166 0.32539 0.04669 0.0
O23 O 0.19314 0.376 0.02871 0.0
O24 O 0.22513 0.26695 0.09207 0.0
O25 O 0.37118 0.25781 0.07407 0.0
O26 O 0.45613 0.28936 0.99991 0.0
O27 O 0.4334 0.20119 0.98755 0.0
O28 O 0.20829 0.22035 1.01261 0.0
O29 O 0.30694 0.17037 0.03123 0.0
O30 O 0.27364 0.27989 0.96717 0.0
O31 O 0.12742 0.28603 0.98528 0.0
H32 H 0.87746 0.25741 0.10973 0.0
H33 H 0.84676 0.25522 0.17497 0.0
H34 H 0.08626 0.34752 0.20175 0.0
H35 H 0.11767 0.34796 0.1365 0.0
H36 H 0.43447 0.32268 0.93673 0.0
H37 H 0.46641 0.32364 0.87156 0.0
H38 H 0.61408 0.17192 0.87229 0.0
H39 H 0.58203 0.17113 0.93767 0.0
Tb40 Tb 0.6586 0.79539 0.04299 0.0
Tb41 Tb 0.8361 0.75365 1.01491 0.0
C42 C 0.51583 0.80624 0.07806 0.0
C43 C 0.49145 0.80351 0.11689 0.0
C44 C 0.52089 0.76016 0.13627 0.0
C45 C 0.50177 0.76007 0.1736 0.0
C46 C 0.45188 0.80298 0.19225 0.0
C47 C 0.42112 0.84578 0.1726 0.0
C48 C 0.44096 0.84609 0.13535 0.0
C49 C 0.77553 0.87224 0.03321 0.0
C50 C 0.80834 0.75913 0.09849 0.0
C51 C 0.97875 0.74249 0.97973 0.0
C52 C 0.00346 0.74561 0.94096 0.0
C53 C 0.97431 0.78922 0.92174 0.0
C54 C 0.9939 0.78972 0.88447 0.0
C55 C 0.04407 0.74701 0.86573 0.0
C56 C 0.07454 0.70397 0.88524 0.0
C57 C 0.05417 0.70323 0.92241 0.0
C58 C 0.71841 0.67702 0.02464 0.0
C59 C 0.68666 0.79027 0.95948 0.0
O60 O 0.54072 0.75999 0.05934 0.0
O61 O 0.56608 0.84788 0.07163 0.0
O62 O 0.79029 0.82689 0.0457 0.0
O63 O 0.69152 0.87747 0.02772 0.0
O64 O 0.7236 0.7667 0.09129 0.0
O65 O 0.86949 0.75911 0.07274 0.0
O66 O 0.95446 0.78866 0.99871 0.0
O67 O 0.92788 0.70102 0.9859 0.0
O68 O 0.70449 0.72238 1.01209 0.0
O69 O 0.80233 0.67156 0.03026 0.0
O70 O 0.77138 0.78284 0.96674 0.0
O71 O 0.62538 0.78995 0.98515 0.0
H72 H 0.55949 0.72653 0.1227 0.0
H73 H 0.52548 0.72613 0.18778 0.0
H74 H 0.38315 0.87969 0.18619 0.0
H75 H 0.41772 0.88002 0.12102 0.0
H76 H 0.93561 0.82273 0.93539 0.0
H77 H 0.97038 0.82383 0.87041 0.0
H78 H 0.11271 0.67021 0.87158 0.0
H79 H 0.07724 0.66912 0.93661 0.0
Tb80 Tb 0.16038 0.75507 0.51513 0.0
Tb81 Tb 0.33815 0.79482 0.54286 0.0
C82 C 0.01858 0.74665 0.47941 0.0
C83 C -0.00069 0.74438 0.43986 0.0
C84 C 0.91938 0.76537 0.42809 0.0
C85 C 0.90182 0.76545 0.39064 0.0
C86 C 0.96404 0.74456 0.36415 0.0
C87 C 0.04433 0.72366 0.37617 0.0
C88 C 0.06175 0.72357 0.41362 0.0
C89 C 0.27671 0.67688 0.52282 0.0
C90 C 0.31057 0.78992 0.45935 0.0
C91 C 0.48001 0.80324 0.57849 0.0
C92 C 0.49904 0.80575 0.61804 0.0
C93 C 0.57834 0.78414 0.62997 0.0
C94 C 0.59546 0.78412 0.66745 0.0
C95 C 0.53341 0.8057 0.6938 0.0
C96 C 0.45377 0.82724 0.68163 0.0
C97 C 0.43677 0.82725 0.64415 0.0
C98 C 0.22201 0.87299 0.53489 0.0
C99 C 0.18777 0.76027 0.59871 0.0
O100 O 0.04988 0.79376 0.49455 0.0
O101 O 0.06098 0.7043 0.49006 0.0
O102 O 0.2915 0.72276 0.5111 0.0
O103 O 0.1928 0.67179 0.52856 0.0
O104 O 0.22582 0.78319 0.46676 0.0
O105 O 0.37181 0.78866 0.48496 0.0
O106 O 0.44851 0.75609 0.5635 0.0
O107 O 0.43788 0.84557 0.56767 0.0
O108 O 0.20721 0.82723 0.5468 0.0
O109 O 0.30598 0.87799 0.52922 0.0
O110 O 0.27253 0.76708 0.59133 0.0
O111 O 0.12662 0.76122 0.57303 0.0
H112 H 0.87079 0.78219 0.44789 0.0
H113 H 0.83995 0.78274 0.38248 0.0
H114 H 0.09344 0.70677 0.35665 0.0
H115 H 0.12428 0.70745 0.42206 0.0
H116 H 0.62673 0.76675 0.61026 0.0
H117 H 0.65681 0.76632 0.67574 0.0
H118 H 0.40484 0.84465 0.70105 0.0
H119 H 0.37469 0.84381 0.63559 0.0
Tb120 Tb 0.65748 0.25242 0.5161 0.0
Tb121 Tb 0.83574 0.29416 0.54309 0.0
C122 C 0.5146 0.24233 0.48108 0.0
C123 C 0.49088 0.2457 0.44223 0.0
C124 C 0.52166 0.2891 0.42316 0.0
C125 C 0.50379 0.2896 0.38576 0.0
C126 C 0.4539 0.24706 0.36668 0.0
C127 C 0.4215 0.20434 0.38604 0.0
C128 C 0.44008 0.20361 0.42338 0.0
C129 C 0.77403 0.17549 0.52593 0.0
C130 C 0.80738 0.28633 0.45961 0.0
C131 C 0.97783 0.30395 0.57854 0.0
C132 C -0.0012 0.30468 0.61792 0.0
C133 C 0.07566 0.27877 0.62868 0.0
C134 C 0.09504 0.2774 0.66587 0.0
C135 C 0.03794 0.30208 0.69321 0.0
C136 C 0.96054 0.3278 0.68222 0.0
C137 C 0.9411 0.32896 0.645 0.0
C138 C 0.71827 0.371 0.53361 0.0
C139 C 0.68717 0.25944 0.59972 0.0
O140 O 0.53978 0.2883 0.50008 0.0
O141 O 0.5643 0.20042 0.48739 0.0
O142 O 0.78882 0.22057 0.51304 0.0
O143 O 0.69006 0.17053 0.53177 0.0
O144 O 0.72264 0.27958 0.46728 0.0
O145 O 0.86889 0.28672 0.48522 0.0
O146 O 0.94892 0.25677 0.56249 0.0
O147 O 0.93284 0.34602 0.56891 0.0
O148 O 0.70439 0.32575 0.54634 0.0
O149 O 0.80219 0.37637 0.52789 0.0
O150 O 0.77135 0.26784 0.59211 0.0
O151 O 0.62532 0.25806 0.57416 0.0
H152 H 0.56089 0.32227 0.43695 0.0
H153 H 0.52879 0.32346 0.3718 0.0
H154 H 0.38337 0.17075 0.37213 0.0
H155 H 0.41576 0.16967 0.43745 0.0
H156 H 0.12044 0.25913 0.60826 0.0
H157 H 0.15429 0.25624 0.67315 0.0
H158 H 0.91534 0.34767 0.70234 0.0
H159 H 0.88072 0.3487 0.63743 0.0
H160 H 0.54681 0.67615 1.00158 0.0
H161 H 0.44826 0.37229 0.0579 0.0
H162 H 0.73929 0.57769 0.05186 0.0
H163 H 0.25559 0.47048 1.0075 0.0
H164 H 0.55588 0.4469 0.05579 0.0
H165 H 0.43878 0.60177 1.00394 0.0
C166 C 0.56609 0.63896 1.01334 0.0
C167 C 0.65189 0.63307 0.02671 0.0
C168 C 0.49016 0.45218 0.04511 0.0
C169 C 0.52903 0.5475 0.02916 0.0
C170 C 0.42883 0.40949 0.04618 0.0
C171 C 0.34313 0.41519 0.03267 0.0
C172 C 0.46557 0.50106 0.0305 0.0
C173 C 0.32108 0.46446 1.01818 0.0
C174 C 0.50454 0.5964 1.01455 0.0
C175 C 0.67375 0.58384 0.04128 0.0
N176 N 0.38188 0.50551 1.01748 0.0
N177 N 0.61276 0.54293 0.0421 0.0
H178 H 0.44917 0.67643 0.50082 0.0
H179 H 0.5467 0.37223 0.55688 0.0
H180 H 0.25409 0.57634 0.54833 0.0
H181 H 0.73918 0.47009 0.50598 0.0
H182 H 0.43864 0.44645 0.5541 0.0
H183 H 0.55682 0.60184 0.50307 0.0
C184 C 0.42916 0.63878 0.51187 0.0
C185 C 0.34276 0.63254 0.52453 0.0
C186 C 0.5044 0.45171 0.54343 0.0
C187 C 0.46533 0.54679 0.52698 0.0
C188 C 0.56598 0.40924 0.54488 0.0
C189 C 0.65178 0.41497 0.53144 0.0
C190 C 0.52887 0.50043 0.52856 0.0
C191 C 0.67364 0.46404 0.51662 0.0
C192 C 0.49053 0.59613 0.51305 0.0
C193 C 0.3201 0.58279 0.5383 0.0
N194 N 0.61265 0.50489 0.5156 0.0
N195 N 0.38097 0.54184 0.53917 0.0
H196 H 0.24612 0.07605 0.05247 0.0
H197 H 0.75269 0.97122 1.00588 0.0
H198 H 0.05131 0.17294 1.00224 0.0
H199 H 0.9475 0.87417 0.05598 0.0
H200 H 0.86124 0.04547 1.00407 0.0
H201 H 0.13779 1.00161 0.05407 0.0
C202 C 0.18038 0.08165 0.04187 0.0
C203 C 0.15743 0.13068 0.02731 0.0
C204 C 0.88043 1.00791 1.01538 0.0
C205 C 0.03317 0.04575 0.0289 0.0
C206 C 0.8185 0.96553 1.01639 0.0
C207 C 0.84137 0.91652 0.03098 0.0
C208 C 0.96589 1.00125 0.02916 0.0
C209 C 0.92742 0.91121 0.04425 0.0
C210 C 0.11858 0.03917 0.04276 0.0
C211 C 0.07147 0.13587 1.01391 0.0
N212 N 0.98653 0.95308 0.04307 0.0
N213 N 0.01248 0.09392 1.015 0.0
H214 H 0.75095 0.07662 0.55353 0.0
H215 H 0.24591 0.97294 0.50901 0.0
H216 H 0.9462 0.17339 0.50334 0.0
H217 H 0.04934 0.87444 0.55698 0.0
H218 H 0.13748 0.04718 0.50723 0.0
H219 H 0.85958 1.00253 0.55578 0.0
C220 C 0.81684 0.08228 0.54308 0.0
C221 C 0.83981 0.13119 0.52833 0.0
C222 C 0.11788 1.00933 0.5181 0.0
C223 C 0.96445 0.04663 0.5307 0.0
C224 C 0.17977 0.96695 0.5191 0.0
C225 C 0.15638 0.9175 0.53306 0.0
C226 C 0.03189 1.00226 0.53123 0.0
C227 C 0.06989 0.91185 0.5458 0.0
C228 C 0.87882 0.03999 0.54435 0.0
C229 C 0.92599 0.13644 0.51516 0.0
N230 N 0.01079 0.95372 0.54461 0.0
N231 N 0.98515 0.09468 0.51663 0.0
H232 H 0.56796 0.27104 0.3122 0.0
H233 H 0.19781 0.24185 0.15579 0.0
H234 H 0.29833 0.22351 0.33015 0.0
H235 H 0.47407 0.26336 0.13215 0.0
H236 H 0.2341 0.23796 0.22001 0.0
H237 H 0.53557 0.27172 0.24678 0.0
C238 C 0.50187 0.26095 0.30242 0.0
C239 C 0.4357 0.24725 0.32678 0.0
C240 C 0.28704 0.24327 0.20085 0.0
C241 C 0.39832 0.24775 0.25186 0.0
C242 C 0.26635 0.24568 0.16404 0.0
C243 C 0.33297 0.2532 0.13838 0.0
C244 C 0.37518 0.24864 0.21247 0.0
C245 C 0.42058 0.25741 0.15089 0.0
C246 C 0.48361 0.261 0.26503 0.0
C247 C 0.35162 0.23379 0.31242 0.0
N248 N 0.43912 0.25536 0.1871 0.0
N249 N 0.33533 0.23462 0.27603 0.0
H250 H 0.29517 0.82792 0.22753 0.0
H251 H 0.47593 0.78266 0.42779 0.0
H252 H 0.56263 0.77823 0.24761 0.0
H253 H 0.20204 0.81005 0.40286 0.0
H254 H 0.51233 0.78744 0.36301 0.0
H255 H 0.26301 0.82777 0.29276 0.0
C256 C 0.34735 0.8173 0.24571 0.0
C257 C 0.43173 0.80306 0.23201 0.0
C258 C 0.44432 0.79246 0.3718 0.0
C259 C 0.39526 0.8026 0.30696 0.0
C260 C 0.42356 0.78998 0.40881 0.0
C261 C 0.33572 0.79566 0.42083 0.0
C262 C 0.37683 0.80105 0.3467 0.0
C263 C 0.27058 0.80492 0.39491 0.0
C264 C 0.32883 0.81695 0.28297 0.0
C265 C 0.49637 0.7889 0.25688 0.0
N266 N 0.29243 0.80727 0.3592 0.0
N267 N 0.47687 0.78915 0.29313 0.0
H268 H 0.79529 0.80946 0.90294 0.0
H269 H 0.41888 0.78526 0.74928 0.0
H270 H 0.5207 0.78579 0.92816 0.0
H271 H 0.69062 0.82685 0.72963 0.0
H272 H 0.45273 0.78503 0.81454 0.0
H273 H 0.75652 0.81517 0.83929 0.0
C274 C 0.72666 0.8055 0.89515 0.0
C275 C 0.66141 0.79679 0.92108 0.0
C276 C 0.5048 0.79431 0.79592 0.0
C277 C 0.6159 0.80343 0.84758 0.0
C278 C 0.4855 0.79472 0.75864 0.0
C279 C 0.55209 0.8059 0.73372 0.0
C280 C 0.59135 0.80505 0.80844 0.0
C281 C 0.63741 0.81704 0.74753 0.0
C282 C 0.70441 0.80893 0.85864 0.0
C283 C 0.57328 0.79257 0.90917 0.0
N284 N 0.65448 0.81621 0.78381 0.0
N285 N 0.55311 0.79564 0.87322 0.0
H286 H 0.79888 0.24362 0.65597 0.0
H287 H 0.42792 0.27075 0.8121 0.0
H288 H 0.52234 0.26312 0.63209 0.0
H289 H 0.6982 0.22486 0.8302 0.0
H290 H 0.46041 0.27144 0.74668 0.0
H291 H 0.76245 0.23962 0.72016 0.0
C292 C 0.73025 0.24699 0.66416 0.0
C293 C 0.66358 0.25397 0.63845 0.0
C294 C 0.51248 0.26107 0.76496 0.0
C295 C 0.62122 0.24928 0.7125 0.0
C296 C 0.49418 0.26101 0.80235 0.0
C297 C 0.56052 0.24779 0.82674 0.0
C298 C 0.59798 0.2483 0.75186 0.0
C299 C 0.64479 0.23476 0.81244 0.0
C300 C 0.70948 0.24451 0.70096 0.0
C301 C 0.57586 0.2576 0.65089 0.0
N302 N 0.66111 0.2356 0.77606 0.0
N303 N 0.55724 0.2555 0.68708 0.0
H304 H 0.70021 0.7397 0.15517 0.0
H305 H 0.0775 0.76606 0.30853 0.0
H306 H 0.97437 0.76442 0.12972 0.0
H307 H 0.8068 0.72241 0.32847 0.0
H308 H 0.04297 0.76621 0.24333 0.0
H309 H 0.73947 0.73432 0.21885 0.0
C310 C 0.76883 0.74397 0.16292 0.0
C311 C 0.83383 0.75285 0.13691 0.0
C312 C 0.99127 0.75649 0.262 0.0
C313 C 0.8799 0.74662 0.21042 0.0
C314 C 0.01097 0.75613 0.29925 0.0
C315 C 0.94489 0.74438 0.32424 0.0
C316 C 0.90481 0.74515 0.24956 0.0
C317 C 0.85963 0.73267 0.31052 0.0
C318 C 0.79137 0.74072 0.19944 0.0
C319 C 0.92198 0.75747 0.14877 0.0
N320 N 0.84216 0.73347 0.27425 0.0
N321 N 0.94241 0.7546 0.18471 0.0
H322 H 0.6978 0.28811 0.40078 0.0
H323 H 0.07971 0.29005 0.25059 0.0
H324 H 0.97384 0.29446 0.42965 0.0
H325 H 0.80283 0.31212 0.22831 0.0
H326 H 0.0445 0.28888 0.31567 0.0
H327 H 0.73694 0.29338 0.33715 0.0
C328 C 0.76678 0.29094 0.39386 0.0
C329 C 0.83236 0.29107 0.42088 0.0
C330 C 0.9916 0.29405 0.29649 0.0
C331 C 0.87834 0.29671 0.34726 0.0
C332 C 0.01162 0.29501 0.2593 0.0
C333 C 0.94413 0.30101 0.23367 0.0
C334 C 0.90342 0.29888 0.30821 0.0
C335 C 0.85704 0.30636 0.24672 0.0
C336 C 0.78922 0.29391 0.35731 0.0
C337 C 0.92091 0.29437 0.40984 0.0
N338 N 0.83935 0.30503 0.28292 0.0
N339 N 0.94136 0.29688 0.37385 0.0
H340 H 0.20061 0.31221 0.72635 0.0
H341 H 0.02168 0.29353 0.93043 0.0
H342 H 0.92482 0.29051 0.75099 0.0
H343 H 0.297 0.2894 0.90028 0.0
H344 H 0.98306 0.29861 0.86591 0.0
H345 H 0.23548 0.30938 0.79091 0.0
C346 C 0.14725 0.30649 0.74522 0.0
C347 C 0.05955 0.30129 0.73289 0.0
C348 C 0.05194 0.29669 0.87352 0.0
C349 C 0.0992 0.29909 0.80753 0.0
C350 C 0.07408 0.29392 0.91038 0.0
C351 C 0.16296 0.29112 0.92098 0.0
C352 C 0.11915 0.29691 0.84709 0.0
C353 C 0.22781 0.29165 0.89364 0.0
C354 C 0.16725 0.30526 0.78226 0.0
C355 C 0.99328 0.29533 0.75911 0.0
N356 N 0.20469 0.2945 0.85814 0.0
N357 N 0.01446 0.29437 0.79512 0.0
H358 H 0.02215 0.7672 0.63008 0.0
H359 H 0.20132 0.72265 0.83071 0.0
H360 H 0.29614 0.74114 0.65551 0.0
H361 H 0.93399 0.77213 0.81022 0.0
H362 H 0.23422 0.72318 0.76557 0.0
H363 H 0.98534 0.76273 0.69486 0.0
C364 C 0.07447 0.76024 0.64917 0.0
C365 C 0.16244 0.75481 0.63727 0.0
C366 C 0.16827 0.73388 0.77525 0.0
C367 C 0.12083 0.74976 0.71142 0.0
C368 C 0.14933 0.73331 0.81247 0.0
C369 C 0.06475 0.74735 0.82603 0.0
C370 C 0.10206 0.74821 0.75115 0.0
C371 C 0.00038 0.76159 0.80107 0.0
C372 C 0.05347 0.75794 0.68618 0.0
C373 C 0.22749 0.74603 0.66334 0.0
N374 N 0.02027 0.76151 0.76486 0.0
N375 N 0.20539 0.74382 0.69905 0.0
loop_
_geom_bond_atom_site_label_1
_geom_bond_atom_site_label_2
_geom_bond_distance
_geom_bond_site_symmetry_2
_ccdc_geom_bond_type
Tb0 C2 2.809 . S
Tb0 O20 2.484 . S
Tb0 O21 2.440 . S
Tb0 O22 2.658 1_554 S
Tb0 O23 2.409 . S
Tb0 O24 2.378 . S
Tb0 O28 2.325 . S
Tb0 O31 2.341 1_554 S
Tb1 C11 2.809 . S
Tb1 O22 2.325 . S
Tb1 O25 2.341 1_556 S
Tb1 O26 2.484 . S
Tb1 O27 2.440 . S
Tb1 O28 2.658 1_556 S
Tb1 O29 2.409 . S
Tb1 O30 2.378 . S
C2 Tb0 2.809 . S
C2 C3 1.514 . S
C2 O20 1.248 . S
C2 O21 1.266 . S
C3 C2 1.514 . S
C3 C4 1.359 . S
C3 C8 1.348 . S
C4 C3 1.359 . S
C4 C5 1.380 . S
C4 H32 0.929 . S
C5 C4 1.380 . S
C5 C6 1.347 . S
C5 H33 0.931 1_455 S
C6 C5 1.347 . S
C6 C7 1.369 . S
C7 C6 1.369 . S
C7 C8 1.408 . S
C7 H34 0.930 . S
C8 C3 1.348 . S
C8 C7 1.408 . S
C8 H35 0.930 . S
C9 O22 1.281 1_554 S
C9 O23 1.254 . S
C10 O24 1.236 . S
C10 O25 1.266 . S
C11 Tb1 2.809 . S
C11 C12 1.514 . S
C11 O26 1.248 . S
C11 O27 1.266 . S
C12 C11 1.514 . S
C12 C13 1.359 . S
C12 C17 1.348 . S
C13 C12 1.359 . S
C13 C14 1.380 . S
C13 H36 0.929 . S
C14 C13 1.380 . S
C14 C15 1.347 . S
C14 H37 0.931 . S
C15 C14 1.347 . S
C15 C16 1.369 . S
C16 C15 1.369 . S
C16 C17 1.408 . S
C16 H38 0.930 . S
C17 C12 1.348 . S
C17 C16 1.408 . S
C17 H39 0.930 . S
C18 O28 1.281 . S
C18 O29 1.254 1_554 S
C19 O30 1.236 . S
C19 O31 1.266 . S
O20 Tb0 2.484 . S
O20 C2 1.248 . S
O21 Tb0 2.440 . S
O21 C2 1.266 . S
O22 Tb0 2.658 1_556 S
O22 Tb1 2.325 . S
O22 C9 1.281 1_556 S
O23 Tb0 2.409 . S
O23 C9 1.254 . S
O24 Tb0 2.378 . S
O24 C10 1.236 . S
O25 Tb1 2.341 1_554 S
O25 C10 1.266 . S
O26 Tb1 2.484 . S
O26 C11 1.248 . S
O27 Tb1 2.440 . S
O27 C11 1.266 . S
O28 Tb0 2.325 . S
O28 Tb1 2.658 1_554 S
O28 C18 1.281 . S
O29 Tb1 2.409 . S
O29 C18 1.254 1_556 S
O30 Tb1 2.378 . S
O30 C19 1.236 . S
O31 Tb0 2.341 1_556 S
O31 C19 1.266 . S
H32 C4 0.929 . S
H33 C5 0.931 1_655 S
H34 C7 0.930 . S
H35 C8 0.930 . S
H36 C13 0.929 . S
H37 C14 0.931 . S
H38 C16 0.930 . S
H39 C17 0.930 . S
Tb40 C42 2.809 . S
Tb40 O60 2.484 . S
Tb40 O61 2.440 . S
Tb40 O62 2.658 1_554 S
Tb40 O63 2.409 . S
Tb40 O64 2.378 . S
Tb40 O68 2.325 . S
Tb40 O71 2.341 1_554 S
Tb41 C51 2.809 . S
Tb41 O62 2.325 . S
Tb41 O65 2.341 1_556 S
Tb41 O66 2.484 . S
Tb41 O67 2.440 . S
Tb41 O68 2.658 1_556 S
Tb41 O69 2.409 . S
Tb41 O70 2.378 . S
C42 Tb40 2.809 . S
C42 C43 1.514 . S
C42 O60 1.248 . S
C42 O61 1.266 . S
C43 C42 1.514 . S
C43 C44 1.359 . S
C43 C48 1.348 . S
C44 C43 1.359 . S
C44 C45 1.380 . S
C44 H72 0.929 . S
C45 C44 1.380 . S
C45 C46 1.347 . S
C45 H73 0.931 . S
C46 C45 1.347 . S
C46 C47 1.369 . S
C47 C46 1.369 . S
C47 C48 1.408 . S
C47 H74 0.930 . S
C48 C43 1.348 . S
C48 C47 1.408 . S
C48 H75 0.930 . S
C49 O62 1.281 1_554 S
C49 O63 1.254 . S
C50 O64 1.236 . S
C50 O65 1.266 . S
C51 Tb41 2.809 . S
C51 C52 1.514 . S
C51 O66 1.248 . S
C51 O67 1.266 . S
C52 C51 1.514 . S
C52 C53 1.359 . S
C52 C57 1.348 . S
C53 C52 1.359 . S
C53 C54 1.380 . S
C53 H76 0.929 . S
C54 C53 1.380 . S
C54 C55 1.347 . S
C54 H77 0.931 1_655 S
C55 C54 1.347 . S
C55 C56 1.369 . S
C56 C55 1.369 . S
C56 C57 1.408 . S
C56 H78 0.930 . S
C57 C52 1.348 . S
C57 C56 1.408 . S
C57 H79 0.930 . S
C58 O68 1.281 . S
C58 O69 1.254 1_554 S
C59 O70 1.236 . S
C59 O71 1.266 . S
O60 Tb40 2.484 . S
O60 C42 1.248 . S
O61 Tb40 2.440 . S
O61 C42 1.266 . S
O62 Tb40 2.658 1_556 S
O62 Tb41 2.325 . S
O62 C49 1.281 1_556 S
O63 Tb40 2.409 . S
O63 C49 1.254 . S
O64 Tb40 2.378 . S
O64 C50 1.236 . S
O65 Tb41 2.341 1_554 S
O65 C50 1.266 . S
O66 Tb41 2.484 . S
O66 C51 1.248 . S
O67 Tb41 2.440 . S
O67 C51 1.266 . S
O68 Tb40 2.325 . S
O68 Tb41 2.658 1_554 S
O68 C58 1.281 . S
O69 Tb41 2.409 . S
O69 C58 1.254 1_556 S
O70 Tb41 2.378 . S
O70 C59 1.236 . S
O71 Tb40 2.341 1_556 S
O71 C59 1.266 . S
H72 C44 0.929 . S
H73 C45 0.931 . S
H74 C47 0.930 . S
H75 C48 0.930 . S
H76 C53 0.929 . S
H77 C54 0.931 1_455 S
H78 C56 0.930 . S
H79 C57 0.930 . S
Tb80 C82 2.809 . S
Tb80 O100 2.484 . S
Tb80 O101 2.440 . S
Tb80 O102 2.658 . S
Tb80 O103 2.409 . S
Tb80 O104 2.378 . S
Tb80 O108 2.325 . S
Tb80 O111 2.341 . S
Tb81 C91 2.809 . S
Tb81 O102 2.325 . S
Tb81 O105 2.341 . S
Tb81 O106 2.484 . S
Tb81 O107 2.440 . S
Tb81 O108 2.658 . S
Tb81 O109 2.409 . S
Tb81 O110 2.378 . S
C82 Tb80 2.809 . S
C82 C83 1.514 . S
C82 O100 1.248 . S
C82 O101 1.266 . S
C83 C82 1.514 . S
C83 C84 1.359 . S
C83 C88 1.348 . S
C84 C83 1.359 . S
C84 C85 1.380 . S
C84 H112 0.929 . S
C85 C84 1.380 . S
C85 C86 1.347 . S
C85 H113 0.931 1_455 S
C86 C85 1.347 . S
C86 C87 1.369 . S
C87 C86 1.369 . S
C87 C88 1.408 . S
C87 H114 0.930 . S
C88 C83 1.348 . S
C88 C87 1.408 . S
C88 H115 0.930 . S
C89 O102 1.281 . S
C89 O103 1.254 . S
C90 O104 1.236 . S
C90 O105 1.266 . S
C91 Tb81 2.809 . S
C91 C92 1.514 . S
C91 O106 1.248 . S
C91 O107 1.266 . S
C92 C91 1.514 . S
C92 C93 1.359 . S
C92 C97 1.348 . S
C93 C92 1.359 . S
C93 C94 1.380 . S
C93 H116 0.929 . S
C94 C93 1.380 . S
C94 C95 1.347 . S
C94 H117 0.931 . S
C95 C94 1.347 . S
C95 C96 1.369 . S
C96 C95 1.369 . S
C96 C97 1.408 . S
C96 H118 0.930 . S
C97 C92 1.348 . S
C97 C96 1.408 . S
C97 H119 0.930 . S
C98 O108 1.281 . S
C98 O109 1.254 . S
C99 O110 1.236 . S
C99 O111 1.266 . S
O100 Tb80 2.484 . S
O100 C82 1.248 . S
O101 Tb80 2.440 . S
O101 C82 1.266 . S
O102 Tb80 2.658 . S
O102 Tb81 2.325 . S
O102 C89 1.281 . S
O103 Tb80 2.409 . S
O103 C89 1.254 . S
O104 Tb80 2.378 . S
O104 C90 1.236 . S
O105 Tb81 2.341 . S
O105 C90 1.266 . S
O106 Tb81 2.484 . S
O106 C91 1.248 . S
O107 Tb81 2.440 . S
O107 C91 1.266 . S
O108 Tb80 2.325 . S
O108 Tb81 2.658 . S
O108 C98 1.281 . S
O109 Tb81 2.409 . S
O109 C98 1.254 . S
O110 Tb81 2.378 . S
O110 C99 1.236 . S
O111 Tb80 2.341 . S
O111 C99 1.266 . S
H112 C84 0.929 . S
H113 C85 0.931 1_655 S
H114 C87 0.930 . S
H115 C88 0.930 . S
H116 C93 0.929 . S
H117 C94 0.931 . S
H118 C96 0.930 . S
H119 C97 0.930 . S
Tb120 C122 2.809 . S
Tb120 O140 2.484 . S
Tb120 O141 2.440 . S
Tb120 O142 2.658 . S
Tb120 O143 2.409 . S
Tb120 O144 2.378 . S
Tb120 O148 2.325 . S
Tb120 O151 2.341 . S
Tb121 C131 2.809 . S
Tb121 O142 2.325 . S
Tb121 O145 2.341 . S
Tb121 O146 2.484 . S
Tb121 O147 2.440 . S
Tb121 O148 2.658 . S
Tb121 O149 2.409 . S
Tb121 O150 2.378 . S
C122 Tb120 2.809 . S
C122 C123 1.514 . S
C122 O140 1.248 . S
C122 O141 1.266 . S
C123 C122 1.514 . S
C123 C124 1.359 . S
C123 C128 1.348 . S
C124 C123 1.359 . S
C124 C125 1.380 . S
C124 H152 0.929 . S
C125 C124 1.380 . S
C125 C126 1.347 . S
C125 H153 0.931 . S
C126 C125 1.347 . S
C126 C127 1.369 . S
C127 C126 1.369 . S
C127 C128 1.408 . S
C127 H154 0.930 . S
C128 C123 1.348 . S
C128 C127 1.408 . S
C128 H155 0.930 . S
C129 O142 1.281 . S
C129 O143 1.254 . S
C130 O144 1.236 . S
C130 O145 1.266 . S
C131 Tb121 2.809 . S
C131 C132 1.514 . S
C131 O146 1.248 . S
C131 O147 1.266 . S
C132 C131 1.514 . S
C132 C133 1.359 . S
C132 C137 1.348 . S
C133 C132 1.359 . S
C133 C134 1.380 . S
C133 H156 0.929 . S
C134 C133 1.380 . S
C134 C135 1.347 . S
C134 H157 0.931 1_655 S
C135 C134 1.347 . S
C135 C136 1.369 . S
C136 C135 1.369 . S
C136 C137 1.408 . S
C136 H158 0.930 . S
C137 C132 1.348 . S
C137 C136 1.408 . S
C137 H159 0.930 . S
C138 O148 1.281 . S
C138 O149 1.254 . S
C139 O150 1.236 . S
C139 O151 1.266 . S
O140 Tb120 2.484 . S
O140 C122 1.248 . S
O141 Tb120 2.440 . S
O141 C122 1.266 . S
O142 Tb120 2.658 . S
O142 Tb121 2.325 . S
O142 C129 1.281 . S
O143 Tb120 2.409 . S
O143 C129 1.254 . S
O144 Tb120 2.378 . S
O144 C130 1.236 . S
O145 Tb121 2.341 . S
O145 C130 1.266 . S
O146 Tb121 2.484 . S
O146 C131 1.248 . S
O147 Tb121 2.440 . S
O147 C131 1.266 . S
O148 Tb120 2.325 . S
O148 Tb121 2.658 . S
O148 C138 1.281 . S
O149 Tb121 2.409 . S
O149 C138 1.254 . S
O150 Tb121 2.378 . S
O150 C139 1.236 . S
O151 Tb120 2.341 . S
O151 C139 1.266 . S
H152 C124 0.929 . S
H153 C125 0.931 . S
H154 C127 0.930 . S
H155 C128 0.930 . S
H156 C133 0.929 . S
H157 C134 0.931 1_455 S
H158 C136 0.930 . S
H159 C137 0.930 . S
H160 C166 0.930 . S
H161 C170 0.930 . S
H162 C175 0.929 . S
H163 C173 0.929 . S
H164 C168 0.929 . S
H165 C174 0.929 . S
C166 H160 0.930 . S
C166 C167 1.367 1_556 S
C166 C174 1.378 . S
C167 C166 1.367 1_554 S
C167 C175 1.433 . S
C168 H164 0.929 . S
C168 C170 1.378 . S
C168 C172 1.350 . S
C169 C172 1.463 . S
C169 C174 1.350 1_554 S
C169 N177 1.427 . S
C170 H161 0.930 . S
C170 C168 1.378 . S
C170 C171 1.367 . S
C171 C170 1.367 . S
C171 C173 1.433 1_554 S
C172 C168 1.350 . S
C172 C169 1.463 . S
C172 N176 1.427 1_554 S
C173 H163 0.929 . S
C173 C171 1.433 1_556 S
C173 N176 1.384 . S
C174 H165 0.929 . S
C174 C166 1.378 . S
C174 C169 1.350 1_556 S
C175 H162 0.929 . S
C175 C167 1.433 . S
C175 N177 1.384 . S
N176 C172 1.427 1_556 S
N176 C173 1.384 . S
N177 C169 1.427 . S
N177 C175 1.384 . S
H178 C184 0.930 . S
H179 C188 0.930 . S
H180 C193 0.929 . S
H181 C191 0.929 . S
H182 C186 0.929 . S
H183 C192 0.929 . S
C184 H178 0.930 . S
C184 C185 1.367 . S
C184 C192 1.378 . S
C185 C184 1.367 . S
C185 C193 1.433 . S
C186 H182 0.929 . S
C186 C188 1.378 . S
C186 C190 1.350 . S
C187 C190 1.463 . S
C187 C192 1.350 . S
C187 N195 1.427 . S
C188 H179 0.930 . S
C188 C186 1.378 . S
C188 C189 1.367 . S
C189 C188 1.367 . S
C189 C191 1.433 . S
C190 C186 1.350 . S
C190 C187 1.463 . S
C190 N194 1.427 . S
C191 H181 0.929 . S
C191 C189 1.433 . S
C191 N194 1.384 . S
C192 H183 0.929 . S
C192 C184 1.378 . S
C192 C187 1.350 . S
C193 H180 0.929 . S
C193 C185 1.433 . S
C193 N195 1.384 . S
N194 C190 1.427 . S
N194 C191 1.384 . S
N195 C187 1.427 . S
N195 C193 1.384 . S
H196 C202 0.930 . S
H197 C206 0.930 . S
H198 C211 0.929 . S
H199 C209 0.929 . S
H200 C204 0.929 1_545 S
H201 C210 0.929 1_565 S
C202 H196 0.930 . S
C202 C203 1.367 1_556 S
C202 C210 1.378 . S
C203 C202 1.367 1_554 S
C203 C211 1.433 . S
C204 H200 0.929 1_565 S
C204 C206 1.378 . S
C204 C208 1.350 . S
C205 C208 1.463 1_445 S
C205 C210 1.350 1_554 S
C205 N213 1.427 . S
C206 H197 0.930 . S
C206 C204 1.378 . S
C206 C207 1.367 . S
C207 C206 1.367 . S
C207 C209 1.433 1_554 S
C208 C204 1.350 . S
C208 C205 1.463 1_665 S
C208 N212 1.427 1_554 S
C209 H199 0.929 . S
C209 C207 1.433 1_556 S
C209 N212 1.384 . S
C210 H201 0.929 1_545 S
C210 C202 1.378 . S
C210 C205 1.350 1_556 S
C211 H198 0.929 . S
C211 C203 1.433 . S
C211 N213 1.384 . S
N212 C208 1.427 1_556 S
N212 C209 1.384 . S
N213 C205 1.427 . S
N213 C211 1.384 . S
H214 C220 0.930 . S
H215 C224 0.930 . S
H216 C229 0.929 . S
H217 C227 0.929 . S
H218 C222 0.929 . S
H219 C228 0.929 . S
C220 H214 0.930 . S
C220 C221 1.367 . S
C220 C228 1.378 . S
C221 C220 1.367 . S
C221 C229 1.433 . S
C222 H218 0.929 . S
C222 C224 1.378 . S
C222 C226 1.350 . S
C223 C226 1.463 1_645 S
C223 C228 1.350 . S
C223 N231 1.427 . S
C224 H215 0.930 . S
C224 C222 1.378 . S
C224 C225 1.367 . S
C225 C224 1.367 . S
C225 C227 1.433 . S
C226 C222 1.350 . S
C226 C223 1.463 1_465 S
C226 N230 1.427 . S
C227 H217 0.929 . S
C227 C225 1.433 . S
C227 N230 1.384 . S
C228 H219 0.929 . S
C228 C220 1.378 . S
C228 C223 1.350 . S
C229 H216 0.929 . S
C229 C221 1.433 . S
C229 N231 1.384 . S
N230 C226 1.427 . S
N230 C227 1.384 . S
N231 C223 1.427 . S
N231 C229 1.384 . S
H232 C238 0.930 . S
H233 C242 0.930 . S
H234 C247 0.929 . S
H235 C245 0.929 . S
H236 C240 0.929 . S
H237 C246 0.929 . S
C238 H232 0.930 . S
C238 C239 1.367 . S
C238 C246 1.378 . S
C239 C238 1.367 . S
C239 C247 1.433 . S
C240 H236 0.929 . S
C240 C242 1.378 . S
C240 C244 1.350 . S
C241 C244 1.463 . S
C241 C246 1.350 . S
C241 N249 1.427 . S
C242 H233 0.930 . S
C242 C240 1.378 . S
C242 C243 1.367 . S
C243 C242 1.367 . S
C243 C245 1.433 . S
C244 C240 1.350 . S
C244 C241 1.463 . S
C244 N248 1.427 . S
C245 H235 0.929 . S
C245 C243 1.433 . S
C245 N248 1.384 . S
C246 H237 0.929 . S
C246 C238 1.378 . S
C246 C241 1.350 . S
C247 H234 0.929 . S
C247 C239 1.433 . S
C247 N249 1.384 . S
N248 C244 1.427 . S
N248 C245 1.384 . S
N249 C241 1.427 . S
N249 C247 1.384 . S
H250 C256 0.930 . S
H251 C260 0.930 . S
H252 C265 0.929 . S
H253 C263 0.929 . S
H254 C258 0.929 . S
H255 C264 0.929 . S
C256 H250 0.930 . S
C256 C257 1.367 . S
C256 C264 1.378 . S
C257 C256 1.367 . S
C257 C265 1.433 . S
C258 H254 0.929 . S
C258 C260 1.378 . S
C258 C262 1.350 . S
C259 C262 1.463 . S
C259 C264 1.350 . S
C259 N267 1.427 . S
C260 H251 0.930 . S
C260 C258 1.378 . S
C260 C261 1.367 . S
C261 C260 1.367 . S
C261 C263 1.433 . S
C262 C258 1.350 . S
C262 C259 1.463 . S
C262 N266 1.427 . S
C263 H253 0.929 . S
C263 C261 1.433 . S
C263 N266 1.384 . S
C264 H255 0.929 . S
C264 C256 1.378 . S
C264 C259 1.350 . S
C265 H252 0.929 . S
C265 C257 1.433 . S
C265 N267 1.384 . S
N266 C262 1.427 . S
N266 C263 1.384 . S
N267 C259 1.427 . S
N267 C265 1.384 . S
H268 C274 0.930 . S
H269 C278 0.930 . S
H270 C283 0.929 . S
H271 C281 0.929 . S
H272 C276 0.929 . S
H273 C282 0.929 . S
C274 H268 0.930 . S
C274 C275 1.367 . S
C274 C282 1.378 . S
C275 C274 1.367 . S
C275 C283 1.433 . S
C276 H272 0.929 . S
C276 C278 1.378 . S
C276 C280 1.350 . S
C277 C280 1.463 . S
C277 C282 1.350 . S
C277 N285 1.427 . S
C278 H269 0.930 . S
C278 C276 1.378 . S
C278 C279 1.367 . S
C279 C278 1.367 . S
C279 C281 1.433 . S
C280 C276 1.350 . S
C280 C277 1.463 . S
C280 N284 1.427 . S
C281 H271 0.929 . S
C281 C279 1.433 . S
C281 N284 1.384 . S
C282 H273 0.929 . S
C282 C274 1.378 . S
C282 C277 1.350 . S
C283 H270 0.929 . S
C283 C275 1.433 . S
C283 N285 1.384 . S
N284 C280 1.427 . S
N284 C281 1.384 . S
N285 C277 1.427 . S
N285 C283 1.384 . S
H286 C292 0.930 . S
H287 C296 0.930 . S
H288 C301 0.929 . S
H289 C299 0.929 . S
H290 C294 0.929 . S
H291 C300 0.929 . S
C292 H286 0.930 . S
C292 C293 1.367 . S
C292 C300 1.378 . S
C293 C292 1.367 . S
C293 C301 1.433 . S
C294 H290 0.929 . S
C294 C296 1.378 . S
C294 C298 1.350 . S
C295 C298 1.463 . S
C295 C300 1.350 . S
C295 N303 1.427 . S
C296 H287 0.930 . S
C296 C294 1.378 . S
C296 C297 1.367 . S
C297 C296 1.367 . S
C297 C299 1.433 . S
C298 C294 1.350 . S
C298 C295 1.463 . S
C298 N302 1.427 . S
C299 H289 0.929 . S
C299 C297 1.433 . S
C299 N302 1.384 . S
C300 H291 0.929 . S
C300 C292 1.378 . S
C300 C295 1.350 . S
C301 H288 0.929 . S
C301 C293 1.433 . S
C301 N303 1.384 . S
N302 C298 1.427 . S
N302 C299 1.384 . S
N303 C295 1.427 . S
N303 C301 1.384 . S
H304 C310 0.930 . S
H305 C314 0.930 . S
H306 C319 0.929 . S
H307 C317 0.929 . S
H308 C312 0.929 . S
H309 C318 0.929 . S
C310 H304 0.930 . S
C310 C311 1.367 . S
C310 C318 1.378 . S
C311 C310 1.367 . S
C311 C319 1.433 . S
C312 H308 0.929 . S
C312 C314 1.378 . S
C312 C316 1.350 1_455 S
C313 C316 1.463 . S
C313 C318 1.350 . S
C313 N321 1.427 . S
C314 H305 0.930 . S
C314 C312 1.378 . S
C314 C315 1.367 1_455 S
C315 C314 1.367 1_655 S
C315 C317 1.433 . S
C316 C312 1.350 1_655 S
C316 C313 1.463 . S
C316 N320 1.427 . S
C317 H307 0.929 . S
C317 C315 1.433 . S
C317 N320 1.384 . S
C318 H309 0.929 . S
C318 C310 1.378 . S
C318 C313 1.350 . S
C319 H306 0.929 . S
C319 C311 1.433 . S
C319 N321 1.384 . S
N320 C316 1.427 . S
N320 C317 1.384 . S
N321 C313 1.427 . S
N321 C319 1.384 . S
H322 C328 0.930 . S
H323 C332 0.930 . S
H324 C337 0.929 . S
H325 C335 0.929 . S
H326 C330 0.929 . S
H327 C336 0.929 . S
C328 H322 0.930 . S
C328 C329 1.367 . S
C328 C336 1.378 . S
C329 C328 1.367 . S
C329 C337 1.433 . S
C330 H326 0.929 . S
C330 C332 1.378 . S
C330 C334 1.350 . S
C331 C334 1.463 . S
C331 C336 1.350 . S
C331 N339 1.427 . S
C332 H323 0.930 . S
C332 C330 1.378 . S
C332 C333 1.367 . S
C333 C332 1.367 . S
C333 C335 1.433 . S
C334 C330 1.350 . S
C334 C331 1.463 . S
C334 N338 1.427 . S
C335 H325 0.929 . S
C335 C333 1.433 . S
C335 N338 1.384 . S
C336 H327 0.929 . S
C336 C328 1.378 . S
C336 C331 1.350 . S
C337 H324 0.929 . S
C337 C329 1.433 . S
C337 N339 1.384 . S
N338 C334 1.427 . S
N338 C335 1.384 . S
N339 C331 1.427 . S
N339 C337 1.384 . S
H340 C346 0.930 . S
H341 C350 0.930 . S
H342 C355 0.929 . S
H343 C353 0.929 . S
H344 C348 0.929 . S
H345 C354 0.929 . S
C346 H340 0.930 . S
C346 C347 1.367 . S
C346 C354 1.378 . S
C347 C346 1.367 . S
C347 C355 1.433 . S
C348 H344 0.929 . S
C348 C350 1.378 . S
C348 C352 1.350 . S
C349 C352 1.463 . S
C349 C354 1.350 . S
C349 N357 1.427 . S
C350 H341 0.930 . S
C350 C348 1.378 . S
C350 C351 1.367 . S
C351 C350 1.367 . S
C351 C353 1.433 . S
C352 C348 1.350 . S
C352 C349 1.463 . S
C352 N356 1.427 . S
C353 H343 0.929 . S
C353 C351 1.433 . S
C353 N356 1.384 . S
C354 H345 0.929 . S
C354 C346 1.378 . S
C354 C349 1.350 . S
C355 H342 0.929 . S
C355 C347 1.433 . S
C355 N357 1.384 . S
N356 C352 1.427 . S
N356 C353 1.384 . S
N357 C349 1.427 . S
N357 C355 1.384 . S
H358 C364 0.930 . S
H359 C368 0.930 . S
H360 C373 0.929 . S
H361 C371 0.929 . S
H362 C366 0.929 . S
H363 C372 0.929 . S
C364 H358 0.930 . S
C364 C365 1.367 . S
C364 C372 1.378 . S
C365 C364 1.367 . S
C365 C373 1.433 . S
C366 H362 0.929 . S
C366 C368 1.378 . S
C366 C370 1.350 . S
C367 C370 1.463 . S
C367 C372 1.350 . S
C367 N375 1.427 . S
C368 H359 0.930 . S
C368 C366 1.378 . S
C368 C369 1.367 . S
C369 C368 1.367 . S
C369 C371 1.433 1_455 S
C370 C366 1.350 . S
C370 C367 1.463 . S
C370 N374 1.427 . S
C371 H361 0.929 . S
C371 C369 1.433 1_655 S
C371 N374 1.384 1_655 S
C372 H363 0.929 . S
C372 C364 1.378 . S
C372 C367 1.350 . S
C373 H360 0.929 . S
C373 C365 1.433 . S
C373 N375 1.384 . S
N374 C370 1.427 . S
N374 C371 1.384 1_455 S
N375 C367 1.427 . S
N375 C373 1.384 . S
C167 C58 1.509 . S
C171 C9 1.509 . S
C185 C89 1.511 . S
C189 C138 1.511 . S
C203 C18 1.501 . S
C207 C49 1.501 . S
C221 C129 1.505 . S
C225 C98 1.505 . S
C239 C126 1.291 . S
C243 C10 1.299 . S
C257 C46 1.298 . S
C261 C90 1.294 . S
C275 C59 1.293 . S
C279 C95 1.297 . S
C293 C139 1.299 . S
C297 C15 1.291 . S
C311 C50 1.295 . S
C315 C86 1.294 1_655 S
C329 C130 1.293 . S
C333 C6 1.298 1_655 S
C347 C135 1.291 1_455 S
C351 C19 1.300 . S
C365 C99 1.295 . S
C369 C55 1.298 1_455 S
