# Generated by pormake.
# Topology bcg, (8)-cn, num edge types: 1
# Building blocks:
#     Node 0, Type 0, BuildingBlock: TAGTUT_clean_sbu_1, # of connection points: 8
#     Node 1, Type 0, BuildingBlock: TAGTUT_clean_sbu_1, # of connection points: 8
#     Node 2, Type 0, BuildingBlock: TAGTUT_clean_sbu_1, # of connection points: 8
#     Node 3, Type 0, BuildingBlock: TAGTUT_clean_sbu_1, # of connection points: 8
#     Edge 4, Type (0, 0), BuildingBlock: UVAHIK_clean_linker_0, # of connection points: 2
#     Edge 5, Type (0, 0), BuildingBlock: UVAHIK_clean_linker_0, # of connection points: 2
#     Edge 6, Type (0, 0), BuildingBlock: UVAHIK_clean_linker_0, # of connection points: 2
#     Edge 7, Type (0, 0), BuildingBlock: UVAHIK_clean_linker_0, # of connection points: 2
#     Edge 8, Type (0, 0), BuildingBlock: UVAHIK_clean_linker_0, # of connection points: 2
#     Edge 9, Type (0, 0), BuildingBlock: UVAHIK_clean_linker_0, # of connection points: 2
#     Edge 10, Type (0, 0), BuildingBlock: UVAHIK_clean_linker_0, # of connection points: 2
#     Edge 11, Type (0, 0), BuildingBlock: UVAHIK_clean_linker_0, # of connection points: 2
#     Edge 12, Type (0, 0), BuildingBlock: UVAHIK_clean_linker_0, # of connection points: 2
#     Edge 13, Type (0, 0), BuildingBlock: UVAHIK_clean_linker_0, # of connection points: 2
#     Edge 14, Type (0, 0), BuildingBlock: UVAHIK_clean_linker_0, # of connection points: 2
#     Edge 15, Type (0, 0), BuildingBlock: UVAHIK_clean_linker_0, # of connection points: 2
#     Edge 16, Type (0, 0), BuildingBlock: UVAHIK_clean_linker_0, # of connection points: 2
#     Edge 17, Type (0, 0), BuildingBlock: UVAHIK_clean_linker_0, # of connection points: 2
#     Edge 18, Type (0, 0), BuildingBlock: UVAHIK_clean_linker_0, # of connection points: 2
#     Edge 19, Type (0, 0), BuildingBlock: UVAHIK_clean_linker_0, # of connection points: 2
# Relax obj value: 0.095
# Max RMSD: 0.202
# Mean RMSD: 0.202
data_MOF--net-bcg--node1-TAGTUT_clean_sbu_1--edge1-UVAHIK_clean_linker_0
_symmetry_space_group_name_H-M    P1
_symmetry_Int_Tables_number       1
_symmetry_cell_setting            triclinic
loop_
_symmetry_equiv_pos_as_xyz
'x, y, z'
_cell_length_a     19.246515
_cell_length_b     35.147387
_cell_length_c     40.533982
_cell_angle_alpha  85.200435
_cell_angle_beta   89.947541
_cell_angle_gamma 90.005966
loop_
_atom_site_label
_atom_site_type_symbol
_atom_site_fract_x
_atom_site_fract_y
_atom_site_fract_z
_atom_type_partial_charge
C0 C 0.24013 0.23413 0.13062 0.0
C1 C 0.4174 0.25328 0.06927 0.0
C2 C 0.26831 0.34373 0.9875 0.0
Mg3 Mg 0.29251 0.19973 0.06685 0.0
O4 O 0.23939 0.23956 0.04673 0.0
Mg5 Mg 0.25664 0.29238 0.06003 0.0
Mg6 Mg 0.248 0.25027 0.99776 0.0
O7 O 0.25668 0.26099 0.94878 0.0
Mg8 Mg 0.20401 0.30094 0.92851 0.0
Mg9 Mg 0.23933 0.20816 0.93555 0.0
C10 C 0.22846 0.15683 0.00793 0.0
C11 C 0.3902 0.21329 0.97196 0.0
O12 O 0.23693 0.26726 0.1145 0.0
O13 O 0.25776 0.20405 0.11683 0.0
O14 O 0.3743 0.28108 0.06931 0.0
O15 O 0.39743 0.21942 0.06498 0.0
O16 O 0.25649 0.15475 0.03683 0.0
O17 O 0.21918 0.18905 0.99106 0.0
C18 C 0.10577 0.28719 0.02357 0.0
O19 O 0.13585 0.26983 0.00092 0.0
O20 O 0.13887 0.29832 0.04858 0.0
O21 O 0.25902 0.23312 0.88109 0.0
O22 O 0.23867 0.29638 0.8785 0.0
O23 O 0.12175 0.21959 0.9264 0.0
C24 C 0.25602 0.26616 0.86483 0.0
O25 O 0.09893 0.28135 0.93045 0.0
O26 O 0.24067 0.34587 0.95851 0.0
C27 C 0.07879 0.24745 0.92637 0.0
O28 O 0.27666 0.31148 0.00447 0.0
O29 O 0.36015 0.2307 0.99459 0.0
O30 O 0.35707 0.20215 0.94697 0.0
C31 C 0.73769 0.74445 0.1316 0.0
C32 C 0.91686 0.7575 0.07149 0.0
C33 C 0.77127 0.84273 0.98365 0.0
Mg34 Mg 0.79081 0.70413 0.07118 0.0
O35 O 0.73963 0.74295 0.04828 0.0
Mg36 Mg 0.75723 0.79696 0.05827 0.0
Mg37 Mg 0.7493 0.74975 -0.00083 0.0
O38 O 0.75863 0.75666 0.95009 0.0
Mg39 Mg 0.7074 0.7957 0.9274 0.0
Mg40 Mg 0.73969 0.70276 0.94025 0.0
C41 C 0.72728 0.65684 0.01495 0.0
C42 C 0.89089 0.7099 0.97614 0.0
O43 O 0.73627 0.77632 0.11348 0.0
O44 O 0.75409 0.71277 0.1201 0.0
O45 O 0.8744 0.7857 0.06913 0.0
O46 O 0.89633 0.72324 0.06929 0.0
O47 O 0.75449 0.65672 0.04394 0.0
O48 O 0.71949 0.68797 0.9963 0.0
C49 C 0.60705 0.78958 0.02142 0.0
O50 O 0.63765 0.77012 0.00036 0.0
O51 O 0.63953 0.80264 0.0458 0.0
O52 O 0.75926 0.72346 0.88489 0.0
O53 O 0.74339 0.78717 0.87844 0.0
O54 O 0.62224 0.71437 0.93068 0.0
C55 C 0.7585 0.75537 0.86683 0.0
O56 O 0.60169 0.77705 0.92924 0.0
O57 O 0.74406 0.84298 0.95466 0.0
C58 C 0.5803 0.74279 0.92815 0.0
O59 O 0.77892 0.81155 0.00223 0.0
O60 O 0.86109 0.72922 0.9976 0.0
O61 O 0.85754 0.69698 0.95195 0.0
C62 C 0.24339 0.76021 0.36846 0.0
C63 C 0.42146 0.74507 0.4294 0.0
C64 C 0.27261 0.65577 0.51349 0.0
Mg65 Mg 0.29488 0.79807 0.43046 0.0
O66 O 0.24397 0.75833 0.45226 0.0
Mg67 Mg 0.26193 0.70497 0.44047 0.0
Mg68 Mg 0.25267 0.74913 0.50136 0.0
O69 O 0.26118 0.73973 0.5504 0.0
Mg70 Mg 0.20756 0.70035 0.57098 0.0
Mg71 Mg 0.24382 0.79294 0.56263 0.0
C72 C 0.23168 0.84241 0.48899 0.0
C73 C 0.39486 0.78678 0.52626 0.0
O74 O 0.2424 0.72785 0.38582 0.0
O75 O 0.25881 0.79152 0.38086 0.0
O76 O 0.37932 0.71673 0.43081 0.0
O77 O 0.40042 0.7791 0.43221 0.0
O78 O 0.25845 0.84372 0.4598 0.0
O79 O 0.22381 0.81063 0.50674 0.0
C80 C 0.11074 0.71103 0.47653 0.0
O81 O 0.14051 0.72934 0.49864 0.0
O82 O 0.14417 0.69899 0.45197 0.0
O83 O 0.26304 0.76906 0.61756 0.0
O84 O 0.24135 0.70588 0.62077 0.0
O85 O 0.12611 0.78194 0.572 0.0
C86 C 0.25915 0.7362 0.63414 0.0
O87 O 0.10272 0.72015 0.5685 0.0
O88 O 0.24422 0.65429 0.54231 0.0
C89 C 0.08288 0.75418 0.57227 0.0
O90 O 0.28159 0.68769 0.49613 0.0
O91 O 0.36475 0.76888 0.50398 0.0
O92 O 0.36175 0.79852 0.55106 0.0
C93 C 0.73552 0.2518 0.3661 0.0
C94 C 0.91583 0.2399 0.4258 0.0
C95 C 0.7715 0.15554 0.51496 0.0
Mg96 Mg 0.78908 0.29303 0.42573 0.0
O97 O 0.73846 0.25433 0.44923 0.0
Mg98 Mg 0.75665 0.20018 0.43987 0.0
Mg99 Mg 0.7487 0.24829 0.49829 0.0
O100 O 0.75892 0.24222 0.54737 0.0
Mg101 Mg 0.70835 0.20349 0.57091 0.0
Mg102 Mg 0.74057 0.29637 0.55665 0.0
C103 C 0.72653 0.34106 0.48171 0.0
C104 C 0.89063 0.28895 0.51972 0.0
O105 O 0.73521 0.22004 0.38441 0.0
O106 O 0.75127 0.28372 0.37731 0.0
O107 O 0.87374 0.21157 0.42907 0.0
O108 O 0.89479 0.27425 0.42675 0.0
O109 O 0.75331 0.34084 0.45263 0.0
O110 O 0.71883 0.31014 0.50063 0.0
C111 C 0.60668 0.20767 0.47688 0.0
O112 O 0.63715 0.22752 0.49771 0.0
O113 O 0.6392 0.19439 0.45259 0.0
O114 O 0.76163 0.27665 0.61208 0.0
O115 O 0.74574 0.21297 0.61941 0.0
O116 O 0.6235 0.28488 0.56729 0.0
C117 C 0.76122 0.24499 0.63052 0.0
O118 O 0.60251 0.22219 0.56978 0.0
O119 O 0.74474 0.15572 0.54405 0.0
C120 C 0.58143 0.25655 0.57058 0.0
O121 O 0.77854 0.18646 0.49595 0.0
O122 O 0.86022 0.26909 0.49888 0.0
O123 O 0.85805 0.30222 0.544 0.0
C124 C 0.49983 0.19683 0.0022 0.0
C125 C 0.46644 0.21112 0.97306 0.0
C126 C 0.57073 0.20332 0.0066 0.0
C127 C 0.70202 0.2753 0.98039 0.0
H128 H 0.82925 0.20496 0.02784 0.0
C129 C 0.99615 0.30366 0.99331 0.0
C130 C 0.02953 0.28935 0.02246 0.0
C131 C 0.92526 0.29718 0.98889 0.0
C132 C 0.79398 0.22515 0.01504 0.0
H133 H 0.48073 0.2415 0.92487 0.0
H134 H 0.60493 0.25315 0.93254 0.0
H135 H 0.71348 0.18323 0.01387 0.0
H136 H 0.0152 0.25893 0.07062 0.0
H137 H 0.89101 0.24727 0.06291 0.0
H138 H 0.78251 0.31722 0.98156 0.0
C139 C 0.57643 0.23704 0.95209 0.0
C140 C 0.72777 0.2126 0.00683 0.0
C141 C 0.5057 0.22994 0.94748 0.0
C142 C 0.99025 0.27051 0.04801 0.0
C143 C 0.91953 0.26339 0.04338 0.0
C144 C 0.76822 0.28785 0.98861 0.0
C145 C 0.60912 0.225 0.98222 0.0
C146 C 0.68099 0.23751 0.98938 0.0
C147 C 0.88686 0.27546 0.01325 0.0
C148 C 0.815 0.26294 0.00606 0.0
H149 H 0.47042 0.18199 0.0221 0.0
H150 H 0.59453 0.19326 0.02988 0.0
H151 H 0.66674 0.29549 0.96759 0.0
H152 H 0.02557 0.31852 0.97343 0.0
H153 H 0.90148 0.30725 0.96561 0.0
C154 C 0.00018 0.69635 0.00753 0.0
C155 C 0.96715 0.70742 0.97746 0.0
C156 C 0.07108 0.70317 0.01147 0.0
C157 C 0.23425 0.73326 0.96792 0.0
H158 H 0.2746 0.77777 0.05026 0.0
C159 C 0.49892 0.80234 0.9889 0.0
C160 C 0.53083 0.79191 0.0194 0.0
C161 C 0.42853 0.79475 0.98421 0.0
C162 C 0.26443 0.76512 0.02728 0.0
H163 H 0.98223 0.73227 0.92731 0.0
H164 H 0.10614 0.74499 0.93429 0.0
H165 H 0.15809 0.75434 0.04019 0.0
H166 H 0.51404 0.7675 0.06955 0.0
H167 H 0.39087 0.75402 0.0615 0.0
H168 H 0.34071 0.744 0.95504 0.0
C169 C 0.07776 0.73048 0.95472 0.0
C170 C 0.19767 0.75151 0.02154 0.0
C171 C 0.00692 0.72308 0.95064 0.0
C172 C 0.49023 0.77627 0.04591 0.0
C173 C 0.41981 0.76837 0.04119 0.0
C174 C 0.30111 0.74684 0.97369 0.0
C175 C 0.10993 0.72199 0.98564 0.0
C176 C 0.18178 0.73532 0.99183 0.0
C177 C 0.38882 0.77622 0.00989 0.0
C178 C 0.31701 0.76297 0.00344 0.0
H179 H 0.97052 0.6837 0.02834 0.0
H180 H 0.09512 0.69494 0.03512 0.0
H181 H 0.22392 0.7207 0.94492 0.0
H182 H 0.52908 0.8151 0.96833 0.0
H183 H 0.40569 0.80233 0.96016 0.0
C184 C 0.51048 0.77108 0.55101 0.0
C185 C 0.47113 0.78891 0.52501 0.0
C186 C 0.5812 0.76375 0.54651 0.0
C187 C 0.73255 0.78629 0.49124 0.0
H188 H 0.78699 0.68218 0.5187 0.0
C189 C 0.99562 0.72748 0.45169 0.0
C190 C 0.03449 0.70892 0.4775 0.0
C191 C 0.92485 0.73472 0.45607 0.0
C192 C 0.77284 0.71141 0.51106 0.0
H193 H 0.47497 0.81603 0.47522 0.0
H194 H 0.59908 0.80443 0.46761 0.0
H195 H 0.67128 0.70443 0.53224 0.0
H196 H 0.02976 0.68035 0.52674 0.0
H197 H 0.90553 0.69176 0.5341 0.0
H198 H 0.83412 0.79334 0.47016 0.0
C199 C 0.57533 0.79533 0.49117 0.0
C200 C 0.70663 0.72426 0.51901 0.0
C201 C 0.50445 0.802 0.49547 0.0
C202 C 0.00065 0.69498 0.50666 0.0
C203 C 0.92968 0.70157 0.51081 0.0
C204 C 0.79879 0.77346 0.48334 0.0
C205 C 0.6138 0.77462 0.51607 0.0
C206 C 0.68568 0.76186 0.50921 0.0
C207 C 0.89168 0.72308 0.4862 0.0
C208 C 0.81976 0.73585 0.49311 0.0
H209 H 0.48559 0.76042 0.57393 0.0
H210 H 0.60977 0.74839 0.56642 0.0
H211 H 0.71827 0.81549 0.48356 0.0
H212 H 0.02093 0.73875 0.42906 0.0
H213 H 0.89669 0.75061 0.43631 0.0
C214 C 0.99874 0.29998 0.48676 0.0
C215 C 0.96682 0.29159 0.51761 0.0
C216 C 0.06927 0.29248 0.48254 0.0
C217 C 0.23384 0.26703 0.52668 0.0
H218 H 0.27365 0.21526 0.44789 0.0
C219 C 0.49849 0.19674 0.50981 0.0
C220 C 0.53048 0.20512 0.47897 0.0
C221 C 0.42799 0.20433 0.51403 0.0
C222 C 0.26355 0.22991 0.46987 0.0
H223 H 0.98384 0.27129 0.56883 0.0
H224 H 0.10741 0.25806 0.56163 0.0
H225 H 0.15689 0.2392 0.45682 0.0
H226 H 0.51358 0.22553 0.42776 0.0
H227 H 0.39005 0.23891 0.43495 0.0
H228 H 0.34051 0.25774 0.53973 0.0
C229 C 0.07824 0.27063 0.54064 0.0
C230 C 0.19669 0.24382 0.47494 0.0
C231 C 0.0076 0.27838 0.54486 0.0
C232 C 0.48977 0.21843 0.45173 0.0
C233 C 0.41916 0.22627 0.45594 0.0
C234 C 0.3007 0.25312 0.5216 0.0
C235 C 0.10918 0.27619 0.5091 0.0
C236 C 0.18104 0.26261 0.50339 0.0
C237 C 0.38817 0.2207 0.48746 0.0
C238 C 0.31634 0.23433 0.49316 0.0
H239 H 0.96849 0.31102 0.46561 0.0
H240 H 0.09207 0.29828 0.4582 0.0
H241 H 0.22375 0.28168 0.54866 0.0
H242 H 0.52867 0.18561 0.53095 0.0
H243 H 0.40516 0.19853 0.53835 0.0
C244 C 0.64078 0.62303 0.98168 0.0
C245 C 0.69304 0.6214 0.00596 0.0
C246 C 0.59605 0.59208 0.9791 0.0
C247 C 0.56804 0.4896 0.00527 0.0
H248 H 0.37328 0.51809 0.00197 0.0
C249 C 0.35479 0.37542 0.02244 0.0
C250 C 0.3023 0.37842 -0.00173 0.0
C251 C 0.39944 0.40613 0.0263 0.0
C252 C 0.4274 0.50964 0.00271 0.0
H253 H 0.74335 0.58461 0.04446 0.0
H254 H 0.66576 0.5307 0.03982 0.0
H255 H 0.46218 0.56766 -0.00164 0.0
H256 H 0.25139 0.41727 0.96147 0.0
H257 H 0.32896 0.47052 0.96813 0.0
H258 H 0.53334 0.43159 0.00937 0.0
C259 C 0.6589 0.55596 0.02292 0.0
C260 C 0.47838 0.53804 0.00043 0.0
C261 C 0.70339 0.58695 0.0256 0.0
C262 C 0.29157 0.41385 0.98018 0.0
C263 C 0.33607 0.44451 0.98406 0.0
C264 C 0.51705 0.46118 0.00745 0.0
C265 C 0.60303 0.55876 0.00058 0.0
C266 C 0.54928 0.52835 0.00158 0.0
C267 C 0.39225 0.44051 0.00619 0.0
C268 C 0.4461 0.47086 0.00614 0.0
H269 H 0.6313 0.64901 0.96614 0.0
H270 H 0.55433 0.59479 0.96114 0.0
H271 H 0.62221 0.48123 0.00602 0.0
H272 H 0.3645 0.34866 0.03683 0.0
H273 H 0.44129 0.40243 0.04413 0.0
C274 C 0.64333 0.37566 0.51619 0.0
C275 C 0.69309 0.37672 0.49072 0.0
C276 C 0.59925 0.40674 0.51933 0.0
C277 C 0.5699 0.50883 0.49235 0.0
H278 H 0.37535 0.48076 0.50087 0.0
C279 C 0.35627 0.62294 0.47785 0.0
C280 C 0.30613 0.62072 0.50318 0.0
C281 C 0.40033 0.59206 0.47373 0.0
C282 C 0.42944 0.48909 0.49868 0.0
H283 H 0.73977 0.41271 0.45053 0.0
H284 H 0.66323 0.46684 0.45613 0.0
H285 H 0.46386 0.43102 0.50308 0.0
H286 H 0.25876 0.58299 0.542 0.0
H287 H 0.33538 0.52944 0.5349 0.0
H288 H 0.53556 0.5669 0.48815 0.0
C289 C 0.65787 0.44191 0.47354 0.0
C290 C 0.48021 0.4606 0.50015 0.0
C291 C 0.70173 0.41078 0.47032 0.0
C292 C 0.2971 0.58584 0.52237 0.0
C293 C 0.34104 0.555 0.51824 0.0
C294 C 0.51912 0.53733 0.49096 0.0
C295 C 0.60438 0.43964 0.49723 0.0
C296 C 0.55102 0.47015 0.49709 0.0
C297 C 0.39491 0.55828 0.49476 0.0
C298 C 0.44829 0.5278 0.49415 0.0
H299 H 0.63531 0.35002 0.53239 0.0
H300 H 0.55944 0.40447 0.53831 0.0
H301 H 0.62403 0.5171 0.49015 0.0
H302 H 0.36451 0.64923 0.46253 0.0
H303 H 0.44034 0.59517 0.45489 0.0
C304 C 0.20666 0.08658 0.01511 0.0
C305 C 0.19465 0.12203 0.9973 0.0
C306 C 0.16232 0.05576 0.0116 0.0
C307 C 0.98035 0.03868 0.99045 0.0
H308 H 0.03616 0.93234 -0.00182 0.0
C309 C 0.79387 0.91276 0.97355 0.0
C310 C 0.80547 0.87812 0.99272 0.0
C311 C 0.83822 0.94383 0.97604 0.0
C312 C 0.01973 0.96192 0.99651 0.0
H313 H 0.13035 0.15172 0.95951 0.0
H314 H 0.05382 0.09767 0.95285 0.0
H315 H 0.12463 0.98215 0.99371 0.0
H316 H 0.86938 0.85016 0.03156 0.0
H317 H 0.94611 0.90457 0.03629 0.0
H318 H 0.8754 0.01837 0.99316 0.0
C319 C 0.09657 0.09406 0.97019 0.0
C320 C 0.07044 0.99044 0.99373 0.0
C321 C 0.14106 0.12492 0.97368 0.0
C322 C 0.85888 0.87633 0.01643 0.0
C323 C 0.90347 0.90738 0.01883 0.0
C324 C 0.92962 0.01013 0.99315 0.0
C325 C 0.10504 0.05965 0.99012 0.0
C326 C 0.05138 0.02917 0.99075 0.0
C327 C 0.8952 0.94092 0.99774 0.0
C328 C 0.94875 0.97143 0.99634 0.0
H329 H 0.24772 0.08325 0.03339 0.0
H330 H 0.17042 0.0297 0.02735 0.0
H331 H 0.96385 0.06823 0.98891 0.0
H332 H 0.75298 0.9152 0.95514 0.0
H333 H 0.83036 0.96926 0.95946 0.0
C334 C 0.79468 0.08562 0.52567 0.0
C335 C 0.80584 0.12007 0.50615 0.0
C336 C 0.83898 0.05453 0.52316 0.0
C337 C 0.97961 0.01584 0.47286 0.0
H338 H 0.04021 0.96801 0.55774 0.0
C339 C 0.20977 0.9126 0.48078 0.0
C340 C 0.19787 0.87745 0.49912 0.0
C341 C 0.16537 0.9435 0.48391 0.0
C342 C 0.02352 0.98091 0.53386 0.0
H343 H 0.86927 0.14774 0.46695 0.0
H344 H 0.94651 0.09369 0.46258 0.0
H345 H 0.94997 0.01684 0.55575 0.0
H346 H 0.13348 0.84837 0.53725 0.0
H347 H 0.05619 0.90228 0.54282 0.0
H348 H 0.05337 0.98002 0.45099 0.0
C349 C 0.9034 0.09059 0.47979 0.0
C350 C 0.9715 0.00873 0.53266 0.0
C351 C 0.85886 0.12165 0.48221 0.0
C352 C 0.14433 0.87499 0.52283 0.0
C353 C 0.09979 0.90594 0.52593 0.0
C354 C 0.03171 0.98809 0.47407 0.0
C355 C 0.89555 0.0572 0.50114 0.0
C356 C 0.94888 0.02652 0.50214 0.0
C357 C 0.10812 0.93996 0.50547 0.0
C358 C 0.05439 0.97037 0.50458 0.0
H359 H 0.75388 0.08328 0.54416 0.0
H360 H 0.83038 0.02884 0.53934 0.0
H361 H 0.96291 0.02864 0.44895 0.0
H362 H 0.25103 0.91565 0.46255 0.0
H363 H 0.17426 0.9697 0.46845 0.0
C364 C 0.70479 0.28559 0.31131 0.0
C365 C 0.72128 0.25151 0.33031 0.0
C366 C 0.69408 0.28574 0.27725 0.0
C367 C 0.64655 0.2211 0.21412 0.0
H368 H 0.68842 0.30967 0.15369 0.0
C369 C 0.5324 0.22645 0.08752 0.0
C370 C 0.4886 0.25836 0.082 0.0
C371 C 0.5875 0.22694 0.10974 0.0
C372 C 0.67709 0.2846 0.17021 0.0
H373 H 0.74149 0.19104 0.32833 0.0
H374 H 0.7241 0.19138 0.26881 0.0
H375 H 0.731 0.30664 0.21071 0.0
H376 H 0.47501 0.31774 0.09161 0.0
H377 H 0.56928 0.31804 0.13144 0.0
H378 H 0.59082 0.19953 0.17437 0.0
C379 C 0.71784 0.21789 0.28032 0.0
C380 C 0.70095 0.28295 0.20291 0.0
C381 C 0.72768 0.21765 0.31446 0.0
C382 C 0.50702 0.29243 0.09567 0.0
C383 C 0.56153 0.2927 0.11842 0.0
C384 C 0.62328 0.22262 0.18153 0.0
C385 C 0.70039 0.25189 0.26131 0.0
C386 C 0.68408 0.25165 0.2255 0.0
C387 C 0.59883 0.25903 0.12744 0.0
C388 C 0.63654 0.25482 0.15943 0.0
H389 H 0.69945 0.31218 0.3228 0.0
H390 H 0.67926 0.31229 0.26359 0.0
H391 H 0.6315 0.19684 0.23082 0.0
H392 H 0.52011 0.19973 0.0774 0.0
H393 H 0.61673 0.20089 0.11554 0.0
C394 C 0.73011 0.7784 0.1833 0.0
C395 C 0.72405 0.7445 0.16748 0.0
C396 C 0.7203 0.77818 0.21744 0.0
C397 C 0.70332 0.71357 0.29511 0.0
H398 H 0.59289 0.79726 0.32299 0.0
C399 C 0.51125 0.70556 0.40347 0.0
C400 C 0.49264 0.73995 0.41659 0.0
C401 C 0.56533 0.70498 0.38046 0.0
C402 C 0.62543 0.77409 0.31602 0.0
H403 H 0.70329 0.68373 0.17507 0.0
H404 H 0.68303 0.68364 0.23436 0.0
H405 H 0.63321 0.79923 0.26651 0.0
H406 H 0.52359 0.79888 0.42002 0.0
H407 H 0.6196 0.79718 0.38149 0.0
H408 H 0.69129 0.68752 0.34461 0.0
C409 C 0.69747 0.71022 0.22063 0.0
C410 C 0.6485 0.7752 0.28341 0.0
C411 C 0.70824 0.71035 0.18655 0.0
C412 C 0.53599 0.77194 0.4103 0.0
C413 C 0.59073 0.77113 0.38785 0.0
C414 C 0.67967 0.71233 0.32786 0.0
C415 C 0.70311 0.74417 0.2365 0.0
C416 C 0.68632 0.74459 0.27228 0.0
C417 C 0.60208 0.73862 0.37066 0.0
C418 C 0.63915 0.74227 0.33844 0.0
H419 H 0.74351 0.80506 0.1694 0.0
H420 H 0.72623 0.80474 0.22888 0.0
H421 H 0.7335 0.68981 0.28749 0.0
H422 H 0.47959 0.68019 0.40811 0.0
H423 H 0.57312 0.67932 0.36788 0.0
C424 C 0.28377 0.76577 0.68732 0.0
C425 C 0.27255 0.73308 0.67028 0.0
C426 C 0.29448 0.76246 0.72158 0.0
C427 C 0.36023 0.69496 0.78736 0.0
H428 H 0.28755 0.76759 0.84553 0.0
C429 C 0.48465 0.69975 0.91203 0.0
C430 C 0.50865 0.73676 0.91636 0.0
C431 C 0.42967 0.69437 0.89038 0.0
C432 C 0.30807 0.74695 0.82967 0.0
H433 H 0.26273 0.67127 0.67617 0.0
H434 H 0.28194 0.66568 0.73564 0.0
H435 H 0.24619 0.769 0.78841 0.0
H436 H 0.48622 0.79711 0.90586 0.0
H437 H 0.39272 0.78785 0.86777 0.0
H438 H 0.42529 0.67435 0.82734 0.0
C439 C 0.28264 0.69382 0.72249 0.0
C440 C 0.2845 0.74786 0.79696 0.0
C441 C 0.27169 0.69709 0.68835 0.0
C442 C 0.47008 0.76814 0.9026 0.0
C443 C 0.41574 0.76278 0.88073 0.0
C444 C 0.38422 0.69426 0.81984 0.0
C445 C 0.29452 0.72641 0.73946 0.0
C446 C 0.31193 0.72257 0.77523 0.0
C447 C 0.39845 0.72589 0.87246 0.0
C448 C 0.36023 0.72106 0.84115 0.0
H449 H 0.28434 0.79393 0.67424 0.0
H450 H 0.30451 0.78807 0.73393 0.0
H451 H 0.38282 0.67528 0.77116 0.0
H452 H 0.5121 0.67491 0.92297 0.0
H453 H 0.41575 0.6655 0.88555 0.0
C454 C 0.28068 0.23673 0.81164 0.0
C455 C 0.2701 0.26946 0.82872 0.0
C456 C 0.29226 0.24001 0.77746 0.0
C457 C 0.36151 0.30676 0.71191 0.0
H458 H 0.28848 0.23418 0.65381 0.0
C459 C 0.48714 0.30021 0.5872 0.0
C460 C 0.51022 0.26301 0.58286 0.0
C461 C 0.43269 0.30605 0.60907 0.0
C462 C 0.30913 0.25479 0.66965 0.0
H463 H 0.26236 0.33134 0.82298 0.0
H464 H 0.28321 0.3369 0.76352 0.0
H465 H 0.24542 0.23368 0.71061 0.0
H466 H 0.4867 0.20284 0.59372 0.0
H467 H 0.39392 0.2129 0.63215 0.0
H468 H 0.42824 0.32643 0.67218 0.0
C469 C 0.28267 0.30875 0.77662 0.0
C470 C 0.28456 0.25442 0.70218 0.0
C471 C 0.27078 0.30549 0.81074 0.0
C472 C 0.47126 0.23193 0.59696 0.0
C473 C 0.41738 0.23775 0.61903 0.0
C474 C 0.38644 0.30693 0.67959 0.0
C475 C 0.29385 0.27607 0.75963 0.0
C476 C 0.31209 0.27967 0.72392 0.0
C477 C 0.4009 0.27482 0.62716 0.0
C478 C 0.36231 0.28012 0.65833 0.0
H479 H 0.2801 0.20852 0.82463 0.0
H480 H 0.30175 0.21433 0.76512 0.0
H481 H 0.38419 0.32637 0.72811 0.0
H482 H 0.5149 0.32484 0.57604 0.0
H483 H 0.41945 0.33504 0.61381 0.0
C484 C 0.21224 0.79532 0.31404 0.0
C485 C 0.22958 0.76102 0.33253 0.0
C486 C 0.19945 0.79583 0.28005 0.0
C487 C 0.14703 0.73086 0.21778 0.0
H488 H 0.18433 0.81863 0.15576 0.0
C489 C 0.03152 0.73163 0.09143 0.0
C490 C 0.98756 0.76325 0.08464 0.0
C491 C 0.08596 0.7332 0.11393 0.0
C492 C 0.17413 0.79381 0.17276 0.0
H493 H 0.25045 0.70074 0.32956 0.0
H494 H 0.22989 0.70179 0.27036 0.0
H495 H 0.22941 0.81705 0.21235 0.0
H496 H 0.9729 0.82308 0.09245 0.0
H497 H 0.06594 0.82528 0.13276 0.0
H498 H 0.09011 0.70803 0.17902 0.0
C499 C 0.22403 0.72812 0.28217 0.0
C500 C 0.19948 0.79298 0.2052 0.0
C501 C 0.23581 0.7275 0.31617 0.0
C502 C 0.0051 0.79799 0.09744 0.0
C503 C 0.05887 0.79933 0.12051 0.0
C504 C 0.12225 0.73158 0.1855 0.0
C505 C 0.20458 0.76214 0.26375 0.0
C506 C 0.18484 0.76181 0.2283 0.0
C507 C 0.09644 0.76611 0.1307 0.0
C508 C 0.13416 0.76335 0.16275 0.0
H509 H 0.20723 0.82166 0.32594 0.0
H510 H 0.18358 0.82244 0.2668 0.0
H511 H 0.13337 0.70672 0.23492 0.0
H512 H 0.01993 0.70444 0.08201 0.0
H513 H 0.11549 0.70745 0.12056 0.0
C514 C 0.00973 0.19645 0.40842 0.0
C515 C 0.98692 0.23355 0.41334 0.0
C516 C 0.06394 0.19095 0.38633 0.0
C517 C 0.18712 0.24312 0.3261 0.0
H518 H 0.11133 0.17266 0.26682 0.0
C519 C 0.21525 0.26305 0.18405 0.0
C520 C 0.22588 0.23052 0.16671 0.0
C521 C 0.20356 0.25941 0.21823 0.0
C522 C 0.1342 0.19198 0.28324 0.0
H523 H 0.01077 0.29379 0.40329 0.0
H524 H 0.10308 0.28433 0.36448 0.0
H525 H 0.06771 0.17173 0.32288 0.0
H526 H 0.23355 0.16862 0.17198 0.0
H527 H 0.21254 0.16244 0.2314 0.0
H528 H 0.25058 0.26482 0.28523 0.0
C529 C 0.0796 0.2593 0.37731 0.0
C530 C 0.10951 0.1913 0.31564 0.0
C531 C 0.02598 0.26478 0.3996 0.0
C532 C 0.22511 0.19432 0.18442 0.0
C533 C 0.21312 0.19071 0.21852 0.0
C534 C 0.21141 0.24401 0.29349 0.0
C535 C 0.09574 0.22243 0.36859 0.0
C536 C 0.13397 0.21767 0.33722 0.0
C537 C 0.20191 0.22318 0.23578 0.0
C538 C 0.18366 0.21916 0.27147 0.0
H539 H 0.98191 0.17169 0.4193 0.0
H540 H 0.07695 0.16207 0.38114 0.0
H541 H 0.20801 0.26341 0.34217 0.0
H542 H 0.2159 0.29136 0.17127 0.0
H543 H 0.19406 0.28493 0.23078 0.0
C544 C 0.96361 0.27418 0.90824 0.0
C545 C 0.00738 0.24228 0.91394 0.0
C546 C 0.90804 0.27337 0.88631 0.0
C547 C 0.81781 0.2147 0.8267 0.0
H548 H 0.86278 0.30179 0.76524 0.0
C549 C 0.79115 0.21176 0.68566 0.0
C550 C 0.77474 0.24562 0.66634 0.0
C551 C 0.80133 0.21203 0.71974 0.0
C552 C 0.84788 0.27771 0.78218 0.0
H553 H 0.02049 0.18266 0.90504 0.0
H554 H 0.92553 0.1818 0.86565 0.0
H555 H 0.90349 0.29998 0.82161 0.0
H556 H 0.75384 0.3061 0.66775 0.0
H557 H 0.77025 0.30648 0.72725 0.0
H558 H 0.76412 0.19193 0.78646 0.0
C559 C 0.9336 0.20738 0.87831 0.0
C560 C 0.87116 0.27669 0.81473 0.0
C561 C 0.98853 0.20796 0.9008 0.0
C562 C 0.76768 0.27966 0.68187 0.0
C563 C 0.77695 0.27984 0.71601 0.0
C564 C 0.79396 0.21583 0.79402 0.0
C565 C 0.89626 0.24097 0.86905 0.0
C566 C 0.85819 0.24473 0.83714 0.0
C567 C 0.79451 0.24609 0.73534 0.0
C568 C 0.81063 0.24687 0.77112 0.0
H569 H 0.9762 0.30108 0.91798 0.0
H570 H 0.87878 0.29937 0.88035 0.0
H571 H 0.80667 0.1898 0.84346 0.0
H572 H 0.79692 0.18504 0.67442 0.0
H573 H 0.8162 0.18566 0.73367 0.0
C574 C 0.9671 0.72799 0.59008 0.0
C575 C 0.01142 0.75968 0.58455 0.0
C576 C 0.91095 0.72909 0.61168 0.0
C577 C 0.82018 0.78804 0.67098 0.0
H578 H 0.86128 0.70015 0.73218 0.0
C579 C 0.78892 0.7894 0.81204 0.0
C580 C 0.77174 0.75535 0.83094 0.0
C581 C 0.79974 0.7896 0.77796 0.0
C582 C 0.84743 0.72447 0.71529 0.0
H583 H 0.02532 0.81921 0.59359 0.0
H584 H 0.92949 0.8205 0.63258 0.0
H585 H 0.90409 0.70223 0.67615 0.0
H586 H 0.74969 0.6951 0.82875 0.0
H587 H 0.76709 0.69555 0.76925 0.0
H588 H 0.76545 0.81074 0.71099 0.0
C589 C 0.93743 0.79491 0.61991 0.0
C590 C 0.87194 0.72564 0.68293 0.0
C591 C 0.99286 0.79407 0.59766 0.0
C592 C 0.76417 0.72166 0.81497 0.0
C593 C 0.77403 0.72195 0.78083 0.0
C594 C 0.7951 0.78674 0.70348 0.0
C595 C 0.89928 0.76152 0.62892 0.0
C596 C 0.86031 0.75784 0.66062 0.0
C597 C 0.79276 0.75583 0.76195 0.0
C598 C 0.81026 0.75537 0.72627 0.0
H599 H 0.97962 0.70101 0.5805 0.0
H600 H 0.88112 0.70324 0.61744 0.0
H601 H 0.8101 0.81313 0.65429 0.0
H602 H 0.79505 0.81587 0.82364 0.0
H603 H 0.81541 0.81605 0.76438 0.0
loop_
_geom_bond_atom_site_label_1
_geom_bond_atom_site_label_2
_geom_bond_distance
_geom_bond_site_symmetry_2
_ccdc_geom_bond_type
C0 O12 1.241 . S
C0 O13 1.280 . S
C1 O14 1.277 . S
C1 O15 1.245 . S
C2 O26 1.247 . S
C2 O28 1.289 1_556 S
Mg3 O4 1.926 . S
Mg3 O13 1.984 . S
Mg3 O15 1.988 . S
Mg3 O16 2.061 . S
O4 Mg3 1.926 . S
O4 Mg5 1.986 . S
O4 Mg6 1.917 . S
Mg5 O4 1.986 . S
Mg5 O12 2.042 . S
Mg5 O14 2.041 . S
Mg5 O20 2.038 . S
Mg5 O28 2.238 . S
Mg6 O4 1.917 . S
Mg6 O7 1.917 1_554 S
Mg6 O17 2.106 1_554 S
Mg6 O19 2.079 1_554 S
Mg6 O28 2.106 . S
Mg6 O29 2.079 . S
O7 Mg6 1.917 1_556 S
O7 Mg8 1.926 . S
O7 Mg9 1.986 . S
Mg8 O7 1.926 . S
Mg8 O22 1.984 . S
Mg8 O25 1.988 . S
Mg8 O26 2.061 . S
Mg9 O7 1.986 . S
Mg9 O17 2.238 . S
Mg9 O21 2.042 . S
Mg9 O23 2.041 . S
Mg9 O30 2.038 . S
C10 O16 1.247 . S
C10 O17 1.289 1_554 S
C11 O29 1.245 1_556 S
C11 O30 1.274 . S
O12 C0 1.241 . S
O12 Mg5 2.042 . S
O13 C0 1.280 . S
O13 Mg3 1.984 . S
O14 C1 1.277 . S
O14 Mg5 2.041 . S
O15 C1 1.245 . S
O15 Mg3 1.988 . S
O16 Mg3 2.061 . S
O16 C10 1.247 . S
O17 Mg6 2.106 1_556 S
O17 Mg9 2.238 . S
O17 C10 1.289 1_556 S
C18 O19 1.245 1_554 S
C18 O20 1.274 . S
O19 Mg6 2.079 1_556 S
O19 C18 1.245 1_556 S
O20 Mg5 2.038 . S
O20 C18 1.274 . S
O21 Mg9 2.042 . S
O21 C24 1.241 . S
O22 Mg8 1.984 . S
O22 C24 1.280 . S
O23 Mg9 2.041 . S
O23 C27 1.277 . S
C24 O21 1.241 . S
C24 O22 1.280 . S
O25 Mg8 1.988 . S
O25 C27 1.245 . S
O26 C2 1.247 . S
O26 Mg8 2.061 . S
C27 O23 1.277 . S
C27 O25 1.245 . S
O28 C2 1.289 1_554 S
O28 Mg5 2.238 . S
O28 Mg6 2.106 . S
O29 Mg6 2.079 . S
O29 C11 1.245 1_554 S
O30 Mg9 2.038 . S
O30 C11 1.274 . S
C31 O43 1.241 . S
C31 O44 1.280 . S
C32 O45 1.277 . S
C32 O46 1.245 . S
C33 O57 1.247 . S
C33 O59 1.289 1_556 S
Mg34 O35 1.926 . S
Mg34 O44 1.984 . S
Mg34 O46 1.988 . S
Mg34 O47 2.061 . S
O35 Mg34 1.926 . S
O35 Mg36 1.986 . S
O35 Mg37 1.917 . S
Mg36 O35 1.986 . S
Mg36 O43 2.042 . S
Mg36 O45 2.041 . S
Mg36 O51 2.038 . S
Mg36 O59 2.238 . S
Mg37 O35 1.917 . S
Mg37 O38 1.917 1_554 S
Mg37 O48 2.106 1_554 S
Mg37 O50 2.079 1_554 S
Mg37 O59 2.106 . S
Mg37 O60 2.079 . S
O38 Mg37 1.917 1_556 S
O38 Mg39 1.926 . S
O38 Mg40 1.986 . S
Mg39 O38 1.926 . S
Mg39 O53 1.984 . S
Mg39 O56 1.988 . S
Mg39 O57 2.061 . S
Mg40 O38 1.986 . S
Mg40 O48 2.238 . S
Mg40 O52 2.042 . S
Mg40 O54 2.041 . S
Mg40 O61 2.038 . S
C41 O47 1.247 . S
C41 O48 1.289 1_554 S
C42 O60 1.245 1_556 S
C42 O61 1.274 . S
O43 C31 1.241 . S
O43 Mg36 2.042 . S
O44 C31 1.280 . S
O44 Mg34 1.984 . S
O45 C32 1.277 . S
O45 Mg36 2.041 . S
O46 C32 1.245 . S
O46 Mg34 1.988 . S
O47 Mg34 2.061 . S
O47 C41 1.247 . S
O48 Mg37 2.106 1_556 S
O48 Mg40 2.238 . S
O48 C41 1.289 1_556 S
C49 O50 1.245 1_554 S
C49 O51 1.274 . S
O50 Mg37 2.079 1_556 S
O50 C49 1.245 1_556 S
O51 Mg36 2.038 . S
O51 C49 1.274 . S
O52 Mg40 2.042 . S
O52 C55 1.241 . S
O53 Mg39 1.984 . S
O53 C55 1.280 . S
O54 Mg40 2.041 . S
O54 C58 1.277 . S
C55 O52 1.241 . S
C55 O53 1.280 . S
O56 Mg39 1.988 . S
O56 C58 1.245 . S
O57 C33 1.247 . S
O57 Mg39 2.061 . S
C58 O54 1.277 . S
C58 O56 1.245 . S
O59 C33 1.289 1_554 S
O59 Mg36 2.238 . S
O59 Mg37 2.106 . S
O60 Mg37 2.079 . S
O60 C42 1.245 1_554 S
O61 Mg40 2.038 . S
O61 C42 1.274 . S
C62 O74 1.241 . S
C62 O75 1.280 . S
C63 O76 1.277 . S
C63 O77 1.245 . S
C64 O88 1.247 . S
C64 O90 1.289 . S
Mg65 O66 1.926 . S
Mg65 O75 1.984 . S
Mg65 O77 1.988 . S
Mg65 O78 2.061 . S
O66 Mg65 1.926 . S
O66 Mg67 1.986 . S
O66 Mg68 1.917 . S
Mg67 O66 1.986 . S
Mg67 O74 2.042 . S
Mg67 O76 2.041 . S
Mg67 O82 2.038 . S
Mg67 O90 2.238 . S
Mg68 O66 1.917 . S
Mg68 O69 1.917 . S
Mg68 O79 2.106 . S
Mg68 O81 2.079 . S
Mg68 O90 2.106 . S
Mg68 O91 2.079 . S
O69 Mg68 1.917 . S
O69 Mg70 1.926 . S
O69 Mg71 1.986 . S
Mg70 O69 1.926 . S
Mg70 O84 1.984 . S
Mg70 O87 1.988 . S
Mg70 O88 2.061 . S
Mg71 O69 1.986 . S
Mg71 O79 2.238 . S
Mg71 O83 2.042 . S
Mg71 O85 2.041 . S
Mg71 O92 2.038 . S
C72 O78 1.247 . S
C72 O79 1.289 . S
C73 O91 1.245 . S
C73 O92 1.274 . S
O74 C62 1.241 . S
O74 Mg67 2.042 . S
O75 C62 1.280 . S
O75 Mg65 1.984 . S
O76 C63 1.277 . S
O76 Mg67 2.041 . S
O77 C63 1.245 . S
O77 Mg65 1.988 . S
O78 Mg65 2.061 . S
O78 C72 1.247 . S
O79 Mg68 2.106 . S
O79 Mg71 2.238 . S
O79 C72 1.289 . S
C80 O81 1.245 . S
C80 O82 1.274 . S
O81 Mg68 2.079 . S
O81 C80 1.245 . S
O82 Mg67 2.038 . S
O82 C80 1.274 . S
O83 Mg71 2.042 . S
O83 C86 1.241 . S
O84 Mg70 1.984 . S
O84 C86 1.280 . S
O85 Mg71 2.041 . S
O85 C89 1.277 . S
C86 O83 1.241 . S
C86 O84 1.280 . S
O87 Mg70 1.988 . S
O87 C89 1.245 . S
O88 C64 1.247 . S
O88 Mg70 2.061 . S
C89 O85 1.277 . S
C89 O87 1.245 . S
O90 C64 1.289 . S
O90 Mg67 2.238 . S
O90 Mg68 2.106 . S
O91 Mg68 2.079 . S
O91 C73 1.245 . S
O92 Mg71 2.038 . S
O92 C73 1.274 . S
C93 O105 1.241 . S
C93 O106 1.280 . S
C94 O107 1.277 . S
C94 O108 1.245 . S
C95 O119 1.247 . S
C95 O121 1.289 . S
Mg96 O97 1.926 . S
Mg96 O106 1.984 . S
Mg96 O108 1.988 . S
Mg96 O109 2.061 . S
O97 Mg96 1.926 . S
O97 Mg98 1.986 . S
O97 Mg99 1.917 . S
Mg98 O97 1.986 . S
Mg98 O105 2.042 . S
Mg98 O107 2.041 . S
Mg98 O113 2.038 . S
Mg98 O121 2.238 . S
Mg99 O97 1.917 . S
Mg99 O100 1.917 . S
Mg99 O110 2.106 . S
Mg99 O112 2.079 . S
Mg99 O121 2.106 . S
Mg99 O122 2.079 . S
O100 Mg99 1.917 . S
O100 Mg101 1.926 . S
O100 Mg102 1.986 . S
Mg101 O100 1.926 . S
Mg101 O115 1.984 . S
Mg101 O118 1.988 . S
Mg101 O119 2.061 . S
Mg102 O100 1.986 . S
Mg102 O110 2.238 . S
Mg102 O114 2.042 . S
Mg102 O116 2.041 . S
Mg102 O123 2.038 . S
C103 O109 1.247 . S
C103 O110 1.289 . S
C104 O122 1.245 . S
C104 O123 1.274 . S
O105 C93 1.241 . S
O105 Mg98 2.042 . S
O106 C93 1.280 . S
O106 Mg96 1.984 . S
O107 C94 1.277 . S
O107 Mg98 2.041 . S
O108 C94 1.245 . S
O108 Mg96 1.988 . S
O109 Mg96 2.061 . S
O109 C103 1.247 . S
O110 Mg99 2.106 . S
O110 Mg102 2.238 . S
O110 C103 1.289 . S
C111 O112 1.245 . S
C111 O113 1.274 . S
O112 Mg99 2.079 . S
O112 C111 1.245 . S
O113 Mg98 2.038 . S
O113 C111 1.274 . S
O114 Mg102 2.042 . S
O114 C117 1.241 . S
O115 Mg101 1.984 . S
O115 C117 1.280 . S
O116 Mg102 2.041 . S
O116 C120 1.277 . S
C117 O114 1.241 . S
C117 O115 1.280 . S
O118 Mg101 1.988 . S
O118 C120 1.245 . S
O119 C95 1.247 . S
O119 Mg101 2.061 . S
C120 O116 1.277 . S
C120 O118 1.245 . S
O121 C95 1.289 . S
O121 Mg98 2.238 . S
O121 Mg99 2.106 . S
O122 Mg99 2.079 . S
O122 C104 1.245 . S
O123 Mg102 2.038 . S
O123 C104 1.274 . S
C124 C125 1.328 1_554 S
C124 C126 1.327 . S
C124 H149 0.950 . S
C125 C124 1.328 1_556 S
C125 C141 1.369 . S
C126 C124 1.327 . S
C126 C145 1.428 . S
C126 H150 0.950 . S
C127 C144 1.574 . S
C127 C146 1.355 1_556 S
C127 H151 0.949 . S
H128 C132 0.949 . S
C129 C130 1.349 1_656 S
C129 C131 1.327 . S
C129 H152 0.950 1_655 S
C130 C129 1.349 1_454 S
C130 C142 1.349 . S
C131 C129 1.327 . S
C131 C147 1.429 1_556 S
C131 H153 0.950 . S
C132 H128 0.949 . S
C132 C140 1.574 . S
C132 C148 1.368 . S
H133 C141 0.950 . S
H134 C139 0.950 . S
H135 C140 0.949 . S
H136 C142 0.950 . S
H137 C143 0.950 . S
H138 C144 0.949 . S
C139 H134 0.950 . S
C139 C141 1.327 . S
C139 C145 1.429 1_556 S
C140 C132 1.574 . S
C140 H135 0.949 . S
C140 C146 1.382 . S
C141 C125 1.369 . S
C141 H133 0.950 . S
C141 C139 1.327 . S
C142 C130 1.349 . S
C142 H136 0.950 . S
C142 C143 1.327 1_455 S
C143 H137 0.950 . S
C143 C142 1.327 1_655 S
C143 C147 1.429 . S
C144 C127 1.574 . S
C144 H138 0.949 . S
C144 C148 1.368 1_556 S
C145 C126 1.428 . S
C145 C139 1.429 1_554 S
C145 C146 1.523 . S
C146 C127 1.355 1_554 S
C146 C140 1.382 . S
C146 C145 1.523 . S
C147 C131 1.429 1_554 S
C147 C143 1.429 . S
C147 C148 1.523 . S
C148 C132 1.368 . S
C148 C144 1.368 1_554 S
C148 C147 1.523 . S
H149 C124 0.950 . S
H150 C126 0.950 . S
H151 C127 0.949 . S
H152 C129 0.950 1_455 S
H153 C131 0.950 . S
C154 C155 1.322 1_554 S
C154 C156 1.327 1_655 S
C154 H179 0.950 . S
C155 C154 1.322 1_556 S
C155 C171 1.375 . S
C156 C154 1.327 1_455 S
C156 C175 1.428 . S
C156 H180 0.950 . S
C157 C174 1.574 . S
C157 C176 1.350 1_556 S
C157 H181 0.949 . S
H158 C162 0.949 . S
C159 C160 1.349 1_556 S
C159 C161 1.327 . S
C159 H182 0.950 . S
C160 C159 1.349 1_554 S
C160 C172 1.349 . S
C161 C159 1.327 . S
C161 C177 1.429 1_556 S
C161 H183 0.950 . S
C162 H158 0.949 . S
C162 C170 1.574 . S
C162 C178 1.368 . S
H163 C171 0.950 . S
H164 C169 0.950 . S
H165 C170 0.949 . S
H166 C172 0.950 . S
H167 C173 0.950 . S
H168 C174 0.949 . S
C169 H164 0.950 . S
C169 C171 1.327 1_455 S
C169 C175 1.429 1_556 S
C170 C162 1.574 . S
C170 H165 0.949 . S
C170 C176 1.387 . S
C171 C155 1.375 . S
C171 H163 0.950 . S
C171 C169 1.327 1_655 S
C172 C160 1.349 . S
C172 H166 0.950 . S
C172 C173 1.327 . S
C173 H167 0.950 . S
C173 C172 1.327 . S
C173 C177 1.429 . S
C174 C157 1.574 . S
C174 H168 0.949 . S
C174 C178 1.368 1_556 S
C175 C156 1.428 . S
C175 C169 1.429 1_554 S
C175 C176 1.523 . S
C176 C157 1.350 1_554 S
C176 C170 1.387 . S
C176 C175 1.523 . S
C177 C161 1.429 1_554 S
C177 C173 1.429 . S
C177 C178 1.523 . S
C178 C162 1.368 . S
C178 C174 1.368 1_554 S
C178 C177 1.523 . S
H179 C154 0.950 . S
H180 C156 0.950 . S
H181 C157 0.949 . S
H182 C159 0.950 . S
H183 C161 0.950 . S
C184 C185 1.349 . S
C184 C186 1.327 . S
C184 H209 0.950 . S
C185 C184 1.349 . S
C185 C201 1.349 . S
C186 C184 1.327 . S
C186 C205 1.429 . S
C186 H210 0.950 . S
C187 C204 1.574 . S
C187 C206 1.368 . S
C187 H211 0.949 . S
H188 C192 0.949 . S
C189 C190 1.349 . S
C189 C191 1.327 1_455 S
C189 H212 0.950 . S
C190 C189 1.349 . S
C190 C202 1.349 1_455 S
C191 C189 1.327 1_655 S
C191 C207 1.429 . S
C191 H213 0.950 . S
C192 H188 0.949 . S
C192 C200 1.574 . S
C192 C208 1.368 . S
H193 C201 0.950 . S
H194 C199 0.950 . S
H195 C200 0.949 . S
H196 C202 0.950 1_455 S
H197 C203 0.950 . S
H198 C204 0.949 . S
C199 H194 0.950 . S
C199 C201 1.327 . S
C199 C205 1.429 . S
C200 C192 1.574 . S
C200 H195 0.949 . S
C200 C206 1.368 . S
C201 C185 1.349 . S
C201 H193 0.950 . S
C201 C199 1.327 . S
C202 C190 1.349 1_655 S
C202 H196 0.950 1_655 S
C202 C203 1.327 . S
C203 H197 0.950 . S
C203 C202 1.327 . S
C203 C207 1.429 . S
C204 C187 1.574 . S
C204 H198 0.949 . S
C204 C208 1.368 . S
C205 C186 1.429 . S
C205 C199 1.429 . S
C205 C206 1.523 . S
C206 C187 1.368 . S
C206 C200 1.368 . S
C206 C205 1.523 . S
C207 C191 1.429 . S
C207 C203 1.429 . S
C207 C208 1.523 . S
C208 C192 1.368 . S
C208 C204 1.368 . S
C208 C207 1.523 . S
H209 C184 0.950 . S
H210 C186 0.950 . S
H211 C187 0.949 . S
H212 C189 0.950 . S
H213 C191 0.950 . S
C214 C215 1.349 . S
C214 C216 1.327 1_655 S
C214 H239 0.950 . S
C215 C214 1.349 . S
C215 C231 1.349 1_655 S
C216 C214 1.327 1_455 S
C216 C235 1.429 . S
C216 H240 0.950 . S
C217 C234 1.574 . S
C217 C236 1.368 . S
C217 H241 0.949 . S
H218 C222 0.949 . S
C219 C220 1.349 . S
C219 C221 1.327 . S
C219 H242 0.950 . S
C220 C219 1.349 . S
C220 C232 1.349 . S
C221 C219 1.327 . S
C221 C237 1.429 . S
C221 H243 0.950 . S
C222 H218 0.949 . S
C222 C230 1.574 . S
C222 C238 1.368 . S
H223 C231 0.950 1_655 S
H224 C229 0.950 . S
H225 C230 0.949 . S
H226 C232 0.950 . S
H227 C233 0.950 . S
H228 C234 0.949 . S
C229 H224 0.950 . S
C229 C231 1.327 . S
C229 C235 1.429 . S
C230 C222 1.574 . S
C230 H225 0.949 . S
C230 C236 1.368 . S
C231 C215 1.349 1_455 S
C231 H223 0.950 1_455 S
C231 C229 1.327 . S
C232 C220 1.349 . S
C232 H226 0.950 . S
C232 C233 1.327 . S
C233 H227 0.950 . S
C233 C232 1.327 . S
C233 C237 1.429 . S
C234 C217 1.574 . S
C234 H228 0.949 . S
C234 C238 1.368 . S
C235 C216 1.429 . S
C235 C229 1.429 . S
C235 C236 1.523 . S
C236 C217 1.368 . S
C236 C230 1.368 . S
C236 C235 1.523 . S
C237 C221 1.429 . S
C237 C233 1.429 . S
C237 C238 1.523 . S
C238 C222 1.368 . S
C238 C234 1.368 . S
C238 C237 1.523 . S
H239 C214 0.950 . S
H240 C216 0.950 . S
H241 C217 0.949 . S
H242 C219 0.950 . S
H243 C221 0.950 . S
C244 C245 1.349 1_556 S
C244 C246 1.327 . S
C244 H269 0.950 . S
C245 C244 1.349 1_554 S
C245 C261 1.349 . S
C246 C244 1.327 . S
C246 C265 1.429 1_556 S
C246 H270 0.950 . S
C247 C264 1.574 . S
C247 C266 1.368 . S
C247 H271 0.949 . S
H248 C252 0.949 . S
C249 C250 1.349 . S
C249 C251 1.327 . S
C249 H272 0.950 . S
C250 C249 1.349 . S
C250 C262 1.349 1_554 S
C251 C249 1.327 . S
C251 C267 1.429 . S
C251 H273 0.950 . S
C252 H248 0.949 . S
C252 C260 1.574 . S
C252 C268 1.368 1_556 S
H253 C261 0.950 . S
H254 C259 0.950 . S
H255 C260 0.949 . S
H256 C262 0.950 . S
H257 C263 0.950 . S
H258 C264 0.949 . S
C259 H254 0.950 . S
C259 C261 1.327 . S
C259 C265 1.429 . S
C260 C252 1.574 . S
C260 H255 0.949 . S
C260 C266 1.368 1_556 S
C261 C245 1.349 . S
C261 H253 0.950 . S
C261 C259 1.327 . S
C262 C250 1.349 1_556 S
C262 H256 0.950 . S
C262 C263 1.327 . S
C263 H257 0.950 . S
C263 C262 1.327 . S
C263 C267 1.429 1_556 S
C264 C247 1.574 . S
C264 H258 0.949 . S
C264 C268 1.368 . S
C265 C246 1.429 1_554 S
C265 C259 1.429 . S
C265 C266 1.523 . S
C266 C247 1.368 . S
C266 C260 1.368 1_554 S
C266 C265 1.523 . S
C267 C251 1.429 . S
C267 C263 1.429 1_554 S
C267 C268 1.523 . S
C268 C252 1.368 1_554 S
C268 C264 1.368 . S
C268 C267 1.523 . S
H269 C244 0.950 . S
H270 C246 0.950 . S
H271 C247 0.949 . S
H272 C249 0.950 . S
H273 C251 0.950 . S
C274 C275 1.349 . S
C274 C276 1.327 . S
C274 H299 0.950 . S
C275 C274 1.349 . S
C275 C291 1.349 . S
C276 C274 1.327 . S
C276 C295 1.429 . S
C276 H300 0.950 . S
C277 C294 1.574 . S
C277 C296 1.368 . S
C277 H301 0.949 . S
H278 C282 0.949 . S
C279 C280 1.349 . S
C279 C281 1.327 . S
C279 H302 0.950 . S
C280 C279 1.349 . S
C280 C292 1.349 . S
C281 C279 1.327 . S
C281 C297 1.429 . S
C281 H303 0.950 . S
C282 H278 0.949 . S
C282 C290 1.574 . S
C282 C298 1.368 . S
H283 C291 0.950 . S
H284 C289 0.950 . S
H285 C290 0.949 . S
H286 C292 0.950 . S
H287 C293 0.950 . S
H288 C294 0.949 . S
C289 H284 0.950 . S
C289 C291 1.327 . S
C289 C295 1.429 . S
C290 C282 1.574 . S
C290 H285 0.949 . S
C290 C296 1.368 . S
C291 C275 1.349 . S
C291 H283 0.950 . S
C291 C289 1.327 . S
C292 C280 1.349 . S
C292 H286 0.950 . S
C292 C293 1.327 . S
C293 H287 0.950 . S
C293 C292 1.327 . S
C293 C297 1.429 . S
C294 C277 1.574 . S
C294 H288 0.949 . S
C294 C298 1.368 . S
C295 C276 1.429 . S
C295 C289 1.429 . S
C295 C296 1.523 . S
C296 C277 1.368 . S
C296 C290 1.368 . S
C296 C295 1.523 . S
C297 C281 1.429 . S
C297 C293 1.429 . S
C297 C298 1.523 . S
C298 C282 1.368 . S
C298 C294 1.368 . S
C298 C297 1.523 . S
H299 C274 0.950 . S
H300 C276 0.950 . S
H301 C277 0.949 . S
H302 C279 0.950 . S
H303 C281 0.950 . S
C304 C305 1.349 1_556 S
C304 C306 1.327 . S
C304 H329 0.950 . S
C305 C304 1.349 1_554 S
C305 C321 1.349 . S
C306 C304 1.327 . S
C306 C325 1.429 1_556 S
C306 H330 0.950 . S
C307 C324 1.574 1_545 S
C307 C326 1.368 1_655 S
C307 H331 0.949 . S
H308 C312 0.949 . S
C309 C310 1.349 . S
C309 C311 1.327 . S
C309 H332 0.950 . S
C310 C309 1.349 . S
C310 C322 1.349 1_554 S
C311 C309 1.327 . S
C311 C327 1.429 . S
C311 H333 0.950 . S
C312 H308 0.949 . S
C312 C320 1.574 1_565 S
C312 C328 1.368 1_456 S
H313 C321 0.950 . S
H314 C319 0.950 . S
H315 C320 0.949 . S
H316 C322 0.950 . S
H317 C323 0.950 . S
H318 C324 0.949 . S
C319 H314 0.950 . S
C319 C321 1.327 . S
C319 C325 1.429 . S
C320 C312 1.574 1_545 S
C320 H315 0.949 . S
C320 C326 1.368 1_556 S
C321 C305 1.349 . S
C321 H313 0.950 . S
C321 C319 1.327 . S
C322 C310 1.349 1_556 S
C322 H316 0.950 . S
C322 C323 1.327 . S
C323 H317 0.950 . S
C323 C322 1.327 . S
C323 C327 1.429 1_556 S
C324 C307 1.574 1_565 S
C324 H318 0.949 . S
C324 C328 1.368 . S
C325 C306 1.429 1_554 S
C325 C319 1.429 . S
C325 C326 1.523 . S
C326 C307 1.368 1_455 S
C326 C320 1.368 1_554 S
C326 C325 1.523 . S
C327 C311 1.429 . S
C327 C323 1.429 1_554 S
C327 C328 1.523 . S
C328 C312 1.368 1_654 S
C328 C324 1.368 . S
C328 C327 1.523 . S
H329 C304 0.950 . S
H330 C306 0.950 . S
H331 C307 0.949 . S
H332 C309 0.950 . S
H333 C311 0.950 . S
C334 C335 1.349 . S
C334 C336 1.327 . S
C334 H359 0.950 . S
C335 C334 1.349 . S
C335 C351 1.349 . S
C336 C334 1.327 . S
C336 C355 1.429 . S
C336 H360 0.950 . S
C337 C354 1.574 1_545 S
C337 C356 1.368 1_455 S
C337 H361 0.949 . S
H338 C342 0.949 . S
C339 C340 1.349 . S
C339 C341 1.327 . S
C339 H362 0.950 . S
C340 C339 1.349 . S
C340 C352 1.349 . S
C341 C339 1.327 . S
C341 C357 1.429 . S
C341 H363 0.950 . S
C342 H338 0.949 . S
C342 C350 1.574 1_565 S
C342 C358 1.368 1_655 S
H343 C351 0.950 . S
H344 C349 0.950 . S
H345 C350 0.949 . S
H346 C352 0.950 . S
H347 C353 0.950 . S
H348 C354 0.949 . S
C349 H344 0.950 . S
C349 C351 1.327 . S
C349 C355 1.429 . S
C350 C342 1.574 1_545 S
C350 H345 0.949 . S
C350 C356 1.368 . S
C351 C335 1.349 . S
C351 H343 0.950 . S
C351 C349 1.327 . S
C352 C340 1.349 . S
C352 H346 0.950 . S
C352 C353 1.327 . S
C353 H347 0.950 . S
C353 C352 1.327 . S
C353 C357 1.429 . S
C354 C337 1.574 1_565 S
C354 H348 0.949 . S
C354 C358 1.368 . S
C355 C336 1.429 . S
C355 C349 1.429 . S
C355 C356 1.523 . S
C356 C337 1.368 1_655 S
C356 C350 1.368 . S
C356 C355 1.523 . S
C357 C341 1.429 . S
C357 C353 1.429 . S
C357 C358 1.523 . S
C358 C342 1.368 1_455 S
C358 C354 1.368 . S
C358 C357 1.523 . S
H359 C334 0.950 . S
H360 C336 0.950 . S
H361 C337 0.949 . S
H362 C339 0.950 . S
H363 C341 0.950 . S
C364 C365 1.349 . S
C364 C366 1.327 . S
C364 H389 0.950 . S
C365 C364 1.349 . S
C365 C381 1.349 . S
C366 C364 1.327 . S
C366 C385 1.429 . S
C366 H390 0.950 . S
C367 C384 1.574 . S
C367 C386 1.368 . S
C367 H391 0.949 . S
H368 C372 0.949 . S
C369 C370 1.349 . S
C369 C371 1.327 . S
C369 H392 0.950 . S
C370 C369 1.349 . S
C370 C382 1.349 . S
C371 C369 1.327 . S
C371 C387 1.429 . S
C371 H393 0.950 . S
C372 H368 0.949 . S
C372 C380 1.574 . S
C372 C388 1.368 . S
H373 C381 0.950 . S
H374 C379 0.950 . S
H375 C380 0.949 . S
H376 C382 0.950 . S
H377 C383 0.950 . S
H378 C384 0.949 . S
C379 H374 0.950 . S
C379 C381 1.327 . S
C379 C385 1.429 . S
C380 C372 1.574 . S
C380 H375 0.949 . S
C380 C386 1.368 . S
C381 C365 1.349 . S
C381 H373 0.950 . S
C381 C379 1.327 . S
C382 C370 1.349 . S
C382 H376 0.950 . S
C382 C383 1.327 . S
C383 H377 0.950 . S
C383 C382 1.327 . S
C383 C387 1.429 . S
C384 C367 1.574 . S
C384 H378 0.949 . S
C384 C388 1.368 . S
C385 C366 1.429 . S
C385 C379 1.429 . S
C385 C386 1.523 . S
C386 C367 1.368 . S
C386 C380 1.368 . S
C386 C385 1.523 . S
C387 C371 1.429 . S
C387 C383 1.429 . S
C387 C388 1.523 . S
C388 C372 1.368 . S
C388 C384 1.368 . S
C388 C387 1.523 . S
H389 C364 0.950 . S
H390 C366 0.950 . S
H391 C367 0.949 . S
H392 C369 0.950 . S
H393 C371 0.950 . S
C394 C395 1.349 . S
C394 C396 1.327 . S
C394 H419 0.950 . S
C395 C394 1.349 . S
C395 C411 1.349 . S
C396 C394 1.327 . S
C396 C415 1.429 . S
C396 H420 0.950 . S
C397 C414 1.574 . S
C397 C416 1.368 . S
C397 H421 0.949 . S
H398 C402 0.949 . S
C399 C400 1.349 . S
C399 C401 1.327 . S
C399 H422 0.950 . S
C400 C399 1.349 . S
C400 C412 1.349 . S
C401 C399 1.327 . S
C401 C417 1.429 . S
C401 H423 0.950 . S
C402 H398 0.949 . S
C402 C410 1.574 . S
C402 C418 1.368 . S
H403 C411 0.950 . S
H404 C409 0.950 . S
H405 C410 0.949 . S
H406 C412 0.950 . S
H407 C413 0.950 . S
H408 C414 0.949 . S
C409 H404 0.950 . S
C409 C411 1.327 . S
C409 C415 1.429 . S
C410 C402 1.574 . S
C410 H405 0.949 . S
C410 C416 1.368 . S
C411 C395 1.349 . S
C411 H403 0.950 . S
C411 C409 1.327 . S
C412 C400 1.349 . S
C412 H406 0.950 . S
C412 C413 1.327 . S
C413 H407 0.950 . S
C413 C412 1.327 . S
C413 C417 1.429 . S
C414 C397 1.574 . S
C414 H408 0.949 . S
C414 C418 1.368 . S
C415 C396 1.429 . S
C415 C409 1.429 . S
C415 C416 1.523 . S
C416 C397 1.368 . S
C416 C410 1.368 . S
C416 C415 1.523 . S
C417 C401 1.429 . S
C417 C413 1.429 . S
C417 C418 1.523 . S
C418 C402 1.368 . S
C418 C414 1.368 . S
C418 C417 1.523 . S
H419 C394 0.950 . S
H420 C396 0.950 . S
H421 C397 0.949 . S
H422 C399 0.950 . S
H423 C401 0.950 . S
C424 C425 1.349 . S
C424 C426 1.327 . S
C424 H449 0.950 . S
C425 C424 1.349 . S
C425 C441 1.349 . S
C426 C424 1.327 . S
C426 C445 1.429 . S
C426 H450 0.950 . S
C427 C444 1.574 . S
C427 C446 1.368 . S
C427 H451 0.949 . S
H428 C432 0.949 . S
C429 C430 1.349 . S
C429 C431 1.327 . S
C429 H452 0.950 . S
C430 C429 1.349 . S
C430 C442 1.349 . S
C431 C429 1.327 . S
C431 C447 1.429 . S
C431 H453 0.950 . S
C432 H428 0.949 . S
C432 C440 1.574 . S
C432 C448 1.368 . S
H433 C441 0.950 . S
H434 C439 0.950 . S
H435 C440 0.949 . S
H436 C442 0.950 . S
H437 C443 0.950 . S
H438 C444 0.949 . S
C439 H434 0.950 . S
C439 C441 1.327 . S
C439 C445 1.429 . S
C440 C432 1.574 . S
C440 H435 0.949 . S
C440 C446 1.368 . S
C441 C425 1.349 . S
C441 H433 0.950 . S
C441 C439 1.327 . S
C442 C430 1.349 . S
C442 H436 0.950 . S
C442 C443 1.327 . S
C443 H437 0.950 . S
C443 C442 1.327 . S
C443 C447 1.429 . S
C444 C427 1.574 . S
C444 H438 0.949 . S
C444 C448 1.368 . S
C445 C426 1.429 . S
C445 C439 1.429 . S
C445 C446 1.523 . S
C446 C427 1.368 . S
C446 C440 1.368 . S
C446 C445 1.523 . S
C447 C431 1.429 . S
C447 C443 1.429 . S
C447 C448 1.523 . S
C448 C432 1.368 . S
C448 C444 1.368 . S
C448 C447 1.523 . S
H449 C424 0.950 . S
H450 C426 0.950 . S
H451 C427 0.949 . S
H452 C429 0.950 . S
H453 C431 0.950 . S
C454 C455 1.349 . S
C454 C456 1.327 . S
C454 H479 0.950 . S
C455 C454 1.349 . S
C455 C471 1.349 . S
C456 C454 1.327 . S
C456 C475 1.429 . S
C456 H480 0.950 . S
C457 C474 1.574 . S
C457 C476 1.368 . S
C457 H481 0.949 . S
H458 C462 0.949 . S
C459 C460 1.349 . S
C459 C461 1.327 . S
C459 H482 0.950 . S
C460 C459 1.349 . S
C460 C472 1.349 . S
C461 C459 1.327 . S
C461 C477 1.429 . S
C461 H483 0.950 . S
C462 H458 0.949 . S
C462 C470 1.574 . S
C462 C478 1.368 . S
H463 C471 0.950 . S
H464 C469 0.950 . S
H465 C470 0.949 . S
H466 C472 0.950 . S
H467 C473 0.950 . S
H468 C474 0.949 . S
C469 H464 0.950 . S
C469 C471 1.327 . S
C469 C475 1.429 . S
C470 C462 1.574 . S
C470 H465 0.949 . S
C470 C476 1.368 . S
C471 C455 1.349 . S
C471 H463 0.950 . S
C471 C469 1.327 . S
C472 C460 1.349 . S
C472 H466 0.950 . S
C472 C473 1.327 . S
C473 H467 0.950 . S
C473 C472 1.327 . S
C473 C477 1.429 . S
C474 C457 1.574 . S
C474 H468 0.949 . S
C474 C478 1.368 . S
C475 C456 1.429 . S
C475 C469 1.429 . S
C475 C476 1.523 . S
C476 C457 1.368 . S
C476 C470 1.368 . S
C476 C475 1.523 . S
C477 C461 1.429 . S
C477 C473 1.429 . S
C477 C478 1.523 . S
C478 C462 1.368 . S
C478 C474 1.368 . S
C478 C477 1.523 . S
H479 C454 0.950 . S
H480 C456 0.950 . S
H481 C457 0.949 . S
H482 C459 0.950 . S
H483 C461 0.950 . S
C484 C485 1.349 . S
C484 C486 1.327 . S
C484 H509 0.950 . S
C485 C484 1.349 . S
C485 C501 1.349 . S
C486 C484 1.327 . S
C486 C505 1.429 . S
C486 H510 0.950 . S
C487 C504 1.574 . S
C487 C506 1.368 1_655 S
C487 H511 0.949 . S
H488 C492 0.949 . S
C489 C490 1.349 . S
C489 C491 1.327 . S
C489 H512 0.950 . S
C490 C489 1.349 . S
C490 C502 1.349 . S
C491 C489 1.327 . S
C491 C507 1.429 . S
C491 H513 0.950 . S
C492 H488 0.949 . S
C492 C500 1.574 . S
C492 C508 1.368 1_455 S
H493 C501 0.950 . S
H494 C499 0.950 1_655 S
H495 C500 0.949 . S
H496 C502 0.950 . S
H497 C503 0.950 . S
H498 C504 0.949 . S
C499 H494 0.950 1_455 S
C499 C501 1.327 . S
C499 C505 1.429 . S
C500 C492 1.574 . S
C500 H495 0.949 . S
C500 C506 1.368 . S
C501 C485 1.349 . S
C501 H493 0.950 . S
C501 C499 1.327 . S
C502 C490 1.349 . S
C502 H496 0.950 . S
C502 C503 1.327 . S
C503 H497 0.950 . S
C503 C502 1.327 . S
C503 C507 1.429 . S
C504 C487 1.574 . S
C504 H498 0.949 . S
C504 C508 1.368 . S
C505 C486 1.429 . S
C505 C499 1.429 . S
C505 C506 1.523 . S
C506 C487 1.368 1_455 S
C506 C500 1.368 . S
C506 C505 1.523 . S
C507 C491 1.429 . S
C507 C503 1.429 . S
C507 C508 1.523 . S
C508 C492 1.368 1_655 S
C508 C504 1.368 . S
C508 C507 1.523 . S
H509 C484 0.950 . S
H510 C486 0.950 . S
H511 C487 0.949 . S
H512 C489 0.950 . S
H513 C491 0.950 . S
C514 C515 1.349 . S
C514 C516 1.327 . S
C514 H539 0.950 . S
C515 C514 1.349 . S
C515 C531 1.349 . S
C516 C514 1.327 . S
C516 C535 1.429 . S
C516 H540 0.950 . S
C517 C534 1.574 1_655 S
C517 C536 1.368 . S
C517 H541 0.949 . S
H518 C522 0.949 . S
C519 C520 1.349 . S
C519 C521 1.327 . S
C519 H542 0.950 . S
C520 C519 1.349 . S
C520 C532 1.349 . S
C521 C519 1.327 . S
C521 C537 1.429 . S
C521 H543 0.950 . S
C522 H518 0.949 . S
C522 C530 1.574 . S
C522 C538 1.368 1_655 S
H523 C531 0.950 . S
H524 C529 0.950 . S
H525 C530 0.949 . S
H526 C532 0.950 . S
H527 C533 0.950 . S
H528 C534 0.949 . S
C529 H524 0.950 . S
C529 C531 1.327 . S
C529 C535 1.429 . S
C530 C522 1.574 . S
C530 H525 0.949 . S
C530 C536 1.368 . S
C531 C515 1.349 . S
C531 H523 0.950 . S
C531 C529 1.327 . S
C532 C520 1.349 . S
C532 H526 0.950 . S
C532 C533 1.327 . S
C533 H527 0.950 . S
C533 C532 1.327 . S
C533 C537 1.429 . S
C534 C517 1.574 1_455 S
C534 H528 0.949 . S
C534 C538 1.368 . S
C535 C516 1.429 . S
C535 C529 1.429 . S
C535 C536 1.523 . S
C536 C517 1.368 . S
C536 C530 1.368 . S
C536 C535 1.523 . S
C537 C521 1.429 . S
C537 C533 1.429 . S
C537 C538 1.523 . S
C538 C522 1.368 1_455 S
C538 C534 1.368 . S
C538 C537 1.523 . S
H539 C514 0.950 . S
H540 C516 0.950 . S
H541 C517 0.949 . S
H542 C519 0.950 . S
H543 C521 0.950 . S
C544 C545 1.349 . S
C544 C546 1.327 . S
C544 H569 0.950 . S
C545 C544 1.349 . S
C545 C561 1.349 . S
C546 C544 1.327 . S
C546 C565 1.429 . S
C546 H570 0.950 . S
C547 C564 1.574 . S
C547 C566 1.368 1_655 S
C547 H571 0.949 . S
H548 C552 0.949 . S
C549 C550 1.349 . S
C549 C551 1.327 . S
C549 H572 0.950 . S
C550 C549 1.349 . S
C550 C562 1.349 . S
C551 C549 1.327 . S
C551 C567 1.429 . S
C551 H573 0.950 . S
C552 H548 0.949 . S
C552 C560 1.574 . S
C552 C568 1.368 1_455 S
H553 C561 0.950 . S
H554 C559 0.950 . S
H555 C560 0.949 . S
H556 C562 0.950 . S
H557 C563 0.950 . S
H558 C564 0.949 . S
C559 H554 0.950 . S
C559 C561 1.327 . S
C559 C565 1.429 . S
C560 C552 1.574 . S
C560 H555 0.949 . S
C560 C566 1.368 . S
C561 C545 1.349 . S
C561 H553 0.950 . S
C561 C559 1.327 . S
C562 C550 1.349 . S
C562 H556 0.950 . S
C562 C563 1.327 . S
C563 H557 0.950 . S
C563 C562 1.327 . S
C563 C567 1.429 . S
C564 C547 1.574 . S
C564 H558 0.949 . S
C564 C568 1.368 . S
C565 C546 1.429 . S
C565 C559 1.429 . S
C565 C566 1.523 . S
C566 C547 1.368 1_455 S
C566 C560 1.368 . S
C566 C565 1.523 . S
C567 C551 1.429 . S
C567 C563 1.429 . S
C567 C568 1.523 . S
C568 C552 1.368 1_655 S
C568 C564 1.368 . S
C568 C567 1.523 . S
H569 C544 0.950 . S
H570 C546 0.950 . S
H571 C547 0.949 . S
H572 C549 0.950 . S
H573 C551 0.950 . S
C574 C575 1.349 . S
C574 C576 1.327 . S
C574 H599 0.950 . S
C575 C574 1.349 . S
C575 C591 1.349 . S
C576 C574 1.327 . S
C576 C595 1.429 . S
C576 H600 0.950 . S
C577 C594 1.574 . S
C577 C596 1.368 1_655 S
C577 H601 0.949 . S
H578 C582 0.949 . S
C579 C580 1.349 . S
C579 C581 1.327 . S
C579 H602 0.950 . S
C580 C579 1.349 . S
C580 C592 1.349 . S
C581 C579 1.327 . S
C581 C597 1.429 . S
C581 H603 0.950 . S
C582 H578 0.949 . S
C582 C590 1.574 . S
C582 C598 1.368 1_455 S
H583 C591 0.950 . S
H584 C589 0.950 . S
H585 C590 0.949 . S
H586 C592 0.950 . S
H587 C593 0.949 . S
H588 C594 0.949 . S
C589 H584 0.950 . S
C589 C591 1.327 . S
C589 C595 1.429 . S
C590 C582 1.574 . S
C590 H585 0.949 . S
C590 C596 1.368 . S
C591 C575 1.349 . S
C591 H583 0.950 . S
C591 C589 1.327 . S
C592 C580 1.349 . S
C592 H586 0.950 . S
C592 C593 1.327 . S
C593 H587 0.949 . S
C593 C592 1.327 . S
C593 C597 1.429 . S
C594 C577 1.574 . S
C594 H588 0.949 . S
C594 C598 1.368 . S
C595 C576 1.429 . S
C595 C589 1.429 . S
C595 C596 1.523 . S
C596 C577 1.368 1_455 S
C596 C590 1.368 . S
C596 C595 1.523 . S
C597 C581 1.429 . S
C597 C593 1.429 . S
C597 C598 1.523 . S
C598 C582 1.368 1_655 S
C598 C594 1.368 . S
C598 C597 1.523 . S
H599 C574 0.950 . S
H600 C576 0.950 . S
H601 C577 0.949 . S
H602 C579 0.950 . S
H603 C581 0.950 . S
C125 C11 1.330 . S
C130 C18 1.325 . S
C155 C42 1.330 . S
C160 C49 1.325 . S
C185 C73 1.325 . S
C190 C80 1.325 . S
C215 C104 1.325 . S
C220 C111 1.325 . S
C245 C41 1.573 . S
C250 C2 1.573 1_554 S
C275 C103 1.573 . S
C280 C64 1.573 . S
C305 C10 1.573 . S
C310 C33 1.573 1_554 S
C335 C95 1.573 . S
C340 C72 1.573 . S
C365 C93 1.081 . S
C370 C1 1.088 . S
C395 C31 1.081 . S
C400 C63 1.088 . S
C425 C86 1.081 . S
C430 C58 1.088 . S
C455 C24 1.081 . S
C460 C120 1.088 . S
C485 C62 1.081 . S
C490 C32 1.088 . S
C515 C94 1.088 . S
C520 C0 1.081 . S
C545 C27 1.088 . S
C550 C117 1.081 . S
C575 C89 1.088 . S
C580 C55 1.081 . S
