# Generated by pormake.
# Topology smc, (6)-cn, num edge types: 1
# Building blocks:
#     Node 0, Type 0, BuildingBlock: KUMBUR_clean_sbu_1, # of connection points: 6
#     Node 1, Type 0, BuildingBlock: KUMBUR_clean_sbu_1, # of connection points: 6
#     Node 2, Type 0, BuildingBlock: KUMBUR_clean_sbu_1, # of connection points: 6
#     Node 3, Type 0, BuildingBlock: KUMBUR_clean_sbu_1, # of connection points: 6
#     Node 4, Type 0, BuildingBlock: KUMBUR_clean_sbu_1, # of connection points: 6
#     Node 5, Type 0, BuildingBlock: KUMBUR_clean_sbu_1, # of connection points: 6
#     Node 6, Type 0, BuildingBlock: KUMBUR_clean_sbu_1, # of connection points: 6
#     Node 7, Type 0, BuildingBlock: KUMBUR_clean_sbu_1, # of connection points: 6
#     Node 8, Type 0, BuildingBlock: KUMBUR_clean_sbu_1, # of connection points: 6
#     Edge 9, Type (0, 0), BuildingBlock: XUDNAN_clean_linker_2, # of connection points: 2
#     Edge 10, Type (0, 0), BuildingBlock: XUDNAN_clean_linker_2, # of connection points: 2
#     Edge 11, Type (0, 0), BuildingBlock: XUDNAN_clean_linker_2, # of connection points: 2
#     Edge 12, Type (0, 0), BuildingBlock: XUDNAN_clean_linker_2, # of connection points: 2
#     Edge 13, Type (0, 0), BuildingBlock: XUDNAN_clean_linker_2, # of connection points: 2
#     Edge 14, Type (0, 0), BuildingBlock: XUDNAN_clean_linker_2, # of connection points: 2
#     Edge 15, Type (0, 0), BuildingBlock: XUDNAN_clean_linker_2, # of connection points: 2
#     Edge 16, Type (0, 0), BuildingBlock: XUDNAN_clean_linker_2, # of connection points: 2
#     Edge 17, Type (0, 0), BuildingBlock: XUDNAN_clean_linker_2, # of connection points: 2
#     Edge 18, Type (0, 0), BuildingBlock: XUDNAN_clean_linker_2, # of connection points: 2
#     Edge 19, Type (0, 0), BuildingBlock: XUDNAN_clean_linker_2, # of connection points: 2
#     Edge 20, Type (0, 0), BuildingBlock: XUDNAN_clean_linker_2, # of connection points: 2
#     Edge 21, Type (0, 0), BuildingBlock: XUDNAN_clean_linker_2, # of connection points: 2
#     Edge 22, Type (0, 0), BuildingBlock: XUDNAN_clean_linker_2, # of connection points: 2
#     Edge 23, Type (0, 0), BuildingBlock: XUDNAN_clean_linker_2, # of connection points: 2
#     Edge 24, Type (0, 0), BuildingBlock: XUDNAN_clean_linker_2, # of connection points: 2
#     Edge 25, Type (0, 0), BuildingBlock: XUDNAN_clean_linker_2, # of connection points: 2
#     Edge 26, Type (0, 0), BuildingBlock: XUDNAN_clean_linker_2, # of connection points: 2
#     Edge 27, Type (0, 0), BuildingBlock: XUDNAN_clean_linker_2, # of connection points: 2
#     Edge 28, Type (0, 0), BuildingBlock: XUDNAN_clean_linker_2, # of connection points: 2
#     Edge 29, Type (0, 0), BuildingBlock: XUDNAN_clean_linker_2, # of connection points: 2
#     Edge 30, Type (0, 0), BuildingBlock: XUDNAN_clean_linker_2, # of connection points: 2
#     Edge 31, Type (0, 0), BuildingBlock: XUDNAN_clean_linker_2, # of connection points: 2
#     Edge 32, Type (0, 0), BuildingBlock: XUDNAN_clean_linker_2, # of connection points: 2
#     Edge 33, Type (0, 0), BuildingBlock: XUDNAN_clean_linker_2, # of connection points: 2
#     Edge 34, Type (0, 0), BuildingBlock: XUDNAN_clean_linker_2, # of connection points: 2
#     Edge 35, Type (0, 0), BuildingBlock: XUDNAN_clean_linker_2, # of connection points: 2
# Relax obj value: 0.165
# Max RMSD: 0.312
# Mean RMSD: 0.312
data_MOF--net-smc--node1-KUMBUR_clean_sbu_1--edge1-XUDNAN_clean_linker_2
_symmetry_space_group_name_H-M    P1
_symmetry_Int_Tables_number       1
_symmetry_cell_setting            triclinic
loop_
_symmetry_equiv_pos_as_xyz
'x, y, z'
_cell_length_a     37.964242
_cell_length_b     38.00096
_cell_length_c     40.099733
_cell_angle_alpha  89.800098
_cell_angle_beta   90.143581
_cell_angle_gamma 120.1436
loop_
_atom_site_label
_atom_site_type_symbol
_atom_site_fract_x
_atom_site_fract_y
_atom_site_fract_z
_atom_type_partial_charge
Tb0 Tb 0.06041 0.4277 1.00315 0.0
C1 C 0.03538 0.56588 0.05298 0.0
N2 N 0.02771 0.53107 0.06903 0.0
C3 C 0.06025 0.56982 0.11834 0.0
C4 C 0.05652 0.60406 0.06888 0.0
C5 C 0.03829 0.53257 0.10189 0.0
C6 C 0.06975 0.60577 0.1017 0.0
C7 C 0.02779 0.59834 1.00336 0.0
C8 C 0.02152 0.56324 0.0205 0.0
C9 C 0.04812 0.63621 0.01938 0.0
C10 C 0.06298 0.63917 0.05186 0.0
Tb11 Tb 0.9898 0.47239 0.03893 0.0
N12 N 1.00231 0.52614 1.00557 0.0
C13 C 1.01321 0.59427 0.97068 0.0
C14 C 0.98655 0.52174 0.97417 0.0
C15 C 0.99239 0.55578 0.95608 0.0
H16 H 0.0287 0.50539 0.11632 0.0
H17 H 0.98031 0.55224 0.93106 0.0
H18 H 0.07059 0.44866 0.92216 0.0
H19 H 1.01349 0.28868 0.07279 0.0
H20 H 0.96899 0.49204 0.96309 0.0
H21 H 1.0175 0.62057 0.95666 0.0
H22 H 0.03511 0.3609 0.06641 0.0
H23 H 0.0689 0.57066 0.14419 0.0
H24 H 0.05279 0.66348 1.00676 0.0
H25 H 0.07895 0.6687 0.06377 0.0
H26 H 0.06767 0.41242 0.87059 0.0
H27 H 0.08622 0.63453 0.11472 0.0
H28 H 1.00337 0.24647 0.02296 0.0
N29 N 0.05076 0.39651 0.95309 0.0
C30 C 0.03948 0.35649 0.9547 0.0
C31 C 0.05804 0.39594 0.89384 0.0
C32 C 0.03482 0.33403 0.92548 0.0
C33 C 0.06026 0.4165 0.92327 0.0
C34 C 0.04432 0.35433 0.89478 0.0
N35 N 0.04002 0.36108 1.01353 0.0
C36 C 0.03279 0.3437 0.04452 0.0
C37 C 0.02047 0.29631 0.9883 0.0
C38 C 0.03345 0.3381 0.9858 0.0
C39 C 1.01363 0.27855 0.02 0.0
C40 C 1.01956 0.30232 0.0482 0.0
H41 H 0.04204 0.33839 0.8718 0.0
H42 H 1.01799 0.27464 0.90565 0.0
H43 H 1.00463 0.24142 0.96063 0.0
O44 O 0.11231 0.41999 1.00619 0.0
O45 O 0.9954 0.38311 1.01442 0.0
O46 O 0.97389 0.41144 0.05523 0.0
O47 O 0.11579 0.4738 0.98482 0.0
O48 O 0.06157 0.43314 0.05645 0.0
O49 O 1.01898 0.45436 0.08044 0.0
O50 O 0.92949 0.45729 0.02611 0.0
O51 O 0.04356 0.50704 1.00834 0.0
O52 O 0.08385 0.48511 0.02982 0.0
O53 O 0.95478 0.48162 0.07499 0.0
O54 O 0.96966 0.43467 0.99283 0.0
O55 O 0.03116 0.45102 0.96978 0.0
C56 C 0.9686 0.38062 0.0369 0.0
C57 C 0.16821 0.46134 0.9687 0.0
C58 C 0.23853 0.47807 0.95727 0.0
C59 C 0.2328 0.48502 0.92369 0.0
C60 C 0.16412 0.46864 0.93494 0.0
C61 C 0.19591 0.47998 0.91268 0.0
C62 C 0.20597 0.46648 0.97999 0.0
C63 C 0.04657 0.44212 0.08252 0.0
C64 C 0.13602 0.45557 0.99266 0.0
C65 C 0.022 0.29243 0.92787 0.0
C66 C 1.01457 0.27356 0.95918 0.0
C67 C 0.07897 0.51471 0.01907 0.0
C68 C 0.88663 0.46972 0.06397 0.0
C69 C 0.83697 0.49214 0.05578 0.0
C70 C 0.82178 0.47804 0.08791 0.0
C71 C 0.87081 0.45591 0.09598 0.0
C72 C 0.86918 0.48737 0.04352 0.0
C73 C 0.83838 0.45977 0.10771 0.0
C74 C 0.99143 0.43394 0.96734 0.0
C75 C 0.9247 0.47088 0.05442 0.0
H76 H 0.25731 0.49515 0.90574 0.0
H77 H 0.1372 0.46794 0.92582 0.0
H78 H 0.19232 0.48603 0.88687 0.0
H79 H 0.21014 0.46215 1.00612 0.0
H80 H 0.79681 0.48105 0.09762 0.0
H81 H 0.88409 0.44277 0.11218 0.0
H82 H 0.88157 0.49878 0.01894 0.0
H83 H 0.82646 0.4491 0.13249 0.0
Tb84 Tb 0.61745 0.65605 1.0107 0.0
C85 C 0.47228 0.48917 0.04278 0.0
N86 N 0.5072 0.51308 0.05998 0.0
C87 C 0.46888 0.50114 0.1104 0.0
C88 C 0.43408 0.47072 0.05876 0.0
C89 C 0.50608 0.51846 0.09352 0.0
C90 C 0.43268 0.47728 0.09293 0.0
C91 C 0.43949 0.45869 0.99034 0.0
C92 C 0.47501 0.48404 1.00884 0.0
C93 C 0.40135 0.44013 1.00614 0.0
C94 C 0.39864 0.44626 0.04023 0.0
Tb95 Tb 0.56607 0.53675 0.03029 0.0
N96 N 0.51239 0.50361 0.99408 0.0
C97 C 0.44334 0.45248 0.95653 0.0
C98 C 0.51616 0.49609 0.96137 0.0
C99 C 0.4819 0.47104 0.94207 0.0
H100 H 0.53374 0.53559 0.10741 0.0
H101 H 0.48537 0.46555 0.91615 0.0
H102 H 0.60914 0.68397 0.93439 0.0
H103 H 0.74413 0.7112 0.09668 0.0
H104 H 0.54534 0.50775 0.95013 0.0
H105 H 0.41684 0.4331 0.9415 0.0
H106 H 0.67446 0.66498 0.07727 0.0
H107 H 0.46819 0.50581 0.13694 0.0
H108 H 0.37375 0.42094 0.99221 0.0
H109 H 0.369 0.43174 0.05207 0.0
H110 H 0.65123 0.74089 0.89616 0.0
H111 H 0.4039 0.46374 0.1061 0.0
H112 H 0.79259 0.76751 0.06035 0.0
N113 N 0.65579 0.70243 0.97102 0.0
C114 C 0.69474 0.7294 0.97955 0.0
C115 C 0.66384 0.73806 0.91957 0.0
C116 C 0.72009 0.76197 0.95831 0.0
C117 C 0.64021 0.70573 0.94119 0.0
C118 C 0.70391 0.76651 0.92828 0.0
N119 N 0.68249 0.69436 0.03046 0.0
C120 C 0.69477 0.68948 0.06134 0.0
C121 C 0.749 0.75242 0.02028 0.0
C122 C 0.7087 0.72505 1.01024 0.0
C123 C 0.76184 0.74719 0.05171 0.0
C124 C 0.73457 0.71553 0.07231 0.0
H125 H 0.72226 0.79138 0.91139 0.0
H126 H 0.78044 0.81437 0.95197 0.0
H127 H 0.80595 0.80572 1.00614 0.0
O128 O 0.61212 0.69754 0.04201 0.0
O129 O 0.66114 0.63283 1.00934 0.0
O130 O 0.63037 0.57563 0.043 0.0
O131 O 0.58419 0.68308 0.99349 0.0
O132 O 0.59114 0.63133 0.05987 0.0
O133 O 0.59655 0.5756 0.07435 0.0
O134 O 0.5673 0.48594 1.01144 0.0
O135 O 0.5308 0.56793 0.03382 0.0
O136 O 0.55907 0.60978 0.9903 0.0
O137 O 0.56065 0.49117 0.06401 0.0
O138 O 0.59834 0.55866 0.9809 0.0
O139 O 0.60529 0.62108 0.96499 0.0
C140 C 0.66048 0.60105 0.02382 0.0
C141 C 0.60202 0.74742 1.01453 0.0
C142 C 0.57993 0.79667 1.00439 0.0
C143 C 0.62082 0.8279 1.0036 0.0
C144 C 0.64276 0.77895 1.01371 0.0
C145 C 0.65204 0.81899 1.00808 0.0
C146 C 0.57062 0.75638 1.00967 0.0
C147 C 0.59903 0.61073 0.082 0.0
C148 C 0.59123 0.70494 0.02008 0.0
C149 C 0.76037 0.78926 0.96802 0.0
C150 C 0.77487 0.78436 0.99888 0.0
C151 C 0.52749 0.58867 1.00933 0.0
C152 C 0.5777 0.44154 0.04602 0.0
C153 C 0.5655 0.3722 0.04958 0.0
C154 C 0.60772 0.38762 0.04999 0.0
C155 C 0.61979 0.45668 0.04696 0.0
C156 C 0.55068 0.39933 0.0477 0.0
C157 C 0.6347 0.4297 0.04889 0.0
C158 C 0.60949 0.58925 0.95923 0.0
C159 C 0.56054 0.46806 0.04022 0.0
H160 H 0.62852 0.85919 0.99964 0.0
H161 H 0.6673 0.77273 0.01763 0.0
H162 H 0.6835 0.84324 1.00743 0.0
H163 H 0.53905 0.73216 1.01038 0.0
H164 H 0.61973 0.36714 0.05151 0.0
H165 H 0.64092 0.4891 0.04583 0.0
H166 H 0.51806 0.3875 0.04689 0.0
H167 H 0.66723 0.44142 0.04936 0.0
Tb168 Tb 0.38349 0.98454 1.01209 0.0
C169 C 0.55855 0.01539 0.04666 0.0
N170 N 0.53459 0.02637 0.06348 0.0
C171 C 0.56065 0.01799 0.11563 0.0
C172 C 0.58595 1.00697 0.06377 0.0
C173 C 0.53486 0.02736 0.09758 0.0
C174 C 0.58674 1.00833 0.09865 0.0
C175 C 0.57942 1.00045 0.99398 0.0
C176 C 0.55547 1.01252 1.01209 0.0
C177 C 0.60787 0.99355 1.01083 0.0
C178 C 0.6115 0.99733 0.04559 0.0
Tb179 Tb 0.50278 0.05077 0.03059 0.0
N180 N 0.52909 0.02153 0.99634 0.0
C181 C 0.57466 0.99643 0.95939 0.0
C182 C 0.5258 0.01929 0.96236 0.0
C183 C 0.5476 1.00572 0.94356 0.0
H184 H 0.51685 0.0373 0.11103 0.0
H185 H 0.54445 1.00367 0.9167 0.0
H186 H 0.35977 0.9676 0.93187 0.0
H187 H 0.32897 0.04172 0.1107 0.0
H188 H 0.5077 0.02893 0.94909 0.0
H189 H 0.59224 0.98688 0.94462 0.0
H190 H 0.36413 1.00767 0.08783 0.0
H191 H 0.56118 0.0193 0.14259 0.0
H192 H 0.62703 0.98497 0.99723 0.0
H193 H 0.63323 0.99139 0.05826 0.0
H194 H 0.32402 0.98689 0.89018 0.0
H195 H 0.60721 1.00179 0.1127 0.0
H196 H 0.2938 0.06572 0.07286 0.0
N197 N 0.34951 0.99783 0.97173 0.0
C198 C 0.32977 0.01725 0.98232 0.0
C199 C 0.32605 0.99625 0.9159 0.0
C200 C 0.30857 0.02837 0.95969 0.0
C201 C 0.34691 0.98607 0.93928 0.0
C202 C 0.30748 0.0182 0.92602 0.0
N203 N 0.35073 0.01376 0.03731 0.0
C204 C 0.34946 0.01832 0.07096 0.0
C205 C 0.30908 0.0443 0.02824 0.0
C206 C 0.32976 0.02487 0.01622 0.0
C207 C 0.30932 0.05084 0.06261 0.0
C208 C 0.32923 0.03741 0.08406 0.0
H209 H 0.29144 0.02612 0.90783 0.0
H210 H 0.27226 0.05747 0.95446 0.0
H211 H 0.27284 0.07156 1.0144 0.0
O212 O 0.35427 0.92831 0.03767 0.0
O213 O 0.4099 0.0515 0.01769 0.0
O214 O 0.46768 0.0762 0.05079 0.0
O215 O 0.32754 0.93798 0.99395 0.0
O216 O 0.40285 0.97789 0.0615 0.0
O217 O 0.46422 0.03548 0.07611 0.0
O218 O 0.55144 0.1002 1.00564 0.0
O219 O 0.47291 0.9844 0.03377 0.0
O220 O 0.42519 0.96513 0.99258 0.0
O221 O 0.55162 0.09518 0.05905 0.0
O222 O 0.47931 0.06476 0.98379 0.0
O223 O 0.42677 1.00121 0.97192 0.0
C224 C 0.43901 0.08006 0.03613 0.0
C225 C 0.32156 0.87418 0.99956 0.0
C226 C 0.28699 0.80042 0.99614 0.0
C227 C 0.30993 0.80364 0.96767 0.0
C228 C 0.34425 0.87689 0.97103 0.0
C229 C 0.33865 0.84175 0.95538 0.0
C230 C 0.29323 0.83583 1.01232 0.0
C231 C 0.43059 1.00073 0.08348 0.0
C232 C 0.32619 0.91131 1.01487 0.0
C233 C 0.28852 0.04844 0.97149 0.0
C234 C 0.28877 0.05638 1.00566 0.0
C235 C 0.44841 0.95739 1.01214 0.0
C236 C 0.60067 0.15853 0.03548 0.0
C237 C 0.67138 0.21436 0.03719 0.0
C238 C 0.65702 0.24186 0.04058 0.0
C239 C 0.58695 0.18626 0.03917 0.0
C240 C 0.64274 0.17258 0.03463 0.0
C241 C 0.61518 0.22784 0.04174 0.0
C242 C 0.45037 0.0393 0.96327 0.0
C243 C 0.57238 0.11463 0.03292 0.0
H244 H 0.30559 0.77661 0.95499 0.0
H245 H 0.3658 0.90616 0.96048 0.0
H246 H 0.35621 0.84407 0.93341 0.0
H247 H 0.27527 0.83355 0.03407 0.0
H248 H 0.67812 0.27419 0.04309 0.0
H249 H 0.55464 0.17573 0.0402 0.0
H250 H 0.65312 0.15087 0.03174 0.0
H251 H 0.60469 0.24935 0.04489 0.0
Tb252 Tb 0.72741 0.7583 0.34012 0.0
C253 C 0.70397 0.89702 0.37954 0.0
N254 N 0.69233 0.86078 0.39504 0.0
C255 C 0.71888 0.8958 0.44695 0.0
C256 C 0.7237 0.934 0.39729 0.0
C257 C 0.69829 0.85976 0.42866 0.0
C258 C 0.73178 0.93307 0.43121 0.0
C259 C 0.70592 0.93374 0.32914 0.0
C260 C 0.69578 0.89711 0.34566 0.0
C261 C 0.72453 0.97038 0.34706 0.0
C262 C 0.73403 0.97061 0.38085 0.0
Tb263 Tb 0.65552 0.80517 0.36156 0.0
N264 N 0.6782 0.86117 0.32885 0.0
C265 C 0.69669 0.93237 0.29517 0.0
C266 C 0.66782 0.85938 0.29601 0.0
C267 C 0.67758 0.89504 0.27854 0.0
H268 H 0.68612 0.8316 0.44225 0.0
H269 H 0.66974 0.89366 0.25242 0.0
H270 H 0.73171 0.75865 0.25723 0.0
H271 H 0.72412 0.64971 0.42925 0.0
H272 H 0.65157 0.83043 0.28344 0.0
H273 H 0.70395 0.95991 0.2816 0.0
H274 H 0.74183 0.71816 0.40954 0.0
H275 H 0.72383 0.8947 0.47343 0.0
H276 H 0.73194 0.99881 0.33495 0.0
H277 H 0.74887 0.99924 0.39418 0.0
H278 H 0.71729 0.70858 0.21277 0.0
H279 H 0.7471 0.96086 0.44564 0.0
H280 H 0.69495 0.59178 0.38994 0.0
N281 N 0.71452 0.71526 0.29653 0.0
C282 C 0.7036 0.67652 0.30493 0.0
C283 C 0.71271 0.69903 0.23858 0.0
C284 C 0.69417 0.64669 0.28032 0.0
C285 C 0.72082 0.72729 0.26392 0.0
C286 C 0.69827 0.6583 0.24675 0.0
N287 N 0.7185 0.69841 0.36068 0.0
C288 C 0.72712 0.69283 0.39263 0.0
C289 C 0.69612 0.62833 0.34795 0.0
C290 C 0.70516 0.66765 0.33822 0.0
C291 C 0.70157 0.62157 0.38141 0.0
C292 C 0.71795 0.65418 0.40369 0.0
H293 H 0.69166 0.63641 0.22703 0.0
H294 H 0.67495 0.58333 0.27147 0.0
H295 H 0.67618 0.56709 0.33082 0.0
O296 O 0.78331 0.75885 0.34466 0.0
O297 O 0.6613 0.71238 0.34581 0.0
O298 O 0.63479 0.74346 0.37933 0.0
O299 O 0.7771 0.8016 0.31263 0.0
O300 O 0.72611 0.76977 0.39365 0.0
O301 O 0.67037 0.77867 0.4061 0.0
O302 O 0.59763 0.79231 0.34331 0.0
O303 O 0.71395 0.83718 0.33583 0.0
O304 O 0.74958 0.81605 0.366 0.0
O305 O 0.62107 0.82313 0.38993 0.0
O306 O 0.63662 0.76594 0.31668 0.0
O307 O 0.69955 0.77757 0.30097 0.0
C308 C 0.63114 0.71157 0.36326 0.0
C309 C 0.83433 0.79367 0.30257 0.0
C310 C 0.90735 0.8186 0.29579 0.0
C311 C 0.90153 0.81639 0.26091 0.0
C312 C 0.82961 0.79133 0.26785 0.0
C313 C 0.86295 0.80216 0.24723 0.0
C314 C 0.87296 0.80634 0.31642 0.0
C315 C 0.70076 0.77221 0.41487 0.0
C316 C 0.80169 0.79001 0.3246 0.0
C317 C 0.68292 0.60686 0.28999 0.0
C318 C 0.68368 0.59763 0.32379 0.0
C319 C 0.74721 0.84554 0.35162 0.0
C320 C 0.55171 0.80019 0.3795 0.0
C321 C 0.49579 0.81477 0.38141 0.0
C322 C 0.47693 0.78424 0.40594 0.0
C323 C 0.5337 0.77206 0.40537 0.0
C324 C 0.53297 0.82178 0.36774 0.0
C325 C 0.49598 0.76345 0.41799 0.0
C326 C 0.66026 0.76131 0.29515 0.0
C327 C 0.59267 0.81193 0.36767 0.0
H328 H 0.92679 0.8268 0.24378 0.0
H329 H 0.80071 0.78289 0.25646 0.0
H330 H 0.85916 0.801 0.22042 0.0
H331 H 0.87609 0.80775 0.3433 0.0
H332 H 0.44772 0.77682 0.41636 0.0
H333 H 0.54934 0.75748 0.41606 0.0
H334 H 0.54856 0.84551 0.34924 0.0
H335 H 0.4818 0.7412 0.43772 0.0
Tb336 Tb 0.28628 0.99758 0.34494 0.0
C337 C 0.14722 0.83484 0.38278 0.0
N338 N 0.18337 0.86108 0.39772 0.0
C339 C 0.14749 0.85599 0.44861 0.0
C340 C 0.10991 0.81911 0.40005 0.0
C341 C 0.18374 0.86918 0.43104 0.0
C342 C 0.11034 0.83133 0.43291 0.0
C343 C 0.11156 0.79127 0.33564 0.0
C344 C 0.14771 0.82145 0.35071 0.0
C345 C 0.07455 0.77555 0.3529 0.0
C346 C 0.0736 0.79005 0.3847 0.0
Tb347 Tb 0.23999 0.8781 0.36536 0.0
N348 N 0.18397 0.8371 0.33468 0.0
C349 C 0.11388 0.77708 0.304 0.0
C350 C 0.18666 0.82267 0.30421 0.0
C351 C 0.15158 0.79296 0.28817 0.0
H352 H 0.21135 0.88376 0.44523 0.0
H353 H 0.15373 0.78179 0.26391 0.0
H354 H 0.27836 0.02596 0.26817 0.0
H355 H 0.41309 0.04886 0.43163 0.0
H356 H 0.21598 0.8337 0.29256 0.0
H357 H 0.08679 0.75366 0.2917 0.0
H358 H 0.34295 1.00402 0.41303 0.0
H359 H 0.14833 0.86345 0.47474 0.0
H360 H 0.04649 0.75186 0.342 0.0
H361 H 0.04478 0.77746 0.39773 0.0
H362 H 0.32276 0.08224 0.2304 0.0
H363 H 0.08234 0.82011 0.44694 0.0
H364 H 0.46236 0.10296 0.39423 0.0
N365 N 0.32513 0.04035 0.30407 0.0
C366 C 0.36454 0.0659 0.31306 0.0
C367 C 0.33501 0.07756 0.2533 0.0
C368 C 0.39136 0.09712 0.29129 0.0
C369 C 0.30993 0.04583 0.27482 0.0
C370 C 0.37609 0.1027 0.26115 0.0
N371 N 0.35045 0.03414 0.36659 0.0
C372 C 0.36304 0.02875 0.39719 0.0
C373 C 0.41853 0.08852 0.35445 0.0
C374 C 0.37762 0.06258 0.34497 0.0
C375 C 0.43113 0.08377 0.38614 0.0
C376 C 0.40335 0.05351 0.40744 0.0
H377 H 0.39558 0.12681 0.24405 0.0
H378 H 0.45309 0.14677 0.28426 0.0
H379 H 0.47713 0.13854 0.33908 0.0
O380 O 0.29331 0.05144 0.36509 0.0
O381 O 0.32964 0.97414 0.3448 0.0
O382 O 0.30037 0.92235 0.38313 0.0
O383 O 0.25071 0.02075 0.32457 0.0
O384 O 0.25325 0.97006 0.39099 0.0
O385 O 0.26473 0.92037 0.41017 0.0
O386 O 0.26465 0.84057 0.3518 0.0
O387 O 0.2092 0.89863 0.33094 0.0
O388 O 0.22363 0.9546 0.35929 0.0
O389 O 0.22046 0.82352 0.3911 0.0
O390 O 0.27356 0.90021 0.31686 0.0
O391 O 0.27323 0.9596 0.30003 0.0
C392 C 0.33057 0.94572 0.36333 0.0
C393 C 0.27383 0.09115 0.33246 0.0
C394 C 0.24781 0.13662 0.31962 0.0
C395 C 0.28723 0.16706 0.31065 0.0
C396 C 0.31328 0.12239 0.32451 0.0
C397 C 0.31979 0.15995 0.31319 0.0
C398 C 0.24112 0.09856 0.33034 0.0
C399 C 0.26364 0.95449 0.41543 0.0
C400 C 0.26608 0.05156 0.34519 0.0
C401 C 0.43202 0.12288 0.30081 0.0
C402 C 0.44564 0.11836 0.33214 0.0
C403 C 0.19861 0.9247 0.3403 0.0
C404 C 0.25019 0.78227 0.3861 0.0
C405 C 0.2322 0.71065 0.38954 0.0
C406 C 0.25607 0.72021 0.41877 0.0
C407 C 0.27287 0.79064 0.41542 0.0
C408 C 0.23029 0.74252 0.37302 0.0
C409 C 0.27646 0.75987 0.43129 0.0
C410 C 0.28099 0.92956 0.29464 0.0
C411 C 0.24028 0.81195 0.37215 0.0
H412 H 0.29287 0.1966 0.30231 0.0
H413 H 0.33914 0.11817 0.32753 0.0
H414 H 0.35026 0.18381 0.30686 0.0
H415 H 0.21068 0.07499 0.33734 0.0
H416 H 0.2579 0.69689 0.43291 0.0
H417 H 0.28668 0.82062 0.42647 0.0
H418 H 0.21214 0.73634 0.3506 0.0
H419 H 0.29399 0.76646 0.45408 0.0
Tb420 Tb 0.04844 0.32039 0.33735 0.0
C421 C 0.21843 0.34458 0.39002 0.0
N422 N 0.19338 0.35496 0.40578 0.0
C423 C 0.2144 0.34255 0.45892 0.0
C424 C 0.24348 0.3339 0.40829 0.0
C425 C 0.19113 0.35424 0.43983 0.0
C426 C 0.24094 0.33263 0.44311 0.0
C427 C 0.24559 0.33512 0.33833 0.0
C428 C 0.21965 0.34554 0.35542 0.0
C429 C 0.2714 0.3256 0.35645 0.0
C430 C 0.27059 0.32533 0.39135 0.0
Tb431 Tb 0.16416 0.38172 0.37232 0.0
N432 N 0.19637 0.35774 0.33863 0.0
C433 C 0.2458 0.33575 0.3035 0.0
C434 C 0.19882 0.36093 0.30468 0.0
C435 C 0.22226 0.34872 0.28662 0.0
H436 H 0.17281 0.36432 0.45261 0.0
H437 H 0.22339 0.35088 0.25968 0.0
H438 H 0.05158 0.29634 0.25913 0.0
H439 H 0.97009 0.38735 0.40015 0.0
H440 H 0.18465 0.37449 0.2911 0.0
H441 H 0.26493 0.32749 0.28947 0.0
H442 H 1.01743 0.36109 0.39649 0.0
H443 H 0.21266 0.34226 0.48587 0.0
H444 H 0.292 0.31824 0.34371 0.0
H445 H 0.29049 0.31764 0.40499 0.0
H446 H 1.01807 0.29624 0.20605 0.0
H447 H 0.25956 0.32437 0.458 0.0
H448 H 0.93443 0.39068 0.34957 0.0
N449 N 0.02281 0.32243 0.28688 0.0
C450 C 0.9965 0.33676 0.2867 0.0
C451 C 1.01167 0.3076 0.22859 0.0
C452 C 0.97586 0.33623 0.25737 0.0
C453 C 0.03084 0.30802 0.25852 0.0
C454 C 0.98374 0.32135 0.22807 0.0
N455 N 1.00839 0.34886 0.34445 0.0
C456 C 1.00122 0.36117 0.37446 0.0
C457 C 0.96174 0.3653 0.31737 0.0
C458 C 0.98912 0.35052 0.31642 0.0
C459 C 0.95503 0.37883 0.34785 0.0
C460 C 0.97492 0.3768 0.3765 0.0
H461 H 0.96867 0.32068 0.2049 0.0
H462 H 0.93226 0.35077 0.23584 0.0
H463 H 0.92035 0.37675 0.28825 0.0
O464 O 0.02523 0.2661 0.3654 0.0
O465 O 0.0729 0.38671 0.34429 0.0
O466 O 0.12248 0.40363 0.38429 0.0
O467 O 0.99315 0.26981 0.32248 0.0
O468 O 0.05534 0.32311 0.3906 0.0
O469 O 0.12006 0.35586 0.41482 0.0
O470 O 0.22129 0.43182 0.35765 0.0
O471 O 0.13154 0.31499 0.37144 0.0
O472 O 0.09411 0.30358 0.32392 0.0
O473 O 0.19931 0.4252 0.40861 0.0
O474 O 0.15127 0.40288 0.32385 0.0
O475 O 0.1006 0.34202 0.30532 0.0
C476 C 0.10171 0.4136 0.36408 0.0
C477 C 0.99058 0.20775 0.33135 0.0
C478 C 0.95428 0.13352 0.32888 0.0
C479 C 0.97931 0.13586 0.30218 0.0
C480 C 1.01493 0.20922 0.30451 0.0
C481 C 1.00955 0.17348 0.29024 0.0
C482 C 0.96041 0.16976 0.34376 0.0
C483 C 0.07959 0.33346 0.4166 0.0
C484 C 0.99514 0.24587 0.34468 0.0
C485 C 0.94828 0.35067 0.2582 0.0
C486 C 0.94155 0.36553 0.28804 0.0
C487 C 0.11248 0.29208 0.34565 0.0
C488 C 0.26681 0.4828 0.39796 0.0
C489 C 0.33982 0.53171 0.39228 0.0
C490 C 0.33747 0.55134 0.42127 0.0
C491 C 0.26587 0.50304 0.42681 0.0
C492 C 0.30406 0.4971 0.38062 0.0
C493 C 0.30084 0.53728 0.43813 0.0
C494 C 0.12383 0.3811 0.30092 0.0
C495 C 0.22923 0.44539 0.38803 0.0
H496 H 0.97552 0.10846 0.29057 0.0
H497 H 0.03766 0.23807 0.2942 0.0
H498 H 0.02855 0.17497 0.26958 0.0
H499 H 0.94104 0.16842 0.36412 0.0
H500 H 0.36432 0.57745 0.4314 0.0
H501 H 0.23799 0.49212 0.44091 0.0
H502 H 0.30526 0.48134 0.35856 0.0
H503 H 0.29968 0.55267 0.4604 0.0
Tb504 Tb 0.39527 0.09172 0.68107 0.0
C505 C 0.37394 0.23552 0.71457 0.0
N506 N 0.36069 0.19936 0.73067 0.0
C507 C 0.38478 0.23508 0.78271 0.0
C508 C 0.39363 0.27279 0.73196 0.0
C509 C 0.36418 0.19883 0.7647 0.0
C510 C 0.39992 0.27224 0.76625 0.0
C511 C 0.37746 0.27163 0.66344 0.0
C512 C 0.36664 0.2352 0.68057 0.0
C513 C 0.39668 0.30867 0.68084 0.0
C514 C 0.40544 0.30932 0.71483 0.0
Tb515 Tb 0.32599 0.143 0.69722 0.0
N516 N 0.34849 0.19893 0.66435 0.0
C517 C 0.36808 0.26964 0.62944 0.0
C518 C 0.33782 0.19655 0.63153 0.0
C519 C 0.34819 0.23194 0.61342 0.0
H520 H 0.35006 0.17096 0.77885 0.0
H521 H 0.34023 0.23007 0.5873 0.0
H522 H 0.41929 0.11123 0.60042 0.0
H523 H 0.35645 0.95982 0.75645 0.0
H524 H 0.32103 0.16729 0.61951 0.0
H525 H 0.37572 0.29697 0.6154 0.0
H526 H 0.38193 0.03278 0.74601 0.0
H527 H 0.38794 0.23427 0.80949 0.0
H528 H 0.40494 0.33704 0.66823 0.0
H529 H 0.42053 0.33819 0.72781 0.0
H530 H 0.41681 0.07216 0.55075 0.0
H531 H 0.4152 0.30024 0.78042 0.0
H532 H 0.34073 0.91305 0.70871 0.0
N533 N 0.39068 0.05914 0.63224 0.0
C534 C 0.37713 0.01872 0.63539 0.0
C535 C 0.40508 0.05669 0.57431 0.0
C536 C 0.37583 0.99537 0.6077 0.0
C537 C 0.40588 0.0786 0.60246 0.0
C538 C 0.39015 0.01496 0.57696 0.0
N539 N 0.37548 0.02624 0.69365 0.0
C540 C 0.37266 1.01214 0.72536 0.0
C541 C 0.35624 0.96018 0.67161 0.0
C542 C 0.36867 1.0016 0.66708 0.0
C543 C 0.3504 0.94475 0.70416 0.0
C544 C 0.35919 0.97102 0.73118 0.0
H545 H 0.39076 0.99833 0.55529 0.0
H546 H 0.36031 0.93515 0.59079 0.0
H547 H 0.34214 0.9041 0.64665 0.0
O548 O 0.44527 0.08573 0.6956 0.0
O549 O 0.32844 0.04737 0.68716 0.0
O550 O 0.30636 0.08381 0.71853 0.0
O551 O 0.45241 0.13253 0.66076 0.0
O552 O 0.39174 0.1015 0.73422 0.0
O553 O 0.34229 0.12049 0.74382 0.0
O554 O 0.26834 0.12512 0.67669 0.0
O555 O 0.38317 0.17383 0.6699 0.0
O556 O 0.41582 0.15175 0.70237 0.0
O557 O 0.28808 0.16004 0.72209 0.0
O558 O 0.30858 0.10283 0.65292 0.0
O559 O 0.37113 0.11184 0.64069 0.0
C560 C 0.29988 0.05019 0.70409 0.0
C561 C 0.50165 0.11252 0.65878 0.0
C562 C 0.57351 0.1393 0.64716 0.0
C563 C 0.56277 0.10777 0.62396 0.0
C564 C 0.4915 0.08063 0.63636 0.0
C565 C 0.52199 0.07867 0.61865 0.0
C566 C 0.54264 0.14191 0.66405 0.0
C567 C 0.37004 0.11082 0.75422 0.0
C568 C 0.47051 0.11635 0.67707 0.0
C569 C 0.36216 0.95373 0.61189 0.0
C570 C 0.35185 0.93606 0.64372 0.0
C571 C 0.41669 0.1806 0.68421 0.0
C572 C 0.21814 0.13015 0.7083 0.0
C573 C 0.16289 0.14508 0.71163 0.0
C574 C 0.13743 0.10566 0.72444 0.0
C575 C 0.19262 0.09099 0.72087 0.0
C576 C 0.2033 0.15695 0.70375 0.0
C577 C 0.15228 0.07885 0.72896 0.0
C578 C 0.33227 0.09521 0.63392 0.0
C579 C 0.2604 0.14477 0.69908 0.0
H580 H 0.58602 0.10524 0.61036 0.0
H581 H 0.4603 0.05716 0.63268 0.0
H582 H 0.51405 0.05418 0.60114 0.0
H583 H 0.55049 0.16592 0.68213 0.0
H584 H 0.10595 0.09538 0.73055 0.0
H585 H 0.20384 0.07007 0.72433 0.0
H586 H 0.22358 0.1874 0.69434 0.0
H587 H 0.13242 0.04854 0.73865 0.0
Tb588 Tb 0.95589 0.32722 0.6801 0.0
C589 C 0.82129 0.13994 0.7157 0.0
N590 N 0.85082 0.17133 0.73331 0.0
C591 C 0.81023 0.14714 0.78294 0.0
C592 C 0.78532 0.1101 0.73134 0.0
C593 C 0.84578 0.17543 0.76653 0.0
C594 C 0.78004 0.11405 0.76537 0.0
C595 C 0.79591 0.10689 0.66242 0.0
C596 C 0.8268 0.13838 0.68165 0.0
C597 C 0.76065 0.07632 0.67808 0.0
C598 C 0.75551 0.07773 0.71249 0.0
Tb599 Tb 0.91106 0.2072 0.7059 0.0
N600 N 0.86168 0.16832 0.66737 0.0
C601 C 0.80108 0.10717 0.62796 0.0
C602 C 0.86734 0.16717 0.63376 0.0
C603 C 0.83685 0.13758 0.61359 0.0
H604 H 0.86951 0.19955 0.78083 0.0
H605 H 0.84168 0.13739 0.587 0.0
H606 H 0.94107 0.33165 0.59936 0.0
H607 H 0.08866 0.406 0.75913 0.0
H608 H 0.89559 0.18701 0.6219 0.0
H609 H 0.77785 0.08384 0.61229 0.0
H610 H 1.0154 0.36169 0.74779 0.0
H611 H 0.80654 0.15041 0.8093 0.0
H612 H 0.73684 0.05179 0.66368 0.0
H613 H 0.7278 0.05436 0.72411 0.0
H614 H 0.98387 0.36545 0.54979 0.0
H615 H 0.75269 0.0919 0.77822 0.0
H616 H 0.13703 0.43801 0.71236 0.0
N617 N 0.99142 0.35483 0.63259 0.0
C618 C 0.03226 0.37929 0.63679 0.0
C619 C 0.99782 0.36939 0.57409 0.0
C620 C 0.05772 0.39932 0.60942 0.0
C621 C 0.97376 0.35 0.60201 0.0
C622 C 0.03993 0.39422 0.57782 0.0
N623 N 0.02233 0.36745 0.695 0.0
C624 C 0.0361 0.37536 0.72716 0.0
C625 C 0.09022 0.41181 0.67435 0.0
C626 C 0.04821 0.38605 0.66897 0.0
C627 C 0.10488 0.41848 0.70718 0.0
C628 C 0.07766 0.40047 0.73367 0.0
H629 H 0.05841 0.40954 0.55617 0.0
H630 H 0.12001 0.43972 0.59378 0.0
H631 H 0.1485 0.45024 0.65052 0.0
O632 O 0.92369 0.35277 0.70299 0.0
O633 O 1.00083 0.30662 0.68692 0.0
O634 O 0.97122 0.25243 0.72348 0.0
O635 O 0.96345 0.38241 0.66179 0.0
O636 O 0.9439 0.31497 0.73279 0.0
O637 O 0.92699 0.24877 0.74928 0.0
O638 O 0.91856 0.15753 0.69194 0.0
O639 O 0.8681 0.22965 0.70647 0.0
O640 O 0.89382 0.27998 0.66648 0.0
O641 O 0.91544 0.17098 0.74404 0.0
O642 O 0.94753 0.23062 0.65923 0.0
O643 O 0.92877 0.27706 0.64539 0.0
C644 C 1.00232 0.279 0.70597 0.0
C645 C 0.9051 0.38762 0.66384 0.0
C646 C 0.87322 0.42801 0.65068 0.0
C647 C 0.84894 0.39894 0.6267 0.0
C648 C 0.88185 0.36011 0.6386 0.0
C649 C 0.85322 0.36522 0.62078 0.0
C650 C 0.90085 0.42185 0.66985 0.0
C651 C 0.93482 0.28651 0.7554 0.0
C652 C 0.9363 0.38228 0.68128 0.0
C653 C 0.09981 0.42442 0.61458 0.0
C654 C 0.11604 0.43047 0.64693 0.0
C655 C 0.86498 0.25644 0.68774 0.0
C656 C 0.91821 0.10944 0.73261 0.0
C657 C 0.89314 0.03622 0.72859 0.0
C658 C 0.91327 0.0384 0.75863 0.0
C659 C 0.93626 0.11003 0.76329 0.0
C660 C 0.89675 0.07229 0.71499 0.0
C661 C 0.93483 0.07508 0.77568 0.0
C662 C 0.94813 0.2577 0.63811 0.0
C663 C 0.91555 0.14551 0.72272 0.0
H664 H 0.82733 0.403 0.61187 0.0
H665 H 0.88556 0.33436 0.63288 0.0
H666 H 0.83489 0.34341 0.60182 0.0
H667 H 0.92009 0.44433 0.68813 0.0
H668 H 0.91176 1.0114 0.76922 0.0
H669 H 0.95056 0.1374 0.77823 0.0
H670 H 0.88078 0.07092 0.69215 0.0
H671 H 0.9494 0.07613 0.79919 0.0
Tb672 Tb 0.71649 0.64999 0.66997 0.0
C673 C 0.88172 0.67492 0.70807 0.0
N674 N 0.85756 0.68496 0.72586 0.0
C675 C 0.86993 0.65738 0.77554 0.0
C676 C 0.90067 0.65529 0.7234 0.0
C677 C 0.85207 0.67719 0.75937 0.0
C678 C 0.89431 0.64636 0.75751 0.0
C679 C 0.91251 0.67505 0.65527 0.0
C680 C 0.88733 0.68464 0.67442 0.0
C681 C 0.93133 0.65529 0.67034 0.0
C682 C 0.92568 0.64574 0.70437 0.0
Tb683 Tb 0.83286 0.72046 0.69776 0.0
N684 N 0.86869 0.70399 0.66068 0.0
C685 C 0.91872 0.68629 0.62168 0.0
C686 C 0.87773 0.71796 0.62852 0.0
C687 C 0.90166 0.70826 0.60838 0.0
H688 H 0.83465 0.68695 0.77388 0.0
H689 H 0.90789 0.71881 0.58281 0.0
H690 H 0.69662 0.63117 0.58944 0.0
H691 H 0.65508 0.70648 0.76351 0.0
H692 H 0.86842 0.73813 0.61814 0.0
H693 H 0.93771 0.67934 0.60611 0.0
H694 H 0.69441 0.67573 0.74333 0.0
H695 H 0.86539 0.65119 0.80203 0.0
H696 H 0.95076 0.64774 0.65599 0.0
H697 H 0.94101 0.63118 0.71574 0.0
H698 H 0.65806 0.64395 0.54601 0.0
H699 H 0.90839 0.63134 0.7702 0.0
H700 H 0.61624 0.72387 0.72367 0.0
N701 N 0.68101 0.6589 0.62804 0.0
C702 C 0.6584 0.67587 0.63693 0.0
C703 C 0.65832 0.65359 0.57142 0.0
C704 C 0.63559 0.68342 0.61314 0.0
C705 C 0.68063 0.64695 0.59593 0.0
C706 C 0.63613 0.67242 0.57995 0.0
N707 N 0.67984 0.67695 0.69225 0.0
C708 C 0.67826 0.68347 0.72554 0.0
C709 C 0.63413 0.70221 0.68067 0.0
C710 C 0.65747 0.68489 0.6702 0.0
C711 C 0.63372 0.71048 0.7146 0.0
C712 C 0.65566 0.70077 0.73715 0.0
H713 H 0.61894 0.6776 0.5609 0.0
H714 H 0.59497 0.70728 0.60539 0.0
H715 H 0.59382 0.72391 0.66453 0.0
O716 O 0.67652 0.5982 0.69844 0.0
O717 O 0.74095 0.7172 0.67142 0.0
O718 O 0.78866 0.73794 0.71299 0.0
O719 O 0.67855 0.59587 0.64477 0.0
O720 O 0.73343 0.64204 0.72009 0.0
O721 O 0.789 0.70106 0.74047 0.0
O722 O 0.88252 0.77799 0.68382 0.0
O723 O 0.80433 0.6538 0.70026 0.0
O724 O 0.76267 0.6344 0.65513 0.0
O725 O 0.87302 0.75965 0.73462 0.0
O726 O 0.81325 0.73277 0.6474 0.0
O727 O 0.76444 0.66836 0.63324 0.0
C728 C 0.76614 0.74517 0.69269 0.0
C729 C 0.61857 0.54593 0.67022 0.0
C730 C 0.56591 0.47454 0.672 0.0
C731 C 0.53846 0.48453 0.65726 0.0
C732 C 0.59083 0.55577 0.65599 0.0
C733 C 0.5508 0.52507 0.6497 0.0
C734 C 0.60582 0.50546 0.67877 0.0
C735 C 0.75578 0.66479 0.74495 0.0
C736 C 0.66211 0.57561 0.6719 0.0
C737 C 0.61259 0.7011 0.62332 0.0
C738 C 0.61189 0.71051 0.65701 0.0
C739 C 0.78573 0.62828 0.676 0.0
C740 C 0.94168 0.79577 0.71604 0.0
C741 C 1.0148 0.84064 0.70629 0.0
C742 C 0.02173 0.80937 0.71673 0.0
C743 C 0.95067 0.76708 0.72973 0.0
C744 C 0.97444 0.83355 0.7052 0.0
C745 C 0.98989 0.77303 0.72881 0.0
C746 C 0.78856 0.70633 0.62465 0.0
C747 C 0.89845 0.78592 0.71344 0.0
H748 H 0.5075 0.46101 0.6518 0.0
H749 H 0.6004 0.58682 0.6489 0.0
H750 H 0.52951 0.53259 0.63836 0.0
H751 H 0.62746 0.49774 0.68926 0.0
H752 H 0.05243 0.81433 0.71808 0.0
H753 H 0.92776 0.74031 0.74205 0.0
H754 H 0.96882 0.85748 0.69697 0.0
H755 H 0.99586 0.75002 0.73878 0.0
H756 H 0.46213 0.586 0.04157 0.0
H757 H 0.5 0.56004 0.94734 0.0
H758 H 0.42821 0.52098 0.92928 0.0
H759 H 0.36533 0.49848 0.05427 0.0
H760 H 0.33936 0.5253 0.0658 0.0
H761 H 0.39334 0.54815 0.07298 0.0
H762 H 0.40574 0.61151 0.03884 0.0
H763 H 0.3517 0.58845 0.03191 0.0
H764 H 0.38615 0.60494 0.99695 0.0
H765 H 0.35362 0.47403 0.9269 0.0
H766 H 0.28024 0.44893 0.92408 0.0
H767 H 0.28915 0.51993 1.01168 0.0
C768 C 0.45508 0.57234 0.01702 0.0
C769 C 0.48617 0.5743 0.99626 0.0
C770 C 0.47642 0.55784 0.96382 0.0
C771 C 0.43578 0.53536 0.95352 0.0
C772 C 0.40558 0.53157 0.97533 0.0
C773 C 0.41469 0.55196 1.00531 0.0
C774 C 0.3765 0.54871 0.02075 0.0
C775 C 0.36818 0.52898 0.05551 0.0
C776 C 0.38023 0.5909 0.02219 0.0
C777 C 0.34429 0.52116 0.99556 0.0
C778 C 0.36211 0.51063 0.97044 0.0
C779 C 0.33939 0.48343 0.94547 0.0
C780 C 0.29768 0.46922 0.94421 0.0
C781 C 0.27912 0.4837 0.96673 0.0
C782 C 0.30242 0.50864 0.99382 0.0
H783 H 0.47641 0.92266 0.05609 0.0
H784 H 0.43747 0.91565 0.95341 0.0
H785 H 0.45788 0.86432 0.94192 0.0
H786 H 0.56448 0.91681 0.04159 0.0
H787 H 0.55767 0.88794 0.07892 0.0
H788 H 0.53654 0.92086 0.07653 0.0
H789 H 0.4664 0.85646 0.0916 0.0
H790 H 0.48893 0.82451 0.09041 0.0
H791 H 0.44574 0.81297 0.06429 0.0
H792 H 0.49248 0.8218 0.94002 0.0
H793 H 0.53729 0.79229 0.94813 0.0
H794 H 0.55203 0.82664 0.05213 0.0
C795 C 0.4713 0.90962 0.03135 0.0
C796 C 0.45495 0.92276 1.00569 0.0
C797 C 0.44916 0.9054 0.97358 0.0
C798 C 0.46084 0.87636 0.96684 0.0
C799 C 0.47767 0.86466 0.99261 0.0
C800 C 0.48245 0.88053 0.02435 0.0
C801 C 0.50337 0.86492 0.04729 0.0
C802 C 0.54284 0.89984 0.06199 0.0
C803 C 0.47436 0.8381 0.07503 0.0
C804 C 0.51233 0.84009 0.02301 0.0
C805 C 0.49653 0.83948 0.99172 0.0
C806 C 0.50428 0.82149 0.96455 0.0
C807 C 0.52974 0.80489 0.96929 0.0
C808 C 0.54745 0.80698 1.0008 0.0
C809 C 0.53795 0.82398 0.02803 0.0
H810 H 0.22377 0.74241 0.96054 0.0
H811 H 0.28053 0.7675 0.0581 0.0
H812 H 0.23157 0.69674 0.07583 0.0
H813 H 0.12255 0.68144 0.98931 0.0
H814 H 0.10461 0.64421 0.95619 0.0
H815 H 0.14407 0.6959 0.94833 0.0
H816 H 0.19493 0.67572 0.92785 0.0
H817 H 0.15604 0.6231 0.93192 0.0
H818 H 0.20453 0.64153 0.95233 0.0
H819 H 0.18184 0.62103 0.07989 0.0
H820 H 0.12886 0.54852 0.07277 0.0
H821 H 0.1011 0.57569 0.97443 0.0
C822 C 0.2256 0.73297 0.9857 0.0
C823 C 0.2558 0.75988 1.008 0.0
C824 C 0.25732 0.74701 0.04083 0.0
C825 C 0.22986 0.707 0.05098 0.0
C826 C 0.20087 0.68082 0.02809 0.0
C827 C 0.19823 0.69351 0.9963 0.0
C828 C 0.16431 0.65973 0.97645 0.0
C829 C 0.13186 0.67088 0.96702 0.0
C830 C 0.18097 0.64942 0.94531 0.0
C831 C 0.14864 0.6257 1.00183 0.0
C832 C 0.17048 0.63822 0.0313 0.0
C833 C 0.16403 0.61104 0.0572 0.0
C834 C 0.13432 0.57001 0.05286 0.0
C835 C 0.11119 0.55711 0.02317 0.0
C836 C 0.11824 0.58526 0.99751 0.0
H837 H 0.46172 0.14122 0.99093 0.0
H838 H 0.42543 0.10794 0.09367 0.0
H839 H 0.44674 0.17948 0.10668 0.0
H840 H 0.54979 0.2281 1.00495 0.0
H841 H 0.54699 0.25808 0.97139 0.0
H842 H 0.5204 0.2035 0.96822 0.0
H843 H 0.45283 0.20314 0.95813 0.0
H844 H 0.47963 0.25778 0.96101 0.0
H845 H 0.43627 0.22756 0.98743 0.0
H846 H 0.4804 0.25515 0.11039 0.0
H847 H 0.52449 0.32987 0.10455 0.0
H848 H 0.54288 0.31521 1.00013 0.0
C849 C 0.45638 0.14888 0.01565 0.0
C850 C 0.44071 0.11916 0.04113 0.0
C851 C 0.43619 0.13027 0.07373 0.0
C852 C 0.44839 0.17081 0.08131 0.0
C853 C 0.46523 0.19987 0.05599 0.0
C854 C 0.46881 0.18943 0.02365 0.0
C855 C 0.49182 0.22718 1.002 0.0
C856 C 0.52947 0.22929 0.98569 0.0
C857 C 0.46344 0.22905 0.97559 0.0
C858 C 0.50347 0.26032 0.02781 0.0
C859 C 0.48651 0.2439 0.05849 0.0
C860 C 0.49346 0.26835 0.08641 0.0
C861 C 0.51855 0.31063 0.08295 0.0
C862 C 0.53696 0.32788 0.05202 0.0
C863 C 0.52905 0.30249 0.02404 0.0
H864 H 0.7317 0.28143 1.00497 0.0
H865 H 0.71227 0.18148 0.06957 0.0
H866 H 0.78675 0.20929 0.07259 0.0
H867 H 0.82091 0.28987 0.96056 0.0
H868 H 0.84546 0.34451 0.95807 0.0
H869 H 0.79064 0.31419 0.95814 0.0
H870 H 0.78767 0.35464 1.0091 0.0
H871 H 0.84229 0.38512 1.00888 0.0
H872 H 0.81622 0.3581 0.04617 0.0
H873 H 0.86512 0.25217 0.07194 0.0
H874 H 0.93814 0.30624 0.068 0.0
H875 H 0.90358 0.37725 1.00562 0.0
C876 C 0.74303 0.26521 0.01961 0.0
C877 C 0.71603 0.22929 0.03708 0.0
C878 C 0.73225 0.20881 0.05565 0.0
C879 C 0.77457 0.22444 0.05758 0.0
C880 C 0.80036 0.26038 0.04053 0.0
C881 C 0.78504 0.2803 0.02171 0.0
C882 C 0.81893 0.31933 1.00695 0.0
C883 C 0.81897 0.31681 0.96866 0.0
C884 C 0.8161 0.35646 0.01849 0.0
C885 C 0.85563 0.31932 0.02169 0.0
C886 C 0.84469 0.28477 0.04038 0.0
C887 C 0.87396 0.27909 0.05697 0.0
C888 C 0.91529 0.30976 0.05459 0.0
C889 C 0.92661 0.3456 0.0361 0.0
C890 C 0.89625 0.35008 0.0195 0.0
H891 H 0.8466 0.56822 0.06215 0.0
H892 H 0.78032 0.45545 1.00738 0.0
H893 H 0.734 0.47795 0.98521 0.0
H894 H 0.76868 0.57671 0.08938 0.0
H895 H 0.78927 0.63064 0.08362 0.0
H896 H 0.82307 0.61083 0.08897 0.0
H897 H 0.85895 0.64387 0.03321 0.0
H898 H 0.82544 0.66431 0.02787 0.0
H899 H 0.82908 0.63332 0.9957 0.0
H900 H 0.68784 0.5052 0.97885 0.0
H901 H 0.64553 0.53576 0.98631 0.0
H902 H 0.74117 0.63435 0.04326 0.0
C903 C 0.82355 0.54936 0.04413 0.0
C904 C 0.81748 0.51053 0.03569 0.0
C905 C 0.78609 0.48571 1.01324 0.0
C906 C 0.75962 0.49826 1.00065 0.0
C907 C 0.7655 0.53615 1.01024 0.0
C908 C 0.79723 0.56187 0.03087 0.0
C909 C 0.79423 0.59926 0.03969 0.0
C910 C 0.79375 0.60462 0.07767 0.0
C911 C 0.829 0.63746 0.02315 0.0
C912 C 0.75365 0.58842 0.02381 0.0
C913 C 0.73853 0.55254 1.006 0.0
C914 C 0.70008 0.53406 0.9916 0.0
C915 C 0.67611 0.55204 0.99595 0.0
C916 C 0.69034 0.58847 1.01439 0.0
C917 C 0.73006 0.60734 0.02803 0.0
H918 H 0.97346 0.81754 0.26806 0.0
H919 H 0.938 0.85898 0.35611 0.0
H920 H 1.00762 0.88782 0.37801 0.0
H921 H 0.04026 0.79329 0.30056 0.0
H922 H 0.07961 0.81636 0.2691 0.0
H923 H 0.02731 0.79865 0.25864 0.0
H924 H 0.04261 0.86782 0.23681 0.0
H925 H 0.09599 0.88671 0.24416 0.0
H926 H 0.07169 0.91268 0.26183 0.0
H927 H 0.08276 0.91558 0.38901 0.0
H928 H 0.15632 0.93858 0.38846 0.0
H929 H 0.14262 0.88214 0.29183 0.0
C930 C 0.9799 0.83317 0.29169 0.0
C931 C 0.9493 0.83539 0.31012 0.0
C932 C 0.95995 0.85547 0.34152 0.0
C933 C 0.99978 0.87258 0.35411 0.0
C934 C 0.02903 0.87035 0.33477 0.0
C935 C 1.01962 0.85173 0.304 0.0
C936 C 0.05686 0.85548 0.28701 0.0
C937 C 0.05076 0.81345 0.27841 0.0
C938 C 0.0674 0.88227 0.2556 0.0
C939 C 0.08846 0.8769 0.314 0.0
C940 C 0.07202 0.88615 0.34103 0.0
C941 C 0.0959 0.90838 0.36805 0.0
C942 C 0.13767 0.92159 0.36739 0.0
C943 C 0.15497 0.91207 0.34008 0.0
C944 C 0.12998 0.88943 0.31312 0.0
H945 H 0.13857 0.25168 0.38667 0.0
H946 H 0.10999 0.26168 0.28344 0.0
H947 H 0.131 0.21253 0.26711 0.0
H948 H 0.22789 0.24562 0.37281 0.0
H949 H 0.21617 0.21055 0.40664 0.0
H950 H 0.19661 0.24489 0.40718 0.0
H951 H 0.12465 0.17901 0.4144 0.0
H952 H 0.14647 0.14671 0.40962 0.0
H953 H 0.10624 0.14089 0.38214 0.0
H954 H 0.16483 0.17165 0.26047 0.0
H955 H 0.20958 0.14186 0.26435 0.0
H956 H 0.21413 0.15517 0.37166 0.0
C957 C 0.13601 0.24287 0.36073 0.0
C958 C 0.12202 0.26007 0.33639 0.0
C959 C 0.11969 0.24828 0.30265 0.0
C960 C 0.13167 0.22041 0.2931 0.0
C961 C 0.14556 0.20422 0.3176 0.0
C962 C 0.1476 0.21478 0.35078 0.0
C963 C 0.16579 0.19454 0.3718 0.0
C964 C 0.20384 0.22589 0.39077 0.0
C965 C 0.13387 0.16342 0.39591 0.0
C966 C 0.17668 0.17374 0.34485 0.0
C967 C 0.16383 0.17894 0.31385 0.0
C968 C 0.17424 0.16653 0.28463 0.0
C969 C 0.19965 0.14974 0.28699 0.0
C970 C 0.21438 0.14569 0.31828 0.0
C971 C 0.20196 0.15681 0.34761 0.0
H972 H 0.89725 0.07212 0.29059 0.0
H973 H 0.93838 0.10342 0.3928 0.0
H974 H 0.88887 0.03279 0.4104 0.0
H975 H 0.79295 1.00813 0.30823 0.0
H976 H 0.78276 0.96984 0.27714 0.0
H977 H 0.82179 0.02193 0.27032 0.0
H978 H 0.87734 1.00404 0.26181 0.0
H979 H 0.83951 0.95098 0.26558 0.0
H980 H 0.8841 0.97251 0.29185 0.0
H981 H 0.84069 0.95621 0.41504 0.0
H982 H 0.79008 0.88289 0.40801 0.0
H983 H 0.7768 0.90409 0.30372 0.0
C984 C 0.89559 0.06416 0.31673 0.0
C985 C 0.9217 0.093 0.34037 0.0
C986 C 0.91842 0.08171 0.37439 0.0
C987 C 0.89064 0.04167 0.38452 0.0
C988 C 0.86609 1.01363 0.36035 0.0
C989 C 0.86793 0.02462 0.32723 0.0
C990 C 0.83846 0.98901 0.30604 0.0
C991 C 0.80702 0.99763 0.28949 0.0
C992 C 0.86123 0.97853 0.27978 0.0
C993 C 0.81952 0.95608 0.3324 0.0
C994 C 0.83652 0.97057 0.36346 0.0
C995 C 0.82667 0.94473 0.39099 0.0
C996 C 0.79834 0.90317 0.38674 0.0
C997 C 0.77962 0.88826 0.35544 0.0
C998 C 0.79042 0.91504 0.32801 0.0
H999 H 0.25076 0.64932 0.3955 0.0
H1000 H 0.15681 0.67244 0.35787 0.0
H1001 H 0.11444 0.59984 0.34347 0.0
H1002 H 0.23592 0.56952 0.33868 0.0
H1003 H 0.24306 0.54017 0.37052 0.0
H1004 H 0.2685 0.59474 0.37388 0.0
H1005 H 0.23733 0.58829 0.43182 0.0
H1006 H 0.20947 0.53362 0.42976 0.0
H1007 H 0.18274 0.56071 0.43688 0.0
H1008 H 0.08038 0.52175 0.33556 0.0
H1009 H 0.05842 0.44816 0.33773 0.0
H1010 H 0.17227 0.47808 0.3864 0.0
C1011 C 0.22135 0.63953 0.38424 0.0
C1012 C 0.20762 0.66732 0.37791 0.0
C1013 C 0.1689 0.65246 0.36251 0.0
C1014 C 0.14428 0.61098 0.35441 0.0
C1015 C 0.15844 0.58441 0.36205 0.0
C1016 C 0.19613 0.59832 0.37672 0.0
C1017 C 0.20323 0.56364 0.38529 0.0
C1018 C 0.23985 0.56725 0.36595 0.0
C1019 C 0.20855 0.56148 0.42317 0.0
C1020 C 0.16365 0.52788 0.37332 0.0
C1021 C 0.13823 0.54018 0.35949 0.0
C1022 C 0.10008 0.51191 0.34655 0.0
C1023 C 0.08775 0.47017 0.34797 0.0
C1024 C 0.11321 0.45716 0.3628 0.0
C1025 C 0.15162 0.4867 0.37544 0.0
H1026 H 0.39313 0.61076 0.37939 0.0
H1027 H 0.37907 0.49099 0.36962 0.0
H1028 H 0.4527 0.52281 0.35549 0.0
H1029 H 0.47519 0.67169 0.32193 0.0
H1030 H 0.4992 0.71238 0.35172 0.0
H1031 H 0.44474 0.67977 0.35199 0.0
H1032 H 0.44978 0.66695 0.41347 0.0
H1033 H 0.50437 0.69077 0.41649 0.0
H1034 H 0.4735 0.63827 0.4264 0.0
H1035 H 0.53327 0.57222 0.34813 0.0
H1036 H 0.60524 0.62953 0.35042 0.0
H1037 H 0.56128 0.71215 0.37359 0.0
C1038 C 0.40503 0.59099 0.37314 0.0
C1039 C 0.38026 0.54844 0.37553 0.0
C1040 C 0.39736 0.52379 0.36756 0.0
C1041 C 0.43928 0.54169 0.3597 0.0
C1042 C 0.46356 0.58418 0.36007 0.0
C1043 C 0.44645 0.60816 0.36652 0.0
C1044 C 0.47836 0.65172 0.37267 0.0
C1045 C 0.47411 0.68059 0.34813 0.0
C1046 C 0.47631 0.66268 0.40931 0.0
C1047 C 0.51642 0.64983 0.36634 0.0
C1048 C 0.50803 0.61085 0.35923 0.0
C1049 C 0.53976 0.60277 0.3536 0.0
C1050 C 0.58058 0.63542 0.35506 0.0
C1051 C 0.58917 0.67545 0.36247 0.0
C1052 C 0.55629 0.68209 0.36818 0.0
H1053 H 0.35892 0.91572 0.41145 0.0
H1054 H 0.37665 0.95396 0.30794 0.0
H1055 H 0.42416 0.92756 0.30096 0.0
H1056 H 0.46579 0.94132 0.42615 0.0
H1057 H 0.45015 0.89876 0.45409 0.0
H1058 H 0.4203 0.92344 0.45085 0.0
H1059 H 0.35733 0.8543 0.43752 0.0
H1060 H 0.38648 0.829 0.4392 0.0
H1061 H 0.35808 0.82535 0.40204 0.0
H1062 H 0.46382 0.88885 0.30463 0.0
H1063 H 0.49546 0.84765 0.31951 0.0
H1064 H 0.45536 0.84096 0.42182 0.0
C1065 C 0.37351 0.91937 0.38749 0.0
C1066 C 0.36422 0.93691 0.36023 0.0
C1067 C 0.38371 0.94098 0.32923 0.0
C1068 C 0.41055 0.92587 0.32503 0.0
C1069 C 0.41828 0.90774 0.35232 0.0
C1070 C 0.40093 0.90537 0.38314 0.0
C1071 C 0.41363 0.8843 0.40851 0.0
C1072 C 0.43899 0.91372 0.43655 0.0
C1073 C 0.37661 0.84594 0.42261 0.0
C1074 C 0.43935 0.87349 0.38697 0.0
C1075 C 0.44195 0.88724 0.35464 0.0
C1076 C 0.46242 0.87855 0.33004 0.0
C1077 C 0.4804 0.85513 0.33878 0.0
C1078 C 0.47778 0.84055 0.37186 0.0
C1079 C 0.45743 0.85069 0.39615 0.0
H1080 H 0.79582 0.18424 0.68033 0.0
H1081 H 0.83888 0.31254 0.68793 0.0
H1082 H 0.76841 0.29898 0.67793 0.0
H1083 H 0.7201 0.15492 0.61989 0.0
H1084 H 0.6864 0.10776 0.64093 0.0
H1085 H 0.74051 0.13119 0.64625 0.0
H1086 H 0.7302 0.1325 0.71241 0.0
H1087 H 0.67638 0.1069 0.70395 0.0
H1088 H 0.70054 0.1538 0.72722 0.0
H1089 H 0.68973 0.26744 0.66577 0.0
H1090 H 0.61568 0.22335 0.65376 0.0
H1091 H 0.62865 0.11665 0.66095 0.0
C1092 C 0.7908 0.20952 0.68013 0.0
C1093 C 0.82328 0.24958 0.68316 0.0
C1094 C 0.81484 0.28186 0.68315 0.0
C1095 C 0.77472 0.2742 0.67838 0.0
C1096 C 0.74338 0.23384 0.67494 0.0
C1097 C 0.7513 0.20217 0.67645 0.0
C1098 C 0.71318 0.16133 0.67347 0.0
C1099 C 0.71515 0.13738 0.64336 0.0
C1100 C 0.70448 0.13712 0.70616 0.0
C1101 C 0.68248 0.17452 0.66809 0.0
C1102 C 0.69976 0.21633 0.66949 0.0
C1103 C 0.67616 0.2347 0.66477 0.0
C1104 C 0.63424 0.20952 0.65802 0.0
C1105 C 0.61684 0.1667 0.65577 0.0
C1106 C 0.6413 0.14933 0.66163 0.0
H1107 H 0.84779 0.45736 0.70283 0.0
H1108 H 0.89307 0.48288 0.60134 0.0
H1109 H 0.8776 0.53852 0.5978 0.0
H1110 H 0.76503 0.47228 0.68972 0.0
H1111 H 0.7682 0.49658 0.72903 0.0
H1112 H 0.78681 0.46151 0.72559 0.0
H1113 H 0.85587 0.516 0.74806 0.0
H1114 H 0.8397 0.55314 0.75057 0.0
H1115 H 0.88425 0.56383 0.72675 0.0
H1116 H 0.84602 0.58156 0.60107 0.0
H1117 H 0.81278 0.62122 0.61529 0.0
H1118 H 0.79352 0.57433 0.71637 0.0
C1119 C 0.85566 0.47569 0.68038 0.0
C1120 C 0.87171 0.46612 0.65231 0.0
C1121 C 0.88085 0.48999 0.62303 0.0
C1122 C 0.87205 0.52149 0.62076 0.0
C1123 C 0.85445 0.52905 0.64815 0.0
C1124 C 0.84721 0.50766 0.67775 0.0
C1125 C 0.82643 0.5212 0.70279 0.0
C1126 C 0.78411 0.48577 0.71233 0.0
C1127 C 0.85315 0.5397 0.73388 0.0
C1128 C 0.82286 0.55306 0.68239 0.0
C1129 C 0.83845 0.55633 0.65071 0.0
C1130 C 0.83456 0.58008 0.62602 0.0
C1131 C 0.81517 0.60201 0.63413 0.0
C1132 C 0.80091 0.60081 0.66684 0.0
C1133 C 0.80469 0.57597 0.69126 0.0
H1134 H 0.53883 0.41125 0.6284 0.0
H1135 H 0.56398 0.44204 0.73298 0.0
H1136 H 0.536 0.36919 0.74689 0.0
H1137 H 0.45245 0.33276 0.6316 0.0
H1138 H 0.45393 0.29557 0.60463 0.0
H1139 H 0.48702 0.34908 0.59733 0.0
H1140 H 0.5531 0.3494 0.60163 0.0
H1141 H 0.52366 0.29459 0.60327 0.0
H1142 H 0.5614 0.32232 0.63483 0.0
H1143 H 0.5 0.29293 0.74975 0.0
H1144 H 0.4546 0.21881 0.74185 0.0
H1145 H 0.45006 0.23801 0.63572 0.0
C1146 C 0.53914 0.40253 0.6541 0.0
C1147 C 0.55311 0.43178 0.67976 0.0
C1148 C 0.55332 0.41977 0.71312 0.0
C1149 C 0.53777 0.37862 0.72116 0.0
C1150 C 0.52332 0.35024 0.69537 0.0
C1151 C 0.52471 0.36175 0.6624 0.0
C1152 C 0.50519 0.32504 0.63964 0.0
C1153 C 0.4726 0.32545 0.61705 0.0
C1154 C 0.53778 0.32272 0.61861 0.0
C1155 C 0.48777 0.29119 0.6654 0.0
C1156 C 0.50084 0.30624 0.69717 0.0
C1157 C 0.48994 0.28073 0.72498 0.0
C1158 C 0.4644 0.23875 0.72029 0.0
C1159 C 0.44909 0.22315 0.68824 0.0
C1160 C 0.46147 0.24956 0.66045 0.0
H1161 H 0.757 0.79501 0.73754 0.0
H1162 H 0.80788 0.79438 0.6423 0.0
H1163 H 0.83516 0.86777 0.63561 0.0
H1164 H 0.73688 0.88135 0.72022 0.0
H1165 H 0.75333 0.90225 0.76136 0.0
H1166 H 0.72967 0.84809 0.7549 0.0
H1167 H 0.79228 0.84868 0.78146 0.0
H1168 H 0.8161 0.90265 0.78796 0.0
H1169 H 0.8423 0.88221 0.76468 0.0
H1170 H 0.86402 0.94287 0.64252 0.0
H1171 H 0.89733 1.01328 0.66457 0.0
H1172 H 0.83294 0.96724 0.75799 0.0
C1173 C 0.77232 0.81027 0.71471 0.0
C1174 C 0.77724 0.78831 0.68854 0.0
C1175 C 0.79999 0.80974 0.66032 0.0
C1176 C 0.81651 0.85181 0.65698 0.0
C1177 C 0.81084 0.87271 0.68284 0.0
C1178 C 0.78955 0.85274 0.71137 0.0
C1179 C 0.79266 0.88312 0.73731 0.0
C1180 C 0.75063 0.87842 0.74384 0.0
C1181 C 0.812 0.87891 0.76975 0.0
C1182 C 0.82053 0.92301 0.71956 0.0
C1183 C 0.82979 0.91636 0.68779 0.0
C1184 C 0.85659 0.94851 0.66724 0.0
C1185 C 0.87528 0.98841 0.67984 0.0
C1186 C 0.86768 0.99564 0.71289 0.0
C1187 C 0.83915 0.96253 0.73256 0.0
H1188 H 0.07467 0.87136 0.65807 0.0
H1189 H 0.03817 0.89966 0.75187 0.0
H1190 H 0.10881 0.95457 0.76163 0.0
H1191 H 0.16662 0.88471 0.67882 0.0
H1192 H 0.19528 0.91204 0.64245 0.0
H1193 H 0.14104 0.87864 0.63949 0.0
H1194 H 0.13296 0.93728 0.61618 0.0
H1195 H 0.18699 0.97238 0.61944 0.0
H1196 H 0.15166 0.98366 0.63969 0.0
H1197 H 0.18346 0.99325 0.76753 0.0
H1198 H 0.25761 0.03404 0.76119 0.0
H1199 H 0.24786 0.98905 0.66029 0.0
C1200 C 0.08131 0.89067 0.67971 0.0
C1201 C 0.05099 0.88178 0.70411 0.0
C1202 C 0.06078 0.9067 0.73263 0.0
C1203 C 0.10093 0.93748 0.73861 0.0
C1204 C 0.13063 0.94368 0.71526 0.0
C1205 C 0.1212 0.92266 0.68552 0.0
C1206 C 0.15942 0.9365 0.66461 0.0
C1207 C 0.16594 0.90082 0.65584 0.0
C1208 C 0.15764 0.95872 0.63309 0.0
C1209 C 0.19197 0.96588 0.68853 0.0
C1210 C 0.17434 0.96911 0.71762 0.0
C1211 C 0.19756 0.992 0.74448 0.0
C1212 C 0.23978 0.01461 0.74074 0.0
C1213 C 0.25866 0.01509 0.71011 0.0
C1214 C 0.2345 0.9892 0.684 0.0
H1215 H 0.11436 0.15878 0.75353 0.0
H1216 H 0.17717 0.19682 0.6586 0.0
H1217 H 0.15063 0.24384 0.65036 0.0
H1218 H 0.02406 0.15505 0.72893 0.0
H1219 H 1.01832 0.17403 0.76857 0.0
H1220 H 0.0455 0.14684 0.76637 0.0
H1221 H 0.10604 0.2095 0.7955 0.0
H1222 H 0.07795 0.23618 0.79533 0.0
H1223 H 0.12752 0.25896 0.77618 0.0
H1224 H 0.11338 0.28442 0.65157 0.0
H1225 H 0.06383 0.30804 0.65936 0.0
H1226 H 0.0228 0.23879 0.75136 0.0
C1227 C 0.12262 0.17702 0.73101 0.0
C1228 C 0.14775 0.17402 0.70674 0.0
C1229 C 0.15827 0.19889 0.67778 0.0
C1230 C 0.1434 0.22575 0.67289 0.0
C1231 C 0.11838 0.2277 0.69731 0.0
C1232 C 0.10815 0.2039 0.72577 0.0
C1233 C 0.07879 0.20946 0.74727 0.0
C1234 C 0.0393 0.16882 0.753 0.0
C1235 C 0.09879 0.22973 0.78054 0.0
C1236 C 0.07185 0.238 0.72557 0.0
C1237 C 0.096 0.24948 0.69738 0.0
C1238 C 0.09426 0.27544 0.67354 0.0
C1239 C 0.06592 0.28857 0.67806 0.0
C1240 C 0.0387 0.27429 0.70542 0.0
C1241 C 0.04293 0.24995 0.72998 0.0
H1242 H 0.09477 0.43212 0.28065 0.0
H1243 H 0.14679 0.36034 0.24489 0.0
H1244 H 0.13638 0.3742 0.1875 0.0
H1245 H 1.01405 0.40209 0.21647 0.0
H1246 H 0.02151 0.45232 0.2167 0.0
H1247 H 0.03428 0.43337 0.25335 0.0
H1248 H 0.10598 0.50222 0.24521 0.0
H1249 H 0.0906 0.51221 0.20531 0.0
H1250 H 0.13524 0.50723 0.20832 0.0
H1251 H 0.1207 0.39219 0.13604 0.0
H1252 H 0.09487 0.40866 0.08819 0.0
H1253 H 0.04066 0.46282 0.1509 0.0
C1254 C 0.10532 0.42087 0.26051 0.0
C1255 C 0.12409 0.39718 0.26728 0.0
C1256 C 0.13507 0.38067 0.24051 0.0
C1257 C 0.12861 0.38788 0.20768 0.0
C1258 C 0.11021 0.41102 0.20171 0.0
C1259 C 0.09829 0.42727 0.22693 0.0
C1260 C 0.07747 0.44954 0.21199 0.0
C1261 C 0.03432 0.43333 0.22563 0.0
C1262 C 0.10389 0.49554 0.21808 0.0
C1263 C 0.07661 0.43972 0.1749 0.0
C1264 C 0.09741 0.41897 0.17029 0.0
C1265 C 0.10349 0.40759 0.13929 0.0
C1266 C 0.08751 0.41682 0.1119 0.0
C1267 C 0.06312 0.43558 0.11478 0.0
C1268 C 0.05803 0.44771 0.14721 0.0
H1269 H 0.66439 0.77847 0.2274 0.0
H1270 H 0.61533 0.67851 0.29783 0.0
H1271 H 0.59632 0.62969 0.25211 0.0
H1272 H 0.58025 0.72088 0.16588 0.0
H1273 H 0.61301 0.74428 0.13042 0.0
H1274 H 0.62308 0.77187 0.16904 0.0
H1275 H 0.69648 0.78298 0.16989 0.0
H1276 H 0.68599 0.75577 0.13107 0.0
H1277 H 0.70337 0.73952 0.1665 0.0
H1278 H 0.59389 0.59252 0.19859 0.0
H1279 H 0.58927 0.56782 0.14088 0.0
H1280 H 0.62661 0.68894 0.10374 0.0
C1281 C 0.64886 0.74625 0.23305 0.0
C1282 C 0.64182 0.7325 0.2666 0.0
C1283 C 0.62121 0.69006 0.2728 0.0
C1284 C 0.6104 0.66189 0.24675 0.0
C1285 C 0.61905 0.67633 0.21413 0.0
C1286 C 0.63625 0.71738 0.20702 0.0
C1287 C 0.63953 0.72427 0.16948 0.0
C1288 C 0.61234 0.74133 0.15803 0.0
C1289 C 0.68398 0.7523 0.15865 0.0
C1290 C 0.62324 0.68104 0.15693 0.0
C1291 C 0.61252 0.65399 0.18311 0.0
C1292 C 0.60053 0.61313 0.17779 0.0
C1293 C 0.59785 0.59926 0.1448 0.0
C1294 C 0.60553 0.6257 0.11733 0.0
C1295 C 0.61897 0.66733 0.12387 0.0
H1296 H 0.42853 0.04198 0.13935 0.0
H1297 H 0.40264 0.92369 0.10448 0.0
H1298 H 0.36403 0.89182 0.15595 0.0
H1299 H 0.4344 0.02361 0.23124 0.0
H1300 H 0.40863 0.0508 0.2421 0.0
H1301 H 0.4405 0.06537 0.20556 0.0
H1302 H 0.38094 0.05803 0.17051 0.0
H1303 H 0.3451 0.03886 0.2043 0.0
H1304 H 0.33491 1.00921 0.16731 0.0
H1305 H 0.32097 0.87163 0.20941 0.0
H1306 H 0.28111 0.86659 0.26001 0.0
H1307 H 0.33515 0.99738 0.25928 0.0
C1308 C 0.41681 1.00981 0.1435 0.0
C1309 C 0.41957 0.98554 0.11827 0.0
C1310 C 0.40162 0.94302 0.12381 0.0
C1311 C 0.37939 0.92454 0.15295 0.0
C1312 C 0.37541 0.94892 0.17672 0.0
C1313 C 0.39435 0.99075 0.17258 0.0
C1314 C 0.38156 1.00943 0.19983 0.0
C1315 C 0.41847 0.03909 0.22091 0.0
C1316 C 0.35942 0.03019 0.18457 0.0
C1317 C 0.35255 0.97187 0.21982 0.0
C1318 C 0.34938 0.93716 0.20627 0.0
C1319 C 0.32354 0.89884 0.22029 0.0
C1320 C 0.30081 0.89619 0.24903 0.0
C1321 C 0.3035 0.93154 0.2633 0.0
C1322 C 0.33031 0.96965 0.2484 0.0
H1323 H 0.46225 0.11319 0.93611 0.0
H1324 H 0.43018 0.98985 0.91003 0.0
H1325 H 0.39815 0.99483 0.85836 0.0
H1326 H 0.37982 0.11833 0.90097 0.0
H1327 H 0.40953 0.16801 0.88224 0.0
H1328 H 0.42864 0.15417 0.91818 0.0
H1329 H 0.49449 0.17226 0.88496 0.0
H1330 H 0.47449 0.18511 0.84907 0.0
H1331 H 0.4899 0.14748 0.84561 0.0
H1332 H 0.35099 1.00581 0.82088 0.0
H1333 H 0.32858 0.03395 0.77549 0.0
H1334 H 0.41054 0.15611 0.81111 0.0
C1335 C 0.44955 0.08774 0.91906 0.0
C1336 C 0.4464 0.05011 0.9282 0.0
C1337 C 0.43128 0.0183 0.90439 0.0
C1338 C 0.41266 0.02063 0.87502 0.0
C1339 C 0.41187 0.05614 0.86857 0.0
C1340 C 0.43297 0.09039 0.88808 0.0
C1341 C 0.43206 0.1263 0.87178 0.0
C1342 C 0.41126 0.14272 0.89464 0.0
C1343 C 0.47531 0.15978 0.86228 0.0
C1344 C 0.406 0.10615 0.84097 0.0
C1345 C 0.39264 0.06503 0.84125 0.0
C1346 C 0.36314 0.03832 0.81908 0.0
C1347 C 0.35017 0.05455 0.7937 0.0
C1348 C 0.36907 0.09707 0.78894 0.0
C1349 C 0.39606 0.1234 0.8138 0.0
H1350 H 0.98975 0.45054 0.90057 0.0
H1351 H 0.9479 0.35031 0.9706 0.0
H1352 H 0.92937 0.30234 0.92486 0.0
H1353 H 0.9016 0.38693 0.84296 0.0
H1354 H 0.93042 0.41145 0.80593 0.0
H1355 H 0.94141 0.43957 0.84436 0.0
H1356 H 1.01879 0.45673 0.84324 0.0
H1357 H 1.00482 0.43349 0.80269 0.0
H1358 H 0.02735 0.41555 0.8323 0.0
H1359 H 0.92666 0.26638 0.8715 0.0
H1360 H 0.92351 0.24268 0.81375 0.0
H1361 H 0.95404 0.36262 0.77733 0.0
C1362 C 0.97581 0.41839 0.90615 0.0
C1363 C 0.97114 0.40464 0.93957 0.0
C1364 C 0.95244 0.36227 0.94577 0.0
C1365 C 0.94178 0.33439 0.91966 0.0
C1366 C 0.94826 0.34895 0.88715 0.0
C1367 C 0.96322 0.38971 0.88014 0.0
C1368 C 0.96357 0.39639 0.84273 0.0
C1369 C 0.93238 0.40934 0.83345 0.0
C1370 C 1.00619 0.42743 0.82966 0.0
C1371 C 0.95005 0.3538 0.83019 0.0
C1372 C 0.94148 0.32691 0.85619 0.0
C1373 C 0.93179 0.28674 0.85079 0.0
C1374 C 0.92995 0.27346 0.81781 0.0
C1375 C 0.93711 0.30007 0.79058 0.0
C1376 C 0.94743 0.34086 0.79724 0.0
H1377 H 0.76661 0.70192 0.80813 0.0
H1378 H 0.70716 0.58464 0.75835 0.0
H1379 H 0.66717 0.55238 0.80828 0.0
H1380 H 0.76616 0.65234 0.89288 0.0
H1381 H 0.75969 0.6894 0.91578 0.0
H1382 H 0.7882 0.70366 0.87733 0.0
H1383 H 0.74058 0.72812 0.85236 0.0
H1384 H 0.71508 0.71528 0.89179 0.0
H1385 H 0.68607 0.6942 0.85409 0.0
H1386 H 0.62815 0.53245 0.86145 0.0
H1387 H 0.5945 0.52691 0.915 0.0
H1388 H 0.67728 0.65536 0.93277 0.0
C1389 C 0.74612 0.66933 0.80814 0.0
C1390 C 0.73981 0.64634 0.77867 0.0
C1391 C 0.71235 0.60357 0.78002 0.0
C1392 C 0.6894 0.58456 0.80852 0.0
C1393 C 0.6948 0.60808 0.83651 0.0
C1394 C 0.7232 0.64926 0.83706 0.0
C1395 C 0.72205 0.6669 0.87077 0.0
C1396 C 0.76137 0.6788 0.89034 0.0
C1397 C 0.71543 0.70328 0.86685 0.0
C1398 C 0.68567 0.6305 0.88719 0.0
C1399 C 0.67165 0.59647 0.86745 0.0
C1400 C 0.63889 0.55895 0.87721 0.0
C1401 C 0.61956 0.55612 0.90781 0.0
C1402 C 0.63186 0.59089 0.92795 0.0
C1403 C 0.66604 0.6284 0.91755 0.0
H1404 H 0.74171 0.81694 0.47143 0.0
H1405 H 0.6656 0.69434 0.43431 0.0
H1406 H 0.68911 0.66768 0.48018 0.0
H1407 H 0.82389 0.81125 0.50314 0.0
H1408 H 0.82944 0.83696 0.54216 0.0
H1409 H 0.80715 0.84788 0.50674 0.0
H1410 H 0.7422 0.82933 0.54088 0.0
H1411 H 0.76495 0.81968 0.57669 0.0
H1412 H 0.71576 0.78084 0.56193 0.0
H1413 H 0.73538 0.65807 0.52027 0.0
H1414 H 0.76843 0.6555 0.57217 0.0
H1415 H 0.80268 0.78071 0.59239 0.0
C1416 C 0.72874 0.78436 0.47385 0.0
C1417 C 0.70231 0.75761 0.44892 0.0
C1418 C 0.68599 0.71525 0.45298 0.0
C1419 C 0.6997 0.69991 0.47864 0.0
C1420 C 0.72808 0.72717 0.50129 0.0
C1421 C 0.74005 0.76801 0.50083 0.0
C1422 C 0.76701 0.78936 0.53096 0.0
C1423 C 0.80939 0.82339 0.52008 0.0
C1424 C 0.74625 0.80577 0.55399 0.0
C1425 C 0.76942 0.75436 0.54743 0.0
C1426 C 0.74826 0.71943 0.52878 0.0
C1427 C 0.74996 0.68457 0.5362 0.0
C1428 C 0.76926 0.68364 0.56578 0.0
C1429 C 0.78483 0.7164 0.58881 0.0
C1430 C 0.78788 0.75351 0.57788 0.0
H1431 H 0.25313 0.9293 0.4845 0.0
H1432 H 0.298 0.03509 0.42008 0.0
H1433 H 0.31755 0.07948 0.46756 0.0
H1434 H 0.21058 0.97663 0.54593 0.0
H1435 H 0.21923 0.95132 0.58047 0.0
H1436 H 0.20762 0.92826 0.5398 0.0
H1437 H 0.27031 0.92231 0.54773 0.0
H1438 H 0.28938 0.9532 0.58461 0.0
H1439 H 0.31967 0.96673 0.54687 0.0
H1440 H 0.33574 0.11455 0.51982 0.0
H1441 H 0.34891 0.13908 0.57774 0.0
H1442 H 0.28907 0.01441 0.61333 0.0
C1443 C 0.26701 0.96168 0.48035 0.0
C1444 C 0.27487 0.97831 0.44751 0.0
C1445 C 0.29202 0.02102 0.44412 0.0
C1446 C 0.30335 0.04695 0.4713 0.0
C1447 C 0.29549 0.03009 0.50281 0.0
C1448 C 0.27665 0.98853 0.50791 0.0
C1449 C 0.26981 0.97959 0.54525 0.0
C1450 C 0.22407 0.95769 0.55332 0.0
C1451 C 0.28852 0.95407 0.55695 0.0
C1452 C 0.29144 0.02284 0.55974 0.0
C1453 C 0.30475 0.0511 0.5343 0.0
C1454 C 0.32497 0.09289 0.54018 0.0
C1455 C 0.33205 0.10662 0.57312 0.0
C1456 C 0.31879 0.07881 0.59992 0.0
C1457 C 0.29822 0.03625 0.59322 0.0
H1458 H 0.02438 0.27582 0.61347 0.0
H1459 H 0.9026 0.2464 0.58395 0.0
H1460 H 0.92469 0.26121 0.5257 0.0
H1461 H 0.08312 0.36077 0.5562 0.0
H1462 H 0.11978 0.34524 0.54908 0.0
H1463 H 0.09171 0.33189 0.58771 0.0
H1464 H 0.07242 0.25668 0.57262 0.0
H1465 H 0.09714 0.27279 0.53259 0.0
H1466 H 0.04411 0.23425 0.53489 0.0
H1467 H 0.95715 0.28076 0.47331 0.0
H1468 H 0.99859 0.30368 0.42443 0.0
H1469 H 0.10583 0.32848 0.48268 0.0
C1470 C 1.00249 0.2719 0.59453 0.0
C1471 C 0.9616 0.25975 0.60317 0.0
C1472 C 0.93375 0.25517 0.57783 0.0
C1473 C 0.94612 0.26376 0.5447 0.0
C1474 C 0.98664 0.27705 0.53708 0.0
C1475 C 1.01468 0.28095 0.56083 0.0
C1476 C 0.05645 0.2962 0.54453 0.0
C1477 C 0.08964 0.33583 0.56043 0.0
C1478 C 0.06822 0.263 0.54626 0.0
C1479 C 0.04763 0.30301 0.50854 0.0
C1480 C 1.00672 0.29043 0.50541 0.0
C1481 C 0.98937 0.29135 0.47543 0.0
C1482 C 1.01404 0.3054 0.44751 0.0
C1483 C 0.05674 0.32018 0.44906 0.0
C1484 C 0.07382 0.31872 0.48039 0.0
loop_
_geom_bond_atom_site_label_1
_geom_bond_atom_site_label_2
_geom_bond_distance
_geom_bond_site_symmetry_2
_ccdc_geom_bond_type
Tb0 N29 2.617 . S
Tb0 N35 2.572 1_556 S
Tb0 O44 2.465 1_556 S
Tb0 O45 2.387 1_455 S
Tb0 O47 2.428 . S
Tb0 O48 2.308 1_556 S
Tb0 O52 2.349 . S
Tb0 O55 2.393 . S
Tb0 C64 2.802 . S
C1 N2 1.379 1_455 S
C1 C4 1.416 . S
C1 C8 1.424 . S
N2 C1 1.379 1_655 S
N2 C5 1.334 1_655 S
N2 Tb11 2.617 . S
C3 C5 1.390 . S
C3 C6 1.339 . S
C3 H23 0.930 . S
C4 C1 1.416 . S
C4 C6 1.416 . S
C4 C10 1.448 . S
C5 N2 1.334 1_455 S
C5 C3 1.390 . S
C5 H16 0.930 1_455 S
C6 C3 1.339 . S
C6 C4 1.416 . S
C6 H27 0.930 . S
C7 C8 1.421 . S
C7 C9 1.441 . S
C7 C13 1.393 1_554 S
C8 C1 1.424 . S
C8 C7 1.421 . S
C8 N12 1.361 1_454 S
C9 C7 1.441 . S
C9 C10 1.328 . S
C9 H24 0.929 . S
C10 C4 1.448 . S
C10 C9 1.328 . S
C10 H25 0.930 . S
Tb11 N2 2.617 . S
Tb11 N12 2.572 1_554 S
Tb11 O46 2.349 . S
Tb11 O49 2.393 . S
Tb11 O50 2.465 1_554 S
Tb11 O51 2.387 1_655 S
Tb11 O53 2.428 . S
Tb11 O54 2.308 1_554 S
Tb11 C75 2.802 . S
N12 C8 1.361 1_656 S
N12 Tb11 2.572 1_556 S
N12 C14 1.340 . S
C13 C7 1.393 1_556 S
C13 C15 1.332 . S
C13 H21 0.931 . S
C14 N12 1.340 . S
C14 C15 1.407 1_655 S
C14 H20 0.930 . S
C15 C13 1.332 . S
C15 C14 1.407 1_455 S
C15 H17 0.929 . S
H16 C5 0.930 1_655 S
H17 C15 0.929 . S
H18 C33 0.930 . S
H19 C40 0.929 . S
H20 C14 0.930 . S
H21 C13 0.931 . S
H22 C36 0.930 . S
H23 C3 0.930 . S
H24 C9 0.929 . S
H25 C10 0.930 . S
H26 C31 0.930 . S
H27 C6 0.930 . S
H28 C39 0.931 . S
N29 Tb0 2.617 . S
N29 C30 1.379 . S
N29 C33 1.334 . S
C30 N29 1.379 . S
C30 C32 1.416 1_455 S
C30 C38 1.424 . S
C31 H26 0.930 . S
C31 C33 1.390 1_655 S
C31 C34 1.339 . S
C32 C30 1.416 1_655 S
C32 C34 1.416 . S
C32 C65 1.448 . S
C33 H18 0.930 . S
C33 N29 1.334 . S
C33 C31 1.390 1_455 S
C34 C31 1.339 . S
C34 C32 1.416 . S
C34 H41 0.930 . S
N35 Tb0 2.572 1_554 S
N35 C36 1.340 . S
N35 C38 1.361 1_554 S
C36 H22 0.930 . S
C36 N35 1.340 . S
C36 C40 1.407 . S
C37 C38 1.413 1_654 S
C37 C39 1.416 . S
C37 C66 1.427 1_554 S
C38 C30 1.424 . S
C38 N35 1.361 1_556 S
C38 C37 1.413 1_456 S
C39 H28 0.931 . S
C39 C37 1.416 . S
C39 C40 1.332 1_655 S
C40 H19 0.929 . S
C40 C36 1.407 . S
C40 C39 1.332 1_455 S
H41 C34 0.930 . S
H42 C65 0.930 . S
H43 C66 0.929 . S
O44 Tb0 2.465 1_554 S
O44 C64 1.264 1_554 S
O45 Tb0 2.387 1_655 S
O45 C56 1.264 1_556 S
O46 Tb11 2.349 . S
O46 C56 1.243 . S
O47 Tb0 2.428 . S
O47 C64 1.256 . S
O48 Tb0 2.308 1_554 S
O48 C63 1.266 . S
O49 Tb11 2.393 . S
O49 C63 1.248 1_655 S
O50 Tb11 2.465 1_556 S
O50 C75 1.264 1_556 S
O51 Tb11 2.387 1_455 S
O51 C67 1.264 1_554 S
O52 Tb0 2.349 . S
O52 C67 1.243 . S
O53 Tb11 2.428 . S
O53 C75 1.256 . S
O54 Tb11 2.308 1_556 S
O54 C74 1.266 . S
O55 Tb0 2.393 . S
O55 C74 1.248 1_455 S
C56 O45 1.264 1_554 S
C56 O46 1.243 . S
C57 C60 1.399 . S
C57 C62 1.383 1_556 S
C57 C64 1.496 . S
C58 C59 1.399 1_554 S
C58 C62 1.389 . S
C59 C58 1.399 1_556 S
C59 C61 1.380 . S
C59 H76 0.929 . S
C60 C57 1.399 . S
C60 C61 1.392 . S
C60 H77 0.929 . S
C61 C59 1.380 . S
C61 C60 1.392 . S
C61 H78 0.929 . S
C62 C57 1.383 1_554 S
C62 C58 1.389 . S
C62 H79 0.931 . S
C63 O48 1.266 . S
C63 O49 1.248 1_455 S
C64 Tb0 2.802 . S
C64 O44 1.264 1_556 S
C64 O47 1.256 . S
C64 C57 1.496 . S
C65 C32 1.448 . S
C65 H42 0.930 . S
C65 C66 1.328 . S
C66 C37 1.427 1_556 S
C66 H43 0.929 . S
C66 C65 1.328 . S
C67 O51 1.264 1_556 S
C67 O52 1.243 . S
C68 C71 1.399 . S
C68 C72 1.383 1_554 S
C68 C75 1.496 . S
C69 C70 1.399 1_556 S
C69 C72 1.389 . S
C70 C69 1.399 1_554 S
C70 C73 1.380 . S
C70 H80 0.929 . S
C71 C68 1.399 . S
C71 C73 1.392 . S
C71 H81 0.929 . S
C72 C68 1.383 1_556 S
C72 C69 1.389 . S
C72 H82 0.931 . S
C73 C70 1.380 . S
C73 C71 1.392 . S
C73 H83 0.929 . S
C74 O54 1.266 . S
C74 O55 1.248 1_655 S
C75 Tb11 2.802 . S
C75 O50 1.264 1_554 S
C75 O53 1.256 . S
C75 C68 1.496 . S
H76 C59 0.929 . S
H77 C60 0.929 . S
H78 C61 0.929 . S
H79 C62 0.931 . S
H80 C70 0.929 . S
H81 C71 0.929 . S
H82 C72 0.931 . S
H83 C73 0.929 . S
Tb84 N113 2.617 . S
Tb84 N119 2.572 1_556 S
Tb84 O128 2.465 1_556 S
Tb84 O129 2.387 . S
Tb84 O131 2.428 . S
Tb84 O132 2.308 1_556 S
Tb84 O136 2.349 . S
Tb84 O139 2.393 . S
Tb84 C148 2.802 . S
C85 N86 1.379 . S
C85 C88 1.416 . S
C85 C92 1.424 . S
N86 C85 1.379 . S
N86 C89 1.334 . S
N86 Tb95 2.617 . S
C87 C89 1.390 . S
C87 C90 1.339 . S
C87 H107 0.930 . S
C88 C85 1.416 . S
C88 C90 1.416 . S
C88 C94 1.448 . S
C89 N86 1.334 . S
C89 C87 1.390 . S
C89 H100 0.930 . S
C90 C87 1.339 . S
C90 C88 1.416 . S
C90 H111 0.930 . S
C91 C92 1.421 . S
C91 C93 1.441 . S
C91 C97 1.393 1_554 S
C92 C85 1.424 . S
C92 C91 1.421 . S
C92 N96 1.361 1_554 S
C93 C91 1.441 . S
C93 C94 1.328 . S
C93 H108 0.929 . S
C94 C88 1.448 . S
C94 C93 1.328 . S
C94 H109 0.930 . S
Tb95 N86 2.617 . S
Tb95 N96 2.572 1_554 S
Tb95 O130 2.349 . S
Tb95 O133 2.393 . S
Tb95 O134 2.465 1_554 S
Tb95 O135 2.387 . S
Tb95 O137 2.428 . S
Tb95 O138 2.308 1_554 S
Tb95 C159 2.802 . S
N96 C92 1.361 1_556 S
N96 Tb95 2.572 1_556 S
N96 C98 1.340 . S
C97 C91 1.393 1_556 S
C97 C99 1.332 . S
C97 H105 0.931 . S
C98 N96 1.340 . S
C98 C99 1.407 . S
C98 H104 0.930 . S
C99 C97 1.332 . S
C99 C98 1.407 . S
C99 H101 0.929 . S
H100 C89 0.930 . S
H101 C99 0.929 . S
H102 C117 0.930 . S
H103 C124 0.929 . S
H104 C98 0.930 . S
H105 C97 0.931 . S
H106 C120 0.930 . S
H107 C87 0.930 . S
H108 C93 0.929 . S
H109 C94 0.930 . S
H110 C115 0.930 . S
H111 C90 0.930 . S
H112 C123 0.931 . S
N113 Tb84 2.617 . S
N113 C114 1.379 . S
N113 C117 1.334 . S
C114 N113 1.379 . S
C114 C116 1.416 . S
C114 C122 1.424 . S
C115 H110 0.930 . S
C115 C117 1.390 . S
C115 C118 1.339 . S
C116 C114 1.416 . S
C116 C118 1.416 . S
C116 C149 1.448 . S
C117 H102 0.930 . S
C117 N113 1.334 . S
C117 C115 1.390 . S
C118 C115 1.339 . S
C118 C116 1.416 . S
C118 H125 0.930 . S
N119 Tb84 2.572 1_554 S
N119 C120 1.340 . S
N119 C122 1.361 1_554 S
C120 H106 0.930 . S
C120 N119 1.340 . S
C120 C124 1.407 . S
C121 C122 1.413 1_554 S
C121 C123 1.416 . S
C121 C150 1.427 1_554 S
C122 C114 1.424 . S
C122 N119 1.361 1_556 S
C122 C121 1.413 1_556 S
C123 H112 0.931 . S
C123 C121 1.416 . S
C123 C124 1.332 . S
C124 H103 0.929 . S
C124 C120 1.407 . S
C124 C123 1.332 . S
H125 C118 0.930 . S
H126 C149 0.930 . S
H127 C150 0.929 . S
O128 Tb84 2.465 1_554 S
O128 C148 1.264 1_554 S
O129 Tb84 2.387 . S
O129 C140 1.264 1_556 S
O130 Tb95 2.349 . S
O130 C140 1.243 . S
O131 Tb84 2.428 . S
O131 C148 1.256 . S
O132 Tb84 2.308 1_554 S
O132 C147 1.266 . S
O133 Tb95 2.393 . S
O133 C147 1.248 . S
O134 Tb95 2.465 1_556 S
O134 C159 1.264 1_556 S
O135 Tb95 2.387 . S
O135 C151 1.264 1_554 S
O136 Tb84 2.349 . S
O136 C151 1.243 . S
O137 Tb95 2.428 . S
O137 C159 1.256 . S
O138 Tb95 2.308 1_556 S
O138 C158 1.266 . S
O139 Tb84 2.393 . S
O139 C158 1.248 . S
C140 O129 1.264 1_554 S
C140 O130 1.243 . S
C141 C144 1.399 . S
C141 C146 1.383 1_556 S
C141 C148 1.496 . S
C142 C143 1.399 1_554 S
C142 C146 1.389 . S
C143 C142 1.399 1_556 S
C143 C145 1.380 . S
C143 H160 0.929 . S
C144 C141 1.399 . S
C144 C145 1.392 . S
C144 H161 0.929 . S
C145 C143 1.380 . S
C145 C144 1.392 . S
C145 H162 0.929 . S
C146 C141 1.383 1_554 S
C146 C142 1.389 . S
C146 H163 0.931 . S
C147 O132 1.266 . S
C147 O133 1.248 . S
C148 Tb84 2.802 . S
C148 O128 1.264 1_556 S
C148 O131 1.256 . S
C148 C141 1.496 . S
C149 C116 1.448 . S
C149 H126 0.930 . S
C149 C150 1.328 . S
C150 C121 1.427 1_556 S
C150 H127 0.929 . S
C150 C149 1.328 . S
C151 O135 1.264 1_556 S
C151 O136 1.243 . S
C152 C155 1.399 . S
C152 C156 1.383 1_554 S
C152 C159 1.496 . S
C153 C154 1.399 1_556 S
C153 C156 1.389 . S
C154 C153 1.399 1_554 S
C154 C157 1.380 . S
C154 H164 0.929 . S
C155 C152 1.399 . S
C155 C157 1.392 . S
C155 H165 0.929 . S
C156 C152 1.383 1_556 S
C156 C153 1.389 . S
C156 H166 0.931 . S
C157 C154 1.380 . S
C157 C155 1.392 . S
C157 H167 0.929 . S
C158 O138 1.266 . S
C158 O139 1.248 . S
C159 Tb95 2.802 . S
C159 O134 1.264 1_554 S
C159 O137 1.256 . S
C159 C152 1.496 . S
H160 C143 0.929 . S
H161 C144 0.929 . S
H162 C145 0.929 . S
H163 C146 0.931 . S
H164 C154 0.929 . S
H165 C155 0.929 . S
H166 C156 0.931 . S
H167 C157 0.929 . S
Tb168 N197 2.617 . S
Tb168 N203 2.572 1_556 S
Tb168 O212 2.465 1_556 S
Tb168 O213 2.387 1_565 S
Tb168 O215 2.428 . S
Tb168 O216 2.308 1_556 S
Tb168 O220 2.349 . S
Tb168 O223 2.393 . S
Tb168 C232 2.802 . S
C169 N170 1.379 1_565 S
C169 C172 1.416 . S
C169 C176 1.424 1_565 S
N170 C169 1.379 1_545 S
N170 C173 1.334 . S
N170 Tb179 2.617 . S
C171 C173 1.390 1_565 S
C171 C174 1.339 . S
C171 H191 0.930 . S
C172 C169 1.416 . S
C172 C174 1.416 . S
C172 C178 1.448 . S
C173 N170 1.334 . S
C173 C171 1.390 1_545 S
C173 H184 0.930 . S
C174 C171 1.339 . S
C174 C172 1.416 . S
C174 H195 0.930 . S
C175 C176 1.421 1_565 S
C175 C177 1.441 . S
C175 C181 1.394 1_554 S
C176 C169 1.424 1_545 S
C176 C175 1.421 1_545 S
C176 N180 1.361 1_554 S
C177 C175 1.441 . S
C177 C178 1.328 . S
C177 H192 0.929 . S
C178 C172 1.448 . S
C178 C177 1.328 . S
C178 H193 0.930 . S
Tb179 N170 2.617 . S
Tb179 N180 2.572 1_554 S
Tb179 O214 2.349 . S
Tb179 O217 2.393 . S
Tb179 O218 2.465 1_554 S
Tb179 O219 2.387 1_545 S
Tb179 O221 2.428 . S
Tb179 O222 2.308 1_554 S
Tb179 C243 2.802 . S
N180 C176 1.361 1_556 S
N180 Tb179 2.572 1_556 S
N180 C182 1.340 . S
C181 C175 1.394 1_556 S
C181 C183 1.332 1_565 S
C181 H189 0.931 . S
C182 N180 1.340 . S
C182 C183 1.407 . S
C182 H188 0.930 . S
C183 C181 1.332 1_545 S
C183 C182 1.407 . S
C183 H185 0.929 . S
H184 C173 0.930 . S
H185 C183 0.929 . S
H186 C201 0.930 . S
H187 C208 0.930 1_565 S
H188 C182 0.930 . S
H189 C181 0.931 . S
H190 C204 0.930 . S
H191 C171 0.930 . S
H192 C177 0.929 . S
H193 C178 0.930 . S
H194 C199 0.930 . S
H195 C174 0.930 . S
H196 C207 0.931 . S
N197 Tb168 2.617 . S
N197 C198 1.379 1_565 S
N197 C201 1.334 . S
C198 N197 1.379 1_545 S
C198 C200 1.416 . S
C198 C206 1.424 . S
C199 H194 0.930 . S
C199 C201 1.390 1_545 S
C199 C202 1.339 . S
C200 C198 1.416 . S
C200 C202 1.416 . S
C200 C233 1.448 . S
C201 H186 0.930 . S
C201 N197 1.334 . S
C201 C199 1.390 1_565 S
C202 C199 1.339 . S
C202 C200 1.416 . S
C202 H209 0.930 . S
N203 Tb168 2.572 1_554 S
N203 C204 1.340 . S
N203 C206 1.361 1_564 S
C204 H190 0.930 . S
C204 N203 1.340 . S
C204 C208 1.407 1_565 S
C205 C206 1.413 1_554 S
C205 C207 1.416 . S
C205 C234 1.427 1_554 S
C206 C198 1.424 . S
C206 N203 1.361 1_546 S
C206 C205 1.413 1_556 S
C207 H196 0.931 . S
C207 C205 1.416 . S
C207 C208 1.332 . S
C208 H187 0.930 1_545 S
C208 C204 1.407 1_545 S
C208 C207 1.332 . S
H209 C202 0.930 . S
H210 C233 0.930 . S
H211 C234 0.929 . S
O212 Tb168 2.465 1_554 S
O212 C232 1.264 1_554 S
O213 Tb168 2.387 1_545 S
O213 C224 1.264 1_556 S
O214 Tb179 2.349 . S
O214 C224 1.243 . S
O215 Tb168 2.428 . S
O215 C232 1.256 . S
O216 Tb168 2.308 1_554 S
O216 C231 1.266 . S
O217 Tb179 2.393 . S
O217 C231 1.248 1_545 S
O218 Tb179 2.465 1_556 S
O218 C243 1.264 1_556 S
O219 Tb179 2.387 1_565 S
O219 C235 1.264 1_554 S
O220 Tb168 2.349 . S
O220 C235 1.243 . S
O221 Tb179 2.428 . S
O221 C243 1.256 . S
O222 Tb179 2.308 1_556 S
O222 C242 1.266 . S
O223 Tb168 2.393 . S
O223 C242 1.248 1_565 S
C224 O213 1.264 1_554 S
C224 O214 1.243 . S
C225 C228 1.399 . S
C225 C230 1.383 1_556 S
C225 C232 1.496 . S
C226 C227 1.399 1_554 S
C226 C230 1.389 . S
C227 C226 1.399 1_556 S
C227 C229 1.380 . S
C227 H244 0.929 . S
C228 C225 1.399 . S
C228 C229 1.392 . S
C228 H245 0.929 . S
C229 C227 1.380 . S
C229 C228 1.392 . S
C229 H246 0.929 . S
C230 C225 1.383 1_554 S
C230 C226 1.389 . S
C230 H247 0.931 . S
C231 O216 1.266 . S
C231 O217 1.248 1_565 S
C232 Tb168 2.802 . S
C232 O212 1.264 1_556 S
C232 O215 1.256 . S
C232 C225 1.496 . S
C233 C200 1.448 . S
C233 H210 0.930 . S
C233 C234 1.328 . S
C234 C205 1.427 1_556 S
C234 H211 0.929 . S
C234 C233 1.328 . S
C235 O219 1.264 1_556 S
C235 O220 1.243 . S
C236 C239 1.399 . S
C236 C240 1.383 1_554 S
C236 C243 1.496 . S
C237 C238 1.399 1_556 S
C237 C240 1.389 . S
C238 C237 1.399 1_554 S
C238 C241 1.380 . S
C238 H248 0.929 . S
C239 C236 1.399 . S
C239 C241 1.392 . S
C239 H249 0.929 . S
C240 C236 1.383 1_556 S
C240 C237 1.389 . S
C240 H250 0.931 . S
C241 C238 1.380 . S
C241 C239 1.392 . S
C241 H251 0.929 . S
C242 O222 1.266 . S
C242 O223 1.248 1_545 S
C243 Tb179 2.802 . S
C243 O218 1.264 1_554 S
C243 O221 1.256 . S
C243 C236 1.496 . S
H244 C227 0.929 . S
H245 C228 0.929 . S
H246 C229 0.929 . S
H247 C230 0.931 . S
H248 C238 0.929 . S
H249 C239 0.929 . S
H250 C240 0.931 . S
H251 C241 0.929 . S
Tb252 N281 2.617 . S
Tb252 N287 2.572 . S
Tb252 O296 2.465 . S
Tb252 O297 2.387 . S
Tb252 O299 2.428 . S
Tb252 O300 2.308 . S
Tb252 O304 2.349 . S
Tb252 O307 2.393 . S
Tb252 C316 2.802 . S
C253 N254 1.379 . S
C253 C256 1.416 . S
C253 C260 1.424 . S
N254 C253 1.379 . S
N254 C257 1.334 . S
N254 Tb263 2.617 . S
C255 C257 1.390 . S
C255 C258 1.339 . S
C255 H275 0.930 . S
C256 C253 1.416 . S
C256 C258 1.416 . S
C256 C262 1.447 . S
C257 N254 1.334 . S
C257 C255 1.390 . S
C257 H268 0.930 . S
C258 C255 1.339 . S
C258 C256 1.416 . S
C258 H279 0.930 . S
C259 C260 1.413 . S
C259 C261 1.427 1_565 S
C259 C265 1.416 . S
C260 C253 1.424 . S
C260 C259 1.413 . S
C260 N264 1.361 . S
C261 C259 1.427 1_545 S
C261 C262 1.329 1_545 S
C261 H276 0.929 . S
C262 C256 1.447 . S
C262 C261 1.329 1_565 S
C262 H277 0.932 1_565 S
Tb263 N254 2.617 . S
Tb263 N264 2.572 . S
Tb263 O298 2.349 . S
Tb263 O301 2.393 . S
Tb263 O302 2.465 . S
Tb263 O303 2.387 . S
Tb263 O305 2.428 . S
Tb263 O306 2.308 . S
Tb263 C327 2.802 . S
N264 C260 1.361 . S
N264 Tb263 2.572 . S
N264 C266 1.340 . S
C265 C259 1.416 . S
C265 C267 1.332 . S
C265 H273 0.941 . S
C266 N264 1.340 . S
C266 C267 1.407 . S
C266 H272 0.930 . S
C267 C265 1.332 . S
C267 C266 1.407 . S
C267 H269 0.929 . S
H268 C257 0.930 . S
H269 C267 0.929 . S
H270 C285 0.930 . S
H271 C292 0.929 . S
H272 C266 0.930 . S
H273 C265 0.941 . S
H274 C288 0.930 . S
H275 C255 0.930 . S
H276 C261 0.929 . S
H277 C262 0.932 1_545 S
H278 C283 0.930 . S
H279 C258 0.930 . S
H280 C291 0.931 . S
N281 Tb252 2.617 . S
N281 C282 1.379 . S
N281 C285 1.334 . S
C282 N281 1.379 . S
C282 C284 1.416 . S
C282 C290 1.424 . S
C283 H278 0.930 . S
C283 C285 1.390 . S
C283 C286 1.339 . S
C284 C282 1.416 . S
C284 C286 1.416 . S
C284 C317 1.448 . S
C285 H270 0.930 . S
C285 N281 1.334 . S
C285 C283 1.390 . S
C286 C283 1.339 . S
C286 C284 1.416 . S
C286 H293 0.930 . S
N287 Tb252 2.572 . S
N287 C288 1.340 . S
N287 C290 1.361 . S
C288 H274 0.930 . S
C288 N287 1.340 . S
C288 C292 1.407 . S
C289 C290 1.413 . S
C289 C291 1.416 . S
C289 C318 1.427 . S
C290 C282 1.424 . S
C290 N287 1.361 . S
C290 C289 1.413 . S
C291 H280 0.931 . S
C291 C289 1.416 . S
C291 C292 1.332 . S
C292 H271 0.929 . S
C292 C288 1.407 . S
C292 C291 1.332 . S
H293 C286 0.930 . S
H294 C317 0.930 . S
H295 C318 0.929 . S
O296 Tb252 2.465 . S
O296 C316 1.264 . S
O297 Tb252 2.387 . S
O297 C308 1.264 . S
O298 Tb263 2.349 . S
O298 C308 1.243 . S
O299 Tb252 2.428 . S
O299 C316 1.256 . S
O300 Tb252 2.308 . S
O300 C315 1.266 . S
O301 Tb263 2.393 . S
O301 C315 1.248 . S
O302 Tb263 2.465 . S
O302 C327 1.264 . S
O303 Tb263 2.387 . S
O303 C319 1.264 . S
O304 Tb252 2.349 . S
O304 C319 1.243 . S
O305 Tb263 2.428 . S
O305 C327 1.256 . S
O306 Tb263 2.308 . S
O306 C326 1.266 . S
O307 Tb252 2.393 . S
O307 C326 1.248 . S
C308 O297 1.264 . S
C308 O298 1.243 . S
C309 C312 1.399 . S
C309 C314 1.383 . S
C309 C316 1.496 . S
C310 C311 1.399 . S
C310 C314 1.389 . S
C311 C310 1.399 . S
C311 C313 1.380 . S
C311 H328 0.929 . S
C312 C309 1.399 . S
C312 C313 1.392 . S
C312 H329 0.929 . S
C313 C311 1.380 . S
C313 C312 1.392 . S
C313 H330 0.929 . S
C314 C309 1.383 . S
C314 C310 1.389 . S
C314 H331 0.931 . S
C315 O300 1.266 . S
C315 O301 1.248 . S
C316 Tb252 2.802 . S
C316 O296 1.264 . S
C316 O299 1.256 . S
C316 C309 1.496 . S
C317 C284 1.448 . S
C317 H294 0.930 . S
C317 C318 1.328 . S
C318 C289 1.427 . S
C318 H295 0.929 . S
C318 C317 1.328 . S
C319 O303 1.264 . S
C319 O304 1.243 . S
C320 C323 1.399 . S
C320 C324 1.383 . S
C320 C327 1.496 . S
C321 C322 1.399 . S
C321 C324 1.389 . S
C322 C321 1.399 . S
C322 C325 1.380 . S
C322 H332 0.929 . S
C323 C320 1.399 . S
C323 C325 1.392 . S
C323 H333 0.929 . S
C324 C320 1.383 . S
C324 C321 1.389 . S
C324 H334 0.931 . S
C325 C322 1.380 . S
C325 C323 1.392 . S
C325 H335 0.929 . S
C326 O306 1.266 . S
C326 O307 1.248 . S
C327 Tb263 2.802 . S
C327 O302 1.264 . S
C327 O305 1.256 . S
C327 C320 1.496 . S
H328 C311 0.929 . S
H329 C312 0.929 . S
H330 C313 0.929 . S
H331 C314 0.931 . S
H332 C322 0.929 . S
H333 C323 0.929 . S
H334 C324 0.931 . S
H335 C325 0.929 . S
Tb336 N365 2.617 . S
Tb336 N371 2.572 . S
Tb336 O380 2.465 . S
Tb336 O381 2.387 . S
Tb336 O383 2.428 . S
Tb336 O384 2.308 . S
Tb336 O388 2.349 . S
Tb336 O391 2.393 . S
Tb336 C400 2.802 1_565 S
C337 N338 1.379 . S
C337 C340 1.416 . S
C337 C344 1.424 . S
N338 C337 1.379 . S
N338 C341 1.334 . S
N338 Tb347 2.617 . S
C339 C341 1.390 . S
C339 C342 1.339 . S
C339 H359 0.930 . S
C340 C337 1.416 . S
C340 C342 1.416 . S
C340 C346 1.448 . S
C341 N338 1.334 . S
C341 C339 1.390 . S
C341 H352 0.930 . S
C342 C339 1.339 . S
C342 C340 1.416 . S
C342 H363 0.930 . S
C343 C344 1.413 . S
C343 C345 1.427 . S
C343 C349 1.416 . S
C344 C337 1.424 . S
C344 C343 1.413 . S
C344 N348 1.361 . S
C345 C343 1.427 . S
C345 C346 1.328 . S
C345 H360 0.929 1_455 S
C346 C340 1.448 . S
C346 C345 1.328 . S
C346 H361 0.930 1_455 S
Tb347 N338 2.617 . S
Tb347 N348 2.572 . S
Tb347 O382 2.349 . S
Tb347 O385 2.393 . S
Tb347 O386 2.465 . S
Tb347 O387 2.387 . S
Tb347 O389 2.428 . S
Tb347 O390 2.308 . S
Tb347 C411 2.802 . S
N348 C344 1.361 . S
N348 Tb347 2.572 . S
N348 C350 1.340 . S
C349 C343 1.416 . S
C349 C351 1.332 . S
C349 H357 0.931 . S
C350 N348 1.340 . S
C350 C351 1.407 . S
C350 H356 0.930 . S
C351 C349 1.332 . S
C351 C350 1.407 . S
C351 H353 0.929 . S
H352 C341 0.930 . S
H353 C351 0.929 . S
H354 C369 0.930 . S
H355 C376 0.929 . S
H356 C350 0.930 . S
H357 C349 0.931 . S
H358 C372 0.930 1_565 S
H359 C339 0.930 . S
H360 C345 0.929 1_655 S
H361 C346 0.930 1_655 S
H362 C367 0.930 . S
H363 C342 0.930 . S
H364 C375 0.931 . S
N365 Tb336 2.617 . S
N365 C366 1.379 1_565 S
N365 C369 1.334 . S
C366 N365 1.379 1_545 S
C366 C368 1.416 . S
C366 C374 1.424 . S
C367 H362 0.930 . S
C367 C369 1.390 . S
C367 C370 1.339 1_565 S
C368 C366 1.416 . S
C368 C370 1.416 . S
C368 C401 1.448 . S
C369 H354 0.930 . S
C369 N365 1.334 . S
C369 C367 1.390 . S
C370 C367 1.339 1_545 S
C370 C368 1.416 . S
C370 H377 0.930 . S
N371 Tb336 2.572 . S
N371 C372 1.340 1_565 S
N371 C374 1.361 1_565 S
C372 H358 0.930 1_545 S
C372 N371 1.340 1_545 S
C372 C376 1.407 . S
C373 C374 1.413 . S
C373 C375 1.416 . S
C373 C402 1.427 . S
C374 C366 1.424 . S
C374 N371 1.361 1_545 S
C374 C373 1.413 . S
C375 H364 0.931 . S
C375 C373 1.416 . S
C375 C376 1.332 . S
C376 H355 0.929 . S
C376 C372 1.407 . S
C376 C375 1.332 . S
H377 C370 0.930 . S
H378 C401 0.930 . S
H379 C402 0.929 . S
O380 Tb336 2.465 . S
O380 C400 1.264 1_565 S
O381 Tb336 2.387 . S
O381 C392 1.264 . S
O382 Tb347 2.349 . S
O382 C392 1.243 . S
O383 Tb336 2.428 . S
O383 C400 1.256 1_565 S
O384 Tb336 2.308 . S
O384 C399 1.266 . S
O385 Tb347 2.393 . S
O385 C399 1.248 . S
O386 Tb347 2.465 . S
O386 C411 1.264 . S
O387 Tb347 2.387 . S
O387 C403 1.264 . S
O388 Tb336 2.349 . S
O388 C403 1.243 . S
O389 Tb347 2.428 . S
O389 C411 1.256 . S
O390 Tb347 2.308 . S
O390 C410 1.266 . S
O391 Tb336 2.393 . S
O391 C410 1.248 . S
C392 O381 1.264 . S
C392 O382 1.243 . S
C393 C396 1.399 . S
C393 C398 1.383 . S
C393 C400 1.496 . S
C394 C395 1.399 . S
C394 C398 1.389 . S
C395 C394 1.399 . S
C395 C397 1.380 . S
C395 H412 0.929 . S
C396 C393 1.399 . S
C396 C397 1.392 . S
C396 H413 0.929 . S
C397 C395 1.380 . S
C397 C396 1.392 . S
C397 H414 0.929 . S
C398 C393 1.383 . S
C398 C394 1.389 . S
C398 H415 0.931 . S
C399 O384 1.266 . S
C399 O385 1.248 . S
C400 Tb336 2.802 1_545 S
C400 O380 1.264 1_545 S
C400 O383 1.256 1_545 S
C400 C393 1.496 . S
C401 C368 1.448 . S
C401 H378 0.930 . S
C401 C402 1.328 . S
C402 C373 1.427 . S
C402 H379 0.929 . S
C402 C401 1.328 . S
C403 O387 1.264 . S
C403 O388 1.243 . S
C404 C407 1.399 . S
C404 C408 1.383 . S
C404 C411 1.496 . S
C405 C406 1.399 . S
C405 C408 1.389 . S
C406 C405 1.399 . S
C406 C409 1.380 . S
C406 H416 0.929 . S
C407 C404 1.399 . S
C407 C409 1.392 . S
C407 H417 0.929 . S
C408 C404 1.383 . S
C408 C405 1.389 . S
C408 H418 0.931 . S
C409 C406 1.380 . S
C409 C407 1.392 . S
C409 H419 0.929 . S
C410 O390 1.266 . S
C410 O391 1.248 . S
C411 Tb347 2.802 . S
C411 O386 1.264 . S
C411 O389 1.256 . S
C411 C404 1.496 . S
H412 C395 0.929 . S
H413 C396 0.929 . S
H414 C397 0.929 . S
H415 C398 0.931 . S
H416 C406 0.929 . S
H417 C407 0.929 . S
H418 C408 0.931 . S
H419 C409 0.929 . S
Tb420 N449 2.617 . S
Tb420 N455 2.572 . S
Tb420 O464 2.465 . S
Tb420 O465 2.387 . S
Tb420 O467 2.428 . S
Tb420 O468 2.308 . S
Tb420 O472 2.349 . S
Tb420 O475 2.393 . S
Tb420 C484 2.803 1_455 S
C421 N422 1.379 . S
C421 C424 1.416 . S
C421 C428 1.424 . S
N422 C421 1.379 . S
N422 C425 1.334 . S
N422 Tb431 2.617 . S
C423 C425 1.390 . S
C423 C426 1.339 . S
C423 H443 0.930 . S
C424 C421 1.416 . S
C424 C426 1.416 . S
C424 C430 1.448 . S
C425 N422 1.334 . S
C425 C423 1.390 . S
C425 H436 0.930 . S
C426 C423 1.339 . S
C426 C424 1.416 . S
C426 H447 0.930 . S
C427 C428 1.413 . S
C427 C429 1.427 . S
C427 C433 1.416 . S
C428 C421 1.424 . S
C428 C427 1.413 . S
C428 N432 1.361 . S
C429 C427 1.427 . S
C429 C430 1.328 . S
C429 H444 0.929 . S
C430 C424 1.448 . S
C430 C429 1.328 . S
C430 H445 0.930 . S
Tb431 N422 2.617 . S
Tb431 N432 2.572 . S
Tb431 O466 2.349 . S
Tb431 O469 2.393 . S
Tb431 O470 2.465 . S
Tb431 O471 2.387 . S
Tb431 O473 2.428 . S
Tb431 O474 2.308 . S
Tb431 C495 2.802 . S
N432 C428 1.361 . S
N432 Tb431 2.572 . S
N432 C434 1.340 . S
C433 C427 1.416 . S
C433 C435 1.332 . S
C433 H441 0.931 . S
C434 N432 1.340 . S
C434 C435 1.407 . S
C434 H440 0.930 . S
C435 C433 1.332 . S
C435 C434 1.407 . S
C435 H437 0.929 . S
H436 C425 0.930 . S
H437 C435 0.929 . S
H438 C453 0.930 . S
H439 C460 0.929 . S
H440 C434 0.930 . S
H441 C433 0.931 . S
H442 C456 0.930 . S
H443 C423 0.930 . S
H444 C429 0.929 . S
H445 C430 0.930 . S
H446 C451 0.930 . S
H447 C426 0.930 . S
H448 C459 0.931 . S
N449 Tb420 2.617 . S
N449 C450 1.379 . S
N449 C453 1.334 . S
C450 N449 1.379 . S
C450 C452 1.416 1_455 S
C450 C458 1.424 1_455 S
C451 H446 0.930 . S
C451 C453 1.390 . S
C451 C454 1.339 1_455 S
C452 C450 1.416 1_655 S
C452 C454 1.416 . S
C452 C485 1.448 . S
C453 H438 0.930 . S
C453 N449 1.334 . S
C453 C451 1.390 . S
C454 C451 1.339 1_655 S
C454 C452 1.416 . S
C454 H461 0.930 . S
N455 Tb420 2.572 . S
N455 C456 1.340 . S
N455 C458 1.361 1_455 S
C456 H442 0.930 . S
C456 N455 1.340 . S
C456 C460 1.407 1_455 S
C457 C458 1.413 . S
C457 C459 1.416 . S
C457 C486 1.427 . S
C458 C450 1.424 1_655 S
C458 N455 1.361 1_655 S
C458 C457 1.413 . S
C459 H448 0.931 . S
C459 C457 1.416 . S
C459 C460 1.332 . S
C460 H439 0.929 . S
C460 C456 1.407 1_655 S
C460 C459 1.332 . S
H461 C454 0.930 . S
H462 C485 0.930 . S
H463 C486 0.929 . S
O464 Tb420 2.465 . S
O464 C484 1.264 1_455 S
O465 Tb420 2.387 . S
O465 C476 1.264 . S
O466 Tb431 2.349 . S
O466 C476 1.243 . S
O467 Tb420 2.428 . S
O467 C484 1.257 1_455 S
O468 Tb420 2.308 . S
O468 C483 1.266 . S
O469 Tb431 2.393 . S
O469 C483 1.248 . S
O470 Tb431 2.465 . S
O470 C495 1.264 . S
O471 Tb431 2.387 . S
O471 C487 1.264 . S
O472 Tb420 2.349 . S
O472 C487 1.243 . S
O473 Tb431 2.428 . S
O473 C495 1.256 . S
O474 Tb431 2.308 . S
O474 C494 1.266 . S
O475 Tb420 2.393 . S
O475 C494 1.248 . S
C476 O465 1.264 . S
C476 O466 1.243 . S
C477 C480 1.399 . S
C477 C482 1.383 . S
C477 C484 1.495 . S
C478 C479 1.399 . S
C478 C482 1.389 . S
C479 C478 1.399 . S
C479 C481 1.380 . S
C479 H496 0.929 . S
C480 C477 1.399 . S
C480 C481 1.392 . S
C480 H497 0.929 . S
C481 C479 1.380 . S
C481 C480 1.392 . S
C481 H498 0.929 . S
C482 C477 1.383 . S
C482 C478 1.389 . S
C482 H499 0.931 . S
C483 O468 1.266 . S
C483 O469 1.248 . S
C484 Tb420 2.803 1_655 S
C484 O464 1.264 1_655 S
C484 O467 1.257 1_655 S
C484 C477 1.495 . S
C485 C452 1.448 . S
C485 H462 0.930 . S
C485 C486 1.328 . S
C486 C457 1.427 . S
C486 H463 0.929 . S
C486 C485 1.328 . S
C487 O471 1.264 . S
C487 O472 1.243 . S
C488 C491 1.399 . S
C488 C492 1.383 . S
C488 C495 1.496 . S
C489 C490 1.399 . S
C489 C492 1.389 . S
C490 C489 1.399 . S
C490 C493 1.380 . S
C490 H500 0.929 . S
C491 C488 1.399 . S
C491 C493 1.392 . S
C491 H501 0.929 . S
C492 C488 1.383 . S
C492 C489 1.389 . S
C492 H502 0.931 . S
C493 C490 1.380 . S
C493 C491 1.392 . S
C493 H503 0.929 . S
C494 O474 1.266 . S
C494 O475 1.248 . S
C495 Tb431 2.802 . S
C495 O470 1.264 . S
C495 O473 1.256 . S
C495 C488 1.496 . S
H496 C479 0.929 . S
H497 C480 0.929 . S
H498 C481 0.929 . S
H499 C482 0.931 . S
H500 C490 0.929 . S
H501 C491 0.929 . S
H502 C492 0.931 . S
H503 C493 0.929 . S
Tb504 N533 2.617 . S
Tb504 N539 2.572 . S
Tb504 O548 2.465 . S
Tb504 O549 2.387 . S
Tb504 O551 2.428 . S
Tb504 O552 2.308 . S
Tb504 O556 2.349 . S
Tb504 O559 2.393 . S
Tb504 C568 2.802 . S
C505 N506 1.379 . S
C505 C508 1.416 . S
C505 C512 1.424 . S
N506 C505 1.379 . S
N506 C509 1.334 . S
N506 Tb515 2.617 . S
C507 C509 1.390 . S
C507 C510 1.339 . S
C507 H527 0.930 . S
C508 C505 1.416 . S
C508 C510 1.416 . S
C508 C514 1.448 . S
C509 N506 1.334 . S
C509 C507 1.390 . S
C509 H520 0.930 . S
C510 C507 1.339 . S
C510 C508 1.416 . S
C510 H531 0.930 . S
C511 C512 1.413 . S
C511 C513 1.427 . S
C511 C517 1.416 . S
C512 C505 1.424 . S
C512 C511 1.413 . S
C512 N516 1.361 . S
C513 C511 1.427 . S
C513 C514 1.328 . S
C513 H528 0.929 . S
C514 C508 1.448 . S
C514 C513 1.328 . S
C514 H529 0.930 . S
Tb515 N506 2.617 . S
Tb515 N516 2.572 . S
Tb515 O550 2.349 . S
Tb515 O553 2.393 . S
Tb515 O554 2.465 . S
Tb515 O555 2.387 . S
Tb515 O557 2.428 . S
Tb515 O558 2.308 . S
Tb515 C579 2.802 . S
N516 C512 1.361 . S
N516 Tb515 2.572 . S
N516 C518 1.340 . S
C517 C511 1.416 . S
C517 C519 1.332 . S
C517 H525 0.931 . S
C518 N516 1.340 . S
C518 C519 1.407 . S
C518 H524 0.930 . S
C519 C517 1.332 . S
C519 C518 1.407 . S
C519 H521 0.929 . S
H520 C509 0.930 . S
H521 C519 0.929 . S
H522 C537 0.930 . S
H523 C544 0.929 . S
H524 C518 0.930 . S
H525 C517 0.931 . S
H526 C540 0.930 . S
H527 C507 0.930 . S
H528 C513 0.929 . S
H529 C514 0.930 . S
H530 C535 0.930 . S
H531 C510 0.930 . S
H532 C543 0.931 . S
N533 Tb504 2.617 . S
N533 C534 1.379 . S
N533 C537 1.334 . S
C534 N533 1.379 . S
C534 C536 1.416 1_545 S
C534 C542 1.424 . S
C535 H530 0.930 . S
C535 C537 1.390 . S
C535 C538 1.339 1_545 S
C536 C534 1.416 1_565 S
C536 C538 1.416 . S
C536 C569 1.448 . S
C537 H522 0.930 . S
C537 N533 1.334 . S
C537 C535 1.390 . S
C538 C535 1.339 1_565 S
C538 C536 1.416 . S
C538 H545 0.930 . S
N539 Tb504 2.572 . S
N539 C540 1.340 . S
N539 C542 1.361 . S
C540 H526 0.930 . S
C540 N539 1.340 . S
C540 C544 1.407 1_545 S
C541 C542 1.413 1_565 S
C541 C543 1.416 . S
C541 C570 1.427 . S
C542 C534 1.424 . S
C542 N539 1.361 . S
C542 C541 1.413 1_545 S
C543 H532 0.931 . S
C543 C541 1.416 . S
C543 C544 1.332 . S
C544 H523 0.929 . S
C544 C540 1.407 1_565 S
C544 C543 1.332 . S
H545 C538 0.930 . S
H546 C569 0.930 . S
H547 C570 0.929 . S
O548 Tb504 2.465 . S
O548 C568 1.264 . S
O549 Tb504 2.387 . S
O549 C560 1.264 . S
O550 Tb515 2.349 . S
O550 C560 1.243 . S
O551 Tb504 2.428 . S
O551 C568 1.256 . S
O552 Tb504 2.308 . S
O552 C567 1.266 . S
O553 Tb515 2.393 . S
O553 C567 1.248 . S
O554 Tb515 2.465 . S
O554 C579 1.264 . S
O555 Tb515 2.387 . S
O555 C571 1.264 . S
O556 Tb504 2.349 . S
O556 C571 1.243 . S
O557 Tb515 2.428 . S
O557 C579 1.256 . S
O558 Tb515 2.308 . S
O558 C578 1.266 . S
O559 Tb504 2.393 . S
O559 C578 1.248 . S
C560 O549 1.264 . S
C560 O550 1.243 . S
C561 C564 1.399 . S
C561 C566 1.383 . S
C561 C568 1.496 . S
C562 C563 1.399 . S
C562 C566 1.389 . S
C563 C562 1.399 . S
C563 C565 1.380 . S
C563 H580 0.929 . S
C564 C561 1.399 . S
C564 C565 1.392 . S
C564 H581 0.929 . S
C565 C563 1.380 . S
C565 C564 1.392 . S
C565 H582 0.929 . S
C566 C561 1.383 . S
C566 C562 1.389 . S
C566 H583 0.931 . S
C567 O552 1.266 . S
C567 O553 1.248 . S
C568 Tb504 2.802 . S
C568 O548 1.264 . S
C568 O551 1.256 . S
C568 C561 1.496 . S
C569 C536 1.448 . S
C569 H546 0.930 . S
C569 C570 1.328 . S
C570 C541 1.427 . S
C570 H547 0.929 . S
C570 C569 1.328 . S
C571 O555 1.264 . S
C571 O556 1.243 . S
C572 C575 1.399 . S
C572 C576 1.383 . S
C572 C579 1.496 . S
C573 C574 1.399 . S
C573 C576 1.389 . S
C574 C573 1.399 . S
C574 C577 1.380 . S
C574 H584 0.929 . S
C575 C572 1.399 . S
C575 C577 1.392 . S
C575 H585 0.929 . S
C576 C572 1.383 . S
C576 C573 1.389 . S
C576 H586 0.931 . S
C577 C574 1.380 . S
C577 C575 1.392 . S
C577 H587 0.929 . S
C578 O558 1.266 . S
C578 O559 1.248 . S
C579 Tb515 2.802 . S
C579 O554 1.264 . S
C579 O557 1.256 . S
C579 C572 1.496 . S
H580 C563 0.929 . S
H581 C564 0.929 . S
H582 C565 0.929 . S
H583 C566 0.931 . S
H584 C574 0.929 . S
H585 C575 0.929 . S
H586 C576 0.931 . S
H587 C577 0.929 . S
Tb588 N617 2.617 . S
Tb588 N623 2.572 . S
Tb588 O632 2.465 . S
Tb588 O633 2.387 . S
Tb588 O635 2.428 . S
Tb588 O636 2.308 . S
Tb588 O640 2.349 . S
Tb588 O643 2.393 . S
Tb588 C652 2.802 . S
C589 N590 1.379 . S
C589 C592 1.416 . S
C589 C596 1.424 . S
N590 C589 1.379 . S
N590 C593 1.334 . S
N590 Tb599 2.617 . S
C591 C593 1.390 . S
C591 C594 1.339 . S
C591 H611 0.930 . S
C592 C589 1.416 . S
C592 C594 1.416 . S
C592 C598 1.448 . S
C593 N590 1.334 . S
C593 C591 1.390 . S
C593 H604 0.930 . S
C594 C591 1.339 . S
C594 C592 1.416 . S
C594 H615 0.930 . S
C595 C596 1.413 . S
C595 C597 1.427 . S
C595 C601 1.416 . S
C596 C589 1.424 . S
C596 C595 1.413 . S
C596 N600 1.361 . S
C597 C595 1.427 . S
C597 C598 1.328 . S
C597 H612 0.929 . S
C598 C592 1.448 . S
C598 C597 1.328 . S
C598 H613 0.930 . S
Tb599 N590 2.617 . S
Tb599 N600 2.572 . S
Tb599 O634 2.349 . S
Tb599 O637 2.393 . S
Tb599 O638 2.465 . S
Tb599 O639 2.387 . S
Tb599 O641 2.428 . S
Tb599 O642 2.308 . S
Tb599 C663 2.802 . S
N600 C596 1.361 . S
N600 Tb599 2.572 . S
N600 C602 1.340 . S
C601 C595 1.416 . S
C601 C603 1.332 . S
C601 H609 0.931 . S
C602 N600 1.340 . S
C602 C603 1.407 . S
C602 H608 0.930 . S
C603 C601 1.332 . S
C603 C602 1.407 . S
C603 H605 0.929 . S
H604 C593 0.930 . S
H605 C603 0.929 . S
H606 C621 0.930 . S
H607 C628 0.929 . S
H608 C602 0.930 . S
H609 C601 0.931 . S
H610 C624 0.930 . S
H611 C591 0.930 . S
H612 C597 0.929 . S
H613 C598 0.930 . S
H614 C619 0.930 . S
H615 C594 0.930 . S
H616 C627 0.931 . S
N617 Tb588 2.617 . S
N617 C618 1.364 1_655 S
N617 C621 1.334 . S
C618 N617 1.364 1_455 S
C618 C620 1.431 . S
C618 C626 1.424 . S
C619 H614 0.930 . S
C619 C621 1.390 . S
C619 C622 1.339 1_655 S
C620 C618 1.431 . S
C620 C622 1.416 . S
C620 C653 1.448 . S
C621 H606 0.930 . S
C621 N617 1.334 . S
C621 C619 1.390 . S
C622 C619 1.339 1_455 S
C622 C620 1.416 . S
C622 H629 0.930 . S
N623 Tb588 2.572 . S
N623 C624 1.340 . S
N623 C626 1.361 1_655 S
C624 H610 0.930 . S
C624 N623 1.340 . S
C624 C628 1.407 1_655 S
C625 C626 1.413 . S
C625 C627 1.416 . S
C625 C654 1.427 . S
C626 C618 1.424 . S
C626 N623 1.361 1_455 S
C626 C625 1.413 . S
C627 H616 0.931 . S
C627 C625 1.416 . S
C627 C628 1.332 . S
C628 H607 0.929 . S
C628 C624 1.407 1_455 S
C628 C627 1.332 . S
H629 C622 0.930 . S
H630 C653 0.930 . S
H631 C654 0.929 . S
O632 Tb588 2.465 . S
O632 C652 1.264 . S
O633 Tb588 2.387 . S
O633 C644 1.264 . S
O634 Tb599 2.349 . S
O634 C644 1.243 . S
O635 Tb588 2.428 . S
O635 C652 1.256 . S
O636 Tb588 2.308 . S
O636 C651 1.266 . S
O637 Tb599 2.393 . S
O637 C651 1.248 . S
O638 Tb599 2.465 . S
O638 C663 1.264 . S
O639 Tb599 2.387 . S
O639 C655 1.264 . S
O640 Tb588 2.349 . S
O640 C655 1.243 . S
O641 Tb599 2.428 . S
O641 C663 1.256 . S
O642 Tb599 2.308 . S
O642 C662 1.266 . S
O643 Tb588 2.393 . S
O643 C662 1.248 . S
C644 O633 1.264 . S
C644 O634 1.243 . S
C645 C648 1.399 . S
C645 C650 1.383 . S
C645 C652 1.496 . S
C646 C647 1.399 . S
C646 C650 1.389 . S
C647 C646 1.399 . S
C647 C649 1.380 . S
C647 H664 0.929 . S
C648 C645 1.399 . S
C648 C649 1.392 . S
C648 H665 0.929 . S
C649 C647 1.380 . S
C649 C648 1.392 . S
C649 H666 0.929 . S
C650 C645 1.383 . S
C650 C646 1.389 . S
C650 H667 0.931 . S
C651 O636 1.266 . S
C651 O637 1.248 . S
C652 Tb588 2.802 . S
C652 O632 1.264 . S
C652 O635 1.256 . S
C652 C645 1.496 . S
C653 C620 1.448 . S
C653 H630 0.930 . S
C653 C654 1.328 . S
C654 C625 1.427 . S
C654 H631 0.929 . S
C654 C653 1.328 . S
C655 O639 1.264 . S
C655 O640 1.243 . S
C656 C659 1.399 . S
C656 C660 1.383 . S
C656 C663 1.496 . S
C657 C658 1.399 1_545 S
C657 C660 1.389 . S
C658 C657 1.399 1_565 S
C658 C661 1.380 1_565 S
C658 H668 0.929 . S
C659 C656 1.399 . S
C659 C661 1.392 . S
C659 H669 0.929 . S
C660 C656 1.383 . S
C660 C657 1.389 . S
C660 H670 0.931 . S
C661 C658 1.380 1_545 S
C661 C659 1.392 . S
C661 H671 0.929 1_545 S
C662 O642 1.266 . S
C662 O643 1.248 . S
C663 Tb599 2.802 . S
C663 O638 1.264 . S
C663 O641 1.256 . S
C663 C656 1.496 . S
H664 C647 0.929 . S
H665 C648 0.929 . S
H666 C649 0.929 . S
H667 C650 0.931 . S
H668 C658 0.929 . S
H669 C659 0.929 . S
H670 C660 0.931 . S
H671 C661 0.929 1_565 S
Tb672 N701 2.617 . S
Tb672 N707 2.572 . S
Tb672 O716 2.465 . S
Tb672 O717 2.387 . S
Tb672 O719 2.428 . S
Tb672 O720 2.308 . S
Tb672 O724 2.349 . S
Tb672 O727 2.393 . S
Tb672 C736 2.802 . S
C673 N674 1.379 . S
C673 C676 1.416 . S
C673 C680 1.424 . S
N674 C673 1.379 . S
N674 C677 1.334 . S
N674 Tb683 2.617 . S
C675 C677 1.390 . S
C675 C678 1.339 . S
C675 H695 0.930 . S
C676 C673 1.416 . S
C676 C678 1.416 . S
C676 C682 1.448 . S
C677 N674 1.334 . S
C677 C675 1.390 . S
C677 H688 0.930 . S
C678 C675 1.339 . S
C678 C676 1.416 . S
C678 H699 0.930 . S
C679 C680 1.413 . S
C679 C681 1.427 . S
C679 C685 1.416 . S
C680 C673 1.424 . S
C680 C679 1.413 . S
C680 N684 1.361 . S
C681 C679 1.427 . S
C681 C682 1.328 . S
C681 H696 0.929 . S
C682 C676 1.448 . S
C682 C681 1.328 . S
C682 H697 0.930 . S
Tb683 N674 2.617 . S
Tb683 N684 2.572 . S
Tb683 O718 2.349 . S
Tb683 O721 2.393 . S
Tb683 O722 2.465 . S
Tb683 O723 2.387 . S
Tb683 O725 2.428 . S
Tb683 O726 2.308 . S
Tb683 C747 2.802 . S
N684 C680 1.361 . S
N684 Tb683 2.572 . S
N684 C686 1.340 . S
C685 C679 1.416 . S
C685 C687 1.332 . S
C685 H693 0.931 . S
C686 N684 1.340 . S
C686 C687 1.407 . S
C686 H692 0.930 . S
C687 C685 1.332 . S
C687 C686 1.407 . S
C687 H689 0.929 . S
H688 C677 0.930 . S
H689 C687 0.929 . S
H690 C705 0.930 . S
H691 C712 0.929 . S
H692 C686 0.930 . S
H693 C685 0.931 . S
H694 C708 0.930 . S
H695 C675 0.930 . S
H696 C681 0.929 . S
H697 C682 0.930 . S
H698 C703 0.930 . S
H699 C678 0.930 . S
H700 C711 0.931 . S
N701 Tb672 2.617 . S
N701 C702 1.379 . S
N701 C705 1.334 . S
C702 N701 1.379 . S
C702 C704 1.416 . S
C702 C710 1.424 . S
C703 H698 0.930 . S
C703 C705 1.390 . S
C703 C706 1.339 . S
C704 C702 1.416 . S
C704 C706 1.416 . S
C704 C737 1.448 . S
C705 H690 0.930 . S
C705 N701 1.334 . S
C705 C703 1.390 . S
C706 C703 1.339 . S
C706 C704 1.416 . S
C706 H713 0.930 . S
N707 Tb672 2.572 . S
N707 C708 1.340 . S
N707 C710 1.361 . S
C708 H694 0.930 . S
C708 N707 1.340 . S
C708 C712 1.407 . S
C709 C710 1.413 . S
C709 C711 1.416 . S
C709 C738 1.427 . S
C710 C702 1.424 . S
C710 N707 1.361 . S
C710 C709 1.413 . S
C711 H700 0.931 . S
C711 C709 1.416 . S
C711 C712 1.332 . S
C712 H691 0.929 . S
C712 C708 1.407 . S
C712 C711 1.332 . S
H713 C706 0.930 . S
H714 C737 0.930 . S
H715 C738 0.929 . S
O716 Tb672 2.465 . S
O716 C736 1.264 . S
O717 Tb672 2.387 . S
O717 C728 1.264 . S
O718 Tb683 2.349 . S
O718 C728 1.243 . S
O719 Tb672 2.428 . S
O719 C736 1.256 . S
O720 Tb672 2.308 . S
O720 C735 1.266 . S
O721 Tb683 2.393 . S
O721 C735 1.248 . S
O722 Tb683 2.465 . S
O722 C747 1.264 . S
O723 Tb683 2.387 . S
O723 C739 1.264 . S
O724 Tb672 2.349 . S
O724 C739 1.243 . S
O725 Tb683 2.428 . S
O725 C747 1.256 . S
O726 Tb683 2.308 . S
O726 C746 1.266 . S
O727 Tb672 2.393 . S
O727 C746 1.248 . S
C728 O717 1.264 . S
C728 O718 1.243 . S
C729 C732 1.399 . S
C729 C734 1.383 . S
C729 C736 1.496 . S
C730 C731 1.399 . S
C730 C734 1.389 . S
C731 C730 1.399 . S
C731 C733 1.380 . S
C731 H748 0.929 . S
C732 C729 1.399 . S
C732 C733 1.392 . S
C732 H749 0.929 . S
C733 C731 1.380 . S
C733 C732 1.392 . S
C733 H750 0.929 . S
C734 C729 1.383 . S
C734 C730 1.389 . S
C734 H751 0.931 . S
C735 O720 1.266 . S
C735 O721 1.248 . S
C736 Tb672 2.802 . S
C736 O716 1.264 . S
C736 O719 1.256 . S
C736 C729 1.496 . S
C737 C704 1.448 . S
C737 H714 0.930 . S
C737 C738 1.328 . S
C738 C709 1.427 . S
C738 H715 0.929 . S
C738 C737 1.328 . S
C739 O723 1.264 . S
C739 O724 1.243 . S
C740 C743 1.399 . S
C740 C744 1.383 . S
C740 C747 1.496 . S
C741 C742 1.399 . S
C741 C744 1.389 1_455 S
C742 C741 1.399 . S
C742 C745 1.380 . S
C742 H752 0.929 . S
C743 C740 1.399 . S
C743 C745 1.392 1_655 S
C743 H753 0.929 . S
C744 C740 1.383 . S
C744 C741 1.389 1_655 S
C744 H754 0.931 . S
C745 C742 1.380 . S
C745 C743 1.392 1_455 S
C745 H755 0.929 . S
C746 O726 1.266 . S
C746 O727 1.248 . S
C747 Tb683 2.802 . S
C747 O722 1.264 . S
C747 O725 1.256 . S
C747 C740 1.496 . S
H748 C731 0.929 . S
H749 C732 0.929 . S
H750 C733 0.929 . S
H751 C734 0.931 . S
H752 C742 0.929 . S
H753 C743 0.929 . S
H754 C744 0.931 . S
H755 C745 0.929 . S
H756 C768 0.934 . S
H757 C770 0.930 . S
H758 C771 0.930 . S
H759 C775 0.959 . S
H760 C775 0.959 . S
H761 C775 0.961 . S
H762 C776 0.960 . S
H763 C776 0.961 . S
H764 C776 0.959 . S
H765 C779 0.922 1_556 S
H766 C780 0.931 . S
H767 C782 0.930 . S
C768 H756 0.934 . S
C768 C769 1.393 1_554 S
C768 C773 1.401 . S
C769 C768 1.393 1_556 S
C769 C770 1.376 . S
C770 H757 0.930 . S
C770 C769 1.376 . S
C770 C771 1.388 . S
C771 H758 0.930 . S
C771 C770 1.388 . S
C771 C772 1.390 . S
C772 C771 1.390 . S
C772 C773 1.394 1_556 S
C772 C778 1.465 1_556 S
C773 C768 1.401 . S
C773 C772 1.394 1_554 S
C773 C774 1.516 . S
C774 C773 1.516 . S
C774 C775 1.502 . S
C774 C776 1.561 1_554 S
C774 C777 1.526 . S
C775 H759 0.959 . S
C775 H760 0.959 . S
C775 H761 0.961 . S
C775 C774 1.502 . S
C776 H762 0.960 . S
C776 H763 0.961 . S
C776 H764 0.959 . S
C776 C774 1.561 1_556 S
C777 C774 1.526 . S
C777 C778 1.396 . S
C777 C782 1.390 . S
C778 C772 1.465 1_554 S
C778 C777 1.396 . S
C778 C779 1.399 . S
C779 H765 0.922 1_554 S
C779 C778 1.399 . S
C779 C780 1.385 . S
C780 H766 0.931 . S
C780 C779 1.385 . S
C780 C781 1.389 . S
C781 C780 1.389 . S
C781 C782 1.387 . S
C782 H767 0.930 . S
C782 C777 1.390 . S
C782 C781 1.387 . S
H783 C795 0.930 . S
H784 C797 0.930 . S
H785 C798 0.930 . S
H786 C802 0.959 . S
H787 C802 0.959 . S
H788 C802 0.961 . S
H789 C803 0.960 . S
H790 C803 0.961 . S
H791 C803 0.959 . S
H792 C806 0.929 . S
H793 C807 0.931 . S
H794 C809 0.930 . S
C795 H783 0.930 . S
C795 C796 1.399 1_554 S
C795 C800 1.399 . S
C796 C795 1.399 1_556 S
C796 C797 1.376 . S
C797 H784 0.930 . S
C797 C796 1.376 . S
C797 C798 1.388 . S
C798 H785 0.930 . S
C798 C797 1.388 . S
C798 C799 1.390 . S
C799 C798 1.390 . S
C799 C800 1.394 1_556 S
C799 C805 1.465 . S
C800 C795 1.399 . S
C800 C799 1.394 1_554 S
C800 C801 1.516 . S
C801 C800 1.516 . S
C801 C802 1.502 . S
C801 C803 1.561 . S
C801 C804 1.526 . S
C802 H786 0.959 . S
C802 H787 0.959 . S
C802 H788 0.961 . S
C802 C801 1.502 . S
C803 H789 0.960 . S
C803 H790 0.961 . S
C803 H791 0.959 . S
C803 C801 1.561 . S
C804 C801 1.526 . S
C804 C805 1.396 1_554 S
C804 C809 1.390 . S
C805 C799 1.465 . S
C805 C804 1.396 1_556 S
C805 C806 1.399 . S
C806 H792 0.929 . S
C806 C805 1.399 . S
C806 C807 1.385 . S
C807 H793 0.931 . S
C807 C806 1.385 . S
C807 C808 1.389 1_556 S
C808 C807 1.389 1_554 S
C808 C809 1.387 . S
C809 H794 0.930 . S
C809 C804 1.390 . S
C809 C808 1.387 . S
H810 C822 0.911 1_556 S
H811 C824 0.930 . S
H812 C825 0.930 . S
H813 C829 0.959 . S
H814 C829 0.959 . S
H815 C829 0.961 . S
H816 C830 0.960 . S
H817 C830 0.961 . S
H818 C830 0.959 . S
H819 C833 0.929 . S
H820 C834 0.931 . S
H821 C836 0.930 . S
C822 H810 0.911 1_554 S
C822 C823 1.419 . S
C822 C827 1.398 1_554 S
C823 C822 1.419 . S
C823 C824 1.376 . S
C824 H811 0.930 . S
C824 C823 1.376 . S
C824 C825 1.388 . S
C825 H812 0.930 . S
C825 C824 1.388 . S
C825 C826 1.390 . S
C826 C825 1.390 . S
C826 C827 1.386 1_554 S
C826 C832 1.465 . S
C827 C822 1.398 1_556 S
C827 C826 1.386 1_556 S
C827 C828 1.524 . S
C828 C827 1.524 . S
C828 C829 1.502 . S
C828 C830 1.561 . S
C828 C831 1.526 . S
C829 H813 0.959 . S
C829 H814 0.959 . S
C829 H815 0.961 . S
C829 C828 1.502 . S
C830 H816 0.960 . S
C830 H817 0.961 . S
C830 H818 0.959 . S
C830 C828 1.561 . S
C831 C828 1.526 . S
C831 C832 1.396 1_556 S
C831 C836 1.390 . S
C832 C826 1.465 . S
C832 C831 1.396 1_554 S
C832 C833 1.399 . S
C833 H819 0.929 . S
C833 C832 1.399 . S
C833 C834 1.385 . S
C834 H820 0.931 . S
C834 C833 1.385 . S
C834 C835 1.389 1_554 S
C835 C834 1.389 1_556 S
C835 C836 1.387 . S
C836 H821 0.930 . S
C836 C831 1.390 . S
C836 C835 1.387 . S
H837 C849 0.930 . S
H838 C851 0.930 . S
H839 C852 0.930 . S
H840 C856 0.959 . S
H841 C856 0.959 . S
H842 C856 0.961 . S
H843 C857 0.960 . S
H844 C857 0.961 . S
H845 C857 0.959 . S
H846 C860 0.929 . S
H847 C861 0.931 . S
H848 C863 0.930 . S
C849 H837 0.930 . S
C849 C850 1.399 1_556 S
C849 C854 1.399 . S
C850 C849 1.399 1_554 S
C850 C851 1.376 . S
C851 H838 0.930 . S
C851 C850 1.376 . S
C851 C852 1.388 . S
C852 H839 0.930 . S
C852 C851 1.388 . S
C852 C853 1.390 . S
C853 C852 1.390 . S
C853 C854 1.394 1_554 S
C853 C859 1.465 . S
C854 C849 1.399 . S
C854 C853 1.394 1_556 S
C854 C855 1.516 . S
C855 C854 1.516 . S
C855 C856 1.502 . S
C855 C857 1.561 . S
C855 C858 1.526 . S
C856 H840 0.959 . S
C856 H841 0.959 . S
C856 H842 0.961 . S
C856 C855 1.502 . S
C857 H843 0.960 . S
C857 H844 0.961 . S
C857 H845 0.959 . S
C857 C855 1.561 . S
C858 C855 1.526 . S
C858 C859 1.396 1_556 S
C858 C863 1.390 . S
C859 C853 1.465 . S
C859 C858 1.396 1_554 S
C859 C860 1.399 . S
C860 H846 0.929 . S
C860 C859 1.399 . S
C860 C861 1.385 . S
C861 H847 0.931 . S
C861 C860 1.385 . S
C861 C862 1.389 1_554 S
C862 C861 1.389 1_556 S
C862 C863 1.387 . S
C863 H848 0.930 . S
C863 C858 1.390 . S
C863 C862 1.387 . S
H864 C876 0.930 . S
H865 C878 0.930 . S
H866 C879 0.930 . S
H867 C883 0.959 . S
H868 C883 0.959 . S
H869 C883 0.961 . S
H870 C884 0.960 . S
H871 C884 0.961 . S
H872 C884 0.959 . S
H873 C887 0.929 . S
H874 C888 0.931 . S
H875 C890 0.930 . S
C876 H864 0.930 . S
C876 C877 1.399 . S
C876 C881 1.399 . S
C877 C876 1.399 . S
C877 C878 1.376 1_556 S
C878 H865 0.930 . S
C878 C877 1.376 1_554 S
C878 C879 1.388 . S
C879 H866 0.930 . S
C879 C878 1.388 . S
C879 C880 1.390 . S
C880 C879 1.390 . S
C880 C881 1.394 1_554 S
C880 C886 1.465 . S
C881 C876 1.399 . S
C881 C880 1.394 1_556 S
C881 C882 1.516 . S
C882 C881 1.516 . S
C882 C883 1.502 . S
C882 C884 1.561 . S
C882 C885 1.526 . S
C883 H867 0.959 . S
C883 H868 0.959 . S
C883 H869 0.961 . S
C883 C882 1.502 . S
C884 H870 0.960 . S
C884 H871 0.961 . S
C884 H872 0.959 . S
C884 C882 1.561 . S
C885 C882 1.526 . S
C885 C886 1.396 1_556 S
C885 C890 1.390 . S
C886 C880 1.465 . S
C886 C885 1.396 1_554 S
C886 C887 1.399 . S
C887 H873 0.929 . S
C887 C886 1.399 . S
C887 C888 1.385 . S
C888 H874 0.931 . S
C888 C887 1.385 . S
C888 C889 1.389 . S
C889 C888 1.389 . S
C889 C890 1.387 1_554 S
C890 H875 0.930 . S
C890 C885 1.390 . S
C890 C889 1.387 1_556 S
H891 C903 0.930 . S
H892 C905 0.930 . S
H893 C906 0.930 . S
H894 C910 0.959 . S
H895 C910 0.959 . S
H896 C910 0.961 . S
H897 C911 0.960 . S
H898 C911 0.961 . S
H899 C911 0.959 . S
H900 C914 0.929 . S
H901 C915 0.931 . S
H902 C917 0.930 . S
C903 H891 0.930 . S
C903 C904 1.399 . S
C903 C908 1.399 . S
C904 C903 1.399 . S
C904 C905 1.376 . S
C905 H892 0.930 . S
C905 C904 1.376 . S
C905 C906 1.388 . S
C906 H893 0.930 . S
C906 C905 1.388 . S
C906 C907 1.390 . S
C907 C906 1.390 . S
C907 C908 1.394 . S
C907 C913 1.465 . S
C908 C903 1.399 . S
C908 C907 1.394 . S
C908 C909 1.516 . S
C909 C908 1.516 . S
C909 C910 1.502 1_556 S
C909 C911 1.561 . S
C909 C912 1.526 . S
C910 H894 0.959 . S
C910 H895 0.959 . S
C910 H896 0.961 . S
C910 C909 1.502 1_554 S
C911 H897 0.960 . S
C911 H898 0.961 . S
C911 H899 0.959 . S
C911 C909 1.561 . S
C912 C909 1.526 . S
C912 C913 1.396 . S
C912 C917 1.390 1_556 S
C913 C907 1.465 . S
C913 C912 1.396 . S
C913 C914 1.399 1_556 S
C914 H900 0.929 . S
C914 C913 1.399 1_554 S
C914 C915 1.385 . S
C915 H901 0.931 . S
C915 C914 1.385 . S
C915 C916 1.389 . S
C916 C915 1.389 . S
C916 C917 1.387 . S
C917 H902 0.930 . S
C917 C912 1.390 1_554 S
C917 C916 1.387 . S
H918 C930 0.930 . S
H919 C932 0.930 . S
H920 C933 0.930 . S
H921 C937 0.959 . S
H922 C937 0.959 1_455 S
H923 C937 0.961 . S
H924 C938 0.960 . S
H925 C938 0.961 1_455 S
H926 C938 0.959 1_455 S
H927 C941 0.929 . S
H928 C942 0.931 . S
H929 C944 0.930 . S
C930 H918 0.930 . S
C930 C931 1.399 . S
C930 C935 1.399 . S
C931 C930 1.399 . S
C931 C932 1.376 . S
C932 H919 0.930 . S
C932 C931 1.376 . S
C932 C933 1.388 . S
C933 H920 0.930 . S
C933 C932 1.388 . S
C933 C934 1.390 . S
C934 C933 1.390 . S
C934 C935 1.394 . S
C934 C940 1.465 1_655 S
C935 C930 1.399 . S
C935 C934 1.394 . S
C935 C936 1.516 . S
C936 C935 1.516 . S
C936 C937 1.502 . S
C936 C938 1.561 . S
C936 C939 1.526 1_655 S
C937 H921 0.959 . S
C937 H922 0.959 1_655 S
C937 H923 0.961 . S
C937 C936 1.502 . S
C938 H924 0.960 . S
C938 H925 0.961 1_655 S
C938 H926 0.959 1_655 S
C938 C936 1.561 . S
C939 C936 1.526 1_455 S
C939 C940 1.396 . S
C939 C944 1.390 . S
C940 C934 1.465 1_455 S
C940 C939 1.396 . S
C940 C941 1.399 . S
C941 H927 0.929 . S
C941 C940 1.399 . S
C941 C942 1.385 . S
C942 H928 0.931 . S
C942 C941 1.385 . S
C942 C943 1.389 . S
C943 C942 1.389 . S
C943 C944 1.387 . S
C944 H929 0.930 . S
C944 C939 1.390 . S
C944 C943 1.387 . S
H945 C957 0.930 . S
H946 C959 0.930 . S
H947 C960 0.930 . S
H948 C964 0.959 . S
H949 C964 0.959 . S
H950 C964 0.961 . S
H951 C965 0.960 . S
H952 C965 0.961 . S
H953 C965 0.959 . S
H954 C968 0.929 . S
H955 C969 0.931 . S
H956 C971 0.930 . S
C957 H945 0.930 . S
C957 C958 1.399 . S
C957 C962 1.399 . S
C958 C957 1.399 . S
C958 C959 1.376 . S
C959 H946 0.930 . S
C959 C958 1.376 . S
C959 C960 1.388 . S
C960 H947 0.930 . S
C960 C959 1.388 . S
C960 C961 1.390 . S
C961 C960 1.390 . S
C961 C962 1.394 . S
C961 C967 1.465 . S
C962 C957 1.399 . S
C962 C961 1.394 . S
C962 C963 1.516 . S
C963 C962 1.516 . S
C963 C964 1.502 . S
C963 C965 1.561 . S
C963 C966 1.526 . S
C964 H948 0.959 . S
C964 H949 0.959 . S
C964 H950 0.961 . S
C964 C963 1.502 . S
C965 H951 0.960 . S
C965 H952 0.961 . S
C965 H953 0.959 . S
C965 C963 1.561 . S
C966 C963 1.526 . S
C966 C967 1.396 . S
C966 C971 1.390 . S
C967 C961 1.465 . S
C967 C966 1.396 . S
C967 C968 1.399 . S
C968 H954 0.929 . S
C968 C967 1.399 . S
C968 C969 1.385 . S
C969 H955 0.931 . S
C969 C968 1.385 . S
C969 C970 1.389 . S
C970 C969 1.389 . S
C970 C971 1.387 . S
C971 H956 0.930 . S
C971 C966 1.390 . S
C971 C970 1.387 . S
H972 C984 0.930 . S
H973 C986 0.930 . S
H974 C987 0.930 . S
H975 C991 0.959 . S
H976 C991 0.959 . S
H977 C991 0.961 . S
H978 C992 0.960 . S
H979 C992 0.961 1_565 S
H980 C992 0.959 . S
H981 C995 0.929 . S
H982 C996 0.931 . S
H983 C998 0.930 . S
C984 H972 0.930 . S
C984 C985 1.399 . S
C984 C989 1.399 . S
C985 C984 1.399 . S
C985 C986 1.376 . S
C986 H973 0.930 . S
C986 C985 1.376 . S
C986 C987 1.388 . S
C987 H974 0.930 . S
C987 C986 1.388 . S
C987 C988 1.390 . S
C988 C987 1.390 . S
C988 C989 1.394 . S
C988 C994 1.465 1_545 S
C989 C984 1.399 . S
C989 C988 1.394 . S
C989 C990 1.516 . S
C990 C989 1.516 . S
C990 C991 1.502 . S
C990 C992 1.561 . S
C990 C993 1.526 1_545 S
C991 H975 0.959 . S
C991 H976 0.959 . S
C991 H977 0.961 . S
C991 C990 1.502 . S
C992 H978 0.960 . S
C992 H979 0.961 1_545 S
C992 H980 0.959 . S
C992 C990 1.561 . S
C993 C990 1.526 1_565 S
C993 C994 1.396 . S
C993 C998 1.390 . S
C994 C988 1.465 1_565 S
C994 C993 1.396 . S
C994 C995 1.399 . S
C995 H981 0.929 . S
C995 C994 1.399 . S
C995 C996 1.385 . S
C996 H982 0.931 . S
C996 C995 1.385 . S
C996 C997 1.389 . S
C997 C996 1.389 . S
C997 C998 1.387 . S
C998 H983 0.930 . S
C998 C993 1.390 . S
C998 C997 1.387 . S
H999 C1011 0.930 . S
H1000 C1013 0.930 . S
H1001 C1014 0.930 . S
H1002 C1018 0.959 . S
H1003 C1018 0.959 . S
H1004 C1018 0.961 . S
H1005 C1019 0.960 . S
H1006 C1019 0.961 . S
H1007 C1019 0.959 . S
H1008 C1022 0.929 . S
H1009 C1023 0.931 . S
H1010 C1025 0.930 . S
C1011 H999 0.930 . S
C1011 C1012 1.399 . S
C1011 C1016 1.399 . S
C1012 C1011 1.399 . S
C1012 C1013 1.376 . S
C1013 H1000 0.930 . S
C1013 C1012 1.376 . S
C1013 C1014 1.388 . S
C1014 H1001 0.930 . S
C1014 C1013 1.388 . S
C1014 C1015 1.390 . S
C1015 C1014 1.390 . S
C1015 C1016 1.394 . S
C1015 C1021 1.465 . S
C1016 C1011 1.399 . S
C1016 C1015 1.394 . S
C1016 C1017 1.516 . S
C1017 C1016 1.516 . S
C1017 C1018 1.502 . S
C1017 C1019 1.561 . S
C1017 C1020 1.526 . S
C1018 H1002 0.959 . S
C1018 H1003 0.959 . S
C1018 H1004 0.961 . S
C1018 C1017 1.502 . S
C1019 H1005 0.960 . S
C1019 H1006 0.961 . S
C1019 H1007 0.959 . S
C1019 C1017 1.561 . S
C1020 C1017 1.526 . S
C1020 C1021 1.396 . S
C1020 C1025 1.390 . S
C1021 C1015 1.465 . S
C1021 C1020 1.396 . S
C1021 C1022 1.399 . S
C1022 H1008 0.929 . S
C1022 C1021 1.399 . S
C1022 C1023 1.385 . S
C1023 H1009 0.931 . S
C1023 C1022 1.385 . S
C1023 C1024 1.389 . S
C1024 C1023 1.389 . S
C1024 C1025 1.387 . S
C1025 H1010 0.930 . S
C1025 C1020 1.390 . S
C1025 C1024 1.387 . S
H1026 C1038 0.930 . S
H1027 C1040 0.930 . S
H1028 C1041 0.930 . S
H1029 C1045 0.959 . S
H1030 C1045 0.959 . S
H1031 C1045 0.961 . S
H1032 C1046 0.960 . S
H1033 C1046 0.961 . S
H1034 C1046 0.959 . S
H1035 C1049 0.929 . S
H1036 C1050 0.931 . S
H1037 C1052 0.930 . S
C1038 H1026 0.930 . S
C1038 C1039 1.399 . S
C1038 C1043 1.399 . S
C1039 C1038 1.399 . S
C1039 C1040 1.376 . S
C1040 H1027 0.930 . S
C1040 C1039 1.376 . S
C1040 C1041 1.388 . S
C1041 H1028 0.930 . S
C1041 C1040 1.388 . S
C1041 C1042 1.390 . S
C1042 C1041 1.390 . S
C1042 C1043 1.394 . S
C1042 C1048 1.465 . S
C1043 C1038 1.399 . S
C1043 C1042 1.394 . S
C1043 C1044 1.516 . S
C1044 C1043 1.516 . S
C1044 C1045 1.502 . S
C1044 C1046 1.561 . S
C1044 C1047 1.526 . S
C1045 H1029 0.959 . S
C1045 H1030 0.959 . S
C1045 H1031 0.961 . S
C1045 C1044 1.502 . S
C1046 H1032 0.960 . S
C1046 H1033 0.961 . S
C1046 H1034 0.959 . S
C1046 C1044 1.561 . S
C1047 C1044 1.526 . S
C1047 C1048 1.396 . S
C1047 C1052 1.390 . S
C1048 C1042 1.465 . S
C1048 C1047 1.396 . S
C1048 C1049 1.399 . S
C1049 H1035 0.929 . S
C1049 C1048 1.399 . S
C1049 C1050 1.385 . S
C1050 H1036 0.931 . S
C1050 C1049 1.385 . S
C1050 C1051 1.389 . S
C1051 C1050 1.389 . S
C1051 C1052 1.387 . S
C1052 H1037 0.930 . S
C1052 C1047 1.390 . S
C1052 C1051 1.387 . S
H1053 C1065 0.930 . S
H1054 C1067 0.930 . S
H1055 C1068 0.930 . S
H1056 C1072 0.959 . S
H1057 C1072 0.959 . S
H1058 C1072 0.961 . S
H1059 C1073 0.960 . S
H1060 C1073 0.961 . S
H1061 C1073 0.959 . S
H1062 C1076 0.929 . S
H1063 C1077 0.931 . S
H1064 C1079 0.930 . S
C1065 H1053 0.930 . S
C1065 C1066 1.399 . S
C1065 C1070 1.399 . S
C1066 C1065 1.399 . S
C1066 C1067 1.376 . S
C1067 H1054 0.930 . S
C1067 C1066 1.376 . S
C1067 C1068 1.388 . S
C1068 H1055 0.930 . S
C1068 C1067 1.388 . S
C1068 C1069 1.390 . S
C1069 C1068 1.390 . S
C1069 C1070 1.394 . S
C1069 C1075 1.465 . S
C1070 C1065 1.399 . S
C1070 C1069 1.394 . S
C1070 C1071 1.516 . S
C1071 C1070 1.516 . S
C1071 C1072 1.502 . S
C1071 C1073 1.561 . S
C1071 C1074 1.526 . S
C1072 H1056 0.959 . S
C1072 H1057 0.959 . S
C1072 H1058 0.961 . S
C1072 C1071 1.502 . S
C1073 H1059 0.960 . S
C1073 H1060 0.961 . S
C1073 H1061 0.959 . S
C1073 C1071 1.561 . S
C1074 C1071 1.526 . S
C1074 C1075 1.396 . S
C1074 C1079 1.390 . S
C1075 C1069 1.465 . S
C1075 C1074 1.396 . S
C1075 C1076 1.399 . S
C1076 H1062 0.929 . S
C1076 C1075 1.399 . S
C1076 C1077 1.385 . S
C1077 H1063 0.931 . S
C1077 C1076 1.385 . S
C1077 C1078 1.389 . S
C1078 C1077 1.389 . S
C1078 C1079 1.387 . S
C1079 H1064 0.930 . S
C1079 C1074 1.390 . S
C1079 C1078 1.387 . S
H1080 C1092 0.930 . S
H1081 C1094 0.930 . S
H1082 C1095 0.930 . S
H1083 C1099 0.959 . S
H1084 C1099 0.959 . S
H1085 C1099 0.961 . S
H1086 C1100 0.960 . S
H1087 C1100 0.961 . S
H1088 C1100 0.959 . S
H1089 C1103 0.929 . S
H1090 C1104 0.931 . S
H1091 C1106 0.930 . S
C1092 H1080 0.930 . S
C1092 C1093 1.399 . S
C1092 C1097 1.399 . S
C1093 C1092 1.399 . S
C1093 C1094 1.376 . S
C1094 H1081 0.930 . S
C1094 C1093 1.376 . S
C1094 C1095 1.388 . S
C1095 H1082 0.930 . S
C1095 C1094 1.388 . S
C1095 C1096 1.390 . S
C1096 C1095 1.390 . S
C1096 C1097 1.394 . S
C1096 C1102 1.465 . S
C1097 C1092 1.399 . S
C1097 C1096 1.394 . S
C1097 C1098 1.516 . S
C1098 C1097 1.516 . S
C1098 C1099 1.502 . S
C1098 C1100 1.561 . S
C1098 C1101 1.526 . S
C1099 H1083 0.959 . S
C1099 H1084 0.959 . S
C1099 H1085 0.961 . S
C1099 C1098 1.502 . S
C1100 H1086 0.960 . S
C1100 H1087 0.961 . S
C1100 H1088 0.959 . S
C1100 C1098 1.561 . S
C1101 C1098 1.526 . S
C1101 C1102 1.396 . S
C1101 C1106 1.390 . S
C1102 C1096 1.465 . S
C1102 C1101 1.396 . S
C1102 C1103 1.399 . S
C1103 H1089 0.929 . S
C1103 C1102 1.399 . S
C1103 C1104 1.385 . S
C1104 H1090 0.931 . S
C1104 C1103 1.385 . S
C1104 C1105 1.389 . S
C1105 C1104 1.389 . S
C1105 C1106 1.387 . S
C1106 H1091 0.930 . S
C1106 C1101 1.390 . S
C1106 C1105 1.387 . S
H1107 C1119 0.930 . S
H1108 C1121 0.930 . S
H1109 C1122 0.930 . S
H1110 C1126 0.959 . S
H1111 C1126 0.959 . S
H1112 C1126 0.961 . S
H1113 C1127 0.960 . S
H1114 C1127 0.961 . S
H1115 C1127 0.959 . S
H1116 C1130 0.929 . S
H1117 C1131 0.931 . S
H1118 C1133 0.930 . S
C1119 H1107 0.930 . S
C1119 C1120 1.399 . S
C1119 C1124 1.399 . S
C1120 C1119 1.399 . S
C1120 C1121 1.376 . S
C1121 H1108 0.930 . S
C1121 C1120 1.376 . S
C1121 C1122 1.388 . S
C1122 H1109 0.930 . S
C1122 C1121 1.388 . S
C1122 C1123 1.390 . S
C1123 C1122 1.390 . S
C1123 C1124 1.394 . S
C1123 C1129 1.465 . S
C1124 C1119 1.399 . S
C1124 C1123 1.394 . S
C1124 C1125 1.516 . S
C1125 C1124 1.516 . S
C1125 C1126 1.502 . S
C1125 C1127 1.561 . S
C1125 C1128 1.526 . S
C1126 H1110 0.959 . S
C1126 H1111 0.959 . S
C1126 H1112 0.961 . S
C1126 C1125 1.502 . S
C1127 H1113 0.960 . S
C1127 H1114 0.961 . S
C1127 H1115 0.959 . S
C1127 C1125 1.561 . S
C1128 C1125 1.526 . S
C1128 C1129 1.396 . S
C1128 C1133 1.390 . S
C1129 C1123 1.465 . S
C1129 C1128 1.396 . S
C1129 C1130 1.399 . S
C1130 H1116 0.929 . S
C1130 C1129 1.399 . S
C1130 C1131 1.385 . S
C1131 H1117 0.931 . S
C1131 C1130 1.385 . S
C1131 C1132 1.389 . S
C1132 C1131 1.389 . S
C1132 C1133 1.387 . S
C1133 H1118 0.930 . S
C1133 C1128 1.390 . S
C1133 C1132 1.387 . S
H1134 C1146 0.930 . S
H1135 C1148 0.930 . S
H1136 C1149 0.930 . S
H1137 C1153 0.959 . S
H1138 C1153 0.959 . S
H1139 C1153 0.961 . S
H1140 C1154 0.960 . S
H1141 C1154 0.961 . S
H1142 C1154 0.959 . S
H1143 C1157 0.929 . S
H1144 C1158 0.931 . S
H1145 C1160 0.930 . S
C1146 H1134 0.930 . S
C1146 C1147 1.399 . S
C1146 C1151 1.399 . S
C1147 C1146 1.399 . S
C1147 C1148 1.376 . S
C1148 H1135 0.930 . S
C1148 C1147 1.376 . S
C1148 C1149 1.388 . S
C1149 H1136 0.930 . S
C1149 C1148 1.388 . S
C1149 C1150 1.390 . S
C1150 C1149 1.390 . S
C1150 C1151 1.394 . S
C1150 C1156 1.465 . S
C1151 C1146 1.399 . S
C1151 C1150 1.394 . S
C1151 C1152 1.516 . S
C1152 C1151 1.516 . S
C1152 C1153 1.502 . S
C1152 C1154 1.561 . S
C1152 C1155 1.526 . S
C1153 H1137 0.959 . S
C1153 H1138 0.959 . S
C1153 H1139 0.961 . S
C1153 C1152 1.502 . S
C1154 H1140 0.960 . S
C1154 H1141 0.961 . S
C1154 H1142 0.959 . S
C1154 C1152 1.561 . S
C1155 C1152 1.526 . S
C1155 C1156 1.396 . S
C1155 C1160 1.390 . S
C1156 C1150 1.465 . S
C1156 C1155 1.396 . S
C1156 C1157 1.399 . S
C1157 H1143 0.929 . S
C1157 C1156 1.399 . S
C1157 C1158 1.385 . S
C1158 H1144 0.931 . S
C1158 C1157 1.385 . S
C1158 C1159 1.389 . S
C1159 C1158 1.389 . S
C1159 C1160 1.387 . S
C1160 H1145 0.930 . S
C1160 C1155 1.390 . S
C1160 C1159 1.387 . S
H1161 C1173 0.930 . S
H1162 C1175 0.930 . S
H1163 C1176 0.930 . S
H1164 C1180 0.959 . S
H1165 C1180 0.959 . S
H1166 C1180 0.961 . S
H1167 C1181 0.960 . S
H1168 C1181 0.961 . S
H1169 C1181 0.959 . S
H1170 C1184 0.929 . S
H1171 C1185 0.931 . S
H1172 C1187 0.930 . S
C1173 H1161 0.930 . S
C1173 C1174 1.399 . S
C1173 C1178 1.399 . S
C1174 C1173 1.399 . S
C1174 C1175 1.376 . S
C1175 H1162 0.930 . S
C1175 C1174 1.376 . S
C1175 C1176 1.388 . S
C1176 H1163 0.930 . S
C1176 C1175 1.388 . S
C1176 C1177 1.390 . S
C1177 C1176 1.390 . S
C1177 C1178 1.394 . S
C1177 C1183 1.465 . S
C1178 C1173 1.399 . S
C1178 C1177 1.394 . S
C1178 C1179 1.516 . S
C1179 C1178 1.516 . S
C1179 C1180 1.502 . S
C1179 C1181 1.561 . S
C1179 C1182 1.526 . S
C1180 H1164 0.959 . S
C1180 H1165 0.959 . S
C1180 H1166 0.961 . S
C1180 C1179 1.502 . S
C1181 H1167 0.960 . S
C1181 H1168 0.961 . S
C1181 H1169 0.959 . S
C1181 C1179 1.561 . S
C1182 C1179 1.526 . S
C1182 C1183 1.396 . S
C1182 C1187 1.390 . S
C1183 C1177 1.465 . S
C1183 C1182 1.396 . S
C1183 C1184 1.399 . S
C1184 H1170 0.929 . S
C1184 C1183 1.399 . S
C1184 C1185 1.385 . S
C1185 H1171 0.931 . S
C1185 C1184 1.385 . S
C1185 C1186 1.389 . S
C1186 C1185 1.389 . S
C1186 C1187 1.387 . S
C1187 H1172 0.930 . S
C1187 C1182 1.390 . S
C1187 C1186 1.387 . S
H1188 C1200 0.930 . S
H1189 C1202 0.930 . S
H1190 C1203 0.930 . S
H1191 C1207 0.959 . S
H1192 C1207 0.959 . S
H1193 C1207 0.961 . S
H1194 C1208 0.961 . S
H1195 C1208 0.960 1_545 S
H1196 C1208 0.955 1_545 S
H1197 C1211 0.929 . S
H1198 C1212 0.931 . S
H1199 C1214 0.930 . S
C1200 H1188 0.930 . S
C1200 C1201 1.399 . S
C1200 C1205 1.399 . S
C1201 C1200 1.399 . S
C1201 C1202 1.376 . S
C1202 H1189 0.930 . S
C1202 C1201 1.376 . S
C1202 C1203 1.388 . S
C1203 H1190 0.930 . S
C1203 C1202 1.388 . S
C1203 C1204 1.390 . S
C1204 C1203 1.390 . S
C1204 C1205 1.394 . S
C1204 C1210 1.465 . S
C1205 C1200 1.399 . S
C1205 C1204 1.394 . S
C1205 C1206 1.516 . S
C1206 C1205 1.516 . S
C1206 C1207 1.502 . S
C1206 C1208 1.565 . S
C1206 C1209 1.526 . S
C1207 H1191 0.959 . S
C1207 H1192 0.959 . S
C1207 H1193 0.961 . S
C1207 C1206 1.502 . S
C1208 H1194 0.961 . S
C1208 H1195 0.960 1_565 S
C1208 H1196 0.955 1_565 S
C1208 C1206 1.565 . S
C1209 C1206 1.526 . S
C1209 C1210 1.396 . S
C1209 C1214 1.390 1_565 S
C1210 C1204 1.465 . S
C1210 C1209 1.396 . S
C1210 C1211 1.399 1_565 S
C1211 H1197 0.929 . S
C1211 C1210 1.399 1_545 S
C1211 C1212 1.385 . S
C1212 H1198 0.931 . S
C1212 C1211 1.385 . S
C1212 C1213 1.389 . S
C1213 C1212 1.389 . S
C1213 C1214 1.387 . S
C1214 H1199 0.930 . S
C1214 C1209 1.390 1_545 S
C1214 C1213 1.387 . S
H1215 C1227 0.930 . S
H1216 C1229 0.930 . S
H1217 C1230 0.930 . S
H1218 C1234 0.959 . S
H1219 C1234 0.959 . S
H1220 C1234 0.961 . S
H1221 C1235 0.960 . S
H1222 C1235 0.961 . S
H1223 C1235 0.959 . S
H1224 C1238 0.929 . S
H1225 C1239 0.931 . S
H1226 C1241 0.930 . S
C1227 H1215 0.930 . S
C1227 C1228 1.399 . S
C1227 C1232 1.399 . S
C1228 C1227 1.399 . S
C1228 C1229 1.376 . S
C1229 H1216 0.930 . S
C1229 C1228 1.376 . S
C1229 C1230 1.388 . S
C1230 H1217 0.930 . S
C1230 C1229 1.388 . S
C1230 C1231 1.390 . S
C1231 C1230 1.390 . S
C1231 C1232 1.394 . S
C1231 C1237 1.465 . S
C1232 C1227 1.399 . S
C1232 C1231 1.394 . S
C1232 C1233 1.516 . S
C1233 C1232 1.516 . S
C1233 C1234 1.502 . S
C1233 C1235 1.561 . S
C1233 C1236 1.526 . S
C1234 H1218 0.959 . S
C1234 H1219 0.959 . S
C1234 H1220 0.961 . S
C1234 C1233 1.502 . S
C1235 H1221 0.960 . S
C1235 H1222 0.961 . S
C1235 H1223 0.959 . S
C1235 C1233 1.561 . S
C1236 C1233 1.526 . S
C1236 C1237 1.396 . S
C1236 C1241 1.390 1_455 S
C1237 C1231 1.465 . S
C1237 C1236 1.396 . S
C1237 C1238 1.399 . S
C1238 H1224 0.929 . S
C1238 C1237 1.399 . S
C1238 C1239 1.385 1_455 S
C1239 H1225 0.931 . S
C1239 C1238 1.385 1_655 S
C1239 C1240 1.389 . S
C1240 C1239 1.389 . S
C1240 C1241 1.387 . S
C1241 H1226 0.930 . S
C1241 C1236 1.390 1_655 S
C1241 C1240 1.387 . S
H1242 C1254 0.930 . S
H1243 C1256 0.930 . S
H1244 C1257 0.930 . S
H1245 C1261 0.959 . S
H1246 C1261 0.959 . S
H1247 C1261 0.961 . S
H1248 C1262 0.960 . S
H1249 C1262 0.961 . S
H1250 C1262 0.959 . S
H1251 C1265 0.929 . S
H1252 C1266 0.931 . S
H1253 C1268 0.930 . S
C1254 H1242 0.930 . S
C1254 C1255 1.399 . S
C1254 C1259 1.399 . S
C1255 C1254 1.399 . S
C1255 C1256 1.376 . S
C1256 H1243 0.930 . S
C1256 C1255 1.376 . S
C1256 C1257 1.388 . S
C1257 H1244 0.930 . S
C1257 C1256 1.388 . S
C1257 C1258 1.390 . S
C1258 C1257 1.390 . S
C1258 C1259 1.394 . S
C1258 C1264 1.465 . S
C1259 C1254 1.399 . S
C1259 C1258 1.394 . S
C1259 C1260 1.516 . S
C1260 C1259 1.516 . S
C1260 C1261 1.502 . S
C1260 C1262 1.561 . S
C1260 C1263 1.526 . S
C1261 H1245 0.959 . S
C1261 H1246 0.959 . S
C1261 H1247 0.961 . S
C1261 C1260 1.502 . S
C1262 H1248 0.960 . S
C1262 H1249 0.961 . S
C1262 H1250 0.959 . S
C1262 C1260 1.561 . S
C1263 C1260 1.526 . S
C1263 C1264 1.396 . S
C1263 C1268 1.390 . S
C1264 C1258 1.465 . S
C1264 C1263 1.396 . S
C1264 C1265 1.399 . S
C1265 H1251 0.929 . S
C1265 C1264 1.399 . S
C1265 C1266 1.385 . S
C1266 H1252 0.931 . S
C1266 C1265 1.385 . S
C1266 C1267 1.389 . S
C1267 C1266 1.389 . S
C1267 C1268 1.387 . S
C1268 H1253 0.930 . S
C1268 C1263 1.390 . S
C1268 C1267 1.387 . S
H1269 C1281 0.930 . S
H1270 C1283 0.930 . S
H1271 C1284 0.930 . S
H1272 C1288 0.959 . S
H1273 C1288 0.959 . S
H1274 C1288 0.961 . S
H1275 C1289 0.960 . S
H1276 C1289 0.961 . S
H1277 C1289 0.959 . S
H1278 C1292 0.929 . S
H1279 C1293 0.931 . S
H1280 C1295 0.930 . S
C1281 H1269 0.930 . S
C1281 C1282 1.399 . S
C1281 C1286 1.399 . S
C1282 C1281 1.399 . S
C1282 C1283 1.376 . S
C1283 H1270 0.930 . S
C1283 C1282 1.376 . S
C1283 C1284 1.388 . S
C1284 H1271 0.930 . S
C1284 C1283 1.388 . S
C1284 C1285 1.390 . S
C1285 C1284 1.390 . S
C1285 C1286 1.394 . S
C1285 C1291 1.465 . S
C1286 C1281 1.399 . S
C1286 C1285 1.394 . S
C1286 C1287 1.516 . S
C1287 C1286 1.516 . S
C1287 C1288 1.502 . S
C1287 C1289 1.561 . S
C1287 C1290 1.526 . S
C1288 H1272 0.959 . S
C1288 H1273 0.959 . S
C1288 H1274 0.961 . S
C1288 C1287 1.502 . S
C1289 H1275 0.960 . S
C1289 H1276 0.961 . S
C1289 H1277 0.959 . S
C1289 C1287 1.561 . S
C1290 C1287 1.526 . S
C1290 C1291 1.396 . S
C1290 C1295 1.390 . S
C1291 C1285 1.465 . S
C1291 C1290 1.396 . S
C1291 C1292 1.399 . S
C1292 H1278 0.929 . S
C1292 C1291 1.399 . S
C1292 C1293 1.385 . S
C1293 H1279 0.931 . S
C1293 C1292 1.385 . S
C1293 C1294 1.389 . S
C1294 C1293 1.389 . S
C1294 C1295 1.387 . S
C1295 H1280 0.930 . S
C1295 C1290 1.390 . S
C1295 C1294 1.387 . S
H1296 C1308 0.930 . S
H1297 C1310 0.930 . S
H1298 C1311 0.930 . S
H1299 C1315 0.959 . S
H1300 C1315 0.959 . S
H1301 C1315 0.961 . S
H1302 C1316 0.960 1_545 S
H1303 C1316 0.957 1_545 S
H1304 C1316 0.959 . S
H1305 C1319 0.929 . S
H1306 C1320 0.931 . S
H1307 C1322 0.930 . S
C1308 H1296 0.930 . S
C1308 C1309 1.399 . S
C1308 C1313 1.399 . S
C1309 C1308 1.399 . S
C1309 C1310 1.376 . S
C1310 H1297 0.930 . S
C1310 C1309 1.376 . S
C1310 C1311 1.388 . S
C1311 H1298 0.930 . S
C1311 C1310 1.388 . S
C1311 C1312 1.390 . S
C1312 C1311 1.390 . S
C1312 C1313 1.394 . S
C1312 C1318 1.465 . S
C1313 C1308 1.399 . S
C1313 C1312 1.394 . S
C1313 C1314 1.516 . S
C1314 C1313 1.516 . S
C1314 C1315 1.502 . S
C1314 C1316 1.561 . S
C1314 C1317 1.526 . S
C1315 H1299 0.959 . S
C1315 H1300 0.959 . S
C1315 H1301 0.961 . S
C1315 C1314 1.502 . S
C1316 H1302 0.960 1_565 S
C1316 H1303 0.957 1_565 S
C1316 H1304 0.959 . S
C1316 C1314 1.561 . S
C1317 C1314 1.526 . S
C1317 C1318 1.396 . S
C1317 C1322 1.390 . S
C1318 C1312 1.465 . S
C1318 C1317 1.396 . S
C1318 C1319 1.399 . S
C1319 H1305 0.929 . S
C1319 C1318 1.399 . S
C1319 C1320 1.385 . S
C1320 H1306 0.931 . S
C1320 C1319 1.385 . S
C1320 C1321 1.389 . S
C1321 C1320 1.389 . S
C1321 C1322 1.387 . S
C1322 H1307 0.930 . S
C1322 C1317 1.390 . S
C1322 C1321 1.387 . S
H1323 C1335 0.930 . S
H1324 C1337 0.930 1_565 S
H1325 C1338 0.930 . S
H1326 C1342 0.959 . S
H1327 C1342 0.959 . S
H1328 C1342 0.961 . S
H1329 C1343 0.960 . S
H1330 C1343 0.961 . S
H1331 C1343 0.959 . S
H1332 C1346 0.929 . S
H1333 C1347 0.931 . S
H1334 C1349 0.930 . S
C1335 H1323 0.930 . S
C1335 C1336 1.399 . S
C1335 C1340 1.399 . S
C1336 C1335 1.399 . S
C1336 C1337 1.376 . S
C1337 H1324 0.930 1_545 S
C1337 C1336 1.376 . S
C1337 C1338 1.388 . S
C1338 H1325 0.930 . S
C1338 C1337 1.388 . S
C1338 C1339 1.390 . S
C1339 C1338 1.390 . S
C1339 C1340 1.394 . S
C1339 C1345 1.465 . S
C1340 C1335 1.399 . S
C1340 C1339 1.394 . S
C1340 C1341 1.516 . S
C1341 C1340 1.516 . S
C1341 C1342 1.502 . S
C1341 C1343 1.561 . S
C1341 C1344 1.526 . S
C1342 H1326 0.959 . S
C1342 H1327 0.959 . S
C1342 H1328 0.961 . S
C1342 C1341 1.502 . S
C1343 H1329 0.960 . S
C1343 H1330 0.961 . S
C1343 H1331 0.959 . S
C1343 C1341 1.561 . S
C1344 C1341 1.526 . S
C1344 C1345 1.396 . S
C1344 C1349 1.390 . S
C1345 C1339 1.465 . S
C1345 C1344 1.396 . S
C1345 C1346 1.399 . S
C1346 H1332 0.929 . S
C1346 C1345 1.399 . S
C1346 C1347 1.385 . S
C1347 H1333 0.931 . S
C1347 C1346 1.385 . S
C1347 C1348 1.389 . S
C1348 C1347 1.389 . S
C1348 C1349 1.387 . S
C1349 H1334 0.930 . S
C1349 C1344 1.390 . S
C1349 C1348 1.387 . S
H1350 C1362 0.930 . S
H1351 C1364 0.930 . S
H1352 C1365 0.930 . S
H1353 C1369 0.959 . S
H1354 C1369 0.959 . S
H1355 C1369 0.961 . S
H1356 C1370 0.960 . S
H1357 C1370 0.961 . S
H1358 C1370 0.959 . S
H1359 C1373 0.929 . S
H1360 C1374 0.931 . S
H1361 C1376 0.930 . S
C1362 H1350 0.930 . S
C1362 C1363 1.399 . S
C1362 C1367 1.399 . S
C1363 C1362 1.399 . S
C1363 C1364 1.376 . S
C1364 H1351 0.930 . S
C1364 C1363 1.376 . S
C1364 C1365 1.388 . S
C1365 H1352 0.930 . S
C1365 C1364 1.388 . S
C1365 C1366 1.390 . S
C1366 C1365 1.390 . S
C1366 C1367 1.394 . S
C1366 C1372 1.465 . S
C1367 C1362 1.399 . S
C1367 C1366 1.394 . S
C1367 C1368 1.516 . S
C1368 C1367 1.516 . S
C1368 C1369 1.502 . S
C1368 C1370 1.561 . S
C1368 C1371 1.526 . S
C1369 H1353 0.959 . S
C1369 H1354 0.959 . S
C1369 H1355 0.961 . S
C1369 C1368 1.502 . S
C1370 H1356 0.960 . S
C1370 H1357 0.961 . S
C1370 H1358 0.959 . S
C1370 C1368 1.561 . S
C1371 C1368 1.526 . S
C1371 C1372 1.396 . S
C1371 C1376 1.390 . S
C1372 C1366 1.465 . S
C1372 C1371 1.396 . S
C1372 C1373 1.399 . S
C1373 H1359 0.929 . S
C1373 C1372 1.399 . S
C1373 C1374 1.385 . S
C1374 H1360 0.931 . S
C1374 C1373 1.385 . S
C1374 C1375 1.389 . S
C1375 C1374 1.389 . S
C1375 C1376 1.387 . S
C1376 H1361 0.930 . S
C1376 C1371 1.390 . S
C1376 C1375 1.387 . S
H1377 C1389 0.930 . S
H1378 C1391 0.930 . S
H1379 C1392 0.930 . S
H1380 C1396 0.959 . S
H1381 C1396 0.959 . S
H1382 C1396 0.961 . S
H1383 C1397 0.960 . S
H1384 C1397 0.961 . S
H1385 C1397 0.959 . S
H1386 C1400 0.929 . S
H1387 C1401 0.931 . S
H1388 C1403 0.930 . S
C1389 H1377 0.930 . S
C1389 C1390 1.399 . S
C1389 C1394 1.399 . S
C1390 C1389 1.399 . S
C1390 C1391 1.376 . S
C1391 H1378 0.930 . S
C1391 C1390 1.376 . S
C1391 C1392 1.388 . S
C1392 H1379 0.930 . S
C1392 C1391 1.388 . S
C1392 C1393 1.390 . S
C1393 C1392 1.390 . S
C1393 C1394 1.394 . S
C1393 C1399 1.465 . S
C1394 C1389 1.399 . S
C1394 C1393 1.394 . S
C1394 C1395 1.516 . S
C1395 C1394 1.516 . S
C1395 C1396 1.502 . S
C1395 C1397 1.561 . S
C1395 C1398 1.526 . S
C1396 H1380 0.959 . S
C1396 H1381 0.959 . S
C1396 H1382 0.961 . S
C1396 C1395 1.502 . S
C1397 H1383 0.960 . S
C1397 H1384 0.961 . S
C1397 H1385 0.959 . S
C1397 C1395 1.561 . S
C1398 C1395 1.526 . S
C1398 C1399 1.396 . S
C1398 C1403 1.390 . S
C1399 C1393 1.465 . S
C1399 C1398 1.396 . S
C1399 C1400 1.399 . S
C1400 H1386 0.929 . S
C1400 C1399 1.399 . S
C1400 C1401 1.385 . S
C1401 H1387 0.931 . S
C1401 C1400 1.385 . S
C1401 C1402 1.389 . S
C1402 C1401 1.389 . S
C1402 C1403 1.387 . S
C1403 H1388 0.930 . S
C1403 C1398 1.390 . S
C1403 C1402 1.387 . S
H1404 C1416 0.930 . S
H1405 C1418 0.930 . S
H1406 C1419 0.930 . S
H1407 C1423 0.959 . S
H1408 C1423 0.959 . S
H1409 C1423 0.961 . S
H1410 C1424 0.960 . S
H1411 C1424 0.961 . S
H1412 C1424 0.959 . S
H1413 C1427 0.929 . S
H1414 C1428 0.931 . S
H1415 C1430 0.930 . S
C1416 H1404 0.930 . S
C1416 C1417 1.399 . S
C1416 C1421 1.399 . S
C1417 C1416 1.399 . S
C1417 C1418 1.376 . S
C1418 H1405 0.930 . S
C1418 C1417 1.376 . S
C1418 C1419 1.388 . S
C1419 H1406 0.930 . S
C1419 C1418 1.388 . S
C1419 C1420 1.390 . S
C1420 C1419 1.390 . S
C1420 C1421 1.394 . S
C1420 C1426 1.465 . S
C1421 C1416 1.399 . S
C1421 C1420 1.394 . S
C1421 C1422 1.516 . S
C1422 C1421 1.516 . S
C1422 C1423 1.502 . S
C1422 C1424 1.561 . S
C1422 C1425 1.526 . S
C1423 H1407 0.959 . S
C1423 H1408 0.959 . S
C1423 H1409 0.961 . S
C1423 C1422 1.502 . S
C1424 H1410 0.960 . S
C1424 H1411 0.961 . S
C1424 H1412 0.959 . S
C1424 C1422 1.561 . S
C1425 C1422 1.526 . S
C1425 C1426 1.396 . S
C1425 C1430 1.390 . S
C1426 C1420 1.465 . S
C1426 C1425 1.396 . S
C1426 C1427 1.399 . S
C1427 H1413 0.929 . S
C1427 C1426 1.399 . S
C1427 C1428 1.385 . S
C1428 H1414 0.931 . S
C1428 C1427 1.385 . S
C1428 C1429 1.389 . S
C1429 C1428 1.389 . S
C1429 C1430 1.387 . S
C1430 H1415 0.930 . S
C1430 C1425 1.390 . S
C1430 C1429 1.387 . S
H1431 C1443 0.930 . S
H1432 C1445 0.930 . S
H1433 C1446 0.930 . S
H1434 C1450 0.959 . S
H1435 C1450 0.959 . S
H1436 C1450 0.961 . S
H1437 C1451 0.960 . S
H1438 C1451 0.961 . S
H1439 C1451 0.959 . S
H1440 C1454 0.929 . S
H1441 C1455 0.931 . S
H1442 C1457 0.930 . S
C1443 H1431 0.930 . S
C1443 C1444 1.399 . S
C1443 C1448 1.399 . S
C1444 C1443 1.399 . S
C1444 C1445 1.376 . S
C1445 H1432 0.930 . S
C1445 C1444 1.376 . S
C1445 C1446 1.388 1_565 S
C1446 H1433 0.930 . S
C1446 C1445 1.388 1_545 S
C1446 C1447 1.390 . S
C1447 C1446 1.390 . S
C1447 C1448 1.394 1_545 S
C1447 C1453 1.465 . S
C1448 C1443 1.399 . S
C1448 C1447 1.394 1_565 S
C1448 C1449 1.516 . S
C1449 C1448 1.516 . S
C1449 C1450 1.502 . S
C1449 C1451 1.561 . S
C1449 C1452 1.526 1_565 S
C1450 H1434 0.959 . S
C1450 H1435 0.959 . S
C1450 H1436 0.961 . S
C1450 C1449 1.502 . S
C1451 H1437 0.960 . S
C1451 H1438 0.961 . S
C1451 H1439 0.959 . S
C1451 C1449 1.561 . S
C1452 C1449 1.526 1_545 S
C1452 C1453 1.396 . S
C1452 C1457 1.390 . S
C1453 C1447 1.465 . S
C1453 C1452 1.396 . S
C1453 C1454 1.399 . S
C1454 H1440 0.929 . S
C1454 C1453 1.399 . S
C1454 C1455 1.385 . S
C1455 H1441 0.931 . S
C1455 C1454 1.385 . S
C1455 C1456 1.389 . S
C1456 C1455 1.389 . S
C1456 C1457 1.387 . S
C1457 H1442 0.930 . S
C1457 C1452 1.390 . S
C1457 C1456 1.387 . S
H1458 C1470 0.930 . S
H1459 C1472 0.930 . S
H1460 C1473 0.930 . S
H1461 C1477 0.959 . S
H1462 C1477 0.959 . S
H1463 C1477 0.961 . S
H1464 C1478 0.960 . S
H1465 C1478 0.961 . S
H1466 C1478 0.959 . S
H1467 C1481 0.929 . S
H1468 C1482 0.931 . S
H1469 C1484 0.930 . S
C1470 H1458 0.930 . S
C1470 C1471 1.399 . S
C1470 C1475 1.399 . S
C1471 C1470 1.399 . S
C1471 C1472 1.376 . S
C1472 H1459 0.930 . S
C1472 C1471 1.376 . S
C1472 C1473 1.388 . S
C1473 H1460 0.930 . S
C1473 C1472 1.388 . S
C1473 C1474 1.390 . S
C1474 C1473 1.390 . S
C1474 C1475 1.394 . S
C1474 C1480 1.465 . S
C1475 C1470 1.399 . S
C1475 C1474 1.394 . S
C1475 C1476 1.516 1_655 S
C1476 C1475 1.516 1_455 S
C1476 C1477 1.502 . S
C1476 C1478 1.561 . S
C1476 C1479 1.526 . S
C1477 H1461 0.959 . S
C1477 H1462 0.959 . S
C1477 H1463 0.961 . S
C1477 C1476 1.502 . S
C1478 H1464 0.960 . S
C1478 H1465 0.961 . S
C1478 H1466 0.959 . S
C1478 C1476 1.561 . S
C1479 C1476 1.526 . S
C1479 C1480 1.396 1_455 S
C1479 C1484 1.390 . S
C1480 C1474 1.465 . S
C1480 C1479 1.396 1_655 S
C1480 C1481 1.399 . S
C1481 H1467 0.929 . S
C1481 C1480 1.399 . S
C1481 C1482 1.385 1_655 S
C1482 H1468 0.931 . S
C1482 C1481 1.385 1_455 S
C1482 C1483 1.389 . S
C1483 C1482 1.389 . S
C1483 C1484 1.387 . S
C1484 H1469 0.930 . S
C1484 C1479 1.390 . S
C1484 C1483 1.387 . S
C769 C151 1.227 . S
C781 C58 1.043 . S
C796 C235 1.264 . S
C808 C142 0.978 . S
C823 C226 1.113 . S
C835 C67 1.203 . S
C850 C224 1.516 . S
C862 C153 1.183 . S
C877 C237 1.189 . S
C889 C56 1.511 . S
C904 C69 1.313 . S
C916 C140 1.445 . S
C931 C310 1.118 . S
C943 C403 1.200 . S
C958 C487 1.265 . S
C970 C394 0.971 . S
C985 C478 1.123 . S
C997 C319 1.198 . S
C1012 C405 1.284 . S
C1024 C476 1.471 . S
C1039 C489 1.197 . S
C1051 C308 1.513 . S
C1066 C392 1.434 . S
C1078 C321 1.339 . S
C1093 C655 1.226 . S
C1105 C562 1.068 . S
C1120 C646 1.022 . S
C1132 C739 1.237 . S
C1147 C730 1.144 . S
C1159 C571 1.185 . S
C1174 C728 1.433 . S
C1186 C657 1.334 1_565 S
C1201 C741 1.218 . S
C1213 C560 1.495 . S
C1228 C573 1.316 . S
C1240 C644 1.451 . S
C1255 C494 2.426 . S
C1267 C63 2.547 . S
C1282 C326 2.366 . S
C1294 C147 2.560 . S
C1309 C231 2.552 . S
C1321 C410 2.434 . S
C1336 C242 2.413 . S
C1348 C567 2.543 . S
C1363 C74 2.367 . S
C1375 C651 2.556 . S
C1390 C735 2.548 . S
C1402 C158 2.430 . S
C1417 C315 2.543 . S
C1429 C746 2.388 . S
C1444 C399 2.543 . S
C1456 C578 2.417 . S
C1471 C662 2.425 . S
C1483 C483 2.546 . S
