# Generated by pormake.
# Topology wmc, (6)-cn, num edge types: 1
# Building blocks:
#     Node 0, Type 0, BuildingBlock: IZENUY_clean_sbu_0, # of connection points: 6
#     Node 1, Type 0, BuildingBlock: IZENUY_clean_sbu_0, # of connection points: 6
#     Node 2, Type 0, BuildingBlock: IZENUY_clean_sbu_0, # of connection points: 6
#     Node 3, Type 0, BuildingBlock: IZENUY_clean_sbu_0, # of connection points: 6
#     Node 4, Type 0, BuildingBlock: IZENUY_clean_sbu_0, # of connection points: 6
#     Node 5, Type 0, BuildingBlock: IZENUY_clean_sbu_0, # of connection points: 6
#     Node 6, Type 0, BuildingBlock: IZENUY_clean_sbu_0, # of connection points: 6
#     Node 7, Type 0, BuildingBlock: IZENUY_clean_sbu_0, # of connection points: 6
#     Node 8, Type 0, BuildingBlock: IZENUY_clean_sbu_0, # of connection points: 6
#     Node 9, Type 0, BuildingBlock: IZENUY_clean_sbu_0, # of connection points: 6
#     Node 10, Type 0, BuildingBlock: IZENUY_clean_sbu_0, # of connection points: 6
#     Node 11, Type 0, BuildingBlock: IZENUY_clean_sbu_0, # of connection points: 6
#     Node 12, Type 0, BuildingBlock: IZENUY_clean_sbu_0, # of connection points: 6
#     Node 13, Type 0, BuildingBlock: IZENUY_clean_sbu_0, # of connection points: 6
#     Node 14, Type 0, BuildingBlock: IZENUY_clean_sbu_0, # of connection points: 6
#     Node 15, Type 0, BuildingBlock: IZENUY_clean_sbu_0, # of connection points: 6
#     Node 16, Type 0, BuildingBlock: IZENUY_clean_sbu_0, # of connection points: 6
#     Node 17, Type 0, BuildingBlock: IZENUY_clean_sbu_0, # of connection points: 6
#     Edge 18, Type (0, 0), BuildingBlock: XIVTED_clean_linker_0, # of connection points: 2
#     Edge 19, Type (0, 0), BuildingBlock: XIVTED_clean_linker_0, # of connection points: 2
#     Edge 20, Type (0, 0), BuildingBlock: XIVTED_clean_linker_0, # of connection points: 2
#     Edge 21, Type (0, 0), BuildingBlock: XIVTED_clean_linker_0, # of connection points: 2
#     Edge 22, Type (0, 0), BuildingBlock: XIVTED_clean_linker_0, # of connection points: 2
#     Edge 23, Type (0, 0), BuildingBlock: XIVTED_clean_linker_0, # of connection points: 2
#     Edge 24, Type (0, 0), BuildingBlock: XIVTED_clean_linker_0, # of connection points: 2
#     Edge 25, Type (0, 0), BuildingBlock: XIVTED_clean_linker_0, # of connection points: 2
#     Edge 26, Type (0, 0), BuildingBlock: XIVTED_clean_linker_0, # of connection points: 2
#     Edge 27, Type (0, 0), BuildingBlock: XIVTED_clean_linker_0, # of connection points: 2
#     Edge 28, Type (0, 0), BuildingBlock: XIVTED_clean_linker_0, # of connection points: 2
#     Edge 29, Type (0, 0), BuildingBlock: XIVTED_clean_linker_0, # of connection points: 2
#     Edge 30, Type (0, 0), BuildingBlock: XIVTED_clean_linker_0, # of connection points: 2
#     Edge 31, Type (0, 0), BuildingBlock: XIVTED_clean_linker_0, # of connection points: 2
#     Edge 32, Type (0, 0), BuildingBlock: XIVTED_clean_linker_0, # of connection points: 2
#     Edge 33, Type (0, 0), BuildingBlock: XIVTED_clean_linker_0, # of connection points: 2
#     Edge 34, Type (0, 0), BuildingBlock: XIVTED_clean_linker_0, # of connection points: 2
#     Edge 35, Type (0, 0), BuildingBlock: XIVTED_clean_linker_0, # of connection points: 2
#     Edge 36, Type (0, 0), BuildingBlock: XIVTED_clean_linker_0, # of connection points: 2
#     Edge 37, Type (0, 0), BuildingBlock: XIVTED_clean_linker_0, # of connection points: 2
#     Edge 38, Type (0, 0), BuildingBlock: XIVTED_clean_linker_0, # of connection points: 2
#     Edge 39, Type (0, 0), BuildingBlock: XIVTED_clean_linker_0, # of connection points: 2
#     Edge 40, Type (0, 0), BuildingBlock: XIVTED_clean_linker_0, # of connection points: 2
#     Edge 41, Type (0, 0), BuildingBlock: XIVTED_clean_linker_0, # of connection points: 2
#     Edge 42, Type (0, 0), BuildingBlock: XIVTED_clean_linker_0, # of connection points: 2
#     Edge 43, Type (0, 0), BuildingBlock: XIVTED_clean_linker_0, # of connection points: 2
#     Edge 44, Type (0, 0), BuildingBlock: XIVTED_clean_linker_0, # of connection points: 2
#     Edge 45, Type (0, 0), BuildingBlock: XIVTED_clean_linker_0, # of connection points: 2
#     Edge 46, Type (0, 0), BuildingBlock: XIVTED_clean_linker_0, # of connection points: 2
#     Edge 47, Type (0, 0), BuildingBlock: XIVTED_clean_linker_0, # of connection points: 2
#     Edge 48, Type (0, 0), BuildingBlock: XIVTED_clean_linker_0, # of connection points: 2
#     Edge 49, Type (0, 0), BuildingBlock: XIVTED_clean_linker_0, # of connection points: 2
#     Edge 50, Type (0, 0), BuildingBlock: XIVTED_clean_linker_0, # of connection points: 2
#     Edge 51, Type (0, 0), BuildingBlock: XIVTED_clean_linker_0, # of connection points: 2
#     Edge 52, Type (0, 0), BuildingBlock: XIVTED_clean_linker_0, # of connection points: 2
#     Edge 53, Type (0, 0), BuildingBlock: XIVTED_clean_linker_0, # of connection points: 2
#     Edge 54, Type (0, 0), BuildingBlock: XIVTED_clean_linker_0, # of connection points: 2
#     Edge 55, Type (0, 0), BuildingBlock: XIVTED_clean_linker_0, # of connection points: 2
#     Edge 56, Type (0, 0), BuildingBlock: XIVTED_clean_linker_0, # of connection points: 2
#     Edge 57, Type (0, 0), BuildingBlock: XIVTED_clean_linker_0, # of connection points: 2
#     Edge 58, Type (0, 0), BuildingBlock: XIVTED_clean_linker_0, # of connection points: 2
#     Edge 59, Type (0, 0), BuildingBlock: XIVTED_clean_linker_0, # of connection points: 2
#     Edge 60, Type (0, 0), BuildingBlock: XIVTED_clean_linker_0, # of connection points: 2
#     Edge 61, Type (0, 0), BuildingBlock: XIVTED_clean_linker_0, # of connection points: 2
#     Edge 62, Type (0, 0), BuildingBlock: XIVTED_clean_linker_0, # of connection points: 2
#     Edge 63, Type (0, 0), BuildingBlock: XIVTED_clean_linker_0, # of connection points: 2
#     Edge 64, Type (0, 0), BuildingBlock: XIVTED_clean_linker_0, # of connection points: 2
#     Edge 65, Type (0, 0), BuildingBlock: XIVTED_clean_linker_0, # of connection points: 2
#     Edge 66, Type (0, 0), BuildingBlock: XIVTED_clean_linker_0, # of connection points: 2
#     Edge 67, Type (0, 0), BuildingBlock: XIVTED_clean_linker_0, # of connection points: 2
#     Edge 68, Type (0, 0), BuildingBlock: XIVTED_clean_linker_0, # of connection points: 2
#     Edge 69, Type (0, 0), BuildingBlock: XIVTED_clean_linker_0, # of connection points: 2
#     Edge 70, Type (0, 0), BuildingBlock: XIVTED_clean_linker_0, # of connection points: 2
#     Edge 71, Type (0, 0), BuildingBlock: XIVTED_clean_linker_0, # of connection points: 2
# Relax obj value: 0.348
# Max RMSD: 0.273
# Mean RMSD: 0.273
data_MOF--net-wmc--node1-IZENUY_clean_sbu_0--edge1-XIVTED_clean_linker_0
_symmetry_space_group_name_H-M    P1
_symmetry_Int_Tables_number       1
_symmetry_cell_setting            triclinic
loop_
_symmetry_equiv_pos_as_xyz
'x, y, z'
_cell_length_a     45.28534
_cell_length_b     45.218794
_cell_length_c     30.032761
_cell_angle_alpha  90.309421
_cell_angle_beta   89.980581
_cell_angle_gamma 120.09772
loop_
_atom_site_label
_atom_site_type_symbol
_atom_site_fract_x
_atom_site_fract_y
_atom_site_fract_z
_atom_type_partial_charge
Fe0 Fe 0.68037 0.14194 0.96869 0.0
Fe1 Fe 0.61247 0.13328 0.00419 0.0
O2 O 0.65752 0.15686 0.00157 0.0
Fe3 Fe 0.68013 0.19579 0.03085 0.0
O4 O 0.69699 0.21791 0.97933 0.0
O5 O 0.71692 0.1853 0.9568 0.0
O6 O 0.66033 0.14542 0.91868 0.0
C7 C 0.62851 0.13147 0.91253 0.0
C8 C 0.72224 0.16538 0.04138 0.0
O9 O 0.60757 0.12029 0.94485 0.0
C10 C 0.63324 0.15634 0.09348 0.0
O11 O 0.64661 0.09537 0.97181 0.0
O12 O 0.61414 0.09652 0.02369 0.0
O13 O 0.71747 0.19079 0.04173 0.0
O14 O 0.70332 0.139 0.01761 0.0
C15 C 0.62258 0.19822 -0.00096 0.0
O16 O 0.61033 0.14338 0.06345 0.0
O17 O 0.66413 0.17558 0.08364 0.0
C18 C 0.62026 0.07935 -0.0037 0.0
O19 O 0.60766 0.16814 0.98451 0.0
O20 O 0.64742 0.2084 0.02578 0.0
C21 C 0.71743 0.21363 0.95574 0.0
Fe22 Fe 0.94022 0.55778 0.97416 0.0
Fe23 Fe 0.95774 0.50449 0.0092 0.0
O24 O 0.93161 0.52318 0.01008 0.0
Fe25 Fe 0.89682 0.50717 0.04679 0.0
O26 O 0.86791 0.49544 0.00068 0.0
O27 O 0.89452 0.54556 0.96817 0.0
O28 O 0.93403 0.53154 0.92594 0.0
C29 C 0.94984 0.5158 0.91797 0.0
C30 C 0.92136 0.57933 0.04845 0.0
O31 O 0.9657 0.51009 0.94852 0.0
C32 C 0.94483 0.50728 0.10093 0.0
O33 O 0.98775 0.57438 0.97121 0.0
O34 O 0.99379 0.54526 0.02387 0.0
O35 O 0.89855 0.54841 0.05477 0.0
O36 O 0.94547 0.58661 0.02089 0.0
C37 C 0.89539 0.44748 0.01561 0.0
O38 O 0.95349 0.49473 0.06908 0.0
O39 O 0.92439 0.51807 0.09469 0.0
C40 C 1.00726 0.56765 0.99456 0.0
O41 O 0.92292 0.46299 0.99463 0.0
O42 O 0.88793 0.46267 0.04528 0.0
C43 C 0.8682 0.51611 0.97269 0.0
Fe44 Fe 0.52107 0.40377 0.96923 0.0
Fe45 Fe 0.58464 0.4643 0.01263 0.0
O46 O 0.55545 0.41982 0.00784 0.0
Fe47 Fe 0.56244 0.39153 0.04099 0.0
O48 O 0.54542 0.35652 0.00135 0.0
O49 O 0.53618 0.3777 0.941 0.0
O50 O 0.54496 0.43642 0.92759 0.0
C51 C 0.57661 0.4566 0.92206 0.0
C52 C 0.49343 0.35839 0.04529 0.0
O53 O 0.5974 0.46661 0.95446 0.0
C54 C 0.57491 0.44492 0.09957 0.0
O55 O 0.50413 0.4306 0.99181 0.0
O56 O 0.55438 0.47738 -0.00216 0.0
O57 O 0.521 0.37453 0.06702 0.0
O58 O 0.49164 0.36697 0.00526 0.0
C59 C 0.62744 0.43732 0.01467 0.0
O60 O 0.57292 0.46413 0.07075 0.0
O61 O 0.58036 0.42119 0.08784 0.0
C62 C 0.52247 0.46313 0.99491 0.0
O63 O 0.6211 0.45997 0.028 0.0
O64 O 0.6042 0.40636 0.01535 0.0
C65 C 0.54241 0.35657 0.95987 0.0
Fe66 Fe 0.94773 0.4674 0.50868 0.0
Fe67 Fe 0.88542 0.40164 0.53845 0.0
O68 O 0.92297 0.42241 0.50674 0.0
Fe69 Fe 0.93578 0.3982 0.47309 0.0
O70 O 0.93266 0.41874 0.4235 0.0
O71 O 0.96053 0.47153 0.4496 0.0
O72 O 0.91339 0.47295 0.48882 0.0
C73 C 0.88404 0.4592 0.50527 0.0
C74 C 0.99975 0.45741 0.5006 0.0
O75 O 0.87499 0.43609 0.53442 0.0
C76 C 0.91217 0.35604 0.54523 0.0
O77 O 0.93852 0.47116 0.56743 0.0
O78 O 0.90865 0.41799 0.59 0.0
O79 O 0.98309 0.43073 0.47618 0.0
O80 O 0.98305 0.46356 0.52854 0.0
C81 C 0.86383 0.36474 0.46219 0.0
O82 O 0.88823 0.36289 0.54788 0.0
O83 O 0.93826 0.37429 0.52111 0.0
C84 C 0.92816 0.44925 0.59833 0.0
O85 O 0.86078 0.38471 0.48853 0.0
O86 O 0.89123 0.36335 0.46152 0.0
C87 C 0.94821 0.45058 0.41729 0.0
Fe88 Fe 0.61067 0.48292 0.51242 0.0
Fe89 Fe 0.68283 0.50198 0.53978 0.0
O90 O 0.65526 0.51151 0.5087 0.0
Fe91 Fe 0.67194 0.54779 0.47341 0.0
O92 O 0.63959 0.52592 0.43023 0.0
O93 O 0.60794 0.47255 0.45326 0.0
O94 O 0.61411 0.44532 0.52376 0.0
C95 C 0.63591 0.43886 0.50769 0.0
C96 C 0.6129 0.54619 0.50044 0.0
O97 O 0.6671 0.46126 0.50993 0.0
C98 C 0.71694 0.57102 0.5508 0.0
O99 O 0.61145 0.49261 0.57148 0.0
O100 O 0.65302 0.48247 0.58592 0.0
O101 O 0.6454 0.56418 0.49833 0.0
O102 O 0.59827 0.51419 0.50123 0.0
C103 C 0.71854 0.5262 0.45996 0.0
O104 O 0.70089 0.54228 0.56975 0.0
O105 O 0.70841 0.57511 0.51162 0.0
C106 C 0.63022 0.48876 0.59924 0.0
O107 O 0.71777 0.52009 0.50072 0.0
O108 O 0.69809 0.5341 0.44274 0.0
C109 C 0.61854 0.49463 0.42251 0.0
Fe110 Fe 0.58103 0.13069 0.50711 0.0
Fe111 Fe 0.56109 0.18185 0.54198 0.0
O112 O 0.55284 0.14721 0.50618 0.0
Fe113 Fe 0.5182 0.13066 0.46793 0.0
O114 O 0.54057 0.12115 0.4245 0.0
O115 O 0.59332 0.14315 0.44921 0.0
O116 O 0.61855 0.17018 0.52447 0.0
C117 C 0.62591 0.20006 0.51468 0.0
C118 C 0.51719 0.07135 0.49028 0.0
O119 O 0.60337 0.20853 0.51748 0.0
C120 C 0.49189 0.14823 0.54581 0.0
O121 O 0.57005 0.11736 0.56457 0.0
O122 O 0.57726 0.167 0.5874 0.0
O123 O 0.49982 0.08653 0.4893 0.0
O124 O 0.54928 0.08812 0.49021 0.0
C125 C 0.54353 0.20016 0.46188 0.0
O126 O 0.51925 0.15825 0.56748 0.0
O127 O 0.48997 0.13893 0.50516 0.0
C128 C 0.57248 0.13744 0.59564 0.0
O129 O 0.54598 0.20227 0.5036 0.0
O130 O 0.53516 0.17254 0.44169 0.0
C131 C 0.57213 0.13345 0.41729 0.0
Fe132 Fe 0.33873 0.46738 0.30862 0.0
Fe133 Fe 0.27952 0.47203 0.35231 0.0
O134 O 0.32373 0.48706 0.34659 0.0
Fe135 Fe 0.35282 0.52369 0.37773 0.0
O136 O 0.3868 0.54006 0.33686 0.0
O137 O 0.36362 0.50751 0.27832 0.0
O138 O 0.30509 0.45719 0.26756 0.0
C139 C 0.28532 0.46909 0.26165 0.0
C140 C 0.38578 0.48774 0.38403 0.0
O141 O 0.27598 0.48074 0.29381 0.0
C142 C 0.30093 0.48475 0.43853 0.0
O143 O 0.31249 0.42435 0.33319 0.0
O144 O 0.26602 0.42814 0.33925 0.0
O145 O 0.37044 0.50034 0.40504 0.0
O146 O 0.37646 0.47612 0.34432 0.0
C147 C 0.30644 0.54164 0.3502 0.0
O148 O 0.28121 0.46243 0.41073 0.0
O149 O 0.32429 0.51366 0.42538 0.0
C150 C 0.28006 0.41026 0.33672 0.0
O151 O 0.2844 0.51345 0.36611 0.0
O152 O 0.33737 0.54953 0.3505 0.0
C153 C 0.38496 0.53573 0.29546 0.0
Fe154 Fe 0.60129 0.87946 0.31082 0.0
Fe155 Fe 0.59629 0.81461 0.35161 0.0
O156 O 0.58094 0.8436 0.34663 0.0
Fe157 Fe 0.54368 0.83492 0.37679 0.0
O158 O 0.52775 0.85308 0.33643 0.0
O159 O 0.56191 0.8656 0.27911 0.0
O160 O 0.61214 0.85709 0.26888 0.0
C161 C 0.60138 0.82567 0.26155 0.0
C162 C 0.57912 0.90392 0.38646 0.0
O163 O 0.58916 0.80379 0.29247 0.0
C164 C 0.58191 0.82128 0.4379 0.0
O165 O 0.64374 0.89573 0.33698 0.0
O166 O 0.6403 0.84555 0.34099 0.0
O167 O 0.56616 0.87546 0.40617 0.0
O168 O 0.59199 0.90733 0.34756 0.0
C169 C 0.52686 0.77137 0.34578 0.0
O170 O 0.60465 0.82467 0.41061 0.0
O171 O 0.5531 0.81552 0.42402 0.0
C172 C 0.65797 0.87757 0.34003 0.0
O173 O 0.55477 0.77744 0.3627 0.0
O174 O 0.51853 0.79409 0.34733 0.0
C175 C 0.5335 0.85835 0.29555 0.0
Fe176 Fe 0.18766 0.72874 0.29842 0.0
Fe177 Fe 0.24439 0.79846 0.33327 0.0
O178 O 0.22457 0.75352 0.33184 0.0
Fe179 Fe 0.24155 0.7331 0.36379 0.0
O180 O 0.25003 0.7168 0.31388 0.0
O181 O 0.19797 0.69425 0.28731 0.0
O182 O 0.21115 0.74875 0.24865 0.0
C183 C 0.22785 0.78047 0.24174 0.0
C184 C 0.16939 0.68701 0.37053 0.0
O185 O 0.2363 0.80196 0.27353 0.0
C186 C 0.24525 0.78034 0.4235 0.0
O187 O 0.17251 0.76076 0.30034 0.0
O188 O 0.20503 0.7948 0.35223 0.0
O189 O 0.20016 0.6937 0.37228 0.0
O190 O 0.16163 0.70565 0.34724 0.0
C191 C 0.30043 0.79115 0.33159 0.0
O192 O 0.2566 0.80236 0.39256 0.0
O193 O 0.23392 0.74911 0.41514 0.0
C194 C 0.18165 0.78725 0.32461 0.0
O195 O 0.28458 0.80431 0.31439 0.0
O196 O 0.28631 0.76802 0.36069 0.0
C197 C 0.22734 0.69686 0.28711 0.0
Fe198 Fe 0.60776 0.73957 0.80669 0.0
Fe199 Fe 0.60673 0.80042 0.85224 0.0
O200 O 0.5901 0.75582 0.84596 0.0
Fe201 Fe 0.55391 0.72775 0.878 0.0
O202 O 0.53532 0.69357 0.83718 0.0
O203 O 0.56666 0.71523 0.7777 0.0
O204 O 0.61775 0.77324 0.76608 0.0
C205 C 0.60684 0.79395 0.76134 0.0
C206 C 0.58781 0.69257 0.88168 0.0
O207 O 0.59672 0.80414 0.79428 0.0
C208 C 0.59581 0.7792 0.93833 0.0
O209 O 0.65165 0.76502 0.82969 0.0
O210 O 0.64979 0.81253 0.83727 0.0
O211 O 0.57661 0.70879 0.90367 0.0
O212 O 0.59882 0.70165 0.84185 0.0
C213 C 0.5377 0.77586 0.85275 0.0
O214 O 0.61769 0.79853 0.91013 0.0
O215 O 0.56623 0.75664 0.92585 0.0
C216 C 0.66674 0.79761 0.83341 0.0
O217 O 0.56649 0.79712 0.86816 0.0
O218 O 0.52867 0.74458 0.85237 0.0
C219 C 0.53864 0.69475 0.79569 0.0
Fe220 Fe 0.27788 0.83204 0.83351 0.0
Fe221 Fe 0.34395 0.83683 0.86502 0.0
O222 O 0.32288 0.85307 0.83295 0.0
Fe223 Fe 0.34689 0.89036 0.80011 0.0
O224 O 0.32741 0.86659 0.74989 0.0
O225 O 0.27425 0.84046 0.77396 0.0
O226 O 0.27334 0.79241 0.81374 0.0
C227 C 0.28712 0.77704 0.83067 0.0
C228 C 0.28741 0.89435 0.82646 0.0
O229 O 0.31024 0.79152 0.86 0.0
C230 C 0.38785 0.90949 0.87376 0.0
O231 O 0.27381 0.81922 0.89242 0.0
O232 O 0.32685 0.84304 0.91613 0.0
O233 O 0.31387 0.90415 0.8022 0.0
O234 O 0.28031 0.87078 0.85341 0.0
C235 C 0.38109 0.85297 0.78924 0.0
O236 O 0.38204 0.87896 0.87572 0.0
O237 O 0.36956 0.91679 0.84896 0.0
C238 C 0.29555 0.83092 0.92382 0.0
O239 O 0.36165 0.82977 0.81544 0.0
O240 O 0.38236 0.88172 0.78953 0.0
C241 C 0.29578 0.84934 0.74246 0.0
Fe242 Fe 0.1964 0.47326 0.80882 0.0
Fe243 Fe 0.26082 0.47885 0.85218 0.0
O244 O 0.23128 0.49347 0.84653 0.0
Fe245 Fe 0.23855 0.53004 0.87773 0.0
O246 O 0.22078 0.54616 0.83704 0.0
O247 O 0.21057 0.51324 0.7785 0.0
O248 O 0.22004 0.46354 0.76765 0.0
C249 C 0.25166 0.47515 0.76168 0.0
C250 C 0.16948 0.49352 0.88379 0.0
O251 O 0.27281 0.48723 0.79362 0.0
C252 C 0.25229 0.49158 0.93857 0.0
O253 O 0.18023 0.43036 0.83348 0.0
O254 O 0.23072 0.43471 0.83952 0.0
O255 O 0.19743 0.5064 0.90496 0.0
O256 O 0.16721 0.48138 0.84449 0.0
C257 C 0.30306 0.54865 0.84947 0.0
O258 O 0.24979 0.46939 0.91068 0.0
O259 O 0.25727 0.5203 0.9255 0.0
C260 C 0.1988 0.41655 0.83705 0.0
O261 O 0.29718 0.52058 0.86553 0.0
O262 O 0.27987 0.55633 0.85037 0.0
C263 C 0.21693 0.54128 0.7958 0.0
Fe264 Fe 1.00403 0.79726 0.64283 0.0
Fe265 Fe 0.94177 0.79751 0.68394 0.0
O266 O 0.98649 0.81361 0.6823 0.0
Fe267 Fe 1.01346 0.84758 0.71886 0.0
O268 O 0.04886 0.86845 0.68041 0.0
O269 O 1.02987 0.83958 0.6178 0.0
O270 O 0.97228 0.78899 0.59999 0.0
C271 C 0.95255 0.80082 0.59383 0.0
C272 C 0.04859 0.81354 0.71961 0.0
O273 O 0.94153 0.81049 0.62633 0.0
C274 C 0.95732 0.80308 0.77251 0.0
O275 O 0.97764 0.75274 0.66268 0.0
O276 O 0.93017 0.75495 0.66602 0.0
O277 O 1.03155 0.82326 0.74256 0.0
O278 O 1.04029 0.80424 0.67919 0.0
C279 C 0.96735 0.86702 0.69357 0.0
O280 O 0.93947 0.78353 0.74111 0.0
O281 O 0.98272 0.83235 0.7647 0.0
C282 C 0.94508 0.73786 0.664 0.0
O283 O 0.94446 0.83707 0.70241 0.0
O284 O 0.99826 0.87507 0.69618 0.0
C285 C 0.04976 0.86668 0.63873 0.0
Fe286 Fe 0.27072 0.22349 0.64481 0.0
Fe287 Fe 0.27622 0.1614 0.67484 0.0
O288 O 0.25453 0.18474 0.67546 0.0
Fe289 Fe 0.2166 0.1695 0.70617 0.0
O290 O 0.19343 0.16655 0.65593 0.0
O291 O 0.22825 0.21916 0.63528 0.0
O292 O 0.26505 0.20058 0.59312 0.0
C293 C 0.27768 0.18178 0.58481 0.0
C294 C 0.25026 0.24216 0.72024 0.0
O295 O 0.28888 0.17095 0.61582 0.0
C296 C 0.25621 0.15859 0.7649 0.0
O297 O 0.31662 0.23401 0.64645 0.0
O298 O 0.31402 0.19832 0.69601 0.0
O299 O 0.22405 0.21244 0.72015 0.0
O300 O 0.27582 0.24884 0.69549 0.0
C301 C 0.21041 0.10859 0.6697 0.0
O302 O 0.26639 0.14735 0.73316 0.0
O303 O 0.23799 0.17182 0.75769 0.0
C304 C 0.3318 0.22222 0.66999 0.0
O305 O 0.23993 0.12315 0.65369 0.0
O306 O 0.20187 0.12367 0.69818 0.0
C307 C 0.19895 0.19249 0.63421 0.0
Fe308 Fe 0.85408 0.06582 0.64567 0.0
Fe309 Fe 0.90614 0.13774 0.67961 0.0
O310 O 0.88849 0.09307 0.68144 0.0
Fe311 Fe 0.90566 0.07585 0.7188 0.0
O312 O 0.91789 0.05853 0.67317 0.0
O313 O 0.86751 0.03315 0.64071 0.0
O314 O 0.87976 0.08566 0.59717 0.0
C315 C 0.89443 0.11714 0.58886 0.0
C316 C 0.83402 1.02631 0.72043 0.0
O317 O 0.89966 0.13885 0.6192 0.0
C318 C 0.90443 0.12389 0.77157 0.0
O319 O 0.83634 0.09591 0.64199 0.0
O320 O 0.86522 0.13237 0.69421 0.0
O321 O 0.86518 0.03557 0.72705 0.0
O322 O 0.82589 0.04231 0.69261 0.0
C323 C 0.96397 0.13435 0.68659 0.0
O324 O 0.91664 0.14462 0.7394 0.0
O325 O 0.89412 0.0926 0.76597 0.0
C326 C 0.84276 0.12263 0.66461 0.0
O327 O 0.94748 0.14469 0.66458 0.0
O328 O 0.94974 0.11272 0.7174 0.0
C329 C 0.89712 0.03686 0.64594 0.0
Fe330 Fe 0.27285 0.06254 0.14066 0.0
Fe331 Fe 0.2859 0.13271 0.17395 0.0
O332 O 0.26181 0.08764 0.17532 0.0
Fe333 Fe 0.22659 0.06763 0.21116 0.0
O334 O 0.19872 0.04832 0.16431 0.0
O335 O 0.22815 1.02683 0.13423 0.0
O336 O 0.26577 0.08067 0.09153 0.0
C337 C 0.28014 0.1121 0.08298 0.0
C338 C 0.25491 1.02342 0.21537 0.0
O339 O 0.29464 0.13455 0.11339 0.0
C340 C 0.27196 0.11795 0.26591 0.0
O341 O 0.31977 0.09555 0.13837 0.0
O342 O 0.32316 0.13079 0.18999 0.0
O343 O 0.23086 1.02982 0.22054 0.0
O344 O 0.27916 0.04095 0.18837 0.0
C345 C 0.22205 0.12375 0.17861 0.0
O346 O 0.28048 0.13866 0.23366 0.0
O347 O 0.25305 0.08629 0.25972 0.0
C348 C 0.33792 0.12254 0.16153 0.0
O349 O 0.24984 0.13677 0.15806 0.0
O350 O 0.21516 0.10135 0.20818 0.0
C351 C 0.20068 1.02784 0.13768 0.0
Fe352 Fe 1.01169 0.22403 0.14715 0.0
Fe353 Fe 0.94072 0.16919 0.17963 0.0
O354 O 0.98551 0.18835 0.18141 0.0
Fe355 Fe 1.00398 0.1715 0.21729 0.0
O356 O 1.02211 0.16143 0.17046 0.0
O357 O 0.04565 0.21261 0.14069 0.0
O358 O 0.99237 0.1991 0.09747 0.0
C359 C 0.96082 0.18347 0.08914 0.0
C360 C 0.05114 0.24363 0.22234 0.0
O361 O 0.93907 0.17664 0.11973 0.0
C362 C 0.95529 0.1699 0.27128 0.0
O363 O 0.9804 0.24021 0.14517 0.0
O364 O 0.94444 0.20924 0.1962 0.0
O365 O 1.04322 0.21265 0.22707 0.0
O366 O 1.03451 0.25155 0.19528 0.0
C367 C 0.94641 0.11236 0.18356 0.0
O368 O 0.93445 0.15763 0.239 0.0
O369 O 0.98663 0.18104 0.26556 0.0
C370 C 0.95341 0.23224 0.16766 0.0
O371 O 0.93518 0.12854 0.16257 0.0
O372 O 0.96831 0.12678 0.21426 0.0
C373 C 1.04345 0.18353 0.14441 0.0
Fe374 Fe 0.90656 0.79388 0.18123 0.0
Fe375 Fe 0.89983 0.85548 0.2083 0.0
O376 O 0.88462 0.81694 0.17845 0.0
Fe377 Fe 0.84703 0.80156 0.14502 0.0
O378 O 0.87149 0.80678 0.09528 0.0
O379 O 0.89983 0.78228 0.12123 0.0
O380 O 0.94651 0.82922 0.16345 0.0
C381 C 0.96094 0.85912 0.1785 0.0
C382 C 0.84581 0.73937 0.17068 0.0
O383 O 0.94531 0.86916 0.20368 0.0
C384 C 0.82721 0.82277 0.21865 0.0
O385 O 0.91756 0.80297 0.24093 0.0
O386 O 0.89589 0.83515 0.26082 0.0
O387 O 0.83537 0.75524 0.14623 0.0
O388 O 0.86797 0.75659 0.19924 0.0
C389 C 0.87967 0.87343 0.13415 0.0
O390 O 0.85696 0.84891 0.21912 0.0
O391 O 0.82048 0.79696 0.19399 0.0
C392 C 0.90756 0.816 0.27078 0.0
O393 O 0.90483 0.87809 0.15702 0.0
O394 O 0.85247 0.84453 0.13476 0.0
C395 C 0.89022 0.79377 0.08903 0.0
H396 H 0.65756 0.26831 3e-05 0.0
H397 H 0.50015 0.28883 0.946 0.0
H398 H 0.56069 0.18132 0.96258 0.0
H399 H 0.60315 0.37071 0.92627 0.0
H400 H 0.52066 0.24802 0.94608 0.0
H401 H 0.63771 0.30621 0.97217 0.0
C402 C 0.63206 0.2572 0.98622 0.0
C403 C 0.6106 0.22162 0.9842 0.0
C404 C 0.53867 0.27474 0.93999 0.0
C405 C 0.58786 0.26476 0.95179 0.0
C406 C 0.52682 0.29793 0.93898 0.0
C407 C 0.54997 0.33305 0.93549 0.0
C408 C 0.57398 0.28705 0.93884 0.0
C409 C 0.58448 0.34373 0.92834 0.0
C410 C 0.62092 0.27881 0.96974 0.0
C411 C 0.57801 0.20861 0.96514 0.0
N412 N 0.59565 0.32096 0.93161 0.0
N413 N 0.56749 0.23015 0.95019 0.0
H414 H 0.78439 0.23053 0.96346 0.0
H415 H 0.82618 0.41526 0.01892 0.0
H416 H 0.71954 0.26955 0.92086 0.0
H417 H 0.90938 0.39933 0.9825 0.0
H418 H 0.78589 0.35826 0.99013 0.0
H419 H 0.83169 0.28955 0.9721 0.0
C420 C 0.78057 0.25143 0.95381 0.0
C421 C 0.74801 0.24533 0.94187 0.0
C422 C 0.813 0.36728 0.98845 0.0
C423 C 0.80106 0.31219 0.95363 0.0
C424 C 0.8359 0.39951 0.00552 0.0
C425 C 0.87103 0.41177 0.0034 0.0
C426 C 0.82529 0.34691 0.97003 0.0
C427 C 0.88238 0.39061 0.98485 0.0
C428 C 0.80738 0.28505 0.95941 0.0
C429 C 0.74424 0.27331 0.93054 0.0
N430 N 0.85951 0.35892 0.96923 0.0
N431 N 0.77016 0.30557 0.93794 0.0
H432 H 0.65418 0.39746 0.98586 0.0
H433 H 0.8416 0.55848 0.96465 0.0
H434 H 0.67969 0.50244 0.00467 0.0
H435 H 0.81779 0.45428 0.94496 0.0
H436 H 0.78047 0.53902 0.96336 0.0
H437 H 0.71231 0.41787 0.95853 0.0
C438 C 0.67193 0.4247 0.98431 0.0
C439 C 0.66223 0.4482 -0.00155 0.0
C440 C 0.78862 0.52048 0.95818 0.0
C441 C 0.72839 0.47175 0.96663 0.0
C442 C 0.82355 0.53173 0.95822 0.0
C443 C 0.83453 0.50785 0.95545 0.0
C444 C 0.76484 0.48519 0.95571 0.0
C445 C 0.81013 0.47338 0.94772 0.0
C446 C 0.705 0.43637 0.96839 0.0
C447 C 0.68613 0.48328 0.99498 0.0
N448 N 0.77637 0.46295 0.94907 0.0
N449 N 0.71806 0.49392 0.97977 0.0
H450 H 0.78518 0.57263 0.44691 0.0
H451 H 0.81435 0.42236 0.50518 0.0
H452 H 0.70841 0.46791 0.4221 0.0
H453 H 0.89932 0.52006 0.46725 0.0
H454 H 0.77524 0.43947 0.47406 0.0
H455 H 0.82875 0.55574 0.44791 0.0
C456 C 0.77784 0.54643 0.4388 0.0
C457 C 0.7433 0.52162 0.43411 0.0
C458 C 0.80247 0.45707 0.47228 0.0
C459 C 0.79233 0.50174 0.43833 0.0
C460 C 0.82473 0.44753 0.4907 0.0
C461 C 0.86006 0.47003 0.48943 0.0
C462 C 0.81559 0.4896 0.45319 0.0
C463 C 0.8722 0.50206 0.46929 0.0
C464 C 0.80258 0.53663 0.44036 0.0
C465 C 0.7349 0.48781 0.42532 0.0
N466 N 0.84999 0.51109 0.45249 0.0
N467 N 0.75907 0.47859 0.42924 0.0
H468 H 0.60549 0.2424 0.42697 0.0
H469 H 0.57186 0.39561 0.4784 0.0
H470 H 0.50691 0.23184 0.45024 0.0
H471 H 0.67178 0.40584 0.48581 0.0
H472 H 0.54933 0.33895 0.44662 0.0
H473 H 0.63082 0.30475 0.42519 0.0
C474 C 0.58893 0.25322 0.42919 0.0
C475 C 0.5541 0.23219 0.43844 0.0
C476 C 0.57622 0.3535 0.45496 0.0
C477 C 0.58277 0.30305 0.43785 0.0
C478 C 0.58915 0.38587 0.47351 0.0
C479 C 0.62362 0.40515 0.48616 0.0
C480 C 0.59769 0.3398 0.44923 0.0
C481 C 0.6449 0.39153 0.47743 0.0
C482 C 0.60346 0.28877 0.42897 0.0
C483 C 0.53378 0.24726 0.44237 0.0
N484 N 0.63145 0.35934 0.46012 0.0
N485 N 0.5485 0.28182 0.44274 0.0
H486 H 0.65277 0.26635 0.48522 0.0
H487 H 0.84038 0.29613 0.4644 0.0
H488 H 0.67846 0.18748 0.50618 0.0
H489 H 0.81272 0.37054 0.42482 0.0
H490 H 0.7798 0.25283 0.46757 0.0
H491 H 0.7101 0.30317 0.45515 0.0
C492 C 0.6704 0.25681 0.4836 0.0
C493 C 0.66084 0.22392 0.49871 0.0
C494 C 0.78695 0.27839 0.45689 0.0
C495 C 0.72628 0.26563 0.46397 0.0
C496 C 0.8216 0.30292 0.45425 0.0
C497 C 0.83138 0.33689 0.44472 0.0
C498 C 0.76226 0.28822 0.45039 0.0
C499 C 0.80601 0.34454 0.43261 0.0
C500 C 0.70303 0.27768 0.46607 0.0
C501 C 0.68473 0.21278 0.49545 0.0
N502 N 0.77256 0.32062 0.43688 0.0
N503 N 0.7163 0.23362 0.47875 0.0
H504 H 0.18326 0.62776 0.28151 0.0
H505 H 0.34497 0.60645 0.31547 0.0
H506 H 0.28611 0.7062 0.25121 0.0
H507 H 0.24089 0.5259 0.33569 0.0
H508 H 0.32345 0.64043 0.27937 0.0
H509 H 0.20247 0.58597 0.28448 0.0
C510 C 0.20956 0.63587 0.27362 0.0
C511 C 0.23339 0.6705 0.26756 0.0
C512 C 0.30536 0.61516 0.29138 0.0
C513 C 0.25582 0.62348 0.27222 0.0
C514 C 0.31768 0.59591 0.3123 0.0
C515 C 0.29477 0.56356 0.32935 0.0
C516 C 0.26991 0.60197 0.28773 0.0
C517 C 0.25959 0.55101 0.32389 0.0
C518 C 0.22071 0.61216 0.27592 0.0
C519 C 0.26713 0.6797 0.25696 0.0
N520 N 0.2483 0.57031 0.30395 0.0
N521 N 0.27762 0.65653 0.26094 0.0
H522 H 0.45974 0.74145 0.31656 0.0
H523 H 0.45234 0.5651 0.27758 0.0
H524 H 0.54628 0.72589 0.32159 0.0
H525 H 0.36487 0.5774 0.25975 0.0
H526 H 0.48931 0.62691 0.27428 0.0
H527 H 0.42605 0.68462 0.2817 0.0
C528 C 0.47164 0.7262 0.31027 0.0
C529 C 0.50552 0.73798 0.32334 0.0
C530 C 0.46211 0.61626 0.26964 0.0
C531 C 0.46767 0.67367 0.28261 0.0
C532 C 0.44112 0.58084 0.2705 0.0
C533 C 0.40566 0.56635 0.26899 0.0
C534 C 0.44733 0.63722 0.26877 0.0
C535 C 0.39224 0.58786 0.261 0.0
C536 C 0.45255 0.69394 0.29003 0.0
C537 C 0.51994 0.71752 0.31343 0.0
N538 N 0.41298 0.62239 0.26273 0.0
N539 N 0.50093 0.68643 0.29411 0.0
H540 H 0.48707 0.79961 0.25684 0.0
H541 H 0.34566 0.85275 0.29529 0.0
H542 H 0.51214 0.90364 0.28041 0.0
H543 H 0.33439 0.75539 0.33152 0.0
H544 H 0.4027 0.87041 0.26627 0.0
H545 H 0.42648 0.78222 0.25549 0.0
C546 C 0.47989 0.81913 0.25878 0.0
C547 C 0.50445 0.85309 0.26855 0.0
C548 C 0.3876 0.84515 0.28037 0.0
C549 C 0.43553 0.83334 0.26887 0.0
C550 C 0.35524 0.83513 0.29724 0.0
C551 C 0.3356 0.80279 0.31665 0.0
C552 C 0.40009 0.82241 0.28204 0.0
C553 C 0.34903 0.78081 0.31776 0.0
C554 C 0.44531 0.80908 0.25913 0.0
C555 C 0.49386 0.87727 0.27227 0.0
N556 N 0.38048 0.79102 0.30065 0.0
N557 N 0.46002 0.86683 0.2734 0.0
H558 H 0.55576 0.84232 0.84038 0.0
H559 H 0.37434 0.79737 0.74618 0.0
H560 H 0.47258 0.73955 0.81765 0.0
H561 H 0.44965 0.89713 0.79426 0.0
H562 H 0.41678 0.77923 0.74952 0.0
H563 H 0.52275 0.86466 0.80534 0.0
C564 C 0.53042 0.82434 0.82819 0.0
C565 C 0.51666 0.78888 0.83273 0.0
C566 C 0.42438 0.80541 0.75798 0.0
C567 C 0.4789 0.81463 0.79171 0.0
C568 C 0.40036 0.81596 0.75535 0.0
C569 C 0.40856 0.84862 0.77052 0.0
C570 C 0.45664 0.82772 0.77611 0.0
C571 C 0.4424 0.87172 0.78233 0.0
C572 C 0.51175 0.83723 0.80774 0.0
C573 C 0.48403 0.76702 0.81531 0.0
N574 N 0.4651 0.86053 0.78602 0.0
N575 N 0.4661 0.78028 0.79587 0.0
H576 H 0.27692 0.5876 0.76049 0.0
H577 H 0.22601 0.73158 0.79272 0.0
H578 H 0.17326 0.56445 0.77927 0.0
H579 H 0.32258 0.74263 0.83278 0.0
H580 H 0.2082 0.67401 0.76495 0.0
H581 H 0.29546 0.64861 0.75958 0.0
C582 C 0.25779 0.59531 0.76154 0.0
C583 C 0.22351 0.57112 0.76963 0.0
C584 C 0.23333 0.68915 0.77961 0.0
C585 C 0.24454 0.64054 0.77034 0.0
C586 C 0.24346 0.72188 0.79573 0.0
C587 C 0.27562 0.74167 0.81585 0.0
C588 C 0.25574 0.67635 0.7828 0.0
C589 C 0.29732 0.72796 0.81837 0.0
C590 C 0.26848 0.63012 0.76211 0.0
C591 C 0.19985 0.5824 0.77231 0.0
N592 N 0.28698 0.69611 0.80201 0.0
N593 N 0.21087 0.61643 0.77353 0.0
H594 H 0.33122 0.61528 0.8191 0.0
H595 H 0.50988 0.62722 0.77779 0.0
H596 H 0.35089 0.53148 0.82926 0.0
H597 H 0.49499 0.7134 0.76278 0.0
H598 H 0.4482 0.58923 0.77721 0.0
H599 H 0.38772 0.64984 0.78454 0.0
C600 C 0.34731 0.60417 0.81409 0.0
C601 C 0.33664 0.57075 0.82825 0.0
C602 C 0.45822 0.61636 0.77263 0.0
C603 C 0.40064 0.6096 0.78784 0.0
C604 C 0.49354 0.63793 0.77186 0.0
C605 C 0.50737 0.67337 0.77028 0.0
C606 C 0.43671 0.6305 0.77312 0.0
C607 C 0.48508 0.68609 0.76395 0.0
C608 C 0.37939 0.62375 0.79403 0.0
C609 C 0.35826 0.55739 0.82005 0.0
N610 N 0.45075 0.6648 0.76705 0.0
N611 N 0.38912 0.57685 0.80078 0.0
H612 H 0.95876 0.04658 0.62094 0.0
H613 H 0.90251 0.85473 0.68261 0.0
H614 H 0.85438 0.96759 0.64187 0.0
H615 H 1.0077 0.93486 0.67026 0.0
H616 H 0.8843 0.89368 0.65625 0.0
H617 H 0.97632 1.00363 0.62379 0.0
C618 C 0.93939 1.01993 0.62459 0.0
C619 C 0.90512 1.01054 0.63154 0.0
C620 C 0.91136 0.90282 0.65915 0.0
C621 C 0.92514 0.96151 0.63632 0.0
C622 C 0.9219 0.88065 0.67459 0.0
C623 C 0.95681 0.89166 0.67936 0.0
C624 C 0.93581 0.93648 0.64842 0.0
C625 C 0.98056 0.92539 0.66765 0.0
C626 C 0.94948 0.9955 0.62673 0.0
C627 C 0.88102 0.97582 0.63622 0.0
N628 N 0.9696 0.94671 0.65297 0.0
N629 N 0.8916 0.95259 0.63943 0.0
H630 H 0.14054 0.07346 0.6758 0.0
H631 H 0.11761 0.89341 0.62529 0.0
H632 H 0.22532 0.06271 0.63123 0.0
H633 H 1.03508 0.91379 0.60881 0.0
H634 H 0.15825 0.95498 0.62342 0.0
H635 H 0.1014 1.01453 0.6516 0.0
C636 C 0.15091 0.05869 0.66107 0.0
C637 C 0.18625 0.07291 0.65598 0.0
C638 C 0.13136 0.94599 0.61856 0.0
C639 C 0.14171 1.00565 0.62802 0.0
C640 C 0.10826 0.91085 0.61879 0.0
C641 C 0.07313 0.89868 0.61629 0.0
C642 C 0.11896 0.96893 0.61736 0.0
C643 C 0.06209 0.9223 0.60994 0.0
C644 C 0.12857 1.02524 0.64677 0.0
C645 C 0.19826 0.05274 0.63603 0.0
N646 N 0.08486 0.95639 0.61186 0.0
N647 N 0.17609 1.02003 0.62331 0.0
H648 H 1.01793 0.1529 0.74339 0.0
H649 H 0.14568 0.15254 0.57953 0.0
H650 H 0.99148 0.14629 0.60428 0.0
H651 H 0.18234 0.23584 0.67376 0.0
H652 H 0.08772 0.14346 0.58808 0.0
H653 H 0.07807 0.1758 0.72202 0.0
C654 C 1.02485 0.15626 0.7085 0.0
C655 C 1.00005 0.14786 0.67548 0.0
C656 C 0.10873 0.1644 0.60573 0.0
C657 C 0.06781 0.17327 0.6511 0.0
C658 C 0.14169 0.16981 0.60047 0.0
C659 C 0.16866 0.19528 0.62545 0.0
C660 C 0.10284 0.18365 0.63755 0.0
C661 C 0.16219 0.21635 0.65338 0.0
C662 C 0.05897 0.16956 0.69639 0.0
C663 C 1.0101 0.15272 0.63063 0.0
N664 N 0.12965 0.2094 0.65978 0.0
N665 N 1.04322 0.16459 0.61961 0.0
H666 H 0.23503 0.18496 0.14378 0.0
H667 H 1.03732 0.12334 0.11898 0.0
H668 H 0.15298 0.08723 0.18722 0.0
H669 H 0.11208 0.22978 0.13871 0.0
H670 H 0.08292 0.10952 0.11977 0.0
H671 H 0.19281 0.20135 0.12239 0.0
C672 C 0.20816 0.16702 0.14888 0.0
C673 C 0.19739 0.13485 0.16781 0.0
C674 C 0.08943 0.13599 0.12297 0.0
C675 C 0.14938 0.15297 0.14214 0.0
C676 C 0.06352 0.14394 0.12202 0.0
C677 C 0.07101 0.17766 0.12935 0.0
C678 C 0.12306 0.16194 0.13128 0.0
C679 C 0.10534 0.20346 0.13294 0.0
C680 C 0.18422 0.17636 0.13653 0.0
C681 C 0.16236 0.11247 0.17343 0.0
N682 N 0.13023 0.19498 0.13469 0.0
N683 N 0.13959 0.1219 0.16042 0.0
H684 H 0.92075 0.92529 0.07886 0.0
H685 H 0.92753 0.05888 0.24078 0.0
H686 H 0.83874 0.89337 0.17321 0.0
H687 H 0.93382 0.08368 0.10136 0.0
H688 H 0.90307 0.99818 0.22022 0.0
H689 H 0.93278 0.98449 0.08666 0.0
C690 C 0.90437 0.93059 0.09965 0.0
C691 C 0.87837 0.90454 0.12482 0.0
C692 C 0.90967 1.01705 0.19431 0.0
C693 C 0.8934 0.97182 0.13615 0.0
C694 C 0.92387 0.0515 0.20596 0.0
C695 C 0.93259 0.07602 0.17265 0.0
C696 C 0.90534 1.0075 0.14915 0.0
C697 C 0.92722 0.06532 0.12792 0.0
C698 C 0.91148 0.96427 0.10451 0.0
C699 C 0.85858 0.91274 0.15263 0.0
N700 N 0.91444 0.03182 0.11734 0.0
N701 N 0.86715 0.94592 0.15863 0.0
H702 H 0.17768 0.95909 0.13802 0.0
H703 H 0.99383 0.9287 0.17702 0.0
H704 H 0.14857 0.03357 0.10446 0.0
H705 H 1.00871 0.84323 0.14975 0.0
H706 H 0.05208 0.96747 0.15225 0.0
H707 H 0.11704 0.91482 0.13961 0.0
C708 C 0.1586 0.96577 0.12897 0.0
C709 C 0.16787 0.99991 0.12146 0.0
C710 C 1.04253 0.9402 0.15141 0.0
C711 C 0.09912 0.95021 0.12501 0.0
C712 C 1.00947 0.91814 0.16611 0.0
C713 C 0.99661 0.8828 0.1658 0.0
C714 C 0.06311 0.92689 0.13706 0.0
C715 C 1.01778 0.8704 0.15065 0.0
C716 C 0.12404 0.94066 0.13048 0.0
C717 C 0.14226 1.00747 0.11074 0.0
N718 N 0.05023 0.89247 0.13734 0.0
N719 N 0.10899 0.98298 0.11387 0.0
H720 H 0.63724 0.16716 0.38237 0.0
H721 H 0.56962 0.1179 0.13071 0.0
H722 H 0.53154 0.10159 0.34562 0.0
H723 H 0.67604 0.18171 0.16543 0.0
H724 H 0.55564 0.11003 0.20997 0.0
H725 H 0.65274 0.17092 0.30338 0.0
C726 C 0.61739 0.15334 0.35784 0.0
C727 C 0.58306 0.13425 0.37064 0.0
C728 C 0.58207 0.12571 0.20022 0.0
C729 C 0.60046 0.13857 0.28049 0.0
C730 C 0.59003 0.13024 0.15492 0.0
C731 C 0.62399 0.15067 0.14126 0.0
C732 C 0.60824 0.14176 0.23215 0.0
C733 C 0.64943 0.16588 0.17428 0.0
C734 C 0.6262 0.15558 0.31277 0.0
C735 C 0.55833 0.11692 0.33739 0.0
N736 N 0.64102 0.16121 0.21811 0.0
N737 N 0.5675 0.11963 0.29399 0.0
H738 H 0.96373 0.51391 0.38773 0.0
H739 H 0.96879 0.46651 0.13221 0.0
H740 H 0.94802 0.41626 0.34242 0.0
H741 H 0.94217 0.5416 0.17448 0.0
H742 H 0.9769 0.4569 0.21021 0.0
H743 H 0.97078 0.5328 0.31001 0.0
C744 C 0.96208 0.49661 0.36149 0.0
C745 C 0.95476 0.46333 0.37131 0.0
C746 C 0.96965 0.47573 0.20225 0.0
C747 C 0.96326 0.48482 0.28309 0.0
C748 C 0.96515 0.48133 0.15783 0.0
C749 C 0.95423 0.50446 0.14701 0.0
C750 C 0.96357 0.49368 0.23589 0.0
C751 C 0.95004 0.5231 0.18151 0.0
C752 C 0.96607 0.50737 0.31732 0.0
C753 C 0.95306 0.44194 0.3362 0.0
N754 N 0.9545 0.51714 0.22453 0.0
N755 N 0.9572 0.45304 0.29359 0.0
H756 H 0.58387 0.43043 0.38471 0.0
H757 H 0.58451 0.50343 0.14169 0.0
H758 H 0.62233 0.53712 0.35615 0.0
H759 H 0.56374 0.40083 0.16687 0.0
H760 H 0.58844 0.5139 0.2223 0.0
H761 H 0.56639 0.41679 0.30653 0.0
C762 C 0.58829 0.45088 0.36218 0.0
C763 C 0.60496 0.48496 0.37681 0.0
C764 C 0.5828 0.48904 0.21007 0.0
C765 C 0.5851 0.46966 0.28775 0.0
C766 C 0.58051 0.48308 0.16414 0.0
C767 C 0.57451 0.4515 0.14764 0.0
C768 C 0.57878 0.46311 0.23942 0.0
C769 C 0.56918 0.42584 0.17817 0.0
C770 C 0.5784 0.44313 0.31761 0.0
C771 C 0.60998 0.51051 0.34624 0.0
N772 N 0.57168 0.43229 0.22254 0.0
N773 N 0.60028 0.50235 0.30317 0.0
H774 H 0.95791 0.46347 0.88533 0.0
H775 H 0.95456 0.51409 0.63151 0.0
H776 H 0.948 0.54946 0.84454 0.0
H777 H 0.92106 0.41041 0.67154 0.0
H778 H 0.9654 0.53188 0.70956 0.0
H779 H 0.95733 0.4481 0.80639 0.0
C780 C 0.95602 0.47926 0.85978 0.0
C781 C 0.95258 0.50748 0.87126 0.0
C782 C 0.95583 0.50527 0.70116 0.0
C783 C 0.95232 0.49047 0.78181 0.0
C784 C 0.94967 0.4951 0.65667 0.0
C785 C 0.93644 0.46064 0.6451 0.0
C786 C 0.9491 0.4809 0.73426 0.0
C787 C 0.9308 0.43717 0.67911 0.0
C788 C 0.95553 0.47044 0.81496 0.0
C789 C 0.9502 0.52719 0.83707 0.0
N790 N 0.9371 0.44772 0.72227 0.0
N791 N 0.9501 0.51831 0.7939 0.0
H792 H 0.67146 0.49005 0.66613 0.0
H793 H 0.53898 0.46271 0.85649 0.0
H794 H 0.57706 0.48942 0.64268 0.0
H795 H 0.63973 0.47936 0.88413 0.0
H796 H 0.55439 0.47649 0.77894 0.0
H797 H 0.66194 0.48932 0.74603 0.0
C798 C 0.64864 0.4897 0.67778 0.0
C799 C 0.62466 0.48919 0.64761 0.0
C800 C 0.57336 0.47757 0.80188 0.0
C801 C 0.61384 0.48862 0.73926 0.0
C802 C 0.56458 0.4697 0.8463 0.0
C803 C 0.58806 0.46962 0.87674 0.0
C804 C 0.60571 0.48488 0.78737 0.0
C805 C 0.6209 0.47909 0.86167 0.0
C806 C 0.6434 0.48954 0.72348 0.0
C807 C 0.59599 0.48943 0.66469 0.0
N808 N 0.62863 0.48587 0.81773 0.0
N809 N 0.59122 0.4888 0.70943 0.0
H810 H 0.65844 0.12233 0.83915 0.0
H811 H 0.54914 0.15573 0.66764 0.0
H812 H 0.56935 0.12629 0.8812 0.0
H813 H 0.59926 0.09969 0.6297 0.0
H814 H 0.55738 0.14723 0.74603 0.0
H815 H 0.63902 0.11614 0.76195 0.0
C816 C 0.63469 0.12176 0.83208 0.0
C817 C 0.61561 0.12523 0.86642 0.0
C818 C 0.56611 0.13635 0.72057 0.0
C819 C 0.5935 0.11842 0.77834 0.0
C820 C 0.5616 0.14133 0.67595 0.0
C821 C 0.57384 0.12862 0.64238 0.0
C822 C 0.58378 0.11932 0.73165 0.0
C823 C 0.58952 0.1099 0.65471 0.0
C824 C 0.62352 0.11793 0.78812 0.0
C825 C 0.58482 0.12382 0.85558 0.0
N826 N 0.59466 0.10635 0.69851 0.0
N827 N 0.57498 0.12112 0.81228 0.0
H828 H 0.24671 0.432 0.48184 0.0
H829 H 0.31556 0.51207 0.72442 0.0
H830 H 0.3431 0.52421 0.50543 0.0
H831 H 0.21262 0.43176 0.69589 0.0
H832 H 0.33022 0.51061 0.64594 0.0
H833 H 0.23776 0.42542 0.56238 0.0
C834 C 0.266 0.45076 0.50391 0.0
C835 C 0.29535 0.47901 0.48689 0.0
C836 C 0.30454 0.49308 0.65716 0.0
C837 C 0.28546 0.47159 0.57885 0.0
C838 C 0.29625 0.49383 0.70187 0.0
C839 C 0.26276 0.47231 0.7165 0.0
C840 C 0.27916 0.47048 0.62729 0.0
C841 C 0.23866 0.44913 0.68598 0.0
C842 C 0.26093 0.44701 0.54985 0.0
C843 C 0.31975 0.50236 0.51707 0.0
N844 N 0.24728 0.44898 0.64285 0.0
N845 N 0.31417 0.49825 0.56156 0.0
H846 H 0.54042 0.82018 0.50472 0.0
H847 H 0.65156 0.80274 0.69584 0.0
H848 H 0.63676 0.8247 0.48179 0.0
H849 H 0.56396 0.81354 0.72355 0.0
H850 H 0.64845 0.81497 0.61806 0.0
H851 H 0.54969 0.8207 0.58479 0.0
C852 C 0.56353 0.82121 0.51649 0.0
C853 C 0.58765 0.82186 0.48642 0.0
C854 C 0.6301 0.81514 0.64104 0.0
C855 C 0.59847 0.82279 0.5782 0.0
C856 C 0.63191 0.80822 0.68562 0.0
C857 C 0.60786 0.80695 0.71615 0.0
C858 C 0.6036 0.82022 0.62645 0.0
C859 C 0.58302 0.81435 0.701 0.0
C860 C 0.56888 0.82176 0.56227 0.0
C861 C 0.61732 0.82378 0.50367 0.0
N862 N 0.58117 0.82016 0.6569 0.0
N863 N 0.62174 0.82391 0.54842 0.0
H864 H 0.3293 0.88595 0.66934 0.0
H865 H 0.21382 0.74105 0.49652 0.0
H866 H 0.23643 0.79566 0.7092 0.0
H867 H 0.28359 0.84513 0.45758 0.0
H868 H 0.222 0.7595 0.5745 0.0
H869 H 0.31337 0.87078 0.59155 0.0
C870 C 0.30539 0.86299 0.66165 0.0
C871 C 0.28425 0.84184 0.6957 0.0
C872 C 0.23524 0.77831 0.54883 0.0
C873 C 0.26604 0.82411 0.60658 0.0
C874 C 0.23077 0.76781 0.50434 0.0
C875 C 0.24836 0.79154 0.47048 0.0
C876 C 0.25783 0.8127 0.5596 0.0
C877 C 0.26965 0.82592 0.48255 0.0
C878 C 0.29625 0.85442 0.61722 0.0
C879 C 0.25342 0.81261 0.68387 0.0
N880 N 0.27411 0.83538 0.52615 0.0
N881 N 0.24543 0.80429 0.64015 0.0
H882 H 0.64686 0.83528 0.98207 0.0
H883 H 0.56992 0.76152 0.22322 0.0
H884 H 0.56032 0.7347 0.00437 0.0
H885 H 0.64239 0.86749 0.19626 0.0
H886 H 0.57379 0.74792 0.14492 0.0
H887 H 0.65338 0.84416 0.06289 0.0
C888 C 0.62945 0.81502 0.00393 0.0
C889 C 0.60259 0.78455 0.98657 0.0
C890 C 0.5891 0.77407 0.15645 0.0
C891 C 0.6099 0.79435 0.07863 0.0
C892 C 0.58694 0.78178 0.20107 0.0
C893 C 0.60553 0.8157 0.21614 0.0
C894 C 0.61015 0.80047 0.12707 0.0
C895 C 0.62727 0.84102 0.18606 0.0
C896 C 0.63312 0.82007 0.04999 0.0
C897 C 0.58093 0.75893 0.01637 0.0
N898 N 0.62881 0.83291 0.14298 0.0
N899 N 0.5849 0.76451 0.06092 0.0
H900 H 0.33433 0.86347 -0.00288 0.0
H901 H 0.19098 0.74663 0.16849 0.0
H902 H 0.23095 0.79142 0.95705 0.0
H903 H 0.28064 0.84033 0.20907 0.0
H904 H 0.20551 0.76259 0.09084 0.0
H905 H 0.31592 0.85543 0.07479 0.0
C906 C 0.30772 0.84603 0.00464 0.0
C907 C 0.28419 0.82775 0.97057 0.0
C908 C 0.22186 0.77989 0.11664 0.0
C909 C 0.26306 0.81847 0.05938 0.0
C910 C 0.21367 0.77073 0.16098 0.0
C911 C 0.23488 0.79207 0.19517 0.0
C912 C 0.25184 0.81033 0.10624 0.0
C913 C 0.26369 0.82317 0.18361 0.0
C914 C 0.29723 0.84165 0.04896 0.0
C915 C 0.24998 0.80587 0.98223 0.0
N916 N 0.27167 0.83117 0.13996 0.0
N917 N 0.24053 0.80153 0.02572 0.0
H918 H 0.25087 0.53128 0.00638 0.0
H919 H 0.27927 0.42552 0.19509 0.0
H920 H 0.25295 0.43823 0.98118 0.0
H921 H 0.26311 0.50992 0.22412 0.0
H922 H 0.26591 0.42781 0.11737 0.0
H923 H 0.25241 0.5225 0.08616 0.0
C924 C 0.25168 0.50897 0.0176 0.0
C925 C 0.2523 0.48568 0.98695 0.0
C926 C 0.26488 0.44563 0.14065 0.0
C927 C 0.25384 0.47544 0.07848 0.0
C928 C 0.2725 0.44434 0.18517 0.0
C929 C 0.27253 0.46775 0.21609 0.0
C930 C 0.25773 0.47088 0.12655 0.0
C931 C 0.26335 0.49141 0.20132 0.0
C932 C 0.25234 0.5039 0.06323 0.0
C933 C 0.25277 0.457 0.00352 0.0
N934 N 0.25676 0.4927 0.15735 0.0
N935 N 0.25382 0.45286 0.04818 0.0
H936 H 0.99805 0.82076 0.84554 0.0
H937 H 0.85267 0.78624 0.01452 0.0
H938 H 0.89226 0.76592 0.80551 0.0
H939 H 0.94518 0.78988 0.05836 0.0
H940 H 0.86733 0.78156 0.93746 0.0
H941 H 0.98032 0.81227 0.92361 0.0
C942 C 0.97106 0.80661 0.85329 0.0
C943 C 0.94653 0.79419 0.81918 0.0
C944 C 0.88423 0.78301 0.96397 0.0
C945 C 0.92615 0.78495 0.90817 0.0
C946 C 0.87605 0.78595 0.00789 0.0
C947 C 0.89797 0.7888 0.04277 0.0
C948 C 0.91492 0.78372 0.95473 0.0
C949 C 0.92767 0.78784 0.03237 0.0
C950 C 0.961 0.80166 0.89777 0.0
C951 C 0.91193 0.77585 0.83089 0.0
N952 N 0.93561 0.78595 0.98913 0.0
N953 N 0.90271 0.77231 0.87453 0.0
H954 H 0.25231 0.19233 0.83826 0.0
H955 H 0.27748 0.07495 0.0101 0.0
H956 H 0.2786 0.11669 0.79762 0.0
H957 H 0.288 0.17186 0.04878 0.0
H958 H 0.27635 0.08907 0.93223 0.0
H959 H 0.26345 0.1845 0.91561 0.0
C960 C 0.26045 0.17407 0.8456 0.0
C961 C 0.26416 0.15481 0.81148 0.0
C962 C 0.27924 0.10743 0.95765 0.0
C963 C 0.27692 0.14581 0.89993 0.0
C964 C 0.27971 0.09933 0.00215 0.0
C965 C 0.28249 0.12217 0.03593 0.0
C966 C 0.28095 0.13834 0.94672 0.0
C967 C 0.28574 0.15354 0.02369 0.0
C968 C 0.26703 0.16983 0.88974 0.0
C969 C 0.27524 0.13191 0.82288 0.0
N970 N 0.2844 0.16055 0.97996 0.0
N971 N 0.28086 0.12777 0.86625 0.0
H972 H 0.94901 0.18795 0.80312 0.0
H973 H 0.89681 0.13946 0.05743 0.0
H974 H 0.86779 0.08888 0.84413 0.0
H975 H 0.99867 0.21332 0.01488 0.0
H976 H 0.87884 0.12844 0.97923 0.0
H977 H 0.95977 0.20573 0.8814 0.0
C978 C 0.93306 0.17019 0.82853 0.0
C979 C 0.90782 0.13677 0.81739 0.0
C980 C 0.90504 0.14716 0.98723 0.0
C981 C 0.9199 0.15688 0.90635 0.0
C982 C 0.91532 0.15342 0.03166 0.0
C983 C 0.94937 0.17695 0.04248 0.0
C984 C 0.9289 0.16499 0.95365 0.0
C985 C 0.97229 0.19457 0.00793 0.0
C986 C 0.93934 0.18026 0.87307 0.0
C987 C 0.88785 0.11472 0.85152 0.0
N988 N 0.96162 0.1882 0.96497 0.0
N989 N 0.89444 0.12512 0.89462 0.0
H990 H 0.28997 0.18191 0.2972 0.0
H991 H 0.29266 0.13405 0.55263 0.0
H992 H 0.27165 0.0831 0.33991 0.0
H993 H 0.27293 0.21364 0.5102 0.0
H994 H 0.29718 0.1212 0.47444 0.0
H995 H 0.29643 0.20015 0.37531 0.0
C996 C 0.28778 0.16423 0.32294 0.0
C997 C 0.27989 0.13083 0.31215 0.0
C998 C 0.29203 0.14157 0.48238 0.0
C999 C 0.28732 0.15151 0.4012 0.0
C1000 C 0.28949 0.14895 0.52692 0.0
C1001 C 0.28204 0.17471 0.53793 0.0
C1002 C 0.28751 0.16037 0.4487 0.0
C1003 C 0.27831 0.1933 0.50324 0.0
C1004 C 0.29128 0.17459 0.36744 0.0
C1005 C 0.27731 0.10896 0.34683 0.0
N1006 N 0.28105 0.18574 0.46017 0.0
N1007 N 0.2809 0.11964 0.38984 0.0
H1008 H 0.89146 0.12527 0.30252 0.0
H1009 H 0.93871 0.18094 0.55702 0.0
H1010 H 0.99056 0.20673 0.34416 0.0
H1011 H 0.86526 0.07839 0.51469 0.0
H1012 H 0.95051 0.19781 0.47858 0.0
H1013 H 0.87367 0.11548 0.38061 0.0
C1014 C 0.90926 0.14141 0.32802 0.0
C1015 C 0.94265 0.16649 0.31712 0.0
C1016 C 0.93171 0.1717 0.4867 0.0
C1017 C 0.9225 0.15557 0.40588 0.0
C1018 C 0.925 0.16208 0.53125 0.0
C1019 C 0.90137 0.12815 0.54219 0.0
C1020 C 0.91418 0.14732 0.45318 0.0
C1021 C 0.88409 0.1047 0.50766 0.0
C1022 C 0.89917 0.13571 0.37245 0.0
C1023 C 0.96473 0.18677 0.35137 0.0
N1024 N 0.89084 0.11474 0.46464 0.0
N1025 N 0.95431 0.18076 0.39437 0.0
H1026 H 0.93308 0.77817 0.30875 0.0
H1027 H 0.92037 0.83389 0.55903 0.0
H1028 H 0.89016 0.84187 0.34217 0.0
H1029 H 0.95846 0.7665 0.52314 0.0
H1030 H 0.90627 0.83527 0.48027 0.0
H1031 H 0.94028 0.77189 0.38813 0.0
C1032 C 0.92512 0.79077 0.3327 0.0
C1033 C 0.91127 0.81077 0.31864 0.0
C1034 C 0.91754 0.82006 0.48987 0.0
C1035 C 0.91942 0.80376 0.40965 0.0
C1036 C 0.92547 0.8192 0.53478 0.0
C1037 C 0.94093 0.80038 0.54767 0.0
C1038 C 0.92513 0.8019 0.45793 0.0
C1039 C 0.947 0.78178 0.51483 0.0
C1040 C 0.92919 0.78716 0.37808 0.0
C1041 C 0.90121 0.82637 0.35133 0.0
N1042 N 0.93926 0.78318 0.47163 0.0
N1043 N 0.90564 0.82266 0.39524 0.0
H1044 H 0.43729 0.97029 0.83691 0.0
H1045 H 0.56569 0.03111 0.04358 0.0
H1046 H 0.4148 0.909 0.9549 0.0
H1047 H 0.60232 0.05721 0.90897 0.0
H1048 H 0.50885 0.99018 0.01446 0.0
H1049 H 0.49553 1.00829 0.86568 0.0
C1050 C 0.44425 0.96532 0.86936 0.0
C1051 C 0.42077 0.93664 0.89382 0.0
C1052 C 0.52942 1.00451 0.99125 0.0
C1053 C 0.48773 0.97982 0.92672 0.0
C1054 C 0.56209 1.02763 0.00788 0.0
C1055 C 0.58927 0.04773 0.97892 0.0
C1056 C 0.52322 1.00189 0.94512 0.0
C1057 C 0.58251 0.04231 0.93282 0.0
C1058 C 0.4777 0.9867 0.88544 0.0
C1059 C 0.4318 0.93098 0.93511 0.0
N1060 N 0.55018 1.02055 0.91745 0.0
N1061 N 0.46417 0.95237 0.95031 0.0
H1062 H 0.06162 0.57235 0.03962 0.0
H1063 H 0.11808 0.49549 0.83622 0.0
H1064 H 1.02378 0.56509 0.90606 0.0
H1065 H 0.16263 0.51428 0.96755 0.0
H1066 H 0.0831 0.52016 0.86038 0.0
H1067 H 0.10094 0.55427 0.01228 0.0
C1068 C 0.06239 0.56813 0.00419 0.0
C1069 C 1.03913 0.57039 0.97532 0.0
C1070 C 0.10037 0.51868 0.88399 0.0
C1071 C 0.08343 0.54778 0.94369 0.0
C1072 C 0.12006 0.50408 0.8704 0.0
C1073 C 0.14332 0.50231 0.89991 0.0
C1074 C 0.10372 0.53168 0.92756 0.0
C1075 C 0.14506 0.51474 0.94352 0.0
C1076 C 0.08451 0.55714 0.98864 0.0
C1077 C 1.04117 0.56393 0.92975 0.0
N1078 N 0.12572 0.52879 0.95585 0.0
N1079 N 0.06232 0.55233 0.91555 0.0
H1080 H 0.57767 0.6355 0.83408 0.0
H1081 H 0.51948 0.51141 0.04576 0.0
H1082 H 0.5737 0.66884 0.96759 0.0
H1083 H 0.50691 0.47408 0.91119 0.0
H1084 H 0.5351 0.56806 0.01754 0.0
H1085 H 0.552 0.57647 0.8612 0.0
C1086 C 0.57217 0.63065 0.86924 0.0
C1087 C 0.57845 0.65764 0.89854 0.0
C1088 C 0.52802 0.54735 0.99398 0.0
C1089 C 0.54789 0.58942 0.92981 0.0
C1090 C 0.51807 0.51458 0.01023 0.0
C1091 C 0.51115 0.48742 0.98099 0.0
C1092 C 0.53174 0.55353 0.94787 0.0
C1093 C 0.51138 0.49388 0.9351 0.0
C1094 C 0.55693 0.59673 0.88462 0.0
C1095 C 0.56974 0.64919 0.94363 0.0
N1096 N 0.52231 0.52625 0.91999 0.0
N1097 N 0.55507 0.61613 0.95771 0.0
H1098 H 1.03349 0.46717 0.4191 0.0
H1099 H 0.11075 0.66857 0.42018 0.0
H1100 H 1.03493 0.52086 0.53911 0.0
H1101 H 0.16798 0.62662 0.35925 0.0
H1102 H 0.07165 0.61164 0.452 0.0
H1103 H 0.07404 0.52269 0.38535 0.0
C1104 C 1.04278 0.49029 0.43881 0.0
C1105 C 1.03055 0.48882 0.48237 0.0
C1106 C 0.09262 0.61497 0.43119 0.0
C1107 C 0.07552 0.55271 0.44277 0.0
C1108 C 0.11476 0.64737 0.41281 0.0
C1109 C 0.1427 0.65249 0.38684 0.0
C1110 C 0.09779 0.5872 0.42243 0.0
C1111 C 0.14676 0.62393 0.37889 0.0
C1112 C 0.06558 0.52206 0.41924 0.0
C1113 C 1.04332 0.52024 0.50553 0.0
N1114 N 0.12455 0.59264 0.39617 0.0
N1115 N 0.06435 0.55061 0.48532 0.0
H1116 H 0.56522 0.55003 0.55133 0.0
H1117 H 0.44207 0.4951 0.33791 0.0
H1118 H 0.60255 0.56259 0.41712 0.0
H1119 H 0.40927 0.50219 0.47034 0.0
H1120 H 0.50069 0.51903 0.36618 0.0
H1121 H 0.5091 0.53611 0.52251 0.0
C1122 C 0.56223 0.55185 0.51583 0.0
C1123 C 0.58924 0.55839 0.48685 0.0
C1124 C 0.48063 0.51517 0.38912 0.0
C1125 C 0.52369 0.53968 0.45299 0.0
C1126 C 0.44693 0.50092 0.37309 0.0
C1127 C 0.42024 0.49605 0.40173 0.0
C1128 C 0.48801 0.52458 0.43433 0.0
C1129 C 0.4287 0.5051 0.44688 0.0
C1130 C 0.52975 0.54289 0.49922 0.0
C1131 C 0.58296 0.55862 0.44091 0.0
N1132 N 0.46155 0.51875 0.46162 0.0
N1133 N 0.55085 0.54861 0.42545 0.0
H1134 H 0.57509 0.95414 0.33975 0.0
H1135 H 0.5084 1.01904 0.54321 0.0
H1136 H 0.55837 0.90988 0.47068 0.0
H1137 H 0.50289 0.04455 0.4069 0.0
H1138 H 0.52261 0.97616 0.51771 0.0
H1139 H 0.54921 0.98778 0.36434 0.0
C1140 C 0.5667 0.95198 0.37396 0.0
C1141 C 0.56947 0.92927 0.40323 0.0
C1142 C 0.51721 0.99029 0.49319 0.0
C1143 C 0.53872 0.96738 0.43146 0.0
C1144 C 0.50806 1.01417 0.5078 0.0
C1145 C 0.50369 0.03516 0.47728 0.0
C1146 C 0.52265 0.98762 0.44759 0.0
C1147 C 0.50518 1.02851 0.43172 0.0
C1148 C 0.55133 0.97083 0.3878 0.0
C1149 C 0.55717 0.92717 0.44691 0.0
N1150 N 0.5154 1.00613 0.41834 0.0
N1151 N 0.54252 0.94592 0.45963 0.0
H1152 H 0.26958 0.38404 0.25277 0.0
H1153 H 0.0742 0.24566 0.30663 0.0
H1154 H 0.23099 0.35874 0.38629 0.0
H1155 H 0.10586 0.29844 0.1815 0.0
H1156 H 0.1328 0.28009 0.33469 0.0
H1157 H 0.21238 0.34361 0.22398 0.0
C1158 C 0.24961 0.36855 0.27615 0.0
C1159 C 0.25558 0.37465 0.3222 0.0
C1160 C 0.12697 0.2845 0.30126 0.0
C1161 C 0.1892 0.3289 0.28933 0.0
C1162 C 0.09336 0.26511 0.28536 0.0
C1163 C 0.0847 0.26973 0.24199 0.0
C1164 C 0.15278 0.30827 0.2733 0.0
C1165 C 0.111 0.29465 0.21556 0.0
C1166 C 0.21661 0.34611 0.25962 0.0
C1167 C 0.22804 0.35446 0.35065 0.0
N1168 N 0.14378 0.31271 0.23144 0.0
N1169 N 0.19619 0.33294 0.33388 0.0
H1170 H 0.70965 0.88128 0.39056 0.0
H1171 H 0.76891 0.81612 0.18016 0.0
H1172 H 0.68424 0.89349 0.25658 0.0
H1173 H 0.82614 0.84488 0.30274 0.0
H1174 H 0.73345 0.83892 0.20979 0.0
H1175 H 0.75157 0.86704 0.36124 0.0
C1176 C 0.71423 0.88289 0.355 0.0
C1177 C 0.69367 0.88939 0.32617 0.0
C1178 C 0.7535 0.83984 0.23043 0.0
C1179 C 0.73987 0.87014 0.29194 0.0
C1180 C 0.77325 0.82612 0.21386 0.0
C1181 C 0.79998 0.82768 0.23944 0.0
C1182 C 0.76021 0.85498 0.27314 0.0
C1183 C 0.80534 0.84241 0.28223 0.0
C1184 C 0.73756 0.87378 0.33816 0.0
C1185 C 0.69984 0.88938 0.28019 0.0
N1186 N 0.78564 0.85523 0.29776 0.0
N1187 N 0.72155 0.87898 0.26452 0.0
H1188 H 0.1785 0.80461 0.23688 0.0
H1189 H 0.23424 0.99893 0.29884 0.0
H1190 H 0.18561 0.84095 0.37161 0.0
H1191 H 0.25722 0.97057 0.17194 0.0
H1192 H 0.21076 0.93997 0.32418 0.0
H1193 H 0.19867 0.86292 0.20999 0.0
C1194 C 0.18308 0.82446 0.26082 0.0
C1195 C 0.1804 0.81757 0.30682 0.0
C1196 C 0.22133 0.94659 0.29098 0.0
C1197 C 0.20408 0.88484 0.27604 0.0
C1198 C 0.23516 0.98043 0.27667 0.0
C1199 C 0.24864 0.99008 0.23359 0.0
C1200 C 0.21997 0.92155 0.26173 0.0
C1201 C 0.24809 0.96461 0.20586 0.0
C1202 C 0.19524 0.85798 0.2454 0.0
C1203 C 0.18714 0.84479 0.33594 0.0
N1204 N 0.23374 0.93153 0.22021 0.0
N1205 N 0.19882 0.87701 0.32019 0.0
H1206 H 0.83315 1.0023 0.80372 0.0
H1207 H 0.69185 0.80718 0.74901 0.0
H1208 H 0.77853 0.97156 0.67919 0.0
H1209 H 0.71959 0.84618 0.88251 0.0
H1210 H 0.73243 0.86424 0.72022 0.0
H1211 H 0.79862 0.94363 0.83092 0.0
C1212 C 0.81338 0.98333 0.78234 0.0
C1213 C 0.80831 0.99232 0.7394 0.0
C1214 C 0.7304 0.86011 0.75584 0.0
C1215 C 0.76942 0.92405 0.76983 0.0
C1216 C 0.70781 0.82721 0.77234 0.0
C1217 C 0.70229 0.82141 0.8184 0.0
C1218 C 0.74845 0.88759 0.7856 0.0
C1219 C 0.72332 0.84896 0.84682 0.0
C1220 C 0.79387 0.94966 0.79779 0.0
C1221 C 0.7828 0.9662 0.71292 0.0
N1222 N 0.745 0.88069 0.83011 0.0
N1223 N 0.76458 0.93333 0.72836 0.0
H1224 H 0.1013 0.81498 0.67167 0.0
H1225 H 0.27168 0.90188 0.73958 0.0
H1226 H 0.07765 0.83682 0.80264 0.0
H1227 H 0.23177 0.88558 0.87309 0.0
H1228 H 0.21431 0.88253 0.71068 0.0
H1229 H 0.16103 0.84043 0.69374 0.0
C1230 C 0.1085 0.82475 0.70531 0.0
C1231 C 0.08393 0.82345 0.73524 0.0
C1232 C 0.21793 0.8832 0.74633 0.0
C1233 C 0.15351 0.85444 0.76053 0.0
C1234 C 0.2511 0.89523 0.76297 0.0
C1235 C 0.25685 0.89528 0.80902 0.0
C1236 C 0.19007 0.87117 0.7759 0.0
C1237 C 0.22874 0.88596 0.83737 0.0
C1238 C 0.14302 0.84006 0.71769 0.0
C1239 C 0.09536 0.837 0.77827 0.0
N1240 N 0.19676 0.87404 0.82044 0.0
N1241 N 0.12908 0.85178 0.78951 0.0
H1242 H 0.22964 0.24416 0.80491 0.0
H1243 H 0.18213 0.38946 0.7536 0.0
H1244 H 0.25599 0.30009 0.68197 0.0
H1245 H 0.19725 0.36562 0.88706 0.0
H1246 H 0.19664 0.34736 0.72492 0.0
H1247 H 0.20887 0.28126 0.83422 0.0
C1248 C 0.23192 0.26489 0.7845 0.0
C1249 C 0.24569 0.26965 0.74139 0.0
C1250 C 0.19581 0.35058 0.76057 0.0
C1251 C 0.21983 0.31111 0.77388 0.0
C1252 C 0.18657 0.37401 0.77707 0.0
C1253 C 0.1877 0.38083 0.82301 0.0
C1254 C 0.20572 0.33313 0.7902 0.0
C1255 C 0.19508 0.36072 0.85153 0.0
C1256 C 0.21961 0.28578 0.80105 0.0
C1257 C 0.24673 0.29617 0.71589 0.0
N1258 N 0.20402 0.33814 0.83478 0.0
N1259 N 0.23369 0.31559 0.73228 0.0
H1260 H 0.73979 0.57702 0.63703 0.0
H1261 H 0.93527 0.71323 0.57943 0.0
H1262 H 0.77373 0.62067 0.5068 0.0
H1263 H 0.89806 0.68471 0.71311 0.0
H1264 H 0.87864 0.67137 0.55086 0.0
H1265 H 0.79857 0.61081 0.66435 0.0
C1266 C 0.75946 0.59414 0.61427 0.0
C1267 C 0.75136 0.59622 0.56955 0.0
C1268 C 0.88307 0.67342 0.58646 0.0
C1269 C 0.81956 0.63441 0.60057 0.0
C1270 C 0.91584 0.69666 0.60283 0.0
C1271 C 0.92193 0.70221 0.64891 0.0
C1272 C 0.85599 0.65521 0.61633 0.0
C1273 C 0.89496 0.68087 0.67742 0.0
C1274 C 0.79319 0.61322 0.62986 0.0
C1275 C 0.77836 0.61859 0.54169 0.0
N1276 N 0.86323 0.65885 0.66081 0.0
N1277 N 0.81108 0.63655 0.55753 0.0
H1278 H 0.37787 0.21235 0.71674 0.0
H1279 H 0.44305 0.15627 0.50096 0.0
H1280 H 0.35457 0.22824 0.58295 0.0
H1281 H 0.4834 0.16218 0.63283 0.0
H1282 H 0.40831 0.17966 0.53039 0.0
H1283 H 0.41653 0.19413 0.68678 0.0
C1284 C 0.38165 0.21304 0.68105 0.0
C1285 C 0.3629 0.22221 0.65257 0.0
C1286 C 0.42462 0.17565 0.55295 0.0
C1287 C 0.40636 0.19962 0.61756 0.0
C1288 C 0.44417 0.16178 0.53626 0.0
C1289 C 0.46617 0.15677 0.56438 0.0
C1290 C 0.42667 0.18449 0.59832 0.0
C1291 C 0.46681 0.16527 0.60973 0.0
C1292 C 0.40344 0.20212 0.66387 0.0
C1293 C 0.36859 0.22186 0.60645 0.0
N1294 N 0.44747 0.17856 0.62513 0.0
N1295 N 0.38926 0.21022 0.59046 0.0
H1296 H 0.92421 0.3066 0.50824 0.0
H1297 H 0.83743 0.17315 0.70721 0.0
H1298 H 0.88012 0.327 0.62312 0.0
H1299 H 0.84569 0.14019 0.57528 0.0
H1300 H 0.85476 0.22993 0.67802 0.0
H1301 H 0.90097 0.24721 0.53411 0.0
C1302 C 0.91046 0.29893 0.53944 0.0
C1303 C 0.90471 0.32222 0.56388 0.0
C1304 C 0.85232 0.21021 0.65517 0.0
C1305 C 0.87724 0.25385 0.59326 0.0
C1306 C 0.8418 0.17745 0.67176 0.0
C1307 C 0.83999 0.15142 0.64394 0.0
C1308 C 0.86199 0.21776 0.61031 0.0
C1309 C 0.84668 0.15915 0.59827 0.0
C1310 C 0.89665 0.26481 0.55381 0.0
C1311 C 0.88563 0.31024 0.60338 0.0
N1312 N 0.8581 0.19167 0.58315 0.0
N1313 N 0.87286 0.27725 0.61681 0.0
H1314 H 0.39002 0.17528 0.20659 0.0
H1315 H 0.44489 0.30236 -0.00225 0.0
H1316 H 0.35511 0.13978 0.07299 0.0
H1317 H 0.48517 0.33382 0.13056 0.0
H1318 H 0.41167 0.24305 0.02375 0.0
H1319 H 0.42755 0.23264 0.17787 0.0
C1320 C 0.3911 0.17924 0.17094 0.0
C1321 C 0.36918 0.15233 0.14238 0.0
C1322 C 0.42758 0.26298 0.04726 0.0
C1323 C 0.41134 0.21903 0.10907 0.0
C1324 C 0.44621 0.29705 0.03258 0.0
C1325 C 0.46778 0.32354 0.06199 0.0
C1326 C 0.43035 0.25508 0.0918 0.0
C1327 C 0.46886 0.31456 0.10655 0.0
C1328 C 0.41217 0.21229 0.15456 0.0
C1329 C 0.37153 0.15946 0.09645 0.0
N1330 N 0.45061 0.28134 0.11991 0.0
N1331 N 0.39162 0.19213 0.08138 0.0
H1332 H 0.93867 0.23412 0.0782 0.0
H1333 H 0.74581 0.18953 0.12459 0.0
H1334 H 0.89927 0.23091 0.2098 0.0
H1335 H 0.77445 0.15859 0.00395 0.0
H1336 H 0.80362 0.21116 0.15381 0.0
H1337 H 0.88166 0.21553 0.04726 0.0
C1338 C 0.91847 0.23071 0.10058 0.0
C1339 C 0.92412 0.23409 0.14697 0.0
C1340 C 0.79729 0.19926 0.12117 0.0
C1341 C 0.85827 0.21236 0.11148 0.0
C1342 C 0.76408 0.18652 0.10464 0.0
C1343 C 0.7548 0.17125 0.06222 0.0
C1344 C 0.82217 0.19779 0.09474 0.0
C1345 C 0.78006 0.16914 0.03735 0.0
C1346 C 0.88567 0.21948 0.08285 0.0
C1347 C 0.89644 0.22885 0.17394 0.0
N1348 N 0.81257 0.18249 0.05376 0.0
N1349 N 0.86496 0.21815 0.15595 0.0
H1350 H 0.92611 0.63655 0.00797 0.0
H1351 H 0.85468 0.69246 0.21694 0.0
H1352 H 0.89756 0.5809 0.13126 0.0
H1353 H 0.84412 0.71907 0.08266 0.0
H1354 H 0.87423 0.6546 0.18751 0.0
H1355 H 0.90296 0.67222 0.03628 0.0
C1356 C 0.91587 0.63243 0.04141 0.0
C1357 C 0.9144 0.60597 0.06752 0.0
C1358 C 0.86722 0.66834 0.16436 0.0
C1359 C 0.8871 0.6463 0.09987 0.0
C1360 C 0.85558 0.6897 0.18118 0.0
C1361 C 0.84743 0.70911 0.15248 0.0
C1362 C 0.87171 0.66666 0.11826 0.0
C1363 C 0.84981 0.70465 0.10631 0.0
C1364 C 0.9021 0.65242 0.05728 0.0
C1365 C 0.89971 0.60121 0.11011 0.0
N1366 N 0.86229 0.68451 0.09075 0.0
N1367 N 0.8869 0.62112 0.1249 0.0
loop_
_geom_bond_atom_site_label_1
_geom_bond_atom_site_label_2
_geom_bond_distance
_geom_bond_site_symmetry_2
_ccdc_geom_bond_type
Fe0 O2 1.918 1_556 S
Fe0 O5 1.997 . S
Fe0 O6 2.002 . S
Fe0 O11 1.976 . S
Fe0 O14 1.996 1_556 S
Fe1 O2 1.918 . S
Fe1 O9 1.997 1_554 S
Fe1 O12 1.996 1_554 S
Fe1 O16 1.976 . S
Fe1 O19 2.002 . S
O2 Fe0 1.918 1_554 S
O2 Fe1 1.918 . S
O2 Fe3 1.918 . S
Fe3 O2 1.918 . S
Fe3 O4 2.002 . S
Fe3 O13 1.976 . S
Fe3 O17 1.996 . S
Fe3 O20 1.997 . S
O4 Fe3 2.002 . S
O4 C21 1.295 1_554 S
O5 Fe0 1.997 . S
O5 C21 1.235 . S
O6 Fe0 2.002 . S
O6 C7 1.295 . S
C7 O6 1.295 . S
C7 O9 1.235 . S
C8 O13 1.287 . S
C8 O14 1.255 . S
O9 Fe1 1.997 1_556 S
O9 C7 1.235 . S
C10 O16 1.287 . S
C10 O17 1.255 . S
O11 Fe0 1.976 . S
O11 C18 1.287 . S
O12 Fe1 1.996 1_556 S
O12 C18 1.255 . S
O13 Fe3 1.976 . S
O13 C8 1.287 . S
O14 Fe0 1.996 1_554 S
O14 C8 1.255 . S
C15 O19 1.295 . S
C15 O20 1.235 . S
O16 Fe1 1.976 . S
O16 C10 1.287 . S
O17 Fe3 1.996 . S
O17 C10 1.255 . S
C18 O11 1.287 . S
C18 O12 1.255 . S
O19 Fe1 2.002 . S
O19 C15 1.295 . S
O20 Fe3 1.997 . S
O20 C15 1.235 . S
C21 O4 1.295 1_556 S
C21 O5 1.235 . S
Fe22 O24 1.918 1_556 S
Fe22 O27 1.997 . S
Fe22 O28 2.002 . S
Fe22 O33 1.976 . S
Fe22 O36 1.996 1_556 S
Fe23 O24 1.918 . S
Fe23 O31 1.997 1_554 S
Fe23 O34 1.996 1_554 S
Fe23 O38 1.976 . S
Fe23 O41 2.002 . S
O24 Fe22 1.918 1_554 S
O24 Fe23 1.918 . S
O24 Fe25 1.918 . S
Fe25 O24 1.918 . S
Fe25 O26 2.002 . S
Fe25 O35 1.976 . S
Fe25 O39 1.996 . S
Fe25 O42 1.997 . S
O26 Fe25 2.002 . S
O26 C43 1.295 1_554 S
O27 Fe22 1.997 . S
O27 C43 1.235 . S
O28 Fe22 2.002 . S
O28 C29 1.295 . S
C29 O28 1.295 . S
C29 O31 1.235 . S
C30 O35 1.287 . S
C30 O36 1.255 . S
O31 Fe23 1.997 1_556 S
O31 C29 1.235 . S
C32 O38 1.287 . S
C32 O39 1.255 . S
O33 Fe22 1.976 . S
O33 C40 1.287 . S
O34 Fe23 1.996 1_556 S
O34 C40 1.255 . S
O35 Fe25 1.976 . S
O35 C30 1.287 . S
O36 Fe22 1.996 1_554 S
O36 C30 1.255 . S
C37 O41 1.295 . S
C37 O42 1.235 . S
O38 Fe23 1.976 . S
O38 C32 1.287 . S
O39 Fe25 1.996 . S
O39 C32 1.255 . S
C40 O33 1.287 . S
C40 O34 1.255 . S
O41 Fe23 2.002 . S
O41 C37 1.295 . S
O42 Fe25 1.997 . S
O42 C37 1.235 . S
C43 O26 1.295 1_556 S
C43 O27 1.235 . S
Fe44 O46 1.918 1_556 S
Fe44 O49 1.997 . S
Fe44 O50 2.002 . S
Fe44 O55 1.976 . S
Fe44 O58 1.996 1_556 S
Fe45 O46 1.918 . S
Fe45 O53 1.997 1_554 S
Fe45 O56 1.996 1_554 S
Fe45 O60 1.976 . S
Fe45 O63 2.002 . S
O46 Fe44 1.918 1_554 S
O46 Fe45 1.918 . S
O46 Fe47 1.918 . S
Fe47 O46 1.918 . S
Fe47 O48 2.002 . S
Fe47 O57 1.976 . S
Fe47 O61 1.996 . S
Fe47 O64 1.997 . S
O48 Fe47 2.002 . S
O48 C65 1.295 1_554 S
O49 Fe44 1.997 . S
O49 C65 1.235 . S
O50 Fe44 2.002 . S
O50 C51 1.295 . S
C51 O50 1.295 . S
C51 O53 1.235 . S
C52 O57 1.287 . S
C52 O58 1.255 . S
O53 Fe45 1.997 1_556 S
O53 C51 1.235 . S
C54 O60 1.287 . S
C54 O61 1.255 . S
O55 Fe44 1.976 . S
O55 C62 1.287 . S
O56 Fe45 1.996 1_556 S
O56 C62 1.255 . S
O57 Fe47 1.976 . S
O57 C52 1.287 . S
O58 Fe44 1.996 1_554 S
O58 C52 1.255 . S
C59 O63 1.295 . S
C59 O64 1.235 . S
O60 Fe45 1.976 . S
O60 C54 1.287 . S
O61 Fe47 1.996 . S
O61 C54 1.255 . S
C62 O55 1.287 . S
C62 O56 1.255 . S
O63 Fe45 2.002 . S
O63 C59 1.295 . S
O64 Fe47 1.997 . S
O64 C59 1.235 . S
C65 O48 1.295 1_556 S
C65 O49 1.235 . S
Fe66 O68 1.918 . S
Fe66 O71 1.997 . S
Fe66 O72 2.002 . S
Fe66 O77 1.976 . S
Fe66 O80 1.996 . S
Fe67 O68 1.918 . S
Fe67 O75 1.997 . S
Fe67 O78 1.996 . S
Fe67 O82 1.976 . S
Fe67 O85 2.002 . S
O68 Fe66 1.918 . S
O68 Fe67 1.918 . S
O68 Fe69 1.918 . S
Fe69 O68 1.918 . S
Fe69 O70 2.002 . S
Fe69 O79 1.976 . S
Fe69 O83 1.996 . S
Fe69 O86 1.997 . S
O70 Fe69 2.002 . S
O70 C87 1.295 . S
O71 Fe66 1.997 . S
O71 C87 1.235 . S
O72 Fe66 2.002 . S
O72 C73 1.295 . S
C73 O72 1.295 . S
C73 O75 1.235 . S
C74 O79 1.287 . S
C74 O80 1.255 . S
O75 Fe67 1.997 . S
O75 C73 1.235 . S
C76 O82 1.287 . S
C76 O83 1.255 . S
O77 Fe66 1.976 . S
O77 C84 1.287 . S
O78 Fe67 1.996 . S
O78 C84 1.255 . S
O79 Fe69 1.976 . S
O79 C74 1.287 . S
O80 Fe66 1.996 . S
O80 C74 1.255 . S
C81 O85 1.295 . S
C81 O86 1.235 . S
O82 Fe67 1.976 . S
O82 C76 1.287 . S
O83 Fe69 1.996 . S
O83 C76 1.255 . S
C84 O77 1.287 . S
C84 O78 1.255 . S
O85 Fe67 2.002 . S
O85 C81 1.295 . S
O86 Fe69 1.997 . S
O86 C81 1.235 . S
C87 O70 1.295 . S
C87 O71 1.235 . S
Fe88 O90 1.918 . S
Fe88 O93 1.997 . S
Fe88 O94 2.002 . S
Fe88 O99 1.976 . S
Fe88 O102 1.996 . S
Fe89 O90 1.918 . S
Fe89 O97 1.997 . S
Fe89 O100 1.996 . S
Fe89 O104 1.976 . S
Fe89 O107 2.002 . S
O90 Fe88 1.918 . S
O90 Fe89 1.918 . S
O90 Fe91 1.918 . S
Fe91 O90 1.918 . S
Fe91 O92 2.002 . S
Fe91 O101 1.976 . S
Fe91 O105 1.996 . S
Fe91 O108 1.997 . S
O92 Fe91 2.002 . S
O92 C109 1.295 . S
O93 Fe88 1.997 . S
O93 C109 1.235 . S
O94 Fe88 2.002 . S
O94 C95 1.295 . S
C95 O94 1.295 . S
C95 O97 1.235 . S
C96 O101 1.287 . S
C96 O102 1.255 . S
O97 Fe89 1.997 . S
O97 C95 1.235 . S
C98 O104 1.287 . S
C98 O105 1.255 . S
O99 Fe88 1.976 . S
O99 C106 1.287 . S
O100 Fe89 1.996 . S
O100 C106 1.255 . S
O101 Fe91 1.976 . S
O101 C96 1.287 . S
O102 Fe88 1.996 . S
O102 C96 1.255 . S
C103 O107 1.295 . S
C103 O108 1.235 . S
O104 Fe89 1.976 . S
O104 C98 1.287 . S
O105 Fe91 1.996 . S
O105 C98 1.255 . S
C106 O99 1.287 . S
C106 O100 1.255 . S
O107 Fe89 2.002 . S
O107 C103 1.295 . S
O108 Fe91 1.997 . S
O108 C103 1.235 . S
C109 O92 1.295 . S
C109 O93 1.235 . S
Fe110 O112 1.918 . S
Fe110 O115 1.997 . S
Fe110 O116 2.002 . S
Fe110 O121 1.976 . S
Fe110 O124 1.996 . S
Fe111 O112 1.918 . S
Fe111 O119 1.997 . S
Fe111 O122 1.996 . S
Fe111 O126 1.976 . S
Fe111 O129 2.002 . S
O112 Fe110 1.918 . S
O112 Fe111 1.918 . S
O112 Fe113 1.918 . S
Fe113 O112 1.918 . S
Fe113 O114 2.002 . S
Fe113 O123 1.976 . S
Fe113 O127 1.996 . S
Fe113 O130 1.997 . S
O114 Fe113 2.002 . S
O114 C131 1.295 . S
O115 Fe110 1.997 . S
O115 C131 1.235 . S
O116 Fe110 2.002 . S
O116 C117 1.295 . S
C117 O116 1.295 . S
C117 O119 1.235 . S
C118 O123 1.287 . S
C118 O124 1.255 . S
O119 Fe111 1.997 . S
O119 C117 1.235 . S
C120 O126 1.287 . S
C120 O127 1.255 . S
O121 Fe110 1.976 . S
O121 C128 1.287 . S
O122 Fe111 1.996 . S
O122 C128 1.255 . S
O123 Fe113 1.976 . S
O123 C118 1.287 . S
O124 Fe110 1.996 . S
O124 C118 1.255 . S
C125 O129 1.295 . S
C125 O130 1.235 . S
O126 Fe111 1.976 . S
O126 C120 1.287 . S
O127 Fe113 1.996 . S
O127 C120 1.255 . S
C128 O121 1.287 . S
C128 O122 1.255 . S
O129 Fe111 2.002 . S
O129 C125 1.295 . S
O130 Fe113 1.997 . S
O130 C125 1.235 . S
C131 O114 1.295 . S
C131 O115 1.235 . S
Fe132 O134 1.918 . S
Fe132 O137 1.997 . S
Fe132 O138 2.002 . S
Fe132 O143 1.976 . S
Fe132 O146 1.996 . S
Fe133 O134 1.918 . S
Fe133 O141 1.997 . S
Fe133 O144 1.996 . S
Fe133 O148 1.976 . S
Fe133 O151 2.002 . S
O134 Fe132 1.918 . S
O134 Fe133 1.918 . S
O134 Fe135 1.918 . S
Fe135 O134 1.918 . S
Fe135 O136 2.002 . S
Fe135 O145 1.976 . S
Fe135 O149 1.996 . S
Fe135 O152 1.997 . S
O136 Fe135 2.002 . S
O136 C153 1.295 . S
O137 Fe132 1.997 . S
O137 C153 1.235 . S
O138 Fe132 2.002 . S
O138 C139 1.295 . S
C139 O138 1.295 . S
C139 O141 1.235 . S
C140 O145 1.287 . S
C140 O146 1.255 . S
O141 Fe133 1.997 . S
O141 C139 1.235 . S
C142 O148 1.287 . S
C142 O149 1.255 . S
O143 Fe132 1.976 . S
O143 C150 1.287 . S
O144 Fe133 1.996 . S
O144 C150 1.255 . S
O145 Fe135 1.976 . S
O145 C140 1.287 . S
O146 Fe132 1.996 . S
O146 C140 1.255 . S
C147 O151 1.295 . S
C147 O152 1.235 . S
O148 Fe133 1.976 . S
O148 C142 1.287 . S
O149 Fe135 1.996 . S
O149 C142 1.255 . S
C150 O143 1.287 . S
C150 O144 1.255 . S
O151 Fe133 2.002 . S
O151 C147 1.295 . S
O152 Fe135 1.997 . S
O152 C147 1.235 . S
C153 O136 1.295 . S
C153 O137 1.235 . S
Fe154 O156 1.918 . S
Fe154 O159 1.997 . S
Fe154 O160 2.002 . S
Fe154 O165 1.976 . S
Fe154 O168 1.996 . S
Fe155 O156 1.918 . S
Fe155 O163 1.997 . S
Fe155 O166 1.996 . S
Fe155 O170 1.976 . S
Fe155 O173 2.002 . S
O156 Fe154 1.918 . S
O156 Fe155 1.918 . S
O156 Fe157 1.918 . S
Fe157 O156 1.918 . S
Fe157 O158 2.002 . S
Fe157 O167 1.976 . S
Fe157 O171 1.996 . S
Fe157 O174 1.997 . S
O158 Fe157 2.002 . S
O158 C175 1.295 . S
O159 Fe154 1.997 . S
O159 C175 1.235 . S
O160 Fe154 2.002 . S
O160 C161 1.295 . S
C161 O160 1.295 . S
C161 O163 1.235 . S
C162 O167 1.287 . S
C162 O168 1.255 . S
O163 Fe155 1.997 . S
O163 C161 1.235 . S
C164 O170 1.287 . S
C164 O171 1.255 . S
O165 Fe154 1.976 . S
O165 C172 1.287 . S
O166 Fe155 1.996 . S
O166 C172 1.255 . S
O167 Fe157 1.976 . S
O167 C162 1.287 . S
O168 Fe154 1.996 . S
O168 C162 1.255 . S
C169 O173 1.295 . S
C169 O174 1.235 . S
O170 Fe155 1.976 . S
O170 C164 1.287 . S
O171 Fe157 1.996 . S
O171 C164 1.255 . S
C172 O165 1.287 . S
C172 O166 1.255 . S
O173 Fe155 2.002 . S
O173 C169 1.295 . S
O174 Fe157 1.997 . S
O174 C169 1.235 . S
C175 O158 1.295 . S
C175 O159 1.235 . S
Fe176 O178 1.918 . S
Fe176 O181 1.997 . S
Fe176 O182 2.002 . S
Fe176 O187 1.976 . S
Fe176 O190 1.996 . S
Fe177 O178 1.918 . S
Fe177 O185 1.997 . S
Fe177 O188 1.996 . S
Fe177 O192 1.976 . S
Fe177 O195 2.002 . S
O178 Fe176 1.918 . S
O178 Fe177 1.918 . S
O178 Fe179 1.918 . S
Fe179 O178 1.918 . S
Fe179 O180 2.002 . S
Fe179 O189 1.976 . S
Fe179 O193 1.996 . S
Fe179 O196 1.997 . S
O180 Fe179 2.002 . S
O180 C197 1.295 . S
O181 Fe176 1.997 . S
O181 C197 1.235 . S
O182 Fe176 2.002 . S
O182 C183 1.295 . S
C183 O182 1.295 . S
C183 O185 1.235 . S
C184 O189 1.287 . S
C184 O190 1.255 . S
O185 Fe177 1.997 . S
O185 C183 1.235 . S
C186 O192 1.287 . S
C186 O193 1.255 . S
O187 Fe176 1.976 . S
O187 C194 1.287 . S
O188 Fe177 1.996 . S
O188 C194 1.255 . S
O189 Fe179 1.976 . S
O189 C184 1.287 . S
O190 Fe176 1.996 . S
O190 C184 1.255 . S
C191 O195 1.295 . S
C191 O196 1.235 . S
O192 Fe177 1.976 . S
O192 C186 1.287 . S
O193 Fe179 1.996 . S
O193 C186 1.255 . S
C194 O187 1.287 . S
C194 O188 1.255 . S
O195 Fe177 2.002 . S
O195 C191 1.295 . S
O196 Fe179 1.997 . S
O196 C191 1.235 . S
C197 O180 1.295 . S
C197 O181 1.235 . S
Fe198 O200 1.918 . S
Fe198 O203 1.997 . S
Fe198 O204 2.002 . S
Fe198 O209 1.976 . S
Fe198 O212 1.996 . S
Fe199 O200 1.918 . S
Fe199 O207 1.997 . S
Fe199 O210 1.996 . S
Fe199 O214 1.976 . S
Fe199 O217 2.002 . S
O200 Fe198 1.918 . S
O200 Fe199 1.918 . S
O200 Fe201 1.918 . S
Fe201 O200 1.918 . S
Fe201 O202 2.002 . S
Fe201 O211 1.976 . S
Fe201 O215 1.996 . S
Fe201 O218 1.997 . S
O202 Fe201 2.002 . S
O202 C219 1.295 . S
O203 Fe198 1.997 . S
O203 C219 1.235 . S
O204 Fe198 2.002 . S
O204 C205 1.295 . S
C205 O204 1.295 . S
C205 O207 1.235 . S
C206 O211 1.287 . S
C206 O212 1.255 . S
O207 Fe199 1.997 . S
O207 C205 1.235 . S
C208 O214 1.287 . S
C208 O215 1.255 . S
O209 Fe198 1.976 . S
O209 C216 1.287 . S
O210 Fe199 1.996 . S
O210 C216 1.255 . S
O211 Fe201 1.976 . S
O211 C206 1.287 . S
O212 Fe198 1.996 . S
O212 C206 1.255 . S
C213 O217 1.295 . S
C213 O218 1.235 . S
O214 Fe199 1.976 . S
O214 C208 1.287 . S
O215 Fe201 1.996 . S
O215 C208 1.255 . S
C216 O209 1.287 . S
C216 O210 1.255 . S
O217 Fe199 2.002 . S
O217 C213 1.295 . S
O218 Fe201 1.997 . S
O218 C213 1.235 . S
C219 O202 1.295 . S
C219 O203 1.235 . S
Fe220 O222 1.918 . S
Fe220 O225 1.997 . S
Fe220 O226 2.002 . S
Fe220 O231 1.976 . S
Fe220 O234 1.996 . S
Fe221 O222 1.918 . S
Fe221 O229 1.997 . S
Fe221 O232 1.996 . S
Fe221 O236 1.976 . S
Fe221 O239 2.002 . S
O222 Fe220 1.918 . S
O222 Fe221 1.918 . S
O222 Fe223 1.918 . S
Fe223 O222 1.918 . S
Fe223 O224 2.002 . S
Fe223 O233 1.976 . S
Fe223 O237 1.996 . S
Fe223 O240 1.997 . S
O224 Fe223 2.002 . S
O224 C241 1.295 . S
O225 Fe220 1.997 . S
O225 C241 1.235 . S
O226 Fe220 2.002 . S
O226 C227 1.295 . S
C227 O226 1.295 . S
C227 O229 1.235 . S
C228 O233 1.287 . S
C228 O234 1.255 . S
O229 Fe221 1.997 . S
O229 C227 1.235 . S
C230 O236 1.287 . S
C230 O237 1.255 . S
O231 Fe220 1.976 . S
O231 C238 1.287 . S
O232 Fe221 1.996 . S
O232 C238 1.255 . S
O233 Fe223 1.976 . S
O233 C228 1.287 . S
O234 Fe220 1.996 . S
O234 C228 1.255 . S
C235 O239 1.295 . S
C235 O240 1.235 . S
O236 Fe221 1.976 . S
O236 C230 1.287 . S
O237 Fe223 1.996 . S
O237 C230 1.255 . S
C238 O231 1.287 . S
C238 O232 1.255 . S
O239 Fe221 2.002 . S
O239 C235 1.295 . S
O240 Fe223 1.997 . S
O240 C235 1.235 . S
C241 O224 1.295 . S
C241 O225 1.235 . S
Fe242 O244 1.918 . S
Fe242 O247 1.997 . S
Fe242 O248 2.002 . S
Fe242 O253 1.976 . S
Fe242 O256 1.996 . S
Fe243 O244 1.918 . S
Fe243 O251 1.997 . S
Fe243 O254 1.996 . S
Fe243 O258 1.976 . S
Fe243 O261 2.002 . S
O244 Fe242 1.918 . S
O244 Fe243 1.918 . S
O244 Fe245 1.918 . S
Fe245 O244 1.918 . S
Fe245 O246 2.002 . S
Fe245 O255 1.976 . S
Fe245 O259 1.996 . S
Fe245 O262 1.997 . S
O246 Fe245 2.002 . S
O246 C263 1.295 . S
O247 Fe242 1.997 . S
O247 C263 1.235 . S
O248 Fe242 2.002 . S
O248 C249 1.295 . S
C249 O248 1.295 . S
C249 O251 1.235 . S
C250 O255 1.287 . S
C250 O256 1.255 . S
O251 Fe243 1.997 . S
O251 C249 1.235 . S
C252 O258 1.287 . S
C252 O259 1.255 . S
O253 Fe242 1.976 . S
O253 C260 1.287 . S
O254 Fe243 1.996 . S
O254 C260 1.255 . S
O255 Fe245 1.976 . S
O255 C250 1.287 . S
O256 Fe242 1.996 . S
O256 C250 1.255 . S
C257 O261 1.295 . S
C257 O262 1.235 . S
O258 Fe243 1.976 . S
O258 C252 1.287 . S
O259 Fe245 1.996 . S
O259 C252 1.255 . S
C260 O253 1.287 . S
C260 O254 1.255 . S
O261 Fe243 2.002 . S
O261 C257 1.295 . S
O262 Fe245 1.997 . S
O262 C257 1.235 . S
C263 O246 1.295 . S
C263 O247 1.235 . S
Fe264 O266 1.918 . S
Fe264 O269 1.997 . S
Fe264 O270 2.002 . S
Fe264 O275 1.976 . S
Fe264 O278 1.996 . S
Fe265 O266 1.918 . S
Fe265 O273 1.997 . S
Fe265 O276 1.996 . S
Fe265 O280 1.976 . S
Fe265 O283 2.002 . S
O266 Fe264 1.918 . S
O266 Fe265 1.918 . S
O266 Fe267 1.918 . S
Fe267 O266 1.918 . S
Fe267 O268 2.002 1_655 S
Fe267 O277 1.976 . S
Fe267 O281 1.996 . S
Fe267 O284 1.997 . S
O268 Fe267 2.002 1_455 S
O268 C285 1.295 . S
O269 Fe264 1.997 . S
O269 C285 1.235 1_655 S
O270 Fe264 2.002 . S
O270 C271 1.295 . S
C271 O270 1.295 . S
C271 O273 1.235 . S
C272 O277 1.287 . S
C272 O278 1.255 . S
O273 Fe265 1.997 . S
O273 C271 1.235 . S
C274 O280 1.287 . S
C274 O281 1.255 . S
O275 Fe264 1.976 . S
O275 C282 1.287 . S
O276 Fe265 1.996 . S
O276 C282 1.255 . S
O277 Fe267 1.976 . S
O277 C272 1.287 . S
O278 Fe264 1.996 . S
O278 C272 1.255 . S
C279 O283 1.295 . S
C279 O284 1.235 . S
O280 Fe265 1.976 . S
O280 C274 1.287 . S
O281 Fe267 1.996 . S
O281 C274 1.255 . S
C282 O275 1.287 . S
C282 O276 1.255 . S
O283 Fe265 2.002 . S
O283 C279 1.295 . S
O284 Fe267 1.997 . S
O284 C279 1.235 . S
C285 O268 1.295 . S
C285 O269 1.235 1_455 S
Fe286 O288 1.918 . S
Fe286 O291 1.997 . S
Fe286 O292 2.002 . S
Fe286 O297 1.976 . S
Fe286 O300 1.996 . S
Fe287 O288 1.918 . S
Fe287 O295 1.997 . S
Fe287 O298 1.996 . S
Fe287 O302 1.976 . S
Fe287 O305 2.002 . S
O288 Fe286 1.918 . S
O288 Fe287 1.918 . S
O288 Fe289 1.918 . S
Fe289 O288 1.918 . S
Fe289 O290 2.002 . S
Fe289 O299 1.976 . S
Fe289 O303 1.996 . S
Fe289 O306 1.997 . S
O290 Fe289 2.002 . S
O290 C307 1.295 . S
O291 Fe286 1.997 . S
O291 C307 1.235 . S
O292 Fe286 2.002 . S
O292 C293 1.295 . S
C293 O292 1.295 . S
C293 O295 1.235 . S
C294 O299 1.287 . S
C294 O300 1.255 . S
O295 Fe287 1.997 . S
O295 C293 1.235 . S
C296 O302 1.287 . S
C296 O303 1.255 . S
O297 Fe286 1.976 . S
O297 C304 1.287 . S
O298 Fe287 1.996 . S
O298 C304 1.255 . S
O299 Fe289 1.976 . S
O299 C294 1.287 . S
O300 Fe286 1.996 . S
O300 C294 1.255 . S
C301 O305 1.295 . S
C301 O306 1.235 . S
O302 Fe287 1.976 . S
O302 C296 1.287 . S
O303 Fe289 1.996 . S
O303 C296 1.255 . S
C304 O297 1.287 . S
C304 O298 1.255 . S
O305 Fe287 2.002 . S
O305 C301 1.295 . S
O306 Fe289 1.997 . S
O306 C301 1.235 . S
C307 O290 1.295 . S
C307 O291 1.235 . S
Fe308 O310 1.918 . S
Fe308 O313 1.997 . S
Fe308 O314 2.002 . S
Fe308 O319 1.976 . S
Fe308 O322 1.996 . S
Fe309 O310 1.918 . S
Fe309 O317 1.997 . S
Fe309 O320 1.996 . S
Fe309 O324 1.976 . S
Fe309 O327 2.002 . S
O310 Fe308 1.918 . S
O310 Fe309 1.918 . S
O310 Fe311 1.918 . S
Fe311 O310 1.918 . S
Fe311 O312 2.002 1_545 S
Fe311 O321 1.976 . S
Fe311 O325 1.996 . S
Fe311 O328 1.997 . S
O312 Fe311 2.002 1_565 S
O312 C329 1.295 . S
O313 Fe308 1.997 . S
O313 C329 1.235 1_545 S
O314 Fe308 2.002 . S
O314 C315 1.295 . S
C315 O314 1.295 . S
C315 O317 1.235 . S
C316 O321 1.287 . S
C316 O322 1.255 . S
O317 Fe309 1.997 . S
O317 C315 1.235 . S
C318 O324 1.287 . S
C318 O325 1.255 . S
O319 Fe308 1.976 . S
O319 C326 1.287 . S
O320 Fe309 1.996 . S
O320 C326 1.255 . S
O321 Fe311 1.976 . S
O321 C316 1.287 . S
O322 Fe308 1.996 . S
O322 C316 1.255 . S
C323 O327 1.295 . S
C323 O328 1.235 . S
O324 Fe309 1.976 . S
O324 C318 1.287 . S
O325 Fe311 1.996 . S
O325 C318 1.255 . S
C326 O319 1.287 . S
C326 O320 1.255 . S
O327 Fe309 2.002 . S
O327 C323 1.295 . S
O328 Fe311 1.997 . S
O328 C323 1.235 . S
C329 O312 1.295 . S
C329 O313 1.235 1_565 S
Fe330 O332 1.918 . S
Fe330 O335 1.997 . S
Fe330 O336 2.002 . S
Fe330 O341 1.976 . S
Fe330 O344 1.996 . S
Fe331 O332 1.918 . S
Fe331 O339 1.997 . S
Fe331 O342 1.996 . S
Fe331 O346 1.976 . S
Fe331 O349 2.002 . S
O332 Fe330 1.918 . S
O332 Fe331 1.918 . S
O332 Fe333 1.918 . S
Fe333 O332 1.918 . S
Fe333 O334 2.002 1_545 S
Fe333 O343 1.976 . S
Fe333 O347 1.996 . S
Fe333 O350 1.997 . S
O334 Fe333 2.002 1_565 S
O334 C351 1.295 . S
O335 Fe330 1.997 . S
O335 C351 1.235 1_545 S
O336 Fe330 2.002 . S
O336 C337 1.295 . S
C337 O336 1.295 . S
C337 O339 1.235 . S
C338 O343 1.287 . S
C338 O344 1.255 . S
O339 Fe331 1.997 . S
O339 C337 1.235 . S
C340 O346 1.287 . S
C340 O347 1.255 . S
O341 Fe330 1.976 . S
O341 C348 1.287 . S
O342 Fe331 1.996 . S
O342 C348 1.255 . S
O343 Fe333 1.976 . S
O343 C338 1.287 . S
O344 Fe330 1.996 . S
O344 C338 1.255 . S
C345 O349 1.295 . S
C345 O350 1.235 . S
O346 Fe331 1.976 . S
O346 C340 1.287 . S
O347 Fe333 1.996 . S
O347 C340 1.255 . S
C348 O341 1.287 . S
C348 O342 1.255 . S
O349 Fe331 2.002 . S
O349 C345 1.295 . S
O350 Fe333 1.997 . S
O350 C345 1.235 . S
C351 O334 1.295 . S
C351 O335 1.235 1_565 S
Fe352 O354 1.918 . S
Fe352 O357 1.997 . S
Fe352 O358 2.002 . S
Fe352 O363 1.976 . S
Fe352 O366 1.996 . S
Fe353 O354 1.918 . S
Fe353 O361 1.997 . S
Fe353 O364 1.996 . S
Fe353 O368 1.976 . S
Fe353 O371 2.002 . S
O354 Fe352 1.918 . S
O354 Fe353 1.918 . S
O354 Fe355 1.918 . S
Fe355 O354 1.918 . S
Fe355 O356 2.002 1_655 S
Fe355 O365 1.976 . S
Fe355 O369 1.996 . S
Fe355 O372 1.997 . S
O356 Fe355 2.002 1_455 S
O356 C373 1.295 . S
O357 Fe352 1.997 . S
O357 C373 1.235 1_655 S
O358 Fe352 2.002 . S
O358 C359 1.295 . S
C359 O358 1.295 . S
C359 O361 1.235 . S
C360 O365 1.287 . S
C360 O366 1.255 . S
O361 Fe353 1.997 . S
O361 C359 1.235 . S
C362 O368 1.287 . S
C362 O369 1.255 . S
O363 Fe352 1.976 . S
O363 C370 1.287 . S
O364 Fe353 1.996 . S
O364 C370 1.255 . S
O365 Fe355 1.976 . S
O365 C360 1.287 . S
O366 Fe352 1.996 . S
O366 C360 1.255 . S
C367 O371 1.295 . S
C367 O372 1.235 . S
O368 Fe353 1.976 . S
O368 C362 1.287 . S
O369 Fe355 1.996 . S
O369 C362 1.255 . S
C370 O363 1.287 . S
C370 O364 1.255 . S
O371 Fe353 2.002 . S
O371 C367 1.295 . S
O372 Fe355 1.997 . S
O372 C367 1.235 . S
C373 O356 1.295 . S
C373 O357 1.235 1_455 S
Fe374 O376 1.918 . S
Fe374 O379 1.997 . S
Fe374 O380 2.002 . S
Fe374 O385 1.976 . S
Fe374 O388 1.996 . S
Fe375 O376 1.918 . S
Fe375 O383 1.997 . S
Fe375 O386 1.996 . S
Fe375 O390 1.976 . S
Fe375 O393 2.002 . S
O376 Fe374 1.918 . S
O376 Fe375 1.918 . S
O376 Fe377 1.918 . S
Fe377 O376 1.918 . S
Fe377 O378 2.002 . S
Fe377 O387 1.976 . S
Fe377 O391 1.996 . S
Fe377 O394 1.997 . S
O378 Fe377 2.002 . S
O378 C395 1.295 . S
O379 Fe374 1.997 . S
O379 C395 1.235 . S
O380 Fe374 2.002 . S
O380 C381 1.295 . S
C381 O380 1.295 . S
C381 O383 1.235 . S
C382 O387 1.287 . S
C382 O388 1.255 . S
O383 Fe375 1.997 . S
O383 C381 1.235 . S
C384 O390 1.287 . S
C384 O391 1.255 . S
O385 Fe374 1.976 . S
O385 C392 1.287 . S
O386 Fe375 1.996 . S
O386 C392 1.255 . S
O387 Fe377 1.976 . S
O387 C382 1.287 . S
O388 Fe374 1.996 . S
O388 C382 1.255 . S
C389 O393 1.295 . S
C389 O394 1.235 . S
O390 Fe375 1.976 . S
O390 C384 1.287 . S
O391 Fe377 1.996 . S
O391 C384 1.255 . S
C392 O385 1.287 . S
C392 O386 1.255 . S
O393 Fe375 2.002 . S
O393 C389 1.295 . S
O394 Fe377 1.997 . S
O394 C389 1.235 . S
C395 O378 1.295 . S
C395 O379 1.235 . S
H396 C402 0.930 . S
H397 C406 0.930 . S
H398 C411 0.929 . S
H399 C409 0.929 . S
H400 C404 0.929 . S
H401 C410 0.929 . S
C402 H396 0.930 . S
C402 C403 1.367 . S
C402 C410 1.378 . S
C403 C402 1.367 . S
C403 C411 1.433 1_554 S
C404 H400 0.929 . S
C404 C406 1.378 . S
C404 C408 1.350 . S
C405 C408 1.463 1_554 S
C405 C410 1.350 . S
C405 N413 1.427 1_554 S
C406 H397 0.930 . S
C406 C404 1.378 . S
C406 C407 1.367 . S
C407 C406 1.367 . S
C407 C409 1.433 1_556 S
C408 C404 1.350 . S
C408 C405 1.463 1_556 S
C408 N412 1.427 1_556 S
C409 H399 0.929 . S
C409 C407 1.433 1_554 S
C409 N412 1.384 . S
C410 H401 0.929 . S
C410 C402 1.378 . S
C410 C405 1.350 . S
C411 H398 0.929 . S
C411 C403 1.433 1_556 S
C411 N413 1.384 . S
N412 C408 1.427 1_554 S
N412 C409 1.384 . S
N413 C405 1.427 1_556 S
N413 C411 1.384 . S
H414 C420 0.921 1_554 S
H415 C424 0.930 . S
H416 C429 0.929 . S
H417 C427 0.929 . S
H418 C422 0.929 . S
H419 C428 0.929 . S
C420 H414 0.921 1_556 S
C420 C421 1.382 . S
C420 C428 1.372 1_556 S
C421 C420 1.382 . S
C421 C429 1.433 . S
C422 H418 0.929 . S
C422 C424 1.378 . S
C422 C426 1.350 1_556 S
C423 C426 1.463 1_556 S
C423 C428 1.350 1_556 S
C423 N431 1.427 . S
C424 H415 0.930 . S
C424 C422 1.378 . S
C424 C425 1.367 1_556 S
C425 C424 1.367 1_554 S
C425 C427 1.433 . S
C426 C422 1.350 1_554 S
C426 C423 1.463 1_554 S
C426 N430 1.427 . S
C427 H417 0.929 . S
C427 C425 1.433 . S
C427 N430 1.384 . S
C428 H419 0.929 . S
C428 C420 1.372 1_554 S
C428 C423 1.350 1_554 S
C429 H416 0.929 . S
C429 C421 1.433 . S
C429 N431 1.384 . S
N430 C426 1.427 . S
N430 C427 1.384 . S
N431 C423 1.427 . S
N431 C429 1.384 . S
H432 C438 0.930 . S
H433 C442 0.930 . S
H434 C447 0.929 . S
H435 C445 0.929 . S
H436 C440 0.929 . S
H437 C446 0.929 . S
C438 H432 0.930 . S
C438 C439 1.367 1_556 S
C438 C446 1.378 . S
C439 C438 1.367 1_554 S
C439 C447 1.433 . S
C440 H436 0.929 . S
C440 C442 1.378 . S
C440 C444 1.350 1_554 S
C441 C444 1.463 1_554 S
C441 C446 1.350 1_554 S
C441 N449 1.427 . S
C442 H433 0.930 . S
C442 C440 1.378 . S
C442 C443 1.367 1_554 S
C443 C442 1.367 1_556 S
C443 C445 1.433 . S
C444 C440 1.350 1_556 S
C444 C441 1.463 1_556 S
C444 N448 1.427 . S
C445 H435 0.929 . S
C445 C443 1.433 . S
C445 N448 1.384 . S
C446 H437 0.929 . S
C446 C438 1.378 . S
C446 C441 1.350 1_556 S
C447 H434 0.929 . S
C447 C439 1.433 . S
C447 N449 1.384 . S
N448 C444 1.427 . S
N448 C445 1.384 . S
N449 C441 1.427 . S
N449 C447 1.384 . S
H450 C456 0.930 . S
H451 C460 0.930 . S
H452 C465 0.929 . S
H453 C463 0.929 . S
H454 C458 0.929 . S
H455 C464 0.929 . S
C456 H450 0.930 . S
C456 C457 1.367 . S
C456 C464 1.378 . S
C457 C456 1.367 . S
C457 C465 1.433 . S
C458 H454 0.929 . S
C458 C460 1.378 . S
C458 C462 1.350 . S
C459 C462 1.463 . S
C459 C464 1.350 . S
C459 N467 1.427 . S
C460 H451 0.930 . S
C460 C458 1.378 . S
C460 C461 1.367 . S
C461 C460 1.367 . S
C461 C463 1.433 . S
C462 C458 1.350 . S
C462 C459 1.463 . S
C462 N466 1.427 . S
C463 H453 0.929 . S
C463 C461 1.433 . S
C463 N466 1.384 . S
C464 H455 0.929 . S
C464 C456 1.378 . S
C464 C459 1.350 . S
C465 H452 0.929 . S
C465 C457 1.433 . S
C465 N467 1.384 . S
N466 C462 1.427 . S
N466 C463 1.384 . S
N467 C459 1.427 . S
N467 C465 1.384 . S
H468 C474 0.930 . S
H469 C478 0.930 . S
H470 C483 0.929 . S
H471 C481 0.929 . S
H472 C476 0.929 . S
H473 C482 0.929 . S
C474 H468 0.930 . S
C474 C475 1.367 . S
C474 C482 1.378 . S
C475 C474 1.367 . S
C475 C483 1.433 . S
C476 H472 0.929 . S
C476 C478 1.378 . S
C476 C480 1.350 . S
C477 C480 1.463 . S
C477 C482 1.350 . S
C477 N485 1.427 . S
C478 H469 0.930 . S
C478 C476 1.378 . S
C478 C479 1.367 . S
C479 C478 1.367 . S
C479 C481 1.433 . S
C480 C476 1.350 . S
C480 C477 1.463 . S
C480 N484 1.427 . S
C481 H471 0.929 . S
C481 C479 1.433 . S
C481 N484 1.384 . S
C482 H473 0.929 . S
C482 C474 1.378 . S
C482 C477 1.350 . S
C483 H470 0.929 . S
C483 C475 1.433 . S
C483 N485 1.384 . S
N484 C480 1.427 . S
N484 C481 1.384 . S
N485 C477 1.427 . S
N485 C483 1.384 . S
H486 C492 0.930 . S
H487 C496 0.930 . S
H488 C501 0.929 . S
H489 C499 0.929 . S
H490 C494 0.929 . S
H491 C500 0.929 . S
C492 H486 0.930 . S
C492 C493 1.367 . S
C492 C500 1.378 . S
C493 C492 1.367 . S
C493 C501 1.433 . S
C494 H490 0.929 . S
C494 C496 1.378 . S
C494 C498 1.350 . S
C495 C498 1.463 . S
C495 C500 1.350 . S
C495 N503 1.427 . S
C496 H487 0.930 . S
C496 C494 1.378 . S
C496 C497 1.367 . S
C497 C496 1.367 . S
C497 C499 1.433 . S
C498 C494 1.350 . S
C498 C495 1.463 . S
C498 N502 1.427 . S
C499 H489 0.929 . S
C499 C497 1.433 . S
C499 N502 1.384 . S
C500 H491 0.929 . S
C500 C492 1.378 . S
C500 C495 1.350 . S
C501 H488 0.929 . S
C501 C493 1.433 . S
C501 N503 1.384 . S
N502 C498 1.427 . S
N502 C499 1.384 . S
N503 C495 1.427 . S
N503 C501 1.384 . S
H504 C510 0.930 . S
H505 C514 0.930 . S
H506 C519 0.929 . S
H507 C517 0.929 . S
H508 C512 0.929 . S
H509 C518 0.929 . S
C510 H504 0.930 . S
C510 C511 1.367 . S
C510 C518 1.378 . S
C511 C510 1.367 . S
C511 C519 1.433 . S
C512 H508 0.929 . S
C512 C514 1.378 . S
C512 C516 1.350 . S
C513 C516 1.463 . S
C513 C518 1.350 . S
C513 N521 1.427 . S
C514 H505 0.930 . S
C514 C512 1.378 . S
C514 C515 1.367 . S
C515 C514 1.367 . S
C515 C517 1.433 . S
C516 C512 1.350 . S
C516 C513 1.463 . S
C516 N520 1.427 . S
C517 H507 0.929 . S
C517 C515 1.433 . S
C517 N520 1.384 . S
C518 H509 0.929 . S
C518 C510 1.378 . S
C518 C513 1.350 . S
C519 H506 0.929 . S
C519 C511 1.433 . S
C519 N521 1.384 . S
N520 C516 1.427 . S
N520 C517 1.384 . S
N521 C513 1.427 . S
N521 C519 1.384 . S
H522 C528 0.930 . S
H523 C532 0.930 . S
H524 C537 0.929 . S
H525 C535 0.929 . S
H526 C530 0.929 . S
H527 C536 0.929 . S
C528 H522 0.930 . S
C528 C529 1.367 . S
C528 C536 1.378 . S
C529 C528 1.367 . S
C529 C537 1.433 . S
C530 H526 0.929 . S
C530 C532 1.378 . S
C530 C534 1.350 . S
C531 C534 1.463 . S
C531 C536 1.350 . S
C531 N539 1.427 . S
C532 H523 0.930 . S
C532 C530 1.378 . S
C532 C533 1.367 . S
C533 C532 1.367 . S
C533 C535 1.433 . S
C534 C530 1.350 . S
C534 C531 1.463 . S
C534 N538 1.427 . S
C535 H525 0.929 . S
C535 C533 1.433 . S
C535 N538 1.384 . S
C536 H527 0.929 . S
C536 C528 1.378 . S
C536 C531 1.350 . S
C537 H524 0.929 . S
C537 C529 1.433 . S
C537 N539 1.384 . S
N538 C534 1.427 . S
N538 C535 1.384 . S
N539 C531 1.427 . S
N539 C537 1.384 . S
H540 C546 0.930 . S
H541 C550 0.930 . S
H542 C555 0.929 . S
H543 C553 0.929 . S
H544 C548 0.929 . S
H545 C554 0.929 . S
C546 H540 0.930 . S
C546 C547 1.367 . S
C546 C554 1.378 . S
C547 C546 1.367 . S
C547 C555 1.433 . S
C548 H544 0.929 . S
C548 C550 1.378 . S
C548 C552 1.350 . S
C549 C552 1.463 . S
C549 C554 1.350 . S
C549 N557 1.427 . S
C550 H541 0.930 . S
C550 C548 1.378 . S
C550 C551 1.367 . S
C551 C550 1.367 . S
C551 C553 1.433 . S
C552 C548 1.350 . S
C552 C549 1.463 . S
C552 N556 1.427 . S
C553 H543 0.929 . S
C553 C551 1.433 . S
C553 N556 1.384 . S
C554 H545 0.929 . S
C554 C546 1.378 . S
C554 C549 1.350 . S
C555 H542 0.929 . S
C555 C547 1.433 . S
C555 N557 1.384 . S
N556 C552 1.427 . S
N556 C553 1.384 . S
N557 C549 1.427 . S
N557 C555 1.384 . S
H558 C564 0.930 . S
H559 C568 0.930 . S
H560 C573 0.929 . S
H561 C571 0.929 . S
H562 C566 0.929 . S
H563 C572 0.929 . S
C564 H558 0.930 . S
C564 C565 1.367 . S
C564 C572 1.378 . S
C565 C564 1.367 . S
C565 C573 1.433 . S
C566 H562 0.929 . S
C566 C568 1.378 . S
C566 C570 1.350 . S
C567 C570 1.463 . S
C567 C572 1.350 . S
C567 N575 1.427 . S
C568 H559 0.930 . S
C568 C566 1.378 . S
C568 C569 1.367 . S
C569 C568 1.367 . S
C569 C571 1.433 . S
C570 C566 1.350 . S
C570 C567 1.463 . S
C570 N574 1.427 . S
C571 H561 0.929 . S
C571 C569 1.433 . S
C571 N574 1.384 . S
C572 H563 0.929 . S
C572 C564 1.378 . S
C572 C567 1.350 . S
C573 H560 0.929 . S
C573 C565 1.433 . S
C573 N575 1.384 . S
N574 C570 1.427 . S
N574 C571 1.384 . S
N575 C567 1.427 . S
N575 C573 1.384 . S
H576 C582 0.930 . S
H577 C586 0.930 . S
H578 C591 0.929 . S
H579 C589 0.929 . S
H580 C584 0.929 . S
H581 C590 0.929 . S
C582 H576 0.930 . S
C582 C583 1.367 . S
C582 C590 1.378 . S
C583 C582 1.367 . S
C583 C591 1.433 . S
C584 H580 0.929 . S
C584 C586 1.378 . S
C584 C588 1.350 . S
C585 C588 1.463 . S
C585 C590 1.350 . S
C585 N593 1.427 . S
C586 H577 0.930 . S
C586 C584 1.378 . S
C586 C587 1.367 . S
C587 C586 1.367 . S
C587 C589 1.433 . S
C588 C584 1.350 . S
C588 C585 1.463 . S
C588 N592 1.427 . S
C589 H579 0.929 . S
C589 C587 1.433 . S
C589 N592 1.384 . S
C590 H581 0.929 . S
C590 C582 1.378 . S
C590 C585 1.350 . S
C591 H578 0.929 . S
C591 C583 1.433 . S
C591 N593 1.384 . S
N592 C588 1.427 . S
N592 C589 1.384 . S
N593 C585 1.427 . S
N593 C591 1.384 . S
H594 C600 0.930 . S
H595 C604 0.930 . S
H596 C609 0.929 . S
H597 C607 0.929 . S
H598 C602 0.929 . S
H599 C608 0.929 . S
C600 H594 0.930 . S
C600 C601 1.367 . S
C600 C608 1.378 . S
C601 C600 1.367 . S
C601 C609 1.433 . S
C602 H598 0.929 . S
C602 C604 1.378 . S
C602 C606 1.350 . S
C603 C606 1.463 . S
C603 C608 1.350 . S
C603 N611 1.427 . S
C604 H595 0.930 . S
C604 C602 1.378 . S
C604 C605 1.367 . S
C605 C604 1.367 . S
C605 C607 1.433 . S
C606 C602 1.350 . S
C606 C603 1.463 . S
C606 N610 1.427 . S
C607 H597 0.929 . S
C607 C605 1.433 . S
C607 N610 1.384 . S
C608 H599 0.929 . S
C608 C600 1.378 . S
C608 C603 1.350 . S
C609 H596 0.929 . S
C609 C601 1.433 . S
C609 N611 1.384 . S
N610 C606 1.427 . S
N610 C607 1.384 . S
N611 C603 1.427 . S
N611 C609 1.384 . S
H612 C618 0.930 . S
H613 C622 0.930 . S
H614 C627 0.929 . S
H615 C625 0.929 . S
H616 C620 0.929 . S
H617 C626 0.929 . S
C618 H612 0.930 . S
C618 C619 1.367 . S
C618 C626 1.378 . S
C619 C618 1.367 . S
C619 C627 1.433 . S
C620 H616 0.929 . S
C620 C622 1.378 . S
C620 C624 1.350 . S
C621 C624 1.463 . S
C621 C626 1.350 . S
C621 N629 1.427 . S
C622 H613 0.930 . S
C622 C620 1.378 . S
C622 C623 1.367 . S
C623 C622 1.367 . S
C623 C625 1.433 . S
C624 C620 1.350 . S
C624 C621 1.463 . S
C624 N628 1.427 . S
C625 H615 0.929 . S
C625 C623 1.433 . S
C625 N628 1.384 . S
C626 H617 0.929 . S
C626 C618 1.378 . S
C626 C621 1.350 . S
C627 H614 0.929 . S
C627 C619 1.433 . S
C627 N629 1.384 . S
N628 C624 1.427 . S
N628 C625 1.384 . S
N629 C621 1.427 . S
N629 C627 1.384 . S
H630 C636 0.930 . S
H631 C640 0.930 . S
H632 C645 0.929 . S
H633 C643 0.929 1_655 S
H634 C638 0.929 . S
H635 C644 0.929 . S
C636 H630 0.930 . S
C636 C637 1.367 . S
C636 C644 1.378 1_545 S
C637 C636 1.367 . S
C637 C645 1.433 . S
C638 H634 0.929 . S
C638 C640 1.378 . S
C638 C642 1.350 . S
C639 C642 1.463 . S
C639 C644 1.350 . S
C639 N647 1.427 . S
C640 H631 0.930 . S
C640 C638 1.378 . S
C640 C641 1.367 . S
C641 C640 1.367 . S
C641 C643 1.433 . S
C642 C638 1.350 . S
C642 C639 1.463 . S
C642 N646 1.427 . S
C643 H633 0.929 1_455 S
C643 C641 1.433 . S
C643 N646 1.384 . S
C644 H635 0.929 . S
C644 C636 1.378 1_565 S
C644 C639 1.350 . S
C645 H632 0.929 . S
C645 C637 1.433 . S
C645 N647 1.384 1_545 S
N646 C642 1.427 . S
N646 C643 1.384 . S
N647 C639 1.427 . S
N647 C645 1.384 1_565 S
H648 C654 0.930 . S
H649 C658 0.930 . S
H650 C663 0.929 . S
H651 C661 0.929 . S
H652 C656 0.929 . S
H653 C662 0.929 . S
C654 H648 0.930 . S
C654 C655 1.367 . S
C654 C662 1.378 1_655 S
C655 C654 1.367 . S
C655 C663 1.433 . S
C656 H652 0.929 . S
C656 C658 1.378 . S
C656 C660 1.350 . S
C657 C660 1.463 . S
C657 C662 1.350 . S
C657 N665 1.427 1_455 S
C658 H649 0.930 . S
C658 C656 1.378 . S
C658 C659 1.367 . S
C659 C658 1.367 . S
C659 C661 1.433 . S
C660 C656 1.350 . S
C660 C657 1.463 . S
C660 N664 1.427 . S
C661 H651 0.929 . S
C661 C659 1.433 . S
C661 N664 1.384 . S
C662 H653 0.929 . S
C662 C654 1.378 1_455 S
C662 C657 1.350 . S
C663 H650 0.929 . S
C663 C655 1.433 . S
C663 N665 1.384 . S
N664 C660 1.427 . S
N664 C661 1.384 . S
N665 C657 1.427 1_655 S
N665 C663 1.384 . S
H666 C672 0.930 . S
H667 C676 0.930 1_655 S
H668 C681 0.929 . S
H669 C679 0.929 . S
H670 C674 0.929 . S
H671 C680 0.929 . S
C672 H666 0.930 . S
C672 C673 1.367 . S
C672 C680 1.378 . S
C673 C672 1.367 . S
C673 C681 1.433 . S
C674 H670 0.929 . S
C674 C676 1.378 . S
C674 C678 1.350 . S
C675 C678 1.463 . S
C675 C680 1.350 . S
C675 N683 1.427 . S
C676 H667 0.930 1_455 S
C676 C674 1.378 . S
C676 C677 1.367 . S
C677 C676 1.367 . S
C677 C679 1.433 . S
C678 C674 1.350 . S
C678 C675 1.463 . S
C678 N682 1.427 . S
C679 H669 0.929 . S
C679 C677 1.433 . S
C679 N682 1.384 . S
C680 H671 0.929 . S
C680 C672 1.378 . S
C680 C675 1.350 . S
C681 H668 0.929 . S
C681 C673 1.433 . S
C681 N683 1.384 . S
N682 C678 1.427 . S
N682 C679 1.384 . S
N683 C675 1.427 . S
N683 C681 1.384 . S
H684 C690 0.930 . S
H685 C694 0.930 . S
H686 C699 0.929 . S
H687 C697 0.929 . S
H688 C692 0.929 . S
H689 C698 0.929 . S
C690 H684 0.930 . S
C690 C691 1.367 . S
C690 C698 1.378 . S
C691 C690 1.367 . S
C691 C699 1.433 . S
C692 H688 0.929 . S
C692 C694 1.378 1_565 S
C692 C696 1.350 . S
C693 C696 1.463 . S
C693 C698 1.350 . S
C693 N701 1.427 . S
C694 H685 0.930 . S
C694 C692 1.378 1_545 S
C694 C695 1.367 . S
C695 C694 1.367 . S
C695 C697 1.433 . S
C696 C692 1.350 . S
C696 C693 1.463 . S
C696 N700 1.427 1_565 S
C697 H687 0.929 . S
C697 C695 1.433 . S
C697 N700 1.384 . S
C698 H689 0.929 . S
C698 C690 1.378 . S
C698 C693 1.350 . S
C699 H686 0.929 . S
C699 C691 1.433 . S
C699 N701 1.384 . S
N700 C696 1.427 1_545 S
N700 C697 1.384 . S
N701 C693 1.427 . S
N701 C699 1.384 . S
H702 C708 0.930 . S
H703 C712 0.930 . S
H704 C717 0.929 . S
H705 C715 0.929 . S
H706 C710 0.929 1_455 S
H707 C716 0.929 . S
C708 H702 0.930 . S
C708 C709 1.367 . S
C708 C716 1.378 . S
C709 C708 1.367 . S
C709 C717 1.433 . S
C710 H706 0.929 1_655 S
C710 C712 1.378 . S
C710 C714 1.350 1_655 S
C711 C714 1.463 . S
C711 C716 1.350 . S
C711 N719 1.427 . S
C712 H703 0.930 . S
C712 C710 1.378 . S
C712 C713 1.367 . S
C713 C712 1.367 . S
C713 C715 1.433 . S
C714 C710 1.350 1_455 S
C714 C711 1.463 . S
C714 N718 1.427 . S
C715 H705 0.929 . S
C715 C713 1.433 . S
C715 N718 1.384 1_655 S
C716 H707 0.929 . S
C716 C708 1.378 . S
C716 C711 1.350 . S
C717 H704 0.929 . S
C717 C709 1.433 . S
C717 N719 1.384 . S
N718 C714 1.427 . S
N718 C715 1.384 1_455 S
N719 C711 1.427 . S
N719 C717 1.384 . S
H720 C726 0.930 . S
H721 C730 0.930 . S
H722 C735 0.929 . S
H723 C733 0.929 . S
H724 C728 0.929 . S
H725 C734 0.929 . S
C726 H720 0.930 . S
C726 C727 1.367 . S
C726 C734 1.378 . S
C727 C726 1.367 . S
C727 C735 1.433 . S
C728 H724 0.929 . S
C728 C730 1.378 . S
C728 C732 1.350 . S
C729 C732 1.463 . S
C729 C734 1.350 . S
C729 N737 1.427 . S
C730 H721 0.930 . S
C730 C728 1.378 . S
C730 C731 1.367 . S
C731 C730 1.367 . S
C731 C733 1.433 . S
C732 C728 1.350 . S
C732 C729 1.463 . S
C732 N736 1.427 . S
C733 H723 0.929 . S
C733 C731 1.433 . S
C733 N736 1.384 . S
C734 H725 0.929 . S
C734 C726 1.378 . S
C734 C729 1.350 . S
C735 H722 0.929 . S
C735 C727 1.433 . S
C735 N737 1.384 . S
N736 C732 1.427 . S
N736 C733 1.384 . S
N737 C729 1.427 . S
N737 C735 1.384 . S
H738 C744 0.930 . S
H739 C748 0.930 . S
H740 C753 0.929 . S
H741 C751 0.929 . S
H742 C746 0.929 . S
H743 C752 0.929 . S
C744 H738 0.930 . S
C744 C745 1.367 . S
C744 C752 1.378 . S
C745 C744 1.367 . S
C745 C753 1.433 . S
C746 H742 0.929 . S
C746 C748 1.378 . S
C746 C750 1.350 . S
C747 C750 1.463 . S
C747 C752 1.350 . S
C747 N755 1.427 . S
C748 H739 0.930 . S
C748 C746 1.378 . S
C748 C749 1.367 . S
C749 C748 1.367 . S
C749 C751 1.433 . S
C750 C746 1.350 . S
C750 C747 1.463 . S
C750 N754 1.427 . S
C751 H741 0.929 . S
C751 C749 1.433 . S
C751 N754 1.384 . S
C752 H743 0.929 . S
C752 C744 1.378 . S
C752 C747 1.350 . S
C753 H740 0.929 . S
C753 C745 1.433 . S
C753 N755 1.384 . S
N754 C750 1.427 . S
N754 C751 1.384 . S
N755 C747 1.427 . S
N755 C753 1.384 . S
H756 C762 0.930 . S
H757 C766 0.930 . S
H758 C771 0.929 . S
H759 C769 0.929 . S
H760 C764 0.929 . S
H761 C770 0.929 . S
C762 H756 0.930 . S
C762 C763 1.367 . S
C762 C770 1.378 . S
C763 C762 1.367 . S
C763 C771 1.433 . S
C764 H760 0.929 . S
C764 C766 1.378 . S
C764 C768 1.350 . S
C765 C768 1.463 . S
C765 C770 1.350 . S
C765 N773 1.427 . S
C766 H757 0.930 . S
C766 C764 1.378 . S
C766 C767 1.367 . S
C767 C766 1.367 . S
C767 C769 1.433 . S
C768 C764 1.350 . S
C768 C765 1.463 . S
C768 N772 1.427 . S
C769 H759 0.929 . S
C769 C767 1.433 . S
C769 N772 1.384 . S
C770 H761 0.929 . S
C770 C762 1.378 . S
C770 C765 1.350 . S
C771 H758 0.929 . S
C771 C763 1.433 . S
C771 N773 1.384 . S
N772 C768 1.427 . S
N772 C769 1.384 . S
N773 C765 1.427 . S
N773 C771 1.384 . S
H774 C780 0.930 . S
H775 C784 0.930 . S
H776 C789 0.929 . S
H777 C787 0.929 . S
H778 C782 0.929 . S
H779 C788 0.929 . S
C780 H774 0.930 . S
C780 C781 1.367 . S
C780 C788 1.378 . S
C781 C780 1.367 . S
C781 C789 1.433 . S
C782 H778 0.929 . S
C782 C784 1.378 . S
C782 C786 1.350 . S
C783 C786 1.463 . S
C783 C788 1.350 . S
C783 N791 1.427 . S
C784 H775 0.930 . S
C784 C782 1.378 . S
C784 C785 1.367 . S
C785 C784 1.367 . S
C785 C787 1.433 . S
C786 C782 1.350 . S
C786 C783 1.463 . S
C786 N790 1.427 . S
C787 H777 0.929 . S
C787 C785 1.433 . S
C787 N790 1.384 . S
C788 H779 0.929 . S
C788 C780 1.378 . S
C788 C783 1.350 . S
C789 H776 0.929 . S
C789 C781 1.433 . S
C789 N791 1.384 . S
N790 C786 1.427 . S
N790 C787 1.384 . S
N791 C783 1.427 . S
N791 C789 1.384 . S
H792 C798 0.930 . S
H793 C802 0.930 . S
H794 C807 0.929 . S
H795 C805 0.929 . S
H796 C800 0.929 . S
H797 C806 0.929 . S
C798 H792 0.930 . S
C798 C799 1.367 . S
C798 C806 1.378 . S
C799 C798 1.367 . S
C799 C807 1.433 . S
C800 H796 0.929 . S
C800 C802 1.378 . S
C800 C804 1.350 . S
C801 C804 1.463 . S
C801 C806 1.350 . S
C801 N809 1.427 . S
C802 H793 0.930 . S
C802 C800 1.378 . S
C802 C803 1.367 . S
C803 C802 1.367 . S
C803 C805 1.433 . S
C804 C800 1.350 . S
C804 C801 1.463 . S
C804 N808 1.427 . S
C805 H795 0.929 . S
C805 C803 1.433 . S
C805 N808 1.384 . S
C806 H797 0.929 . S
C806 C798 1.378 . S
C806 C801 1.350 . S
C807 H794 0.929 . S
C807 C799 1.433 . S
C807 N809 1.384 . S
N808 C804 1.427 . S
N808 C805 1.384 . S
N809 C801 1.427 . S
N809 C807 1.384 . S
H810 C816 0.930 . S
H811 C820 0.930 . S
H812 C825 0.929 . S
H813 C823 0.929 . S
H814 C818 0.929 . S
H815 C824 0.929 . S
C816 H810 0.930 . S
C816 C817 1.367 . S
C816 C824 1.378 . S
C817 C816 1.367 . S
C817 C825 1.433 . S
C818 H814 0.929 . S
C818 C820 1.378 . S
C818 C822 1.350 . S
C819 C822 1.463 . S
C819 C824 1.350 . S
C819 N827 1.427 . S
C820 H811 0.930 . S
C820 C818 1.378 . S
C820 C821 1.367 . S
C821 C820 1.367 . S
C821 C823 1.433 . S
C822 C818 1.350 . S
C822 C819 1.463 . S
C822 N826 1.427 . S
C823 H813 0.929 . S
C823 C821 1.433 . S
C823 N826 1.384 . S
C824 H815 0.929 . S
C824 C816 1.378 . S
C824 C819 1.350 . S
C825 H812 0.929 . S
C825 C817 1.433 . S
C825 N827 1.384 . S
N826 C822 1.427 . S
N826 C823 1.384 . S
N827 C819 1.427 . S
N827 C825 1.384 . S
H828 C834 0.930 . S
H829 C838 0.930 . S
H830 C843 0.929 . S
H831 C841 0.929 . S
H832 C836 0.929 . S
H833 C842 0.929 . S
C834 H828 0.930 . S
C834 C835 1.367 . S
C834 C842 1.378 . S
C835 C834 1.367 . S
C835 C843 1.433 . S
C836 H832 0.929 . S
C836 C838 1.378 . S
C836 C840 1.350 . S
C837 C840 1.463 . S
C837 C842 1.350 . S
C837 N845 1.427 . S
C838 H829 0.930 . S
C838 C836 1.378 . S
C838 C839 1.367 . S
C839 C838 1.367 . S
C839 C841 1.433 . S
C840 C836 1.350 . S
C840 C837 1.463 . S
C840 N844 1.427 . S
C841 H831 0.929 . S
C841 C839 1.433 . S
C841 N844 1.384 . S
C842 H833 0.929 . S
C842 C834 1.378 . S
C842 C837 1.350 . S
C843 H830 0.929 . S
C843 C835 1.433 . S
C843 N845 1.384 . S
N844 C840 1.427 . S
N844 C841 1.384 . S
N845 C837 1.427 . S
N845 C843 1.384 . S
H846 C852 0.930 . S
H847 C856 0.930 . S
H848 C861 0.929 . S
H849 C859 0.929 . S
H850 C854 0.929 . S
H851 C860 0.929 . S
C852 H846 0.930 . S
C852 C853 1.367 . S
C852 C860 1.378 . S
C853 C852 1.367 . S
C853 C861 1.433 . S
C854 H850 0.929 . S
C854 C856 1.378 . S
C854 C858 1.350 . S
C855 C858 1.463 . S
C855 C860 1.350 . S
C855 N863 1.427 . S
C856 H847 0.930 . S
C856 C854 1.378 . S
C856 C857 1.367 . S
C857 C856 1.367 . S
C857 C859 1.433 . S
C858 C854 1.350 . S
C858 C855 1.463 . S
C858 N862 1.427 . S
C859 H849 0.929 . S
C859 C857 1.433 . S
C859 N862 1.384 . S
C860 H851 0.929 . S
C860 C852 1.378 . S
C860 C855 1.350 . S
C861 H848 0.929 . S
C861 C853 1.433 . S
C861 N863 1.384 . S
N862 C858 1.427 . S
N862 C859 1.384 . S
N863 C855 1.427 . S
N863 C861 1.384 . S
H864 C870 0.930 . S
H865 C874 0.930 . S
H866 C879 0.929 . S
H867 C877 0.929 . S
H868 C872 0.929 . S
H869 C878 0.929 . S
C870 H864 0.930 . S
C870 C871 1.367 . S
C870 C878 1.378 . S
C871 C870 1.367 . S
C871 C879 1.433 . S
C872 H868 0.929 . S
C872 C874 1.378 . S
C872 C876 1.350 . S
C873 C876 1.463 . S
C873 C878 1.350 . S
C873 N881 1.427 . S
C874 H865 0.930 . S
C874 C872 1.378 . S
C874 C875 1.367 . S
C875 C874 1.367 . S
C875 C877 1.433 . S
C876 C872 1.350 . S
C876 C873 1.463 . S
C876 N880 1.427 . S
C877 H867 0.929 . S
C877 C875 1.433 . S
C877 N880 1.384 . S
C878 H869 0.929 . S
C878 C870 1.378 . S
C878 C873 1.350 . S
C879 H866 0.929 . S
C879 C871 1.433 . S
C879 N881 1.384 . S
N880 C876 1.427 . S
N880 C877 1.384 . S
N881 C873 1.427 . S
N881 C879 1.384 . S
H882 C888 0.930 . S
H883 C892 0.930 . S
H884 C897 0.936 . S
H885 C895 0.929 . S
H886 C890 0.929 . S
H887 C896 0.929 . S
C888 H882 0.930 . S
C888 C889 1.367 . S
C888 C896 1.378 1_556 S
C889 C888 1.367 . S
C889 C897 1.442 . S
C890 H886 0.929 . S
C890 C892 1.378 . S
C890 C894 1.350 . S
C891 C894 1.463 . S
C891 C896 1.350 . S
C891 N899 1.427 . S
C892 H883 0.930 . S
C892 C890 1.378 . S
C892 C893 1.367 . S
C893 C892 1.367 . S
C893 C895 1.433 . S
C894 C890 1.350 . S
C894 C891 1.463 . S
C894 N898 1.427 . S
C895 H885 0.929 . S
C895 C893 1.433 . S
C895 N898 1.384 . S
C896 H887 0.929 . S
C896 C888 1.378 1_554 S
C896 C891 1.350 . S
C897 H884 0.936 . S
C897 C889 1.442 . S
C897 N899 1.367 1_556 S
N898 C894 1.427 . S
N898 C895 1.384 . S
N899 C891 1.427 . S
N899 C897 1.367 1_554 S
H900 C906 0.930 1_556 S
H901 C910 0.930 . S
H902 C915 0.929 . S
H903 C913 0.929 . S
H904 C908 0.929 . S
H905 C914 0.929 . S
C906 H900 0.930 1_554 S
C906 C907 1.367 1_554 S
C906 C914 1.378 . S
C907 C906 1.367 1_556 S
C907 C915 1.433 . S
C908 H904 0.929 . S
C908 C910 1.378 . S
C908 C912 1.350 . S
C909 C912 1.463 . S
C909 C914 1.350 . S
C909 N917 1.427 . S
C910 H901 0.930 . S
C910 C908 1.378 . S
C910 C911 1.367 . S
C911 C910 1.367 . S
C911 C913 1.433 . S
C912 C908 1.350 . S
C912 C909 1.463 . S
C912 N916 1.427 . S
C913 H903 0.929 . S
C913 C911 1.433 . S
C913 N916 1.384 . S
C914 H905 0.929 . S
C914 C906 1.378 . S
C914 C909 1.350 . S
C915 H902 0.929 . S
C915 C907 1.433 . S
C915 N917 1.384 1_556 S
N916 C912 1.427 . S
N916 C913 1.384 . S
N917 C909 1.427 . S
N917 C915 1.384 1_554 S
H918 C924 0.930 . S
H919 C928 0.930 . S
H920 C933 0.929 . S
H921 C931 0.929 . S
H922 C926 0.929 . S
H923 C932 0.929 . S
C924 H918 0.930 . S
C924 C925 1.367 . S
C924 C932 1.378 1_556 S
C925 C924 1.367 . S
C925 C933 1.433 . S
C926 H922 0.929 . S
C926 C928 1.378 . S
C926 C930 1.350 . S
C927 C930 1.463 . S
C927 C932 1.350 . S
C927 N935 1.427 . S
C928 H919 0.930 . S
C928 C926 1.378 . S
C928 C929 1.367 . S
C929 C928 1.367 . S
C929 C931 1.433 . S
C930 C926 1.350 . S
C930 C927 1.463 . S
C930 N934 1.427 . S
C931 H921 0.929 . S
C931 C929 1.433 . S
C931 N934 1.384 . S
C932 H923 0.929 . S
C932 C924 1.378 1_554 S
C932 C927 1.350 . S
C933 H920 0.929 . S
C933 C925 1.433 . S
C933 N935 1.384 1_556 S
N934 C930 1.427 . S
N934 C931 1.384 . S
N935 C927 1.427 . S
N935 C933 1.384 1_554 S
H936 C942 0.930 . S
H937 C946 0.930 . S
H938 C951 0.929 . S
H939 C949 0.929 . S
H940 C944 0.929 . S
H941 C950 0.929 . S
C942 H936 0.930 . S
C942 C943 1.367 . S
C942 C950 1.378 . S
C943 C942 1.367 . S
C943 C951 1.433 . S
C944 H940 0.929 . S
C944 C946 1.378 1_556 S
C944 C948 1.350 . S
C945 C948 1.463 . S
C945 C950 1.350 . S
C945 N953 1.427 . S
C946 H937 0.930 . S
C946 C944 1.378 1_554 S
C946 C947 1.367 . S
C947 C946 1.367 . S
C947 C949 1.433 . S
C948 C944 1.350 . S
C948 C945 1.463 . S
C948 N952 1.427 . S
C949 H939 0.929 . S
C949 C947 1.433 . S
C949 N952 1.384 1_554 S
C950 H941 0.929 . S
C950 C942 1.378 . S
C950 C945 1.350 . S
C951 H938 0.929 . S
C951 C943 1.433 . S
C951 N953 1.384 . S
N952 C948 1.427 . S
N952 C949 1.384 1_556 S
N953 C945 1.427 . S
N953 C951 1.384 . S
H954 C960 0.930 . S
H955 C964 0.930 . S
H956 C969 0.929 . S
H957 C967 0.929 . S
H958 C962 0.929 . S
H959 C968 0.929 . S
C960 H954 0.930 . S
C960 C961 1.367 . S
C960 C968 1.378 . S
C961 C960 1.367 . S
C961 C969 1.433 . S
C962 H958 0.929 . S
C962 C964 1.378 1_556 S
C962 C966 1.350 . S
C963 C966 1.463 . S
C963 C968 1.350 . S
C963 N971 1.427 . S
C964 H955 0.930 . S
C964 C962 1.378 1_554 S
C964 C965 1.367 . S
C965 C964 1.367 . S
C965 C967 1.433 . S
C966 C962 1.350 . S
C966 C963 1.463 . S
C966 N970 1.427 . S
C967 H957 0.929 . S
C967 C965 1.433 . S
C967 N970 1.384 1_554 S
C968 H959 0.929 . S
C968 C960 1.378 . S
C968 C963 1.350 . S
C969 H956 0.929 . S
C969 C961 1.433 . S
C969 N971 1.384 . S
N970 C966 1.427 . S
N970 C967 1.384 1_556 S
N971 C963 1.427 . S
N971 C969 1.384 . S
H972 C978 0.930 . S
H973 C982 0.930 . S
H974 C987 0.929 . S
H975 C985 0.929 . S
H976 C980 0.929 . S
H977 C986 0.929 . S
C978 H972 0.930 . S
C978 C979 1.367 . S
C978 C986 1.378 . S
C979 C978 1.367 . S
C979 C987 1.433 . S
C980 H976 0.929 . S
C980 C982 1.378 1_556 S
C980 C984 1.350 . S
C981 C984 1.463 . S
C981 C986 1.350 . S
C981 N989 1.427 . S
C982 H973 0.930 . S
C982 C980 1.378 1_554 S
C982 C983 1.367 . S
C983 C982 1.367 . S
C983 C985 1.433 . S
C984 C980 1.350 . S
C984 C981 1.463 . S
C984 N988 1.427 . S
C985 H975 0.929 . S
C985 C983 1.433 . S
C985 N988 1.384 1_554 S
C986 H977 0.929 . S
C986 C978 1.378 . S
C986 C981 1.350 . S
C987 H974 0.929 . S
C987 C979 1.433 . S
C987 N989 1.384 . S
N988 C984 1.427 . S
N988 C985 1.384 1_556 S
N989 C981 1.427 . S
N989 C987 1.384 . S
H990 C996 0.930 . S
H991 C1000 0.930 . S
H992 C1005 0.929 . S
H993 C1003 0.929 . S
H994 C998 0.929 . S
H995 C1004 0.929 . S
C996 H990 0.930 . S
C996 C997 1.367 . S
C996 C1004 1.378 . S
C997 C996 1.367 . S
C997 C1005 1.433 . S
C998 H994 0.929 . S
C998 C1000 1.378 . S
C998 C1002 1.350 . S
C999 C1002 1.463 . S
C999 C1004 1.350 . S
C999 N1007 1.427 . S
C1000 H991 0.930 . S
C1000 C998 1.378 . S
C1000 C1001 1.367 . S
C1001 C1000 1.367 . S
C1001 C1003 1.433 . S
C1002 C998 1.350 . S
C1002 C999 1.463 . S
C1002 N1006 1.427 . S
C1003 H993 0.929 . S
C1003 C1001 1.433 . S
C1003 N1006 1.384 . S
C1004 H995 0.929 . S
C1004 C996 1.378 . S
C1004 C999 1.350 . S
C1005 H992 0.929 . S
C1005 C997 1.433 . S
C1005 N1007 1.384 . S
N1006 C1002 1.427 . S
N1006 C1003 1.384 . S
N1007 C999 1.427 . S
N1007 C1005 1.384 . S
H1008 C1014 0.930 . S
H1009 C1018 0.930 . S
H1010 C1023 0.929 . S
H1011 C1021 0.929 . S
H1012 C1016 0.929 . S
H1013 C1022 0.929 . S
C1014 H1008 0.930 . S
C1014 C1015 1.367 . S
C1014 C1022 1.378 . S
C1015 C1014 1.367 . S
C1015 C1023 1.433 . S
C1016 H1012 0.929 . S
C1016 C1018 1.378 . S
C1016 C1020 1.350 . S
C1017 C1020 1.463 . S
C1017 C1022 1.350 . S
C1017 N1025 1.427 . S
C1018 H1009 0.930 . S
C1018 C1016 1.378 . S
C1018 C1019 1.367 . S
C1019 C1018 1.367 . S
C1019 C1021 1.433 . S
C1020 C1016 1.350 . S
C1020 C1017 1.463 . S
C1020 N1024 1.427 . S
C1021 H1011 0.929 . S
C1021 C1019 1.433 . S
C1021 N1024 1.384 . S
C1022 H1013 0.929 . S
C1022 C1014 1.378 . S
C1022 C1017 1.350 . S
C1023 H1010 0.929 . S
C1023 C1015 1.433 . S
C1023 N1025 1.384 . S
N1024 C1020 1.427 . S
N1024 C1021 1.384 . S
N1025 C1017 1.427 . S
N1025 C1023 1.384 . S
H1026 C1032 0.930 . S
H1027 C1036 0.930 . S
H1028 C1041 0.929 . S
H1029 C1039 0.929 . S
H1030 C1034 0.929 . S
H1031 C1040 0.929 . S
C1032 H1026 0.930 . S
C1032 C1033 1.367 . S
C1032 C1040 1.378 . S
C1033 C1032 1.367 . S
C1033 C1041 1.433 . S
C1034 H1030 0.929 . S
C1034 C1036 1.378 . S
C1034 C1038 1.350 . S
C1035 C1038 1.463 . S
C1035 C1040 1.350 . S
C1035 N1043 1.427 . S
C1036 H1027 0.930 . S
C1036 C1034 1.378 . S
C1036 C1037 1.367 . S
C1037 C1036 1.367 . S
C1037 C1039 1.433 . S
C1038 C1034 1.350 . S
C1038 C1035 1.463 . S
C1038 N1042 1.427 . S
C1039 H1029 0.929 . S
C1039 C1037 1.433 . S
C1039 N1042 1.384 . S
C1040 H1031 0.929 . S
C1040 C1032 1.378 . S
C1040 C1035 1.350 . S
C1041 H1028 0.929 . S
C1041 C1033 1.433 . S
C1041 N1043 1.384 . S
N1042 C1038 1.427 . S
N1042 C1039 1.384 . S
N1043 C1035 1.427 . S
N1043 C1041 1.384 . S
H1044 C1050 0.930 . S
H1045 C1054 0.930 1_554 S
H1046 C1059 0.929 . S
H1047 C1057 0.929 . S
H1048 C1052 0.929 . S
H1049 C1058 0.929 . S
C1050 H1044 0.930 . S
C1050 C1051 1.367 . S
C1050 C1058 1.378 . S
C1051 C1050 1.367 . S
C1051 C1059 1.433 . S
C1052 H1048 0.929 . S
C1052 C1054 1.378 . S
C1052 C1056 1.350 . S
C1053 C1056 1.463 . S
C1053 C1058 1.350 . S
C1053 N1061 1.427 . S
C1054 H1045 0.930 1_556 S
C1054 C1052 1.378 . S
C1054 C1055 1.367 1_565 S
C1055 C1054 1.367 1_545 S
C1055 C1057 1.433 . S
C1056 C1052 1.350 . S
C1056 C1053 1.463 . S
C1056 N1060 1.427 1_565 S
C1057 H1047 0.929 . S
C1057 C1055 1.433 . S
C1057 N1060 1.384 . S
C1058 H1049 0.929 . S
C1058 C1050 1.378 . S
C1058 C1053 1.350 . S
C1059 H1046 0.929 . S
C1059 C1051 1.433 . S
C1059 N1061 1.384 . S
N1060 C1056 1.427 1_545 S
N1060 C1057 1.384 . S
N1061 C1053 1.427 . S
N1061 C1059 1.384 . S
H1062 C1068 0.930 . S
H1063 C1072 0.930 . S
H1064 C1077 0.929 . S
H1065 C1075 0.929 . S
H1066 C1070 0.929 . S
H1067 C1076 0.929 . S
C1068 H1062 0.930 . S
C1068 C1069 1.367 . S
C1068 C1076 1.378 . S
C1069 C1068 1.367 . S
C1069 C1077 1.433 1_655 S
C1070 H1066 0.929 . S
C1070 C1072 1.378 . S
C1070 C1074 1.350 . S
C1071 C1074 1.463 . S
C1071 C1076 1.350 1_455 S
C1071 N1079 1.427 . S
C1072 H1063 0.930 . S
C1072 C1070 1.378 . S
C1072 C1073 1.367 . S
C1073 C1072 1.367 . S
C1073 C1075 1.433 . S
C1074 C1070 1.350 . S
C1074 C1071 1.463 . S
C1074 N1078 1.427 . S
C1075 H1065 0.929 . S
C1075 C1073 1.433 . S
C1075 N1078 1.384 . S
C1076 H1067 0.929 . S
C1076 C1068 1.378 . S
C1076 C1071 1.350 1_655 S
C1077 H1064 0.929 . S
C1077 C1069 1.433 1_455 S
C1077 N1079 1.384 . S
N1078 C1074 1.427 . S
N1078 C1075 1.384 . S
N1079 C1071 1.427 . S
N1079 C1077 1.384 . S
H1080 C1086 0.930 . S
H1081 C1090 0.930 1_554 S
H1082 C1095 0.929 . S
H1083 C1093 0.929 . S
H1084 C1088 0.929 1_554 S
H1085 C1094 0.929 . S
C1086 H1080 0.930 . S
C1086 C1087 1.367 . S
C1086 C1094 1.378 . S
C1087 C1086 1.367 . S
C1087 C1095 1.433 . S
C1088 H1084 0.929 1_556 S
C1088 C1090 1.378 . S
C1088 C1092 1.350 . S
C1089 C1092 1.463 . S
C1089 C1094 1.350 . S
C1089 N1097 1.427 . S
C1090 H1081 0.930 1_556 S
C1090 C1088 1.378 . S
C1090 C1091 1.367 . S
C1091 C1090 1.367 . S
C1091 C1093 1.433 . S
C1092 C1088 1.350 . S
C1092 C1089 1.463 . S
C1092 N1096 1.427 . S
C1093 H1083 0.929 . S
C1093 C1091 1.433 . S
C1093 N1096 1.384 . S
C1094 H1085 0.929 . S
C1094 C1086 1.378 . S
C1094 C1089 1.350 . S
C1095 H1082 0.929 . S
C1095 C1087 1.433 . S
C1095 N1097 1.384 . S
N1096 C1092 1.427 . S
N1096 C1093 1.384 . S
N1097 C1089 1.427 . S
N1097 C1095 1.384 . S
H1098 C1104 0.930 . S
H1099 C1108 0.930 . S
H1100 C1113 0.929 . S
H1101 C1111 0.929 . S
H1102 C1106 0.929 . S
H1103 C1112 0.929 . S
C1104 H1098 0.930 . S
C1104 C1105 1.367 1_455 S
C1104 C1112 1.378 . S
C1105 C1104 1.367 1_655 S
C1105 C1113 1.433 . S
C1106 H1102 0.929 . S
C1106 C1108 1.378 . S
C1106 C1110 1.350 . S
C1107 C1110 1.463 . S
C1107 C1112 1.350 . S
C1107 N1115 1.427 1_455 S
C1108 H1099 0.930 . S
C1108 C1106 1.378 . S
C1108 C1109 1.367 . S
C1109 C1108 1.367 . S
C1109 C1111 1.433 . S
C1110 C1106 1.350 . S
C1110 C1107 1.463 . S
C1110 N1114 1.427 . S
C1111 H1101 0.929 . S
C1111 C1109 1.433 . S
C1111 N1114 1.384 . S
C1112 H1103 0.929 . S
C1112 C1104 1.378 . S
C1112 C1107 1.350 . S
C1113 H1100 0.929 . S
C1113 C1105 1.433 . S
C1113 N1115 1.384 . S
N1114 C1110 1.427 . S
N1114 C1111 1.384 . S
N1115 C1107 1.427 1_655 S
N1115 C1113 1.384 . S
H1116 C1122 0.930 . S
H1117 C1126 0.930 . S
H1118 C1131 0.929 . S
H1119 C1129 0.929 . S
H1120 C1124 0.929 . S
H1121 C1130 0.929 . S
C1122 H1116 0.930 . S
C1122 C1123 1.367 . S
C1122 C1130 1.378 . S
C1123 C1122 1.367 . S
C1123 C1131 1.433 . S
C1124 H1120 0.929 . S
C1124 C1126 1.378 . S
C1124 C1128 1.350 . S
C1125 C1128 1.463 . S
C1125 C1130 1.350 . S
C1125 N1133 1.427 . S
C1126 H1117 0.930 . S
C1126 C1124 1.378 . S
C1126 C1127 1.367 . S
C1127 C1126 1.367 . S
C1127 C1129 1.433 . S
C1128 C1124 1.350 . S
C1128 C1125 1.463 . S
C1128 N1132 1.427 . S
C1129 H1119 0.929 . S
C1129 C1127 1.433 . S
C1129 N1132 1.384 . S
C1130 H1121 0.929 . S
C1130 C1122 1.378 . S
C1130 C1125 1.350 . S
C1131 H1118 0.929 . S
C1131 C1123 1.433 . S
C1131 N1133 1.384 . S
N1132 C1128 1.427 . S
N1132 C1129 1.384 . S
N1133 C1125 1.427 . S
N1133 C1131 1.384 . S
H1134 C1140 0.930 . S
H1135 C1144 0.936 . S
H1136 C1149 0.929 . S
H1137 C1147 0.929 . S
H1138 C1142 0.929 . S
H1139 C1148 0.929 . S
C1140 H1134 0.930 . S
C1140 C1141 1.367 . S
C1140 C1148 1.378 . S
C1141 C1140 1.367 . S
C1141 C1149 1.433 . S
C1142 H1138 0.929 . S
C1142 C1144 1.352 1_565 S
C1142 C1146 1.350 . S
C1143 C1146 1.463 . S
C1143 C1148 1.350 . S
C1143 N1151 1.427 . S
C1144 H1135 0.936 . S
C1144 C1142 1.352 1_545 S
C1144 C1145 1.387 . S
C1145 C1144 1.387 . S
C1145 C1147 1.433 . S
C1146 C1142 1.350 . S
C1146 C1143 1.463 . S
C1146 N1150 1.427 1_565 S
C1147 H1137 0.929 . S
C1147 C1145 1.433 . S
C1147 N1150 1.384 . S
C1148 H1139 0.929 . S
C1148 C1140 1.378 . S
C1148 C1143 1.350 . S
C1149 H1136 0.929 . S
C1149 C1141 1.433 . S
C1149 N1151 1.384 . S
N1150 C1146 1.427 1_545 S
N1150 C1147 1.384 . S
N1151 C1143 1.427 . S
N1151 C1149 1.384 . S
H1152 C1158 0.930 . S
H1153 C1162 0.930 . S
H1154 C1167 0.929 . S
H1155 C1165 0.929 . S
H1156 C1160 0.929 . S
H1157 C1166 0.929 . S
C1158 H1152 0.930 . S
C1158 C1159 1.367 . S
C1158 C1166 1.378 . S
C1159 C1158 1.367 . S
C1159 C1167 1.433 . S
C1160 H1156 0.929 . S
C1160 C1162 1.378 . S
C1160 C1164 1.350 . S
C1161 C1164 1.463 . S
C1161 C1166 1.350 . S
C1161 N1169 1.427 . S
C1162 H1153 0.930 . S
C1162 C1160 1.378 . S
C1162 C1163 1.367 . S
C1163 C1162 1.367 . S
C1163 C1165 1.433 . S
C1164 C1160 1.350 . S
C1164 C1161 1.463 . S
C1164 N1168 1.427 . S
C1165 H1155 0.929 . S
C1165 C1163 1.433 . S
C1165 N1168 1.384 . S
C1166 H1157 0.929 . S
C1166 C1158 1.378 . S
C1166 C1161 1.350 . S
C1167 H1154 0.929 . S
C1167 C1159 1.433 . S
C1167 N1169 1.384 . S
N1168 C1164 1.427 . S
N1168 C1165 1.384 . S
N1169 C1161 1.427 . S
N1169 C1167 1.384 . S
H1170 C1176 0.930 . S
H1171 C1180 0.930 . S
H1172 C1185 0.929 . S
H1173 C1183 0.929 . S
H1174 C1178 0.929 . S
H1175 C1184 0.929 . S
C1176 H1170 0.930 . S
C1176 C1177 1.367 . S
C1176 C1184 1.378 . S
C1177 C1176 1.367 . S
C1177 C1185 1.433 . S
C1178 H1174 0.929 . S
C1178 C1180 1.378 . S
C1178 C1182 1.350 . S
C1179 C1182 1.463 . S
C1179 C1184 1.350 . S
C1179 N1187 1.427 . S
C1180 H1171 0.930 . S
C1180 C1178 1.378 . S
C1180 C1181 1.367 . S
C1181 C1180 1.367 . S
C1181 C1183 1.433 . S
C1182 C1178 1.350 . S
C1182 C1179 1.463 . S
C1182 N1186 1.427 . S
C1183 H1173 0.929 . S
C1183 C1181 1.433 . S
C1183 N1186 1.384 . S
C1184 H1175 0.929 . S
C1184 C1176 1.378 . S
C1184 C1179 1.350 . S
C1185 H1172 0.929 . S
C1185 C1177 1.433 . S
C1185 N1187 1.384 . S
N1186 C1182 1.427 . S
N1186 C1183 1.384 . S
N1187 C1179 1.427 . S
N1187 C1185 1.384 . S
H1188 C1194 0.930 . S
H1189 C1198 0.930 . S
H1190 C1203 0.929 . S
H1191 C1201 0.929 . S
H1192 C1196 0.929 . S
H1193 C1202 0.929 . S
C1194 H1188 0.930 . S
C1194 C1195 1.367 . S
C1194 C1202 1.378 . S
C1195 C1194 1.367 . S
C1195 C1203 1.433 . S
C1196 H1192 0.929 . S
C1196 C1198 1.378 . S
C1196 C1200 1.350 . S
C1197 C1200 1.463 . S
C1197 C1202 1.350 . S
C1197 N1205 1.427 . S
C1198 H1189 0.930 . S
C1198 C1196 1.378 . S
C1198 C1199 1.367 . S
C1199 C1198 1.367 . S
C1199 C1201 1.433 . S
C1200 C1196 1.350 . S
C1200 C1197 1.463 . S
C1200 N1204 1.427 . S
C1201 H1191 0.929 . S
C1201 C1199 1.433 . S
C1201 N1204 1.384 . S
C1202 H1193 0.929 . S
C1202 C1194 1.378 . S
C1202 C1197 1.350 . S
C1203 H1190 0.929 . S
C1203 C1195 1.433 . S
C1203 N1205 1.384 . S
N1204 C1200 1.427 . S
N1204 C1201 1.384 . S
N1205 C1197 1.427 . S
N1205 C1203 1.384 . S
H1206 C1212 0.930 . S
H1207 C1216 0.930 . S
H1208 C1221 0.929 . S
H1209 C1219 0.929 . S
H1210 C1214 0.929 . S
H1211 C1220 0.929 . S
C1212 H1206 0.930 . S
C1212 C1213 1.367 . S
C1212 C1220 1.378 . S
C1213 C1212 1.367 . S
C1213 C1221 1.433 . S
C1214 H1210 0.929 . S
C1214 C1216 1.378 . S
C1214 C1218 1.350 . S
C1215 C1218 1.463 . S
C1215 C1220 1.350 . S
C1215 N1223 1.427 . S
C1216 H1207 0.930 . S
C1216 C1214 1.378 . S
C1216 C1217 1.367 . S
C1217 C1216 1.367 . S
C1217 C1219 1.433 . S
C1218 C1214 1.350 . S
C1218 C1215 1.463 . S
C1218 N1222 1.427 . S
C1219 H1209 0.929 . S
C1219 C1217 1.433 . S
C1219 N1222 1.384 . S
C1220 H1211 0.929 . S
C1220 C1212 1.378 . S
C1220 C1215 1.350 . S
C1221 H1208 0.929 . S
C1221 C1213 1.433 . S
C1221 N1223 1.384 . S
N1222 C1218 1.427 . S
N1222 C1219 1.384 . S
N1223 C1215 1.427 . S
N1223 C1221 1.384 . S
H1224 C1230 0.930 . S
H1225 C1234 0.930 . S
H1226 C1239 0.929 . S
H1227 C1237 0.929 . S
H1228 C1232 0.929 . S
H1229 C1238 0.929 . S
C1230 H1224 0.930 . S
C1230 C1231 1.367 . S
C1230 C1238 1.378 . S
C1231 C1230 1.367 . S
C1231 C1239 1.433 . S
C1232 H1228 0.929 . S
C1232 C1234 1.378 . S
C1232 C1236 1.350 . S
C1233 C1236 1.463 . S
C1233 C1238 1.350 . S
C1233 N1241 1.427 . S
C1234 H1225 0.930 . S
C1234 C1232 1.378 . S
C1234 C1235 1.367 . S
C1235 C1234 1.367 . S
C1235 C1237 1.433 . S
C1236 C1232 1.350 . S
C1236 C1233 1.463 . S
C1236 N1240 1.427 . S
C1237 H1227 0.929 . S
C1237 C1235 1.433 . S
C1237 N1240 1.384 . S
C1238 H1229 0.929 . S
C1238 C1230 1.378 . S
C1238 C1233 1.350 . S
C1239 H1226 0.929 . S
C1239 C1231 1.433 . S
C1239 N1241 1.384 . S
N1240 C1236 1.427 . S
N1240 C1237 1.384 . S
N1241 C1233 1.427 . S
N1241 C1239 1.384 . S
H1242 C1248 0.930 . S
H1243 C1252 0.930 . S
H1244 C1257 0.929 . S
H1245 C1255 0.929 . S
H1246 C1250 0.929 . S
H1247 C1256 0.929 . S
C1248 H1242 0.930 . S
C1248 C1249 1.367 . S
C1248 C1256 1.378 . S
C1249 C1248 1.367 . S
C1249 C1257 1.433 . S
C1250 H1246 0.929 . S
C1250 C1252 1.378 . S
C1250 C1254 1.350 . S
C1251 C1254 1.463 . S
C1251 C1256 1.350 . S
C1251 N1259 1.427 . S
C1252 H1243 0.930 . S
C1252 C1250 1.378 . S
C1252 C1253 1.367 . S
C1253 C1252 1.367 . S
C1253 C1255 1.433 . S
C1254 C1250 1.350 . S
C1254 C1251 1.463 . S
C1254 N1258 1.427 . S
C1255 H1245 0.929 . S
C1255 C1253 1.433 . S
C1255 N1258 1.384 . S
C1256 H1247 0.929 . S
C1256 C1248 1.378 . S
C1256 C1251 1.350 . S
C1257 H1244 0.929 . S
C1257 C1249 1.433 . S
C1257 N1259 1.384 . S
N1258 C1254 1.427 . S
N1258 C1255 1.384 . S
N1259 C1251 1.427 . S
N1259 C1257 1.384 . S
H1260 C1266 0.930 . S
H1261 C1270 0.930 . S
H1262 C1275 0.929 . S
H1263 C1273 0.929 . S
H1264 C1268 0.929 . S
H1265 C1274 0.929 . S
C1266 H1260 0.930 . S
C1266 C1267 1.367 . S
C1266 C1274 1.378 . S
C1267 C1266 1.367 . S
C1267 C1275 1.433 . S
C1268 H1264 0.929 . S
C1268 C1270 1.378 . S
C1268 C1272 1.350 . S
C1269 C1272 1.463 . S
C1269 C1274 1.350 . S
C1269 N1277 1.427 . S
C1270 H1261 0.930 . S
C1270 C1268 1.378 . S
C1270 C1271 1.367 . S
C1271 C1270 1.367 . S
C1271 C1273 1.433 . S
C1272 C1268 1.350 . S
C1272 C1269 1.463 . S
C1272 N1276 1.427 . S
C1273 H1263 0.929 . S
C1273 C1271 1.433 . S
C1273 N1276 1.384 . S
C1274 H1265 0.929 . S
C1274 C1266 1.378 . S
C1274 C1269 1.350 . S
C1275 H1262 0.929 . S
C1275 C1267 1.433 . S
C1275 N1277 1.384 . S
N1276 C1272 1.427 . S
N1276 C1273 1.384 . S
N1277 C1269 1.427 . S
N1277 C1275 1.384 . S
H1278 C1284 0.930 . S
H1279 C1288 0.930 . S
H1280 C1293 0.929 . S
H1281 C1291 0.929 . S
H1282 C1286 0.929 . S
H1283 C1292 0.929 . S
C1284 H1278 0.930 . S
C1284 C1285 1.367 . S
C1284 C1292 1.378 . S
C1285 C1284 1.367 . S
C1285 C1293 1.433 . S
C1286 H1282 0.929 . S
C1286 C1288 1.378 . S
C1286 C1290 1.350 . S
C1287 C1290 1.463 . S
C1287 C1292 1.350 . S
C1287 N1295 1.427 . S
C1288 H1279 0.930 . S
C1288 C1286 1.378 . S
C1288 C1289 1.367 . S
C1289 C1288 1.367 . S
C1289 C1291 1.433 . S
C1290 C1286 1.350 . S
C1290 C1287 1.463 . S
C1290 N1294 1.427 . S
C1291 H1281 0.929 . S
C1291 C1289 1.433 . S
C1291 N1294 1.384 . S
C1292 H1283 0.929 . S
C1292 C1284 1.378 . S
C1292 C1287 1.350 . S
C1293 H1280 0.929 . S
C1293 C1285 1.433 . S
C1293 N1295 1.384 . S
N1294 C1290 1.427 . S
N1294 C1291 1.384 . S
N1295 C1287 1.427 . S
N1295 C1293 1.384 . S
H1296 C1302 0.930 . S
H1297 C1306 0.930 . S
H1298 C1311 0.929 . S
H1299 C1309 0.929 . S
H1300 C1304 0.929 . S
H1301 C1310 0.929 . S
C1302 H1296 0.930 . S
C1302 C1303 1.367 . S
C1302 C1310 1.378 . S
C1303 C1302 1.367 . S
C1303 C1311 1.433 . S
C1304 H1300 0.929 . S
C1304 C1306 1.378 . S
C1304 C1308 1.350 . S
C1305 C1308 1.463 . S
C1305 C1310 1.350 . S
C1305 N1313 1.427 . S
C1306 H1297 0.930 . S
C1306 C1304 1.378 . S
C1306 C1307 1.367 . S
C1307 C1306 1.367 . S
C1307 C1309 1.433 . S
C1308 C1304 1.350 . S
C1308 C1305 1.463 . S
C1308 N1312 1.427 . S
C1309 H1299 0.929 . S
C1309 C1307 1.433 . S
C1309 N1312 1.384 . S
C1310 H1301 0.929 . S
C1310 C1302 1.378 . S
C1310 C1305 1.350 . S
C1311 H1298 0.929 . S
C1311 C1303 1.433 . S
C1311 N1313 1.384 . S
N1312 C1308 1.427 . S
N1312 C1309 1.384 . S
N1313 C1305 1.427 . S
N1313 C1311 1.384 . S
H1314 C1320 0.930 . S
H1315 C1324 0.930 . S
H1316 C1329 0.929 . S
H1317 C1327 0.929 . S
H1318 C1322 0.929 . S
H1319 C1328 0.929 . S
C1320 H1314 0.930 . S
C1320 C1321 1.367 . S
C1320 C1328 1.378 . S
C1321 C1320 1.367 . S
C1321 C1329 1.433 . S
C1322 H1318 0.929 . S
C1322 C1324 1.378 . S
C1322 C1326 1.350 . S
C1323 C1326 1.463 . S
C1323 C1328 1.350 . S
C1323 N1331 1.427 . S
C1324 H1315 0.930 . S
C1324 C1322 1.378 . S
C1324 C1325 1.367 . S
C1325 C1324 1.367 . S
C1325 C1327 1.433 . S
C1326 C1322 1.350 . S
C1326 C1323 1.463 . S
C1326 N1330 1.427 . S
C1327 H1317 0.929 . S
C1327 C1325 1.433 . S
C1327 N1330 1.384 . S
C1328 H1319 0.929 . S
C1328 C1320 1.378 . S
C1328 C1323 1.350 . S
C1329 H1316 0.929 . S
C1329 C1321 1.433 . S
C1329 N1331 1.384 . S
N1330 C1326 1.427 . S
N1330 C1327 1.384 . S
N1331 C1323 1.427 . S
N1331 C1329 1.384 . S
H1332 C1338 0.930 . S
H1333 C1342 0.930 . S
H1334 C1347 0.929 . S
H1335 C1345 0.929 . S
H1336 C1340 0.929 . S
H1337 C1346 0.929 . S
C1338 H1332 0.930 . S
C1338 C1339 1.367 . S
C1338 C1346 1.378 . S
C1339 C1338 1.367 . S
C1339 C1347 1.433 . S
C1340 H1336 0.929 . S
C1340 C1342 1.378 . S
C1340 C1344 1.350 . S
C1341 C1344 1.463 . S
C1341 C1346 1.350 . S
C1341 N1349 1.427 . S
C1342 H1333 0.930 . S
C1342 C1340 1.378 . S
C1342 C1343 1.367 . S
C1343 C1342 1.367 . S
C1343 C1345 1.433 . S
C1344 C1340 1.350 . S
C1344 C1341 1.463 . S
C1344 N1348 1.427 . S
C1345 H1335 0.929 . S
C1345 C1343 1.433 . S
C1345 N1348 1.384 . S
C1346 H1337 0.929 . S
C1346 C1338 1.378 . S
C1346 C1341 1.350 . S
C1347 H1334 0.929 . S
C1347 C1339 1.433 . S
C1347 N1349 1.384 . S
N1348 C1344 1.427 . S
N1348 C1345 1.384 . S
N1349 C1341 1.427 . S
N1349 C1347 1.384 . S
H1350 C1356 0.930 . S
H1351 C1360 0.930 . S
H1352 C1365 0.929 . S
H1353 C1363 0.929 . S
H1354 C1358 0.929 . S
H1355 C1364 0.929 . S
C1356 H1350 0.930 . S
C1356 C1357 1.367 . S
C1356 C1364 1.378 . S
C1357 C1356 1.367 . S
C1357 C1365 1.433 . S
C1358 H1354 0.929 . S
C1358 C1360 1.378 . S
C1358 C1362 1.350 . S
C1359 C1362 1.463 . S
C1359 C1364 1.350 . S
C1359 N1367 1.427 . S
C1360 H1351 0.930 . S
C1360 C1358 1.378 . S
C1360 C1361 1.367 . S
C1361 C1360 1.367 . S
C1361 C1363 1.433 . S
C1362 C1358 1.350 . S
C1362 C1359 1.463 . S
C1362 N1366 1.427 . S
C1363 H1353 0.929 . S
C1363 C1361 1.433 . S
C1363 N1366 1.384 . S
C1364 H1355 0.929 . S
C1364 C1356 1.378 . S
C1364 C1359 1.350 . S
C1365 H1352 0.929 . S
C1365 C1357 1.433 . S
C1365 N1367 1.384 . S
N1366 C1362 1.427 . S
N1366 C1363 1.384 . S
N1367 C1359 1.427 . S
N1367 C1365 1.384 . S
C403 C15 0.808 . S
C407 C65 0.806 . S
C421 C21 0.780 . S
C425 C37 0.800 . S
C439 C59 0.794 . S
C443 C43 0.771 . S
C457 C103 0.799 . S
C461 C73 0.807 . S
C475 C125 0.769 . S
C479 C95 0.790 . S
C493 C117 0.798 . S
C497 C81 0.776 . S
C511 C197 0.771 . S
C515 C147 0.794 . S
C529 C169 0.808 . S
C533 C153 0.804 . S
C547 C175 0.785 . S
C551 C191 0.794 . S
C565 C213 0.807 . S
C569 C235 0.806 . S
C583 C263 0.770 . S
C587 C227 0.791 . S
C601 C257 0.808 . S
C605 C219 0.806 . S
C619 C329 0.797 . S
C623 C279 0.800 . S
C637 C301 0.808 . S
C641 C285 0.805 . S
C655 C323 0.806 . S
C659 C307 0.805 . S
C673 C345 0.796 . S
C677 C373 0.791 . S
C691 C389 0.806 . S
C695 C367 0.806 . S
C709 C351 0.772 . S
C713 C381 0.795 . S
C727 C131 1.147 . S
C731 C10 1.134 . S
C745 C87 1.146 . S
C749 C32 1.133 . S
C763 C109 1.156 . S
C767 C54 1.143 . S
C781 C29 1.160 . S
C785 C84 1.149 . S
C799 C106 1.130 . S
C803 C51 1.143 . S
C817 C7 1.153 . S
C821 C128 1.144 . S
C835 C142 1.137 . S
C839 C249 1.150 . S
C853 C164 1.134 . S
C857 C205 1.145 . S
C871 C241 1.143 . S
C875 C186 1.131 . S
C889 C208 1.143 . S
C893 C161 1.155 . S
C907 C238 1.145 . S
C911 C183 1.154 . S
C925 C252 1.131 . S
C929 C139 1.143 . S
C943 C274 1.147 . S
C947 C395 1.155 . S
C961 C296 1.130 . S
C965 C337 1.143 . S
C979 C318 1.147 . S
C983 C359 1.159 . S
C997 C340 1.143 . S
C1001 C293 1.155 . S
C1015 C362 1.135 . S
C1019 C315 1.148 . S
C1033 C392 1.150 . S
C1037 C271 1.159 . S
C1051 C230 2.104 . S
C1055 C18 2.037 . S
C1069 C40 2.026 . S
C1073 C250 2.098 . S
C1087 C206 2.101 . S
C1091 C62 2.033 . S
C1105 C74 2.039 . S
C1109 C184 2.107 . S
C1123 C96 2.027 . S
C1127 C140 2.098 . S
C1141 C162 2.103 . S
C1145 C118 2.035 . S
C1159 C150 2.039 . S
C1163 C360 2.108 1_455 S
C1177 C172 2.026 . S
C1181 C384 2.098 . S
C1195 C194 2.033 . S
C1199 C338 2.106 1_565 S
C1213 C316 2.107 1_565 S
C1217 C216 2.034 . S
C1231 C272 2.107 1_455 S
C1235 C228 2.039 . S
C1249 C294 2.103 . S
C1253 C260 2.028 . S
C1267 C98 2.100 . S
C1271 C282 2.026 . S
C1285 C304 2.032 . S
C1289 C120 2.100 . S
C1303 C76 2.102 . S
C1307 C326 2.035 . S
C1321 C348 2.038 . S
C1325 C52 2.105 . S
C1339 C370 2.032 . S
C1343 C8 2.106 . S
C1357 C30 2.100 . S
C1361 C382 2.031 . S
