# Generated by pormake.
# Topology vbm, (6)-cn, num edge types: 1
# Building blocks:
#     Node 0, Type 0, BuildingBlock: GEDQOX_clean_sbu_0, # of connection points: 6
#     Node 1, Type 0, BuildingBlock: GEDQOX_clean_sbu_0, # of connection points: 6
#     Node 2, Type 0, BuildingBlock: GEDQOX_clean_sbu_0, # of connection points: 6
#     Node 3, Type 0, BuildingBlock: GEDQOX_clean_sbu_0, # of connection points: 6
#     Node 4, Type 0, BuildingBlock: GEDQOX_clean_sbu_0, # of connection points: 6
#     Node 5, Type 0, BuildingBlock: GEDQOX_clean_sbu_0, # of connection points: 6
#     Node 6, Type 0, BuildingBlock: GEDQOX_clean_sbu_0, # of connection points: 6
#     Node 7, Type 0, BuildingBlock: GEDQOX_clean_sbu_0, # of connection points: 6
#     Node 8, Type 0, BuildingBlock: GEDQOX_clean_sbu_0, # of connection points: 6
#     Node 9, Type 0, BuildingBlock: GEDQOX_clean_sbu_0, # of connection points: 6
#     Node 10, Type 0, BuildingBlock: GEDQOX_clean_sbu_0, # of connection points: 6
#     Node 11, Type 0, BuildingBlock: GEDQOX_clean_sbu_0, # of connection points: 6
#     Node 12, Type 0, BuildingBlock: GEDQOX_clean_sbu_0, # of connection points: 6
#     Node 13, Type 0, BuildingBlock: GEDQOX_clean_sbu_0, # of connection points: 6
#     Node 14, Type 0, BuildingBlock: GEDQOX_clean_sbu_0, # of connection points: 6
#     Node 15, Type 0, BuildingBlock: GEDQOX_clean_sbu_0, # of connection points: 6
#     Edge 16, Type (0, 0), BuildingBlock: XIVTED_clean_linker_0, # of connection points: 2
#     Edge 17, Type (0, 0), BuildingBlock: XIVTED_clean_linker_0, # of connection points: 2
#     Edge 18, Type (0, 0), BuildingBlock: XIVTED_clean_linker_0, # of connection points: 2
#     Edge 19, Type (0, 0), BuildingBlock: XIVTED_clean_linker_0, # of connection points: 2
#     Edge 20, Type (0, 0), BuildingBlock: XIVTED_clean_linker_0, # of connection points: 2
#     Edge 21, Type (0, 0), BuildingBlock: XIVTED_clean_linker_0, # of connection points: 2
#     Edge 22, Type (0, 0), BuildingBlock: XIVTED_clean_linker_0, # of connection points: 2
#     Edge 23, Type (0, 0), BuildingBlock: XIVTED_clean_linker_0, # of connection points: 2
#     Edge 24, Type (0, 0), BuildingBlock: XIVTED_clean_linker_0, # of connection points: 2
#     Edge 25, Type (0, 0), BuildingBlock: XIVTED_clean_linker_0, # of connection points: 2
#     Edge 26, Type (0, 0), BuildingBlock: XIVTED_clean_linker_0, # of connection points: 2
#     Edge 27, Type (0, 0), BuildingBlock: XIVTED_clean_linker_0, # of connection points: 2
#     Edge 28, Type (0, 0), BuildingBlock: XIVTED_clean_linker_0, # of connection points: 2
#     Edge 29, Type (0, 0), BuildingBlock: XIVTED_clean_linker_0, # of connection points: 2
#     Edge 30, Type (0, 0), BuildingBlock: XIVTED_clean_linker_0, # of connection points: 2
#     Edge 31, Type (0, 0), BuildingBlock: XIVTED_clean_linker_0, # of connection points: 2
#     Edge 32, Type (0, 0), BuildingBlock: XIVTED_clean_linker_0, # of connection points: 2
#     Edge 33, Type (0, 0), BuildingBlock: XIVTED_clean_linker_0, # of connection points: 2
#     Edge 34, Type (0, 0), BuildingBlock: XIVTED_clean_linker_0, # of connection points: 2
#     Edge 35, Type (0, 0), BuildingBlock: XIVTED_clean_linker_0, # of connection points: 2
#     Edge 36, Type (0, 0), BuildingBlock: XIVTED_clean_linker_0, # of connection points: 2
#     Edge 37, Type (0, 0), BuildingBlock: XIVTED_clean_linker_0, # of connection points: 2
#     Edge 38, Type (0, 0), BuildingBlock: XIVTED_clean_linker_0, # of connection points: 2
#     Edge 39, Type (0, 0), BuildingBlock: XIVTED_clean_linker_0, # of connection points: 2
#     Edge 40, Type (0, 0), BuildingBlock: XIVTED_clean_linker_0, # of connection points: 2
#     Edge 41, Type (0, 0), BuildingBlock: XIVTED_clean_linker_0, # of connection points: 2
#     Edge 42, Type (0, 0), BuildingBlock: XIVTED_clean_linker_0, # of connection points: 2
#     Edge 43, Type (0, 0), BuildingBlock: XIVTED_clean_linker_0, # of connection points: 2
#     Edge 44, Type (0, 0), BuildingBlock: XIVTED_clean_linker_0, # of connection points: 2
#     Edge 45, Type (0, 0), BuildingBlock: XIVTED_clean_linker_0, # of connection points: 2
#     Edge 46, Type (0, 0), BuildingBlock: XIVTED_clean_linker_0, # of connection points: 2
#     Edge 47, Type (0, 0), BuildingBlock: XIVTED_clean_linker_0, # of connection points: 2
#     Edge 48, Type (0, 0), BuildingBlock: XIVTED_clean_linker_0, # of connection points: 2
#     Edge 49, Type (0, 0), BuildingBlock: XIVTED_clean_linker_0, # of connection points: 2
#     Edge 50, Type (0, 0), BuildingBlock: XIVTED_clean_linker_0, # of connection points: 2
#     Edge 51, Type (0, 0), BuildingBlock: XIVTED_clean_linker_0, # of connection points: 2
#     Edge 52, Type (0, 0), BuildingBlock: XIVTED_clean_linker_0, # of connection points: 2
#     Edge 53, Type (0, 0), BuildingBlock: XIVTED_clean_linker_0, # of connection points: 2
#     Edge 54, Type (0, 0), BuildingBlock: XIVTED_clean_linker_0, # of connection points: 2
#     Edge 55, Type (0, 0), BuildingBlock: XIVTED_clean_linker_0, # of connection points: 2
#     Edge 56, Type (0, 0), BuildingBlock: XIVTED_clean_linker_0, # of connection points: 2
#     Edge 57, Type (0, 0), BuildingBlock: XIVTED_clean_linker_0, # of connection points: 2
#     Edge 58, Type (0, 0), BuildingBlock: XIVTED_clean_linker_0, # of connection points: 2
#     Edge 59, Type (0, 0), BuildingBlock: XIVTED_clean_linker_0, # of connection points: 2
#     Edge 60, Type (0, 0), BuildingBlock: XIVTED_clean_linker_0, # of connection points: 2
#     Edge 61, Type (0, 0), BuildingBlock: XIVTED_clean_linker_0, # of connection points: 2
#     Edge 62, Type (0, 0), BuildingBlock: XIVTED_clean_linker_0, # of connection points: 2
#     Edge 63, Type (0, 0), BuildingBlock: XIVTED_clean_linker_0, # of connection points: 2
# Relax obj value: 0.191
# Max RMSD: 0.207
# Mean RMSD: 0.207
data_MOF--net-vbm--node1-GEDQOX_clean_sbu_0--edge1-XIVTED_clean_linker_0
_symmetry_space_group_name_H-M    P1
_symmetry_Int_Tables_number       1
_symmetry_cell_setting            triclinic
loop_
_symmetry_equiv_pos_as_xyz
'x, y, z'
_cell_length_a     105.37367
_cell_length_b     15.8418
_cell_length_c     59.230317
_cell_angle_alpha  89.918519
_cell_angle_beta   89.873766
_cell_angle_gamma 89.815156
loop_
_atom_site_label
_atom_site_type_symbol
_atom_site_fract_x
_atom_site_fract_y
_atom_site_fract_z
_atom_type_partial_charge
Nd0 Nd 0.121 0.11162 0.12684 0.0
Nd1 Nd 0.15058 0.10796 0.11956 0.0
C2 C 0.0963 0.0927 0.13362 0.0
C3 C 0.08234 0.07987 0.13647 0.0
C4 C 0.07554 0.11802 0.15423 0.0
C5 C 0.06225 0.11049 0.15567 0.0
C6 C 0.05538 0.06448 0.1394 0.0
C7 C 0.06227 1.02552 0.12184 0.0
C8 C 0.07551 1.03309 0.12041 0.0
C9 C 0.12947 0.14171 0.08334 0.0
C10 C 0.13592 0.92886 0.12488 0.0
C11 C 0.17359 0.11592 0.10104 0.0
C12 C 0.18661 0.15135 0.10336 0.0
C13 C 0.19312 0.17769 0.0839 0.0
C14 C 0.20569 0.20621 0.0851 0.0
C15 C 0.21218 0.20938 0.10587 0.0
C16 C 0.20556 0.18376 0.12546 0.0
C17 C 0.19293 0.15514 0.12422 0.0
C18 C 0.14598 0.10482 0.16569 0.0
C19 C 0.13576 0.29029 0.12823 0.0
O20 O 0.10342 0.13583 0.14762 0.0
O21 O 0.1025 0.05804 0.11683 0.0
O22 O 0.12039 0.18313 0.09312 0.0
O23 O 0.13385 0.08613 0.09653 0.0
O24 O 0.12619 0.97182 0.13326 0.0
O25 O 0.14573 0.96737 0.1155 0.0
O26 O 0.16432 0.16771 0.09575 0.0
O27 O 0.17007 0.05682 0.11522 0.0
O28 O 0.15714 0.10687 0.15648 0.0
O29 O 0.1376 0.10766 0.15046 0.0
O30 O 0.14559 0.25014 0.11923 0.0
O31 O 0.1256 0.24946 0.13558 0.0
H32 H 0.08048 0.15474 0.16686 0.0
H33 H 0.05737 0.14061 0.16962 0.0
H34 H 0.05741 0.99072 0.10875 0.0
H35 H 0.08036 1.00337 0.10637 0.0
H36 H 0.18853 0.17474 0.06756 0.0
H37 H 0.21042 0.22379 0.06955 0.0
H38 H 0.2101 0.18616 0.14183 0.0
H39 H 0.18817 0.1353 0.13955 0.0
Nd40 Nd 0.89503 0.97394 0.13189 0.0
Nd41 Nd 0.86742 0.98419 0.12048 0.0
C42 C 0.91867 0.98366 0.14791 0.0
C43 C 0.93225 1.0059 0.14409 0.0
C44 C 0.93873 0.05304 0.16048 0.0
C45 C 0.95192 0.06489 0.1591 0.0
C46 C 0.95905 1.02956 0.14128 0.0
C47 C 0.95246 0.98447 0.12448 0.0
C48 C 0.93926 0.97272 0.12587 0.0
C49 C 0.89016 0.95798 0.08604 0.0
C50 C 0.88204 0.16024 0.1231 0.0
C51 C 0.84383 0.97162 0.10443 0.0
C52 C 0.83132 0.92853 0.10626 0.0
C53 C 0.82449 0.91102 0.0865 0.0
C54 C 0.81207 0.87947 0.08757 0.0
C55 C 0.80607 0.86444 0.10849 0.0
C56 C 0.81308 0.88022 0.12832 0.0
C57 C 0.82553 0.91191 0.12723 0.0
C58 C 0.87223 1.00925 0.16581 0.0
C59 C 0.88005 0.79828 0.13104 0.0
O60 O 0.91025 0.04363 0.15058 0.0
O61 O 0.9141 0.9183 0.13735 0.0
O62 O 0.89889 0.91725 0.09681 0.0
O63 O 0.88473 1.00968 0.09905 0.0
O64 O 0.89065 0.1172 0.13461 0.0
O65 O 0.87312 0.12023 0.11173 0.0
O66 O 0.85349 0.93044 0.09588 0.0
O67 O 0.84715 1.02202 0.12079 0.0
O68 O 0.86359 0.04789 0.15424 0.0
O69 O 0.8777 0.95356 0.15388 0.0
O70 O 0.87131 0.8404 0.11969 0.0
O71 O 0.88918 0.839 0.1416 0.0
H72 H 0.93364 0.07837 0.17488 0.0
H73 H 0.95657 0.09909 0.17254 0.0
H74 H 0.95752 0.95745 0.11028 0.0
H75 H 0.9346 0.93582 0.11295 0.0
H76 H 0.82864 0.92415 0.07012 0.0
H77 H 0.80703 0.8696 0.07189 0.0
H78 H 0.80894 0.86838 0.14476 0.0
H79 H 0.83053 0.92489 0.14279 0.0
Nd80 Nd 0.12224 0.96865 0.37147 0.0
Nd81 Nd 0.15203 0.97122 0.37752 0.0
C82 C 0.09751 0.98925 0.36545 0.0
C83 C 0.0835 1.00253 0.36334 0.0
C84 C 0.07681 0.97819 0.34388 0.0
C85 C 0.06352 0.98708 0.34277 0.0
C86 C 0.05656 1.01981 0.36117 0.0
C87 C 0.06333 0.04511 0.38046 0.0
C88 C 0.07657 1.03674 0.38151 0.0
C89 C 0.1313 0.93838 0.41451 0.0
C90 C 0.1372 0.15083 0.37306 0.0
C91 C 0.17518 0.96367 0.39534 0.0
C92 C 0.18831 0.92977 0.39297 0.0
C93 C 0.19514 0.90869 0.41252 0.0
C94 C 0.20788 0.88322 0.41124 0.0
C95 C 0.21422 0.87797 0.39031 0.0
C96 C 0.20724 0.89711 0.37061 0.0
C97 C 0.19446 0.92298 0.37193 0.0
C98 C 0.14677 0.97509 0.33165 0.0
C99 C 0.13705 0.78939 0.36961 0.0
O100 O 0.10455 0.94821 0.35077 0.0
O101 O 0.10377 1.02056 0.38253 0.0
O102 O 0.12203 0.89756 0.40532 0.0
O103 O 0.1355 0.99362 0.40106 0.0
O104 O 0.12735 0.10842 0.36515 0.0
O105 O 0.14715 0.11184 0.3819 0.0
O106 O 0.16607 0.91114 0.40076 0.0
O107 O 0.17148 1.02253 0.38121 0.0
O108 O 0.15807 0.9726 0.34021 0.0
O109 O 0.13866 0.97218 0.34739 0.0
O110 O 0.14702 0.82921 0.37805 0.0
O111 O 0.12678 0.83049 0.36274 0.0
H112 H 0.08183 0.95131 0.32961 0.0
H113 H 0.05867 0.96631 0.32768 0.0
H114 H 0.0584 0.07187 0.39484 0.0
H115 H 0.08135 0.05617 0.3968 0.0
H116 H 0.19065 0.91336 0.42895 0.0
H117 H 0.21278 0.86763 0.42675 0.0
H118 H 0.21176 0.89444 0.35419 0.0
H119 H 0.18945 0.93905 0.35655 0.0
Nd120 Nd 0.89587 0.08154 0.37013 0.0
Nd121 Nd 0.86593 0.08441 0.38094 0.0
C122 C 0.91938 0.05008 0.35593 0.0
C123 C 0.93331 0.06562 0.35652 0.0
C124 C 0.9404 0.05538 0.33662 0.0
C125 C 0.95372 0.05741 0.33699 0.0
C126 C 0.96037 0.06994 0.35733 0.0
C127 C 0.95318 0.08295 0.37719 0.0
C128 C 0.93983 0.08053 0.37681 0.0
C129 C 0.88922 0.11081 0.41456 0.0
C130 C 0.87994 0.90275 0.37488 0.0
C131 C 0.84325 0.09557 0.40054 0.0
C132 C 0.83021 0.13103 0.39795 0.0
C133 C 0.82335 0.15459 0.41729 0.0
C134 C 0.81073 0.18272 0.41568 0.0
C135 C 0.80457 0.18826 0.39462 0.0
C136 C 0.81157 0.16563 0.37517 0.0
C137 C 0.82422 0.1374 0.37681 0.0
C138 C 0.87001 0.08214 0.33447 0.0
C139 C 0.88153 0.26365 0.37194 0.0
O140 O 0.91414 1.01361 0.37346 0.0
O141 O 0.91182 0.10397 0.34576 0.0
O142 O 0.89892 0.14461 0.4045 0.0
O143 O 0.88372 0.0593 0.40154 0.0
O144 O 0.8894 0.94359 0.365 0.0
O145 O 0.87062 0.9433 0.38532 0.0
O146 O 0.85255 0.14797 0.4048 0.0
O147 O 0.84662 1.03403 0.38701 0.0
O148 O 0.85887 0.08608 0.34376 0.0
O149 O 0.87819 0.08243 0.34986 0.0
O150 O 0.8718 0.22484 0.38168 0.0
O151 O 0.89132 0.22165 0.3633 0.0
H152 H 0.93564 0.0426 0.3208 0.0
H153 H 0.95877 0.04584 0.32136 0.0
H154 H 0.95785 0.09432 0.39315 0.0
H155 H 0.93463 0.08833 0.39246 0.0
H156 H 0.82769 0.14967 0.43381 0.0
H157 H 0.80572 0.19803 0.43112 0.0
H158 H 0.80729 0.17 0.3586 0.0
H159 H 0.82927 0.11977 0.36157 0.0
Nd160 Nd 0.86912 0.98223 0.87865 0.0
Nd161 Nd 0.89713 0.97199 0.87089 0.0
C162 C 0.84478 0.97121 0.89109 0.0
C163 C 0.83221 0.92822 0.88928 0.0
C164 C 0.82565 0.90602 0.90908 0.0
C165 C 0.81312 0.8762 0.90822 0.0
C166 C 0.8067 0.86774 0.88747 0.0
C167 C 0.81343 0.888 0.86756 0.0
C168 C 0.82599 0.91793 0.86845 0.0
C169 C 0.87622 1.00646 0.83417 0.0
C170 C 0.88224 0.79633 0.86991 0.0
C171 C 0.92138 0.97801 0.85772 0.0
C172 C 0.93483 1.00539 0.86018 0.0
C173 C 0.94185 1.02503 0.84071 0.0
C174 C 0.955 0.03866 0.84178 0.0
C175 C 0.96158 1.03332 0.86246 0.0
C176 C 0.95443 1.01601 0.88211 0.0
C177 C 0.94125 1.00194 0.88098 0.0
C178 C 0.89024 0.95457 0.91592 0.0
C179 C 0.88386 0.15858 0.87891 0.0
O180 O 0.85402 0.93493 0.90222 0.0
O181 O 0.84883 1.01509 0.87386 0.0
O182 O 0.86749 0.04917 0.84445 0.0
O183 O 0.88077 0.95007 0.84699 0.0
O184 O 0.87301 0.83807 0.88017 0.0
O185 O 0.89172 0.83751 0.86043 0.0
O186 O 0.91273 1.03032 0.85016 0.0
O187 O 0.91686 0.92361 0.87218 0.0
O188 O 0.89918 0.9124 0.90604 0.0
O189 O 0.88549 1.0075 0.90238 0.0
O190 O 0.89321 0.11639 0.86903 0.0
O191 O 0.87428 0.11793 0.88833 0.0
H192 H 0.83008 0.91444 0.9254 0.0
H193 H 0.80832 0.86269 0.92398 0.0
H194 H 0.80898 0.88125 0.85121 0.0
H195 H 0.83072 0.93476 0.85283 0.0
H196 H 0.93723 1.02671 0.82439 0.0
H197 H 0.96004 0.05026 0.82616 0.0
H198 H 0.959 1.01263 0.89843 0.0
H199 H 0.93614 0.9864 0.89631 0.0
Nd200 Nd 0.15013 0.11255 0.87807 0.0
Nd201 Nd 0.12229 0.12147 0.86825 0.0
C202 C 0.174 0.12603 0.89285 0.0
C203 C 0.18659 0.16867 0.891 0.0
C204 C 0.19228 0.20199 0.91048 0.0
C205 C 0.2048 0.23235 0.90999 0.0
C206 C 0.21207 0.23012 0.88998 0.0
C207 C 0.20622 0.19859 0.87031 0.0
C208 C 0.19369 0.16823 0.87082 0.0
C209 C 0.1445 0.08409 0.83319 0.0
C210 C 0.13716 0.29751 0.86756 0.0
C211 C 0.09831 0.11372 0.85377 0.0
C212 C 0.08475 0.09021 0.85705 0.0
C213 C 0.07742 0.07038 0.83802 0.0
C214 C 0.06422 0.06034 0.83975 0.0
C215 C 0.05794 0.06957 0.86063 0.0
C216 C 0.06538 0.08622 0.87989 0.0
C217 C 0.07862 0.09696 0.8781 0.0
C218 C 0.1282 0.14006 0.91366 0.0
C219 C 0.1355 0.93561 0.87709 0.0
O220 O 0.16443 0.16622 0.90206 0.0
O221 O 0.17047 0.07632 0.87649 0.0
O222 O 0.15337 0.04659 0.84445 0.0
O223 O 0.1392 0.14056 0.84513 0.0
O224 O 0.14613 0.25636 0.87858 0.0
O225 O 0.12793 0.25579 0.85758 0.0
O226 O 0.10679 0.05583 0.8491 0.0
O227 O 0.10288 0.17485 0.866 0.0
O228 O 0.11934 0.1811 0.90329 0.0
O229 O 0.13323 0.08722 0.9005 0.0
O230 O 0.12648 0.97766 0.86631 0.0
O231 O 0.14471 0.97654 0.88748 0.0
H232 H 0.18717 0.20206 0.92637 0.0
H233 H 0.2089 0.25483 0.92559 0.0
H234 H 0.21136 0.19685 0.85447 0.0
H235 H 0.18966 0.14271 0.85548 0.0
H236 H 0.08186 0.0654 0.82156 0.0
H237 H 0.05891 0.04621 0.8246 0.0
H238 H 0.06092 0.09425 0.89624 0.0
H239 H 0.08399 0.11299 0.89305 0.0
Nd240 Nd 0.86781 0.09171 0.62162 0.0
Nd241 Nd 0.89572 0.10082 0.6296 0.0
C242 C 0.84358 0.10452 0.60877 0.0
C243 C 0.83089 0.14561 0.61186 0.0
C244 C 0.8261 0.20057 0.59523 0.0
C245 C 0.81352 0.23005 0.59617 0.0
C246 C 0.80527 0.20503 0.61371 0.0
C247 C 0.81019 0.1518 0.63069 0.0
C248 C 0.82278 0.1224 0.62975 0.0
C249 C 0.87461 0.06832 0.66629 0.0
C250 C 0.88084 0.2771 0.63037 0.0
C251 C 0.91982 0.09219 0.64332 0.0
C252 C 0.93336 0.06766 0.63975 0.0
C253 C 0.93974 1.02174 0.65659 0.0
C254 C 0.95294 1.00945 0.65556 0.0
C255 C 0.96018 0.04307 0.63766 0.0
C256 C 0.95368 0.08657 0.62037 0.0
C257 C 0.94047 0.09888 0.62142 0.0
C258 C 0.88914 0.11791 0.58442 0.0
C259 C 0.88248 0.91511 0.62169 0.0
O260 O 0.8528 0.14675 0.59922 0.0
O261 O 0.84765 0.05296 0.6244 0.0
O262 O 0.86577 1.02685 0.65612 0.0
O263 O 0.87928 0.1237 0.65336 0.0
O264 O 0.87172 0.23568 0.61991 0.0
O265 O 0.89021 0.23542 0.6401 0.0
O266 O 0.91136 1.03505 0.6485 0.0
O267 O 0.91512 0.15352 0.63117 0.0
O268 O 0.89818 0.15861 0.59424 0.0
O269 O 0.88426 0.06577 0.59799 0.0
O270 O 0.89159 0.95698 0.63216 0.0
O271 O 0.87316 0.95636 0.61164 0.0
H272 H 0.832 0.21903 0.58107 0.0
H273 H 0.81023 0.27195 0.58295 0.0
H274 H 0.80418 0.12999 0.64434 0.0
H275 H 0.82601 0.07919 0.64271 0.0
H276 H 0.93457 0.99761 0.67104 0.0
H277 H 0.95748 0.97433 0.66901 0.0
H278 H 0.95885 0.11423 0.6064 0.0
H279 H 0.93591 0.13536 0.60824 0.0
Nd280 Nd 0.15218 0.97644 0.62014 0.0
Nd281 Nd 0.12234 0.97542 0.62637 0.0
C282 C 0.17536 0.96883 0.60231 0.0
C283 C 0.18849 0.93536 0.60487 0.0
C284 C 0.19578 0.92029 0.58543 0.0
C285 C 0.2085 0.89479 0.58704 0.0
C286 C 0.21434 0.88346 0.60822 0.0
C287 C 0.2069 0.89672 0.62776 0.0
C288 C 0.19413 0.92265 0.62611 0.0
C289 C 0.14676 0.98108 0.66598 0.0
C290 C 0.13708 0.79565 0.62866 0.0
C291 C 0.09758 0.99322 0.63266 0.0
C292 C 0.08358 1.00502 0.63538 0.0
C293 C 0.0769 0.96711 0.6533 0.0
C294 C 0.06358 0.97215 0.65449 0.0
C295 C 0.05655 1.01497 0.63772 0.0
C296 C 0.06332 0.0545 0.62013 0.0
C297 C 0.0766 0.04955 0.61898 0.0
C298 C 0.13144 0.94133 0.58348 0.0
C299 C 0.13745 0.15699 0.62421 0.0
O300 O 0.1663 0.91573 0.59714 0.0
O301 O 0.17161 1.02811 0.61623 0.0
O302 O 0.15812 0.97713 0.6576 0.0
O303 O 0.13877 0.97875 0.65017 0.0
O304 O 0.14707 0.83453 0.61988 0.0
O305 O 0.12692 0.83772 0.63568 0.0
O306 O 0.10477 0.95223 0.6471 0.0
O307 O 0.10373 1.02691 0.61568 0.0
O308 O 0.12211 0.90187 0.59299 0.0
O309 O 0.13564 0.99769 0.59653 0.0
O310 O 0.12749 0.11549 0.63214 0.0
O311 O 0.14738 0.11712 0.61553 0.0
H312 H 0.19166 0.92957 0.56885 0.0
H313 H 0.21377 0.88383 0.5716 0.0
H314 H 0.21103 0.88927 0.64437 0.0
H315 H 0.18874 0.93402 0.64141 0.0
H316 H 0.08194 0.9318 0.66615 0.0
H317 H 0.05876 0.94025 0.66821 0.0
H318 H 0.05835 0.08945 0.60713 0.0
H319 H 0.08139 0.07959 0.60491 0.0
Nd320 Nd 0.62156 0.59697 0.12645 0.0
Nd321 Nd 0.65146 0.59323 0.11971 0.0
C322 C 0.59687 0.57906 0.13344 0.0
C323 C 0.5829 0.56712 0.13638 0.0
C324 C 0.57637 0.60025 0.15514 0.0
C325 C 0.56308 0.59361 0.15684 0.0
C326 C 0.55594 0.55404 0.13974 0.0
C327 C 0.56257 0.51966 0.12121 0.0
C328 C 0.57581 0.52609 0.11957 0.0
C329 C 0.6304 0.6275 0.08328 0.0
C330 C 0.63659 0.41417 0.12464 0.0
C331 C 0.67459 0.59966 0.1017 0.0
C332 C 0.68767 0.63402 0.10402 0.0
C333 C 0.69433 0.65789 0.08449 0.0
C334 C 0.70703 0.68375 0.08566 0.0
C335 C 0.71349 0.68655 0.10646 0.0
C336 C 0.70667 0.6647 0.12616 0.0
C337 C 0.69393 0.63848 0.12495 0.0
C338 C 0.64615 0.59272 0.16559 0.0
C339 C 0.63648 0.77557 0.12774 0.0
O340 O 0.60413 0.61989 0.14771 0.0
O341 O 0.60292 0.54623 0.11621 0.0
O342 O 0.62112 0.66804 0.09272 0.0
O343 O 0.63473 0.57193 0.09653 0.0
O344 O 0.62672 0.45692 0.13258 0.0
O345 O 0.64656 0.45268 0.11575 0.0
O346 O 0.66543 0.6518 0.09609 0.0
O347 O 0.67093 0.54134 0.11601 0.0
O348 O 0.6575 0.59474 0.15715 0.0
O349 O 0.63816 0.59421 0.14978 0.0
O350 O 0.6464 0.73535 0.11899 0.0
O351 O 0.62627 0.73492 0.13497 0.0
H352 H 0.5815 0.63266 0.16835 0.0
H353 H 0.55837 0.62152 0.17128 0.0
H354 H 0.55752 0.48736 0.10789 0.0
H355 H 0.58047 0.49974 0.10485 0.0
H356 H 0.68975 0.65508 0.06815 0.0
H357 H 0.7118 0.70149 0.07017 0.0
H358 H 0.71129 0.66544 0.14247 0.0
H359 H 0.68906 0.62029 0.14031 0.0
Nd360 Nd 0.39688 0.47923 0.13282 0.0
Nd361 Nd 0.36611 0.4776 0.11917 0.0
C362 C 0.41907 0.48073 0.15415 0.0
C363 C 0.43292 0.49541 0.15117 0.0
C364 C 0.43978 0.53404 0.1686 0.0
C365 C 0.453 0.54294 0.16718 0.0
C366 C 0.4598 0.51326 0.14824 0.0
C367 C 0.45284 0.4761 0.13053 0.0
C368 C 0.43958 0.4672 0.13198 0.0
C369 C 0.3934 0.48376 0.08616 0.0
C370 C 0.3814 0.65824 0.12503 0.0
C371 C 0.34383 0.47247 0.09823 0.0
C372 C 0.3306 0.44061 0.1003 0.0
C373 C 0.32333 0.43004 0.0807 0.0
C374 C 0.31061 0.40459 0.082 0.0
C375 C 0.30475 0.38886 0.103 0.0
C376 C 0.31217 0.39786 0.12267 0.0
C377 C 0.32494 0.42364 0.12134 0.0
C378 C 0.37006 0.47683 0.16581 0.0
C379 C 0.38125 0.29789 0.12804 0.0
O380 O 0.41143 0.5462 0.1534 0.0
O381 O 0.41419 0.4133 0.14479 0.0
O382 O 0.40439 0.48403 0.09607 0.0
O383 O 0.38496 0.48182 0.10127 0.0
O384 O 0.39083 0.61879 0.13556 0.0
O385 O 0.37209 0.6172 0.11463 0.0
O386 O 0.3529 0.41709 0.09475 0.0
O387 O 0.34725 0.53369 0.11177 0.0
O388 O 0.35892 0.47364 0.1565 0.0
O389 O 0.37815 0.47712 0.15023 0.0
O390 O 0.37149 0.3368 0.1184 0.0
O391 O 0.39094 0.33921 0.13714 0.0
H392 H 0.4349 0.55632 0.18359 0.0
H393 H 0.4579 0.5733 0.181 0.0
H394 H 0.45766 0.45171 0.11575 0.0
H395 H 0.43457 0.43693 0.11827 0.0
H396 H 0.32747 0.44244 0.06426 0.0
H397 H 0.30537 0.39696 0.06643 0.0
H398 H 0.30803 0.38702 0.13917 0.0
H399 H 0.33033 0.43138 0.13675 0.0
Nd400 Nd 0.62181 0.4737 0.36824 0.0
Nd401 Nd 0.64977 0.48166 0.3783 0.0
C402 C 0.5979 0.48807 0.35362 0.0
C403 C 0.58424 0.50219 0.35933 0.0
C404 C 0.57742 0.56601 0.3481 0.0
C405 C 0.56423 0.57405 0.35082 0.0
C406 C 0.5574 0.51815 0.36482 0.0
C407 C 0.56432 0.45558 0.37654 0.0
C408 C 0.57753 0.44762 0.37382 0.0
C409 C 0.62744 0.45682 0.41375 0.0
C410 C 0.6353 0.65832 0.37539 0.0
C411 C 0.67354 0.46925 0.3936 0.0
C412 C 0.68614 0.4261 0.39267 0.0
C413 C 0.69254 0.40851 0.41291 0.0
C414 C 0.70511 0.37892 0.41277 0.0
C415 C 0.71171 0.36603 0.39233 0.0
C416 C 0.70511 0.3808 0.37198 0.0
C417 C 0.69251 0.41076 0.37215 0.0
C418 C 0.64413 0.50884 0.33336 0.0
C419 C 0.63681 0.29663 0.36825 0.0
O420 O 0.60577 0.55148 0.35453 0.0
O421 O 0.6032 0.41697 0.35962 0.0
O422 O 0.61837 0.41771 0.40356 0.0
O423 O 0.63272 0.50781 0.40039 0.0
O424 O 0.62673 0.61548 0.36386 0.0
O425 O 0.64415 0.61799 0.38698 0.0
O426 O 0.66392 0.43123 0.4032 0.0
O427 O 0.67014 0.51573 0.37642 0.0
O428 O 0.65307 0.54612 0.3444 0.0
O429 O 0.63883 0.45323 0.34552 0.0
O430 O 0.64591 0.338 0.37876 0.0
O431 O 0.62733 0.33781 0.35865 0.0
H432 H 0.58226 0.60827 0.33658 0.0
H433 H 0.55933 0.62235 0.34123 0.0
H434 H 0.55951 0.4121 0.38776 0.0
H435 H 0.58244 0.39746 0.3827 0.0
H436 H 0.68792 0.42012 0.42898 0.0
H437 H 0.70971 0.36694 0.42879 0.0
H438 H 0.70983 0.37228 0.35589 0.0
H439 H 0.68789 0.42418 0.35622 0.0
Nd440 Nd 0.3966 0.5951 0.36904 0.0
Nd441 Nd 0.36897 0.58787 0.37956 0.0
C442 C 0.42045 0.57709 0.35414 0.0
C443 C 0.4342 0.56774 0.3597 0.0
C444 C 0.44109 0.50007 0.35041 0.0
C445 C 0.4543 0.49429 0.35304 0.0
C446 C 0.46108 0.55629 0.36503 0.0
C447 C 0.4541 0.6232 0.37478 0.0
C448 C 0.44085 0.62894 0.37213 0.0
C449 C 0.39137 0.61377 0.41479 0.0
C450 C 0.38313 0.41137 0.37624 0.0
C451 C 0.34526 0.60185 0.39521 0.0
C452 C 0.33268 0.64451 0.39312 0.0
C453 C 0.32599 0.66633 0.4128 0.0
C454 C 0.31353 0.69754 0.41168 0.0
C455 C 0.30733 0.70794 0.39077 0.0
C456 C 0.31419 0.68778 0.37098 0.0
C457 C 0.32669 0.65641 0.37214 0.0
C458 C 0.37407 0.56055 0.33428 0.0
C459 C 0.38194 0.77304 0.36935 0.0
O460 O 0.41285 0.51372 0.35793 0.0
O461 O 0.41493 0.64983 0.3575 0.0
O462 O 0.40027 0.65288 0.40403 0.0
O463 O 0.38597 0.56213 0.4018 0.0
O464 O 0.39135 0.45445 0.36393 0.0
O465 O 0.37462 0.45184 0.38857 0.0
O466 O 0.35482 0.64369 0.40364 0.0
O467 O 0.34873 0.55018 0.37918 0.0
O468 O 0.36526 0.52373 0.34584 0.0
O469 O 0.3796 0.61578 0.34621 0.0
O470 O 0.37281 0.73151 0.37983 0.0
O471 O 0.39145 0.73198 0.35983 0.0
H472 H 0.43629 0.45258 0.34047 0.0
H473 H 0.45925 0.44248 0.34495 0.0
H474 H 0.45887 0.67161 0.38442 0.0
H475 H 0.43587 0.68217 0.37946 0.0
H476 H 0.33029 0.65684 0.42921 0.0
H477 H 0.30861 0.71084 0.42735 0.0
H478 H 0.30989 0.69595 0.35453 0.0
H479 H 0.33156 0.64002 0.35663 0.0
Nd480 Nd 0.36709 0.47745 0.88157 0.0
Nd481 Nd 0.39802 0.47946 0.86915 0.0
C482 C 0.34452 0.47351 0.9018 0.0
C483 C 0.3312 0.44412 0.89918 0.0
C484 C 0.32323 0.44192 0.91819 0.0
C485 C 0.31046 0.4182 0.91626 0.0
C486 C 0.30524 0.39585 0.89521 0.0
C487 C 0.31334 0.39689 0.87618 0.0
C488 C 0.32616 0.42094 0.87813 0.0
C489 C 0.37152 0.47669 0.83506 0.0
C490 C 0.38241 0.29785 0.87338 0.0
C491 C 0.42082 0.48209 0.84966 0.0
C492 C 0.43473 0.49178 0.85422 0.0
C493 C 0.44116 0.56444 0.84682 0.0
C494 C 0.45439 0.57166 0.84915 0.0
C495 C 0.46165 0.5061 0.85883 0.0
C496 C 0.45517 0.43369 0.86648 0.0
C497 C 0.44193 0.42659 0.86419 0.0
C498 C 0.39378 0.48292 0.91571 0.0
C499 C 0.38234 0.65798 0.87573 0.0
O500 O 0.35335 0.41632 0.90509 0.0
O501 O 0.3483 0.53543 0.88874 0.0
O502 O 0.36031 0.47294 0.84417 0.0
O503 O 0.37954 0.47775 0.85074 0.0
O504 O 0.37251 0.33665 0.88263 0.0
O505 O 0.39225 0.33928 0.86468 0.0
O506 O 0.41351 0.54893 0.85146 0.0
O507 O 0.41519 0.41283 0.85644 0.0
O508 O 0.40492 0.48305 0.90629 0.0
O509 O 0.38563 0.48126 0.9002 0.0
O510 O 0.39178 0.61836 0.86526 0.0
O511 O 0.37303 0.61694 0.88622 0.0
H512 H 0.32688 0.4593 0.93462 0.0
H513 H 0.30469 0.41686 0.9314 0.0
H514 H 0.30972 0.38088 0.85964 0.0
H515 H 0.33209 0.42228 0.86318 0.0
H516 H 0.43599 0.61531 0.83873 0.0
H517 H 0.45896 0.62792 0.84272 0.0
H518 H 0.46032 0.3822 0.87429 0.0
H519 H 0.43737 0.36931 0.86998 0.0
Nd520 Nd 0.65074 0.59484 0.87657 0.0
Nd521 Nd 0.62257 0.60722 0.86927 0.0
C522 C 0.67509 0.60383 0.88885 0.0
C523 C 0.6877 0.64646 0.88751 0.0
C524 C 0.69426 0.66475 0.90754 0.0
C525 C 0.70686 0.69331 0.907 0.0
C526 C 0.71334 0.70439 0.88636 0.0
C527 C 0.7066 0.68876 0.86624 0.0
C528 C 0.69397 0.65991 0.8668 0.0
C529 C 0.64336 0.57201 0.83228 0.0
C530 C 0.63782 0.78174 0.86807 0.0
C531 C 0.59826 0.6006 0.85652 0.0
C532 C 0.58474 0.57627 0.86074 0.0
C533 C 0.5786 0.52046 0.84591 0.0
C534 C 0.56543 0.50717 0.84727 0.0
C535 C 0.55795 0.54986 0.86342 0.0
C536 C 0.56418 0.60372 0.87872 0.0
C537 C 0.57736 0.61682 0.87738 0.0
C538 C 0.62971 0.62355 0.91407 0.0
C539 C 0.63575 0.4196 0.87644 0.0
O540 O 0.66586 0.63842 0.90046 0.0
O541 O 0.67102 0.56291 0.87118 0.0
O542 O 0.65217 0.5289 0.84222 0.0
O543 O 0.63894 0.62818 0.84527 0.0
O544 O 0.64704 0.73913 0.87809 0.0
O545 O 0.62823 0.74149 0.85875 0.0
O546 O 0.60666 0.5434 0.85083 0.0
O547 O 0.60315 0.66139 0.86849 0.0
O548 O 0.62059 0.66519 0.90461 0.0
O549 O 0.63433 0.57077 0.90039 0.0
O550 O 0.62647 0.46298 0.86672 0.0
O551 O 0.6454 0.45899 0.88591 0.0
H552 H 0.68974 0.65445 0.92376 0.0
H553 H 0.71157 0.70596 0.92286 0.0
H554 H 0.71122 0.69575 0.85 0.0
H555 H 0.68927 0.64579 0.85102 0.0
H556 H 0.58393 0.48933 0.83264 0.0
H557 H 0.56106 0.46594 0.83501 0.0
H558 H 0.55886 0.63676 0.89164 0.0
H559 H 0.58168 0.66078 0.88902 0.0
Nd560 Nd 0.36878 0.58517 0.62124 0.0
Nd561 Nd 0.39651 0.58633 0.63055 0.0
C562 C 0.34512 0.60299 0.60588 0.0
C563 C 0.33259 0.64632 0.60805 0.0
C564 C 0.32636 0.67412 0.58846 0.0
C565 C 0.31391 0.70585 0.58944 0.0
C566 C 0.30729 0.71073 0.61011 0.0
C567 C 0.31369 0.68464 0.62985 0.0
C568 C 0.32616 0.65278 0.62883 0.0
C569 C 0.37409 0.55653 0.66638 0.0
C570 C 0.38295 0.76864 0.62996 0.0
C571 C 0.4203 0.55588 0.64389 0.0
C572 C 0.43418 0.55867 0.63924 0.0
C573 C 0.44142 0.48557 0.64318 0.0
C574 C 0.45464 0.48594 0.6406 0.0
C575 C 0.46109 0.55965 0.63394 0.0
C576 C 0.4538 0.633 0.62976 0.0
C577 C 0.4405 0.63256 0.6324 0.0
C578 C 0.39079 0.6094 0.58523 0.0
C579 C 0.38209 0.40687 0.62467 0.0
O580 O 0.35477 0.64465 0.59761 0.0
O581 O 0.34844 0.54972 0.62165 0.0
O582 O 0.36491 0.52234 0.65525 0.0
O583 O 0.37986 0.60984 0.65414 0.0
O584 O 0.37305 0.7283 0.62162 0.0
O585 O 0.39297 0.72698 0.63744 0.0
O586 O 0.41345 0.50223 0.63255 0.0
O587 O 0.41415 0.62556 0.64849 0.0
O588 O 0.39985 0.64757 0.5958 0.0
O589 O 0.38542 0.55733 0.59824 0.0
O590 O 0.39014 0.44894 0.63741 0.0
O591 O 0.37393 0.44869 0.61198 0.0
H592 H 0.33099 0.66889 0.57217 0.0
H593 H 0.30936 0.72386 0.57379 0.0
H594 H 0.30905 0.68846 0.64614 0.0
H595 H 0.33067 0.63169 0.64426 0.0
H596 H 0.43684 0.428 0.64874 0.0
H597 H 0.45982 0.4286 0.64444 0.0
H598 H 0.45834 0.69082 0.62438 0.0
H599 H 0.4352 0.69006 0.62929 0.0
Nd600 Nd 0.64939 0.4819 0.6199 0.0
Nd601 Nd 0.62156 0.47069 0.62885 0.0
C602 C 0.67356 0.47015 0.60644 0.0
C603 C 0.68632 0.43028 0.60979 0.0
C604 C 0.69093 0.37034 0.59428 0.0
C605 C 0.70353 0.34126 0.59535 0.0
C606 C 0.71198 0.37168 0.61188 0.0
C607 C 0.70723 0.43004 0.62777 0.0
C608 C 0.69463 0.45904 0.6267 0.0
C609 C 0.64293 0.50406 0.66481 0.0
C610 C 0.63668 0.29539 0.62911 0.0
C611 C 0.59748 0.48069 0.64286 0.0
C612 C 0.58402 0.50293 0.63766 0.0
C613 C 0.57716 0.55415 0.65273 0.0
C614 C 0.56402 0.56611 0.6502 0.0
C615 C 0.55733 0.5268 0.63253 0.0
C616 C 0.56434 0.47777 0.61698 0.0
C617 C 0.57748 0.4659 0.61952 0.0
C618 C 0.62769 0.45308 0.5836 0.0
C619 C 0.63455 0.65721 0.62091 0.0
O620 O 0.66437 0.42586 0.59758 0.0
O621 O 0.66946 0.52352 0.62159 0.0
O622 O 0.65167 0.54601 0.6544 0.0
O623 O 0.63823 0.44875 0.65201 0.0
O624 O 0.64565 0.33775 0.61839 0.0
O625 O 0.62731 0.3361 0.63915 0.0
O626 O 0.60575 0.54073 0.64613 0.0
O627 O 0.60243 0.41492 0.63292 0.0
O628 O 0.61876 0.41249 0.59386 0.0
O629 O 0.63269 0.50597 0.59677 0.0
O630 O 0.62575 0.61419 0.63194 0.0
O631 O 0.64374 0.617 0.61014 0.0
H632 H 0.68488 0.34747 0.58087 0.0
H633 H 0.70668 0.29537 0.58301 0.0
H634 H 0.71339 0.45606 0.64059 0.0
H635 H 0.69153 0.50616 0.63876 0.0
H636 H 0.58188 0.58261 0.66704 0.0
H637 H 0.55904 0.60349 0.6627 0.0
H638 H 0.55964 0.44758 0.60292 0.0
H639 H 0.58245 0.42581 0.6076 0.0
H640 H 0.23168 0.15056 0.13309 0.0
H641 H 0.28489 0.44808 0.07717 0.0
H642 H 0.22402 0.33396 0.08088 0.0
H643 H 0.29287 0.27487 0.13163 0.0
H644 H 0.26263 0.40625 0.0785 0.0
H645 H 0.25391 0.19549 0.13335 0.0
C646 C 0.23459 0.20071 0.12179 0.0
C647 C 0.2258 0.238 0.10687 0.0
C648 C 0.26922 0.37729 0.0902 0.0
C649 C 0.25151 0.28925 0.10691 0.0
C650 C 0.28202 0.40081 0.08936 0.0
C651 C 0.29094 0.36475 0.1042 0.0
C652 C 0.26513 0.31678 0.10598 0.0
C653 C 0.28642 0.30511 0.11993 0.0
C654 C 0.24736 0.22598 0.12186 0.0
C655 C 0.23036 0.30192 0.09243 0.0
N656 N 0.2739 0.28286 0.12034 0.0
N657 N 0.24281 0.32515 0.0928 0.0
H658 H 0.78726 0.90706 0.13921 0.0
H659 H 0.73255 0.64438 0.0766 0.0
H660 H 0.79364 0.75421 0.07997 0.0
H661 H 0.72617 0.78223 0.13838 0.0
H662 H 0.75486 0.68521 0.07765 0.0
H663 H 0.76506 0.86191 0.13955 0.0
C664 C 0.78409 0.86344 0.12637 0.0
C665 C 0.7925 0.83486 0.10949 0.0
C666 C 0.74861 0.7066 0.09101 0.0
C667 C 0.76681 0.78364 0.10963 0.0
C668 C 0.73578 0.68372 0.09035 0.0
C669 C 0.7273 0.71019 0.10734 0.0
C670 C 0.75316 0.75684 0.10877 0.0
C671 C 0.73228 0.75962 0.12496 0.0
C672 C 0.77133 0.8381 0.12651 0.0
C673 C 0.78759 0.77941 0.09313 0.0
N674 N 0.74481 0.78154 0.12516 0.0
N675 N 0.77515 0.75598 0.0936 0.0
H676 H 0.2951 0.82438 0.41798 0.0
H677 H 0.22677 0.77822 0.35895 0.0
H678 H 0.28826 0.65937 0.3614 0.0
H679 H 0.23346 0.92408 0.41919 0.0
H680 H 0.24934 0.73979 0.35815 0.0
H681 H 0.27278 0.86614 0.4174 0.0
C682 C 0.28894 0.79648 0.40544 0.0
C683 C 0.29372 0.73751 0.3898 0.0
C684 C 0.24586 0.7802 0.37155 0.0
C685 C 0.26789 0.78656 0.38888 0.0
C686 C 0.23295 0.80264 0.37196 0.0
C687 C 0.22806 0.85433 0.38924 0.0
C688 C 0.25407 0.80993 0.38846 0.0
C689 C 0.23664 0.883 0.40572 0.0
C690 C 0.27614 0.82087 0.40506 0.0
C691 C 0.28516 0.70557 0.37369 0.0
N692 N 0.24914 0.86057 0.4049 0.0
N693 N 0.27273 0.73022 0.3737 0.0
H694 H 0.78573 0.13221 0.36574 0.0
H695 H 0.73067 0.41781 0.42108 0.0
H696 H 0.79192 0.30813 0.42016 0.0
H697 H 0.72445 0.25658 0.36354 0.0
H698 H 0.75298 0.37595 0.42119 0.0
H699 H 0.76342 0.17589 0.36453 0.0
C700 C 0.78249 0.18047 0.37734 0.0
C701 C 0.79089 0.21606 0.39314 0.0
C702 C 0.74676 0.34957 0.40852 0.0
C703 C 0.76507 0.26577 0.392 0.0
C704 C 0.73393 0.37303 0.40854 0.0
C705 C 0.72549 0.34048 0.39237 0.0
C706 C 0.75138 0.29262 0.39225 0.0
C707 C 0.73052 0.28405 0.37627 0.0
C708 C 0.76966 0.20502 0.37671 0.0
C709 C 0.78589 0.27745 0.40792 0.0
N710 N 0.74306 0.26181 0.37667 0.0
N711 N 0.7734 0.30001 0.407 0.0
H712 H 0.72589 0.80996 0.85641 0.0
H713 H 0.79431 0.75212 0.91472 0.0
H714 H 0.73254 0.6551 0.91521 0.0
H715 H 0.78754 0.92068 0.85868 0.0
H716 H 0.77189 0.71331 0.91434 0.0
H717 H 0.74844 0.84756 0.85603 0.0
C718 C 0.73205 0.78348 0.86922 0.0
C719 C 0.72714 0.72926 0.88593 0.0
C720 C 0.77529 0.75873 0.90209 0.0
C721 C 0.75318 0.77277 0.88562 0.0
C722 C 0.78815 0.78143 0.90235 0.0
C723 C 0.793 0.84036 0.88676 0.0
C724 C 0.76704 0.79481 0.8861 0.0
C725 C 0.78442 0.8743 0.87089 0.0
C726 C 0.74496 0.80543 0.86904 0.0
C727 C 0.73572 0.69812 0.90219 0.0
N728 N 0.77193 0.85128 0.87101 0.0
N729 N 0.74822 0.72011 0.90159 0.0
H730 H 0.29408 0.27396 0.8683 0.0
H731 H 0.22315 0.36133 0.91351 0.0
H732 H 0.28464 0.46426 0.91764 0.0
H733 H 0.23244 0.16327 0.86627 0.0
H734 H 0.2455 0.40198 0.91429 0.0
H735 H 0.27158 0.23597 0.86613 0.0
C736 C 0.28732 0.30827 0.87859 0.0
C737 C 0.29143 0.37243 0.89327 0.0
C738 C 0.24266 0.3497 0.9037 0.0
C739 C 0.26545 0.32838 0.89096 0.0
C740 C 0.22985 0.32598 0.90333 0.0
C741 C 0.22574 0.25823 0.88986 0.0
C742 C 0.25161 0.30567 0.89053 0.0
C743 C 0.235 0.21647 0.87674 0.0
C744 C 0.27443 0.28608 0.87743 0.0
C745 C 0.28208 0.41349 0.90635 0.0
N746 N 0.24743 0.2406 0.87745 0.0
N747 N 0.26963 0.39086 0.90488 0.0
H748 H 0.72779 0.33946 0.5756 0.0
H749 H 0.78988 0.24423 0.65023 0.0
H750 H 0.72784 0.34427 0.64846 0.0
H751 H 0.78901 0.22611 0.57755 0.0
H752 H 0.76737 0.28277 0.64998 0.0
H753 H 0.75018 0.29932 0.57611 0.0
C754 C 0.73242 0.3314 0.59176 0.0
C755 C 0.72573 0.34528 0.61203 0.0
C756 C 0.77211 0.27049 0.63408 0.0
C757 C 0.75172 0.30026 0.61267 0.0
C758 C 0.785 0.24799 0.63419 0.0
C759 C 0.79152 0.23162 0.61388 0.0
C760 C 0.76554 0.27689 0.6135 0.0
C761 C 0.78457 0.2392 0.59367 0.0
C762 C 0.74531 0.30901 0.59201 0.0
C763 C 0.73252 0.33543 0.63235 0.0
N764 N 0.77204 0.26103 0.59401 0.0
N765 N 0.74507 0.31364 0.63214 0.0
H766 H 0.22614 0.77439 0.63819 0.0
H767 H 0.29575 0.83539 0.58461 0.0
H768 H 0.23423 0.93796 0.58171 0.0
H769 H 0.28757 0.6546 0.63721 0.0
H770 H 0.27346 0.87794 0.58468 0.0
H771 H 0.24867 0.73517 0.63964 0.0
C772 C 0.23262 0.80254 0.62616 0.0
C773 C 0.22814 0.85944 0.60971 0.0
C774 C 0.27652 0.82904 0.59626 0.0
C775 C 0.2541 0.81418 0.61123 0.0
C776 C 0.2893 0.80422 0.59616 0.0
C777 C 0.2937 0.74062 0.61084 0.0
C778 C 0.26791 0.79044 0.61117 0.0
C779 C 0.28477 0.70443 0.62572 0.0
C780 C 0.24551 0.77966 0.62693 0.0
C781 C 0.2371 0.89284 0.59446 0.0
N782 N 0.27237 0.72958 0.62545 0.0
N783 N 0.24956 0.86984 0.5956 0.0
H784 H 0.12426 1.0102 0.30828 0.0
H785 H 0.1639 0.12275 0.19741 0.0
H786 H 0.16443 0.97012 0.29891 0.0
H787 H 0.12424 0.06185 0.19051 0.0
H788 H 0.1627 0.09061 0.23729 0.0
H789 H 0.1225 0.04521 0.2675 0.0
C790 C 0.13264 1.00783 0.29768 0.0
C791 C 0.14453 0.98773 0.30707 0.0
C792 C 0.1542 0.08416 0.22722 0.0
C793 C 0.14264 1.02888 0.26093 0.0
C794 C 0.15486 0.10302 0.20434 0.0
C795 C 0.14419 0.09432 0.19046 0.0
C796 C 0.14276 0.05594 0.23674 0.0
C797 C 0.1327 0.06926 0.20063 0.0
C798 C 0.13164 1.02795 0.27449 0.0
C799 C 0.15508 0.98586 0.2926 0.0
N800 N 0.13228 0.0504 0.22324 0.0
N801 N 0.15389 1.00672 0.27052 0.0
H802 H 0.89129 1.02642 0.3109 0.0
H803 H 0.85831 0.11484 0.1916 0.0
H804 H 0.85325 0.1211 0.30177 0.0
H805 H 0.8887 0.93273 0.1967 0.0
H806 H 0.85905 0.1355 0.23207 0.0
H807 H 0.89305 1.00777 0.26946 0.0
C808 C 0.88339 0.04408 0.30019 0.0
C809 C 0.87211 0.07561 0.30975 0.0
C810 C 0.86558 0.0908 0.22449 0.0
C811 C 0.87406 0.05483 0.26271 0.0
C812 C 0.86518 0.0789 0.20125 0.0
C813 C 0.87335 1.02107 0.19065 0.0
C814 C 0.87429 0.04517 0.23763 0.0
C815 C 0.88214 0.97733 0.20421 0.0
C816 C 0.88437 1.03285 0.27664 0.0
C817 C 0.86212 0.09665 0.29519 0.0
N818 N 0.88238 0.99017 0.22709 0.0
N819 N 0.86335 0.08623 0.27256 0.0
H820 H 0.87175 0.92621 0.69136 0.0
H821 H 0.87438 0.14995 0.80944 0.0
H822 H 0.88364 0.18544 0.69667 0.0
H823 H 0.88359 0.88578 0.80319 0.0
H824 H 0.87628 0.16544 0.76838 0.0
H825 H 0.87453 0.90971 0.73222 0.0
C826 C 0.87504 0.97955 0.70115 0.0
C827 C 0.87743 0.05742 0.69065 0.0
C828 C 0.87805 0.10431 0.77599 0.0
C829 C 0.88038 0.03935 0.73751 0.0
C830 C 0.87692 0.09531 0.79939 0.0
C831 C 0.87881 1.01641 0.80969 0.0
C832 C 0.88071 1.03336 0.76263 0.0
C833 C 0.8821 0.94774 0.79591 0.0
C834 C 0.87667 0.96993 0.72444 0.0
C835 C 0.88171 0.12433 0.70411 0.0
N836 N 0.88272 0.95744 0.77302 0.0
N837 N 0.88284 0.11422 0.72691 0.0
H838 H 0.12876 0.16571 0.80193 0.0
H839 H 0.16178 0.92343 0.6992 0.0
H840 H 0.15606 0.96375 0.80848 0.0
H841 H 0.12655 0.05667 0.68877 0.0
H842 H 0.15981 0.94635 0.73954 0.0
H843 H 0.12757 0.13598 0.76088 0.0
C844 C 0.13443 0.11517 0.79482 0.0
C845 C 0.14265 0.06792 0.80865 0.0
C846 C 0.15238 0.97015 0.72863 0.0
C847 C 0.14135 1.03382 0.76204 0.0
C848 C 0.15351 0.95689 0.70549 0.0
C849 C 0.14429 0.98765 0.6906 0.0
C850 C 0.14204 1.0162 0.73725 0.0
C851 C 0.1338 1.03108 0.69976 0.0
C852 C 0.13372 0.09808 0.77146 0.0
C853 C 0.14971 1.00275 0.79857 0.0
N854 N 0.13302 0.04503 0.72255 0.0
N855 N 0.14896 0.98829 0.77607 0.0
H856 H 0.62844 0.4248 0.30285 0.0
H857 H 0.66102 0.65608 0.19813 0.0
H858 H 0.65544 0.62798 0.30788 0.0
H859 H 0.62604 0.52023 0.18908 0.0
H860 H 0.65904 0.63907 0.23871 0.0
H861 H 0.62714 0.45079 0.26166 0.0
C862 C 0.63402 0.47491 0.29537 0.0
C863 C 0.6422 0.52352 0.3088 0.0
C864 C 0.65167 0.61345 0.22803 0.0
C865 C 0.64076 0.55338 0.26202 0.0
C866 C 0.65281 0.62329 0.20478 0.0
C867 C 0.64366 0.58995 0.19022 0.0
C868 C 0.64141 0.56819 0.23711 0.0
C869 C 0.63324 0.54766 0.19981 0.0
C870 C 0.63324 0.48986 0.27192 0.0
C871 C 0.64913 0.58802 0.29826 0.0
N872 N 0.63246 0.53695 0.22272 0.0
N873 N 0.64832 0.60045 0.27566 0.0
H874 H 0.39048 0.63661 0.30315 0.0
H875 H 0.35357 0.4342 0.19867 0.0
H876 H 0.36018 0.45525 0.30858 0.0
H877 H 0.39105 0.53667 0.1893 0.0
H878 H 0.3556 0.4539 0.23918 0.0
H879 H 0.39083 0.61313 0.26176 0.0
C880 C 0.38395 0.592 0.29571 0.0
C881 C 0.3752 0.5485 0.30939 0.0
C882 C 0.36347 0.47172 0.22843 0.0
C883 C 0.37552 0.52171 0.26233 0.0
C884 C 0.36231 0.46038 0.2052 0.0
C885 C 0.37217 0.48327 0.19056 0.0
C886 C 0.37454 0.50774 0.23739 0.0
C887 C 0.38326 0.5174 0.20006 0.0
C888 C 0.38418 0.57843 0.27215 0.0
C889 C 0.36702 0.49098 0.29885 0.0
N890 N 0.38412 0.52939 0.22292 0.0
N891 N 0.36733 0.47992 0.27614 0.0
H892 H 0.35553 0.42438 0.8027 0.0
H893 H 0.3909 0.63193 0.6967 0.0
H894 H 0.39213 0.54082 0.81094 0.0
H895 H 0.3606 0.45026 0.6927 0.0
H896 H 0.39177 0.60829 0.73805 0.0
H897 H 0.35733 0.44177 0.7621 0.0
C898 C 0.36404 0.45308 0.79589 0.0
C899 C 0.37371 0.48074 0.81027 0.0
C900 C 0.38501 0.57348 0.728 0.0
C901 C 0.37579 0.50268 0.76325 0.0
C902 C 0.38448 0.58712 0.70445 0.0
C903 C 0.37557 0.5437 0.69119 0.0
C904 C 0.37649 0.51655 0.73824 0.0
C905 C 0.36755 0.48596 0.70212 0.0
C906 C 0.36507 0.46314 0.7726 0.0
C907 C 0.38451 0.51788 0.80041 0.0
N908 N 0.36815 0.47469 0.7248 0.0
N909 N 0.38522 0.52862 0.77746 0.0
H910 H 0.63517 0.69319 0.80222 0.0
H911 H 0.63426 0.38504 0.69502 0.0
H912 H 0.64534 0.43003 0.80697 0.0
H913 H 0.64592 0.64501 0.69019 0.0
H914 H 0.63229 0.4016 0.73628 0.0
H915 H 0.63305 0.67711 0.76098 0.0
C916 C 0.63674 0.63187 0.79463 0.0
C917 C 0.64053 0.56297 0.80792 0.0
C918 C 0.63514 0.45511 0.72609 0.0
C919 C 0.63793 0.54386 0.76109 0.0
C920 C 0.63621 0.44579 0.70261 0.0
C921 C 0.64037 0.51357 0.68928 0.0
C922 C 0.63791 0.53333 0.73614 0.0
C923 C 0.64281 0.59097 0.69994 0.0
C924 C 0.63559 0.62282 0.77116 0.0
C925 C 0.64251 0.48487 0.79726 0.0
N926 N 0.64152 0.59886 0.7227 0.0
N927 N 0.64116 0.47733 0.7745 0.0
H928 H 0.11802 0.25389 0.94268 0.0
H929 H 0.14329 1.03275 0.05616 0.0
H930 H 0.14239 1.03484 0.94128 0.0
H931 H 0.12014 0.25749 0.05392 0.0
H932 H 0.14432 1.03416 0.01456 0.0
H933 H 0.11981 0.25788 0.98363 0.0
C934 C 0.12379 0.20658 0.95103 0.0
C935 C 0.12999 0.14363 0.93852 0.0
C936 C 0.13911 0.08344 0.02322 0.0
C937 C 0.13208 0.14745 0.98582 0.0
C938 C 0.13855 0.0828 0.04695 0.0
C939 C 0.13154 0.14479 0.05853 0.0
C940 C 0.13262 0.14658 0.01106 0.0
C941 C 0.12558 0.20808 0.04575 0.0
C942 C 0.12483 0.2089 0.97449 0.0
C943 C 0.13742 0.08435 0.9503 0.0
N944 N 0.1262 0.20703 0.02283 0.0
N945 N 0.1382 0.08731 0.97332 0.0
H946 H 0.87597 0.0625 0.94277 0.0
H947 H 0.90164 0.84906 0.05718 0.0
H948 H 0.90085 0.8462 0.94593 0.0
H949 H 0.8759 0.06116 0.05792 0.0
H950 H 0.90059 0.84659 0.01616 0.0
H951 H 0.87489 0.0628 0.98441 0.0
C952 C 0.88113 1.01488 0.95219 0.0
C953 C 0.88858 0.95454 0.94086 0.0
C954 C 0.89512 0.89378 0.02515 0.0
C955 C 0.88741 0.95453 0.98835 0.0
C956 C 0.89573 0.89521 0.04867 0.0
C957 C 0.88891 0.95569 0.06104 0.0
C958 C 0.88766 0.95355 0.01361 0.0
C959 C 0.88134 1.01356 0.04902 0.0
C960 C 0.88053 1.01514 0.97593 0.0
C961 C 0.89505 0.89428 0.9539 0.0
N962 N 0.88097 1.01139 0.02595 0.0
N963 N 0.89435 0.89605 0.97679 0.0
H964 H 0.14529 0.04799 0.44084 0.0
H965 H 0.12407 0.81616 0.55541 0.0
H966 H 0.12328 0.81938 0.44423 0.0
H967 H 0.14464 0.05092 0.55554 0.0
H968 H 0.12599 0.81044 0.51448 0.0
H969 H 0.14735 0.04497 0.4823 0.0
C970 C 0.14103 0.99671 0.45026 0.0
C971 C 0.13402 0.93417 0.43909 0.0
C972 C 0.13018 0.86316 0.52333 0.0
C973 C 0.1363 0.93036 0.48639 0.0
C974 C 0.1291 0.86634 0.54679 0.0
C975 C 0.1341 0.93445 0.55892 0.0
C976 C 0.13625 0.92897 0.51164 0.0
C977 C 0.14061 0.99734 0.54682 0.0
C978 C 0.14217 0.99515 0.47391 0.0
C979 C 0.12869 0.86926 0.45212 0.0
N980 N 0.14139 0.99357 0.5238 0.0
N981 N 0.12989 0.86934 0.47496 0.0
H982 H 0.87443 1.01289 0.55784 0.0
H983 H 0.89983 0.22421 0.44295 0.0
H984 H 0.89982 0.22536 0.55421 0.0
H985 H 0.87437 1.01176 0.44277 0.0
H986 H 0.89853 0.22899 0.48395 0.0
H987 H 0.87297 1.0139 0.51626 0.0
C988 C 0.87962 0.05995 0.54833 0.0
C989 C 0.88733 0.11878 0.55952 0.0
C990 C 0.89315 0.18135 0.47508 0.0
C991 C 0.88571 0.1204 0.51207 0.0
C992 C 0.89388 0.1787 0.45158 0.0
C993 C 0.88726 0.11718 0.43938 0.0
C994 C 0.8858 0.12163 0.48679 0.0
C995 C 0.87964 0.06019 0.45153 0.0
C996 C 0.8788 0.06047 0.52461 0.0
C997 C 0.89383 0.17841 0.54636 0.0
N998 N 0.87919 0.06332 0.47459 0.0
N999 N 0.89291 0.17745 0.52348 0.0
H1000 H 0.62281 0.75083 0.05466 0.0
H1001 H 0.6437 0.5134 0.94066 0.0
H1002 H 0.64333 0.51498 0.05568 0.0
H1003 H 0.62089 0.7395 0.94378 0.0
H1004 H 0.64576 0.51713 0.98216 0.0
H1005 H 0.62433 0.75316 0.01367 0.0
C1006 C 0.62774 0.69967 0.04622 0.0
C1007 C 0.63285 0.6323 0.05862 0.0
C1008 C 0.64038 0.56609 0.97369 0.0
C1009 C 0.63452 0.6338 0.01128 0.0
C1010 C 0.63922 0.56406 0.95004 0.0
C1011 C 0.63202 0.62588 0.93878 0.0
C1012 C 0.63435 0.63075 0.98605 0.0
C1013 C 0.62643 0.69012 0.95173 0.0
C1014 C 0.62859 0.70088 0.02273 0.0
C1015 C 0.63923 0.56807 0.04674 0.0
N1016 N 0.62769 0.69066 0.97454 0.0
N1017 N 0.63978 0.56992 0.02368 0.0
H1018 H 0.37137 0.483 0.9416 0.0
H1019 H 0.41236 0.48303 0.05597 0.0
H1020 H 0.41219 0.48302 0.94688 0.0
H1021 H 0.37146 0.48413 0.05908 0.0
H1022 H 0.41141 0.4825 0.01538 0.0
H1023 H 0.37004 0.48305 0.9835 0.0
C1024 C 0.38001 0.483 0.95148 0.0
C1025 C 0.39192 0.48303 0.94066 0.0
C1026 C 0.40255 0.48292 0.02465 0.0
C1027 C 0.39049 0.48305 0.98826 0.0
C1028 C 0.40309 0.48325 0.04807 0.0
C1029 C 0.39199 0.48371 0.06112 0.0
C1030 C 0.39076 0.48315 0.01361 0.0
C1031 C 0.38028 0.48381 0.04966 0.0
C1032 C 0.37925 0.48304 0.97535 0.0
C1033 C 0.40278 0.48305 0.95428 0.0
N1034 N 0.37995 0.48358 0.02648 0.0
N1035 N 0.40178 0.48305 0.97708 0.0
H1036 H 0.64236 0.55903 0.44061 0.0
H1037 H 0.61712 0.34155 0.55472 0.0
H1038 H 0.61612 0.35098 0.4436 0.0
H1039 H 0.64158 0.5592 0.55566 0.0
H1040 H 0.61816 0.3403 0.51373 0.0
H1041 H 0.64363 0.55703 0.48219 0.0
C1042 C 0.63693 0.51277 0.44999 0.0
C1043 C 0.62905 0.4554 0.43864 0.0
C1044 C 0.62336 0.38846 0.52275 0.0
C1045 C 0.63048 0.45261 0.48604 0.0
C1046 C 0.62277 0.38915 0.54626 0.0
C1047 C 0.62919 0.45096 0.55867 0.0
C1048 C 0.63042 0.45025 0.51128 0.0
C1049 C 0.63644 0.51057 0.54672 0.0
C1050 C 0.63764 0.51173 0.47369 0.0
C1051 C 0.62225 0.39673 0.4516 0.0
N1052 N 0.63681 0.50908 0.52365 0.0
N1053 N 0.62311 0.39703 0.47448 0.0
H1054 H 0.37565 0.51104 0.55771 0.0
H1055 H 0.40355 0.71786 0.44393 0.0
H1056 H 0.40308 0.71222 0.55563 0.0
H1057 H 0.37651 0.51426 0.44281 0.0
H1058 H 0.40254 0.7188 0.48502 0.0
H1059 H 0.37486 0.51306 0.51611 0.0
C1060 C 0.38146 0.55583 0.54853 0.0
C1061 C 0.3895 0.61126 0.5602 0.0
C1062 C 0.39678 0.67383 0.47592 0.0
C1063 C 0.38866 0.61394 0.51265 0.0
C1064 C 0.39736 0.67329 0.45236 0.0
C1065 C 0.39016 0.61558 0.43984 0.0
C1066 C 0.38896 0.61607 0.48735 0.0
C1067 C 0.38226 0.55969 0.45178 0.0
C1068 C 0.38102 0.55689 0.52479 0.0
C1069 C 0.39679 0.66802 0.54742 0.0
N1070 N 0.3819 0.56105 0.47486 0.0
N1071 N 0.39622 0.66768 0.52448 0.0
H1072 H 0.97404 0.16485 0.15378 0.0
H1073 H 0.04021 0.92879 0.12837 0.0
H1074 H 0.9768 0.91112 0.12777 0.0
H1075 H 0.03779 0.18523 0.15253 0.0
H1076 H 0.01707 0.92132 0.12845 0.0
H1077 H 0.99724 0.17319 0.15396 0.0
C1078 C 0.97947 0.11068 0.14815 0.0
C1079 C 0.97329 1.03708 0.14073 0.0
C1080 C 0.02158 0.97928 0.13376 0.0
C1081 C 1.00009 0.04664 0.14079 0.0
C1082 C 0.03486 0.98384 0.13362 0.0
C1083 C 0.04113 0.058 0.14035 0.0
C1084 C 0.01433 0.04929 0.1407 0.0
C1085 C 0.0335 0.12632 0.14742 0.0
C1086 C 0.99277 0.11572 0.14817 0.0
C1087 C 0.981 0.96971 0.13334 0.0
N1088 N 0.02058 0.12037 0.14735 0.0
N1089 N 0.99391 0.97608 0.13361 0.0
H1090 H 0.97761 0.12286 0.32486 0.0
H1091 H 0.03947 0.98641 0.39526 0.0
H1092 H 0.97607 1.0077 0.39092 0.0
H1093 H 0.04099 0.06836 0.32582 0.0
H1094 H 0.01637 1.00066 0.3945 0.0
H1095 H 1.00073 0.10966 0.32543 0.0
C1096 C 0.98206 0.09451 0.33949 0.0
C1097 C 0.97467 0.06621 0.35786 0.0
C1098 C 0.02173 1.01555 0.3794 0.0
C1099 C 1.00144 0.05197 0.35868 0.0
C1100 C 0.03498 1.00789 0.37985 0.0
C1101 C 0.04232 1.02656 0.3606 0.0
C1102 C 0.01561 0.04263 0.3596 0.0
C1103 C 0.0358 0.05255 0.34104 0.0
C1104 C 0.99533 0.08737 0.33981 0.0
C1105 C 0.98121 1.03171 0.37646 0.0
N1106 N 0.02289 0.06013 0.34108 0.0
N1107 N 0.99413 1.02559 0.37636 0.0
H1108 H 0.04288 0.99451 0.89333 0.0
H1109 H 0.97696 0.13607 0.83631 0.0
H1110 H 0.04033 0.13497 0.83107 0.0
H1111 H 0.97906 0.9532 0.89031 0.0
H1112 H 1.00007 0.145 0.83628 0.0
H1113 H 0.01959 0.98798 0.8947 0.0
C1114 C 0.03746 1.02429 0.87999 0.0
C1115 C 0.04369 0.06494 0.86198 0.0
C1116 C 0.99548 0.10294 0.84817 0.0
C1117 C 0.01689 0.05782 0.86349 0.0
C1118 C 0.98221 0.09735 0.84814 0.0
C1119 C 0.97583 0.04317 0.86322 0.0
C1120 C 1.00264 0.05458 0.86349 0.0
C1121 C 0.98338 0.99664 0.87849 0.0
C1122 C 0.02414 1.02015 0.88073 0.0
C1123 C 0.03605 0.10175 0.84512 0.0
N1124 N 0.9963 1.00332 0.8782 0.0
N1125 N 0.02314 0.0975 0.84633 0.0
H1126 H 0.97629 1.01958 0.60123 0.0
H1127 H 0.04048 1.02938 0.67456 0.0
H1128 H 0.97682 0.05004 0.67362 0.0
H1129 H 0.03983 1.00527 0.60201 0.0
H1130 H 0.01724 1.03343 0.67471 0.0
H1131 H 0.99948 1.01206 0.60132 0.0
C1132 C 0.98123 1.02497 0.61717 0.0
C1133 C 0.97443 1.03552 0.63745 0.0
C1134 C 0.02218 1.02728 0.65875 0.0
C1135 C 1.00122 1.02615 0.63767 0.0
C1136 C 0.0355 1.02448 0.65865 0.0
C1137 C 0.04227 1.01726 0.63823 0.0
C1138 C 0.01546 1.02255 0.63829 0.0
C1139 C 0.03515 1.01233 0.61818 0.0
C1140 C 0.99453 1.02022 0.61721 0.0
C1141 C 0.98152 0.04063 0.65756 0.0
N1142 N 0.02221 1.01502 0.61873 0.0
N1143 N 0.99445 1.03609 0.65714 0.0
H1144 H 0.47711 0.49479 0.18286 0.0
H1145 H 0.53864 0.57083 0.10512 0.0
H1146 H 0.47523 0.54608 0.11137 0.0
H1147 H 0.54052 0.52742 0.17697 0.0
H1148 H 0.51553 0.56075 0.10708 0.0
H1149 H 0.50021 0.50643 0.18103 0.0
C1150 C 0.4815 0.50914 0.16677 0.0
C1151 C 0.47404 0.51977 0.14725 0.0
C1152 C 0.52097 0.5534 0.12244 0.0
C1153 C 0.50078 0.53209 0.14502 0.0
C1154 C 0.53424 0.55863 0.12133 0.0
C1155 C 0.54169 0.54954 0.1409 0.0
C1156 C 0.51495 0.53878 0.14328 0.0
C1157 C 0.53527 0.53566 0.16144 0.0
C1158 C 0.49476 0.51525 0.16573 0.0
C1159 C 0.48047 0.5364 0.12685 0.0
N1160 N 0.52234 0.53048 0.16206 0.0
N1161 N 0.49339 0.54209 0.1263 0.0
H1162 H 0.47835 0.68742 0.36419 0.0
H1163 H 0.54008 0.38806 0.36822 0.0
H1164 H 0.47661 0.41594 0.36939 0.0
H1165 H 0.54193 0.65991 0.36495 0.0
H1166 H 0.51693 0.39745 0.36962 0.0
H1167 H 0.50152 0.67893 0.36545 0.0
C1168 C 0.48278 0.62596 0.36582 0.0
C1169 C 0.47534 0.5523 0.36665 0.0
C1170 C 0.52239 0.45513 0.36866 0.0
C1171 C 0.50214 0.54212 0.36776 0.0
C1172 C 0.53568 0.44991 0.36802 0.0
C1173 C 0.54314 0.52328 0.36646 0.0
C1174 C 0.51635 0.53436 0.36774 0.0
C1175 C 0.5367 0.60135 0.36583 0.0
C1176 C 0.49608 0.62118 0.36637 0.0
C1177 C 0.48182 0.47457 0.36834 0.0
N1178 N 0.52376 0.60474 0.36644 0.0
N1179 N 0.49476 0.47161 0.3688 0.0
H1180 H 0.47626 0.64637 0.86829 0.0
H1181 H 0.54343 0.40761 0.85537 0.0
H1182 H 0.47978 0.38099 0.85313 0.0
H1183 H 0.53972 0.6717 0.87193 0.0
H1184 H 0.52026 0.39629 0.85469 0.0
H1185 H 0.49941 0.65633 0.86987 0.0
C1186 C 0.48185 0.59009 0.8652 0.0
C1187 C 0.47589 0.51266 0.86051 0.0
C1188 C 0.52451 0.45671 0.85854 0.0
C1189 C 0.50267 0.52371 0.86251 0.0
C1190 C 0.53779 0.46341 0.85882 0.0
C1191 C 0.5437 0.54083 0.86372 0.0
C1192 C 0.51692 0.52796 0.86309 0.0
C1193 C 0.53573 0.61031 0.86837 0.0
C1194 C 0.49513 0.59581 0.86624 0.0
C1195 C 0.48381 0.44192 0.85707 0.0
N1196 N 0.52284 0.60227 0.86787 0.0
N1197 N 0.49671 0.44922 0.85806 0.0
H1198 H 0.47807 0.68656 0.64462 0.0
H1199 H 0.54012 0.40508 0.61972 0.0
H1200 H 0.47688 0.43226 0.61868 0.0
H1201 H 0.54184 0.66401 0.64204 0.0
H1202 H 0.51701 0.41562 0.61853 0.0
H1203 H 0.50129 0.68145 0.64293 0.0
C1204 C 0.48262 0.62986 0.63837 0.0
C1205 C 0.47534 0.55957 0.63192 0.0
C1206 C 0.52243 0.47034 0.62361 0.0
C1207 C 0.50214 0.55294 0.63026 0.0
C1208 C 0.5357 0.4646 0.62414 0.0
C1209 C 0.54311 0.53377 0.63096 0.0
C1210 C 0.51635 0.54583 0.62997 0.0
C1211 C 0.53663 0.60848 0.63694 0.0
C1212 C 0.49594 0.62682 0.63757 0.0
C1213 C 0.48196 0.48761 0.62427 0.0
N1214 N 0.52369 0.61242 0.63634 0.0
N1215 N 0.4949 0.48616 0.62374 0.0
H1216 H 0.11724 0.82523 0.14188 0.0
H1217 H 0.15488 0.39583 0.11441 0.0
H1218 H 0.15428 0.81669 0.1107 0.0
H1219 H 0.11727 0.40079 0.14344 0.0
H1220 H 0.15497 0.54976 0.1141 0.0
H1221 H 0.11722 0.67084 0.14356 0.0
C1222 C 0.12538 0.79113 0.13539 0.0
C1223 C 0.13578 0.83467 0.12609 0.0
C1224 C 0.14669 0.51737 0.12059 0.0
C1225 C 0.1358 0.65689 0.12803 0.0
C1226 C 0.14663 0.42907 0.12082 0.0
C1227 C 0.13603 0.38454 0.12895 0.0
C1228 C 0.13609 0.56243 0.12855 0.0
C1229 C 0.12566 0.43196 0.13701 0.0
C1230 C 0.12535 0.70272 0.13637 0.0
C1231 C 0.14604 0.78639 0.11798 0.0
N1232 N 0.12595 0.51808 0.13657 0.0
N1233 N 0.14578 0.70049 0.11914 0.0
H1234 H 0.8989 0.26435 0.14479 0.0
H1235 H 0.86284 0.69339 0.1106 0.0
H1236 H 0.86526 0.2719 0.10343 0.0
H1237 H 0.89698 0.68722 0.1507 0.0
H1238 H 0.86338 0.53938 0.10844 0.0
H1239 H 0.89831 0.41843 0.14734 0.0
C1240 C 0.89141 0.29824 0.13613 0.0
C1241 C 0.88212 0.25449 0.12383 0.0
C1242 C 0.87074 0.57156 0.11778 0.0
C1243 C 0.88134 0.43203 0.12685 0.0
C1244 C 0.87042 0.65981 0.1191 0.0
C1245 C 0.87987 0.70398 0.13089 0.0
C1246 C 0.88059 0.52632 0.12831 0.0
C1247 C 0.88946 0.65631 0.14146 0.0
C1248 C 0.89106 0.38649 0.13766 0.0
C1249 C 0.87264 0.30247 0.11306 0.0
N1250 N 0.88958 0.57039 0.13988 0.0
N1251 N 0.87249 0.3883 0.11486 0.0
H1252 H 0.11831 0.25534 0.35702 0.0
H1253 H 0.15631 0.68302 0.38271 0.0
H1254 H 0.15572 0.2621 0.38648 0.0
H1255 H 0.11839 0.67963 0.35529 0.0
H1256 H 0.15638 0.52908 0.38312 0.0
H1257 H 0.11828 0.40971 0.35537 0.0
C1258 C 0.12653 0.28905 0.36315 0.0
C1259 C 0.13704 0.24501 0.37194 0.0
C1260 C 0.14804 0.56182 0.37696 0.0
C1261 C 0.13705 0.42278 0.37004 0.0
C1262 C 0.14798 0.65013 0.37667 0.0
C1263 C 0.13731 0.69512 0.36896 0.0
C1264 C 0.13734 0.51722 0.36948 0.0
C1265 C 0.12684 0.64812 0.36139 0.0
C1266 C 0.1265 0.37746 0.36219 0.0
C1267 C 0.14739 0.2928 0.37959 0.0
N1268 N 0.12712 0.562 0.36187 0.0
N1269 N 0.14713 0.37872 0.37846 0.0
H1270 H 0.89946 0.37237 0.35417 0.0
H1271 H 0.86218 0.79295 0.3923 0.0
H1272 H 0.86336 0.37139 0.38876 0.0
H1273 H 0.8977 0.79643 0.35588 0.0
H1274 H 0.86252 0.63855 0.39112 0.0
H1275 H 0.89905 0.52717 0.35451 0.0
C1276 C 0.89143 0.4044 0.36179 0.0
C1277 C 0.88144 0.35805 0.37145 0.0
C1278 C 0.87024 0.67304 0.38336 0.0
C1279 C 0.88093 0.53609 0.37196 0.0
C1280 C 0.87005 0.76149 0.38404 0.0
C1281 C 0.87992 0.80843 0.37419 0.0
C1282 C 0.88038 0.63052 0.37279 0.0
C1283 C 0.88986 0.76341 0.36372 0.0
C1284 C 0.89121 0.493 0.36199 0.0
C1285 C 0.87131 0.40376 0.38109 0.0
N1286 N 0.88984 0.67736 0.36333 0.0
N1287 N 0.87133 0.48974 0.38112 0.0
H1288 H 0.8662 0.26699 0.89724 0.0
H1289 H 0.89989 0.68827 0.85134 0.0
H1290 H 0.90124 0.26597 0.85938 0.0
H1291 H 0.86482 0.68856 0.8891 0.0
H1292 H 0.90046 0.53409 0.85378 0.0
H1293 H 0.86562 0.42099 0.89458 0.0
C1294 C 0.87383 0.29899 0.88846 0.0
C1295 C 0.88381 0.25285 0.87856 0.0
C1296 C 0.89261 0.56779 0.86148 0.0
C1297 C 0.88313 0.43033 0.87529 0.0
C1298 C 0.89225 0.65608 0.86003 0.0
C1299 C 0.88228 0.70205 0.87 0.0
C1300 C 0.88294 0.5245 0.87302 0.0
C1301 C 0.8727 0.65624 0.8811 0.0
C1302 C 0.87346 0.3872 0.88689 0.0
C1303 C 0.89337 0.29846 0.86735 0.0
N1304 N 0.87328 0.57036 0.88234 0.0
N1305 N 0.89278 0.38434 0.86599 0.0
H1306 H 0.11983 0.4062 0.84815 0.0
H1307 H 0.15277 0.82631 0.89629 0.0
H1308 H 0.15426 0.40497 0.88744 0.0
H1309 H 0.11857 0.82887 0.85635 0.0
H1310 H 0.15336 0.67225 0.89343 0.0
H1311 H 0.11927 0.56052 0.85067 0.0
C1312 C 0.12733 0.43819 0.85717 0.0
C1313 C 0.13712 0.39189 0.86755 0.0
C1314 C 0.1457 0.70641 0.88533 0.0
C1315 C 0.13646 0.56954 0.8707 0.0
C1316 C 0.14533 0.79465 0.88702 0.0
C1317 C 0.13559 0.84126 0.8766 0.0
C1318 C 0.13627 0.66373 0.87309 0.0
C1319 C 0.12626 0.79606 0.86474 0.0
C1320 C 0.12697 0.52654 0.85868 0.0
C1321 C 0.14653 0.43748 0.87911 0.0
N1322 N 0.12684 0.7102 0.86329 0.0
N1323 N 0.14594 0.52333 0.8804 0.0
H1324 H 0.86517 0.80736 0.60252 0.0
H1325 H 0.89823 0.38449 0.64958 0.0
H1326 H 0.89949 0.80699 0.64211 0.0
H1327 H 0.86368 0.38566 0.61059 0.0
H1328 H 0.89879 0.53868 0.64724 0.0
H1329 H 0.86458 0.65332 0.60507 0.0
C1330 C 0.87263 0.77505 0.61166 0.0
C1331 C 0.88241 0.82081 0.62208 0.0
C1332 C 0.89106 0.5053 0.63925 0.0
C1333 C 0.88173 0.64327 0.62521 0.0
C1334 C 0.8907 0.417 0.64063 0.0
C1335 C 0.88088 0.37142 0.6303 0.0
C1336 C 0.88153 0.54904 0.6274 0.0
C1337 C 0.87144 0.41766 0.61888 0.0
C1338 C 0.87226 0.68681 0.61317 0.0
C1339 C 0.89178 0.7748 0.63375 0.0
N1340 N 0.87202 0.50355 0.6177 0.0
N1341 N 0.89119 0.68892 0.63501 0.0
H1342 H 0.15623 0.26573 0.61036 0.0
H1343 H 0.11827 0.68852 0.64389 0.0
H1344 H 0.11887 0.26421 0.64037 0.0
H1345 H 0.15592 0.68661 0.615 0.0
H1346 H 0.11833 0.53383 0.64328 0.0
H1347 H 0.15624 0.41976 0.61225 0.0
C1348 C 0.14801 0.29757 0.61735 0.0
C1349 C 0.13752 0.25124 0.62519 0.0
C1350 C 0.12659 0.56729 0.63713 0.0
C1351 C 0.13748 0.42898 0.62743 0.0
C1352 C 0.12658 0.65585 0.63751 0.0
C1353 C 0.13711 0.70134 0.62948 0.0
C1354 C 0.13719 0.52338 0.62863 0.0
C1355 C 0.14757 0.65485 0.62139 0.0
C1356 C 0.14803 0.38586 0.61844 0.0
C1357 C 0.12717 0.29679 0.63409 0.0
N1358 N 0.14732 0.56889 0.62113 0.0
N1359 N 0.12741 0.38282 0.63494 0.0
H1360 H 0.65567 0.88124 0.11426 0.0
H1361 H 0.61772 0.31026 0.14085 0.0
H1362 H 0.61788 0.88598 0.14249 0.0
H1363 H 0.65512 0.30226 0.11104 0.0
H1364 H 0.61771 0.15586 0.14241 0.0
H1365 H 0.65575 1.0352 0.11396 0.0
C1366 C 0.64738 0.91443 0.12049 0.0
C1367 C 0.63674 0.86983 0.1284 0.0
C1368 C 0.62592 0.18786 0.13554 0.0
C1369 C 0.63677 0.04772 0.12802 0.0
C1370 C 0.62595 0.27628 0.13463 0.0
C1371 C 0.63644 0.31998 0.12576 0.0
C1372 C 0.63647 0.14218 0.12755 0.0
C1373 C 0.6468 0.27184 0.11799 0.0
C1374 C 0.64743 1.00274 0.12027 0.0
C1375 C 0.6263 0.91719 0.13624 0.0
N1376 N 0.64654 0.18592 0.11907 0.0
N1377 N 0.62658 1.00329 0.13581 0.0
H1378 H 0.36361 0.76652 0.10669 0.0
H1379 H 0.39925 0.18991 0.14591 0.0
H1380 H 0.39885 0.76662 0.14372 0.0
H1381 H 0.36347 0.18911 0.11056 0.0
H1382 H 0.39932 1.03535 0.14518 0.0
H1383 H 0.36351 0.92099 0.10767 0.0
C1384 C 0.37135 0.79874 0.115 0.0
C1385 C 0.38126 0.75271 0.12512 0.0
C1386 C 0.39144 0.06899 0.13761 0.0
C1387 C 0.38118 0.93077 0.12634 0.0
C1388 C 0.39139 0.15754 0.13804 0.0
C1389 C 0.38134 0.2034 0.1283 0.0
C1390 C 0.38139 1.02529 0.12733 0.0
C1391 C 0.37144 0.15711 0.11832 0.0
C1392 C 0.37127 0.88724 0.11558 0.0
C1393 C 0.39099 0.79879 0.13566 0.0
N1394 N 0.37173 0.07108 0.11808 0.0
N1395 N 0.3907 0.88484 0.13598 0.0
H1396 H 0.6545 0.19062 0.3873 0.0
H1397 H 0.61835 0.76307 0.3538 0.0
H1398 H 0.61955 0.18655 0.34946 0.0
H1399 H 0.6522 0.76931 0.39462 0.0
H1400 H 0.61883 0.91723 0.35136 0.0
H1401 H 0.65412 1.03655 0.38908 0.0
C1402 C 0.64676 0.1575 0.37922 0.0
C1403 C 0.63704 0.2023 0.36818 0.0
C1404 C 0.62614 0.88498 0.36089 0.0
C1405 C 0.63652 1.02451 0.37031 0.0
C1406 C 0.62587 0.79668 0.36233 0.0
C1407 C 0.63524 0.75256 0.37448 0.0
C1408 C 0.63588 0.93016 0.3716 0.0
C1409 C 0.64475 0.80018 0.38511 0.0
C1410 C 0.64654 0.0692 0.38032 0.0
C1411 C 0.62728 0.15517 0.35812 0.0
N1412 N 0.64483 0.88604 0.38339 0.0
N1413 N 0.62726 0.06917 0.35946 0.0
H1414 H 0.36428 0.87849 0.38875 0.0
H1415 H 0.39979 0.30728 0.35375 0.0
H1416 H 0.39908 0.88371 0.35021 0.0
H1417 H 0.36655 0.29981 0.39637 0.0
H1418 H 0.39939 0.15315 0.3514 0.0
H1419 H 0.36456 1.03254 0.39047 0.0
C1420 C 0.37196 0.91185 0.38051 0.0
C1421 C 0.38168 0.86738 0.36929 0.0
C1422 C 0.39219 0.18511 0.3613 0.0
C1423 C 0.38207 0.04518 0.37134 0.0
C1424 C 0.39241 0.27339 0.36269 0.0
C1425 C 0.38319 0.31716 0.37532 0.0
C1426 C 0.38265 0.13955 0.37255 0.0
C1427 C 0.37388 0.2692 0.38647 0.0
C1428 C 0.37213 1.00015 0.38158 0.0
C1429 C 0.39137 0.91484 0.35903 0.0
N1430 N 0.37384 0.18333 0.38479 0.0
N1431 N 0.39132 1.00085 0.36032 0.0
H1432 H 0.36445 0.76617 0.89381 0.0
H1433 H 0.40058 0.19008 0.85585 0.0
H1434 H 0.3999 0.7665 0.85716 0.0
H1435 H 0.36444 0.18877 0.89028 0.0
H1436 H 0.40058 1.03548 0.85632 0.0
H1437 H 0.3644 0.92064 0.89296 0.0
C1438 C 0.37224 0.79845 0.8856 0.0
C1439 C 0.38219 0.75247 0.87555 0.0
C1440 C 0.39264 0.06902 0.86375 0.0
C1441 C 0.38219 0.93059 0.87451 0.0
C1442 C 0.39262 0.15759 0.86348 0.0
C1443 C 0.38249 0.20334 0.87303 0.0
C1444 C 0.38246 1.02516 0.87369 0.0
C1445 C 0.37247 0.15689 0.88268 0.0
C1446 C 0.3722 0.88696 0.8851 0.0
C1447 C 0.392 0.79863 0.86515 0.0
N1448 N 0.37273 0.07084 0.88278 0.0
N1449 N 0.39175 0.88471 0.86492 0.0
H1450 H 0.61791 0.31498 0.85741 0.0
H1451 H 0.65578 0.88704 0.88633 0.0
H1452 H 0.65341 0.30844 0.89357 0.0
H1453 H 0.62011 0.8923 0.85069 0.0
H1454 H 0.65518 0.04113 0.88863 0.0
H1455 H 0.61851 0.1608 0.85477 0.0
C1456 C 0.62581 0.2813 0.86492 0.0
C1457 C 0.63561 0.32534 0.87579 0.0
C1458 C 0.6475 1.0087 0.88024 0.0
C1459 C 0.63641 0.14784 0.87263 0.0
C1460 C 0.64785 0.92044 0.87884 0.0
C1461 C 0.63798 0.87602 0.86825 0.0
C1462 C 0.6372 0.05361 0.87103 0.0
C1463 C 0.62795 0.9234 0.85897 0.0
C1464 C 0.62616 0.19303 0.86333 0.0
C1465 C 0.64561 0.27766 0.88508 0.0
N1466 N 0.62781 1.00928 0.86061 0.0
N1467 N 0.64575 0.19188 0.88326 0.0
H1468 H 0.40068 0.87731 0.64787 0.0
H1469 H 0.36552 0.29753 0.60397 0.0
H1470 H 0.36497 0.87585 0.61233 0.0
H1471 H 0.39859 0.30091 0.6468 0.0
H1472 H 0.36561 0.14301 0.6057 0.0
H1473 H 0.40047 1.03196 0.64673 0.0
C1474 C 0.39277 0.90928 0.63988 0.0
C1475 C 0.38282 0.86292 0.63021 0.0
C1476 C 0.37284 0.17752 0.61473 0.0
C1477 C 0.38257 0.04074 0.62869 0.0
C1478 C 0.37282 0.26594 0.61371 0.0
C1479 C 0.38205 0.31273 0.62526 0.0
C1480 C 0.38222 0.13505 0.6273 0.0
C1481 C 0.39125 0.26782 0.63763 0.0
C1482 C 0.39266 0.99779 0.63923 0.0
C1483 C 0.37285 0.90843 0.62008 0.0
N1484 N 0.39111 0.18183 0.63828 0.0
N1485 N 0.373 0.9944 0.61952 0.0
H1486 H 0.61742 0.7624 0.64203 0.0
H1487 H 0.65415 0.18955 0.60918 0.0
H1488 H 0.65161 0.76792 0.60183 0.0
H1489 H 0.6195 0.18515 0.6481 0.0
H1490 H 0.65357 1.03544 0.60695 0.0
H1491 H 0.61807 0.91652 0.64462 0.0
C1492 C 0.62504 0.79585 0.63363 0.0
C1493 C 0.63446 0.75151 0.62164 0.0
C1494 C 0.6461 0.06806 0.61604 0.0
C1495 C 0.63531 0.92907 0.62472 0.0
C1496 C 0.64645 0.15634 0.6174 0.0
C1497 C 0.63686 0.20103 0.62888 0.0
C1498 C 0.6361 1.02336 0.62622 0.0
C1499 C 0.62712 0.15386 0.6391 0.0
C1500 C 0.62542 0.88412 0.63518 0.0
C1501 C 0.64411 0.79894 0.61122 0.0
N1502 N 0.62698 0.06796 0.63749 0.0
N1503 N 0.64429 0.88475 0.61303 0.0
loop_
_geom_bond_atom_site_label_1
_geom_bond_atom_site_label_2
_geom_bond_distance
_geom_bond_site_symmetry_2
_ccdc_geom_bond_type
Nd0 C2 2.836 . S
Nd0 O20 2.500 . S
Nd0 O21 2.492 . S
Nd0 O22 2.487 . S
Nd0 O23 2.682 . S
Nd0 O24 2.410 1_545 S
Nd0 O29 2.414 . S
Nd0 O31 2.424 . S
Nd1 C11 2.836 . S
Nd1 O23 2.414 . S
Nd1 O25 2.424 1_545 S
Nd1 O26 2.500 . S
Nd1 O27 2.492 . S
Nd1 O28 2.487 . S
Nd1 O29 2.682 . S
Nd1 O30 2.410 . S
C2 Nd0 2.836 . S
C2 C3 1.498 1_545 S
C2 O20 1.258 . S
C2 O21 1.239 . S
C3 C2 1.498 1_565 S
C3 C4 1.366 . S
C3 C8 1.407 . S
C4 C3 1.366 . S
C4 C5 1.392 . S
C4 H32 0.930 . S
C5 C4 1.392 . S
C5 C6 1.398 . S
C5 H33 0.929 . S
C6 C5 1.398 . S
C6 C7 1.352 . S
C7 C6 1.352 . S
C7 C8 1.384 . S
C7 H34 0.930 . S
C8 C3 1.407 . S
C8 C7 1.384 . S
C8 H35 0.929 1_565 S
C9 O22 1.241 . S
C9 O23 1.273 . S
C10 O24 1.251 . S
C10 O25 1.268 . S
C11 Nd1 2.836 . S
C11 C12 1.498 . S
C11 O26 1.258 . S
C11 O27 1.239 . S
C12 C11 1.498 . S
C12 C13 1.366 . S
C12 C17 1.407 . S
C13 C12 1.366 . S
C13 C14 1.392 . S
C13 H36 0.930 . S
C14 C13 1.392 . S
C14 C15 1.398 . S
C14 H37 0.929 . S
C15 C14 1.398 . S
C15 C16 1.352 . S
C16 C15 1.352 . S
C16 C17 1.384 . S
C16 H38 0.930 . S
C17 C12 1.407 . S
C17 C16 1.384 . S
C17 H39 0.929 . S
C18 O28 1.241 . S
C18 O29 1.273 . S
C19 O30 1.251 . S
C19 O31 1.268 . S
O20 Nd0 2.500 . S
O20 C2 1.258 . S
O21 Nd0 2.492 . S
O21 C2 1.239 . S
O22 Nd0 2.487 . S
O22 C9 1.241 . S
O23 Nd0 2.682 . S
O23 Nd1 2.414 . S
O23 C9 1.273 . S
O24 Nd0 2.410 1_565 S
O24 C10 1.251 . S
O25 Nd1 2.424 1_565 S
O25 C10 1.268 . S
O26 Nd1 2.500 . S
O26 C11 1.258 . S
O27 Nd1 2.492 . S
O27 C11 1.239 . S
O28 Nd1 2.487 . S
O28 C18 1.241 . S
O29 Nd0 2.414 . S
O29 Nd1 2.682 . S
O29 C18 1.273 . S
O30 Nd1 2.410 . S
O30 C19 1.251 . S
O31 Nd0 2.424 . S
O31 C19 1.268 . S
H32 C4 0.930 . S
H33 C5 0.929 . S
H34 C7 0.930 . S
H35 C8 0.929 1_545 S
H36 C13 0.930 . S
H37 C14 0.929 . S
H38 C16 0.930 . S
H39 C17 0.929 . S
Nd40 C42 2.836 . S
Nd40 O60 2.500 . S
Nd40 O61 2.492 . S
Nd40 O62 2.487 . S
Nd40 O63 2.682 . S
Nd40 O64 2.410 1_565 S
Nd40 O69 2.414 . S
Nd40 O71 2.424 . S
Nd41 C51 2.836 . S
Nd41 O63 2.414 . S
Nd41 O65 2.424 1_565 S
Nd41 O66 2.500 . S
Nd41 O67 2.492 . S
Nd41 O68 2.487 . S
Nd41 O69 2.682 . S
Nd41 O70 2.410 . S
C42 Nd40 2.836 . S
C42 C43 1.498 1_565 S
C42 O60 1.258 . S
C42 O61 1.239 . S
C43 C42 1.498 1_545 S
C43 C44 1.366 . S
C43 C48 1.407 . S
C44 C43 1.366 . S
C44 C45 1.392 . S
C44 H72 0.930 . S
C45 C44 1.392 . S
C45 C46 1.398 . S
C45 H73 0.929 . S
C46 C45 1.398 . S
C46 C47 1.352 . S
C47 C46 1.352 . S
C47 C48 1.384 . S
C47 H74 0.930 . S
C48 C43 1.407 . S
C48 C47 1.384 . S
C48 H75 0.929 1_545 S
C49 O62 1.241 . S
C49 O63 1.273 . S
C50 O64 1.251 . S
C50 O65 1.268 . S
C51 Nd41 2.836 . S
C51 C52 1.498 . S
C51 O66 1.258 . S
C51 O67 1.239 . S
C52 C51 1.498 . S
C52 C53 1.366 . S
C52 C57 1.407 . S
C53 C52 1.366 . S
C53 C54 1.392 . S
C53 H76 0.930 . S
C54 C53 1.392 . S
C54 C55 1.398 . S
C54 H77 0.929 . S
C55 C54 1.398 . S
C55 C56 1.352 . S
C56 C55 1.352 . S
C56 C57 1.384 . S
C56 H78 0.930 . S
C57 C52 1.407 . S
C57 C56 1.384 . S
C57 H79 0.929 . S
C58 O68 1.241 . S
C58 O69 1.273 . S
C59 O70 1.251 . S
C59 O71 1.268 . S
O60 Nd40 2.500 . S
O60 C42 1.258 . S
O61 Nd40 2.492 . S
O61 C42 1.239 . S
O62 Nd40 2.487 . S
O62 C49 1.241 . S
O63 Nd40 2.682 . S
O63 Nd41 2.414 . S
O63 C49 1.273 . S
O64 Nd40 2.410 1_545 S
O64 C50 1.251 . S
O65 Nd41 2.424 1_545 S
O65 C50 1.268 . S
O66 Nd41 2.500 . S
O66 C51 1.258 . S
O67 Nd41 2.492 . S
O67 C51 1.239 . S
O68 Nd41 2.487 . S
O68 C58 1.241 . S
O69 Nd40 2.414 . S
O69 Nd41 2.682 . S
O69 C58 1.273 . S
O70 Nd41 2.410 . S
O70 C59 1.251 . S
O71 Nd40 2.424 . S
O71 C59 1.268 . S
H72 C44 0.930 . S
H73 C45 0.929 . S
H74 C47 0.930 . S
H75 C48 0.929 1_565 S
H76 C53 0.930 . S
H77 C54 0.929 . S
H78 C56 0.930 . S
H79 C57 0.929 . S
Nd80 C82 2.836 . S
Nd80 O100 2.500 . S
Nd80 O101 2.492 . S
Nd80 O102 2.487 . S
Nd80 O103 2.682 . S
Nd80 O104 2.410 1_565 S
Nd80 O109 2.414 . S
Nd80 O111 2.424 . S
Nd81 C91 2.836 . S
Nd81 O103 2.414 . S
Nd81 O105 2.424 1_565 S
Nd81 O106 2.500 . S
Nd81 O107 2.492 . S
Nd81 O108 2.487 . S
Nd81 O109 2.682 . S
Nd81 O110 2.410 . S
C82 Nd80 2.836 . S
C82 C83 1.498 1_565 S
C82 O100 1.258 . S
C82 O101 1.239 . S
C83 C82 1.498 1_545 S
C83 C84 1.366 . S
C83 C88 1.407 . S
C84 C83 1.366 . S
C84 C85 1.392 . S
C84 H112 0.930 . S
C85 C84 1.392 . S
C85 C86 1.398 . S
C85 H113 0.929 . S
C86 C85 1.398 . S
C86 C87 1.352 . S
C87 C86 1.352 . S
C87 C88 1.384 . S
C87 H114 0.930 . S
C88 C83 1.407 . S
C88 C87 1.384 . S
C88 H115 0.929 1_545 S
C89 O102 1.241 . S
C89 O103 1.273 . S
C90 O104 1.251 . S
C90 O105 1.268 . S
C91 Nd81 2.836 . S
C91 C92 1.498 . S
C91 O106 1.258 . S
C91 O107 1.239 . S
C92 C91 1.498 . S
C92 C93 1.366 . S
C92 C97 1.407 . S
C93 C92 1.366 . S
C93 C94 1.392 . S
C93 H116 0.930 . S
C94 C93 1.392 . S
C94 C95 1.398 . S
C94 H117 0.929 . S
C95 C94 1.398 . S
C95 C96 1.352 . S
C96 C95 1.352 . S
C96 C97 1.384 . S
C96 H118 0.930 . S
C97 C92 1.407 . S
C97 C96 1.384 . S
C97 H119 0.929 . S
C98 O108 1.241 . S
C98 O109 1.273 . S
C99 O110 1.251 . S
C99 O111 1.268 . S
O100 Nd80 2.500 . S
O100 C82 1.258 . S
O101 Nd80 2.492 . S
O101 C82 1.239 . S
O102 Nd80 2.487 . S
O102 C89 1.241 . S
O103 Nd80 2.682 . S
O103 Nd81 2.414 . S
O103 C89 1.273 . S
O104 Nd80 2.410 1_545 S
O104 C90 1.251 . S
O105 Nd81 2.424 1_545 S
O105 C90 1.268 . S
O106 Nd81 2.500 . S
O106 C91 1.258 . S
O107 Nd81 2.492 . S
O107 C91 1.239 . S
O108 Nd81 2.487 . S
O108 C98 1.241 . S
O109 Nd80 2.414 . S
O109 Nd81 2.682 . S
O109 C98 1.273 . S
O110 Nd81 2.410 . S
O110 C99 1.251 . S
O111 Nd80 2.424 . S
O111 C99 1.268 . S
H112 C84 0.930 . S
H113 C85 0.929 . S
H114 C87 0.930 . S
H115 C88 0.929 1_565 S
H116 C93 0.930 . S
H117 C94 0.929 . S
H118 C96 0.930 . S
H119 C97 0.929 . S
Nd120 C122 2.836 . S
Nd120 O140 2.500 . S
Nd120 O141 2.492 . S
Nd120 O142 2.487 . S
Nd120 O143 2.682 . S
Nd120 O144 2.410 1_545 S
Nd120 O149 2.414 . S
Nd120 O151 2.424 . S
Nd121 C131 2.836 . S
Nd121 O143 2.414 . S
Nd121 O145 2.424 1_545 S
Nd121 O146 2.500 . S
Nd121 O147 2.492 . S
Nd121 O148 2.487 . S
Nd121 O149 2.682 . S
Nd121 O150 2.410 . S
C122 Nd120 2.836 . S
C122 C123 1.498 1_545 S
C122 O140 1.258 . S
C122 O141 1.239 . S
C123 C122 1.498 1_565 S
C123 C124 1.366 . S
C123 C128 1.407 . S
C124 C123 1.366 . S
C124 C125 1.392 . S
C124 H152 0.930 . S
C125 C124 1.392 . S
C125 C126 1.398 . S
C125 H153 0.929 . S
C126 C125 1.398 . S
C126 C127 1.352 . S
C127 C126 1.352 . S
C127 C128 1.384 . S
C127 H154 0.930 . S
C128 C123 1.407 . S
C128 C127 1.384 . S
C128 H155 0.929 1_565 S
C129 O142 1.241 . S
C129 O143 1.273 . S
C130 O144 1.251 . S
C130 O145 1.268 . S
C131 Nd121 2.836 . S
C131 C132 1.498 . S
C131 O146 1.258 . S
C131 O147 1.239 . S
C132 C131 1.498 . S
C132 C133 1.366 . S
C132 C137 1.407 . S
C133 C132 1.366 . S
C133 C134 1.392 . S
C133 H156 0.930 . S
C134 C133 1.392 . S
C134 C135 1.398 . S
C134 H157 0.929 . S
C135 C134 1.398 . S
C135 C136 1.352 . S
C136 C135 1.352 . S
C136 C137 1.384 . S
C136 H158 0.930 . S
C137 C132 1.407 . S
C137 C136 1.384 . S
C137 H159 0.929 . S
C138 O148 1.241 . S
C138 O149 1.273 . S
C139 O150 1.251 . S
C139 O151 1.268 . S
O140 Nd120 2.500 . S
O140 C122 1.258 . S
O141 Nd120 2.492 . S
O141 C122 1.239 . S
O142 Nd120 2.487 . S
O142 C129 1.241 . S
O143 Nd120 2.682 . S
O143 Nd121 2.414 . S
O143 C129 1.273 . S
O144 Nd120 2.410 1_565 S
O144 C130 1.251 . S
O145 Nd121 2.424 1_565 S
O145 C130 1.268 . S
O146 Nd121 2.500 . S
O146 C131 1.258 . S
O147 Nd121 2.492 . S
O147 C131 1.239 . S
O148 Nd121 2.487 . S
O148 C138 1.241 . S
O149 Nd120 2.414 . S
O149 Nd121 2.682 . S
O149 C138 1.273 . S
O150 Nd121 2.410 . S
O150 C139 1.251 . S
O151 Nd120 2.424 . S
O151 C139 1.268 . S
H152 C124 0.930 . S
H153 C125 0.929 . S
H154 C127 0.930 . S
H155 C128 0.929 1_545 S
H156 C133 0.930 . S
H157 C134 0.929 . S
H158 C136 0.930 . S
H159 C137 0.929 . S
Nd160 C162 2.836 . S
Nd160 O180 2.500 . S
Nd160 O181 2.492 . S
Nd160 O182 2.487 . S
Nd160 O183 2.682 . S
Nd160 O184 2.410 . S
Nd160 O189 2.414 . S
Nd160 O191 2.424 1_565 S
Nd161 C171 2.836 . S
Nd161 O183 2.414 . S
Nd161 O185 2.424 . S
Nd161 O186 2.500 . S
Nd161 O187 2.492 . S
Nd161 O188 2.487 . S
Nd161 O189 2.682 . S
Nd161 O190 2.410 1_565 S
C162 Nd160 2.836 . S
C162 C163 1.498 . S
C162 O180 1.258 . S
C162 O181 1.239 . S
C163 C162 1.498 . S
C163 C164 1.366 . S
C163 C168 1.407 . S
C164 C163 1.366 . S
C164 C165 1.392 . S
C164 H192 0.930 . S
C165 C164 1.392 . S
C165 C166 1.398 . S
C165 H193 0.929 . S
C166 C165 1.398 . S
C166 C167 1.352 . S
C167 C166 1.352 . S
C167 C168 1.384 . S
C167 H194 0.930 . S
C168 C163 1.407 . S
C168 C167 1.384 . S
C168 H195 0.929 . S
C169 O182 1.241 . S
C169 O183 1.273 . S
C170 O184 1.251 . S
C170 O185 1.268 . S
C171 Nd161 2.836 . S
C171 C172 1.498 1_565 S
C171 O186 1.258 . S
C171 O187 1.239 . S
C172 C171 1.498 1_545 S
C172 C173 1.366 . S
C172 C177 1.407 . S
C173 C172 1.366 . S
C173 C174 1.392 . S
C173 H196 0.930 . S
C174 C173 1.392 . S
C174 C175 1.398 . S
C174 H197 0.929 . S
C175 C174 1.398 . S
C175 C176 1.352 . S
C176 C175 1.352 . S
C176 C177 1.384 . S
C176 H198 0.930 . S
C177 C172 1.407 . S
C177 C176 1.384 . S
C177 H199 0.929 1_545 S
C178 O188 1.241 . S
C178 O189 1.273 . S
C179 O190 1.251 . S
C179 O191 1.268 . S
O180 Nd160 2.500 . S
O180 C162 1.258 . S
O181 Nd160 2.492 . S
O181 C162 1.239 . S
O182 Nd160 2.487 . S
O182 C169 1.241 . S
O183 Nd160 2.682 . S
O183 Nd161 2.414 . S
O183 C169 1.273 . S
O184 Nd160 2.410 . S
O184 C170 1.251 . S
O185 Nd161 2.424 . S
O185 C170 1.268 . S
O186 Nd161 2.500 . S
O186 C171 1.258 . S
O187 Nd161 2.492 . S
O187 C171 1.239 . S
O188 Nd161 2.487 . S
O188 C178 1.241 . S
O189 Nd160 2.414 . S
O189 Nd161 2.682 . S
O189 C178 1.273 . S
O190 Nd161 2.410 1_545 S
O190 C179 1.251 . S
O191 Nd160 2.424 1_545 S
O191 C179 1.268 . S
H192 C164 0.930 . S
H193 C165 0.929 . S
H194 C167 0.930 . S
H195 C168 0.929 . S
H196 C173 0.930 . S
H197 C174 0.929 . S
H198 C176 0.930 . S
H199 C177 0.929 1_565 S
Nd200 C202 2.836 . S
Nd200 O220 2.500 . S
Nd200 O221 2.492 . S
Nd200 O222 2.487 . S
Nd200 O223 2.682 . S
Nd200 O224 2.410 . S
Nd200 O229 2.414 . S
Nd200 O231 2.424 1_545 S
Nd201 C211 2.836 . S
Nd201 O223 2.414 . S
Nd201 O225 2.424 . S
Nd201 O226 2.500 . S
Nd201 O227 2.492 . S
Nd201 O228 2.487 . S
Nd201 O229 2.682 . S
Nd201 O230 2.410 1_545 S
C202 Nd200 2.836 . S
C202 C203 1.498 . S
C202 O220 1.258 . S
C202 O221 1.239 . S
C203 C202 1.498 . S
C203 C204 1.366 . S
C203 C208 1.407 . S
C204 C203 1.366 . S
C204 C205 1.392 . S
C204 H232 0.930 . S
C205 C204 1.392 . S
C205 C206 1.398 . S
C205 H233 0.929 . S
C206 C205 1.398 . S
C206 C207 1.352 . S
C207 C206 1.352 . S
C207 C208 1.384 . S
C207 H234 0.930 . S
C208 C203 1.407 . S
C208 C207 1.384 . S
C208 H235 0.929 . S
C209 O222 1.241 . S
C209 O223 1.273 . S
C210 O224 1.251 . S
C210 O225 1.268 . S
C211 Nd201 2.836 . S
C211 C212 1.498 1_545 S
C211 O226 1.258 . S
C211 O227 1.239 . S
C212 C211 1.498 1_565 S
C212 C213 1.366 . S
C212 C217 1.407 . S
C213 C212 1.366 . S
C213 C214 1.392 . S
C213 H236 0.930 . S
C214 C213 1.392 . S
C214 C215 1.398 . S
C214 H237 0.929 . S
C215 C214 1.398 . S
C215 C216 1.352 . S
C216 C215 1.352 . S
C216 C217 1.384 . S
C216 H238 0.930 . S
C217 C212 1.407 . S
C217 C216 1.384 . S
C217 H239 0.929 1_565 S
C218 O228 1.241 . S
C218 O229 1.273 . S
C219 O230 1.251 . S
C219 O231 1.268 . S
O220 Nd200 2.500 . S
O220 C202 1.258 . S
O221 Nd200 2.492 . S
O221 C202 1.239 . S
O222 Nd200 2.487 . S
O222 C209 1.241 . S
O223 Nd200 2.682 . S
O223 Nd201 2.414 . S
O223 C209 1.273 . S
O224 Nd200 2.410 . S
O224 C210 1.251 . S
O225 Nd201 2.424 . S
O225 C210 1.268 . S
O226 Nd201 2.500 . S
O226 C211 1.258 . S
O227 Nd201 2.492 . S
O227 C211 1.239 . S
O228 Nd201 2.487 . S
O228 C218 1.241 . S
O229 Nd200 2.414 . S
O229 Nd201 2.682 . S
O229 C218 1.273 . S
O230 Nd201 2.410 1_565 S
O230 C219 1.251 . S
O231 Nd200 2.424 1_565 S
O231 C219 1.268 . S
H232 C204 0.930 . S
H233 C205 0.929 . S
H234 C207 0.930 . S
H235 C208 0.929 . S
H236 C213 0.930 . S
H237 C214 0.929 . S
H238 C216 0.930 . S
H239 C217 0.929 1_545 S
Nd240 C242 2.836 . S
Nd240 O260 2.500 . S
Nd240 O261 2.492 . S
Nd240 O262 2.487 . S
Nd240 O263 2.682 . S
Nd240 O264 2.410 . S
Nd240 O269 2.414 . S
Nd240 O271 2.424 1_545 S
Nd241 C251 2.836 . S
Nd241 O263 2.414 . S
Nd241 O265 2.424 . S
Nd241 O266 2.500 . S
Nd241 O267 2.492 . S
Nd241 O268 2.487 . S
Nd241 O269 2.682 . S
Nd241 O270 2.410 1_545 S
C242 Nd240 2.836 . S
C242 C243 1.498 . S
C242 O260 1.258 . S
C242 O261 1.239 . S
C243 C242 1.498 . S
C243 C244 1.366 . S
C243 C248 1.407 . S
C244 C243 1.366 . S
C244 C245 1.392 . S
C244 H272 0.930 . S
C245 C244 1.392 . S
C245 C246 1.398 . S
C245 H273 0.929 . S
C246 C245 1.398 . S
C246 C247 1.352 . S
C247 C246 1.352 . S
C247 C248 1.384 . S
C247 H274 0.930 . S
C248 C243 1.407 . S
C248 C247 1.384 . S
C248 H275 0.929 . S
C249 O262 1.241 . S
C249 O263 1.273 . S
C250 O264 1.251 . S
C250 O265 1.268 . S
C251 Nd241 2.836 . S
C251 C252 1.498 1_545 S
C251 O266 1.258 . S
C251 O267 1.239 . S
C252 C251 1.498 1_565 S
C252 C253 1.366 . S
C252 C257 1.407 . S
C253 C252 1.366 . S
C253 C254 1.392 . S
C253 H276 0.930 . S
C254 C253 1.392 . S
C254 C255 1.398 . S
C254 H277 0.929 . S
C255 C254 1.398 . S
C255 C256 1.352 . S
C256 C255 1.352 . S
C256 C257 1.384 . S
C256 H278 0.930 . S
C257 C252 1.407 . S
C257 C256 1.384 . S
C257 H279 0.929 1_565 S
C258 O268 1.241 . S
C258 O269 1.273 . S
C259 O270 1.251 . S
C259 O271 1.268 . S
O260 Nd240 2.500 . S
O260 C242 1.258 . S
O261 Nd240 2.492 . S
O261 C242 1.239 . S
O262 Nd240 2.487 . S
O262 C249 1.241 . S
O263 Nd240 2.682 . S
O263 Nd241 2.414 . S
O263 C249 1.273 . S
O264 Nd240 2.410 . S
O264 C250 1.251 . S
O265 Nd241 2.424 . S
O265 C250 1.268 . S
O266 Nd241 2.500 . S
O266 C251 1.258 . S
O267 Nd241 2.492 . S
O267 C251 1.239 . S
O268 Nd241 2.487 . S
O268 C258 1.241 . S
O269 Nd240 2.414 . S
O269 Nd241 2.682 . S
O269 C258 1.273 . S
O270 Nd241 2.410 1_565 S
O270 C259 1.251 . S
O271 Nd240 2.424 1_565 S
O271 C259 1.268 . S
H272 C244 0.930 . S
H273 C245 0.929 . S
H274 C247 0.930 . S
H275 C248 0.929 . S
H276 C253 0.930 . S
H277 C254 0.929 . S
H278 C256 0.930 . S
H279 C257 0.929 1_545 S
Nd280 C282 2.836 . S
Nd280 O300 2.500 . S
Nd280 O301 2.492 . S
Nd280 O302 2.487 . S
Nd280 O303 2.682 . S
Nd280 O304 2.410 . S
Nd280 O309 2.414 . S
Nd280 O311 2.424 1_565 S
Nd281 C291 2.836 . S
Nd281 O303 2.414 . S
Nd281 O305 2.424 . S
Nd281 O306 2.500 . S
Nd281 O307 2.492 . S
Nd281 O308 2.487 . S
Nd281 O309 2.682 . S
Nd281 O310 2.410 1_565 S
C282 Nd280 2.836 . S
C282 C283 1.498 . S
C282 O300 1.258 . S
C282 O301 1.239 . S
C283 C282 1.498 . S
C283 C284 1.366 . S
C283 C288 1.407 . S
C284 C283 1.366 . S
C284 C285 1.392 . S
C284 H312 0.930 . S
C285 C284 1.392 . S
C285 C286 1.398 . S
C285 H313 0.929 . S
C286 C285 1.398 . S
C286 C287 1.352 . S
C287 C286 1.352 . S
C287 C288 1.384 . S
C287 H314 0.930 . S
C288 C283 1.407 . S
C288 C287 1.384 . S
C288 H315 0.929 . S
C289 O302 1.241 . S
C289 O303 1.273 . S
C290 O304 1.251 . S
C290 O305 1.268 . S
C291 Nd281 2.836 . S
C291 C292 1.498 1_565 S
C291 O306 1.258 . S
C291 O307 1.239 . S
C292 C291 1.498 1_545 S
C292 C293 1.366 . S
C292 C297 1.407 . S
C293 C292 1.366 . S
C293 C294 1.392 . S
C293 H316 0.930 . S
C294 C293 1.392 . S
C294 C295 1.398 . S
C294 H317 0.929 . S
C295 C294 1.398 . S
C295 C296 1.352 . S
C296 C295 1.352 . S
C296 C297 1.384 . S
C296 H318 0.930 . S
C297 C292 1.407 . S
C297 C296 1.384 . S
C297 H319 0.929 1_545 S
C298 O308 1.241 . S
C298 O309 1.273 . S
C299 O310 1.251 . S
C299 O311 1.268 . S
O300 Nd280 2.500 . S
O300 C282 1.258 . S
O301 Nd280 2.492 . S
O301 C282 1.239 . S
O302 Nd280 2.487 . S
O302 C289 1.241 . S
O303 Nd280 2.682 . S
O303 Nd281 2.414 . S
O303 C289 1.273 . S
O304 Nd280 2.410 . S
O304 C290 1.251 . S
O305 Nd281 2.424 . S
O305 C290 1.268 . S
O306 Nd281 2.500 . S
O306 C291 1.258 . S
O307 Nd281 2.492 . S
O307 C291 1.239 . S
O308 Nd281 2.487 . S
O308 C298 1.241 . S
O309 Nd280 2.414 . S
O309 Nd281 2.682 . S
O309 C298 1.273 . S
O310 Nd281 2.410 1_545 S
O310 C299 1.251 . S
O311 Nd280 2.424 1_545 S
O311 C299 1.268 . S
H312 C284 0.930 . S
H313 C285 0.929 . S
H314 C287 0.930 . S
H315 C288 0.929 . S
H316 C293 0.930 . S
H317 C294 0.929 . S
H318 C296 0.930 . S
H319 C297 0.929 1_565 S
Nd320 C322 2.836 . S
Nd320 O340 2.500 . S
Nd320 O341 2.492 . S
Nd320 O342 2.487 . S
Nd320 O343 2.682 . S
Nd320 O344 2.410 . S
Nd320 O349 2.414 . S
Nd320 O351 2.424 . S
Nd321 C331 2.836 . S
Nd321 O343 2.414 . S
Nd321 O345 2.424 . S
Nd321 O346 2.500 . S
Nd321 O347 2.492 . S
Nd321 O348 2.487 . S
Nd321 O349 2.682 . S
Nd321 O350 2.410 . S
C322 Nd320 2.836 . S
C322 C323 1.498 . S
C322 O340 1.258 . S
C322 O341 1.239 . S
C323 C322 1.498 . S
C323 C324 1.366 . S
C323 C328 1.407 . S
C324 C323 1.366 . S
C324 C325 1.392 . S
C324 H352 0.930 . S
C325 C324 1.392 . S
C325 C326 1.398 . S
C325 H353 0.929 . S
C326 C325 1.398 . S
C326 C327 1.352 . S
C327 C326 1.352 . S
C327 C328 1.384 . S
C327 H354 0.930 . S
C328 C323 1.407 . S
C328 C327 1.384 . S
C328 H355 0.929 . S
C329 O342 1.241 . S
C329 O343 1.273 . S
C330 O344 1.251 . S
C330 O345 1.268 . S
C331 Nd321 2.836 . S
C331 C332 1.498 . S
C331 O346 1.258 . S
C331 O347 1.239 . S
C332 C331 1.498 . S
C332 C333 1.366 . S
C332 C337 1.407 . S
C333 C332 1.366 . S
C333 C334 1.392 . S
C333 H356 0.930 . S
C334 C333 1.392 . S
C334 C335 1.398 . S
C334 H357 0.929 . S
C335 C334 1.398 . S
C335 C336 1.352 . S
C336 C335 1.352 . S
C336 C337 1.384 . S
C336 H358 0.930 . S
C337 C332 1.407 . S
C337 C336 1.384 . S
C337 H359 0.929 . S
C338 O348 1.241 . S
C338 O349 1.273 . S
C339 O350 1.251 . S
C339 O351 1.268 . S
O340 Nd320 2.500 . S
O340 C322 1.258 . S
O341 Nd320 2.492 . S
O341 C322 1.239 . S
O342 Nd320 2.487 . S
O342 C329 1.241 . S
O343 Nd320 2.682 . S
O343 Nd321 2.414 . S
O343 C329 1.273 . S
O344 Nd320 2.410 . S
O344 C330 1.251 . S
O345 Nd321 2.424 . S
O345 C330 1.268 . S
O346 Nd321 2.500 . S
O346 C331 1.258 . S
O347 Nd321 2.492 . S
O347 C331 1.239 . S
O348 Nd321 2.487 . S
O348 C338 1.241 . S
O349 Nd320 2.414 . S
O349 Nd321 2.682 . S
O349 C338 1.273 . S
O350 Nd321 2.410 . S
O350 C339 1.251 . S
O351 Nd320 2.424 . S
O351 C339 1.268 . S
H352 C324 0.930 . S
H353 C325 0.929 . S
H354 C327 0.930 . S
H355 C328 0.929 . S
H356 C333 0.930 . S
H357 C334 0.929 . S
H358 C336 0.930 . S
H359 C337 0.929 . S
Nd360 C362 2.836 . S
Nd360 O380 2.500 . S
Nd360 O381 2.492 . S
Nd360 O382 2.487 . S
Nd360 O383 2.682 . S
Nd360 O384 2.410 . S
Nd360 O389 2.414 . S
Nd360 O391 2.424 . S
Nd361 C371 2.836 . S
Nd361 O383 2.414 . S
Nd361 O385 2.424 . S
Nd361 O386 2.500 . S
Nd361 O387 2.492 . S
Nd361 O388 2.487 . S
Nd361 O389 2.682 . S
Nd361 O390 2.410 . S
C362 Nd360 2.836 . S
C362 C363 1.498 . S
C362 O380 1.258 . S
C362 O381 1.239 . S
C363 C362 1.498 . S
C363 C364 1.366 . S
C363 C368 1.407 . S
C364 C363 1.366 . S
C364 C365 1.392 . S
C364 H392 0.930 . S
C365 C364 1.392 . S
C365 C366 1.398 . S
C365 H393 0.929 . S
C366 C365 1.398 . S
C366 C367 1.352 . S
C367 C366 1.352 . S
C367 C368 1.384 . S
C367 H394 0.930 . S
C368 C363 1.407 . S
C368 C367 1.384 . S
C368 H395 0.929 . S
C369 O382 1.241 . S
C369 O383 1.273 . S
C370 O384 1.251 . S
C370 O385 1.268 . S
C371 Nd361 2.836 . S
C371 C372 1.498 . S
C371 O386 1.258 . S
C371 O387 1.239 . S
C372 C371 1.498 . S
C372 C373 1.366 . S
C372 C377 1.407 . S
C373 C372 1.366 . S
C373 C374 1.392 . S
C373 H396 0.930 . S
C374 C373 1.392 . S
C374 C375 1.398 . S
C374 H397 0.929 . S
C375 C374 1.398 . S
C375 C376 1.352 . S
C376 C375 1.352 . S
C376 C377 1.384 . S
C376 H398 0.930 . S
C377 C372 1.407 . S
C377 C376 1.384 . S
C377 H399 0.929 . S
C378 O388 1.241 . S
C378 O389 1.273 . S
C379 O390 1.251 . S
C379 O391 1.268 . S
O380 Nd360 2.500 . S
O380 C362 1.258 . S
O381 Nd360 2.492 . S
O381 C362 1.239 . S
O382 Nd360 2.487 . S
O382 C369 1.241 . S
O383 Nd360 2.682 . S
O383 Nd361 2.414 . S
O383 C369 1.273 . S
O384 Nd360 2.410 . S
O384 C370 1.251 . S
O385 Nd361 2.424 . S
O385 C370 1.268 . S
O386 Nd361 2.500 . S
O386 C371 1.258 . S
O387 Nd361 2.492 . S
O387 C371 1.239 . S
O388 Nd361 2.487 . S
O388 C378 1.241 . S
O389 Nd360 2.414 . S
O389 Nd361 2.682 . S
O389 C378 1.273 . S
O390 Nd361 2.410 . S
O390 C379 1.251 . S
O391 Nd360 2.424 . S
O391 C379 1.268 . S
H392 C364 0.930 . S
H393 C365 0.929 . S
H394 C367 0.930 . S
H395 C368 0.929 . S
H396 C373 0.930 . S
H397 C374 0.929 . S
H398 C376 0.930 . S
H399 C377 0.929 . S
Nd400 C402 2.836 . S
Nd400 O420 2.500 . S
Nd400 O421 2.492 . S
Nd400 O422 2.487 . S
Nd400 O423 2.682 . S
Nd400 O424 2.410 . S
Nd400 O429 2.414 . S
Nd400 O431 2.424 . S
Nd401 C411 2.836 . S
Nd401 O423 2.414 . S
Nd401 O425 2.424 . S
Nd401 O426 2.500 . S
Nd401 O427 2.492 . S
Nd401 O428 2.487 . S
Nd401 O429 2.682 . S
Nd401 O430 2.410 . S
C402 Nd400 2.836 . S
C402 C403 1.498 . S
C402 O420 1.258 . S
C402 O421 1.239 . S
C403 C402 1.498 . S
C403 C404 1.366 . S
C403 C408 1.407 . S
C404 C403 1.366 . S
C404 C405 1.392 . S
C404 H432 0.930 . S
C405 C404 1.392 . S
C405 C406 1.398 . S
C405 H433 0.929 . S
C406 C405 1.398 . S
C406 C407 1.352 . S
C407 C406 1.352 . S
C407 C408 1.384 . S
C407 H434 0.930 . S
C408 C403 1.407 . S
C408 C407 1.384 . S
C408 H435 0.929 . S
C409 O422 1.241 . S
C409 O423 1.273 . S
C410 O424 1.251 . S
C410 O425 1.268 . S
C411 Nd401 2.836 . S
C411 C412 1.498 . S
C411 O426 1.258 . S
C411 O427 1.239 . S
C412 C411 1.498 . S
C412 C413 1.366 . S
C412 C417 1.407 . S
C413 C412 1.366 . S
C413 C414 1.392 . S
C413 H436 0.930 . S
C414 C413 1.392 . S
C414 C415 1.398 . S
C414 H437 0.929 . S
C415 C414 1.398 . S
C415 C416 1.352 . S
C416 C415 1.352 . S
C416 C417 1.384 . S
C416 H438 0.930 . S
C417 C412 1.407 . S
C417 C416 1.384 . S
C417 H439 0.929 . S
C418 O428 1.241 . S
C418 O429 1.273 . S
C419 O430 1.251 . S
C419 O431 1.268 . S
O420 Nd400 2.500 . S
O420 C402 1.258 . S
O421 Nd400 2.492 . S
O421 C402 1.239 . S
O422 Nd400 2.487 . S
O422 C409 1.241 . S
O423 Nd400 2.682 . S
O423 Nd401 2.414 . S
O423 C409 1.273 . S
O424 Nd400 2.410 . S
O424 C410 1.251 . S
O425 Nd401 2.424 . S
O425 C410 1.268 . S
O426 Nd401 2.500 . S
O426 C411 1.258 . S
O427 Nd401 2.492 . S
O427 C411 1.239 . S
O428 Nd401 2.487 . S
O428 C418 1.241 . S
O429 Nd400 2.414 . S
O429 Nd401 2.682 . S
O429 C418 1.273 . S
O430 Nd401 2.410 . S
O430 C419 1.251 . S
O431 Nd400 2.424 . S
O431 C419 1.268 . S
H432 C404 0.930 . S
H433 C405 0.929 . S
H434 C407 0.930 . S
H435 C408 0.929 . S
H436 C413 0.930 . S
H437 C414 0.929 . S
H438 C416 0.930 . S
H439 C417 0.929 . S
Nd440 C442 2.836 . S
Nd440 O460 2.500 . S
Nd440 O461 2.492 . S
Nd440 O462 2.487 . S
Nd440 O463 2.682 . S
Nd440 O464 2.410 . S
Nd440 O469 2.414 . S
Nd440 O471 2.424 . S
Nd441 C451 2.836 . S
Nd441 O463 2.414 . S
Nd441 O465 2.424 . S
Nd441 O466 2.500 . S
Nd441 O467 2.492 . S
Nd441 O468 2.487 . S
Nd441 O469 2.682 . S
Nd441 O470 2.410 . S
C442 Nd440 2.836 . S
C442 C443 1.498 . S
C442 O460 1.258 . S
C442 O461 1.239 . S
C443 C442 1.498 . S
C443 C444 1.366 . S
C443 C448 1.407 . S
C444 C443 1.366 . S
C444 C445 1.392 . S
C444 H472 0.930 . S
C445 C444 1.392 . S
C445 C446 1.398 . S
C445 H473 0.929 . S
C446 C445 1.398 . S
C446 C447 1.352 . S
C447 C446 1.352 . S
C447 C448 1.384 . S
C447 H474 0.930 . S
C448 C443 1.407 . S
C448 C447 1.384 . S
C448 H475 0.929 . S
C449 O462 1.241 . S
C449 O463 1.273 . S
C450 O464 1.251 . S
C450 O465 1.268 . S
C451 Nd441 2.836 . S
C451 C452 1.498 . S
C451 O466 1.258 . S
C451 O467 1.239 . S
C452 C451 1.498 . S
C452 C453 1.366 . S
C452 C457 1.407 . S
C453 C452 1.366 . S
C453 C454 1.392 . S
C453 H476 0.930 . S
C454 C453 1.392 . S
C454 C455 1.398 . S
C454 H477 0.929 . S
C455 C454 1.398 . S
C455 C456 1.352 . S
C456 C455 1.352 . S
C456 C457 1.384 . S
C456 H478 0.930 . S
C457 C452 1.407 . S
C457 C456 1.384 . S
C457 H479 0.929 . S
C458 O468 1.241 . S
C458 O469 1.273 . S
C459 O470 1.251 . S
C459 O471 1.268 . S
O460 Nd440 2.500 . S
O460 C442 1.258 . S
O461 Nd440 2.492 . S
O461 C442 1.239 . S
O462 Nd440 2.487 . S
O462 C449 1.241 . S
O463 Nd440 2.682 . S
O463 Nd441 2.414 . S
O463 C449 1.273 . S
O464 Nd440 2.410 . S
O464 C450 1.251 . S
O465 Nd441 2.424 . S
O465 C450 1.268 . S
O466 Nd441 2.500 . S
O466 C451 1.258 . S
O467 Nd441 2.492 . S
O467 C451 1.239 . S
O468 Nd441 2.487 . S
O468 C458 1.241 . S
O469 Nd440 2.414 . S
O469 Nd441 2.682 . S
O469 C458 1.273 . S
O470 Nd441 2.410 . S
O470 C459 1.251 . S
O471 Nd440 2.424 . S
O471 C459 1.268 . S
H472 C444 0.930 . S
H473 C445 0.929 . S
H474 C447 0.930 . S
H475 C448 0.929 . S
H476 C453 0.930 . S
H477 C454 0.929 . S
H478 C456 0.930 . S
H479 C457 0.929 . S
Nd480 C482 2.836 . S
Nd480 O500 2.500 . S
Nd480 O501 2.492 . S
Nd480 O502 2.487 . S
Nd480 O503 2.682 . S
Nd480 O504 2.410 . S
Nd480 O509 2.414 . S
Nd480 O511 2.424 . S
Nd481 C491 2.836 . S
Nd481 O503 2.414 . S
Nd481 O505 2.424 . S
Nd481 O506 2.500 . S
Nd481 O507 2.492 . S
Nd481 O508 2.487 . S
Nd481 O509 2.682 . S
Nd481 O510 2.410 . S
C482 Nd480 2.836 . S
C482 C483 1.498 . S
C482 O500 1.258 . S
C482 O501 1.239 . S
C483 C482 1.498 . S
C483 C484 1.366 . S
C483 C488 1.407 . S
C484 C483 1.366 . S
C484 C485 1.392 . S
C484 H512 0.930 . S
C485 C484 1.392 . S
C485 C486 1.398 . S
C485 H513 0.929 . S
C486 C485 1.398 . S
C486 C487 1.352 . S
C487 C486 1.352 . S
C487 C488 1.384 . S
C487 H514 0.930 . S
C488 C483 1.407 . S
C488 C487 1.384 . S
C488 H515 0.929 . S
C489 O502 1.241 . S
C489 O503 1.273 . S
C490 O504 1.251 . S
C490 O505 1.268 . S
C491 Nd481 2.836 . S
C491 C492 1.498 . S
C491 O506 1.258 . S
C491 O507 1.239 . S
C492 C491 1.498 . S
C492 C493 1.366 . S
C492 C497 1.407 . S
C493 C492 1.366 . S
C493 C494 1.392 . S
C493 H516 0.930 . S
C494 C493 1.392 . S
C494 C495 1.398 . S
C494 H517 0.929 . S
C495 C494 1.398 . S
C495 C496 1.352 . S
C496 C495 1.352 . S
C496 C497 1.384 . S
C496 H518 0.930 . S
C497 C492 1.407 . S
C497 C496 1.384 . S
C497 H519 0.929 . S
C498 O508 1.241 . S
C498 O509 1.273 . S
C499 O510 1.251 . S
C499 O511 1.268 . S
O500 Nd480 2.500 . S
O500 C482 1.258 . S
O501 Nd480 2.492 . S
O501 C482 1.239 . S
O502 Nd480 2.487 . S
O502 C489 1.241 . S
O503 Nd480 2.682 . S
O503 Nd481 2.414 . S
O503 C489 1.273 . S
O504 Nd480 2.410 . S
O504 C490 1.251 . S
O505 Nd481 2.424 . S
O505 C490 1.268 . S
O506 Nd481 2.500 . S
O506 C491 1.258 . S
O507 Nd481 2.492 . S
O507 C491 1.239 . S
O508 Nd481 2.487 . S
O508 C498 1.241 . S
O509 Nd480 2.414 . S
O509 Nd481 2.682 . S
O509 C498 1.273 . S
O510 Nd481 2.410 . S
O510 C499 1.251 . S
O511 Nd480 2.424 . S
O511 C499 1.268 . S
H512 C484 0.930 . S
H513 C485 0.929 . S
H514 C487 0.930 . S
H515 C488 0.929 . S
H516 C493 0.930 . S
H517 C494 0.929 . S
H518 C496 0.930 . S
H519 C497 0.929 . S
Nd520 C522 2.836 . S
Nd520 O540 2.500 . S
Nd520 O541 2.492 . S
Nd520 O542 2.487 . S
Nd520 O543 2.682 . S
Nd520 O544 2.410 . S
Nd520 O549 2.414 . S
Nd520 O551 2.424 . S
Nd521 C531 2.836 . S
Nd521 O543 2.414 . S
Nd521 O545 2.424 . S
Nd521 O546 2.500 . S
Nd521 O547 2.492 . S
Nd521 O548 2.487 . S
Nd521 O549 2.682 . S
Nd521 O550 2.410 . S
C522 Nd520 2.836 . S
C522 C523 1.498 . S
C522 O540 1.258 . S
C522 O541 1.239 . S
C523 C522 1.498 . S
C523 C524 1.366 . S
C523 C528 1.407 . S
C524 C523 1.366 . S
C524 C525 1.392 . S
C524 H552 0.930 . S
C525 C524 1.392 . S
C525 C526 1.398 . S
C525 H553 0.929 . S
C526 C525 1.398 . S
C526 C527 1.352 . S
C527 C526 1.352 . S
C527 C528 1.384 . S
C527 H554 0.930 . S
C528 C523 1.407 . S
C528 C527 1.384 . S
C528 H555 0.929 . S
C529 O542 1.241 . S
C529 O543 1.273 . S
C530 O544 1.251 . S
C530 O545 1.268 . S
C531 Nd521 2.836 . S
C531 C532 1.498 . S
C531 O546 1.258 . S
C531 O547 1.239 . S
C532 C531 1.498 . S
C532 C533 1.366 . S
C532 C537 1.407 . S
C533 C532 1.366 . S
C533 C534 1.392 . S
C533 H556 0.930 . S
C534 C533 1.392 . S
C534 C535 1.398 . S
C534 H557 0.929 . S
C535 C534 1.398 . S
C535 C536 1.352 . S
C536 C535 1.352 . S
C536 C537 1.384 . S
C536 H558 0.930 . S
C537 C532 1.407 . S
C537 C536 1.384 . S
C537 H559 0.929 . S
C538 O548 1.241 . S
C538 O549 1.273 . S
C539 O550 1.251 . S
C539 O551 1.268 . S
O540 Nd520 2.500 . S
O540 C522 1.258 . S
O541 Nd520 2.492 . S
O541 C522 1.239 . S
O542 Nd520 2.487 . S
O542 C529 1.241 . S
O543 Nd520 2.682 . S
O543 Nd521 2.414 . S
O543 C529 1.273 . S
O544 Nd520 2.410 . S
O544 C530 1.251 . S
O545 Nd521 2.424 . S
O545 C530 1.268 . S
O546 Nd521 2.500 . S
O546 C531 1.258 . S
O547 Nd521 2.492 . S
O547 C531 1.239 . S
O548 Nd521 2.487 . S
O548 C538 1.241 . S
O549 Nd520 2.414 . S
O549 Nd521 2.682 . S
O549 C538 1.273 . S
O550 Nd521 2.410 . S
O550 C539 1.251 . S
O551 Nd520 2.424 . S
O551 C539 1.268 . S
H552 C524 0.930 . S
H553 C525 0.929 . S
H554 C527 0.930 . S
H555 C528 0.929 . S
H556 C533 0.930 . S
H557 C534 0.929 . S
H558 C536 0.930 . S
H559 C537 0.929 . S
Nd560 C562 2.836 . S
Nd560 O580 2.500 . S
Nd560 O581 2.492 . S
Nd560 O582 2.487 . S
Nd560 O583 2.682 . S
Nd560 O584 2.410 . S
Nd560 O589 2.414 . S
Nd560 O591 2.424 . S
Nd561 C571 2.836 . S
Nd561 O583 2.414 . S
Nd561 O585 2.424 . S
Nd561 O586 2.500 . S
Nd561 O587 2.492 . S
Nd561 O588 2.487 . S
Nd561 O589 2.682 . S
Nd561 O590 2.410 . S
C562 Nd560 2.836 . S
C562 C563 1.498 . S
C562 O580 1.258 . S
C562 O581 1.239 . S
C563 C562 1.498 . S
C563 C564 1.366 . S
C563 C568 1.407 . S
C564 C563 1.366 . S
C564 C565 1.392 . S
C564 H592 0.930 . S
C565 C564 1.392 . S
C565 C566 1.398 . S
C565 H593 0.929 . S
C566 C565 1.398 . S
C566 C567 1.352 . S
C567 C566 1.352 . S
C567 C568 1.384 . S
C567 H594 0.930 . S
C568 C563 1.407 . S
C568 C567 1.384 . S
C568 H595 0.929 . S
C569 O582 1.241 . S
C569 O583 1.273 . S
C570 O584 1.251 . S
C570 O585 1.268 . S
C571 Nd561 2.836 . S
C571 C572 1.498 . S
C571 O586 1.258 . S
C571 O587 1.239 . S
C572 C571 1.498 . S
C572 C573 1.366 . S
C572 C577 1.407 . S
C573 C572 1.366 . S
C573 C574 1.392 . S
C573 H596 0.930 . S
C574 C573 1.392 . S
C574 C575 1.398 . S
C574 H597 0.929 . S
C575 C574 1.398 . S
C575 C576 1.352 . S
C576 C575 1.352 . S
C576 C577 1.384 . S
C576 H598 0.930 . S
C577 C572 1.407 . S
C577 C576 1.384 . S
C577 H599 0.929 . S
C578 O588 1.241 . S
C578 O589 1.273 . S
C579 O590 1.251 . S
C579 O591 1.268 . S
O580 Nd560 2.500 . S
O580 C562 1.258 . S
O581 Nd560 2.492 . S
O581 C562 1.239 . S
O582 Nd560 2.487 . S
O582 C569 1.241 . S
O583 Nd560 2.682 . S
O583 Nd561 2.414 . S
O583 C569 1.273 . S
O584 Nd560 2.410 . S
O584 C570 1.251 . S
O585 Nd561 2.424 . S
O585 C570 1.268 . S
O586 Nd561 2.500 . S
O586 C571 1.258 . S
O587 Nd561 2.492 . S
O587 C571 1.239 . S
O588 Nd561 2.487 . S
O588 C578 1.241 . S
O589 Nd560 2.414 . S
O589 Nd561 2.682 . S
O589 C578 1.273 . S
O590 Nd561 2.410 . S
O590 C579 1.251 . S
O591 Nd560 2.424 . S
O591 C579 1.268 . S
H592 C564 0.930 . S
H593 C565 0.929 . S
H594 C567 0.930 . S
H595 C568 0.929 . S
H596 C573 0.930 . S
H597 C574 0.929 . S
H598 C576 0.930 . S
H599 C577 0.929 . S
Nd600 C602 2.836 . S
Nd600 O620 2.500 . S
Nd600 O621 2.492 . S
Nd600 O622 2.487 . S
Nd600 O623 2.682 . S
Nd600 O624 2.410 . S
Nd600 O629 2.414 . S
Nd600 O631 2.424 . S
Nd601 C611 2.836 . S
Nd601 O623 2.414 . S
Nd601 O625 2.424 . S
Nd601 O626 2.500 . S
Nd601 O627 2.492 . S
Nd601 O628 2.487 . S
Nd601 O629 2.682 . S
Nd601 O630 2.410 . S
C602 Nd600 2.836 . S
C602 C603 1.498 . S
C602 O620 1.258 . S
C602 O621 1.239 . S
C603 C602 1.498 . S
C603 C604 1.366 . S
C603 C608 1.407 . S
C604 C603 1.366 . S
C604 C605 1.392 . S
C604 H632 0.930 . S
C605 C604 1.392 . S
C605 C606 1.398 . S
C605 H633 0.929 . S
C606 C605 1.398 . S
C606 C607 1.352 . S
C607 C606 1.352 . S
C607 C608 1.384 . S
C607 H634 0.930 . S
C608 C603 1.407 . S
C608 C607 1.384 . S
C608 H635 0.929 . S
C609 O622 1.241 . S
C609 O623 1.273 . S
C610 O624 1.251 . S
C610 O625 1.268 . S
C611 Nd601 2.836 . S
C611 C612 1.498 . S
C611 O626 1.258 . S
C611 O627 1.239 . S
C612 C611 1.498 . S
C612 C613 1.366 . S
C612 C617 1.407 . S
C613 C612 1.366 . S
C613 C614 1.392 . S
C613 H636 0.930 . S
C614 C613 1.392 . S
C614 C615 1.398 . S
C614 H637 0.929 . S
C615 C614 1.398 . S
C615 C616 1.352 . S
C616 C615 1.352 . S
C616 C617 1.384 . S
C616 H638 0.930 . S
C617 C612 1.407 . S
C617 C616 1.384 . S
C617 H639 0.929 . S
C618 O628 1.241 . S
C618 O629 1.273 . S
C619 O630 1.251 . S
C619 O631 1.268 . S
O620 Nd600 2.500 . S
O620 C602 1.258 . S
O621 Nd600 2.492 . S
O621 C602 1.239 . S
O622 Nd600 2.487 . S
O622 C609 1.241 . S
O623 Nd600 2.682 . S
O623 Nd601 2.414 . S
O623 C609 1.273 . S
O624 Nd600 2.410 . S
O624 C610 1.251 . S
O625 Nd601 2.424 . S
O625 C610 1.268 . S
O626 Nd601 2.500 . S
O626 C611 1.258 . S
O627 Nd601 2.492 . S
O627 C611 1.239 . S
O628 Nd601 2.487 . S
O628 C618 1.241 . S
O629 Nd600 2.414 . S
O629 Nd601 2.682 . S
O629 C618 1.273 . S
O630 Nd601 2.410 . S
O630 C619 1.251 . S
O631 Nd600 2.424 . S
O631 C619 1.268 . S
H632 C604 0.930 . S
H633 C605 0.929 . S
H634 C607 0.930 . S
H635 C608 0.929 . S
H636 C613 0.930 . S
H637 C614 0.929 . S
H638 C616 0.930 . S
H639 C617 0.929 . S
H640 C646 0.930 . S
H641 C650 0.930 . S
H642 C655 0.929 . S
H643 C653 0.929 . S
H644 C648 0.929 . S
H645 C654 0.929 . S
C646 H640 0.930 . S
C646 C647 1.367 . S
C646 C654 1.378 . S
C647 C646 1.367 . S
C647 C655 1.433 . S
C648 H644 0.929 . S
C648 C650 1.378 . S
C648 C652 1.350 . S
C649 C652 1.463 . S
C649 C654 1.350 . S
C649 N657 1.427 . S
C650 H641 0.930 . S
C650 C648 1.378 . S
C650 C651 1.367 . S
C651 C650 1.367 . S
C651 C653 1.433 . S
C652 C648 1.350 . S
C652 C649 1.463 . S
C652 N656 1.427 . S
C653 H643 0.929 . S
C653 C651 1.433 . S
C653 N656 1.384 . S
C654 H645 0.929 . S
C654 C646 1.378 . S
C654 C649 1.350 . S
C655 H642 0.929 . S
C655 C647 1.433 . S
C655 N657 1.384 . S
N656 C652 1.427 . S
N656 C653 1.384 . S
N657 C649 1.427 . S
N657 C655 1.384 . S
H658 C664 0.930 . S
H659 C668 0.930 . S
H660 C673 0.929 . S
H661 C671 0.929 . S
H662 C666 0.929 . S
H663 C672 0.929 . S
C664 H658 0.930 . S
C664 C665 1.367 . S
C664 C672 1.378 . S
C665 C664 1.367 . S
C665 C673 1.433 . S
C666 H662 0.929 . S
C666 C668 1.378 . S
C666 C670 1.350 . S
C667 C670 1.463 . S
C667 C672 1.350 . S
C667 N675 1.427 . S
C668 H659 0.930 . S
C668 C666 1.378 . S
C668 C669 1.367 . S
C669 C668 1.367 . S
C669 C671 1.433 . S
C670 C666 1.350 . S
C670 C667 1.463 . S
C670 N674 1.427 . S
C671 H661 0.929 . S
C671 C669 1.433 . S
C671 N674 1.384 . S
C672 H663 0.929 . S
C672 C664 1.378 . S
C672 C667 1.350 . S
C673 H660 0.929 . S
C673 C665 1.433 . S
C673 N675 1.384 . S
N674 C670 1.427 . S
N674 C671 1.384 . S
N675 C667 1.427 . S
N675 C673 1.384 . S
H676 C682 0.930 . S
H677 C686 0.930 . S
H678 C691 0.929 . S
H679 C689 0.929 . S
H680 C684 0.929 . S
H681 C690 0.929 . S
C682 H676 0.930 . S
C682 C683 1.367 . S
C682 C690 1.378 . S
C683 C682 1.367 . S
C683 C691 1.433 . S
C684 H680 0.929 . S
C684 C686 1.378 . S
C684 C688 1.350 . S
C685 C688 1.463 . S
C685 C690 1.350 . S
C685 N693 1.427 . S
C686 H677 0.930 . S
C686 C684 1.378 . S
C686 C687 1.367 . S
C687 C686 1.367 . S
C687 C689 1.433 . S
C688 C684 1.350 . S
C688 C685 1.463 . S
C688 N692 1.427 . S
C689 H679 0.929 . S
C689 C687 1.433 . S
C689 N692 1.384 . S
C690 H681 0.929 . S
C690 C682 1.378 . S
C690 C685 1.350 . S
C691 H678 0.929 . S
C691 C683 1.433 . S
C691 N693 1.384 . S
N692 C688 1.427 . S
N692 C689 1.384 . S
N693 C685 1.427 . S
N693 C691 1.384 . S
H694 C700 0.930 . S
H695 C704 0.930 . S
H696 C709 0.929 . S
H697 C707 0.929 . S
H698 C702 0.929 . S
H699 C708 0.929 . S
C700 H694 0.930 . S
C700 C701 1.367 . S
C700 C708 1.378 . S
C701 C700 1.367 . S
C701 C709 1.433 . S
C702 H698 0.929 . S
C702 C704 1.378 . S
C702 C706 1.350 . S
C703 C706 1.463 . S
C703 C708 1.350 . S
C703 N711 1.427 . S
C704 H695 0.930 . S
C704 C702 1.378 . S
C704 C705 1.367 . S
C705 C704 1.367 . S
C705 C707 1.433 . S
C706 C702 1.350 . S
C706 C703 1.463 . S
C706 N710 1.427 . S
C707 H697 0.929 . S
C707 C705 1.433 . S
C707 N710 1.384 . S
C708 H699 0.929 . S
C708 C700 1.378 . S
C708 C703 1.350 . S
C709 H696 0.929 . S
C709 C701 1.433 . S
C709 N711 1.384 . S
N710 C706 1.427 . S
N710 C707 1.384 . S
N711 C703 1.427 . S
N711 C709 1.384 . S
H712 C718 0.930 . S
H713 C722 0.930 . S
H714 C727 0.929 . S
H715 C725 0.929 . S
H716 C720 0.929 . S
H717 C726 0.929 . S
C718 H712 0.930 . S
C718 C719 1.367 . S
C718 C726 1.378 . S
C719 C718 1.367 . S
C719 C727 1.433 . S
C720 H716 0.929 . S
C720 C722 1.378 . S
C720 C724 1.350 . S
C721 C724 1.463 . S
C721 C726 1.350 . S
C721 N729 1.427 . S
C722 H713 0.930 . S
C722 C720 1.378 . S
C722 C723 1.367 . S
C723 C722 1.367 . S
C723 C725 1.433 . S
C724 C720 1.350 . S
C724 C721 1.463 . S
C724 N728 1.427 . S
C725 H715 0.929 . S
C725 C723 1.433 . S
C725 N728 1.384 . S
C726 H717 0.929 . S
C726 C718 1.378 . S
C726 C721 1.350 . S
C727 H714 0.929 . S
C727 C719 1.433 . S
C727 N729 1.384 . S
N728 C724 1.427 . S
N728 C725 1.384 . S
N729 C721 1.427 . S
N729 C727 1.384 . S
H730 C736 0.930 . S
H731 C740 0.930 . S
H732 C745 0.929 . S
H733 C743 0.929 . S
H734 C738 0.929 . S
H735 C744 0.929 . S
C736 H730 0.930 . S
C736 C737 1.367 . S
C736 C744 1.378 . S
C737 C736 1.367 . S
C737 C745 1.433 . S
C738 H734 0.929 . S
C738 C740 1.378 . S
C738 C742 1.350 . S
C739 C742 1.463 . S
C739 C744 1.350 . S
C739 N747 1.427 . S
C740 H731 0.930 . S
C740 C738 1.378 . S
C740 C741 1.367 . S
C741 C740 1.367 . S
C741 C743 1.433 . S
C742 C738 1.350 . S
C742 C739 1.463 . S
C742 N746 1.427 . S
C743 H733 0.929 . S
C743 C741 1.433 . S
C743 N746 1.384 . S
C744 H735 0.929 . S
C744 C736 1.378 . S
C744 C739 1.350 . S
C745 H732 0.929 . S
C745 C737 1.433 . S
C745 N747 1.384 . S
N746 C742 1.427 . S
N746 C743 1.384 . S
N747 C739 1.427 . S
N747 C745 1.384 . S
H748 C754 0.930 . S
H749 C758 0.930 . S
H750 C763 0.929 . S
H751 C761 0.929 . S
H752 C756 0.929 . S
H753 C762 0.929 . S
C754 H748 0.930 . S
C754 C755 1.367 . S
C754 C762 1.378 . S
C755 C754 1.367 . S
C755 C763 1.433 . S
C756 H752 0.929 . S
C756 C758 1.378 . S
C756 C760 1.350 . S
C757 C760 1.463 . S
C757 C762 1.350 . S
C757 N765 1.427 . S
C758 H749 0.930 . S
C758 C756 1.378 . S
C758 C759 1.367 . S
C759 C758 1.367 . S
C759 C761 1.433 . S
C760 C756 1.350 . S
C760 C757 1.463 . S
C760 N764 1.427 . S
C761 H751 0.929 . S
C761 C759 1.433 . S
C761 N764 1.384 . S
C762 H753 0.929 . S
C762 C754 1.378 . S
C762 C757 1.350 . S
C763 H750 0.929 . S
C763 C755 1.433 . S
C763 N765 1.384 . S
N764 C760 1.427 . S
N764 C761 1.384 . S
N765 C757 1.427 . S
N765 C763 1.384 . S
H766 C772 0.930 . S
H767 C776 0.930 . S
H768 C781 0.929 . S
H769 C779 0.929 . S
H770 C774 0.929 . S
H771 C780 0.929 . S
C772 H766 0.930 . S
C772 C773 1.367 . S
C772 C780 1.378 . S
C773 C772 1.367 . S
C773 C781 1.433 . S
C774 H770 0.929 . S
C774 C776 1.378 . S
C774 C778 1.350 . S
C775 C778 1.463 . S
C775 C780 1.350 . S
C775 N783 1.427 . S
C776 H767 0.930 . S
C776 C774 1.378 . S
C776 C777 1.367 . S
C777 C776 1.367 . S
C777 C779 1.433 . S
C778 C774 1.350 . S
C778 C775 1.463 . S
C778 N782 1.427 . S
C779 H769 0.929 . S
C779 C777 1.433 . S
C779 N782 1.384 . S
C780 H771 0.929 . S
C780 C772 1.378 . S
C780 C775 1.350 . S
C781 H768 0.929 . S
C781 C773 1.433 . S
C781 N783 1.384 . S
N782 C778 1.427 . S
N782 C779 1.384 . S
N783 C775 1.427 . S
N783 C781 1.384 . S
H784 C790 0.930 . S
H785 C794 0.930 . S
H786 C799 0.929 . S
H787 C797 0.929 . S
H788 C792 0.929 . S
H789 C798 0.929 . S
C790 H784 0.930 . S
C790 C791 1.367 . S
C790 C798 1.378 1_565 S
C791 C790 1.367 . S
C791 C799 1.433 . S
C792 H788 0.929 . S
C792 C794 1.378 1_565 S
C792 C796 1.350 1_565 S
C793 C796 1.463 1_565 S
C793 C798 1.350 1_565 S
C793 N801 1.427 . S
C794 H785 0.930 . S
C794 C792 1.378 1_545 S
C794 C795 1.367 . S
C795 C794 1.367 . S
C795 C797 1.433 . S
C796 C792 1.350 1_545 S
C796 C793 1.463 1_545 S
C796 N800 1.427 . S
C797 H787 0.929 . S
C797 C795 1.433 . S
C797 N800 1.384 . S
C798 H789 0.929 . S
C798 C790 1.378 1_545 S
C798 C793 1.350 1_545 S
C799 H786 0.929 . S
C799 C791 1.433 . S
C799 N801 1.384 . S
N800 C796 1.427 . S
N800 C797 1.384 . S
N801 C793 1.427 . S
N801 C799 1.384 . S
H802 C808 0.930 . S
H803 C812 0.930 . S
H804 C817 0.929 . S
H805 C815 0.929 . S
H806 C810 0.929 . S
H807 C816 0.929 . S
C808 H802 0.930 . S
C808 C809 1.367 . S
C808 C816 1.378 . S
C809 C808 1.367 . S
C809 C817 1.433 . S
C810 H806 0.929 . S
C810 C812 1.378 . S
C810 C814 1.350 . S
C811 C814 1.463 1_545 S
C811 C816 1.350 . S
C811 N819 1.427 . S
C812 H803 0.930 . S
C812 C810 1.378 . S
C812 C813 1.367 . S
C813 C812 1.367 . S
C813 C815 1.433 . S
C814 C810 1.350 . S
C814 C811 1.463 1_565 S
C814 N818 1.427 . S
C815 H805 0.929 . S
C815 C813 1.433 . S
C815 N818 1.384 . S
C816 H807 0.929 . S
C816 C808 1.378 . S
C816 C811 1.350 . S
C817 H804 0.929 . S
C817 C809 1.433 . S
C817 N819 1.384 . S
N818 C814 1.427 . S
N818 C815 1.384 . S
N819 C811 1.427 . S
N819 C817 1.384 . S
H820 C826 0.930 . S
H821 C830 0.930 . S
H822 C835 0.929 . S
H823 C833 0.929 . S
H824 C828 0.929 . S
H825 C834 0.929 . S
C826 H820 0.930 . S
C826 C827 1.367 1_565 S
C826 C834 1.378 . S
C827 C826 1.367 1_545 S
C827 C835 1.433 . S
C828 H824 0.929 . S
C828 C830 1.378 . S
C828 C832 1.350 1_545 S
C829 C832 1.463 1_545 S
C829 C834 1.350 1_545 S
C829 N837 1.427 . S
C830 H821 0.930 . S
C830 C828 1.378 . S
C830 C831 1.367 1_545 S
C831 C830 1.367 1_565 S
C831 C833 1.433 . S
C832 C828 1.350 1_565 S
C832 C829 1.463 1_565 S
C832 N836 1.427 . S
C833 H823 0.929 . S
C833 C831 1.433 . S
C833 N836 1.384 . S
C834 H825 0.929 . S
C834 C826 1.378 . S
C834 C829 1.350 1_565 S
C835 H822 0.929 . S
C835 C827 1.433 . S
C835 N837 1.384 . S
N836 C832 1.427 . S
N836 C833 1.384 . S
N837 C829 1.427 . S
N837 C835 1.384 . S
H838 C844 0.930 . S
H839 C848 0.930 . S
H840 C853 0.929 . S
H841 C851 0.929 . S
H842 C846 0.929 1_545 S
H843 C852 0.929 1_565 S
C844 H838 0.930 . S
C844 C845 1.367 . S
C844 C852 1.378 . S
C845 C844 1.367 . S
C845 C853 1.433 . S
C846 H842 0.929 1_565 S
C846 C848 1.378 . S
C846 C850 1.350 . S
C847 C850 1.463 1_545 S
C847 C852 1.350 . S
C847 N855 1.427 . S
C848 H839 0.930 . S
C848 C846 1.378 . S
C848 C849 1.367 . S
C849 C848 1.367 . S
C849 C851 1.433 . S
C850 C846 1.350 . S
C850 C847 1.463 1_565 S
C850 N854 1.427 . S
C851 H841 0.929 . S
C851 C849 1.433 . S
C851 N854 1.384 . S
C852 H843 0.929 1_545 S
C852 C844 1.378 . S
C852 C847 1.350 . S
C853 H840 0.929 . S
C853 C845 1.433 . S
C853 N855 1.384 . S
N854 C850 1.427 . S
N854 C851 1.384 . S
N855 C847 1.427 . S
N855 C853 1.384 . S
H856 C862 0.930 . S
H857 C866 0.930 . S
H858 C871 0.929 . S
H859 C869 0.929 . S
H860 C864 0.929 . S
H861 C870 0.929 . S
C862 H856 0.930 . S
C862 C863 1.367 . S
C862 C870 1.378 . S
C863 C862 1.367 . S
C863 C871 1.433 . S
C864 H860 0.929 . S
C864 C866 1.378 . S
C864 C868 1.350 . S
C865 C868 1.463 . S
C865 C870 1.350 . S
C865 N873 1.427 . S
C866 H857 0.930 . S
C866 C864 1.378 . S
C866 C867 1.367 . S
C867 C866 1.367 . S
C867 C869 1.433 . S
C868 C864 1.350 . S
C868 C865 1.463 . S
C868 N872 1.427 . S
C869 H859 0.929 . S
C869 C867 1.433 . S
C869 N872 1.384 . S
C870 H861 0.929 . S
C870 C862 1.378 . S
C870 C865 1.350 . S
C871 H858 0.929 . S
C871 C863 1.433 . S
C871 N873 1.384 . S
N872 C868 1.427 . S
N872 C869 1.384 . S
N873 C865 1.427 . S
N873 C871 1.384 . S
H874 C880 0.930 . S
H875 C884 0.930 . S
H876 C889 0.929 . S
H877 C887 0.929 . S
H878 C882 0.929 . S
H879 C888 0.929 . S
C880 H874 0.930 . S
C880 C881 1.367 . S
C880 C888 1.378 . S
C881 C880 1.367 . S
C881 C889 1.433 . S
C882 H878 0.929 . S
C882 C884 1.378 . S
C882 C886 1.350 . S
C883 C886 1.463 . S
C883 C888 1.350 . S
C883 N891 1.427 . S
C884 H875 0.930 . S
C884 C882 1.378 . S
C884 C885 1.367 . S
C885 C884 1.367 . S
C885 C887 1.433 . S
C886 C882 1.350 . S
C886 C883 1.463 . S
C886 N890 1.427 . S
C887 H877 0.929 . S
C887 C885 1.433 . S
C887 N890 1.384 . S
C888 H879 0.929 . S
C888 C880 1.378 . S
C888 C883 1.350 . S
C889 H876 0.929 . S
C889 C881 1.433 . S
C889 N891 1.384 . S
N890 C886 1.427 . S
N890 C887 1.384 . S
N891 C883 1.427 . S
N891 C889 1.384 . S
H892 C898 0.930 . S
H893 C902 0.930 . S
H894 C907 0.929 . S
H895 C905 0.929 . S
H896 C900 0.929 . S
H897 C906 0.929 . S
C898 H892 0.930 . S
C898 C899 1.367 . S
C898 C906 1.378 . S
C899 C898 1.367 . S
C899 C907 1.433 . S
C900 H896 0.929 . S
C900 C902 1.378 . S
C900 C904 1.350 . S
C901 C904 1.463 . S
C901 C906 1.350 . S
C901 N909 1.427 . S
C902 H893 0.930 . S
C902 C900 1.378 . S
C902 C903 1.367 . S
C903 C902 1.367 . S
C903 C905 1.433 . S
C904 C900 1.350 . S
C904 C901 1.463 . S
C904 N908 1.427 . S
C905 H895 0.929 . S
C905 C903 1.433 . S
C905 N908 1.384 . S
C906 H897 0.929 . S
C906 C898 1.378 . S
C906 C901 1.350 . S
C907 H894 0.929 . S
C907 C899 1.433 . S
C907 N909 1.384 . S
N908 C904 1.427 . S
N908 C905 1.384 . S
N909 C901 1.427 . S
N909 C907 1.384 . S
H910 C916 0.930 . S
H911 C920 0.930 . S
H912 C925 0.929 . S
H913 C923 0.929 . S
H914 C918 0.929 . S
H915 C924 0.929 . S
C916 H910 0.930 . S
C916 C917 1.367 . S
C916 C924 1.378 . S
C917 C916 1.367 . S
C917 C925 1.433 . S
C918 H914 0.929 . S
C918 C920 1.378 . S
C918 C922 1.350 . S
C919 C922 1.463 . S
C919 C924 1.350 . S
C919 N927 1.427 . S
C920 H911 0.930 . S
C920 C918 1.378 . S
C920 C921 1.367 . S
C921 C920 1.367 . S
C921 C923 1.433 . S
C922 C918 1.350 . S
C922 C919 1.463 . S
C922 N926 1.427 . S
C923 H913 0.929 . S
C923 C921 1.433 . S
C923 N926 1.384 . S
C924 H915 0.929 . S
C924 C916 1.378 . S
C924 C919 1.350 . S
C925 H912 0.929 . S
C925 C917 1.433 . S
C925 N927 1.384 . S
N926 C922 1.427 . S
N926 C923 1.384 . S
N927 C919 1.427 . S
N927 C925 1.384 . S
H928 C934 0.930 . S
H929 C938 0.930 . S
H930 C943 0.929 . S
H931 C941 0.929 . S
H932 C936 0.929 . S
H933 C942 0.929 . S
C934 H928 0.930 . S
C934 C935 1.367 . S
C934 C942 1.378 . S
C935 C934 1.367 . S
C935 C943 1.433 . S
C936 H932 0.929 . S
C936 C938 1.378 . S
C936 C940 1.350 . S
C937 C940 1.463 1_556 S
C937 C942 1.350 . S
C937 N945 1.427 . S
C938 H929 0.930 . S
C938 C936 1.378 . S
C938 C939 1.367 . S
C939 C938 1.367 . S
C939 C941 1.433 . S
C940 C936 1.350 . S
C940 C937 1.463 1_554 S
C940 N944 1.427 . S
C941 H931 0.929 . S
C941 C939 1.433 . S
C941 N944 1.384 . S
C942 H933 0.929 . S
C942 C934 1.378 . S
C942 C937 1.350 . S
C943 H930 0.929 . S
C943 C935 1.433 . S
C943 N945 1.384 . S
N944 C940 1.427 . S
N944 C941 1.384 . S
N945 C937 1.427 . S
N945 C943 1.384 . S
H946 C952 0.930 . S
H947 C956 0.930 . S
H948 C961 0.929 . S
H949 C959 0.929 . S
H950 C954 0.929 . S
H951 C960 0.929 . S
C952 H946 0.930 . S
C952 C953 1.367 . S
C952 C960 1.378 . S
C953 C952 1.367 . S
C953 C961 1.433 . S
C954 H950 0.929 . S
C954 C956 1.378 . S
C954 C958 1.350 . S
C955 C958 1.463 1_556 S
C955 C960 1.350 . S
C955 N963 1.427 . S
C956 H947 0.930 . S
C956 C954 1.378 . S
C956 C957 1.367 . S
C957 C956 1.367 . S
C957 C959 1.433 . S
C958 C954 1.350 . S
C958 C955 1.463 1_554 S
C958 N962 1.427 . S
C959 H949 0.929 . S
C959 C957 1.433 . S
C959 N962 1.384 . S
C960 H951 0.929 . S
C960 C952 1.378 . S
C960 C955 1.350 . S
C961 H948 0.929 . S
C961 C953 1.433 . S
C961 N963 1.384 . S
N962 C958 1.427 . S
N962 C959 1.384 . S
N963 C955 1.427 . S
N963 C961 1.384 . S
H964 C970 0.930 . S
H965 C974 0.930 . S
H966 C979 0.929 . S
H967 C977 0.929 . S
H968 C972 0.929 . S
H969 C978 0.929 . S
C970 H964 0.930 . S
C970 C971 1.367 . S
C970 C978 1.378 . S
C971 C970 1.367 . S
C971 C979 1.433 . S
C972 H968 0.929 . S
C972 C974 1.378 . S
C972 C976 1.350 . S
C973 C976 1.463 . S
C973 C978 1.350 . S
C973 N981 1.427 . S
C974 H965 0.930 . S
C974 C972 1.378 . S
C974 C975 1.367 . S
C975 C974 1.367 . S
C975 C977 1.433 . S
C976 C972 1.350 . S
C976 C973 1.463 . S
C976 N980 1.427 . S
C977 H967 0.929 . S
C977 C975 1.433 . S
C977 N980 1.384 . S
C978 H969 0.929 . S
C978 C970 1.378 . S
C978 C973 1.350 . S
C979 H966 0.929 . S
C979 C971 1.433 . S
C979 N981 1.384 . S
N980 C976 1.427 . S
N980 C977 1.384 . S
N981 C973 1.427 . S
N981 C979 1.384 . S
H982 C988 0.930 . S
H983 C992 0.930 . S
H984 C997 0.929 . S
H985 C995 0.929 . S
H986 C990 0.929 . S
H987 C996 0.929 . S
C988 H982 0.930 . S
C988 C989 1.367 . S
C988 C996 1.378 . S
C989 C988 1.367 . S
C989 C997 1.433 . S
C990 H986 0.929 . S
C990 C992 1.378 . S
C990 C994 1.350 . S
C991 C994 1.463 . S
C991 C996 1.350 . S
C991 N999 1.427 . S
C992 H983 0.930 . S
C992 C990 1.378 . S
C992 C993 1.367 . S
C993 C992 1.367 . S
C993 C995 1.433 . S
C994 C990 1.350 . S
C994 C991 1.463 . S
C994 N998 1.427 . S
C995 H985 0.929 . S
C995 C993 1.433 . S
C995 N998 1.384 . S
C996 H987 0.929 . S
C996 C988 1.378 . S
C996 C991 1.350 . S
C997 H984 0.929 . S
C997 C989 1.433 . S
C997 N999 1.384 . S
N998 C994 1.427 . S
N998 C995 1.384 . S
N999 C991 1.427 . S
N999 C997 1.384 . S
H1000 C1006 0.930 . S
H1001 C1010 0.930 . S
H1002 C1015 0.929 . S
H1003 C1013 0.929 . S
H1004 C1008 0.929 . S
H1005 C1014 0.929 . S
C1006 H1000 0.930 . S
C1006 C1007 1.367 . S
C1006 C1014 1.378 . S
C1007 C1006 1.367 . S
C1007 C1015 1.433 . S
C1008 H1004 0.929 . S
C1008 C1010 1.378 . S
C1008 C1012 1.350 . S
C1009 C1012 1.463 1_554 S
C1009 C1014 1.350 . S
C1009 N1017 1.427 . S
C1010 H1001 0.930 . S
C1010 C1008 1.378 . S
C1010 C1011 1.367 . S
C1011 C1010 1.367 . S
C1011 C1013 1.433 . S
C1012 C1008 1.350 . S
C1012 C1009 1.463 1_556 S
C1012 N1016 1.427 . S
C1013 H1003 0.929 . S
C1013 C1011 1.433 . S
C1013 N1016 1.384 . S
C1014 H1005 0.929 . S
C1014 C1006 1.378 . S
C1014 C1009 1.350 . S
C1015 H1002 0.929 . S
C1015 C1007 1.433 . S
C1015 N1017 1.384 . S
N1016 C1012 1.427 . S
N1016 C1013 1.384 . S
N1017 C1009 1.427 . S
N1017 C1015 1.384 . S
H1018 C1024 0.930 . S
H1019 C1028 0.930 . S
H1020 C1033 0.929 . S
H1021 C1031 0.929 . S
H1022 C1026 0.929 . S
H1023 C1032 0.929 . S
C1024 H1018 0.930 . S
C1024 C1025 1.367 . S
C1024 C1032 1.378 . S
C1025 C1024 1.367 . S
C1025 C1033 1.433 . S
C1026 H1022 0.929 . S
C1026 C1028 1.378 . S
C1026 C1030 1.350 . S
C1027 C1030 1.463 1_556 S
C1027 C1032 1.350 . S
C1027 N1035 1.427 . S
C1028 H1019 0.930 . S
C1028 C1026 1.378 . S
C1028 C1029 1.367 . S
C1029 C1028 1.367 . S
C1029 C1031 1.433 . S
C1030 C1026 1.350 . S
C1030 C1027 1.463 1_554 S
C1030 N1034 1.427 . S
C1031 H1021 0.929 . S
C1031 C1029 1.433 . S
C1031 N1034 1.384 . S
C1032 H1023 0.929 . S
C1032 C1024 1.378 . S
C1032 C1027 1.350 . S
C1033 H1020 0.929 . S
C1033 C1025 1.433 . S
C1033 N1035 1.384 . S
N1034 C1030 1.427 . S
N1034 C1031 1.384 . S
N1035 C1027 1.427 . S
N1035 C1033 1.384 . S
H1036 C1042 0.930 . S
H1037 C1046 0.930 . S
H1038 C1051 0.929 . S
H1039 C1049 0.929 . S
H1040 C1044 0.929 . S
H1041 C1050 0.929 . S
C1042 H1036 0.930 . S
C1042 C1043 1.367 . S
C1042 C1050 1.378 . S
C1043 C1042 1.367 . S
C1043 C1051 1.433 . S
C1044 H1040 0.929 . S
C1044 C1046 1.378 . S
C1044 C1048 1.350 . S
C1045 C1048 1.463 . S
C1045 C1050 1.350 . S
C1045 N1053 1.427 . S
C1046 H1037 0.930 . S
C1046 C1044 1.378 . S
C1046 C1047 1.367 . S
C1047 C1046 1.367 . S
C1047 C1049 1.433 . S
C1048 C1044 1.350 . S
C1048 C1045 1.463 . S
C1048 N1052 1.427 . S
C1049 H1039 0.929 . S
C1049 C1047 1.433 . S
C1049 N1052 1.384 . S
C1050 H1041 0.929 . S
C1050 C1042 1.378 . S
C1050 C1045 1.350 . S
C1051 H1038 0.929 . S
C1051 C1043 1.433 . S
C1051 N1053 1.384 . S
N1052 C1048 1.427 . S
N1052 C1049 1.384 . S
N1053 C1045 1.427 . S
N1053 C1051 1.384 . S
H1054 C1060 0.930 . S
H1055 C1064 0.930 . S
H1056 C1069 0.929 . S
H1057 C1067 0.929 . S
H1058 C1062 0.929 . S
H1059 C1068 0.929 . S
C1060 H1054 0.930 . S
C1060 C1061 1.367 . S
C1060 C1068 1.378 . S
C1061 C1060 1.367 . S
C1061 C1069 1.433 . S
C1062 H1058 0.929 . S
C1062 C1064 1.378 . S
C1062 C1066 1.350 . S
C1063 C1066 1.463 . S
C1063 C1068 1.350 . S
C1063 N1071 1.427 . S
C1064 H1055 0.930 . S
C1064 C1062 1.378 . S
C1064 C1065 1.367 . S
C1065 C1064 1.367 . S
C1065 C1067 1.433 . S
C1066 C1062 1.350 . S
C1066 C1063 1.463 . S
C1066 N1070 1.427 . S
C1067 H1057 0.929 . S
C1067 C1065 1.433 . S
C1067 N1070 1.384 . S
C1068 H1059 0.929 . S
C1068 C1060 1.378 . S
C1068 C1063 1.350 . S
C1069 H1056 0.929 . S
C1069 C1061 1.433 . S
C1069 N1071 1.384 . S
N1070 C1066 1.427 . S
N1070 C1067 1.384 . S
N1071 C1063 1.427 . S
N1071 C1069 1.384 . S
H1072 C1078 0.930 . S
H1073 C1082 0.930 . S
H1074 C1087 0.929 . S
H1075 C1085 0.929 . S
H1076 C1080 0.929 . S
H1077 C1086 0.929 . S
C1078 H1072 0.930 . S
C1078 C1079 1.367 . S
C1078 C1086 1.378 . S
C1079 C1078 1.367 . S
C1079 C1087 1.433 . S
C1080 H1076 0.929 . S
C1080 C1082 1.378 . S
C1080 C1084 1.350 . S
C1081 C1084 1.463 1_645 S
C1081 C1086 1.350 . S
C1081 N1089 1.427 1_545 S
C1082 H1073 0.930 . S
C1082 C1080 1.378 . S
C1082 C1083 1.367 . S
C1083 C1082 1.367 . S
C1083 C1085 1.433 . S
C1084 C1080 1.350 . S
C1084 C1081 1.463 1_465 S
C1084 N1088 1.427 1_565 S
C1085 H1075 0.929 . S
C1085 C1083 1.433 . S
C1085 N1088 1.384 1_565 S
C1086 H1077 0.929 . S
C1086 C1078 1.378 . S
C1086 C1081 1.350 . S
C1087 H1074 0.929 . S
C1087 C1079 1.433 . S
C1087 N1089 1.384 1_545 S
N1088 C1084 1.427 1_545 S
N1088 C1085 1.384 1_545 S
N1089 C1081 1.427 1_565 S
N1089 C1087 1.384 1_565 S
H1090 C1096 0.930 . S
H1091 C1100 0.930 . S
H1092 C1105 0.929 . S
H1093 C1103 0.929 . S
H1094 C1098 0.929 . S
H1095 C1104 0.929 . S
C1096 H1090 0.930 . S
C1096 C1097 1.367 1_545 S
C1096 C1104 1.378 . S
C1097 C1096 1.367 1_565 S
C1097 C1105 1.433 . S
C1098 H1094 0.929 . S
C1098 C1100 1.378 . S
C1098 C1102 1.350 1_565 S
C1099 C1102 1.463 1_665 S
C1099 C1104 1.350 1_565 S
C1099 N1107 1.427 . S
C1100 H1091 0.930 . S
C1100 C1098 1.378 . S
C1100 C1101 1.367 1_565 S
C1101 C1100 1.367 1_545 S
C1101 C1103 1.433 . S
C1102 C1098 1.350 1_545 S
C1102 C1099 1.463 1_445 S
C1102 N1106 1.427 . S
C1103 H1093 0.929 . S
C1103 C1101 1.433 . S
C1103 N1106 1.384 . S
C1104 H1095 0.929 . S
C1104 C1096 1.378 . S
C1104 C1099 1.350 1_545 S
C1105 H1092 0.929 . S
C1105 C1097 1.433 . S
C1105 N1107 1.384 . S
N1106 C1102 1.427 . S
N1106 C1103 1.384 . S
N1107 C1099 1.427 . S
N1107 C1105 1.384 . S
H1108 C1114 0.930 . S
H1109 C1118 0.930 . S
H1110 C1123 0.929 . S
H1111 C1121 0.929 . S
H1112 C1116 0.929 . S
H1113 C1122 0.929 . S
C1114 H1108 0.930 . S
C1114 C1115 1.367 . S
C1114 C1122 1.378 . S
C1115 C1114 1.367 . S
C1115 C1123 1.433 . S
C1116 H1112 0.929 . S
C1116 C1118 1.378 . S
C1116 C1120 1.350 . S
C1117 C1120 1.463 1_465 S
C1117 C1122 1.350 . S
C1117 N1125 1.427 . S
C1118 H1109 0.930 . S
C1118 C1116 1.378 . S
C1118 C1119 1.367 . S
C1119 C1118 1.367 . S
C1119 C1121 1.433 . S
C1120 C1116 1.350 . S
C1120 C1117 1.463 1_645 S
C1120 N1124 1.427 . S
C1121 H1111 0.929 . S
C1121 C1119 1.433 . S
C1121 N1124 1.384 . S
C1122 H1113 0.929 . S
C1122 C1114 1.378 . S
C1122 C1117 1.350 . S
C1123 H1110 0.929 . S
C1123 C1115 1.433 . S
C1123 N1125 1.384 . S
N1124 C1120 1.427 . S
N1124 C1121 1.384 . S
N1125 C1117 1.427 . S
N1125 C1123 1.384 . S
H1126 C1132 0.930 . S
H1127 C1136 0.930 . S
H1128 C1141 0.929 . S
H1129 C1139 0.929 . S
H1130 C1134 0.929 . S
H1131 C1140 0.929 . S
C1132 H1126 0.930 . S
C1132 C1133 1.367 . S
C1132 C1140 1.378 . S
C1133 C1132 1.367 . S
C1133 C1141 1.433 . S
C1134 H1130 0.929 . S
C1134 C1136 1.378 . S
C1134 C1138 1.350 . S
C1135 C1138 1.463 1_665 S
C1135 C1140 1.350 . S
C1135 N1143 1.427 . S
C1136 H1127 0.930 . S
C1136 C1134 1.378 . S
C1136 C1137 1.367 . S
C1137 C1136 1.367 . S
C1137 C1139 1.433 . S
C1138 C1134 1.350 . S
C1138 C1135 1.463 1_445 S
C1138 N1142 1.427 . S
C1139 H1129 0.929 . S
C1139 C1137 1.433 . S
C1139 N1142 1.384 . S
C1140 H1131 0.929 . S
C1140 C1132 1.378 . S
C1140 C1135 1.350 . S
C1141 H1128 0.929 . S
C1141 C1133 1.433 . S
C1141 N1143 1.384 . S
N1142 C1138 1.427 . S
N1142 C1139 1.384 . S
N1143 C1135 1.427 . S
N1143 C1141 1.384 . S
H1144 C1150 0.930 . S
H1145 C1154 0.930 . S
H1146 C1159 0.929 . S
H1147 C1157 0.929 . S
H1148 C1152 0.929 . S
H1149 C1158 0.929 . S
C1150 H1144 0.930 . S
C1150 C1151 1.367 . S
C1150 C1158 1.378 . S
C1151 C1150 1.367 . S
C1151 C1159 1.433 . S
C1152 H1148 0.929 . S
C1152 C1154 1.378 . S
C1152 C1156 1.350 . S
C1153 C1156 1.463 . S
C1153 C1158 1.350 . S
C1153 N1161 1.427 . S
C1154 H1145 0.930 . S
C1154 C1152 1.378 . S
C1154 C1155 1.367 . S
C1155 C1154 1.367 . S
C1155 C1157 1.433 . S
C1156 C1152 1.350 . S
C1156 C1153 1.463 . S
C1156 N1160 1.427 . S
C1157 H1147 0.929 . S
C1157 C1155 1.433 . S
C1157 N1160 1.384 . S
C1158 H1149 0.929 . S
C1158 C1150 1.378 . S
C1158 C1153 1.350 . S
C1159 H1146 0.929 . S
C1159 C1151 1.433 . S
C1159 N1161 1.384 . S
N1160 C1156 1.427 . S
N1160 C1157 1.384 . S
N1161 C1153 1.427 . S
N1161 C1159 1.384 . S
H1162 C1168 0.930 . S
H1163 C1172 0.930 . S
H1164 C1177 0.929 . S
H1165 C1175 0.929 . S
H1166 C1170 0.929 . S
H1167 C1176 0.929 . S
C1168 H1162 0.930 . S
C1168 C1169 1.367 . S
C1168 C1176 1.378 . S
C1169 C1168 1.367 . S
C1169 C1177 1.433 . S
C1170 H1166 0.929 . S
C1170 C1172 1.378 . S
C1170 C1174 1.350 . S
C1171 C1174 1.463 . S
C1171 C1176 1.350 . S
C1171 N1179 1.427 . S
C1172 H1163 0.930 . S
C1172 C1170 1.378 . S
C1172 C1173 1.367 . S
C1173 C1172 1.367 . S
C1173 C1175 1.433 . S
C1174 C1170 1.350 . S
C1174 C1171 1.463 . S
C1174 N1178 1.427 . S
C1175 H1165 0.929 . S
C1175 C1173 1.433 . S
C1175 N1178 1.384 . S
C1176 H1167 0.929 . S
C1176 C1168 1.378 . S
C1176 C1171 1.350 . S
C1177 H1164 0.929 . S
C1177 C1169 1.433 . S
C1177 N1179 1.384 . S
N1178 C1174 1.427 . S
N1178 C1175 1.384 . S
N1179 C1171 1.427 . S
N1179 C1177 1.384 . S
H1180 C1186 0.930 . S
H1181 C1190 0.930 . S
H1182 C1195 0.929 . S
H1183 C1193 0.929 . S
H1184 C1188 0.929 . S
H1185 C1194 0.929 . S
C1186 H1180 0.930 . S
C1186 C1187 1.367 . S
C1186 C1194 1.378 . S
C1187 C1186 1.367 . S
C1187 C1195 1.433 . S
C1188 H1184 0.929 . S
C1188 C1190 1.378 . S
C1188 C1192 1.350 . S
C1189 C1192 1.463 . S
C1189 C1194 1.350 . S
C1189 N1197 1.427 . S
C1190 H1181 0.930 . S
C1190 C1188 1.378 . S
C1190 C1191 1.367 . S
C1191 C1190 1.367 . S
C1191 C1193 1.433 . S
C1192 C1188 1.350 . S
C1192 C1189 1.463 . S
C1192 N1196 1.427 . S
C1193 H1183 0.929 . S
C1193 C1191 1.433 . S
C1193 N1196 1.384 . S
C1194 H1185 0.929 . S
C1194 C1186 1.378 . S
C1194 C1189 1.350 . S
C1195 H1182 0.929 . S
C1195 C1187 1.433 . S
C1195 N1197 1.384 . S
N1196 C1192 1.427 . S
N1196 C1193 1.384 . S
N1197 C1189 1.427 . S
N1197 C1195 1.384 . S
H1198 C1204 0.930 . S
H1199 C1208 0.930 . S
H1200 C1213 0.929 . S
H1201 C1211 0.929 . S
H1202 C1206 0.929 . S
H1203 C1212 0.929 . S
C1204 H1198 0.930 . S
C1204 C1205 1.367 . S
C1204 C1212 1.378 . S
C1205 C1204 1.367 . S
C1205 C1213 1.433 . S
C1206 H1202 0.929 . S
C1206 C1208 1.378 . S
C1206 C1210 1.350 . S
C1207 C1210 1.463 . S
C1207 C1212 1.350 . S
C1207 N1215 1.427 . S
C1208 H1199 0.930 . S
C1208 C1206 1.378 . S
C1208 C1209 1.367 . S
C1209 C1208 1.367 . S
C1209 C1211 1.433 . S
C1210 C1206 1.350 . S
C1210 C1207 1.463 . S
C1210 N1214 1.427 . S
C1211 H1201 0.929 . S
C1211 C1209 1.433 . S
C1211 N1214 1.384 . S
C1212 H1203 0.929 . S
C1212 C1204 1.378 . S
C1212 C1207 1.350 . S
C1213 H1200 0.929 . S
C1213 C1205 1.433 . S
C1213 N1215 1.384 . S
N1214 C1210 1.427 . S
N1214 C1211 1.384 . S
N1215 C1207 1.427 . S
N1215 C1213 1.384 . S
H1216 C1222 0.930 . S
H1217 C1226 0.930 . S
H1218 C1231 0.929 . S
H1219 C1229 0.929 . S
H1220 C1224 0.929 . S
H1221 C1230 0.929 . S
C1222 H1216 0.930 . S
C1222 C1223 1.367 . S
C1222 C1230 1.378 . S
C1223 C1222 1.367 . S
C1223 C1231 1.433 . S
C1224 H1220 0.929 . S
C1224 C1226 1.378 . S
C1224 C1228 1.350 . S
C1225 C1228 1.463 . S
C1225 C1230 1.350 . S
C1225 N1233 1.427 . S
C1226 H1217 0.930 . S
C1226 C1224 1.378 . S
C1226 C1227 1.367 . S
C1227 C1226 1.367 . S
C1227 C1229 1.433 . S
C1228 C1224 1.350 . S
C1228 C1225 1.463 . S
C1228 N1232 1.427 . S
C1229 H1219 0.929 . S
C1229 C1227 1.433 . S
C1229 N1232 1.384 . S
C1230 H1221 0.929 . S
C1230 C1222 1.378 . S
C1230 C1225 1.350 . S
C1231 H1218 0.929 . S
C1231 C1223 1.433 . S
C1231 N1233 1.384 . S
N1232 C1228 1.427 . S
N1232 C1229 1.384 . S
N1233 C1225 1.427 . S
N1233 C1231 1.384 . S
H1234 C1240 0.930 . S
H1235 C1244 0.930 . S
H1236 C1249 0.929 . S
H1237 C1247 0.929 . S
H1238 C1242 0.929 . S
H1239 C1248 0.929 . S
C1240 H1234 0.930 . S
C1240 C1241 1.367 . S
C1240 C1248 1.378 . S
C1241 C1240 1.367 . S
C1241 C1249 1.433 . S
C1242 H1238 0.929 . S
C1242 C1244 1.378 . S
C1242 C1246 1.350 . S
C1243 C1246 1.463 . S
C1243 C1248 1.350 . S
C1243 N1251 1.427 . S
C1244 H1235 0.930 . S
C1244 C1242 1.378 . S
C1244 C1245 1.367 . S
C1245 C1244 1.367 . S
C1245 C1247 1.433 . S
C1246 C1242 1.350 . S
C1246 C1243 1.463 . S
C1246 N1250 1.427 . S
C1247 H1237 0.929 . S
C1247 C1245 1.433 . S
C1247 N1250 1.384 . S
C1248 H1239 0.929 . S
C1248 C1240 1.378 . S
C1248 C1243 1.350 . S
C1249 H1236 0.929 . S
C1249 C1241 1.433 . S
C1249 N1251 1.384 . S
N1250 C1246 1.427 . S
N1250 C1247 1.384 . S
N1251 C1243 1.427 . S
N1251 C1249 1.384 . S
H1252 C1258 0.930 . S
H1253 C1262 0.930 . S
H1254 C1267 0.929 . S
H1255 C1265 0.929 . S
H1256 C1260 0.929 . S
H1257 C1266 0.929 . S
C1258 H1252 0.930 . S
C1258 C1259 1.367 . S
C1258 C1266 1.378 . S
C1259 C1258 1.367 . S
C1259 C1267 1.433 . S
C1260 H1256 0.929 . S
C1260 C1262 1.378 . S
C1260 C1264 1.350 . S
C1261 C1264 1.463 . S
C1261 C1266 1.350 . S
C1261 N1269 1.427 . S
C1262 H1253 0.930 . S
C1262 C1260 1.378 . S
C1262 C1263 1.367 . S
C1263 C1262 1.367 . S
C1263 C1265 1.433 . S
C1264 C1260 1.350 . S
C1264 C1261 1.463 . S
C1264 N1268 1.427 . S
C1265 H1255 0.929 . S
C1265 C1263 1.433 . S
C1265 N1268 1.384 . S
C1266 H1257 0.929 . S
C1266 C1258 1.378 . S
C1266 C1261 1.350 . S
C1267 H1254 0.929 . S
C1267 C1259 1.433 . S
C1267 N1269 1.384 . S
N1268 C1264 1.427 . S
N1268 C1265 1.384 . S
N1269 C1261 1.427 . S
N1269 C1267 1.384 . S
H1270 C1276 0.930 . S
H1271 C1280 0.930 . S
H1272 C1285 0.929 . S
H1273 C1283 0.929 . S
H1274 C1278 0.929 . S
H1275 C1284 0.929 . S
C1276 H1270 0.930 . S
C1276 C1277 1.367 . S
C1276 C1284 1.378 . S
C1277 C1276 1.367 . S
C1277 C1285 1.433 . S
C1278 H1274 0.929 . S
C1278 C1280 1.378 . S
C1278 C1282 1.350 . S
C1279 C1282 1.463 . S
C1279 C1284 1.350 . S
C1279 N1287 1.427 . S
C1280 H1271 0.930 . S
C1280 C1278 1.378 . S
C1280 C1281 1.367 . S
C1281 C1280 1.367 . S
C1281 C1283 1.433 . S
C1282 C1278 1.350 . S
C1282 C1279 1.463 . S
C1282 N1286 1.427 . S
C1283 H1273 0.929 . S
C1283 C1281 1.433 . S
C1283 N1286 1.384 . S
C1284 H1275 0.929 . S
C1284 C1276 1.378 . S
C1284 C1279 1.350 . S
C1285 H1272 0.929 . S
C1285 C1277 1.433 . S
C1285 N1287 1.384 . S
N1286 C1282 1.427 . S
N1286 C1283 1.384 . S
N1287 C1279 1.427 . S
N1287 C1285 1.384 . S
H1288 C1294 0.930 . S
H1289 C1298 0.930 . S
H1290 C1303 0.929 . S
H1291 C1301 0.929 . S
H1292 C1296 0.929 . S
H1293 C1302 0.929 . S
C1294 H1288 0.930 . S
C1294 C1295 1.367 . S
C1294 C1302 1.378 . S
C1295 C1294 1.367 . S
C1295 C1303 1.433 . S
C1296 H1292 0.929 . S
C1296 C1298 1.378 . S
C1296 C1300 1.350 . S
C1297 C1300 1.463 . S
C1297 C1302 1.350 . S
C1297 N1305 1.427 . S
C1298 H1289 0.930 . S
C1298 C1296 1.378 . S
C1298 C1299 1.367 . S
C1299 C1298 1.367 . S
C1299 C1301 1.433 . S
C1300 C1296 1.350 . S
C1300 C1297 1.463 . S
C1300 N1304 1.427 . S
C1301 H1291 0.929 . S
C1301 C1299 1.433 . S
C1301 N1304 1.384 . S
C1302 H1293 0.929 . S
C1302 C1294 1.378 . S
C1302 C1297 1.350 . S
C1303 H1290 0.929 . S
C1303 C1295 1.433 . S
C1303 N1305 1.384 . S
N1304 C1300 1.427 . S
N1304 C1301 1.384 . S
N1305 C1297 1.427 . S
N1305 C1303 1.384 . S
H1306 C1312 0.930 . S
H1307 C1316 0.930 . S
H1308 C1321 0.929 . S
H1309 C1319 0.929 . S
H1310 C1314 0.929 . S
H1311 C1320 0.929 . S
C1312 H1306 0.930 . S
C1312 C1313 1.367 . S
C1312 C1320 1.378 . S
C1313 C1312 1.367 . S
C1313 C1321 1.433 . S
C1314 H1310 0.929 . S
C1314 C1316 1.378 . S
C1314 C1318 1.350 . S
C1315 C1318 1.463 . S
C1315 C1320 1.350 . S
C1315 N1323 1.427 . S
C1316 H1307 0.930 . S
C1316 C1314 1.378 . S
C1316 C1317 1.367 . S
C1317 C1316 1.367 . S
C1317 C1319 1.433 . S
C1318 C1314 1.350 . S
C1318 C1315 1.463 . S
C1318 N1322 1.427 . S
C1319 H1309 0.929 . S
C1319 C1317 1.433 . S
C1319 N1322 1.384 . S
C1320 H1311 0.929 . S
C1320 C1312 1.378 . S
C1320 C1315 1.350 . S
C1321 H1308 0.929 . S
C1321 C1313 1.433 . S
C1321 N1323 1.384 . S
N1322 C1318 1.427 . S
N1322 C1319 1.384 . S
N1323 C1315 1.427 . S
N1323 C1321 1.384 . S
H1324 C1330 0.930 . S
H1325 C1334 0.930 . S
H1326 C1339 0.929 . S
H1327 C1337 0.929 . S
H1328 C1332 0.929 . S
H1329 C1338 0.929 . S
C1330 H1324 0.930 . S
C1330 C1331 1.367 . S
C1330 C1338 1.378 . S
C1331 C1330 1.367 . S
C1331 C1339 1.433 . S
C1332 H1328 0.929 . S
C1332 C1334 1.378 . S
C1332 C1336 1.350 . S
C1333 C1336 1.463 . S
C1333 C1338 1.350 . S
C1333 N1341 1.427 . S
C1334 H1325 0.930 . S
C1334 C1332 1.378 . S
C1334 C1335 1.367 . S
C1335 C1334 1.367 . S
C1335 C1337 1.433 . S
C1336 C1332 1.350 . S
C1336 C1333 1.463 . S
C1336 N1340 1.427 . S
C1337 H1327 0.929 . S
C1337 C1335 1.433 . S
C1337 N1340 1.384 . S
C1338 H1329 0.929 . S
C1338 C1330 1.378 . S
C1338 C1333 1.350 . S
C1339 H1326 0.929 . S
C1339 C1331 1.433 . S
C1339 N1341 1.384 . S
N1340 C1336 1.427 . S
N1340 C1337 1.384 . S
N1341 C1333 1.427 . S
N1341 C1339 1.384 . S
H1342 C1348 0.930 . S
H1343 C1352 0.930 . S
H1344 C1357 0.929 . S
H1345 C1355 0.929 . S
H1346 C1350 0.929 . S
H1347 C1356 0.929 . S
C1348 H1342 0.930 . S
C1348 C1349 1.367 . S
C1348 C1356 1.378 . S
C1349 C1348 1.367 . S
C1349 C1357 1.433 . S
C1350 H1346 0.929 . S
C1350 C1352 1.378 . S
C1350 C1354 1.350 . S
C1351 C1354 1.463 . S
C1351 C1356 1.350 . S
C1351 N1359 1.427 . S
C1352 H1343 0.930 . S
C1352 C1350 1.378 . S
C1352 C1353 1.367 . S
C1353 C1352 1.367 . S
C1353 C1355 1.433 . S
C1354 C1350 1.350 . S
C1354 C1351 1.463 . S
C1354 N1358 1.427 . S
C1355 H1345 0.929 . S
C1355 C1353 1.433 . S
C1355 N1358 1.384 . S
C1356 H1347 0.929 . S
C1356 C1348 1.378 . S
C1356 C1351 1.350 . S
C1357 H1344 0.929 . S
C1357 C1349 1.433 . S
C1357 N1359 1.384 . S
N1358 C1354 1.427 . S
N1358 C1355 1.384 . S
N1359 C1351 1.427 . S
N1359 C1357 1.384 . S
H1360 C1366 0.930 . S
H1361 C1370 0.930 . S
H1362 C1375 0.929 . S
H1363 C1373 0.929 . S
H1364 C1368 0.929 . S
H1365 C1374 0.929 . S
C1366 H1360 0.930 . S
C1366 C1367 1.367 . S
C1366 C1374 1.378 1_565 S
C1367 C1366 1.367 . S
C1367 C1375 1.433 . S
C1368 H1364 0.929 . S
C1368 C1370 1.378 . S
C1368 C1372 1.350 . S
C1369 C1372 1.463 . S
C1369 C1374 1.350 . S
C1369 N1377 1.427 . S
C1370 H1361 0.930 . S
C1370 C1368 1.378 . S
C1370 C1371 1.367 . S
C1371 C1370 1.367 . S
C1371 C1373 1.433 . S
C1372 C1368 1.350 . S
C1372 C1369 1.463 . S
C1372 N1376 1.427 . S
C1373 H1363 0.929 . S
C1373 C1371 1.433 . S
C1373 N1376 1.384 . S
C1374 H1365 0.929 . S
C1374 C1366 1.378 1_545 S
C1374 C1369 1.350 . S
C1375 H1362 0.929 . S
C1375 C1367 1.433 . S
C1375 N1377 1.384 1_565 S
N1376 C1372 1.427 . S
N1376 C1373 1.384 . S
N1377 C1369 1.427 . S
N1377 C1375 1.384 1_545 S
H1378 C1384 0.930 . S
H1379 C1388 0.930 . S
H1380 C1393 0.929 . S
H1381 C1391 0.929 . S
H1382 C1386 0.929 . S
H1383 C1392 0.929 . S
C1384 H1378 0.930 . S
C1384 C1385 1.367 . S
C1384 C1392 1.378 . S
C1385 C1384 1.367 . S
C1385 C1393 1.433 . S
C1386 H1382 0.929 . S
C1386 C1388 1.378 1_565 S
C1386 C1390 1.350 . S
C1387 C1390 1.463 . S
C1387 C1392 1.350 . S
C1387 N1395 1.427 . S
C1388 H1379 0.930 . S
C1388 C1386 1.378 1_545 S
C1388 C1389 1.367 . S
C1389 C1388 1.367 . S
C1389 C1391 1.433 . S
C1390 C1386 1.350 . S
C1390 C1387 1.463 . S
C1390 N1394 1.427 . S
C1391 H1381 0.929 . S
C1391 C1389 1.433 . S
C1391 N1394 1.384 1_545 S
C1392 H1383 0.929 . S
C1392 C1384 1.378 . S
C1392 C1387 1.350 . S
C1393 H1380 0.929 . S
C1393 C1385 1.433 . S
C1393 N1395 1.384 . S
N1394 C1390 1.427 . S
N1394 C1391 1.384 1_565 S
N1395 C1387 1.427 . S
N1395 C1393 1.384 . S
H1396 C1402 0.930 . S
H1397 C1406 0.930 . S
H1398 C1411 0.929 . S
H1399 C1409 0.929 . S
H1400 C1404 0.929 . S
H1401 C1410 0.929 . S
C1402 H1396 0.930 . S
C1402 C1403 1.367 . S
C1402 C1410 1.378 1_545 S
C1403 C1402 1.367 . S
C1403 C1411 1.433 . S
C1404 H1400 0.929 . S
C1404 C1406 1.378 . S
C1404 C1408 1.350 . S
C1405 C1408 1.463 . S
C1405 C1410 1.350 . S
C1405 N1413 1.427 . S
C1406 H1397 0.930 . S
C1406 C1404 1.378 . S
C1406 C1407 1.367 . S
C1407 C1406 1.367 . S
C1407 C1409 1.433 . S
C1408 C1404 1.350 . S
C1408 C1405 1.463 . S
C1408 N1412 1.427 . S
C1409 H1399 0.929 . S
C1409 C1407 1.433 . S
C1409 N1412 1.384 . S
C1410 H1401 0.929 . S
C1410 C1402 1.378 1_565 S
C1410 C1405 1.350 . S
C1411 H1398 0.929 . S
C1411 C1403 1.433 . S
C1411 N1413 1.384 1_545 S
N1412 C1408 1.427 . S
N1412 C1409 1.384 . S
N1413 C1405 1.427 . S
N1413 C1411 1.384 1_565 S
H1414 C1420 0.930 . S
H1415 C1424 0.930 . S
H1416 C1429 0.929 . S
H1417 C1427 0.929 . S
H1418 C1422 0.929 . S
H1419 C1428 0.929 . S
C1420 H1414 0.930 . S
C1420 C1421 1.367 . S
C1420 C1428 1.378 1_565 S
C1421 C1420 1.367 . S
C1421 C1429 1.433 . S
C1422 H1418 0.929 . S
C1422 C1424 1.378 . S
C1422 C1426 1.350 . S
C1423 C1426 1.463 . S
C1423 C1428 1.350 . S
C1423 N1431 1.427 . S
C1424 H1415 0.930 . S
C1424 C1422 1.378 . S
C1424 C1425 1.367 . S
C1425 C1424 1.367 . S
C1425 C1427 1.433 . S
C1426 C1422 1.350 . S
C1426 C1423 1.463 . S
C1426 N1430 1.427 . S
C1427 H1417 0.929 . S
C1427 C1425 1.433 . S
C1427 N1430 1.384 . S
C1428 H1419 0.929 . S
C1428 C1420 1.378 1_545 S
C1428 C1423 1.350 . S
C1429 H1416 0.929 . S
C1429 C1421 1.433 . S
C1429 N1431 1.384 1_565 S
N1430 C1426 1.427 . S
N1430 C1427 1.384 . S
N1431 C1423 1.427 . S
N1431 C1429 1.384 1_545 S
H1432 C1438 0.930 . S
H1433 C1442 0.930 . S
H1434 C1447 0.929 . S
H1435 C1445 0.929 . S
H1436 C1440 0.929 . S
H1437 C1446 0.929 . S
C1438 H1432 0.930 . S
C1438 C1439 1.367 . S
C1438 C1446 1.378 . S
C1439 C1438 1.367 . S
C1439 C1447 1.433 . S
C1440 H1436 0.929 . S
C1440 C1442 1.378 1_565 S
C1440 C1444 1.350 . S
C1441 C1444 1.463 . S
C1441 C1446 1.350 . S
C1441 N1449 1.427 . S
C1442 H1433 0.930 . S
C1442 C1440 1.378 1_545 S
C1442 C1443 1.367 . S
C1443 C1442 1.367 . S
C1443 C1445 1.433 . S
C1444 C1440 1.350 . S
C1444 C1441 1.463 . S
C1444 N1448 1.427 . S
C1445 H1435 0.929 . S
C1445 C1443 1.433 . S
C1445 N1448 1.384 1_545 S
C1446 H1437 0.929 . S
C1446 C1438 1.378 . S
C1446 C1441 1.350 . S
C1447 H1434 0.929 . S
C1447 C1439 1.433 . S
C1447 N1449 1.384 . S
N1448 C1444 1.427 . S
N1448 C1445 1.384 1_565 S
N1449 C1441 1.427 . S
N1449 C1447 1.384 . S
H1450 C1456 0.930 . S
H1451 C1460 0.930 . S
H1452 C1465 0.929 . S
H1453 C1463 0.929 . S
H1454 C1458 0.929 . S
H1455 C1464 0.929 . S
C1456 H1450 0.930 . S
C1456 C1457 1.367 . S
C1456 C1464 1.378 . S
C1457 C1456 1.367 . S
C1457 C1465 1.433 . S
C1458 H1454 0.929 . S
C1458 C1460 1.378 1_545 S
C1458 C1462 1.350 . S
C1459 C1462 1.463 . S
C1459 C1464 1.350 . S
C1459 N1467 1.427 . S
C1460 H1451 0.930 . S
C1460 C1458 1.378 1_565 S
C1460 C1461 1.367 . S
C1461 C1460 1.367 . S
C1461 C1463 1.433 . S
C1462 C1458 1.350 . S
C1462 C1459 1.463 . S
C1462 N1466 1.427 . S
C1463 H1453 0.929 . S
C1463 C1461 1.433 . S
C1463 N1466 1.384 1_565 S
C1464 H1455 0.929 . S
C1464 C1456 1.378 . S
C1464 C1459 1.350 . S
C1465 H1452 0.929 . S
C1465 C1457 1.433 . S
C1465 N1467 1.384 . S
N1466 C1462 1.427 . S
N1466 C1463 1.384 1_545 S
N1467 C1459 1.427 . S
N1467 C1465 1.384 . S
H1468 C1474 0.930 . S
H1469 C1478 0.930 . S
H1470 C1483 0.929 . S
H1471 C1481 0.929 . S
H1472 C1476 0.929 . S
H1473 C1482 0.929 . S
C1474 H1468 0.930 . S
C1474 C1475 1.367 . S
C1474 C1482 1.378 1_565 S
C1475 C1474 1.367 . S
C1475 C1483 1.433 . S
C1476 H1472 0.929 . S
C1476 C1478 1.378 . S
C1476 C1480 1.350 . S
C1477 C1480 1.463 . S
C1477 C1482 1.350 . S
C1477 N1485 1.427 . S
C1478 H1469 0.930 . S
C1478 C1476 1.378 . S
C1478 C1479 1.367 . S
C1479 C1478 1.367 . S
C1479 C1481 1.433 . S
C1480 C1476 1.350 . S
C1480 C1477 1.463 . S
C1480 N1484 1.427 . S
C1481 H1471 0.929 . S
C1481 C1479 1.433 . S
C1481 N1484 1.384 . S
C1482 H1473 0.929 . S
C1482 C1474 1.378 1_545 S
C1482 C1477 1.350 . S
C1483 H1470 0.929 . S
C1483 C1475 1.433 . S
C1483 N1485 1.384 1_565 S
N1484 C1480 1.427 . S
N1484 C1481 1.384 . S
N1485 C1477 1.427 . S
N1485 C1483 1.384 1_545 S
H1486 C1492 0.930 . S
H1487 C1496 0.930 . S
H1488 C1501 0.929 . S
H1489 C1499 0.929 . S
H1490 C1494 0.929 . S
H1491 C1500 0.929 . S
C1492 H1486 0.930 . S
C1492 C1493 1.367 . S
C1492 C1500 1.378 . S
C1493 C1492 1.367 . S
C1493 C1501 1.433 . S
C1494 H1490 0.929 . S
C1494 C1496 1.378 1_565 S
C1494 C1498 1.350 . S
C1495 C1498 1.463 . S
C1495 C1500 1.350 . S
C1495 N1503 1.427 . S
C1496 H1487 0.930 . S
C1496 C1494 1.378 1_545 S
C1496 C1497 1.367 . S
C1497 C1496 1.367 . S
C1497 C1499 1.433 . S
C1498 C1494 1.350 . S
C1498 C1495 1.463 . S
C1498 N1502 1.427 . S
C1499 H1489 0.929 . S
C1499 C1497 1.433 . S
C1499 N1502 1.384 1_545 S
C1500 H1491 0.929 . S
C1500 C1492 1.378 . S
C1500 C1495 1.350 . S
C1501 H1488 0.929 . S
C1501 C1493 1.433 . S
C1501 N1503 1.384 . S
N1502 C1498 1.427 . S
N1502 C1499 1.384 1_565 S
N1503 C1495 1.427 . S
N1503 C1501 1.384 . S
C647 C15 2.020 . S
C651 C375 2.021 . S
C665 C55 2.021 . S
C669 C335 2.022 . S
C683 C455 2.028 . S
C687 C95 2.027 . S
C701 C135 2.018 . S
C705 C415 2.018 . S
C719 C526 2.029 . S
C723 C166 2.030 . S
C737 C486 2.031 . S
C741 C206 2.031 . S
C755 C606 2.024 . S
C759 C246 2.023 . S
C773 C286 2.029 . S
C777 C566 2.030 . S
C791 C98 1.513 . S
C795 C18 1.500 . S
C809 C138 1.516 . S
C813 C58 1.502 . S
C827 C249 1.507 . S
C831 C169 1.503 . S
C845 C209 1.513 . S
C849 C289 1.500 . S
C863 C418 1.514 . S
C867 C338 1.508 . S
C881 C458 1.515 . S
C885 C378 1.505 . S
C899 C489 1.506 . S
C903 C569 1.515 . S
C917 C529 1.504 . S
C921 C609 1.516 . S
C935 C218 1.500 . S
C939 C9 1.508 . S
C953 C178 1.507 . S
C957 C49 1.500 . S
C971 C89 1.500 . S
C975 C298 1.508 . S
C989 C258 1.509 . S
C993 C129 1.498 . S
C1007 C329 1.510 . S
C1011 C538 1.498 . S
C1025 C498 1.509 . S
C1029 C369 1.498 . S
C1043 C409 1.500 . S
C1047 C618 1.507 . S
C1061 C578 1.509 . S
C1065 C449 1.498 . S
C1079 C46 2.306 . S
C1083 C6 2.305 . S
C1097 C126 2.295 . S
C1101 C86 2.295 . S
C1115 C215 2.304 . S
C1119 C175 2.305 . S
C1133 C255 2.305 . S
C1137 C295 2.305 . S
C1151 C366 2.296 . S
C1155 C326 2.295 . S
C1169 C446 2.295 . S
C1173 C406 2.295 . S
C1187 C495 2.309 . S
C1191 C535 2.309 . S
C1205 C575 2.295 . S
C1209 C615 2.295 . S
C1223 C10 2.437 . S
C1227 C19 2.437 . S
C1241 C50 2.437 . S
C1245 C59 2.437 . S
C1259 C90 2.436 . S
C1263 C99 2.436 . S
C1277 C139 2.432 . S
C1281 C130 2.432 . S
C1295 C179 2.434 . S
C1299 C170 2.434 . S
C1313 C210 2.430 . S
C1317 C219 2.430 . S
C1331 C259 2.430 . S
C1335 C250 2.430 . S
C1349 C299 2.433 . S
C1353 C290 2.433 . S
C1367 C339 2.436 . S
C1371 C330 2.436 . S
C1385 C370 2.430 . S
C1389 C379 2.430 . S
C1403 C419 2.437 . S
C1407 C410 2.437 . S
C1421 C459 2.436 . S
C1425 C450 2.436 . S
C1439 C499 2.431 . S
C1443 C490 2.431 . S
C1457 C539 2.435 . S
C1461 C530 2.435 . S
C1475 C570 2.431 . S
C1479 C579 2.431 . S
C1493 C619 2.435 . S
C1497 C610 2.435 . S
