# Generated by pormake.
# Topology tsi, (8)-cn, num edge types: 1
# Building blocks:
#     Node 0, Type 0, BuildingBlock: LIZSOE_clean_sbu_0, # of connection points: 8
#     Node 1, Type 0, BuildingBlock: LIZSOE_clean_sbu_0, # of connection points: 8
#     Node 2, Type 0, BuildingBlock: LIZSOE_clean_sbu_0, # of connection points: 8
#     Node 3, Type 0, BuildingBlock: LIZSOE_clean_sbu_0, # of connection points: 8
#     Edge 4, Type (0, 0), BuildingBlock: FUNLAD_clean_linker_1, # of connection points: 2
#     Edge 5, Type (0, 0), BuildingBlock: FUNLAD_clean_linker_1, # of connection points: 2
#     Edge 6, Type (0, 0), BuildingBlock: FUNLAD_clean_linker_1, # of connection points: 2
#     Edge 7, Type (0, 0), BuildingBlock: FUNLAD_clean_linker_1, # of connection points: 2
#     Edge 8, Type (0, 0), BuildingBlock: FUNLAD_clean_linker_1, # of connection points: 2
#     Edge 9, Type (0, 0), BuildingBlock: FUNLAD_clean_linker_1, # of connection points: 2
#     Edge 10, Type (0, 0), BuildingBlock: FUNLAD_clean_linker_1, # of connection points: 2
#     Edge 11, Type (0, 0), BuildingBlock: FUNLAD_clean_linker_1, # of connection points: 2
#     Edge 12, Type (0, 0), BuildingBlock: FUNLAD_clean_linker_1, # of connection points: 2
#     Edge 13, Type (0, 0), BuildingBlock: FUNLAD_clean_linker_1, # of connection points: 2
#     Edge 14, Type (0, 0), BuildingBlock: FUNLAD_clean_linker_1, # of connection points: 2
#     Edge 15, Type (0, 0), BuildingBlock: FUNLAD_clean_linker_1, # of connection points: 2
#     Edge 16, Type (0, 0), BuildingBlock: FUNLAD_clean_linker_1, # of connection points: 2
#     Edge 17, Type (0, 0), BuildingBlock: FUNLAD_clean_linker_1, # of connection points: 2
#     Edge 18, Type (0, 0), BuildingBlock: FUNLAD_clean_linker_1, # of connection points: 2
#     Edge 19, Type (0, 0), BuildingBlock: FUNLAD_clean_linker_1, # of connection points: 2
# Relax obj value: 0.229
# Max RMSD: 0.259
# Mean RMSD: 0.250
data_MOF--net-tsi--node1-LIZSOE_clean_sbu_0--edge1-FUNLAD_clean_linker_1
_symmetry_space_group_name_H-M    P1
_symmetry_Int_Tables_number       1
_symmetry_cell_setting            triclinic
loop_
_symmetry_equiv_pos_as_xyz
'x, y, z'
_cell_length_a     16.346109
_cell_length_b     16.319825
_cell_length_c     68.238699
_cell_angle_alpha  100.65106
_cell_angle_beta   100.0773
_cell_angle_gamma 90.803545
loop_
_atom_site_label
_atom_site_type_symbol
_atom_site_fract_x
_atom_site_fract_y
_atom_site_fract_z
_atom_type_partial_charge
Co0 Co 0.23337 0.40699 0.47163 0.0
N1 N 0.30566 0.34008 0.48538 0.0
C2 C 0.38771 0.35875 0.49214 0.0
N3 N 0.35366 0.26415 0.50895 0.0
C4 C 0.28719 0.28083 0.49576 0.0
C5 C 0.41738 0.31204 0.50655 0.0
Co6 Co 1.01904 0.52192 0.38983 0.0
N7 N 0.93908 0.5727 0.37342 0.0
N8 N 0.8478 0.58779 0.34554 0.0
C9 C 0.89928 0.65642 0.35148 0.0
C10 C 0.95522 0.64663 0.3684 0.0
C11 C 0.87221 0.53866 0.3593 0.0
Co12 Co 0.12332 0.46879 0.43148 0.0
C13 C 0.07051 0.40888 0.38603 0.0
H14 H 1.01014 0.68641 0.37512 0.0
O15 O 0.15745 0.4743 0.46167 0.0
O16 O 1.00391 0.47132 0.43484 0.0
O17 O 0.11029 0.34377 0.42556 0.0
O18 O 0.2432 0.46592 0.42799 0.0
O19 O 0.31322 0.42782 0.456 0.0
O20 O 0.93828 0.49529 0.40495 0.0
O21 O 0.09424 0.46708 0.40202 0.0
O22 O 0.04775 0.62413 0.40865 0.0
O23 O 0.19305 0.31119 0.45213 0.0
O24 O 0.15266 0.39334 0.48454 0.0
O25 O 0.13292 0.59465 0.43607 0.0
O26 O 1.00393 0.42105 0.37355 0.0
C27 C 0.14551 0.29013 0.43511 0.0
C28 C 0.83391 0.45302 0.35781 0.0
H29 H 0.84596 0.43227 0.37255 0.0
H30 H 0.76565 0.45251 0.35252 0.0
H31 H 0.85998 0.40808 0.34648 0.0
C32 C 0.93741 0.47917 0.42249 0.0
C33 C 0.31088 0.44982 0.43893 0.0
H34 H 0.42209 0.40894 0.48836 0.0
H35 H 0.16961 0.27713 0.50554 0.0
H36 H 0.20675 0.17669 0.49703 0.0
H37 H 0.16413 0.23755 0.47873 0.0
C38 C 0.20197 0.24094 0.49399 0.0
C39 C 0.1198 0.45128 0.47552 0.0
C40 C 0.09629 0.64664 0.42578 0.0
H41 H 0.47865 0.31897 0.51595 0.0
H42 H 0.90234 0.7059 0.34299 0.0
Co43 Co 0.12527 0.56679 0.70653 0.0
N44 N 0.05968 0.49942 0.71753 0.0
C45 C 0.08976 0.4307 0.72403 0.0
N46 N 0.97017 0.4492 0.7345 0.0
C47 C 0.98603 0.50918 0.72417 0.0
C48 C 0.03502 0.39934 0.7342 0.0
Co49 Co 0.26349 0.69624 0.63152 0.0
N50 N 0.33402 0.75863 0.62056 0.0
N51 N 0.38959 0.8444 0.6036 0.0
C52 C 0.43582 0.77718 0.60383 0.0
C53 C 0.40198 0.72513 0.61422 0.0
C54 C 0.32719 0.83159 0.61363 0.0
Co55 Co 0.18897 0.63742 0.66909 0.0
C56 C 0.14257 0.66288 0.62421 0.0
H57 H 0.42158 0.66314 0.61548 0.0
O58 O 0.19047 0.6382 0.69916 0.0
O59 O 0.19225 0.76243 0.67568 0.0
O60 O 0.06461 0.63739 0.66238 0.0
O61 O 0.18708 0.51082 0.66273 0.0
O62 O 0.16207 0.47337 0.69118 0.0
O63 O 0.25976 0.7895 0.65199 0.0
O64 O 0.18992 0.63408 0.63901 0.0
O65 O 0.35414 0.65916 0.64716 0.0
O66 O 0.03458 0.57016 0.68574 0.0
O67 O 0.09546 0.66063 0.71948 0.0
O68 O 0.31506 0.63593 0.67554 0.0
O69 O 0.17161 0.72642 0.61813 0.0
C70 C 1.01234 0.60075 0.67002 0.0
C71 C 0.25124 0.88262 0.61339 0.0
H72 H 0.21671 0.87412 0.62544 0.0
H73 H 0.26777 0.94997 0.61535 0.0
H74 H 0.20919 0.86301 0.59855 0.0
C75 C 0.22913 0.81355 0.66776 0.0
C76 C 0.18212 0.45582 0.67376 0.0
H77 H 0.15033 0.40746 0.72253 0.0
H78 H 0.93757 0.62276 0.7377 0.0
H79 H 0.86625 0.5605 0.71731 0.0
H80 H 0.94942 0.62027 0.71187 0.0
C81 C 0.93238 0.58253 0.72249 0.0
C82 C 0.16079 0.68732 0.71373 0.0
C83 C 0.37052 0.63921 0.66449 0.0
H84 H 0.04411 0.3457 0.74144 0.0
H85 H 0.48685 0.76379 0.59571 0.0
Co86 Co 0.3057 0.78223 0.94876 0.0
N87 N 0.25668 0.86462 0.9654 0.0
C88 C 0.18109 0.85233 0.97005 0.0
N89 N 0.24232 0.95795 0.99332 0.0
C90 C 0.29211 0.93063 0.97975 0.0
C91 C 0.1719 0.90943 0.98701 0.0
Co92 Co 0.41383 0.55688 0.86631 0.0
N93 N 0.4791 0.47923 0.85312 0.0
N94 N 0.57216 0.41698 0.83526 0.0
C95 C 0.52488 0.35738 0.83966 0.0
C96 C 0.46698 0.39553 0.85023 0.0
C97 C 0.54373 0.49053 0.84363 0.0
Co98 Co 0.35594 0.67503 0.90669 0.0
C99 C 0.37206 0.67044 0.86166 0.0
H100 H 0.41781 0.36386 0.85508 0.0
O101 O 0.35812 0.70558 0.93625 0.0
O102 O 0.48078 0.68092 0.91236 0.0
O103 O 0.36006 0.79489 0.90359 0.0
O104 O 0.23068 0.67288 0.90191 0.0
O105 O 0.20452 0.75649 0.93013 0.0
O106 O 0.511 0.60368 0.88436 0.0
O107 O 0.35012 0.63745 0.87635 0.0
O108 O 0.39763 0.48403 0.88386 0.0
O109 O 0.33525 0.86114 0.93368 0.0
O110 O 0.40599 0.79479 0.96491 0.0
O111 O 0.35184 0.55635 0.91059 0.0
O112 O 0.42279 0.63031 0.85116 0.0
C113 C 0.35291 0.86177 0.91623 0.0
C114 C 0.57927 0.5745 0.84236 0.0
H115 H 0.5716 0.62286 0.8554 0.0
H116 H 0.64641 0.57228 0.84181 0.0
H117 H 0.54666 0.59386 0.82839 0.0
C118 C 0.5333 0.64998 0.90164 0.0
C119 C 0.18035 0.71094 0.91261 0.0
H120 H 0.13872 0.79958 0.96294 0.0
H121 H 0.42176 0.93787 0.99267 0.0
H122 H 0.38197 1.03436 0.98701 0.0
H123 H 0.40033 0.95281 0.96673 0.0
C124 C 0.37901 0.9658 0.98147 0.0
C125 C 0.41641 0.7276 0.95217 0.0
C126 C 0.37256 0.4882 0.90061 0.0
H127 H 0.12085 0.90927 0.99519 0.0
H128 H 0.5303 0.29085 0.835 0.0
Co129 Co 0.41647 0.30728 0.21203 0.0
N130 N 0.36159 0.25679 0.2292 0.0
C131 C 0.38943 0.18638 0.23522 0.0
N132 N 0.31029 0.24023 0.25706 0.0
C133 C 0.312 0.28767 0.24268 0.0
C134 C 0.35799 0.17578 0.25205 0.0
Co135 Co 0.51049 0.39616 0.12696 0.0
N136 N 0.56192 0.44965 0.10971 0.0
N137 N 0.57953 0.4977 0.08156 0.0
C138 C 0.6436 0.45032 0.08675 0.0
C139 C 0.63236 0.42084 0.10376 0.0
C140 C 0.53169 0.49787 0.09601 0.0
Co141 Co 0.4624 0.35299 0.16951 0.0
C142 C 0.3934 0.3486 0.12533 0.0
H143 H 0.66968 0.37507 0.11027 0.0
O144 O 0.47367 0.36281 0.19923 0.0
O145 O 0.46408 0.47781 0.17286 0.0
O146 O 0.33775 0.35125 0.16601 0.0
O147 O 0.46006 0.22782 0.16623 0.0
O148 O 0.42421 0.20212 0.19501 0.0
O149 O 0.49458 0.50067 0.14348 0.0
O150 O 0.45436 0.33993 0.13981 0.0
O151 O 0.61459 0.38943 0.14408 0.0
O152 O 0.3132 0.32233 0.19537 0.0
O153 O 0.41617 0.41123 0.22616 0.0
O154 O 0.58739 0.35541 0.17291 0.0
O155 O 0.40739 0.39558 0.11272 0.0
C156 C 0.28797 0.33884 0.17781 0.0
C157 C 0.45042 0.53969 0.09565 0.0
H158 H 0.42984 0.5466 0.11046 0.0
H159 H 0.45629 0.60254 0.09189 0.0
H160 H 0.40249 0.5021 0.08372 0.0
C161 C 0.47714 0.5269 0.16101 0.0
C162 C 0.44298 0.17746 0.1775 0.0
H163 H 0.43563 0.14856 0.22885 0.0
H164 H 0.30674 0.41752 0.25497 0.0
H165 H 0.20694 0.36332 0.24634 0.0
H166 H 0.26529 0.38933 0.22812 0.0
C167 C 0.27037 0.36911 0.24288 0.0
C168 C 0.46388 0.42463 0.21361 0.0
C169 C 0.63833 0.37172 0.16164 0.0
H170 H 0.37277 0.12622 0.26045 0.0
H171 H 0.69327 0.43436 0.07834 0.0
H172 H 0.0828 0.57658 0.48922 0.0
C173 C 0.07269 0.51012 0.4885 0.0
H174 H 0.03282 0.4158 0.50255 0.0
H175 H 0.21587 0.61752 0.58875 0.0
H176 H 0.34126 0.59435 0.57508 0.0
H177 H 0.33556 0.53978 0.5387 0.0
H178 H 0.2045 0.51087 0.51586 0.0
C179 C 0.04404 0.48262 0.50389 0.0
C180 C 0.04821 0.53125 0.52517 0.0
C181 C 0.12609 0.54693 0.53874 0.0
C182 C 0.12936 0.57588 0.56003 0.0
C183 C 0.20847 0.59371 0.57273 0.0
C184 C 0.28163 0.58079 0.56505 0.0
C185 C 0.27843 0.5502 0.54458 0.0
C186 C 0.20206 0.53354 0.53157 0.0
H187 H 0.10126 0.53728 0.60579 0.0
C188 C 0.09135 0.60348 0.6068 0.0
H189 H 0.04668 0.69854 0.59111 0.0
H190 H 0.88967 0.50978 0.50407 0.0
H191 H 0.76267 0.5308 0.51791 0.0
H192 H 0.76807 0.57834 0.5546 0.0
H193 H 0.90049 0.6041 0.57785 0.0
C194 C 0.0578 0.63237 0.58973 0.0
C195 C 0.05471 0.5873 0.56814 0.0
C196 C 0.97724 0.57218 0.55455 0.0
C197 C 0.97404 0.54421 0.53325 0.0
C198 C 0.89547 0.52985 0.52031 0.0
C199 C 0.82221 0.5422 0.52804 0.0
C200 C 0.82527 0.56908 0.54871 0.0
C201 C 0.90163 0.58399 0.56187 0.0
H202 H 0.68001 0.35187 0.82665 0.0
C203 C 0.63888 0.402 0.82399 0.0
H204 H 0.60253 0.48926 0.80526 0.0
H205 H 0.9886 0.49347 0.79299 0.0
H206 H 1.01703 0.5739 0.82729 0.0
H207 H 0.90893 0.58684 0.84865 0.0
H208 H 0.77165 0.52074 0.8357 0.0
C209 C 0.64793 0.44482 0.80945 0.0
C210 C 0.71589 0.4291 0.79759 0.0
C211 C 0.79678 0.46581 0.8057 0.0
C212 C 0.85953 0.45695 0.79353 0.0
C213 C 0.93891 0.49707 0.80168 0.0
C214 C 0.95607 0.54361 0.82134 0.0
C215 C 0.89516 0.55113 0.83333 0.0
C216 C 0.8164 0.51293 0.82569 0.0
H217 H 0.84871 0.48217 0.74212 0.0
C218 C 0.90269 0.44561 0.74545 0.0
H219 H 0.9621 0.37086 0.76544 0.0
H220 H 0.56807 0.34887 0.77786 0.0
H221 H 0.54044 0.2657 0.74383 0.0
H222 H 0.65073 0.24623 0.72311 0.0
H223 H 0.7891 0.31024 0.73626 0.0
C224 C 0.90691 0.40346 0.76072 0.0
C225 C 0.84155 0.41024 0.77346 0.0
C226 C 0.76145 0.37136 0.7656 0.0
C227 C 0.69825 0.38163 0.77762 0.0
C228 C 0.61838 0.34309 0.76935 0.0
C229 C 0.60172 0.29506 0.74986 0.0
C230 C 0.6638 0.28413 0.73819 0.0
C231 C 0.74288 0.32154 0.7459 0.0
H232 H 0.46536 0.60076 0.95171 0.0
C233 C 0.47076 0.66439 0.96023 0.0
H234 H 0.51406 0.74439 0.98835 0.0
H235 H 0.44113 0.44821 1.03373 0.0
H236 H 0.29898 0.44197 1.01572 0.0
H237 H 0.26068 0.51789 0.98762 0.0
H238 H 0.36426 0.59813 0.97699 0.0
C239 C 0.50795 0.68045 0.98 0.0
C240 C 0.53169 0.61643 0.99288 0.0
C241 C 0.46931 0.57128 0.99928 0.0
C242 C 0.49049 0.53073 1.01621 0.0
C243 C 0.42784 0.48314 1.02163 0.0
C244 C 0.34604 0.47852 1.01132 0.0
C245 C 0.32457 0.52104 0.99546 0.0
C246 C 0.38504 0.56706 0.98948 0.0
H247 H 0.51478 0.57955 0.06238 0.0
C248 C 0.56051 0.5321 0.06319 0.0
H249 H 0.63946 0.45636 0.0468 0.0
H250 H 0.66729 0.6836 0.98246 0.0
H251 H 0.8106 0.68684 1.00002 0.0
H252 H 0.84642 0.62268 1.03024 0.0
H253 H 0.73975 0.5548 1.04312 0.0
C254 C 0.59423 0.50427 0.04654 0.0
C255 C 0.57304 0.53844 1.02737 0.0
C256 C 0.63628 0.5777 1.01997 0.0
C257 C 0.61554 0.61607 1.00269 0.0
C258 C 0.67982 0.65509 0.99573 0.0
C259 C 0.76217 0.65696 1.00559 0.0
C260 C 0.78235 0.62067 1.02259 0.0
C261 C 0.72044 0.58169 1.0298 0.0
H262 H 0.78441 0.49473 0.32004 0.0
C263 C 0.79538 0.5613 0.3259 0.0
H264 H 0.77235 0.68173 0.31984 0.0
H265 H 0.69488 0.58136 0.22422 0.0
H266 H 0.80069 0.69382 0.23044 0.0
H267 H 0.87004 0.75515 0.26528 0.0
H268 H 0.833 0.70626 0.29414 0.0
C269 C 0.76168 0.61507 0.31428 0.0
C270 C 0.7139 0.58447 0.2932 0.0
C271 C 0.7375 0.61317 0.27642 0.0
C272 C 0.69884 0.57661 0.2562 0.0
C273 C 0.72266 0.60691 0.2398 0.0
C274 C 0.78334 0.67118 0.24316 0.0
C275 C 0.82233 0.70576 0.26279 0.0
C276 C 0.80026 0.67714 0.27926 0.0
H277 H 0.50939 0.55182 0.22768 0.0
C278 C 0.52987 0.49019 0.22209 0.0
H279 H 0.61901 0.40192 0.22748 0.0
H280 H 0.63217 0.53518 0.32125 0.0
H281 H 0.528 0.42151 0.31502 0.0
H282 H 0.47967 0.34118 0.28042 0.0
H283 H 0.53289 0.37633 0.25193 0.0
C284 C 0.60221 0.46625 0.23168 0.0
C285 C 0.63916 0.50947 0.25272 0.0
C286 C 0.61441 0.48194 0.26949 0.0
C287 C 0.64784 0.52302 0.28963 0.0
C288 C 0.61357 0.50171 0.30583 0.0
C289 C 0.55302 0.43725 0.30244 0.0
C290 C 0.52544 0.39243 0.28296 0.0
C291 C 0.55578 0.41403 0.26666 0.0
H292 H 0.22762 0.30719 0.27599 0.0
C293 C 0.27372 0.25999 0.27521 0.0
H294 H 0.34408 0.17821 0.29151 0.0
H295 H 0.20358 0.45801 0.36161 0.0
H296 H 0.29027 0.55938 0.35206 0.0
H297 H 0.36863 0.51879 0.32428 0.0
H298 H 0.35846 0.37662 0.3055 0.0
C299 C 0.29779 0.22512 0.29171 0.0
C300 C 0.26133 0.24722 0.31065 0.0
C301 C 0.27114 0.32961 0.32225 0.0
C302 C 0.22904 0.35194 0.33901 0.0
C303 C 0.23566 0.43625 0.34925 0.0
C304 C 0.28537 0.49548 0.34389 0.0
C305 C 0.32926 0.47273 0.32821 0.0
C306 C 0.32239 0.39096 0.31745 0.0
H307 H 0.19504 0.35534 0.38612 0.0
C308 C 0.13201 0.35251 0.37761 0.0
H309 H 0.05273 0.31315 0.34931 0.0
H310 H 0.23929 0.08085 0.29383 0.0
H311 H 0.16421 0.97576 0.30556 0.0
H312 H 0.09717 1.01312 0.33546 0.0
H313 H 0.1044 0.15654 0.35385 0.0
C314 C 0.11606 0.31659 0.35769 0.0
C315 C 0.1801 0.29071 0.34479 0.0
C316 C 0.17774 0.20671 0.33447 0.0
C317 C 0.21779 0.18495 0.31738 0.0
C318 C 0.21125 0.10083 0.30704 0.0
C319 C 0.16814 0.03984 0.31359 0.0
C320 C 0.1302 0.06092 0.33042 0.0
C321 C 0.13447 0.14333 0.34075 0.0
H322 H 0.2211 0.80295 0.73412 0.0
C323 C 0.21814 0.7353 0.73183 0.0
H324 H 0.22981 0.62917 0.74528 0.0
H325 H 0.43983 0.75383 0.83044 0.0
H326 H 0.55746 0.75936 0.81334 0.0
H327 H 0.53604 0.75691 0.77652 0.0
H328 H 0.39603 0.74867 0.75652 0.0
C329 C 0.23859 0.69683 0.748 0.0
C330 C 0.25134 0.7372 0.77016 0.0
C331 C 0.33244 0.74547 0.78195 0.0
C332 C 0.3446 0.74642 0.8033 0.0
C333 C 0.42688 0.7515 0.81428 0.0
C334 C 0.49493 0.75532 0.80465 0.0
C335 C 0.48288 0.75395 0.7839 0.0
C336 C 0.40263 0.74894 0.7726 0.0
H337 H 0.33217 0.79436 0.85538 0.0
C338 C 0.32034 0.72744 0.85052 0.0
H339 H 0.27677 0.62693 0.82674 0.0
H340 H 0.08785 0.74423 0.75378 0.0
H341 H 0.96961 0.73761 0.77075 0.0
H342 H 0.99066 0.73252 0.80721 0.0
H343 H 0.13048 0.73513 0.82697 0.0
C344 C 0.28571 0.69454 0.83096 0.0
C345 C 0.27536 0.7372 0.81295 0.0
C346 C 0.19441 0.73926 0.8016 0.0
C347 C 0.18236 0.74046 0.78039 0.0
C348 C 0.10024 0.74044 0.76963 0.0
C349 C 1.03204 0.73756 0.77927 0.0
C350 C 0.04387 0.73492 0.79981 0.0
C351 C 0.12405 0.73602 0.81094 0.0
H352 H 0.3345 1.02011 1.01908 0.0
C353 C 0.26829 1.01075 1.01302 0.0
H354 H 0.14787 0.03758 1.01871 0.0
H355 H 0.23726 0.11669 0.11434 0.0
H356 H 0.12391 1.01162 0.10754 0.0
H357 H 0.06633 0.94116 0.07253 0.0
H358 H 0.11995 0.97633 1.04405 0.0
C359 C 0.2142 0.04657 1.02447 0.0
C360 C 0.24354 0.09442 0.04564 0.0
C361 C 0.2121 0.07188 0.0622 0.0
C362 C 0.24644 0.11119 0.08252 0.0
C363 C 0.21343 0.08843 0.09869 0.0
C364 C 0.14861 1.02818 0.095 0.0
C365 C 0.11615 0.98856 0.07527 0.0
C366 C 0.14747 1.00956 0.05903 0.0
H367 H 0.26783 0.30125 0.11089 0.0
C368 C 0.32898 0.28156 0.11681 0.0
H369 H 0.4183 0.19249 0.11208 0.0
H370 H 0.29893 0.17367 1.01795 0.0
H371 H 0.41344 0.27704 1.02476 0.0
H372 H 0.48912 0.32693 0.05967 0.0
H373 H 0.44861 0.27598 0.08787 0.0
C374 C 0.35434 0.20869 0.10751 0.0
C375 C 0.31402 0.1705 0.08634 0.0
C376 C 0.34451 0.19403 0.06979 0.0
C377 C 0.30587 0.15983 0.04951 0.0
C378 C 0.33032 0.19286 1.0335 0.0
C379 C 0.3953 0.25298 1.03722 0.0
C380 C 0.43753 0.28143 0.05686 0.0
C381 C 0.4129 0.25233 0.07298 0.0
H382 H 0.29617 0.23336 0.53329 0.0
C383 C 0.35006 0.22433 0.52591 0.0
H384 H 0.46131 0.16251 0.52451 0.0
H385 H 0.52707 0.07102 0.61099 0.0
H386 H 0.64515 0.16559 0.61282 0.0
H387 H 0.65143 0.24556 0.58572 0.0
H388 H 0.54054 0.23004 0.5564 0.0
C389 C 0.40726 0.17161 0.5318 0.0
C390 C 0.39998 0.12713 0.54875 0.0
C391 C 0.46486 0.13805 0.56596 0.0
C392 C 0.46053 0.09346 0.58185 0.0
C393 C 0.52697 0.10396 0.5986 0.0
C394 C 0.59506 0.15815 0.59986 0.0
C395 C 0.59865 0.20302 0.58458 0.0
C396 C 0.5346 0.19331 0.56779 0.0
H397 H 0.40042 0.87508 0.57448 0.0
C398 C 0.39342 0.90089 0.58995 0.0
H399 H 0.39156 1.01138 0.61152 0.0
H400 H 0.26514 0.08589 0.51769 0.0
H401 H 0.14351 1.00021 0.5173 0.0
H402 H 0.13074 0.93475 0.54652 0.0
H403 H 0.24124 0.95381 0.57588 0.0
C404 C 0.39117 0.9838 0.59575 0.0
C405 C 0.39104 0.03881 0.58062 0.0
C406 C 0.3237 1.03195 0.56412 0.0
C407 C 0.32914 0.07374 0.54786 0.0
C408 C 0.26349 0.05941 0.53088 0.0
C409 C 0.19306 1.00964 0.53042 0.0
C410 C 0.18603 0.97254 0.54679 0.0
C411 C 0.25032 0.98342 0.56348 0.0
H412 H 0.05811 0.18181 0.42203 0.0
C413 C 0.12326 0.20037 0.42773 0.0
H414 H 0.2449 0.16378 0.43541 0.0
H415 H 0.14874 0.84188 0.46608 0.0
H416 H 0.25923 0.91065 0.49265 0.0
H417 H 0.327 0.04323 0.48992 0.0
H418 H 0.27839 0.11166 0.46213 0.0
C419 C 0.18023 0.14238 0.43021 0.0
C420 C 0.15706 0.05175 0.42877 0.0
C421 C 0.18702 1.01199 0.44533 0.0
C422 C 0.15428 0.93109 0.4459 0.0
C423 C 0.17773 0.89844 0.46382 0.0
C424 C 0.23988 0.93826 0.47943 0.0
C425 C 0.27716 1.0133 0.47805 0.0
C426 C 0.24912 0.05155 0.46169 0.0
H427 H 0.18759 0.75175 0.43787 0.0
C428 C 0.12198 0.73625 0.432 0.0
H429 H 1.00415 0.77877 0.42249 0.0
H430 H 0.1068 0.09849 0.39222 0.0
H431 H 1.01075 1.0216 0.36343 0.0
H432 H 0.95314 0.88198 0.36414 0.0
H433 H 0.99101 0.81898 0.3935 0.0
C434 C 0.06939 0.7968 0.4282 0.0
C435 C 0.09817 0.88564 0.42893 0.0
C436 C 0.0723 0.92368 0.41179 0.0
C437 C 0.10291 1.00583 0.41159 0.0
C438 C 0.08116 0.03897 0.39369 0.0
C439 C 1.02722 0.99482 0.37688 0.0
C440 C 0.995 0.9162 0.37727 0.0
C441 C 1.01743 0.88064 0.39436 0.0
H442 H 0.47815 0.61518 0.68748 0.0
C443 C 0.45801 0.62058 0.67175 0.0
H444 H 0.49087 0.61207 0.64286 0.0
H445 H 0.86872 0.71099 0.69102 0.0
H446 H 0.81623 0.84039 0.70639 0.0
H447 H 0.66543 0.86102 0.70211 0.0
H448 H 0.56634 0.75136 0.68285 0.0
C449 C 0.51241 0.61135 0.65878 0.0
C450 C 0.60215 0.59571 0.66421 0.0
C451 C 0.65937 0.66137 0.67514 0.0
C452 C 0.74654 0.65058 0.67693 0.0
C453 C 0.80208 0.71614 0.68861 0.0
C454 C 0.77275 0.79093 0.6976 0.0
C455 C 0.68787 0.80248 0.69523 0.0
C456 C 0.63158 0.73879 0.68413 0.0
H457 H 0.90005 0.64588 0.65246 0.0
C458 C 0.92191 0.6033 0.66253 0.0
H459 H 0.88859 0.51539 0.67931 0.0
H460 H 0.50948 0.45592 0.64334 0.0
H461 H 0.56181 0.32645 0.62748 0.0
H462 H 0.71276 0.3095 0.62961 0.0
H463 H 0.81211 0.42163 0.64759 0.0
C464 C 0.86696 0.56102 0.67007 0.0
C465 C 0.77623 0.57508 0.66722 0.0
C466 C 0.71894 0.50897 0.65667 0.0
C467 C 0.63197 0.51921 0.65522 0.0
C468 C 0.57618 0.45193 0.64461 0.0
C469 C 0.60538 0.37716 0.63553 0.0
C470 C 0.69031 0.36753 0.63676 0.0
C471 C 0.7467 0.43237 0.64719 0.0
H472 H 0.32878 0.41094 0.92058 0.0
C473 C 0.36401 0.41047 0.90845 0.0
H474 H 0.4322 0.33838 0.88849 0.0
H475 H 0.43159 0.08749 0.95416 0.0
H476 H 0.51293 0.19745 0.97888 0.0
H477 H 0.53621 0.33585 0.97062 0.0
H478 H 0.47819 0.3649 0.93758 0.0
C479 C 0.3971 0.33943 0.90063 0.0
C480 C 0.37996 0.258 0.90633 0.0
C481 C 0.41485 0.2419 0.9257 0.0
C482 C 0.4016 0.16188 0.93042 0.0
C483 C 0.43839 0.14724 0.9498 0.0
C484 C 0.48574 0.20976 0.96413 0.0
C485 C 0.49884 0.28766 0.95948 0.0
C486 C 0.46463 0.30366 0.94046 0.0
H487 H 0.39164 0.94515 0.89699 0.0
C488 C 0.36457 0.94334 0.91037 0.0
H489 H 0.31387 1.01261 0.93435 0.0
H490 H 0.30283 0.26913 0.86797 0.0
H491 H 0.21495 0.16198 0.84385 0.0
H492 H 0.18559 1.02597 0.85266 0.0
H493 H 0.24487 0.99594 0.88546 0.0
C494 C 0.3407 1.01441 0.92094 0.0
C495 C 0.35362 0.098 0.91575 0.0
C496 C 0.31604 0.11536 0.89665 0.0
C497 C 0.33075 0.19481 0.89181 0.0
C498 C 0.29378 0.20998 0.87249 0.0
C499 C 0.24282 0.14914 0.85851 0.0
C500 C 0.22644 0.07254 0.86345 0.0
C501 C 0.26185 0.05575 0.8823 0.0
H502 H 0.17737 0.36501 0.15646 0.0
C503 C 0.19764 0.34595 0.17091 0.0
H504 H 0.16036 0.31372 0.19674 0.0
H505 H 0.82431 0.49888 0.19047 0.0
H506 H 0.90727 0.58317 0.2205 0.0
H507 H 0.056 0.5593 0.23052 0.0
H508 H 0.12306 0.45133 0.21046 0.0
C509 C 0.14059 0.33088 0.18205 0.0
C510 C 0.05011 0.34392 0.17584 0.0
C511 C 1.01115 0.40633 0.18795 0.0
C512 C 0.9248 0.41932 0.18234 0.0
C513 C 0.88882 0.48448 0.19429 0.0
C514 C 0.93588 0.53386 0.21152 0.0
C515 C 1.01968 0.52048 0.21715 0.0
C516 C 0.05731 0.45794 0.20552 0.0
H517 H 0.74781 0.34647 0.18348 0.0
C518 C 0.72859 0.36639 0.16909 0.0
H519 H 0.76813 0.4004 0.14371 0.0
H520 H 0.10237 0.21277 0.15037 0.0
H521 H 1.01951 0.12822 0.12039 0.0
H522 H 0.87078 0.15237 0.11031 0.0
H523 H 0.80389 0.26099 0.13025 0.0
C524 C 0.78678 0.38266 0.15837 0.0
C525 C 0.87694 0.3688 0.16479 0.0
C526 C 0.91583 0.3061 0.15274 0.0
C527 C 1.00213 0.29303 0.15836 0.0
C528 C 0.03797 0.22743 0.1465 0.0
C529 C 0.9909 0.17782 0.12931 0.0
C530 C 0.90715 0.19137 0.12364 0.0
C531 C 0.86962 0.25427 0.1352 0.0
H532 H 0.18452 0.92733 0.68528 0.0
C533 C 0.22636 0.90465 0.67496 0.0
H534 H 0.31151 0.93688 0.65726 0.0
H535 H 0.06599 0.25461 0.65607 0.0
H536 H 0.95757 0.1519 0.63773 0.0
H537 H 0.98313 1.00151 0.63281 0.0
H538 H 0.11617 0.95285 0.64657 0.0
C539 C 0.26676 0.95903 0.66684 0.0
C540 C 0.25089 0.04968 0.66943 0.0
C541 C 0.17319 0.077 0.6606 0.0
C542 C 0.15935 0.16391 0.66274 0.0
C543 C 0.08026 0.18949 0.65458 0.0
C544 C 1.01748 0.13119 0.644 0.0
C545 C 1.03182 0.04652 0.64127 0.0
C546 C 0.10857 1.01939 0.64939 0.0
H547 H 0.20873 0.34826 0.65075 0.0
C548 C 0.19979 0.36776 0.66631 0.0
H549 H 0.20061 0.33256 0.69466 0.0
H550 H 0.40922 1.01894 0.68647 0.0
H551 H 0.52055 0.12246 0.70253 0.0
H552 H 0.49756 0.27289 0.705 0.0
H553 H 0.36297 0.32077 0.69167 0.0
C554 C 0.20571 0.31237 0.67888 0.0
C555 C 0.22399 0.2232 0.67303 0.0
C556 C 0.30302 0.19596 0.68071 0.0
C557 C 0.3165 0.1092 0.67896 0.0
C558 C 0.39583 0.08404 0.68713 0.0
C559 C 0.46022 0.14279 0.69644 0.0
C560 C 0.44725 0.22748 0.6979 0.0
C561 C 0.36965 0.25413 0.69023 0.0
H562 H 0.64157 0.72036 0.92241 0.0
C563 C 0.62301 0.67248 0.90891 0.0
H564 H 0.66271 0.59072 0.88496 0.0
H565 H 0.9912 0.77905 0.88085 0.0
H566 H 0.90215 0.80143 0.85018 0.0
H567 H 0.75144 0.76601 0.84401 0.0
H568 H 0.6895 0.70848 0.86858 0.0
C569 C 0.68111 0.63778 0.8986 0.0
C570 C 0.77052 0.66678 0.90369 0.0
C571 C 0.80607 0.70265 0.88947 0.0
C572 C 0.89286 0.72374 0.8931 0.0
C573 C 0.92611 0.76021 0.87871 0.0
C574 C 0.87553 0.77408 0.86108 0.0
C575 C 0.79077 0.75401 0.85759 0.0
C576 C 0.75608 0.71975 0.87167 0.0
H577 H 0.06819 0.64806 0.89189 0.0
C578 C 0.08973 0.69577 0.90528 0.0
H579 H 0.05544 0.78191 0.92927 0.0
H580 H 0.72416 0.59449 0.9336 0.0
H581 H 0.81284 0.57367 0.96443 0.0
H582 H 0.96229 0.61528 0.9714 0.0
H583 H 1.0241 0.67669 0.94739 0.0
C584 C 0.03419 0.73518 0.9157 0.0
C585 C 0.94395 0.70999 0.91112 0.0
C586 C 0.90824 0.67573 0.92556 0.0
C587 C 0.82168 0.65308 0.92173 0.0
C588 C 0.78881 0.61524 0.93596 0.0
C589 C 0.8392 0.6024 0.95371 0.0
C590 C 0.92334 0.62571 0.95762 0.0
C591 C 0.95791 0.6614 0.94372 0.0
H592 H 0.44962 0.63848 0.18226 0.0
C593 C 0.46963 0.61759 0.16785 0.0
H594 H 0.50363 0.65395 0.14211 0.0
H595 H 0.31733 0.99037 0.14849 0.0
H596 H 0.2358 0.90659 0.11818 0.0
H597 H 0.26109 0.75757 0.10795 0.0
H598 H 0.36774 0.69109 0.12807 0.0
C599 C 0.48551 0.67428 0.15676 0.0
C600 C 0.47204 0.76506 0.16301 0.0
C601 C 0.41046 0.80366 0.15085 0.0
C602 C 0.39668 0.89015 0.15658 0.0
C603 C 0.33232 0.92578 0.14458 0.0
C604 C 0.28451 0.87823 0.12719 0.0
C605 C 0.29869 0.79427 0.12144 0.0
C606 C 0.36044 0.75698 0.13312 0.0
H607 H 0.46967 0.06697 0.15577 0.0
C608 C 0.44865 0.0868 0.17009 0.0
H609 H 0.41247 0.04816 0.19533 0.0
H610 H 0.60144 0.7136 0.1886 0.0
H611 H 0.68304 0.79727 0.2189 0.0
H612 H 0.65736 0.94622 0.22921 0.0
H613 H 0.55015 1.01253 0.20918 0.0
C614 C 0.43135 1.02897 0.18074 0.0
C615 C 0.44562 0.93849 0.1743 0.0
C616 C 0.50744 0.89996 0.1864 0.0
C617 C 0.52133 0.81353 0.18065 0.0
C618 C 0.58612 0.77805 0.19257 0.0
C619 C 0.63407 0.8256 0.20994 0.0
C620 C 0.61966 0.90948 0.21573 0.0
C621 C 0.55758 0.94667 0.20412 0.0
H622 H 0.85545 0.44175 0.44222 0.0
C623 C 0.85639 0.46851 0.42881 0.0
H624 H 0.78553 0.51799 0.40516 0.0
H625 H 0.43974 0.34331 0.40418 0.0
H626 H 0.46815 0.28435 0.37097 0.0
H627 H 0.60387 0.31196 0.36177 0.0
H628 H 0.71195 0.39833 0.38578 0.0
C629 C 0.78482 0.49175 0.41865 0.0
C630 C 0.70211 0.4776 0.42434 0.0
C631 C 0.63882 0.42753 0.41002 0.0
C632 C 0.55989 0.41258 0.41521 0.0
C633 C 0.49955 0.35936 0.40087 0.0
C634 C 0.51533 0.3243 0.38177 0.0
C635 C 0.59174 0.33977 0.3766 0.0
C636 C 0.65318 0.39001 0.39053 0.0
H637 H 0.38929 0.48955 0.41866 0.0
C638 C 0.38996 0.4593 0.43161 0.0
H639 H 0.46331 0.40325 0.4537 0.0
H640 H 0.80392 0.58744 0.45441 0.0
H641 H 0.77515 0.64682 0.48754 0.0
H642 H 0.6404 0.61704 0.49693 0.0
H643 H 0.53349 0.52803 0.47316 0.0
C644 C 0.4621 0.43261 0.44061 0.0
C645 C 0.54364 0.44895 0.43463 0.0
C646 C 0.6066 0.49961 0.44889 0.0
C647 C 0.68528 0.51511 0.44365 0.0
C648 C 0.74471 0.57005 0.45782 0.0
C649 C 0.72861 0.60561 0.47686 0.0
C650 C 0.65272 0.58894 0.48213 0.0
C651 C 0.59201 0.53724 0.46835 0.0
loop_
_geom_bond_atom_site_label_1
_geom_bond_atom_site_label_2
_geom_bond_distance
_geom_bond_site_symmetry_2
_ccdc_geom_bond_type
Co0 N1 2.034 . S
Co0 O15 2.262 . S
Co0 O19 1.958 . S
Co0 O23 1.950 . S
Co0 O24 2.057 . S
N1 Co0 2.034 . S
N1 C2 1.366 . S
N1 C4 1.332 . S
C2 N1 1.366 . S
C2 C5 1.377 . S
C2 H34 0.931 . S
N3 C4 1.346 . S
N3 C5 1.337 . S
C4 N1 1.332 . S
C4 N3 1.346 . S
C4 C38 1.361 . S
C5 C2 1.377 . S
C5 N3 1.337 . S
C5 H41 0.930 . S
Co6 N7 2.034 . S
Co6 O20 1.950 . S
Co6 O21 2.262 1_655 S
Co6 O22 1.958 1_655 S
Co6 O26 2.057 1_655 S
N7 Co6 2.034 . S
N7 C10 1.366 . S
N7 C11 1.332 . S
N8 C9 1.337 . S
N8 C11 1.346 . S
C9 N8 1.337 . S
C9 C10 1.377 . S
C9 H42 0.930 . S
C10 N7 1.366 . S
C10 C9 1.377 . S
C10 H14 0.931 . S
C11 N7 1.332 . S
C11 N8 1.346 . S
C11 C28 1.361 . S
Co12 O15 2.097 . S
Co12 O16 2.065 1_455 S
Co12 O17 2.065 . S
Co12 O18 2.042 . S
Co12 O21 2.097 . S
Co12 O25 2.042 . S
C13 O21 1.253 . S
C13 O26 1.263 . S
H14 C10 0.931 . S
O15 Co0 2.262 . S
O15 Co12 2.097 . S
O15 C39 1.253 . S
O16 Co12 2.065 1_655 S
O16 C32 1.221 . S
O17 Co12 2.065 . S
O17 C27 1.221 . S
O18 Co12 2.042 . S
O18 C33 1.237 . S
O19 Co0 1.958 . S
O19 C33 1.278 . S
O20 Co6 1.950 . S
O20 C32 1.277 . S
O21 Co6 2.262 1_455 S
O21 Co12 2.097 . S
O21 C13 1.253 . S
O22 Co6 1.958 1_455 S
O22 C40 1.278 . S
O23 Co0 1.950 . S
O23 C27 1.277 . S
O24 Co0 2.057 . S
O24 C39 1.263 . S
O25 Co12 2.042 . S
O25 C40 1.237 . S
O26 Co6 2.057 1_455 S
O26 C13 1.263 . S
C27 O17 1.221 . S
C27 O23 1.277 . S
C28 C11 1.361 . S
C28 H29 0.960 . S
C28 H30 0.961 . S
C28 H31 0.961 . S
H29 C28 0.960 . S
H30 C28 0.961 . S
H31 C28 0.961 . S
C32 O16 1.221 . S
C32 O20 1.277 . S
C33 O18 1.237 . S
C33 O19 1.278 . S
H34 C2 0.931 . S
H35 C38 0.961 . S
H36 C38 0.961 . S
H37 C38 0.960 . S
C38 C4 1.361 . S
C38 H35 0.961 . S
C38 H36 0.961 . S
C38 H37 0.960 . S
C39 O15 1.253 . S
C39 O24 1.263 . S
C40 O22 1.278 . S
C40 O25 1.237 . S
H41 C5 0.930 . S
H42 C9 0.930 . S
Co43 N44 2.034 . S
Co43 O58 2.262 . S
Co43 O62 1.958 . S
Co43 O66 1.950 . S
Co43 O67 2.057 . S
N44 Co43 2.034 . S
N44 C45 1.366 . S
N44 C47 1.332 . S
C45 N44 1.366 . S
C45 C48 1.377 . S
C45 H77 0.931 . S
N46 C47 1.346 1_655 S
N46 C48 1.337 1_655 S
C47 N44 1.332 . S
C47 N46 1.346 1_455 S
C47 C81 1.361 1_455 S
C48 C45 1.377 . S
C48 N46 1.337 1_455 S
C48 H84 0.930 . S
Co49 N50 2.034 . S
Co49 O63 1.950 . S
Co49 O64 2.262 . S
Co49 O65 1.958 . S
Co49 O69 2.057 . S
N50 Co49 2.034 . S
N50 C53 1.366 . S
N50 C54 1.332 . S
N51 C52 1.337 . S
N51 C54 1.346 . S
C52 N51 1.337 . S
C52 C53 1.377 . S
C52 H85 0.930 . S
C53 N50 1.366 . S
C53 C52 1.377 . S
C53 H57 0.931 . S
C54 N50 1.332 . S
C54 N51 1.346 . S
C54 C71 1.361 . S
Co55 O58 2.097 . S
Co55 O59 2.065 . S
Co55 O60 2.065 . S
Co55 O61 2.042 . S
Co55 O64 2.097 . S
Co55 O68 2.042 . S
C56 O64 1.253 . S
C56 O69 1.263 . S
H57 C53 0.931 . S
O58 Co43 2.262 . S
O58 Co55 2.097 . S
O58 C82 1.253 . S
O59 Co55 2.065 . S
O59 C75 1.221 . S
O60 Co55 2.065 . S
O60 C70 1.221 . S
O61 Co55 2.042 . S
O61 C76 1.237 . S
O62 Co43 1.958 . S
O62 C76 1.278 . S
O63 Co49 1.950 . S
O63 C75 1.277 . S
O64 Co49 2.262 . S
O64 Co55 2.097 . S
O64 C56 1.253 . S
O65 Co49 1.958 . S
O65 C83 1.278 . S
O66 Co43 1.950 . S
O66 C70 1.277 . S
O67 Co43 2.057 . S
O67 C82 1.263 . S
O68 Co55 2.042 . S
O68 C83 1.237 . S
O69 Co49 2.057 . S
O69 C56 1.263 . S
C70 O60 1.221 . S
C70 O66 1.277 . S
C71 C54 1.361 . S
C71 H72 0.960 . S
C71 H73 0.961 . S
C71 H74 0.961 . S
H72 C71 0.960 . S
H73 C71 0.961 . S
H74 C71 0.961 . S
C75 O59 1.221 . S
C75 O63 1.277 . S
C76 O61 1.237 . S
C76 O62 1.278 . S
H77 C45 0.931 . S
H78 C81 0.961 1_455 S
H79 C81 0.961 . S
H80 C81 0.960 1_455 S
C81 C47 1.361 1_655 S
C81 H78 0.961 1_655 S
C81 H79 0.961 . S
C81 H80 0.960 1_655 S
C82 O58 1.253 . S
C82 O67 1.263 . S
C83 O65 1.278 . S
C83 O68 1.237 . S
H84 C48 0.930 . S
H85 C52 0.930 . S
Co86 N87 2.034 . S
Co86 O101 2.262 . S
Co86 O105 1.958 . S
Co86 O109 1.950 . S
Co86 O110 2.057 . S
N87 Co86 2.034 . S
N87 C88 1.366 . S
N87 C90 1.332 . S
C88 N87 1.366 . S
C88 C91 1.377 . S
C88 H120 0.931 . S
N89 C90 1.346 . S
N89 C91 1.337 . S
C90 N87 1.332 . S
C90 N89 1.346 . S
C90 C124 1.361 . S
C91 C88 1.377 . S
C91 N89 1.337 . S
C91 H127 0.930 . S
Co92 N93 2.034 . S
Co92 O106 1.950 . S
Co92 O107 2.262 . S
Co92 O108 1.958 . S
Co92 O112 2.057 . S
N93 Co92 2.034 . S
N93 C96 1.366 . S
N93 C97 1.332 . S
N94 C95 1.337 . S
N94 C97 1.346 . S
C95 N94 1.337 . S
C95 C96 1.377 . S
C95 H128 0.930 . S
C96 N93 1.366 . S
C96 C95 1.377 . S
C96 H100 0.931 . S
C97 N93 1.332 . S
C97 N94 1.346 . S
C97 C114 1.361 . S
Co98 O101 2.097 . S
Co98 O102 2.065 . S
Co98 O103 2.065 . S
Co98 O104 2.042 . S
Co98 O107 2.097 . S
Co98 O111 2.042 . S
C99 O107 1.253 . S
C99 O112 1.263 . S
H100 C96 0.931 . S
O101 Co86 2.262 . S
O101 Co98 2.097 . S
O101 C125 1.253 . S
O102 Co98 2.065 . S
O102 C118 1.221 . S
O103 Co98 2.065 . S
O103 C113 1.221 . S
O104 Co98 2.042 . S
O104 C119 1.237 . S
O105 Co86 1.958 . S
O105 C119 1.278 . S
O106 Co92 1.950 . S
O106 C118 1.277 . S
O107 Co92 2.262 . S
O107 Co98 2.097 . S
O107 C99 1.253 . S
O108 Co92 1.958 . S
O108 C126 1.278 . S
O109 Co86 1.950 . S
O109 C113 1.277 . S
O110 Co86 2.057 . S
O110 C125 1.263 . S
O111 Co98 2.042 . S
O111 C126 1.237 . S
O112 Co92 2.057 . S
O112 C99 1.263 . S
C113 O103 1.221 . S
C113 O109 1.277 . S
C114 C97 1.361 . S
C114 H115 0.960 . S
C114 H116 0.961 . S
C114 H117 0.961 . S
H115 C114 0.960 . S
H116 C114 0.961 . S
H117 C114 0.961 . S
C118 O102 1.221 . S
C118 O106 1.277 . S
C119 O104 1.237 . S
C119 O105 1.278 . S
H120 C88 0.931 . S
H121 C124 0.961 . S
H122 C124 0.961 1_545 S
H123 C124 0.960 . S
C124 C90 1.361 . S
C124 H121 0.961 . S
C124 H122 0.961 1_565 S
C124 H123 0.960 . S
C125 O101 1.253 . S
C125 O110 1.263 . S
C126 O108 1.278 . S
C126 O111 1.237 . S
H127 C91 0.930 . S
H128 C95 0.930 . S
Co129 N130 2.034 . S
Co129 O144 2.262 . S
Co129 O148 1.958 . S
Co129 O152 1.950 . S
Co129 O153 2.057 . S
N130 Co129 2.034 . S
N130 C131 1.366 . S
N130 C133 1.332 . S
C131 N130 1.366 . S
C131 C134 1.377 . S
C131 H163 0.931 . S
N132 C133 1.346 . S
N132 C134 1.337 . S
C133 N130 1.332 . S
C133 N132 1.346 . S
C133 C167 1.361 . S
C134 C131 1.377 . S
C134 N132 1.337 . S
C134 H170 0.930 . S
Co135 N136 2.034 . S
Co135 O149 1.950 . S
Co135 O150 2.262 . S
Co135 O151 1.958 . S
Co135 O155 2.057 . S
N136 Co135 2.034 . S
N136 C139 1.366 . S
N136 C140 1.332 . S
N137 C138 1.337 . S
N137 C140 1.346 . S
C138 N137 1.337 . S
C138 C139 1.377 . S
C138 H171 0.930 . S
C139 N136 1.366 . S
C139 C138 1.377 . S
C139 H143 0.931 . S
C140 N136 1.332 . S
C140 N137 1.346 . S
C140 C157 1.361 . S
Co141 O144 2.097 . S
Co141 O145 2.065 . S
Co141 O146 2.065 . S
Co141 O147 2.042 . S
Co141 O150 2.097 . S
Co141 O154 2.042 . S
C142 O150 1.253 . S
C142 O155 1.263 . S
H143 C139 0.931 . S
O144 Co129 2.262 . S
O144 Co141 2.097 . S
O144 C168 1.253 . S
O145 Co141 2.065 . S
O145 C161 1.221 . S
O146 Co141 2.065 . S
O146 C156 1.221 . S
O147 Co141 2.042 . S
O147 C162 1.237 . S
O148 Co129 1.958 . S
O148 C162 1.278 . S
O149 Co135 1.950 . S
O149 C161 1.277 . S
O150 Co135 2.262 . S
O150 Co141 2.097 . S
O150 C142 1.253 . S
O151 Co135 1.958 . S
O151 C169 1.278 . S
O152 Co129 1.950 . S
O152 C156 1.277 . S
O153 Co129 2.057 . S
O153 C168 1.263 . S
O154 Co141 2.042 . S
O154 C169 1.237 . S
O155 Co135 2.057 . S
O155 C142 1.263 . S
C156 O146 1.221 . S
C156 O152 1.277 . S
C157 C140 1.361 . S
C157 H158 0.960 . S
C157 H159 0.961 . S
C157 H160 0.961 . S
H158 C157 0.960 . S
H159 C157 0.961 . S
H160 C157 0.961 . S
C161 O145 1.221 . S
C161 O149 1.277 . S
C162 O147 1.237 . S
C162 O148 1.278 . S
H163 C131 0.931 . S
H164 C167 0.961 . S
H165 C167 0.961 . S
H166 C167 0.960 . S
C167 C133 1.361 . S
C167 H164 0.961 . S
C167 H165 0.961 . S
C167 H166 0.960 . S
C168 O144 1.253 . S
C168 O153 1.263 . S
C169 O151 1.278 . S
C169 O154 1.237 . S
H170 C134 0.930 . S
H171 C138 0.930 . S
H172 C173 0.951 . S
C173 H172 0.951 . S
C173 C179 1.265 . S
H174 C179 0.950 1_655 S
H175 C183 0.949 1_455 S
H176 C184 0.950 . S
H177 C185 0.951 . S
H178 C186 0.951 . S
C179 C173 1.265 . S
C179 H174 0.950 1_455 S
C179 C180 1.478 . S
C180 C179 1.478 . S
C180 C181 1.397 . S
C180 C197 1.394 . S
C181 C180 1.397 . S
C181 C182 1.438 . S
C181 C186 1.429 1_455 S
C182 C181 1.438 . S
C182 C183 1.428 1_455 S
C182 C195 1.394 . S
C183 H175 0.949 1_655 S
C183 C182 1.428 1_655 S
C183 C184 1.345 . S
C184 H176 0.950 . S
C184 C183 1.345 . S
C184 C185 1.424 . S
C185 H177 0.951 . S
C185 C184 1.424 . S
C185 C186 1.347 . S
C186 H178 0.951 . S
C186 C181 1.429 1_655 S
C186 C185 1.347 . S
H187 C188 0.951 . S
C188 H187 0.951 . S
C188 C194 1.265 . S
H189 C194 0.950 . S
H190 C198 0.949 . S
H191 C199 0.950 . S
H192 C200 0.951 . S
H193 C201 0.951 . S
C194 C188 1.265 . S
C194 H189 0.950 . S
C194 C195 1.478 . S
C195 C182 1.394 . S
C195 C194 1.478 . S
C195 C196 1.397 . S
C196 C195 1.397 . S
C196 C197 1.438 . S
C196 C201 1.429 . S
C197 C180 1.394 . S
C197 C196 1.438 . S
C197 C198 1.428 . S
C198 H190 0.949 . S
C198 C197 1.428 . S
C198 C199 1.345 . S
C199 H191 0.950 . S
C199 C198 1.345 . S
C199 C200 1.424 . S
C200 H192 0.951 . S
C200 C199 1.424 . S
C200 C201 1.347 . S
C201 H193 0.951 . S
C201 C196 1.429 . S
C201 C200 1.347 . S
H202 C203 0.951 . S
C203 H202 0.951 . S
C203 C209 1.265 . S
H204 C209 0.950 . S
H205 C213 0.949 . S
H206 C214 0.950 . S
H207 C215 0.951 . S
H208 C216 0.951 . S
C209 C203 1.265 . S
C209 H204 0.950 . S
C209 C210 1.478 . S
C210 C209 1.478 . S
C210 C211 1.397 . S
C210 C227 1.394 . S
C211 C210 1.397 . S
C211 C212 1.438 . S
C211 C216 1.429 . S
C212 C211 1.438 . S
C212 C213 1.428 . S
C212 C225 1.394 . S
C213 H205 0.949 . S
C213 C212 1.428 . S
C213 C214 1.345 . S
C214 H206 0.950 . S
C214 C213 1.345 . S
C214 C215 1.424 . S
C215 H207 0.951 . S
C215 C214 1.424 . S
C215 C216 1.347 . S
C216 H208 0.951 . S
C216 C211 1.429 . S
C216 C215 1.347 . S
H217 C218 0.951 . S
C218 H217 0.951 . S
C218 C224 1.265 . S
H219 C224 0.950 . S
H220 C228 0.949 . S
H221 C229 0.950 . S
H222 C230 0.951 . S
H223 C231 0.951 . S
C224 C218 1.265 . S
C224 H219 0.950 . S
C224 C225 1.478 . S
C225 C212 1.394 . S
C225 C224 1.478 . S
C225 C226 1.397 . S
C226 C225 1.397 . S
C226 C227 1.438 . S
C226 C231 1.429 . S
C227 C210 1.394 . S
C227 C226 1.438 . S
C227 C228 1.428 . S
C228 H220 0.949 . S
C228 C227 1.428 . S
C228 C229 1.345 . S
C229 H221 0.950 . S
C229 C228 1.345 . S
C229 C230 1.424 . S
C230 H222 0.951 . S
C230 C229 1.424 . S
C230 C231 1.347 . S
C231 H223 0.951 . S
C231 C226 1.429 . S
C231 C230 1.347 . S
H232 C233 0.951 . S
C233 H232 0.951 . S
C233 C239 1.265 . S
H234 C239 0.950 . S
H235 C243 0.949 . S
H236 C244 0.950 . S
H237 C245 0.951 . S
H238 C246 0.951 . S
C239 C233 1.265 . S
C239 H234 0.950 . S
C239 C240 1.478 . S
C240 C239 1.478 . S
C240 C241 1.397 . S
C240 C257 1.394 . S
C241 C240 1.397 . S
C241 C242 1.438 . S
C241 C246 1.429 . S
C242 C241 1.438 . S
C242 C243 1.428 1_556 S
C242 C255 1.394 . S
C243 H235 0.949 . S
C243 C242 1.428 1_554 S
C243 C244 1.345 . S
C244 H236 0.950 . S
C244 C243 1.345 . S
C244 C245 1.424 1_554 S
C245 H237 0.951 . S
C245 C244 1.424 1_556 S
C245 C246 1.347 . S
C246 H238 0.951 . S
C246 C241 1.429 . S
C246 C245 1.347 . S
H247 C248 0.951 . S
C248 H247 0.951 . S
C248 C254 1.265 . S
H249 C254 0.950 . S
H250 C258 0.949 . S
H251 C259 0.950 . S
H252 C260 0.951 . S
H253 C261 0.951 . S
C254 C248 1.265 . S
C254 H249 0.950 . S
C254 C255 1.478 1_554 S
C255 C242 1.394 . S
C255 C254 1.478 1_556 S
C255 C256 1.397 . S
C256 C255 1.397 . S
C256 C257 1.438 . S
C256 C261 1.429 . S
C257 C240 1.394 . S
C257 C256 1.438 . S
C257 C258 1.428 . S
C258 H250 0.949 . S
C258 C257 1.428 . S
C258 C259 1.345 . S
C259 H251 0.950 . S
C259 C258 1.345 . S
C259 C260 1.424 . S
C260 H252 0.951 . S
C260 C259 1.424 . S
C260 C261 1.347 . S
C261 H253 0.951 . S
C261 C256 1.429 . S
C261 C260 1.347 . S
H262 C263 0.951 . S
C263 H262 0.951 . S
C263 C269 1.265 . S
H264 C269 0.950 . S
H265 C273 0.949 . S
H266 C274 0.950 . S
H267 C275 0.951 . S
H268 C276 0.951 . S
C269 C263 1.265 . S
C269 H264 0.950 . S
C269 C270 1.478 . S
C270 C269 1.478 . S
C270 C271 1.397 . S
C270 C287 1.394 . S
C271 C270 1.397 . S
C271 C272 1.438 . S
C271 C276 1.429 . S
C272 C271 1.438 . S
C272 C273 1.428 . S
C272 C285 1.394 . S
C273 H265 0.949 . S
C273 C272 1.428 . S
C273 C274 1.345 . S
C274 H266 0.950 . S
C274 C273 1.345 . S
C274 C275 1.424 . S
C275 H267 0.951 . S
C275 C274 1.424 . S
C275 C276 1.347 . S
C276 H268 0.951 . S
C276 C271 1.429 . S
C276 C275 1.347 . S
H277 C278 0.951 . S
C278 H277 0.951 . S
C278 C284 1.265 . S
H279 C284 0.950 . S
H280 C288 0.949 . S
H281 C289 0.950 . S
H282 C290 0.951 . S
H283 C291 0.951 . S
C284 C278 1.265 . S
C284 H279 0.950 . S
C284 C285 1.478 . S
C285 C272 1.394 . S
C285 C284 1.478 . S
C285 C286 1.397 . S
C286 C285 1.397 . S
C286 C287 1.438 . S
C286 C291 1.429 . S
C287 C270 1.394 . S
C287 C286 1.438 . S
C287 C288 1.428 . S
C288 H280 0.949 . S
C288 C287 1.428 . S
C288 C289 1.345 . S
C289 H281 0.950 . S
C289 C288 1.345 . S
C289 C290 1.424 . S
C290 H282 0.951 . S
C290 C289 1.424 . S
C290 C291 1.347 . S
C291 H283 0.951 . S
C291 C286 1.429 . S
C291 C290 1.347 . S
H292 C293 0.951 . S
C293 H292 0.951 . S
C293 C299 1.265 . S
H294 C299 0.950 . S
H295 C303 0.949 . S
H296 C304 0.950 . S
H297 C305 0.951 . S
H298 C306 0.951 . S
C299 C293 1.265 . S
C299 H294 0.950 . S
C299 C300 1.478 . S
C300 C299 1.478 . S
C300 C301 1.397 . S
C300 C317 1.394 . S
C301 C300 1.397 . S
C301 C302 1.438 . S
C301 C306 1.429 . S
C302 C301 1.438 . S
C302 C303 1.428 . S
C302 C315 1.394 . S
C303 H295 0.949 . S
C303 C302 1.428 . S
C303 C304 1.345 . S
C304 H296 0.950 . S
C304 C303 1.345 . S
C304 C305 1.424 . S
C305 H297 0.951 . S
C305 C304 1.424 . S
C305 C306 1.347 . S
C306 H298 0.951 . S
C306 C301 1.429 . S
C306 C305 1.347 . S
H307 C308 0.951 . S
C308 H307 0.951 . S
C308 C314 1.265 . S
H309 C314 0.950 1_655 S
H310 C318 0.949 . S
H311 C319 0.950 . S
H312 C320 0.951 1_655 S
H313 C321 0.951 . S
C314 C308 1.265 . S
C314 H309 0.950 1_455 S
C314 C315 1.478 . S
C315 C302 1.394 . S
C315 C314 1.478 . S
C315 C316 1.397 . S
C316 C315 1.397 . S
C316 C317 1.438 . S
C316 C321 1.429 . S
C317 C300 1.394 . S
C317 C316 1.438 . S
C317 C318 1.428 . S
C318 H310 0.949 . S
C318 C317 1.428 . S
C318 C319 1.345 . S
C319 H311 0.950 . S
C319 C318 1.345 . S
C319 C320 1.424 . S
C320 H312 0.951 1_455 S
C320 C319 1.424 . S
C320 C321 1.347 . S
C321 H313 0.951 . S
C321 C316 1.429 . S
C321 C320 1.347 . S
H322 C323 0.951 . S
C323 H322 0.951 . S
C323 C329 1.265 . S
H324 C329 0.950 . S
H325 C333 0.949 . S
H326 C334 0.950 . S
H327 C335 0.951 . S
H328 C336 0.951 . S
C329 C323 1.265 . S
C329 H324 0.950 . S
C329 C330 1.478 . S
C330 C329 1.478 . S
C330 C331 1.397 . S
C330 C347 1.394 . S
C331 C330 1.397 . S
C331 C332 1.438 . S
C331 C336 1.429 . S
C332 C331 1.438 . S
C332 C333 1.428 . S
C332 C345 1.394 . S
C333 H325 0.949 . S
C333 C332 1.428 . S
C333 C334 1.345 . S
C334 H326 0.950 . S
C334 C333 1.345 . S
C334 C335 1.424 . S
C335 H327 0.951 . S
C335 C334 1.424 . S
C335 C336 1.347 . S
C336 H328 0.951 . S
C336 C331 1.429 . S
C336 C335 1.347 . S
H337 C338 0.951 . S
C338 H337 0.951 . S
C338 C344 1.265 . S
H339 C344 0.950 . S
H340 C348 0.949 . S
H341 C349 0.950 . S
H342 C350 0.951 . S
H343 C351 0.951 . S
C344 C338 1.265 . S
C344 H339 0.950 . S
C344 C345 1.478 . S
C345 C332 1.394 . S
C345 C344 1.478 . S
C345 C346 1.397 . S
C346 C345 1.397 . S
C346 C347 1.438 . S
C346 C351 1.429 . S
C347 C330 1.394 . S
C347 C346 1.438 . S
C347 C348 1.428 . S
C348 H340 0.949 . S
C348 C347 1.428 . S
C348 C349 1.345 . S
C349 H341 0.950 . S
C349 C348 1.345 . S
C349 C350 1.424 . S
C350 H342 0.951 . S
C350 C349 1.424 . S
C350 C351 1.347 . S
C351 H343 0.951 . S
C351 C346 1.429 . S
C351 C350 1.347 . S
H352 C353 0.951 . S
C353 H352 0.951 . S
C353 C359 1.265 . S
H354 C359 0.950 1_565 S
H355 C363 0.949 . S
H356 C364 0.950 1_565 S
H357 C365 0.951 . S
H358 C366 0.951 . S
C359 C353 1.265 . S
C359 H354 0.950 1_545 S
C359 C360 1.478 . S
C360 C359 1.478 . S
C360 C361 1.397 1_556 S
C360 C377 1.394 . S
C361 C360 1.397 1_554 S
C361 C362 1.438 . S
C361 C366 1.429 1_545 S
C362 C361 1.438 . S
C362 C363 1.428 . S
C362 C375 1.394 . S
C363 H355 0.949 . S
C363 C362 1.428 . S
C363 C364 1.345 . S
C364 H356 0.950 1_545 S
C364 C363 1.345 . S
C364 C365 1.424 1_545 S
C365 H357 0.951 . S
C365 C364 1.424 1_565 S
C365 C366 1.347 . S
C366 H358 0.951 . S
C366 C361 1.429 1_565 S
C366 C365 1.347 . S
H367 C368 0.951 . S
C368 H367 0.951 . S
C368 C374 1.265 . S
H369 C374 0.950 . S
H370 C378 0.949 . S
H371 C379 0.950 . S
H372 C380 0.951 . S
H373 C381 0.951 . S
C374 C368 1.265 . S
C374 H369 0.950 . S
C374 C375 1.478 . S
C375 C362 1.394 . S
C375 C374 1.478 . S
C375 C376 1.397 . S
C376 C375 1.397 . S
C376 C377 1.438 1_554 S
C376 C381 1.429 . S
C377 C360 1.394 . S
C377 C376 1.438 1_556 S
C377 C378 1.428 . S
C378 H370 0.949 . S
C378 C377 1.428 . S
C378 C379 1.345 . S
C379 H371 0.950 . S
C379 C378 1.345 . S
C379 C380 1.424 . S
C380 H372 0.951 . S
C380 C379 1.424 . S
C380 C381 1.347 1_556 S
C381 H373 0.951 . S
C381 C376 1.429 . S
C381 C380 1.347 1_554 S
H382 C383 0.951 . S
C383 H382 0.951 . S
C383 C389 1.265 . S
H384 C389 0.950 . S
H385 C393 0.949 . S
H386 C394 0.950 . S
H387 C395 0.951 . S
H388 C396 0.951 . S
C389 C383 1.265 . S
C389 H384 0.950 . S
C389 C390 1.478 1_545 S
C390 C389 1.478 1_565 S
C390 C391 1.397 1_565 S
C390 C407 1.394 . S
C391 C390 1.397 1_545 S
C391 C392 1.438 1_545 S
C391 C396 1.429 . S
C392 C391 1.438 1_565 S
C392 C393 1.428 . S
C392 C405 1.394 . S
C393 H385 0.949 . S
C393 C392 1.428 . S
C393 C394 1.345 1_565 S
C394 H386 0.950 . S
C394 C393 1.345 1_545 S
C394 C395 1.424 . S
C395 H387 0.951 . S
C395 C394 1.424 . S
C395 C396 1.347 . S
C396 H388 0.951 . S
C396 C391 1.429 . S
C396 C395 1.347 . S
H397 C398 0.951 . S
C398 H397 0.951 . S
C398 C404 1.265 . S
H399 C404 0.950 . S
H400 C408 0.949 . S
H401 C409 0.950 . S
H402 C410 0.951 . S
H403 C411 0.951 . S
C404 C398 1.265 . S
C404 H399 0.950 . S
C404 C405 1.478 . S
C405 C392 1.394 . S
C405 C404 1.478 . S
C405 C406 1.397 . S
C406 C405 1.397 . S
C406 C407 1.438 . S
C406 C411 1.429 . S
C407 C390 1.394 . S
C407 C406 1.438 . S
C407 C408 1.428 . S
C408 H400 0.949 . S
C408 C407 1.428 . S
C408 C409 1.345 . S
C409 H401 0.950 . S
C409 C408 1.345 . S
C409 C410 1.424 . S
C410 H402 0.951 . S
C410 C409 1.424 . S
C410 C411 1.347 . S
C411 H403 0.951 . S
C411 C406 1.429 . S
C411 C410 1.347 . S
H412 C413 0.951 1_655 S
C413 H412 0.951 1_455 S
C413 C419 1.265 . S
H414 C419 0.950 . S
H415 C423 0.949 . S
H416 C424 0.950 . S
H417 C425 0.951 . S
H418 C426 0.951 1_545 S
C419 C413 1.265 . S
C419 H414 0.950 . S
C419 C420 1.478 1_545 S
C420 C419 1.478 1_565 S
C420 C421 1.397 . S
C420 C437 1.394 . S
C421 C420 1.397 . S
C421 C422 1.438 . S
C421 C426 1.429 . S
C422 C421 1.438 . S
C422 C423 1.428 . S
C422 C435 1.394 . S
C423 H415 0.949 . S
C423 C422 1.428 . S
C423 C424 1.345 . S
C424 H416 0.950 . S
C424 C423 1.345 . S
C424 C425 1.424 . S
C425 H417 0.951 . S
C425 C424 1.424 . S
C425 C426 1.347 . S
C426 H418 0.951 1_565 S
C426 C421 1.429 . S
C426 C425 1.347 . S
H427 C428 0.951 . S
C428 H427 0.951 . S
C428 C434 1.265 . S
H429 C434 0.950 1_655 S
H430 C438 0.949 . S
H431 C439 0.950 . S
H432 C440 0.951 . S
H433 C441 0.951 . S
C434 C428 1.265 . S
C434 H429 0.950 1_455 S
C434 C435 1.478 . S
C435 C422 1.394 . S
C435 C434 1.478 . S
C435 C436 1.397 . S
C436 C435 1.397 . S
C436 C437 1.438 . S
C436 C441 1.429 1_455 S
C437 C420 1.394 . S
C437 C436 1.438 . S
C437 C438 1.428 . S
C438 H430 0.949 . S
C438 C437 1.428 . S
C438 C439 1.345 1_455 S
C439 H431 0.950 . S
C439 C438 1.345 1_655 S
C439 C440 1.424 . S
C440 H432 0.951 . S
C440 C439 1.424 . S
C440 C441 1.347 . S
C441 H433 0.951 . S
C441 C436 1.429 1_655 S
C441 C440 1.347 . S
H442 C443 0.951 . S
C443 H442 0.951 . S
C443 C449 1.265 . S
H444 C449 0.950 . S
H445 C453 0.949 . S
H446 C454 0.950 . S
H447 C455 0.951 . S
H448 C456 0.951 . S
C449 C443 1.265 . S
C449 H444 0.950 . S
C449 C450 1.478 . S
C450 C449 1.478 . S
C450 C451 1.397 . S
C450 C467 1.394 . S
C451 C450 1.397 . S
C451 C452 1.438 . S
C451 C456 1.429 . S
C452 C451 1.438 . S
C452 C453 1.428 . S
C452 C465 1.394 . S
C453 H445 0.949 . S
C453 C452 1.428 . S
C453 C454 1.345 . S
C454 H446 0.950 . S
C454 C453 1.345 . S
C454 C455 1.424 . S
C455 H447 0.951 . S
C455 C454 1.424 . S
C455 C456 1.347 . S
C456 H448 0.951 . S
C456 C451 1.429 . S
C456 C455 1.347 . S
H457 C458 0.951 . S
C458 H457 0.951 . S
C458 C464 1.265 . S
H459 C464 0.950 . S
H460 C468 0.949 . S
H461 C469 0.950 . S
H462 C470 0.951 . S
H463 C471 0.951 . S
C464 C458 1.265 . S
C464 H459 0.950 . S
C464 C465 1.478 . S
C465 C452 1.394 . S
C465 C464 1.478 . S
C465 C466 1.397 . S
C466 C465 1.397 . S
C466 C467 1.438 . S
C466 C471 1.429 . S
C467 C450 1.394 . S
C467 C466 1.438 . S
C467 C468 1.428 . S
C468 H460 0.949 . S
C468 C467 1.428 . S
C468 C469 1.345 . S
C469 H461 0.950 . S
C469 C468 1.345 . S
C469 C470 1.424 . S
C470 H462 0.951 . S
C470 C469 1.424 . S
C470 C471 1.347 . S
C471 H463 0.951 . S
C471 C466 1.429 . S
C471 C470 1.347 . S
H472 C473 0.951 . S
C473 H472 0.951 . S
C473 C479 1.265 . S
H474 C479 0.950 . S
H475 C483 0.949 . S
H476 C484 0.950 . S
H477 C485 0.951 . S
H478 C486 0.951 . S
C479 C473 1.265 . S
C479 H474 0.950 . S
C479 C480 1.478 . S
C480 C479 1.478 . S
C480 C481 1.397 . S
C480 C497 1.394 . S
C481 C480 1.397 . S
C481 C482 1.438 . S
C481 C486 1.429 . S
C482 C481 1.438 . S
C482 C483 1.428 . S
C482 C495 1.394 . S
C483 H475 0.949 . S
C483 C482 1.428 . S
C483 C484 1.345 . S
C484 H476 0.950 . S
C484 C483 1.345 . S
C484 C485 1.424 . S
C485 H477 0.951 . S
C485 C484 1.424 . S
C485 C486 1.347 . S
C486 H478 0.951 . S
C486 C481 1.429 . S
C486 C485 1.347 . S
H487 C488 0.951 . S
C488 H487 0.951 . S
C488 C494 1.265 1_565 S
H489 C494 0.949 1_565 S
H490 C498 0.949 . S
H491 C499 0.950 . S
H492 C500 0.951 . S
H493 C501 0.951 . S
C494 C488 1.265 1_545 S
C494 H489 0.949 1_545 S
C494 C495 1.478 . S
C495 C482 1.394 . S
C495 C494 1.478 . S
C495 C496 1.397 . S
C496 C495 1.397 . S
C496 C497 1.438 . S
C496 C501 1.429 . S
C497 C480 1.394 . S
C497 C496 1.438 . S
C497 C498 1.428 . S
C498 H490 0.949 . S
C498 C497 1.428 . S
C498 C499 1.345 . S
C499 H491 0.950 . S
C499 C498 1.345 . S
C499 C500 1.424 . S
C500 H492 0.951 . S
C500 C499 1.424 . S
C500 C501 1.347 . S
C501 H493 0.951 . S
C501 C496 1.429 . S
C501 C500 1.347 . S
H502 C503 0.951 . S
C503 H502 0.951 . S
C503 C509 1.265 . S
H504 C509 0.950 . S
H505 C513 0.949 . S
H506 C514 0.950 . S
H507 C515 0.951 . S
H508 C516 0.951 . S
C509 C503 1.265 . S
C509 H504 0.950 . S
C509 C510 1.478 1_455 S
C510 C509 1.478 1_655 S
C510 C511 1.397 . S
C510 C527 1.394 . S
C511 C510 1.397 . S
C511 C512 1.438 . S
C511 C516 1.429 . S
C512 C511 1.438 . S
C512 C513 1.428 . S
C512 C525 1.394 . S
C513 H505 0.949 . S
C513 C512 1.428 . S
C513 C514 1.345 . S
C514 H506 0.950 . S
C514 C513 1.345 . S
C514 C515 1.424 . S
C515 H507 0.951 . S
C515 C514 1.424 . S
C515 C516 1.347 . S
C516 H508 0.951 . S
C516 C511 1.429 . S
C516 C515 1.347 . S
H517 C518 0.951 . S
C518 H517 0.951 . S
C518 C524 1.265 . S
H519 C524 0.950 . S
H520 C528 0.949 1_455 S
H521 C529 0.950 . S
H522 C530 0.951 . S
H523 C531 0.951 . S
C524 C518 1.265 . S
C524 H519 0.950 . S
C524 C525 1.478 . S
C525 C512 1.394 . S
C525 C524 1.478 . S
C525 C526 1.397 . S
C526 C525 1.397 . S
C526 C527 1.438 . S
C526 C531 1.429 . S
C527 C510 1.394 . S
C527 C526 1.438 . S
C527 C528 1.428 . S
C528 H520 0.949 1_655 S
C528 C527 1.428 . S
C528 C529 1.345 . S
C529 H521 0.950 . S
C529 C528 1.345 . S
C529 C530 1.424 . S
C530 H522 0.951 . S
C530 C529 1.424 . S
C530 C531 1.347 . S
C531 H523 0.951 . S
C531 C526 1.429 . S
C531 C530 1.347 . S
H532 C533 0.951 . S
C533 H532 0.951 . S
C533 C539 1.265 . S
H534 C539 0.950 . S
H535 C543 0.949 . S
H536 C544 0.950 . S
H537 C545 0.951 . S
H538 C546 0.951 . S
C539 C533 1.265 . S
C539 H534 0.950 . S
C539 C540 1.478 . S
C540 C539 1.478 . S
C540 C541 1.397 . S
C540 C557 1.394 1_565 S
C541 C540 1.397 . S
C541 C542 1.438 1_565 S
C541 C546 1.429 . S
C542 C541 1.438 1_545 S
C542 C543 1.428 . S
C542 C555 1.394 . S
C543 H535 0.949 . S
C543 C542 1.428 . S
C543 C544 1.345 . S
C544 H536 0.950 . S
C544 C543 1.345 . S
C544 C545 1.424 1_545 S
C545 H537 0.951 . S
C545 C544 1.424 1_565 S
C545 C546 1.347 . S
C546 H538 0.951 . S
C546 C541 1.429 . S
C546 C545 1.347 . S
H547 C548 0.951 . S
C548 H547 0.951 . S
C548 C554 1.265 . S
H549 C554 0.950 . S
H550 C558 0.949 . S
H551 C559 0.950 1_565 S
H552 C560 0.951 . S
H553 C561 0.951 . S
C554 C548 1.265 . S
C554 H549 0.950 . S
C554 C555 1.478 . S
C555 C542 1.394 . S
C555 C554 1.478 . S
C555 C556 1.397 . S
C556 C555 1.397 . S
C556 C557 1.438 . S
C556 C561 1.429 . S
C557 C540 1.394 1_545 S
C557 C556 1.438 . S
C557 C558 1.428 1_545 S
C558 H550 0.949 . S
C558 C557 1.428 1_565 S
C558 C559 1.345 1_565 S
C559 H551 0.950 1_545 S
C559 C558 1.345 1_545 S
C559 C560 1.424 . S
C560 H552 0.951 . S
C560 C559 1.424 . S
C560 C561 1.347 . S
C561 H553 0.951 . S
C561 C556 1.429 . S
C561 C560 1.347 . S
H562 C563 0.951 . S
C563 H562 0.951 . S
C563 C569 1.265 . S
H564 C569 0.950 . S
H565 C573 0.949 1_455 S
H566 C574 0.950 . S
H567 C575 0.951 . S
H568 C576 0.951 . S
C569 C563 1.265 . S
C569 H564 0.950 . S
C569 C570 1.478 . S
C570 C569 1.478 . S
C570 C571 1.397 . S
C570 C587 1.394 . S
C571 C570 1.397 . S
C571 C572 1.438 . S
C571 C576 1.429 . S
C572 C571 1.438 . S
C572 C573 1.428 . S
C572 C585 1.394 . S
C573 H565 0.949 1_655 S
C573 C572 1.428 . S
C573 C574 1.345 . S
C574 H566 0.950 . S
C574 C573 1.345 . S
C574 C575 1.424 . S
C575 H567 0.951 . S
C575 C574 1.424 . S
C575 C576 1.347 . S
C576 H568 0.951 . S
C576 C571 1.429 . S
C576 C575 1.347 . S
H577 C578 0.951 . S
C578 H577 0.951 . S
C578 C584 1.265 . S
H579 C584 0.950 . S
H580 C588 0.949 . S
H581 C589 0.950 . S
H582 C590 0.951 . S
H583 C591 0.951 1_455 S
C584 C578 1.265 . S
C584 H579 0.950 . S
C584 C585 1.478 1_455 S
C585 C572 1.394 . S
C585 C584 1.478 1_655 S
C585 C586 1.397 . S
C586 C585 1.397 . S
C586 C587 1.438 . S
C586 C591 1.429 . S
C587 C570 1.394 . S
C587 C586 1.438 . S
C587 C588 1.428 . S
C588 H580 0.949 . S
C588 C587 1.428 . S
C588 C589 1.345 . S
C589 H581 0.950 . S
C589 C588 1.345 . S
C589 C590 1.424 . S
C590 H582 0.951 . S
C590 C589 1.424 . S
C590 C591 1.347 . S
C591 H583 0.951 1_655 S
C591 C586 1.429 . S
C591 C590 1.347 . S
H592 C593 0.951 . S
C593 H592 0.951 . S
C593 C599 1.265 . S
H594 C599 0.950 . S
H595 C603 0.949 1_545 S
H596 C604 0.950 . S
H597 C605 0.951 . S
H598 C606 0.951 . S
C599 C593 1.265 . S
C599 H594 0.950 . S
C599 C600 1.478 . S
C600 C599 1.478 . S
C600 C601 1.397 . S
C600 C617 1.394 . S
C601 C600 1.397 . S
C601 C602 1.438 . S
C601 C606 1.429 . S
C602 C601 1.438 . S
C602 C603 1.428 . S
C602 C615 1.394 . S
C603 H595 0.949 1_565 S
C603 C602 1.428 . S
C603 C604 1.345 . S
C604 H596 0.950 . S
C604 C603 1.345 . S
C604 C605 1.424 . S
C605 H597 0.951 . S
C605 C604 1.424 . S
C605 C606 1.347 . S
C606 H598 0.951 . S
C606 C601 1.429 . S
C606 C605 1.347 . S
H607 C608 0.951 . S
C608 H607 0.951 . S
C608 C614 1.265 . S
H609 C614 0.950 . S
H610 C618 0.949 . S
H611 C619 0.950 . S
H612 C620 0.951 . S
H613 C621 0.951 1_545 S
C614 C608 1.265 . S
C614 H609 0.950 . S
C614 C615 1.478 1_545 S
C615 C602 1.394 . S
C615 C614 1.478 1_565 S
C615 C616 1.397 . S
C616 C615 1.397 . S
C616 C617 1.438 . S
C616 C621 1.429 . S
C617 C600 1.394 . S
C617 C616 1.438 . S
C617 C618 1.428 . S
C618 H610 0.949 . S
C618 C617 1.428 . S
C618 C619 1.345 . S
C619 H611 0.950 . S
C619 C618 1.345 . S
C619 C620 1.424 . S
C620 H612 0.951 . S
C620 C619 1.424 . S
C620 C621 1.347 . S
C621 H613 0.951 1_565 S
C621 C616 1.429 . S
C621 C620 1.347 . S
H622 C623 0.951 . S
C623 H622 0.951 . S
C623 C629 1.265 . S
H624 C629 0.950 . S
H625 C633 0.949 . S
H626 C634 0.950 . S
H627 C635 0.951 . S
H628 C636 0.951 . S
C629 C623 1.265 . S
C629 H624 0.950 . S
C629 C630 1.478 . S
C630 C629 1.478 . S
C630 C631 1.397 . S
C630 C647 1.394 . S
C631 C630 1.397 . S
C631 C632 1.438 . S
C631 C636 1.429 . S
C632 C631 1.438 . S
C632 C633 1.428 . S
C632 C645 1.394 . S
C633 H625 0.949 . S
C633 C632 1.428 . S
C633 C634 1.345 . S
C634 H626 0.950 . S
C634 C633 1.345 . S
C634 C635 1.424 . S
C635 H627 0.951 . S
C635 C634 1.424 . S
C635 C636 1.347 . S
C636 H628 0.951 . S
C636 C631 1.429 . S
C636 C635 1.347 . S
H637 C638 0.951 . S
C638 H637 0.951 . S
C638 C644 1.265 . S
H639 C644 0.950 . S
H640 C648 0.949 . S
H641 C649 0.950 . S
H642 C650 0.951 . S
H643 C651 0.951 . S
C644 C638 1.265 . S
C644 H639 0.950 . S
C644 C645 1.478 . S
C645 C632 1.394 . S
C645 C644 1.478 . S
C645 C646 1.397 . S
C646 C645 1.397 . S
C646 C647 1.438 . S
C646 C651 1.429 . S
C647 C630 1.394 . S
C647 C646 1.438 . S
C647 C648 1.428 . S
C648 H640 0.949 . S
C648 C647 1.428 . S
C648 C649 1.345 . S
C649 H641 0.950 . S
C649 C648 1.345 . S
C649 C650 1.424 . S
C650 H642 0.951 . S
C650 C649 1.424 . S
C650 C651 1.347 . S
C651 H643 0.951 . S
C651 C646 1.429 . S
C651 C650 1.347 . S
C173 C39 1.748 . S
C188 C56 1.840 . S
C203 N94 1.483 . S
C218 N46 1.480 . S
C233 C125 1.274 . S
C248 N137 1.558 . S
C263 N8 1.778 . S
C278 C168 1.520 . S
C293 N132 1.567 . S
C308 C13 1.399 . S
C323 C82 1.776 . S
C338 C99 1.768 . S
C353 N89 1.759 1_545 S
C368 C142 1.618 . S
C383 N3 1.461 . S
C398 N51 1.460 . S
C413 C27 1.413 . S
C428 C40 1.407 . S
C443 C83 1.419 . S
C458 C70 1.409 1_655 S
C473 C126 1.556 . S
C488 C113 1.550 . S
C503 C156 1.449 . S
C518 C169 1.463 . S
C533 C75 1.422 . S
C548 C76 1.419 . S
C563 C118 1.402 . S
C578 C119 1.412 . S
C593 C161 1.462 . S
C608 C162 1.461 . S
C623 C32 1.522 . S
C638 C33 1.541 . S
