# Generated by pormake.
# Topology acs-i, (5)-cn, num edge types: 1
# Building blocks:
#     Node 0, Type 0, BuildingBlock: BEQFEK_clean_sbu_0, # of connection points: 5
#     Node 1, Type 0, BuildingBlock: BEQFEK_clean_sbu_0, # of connection points: 5
#     Node 2, Type 0, BuildingBlock: BEQFEK_clean_sbu_0, # of connection points: 5
#     Node 3, Type 0, BuildingBlock: BEQFEK_clean_sbu_0, # of connection points: 5
#     Node 4, Type 0, BuildingBlock: BEQFEK_clean_sbu_0, # of connection points: 5
#     Node 5, Type 0, BuildingBlock: BEQFEK_clean_sbu_0, # of connection points: 5
#     Node 6, Type 0, BuildingBlock: BEQFEK_clean_sbu_0, # of connection points: 5
#     Node 7, Type 0, BuildingBlock: BEQFEK_clean_sbu_0, # of connection points: 5
#     Node 8, Type 0, BuildingBlock: BEQFEK_clean_sbu_0, # of connection points: 5
#     Node 9, Type 0, BuildingBlock: BEQFEK_clean_sbu_0, # of connection points: 5
#     Node 10, Type 0, BuildingBlock: BEQFEK_clean_sbu_0, # of connection points: 5
#     Node 11, Type 0, BuildingBlock: BEQFEK_clean_sbu_0, # of connection points: 5
#     Edge 12, Type (0, 0), BuildingBlock: TEMPAE_clean_linker_10, # of connection points: 2
#     Edge 13, Type (0, 0), BuildingBlock: TEMPAE_clean_linker_10, # of connection points: 2
#     Edge 14, Type (0, 0), BuildingBlock: TEMPAE_clean_linker_10, # of connection points: 2
#     Edge 15, Type (0, 0), BuildingBlock: TEMPAE_clean_linker_10, # of connection points: 2
#     Edge 16, Type (0, 0), BuildingBlock: TEMPAE_clean_linker_10, # of connection points: 2
#     Edge 17, Type (0, 0), BuildingBlock: TEMPAE_clean_linker_10, # of connection points: 2
#     Edge 18, Type (0, 0), BuildingBlock: TEMPAE_clean_linker_10, # of connection points: 2
#     Edge 19, Type (0, 0), BuildingBlock: TEMPAE_clean_linker_10, # of connection points: 2
#     Edge 20, Type (0, 0), BuildingBlock: TEMPAE_clean_linker_10, # of connection points: 2
#     Edge 21, Type (0, 0), BuildingBlock: TEMPAE_clean_linker_10, # of connection points: 2
#     Edge 22, Type (0, 0), BuildingBlock: TEMPAE_clean_linker_10, # of connection points: 2
#     Edge 23, Type (0, 0), BuildingBlock: TEMPAE_clean_linker_10, # of connection points: 2
#     Edge 24, Type (0, 0), BuildingBlock: TEMPAE_clean_linker_10, # of connection points: 2
#     Edge 25, Type (0, 0), BuildingBlock: TEMPAE_clean_linker_10, # of connection points: 2
#     Edge 26, Type (0, 0), BuildingBlock: TEMPAE_clean_linker_10, # of connection points: 2
#     Edge 27, Type (0, 0), BuildingBlock: TEMPAE_clean_linker_10, # of connection points: 2
#     Edge 28, Type (0, 0), BuildingBlock: TEMPAE_clean_linker_10, # of connection points: 2
#     Edge 29, Type (0, 0), BuildingBlock: TEMPAE_clean_linker_10, # of connection points: 2
#     Edge 30, Type (0, 0), BuildingBlock: TEMPAE_clean_linker_10, # of connection points: 2
#     Edge 31, Type (0, 0), BuildingBlock: TEMPAE_clean_linker_10, # of connection points: 2
#     Edge 32, Type (0, 0), BuildingBlock: TEMPAE_clean_linker_10, # of connection points: 2
#     Edge 33, Type (0, 0), BuildingBlock: TEMPAE_clean_linker_10, # of connection points: 2
#     Edge 34, Type (0, 0), BuildingBlock: TEMPAE_clean_linker_10, # of connection points: 2
#     Edge 35, Type (0, 0), BuildingBlock: TEMPAE_clean_linker_10, # of connection points: 2
#     Edge 36, Type (0, 0), BuildingBlock: TEMPAE_clean_linker_10, # of connection points: 2
#     Edge 37, Type (0, 0), BuildingBlock: TEMPAE_clean_linker_10, # of connection points: 2
#     Edge 38, Type (0, 0), BuildingBlock: TEMPAE_clean_linker_10, # of connection points: 2
#     Edge 39, Type (0, 0), BuildingBlock: TEMPAE_clean_linker_10, # of connection points: 2
#     Edge 40, Type (0, 0), BuildingBlock: TEMPAE_clean_linker_10, # of connection points: 2
#     Edge 41, Type (0, 0), BuildingBlock: TEMPAE_clean_linker_10, # of connection points: 2
# Relax obj value: 1.291
# Max RMSD: 0.216
# Mean RMSD: 0.205
data_MOF--net-acs-i--node1-BEQFEK_clean_sbu_0--edge1-TEMPAE_clean_linker_10
_symmetry_space_group_name_H-M    P1
_symmetry_Int_Tables_number       1
_symmetry_cell_setting            triclinic
loop_
_symmetry_equiv_pos_as_xyz
'x, y, z'
_cell_length_a     38.650082
_cell_length_b     45.641822
_cell_length_c     31.713327
_cell_angle_alpha  90.081243
_cell_angle_beta   89.97182
_cell_angle_gamma 115.06553
loop_
_atom_site_label
_atom_site_type_symbol
_atom_site_fract_x
_atom_site_fract_y
_atom_site_fract_z
_atom_type_partial_charge
Co0 Co 0.27588 0.49966 0.99685 0.0
Co1 Co 0.19002 0.48602 0.98396 0.0
C2 C 0.25547 0.5448 0.94767 0.0
O3 O 0.28091 0.53833 0.96545 0.0
O4 O 0.21998 0.52652 0.95166 0.0
C5 C 0.35613 0.529 0.01609 0.0
O6 O 0.35281 0.55634 0.01195 0.0
C7 C 0.12766 0.50353 0.99799 0.0
C8 C 0.07676 0.45682 0.9947 0.0
C9 C 0.08853 0.48934 0.00382 0.0
N10 N 0.13862 0.48063 0.98589 0.0
N11 N 0.10798 0.45284 0.98274 0.0
C12 C 0.15494 0.53716 0.01026 0.0
H13 H 0.18395 0.53856 0.01567 0.0
H14 H 0.14504 0.54509 0.03916 0.0
H15 H 0.15635 0.55397 0.98439 0.0
C16 C 0.25361 0.49466 0.0863 0.0
N17 N 0.24531 0.49387 0.04501 0.0
N18 N 0.20901 0.48764 0.04036 0.0
C19 C 0.19295 0.48396 0.07905 0.0
C20 C 0.22072 0.48837 0.1093 0.0
C21 C 0.29289 0.5031 0.10309 0.0
H22 H 0.30223 0.4842 0.09343 0.0
H23 H 0.31303 0.52637 0.0892 0.0
H24 H 0.29416 0.50544 0.13792 0.0
O25 O 0.25354 0.46244 0.95911 0.0
O26 O 0.19188 0.45001 0.95151 0.0
H27 H 0.1338 0.45646 0.0639 0.0
H28 H 0.14324 0.46464 0.11943 0.0
C29 C 0.1515 0.4747 0.08725 0.0
H30 H 0.14574 0.49643 0.08446 0.0
H31 H 0.1087 0.43082 0.97541 0.0
O32 O 0.32685 0.5024 0.0117 0.0
C33 C 0.22101 0.44477 0.94354 0.0
Co34 Co 0.98616 0.33694 0.81976 0.0
Co35 Co 0.93018 0.28276 0.75908 0.0
C36 C 0.95001 0.35296 0.74562 0.0
O37 O 0.97034 0.36213 0.77868 0.0
O38 O 0.93371 0.32333 0.73573 0.0
C39 C 0.01917 0.39812 0.86055 0.0
O40 O 0.02788 0.40932 0.82198 0.0
C41 C 0.86485 0.25537 0.70486 0.0
C42 C 0.86903 0.21258 0.67724 0.0
C43 C 0.84958 0.23196 0.67406 0.0
N44 N 0.89272 0.25073 0.72483 0.0
N45 N 0.89489 0.22486 0.70855 0.0
C46 C 0.8525 0.28146 0.71583 0.0
H47 H 0.86003 0.28946 0.74896 0.0
H48 H 0.82122 0.27271 0.71123 0.0
H49 H 0.86706 0.30256 0.69489 0.0
C50 C 0.92871 0.29633 0.88219 0.0
N51 N 0.94262 0.30162 0.84253 0.0
N52 N 0.91829 0.27952 0.81737 0.0
C53 C 0.88778 0.25986 0.84014 0.0
C54 C 0.89331 0.26989 0.8821 0.0
C55 C 0.94903 0.31632 0.91949 0.0
H56 H 0.97983 0.32184 0.91797 0.0
H57 H 0.94597 0.33941 0.91893 0.0
H58 H 0.93716 0.30358 0.94953 0.0
O59 O 0.02117 0.32214 0.78826 0.0
O60 O 0.98008 0.28309 0.74731 0.0
H61 H 0.85549 0.21081 0.82115 0.0
H62 H 0.82668 0.23055 0.83992 0.0
C63 C 0.85247 0.23393 0.82145 0.0
H64 H 0.84826 0.23992 0.78877 0.0
H65 H 0.91536 0.21671 0.7171 0.0
O66 O 0.00983 0.36819 0.86688 0.0
C67 C 0.01402 0.30063 0.75947 0.0
Co68 Co 0.45961 0.87575 -0.00013 0.0
Co69 Co 0.41728 0.83362 0.92294 0.0
C70 C 0.37341 0.83662 0.99511 0.0
O71 O 0.40383 0.859 0.00924 0.0
O72 O 0.37408 0.82052 0.96275 0.0
C73 C 0.46179 0.87227 0.08486 0.0
O74 O 0.4364 0.84358 0.07314 0.0
C75 C 0.37212 0.77565 0.87863 0.0
C76 C 0.38449 0.78622 0.81098 0.0
C77 C 0.36279 0.76211 0.83897 0.0
N78 N 0.39737 0.80656 0.87481 0.0
N79 N 0.40471 0.81297 0.83423 0.0
C80 C 0.36006 0.75839 0.91996 0.0
H81 H 0.38175 0.77043 0.94467 0.0
H82 H 0.35604 0.73296 0.91698 0.0
H83 H 0.33248 0.75835 0.92973 0.0
C84 C 0.50122 0.83468 0.99666 0.0
N85 N 0.47509 0.8441 0.98136 0.0
N86 N 0.45869 0.82685 0.9478 0.0
C87 C 0.47368 0.8053 0.94111 0.0
C88 C 0.50107 0.80954 0.97185 0.0
C89 C 0.52305 0.84766 0.03666 0.0
H90 H 0.53213 0.87414 0.03854 0.0
H91 H 0.50424 0.83609 0.06391 0.0
H92 H 0.5486 0.84273 0.0393 0.0
O93 O 0.473 0.90913 0.95707 0.0
O94 O 0.42681 0.87996 0.91274 0.0
H95 H 0.45645 0.79125 0.87711 0.0
H96 H 0.48439 0.77214 0.9004 0.0
C97 C 0.46193 0.78074 0.90643 0.0
H98 H 0.43538 0.75965 0.91564 0.0
H99 H 0.42382 0.83533 0.82246 0.0
O100 O 0.48036 0.89264 0.05659 0.0
C101 C 0.44931 0.90728 0.92824 0.0
Co102 Co 0.71893 0.49302 0.46881 0.0
Co103 Co 0.80419 0.50274 0.47863 0.0
C104 C 0.7465 0.451 0.42268 0.0
O105 O 0.71933 0.45833 0.43275 0.0
O106 O 0.78003 0.46604 0.43768 0.0
C107 C 0.63695 0.46483 0.4688 0.0
O108 O 0.64021 0.43762 0.46282 0.0
C109 C 0.85347 0.47774 0.51779 0.0
C110 C 0.90857 0.52062 0.52379 0.0
C111 C 0.88933 0.48863 0.53628 0.0
N112 N 0.85113 0.50242 0.49695 0.0
N113 N 0.88449 0.52783 0.49968 0.0
C114 C 0.82113 0.44472 0.52091 0.0
H115 H 0.80547 0.43807 0.49061 0.0
H116 H 0.80071 0.44477 0.54545 0.0
H117 H 0.83166 0.42627 0.52897 0.0
C118 C 0.7198 0.486 0.56111 0.0
N119 N 0.73646 0.49016 0.52292 0.0
N120 N 0.77299 0.49724 0.52753 0.0
C121 C 0.78095 0.49914 0.56911 0.0
C122 C 0.74748 0.49126 0.59145 0.0
C123 C 0.67833 0.47736 0.56817 0.0
H124 H 0.67168 0.49743 0.55698 0.0
H125 H 0.66094 0.45545 0.54958 0.0
H126 H 0.67043 0.47263 0.60193 0.0
O127 O 0.75209 0.53541 0.44555 0.0
O128 O 0.81309 0.54414 0.45086 0.0
H129 H 0.84099 0.53047 0.56558 0.0
H130 H 0.82089 0.52572 0.61779 0.0
C131 C 0.82026 0.51307 0.58767 0.0
H132 H 0.82874 0.49334 0.59476 0.0
H133 H 0.89001 0.5506 0.48751 0.0
O134 O 0.66691 0.49111 0.47174 0.0
C135 C 0.78748 0.55338 0.44031 0.0
Co136 Co 0.01233 0.63972 0.29726 0.0
Co137 Co 0.05587 0.69609 0.23303 0.0
C138 C 0.03962 0.629 0.21141 0.0
O139 O 0.02038 0.6188 0.24501 0.0
O140 O 0.05736 0.65894 0.20361 0.0
C141 C 0.02177 0.59202 0.34072 0.0
O142 O 0.04638 0.59915 0.30957 0.0
C143 C 0.11421 0.73728 0.17457 0.0
C144 C 0.11287 0.7849 0.1821 0.0
C145 C 0.13222 0.76928 0.16219 0.0
N146 N 0.08591 0.73404 0.20138 0.0
N147 N 0.08482 0.7625 0.20528 0.0
C148 C 0.12367 0.71001 0.16104 0.0
H149 H 0.09874 0.69161 0.1443 0.0
H150 H 0.12962 0.69846 0.18917 0.0
H151 H 0.14837 0.71801 0.13924 0.0
C152 C 0.07547 0.68287 0.35242 0.0
N153 N 0.05661 0.67628 0.31533 0.0
N154 N 0.07596 0.699 0.28807 0.0
C155 C 0.10864 0.71995 0.30631 0.0
C156 C 0.10934 0.7105 0.3479 0.0
C157 C 0.06073 0.66388 0.39208 0.0
H158 H 0.02911 0.65362 0.39302 0.0
H159 H 0.06977 0.64387 0.39324 0.0
H160 H 0.07249 0.67939 0.42026 0.0
O161 O 0.97114 0.65208 0.28232 0.0
O162 O 0.00117 0.68889 0.2329 0.0
H163 H 0.13256 0.76627 0.27643 0.0
H164 H 0.16778 0.75515 0.3002 0.0
C165 C 0.14041 0.74596 0.2827 0.0
H166 H 0.14473 0.7363 0.25213 0.0
H167 H 0.06583 0.76688 0.22488 0.0
O168 O -0.00031 0.60625 0.34232 0.0
C169 C 0.97084 0.67112 0.25298 0.0
Co170 Co 0.55364 0.14977 0.50728 0.0
Co171 Co 0.58207 0.16885 0.41453 0.0
C172 C 0.62858 0.2003 0.49382 0.0
O173 O 0.60066 0.18727 0.5189 0.0
O174 O 0.62494 0.19385 0.45451 0.0
C175 C 0.55031 0.12012 0.5829 0.0
O176 O 0.58066 0.11964 0.56484 0.0
C177 C 0.61014 0.22341 0.35959 0.0
C178 C 0.62484 0.20611 0.30026 0.0
C179 C 0.62655 0.23363 0.32051 0.0
N180 N 0.59838 0.19133 0.36238 0.0
N181 N 0.60673 0.18089 0.32656 0.0
C182 C 0.61123 0.24455 0.39623 0.0
H183 H 0.64102 0.25692 0.40793 0.0
H184 H 0.59268 0.23013 0.42223 0.0
H185 H 0.60192 0.26337 0.38627 0.0
C186 C 0.49334 0.16705 0.48108 0.0
N187 N 0.52306 0.16049 0.47151 0.0
N188 N 0.53386 0.16877 0.4323 0.0
C189 C 0.51028 0.18064 0.41535 0.0
C190 C 0.48401 0.18014 0.44579 0.0
C191 C 0.47936 0.16609 0.52539 0.0
H192 H 0.50407 0.17592 0.54726 0.0
H193 H 0.46209 0.18002 0.52929 0.0
H194 H 0.46179 0.14055 0.53434 0.0
O195 O 0.56767 0.11807 0.48137 0.0
O196 O 0.58194 0.12479 0.41327 0.0
H197 H 0.48553 0.19117 0.36003 0.0
H198 H 0.53278 0.22044 0.3725 0.0
C199 C 0.5139 0.19419 0.37183 0.0
H200 H 0.52611 0.18198 0.35012 0.0
H201 H 0.60218 0.15699 0.32101 0.0
O202 O 0.53088 0.13206 0.56267 0.0
C203 C 0.57765 0.10907 0.44754 0.0
Co204 Co 0.62987 0.61638 0.20146 0.0
Co205 Co 0.65424 0.67835 0.25744 0.0
C206 C 0.59304 0.61399 0.28504 0.0
O207 O 0.59684 0.59961 0.25216 0.0
O208 O 0.61298 0.64412 0.2906 0.0
C209 C 0.5873 0.55384 0.16577 0.0
O210 O 0.58327 0.54421 0.20523 0.0
C211 C 0.64192 0.72734 0.30479 0.0
C212 C 0.70003 0.75917 0.32704 0.0
C213 C 0.66203 0.75372 0.33049 0.0
N214 N 0.66686 0.71767 0.28706 0.0
N215 N 0.70163 0.73704 0.29992 0.0
C216 C 0.59942 0.70901 0.30111 0.0
H217 H 0.58682 0.70074 0.33276 0.0
H218 H 0.59172 0.68806 0.27959 0.0
H219 H 0.58685 0.72483 0.2881 0.0
C220 C 0.60973 0.65817 0.14355 0.0
N221 N 0.62515 0.65352 0.17967 0.0
N222 N 0.63741 0.6802 0.20221 0.0
C223 C 0.63159 0.70309 0.18059 0.0
C224 C 0.61339 0.68984 0.14278 0.0
C225 C 0.58817 0.63162 0.11303 0.0
H226 H 0.56824 0.61008 0.13061 0.0
H227 H 0.57143 0.63877 0.09025 0.0
H228 H 0.60857 0.62482 0.09557 0.0
O229 O 0.68359 0.62587 0.2165 0.0
O230 O 0.69987 0.66981 0.25627 0.0
H231 H 0.67169 0.7452 0.21281 0.0
H232 H 0.64848 0.75383 0.1682 0.0
C233 C 0.64443 0.73729 0.19524 0.0
H234 H 0.62254 0.73886 0.21656 0.0
H235 H 0.72617 0.73411 0.29196 0.0
O236 O 0.61055 0.5827 0.15727 0.0
C237 C 0.70797 0.64833 0.23901 0.0
Co238 Co 0.78423 0.48642 0.02548 0.0
Co239 Co 0.71032 0.50012 0.02625 0.0
C240 C 0.71715 0.44662 0.07735 0.0
O241 O 0.74992 0.45212 0.06271 0.0
O242 O 0.6995 0.46351 0.06657 0.0
C243 C 0.82928 0.45103 0.01251 0.0
O244 O 0.79576 0.42633 0.01627 0.0
C245 C 0.63327 0.477 0.99387 0.0
C246 C 0.62194 0.52046 0.99315 0.0
C247 C 0.60753 0.48864 0.97921 0.0
N248 N 0.66214 0.50109 0.01368 0.0
N249 N 0.65471 0.52682 0.0142 0.0
C250 C 0.63147 0.44379 0.98812 0.0
H251 H 0.64245 0.43657 0.01664 0.0
H252 H 0.64985 0.44381 0.96125 0.0
H253 H 0.60175 0.42578 0.98204 0.0
C254 C 0.76911 0.48209 0.93387 0.0
N255 N 0.75987 0.48555 0.97397 0.0
N256 N 0.73112 0.49385 0.97398 0.0
C257 C 0.7223 0.49721 0.93365 0.0
C258 C 0.74528 0.48906 0.90724 0.0
C259 C 0.8004 0.47271 0.92141 0.0
H260 H 0.82799 0.49062 0.93417 0.0
H261 H 0.79457 0.44875 0.9351 0.0
H262 H 0.80268 0.47118 0.8867 0.0
O263 O 0.79824 0.52958 0.05142 0.0
O264 O 0.74738 0.54081 0.0524 0.0
H265 H 0.69676 0.53029 0.94434 0.0
H266 H 0.70752 0.52624 0.88995 0.0
C267 C 0.69721 0.51301 0.92006 0.0
H268 H 0.66794 0.49429 0.91453 0.0
H269 H 0.67318 0.54928 0.02633 0.0
O270 O 0.83146 0.47955 0.01595 0.0
C271 C 0.78264 0.54862 0.05992 0.0
Co272 Co 0.47158 0.87416 0.48291 0.0
Co273 Co 0.45795 0.83881 0.57048 0.0
C274 C 0.51446 0.8356 0.51184 0.0
O275 O 0.50831 0.85512 0.48792 0.0
O276 O 0.49483 0.82429 0.54492 0.0
C277 C 0.48145 0.87099 0.39647 0.0
O278 O 0.48254 0.84398 0.40899 0.0
C279 C 0.43532 0.78446 0.62806 0.0
C280 C 0.40448 0.79714 0.67814 0.0
C281 C 0.41304 0.77229 0.66368 0.0
N282 N 0.43983 0.81498 0.62177 0.0
N283 N 0.4223 0.82282 0.65261 0.0
C284 C 0.44651 0.76554 0.59644 0.0
H285 H 0.47799 0.77408 0.59719 0.0
H286 H 0.43842 0.76981 0.56425 0.0
H287 H 0.43306 0.7392 0.60305 0.0
C288 C 0.38965 0.83604 0.47446 0.0
N289 N 0.42208 0.84515 0.49668 0.0
N290 N 0.41519 0.82954 0.53277 0.0
C291 C 0.37764 0.80892 0.53388 0.0
C292 C 0.36033 0.81236 0.4968 0.0
C293 C 0.38671 0.85116 0.4335 0.0
H294 H 0.40535 0.87748 0.43423 0.0
H295 H 0.39644 0.84016 0.40751 0.0
H296 H 0.35693 0.8475 0.42711 0.0
O297 O 0.48808 0.91011 0.5206 0.0
O298 O 0.48857 0.88687 0.58234 0.0
H299 H 0.36035 0.79747 0.59804 0.0
H300 H 0.32935 0.76821 0.56065 0.0
C301 C 0.35939 0.78467 0.56803 0.0
H302 H 0.37549 0.76982 0.57227 0.0
H303 H 0.41979 0.84467 0.65424 0.0
O304 O 0.47548 0.88889 0.42357 0.0
C305 C 0.49673 0.91198 0.55943 0.0
Co306 Co 0.37226 0.38202 0.66951 0.0
Co307 Co 0.3481 0.31997 0.72512 0.0
C308 C 0.41008 0.38468 0.75175 0.0
O309 O 0.40866 0.39906 0.71789 0.0
O310 O 0.38806 0.35502 0.7572 0.0
C311 C 0.41449 0.44365 0.63184 0.0
O312 O 0.42111 0.45361 0.67114 0.0
C313 C 0.36694 0.27823 0.77759 0.0
C314 C 0.31125 0.24335 0.80222 0.0
C315 C 0.35035 0.25402 0.80714 0.0
N316 N 0.33917 0.2824 0.7569 0.0
N317 N 0.30582 0.26123 0.77127 0.0
C318 C 0.40867 0.29751 0.76915 0.0
H319 H 0.41315 0.30721 0.73654 0.0
H320 H 0.42448 0.28236 0.77389 0.0
H321 H 0.42037 0.31824 0.79127 0.0
C322 C 0.38636 0.33832 0.60863 0.0
N323 N 0.37422 0.34405 0.64635 0.0
N324 N 0.36334 0.31781 0.66954 0.0
C325 C 0.36735 0.29435 0.64726 0.0
C326 C 0.38229 0.30656 0.6079 0.0
C327 C 0.40491 0.36377 0.57584 0.0
H328 H 0.38348 0.3715 0.56276 0.0
H329 H 0.42798 0.38516 0.59067 0.0
H330 H 0.41733 0.35507 0.54984 0.0
O331 O 0.31992 0.37377 0.69036 0.0
O332 O 0.30268 0.3279 0.72617 0.0
H333 H 0.32978 0.25279 0.68218 0.0
H334 H 0.35172 0.24347 0.63681 0.0
C335 C 0.35629 0.26071 0.6632 0.0
H336 H 0.37936 0.26045 0.68378 0.0
H337 H 0.27952 0.26032 0.76185 0.0
O338 O 0.38964 0.41512 0.62442 0.0
C339 C 0.29562 0.351 0.71263 0.0
Co340 Co 0.20669 0.49939 0.55044 0.0
Co341 Co 0.27979 0.48597 0.53796 0.0
C342 C 0.28102 0.54333 0.58756 0.0
O343 O 0.24571 0.53557 0.58149 0.0
O344 O 0.29762 0.52674 0.57238 0.0
C345 C 0.1567 0.53149 0.55572 0.0
O346 O 0.18702 0.55556 0.57108 0.0
C347 C 0.35662 0.50501 0.50433 0.0
C348 C 0.3593 0.45824 0.49373 0.0
C349 C 0.37938 0.49124 0.48752 0.0
N350 N 0.32461 0.48133 0.51986 0.0
N351 N 0.32678 0.45344 0.51431 0.0
C352 C 0.36271 0.53956 0.50062 0.0
H353 H 0.33487 0.54109 0.49833 0.0
H354 H 0.38053 0.55131 0.47273 0.0
H355 H 0.37767 0.55285 0.5293 0.0
C356 C 0.20877 0.49917 0.45715 0.0
N357 N 0.22315 0.49657 0.49498 0.0
N358 N 0.2528 0.4899 0.48933 0.0
C359 C 0.25793 0.48774 0.4475 0.0
C360 C 0.2304 0.49373 0.42583 0.0
C361 C 0.17592 0.508 0.45131 0.0
H362 H 0.18136 0.53036 0.46935 0.0
H363 H 0.1715 0.51209 0.41766 0.0
H364 H 0.14953 0.48834 0.46394 0.0
O365 O 0.19633 0.45956 0.58136 0.0
O366 O 0.24596 0.44742 0.57271 0.0
H367 H 0.27969 0.46993 0.39522 0.0
H368 H 0.3153 0.49889 0.42888 0.0
C369 C 0.2869 0.47798 0.42838 0.0
H370 H 0.28836 0.45793 0.44672 0.0
H371 H 0.30508 0.431 0.5222 0.0
O372 O 0.15856 0.50503 0.54688 0.0
C373 C 0.21305 0.44125 0.58811 0.0
Co374 Co 0.53814 0.13159 0.97893 0.0
Co375 Co 0.53594 0.16067 0.06819 0.0
C376 C 0.50598 0.17942 0.99023 0.0
O377 O 0.5179 0.163 0.9671 0.0
O378 O 0.50926 0.17957 0.03013 0.0
C379 C 0.5574 0.13666 0.89445 0.0
O380 O 0.57056 0.16729 0.90527 0.0
C381 C 0.55504 0.21694 0.11964 0.0
C382 C 0.55776 0.20124 0.18488 0.0
C383 C 0.5629 0.22808 0.16072 0.0
N384 N 0.54496 0.18501 0.11931 0.0
N385 N 0.54615 0.17553 0.15848 0.0
C386 C 0.56222 0.23699 0.0804 0.0
H387 H 0.56994 0.22512 0.05381 0.0
H388 H 0.58574 0.26132 0.08508 0.0
H389 H 0.53593 0.23982 0.07201 0.0
C390 C 0.61957 0.15687 0.99693 0.0
N391 N 0.58383 0.15057 0.00891 0.0
N392 N 0.58454 0.16526 0.04488 0.0
C393 C 0.62161 0.18253 0.05599 0.0
C394 C 0.64489 0.17808 0.02548 0.0
C395 C 0.62964 0.14343 0.95809 0.0
H396 H 0.60739 0.11879 0.95144 0.0
H397 H 0.63185 0.15929 0.93083 0.0
H398 H 0.65766 0.14242 0.96203 0.0
O399 O 0.50016 0.09736 0.01104 0.0
O400 O 0.49879 0.11408 0.0769 0.0
H401 H 0.61798 0.19341 0.12115 0.0
H402 H 0.66553 0.21262 0.09934 0.0
C403 C 0.63478 0.20517 0.09276 0.0
H404 H 0.63049 0.22718 0.08579 0.0
H405 H 0.54057 0.15187 0.16697 0.0
O406 O 0.54332 0.11516 0.92274 0.0
C407 C 0.48666 0.09243 0.04819 0.0
C408 C 0.26164 0.38528 0.73032 0.0
C409 C 0.26359 0.35536 0.73277 0.0
C410 C 0.24348 0.39493 0.76216 0.0
C411 C 0.22698 0.37403 0.7968 0.0
C412 C 0.22374 0.34204 0.79577 0.0
C413 C 0.24156 0.33286 0.76326 0.0
C414 C 0.24657 0.42901 0.76146 0.0
C415 C 0.2051 0.31855 0.83121 0.0
C416 C 0.25183 0.41653 0.90167 0.0
C417 C 0.21905 0.42121 0.91076 0.0
C418 C 0.2541 0.40035 0.86518 0.0
C419 C 0.22242 0.38789 0.83748 0.0
C420 C 0.1881 0.39024 0.84811 0.0
C421 C 0.18684 0.407 0.88477 0.0
C422 C 0.29128 0.39824 0.85524 0.0
C423 C 0.1533 0.37614 0.82026 0.0
H424 H 0.27773 0.40253 0.70625 0.0
H425 H 0.24163 0.30915 0.76458 0.0
H426 H 0.21992 0.42982 0.773 0.0
H427 H 0.27015 0.44439 0.78266 0.0
H428 H 0.25274 0.43953 0.72925 0.0
H429 H 0.19561 0.2931 0.8206 0.0
H430 H 0.22599 0.32308 0.85717 0.0
H431 H 0.18015 0.32163 0.84407 0.0
H432 H 0.27667 0.42701 0.92198 0.0
H433 H 0.16126 0.41025 0.89192 0.0
H434 H 0.30317 0.41094 0.82517 0.0
H435 H 0.28629 0.37262 0.8512 0.0
H436 H 0.31306 0.40913 0.88034 0.0
H437 H 0.16072 0.38574 0.78786 0.0
H438 H 0.12958 0.38164 0.8319 0.0
H439 H 0.14303 0.34952 0.81872 0.0
C440 C 0.08101 0.30764 0.74569 0.0
C441 C 0.04508 0.30308 0.73072 0.0
C442 C 0.11276 0.31931 0.71851 0.0
C443 C 0.10885 0.32936 0.67738 0.0
C444 C 0.07188 0.32014 0.66058 0.0
C445 C 0.04024 0.30668 0.68743 0.0
C446 C 0.15119 0.32422 0.73472 0.0
C447 C 0.0661 0.32849 0.61594 0.0
C448 C 0.17073 0.41603 0.64837 0.0
C449 C 0.19291 0.41287 0.61536 0.0
C450 C 0.14492 0.38905 0.67008 0.0
C451 C 0.14109 0.35777 0.65863 0.0
C452 C 0.16551 0.35453 0.62734 0.0
C453 C 0.19135 0.38231 0.60598 0.0
C454 C 0.11956 0.39416 0.7029 0.0
C455 C 0.16293 0.32197 0.61398 0.0
H456 H 0.08462 0.30375 0.7788 0.0
H457 H 0.01226 0.30253 0.67541 0.0
H458 H 0.16525 0.3142 0.71204 0.0
H459 H 0.1694 0.35047 0.7373 0.0
H460 H 0.14901 0.31241 0.76577 0.0
H461 H 0.03635 0.31404 0.60502 0.0
H462 H 0.07207 0.3545 0.61431 0.0
H463 H 0.0861 0.32437 0.59418 0.0
H464 H 0.1723 0.43974 0.65601 0.0
H465 H 0.20849 0.37981 0.58035 0.0
H466 H 0.11793 0.38003 0.73176 0.0
H467 H 0.09016 0.38573 0.69015 0.0
H468 H 0.12975 0.42 0.71196 0.0
H469 H 0.14887 0.30293 0.63794 0.0
H470 H 0.19186 0.32347 0.60735 0.0
H471 H 0.14623 0.31457 0.58429 0.0
C472 C 0.42369 0.05391 0.0273 0.0
C473 C 0.45469 0.06087 0.0547 0.0
C474 C 0.40872 0.0249 0.00443 0.0
C475 C 0.42349 0.00188 0.01185 0.0
C476 C 0.44768 0.00577 0.0471 0.0
C477 C 0.46354 0.0357 0.06801 0.0
C478 C 0.3826 0.02192 0.96774 0.0
C479 C 0.46186 0.9806 0.05815 0.0
C480 C 0.40053 0.92417 0.95247 0.0
C481 C 0.43523 0.93241 0.93102 0.0
C482 C 0.3944 0.94716 0.97692 0.0
C483 C 0.42282 0.9793 0.97779 0.0
C484 C 0.45476 0.98867 0.95031 0.0
C485 C 0.46113 0.96485 0.92806 0.0
C486 C 0.36014 0.93601 0.00577 0.0
C487 C 0.48457 0.02325 0.94813 0.0
H488 H 0.41644 0.07342 0.01756 0.0
H489 H 0.48707 0.04087 0.08975 0.0
H490 H 0.36476 0.99637 0.95912 0.0
H491 H 0.36368 0.03403 0.97492 0.0
H492 H 0.40022 0.03415 0.93991 0.0
H493 H 0.47287 0.98368 0.09099 0.0
H494 H 0.4388 0.95584 0.05451 0.0
H495 H 0.48547 0.98296 0.0365 0.0
H496 H 0.38053 0.89894 0.95505 0.0
H497 H 0.48797 0.97115 0.91166 0.0
H498 H 0.3485 0.95436 0.00818 0.0
H499 H 0.36896 0.93239 0.03791 0.0
H500 H 0.33711 0.91275 0.99498 0.0
H501 H 0.50362 0.02739 0.92037 0.0
H502 H 0.50243 0.02908 0.97703 0.0
H503 H 0.47085 0.04021 0.94643 0.0
C504 C 0.82943 0.59604 0.39064 0.0
C505 C 0.79746 0.58374 0.41706 0.0
C506 C 0.83146 0.6174 0.35795 0.0
C507 C 0.80062 0.62585 0.3516 0.0
C508 C 0.77177 0.6178 0.38278 0.0
C509 C 0.77071 0.5969 0.41532 0.0
C510 C 0.86433 0.62734 0.32778 0.0
C511 C 0.73906 0.62754 0.37888 0.0
C512 C 0.77184 0.67203 0.2739 0.0
C513 C 0.74301 0.64584 0.25312 0.0
C514 C 0.79697 0.6669 0.30168 0.0
C515 C 0.79217 0.63494 0.30922 0.0
C516 C 0.76825 0.60969 0.28226 0.0
C517 C 0.74368 0.61543 0.25449 0.0
C518 C 0.8249 0.69493 0.32691 0.0
C519 C 0.76404 0.57546 0.28735 0.0
H520 H 0.85092 0.58669 0.39272 0.0
H521 H 0.74678 0.58843 0.43705 0.0
H522 H 0.89168 0.63604 0.34545 0.0
H523 H 0.86156 0.60563 0.3098 0.0
H524 H 0.86539 0.64652 0.30569 0.0
H525 H 0.72119 0.62185 0.40781 0.0
H526 H 0.74998 0.65383 0.37269 0.0
H527 H 0.72052 0.61451 0.352 0.0
H528 H 0.77247 0.69596 0.27166 0.0
H529 H 0.72231 0.59527 0.23747 0.0
H530 H 0.85028 0.69087 0.33592 0.0
H531 H 0.8109 0.69772 0.35622 0.0
H532 H 0.83438 0.71785 0.30883 0.0
H533 H 0.79229 0.57512 0.29188 0.0
H534 H 0.74992 0.56023 0.25957 0.0
H535 H 0.74643 0.56449 0.31568 0.0
C536 C 0.90412 0.63419 0.23627 0.0
C537 C 0.93377 0.66532 0.2335 0.0
C538 C 0.87342 0.62374 0.20823 0.0
C539 C 0.8732 0.64451 0.17529 0.0
C540 C 0.90033 0.67721 0.17537 0.0
C541 C 0.93065 0.6873 0.20448 0.0
C542 C 0.84407 0.58896 0.21046 0.0
C543 C 0.89956 0.70052 0.14219 0.0
C544 C 0.84602 0.59091 0.08069 0.0
C545 C 0.80619 0.57949 0.08133 0.0
C546 C 0.86901 0.61559 0.10784 0.0
C547 C 0.85168 0.6292 0.13645 0.0
C548 C 0.81205 0.62076 0.13338 0.0
C549 C 0.78958 0.59584 0.10568 0.0
C550 C 0.91132 0.62416 0.10928 0.0
C551 C 0.79321 0.63667 0.16103 0.0
H552 H 0.90672 0.61672 0.25758 0.0
H553 H 0.95341 0.71149 0.20225 0.0
H554 H 0.81484 0.58764 0.2076 0.0
H555 H 0.84846 0.57504 0.1839 0.0
H556 H 0.84593 0.57708 0.24036 0.0
H557 H 0.91589 0.72603 0.15236 0.0
H558 H 0.9126 0.69674 0.11271 0.0
H559 H 0.86974 0.69635 0.13494 0.0
H560 H 0.85918 0.57915 0.06078 0.0
H561 H 0.75886 0.58779 0.10524 0.0
H562 H 0.91793 0.61382 0.1382 0.0
H563 H 0.92818 0.65075 0.11043 0.0
H564 H 0.92086 0.61458 0.08157 0.0
H565 H 0.76156 0.62359 0.16033 0.0
H566 H 0.80135 0.66174 0.14981 0.0
H567 H 0.80317 0.63834 0.1941 0.0
C568 C 0.51554 0.96878 0.57722 0.0
C569 C 0.52637 0.94345 0.57174 0.0
C570 C 0.53741 -0.0008 0.55943 0.0
C571 C 0.56953 0.00342 0.53424 0.0
C572 C 0.58389 0.97965 0.5349 0.0
C573 C 0.5627 0.95021 0.55535 0.0
C574 C 0.52309 0.02517 0.56265 0.0
C575 C 0.61791 0.98283 0.50873 0.0
C576 C 0.56301 0.05118 0.44045 0.0
C577 C 0.5886 0.08224 0.45257 0.0
C578 C 0.56014 0.02424 0.46413 0.0
C579 C 0.5823 0.02905 0.50143 0.0
C580 C 0.61168 0.05988 0.51017 0.0
C581 C 0.61517 0.08601 0.48471 0.0
C582 C 0.53008 0.99123 0.45218 0.0
C583 C 0.63572 0.06651 0.54959 0.0
H584 H 0.4876 0.96367 0.59021 0.0
H585 H 0.5711 0.9305 0.55125 0.0
H586 H 0.54729 0.04937 0.566 0.0
H587 H 0.50734 0.02527 0.53344 0.0
H588 H 0.50348 0.021 0.58989 0.0
H589 H 0.63207 0.96827 0.52225 0.0
H590 H 0.608 0.9736 0.47648 0.0
H591 H 0.6392 0.00834 0.5059 0.0
H592 H 0.54238 0.04825 0.41578 0.0
H593 H 0.63492 0.11025 0.49412 0.0
H594 H 0.50467 0.98502 0.47268 0.0
H595 H 0.5409 0.97248 0.45684 0.0
H596 H 0.52091 0.99046 0.41884 0.0
H597 H 0.6413 0.04549 0.55879 0.0
H598 H 0.62022 0.07167 0.57594 0.0
H599 H 0.66345 0.08796 0.54552 0.0
C600 C 0.05762 0.49223 0.07077 0.0
C601 C 0.06778 0.50333 0.02952 0.0
C602 C 0.04771 0.51042 0.09999 0.0
C603 C 0.04688 0.53978 0.08699 0.0
C604 C 0.05371 0.54943 0.04423 0.0
C605 C 0.06505 0.53143 0.01612 0.0
C606 C 0.04183 0.49979 0.14552 0.0
C607 C 0.05143 0.57981 0.02876 0.0
C608 C 0.00738 0.58141 0.16452 0.0
C609 C 0.04114 0.60571 0.18046 0.0
C610 C 0.00861 0.56007 0.13324 0.0
C611 C 0.04448 0.56252 0.11907 0.0
C612 C 0.07862 0.58674 0.13587 0.0
C613 C 0.07649 0.60852 0.16576 0.0
C614 C 0.97174 0.5355 0.11466 0.0
C615 C 0.11744 0.58952 0.1225 0.0
H616 H 0.06058 0.47075 0.0811 0.0
H617 H 0.07319 0.53993 0.98413 0.0
H618 H 0.06647 0.51642 0.1645 0.0
H619 H 0.01582 0.50099 0.15848 0.0
H620 H 0.0393 0.47478 0.14953 0.0
H621 H 0.02584 0.58175 0.04184 0.0
H622 H 0.07694 0.60127 0.0396 0.0
H623 H 0.05028 0.58052 0.99378 0.0
H624 H 0.98008 0.57978 0.17563 0.0
H625 H 0.10247 0.62745 0.17828 0.0
H626 H 0.97021 0.51077 0.11756 0.0
H627 H 0.97074 0.54033 0.0805 0.0
H628 H 0.94623 0.53608 0.13009 0.0
H629 H 0.11912 0.56606 0.12721 0.0
H630 H 0.14102 0.60851 0.14041 0.0
H631 H 0.12192 0.59539 0.08844 0.0
C632 C 0.6706 0.22713 0.55467 0.0
C633 C 0.66701 0.217 0.5125 0.0
C634 C 0.7041 0.23356 0.57737 0.0
C635 C 0.73468 0.2298 0.55731 0.0
C636 C 0.73268 0.22277 0.51367 0.0
C637 C 0.6988 0.21657 0.49162 0.0
C638 C 0.7054 0.24162 0.62373 0.0
C639 C 0.7649 0.21891 0.49109 0.0
C640 C 0.82657 0.25897 0.61989 0.0
C641 C 0.82217 0.23062 0.641 0.0
C642 C 0.79902 0.25894 0.59122 0.0
C643 C 0.76657 0.22974 0.58323 0.0
C644 C 0.76312 0.20063 0.60265 0.0
C645 C 0.79118 0.20143 0.63129 0.0
C646 C 0.80394 0.29034 0.5708 0.0
C647 C 0.72899 0.16893 0.59455 0.0
H648 H 0.64624 0.22786 0.57082 0.0
H649 H 0.69626 0.20877 0.45901 0.0
H650 H 0.70393 0.22068 0.64262 0.0
H651 H 0.73264 0.2625 0.6317 0.0
H652 H 0.68131 0.24739 0.63326 0.0
H653 H 0.76184 0.21921 0.45628 0.0
H654 H 0.79293 0.23833 0.50026 0.0
H655 H 0.76502 0.19548 0.50015 0.0
H656 H 0.85147 0.28133 0.62606 0.0
H657 H 0.78815 0.17949 0.64729 0.0
H658 H 0.78173 0.29761 0.58278 0.0
H659 H 0.80008 0.28725 0.53617 0.0
H660 H 0.83245 0.31025 0.57736 0.0
H661 H 0.70276 0.17025 0.60675 0.0
H662 H 0.73189 0.14821 0.60988 0.0
H663 H 0.725 0.16416 0.56017 0.0
C664 C 0.35306 0.70735 0.81489 0.0
C665 C 0.33767 0.72788 0.83078 0.0
C666 C 0.33536 0.67405 0.82371 0.0
C667 C 0.30231 0.6617 0.84951 0.0
C668 C 0.28398 0.68173 0.86021 0.0
C669 C 0.30174 0.71464 0.85014 0.0
C670 C 0.35452 0.65295 0.80987 0.0
C671 C 0.2483 0.66945 0.88691 0.0
C672 C 0.24909 0.57394 0.88359 0.0
C673 C 0.26765 0.57413 0.92163 0.0
C674 C 0.2613 0.60175 0.85825 0.0
C675 C 0.29162 0.63068 0.87242 0.0
C676 C 0.31038 0.63079 0.91093 0.0
C677 C 0.29855 0.60235 0.93462 0.0
C678 C 0.24096 0.59996 0.81706 0.0
C679 C 0.34157 0.66132 0.92857 0.0
H680 H 0.38075 0.71764 0.79957 0.0
H681 H 0.28974 0.7307 0.86182 0.0
H682 H 0.37131 0.64988 0.83649 0.0
H683 H 0.33296 0.62858 0.80057 0.0
H684 H 0.37425 0.66389 0.78307 0.0
H685 H 0.23573 0.68724 0.88912 0.0
H686 H 0.22654 0.64654 0.87374 0.0
H687 H 0.25524 0.66432 0.91925 0.0
H688 H 0.22541 0.55189 0.87327 0.0
H689 H 0.3127 0.60245 0.96419 0.0
H690 H 0.25864 0.61897 0.79451 0.0
H691 H 0.21434 0.60287 0.82332 0.0
H692 H 0.23262 0.57593 0.80199 0.0
H693 H 0.36339 0.67413 0.90429 0.0
H694 H 0.35611 0.65645 0.95609 0.0
H695 H 0.32875 0.67776 0.93895 0.0
C696 C 0.87661 0.45401 0.6006 0.0
C697 C 0.90216 0.47261 0.56939 0.0
C698 C 0.88788 0.4382 0.63174 0.0
C699 C 0.92583 0.4412 0.63197 0.0
C700 C 0.95245 0.46141 0.60204 0.0
C701 C 0.94025 0.47695 0.57107 0.0
C702 C 0.85867 0.41724 0.66342 0.0
C703 C 0.99329 0.46551 0.6014 0.0
C704 C 0.95466 0.40843 0.72949 0.0
C705 C 0.94623 0.37674 0.71657 0.0
C706 C 0.94949 0.43031 0.70181 0.0
C707 C 0.93588 0.42017 0.66039 0.0
C708 C 0.92868 0.38858 0.64686 0.0
C709 C 0.93394 0.36732 0.67506 0.0
C710 C 0.95754 0.46388 0.71717 0.0
C711 C 0.91427 0.37682 0.60292 0.0
H712 H 0.84759 0.45163 0.60089 0.0
H713 H 0.96026 0.49181 0.54751 0.0
H714 H 0.85238 0.39147 0.65782 0.0
H715 H 0.87005 0.42335 0.69593 0.0
H716 H 0.83146 0.41994 0.66142 0.0
H717 H 0.01216 0.48769 0.58408 0.0
H718 H 0.00461 0.46674 0.6338 0.0
H719 H 0.99455 0.44434 0.58543 0.0
H720 H 0.96444 0.41589 0.76144 0.0
H721 H 0.92821 0.34311 0.66447 0.0
H722 H 0.9306 0.467 0.71799 0.0
H723 H 0.97717 0.48224 0.69507 0.0
H724 H 0.9704 0.46872 0.74921 0.0
H725 H 0.88563 0.37649 0.59847 0.0
H726 H 0.912 0.3521 0.59671 0.0
H727 H 0.93362 0.39357 0.57911 0.0
C728 C 0.33523 0.85184 0.04684 0.0
C729 C 0.33704 0.8298 0.01698 0.0
C730 C 0.30154 0.84551 0.06915 0.0
C731 C 0.26905 0.81616 0.06193 0.0
C732 C 0.27032 0.79417 0.03105 0.0
C733 C 0.30429 0.80136 0.0087 0.0
C734 C 0.30114 0.86974 0.1014 0.0
C735 C 0.23628 0.76245 0.02283 0.0
C736 C 0.19975 0.77916 0.15156 0.0
C737 C 0.16828 0.78448 0.1386 0.0
C738 C 0.233 0.78994 0.12722 0.0
C739 C 0.23498 0.80698 0.08939 0.0
C740 C 0.20404 0.8141 0.07743 0.0
C741 C 0.17086 0.80271 0.10236 0.0
C742 C 0.26546 0.78206 0.14124 0.0
C743 C 0.20553 0.83273 0.03768 0.0
H744 H 0.36033 0.87405 0.05312 0.0
H745 H 0.30548 0.78429 0.9856 0.0
H746 H 0.27619 0.87534 0.09619 0.0
H747 H 0.29827 0.85932 0.13348 0.0
H748 H 0.32757 0.89267 0.10037 0.0
H749 H 0.24116 0.74894 0.99603 0.0
H750 H 0.22993 0.74706 0.05143 0.0
H751 H 0.21065 0.76671 0.01596 0.0
H752 H 0.19786 0.76568 0.18027 0.0
H753 H 0.14649 0.80702 0.09277 0.0
H754 H 0.29223 0.80453 0.14391 0.0
H755 H 0.2704 0.76646 0.11735 0.0
H756 H 0.25967 0.76937 0.17209 0.0
H757 H 0.23205 0.85554 0.03692 0.0
H758 H 0.18056 0.83865 0.03478 0.0
H759 H 0.20615 0.81825 0.0098 0.0
C760 C 0.74393 0.42323 0.35409 0.0
C761 C 0.73722 0.42168 0.39758 0.0
C762 C 0.73075 0.3948 0.32965 0.0
C763 C 0.71037 0.36447 0.34948 0.0
C764 C 0.70488 0.36309 0.39381 0.0
C765 C 0.71823 0.39176 0.41721 0.0
C766 C 0.73712 0.39749 0.28263 0.0
C767 C 0.68356 0.33138 0.41652 0.0
C768 C 0.63235 0.28876 0.30679 0.0
C769 C 0.64995 0.26765 0.30953 0.0
C770 C 0.65326 0.32197 0.31405 0.0
C771 C 0.69245 0.33395 0.32476 0.0
C772 C 0.71128 0.31334 0.32147 0.0
C773 C 0.68965 0.28019 0.31398 0.0
C774 C 0.63217 0.34319 0.31583 0.0
C775 C 0.75321 0.32534 0.33137 0.0
H776 H 0.75836 0.44665 0.33909 0.0
H777 H 0.71304 0.3909 0.45091 0.0
H778 H 0.71087 0.39615 0.26689 0.0
H779 H 0.76102 0.42085 0.27384 0.0
H780 H 0.74325 0.37741 0.27035 0.0
H781 H 0.68387 0.33444 0.4513 0.0
H782 H 0.6534 0.32022 0.40582 0.0
H783 H 0.6963 0.31432 0.40901 0.0
H784 H 0.60157 0.2789 0.30318 0.0
H785 H 0.70317 0.26372 0.31617 0.0
H786 H 0.65042 0.36802 0.30475 0.0
H787 H 0.62393 0.34485 0.34898 0.0
H788 H 0.60574 0.33305 0.29644 0.0
H789 H 0.76966 0.34994 0.31838 0.0
H790 H 0.7651 0.30885 0.31856 0.0
H791 H 0.75719 0.32674 0.3661 0.0
C792 C 0.57703 0.84732 0.47948 0.0
C793 C 0.54353 0.8249 0.49837 0.0
C794 C 0.60135 0.83708 0.45761 0.0
C795 C 0.59123 0.80358 0.45371 0.0
C796 C 0.55889 0.78098 0.47545 0.0
C797 C 0.5355 0.79202 0.49807 0.0
C798 C 0.6361 0.86199 0.43583 0.0
C799 C 0.54703 0.74504 0.47165 0.0
C800 C 0.61619 0.77682 0.34966 0.0
C801 C 0.6461 0.76893 0.36124 0.0
C802 C 0.59802 0.78798 0.37963 0.0
C803 C 0.6109 0.79218 0.42197 0.0
C804 C 0.6424 0.78581 0.43344 0.0
C805 C 0.65964 0.77413 0.40283 0.0
C806 C 0.56471 0.79486 0.36603 0.0
C807 C 0.65745 0.79086 0.47804 0.0
H808 H 0.58325 0.87284 0.48014 0.0
H809 H 0.50939 0.77476 0.51254 0.0
H810 H 0.66107 0.85626 0.43979 0.0
H811 H 0.63036 0.86183 0.40153 0.0
H812 H 0.64362 0.88677 0.44806 0.0
H813 H 0.52438 0.73105 0.49467 0.0
H814 H 0.53597 0.73697 0.43937 0.0
H815 H 0.57186 0.73924 0.47647 0.0
H816 H 0.60697 0.77433 0.31712 0.0
H817 H 0.68302 0.76822 0.41169 0.0
H818 H 0.57129 0.82068 0.37168 0.0
H819 H 0.53906 0.78019 0.38501 0.0
H820 H 0.55763 0.78942 0.33213 0.0
H821 H 0.66424 0.81591 0.48852 0.0
H822 H 0.68349 0.78647 0.48123 0.0
H823 H 0.63523 0.77427 0.49965 0.0
C824 C 0.54441 0.48037 0.94787 0.0
C825 C 0.57683 0.47395 0.94722 0.0
C826 C 0.51616 0.46795 0.91641 0.0
C827 C 0.52055 0.44872 0.88352 0.0
C828 C 0.55351 0.44265 0.88239 0.0
C829 C 0.58123 0.45546 0.91399 0.0
C830 C 0.48145 0.47503 0.9187 0.0
C831 C 0.55959 0.42254 0.84773 0.0
C832 C 0.43512 0.38702 0.825 0.0
C833 C 0.4373 0.40224 0.78595 0.0
C834 C 0.46122 0.40233 0.85743 0.0
C835 C 0.49029 0.4338 0.85094 0.0
C836 C 0.49204 0.44977 0.81214 0.0
C837 C 0.46552 0.4338 0.78007 0.0
C838 C 0.45833 0.38438 0.89821 0.0
C839 C 0.52254 0.48341 0.80414 0.0
H840 H 0.54104 0.49494 0.97316 0.0
H841 H 0.60676 0.45143 0.91186 0.0
H842 H 0.47541 0.48282 0.88751 0.0
H843 H 0.45616 0.45268 0.92757 0.0
H844 H 0.48493 0.49411 0.94225 0.0
H845 H 0.5871 0.42049 0.85106 0.0
H846 H 0.536 0.39783 0.84794 0.0
H847 H 0.55918 0.43335 0.81653 0.0
H848 H 0.4131 0.36285 0.83026 0.0
H849 H 0.46733 0.44585 0.75018 0.0
H850 H 0.45724 0.39929 0.92539 0.0
H851 H 0.48409 0.37973 0.90222 0.0
H852 H 0.4327 0.36084 0.89921 0.0
H853 H 0.52265 0.49996 0.82986 0.0
H854 H 0.51843 0.49337 0.77358 0.0
H855 H 0.55104 0.48301 0.80398 0.0
C856 C 0.33538 0.5976 0.59047 0.0
C857 C 0.30344 0.57376 0.60995 0.0
C858 C 0.35294 0.6289 0.60748 0.0
C859 C 0.33912 0.63598 0.64586 0.0
C860 C 0.30857 0.61112 0.66722 0.0
C861 C 0.29045 0.58047 0.6484 0.0
C862 C 0.38441 0.65492 0.58273 0.0
C863 C 0.29341 0.61684 0.70879 0.0
C864 C 0.40711 0.7183 0.6871 0.0
C865 C 0.39005 0.7376 0.67122 0.0
C866 C 0.38897 0.68448 0.68277 0.0
C867 C 0.354 0.67014 0.66044 0.0
C868 C 0.33546 0.68951 0.64731 0.0
C869 C 0.35354 0.72303 0.65347 0.0
C870 C 0.40847 0.66443 0.69953 0.0
C871 C 0.2981 0.67525 0.62352 0.0
H872 H 0.34499 0.59236 0.56043 0.0
H873 H 0.26568 0.56189 0.66346 0.0
H874 H 0.37534 0.67412 0.57375 0.0
H875 H 0.41045 0.66642 0.60236 0.0
H876 H 0.39191 0.64536 0.55359 0.0
H877 H 0.28585 0.59547 0.72965 0.0
H878 H 0.31409 0.63852 0.72554 0.0
H879 H 0.26685 0.61997 0.70315 0.0
H880 H 0.43547 0.72974 0.70072 0.0
H881 H 0.34057 0.73816 0.6411 0.0
H882 H 0.42381 0.65871 0.67354 0.0
H883 H 0.38724 0.64119 0.71261 0.0
H884 H 0.42958 0.67754 0.72446 0.0
H885 H 0.30176 0.66403 0.59376 0.0
H886 H 0.28743 0.69368 0.61564 0.0
H887 H 0.27609 0.65597 0.64254 0.0
C888 C 0.4916 0.20376 0.92661 0.0
C889 C 0.48549 0.19636 0.96963 0.0
C890 C 0.46868 0.21517 0.90427 0.0
C891 C 0.4387 0.21912 0.92542 0.0
C892 C 0.4335 0.21325 0.96933 0.0
C893 C 0.4572 0.20204 0.99108 0.0
C894 C 0.47561 0.22175 0.85759 0.0
C895 C 0.40182 0.21726 0.99283 0.0
C896 C 0.39944 0.26901 0.8638 0.0
C897 C 0.36986 0.24494 0.84113 0.0
C898 C 0.42091 0.26096 0.89328 0.0
C899 C 0.41209 0.22801 0.90063 0.0
C900 C 0.3804 0.20358 0.88007 0.0
C901 C 0.35952 0.21239 0.8505 0.0
C902 C 0.45429 0.2877 0.91474 0.0
C903 C 0.36993 0.16816 0.88749 0.0
H904 H 0.51377 0.19976 0.91002 0.0
H905 H 0.45235 0.19622 0.02432 0.0
H906 H 0.45062 0.20463 0.83953 0.0
H907 H 0.47896 0.24656 0.85017 0.0
H908 H 0.50146 0.21919 0.84649 0.0
H909 H 0.40432 0.21531 0.02751 0.0
H910 H 0.40178 0.241 0.98552 0.0
H911 H 0.37387 0.19828 0.98253 0.0
H912 H 0.40621 0.29424 0.85809 0.0
H913 H 0.33616 0.19385 0.83343 0.0
H914 H 0.48138 0.28798 0.90268 0.0
H915 H 0.45348 0.28343 0.94922 0.0
H916 H 0.45472 0.31187 0.9091 0.0
H917 H 0.3924 0.16184 0.87401 0.0
H918 H 0.34215 0.15234 0.87277 0.0
H919 H 0.36835 0.16297 0.92177 0.0
C920 C 0.53814 0.60781 0.33099 0.0
C921 C 0.56374 0.59568 0.31656 0.0
C922 C 0.50868 0.59 0.35919 0.0
C923 C 0.50611 0.56014 0.37527 0.0
C924 C 0.53284 0.54831 0.36162 0.0
C925 C 0.5607 0.56587 0.3316 0.0
C926 C 0.47978 0.60286 0.37077 0.0
C927 C 0.53233 0.51701 0.37769 0.0
C928 C 0.44601 0.53279 0.47527 0.0
C929 C 0.41308 0.50717 0.46009 0.0
C930 C 0.4772 0.5495 0.44849 0.0
C931 C 0.4747 0.54107 0.40513 0.0
C932 C 0.44133 0.515 0.38987 0.0
C933 C 0.41124 0.49799 0.41775 0.0
C934 C 0.51223 0.57654 0.46689 0.0
C935 C 0.43682 0.50573 0.34381 0.0
H936 H 0.54032 0.63077 0.31897 0.0
H937 H 0.58061 0.55651 0.32047 0.0
H938 H 0.45033 0.58331 0.36946 0.0
H939 H 0.48506 0.61239 0.40342 0.0
H940 H 0.48142 0.62275 0.34953 0.0
H941 H 0.52061 0.49824 0.3528 0.0
H942 H 0.56191 0.52006 0.38427 0.0
H943 H 0.51504 0.50804 0.40665 0.0
H944 H 0.44732 0.5398 0.50813 0.0
H945 H 0.38551 0.47831 0.40605 0.0
H946 H 0.50898 0.59949 0.46511 0.0
H947 H 0.53863 0.57975 0.44973 0.0
H948 H 0.51573 0.57203 0.5007 0.0
H949 H 0.44369 0.52746 0.32385 0.0
H950 H 0.40743 0.48769 0.33618 0.0
H951 H 0.45704 0.49523 0.33537 0.0
C952 C 0.61657 0.27586 0.19195 0.0
C953 C 0.58038 0.26245 0.17319 0.0
C954 C 0.63978 0.30922 0.18871 0.0
C955 C 0.62641 0.32894 0.16565 0.0
C956 C 0.58785 0.31605 0.15231 0.0
C957 C 0.56505 0.28289 0.15692 0.0
C958 C 0.67991 0.3228 0.20583 0.0
C959 C 0.57212 0.33623 0.12823 0.0
C960 C 0.68002 0.41867 0.14143 0.0
C961 C 0.69728 0.41749 0.10301 0.0
C962 C 0.65927 0.39019 0.16436 0.0
C963 C 0.65406 0.35995 0.14706 0.0
C964 C 0.67228 0.35899 0.10853 0.0
C965 C 0.69429 0.38786 0.08753 0.0
C966 C 0.64211 0.39277 0.20614 0.0
C967 C 0.66639 0.32742 0.08769 0.0
H968 H 0.62815 0.26004 0.20532 0.0
H969 H 0.5366 0.27238 0.1434 0.0
H970 H 0.70066 0.32895 0.17946 0.0
H971 H 0.6859 0.34543 0.22345 0.0
H972 H 0.68464 0.30543 0.22688 0.0
H973 H 0.54083 0.32321 0.12299 0.0
H974 H 0.57799 0.359 0.14545 0.0
H975 H 0.58644 0.34282 0.09706 0.0
H976 H 0.68279 0.44179 0.15355 0.0
H977 H 0.70755 0.38713 0.05762 0.0
H978 H 0.63601 0.37137 0.22643 0.0
H979 H 0.61502 0.39505 0.20054 0.0
H980 H 0.66158 0.4148 0.22338 0.0
H981 H 0.67223 0.31143 0.11007 0.0
H982 H 0.68492 0.33105 0.05958 0.0
H983 H 0.6362 0.31468 0.07749 0.0
C984 C 0.19072 0.47366 0.36089 0.0
C985 C 0.22543 0.49398 0.37966 0.0
C986 C 0.18659 0.47222 0.31682 0.0
C987 C 0.21789 0.49178 0.29119 0.0
C988 C 0.25268 0.51301 0.31025 0.0
C989 C 0.25607 0.5137 0.35431 0.0
C990 C 0.1492 0.44908 0.29768 0.0
C991 C 0.28659 0.53449 0.28408 0.0
C992 C 0.22769 0.4668 0.17929 0.0
C993 C 0.21667 0.48729 0.15566 0.0
C994 C 0.22696 0.46725 0.22349 0.0
C995 C 0.21517 0.48892 0.24443 0.0
C996 C 0.20286 0.50898 0.22056 0.0
C997 C 0.20358 0.50778 0.17631 0.0
C998 C 0.23981 0.44518 0.24775 0.0
C999 C 0.19033 0.53253 0.24171 0.0
H1000 H 0.16716 0.45825 0.38068 0.0
H1001 H 0.28283 0.52952 0.36905 0.0
H1002 H 0.13837 0.46207 0.27557 0.0
H1003 H 0.15368 0.43032 0.27919 0.0
H1004 H 0.12702 0.43689 0.32197 0.0
H1005 H 0.3108 0.5509 0.30383 0.0
H1006 H 0.29657 0.5194 0.26454 0.0
H1007 H 0.27824 0.54934 0.26222 0.0
H1008 H 0.23744 0.45075 0.16307 0.0
H1009 H 0.19515 0.52365 0.15782 0.0
H1010 H 0.21766 0.43079 0.27099 0.0
H1011 H 0.26618 0.45982 0.26567 0.0
H1012 H 0.24571 0.42831 0.22677 0.0
H1013 H 0.16789 0.51991 0.2655 0.0
H1014 H 0.17911 0.54475 0.21878 0.0
H1015 H 0.21489 0.55124 0.25864 0.0
C1016 C 0.7147 0.19868 0.04314 0.0
C1017 C 0.68567 0.19831 0.01647 0.0
C1018 C 0.75317 0.21353 0.03018 0.0
C1019 C 0.76218 0.22708 0.9892 0.0
C1020 C 0.73292 0.22818 0.96331 0.0
C1021 C 0.69523 0.2144 0.97771 0.0
C1022 C 0.78379 0.21338 0.0595 0.0
C1023 C 0.74094 0.24199 0.9192 0.0
C1024 C 0.85725 0.28097 0.94101 0.0
C1025 C 0.86472 0.25862 0.91662 0.0
C1026 C 0.82621 0.27069 0.96897 0.0
C1027 C 0.80106 0.23743 0.97103 0.0
C1028 C 0.81001 0.21463 0.94863 0.0
C1029 C 0.84222 0.22553 0.92237 0.0
C1030 C 0.8188 0.29575 0.99366 0.0
C1031 C 0.78367 0.17898 0.94921 0.0
H1032 H 0.70725 0.18629 0.0732 0.0
H1033 H 0.67272 0.21469 0.95755 0.0
H1034 H 0.79214 0.19386 0.05008 0.0
H1035 H 0.80968 0.23666 0.05775 0.0
H1036 H 0.77369 0.20906 0.0927 0.0
H1037 H 0.71478 0.24067 0.90313 0.0
H1038 H 0.76205 0.26764 0.92016 0.0
H1039 H 0.75341 0.22855 0.8999 0.0
H1040 H 0.8743 0.30665 0.93664 0.0
H1041 H 0.84851 0.20819 0.9043 0.0
H1042 H 0.80582 0.2862 0.02479 0.0
H1043 H 0.79867 0.30264 0.97589 0.0
H1044 H 0.84557 0.31797 0.99865 0.0
H1045 H 0.77672 0.17023 0.98208 0.0
H1046 H 0.79625 0.16422 0.9329 0.0
H1047 H 0.75642 0.17494 0.93332 0.0
C1048 C 0.49752 0.75537 0.9908 0.0
C1049 C 0.51977 0.78812 0.98219 0.0
C1050 C 0.5137 0.7365 0.01027 0.0
C1051 C 0.55274 0.75105 0.02202 0.0
C1052 C 0.57592 0.78335 0.00989 0.0
C1053 C 0.55917 0.80134 0.98944 0.0
C1054 C 0.48828 0.70182 0.02135 0.0
C1055 C 0.61754 0.79995 0.0221 0.0
C1056 C 0.57766 0.72265 0.12508 0.0
C1057 C 0.5977 0.70505 0.11139 0.0
C1058 C 0.56316 0.73782 0.09623 0.0
C1059 C 0.56776 0.73448 0.05242 0.0
C1060 C 0.58718 0.71606 0.03828 0.0
C1061 C 0.60248 0.70196 0.06802 0.0
C1062 C 0.54313 0.75765 0.11274 0.0
C1063 C 0.59181 0.71129 0.99188 0.0
H1064 H 0.46703 0.74508 0.98492 0.0
H1065 H 0.57642 0.82652 0.98178 0.0
H1066 H 0.50306 0.68603 0.0152 0.0
H1067 H 0.48129 0.70012 0.05546 0.0
H1068 H 0.4611 0.69247 0.00327 0.0
H1069 H 0.63262 0.82346 0.00567 0.0
H1070 H 0.6198 0.80449 0.05661 0.0
H1071 H 0.63235 0.78437 0.01494 0.0
H1072 H 0.57315 0.72449 0.15852 0.0
H1073 H 0.61829 0.68859 0.05737 0.0
H1074 H 0.51308 0.74716 0.10169 0.0
H1075 H 0.55721 0.7827 0.10032 0.0
H1076 H 0.5432 0.75877 0.14774 0.0
H1077 H 0.56354 0.70146 0.97606 0.0
H1078 H 0.60547 0.69459 0.98611 0.0
H1079 H 0.60951 0.73489 0.97691 0.0
C1080 C 0.72998 0.50906 0.6592 0.0
C1081 C 0.74327 0.48919 0.6375 0.0
C1082 C 0.72899 0.50898 0.70339 0.0
C1083 C 0.74106 0.48817 0.7259 0.0
C1084 C 0.75356 0.46745 0.70382 0.0
C1085 C 0.7549 0.46849 0.65974 0.0
C1086 C 0.71619 0.53183 0.72599 0.0
C1087 C 0.76605 0.44456 0.72673 0.0
C1088 C 0.7768 0.50877 0.83805 0.0
C1089 C 0.74453 0.4888 0.86095 0.0
C1090 C 0.77585 0.5092 0.7939 0.0
C1091 C 0.74194 0.48882 0.77257 0.0
C1092 C 0.70922 0.46865 0.79579 0.0
C1093 C 0.71083 0.46916 0.8399 0.0
C1094 C 0.81102 0.53148 0.77012 0.0
C1095 C 0.67279 0.44626 0.77407 0.0
H1096 H 0.72152 0.52531 0.64161 0.0
H1097 H 0.76522 0.45321 0.64254 0.0
H1098 H 0.69233 0.5182 0.74779 0.0
H1099 H 0.74003 0.5491 0.74537 0.0
H1100 H 0.70674 0.54579 0.70378 0.0
H1101 H 0.77281 0.42874 0.70474 0.0
H1102 H 0.79181 0.45853 0.74595 0.0
H1103 H 0.74329 0.42909 0.74868 0.0
H1104 H 0.80256 0.5243 0.85475 0.0
H1105 H 0.6859 0.45389 0.85806 0.0
H1106 H 0.80393 0.54764 0.74922 0.0
H1107 H 0.82139 0.51712 0.74971 0.0
H1108 H 0.83456 0.54662 0.79156 0.0
H1109 H 0.66229 0.4603 0.75334 0.0
H1110 H 0.64987 0.43233 0.79685 0.0
H1111 H 0.67844 0.42898 0.75371 0.0
C1112 C 0.31489 0.78153 0.44036 0.0
C1113 C 0.32077 0.79356 0.48165 0.0
C1114 C 0.27822 0.76717 0.42295 0.0
C1115 C 0.24637 0.76359 0.44802 0.0
C1116 C 0.25188 0.77406 0.49058 0.0
C1117 C 0.28921 0.78946 0.50675 0.0
C1118 C 0.27374 0.75678 0.37724 0.0
C1119 C 0.21852 0.76977 0.51861 0.0
C1120 C 0.16082 0.75751 0.38405 0.0
C1121 C 0.14131 0.72402 0.37842 0.0
C1122 C 0.19424 0.7708 0.4084 0.0
C1123 C 0.20772 0.74997 0.42859 0.0
C1124 C 0.18652 0.71606 0.4255 0.0
C1125 C 0.1538 0.70348 0.4 0.0
C1126 C 0.21642 0.8071 0.41019 0.0
C1127 C 0.1994 0.6931 0.44757 0.0
H1128 H 0.33926 0.78415 0.42119 0.0
H1129 H 0.29375 0.79902 0.53859 0.0
H1130 H 0.25509 0.73053 0.37466 0.0
H1131 H 0.25978 0.76973 0.3594 0.0
H1132 H 0.30155 0.7617 0.362 0.0
H1133 H 0.22722 0.77547 0.5521 0.0
H1134 H 0.20547 0.78592 0.50787 0.0
H1135 H 0.19618 0.74456 0.51657 0.0
H1136 H 0.15073 0.77337 0.36801 0.0
H1137 H 0.13898 0.67755 0.39556 0.0
H1138 H 0.24407 0.81423 0.39354 0.0
H1139 H 0.22298 0.81537 0.44333 0.0
H1140 H 0.20068 0.8199 0.39536 0.0
H1141 H 0.17893 0.66742 0.44323 0.0
H1142 H 0.20282 0.69861 0.48182 0.0
H1143 H 0.22764 0.69625 0.43532 0.0
C1144 C 0.48183 0.23363 0.44584 0.0
C1145 C 0.46213 0.19989 0.44735 0.0
C1146 C 0.46572 0.25333 0.46311 0.0
C1147 C 0.42931 0.23873 0.48245 0.0
C1148 C 0.4075 0.20487 0.47902 0.0
C1149 C 0.42423 0.18579 0.46132 0.0
C1150 C 0.48972 0.28936 0.46546 0.0
C1151 C 0.36843 0.18831 0.49878 0.0
C1152 C 0.41835 0.27513 0.58618 0.0
C1153 C 0.39502 0.29035 0.57497 0.0
C1154 C 0.42987 0.25858 0.55617 0.0
C1155 C 0.41795 0.2574 0.51367 0.0
C1156 C 0.39497 0.27334 0.50193 0.0
C1157 C 0.38361 0.28957 0.53289 0.0
C1158 C 0.45413 0.24173 0.5703 0.0
C1159 C 0.38194 0.27277 0.45698 0.0
H1160 H 0.51128 0.24452 0.43526 0.0
H1161 H 0.40914 0.15964 0.46245 0.0
H1162 H 0.47201 0.30285 0.46046 0.0
H1163 H 0.5027 0.29569 0.4973 0.0
H1164 H 0.51313 0.29748 0.4418 0.0
H1165 H 0.35247 0.16338 0.48634 0.0
H1166 H 0.3716 0.18677 0.53338 0.0
H1167 H 0.35135 0.20226 0.4932 0.0
H1168 H 0.42757 0.27613 0.61865 0.0
H1169 H 0.36534 0.30126 0.52436 0.0
H1170 H 0.48002 0.24908 0.55034 0.0
H1171 H 0.4376 0.2152 0.56684 0.0
H1172 H 0.46323 0.24703 0.60374 0.0
H1173 H 0.40672 0.28077 0.43522 0.0
H1174 H 0.3668 0.28849 0.45239 0.0
H1175 H 0.3624 0.24767 0.44798 0.0
C1176 C 0.56107 0.54607 0.09268 0.0
C1177 C 0.55611 0.53721 0.13537 0.0
C1178 C 0.52943 0.53968 0.06649 0.0
C1179 C 0.49222 0.52457 0.08374 0.0
C1180 C 0.48714 0.51217 0.12532 0.0
C1181 C 0.51925 0.5183 0.15052 0.0
C1182 C 0.53616 0.55208 0.02178 0.0
C1183 C 0.44796 0.49591 0.145 0.0
C1184 C 0.41941 0.55549 0.05146 0.0
C1185 C 0.39265 0.52895 0.02956 0.0
C1186 C 0.45252 0.55463 0.06814 0.0
C1187 C 0.45951 0.52686 0.06177 0.0
C1188 C 0.43371 0.50074 0.03745 0.0
C1189 C 0.40018 0.50186 0.02221 0.0
C1190 C 0.47943 0.58313 0.0937 0.0
C1191 C 0.44084 0.47126 0.02862 0.0
H1192 H 0.58959 0.56024 0.0806 0.0
H1193 H 0.51517 0.51113 0.18338 0.0
H1194 H 0.51296 0.53631 0.00049 0.0
H1195 H 0.53698 0.57666 0.02096 0.0
H1196 H 0.5639 0.55379 0.00957 0.0
H1197 H 0.44857 0.48429 0.17559 0.0
H1198 H 0.43659 0.51421 0.1506 0.0
H1199 H 0.42786 0.47731 0.12353 0.0
H1200 H 0.41373 0.57648 0.05709 0.0
H1201 H 0.37974 0.48143 0.00474 0.0
H1202 H 0.50779 0.59378 0.07826 0.0
H1203 H 0.4833 0.57511 0.12567 0.0
H1204 H 0.46909 0.60232 0.09702 0.0
H1205 H 0.47145 0.47818 0.02159 0.0
H1206 H 0.42336 0.45696 0.00174 0.0
H1207 H 0.43329 0.45548 0.05686 0.0
C1208 C 0.90003 0.4699 0.00357 0.0
C1209 C 0.8628 0.44577 0.99844 0.0
C1210 C 0.93165 0.46597 0.98722 0.0
C1211 C 0.92583 0.43742 0.96468 0.0
C1212 C 0.88832 0.41258 0.96058 0.0
C1213 C 0.85739 0.41695 0.97785 0.0
C1214 C 0.97113 0.4922 0.9947 0.0
C1215 C 0.88058 0.3819 0.9363 0.0
C1216 C 0.98964 0.43619 0.8748 0.0
C1217 C 0.0046 0.41522 0.89054 0.0
C1218 C 0.96596 0.44547 0.8997 0.0
C1219 C 0.95785 0.43427 0.94177 0.0
C1220 C 0.97649 0.41627 0.95929 0.0
C1221 C -0.0008 0.40648 0.93325 0.0
C1222 C 0.94709 0.46505 0.87984 0.0
C1223 C 0.97057 0.4057 0.00477 0.0
H1224 H 0.90445 0.49198 0.02023 0.0
H1225 H 0.8287 0.39818 0.97371 0.0
H1226 H 0.98436 0.48454 0.02095 0.0
H1227 H 0.98964 0.49625 0.96656 0.0
H1228 H 0.97044 0.51548 0.00372 0.0
H1229 H 0.84991 0.36464 0.93684 0.0
H1230 H 0.88956 0.38789 0.90297 0.0
H1231 H 0.8975 0.36965 0.94963 0.0
H1232 H 0.99372 0.44322 0.84189 0.0
H1233 H 0.01117 0.39068 0.94578 0.0
H1234 H 0.95152 0.48633 0.89979 0.0
H1235 H 0.91584 0.45004 0.87756 0.0
H1236 H 0.95827 0.47365 0.84772 0.0
H1237 H 0.9737 0.42632 0.02543 0.0
H1238 H 0.99116 0.39602 0.01512 0.0
H1239 H 0.94118 0.38657 0.00907 0.0
C1240 C 0.50158 0.90405 0.14576 0.0
C1241 C 0.46748 0.87992 0.13019 0.0
C1242 C 0.50766 0.90877 0.18947 0.0
C1243 C 0.4788 0.88906 0.21774 0.0
C1244 C 0.44353 0.86604 0.20189 0.0
C1245 C 0.43841 0.86169 0.15836 0.0
C1246 C 0.54554 0.93363 0.20535 0.0
C1247 C 0.41178 0.84478 0.23089 0.0
C1248 C 0.49894 0.86237 0.32364 0.0
C1249 C 0.48562 0.87931 0.35124 0.0
C1250 C 0.49957 0.86722 0.28006 0.0
C1251 C 0.48633 0.88943 0.26365 0.0
C1252 C 0.4751 0.90812 0.29147 0.0
C1253 C 0.47493 0.90286 0.33512 0.0
C1254 C 0.51202 0.84693 0.25151 0.0
C1255 C 0.46097 0.93213 0.27509 0.0
H1256 H 0.52399 0.9183 0.12395 0.0
H1257 H 0.41167 0.84345 0.14639 0.0
H1258 H 0.54123 0.94834 0.23095 0.0
H1259 H 0.56222 0.92117 0.21876 0.0
H1260 H 0.56264 0.95003 0.17984 0.0
H1261 H 0.38501 0.83014 0.2135 0.0
H1262 H 0.42084 0.82804 0.2481 0.0
H1263 H 0.40555 0.85968 0.25474 0.0
H1264 H 0.50794 0.84456 0.33598 0.0
H1265 H 0.4649 0.91621 0.35641 0.0
H1266 H 0.53243 0.8623 0.22742 0.0
H1267 H 0.4868 0.82899 0.23458 0.0
H1268 H 0.52568 0.83367 0.26928 0.0
H1269 H 0.47962 0.94692 0.24934 0.0
H1270 H 0.45969 0.94852 0.30036 0.0
H1271 H 0.43186 0.9189 0.26183 0.0
C1272 C 0.48257 0.47489 0.61274 0.0
C1273 C 0.44444 0.45895 0.59972 0.0
C1274 C 0.51249 0.47984 0.58463 0.0
C1275 C 0.504 0.46974 0.54214 0.0
C1276 C 0.46584 0.45763 0.52762 0.0
C1277 C 0.43632 0.45177 0.55684 0.0
C1278 C 0.55274 0.4925 0.60166 0.0
C1279 C 0.45607 0.44874 0.48192 0.0
C1280 C 0.59391 0.49271 0.47704 0.0
C1281 C 0.59974 0.46447 0.4802 0.0
C1282 C 0.56105 0.49405 0.49397 0.0
C1283 C 0.53414 0.46687 0.5156 0.0
C1284 C 0.53887 0.43772 0.51666 0.0
C1285 C 0.57141 0.43678 0.49841 0.0
C1286 C 0.55634 0.52511 0.49075 0.0
C1287 C 0.51092 0.40814 0.53958 0.0
H1288 H 0.48907 0.48052 0.64583 0.0
H1289 H 0.40684 0.43965 0.54669 0.0
H1290 H 0.56245 0.47283 0.60119 0.0
H1291 H 0.57262 0.51236 0.58161 0.0
H1292 H 0.55486 0.50157 0.63452 0.0
H1293 H 0.42541 0.4418 0.47516 0.0
H1294 H 0.47357 0.46946 0.4615 0.0
H1295 H 0.46289 0.42823 0.47323 0.0
H1296 H 0.61556 0.51407 0.46241 0.0
H1297 H 0.57579 0.4149 0.50086 0.0
H1298 H 0.57334 0.54041 0.46433 0.0
H1299 H 0.56619 0.53913 0.52037 0.0
H1300 H 0.52588 0.52002 0.48624 0.0
H1301 H 0.51006 0.41382 0.57351 0.0
H1302 H 0.51846 0.38727 0.5369 0.0
H1303 H 0.48177 0.40082 0.52671 0.0
C1304 C 0.05236 0.55962 0.37322 0.0
C1305 C 0.02669 0.57384 0.37705 0.0
C1306 C 0.0656 0.54938 0.40869 0.0
C1307 C 0.05195 0.55252 0.4491 0.0
C1308 C 0.02311 0.56379 0.45287 0.0
C1309 C 0.01093 0.57461 0.41667 0.0
C1310 C 0.09673 0.53786 0.40306 0.0
C1311 C 0.00692 0.56632 0.49528 0.0
C1312 C 0.09024 0.51153 0.52719 0.0
C1313 C 0.12466 0.53746 0.5387 0.0
C1314 C 0.06346 0.51655 0.50183 0.0
C1315 C 0.07199 0.54804 0.4868 0.0
C1316 C 0.10498 0.57463 0.50167 0.0
C1317 C 0.13066 0.56902 0.52797 0.0
C1318 C 0.0279 0.48778 0.48791 0.0
C1319 C 0.11563 0.60858 0.48584 0.0
H1320 H 0.06417 0.5584 0.3426 0.0
H1321 H 0.99082 0.58532 0.41981 0.0
H1322 H 0.12334 0.55507 0.4186 0.0
H1323 H 0.08845 0.51395 0.41815 0.0
H1324 H 0.10314 0.53577 0.36932 0.0
H1325 H 0.9809 0.57073 0.49222 0.0
H1326 H -7e-05 0.54391 0.51375 0.0
H1327 H 0.02848 0.58658 0.51349 0.0
H1328 H 0.08515 0.4871 0.53605 0.0
H1329 H 0.1571 0.5892 0.53693 0.0
H1330 H 0.03226 0.48032 0.45579 0.0
H1331 H 0.00311 0.494 0.48655 0.0
H1332 H 0.02101 0.4668 0.50928 0.0
H1333 H 0.1243 0.61014 0.45224 0.0
H1334 H 0.13964 0.6269 0.50402 0.0
H1335 H 0.0909 0.61481 0.48754 0.0
C1336 C 0.57771 0.15128 0.82021 0.0
C1337 C 0.55601 0.12778 0.84956 0.0
C1338 C 0.57389 0.14472 0.77693 0.0
C1339 C 0.54742 0.11396 0.76263 0.0
C1340 C 0.52631 0.0897 0.79213 0.0
C1341 C 0.531 0.09687 0.83542 0.0
C1342 C 0.59748 0.17108 0.74647 0.0
C1343 C 0.49783 0.05668 0.77797 0.0
C1344 C 0.51714 0.11955 0.65085 0.0
C1345 C 0.54325 0.11186 0.62805 0.0
C1346 C 0.51591 0.11773 0.69503 0.0
C1347 C 0.54146 0.10808 0.71662 0.0
C1348 C 0.56542 0.09757 0.69354 0.0
C1349 C 0.56594 0.09951 0.64947 0.0
C1350 C 0.48949 0.12862 0.71862 0.0
C1351 C 0.5929 0.08694 0.71534 0.0
H1352 H 0.59731 0.1751 0.83103 0.0
H1353 H 0.51404 0.07866 0.85806 0.0
H1354 H 0.61381 0.16226 0.72516 0.0
H1355 H 0.5784 0.1778 0.7265 0.0
H1356 H 0.61793 0.19316 0.76285 0.0
H1357 H 0.48653 0.0396 0.80478 0.0
H1358 H 0.47352 0.05887 0.76196 0.0
H1359 H 0.51104 0.04628 0.75479 0.0
H1360 H 0.4992 0.12876 0.63445 0.0
H1361 H 0.58574 0.09296 0.63198 0.0
H1362 H 0.50642 0.1526 0.73319 0.0
H1363 H 0.4747 0.1115 0.74443 0.0
H1364 H 0.4677 0.13075 0.69757 0.0
H1365 H 0.61703 0.10845 0.72852 0.0
H1366 H 0.60471 0.0745 0.69334 0.0
H1367 H 0.5788 0.07047 0.74197 0.0
loop_
_geom_bond_atom_site_label_1
_geom_bond_atom_site_label_2
_geom_bond_distance
_geom_bond_site_symmetry_2
_ccdc_geom_bond_type
Co0 O3 1.970 1_554 S
Co0 N17 1.989 . S
Co0 O25 1.967 1_554 S
Co0 O32 1.920 . S
Co1 O4 1.966 . S
Co1 N10 2.022 . S
Co1 N18 1.993 1_556 S
Co1 O26 1.941 . S
C2 O3 1.258 . S
C2 O4 1.263 . S
O3 Co0 1.970 1_556 S
O3 C2 1.258 . S
O4 Co1 1.966 . S
O4 C2 1.263 . S
C5 O6 1.235 . S
C5 O32 1.289 . S
O6 C5 1.235 . S
C7 C9 1.400 1_556 S
C7 N10 1.351 . S
C7 C12 1.501 . S
C8 C9 1.387 . S
C8 N11 1.341 1_554 S
C9 C7 1.400 1_554 S
C9 C8 1.387 . S
N10 Co1 2.022 . S
N10 C7 1.351 . S
N10 N11 1.365 . S
N11 C8 1.341 1_556 S
N11 N10 1.365 . S
N11 H31 0.862 . S
C12 C7 1.501 . S
C12 H13 0.961 . S
C12 H14 0.961 1_556 S
C12 H15 0.960 . S
H13 C12 0.961 . S
H14 C12 0.961 1_554 S
H15 C12 0.960 . S
C16 N17 1.342 . S
C16 C20 1.401 . S
C16 C21 1.499 . S
N17 Co0 1.989 . S
N17 C16 1.342 . S
N17 N18 1.388 . S
N18 Co1 1.993 1_554 S
N18 N17 1.388 . S
N18 C19 1.346 . S
C19 N18 1.346 . S
C19 C20 1.396 . S
C19 C29 1.510 . S
C20 C16 1.401 . S
C20 C19 1.396 . S
C21 C16 1.499 . S
C21 H22 0.959 . S
C21 H23 0.960 . S
C21 H24 0.961 . S
H22 C21 0.959 . S
H23 C21 0.960 . S
H24 C21 0.961 . S
O25 Co0 1.967 1_556 S
O25 C33 1.258 . S
O26 Co1 1.941 . S
O26 C33 1.266 . S
H27 C29 0.959 . S
H28 C29 0.961 . S
C29 C19 1.510 . S
C29 H27 0.959 . S
C29 H28 0.961 . S
C29 H30 0.960 . S
H30 C29 0.960 . S
H31 N11 0.862 . S
O32 Co0 1.920 . S
O32 C5 1.289 . S
C33 O25 1.258 . S
C33 O26 1.266 . S
Co34 O37 1.970 . S
Co34 N51 1.989 . S
Co34 O59 1.967 1_655 S
Co34 O66 1.920 1_655 S
Co35 O38 1.966 . S
Co35 N44 2.022 . S
Co35 N52 1.993 . S
Co35 O60 1.941 1_655 S
C36 O37 1.258 . S
C36 O38 1.263 . S
O37 Co34 1.970 . S
O37 C36 1.258 . S
O38 Co35 1.966 . S
O38 C36 1.263 . S
C39 O40 1.235 . S
C39 O66 1.289 1_655 S
O40 C39 1.235 . S
C41 C43 1.400 . S
C41 N44 1.351 . S
C41 C46 1.501 . S
C42 C43 1.387 . S
C42 N45 1.341 . S
C43 C41 1.400 . S
C43 C42 1.387 . S
N44 Co35 2.022 . S
N44 C41 1.351 . S
N44 N45 1.365 . S
N45 C42 1.341 . S
N45 N44 1.365 . S
N45 H65 0.862 . S
C46 C41 1.501 . S
C46 H47 0.961 . S
C46 H48 0.961 . S
C46 H49 0.960 . S
H47 C46 0.961 . S
H48 C46 0.961 . S
H49 C46 0.960 . S
C50 N51 1.342 . S
C50 C54 1.401 . S
C50 C55 1.499 . S
N51 Co34 1.989 . S
N51 C50 1.342 . S
N51 N52 1.388 . S
N52 Co35 1.993 . S
N52 N51 1.388 . S
N52 C53 1.346 . S
C53 N52 1.346 . S
C53 C54 1.396 . S
C53 C63 1.510 . S
C54 C50 1.401 . S
C54 C53 1.396 . S
C55 C50 1.499 . S
C55 H56 0.959 . S
C55 H57 0.960 . S
C55 H58 0.961 . S
H56 C55 0.959 . S
H57 C55 0.960 . S
H58 C55 0.961 . S
O59 Co34 1.967 1_455 S
O59 C67 1.258 . S
O60 Co35 1.941 1_455 S
O60 C67 1.266 . S
H61 C63 0.959 . S
H62 C63 0.961 . S
C63 C53 1.510 . S
C63 H61 0.959 . S
C63 H62 0.961 . S
C63 H64 0.960 . S
H64 C63 0.960 . S
H65 N45 0.862 . S
O66 Co34 1.920 1_455 S
O66 C39 1.289 1_455 S
C67 O59 1.258 . S
C67 O60 1.266 . S
Co68 O71 1.970 . S
Co68 N85 1.989 . S
Co68 O93 1.967 1_554 S
Co68 O100 1.920 . S
Co69 O72 1.966 . S
Co69 N78 2.022 . S
Co69 N86 1.993 . S
Co69 O94 1.941 . S
C70 O71 1.258 . S
C70 O72 1.263 1_554 S
O71 Co68 1.970 . S
O71 C70 1.258 . S
O72 Co69 1.966 . S
O72 C70 1.263 1_556 S
C73 O74 1.235 . S
C73 O100 1.289 . S
O74 C73 1.235 . S
C75 C77 1.400 . S
C75 N78 1.351 . S
C75 C80 1.501 . S
C76 C77 1.387 . S
C76 N79 1.341 . S
C77 C75 1.400 . S
C77 C76 1.387 . S
N78 Co69 2.022 . S
N78 C75 1.351 . S
N78 N79 1.365 . S
N79 C76 1.341 . S
N79 N78 1.365 . S
N79 H99 0.862 . S
C80 C75 1.501 . S
C80 H81 0.961 . S
C80 H82 0.961 . S
C80 H83 0.960 . S
H81 C80 0.961 . S
H82 C80 0.961 . S
H83 C80 0.960 . S
C84 N85 1.342 . S
C84 C88 1.401 . S
C84 C89 1.499 . S
N85 Co68 1.989 . S
N85 C84 1.342 . S
N85 N86 1.388 1_554 S
N86 Co69 1.993 . S
N86 N85 1.388 1_556 S
N86 C87 1.346 . S
C87 N86 1.346 . S
C87 C88 1.396 1_556 S
C87 C97 1.510 . S
C88 C84 1.401 . S
C88 C87 1.396 1_554 S
C89 C84 1.499 . S
C89 H90 0.959 . S
C89 H91 0.960 . S
C89 H92 0.961 . S
H90 C89 0.959 . S
H91 C89 0.960 . S
H92 C89 0.961 . S
O93 Co68 1.967 1_556 S
O93 C101 1.258 . S
O94 Co69 1.941 . S
O94 C101 1.266 . S
H95 C97 0.959 . S
H96 C97 0.961 . S
C97 C87 1.510 . S
C97 H95 0.959 . S
C97 H96 0.961 . S
C97 H98 0.960 . S
H98 C97 0.960 . S
H99 N79 0.862 . S
O100 Co68 1.920 . S
O100 C73 1.289 . S
C101 O93 1.258 . S
C101 O94 1.266 . S
Co102 O105 1.970 . S
Co102 N119 1.989 . S
Co102 O127 1.967 . S
Co102 O134 1.920 . S
Co103 O106 1.966 . S
Co103 N112 2.022 . S
Co103 N120 1.993 . S
Co103 O128 1.941 . S
C104 O105 1.258 . S
C104 O106 1.263 . S
O105 Co102 1.970 . S
O105 C104 1.258 . S
O106 Co103 1.966 . S
O106 C104 1.263 . S
C107 O108 1.235 . S
C107 O134 1.289 . S
O108 C107 1.235 . S
C109 C111 1.400 . S
C109 N112 1.351 . S
C109 C114 1.501 . S
C110 C111 1.387 . S
C110 N113 1.341 . S
C111 C109 1.400 . S
C111 C110 1.387 . S
N112 Co103 2.022 . S
N112 C109 1.351 . S
N112 N113 1.365 . S
N113 C110 1.341 . S
N113 N112 1.365 . S
N113 H133 0.862 . S
C114 C109 1.501 . S
C114 H115 0.961 . S
C114 H116 0.961 . S
C114 H117 0.960 . S
H115 C114 0.961 . S
H116 C114 0.961 . S
H117 C114 0.960 . S
C118 N119 1.342 . S
C118 C122 1.401 . S
C118 C123 1.499 . S
N119 Co102 1.989 . S
N119 C118 1.342 . S
N119 N120 1.388 . S
N120 Co103 1.993 . S
N120 N119 1.388 . S
N120 C121 1.346 . S
C121 N120 1.346 . S
C121 C122 1.396 . S
C121 C131 1.510 . S
C122 C118 1.401 . S
C122 C121 1.396 . S
C123 C118 1.499 . S
C123 H124 0.959 . S
C123 H125 0.960 . S
C123 H126 0.961 . S
H124 C123 0.959 . S
H125 C123 0.960 . S
H126 C123 0.961 . S
O127 Co102 1.967 . S
O127 C135 1.258 . S
O128 Co103 1.941 . S
O128 C135 1.266 . S
H129 C131 0.959 . S
H130 C131 0.961 . S
C131 C121 1.510 . S
C131 H129 0.959 . S
C131 H130 0.961 . S
C131 H132 0.960 . S
H132 C131 0.960 . S
H133 N113 0.862 . S
O134 Co102 1.920 . S
O134 C107 1.289 . S
C135 O127 1.258 . S
C135 O128 1.266 . S
Co136 O139 1.970 . S
Co136 N153 1.989 . S
Co136 O161 1.967 1_455 S
Co136 O168 1.920 1_455 S
Co137 O140 1.966 . S
Co137 N146 2.022 . S
Co137 N154 1.993 . S
Co137 O162 1.941 1_455 S
C138 O139 1.258 . S
C138 O140 1.263 . S
O139 Co136 1.970 . S
O139 C138 1.258 . S
O140 Co137 1.966 . S
O140 C138 1.263 . S
C141 O142 1.235 . S
C141 O168 1.289 1_455 S
O142 C141 1.235 . S
C143 C145 1.400 . S
C143 N146 1.351 . S
C143 C148 1.501 . S
C144 C145 1.387 . S
C144 N147 1.341 . S
C145 C143 1.400 . S
C145 C144 1.387 . S
N146 Co137 2.022 . S
N146 C143 1.351 . S
N146 N147 1.365 . S
N147 C144 1.341 . S
N147 N146 1.365 . S
N147 H167 0.862 . S
C148 C143 1.501 . S
C148 H149 0.961 . S
C148 H150 0.961 . S
C148 H151 0.960 . S
H149 C148 0.961 . S
H150 C148 0.961 . S
H151 C148 0.960 . S
C152 N153 1.342 . S
C152 C156 1.401 . S
C152 C157 1.499 . S
N153 Co136 1.989 . S
N153 C152 1.342 . S
N153 N154 1.388 . S
N154 Co137 1.993 . S
N154 N153 1.388 . S
N154 C155 1.346 . S
C155 N154 1.346 . S
C155 C156 1.396 . S
C155 C165 1.510 . S
C156 C152 1.401 . S
C156 C155 1.396 . S
C157 C152 1.499 . S
C157 H158 0.959 . S
C157 H159 0.960 . S
C157 H160 0.961 . S
H158 C157 0.959 . S
H159 C157 0.960 . S
H160 C157 0.961 . S
O161 Co136 1.967 1_655 S
O161 C169 1.258 . S
O162 Co137 1.941 1_655 S
O162 C169 1.266 . S
H163 C165 0.959 . S
H164 C165 0.961 . S
C165 C155 1.510 . S
C165 H163 0.959 . S
C165 H164 0.961 . S
C165 H166 0.960 . S
H166 C165 0.960 . S
H167 N147 0.862 . S
O168 Co136 1.920 1_655 S
O168 C141 1.289 1_655 S
C169 O161 1.258 . S
C169 O162 1.266 . S
Co170 O173 1.970 . S
Co170 N187 1.989 . S
Co170 O195 1.967 . S
Co170 O202 1.920 . S
Co171 O174 1.966 . S
Co171 N180 2.022 . S
Co171 N188 1.993 . S
Co171 O196 1.941 . S
C172 O173 1.258 . S
C172 O174 1.263 . S
O173 Co170 1.970 . S
O173 C172 1.258 . S
O174 Co171 1.966 . S
O174 C172 1.263 . S
C175 O176 1.235 . S
C175 O202 1.289 . S
O176 C175 1.235 . S
C177 C179 1.400 . S
C177 N180 1.351 . S
C177 C182 1.501 . S
C178 C179 1.387 . S
C178 N181 1.341 . S
C179 C177 1.400 . S
C179 C178 1.387 . S
N180 Co171 2.022 . S
N180 C177 1.351 . S
N180 N181 1.365 . S
N181 C178 1.341 . S
N181 N180 1.365 . S
N181 H201 0.862 . S
C182 C177 1.501 . S
C182 H183 0.961 . S
C182 H184 0.961 . S
C182 H185 0.960 . S
H183 C182 0.961 . S
H184 C182 0.961 . S
H185 C182 0.960 . S
C186 N187 1.342 . S
C186 C190 1.401 . S
C186 C191 1.499 . S
N187 Co170 1.989 . S
N187 C186 1.342 . S
N187 N188 1.388 . S
N188 Co171 1.993 . S
N188 N187 1.388 . S
N188 C189 1.346 . S
C189 N188 1.346 . S
C189 C190 1.396 . S
C189 C199 1.510 . S
C190 C186 1.401 . S
C190 C189 1.396 . S
C191 C186 1.499 . S
C191 H192 0.959 . S
C191 H193 0.960 . S
C191 H194 0.961 . S
H192 C191 0.959 . S
H193 C191 0.960 . S
H194 C191 0.961 . S
O195 Co170 1.967 . S
O195 C203 1.258 . S
O196 Co171 1.941 . S
O196 C203 1.266 . S
H197 C199 0.959 . S
H198 C199 0.961 . S
C199 C189 1.510 . S
C199 H197 0.959 . S
C199 H198 0.961 . S
C199 H200 0.960 . S
H200 C199 0.960 . S
H201 N181 0.862 . S
O202 Co170 1.920 . S
O202 C175 1.289 . S
C203 O195 1.258 . S
C203 O196 1.266 . S
Co204 O207 1.970 . S
Co204 N221 1.989 . S
Co204 O229 1.967 . S
Co204 O236 1.920 . S
Co205 O208 1.966 . S
Co205 N214 2.022 . S
Co205 N222 1.993 . S
Co205 O230 1.941 . S
C206 O207 1.258 . S
C206 O208 1.263 . S
O207 Co204 1.970 . S
O207 C206 1.258 . S
O208 Co205 1.966 . S
O208 C206 1.263 . S
C209 O210 1.235 . S
C209 O236 1.289 . S
O210 C209 1.235 . S
C211 C213 1.400 . S
C211 N214 1.351 . S
C211 C216 1.501 . S
C212 C213 1.387 . S
C212 N215 1.341 . S
C213 C211 1.400 . S
C213 C212 1.387 . S
N214 Co205 2.022 . S
N214 C211 1.351 . S
N214 N215 1.365 . S
N215 C212 1.341 . S
N215 N214 1.365 . S
N215 H235 0.862 . S
C216 C211 1.501 . S
C216 H217 0.961 . S
C216 H218 0.961 . S
C216 H219 0.960 . S
H217 C216 0.961 . S
H218 C216 0.961 . S
H219 C216 0.960 . S
C220 N221 1.342 . S
C220 C224 1.401 . S
C220 C225 1.499 . S
N221 Co204 1.989 . S
N221 C220 1.342 . S
N221 N222 1.388 . S
N222 Co205 1.993 . S
N222 N221 1.388 . S
N222 C223 1.346 . S
C223 N222 1.346 . S
C223 C224 1.396 . S
C223 C233 1.510 . S
C224 C220 1.401 . S
C224 C223 1.396 . S
C225 C220 1.499 . S
C225 H226 0.959 . S
C225 H227 0.960 . S
C225 H228 0.961 . S
H226 C225 0.959 . S
H227 C225 0.960 . S
H228 C225 0.961 . S
O229 Co204 1.967 . S
O229 C237 1.258 . S
O230 Co205 1.941 . S
O230 C237 1.266 . S
H231 C233 0.959 . S
H232 C233 0.961 . S
C233 C223 1.510 . S
C233 H231 0.959 . S
C233 H232 0.961 . S
C233 H234 0.960 . S
H234 C233 0.960 . S
H235 N215 0.862 . S
O236 Co204 1.920 . S
O236 C209 1.289 . S
C237 O229 1.258 . S
C237 O230 1.266 . S
Co238 O241 1.970 1_556 S
Co238 N255 1.989 . S
Co238 O263 1.967 1_556 S
Co238 O270 1.920 . S
Co239 O242 1.966 . S
Co239 N248 2.022 . S
Co239 N256 1.993 1_554 S
Co239 O264 1.941 . S
C240 O241 1.258 . S
C240 O242 1.263 . S
O241 Co238 1.970 1_554 S
O241 C240 1.258 . S
O242 Co239 1.966 . S
O242 C240 1.263 . S
C243 O244 1.235 . S
C243 O270 1.289 . S
O244 C243 1.235 . S
C245 C247 1.400 1_554 S
C245 N248 1.351 . S
C245 C250 1.501 . S
C246 C247 1.387 . S
C246 N249 1.341 1_556 S
C247 C245 1.400 1_556 S
C247 C246 1.387 . S
N248 Co239 2.022 . S
N248 C245 1.351 . S
N248 N249 1.365 . S
N249 C246 1.341 1_554 S
N249 N248 1.365 . S
N249 H269 0.862 . S
C250 C245 1.501 . S
C250 H251 0.961 . S
C250 H252 0.961 1_554 S
C250 H253 0.960 . S
H251 C250 0.961 . S
H252 C250 0.961 1_556 S
H253 C250 0.960 . S
C254 N255 1.342 . S
C254 C258 1.401 . S
C254 C259 1.499 . S
N255 Co238 1.989 . S
N255 C254 1.342 . S
N255 N256 1.388 . S
N256 Co239 1.993 1_556 S
N256 N255 1.388 . S
N256 C257 1.346 . S
C257 N256 1.346 . S
C257 C258 1.396 . S
C257 C267 1.510 . S
C258 C254 1.401 . S
C258 C257 1.396 . S
C259 C254 1.499 . S
C259 H260 0.959 . S
C259 H261 0.960 . S
C259 H262 0.961 . S
H260 C259 0.959 . S
H261 C259 0.960 . S
H262 C259 0.961 . S
O263 Co238 1.967 1_554 S
O263 C271 1.258 . S
O264 Co239 1.941 . S
O264 C271 1.266 . S
H265 C267 0.959 . S
H266 C267 0.961 . S
C267 C257 1.510 . S
C267 H265 0.959 . S
C267 H266 0.961 . S
C267 H268 0.960 . S
H268 C267 0.960 . S
H269 N249 0.862 . S
O270 Co238 1.920 . S
O270 C243 1.289 . S
C271 O263 1.258 . S
C271 O264 1.266 . S
Co272 O275 1.970 . S
Co272 N289 1.989 . S
Co272 O297 1.967 . S
Co272 O304 1.920 . S
Co273 O276 1.966 . S
Co273 N282 2.022 . S
Co273 N290 1.993 . S
Co273 O298 1.941 . S
C274 O275 1.258 . S
C274 O276 1.263 . S
O275 Co272 1.970 . S
O275 C274 1.258 . S
O276 Co273 1.966 . S
O276 C274 1.263 . S
C277 O278 1.235 . S
C277 O304 1.289 . S
O278 C277 1.235 . S
C279 C281 1.400 . S
C279 N282 1.351 . S
C279 C284 1.501 . S
C280 C281 1.387 . S
C280 N283 1.341 . S
C281 C279 1.400 . S
C281 C280 1.387 . S
N282 Co273 2.022 . S
N282 C279 1.351 . S
N282 N283 1.365 . S
N283 C280 1.341 . S
N283 N282 1.365 . S
N283 H303 0.862 . S
C284 C279 1.501 . S
C284 H285 0.961 . S
C284 H286 0.961 . S
C284 H287 0.960 . S
H285 C284 0.961 . S
H286 C284 0.961 . S
H287 C284 0.960 . S
C288 N289 1.342 . S
C288 C292 1.401 . S
C288 C293 1.499 . S
N289 Co272 1.989 . S
N289 C288 1.342 . S
N289 N290 1.388 . S
N290 Co273 1.993 . S
N290 N289 1.388 . S
N290 C291 1.346 . S
C291 N290 1.346 . S
C291 C292 1.396 . S
C291 C301 1.510 . S
C292 C288 1.401 . S
C292 C291 1.396 . S
C293 C288 1.499 . S
C293 H294 0.959 . S
C293 H295 0.960 . S
C293 H296 0.961 . S
H294 C293 0.959 . S
H295 C293 0.960 . S
H296 C293 0.961 . S
O297 Co272 1.967 . S
O297 C305 1.258 . S
O298 Co273 1.941 . S
O298 C305 1.266 . S
H299 C301 0.959 . S
H300 C301 0.961 . S
C301 C291 1.510 . S
C301 H299 0.959 . S
C301 H300 0.961 . S
C301 H302 0.960 . S
H302 C301 0.960 . S
H303 N283 0.862 . S
O304 Co272 1.920 . S
O304 C277 1.289 . S
C305 O297 1.258 . S
C305 O298 1.266 . S
Co306 O309 1.970 . S
Co306 N323 1.989 . S
Co306 O331 1.967 . S
Co306 O338 1.920 . S
Co307 O310 1.966 . S
Co307 N316 2.022 . S
Co307 N324 1.993 . S
Co307 O332 1.941 . S
C308 O309 1.258 . S
C308 O310 1.263 . S
O309 Co306 1.970 . S
O309 C308 1.258 . S
O310 Co307 1.966 . S
O310 C308 1.263 . S
C311 O312 1.235 . S
C311 O338 1.289 . S
O312 C311 1.235 . S
C313 C315 1.400 . S
C313 N316 1.351 . S
C313 C318 1.501 . S
C314 C315 1.387 . S
C314 N317 1.341 . S
C315 C313 1.400 . S
C315 C314 1.387 . S
N316 Co307 2.022 . S
N316 C313 1.351 . S
N316 N317 1.365 . S
N317 C314 1.341 . S
N317 N316 1.365 . S
N317 H337 0.862 . S
C318 C313 1.501 . S
C318 H319 0.961 . S
C318 H320 0.961 . S
C318 H321 0.960 . S
H319 C318 0.961 . S
H320 C318 0.961 . S
H321 C318 0.960 . S
C322 N323 1.342 . S
C322 C326 1.401 . S
C322 C327 1.499 . S
N323 Co306 1.989 . S
N323 C322 1.342 . S
N323 N324 1.388 . S
N324 Co307 1.993 . S
N324 N323 1.388 . S
N324 C325 1.346 . S
C325 N324 1.346 . S
C325 C326 1.396 . S
C325 C335 1.510 . S
C326 C322 1.401 . S
C326 C325 1.396 . S
C327 C322 1.499 . S
C327 H328 0.959 . S
C327 H329 0.960 . S
C327 H330 0.961 . S
H328 C327 0.959 . S
H329 C327 0.960 . S
H330 C327 0.961 . S
O331 Co306 1.967 . S
O331 C339 1.258 . S
O332 Co307 1.941 . S
O332 C339 1.266 . S
H333 C335 0.959 . S
H334 C335 0.961 . S
C335 C325 1.510 . S
C335 H333 0.959 . S
C335 H334 0.961 . S
C335 H336 0.960 . S
H336 C335 0.960 . S
H337 N317 0.862 . S
O338 Co306 1.920 . S
O338 C311 1.289 . S
C339 O331 1.258 . S
C339 O332 1.266 . S
Co340 O343 1.970 . S
Co340 N357 1.989 . S
Co340 O365 1.967 . S
Co340 O372 1.920 . S
Co341 O344 1.966 . S
Co341 N350 2.022 . S
Co341 N358 1.993 . S
Co341 O366 1.941 . S
C342 O343 1.258 . S
C342 O344 1.263 . S
O343 Co340 1.970 . S
O343 C342 1.258 . S
O344 Co341 1.966 . S
O344 C342 1.263 . S
C345 O346 1.235 . S
C345 O372 1.289 . S
O346 C345 1.235 . S
C347 C349 1.400 . S
C347 N350 1.351 . S
C347 C352 1.501 . S
C348 C349 1.387 . S
C348 N351 1.341 . S
C349 C347 1.400 . S
C349 C348 1.387 . S
N350 Co341 2.022 . S
N350 C347 1.351 . S
N350 N351 1.365 . S
N351 C348 1.341 . S
N351 N350 1.365 . S
N351 H371 0.862 . S
C352 C347 1.501 . S
C352 H353 0.961 . S
C352 H354 0.961 . S
C352 H355 0.960 . S
H353 C352 0.961 . S
H354 C352 0.961 . S
H355 C352 0.960 . S
C356 N357 1.342 . S
C356 C360 1.401 . S
C356 C361 1.499 . S
N357 Co340 1.989 . S
N357 C356 1.342 . S
N357 N358 1.388 . S
N358 Co341 1.993 . S
N358 N357 1.388 . S
N358 C359 1.346 . S
C359 N358 1.346 . S
C359 C360 1.396 . S
C359 C369 1.510 . S
C360 C356 1.401 . S
C360 C359 1.396 . S
C361 C356 1.499 . S
C361 H362 0.959 . S
C361 H363 0.960 . S
C361 H364 0.961 . S
H362 C361 0.959 . S
H363 C361 0.960 . S
H364 C361 0.961 . S
O365 Co340 1.967 . S
O365 C373 1.258 . S
O366 Co341 1.941 . S
O366 C373 1.266 . S
H367 C369 0.959 . S
H368 C369 0.961 . S
C369 C359 1.510 . S
C369 H367 0.959 . S
C369 H368 0.961 . S
C369 H370 0.960 . S
H370 C369 0.960 . S
H371 N351 0.862 . S
O372 Co340 1.920 . S
O372 C345 1.289 . S
C373 O365 1.258 . S
C373 O366 1.266 . S
Co374 O377 1.970 . S
Co374 N391 1.989 . S
Co374 O399 1.967 1_556 S
Co374 O406 1.920 . S
Co375 O378 1.966 . S
Co375 N384 2.022 . S
Co375 N392 1.993 . S
Co375 O400 1.941 . S
C376 O377 1.258 . S
C376 O378 1.263 1_556 S
O377 Co374 1.970 . S
O377 C376 1.258 . S
O378 Co375 1.966 . S
O378 C376 1.263 1_554 S
C379 O380 1.235 . S
C379 O406 1.289 . S
O380 C379 1.235 . S
C381 C383 1.400 . S
C381 N384 1.351 . S
C381 C386 1.501 . S
C382 C383 1.387 . S
C382 N385 1.341 . S
C383 C381 1.400 . S
C383 C382 1.387 . S
N384 Co375 2.022 . S
N384 C381 1.351 . S
N384 N385 1.365 . S
N385 C382 1.341 . S
N385 N384 1.365 . S
N385 H405 0.862 . S
C386 C381 1.501 . S
C386 H387 0.961 . S
C386 H388 0.961 . S
C386 H389 0.960 . S
H387 C386 0.961 . S
H388 C386 0.961 . S
H389 C386 0.960 . S
C390 N391 1.342 . S
C390 C394 1.401 . S
C390 C395 1.499 . S
N391 Co374 1.989 . S
N391 C390 1.342 . S
N391 N392 1.388 1_556 S
N392 Co375 1.993 . S
N392 N391 1.388 1_554 S
N392 C393 1.346 . S
C393 N392 1.346 . S
C393 C394 1.396 1_554 S
C393 C403 1.510 . S
C394 C390 1.401 . S
C394 C393 1.396 1_556 S
C395 C390 1.499 . S
C395 H396 0.959 . S
C395 H397 0.960 . S
C395 H398 0.961 . S
H396 C395 0.959 . S
H397 C395 0.960 . S
H398 C395 0.961 . S
O399 Co374 1.967 1_554 S
O399 C407 1.258 . S
O400 Co375 1.941 . S
O400 C407 1.266 . S
H401 C403 0.959 . S
H402 C403 0.961 . S
C403 C393 1.510 . S
C403 H401 0.959 . S
C403 H402 0.961 . S
C403 H404 0.960 . S
H404 C403 0.960 . S
H405 N385 0.862 . S
O406 Co374 1.920 . S
O406 C379 1.289 . S
C407 O399 1.258 . S
C407 O400 1.266 . S
C408 C409 1.391 . S
C408 C410 1.394 . S
C408 H424 0.931 . S
C409 C408 1.391 . S
C409 C413 1.376 . S
C410 C408 1.394 . S
C410 C411 1.369 . S
C410 C414 1.531 . S
C411 C410 1.369 . S
C411 C412 1.410 . S
C411 C419 1.503 . S
C412 C411 1.410 . S
C412 C413 1.392 . S
C412 C415 1.511 . S
C413 C409 1.376 . S
C413 C412 1.392 . S
C413 H425 0.929 . S
C414 C410 1.531 . S
C414 H426 0.960 . S
C414 H427 0.962 . S
C414 H428 0.960 . S
C415 C412 1.511 . S
C415 H429 0.961 . S
C415 H430 0.961 . S
C415 H431 0.961 . S
C416 C417 1.370 . S
C416 C418 1.363 . S
C416 H432 0.931 . S
C417 C416 1.370 . S
C417 C421 1.408 . S
C418 C416 1.363 . S
C418 C419 1.370 . S
C418 C422 1.524 . S
C419 C411 1.503 . S
C419 C418 1.370 . S
C419 C420 1.403 . S
C420 C419 1.403 . S
C420 C421 1.404 . S
C420 C423 1.539 . S
C421 C417 1.408 . S
C421 C420 1.404 . S
C421 H433 0.930 . S
C422 C418 1.524 . S
C422 H434 0.956 . S
C422 H435 0.961 . S
C422 H436 0.961 . S
C423 C420 1.539 . S
C423 H437 0.958 . S
C423 H438 0.961 . S
C423 H439 0.960 . S
H424 C408 0.931 . S
H425 C413 0.929 . S
H426 C414 0.960 . S
H427 C414 0.962 . S
H428 C414 0.960 . S
H429 C415 0.961 . S
H430 C415 0.961 . S
H431 C415 0.961 . S
H432 C416 0.931 . S
H433 C421 0.930 . S
H434 C422 0.956 . S
H435 C422 0.961 . S
H436 C422 0.961 . S
H437 C423 0.958 . S
H438 C423 0.961 . S
H439 C423 0.960 . S
C440 C441 1.391 . S
C440 C442 1.394 . S
C440 H456 0.931 . S
C441 C440 1.391 . S
C441 C445 1.376 . S
C442 C440 1.394 . S
C442 C443 1.369 . S
C442 C446 1.531 . S
C443 C442 1.369 . S
C443 C444 1.410 . S
C443 C451 1.503 . S
C444 C443 1.410 . S
C444 C445 1.392 . S
C444 C447 1.511 . S
C445 C441 1.376 . S
C445 C444 1.392 . S
C445 H457 0.929 . S
C446 C442 1.531 . S
C446 H458 0.960 . S
C446 H459 0.962 . S
C446 H460 0.960 . S
C447 C444 1.511 . S
C447 H461 0.961 . S
C447 H462 0.961 . S
C447 H463 0.961 . S
C448 C449 1.370 . S
C448 C450 1.363 . S
C448 H464 0.931 . S
C449 C448 1.370 . S
C449 C453 1.408 . S
C450 C448 1.363 . S
C450 C451 1.370 . S
C450 C454 1.524 . S
C451 C443 1.503 . S
C451 C450 1.370 . S
C451 C452 1.403 . S
C452 C451 1.403 . S
C452 C453 1.404 . S
C452 C455 1.539 . S
C453 C449 1.408 . S
C453 C452 1.404 . S
C453 H465 0.930 . S
C454 C450 1.524 . S
C454 H466 0.956 . S
C454 H467 0.961 . S
C454 H468 0.961 . S
C455 C452 1.539 . S
C455 H469 0.958 . S
C455 H470 0.961 . S
C455 H471 0.960 . S
H456 C440 0.931 . S
H457 C445 0.929 . S
H458 C446 0.960 . S
H459 C446 0.962 . S
H460 C446 0.960 . S
H461 C447 0.961 . S
H462 C447 0.961 . S
H463 C447 0.961 . S
H464 C448 0.931 . S
H465 C453 0.930 . S
H466 C454 0.956 . S
H467 C454 0.961 . S
H468 C454 0.961 . S
H469 C455 0.958 . S
H470 C455 0.961 . S
H471 C455 0.960 . S
C472 C473 1.391 . S
C472 C474 1.394 1_554 S
C472 H488 0.931 . S
C473 C472 1.391 . S
C473 C477 1.376 . S
C474 C472 1.394 1_556 S
C474 C475 1.369 1_556 S
C474 C478 1.531 . S
C475 C474 1.369 1_554 S
C475 C476 1.410 . S
C475 C483 1.503 1_544 S
C476 C475 1.410 . S
C476 C477 1.392 . S
C476 C479 1.525 . S
C477 C473 1.376 . S
C477 C476 1.392 . S
C477 H489 0.929 . S
C478 C474 1.531 . S
C478 H490 0.960 . S
C478 H491 0.962 . S
C478 H492 0.960 . S
C479 C476 1.525 . S
C479 H493 0.961 . S
C479 H494 0.951 1_545 S
C479 H495 0.958 . S
C480 C481 1.370 . S
C480 C482 1.363 1_556 S
C480 H496 0.931 . S
C481 C480 1.370 . S
C481 C485 1.408 . S
C482 C480 1.363 1_554 S
C482 C483 1.370 1_554 S
C482 C486 1.524 . S
C483 C475 1.503 1_566 S
C483 C482 1.370 1_556 S
C483 C484 1.403 . S
C484 C483 1.403 . S
C484 C485 1.404 . S
C484 C487 1.539 1_565 S
C485 C481 1.408 . S
C485 C484 1.404 . S
C485 H497 0.930 . S
C486 C482 1.524 . S
C486 H498 0.956 . S
C486 H499 0.961 . S
C486 H500 0.961 . S
C487 C484 1.539 1_545 S
C487 H501 0.958 . S
C487 H502 0.961 1_545 S
C487 H503 0.960 . S
H488 C472 0.931 . S
H489 C477 0.929 . S
H490 C478 0.960 . S
H491 C478 0.962 . S
H492 C478 0.960 . S
H493 C479 0.961 . S
H494 C479 0.951 1_565 S
H495 C479 0.958 . S
H496 C480 0.931 . S
H497 C485 0.930 . S
H498 C486 0.956 . S
H499 C486 0.961 . S
H500 C486 0.961 . S
H501 C487 0.958 . S
H502 C487 0.961 1_565 S
H503 C487 0.960 . S
C504 C505 1.391 . S
C504 C506 1.394 . S
C504 H520 0.931 . S
C505 C504 1.391 . S
C505 C509 1.376 . S
C506 C504 1.394 . S
C506 C507 1.369 . S
C506 C510 1.531 . S
C507 C506 1.369 . S
C507 C508 1.410 . S
C507 C515 1.503 . S
C508 C507 1.410 . S
C508 C509 1.392 . S
C508 C511 1.511 . S
C509 C505 1.376 . S
C509 C508 1.392 . S
C509 H521 0.929 . S
C510 C506 1.531 . S
C510 H522 0.960 . S
C510 H523 0.962 . S
C510 H524 0.960 . S
C511 C508 1.511 . S
C511 H525 0.961 . S
C511 H526 0.961 . S
C511 H527 0.961 . S
C512 C513 1.370 . S
C512 C514 1.363 . S
C512 H528 0.931 . S
C513 C512 1.370 . S
C513 C517 1.408 . S
C514 C512 1.363 . S
C514 C515 1.370 . S
C514 C518 1.524 . S
C515 C507 1.503 . S
C515 C514 1.370 . S
C515 C516 1.403 . S
C516 C515 1.403 . S
C516 C517 1.404 . S
C516 C519 1.539 . S
C517 C513 1.408 . S
C517 C516 1.404 . S
C517 H529 0.930 . S
C518 C514 1.524 . S
C518 H530 0.956 . S
C518 H531 0.961 . S
C518 H532 0.961 . S
C519 C516 1.539 . S
C519 H533 0.958 . S
C519 H534 0.961 . S
C519 H535 0.960 . S
H520 C504 0.931 . S
H521 C509 0.929 . S
H522 C510 0.960 . S
H523 C510 0.962 . S
H524 C510 0.960 . S
H525 C511 0.961 . S
H526 C511 0.961 . S
H527 C511 0.961 . S
H528 C512 0.931 . S
H529 C517 0.930 . S
H530 C518 0.956 . S
H531 C518 0.961 . S
H532 C518 0.961 . S
H533 C519 0.958 . S
H534 C519 0.961 . S
H535 C519 0.960 . S
C536 C537 1.391 . S
C536 C538 1.394 . S
C536 H552 0.931 . S
C537 C536 1.391 . S
C537 C541 1.376 . S
C538 C536 1.394 . S
C538 C539 1.369 . S
C538 C542 1.531 . S
C539 C538 1.369 . S
C539 C540 1.410 . S
C539 C547 1.503 . S
C540 C539 1.410 . S
C540 C541 1.392 . S
C540 C543 1.511 . S
C541 C537 1.376 . S
C541 C540 1.392 . S
C541 H553 0.929 . S
C542 C538 1.531 . S
C542 H554 0.960 . S
C542 H555 0.962 . S
C542 H556 0.960 . S
C543 C540 1.511 . S
C543 H557 0.961 . S
C543 H558 0.961 . S
C543 H559 0.961 . S
C544 C545 1.370 . S
C544 C546 1.363 . S
C544 H560 0.931 . S
C545 C544 1.370 . S
C545 C549 1.408 . S
C546 C544 1.363 . S
C546 C547 1.370 . S
C546 C550 1.524 . S
C547 C539 1.503 . S
C547 C546 1.370 . S
C547 C548 1.403 . S
C548 C547 1.403 . S
C548 C549 1.404 . S
C548 C551 1.539 . S
C549 C545 1.408 . S
C549 C548 1.404 . S
C549 H561 0.930 . S
C550 C546 1.524 . S
C550 H562 0.956 . S
C550 H563 0.961 . S
C550 H564 0.961 . S
C551 C548 1.539 . S
C551 H565 0.958 . S
C551 H566 0.961 . S
C551 H567 0.960 . S
H552 C536 0.931 . S
H553 C541 0.929 . S
H554 C542 0.960 . S
H555 C542 0.962 . S
H556 C542 0.960 . S
H557 C543 0.961 . S
H558 C543 0.961 . S
H559 C543 0.961 . S
H560 C544 0.931 . S
H561 C549 0.930 . S
H562 C550 0.956 . S
H563 C550 0.961 . S
H564 C550 0.961 . S
H565 C551 0.958 . S
H566 C551 0.961 . S
H567 C551 0.960 . S
C568 C569 1.391 . S
C568 C570 1.394 . S
C568 H584 0.931 . S
C569 C568 1.391 . S
C569 C573 1.376 . S
C570 C568 1.394 . S
C570 C571 1.369 . S
C570 C574 1.510 1_565 S
C571 C570 1.369 . S
C571 C572 1.410 . S
C571 C579 1.503 1_565 S
C572 C571 1.410 . S
C572 C573 1.392 . S
C572 C575 1.511 . S
C573 C569 1.376 . S
C573 C572 1.392 . S
C573 H585 0.929 . S
C574 C570 1.510 1_545 S
C574 H586 0.979 . S
C574 H587 0.961 1_545 S
C574 H588 0.964 1_545 S
C575 C572 1.511 . S
C575 H589 0.961 . S
C575 H590 0.961 . S
C575 H591 0.961 . S
C576 C577 1.370 . S
C576 C578 1.363 . S
C576 H592 0.931 . S
C577 C576 1.370 . S
C577 C581 1.408 . S
C578 C576 1.363 . S
C578 C579 1.370 . S
C578 C582 1.524 1_545 S
C579 C571 1.503 1_545 S
C579 C578 1.370 . S
C579 C580 1.403 . S
C580 C579 1.403 . S
C580 C581 1.404 . S
C580 C583 1.539 . S
C581 C577 1.408 . S
C581 C580 1.404 . S
C581 H593 0.930 . S
C582 C578 1.524 1_565 S
C582 H594 0.956 . S
C582 H595 0.961 . S
C582 H596 0.961 . S
C583 C580 1.539 . S
C583 H597 0.958 . S
C583 H598 0.961 . S
C583 H599 0.960 . S
H584 C568 0.931 . S
H585 C573 0.929 . S
H586 C574 0.979 . S
H587 C574 0.961 1_565 S
H588 C574 0.964 1_565 S
H589 C575 0.961 . S
H590 C575 0.961 . S
H591 C575 0.961 . S
H592 C576 0.931 . S
H593 C581 0.930 . S
H594 C582 0.956 . S
H595 C582 0.961 . S
H596 C582 0.961 . S
H597 C583 0.958 . S
H598 C583 0.961 . S
H599 C583 0.960 . S
C600 C601 1.391 . S
C600 C602 1.394 . S
C600 H616 0.931 . S
C601 C600 1.391 . S
C601 C605 1.376 . S
C602 C600 1.394 . S
C602 C603 1.369 . S
C602 C606 1.531 . S
C603 C602 1.369 . S
C603 C604 1.410 . S
C603 C611 1.503 . S
C604 C603 1.410 . S
C604 C605 1.392 . S
C604 C607 1.511 1_455 S
C605 C601 1.376 . S
C605 C604 1.392 . S
C605 H617 0.929 . S
C606 C602 1.531 . S
C606 H618 0.960 . S
C606 H619 0.962 . S
C606 H620 0.960 . S
C607 C604 1.511 1_655 S
C607 H621 0.961 . S
C607 H622 0.961 . S
C607 H623 0.961 . S
C608 C609 1.370 . S
C608 C610 1.363 . S
C608 H624 0.931 . S
C609 C608 1.370 . S
C609 C613 1.408 . S
C610 C608 1.363 . S
C610 C611 1.370 . S
C610 C614 1.524 . S
C611 C603 1.503 . S
C611 C610 1.370 . S
C611 C612 1.403 . S
C612 C611 1.403 . S
C612 C613 1.404 . S
C612 C615 1.539 . S
C613 C609 1.408 . S
C613 C612 1.404 . S
C613 H625 0.930 . S
C614 C610 1.524 . S
C614 H626 0.956 . S
C614 H627 0.961 . S
C614 H628 0.961 . S
C615 C612 1.539 . S
C615 H629 0.958 . S
C615 H630 0.961 . S
C615 H631 0.960 . S
H616 C600 0.931 . S
H617 C605 0.929 . S
H618 C606 0.960 . S
H619 C606 0.962 . S
H620 C606 0.960 . S
H621 C607 0.961 . S
H622 C607 0.961 . S
H623 C607 0.961 . S
H624 C608 0.931 . S
H625 C613 0.930 . S
H626 C614 0.956 . S
H627 C614 0.961 . S
H628 C614 0.961 . S
H629 C615 0.958 . S
H630 C615 0.961 . S
H631 C615 0.960 . S
C632 C633 1.391 . S
C632 C634 1.394 . S
C632 H648 0.931 . S
C633 C632 1.391 . S
C633 C637 1.376 . S
C634 C632 1.394 . S
C634 C635 1.369 . S
C634 C638 1.531 . S
C635 C634 1.369 . S
C635 C636 1.410 . S
C635 C643 1.503 . S
C636 C635 1.410 . S
C636 C637 1.392 . S
C636 C639 1.511 . S
C637 C633 1.376 . S
C637 C636 1.392 . S
C637 H649 0.929 . S
C638 C634 1.531 . S
C638 H650 0.960 . S
C638 H651 0.962 . S
C638 H652 0.960 . S
C639 C636 1.511 . S
C639 H653 0.961 . S
C639 H654 0.961 . S
C639 H655 0.961 . S
C640 C641 1.370 . S
C640 C642 1.363 . S
C640 H656 0.931 . S
C641 C640 1.370 . S
C641 C645 1.408 . S
C642 C640 1.363 . S
C642 C643 1.370 . S
C642 C646 1.524 . S
C643 C635 1.503 . S
C643 C642 1.370 . S
C643 C644 1.403 . S
C644 C643 1.403 . S
C644 C645 1.404 . S
C644 C647 1.539 . S
C645 C641 1.408 . S
C645 C644 1.404 . S
C645 H657 0.930 . S
C646 C642 1.524 . S
C646 H658 0.956 . S
C646 H659 0.961 . S
C646 H660 0.961 . S
C647 C644 1.539 . S
C647 H661 0.958 . S
C647 H662 0.961 . S
C647 H663 0.960 . S
H648 C632 0.931 . S
H649 C637 0.929 . S
H650 C638 0.960 . S
H651 C638 0.962 . S
H652 C638 0.960 . S
H653 C639 0.961 . S
H654 C639 0.961 . S
H655 C639 0.961 . S
H656 C640 0.931 . S
H657 C645 0.930 . S
H658 C646 0.956 . S
H659 C646 0.961 . S
H660 C646 0.961 . S
H661 C647 0.958 . S
H662 C647 0.961 . S
H663 C647 0.960 . S
C664 C665 1.391 . S
C664 C666 1.394 . S
C664 H680 0.931 . S
C665 C664 1.391 . S
C665 C669 1.376 . S
C666 C664 1.394 . S
C666 C667 1.369 . S
C666 C670 1.531 . S
C667 C666 1.369 . S
C667 C668 1.410 . S
C667 C675 1.503 . S
C668 C667 1.410 . S
C668 C669 1.392 . S
C668 C671 1.511 . S
C669 C665 1.376 . S
C669 C668 1.392 . S
C669 H681 0.929 . S
C670 C666 1.531 . S
C670 H682 0.960 . S
C670 H683 0.962 . S
C670 H684 0.960 . S
C671 C668 1.511 . S
C671 H685 0.961 . S
C671 H686 0.961 . S
C671 H687 0.961 . S
C672 C673 1.370 . S
C672 C674 1.363 . S
C672 H688 0.931 . S
C673 C672 1.370 . S
C673 C677 1.408 . S
C674 C672 1.363 . S
C674 C675 1.370 . S
C674 C678 1.524 . S
C675 C667 1.503 . S
C675 C674 1.370 . S
C675 C676 1.403 . S
C676 C675 1.403 . S
C676 C677 1.404 . S
C676 C679 1.539 1_556 S
C677 C673 1.408 . S
C677 C676 1.404 . S
C677 H689 0.930 1_556 S
C678 C674 1.524 . S
C678 H690 0.956 . S
C678 H691 0.961 . S
C678 H692 0.961 . S
C679 C676 1.539 1_554 S
C679 H693 0.958 . S
C679 H694 0.961 . S
C679 H695 0.960 1_554 S
H680 C664 0.931 . S
H681 C669 0.929 . S
H682 C670 0.960 . S
H683 C670 0.962 . S
H684 C670 0.960 . S
H685 C671 0.961 . S
H686 C671 0.961 . S
H687 C671 0.961 . S
H688 C672 0.931 . S
H689 C677 0.930 1_554 S
H690 C678 0.956 . S
H691 C678 0.961 . S
H692 C678 0.961 . S
H693 C679 0.958 . S
H694 C679 0.961 . S
H695 C679 0.960 1_556 S
C696 C697 1.391 . S
C696 C698 1.394 . S
C696 H712 0.931 . S
C697 C696 1.391 . S
C697 C701 1.376 . S
C698 C696 1.394 . S
C698 C699 1.369 . S
C698 C702 1.531 . S
C699 C698 1.369 . S
C699 C700 1.410 . S
C699 C707 1.503 . S
C700 C699 1.410 . S
C700 C701 1.392 . S
C700 C703 1.511 1_655 S
C701 C697 1.376 . S
C701 C700 1.392 . S
C701 H713 0.929 . S
C702 C698 1.531 . S
C702 H714 0.960 . S
C702 H715 0.962 . S
C702 H716 0.960 . S
C703 C700 1.511 1_455 S
C703 H717 0.961 . S
C703 H718 0.961 . S
C703 H719 0.961 . S
C704 C705 1.370 . S
C704 C706 1.363 . S
C704 H720 0.931 . S
C705 C704 1.370 . S
C705 C709 1.408 . S
C706 C704 1.363 . S
C706 C707 1.370 . S
C706 C710 1.524 . S
C707 C699 1.503 . S
C707 C706 1.370 . S
C707 C708 1.403 . S
C708 C707 1.403 . S
C708 C709 1.404 . S
C708 C711 1.539 . S
C709 C705 1.408 . S
C709 C708 1.404 . S
C709 H721 0.930 . S
C710 C706 1.524 . S
C710 H722 0.956 . S
C710 H723 0.961 . S
C710 H724 0.961 . S
C711 C708 1.539 . S
C711 H725 0.958 . S
C711 H726 0.961 . S
C711 H727 0.960 . S
H712 C696 0.931 . S
H713 C701 0.929 . S
H714 C702 0.960 . S
H715 C702 0.962 . S
H716 C702 0.960 . S
H717 C703 0.961 . S
H718 C703 0.961 . S
H719 C703 0.961 . S
H720 C704 0.931 . S
H721 C709 0.930 . S
H722 C710 0.956 . S
H723 C710 0.961 . S
H724 C710 0.961 . S
H725 C711 0.958 . S
H726 C711 0.961 . S
H727 C711 0.960 . S
C728 C729 1.391 . S
C728 C730 1.394 . S
C728 H744 0.931 . S
C729 C728 1.391 . S
C729 C733 1.376 . S
C730 C728 1.394 . S
C730 C731 1.369 . S
C730 C734 1.531 . S
C731 C730 1.369 . S
C731 C732 1.410 . S
C731 C739 1.503 . S
C732 C731 1.410 . S
C732 C733 1.392 . S
C732 C735 1.511 1_554 S
C733 C729 1.376 . S
C733 C732 1.392 . S
C733 H745 0.929 1_554 S
C734 C730 1.531 . S
C734 H746 0.960 . S
C734 H747 0.962 . S
C734 H748 0.960 . S
C735 C732 1.511 1_556 S
C735 H749 0.961 . S
C735 H750 0.961 1_556 S
C735 H751 0.961 . S
C736 C737 1.370 . S
C736 C738 1.363 . S
C736 H752 0.931 . S
C737 C736 1.370 . S
C737 C741 1.408 . S
C738 C736 1.363 . S
C738 C739 1.370 . S
C738 C742 1.524 . S
C739 C731 1.503 . S
C739 C738 1.370 . S
C739 C740 1.403 . S
C740 C739 1.403 . S
C740 C741 1.404 . S
C740 C743 1.539 . S
C741 C737 1.408 . S
C741 C740 1.404 . S
C741 H753 0.930 . S
C742 C738 1.524 . S
C742 H754 0.956 . S
C742 H755 0.961 . S
C742 H756 0.961 . S
C743 C740 1.539 . S
C743 H757 0.958 . S
C743 H758 0.961 . S
C743 H759 0.960 . S
H744 C728 0.931 . S
H745 C733 0.929 1_556 S
H746 C734 0.960 . S
H747 C734 0.962 . S
H748 C734 0.960 . S
H749 C735 0.961 . S
H750 C735 0.961 1_554 S
H751 C735 0.961 . S
H752 C736 0.931 . S
H753 C741 0.930 . S
H754 C742 0.956 . S
H755 C742 0.961 . S
H756 C742 0.961 . S
H757 C743 0.958 . S
H758 C743 0.961 . S
H759 C743 0.960 . S
C760 C761 1.391 . S
C760 C762 1.394 . S
C760 H776 0.931 . S
C761 C760 1.391 . S
C761 C765 1.376 . S
C762 C760 1.394 . S
C762 C763 1.369 . S
C762 C766 1.531 . S
C763 C762 1.369 . S
C763 C764 1.410 . S
C763 C771 1.503 . S
C764 C763 1.410 . S
C764 C765 1.392 . S
C764 C767 1.511 . S
C765 C761 1.376 . S
C765 C764 1.392 . S
C765 H777 0.929 . S
C766 C762 1.531 . S
C766 H778 0.960 . S
C766 H779 0.962 . S
C766 H780 0.960 . S
C767 C764 1.511 . S
C767 H781 0.961 . S
C767 H782 0.961 . S
C767 H783 0.961 . S
C768 C769 1.370 . S
C768 C770 1.363 . S
C768 H784 0.931 . S
C769 C768 1.370 . S
C769 C773 1.408 . S
C770 C768 1.363 . S
C770 C771 1.370 . S
C770 C774 1.524 . S
C771 C763 1.503 . S
C771 C770 1.370 . S
C771 C772 1.403 . S
C772 C771 1.403 . S
C772 C773 1.404 . S
C772 C775 1.539 . S
C773 C769 1.408 . S
C773 C772 1.404 . S
C773 H785 0.930 . S
C774 C770 1.524 . S
C774 H786 0.956 . S
C774 H787 0.961 . S
C774 H788 0.961 . S
C775 C772 1.539 . S
C775 H789 0.958 . S
C775 H790 0.961 . S
C775 H791 0.960 . S
H776 C760 0.931 . S
H777 C765 0.929 . S
H778 C766 0.960 . S
H779 C766 0.962 . S
H780 C766 0.960 . S
H781 C767 0.961 . S
H782 C767 0.961 . S
H783 C767 0.961 . S
H784 C768 0.931 . S
H785 C773 0.930 . S
H786 C774 0.956 . S
H787 C774 0.961 . S
H788 C774 0.961 . S
H789 C775 0.958 . S
H790 C775 0.961 . S
H791 C775 0.960 . S
C792 C793 1.391 . S
C792 C794 1.394 . S
C792 H808 0.931 . S
C793 C792 1.391 . S
C793 C797 1.376 . S
C794 C792 1.394 . S
C794 C795 1.369 . S
C794 C798 1.531 . S
C795 C794 1.369 . S
C795 C796 1.410 . S
C795 C803 1.503 . S
C796 C795 1.410 . S
C796 C797 1.392 . S
C796 C799 1.511 . S
C797 C793 1.376 . S
C797 C796 1.392 . S
C797 H809 0.929 . S
C798 C794 1.531 . S
C798 H810 0.960 . S
C798 H811 0.962 . S
C798 H812 0.960 . S
C799 C796 1.511 . S
C799 H813 0.961 . S
C799 H814 0.961 . S
C799 H815 0.961 . S
C800 C801 1.370 . S
C800 C802 1.363 . S
C800 H816 0.931 . S
C801 C800 1.370 . S
C801 C805 1.408 . S
C802 C800 1.363 . S
C802 C803 1.370 . S
C802 C806 1.524 . S
C803 C795 1.503 . S
C803 C802 1.370 . S
C803 C804 1.403 . S
C804 C803 1.403 . S
C804 C805 1.404 . S
C804 C807 1.539 . S
C805 C801 1.408 . S
C805 C804 1.404 . S
C805 H817 0.930 . S
C806 C802 1.524 . S
C806 H818 0.956 . S
C806 H819 0.961 . S
C806 H820 0.961 . S
C807 C804 1.539 . S
C807 H821 0.958 . S
C807 H822 0.961 . S
C807 H823 0.960 . S
H808 C792 0.931 . S
H809 C797 0.929 . S
H810 C798 0.960 . S
H811 C798 0.962 . S
H812 C798 0.960 . S
H813 C799 0.961 . S
H814 C799 0.961 . S
H815 C799 0.961 . S
H816 C800 0.931 . S
H817 C805 0.930 . S
H818 C806 0.956 . S
H819 C806 0.961 . S
H820 C806 0.961 . S
H821 C807 0.958 . S
H822 C807 0.961 . S
H823 C807 0.960 . S
C824 C825 1.391 . S
C824 C826 1.394 . S
C824 H840 0.931 . S
C825 C824 1.391 . S
C825 C829 1.376 . S
C826 C824 1.394 . S
C826 C827 1.369 . S
C826 C830 1.531 . S
C827 C826 1.369 . S
C827 C828 1.410 . S
C827 C835 1.503 . S
C828 C827 1.410 . S
C828 C829 1.392 . S
C828 C831 1.511 . S
C829 C825 1.376 . S
C829 C828 1.392 . S
C829 H841 0.929 . S
C830 C826 1.531 . S
C830 H842 0.960 . S
C830 H843 0.962 . S
C830 H844 0.960 . S
C831 C828 1.511 . S
C831 H845 0.961 . S
C831 H846 0.961 . S
C831 H847 0.961 . S
C832 C833 1.370 . S
C832 C834 1.363 . S
C832 H848 0.931 . S
C833 C832 1.370 . S
C833 C837 1.408 . S
C834 C832 1.363 . S
C834 C835 1.370 . S
C834 C838 1.524 . S
C835 C827 1.503 . S
C835 C834 1.370 . S
C835 C836 1.403 . S
C836 C835 1.403 . S
C836 C837 1.404 . S
C836 C839 1.539 . S
C837 C833 1.408 . S
C837 C836 1.404 . S
C837 H849 0.930 . S
C838 C834 1.524 . S
C838 H850 0.956 . S
C838 H851 0.961 . S
C838 H852 0.961 . S
C839 C836 1.539 . S
C839 H853 0.958 . S
C839 H854 0.961 . S
C839 H855 0.960 . S
H840 C824 0.931 . S
H841 C829 0.929 . S
H842 C830 0.960 . S
H843 C830 0.962 . S
H844 C830 0.960 . S
H845 C831 0.961 . S
H846 C831 0.961 . S
H847 C831 0.961 . S
H848 C832 0.931 . S
H849 C837 0.930 . S
H850 C838 0.956 . S
H851 C838 0.961 . S
H852 C838 0.961 . S
H853 C839 0.958 . S
H854 C839 0.961 . S
H855 C839 0.960 . S
C856 C857 1.391 . S
C856 C858 1.394 . S
C856 H872 0.931 . S
C857 C856 1.391 . S
C857 C861 1.376 . S
C858 C856 1.394 . S
C858 C859 1.369 . S
C858 C862 1.531 . S
C859 C858 1.369 . S
C859 C860 1.410 . S
C859 C867 1.503 . S
C860 C859 1.410 . S
C860 C861 1.392 . S
C860 C863 1.511 . S
C861 C857 1.376 . S
C861 C860 1.392 . S
C861 H873 0.929 . S
C862 C858 1.531 . S
C862 H874 0.960 . S
C862 H875 0.962 . S
C862 H876 0.960 . S
C863 C860 1.511 . S
C863 H877 0.961 . S
C863 H878 0.961 . S
C863 H879 0.961 . S
C864 C865 1.370 . S
C864 C866 1.363 . S
C864 H880 0.931 . S
C865 C864 1.370 . S
C865 C869 1.408 . S
C866 C864 1.363 . S
C866 C867 1.370 . S
C866 C870 1.524 . S
C867 C859 1.503 . S
C867 C866 1.370 . S
C867 C868 1.403 . S
C868 C867 1.403 . S
C868 C869 1.404 . S
C868 C871 1.539 . S
C869 C865 1.408 . S
C869 C868 1.404 . S
C869 H881 0.930 . S
C870 C866 1.524 . S
C870 H882 0.956 . S
C870 H883 0.961 . S
C870 H884 0.961 . S
C871 C868 1.539 . S
C871 H885 0.958 . S
C871 H886 0.961 . S
C871 H887 0.960 . S
H872 C856 0.931 . S
H873 C861 0.929 . S
H874 C862 0.960 . S
H875 C862 0.962 . S
H876 C862 0.960 . S
H877 C863 0.961 . S
H878 C863 0.961 . S
H879 C863 0.961 . S
H880 C864 0.931 . S
H881 C869 0.930 . S
H882 C870 0.956 . S
H883 C870 0.961 . S
H884 C870 0.961 . S
H885 C871 0.958 . S
H886 C871 0.961 . S
H887 C871 0.960 . S
C888 C889 1.391 . S
C888 C890 1.394 . S
C888 H904 0.931 . S
C889 C888 1.391 . S
C889 C893 1.376 . S
C890 C888 1.394 . S
C890 C891 1.369 . S
C890 C894 1.531 . S
C891 C890 1.369 . S
C891 C892 1.410 . S
C891 C899 1.503 . S
C892 C891 1.410 . S
C892 C893 1.392 . S
C892 C895 1.511 . S
C893 C889 1.376 . S
C893 C892 1.392 . S
C893 H905 0.929 1_556 S
C894 C890 1.531 . S
C894 H906 0.960 . S
C894 H907 0.962 . S
C894 H908 0.960 . S
C895 C892 1.511 . S
C895 H909 0.961 1_556 S
C895 H910 0.961 . S
C895 H911 0.961 . S
C896 C897 1.370 . S
C896 C898 1.363 . S
C896 H912 0.931 . S
C897 C896 1.370 . S
C897 C901 1.408 . S
C898 C896 1.363 . S
C898 C899 1.370 . S
C898 C902 1.524 . S
C899 C891 1.503 . S
C899 C898 1.370 . S
C899 C900 1.403 . S
C900 C899 1.403 . S
C900 C901 1.404 . S
C900 C903 1.539 . S
C901 C897 1.408 . S
C901 C900 1.404 . S
C901 H913 0.930 . S
C902 C898 1.524 . S
C902 H914 0.956 . S
C902 H915 0.961 . S
C902 H916 0.961 . S
C903 C900 1.539 . S
C903 H917 0.958 . S
C903 H918 0.961 . S
C903 H919 0.960 . S
H904 C888 0.931 . S
H905 C893 0.929 1_554 S
H906 C894 0.960 . S
H907 C894 0.962 . S
H908 C894 0.960 . S
H909 C895 0.961 1_554 S
H910 C895 0.961 . S
H911 C895 0.961 . S
H912 C896 0.931 . S
H913 C901 0.930 . S
H914 C902 0.956 . S
H915 C902 0.961 . S
H916 C902 0.961 . S
H917 C903 0.958 . S
H918 C903 0.961 . S
H919 C903 0.960 . S
C920 C921 1.391 . S
C920 C922 1.394 . S
C920 H936 0.931 . S
C921 C920 1.391 . S
C921 C925 1.376 . S
C922 C920 1.394 . S
C922 C923 1.369 . S
C922 C926 1.531 . S
C923 C922 1.369 . S
C923 C924 1.410 . S
C923 C931 1.503 . S
C924 C923 1.410 . S
C924 C925 1.392 . S
C924 C927 1.511 . S
C925 C921 1.376 . S
C925 C924 1.392 . S
C925 H937 0.929 . S
C926 C922 1.531 . S
C926 H938 0.960 . S
C926 H939 0.962 . S
C926 H940 0.960 . S
C927 C924 1.511 . S
C927 H941 0.961 . S
C927 H942 0.961 . S
C927 H943 0.961 . S
C928 C929 1.370 . S
C928 C930 1.363 . S
C928 H944 0.931 . S
C929 C928 1.370 . S
C929 C933 1.408 . S
C930 C928 1.363 . S
C930 C931 1.370 . S
C930 C934 1.524 . S
C931 C923 1.503 . S
C931 C930 1.370 . S
C931 C932 1.403 . S
C932 C931 1.403 . S
C932 C933 1.404 . S
C932 C935 1.539 . S
C933 C929 1.408 . S
C933 C932 1.404 . S
C933 H945 0.930 . S
C934 C930 1.524 . S
C934 H946 0.956 . S
C934 H947 0.961 . S
C934 H948 0.961 . S
C935 C932 1.539 . S
C935 H949 0.958 . S
C935 H950 0.961 . S
C935 H951 0.960 . S
H936 C920 0.931 . S
H937 C925 0.929 . S
H938 C926 0.960 . S
H939 C926 0.962 . S
H940 C926 0.960 . S
H941 C927 0.961 . S
H942 C927 0.961 . S
H943 C927 0.961 . S
H944 C928 0.931 . S
H945 C933 0.930 . S
H946 C934 0.956 . S
H947 C934 0.961 . S
H948 C934 0.961 . S
H949 C935 0.958 . S
H950 C935 0.961 . S
H951 C935 0.960 . S
C952 C953 1.391 . S
C952 C954 1.394 . S
C952 H968 0.931 . S
C953 C952 1.391 . S
C953 C957 1.376 . S
C954 C952 1.394 . S
C954 C955 1.369 . S
C954 C958 1.531 . S
C955 C954 1.369 . S
C955 C956 1.410 . S
C955 C963 1.503 . S
C956 C955 1.410 . S
C956 C957 1.392 . S
C956 C959 1.511 . S
C957 C953 1.376 . S
C957 C956 1.392 . S
C957 H969 0.929 . S
C958 C954 1.531 . S
C958 H970 0.960 . S
C958 H971 0.962 . S
C958 H972 0.960 . S
C959 C956 1.511 . S
C959 H973 0.961 . S
C959 H974 0.961 . S
C959 H975 0.961 . S
C960 C961 1.370 . S
C960 C962 1.363 . S
C960 H976 0.931 . S
C961 C960 1.370 . S
C961 C965 1.408 . S
C962 C960 1.363 . S
C962 C963 1.370 . S
C962 C966 1.524 . S
C963 C955 1.503 . S
C963 C962 1.370 . S
C963 C964 1.403 . S
C964 C963 1.403 . S
C964 C965 1.404 . S
C964 C967 1.538 1_554 S
C965 C961 1.408 . S
C965 C964 1.404 . S
C965 H977 0.930 1_554 S
C966 C962 1.524 . S
C966 H978 0.956 . S
C966 H979 0.961 . S
C966 H980 0.961 . S
C967 C964 1.538 1_556 S
C967 H981 0.958 . S
C967 H982 0.963 . S
C967 H983 0.959 1_556 S
H968 C952 0.931 . S
H969 C957 0.929 . S
H970 C958 0.960 . S
H971 C958 0.962 . S
H972 C958 0.960 . S
H973 C959 0.961 . S
H974 C959 0.961 . S
H975 C959 0.961 . S
H976 C960 0.931 . S
H977 C965 0.930 1_556 S
H978 C966 0.956 . S
H979 C966 0.961 . S
H980 C966 0.961 . S
H981 C967 0.958 . S
H982 C967 0.963 . S
H983 C967 0.959 1_554 S
C984 C985 1.391 . S
C984 C986 1.394 . S
C984 H1000 0.931 . S
C985 C984 1.391 . S
C985 C989 1.376 . S
C986 C984 1.394 . S
C986 C987 1.369 . S
C986 C990 1.531 . S
C987 C986 1.369 . S
C987 C988 1.410 . S
C987 C995 1.503 . S
C988 C987 1.410 . S
C988 C989 1.392 . S
C988 C991 1.511 . S
C989 C985 1.376 . S
C989 C988 1.392 . S
C989 H1001 0.929 . S
C990 C986 1.531 . S
C990 H1002 0.960 . S
C990 H1003 0.962 . S
C990 H1004 0.960 . S
C991 C988 1.511 . S
C991 H1005 0.961 . S
C991 H1006 0.961 . S
C991 H1007 0.961 . S
C992 C993 1.370 . S
C992 C994 1.363 . S
C992 H1008 0.931 . S
C993 C992 1.370 . S
C993 C997 1.408 . S
C994 C992 1.363 . S
C994 C995 1.370 . S
C994 C998 1.524 . S
C995 C987 1.503 . S
C995 C994 1.370 . S
C995 C996 1.403 . S
C996 C995 1.403 . S
C996 C997 1.404 . S
C996 C999 1.539 . S
C997 C993 1.408 . S
C997 C996 1.404 . S
C997 H1009 0.930 . S
C998 C994 1.524 . S
C998 H1010 0.956 . S
C998 H1011 0.961 . S
C998 H1012 0.961 . S
C999 C996 1.539 . S
C999 H1013 0.958 . S
C999 H1014 0.961 . S
C999 H1015 0.960 . S
H1000 C984 0.931 . S
H1001 C989 0.929 . S
H1002 C990 0.960 . S
H1003 C990 0.962 . S
H1004 C990 0.960 . S
H1005 C991 0.961 . S
H1006 C991 0.961 . S
H1007 C991 0.961 . S
H1008 C992 0.931 . S
H1009 C997 0.930 . S
H1010 C998 0.956 . S
H1011 C998 0.961 . S
H1012 C998 0.961 . S
H1013 C999 0.958 . S
H1014 C999 0.961 . S
H1015 C999 0.960 . S
C1016 C1017 1.391 . S
C1016 C1018 1.394 . S
C1016 H1032 0.931 1_556 S
C1017 C1016 1.391 . S
C1017 C1021 1.376 . S
C1018 C1016 1.394 . S
C1018 C1019 1.369 . S
C1018 C1022 1.531 . S
C1019 C1018 1.369 . S
C1019 C1020 1.410 . S
C1019 C1027 1.503 . S
C1020 C1019 1.410 . S
C1020 C1021 1.392 . S
C1020 C1023 1.511 . S
C1021 C1017 1.376 . S
C1021 C1020 1.392 . S
C1021 H1033 0.929 . S
C1022 C1018 1.531 . S
C1022 H1034 0.960 . S
C1022 H1035 0.962 . S
C1022 H1036 0.960 . S
C1023 C1020 1.511 . S
C1023 H1037 0.961 . S
C1023 H1038 0.961 . S
C1023 H1039 0.961 . S
C1024 C1025 1.370 . S
C1024 C1026 1.363 . S
C1024 H1040 0.931 . S
C1025 C1024 1.370 . S
C1025 C1029 1.408 . S
C1026 C1024 1.363 . S
C1026 C1027 1.370 . S
C1026 C1030 1.524 . S
C1027 C1019 1.503 . S
C1027 C1026 1.370 . S
C1027 C1028 1.403 . S
C1028 C1027 1.403 . S
C1028 C1029 1.404 . S
C1028 C1031 1.539 . S
C1029 C1025 1.408 . S
C1029 C1028 1.404 . S
C1029 H1041 0.930 . S
C1030 C1026 1.524 . S
C1030 H1042 0.956 . S
C1030 H1043 0.961 . S
C1030 H1044 0.961 . S
C1031 C1028 1.539 . S
C1031 H1045 0.958 . S
C1031 H1046 0.961 . S
C1031 H1047 0.960 . S
H1032 C1016 0.931 1_554 S
H1033 C1021 0.929 . S
H1034 C1022 0.960 . S
H1035 C1022 0.962 . S
H1036 C1022 0.960 . S
H1037 C1023 0.961 . S
H1038 C1023 0.961 . S
H1039 C1023 0.961 . S
H1040 C1024 0.931 . S
H1041 C1029 0.930 . S
H1042 C1030 0.956 . S
H1043 C1030 0.961 . S
H1044 C1030 0.961 . S
H1045 C1031 0.958 . S
H1046 C1031 0.961 . S
H1047 C1031 0.960 . S
C1048 C1049 1.391 . S
C1048 C1050 1.394 . S
C1048 H1064 0.931 . S
C1049 C1048 1.391 . S
C1049 C1053 1.376 . S
C1050 C1048 1.394 . S
C1050 C1051 1.369 . S
C1050 C1054 1.531 . S
C1051 C1050 1.369 . S
C1051 C1052 1.410 . S
C1051 C1059 1.503 . S
C1052 C1051 1.410 . S
C1052 C1053 1.392 . S
C1052 C1055 1.511 . S
C1053 C1049 1.376 . S
C1053 C1052 1.392 . S
C1053 H1065 0.929 . S
C1054 C1050 1.531 . S
C1054 H1066 0.960 . S
C1054 H1067 0.962 . S
C1054 H1068 0.960 . S
C1055 C1052 1.511 . S
C1055 H1069 0.961 . S
C1055 H1070 0.961 . S
C1055 H1071 0.961 . S
C1056 C1057 1.370 . S
C1056 C1058 1.363 . S
C1056 H1072 0.931 . S
C1057 C1056 1.370 . S
C1057 C1061 1.408 . S
C1058 C1056 1.363 . S
C1058 C1059 1.370 . S
C1058 C1062 1.524 . S
C1059 C1051 1.503 . S
C1059 C1058 1.370 . S
C1059 C1060 1.403 . S
C1060 C1059 1.403 . S
C1060 C1061 1.404 . S
C1060 C1063 1.539 . S
C1061 C1057 1.408 . S
C1061 C1060 1.404 . S
C1061 H1073 0.930 . S
C1062 C1058 1.524 . S
C1062 H1074 0.956 . S
C1062 H1075 0.961 . S
C1062 H1076 0.961 . S
C1063 C1060 1.539 . S
C1063 H1077 0.958 . S
C1063 H1078 0.961 . S
C1063 H1079 0.960 . S
H1064 C1048 0.931 . S
H1065 C1053 0.929 . S
H1066 C1054 0.960 . S
H1067 C1054 0.962 . S
H1068 C1054 0.960 . S
H1069 C1055 0.961 . S
H1070 C1055 0.961 . S
H1071 C1055 0.961 . S
H1072 C1056 0.931 . S
H1073 C1061 0.930 . S
H1074 C1062 0.956 . S
H1075 C1062 0.961 . S
H1076 C1062 0.961 . S
H1077 C1063 0.958 . S
H1078 C1063 0.961 . S
H1079 C1063 0.960 . S
C1080 C1081 1.391 . S
C1080 C1082 1.394 . S
C1080 H1096 0.931 . S
C1081 C1080 1.391 . S
C1081 C1085 1.376 . S
C1082 C1080 1.394 . S
C1082 C1083 1.369 . S
C1082 C1086 1.531 . S
C1083 C1082 1.369 . S
C1083 C1084 1.410 . S
C1083 C1091 1.503 . S
C1084 C1083 1.410 . S
C1084 C1085 1.392 . S
C1084 C1087 1.511 . S
C1085 C1081 1.376 . S
C1085 C1084 1.392 . S
C1085 H1097 0.929 . S
C1086 C1082 1.531 . S
C1086 H1098 0.960 . S
C1086 H1099 0.962 . S
C1086 H1100 0.960 . S
C1087 C1084 1.511 . S
C1087 H1101 0.961 . S
C1087 H1102 0.961 . S
C1087 H1103 0.961 . S
C1088 C1089 1.370 . S
C1088 C1090 1.363 . S
C1088 H1104 0.931 . S
C1089 C1088 1.370 . S
C1089 C1093 1.408 . S
C1090 C1088 1.363 . S
C1090 C1091 1.370 . S
C1090 C1094 1.524 . S
C1091 C1083 1.503 . S
C1091 C1090 1.370 . S
C1091 C1092 1.403 . S
C1092 C1091 1.403 . S
C1092 C1093 1.404 . S
C1092 C1095 1.539 . S
C1093 C1089 1.408 . S
C1093 C1092 1.404 . S
C1093 H1105 0.930 . S
C1094 C1090 1.524 . S
C1094 H1106 0.956 . S
C1094 H1107 0.961 . S
C1094 H1108 0.961 . S
C1095 C1092 1.539 . S
C1095 H1109 0.958 . S
C1095 H1110 0.961 . S
C1095 H1111 0.960 . S
H1096 C1080 0.931 . S
H1097 C1085 0.929 . S
H1098 C1086 0.960 . S
H1099 C1086 0.962 . S
H1100 C1086 0.960 . S
H1101 C1087 0.961 . S
H1102 C1087 0.961 . S
H1103 C1087 0.961 . S
H1104 C1088 0.931 . S
H1105 C1093 0.930 . S
H1106 C1094 0.956 . S
H1107 C1094 0.961 . S
H1108 C1094 0.961 . S
H1109 C1095 0.958 . S
H1110 C1095 0.961 . S
H1111 C1095 0.960 . S
C1112 C1113 1.391 . S
C1112 C1114 1.394 . S
C1112 H1128 0.931 . S
C1113 C1112 1.391 . S
C1113 C1117 1.376 . S
C1114 C1112 1.394 . S
C1114 C1115 1.369 . S
C1114 C1118 1.531 . S
C1115 C1114 1.369 . S
C1115 C1116 1.410 . S
C1115 C1123 1.503 . S
C1116 C1115 1.410 . S
C1116 C1117 1.392 . S
C1116 C1119 1.511 . S
C1117 C1113 1.376 . S
C1117 C1116 1.392 . S
C1117 H1129 0.929 . S
C1118 C1114 1.531 . S
C1118 H1130 0.960 . S
C1118 H1131 0.962 . S
C1118 H1132 0.960 . S
C1119 C1116 1.511 . S
C1119 H1133 0.961 . S
C1119 H1134 0.961 . S
C1119 H1135 0.961 . S
C1120 C1121 1.370 . S
C1120 C1122 1.363 . S
C1120 H1136 0.931 . S
C1121 C1120 1.370 . S
C1121 C1125 1.408 . S
C1122 C1120 1.363 . S
C1122 C1123 1.370 . S
C1122 C1126 1.524 . S
C1123 C1115 1.503 . S
C1123 C1122 1.370 . S
C1123 C1124 1.403 . S
C1124 C1123 1.403 . S
C1124 C1125 1.404 . S
C1124 C1127 1.539 . S
C1125 C1121 1.408 . S
C1125 C1124 1.404 . S
C1125 H1137 0.930 . S
C1126 C1122 1.524 . S
C1126 H1138 0.956 . S
C1126 H1139 0.961 . S
C1126 H1140 0.961 . S
C1127 C1124 1.539 . S
C1127 H1141 0.958 . S
C1127 H1142 0.961 . S
C1127 H1143 0.960 . S
H1128 C1112 0.931 . S
H1129 C1117 0.929 . S
H1130 C1118 0.960 . S
H1131 C1118 0.962 . S
H1132 C1118 0.960 . S
H1133 C1119 0.961 . S
H1134 C1119 0.961 . S
H1135 C1119 0.961 . S
H1136 C1120 0.931 . S
H1137 C1125 0.930 . S
H1138 C1126 0.956 . S
H1139 C1126 0.961 . S
H1140 C1126 0.961 . S
H1141 C1127 0.958 . S
H1142 C1127 0.961 . S
H1143 C1127 0.960 . S
C1144 C1145 1.391 . S
C1144 C1146 1.394 . S
C1144 H1160 0.931 . S
C1145 C1144 1.391 . S
C1145 C1149 1.376 . S
C1146 C1144 1.394 . S
C1146 C1147 1.369 . S
C1146 C1150 1.531 . S
C1147 C1146 1.369 . S
C1147 C1148 1.410 . S
C1147 C1155 1.503 . S
C1148 C1147 1.410 . S
C1148 C1149 1.392 . S
C1148 C1151 1.511 . S
C1149 C1145 1.376 . S
C1149 C1148 1.392 . S
C1149 H1161 0.929 . S
C1150 C1146 1.531 . S
C1150 H1162 0.960 . S
C1150 H1163 0.962 . S
C1150 H1164 0.960 . S
C1151 C1148 1.511 . S
C1151 H1165 0.961 . S
C1151 H1166 0.961 . S
C1151 H1167 0.961 . S
C1152 C1153 1.370 . S
C1152 C1154 1.363 . S
C1152 H1168 0.931 . S
C1153 C1152 1.370 . S
C1153 C1157 1.408 . S
C1154 C1152 1.363 . S
C1154 C1155 1.370 . S
C1154 C1158 1.524 . S
C1155 C1147 1.503 . S
C1155 C1154 1.370 . S
C1155 C1156 1.403 . S
C1156 C1155 1.403 . S
C1156 C1157 1.404 . S
C1156 C1159 1.539 . S
C1157 C1153 1.408 . S
C1157 C1156 1.404 . S
C1157 H1169 0.930 . S
C1158 C1154 1.524 . S
C1158 H1170 0.956 . S
C1158 H1171 0.961 . S
C1158 H1172 0.961 . S
C1159 C1156 1.539 . S
C1159 H1173 0.958 . S
C1159 H1174 0.961 . S
C1159 H1175 0.960 . S
H1160 C1144 0.931 . S
H1161 C1149 0.929 . S
H1162 C1150 0.960 . S
H1163 C1150 0.962 . S
H1164 C1150 0.960 . S
H1165 C1151 0.961 . S
H1166 C1151 0.961 . S
H1167 C1151 0.961 . S
H1168 C1152 0.931 . S
H1169 C1157 0.930 . S
H1170 C1158 0.956 . S
H1171 C1158 0.961 . S
H1172 C1158 0.961 . S
H1173 C1159 0.958 . S
H1174 C1159 0.961 . S
H1175 C1159 0.960 . S
C1176 C1177 1.391 . S
C1176 C1178 1.394 . S
C1176 H1192 0.931 . S
C1177 C1176 1.391 . S
C1177 C1181 1.376 . S
C1178 C1176 1.394 . S
C1178 C1179 1.369 . S
C1178 C1182 1.531 . S
C1179 C1178 1.369 . S
C1179 C1180 1.410 . S
C1179 C1187 1.503 . S
C1180 C1179 1.410 . S
C1180 C1181 1.392 . S
C1180 C1183 1.511 . S
C1181 C1177 1.376 . S
C1181 C1180 1.392 . S
C1181 H1193 0.929 . S
C1182 C1178 1.531 . S
C1182 H1194 0.960 . S
C1182 H1195 0.962 . S
C1182 H1196 0.960 . S
C1183 C1180 1.511 . S
C1183 H1197 0.961 . S
C1183 H1198 0.961 . S
C1183 H1199 0.961 . S
C1184 C1185 1.370 . S
C1184 C1186 1.363 . S
C1184 H1200 0.931 . S
C1185 C1184 1.370 . S
C1185 C1189 1.408 . S
C1186 C1184 1.363 . S
C1186 C1187 1.370 . S
C1186 C1190 1.524 . S
C1187 C1179 1.503 . S
C1187 C1186 1.370 . S
C1187 C1188 1.403 . S
C1188 C1187 1.403 . S
C1188 C1189 1.404 . S
C1188 C1191 1.539 . S
C1189 C1185 1.408 . S
C1189 C1188 1.404 . S
C1189 H1201 0.930 . S
C1190 C1186 1.524 . S
C1190 H1202 0.956 . S
C1190 H1203 0.961 . S
C1190 H1204 0.961 . S
C1191 C1188 1.539 . S
C1191 H1205 0.958 . S
C1191 H1206 0.961 . S
C1191 H1207 0.960 . S
H1192 C1176 0.931 . S
H1193 C1181 0.929 . S
H1194 C1182 0.960 . S
H1195 C1182 0.962 . S
H1196 C1182 0.960 . S
H1197 C1183 0.961 . S
H1198 C1183 0.961 . S
H1199 C1183 0.961 . S
H1200 C1184 0.931 . S
H1201 C1189 0.930 . S
H1202 C1190 0.956 . S
H1203 C1190 0.961 . S
H1204 C1190 0.961 . S
H1205 C1191 0.958 . S
H1206 C1191 0.961 . S
H1207 C1191 0.960 . S
C1208 C1209 1.391 . S
C1208 C1210 1.394 . S
C1208 H1224 0.931 1_556 S
C1209 C1208 1.391 . S
C1209 C1213 1.376 . S
C1210 C1208 1.394 . S
C1210 C1211 1.369 . S
C1210 C1214 1.531 . S
C1211 C1210 1.369 . S
C1211 C1212 1.410 . S
C1211 C1219 1.503 . S
C1212 C1211 1.410 . S
C1212 C1213 1.392 . S
C1212 C1215 1.511 . S
C1213 C1209 1.376 . S
C1213 C1212 1.392 . S
C1213 H1225 0.929 . S
C1214 C1210 1.531 . S
C1214 H1226 0.960 . S
C1214 H1227 0.964 . S
C1214 H1228 0.960 1_556 S
C1215 C1212 1.511 . S
C1215 H1229 0.961 . S
C1215 H1230 0.961 . S
C1215 H1231 0.961 . S
C1216 C1217 1.370 1_455 S
C1216 C1218 1.363 1_455 S
C1216 H1232 0.931 . S
C1217 C1216 1.370 1_655 S
C1217 C1221 1.408 . S
C1218 C1216 1.363 1_655 S
C1218 C1219 1.370 . S
C1218 C1222 1.524 1_655 S
C1219 C1211 1.503 . S
C1219 C1218 1.370 . S
C1219 C1220 1.403 . S
C1220 C1219 1.403 . S
C1220 C1221 1.404 . S
C1220 C1223 1.539 . S
C1221 C1217 1.408 . S
C1221 C1220 1.404 . S
C1221 H1233 0.930 . S
C1222 C1218 1.524 1_455 S
C1222 H1234 0.956 1_455 S
C1222 H1235 0.961 1_455 S
C1222 H1236 0.961 . S
C1223 C1220 1.539 . S
C1223 H1237 0.958 . S
C1223 H1238 0.961 . S
C1223 H1239 0.960 . S
H1224 C1208 0.931 1_554 S
H1225 C1213 0.929 . S
H1226 C1214 0.960 . S
H1227 C1214 0.964 . S
H1228 C1214 0.960 1_554 S
H1229 C1215 0.961 . S
H1230 C1215 0.961 . S
H1231 C1215 0.961 . S
H1232 C1216 0.931 . S
H1233 C1221 0.930 . S
H1234 C1222 0.956 1_655 S
H1235 C1222 0.961 1_655 S
H1236 C1222 0.961 . S
H1237 C1223 0.958 . S
H1238 C1223 0.961 . S
H1239 C1223 0.960 . S
C1240 C1241 1.391 . S
C1240 C1242 1.394 . S
C1240 H1256 0.931 . S
C1241 C1240 1.391 . S
C1241 C1245 1.376 . S
C1242 C1240 1.394 . S
C1242 C1243 1.369 . S
C1242 C1246 1.531 . S
C1243 C1242 1.369 . S
C1243 C1244 1.410 . S
C1243 C1251 1.503 . S
C1244 C1243 1.410 . S
C1244 C1245 1.392 . S
C1244 C1247 1.511 . S
C1245 C1241 1.376 . S
C1245 C1244 1.392 . S
C1245 H1257 0.929 . S
C1246 C1242 1.531 . S
C1246 H1258 0.960 . S
C1246 H1259 0.962 . S
C1246 H1260 0.960 . S
C1247 C1244 1.511 . S
C1247 H1261 0.961 . S
C1247 H1262 0.961 . S
C1247 H1263 0.961 . S
C1248 C1249 1.370 . S
C1248 C1250 1.363 . S
C1248 H1264 0.931 . S
C1249 C1248 1.370 . S
C1249 C1253 1.408 . S
C1250 C1248 1.363 . S
C1250 C1251 1.370 . S
C1250 C1254 1.524 . S
C1251 C1243 1.503 . S
C1251 C1250 1.370 . S
C1251 C1252 1.403 . S
C1252 C1251 1.403 . S
C1252 C1253 1.404 . S
C1252 C1255 1.539 . S
C1253 C1249 1.408 . S
C1253 C1252 1.404 . S
C1253 H1265 0.930 . S
C1254 C1250 1.524 . S
C1254 H1266 0.956 . S
C1254 H1267 0.961 . S
C1254 H1268 0.961 . S
C1255 C1252 1.539 . S
C1255 H1269 0.958 . S
C1255 H1270 0.961 . S
C1255 H1271 0.960 . S
H1256 C1240 0.931 . S
H1257 C1245 0.929 . S
H1258 C1246 0.960 . S
H1259 C1246 0.962 . S
H1260 C1246 0.960 . S
H1261 C1247 0.961 . S
H1262 C1247 0.961 . S
H1263 C1247 0.961 . S
H1264 C1248 0.931 . S
H1265 C1253 0.930 . S
H1266 C1254 0.956 . S
H1267 C1254 0.961 . S
H1268 C1254 0.961 . S
H1269 C1255 0.958 . S
H1270 C1255 0.961 . S
H1271 C1255 0.960 . S
C1272 C1273 1.391 . S
C1272 C1274 1.394 . S
C1272 H1288 0.931 . S
C1273 C1272 1.391 . S
C1273 C1277 1.376 . S
C1274 C1272 1.394 . S
C1274 C1275 1.369 . S
C1274 C1278 1.531 . S
C1275 C1274 1.369 . S
C1275 C1276 1.410 . S
C1275 C1283 1.503 . S
C1276 C1275 1.410 . S
C1276 C1277 1.392 . S
C1276 C1279 1.511 . S
C1277 C1273 1.376 . S
C1277 C1276 1.392 . S
C1277 H1289 0.929 . S
C1278 C1274 1.531 . S
C1278 H1290 0.960 . S
C1278 H1291 0.962 . S
C1278 H1292 0.960 . S
C1279 C1276 1.511 . S
C1279 H1293 0.961 . S
C1279 H1294 0.961 . S
C1279 H1295 0.961 . S
C1280 C1281 1.370 . S
C1280 C1282 1.363 . S
C1280 H1296 0.931 . S
C1281 C1280 1.370 . S
C1281 C1285 1.408 . S
C1282 C1280 1.363 . S
C1282 C1283 1.370 . S
C1282 C1286 1.524 . S
C1283 C1275 1.503 . S
C1283 C1282 1.370 . S
C1283 C1284 1.403 . S
C1284 C1283 1.403 . S
C1284 C1285 1.404 . S
C1284 C1287 1.539 . S
C1285 C1281 1.408 . S
C1285 C1284 1.404 . S
C1285 H1297 0.930 . S
C1286 C1282 1.524 . S
C1286 H1298 0.956 . S
C1286 H1299 0.961 . S
C1286 H1300 0.961 . S
C1287 C1284 1.539 . S
C1287 H1301 0.958 . S
C1287 H1302 0.961 . S
C1287 H1303 0.960 . S
H1288 C1272 0.931 . S
H1289 C1277 0.929 . S
H1290 C1278 0.960 . S
H1291 C1278 0.962 . S
H1292 C1278 0.960 . S
H1293 C1279 0.961 . S
H1294 C1279 0.961 . S
H1295 C1279 0.961 . S
H1296 C1280 0.931 . S
H1297 C1285 0.930 . S
H1298 C1286 0.956 . S
H1299 C1286 0.961 . S
H1300 C1286 0.961 . S
H1301 C1287 0.958 . S
H1302 C1287 0.961 . S
H1303 C1287 0.960 . S
C1304 C1305 1.391 . S
C1304 C1306 1.394 . S
C1304 H1320 0.931 . S
C1305 C1304 1.391 . S
C1305 C1309 1.376 . S
C1306 C1304 1.394 . S
C1306 C1307 1.369 . S
C1306 C1310 1.531 . S
C1307 C1306 1.369 . S
C1307 C1308 1.410 . S
C1307 C1315 1.503 . S
C1308 C1307 1.410 . S
C1308 C1309 1.392 . S
C1308 C1311 1.511 . S
C1309 C1305 1.376 . S
C1309 C1308 1.392 . S
C1309 H1321 0.929 . S
C1310 C1306 1.531 . S
C1310 H1322 0.960 . S
C1310 H1323 0.962 . S
C1310 H1324 0.960 . S
C1311 C1308 1.511 . S
C1311 H1325 0.961 . S
C1311 H1326 0.961 . S
C1311 H1327 0.961 . S
C1312 C1313 1.370 . S
C1312 C1314 1.363 . S
C1312 H1328 0.931 . S
C1313 C1312 1.370 . S
C1313 C1317 1.408 . S
C1314 C1312 1.363 . S
C1314 C1315 1.370 . S
C1314 C1318 1.524 . S
C1315 C1307 1.503 . S
C1315 C1314 1.370 . S
C1315 C1316 1.403 . S
C1316 C1315 1.403 . S
C1316 C1317 1.404 . S
C1316 C1319 1.539 . S
C1317 C1313 1.408 . S
C1317 C1316 1.404 . S
C1317 H1329 0.930 . S
C1318 C1314 1.524 . S
C1318 H1330 0.956 . S
C1318 H1331 0.961 . S
C1318 H1332 0.961 . S
C1319 C1316 1.539 . S
C1319 H1333 0.958 . S
C1319 H1334 0.961 . S
C1319 H1335 0.960 . S
H1320 C1304 0.931 . S
H1321 C1309 0.929 . S
H1322 C1310 0.960 . S
H1323 C1310 0.962 . S
H1324 C1310 0.960 . S
H1325 C1311 0.961 . S
H1326 C1311 0.961 . S
H1327 C1311 0.961 . S
H1328 C1312 0.931 . S
H1329 C1317 0.930 . S
H1330 C1318 0.956 . S
H1331 C1318 0.961 . S
H1332 C1318 0.961 . S
H1333 C1319 0.958 . S
H1334 C1319 0.961 . S
H1335 C1319 0.960 . S
C1336 C1337 1.391 . S
C1336 C1338 1.394 . S
C1336 H1352 0.931 . S
C1337 C1336 1.391 . S
C1337 C1341 1.376 . S
C1338 C1336 1.394 . S
C1338 C1339 1.369 . S
C1338 C1342 1.531 . S
C1339 C1338 1.369 . S
C1339 C1340 1.410 . S
C1339 C1347 1.503 . S
C1340 C1339 1.410 . S
C1340 C1341 1.392 . S
C1340 C1343 1.511 . S
C1341 C1337 1.376 . S
C1341 C1340 1.392 . S
C1341 H1353 0.929 . S
C1342 C1338 1.531 . S
C1342 H1354 0.960 . S
C1342 H1355 0.962 . S
C1342 H1356 0.960 . S
C1343 C1340 1.511 . S
C1343 H1357 0.961 . S
C1343 H1358 0.961 . S
C1343 H1359 0.961 . S
C1344 C1345 1.370 . S
C1344 C1346 1.363 . S
C1344 H1360 0.931 . S
C1345 C1344 1.370 . S
C1345 C1349 1.408 . S
C1346 C1344 1.363 . S
C1346 C1347 1.370 . S
C1346 C1350 1.524 . S
C1347 C1339 1.503 . S
C1347 C1346 1.370 . S
C1347 C1348 1.403 . S
C1348 C1347 1.403 . S
C1348 C1349 1.404 . S
C1348 C1351 1.539 . S
C1349 C1345 1.408 . S
C1349 C1348 1.404 . S
C1349 H1361 0.930 . S
C1350 C1346 1.524 . S
C1350 H1362 0.956 . S
C1350 H1363 0.961 . S
C1350 H1364 0.961 . S
C1351 C1348 1.539 . S
C1351 H1365 0.958 . S
C1351 H1366 0.961 . S
C1351 H1367 0.960 . S
H1352 C1336 0.931 . S
H1353 C1341 0.929 . S
H1354 C1342 0.960 . S
H1355 C1342 0.962 . S
H1356 C1342 0.960 . S
H1357 C1343 0.961 . S
H1358 C1343 0.961 . S
H1359 C1343 0.961 . S
H1360 C1344 0.931 . S
H1361 C1349 0.930 . S
H1362 C1350 0.956 . S
H1363 C1350 0.961 . S
H1364 C1350 0.961 . S
H1365 C1351 0.958 . S
H1366 C1351 0.961 . S
H1367 C1351 0.960 . S
C409 C339 0.663 . S
C417 C33 0.508 . S
C441 C67 0.615 . S
C449 C373 0.541 . S
C473 C407 0.740 . S
C481 C101 0.838 . S
C505 C135 0.466 . S
C513 C237 0.543 . S
C537 C169 0.596 . S
C545 C271 0.506 . S
C569 C305 1.153 . S
C577 C203 1.059 . S
C601 C9 1.710 . S
C609 C138 1.776 . S
C633 C172 1.401 . S
C641 C43 1.436 . S
C665 C77 1.652 . S
C673 C2 1.764 . S
C697 C111 1.725 . S
C705 C36 1.800 . S
C729 C70 1.360 . S
C737 C145 1.373 . S
C761 C104 1.916 . S
C769 C179 1.825 . S
C793 C274 1.443 . S
C801 C213 1.439 . S
C825 C247 1.658 . S
C833 C308 1.775 . S
C857 C342 1.898 . S
C865 C281 1.804 . S
C889 C376 1.339 . S
C897 C315 1.370 . S
C921 C206 1.791 . S
C929 C349 1.701 . S
C953 C383 1.652 . S
C961 C240 1.764 . S
C985 C360 1.111 . S
C993 C20 1.137 . S
C1017 C394 1.324 . S
C1025 C54 1.265 . S
C1049 C88 1.350 . S
C1057 C224 1.271 . S
C1081 C122 1.113 . S
C1089 C258 1.140 . S
C1113 C292 1.393 . S
C1121 C156 1.323 . S
C1145 C190 1.399 . S
C1153 C326 1.335 . S
C1177 C209 1.064 . S
C1185 C5 1.106 . S
C1209 C243 1.032 . S
C1217 C39 0.954 . S
C1241 C73 0.919 . S
C1249 C277 0.887 . S
C1273 C311 0.931 . S
C1281 C107 1.093 . S
C1305 C141 0.911 . S
C1313 C345 1.089 . S
C1337 C379 0.848 . S
C1345 C175 0.854 . S
