# Generated by pormake.
# Topology wna, (6)-cn, num edge types: 1
# Building blocks:
#     Node 0, Type 0, BuildingBlock: BETDAH_clean_sbu_0, # of connection points: 6
#     Node 1, Type 0, BuildingBlock: BETDAH_clean_sbu_0, # of connection points: 6
#     Node 2, Type 0, BuildingBlock: BETDAH_clean_sbu_0, # of connection points: 6
#     Node 3, Type 0, BuildingBlock: BETDAH_clean_sbu_0, # of connection points: 6
#     Node 4, Type 0, BuildingBlock: BETDAH_clean_sbu_0, # of connection points: 6
#     Node 5, Type 0, BuildingBlock: BETDAH_clean_sbu_0, # of connection points: 6
#     Node 6, Type 0, BuildingBlock: BETDAH_clean_sbu_0, # of connection points: 6
#     Node 7, Type 0, BuildingBlock: BETDAH_clean_sbu_0, # of connection points: 6
#     Node 8, Type 0, BuildingBlock: BETDAH_clean_sbu_0, # of connection points: 6
#     Node 9, Type 0, BuildingBlock: BETDAH_clean_sbu_0, # of connection points: 6
#     Node 10, Type 0, BuildingBlock: BETDAH_clean_sbu_0, # of connection points: 6
#     Node 11, Type 0, BuildingBlock: BETDAH_clean_sbu_0, # of connection points: 6
#     Node 12, Type 0, BuildingBlock: BETDAH_clean_sbu_0, # of connection points: 6
#     Node 13, Type 0, BuildingBlock: BETDAH_clean_sbu_0, # of connection points: 6
#     Node 14, Type 0, BuildingBlock: BETDAH_clean_sbu_0, # of connection points: 6
#     Node 15, Type 0, BuildingBlock: BETDAH_clean_sbu_0, # of connection points: 6
#     Node 16, Type 0, BuildingBlock: BETDAH_clean_sbu_0, # of connection points: 6
#     Node 17, Type 0, BuildingBlock: BETDAH_clean_sbu_0, # of connection points: 6
#     Node 18, Type 0, BuildingBlock: BETDAH_clean_sbu_0, # of connection points: 6
#     Node 19, Type 0, BuildingBlock: BETDAH_clean_sbu_0, # of connection points: 6
#     Node 20, Type 0, BuildingBlock: BETDAH_clean_sbu_0, # of connection points: 6
#     Node 21, Type 0, BuildingBlock: BETDAH_clean_sbu_0, # of connection points: 6
#     Node 22, Type 0, BuildingBlock: BETDAH_clean_sbu_0, # of connection points: 6
#     Node 23, Type 0, BuildingBlock: BETDAH_clean_sbu_0, # of connection points: 6
#     Node 24, Type 0, BuildingBlock: BETDAH_clean_sbu_0, # of connection points: 6
#     Node 25, Type 0, BuildingBlock: BETDAH_clean_sbu_0, # of connection points: 6
#     Node 26, Type 0, BuildingBlock: BETDAH_clean_sbu_0, # of connection points: 6
#     Node 27, Type 0, BuildingBlock: BETDAH_clean_sbu_0, # of connection points: 6
#     Node 28, Type 0, BuildingBlock: BETDAH_clean_sbu_0, # of connection points: 6
#     Node 29, Type 0, BuildingBlock: BETDAH_clean_sbu_0, # of connection points: 6
#     Node 30, Type 0, BuildingBlock: BETDAH_clean_sbu_0, # of connection points: 6
#     Node 31, Type 0, BuildingBlock: BETDAH_clean_sbu_0, # of connection points: 6
#     Node 32, Type 0, BuildingBlock: BETDAH_clean_sbu_0, # of connection points: 6
#     Node 33, Type 0, BuildingBlock: BETDAH_clean_sbu_0, # of connection points: 6
#     Node 34, Type 0, BuildingBlock: BETDAH_clean_sbu_0, # of connection points: 6
#     Node 35, Type 0, BuildingBlock: BETDAH_clean_sbu_0, # of connection points: 6
#     Edge 36, Type (0, 0), BuildingBlock: OJICUG_clean_linker_0, # of connection points: 2
#     Edge 37, Type (0, 0), BuildingBlock: OJICUG_clean_linker_0, # of connection points: 2
#     Edge 38, Type (0, 0), BuildingBlock: OJICUG_clean_linker_0, # of connection points: 2
#     Edge 39, Type (0, 0), BuildingBlock: OJICUG_clean_linker_0, # of connection points: 2
#     Edge 40, Type (0, 0), BuildingBlock: OJICUG_clean_linker_0, # of connection points: 2
#     Edge 41, Type (0, 0), BuildingBlock: OJICUG_clean_linker_0, # of connection points: 2
#     Edge 42, Type (0, 0), BuildingBlock: OJICUG_clean_linker_0, # of connection points: 2
#     Edge 43, Type (0, 0), BuildingBlock: OJICUG_clean_linker_0, # of connection points: 2
#     Edge 44, Type (0, 0), BuildingBlock: OJICUG_clean_linker_0, # of connection points: 2
#     Edge 45, Type (0, 0), BuildingBlock: OJICUG_clean_linker_0, # of connection points: 2
#     Edge 46, Type (0, 0), BuildingBlock: OJICUG_clean_linker_0, # of connection points: 2
#     Edge 47, Type (0, 0), BuildingBlock: OJICUG_clean_linker_0, # of connection points: 2
#     Edge 48, Type (0, 0), BuildingBlock: OJICUG_clean_linker_0, # of connection points: 2
#     Edge 49, Type (0, 0), BuildingBlock: OJICUG_clean_linker_0, # of connection points: 2
#     Edge 50, Type (0, 0), BuildingBlock: OJICUG_clean_linker_0, # of connection points: 2
#     Edge 51, Type (0, 0), BuildingBlock: OJICUG_clean_linker_0, # of connection points: 2
#     Edge 52, Type (0, 0), BuildingBlock: OJICUG_clean_linker_0, # of connection points: 2
#     Edge 53, Type (0, 0), BuildingBlock: OJICUG_clean_linker_0, # of connection points: 2
#     Edge 54, Type (0, 0), BuildingBlock: OJICUG_clean_linker_0, # of connection points: 2
#     Edge 55, Type (0, 0), BuildingBlock: OJICUG_clean_linker_0, # of connection points: 2
#     Edge 56, Type (0, 0), BuildingBlock: OJICUG_clean_linker_0, # of connection points: 2
#     Edge 57, Type (0, 0), BuildingBlock: OJICUG_clean_linker_0, # of connection points: 2
#     Edge 58, Type (0, 0), BuildingBlock: OJICUG_clean_linker_0, # of connection points: 2
#     Edge 59, Type (0, 0), BuildingBlock: OJICUG_clean_linker_0, # of connection points: 2
#     Edge 60, Type (0, 0), BuildingBlock: OJICUG_clean_linker_0, # of connection points: 2
#     Edge 61, Type (0, 0), BuildingBlock: OJICUG_clean_linker_0, # of connection points: 2
#     Edge 62, Type (0, 0), BuildingBlock: OJICUG_clean_linker_0, # of connection points: 2
#     Edge 63, Type (0, 0), BuildingBlock: OJICUG_clean_linker_0, # of connection points: 2
#     Edge 64, Type (0, 0), BuildingBlock: OJICUG_clean_linker_0, # of connection points: 2
#     Edge 65, Type (0, 0), BuildingBlock: OJICUG_clean_linker_0, # of connection points: 2
#     Edge 66, Type (0, 0), BuildingBlock: OJICUG_clean_linker_0, # of connection points: 2
#     Edge 67, Type (0, 0), BuildingBlock: OJICUG_clean_linker_0, # of connection points: 2
#     Edge 68, Type (0, 0), BuildingBlock: OJICUG_clean_linker_0, # of connection points: 2
#     Edge 69, Type (0, 0), BuildingBlock: OJICUG_clean_linker_0, # of connection points: 2
#     Edge 70, Type (0, 0), BuildingBlock: OJICUG_clean_linker_0, # of connection points: 2
#     Edge 71, Type (0, 0), BuildingBlock: OJICUG_clean_linker_0, # of connection points: 2
#     Edge 72, Type (0, 0), BuildingBlock: OJICUG_clean_linker_0, # of connection points: 2
#     Edge 73, Type (0, 0), BuildingBlock: OJICUG_clean_linker_0, # of connection points: 2
#     Edge 74, Type (0, 0), BuildingBlock: OJICUG_clean_linker_0, # of connection points: 2
#     Edge 75, Type (0, 0), BuildingBlock: OJICUG_clean_linker_0, # of connection points: 2
#     Edge 76, Type (0, 0), BuildingBlock: OJICUG_clean_linker_0, # of connection points: 2
#     Edge 77, Type (0, 0), BuildingBlock: OJICUG_clean_linker_0, # of connection points: 2
#     Edge 78, Type (0, 0), BuildingBlock: OJICUG_clean_linker_0, # of connection points: 2
#     Edge 79, Type (0, 0), BuildingBlock: OJICUG_clean_linker_0, # of connection points: 2
#     Edge 80, Type (0, 0), BuildingBlock: OJICUG_clean_linker_0, # of connection points: 2
#     Edge 81, Type (0, 0), BuildingBlock: OJICUG_clean_linker_0, # of connection points: 2
#     Edge 82, Type (0, 0), BuildingBlock: OJICUG_clean_linker_0, # of connection points: 2
#     Edge 83, Type (0, 0), BuildingBlock: OJICUG_clean_linker_0, # of connection points: 2
#     Edge 84, Type (0, 0), BuildingBlock: OJICUG_clean_linker_0, # of connection points: 2
#     Edge 85, Type (0, 0), BuildingBlock: OJICUG_clean_linker_0, # of connection points: 2
#     Edge 86, Type (0, 0), BuildingBlock: OJICUG_clean_linker_0, # of connection points: 2
#     Edge 87, Type (0, 0), BuildingBlock: OJICUG_clean_linker_0, # of connection points: 2
#     Edge 88, Type (0, 0), BuildingBlock: OJICUG_clean_linker_0, # of connection points: 2
#     Edge 89, Type (0, 0), BuildingBlock: OJICUG_clean_linker_0, # of connection points: 2
#     Edge 90, Type (0, 0), BuildingBlock: OJICUG_clean_linker_0, # of connection points: 2
#     Edge 91, Type (0, 0), BuildingBlock: OJICUG_clean_linker_0, # of connection points: 2
#     Edge 92, Type (0, 0), BuildingBlock: OJICUG_clean_linker_0, # of connection points: 2
#     Edge 93, Type (0, 0), BuildingBlock: OJICUG_clean_linker_0, # of connection points: 2
#     Edge 94, Type (0, 0), BuildingBlock: OJICUG_clean_linker_0, # of connection points: 2
#     Edge 95, Type (0, 0), BuildingBlock: OJICUG_clean_linker_0, # of connection points: 2
#     Edge 96, Type (0, 0), BuildingBlock: OJICUG_clean_linker_0, # of connection points: 2
#     Edge 97, Type (0, 0), BuildingBlock: OJICUG_clean_linker_0, # of connection points: 2
#     Edge 98, Type (0, 0), BuildingBlock: OJICUG_clean_linker_0, # of connection points: 2
#     Edge 99, Type (0, 0), BuildingBlock: OJICUG_clean_linker_0, # of connection points: 2
#     Edge 100, Type (0, 0), BuildingBlock: OJICUG_clean_linker_0, # of connection points: 2
#     Edge 101, Type (0, 0), BuildingBlock: OJICUG_clean_linker_0, # of connection points: 2
#     Edge 102, Type (0, 0), BuildingBlock: OJICUG_clean_linker_0, # of connection points: 2
#     Edge 103, Type (0, 0), BuildingBlock: OJICUG_clean_linker_0, # of connection points: 2
#     Edge 104, Type (0, 0), BuildingBlock: OJICUG_clean_linker_0, # of connection points: 2
#     Edge 105, Type (0, 0), BuildingBlock: OJICUG_clean_linker_0, # of connection points: 2
#     Edge 106, Type (0, 0), BuildingBlock: OJICUG_clean_linker_0, # of connection points: 2
#     Edge 107, Type (0, 0), BuildingBlock: OJICUG_clean_linker_0, # of connection points: 2
#     Edge 108, Type (0, 0), BuildingBlock: OJICUG_clean_linker_0, # of connection points: 2
#     Edge 109, Type (0, 0), BuildingBlock: OJICUG_clean_linker_0, # of connection points: 2
#     Edge 110, Type (0, 0), BuildingBlock: OJICUG_clean_linker_0, # of connection points: 2
#     Edge 111, Type (0, 0), BuildingBlock: OJICUG_clean_linker_0, # of connection points: 2
#     Edge 112, Type (0, 0), BuildingBlock: OJICUG_clean_linker_0, # of connection points: 2
#     Edge 113, Type (0, 0), BuildingBlock: OJICUG_clean_linker_0, # of connection points: 2
#     Edge 114, Type (0, 0), BuildingBlock: OJICUG_clean_linker_0, # of connection points: 2
#     Edge 115, Type (0, 0), BuildingBlock: OJICUG_clean_linker_0, # of connection points: 2
#     Edge 116, Type (0, 0), BuildingBlock: OJICUG_clean_linker_0, # of connection points: 2
#     Edge 117, Type (0, 0), BuildingBlock: OJICUG_clean_linker_0, # of connection points: 2
#     Edge 118, Type (0, 0), BuildingBlock: OJICUG_clean_linker_0, # of connection points: 2
#     Edge 119, Type (0, 0), BuildingBlock: OJICUG_clean_linker_0, # of connection points: 2
#     Edge 120, Type (0, 0), BuildingBlock: OJICUG_clean_linker_0, # of connection points: 2
#     Edge 121, Type (0, 0), BuildingBlock: OJICUG_clean_linker_0, # of connection points: 2
#     Edge 122, Type (0, 0), BuildingBlock: OJICUG_clean_linker_0, # of connection points: 2
#     Edge 123, Type (0, 0), BuildingBlock: OJICUG_clean_linker_0, # of connection points: 2
#     Edge 124, Type (0, 0), BuildingBlock: OJICUG_clean_linker_0, # of connection points: 2
#     Edge 125, Type (0, 0), BuildingBlock: OJICUG_clean_linker_0, # of connection points: 2
#     Edge 126, Type (0, 0), BuildingBlock: OJICUG_clean_linker_0, # of connection points: 2
#     Edge 127, Type (0, 0), BuildingBlock: OJICUG_clean_linker_0, # of connection points: 2
#     Edge 128, Type (0, 0), BuildingBlock: OJICUG_clean_linker_0, # of connection points: 2
#     Edge 129, Type (0, 0), BuildingBlock: OJICUG_clean_linker_0, # of connection points: 2
#     Edge 130, Type (0, 0), BuildingBlock: OJICUG_clean_linker_0, # of connection points: 2
#     Edge 131, Type (0, 0), BuildingBlock: OJICUG_clean_linker_0, # of connection points: 2
#     Edge 132, Type (0, 0), BuildingBlock: OJICUG_clean_linker_0, # of connection points: 2
#     Edge 133, Type (0, 0), BuildingBlock: OJICUG_clean_linker_0, # of connection points: 2
#     Edge 134, Type (0, 0), BuildingBlock: OJICUG_clean_linker_0, # of connection points: 2
#     Edge 135, Type (0, 0), BuildingBlock: OJICUG_clean_linker_0, # of connection points: 2
#     Edge 136, Type (0, 0), BuildingBlock: OJICUG_clean_linker_0, # of connection points: 2
#     Edge 137, Type (0, 0), BuildingBlock: OJICUG_clean_linker_0, # of connection points: 2
#     Edge 138, Type (0, 0), BuildingBlock: OJICUG_clean_linker_0, # of connection points: 2
#     Edge 139, Type (0, 0), BuildingBlock: OJICUG_clean_linker_0, # of connection points: 2
#     Edge 140, Type (0, 0), BuildingBlock: OJICUG_clean_linker_0, # of connection points: 2
#     Edge 141, Type (0, 0), BuildingBlock: OJICUG_clean_linker_0, # of connection points: 2
#     Edge 142, Type (0, 0), BuildingBlock: OJICUG_clean_linker_0, # of connection points: 2
#     Edge 143, Type (0, 0), BuildingBlock: OJICUG_clean_linker_0, # of connection points: 2
# Relax obj value: 0.151
# Max RMSD: 0.231
# Mean RMSD: 0.213
data_MOF--net-wna--node1-BETDAH_clean_sbu_0--edge1-OJICUG_clean_linker_0
_symmetry_space_group_name_H-M    P1
_symmetry_Int_Tables_number       1
_symmetry_cell_setting            triclinic
loop_
_symmetry_equiv_pos_as_xyz
'x, y, z'
_cell_length_a     29.667379
_cell_length_b     29.626231
_cell_length_c     128.66658
_cell_angle_alpha  90.073137
_cell_angle_beta   89.967232
_cell_angle_gamma 119.95476
loop_
_atom_site_label
_atom_site_type_symbol
_atom_site_fract_x
_atom_site_fract_y
_atom_site_fract_z
_atom_type_partial_charge
Ho0 Ho 0.13379 0.26744 0.17243 0.0
Ho1 Ho 0.13918 0.25014 0.19788 0.0
C2 C 0.24516 0.32555 0.18431 0.0
C3 C 0.11929 0.3018 0.15503 0.0
C4 C 0.1383 0.31559 0.14425 0.0
C5 C 0.12992 0.35218 0.13902 0.0
C6 C 0.14046 0.3611 0.1284 0.0
C7 C 0.15967 0.33355 0.12276 0.0
C8 C 0.17048 0.29864 0.12813 0.0
C9 C 0.15967 0.28956 0.1388 0.0
C10 C 0.16458 0.19693 0.17708 0.0
C11 C 0.03433 0.17556 0.18472 0.0
C12 C 0.14504 0.21844 0.21631 0.0
C13 C 0.11911 0.20904 0.22657 0.0
C14 C 0.10937 0.16462 0.23223 0.0
C15 C 0.08516 0.15441 0.24197 0.0
C16 C 0.07011 0.18851 0.24633 0.0
C17 C 0.07998 0.23316 0.24063 0.0
C18 C 0.10404 0.24323 0.23084 0.0
C19 C 0.10308 0.31715 0.1928 0.0
O20 O 0.21722 0.32561 0.17622 0.0
O21 O 0.22405 0.29649 0.1928 0.0
O22 O 0.09641 0.25226 0.15749 0.0
O23 O 0.14845 0.33271 0.16253 0.0
O24 O 0.1608 0.2105 0.16762 0.0
O25 O 0.15327 0.22327 0.1831 0.0
O26 O 0.06229 0.18142 0.19319 0.0
O27 O 0.05132 0.20879 0.17679 0.0
O28 O 0.17363 0.26697 0.21323 0.0
O29 O 0.11726 0.18697 0.20878 0.0
O30 O 0.10971 0.30627 0.20225 0.0
O31 O 0.11668 0.29185 0.18709 0.0
H32 H 0.11345 0.37267 0.14308 0.0
H33 H 0.13256 0.3889 0.12454 0.0
H34 H 0.18511 0.2767 0.12401 0.0
H35 H 0.16635 0.26102 0.14269 0.0
H36 H 0.12073 0.13775 0.22912 0.0
H37 H 0.07895 0.12009 0.24616 0.0
H38 H 0.06846 0.25998 0.24368 0.0
H39 H 0.11076 0.27764 0.22661 0.0
Ho40 Ho 0.78034 0.87452 0.17315 0.0
Ho41 Ho 0.78812 0.89292 0.19641 0.0
C42 C 0.71683 0.92683 0.18345 0.0
C43 C 0.75169 0.83874 0.15444 0.0
C44 C 0.73956 0.85034 0.1439 0.0
C45 C 0.68865 0.83716 0.14107 0.0
C46 C 0.67645 0.84085 0.13068 0.0
C47 C 0.71475 0.85736 0.12286 0.0
C48 C 0.76595 0.8721 0.1258 0.0
C49 C 0.77811 0.86855 0.13615 0.0
C50 C 0.85691 0.97083 0.17851 0.0
C51 C 0.86673 0.86227 0.18507 0.0
C52 C 0.81394 0.91969 0.21573 0.0
C53 C 0.82448 0.90267 0.22587 0.0
C54 C 0.87118 0.93576 0.23107 0.0
C55 C 0.88028 0.92414 0.24113 0.0
C56 C 0.84277 0.87909 0.24632 0.0
C57 C 0.7965 0.84513 0.24098 0.0
C58 C 0.78737 0.85685 0.23088 0.0
C59 C 0.71678 0.79344 0.19028 0.0
O60 O 0.71931 0.89836 0.17574 0.0
O61 O 0.74572 0.936 0.19191 0.0
O62 O 0.80008 0.86564 0.15748 0.0
O63 O 0.71864 0.82887 0.16206 0.0
O64 O 0.85669 0.94644 0.17014 0.0
O65 O 0.81316 0.9461 0.18295 0.0
O66 O 0.86008 0.88709 0.19296 0.0
O67 O 0.83243 0.84299 0.17745 0.0
O68 O 0.76607 0.89654 0.21232 0.0
O69 O 0.84773 0.93077 0.20826 0.0
O70 O 0.71127 0.81714 0.1982 0.0
O71 O 0.76122 0.82237 0.18654 0.0
H72 H 0.65786 0.82245 0.14682 0.0
H73 H 0.63672 0.82976 0.12876 0.0
H74 H 0.79639 0.88408 0.12003 0.0
H75 H 0.81753 0.87809 0.13799 0.0
H76 H 0.90037 0.97145 0.22742 0.0
H77 H 0.91677 0.95077 0.24487 0.0
H78 H 0.76653 0.81028 0.24472 0.0
H79 H 0.7508 0.83063 0.22712 0.0
Ho80 Ho 0.16858 0.91287 0.17294 0.0
Ho81 Ho 0.15377 0.90595 0.19614 0.0
C82 C 0.12006 0.79897 0.18385 0.0
C83 C 0.20161 0.9174 0.15408 0.0
C84 C 0.18911 0.89227 0.14368 0.0
C85 C 0.21936 0.87206 0.13961 0.0
C86 C 0.21509 0.85752 0.12913 0.0
C87 C 0.18084 0.86343 0.12245 0.0
C88 C 0.14878 0.88127 0.12665 0.0
C89 C 0.1528 0.89548 0.13713 0.0
C90 C 0.07255 0.89273 0.17872 0.0
C91 C 0.18186 1.01334 0.18436 0.0
C92 C 0.12976 0.90736 0.21558 0.0
C93 C 0.14765 0.93568 0.22563 0.0
C94 C 0.11638 0.95231 0.23063 0.0
C95 C 0.12819 0.97315 0.24069 0.0
C96 C 0.1716 0.97778 0.24608 0.0
C97 C 0.20395 0.96267 0.24094 0.0
C98 C 0.19203 0.94168 0.23085 0.0
C99 C 0.25274 0.93414 0.18961 0.0
O100 O 0.14768 0.82891 0.17598 0.0
O101 O 0.11072 0.81985 0.19212 0.0
O102 O 0.17495 0.93915 0.15715 0.0
O103 O 0.21275 0.89531 0.16171 0.0
O104 O 0.09553 0.91583 0.17019 0.0
O105 O 0.09837 0.87476 0.1831 0.0
O106 O 0.15769 0.98269 0.19237 0.0
O107 O 0.20047 0.99725 0.17678 0.0
O108 O 0.15249 0.88223 0.21212 0.0
O109 O 0.11774 0.92932 0.20811 0.0
O110 O 0.22991 0.90544 0.19762 0.0
O111 O 0.22311 0.94895 0.18591 0.0
H112 H 0.24819 0.86984 0.14441 0.0
H113 H 0.2407 0.84435 0.12614 0.0
H114 H 0.12153 0.88565 0.12175 0.0
H115 H 0.12896 0.9111 0.13996 0.0
H116 H 0.08178 0.9479 0.22685 0.0
H117 H 0.10288 0.98521 0.24429 0.0
H118 H 0.23752 0.96532 0.24484 0.0
H119 H 0.21681 0.92892 0.22726 0.0
Ho120 Ho 0.27208 0.12248 0.36164 0.0
Ho121 Ho 0.26378 0.13032 0.33835 0.0
C122 C 0.33706 0.23623 0.35081 0.0
C123 C 0.30119 0.11744 0.38041 0.0
C124 C 0.31414 0.14264 0.3908 0.0
C125 C 0.36484 0.16335 0.39474 0.0
C126 C 0.37561 0.17832 0.40519 0.0
C127 C 0.33576 0.17236 0.41197 0.0
C128 C 0.28557 0.15392 0.40791 0.0
C129 C 0.27487 0.13927 0.39746 0.0
C130 C 0.19596 0.14267 0.35607 0.0
C131 C 0.1855 0.02262 0.35004 0.0
C132 C 0.23831 0.12986 0.31897 0.0
C133 C 0.22753 0.10124 0.30896 0.0
C134 C 0.18346 0.09197 0.30323 0.0
C135 C 0.17434 0.06969 0.29331 0.0
C136 C 0.20915 0.05602 0.28879 0.0
C137 C 0.25294 0.06449 0.29463 0.0
C138 C 0.26204 0.08685 0.3046 0.0
C139 C 0.33494 0.10269 0.34478 0.0
O140 O 0.33504 0.20614 0.35862 0.0
O141 O 0.30654 0.21588 0.34258 0.0
O142 O 0.25273 0.09573 0.37741 0.0
O143 O 0.33409 0.13959 0.37274 0.0
O144 O 0.19627 0.11948 0.36457 0.0
O145 O 0.23956 0.16073 0.3516 0.0
O146 O 0.19197 0.05312 0.34202 0.0
O147 O 0.21981 0.03844 0.35767 0.0
O148 O 0.28617 0.15416 0.32239 0.0
O149 O 0.20436 0.10827 0.32645 0.0
O150 O 0.34062 0.13131 0.33676 0.0
O151 O 0.2905 0.08749 0.34848 0.0
H152 H 0.39572 0.16572 0.38986 0.0
H153 H 0.4146 0.19192 0.40808 0.0
H154 H 0.25415 0.14948 0.41288 0.0
H155 H 0.23526 0.12327 0.39473 0.0
H156 H 0.15656 0.10324 0.30635 0.0
H157 H 0.14067 0.06466 0.28904 0.0
H158 H 0.28028 0.0539 0.2915 0.0
H159 H 0.29645 0.09357 0.30881 0.0
Ho160 Ho 0.91983 0.16288 0.36202 0.0
Ho161 Ho 0.91342 0.14013 0.33664 0.0
C162 C 0.80795 0.11 0.35035 0.0
C163 C 0.93355 0.20869 0.3798 0.0
C164 C 0.91468 0.198 0.39071 0.0
C165 C 0.86993 0.19938 0.39383 0.0
C166 C 0.85578 0.19434 0.40435 0.0
C167 C 0.88616 0.18805 0.412 0.0
C168 C 0.93029 0.18567 0.40882 0.0
C169 C 0.94442 0.19075 0.39834 0.0
C170 C 0.88933 0.06149 0.35738 0.0
C171 C 1.01888 0.17063 0.3496 0.0
C172 C 0.90627 0.1018 0.31822 0.0
C173 C 0.93094 0.11722 0.30782 0.0
C174 C 0.94381 0.08368 0.30256 0.0
C175 C 0.96598 0.09608 0.29263 0.0
C176 C 0.97573 0.1424 0.28764 0.0
C177 C 0.96322 0.1763 0.29299 0.0
C178 C 0.94111 0.16388 0.30297 0.0
C179 C 0.94983 0.24361 0.34165 0.0
O180 O 0.83649 0.13839 0.35835 0.0
O181 O 0.82857 0.1016 0.34183 0.0
O182 O 0.96062 0.18734 0.37662 0.0
O183 O 0.90237 0.20912 0.3726 0.0
O184 O 0.89367 0.07914 0.36682 0.0
O185 O 0.9 0.09894 0.35136 0.0
O186 O 0.9904 0.14794 0.3412 0.0
O187 O 1.00232 0.18766 0.35747 0.0
O188 O 0.87782 0.12177 0.32139 0.0
O189 O 0.93482 0.09871 0.32565 0.0
O190 O 0.94333 0.22569 0.33223 0.0
O191 O 0.93585 0.20484 0.34742 0.0
H192 H 0.84635 0.20538 0.38819 0.0
H193 H 0.8213 0.19591 0.4065 0.0
H194 H 0.95522 0.18186 0.41447 0.0
H195 H 0.97962 0.19041 0.39624 0.0
H196 H 0.93656 0.04757 0.30614 0.0
H197 H 0.97591 0.0694 0.2889 0.0
H198 H 0.96965 0.21207 0.2894 0.0
H199 H 0.93169 0.19059 0.30685 0.0
Ho200 Ho 0.88347 0.77123 0.3615 0.0
Ho201 Ho 0.90229 0.78252 0.33815 0.0
C202 C 0.93484 0.70835 0.35052 0.0
C203 C 0.84504 0.73899 0.37987 0.0
C204 C 0.8508 0.72045 0.39019 0.0
C205 C 0.80644 0.68007 0.39494 0.0
C206 C 0.80707 0.66866 0.40547 0.0
C207 C 0.85215 0.69748 0.4115 0.0
C208 C 0.89767 0.73567 0.40657 0.0
C209 C 0.89697 0.74722 0.39601 0.0
C210 C 0.98001 0.84752 0.35634 0.0
C211 C 0.87314 0.86084 0.35019 0.0
C212 C 0.929 0.81043 0.31893 0.0
C213 C 0.91105 0.82124 0.30894 0.0
C214 C 0.94491 0.86652 0.30342 0.0
C215 C 0.93162 0.87595 0.29353 0.0
C216 C 0.88399 0.84021 0.28886 0.0
C217 C 0.8496 0.79517 0.2945 0.0
C218 C 0.86295 0.78578 0.30443 0.0
C219 C 0.80302 0.71102 0.34412 0.0
O220 O 0.90633 0.70962 0.35835 0.0
O221 O 0.94486 0.73926 0.34234 0.0
O222 O 0.87726 0.78769 0.37755 0.0
O223 O 0.83269 0.70772 0.37184 0.0
O224 O 0.9562 0.8466 0.36485 0.0
O225 O 0.95461 0.80447 0.35166 0.0
O226 O 0.89753 0.85464 0.34217 0.0
O227 O 0.85411 0.82596 0.35773 0.0
O228 O 0.90664 0.76221 0.32216 0.0
O229 O 0.93955 0.84348 0.32654 0.0
O230 O 0.82629 0.70624 0.33606 0.0
O231 O 0.83216 0.75496 0.34808 0.0
H232 H 0.77034 0.65905 0.39064 0.0
H233 H 0.7716 0.6384 0.40898 0.0
H234 H 0.93298 0.75866 0.41099 0.0
H235 H 0.93176 0.77875 0.39256 0.0
H236 H 0.98245 0.89421 0.30666 0.0
H237 H 0.95954 0.91064 0.28943 0.0
H238 H 0.81231 0.76708 0.29125 0.0
H239 H 0.83598 0.75045 0.30848 0.0
Ho240 Ho 0.91598 0.78535 0.83713 0.0
Ho241 Ho 0.923 0.77033 0.86251 0.0
C242 C 1.02247 0.85988 0.84996 0.0
C243 C 0.90844 0.81544 0.81864 0.0
C244 C 0.93231 0.82324 0.80819 0.0
C245 C 0.93986 0.86618 0.80227 0.0
C246 C 0.96178 0.87474 0.79232 0.0
C247 C 0.97675 0.84047 0.78801 0.0
C248 C 0.96908 0.79729 0.79398 0.0
C249 C 0.94723 0.78885 0.80398 0.0
C250 C 0.95219 0.71818 0.84222 0.0
C251 C 0.81015 0.71254 0.85103 0.0
C252 C 0.93567 0.73811 0.88032 0.0
C253 C 0.91627 0.73049 0.89118 0.0
C254 C 0.88707 0.6799 0.89524 0.0
C255 C 0.8738 0.67214 0.9058 0.0
C256 C 0.88992 0.71484 0.91256 0.0
C257 C 0.91779 0.76544 0.90843 0.0
C258 C 0.9308 0.7732 0.89788 0.0
C259 C 0.89372 0.84191 0.85774 0.0
O260 O 0.99345 0.85467 0.84167 0.0
O261 O 1.00571 0.82605 0.85778 0.0
O262 O 0.87966 0.76737 0.82195 0.0
O263 O 0.93787 0.84744 0.82595 0.0
O264 O 0.94589 0.72957 0.83279 0.0
O265 O 0.93777 0.74278 0.84797 0.0
O266 O 0.83893 0.7131 0.85902 0.0
O267 O 0.83082 0.73997 0.84234 0.0
O268 O 0.96383 0.78629 0.87707 0.0
O269 O 0.90409 0.70653 0.87315 0.0
O270 O 0.89833 0.82926 0.86721 0.0
O271 O 0.90393 0.81456 0.85179 0.0
H272 H 0.9285 0.89315 0.80533 0.0
H273 H 0.96628 0.90793 0.78794 0.0
H274 H 0.9806 0.77039 0.79098 0.0
H275 H 0.94209 0.75553 0.80841 0.0
H276 H 0.87587 0.64625 0.89032 0.0
H277 H 0.8528 0.63266 0.90874 0.0
H278 H 0.93029 0.79915 0.9134 0.0
H279 H 0.95347 0.81278 0.89505 0.0
Ho280 Ho 0.26651 0.14302 0.8378 0.0
Ho281 Ho 0.27739 0.1597 0.86231 0.0
C282 C 0.18608 0.16831 0.85042 0.0
C283 C 0.23856 0.11529 0.81864 0.0
C284 C 0.22942 0.13301 0.80847 0.0
C285 C 0.18256 0.10109 0.80322 0.0
C286 C 0.17428 0.11348 0.79317 0.0
C287 C 0.21279 0.15817 0.78806 0.0
C288 C 0.25928 0.191 0.79344 0.0
C289 C 0.26759 0.1785 0.80353 0.0
C290 C 0.33818 0.24123 0.84459 0.0
C291 C 0.33743 0.10827 0.85083 0.0
C292 C 0.30737 0.2014 0.88048 0.0
C293 C 0.3168 0.18955 0.8912 0.0
C294 C 0.3676 0.21417 0.89523 0.0
C295 C 0.37635 0.20937 0.90577 0.0
C296 C 0.33439 0.18029 0.91254 0.0
C297 C 0.28375 0.15411 0.90842 0.0
C298 C 0.27502 0.15863 0.89789 0.0
C299 C 0.20977 0.05759 0.85752 0.0
O300 O 0.1969 0.15234 0.8416 0.0
O301 O 0.21576 0.17993 0.8588 0.0
O302 O 0.28651 0.13553 0.82195 0.0
O303 O 0.20572 0.10752 0.82614 0.0
O304 O 0.34183 0.22008 0.83605 0.0
O305 O 0.2947 0.21061 0.84859 0.0
O306 O 0.33999 0.14057 0.85826 0.0
O307 O 0.30598 0.09746 0.84269 0.0
O308 O 0.25896 0.17819 0.8773 0.0
O309 O 0.3401 0.20579 0.87313 0.0
O310 O 0.22164 0.07526 0.86696 0.0
O311 O 0.23631 0.09532 0.85157 0.0
H312 H 0.15256 0.06574 0.80683 0.0
H313 H 0.13762 0.08777 0.78939 0.0
H314 H 0.28995 0.22556 0.78975 0.0
H315 H 0.30425 0.20382 0.80736 0.0
H316 H 0.40049 0.23876 0.89031 0.0
H317 H 0.41581 0.23045 0.90871 0.0
H318 H 0.25065 0.13092 0.9134 0.0
H319 H 0.23529 0.13921 0.8951 0.0
Ho320 Ho 0.90306 0.13239 0.83874 0.0
Ho321 Ho 0.88581 0.12317 0.86192 0.0
C322 C 0.8743 0.02402 0.8503 0.0
C323 C 0.9274 0.13122 0.81933 0.0
C324 C 0.907 0.10297 0.8093 0.0
C325 C 0.91672 0.06287 0.80635 0.0
C326 C 0.90349 0.04078 0.79638 0.0
C327 C 0.88046 0.05838 0.78906 0.0
C328 C 0.8696 0.09762 0.79211 0.0
C329 C 0.88287 0.11974 0.80207 0.0
C330 C 0.80366 0.10357 0.84495 0.0
C331 C 0.9379 0.23867 0.85149 0.0
C332 C 0.84884 0.11653 0.88045 0.0
C333 C 0.85456 0.1413 0.89072 0.0
C334 C 0.81041 0.13862 0.89531 0.0
C335 C 0.81071 0.15104 0.9058 0.0
C336 C 0.85521 0.16634 0.91196 0.0
C337 C 0.90062 0.17246 0.90719 0.0
C338 C 0.90026 0.15986 0.89666 0.0
C339 C 0.98139 0.14166 0.85637 0.0
O340 O 0.899 0.05537 0.8424 0.0
O341 O 0.855 0.03931 0.85789 0.0
O342 O 0.90757 0.1589 0.82288 0.0
O343 O 0.9376 0.10764 0.82677 0.0
O344 O 0.82699 0.1329 0.83704 0.0
O345 O 0.83302 0.08859 0.84869 0.0
O346 O 0.91005 0.20816 0.85928 0.0
O347 O 0.9464 0.21835 0.84302 0.0
O348 O 0.88228 0.10175 0.878 0.0
O349 O 0.83444 0.13383 0.87248 0.0
O350 O 0.95708 0.11726 0.86472 0.0
O351 O 0.95694 0.16133 0.85204 0.0
H352 H 0.93578 0.04932 0.81165 0.0
H353 H 0.91182 1.01016 0.79439 0.0
H354 H 0.85254 0.11271 0.78667 0.0
H355 H 0.8756 0.15116 0.80399 0.0
H356 H 0.77466 0.12421 0.89092 0.0
H357 H 0.77538 0.14678 0.9092 0.0
H358 H 0.93547 0.18402 0.91172 0.0
H359 H 0.93489 0.16215 0.89334 0.0
Ho360 Ho 0.78925 0.90614 0.69672 0.0
Ho361 Ho 0.78089 0.91467 0.67342 0.0
C362 C 0.86735 1.01421 0.68513 0.0
C363 C 0.81478 0.90685 0.71611 0.0
C364 C 0.82272 0.93487 0.72617 0.0
C365 C 0.8728 0.97364 0.72926 0.0
C366 C 0.88164 0.99541 0.73925 0.0
C367 C 0.84071 0.97882 0.74647 0.0
C368 C 0.79038 0.94093 0.7433 0.0
C369 C 0.78155 0.9191 0.73331 0.0
C370 C 0.7177 0.93332 0.69046 0.0
C371 C 0.71662 0.8005 0.68414 0.0
C372 C 0.75177 0.91995 0.65467 0.0
C373 C 0.73942 0.89492 0.64426 0.0
C374 C 0.68889 0.87412 0.64023 0.0
C375 C 0.67863 0.85921 0.62977 0.0
C376 C 0.71885 0.86535 0.62308 0.0
C377 C 0.76886 0.88387 0.62724 0.0
C378 C 0.77905 0.89844 0.6377 0.0
C379 C 0.85726 0.89488 0.67898 0.0
O380 O 0.86115 0.98328 0.69306 0.0
O381 O 0.83284 0.99865 0.67753 0.0
O382 O 0.76729 0.87942 0.71258 0.0
O383 O 0.84852 0.93052 0.70867 0.0
O384 O 0.7125 0.90507 0.6985 0.0
O385 O 0.76199 0.94871 0.68666 0.0
O386 O 0.71829 0.83076 0.67639 0.0
O387 O 0.74726 0.82075 0.69236 0.0
O388 O 0.80022 0.9423 0.6577 0.0
O389 O 0.71884 0.89715 0.66231 0.0
O390 O 0.85697 0.91807 0.67049 0.0
O391 O 0.81353 0.87648 0.68339 0.0
H392 H 0.90559 0.98633 0.72404 0.0
H393 H 0.92079 0.025 0.74134 0.0
H394 H 0.75798 0.92663 0.74866 0.0
H395 H 0.74263 0.88871 0.73129 0.0
H396 H 0.65775 0.87161 0.64504 0.0
H397 H 0.63977 0.84553 0.6268 0.0
H398 H 0.80054 0.88845 0.62233 0.0
H399 H 0.81854 0.9145 0.64051 0.0
Ho400 Ho 0.14086 0.89487 0.69689 0.0
Ho401 Ho 0.13253 0.87601 0.67353 0.0
C402 C 0.03319 0.86547 0.68506 0.0
C403 C 0.14011 0.92196 0.71611 0.0
C404 C 0.11053 0.90465 0.72602 0.0
C405 C 0.09452 0.93689 0.73083 0.0
C406 C 0.07148 0.92486 0.74069 0.0
C407 C 0.06401 0.88027 0.74607 0.0
C408 C 0.07879 0.84716 0.74112 0.0
C409 C 0.10188 0.85924 0.73123 0.0
C410 C 0.11237 0.7954 0.6909 0.0
C411 C 0.24663 0.92647 0.68436 0.0
C412 C 0.12551 0.8373 0.65514 0.0
C413 C 0.14938 0.8417 0.64481 0.0
C414 C 0.14543 0.79671 0.64032 0.0
C415 C 0.15685 0.79583 0.6298 0.0
C416 C 0.17242 0.83999 0.62351 0.0
C417 C 0.17976 0.88619 0.62817 0.0
C418 C 0.16815 0.88701 0.63872 0.0
C419 C 0.15289 0.97276 0.67881 0.0
O420 O 0.06364 0.88926 0.69311 0.0
O421 O 0.04884 0.84695 0.67738 0.0
O422 O 0.16455 0.89803 0.71292 0.0
O423 O 0.11921 0.93411 0.70846 0.0
O424 O 0.14072 0.81862 0.69893 0.0
O425 O 0.09779 0.82473 0.68695 0.0
O426 O 0.2166 0.89815 0.67654 0.0
O427 O 0.2263 0.93674 0.6926 0.0
O428 O 0.11081 0.871 0.65744 0.0
O429 O 0.14326 0.82383 0.66317 0.0
O430 O 0.12952 0.94879 0.67035 0.0
O431 O 0.17084 0.94731 0.68336 0.0
H432 H 0.10088 0.97223 0.72703 0.0
H433 H 0.05979 0.95082 0.74412 0.0
H434 H 0.07407 0.81271 0.74503 0.0
H435 H 0.11401 0.83365 0.72777 0.0
H436 H 0.1308 0.76123 0.64482 0.0
H437 H 0.15167 0.75989 0.6265 0.0
H438 H 0.19154 0.92082 0.62354 0.0
H439 H 0.17138 0.92227 0.64196 0.0
Ho440 Ho 0.15247 0.25678 0.69655 0.0
Ho441 Ho 0.16904 0.26533 0.67321 0.0
C442 C 0.18232 0.17856 0.68485 0.0
C443 C 0.12684 0.23063 0.71587 0.0
C444 C 0.14484 0.21937 0.72578 0.0
C445 C 0.11056 0.17444 0.73135 0.0
C446 C 0.12404 0.16457 0.74116 0.0
C447 C 0.1723 0.1995 0.74572 0.0
C448 C 0.20706 0.24422 0.74004 0.0
C449 C 0.19352 0.25405 0.73018 0.0
C450 C 0.25101 0.3283 0.69025 0.0
C451 C 0.11977 0.33006 0.68409 0.0
C452 C 0.20343 0.29384 0.65442 0.0
C453 C 0.19173 0.30607 0.6439 0.0
C454 C 0.20647 0.35739 0.64102 0.0
C455 C 0.20318 0.36966 0.63062 0.0
C456 C 0.18557 0.33101 0.62283 0.0
C457 C 0.16913 0.27942 0.62583 0.0
C458 C 0.17225 0.26719 0.63619 0.0
C459 C 0.07289 0.18923 0.67885 0.0
O460 O 0.1584 0.18514 0.69289 0.0
O461 O 0.2005 0.21271 0.67718 0.0
O462 O 0.15047 0.2787 0.71253 0.0
O463 O 0.11448 0.1969 0.70833 0.0
O464 O 0.22805 0.33352 0.69832 0.0
O465 O 0.22205 0.28398 0.68642 0.0
O466 O 0.14782 0.3281 0.67625 0.0
O467 O 0.10977 0.29958 0.69232 0.0
O468 O 0.17655 0.24541 0.65746 0.0
O469 O 0.21376 0.327 0.66204 0.0
O470 O 0.09606 0.18933 0.67032 0.0
O471 O 0.09859 0.233 0.68325 0.0
H472 H 0.07258 0.14738 0.72819 0.0
H473 H 0.09586 0.13018 0.74532 0.0
H474 H 0.24479 0.27168 0.74322 0.0
H475 H 0.22081 0.2891 0.72609 0.0
H476 H 0.22221 0.38842 0.64673 0.0
H477 H 0.21555 0.4097 0.62865 0.0
H478 H 0.15622 0.24867 0.62009 0.0
H479 H 0.16147 0.22741 0.63807 0.0
Ho480 Ho 0.80156 0.60191 0.50666 0.0
Ho481 Ho 0.80968 0.59212 0.52994 0.0
C482 C 0.91571 0.66595 0.51748 0.0
C483 C 0.79455 0.6329 0.48821 0.0
C484 C 0.81819 0.65164 0.47785 0.0
C485 C 0.81187 0.69057 0.47304 0.0
C486 C 0.82322 0.70176 0.46249 0.0
C487 C 0.84117 0.6742 0.45649 0.0
C488 C 0.85082 0.63758 0.46147 0.0
C489 C 0.83921 0.6262 0.47205 0.0
C490 C 0.82169 0.52546 0.51195 0.0
C491 C 0.70209 0.51326 0.51815 0.0
C492 C 0.80923 0.5653 0.54921 0.0
C493 C 0.78012 0.55396 0.55915 0.0
C494 C 0.76904 0.50862 0.56462 0.0
C495 C 0.74588 0.49866 0.57446 0.0
C496 C 0.73322 0.53391 0.57914 0.0
C497 C 0.74357 0.57903 0.57356 0.0
C498 C 0.76673 0.58894 0.56367 0.0
C499 C 0.78096 0.66297 0.52386 0.0
O500 O 0.88569 0.66391 0.50964 0.0
O501 O 0.89528 0.6356 0.52573 0.0
O502 O 0.77965 0.58458 0.49059 0.0
O503 O 0.81265 0.66452 0.49619 0.0
O504 O 0.79836 0.52606 0.50349 0.0
O505 O 0.8398 0.5689 0.51653 0.0
O506 O 0.73253 0.52015 0.52621 0.0
O507 O 0.7178 0.54734 0.51046 0.0
O508 O 0.83378 0.61346 0.54593 0.0
O509 O 0.78773 0.53182 0.54164 0.0
O510 O 0.80961 0.66842 0.53186 0.0
O511 O 0.76638 0.61885 0.52 0.0
H512 H 0.79548 0.71052 0.47732 0.0
H513 H 0.8162 0.73082 0.45894 0.0
H514 H 0.8645 0.6156 0.45706 0.0
H515 H 0.84426 0.59578 0.47555 0.0
H516 H 0.77948 0.4813 0.56138 0.0
H517 H 0.73934 0.46394 0.57854 0.0
H518 H 0.7338 0.60675 0.57683 0.0
H519 H 0.77482 0.62431 0.55965 0.0
Ho520 Ho 0.44955 0.21154 0.5064 0.0
Ho521 Ho 0.45791 0.22839 0.5297 0.0
C522 C 0.38448 0.26046 0.51718 0.0
C523 C 0.42107 0.17678 0.48762 0.0
C524 C 0.40831 0.18834 0.47715 0.0
C525 C 0.35712 0.17457 0.47443 0.0
C526 C 0.3443 0.17791 0.46407 0.0
C527 C 0.38226 0.19465 0.45618 0.0
C528 C 0.43376 0.2101 0.45901 0.0
C529 C 0.44654 0.2069 0.46933 0.0
C530 C 0.52559 0.30791 0.51196 0.0
C531 C 0.53615 0.19861 0.51808 0.0
C532 C 0.48349 0.25437 0.54904 0.0
C533 C 0.49382 0.23685 0.55912 0.0
C534 C 0.54015 0.26995 0.56442 0.0
C535 C 0.54893 0.25786 0.57446 0.0
C536 C 0.51145 0.21231 0.57951 0.0
C537 C 0.4656 0.1783 0.57406 0.0
C538 C 0.4568 0.19049 0.56399 0.0
C539 C 0.38683 0.12946 0.52335 0.0
O540 O 0.38652 0.23227 0.50937 0.0
O541 O 0.41508 0.27089 0.5254 0.0
O542 O 0.46945 0.20426 0.49064 0.0
O543 O 0.38802 0.16599 0.49528 0.0
O544 O 0.52537 0.28438 0.50347 0.0
O545 O 0.48196 0.28245 0.51641 0.0
O546 O 0.52976 0.22298 0.52607 0.0
O547 O 0.50179 0.17987 0.51046 0.0
O548 O 0.43565 0.23133 0.5456 0.0
O549 O 0.5174 0.26574 0.54158 0.0
O550 O 0.38124 0.15248 0.53138 0.0
O551 O 0.4312 0.15864 0.51962 0.0
H552 H 0.32658 0.15958 0.48023 0.0
H553 H 0.30436 0.16629 0.46222 0.0
H554 H 0.46396 0.2223 0.45318 0.0
H555 H 0.48617 0.2169 0.4711 0.0
H556 H 0.56924 0.30603 0.56088 0.0
H557 H 0.58511 0.28452 0.5783 0.0
H558 H 0.4357 0.14305 0.5777 0.0
H559 H 0.42053 0.16424 0.56013 0.0
Ho560 Ho 0.83751 0.24764 0.50654 0.0
Ho561 Ho 0.81958 0.23993 0.52983 0.0
C562 C 0.7863 0.13348 0.51742 0.0
C563 C 0.87445 0.25302 0.48803 0.0
C564 C 0.86462 0.22795 0.47767 0.0
C565 C 0.90176 0.21719 0.47338 0.0
C566 C 0.89906 0.20325 0.4629 0.0
C567 C 0.85932 0.20017 0.45645 0.0
C568 C 0.82061 0.2083 0.46089 0.0
C569 C 0.82317 0.22198 0.47139 0.0
C570 C 0.74122 0.22787 0.51181 0.0
C571 C 0.84886 0.34754 0.51803 0.0
C572 C 0.79416 0.24094 0.54915 0.0
C573 C 0.81436 0.26901 0.55919 0.0
C574 C 0.80434 0.30888 0.56215 0.0
C575 C 0.81749 0.3309 0.57211 0.0
C576 C 0.84075 0.31345 0.57941 0.0
C577 C 0.85192 0.27445 0.57635 0.0
C578 C 0.83871 0.25238 0.56639 0.0
C579 C 0.91848 0.26702 0.52372 0.0
O580 O 0.81483 0.16322 0.50961 0.0
O581 O 0.77625 0.15438 0.52559 0.0
O582 O 0.84611 0.2736 0.49069 0.0
O583 O 0.88485 0.23149 0.49587 0.0
O584 O 0.76479 0.25041 0.50327 0.0
O585 O 0.7665 0.20997 0.51642 0.0
O586 O 0.82468 0.31702 0.52604 0.0
O587 O 0.86755 0.3317 0.51041 0.0
O588 O 0.81381 0.21296 0.54568 0.0
O589 O 0.78467 0.26491 0.54168 0.0
O590 O 0.89526 0.23892 0.53177 0.0
O591 O 0.88955 0.28225 0.51987 0.0
H592 H 0.93444 0.22211 0.478 0.0
H593 H 0.9298 0.19774 0.45973 0.0
H594 H 0.78906 0.2055 0.45618 0.0
H595 H 0.79387 0.23004 0.47444 0.0
H596 H 0.78511 0.32228 0.55687 0.0
H597 H 0.80894 0.36134 0.57413 0.0
H598 H 0.86916 0.2595 0.58178 0.0
H599 H 0.84623 0.22115 0.56446 0.0
Ho600 Ho 0.94071 0.45654 0.69481 0.0
Ho601 Ho 0.93138 0.46532 0.67156 0.0
C602 C 1.00446 0.57097 0.68416 0.0
C603 C 0.97094 0.44998 0.71338 0.0
C604 C 0.98574 0.47438 0.72383 0.0
C605 C 0.03829 0.50274 0.72681 0.0
C606 C 0.05199 0.51725 0.7372 0.0
C607 C 1.01344 0.50324 0.7449 0.0
C608 C 0.96095 0.47694 0.7418 0.0
C609 C 0.9473 0.46267 0.73142 0.0
C610 C 0.86439 0.4768 0.68953 0.0
C611 C 0.85284 0.35737 0.68318 0.0
C612 C 0.90553 0.46505 0.65223 0.0
C613 C 0.89781 0.43712 0.64218 0.0
C614 C 0.84799 0.39749 0.63917 0.0
C615 C 0.83931 0.37556 0.62921 0.0
C616 C 0.88012 0.39288 0.62194 0.0
C617 C 0.93021 0.43164 0.62504 0.0
C618 C 0.93888 0.45361 0.635 0.0
C619 C 1.00286 0.43763 0.67764 0.0
O620 O 1.00293 0.54072 0.6919 0.0
O621 O 0.97367 0.55069 0.67596 0.0
O622 O 0.92229 0.43004 0.71062 0.0
O623 O 1.00322 0.4715 0.70559 0.0
O624 O 0.86505 0.45361 0.698 0.0
O625 O 0.90775 0.49495 0.68498 0.0
O626 O 0.85923 0.38832 0.67524 0.0
O627 O 0.88737 0.37271 0.69077 0.0
O628 O 0.95301 0.49273 0.65575 0.0
O629 O 0.87191 0.44104 0.65967 0.0
O630 O 1.00801 0.46617 0.66964 0.0
O631 O 0.95863 0.42231 0.68146 0.0
H632 H 0.06886 0.5119 0.72118 0.0
H633 H 0.09284 0.53822 0.73926 0.0
H634 H 0.93007 0.46475 0.74747 0.0
H635 H 0.90638 0.44015 0.72947 0.0
H636 H 0.8153 0.3842 0.64444 0.0
H637 H 0.80037 0.3453 0.62716 0.0
H638 H 0.96247 0.44646 0.61964 0.0
H639 H 0.97758 0.48466 0.63697 0.0
Ho640 Ho 0.58891 0.49598 0.69455 0.0
Ho641 Ho 0.58105 0.47691 0.67118 0.0
C642 C 0.47507 0.44523 0.68362 0.0
C643 C 0.59509 0.53481 0.71291 0.0
C644 C 0.56985 0.52778 0.72316 0.0
C645 C 0.57248 0.57132 0.72807 0.0
C646 C 0.55824 0.569 0.73851 0.0
C647 C 0.54116 0.52301 0.74431 0.0
C648 C 0.53596 0.47856 0.7392 0.0
C649 C 0.55016 0.48089 0.72874 0.0
C650 C 0.56866 0.39922 0.6894 0.0
C651 C 0.68823 0.50591 0.68314 0.0
C652 C 0.58129 0.44954 0.65196 0.0
C653 C 0.60901 0.46722 0.64188 0.0
C654 C 0.62305 0.4346 0.63659 0.0
C655 C 0.64412 0.44698 0.62657 0.0
C656 C 0.65157 0.49234 0.62151 0.0
C657 C 0.63884 0.52584 0.62694 0.0
C658 C 0.61768 0.51338 0.637 0.0
C659 C 0.60924 0.57637 0.67719 0.0
O660 O 0.50491 0.4738 0.69143 0.0
O661 O 0.49561 0.43468 0.67545 0.0
O662 O 0.61235 0.50321 0.71056 0.0
O663 O 0.57585 0.54669 0.70489 0.0
O664 O 0.59124 0.42306 0.69793 0.0
O665 O 0.551 0.42459 0.68472 0.0
O666 O 0.65787 0.48187 0.67509 0.0
O667 O 0.67262 0.52495 0.69074 0.0
O668 O 0.5551 0.47145 0.65527 0.0
O669 O 0.60473 0.43981 0.6595 0.0
O670 O 0.58134 0.55332 0.66909 0.0
O671 O 0.62375 0.547 0.68111 0.0
H672 H 0.58809 0.60805 0.72398 0.0
H673 H 0.56335 0.60418 0.74218 0.0
H674 H 0.52219 0.44228 0.74338 0.0
H675 H 0.54771 0.44664 0.72515 0.0
H676 H 0.61664 0.39872 0.64014 0.0
H677 H 0.65433 0.42071 0.62275 0.0
H678 H 0.64368 0.56092 0.6233 0.0
H679 H 0.60704 0.53926 0.64084 0.0
Ho680 Ho 0.55093 0.10477 0.69459 0.0
Ho681 Ho 0.56951 0.11525 0.67124 0.0
C682 C 0.60107 0.04085 0.68371 0.0
C683 C 0.51189 0.07275 0.71292 0.0
C684 C 0.51566 0.05245 0.72318 0.0
C685 C 0.47053 1.01087 0.72746 0.0
C686 C 0.46888 0.99773 0.73794 0.0
C687 C 0.51238 0.02601 0.7444 0.0
C688 C 0.55877 0.06539 0.73995 0.0
C689 C 0.56036 0.07864 0.72944 0.0
C690 C 0.6475 0.18098 0.68936 0.0
C691 C 0.5407 0.19401 0.68316 0.0
C692 C 0.59639 0.14231 0.652 0.0
C693 C 0.57851 0.15317 0.64203 0.0
C694 C 0.61227 0.19868 0.63656 0.0
C695 C 0.59902 0.20821 0.62669 0.0
C696 C 0.55156 0.17233 0.62198 0.0
C697 C 0.51729 0.12704 0.62756 0.0
C698 C 0.53058 0.11756 0.63747 0.0
C699 C 0.47034 0.04432 0.67729 0.0
O700 O 0.57282 0.04258 0.69153 0.0
O701 O 0.61148 0.07168 0.67552 0.0
O702 O 0.54611 0.12106 0.71072 0.0
O703 O 0.49814 0.04185 0.70481 0.0
O704 O 0.62367 0.18026 0.69785 0.0
O705 O 0.62212 0.13772 0.68473 0.0
O706 O 0.56422 0.18717 0.67506 0.0
O707 O 0.52224 0.15984 0.69082 0.0
O708 O 0.57344 0.09416 0.65529 0.0
O709 O 0.60751 0.17572 0.65957 0.0
O710 O 0.49335 0.03904 0.66924 0.0
O711 O 0.49965 0.08837 0.68118 0.0
H712 H 0.43549 0.99026 0.72282 0.0
H713 H 0.43282 0.9666 0.74108 0.0
H714 H 0.5929 0.08803 0.74472 0.0
H715 H 0.59571 0.11106 0.72636 0.0
H716 H 0.64968 0.22648 0.63984 0.0
H717 H 0.62681 0.2431 0.62262 0.0
H718 H 0.48015 0.09884 0.62426 0.0
H719 H 0.5037 0.08205 0.64149 0.0
Ho720 Ho 0.58473 0.12064 0.17028 0.0
Ho721 Ho 0.59007 0.10091 0.19559 0.0
C722 C 0.68971 0.19435 0.1836 0.0
C723 C 0.57708 0.15284 0.15201 0.0
C724 C 0.59877 0.15854 0.14142 0.0
C725 C 0.60002 0.19676 0.13482 0.0
C726 C 0.61979 0.203 0.12472 0.0
C727 C 0.63882 0.17103 0.12094 0.0
C728 C 0.63786 0.13289 0.12764 0.0
C729 C 0.61806 0.12673 0.13778 0.0
C730 C 0.6196 0.05208 0.17489 0.0
C731 C 0.47839 0.04465 0.18379 0.0
C732 C 0.60432 0.06466 0.21275 0.0
C733 C 0.58533 0.05045 0.2235 0.0
C734 C 0.59333 1.01335 0.22862 0.0
C735 C 0.58281 1.00402 0.23923 0.0
C736 C 0.56405 0.03168 0.24496 0.0
C737 C 0.55353 0.06705 0.2397 0.0
C738 C 0.56427 0.07652 0.22905 0.0
C739 C 0.55947 0.17192 0.19133 0.0
O740 O 0.66123 0.18978 0.17526 0.0
O741 O 0.67278 0.15963 0.19127 0.0
O742 O 0.54615 0.10526 0.15537 0.0
O743 O 0.60921 0.1835 0.15918 0.0
O744 O 0.61346 0.06427 0.16552 0.0
O745 O 0.60629 0.07707 0.18076 0.0
O746 O 0.50631 0.04354 0.19179 0.0
O747 O 0.49973 0.07457 0.17542 0.0
O748 O 0.62797 0.11441 0.21044 0.0
O749 O 0.57456 0.03458 0.20522 0.0
O750 O 0.56324 0.15765 0.20074 0.0
O751 O 0.57101 0.14623 0.1852 0.0
H752 H 0.58565 0.22197 0.1375 0.0
H753 H 0.62073 0.23343 0.11991 0.0
H754 H 0.65172 0.10725 0.125 0.0
H755 H 0.61762 0.09702 0.14274 0.0
H756 H 0.60952 0.99282 0.22448 0.0
H757 H 0.59048 0.97588 0.24301 0.0
H758 H 0.53925 0.08909 0.2439 0.0
H759 H 0.55786 0.10542 0.22523 0.0
Ho760 Ho 0.93288 0.4746 0.17094 0.0
Ho761 Ho 0.94606 0.49446 0.19542 0.0
C762 C 0.85299 0.50042 0.18368 0.0
C763 C 0.90314 0.44475 0.15195 0.0
C764 C 0.89462 0.46261 0.14176 0.0
C765 C 0.84822 0.43062 0.13639 0.0
C766 C 0.84032 0.44357 0.12637 0.0
C767 C 0.87878 0.48889 0.12142 0.0
C768 C 0.92481 0.52175 0.12693 0.0
C769 C 0.93272 0.5087 0.13699 0.0
C770 C 1.00467 0.57355 0.17724 0.0
C771 C 1.00469 0.44109 0.18407 0.0
C772 C 0.97955 0.54143 0.21302 0.0
C773 C 0.99509 0.53606 0.22363 0.0
C774 C 0.03181 0.58109 0.22883 0.0
C775 C 0.04141 0.57948 0.23941 0.0
C776 C 1.01438 0.53269 0.24502 0.0
C777 C 0.97969 0.48686 0.23966 0.0
C778 C 0.96996 0.48855 0.22904 0.0
C779 C 0.87797 0.39191 0.19109 0.0
O780 O 0.86309 0.48338 0.17491 0.0
O781 O 0.88355 0.51347 0.19195 0.0
O782 O 0.95109 0.46364 0.15517 0.0
O783 O 0.87114 0.43918 0.15948 0.0
O784 O 1.00764 0.55188 0.16871 0.0
O785 O 0.96165 0.54311 0.18143 0.0
O786 O 1.00756 0.47371 0.19147 0.0
O787 O 0.97291 0.42977 0.17597 0.0
O788 O 0.93014 0.5125 0.2107 0.0
O789 O 1.01074 0.54647 0.20531 0.0
O790 O 0.89046 0.41053 0.20047 0.0
O791 O 0.90439 0.42901 0.18499 0.0
H792 H 0.81826 0.3949 0.13989 0.0
H793 H 0.80397 0.41785 0.12248 0.0
H794 H 0.95539 0.5568 0.12336 0.0
H795 H 0.96897 0.53412 0.14094 0.0
H796 H 0.05159 0.61812 0.2248 0.0
H797 H 0.06903 0.61525 0.24327 0.0
H798 H 0.9582 0.45027 0.24378 0.0
H799 H 0.94135 0.45327 0.22518 0.0
Ho800 Ho 0.56915 0.46122 0.17217 0.0
Ho801 Ho 0.55216 0.45402 0.19539 0.0
C802 C 0.53954 0.35372 0.18401 0.0
C803 C 0.59536 0.46035 0.1529 0.0
C804 C 0.57768 0.43282 0.1428 0.0
C805 C 0.61125 0.4209 0.13729 0.0
C806 C 0.5989 0.40031 0.12722 0.0
C807 C 0.55259 0.39121 0.12236 0.0
C808 C 0.5181 0.40164 0.12802 0.0
C809 C 0.53056 0.42237 0.13812 0.0
C810 C 0.47006 0.43376 0.17832 0.0
C811 C 0.60208 0.56788 0.18444 0.0
C812 C 0.51786 0.44954 0.21413 0.0
C813 C 0.53059 0.47468 0.22452 0.0
C814 C 0.50072 0.49534 0.22859 0.0
C815 C 0.50532 0.51015 0.23905 0.0
C816 C 0.5395 0.50404 0.24572 0.0
C817 C 0.57117 0.48574 0.24152 0.0
C818 C 0.56685 0.47129 0.23106 0.0
C819 C 0.64818 0.47315 0.18992 0.0
O820 O 0.56453 0.38444 0.17607 0.0
O821 O 0.5202 0.36968 0.19148 0.0
O822 O 0.57364 0.48663 0.15625 0.0
O823 O 0.60512 0.43676 0.1604 0.0
O824 O 0.49329 0.46186 0.17027 0.0
O825 O 0.49911 0.41877 0.18222 0.0
O826 O 0.57371 0.5381 0.19226 0.0
O827 O 0.61218 0.54697 0.17628 0.0
O828 O 0.5437 0.42678 0.21113 0.0
O829 O 0.50796 0.47239 0.20646 0.0
O830 O 0.62446 0.45011 0.1984 0.0
O831 O 0.6231 0.4917 0.18546 0.0
H832 H 0.64786 0.4287 0.14069 0.0
H833 H 0.62596 0.39186 0.12321 0.0
H834 H 0.48224 0.3954 0.12452 0.0
H835 H 0.50393 0.43133 0.14216 0.0
H836 H 0.47198 0.49775 0.22379 0.0
H837 H 0.48001 0.52369 0.24205 0.0
H838 H 0.59834 0.48119 0.24642 0.0
H839 H 0.59041 0.45537 0.22822 0.0
Ho840 Ho 0.45653 0.23964 0.03027 0.0
Ho841 Ho 0.44768 0.24843 1.00697 0.0
C842 C 0.53482 0.34784 0.01867 0.0
C843 C 0.48273 0.23932 0.04955 0.0
C844 C 0.49333 0.26773 0.05958 0.0
C845 C 0.53962 0.28094 0.06489 0.0
C846 C 0.54901 0.30325 0.07481 0.0
C847 C 0.51222 0.31289 0.07973 0.0
C848 C 0.46613 0.30042 0.07432 0.0
C849 C 0.45678 0.27811 0.06435 0.0
C850 C 0.38536 0.26747 0.0241 0.0
C851 C 0.38313 0.13411 0.01764 0.0
C852 C 0.41839 0.25477 0.9883 0.0
C853 C 0.40447 0.23002 0.97787 0.0
C854 C 0.35214 0.19848 0.97494 0.0
C855 C 0.33888 0.18296 0.96457 0.0
C856 C 0.37761 0.19909 0.95686 0.0
C857 C 0.43001 0.22881 0.9599 0.0
C858 C 0.44324 0.2441 0.97024 0.0
C859 C 0.52377 0.22806 1.01242 0.0
O860 O 0.52832 0.31703 0.02664 0.0
O861 O 0.50048 0.3323 1.01104 0.0
O862 O 0.43478 0.21441 0.04618 0.0
O863 O 0.51639 0.26165 0.04205 0.0
O864 O 0.38006 0.23909 0.03214 0.0
O865 O 0.42955 0.28263 0.02027 0.0
O866 O 0.38509 0.16441 1.00987 0.0
O867 O 0.41363 0.15425 0.02588 0.0
O868 O 0.46691 0.27509 0.99118 0.0
O869 O 0.38571 0.23318 0.99603 0.0
O870 O 0.52355 0.25151 1.00396 0.0
O871 O 0.48013 0.20983 1.01685 0.0
H872 H 0.56816 0.27279 0.06145 0.0
H873 H 0.58456 0.31148 0.07876 0.0
H874 H 0.43719 0.30784 0.07778 0.0
H875 H 0.42062 0.26828 0.06047 0.0
H876 H 0.32128 0.18741 0.98059 0.0
H877 H 0.29814 0.15942 0.96256 0.0
H878 H 0.46096 0.24273 0.9542 0.0
H879 H 0.48393 0.26911 0.97215 0.0
Ho880 Ho 0.80718 0.22725 0.03018 0.0
Ho881 Ho 0.79915 0.20962 1.00686 0.0
C882 C 0.69957 0.19829 0.01838 0.0
C883 C 0.80562 0.25293 0.04947 0.0
C884 C 0.77501 0.2343 0.05925 0.0
C885 C 0.75278 0.2624 0.06351 0.0
C886 C 0.72822 0.24913 0.07322 0.0
C887 C 0.72546 0.2075 0.079 0.0
C888 C 0.74697 0.17876 0.07466 0.0
C889 C 0.77145 0.19198 0.06491 0.0
C890 C 0.77887 0.12806 0.024 0.0
C891 C 0.91314 0.25952 0.0177 0.0
C892 C 0.79253 0.17191 0.98839 0.0
C893 C 0.81696 0.17697 0.97812 0.0
C894 C 0.81063 0.13171 0.9733 0.0
C895 C 0.82284 0.13212 0.9628 0.0
C896 C 0.84166 0.1779 0.95687 0.0
C897 C 0.85139 0.22416 0.96188 0.0
C898 C 0.83892 0.22368 0.97242 0.0
C899 C 0.81926 0.30608 1.01233 0.0
O900 O 0.72994 0.22175 0.02646 0.0
O901 O 0.71536 0.18018 1.01065 0.0
O902 O 0.83035 0.22939 0.04622 0.0
O903 O 0.78536 0.26591 0.04183 0.0
O904 O 0.8074 0.15109 0.03203 0.0
O905 O 0.76412 0.15744 0.02015 0.0
O906 O 0.88316 0.23154 1.00985 0.0
O907 O 0.89272 0.26944 0.02597 0.0
O908 O 0.7781 0.20576 0.99076 0.0
O909 O 0.80978 0.15776 0.99641 0.0
O910 O 0.79577 0.28233 1.00386 0.0
O911 O 0.83741 0.28059 1.0168 0.0
H912 H 0.75556 0.29565 0.05942 0.0
H913 H 0.71287 0.27268 0.07635 0.0
H914 H 0.74507 0.14609 0.07881 0.0
H915 H 0.78836 0.16959 0.0619 0.0
H916 H 0.79356 0.09521 0.97752 0.0
H917 H 0.81574 0.09605 0.95921 0.0
H918 H 0.86575 0.26 0.95752 0.0
H919 H 0.84405 0.25916 0.97594 0.0
Ho920 Ho 0.81949 0.59047 0.03024 0.0
Ho921 Ho 0.83673 0.59943 1.00695 0.0
C922 C 0.84902 0.51194 0.01853 0.0
C923 C 0.79331 0.56405 0.04951 0.0
C924 C 0.81128 0.5527 0.05941 0.0
C925 C 0.77714 0.50744 0.0649 0.0
C926 C 0.79068 0.4973 0.07468 0.0
C927 C 0.83882 0.5323 0.07926 0.0
C928 C 0.87341 0.57738 0.07367 0.0
C929 C 0.85982 0.58747 0.06384 0.0
C930 C 0.91834 0.66169 0.02404 0.0
C931 C 0.78693 0.66387 0.01775 0.0
C932 C 0.87257 0.62918 0.9883 0.0
C933 C 0.86283 0.6442 0.9779 0.0
C934 C 0.88688 0.69687 0.97497 0.0
C935 C 0.88594 0.71075 0.96459 0.0
C936 C 0.86143 0.67226 0.95688 0.0
C937 C 0.83539 0.61965 0.95992 0.0
C938 C 0.83614 0.60583 0.97028 0.0
C939 C 0.74041 0.52326 1.01245 0.0
O940 O 0.82517 0.51865 0.02657 0.0
O941 O 0.86739 0.54611 1.01087 0.0
O942 O 0.81696 0.61218 0.04621 0.0
O943 O 0.78114 0.53043 0.04196 0.0
O944 O 0.89529 0.66704 0.03209 0.0
O945 O 0.88927 0.61746 0.0202 0.0
O946 O 0.815 0.66188 1.00992 0.0
O947 O 0.77697 0.63347 0.026 0.0
O948 O 0.84345 0.58056 0.99108 0.0
O949 O 0.88417 0.66166 0.99611 0.0
O950 O 0.76392 0.52345 1.00395 0.0
O951 O 0.76594 0.56696 1.01689 0.0
H952 H 0.73927 0.48031 0.06171 0.0
H953 H 0.76266 0.46264 0.07878 0.0
H954 H 0.91102 0.6049 0.07689 0.0
H955 H 0.88699 0.62276 0.0598 0.0
H956 H 0.90826 0.72741 0.98061 0.0
H957 H 0.90572 0.75168 0.96258 0.0
H958 H 0.81673 0.58881 0.95422 0.0
H959 H 0.81787 0.56482 0.97219 0.0
Ho960 Ho 0.46683 0.93487 0.83888 0.0
Ho961 Ho 0.47227 0.91686 0.86426 0.0
C962 C 0.57834 0.9927 0.85074 0.0
C963 C 0.45251 0.96982 0.82155 0.0
C964 C 0.47149 0.98339 0.81078 0.0
C965 C 0.46325 0.01999 0.80551 0.0
C966 C 0.47387 0.02876 0.79489 0.0
C967 C 0.493 1.00103 0.78929 0.0
C968 C 0.50368 0.96612 0.79469 0.0
C969 C 0.49281 0.9572 0.80536 0.0
C970 C 0.49703 0.86369 0.84337 0.0
C971 C 0.3677 0.84233 0.85102 0.0
C972 C 0.47882 0.88536 0.88267 0.0
C973 C 0.45501 0.87799 0.89312 0.0
C974 C 0.44649 0.83472 0.89905 0.0
C975 C 0.42457 0.82658 0.90899 0.0
C976 C 0.41059 0.86161 0.91329 0.0
C977 C 0.41917 0.90507 0.90731 0.0
C978 C 0.441 0.9131 0.89732 0.0
C979 C 0.43594 0.98398 0.85935 0.0
O980 O 0.55036 0.99291 0.84267 0.0
O981 O 0.5572 0.96335 0.85919 0.0
O982 O 0.42903 0.92024 0.82399 0.0
O983 O 0.48213 1.00046 0.82903 0.0
O984 O 0.49287 0.87731 0.83394 0.0
O985 O 0.48647 0.89041 0.84944 0.0
O986 O 0.39629 0.84732 0.85936 0.0
O987 O 0.38425 0.8768 0.84332 0.0
O988 O 0.50874 0.93335 0.87942 0.0
O989 O 0.44884 0.85406 0.87533 0.0
O990 O 0.44238 0.97255 0.86876 0.0
O991 O 0.44987 0.95914 0.85358 0.0
H992 H 0.44685 0.04061 0.80954 0.0
H993 H 0.46608 0.05657 0.79101 0.0
H994 H 0.51824 0.94406 0.7906 0.0
H995 H 0.49939 0.92866 0.80928 0.0
H996 H 0.4571 0.80718 0.89599 0.0
H997 H 0.41934 0.79312 0.91338 0.0
H998 H 0.40839 0.93256 0.9103 0.0
H999 H 0.44687 0.94667 0.89289 0.0
Ho1000 Ho 0.11223 0.54109 0.83916 0.0
Ho1001 Ho 0.12896 0.56577 0.86446 0.0
C1002 C 0.05516 0.59733 0.85054 0.0
C1003 C 0.07864 0.4946 0.82151 0.0
C1004 C 0.07107 0.50601 0.81062 0.0
C1005 C 1.02057 0.48456 0.80654 0.0
C1006 C 1.01285 0.49 0.79598 0.0
C1007 C 0.05551 0.51657 0.78924 0.0
C1008 C 0.10603 0.53929 0.79339 0.0
C1009 C 0.11375 0.53414 0.80395 0.0
C1010 C 0.18381 0.64238 0.84353 0.0
C1011 C 0.20374 0.53422 0.85151 0.0
C1012 C 0.16025 0.60474 0.88284 0.0
C1013 C 0.16652 0.58888 0.89343 0.0
C1014 C 0.20949 0.62362 0.89942 0.0
C1015 C 0.2164 0.61055 0.90952 0.0
C1016 C 0.18035 0.56227 0.91393 0.0
C1017 C 0.13742 0.52723 0.90785 0.0
C1018 C 0.13059 0.54037 0.89771 0.0
C1019 C 0.0611 0.46207 0.85974 0.0
O1020 O 0.05511 0.56812 0.84266 0.0
O1021 O 0.08339 0.60526 0.85916 0.0
O1022 O 0.12675 0.51386 0.82472 0.0
O1023 O 0.04777 0.49605 0.82866 0.0
O1024 O 0.17088 0.62404 0.83412 0.0
O1025 O 0.15659 0.6056 0.84963 0.0
O1026 O 0.19878 0.55882 0.85971 0.0
O1027 O 0.16898 0.51532 0.84387 0.0
O1028 O 0.1127 0.58776 0.87945 0.0
O1029 O 0.19133 0.60427 0.87566 0.0
O1030 O 0.0729 0.48061 0.86911 0.0
O1031 O 0.08593 0.50039 0.85387 0.0
H1032 H 0.98696 0.4622 0.81146 0.0
H1033 H 0.97343 0.47152 0.79302 0.0
H1034 H 0.13971 0.5605 0.78843 0.0
H1035 H 0.15326 0.55113 0.8068 0.0
H1036 H 0.23788 0.66113 0.89628 0.0
H1037 H 0.25045 0.63821 0.91383 0.0
H1038 H 0.10858 0.48991 0.91097 0.0
H1039 H 0.09713 0.51275 0.89324 0.0
Ho1040 Ho 0.50428 0.57874 0.83878 0.0
Ho1041 Ho 0.48289 0.57412 0.86416 0.0
C1042 C 0.45171 0.46722 0.8507 0.0
C1043 C 0.55031 0.59105 0.82109 0.0
C1044 C 0.54119 0.5701 0.81038 0.0
C1045 C 0.58134 0.56733 0.80521 0.0
C1046 C 0.5765 0.55358 0.79469 0.0
C1047 C 0.53135 0.5424 0.78909 0.0
C1048 C 0.49039 0.54357 0.79439 0.0
C1049 C 0.49521 0.55719 0.80494 0.0
C1050 C 0.40327 0.54881 0.84361 0.0
C1051 C 0.5117 0.67846 0.85088 0.0
C1052 C 0.44525 0.567 0.88265 0.0
C1053 C 0.46136 0.58937 0.89321 0.0
C1054 C 0.42461 0.5916 0.89972 0.0
C1055 C 0.43794 0.61152 0.90983 0.0
C1056 C 0.48853 0.62975 0.91371 0.0
C1057 C 0.52558 0.62798 0.90709 0.0
C1058 C 0.51213 0.60799 0.89695 0.0
C1059 C 0.58626 0.611 0.85907 0.0
O1060 O 0.47911 0.49514 0.84256 0.0
O1061 O 0.44427 0.48865 0.85921 0.0
O1062 O 0.52625 0.61621 0.82384 0.0
O1063 O 0.55227 0.56186 0.82855 0.0
O1064 O 0.42035 0.55269 0.83413 0.0
O1065 O 0.44099 0.55946 0.84953 0.0
O1066 O 0.48848 0.64993 0.85924 0.0
O1067 O 0.52938 0.66171 0.84315 0.0
O1068 O 0.46278 0.53686 0.87923 0.0
O1069 O 0.44489 0.59814 0.87547 0.0
O1070 O 0.56853 0.60492 0.86849 0.0
O1071 O 0.54727 0.5962 0.85331 0.0
H1072 H 0.61728 0.57749 0.80923 0.0
H1073 H 0.60911 0.55378 0.79086 0.0
H1074 H 0.45483 0.53455 0.79036 0.0
H1075 H 0.46354 0.55888 0.80876 0.0
H1076 H 0.3853 0.57776 0.89699 0.0
H1077 H 0.40858 0.61312 0.91456 0.0
H1078 H 0.56477 0.64125 0.90981 0.0
H1079 H 0.54126 0.60681 0.89206 0.0
Ho1080 Ho 0.60684 0.78993 0.02811 0.0
Ho1081 Ho 0.59759 0.79744 1.00477 0.0
C1082 C 0.67114 0.90368 1.01715 0.0
C1083 C 0.63674 0.78507 0.04683 0.0
C1084 C 0.64949 0.80975 0.05727 0.0
C1085 C 0.6999 0.82951 0.0613 0.0
C1086 C 0.71034 0.84373 0.07179 0.0
C1087 C 0.67041 0.83797 0.07853 0.0
C1088 C 0.62055 0.82052 0.07438 0.0
C1089 C 0.61019 0.80663 0.06389 0.0
C1090 C 0.53088 0.81039 0.02262 0.0
C1091 C 0.51961 0.68979 1.01659 0.0
C1092 C 0.57078 0.79537 0.98543 0.0
C1093 C 0.55914 0.76481 0.97562 0.0
C1094 C 0.50913 0.74295 0.97126 0.0
C1095 C 0.49823 0.71864 0.96151 0.0
C1096 C 0.53717 0.71572 0.95578 0.0
C1097 C 0.58708 0.73685 0.96023 0.0
C1098 C 0.59795 0.7611 0.97002 0.0
C1099 C 0.66934 0.77056 1.01107 0.0
O1100 O 0.66944 0.8737 0.02496 0.0
O1101 O 0.64042 0.88316 1.00894 0.0
O1102 O 0.58818 0.76277 0.04387 0.0
O1103 O 0.66938 0.80788 0.03915 0.0
O1104 O 0.53142 0.78769 0.03116 0.0
O1105 O 0.57422 0.828 0.01809 0.0
O1106 O 0.52609 0.72013 1.00854 0.0
O1107 O 0.55387 0.70579 0.02424 0.0
O1108 O 0.61889 0.8203 0.98872 0.0
O1109 O 0.53743 0.77504 0.99305 0.0
O1110 O 0.67443 0.79871 1.003 0.0
O1111 O 0.62502 0.7552 1.01487 0.0
H1112 H 0.73078 0.83166 0.05645 0.0
H1113 H 0.74908 0.8566 0.07474 0.0
H1114 H 0.58909 0.81627 0.07932 0.0
H1115 H 0.57079 0.79137 0.06109 0.0
H1116 H 0.47861 0.74586 0.9753 0.0
H1117 H 0.45957 0.70362 0.95832 0.0
H1118 H 0.61791 0.73482 0.95613 0.0
H1119 H 0.63702 0.77774 0.9731 0.0
Ho1120 Ho 0.25619 0.82863 0.02792 0.0
Ho1121 Ho 0.24786 0.81078 1.00458 0.0
C1122 C 0.14222 0.77891 1.01709 0.0
C1123 C 0.26209 0.86399 0.04663 0.0
C1124 C 0.23793 0.85187 0.05712 0.0
C1125 C 0.20032 0.86528 0.05995 0.0
C1126 C 0.18409 0.86124 0.07032 0.0
C1127 C 0.20544 0.84415 0.07813 0.0
C1128 C 0.24172 0.82912 0.07519 0.0
C1129 C 0.25777 0.83301 0.06486 0.0
C1130 C 0.23587 0.73205 0.02254 0.0
C1131 C 0.35581 0.84104 1.01628 0.0
C1132 C 0.24852 0.78416 0.98531 0.0
C1133 C 0.27805 0.8009 0.97538 0.0
C1134 C 0.29322 0.76795 0.9706 0.0
C1135 C 0.31601 0.77936 0.96072 0.0
C1136 C 0.32407 0.82404 0.95529 0.0
C1137 C 0.31014 0.85786 0.96021 0.0
C1138 C 0.28727 0.84638 0.97013 0.0
C1139 C 0.27525 0.90983 1.01079 0.0
O1140 O 0.17237 0.80738 0.02488 0.0
O1141 O 0.16247 0.76851 1.00886 0.0
O1142 O 0.28431 0.83766 0.04362 0.0
O1143 O 0.23886 0.87358 0.03899 0.0
O1144 O 0.2589 0.75572 0.03103 0.0
O1145 O 0.21795 0.75752 0.01799 0.0
O1146 O 0.32525 0.81671 1.00828 0.0
O1147 O 0.34006 0.85982 0.0239 0.0
O1148 O 0.2249 0.80886 0.98852 0.0
O1149 O 0.26888 0.77129 0.99295 0.0
O1150 O 0.24703 0.88672 1.00273 0.0
O1151 O 0.29042 0.88073 1.0146 0.0
H1152 H 0.18464 0.88049 0.05423 0.0
H1153 H 0.15559 0.87256 0.07226 0.0
H1154 H 0.25984 0.81668 0.08095 0.0
H1155 H 0.28753 0.82325 0.06302 0.0
H1156 H 0.28636 0.73251 0.97443 0.0
H1157 H 0.32703 0.75284 0.9573 0.0
H1158 H 0.31533 0.89241 0.95627 0.0
H1159 H 0.27576 0.87249 0.97356 0.0
Ho1160 Ho 0.21749 0.43761 0.02797 0.0
Ho1161 Ho 0.23596 0.44807 1.00459 0.0
C1162 C 0.26768 0.37371 1.01705 0.0
C1163 C 0.17867 0.40561 0.04632 0.0
C1164 C 0.18235 0.38539 0.05661 0.0
C1165 C 0.13715 0.34396 0.0609 0.0
C1166 C 0.13547 0.33091 0.07139 0.0
C1167 C 0.179 0.35912 0.07785 0.0
C1168 C 0.22543 0.39836 0.07338 0.0
C1169 C 0.22706 0.41154 0.06286 0.0
C1170 C 0.31404 0.51379 0.02272 0.0
C1171 C 0.20664 0.52647 1.01652 0.0
C1172 C 0.26226 0.47592 0.98535 0.0
C1173 C 0.24457 0.489 0.97558 0.0
C1174 C 0.27723 0.53692 0.97072 0.0
C1175 C 0.2643 0.54875 0.96102 0.0
C1176 C 0.21831 0.51281 0.95587 0.0
C1177 C 0.18511 0.46508 0.96083 0.0
C1178 C 0.19805 0.4533 0.97056 0.0
C1179 C 0.13691 0.37707 1.0107 0.0
O1180 O 0.23957 0.37559 0.02489 0.0
O1181 O 0.27781 0.40426 1.00881 0.0
O1182 O 0.21287 0.45391 0.04411 0.0
O1183 O 0.16488 0.37467 0.03822 0.0
O1184 O 0.29016 0.51314 0.0312 0.0
O1185 O 0.28861 0.47053 0.01809 0.0
O1186 O 0.23003 0.51958 1.00842 0.0
O1187 O 0.18857 0.49253 0.02423 0.0
O1188 O 0.23774 0.4275 0.98849 0.0
O1189 O 0.27557 0.50891 0.99306 0.0
O1190 O 0.15995 0.37168 1.00265 0.0
O1191 O 0.16619 0.42119 1.01456 0.0
H1192 H 0.1021 0.32339 0.05627 0.0
H1193 H 0.09937 0.29988 0.07454 0.0
H1194 H 0.2596 0.42095 0.07815 0.0
H1195 H 0.26246 0.44386 0.05978 0.0
H1196 H 0.31362 0.56491 0.97433 0.0
H1197 H 0.29127 0.58554 0.95742 0.0
H1198 H 0.14909 0.43669 0.95717 0.0
H1199 H 0.172 0.41595 0.97407 0.0
Ho1200 Ho 0.24848 0.44809 0.50488 0.0
Ho1201 Ho 0.25628 0.43745 0.52818 0.0
C1202 C 0.3561 0.52498 0.51674 0.0
C1203 C 0.24954 0.47586 0.48567 0.0
C1204 C 0.27826 0.48617 0.47569 0.0
C1205 C 0.29442 0.53372 0.4706 0.0
C1206 C 0.31713 0.54308 0.46072 0.0
C1207 C 0.3242 0.50499 0.45562 0.0
C1208 C 0.30878 0.45759 0.46081 0.0
C1209 C 0.28609 0.44827 0.47073 0.0
C1210 C 0.27547 0.3759 0.51083 0.0
C1211 C 0.14257 0.37439 0.51723 0.0
C1212 C 0.26105 0.4068 0.54683 0.0
C1213 C 0.23639 0.39473 0.55727 0.0
C1214 C 0.21551 0.34418 0.56132 0.0
C1215 C 0.20091 0.33415 0.5718 0.0
C1216 C 0.20744 0.37461 0.57849 0.0
C1217 C 0.22609 0.42467 0.57431 0.0
C1218 C 0.24032 0.43462 0.56383 0.0
C1219 C 0.23729 0.51478 0.52297 0.0
O1220 O 0.32561 0.51941 0.50877 0.0
O1221 O 0.34028 0.48987 0.52423 0.0
O1222 O 0.22327 0.42773 0.48893 0.0
O1223 O 0.2723 0.50896 0.49326 0.0
O1224 O 0.24767 0.37148 0.50276 0.0
O1225 O 0.29056 0.41983 0.51482 0.0
O1226 O 0.17245 0.37536 0.52499 0.0
O1227 O 0.16312 0.40563 0.50911 0.0
O1228 O 0.28446 0.45546 0.54388 0.0
O1229 O 0.23741 0.37436 0.53914 0.0
O1230 O 0.2601 0.51347 0.53144 0.0
O1231 O 0.21878 0.47141 0.51837 0.0
H1232 H 0.28829 0.56336 0.47418 0.0
H1233 H 0.32769 0.57971 0.45696 0.0
H1234 H 0.31417 0.42758 0.45719 0.0
H1235 H 0.27397 0.41112 0.47442 0.0
H1236 H 0.21267 0.31284 0.55651 0.0
H1237 H 0.1871 0.29524 0.57478 0.0
H1238 H 0.23096 0.45654 0.57921 0.0
H1239 H 0.25643 0.47413 0.56101 0.0
Ho1240 Ho 0.59584 0.80924 0.50542 0.0
Ho1241 Ho 0.60654 0.82778 0.52868 0.0
C1242 C 0.51914 0.84078 0.51724 0.0
C1243 C 0.56793 0.78137 0.48625 0.0
C1244 C 0.55787 0.79868 0.47614 0.0
C1245 C 0.51307 0.76431 0.47055 0.0
C1246 C 0.50467 0.77663 0.46051 0.0
C1247 C 0.54102 0.82372 0.45575 0.0
C1248 C 0.58525 0.85892 0.46149 0.0
C1249 C 0.59367 0.84649 0.47157 0.0
C1250 C 0.66803 0.90856 0.5113 0.0
C1251 C 0.67033 0.77759 0.51776 0.0
C1252 C 0.63643 0.86316 0.54736 0.0
C1253 C 0.64876 0.85112 0.55783 0.0
C1254 C 0.69992 0.86502 0.56061 0.0
C1255 C 0.71241 0.86126 0.57097 0.0
C1256 C 0.67415 0.84399 0.57881 0.0
C1257 C 0.62269 0.82838 0.57592 0.0
C1258 C 0.61023 0.83197 0.5656 0.0
C1259 C 0.5302 0.73097 0.52338 0.0
O1260 O 0.52434 0.81512 0.50934 0.0
O1261 O 0.55443 0.85995 0.5247 0.0
O1262 O 0.616 0.80324 0.48952 0.0
O1263 O 0.53495 0.77224 0.49379 0.0
O1264 O 0.67215 0.88488 0.50322 0.0
O1265 O 0.62422 0.87991 0.51533 0.0
O1266 O 0.66919 0.80651 0.52552 0.0
O1267 O 0.6389 0.76669 0.50965 0.0
O1268 O 0.58786 0.83693 0.54441 0.0
O1269 O 0.669 0.87259 0.53968 0.0
O1270 O 0.53078 0.75484 0.53185 0.0
O1271 O 0.5735 0.75647 0.51886 0.0
H1272 H 0.48493 0.72718 0.47388 0.0
H1273 H 0.46968 0.74899 0.45644 0.0
H1274 H 0.61422 0.89539 0.45808 0.0
H1275 H 0.6287 0.87374 0.47568 0.0
H1276 H 0.73068 0.88045 0.55486 0.0
H1277 H 0.75234 0.87302 0.57287 0.0
H1278 H 0.59226 0.81577 0.58171 0.0
H1279 H 0.5706 0.82181 0.56379 0.0
Ho1280 Ho 0.23791 0.79876 0.50415 0.0
Ho1281 Ho 0.21855 0.79427 0.52873 0.0
C1282 C 0.21189 0.69386 0.5171 0.0
C1283 C 0.26781 0.79825 0.48519 0.0
C1284 C 0.25019 0.77087 0.47508 0.0
C1285 C 0.28479 0.76153 0.4693 0.0
C1286 C 0.27126 0.73907 0.4594 0.0
C1287 C 0.22261 0.72531 0.45499 0.0
C1288 C 0.18761 0.73414 0.46087 0.0
C1289 C 0.20121 0.75663 0.47082 0.0
C1290 C 0.13976 0.77308 0.51048 0.0
C1291 C 0.2701 0.90476 0.51692 0.0
C1292 C 0.1722 0.78127 0.5464 0.0
C1293 C 0.17734 0.80188 0.55706 0.0
C1294 C 0.13232 0.79396 0.56221 0.0
C1295 C 0.13357 0.80474 0.57282 0.0
C1296 C 0.17996 0.8237 0.57854 0.0
C1297 C 0.22579 0.83437 0.57324 0.0
C1298 C 0.22446 0.82334 0.56259 0.0
C1299 C 0.32093 0.82928 0.52433 0.0
O1300 O 0.22791 0.71997 0.50822 0.0
O1301 O 0.20029 0.71251 0.52542 0.0
O1302 O 0.24757 0.82639 0.4883 0.0
O1303 O 0.27456 0.77305 0.49281 0.0
O1304 O 0.161 0.79668 0.50186 0.0
O1305 O 0.17002 0.76048 0.51475 0.0
O1306 O 0.23777 0.87585 0.52442 0.0
O1307 O 0.28219 0.88358 0.50905 0.0
O1308 O 0.20111 0.76075 0.54404 0.0
O1309 O 0.16698 0.80737 0.53871 0.0
O1310 O 0.30276 0.82426 0.53372 0.0
O1311 O 0.28354 0.81731 0.51824 0.0
H1312 H 0.32294 0.77258 0.47237 0.0
H1313 H 0.29962 0.73373 0.45509 0.0
H1314 H 0.14959 0.72352 0.4578 0.0
H1315 H 0.1737 0.76335 0.47512 0.0
H1316 H 0.09555 0.77735 0.5581 0.0
H1317 H 0.09779 0.79695 0.57661 0.0
H1318 H 0.2621 0.84882 0.57743 0.0
H1319 H 0.25973 0.82965 0.55879 0.0
Ho1320 Ho 0.12405 0.57291 0.36292 0.0
Ho1321 Ho 0.11485 0.58219 0.33972 0.0
C1322 C 0.20265 0.68178 0.35127 0.0
C1323 C 0.15097 0.57294 0.38217 0.0
C1324 C 0.16151 0.60114 0.39223 0.0
C1325 C 0.20915 0.61704 0.39723 0.0
C1326 C 0.21843 0.63837 0.40725 0.0
C1327 C 0.18015 0.64418 0.41257 0.0
C1328 C 0.13293 0.6297 0.40742 0.0
C1329 C 0.12364 0.60828 0.39737 0.0
C1330 C 0.05304 0.60151 0.35697 0.0
C1331 C 0.05114 0.46684 0.35019 0.0
C1332 C 0.0833 0.5889 0.32133 0.0
C1333 C 0.06363 0.5641 0.3111 0.0
C1334 C 1.02139 0.56615 0.30674 0.0
C1335 C 1.00858 0.55389 0.29627 0.0
C1336 C 0.0379 0.53946 0.28991 0.0
C1337 C 0.07792 0.53382 0.29446 0.0
C1338 C 0.09082 0.54621 0.30496 0.0
C1339 C 0.19115 0.56196 0.34505 0.0
O1340 O 0.19621 0.65067 0.35922 0.0
O1341 O 0.16825 0.66608 0.34366 0.0
O1342 O 0.10296 0.54747 0.37884 0.0
O1343 O 0.18434 0.59562 0.37463 0.0
O1344 O 0.04772 0.57262 0.36492 0.0
O1345 O 0.09714 0.61651 0.35309 0.0
O1346 O 0.05373 0.49751 0.34243 0.0
O1347 O 0.08045 0.48691 0.3586 0.0
O1348 O 0.13168 0.60379 0.32363 0.0
O1349 O 0.05216 0.57149 0.32939 0.0
O1350 O 0.19127 0.58631 0.33668 0.0
O1351 O 0.14742 0.54338 0.34947 0.0
H1352 H 0.23896 0.61182 0.39348 0.0
H1353 H 0.25562 0.64995 0.41086 0.0
H1354 H 0.10241 0.63327 0.41127 0.0
H1355 H 0.08636 0.59618 0.39375 0.0
H1356 H 0.99998 0.58001 0.31129 0.0
H1357 H 0.97695 0.55774 0.29304 0.0
H1358 H 0.10132 0.52293 0.28977 0.0
H1359 H 0.12371 0.54438 0.30812 0.0
Ho1360 Ho 0.47309 0.56004 0.3634 0.0
Ho1361 Ho 0.46468 0.54121 0.3401 0.0
C1362 C 0.36531 0.5298 0.35163 0.0
C1363 C 0.4734 0.58789 0.3826 0.0
C1364 C 0.44618 0.57085 0.39273 0.0
C1365 C 0.43732 0.60603 0.39845 0.0
C1366 C 0.41663 0.5938 0.4085 0.0
C1367 C 0.40433 0.54597 0.41314 0.0
C1368 C 0.41183 0.51002 0.40727 0.0
C1369 C 0.43266 0.52237 0.39718 0.0
C1370 C 0.44555 0.46065 0.35743 0.0
C1371 C 0.5789 0.59253 0.35086 0.0
C1372 C 0.45872 0.50515 0.32146 0.0
C1373 C 0.48301 0.51704 0.31098 0.0
C1374 C 0.52014 0.50293 0.30818 0.0
C1375 C 0.53645 0.5068 0.29782 0.0
C1376 C 0.51564 0.52438 0.29001 0.0
C1377 C 0.47987 0.54013 0.29292 0.0
C1378 C 0.46376 0.53643 0.30324 0.0
C1379 C 0.48387 0.63758 0.34534 0.0
O1380 O 0.39594 0.55454 0.3596 0.0
O1381 O 0.38085 0.51029 0.34412 0.0
O1382 O 0.49917 0.56554 0.3793 0.0
O1383 O 0.44972 0.5974 0.37508 0.0
O1384 O 0.47352 0.48402 0.3655 0.0
O1385 O 0.43057 0.48961 0.35348 0.0
O1386 O 0.54888 0.56361 0.3431 0.0
O1387 O 0.5584 0.6029 0.35905 0.0
O1388 O 0.43655 0.53163 0.3244 0.0
O1389 O 0.48185 0.49572 0.32914 0.0
O1390 O 0.4608 0.61337 0.33689 0.0
O1391 O 0.50247 0.61275 0.3499 0.0
H1392 H 0.44748 0.6437 0.39521 0.0
H1393 H 0.4105 0.62208 0.41267 0.0
H1394 H 0.40311 0.47295 0.41059 0.0
H1395 H 0.4392 0.49448 0.39297 0.0
H1396 H 0.53535 0.48731 0.31392 0.0
H1397 H 0.56456 0.49492 0.29591 0.0
H1398 H 0.46218 0.55296 0.28714 0.0
H1399 H 0.43438 0.54675 0.30505 0.0
Ho1400 Ho 0.48555 0.92243 0.3641 0.0
Ho1401 Ho 0.5034 0.93573 0.33953 0.0
C1402 C 0.51035 0.84245 0.35118 0.0
C1403 C 0.45705 0.89319 0.38316 0.0
C1404 C 0.47501 0.8832 0.39321 0.0
C1405 C 0.44278 0.83641 0.39845 0.0
C1406 C 0.45604 0.82714 0.40833 0.0
C1407 C 0.50198 0.86456 0.41328 0.0
C1408 C 0.53474 0.91124 0.40795 0.0
C1409 C 0.52144 0.92047 0.39801 0.0
C1410 C 0.58361 0.99392 0.35748 0.0
C1411 C 0.45231 0.99535 0.3513 0.0
C1412 C 0.54975 0.96884 0.32187 0.0
C1413 C 0.54594 0.98576 0.31128 0.0
C1414 C 0.59095 0.02609 0.30671 0.0
C1415 C 0.59185 0.03727 0.29614 0.0
C1416 C 0.54769 1.00821 0.28988 0.0
C1417 C 0.50157 0.96979 0.2946 0.0
C1418 C 0.50073 0.95851 0.30521 0.0
C1419 C 0.40126 0.86846 0.34415 0.0
O1420 O 0.49504 0.8532 0.36009 0.0
O1421 O 0.52147 0.87219 0.34281 0.0
O1422 O 0.47776 0.9415 0.38 0.0
O1423 O 0.44887 0.8607 0.37554 0.0
O1424 O 0.56285 0.99729 0.3661 0.0
O1425 O 0.55282 0.9508 0.35336 0.0
O1426 O 0.48407 0.99816 0.34373 0.0
O1427 O 0.44099 0.96281 0.35927 0.0
O1428 O 0.51945 0.91945 0.3241 0.0
O1429 O 0.55622 1.00015 0.32967 0.0
O1430 O 0.41898 0.88121 0.33471 0.0
O1431 O 0.43893 0.89428 0.35016 0.0
H1432 H 0.40652 0.80728 0.39497 0.0
H1433 H 0.42939 0.79111 0.41222 0.0
H1434 H 0.57071 0.94069 0.41145 0.0
H1435 H 0.54712 0.95698 0.39417 0.0
H1436 H 0.62628 0.04754 0.31123 0.0
H1437 H 0.62772 0.06771 0.29279 0.0
H1438 H 0.46696 0.94661 0.28999 0.0
H1439 H 0.46548 0.92709 0.30855 0.0
C1440 C 0.19733 0.137 0.17222 0.0
C1441 C 0.17533 0.15448 0.17976 0.0
H1442 H 0.21777 0.07993 0.16783 0.0
C1443 C 0.15982 0.12799 0.18929 0.0
H1444 H 0.20975 0.15665 0.1648 0.0
C1445 C 0.16387 0.08327 0.19103 0.0
C1446 C 0.18409 0.06456 0.1833 0.0
H1447 H 0.14231 0.14026 0.19519 0.0
H1448 H 0.14956 0.06243 0.19829 0.0
C1449 C 0.20201 0.09292 0.17398 0.0
C1450 C 0.95687 0.0948 0.19203 0.0
C1451 C 0.98381 0.12643 0.18345 0.0
H1452 H 0.894 0.0209 0.19721 0.0
C1453 C 0.96496 0.108 0.17341 0.0
H1454 H 0.97039 0.10783 0.19987 0.0
C1455 C 0.92245 0.05813 0.17192 0.0
C1456 C 0.89668 0.02583 0.18043 0.0
H1457 H 0.98475 0.13096 0.16661 0.0
H1458 H 0.91051 0.0443 0.16405 0.0
C1459 C 0.91313 0.04513 0.19053 0.0
C1460 C 1.00044 0.87927 0.19092 0.0
C1461 C 1.01754 0.87667 0.18087 0.0
H1462 H 0.93913 0.87744 0.2002 0.0
C1463 C 0.98291 0.86412 0.17251 0.0
H1464 H 1.02656 0.88927 0.19748 0.0
C1465 C 0.9328 0.85601 0.17407 0.0
C1466 C 0.91642 0.86176 0.18399 0.0
H1467 H 0.9951 0.86188 0.16468 0.0
H1468 H 0.90794 0.84805 0.16735 0.0
C1469 C 0.95049 0.87262 0.19245 0.0
C1470 C 0.13129 0.16625 0.36247 0.0
C1471 C 0.15636 0.15808 0.35402 0.0
H1472 H 0.0697 0.1782 0.36768 0.0
C1473 C 0.13923 0.15933 0.34391 0.0
H1474 H 0.1437 0.16556 0.37036 0.0
C1475 C 0.09557 0.16537 0.34234 0.0
C1476 C 0.06934 0.17176 0.35087 0.0
H1477 H 0.15774 0.15288 0.33727 0.0
H1478 H 0.08153 0.16364 0.3345 0.0
C1479 C 0.08888 0.17372 0.36091 0.0
C1480 C 0.89052 0.94846 0.34348 0.0
C1481 C 0.8708 0.90981 0.35126 0.0
H1482 H 0.91135 0.02671 0.33924 0.0
C1483 C 0.85309 0.92046 0.36059 0.0
H1484 H 0.90464 0.94177 0.3362 0.0
C1485 C 0.85744 0.96912 0.36231 0.0
C1486 C 0.8789 1.00834 0.35472 0.0
H1487 H 0.83772 0.89194 0.36678 0.0
H1488 H 0.84519 0.97653 0.36974 0.0
C1489 C 0.89424 0.99714 0.34518 0.0
C1490 C 0.06821 0.91115 0.36281 0.0
C1491 C 0.03489 0.88696 0.35434 0.0
H1492 H 0.14229 0.97161 0.36803 0.0
C1493 C 0.05328 0.90427 0.34424 0.0
H1494 H 0.05504 0.89846 0.37068 0.0
C1495 C 0.10321 0.94742 0.3427 0.0
C1496 C 0.13596 0.97268 0.35124 0.0
H1497 H 0.02823 0.88628 0.3376 0.0
H1498 H 0.11565 0.96179 0.33489 0.0
C1499 C 0.11837 0.95296 0.36127 0.0
C1500 C 0.89855 0.91068 0.84546 0.0
C1501 C 0.88256 0.88392 0.85496 0.0
H1502 H 0.90869 0.97625 0.83646 0.0
C1503 C 0.8595 0.90069 0.8624 0.0
H1504 H 0.9169 0.89893 0.83963 0.0
C1505 C 0.85421 0.94433 0.86059 0.0
C1506 C 0.87264 0.97306 0.85133 0.0
H1507 H 0.84667 0.88076 0.86979 0.0
H1508 H 0.83759 0.95672 0.86668 0.0
C1509 C 0.89395 0.95508 0.84367 0.0
C1510 C 0.14086 0.99456 0.8451 0.0
C1511 C 0.16643 1.00499 0.85475 0.0
H1512 H 0.07513 0.9406 0.83597 0.0
C1513 C 0.14706 0.9657 0.86233 0.0
H1514 H 0.15475 0.02421 0.83914 0.0
C1515 C 0.10207 0.91783 0.86052 0.0
C1516 C 0.07452 0.90797 0.8511 0.0
H1517 H 0.16597 0.97251 0.86983 0.0
H1518 H 0.08782 0.88935 0.86672 0.0
C1519 C 0.09515 0.94663 0.84332 0.0
C1520 C 0.06866 0.16413 0.86291 0.0
C1521 C 0.03616 0.15647 0.8544 0.0
H1522 H 0.14133 0.17534 0.86832 0.0
C1523 C 0.05499 0.15763 0.84432 0.0
H1524 H 0.05519 0.16354 0.87077 0.0
C1525 C 0.10462 0.16327 0.84286 0.0
C1526 C 0.13648 0.16913 0.85147 0.0
H1527 H 0.03045 0.15148 0.83763 0.0
H1528 H 0.11737 0.16162 0.83506 0.0
C1529 C 0.11828 0.17103 0.86148 0.0
C1530 C 0.91938 0.86813 0.67255 0.0
C1531 C 0.89641 0.87901 0.681 0.0
H1532 H 0.97924 0.85369 0.66726 0.0
C1533 C 0.91532 0.88014 0.69106 0.0
H1534 H 0.9055 0.86701 0.66471 0.0
C1535 C 0.95879 0.87375 0.69253 0.0
C1536 C 0.98294 0.86467 0.68398 0.0
H1537 H 0.89843 0.88879 0.69769 0.0
H1538 H 0.97435 0.87739 0.70029 0.0
C1539 C 0.96159 0.86031 0.67403 0.0
C1540 C 0.18583 0.11129 0.67374 0.0
C1541 C 0.1832 0.12908 0.68373 0.0
H1542 H 0.17766 0.04776 0.66442 0.0
C1543 C 0.17569 0.09652 0.6923 0.0
H1544 H 0.19116 0.13503 0.66695 0.0
C1545 C 0.16927 0.04658 0.69084 0.0
C1546 C 0.1686 0.02791 0.68077 0.0
H1547 H 0.1734 0.10908 0.7001 0.0
H1548 H 0.16206 0.02168 0.69751 0.0
C1549 C 0.17786 0.0611 0.67227 0.0
C1550 C 0.93366 0.08554 0.67403 0.0
C1551 C 0.91679 0.06442 0.684 0.0
H1552 H 0.99645 0.14113 0.66465 0.0
C1553 C 0.95022 0.08855 0.69251 0.0
H1554 H 0.90923 0.06785 0.66729 0.0
C1555 C 1.00014 0.13176 0.69099 0.0
C1556 C 1.01785 0.15039 0.68092 0.0
H1557 H 0.93838 0.07313 0.70029 0.0
H1558 H 1.02576 0.14864 0.6976 0.0
C1559 C 0.9838 0.12747 0.6725 0.0
C1560 C 0.84215 0.4231 0.52547 0.0
C1561 C 0.84989 0.39802 0.5169 0.0
H1562 H 0.829 0.48473 0.53066 0.0
C1563 C 0.85335 0.41879 0.50693 0.0
H1564 H 0.83922 0.408 0.53325 0.0
C1565 C 0.84609 0.46145 0.50546 0.0
C1566 C 0.83673 0.48551 0.51394 0.0
H1567 H 0.85889 0.4004 0.50015 0.0
H1568 H 0.84656 0.47489 0.49761 0.0
C1569 C 0.83642 0.46704 0.524 0.0
C1570 C 0.58385 0.38075 0.52408 0.0
C1571 C 0.56495 0.36293 0.51402 0.0
H1572 H 0.64295 0.44245 0.53334 0.0
C1573 C 0.58819 0.39674 0.50558 0.0
H1574 H 0.56679 0.35529 0.5307 0.0
C1575 C 0.63055 0.44671 0.50708 0.0
C1576 C 0.65182 0.46373 0.51704 0.0
H1577 H 0.5744 0.384 0.49773 0.0
H1578 H 0.64834 0.47092 0.50032 0.0
C1579 C 0.62747 0.43053 0.52557 0.0
C1580 C 0.60265 0.19424 0.50694 0.0
C1581 C 0.58557 0.19788 0.51693 0.0
H1582 H 0.66548 0.20158 0.49754 0.0
C1583 C 0.61872 0.20651 0.52545 0.0
H1584 H 0.57842 0.18805 0.50018 0.0
C1585 C 0.66854 0.213 0.52393 0.0
C1586 C 0.68641 0.21255 0.51384 0.0
H1587 H 0.6067 0.20963 0.53325 0.0
H1588 H 0.69398 0.2211 0.53055 0.0
C1589 C 0.65269 0.20224 0.5054 0.0
C1590 C 0.80053 0.50139 0.69593 0.0
C1591 C 0.8247 0.49197 0.68749 0.0
H1592 H 0.73985 0.51483 0.70113 0.0
C1593 C 0.80686 0.49211 0.67739 0.0
H1594 H 0.81354 0.50153 0.70381 0.0
C1595 C 0.76339 0.49843 0.67584 0.0
C1596 C 0.73823 0.50631 0.68436 0.0
H1597 H 0.82471 0.48465 0.67077 0.0
H1598 H 0.74874 0.49587 0.66803 0.0
C1599 C 0.75837 0.50923 0.69438 0.0
C1600 C 0.54769 0.27638 0.67578 0.0
C1601 C 0.54012 0.24362 0.68432 0.0
H1602 H 0.56087 0.3512 0.67065 0.0
C1603 C 0.53716 0.26106 0.69433 0.0
H1604 H 0.55023 0.26409 0.66798 0.0
C1605 C 0.54467 0.31102 0.69584 0.0
C1606 C 0.55382 0.34436 0.68738 0.0
H1607 H 0.53176 0.23716 0.7011 0.0
H1608 H 0.54449 0.32405 0.70371 0.0
C1609 C 0.55368 0.32613 0.67729 0.0
C1610 C 0.78591 0.2867 0.69431 0.0
C1611 C 0.80325 0.30726 0.68432 0.0
H1612 H 0.72294 0.23118 0.70367 0.0
C1613 C 0.77033 0.28243 0.67578 0.0
H1614 H 0.80993 0.30495 0.70108 0.0
C1615 C 0.72055 0.2389 0.67727 0.0
C1616 C 0.7024 0.22066 0.68735 0.0
H1617 H 0.78252 0.29741 0.66799 0.0
H1618 H 0.69539 0.22133 0.67063 0.0
C1619 C 0.73589 0.24449 0.69581 0.0
C1620 C 0.56144 0.23918 0.17908 0.0
C1621 C 0.54811 0.21398 0.18876 0.0
H1622 H 0.5693 0.30331 0.16992 0.0
C1623 C 0.52734 0.23208 0.19643 0.0
H1624 H 0.5777 0.22618 0.17304 0.0
C1625 C 0.52183 0.27564 0.19464 0.0
C1626 C 0.53771 0.30279 0.18517 0.0
H1627 H 0.51655 0.21333 0.20397 0.0
H1628 H 0.50718 0.28929 0.20089 0.0
C1629 C 0.55664 0.28341 0.17731 0.0
C1630 C 0.81308 0.30102 0.19626 0.0
C1631 C 0.83392 0.33936 0.18849 0.0
H1632 H 0.75249 0.22546 0.20079 0.0
C1633 C 0.80941 0.32811 0.17872 0.0
H1634 H 0.83111 0.30847 0.20386 0.0
C1635 C 0.76352 0.28035 0.17695 0.0
C1636 C 0.74158 0.24256 0.18488 0.0
H1637 H 0.82443 0.35697 0.1726 0.0
H1638 H 0.74454 0.27366 0.16947 0.0
C1639 C 0.76786 0.25324 0.19447 0.0
C1640 C 0.78526 0.50256 0.19484 0.0
C1641 C 0.80323 0.50081 0.18481 0.0
H1642 H 0.72238 0.49489 0.20423 0.0
C1643 C 0.7711 0.49488 0.17624 0.0
H1644 H 0.80852 0.50688 0.20165 0.0
C1645 C 0.72148 0.48915 0.17777 0.0
C1646 C 0.70289 0.48789 0.18787 0.0
H1647 H 0.7837 0.49336 0.16842 0.0
H1648 H 0.6968 0.48308 0.17111 0.0
C1649 C 0.73563 0.49555 0.19635 0.0
C1650 C 0.62825 0.1938 1.00735 0.0
C1651 C 0.64934 0.19754 1.01731 0.0
H1652 H 0.57242 0.20108 0.99807 0.0
C1653 C 0.62495 0.20605 0.02588 0.0
H1654 H 0.64609 0.18763 1.00056 0.0
C1655 C 0.5815 0.2125 0.02445 0.0
C1656 C 0.56287 0.21205 1.01439 0.0
H1657 H 0.6403 0.20919 0.03365 0.0
H1658 H 0.56441 0.22066 0.0311 0.0
C1659 C 0.58607 0.20171 1.00591 0.0
C1660 C 0.84485 0.39472 1.00589 0.0
C1661 C 0.83504 0.3612 1.01435 0.0
H1662 H 0.85863 0.46888 1.00062 0.0
C1663 C 0.83514 0.3795 0.02443 0.0
H1664 H 0.84507 0.38165 0.99803 0.0
C1665 C 0.84161 0.42944 0.02593 0.0
C1666 C 0.84969 0.46235 1.01739 0.0
H1667 H 0.82746 0.35432 0.03107 0.0
H1668 H 0.8389 0.44173 0.03373 0.0
C1669 C 0.85284 0.44488 1.0074 0.0
C1670 C 0.60152 0.41876 1.00756 0.0
C1671 C 0.58435 0.39799 0.01754 0.0
H1672 H 0.66449 0.47418 0.99818 0.0
C1673 C 0.6175 0.4225 0.02607 0.0
H1674 H 0.57732 0.40078 1.0008 0.0
C1675 C 0.6674 0.46582 0.02456 0.0
C1676 C 0.68539 0.48415 1.01448 0.0
H1677 H 0.60544 0.40737 0.03385 0.0
H1678 H 0.69277 0.48305 0.03119 0.0
C1679 C 0.65163 0.46077 1.00604 0.0
C1680 C 0.49379 0.79588 0.85573 0.0
C1681 C 0.5068 0.82049 0.84598 0.0
H1682 H 0.48496 0.73164 0.86498 0.0
C1683 C 0.52561 0.80069 0.83824 0.0
H1684 H 0.47898 0.81011 0.86181 0.0
C1685 C 0.52962 0.75625 0.84004 0.0
C1686 C 0.51424 0.72982 0.84961 0.0
H1687 H 0.5361 0.81887 0.83065 0.0
H1688 H 0.54295 0.74157 0.83374 0.0
C1689 C 0.49716 0.75081 0.85751 0.0
C1690 C 0.24638 0.73365 0.83834 0.0
C1691 C 0.22655 0.6954 0.84613 0.0
H1692 H 0.30532 0.80994 0.83381 0.0
C1693 C 0.25064 0.70743 0.85592 0.0
H1694 H 0.22851 0.72558 0.83071 0.0
C1695 C 0.29541 0.75596 0.85771 0.0
C1696 C 0.31651 0.79364 0.84976 0.0
H1697 H 0.23629 0.67864 0.86204 0.0
H1698 H 0.31429 0.76329 0.86522 0.0
C1699 C 0.29049 0.78221 0.84014 0.0
C1700 C 0.33996 0.55402 0.85607 0.0
C1701 C 0.35054 0.53913 0.84641 0.0
H1702 H 0.28542 0.56437 0.86533 0.0
C1703 C 0.31102 0.5185 0.83888 0.0
H1704 H 0.36973 0.57035 0.862 0.0
C1705 C 0.26269 0.51446 0.84078 0.0
C1706 C 0.25257 0.53167 0.85024 0.0
H1707 H 0.31789 0.50657 0.83136 0.0
H1708 H 0.23398 0.49964 0.83462 0.0
C1709 C 0.29159 0.55065 0.85796 0.0
C1710 C 0.46841 0.83689 0.02899 0.0
C1711 C 0.49182 0.82639 0.02056 0.0
H1712 H 0.40848 0.85146 0.0342 0.0
C1713 C 0.47369 0.82616 1.01047 0.0
H1714 H 0.4817 0.83739 0.03686 0.0
C1715 C 0.43051 0.83295 1.00894 0.0
C1716 C 0.40594 0.84167 0.01745 0.0
H1717 H 0.49098 0.81795 1.00386 0.0
H1718 H 0.4155 0.82994 1.00114 0.0
C1719 C 0.42653 0.84519 0.02745 0.0
C1720 C 0.21051 0.64367 0.02906 0.0
C1721 C 0.22013 0.67695 0.02057 0.0
H1722 H 0.19709 0.56975 0.03439 0.0
C1723 C 0.21994 0.65847 1.0105 0.0
H1724 H 0.21034 0.65689 0.03691 0.0
C1725 C 0.21362 0.60858 1.00905 0.0
C1726 C 0.20581 0.57595 0.01762 0.0
H1727 H 0.22746 0.68348 1.00384 0.0
H1728 H 0.21624 0.59613 1.00126 0.0
C1729 C 0.2027 0.59357 0.0276 0.0
C1730 C 0.40215 0.57768 0.02925 0.0
C1731 C 0.36907 0.55331 0.02076 0.0
H1732 H 0.47594 0.63849 0.03456 0.0
C1733 C 0.38777 0.5708 1.01068 0.0
H1734 H 0.3888 0.56494 0.03712 0.0
C1735 C 0.43764 0.6142 1.00919 0.0
C1736 C 0.47011 0.63963 0.01776 0.0
H1737 H 0.36298 0.55275 1.00401 0.0
H1738 H 0.45024 0.62863 1.00138 0.0
C1739 C 0.45227 0.61976 0.02777 0.0
C1740 C 0.21689 0.58111 0.52962 0.0
C1741 C 0.22285 0.55515 0.52107 0.0
H1742 H 0.2074 0.64377 0.53508 0.0
C1743 C 0.22023 0.57199 0.511 0.0
H1744 H 0.21858 0.56888 0.53748 0.0
C1745 C 0.21491 0.61622 0.50958 0.0
C1746 C 0.2108 0.64332 0.51821 0.0
H1747 H 0.22492 0.55271 0.50428 0.0
H1748 H 0.21536 0.62991 0.50176 0.0
C1749 C 0.21032 0.62412 0.52822 0.0
C1750 C 0.47448 0.65751 0.5112 0.0
C1751 C 0.49104 0.67594 0.52134 0.0
H1752 H 0.41778 0.59502 0.50172 0.0
C1753 C 0.46639 0.64248 0.52976 0.0
H1754 H 0.49283 0.68264 0.50459 0.0
C1755 C 0.42487 0.59215 0.52814 0.0
C1756 C 0.4059 0.57456 0.51806 0.0
H1757 H 0.47849 0.65567 0.53766 0.0
H1758 H 0.40579 0.56812 0.53486 0.0
C1759 C 0.43161 0.60745 0.50958 0.0
C1760 C 0.46071 0.86216 0.52768 0.0
C1761 C 0.47098 0.84445 0.5183 0.0
H1762 H 0.40539 0.87109 0.53685 0.0
C1763 C 0.43267 0.82605 0.51046 0.0
H1764 H 0.48901 0.87654 0.53391 0.0
C1765 C 0.38462 0.82359 0.51214 0.0
C1766 C 0.37371 0.83878 0.52173 0.0
H1767 H 0.43915 0.81205 0.50314 0.0
H1768 H 0.35526 0.80762 0.50612 0.0
C1769 C 0.41263 0.85899 0.52939 0.0
C1770 C 0.25537 0.53779 0.33864 0.0
C1771 C 0.23045 0.54621 0.34707 0.0
H1772 H 0.31609 0.52421 0.33351 0.0
C1773 C 0.24688 0.54409 0.35721 0.0
H1774 H 0.24342 0.53912 0.33074 0.0
C1775 C 0.28978 0.53691 0.35882 0.0
C1776 C 0.31566 0.52996 0.35032 0.0
H1777 H 0.22837 0.5506 0.36383 0.0
H1778 H 0.30344 0.53803 0.36667 0.0
C1779 C 0.29689 0.52896 0.34024 0.0
C1780 C 0.50473 0.72428 0.33868 0.0
C1781 C 0.49859 0.69245 0.34724 0.0
H1782 H 0.51462 0.79647 0.33322 0.0
C1783 C 0.50132 0.71207 0.35731 0.0
H1784 H 0.50298 0.71023 0.33083 0.0
C1785 C 0.50692 0.76174 0.35873 0.0
C1786 C 0.51118 0.79287 0.35009 0.0
H1787 H 0.4965 0.68813 0.36403 0.0
H1788 H 0.50653 0.77513 0.36655 0.0
C1789 C 0.51156 0.77396 0.34008 0.0
C1790 C 0.29005 0.75269 0.35802 0.0
C1791 C 0.25118 0.7335 0.35029 0.0
H1792 H 0.36798 0.81113 0.36225 0.0
C1793 C 0.26104 0.76222 0.34103 0.0
H1794 H 0.28396 0.73165 0.36524 0.0
C1795 C 0.30911 0.80707 0.33931 0.0
C1796 C 0.34857 0.82514 0.34683 0.0
H1797 H 0.23235 0.74898 0.33487 0.0
H1798 H 0.31589 0.82693 0.33191 0.0
C1799 C 0.33817 0.7983 0.35633 0.0
C1800 C 0.33574 0.3492 0.19032 0.0
C1801 C 0.30325 0.35674 0.1834 0.0
H1802 H 0.41362 0.36738 0.19414 0.0
C1803 C 0.32686 0.39219 0.17515 0.0
H1804 H 0.31923 0.32221 0.19674 0.0
C1805 C 0.38099 0.41822 0.1737 0.0
C1806 C 0.41313 0.40928 0.1804 0.0
H1807 H 0.30345 0.39934 0.16967 0.0
H1808 H 0.39753 0.44447 0.16717 0.0
C1809 C 0.38994 0.37499 0.18881 0.0
C1810 C 0.64301 0.98474 0.16994 0.0
C1811 C 0.6402 1.01687 0.17765 0.0
H1812 H 0.66796 0.9308 0.16572 0.0
C1813 C 0.65988 1.01678 0.18759 0.0
H1814 H 0.6282 0.98384 0.1622 0.0
C1815 C 0.68343 0.98646 0.18963 0.0
C1816 C 0.6873 0.95514 0.1818 0.0
H1817 H 0.65871 0.04144 0.19368 0.0
H1818 H 0.69958 0.98845 0.19727 0.0
C1819 C 0.66582 0.95411 0.17198 0.0
C1820 C 0.10447 0.71793 0.17419 0.0
C1821 C 0.09365 0.74078 0.18274 0.0
H1822 H 0.08564 0.64784 0.16586 0.0
C1823 C 0.055 0.70739 0.18982 0.0
H1824 H 0.13389 0.74203 0.16857 0.0
C1825 C 1.02695 0.65309 0.1882 0.0
C1826 C 0.03699 0.6306 0.17951 0.0
H1827 H 0.04533 0.72329 0.19648 0.0
H1828 H 0.99666 0.62881 0.19366 0.0
C1829 C 0.07673 0.66371 0.17263 0.0
C1830 C 0.36285 0.32736 0.34496 0.0
C1831 C 0.36868 0.29414 0.35197 0.0
H1832 H 0.38235 0.40568 0.34119 0.0
C1833 C 0.40259 0.31682 0.36048 0.0
H1834 H 0.33712 0.31151 0.33833 0.0
C1835 C 0.42877 0.37097 0.36207 0.0
C1836 C 0.42139 0.40382 0.35527 0.0
H1837 H 0.40824 0.29267 0.36604 0.0
H1838 H 0.45377 0.38696 0.3688 0.0
C1839 C 0.3887 0.38144 0.34661 0.0
C1840 C 0.67333 0.06758 0.36155 0.0
C1841 C 0.64018 0.02637 0.35496 0.0
H1842 H 0.75133 0.12611 0.36528 0.0
C1843 C 0.66226 1.01506 0.34636 0.0
H1844 H 0.65774 0.07753 0.36823 0.0
C1845 C 0.71638 0.04327 0.34461 0.0
C1846 C 0.74984 0.08335 0.35144 0.0
H1847 H 0.63785 0.98359 0.34112 0.0
H1848 H 0.73208 0.03255 0.33807 0.0
C1849 C 0.72724 0.0955 0.35985 0.0
C1850 C 0.95066 0.6427 0.36 0.0
C1851 C 0.96206 0.67746 0.35164 0.0
H1852 H 0.96979 0.59125 0.36816 0.0
C1853 C 1.00216 0.68482 0.34475 0.0
H1854 H 0.92013 0.63586 0.36547 0.0
C1855 C 0.03101 0.65952 0.34637 0.0
C1856 C 1.0203 0.62578 0.35486 0.0
H1857 H 1.01232 0.71129 0.33824 0.0
H1858 H 0.06228 0.66701 0.34104 0.0
C1859 C 0.97919 0.61705 0.36155 0.0
C1860 C 0.67718 0.63642 0.86404 0.0
C1861 C 0.64237 0.63302 0.85627 0.0
H1862 H 0.75568 0.66256 0.8685 0.0
C1863 C 0.66272 0.65356 0.84639 0.0
H1864 H 0.66304 0.62103 0.87174 0.0
C1865 C 0.71696 0.67844 0.8445 0.0
C1866 C 0.75192 0.6827 0.85242 0.0
H1867 H 0.63703 0.6519 0.84024 0.0
H1868 H 0.7315 0.69509 0.83691 0.0
C1869 C 0.73074 0.6604 0.86215 0.0
C1870 C 0.36904 0.04689 0.84465 0.0
C1871 C 0.36673 0.07959 0.85237 0.0
H1872 H 0.39337 0.99142 0.84067 0.0
C1873 C 0.39012 0.08222 0.86205 0.0
H1874 H 0.35143 0.04365 0.83712 0.0
C1875 C 0.41331 0.05198 0.86409 0.0
C1876 C 0.41481 0.01865 0.85649 0.0
H1877 H 0.38922 0.10656 0.86824 0.0
H1878 H 0.42957 0.05422 0.87174 0.0
C1879 C 0.3932 1.01703 0.84666 0.0
C1880 C 0.9654 0.31751 0.86286 0.0
C1881 C 0.96603 0.29668 0.85305 0.0
H1882 H 0.99475 0.38519 0.87256 0.0
C1883 C 0.99648 0.33174 0.84514 0.0
H1884 H 0.94276 0.29223 0.86918 0.0
C1885 C 1.02621 0.38584 0.84709 0.0
C1886 C 1.02666 0.40596 0.85703 0.0
H1887 H 0.99812 0.31734 0.83749 0.0
H1888 H 0.05002 0.41162 0.84093 0.0
C1889 C 0.99544 0.37109 0.86482 0.0
C1890 C 0.66621 0.65533 0.68807 0.0
C1891 C 0.63331 0.6331 0.67944 0.0
H1892 H 0.71764 0.72511 0.69641 0.0
C1893 C 0.62545 0.666 0.67274 0.0
H1894 H 0.67295 0.63104 0.6934 0.0
C1895 C 0.65131 0.72006 0.67442 0.0
C1896 C 0.68538 0.74263 0.6829 0.0
H1897 H 0.60026 0.65012 0.66603 0.0
H1898 H 0.64525 0.74426 0.66894 0.0
C1899 C 0.69175 0.70935 0.6898 0.0
C1900 C 0.39143 0.02239 0.68819 0.0
C1901 C 0.41376 1.01147 0.6796 0.0
H1902 H 0.32168 1.00393 0.69653 0.0
C1903 C 0.38109 0.97013 0.67298 0.0
H1904 H 0.41554 0.05388 0.69345 0.0
C1905 C 0.32715 0.9416 0.67469 0.0
C1906 C 0.30446 0.95333 0.68313 0.0
H1907 H 0.39704 0.96059 0.66631 0.0
H1908 H 0.30312 0.91092 0.66927 0.0
C1909 C 0.33754 0.99357 0.68996 0.0
C1910 C 1.02504 0.38025 0.68832 0.0
C1911 C 0.03554 0.41347 0.67976 0.0
H1912 H 0.04358 0.32858 0.6965 0.0
C1913 C 0.07618 0.42161 0.67299 0.0
H1914 H 0.99413 0.37331 0.6937 0.0
C1915 C 0.10441 0.39568 0.67454 0.0
C1916 C 0.0931 0.36134 0.68296 0.0
H1917 H 0.08537 0.44705 0.66633 0.0
H1918 H 0.13455 0.40194 0.66902 0.0
C1919 C 0.05358 0.3547 0.68993 0.0
C1920 C 1.00703 0.69202 0.52336 0.0
C1921 C 0.97364 0.69738 0.5163 0.0
H1922 H 0.08542 0.7115 0.52708 0.0
C1923 C 0.99616 0.7306 0.50771 0.0
H1924 H 0.99133 0.66681 0.53006 0.0
C1925 C 0.05014 0.7564 0.50604 0.0
C1926 C 0.0832 0.7495 0.51288 0.0
H1927 H 0.97197 0.73595 0.50211 0.0
H1928 H 0.06583 0.78076 0.49922 0.0
C1929 C 0.06108 0.71762 0.52165 0.0
C1930 C 0.31899 0.27557 0.50753 0.0
C1931 C 0.35273 0.28657 0.51605 0.0
H1932 H 0.26778 0.2946 0.49926 0.0
C1933 C 0.35821 0.32525 0.52316 0.0
H1934 H 0.31362 0.24606 0.5019 0.0
C1935 C 0.3322 0.35333 0.52158 0.0
C1936 C 0.29969 0.34326 0.51291 0.0
H1937 H 0.38378 0.33494 0.52981 0.0
H1938 H 0.33828 0.38363 0.52707 0.0
C1939 C 0.29264 0.3034 0.50601 0.0
C1940 C 0.69129 0.98879 0.52191 0.0
C1941 C 0.70102 0.96553 0.51331 0.0
H1942 H 0.71069 0.05947 0.53002 0.0
C1943 C 0.74119 0.99763 0.50643 0.0
H1944 H 0.66077 0.96517 0.52738 0.0
C1945 C 0.76973 0.05187 0.50789 0.0
C1946 C 0.75919 0.07544 0.51634 0.0
H1947 H 0.74979 0.98098 0.49974 0.0
H1948 H 0.79951 0.0754 0.50228 0.0
C1949 C 0.7201 0.04296 0.52343 0.0
C1950 C 0.05489 0.71612 0.68013 0.0
C1951 C 0.08809 0.73856 0.68871 0.0
H1952 H 1.00316 0.64617 0.67187 0.0
C1953 C 0.09603 0.70577 0.69543 0.0
H1954 H 0.04806 0.7403 0.67478 0.0
C1955 C 0.07001 0.65164 0.69382 0.0
C1956 C 0.03572 0.62889 0.68537 0.0
H1957 H 0.12142 0.7218 0.70211 0.0
H1958 H 0.07617 0.62755 0.6993 0.0
C1959 C 0.02923 0.66205 0.67845 0.0
C1960 C 0.34023 0.40206 0.69474 0.0
C1961 C 0.30769 0.36103 0.68804 0.0
H1962 H 0.41816 0.46074 0.69862 0.0
C1963 C 0.33028 0.35015 0.67949 0.0
H1964 H 0.32409 0.41155 0.70139 0.0
C1965 C 0.38429 0.37867 0.67784 0.0
C1966 C 0.4172 0.41857 0.68475 0.0
H1967 H 0.30628 0.31893 0.67416 0.0
H1968 H 0.40034 0.36836 0.6713 0.0
C1969 C 0.39427 0.43029 0.69315 0.0
C1970 C 0.64403 0.94905 0.69491 0.0
C1971 C 0.68496 0.95728 0.68823 0.0
H1972 H 0.5855 0.96866 0.69875 0.0
C1973 C 0.69578 0.99052 0.67965 0.0
H1974 H 0.63459 0.92358 0.70157 0.0
C1975 C 0.66733 1.01611 0.67797 0.0
C1976 C 0.62756 1.00944 0.68487 0.0
H1977 H 0.72692 0.99751 0.67433 0.0
H1978 H 0.67761 0.04231 0.67141 0.0
C1979 C 0.61586 0.97497 0.69328 0.0
C1980 C 0.3422 0.95024 0.19413 0.0
C1981 C 0.30993 0.95969 0.18757 0.0
H1982 H 0.4198 0.96903 0.19812 0.0
C1983 C 0.33326 0.99531 0.17935 0.0
H1984 H 0.32566 0.92301 0.20052 0.0
C1985 C 0.3876 0.02166 0.1779 0.0
C1986 C 0.42015 1.01341 0.18468 0.0
H1987 H 0.30957 1.00343 0.17413 0.0
H1988 H 0.40415 0.04953 0.17162 0.0
C1989 C 0.39642 0.97681 0.19274 0.0
C1990 C 0.05808 0.41598 0.19528 0.0
C1991 C 0.03406 0.41256 0.18564 0.0
H1992 H 0.09802 0.38866 0.20499 0.0
C1993 C 0.03583 0.37923 0.178 0.0
H1994 H 0.05763 0.44085 0.20141 0.0
C1995 C 0.06001 0.34946 0.18006 0.0
C1996 C 0.08217 0.35184 0.18986 0.0
H1997 H 1.01774 0.37541 0.1705 0.0
H1998 H 0.05971 0.3233 0.17414 0.0
C1999 C 0.0813 0.38585 0.19737 0.0
C2000 C 0.6167 0.64946 0.19375 0.0
C2001 C 0.62846 0.62599 0.18545 0.0
H2002 H 0.63468 0.72035 0.2017 0.0
C2003 C 0.66791 0.65871 0.17845 0.0
H2004 H 0.58662 0.62577 0.19929 0.0
C2005 C 0.69581 0.71301 0.1799 0.0
C2006 C 0.68477 0.73621 0.18833 0.0
H2007 H 0.67828 0.64232 0.17198 0.0
H2008 H 0.72662 0.73681 0.17449 0.0
C2009 C 0.64428 0.70381 0.19513 0.0
C2010 C 0.33231 0.98888 0.02164 0.0
C2011 C 0.29937 0.9666 1.01301 0.0
H2012 H 0.38389 0.0587 0.02995 0.0
C2013 C 0.2916 0.99951 1.00629 0.0
H2014 H 0.33897 0.9646 0.02699 0.0
C2015 C 0.31762 0.05361 1.00794 0.0
C2016 C 0.35173 0.07621 1.01642 0.0
H2017 H 0.26639 0.9836 0.99959 0.0
H2018 H 0.31165 0.07781 1.00245 0.0
C2019 C 0.35798 0.04293 0.02334 0.0
C2020 C 0.05798 0.35519 0.02158 0.0
C2021 C 0.08032 0.34427 1.01299 0.0
H2022 H 0.9882 0.33679 0.0299 0.0
C2023 C 0.04762 0.30302 1.00635 0.0
H2024 H 0.0821 0.38661 0.02686 0.0
C2025 C 0.99367 0.27459 1.00805 0.0
C2026 C 0.97098 0.28631 1.01649 0.0
H2027 H 0.06357 0.29349 0.99968 0.0
H2028 H 0.96963 0.24398 1.00261 0.0
C2029 C 1.00406 0.32644 0.02334 0.0
C2030 C 0.77139 0.7292 1.00814 0.0
C2031 C 0.76012 0.695 1.01659 0.0
H2032 H 0.75213 0.78019 0.99986 0.0
C2033 C 0.72048 0.68831 0.02353 0.0
H2034 H 0.80162 0.7355 1.00264 0.0
C2035 C 0.69176 0.71365 0.02187 0.0
C2036 C 0.7022 0.74669 1.01327 0.0
H2037 H 0.71051 0.6623 0.03012 0.0
H2038 H 0.66076 0.70668 0.02723 0.0
C2039 C 0.74298 0.75489 1.00654 0.0
C2040 C 0.71424 0.0873 0.84035 0.0
C2041 C 0.74656 0.07818 0.84697 0.0
H2042 H 0.63655 0.06799 0.83633 0.0
C2043 C 0.72337 0.04291 0.85524 0.0
H2044 H 0.73073 0.11427 0.83392 0.0
C2045 C 0.66909 1.01647 0.8567 0.0
C2046 C 0.63648 0.02428 0.84986 0.0
H2047 H 0.74713 0.03508 0.8605 0.0
H2048 H 0.65264 0.98882 0.86302 0.0
C2049 C 0.66004 0.06059 0.84174 0.0
C2050 C 0.97827 0.6529 0.83736 0.0
C2051 C 0.97478 0.68463 0.84506 0.0
H2052 H 1.00479 0.60056 0.83303 0.0
C2053 C 0.9956 0.68556 0.85495 0.0
H2054 H 0.96266 0.65112 0.82966 0.0
C2055 C 1.02083 0.65657 0.85691 0.0
C2056 C 1.02513 0.62548 0.84907 0.0
H2057 H 0.99382 0.70985 0.86105 0.0
H2058 H 0.03766 0.6592 0.86451 0.0
C2059 C 1.00258 0.62366 0.83932 0.0
C2060 C 0.41045 0.33129 0.84012 0.0
C2061 C 0.36985 0.29838 0.84685 0.0
H2062 H 0.4678 0.4093 0.83604 0.0
C2063 C 0.35841 0.32124 0.8553 0.0
H2064 H 0.42052 0.3152 0.83354 0.0
C2065 C 0.38594 0.37572 0.8568 0.0
C2066 C 0.42544 0.40885 0.84984 0.0
H2067 H 0.32743 0.2971 0.86065 0.0
H2068 H 0.37519 0.39192 0.86325 0.0
C2069 C 0.43763 0.38554 0.84156 0.0
C2070 C 0.7371 0.98436 0.02672 0.0
C2071 C 0.70248 0.96163 0.01833 0.0
H2072 H 0.78864 0.05442 0.03502 0.0
C2073 C 0.6956 0.99481 1.01148 0.0
H2074 H 0.74357 0.96027 0.03216 0.0
C2075 C 0.72119 0.04887 1.01319 0.0
C2076 C 0.75467 0.07127 0.02175 0.0
H2077 H 0.66926 0.97892 1.00494 0.0
H2078 H 0.71404 0.07307 1.00791 0.0
C2079 C 0.76302 0.03845 0.02838 0.0
C2080 C 1.00774 0.73549 0.02846 0.0
C2081 C 0.97498 0.69449 0.02178 0.0
H2082 H 0.08581 0.79423 0.03225 0.0
C2083 C 0.99729 0.68373 1.01317 0.0
H2084 H 0.99182 0.74488 0.03516 0.0
C2085 C 0.05123 0.71235 1.01143 0.0
C2086 C 0.08438 0.75223 0.01832 0.0
H2087 H 0.97313 0.65254 1.00785 0.0
H2088 H 0.06704 0.70212 1.00484 0.0
C2089 C 0.06173 0.76382 0.02679 0.0
C2090 C 0.33447 0.34944 1.01141 0.0
C2091 C 0.29441 0.34254 0.01826 0.0
H2092 H 0.39457 0.33139 1.00791 0.0
C2093 C 0.28275 0.30822 0.0267 0.0
H2094 H 0.34475 0.37556 1.00484 0.0
C2095 C 0.31121 0.28268 0.02841 0.0
C2096 C 0.35242 0.29113 0.02179 0.0
H2097 H 0.25219 0.30174 0.03213 0.0
H2098 H 0.30177 0.25732 0.03509 0.0
C2099 C 0.36322 0.32423 1.01318 0.0
C2100 C 0.05187 0.35 0.51141 0.0
C2101 C 0.08472 0.34314 0.51834 0.0
H2102 H 0.9739 0.33154 0.50767 0.0
C2103 C 0.06173 0.30855 0.52673 0.0
H2104 H 0.06797 0.37628 0.50487 0.0
C2105 C 1.00766 0.28267 0.52829 0.0
C2106 C 0.9752 0.29103 0.52157 0.0
H2107 H 0.08558 0.3021 0.53223 0.0
H2108 H 0.99144 0.25708 0.53493 0.0
C2109 C 0.99786 0.32443 0.51302 0.0
C2110 C 0.69547 0.71161 0.51186 0.0
C2111 C 0.70206 0.75126 0.51882 0.0
H2112 H 0.71489 0.65272 0.50799 0.0
C2113 C 0.73706 0.76322 0.52715 0.0
H2114 H 0.66888 0.70109 0.50536 0.0
C2115 C 0.76372 0.7356 0.5286 0.0
C2116 C 0.75577 0.69491 0.52183 0.0
H2117 H 0.74334 0.79345 0.53266 0.0
H2118 H 0.78968 0.74535 0.53519 0.0
C2119 C 0.72179 0.68369 0.51337 0.0
C2120 C 0.33876 0.99532 0.51135 0.0
C2121 C 0.29716 0.96283 0.51795 0.0
H2122 H 0.39956 0.07318 0.50785 0.0
C2123 C 0.28377 0.98635 0.52598 0.0
H2124 H 0.35039 0.97884 0.50509 0.0
C2125 C 0.31193 0.04048 0.52754 0.0
C2126 C 0.35449 0.07263 0.52115 0.0
H2127 H 0.25199 0.96287 0.53122 0.0
H2128 H 0.30105 0.05703 0.53391 0.0
C2129 C 0.36711 0.04949 0.51294 0.0
C2130 C 1.0165 0.37347 0.35643 0.0
C2131 C 1.02083 0.40885 0.3486 0.0
H2132 H 0.99012 0.29335 0.3605 0.0
C2133 C 0.99871 0.38834 0.33883 0.0
H2134 H 0.03306 0.38762 0.36405 0.0
C2135 C 0.97489 0.3348 0.3368 0.0
C2136 C 0.97156 0.29962 0.34449 0.0
H2137 H 1.00108 0.41384 0.33257 0.0
H2138 H 0.95965 0.32099 0.32908 0.0
C2139 C 0.99181 0.31939 0.35441 0.0
C2140 C 0.72362 0.68846 0.35491 0.0
C2141 C 0.7463 0.67808 0.34631 0.0
H2142 H 0.65355 0.66944 0.36318 0.0
C2143 C 0.71385 0.63719 0.33958 0.0
H2144 H 0.74752 0.71956 0.36027 0.0
C2145 C 0.65982 0.60855 0.3412 0.0
C2146 C 0.6368 0.6197 0.34966 0.0
H2147 H 0.73005 0.62808 0.33289 0.0
H2148 H 0.636 0.5782 0.33569 0.0
C2149 C 0.66964 0.65953 0.35659 0.0
C2150 C 0.35493 0.0428 0.35524 0.0
C2151 C 0.36737 0.07828 0.347 0.0
H2152 H 0.37197 0.98927 0.36314 0.0
C2153 C 0.40989 0.08857 0.34061 0.0
H2154 H 0.32251 0.03413 0.36033 0.0
C2155 C 0.4382 0.06278 0.34218 0.0
C2156 C 0.42504 0.02616 0.35025 0.0
H2157 H 0.42065 0.11577 0.33421 0.0
H2158 H 0.46994 0.07098 0.33694 0.0
C2159 C 0.38346 1.01717 0.35686 0.0
C2160 C 0.13007 0.34542 0.09452 0.0
C2161 C 0.17421 0.35081 0.08933 0.0
H2162 H 0.09094 0.33553 0.10901 0.0
C2163 C 0.21376 0.35001 0.09522 0.0
H2164 H 0.0992 0.34662 0.09027 0.0
C2165 C 0.20906 0.3438 0.10606 0.0
C2166 C 0.1651 0.33912 0.11124 0.0
H2167 H 0.24818 0.35395 0.09145 0.0
H2168 H 0.24019 0.3436 0.11042 0.0
C2169 C 0.12563 0.33974 0.10531 0.0
C2170 C 0.64372 0.80983 0.09702 0.0
C2171 C 0.67977 0.8461 0.08995 0.0
H2172 H 0.62658 0.78441 0.11281 0.0
C2173 C 0.72588 0.88818 0.09387 0.0
H2174 H 0.60815 0.77649 0.09427 0.0
C2175 C 0.73631 0.89306 0.10457 0.0
C2176 C 0.70112 0.85569 0.11162 0.0
H2177 H 0.75416 0.91718 0.08866 0.0
H2178 H 0.77234 0.92587 0.10729 0.0
C2179 C 0.65428 0.81448 0.1077 0.0
C2180 C 0.18228 0.89178 0.10399 0.0
C2181 C 0.18177 0.85523 0.11103 0.0
H2182 H 0.1908 0.91747 0.08822 0.0
C2183 C 0.18534 0.81286 0.10708 0.0
H2184 H 0.18041 0.92533 0.10677 0.0
C2185 C 0.1908 0.80801 0.09639 0.0
C2186 C 0.19335 0.84569 0.08937 0.0
H2187 H 0.18439 0.78367 0.11228 0.0
H2188 H 0.19372 0.77501 0.09364 0.0
C2189 C 0.18812 0.88717 0.09332 0.0
C2190 C 0.40241 0.22962 0.43783 0.0
C2191 C 0.36795 0.19228 0.44497 0.0
H2192 H 0.4192 0.25302 0.42187 0.0
C2193 C 0.32129 0.15035 0.44117 0.0
H2194 H 0.43829 0.26294 0.44046 0.0
C2195 C 0.31021 0.145 0.43052 0.0
C2196 C 0.34556 0.18125 0.42336 0.0
H2197 H 0.29418 0.12028 0.44636 0.0
H2198 H 0.27484 0.11113 0.42786 0.0
C2199 C 0.39147 0.22404 0.42716 0.0
C2200 C 0.88174 0.15486 0.43024 0.0
C2201 C 0.87403 0.18707 0.42329 0.0
H2202 H 0.88234 0.13301 0.4461 0.0
C2203 C 0.85781 0.22081 0.42732 0.0
H2204 H 0.89333 0.12772 0.42741 0.0
C2205 C 0.85127 0.22362 0.43803 0.0
C2206 C 0.86087 0.19284 0.44501 0.0
H2207 H 0.85225 0.24677 0.42225 0.0
H2208 H 0.84084 0.25162 0.44087 0.0
C2209 C 0.87536 0.1578 0.44096 0.0
C2210 C 0.80746 0.68691 0.4286 0.0
C2211 C 0.84999 0.69079 0.42301 0.0
H2212 H 0.77144 0.67858 0.4434 0.0
C2213 C 0.8903 0.68957 0.42855 0.0
H2214 H 0.77609 0.68846 0.42462 0.0
C2215 C 0.88768 0.68403 0.43941 0.0
C2216 C 0.84516 0.68052 0.44497 0.0
H2217 H 0.92356 0.6924 0.42447 0.0
H2218 H 0.91917 0.6831 0.44347 0.0
C2219 C 0.80513 0.68195 0.4394 0.0
C2220 C 0.83288 0.6672 0.92788 0.0
C2221 C 0.88069 0.70665 0.92396 0.0
H2222 H 0.78857 0.62647 0.9413 0.0
C2223 C 0.92081 0.73681 0.93102 0.0
H2224 H 0.80096 0.64372 0.92266 0.0
C2225 C 0.91392 0.72673 0.94169 0.0
C2226 C 0.86659 0.68635 0.94562 0.0
H2227 H 0.95839 0.767 0.92827 0.0
H2228 H 0.94657 0.74931 0.94681 0.0
C2229 C 0.82584 0.65731 0.93857 0.0
C2230 C 0.31094 0.1878 0.93096 0.0
C2231 C 0.34305 0.1804 0.92394 0.0
H2232 H 0.29693 0.2002 0.94672 0.0
C2233 C 0.38472 0.17579 0.9279 0.0
H2234 H 0.27899 0.19233 0.92817 0.0
C2235 C 0.39477 0.17976 0.9386 0.0
C2236 C 0.36368 0.18893 0.9456 0.0
H2237 H 0.40977 0.16942 0.92271 0.0
H2238 H 0.42732 0.1762 0.94137 0.0
C2239 C 0.32119 0.19215 0.94163 0.0
C2240 C 0.80909 0.13254 0.92891 0.0
C2241 C 0.85237 0.17082 0.92345 0.0
H2242 H 0.77193 0.10495 0.94362 0.0
C2243 C 0.89278 0.21178 0.92909 0.0
H2244 H 0.77763 0.10004 0.92485 0.0
C2245 C 0.88956 0.21452 0.93994 0.0
C2246 C 0.84631 0.17584 0.94537 0.0
H2247 H 0.9266 0.2419 0.9251 0.0
H2248 H 0.92113 0.24648 0.94409 0.0
C2249 C 0.80615 0.13496 0.93971 0.0
C2250 C 0.7345 0.88803 0.59391 0.0
C2251 C 0.68809 0.84606 0.59003 0.0
H2252 H 0.78031 0.92707 0.6073 0.0
C2253 C 0.65349 0.80841 0.59711 0.0
H2254 H 0.76171 0.91833 0.58877 0.0
C2255 C 0.66399 0.81377 0.6078 0.0
C2256 C 0.7096 0.85663 0.61167 0.0
H2257 H 0.61781 0.77505 0.59442 0.0
H2258 H 0.63613 0.78459 0.61304 0.0
C2259 C 0.74515 0.89316 0.60458 0.0
C2260 C 0.1389 0.78878 0.59588 0.0
C2261 C 0.17926 0.82858 0.59007 0.0
H2262 H 0.10515 0.76132 0.61086 0.0
C2263 C 0.21845 0.87213 0.59536 0.0
H2264 H 0.10847 0.75437 0.59208 0.0
C2265 C 0.21665 0.87606 0.60622 0.0
C2266 C 0.17609 0.83612 0.61201 0.0
H2267 H 0.25002 0.90349 0.5911 0.0
H2268 H 0.24713 0.91015 0.61009 0.0
C2269 C 0.13737 0.79246 0.60669 0.0
C2270 C 0.1558 0.32014 0.5938 0.0
C2271 C 0.19881 0.36555 0.5899 0.0
H2272 H 0.11677 0.27443 0.6072 0.0
C2273 C 0.23542 0.40114 0.59699 0.0
H2274 H 0.12655 0.29225 0.58856 0.0
C2275 C 0.23018 0.39076 0.60767 0.0
C2276 C 0.18798 0.3446 0.61157 0.0
H2277 H 0.26945 0.43614 0.59426 0.0
H2278 H 0.26051 0.41802 0.61281 0.0
C2279 C 0.15031 0.30992 0.60449 0.0
C2280 C 0.0676 0.50472 0.76009 0.0
C2281 C 0.02734 0.51188 0.75617 0.0
H2282 H 0.10769 0.50021 0.77352 0.0
C2283 C 0.99826 0.52357 0.76322 0.0
H2284 H 0.09021 0.49466 0.75497 0.0
C2285 C 1.00802 0.52622 0.77392 0.0
C2286 C 0.04738 0.51769 0.77783 0.0
H2287 H 0.96751 0.53016 0.76049 0.0
H2288 H 0.98454 0.53468 0.77914 0.0
C2289 C 0.07757 0.50773 0.77077 0.0
C2290 C 0.55149 0.49847 0.76252 0.0
C2291 C 0.53308 0.52302 0.75577 0.0
H2292 H 0.56472 0.4846 0.77826 0.0
C2293 C 0.51055 0.55073 0.76012 0.0
H2294 H 0.56955 0.47722 0.75948 0.0
C2295 C 0.50828 0.55542 0.77091 0.0
C2296 C 0.5286 0.53263 0.77765 0.0
H2297 H 0.49546 0.56966 0.75516 0.0
H2298 H 0.49239 0.57866 0.77396 0.0
C2299 C 0.5493 0.50324 0.77331 0.0
C2300 C 0.54711 1.01707 0.76178 0.0
C2301 C 0.50754 1.01776 0.75587 0.0
H2302 H 0.57355 1.01091 0.77699 0.0
C2303 C 0.46338 1.0124 0.76105 0.0
H2304 H 0.58155 0.02099 0.75802 0.0
C2305 C 0.45893 1.00687 0.77183 0.0
C2306 C 0.49843 1.00639 0.77778 0.0
H2307 H 0.43251 1.01353 0.75678 0.0
H2308 H 0.42423 1.0027 0.77553 0.0
C2309 C 0.5424 1.01102 0.77262 0.0
C2310 C 0.51558 0.02181 0.26175 0.0
C2311 C 0.55907 0.02599 0.25647 0.0
H2312 H 0.4776 1.01271 0.27646 0.0
C2313 C 0.59869 0.02509 0.26229 0.0
H2314 H 0.48435 0.02223 0.25748 0.0
C2315 C 0.59494 0.01984 0.27308 0.0
C2316 C 0.55138 1.0152 0.27839 0.0
H2317 H 0.63305 0.02892 0.2585 0.0
H2318 H 0.62596 0.01859 0.27727 0.0
C2319 C 0.51158 1.01606 0.2726 0.0
C2320 C 1.02409 0.57397 0.2732 0.0
C2321 C 0.03012 0.53571 0.27844 0.0
H2322 H 1.01423 0.60274 0.25866 0.0
C2323 C 0.03062 0.49578 0.27259 0.0
H2324 H 1.02432 0.60572 0.27743 0.0
C2325 C 1.02502 0.4942 0.26174 0.0
C2326 C 1.01969 0.53301 0.25653 0.0
H2327 H 0.03511 0.4657 0.27641 0.0
H2328 H 1.02573 0.46318 0.25741 0.0
C2329 C 1.01902 0.57267 0.26241 0.0
C2330 C 0.53606 0.55533 0.26105 0.0
C2331 C 0.53886 0.5125 0.25713 0.0
H2332 H 0.52848 0.59381 0.27448 0.0
C2333 C 0.5378 0.47575 0.26418 0.0
H2334 H 0.53744 0.58467 0.25584 0.0
C2335 C 0.53214 0.48062 0.27485 0.0
C2336 C 0.52767 0.52257 0.27878 0.0
H2337 H 0.53907 0.44186 0.26141 0.0
H2338 H 0.52899 0.45016 0.27996 0.0
C2339 C 0.53082 0.56045 0.27174 0.0
C2340 C 0.03525 0.20626 0.27405 0.0
C2341 C 0.99865 0.15485 0.27692 0.0
H2342 H 0.08668 0.25716 0.26227 0.0
C2343 C 0.98465 0.11507 0.26949 0.0
H2344 H 0.04756 0.2379 0.27956 0.0
C2345 C 1.00729 0.12612 0.25959 0.0
C2346 C 0.04451 0.17733 0.25677 0.0
H2347 H 0.9558 0.07519 0.27129 0.0
H2348 H 0.99529 0.09441 0.2541 0.0
C2349 C 0.05779 0.21735 0.26411 0.0
C2350 C 0.84607 0.80835 0.27092 0.0
C2351 C 0.87118 0.84957 0.27808 0.0
H2352 H 0.81811 0.78512 0.25535 0.0
C2353 C 0.8855 0.90024 0.27475 0.0
H2354 H 0.83505 0.7689 0.27313 0.0
C2355 C 0.87592 0.90955 0.26453 0.0
C2356 C 0.85167 0.86852 0.25731 0.0
H2357 H 0.90394 0.93291 0.28005 0.0
H2358 H 0.88721 0.94907 0.26233 0.0
C2359 C 0.83642 0.81768 0.26068 0.0
C2360 C 0.24174 0.04885 0.27098 0.0
C2361 C 0.20011 0.03425 0.27797 0.0
H2362 H 0.26563 0.04332 0.2555 0.0
C2363 C 0.14937 0.99985 0.27441 0.0
H2364 H 0.2813 0.07575 0.27337 0.0
C2365 C 0.14039 0.98148 0.26415 0.0
C2366 C 0.18185 0.99679 0.25711 0.0
H2367 H 0.11634 0.98674 0.27957 0.0
H2368 H 0.10077 0.95478 0.26177 0.0
C2369 C 0.23274 0.03032 0.2607 0.0
C2370 C 0.98677 0.80878 0.77033 0.0
C2371 C 1.00017 0.85007 0.77736 0.0
H2372 H 0.99538 0.78571 0.75498 0.0
C2373 C 0.03554 0.90103 0.77405 0.0
H2374 H 0.95924 0.76908 0.77255 0.0
C2375 C 0.05628 0.91056 0.76399 0.0
C2376 C 0.04229 0.86946 0.75689 0.0
H2377 H 0.04769 0.93375 0.77929 0.0
H2378 H 0.08386 0.95032 0.76182 0.0
C2379 C 1.00751 0.81834 0.76024 0.0
C2380 C 0.17036 0.13867 0.75966 0.0
C2381 C 0.18533 0.18962 0.75642 0.0
H2382 H 0.16789 0.08903 0.77197 0.0
C2383 C 0.21115 0.23056 0.76361 0.0
H2384 H 0.15138 0.10622 0.75431 0.0
C2385 C 0.22068 0.22064 0.77381 0.0
C2386 C 0.20456 0.16949 0.7771 0.0
H2387 H 0.22274 0.27022 0.76146 0.0
H2388 H 0.23945 0.25295 0.77919 0.0
C2389 C 0.1798 0.12877 0.76983 0.0
C2390 C 0.90518 0.02689 0.77295 0.0
C2391 C 0.86972 0.0374 0.77819 0.0
H2392 H 0.92388 1.00013 0.75902 0.0
C2393 C 0.8246 0.02864 0.77285 0.0
H2394 H 0.94068 0.03375 0.77672 0.0
C2395 C 0.81522 1.00986 0.7626 0.0
C2396 C 0.8508 0.99951 0.75737 0.0
H2397 H 0.79616 0.03584 0.77663 0.0
H2398 H 0.78027 1.00398 0.75874 0.0
C2399 C 0.89588 1.00828 0.76271 0.0
C2400 C 0.65489 0.46311 0.60323 0.0
C2401 C 0.67134 0.50367 0.61056 0.0
H2402 H 0.66027 0.44077 0.58766 0.0
C2403 C 0.70691 0.55474 0.60732 0.0
H2404 H 0.62665 0.42346 0.60534 0.0
C2405 C 0.72626 0.56473 0.59712 0.0
C2406 C 0.71055 0.52394 0.58986 0.0
H2407 H 0.72086 0.58693 0.61275 0.0
H2408 H 0.75467 0.60431 0.59501 0.0
C2409 C 0.67417 0.47308 0.59305 0.0
C2410 C 0.55239 0.23245 0.608 0.0
C2411 C 0.53884 0.18185 0.61123 0.0
H2412 H 0.55376 0.2815 0.59567 0.0
C2413 C 0.51468 0.14091 0.60398 0.0
H2414 H 0.57008 0.26484 0.61339 0.0
C2415 C 0.5053 0.15051 0.59375 0.0
C2416 C 0.51988 0.20134 0.59048 0.0
H2417 H 0.50425 0.10153 0.60612 0.0
H2418 H 0.48777 0.11824 0.58833 0.0
C2419 C 0.54307 0.24204 0.5978 0.0
C2420 C 0.90607 0.36243 0.60581 0.0
C2421 C 0.8701 0.3721 0.61107 0.0
H2422 H 0.92549 0.337 0.59176 0.0
C2423 C 0.82469 0.36264 0.60577 0.0
H2424 H 0.94128 0.36888 0.60965 0.0
C2425 C 0.81547 0.34405 0.59554 0.0
C2426 C 0.85136 0.33429 0.59028 0.0
H2427 H 0.79639 0.37025 0.60949 0.0
H2428 H 0.77973 0.33666 0.59179 0.0
C2429 C 0.89678 0.34368 0.59557 0.0
C2430 C 0.657 0.19876 0.09181 0.0
C2431 C 0.70174 0.19542 0.08964 0.0
H2432 H 0.60163 0.19272 0.1032 0.0
C2433 C 0.72459 0.18218 0.0978 0.0
H2434 H 0.63774 0.20793 0.08571 0.0
C2435 C 0.7039 0.17357 0.10788 0.0
C2436 C 0.65973 0.17791 0.1101 0.0
H2437 H 0.75946 0.17992 0.09647 0.0
H2438 H 0.72347 0.16492 0.114 0.0
C2439 C 0.63629 0.19008 0.10188 0.0
C2440 C 0.84709 0.46064 0.1031 0.0
C2441 C 0.87092 0.50086 0.11049 0.0
H2442 H 0.8194 0.43898 0.08752 0.0
C2443 C 0.88634 0.55208 0.10737 0.0
H2444 H 0.83577 0.4209 0.10512 0.0
C2445 C 0.87693 0.56252 0.09721 0.0
C2446 C 0.85192 0.52201 0.0899 0.0
H2447 H 0.90441 0.584 0.11286 0.0
H2448 H 0.88792 0.60217 0.09518 0.0
C2449 C 0.83773 0.47104 0.09297 0.0
C2450 C 0.4909 0.33487 0.10817 0.0
C2451 C 0.54139 0.37228 0.11135 0.0
H2452 H 0.44215 0.28639 0.09582 0.0
C2453 C 0.58158 0.39138 0.10392 0.0
H2454 H 0.45905 0.31892 0.11368 0.0
C2455 C 0.5719 0.37289 0.09368 0.0
C2456 C 0.52169 0.33465 0.09053 0.0
H2457 H 0.62072 0.42107 0.106 0.0
H2458 H 0.60389 0.38884 0.08821 0.0
C2459 C 0.48119 0.31627 0.0979 0.0
C2460 C 0.40155 0.89413 0.93095 0.0
C2461 C 0.38733 0.85257 0.92395 0.0
H2462 H 0.39373 0.91792 0.94629 0.0
C2463 C 0.35132 0.80188 0.9273 0.0
H2464 H 0.42958 0.93361 0.92871 0.0
C2465 C 0.33077 0.79288 0.93738 0.0
C2466 C 0.34558 0.83426 0.94445 0.0
H2467 H 0.33853 0.76897 0.92209 0.0
H2468 H 0.30271 0.75332 0.93959 0.0
C2469 C 0.38098 0.8851 0.94106 0.0
C2470 C 0.21706 0.57539 0.94269 0.0
C2471 C 0.20609 0.52473 0.94526 0.0
H2472 H 0.21669 0.62664 0.93102 0.0
C2473 C 0.18496 0.48604 0.9375 0.0
H2474 H 0.23247 0.60605 0.94848 0.0
C2475 C 0.17601 0.49793 0.92742 0.0
C2476 C 0.18788 0.54885 0.9248 0.0
H2477 H 0.17665 0.44676 0.93912 0.0
H2478 H 0.16107 0.4674 0.9216 0.0
C2479 C 0.20805 0.58724 0.93263 0.0
C2480 C 0.55085 0.69418 0.92691 0.0
C2481 C 0.50218 0.6505 0.92459 0.0
H2482 H 0.59983 0.74924 0.93843 0.0
C2483 C 0.46602 0.62735 0.93273 0.0
H2484 H 0.57952 0.71351 0.92086 0.0
C2485 C 0.47768 0.64788 0.94282 0.0
C2486 C 0.52591 0.69217 0.94511 0.0
H2487 H 0.42856 0.59304 0.93133 0.0
H2488 H 0.4488 0.62879 0.94885 0.0
C2489 C 0.56255 0.71471 0.93703 0.0
C2490 C 0.3867 0.56412 0.44192 0.0
C2491 C 0.34633 0.5145 0.44485 0.0
H2492 H 0.437 0.61263 0.42981 0.0
C2493 C 0.32624 0.47469 0.4373 0.0
H2494 H 0.40394 0.59553 0.44754 0.0
C2495 C 0.34529 0.48455 0.42708 0.0
C2496 C 0.3849 0.53452 0.42411 0.0
H2497 H 0.29472 0.43615 0.43921 0.0
H2498 H 0.328 0.4533 0.42143 0.0
C2499 C 0.40567 0.57397 0.43172 0.0
C2500 C 0.50402 0.80504 0.42705 0.0
C2501 C 0.51465 0.85506 0.42404 0.0
H2502 H 0.50465 0.75624 0.43923 0.0
C2503 C 0.53573 0.89528 0.43149 0.0
H2504 H 0.48879 0.7733 0.42151 0.0
C2505 C 0.54487 0.88544 0.44172 0.0
C2506 C 0.53309 0.8351 0.44478 0.0
H2507 H 0.54386 0.93415 0.42951 0.0
H2508 H 0.55991 0.91703 0.44731 0.0
C2509 C 0.51308 0.79522 0.43726 0.0
C2510 C 0.18261 0.71756 0.43723 0.0
C2511 C 0.20929 0.70278 0.44426 0.0
H2512 H 0.15313 0.71151 0.42175 0.0
C2513 C 0.22475 0.66741 0.44083 0.0
H2514 H 0.1706 0.74514 0.43953 0.0
C2515 C 0.21489 0.64829 0.43064 0.0
C2516 C 0.1892 0.66384 0.42353 0.0
H2517 H 0.24438 0.65419 0.44605 0.0
H2518 H 0.22712 0.62085 0.42835 0.0
C2519 C 0.17266 0.69832 0.42701 0.0
loop_
_geom_bond_atom_site_label_1
_geom_bond_atom_site_label_2
_geom_bond_distance
_geom_bond_site_symmetry_2
_ccdc_geom_bond_type
Ho0 C3 2.811 . S
Ho0 O20 2.322 . S
Ho0 O22 2.378 . S
Ho0 O23 2.524 . S
Ho0 O24 2.381 . S
Ho0 O25 2.669 . S
Ho0 O27 2.346 . S
Ho0 O31 2.305 . S
Ho1 C12 2.811 . S
Ho1 O21 2.346 . S
Ho1 O25 2.305 . S
Ho1 O26 2.322 . S
Ho1 O28 2.378 . S
Ho1 O29 2.524 . S
Ho1 O30 2.381 . S
Ho1 O31 2.669 . S
C2 O20 1.259 . S
C2 O21 1.268 . S
C3 Ho0 2.811 . S
C3 C4 1.488 . S
C3 O22 1.215 . S
C3 O23 1.289 . S
C4 C3 1.488 . S
C4 C5 1.348 . S
C4 C9 1.413 . S
C5 C4 1.348 . S
C5 C6 1.442 . S
C5 H32 0.930 . S
C6 C5 1.442 . S
C6 C7 1.381 . S
C6 H33 0.931 . S
C7 C6 1.381 . S
C7 C8 1.321 . S
C8 C7 1.321 . S
C8 C9 1.403 . S
C8 H34 0.934 . S
C9 C4 1.413 . S
C9 C8 1.403 . S
C9 H35 0.930 . S
C10 O24 1.275 . S
C10 O25 1.256 . S
C11 O26 1.259 . S
C11 O27 1.268 . S
C12 Ho1 2.811 . S
C12 C13 1.488 . S
C12 O28 1.215 . S
C12 O29 1.289 . S
C13 C12 1.488 . S
C13 C14 1.348 . S
C13 C18 1.413 . S
C14 C13 1.348 . S
C14 C15 1.442 . S
C14 H36 0.930 . S
C15 C14 1.442 . S
C15 C16 1.381 . S
C15 H37 0.931 . S
C16 C15 1.381 . S
C16 C17 1.321 . S
C17 C16 1.321 . S
C17 C18 1.403 . S
C17 H38 0.934 . S
C18 C13 1.413 . S
C18 C17 1.403 . S
C18 H39 0.930 . S
C19 O30 1.275 . S
C19 O31 1.256 . S
O20 Ho0 2.322 . S
O20 C2 1.259 . S
O21 Ho1 2.346 . S
O21 C2 1.268 . S
O22 Ho0 2.378 . S
O22 C3 1.215 . S
O23 Ho0 2.524 . S
O23 C3 1.289 . S
O24 Ho0 2.381 . S
O24 C10 1.275 . S
O25 Ho0 2.669 . S
O25 Ho1 2.305 . S
O25 C10 1.256 . S
O26 Ho1 2.322 . S
O26 C11 1.259 . S
O27 Ho0 2.346 . S
O27 C11 1.268 . S
O28 Ho1 2.378 . S
O28 C12 1.215 . S
O29 Ho1 2.524 . S
O29 C12 1.289 . S
O30 Ho1 2.381 . S
O30 C19 1.275 . S
O31 Ho0 2.305 . S
O31 Ho1 2.669 . S
O31 C19 1.256 . S
H32 C5 0.930 . S
H33 C6 0.931 . S
H34 C8 0.934 . S
H35 C9 0.930 . S
H36 C14 0.930 . S
H37 C15 0.931 . S
H38 C17 0.934 . S
H39 C18 0.930 . S
Ho40 C43 2.811 . S
Ho40 O60 2.322 . S
Ho40 O62 2.378 . S
Ho40 O63 2.524 . S
Ho40 O64 2.381 . S
Ho40 O65 2.669 . S
Ho40 O67 2.346 . S
Ho40 O71 2.305 . S
Ho41 C52 2.811 . S
Ho41 O61 2.346 . S
Ho41 O65 2.305 . S
Ho41 O66 2.322 . S
Ho41 O68 2.378 . S
Ho41 O69 2.524 . S
Ho41 O70 2.381 . S
Ho41 O71 2.669 . S
C42 O60 1.259 . S
C42 O61 1.268 . S
C43 Ho40 2.811 . S
C43 C44 1.488 . S
C43 O62 1.215 . S
C43 O63 1.289 . S
C44 C43 1.488 . S
C44 C45 1.348 . S
C44 C49 1.413 . S
C45 C44 1.348 . S
C45 C46 1.442 . S
C45 H72 0.930 . S
C46 C45 1.442 . S
C46 C47 1.381 . S
C46 H73 0.931 . S
C47 C46 1.381 . S
C47 C48 1.321 . S
C48 C47 1.321 . S
C48 C49 1.403 . S
C48 H74 0.934 . S
C49 C44 1.413 . S
C49 C48 1.403 . S
C49 H75 0.930 . S
C50 O64 1.275 . S
C50 O65 1.256 . S
C51 O66 1.259 . S
C51 O67 1.268 . S
C52 Ho41 2.811 . S
C52 C53 1.488 . S
C52 O68 1.215 . S
C52 O69 1.289 . S
C53 C52 1.488 . S
C53 C54 1.348 . S
C53 C58 1.413 . S
C54 C53 1.348 . S
C54 C55 1.442 . S
C54 H76 0.930 . S
C55 C54 1.442 . S
C55 C56 1.381 . S
C55 H77 0.931 . S
C56 C55 1.381 . S
C56 C57 1.321 . S
C57 C56 1.321 . S
C57 C58 1.403 . S
C57 H78 0.934 . S
C58 C53 1.413 . S
C58 C57 1.403 . S
C58 H79 0.930 . S
C59 O70 1.275 . S
C59 O71 1.256 . S
O60 Ho40 2.322 . S
O60 C42 1.259 . S
O61 Ho41 2.346 . S
O61 C42 1.268 . S
O62 Ho40 2.378 . S
O62 C43 1.215 . S
O63 Ho40 2.524 . S
O63 C43 1.289 . S
O64 Ho40 2.381 . S
O64 C50 1.275 . S
O65 Ho40 2.669 . S
O65 Ho41 2.305 . S
O65 C50 1.256 . S
O66 Ho41 2.322 . S
O66 C51 1.259 . S
O67 Ho40 2.346 . S
O67 C51 1.268 . S
O68 Ho41 2.378 . S
O68 C52 1.215 . S
O69 Ho41 2.524 . S
O69 C52 1.289 . S
O70 Ho41 2.381 . S
O70 C59 1.275 . S
O71 Ho40 2.305 . S
O71 Ho41 2.669 . S
O71 C59 1.256 . S
H72 C45 0.930 . S
H73 C46 0.931 . S
H74 C48 0.934 . S
H75 C49 0.930 . S
H76 C54 0.930 . S
H77 C55 0.931 . S
H78 C57 0.934 . S
H79 C58 0.930 . S
Ho80 C83 2.811 . S
Ho80 O100 2.322 . S
Ho80 O102 2.378 . S
Ho80 O103 2.524 . S
Ho80 O104 2.381 . S
Ho80 O105 2.669 . S
Ho80 O107 2.346 . S
Ho80 O111 2.305 . S
Ho81 C92 2.811 . S
Ho81 O101 2.346 . S
Ho81 O105 2.305 . S
Ho81 O106 2.322 . S
Ho81 O108 2.378 . S
Ho81 O109 2.524 . S
Ho81 O110 2.381 . S
Ho81 O111 2.669 . S
C82 O100 1.259 . S
C82 O101 1.268 . S
C83 Ho80 2.811 . S
C83 C84 1.488 . S
C83 O102 1.215 . S
C83 O103 1.289 . S
C84 C83 1.488 . S
C84 C85 1.348 . S
C84 C89 1.413 . S
C85 C84 1.348 . S
C85 C86 1.442 . S
C85 H112 0.930 . S
C86 C85 1.442 . S
C86 C87 1.381 . S
C86 H113 0.931 . S
C87 C86 1.381 . S
C87 C88 1.321 . S
C88 C87 1.321 . S
C88 C89 1.403 . S
C88 H114 0.934 . S
C89 C84 1.413 . S
C89 C88 1.403 . S
C89 H115 0.930 . S
C90 O104 1.275 . S
C90 O105 1.256 . S
C91 O106 1.259 . S
C91 O107 1.268 . S
C92 Ho81 2.811 . S
C92 C93 1.488 . S
C92 O108 1.215 . S
C92 O109 1.289 . S
C93 C92 1.488 . S
C93 C94 1.348 . S
C93 C98 1.413 . S
C94 C93 1.348 . S
C94 C95 1.442 . S
C94 H116 0.930 . S
C95 C94 1.442 . S
C95 C96 1.381 . S
C95 H117 0.931 . S
C96 C95 1.381 . S
C96 C97 1.321 . S
C97 C96 1.321 . S
C97 C98 1.403 . S
C97 H118 0.934 . S
C98 C93 1.413 . S
C98 C97 1.403 . S
C98 H119 0.930 . S
C99 O110 1.275 . S
C99 O111 1.256 . S
O100 Ho80 2.322 . S
O100 C82 1.259 . S
O101 Ho81 2.346 . S
O101 C82 1.268 . S
O102 Ho80 2.378 . S
O102 C83 1.215 . S
O103 Ho80 2.524 . S
O103 C83 1.289 . S
O104 Ho80 2.381 . S
O104 C90 1.275 . S
O105 Ho80 2.669 . S
O105 Ho81 2.305 . S
O105 C90 1.256 . S
O106 Ho81 2.322 . S
O106 C91 1.259 . S
O107 Ho80 2.346 . S
O107 C91 1.268 . S
O108 Ho81 2.378 . S
O108 C92 1.215 . S
O109 Ho81 2.524 . S
O109 C92 1.289 . S
O110 Ho81 2.381 . S
O110 C99 1.275 . S
O111 Ho80 2.305 . S
O111 Ho81 2.669 . S
O111 C99 1.256 . S
H112 C85 0.930 . S
H113 C86 0.931 . S
H114 C88 0.934 . S
H115 C89 0.930 . S
H116 C94 0.930 . S
H117 C95 0.931 . S
H118 C97 0.934 . S
H119 C98 0.930 . S
Ho120 C123 2.811 . S
Ho120 O140 2.322 . S
Ho120 O142 2.378 . S
Ho120 O143 2.524 . S
Ho120 O144 2.381 . S
Ho120 O145 2.669 . S
Ho120 O147 2.346 . S
Ho120 O151 2.305 . S
Ho121 C132 2.811 . S
Ho121 O141 2.346 . S
Ho121 O145 2.305 . S
Ho121 O146 2.322 . S
Ho121 O148 2.378 . S
Ho121 O149 2.524 . S
Ho121 O150 2.381 . S
Ho121 O151 2.669 . S
C122 O140 1.259 . S
C122 O141 1.268 . S
C123 Ho120 2.811 . S
C123 C124 1.488 . S
C123 O142 1.215 . S
C123 O143 1.289 . S
C124 C123 1.488 . S
C124 C125 1.348 . S
C124 C129 1.413 . S
C125 C124 1.348 . S
C125 C126 1.442 . S
C125 H152 0.930 . S
C126 C125 1.442 . S
C126 C127 1.381 . S
C126 H153 0.931 . S
C127 C126 1.381 . S
C127 C128 1.321 . S
C128 C127 1.321 . S
C128 C129 1.403 . S
C128 H154 0.934 . S
C129 C124 1.413 . S
C129 C128 1.403 . S
C129 H155 0.930 . S
C130 O144 1.275 . S
C130 O145 1.256 . S
C131 O146 1.259 . S
C131 O147 1.268 . S
C132 Ho121 2.811 . S
C132 C133 1.488 . S
C132 O148 1.215 . S
C132 O149 1.289 . S
C133 C132 1.488 . S
C133 C134 1.348 . S
C133 C138 1.413 . S
C134 C133 1.348 . S
C134 C135 1.442 . S
C134 H156 0.930 . S
C135 C134 1.442 . S
C135 C136 1.381 . S
C135 H157 0.931 . S
C136 C135 1.381 . S
C136 C137 1.321 . S
C137 C136 1.321 . S
C137 C138 1.403 . S
C137 H158 0.934 . S
C138 C133 1.413 . S
C138 C137 1.403 . S
C138 H159 0.930 . S
C139 O150 1.275 . S
C139 O151 1.256 . S
O140 Ho120 2.322 . S
O140 C122 1.259 . S
O141 Ho121 2.346 . S
O141 C122 1.268 . S
O142 Ho120 2.378 . S
O142 C123 1.215 . S
O143 Ho120 2.524 . S
O143 C123 1.289 . S
O144 Ho120 2.381 . S
O144 C130 1.275 . S
O145 Ho120 2.669 . S
O145 Ho121 2.305 . S
O145 C130 1.256 . S
O146 Ho121 2.322 . S
O146 C131 1.259 . S
O147 Ho120 2.346 . S
O147 C131 1.268 . S
O148 Ho121 2.378 . S
O148 C132 1.215 . S
O149 Ho121 2.524 . S
O149 C132 1.289 . S
O150 Ho121 2.381 . S
O150 C139 1.275 . S
O151 Ho120 2.305 . S
O151 Ho121 2.669 . S
O151 C139 1.256 . S
H152 C125 0.930 . S
H153 C126 0.931 . S
H154 C128 0.934 . S
H155 C129 0.930 . S
H156 C134 0.930 . S
H157 C135 0.931 . S
H158 C137 0.934 . S
H159 C138 0.930 . S
Ho160 C163 2.811 . S
Ho160 O180 2.322 . S
Ho160 O182 2.378 . S
Ho160 O183 2.524 . S
Ho160 O184 2.381 . S
Ho160 O185 2.669 . S
Ho160 O187 2.346 . S
Ho160 O191 2.305 . S
Ho161 C172 2.811 . S
Ho161 O181 2.346 . S
Ho161 O185 2.305 . S
Ho161 O186 2.322 . S
Ho161 O188 2.378 . S
Ho161 O189 2.524 . S
Ho161 O190 2.381 . S
Ho161 O191 2.669 . S
C162 O180 1.259 . S
C162 O181 1.268 . S
C163 Ho160 2.811 . S
C163 C164 1.488 . S
C163 O182 1.215 . S
C163 O183 1.289 . S
C164 C163 1.488 . S
C164 C165 1.348 . S
C164 C169 1.413 . S
C165 C164 1.348 . S
C165 C166 1.442 . S
C165 H192 0.930 . S
C166 C165 1.442 . S
C166 C167 1.381 . S
C166 H193 0.931 . S
C167 C166 1.381 . S
C167 C168 1.321 . S
C168 C167 1.321 . S
C168 C169 1.403 . S
C168 H194 0.934 . S
C169 C164 1.413 . S
C169 C168 1.403 . S
C169 H195 0.930 . S
C170 O184 1.275 . S
C170 O185 1.256 . S
C171 O186 1.259 . S
C171 O187 1.268 . S
C172 Ho161 2.811 . S
C172 C173 1.488 . S
C172 O188 1.215 . S
C172 O189 1.289 . S
C173 C172 1.488 . S
C173 C174 1.348 . S
C173 C178 1.413 . S
C174 C173 1.348 . S
C174 C175 1.442 . S
C174 H196 0.930 . S
C175 C174 1.442 . S
C175 C176 1.381 . S
C175 H197 0.931 . S
C176 C175 1.381 . S
C176 C177 1.321 . S
C177 C176 1.321 . S
C177 C178 1.403 . S
C177 H198 0.934 . S
C178 C173 1.413 . S
C178 C177 1.403 . S
C178 H199 0.930 . S
C179 O190 1.275 . S
C179 O191 1.256 . S
O180 Ho160 2.322 . S
O180 C162 1.259 . S
O181 Ho161 2.346 . S
O181 C162 1.268 . S
O182 Ho160 2.378 . S
O182 C163 1.215 . S
O183 Ho160 2.524 . S
O183 C163 1.289 . S
O184 Ho160 2.381 . S
O184 C170 1.275 . S
O185 Ho160 2.669 . S
O185 Ho161 2.305 . S
O185 C170 1.256 . S
O186 Ho161 2.322 . S
O186 C171 1.259 . S
O187 Ho160 2.346 . S
O187 C171 1.268 . S
O188 Ho161 2.378 . S
O188 C172 1.215 . S
O189 Ho161 2.524 . S
O189 C172 1.289 . S
O190 Ho161 2.381 . S
O190 C179 1.275 . S
O191 Ho160 2.305 . S
O191 Ho161 2.669 . S
O191 C179 1.256 . S
H192 C165 0.930 . S
H193 C166 0.931 . S
H194 C168 0.934 . S
H195 C169 0.930 . S
H196 C174 0.930 . S
H197 C175 0.931 . S
H198 C177 0.934 . S
H199 C178 0.930 . S
Ho200 C203 2.811 . S
Ho200 O220 2.322 . S
Ho200 O222 2.378 . S
Ho200 O223 2.524 . S
Ho200 O224 2.381 . S
Ho200 O225 2.669 . S
Ho200 O227 2.346 . S
Ho200 O231 2.305 . S
Ho201 C212 2.811 . S
Ho201 O221 2.346 . S
Ho201 O225 2.305 . S
Ho201 O226 2.322 . S
Ho201 O228 2.378 . S
Ho201 O229 2.524 . S
Ho201 O230 2.381 . S
Ho201 O231 2.669 . S
C202 O220 1.259 . S
C202 O221 1.268 . S
C203 Ho200 2.811 . S
C203 C204 1.488 . S
C203 O222 1.215 . S
C203 O223 1.289 . S
C204 C203 1.488 . S
C204 C205 1.348 . S
C204 C209 1.413 . S
C205 C204 1.348 . S
C205 C206 1.442 . S
C205 H232 0.930 . S
C206 C205 1.442 . S
C206 C207 1.381 . S
C206 H233 0.931 . S
C207 C206 1.381 . S
C207 C208 1.321 . S
C208 C207 1.321 . S
C208 C209 1.403 . S
C208 H234 0.934 . S
C209 C204 1.413 . S
C209 C208 1.403 . S
C209 H235 0.930 . S
C210 O224 1.275 . S
C210 O225 1.256 . S
C211 O226 1.259 . S
C211 O227 1.268 . S
C212 Ho201 2.811 . S
C212 C213 1.488 . S
C212 O228 1.215 . S
C212 O229 1.289 . S
C213 C212 1.488 . S
C213 C214 1.348 . S
C213 C218 1.413 . S
C214 C213 1.348 . S
C214 C215 1.442 . S
C214 H236 0.930 . S
C215 C214 1.442 . S
C215 C216 1.381 . S
C215 H237 0.931 . S
C216 C215 1.381 . S
C216 C217 1.321 . S
C217 C216 1.321 . S
C217 C218 1.403 . S
C217 H238 0.934 . S
C218 C213 1.413 . S
C218 C217 1.403 . S
C218 H239 0.930 . S
C219 O230 1.275 . S
C219 O231 1.256 . S
O220 Ho200 2.322 . S
O220 C202 1.259 . S
O221 Ho201 2.346 . S
O221 C202 1.268 . S
O222 Ho200 2.378 . S
O222 C203 1.215 . S
O223 Ho200 2.524 . S
O223 C203 1.289 . S
O224 Ho200 2.381 . S
O224 C210 1.275 . S
O225 Ho200 2.669 . S
O225 Ho201 2.305 . S
O225 C210 1.256 . S
O226 Ho201 2.322 . S
O226 C211 1.259 . S
O227 Ho200 2.346 . S
O227 C211 1.268 . S
O228 Ho201 2.378 . S
O228 C212 1.215 . S
O229 Ho201 2.524 . S
O229 C212 1.289 . S
O230 Ho201 2.381 . S
O230 C219 1.275 . S
O231 Ho200 2.305 . S
O231 Ho201 2.669 . S
O231 C219 1.256 . S
H232 C205 0.930 . S
H233 C206 0.931 . S
H234 C208 0.934 . S
H235 C209 0.930 . S
H236 C214 0.930 . S
H237 C215 0.931 . S
H238 C217 0.934 . S
H239 C218 0.930 . S
Ho240 C243 2.811 . S
Ho240 O260 2.322 . S
Ho240 O262 2.378 . S
Ho240 O263 2.524 . S
Ho240 O264 2.381 . S
Ho240 O265 2.669 . S
Ho240 O267 2.346 . S
Ho240 O271 2.305 . S
Ho241 C252 2.811 . S
Ho241 O261 2.346 . S
Ho241 O265 2.305 . S
Ho241 O266 2.322 . S
Ho241 O268 2.378 . S
Ho241 O269 2.524 . S
Ho241 O270 2.381 . S
Ho241 O271 2.669 . S
C242 O260 1.259 . S
C242 O261 1.268 . S
C243 Ho240 2.811 . S
C243 C244 1.488 . S
C243 O262 1.215 . S
C243 O263 1.289 . S
C244 C243 1.488 . S
C244 C245 1.348 . S
C244 C249 1.413 . S
C245 C244 1.348 . S
C245 C246 1.442 . S
C245 H272 0.930 . S
C246 C245 1.442 . S
C246 C247 1.381 . S
C246 H273 0.931 . S
C247 C246 1.381 . S
C247 C248 1.321 . S
C248 C247 1.321 . S
C248 C249 1.403 . S
C248 H274 0.934 . S
C249 C244 1.413 . S
C249 C248 1.403 . S
C249 H275 0.930 . S
C250 O264 1.275 . S
C250 O265 1.256 . S
C251 O266 1.259 . S
C251 O267 1.268 . S
C252 Ho241 2.811 . S
C252 C253 1.488 . S
C252 O268 1.215 . S
C252 O269 1.289 . S
C253 C252 1.488 . S
C253 C254 1.348 . S
C253 C258 1.413 . S
C254 C253 1.348 . S
C254 C255 1.442 . S
C254 H276 0.930 . S
C255 C254 1.442 . S
C255 C256 1.381 . S
C255 H277 0.931 . S
C256 C255 1.381 . S
C256 C257 1.321 . S
C257 C256 1.321 . S
C257 C258 1.403 . S
C257 H278 0.934 . S
C258 C253 1.413 . S
C258 C257 1.403 . S
C258 H279 0.930 . S
C259 O270 1.275 . S
C259 O271 1.256 . S
O260 Ho240 2.322 . S
O260 C242 1.259 . S
O261 Ho241 2.346 . S
O261 C242 1.268 . S
O262 Ho240 2.378 . S
O262 C243 1.215 . S
O263 Ho240 2.524 . S
O263 C243 1.289 . S
O264 Ho240 2.381 . S
O264 C250 1.275 . S
O265 Ho240 2.669 . S
O265 Ho241 2.305 . S
O265 C250 1.256 . S
O266 Ho241 2.322 . S
O266 C251 1.259 . S
O267 Ho240 2.346 . S
O267 C251 1.268 . S
O268 Ho241 2.378 . S
O268 C252 1.215 . S
O269 Ho241 2.524 . S
O269 C252 1.289 . S
O270 Ho241 2.381 . S
O270 C259 1.275 . S
O271 Ho240 2.305 . S
O271 Ho241 2.669 . S
O271 C259 1.256 . S
H272 C245 0.930 . S
H273 C246 0.931 . S
H274 C248 0.934 . S
H275 C249 0.930 . S
H276 C254 0.930 . S
H277 C255 0.931 . S
H278 C257 0.934 . S
H279 C258 0.930 . S
Ho280 C283 2.811 . S
Ho280 O300 2.322 . S
Ho280 O302 2.378 . S
Ho280 O303 2.524 . S
Ho280 O304 2.381 . S
Ho280 O305 2.669 . S
Ho280 O307 2.346 . S
Ho280 O311 2.305 . S
Ho281 C292 2.811 . S
Ho281 O301 2.346 . S
Ho281 O305 2.305 . S
Ho281 O306 2.322 . S
Ho281 O308 2.378 . S
Ho281 O309 2.524 . S
Ho281 O310 2.381 . S
Ho281 O311 2.669 . S
C282 O300 1.259 . S
C282 O301 1.268 . S
C283 Ho280 2.811 . S
C283 C284 1.488 . S
C283 O302 1.215 . S
C283 O303 1.289 . S
C284 C283 1.488 . S
C284 C285 1.348 . S
C284 C289 1.413 . S
C285 C284 1.348 . S
C285 C286 1.442 . S
C285 H312 0.930 . S
C286 C285 1.442 . S
C286 C287 1.381 . S
C286 H313 0.931 . S
C287 C286 1.381 . S
C287 C288 1.321 . S
C288 C287 1.321 . S
C288 C289 1.403 . S
C288 H314 0.934 . S
C289 C284 1.413 . S
C289 C288 1.403 . S
C289 H315 0.930 . S
C290 O304 1.275 . S
C290 O305 1.256 . S
C291 O306 1.259 . S
C291 O307 1.268 . S
C292 Ho281 2.811 . S
C292 C293 1.488 . S
C292 O308 1.215 . S
C292 O309 1.289 . S
C293 C292 1.488 . S
C293 C294 1.348 . S
C293 C298 1.413 . S
C294 C293 1.348 . S
C294 C295 1.442 . S
C294 H316 0.930 . S
C295 C294 1.442 . S
C295 C296 1.381 . S
C295 H317 0.931 . S
C296 C295 1.381 . S
C296 C297 1.321 . S
C297 C296 1.321 . S
C297 C298 1.403 . S
C297 H318 0.934 . S
C298 C293 1.413 . S
C298 C297 1.403 . S
C298 H319 0.930 . S
C299 O310 1.275 . S
C299 O311 1.256 . S
O300 Ho280 2.322 . S
O300 C282 1.259 . S
O301 Ho281 2.346 . S
O301 C282 1.268 . S
O302 Ho280 2.378 . S
O302 C283 1.215 . S
O303 Ho280 2.524 . S
O303 C283 1.289 . S
O304 Ho280 2.381 . S
O304 C290 1.275 . S
O305 Ho280 2.669 . S
O305 Ho281 2.305 . S
O305 C290 1.256 . S
O306 Ho281 2.322 . S
O306 C291 1.259 . S
O307 Ho280 2.346 . S
O307 C291 1.268 . S
O308 Ho281 2.378 . S
O308 C292 1.215 . S
O309 Ho281 2.524 . S
O309 C292 1.289 . S
O310 Ho281 2.381 . S
O310 C299 1.275 . S
O311 Ho280 2.305 . S
O311 Ho281 2.669 . S
O311 C299 1.256 . S
H312 C285 0.930 . S
H313 C286 0.931 . S
H314 C288 0.934 . S
H315 C289 0.930 . S
H316 C294 0.930 . S
H317 C295 0.931 . S
H318 C297 0.934 . S
H319 C298 0.930 . S
Ho320 C323 2.811 . S
Ho320 O340 2.322 . S
Ho320 O342 2.378 . S
Ho320 O343 2.524 . S
Ho320 O344 2.381 . S
Ho320 O345 2.669 . S
Ho320 O347 2.346 . S
Ho320 O351 2.305 . S
Ho321 C332 2.811 . S
Ho321 O341 2.346 . S
Ho321 O345 2.305 . S
Ho321 O346 2.322 . S
Ho321 O348 2.378 . S
Ho321 O349 2.524 . S
Ho321 O350 2.381 . S
Ho321 O351 2.669 . S
C322 O340 1.259 . S
C322 O341 1.268 . S
C323 Ho320 2.811 . S
C323 C324 1.488 . S
C323 O342 1.215 . S
C323 O343 1.289 . S
C324 C323 1.488 . S
C324 C325 1.348 . S
C324 C329 1.413 . S
C325 C324 1.348 . S
C325 C326 1.442 . S
C325 H352 0.930 . S
C326 C325 1.442 . S
C326 C327 1.381 . S
C326 H353 0.931 . S
C327 C326 1.381 . S
C327 C328 1.321 . S
C328 C327 1.321 . S
C328 C329 1.403 . S
C328 H354 0.934 . S
C329 C324 1.413 . S
C329 C328 1.403 . S
C329 H355 0.930 . S
C330 O344 1.275 . S
C330 O345 1.256 . S
C331 O346 1.259 . S
C331 O347 1.268 . S
C332 Ho321 2.811 . S
C332 C333 1.488 . S
C332 O348 1.215 . S
C332 O349 1.289 . S
C333 C332 1.488 . S
C333 C334 1.348 . S
C333 C338 1.413 . S
C334 C333 1.348 . S
C334 C335 1.442 . S
C334 H356 0.930 . S
C335 C334 1.442 . S
C335 C336 1.381 . S
C335 H357 0.931 . S
C336 C335 1.381 . S
C336 C337 1.321 . S
C337 C336 1.321 . S
C337 C338 1.403 . S
C337 H358 0.934 . S
C338 C333 1.413 . S
C338 C337 1.403 . S
C338 H359 0.930 . S
C339 O350 1.275 . S
C339 O351 1.256 . S
O340 Ho320 2.322 . S
O340 C322 1.259 . S
O341 Ho321 2.346 . S
O341 C322 1.268 . S
O342 Ho320 2.378 . S
O342 C323 1.215 . S
O343 Ho320 2.524 . S
O343 C323 1.289 . S
O344 Ho320 2.381 . S
O344 C330 1.275 . S
O345 Ho320 2.669 . S
O345 Ho321 2.305 . S
O345 C330 1.256 . S
O346 Ho321 2.322 . S
O346 C331 1.259 . S
O347 Ho320 2.346 . S
O347 C331 1.268 . S
O348 Ho321 2.378 . S
O348 C332 1.215 . S
O349 Ho321 2.524 . S
O349 C332 1.289 . S
O350 Ho321 2.381 . S
O350 C339 1.275 . S
O351 Ho320 2.305 . S
O351 Ho321 2.669 . S
O351 C339 1.256 . S
H352 C325 0.930 . S
H353 C326 0.931 . S
H354 C328 0.934 . S
H355 C329 0.930 . S
H356 C334 0.930 . S
H357 C335 0.931 . S
H358 C337 0.934 . S
H359 C338 0.930 . S
Ho360 C363 2.811 . S
Ho360 O380 2.322 . S
Ho360 O382 2.378 . S
Ho360 O383 2.524 . S
Ho360 O384 2.381 . S
Ho360 O385 2.669 . S
Ho360 O387 2.346 . S
Ho360 O391 2.305 . S
Ho361 C372 2.811 . S
Ho361 O381 2.346 . S
Ho361 O385 2.305 . S
Ho361 O386 2.322 . S
Ho361 O388 2.378 . S
Ho361 O389 2.524 . S
Ho361 O390 2.381 . S
Ho361 O391 2.669 . S
C362 O380 1.259 . S
C362 O381 1.268 . S
C363 Ho360 2.811 . S
C363 C364 1.488 . S
C363 O382 1.215 . S
C363 O383 1.289 . S
C364 C363 1.488 . S
C364 C365 1.348 . S
C364 C369 1.413 . S
C365 C364 1.348 . S
C365 C366 1.442 . S
C365 H392 0.930 . S
C366 C365 1.442 . S
C366 C367 1.381 . S
C366 H393 0.931 . S
C367 C366 1.381 . S
C367 C368 1.321 . S
C368 C367 1.321 . S
C368 C369 1.403 . S
C368 H394 0.934 . S
C369 C364 1.413 . S
C369 C368 1.403 . S
C369 H395 0.930 . S
C370 O384 1.275 . S
C370 O385 1.256 . S
C371 O386 1.259 . S
C371 O387 1.268 . S
C372 Ho361 2.811 . S
C372 C373 1.488 . S
C372 O388 1.215 . S
C372 O389 1.289 . S
C373 C372 1.488 . S
C373 C374 1.348 . S
C373 C378 1.413 . S
C374 C373 1.348 . S
C374 C375 1.442 . S
C374 H396 0.930 . S
C375 C374 1.442 . S
C375 C376 1.381 . S
C375 H397 0.931 . S
C376 C375 1.381 . S
C376 C377 1.321 . S
C377 C376 1.321 . S
C377 C378 1.403 . S
C377 H398 0.934 . S
C378 C373 1.413 . S
C378 C377 1.403 . S
C378 H399 0.930 . S
C379 O390 1.275 . S
C379 O391 1.256 . S
O380 Ho360 2.322 . S
O380 C362 1.259 . S
O381 Ho361 2.346 . S
O381 C362 1.268 . S
O382 Ho360 2.378 . S
O382 C363 1.215 . S
O383 Ho360 2.524 . S
O383 C363 1.289 . S
O384 Ho360 2.381 . S
O384 C370 1.275 . S
O385 Ho360 2.669 . S
O385 Ho361 2.305 . S
O385 C370 1.256 . S
O386 Ho361 2.322 . S
O386 C371 1.259 . S
O387 Ho360 2.346 . S
O387 C371 1.268 . S
O388 Ho361 2.378 . S
O388 C372 1.215 . S
O389 Ho361 2.524 . S
O389 C372 1.289 . S
O390 Ho361 2.381 . S
O390 C379 1.275 . S
O391 Ho360 2.305 . S
O391 Ho361 2.669 . S
O391 C379 1.256 . S
H392 C365 0.930 . S
H393 C366 0.931 . S
H394 C368 0.934 . S
H395 C369 0.930 . S
H396 C374 0.930 . S
H397 C375 0.931 . S
H398 C377 0.934 . S
H399 C378 0.930 . S
Ho400 C403 2.811 . S
Ho400 O420 2.322 . S
Ho400 O422 2.378 . S
Ho400 O423 2.524 . S
Ho400 O424 2.381 . S
Ho400 O425 2.669 . S
Ho400 O427 2.346 . S
Ho400 O431 2.305 . S
Ho401 C412 2.811 . S
Ho401 O421 2.346 . S
Ho401 O425 2.305 . S
Ho401 O426 2.322 . S
Ho401 O428 2.378 . S
Ho401 O429 2.524 . S
Ho401 O430 2.381 . S
Ho401 O431 2.669 . S
C402 O420 1.259 . S
C402 O421 1.268 . S
C403 Ho400 2.811 . S
C403 C404 1.488 . S
C403 O422 1.215 . S
C403 O423 1.289 . S
C404 C403 1.488 . S
C404 C405 1.348 . S
C404 C409 1.413 . S
C405 C404 1.348 . S
C405 C406 1.442 . S
C405 H432 0.930 . S
C406 C405 1.442 . S
C406 C407 1.381 . S
C406 H433 0.931 . S
C407 C406 1.381 . S
C407 C408 1.321 . S
C408 C407 1.321 . S
C408 C409 1.403 . S
C408 H434 0.934 . S
C409 C404 1.413 . S
C409 C408 1.403 . S
C409 H435 0.930 . S
C410 O424 1.275 . S
C410 O425 1.256 . S
C411 O426 1.259 . S
C411 O427 1.268 . S
C412 Ho401 2.811 . S
C412 C413 1.488 . S
C412 O428 1.215 . S
C412 O429 1.289 . S
C413 C412 1.488 . S
C413 C414 1.348 . S
C413 C418 1.413 . S
C414 C413 1.348 . S
C414 C415 1.442 . S
C414 H436 0.930 . S
C415 C414 1.442 . S
C415 C416 1.381 . S
C415 H437 0.931 . S
C416 C415 1.381 . S
C416 C417 1.321 . S
C417 C416 1.321 . S
C417 C418 1.403 . S
C417 H438 0.934 . S
C418 C413 1.413 . S
C418 C417 1.403 . S
C418 H439 0.930 . S
C419 O430 1.275 . S
C419 O431 1.256 . S
O420 Ho400 2.322 . S
O420 C402 1.259 . S
O421 Ho401 2.346 . S
O421 C402 1.268 . S
O422 Ho400 2.378 . S
O422 C403 1.215 . S
O423 Ho400 2.524 . S
O423 C403 1.289 . S
O424 Ho400 2.381 . S
O424 C410 1.275 . S
O425 Ho400 2.669 . S
O425 Ho401 2.305 . S
O425 C410 1.256 . S
O426 Ho401 2.322 . S
O426 C411 1.259 . S
O427 Ho400 2.346 . S
O427 C411 1.268 . S
O428 Ho401 2.378 . S
O428 C412 1.215 . S
O429 Ho401 2.524 . S
O429 C412 1.289 . S
O430 Ho401 2.381 . S
O430 C419 1.275 . S
O431 Ho400 2.305 . S
O431 Ho401 2.669 . S
O431 C419 1.256 . S
H432 C405 0.930 . S
H433 C406 0.931 . S
H434 C408 0.934 . S
H435 C409 0.930 . S
H436 C414 0.930 . S
H437 C415 0.931 . S
H438 C417 0.934 . S
H439 C418 0.930 . S
Ho440 C443 2.811 . S
Ho440 O460 2.322 . S
Ho440 O462 2.378 . S
Ho440 O463 2.524 . S
Ho440 O464 2.381 . S
Ho440 O465 2.669 . S
Ho440 O467 2.346 . S
Ho440 O471 2.305 . S
Ho441 C452 2.811 . S
Ho441 O461 2.346 . S
Ho441 O465 2.305 . S
Ho441 O466 2.322 . S
Ho441 O468 2.378 . S
Ho441 O469 2.524 . S
Ho441 O470 2.381 . S
Ho441 O471 2.669 . S
C442 O460 1.259 . S
C442 O461 1.268 . S
C443 Ho440 2.811 . S
C443 C444 1.488 . S
C443 O462 1.215 . S
C443 O463 1.289 . S
C444 C443 1.488 . S
C444 C445 1.348 . S
C444 C449 1.413 . S
C445 C444 1.348 . S
C445 C446 1.442 . S
C445 H472 0.930 . S
C446 C445 1.442 . S
C446 C447 1.381 . S
C446 H473 0.931 . S
C447 C446 1.381 . S
C447 C448 1.321 . S
C448 C447 1.321 . S
C448 C449 1.403 . S
C448 H474 0.934 . S
C449 C444 1.413 . S
C449 C448 1.403 . S
C449 H475 0.930 . S
C450 O464 1.275 . S
C450 O465 1.256 . S
C451 O466 1.259 . S
C451 O467 1.268 . S
C452 Ho441 2.811 . S
C452 C453 1.488 . S
C452 O468 1.215 . S
C452 O469 1.289 . S
C453 C452 1.488 . S
C453 C454 1.348 . S
C453 C458 1.413 . S
C454 C453 1.348 . S
C454 C455 1.442 . S
C454 H476 0.930 . S
C455 C454 1.442 . S
C455 C456 1.381 . S
C455 H477 0.931 . S
C456 C455 1.381 . S
C456 C457 1.321 . S
C457 C456 1.321 . S
C457 C458 1.403 . S
C457 H478 0.934 . S
C458 C453 1.413 . S
C458 C457 1.403 . S
C458 H479 0.930 . S
C459 O470 1.275 . S
C459 O471 1.256 . S
O460 Ho440 2.322 . S
O460 C442 1.259 . S
O461 Ho441 2.346 . S
O461 C442 1.268 . S
O462 Ho440 2.378 . S
O462 C443 1.215 . S
O463 Ho440 2.524 . S
O463 C443 1.289 . S
O464 Ho440 2.381 . S
O464 C450 1.275 . S
O465 Ho440 2.669 . S
O465 Ho441 2.305 . S
O465 C450 1.256 . S
O466 Ho441 2.322 . S
O466 C451 1.259 . S
O467 Ho440 2.346 . S
O467 C451 1.268 . S
O468 Ho441 2.378 . S
O468 C452 1.215 . S
O469 Ho441 2.524 . S
O469 C452 1.289 . S
O470 Ho441 2.381 . S
O470 C459 1.275 . S
O471 Ho440 2.305 . S
O471 Ho441 2.669 . S
O471 C459 1.256 . S
H472 C445 0.930 . S
H473 C446 0.931 . S
H474 C448 0.934 . S
H475 C449 0.930 . S
H476 C454 0.930 . S
H477 C455 0.931 . S
H478 C457 0.934 . S
H479 C458 0.930 . S
Ho480 C483 2.811 . S
Ho480 O500 2.322 . S
Ho480 O502 2.378 . S
Ho480 O503 2.524 . S
Ho480 O504 2.381 . S
Ho480 O505 2.669 . S
Ho480 O507 2.346 . S
Ho480 O511 2.305 . S
Ho481 C492 2.811 . S
Ho481 O501 2.346 . S
Ho481 O505 2.305 . S
Ho481 O506 2.322 . S
Ho481 O508 2.378 . S
Ho481 O509 2.524 . S
Ho481 O510 2.381 . S
Ho481 O511 2.669 . S
C482 O500 1.259 . S
C482 O501 1.268 . S
C483 Ho480 2.811 . S
C483 C484 1.488 . S
C483 O502 1.215 . S
C483 O503 1.289 . S
C484 C483 1.488 . S
C484 C485 1.348 . S
C484 C489 1.413 . S
C485 C484 1.348 . S
C485 C486 1.442 . S
C485 H512 0.930 . S
C486 C485 1.442 . S
C486 C487 1.381 . S
C486 H513 0.931 . S
C487 C486 1.381 . S
C487 C488 1.321 . S
C488 C487 1.321 . S
C488 C489 1.403 . S
C488 H514 0.934 . S
C489 C484 1.413 . S
C489 C488 1.403 . S
C489 H515 0.930 . S
C490 O504 1.275 . S
C490 O505 1.256 . S
C491 O506 1.259 . S
C491 O507 1.268 . S
C492 Ho481 2.811 . S
C492 C493 1.488 . S
C492 O508 1.215 . S
C492 O509 1.289 . S
C493 C492 1.488 . S
C493 C494 1.348 . S
C493 C498 1.413 . S
C494 C493 1.348 . S
C494 C495 1.442 . S
C494 H516 0.930 . S
C495 C494 1.442 . S
C495 C496 1.381 . S
C495 H517 0.931 . S
C496 C495 1.381 . S
C496 C497 1.321 . S
C497 C496 1.321 . S
C497 C498 1.403 . S
C497 H518 0.934 . S
C498 C493 1.413 . S
C498 C497 1.403 . S
C498 H519 0.930 . S
C499 O510 1.275 . S
C499 O511 1.256 . S
O500 Ho480 2.322 . S
O500 C482 1.259 . S
O501 Ho481 2.346 . S
O501 C482 1.268 . S
O502 Ho480 2.378 . S
O502 C483 1.215 . S
O503 Ho480 2.524 . S
O503 C483 1.289 . S
O504 Ho480 2.381 . S
O504 C490 1.275 . S
O505 Ho480 2.669 . S
O505 Ho481 2.305 . S
O505 C490 1.256 . S
O506 Ho481 2.322 . S
O506 C491 1.259 . S
O507 Ho480 2.346 . S
O507 C491 1.268 . S
O508 Ho481 2.378 . S
O508 C492 1.215 . S
O509 Ho481 2.524 . S
O509 C492 1.289 . S
O510 Ho481 2.381 . S
O510 C499 1.275 . S
O511 Ho480 2.305 . S
O511 Ho481 2.669 . S
O511 C499 1.256 . S
H512 C485 0.930 . S
H513 C486 0.931 . S
H514 C488 0.934 . S
H515 C489 0.930 . S
H516 C494 0.930 . S
H517 C495 0.931 . S
H518 C497 0.934 . S
H519 C498 0.930 . S
Ho520 C523 2.811 . S
Ho520 O540 2.322 . S
Ho520 O542 2.378 . S
Ho520 O543 2.524 . S
Ho520 O544 2.381 . S
Ho520 O545 2.669 . S
Ho520 O547 2.346 . S
Ho520 O551 2.305 . S
Ho521 C532 2.811 . S
Ho521 O541 2.346 . S
Ho521 O545 2.305 . S
Ho521 O546 2.322 . S
Ho521 O548 2.378 . S
Ho521 O549 2.524 . S
Ho521 O550 2.381 . S
Ho521 O551 2.669 . S
C522 O540 1.259 . S
C522 O541 1.268 . S
C523 Ho520 2.811 . S
C523 C524 1.488 . S
C523 O542 1.215 . S
C523 O543 1.289 . S
C524 C523 1.488 . S
C524 C525 1.348 . S
C524 C529 1.413 . S
C525 C524 1.348 . S
C525 C526 1.442 . S
C525 H552 0.930 . S
C526 C525 1.442 . S
C526 C527 1.381 . S
C526 H553 0.931 . S
C527 C526 1.381 . S
C527 C528 1.321 . S
C528 C527 1.321 . S
C528 C529 1.403 . S
C528 H554 0.934 . S
C529 C524 1.413 . S
C529 C528 1.403 . S
C529 H555 0.930 . S
C530 O544 1.275 . S
C530 O545 1.256 . S
C531 O546 1.259 . S
C531 O547 1.268 . S
C532 Ho521 2.811 . S
C532 C533 1.488 . S
C532 O548 1.215 . S
C532 O549 1.289 . S
C533 C532 1.488 . S
C533 C534 1.348 . S
C533 C538 1.413 . S
C534 C533 1.348 . S
C534 C535 1.442 . S
C534 H556 0.930 . S
C535 C534 1.442 . S
C535 C536 1.381 . S
C535 H557 0.931 . S
C536 C535 1.381 . S
C536 C537 1.321 . S
C537 C536 1.321 . S
C537 C538 1.403 . S
C537 H558 0.934 . S
C538 C533 1.413 . S
C538 C537 1.403 . S
C538 H559 0.930 . S
C539 O550 1.275 . S
C539 O551 1.256 . S
O540 Ho520 2.322 . S
O540 C522 1.259 . S
O541 Ho521 2.346 . S
O541 C522 1.268 . S
O542 Ho520 2.378 . S
O542 C523 1.215 . S
O543 Ho520 2.524 . S
O543 C523 1.289 . S
O544 Ho520 2.381 . S
O544 C530 1.275 . S
O545 Ho520 2.669 . S
O545 Ho521 2.305 . S
O545 C530 1.256 . S
O546 Ho521 2.322 . S
O546 C531 1.259 . S
O547 Ho520 2.346 . S
O547 C531 1.268 . S
O548 Ho521 2.378 . S
O548 C532 1.215 . S
O549 Ho521 2.524 . S
O549 C532 1.289 . S
O550 Ho521 2.381 . S
O550 C539 1.275 . S
O551 Ho520 2.305 . S
O551 Ho521 2.669 . S
O551 C539 1.256 . S
H552 C525 0.930 . S
H553 C526 0.931 . S
H554 C528 0.934 . S
H555 C529 0.930 . S
H556 C534 0.930 . S
H557 C535 0.931 . S
H558 C537 0.934 . S
H559 C538 0.930 . S
Ho560 C563 2.811 . S
Ho560 O580 2.322 . S
Ho560 O582 2.378 . S
Ho560 O583 2.524 . S
Ho560 O584 2.381 . S
Ho560 O585 2.669 . S
Ho560 O587 2.346 . S
Ho560 O591 2.305 . S
Ho561 C572 2.811 . S
Ho561 O581 2.346 . S
Ho561 O585 2.305 . S
Ho561 O586 2.322 . S
Ho561 O588 2.378 . S
Ho561 O589 2.524 . S
Ho561 O590 2.381 . S
Ho561 O591 2.669 . S
C562 O580 1.259 . S
C562 O581 1.268 . S
C563 Ho560 2.811 . S
C563 C564 1.488 . S
C563 O582 1.215 . S
C563 O583 1.289 . S
C564 C563 1.488 . S
C564 C565 1.348 . S
C564 C569 1.413 . S
C565 C564 1.348 . S
C565 C566 1.442 . S
C565 H592 0.930 . S
C566 C565 1.442 . S
C566 C567 1.381 . S
C566 H593 0.931 . S
C567 C566 1.381 . S
C567 C568 1.321 . S
C568 C567 1.321 . S
C568 C569 1.403 . S
C568 H594 0.934 . S
C569 C564 1.413 . S
C569 C568 1.403 . S
C569 H595 0.930 . S
C570 O584 1.275 . S
C570 O585 1.256 . S
C571 O586 1.259 . S
C571 O587 1.268 . S
C572 Ho561 2.811 . S
C572 C573 1.488 . S
C572 O588 1.215 . S
C572 O589 1.289 . S
C573 C572 1.488 . S
C573 C574 1.348 . S
C573 C578 1.413 . S
C574 C573 1.348 . S
C574 C575 1.442 . S
C574 H596 0.930 . S
C575 C574 1.442 . S
C575 C576 1.381 . S
C575 H597 0.931 . S
C576 C575 1.381 . S
C576 C577 1.321 . S
C577 C576 1.321 . S
C577 C578 1.403 . S
C577 H598 0.934 . S
C578 C573 1.413 . S
C578 C577 1.403 . S
C578 H599 0.930 . S
C579 O590 1.275 . S
C579 O591 1.256 . S
O580 Ho560 2.322 . S
O580 C562 1.259 . S
O581 Ho561 2.346 . S
O581 C562 1.268 . S
O582 Ho560 2.378 . S
O582 C563 1.215 . S
O583 Ho560 2.524 . S
O583 C563 1.289 . S
O584 Ho560 2.381 . S
O584 C570 1.275 . S
O585 Ho560 2.669 . S
O585 Ho561 2.305 . S
O585 C570 1.256 . S
O586 Ho561 2.322 . S
O586 C571 1.259 . S
O587 Ho560 2.346 . S
O587 C571 1.268 . S
O588 Ho561 2.378 . S
O588 C572 1.215 . S
O589 Ho561 2.524 . S
O589 C572 1.289 . S
O590 Ho561 2.381 . S
O590 C579 1.275 . S
O591 Ho560 2.305 . S
O591 Ho561 2.669 . S
O591 C579 1.256 . S
H592 C565 0.930 . S
H593 C566 0.931 . S
H594 C568 0.934 . S
H595 C569 0.930 . S
H596 C574 0.930 . S
H597 C575 0.931 . S
H598 C577 0.934 . S
H599 C578 0.930 . S
Ho600 C603 2.811 . S
Ho600 O620 2.322 . S
Ho600 O622 2.378 . S
Ho600 O623 2.524 . S
Ho600 O624 2.381 . S
Ho600 O625 2.669 . S
Ho600 O627 2.346 . S
Ho600 O631 2.305 . S
Ho601 C612 2.811 . S
Ho601 O621 2.346 . S
Ho601 O625 2.305 . S
Ho601 O626 2.322 . S
Ho601 O628 2.378 . S
Ho601 O629 2.524 . S
Ho601 O630 2.381 . S
Ho601 O631 2.669 . S
C602 O620 1.259 . S
C602 O621 1.268 . S
C603 Ho600 2.811 . S
C603 C604 1.488 . S
C603 O622 1.215 . S
C603 O623 1.289 . S
C604 C603 1.488 . S
C604 C605 1.348 1_655 S
C604 C609 1.413 . S
C605 C604 1.348 1_455 S
C605 C606 1.442 . S
C605 H632 0.930 . S
C606 C605 1.442 . S
C606 C607 1.381 . S
C606 H633 0.931 . S
C607 C606 1.381 . S
C607 C608 1.321 1_455 S
C608 C607 1.321 1_655 S
C608 C609 1.403 . S
C608 H634 0.934 . S
C609 C604 1.413 . S
C609 C608 1.403 . S
C609 H635 0.930 . S
C610 O624 1.275 . S
C610 O625 1.256 . S
C611 O626 1.259 . S
C611 O627 1.268 . S
C612 Ho601 2.811 . S
C612 C613 1.488 . S
C612 O628 1.215 . S
C612 O629 1.289 . S
C613 C612 1.488 . S
C613 C614 1.348 . S
C613 C618 1.413 . S
C614 C613 1.348 . S
C614 C615 1.442 . S
C614 H636 0.930 . S
C615 C614 1.442 . S
C615 C616 1.381 . S
C615 H637 0.931 . S
C616 C615 1.381 . S
C616 C617 1.321 . S
C617 C616 1.321 . S
C617 C618 1.403 . S
C617 H638 0.934 . S
C618 C613 1.413 . S
C618 C617 1.403 . S
C618 H639 0.930 . S
C619 O630 1.275 . S
C619 O631 1.256 . S
O620 Ho600 2.322 . S
O620 C602 1.259 . S
O621 Ho601 2.346 . S
O621 C602 1.268 . S
O622 Ho600 2.378 . S
O622 C603 1.215 . S
O623 Ho600 2.524 . S
O623 C603 1.289 . S
O624 Ho600 2.381 . S
O624 C610 1.275 . S
O625 Ho600 2.669 . S
O625 Ho601 2.305 . S
O625 C610 1.256 . S
O626 Ho601 2.322 . S
O626 C611 1.259 . S
O627 Ho600 2.346 . S
O627 C611 1.268 . S
O628 Ho601 2.378 . S
O628 C612 1.215 . S
O629 Ho601 2.524 . S
O629 C612 1.289 . S
O630 Ho601 2.381 . S
O630 C619 1.275 . S
O631 Ho600 2.305 . S
O631 Ho601 2.669 . S
O631 C619 1.256 . S
H632 C605 0.930 . S
H633 C606 0.931 . S
H634 C608 0.934 . S
H635 C609 0.930 . S
H636 C614 0.930 . S
H637 C615 0.931 . S
H638 C617 0.934 . S
H639 C618 0.930 . S
Ho640 C643 2.811 . S
Ho640 O660 2.322 . S
Ho640 O662 2.378 . S
Ho640 O663 2.524 . S
Ho640 O664 2.381 . S
Ho640 O665 2.669 . S
Ho640 O667 2.346 . S
Ho640 O671 2.305 . S
Ho641 C652 2.811 . S
Ho641 O661 2.346 . S
Ho641 O665 2.305 . S
Ho641 O666 2.322 . S
Ho641 O668 2.378 . S
Ho641 O669 2.524 . S
Ho641 O670 2.381 . S
Ho641 O671 2.669 . S
C642 O660 1.259 . S
C642 O661 1.268 . S
C643 Ho640 2.811 . S
C643 C644 1.488 . S
C643 O662 1.215 . S
C643 O663 1.289 . S
C644 C643 1.488 . S
C644 C645 1.348 . S
C644 C649 1.413 . S
C645 C644 1.348 . S
C645 C646 1.442 . S
C645 H672 0.930 . S
C646 C645 1.442 . S
C646 C647 1.381 . S
C646 H673 0.931 . S
C647 C646 1.381 . S
C647 C648 1.321 . S
C648 C647 1.321 . S
C648 C649 1.403 . S
C648 H674 0.934 . S
C649 C644 1.413 . S
C649 C648 1.403 . S
C649 H675 0.930 . S
C650 O664 1.275 . S
C650 O665 1.256 . S
C651 O666 1.259 . S
C651 O667 1.268 . S
C652 Ho641 2.811 . S
C652 C653 1.488 . S
C652 O668 1.215 . S
C652 O669 1.289 . S
C653 C652 1.488 . S
C653 C654 1.348 . S
C653 C658 1.413 . S
C654 C653 1.348 . S
C654 C655 1.442 . S
C654 H676 0.930 . S
C655 C654 1.442 . S
C655 C656 1.381 . S
C655 H677 0.931 . S
C656 C655 1.381 . S
C656 C657 1.321 . S
C657 C656 1.321 . S
C657 C658 1.403 . S
C657 H678 0.934 . S
C658 C653 1.413 . S
C658 C657 1.403 . S
C658 H679 0.930 . S
C659 O670 1.275 . S
C659 O671 1.256 . S
O660 Ho640 2.322 . S
O660 C642 1.259 . S
O661 Ho641 2.346 . S
O661 C642 1.268 . S
O662 Ho640 2.378 . S
O662 C643 1.215 . S
O663 Ho640 2.524 . S
O663 C643 1.289 . S
O664 Ho640 2.381 . S
O664 C650 1.275 . S
O665 Ho640 2.669 . S
O665 Ho641 2.305 . S
O665 C650 1.256 . S
O666 Ho641 2.322 . S
O666 C651 1.259 . S
O667 Ho640 2.346 . S
O667 C651 1.268 . S
O668 Ho641 2.378 . S
O668 C652 1.215 . S
O669 Ho641 2.524 . S
O669 C652 1.289 . S
O670 Ho641 2.381 . S
O670 C659 1.275 . S
O671 Ho640 2.305 . S
O671 Ho641 2.669 . S
O671 C659 1.256 . S
H672 C645 0.930 . S
H673 C646 0.931 . S
H674 C648 0.934 . S
H675 C649 0.930 . S
H676 C654 0.930 . S
H677 C655 0.931 . S
H678 C657 0.934 . S
H679 C658 0.930 . S
Ho680 C683 2.811 . S
Ho680 O700 2.322 . S
Ho680 O702 2.378 . S
Ho680 O703 2.524 . S
Ho680 O704 2.381 . S
Ho680 O705 2.669 . S
Ho680 O707 2.346 . S
Ho680 O711 2.305 . S
Ho681 C692 2.811 . S
Ho681 O701 2.346 . S
Ho681 O705 2.305 . S
Ho681 O706 2.322 . S
Ho681 O708 2.378 . S
Ho681 O709 2.524 . S
Ho681 O710 2.381 . S
Ho681 O711 2.669 . S
C682 O700 1.259 . S
C682 O701 1.268 . S
C683 Ho680 2.811 . S
C683 C684 1.488 . S
C683 O702 1.215 . S
C683 O703 1.289 . S
C684 C683 1.488 . S
C684 C685 1.348 1_545 S
C684 C689 1.413 . S
C685 C684 1.348 1_565 S
C685 C686 1.442 . S
C685 H712 0.930 . S
C686 C685 1.442 . S
C686 C687 1.381 . S
C686 H713 0.931 . S
C687 C686 1.381 . S
C687 C688 1.321 1_565 S
C688 C687 1.321 1_545 S
C688 C689 1.403 . S
C688 H714 0.934 . S
C689 C684 1.413 . S
C689 C688 1.403 . S
C689 H715 0.930 . S
C690 O704 1.275 . S
C690 O705 1.256 . S
C691 O706 1.259 . S
C691 O707 1.268 . S
C692 Ho681 2.811 . S
C692 C693 1.488 . S
C692 O708 1.215 . S
C692 O709 1.289 . S
C693 C692 1.488 . S
C693 C694 1.348 . S
C693 C698 1.413 . S
C694 C693 1.348 . S
C694 C695 1.442 . S
C694 H716 0.930 . S
C695 C694 1.442 . S
C695 C696 1.381 . S
C695 H717 0.931 . S
C696 C695 1.381 . S
C696 C697 1.321 . S
C697 C696 1.321 . S
C697 C698 1.403 . S
C697 H718 0.934 . S
C698 C693 1.413 . S
C698 C697 1.403 . S
C698 H719 0.930 . S
C699 O710 1.275 . S
C699 O711 1.256 . S
O700 Ho680 2.322 . S
O700 C682 1.259 . S
O701 Ho681 2.346 . S
O701 C682 1.268 . S
O702 Ho680 2.378 . S
O702 C683 1.215 . S
O703 Ho680 2.524 . S
O703 C683 1.289 . S
O704 Ho680 2.381 . S
O704 C690 1.275 . S
O705 Ho680 2.669 . S
O705 Ho681 2.305 . S
O705 C690 1.256 . S
O706 Ho681 2.322 . S
O706 C691 1.259 . S
O707 Ho680 2.346 . S
O707 C691 1.268 . S
O708 Ho681 2.378 . S
O708 C692 1.215 . S
O709 Ho681 2.524 . S
O709 C692 1.289 . S
O710 Ho681 2.381 . S
O710 C699 1.275 . S
O711 Ho680 2.305 . S
O711 Ho681 2.669 . S
O711 C699 1.256 . S
H712 C685 0.930 . S
H713 C686 0.931 . S
H714 C688 0.934 . S
H715 C689 0.930 . S
H716 C694 0.930 . S
H717 C695 0.931 . S
H718 C697 0.934 . S
H719 C698 0.930 . S
Ho720 C723 2.811 . S
Ho720 O740 2.322 . S
Ho720 O742 2.378 . S
Ho720 O743 2.524 . S
Ho720 O744 2.381 . S
Ho720 O745 2.669 . S
Ho720 O747 2.346 . S
Ho720 O751 2.305 . S
Ho721 C732 2.811 . S
Ho721 O741 2.346 . S
Ho721 O745 2.305 . S
Ho721 O746 2.322 . S
Ho721 O748 2.378 . S
Ho721 O749 2.524 . S
Ho721 O750 2.381 . S
Ho721 O751 2.669 . S
C722 O740 1.259 . S
C722 O741 1.268 . S
C723 Ho720 2.811 . S
C723 C724 1.488 . S
C723 O742 1.215 . S
C723 O743 1.289 . S
C724 C723 1.488 . S
C724 C725 1.348 . S
C724 C729 1.413 . S
C725 C724 1.348 . S
C725 C726 1.442 . S
C725 H752 0.930 . S
C726 C725 1.442 . S
C726 C727 1.381 . S
C726 H753 0.931 . S
C727 C726 1.381 . S
C727 C728 1.321 . S
C728 C727 1.321 . S
C728 C729 1.403 . S
C728 H754 0.934 . S
C729 C724 1.413 . S
C729 C728 1.403 . S
C729 H755 0.930 . S
C730 O744 1.275 . S
C730 O745 1.256 . S
C731 O746 1.259 . S
C731 O747 1.268 . S
C732 Ho721 2.811 . S
C732 C733 1.488 . S
C732 O748 1.215 . S
C732 O749 1.289 . S
C733 C732 1.488 . S
C733 C734 1.348 1_545 S
C733 C738 1.413 . S
C734 C733 1.348 1_565 S
C734 C735 1.442 . S
C734 H756 0.930 . S
C735 C734 1.442 . S
C735 C736 1.381 . S
C735 H757 0.931 . S
C736 C735 1.381 . S
C736 C737 1.321 1_565 S
C737 C736 1.321 1_545 S
C737 C738 1.403 . S
C737 H758 0.934 . S
C738 C733 1.413 . S
C738 C737 1.403 . S
C738 H759 0.930 . S
C739 O750 1.275 . S
C739 O751 1.256 . S
O740 Ho720 2.322 . S
O740 C722 1.259 . S
O741 Ho721 2.346 . S
O741 C722 1.268 . S
O742 Ho720 2.378 . S
O742 C723 1.215 . S
O743 Ho720 2.524 . S
O743 C723 1.289 . S
O744 Ho720 2.381 . S
O744 C730 1.275 . S
O745 Ho720 2.669 . S
O745 Ho721 2.305 . S
O745 C730 1.256 . S
O746 Ho721 2.322 . S
O746 C731 1.259 . S
O747 Ho720 2.346 . S
O747 C731 1.268 . S
O748 Ho721 2.378 . S
O748 C732 1.215 . S
O749 Ho721 2.524 . S
O749 C732 1.289 . S
O750 Ho721 2.381 . S
O750 C739 1.275 . S
O751 Ho720 2.305 . S
O751 Ho721 2.669 . S
O751 C739 1.256 . S
H752 C725 0.930 . S
H753 C726 0.931 . S
H754 C728 0.934 . S
H755 C729 0.930 . S
H756 C734 0.930 . S
H757 C735 0.931 . S
H758 C737 0.934 . S
H759 C738 0.930 . S
Ho760 C763 2.811 . S
Ho760 O780 2.322 . S
Ho760 O782 2.378 . S
Ho760 O783 2.524 . S
Ho760 O784 2.381 . S
Ho760 O785 2.669 . S
Ho760 O787 2.346 . S
Ho760 O791 2.305 . S
Ho761 C772 2.811 . S
Ho761 O781 2.346 . S
Ho761 O785 2.305 . S
Ho761 O786 2.322 . S
Ho761 O788 2.378 . S
Ho761 O789 2.524 . S
Ho761 O790 2.381 . S
Ho761 O791 2.669 . S
C762 O780 1.259 . S
C762 O781 1.268 . S
C763 Ho760 2.811 . S
C763 C764 1.488 . S
C763 O782 1.215 . S
C763 O783 1.289 . S
C764 C763 1.488 . S
C764 C765 1.348 . S
C764 C769 1.413 . S
C765 C764 1.348 . S
C765 C766 1.442 . S
C765 H792 0.930 . S
C766 C765 1.442 . S
C766 C767 1.381 . S
C766 H793 0.931 . S
C767 C766 1.381 . S
C767 C768 1.321 . S
C768 C767 1.321 . S
C768 C769 1.403 . S
C768 H794 0.934 . S
C769 C764 1.413 . S
C769 C768 1.403 . S
C769 H795 0.930 . S
C770 O784 1.275 . S
C770 O785 1.256 . S
C771 O786 1.259 . S
C771 O787 1.268 . S
C772 Ho761 2.811 . S
C772 C773 1.488 . S
C772 O788 1.215 . S
C772 O789 1.289 . S
C773 C772 1.488 . S
C773 C774 1.348 1_655 S
C773 C778 1.413 . S
C774 C773 1.348 1_455 S
C774 C775 1.442 . S
C774 H796 0.930 . S
C775 C774 1.442 . S
C775 C776 1.381 . S
C775 H797 0.931 . S
C776 C775 1.381 . S
C776 C777 1.321 1_455 S
C777 C776 1.321 1_655 S
C777 C778 1.403 . S
C777 H798 0.934 . S
C778 C773 1.413 . S
C778 C777 1.403 . S
C778 H799 0.930 . S
C779 O790 1.275 . S
C779 O791 1.256 . S
O780 Ho760 2.322 . S
O780 C762 1.259 . S
O781 Ho761 2.346 . S
O781 C762 1.268 . S
O782 Ho760 2.378 . S
O782 C763 1.215 . S
O783 Ho760 2.524 . S
O783 C763 1.289 . S
O784 Ho760 2.381 . S
O784 C770 1.275 . S
O785 Ho760 2.669 . S
O785 Ho761 2.305 . S
O785 C770 1.256 . S
O786 Ho761 2.322 . S
O786 C771 1.259 . S
O787 Ho760 2.346 . S
O787 C771 1.268 . S
O788 Ho761 2.378 . S
O788 C772 1.215 . S
O789 Ho761 2.524 . S
O789 C772 1.289 . S
O790 Ho761 2.381 . S
O790 C779 1.275 . S
O791 Ho760 2.305 . S
O791 Ho761 2.669 . S
O791 C779 1.256 . S
H792 C765 0.930 . S
H793 C766 0.931 . S
H794 C768 0.934 . S
H795 C769 0.930 . S
H796 C774 0.930 . S
H797 C775 0.931 . S
H798 C777 0.934 . S
H799 C778 0.930 . S
Ho800 C803 2.811 . S
Ho800 O820 2.322 . S
Ho800 O822 2.378 . S
Ho800 O823 2.524 . S
Ho800 O824 2.381 . S
Ho800 O825 2.669 . S
Ho800 O827 2.346 . S
Ho800 O831 2.305 . S
Ho801 C812 2.811 . S
Ho801 O821 2.346 . S
Ho801 O825 2.305 . S
Ho801 O826 2.322 . S
Ho801 O828 2.378 . S
Ho801 O829 2.524 . S
Ho801 O830 2.381 . S
Ho801 O831 2.669 . S
C802 O820 1.259 . S
C802 O821 1.268 . S
C803 Ho800 2.811 . S
C803 C804 1.488 . S
C803 O822 1.215 . S
C803 O823 1.289 . S
C804 C803 1.488 . S
C804 C805 1.348 . S
C804 C809 1.413 . S
C805 C804 1.348 . S
C805 C806 1.442 . S
C805 H832 0.930 . S
C806 C805 1.442 . S
C806 C807 1.381 . S
C806 H833 0.931 . S
C807 C806 1.381 . S
C807 C808 1.321 . S
C808 C807 1.321 . S
C808 C809 1.403 . S
C808 H834 0.934 . S
C809 C804 1.413 . S
C809 C808 1.403 . S
C809 H835 0.930 . S
C810 O824 1.275 . S
C810 O825 1.256 . S
C811 O826 1.259 . S
C811 O827 1.268 . S
C812 Ho801 2.811 . S
C812 C813 1.488 . S
C812 O828 1.215 . S
C812 O829 1.289 . S
C813 C812 1.488 . S
C813 C814 1.348 . S
C813 C818 1.413 . S
C814 C813 1.348 . S
C814 C815 1.442 . S
C814 H836 0.930 . S
C815 C814 1.442 . S
C815 C816 1.381 . S
C815 H837 0.931 . S
C816 C815 1.381 . S
C816 C817 1.321 . S
C817 C816 1.321 . S
C817 C818 1.403 . S
C817 H838 0.934 . S
C818 C813 1.413 . S
C818 C817 1.403 . S
C818 H839 0.930 . S
C819 O830 1.275 . S
C819 O831 1.256 . S
O820 Ho800 2.322 . S
O820 C802 1.259 . S
O821 Ho801 2.346 . S
O821 C802 1.268 . S
O822 Ho800 2.378 . S
O822 C803 1.215 . S
O823 Ho800 2.524 . S
O823 C803 1.289 . S
O824 Ho800 2.381 . S
O824 C810 1.275 . S
O825 Ho800 2.669 . S
O825 Ho801 2.305 . S
O825 C810 1.256 . S
O826 Ho801 2.322 . S
O826 C811 1.259 . S
O827 Ho800 2.346 . S
O827 C811 1.268 . S
O828 Ho801 2.378 . S
O828 C812 1.215 . S
O829 Ho801 2.524 . S
O829 C812 1.289 . S
O830 Ho801 2.381 . S
O830 C819 1.275 . S
O831 Ho800 2.305 . S
O831 Ho801 2.669 . S
O831 C819 1.256 . S
H832 C805 0.930 . S
H833 C806 0.931 . S
H834 C808 0.934 . S
H835 C809 0.930 . S
H836 C814 0.930 . S
H837 C815 0.931 . S
H838 C817 0.934 . S
H839 C818 0.930 . S
Ho840 C843 2.811 . S
Ho840 O860 2.322 . S
Ho840 O862 2.378 . S
Ho840 O863 2.524 . S
Ho840 O864 2.381 . S
Ho840 O865 2.669 1_554 S
Ho840 O867 2.346 . S
Ho840 O871 2.305 . S
Ho841 C852 2.811 . S
Ho841 O861 2.346 . S
Ho841 O865 2.305 . S
Ho841 O866 2.322 . S
Ho841 O868 2.378 . S
Ho841 O869 2.524 . S
Ho841 O870 2.381 . S
Ho841 O871 2.669 1_556 S
C842 O860 1.259 . S
C842 O861 1.268 1_554 S
C843 Ho840 2.811 . S
C843 C844 1.488 . S
C843 O862 1.215 . S
C843 O863 1.289 . S
C844 C843 1.488 . S
C844 C845 1.348 . S
C844 C849 1.413 . S
C845 C844 1.348 . S
C845 C846 1.442 . S
C845 H872 0.930 . S
C846 C845 1.442 . S
C846 C847 1.381 . S
C846 H873 0.931 . S
C847 C846 1.381 . S
C847 C848 1.321 . S
C848 C847 1.321 . S
C848 C849 1.403 . S
C848 H874 0.934 . S
C849 C844 1.413 . S
C849 C848 1.403 . S
C849 H875 0.930 . S
C850 O864 1.275 . S
C850 O865 1.256 1_554 S
C851 O866 1.259 . S
C851 O867 1.268 1_556 S
C852 Ho841 2.811 . S
C852 C853 1.488 . S
C852 O868 1.215 . S
C852 O869 1.289 . S
C853 C852 1.488 . S
C853 C854 1.348 . S
C853 C858 1.413 . S
C854 C853 1.348 . S
C854 C855 1.442 . S
C854 H876 0.930 . S
C855 C854 1.442 . S
C855 C856 1.381 . S
C855 H877 0.931 . S
C856 C855 1.381 . S
C856 C857 1.321 . S
C857 C856 1.321 . S
C857 C858 1.403 . S
C857 H878 0.934 . S
C858 C853 1.413 . S
C858 C857 1.403 . S
C858 H879 0.930 . S
C859 O870 1.275 . S
C859 O871 1.256 1_556 S
O860 Ho840 2.322 . S
O860 C842 1.259 . S
O861 Ho841 2.346 . S
O861 C842 1.268 1_556 S
O862 Ho840 2.378 . S
O862 C843 1.215 . S
O863 Ho840 2.524 . S
O863 C843 1.289 . S
O864 Ho840 2.381 . S
O864 C850 1.275 . S
O865 Ho840 2.669 1_556 S
O865 Ho841 2.305 . S
O865 C850 1.256 1_556 S
O866 Ho841 2.322 . S
O866 C851 1.259 . S
O867 Ho840 2.346 . S
O867 C851 1.268 1_554 S
O868 Ho841 2.378 . S
O868 C852 1.215 . S
O869 Ho841 2.524 . S
O869 C852 1.289 . S
O870 Ho841 2.381 . S
O870 C859 1.275 . S
O871 Ho840 2.305 . S
O871 Ho841 2.669 1_554 S
O871 C859 1.256 1_554 S
H872 C845 0.930 . S
H873 C846 0.931 . S
H874 C848 0.934 . S
H875 C849 0.930 . S
H876 C854 0.930 . S
H877 C855 0.931 . S
H878 C857 0.934 . S
H879 C858 0.930 . S
Ho880 C883 2.811 . S
Ho880 O900 2.322 . S
Ho880 O902 2.378 . S
Ho880 O903 2.524 . S
Ho880 O904 2.381 . S
Ho880 O905 2.669 1_554 S
Ho880 O907 2.346 . S
Ho880 O911 2.305 . S
Ho881 C892 2.811 . S
Ho881 O901 2.346 . S
Ho881 O905 2.305 . S
Ho881 O906 2.322 . S
Ho881 O908 2.378 . S
Ho881 O909 2.524 . S
Ho881 O910 2.381 . S
Ho881 O911 2.669 1_556 S
C882 O900 1.259 . S
C882 O901 1.268 1_554 S
C883 Ho880 2.811 . S
C883 C884 1.488 . S
C883 O902 1.215 . S
C883 O903 1.289 . S
C884 C883 1.488 . S
C884 C885 1.348 . S
C884 C889 1.413 . S
C885 C884 1.348 . S
C885 C886 1.442 . S
C885 H912 0.930 . S
C886 C885 1.442 . S
C886 C887 1.381 . S
C886 H913 0.931 . S
C887 C886 1.381 . S
C887 C888 1.321 . S
C888 C887 1.321 . S
C888 C889 1.403 . S
C888 H914 0.934 . S
C889 C884 1.413 . S
C889 C888 1.403 . S
C889 H915 0.930 . S
C890 O904 1.275 . S
C890 O905 1.256 1_554 S
C891 O906 1.259 . S
C891 O907 1.268 1_556 S
C892 Ho881 2.811 . S
C892 C893 1.488 . S
C892 O908 1.215 . S
C892 O909 1.289 . S
C893 C892 1.488 . S
C893 C894 1.348 . S
C893 C898 1.413 . S
C894 C893 1.348 . S
C894 C895 1.442 . S
C894 H916 0.930 . S
C895 C894 1.442 . S
C895 C896 1.381 . S
C895 H917 0.931 . S
C896 C895 1.381 . S
C896 C897 1.321 . S
C897 C896 1.321 . S
C897 C898 1.403 . S
C897 H918 0.934 . S
C898 C893 1.413 . S
C898 C897 1.403 . S
C898 H919 0.930 . S
C899 O910 1.275 . S
C899 O911 1.256 1_556 S
O900 Ho880 2.322 . S
O900 C882 1.259 . S
O901 Ho881 2.346 . S
O901 C882 1.268 1_556 S
O902 Ho880 2.378 . S
O902 C883 1.215 . S
O903 Ho880 2.524 . S
O903 C883 1.289 . S
O904 Ho880 2.381 . S
O904 C890 1.275 . S
O905 Ho880 2.669 1_556 S
O905 Ho881 2.305 . S
O905 C890 1.256 1_556 S
O906 Ho881 2.322 . S
O906 C891 1.259 . S
O907 Ho880 2.346 . S
O907 C891 1.268 1_554 S
O908 Ho881 2.378 . S
O908 C892 1.215 . S
O909 Ho881 2.524 . S
O909 C892 1.289 . S
O910 Ho881 2.381 . S
O910 C899 1.275 . S
O911 Ho880 2.305 . S
O911 Ho881 2.669 1_554 S
O911 C899 1.256 1_554 S
H912 C885 0.930 . S
H913 C886 0.931 . S
H914 C888 0.934 . S
H915 C889 0.930 . S
H916 C894 0.930 . S
H917 C895 0.931 . S
H918 C897 0.934 . S
H919 C898 0.930 . S
Ho920 C923 2.811 . S
Ho920 O940 2.322 . S
Ho920 O942 2.378 . S
Ho920 O943 2.524 . S
Ho920 O944 2.381 . S
Ho920 O945 2.669 1_554 S
Ho920 O947 2.346 . S
Ho920 O951 2.305 . S
Ho921 C932 2.811 . S
Ho921 O941 2.346 . S
Ho921 O945 2.305 . S
Ho921 O946 2.322 . S
Ho921 O948 2.378 . S
Ho921 O949 2.524 . S
Ho921 O950 2.381 . S
Ho921 O951 2.669 1_556 S
C922 O940 1.259 . S
C922 O941 1.268 1_554 S
C923 Ho920 2.811 . S
C923 C924 1.488 . S
C923 O942 1.215 . S
C923 O943 1.289 . S
C924 C923 1.488 . S
C924 C925 1.348 . S
C924 C929 1.413 . S
C925 C924 1.348 . S
C925 C926 1.442 . S
C925 H952 0.930 . S
C926 C925 1.442 . S
C926 C927 1.381 . S
C926 H953 0.931 . S
C927 C926 1.381 . S
C927 C928 1.321 . S
C928 C927 1.321 . S
C928 C929 1.403 . S
C928 H954 0.934 . S
C929 C924 1.413 . S
C929 C928 1.403 . S
C929 H955 0.930 . S
C930 O944 1.275 . S
C930 O945 1.256 1_554 S
C931 O946 1.259 . S
C931 O947 1.268 1_556 S
C932 Ho921 2.811 . S
C932 C933 1.488 . S
C932 O948 1.215 . S
C932 O949 1.289 . S
C933 C932 1.488 . S
C933 C934 1.348 . S
C933 C938 1.413 . S
C934 C933 1.348 . S
C934 C935 1.442 . S
C934 H956 0.930 . S
C935 C934 1.442 . S
C935 C936 1.381 . S
C935 H957 0.931 . S
C936 C935 1.381 . S
C936 C937 1.321 . S
C937 C936 1.321 . S
C937 C938 1.403 . S
C937 H958 0.934 . S
C938 C933 1.413 . S
C938 C937 1.403 . S
C938 H959 0.930 . S
C939 O950 1.275 . S
C939 O951 1.256 1_556 S
O940 Ho920 2.322 . S
O940 C922 1.259 . S
O941 Ho921 2.346 . S
O941 C922 1.268 1_556 S
O942 Ho920 2.378 . S
O942 C923 1.215 . S
O943 Ho920 2.524 . S
O943 C923 1.289 . S
O944 Ho920 2.381 . S
O944 C930 1.275 . S
O945 Ho920 2.669 1_556 S
O945 Ho921 2.305 . S
O945 C930 1.256 1_556 S
O946 Ho921 2.322 . S
O946 C931 1.259 . S
O947 Ho920 2.346 . S
O947 C931 1.268 1_554 S
O948 Ho921 2.378 . S
O948 C932 1.215 . S
O949 Ho921 2.524 . S
O949 C932 1.289 . S
O950 Ho921 2.381 . S
O950 C939 1.275 . S
O951 Ho920 2.305 . S
O951 Ho921 2.669 1_554 S
O951 C939 1.256 1_554 S
H952 C925 0.930 . S
H953 C926 0.931 . S
H954 C928 0.934 . S
H955 C929 0.930 . S
H956 C934 0.930 . S
H957 C935 0.931 . S
H958 C937 0.934 . S
H959 C938 0.930 . S
Ho960 C963 2.811 . S
Ho960 O980 2.322 . S
Ho960 O982 2.378 . S
Ho960 O983 2.524 . S
Ho960 O984 2.381 . S
Ho960 O985 2.669 . S
Ho960 O987 2.346 . S
Ho960 O991 2.305 . S
Ho961 C972 2.811 . S
Ho961 O981 2.346 . S
Ho961 O985 2.305 . S
Ho961 O986 2.322 . S
Ho961 O988 2.378 . S
Ho961 O989 2.524 . S
Ho961 O990 2.381 . S
Ho961 O991 2.669 . S
C962 O980 1.259 . S
C962 O981 1.268 . S
C963 Ho960 2.811 . S
C963 C964 1.488 . S
C963 O982 1.215 . S
C963 O983 1.289 . S
C964 C963 1.488 . S
C964 C965 1.348 1_565 S
C964 C969 1.413 . S
C965 C964 1.348 1_545 S
C965 C966 1.442 . S
C965 H992 0.930 . S
C966 C965 1.442 . S
C966 C967 1.381 . S
C966 H993 0.931 . S
C967 C966 1.381 . S
C967 C968 1.321 1_545 S
C968 C967 1.321 1_565 S
C968 C969 1.403 . S
C968 H994 0.934 . S
C969 C964 1.413 . S
C969 C968 1.403 . S
C969 H995 0.930 . S
C970 O984 1.275 . S
C970 O985 1.256 . S
C971 O986 1.259 . S
C971 O987 1.268 . S
C972 Ho961 2.811 . S
C972 C973 1.488 . S
C972 O988 1.215 . S
C972 O989 1.289 . S
C973 C972 1.488 . S
C973 C974 1.348 . S
C973 C978 1.413 . S
C974 C973 1.348 . S
C974 C975 1.442 . S
C974 H996 0.930 . S
C975 C974 1.442 . S
C975 C976 1.381 . S
C975 H997 0.931 . S
C976 C975 1.381 . S
C976 C977 1.321 . S
C977 C976 1.321 . S
C977 C978 1.403 . S
C977 H998 0.934 . S
C978 C973 1.413 . S
C978 C977 1.403 . S
C978 H999 0.930 . S
C979 O990 1.275 . S
C979 O991 1.256 . S
O980 Ho960 2.322 . S
O980 C962 1.259 . S
O981 Ho961 2.346 . S
O981 C962 1.268 . S
O982 Ho960 2.378 . S
O982 C963 1.215 . S
O983 Ho960 2.524 . S
O983 C963 1.289 . S
O984 Ho960 2.381 . S
O984 C970 1.275 . S
O985 Ho960 2.669 . S
O985 Ho961 2.305 . S
O985 C970 1.256 . S
O986 Ho961 2.322 . S
O986 C971 1.259 . S
O987 Ho960 2.346 . S
O987 C971 1.268 . S
O988 Ho961 2.378 . S
O988 C972 1.215 . S
O989 Ho961 2.524 . S
O989 C972 1.289 . S
O990 Ho961 2.381 . S
O990 C979 1.275 . S
O991 Ho960 2.305 . S
O991 Ho961 2.669 . S
O991 C979 1.256 . S
H992 C965 0.930 . S
H993 C966 0.931 . S
H994 C968 0.934 . S
H995 C969 0.930 . S
H996 C974 0.930 . S
H997 C975 0.931 . S
H998 C977 0.934 . S
H999 C978 0.930 . S
Ho1000 C1003 2.811 . S
Ho1000 O1020 2.322 . S
Ho1000 O1022 2.378 . S
Ho1000 O1023 2.524 . S
Ho1000 O1024 2.381 . S
Ho1000 O1025 2.669 . S
Ho1000 O1027 2.346 . S
Ho1000 O1031 2.305 . S
Ho1001 C1012 2.811 . S
Ho1001 O1021 2.346 . S
Ho1001 O1025 2.305 . S
Ho1001 O1026 2.322 . S
Ho1001 O1028 2.378 . S
Ho1001 O1029 2.524 . S
Ho1001 O1030 2.381 . S
Ho1001 O1031 2.669 . S
C1002 O1020 1.259 . S
C1002 O1021 1.268 . S
C1003 Ho1000 2.811 . S
C1003 C1004 1.488 . S
C1003 O1022 1.215 . S
C1003 O1023 1.289 . S
C1004 C1003 1.488 . S
C1004 C1005 1.348 1_455 S
C1004 C1009 1.413 . S
C1005 C1004 1.348 1_655 S
C1005 C1006 1.442 . S
C1005 H1032 0.930 . S
C1006 C1005 1.442 . S
C1006 C1007 1.381 . S
C1006 H1033 0.931 . S
C1007 C1006 1.381 . S
C1007 C1008 1.321 1_655 S
C1008 C1007 1.321 1_455 S
C1008 C1009 1.403 . S
C1008 H1034 0.934 . S
C1009 C1004 1.413 . S
C1009 C1008 1.403 . S
C1009 H1035 0.930 . S
C1010 O1024 1.275 . S
C1010 O1025 1.256 . S
C1011 O1026 1.259 . S
C1011 O1027 1.268 . S
C1012 Ho1001 2.811 . S
C1012 C1013 1.488 . S
C1012 O1028 1.215 . S
C1012 O1029 1.289 . S
C1013 C1012 1.488 . S
C1013 C1014 1.348 . S
C1013 C1018 1.413 . S
C1014 C1013 1.348 . S
C1014 C1015 1.442 . S
C1014 H1036 0.930 . S
C1015 C1014 1.442 . S
C1015 C1016 1.381 . S
C1015 H1037 0.931 . S
C1016 C1015 1.381 . S
C1016 C1017 1.321 . S
C1017 C1016 1.321 . S
C1017 C1018 1.403 . S
C1017 H1038 0.934 . S
C1018 C1013 1.413 . S
C1018 C1017 1.403 . S
C1018 H1039 0.930 . S
C1019 O1030 1.275 . S
C1019 O1031 1.256 . S
O1020 Ho1000 2.322 . S
O1020 C1002 1.259 . S
O1021 Ho1001 2.346 . S
O1021 C1002 1.268 . S
O1022 Ho1000 2.378 . S
O1022 C1003 1.215 . S
O1023 Ho1000 2.524 . S
O1023 C1003 1.289 . S
O1024 Ho1000 2.381 . S
O1024 C1010 1.275 . S
O1025 Ho1000 2.669 . S
O1025 Ho1001 2.305 . S
O1025 C1010 1.256 . S
O1026 Ho1001 2.322 . S
O1026 C1011 1.259 . S
O1027 Ho1000 2.346 . S
O1027 C1011 1.268 . S
O1028 Ho1001 2.378 . S
O1028 C1012 1.215 . S
O1029 Ho1001 2.524 . S
O1029 C1012 1.289 . S
O1030 Ho1001 2.381 . S
O1030 C1019 1.275 . S
O1031 Ho1000 2.305 . S
O1031 Ho1001 2.669 . S
O1031 C1019 1.256 . S
H1032 C1005 0.930 . S
H1033 C1006 0.931 . S
H1034 C1008 0.934 . S
H1035 C1009 0.930 . S
H1036 C1014 0.930 . S
H1037 C1015 0.931 . S
H1038 C1017 0.934 . S
H1039 C1018 0.930 . S
Ho1040 C1043 2.811 . S
Ho1040 O1060 2.322 . S
Ho1040 O1062 2.378 . S
Ho1040 O1063 2.524 . S
Ho1040 O1064 2.381 . S
Ho1040 O1065 2.669 . S
Ho1040 O1067 2.346 . S
Ho1040 O1071 2.305 . S
Ho1041 C1052 2.811 . S
Ho1041 O1061 2.346 . S
Ho1041 O1065 2.305 . S
Ho1041 O1066 2.322 . S
Ho1041 O1068 2.378 . S
Ho1041 O1069 2.524 . S
Ho1041 O1070 2.381 . S
Ho1041 O1071 2.669 . S
C1042 O1060 1.259 . S
C1042 O1061 1.268 . S
C1043 Ho1040 2.811 . S
C1043 C1044 1.488 . S
C1043 O1062 1.215 . S
C1043 O1063 1.289 . S
C1044 C1043 1.488 . S
C1044 C1045 1.348 . S
C1044 C1049 1.413 . S
C1045 C1044 1.348 . S
C1045 C1046 1.442 . S
C1045 H1072 0.930 . S
C1046 C1045 1.442 . S
C1046 C1047 1.381 . S
C1046 H1073 0.931 . S
C1047 C1046 1.381 . S
C1047 C1048 1.321 . S
C1048 C1047 1.321 . S
C1048 C1049 1.403 . S
C1048 H1074 0.934 . S
C1049 C1044 1.413 . S
C1049 C1048 1.403 . S
C1049 H1075 0.930 . S
C1050 O1064 1.275 . S
C1050 O1065 1.256 . S
C1051 O1066 1.259 . S
C1051 O1067 1.268 . S
C1052 Ho1041 2.811 . S
C1052 C1053 1.488 . S
C1052 O1068 1.215 . S
C1052 O1069 1.289 . S
C1053 C1052 1.488 . S
C1053 C1054 1.348 . S
C1053 C1058 1.413 . S
C1054 C1053 1.348 . S
C1054 C1055 1.442 . S
C1054 H1076 0.930 . S
C1055 C1054 1.442 . S
C1055 C1056 1.381 . S
C1055 H1077 0.931 . S
C1056 C1055 1.381 . S
C1056 C1057 1.321 . S
C1057 C1056 1.321 . S
C1057 C1058 1.403 . S
C1057 H1078 0.934 . S
C1058 C1053 1.413 . S
C1058 C1057 1.403 . S
C1058 H1079 0.930 . S
C1059 O1070 1.275 . S
C1059 O1071 1.256 . S
O1060 Ho1040 2.322 . S
O1060 C1042 1.259 . S
O1061 Ho1041 2.346 . S
O1061 C1042 1.268 . S
O1062 Ho1040 2.378 . S
O1062 C1043 1.215 . S
O1063 Ho1040 2.524 . S
O1063 C1043 1.289 . S
O1064 Ho1040 2.381 . S
O1064 C1050 1.275 . S
O1065 Ho1040 2.669 . S
O1065 Ho1041 2.305 . S
O1065 C1050 1.256 . S
O1066 Ho1041 2.322 . S
O1066 C1051 1.259 . S
O1067 Ho1040 2.346 . S
O1067 C1051 1.268 . S
O1068 Ho1041 2.378 . S
O1068 C1052 1.215 . S
O1069 Ho1041 2.524 . S
O1069 C1052 1.289 . S
O1070 Ho1041 2.381 . S
O1070 C1059 1.275 . S
O1071 Ho1040 2.305 . S
O1071 Ho1041 2.669 . S
O1071 C1059 1.256 . S
H1072 C1045 0.930 . S
H1073 C1046 0.931 . S
H1074 C1048 0.934 . S
H1075 C1049 0.930 . S
H1076 C1054 0.930 . S
H1077 C1055 0.931 . S
H1078 C1057 0.934 . S
H1079 C1058 0.930 . S
Ho1080 C1083 2.811 . S
Ho1080 O1100 2.322 . S
Ho1080 O1102 2.378 . S
Ho1080 O1103 2.524 . S
Ho1080 O1104 2.381 . S
Ho1080 O1105 2.669 1_554 S
Ho1080 O1107 2.346 . S
Ho1080 O1111 2.305 . S
Ho1081 C1092 2.811 . S
Ho1081 O1101 2.346 . S
Ho1081 O1105 2.305 . S
Ho1081 O1106 2.322 . S
Ho1081 O1108 2.378 . S
Ho1081 O1109 2.524 . S
Ho1081 O1110 2.381 . S
Ho1081 O1111 2.669 1_556 S
C1082 O1100 1.259 . S
C1082 O1101 1.268 1_554 S
C1083 Ho1080 2.811 . S
C1083 C1084 1.488 . S
C1083 O1102 1.215 . S
C1083 O1103 1.289 . S
C1084 C1083 1.488 . S
C1084 C1085 1.348 . S
C1084 C1089 1.413 . S
C1085 C1084 1.348 . S
C1085 C1086 1.442 . S
C1085 H1112 0.930 . S
C1086 C1085 1.442 . S
C1086 C1087 1.381 . S
C1086 H1113 0.931 . S
C1087 C1086 1.381 . S
C1087 C1088 1.321 . S
C1088 C1087 1.321 . S
C1088 C1089 1.403 . S
C1088 H1114 0.934 . S
C1089 C1084 1.413 . S
C1089 C1088 1.403 . S
C1089 H1115 0.930 . S
C1090 O1104 1.275 . S
C1090 O1105 1.256 1_554 S
C1091 O1106 1.259 . S
C1091 O1107 1.268 1_556 S
C1092 Ho1081 2.811 . S
C1092 C1093 1.488 . S
C1092 O1108 1.215 . S
C1092 O1109 1.289 . S
C1093 C1092 1.488 . S
C1093 C1094 1.348 . S
C1093 C1098 1.413 . S
C1094 C1093 1.348 . S
C1094 C1095 1.442 . S
C1094 H1116 0.930 . S
C1095 C1094 1.442 . S
C1095 C1096 1.381 . S
C1095 H1117 0.931 . S
C1096 C1095 1.381 . S
C1096 C1097 1.321 . S
C1097 C1096 1.321 . S
C1097 C1098 1.403 . S
C1097 H1118 0.934 . S
C1098 C1093 1.413 . S
C1098 C1097 1.403 . S
C1098 H1119 0.930 . S
C1099 O1110 1.275 . S
C1099 O1111 1.256 1_556 S
O1100 Ho1080 2.322 . S
O1100 C1082 1.259 . S
O1101 Ho1081 2.346 . S
O1101 C1082 1.268 1_556 S
O1102 Ho1080 2.378 . S
O1102 C1083 1.215 . S
O1103 Ho1080 2.524 . S
O1103 C1083 1.289 . S
O1104 Ho1080 2.381 . S
O1104 C1090 1.275 . S
O1105 Ho1080 2.669 1_556 S
O1105 Ho1081 2.305 . S
O1105 C1090 1.256 1_556 S
O1106 Ho1081 2.322 . S
O1106 C1091 1.259 . S
O1107 Ho1080 2.346 . S
O1107 C1091 1.268 1_554 S
O1108 Ho1081 2.378 . S
O1108 C1092 1.215 . S
O1109 Ho1081 2.524 . S
O1109 C1092 1.289 . S
O1110 Ho1081 2.381 . S
O1110 C1099 1.275 . S
O1111 Ho1080 2.305 . S
O1111 Ho1081 2.669 1_554 S
O1111 C1099 1.256 1_554 S
H1112 C1085 0.930 . S
H1113 C1086 0.931 . S
H1114 C1088 0.934 . S
H1115 C1089 0.930 . S
H1116 C1094 0.930 . S
H1117 C1095 0.931 . S
H1118 C1097 0.934 . S
H1119 C1098 0.930 . S
Ho1120 C1123 2.811 . S
Ho1120 O1140 2.322 . S
Ho1120 O1142 2.378 . S
Ho1120 O1143 2.524 . S
Ho1120 O1144 2.381 . S
Ho1120 O1145 2.669 1_554 S
Ho1120 O1147 2.346 . S
Ho1120 O1151 2.305 . S
Ho1121 C1132 2.811 . S
Ho1121 O1141 2.346 . S
Ho1121 O1145 2.305 . S
Ho1121 O1146 2.322 . S
Ho1121 O1148 2.378 . S
Ho1121 O1149 2.524 . S
Ho1121 O1150 2.381 . S
Ho1121 O1151 2.669 1_556 S
C1122 O1140 1.259 . S
C1122 O1141 1.268 1_554 S
C1123 Ho1120 2.811 . S
C1123 C1124 1.488 . S
C1123 O1142 1.215 . S
C1123 O1143 1.289 . S
C1124 C1123 1.488 . S
C1124 C1125 1.348 . S
C1124 C1129 1.413 . S
C1125 C1124 1.348 . S
C1125 C1126 1.442 . S
C1125 H1152 0.930 . S
C1126 C1125 1.442 . S
C1126 C1127 1.381 . S
C1126 H1153 0.931 . S
C1127 C1126 1.381 . S
C1127 C1128 1.321 . S
C1128 C1127 1.321 . S
C1128 C1129 1.403 . S
C1128 H1154 0.934 . S
C1129 C1124 1.413 . S
C1129 C1128 1.403 . S
C1129 H1155 0.930 . S
C1130 O1144 1.275 . S
C1130 O1145 1.256 1_554 S
C1131 O1146 1.259 . S
C1131 O1147 1.268 1_556 S
C1132 Ho1121 2.811 . S
C1132 C1133 1.488 . S
C1132 O1148 1.215 . S
C1132 O1149 1.289 . S
C1133 C1132 1.488 . S
C1133 C1134 1.348 . S
C1133 C1138 1.413 . S
C1134 C1133 1.348 . S
C1134 C1135 1.442 . S
C1134 H1156 0.930 . S
C1135 C1134 1.442 . S
C1135 C1136 1.381 . S
C1135 H1157 0.931 . S
C1136 C1135 1.381 . S
C1136 C1137 1.321 . S
C1137 C1136 1.321 . S
C1137 C1138 1.403 . S
C1137 H1158 0.934 . S
C1138 C1133 1.413 . S
C1138 C1137 1.403 . S
C1138 H1159 0.930 . S
C1139 O1150 1.275 . S
C1139 O1151 1.256 1_556 S
O1140 Ho1120 2.322 . S
O1140 C1122 1.259 . S
O1141 Ho1121 2.346 . S
O1141 C1122 1.268 1_556 S
O1142 Ho1120 2.378 . S
O1142 C1123 1.215 . S
O1143 Ho1120 2.524 . S
O1143 C1123 1.289 . S
O1144 Ho1120 2.381 . S
O1144 C1130 1.275 . S
O1145 Ho1120 2.669 1_556 S
O1145 Ho1121 2.305 . S
O1145 C1130 1.256 1_556 S
O1146 Ho1121 2.322 . S
O1146 C1131 1.259 . S
O1147 Ho1120 2.346 . S
O1147 C1131 1.268 1_554 S
O1148 Ho1121 2.378 . S
O1148 C1132 1.215 . S
O1149 Ho1121 2.524 . S
O1149 C1132 1.289 . S
O1150 Ho1121 2.381 . S
O1150 C1139 1.275 . S
O1151 Ho1120 2.305 . S
O1151 Ho1121 2.669 1_554 S
O1151 C1139 1.256 1_554 S
H1152 C1125 0.930 . S
H1153 C1126 0.931 . S
H1154 C1128 0.934 . S
H1155 C1129 0.930 . S
H1156 C1134 0.930 . S
H1157 C1135 0.931 . S
H1158 C1137 0.934 . S
H1159 C1138 0.930 . S
Ho1160 C1163 2.811 . S
Ho1160 O1180 2.322 . S
Ho1160 O1182 2.378 . S
Ho1160 O1183 2.524 . S
Ho1160 O1184 2.381 . S
Ho1160 O1185 2.669 1_554 S
Ho1160 O1187 2.346 . S
Ho1160 O1191 2.305 . S
Ho1161 C1172 2.811 . S
Ho1161 O1181 2.346 . S
Ho1161 O1185 2.305 . S
Ho1161 O1186 2.322 . S
Ho1161 O1188 2.378 . S
Ho1161 O1189 2.524 . S
Ho1161 O1190 2.381 . S
Ho1161 O1191 2.669 1_556 S
C1162 O1180 1.259 . S
C1162 O1181 1.268 1_554 S
C1163 Ho1160 2.811 . S
C1163 C1164 1.488 . S
C1163 O1182 1.215 . S
C1163 O1183 1.289 . S
C1164 C1163 1.488 . S
C1164 C1165 1.348 . S
C1164 C1169 1.413 . S
C1165 C1164 1.348 . S
C1165 C1166 1.442 . S
C1165 H1192 0.930 . S
C1166 C1165 1.442 . S
C1166 C1167 1.381 . S
C1166 H1193 0.931 . S
C1167 C1166 1.381 . S
C1167 C1168 1.321 . S
C1168 C1167 1.321 . S
C1168 C1169 1.403 . S
C1168 H1194 0.934 . S
C1169 C1164 1.413 . S
C1169 C1168 1.403 . S
C1169 H1195 0.930 . S
C1170 O1184 1.275 . S
C1170 O1185 1.256 1_554 S
C1171 O1186 1.259 . S
C1171 O1187 1.268 1_556 S
C1172 Ho1161 2.811 . S
C1172 C1173 1.488 . S
C1172 O1188 1.215 . S
C1172 O1189 1.289 . S
C1173 C1172 1.488 . S
C1173 C1174 1.348 . S
C1173 C1178 1.413 . S
C1174 C1173 1.348 . S
C1174 C1175 1.442 . S
C1174 H1196 0.930 . S
C1175 C1174 1.442 . S
C1175 C1176 1.381 . S
C1175 H1197 0.931 . S
C1176 C1175 1.381 . S
C1176 C1177 1.321 . S
C1177 C1176 1.321 . S
C1177 C1178 1.403 . S
C1177 H1198 0.934 . S
C1178 C1173 1.413 . S
C1178 C1177 1.403 . S
C1178 H1199 0.930 . S
C1179 O1190 1.275 . S
C1179 O1191 1.256 1_556 S
O1180 Ho1160 2.322 . S
O1180 C1162 1.259 . S
O1181 Ho1161 2.346 . S
O1181 C1162 1.268 1_556 S
O1182 Ho1160 2.378 . S
O1182 C1163 1.215 . S
O1183 Ho1160 2.524 . S
O1183 C1163 1.289 . S
O1184 Ho1160 2.381 . S
O1184 C1170 1.275 . S
O1185 Ho1160 2.669 1_556 S
O1185 Ho1161 2.305 . S
O1185 C1170 1.256 1_556 S
O1186 Ho1161 2.322 . S
O1186 C1171 1.259 . S
O1187 Ho1160 2.346 . S
O1187 C1171 1.268 1_554 S
O1188 Ho1161 2.378 . S
O1188 C1172 1.215 . S
O1189 Ho1161 2.524 . S
O1189 C1172 1.289 . S
O1190 Ho1161 2.381 . S
O1190 C1179 1.275 . S
O1191 Ho1160 2.305 . S
O1191 Ho1161 2.669 1_554 S
O1191 C1179 1.256 1_554 S
H1192 C1165 0.930 . S
H1193 C1166 0.931 . S
H1194 C1168 0.934 . S
H1195 C1169 0.930 . S
H1196 C1174 0.930 . S
H1197 C1175 0.931 . S
H1198 C1177 0.934 . S
H1199 C1178 0.930 . S
Ho1200 C1203 2.811 . S
Ho1200 O1220 2.322 . S
Ho1200 O1222 2.378 . S
Ho1200 O1223 2.524 . S
Ho1200 O1224 2.381 . S
Ho1200 O1225 2.669 . S
Ho1200 O1227 2.346 . S
Ho1200 O1231 2.305 . S
Ho1201 C1212 2.811 . S
Ho1201 O1221 2.346 . S
Ho1201 O1225 2.305 . S
Ho1201 O1226 2.322 . S
Ho1201 O1228 2.378 . S
Ho1201 O1229 2.524 . S
Ho1201 O1230 2.381 . S
Ho1201 O1231 2.669 . S
C1202 O1220 1.259 . S
C1202 O1221 1.268 . S
C1203 Ho1200 2.811 . S
C1203 C1204 1.488 . S
C1203 O1222 1.215 . S
C1203 O1223 1.289 . S
C1204 C1203 1.488 . S
C1204 C1205 1.348 . S
C1204 C1209 1.413 . S
C1205 C1204 1.348 . S
C1205 C1206 1.442 . S
C1205 H1232 0.930 . S
C1206 C1205 1.442 . S
C1206 C1207 1.381 . S
C1206 H1233 0.931 . S
C1207 C1206 1.381 . S
C1207 C1208 1.321 . S
C1208 C1207 1.321 . S
C1208 C1209 1.403 . S
C1208 H1234 0.934 . S
C1209 C1204 1.413 . S
C1209 C1208 1.403 . S
C1209 H1235 0.930 . S
C1210 O1224 1.275 . S
C1210 O1225 1.256 . S
C1211 O1226 1.259 . S
C1211 O1227 1.268 . S
C1212 Ho1201 2.811 . S
C1212 C1213 1.488 . S
C1212 O1228 1.215 . S
C1212 O1229 1.289 . S
C1213 C1212 1.488 . S
C1213 C1214 1.348 . S
C1213 C1218 1.413 . S
C1214 C1213 1.348 . S
C1214 C1215 1.442 . S
C1214 H1236 0.930 . S
C1215 C1214 1.442 . S
C1215 C1216 1.381 . S
C1215 H1237 0.931 . S
C1216 C1215 1.381 . S
C1216 C1217 1.321 . S
C1217 C1216 1.321 . S
C1217 C1218 1.403 . S
C1217 H1238 0.934 . S
C1218 C1213 1.413 . S
C1218 C1217 1.403 . S
C1218 H1239 0.930 . S
C1219 O1230 1.275 . S
C1219 O1231 1.256 . S
O1220 Ho1200 2.322 . S
O1220 C1202 1.259 . S
O1221 Ho1201 2.346 . S
O1221 C1202 1.268 . S
O1222 Ho1200 2.378 . S
O1222 C1203 1.215 . S
O1223 Ho1200 2.524 . S
O1223 C1203 1.289 . S
O1224 Ho1200 2.381 . S
O1224 C1210 1.275 . S
O1225 Ho1200 2.669 . S
O1225 Ho1201 2.305 . S
O1225 C1210 1.256 . S
O1226 Ho1201 2.322 . S
O1226 C1211 1.259 . S
O1227 Ho1200 2.346 . S
O1227 C1211 1.268 . S
O1228 Ho1201 2.378 . S
O1228 C1212 1.215 . S
O1229 Ho1201 2.524 . S
O1229 C1212 1.289 . S
O1230 Ho1201 2.381 . S
O1230 C1219 1.275 . S
O1231 Ho1200 2.305 . S
O1231 Ho1201 2.669 . S
O1231 C1219 1.256 . S
H1232 C1205 0.930 . S
H1233 C1206 0.931 . S
H1234 C1208 0.934 . S
H1235 C1209 0.930 . S
H1236 C1214 0.930 . S
H1237 C1215 0.931 . S
H1238 C1217 0.934 . S
H1239 C1218 0.930 . S
Ho1240 C1243 2.811 . S
Ho1240 O1260 2.322 . S
Ho1240 O1262 2.378 . S
Ho1240 O1263 2.524 . S
Ho1240 O1264 2.381 . S
Ho1240 O1265 2.669 . S
Ho1240 O1267 2.346 . S
Ho1240 O1271 2.305 . S
Ho1241 C1252 2.811 . S
Ho1241 O1261 2.346 . S
Ho1241 O1265 2.305 . S
Ho1241 O1266 2.322 . S
Ho1241 O1268 2.378 . S
Ho1241 O1269 2.524 . S
Ho1241 O1270 2.381 . S
Ho1241 O1271 2.669 . S
C1242 O1260 1.259 . S
C1242 O1261 1.268 . S
C1243 Ho1240 2.811 . S
C1243 C1244 1.488 . S
C1243 O1262 1.215 . S
C1243 O1263 1.289 . S
C1244 C1243 1.488 . S
C1244 C1245 1.348 . S
C1244 C1249 1.413 . S
C1245 C1244 1.348 . S
C1245 C1246 1.442 . S
C1245 H1272 0.930 . S
C1246 C1245 1.442 . S
C1246 C1247 1.381 . S
C1246 H1273 0.931 . S
C1247 C1246 1.381 . S
C1247 C1248 1.321 . S
C1248 C1247 1.321 . S
C1248 C1249 1.403 . S
C1248 H1274 0.934 . S
C1249 C1244 1.413 . S
C1249 C1248 1.403 . S
C1249 H1275 0.930 . S
C1250 O1264 1.275 . S
C1250 O1265 1.256 . S
C1251 O1266 1.259 . S
C1251 O1267 1.268 . S
C1252 Ho1241 2.811 . S
C1252 C1253 1.488 . S
C1252 O1268 1.215 . S
C1252 O1269 1.289 . S
C1253 C1252 1.488 . S
C1253 C1254 1.348 . S
C1253 C1258 1.413 . S
C1254 C1253 1.348 . S
C1254 C1255 1.442 . S
C1254 H1276 0.930 . S
C1255 C1254 1.442 . S
C1255 C1256 1.381 . S
C1255 H1277 0.931 . S
C1256 C1255 1.381 . S
C1256 C1257 1.321 . S
C1257 C1256 1.321 . S
C1257 C1258 1.403 . S
C1257 H1278 0.934 . S
C1258 C1253 1.413 . S
C1258 C1257 1.403 . S
C1258 H1279 0.930 . S
C1259 O1270 1.275 . S
C1259 O1271 1.256 . S
O1260 Ho1240 2.322 . S
O1260 C1242 1.259 . S
O1261 Ho1241 2.346 . S
O1261 C1242 1.268 . S
O1262 Ho1240 2.378 . S
O1262 C1243 1.215 . S
O1263 Ho1240 2.524 . S
O1263 C1243 1.289 . S
O1264 Ho1240 2.381 . S
O1264 C1250 1.275 . S
O1265 Ho1240 2.669 . S
O1265 Ho1241 2.305 . S
O1265 C1250 1.256 . S
O1266 Ho1241 2.322 . S
O1266 C1251 1.259 . S
O1267 Ho1240 2.346 . S
O1267 C1251 1.268 . S
O1268 Ho1241 2.378 . S
O1268 C1252 1.215 . S
O1269 Ho1241 2.524 . S
O1269 C1252 1.289 . S
O1270 Ho1241 2.381 . S
O1270 C1259 1.275 . S
O1271 Ho1240 2.305 . S
O1271 Ho1241 2.669 . S
O1271 C1259 1.256 . S
H1272 C1245 0.930 . S
H1273 C1246 0.931 . S
H1274 C1248 0.934 . S
H1275 C1249 0.930 . S
H1276 C1254 0.930 . S
H1277 C1255 0.931 . S
H1278 C1257 0.934 . S
H1279 C1258 0.930 . S
Ho1280 C1283 2.811 . S
Ho1280 O1300 2.322 . S
Ho1280 O1302 2.378 . S
Ho1280 O1303 2.524 . S
Ho1280 O1304 2.381 . S
Ho1280 O1305 2.669 . S
Ho1280 O1307 2.346 . S
Ho1280 O1311 2.305 . S
Ho1281 C1292 2.811 . S
Ho1281 O1301 2.346 . S
Ho1281 O1305 2.305 . S
Ho1281 O1306 2.322 . S
Ho1281 O1308 2.378 . S
Ho1281 O1309 2.524 . S
Ho1281 O1310 2.381 . S
Ho1281 O1311 2.669 . S
C1282 O1300 1.259 . S
C1282 O1301 1.268 . S
C1283 Ho1280 2.811 . S
C1283 C1284 1.488 . S
C1283 O1302 1.215 . S
C1283 O1303 1.289 . S
C1284 C1283 1.488 . S
C1284 C1285 1.348 . S
C1284 C1289 1.413 . S
C1285 C1284 1.348 . S
C1285 C1286 1.442 . S
C1285 H1312 0.930 . S
C1286 C1285 1.442 . S
C1286 C1287 1.381 . S
C1286 H1313 0.931 . S
C1287 C1286 1.381 . S
C1287 C1288 1.321 . S
C1288 C1287 1.321 . S
C1288 C1289 1.403 . S
C1288 H1314 0.934 . S
C1289 C1284 1.413 . S
C1289 C1288 1.403 . S
C1289 H1315 0.930 . S
C1290 O1304 1.275 . S
C1290 O1305 1.256 . S
C1291 O1306 1.259 . S
C1291 O1307 1.268 . S
C1292 Ho1281 2.811 . S
C1292 C1293 1.488 . S
C1292 O1308 1.215 . S
C1292 O1309 1.289 . S
C1293 C1292 1.488 . S
C1293 C1294 1.348 . S
C1293 C1298 1.413 . S
C1294 C1293 1.348 . S
C1294 C1295 1.442 . S
C1294 H1316 0.930 . S
C1295 C1294 1.442 . S
C1295 C1296 1.381 . S
C1295 H1317 0.931 . S
C1296 C1295 1.381 . S
C1296 C1297 1.321 . S
C1297 C1296 1.321 . S
C1297 C1298 1.403 . S
C1297 H1318 0.934 . S
C1298 C1293 1.413 . S
C1298 C1297 1.403 . S
C1298 H1319 0.930 . S
C1299 O1310 1.275 . S
C1299 O1311 1.256 . S
O1300 Ho1280 2.322 . S
O1300 C1282 1.259 . S
O1301 Ho1281 2.346 . S
O1301 C1282 1.268 . S
O1302 Ho1280 2.378 . S
O1302 C1283 1.215 . S
O1303 Ho1280 2.524 . S
O1303 C1283 1.289 . S
O1304 Ho1280 2.381 . S
O1304 C1290 1.275 . S
O1305 Ho1280 2.669 . S
O1305 Ho1281 2.305 . S
O1305 C1290 1.256 . S
O1306 Ho1281 2.322 . S
O1306 C1291 1.259 . S
O1307 Ho1280 2.346 . S
O1307 C1291 1.268 . S
O1308 Ho1281 2.378 . S
O1308 C1292 1.215 . S
O1309 Ho1281 2.524 . S
O1309 C1292 1.289 . S
O1310 Ho1281 2.381 . S
O1310 C1299 1.275 . S
O1311 Ho1280 2.305 . S
O1311 Ho1281 2.669 . S
O1311 C1299 1.256 . S
H1312 C1285 0.930 . S
H1313 C1286 0.931 . S
H1314 C1288 0.934 . S
H1315 C1289 0.930 . S
H1316 C1294 0.930 . S
H1317 C1295 0.931 . S
H1318 C1297 0.934 . S
H1319 C1298 0.930 . S
Ho1320 C1323 2.811 . S
Ho1320 O1340 2.322 . S
Ho1320 O1342 2.378 . S
Ho1320 O1343 2.524 . S
Ho1320 O1344 2.381 . S
Ho1320 O1345 2.669 . S
Ho1320 O1347 2.346 . S
Ho1320 O1351 2.305 . S
Ho1321 C1332 2.811 . S
Ho1321 O1341 2.346 . S
Ho1321 O1345 2.305 . S
Ho1321 O1346 2.322 . S
Ho1321 O1348 2.378 . S
Ho1321 O1349 2.524 . S
Ho1321 O1350 2.381 . S
Ho1321 O1351 2.669 . S
C1322 O1340 1.259 . S
C1322 O1341 1.268 . S
C1323 Ho1320 2.811 . S
C1323 C1324 1.488 . S
C1323 O1342 1.215 . S
C1323 O1343 1.289 . S
C1324 C1323 1.488 . S
C1324 C1325 1.348 . S
C1324 C1329 1.413 . S
C1325 C1324 1.348 . S
C1325 C1326 1.442 . S
C1325 H1352 0.930 . S
C1326 C1325 1.442 . S
C1326 C1327 1.381 . S
C1326 H1353 0.931 . S
C1327 C1326 1.381 . S
C1327 C1328 1.321 . S
C1328 C1327 1.321 . S
C1328 C1329 1.403 . S
C1328 H1354 0.934 . S
C1329 C1324 1.413 . S
C1329 C1328 1.403 . S
C1329 H1355 0.930 . S
C1330 O1344 1.275 . S
C1330 O1345 1.256 . S
C1331 O1346 1.259 . S
C1331 O1347 1.268 . S
C1332 Ho1321 2.811 . S
C1332 C1333 1.488 . S
C1332 O1348 1.215 . S
C1332 O1349 1.289 . S
C1333 C1332 1.488 . S
C1333 C1334 1.348 1_455 S
C1333 C1338 1.413 . S
C1334 C1333 1.348 1_655 S
C1334 C1335 1.442 . S
C1334 H1356 0.930 . S
C1335 C1334 1.442 . S
C1335 C1336 1.381 . S
C1335 H1357 0.931 . S
C1336 C1335 1.381 . S
C1336 C1337 1.321 1_655 S
C1337 C1336 1.321 1_455 S
C1337 C1338 1.403 . S
C1337 H1358 0.934 . S
C1338 C1333 1.413 . S
C1338 C1337 1.403 . S
C1338 H1359 0.930 . S
C1339 O1350 1.275 . S
C1339 O1351 1.256 . S
O1340 Ho1320 2.322 . S
O1340 C1322 1.259 . S
O1341 Ho1321 2.346 . S
O1341 C1322 1.268 . S
O1342 Ho1320 2.378 . S
O1342 C1323 1.215 . S
O1343 Ho1320 2.524 . S
O1343 C1323 1.289 . S
O1344 Ho1320 2.381 . S
O1344 C1330 1.275 . S
O1345 Ho1320 2.669 . S
O1345 Ho1321 2.305 . S
O1345 C1330 1.256 . S
O1346 Ho1321 2.322 . S
O1346 C1331 1.259 . S
O1347 Ho1320 2.346 . S
O1347 C1331 1.268 . S
O1348 Ho1321 2.378 . S
O1348 C1332 1.215 . S
O1349 Ho1321 2.524 . S
O1349 C1332 1.289 . S
O1350 Ho1321 2.381 . S
O1350 C1339 1.275 . S
O1351 Ho1320 2.305 . S
O1351 Ho1321 2.669 . S
O1351 C1339 1.256 . S
H1352 C1325 0.930 . S
H1353 C1326 0.931 . S
H1354 C1328 0.934 . S
H1355 C1329 0.930 . S
H1356 C1334 0.930 . S
H1357 C1335 0.931 . S
H1358 C1337 0.934 . S
H1359 C1338 0.930 . S
Ho1360 C1363 2.811 . S
Ho1360 O1380 2.322 . S
Ho1360 O1382 2.378 . S
Ho1360 O1383 2.524 . S
Ho1360 O1384 2.381 . S
Ho1360 O1385 2.669 . S
Ho1360 O1387 2.346 . S
Ho1360 O1391 2.305 . S
Ho1361 C1372 2.811 . S
Ho1361 O1381 2.346 . S
Ho1361 O1385 2.305 . S
Ho1361 O1386 2.322 . S
Ho1361 O1388 2.378 . S
Ho1361 O1389 2.524 . S
Ho1361 O1390 2.381 . S
Ho1361 O1391 2.669 . S
C1362 O1380 1.259 . S
C1362 O1381 1.268 . S
C1363 Ho1360 2.811 . S
C1363 C1364 1.488 . S
C1363 O1382 1.215 . S
C1363 O1383 1.289 . S
C1364 C1363 1.488 . S
C1364 C1365 1.348 . S
C1364 C1369 1.413 . S
C1365 C1364 1.348 . S
C1365 C1366 1.442 . S
C1365 H1392 0.930 . S
C1366 C1365 1.442 . S
C1366 C1367 1.381 . S
C1366 H1393 0.931 . S
C1367 C1366 1.381 . S
C1367 C1368 1.321 . S
C1368 C1367 1.321 . S
C1368 C1369 1.403 . S
C1368 H1394 0.934 . S
C1369 C1364 1.413 . S
C1369 C1368 1.403 . S
C1369 H1395 0.930 . S
C1370 O1384 1.275 . S
C1370 O1385 1.256 . S
C1371 O1386 1.259 . S
C1371 O1387 1.268 . S
C1372 Ho1361 2.811 . S
C1372 C1373 1.488 . S
C1372 O1388 1.215 . S
C1372 O1389 1.289 . S
C1373 C1372 1.488 . S
C1373 C1374 1.348 . S
C1373 C1378 1.413 . S
C1374 C1373 1.348 . S
C1374 C1375 1.442 . S
C1374 H1396 0.930 . S
C1375 C1374 1.442 . S
C1375 C1376 1.381 . S
C1375 H1397 0.931 . S
C1376 C1375 1.381 . S
C1376 C1377 1.321 . S
C1377 C1376 1.321 . S
C1377 C1378 1.403 . S
C1377 H1398 0.934 . S
C1378 C1373 1.413 . S
C1378 C1377 1.403 . S
C1378 H1399 0.930 . S
C1379 O1390 1.275 . S
C1379 O1391 1.256 . S
O1380 Ho1360 2.322 . S
O1380 C1362 1.259 . S
O1381 Ho1361 2.346 . S
O1381 C1362 1.268 . S
O1382 Ho1360 2.378 . S
O1382 C1363 1.215 . S
O1383 Ho1360 2.524 . S
O1383 C1363 1.289 . S
O1384 Ho1360 2.381 . S
O1384 C1370 1.275 . S
O1385 Ho1360 2.669 . S
O1385 Ho1361 2.305 . S
O1385 C1370 1.256 . S
O1386 Ho1361 2.322 . S
O1386 C1371 1.259 . S
O1387 Ho1360 2.346 . S
O1387 C1371 1.268 . S
O1388 Ho1361 2.378 . S
O1388 C1372 1.215 . S
O1389 Ho1361 2.524 . S
O1389 C1372 1.289 . S
O1390 Ho1361 2.381 . S
O1390 C1379 1.275 . S
O1391 Ho1360 2.305 . S
O1391 Ho1361 2.669 . S
O1391 C1379 1.256 . S
H1392 C1365 0.930 . S
H1393 C1366 0.931 . S
H1394 C1368 0.934 . S
H1395 C1369 0.930 . S
H1396 C1374 0.930 . S
H1397 C1375 0.931 . S
H1398 C1377 0.934 . S
H1399 C1378 0.930 . S
Ho1400 C1403 2.811 . S
Ho1400 O1420 2.322 . S
Ho1400 O1422 2.378 . S
Ho1400 O1423 2.524 . S
Ho1400 O1424 2.381 . S
Ho1400 O1425 2.669 . S
Ho1400 O1427 2.346 . S
Ho1400 O1431 2.305 . S
Ho1401 C1412 2.811 . S
Ho1401 O1421 2.346 . S
Ho1401 O1425 2.305 . S
Ho1401 O1426 2.322 . S
Ho1401 O1428 2.378 . S
Ho1401 O1429 2.524 . S
Ho1401 O1430 2.381 . S
Ho1401 O1431 2.669 . S
C1402 O1420 1.259 . S
C1402 O1421 1.268 . S
C1403 Ho1400 2.811 . S
C1403 C1404 1.488 . S
C1403 O1422 1.215 . S
C1403 O1423 1.289 . S
C1404 C1403 1.488 . S
C1404 C1405 1.348 . S
C1404 C1409 1.413 . S
C1405 C1404 1.348 . S
C1405 C1406 1.442 . S
C1405 H1432 0.930 . S
C1406 C1405 1.442 . S
C1406 C1407 1.381 . S
C1406 H1433 0.931 . S
C1407 C1406 1.381 . S
C1407 C1408 1.321 . S
C1408 C1407 1.321 . S
C1408 C1409 1.403 . S
C1408 H1434 0.934 . S
C1409 C1404 1.413 . S
C1409 C1408 1.403 . S
C1409 H1435 0.930 . S
C1410 O1424 1.275 . S
C1410 O1425 1.256 . S
C1411 O1426 1.259 . S
C1411 O1427 1.268 . S
C1412 Ho1401 2.811 . S
C1412 C1413 1.488 . S
C1412 O1428 1.215 . S
C1412 O1429 1.289 . S
C1413 C1412 1.488 . S
C1413 C1414 1.348 1_565 S
C1413 C1418 1.413 . S
C1414 C1413 1.348 1_545 S
C1414 C1415 1.442 . S
C1414 H1436 0.930 . S
C1415 C1414 1.442 . S
C1415 C1416 1.381 . S
C1415 H1437 0.931 . S
C1416 C1415 1.381 . S
C1416 C1417 1.321 1_545 S
C1417 C1416 1.321 1_565 S
C1417 C1418 1.403 . S
C1417 H1438 0.934 . S
C1418 C1413 1.413 . S
C1418 C1417 1.403 . S
C1418 H1439 0.930 . S
C1419 O1430 1.275 . S
C1419 O1431 1.256 . S
O1420 Ho1400 2.322 . S
O1420 C1402 1.259 . S
O1421 Ho1401 2.346 . S
O1421 C1402 1.268 . S
O1422 Ho1400 2.378 . S
O1422 C1403 1.215 . S
O1423 Ho1400 2.524 . S
O1423 C1403 1.289 . S
O1424 Ho1400 2.381 . S
O1424 C1410 1.275 . S
O1425 Ho1400 2.669 . S
O1425 Ho1401 2.305 . S
O1425 C1410 1.256 . S
O1426 Ho1401 2.322 . S
O1426 C1411 1.259 . S
O1427 Ho1400 2.346 . S
O1427 C1411 1.268 . S
O1428 Ho1401 2.378 . S
O1428 C1412 1.215 . S
O1429 Ho1401 2.524 . S
O1429 C1412 1.289 . S
O1430 Ho1401 2.381 . S
O1430 C1419 1.275 . S
O1431 Ho1400 2.305 . S
O1431 Ho1401 2.669 . S
O1431 C1419 1.256 . S
H1432 C1405 0.930 . S
H1433 C1406 0.931 . S
H1434 C1408 0.934 . S
H1435 C1409 0.930 . S
H1436 C1414 0.930 . S
H1437 C1415 0.931 . S
H1438 C1417 0.934 . S
H1439 C1418 0.930 . S
C1440 C1441 1.387 . S
C1440 H1444 0.950 . S
C1440 C1449 1.390 . S
C1441 C1440 1.387 . S
C1441 C1443 1.387 . S
H1442 C1449 0.950 . S
C1443 C1441 1.387 . S
C1443 C1445 1.390 . S
C1443 H1447 0.950 . S
H1444 C1440 0.950 . S
C1445 C1443 1.390 . S
C1445 C1446 1.387 . S
C1445 H1448 0.950 . S
C1446 C1445 1.387 . S
C1446 C1449 1.387 . S
H1447 C1443 0.950 . S
H1448 C1445 0.950 . S
C1449 C1440 1.390 . S
C1449 H1442 0.950 . S
C1449 C1446 1.387 . S
C1450 C1451 1.387 . S
C1450 H1454 0.950 . S
C1450 C1459 1.390 . S
C1451 C1450 1.387 . S
C1451 C1453 1.387 . S
H1452 C1459 0.950 . S
C1453 C1451 1.387 . S
C1453 C1455 1.390 . S
C1453 H1457 0.950 . S
H1454 C1450 0.950 . S
C1455 C1453 1.390 . S
C1455 C1456 1.387 . S
C1455 H1458 0.950 . S
C1456 C1455 1.387 . S
C1456 C1459 1.387 . S
H1457 C1453 0.950 . S
H1458 C1455 0.950 . S
C1459 C1450 1.390 . S
C1459 H1452 0.950 . S
C1459 C1456 1.387 . S
C1460 C1461 1.387 . S
C1460 H1464 0.950 . S
C1460 C1469 1.390 . S
C1461 C1460 1.387 . S
C1461 C1463 1.387 . S
H1462 C1469 0.950 . S
C1463 C1461 1.387 . S
C1463 C1465 1.390 . S
C1463 H1467 0.950 . S
H1464 C1460 0.950 . S
C1465 C1463 1.390 . S
C1465 C1466 1.387 . S
C1465 H1468 0.950 . S
C1466 C1465 1.387 . S
C1466 C1469 1.387 . S
H1467 C1463 0.950 . S
H1468 C1465 0.950 . S
C1469 C1460 1.390 . S
C1469 H1462 0.950 . S
C1469 C1466 1.387 . S
C1470 C1471 1.387 . S
C1470 H1474 0.950 . S
C1470 C1479 1.390 . S
C1471 C1470 1.387 . S
C1471 C1473 1.387 . S
H1472 C1479 0.950 . S
C1473 C1471 1.387 . S
C1473 C1475 1.390 . S
C1473 H1477 0.950 . S
H1474 C1470 0.950 . S
C1475 C1473 1.390 . S
C1475 C1476 1.387 . S
C1475 H1478 0.950 . S
C1476 C1475 1.387 . S
C1476 C1479 1.387 . S
H1477 C1473 0.950 . S
H1478 C1475 0.950 . S
C1479 C1470 1.390 . S
C1479 H1472 0.950 . S
C1479 C1476 1.387 . S
C1480 C1481 1.387 . S
C1480 H1484 0.950 . S
C1480 C1489 1.390 . S
C1481 C1480 1.387 . S
C1481 C1483 1.387 . S
H1482 C1489 0.950 . S
C1483 C1481 1.387 . S
C1483 C1485 1.390 . S
C1483 H1487 0.950 . S
H1484 C1480 0.950 . S
C1485 C1483 1.390 . S
C1485 C1486 1.387 . S
C1485 H1488 0.950 . S
C1486 C1485 1.387 . S
C1486 C1489 1.387 . S
H1487 C1483 0.950 . S
H1488 C1485 0.950 . S
C1489 C1480 1.390 . S
C1489 H1482 0.950 . S
C1489 C1486 1.387 . S
C1490 C1491 1.387 . S
C1490 H1494 0.950 . S
C1490 C1499 1.390 . S
C1491 C1490 1.387 . S
C1491 C1493 1.387 . S
H1492 C1499 0.950 . S
C1493 C1491 1.387 . S
C1493 C1495 1.390 . S
C1493 H1497 0.950 . S
H1494 C1490 0.950 . S
C1495 C1493 1.390 . S
C1495 C1496 1.387 . S
C1495 H1498 0.950 . S
C1496 C1495 1.387 . S
C1496 C1499 1.387 . S
H1497 C1493 0.950 . S
H1498 C1495 0.950 . S
C1499 C1490 1.390 . S
C1499 H1492 0.950 . S
C1499 C1496 1.387 . S
C1500 C1501 1.387 . S
C1500 H1504 0.950 . S
C1500 C1509 1.390 . S
C1501 C1500 1.387 . S
C1501 C1503 1.387 . S
H1502 C1509 0.950 . S
C1503 C1501 1.387 . S
C1503 C1505 1.390 . S
C1503 H1507 0.950 . S
H1504 C1500 0.950 . S
C1505 C1503 1.390 . S
C1505 C1506 1.387 . S
C1505 H1508 0.950 . S
C1506 C1505 1.387 . S
C1506 C1509 1.387 . S
H1507 C1503 0.950 . S
H1508 C1505 0.950 . S
C1509 C1500 1.390 . S
C1509 H1502 0.950 . S
C1509 C1506 1.387 . S
C1510 C1511 1.387 . S
C1510 H1514 0.950 . S
C1510 C1519 1.390 . S
C1511 C1510 1.387 . S
C1511 C1513 1.387 . S
H1512 C1519 0.950 . S
C1513 C1511 1.387 . S
C1513 C1515 1.390 . S
C1513 H1517 0.950 . S
H1514 C1510 0.950 . S
C1515 C1513 1.390 . S
C1515 C1516 1.387 . S
C1515 H1518 0.950 . S
C1516 C1515 1.387 . S
C1516 C1519 1.387 . S
H1517 C1513 0.950 . S
H1518 C1515 0.950 . S
C1519 C1510 1.390 . S
C1519 H1512 0.950 . S
C1519 C1516 1.387 . S
C1520 C1521 1.387 . S
C1520 H1524 0.950 . S
C1520 C1529 1.390 . S
C1521 C1520 1.387 . S
C1521 C1523 1.387 . S
H1522 C1529 0.950 . S
C1523 C1521 1.387 . S
C1523 C1525 1.390 . S
C1523 H1527 0.950 . S
H1524 C1520 0.950 . S
C1525 C1523 1.390 . S
C1525 C1526 1.387 . S
C1525 H1528 0.950 . S
C1526 C1525 1.387 . S
C1526 C1529 1.387 . S
H1527 C1523 0.950 . S
H1528 C1525 0.950 . S
C1529 C1520 1.390 . S
C1529 H1522 0.950 . S
C1529 C1526 1.387 . S
C1530 C1531 1.387 . S
C1530 H1534 0.950 . S
C1530 C1539 1.390 . S
C1531 C1530 1.387 . S
C1531 C1533 1.387 . S
H1532 C1539 0.950 . S
C1533 C1531 1.387 . S
C1533 C1535 1.390 . S
C1533 H1537 0.950 . S
H1534 C1530 0.950 . S
C1535 C1533 1.390 . S
C1535 C1536 1.387 . S
C1535 H1538 0.950 . S
C1536 C1535 1.387 . S
C1536 C1539 1.387 . S
H1537 C1533 0.950 . S
H1538 C1535 0.950 . S
C1539 C1530 1.390 . S
C1539 H1532 0.950 . S
C1539 C1536 1.387 . S
C1540 C1541 1.387 . S
C1540 H1544 0.950 . S
C1540 C1549 1.390 . S
C1541 C1540 1.387 . S
C1541 C1543 1.387 . S
H1542 C1549 0.950 . S
C1543 C1541 1.387 . S
C1543 C1545 1.390 . S
C1543 H1547 0.950 . S
H1544 C1540 0.950 . S
C1545 C1543 1.390 . S
C1545 C1546 1.387 . S
C1545 H1548 0.950 . S
C1546 C1545 1.387 . S
C1546 C1549 1.387 . S
H1547 C1543 0.950 . S
H1548 C1545 0.950 . S
C1549 C1540 1.390 . S
C1549 H1542 0.950 . S
C1549 C1546 1.387 . S
C1550 C1551 1.387 . S
C1550 H1554 0.950 . S
C1550 C1559 1.390 . S
C1551 C1550 1.387 . S
C1551 C1553 1.387 . S
H1552 C1559 0.950 . S
C1553 C1551 1.387 . S
C1553 C1555 1.390 . S
C1553 H1557 0.950 . S
H1554 C1550 0.950 . S
C1555 C1553 1.390 . S
C1555 C1556 1.387 . S
C1555 H1558 0.950 . S
C1556 C1555 1.387 . S
C1556 C1559 1.387 . S
H1557 C1553 0.950 . S
H1558 C1555 0.950 . S
C1559 C1550 1.390 . S
C1559 H1552 0.950 . S
C1559 C1556 1.387 . S
C1560 C1561 1.387 . S
C1560 H1564 0.950 . S
C1560 C1569 1.390 . S
C1561 C1560 1.387 . S
C1561 C1563 1.387 . S
H1562 C1569 0.950 . S
C1563 C1561 1.387 . S
C1563 C1565 1.390 . S
C1563 H1567 0.950 . S
H1564 C1560 0.950 . S
C1565 C1563 1.390 . S
C1565 C1566 1.387 . S
C1565 H1568 0.950 . S
C1566 C1565 1.387 . S
C1566 C1569 1.387 . S
H1567 C1563 0.950 . S
H1568 C1565 0.950 . S
C1569 C1560 1.390 . S
C1569 H1562 0.950 . S
C1569 C1566 1.387 . S
C1570 C1571 1.387 . S
C1570 H1574 0.950 . S
C1570 C1579 1.390 . S
C1571 C1570 1.387 . S
C1571 C1573 1.387 . S
H1572 C1579 0.950 . S
C1573 C1571 1.387 . S
C1573 C1575 1.390 . S
C1573 H1577 0.950 . S
H1574 C1570 0.950 . S
C1575 C1573 1.390 . S
C1575 C1576 1.387 . S
C1575 H1578 0.950 . S
C1576 C1575 1.387 . S
C1576 C1579 1.387 . S
H1577 C1573 0.950 . S
H1578 C1575 0.950 . S
C1579 C1570 1.390 . S
C1579 H1572 0.950 . S
C1579 C1576 1.387 . S
C1580 C1581 1.387 . S
C1580 H1584 0.950 . S
C1580 C1589 1.390 . S
C1581 C1580 1.387 . S
C1581 C1583 1.387 . S
H1582 C1589 0.950 . S
C1583 C1581 1.387 . S
C1583 C1585 1.390 . S
C1583 H1587 0.950 . S
H1584 C1580 0.950 . S
C1585 C1583 1.390 . S
C1585 C1586 1.387 . S
C1585 H1588 0.950 . S
C1586 C1585 1.387 . S
C1586 C1589 1.387 . S
H1587 C1583 0.950 . S
H1588 C1585 0.950 . S
C1589 C1580 1.390 . S
C1589 H1582 0.950 . S
C1589 C1586 1.387 . S
C1590 C1591 1.387 . S
C1590 H1594 0.950 . S
C1590 C1599 1.390 . S
C1591 C1590 1.387 . S
C1591 C1593 1.387 . S
H1592 C1599 0.950 . S
C1593 C1591 1.387 . S
C1593 C1595 1.390 . S
C1593 H1597 0.950 . S
H1594 C1590 0.950 . S
C1595 C1593 1.390 . S
C1595 C1596 1.387 . S
C1595 H1598 0.950 . S
C1596 C1595 1.387 . S
C1596 C1599 1.387 . S
H1597 C1593 0.950 . S
H1598 C1595 0.950 . S
C1599 C1590 1.390 . S
C1599 H1592 0.950 . S
C1599 C1596 1.387 . S
C1600 C1601 1.387 . S
C1600 H1604 0.950 . S
C1600 C1609 1.390 . S
C1601 C1600 1.387 . S
C1601 C1603 1.387 . S
H1602 C1609 0.950 . S
C1603 C1601 1.387 . S
C1603 C1605 1.390 . S
C1603 H1607 0.950 . S
H1604 C1600 0.950 . S
C1605 C1603 1.390 . S
C1605 C1606 1.387 . S
C1605 H1608 0.950 . S
C1606 C1605 1.387 . S
C1606 C1609 1.387 . S
H1607 C1603 0.950 . S
H1608 C1605 0.950 . S
C1609 C1600 1.390 . S
C1609 H1602 0.950 . S
C1609 C1606 1.387 . S
C1610 C1611 1.387 . S
C1610 H1614 0.950 . S
C1610 C1619 1.390 . S
C1611 C1610 1.387 . S
C1611 C1613 1.387 . S
H1612 C1619 0.950 . S
C1613 C1611 1.387 . S
C1613 C1615 1.390 . S
C1613 H1617 0.950 . S
H1614 C1610 0.950 . S
C1615 C1613 1.390 . S
C1615 C1616 1.387 . S
C1615 H1618 0.950 . S
C1616 C1615 1.387 . S
C1616 C1619 1.387 . S
H1617 C1613 0.950 . S
H1618 C1615 0.950 . S
C1619 C1610 1.390 . S
C1619 H1612 0.950 . S
C1619 C1616 1.387 . S
C1620 C1621 1.387 . S
C1620 H1624 0.950 . S
C1620 C1629 1.390 . S
C1621 C1620 1.387 . S
C1621 C1623 1.387 . S
H1622 C1629 0.950 . S
C1623 C1621 1.387 . S
C1623 C1625 1.390 . S
C1623 H1627 0.950 . S
H1624 C1620 0.950 . S
C1625 C1623 1.390 . S
C1625 C1626 1.387 . S
C1625 H1628 0.950 . S
C1626 C1625 1.387 . S
C1626 C1629 1.387 . S
H1627 C1623 0.950 . S
H1628 C1625 0.950 . S
C1629 C1620 1.390 . S
C1629 H1622 0.950 . S
C1629 C1626 1.387 . S
C1630 C1631 1.387 . S
C1630 H1634 0.950 . S
C1630 C1639 1.390 . S
C1631 C1630 1.387 . S
C1631 C1633 1.387 . S
H1632 C1639 0.950 . S
C1633 C1631 1.387 . S
C1633 C1635 1.390 . S
C1633 H1637 0.950 . S
H1634 C1630 0.950 . S
C1635 C1633 1.390 . S
C1635 C1636 1.387 . S
C1635 H1638 0.950 . S
C1636 C1635 1.387 . S
C1636 C1639 1.387 . S
H1637 C1633 0.950 . S
H1638 C1635 0.950 . S
C1639 C1630 1.390 . S
C1639 H1632 0.950 . S
C1639 C1636 1.387 . S
C1640 C1641 1.387 . S
C1640 H1644 0.950 . S
C1640 C1649 1.390 . S
C1641 C1640 1.387 . S
C1641 C1643 1.387 . S
H1642 C1649 0.950 . S
C1643 C1641 1.387 . S
C1643 C1645 1.390 . S
C1643 H1647 0.950 . S
H1644 C1640 0.950 . S
C1645 C1643 1.390 . S
C1645 C1646 1.387 . S
C1645 H1648 0.950 . S
C1646 C1645 1.387 . S
C1646 C1649 1.387 . S
H1647 C1643 0.950 . S
H1648 C1645 0.950 . S
C1649 C1640 1.390 . S
C1649 H1642 0.950 . S
C1649 C1646 1.387 . S
C1650 C1651 1.387 1_556 S
C1650 H1654 0.950 . S
C1650 C1659 1.390 . S
C1651 C1650 1.387 1_554 S
C1651 C1653 1.387 . S
H1652 C1659 0.950 . S
C1653 C1651 1.387 . S
C1653 C1655 1.390 . S
C1653 H1657 0.950 . S
H1654 C1650 0.950 . S
C1655 C1653 1.390 . S
C1655 C1656 1.387 . S
C1655 H1658 0.950 . S
C1656 C1655 1.387 . S
C1656 C1659 1.387 1_554 S
H1657 C1653 0.950 . S
H1658 C1655 0.950 . S
C1659 C1650 1.390 . S
C1659 H1652 0.950 . S
C1659 C1656 1.387 1_556 S
C1660 C1661 1.387 1_556 S
C1660 H1664 0.950 . S
C1660 C1669 1.390 . S
C1661 C1660 1.387 1_554 S
C1661 C1663 1.387 . S
H1662 C1669 0.950 . S
C1663 C1661 1.387 . S
C1663 C1665 1.390 . S
C1663 H1667 0.950 . S
H1664 C1660 0.950 . S
C1665 C1663 1.390 . S
C1665 C1666 1.387 . S
C1665 H1668 0.950 . S
C1666 C1665 1.387 . S
C1666 C1669 1.387 1_554 S
H1667 C1663 0.950 . S
H1668 C1665 0.950 . S
C1669 C1660 1.390 . S
C1669 H1662 0.950 . S
C1669 C1666 1.387 1_556 S
C1670 C1671 1.387 1_556 S
C1670 H1674 0.950 . S
C1670 C1679 1.390 . S
C1671 C1670 1.387 1_554 S
C1671 C1673 1.387 . S
H1672 C1679 0.950 . S
C1673 C1671 1.387 . S
C1673 C1675 1.390 . S
C1673 H1677 0.950 . S
H1674 C1670 0.950 . S
C1675 C1673 1.390 . S
C1675 C1676 1.387 . S
C1675 H1678 0.950 . S
C1676 C1675 1.387 . S
C1676 C1679 1.387 1_554 S
H1677 C1673 0.950 . S
H1678 C1675 0.950 . S
C1679 C1670 1.390 . S
C1679 H1672 0.950 . S
C1679 C1676 1.387 1_556 S
C1680 C1681 1.387 . S
C1680 H1684 0.950 . S
C1680 C1689 1.390 . S
C1681 C1680 1.387 . S
C1681 C1683 1.387 . S
H1682 C1689 0.950 . S
C1683 C1681 1.387 . S
C1683 C1685 1.390 . S
C1683 H1687 0.950 . S
H1684 C1680 0.950 . S
C1685 C1683 1.390 . S
C1685 C1686 1.387 . S
C1685 H1688 0.950 . S
C1686 C1685 1.387 . S
C1686 C1689 1.387 . S
H1687 C1683 0.950 . S
H1688 C1685 0.950 . S
C1689 C1680 1.390 . S
C1689 H1682 0.950 . S
C1689 C1686 1.387 . S
C1690 C1691 1.387 . S
C1690 H1694 0.950 . S
C1690 C1699 1.390 . S
C1691 C1690 1.387 . S
C1691 C1693 1.387 . S
H1692 C1699 0.950 . S
C1693 C1691 1.387 . S
C1693 C1695 1.390 . S
C1693 H1697 0.950 . S
H1694 C1690 0.950 . S
C1695 C1693 1.390 . S
C1695 C1696 1.387 . S
C1695 H1698 0.950 . S
C1696 C1695 1.387 . S
C1696 C1699 1.387 . S
H1697 C1693 0.950 . S
H1698 C1695 0.950 . S
C1699 C1690 1.390 . S
C1699 H1692 0.950 . S
C1699 C1696 1.387 . S
C1700 C1701 1.387 . S
C1700 H1704 0.950 . S
C1700 C1709 1.390 . S
C1701 C1700 1.387 . S
C1701 C1703 1.387 . S
H1702 C1709 0.950 . S
C1703 C1701 1.387 . S
C1703 C1705 1.390 . S
C1703 H1707 0.950 . S
H1704 C1700 0.950 . S
C1705 C1703 1.390 . S
C1705 C1706 1.387 . S
C1705 H1708 0.950 . S
C1706 C1705 1.387 . S
C1706 C1709 1.387 . S
H1707 C1703 0.950 . S
H1708 C1705 0.950 . S
C1709 C1700 1.390 . S
C1709 H1702 0.950 . S
C1709 C1706 1.387 . S
C1710 C1711 1.387 1_554 S
C1710 H1714 0.950 . S
C1710 C1719 1.390 . S
C1711 C1710 1.387 1_556 S
C1711 C1713 1.387 . S
H1712 C1719 0.950 . S
C1713 C1711 1.387 . S
C1713 C1715 1.390 . S
C1713 H1717 0.950 . S
H1714 C1710 0.950 . S
C1715 C1713 1.390 . S
C1715 C1716 1.387 . S
C1715 H1718 0.950 . S
C1716 C1715 1.387 . S
C1716 C1719 1.387 1_556 S
H1717 C1713 0.950 . S
H1718 C1715 0.950 . S
C1719 C1710 1.390 . S
C1719 H1712 0.950 . S
C1719 C1716 1.387 1_554 S
C1720 C1721 1.387 1_554 S
C1720 H1724 0.950 . S
C1720 C1729 1.390 . S
C1721 C1720 1.387 1_556 S
C1721 C1723 1.387 . S
H1722 C1729 0.950 . S
C1723 C1721 1.387 . S
C1723 C1725 1.390 . S
C1723 H1727 0.950 . S
H1724 C1720 0.950 . S
C1725 C1723 1.390 . S
C1725 C1726 1.387 . S
C1725 H1728 0.950 . S
C1726 C1725 1.387 . S
C1726 C1729 1.387 1_556 S
H1727 C1723 0.950 . S
H1728 C1725 0.950 . S
C1729 C1720 1.390 . S
C1729 H1722 0.950 . S
C1729 C1726 1.387 1_554 S
C1730 C1731 1.387 1_554 S
C1730 H1734 0.950 . S
C1730 C1739 1.390 . S
C1731 C1730 1.387 1_556 S
C1731 C1733 1.387 . S
H1732 C1739 0.950 . S
C1733 C1731 1.387 . S
C1733 C1735 1.390 . S
C1733 H1737 0.950 . S
H1734 C1730 0.950 . S
C1735 C1733 1.390 . S
C1735 C1736 1.387 . S
C1735 H1738 0.950 . S
C1736 C1735 1.387 . S
C1736 C1739 1.387 1_556 S
H1737 C1733 0.950 . S
H1738 C1735 0.950 . S
C1739 C1730 1.390 . S
C1739 H1732 0.950 . S
C1739 C1736 1.387 1_554 S
C1740 C1741 1.387 . S
C1740 H1744 0.950 . S
C1740 C1749 1.390 . S
C1741 C1740 1.387 . S
C1741 C1743 1.387 . S
H1742 C1749 0.950 . S
C1743 C1741 1.387 . S
C1743 C1745 1.390 . S
C1743 H1747 0.950 . S
H1744 C1740 0.950 . S
C1745 C1743 1.390 . S
C1745 C1746 1.387 . S
C1745 H1748 0.950 . S
C1746 C1745 1.387 . S
C1746 C1749 1.387 . S
H1747 C1743 0.950 . S
H1748 C1745 0.950 . S
C1749 C1740 1.390 . S
C1749 H1742 0.950 . S
C1749 C1746 1.387 . S
C1750 C1751 1.387 . S
C1750 H1754 0.950 . S
C1750 C1759 1.390 . S
C1751 C1750 1.387 . S
C1751 C1753 1.387 . S
H1752 C1759 0.950 . S
C1753 C1751 1.387 . S
C1753 C1755 1.390 . S
C1753 H1757 0.950 . S
H1754 C1750 0.950 . S
C1755 C1753 1.390 . S
C1755 C1756 1.387 . S
C1755 H1758 0.950 . S
C1756 C1755 1.387 . S
C1756 C1759 1.387 . S
H1757 C1753 0.950 . S
H1758 C1755 0.950 . S
C1759 C1750 1.390 . S
C1759 H1752 0.950 . S
C1759 C1756 1.387 . S
C1760 C1761 1.387 . S
C1760 H1764 0.950 . S
C1760 C1769 1.390 . S
C1761 C1760 1.387 . S
C1761 C1763 1.387 . S
H1762 C1769 0.950 . S
C1763 C1761 1.387 . S
C1763 C1765 1.390 . S
C1763 H1767 0.950 . S
H1764 C1760 0.950 . S
C1765 C1763 1.390 . S
C1765 C1766 1.387 . S
C1765 H1768 0.950 . S
C1766 C1765 1.387 . S
C1766 C1769 1.387 . S
H1767 C1763 0.950 . S
H1768 C1765 0.950 . S
C1769 C1760 1.390 . S
C1769 H1762 0.950 . S
C1769 C1766 1.387 . S
C1770 C1771 1.387 . S
C1770 H1774 0.950 . S
C1770 C1779 1.390 . S
C1771 C1770 1.387 . S
C1771 C1773 1.387 . S
H1772 C1779 0.950 . S
C1773 C1771 1.387 . S
C1773 C1775 1.390 . S
C1773 H1777 0.950 . S
H1774 C1770 0.950 . S
C1775 C1773 1.390 . S
C1775 C1776 1.387 . S
C1775 H1778 0.950 . S
C1776 C1775 1.387 . S
C1776 C1779 1.387 . S
H1777 C1773 0.950 . S
H1778 C1775 0.950 . S
C1779 C1770 1.390 . S
C1779 H1772 0.950 . S
C1779 C1776 1.387 . S
C1780 C1781 1.387 . S
C1780 H1784 0.950 . S
C1780 C1789 1.390 . S
C1781 C1780 1.387 . S
C1781 C1783 1.387 . S
H1782 C1789 0.950 . S
C1783 C1781 1.387 . S
C1783 C1785 1.390 . S
C1783 H1787 0.950 . S
H1784 C1780 0.950 . S
C1785 C1783 1.390 . S
C1785 C1786 1.387 . S
C1785 H1788 0.950 . S
C1786 C1785 1.387 . S
C1786 C1789 1.387 . S
H1787 C1783 0.950 . S
H1788 C1785 0.950 . S
C1789 C1780 1.390 . S
C1789 H1782 0.950 . S
C1789 C1786 1.387 . S
C1790 C1791 1.387 . S
C1790 H1794 0.950 . S
C1790 C1799 1.390 . S
C1791 C1790 1.387 . S
C1791 C1793 1.387 . S
H1792 C1799 0.950 . S
C1793 C1791 1.387 . S
C1793 C1795 1.390 . S
C1793 H1797 0.950 . S
H1794 C1790 0.950 . S
C1795 C1793 1.390 . S
C1795 C1796 1.387 . S
C1795 H1798 0.950 . S
C1796 C1795 1.387 . S
C1796 C1799 1.387 . S
H1797 C1793 0.950 . S
H1798 C1795 0.950 . S
C1799 C1790 1.390 . S
C1799 H1792 0.950 . S
C1799 C1796 1.387 . S
C1800 C1801 1.387 . S
C1800 H1804 0.950 . S
C1800 C1809 1.390 . S
C1801 C1800 1.387 . S
C1801 C1803 1.387 . S
H1802 C1809 0.950 . S
C1803 C1801 1.387 . S
C1803 C1805 1.390 . S
C1803 H1807 0.950 . S
H1804 C1800 0.950 . S
C1805 C1803 1.390 . S
C1805 C1806 1.387 . S
C1805 H1808 0.950 . S
C1806 C1805 1.387 . S
C1806 C1809 1.387 . S
H1807 C1803 0.950 . S
H1808 C1805 0.950 . S
C1809 C1800 1.390 . S
C1809 H1802 0.950 . S
C1809 C1806 1.387 . S
C1810 C1811 1.387 . S
C1810 H1814 0.950 . S
C1810 C1819 1.390 . S
C1811 C1810 1.387 . S
C1811 C1813 1.387 . S
H1812 C1819 0.950 . S
C1813 C1811 1.387 . S
C1813 C1815 1.390 . S
C1813 H1817 0.950 1_565 S
H1814 C1810 0.950 . S
C1815 C1813 1.390 . S
C1815 C1816 1.387 . S
C1815 H1818 0.950 . S
C1816 C1815 1.387 . S
C1816 C1819 1.387 . S
H1817 C1813 0.950 1_545 S
H1818 C1815 0.950 . S
C1819 C1810 1.390 . S
C1819 H1812 0.950 . S
C1819 C1816 1.387 . S
C1820 C1821 1.387 . S
C1820 H1824 0.950 . S
C1820 C1829 1.390 . S
C1821 C1820 1.387 . S
C1821 C1823 1.387 . S
H1822 C1829 0.947 1_655 S
C1823 C1821 1.387 . S
C1823 C1825 1.390 . S
C1823 H1827 0.950 . S
H1824 C1820 0.950 . S
C1825 C1823 1.390 . S
C1825 C1826 1.387 . S
C1825 H1828 0.950 . S
C1826 C1825 1.387 . S
C1826 C1829 1.387 . S
H1827 C1823 0.950 . S
H1828 C1825 0.950 . S
C1829 C1820 1.390 . S
C1829 H1822 0.947 1_455 S
C1829 C1826 1.387 . S
C1830 C1831 1.387 . S
C1830 H1834 0.950 . S
C1830 C1839 1.390 . S
C1831 C1830 1.387 . S
C1831 C1833 1.387 . S
H1832 C1839 0.950 . S
C1833 C1831 1.387 . S
C1833 C1835 1.390 . S
C1833 H1837 0.950 . S
H1834 C1830 0.950 . S
C1835 C1833 1.390 . S
C1835 C1836 1.387 . S
C1835 H1838 0.950 . S
C1836 C1835 1.387 . S
C1836 C1839 1.387 . S
H1837 C1833 0.950 . S
H1838 C1835 0.950 . S
C1839 C1830 1.390 . S
C1839 H1832 0.950 . S
C1839 C1836 1.387 . S
C1840 C1841 1.387 . S
C1840 H1844 0.950 . S
C1840 C1849 1.390 . S
C1841 C1840 1.387 . S
C1841 C1843 1.387 . S
H1842 C1849 0.950 . S
C1843 C1841 1.387 . S
C1843 C1845 1.390 . S
C1843 H1847 0.950 . S
H1844 C1840 0.950 . S
C1845 C1843 1.390 . S
C1845 C1846 1.387 . S
C1845 H1848 0.950 . S
C1846 C1845 1.387 . S
C1846 C1849 1.387 . S
H1847 C1843 0.950 . S
H1848 C1845 0.950 . S
C1849 C1840 1.390 . S
C1849 H1842 0.950 . S
C1849 C1846 1.387 . S
C1850 C1851 1.387 . S
C1850 H1854 0.950 . S
C1850 C1859 1.390 . S
C1851 C1850 1.387 . S
C1851 C1853 1.387 . S
H1852 C1859 0.950 . S
C1853 C1851 1.387 . S
C1853 C1855 1.390 . S
C1853 H1857 0.950 . S
H1854 C1850 0.950 . S
C1855 C1853 1.390 . S
C1855 C1856 1.387 . S
C1855 H1858 0.950 . S
C1856 C1855 1.387 . S
C1856 C1859 1.387 . S
H1857 C1853 0.950 . S
H1858 C1855 0.950 . S
C1859 C1850 1.390 . S
C1859 H1852 0.950 . S
C1859 C1856 1.387 . S
C1860 C1861 1.387 . S
C1860 H1864 0.950 . S
C1860 C1869 1.390 . S
C1861 C1860 1.387 . S
C1861 C1863 1.387 . S
H1862 C1869 0.950 . S
C1863 C1861 1.387 . S
C1863 C1865 1.390 . S
C1863 H1867 0.950 . S
H1864 C1860 0.950 . S
C1865 C1863 1.390 . S
C1865 C1866 1.387 . S
C1865 H1868 0.950 . S
C1866 C1865 1.387 . S
C1866 C1869 1.387 . S
H1867 C1863 0.950 . S
H1868 C1865 0.950 . S
C1869 C1860 1.390 . S
C1869 H1862 0.950 . S
C1869 C1866 1.387 . S
C1870 C1871 1.387 . S
C1870 H1874 0.950 . S
C1870 C1879 1.390 . S
C1871 C1870 1.387 . S
C1871 C1873 1.387 . S
H1872 C1879 0.950 . S
C1873 C1871 1.387 . S
C1873 C1875 1.390 . S
C1873 H1877 0.950 . S
H1874 C1870 0.950 . S
C1875 C1873 1.390 . S
C1875 C1876 1.387 . S
C1875 H1878 0.950 . S
C1876 C1875 1.387 . S
C1876 C1879 1.387 . S
H1877 C1873 0.950 . S
H1878 C1875 0.950 . S
C1879 C1870 1.390 . S
C1879 H1872 0.950 . S
C1879 C1876 1.387 . S
C1880 C1881 1.387 . S
C1880 H1884 0.950 . S
C1880 C1889 1.390 . S
C1881 C1880 1.387 . S
C1881 C1883 1.387 . S
H1882 C1889 0.950 . S
C1883 C1881 1.387 . S
C1883 C1885 1.390 . S
C1883 H1887 0.950 . S
H1884 C1880 0.950 . S
C1885 C1883 1.390 . S
C1885 C1886 1.387 . S
C1885 H1888 0.950 . S
C1886 C1885 1.387 . S
C1886 C1889 1.387 . S
H1887 C1883 0.950 . S
H1888 C1885 0.950 . S
C1889 C1880 1.390 . S
C1889 H1882 0.950 . S
C1889 C1886 1.387 . S
C1890 C1891 1.387 . S
C1890 H1894 0.950 . S
C1890 C1899 1.390 . S
C1891 C1890 1.387 . S
C1891 C1893 1.387 . S
H1892 C1899 0.950 . S
C1893 C1891 1.387 . S
C1893 C1895 1.390 . S
C1893 H1897 0.950 . S
H1894 C1890 0.950 . S
C1895 C1893 1.390 . S
C1895 C1896 1.387 . S
C1895 H1898 0.950 . S
C1896 C1895 1.387 . S
C1896 C1899 1.387 . S
H1897 C1893 0.950 . S
H1898 C1895 0.950 . S
C1899 C1890 1.390 . S
C1899 H1892 0.950 . S
C1899 C1896 1.387 . S
C1900 C1901 1.387 . S
C1900 H1904 0.950 . S
C1900 C1909 1.390 . S
C1901 C1900 1.387 . S
C1901 C1903 1.387 . S
H1902 C1909 0.950 . S
C1903 C1901 1.387 . S
C1903 C1905 1.390 . S
C1903 H1907 0.950 . S
H1904 C1900 0.950 . S
C1905 C1903 1.390 . S
C1905 C1906 1.387 . S
C1905 H1908 0.950 . S
C1906 C1905 1.387 . S
C1906 C1909 1.387 . S
H1907 C1903 0.950 . S
H1908 C1905 0.950 . S
C1909 C1900 1.390 . S
C1909 H1902 0.950 . S
C1909 C1906 1.387 . S
C1910 C1911 1.387 . S
C1910 H1914 0.950 . S
C1910 C1919 1.390 . S
C1911 C1910 1.387 . S
C1911 C1913 1.387 . S
H1912 C1919 0.950 . S
C1913 C1911 1.387 . S
C1913 C1915 1.390 . S
C1913 H1917 0.950 . S
H1914 C1910 0.950 . S
C1915 C1913 1.390 . S
C1915 C1916 1.387 . S
C1915 H1918 0.950 . S
C1916 C1915 1.387 . S
C1916 C1919 1.387 . S
H1917 C1913 0.950 . S
H1918 C1915 0.950 . S
C1919 C1910 1.390 . S
C1919 H1912 0.950 . S
C1919 C1916 1.387 . S
C1920 C1921 1.387 1_455 S
C1920 H1924 0.950 1_455 S
C1920 C1929 1.390 . S
C1921 C1920 1.387 1_655 S
C1921 C1923 1.387 1_655 S
H1922 C1929 0.950 . S
C1923 C1921 1.387 1_455 S
C1923 C1925 1.390 . S
C1923 H1927 0.950 1_455 S
H1924 C1920 0.950 1_655 S
C1925 C1923 1.390 . S
C1925 C1926 1.387 . S
C1925 H1928 0.950 . S
C1926 C1925 1.387 . S
C1926 C1929 1.387 . S
H1927 C1923 0.950 1_655 S
H1928 C1925 0.950 . S
C1929 C1920 1.390 . S
C1929 H1922 0.950 . S
C1929 C1926 1.387 . S
C1930 C1931 1.387 . S
C1930 H1934 0.950 . S
C1930 C1939 1.390 . S
C1931 C1930 1.387 . S
C1931 C1933 1.387 . S
H1932 C1939 0.950 . S
C1933 C1931 1.387 . S
C1933 C1935 1.390 . S
C1933 H1937 0.950 . S
H1934 C1930 0.950 . S
C1935 C1933 1.390 . S
C1935 C1936 1.387 . S
C1935 H1938 0.950 . S
C1936 C1935 1.387 . S
C1936 C1939 1.387 . S
H1937 C1933 0.950 . S
H1938 C1935 0.950 . S
C1939 C1930 1.390 . S
C1939 H1932 0.950 . S
C1939 C1936 1.387 . S
C1940 C1941 1.387 . S
C1940 H1944 0.950 . S
C1940 C1949 1.390 . S
C1941 C1940 1.387 . S
C1941 C1943 1.387 . S
H1942 C1949 0.950 1_545 S
C1943 C1941 1.387 . S
C1943 C1945 1.392 1_565 S
C1943 H1947 0.950 . S
H1944 C1940 0.950 . S
C1945 C1943 1.392 1_545 S
C1945 C1946 1.387 . S
C1945 H1948 0.949 . S
C1946 C1945 1.387 . S
C1946 C1949 1.387 1_545 S
H1947 C1943 0.950 . S
H1948 C1945 0.949 . S
C1949 C1940 1.390 . S
C1949 H1942 0.950 1_565 S
C1949 C1946 1.387 1_565 S
C1950 C1951 1.387 . S
C1950 H1954 0.950 . S
C1950 C1959 1.390 . S
C1951 C1950 1.387 . S
C1951 C1953 1.387 . S
H1952 C1959 0.950 . S
C1953 C1951 1.387 . S
C1953 C1955 1.390 . S
C1953 H1957 0.950 . S
H1954 C1950 0.950 . S
C1955 C1953 1.390 . S
C1955 C1956 1.387 . S
C1955 H1958 0.950 . S
C1956 C1955 1.387 . S
C1956 C1959 1.387 . S
H1957 C1953 0.950 . S
H1958 C1955 0.950 . S
C1959 C1950 1.390 . S
C1959 H1952 0.950 . S
C1959 C1956 1.387 . S
C1960 C1961 1.387 . S
C1960 H1964 0.950 . S
C1960 C1969 1.390 . S
C1961 C1960 1.387 . S
C1961 C1963 1.387 . S
H1962 C1969 0.950 . S
C1963 C1961 1.387 . S
C1963 C1965 1.390 . S
C1963 H1967 0.950 . S
H1964 C1960 0.950 . S
C1965 C1963 1.390 . S
C1965 C1966 1.387 . S
C1965 H1968 0.950 . S
C1966 C1965 1.387 . S
C1966 C1969 1.387 . S
H1967 C1963 0.950 . S
H1968 C1965 0.950 . S
C1969 C1960 1.390 . S
C1969 H1962 0.950 . S
C1969 C1966 1.387 . S
C1970 C1971 1.387 . S
C1970 H1974 0.950 . S
C1970 C1979 1.390 . S
C1971 C1970 1.387 . S
C1971 C1973 1.387 . S
H1972 C1979 0.950 . S
C1973 C1971 1.387 . S
C1973 C1975 1.390 . S
C1973 H1977 0.950 . S
H1974 C1970 0.950 . S
C1975 C1973 1.390 . S
C1975 C1976 1.387 . S
C1975 H1978 0.950 . S
C1976 C1975 1.387 . S
C1976 C1979 1.387 . S
H1977 C1973 0.950 . S
H1978 C1975 0.950 . S
C1979 C1970 1.390 . S
C1979 H1972 0.950 . S
C1979 C1976 1.387 . S
C1980 C1981 1.387 . S
C1980 H1984 0.950 . S
C1980 C1989 1.390 . S
C1981 C1980 1.387 . S
C1981 C1983 1.387 . S
H1982 C1989 0.950 . S
C1983 C1981 1.387 . S
C1983 C1985 1.390 . S
C1983 H1987 0.950 . S
H1984 C1980 0.950 . S
C1985 C1983 1.390 . S
C1985 C1986 1.387 . S
C1985 H1988 0.950 . S
C1986 C1985 1.387 . S
C1986 C1989 1.387 . S
H1987 C1983 0.950 . S
H1988 C1985 0.950 . S
C1989 C1980 1.390 . S
C1989 H1982 0.950 . S
C1989 C1986 1.387 . S
C1990 C1991 1.387 . S
C1990 H1994 0.950 . S
C1990 C1999 1.390 . S
C1991 C1990 1.387 . S
C1991 C1993 1.387 . S
H1992 C1999 0.950 . S
C1993 C1991 1.387 . S
C1993 C1995 1.390 . S
C1993 H1997 0.950 . S
H1994 C1990 0.950 . S
C1995 C1993 1.390 . S
C1995 C1996 1.387 . S
C1995 H1998 0.950 . S
C1996 C1995 1.387 . S
C1996 C1999 1.387 . S
H1997 C1993 0.950 . S
H1998 C1995 0.950 . S
C1999 C1990 1.390 . S
C1999 H1992 0.950 . S
C1999 C1996 1.387 . S
C2000 C2001 1.387 . S
C2000 H2004 0.950 . S
C2000 C2009 1.390 . S
C2001 C2000 1.387 . S
C2001 C2003 1.387 . S
H2002 C2009 0.950 . S
C2003 C2001 1.387 . S
C2003 C2005 1.390 . S
C2003 H2007 0.950 . S
H2004 C2000 0.950 . S
C2005 C2003 1.390 . S
C2005 C2006 1.387 . S
C2005 H2008 0.950 . S
C2006 C2005 1.387 . S
C2006 C2009 1.387 . S
H2007 C2003 0.950 . S
H2008 C2005 0.950 . S
C2009 C2000 1.390 . S
C2009 H2002 0.950 . S
C2009 C2006 1.387 . S
C2010 C2011 1.346 1_554 S
C2010 H2014 0.950 . S
C2010 C2019 1.390 1_565 S
C2011 C2010 1.346 1_556 S
C2011 C2013 1.438 . S
H2012 C2019 0.950 . S
C2013 C2011 1.438 . S
C2013 C2015 1.390 . S
C2013 H2017 0.950 . S
H2014 C2010 0.950 . S
C2015 C2013 1.390 . S
C2015 C2016 1.387 1_565 S
C2015 H2018 0.950 1_565 S
C2016 C2015 1.387 1_545 S
C2016 C2019 1.387 1_556 S
H2017 C2013 0.950 . S
H2018 C2015 0.950 1_545 S
C2019 C2010 1.390 1_545 S
C2019 H2012 0.950 . S
C2019 C2016 1.387 1_554 S
C2020 C2021 1.354 1_554 S
C2020 H2024 0.950 . S
C2020 C2029 1.390 1_455 S
C2021 C2020 1.354 1_556 S
C2021 C2023 1.431 . S
H2022 C2029 0.950 . S
C2023 C2021 1.431 . S
C2023 C2025 1.390 . S
C2023 H2027 0.950 . S
H2024 C2020 0.950 . S
C2025 C2023 1.390 . S
C2025 C2026 1.387 1_455 S
C2025 H2028 0.950 1_455 S
C2026 C2025 1.387 1_655 S
C2026 C2029 1.387 1_556 S
H2027 C2023 0.950 . S
H2028 C2025 0.950 1_655 S
C2029 C2020 1.390 1_655 S
C2029 H2022 0.950 . S
C2029 C2026 1.387 1_554 S
C2030 C2031 1.387 . S
C2030 H2034 0.950 . S
C2030 C2039 1.390 . S
C2031 C2030 1.387 . S
C2031 C2033 1.387 1_556 S
H2032 C2039 0.950 . S
C2033 C2031 1.387 1_554 S
C2033 C2035 1.390 . S
C2033 H2037 0.950 . S
H2034 C2030 0.950 . S
C2035 C2033 1.390 . S
C2035 C2036 1.325 1_554 S
C2035 H2038 0.950 . S
C2036 C2035 1.325 1_556 S
C2036 C2039 1.463 . S
H2037 C2033 0.950 . S
H2038 C2035 0.950 . S
C2039 C2030 1.390 . S
C2039 H2032 0.950 . S
C2039 C2036 1.463 . S
C2040 C2041 1.387 . S
C2040 H2044 0.950 . S
C2040 C2049 1.390 . S
C2041 C2040 1.387 . S
C2041 C2043 1.387 . S
H2042 C2049 0.950 . S
C2043 C2041 1.387 . S
C2043 C2045 1.390 . S
C2043 H2047 0.950 . S
H2044 C2040 0.950 . S
C2045 C2043 1.390 . S
C2045 C2046 1.387 . S
C2045 H2048 0.950 . S
C2046 C2045 1.387 . S
C2046 C2049 1.387 . S
H2047 C2043 0.950 . S
H2048 C2045 0.950 . S
C2049 C2040 1.390 . S
C2049 H2042 0.950 . S
C2049 C2046 1.387 . S
C2050 C2051 1.387 . S
C2050 H2054 0.950 . S
C2050 C2059 1.390 . S
C2051 C2050 1.387 . S
C2051 C2053 1.387 . S
H2052 C2059 0.950 . S
C2053 C2051 1.387 . S
C2053 C2055 1.390 . S
C2053 H2057 0.950 . S
H2054 C2050 0.950 . S
C2055 C2053 1.390 . S
C2055 C2056 1.387 . S
C2055 H2058 0.950 . S
C2056 C2055 1.387 . S
C2056 C2059 1.387 . S
H2057 C2053 0.950 . S
H2058 C2055 0.950 . S
C2059 C2050 1.390 . S
C2059 H2052 0.950 . S
C2059 C2056 1.387 . S
C2060 C2061 1.387 . S
C2060 H2064 0.950 . S
C2060 C2069 1.390 . S
C2061 C2060 1.387 . S
C2061 C2063 1.387 . S
H2062 C2069 0.950 . S
C2063 C2061 1.387 . S
C2063 C2065 1.390 . S
C2063 H2067 0.950 . S
H2064 C2060 0.950 . S
C2065 C2063 1.390 . S
C2065 C2066 1.387 . S
C2065 H2068 0.950 . S
C2066 C2065 1.387 . S
C2066 C2069 1.387 . S
H2067 C2063 0.950 . S
H2068 C2065 0.950 . S
C2069 C2060 1.390 . S
C2069 H2062 0.950 . S
C2069 C2066 1.387 . S
C2070 C2071 1.387 1_545 S
C2070 H2074 0.949 1_545 S
C2070 C2079 1.391 . S
C2071 C2070 1.387 1_565 S
C2071 C2073 1.404 1_554 S
H2072 C2079 0.950 . S
C2073 C2071 1.404 1_556 S
C2073 C2075 1.372 1_565 S
C2073 H2077 0.952 . S
H2074 C2070 0.949 1_565 S
C2075 C2073 1.372 1_545 S
C2075 C2076 1.349 1_556 S
C2075 H2078 0.950 . S
C2076 C2075 1.349 1_554 S
C2076 C2079 1.441 . S
H2077 C2073 0.952 . S
H2078 C2075 0.950 . S
C2079 C2070 1.391 . S
C2079 H2072 0.950 . S
C2079 C2076 1.441 . S
C2080 C2081 1.438 . S
C2080 H2084 0.950 . S
C2080 C2089 1.390 . S
C2081 C2080 1.438 . S
C2081 C2083 1.345 1_554 S
H2082 C2089 0.950 1_455 S
C2083 C2081 1.345 1_556 S
C2083 C2085 1.390 1_655 S
C2083 H2087 0.950 . S
H2084 C2080 0.950 . S
C2085 C2083 1.390 1_455 S
C2085 C2086 1.387 1_556 S
C2085 H2088 0.950 . S
C2086 C2085 1.387 1_554 S
C2086 C2089 1.387 1_455 S
H2087 C2083 0.950 . S
H2088 C2085 0.950 . S
C2089 C2080 1.390 . S
C2089 H2082 0.950 1_655 S
C2089 C2086 1.387 1_655 S
C2090 C2091 1.387 1_556 S
C2090 H2094 0.950 . S
C2090 C2099 1.390 . S
C2091 C2090 1.387 1_554 S
C2091 C2093 1.387 . S
H2092 C2099 0.950 . S
C2093 C2091 1.387 . S
C2093 C2095 1.390 . S
C2093 H2097 0.950 . S
H2094 C2090 0.950 . S
C2095 C2093 1.390 . S
C2095 C2096 1.463 . S
C2095 H2098 0.950 . S
C2096 C2095 1.463 . S
C2096 C2099 1.326 1_554 S
H2097 C2093 0.950 . S
H2098 C2095 0.950 . S
C2099 C2090 1.390 . S
C2099 H2092 0.950 . S
C2099 C2096 1.326 1_556 S
C2100 C2101 1.387 1_655 S
C2100 H2104 0.950 1_655 S
C2100 C2109 1.390 . S
C2101 C2100 1.387 1_455 S
C2101 C2103 1.387 1_455 S
H2102 C2109 0.950 . S
C2103 C2101 1.387 1_655 S
C2103 C2105 1.390 . S
C2103 H2107 0.950 1_655 S
H2104 C2100 0.950 1_455 S
C2105 C2103 1.390 . S
C2105 C2106 1.387 . S
C2105 H2108 0.950 . S
C2106 C2105 1.387 . S
C2106 C2109 1.387 . S
H2107 C2103 0.950 1_455 S
H2108 C2105 0.950 . S
C2109 C2100 1.390 . S
C2109 H2102 0.950 . S
C2109 C2106 1.387 . S
C2110 C2111 1.387 . S
C2110 H2114 0.950 . S
C2110 C2119 1.390 . S
C2111 C2110 1.387 . S
C2111 C2113 1.387 . S
H2112 C2119 0.950 . S
C2113 C2111 1.387 . S
C2113 C2115 1.390 . S
C2113 H2117 0.950 . S
H2114 C2110 0.950 . S
C2115 C2113 1.390 . S
C2115 C2116 1.387 . S
C2115 H2118 0.950 . S
C2116 C2115 1.387 . S
C2116 C2119 1.387 . S
H2117 C2113 0.950 . S
H2118 C2115 0.950 . S
C2119 C2110 1.390 . S
C2119 H2112 0.950 . S
C2119 C2116 1.387 . S
C2120 C2121 1.387 1_545 S
C2120 H2124 0.950 1_545 S
C2120 C2129 1.390 . S
C2121 C2120 1.387 1_565 S
C2121 C2123 1.387 1_565 S
H2122 C2129 0.950 . S
C2123 C2121 1.387 1_545 S
C2123 C2125 1.390 . S
C2123 H2127 0.950 1_545 S
H2124 C2120 0.950 1_565 S
C2125 C2123 1.390 . S
C2125 C2126 1.387 . S
C2125 H2128 0.950 . S
C2126 C2125 1.387 . S
C2126 C2129 1.387 . S
H2127 C2123 0.950 1_565 S
H2128 C2125 0.950 . S
C2129 C2120 1.390 . S
C2129 H2122 0.950 . S
C2129 C2126 1.387 . S
C2130 C2131 1.387 . S
C2130 H2134 0.950 . S
C2130 C2139 1.390 . S
C2131 C2130 1.387 . S
C2131 C2133 1.387 . S
H2132 C2139 0.950 . S
C2133 C2131 1.387 . S
C2133 C2135 1.390 . S
C2133 H2137 0.950 . S
H2134 C2130 0.950 . S
C2135 C2133 1.390 . S
C2135 C2136 1.387 . S
C2135 H2138 0.950 . S
C2136 C2135 1.387 . S
C2136 C2139 1.387 . S
H2137 C2133 0.950 . S
H2138 C2135 0.950 . S
C2139 C2130 1.390 . S
C2139 H2132 0.950 . S
C2139 C2136 1.387 . S
C2140 C2141 1.387 . S
C2140 H2144 0.950 . S
C2140 C2149 1.390 . S
C2141 C2140 1.387 . S
C2141 C2143 1.387 . S
H2142 C2149 0.950 . S
C2143 C2141 1.387 . S
C2143 C2145 1.390 . S
C2143 H2147 0.950 . S
H2144 C2140 0.950 . S
C2145 C2143 1.390 . S
C2145 C2146 1.387 . S
C2145 H2148 0.950 . S
C2146 C2145 1.387 . S
C2146 C2149 1.387 . S
H2147 C2143 0.950 . S
H2148 C2145 0.950 . S
C2149 C2140 1.390 . S
C2149 H2142 0.950 . S
C2149 C2146 1.387 . S
C2150 C2151 1.387 . S
C2150 H2154 0.950 . S
C2150 C2159 1.390 . S
C2151 C2150 1.387 . S
C2151 C2153 1.387 . S
H2152 C2159 0.950 . S
C2153 C2151 1.387 . S
C2153 C2155 1.390 . S
C2153 H2157 0.950 . S
H2154 C2150 0.950 . S
C2155 C2153 1.390 . S
C2155 C2156 1.387 . S
C2155 H2158 0.950 . S
C2156 C2155 1.387 . S
C2156 C2159 1.387 . S
H2157 C2153 0.950 . S
H2158 C2155 0.950 . S
C2159 C2150 1.390 . S
C2159 H2152 0.950 . S
C2159 C2156 1.387 . S
C2160 C2161 1.387 . S
C2160 H2164 0.950 . S
C2160 C2169 1.390 . S
C2161 C2160 1.387 . S
C2161 C2163 1.387 . S
H2162 C2169 0.950 . S
C2163 C2161 1.387 . S
C2163 C2165 1.390 . S
C2163 H2167 0.950 . S
H2164 C2160 0.950 . S
C2165 C2163 1.390 . S
C2165 C2166 1.387 . S
C2165 H2168 0.950 . S
C2166 C2165 1.387 . S
C2166 C2169 1.387 . S
H2167 C2163 0.950 . S
H2168 C2165 0.950 . S
C2169 C2160 1.390 . S
C2169 H2162 0.950 . S
C2169 C2166 1.387 . S
C2170 C2171 1.387 . S
C2170 H2174 0.950 . S
C2170 C2179 1.390 . S
C2171 C2170 1.387 . S
C2171 C2173 1.387 . S
H2172 C2179 0.950 . S
C2173 C2171 1.387 . S
C2173 C2175 1.390 . S
C2173 H2177 0.950 1_565 S
H2174 C2170 0.950 . S
C2175 C2173 1.390 . S
C2175 C2176 1.387 . S
C2175 H2178 0.950 1_565 S
C2176 C2175 1.387 . S
C2176 C2179 1.387 . S
H2177 C2173 0.950 1_545 S
H2178 C2175 0.950 1_545 S
C2179 C2170 1.390 . S
C2179 H2172 0.950 . S
C2179 C2176 1.387 . S
C2180 C2181 1.387 . S
C2180 H2184 0.950 . S
C2180 C2189 1.390 . S
C2181 C2180 1.387 . S
C2181 C2183 1.387 . S
H2182 C2189 0.950 . S
C2183 C2181 1.387 . S
C2183 C2185 1.390 . S
C2183 H2187 0.950 . S
H2184 C2180 0.950 . S
C2185 C2183 1.390 . S
C2185 C2186 1.387 . S
C2185 H2188 0.950 . S
C2186 C2185 1.387 . S
C2186 C2189 1.387 . S
H2187 C2183 0.950 . S
H2188 C2185 0.950 . S
C2189 C2180 1.390 . S
C2189 H2182 0.950 . S
C2189 C2186 1.387 . S
C2190 C2191 1.387 . S
C2190 H2194 0.950 . S
C2190 C2199 1.390 . S
C2191 C2190 1.387 . S
C2191 C2193 1.387 . S
H2192 C2199 0.950 . S
C2193 C2191 1.387 . S
C2193 C2195 1.390 . S
C2193 H2197 0.950 . S
H2194 C2190 0.950 . S
C2195 C2193 1.390 . S
C2195 C2196 1.387 . S
C2195 H2198 0.950 . S
C2196 C2195 1.387 . S
C2196 C2199 1.387 . S
H2197 C2193 0.950 . S
H2198 C2195 0.950 . S
C2199 C2190 1.390 . S
C2199 H2192 0.950 . S
C2199 C2196 1.387 . S
C2200 C2201 1.387 . S
C2200 H2204 0.950 1_545 S
C2200 C2209 1.390 . S
C2201 C2200 1.387 . S
C2201 C2203 1.387 . S
H2202 C2209 0.950 1_565 S
C2203 C2201 1.387 . S
C2203 C2205 1.390 . S
C2203 H2207 0.950 . S
H2204 C2200 0.950 1_565 S
C2205 C2203 1.390 . S
C2205 C2206 1.387 . S
C2205 H2208 0.950 . S
C2206 C2205 1.387 . S
C2206 C2209 1.387 . S
H2207 C2203 0.950 . S
H2208 C2205 0.950 . S
C2209 C2200 1.390 . S
C2209 H2202 0.950 1_545 S
C2209 C2206 1.387 . S
C2210 C2211 1.387 . S
C2210 H2214 0.950 . S
C2210 C2219 1.390 . S
C2211 C2210 1.387 . S
C2211 C2213 1.387 . S
H2212 C2219 0.950 . S
C2213 C2211 1.387 . S
C2213 C2215 1.390 . S
C2213 H2217 0.950 1_655 S
H2214 C2210 0.950 . S
C2215 C2213 1.390 . S
C2215 C2216 1.387 . S
C2215 H2218 0.950 1_655 S
C2216 C2215 1.387 . S
C2216 C2219 1.387 . S
H2217 C2213 0.950 1_455 S
H2218 C2215 0.950 1_455 S
C2219 C2210 1.390 . S
C2219 H2212 0.950 . S
C2219 C2216 1.387 . S
C2220 C2221 1.387 . S
C2220 H2224 0.950 . S
C2220 C2229 1.390 . S
C2221 C2220 1.387 . S
C2221 C2223 1.387 . S
H2222 C2229 0.950 . S
C2223 C2221 1.387 . S
C2223 C2225 1.390 . S
C2223 H2227 0.950 . S
H2224 C2220 0.950 . S
C2225 C2223 1.390 . S
C2225 C2226 1.387 . S
C2225 H2228 0.950 . S
C2226 C2225 1.387 . S
C2226 C2229 1.387 . S
H2227 C2223 0.950 . S
H2228 C2225 0.950 . S
C2229 C2220 1.390 . S
C2229 H2222 0.950 . S
C2229 C2226 1.387 . S
C2230 C2231 1.387 . S
C2230 H2234 0.950 . S
C2230 C2239 1.390 . S
C2231 C2230 1.387 . S
C2231 C2233 1.387 . S
H2232 C2239 0.950 . S
C2233 C2231 1.387 . S
C2233 C2235 1.390 . S
C2233 H2237 0.950 . S
H2234 C2230 0.950 . S
C2235 C2233 1.390 . S
C2235 C2236 1.387 . S
C2235 H2238 0.950 . S
C2236 C2235 1.387 . S
C2236 C2239 1.387 . S
H2237 C2233 0.950 . S
H2238 C2235 0.950 . S
C2239 C2230 1.390 . S
C2239 H2232 0.950 . S
C2239 C2236 1.387 . S
C2240 C2241 1.387 . S
C2240 H2244 0.950 . S
C2240 C2249 1.390 . S
C2241 C2240 1.387 . S
C2241 C2243 1.387 . S
H2242 C2249 0.950 . S
C2243 C2241 1.387 . S
C2243 C2245 1.390 . S
C2243 H2247 0.950 1_655 S
H2244 C2240 0.950 . S
C2245 C2243 1.390 . S
C2245 C2246 1.387 . S
C2245 H2248 0.950 1_655 S
C2246 C2245 1.387 . S
C2246 C2249 1.387 . S
H2247 C2243 0.950 1_455 S
H2248 C2245 0.950 1_455 S
C2249 C2240 1.390 . S
C2249 H2242 0.950 . S
C2249 C2246 1.387 . S
C2250 C2251 1.387 . S
C2250 H2254 0.950 . S
C2250 C2259 1.390 . S
C2251 C2250 1.387 . S
C2251 C2253 1.387 . S
H2252 C2259 0.950 . S
C2253 C2251 1.387 . S
C2253 C2255 1.390 . S
C2253 H2257 0.950 . S
H2254 C2250 0.950 . S
C2255 C2253 1.390 . S
C2255 C2256 1.387 . S
C2255 H2258 0.950 . S
C2256 C2255 1.387 . S
C2256 C2259 1.387 . S
H2257 C2253 0.950 . S
H2258 C2255 0.950 . S
C2259 C2250 1.390 . S
C2259 H2252 0.950 . S
C2259 C2256 1.387 . S
C2260 C2261 1.387 . S
C2260 H2264 0.950 . S
C2260 C2269 1.390 . S
C2261 C2260 1.387 . S
C2261 C2263 1.387 . S
H2262 C2269 0.950 . S
C2263 C2261 1.387 . S
C2263 C2265 1.390 . S
C2263 H2267 0.950 1_565 S
H2264 C2260 0.950 . S
C2265 C2263 1.390 . S
C2265 C2266 1.387 . S
C2265 H2268 0.950 1_565 S
C2266 C2265 1.387 . S
C2266 C2269 1.387 . S
H2267 C2263 0.950 1_545 S
H2268 C2265 0.950 1_545 S
C2269 C2260 1.390 . S
C2269 H2262 0.950 . S
C2269 C2266 1.387 . S
C2270 C2271 1.387 . S
C2270 H2274 0.950 1_455 S
C2270 C2279 1.390 . S
C2271 C2270 1.387 . S
C2271 C2273 1.387 . S
H2272 C2279 0.950 1_655 S
C2273 C2271 1.387 . S
C2273 C2275 1.390 . S
C2273 H2277 0.950 . S
H2274 C2270 0.950 1_655 S
C2275 C2273 1.390 . S
C2275 C2276 1.387 . S
C2275 H2278 0.950 . S
C2276 C2275 1.387 . S
C2276 C2279 1.387 . S
H2277 C2273 0.950 . S
H2278 C2275 0.950 . S
C2279 C2270 1.390 . S
C2279 H2272 0.950 1_455 S
C2279 C2276 1.387 . S
C2280 C2281 1.387 . S
C2280 H2284 0.950 . S
C2280 C2289 1.390 . S
C2281 C2280 1.387 . S
C2281 C2283 1.387 1_455 S
H2282 C2289 0.950 . S
C2283 C2281 1.387 1_655 S
C2283 C2285 1.390 . S
C2283 H2287 0.950 . S
H2284 C2280 0.950 . S
C2285 C2283 1.390 . S
C2285 C2286 1.387 . S
C2285 H2288 0.950 . S
C2286 C2285 1.387 . S
C2286 C2289 1.387 1_655 S
H2287 C2283 0.950 . S
H2288 C2285 0.950 . S
C2289 C2280 1.390 . S
C2289 H2282 0.950 . S
C2289 C2286 1.387 1_455 S
C2290 C2291 1.387 . S
C2290 H2294 0.950 . S
C2290 C2299 1.390 . S
C2291 C2290 1.387 . S
C2291 C2293 1.387 . S
H2292 C2299 0.950 . S
C2293 C2291 1.387 . S
C2293 C2295 1.390 . S
C2293 H2297 0.950 . S
H2294 C2290 0.950 . S
C2295 C2293 1.390 . S
C2295 C2296 1.387 . S
C2295 H2298 0.950 . S
C2296 C2295 1.387 . S
C2296 C2299 1.387 . S
H2297 C2293 0.950 . S
H2298 C2295 0.950 . S
C2299 C2290 1.390 . S
C2299 H2292 0.950 . S
C2299 C2296 1.387 . S
C2300 C2301 1.387 . S
C2300 H2304 0.950 . S
C2300 C2309 1.391 . S
C2301 C2300 1.387 . S
C2301 C2303 1.387 . S
H2302 C2309 0.953 1_545 S
C2303 C2301 1.387 . S
C2303 C2305 1.392 . S
C2303 H2307 0.950 . S
H2304 C2300 0.950 . S
C2305 C2303 1.392 . S
C2305 C2306 1.393 1_565 S
C2305 H2308 0.942 1_565 S
C2306 C2305 1.393 1_545 S
C2306 C2309 1.383 1_545 S
H2307 C2303 0.950 . S
H2308 C2305 0.942 1_545 S
C2309 C2300 1.391 . S
C2309 H2302 0.953 1_565 S
C2309 C2306 1.383 1_565 S
C2310 C2311 1.387 1_545 S
C2310 H2314 0.959 1_545 S
C2310 C2319 1.390 . S
C2311 C2310 1.387 1_565 S
C2311 C2313 1.393 1_565 S
H2312 C2319 0.950 . S
C2313 C2311 1.393 1_545 S
C2313 C2315 1.392 . S
C2313 H2317 0.942 1_545 S
H2314 C2310 0.959 1_565 S
C2315 C2313 1.392 . S
C2315 C2316 1.387 . S
C2315 H2318 0.950 . S
C2316 C2315 1.387 . S
C2316 C2319 1.387 . S
H2317 C2313 0.942 1_565 S
H2318 C2315 0.950 . S
C2319 C2310 1.390 . S
C2319 H2312 0.950 . S
C2319 C2316 1.387 . S
C2320 C2321 1.387 . S
C2320 H2324 0.950 . S
C2320 C2329 1.390 . S
C2321 C2320 1.387 . S
C2321 C2323 1.387 . S
H2322 C2329 0.950 . S
C2323 C2321 1.387 . S
C2323 C2325 1.390 1_655 S
C2323 H2327 0.950 . S
H2324 C2320 0.950 . S
C2325 C2323 1.390 1_455 S
C2325 C2326 1.387 . S
C2325 H2328 0.950 . S
C2326 C2325 1.387 . S
C2326 C2329 1.387 1_455 S
H2327 C2323 0.950 . S
H2328 C2325 0.950 . S
C2329 C2320 1.390 . S
C2329 H2322 0.950 . S
C2329 C2326 1.387 1_655 S
C2330 C2331 1.387 . S
C2330 H2334 0.950 . S
C2330 C2339 1.390 . S
C2331 C2330 1.387 . S
C2331 C2333 1.387 . S
H2332 C2339 0.950 . S
C2333 C2331 1.387 . S
C2333 C2335 1.390 . S
C2333 H2337 0.950 . S
H2334 C2330 0.950 . S
C2335 C2333 1.390 . S
C2335 C2336 1.387 . S
C2335 H2338 0.950 . S
C2336 C2335 1.387 . S
C2336 C2339 1.387 . S
H2337 C2333 0.950 . S
H2338 C2335 0.950 . S
C2339 C2330 1.390 . S
C2339 H2332 0.950 . S
C2339 C2336 1.387 . S
C2340 C2341 1.387 1_455 S
C2340 H2344 0.950 . S
C2340 C2349 1.390 . S
C2341 C2340 1.387 1_655 S
C2341 C2343 1.387 . S
H2342 C2349 0.950 . S
C2343 C2341 1.387 . S
C2343 C2345 1.390 . S
C2343 H2347 0.950 . S
H2344 C2340 0.950 . S
C2345 C2343 1.390 . S
C2345 C2346 1.387 1_655 S
C2345 H2348 0.950 . S
C2346 C2345 1.387 1_455 S
C2346 C2349 1.387 . S
H2347 C2343 0.950 . S
H2348 C2345 0.950 . S
C2349 C2340 1.390 . S
C2349 H2342 0.950 . S
C2349 C2346 1.387 . S
C2350 C2351 1.387 . S
C2350 H2354 0.950 . S
C2350 C2359 1.390 . S
C2351 C2350 1.387 . S
C2351 C2353 1.387 . S
H2352 C2359 0.950 . S
C2353 C2351 1.387 . S
C2353 C2355 1.390 . S
C2353 H2357 0.950 . S
H2354 C2350 0.950 . S
C2355 C2353 1.390 . S
C2355 C2356 1.387 . S
C2355 H2358 0.950 . S
C2356 C2355 1.387 . S
C2356 C2359 1.387 . S
H2357 C2353 0.950 . S
H2358 C2355 0.950 . S
C2359 C2350 1.390 . S
C2359 H2352 0.950 . S
C2359 C2356 1.387 . S
C2360 C2361 1.387 . S
C2360 H2364 0.950 . S
C2360 C2369 1.390 . S
C2361 C2360 1.387 . S
C2361 C2363 1.387 1_545 S
H2362 C2369 0.950 . S
C2363 C2361 1.387 1_565 S
C2363 C2365 1.390 . S
C2363 H2367 0.950 . S
H2364 C2360 0.950 . S
C2365 C2363 1.390 . S
C2365 C2366 1.387 . S
C2365 H2368 0.950 . S
C2366 C2365 1.387 . S
C2366 C2369 1.387 1_565 S
H2367 C2363 0.950 . S
H2368 C2365 0.950 . S
C2369 C2360 1.390 . S
C2369 H2362 0.950 . S
C2369 C2366 1.387 1_545 S
C2370 C2371 1.387 . S
C2370 H2374 0.950 . S
C2370 C2379 1.390 . S
C2371 C2370 1.387 . S
C2371 C2373 1.387 1_655 S
H2372 C2379 0.950 . S
C2373 C2371 1.387 1_455 S
C2373 C2375 1.390 . S
C2373 H2377 0.950 . S
H2374 C2370 0.950 . S
C2375 C2373 1.390 . S
C2375 C2376 1.387 . S
C2375 H2378 0.950 . S
C2376 C2375 1.387 . S
C2376 C2379 1.387 1_455 S
H2377 C2373 0.950 . S
H2378 C2375 0.950 . S
C2379 C2370 1.390 . S
C2379 H2372 0.950 . S
C2379 C2376 1.387 1_655 S
C2380 C2381 1.387 . S
C2380 H2384 0.950 . S
C2380 C2389 1.390 . S
C2381 C2380 1.387 . S
C2381 C2383 1.387 . S
H2382 C2389 0.950 . S
C2383 C2381 1.387 . S
C2383 C2385 1.390 . S
C2383 H2387 0.950 . S
H2384 C2380 0.950 . S
C2385 C2383 1.390 . S
C2385 C2386 1.387 . S
C2385 H2388 0.950 . S
C2386 C2385 1.387 . S
C2386 C2389 1.387 . S
H2387 C2383 0.950 . S
H2388 C2385 0.950 . S
C2389 C2380 1.390 . S
C2389 H2382 0.950 . S
C2389 C2386 1.387 . S
C2390 C2391 1.387 . S
C2390 H2394 0.950 . S
C2390 C2399 1.390 1_545 S
C2391 C2390 1.387 . S
C2391 C2393 1.387 . S
H2392 C2399 0.950 . S
C2393 C2391 1.387 . S
C2393 C2395 1.390 1_545 S
C2393 H2397 0.950 . S
H2394 C2390 0.950 . S
C2395 C2393 1.390 1_565 S
C2395 C2396 1.387 . S
C2395 H2398 0.950 . S
C2396 C2395 1.387 . S
C2396 C2399 1.387 . S
H2397 C2393 0.950 . S
H2398 C2395 0.950 . S
C2399 C2390 1.390 1_565 S
C2399 H2392 0.950 . S
C2399 C2396 1.387 . S
C2400 C2401 1.387 . S
C2400 H2404 0.950 . S
C2400 C2409 1.390 . S
C2401 C2400 1.387 . S
C2401 C2403 1.387 . S
H2402 C2409 0.950 . S
C2403 C2401 1.387 . S
C2403 C2405 1.390 . S
C2403 H2407 0.950 . S
H2404 C2400 0.950 . S
C2405 C2403 1.390 . S
C2405 C2406 1.387 . S
C2405 H2408 0.950 . S
C2406 C2405 1.387 . S
C2406 C2409 1.387 . S
H2407 C2403 0.950 . S
H2408 C2405 0.950 . S
C2409 C2400 1.390 . S
C2409 H2402 0.950 . S
C2409 C2406 1.387 . S
C2410 C2411 1.387 . S
C2410 H2414 0.950 . S
C2410 C2419 1.390 . S
C2411 C2410 1.387 . S
C2411 C2413 1.387 . S
H2412 C2419 0.950 . S
C2413 C2411 1.387 . S
C2413 C2415 1.390 . S
C2413 H2417 0.950 . S
H2414 C2410 0.950 . S
C2415 C2413 1.390 . S
C2415 C2416 1.387 . S
C2415 H2418 0.950 . S
C2416 C2415 1.387 . S
C2416 C2419 1.387 . S
H2417 C2413 0.950 . S
H2418 C2415 0.950 . S
C2419 C2410 1.390 . S
C2419 H2412 0.950 . S
C2419 C2416 1.387 . S
C2420 C2421 1.387 . S
C2420 H2424 0.950 . S
C2420 C2429 1.390 . S
C2421 C2420 1.387 . S
C2421 C2423 1.387 . S
H2422 C2429 0.950 . S
C2423 C2421 1.387 . S
C2423 C2425 1.390 . S
C2423 H2427 0.950 . S
H2424 C2420 0.950 . S
C2425 C2423 1.390 . S
C2425 C2426 1.387 . S
C2425 H2428 0.950 . S
C2426 C2425 1.387 . S
C2426 C2429 1.387 . S
H2427 C2423 0.950 . S
H2428 C2425 0.950 . S
C2429 C2420 1.390 . S
C2429 H2422 0.950 . S
C2429 C2426 1.387 . S
C2430 C2431 1.387 . S
C2430 H2434 0.950 . S
C2430 C2439 1.390 . S
C2431 C2430 1.387 . S
C2431 C2433 1.387 . S
H2432 C2439 0.950 . S
C2433 C2431 1.387 . S
C2433 C2435 1.390 . S
C2433 H2437 0.950 . S
H2434 C2430 0.950 . S
C2435 C2433 1.390 . S
C2435 C2436 1.387 . S
C2435 H2438 0.950 . S
C2436 C2435 1.387 . S
C2436 C2439 1.387 . S
H2437 C2433 0.950 . S
H2438 C2435 0.950 . S
C2439 C2430 1.390 . S
C2439 H2432 0.950 . S
C2439 C2436 1.387 . S
C2440 C2441 1.387 . S
C2440 H2444 0.950 . S
C2440 C2449 1.390 . S
C2441 C2440 1.387 . S
C2441 C2443 1.387 . S
H2442 C2449 0.950 . S
C2443 C2441 1.387 . S
C2443 C2445 1.390 . S
C2443 H2447 0.950 . S
H2444 C2440 0.950 . S
C2445 C2443 1.390 . S
C2445 C2446 1.387 . S
C2445 H2448 0.950 . S
C2446 C2445 1.387 . S
C2446 C2449 1.387 . S
H2447 C2443 0.950 . S
H2448 C2445 0.950 . S
C2449 C2440 1.390 . S
C2449 H2442 0.950 . S
C2449 C2446 1.387 . S
C2450 C2451 1.387 . S
C2450 H2454 0.950 . S
C2450 C2459 1.390 . S
C2451 C2450 1.387 . S
C2451 C2453 1.387 . S
H2452 C2459 0.950 . S
C2453 C2451 1.387 . S
C2453 C2455 1.390 . S
C2453 H2457 0.950 . S
H2454 C2450 0.950 . S
C2455 C2453 1.390 . S
C2455 C2456 1.387 . S
C2455 H2458 0.950 . S
C2456 C2455 1.387 . S
C2456 C2459 1.387 . S
H2457 C2453 0.950 . S
H2458 C2455 0.950 . S
C2459 C2450 1.390 . S
C2459 H2452 0.950 . S
C2459 C2456 1.387 . S
C2460 C2461 1.387 . S
C2460 H2464 0.950 . S
C2460 C2469 1.390 . S
C2461 C2460 1.387 . S
C2461 C2463 1.387 . S
H2462 C2469 0.950 . S
C2463 C2461 1.387 . S
C2463 C2465 1.390 . S
C2463 H2467 0.950 . S
H2464 C2460 0.950 . S
C2465 C2463 1.390 . S
C2465 C2466 1.387 . S
C2465 H2468 0.950 . S
C2466 C2465 1.387 . S
C2466 C2469 1.387 . S
H2467 C2463 0.950 . S
H2468 C2465 0.950 . S
C2469 C2460 1.390 . S
C2469 H2462 0.950 . S
C2469 C2466 1.387 . S
C2470 C2471 1.387 . S
C2470 H2474 0.950 . S
C2470 C2479 1.390 . S
C2471 C2470 1.387 . S
C2471 C2473 1.387 . S
H2472 C2479 0.950 . S
C2473 C2471 1.387 . S
C2473 C2475 1.390 . S
C2473 H2477 0.950 . S
H2474 C2470 0.950 . S
C2475 C2473 1.390 . S
C2475 C2476 1.387 . S
C2475 H2478 0.950 . S
C2476 C2475 1.387 . S
C2476 C2479 1.387 . S
H2477 C2473 0.950 . S
H2478 C2475 0.950 . S
C2479 C2470 1.390 . S
C2479 H2472 0.950 . S
C2479 C2476 1.387 . S
C2480 C2481 1.387 . S
C2480 H2484 0.950 . S
C2480 C2489 1.390 . S
C2481 C2480 1.387 . S
C2481 C2483 1.387 . S
H2482 C2489 0.950 . S
C2483 C2481 1.387 . S
C2483 C2485 1.390 . S
C2483 H2487 0.950 . S
H2484 C2480 0.950 . S
C2485 C2483 1.390 . S
C2485 C2486 1.387 . S
C2485 H2488 0.950 . S
C2486 C2485 1.387 . S
C2486 C2489 1.387 . S
H2487 C2483 0.950 . S
H2488 C2485 0.950 . S
C2489 C2480 1.390 . S
C2489 H2482 0.950 . S
C2489 C2486 1.387 . S
C2490 C2491 1.387 . S
C2490 H2494 0.950 . S
C2490 C2499 1.390 . S
C2491 C2490 1.387 . S
C2491 C2493 1.387 . S
H2492 C2499 0.950 . S
C2493 C2491 1.387 . S
C2493 C2495 1.390 . S
C2493 H2497 0.950 . S
H2494 C2490 0.950 . S
C2495 C2493 1.390 . S
C2495 C2496 1.387 . S
C2495 H2498 0.950 . S
C2496 C2495 1.387 . S
C2496 C2499 1.387 . S
H2497 C2493 0.950 . S
H2498 C2495 0.950 . S
C2499 C2490 1.390 . S
C2499 H2492 0.950 . S
C2499 C2496 1.387 . S
C2500 C2501 1.387 . S
C2500 H2504 0.950 . S
C2500 C2509 1.390 . S
C2501 C2500 1.387 . S
C2501 C2503 1.387 . S
H2502 C2509 0.950 . S
C2503 C2501 1.387 . S
C2503 C2505 1.390 . S
C2503 H2507 0.950 . S
H2504 C2500 0.950 . S
C2505 C2503 1.390 . S
C2505 C2506 1.387 . S
C2505 H2508 0.950 . S
C2506 C2505 1.387 . S
C2506 C2509 1.387 . S
H2507 C2503 0.950 . S
H2508 C2505 0.950 . S
C2509 C2500 1.390 . S
C2509 H2502 0.950 . S
C2509 C2506 1.387 . S
C2510 C2511 1.387 . S
C2510 H2514 0.950 . S
C2510 C2519 1.390 . S
C2511 C2510 1.387 . S
C2511 C2513 1.387 . S
H2512 C2519 0.950 . S
C2513 C2511 1.387 . S
C2513 C2515 1.390 . S
C2513 H2517 0.950 . S
H2514 C2510 0.950 . S
C2515 C2513 1.390 . S
C2515 C2516 1.387 . S
C2515 H2518 0.950 . S
C2516 C2515 1.387 . S
C2516 C2519 1.387 . S
H2517 C2513 0.950 . S
H2518 C2515 0.950 . S
C2519 C2510 1.390 . S
C2519 H2512 0.950 . S
C2519 C2516 1.387 . S
C1441 C10 1.799 . S
C1446 C91 1.852 1_545 S
C1451 C11 1.852 1_655 S
C1456 C50 1.801 1_545 S
C1461 C90 1.801 1_655 S
C1466 C51 1.853 . S
C1471 C130 1.866 . S
C1476 C171 1.916 1_455 S
C1481 C211 1.917 . S
C1486 C170 1.867 1_565 S
C1491 C210 1.865 1_455 S
C1496 C131 1.915 1_565 S
C1501 C259 1.800 . S
C1506 C322 1.851 1_565 S
C1511 C299 1.799 1_565 S
C1516 C242 1.851 1_455 S
C1521 C339 1.801 1_455 S
C1526 C282 1.853 . S
C1531 C379 1.867 . S
C1536 C402 1.917 1_655 S
C1541 C442 1.916 . S
C1546 C419 1.867 1_545 S
C1551 C362 1.915 1_545 S
C1556 C459 1.867 1_655 S
C1561 C571 1.907 . S
C1566 C490 1.857 . S
C1571 C530 1.856 . S
C1576 C491 1.907 . S
C1581 C531 1.905 . S
C1586 C570 1.853 . S
C1591 C610 1.880 . S
C1596 C651 1.930 . S
C1601 C691 1.930 . S
C1606 C650 1.881 . S
C1611 C611 1.930 . S
C1616 C690 1.879 . S
C1621 C739 1.825 . S
C1626 C802 1.876 . S
C1631 C779 1.827 . S
C1636 C722 1.877 . S
C1641 C762 1.877 . S
C1646 C819 1.826 . S
C1651 C882 1.777 . S
C1656 C859 1.738 1_554 S
C1661 C899 1.738 1_554 S
C1666 C922 1.776 . S
C1671 C842 1.777 . S
C1676 C939 1.739 1_554 S
C1681 C970 1.828 . S
C1686 C1051 1.877 . S
C1691 C1010 1.825 . S
C1696 C971 1.876 . S
C1701 C1050 1.827 . S
C1706 C1011 1.877 . S
C1711 C1090 1.737 1_556 S
C1716 C1131 1.776 . S
C1721 C1130 1.736 1_556 S
C1726 C1171 1.775 . S
C1731 C1170 1.736 1_556 S
C1736 C1091 1.776 . S
C1741 C1219 1.857 . S
C1746 C1282 1.907 . S
C1751 C1259 1.853 . S
C1756 C1202 1.906 . S
C1761 C1242 1.906 . S
C1766 C1299 1.855 . S
C1771 C1339 1.881 . S
C1776 C1362 1.931 . S
C1781 C1379 1.881 . S
C1786 C1402 1.930 . S
C1791 C1322 1.929 . S
C1796 C1419 1.880 . S
C1801 C2 1.886 . S
C1806 C810 1.852 . S
C1811 C730 1.853 1_565 S
C1816 C42 1.884 . S
C1821 C82 1.885 . S
C1826 C770 1.853 1_455 S
C1831 C122 1.803 . S
C1836 C1370 1.760 . S
C1841 C1410 1.762 1_545 S
C1846 C162 1.802 . S
C1851 C202 1.802 . S
C1856 C1330 1.762 1_655 S
C1861 C1059 1.851 . S
C1866 C251 1.885 . S
C1871 C291 1.884 . S
C1876 C979 1.853 1_545 S
C1881 C331 1.886 . S
C1886 C1019 1.852 1_655 S
C1891 C659 1.762 . S
C1896 C371 1.802 . S
C1901 C699 1.762 1_565 S
C1906 C411 1.802 . S
C1911 C619 1.762 1_455 S
C1916 C451 1.802 . S
C1921 C482 1.845 . S
C1926 C1290 1.807 . S
C1931 C522 1.844 . S
C1936 C1210 1.809 . S
C1941 C1250 1.807 . S
C1946 C562 1.846 . S
C1951 C410 1.797 . S
C1956 C602 1.837 1_455 S
C1961 C450 1.799 . S
C1966 C642 1.836 . S
C1971 C370 1.799 . S
C1976 C682 1.836 1_565 S
C1981 C99 1.848 . S
C1986 C731 1.880 1_565 S
C1991 C771 1.879 1_455 S
C1996 C19 1.848 . S
C2001 C811 1.881 . S
C2006 C59 1.850 . S
C2011 C1139 1.823 . S
C2016 C851 1.862 . S
C2021 C1179 1.823 . S
C2026 C891 1.862 . S
C2031 C931 1.865 . S
C2036 C1099 1.822 . S
C2041 C330 1.849 . S
C2046 C962 1.878 1_545 S
C2051 C250 1.850 . S
C2056 C1002 1.878 1_655 S
C2061 C290 1.851 . S
C2066 C1042 1.879 . S
C2071 C1082 1.863 . S
C2076 C890 1.823 . S
C2081 C930 1.823 . S
C2086 C1122 1.863 . S
C2091 C1162 1.865 . S
C2096 C850 1.822 . S
C2101 C1211 1.843 . S
C2106 C579 1.808 . S
C2111 C1251 1.844 . S
C2116 C499 1.809 . S
C2121 C1291 1.844 . S
C2126 C539 1.809 . S
C2131 C1331 1.836 1_655 S
C2136 C179 1.799 . S
C2141 C219 1.800 . S
C2146 C1371 1.836 . S
C2151 C139 1.799 . S
C2156 C1411 1.835 1_545 S
C2161 C1167 2.283 . S
C2166 C7 2.276 . S
C2171 C1087 2.284 . S
C2176 C47 2.277 . S
C2181 C87 2.290 . S
C2186 C1127 2.270 . S
C2191 C527 2.454 . S
C2196 C127 2.452 . S
C2201 C167 2.452 . S
C2206 C567 2.454 . S
C2211 C207 2.450 . S
C2216 C487 2.453 . S
C2221 C256 2.290 . S
C2226 C936 2.270 . S
C2231 C296 2.292 . S
C2236 C856 2.273 . S
C2241 C336 2.292 . S
C2246 C896 2.272 . S
C2251 C1256 2.454 . S
C2256 C376 2.452 . S
C2261 C1296 2.454 . S
C2266 C416 2.452 . S
C2271 C1216 2.453 . S
C2276 C456 2.450 . S
C2281 C607 2.483 . S
C2286 C1007 2.488 . S
C2291 C647 2.485 . S
C2296 C1047 2.488 . S
C2301 C687 2.485 . S
C2306 C967 2.489 . S
C2311 C736 2.487 . S
C2316 C1416 2.483 . S
C2321 C1336 2.485 . S
C2326 C776 2.489 . S
C2331 C816 2.488 . S
C2336 C1376 2.483 . S
C2341 C176 1.236 . S
C2346 C16 1.238 . S
C2351 C216 1.237 . S
C2356 C56 1.238 . S
C2361 C136 1.236 . S
C2366 C96 1.238 . S
C2371 C247 1.238 . S
C2376 C407 1.237 . S
C2381 C447 1.237 . S
C2386 C287 1.238 . S
C2391 C327 1.238 . S
C2396 C367 1.236 . S
C2401 C656 1.304 . S
C2406 C496 1.305 . S
C2411 C696 1.304 . S
C2416 C536 1.305 . S
C2421 C616 1.302 . S
C2426 C576 1.304 . S
C2431 C887 1.530 . S
C2436 C727 1.562 . S
C2441 C767 1.549 . S
C2446 C927 1.542 . S
C2451 C807 1.550 . S
C2456 C847 1.542 . S
C2461 C976 1.549 . S
C2466 C1136 1.541 . S
C2471 C1176 1.530 . S
C2476 C1016 1.563 . S
C2481 C1056 1.549 . S
C2486 C1096 1.543 . S
C2491 C1207 1.305 . S
C2496 C1367 1.303 . S
C2501 C1407 1.304 . S
C2506 C1247 1.304 . S
C2511 C1287 1.305 . S
C2516 C1327 1.304 . S
