# Generated by pormake.
# Topology wjd, (6)-cn, num edge types: 1
# Building blocks:
#     Node 0, Type 0, BuildingBlock: KUMJIN_clean_sbu_0, # of connection points: 6
#     Node 1, Type 0, BuildingBlock: KUMJIN_clean_sbu_0, # of connection points: 6
#     Node 2, Type 0, BuildingBlock: KUMJIN_clean_sbu_0, # of connection points: 6
#     Node 3, Type 0, BuildingBlock: KUMJIN_clean_sbu_0, # of connection points: 6
#     Node 4, Type 0, BuildingBlock: KUMJIN_clean_sbu_0, # of connection points: 6
#     Node 5, Type 0, BuildingBlock: KUMJIN_clean_sbu_0, # of connection points: 6
#     Node 6, Type 0, BuildingBlock: KUMJIN_clean_sbu_0, # of connection points: 6
#     Node 7, Type 0, BuildingBlock: KUMJIN_clean_sbu_0, # of connection points: 6
#     Node 8, Type 0, BuildingBlock: KUMJIN_clean_sbu_0, # of connection points: 6
#     Node 9, Type 0, BuildingBlock: KUMJIN_clean_sbu_0, # of connection points: 6
#     Node 10, Type 0, BuildingBlock: KUMJIN_clean_sbu_0, # of connection points: 6
#     Node 11, Type 0, BuildingBlock: KUMJIN_clean_sbu_0, # of connection points: 6
#     Edge 12, Type (0, 0), None
#     Edge 13, Type (0, 0), None
#     Edge 14, Type (0, 0), None
#     Edge 15, Type (0, 0), None
#     Edge 16, Type (0, 0), None
#     Edge 17, Type (0, 0), None
#     Edge 18, Type (0, 0), None
#     Edge 19, Type (0, 0), None
#     Edge 20, Type (0, 0), None
#     Edge 21, Type (0, 0), None
#     Edge 22, Type (0, 0), None
#     Edge 23, Type (0, 0), None
#     Edge 24, Type (0, 0), None
#     Edge 25, Type (0, 0), None
#     Edge 26, Type (0, 0), None
#     Edge 27, Type (0, 0), None
#     Edge 28, Type (0, 0), None
#     Edge 29, Type (0, 0), None
#     Edge 30, Type (0, 0), None
#     Edge 31, Type (0, 0), None
#     Edge 32, Type (0, 0), None
#     Edge 33, Type (0, 0), None
#     Edge 34, Type (0, 0), None
#     Edge 35, Type (0, 0), None
#     Edge 36, Type (0, 0), None
#     Edge 37, Type (0, 0), None
#     Edge 38, Type (0, 0), None
#     Edge 39, Type (0, 0), None
#     Edge 40, Type (0, 0), None
#     Edge 41, Type (0, 0), None
#     Edge 42, Type (0, 0), None
#     Edge 43, Type (0, 0), None
#     Edge 44, Type (0, 0), None
#     Edge 45, Type (0, 0), None
#     Edge 46, Type (0, 0), None
#     Edge 47, Type (0, 0), None
# Relax obj value: 0.090
# Max RMSD: 0.253
# Mean RMSD: 0.253
data_MOF--net-wjd--node1-KUMJIN_clean_sbu_0--edge1-none
_symmetry_space_group_name_H-M    P1
_symmetry_Int_Tables_number       1
_symmetry_cell_setting            triclinic
loop_
_symmetry_equiv_pos_as_xyz
'x, y, z'
_cell_length_a     22.497481
_cell_length_b     22.491897
_cell_length_c     25.354695
_cell_angle_alpha  90.121725
_cell_angle_beta   89.808714
_cell_angle_gamma 119.98306
loop_
_atom_site_label
_atom_site_type_symbol
_atom_site_fract_x
_atom_site_fract_y
_atom_site_fract_z
_atom_type_partial_charge
Eu0 Eu 0.4058 0.22236 0.05034 0.0
C1 C 0.33898 0.9531 0.1707 0.0
C2 C 0.47602 0.01839 0.15581 0.0
C3 C 0.46973 0.95079 0.24978 0.0
C4 C 0.40155 0.99829 0.1417 0.0
C5 C 0.34096 0.88387 0.25396 0.0
C6 C 0.50732 1.00376 0.20493 0.0
C7 C 0.22148 0.91754 0.28755 0.0
N8 N 0.2836 0.97914 0.17505 0.0
C9 C 0.22987 0.96676 0.2247 0.0
C10 C 0.27572 0.87623 0.30294 0.0
Eu11 Eu 0.29732 0.04526 0.09738 0.0
N12 N 0.38543 1.01038 0.09361 0.0
C13 C 0.42504 1.00973 0.05242 0.0
C14 C 0.5194 0.03985 0.11215 0.0
C15 C 0.49212 0.02393 0.06131 0.0
H16 H 0.19766 0.98838 0.21986 0.0
H17 H 0.52546 0.03196 0.02793 0.0
H18 H 0.56277 0.02766 0.20598 0.0
H19 H 0.24475 0.89327 0.30238 0.0
H20 H 0.41109 1.00848 0.01195 0.0
H21 H 0.23796 0.34784 0.11723 0.0
H22 H 0.57409 0.0625 0.11716 0.0
H23 H 0.51555 0.29389 0.90142 0.0
H24 H 0.31111 0.2956 0.12948 0.0
H25 H 0.51287 0.35597 0.82343 0.0
H26 H 0.50865 0.95312 0.27687 0.0
H27 H 0.18442 0.34463 0.03335 0.0
H28 H 0.21393 0.36936 0.9468 0.0
H29 H 0.27608 0.84625 0.34041 0.0
H30 H 0.31781 0.39745 0.84391 0.0
N31 N 0.29569 0.2545 0.05246 0.0
C32 C 0.28453 0.28842 0.09249 0.0
C33 C 0.21256 0.31738 0.03624 0.0
C34 C 0.23381 0.29923 -0.00995 0.0
C35 C 0.24445 0.32034 0.08476 0.0
C36 C 0.29416 0.28199 0.0031 0.0
H37 H 0.43024 0.39479 0.8111 0.0
N38 N 0.45022 0.31522 0.94814 0.0
C39 C 0.48231 0.35402 0.85713 0.0
C40 C 0.39811 0.33346 0.94175 0.0
C41 C 0.48657 0.32028 0.90352 0.0
C42 C 0.43646 0.37983 0.8502 0.0
C43 C 0.39292 0.37673 0.89072 0.0
O44 O 0.50246 0.27665 0.00807 0.0
O45 O 0.40054 0.12308 0.05591 0.0
O46 O 0.34626 0.11251 0.16595 0.0
O47 O 0.39392 0.22958 0.14565 0.0
O48 O 0.47136 0.201 0.10441 0.0
O49 O 0.50456 0.30219 0.09089 0.0
O50 O 0.19893 0.01592 0.13354 0.0
O51 O 0.30548 0.14697 0.08546 0.0
O52 O 0.35267 0.1038 -0.00404 0.0
O53 O 0.29744 0.99163 0.03132 0.0
O54 O 0.22677 0.06674 0.04665 0.0
O55 O 0.20093 0.96047 0.06476 0.0
C56 C 0.46014 0.14803 0.07746 0.0
C57 C 0.59271 0.38849 0.03115 0.0
C58 C 0.67173 0.51308 0.04565 0.0
C59 C 0.62716 0.44548 0.06611 0.0
C60 C 0.67693 0.5212 -0.00961 0.0
C61 C 0.61388 0.39924 -0.02181 0.0
C62 C 0.6513 0.46468 0.95737 0.0
C63 C 0.37447 0.1773 0.18134 0.0
C64 C 0.53967 0.31625 0.04677 0.0
C65 C 0.32132 0.38758 0.88464 0.0
C66 C 0.23829 0.34148 0.9349 0.0
C67 C 0.24667 0.12663 0.06513 0.0
C68 C 0.093 0.91563 0.11351 0.0
C69 C 0.03314 0.8906 0.08133 0.0
C70 C 0.96905 0.83779 0.10143 0.0
C71 C 0.96614 0.81928 0.15452 0.0
C72 C 0.08722 0.88338 0.16159 0.0
C73 C 0.02509 0.83468 0.18134 0.0
C74 C 0.31758 0.03087 -0.00898 0.0
C75 C 0.16223 0.97107 0.09755 0.0
H76 H 0.61961 0.43763 0.10826 0.0
H77 H 0.70691 0.57047 -0.02792 0.0
H78 H 0.60168 0.35659 0.95246 0.0
H79 H 0.66268 0.47157 0.91554 0.0
H80 H 0.0374 0.90762 0.04087 0.0
H81 H 0.91857 0.78517 0.17324 0.0
H82 H 0.13053 0.88775 0.18053 0.0
H83 H 0.0228 0.80806 0.21733 0.0
Eu84 Eu 0.76553 0.73643 0.32879 0.0
C85 C 0.97052 0.64178 0.48128 0.0
C86 C 0.09864 0.80858 0.43672 0.0
C87 C 0.10222 0.71629 0.53825 0.0
C88 C 1.02043 0.74825 0.42347 0.0
C89 C 1.02029 0.64466 0.53074 0.0
C90 C 0.13858 0.80195 0.4914 0.0
C91 C 0.90968 0.5548 0.56437 0.0
N92 N 0.90038 0.58875 0.47449 0.0
C93 C 0.87051 0.54997 0.51834 0.0
C94 C 0.98228 0.5973 0.56961 0.0
Eu95 Eu 0.84743 0.63576 0.37632 0.0
N96 N 0.98836 0.74916 0.37571 0.0
C97 C 0.03032 0.76695 0.33303 0.0
C98 C 0.13484 0.82921 0.38891 0.0
C99 C 0.10174 0.80298 0.33942 0.0
H100 H 0.81537 0.51804 0.52005 0.0
H101 H 0.13022 0.80297 0.30546 0.0
H102 H 0.1907 0.82545 0.47936 0.0
H103 H 0.88169 0.52454 0.5982 0.0
H104 H 1.00844 0.74733 0.29467 0.0
H105 H 0.52941 0.5858 0.45191 0.0
H106 H 0.18997 0.85294 0.39062 0.0
H107 H 0.68698 0.84766 0.2132 0.0
H108 H 0.64491 0.61503 0.42652 0.0
H109 H 0.59536 0.82105 0.15781 0.0
H110 H 0.11476 0.71742 0.57882 0.0
H111 H 0.45864 0.61307 0.39655 0.0
H112 H 0.41748 0.63528 0.30962 0.0
H113 H 1.00696 0.59861 0.60641 0.0
H114 H 0.41815 0.6403 0.20324 0.0
N115 N 0.64367 0.65353 0.35024 0.0
C116 C 0.61564 0.62461 0.39831 0.0
C117 C 0.50823 0.62369 0.38294 0.0
C118 C 0.52231 0.63485 0.33047 0.0
C119 C 0.54942 0.60893 0.4141 0.0
C120 C 0.59665 0.63478 0.31186 0.0
H121 H 0.50071 0.70567 0.13112 0.0
N122 N 0.67423 0.71608 0.251 0.0
C123 C 0.59692 0.77739 0.1739 0.0
C124 C 0.62085 0.64148 0.24637 0.0
C125 C 0.65727 0.79124 0.21173 0.0
C126 C 0.53971 0.70745 0.15713 0.0
C127 C 0.52693 0.64156 0.18432 0.0
O128 O 0.84205 0.83547 0.30353 0.0
O129 O 0.86539 0.73269 0.33981 0.0
O130 O 0.78536 0.68731 0.43505 0.0
O131 O 0.72651 0.74202 0.40222 0.0
O132 O 0.85852 0.80607 0.38047 0.0
O133 O 0.7914 0.83861 0.37218 0.0
O134 O 0.81067 0.53899 0.41537 0.0
O135 O 0.74848 0.63649 0.36906 0.0
O136 O 0.79613 0.69339 0.26073 0.0
O137 O 0.86732 0.64763 0.28206 0.0
O138 O 0.75742 0.56682 0.32386 0.0
O139 O 0.83278 0.54067 0.33152 0.0
C140 C 0.90227 0.78947 0.36424 0.0
C141 C 0.87974 0.95153 0.32601 0.0
C142 C 0.91561 0.07617 0.33292 0.0
C143 C 0.89311 1.0101 0.35819 0.0
C144 C 0.93091 0.08057 0.27935 0.0
C145 C 0.90889 0.96671 0.27542 0.0
C146 C 0.94061 0.0314 0.25516 0.0
C147 C 0.74891 0.72308 0.44155 0.0
C148 C 0.84251 0.87515 0.3402 0.0
C149 C 0.45925 0.63647 0.22216 0.0
C150 C 0.46093 0.63654 0.29009 0.0
C151 C 0.71268 0.5777 0.34654 0.0
C152 C 0.82983 0.44935 0.38844 0.0
C153 C 0.86513 0.42441 0.35629 0.0
C154 C 0.87945 0.37357 0.377 0.0
C155 C 0.86105 0.35259 0.42929 0.0
C156 C 0.80187 0.41567 0.43631 0.0
C157 C 0.81696 0.36791 0.45602 0.0
C158 C 0.83407 0.6656 0.24611 0.0
C159 C 0.81305 0.50416 0.37491 0.0
H160 H 0.87994 1.00326 0.39964 0.0
H161 H 0.93805 0.12339 0.25565 0.0
H162 H 0.90538 0.92849 0.24868 0.0
H163 H 0.96331 0.04007 0.21621 0.0
H164 H 0.87921 0.44233 0.31612 0.0
H165 H 0.8724 0.31596 0.44751 0.0
H166 H 0.76836 0.42661 0.45964 0.0
H167 H 0.79498 0.34322 0.49323 0.0
Eu168 Eu 0.80939 0.18593 0.05217 0.0
C169 C 0.07658 0.39967 0.16118 0.0
C170 C 1.00243 0.46185 0.1455 0.0
C171 C 0.0699 0.53015 0.23783 0.0
C172 C 0.02672 0.41018 0.13292 0.0
C173 C 0.14535 0.47786 0.24137 0.0
C174 C 1.01429 0.50846 0.19403 0.0
C175 C 0.12781 0.3323 0.27815 0.0
N176 N 0.05784 0.32031 0.16732 0.0
C177 C 0.07766 0.28524 0.21705 0.0
C178 C 0.16136 0.42754 0.29072 0.0
Eu179 Eu 0.98837 0.25937 0.09382 0.0
N180 N 1.0171 0.38068 0.08553 0.0
C181 C 1.01753 0.4191 0.04325 0.0
C182 C 0.98391 0.48372 0.1003 0.0
C183 C 1.00225 0.4717 0.05028 0.0
H184 H 0.06078 0.23222 0.2133 0.0
H185 H 0.99547 0.49638 0.01603 0.0
H186 H 0.98693 0.53676 0.19459 0.0
H187 H 0.14871 0.38055 0.29177 0.0
H188 H 1.021 0.40586 0.00337 0.0
H189 H 0.69793 0.89558 0.12336 0.0
H190 H 0.96138 0.51621 0.10348 0.0
H191 H 0.73175 0.21794 0.90666 0.0
H192 H 0.74605 0.02036 0.13388 0.0
H193 H 0.66687 0.15167 0.83062 0.0
H194 H 0.06514 0.56584 0.26446 0.0
H195 H 0.69102 0.84201 0.0384 0.0
H196 H 0.65755 0.84342 0.95297 0.0
H197 H 0.18854 0.46243 0.32678 0.0
H198 H 0.61803 0.91391 0.85408 0.0
N199 N 0.78009 0.04405 0.055 0.0
C200 C 0.75062 1.00016 0.0963 0.0
C201 C 0.71781 0.89747 0.04041 0.0
C202 C 0.7312 0.93516 -0.00612 0.0
C203 C 0.71993 0.92811 0.08951 0.0
C204 C 0.74827 1.01276 0.00722 0.0
H205 H 0.62639 0.03017 0.82068 0.0
N206 N 0.70928 0.13273 0.95529 0.0
C207 C 0.66761 0.12369 0.86508 0.0
C208 C 0.6909 0.06228 0.94951 0.0
C209 C 0.70324 0.16277 0.9104 0.0
C210 C 0.64012 0.05169 0.85964 0.0
C211 C 0.64415 1.01212 0.90027 0.0
O212 O 0.7555 0.2271 0.00877 0.0
O213 O 0.90714 0.28132 0.05495 0.0
O214 O 0.92275 0.23836 0.16445 0.0
O215 O 0.80482 0.16901 0.14727 0.0
O216 O 0.83038 0.27265 0.10649 0.0
O217 O 0.72965 0.2062 0.09182 0.0
O218 O 1.02154 0.19415 0.13099 0.0
O219 O 0.88792 0.16419 0.08444 0.0
O220 O 0.92519 0.24974 -0.00665 0.0
O221 O 0.03846 0.31073 0.02654 0.0
O222 O 0.96738 0.16696 0.0433 0.0
O223 O 0.07409 0.24879 0.06057 0.0
C224 C 0.88106 0.3146 0.07754 0.0
C225 C 0.64575 0.21049 0.03112 0.0
C226 C 0.52107 0.16254 0.04355 0.0
C227 C 0.58783 0.18553 0.06504 0.0
C228 C 0.51465 0.16194 -0.01179 0.0
C229 C 0.63706 0.22517 -0.02113 0.0
C230 C 0.57236 0.19668 0.95663 0.0
C231 C 0.85849 0.20191 0.18154 0.0
C232 C 0.71666 0.22699 0.04724 0.0
C233 C 0.63367 0.92984 0.89362 0.0
C234 C 0.68478 0.89549 0.94049 0.0
C235 C 0.90864 0.12629 0.0634 0.0
C236 C 0.12115 0.1872 0.10942 0.0
C237 C 0.1442 0.14963 0.07776 0.0
C238 C 0.19653 0.13736 0.09782 0.0
C239 C 0.21622 0.15481 0.15045 0.0
C240 C 0.15525 0.21548 0.1566 0.0
C241 C 0.20257 0.2003 0.17647 0.0
C242 C 0.99812 0.28876 -0.01295 0.0
C243 C 0.06539 0.20125 0.09434 0.0
H244 H 0.59437 0.18407 0.10721 0.0
H245 H 0.46584 0.14245 -0.03085 0.0
H246 H 0.68076 0.25792 0.95462 0.0
H247 H 0.56689 0.20361 0.91502 0.0
H248 H 0.12597 0.13531 0.03772 0.0
H249 H 0.25076 0.14188 0.16908 0.0
H250 H 0.1542 0.25739 0.17437 0.0
H251 H 0.22993 0.22519 0.21185 0.0
Eu252 Eu 0.30314 0.04063 0.32759 0.0
C253 C 0.40508 0.3419 0.47567 0.0
C254 C 0.24717 0.35247 0.4138 0.0
C255 C 0.35189 0.45233 0.52654 0.0
C256 C 0.29716 0.30566 0.40363 0.0
C257 C 0.41421 0.40869 0.52671 0.0
C258 C 0.26653 0.42055 0.4729 0.0
C259 C 0.47886 0.35275 0.56357 0.0
N260 N 0.44239 0.30672 0.47306 0.0
C261 C 0.47621 0.31104 0.51895 0.0
C262 C 0.45392 0.40066 0.56739 0.0
Eu263 Eu 0.40011 0.21874 0.37446 0.0
N264 N 0.29449 0.26727 0.35849 0.0
C265 C 0.28004 0.2925 0.31457 0.0
C266 C 0.23432 0.36363 0.36297 0.0
C267 C 0.25355 0.33902 0.31679 0.0
H268 H 0.49927 0.27917 0.52331 0.0
H269 H 0.25311 0.36169 0.27942 0.0
H270 H 0.24635 0.45385 0.4665 0.0
H271 H 0.50327 0.34768 0.59858 0.0
H272 H 0.29665 0.28345 0.27701 0.0
H273 H 0.46317 0.96553 0.45031 0.0
H274 H 0.22468 0.4047 0.36017 0.0
H275 H 0.19273 0.84731 0.21667 0.0
H276 H 0.42296 0.0432 0.42626 0.0
H277 H 0.21909 0.78164 0.16161 0.0
H278 H 0.38776 0.43838 0.53551 0.0
H279 H 0.44339 0.86983 0.39453 0.0
H280 H 0.41326 0.79995 0.3102 0.0
H281 H 0.45614 0.42526 0.60415 0.0
H282 H 0.40395 0.79113 0.2043 0.0
N283 N 0.38759 1.00366 0.34925 0.0
C284 C 0.41658 1.00587 0.39756 0.0
C285 C 0.42956 0.90634 0.38109 0.0
C286 C 0.41153 0.90441 0.32987 0.0
C287 C 0.43985 0.96084 0.41235 0.0
C288 C 0.40822 0.97675 0.31068 0.0
H289 H 0.33449 0.80328 0.13326 0.0
N290 N 0.32395 0.96894 0.25078 0.0
C291 C 0.26284 0.82773 0.17664 0.0
C292 C 0.3988 0.99146 0.24496 0.0
C293 C 0.24908 0.87493 0.21401 0.0
C294 C 0.3327 0.84108 0.15879 0.0
C295 C 0.399 0.89617 0.18427 0.0
O296 O 0.20335 0.01663 0.30489 0.0
O297 O 0.30748 0.14536 0.33277 0.0
O298 O 0.35263 0.11175 0.43748 0.0
O299 O 0.29784 0.99889 0.40245 0.0
O300 O 0.23307 0.07028 0.37403 0.0
O301 O 0.20334 0.96509 0.37385 0.0
O302 O 0.49559 0.28042 0.4159 0.0
O303 O 0.40216 0.12152 0.36755 0.0
O304 O 0.34575 0.10976 0.25738 0.0
O305 O 0.39093 0.22616 0.27893 0.0
O306 O 0.4711 0.20045 0.32195 0.0
O307 O 0.49978 0.29813 0.33194 0.0
C308 C 0.25106 0.12993 0.35528 0.0
C309 C 0.08951 0.9383 0.32957 0.0
C310 C 0.96658 0.84766 0.33825 0.0
C311 C 0.03229 0.89311 0.36269 0.0
C312 C 0.96218 0.85432 0.28392 0.0
C313 C 0.07295 0.95029 0.27888 0.0
C314 C 1.00889 0.91317 0.25862 0.0
C315 C 0.31565 0.03943 0.44243 0.0
C316 C 0.16559 0.979 0.34285 0.0
C317 C 0.40723 0.83627 0.22263 0.0
C318 C 0.40972 0.84058 0.29031 0.0
C319 C 0.46094 0.14519 0.34456 0.0
C320 C 0.58713 0.38969 0.39026 0.0
C321 C 0.61361 0.4503 0.358 0.0
C322 C 0.66413 0.51601 0.37913 0.0
C323 C 0.684 0.51806 0.43168 0.0
C324 C 0.61881 0.39585 0.43909 0.0
C325 C 0.66764 0.45859 0.45848 0.0
C326 C 0.37319 0.17527 0.24254 0.0
C327 C 0.53321 0.31704 0.37643 0.0
H328 H 0.03994 0.88838 0.40421 0.0
H329 H 0.91956 0.81647 0.26113 0.0
H330 H 0.10972 0.98584 0.25178 0.0
H331 H 0.99897 0.9252 0.21948 0.0
H332 H 0.59709 0.4463 0.31747 0.0
H333 H 0.72079 0.56536 0.45034 0.0
H334 H 0.60575 0.35169 0.46338 0.0
H335 H 0.69206 0.4614 0.49584 0.0
Eu336 Eu 0.84801 0.62866 0.05551 0.0
C337 C 0.64401 0.69919 0.17088 0.0
C338 C 0.57051 0.56169 0.15924 0.0
C339 C 0.50889 0.57296 0.25177 0.0
C340 C 0.62574 0.63532 0.14358 0.0
C341 C 0.57307 0.70153 0.25298 0.0
C342 C 0.52351 0.53284 0.20835 0.0
C343 C 0.72643 0.81983 0.28553 0.0
N344 N 0.72559 0.75345 0.17494 0.0
C345 C 0.76718 0.80833 0.22361 0.0
C346 C 0.63082 0.76765 0.30095 0.0
Eu347 Eu 0.77779 0.73712 0.09865 0.0
N348 N 0.65481 0.64916 0.09566 0.0
C349 C 0.61507 0.60797 0.05511 0.0
C350 C 0.54996 0.51619 0.11704 0.0
C351 C 0.5623 0.54119 0.0654 0.0
H352 H 0.82116 0.83908 0.21872 0.0
H353 H 0.53817 0.5064 0.03267 0.0
H354 H 0.49097 0.47755 0.21055 0.0
H355 H 0.67881 0.79778 0.30022 0.0
H356 H 0.62879 0.62023 0.01443 0.0
H357 H 0.14204 0.80532 0.12326 0.0
H358 H 0.51805 0.46178 0.12378 0.0
H359 H 0.81277 0.5189 0.90948 0.0
H360 H 1.01732 0.72914 0.13547 0.0
H361 H 0.87745 0.51689 0.83317 0.0
H362 H 0.47104 0.53583 0.27862 0.0
H363 H 0.1937 0.85223 0.03775 0.0
H364 H 0.18973 0.81544 0.9516 0.0
H365 H 0.6003 0.76945 0.33774 0.0
H366 H 0.11493 0.70724 0.85247 0.0
N367 N 0.99163 0.74031 0.05753 0.0
C368 C 0.03662 0.7542 0.09789 0.0
C369 C 0.13831 0.82371 0.04063 0.0
C370 C 0.09952 0.79954 -0.00536 0.0
C371 C 0.10865 0.79535 0.09005 0.0
C372 C 1.02172 0.73961 0.0091 0.0
H373 H 0.99924 0.59569 0.82176 0.0
N374 N 0.89894 0.58158 0.95713 0.0
C375 C 0.90611 0.54667 0.86706 0.0
C376 C 0.96947 0.63303 0.95065 0.0
C377 C 0.86794 0.54501 0.91262 0.0
C378 C 0.97811 0.59031 0.8607 0.0
C379 C 1.01821 0.63561 0.90037 0.0
O380 O 0.80362 0.53308 0.01232 0.0
O381 O 0.75373 0.63369 0.05857 0.0
O382 O 0.79563 0.68902 0.16881 0.0
O383 O 0.86634 0.64202 0.15025 0.0
O384 O 0.75887 0.56274 0.10835 0.0
O385 O 0.82702 0.52845 0.09473 0.0
O386 O 0.84623 0.83663 0.13294 0.0
O387 O 0.87114 0.72858 0.08943 0.0
O388 O 0.78546 0.68277 -0.00204 0.0
O389 O 0.72337 0.73355 0.03188 0.0
O390 O 0.87061 0.80616 0.04784 0.0
O391 O 0.79063 0.83331 0.06323 0.0
C392 C 0.71819 0.57398 0.08005 0.0
C393 C 0.81749 0.4379 0.03347 0.0
C394 C 0.86363 0.35944 0.04448 0.0
C395 C 0.84005 0.4025 0.06682 0.0
C396 C 0.86472 0.35469 -0.01096 0.0
C397 C 0.80315 0.41575 -0.01912 0.0
C398 C 0.83075 0.37885 0.95798 0.0
C399 C 0.83307 0.66194 0.1851 0.0
C400 C 0.80379 0.49416 0.05047 0.0
C401 C 0.10063 0.70672 0.89265 0.0
C402 C 0.13747 0.79214 0.93986 0.0
C403 C 0.90985 0.78679 0.06845 0.0
C404 C 0.85477 0.94336 0.11058 0.0
C405 C 0.8888 1.00245 0.07714 0.0
C406 C 0.90166 0.06758 0.09666 0.0
C407 C 0.88824 0.07206 0.15011 0.0
C408 C 0.83089 0.95129 0.15936 0.0
C409 C 0.84554 1.01413 0.17829 0.0
C410 C 0.74559 0.71576 -0.00811 0.0
C411 C 0.83933 0.87277 0.09596 0.0
H412 H 0.84125 0.40973 0.10913 0.0
H413 H 0.88443 0.32555 -0.03044 0.0
H414 H 0.77136 0.42814 0.95694 0.0
H415 H 0.82415 0.36732 0.9162 0.0
H416 H 0.89965 0.99684 0.03638 0.0
H417 H 0.90195 0.12004 0.16825 0.0
H418 H 0.79269 0.90909 0.17983 0.0
H419 H 0.82254 0.01773 0.21478 0.0
Eu420 Eu 1.00251 0.28162 0.32196 0.0
C421 C 0.70817 0.07268 0.48144 0.0
C422 C 0.74082 0.94067 0.43581 0.0
C423 C 0.64916 0.94152 0.53951 0.0
C424 C 0.76078 0.01956 0.42227 0.0
C425 C 0.66171 0.02421 0.53174 0.0
C426 C 0.69497 0.90216 0.49155 0.0
C427 C 0.68372 0.13563 0.56434 0.0
N428 N 0.72647 0.14306 0.47427 0.0
C429 C 0.71819 0.17386 0.51792 0.0
C430 C 0.65327 0.06312 0.57041 0.0
Eu431 Eu 0.82231 0.19277 0.3742 0.0
N432 N 0.79409 0.05133 0.37408 0.0
C433 C 0.76842 1.00909 0.33169 0.0
C434 C 0.72252 0.90426 0.3881 0.0
C435 C 0.72995 0.93766 0.33862 0.0
H436 H 0.74169 0.22897 0.51906 0.0
H437 H 0.70011 0.90957 0.30508 0.0
H438 H 0.66431 0.85003 0.48001 0.0
H439 H 0.68172 0.16429 0.59787 0.0
H440 H 0.77137 0.03093 0.29319 0.0
H441 H 0.07434 0.51367 0.44256 0.0
H442 H 0.68975 0.8493 0.39017 0.0
H443 H 0.19258 0.37299 0.20402 0.0
H444 H 1.00071 0.39453 0.41963 0.0
H445 H 0.249 0.46261 0.14577 0.0
H446 H 0.63781 0.92932 0.58018 0.0
H447 H 0.1664 0.5907 0.38357 0.0
H448 H 0.22305 0.6353 0.29361 0.0
H449 H 0.62988 0.0391 0.60747 0.0
H450 H 0.22612 0.63168 0.18777 0.0
N451 N 0.03318 0.40153 0.34038 0.0
C452 C 0.03332 0.4276 0.38941 0.0
C453 C 0.12686 0.5419 0.36963 0.0
C454 C 0.12294 0.52718 0.31721 0.0
C455 C 0.07636 0.49638 0.40327 0.0
C456 C 0.05346 0.44776 0.30076 0.0
H457 H 0.217 0.54945 0.11752 0.0
N458 N 0.06625 0.3727 0.24193 0.0
C459 C 0.20296 0.45842 0.16303 0.0
C460 C 0.03744 0.42013 0.2357 0.0
C461 C 0.16156 0.39845 0.20253 0.0
C462 C 0.18285 0.50994 0.14479 0.0
C463 C 0.12562 0.5169 0.17137 0.0
O464 O 0.02912 0.20958 0.29622 0.0
O465 O 0.90122 0.17785 0.33442 0.0
O466 O 0.94013 0.25388 0.43054 0.0
O467 O 0.05122 0.32269 0.39431 0.0
O468 O 0.98424 0.18687 0.37028 0.0
O469 O 0.08788 0.26591 0.36285 0.0
O470 O 0.75886 0.22603 0.41335 0.0
O471 O 0.91934 0.29327 0.36621 0.0
O472 O 0.92723 0.24822 0.25558 0.0
O473 O 0.81292 0.16984 0.27999 0.0
O474 O 0.83844 0.28078 0.32175 0.0
O475 O 0.73991 0.20525 0.32953 0.0
C476 C 0.92288 0.14172 0.35758 0.0
C477 C 0.10882 0.1746 0.31893 0.0
C478 C 0.19576 0.13835 0.3285 0.0
C479 C 0.15551 0.16554 0.35168 0.0
C480 C 0.18215 0.11626 0.27633 0.0
C481 C 0.09179 0.14008 0.27035 0.0
C482 C 0.12279 0.10513 0.25238 0.0
C483 C 1.01327 0.29358 0.43485 0.0
C484 C 0.07248 0.21423 0.33115 0.0
C485 C 0.18329 0.58898 0.20753 0.0
C486 C 0.18198 0.58995 0.2753 0.0
C487 C 0.89343 0.32646 0.34413 0.0
C488 C 0.64909 0.20607 0.38689 0.0
C489 C 0.58817 0.17197 0.35504 0.0
C490 C 0.52305 0.15853 0.37645 0.0
C491 C 0.52179 0.17753 0.42884 0.0
C492 C 0.64378 0.23376 0.43511 0.0
C493 C 0.58158 0.22063 0.45505 0.0
C494 C 0.86189 0.20536 0.24258 0.0
C495 C 0.72139 0.22313 0.3731 0.0
H496 H 0.16455 0.18424 0.39188 0.0
H497 H 0.21575 0.10426 0.25409 0.0
H498 H 0.05669 0.14223 0.24321 0.0
H499 H 0.10738 0.07897 0.21473 0.0
H500 H 0.59149 0.15809 0.31468 0.0
H501 H 0.47483 0.16761 0.44787 0.0
H502 H 0.68814 0.2661 0.45853 0.0
H503 H 0.57955 0.24362 0.49201 0.0
Eu504 Eu 0.05434 0.29618 0.60104 0.0
C505 C 0.36742 0.40687 0.44093 0.0
C506 C 0.29569 0.24653 0.48093 0.0
C507 C 0.40291 0.31139 0.38758 0.0
C508 C 0.29925 0.32465 0.4908 0.0
C509 C 0.41452 0.38617 0.39131 0.0
C510 C 0.33965 0.23736 0.43143 0.0
C511 C 0.40582 0.47551 0.36932 0.0
N512 N 0.32747 0.37329 0.47113 0.0
C513 C 0.37219 0.45015 0.43105 0.0
C514 C 0.43094 0.43351 0.35189 0.0
Eu515 Eu 0.23619 0.39582 0.55568 0.0
N516 N 0.28044 0.32754 0.5411 0.0
C517 C 0.29673 0.2994 0.58214 0.0
C518 C 0.29865 0.21345 0.52599 0.0
C519 C 0.30912 0.2455 0.57471 0.0
H520 H 0.37118 0.50321 0.43735 0.0
H521 H 0.3227 0.22581 0.60837 0.0
H522 H 0.32289 0.18598 0.42744 0.0
H523 H 0.4035 0.51471 0.3469 0.0
H524 H 0.29744 0.317 0.62183 0.0
H525 H 0.97126 0.45162 0.47857 0.0
H526 H 0.31151 0.17364 0.52179 0.0
H527 H 0.86307 0.18371 0.71482 0.0
H528 H 0.04601 0.40738 0.49918 0.0
H529 H 0.79777 0.21061 0.77027 0.0
H530 H 0.41055 0.30632 0.34647 0.0
H531 H 0.87798 0.43333 0.53635 0.0
H532 H 0.80813 0.39923 0.62082 0.0
H533 H 0.44994 0.43191 0.31302 0.0
H534 H 0.80316 0.39231 0.72679 0.0
N535 N 1.01162 0.37534 0.5778 0.0
C536 C 1.01088 0.40228 0.52916 0.0
C537 C 0.91374 0.41787 0.54841 0.0
C538 C 0.91256 0.3986 0.5991 0.0
C539 C 0.96701 0.42752 0.51607 0.0
C540 C 0.98631 0.39702 0.61679 0.0
H541 H 0.81903 0.32566 0.79782 0.0
N542 N 0.98241 0.31493 0.67773 0.0
C543 C 0.84351 0.25401 0.75458 0.0
C544 C 1.00387 0.38975 0.68242 0.0
C545 C 0.8901 0.24009 0.71657 0.0
C546 C 0.85639 0.3239 0.77173 0.0
C547 C 0.90983 0.38982 0.74475 0.0
O548 O 0.03635 0.19756 0.62703 0.0
O549 O 0.16033 0.30588 0.59576 0.0
O550 O 0.13037 0.34481 0.49021 0.0
O551 O 1.01606 0.28987 0.5249 0.0
O552 O 0.08661 0.22831 0.5551 0.0
O553 O 0.98069 0.19458 0.55811 0.0
O554 O 0.28052 0.50767 0.54711 0.0
O555 O 0.13446 0.39268 0.55824 0.0
O556 O 0.12065 0.35205 0.67115 0.0
O557 O 0.22759 0.36565 0.64833 0.0
O558 O 0.2122 0.46917 0.5997 0.0
O559 O 0.31791 0.47602 0.61214 0.0
C560 C 0.14682 0.25012 0.57369 0.0
C561 C 0.95719 0.08266 0.60175 0.0
C562 C 0.85966 0.9617 0.5951 0.0
C563 C 0.90578 0.02706 0.57027 0.0
C564 C 0.8697 0.95741 0.64882 0.0
C565 C 0.97421 0.06462 0.64986 0.0
C566 C 0.93104 1.00285 0.67269 0.0
C567 C 0.05694 0.30803 0.48493 0.0
C568 C 0.99729 0.1588 0.58925 0.0
C569 C 0.84789 0.39577 0.70755 0.0
C570 C 0.84969 0.39655 0.63989 0.0
C571 C 0.15357 0.45189 0.5794 0.0
C572 C 0.39432 0.58703 0.56658 0.0
C573 C 0.45881 0.61348 0.59316 0.0
C574 C 0.52134 0.66071 0.56642 0.0
C575 C 0.51734 0.67539 0.51342 0.0
C576 C 0.39494 0.61582 0.51699 0.0
C577 C 0.45517 0.65811 0.49097 0.0
C578 C 0.1823 0.36379 0.68531 0.0
C579 C 0.3248 0.52934 0.58518 0.0
H580 H 0.8983 0.0358 0.52955 0.0
H581 H 0.83176 0.91577 0.67248 0.0
H582 H 1.01855 0.09978 0.67265 0.0
H583 H 0.94251 0.99197 0.71153 0.0
H584 H 0.46026 0.59936 0.63373 0.0
H585 H 0.56285 0.70952 0.4911 0.0
H586 H 0.34847 0.60396 0.49628 0.0
H587 H 0.45367 0.67979 0.45345 0.0
Eu588 Eu 0.196 0.80188 0.87531 0.0
C589 C 0.40249 0.07646 0.76389 0.0
C590 C 0.47297 1.00874 0.77285 0.0
C591 C 0.53503 0.08231 0.68116 0.0
C592 C 0.4197 0.02916 0.79027 0.0
C593 C 0.47396 0.15016 0.68192 0.0
C594 C 0.51918 0.02654 0.72346 0.0
C595 C 0.32136 0.12107 0.65183 0.0
N596 N 0.32141 0.05178 0.76083 0.0
C597 C 0.28059 0.06838 0.71369 0.0
C598 C 0.41655 0.16147 0.6352 0.0
Eu599 Eu 0.26931 0.98142 0.83705 0.0
N600 N 0.3918 1.01354 0.8388 0.0
C601 C 0.43198 1.00979 0.8781 0.0
C602 C 0.49238 0.98083 0.81356 0.0
C603 C 0.48242 0.99335 0.86582 0.0
H604 H 0.2272 0.04456 0.721 0.0
H605 H 0.50604 0.98041 0.89751 0.0
H606 H 0.55011 1.0021 0.71998 0.0
H607 H 0.36864 0.14537 0.63655 0.0
H608 H 0.41941 1.00734 0.91925 0.0
H609 H 0.90212 0.68072 0.80904 0.0
H610 H 0.52247 0.95655 0.80543 0.0
H611 H 0.23193 0.72607 0.02049 0.0
H612 H 0.02707 0.73141 0.79653 0.0
H613 H 0.16755 0.66181 0.0977 0.0
H614 H 0.57174 0.08158 0.65311 0.0
H615 H 0.85082 0.67961 0.89383 0.0
H616 H 0.85481 0.64966 -0.0202 0.0
H617 H 0.4466 0.19275 0.59796 0.0
H618 H 0.92813 0.61365 0.07855 0.0
N619 N 0.05279 0.7706 0.87404 0.0
C620 C 1.00771 0.73802 0.83386 0.0
C621 C 0.90622 0.70675 0.8909 0.0
C622 C 0.9452 0.72243 0.93686 0.0
C623 C 0.93567 0.70633 0.8418 0.0
C624 C 0.02289 0.74011 0.9225 0.0
H625 H 0.04611 0.62013 0.11008 0.0
N626 N 0.14543 0.70432 -0.02606 0.0
C627 C 0.13873 0.66303 0.06402 0.0
C628 C 0.07506 0.68579 -0.01919 0.0
C629 C 0.17665 0.69834 0.01806 0.0
C630 C 0.06686 0.63558 0.07088 0.0
C631 C 0.02627 0.63994 0.03114 0.0
O632 O 0.23753 0.74673 0.91626 0.0
O633 O 0.29179 0.90009 0.87502 0.0
O634 O 0.24219 0.91603 0.76462 0.0
O635 O 0.18104 0.79711 0.78072 0.0
O636 O 0.28556 0.82535 0.823 0.0
O637 O 0.21461 0.72198 0.83346 0.0
O638 O 0.25468 0.0651 0.81274 0.0
O639 O 0.17445 0.87879 0.83694 0.0
O640 O 0.25838 0.91755 0.9342 0.0
O641 O 0.32954 0.02908 0.90168 0.0
O642 O 0.16928 0.95547 0.87702 0.0
O643 O 0.22056 0.02539 0.89071 0.0
C644 C 0.32641 0.8754 0.85275 0.0
C645 C 0.22204 0.63769 0.89246 0.0
C646 C 0.17787 0.51339 0.8793 0.0
C647 C 0.19986 0.58027 0.85801 0.0
C648 C 0.17697 0.50677 0.9347 0.0
C649 C 0.23574 0.62884 0.94496 0.0
C650 C 0.20937 0.56413 -0.03332 0.0
C651 C 0.21133 0.85146 0.74698 0.0
C652 C 0.23676 0.70853 0.8771 0.0
C653 C 0.94355 0.62859 0.0387 0.0
C654 C 0.9072 0.67747 -0.00856 0.0
C655 C 0.1336 0.89734 0.85512 0.0
C656 C 0.15999 0.07596 0.84566 0.0
C657 C 0.15334 0.12755 0.87338 0.0
C658 C 0.11992 0.16022 0.84939 0.0
C659 C 0.07852 0.128 0.80552 0.0
C660 C 0.11788 0.04576 0.80202 0.0
C661 C 0.07406 0.06855 0.78445 0.0
C662 C 0.30214 0.98964 0.94113 0.0
C663 C 0.22032 0.06532 0.85397 0.0
H664 H 0.1983 0.58703 0.81588 0.0
H665 H 0.15829 0.45789 0.95365 0.0
H666 H 0.26654 0.67241 -0.03021 0.0
H667 H 0.21575 0.55845 0.00835 0.0
H668 H 0.17995 0.14715 0.91009 0.0
H669 H 0.05229 0.15076 0.7857 0.0
H670 H 0.12273 1.008 0.77918 0.0
H671 H 0.04367 0.04585 0.74979 0.0
Eu672 Eu 0.74174 0.75827 0.60488 0.0
C673 C 0.65355 0.96687 0.45126 0.0
C674 C 0.82069 0.09492 0.49483 0.0
C675 C 0.72813 0.09725 0.39301 0.0
C676 C 0.75995 0.01689 0.50889 0.0
C677 C 0.65653 0.01588 0.40133 0.0
C678 C 0.81397 0.13456 0.43973 0.0
C679 C 0.56658 0.90507 0.3685 0.0
N680 N 0.6 0.89708 0.45877 0.0
C681 C 0.56159 0.86653 0.41496 0.0
C682 C 0.6089 0.97759 0.36276 0.0
Eu683 Eu 0.64581 0.84472 0.55764 0.0
N684 N 0.76087 0.98498 0.55687 0.0
C685 C 0.77962 0.02745 0.59912 0.0
C686 C 0.84252 0.13138 0.54223 0.0
C687 C 0.81514 0.09871 0.59187 0.0
H688 H 0.53002 0.81128 0.41362 0.0
H689 H 0.81371 0.12714 0.62533 0.0
H690 H 0.83797 0.18724 0.45089 0.0
H691 H 0.53666 0.87666 0.33474 0.0
H692 H 0.76042 1.00621 0.63779 0.0
H693 H 0.57624 0.525 0.48256 0.0
H694 H 0.8682 0.1865 0.53969 0.0
H695 H 0.85059 0.67232 0.71341 0.0
H696 H 0.6171 0.64279 0.50877 0.0
H697 H 0.8252 0.58113 0.76819 0.0
H698 H 0.72897 0.10888 0.35229 0.0
H699 H 0.5961 0.44791 0.53638 0.0
H700 H 0.62875 0.40688 0.61951 0.0
H701 H 0.60986 1.00183 0.32576 0.0
H702 H 0.64017 0.40629 0.72553 0.0
N703 N 0.65368 0.63695 0.58454 0.0
C704 C 0.62292 0.6108 0.53664 0.0
C705 C 0.61076 0.49815 0.55069 0.0
C706 C 0.62983 0.51332 0.60194 0.0
C707 C 0.59991 0.54289 0.52059 0.0
C708 C 0.63375 0.58881 0.62254 0.0
H709 H 0.71032 0.48748 0.79722 0.0
N710 N 0.71925 0.66431 0.68167 0.0
C711 C 0.78122 0.5836 0.75395 0.0
C712 C 0.64443 0.6122 0.68823 0.0
C713 C 0.7944 0.64453 0.71713 0.0
C714 C 0.71178 0.52723 0.77223 0.0
C715 C 0.6453 0.51619 0.74762 0.0
O716 O 0.84135 0.83298 0.6293 0.0
O717 O 0.74217 0.86107 0.59437 0.0
O718 O 0.69476 0.78001 0.49938 0.0
O719 O 0.74479 0.71675 0.53209 0.0
O720 O 0.81347 0.85177 0.55341 0.0
O721 O 0.84238 0.7826 0.55929 0.0
O722 O 0.54933 0.80817 0.51794 0.0
O723 O 0.6424 0.74423 0.56751 0.0
O724 O 0.70264 0.79121 0.67314 0.0
O725 O 0.65866 0.86412 0.6522 0.0
O726 O 0.57713 0.75995 0.6139 0.0
O727 O 0.55077 0.83292 0.60114 0.0
C728 C 0.79922 0.89724 0.56987 0.0
C729 C 0.95603 0.86903 0.6046 0.0
C730 C 0.07923 0.90315 0.59517 0.0
C731 C 1.01312 0.88169 0.57105 0.0
C732 C 0.08422 0.91578 0.64919 0.0
C733 C 0.97284 0.89749 0.6554 0.0
C734 C 0.03812 0.92876 0.67428 0.0
C735 C 0.72841 0.74155 0.49284 0.0
C736 C 0.87978 0.83269 0.59178 0.0
C737 C 0.63637 0.44821 0.70805 0.0
C738 C 0.63261 0.45076 0.64024 0.0
C739 C 0.58578 0.71253 0.59358 0.0
C740 C 0.45956 0.82892 0.54334 0.0
C741 C 0.43296 0.86304 0.57529 0.0
C742 C 0.38103 0.87575 0.55441 0.0
C743 C 0.36011 0.85618 0.50224 0.0
C744 C 0.42631 0.80038 0.49549 0.0
C745 C 0.37657 0.81269 0.476 0.0
C746 C 0.67648 0.83031 0.68796 0.0
C747 C 0.51458 0.81253 0.55773 0.0
H748 H 1.00519 0.86888 0.52958 0.0
H749 H 0.12622 0.91951 0.67198 0.0
H750 H 0.93553 0.89339 0.68341 0.0
H751 H 0.04807 0.95013 0.7134 0.0
H752 H 0.45031 0.87717 0.61553 0.0
H753 H 0.3226 0.86573 0.48372 0.0
H754 H 0.43876 0.76825 0.47205 0.0
H755 H 0.35148 0.78945 0.43918 0.0
Eu756 Eu 0.22639 0.38918 0.87097 0.0
C757 C 0.96881 0.33175 0.75781 0.0
C758 C 0.03261 0.46955 0.77015 0.0
C759 C 0.96129 0.45911 0.6777 0.0
C760 C 1.01392 0.39571 0.78586 0.0
C761 C 0.89617 0.33025 0.67576 0.0
C762 C 1.01563 0.49864 0.72096 0.0
C763 C 0.93154 0.21137 0.6428 0.0
N764 N 0.99571 0.27678 0.75321 0.0
C765 C 0.98236 0.22165 0.70472 0.0
C766 C 0.88843 0.26427 0.62747 0.0
Eu767 Eu 0.05215 0.28626 0.83323 0.0
N768 N 0.02589 0.38153 0.83481 0.0
C769 C 0.02545 0.4232 0.87468 0.0
C770 C 0.05476 0.51491 0.8125 0.0
C771 C 0.04024 0.48996 0.86396 0.0
H772 H 1.00192 0.1873 0.71188 0.0
H773 H 0.0494 0.52475 0.89648 0.0
H774 H 0.03875 0.55398 0.71867 0.0
H775 H 0.90642 0.23392 0.62804 0.0
H776 H 0.02499 0.41141 0.91558 0.0
H777 H 0.3206 0.19503 0.79927 0.0
H778 H 0.07625 0.56932 0.80601 0.0
H779 H 0.30369 0.50135 0.01407 0.0
H780 H 0.26012 0.25961 0.78764 0.0
H781 H 0.37332 0.50637 0.08877 0.0
H782 H 0.9618 0.49691 0.65037 0.0
H783 H 0.34919 0.16713 0.88578 0.0
H784 H 0.38413 0.20456 -0.02597 0.0
H785 H 0.85713 0.26337 0.5906 0.0
H786 H 0.42141 0.31834 0.0701 0.0
N787 N 0.25416 0.27492 0.86936 0.0
C788 C 0.27074 0.2489 0.82696 0.0
C789 C 0.32132 0.19481 0.88427 0.0
C790 C 0.30878 0.21972 0.93114 0.0
C791 C 0.30606 0.2121 0.83393 0.0
C792 C 0.2898 0.27853 0.91647 0.0
H793 H 0.41716 0.42829 0.09936 0.0
N794 N 0.32741 0.4389 -0.03426 0.0
C795 C 0.3718 0.47619 0.05494 0.0
C796 C 0.34684 0.38782 -0.0278 0.0
C797 C 0.33343 0.47592 0.0103 0.0
C798 C 0.40107 0.43343 0.0607 0.0
C799 C 0.39494 0.38732 0.02145 0.0
O800 O 0.28402 0.48472 0.91361 0.0
O801 O 0.13123 0.39157 0.86928 0.0
O802 O 0.11621 0.30546 0.75949 0.0
O803 O 0.23243 0.38242 0.77801 0.0
O804 O 0.20707 0.45547 0.81565 0.0
O805 O 0.30985 0.48786 0.8309 0.0
O806 O 0.9539 0.20512 0.80745 0.0
O807 O 0.15007 0.28098 0.84036 0.0
O808 O 0.11216 0.34083 0.93077 0.0
O809 O 1.00168 0.29884 0.89655 0.0
O810 O 0.06969 0.21821 0.88891 0.0
O811 O 0.99582 0.18518 0.87651 0.0
C812 C 0.15892 0.45037 0.84602 0.0
C813 C 0.39455 0.57863 0.89136 0.0
C814 C 0.51981 0.65824 0.88072 0.0
C815 C 0.45357 0.61301 0.85818 0.0
C816 C 0.52442 0.66372 0.93611 0.0
C817 C 0.40171 0.60307 0.94327 0.0
C818 C 0.46569 0.64015 -0.03343 0.0
C819 C 0.18051 0.3477 0.74383 0.0
C820 C 0.32359 0.52249 0.87518 0.0
C821 C 0.40641 0.3167 0.03009 0.0
C822 C 0.35599 0.22907 -0.0147 0.0
C823 C 0.12546 0.22639 0.86902 0.0
C824 C 0.92033 0.08642 0.82137 0.0
C825 C 0.8955 0.02779 0.85569 0.0
C826 C 0.8486 0.96056 0.83564 0.0
C827 C 0.83364 0.9546 0.78164 0.0
C828 C 0.89497 0.07492 0.76976 0.0
C829 C 0.84854 1.01113 0.75213 0.0
C830 C 0.03982 0.31171 0.93672 0.0
C831 C 0.9493 0.15896 0.84057 0.0
H832 H 0.44839 0.60471 0.81597 0.0
H833 H 0.57273 0.69373 0.95588 0.0
H834 H 0.35731 0.59231 -0.03343 0.0
H835 H 0.46977 0.65293 0.0081 0.0
H836 H 0.90471 0.03528 0.89771 0.0
H837 H 0.80054 0.90624 0.76358 0.0
H838 H 0.8996 0.11489 0.74515 0.0
H839 H 0.82161 1.00593 0.71574 0.0
Eu840 Eu 0.28077 0.99384 0.60636 0.0
C841 C 0.07591 0.6958 0.45021 0.0
C842 C 0.94526 0.72969 0.49728 0.0
C843 C 0.94385 0.63745 0.3934 0.0
C844 C 0.02399 0.74893 0.51008 0.0
C845 C 0.02669 0.64983 0.40004 0.0
C846 C 0.9059 0.684 0.44193 0.0
C847 C 0.1395 0.68306 0.36318 0.0
N848 N 0.14671 0.71481 0.45618 0.0
C849 C 0.17787 0.71299 0.41044 0.0
C850 C 0.06645 0.64747 0.35903 0.0
Eu851 Eu 0.19817 0.81119 0.556 0.0
N852 N 0.05623 0.78188 0.55803 0.0
C853 C 1.01442 0.75662 0.60068 0.0
C854 C 0.90922 0.71281 0.54516 0.0
C855 C 0.94277 0.72001 0.59447 0.0
H856 H 0.23323 0.73998 0.40828 0.0
H857 H 0.91423 0.69167 0.62849 0.0
H858 H 0.85368 0.654 0.45381 0.0
H859 H 0.16829 0.68883 0.32763 0.0
H860 H 0.03678 0.7582 0.63858 0.0
H861 H 0.51718 0.07108 0.48333 0.0
H862 H 0.85416 0.68111 0.5434 0.0
H863 H 0.36399 0.18644 0.72442 0.0
H864 H 0.39899 0.99179 0.50699 0.0
H865 H 0.45391 0.24616 0.78114 0.0
H866 H 0.93061 0.62559 0.353 0.0
H867 H 0.59172 0.16714 0.53954 0.0
H868 H 0.63017 0.23577 0.62497 0.0
H869 H 0.04246 0.62782 0.32133 0.0
H870 H 0.62971 0.23914 0.73132 0.0
N871 N 0.4014 0.03209 0.58335 0.0
C872 C 0.42938 0.02956 0.53557 0.0
C873 C 0.54082 0.13092 0.55247 0.0
C874 C 0.52339 0.133 0.60358 0.0
C875 C 0.49767 0.0758 0.52104 0.0
C876 C 0.44779 0.06019 0.62184 0.0
H877 H 0.54834 0.22286 0.80473 0.0
N878 N 0.37145 0.06565 0.68401 0.0
C879 C 0.45269 0.20209 0.76295 0.0
C880 C 0.4235 0.04217 0.68731 0.0
C881 C 0.39203 0.15794 0.72493 0.0
C882 C 0.5088 0.18716 0.77825 0.0
C883 C 0.51934 0.13335 0.74964 0.0
O884 O 0.20489 0.01632 0.63457 0.0
O885 O 0.18068 0.89022 0.59341 0.0
O886 O 0.25998 0.92641 0.49863 0.0
O887 O 0.31991 0.03938 0.53317 0.0
O888 O 0.18777 0.97161 0.55494 0.0
O889 O 0.25593 0.07056 0.56634 0.0
O890 O 0.23345 0.75038 0.51516 0.0
O891 O 0.29681 0.91091 0.56504 0.0
O892 O 0.25281 0.9198 0.67292 0.0
O893 O 0.17822 0.80359 0.6501 0.0
O894 O 0.28738 0.83068 0.60852 0.0
O895 O 0.21203 0.72841 0.59852 0.0
C896 C 0.14397 0.91045 0.56939 0.0
C897 C 0.17989 0.10372 0.61529 0.0
C898 C 0.15742 0.1992 0.60406 0.0
C899 C 0.16463 0.14491 0.58158 0.0
C900 C 0.16127 0.20693 0.65903 0.0
C901 C 0.16867 0.1068 0.66927 0.0
C902 C 0.1685 0.1624 0.69104 0.0
C903 C 0.29659 0.99891 0.4932 0.0
C904 C 0.20409 0.05531 0.59783 0.0
C905 C 0.58764 0.19523 0.7121 0.0
C906 C 0.58566 0.19461 0.64425 0.0
C907 C 0.33208 0.88739 0.58727 0.0
C908 C 0.20996 0.63852 0.53875 0.0
C909 C 0.17606 0.57735 0.57043 0.0
C910 C 0.1588 0.51159 0.54795 0.0
C911 C 0.17318 0.51017 0.49445 0.0
C912 C 0.23458 0.63269 0.48914 0.0
C913 C 0.21728 0.56967 0.46787 0.0
C914 C 0.21283 0.8542 0.68641 0.0
C915 C 0.23001 0.7112 0.55435 0.0
H916 H 0.16292 0.13809 0.53924 0.0
H917 H 0.15208 0.24338 0.67853 0.0
H918 H 0.1567 0.06498 0.69487 0.0
H919 H 0.17112 0.16986 0.73294 0.0
H920 H 0.16617 0.58105 0.61177 0.0
H921 H 0.15743 0.46252 0.47436 0.0
H922 H 0.26776 0.67735 0.46589 0.0
H923 H 0.23785 0.56672 0.42993 0.0
Eu924 Eu 0.63548 0.83521 0.87727 0.0
C925 C 0.70535 0.63312 0.76166 0.0
C926 C 0.56857 0.56085 0.77807 0.0
C927 C 0.57356 0.50064 0.68318 0.0
C928 C 0.64311 0.61559 0.79149 0.0
C929 C 0.70181 0.56215 0.67749 0.0
C930 C 0.5366 0.51556 0.72876 0.0
C931 C 0.82111 0.71471 0.64399 0.0
N932 N 0.76071 0.71445 0.75733 0.0
C933 C 0.81382 0.75565 0.70745 0.0
C934 C 0.76625 0.61944 0.62828 0.0
Eu935 Eu 0.74644 0.76815 0.8339 0.0
N936 N 0.65951 0.64482 0.83933 0.0
C937 C 0.62048 0.60531 0.88104 0.0
C938 C 0.52625 0.53731 0.82232 0.0
C939 C 0.55423 0.55048 0.87287 0.0
H940 H 0.84631 0.80923 0.71284 0.0
H941 H 0.52163 0.52468 0.90649 0.0
H942 H 0.4812 0.48336 0.72841 0.0
H943 H 0.79739 0.66726 0.62895 0.0
H944 H 0.63446 0.61902 0.9214 0.0
H945 H 0.80524 0.12448 0.80262 0.0
H946 H 0.47176 0.50382 0.81802 0.0
H947 H 0.52665 0.80106 0.02452 0.0
H948 H 0.73532 0.99955 0.79271 0.0
H949 H 0.5274 0.86716 0.10091 0.0
H950 H 0.53484 0.46174 0.65806 0.0
H951 H 0.85197 0.18092 0.88768 0.0
H952 H 0.82279 0.17902 -0.02407 0.0
H953 H 0.76508 0.589 0.59047 0.0
H954 H 0.71565 0.10571 0.07691 0.0
N955 N 0.74479 0.97817 0.87237 0.0
C956 C 0.75789 0.02096 0.83058 0.0
C957 C 0.82375 0.12536 0.88614 0.0
C958 C 0.80436 0.08791 0.93315 0.0
C959 C 0.79568 0.09318 0.83705 0.0
C960 C 0.74512 1.00952 0.92063 0.0
H961 H 0.60675 0.9892 0.11081 0.0
N962 N 0.58926 0.88663 -0.0239 0.0
C963 C 0.55642 0.89526 0.06652 0.0
C964 C 0.64031 0.95751 -0.01863 0.0
C965 C 0.55347 0.85629 0.02111 0.0
C966 C 0.60018 0.96743 0.07195 0.0
C967 C 0.64386 1.00709 0.03122 0.0
O968 O 0.54016 0.79212 0.9212 0.0
O969 O 0.64096 0.74091 0.87184 0.0
O970 O 0.70061 0.79086 0.76461 0.0
O971 O 0.6506 0.85857 0.78379 0.0
O972 O 0.57227 0.7487 0.82153 0.0
O973 O 0.53474 0.81211 0.83815 0.0
O974 O 0.84469 0.83641 0.79833 0.0
O975 O 0.7385 0.86179 0.84627 0.0
O976 O 0.68962 0.77345 0.93508 0.0
O977 O 0.74546 0.71621 0.90133 0.0
O978 O 0.81538 0.85938 0.88652 0.0
O979 O 0.84297 0.78 0.8669 0.0
C980 C 0.58242 0.70628 0.8485 0.0
C981 C 0.44712 0.80926 0.89912 0.0
C982 C 0.37065 0.85777 0.88656 0.0
C983 C 0.41437 0.83431 0.86513 0.0
C984 C 0.36408 0.8581 0.94187 0.0
C985 C 0.42425 0.79581 0.95164 0.0
C986 C 0.3874 0.82401 -0.02637 0.0
C987 C 0.67343 0.82848 0.74875 0.0
C988 C 0.50115 0.7918 0.88295 0.0
C989 C 0.71449 0.09015 0.03699 0.0
C990 C 0.79865 0.12673 -0.0121 0.0
C991 C 0.79654 0.90018 0.86805 0.0
C992 C 0.94937 0.84061 0.8162 0.0
C993 C 1.01121 0.87773 0.84541 0.0
C994 C 0.07317 0.88577 0.82351 0.0
C995 C 0.0729 0.8663 0.77122 0.0
C996 C 0.95176 0.81074 0.76884 0.0
C997 C 1.01218 0.82344 0.74616 0.0
C998 C 0.72521 0.73627 0.94115 0.0
C999 C 0.88171 0.82901 0.83406 0.0
H1000 H 0.42285 0.83594 0.82298 0.0
H1001 H 0.33436 0.8776 0.96071 0.0
H1002 H 0.43576 0.76389 -0.02372 0.0
H1003 H 0.37498 0.81751 0.01529 0.0
H1004 H 1.01006 0.89436 0.88532 0.0
H1005 H 0.11894 0.87738 0.75165 0.0
H1006 H 0.90743 0.76858 0.75418 0.0
H1007 H 1.01163 0.79792 0.71006 0.0
loop_
_geom_bond_atom_site_label_1
_geom_bond_atom_site_label_2
_geom_bond_distance
_geom_bond_site_symmetry_2
_ccdc_geom_bond_type
Eu0 N31 2.657 . S
Eu0 N38 2.609 1_554 S
Eu0 O44 2.558 1_554 S
Eu0 O45 2.612 . S
Eu0 O47 2.339 . S
Eu0 O48 2.563 . S
Eu0 O49 2.419 . S
Eu0 O51 2.380 . S
Eu0 O52 2.432 1_554 S
Eu0 C64 2.848 . S
C1 C4 1.429 . S
C1 C5 1.411 . S
C1 N8 1.377 1_565 S
C2 C4 1.420 . S
C2 C6 1.423 . S
C2 C14 1.392 . S
C3 C5 1.420 . S
C3 C6 1.351 . S
C3 H26 0.931 . S
C4 C1 1.429 . S
C4 C2 1.420 . S
C4 N12 1.362 . S
C5 C1 1.411 . S
C5 C3 1.420 . S
C5 C10 1.395 . S
C6 C2 1.423 . S
C6 C3 1.351 . S
C6 H18 0.930 . S
C7 C9 1.400 1_565 S
C7 C10 1.386 . S
C7 H19 0.930 . S
N8 C1 1.377 1_545 S
N8 C9 1.321 . S
N8 Eu11 2.609 . S
C9 C7 1.400 1_545 S
C9 N8 1.321 . S
C9 H16 0.930 . S
C10 C5 1.395 . S
C10 C7 1.386 . S
C10 H29 0.930 . S
Eu11 N8 2.609 . S
Eu11 N12 2.657 1_545 S
Eu11 O45 2.380 . S
Eu11 O46 2.432 . S
Eu11 O50 2.558 1_545 S
Eu11 O51 2.612 . S
Eu11 O53 2.339 . S
Eu11 O54 2.563 . S
Eu11 O55 2.419 1_545 S
Eu11 C75 2.848 1_545 S
N12 C4 1.362 . S
N12 Eu11 2.657 1_565 S
N12 C13 1.334 . S
C13 N12 1.334 . S
C13 C15 1.413 . S
C13 H20 0.918 1_565 S
C14 C2 1.392 . S
C14 C15 1.367 . S
C14 H22 0.930 . S
C15 C13 1.413 . S
C15 C14 1.367 . S
C15 H17 0.930 . S
H16 C9 0.930 . S
H17 C15 0.930 . S
H18 C6 0.930 . S
H19 C7 0.930 . S
H20 C13 0.918 1_545 S
H21 C35 0.930 . S
H22 C14 0.930 . S
H23 C41 0.930 . S
H24 C32 0.929 . S
H25 C39 0.930 . S
H26 C3 0.931 . S
H27 C33 0.930 . S
H28 C66 0.930 . S
H29 C10 0.930 . S
H30 C65 0.931 . S
N31 Eu0 2.657 . S
N31 C32 1.334 . S
N31 C36 1.362 . S
C32 H24 0.929 . S
C32 N31 1.334 . S
C32 C35 1.413 . S
C33 H27 0.930 . S
C33 C34 1.392 . S
C33 C35 1.367 . S
C34 C33 1.392 . S
C34 C36 1.420 . S
C34 C66 1.423 . S
C35 H21 0.930 . S
C35 C32 1.413 . S
C35 C33 1.367 . S
C36 N31 1.362 . S
C36 C34 1.420 . S
C36 C40 1.429 1_554 S
H37 C42 0.930 . S
N38 Eu0 2.609 1_556 S
N38 C40 1.377 . S
N38 C41 1.321 . S
C39 H25 0.930 . S
C39 C41 1.400 . S
C39 C42 1.386 . S
C40 C36 1.429 1_556 S
C40 N38 1.377 . S
C40 C43 1.411 . S
C41 H23 0.930 . S
C41 N38 1.321 . S
C41 C39 1.400 . S
C42 H37 0.930 . S
C42 C39 1.386 . S
C42 C43 1.395 . S
C43 C40 1.411 . S
C43 C42 1.395 . S
C43 C65 1.420 . S
O44 Eu0 2.558 1_556 S
O44 C64 1.257 1_556 S
O45 Eu0 2.612 . S
O45 Eu11 2.380 . S
O45 C56 1.276 . S
O46 Eu11 2.432 . S
O46 C63 1.264 . S
O47 Eu0 2.339 . S
O47 C63 1.254 . S
O48 Eu0 2.563 . S
O48 C56 1.235 . S
O49 Eu0 2.419 . S
O49 C64 1.249 . S
O50 Eu11 2.558 1_565 S
O50 C75 1.257 . S
O51 Eu0 2.380 . S
O51 Eu11 2.612 . S
O51 C67 1.276 . S
O52 Eu0 2.432 1_556 S
O52 C74 1.264 . S
O53 Eu11 2.339 . S
O53 C74 1.254 1_554 S
O54 Eu11 2.563 . S
O54 C67 1.235 . S
O55 Eu11 2.419 1_565 S
O55 C75 1.249 . S
C56 O45 1.276 . S
C56 O48 1.235 . S
C57 C59 1.393 . S
C57 C61 1.395 1_554 S
C57 C64 1.492 . S
C58 C59 1.392 . S
C58 C60 1.386 . S
C59 C57 1.393 . S
C59 C58 1.392 . S
C59 H76 0.930 . S
C60 C58 1.386 . S
C60 C62 1.395 1_554 S
C60 H77 0.930 . S
C61 C57 1.395 1_556 S
C61 C62 1.379 . S
C61 H78 0.930 . S
C62 C60 1.395 1_556 S
C62 C61 1.379 . S
C62 H79 0.930 . S
C63 O46 1.264 . S
C63 O47 1.254 . S
C64 Eu0 2.848 . S
C64 O44 1.257 1_554 S
C64 O49 1.249 . S
C64 C57 1.492 . S
C65 H30 0.931 . S
C65 C43 1.420 . S
C65 C66 1.351 1_556 S
C66 H28 0.930 . S
C66 C34 1.423 . S
C66 C65 1.351 1_554 S
C67 O51 1.276 . S
C67 O54 1.235 . S
C68 C69 1.393 . S
C68 C72 1.395 . S
C68 C75 1.492 . S
C69 C68 1.393 . S
C69 C70 1.392 1_455 S
C69 H80 0.930 . S
C70 C69 1.392 1_655 S
C70 C71 1.386 . S
C71 C70 1.386 . S
C71 C73 1.395 1_655 S
C71 H81 0.930 . S
C72 C68 1.395 . S
C72 C73 1.379 . S
C72 H82 0.930 . S
C73 C71 1.395 1_455 S
C73 C72 1.379 . S
C73 H83 0.930 . S
C74 O52 1.264 . S
C74 O53 1.254 1_556 S
C75 Eu11 2.848 1_565 S
C75 O50 1.257 . S
C75 O55 1.249 . S
C75 C68 1.492 . S
H76 C59 0.930 . S
H77 C60 0.930 . S
H78 C61 0.930 . S
H79 C62 0.930 . S
H80 C69 0.930 . S
H81 C71 0.930 . S
H82 C72 0.930 . S
H83 C73 0.930 . S
Eu84 N115 2.657 . S
Eu84 N122 2.609 . S
Eu84 O128 2.558 . S
Eu84 O129 2.612 . S
Eu84 O131 2.339 . S
Eu84 O132 2.563 . S
Eu84 O133 2.419 . S
Eu84 O135 2.380 . S
Eu84 O136 2.432 . S
Eu84 C148 2.848 . S
C85 C88 1.429 . S
C85 C89 1.411 . S
C85 N92 1.377 1_455 S
C86 C88 1.420 . S
C86 C90 1.423 . S
C86 C98 1.392 . S
C87 C89 1.420 . S
C87 C90 1.351 . S
C87 H110 0.931 . S
C88 C85 1.429 . S
C88 C86 1.420 . S
C88 N96 1.362 1_455 S
C89 C85 1.411 . S
C89 C87 1.420 . S
C89 C94 1.395 . S
C90 C86 1.423 . S
C90 C87 1.351 . S
C90 H102 0.930 . S
C91 C93 1.400 . S
C91 C94 1.386 1_655 S
C91 H103 0.930 . S
N92 C85 1.377 1_655 S
N92 C93 1.321 . S
N92 Eu95 2.609 . S
C93 C91 1.400 . S
C93 N92 1.321 . S
C93 H100 0.930 . S
C94 C89 1.395 . S
C94 C91 1.386 1_455 S
C94 H113 0.930 . S
Eu95 N92 2.609 . S
Eu95 N96 2.657 . S
Eu95 O129 2.380 . S
Eu95 O130 2.432 . S
Eu95 O134 2.558 . S
Eu95 O135 2.612 . S
Eu95 O137 2.339 . S
Eu95 O138 2.563 . S
Eu95 O139 2.419 . S
Eu95 C159 2.848 . S
N96 C88 1.362 1_655 S
N96 Eu95 2.657 . S
N96 C97 1.334 1_655 S
C97 N96 1.334 1_455 S
C97 C99 1.413 . S
C97 H104 0.929 1_455 S
C98 C86 1.392 . S
C98 C99 1.367 . S
C98 H106 0.930 . S
C99 C97 1.413 . S
C99 C98 1.367 . S
C99 H101 0.930 . S
H100 C93 0.930 . S
H101 C99 0.930 . S
H102 C90 0.930 . S
H103 C91 0.930 . S
H104 C97 0.929 1_655 S
H105 C119 0.930 . S
H106 C98 0.930 . S
H107 C125 0.930 . S
H108 C116 0.929 . S
H109 C123 0.930 . S
H110 C87 0.931 . S
H111 C117 0.930 . S
H112 C150 0.930 . S
H113 C94 0.930 . S
H114 C149 0.931 . S
N115 Eu84 2.657 . S
N115 C116 1.334 . S
N115 C120 1.362 . S
C116 H108 0.929 . S
C116 N115 1.334 . S
C116 C119 1.413 . S
C117 H111 0.930 . S
C117 C118 1.392 . S
C117 C119 1.367 . S
C118 C117 1.392 . S
C118 C120 1.420 . S
C118 C150 1.423 . S
C119 H105 0.930 . S
C119 C116 1.413 . S
C119 C117 1.367 . S
C120 N115 1.362 . S
C120 C118 1.420 . S
C120 C124 1.429 . S
H121 C126 0.930 . S
N122 Eu84 2.609 . S
N122 C124 1.377 . S
N122 C125 1.321 . S
C123 H109 0.930 . S
C123 C125 1.400 . S
C123 C126 1.386 . S
C124 C120 1.429 . S
C124 N122 1.377 . S
C124 C127 1.411 . S
C125 H107 0.930 . S
C125 N122 1.321 . S
C125 C123 1.400 . S
C126 H121 0.930 . S
C126 C123 1.386 . S
C126 C127 1.395 . S
C127 C124 1.411 . S
C127 C126 1.395 . S
C127 C149 1.420 . S
O128 Eu84 2.558 . S
O128 C148 1.257 . S
O129 Eu84 2.612 . S
O129 Eu95 2.380 . S
O129 C140 1.276 . S
O130 Eu95 2.432 . S
O130 C147 1.264 . S
O131 Eu84 2.339 . S
O131 C147 1.254 . S
O132 Eu84 2.563 . S
O132 C140 1.235 . S
O133 Eu84 2.419 . S
O133 C148 1.249 . S
O134 Eu95 2.558 . S
O134 C159 1.257 . S
O135 Eu84 2.380 . S
O135 Eu95 2.612 . S
O135 C151 1.276 . S
O136 Eu84 2.432 . S
O136 C158 1.264 . S
O137 Eu95 2.339 . S
O137 C158 1.254 . S
O138 Eu95 2.563 . S
O138 C151 1.235 . S
O139 Eu95 2.419 . S
O139 C159 1.249 . S
C140 O129 1.276 . S
C140 O132 1.235 . S
C141 C143 1.393 . S
C141 C145 1.395 . S
C141 C148 1.492 . S
C142 C143 1.392 1_545 S
C142 C144 1.386 . S
C143 C141 1.393 . S
C143 C142 1.392 1_565 S
C143 H160 0.930 . S
C144 C142 1.386 . S
C144 C146 1.395 1_545 S
C144 H161 0.930 . S
C145 C141 1.395 . S
C145 C146 1.379 . S
C145 H162 0.930 . S
C146 C144 1.395 1_565 S
C146 C145 1.379 . S
C146 H163 0.931 . S
C147 O130 1.264 . S
C147 O131 1.254 . S
C148 Eu84 2.848 . S
C148 O128 1.257 . S
C148 O133 1.249 . S
C148 C141 1.492 . S
C149 H114 0.931 . S
C149 C127 1.420 . S
C149 C150 1.351 . S
C150 H112 0.930 . S
C150 C118 1.423 . S
C150 C149 1.351 . S
C151 O135 1.276 . S
C151 O138 1.235 . S
C152 C153 1.393 . S
C152 C156 1.395 . S
C152 C159 1.492 . S
C153 C152 1.393 . S
C153 C154 1.392 . S
C153 H164 0.930 . S
C154 C153 1.392 . S
C154 C155 1.386 . S
C155 C154 1.386 . S
C155 C157 1.395 . S
C155 H165 0.930 . S
C156 C152 1.395 . S
C156 C157 1.379 . S
C156 H166 0.930 . S
C157 C155 1.395 . S
C157 C156 1.379 . S
C157 H167 0.930 . S
C158 O136 1.264 . S
C158 O137 1.254 . S
C159 Eu95 2.848 . S
C159 O134 1.257 . S
C159 O139 1.249 . S
C159 C152 1.492 . S
H160 C143 0.930 . S
H161 C144 0.930 . S
H162 C145 0.930 . S
H163 C146 0.931 . S
H164 C153 0.930 . S
H165 C155 0.930 . S
H166 C156 0.930 . S
H167 C157 0.930 . S
Eu168 N199 2.657 . S
Eu168 N206 2.609 1_554 S
Eu168 O212 2.558 1_554 S
Eu168 O213 2.612 . S
Eu168 O215 2.339 . S
Eu168 O216 2.563 . S
Eu168 O217 2.419 . S
Eu168 O219 2.380 . S
Eu168 O220 2.432 1_554 S
Eu168 C232 2.848 . S
C169 C172 1.429 . S
C169 C173 1.411 . S
C169 N176 1.377 1_455 S
C170 C172 1.420 . S
C170 C174 1.423 . S
C170 C182 1.392 . S
C171 C173 1.420 . S
C171 C174 1.351 . S
C171 H194 0.931 . S
C172 C169 1.429 . S
C172 C170 1.420 . S
C172 N180 1.362 . S
C173 C169 1.411 . S
C173 C171 1.420 . S
C173 C178 1.395 . S
C174 C170 1.423 . S
C174 C171 1.351 . S
C174 H186 0.930 . S
C175 C177 1.400 1_455 S
C175 C178 1.386 . S
C175 H187 0.930 . S
N176 C169 1.377 1_655 S
N176 C177 1.321 . S
N176 Eu179 2.609 . S
C177 C175 1.400 1_655 S
C177 N176 1.321 . S
C177 H184 0.930 . S
C178 C173 1.395 . S
C178 C175 1.386 . S
C178 H197 0.930 . S
Eu179 N176 2.609 . S
Eu179 N180 2.657 1_655 S
Eu179 O213 2.380 . S
Eu179 O214 2.432 . S
Eu179 O218 2.558 1_655 S
Eu179 O219 2.612 . S
Eu179 O221 2.339 . S
Eu179 O222 2.563 . S
Eu179 O223 2.419 1_655 S
Eu179 C243 2.848 1_655 S
N180 C172 1.362 . S
N180 Eu179 2.657 1_455 S
N180 C181 1.334 . S
C181 N180 1.334 . S
C181 C183 1.413 . S
C181 H188 0.928 1_455 S
C182 C170 1.392 . S
C182 C183 1.367 . S
C182 H190 0.930 . S
C183 C181 1.413 . S
C183 C182 1.367 . S
C183 H185 0.930 . S
H184 C177 0.930 . S
H185 C183 0.930 . S
H186 C174 0.930 . S
H187 C175 0.930 . S
H188 C181 0.928 1_655 S
H189 C203 0.930 . S
H190 C182 0.930 . S
H191 C209 0.930 . S
H192 C200 0.929 1_545 S
H193 C207 0.930 . S
H194 C171 0.931 . S
H195 C201 0.930 . S
H196 C234 0.930 . S
H197 C178 0.930 . S
H198 C233 0.931 . S
N199 Eu168 2.657 . S
N199 C200 1.334 1_545 S
N199 C204 1.362 1_545 S
C200 H192 0.929 1_565 S
C200 N199 1.334 1_565 S
C200 C203 1.413 . S
C201 H195 0.930 . S
C201 C202 1.392 . S
C201 C203 1.367 . S
C202 C201 1.392 . S
C202 C204 1.420 . S
C202 C234 1.423 . S
C203 H189 0.930 . S
C203 C200 1.413 . S
C203 C201 1.367 . S
C204 N199 1.362 1_565 S
C204 C202 1.420 . S
C204 C208 1.429 1_554 S
H205 C210 0.930 . S
N206 Eu168 2.609 1_556 S
N206 C208 1.377 1_545 S
N206 C209 1.321 . S
C207 H193 0.930 . S
C207 C209 1.400 . S
C207 C210 1.386 1_545 S
C208 C204 1.429 1_556 S
C208 N206 1.377 1_565 S
C208 C211 1.411 . S
C209 H191 0.930 . S
C209 N206 1.321 . S
C209 C207 1.400 . S
C210 H205 0.930 . S
C210 C207 1.386 1_565 S
C210 C211 1.395 . S
C211 C208 1.411 . S
C211 C210 1.395 . S
C211 C233 1.420 . S
O212 Eu168 2.558 1_556 S
O212 C232 1.257 1_556 S
O213 Eu168 2.612 . S
O213 Eu179 2.380 . S
O213 C224 1.276 . S
O214 Eu179 2.432 . S
O214 C231 1.264 . S
O215 Eu168 2.339 . S
O215 C231 1.254 . S
O216 Eu168 2.563 . S
O216 C224 1.235 . S
O217 Eu168 2.419 . S
O217 C232 1.249 . S
O218 Eu179 2.558 1_455 S
O218 C243 1.257 . S
O219 Eu168 2.380 . S
O219 Eu179 2.612 . S
O219 C235 1.276 . S
O220 Eu168 2.432 1_556 S
O220 C242 1.264 . S
O221 Eu179 2.339 . S
O221 C242 1.254 1_554 S
O222 Eu179 2.563 . S
O222 C235 1.235 . S
O223 Eu179 2.419 1_455 S
O223 C243 1.249 . S
C224 O213 1.276 . S
C224 O216 1.235 . S
C225 C227 1.393 . S
C225 C229 1.395 1_554 S
C225 C232 1.492 . S
C226 C227 1.392 . S
C226 C228 1.386 . S
C227 C225 1.393 . S
C227 C226 1.392 . S
C227 H244 0.930 . S
C228 C226 1.386 . S
C228 C230 1.395 1_554 S
C228 H245 0.930 . S
C229 C225 1.395 1_556 S
C229 C230 1.379 . S
C229 H246 0.930 . S
C230 C228 1.395 1_556 S
C230 C229 1.379 . S
C230 H247 0.930 . S
C231 O214 1.264 . S
C231 O215 1.254 . S
C232 Eu168 2.848 . S
C232 O212 1.257 1_554 S
C232 O217 1.249 . S
C232 C225 1.492 . S
C233 H198 0.931 . S
C233 C211 1.420 . S
C233 C234 1.351 1_556 S
C234 H196 0.930 . S
C234 C202 1.423 . S
C234 C233 1.351 1_554 S
C235 O219 1.276 . S
C235 O222 1.235 . S
C236 C237 1.393 . S
C236 C240 1.395 . S
C236 C243 1.492 . S
C237 C236 1.393 . S
C237 C238 1.392 . S
C237 H248 0.930 . S
C238 C237 1.392 . S
C238 C239 1.386 . S
C239 C238 1.386 . S
C239 C241 1.395 . S
C239 H249 0.930 . S
C240 C236 1.395 . S
C240 C241 1.379 . S
C240 H250 0.930 . S
C241 C239 1.395 . S
C241 C240 1.379 . S
C241 H251 0.930 . S
C242 O220 1.264 . S
C242 O221 1.254 1_556 S
C243 Eu179 2.848 1_455 S
C243 O218 1.257 . S
C243 O223 1.249 . S
C243 C236 1.492 . S
H244 C227 0.930 . S
H245 C228 0.930 . S
H246 C229 0.930 . S
H247 C230 0.930 . S
H248 C237 0.930 . S
H249 C239 0.930 . S
H250 C240 0.930 . S
H251 C241 0.930 . S
Eu252 N283 2.657 1_545 S
Eu252 N290 2.609 . S
Eu252 O296 2.558 1_545 S
Eu252 O297 2.612 . S
Eu252 O299 2.339 . S
Eu252 O300 2.563 . S
Eu252 O301 2.419 1_545 S
Eu252 O303 2.380 . S
Eu252 O304 2.432 . S
Eu252 C316 2.848 1_545 S
C253 C256 1.429 . S
C253 C257 1.411 . S
C253 N260 1.377 . S
C254 C256 1.420 . S
C254 C258 1.423 . S
C254 C266 1.392 . S
C255 C257 1.420 . S
C255 C258 1.351 . S
C255 H278 0.931 . S
C256 C253 1.429 . S
C256 C254 1.420 . S
C256 N264 1.362 . S
C257 C253 1.411 . S
C257 C255 1.420 . S
C257 C262 1.395 . S
C258 C254 1.423 . S
C258 C255 1.351 . S
C258 H270 0.930 . S
C259 C261 1.400 . S
C259 C262 1.386 . S
C259 H271 0.930 . S
N260 C253 1.377 . S
N260 C261 1.321 . S
N260 Eu263 2.609 . S
C261 C259 1.400 . S
C261 N260 1.321 . S
C261 H268 0.930 . S
C262 C257 1.395 . S
C262 C259 1.386 . S
C262 H281 0.930 . S
Eu263 N260 2.609 . S
Eu263 N264 2.657 . S
Eu263 O297 2.380 . S
Eu263 O298 2.432 . S
Eu263 O302 2.558 . S
Eu263 O303 2.612 . S
Eu263 O305 2.339 . S
Eu263 O306 2.563 . S
Eu263 O307 2.419 . S
Eu263 C327 2.848 . S
N264 C256 1.362 . S
N264 Eu263 2.657 . S
N264 C265 1.334 . S
C265 N264 1.334 . S
C265 C267 1.413 . S
C265 H272 0.929 . S
C266 C254 1.392 . S
C266 C267 1.367 . S
C266 H274 0.930 . S
C267 C265 1.413 . S
C267 C266 1.367 . S
C267 H269 0.930 . S
H268 C261 0.930 . S
H269 C267 0.930 . S
H270 C258 0.930 . S
H271 C259 0.930 . S
H272 C265 0.929 . S
H273 C287 0.930 . S
H274 C266 0.930 . S
H275 C293 0.930 . S
H276 C284 0.918 1_545 S
H277 C291 0.930 . S
H278 C255 0.931 . S
H279 C285 0.930 . S
H280 C318 0.930 . S
H281 C262 0.930 . S
H282 C317 0.931 . S
N283 Eu252 2.657 1_565 S
N283 C284 1.334 . S
N283 C288 1.362 . S
C284 H276 0.918 1_565 S
C284 N283 1.334 . S
C284 C287 1.413 . S
C285 H279 0.930 . S
C285 C286 1.392 . S
C285 C287 1.367 . S
C286 C285 1.392 . S
C286 C288 1.420 . S
C286 C318 1.423 . S
C287 H273 0.930 . S
C287 C284 1.413 . S
C287 C285 1.367 . S
C288 N283 1.362 . S
C288 C286 1.420 . S
C288 C292 1.429 . S
H289 C294 0.930 . S
N290 Eu252 2.609 . S
N290 C292 1.377 1_545 S
N290 C293 1.321 . S
C291 H277 0.930 . S
C291 C293 1.400 1_565 S
C291 C294 1.386 . S
C292 C288 1.429 . S
C292 N290 1.377 1_565 S
C292 C295 1.411 . S
C293 H275 0.930 . S
C293 N290 1.321 . S
C293 C291 1.400 1_545 S
C294 H289 0.930 . S
C294 C291 1.386 . S
C294 C295 1.395 . S
C295 C292 1.411 . S
C295 C294 1.395 . S
C295 C317 1.420 . S
O296 Eu252 2.558 1_565 S
O296 C316 1.257 . S
O297 Eu252 2.612 . S
O297 Eu263 2.380 . S
O297 C308 1.276 . S
O298 Eu263 2.432 . S
O298 C315 1.264 . S
O299 Eu252 2.339 . S
O299 C315 1.254 . S
O300 Eu252 2.563 . S
O300 C308 1.235 . S
O301 Eu252 2.419 1_565 S
O301 C316 1.249 . S
O302 Eu263 2.558 . S
O302 C327 1.257 . S
O303 Eu252 2.380 . S
O303 Eu263 2.612 . S
O303 C319 1.276 . S
O304 Eu252 2.432 . S
O304 C326 1.264 . S
O305 Eu263 2.339 . S
O305 C326 1.254 . S
O306 Eu263 2.563 . S
O306 C319 1.235 . S
O307 Eu263 2.419 . S
O307 C327 1.249 . S
C308 O297 1.276 . S
C308 O300 1.235 . S
C309 C311 1.393 . S
C309 C313 1.395 . S
C309 C316 1.492 . S
C310 C311 1.392 1_655 S
C310 C312 1.386 . S
C311 C309 1.393 . S
C311 C310 1.392 1_455 S
C311 H328 0.930 . S
C312 C310 1.386 . S
C312 C314 1.395 1_655 S
C312 H329 0.930 . S
C313 C309 1.395 . S
C313 C314 1.379 . S
C313 H330 0.930 . S
C314 C312 1.395 1_455 S
C314 C313 1.379 . S
C314 H331 0.930 . S
C315 O298 1.264 . S
C315 O299 1.254 . S
C316 Eu252 2.848 1_565 S
C316 O296 1.257 . S
C316 O301 1.249 . S
C316 C309 1.492 . S
C317 H282 0.931 . S
C317 C295 1.420 . S
C317 C318 1.351 . S
C318 H280 0.930 . S
C318 C286 1.423 . S
C318 C317 1.351 . S
C319 O303 1.276 . S
C319 O306 1.235 . S
C320 C321 1.393 . S
C320 C324 1.395 . S
C320 C327 1.492 . S
C321 C320 1.393 . S
C321 C322 1.392 . S
C321 H332 0.930 . S
C322 C321 1.392 . S
C322 C323 1.386 . S
C323 C322 1.386 . S
C323 C325 1.395 . S
C323 H333 0.930 . S
C324 C320 1.395 . S
C324 C325 1.379 . S
C324 H334 0.930 . S
C325 C323 1.395 . S
C325 C324 1.379 . S
C325 H335 0.930 . S
C326 O304 1.264 . S
C326 O305 1.254 . S
C327 Eu263 2.848 . S
C327 O302 1.257 . S
C327 O307 1.249 . S
C327 C320 1.492 . S
H328 C311 0.930 . S
H329 C312 0.930 . S
H330 C313 0.930 . S
H331 C314 0.930 . S
H332 C321 0.930 . S
H333 C323 0.930 . S
H334 C324 0.930 . S
H335 C325 0.930 . S
Eu336 N367 2.657 . S
Eu336 N374 2.609 1_554 S
Eu336 O380 2.558 1_554 S
Eu336 O381 2.612 . S
Eu336 O383 2.339 . S
Eu336 O384 2.563 . S
Eu336 O385 2.419 . S
Eu336 O387 2.380 . S
Eu336 O388 2.432 1_554 S
Eu336 C400 2.848 . S
C337 C340 1.429 . S
C337 C341 1.411 . S
C337 N344 1.377 . S
C338 C340 1.420 . S
C338 C342 1.423 . S
C338 C350 1.392 . S
C339 C341 1.420 . S
C339 C342 1.351 . S
C339 H362 0.931 . S
C340 C337 1.429 . S
C340 C338 1.420 . S
C340 N348 1.362 . S
C341 C337 1.411 . S
C341 C339 1.420 . S
C341 C346 1.395 . S
C342 C338 1.423 . S
C342 C339 1.351 . S
C342 H354 0.930 . S
C343 C345 1.400 . S
C343 C346 1.386 . S
C343 H355 0.930 . S
N344 C337 1.377 . S
N344 C345 1.321 . S
N344 Eu347 2.609 . S
C345 C343 1.400 . S
C345 N344 1.321 . S
C345 H352 0.930 . S
C346 C341 1.395 . S
C346 C343 1.386 . S
C346 H365 0.930 . S
Eu347 N344 2.609 . S
Eu347 N348 2.657 . S
Eu347 O381 2.380 . S
Eu347 O382 2.432 . S
Eu347 O386 2.558 . S
Eu347 O387 2.612 . S
Eu347 O389 2.339 . S
Eu347 O390 2.563 . S
Eu347 O391 2.419 . S
Eu347 C411 2.848 . S
N348 C340 1.362 . S
N348 Eu347 2.657 . S
N348 C349 1.334 . S
C349 N348 1.334 . S
C349 C351 1.413 . S
C349 H356 0.929 . S
C350 C338 1.392 . S
C350 C351 1.367 . S
C350 H358 0.930 . S
C351 C349 1.413 . S
C351 C350 1.367 . S
C351 H353 0.930 . S
H352 C345 0.930 . S
H353 C351 0.930 . S
H354 C342 0.930 . S
H355 C343 0.930 . S
H356 C349 0.929 . S
H357 C371 0.930 . S
H358 C350 0.930 . S
H359 C377 0.930 . S
H360 C368 0.929 1_655 S
H361 C375 0.930 . S
H362 C339 0.931 . S
H363 C369 0.930 . S
H364 C402 0.930 . S
H365 C346 0.930 . S
H366 C401 0.931 . S
N367 Eu336 2.657 . S
N367 C368 1.334 1_655 S
N367 C372 1.362 1_655 S
C368 H360 0.929 1_455 S
C368 N367 1.334 1_455 S
C368 C371 1.413 . S
C369 H363 0.930 . S
C369 C370 1.392 . S
C369 C371 1.367 . S
C370 C369 1.392 . S
C370 C372 1.420 . S
C370 C402 1.423 . S
C371 H357 0.930 . S
C371 C368 1.413 . S
C371 C369 1.367 . S
C372 N367 1.362 1_455 S
C372 C370 1.420 . S
C372 C376 1.429 1_554 S
H373 C378 0.930 . S
N374 Eu336 2.609 1_556 S
N374 C376 1.377 1_655 S
N374 C377 1.321 . S
C375 H361 0.930 . S
C375 C377 1.400 . S
C375 C378 1.386 1_655 S
C376 C372 1.429 1_556 S
C376 N374 1.377 1_455 S
C376 C379 1.411 . S
C377 H359 0.930 . S
C377 N374 1.321 . S
C377 C375 1.400 . S
C378 H373 0.930 . S
C378 C375 1.386 1_455 S
C378 C379 1.395 . S
C379 C376 1.411 . S
C379 C378 1.395 . S
C379 C401 1.420 . S
O380 Eu336 2.558 1_556 S
O380 C400 1.257 1_556 S
O381 Eu336 2.612 . S
O381 Eu347 2.380 . S
O381 C392 1.276 . S
O382 Eu347 2.432 . S
O382 C399 1.264 . S
O383 Eu336 2.339 . S
O383 C399 1.254 . S
O384 Eu336 2.563 . S
O384 C392 1.235 . S
O385 Eu336 2.419 . S
O385 C400 1.249 . S
O386 Eu347 2.558 . S
O386 C411 1.257 . S
O387 Eu336 2.380 . S
O387 Eu347 2.612 . S
O387 C403 1.276 . S
O388 Eu336 2.432 1_556 S
O388 C410 1.264 . S
O389 Eu347 2.339 . S
O389 C410 1.254 1_554 S
O390 Eu347 2.563 . S
O390 C403 1.235 . S
O391 Eu347 2.419 . S
O391 C411 1.249 . S
C392 O381 1.276 . S
C392 O384 1.235 . S
C393 C395 1.393 . S
C393 C397 1.395 1_554 S
C393 C400 1.492 . S
C394 C395 1.392 . S
C394 C396 1.386 . S
C395 C393 1.393 . S
C395 C394 1.392 . S
C395 H412 0.930 . S
C396 C394 1.386 . S
C396 C398 1.395 1_554 S
C396 H413 0.930 . S
C397 C393 1.395 1_556 S
C397 C398 1.379 . S
C397 H414 0.930 . S
C398 C396 1.395 1_556 S
C398 C397 1.379 . S
C398 H415 0.930 . S
C399 O382 1.264 . S
C399 O383 1.254 . S
C400 Eu336 2.848 . S
C400 O380 1.257 1_554 S
C400 O385 1.249 . S
C400 C393 1.492 . S
C401 H366 0.931 . S
C401 C379 1.420 . S
C401 C402 1.351 1_556 S
C402 H364 0.930 . S
C402 C370 1.423 . S
C402 C401 1.351 1_554 S
C403 O387 1.276 . S
C403 O390 1.235 . S
C404 C405 1.393 . S
C404 C408 1.395 . S
C404 C411 1.492 . S
C405 C404 1.393 . S
C405 C406 1.392 1_565 S
C405 H416 0.930 . S
C406 C405 1.392 1_545 S
C406 C407 1.386 . S
C407 C406 1.386 . S
C407 C409 1.395 1_545 S
C407 H417 0.930 . S
C408 C404 1.395 . S
C408 C409 1.379 . S
C408 H418 0.930 . S
C409 C407 1.395 1_565 S
C409 C408 1.379 . S
C409 H419 0.931 . S
C410 O388 1.264 . S
C410 O389 1.254 1_556 S
C411 Eu347 2.848 . S
C411 O386 1.257 . S
C411 O391 1.249 . S
C411 C404 1.492 . S
H412 C395 0.930 . S
H413 C396 0.930 . S
H414 C397 0.930 . S
H415 C398 0.930 . S
H416 C405 0.930 . S
H417 C407 0.930 . S
H418 C408 0.930 . S
H419 C409 0.931 . S
Eu420 N451 2.657 1_655 S
Eu420 N458 2.609 . S
Eu420 O464 2.558 1_655 S
Eu420 O465 2.612 . S
Eu420 O467 2.339 . S
Eu420 O468 2.563 . S
Eu420 O469 2.419 1_655 S
Eu420 O471 2.380 . S
Eu420 O472 2.432 . S
Eu420 C484 2.848 1_655 S
C421 C424 1.429 . S
C421 C425 1.411 . S
C421 N428 1.377 1_565 S
C422 C424 1.420 . S
C422 C426 1.423 . S
C422 C434 1.392 . S
C423 C425 1.420 . S
C423 C426 1.351 . S
C423 H446 0.931 . S
C424 C421 1.429 . S
C424 C422 1.420 . S
C424 N432 1.362 1_565 S
C425 C421 1.411 . S
C425 C423 1.420 . S
C425 C430 1.395 . S
C426 C422 1.423 . S
C426 C423 1.351 . S
C426 H438 0.930 . S
C427 C429 1.400 . S
C427 C430 1.386 1_545 S
C427 H439 0.930 . S
N428 C421 1.377 1_545 S
N428 C429 1.321 . S
N428 Eu431 2.609 . S
C429 C427 1.400 . S
C429 N428 1.321 . S
C429 H436 0.930 . S
C430 C425 1.395 . S
C430 C427 1.386 1_565 S
C430 H449 0.930 . S
Eu431 N428 2.609 . S
Eu431 N432 2.657 . S
Eu431 O465 2.380 . S
Eu431 O466 2.432 . S
Eu431 O470 2.558 . S
Eu431 O471 2.612 . S
Eu431 O473 2.339 . S
Eu431 O474 2.563 . S
Eu431 O475 2.419 . S
Eu431 C495 2.848 . S
N432 C424 1.362 1_545 S
N432 Eu431 2.657 . S
N432 C433 1.334 1_545 S
C433 N432 1.334 1_565 S
C433 C435 1.413 . S
C433 H440 0.929 1_565 S
C434 C422 1.392 . S
C434 C435 1.367 . S
C434 H442 0.930 . S
C435 C433 1.413 . S
C435 C434 1.367 . S
C435 H437 0.930 . S
H436 C429 0.930 . S
H437 C435 0.930 . S
H438 C426 0.930 . S
H439 C427 0.930 . S
H440 C433 0.929 1_545 S
H441 C455 0.930 . S
H442 C434 0.930 . S
H443 C461 0.930 . S
H444 C452 0.928 1_655 S
H445 C459 0.930 . S
H446 C423 0.931 . S
H447 C453 0.930 . S
H448 C486 0.930 . S
H449 C430 0.930 . S
H450 C485 0.931 . S
N451 Eu420 2.657 1_455 S
N451 C452 1.334 . S
N451 C456 1.362 . S
C452 H444 0.928 1_455 S
C452 N451 1.334 . S
C452 C455 1.413 . S
C453 H447 0.930 . S
C453 C454 1.392 . S
C453 C455 1.367 . S
C454 C453 1.392 . S
C454 C456 1.420 . S
C454 C486 1.423 . S
C455 H441 0.930 . S
C455 C452 1.413 . S
C455 C453 1.367 . S
C456 N451 1.362 . S
C456 C454 1.420 . S
C456 C460 1.429 . S
H457 C462 0.930 . S
N458 Eu420 2.609 . S
N458 C460 1.377 1_655 S
N458 C461 1.321 . S
C459 H445 0.930 . S
C459 C461 1.400 1_455 S
C459 C462 1.386 . S
C460 C456 1.429 . S
C460 N458 1.377 1_455 S
C460 C463 1.411 . S
C461 H443 0.930 . S
C461 N458 1.321 . S
C461 C459 1.400 1_655 S
C462 H457 0.930 . S
C462 C459 1.386 . S
C462 C463 1.395 . S
C463 C460 1.411 . S
C463 C462 1.395 . S
C463 C485 1.420 . S
O464 Eu420 2.558 1_455 S
O464 C484 1.257 . S
O465 Eu420 2.612 . S
O465 Eu431 2.380 . S
O465 C476 1.276 . S
O466 Eu431 2.432 . S
O466 C483 1.264 . S
O467 Eu420 2.339 . S
O467 C483 1.254 . S
O468 Eu420 2.563 . S
O468 C476 1.235 . S
O469 Eu420 2.419 1_455 S
O469 C484 1.249 . S
O470 Eu431 2.558 . S
O470 C495 1.257 . S
O471 Eu420 2.380 . S
O471 Eu431 2.612 . S
O471 C487 1.276 . S
O472 Eu420 2.432 . S
O472 C494 1.264 . S
O473 Eu431 2.339 . S
O473 C494 1.254 . S
O474 Eu431 2.563 . S
O474 C487 1.235 . S
O475 Eu431 2.419 . S
O475 C495 1.249 . S
C476 O465 1.276 . S
C476 O468 1.235 . S
C477 C479 1.393 . S
C477 C481 1.395 . S
C477 C484 1.492 . S
C478 C479 1.392 . S
C478 C480 1.386 . S
C479 C477 1.393 . S
C479 C478 1.392 . S
C479 H496 0.930 . S
C480 C478 1.386 . S
C480 C482 1.395 . S
C480 H497 0.930 . S
C481 C477 1.395 . S
C481 C482 1.379 . S
C481 H498 0.930 . S
C482 C480 1.395 . S
C482 C481 1.379 . S
C482 H499 0.930 . S
C483 O466 1.264 . S
C483 O467 1.254 . S
C484 Eu420 2.848 1_455 S
C484 O464 1.257 . S
C484 O469 1.249 . S
C484 C477 1.492 . S
C485 H450 0.931 . S
C485 C463 1.420 . S
C485 C486 1.351 . S
C486 H448 0.930 . S
C486 C454 1.423 . S
C486 C485 1.351 . S
C487 O471 1.276 . S
C487 O474 1.235 . S
C488 C489 1.393 . S
C488 C492 1.395 . S
C488 C495 1.492 . S
C489 C488 1.393 . S
C489 C490 1.392 . S
C489 H500 0.930 . S
C490 C489 1.392 . S
C490 C491 1.386 . S
C491 C490 1.386 . S
C491 C493 1.395 . S
C491 H501 0.930 . S
C492 C488 1.395 . S
C492 C493 1.379 . S
C492 H502 0.930 . S
C493 C491 1.395 . S
C493 C492 1.379 . S
C493 H503 0.930 . S
C494 O472 1.264 . S
C494 O473 1.254 . S
C495 Eu431 2.848 . S
C495 O470 1.257 . S
C495 O475 1.249 . S
C495 C488 1.492 . S
H496 C479 0.930 . S
H497 C480 0.930 . S
H498 C481 0.930 . S
H499 C482 0.930 . S
H500 C489 0.930 . S
H501 C491 0.930 . S
H502 C492 0.930 . S
H503 C493 0.930 . S
Eu504 N535 2.657 1_455 S
Eu504 N542 2.609 . S
Eu504 O548 2.558 1_455 S
Eu504 O549 2.612 . S
Eu504 O551 2.339 . S
Eu504 O552 2.563 . S
Eu504 O553 2.419 1_455 S
Eu504 O555 2.380 . S
Eu504 O556 2.432 . S
Eu504 C568 2.848 1_455 S
C505 C508 1.429 . S
C505 C509 1.411 . S
C505 N512 1.377 . S
C506 C508 1.420 . S
C506 C510 1.423 . S
C506 C518 1.392 . S
C507 C509 1.420 . S
C507 C510 1.351 . S
C507 H530 0.931 . S
C508 C505 1.429 . S
C508 C506 1.420 . S
C508 N516 1.362 . S
C509 C505 1.411 . S
C509 C507 1.420 . S
C509 C514 1.395 . S
C510 C506 1.423 . S
C510 C507 1.351 . S
C510 H522 0.930 . S
C511 C513 1.400 . S
C511 C514 1.386 . S
C511 H523 0.930 . S
N512 C505 1.377 . S
N512 C513 1.321 . S
N512 Eu515 2.609 . S
C513 C511 1.400 . S
C513 N512 1.321 . S
C513 H520 0.930 . S
C514 C509 1.395 . S
C514 C511 1.386 . S
C514 H533 0.930 . S
Eu515 N512 2.609 . S
Eu515 N516 2.657 . S
Eu515 O549 2.380 . S
Eu515 O550 2.432 . S
Eu515 O554 2.558 . S
Eu515 O555 2.612 . S
Eu515 O557 2.339 . S
Eu515 O558 2.563 . S
Eu515 O559 2.419 . S
Eu515 C579 2.848 . S
N516 C508 1.362 . S
N516 Eu515 2.657 . S
N516 C517 1.334 . S
C517 N516 1.334 . S
C517 C519 1.413 . S
C517 H524 0.929 . S
C518 C506 1.392 . S
C518 C519 1.367 . S
C518 H526 0.930 . S
C519 C517 1.413 . S
C519 C518 1.367 . S
C519 H521 0.930 . S
H520 C513 0.930 . S
H521 C519 0.930 . S
H522 C510 0.930 . S
H523 C511 0.930 . S
H524 C517 0.929 . S
H525 C539 0.930 . S
H526 C518 0.930 . S
H527 C545 0.930 . S
H528 C536 0.918 1_455 S
H529 C543 0.930 . S
H530 C507 0.931 . S
H531 C537 0.930 . S
H532 C570 0.930 . S
H533 C514 0.930 . S
H534 C569 0.931 . S
N535 Eu504 2.657 1_655 S
N535 C536 1.334 . S
N535 C540 1.362 . S
C536 H528 0.918 1_655 S
C536 N535 1.334 . S
C536 C539 1.413 . S
C537 H531 0.930 . S
C537 C538 1.392 . S
C537 C539 1.367 . S
C538 C537 1.392 . S
C538 C540 1.420 . S
C538 C570 1.423 . S
C539 H525 0.930 . S
C539 C536 1.413 . S
C539 C537 1.367 . S
C540 N535 1.362 . S
C540 C538 1.420 . S
C540 C544 1.429 . S
H541 C546 0.930 . S
N542 Eu504 2.609 . S
N542 C544 1.377 1_455 S
N542 C545 1.321 . S
C543 H529 0.930 . S
C543 C545 1.400 1_655 S
C543 C546 1.386 . S
C544 C540 1.429 . S
C544 N542 1.377 1_655 S
C544 C547 1.411 . S
C545 H527 0.930 . S
C545 N542 1.321 . S
C545 C543 1.400 1_455 S
C546 H541 0.930 . S
C546 C543 1.386 . S
C546 C547 1.395 . S
C547 C544 1.411 . S
C547 C546 1.395 . S
C547 C569 1.420 . S
O548 Eu504 2.558 1_655 S
O548 C568 1.257 . S
O549 Eu504 2.612 . S
O549 Eu515 2.380 . S
O549 C560 1.276 . S
O550 Eu515 2.432 . S
O550 C567 1.264 . S
O551 Eu504 2.339 . S
O551 C567 1.254 . S
O552 Eu504 2.563 . S
O552 C560 1.235 . S
O553 Eu504 2.419 1_655 S
O553 C568 1.249 . S
O554 Eu515 2.558 . S
O554 C579 1.257 . S
O555 Eu504 2.380 . S
O555 Eu515 2.612 . S
O555 C571 1.276 . S
O556 Eu504 2.432 . S
O556 C578 1.264 . S
O557 Eu515 2.339 . S
O557 C578 1.254 . S
O558 Eu515 2.563 . S
O558 C571 1.235 . S
O559 Eu515 2.419 . S
O559 C579 1.249 . S
C560 O549 1.276 . S
C560 O552 1.235 . S
C561 C563 1.393 . S
C561 C565 1.395 . S
C561 C568 1.492 . S
C562 C563 1.392 1_565 S
C562 C564 1.386 . S
C563 C561 1.393 . S
C563 C562 1.392 1_545 S
C563 H580 0.930 . S
C564 C562 1.386 . S
C564 C566 1.395 1_565 S
C564 H581 0.930 . S
C565 C561 1.395 . S
C565 C566 1.379 . S
C565 H582 0.930 . S
C566 C564 1.395 1_545 S
C566 C565 1.379 . S
C566 H583 0.930 . S
C567 O550 1.264 . S
C567 O551 1.254 . S
C568 Eu504 2.848 1_655 S
C568 O548 1.257 . S
C568 O553 1.249 . S
C568 C561 1.492 . S
C569 H534 0.931 . S
C569 C547 1.420 . S
C569 C570 1.351 . S
C570 H532 0.930 . S
C570 C538 1.423 . S
C570 C569 1.351 . S
C571 O555 1.276 . S
C571 O558 1.235 . S
C572 C573 1.393 . S
C572 C576 1.395 . S
C572 C579 1.492 . S
C573 C572 1.393 . S
C573 C574 1.392 . S
C573 H584 0.930 . S
C574 C573 1.392 . S
C574 C575 1.386 . S
C575 C574 1.386 . S
C575 C577 1.395 . S
C575 H585 0.930 . S
C576 C572 1.395 . S
C576 C577 1.379 . S
C576 H586 0.930 . S
C577 C575 1.395 . S
C577 C576 1.379 . S
C577 H587 0.930 . S
C578 O556 1.264 . S
C578 O557 1.254 . S
C579 Eu515 2.848 . S
C579 O554 1.257 . S
C579 O559 1.249 . S
C579 C572 1.492 . S
H580 C563 0.930 . S
H581 C564 0.930 . S
H582 C565 0.930 . S
H583 C566 0.930 . S
H584 C573 0.930 . S
H585 C575 0.930 . S
H586 C576 0.930 . S
H587 C577 0.930 . S
Eu588 N619 2.657 . S
Eu588 N626 2.609 1_556 S
Eu588 O632 2.558 1_556 S
Eu588 O633 2.612 . S
Eu588 O635 2.339 . S
Eu588 O636 2.563 . S
Eu588 O637 2.419 . S
Eu588 O639 2.380 . S
Eu588 O640 2.432 1_556 S
Eu588 C652 2.848 . S
C589 C592 1.429 . S
C589 C593 1.411 . S
C589 N596 1.377 1_545 S
C590 C592 1.420 . S
C590 C594 1.423 . S
C590 C602 1.392 . S
C591 C593 1.420 . S
C591 C594 1.351 . S
C591 H614 0.931 . S
C592 C589 1.429 . S
C592 C590 1.420 . S
C592 N600 1.362 . S
C593 C589 1.411 . S
C593 C591 1.420 . S
C593 C598 1.395 . S
C594 C590 1.423 . S
C594 C591 1.351 . S
C594 H606 0.930 . S
C595 C597 1.400 1_545 S
C595 C598 1.386 . S
C595 H607 0.930 . S
N596 C589 1.377 1_565 S
N596 C597 1.321 . S
N596 Eu599 2.609 . S
C597 C595 1.400 1_565 S
C597 N596 1.321 . S
C597 H604 0.930 . S
C598 C593 1.395 . S
C598 C595 1.386 . S
C598 H617 0.930 . S
Eu599 N596 2.609 . S
Eu599 N600 2.657 1_565 S
Eu599 O633 2.380 . S
Eu599 O634 2.432 . S
Eu599 O638 2.558 1_565 S
Eu599 O639 2.612 . S
Eu599 O641 2.339 . S
Eu599 O642 2.563 . S
Eu599 O643 2.419 1_565 S
Eu599 C663 2.848 1_565 S
N600 C592 1.362 . S
N600 Eu599 2.657 1_545 S
N600 C601 1.334 . S
C601 N600 1.334 . S
C601 C603 1.413 . S
C601 H608 0.928 1_545 S
C602 C590 1.392 . S
C602 C603 1.367 . S
C602 H610 0.930 . S
C603 C601 1.413 . S
C603 C602 1.367 . S
C603 H605 0.930 . S
H604 C597 0.930 . S
H605 C603 0.930 . S
H606 C594 0.930 . S
H607 C595 0.930 . S
H608 C601 0.928 1_565 S
H609 C623 0.930 . S
H610 C602 0.930 . S
H611 C629 0.930 . S
H612 C620 0.929 1_455 S
H613 C627 0.930 . S
H614 C591 0.931 . S
H615 C621 0.930 . S
H616 C654 0.930 . S
H617 C598 0.930 . S
H618 C653 0.931 . S
N619 Eu588 2.657 . S
N619 C620 1.334 1_455 S
N619 C624 1.362 1_455 S
C620 H612 0.929 1_655 S
C620 N619 1.334 1_655 S
C620 C623 1.413 . S
C621 H615 0.930 . S
C621 C622 1.392 . S
C621 C623 1.367 . S
C622 C621 1.392 . S
C622 C624 1.420 . S
C622 C654 1.423 . S
C623 H609 0.930 . S
C623 C620 1.413 . S
C623 C621 1.367 . S
C624 N619 1.362 1_655 S
C624 C622 1.420 . S
C624 C628 1.429 1_556 S
H625 C630 0.930 . S
N626 Eu588 2.609 1_554 S
N626 C628 1.377 1_455 S
N626 C629 1.321 . S
C627 H613 0.930 . S
C627 C629 1.400 . S
C627 C630 1.386 1_455 S
C628 C624 1.429 1_554 S
C628 N626 1.377 1_655 S
C628 C631 1.411 . S
C629 H611 0.930 . S
C629 N626 1.321 . S
C629 C627 1.400 . S
C630 H625 0.930 . S
C630 C627 1.386 1_655 S
C630 C631 1.395 . S
C631 C628 1.411 . S
C631 C630 1.395 . S
C631 C653 1.420 . S
O632 Eu588 2.558 1_554 S
O632 C652 1.257 1_554 S
O633 Eu588 2.612 . S
O633 Eu599 2.380 . S
O633 C644 1.276 . S
O634 Eu599 2.432 . S
O634 C651 1.264 . S
O635 Eu588 2.339 . S
O635 C651 1.254 . S
O636 Eu588 2.563 . S
O636 C644 1.235 . S
O637 Eu588 2.419 . S
O637 C652 1.249 . S
O638 Eu599 2.558 1_545 S
O638 C663 1.257 . S
O639 Eu588 2.380 . S
O639 Eu599 2.612 . S
O639 C655 1.276 . S
O640 Eu588 2.432 1_554 S
O640 C662 1.264 . S
O641 Eu599 2.339 . S
O641 C662 1.254 1_556 S
O642 Eu599 2.563 . S
O642 C655 1.235 . S
O643 Eu599 2.419 1_545 S
O643 C663 1.249 . S
C644 O633 1.276 . S
C644 O636 1.235 . S
C645 C647 1.393 . S
C645 C649 1.395 1_556 S
C645 C652 1.492 . S
C646 C647 1.392 . S
C646 C648 1.386 . S
C647 C645 1.393 . S
C647 C646 1.392 . S
C647 H664 0.930 . S
C648 C646 1.386 . S
C648 C650 1.395 1_556 S
C648 H665 0.930 . S
C649 C645 1.395 1_554 S
C649 C650 1.379 . S
C649 H666 0.930 . S
C650 C648 1.395 1_554 S
C650 C649 1.379 . S
C650 H667 0.930 . S
C651 O634 1.264 . S
C651 O635 1.254 . S
C652 Eu588 2.848 . S
C652 O632 1.257 1_556 S
C652 O637 1.249 . S
C652 C645 1.492 . S
C653 H618 0.931 . S
C653 C631 1.420 . S
C653 C654 1.351 1_554 S
C654 H616 0.930 . S
C654 C622 1.423 . S
C654 C653 1.351 1_556 S
C655 O639 1.276 . S
C655 O642 1.235 . S
C656 C657 1.393 . S
C656 C660 1.395 . S
C656 C663 1.492 . S
C657 C656 1.393 . S
C657 C658 1.392 . S
C657 H668 0.930 . S
C658 C657 1.392 . S
C658 C659 1.386 . S
C659 C658 1.386 . S
C659 C661 1.395 . S
C659 H669 0.930 . S
C660 C656 1.395 . S
C660 C661 1.379 . S
C660 H670 0.930 . S
C661 C659 1.395 . S
C661 C660 1.379 . S
C661 H671 0.930 . S
C662 O640 1.264 . S
C662 O641 1.254 1_554 S
C663 Eu599 2.848 1_545 S
C663 O638 1.257 . S
C663 O643 1.249 . S
C663 C656 1.492 . S
H664 C647 0.930 . S
H665 C648 0.930 . S
H666 C649 0.930 . S
H667 C650 0.930 . S
H668 C657 0.930 . S
H669 C659 0.930 . S
H670 C660 0.930 . S
H671 C661 0.930 . S
Eu672 N703 2.657 . S
Eu672 N710 2.609 . S
Eu672 O716 2.558 . S
Eu672 O717 2.612 . S
Eu672 O719 2.339 . S
Eu672 O720 2.563 . S
Eu672 O721 2.419 . S
Eu672 O723 2.380 . S
Eu672 O724 2.432 . S
Eu672 C736 2.848 . S
C673 C676 1.429 . S
C673 C677 1.411 . S
C673 N680 1.377 1_545 S
C674 C676 1.420 . S
C674 C678 1.423 . S
C674 C686 1.392 . S
C675 C677 1.420 . S
C675 C678 1.351 . S
C675 H698 0.931 . S
C676 C673 1.429 . S
C676 C674 1.420 . S
C676 N684 1.362 1_545 S
C677 C673 1.411 . S
C677 C675 1.420 . S
C677 C682 1.395 . S
C678 C674 1.423 . S
C678 C675 1.351 . S
C678 H690 0.930 . S
C679 C681 1.400 . S
C679 C682 1.386 1_565 S
C679 H691 0.930 . S
N680 C673 1.377 1_565 S
N680 C681 1.321 . S
N680 Eu683 2.609 . S
C681 C679 1.400 . S
C681 N680 1.321 . S
C681 H688 0.930 . S
C682 C677 1.395 . S
C682 C679 1.386 1_545 S
C682 H701 0.930 . S
Eu683 N680 2.609 . S
Eu683 N684 2.657 . S
Eu683 O717 2.380 . S
Eu683 O718 2.432 . S
Eu683 O722 2.558 . S
Eu683 O723 2.612 . S
Eu683 O725 2.339 . S
Eu683 O726 2.563 . S
Eu683 O727 2.419 . S
Eu683 C747 2.848 . S
N684 C676 1.362 1_565 S
N684 Eu683 2.657 . S
N684 C685 1.334 1_565 S
C685 N684 1.334 1_545 S
C685 C687 1.413 . S
C685 H692 0.929 1_545 S
C686 C674 1.392 . S
C686 C687 1.367 . S
C686 H694 0.930 . S
C687 C685 1.413 . S
C687 C686 1.367 . S
C687 H689 0.930 . S
H688 C681 0.930 . S
H689 C687 0.930 . S
H690 C678 0.930 . S
H691 C679 0.930 . S
H692 C685 0.929 1_565 S
H693 C707 0.930 . S
H694 C686 0.930 . S
H695 C713 0.930 . S
H696 C704 0.929 . S
H697 C711 0.930 . S
H698 C675 0.931 . S
H699 C705 0.930 . S
H700 C738 0.930 . S
H701 C682 0.930 . S
H702 C737 0.931 . S
N703 Eu672 2.657 . S
N703 C704 1.334 . S
N703 C708 1.362 . S
C704 H696 0.929 . S
C704 N703 1.334 . S
C704 C707 1.413 . S
C705 H699 0.930 . S
C705 C706 1.392 . S
C705 C707 1.367 . S
C706 C705 1.392 . S
C706 C708 1.420 . S
C706 C738 1.423 . S
C707 H693 0.930 . S
C707 C704 1.413 . S
C707 C705 1.367 . S
C708 N703 1.362 . S
C708 C706 1.420 . S
C708 C712 1.429 . S
H709 C714 0.930 . S
N710 Eu672 2.609 . S
N710 C712 1.377 . S
N710 C713 1.321 . S
C711 H697 0.930 . S
C711 C713 1.400 . S
C711 C714 1.386 . S
C712 C708 1.429 . S
C712 N710 1.377 . S
C712 C715 1.411 . S
C713 H695 0.930 . S
C713 N710 1.321 . S
C713 C711 1.400 . S
C714 H709 0.930 . S
C714 C711 1.386 . S
C714 C715 1.395 . S
C715 C712 1.411 . S
C715 C714 1.395 . S
C715 C737 1.420 . S
O716 Eu672 2.558 . S
O716 C736 1.257 . S
O717 Eu672 2.612 . S
O717 Eu683 2.380 . S
O717 C728 1.276 . S
O718 Eu683 2.432 . S
O718 C735 1.264 . S
O719 Eu672 2.339 . S
O719 C735 1.254 . S
O720 Eu672 2.563 . S
O720 C728 1.235 . S
O721 Eu672 2.419 . S
O721 C736 1.249 . S
O722 Eu683 2.558 . S
O722 C747 1.257 . S
O723 Eu672 2.380 . S
O723 Eu683 2.612 . S
O723 C739 1.276 . S
O724 Eu672 2.432 . S
O724 C746 1.264 . S
O725 Eu683 2.339 . S
O725 C746 1.254 . S
O726 Eu683 2.563 . S
O726 C739 1.235 . S
O727 Eu683 2.419 . S
O727 C747 1.249 . S
C728 O717 1.276 . S
C728 O720 1.235 . S
C729 C731 1.393 . S
C729 C733 1.395 . S
C729 C736 1.492 . S
C730 C731 1.392 1_455 S
C730 C732 1.386 . S
C731 C729 1.393 . S
C731 C730 1.392 1_655 S
C731 H748 0.930 . S
C732 C730 1.386 . S
C732 C734 1.395 1_455 S
C732 H749 0.930 . S
C733 C729 1.395 . S
C733 C734 1.379 . S
C733 H750 0.930 . S
C734 C732 1.395 1_655 S
C734 C733 1.379 . S
C734 H751 0.931 . S
C735 O718 1.264 . S
C735 O719 1.254 . S
C736 Eu672 2.848 . S
C736 O716 1.257 . S
C736 O721 1.249 . S
C736 C729 1.492 . S
C737 H702 0.931 . S
C737 C715 1.420 . S
C737 C738 1.351 . S
C738 H700 0.930 . S
C738 C706 1.423 . S
C738 C737 1.351 . S
C739 O723 1.276 . S
C739 O726 1.235 . S
C740 C741 1.393 . S
C740 C744 1.395 . S
C740 C747 1.492 . S
C741 C740 1.393 . S
C741 C742 1.392 . S
C741 H752 0.930 . S
C742 C741 1.392 . S
C742 C743 1.386 . S
C743 C742 1.386 . S
C743 C745 1.395 . S
C743 H753 0.930 . S
C744 C740 1.395 . S
C744 C745 1.379 . S
C744 H754 0.930 . S
C745 C743 1.395 . S
C745 C744 1.379 . S
C745 H755 0.930 . S
C746 O724 1.264 . S
C746 O725 1.254 . S
C747 Eu683 2.848 . S
C747 O722 1.257 . S
C747 O727 1.249 . S
C747 C740 1.492 . S
H748 C731 0.930 . S
H749 C732 0.930 . S
H750 C733 0.930 . S
H751 C734 0.931 . S
H752 C741 0.930 . S
H753 C743 0.930 . S
H754 C744 0.930 . S
H755 C745 0.930 . S
Eu756 N787 2.657 . S
Eu756 N794 2.609 1_556 S
Eu756 O800 2.558 1_556 S
Eu756 O801 2.612 . S
Eu756 O803 2.339 . S
Eu756 O804 2.563 . S
Eu756 O805 2.419 . S
Eu756 O807 2.380 . S
Eu756 O808 2.432 1_556 S
Eu756 C820 2.848 . S
C757 C760 1.429 . S
C757 C761 1.411 . S
C757 N764 1.377 1_655 S
C758 C760 1.420 . S
C758 C762 1.423 . S
C758 C770 1.392 . S
C759 C761 1.420 . S
C759 C762 1.351 . S
C759 H782 0.931 . S
C760 C757 1.429 . S
C760 C758 1.420 . S
C760 N768 1.362 . S
C761 C757 1.411 . S
C761 C759 1.420 . S
C761 C766 1.395 . S
C762 C758 1.423 . S
C762 C759 1.351 . S
C762 H774 0.930 . S
C763 C765 1.400 1_655 S
C763 C766 1.386 . S
C763 H775 0.930 . S
N764 C757 1.377 1_455 S
N764 C765 1.321 . S
N764 Eu767 2.609 . S
C765 C763 1.400 1_455 S
C765 N764 1.321 . S
C765 H772 0.930 . S
C766 C761 1.395 . S
C766 C763 1.386 . S
C766 H785 0.930 . S
Eu767 N764 2.609 . S
Eu767 N768 2.657 1_455 S
Eu767 O801 2.380 . S
Eu767 O802 2.432 . S
Eu767 O806 2.558 1_455 S
Eu767 O807 2.612 . S
Eu767 O809 2.339 . S
Eu767 O810 2.563 . S
Eu767 O811 2.419 1_455 S
Eu767 C831 2.848 1_455 S
N768 C760 1.362 . S
N768 Eu767 2.657 1_655 S
N768 C769 1.334 . S
C769 N768 1.334 . S
C769 C771 1.413 . S
C769 H776 0.918 1_655 S
C770 C758 1.392 . S
C770 C771 1.367 . S
C770 H778 0.930 . S
C771 C769 1.413 . S
C771 C770 1.367 . S
C771 H773 0.930 . S
H772 C765 0.930 . S
H773 C771 0.930 . S
H774 C762 0.930 . S
H775 C763 0.930 . S
H776 C769 0.918 1_455 S
H777 C791 0.930 . S
H778 C770 0.930 . S
H779 C797 0.930 . S
H780 C788 0.929 . S
H781 C795 0.930 . S
H782 C759 0.931 . S
H783 C789 0.930 . S
H784 C822 0.930 . S
H785 C766 0.930 . S
H786 C821 0.931 . S
N787 Eu756 2.657 . S
N787 C788 1.334 . S
N787 C792 1.362 . S
C788 H780 0.929 . S
C788 N787 1.334 . S
C788 C791 1.413 . S
C789 H783 0.930 . S
C789 C790 1.392 . S
C789 C791 1.367 . S
C790 C789 1.392 . S
C790 C792 1.420 . S
C790 C822 1.423 . S
C791 H777 0.930 . S
C791 C788 1.413 . S
C791 C789 1.367 . S
C792 N787 1.362 . S
C792 C790 1.420 . S
C792 C796 1.429 1_556 S
H793 C798 0.930 . S
N794 Eu756 2.609 1_554 S
N794 C796 1.377 . S
N794 C797 1.321 . S
C795 H781 0.930 . S
C795 C797 1.400 . S
C795 C798 1.386 . S
C796 C792 1.429 1_554 S
C796 N794 1.377 . S
C796 C799 1.411 . S
C797 H779 0.930 . S
C797 N794 1.321 . S
C797 C795 1.400 . S
C798 H793 0.930 . S
C798 C795 1.386 . S
C798 C799 1.395 . S
C799 C796 1.411 . S
C799 C798 1.395 . S
C799 C821 1.420 . S
O800 Eu756 2.558 1_554 S
O800 C820 1.257 1_554 S
O801 Eu756 2.612 . S
O801 Eu767 2.380 . S
O801 C812 1.276 . S
O802 Eu767 2.432 . S
O802 C819 1.264 . S
O803 Eu756 2.339 . S
O803 C819 1.254 . S
O804 Eu756 2.563 . S
O804 C812 1.235 . S
O805 Eu756 2.419 . S
O805 C820 1.249 . S
O806 Eu767 2.558 1_655 S
O806 C831 1.257 . S
O807 Eu756 2.380 . S
O807 Eu767 2.612 . S
O807 C823 1.276 . S
O808 Eu756 2.432 1_554 S
O808 C830 1.264 . S
O809 Eu767 2.339 . S
O809 C830 1.254 1_556 S
O810 Eu767 2.563 . S
O810 C823 1.235 . S
O811 Eu767 2.419 1_655 S
O811 C831 1.249 . S
C812 O801 1.276 . S
C812 O804 1.235 . S
C813 C815 1.393 . S
C813 C817 1.395 1_556 S
C813 C820 1.492 . S
C814 C815 1.392 . S
C814 C816 1.386 . S
C815 C813 1.393 . S
C815 C814 1.392 . S
C815 H832 0.930 . S
C816 C814 1.386 . S
C816 C818 1.395 1_556 S
C816 H833 0.930 . S
C817 C813 1.395 1_554 S
C817 C818 1.379 . S
C817 H834 0.930 . S
C818 C816 1.395 1_554 S
C818 C817 1.379 . S
C818 H835 0.930 . S
C819 O802 1.264 . S
C819 O803 1.254 . S
C820 Eu756 2.848 . S
C820 O800 1.257 1_556 S
C820 O805 1.249 . S
C820 C813 1.492 . S
C821 H786 0.931 . S
C821 C799 1.420 . S
C821 C822 1.351 1_554 S
C822 H784 0.930 . S
C822 C790 1.423 . S
C822 C821 1.351 1_556 S
C823 O807 1.276 . S
C823 O810 1.235 . S
C824 C825 1.393 . S
C824 C828 1.395 . S
C824 C831 1.492 . S
C825 C824 1.393 . S
C825 C826 1.392 1_545 S
C825 H836 0.930 . S
C826 C825 1.392 1_565 S
C826 C827 1.386 . S
C827 C826 1.386 . S
C827 C829 1.395 1_565 S
C827 H837 0.930 . S
C828 C824 1.395 . S
C828 C829 1.379 . S
C828 H838 0.930 . S
C829 C827 1.395 1_545 S
C829 C828 1.379 . S
C829 H839 0.930 . S
C830 O808 1.264 . S
C830 O809 1.254 1_554 S
C831 Eu767 2.848 1_655 S
C831 O806 1.257 . S
C831 O811 1.249 . S
C831 C824 1.492 . S
H832 C815 0.930 . S
H833 C816 0.930 . S
H834 C817 0.930 . S
H835 C818 0.930 . S
H836 C825 0.930 . S
H837 C827 0.930 . S
H838 C828 0.930 . S
H839 C829 0.930 . S
Eu840 N871 2.657 1_565 S
Eu840 N878 2.609 . S
Eu840 O884 2.558 1_565 S
Eu840 O885 2.612 . S
Eu840 O887 2.339 . S
Eu840 O888 2.563 . S
Eu840 O889 2.419 1_565 S
Eu840 O891 2.380 . S
Eu840 O892 2.432 . S
Eu840 C904 2.848 1_565 S
C841 C844 1.429 . S
C841 C845 1.411 . S
C841 N848 1.377 1_655 S
C842 C844 1.420 . S
C842 C846 1.423 . S
C842 C854 1.392 . S
C843 C845 1.420 . S
C843 C846 1.351 . S
C843 H866 0.931 . S
C844 C841 1.429 . S
C844 C842 1.420 . S
C844 N852 1.362 1_655 S
C845 C841 1.411 . S
C845 C843 1.420 . S
C845 C850 1.395 . S
C846 C842 1.423 . S
C846 C843 1.351 . S
C846 H858 0.930 . S
C847 C849 1.400 . S
C847 C850 1.386 1_455 S
C847 H859 0.930 . S
N848 C841 1.377 1_455 S
N848 C849 1.321 . S
N848 Eu851 2.609 . S
C849 C847 1.400 . S
C849 N848 1.321 . S
C849 H856 0.930 . S
C850 C845 1.395 . S
C850 C847 1.386 1_655 S
C850 H869 0.930 . S
Eu851 N848 2.609 . S
Eu851 N852 2.657 . S
Eu851 O885 2.380 . S
Eu851 O886 2.432 . S
Eu851 O890 2.558 . S
Eu851 O891 2.612 . S
Eu851 O893 2.339 . S
Eu851 O894 2.563 . S
Eu851 O895 2.419 . S
Eu851 C915 2.848 . S
N852 C844 1.362 1_455 S
N852 Eu851 2.657 . S
N852 C853 1.334 1_455 S
C853 N852 1.334 1_655 S
C853 C855 1.413 . S
C853 H860 0.929 1_655 S
C854 C842 1.392 . S
C854 C855 1.367 . S
C854 H862 0.930 . S
C855 C853 1.413 . S
C855 C854 1.367 . S
C855 H857 0.930 . S
H856 C849 0.930 . S
H857 C855 0.930 . S
H858 C846 0.930 . S
H859 C847 0.930 . S
H860 C853 0.929 1_455 S
H861 C875 0.930 . S
H862 C854 0.930 . S
H863 C881 0.930 . S
H864 C872 0.928 1_565 S
H865 C879 0.930 . S
H866 C843 0.931 . S
H867 C873 0.930 . S
H868 C906 0.930 . S
H869 C850 0.930 . S
H870 C905 0.931 . S
N871 Eu840 2.657 1_545 S
N871 C872 1.334 . S
N871 C876 1.362 . S
C872 H864 0.928 1_545 S
C872 N871 1.334 . S
C872 C875 1.413 . S
C873 H867 0.930 . S
C873 C874 1.392 . S
C873 C875 1.367 . S
C874 C873 1.392 . S
C874 C876 1.420 . S
C874 C906 1.423 . S
C875 H861 0.930 . S
C875 C872 1.413 . S
C875 C873 1.367 . S
C876 N871 1.362 . S
C876 C874 1.420 . S
C876 C880 1.429 . S
H877 C882 0.930 . S
N878 Eu840 2.609 . S
N878 C880 1.377 1_565 S
N878 C881 1.321 . S
C879 H865 0.930 . S
C879 C881 1.400 1_545 S
C879 C882 1.386 . S
C880 C876 1.429 . S
C880 N878 1.377 1_545 S
C880 C883 1.411 . S
C881 H863 0.930 . S
C881 N878 1.321 . S
C881 C879 1.400 1_565 S
C882 H877 0.930 . S
C882 C879 1.386 . S
C882 C883 1.395 . S
C883 C880 1.411 . S
C883 C882 1.395 . S
C883 C905 1.420 . S
O884 Eu840 2.558 1_545 S
O884 C904 1.257 . S
O885 Eu840 2.612 . S
O885 Eu851 2.380 . S
O885 C896 1.276 . S
O886 Eu851 2.432 . S
O886 C903 1.264 . S
O887 Eu840 2.339 . S
O887 C903 1.254 . S
O888 Eu840 2.563 . S
O888 C896 1.235 . S
O889 Eu840 2.419 1_545 S
O889 C904 1.249 . S
O890 Eu851 2.558 . S
O890 C915 1.257 . S
O891 Eu840 2.380 . S
O891 Eu851 2.612 . S
O891 C907 1.276 . S
O892 Eu840 2.432 . S
O892 C914 1.264 . S
O893 Eu851 2.339 . S
O893 C914 1.254 . S
O894 Eu851 2.563 . S
O894 C907 1.235 . S
O895 Eu851 2.419 . S
O895 C915 1.249 . S
C896 O885 1.276 . S
C896 O888 1.235 . S
C897 C899 1.393 . S
C897 C901 1.395 . S
C897 C904 1.492 . S
C898 C899 1.392 . S
C898 C900 1.386 . S
C899 C897 1.393 . S
C899 C898 1.392 . S
C899 H916 0.930 . S
C900 C898 1.386 . S
C900 C902 1.395 . S
C900 H917 0.930 . S
C901 C897 1.395 . S
C901 C902 1.379 . S
C901 H918 0.930 . S
C902 C900 1.395 . S
C902 C901 1.379 . S
C902 H919 0.930 . S
C903 O886 1.264 . S
C903 O887 1.254 . S
C904 Eu840 2.848 1_545 S
C904 O884 1.257 . S
C904 O889 1.249 . S
C904 C897 1.492 . S
C905 H870 0.931 . S
C905 C883 1.420 . S
C905 C906 1.351 . S
C906 H868 0.930 . S
C906 C874 1.423 . S
C906 C905 1.351 . S
C907 O891 1.276 . S
C907 O894 1.235 . S
C908 C909 1.393 . S
C908 C912 1.395 . S
C908 C915 1.492 . S
C909 C908 1.393 . S
C909 C910 1.392 . S
C909 H920 0.930 . S
C910 C909 1.392 . S
C910 C911 1.386 . S
C911 C910 1.386 . S
C911 C913 1.395 . S
C911 H921 0.930 . S
C912 C908 1.395 . S
C912 C913 1.379 . S
C912 H922 0.930 . S
C913 C911 1.395 . S
C913 C912 1.379 . S
C913 H923 0.930 . S
C914 O892 1.264 . S
C914 O893 1.254 . S
C915 Eu851 2.848 . S
C915 O890 1.257 . S
C915 O895 1.249 . S
C915 C908 1.492 . S
H916 C899 0.930 . S
H917 C900 0.930 . S
H918 C901 0.930 . S
H919 C902 0.930 . S
H920 C909 0.930 . S
H921 C911 0.930 . S
H922 C912 0.930 . S
H923 C913 0.930 . S
Eu924 N955 2.657 . S
Eu924 N962 2.609 1_556 S
Eu924 O968 2.558 1_556 S
Eu924 O969 2.612 . S
Eu924 O971 2.339 . S
Eu924 O972 2.563 . S
Eu924 O973 2.419 . S
Eu924 O975 2.380 . S
Eu924 O976 2.432 1_556 S
Eu924 C988 2.848 . S
C925 C928 1.429 . S
C925 C929 1.411 . S
C925 N932 1.377 . S
C926 C928 1.420 . S
C926 C930 1.423 . S
C926 C938 1.392 . S
C927 C929 1.420 . S
C927 C930 1.351 . S
C927 H950 0.931 . S
C928 C925 1.429 . S
C928 C926 1.420 . S
C928 N936 1.362 . S
C929 C925 1.411 . S
C929 C927 1.420 . S
C929 C934 1.395 . S
C930 C926 1.423 . S
C930 C927 1.351 . S
C930 H942 0.930 . S
C931 C933 1.400 . S
C931 C934 1.386 . S
C931 H943 0.930 . S
N932 C925 1.377 . S
N932 C933 1.321 . S
N932 Eu935 2.609 . S
C933 C931 1.400 . S
C933 N932 1.321 . S
C933 H940 0.930 . S
C934 C929 1.395 . S
C934 C931 1.386 . S
C934 H953 0.930 . S
Eu935 N932 2.609 . S
Eu935 N936 2.657 . S
Eu935 O969 2.380 . S
Eu935 O970 2.432 . S
Eu935 O974 2.558 . S
Eu935 O975 2.612 . S
Eu935 O977 2.339 . S
Eu935 O978 2.563 . S
Eu935 O979 2.419 . S
Eu935 C999 2.848 . S
N936 C928 1.362 . S
N936 Eu935 2.657 . S
N936 C937 1.334 . S
C937 N936 1.334 . S
C937 C939 1.413 . S
C937 H944 0.929 . S
C938 C926 1.392 . S
C938 C939 1.367 . S
C938 H946 0.930 . S
C939 C937 1.413 . S
C939 C938 1.367 . S
C939 H941 0.930 . S
H940 C933 0.930 . S
H941 C939 0.930 . S
H942 C930 0.930 . S
H943 C931 0.930 . S
H944 C937 0.929 . S
H945 C959 0.930 . S
H946 C938 0.930 . S
H947 C965 0.930 . S
H948 C956 0.929 1_565 S
H949 C963 0.930 . S
H950 C927 0.931 . S
H951 C957 0.930 . S
H952 C990 0.930 . S
H953 C934 0.930 . S
H954 C989 0.931 . S
N955 Eu924 2.657 . S
N955 C956 1.334 1_565 S
N955 C960 1.362 1_565 S
C956 H948 0.929 1_545 S
C956 N955 1.334 1_545 S
C956 C959 1.413 . S
C957 H951 0.930 . S
C957 C958 1.392 . S
C957 C959 1.367 . S
C958 C957 1.392 . S
C958 C960 1.420 . S
C958 C990 1.423 . S
C959 H945 0.930 . S
C959 C956 1.413 . S
C959 C957 1.367 . S
C960 N955 1.362 1_545 S
C960 C958 1.420 . S
C960 C964 1.429 1_556 S
H961 C966 0.930 . S
N962 Eu924 2.609 1_554 S
N962 C964 1.377 1_565 S
N962 C965 1.321 . S
C963 H949 0.930 . S
C963 C965 1.400 . S
C963 C966 1.386 1_565 S
C964 C960 1.429 1_554 S
C964 N962 1.377 1_545 S
C964 C967 1.411 . S
C965 H947 0.930 . S
C965 N962 1.321 . S
C965 C963 1.400 . S
C966 H961 0.930 . S
C966 C963 1.386 1_545 S
C966 C967 1.395 . S
C967 C964 1.411 . S
C967 C966 1.395 . S
C967 C989 1.420 . S
O968 Eu924 2.558 1_554 S
O968 C988 1.257 1_554 S
O969 Eu924 2.612 . S
O969 Eu935 2.380 . S
O969 C980 1.276 . S
O970 Eu935 2.432 . S
O970 C987 1.264 . S
O971 Eu924 2.339 . S
O971 C987 1.254 . S
O972 Eu924 2.563 . S
O972 C980 1.235 . S
O973 Eu924 2.419 . S
O973 C988 1.249 . S
O974 Eu935 2.558 . S
O974 C999 1.257 . S
O975 Eu924 2.380 . S
O975 Eu935 2.612 . S
O975 C991 1.276 . S
O976 Eu924 2.432 1_554 S
O976 C998 1.264 . S
O977 Eu935 2.339 . S
O977 C998 1.254 1_556 S
O978 Eu935 2.563 . S
O978 C991 1.235 . S
O979 Eu935 2.419 . S
O979 C999 1.249 . S
C980 O969 1.276 . S
C980 O972 1.235 . S
C981 C983 1.393 . S
C981 C985 1.395 1_556 S
C981 C988 1.492 . S
C982 C983 1.392 . S
C982 C984 1.386 . S
C983 C981 1.393 . S
C983 C982 1.392 . S
C983 H1000 0.930 . S
C984 C982 1.386 . S
C984 C986 1.395 1_556 S
C984 H1001 0.930 . S
C985 C981 1.395 1_554 S
C985 C986 1.379 . S
C985 H1002 0.930 . S
C986 C984 1.395 1_554 S
C986 C985 1.379 . S
C986 H1003 0.930 . S
C987 O970 1.264 . S
C987 O971 1.254 . S
C988 Eu924 2.848 . S
C988 O968 1.257 1_556 S
C988 O973 1.249 . S
C988 C981 1.492 . S
C989 H954 0.931 . S
C989 C967 1.420 . S
C989 C990 1.351 1_554 S
C990 H952 0.930 . S
C990 C958 1.423 . S
C990 C989 1.351 1_556 S
C991 O975 1.276 . S
C991 O978 1.235 . S
C992 C993 1.393 . S
C992 C996 1.395 . S
C992 C999 1.492 . S
C993 C992 1.393 . S
C993 C994 1.392 1_655 S
C993 H1004 0.930 . S
C994 C993 1.392 1_455 S
C994 C995 1.386 . S
C995 C994 1.386 . S
C995 C997 1.395 1_455 S
C995 H1005 0.930 . S
C996 C992 1.395 . S
C996 C997 1.379 . S
C996 H1006 0.930 . S
C997 C995 1.395 1_655 S
C997 C996 1.379 . S
C997 H1007 0.931 . S
C998 O976 1.264 . S
C998 O977 1.254 1_554 S
C999 Eu935 2.848 . S
C999 O974 1.257 . S
C999 O979 1.249 . S
C999 C992 1.492 . S
H1000 C983 0.930 . S
H1001 C984 0.930 . S
H1002 C985 0.930 . S
H1003 C986 0.930 . S
H1004 C993 0.930 . S
H1005 C995 0.930 . S
H1006 C996 0.930 . S
H1007 C997 0.931 . S
C238 C67 1.865 . S
C310 C140 1.865 . S
C235 C406 1.865 . S
C308 C478 1.864 . S
C70 C403 1.865 . S
C142 C476 1.865 . S
C898 C560 1.865 . S
C655 C994 1.865 . S
C728 C562 1.865 . S
C823 C658 1.865 . S
C896 C730 1.865 . S
C826 C991 1.865 . S
C326 C63 2.160 . S
C158 C399 2.160 . S
C231 C494 2.160 . S
C578 C819 2.160 . S
C651 C914 2.160 . S
C746 C987 2.160 . S
C662 C74 3.683 1_564 S
C147 C735 3.683 . S
C830 C242 3.682 1_454 S
C315 C903 3.683 1_545 S
C410 C998 3.683 1_556 S
C567 C483 3.682 1_455 S
C226 C56 1.289 . S
C151 C322 1.289 . S
C224 C394 1.289 . S
C319 C490 1.289 . S
C58 C392 1.289 . S
C154 C487 1.289 . S
C910 C571 1.289 . S
C644 C982 1.289 . S
C739 C574 1.289 . S
C646 C812 1.289 . S
C907 C742 1.289 . S
C980 C814 1.289 . S
