# Generated by pormake.
# Topology uki, (4)-cn, num edge types: 1
# Building blocks:
#     Node 0, Type 0, BuildingBlock: CEKHIL_clean_sbu_0, # of connection points: 4
#     Node 1, Type 0, BuildingBlock: CEKHIL_clean_sbu_0, # of connection points: 4
#     Node 2, Type 0, BuildingBlock: CEKHIL_clean_sbu_0, # of connection points: 4
#     Node 3, Type 0, BuildingBlock: CEKHIL_clean_sbu_0, # of connection points: 4
#     Node 4, Type 0, BuildingBlock: CEKHIL_clean_sbu_0, # of connection points: 4
#     Node 5, Type 0, BuildingBlock: CEKHIL_clean_sbu_0, # of connection points: 4
#     Node 6, Type 0, BuildingBlock: CEKHIL_clean_sbu_0, # of connection points: 4
#     Node 7, Type 0, BuildingBlock: CEKHIL_clean_sbu_0, # of connection points: 4
#     Node 8, Type 0, BuildingBlock: CEKHIL_clean_sbu_0, # of connection points: 4
#     Node 9, Type 0, BuildingBlock: CEKHIL_clean_sbu_0, # of connection points: 4
#     Node 10, Type 0, BuildingBlock: CEKHIL_clean_sbu_0, # of connection points: 4
#     Node 11, Type 0, BuildingBlock: CEKHIL_clean_sbu_0, # of connection points: 4
#     Node 12, Type 0, BuildingBlock: CEKHIL_clean_sbu_0, # of connection points: 4
#     Node 13, Type 0, BuildingBlock: CEKHIL_clean_sbu_0, # of connection points: 4
#     Node 14, Type 0, BuildingBlock: CEKHIL_clean_sbu_0, # of connection points: 4
#     Node 15, Type 0, BuildingBlock: CEKHIL_clean_sbu_0, # of connection points: 4
#     Edge 16, Type (0, 0), BuildingBlock: OJICUG_clean_linker_0, # of connection points: 2
#     Edge 17, Type (0, 0), BuildingBlock: OJICUG_clean_linker_0, # of connection points: 2
#     Edge 18, Type (0, 0), BuildingBlock: OJICUG_clean_linker_0, # of connection points: 2
#     Edge 19, Type (0, 0), BuildingBlock: OJICUG_clean_linker_0, # of connection points: 2
#     Edge 20, Type (0, 0), BuildingBlock: OJICUG_clean_linker_0, # of connection points: 2
#     Edge 21, Type (0, 0), BuildingBlock: OJICUG_clean_linker_0, # of connection points: 2
#     Edge 22, Type (0, 0), BuildingBlock: OJICUG_clean_linker_0, # of connection points: 2
#     Edge 23, Type (0, 0), BuildingBlock: OJICUG_clean_linker_0, # of connection points: 2
#     Edge 24, Type (0, 0), BuildingBlock: OJICUG_clean_linker_0, # of connection points: 2
#     Edge 25, Type (0, 0), BuildingBlock: OJICUG_clean_linker_0, # of connection points: 2
#     Edge 26, Type (0, 0), BuildingBlock: OJICUG_clean_linker_0, # of connection points: 2
#     Edge 27, Type (0, 0), BuildingBlock: OJICUG_clean_linker_0, # of connection points: 2
#     Edge 28, Type (0, 0), BuildingBlock: OJICUG_clean_linker_0, # of connection points: 2
#     Edge 29, Type (0, 0), BuildingBlock: OJICUG_clean_linker_0, # of connection points: 2
#     Edge 30, Type (0, 0), BuildingBlock: OJICUG_clean_linker_0, # of connection points: 2
#     Edge 31, Type (0, 0), BuildingBlock: OJICUG_clean_linker_0, # of connection points: 2
#     Edge 32, Type (0, 0), BuildingBlock: OJICUG_clean_linker_0, # of connection points: 2
#     Edge 33, Type (0, 0), BuildingBlock: OJICUG_clean_linker_0, # of connection points: 2
#     Edge 34, Type (0, 0), BuildingBlock: OJICUG_clean_linker_0, # of connection points: 2
#     Edge 35, Type (0, 0), BuildingBlock: OJICUG_clean_linker_0, # of connection points: 2
#     Edge 36, Type (0, 0), BuildingBlock: OJICUG_clean_linker_0, # of connection points: 2
#     Edge 37, Type (0, 0), BuildingBlock: OJICUG_clean_linker_0, # of connection points: 2
#     Edge 38, Type (0, 0), BuildingBlock: OJICUG_clean_linker_0, # of connection points: 2
#     Edge 39, Type (0, 0), BuildingBlock: OJICUG_clean_linker_0, # of connection points: 2
#     Edge 40, Type (0, 0), BuildingBlock: OJICUG_clean_linker_0, # of connection points: 2
#     Edge 41, Type (0, 0), BuildingBlock: OJICUG_clean_linker_0, # of connection points: 2
#     Edge 42, Type (0, 0), BuildingBlock: OJICUG_clean_linker_0, # of connection points: 2
#     Edge 43, Type (0, 0), BuildingBlock: OJICUG_clean_linker_0, # of connection points: 2
#     Edge 44, Type (0, 0), BuildingBlock: OJICUG_clean_linker_0, # of connection points: 2
#     Edge 45, Type (0, 0), BuildingBlock: OJICUG_clean_linker_0, # of connection points: 2
#     Edge 46, Type (0, 0), BuildingBlock: OJICUG_clean_linker_0, # of connection points: 2
#     Edge 47, Type (0, 0), BuildingBlock: OJICUG_clean_linker_0, # of connection points: 2
# Relax obj value: 0.098
# Max RMSD: 0.194
# Mean RMSD: 0.194
data_MOF--net-uki--node1-CEKHIL_clean_sbu_0--edge1-OJICUG_clean_linker_0
_symmetry_space_group_name_H-M    P1
_symmetry_Int_Tables_number       1
_symmetry_cell_setting            triclinic
loop_
_symmetry_equiv_pos_as_xyz
'x, y, z'
_cell_length_a     21.973075
_cell_length_b     21.983194
_cell_length_c     53.121484
_cell_angle_alpha  89.999644
_cell_angle_beta   89.999993
_cell_angle_gamma 89.980348
loop_
_atom_site_label
_atom_site_type_symbol
_atom_site_fract_x
_atom_site_fract_y
_atom_site_fract_z
_atom_type_partial_charge
Co0 Co 0.13577 0.21471 0.2956 0.0
O1 O 0.20844 0.18036 0.31031 0.0
O2 O 0.12548 0.20223 0.33178 0.0
C3 C 0.18425 0.28871 0.27392 0.0
O4 O 0.05344 0.25273 0.28606 0.0
Co5 Co 0.1243 0.21164 0.23666 0.0
O6 O 0.05525 0.26646 0.24389 0.0
C7 C 0.08515 0.10518 0.26708 0.0
C8 C 0.18194 0.18389 0.332 0.0
C9 C 0.0303 0.2733 0.26536 0.0
O10 O 0.10055 0.13169 0.28778 0.0
O11 O 0.09513 0.12801 0.24528 0.0
O12 O 0.172 0.29553 0.29759 0.0
O13 O 0.17341 0.23544 0.26481 0.0
Co14 Co 0.21573 0.87121 0.71008 0.0
O15 O 0.1848 0.79669 0.69572 0.0
O16 O 0.20007 0.88078 0.67406 0.0
C17 C 0.295 0.82892 0.73089 0.0
O18 O 0.24959 0.95535 0.71937 0.0
Co19 Co 0.21598 0.88297 0.7688 0.0
O20 O 0.27386 0.94897 0.76058 0.0
C21 C 0.10687 0.9203 0.73957 0.0
C22 C 0.18505 0.82338 0.67402 0.0
C23 C 0.27499 0.97657 0.73947 0.0
O24 O 0.13135 0.90217 0.71879 0.0
O25 O 0.13205 0.91323 0.76113 0.0
O26 O 0.29856 0.84092 0.70707 0.0
O27 O 0.24142 0.83478 0.74059 0.0
Co28 Co 0.87188 0.78837 0.29638 0.0
O29 O 0.79965 0.82392 0.31096 0.0
O30 O 0.88241 0.80185 0.33251 0.0
C31 C 0.82203 0.71425 0.27532 0.0
O32 O 0.95388 0.74925 0.28691 0.0
Co33 Co 0.88338 0.78866 0.23752 0.0
O34 O 0.95008 0.73127 0.24508 0.0
C35 C 0.92465 0.89567 0.26726 0.0
C36 C 0.82608 0.8206 0.33267 0.0
C37 C 0.97596 0.72628 0.26644 0.0
O38 O 0.90788 0.87067 0.28809 0.0
O39 O 0.91507 0.87178 0.24561 0.0
O40 O 0.83478 0.70827 0.29898 0.0
O41 O 0.83357 0.76693 0.26575 0.0
Co42 Co 0.79068 0.13346 0.70992 0.0
O43 O 0.82229 0.20748 0.69542 0.0
O44 O 0.80654 0.12321 0.67394 0.0
C45 C 0.71152 0.17664 0.73044 0.0
O46 O 0.75614 0.04974 0.71946 0.0
Co47 Co 0.78993 0.12289 0.76867 0.0
O48 O 0.73141 0.05738 0.76059 0.0
C49 C 0.89859 0.08329 0.73963 0.0
C50 C 0.82195 0.18051 0.67378 0.0
C51 C 0.73035 0.02921 0.7396 0.0
O52 O 0.87475 0.10199 0.71882 0.0
O53 O 0.87323 0.09071 0.76113 0.0
O54 O 0.70815 0.16429 0.70665 0.0
O55 O 0.76497 0.17066 0.74026 0.0
Co56 Co 0.13289 0.2873 0.95917 0.0
O57 O 0.20753 0.31822 0.94493 0.0
O58 O 0.12342 0.30345 0.92319 0.0
C59 C 0.17478 0.20787 0.97986 0.0
O60 O 0.04859 0.25344 0.96838 0.0
Co61 Co 0.12095 0.28664 0.01789 0.0
O62 O 0.055 0.22877 0.00956 0.0
C63 C 0.08523 0.39644 0.98886 0.0
C64 C 0.18086 0.31844 0.92323 0.0
C65 C 0.02744 0.2277 0.98843 0.0
O66 O 0.10238 0.37164 0.96802 0.0
O67 O 0.09232 0.37117 0.01039 0.0
O68 O 0.16295 0.20449 0.95602 0.0
O69 O 0.1691 0.26136 0.98963 0.0
Co70 Co 0.28924 0.87142 0.04656 0.0
O71 O 0.32234 0.79818 0.06126 0.0
O72 O 0.30474 0.88235 0.08254 0.0
C73 C 0.21067 0.82672 0.02608 0.0
O74 O 0.25309 0.95426 0.03683 0.0
Co75 Co 0.28819 0.88096 0.98772 0.0
O76 O 0.22865 0.94564 0.9957 0.0
C77 C 0.39515 0.92525 0.01676 0.0
C78 C 0.32122 0.82534 0.08285 0.0
C79 C 0.22712 0.97411 0.01661 0.0
O80 O 0.37263 0.9049 0.03758 0.0
O81 O 0.36978 0.91706 0.99532 0.0
O82 O 0.20729 0.83899 0.04988 0.0
O83 O 0.26405 0.8334 0.01628 0.0
Co84 Co 0.87143 0.71381 0.96024 0.0
O85 O 0.79885 0.67912 0.94561 0.0
O86 O 0.8819 0.7003 0.92411 0.0
C87 C 0.8225 0.78876 0.98133 0.0
O88 O 0.95373 0.75185 0.96973 0.0
Co89 Co 0.88269 0.71297 0.01907 0.0
O90 O 0.94994 0.76969 0.01157 0.0
C91 C 0.92462 0.60629 0.98927 0.0
C92 C 0.82536 0.68221 0.92391 0.0
C93 C 0.97597 0.77439 0.99022 0.0
O94 O 0.9069 0.63106 0.9685 0.0
O95 O 0.9155 0.63025 0.01094 0.0
O96 O 0.83526 0.79445 0.95767 0.0
O97 O 0.8332 0.73584 0.99088 0.0
Co98 Co 0.7119 0.13399 0.04496 0.0
O99 O 0.68805 0.21 0.06022 0.0
O100 O 0.69675 0.12377 0.08102 0.0
C101 C 0.79377 0.17026 0.02389 0.0
O102 O 0.73707 0.04781 0.03441 0.0
Co103 Co 0.70636 0.12973 0.98591 0.0
O104 O 0.74334 0.04905 0.99187 0.0
C105 C 0.59816 0.09474 0.01624 0.0
C106 C 0.6861 0.18216 0.08163 0.0
C107 C 0.74791 0.02199 0.01302 0.0
O108 O 0.62484 0.11062 0.03685 0.0
O109 O 0.62182 0.10257 0.99444 0.0
O110 O 0.79738 0.15633 0.04753 0.0
O111 O 0.73939 0.1705 0.01472 0.0
Co112 Co 0.63444 0.7152 0.79604 0.0
O113 O 0.70888 0.68381 0.81034 0.0
O114 O 0.62482 0.69908 0.83204 0.0
C115 C 0.67703 0.79459 0.77546 0.0
O116 O 0.5504 0.74951 0.78675 0.0
Co117 Co 0.623 0.71625 0.73731 0.0
O118 O 0.55737 0.77451 0.74563 0.0
C119 C 0.58462 0.60716 0.7663 0.0
C120 C 0.68222 0.68389 0.83204 0.0
C121 C 0.5295 0.77539 0.76668 0.0
O122 O 0.60316 0.63108 0.78712 0.0
O123 O 0.59177 0.63264 0.74481 0.0
O124 O 0.665 0.79782 0.79928 0.0
O125 O 0.67109 0.74118 0.76563 0.0
Co126 Co 0.71276 0.37033 0.21089 0.0
O127 O 0.68818 0.29453 0.19571 0.0
O128 O 0.69595 0.38088 0.17495 0.0
C129 C 0.79593 0.33381 0.23112 0.0
O130 O 0.73831 0.45621 0.22145 0.0
Co131 Co 0.71017 0.37288 0.27004 0.0
O132 O 0.74682 0.4536 0.26393 0.0
C133 C 0.60186 0.41252 0.2406 0.0
C134 C 0.68553 0.32245 0.17434 0.0
C135 C 0.75001 0.48137 0.24289 0.0
O136 O 0.62616 0.39421 0.21981 0.0
O137 O 0.62678 0.40456 0.26215 0.0
O138 O 0.79811 0.34797 0.20749 0.0
O139 O 0.74203 0.33325 0.24077 0.0
Co140 Co 0.37183 0.29046 0.7954 0.0
O141 O 0.29748 0.32162 0.80982 0.0
O142 O 0.38167 0.30595 0.83141 0.0
C143 C 0.32917 0.21133 0.77467 0.0
O144 O 0.45582 0.25631 0.78601 0.0
Co145 Co 0.38317 0.2903 0.73669 0.0
O146 O 0.44891 0.23201 0.74482 0.0
C147 C 0.42162 0.39895 0.76594 0.0
C148 C 0.32426 0.3211 0.8315 0.0
C149 C 0.47675 0.2308 0.76588 0.0
O150 O 0.40306 0.37471 0.78669 0.0
O151 O 0.41448 0.3738 0.74438 0.0
O152 O 0.34132 0.20782 0.79848 0.0
O153 O 0.33507 0.26486 0.76494 0.0
Co154 Co 0.29423 0.63413 0.21122 0.0
O155 O 0.32018 0.71038 0.1967 0.0
O156 O 0.31146 0.62509 0.17527 0.0
C157 C 0.21128 0.6707 0.23166 0.0
O158 O 0.26713 0.54809 0.2207 0.0
Co159 Co 0.29471 0.62666 0.27034 0.0
O160 O 0.25742 0.54672 0.26314 0.0
C161 C 0.40362 0.58819 0.24094 0.0
C162 C 0.32265 0.68336 0.17511 0.0
C163 C 0.2542 0.52121 0.24162 0.0
O164 O 0.38028 0.60828 0.22022 0.0
O165 O 0.37799 0.59485 0.26242 0.0
O166 O 0.20927 0.6581 0.20786 0.0
O167 O 0.265 0.66962 0.24147 0.0
Co168 Co 0.6346 0.7896 0.46037 0.0
O169 O 0.70912 0.82087 0.44614 0.0
O170 O 0.62516 0.80563 0.42436 0.0
C171 C 0.67707 0.71021 0.481 0.0
O172 O 0.5505 0.7554 0.46959 0.0
Co173 Co 0.62281 0.78871 0.51908 0.0
O174 O 0.55724 0.73047 0.51072 0.0
C175 C 0.58434 0.89764 0.48999 0.0
C176 C 0.68258 0.82072 0.42441 0.0
C177 C 0.52949 0.72959 0.48964 0.0
O178 O 0.60328 0.87376 0.46921 0.0
O179 O 0.59126 0.87219 0.5115 0.0
O180 O 0.66514 0.70697 0.45717 0.0
O181 O 0.67109 0.76363 0.49083 0.0
Co182 Co 0.79099 0.3705 0.54575 0.0
O183 O 0.82241 0.29624 0.56015 0.0
O184 O 0.80673 0.38037 0.58174 0.0
C185 C 0.71186 0.32771 0.52507 0.0
O186 O 0.75662 0.45441 0.53639 0.0
Co187 Co 0.79042 0.38192 0.48703 0.0
O188 O 0.73204 0.44752 0.49522 0.0
C189 C 0.89922 0.42053 0.51619 0.0
C190 C 0.82205 0.32303 0.58182 0.0
C191 C 0.73093 0.47533 0.51629 0.0
O192 O 0.87516 0.40188 0.53696 0.0
O193 O 0.87392 0.41339 0.49466 0.0
O194 O 0.70839 0.33982 0.54888 0.0
O195 O 0.76535 0.33375 0.5153 0.0
Co196 Co 0.37212 0.21444 0.46006 0.0
O197 O 0.29768 0.18343 0.44567 0.0
O198 O 0.38193 0.19855 0.42407 0.0
C199 C 0.32964 0.29384 0.48069 0.0
O200 O 0.45619 0.24839 0.46944 0.0
Co201 Co 0.38337 0.21508 0.5188 0.0
O202 O 0.44923 0.27313 0.51058 0.0
C203 C 0.42138 0.10598 0.48973 0.0
C204 C 0.32448 0.18361 0.424 0.0
C205 C 0.47712 0.27406 0.48953 0.0
O206 O 0.4031 0.13016 0.46892 0.0
O207 O 0.41421 0.13132 0.51124 0.0
O208 O 0.34182 0.29717 0.45688 0.0
O209 O 0.3354 0.24036 0.49048 0.0
Co210 Co 0.21581 0.6331 0.54599 0.0
O211 O 0.1845 0.7073 0.56047 0.0
O212 O 0.20021 0.62308 0.582 0.0
C213 C 0.29492 0.67595 0.52529 0.0
O214 O 0.25008 0.54922 0.53649 0.0
Co215 Co 0.21611 0.62221 0.48723 0.0
O216 O 0.27436 0.55641 0.4953 0.0
C217 C 0.10731 0.58367 0.5164 0.0
C218 C 0.18493 0.68043 0.58213 0.0
C219 C 0.2756 0.52844 0.51633 0.0
O220 O 0.13157 0.60187 0.5372 0.0
O221 O 0.13249 0.59109 0.49486 0.0
O222 O 0.29848 0.66369 0.54909 0.0
O223 O 0.24137 0.67004 0.51557 0.0
C224 C 0.26549 0.36285 0.26552 0.0
C225 C 0.20839 0.33952 0.25907 0.0
H226 H 0.32565 0.43907 0.26377 0.0
C227 C 0.17084 0.3723 0.24245 0.0
H228 H 0.29475 0.33858 0.27852 0.0
C229 C 0.18825 0.43033 0.23413 0.0
C230 C 0.24342 0.45542 0.24233 0.0
H231 H 0.12612 0.35566 0.23759 0.0
H232 H 0.15658 0.45737 0.22321 0.0
C233 C 0.28307 0.42014 0.25705 0.0
C234 C 0.45732 0.85138 0.75024 0.0
C235 C 0.46741 0.80072 0.76577 0.0
H236 H 0.39436 0.89932 0.72688 0.0
C237 C 0.41726 0.7659 0.77376 0.0
H238 H 0.49517 0.87901 0.74387 0.0
C239 C 0.35895 0.77781 0.76401 0.0
C240 C 0.35091 0.82405 0.74606 0.0
H241 H 0.42403 0.72608 0.78544 0.0
H242 H 0.32159 0.74783 0.76879 0.0
C243 C 0.3998 0.86256 0.7403 0.0
C244 C 0.80838 0.57702 0.23303 0.0
C245 C 0.75963 0.54738 0.24487 0.0
H246 H 0.86624 0.6558 0.23316 0.0
C247 C 0.72537 0.57867 0.26307 0.0
H248 H 0.8356 0.55346 0.2191 0.0
C249 C 0.74331 0.63584 0.27135 0.0
C250 C 0.7951 0.6635 0.26125 0.0
H251 H 0.6872 0.55681 0.27231 0.0
H252 H 0.71891 0.6568 0.28682 0.0
C253 C 0.82593 0.63532 0.24115 0.0
C254 C 0.58895 0.23995 0.77309 0.0
C255 C 0.53878 0.20538 0.76495 0.0
H256 H 0.68476 0.25767 0.76837 0.0
C257 C 0.54884 0.15483 0.74936 0.0
H258 H 0.58218 0.27968 0.78483 0.0
C259 C 0.60644 0.14347 0.73955 0.0
C260 C 0.65542 0.18173 0.74548 0.0
H261 H 0.51096 0.12739 0.74287 0.0
H262 H 0.6119 0.10677 0.72611 0.0
C263 C 0.64734 0.22788 0.76346 0.0
C264 C 0.23553 0.08632 0.02358 0.0
C265 C 0.2015 0.03596 0.01528 0.0
H266 H 0.2535 0.18195 0.01867 0.0
C267 C 0.15189 0.04561 0.99911 0.0
H268 H 0.27452 0.07988 0.03578 0.0
C269 C 0.14125 0.10289 0.98888 0.0
C270 C 0.17917 0.15196 0.99502 0.0
H271 H 0.12484 0.00759 0.9925 0.0
H272 H 0.10537 0.10803 0.97504 0.0
C273 C 0.22409 0.1444 0.01356 0.0
C274 C 0.14641 0.77724 0.99255 0.0
C275 C 0.15446 0.82229 0.01101 0.0
H276 H 0.08129 0.72683 0.97061 0.0
C277 C 0.10547 0.86034 0.01722 0.0
H278 H 0.18382 0.74764 0.9874 0.0
C279 C 0.04793 0.84977 0.00719 0.0
C280 C 0.03785 0.80022 0.99106 0.0
H281 H 0.11086 0.89626 0.03101 0.0
H282 H 0.01003 0.8768 0.01396 0.0
C283 C 0.08805 0.76594 0.9827 0.0
C284 C 0.82791 0.86993 0.01457 0.0
C285 C 0.79571 0.83981 0.99534 0.0
H286 H 0.83766 0.95308 0.03576 0.0
C287 C 0.74239 0.86586 0.98585 0.0
H288 H 0.8696 0.85092 0.02197 0.0
C289 C 0.72388 0.9231 0.99393 0.0
C290 C 0.7589 0.95605 0.01135 0.0
H291 H 0.71707 0.84355 0.97097 0.0
H292 H 0.6844 0.94366 0.98512 0.0
C293 C 0.80963 0.92818 0.02253 0.0
C294 C 0.8987 0.13767 0.01403 0.0
C295 C 0.84934 0.17582 0.00853 0.0
H296 H 0.99436 0.12277 0.01051 0.0
C297 C 0.85689 0.22298 0.99094 0.0
H298 H 0.89368 0.1003 0.02718 0.0
C299 C 0.9151 0.23608 0.98135 0.0
C300 C 0.96566 0.2016 0.98914 0.0
H301 H 0.81921 0.25281 0.9864 0.0
H302 H 0.9214 0.2765 0.96998 0.0
C303 C 0.95616 0.15013 0.00428 0.0
C304 C 0.72756 0.85866 0.74222 0.0
C305 C 0.68187 0.8507 0.76042 0.0
H306 H 0.77881 0.92361 0.72055 0.0
C307 C 0.64375 0.89971 0.76647 0.0
H308 H 0.75721 0.82119 0.7372 0.0
C309 C 0.65481 0.95721 0.75653 0.0
C310 C 0.70499 0.96718 0.7407 0.0
H311 H 0.60735 0.89433 0.78006 0.0
H312 H 0.62748 0.9951 0.76309 0.0
C313 C 0.73938 0.91696 0.73247 0.0
C314 C 0.96036 0.35075 0.24847 0.0
C315 C 0.96928 0.30122 0.26473 0.0
H316 H 0.89803 0.39953 0.22514 0.0
C317 C 0.91821 0.26938 0.27376 0.0
H318 H 0.99897 0.37594 0.24121 0.0
C319 C 0.8598 0.28301 0.26446 0.0
C320 C 0.85251 0.328 0.2459 0.0
H321 H 0.92405 0.23036 0.28599 0.0
H322 H 0.82156 0.25507 0.27009 0.0
C323 C 0.90269 0.36374 0.23904 0.0
C324 C 0.26552 0.08869 0.7322 0.0
C325 C 0.30034 0.03861 0.74026 0.0
H326 H 0.24765 0.18445 0.73693 0.0
C327 C 0.35118 0.04881 0.75569 0.0
H328 H 0.22556 0.08183 0.7206 0.0
C329 C 0.36263 0.10644 0.76541 0.0
C330 C 0.32416 0.15534 0.75957 0.0
H331 H 0.3788 0.011 0.76213 0.0
H332 H 0.39955 0.112 0.77875 0.0
C333 C 0.27766 0.14712 0.74175 0.0
C334 C 0.08809 0.73195 0.2747 0.0
C335 C 0.0375 0.69934 0.26566 0.0
H336 H 0.18441 0.74819 0.2709 0.0
C337 C 0.04725 0.6503 0.24921 0.0
H338 H 0.08167 0.7706 0.28707 0.0
C339 C 0.10505 0.63871 0.23957 0.0
C340 C 0.15461 0.67526 0.24647 0.0
H341 H 0.00908 0.62447 0.24193 0.0
H342 H 0.11028 0.60332 0.22553 0.0
C343 C 0.14664 0.71966 0.26522 0.0
C344 C 0.65505 0.54751 0.49974 0.0
C345 C 0.7055 0.53735 0.5154 0.0
H346 H 0.60716 0.61068 0.47648 0.0
C347 C 0.73999 0.58747 0.52364 0.0
H348 H 0.62766 0.50969 0.49317 0.0
C349 C 0.72798 0.64589 0.51406 0.0
C350 C 0.68196 0.65408 0.49601 0.0
H351 H 0.77963 0.58065 0.53543 0.0
H352 H 0.75773 0.68327 0.51905 0.0
C353 C 0.64375 0.60515 0.48997 0.0
C354 C 0.64772 0.27651 0.49204 0.0
C355 C 0.65583 0.32276 0.50998 0.0
H356 H 0.58254 0.22475 0.47069 0.0
C357 C 0.60692 0.3612 0.51583 0.0
H358 H 0.68509 0.24658 0.4872 0.0
C359 C 0.54934 0.34996 0.50598 0.0
C360 C 0.53921 0.29932 0.49044 0.0
H361 H 0.61241 0.39797 0.52923 0.0
H362 H 0.5115 0.37755 0.51241 0.0
C363 C 0.58934 0.26455 0.48238 0.0
C364 C 0.26664 0.41623 0.52351 0.0
C365 C 0.30107 0.46644 0.51532 0.0
H366 H 0.24898 0.32045 0.51878 0.0
C367 C 0.35148 0.45646 0.49963 0.0
H368 H 0.22702 0.42292 0.53533 0.0
C369 C 0.3628 0.39892 0.48977 0.0
C370 C 0.32465 0.3499 0.49575 0.0
H371 H 0.37883 0.49436 0.49311 0.0
H372 H 0.39938 0.39352 0.47626 0.0
C373 C 0.27867 0.35789 0.51383 0.0
C374 C 0.45728 0.65354 0.50597 0.0
C375 C 0.4674 0.70431 0.4905 0.0
H376 H 0.39428 0.60548 0.52924 0.0
C377 C 0.41727 0.73924 0.48255 0.0
H378 H 0.49511 0.62584 0.51232 0.0
C379 C 0.35894 0.7273 0.49227 0.0
C380 C 0.35086 0.68093 0.51015 0.0
H381 H 0.42407 0.77914 0.47092 0.0
H382 H 0.32159 0.75735 0.48751 0.0
C383 C 0.39974 0.64234 0.51588 0.0
C384 C 0.31671 0.17254 0.3768 0.0
C385 C 0.28844 0.17517 0.40046 0.0
H386 H 0.30527 0.17186 0.33676 0.0
C387 C 0.22424 0.17526 0.40142 0.0
H388 H 0.36588 0.17249 0.37533 0.0
C389 C 0.18931 0.17584 0.3793 0.0
C390 C 0.21763 0.17532 0.35562 0.0
H391 H 0.20075 0.17747 0.41932 0.0
H392 H 0.1402 0.17836 0.38075 0.0
C393 C 0.28175 0.17211 0.35467 0.0
C394 C 0.17437 0.78047 0.60471 0.0
C395 C 0.17632 0.71633 0.60571 0.0
H396 H 0.17579 0.86463 0.62529 0.0
C397 C 0.17564 0.68813 0.62941 0.0
H398 H 0.175 0.80391 0.58678 0.0
C399 C 0.17525 0.72317 0.65151 0.0
C400 C 0.17642 0.78732 0.6505 0.0
H401 H 0.17719 0.63902 0.63091 0.0
H402 H 0.17657 0.69975 0.66944 0.0
C403 C 0.17487 0.8155 0.6268 0.0
C404 C 0.6909 0.83217 0.37724 0.0
C405 C 0.7189 0.82932 0.40095 0.0
H406 H 0.70278 0.83308 0.33723 0.0
C407 C 0.7831 0.82916 0.40203 0.0
H408 H 0.64175 0.83228 0.37567 0.0
C409 C 0.81828 0.82868 0.37997 0.0
C410 C 0.79022 0.82938 0.35624 0.0
H411 H 0.80638 0.82679 0.41997 0.0
H412 H 0.86736 0.82602 0.38151 0.0
C413 C 0.72611 0.83271 0.35518 0.0
C414 C 0.8326 0.28044 0.65116 0.0
C415 C 0.83073 0.2163 0.6502 0.0
H416 H 0.83114 0.36452 0.63052 0.0
C417 C 0.8316 0.188 0.62652 0.0
H418 H 0.83183 0.30396 0.66907 0.0
C419 C 0.83206 0.22295 0.6044 0.0
C420 C 0.83076 0.28711 0.60537 0.0
H421 H 0.83012 0.13888 0.62505 0.0
H422 H 0.83085 0.19946 0.58649 0.0
C423 C 0.83216 0.31539 0.62904 0.0
C424 C 0.18887 0.32976 0.87606 0.0
C425 C 0.21697 0.32774 0.89976 0.0
H426 H 0.20066 0.3306 0.83605 0.0
C427 C 0.28114 0.32922 0.90084 0.0
H428 H 0.13973 0.32867 0.8745 0.0
C429 C 0.31629 0.32951 0.87877 0.0
C430 C 0.28819 0.32923 0.85505 0.0
H431 H 0.30449 0.32758 0.91878 0.0
H432 H 0.36542 0.32813 0.88032 0.0
C433 C 0.22402 0.33094 0.854 0.0
C434 C 0.32946 0.78362 0.15239 0.0
C435 C 0.33059 0.71944 0.15152 0.0
H436 H 0.32555 0.86743 0.13161 0.0
C437 C 0.33413 0.69109 0.12789 0.0
H438 H 0.3266 0.80718 0.17025 0.0
C439 C 0.33433 0.7259 0.10572 0.0
C440 C 0.33019 0.78995 0.10656 0.0
H441 H 0.33503 0.64195 0.12647 0.0
H442 H 0.33526 0.70225 0.08784 0.0
C443 C 0.32886 0.81838 0.13021 0.0
C444 C 0.72537 0.67119 0.90131 0.0
C445 C 0.78951 0.67393 0.9003 0.0
H446 H 0.6411 0.67249 0.88075 0.0
C447 C 0.81767 0.67456 0.87659 0.0
H448 H 0.70196 0.67091 0.91925 0.0
C449 C 0.78257 0.67454 0.8545 0.0
C450 C 0.71838 0.67493 0.85553 0.0
H451 H 0.86677 0.67678 0.87508 0.0
H452 H 0.80596 0.67682 0.83658 0.0
C453 C 0.69025 0.67218 0.87922 0.0
C454 C 0.67807 0.18853 0.12897 0.0
C455 C 0.67842 0.21742 0.10542 0.0
H456 H 0.67903 0.19892 0.16903 0.0
C457 C 0.67614 0.2816 0.10475 0.0
H458 H 0.67986 0.13938 0.13023 0.0
C459 C 0.67623 0.31599 0.12702 0.0
C460 C 0.678 0.28711 0.15056 0.0
H461 H 0.67638 0.30557 0.08694 0.0
H462 H 0.67657 0.36517 0.12576 0.0
C463 C 0.67757 0.2229 0.15123 0.0
C464 C 0.98303 0.97711 0.29078 0.0
C465 C 0.96334 0.95113 0.26795 0.0
H466 H 0.03781 0.04566 0.30862 0.0
C467 C 0.98639 0.97475 0.24528 0.0
H468 H 0.96688 0.9596 0.30863 0.0
C469 C 0.02784 0.02255 0.2453 0.0
C470 C 0.04731 0.04916 0.26798 0.0
H471 H 0.9731 0.95586 0.22727 0.0
H472 H 0.04382 0.03919 0.22728 0.0
C473 C 0.02444 0.02583 0.29079 0.0
C474 C 0.97743 0.02066 0.76157 0.0
C475 C 0.95404 0.04426 0.73893 0.0
H476 H 0.0412 0.96201 0.77946 0.0
C477 C 0.97965 0.02413 0.71608 0.0
H478 H 0.95879 0.03418 0.77959 0.0
C479 C 0.02767 0.98179 0.71601 0.0
C480 C 0.05084 0.95843 0.73878 0.0
H481 H 0.96227 0.04053 0.69825 0.0
H482 H 0.04725 0.96823 0.69816 0.0
C483 C 0.02464 0.97835 0.76149 0.0
C484 C 0.02543 0.477 0.96543 0.0
C485 C 0.04816 0.4531 0.98818 0.0
H486 H 0.96768 0.54339 0.94776 0.0
C487 C 0.0286 0.47932 0.01092 0.0
H488 H 0.03881 0.45748 0.94754 0.0
C489 C 0.987 0.52711 0.01106 0.0
C490 C 0.96381 0.55105 0.98845 0.0
H491 H 0.04454 0.46224 0.02888 0.0
H492 H 0.97357 0.54563 0.02912 0.0
C493 C 0.98381 0.5256 0.96556 0.0
C494 C 0.46825 0.99457 0.99485 0.0
C495 C 0.44859 0.9671 0.01736 0.0
H496 H 0.52774 0.05761 0.97699 0.0
C497 C 0.47589 0.9857 0.04009 0.0
H498 H 0.44807 0.98255 0.97692 0.0
C499 C 0.52238 0.02976 0.04011 0.0
C500 C 0.5422 0.05653 0.01742 0.0
H501 H 0.46133 0.96641 0.05786 0.0
H502 H 0.54376 0.04163 0.05781 0.0
C503 C 0.5138 0.03863 0.9949 0.0
C504 C 0.48218 0.47952 0.74413 0.0
C505 C 0.46022 0.45465 0.76677 0.0
H506 H 0.53957 0.54435 0.72623 0.0
C507 C 0.48177 0.47897 0.78964 0.0
H508 H 0.46741 0.46199 0.72608 0.0
C509 C 0.5241 0.52697 0.78973 0.0
C510 C 0.54604 0.55143 0.76695 0.0
H511 H 0.46663 0.46044 0.80746 0.0
H512 H 0.53891 0.54539 0.80762 0.0
C513 C 0.52448 0.5267 0.74422 0.0
C514 C 0.52366 0.47602 0.26255 0.0
C515 C 0.54779 0.45367 0.23982 0.0
H516 H 0.46263 0.53692 0.28074 0.0
C517 C 0.52584 0.47844 0.21708 0.0
H518 H 0.53949 0.45898 0.28052 0.0
C519 C 0.48095 0.52422 0.2172 0.0
C520 C 0.4574 0.54666 0.24008 0.0
H521 H 0.54402 0.46328 0.1992 0.0
H522 H 0.46415 0.54132 0.19939 0.0
C523 C 0.47977 0.52181 0.26267 0.0
C524 C 0.48238 0.02621 0.46625 0.0
C525 C 0.45976 0.0501 0.48903 0.0
H526 H 0.54044 0.96017 0.44852 0.0
C527 C 0.48056 0.0247 0.51176 0.0
H528 H 0.46815 0.04516 0.44838 0.0
C529 C 0.52286 0.97748 0.51185 0.0
C530 C 0.54559 0.95327 0.48921 0.0
H531 H 0.46488 0.04186 0.52974 0.0
H532 H 0.53704 0.95944 0.52989 0.0
C533 C 0.52472 0.97819 0.46634 0.0
C534 C 0.97931 0.48159 0.49431 0.0
C535 C 0.95485 0.45924 0.51697 0.0
H536 H 0.0438 0.53931 0.47639 0.0
C537 C 0.9795 0.48047 0.53983 0.0
H538 H 0.9615 0.46709 0.47627 0.0
C539 C 0.02748 0.52284 0.53989 0.0
C540 C 0.05156 0.54513 0.5171 0.0
H541 H 0.96128 0.46504 0.55766 0.0
H542 H 0.04619 0.53738 0.55777 0.0
C543 C 0.02646 0.52392 0.49438 0.0
loop_
_geom_bond_atom_site_label_1
_geom_bond_atom_site_label_2
_geom_bond_distance
_geom_bond_site_symmetry_2
_ccdc_geom_bond_type
Co0 O1 2.216 . S
Co0 O2 2.091 . S
Co0 O4 2.004 . S
Co0 O10 2.021 . S
Co0 O12 2.137 . S
Co0 O13 2.244 . S
O1 Co0 2.216 . S
O1 C8 1.247 . S
O2 Co0 2.091 . S
O2 C8 1.261 . S
C3 O12 1.247 . S
C3 O13 1.272 . S
O4 Co0 2.004 . S
O4 C9 1.259 1_455 S
Co5 O6 2.069 . S
Co5 O11 2.052 . S
Co5 O13 2.135 . S
O6 Co5 2.069 . S
O6 C9 1.232 1_455 S
C7 O10 1.238 . S
C7 O11 1.241 . S
C8 O1 1.247 . S
C8 O2 1.261 . S
C9 O4 1.259 1_655 S
C9 O6 1.232 1_655 S
O10 Co0 2.021 . S
O10 C7 1.238 . S
O11 Co5 2.052 . S
O11 C7 1.241 . S
O12 Co0 2.137 . S
O12 C3 1.247 . S
O13 Co0 2.244 . S
O13 C3 1.272 . S
O13 Co5 2.135 . S
Co14 O15 2.216 . S
Co14 O16 2.091 . S
Co14 O18 2.004 . S
Co14 O24 2.021 . S
Co14 O26 2.137 . S
Co14 O27 2.244 . S
O15 Co14 2.216 . S
O15 C22 1.247 . S
O16 Co14 2.091 . S
O16 C22 1.261 . S
C17 O26 1.247 . S
C17 O27 1.272 . S
O18 Co14 2.004 . S
O18 C23 1.259 1_565 S
Co19 O20 2.069 . S
Co19 O25 2.052 . S
Co19 O27 2.135 . S
O20 Co19 2.069 . S
O20 C23 1.232 1_565 S
C21 O24 1.238 . S
C21 O25 1.241 . S
C22 O15 1.247 . S
C22 O16 1.261 . S
C23 O18 1.259 1_545 S
C23 O20 1.232 1_545 S
O24 Co14 2.021 . S
O24 C21 1.238 . S
O25 Co19 2.052 . S
O25 C21 1.241 . S
O26 Co14 2.137 . S
O26 C17 1.247 . S
O27 Co14 2.244 . S
O27 C17 1.272 . S
O27 Co19 2.135 . S
Co28 O29 2.216 . S
Co28 O30 2.091 . S
Co28 O32 2.004 . S
Co28 O38 2.021 . S
Co28 O40 2.137 . S
Co28 O41 2.244 . S
O29 Co28 2.216 . S
O29 C36 1.247 . S
O30 Co28 2.091 . S
O30 C36 1.261 . S
C31 O40 1.247 . S
C31 O41 1.272 . S
O32 Co28 2.004 . S
O32 C37 1.259 1_655 S
Co33 O34 2.069 . S
Co33 O39 2.052 . S
Co33 O41 2.135 . S
O34 Co33 2.069 . S
O34 C37 1.232 1_655 S
C35 O38 1.238 . S
C35 O39 1.241 . S
C36 O29 1.247 . S
C36 O30 1.261 . S
C37 O32 1.259 1_455 S
C37 O34 1.232 1_455 S
O38 Co28 2.021 . S
O38 C35 1.238 . S
O39 Co33 2.052 . S
O39 C35 1.241 . S
O40 Co28 2.137 . S
O40 C31 1.247 . S
O41 Co28 2.244 . S
O41 C31 1.272 . S
O41 Co33 2.135 . S
Co42 O43 2.216 . S
Co42 O44 2.091 . S
Co42 O46 2.004 . S
Co42 O52 2.021 . S
Co42 O54 2.137 . S
Co42 O55 2.244 . S
O43 Co42 2.216 . S
O43 C50 1.247 . S
O44 Co42 2.091 . S
O44 C50 1.261 . S
C45 O54 1.247 . S
C45 O55 1.272 . S
O46 Co42 2.004 . S
O46 C51 1.259 1_545 S
Co47 O48 2.069 . S
Co47 O53 2.052 . S
Co47 O55 2.135 . S
O48 Co47 2.069 . S
O48 C51 1.232 1_545 S
C49 O52 1.238 . S
C49 O53 1.241 . S
C50 O43 1.247 . S
C50 O44 1.261 . S
C51 O46 1.259 1_565 S
C51 O48 1.232 1_565 S
O52 Co42 2.021 . S
O52 C49 1.238 . S
O53 Co47 2.052 . S
O53 C49 1.241 . S
O54 Co42 2.137 . S
O54 C45 1.247 . S
O55 Co42 2.244 . S
O55 C45 1.272 . S
O55 Co47 2.135 . S
Co56 O57 2.216 . S
Co56 O58 2.091 . S
Co56 O60 2.004 . S
Co56 O66 2.021 . S
Co56 O68 2.137 . S
Co56 O69 2.244 . S
O57 Co56 2.216 . S
O57 C64 1.247 . S
O58 Co56 2.091 . S
O58 C64 1.261 . S
C59 O68 1.247 . S
C59 O69 1.272 . S
O60 Co56 2.004 . S
O60 C65 1.259 1_455 S
Co61 O62 2.069 1_554 S
Co61 O67 2.052 1_554 S
Co61 O69 2.135 1_554 S
O62 Co61 2.069 1_556 S
O62 C65 1.232 1_455 S
C63 O66 1.238 . S
C63 O67 1.241 . S
C64 O57 1.247 . S
C64 O58 1.261 . S
C65 O60 1.259 1_655 S
C65 O62 1.232 1_655 S
O66 Co56 2.021 . S
O66 C63 1.238 . S
O67 Co61 2.052 1_556 S
O67 C63 1.241 . S
O68 Co56 2.137 . S
O68 C59 1.247 . S
O69 Co56 2.244 . S
O69 C59 1.272 . S
O69 Co61 2.135 1_556 S
Co70 O71 2.216 . S
Co70 O72 2.091 . S
Co70 O74 2.004 . S
Co70 O80 2.021 . S
Co70 O82 2.137 . S
Co70 O83 2.244 . S
O71 Co70 2.216 . S
O71 C78 1.247 . S
O72 Co70 2.091 . S
O72 C78 1.261 . S
C73 O82 1.247 . S
C73 O83 1.272 . S
O74 Co70 2.004 . S
O74 C79 1.259 1_565 S
Co75 O76 2.069 1_556 S
Co75 O81 2.052 1_556 S
Co75 O83 2.135 1_556 S
O76 Co75 2.069 1_554 S
O76 C79 1.232 1_565 S
C77 O80 1.238 . S
C77 O81 1.241 . S
C78 O71 1.247 . S
C78 O72 1.261 . S
C79 O74 1.259 1_545 S
C79 O76 1.232 1_545 S
O80 Co70 2.021 . S
O80 C77 1.238 . S
O81 Co75 2.052 1_554 S
O81 C77 1.241 . S
O82 Co70 2.137 . S
O82 C73 1.247 . S
O83 Co70 2.244 . S
O83 C73 1.272 . S
O83 Co75 2.135 1_554 S
Co84 O85 2.216 . S
Co84 O86 2.091 . S
Co84 O88 2.004 . S
Co84 O94 2.021 . S
Co84 O96 2.137 . S
Co84 O97 2.244 . S
O85 Co84 2.216 . S
O85 C92 1.247 . S
O86 Co84 2.091 . S
O86 C92 1.261 . S
C87 O96 1.247 . S
C87 O97 1.272 . S
O88 Co84 2.004 . S
O88 C93 1.259 1_655 S
Co89 O90 2.069 1_554 S
Co89 O95 2.052 1_554 S
Co89 O97 2.135 1_554 S
O90 Co89 2.069 1_556 S
O90 C93 1.232 1_655 S
C91 O94 1.238 . S
C91 O95 1.241 . S
C92 O85 1.247 . S
C92 O86 1.261 . S
C93 O88 1.259 1_455 S
C93 O90 1.232 1_455 S
O94 Co84 2.021 . S
O94 C91 1.238 . S
O95 Co89 2.052 1_556 S
O95 C91 1.241 . S
O96 Co84 2.137 . S
O96 C87 1.247 . S
O97 Co84 2.244 . S
O97 C87 1.272 . S
O97 Co89 2.135 1_556 S
Co98 O99 2.216 . S
Co98 O100 2.091 . S
Co98 O102 2.004 . S
Co98 O108 2.021 . S
Co98 O110 2.137 . S
Co98 O111 2.244 . S
O99 Co98 2.216 . S
O99 C106 1.247 . S
O100 Co98 2.091 . S
O100 C106 1.261 . S
C101 O110 1.247 . S
C101 O111 1.272 . S
O102 Co98 2.004 . S
O102 C107 1.259 1_545 S
Co103 O104 2.069 1_556 S
Co103 O109 2.052 1_556 S
Co103 O111 2.135 1_556 S
O104 Co103 2.069 1_554 S
O104 C107 1.232 1_545 S
C105 O108 1.238 . S
C105 O109 1.241 . S
C106 O99 1.247 . S
C106 O100 1.261 . S
C107 O102 1.259 1_565 S
C107 O104 1.232 1_565 S
O108 Co98 2.021 . S
O108 C105 1.238 . S
O109 Co103 2.052 1_554 S
O109 C105 1.241 . S
O110 Co98 2.137 . S
O110 C101 1.247 . S
O111 Co98 2.244 . S
O111 C101 1.272 . S
O111 Co103 2.135 1_554 S
Co112 O113 2.216 . S
Co112 O114 2.091 . S
Co112 O116 2.004 . S
Co112 O122 2.021 . S
Co112 O124 2.137 . S
Co112 O125 2.244 . S
O113 Co112 2.216 . S
O113 C120 1.247 . S
O114 Co112 2.091 . S
O114 C120 1.261 . S
C115 O124 1.247 . S
C115 O125 1.272 . S
O116 Co112 2.004 . S
O116 C121 1.259 . S
Co117 O118 2.061 . S
Co117 O123 2.052 . S
Co117 O125 2.135 . S
O118 Co117 2.061 . S
O118 C121 1.235 . S
C119 O122 1.238 . S
C119 O123 1.241 . S
C120 O113 1.247 . S
C120 O114 1.261 . S
C121 O116 1.259 . S
C121 O118 1.235 . S
O122 Co112 2.021 . S
O122 C119 1.238 . S
O123 Co117 2.052 . S
O123 C119 1.241 . S
O124 Co112 2.137 . S
O124 C115 1.247 . S
O125 Co112 2.244 . S
O125 C115 1.272 . S
O125 Co117 2.135 . S
Co126 O127 2.216 . S
Co126 O128 2.091 . S
Co126 O130 2.004 . S
Co126 O136 2.021 . S
Co126 O138 2.137 . S
Co126 O139 2.244 . S
O127 Co126 2.216 . S
O127 C134 1.247 . S
O128 Co126 2.091 . S
O128 C134 1.261 . S
C129 O138 1.247 . S
C129 O139 1.272 . S
O130 Co126 2.004 . S
O130 C135 1.259 . S
Co131 O132 2.061 . S
Co131 O137 2.052 . S
Co131 O139 2.135 . S
O132 Co131 2.061 . S
O132 C135 1.235 . S
C133 O136 1.238 . S
C133 O137 1.241 . S
C134 O127 1.247 . S
C134 O128 1.261 . S
C135 O130 1.259 . S
C135 O132 1.235 . S
O136 Co126 2.021 . S
O136 C133 1.238 . S
O137 Co131 2.052 . S
O137 C133 1.241 . S
O138 Co126 2.137 . S
O138 C129 1.247 . S
O139 Co126 2.244 . S
O139 C129 1.272 . S
O139 Co131 2.135 . S
Co140 O141 2.216 . S
Co140 O142 2.091 . S
Co140 O144 2.004 . S
Co140 O150 2.021 . S
Co140 O152 2.137 . S
Co140 O153 2.244 . S
O141 Co140 2.216 . S
O141 C148 1.247 . S
O142 Co140 2.091 . S
O142 C148 1.261 . S
C143 O152 1.247 . S
C143 O153 1.272 . S
O144 Co140 2.004 . S
O144 C149 1.259 . S
Co145 O146 2.061 . S
Co145 O151 2.052 . S
Co145 O153 2.135 . S
O146 Co145 2.061 . S
O146 C149 1.235 . S
C147 O150 1.238 . S
C147 O151 1.241 . S
C148 O141 1.247 . S
C148 O142 1.261 . S
C149 O144 1.259 . S
C149 O146 1.235 . S
O150 Co140 2.021 . S
O150 C147 1.238 . S
O151 Co145 2.052 . S
O151 C147 1.241 . S
O152 Co140 2.137 . S
O152 C143 1.247 . S
O153 Co140 2.244 . S
O153 C143 1.272 . S
O153 Co145 2.135 . S
Co154 O155 2.216 . S
Co154 O156 2.091 . S
Co154 O158 2.004 . S
Co154 O164 2.021 . S
Co154 O166 2.137 . S
Co154 O167 2.244 . S
O155 Co154 2.216 . S
O155 C162 1.247 . S
O156 Co154 2.091 . S
O156 C162 1.261 . S
C157 O166 1.247 . S
C157 O167 1.272 . S
O158 Co154 2.004 . S
O158 C163 1.259 . S
Co159 O160 2.061 . S
Co159 O165 2.052 . S
Co159 O167 2.135 . S
O160 Co159 2.061 . S
O160 C163 1.235 . S
C161 O164 1.238 . S
C161 O165 1.241 . S
C162 O155 1.247 . S
C162 O156 1.261 . S
C163 O158 1.259 . S
C163 O160 1.235 . S
O164 Co154 2.021 . S
O164 C161 1.238 . S
O165 Co159 2.052 . S
O165 C161 1.241 . S
O166 Co154 2.137 . S
O166 C157 1.247 . S
O167 Co154 2.244 . S
O167 C157 1.272 . S
O167 Co159 2.135 . S
Co168 O169 2.216 . S
Co168 O170 2.091 . S
Co168 O172 2.004 . S
Co168 O178 2.021 . S
Co168 O180 2.137 . S
Co168 O181 2.244 . S
O169 Co168 2.216 . S
O169 C176 1.247 . S
O170 Co168 2.091 . S
O170 C176 1.261 . S
C171 O180 1.247 . S
C171 O181 1.272 . S
O172 Co168 2.004 . S
O172 C177 1.259 . S
Co173 O174 2.061 . S
Co173 O179 2.052 . S
Co173 O181 2.135 . S
O174 Co173 2.061 . S
O174 C177 1.235 . S
C175 O178 1.238 . S
C175 O179 1.241 . S
C176 O169 1.247 . S
C176 O170 1.261 . S
C177 O172 1.259 . S
C177 O174 1.235 . S
O178 Co168 2.021 . S
O178 C175 1.238 . S
O179 Co173 2.052 . S
O179 C175 1.241 . S
O180 Co168 2.137 . S
O180 C171 1.247 . S
O181 Co168 2.244 . S
O181 C171 1.272 . S
O181 Co173 2.135 . S
Co182 O183 2.216 . S
Co182 O184 2.091 . S
Co182 O186 2.004 . S
Co182 O192 2.021 . S
Co182 O194 2.137 . S
Co182 O195 2.244 . S
O183 Co182 2.216 . S
O183 C190 1.247 . S
O184 Co182 2.091 . S
O184 C190 1.261 . S
C185 O194 1.247 . S
C185 O195 1.272 . S
O186 Co182 2.004 . S
O186 C191 1.259 . S
Co187 O188 2.061 . S
Co187 O193 2.052 . S
Co187 O195 2.135 . S
O188 Co187 2.061 . S
O188 C191 1.235 . S
C189 O192 1.238 . S
C189 O193 1.241 . S
C190 O183 1.247 . S
C190 O184 1.261 . S
C191 O186 1.259 . S
C191 O188 1.235 . S
O192 Co182 2.021 . S
O192 C189 1.238 . S
O193 Co187 2.052 . S
O193 C189 1.241 . S
O194 Co182 2.137 . S
O194 C185 1.247 . S
O195 Co182 2.244 . S
O195 C185 1.272 . S
O195 Co187 2.135 . S
Co196 O197 2.216 . S
Co196 O198 2.091 . S
Co196 O200 2.004 . S
Co196 O206 2.021 . S
Co196 O208 2.137 . S
Co196 O209 2.244 . S
O197 Co196 2.216 . S
O197 C204 1.247 . S
O198 Co196 2.091 . S
O198 C204 1.261 . S
C199 O208 1.247 . S
C199 O209 1.272 . S
O200 Co196 2.004 . S
O200 C205 1.259 . S
Co201 O202 2.061 . S
Co201 O207 2.052 . S
Co201 O209 2.135 . S
O202 Co201 2.061 . S
O202 C205 1.235 . S
C203 O206 1.238 . S
C203 O207 1.241 . S
C204 O197 1.247 . S
C204 O198 1.261 . S
C205 O200 1.259 . S
C205 O202 1.235 . S
O206 Co196 2.021 . S
O206 C203 1.238 . S
O207 Co201 2.052 . S
O207 C203 1.241 . S
O208 Co196 2.137 . S
O208 C199 1.247 . S
O209 Co196 2.244 . S
O209 C199 1.272 . S
O209 Co201 2.135 . S
Co210 O211 2.216 . S
Co210 O212 2.091 . S
Co210 O214 2.004 . S
Co210 O220 2.021 . S
Co210 O222 2.137 . S
Co210 O223 2.244 . S
O211 Co210 2.216 . S
O211 C218 1.247 . S
O212 Co210 2.091 . S
O212 C218 1.261 . S
C213 O222 1.247 . S
C213 O223 1.272 . S
O214 Co210 2.004 . S
O214 C219 1.259 . S
Co215 O216 2.061 . S
Co215 O221 2.052 . S
Co215 O223 2.135 . S
O216 Co215 2.061 . S
O216 C219 1.235 . S
C217 O220 1.238 . S
C217 O221 1.241 . S
C218 O211 1.247 . S
C218 O212 1.261 . S
C219 O214 1.259 . S
C219 O216 1.235 . S
O220 Co210 2.021 . S
O220 C217 1.238 . S
O221 Co215 2.052 . S
O221 C217 1.241 . S
O222 Co210 2.137 . S
O222 C213 1.247 . S
O223 Co210 2.244 . S
O223 C213 1.272 . S
O223 Co215 2.135 . S
C224 C225 1.387 . S
C224 H228 0.950 . S
C224 C233 1.390 . S
C225 C224 1.387 . S
C225 C227 1.387 . S
H226 C233 0.950 . S
C227 C225 1.387 . S
C227 C229 1.390 . S
C227 H231 0.950 . S
H228 C224 0.950 . S
C229 C227 1.390 . S
C229 C230 1.387 . S
C229 H232 0.950 . S
C230 C229 1.387 . S
C230 C233 1.387 . S
H231 C227 0.950 . S
H232 C229 0.950 . S
C233 C224 1.390 . S
C233 H226 0.950 . S
C233 C230 1.387 . S
C234 C235 1.387 . S
C234 H238 0.950 . S
C234 C243 1.390 . S
C235 C234 1.387 . S
C235 C237 1.387 . S
H236 C243 0.950 . S
C237 C235 1.387 . S
C237 C239 1.390 . S
C237 H241 0.950 . S
H238 C234 0.950 . S
C239 C237 1.390 . S
C239 C240 1.387 . S
C239 H242 0.950 . S
C240 C239 1.387 . S
C240 C243 1.387 . S
H241 C237 0.950 . S
H242 C239 0.950 . S
C243 C234 1.390 . S
C243 H236 0.950 . S
C243 C240 1.387 . S
C244 C245 1.387 . S
C244 H248 0.950 . S
C244 C253 1.390 . S
C245 C244 1.387 . S
C245 C247 1.387 . S
H246 C253 0.950 . S
C247 C245 1.387 . S
C247 C249 1.390 . S
C247 H251 0.950 . S
H248 C244 0.950 . S
C249 C247 1.390 . S
C249 C250 1.387 . S
C249 H252 0.950 . S
C250 C249 1.387 . S
C250 C253 1.387 . S
H251 C247 0.950 . S
H252 C249 0.950 . S
C253 C244 1.390 . S
C253 H246 0.950 . S
C253 C250 1.387 . S
C254 C255 1.387 . S
C254 H258 0.950 . S
C254 C263 1.390 . S
C255 C254 1.387 . S
C255 C257 1.387 . S
H256 C263 0.950 . S
C257 C255 1.387 . S
C257 C259 1.390 . S
C257 H261 0.950 . S
H258 C254 0.950 . S
C259 C257 1.390 . S
C259 C260 1.387 . S
C259 H262 0.950 . S
C260 C259 1.387 . S
C260 C263 1.387 . S
H261 C257 0.950 . S
H262 C259 0.950 . S
C263 C254 1.390 . S
C263 H256 0.950 . S
C263 C260 1.387 . S
C264 C265 1.387 . S
C264 H268 0.950 . S
C264 C273 1.390 . S
C265 C264 1.387 . S
C265 C267 1.387 1_554 S
H266 C273 0.950 . S
C267 C265 1.387 1_556 S
C267 C269 1.390 . S
C267 H271 0.950 . S
H268 C264 0.950 . S
C269 C267 1.390 . S
C269 C270 1.387 . S
C269 H272 0.950 . S
C270 C269 1.387 . S
C270 C273 1.387 1_556 S
H271 C267 0.950 . S
H272 C269 0.950 . S
C273 C264 1.390 . S
C273 H266 0.950 . S
C273 C270 1.387 1_554 S
C274 C275 1.387 . S
C274 H278 0.950 . S
C274 C283 1.390 1_554 S
C275 C274 1.387 . S
C275 C277 1.387 1_554 S
H276 C283 0.950 . S
C277 C275 1.387 1_556 S
C277 C279 1.390 . S
C277 H281 0.950 . S
H278 C274 0.950 . S
C279 C277 1.390 . S
C279 C280 1.387 . S
C279 H282 0.950 . S
C280 C279 1.387 . S
C280 C283 1.387 . S
H281 C277 0.950 . S
H282 C279 0.950 . S
C283 C274 1.390 1_556 S
C283 H276 0.950 . S
C283 C280 1.387 . S
C284 C285 1.387 1_554 S
C284 H288 0.950 . S
C284 C293 1.390 . S
C285 C284 1.387 1_556 S
C285 C287 1.387 . S
H286 C293 0.950 . S
C287 C285 1.387 . S
C287 C289 1.390 . S
C287 H291 0.950 . S
H288 C284 0.950 . S
C289 C287 1.390 . S
C289 C290 1.387 1_556 S
C289 H292 0.950 . S
C290 C289 1.387 1_554 S
C290 C293 1.387 . S
H291 C287 0.950 . S
H292 C289 0.950 . S
C293 C284 1.390 . S
C293 H286 0.950 . S
C293 C290 1.387 . S
C294 C295 1.387 1_556 S
C294 H298 0.950 . S
C294 C303 1.390 . S
C295 C294 1.387 1_554 S
C295 C297 1.387 . S
H296 C303 0.950 . S
C297 C295 1.387 . S
C297 C299 1.390 . S
C297 H301 0.950 . S
H298 C294 0.950 . S
C299 C297 1.390 . S
C299 C300 1.387 1_554 S
C299 H302 0.950 . S
C300 C299 1.387 1_556 S
C300 C303 1.387 . S
H301 C297 0.950 . S
H302 C299 0.950 . S
C303 C294 1.390 . S
C303 H296 0.950 . S
C303 C300 1.387 . S
C304 C305 1.387 . S
C304 H308 0.950 . S
C304 C313 1.390 . S
C305 C304 1.387 . S
C305 C307 1.387 . S
H306 C313 0.950 . S
C307 C305 1.387 . S
C307 C309 1.390 . S
C307 H311 0.950 . S
H308 C304 0.950 . S
C309 C307 1.390 . S
C309 C310 1.387 . S
C309 H312 0.950 . S
C310 C309 1.387 . S
C310 C313 1.387 . S
H311 C307 0.950 . S
H312 C309 0.950 . S
C313 C304 1.390 . S
C313 H306 0.950 . S
C313 C310 1.387 . S
C314 C315 1.387 . S
C314 H318 0.950 . S
C314 C323 1.390 . S
C315 C314 1.387 . S
C315 C317 1.387 . S
H316 C323 0.950 . S
C317 C315 1.387 . S
C317 C319 1.390 . S
C317 H321 0.950 . S
H318 C314 0.950 . S
C319 C317 1.390 . S
C319 C320 1.387 . S
C319 H322 0.950 . S
C320 C319 1.387 . S
C320 C323 1.387 . S
H321 C317 0.950 . S
H322 C319 0.950 . S
C323 C314 1.390 . S
C323 H316 0.950 . S
C323 C320 1.387 . S
C324 C325 1.387 . S
C324 H328 0.950 . S
C324 C333 1.390 . S
C325 C324 1.387 . S
C325 C327 1.387 . S
H326 C333 0.950 . S
C327 C325 1.387 . S
C327 C329 1.390 . S
C327 H331 0.950 . S
H328 C324 0.950 . S
C329 C327 1.390 . S
C329 C330 1.387 . S
C329 H332 0.950 . S
C330 C329 1.387 . S
C330 C333 1.387 . S
H331 C327 0.950 . S
H332 C329 0.950 . S
C333 C324 1.390 . S
C333 H326 0.950 . S
C333 C330 1.387 . S
C334 C335 1.387 . S
C334 H338 0.950 . S
C334 C343 1.390 . S
C335 C334 1.387 . S
C335 C337 1.387 . S
H336 C343 0.950 . S
C337 C335 1.387 . S
C337 C339 1.390 . S
C337 H341 0.950 . S
H338 C334 0.950 . S
C339 C337 1.390 . S
C339 C340 1.387 . S
C339 H342 0.950 . S
C340 C339 1.387 . S
C340 C343 1.387 . S
H341 C337 0.950 . S
H342 C339 0.950 . S
C343 C334 1.390 . S
C343 H336 0.950 . S
C343 C340 1.387 . S
C344 C345 1.387 . S
C344 H348 0.950 . S
C344 C353 1.390 . S
C345 C344 1.387 . S
C345 C347 1.387 . S
H346 C353 0.950 . S
C347 C345 1.387 . S
C347 C349 1.390 . S
C347 H351 0.950 . S
H348 C344 0.950 . S
C349 C347 1.390 . S
C349 C350 1.387 . S
C349 H352 0.950 . S
C350 C349 1.387 . S
C350 C353 1.387 . S
H351 C347 0.950 . S
H352 C349 0.950 . S
C353 C344 1.390 . S
C353 H346 0.950 . S
C353 C350 1.387 . S
C354 C355 1.387 . S
C354 H358 0.950 . S
C354 C363 1.390 . S
C355 C354 1.387 . S
C355 C357 1.387 . S
H356 C363 0.950 . S
C357 C355 1.387 . S
C357 C359 1.390 . S
C357 H361 0.950 . S
H358 C354 0.950 . S
C359 C357 1.390 . S
C359 C360 1.387 . S
C359 H362 0.950 . S
C360 C359 1.387 . S
C360 C363 1.387 . S
H361 C357 0.950 . S
H362 C359 0.950 . S
C363 C354 1.390 . S
C363 H356 0.950 . S
C363 C360 1.387 . S
C364 C365 1.387 . S
C364 H368 0.950 . S
C364 C373 1.390 . S
C365 C364 1.387 . S
C365 C367 1.387 . S
H366 C373 0.950 . S
C367 C365 1.387 . S
C367 C369 1.390 . S
C367 H371 0.950 . S
H368 C364 0.950 . S
C369 C367 1.390 . S
C369 C370 1.387 . S
C369 H372 0.950 . S
C370 C369 1.387 . S
C370 C373 1.387 . S
H371 C367 0.950 . S
H372 C369 0.950 . S
C373 C364 1.390 . S
C373 H366 0.950 . S
C373 C370 1.387 . S
C374 C375 1.387 . S
C374 H378 0.950 . S
C374 C383 1.390 . S
C375 C374 1.387 . S
C375 C377 1.387 . S
H376 C383 0.950 . S
C377 C375 1.387 . S
C377 C379 1.390 . S
C377 H381 0.950 . S
H378 C374 0.950 . S
C379 C377 1.390 . S
C379 C380 1.387 . S
C379 H382 0.950 . S
C380 C379 1.387 . S
C380 C383 1.387 . S
H381 C377 0.950 . S
H382 C379 0.950 . S
C383 C374 1.390 . S
C383 H376 0.950 . S
C383 C380 1.387 . S
C384 C385 1.387 . S
C384 H388 0.950 . S
C384 C393 1.390 . S
C385 C384 1.387 . S
C385 C387 1.387 . S
H386 C393 0.950 . S
C387 C385 1.387 . S
C387 C389 1.390 . S
C387 H391 0.950 . S
H388 C384 0.950 . S
C389 C387 1.390 . S
C389 C390 1.387 . S
C389 H392 0.950 . S
C390 C389 1.387 . S
C390 C393 1.387 . S
H391 C387 0.950 . S
H392 C389 0.950 . S
C393 C384 1.390 . S
C393 H386 0.950 . S
C393 C390 1.387 . S
C394 C395 1.387 . S
C394 H398 0.950 . S
C394 C403 1.390 . S
C395 C394 1.387 . S
C395 C397 1.387 . S
H396 C403 0.950 . S
C397 C395 1.387 . S
C397 C399 1.390 . S
C397 H401 0.950 . S
H398 C394 0.950 . S
C399 C397 1.390 . S
C399 C400 1.387 . S
C399 H402 0.950 . S
C400 C399 1.387 . S
C400 C403 1.387 . S
H401 C397 0.950 . S
H402 C399 0.950 . S
C403 C394 1.390 . S
C403 H396 0.950 . S
C403 C400 1.387 . S
C404 C405 1.387 . S
C404 H408 0.950 . S
C404 C413 1.390 . S
C405 C404 1.387 . S
C405 C407 1.387 . S
H406 C413 0.950 . S
C407 C405 1.387 . S
C407 C409 1.390 . S
C407 H411 0.950 . S
H408 C404 0.950 . S
C409 C407 1.390 . S
C409 C410 1.387 . S
C409 H412 0.950 . S
C410 C409 1.387 . S
C410 C413 1.387 . S
H411 C407 0.950 . S
H412 C409 0.950 . S
C413 C404 1.390 . S
C413 H406 0.950 . S
C413 C410 1.387 . S
C414 C415 1.387 . S
C414 H418 0.950 . S
C414 C423 1.390 . S
C415 C414 1.387 . S
C415 C417 1.387 . S
H416 C423 0.950 . S
C417 C415 1.387 . S
C417 C419 1.390 . S
C417 H421 0.950 . S
H418 C414 0.950 . S
C419 C417 1.390 . S
C419 C420 1.387 . S
C419 H422 0.950 . S
C420 C419 1.387 . S
C420 C423 1.387 . S
H421 C417 0.950 . S
H422 C419 0.950 . S
C423 C414 1.390 . S
C423 H416 0.950 . S
C423 C420 1.387 . S
C424 C425 1.387 . S
C424 H428 0.950 . S
C424 C433 1.390 . S
C425 C424 1.387 . S
C425 C427 1.387 . S
H426 C433 0.950 . S
C427 C425 1.387 . S
C427 C429 1.390 . S
C427 H431 0.950 . S
H428 C424 0.950 . S
C429 C427 1.390 . S
C429 C430 1.387 . S
C429 H432 0.950 . S
C430 C429 1.387 . S
C430 C433 1.387 . S
H431 C427 0.950 . S
H432 C429 0.950 . S
C433 C424 1.390 . S
C433 H426 0.950 . S
C433 C430 1.387 . S
C434 C435 1.387 . S
C434 H438 0.950 . S
C434 C443 1.390 . S
C435 C434 1.387 . S
C435 C437 1.387 . S
H436 C443 0.950 . S
C437 C435 1.387 . S
C437 C439 1.390 . S
C437 H441 0.950 . S
H438 C434 0.950 . S
C439 C437 1.390 . S
C439 C440 1.387 . S
C439 H442 0.950 . S
C440 C439 1.387 . S
C440 C443 1.387 . S
H441 C437 0.950 . S
H442 C439 0.950 . S
C443 C434 1.390 . S
C443 H436 0.950 . S
C443 C440 1.387 . S
C444 C445 1.387 . S
C444 H448 0.950 . S
C444 C453 1.390 . S
C445 C444 1.387 . S
C445 C447 1.387 . S
H446 C453 0.950 . S
C447 C445 1.387 . S
C447 C449 1.390 . S
C447 H451 0.950 . S
H448 C444 0.950 . S
C449 C447 1.390 . S
C449 C450 1.387 . S
C449 H452 0.950 . S
C450 C449 1.387 . S
C450 C453 1.387 . S
H451 C447 0.950 . S
H452 C449 0.950 . S
C453 C444 1.390 . S
C453 H446 0.950 . S
C453 C450 1.387 . S
C454 C455 1.387 . S
C454 H458 0.950 . S
C454 C463 1.390 . S
C455 C454 1.387 . S
C455 C457 1.387 . S
H456 C463 0.950 . S
C457 C455 1.387 . S
C457 C459 1.390 . S
C457 H461 0.950 . S
H458 C454 0.950 . S
C459 C457 1.390 . S
C459 C460 1.387 . S
C459 H462 0.950 . S
C460 C459 1.387 . S
C460 C463 1.387 . S
H461 C457 0.950 . S
H462 C459 0.950 . S
C463 C454 1.390 . S
C463 H456 0.950 . S
C463 C460 1.387 . S
C464 C465 1.387 . S
C464 H468 0.950 . S
C464 C473 1.390 1_665 S
C465 C464 1.387 . S
C465 C467 1.387 . S
H466 C473 0.950 . S
C467 C465 1.387 . S
C467 C469 1.390 1_665 S
C467 H471 0.950 . S
H468 C464 0.950 . S
C469 C467 1.390 1_445 S
C469 C470 1.387 . S
C469 H472 0.950 . S
C470 C469 1.387 . S
C470 C473 1.387 . S
H471 C467 0.950 . S
H472 C469 0.950 . S
C473 C464 1.390 1_445 S
C473 H466 0.950 . S
C473 C470 1.387 . S
C474 C475 1.387 . S
C474 H478 0.950 . S
C474 C483 1.390 1_645 S
C475 C474 1.387 . S
C475 C477 1.387 . S
H476 C483 0.950 . S
C477 C475 1.387 . S
C477 C479 1.390 1_645 S
C477 H481 0.950 . S
H478 C474 0.950 . S
C479 C477 1.390 1_465 S
C479 C480 1.387 . S
C479 H482 0.950 . S
C480 C479 1.387 . S
C480 C483 1.387 . S
H481 C477 0.950 . S
H482 C479 0.950 . S
C483 C474 1.390 1_465 S
C483 H476 0.950 . S
C483 C480 1.387 . S
C484 C485 1.387 . S
C484 H488 0.950 . S
C484 C493 1.390 1_455 S
C485 C484 1.387 . S
C485 C487 1.387 . S
H486 C493 0.950 . S
C487 C485 1.387 . S
C487 C489 1.390 1_455 S
C487 H491 0.950 1_556 S
H488 C484 0.950 . S
C489 C487 1.390 1_655 S
C489 C490 1.387 . S
C489 H492 0.950 1_556 S
C490 C489 1.387 . S
C490 C493 1.387 . S
H491 C487 0.950 1_554 S
H492 C489 0.950 1_554 S
C493 C484 1.390 1_655 S
C493 H486 0.950 . S
C493 C490 1.387 . S
C494 C495 1.387 . S
C494 H498 0.950 1_554 S
C494 C503 1.390 1_565 S
C495 C494 1.387 . S
C495 C497 1.387 . S
H496 C503 0.950 1_556 S
C497 C495 1.387 . S
C497 C499 1.390 1_565 S
C497 H501 0.950 . S
H498 C494 0.950 1_556 S
C499 C497 1.390 1_545 S
C499 C500 1.387 . S
C499 H502 0.950 . S
C500 C499 1.387 . S
C500 C503 1.387 . S
H501 C497 0.950 . S
H502 C499 0.950 . S
C503 C494 1.390 1_545 S
C503 H496 0.950 1_554 S
C503 C500 1.387 . S
C504 C505 1.387 . S
C504 H508 0.950 . S
C504 C513 1.390 . S
C505 C504 1.387 . S
C505 C507 1.387 . S
H506 C513 0.950 . S
C507 C505 1.387 . S
C507 C509 1.390 . S
C507 H511 0.950 . S
H508 C504 0.950 . S
C509 C507 1.390 . S
C509 C510 1.387 . S
C509 H512 0.950 . S
C510 C509 1.387 . S
C510 C513 1.387 . S
H511 C507 0.950 . S
H512 C509 0.950 . S
C513 C504 1.390 . S
C513 H506 0.950 . S
C513 C510 1.387 . S
C514 C515 1.387 . S
C514 H518 0.950 . S
C514 C523 1.390 . S
C515 C514 1.387 . S
C515 C517 1.387 . S
H516 C523 0.950 . S
C517 C515 1.387 . S
C517 C519 1.390 . S
C517 H521 0.950 . S
H518 C514 0.950 . S
C519 C517 1.390 . S
C519 C520 1.387 . S
C519 H522 0.950 . S
C520 C519 1.387 . S
C520 C523 1.387 . S
H521 C517 0.950 . S
H522 C519 0.950 . S
C523 C514 1.390 . S
C523 H516 0.950 . S
C523 C520 1.387 . S
C524 C525 1.387 . S
C524 H528 0.950 . S
C524 C533 1.390 1_545 S
C525 C524 1.387 . S
C525 C527 1.387 . S
H526 C533 0.950 . S
C527 C525 1.387 . S
C527 C529 1.390 1_545 S
C527 H531 0.950 . S
H528 C524 0.950 . S
C529 C527 1.390 1_565 S
C529 C530 1.387 . S
C529 H532 0.950 . S
C530 C529 1.387 . S
C530 C533 1.387 . S
H531 C527 0.950 . S
H532 C529 0.950 . S
C533 C524 1.390 1_565 S
C533 H526 0.950 . S
C533 C530 1.387 . S
C534 C535 1.387 . S
C534 H538 0.950 . S
C534 C543 1.390 1_655 S
C535 C534 1.387 . S
C535 C537 1.387 . S
H536 C543 0.950 . S
C537 C535 1.387 . S
C537 C539 1.390 1_655 S
C537 H541 0.950 . S
H538 C534 0.950 . S
C539 C537 1.390 1_455 S
C539 C540 1.387 . S
C539 H542 0.950 . S
C540 C539 1.387 . S
C540 C543 1.387 . S
H541 C537 0.950 . S
H542 C539 0.950 . S
C543 C534 1.390 1_455 S
C543 H536 0.950 . S
C543 C540 1.387 . S
C225 C3 1.280 . S
C230 C163 1.299 . S
C235 C121 1.300 . S
C240 C17 1.280 . S
C245 C135 1.300 . S
C250 C31 1.284 . S
C255 C149 1.299 . S
C260 C45 1.284 . S
C265 C79 1.300 . S
C270 C59 1.284 . S
C275 C73 1.284 . S
C280 C93 1.299 . S
C285 C87 1.284 . S
C290 C107 1.299 . S
C295 C101 1.280 . S
C300 C65 1.300 . S
C305 C115 1.283 . S
C310 C51 1.300 . S
C315 C9 1.300 . S
C320 C129 1.280 . S
C325 C23 1.300 . S
C330 C143 1.280 . S
C335 C37 1.299 . S
C340 C157 1.284 . S
C345 C191 1.299 . S
C350 C171 1.281 . S
C355 C185 1.284 . S
C360 C205 1.299 . S
C365 C219 1.300 . S
C370 C199 1.283 . S
C375 C177 1.300 . S
C380 C213 1.283 . S
C385 C204 1.581 . S
C390 C8 1.581 . S
C395 C218 1.579 . S
C400 C22 1.579 . S
C405 C176 1.579 . S
C410 C36 1.579 . S
C415 C50 1.579 . S
C420 C190 1.579 . S
C425 C64 1.581 . S
C430 C148 1.581 . S
C435 C162 1.581 . S
C440 C78 1.581 . S
C445 C92 1.581 . S
C450 C120 1.581 . S
C455 C106 1.581 . S
C460 C134 1.581 . S
C465 C35 1.346 . S
C470 C7 1.346 . S
C475 C49 1.346 . S
C480 C21 1.346 . S
C485 C63 1.346 . S
C490 C91 1.346 . S
C495 C77 1.346 . S
C500 C105 1.346 . S
C505 C147 1.342 . S
C510 C119 1.342 . S
C515 C133 1.346 . S
C520 C161 1.346 . S
C525 C203 1.346 . S
C530 C175 1.346 . S
C535 C189 1.346 . S
C540 C217 1.346 . S
