# Generated by pormake.
# Topology smu, (6)-cn, num edge types: 1
# Building blocks:
#     Node 0, Type 0, BuildingBlock: OJICUG_clean_sbu_0, # of connection points: 6
#     Node 1, Type 0, BuildingBlock: OJICUG_clean_sbu_0, # of connection points: 6
#     Node 2, Type 0, BuildingBlock: OJICUG_clean_sbu_0, # of connection points: 6
#     Node 3, Type 0, BuildingBlock: OJICUG_clean_sbu_0, # of connection points: 6
#     Node 4, Type 0, BuildingBlock: OJICUG_clean_sbu_0, # of connection points: 6
#     Node 5, Type 0, BuildingBlock: OJICUG_clean_sbu_0, # of connection points: 6
#     Edge 6, Type (0, 0), BuildingBlock: TEMPAE_clean_linker_10, # of connection points: 2
#     Edge 7, Type (0, 0), BuildingBlock: TEMPAE_clean_linker_10, # of connection points: 2
#     Edge 8, Type (0, 0), BuildingBlock: TEMPAE_clean_linker_10, # of connection points: 2
#     Edge 9, Type (0, 0), BuildingBlock: TEMPAE_clean_linker_10, # of connection points: 2
#     Edge 10, Type (0, 0), BuildingBlock: TEMPAE_clean_linker_10, # of connection points: 2
#     Edge 11, Type (0, 0), BuildingBlock: TEMPAE_clean_linker_10, # of connection points: 2
#     Edge 12, Type (0, 0), BuildingBlock: TEMPAE_clean_linker_10, # of connection points: 2
#     Edge 13, Type (0, 0), BuildingBlock: TEMPAE_clean_linker_10, # of connection points: 2
#     Edge 14, Type (0, 0), BuildingBlock: TEMPAE_clean_linker_10, # of connection points: 2
#     Edge 15, Type (0, 0), BuildingBlock: TEMPAE_clean_linker_10, # of connection points: 2
#     Edge 16, Type (0, 0), BuildingBlock: TEMPAE_clean_linker_10, # of connection points: 2
#     Edge 17, Type (0, 0), BuildingBlock: TEMPAE_clean_linker_10, # of connection points: 2
#     Edge 18, Type (0, 0), BuildingBlock: TEMPAE_clean_linker_10, # of connection points: 2
#     Edge 19, Type (0, 0), BuildingBlock: TEMPAE_clean_linker_10, # of connection points: 2
#     Edge 20, Type (0, 0), BuildingBlock: TEMPAE_clean_linker_10, # of connection points: 2
#     Edge 21, Type (0, 0), BuildingBlock: TEMPAE_clean_linker_10, # of connection points: 2
#     Edge 22, Type (0, 0), BuildingBlock: TEMPAE_clean_linker_10, # of connection points: 2
#     Edge 23, Type (0, 0), BuildingBlock: TEMPAE_clean_linker_10, # of connection points: 2
# Relax obj value: 0.250
# Max RMSD: 0.294
# Mean RMSD: 0.265
data_MOF--net-smu--node1-OJICUG_clean_sbu_0--edge1-TEMPAE_clean_linker_10
_symmetry_space_group_name_H-M    P1
_symmetry_Int_Tables_number       1
_symmetry_cell_setting            triclinic
loop_
_symmetry_equiv_pos_as_xyz
'x, y, z'
_cell_length_a     30.365177
_cell_length_b     30.419695
_cell_length_c     31.232789
_cell_angle_alpha  95.62069
_cell_angle_beta   95.545863
_cell_angle_gamma 119.76822
loop_
_atom_site_label
_atom_site_type_symbol
_atom_site_fract_x
_atom_site_fract_y
_atom_site_fract_z
_atom_type_partial_charge
Sc0 Sc 0.28427 0.0526 0.18177 0.0
Sc1 Sc 0.32905 -0.00631 0.25106 0.0
Sc2 Sc 0.32888 0.10628 0.29187 0.0
O3 O 0.31343 0.05041 0.24188 0.0
C4 C 0.36029 0.17111 0.21471 0.0
C5 C 0.35976 0.01545 0.15736 0.0
C6 C 0.4308 0.09826 0.29355 0.0
C7 C 0.2188 0.93413 0.19278 0.0
C8 C 0.2193 0.07924 0.2433 0.0
C9 C 0.30156 0.01415 0.34493 0.0
O10 O 0.33695 0.13327 0.18372 0.0
O11 O 0.35447 0.99027 0.1885 0.0
O12 O 0.40783 0.12265 0.30316 0.0
O13 O 0.22867 0.97168 0.17271 0.0
O14 O 0.25111 0.09404 0.27898 0.0
O15 O 0.30937 0.98744 0.31614 0.0
O16 O 0.22821 0.06577 0.20686 0.0
O17 O 0.25032 0.93604 0.22412 0.0
O18 O 0.30515 0.05643 0.33941 0.0
O19 O 0.33839 0.04148 0.15203 0.0
O20 O 0.35699 0.16628 0.25419 0.0
O21 O 0.40756 0.05077 0.27694 0.0
Sc22 Sc 0.74169 0.61144 0.19591 0.0
Sc23 Sc 0.66727 0.64465 0.25611 0.0
Sc24 Sc 0.79805 0.6919 0.29676 0.0
O25 O 0.73549 0.64941 0.24962 0.0
C26 C 0.8034 0.59092 0.2694 0.0
C27 C 0.62697 0.53203 0.20871 0.0
C28 C 0.70871 0.63704 0.35179 0.0
C29 C 0.67758 0.65777 0.15635 0.0
C30 C 0.85241 0.71446 0.21482 0.0
C31 C 0.74705 0.76181 0.29581 0.0
O32 O 0.7708 0.57443 0.23445 0.0
O33 O 0.62338 0.563 0.23641 0.0
O34 O 0.75508 0.65662 0.34595 0.0
O35 O 0.71271 0.64669 0.15511 0.0
O36 O 0.84734 0.73085 0.25186 0.0
O37 O 0.70299 0.72609 0.27624 0.0
O38 O 0.81902 0.6709 0.1927 0.0
O39 O 0.6548 0.65538 0.18906 0.0
O40 O 0.78417 0.75461 0.30624 0.0
O41 O 0.6661 0.5451 0.19029 0.0
O42 O 0.81988 0.63436 0.29288 0.0
O43 O 0.67289 0.63257 0.32347 0.0
Sc44 Sc 0.85266 0.17726 0.18109 0.0
Sc45 Sc 0.96961 0.29124 0.22466 0.0
Sc46 Sc 0.87941 0.23291 0.29018 0.0
O47 O 0.89934 0.23398 0.23104 0.0
C48 C 0.77765 0.20598 0.22652 0.0
C49 C 0.91011 0.26542 0.12674 0.0
C50 C 0.92945 0.35057 0.27565 0.0
C51 C 0.965 0.18864 0.18846 0.0
C52 C 0.82894 0.11335 0.25924 0.0
C53 C 0.99183 0.28001 0.32306 0.0
O54 O 0.78718 0.18683 0.19258 0.0
O55 O 0.94988 0.28953 0.15603 0.0
O56 O 0.91156 0.31561 0.29941 0.0
O57 O 0.91681 0.16497 0.17237 0.0
O58 O 0.84537 0.15171 0.28915 0.0
O59 O 0.00315 0.30733 0.29323 0.0
O60 O 0.82922 0.11757 0.21939 0.0
O61 O 0.99026 0.23454 0.20959 0.0
O62 O 0.94917 0.23885 0.3184 0.0
O63 O 0.86899 0.22683 0.1328 0.0
O64 O 0.80768 0.22382 0.26317 0.0
O65 O 0.94666 0.34558 0.24098 0.0
Sc66 Sc 0.08409 0.2998 0.70842 0.0
Sc67 Sc -0.00309 0.33714 0.7322 0.0
Sc68 Sc 0.11806 0.39213 0.79836 0.0
O69 O 0.06595 0.34312 0.74647 0.0
C70 C 0.12952 0.29215 0.79655 0.0
C71 C 0.96445 0.22226 0.70488 0.0
C72 C 0.01461 0.34364 0.83667 0.0
C73 C 0.03698 0.33962 0.64046 0.0
C74 C 0.19103 0.40567 0.7324 0.0
C75 C 0.06912 0.45661 0.76251 0.0
O76 O 0.0959 0.26757 0.76261 0.0
O77 O 0.95605 0.25482 0.72525 0.0
O78 O 0.06234 0.35871 0.84021 0.0
O79 O 0.07255 0.33158 0.65436 0.0
O80 O 0.17558 0.42748 0.75865 0.0
O81 O 0.03167 0.41831 0.73719 0.0
O82 O 0.1648 0.35779 0.71749 0.0
O83 O 0.0019 0.3355 0.66234 0.0
O84 O 0.09962 0.45216 0.79048 0.0
O85 O 0.00703 0.23486 0.69232 0.0
O86 O 0.14617 0.3395 0.81075 0.0
O87 O 0.98708 0.33912 0.80092 0.0
Sc88 Sc 0.19667 0.92906 0.72299 0.0
Sc89 Sc 0.32874 0.00783 0.75924 0.0
Sc90 Sc 0.25613 0.90848 0.81261 0.0
O91 O 0.26024 0.94766 0.76417 0.0
C92 C 0.14994 0.90684 0.80854 0.0
C93 C 0.25511 0.05156 0.75084 0.0
C94 C 0.33574 0.01388 0.86239 0.0
C95 C 0.27487 0.96406 0.65841 0.0
C96 C 0.18487 0.81991 0.73569 0.0
C97 C 0.36053 0.93025 0.77896 0.0
O98 O 0.15502 0.92733 0.77456 0.0
O99 O 0.29731 0.05671 0.76867 0.0
O100 O 0.28979 0.97737 0.85905 0.0
O101 O 0.23256 0.92962 0.66716 0.0
O102 O 0.22173 0.83866 0.76759 0.0
O103 O 0.35991 0.9586 0.75177 0.0
O104 O 0.16789 0.84625 0.71837 0.0
O105 O 0.31078 -0.00135 0.68812 0.0
O106 O 0.3305 0.91687 0.80716 0.0
O107 O 0.2193 0.01 0.7266 0.0
O108 O 0.18086 0.89331 0.82389 0.0
O109 O 0.35825 0.02512 0.82935 0.0
Sc110 Sc 0.63749 0.7411 0.69623 0.0
Sc111 Sc 0.67048 0.66969 0.75924 0.0
Sc112 Sc 0.70151 0.79374 0.80302 0.0
O113 O 0.66992 0.73485 0.75276 0.0
C114 C 0.73732 0.85351 0.72558 0.0
C115 C 0.68944 0.68201 0.66095 0.0
C116 C 0.78058 0.75279 0.80795 0.0
C117 C 0.55926 0.62578 0.70848 0.0
C118 C 0.60174 0.79551 0.76226 0.0
C119 C 0.64795 0.70135 0.85215 0.0
O120 O 0.69665 0.82063 0.69912 0.0
O121 O 0.68205 0.65681 0.69242 0.0
O122 O 0.76494 0.78225 0.82262 0.0
O123 O 0.57361 0.66275 0.68697 0.0
O124 O 0.64258 0.81325 0.79007 0.0
O125 O 0.65734 0.67286 0.82651 0.0
O126 O 0.59115 0.76372 0.72799 0.0
O127 O 0.58911 0.62454 0.73915 0.0
O128 O 0.65651 0.74508 0.84529 0.0
O129 O 0.68152 0.71913 0.6604 0.0
O130 O 0.74809 0.84661 0.76372 0.0
O131 O 0.75232 0.71215 0.77997 0.0
C132 C 0.34363 0.04562 0.94006 0.0
C133 C 0.36565 0.03406 0.90674 0.0
C134 C 0.36117 0.04787 0.98377 0.0
C135 C 0.40114 0.03729 0.99419 0.0
C136 C 0.4269 0.03064 0.96094 0.0
C137 C 0.40883 0.02925 0.91734 0.0
C138 C 0.33346 0.05676 0.01827 0.0
C139 C 0.47017 0.0202 0.97048 0.0
C140 C 0.42915 0.06016 0.11579 0.0
C141 C 0.38896 0.01341 0.12334 0.0
C142 C 0.44003 0.06688 0.07352 0.0
C143 C 0.40944 0.02593 0.03851 0.0
C144 C 0.37542 0.97631 0.04746 0.0
C145 C 0.36539 0.97063 0.09012 0.0
C146 C 0.47848 0.11974 0.06579 0.0
C147 C 0.34351 0.93103 0.01119 0.0
H148 H 0.31019 0.04922 0.93164 0.0
H149 H 0.42546 0.01963 0.89139 0.0
H150 H 0.31103 0.0208 0.03143 0.0
H151 H 0.3615 0.08672 0.04581 0.0
H152 H 0.30656 0.0689 0.0052 0.0
H153 H 0.49645 0.03326 0.94613 0.0
H154 H 0.4928 0.03927 0.00365 0.0
H155 H 0.45383 0.9782 0.96846 0.0
H156 H 0.44759 0.09322 0.14181 0.0
H157 H 0.33429 0.93454 0.0961 0.0
H158 H 0.45825 0.14078 0.05842 0.0
H159 H 0.49741 0.1176 0.03765 0.0
H160 H 0.50842 0.14216 0.09519 0.0
H161 H 0.31159 0.93452 0.9947 0.0
H162 H 0.32659 0.89405 0.02374 0.0
H163 H 0.36706 0.93022 0.98645 0.0
C164 C 0.67481 0.61201 0.60244 0.0
C165 C 0.70105 0.66438 0.62034 0.0
C166 C 0.67416 0.59609 0.55846 0.0
C167 C 0.70056 0.63358 0.53241 0.0
C168 C 0.73081 0.6861 0.55164 0.0
C169 C 0.73053 0.70082 0.59537 0.0
C170 C 0.64207 0.53973 0.53925 0.0
C171 C 0.76047 0.72731 0.52527 0.0
C172 C 0.73223 0.61406 0.42124 0.0
C173 C 0.69809 0.62304 0.39517 0.0
C174 C 0.73027 0.61209 0.46565 0.0
C175 C 0.69351 0.61963 0.48437 0.0
C176 C 0.65562 0.62337 0.45731 0.0
C177 C 0.65827 0.62488 0.41282 0.0
C178 C 0.77058 0.60684 0.49315 0.0
C179 C 0.61529 0.63071 0.47607 0.0
H180 H 0.65161 0.58383 0.62169 0.0
H181 H 0.75103 0.74131 0.60942 0.0
H182 H 0.60506 0.53179 0.52081 0.0
H183 H 0.66172 0.52858 0.51609 0.0
H184 H 0.63342 0.51523 0.56499 0.0
H185 H 0.78506 0.76576 0.54596 0.0
H186 H 0.78532 0.71771 0.50752 0.0
H187 H 0.73317 0.7296 0.50057 0.0
H188 H 0.76242 0.61135 0.40747 0.0
H189 H 0.63151 0.63132 0.39274 0.0
H190 H 0.75364 0.58176 0.5176 0.0
H191 H 0.80084 0.64524 0.51119 0.0
H192 H 0.78915 0.59091 0.47286 0.0
H193 H 0.59745 0.60323 0.49867 0.0
H194 H 0.58452 0.62558 0.45021 0.0
H195 H 0.6337 0.67009 0.49511 0.0
C196 C 0.95208 0.3288 0.07703 0.0
C197 C 0.91404 0.27974 0.08254 0.0
C198 C 0.96188 0.34034 0.03527 0.0
C199 C 0.93373 0.30158 0.99811 0.0
C200 C 0.89325 0.25292 0.00328 0.0
C201 C 0.88357 0.24273 0.04541 0.0
C202 C 0.00462 0.39309 0.03121 0.0
C203 C 0.86273 0.21028 0.96467 0.0
C204 C 0.95055 0.33817 0.88467 0.0
C205 C 0.99074 0.33007 0.87624 0.0
C206 C 0.93105 0.32874 0.92407 0.0
C207 C 0.95151 0.30971 0.95512 0.0
C208 C 0.99077 0.29975 0.94585 0.0
C209 C 0.01018 0.31054 0.90686 0.0
C210 C 0.88981 0.34062 0.93309 0.0
C211 C 0.013 0.27843 0.97749 0.0
H212 H 0.97542 0.3578 0.10552 0.0
H213 H 0.8542 0.20465 0.04932 0.0
H214 H 0.03806 0.39066 0.02266 0.0
H215 H 0.99197 0.40814 0.00468 0.0
H216 H 0.01754 0.42089 0.06204 0.0
H217 H 0.82838 0.17727 0.97324 0.0
H218 H 0.84999 0.22448 0.93752 0.0
H219 H 0.88756 0.19636 0.95254 0.0
H220 H 0.93559 0.3535 0.86118 0.0
H221 H 0.04082 0.30358 0.90029 0.0
H222 H 0.90514 0.372 0.96157 0.0
H223 H 0.85657 0.30659 0.94161 0.0
H224 H 0.876 0.35257 0.90475 0.0
H225 H 0.03263 0.30639 0.00831 0.0
H226 H 0.04116 0.27 0.96421 0.0
H227 H 0.98175 0.24255 0.9857 0.0
C228 C 0.30797 0.96564 0.40381 0.0
C229 C 0.29241 -0.00151 0.38841 0.0
C230 C 0.3058 0.95642 0.44711 0.0
C231 C 0.28711 0.98013 0.47555 0.0
C232 C 0.2695 0.01166 0.45963 0.0
C233 C 0.27256 0.0206 0.41647 0.0
C234 C 0.32505 0.92265 0.46285 0.0
C235 C 0.24849 0.03704 0.48854 0.0
C236 C 0.23988 0.92929 0.57861 0.0
C237 C 0.28056 0.96552 0.61156 0.0
C238 C 0.24223 0.93254 0.53425 0.0
C239 C 0.28644 0.97285 0.52218 0.0
C240 C 0.32851 0.00835 0.55504 0.0
C241 C 0.32505 0.00435 0.59928 0.0
C242 C 0.19647 0.89395 0.50037 0.0
C243 C 0.37654 0.05168 0.54353 0.0
H244 H 0.32374 0.9487 0.38257 0.0
H245 H 0.26014 0.04579 0.40488 0.0
H246 H 0.35905 0.94568 0.48902 0.0
H247 H 0.29506 0.8915 0.47713 0.0
H248 H 0.33611 0.9051 0.43623 0.0
H249 H 0.23449 0.0588 0.47072 0.0
H250 H 0.21625 0.0077 0.50236 0.0
H251 H 0.27887 0.06391 0.51635 0.0
H252 H 0.20532 0.89891 0.58744 0.0
H253 H 0.35681 0.03243 0.62426 0.0
H254 H 0.20882 0.87654 0.47481 0.0
H255 H 0.17885 0.91365 0.48403 0.0
H256 H 0.1666 0.86272 0.51476 0.0
H257 H 0.39154 0.03646 0.5187 0.0
H258 H 0.40734 0.07357 0.57244 0.0
H259 H 0.36723 0.07857 0.52905 0.0
C260 C 0.6359 0.64657 0.90978 0.0
C261 C 0.63199 0.68636 0.8942 0.0
C262 C 0.63158 0.63949 0.95319 0.0
C263 C 0.62318 0.673 0.98143 0.0
C264 C 0.61372 0.70953 0.96463 0.0
C265 C 0.61822 0.71578 0.92115 0.0
C266 C 0.64086 0.59932 0.96981 0.0
C267 C 0.60374 0.74532 0.9935 0.0
C268 C 0.60942 0.64306 0.09615 0.0
C269 C 0.66114 0.67062 0.11618 0.0
C270 C 0.59552 0.64537 0.05255 0.0
C271 C 0.63438 0.67633 0.02925 0.0
C272 C 0.686 0.70753 0.05084 0.0
C273 C 0.69878 0.70389 0.09399 0.0
C274 C 0.54012 0.61172 0.03066 0.0
C275 C 0.72849 0.74202 0.02749 0.0
H276 H 0.6457 0.62312 0.88903 0.0
H277 H 0.61381 0.74584 0.90908 0.0
H278 H 0.67957 0.61844 0.9903 0.0
H279 H 0.61219 0.57782 0.99051 0.0
H280 H 0.63902 0.57157 0.94275 0.0
H281 H 0.58699 0.76384 0.9741 0.0
H282 H 0.57735 0.72458 0.01605 0.0
H283 H 0.64058 0.77598 0.0137 0.0
H284 H 0.5805 0.61687 0.11337 0.0
H285 H 0.73875 0.72518 0.10981 0.0
H286 H 0.53545 0.57709 0.01049 0.0
H287 H 0.52855 0.63202 0.00862 0.0
H288 H 0.51365 0.59895 0.05489 0.0
H289 H 0.73441 0.71819 0.00208 0.0
H290 H 0.76556 0.76704 0.05008 0.0
H291 H 0.71777 0.76678 0.01088 0.0
C292 C 0.02009 0.27208 0.39725 0.0
C293 C 0.01816 0.30344 0.36816 0.0
C294 C 0.02894 0.28817 0.44234 0.0
C295 C 0.03502 0.33639 0.45847 0.0
C296 C 0.03695 0.36983 0.4293 0.0
C297 C 0.02887 0.35303 0.38426 0.0
C298 C 0.02811 0.25197 0.47253 0.0
C299 C 0.04314 0.42138 0.44521 0.0
C300 C 0.98968 0.33176 0.56728 0.0
C301 C 0.0361 0.35075 0.59564 0.0
C302 C 0.98912 0.331 0.52218 0.0
C303 C 0.03601 0.3496 0.50563 0.0
C304 C 0.08322 0.37364 0.53469 0.0
C305 C 0.08268 0.37407 0.5794 0.0
C306 C 0.93807 0.30624 0.492 0.0
C307 C 0.13402 0.3944 0.51846 0.0
H308 H 0.0114 0.23362 0.38461 0.0
H309 H 0.02632 0.37691 0.36169 0.0
H310 H 0.06235 0.27218 0.49873 0.0
H311 H -0.00651 0.23828 0.48843 0.0
H312 H 0.0274 0.21798 0.45499 0.0
H313 H 0.05345 0.4463 0.41977 0.0
H314 H 0.00631 0.41551 0.4541 0.0
H315 H 0.07303 0.44171 0.47482 0.0
H316 H 0.95373 0.31406 0.57981 0.0
H317 H 0.11882 0.38988 0.6015 0.0
H318 H 0.92888 0.2681 0.47514 0.0
H319 H 0.93993 0.32987 0.46658 0.0
H320 H 0.90629 0.30076 0.5099 0.0
H321 H 0.13813 0.36185 0.50465 0.0
H322 H 0.16719 0.41923 0.54504 0.0
H323 H 0.13566 0.4168 0.49207 0.0
C324 C 0.50211 0.16739 0.26511 0.0
C325 C 0.48581 0.12805 0.29033 0.0
C326 C 0.54942 0.18671 0.25013 0.0
C327 C 0.58173 0.16707 0.2617 0.0
C328 C 0.5667 0.12958 0.28948 0.0
C329 C 0.51843 0.10977 0.3027 0.0
C330 C 0.56283 0.22534 0.21952 0.0
C331 C 0.60079 0.10893 0.30393 0.0
C332 C 0.68253 0.16516 0.19966 0.0
C333 C 0.72783 0.20412 0.22651 0.0
C334 C 0.63407 0.15554 0.2083 0.0
C335 C 0.63122 0.18494 0.245 0.0
C336 C 0.67688 0.22742 0.26934 0.0
C337 C 0.72448 0.23684 0.25945 0.0
C338 C 0.58596 0.1116 0.18013 0.0
C339 C 0.67584 0.26011 0.30845 0.0
H340 H 0.47606 0.18025 0.25419 0.0
H341 H 0.50534 0.07869 0.32147 0.0
H342 H 0.60393 0.25606 0.22768 0.0
H343 H 0.55636 0.20558 0.18574 0.0
H344 H 0.5387 0.24333 0.2201 0.0
H345 H 0.58524 0.08291 0.32811 0.0
H346 H 0.60474 0.08736 0.27526 0.0
H347 H 0.6399 0.1411 0.31867 0.0
H348 H 0.6847 0.14007 0.17389 0.0
H349 H 0.75938 0.26796 0.27972 0.0
H350 H 0.55719 0.12323 0.17222 0.0
H351 H 0.5684 0.07895 0.19819 0.0
H352 H 0.59416 0.09808 0.14921 0.0
H353 H 0.647 0.2716 0.30052 0.0
H354 H 0.71396 0.29537 0.32044 0.0
H355 H 0.66444 0.2374 0.33529 0.0
C356 C 0.59278 0.43913 0.18118 0.0
C357 C 0.58427 0.47816 0.19824 0.0
C358 C 0.55393 0.38736 0.17558 0.0
C359 C 0.5055 0.37463 0.18698 0.0
C360 C 0.49554 0.41402 0.20102 0.0
C361 C 0.53522 0.46537 0.20681 0.0
C362 C 0.56626 0.34645 0.16099 0.0
C363 C 0.44416 0.40189 0.21307 0.0
C364 C 0.39363 0.23662 0.16494 0.0
C365 C 0.39695 0.22254 0.20601 0.0
C366 C 0.42918 0.28604 0.15772 0.0
C367 C 0.46899 0.32129 0.19221 0.0
C368 C 0.47329 0.30651 0.2332 0.0
C369 C 0.43709 0.25756 0.23963 0.0
C370 C 0.42383 0.3008 0.11362 0.0
C371 C 0.51587 0.34257 0.27059 0.0
H372 H 0.63058 0.44881 0.17426 0.0
H373 H 0.52814 0.49547 0.21916 0.0
H374 H 0.57463 0.33171 0.18993 0.0
H375 H 0.53316 0.3135 0.1386 0.0
H376 H 0.60044 0.36178 0.14439 0.0
H377 H 0.44003 0.4363 0.21684 0.0
H378 H 0.41218 0.37155 0.18798 0.0
H379 H 0.44019 0.3871 0.24443 0.0
H380 H 0.36291 0.20944 0.13881 0.0
H381 H 0.44068 0.24654 0.27118 0.0
H382 H 0.46027 0.31446 0.10046 0.0
H383 H 0.41632 0.33305 0.11693 0.0
H384 H 0.39206 0.26828 0.08974 0.0
H385 H 0.55393 0.35595 0.26045 0.0
H386 H 0.51465 0.32424 0.29987 0.0
H387 H 0.51282 0.37699 0.27992 0.0
C388 C 0.90291 0.40101 0.32314 0.0
C389 C 0.92565 0.39659 0.28714 0.0
C390 C 0.88917 0.43848 0.32924 0.0
C391 C 0.89858 0.47209 0.29864 0.0
C392 C 0.92636 0.47134 0.265 0.0
C393 C 0.93963 0.43347 0.25964 0.0
C394 C 0.8603 0.43875 0.36591 0.0
C395 C 0.93769 0.50724 0.2321 0.0
C396 C 0.79981 0.50721 0.26318 0.0
C397 C 0.82506 0.55926 0.28176 0.0
C398 C 0.82246 0.47776 0.27039 0.0
C399 C 0.87165 0.50116 0.29664 0.0
C400 C 0.89612 0.55286 0.31753 0.0
C401 C 0.8724 0.58145 0.30987 0.0
C402 C 0.79476 0.42225 0.24817 0.0
C403 C 0.94834 0.57866 0.34608 0.0
H404 H 0.89293 0.37332 0.34518 0.0
H405 H 0.95813 0.43097 0.23226 0.0
H406 H 0.87236 0.47856 0.38064 0.0
H407 H 0.81852 0.41862 0.3528 0.0
H408 H 0.86619 0.41882 0.3919 0.0
H409 H 0.96587 0.5068 0.21213 0.0
H410 H 0.9015 0.49546 0.20983 0.0
H411 H 0.95293 0.54718 0.24865 0.0
H412 H 0.76279 0.48969 0.24206 0.0
H413 H 0.89197 0.62169 0.32444 0.0
H414 H 0.79161 0.39692 0.2724 0.0
H415 H 0.81705 0.41724 0.22397 0.0
H416 H 0.75544 0.40924 0.23101 0.0
H417 H 0.94999 0.5535 0.36882 0.0
H418 H 0.95816 0.61596 0.36536 0.0
H419 H 0.97813 0.58589 0.32533 0.0
C420 C 0.05874 0.51477 0.7166 0.0
C421 C 0.07939 0.50847 0.75625 0.0
C422 C 0.07075 0.56357 0.70803 0.0
C423 C 0.10355 0.60729 0.74012 0.0
C424 C 0.12332 0.6012 0.78074 0.0
C425 C 0.11146 0.5519 0.78815 0.0
C426 C 0.04978 0.56846 0.66402 0.0
C427 C 0.15779 0.64691 0.8161 0.0
C428 C 0.18465 0.73995 0.71185 0.0
C429 C 0.15725 0.76371 0.72378 0.0
C430 C 0.16588 0.68798 0.71435 0.0
C431 C 0.11936 0.65968 0.73053 0.0
C432 C 0.09009 0.68283 0.74026 0.0
C433 C 0.10927 0.73464 0.7364 0.0
C434 C 0.19763 0.66447 0.70252 0.0
C435 C 0.04071 0.6543 0.75815 0.0
H436 H 0.03434 0.48158 0.69144 0.0
H437 H 0.12745 0.54741 0.81884 0.0
H438 H 0.0292 0.58979 0.6681 0.0
H439 H 0.08205 0.5908 0.64662 0.0
H440 H 0.02301 0.53049 0.64326 0.0
H441 H 0.16701 0.63541 0.84685 0.0
H442 H 0.19435 0.67246 0.80488 0.0
H443 H 0.13911 0.66964 0.82311 0.0
H444 H 0.2223 0.7629 0.703 0.0
H445 H 0.08893 0.75358 0.7469 0.0
H446 H 0.17304 0.62653 0.68118 0.0
H447 H 0.21477 0.65809 0.73257 0.0
H448 H 0.22929 0.68946 0.68555 0.0
H449 H 0.0148 0.61596 0.73782 0.0
H450 H 0.01996 0.67577 0.75981 0.0
H451 H 0.04957 0.64802 0.79153 0.0
C452 C 0.43278 0.9269 0.74945 0.0
C453 C 0.39775 0.9124 0.77877 0.0
C454 C 0.46729 0.90902 0.74858 0.0
C455 C 0.46651 0.87582 0.77761 0.0
C456 C 0.43184 0.86161 0.80767 0.0
C457 C 0.39791 0.88012 0.80793 0.0
C458 C 0.50401 0.92497 0.71616 0.0
C459 C 0.42991 0.82607 0.83898 0.0
C460 C 0.51653 0.78839 0.74377 0.0
C461 C 0.56615 0.81443 0.7686 0.0
C462 C 0.48344 0.80766 0.74689 0.0
C463 C 0.50056 0.85422 0.77533 0.0
C464 C 0.55012 0.8802 0.80119 0.0
C465 C 0.58235 0.85984 0.79765 0.0
C466 C 0.43048 0.7786 0.71924 0.0
C467 C 0.56945 0.92999 0.83187 0.0
H468 H 0.43305 0.95194 0.72693 0.0
H469 H 0.37109 0.86872 0.83081 0.0
H470 H 0.5442 0.94277 0.73336 0.0
H471 H 0.49582 0.89063 0.69311 0.0
H472 H 0.50116 0.95267 0.69707 0.0
H473 H 0.40192 0.82029 0.8614 0.0
H474 H 0.41894 0.78808 0.82044 0.0
H475 H 0.46849 0.8417 0.85879 0.0
H476 H 0.50358 0.75301 0.72154 0.0
H477 H 0.62072 0.88023 0.8168 0.0
H478 H 0.42656 0.80282 0.69658 0.0
H479 H 0.40063 0.76955 0.74027 0.0
H480 H 0.4226 0.74213 0.69975 0.0
H481 H 0.57072 0.95962 0.81309 0.0
H482 H 0.60849 0.94467 0.85053 0.0
H483 H 0.54267 0.92462 0.85532 0.0
C484 C 0.25897 0.41458 0.68872 0.0
C485 C 0.24255 0.43627 0.72064 0.0
C486 C 0.30901 0.44202 0.67942 0.0
C487 C 0.34337 0.492 0.70293 0.0
C488 C 0.32652 0.51479 0.73405 0.0
C489 C 0.2762 0.4867 0.7424 0.0
C490 C 0.32561 0.41694 0.64559 0.0
C491 C 0.36226 0.56811 0.75982 0.0
C492 C 0.48661 0.54659 0.72657 0.0
C493 C 0.50426 0.58528 0.7007 0.0
C494 C 0.43394 0.5137 0.7256 0.0
C495 C 0.39814 0.51939 0.6978 0.0
C496 C 0.41547 0.55545 0.66903 0.0
C497 C 0.46847 0.58816 0.67088 0.0
C498 C 0.4168 0.47547 0.75669 0.0
C499 C 0.37821 0.56187 0.63842 0.0
H500 H 0.23301 0.3758 0.67139 0.0
H501 H 0.26379 0.50384 0.76695 0.0
H502 H 0.34474 0.4433 0.62252 0.0
H503 H 0.35405 0.40849 0.66183 0.0
H504 H 0.2927 0.38045 0.62673 0.0
H505 H 0.3424 0.58112 0.78132 0.0
H506 H 0.39453 0.56872 0.78041 0.0
H507 H 0.37918 0.59609 0.73741 0.0
H508 H 0.51389 0.54356 0.74934 0.0
H509 H 0.48168 0.61754 0.65039 0.0
H510 H 0.38629 0.43689 0.73926 0.0
H511 H 0.40023 0.48757 0.78229 0.0
H512 H 0.44908 0.47228 0.7729 0.0
H513 H 0.34571 0.52394 0.62164 0.0
H514 H 0.39714 0.58523 0.61343 0.0
H515 H 0.36182 0.58135 0.6574 0.0
C516 C 0.166 0.11386 0.27243 0.0
C517 C 0.17093 0.08047 0.24172 0.0
C518 C 0.1251 0.12317 0.26482 0.0
C519 C 0.08903 0.09901 0.22545 0.0
C520 C 0.09125 0.06175 0.1965 0.0
C521 C 0.13181 0.0526 0.2052 0.0
C522 C 0.12257 0.16154 0.2974 0.0
C523 C 0.05356 0.0348 0.15433 0.0
C524 C 0.97225 0.11518 0.20821 0.0
C525 C 0.99194 0.15967 0.18917 0.0
C526 C 0.00302 0.09433 0.21992 0.0
C527 C 0.05419 0.1181 0.21146 0.0
C528 C 0.07294 0.16122 0.18975 0.0
C529 C 0.04187 0.18202 0.17961 0.0
C530 C 0.98176 0.04912 0.24383 0.0
C531 C 0.12658 0.18662 0.17865 0.0
H532 H 0.19563 0.13506 0.30094 0.0
H533 H 0.13449 0.02558 0.18179 0.0
H534 H 0.13483 0.19768 0.28414 0.0
H535 H 0.08248 0.14667 0.30323 0.0
H536 H 0.1479 0.17065 0.32906 0.0
H537 H 0.05629 0.00214 0.13839 0.0
H538 H 0.0135 0.02018 0.16005 0.0
H539 H 0.06156 0.06259 0.13146 0.0
H540 H 0.93404 0.09881 0.21674 0.0
H541 H 0.05716 0.21682 0.16542 0.0
H542 H -0.00178 0.06294 0.27906 0.0
H543 H -0.00737 0.02083 0.23198 0.0
H544 H 0.93916 0.02935 0.24039 0.0
H545 H 0.15539 0.20386 0.2091 0.0
H546 H 0.13381 0.21732 0.15894 0.0
H547 H 0.13279 0.15766 0.16015 0.0
C548 C 0.93528 0.79635 0.21813 0.0
C549 C 0.90197 0.74459 0.19961 0.0
C550 C 0.98573 0.82313 0.20969 0.0
C551 C 0.0034 0.79731 0.18242 0.0
C552 C 0.96915 0.74601 0.16159 0.0
C553 C 0.91865 0.72026 0.17029 0.0
C554 C 0.02085 0.87835 0.23169 0.0
C555 C 0.98657 0.71746 0.13205 0.0
C556 C 0.13001 0.888 0.14938 0.0
C557 C 0.16521 0.89006 0.18341 0.0
C558 C 0.07693 0.85512 0.14666 0.0
C559 C 0.0587 0.82335 0.17854 0.0
C560 C 0.09408 0.82154 0.21034 0.0
C561 C 0.14703 0.85494 0.21239 0.0
C562 C 0.0405 0.85782 0.11196 0.0
C563 C 0.07598 0.78748 0.24453 0.0
H564 H 0.92242 0.81553 0.2404 0.0
H565 H 0.89315 0.6802 0.15588 0.0
H566 H 0.05237 0.88127 0.25525 0.0
H567 H 0.03886 0.90299 0.20721 0.0
H568 H 0.00016 0.89379 0.2495 0.0
H569 H 0.95379 0.68029 0.11409 0.0
H570 H 0.0077 0.74112 0.10806 0.0
H571 H 0.01347 0.70961 0.15183 0.0
H572 H 0.14361 0.91441 0.12633 0.0
H573 H 0.17382 0.85587 0.23856 0.0
H574 H 0.02488 0.88073 0.12677 0.0
H575 H 0.00745 0.81897 0.09806 0.0
H576 H 0.06006 0.87631 0.08502 0.0
H577 H 0.05911 0.80251 0.26764 0.0
H578 H 0.10788 0.78574 0.26338 0.0
H579 H 0.04548 0.7479 0.22921 0.0
C580 C 0.80095 0.02107 0.23844 0.0
C581 C 0.81161 0.06195 0.27088 0.0
C582 C 0.78837 0.973 0.24874 0.0
C583 C 0.78591 0.96531 0.29257 0.0
C584 C 0.79503 0.00574 0.32542 0.0
C585 C 0.80805 0.05383 0.31421 0.0
C586 C 0.77917 0.93084 0.21275 0.0
C587 C 0.79229 -0.00147 0.37242 0.0
C588 C 0.71577 0.82394 0.29846 0.0
C589 C 0.75682 0.81484 0.30341 0.0
C590 C 0.72478 0.87383 0.29873 0.0
C591 C 0.77597 0.91527 0.30352 0.0
C592 C 0.81759 0.90684 0.31181 0.0
C593 C 0.80749 0.85667 0.31189 0.0
C594 C 0.67947 0.88157 0.29052 0.0
C595 C 0.87276 0.95006 0.31675 0.0
H596 H 0.80368 0.02685 0.20488 0.0
H597 H 0.8161 0.08517 0.33946 0.0
H598 H 0.80831 0.91941 0.21946 0.0
H599 H 0.74077 0.89636 0.21152 0.0
H600 H 0.78126 0.94281 0.18017 0.0
H601 H 0.79602 0.03233 0.39332 0.0
H602 H 0.75531 0.96397 0.37481 0.0
H603 H 0.8236 0.99218 0.38548 0.0
H604 H 0.67648 0.79189 0.29264 0.0
H605 H 0.83948 0.85006 0.316 0.0
H606 H 0.67483 0.88829 0.25652 0.0
H607 H 0.68595 0.91584 0.31261 0.0
H608 H 0.64307 0.84759 0.29505 0.0
H609 H 0.88102 0.96146 0.28446 0.0
H610 H 0.90043 0.93869 0.32947 0.0
H611 H 0.87941 0.98431 0.33895 0.0
C612 C 0.13248 0.21805 0.81975 0.0
C613 C 0.15888 0.26812 0.81067 0.0
C614 C 0.15402 0.18657 0.8166 0.0
C615 C 0.20216 0.20513 0.80237 0.0
C616 C 0.23069 0.25707 0.79654 0.0
C617 C 0.20889 0.28823 0.80138 0.0
C618 C 0.12312 0.13203 0.82469 0.0
C619 C 0.28163 0.27822 0.78057 0.0
C620 C 0.2654 0.12411 0.80404 0.0
C621 C 0.24527 0.09393 0.76226 0.0
C622 C 0.25217 0.16081 0.81757 0.0
C623 C 0.21912 0.16849 0.78821 0.0
C624 C 0.2003 0.1395 0.74538 0.0
C625 C 0.21292 0.10196 0.73317 0.0
C626 C 0.27178 0.18975 0.86381 0.0
C627 C 0.166 0.14746 0.71266 0.0
H628 H 0.09345 0.20232 0.82622 0.0
H629 H 0.22869 0.32655 0.79321 0.0
H630 H 0.10617 0.10538 0.79302 0.0
H631 H 0.14815 0.1213 0.84364 0.0
H632 H 0.09131 0.12643 0.84259 0.0
H633 H 0.30221 0.32076 0.78378 0.0
H634 H 0.30684 0.26718 0.79871 0.0
H635 H 0.27479 0.26171 0.74562 0.0
H636 H 0.28981 0.11747 0.82693 0.0
H637 H 0.19738 0.07878 0.70088 0.0
H638 H 0.23888 0.17909 0.88158 0.0
H639 H 0.29091 0.23174 0.86401 0.0
H640 H 0.29941 0.18139 0.88185 0.0
H641 H 0.12873 0.13576 0.72386 0.0
H642 H 0.15816 0.12496 0.67976 0.0
H643 H 0.18404 0.18875 0.70993 0.0
C644 C 0.07088 0.91138 0.81247 0.0
C645 C 0.10197 0.89177 0.82639 0.0
C646 C 0.01979 0.88865 0.81913 0.0
C647 C -0.00046 0.84573 0.84091 0.0
C648 C 0.03227 0.82935 0.8593 0.0
C649 C 0.08326 0.85246 0.85162 0.0
C650 C 0.98632 0.90765 0.79921 0.0
C651 C 0.0125 0.78485 0.88402 0.0
C652 C 0.86436 0.80556 0.85911 0.0
C653 C 0.83534 0.76942 0.82116 0.0
C654 C 0.91795 0.82765 0.86831 0.0
C655 C 0.94296 0.81414 0.83826 0.0
C656 C 0.91348 0.77508 0.80153 0.0
C657 C 0.85992 0.75283 0.79366 0.0
C658 C 0.94794 0.86771 0.90865 0.0
C659 C 0.93875 0.75965 0.76857 0.0
H660 H 0.08543 0.9425 0.79376 0.0
H661 H 0.10718 0.83738 0.8629 0.0
H662 H 0.95757 0.87817 0.77168 0.0
H663 H 0.96485 0.91394 0.82351 0.0
H664 H 0.00903 0.94409 0.7867 0.0
H665 H 0.04444 0.7852 0.90497 0.0
H666 H 0.98505 0.7855 0.90473 0.0
H667 H 0.99177 0.74825 0.86049 0.0
H668 H 0.84541 0.81785 0.88095 0.0
H669 H 0.83772 0.72478 0.76439 0.0
H670 H 0.96565 0.90653 0.8995 0.0
H671 H 0.97952 0.8631 0.92418 0.0
H672 H 0.92287 0.86574 0.93296 0.0
H673 H 0.96092 0.79229 0.75151 0.0
H674 H 0.91026 0.72596 0.74374 0.0
H675 H 0.96625 0.75025 0.78513 0.0
C676 C 0.88411 0.14917 0.7216 0.0
C677 C 0.92517 0.16697 0.69821 0.0
C678 C 0.85109 0.09639 0.72028 0.0
C679 C 0.85924 0.06078 0.69476 0.0
C680 C 0.8985 0.07839 0.66891 0.0
C681 C 0.9311 0.13132 0.67101 0.0
C682 C 0.80944 0.07889 0.74823 0.0
C683 C 0.90798 0.0415 0.64097 0.0
C684 C 0.81978 0.93753 0.73893 0.0
C685 C 0.77127 0.90401 0.71342 0.0
C686 C 0.84955 0.98818 0.73206 0.0
C687 C 0.83033 0.00575 0.69888 0.0
C688 C 0.78266 0.97149 0.67151 0.0
C689 C 0.75364 0.92085 0.67905 0.0
C690 C 0.90062 0.02349 0.7616 0.0
C691 C 0.76128 0.98893 0.63559 0.0
H692 H 0.87915 0.17642 0.74256 0.0
H693 H 0.96233 0.14473 0.65235 0.0
H694 H 0.77199 0.04859 0.72867 0.0
H695 H 0.81888 0.06193 0.77499 0.0
H696 H 0.80504 0.11097 0.76291 0.0
H697 H 0.93547 0.06087 0.61866 0.0
H698 H 0.92398 0.02388 0.66225 0.0
H699 H 0.87138 0.00987 0.62123 0.0
H700 H 0.83396 0.92464 0.76522 0.0
H701 H 0.71618 0.89519 0.6592 0.0
H702 H 0.89884 0.05479 0.78131 0.0
H703 H 0.93159 0.04169 0.74191 0.0
H704 H 0.91132 0.00299 0.78418 0.0
H705 H 0.75101 0.0167 0.65013 0.0
H706 H 0.72641 0.95637 0.61441 0.0
H707 H 0.79068 0.00905 0.615 0.0
loop_
_geom_bond_atom_site_label_1
_geom_bond_atom_site_label_2
_geom_bond_distance
_geom_bond_site_symmetry_2
_ccdc_geom_bond_type
Sc0 O3 2.025 . S
Sc0 O10 2.105 . S
Sc0 O13 2.105 . S
Sc0 O16 2.105 . S
Sc0 O19 2.105 . S
Sc1 O3 2.025 . S
Sc1 O11 2.105 . S
Sc1 O15 2.105 . S
Sc1 O17 2.105 1_545 S
Sc1 O21 2.105 . S
Sc2 O3 2.025 . S
Sc2 O12 2.105 . S
Sc2 O14 2.105 . S
Sc2 O18 2.105 . S
Sc2 O20 2.105 . S
O3 Sc0 2.025 . S
O3 Sc1 2.025 . S
O3 Sc2 2.025 . S
C4 O10 1.268 . S
C4 O20 1.268 . S
C5 O11 1.268 . S
C5 O19 1.268 . S
C6 O12 1.268 . S
C6 O21 1.268 . S
C7 O13 1.268 1_565 S
C7 O17 1.268 . S
C8 O14 1.268 . S
C8 O16 1.268 . S
C9 O15 1.268 . S
C9 O18 1.268 . S
O10 Sc0 2.105 . S
O10 C4 1.268 . S
O11 Sc1 2.105 . S
O11 C5 1.268 . S
O12 Sc2 2.105 . S
O12 C6 1.268 . S
O13 Sc0 2.105 . S
O13 C7 1.268 1_545 S
O14 Sc2 2.105 . S
O14 C8 1.268 . S
O15 Sc1 2.105 . S
O15 C9 1.268 . S
O16 Sc0 2.105 . S
O16 C8 1.268 . S
O17 Sc1 2.105 1_565 S
O17 C7 1.268 . S
O18 Sc2 2.105 . S
O18 C9 1.268 . S
O19 Sc0 2.105 . S
O19 C5 1.268 . S
O20 Sc2 2.105 . S
O20 C4 1.268 . S
O21 Sc1 2.105 . S
O21 C6 1.268 . S
Sc22 O25 2.025 . S
Sc22 O32 2.105 . S
Sc22 O35 2.105 . S
Sc22 O38 2.105 . S
Sc22 O41 2.105 . S
Sc23 O25 2.025 . S
Sc23 O33 2.105 . S
Sc23 O37 2.105 . S
Sc23 O39 2.105 . S
Sc23 O43 2.105 . S
Sc24 O25 2.025 . S
Sc24 O34 2.105 . S
Sc24 O36 2.105 . S
Sc24 O40 2.105 . S
Sc24 O42 2.105 . S
O25 Sc22 2.025 . S
O25 Sc23 2.025 . S
O25 Sc24 2.025 . S
C26 O32 1.268 . S
C26 O42 1.268 . S
C27 O33 1.268 . S
C27 O41 1.268 . S
C28 O34 1.268 . S
C28 O43 1.268 . S
C29 O35 1.268 . S
C29 O39 1.268 . S
C30 O36 1.268 . S
C30 O38 1.268 . S
C31 O37 1.268 . S
C31 O40 1.268 . S
O32 Sc22 2.105 . S
O32 C26 1.268 . S
O33 Sc23 2.105 . S
O33 C27 1.268 . S
O34 Sc24 2.105 . S
O34 C28 1.268 . S
O35 Sc22 2.105 . S
O35 C29 1.268 . S
O36 Sc24 2.105 . S
O36 C30 1.268 . S
O37 Sc23 2.105 . S
O37 C31 1.268 . S
O38 Sc22 2.105 . S
O38 C30 1.268 . S
O39 Sc23 2.105 . S
O39 C29 1.268 . S
O40 Sc24 2.105 . S
O40 C31 1.268 . S
O41 Sc22 2.105 . S
O41 C27 1.268 . S
O42 Sc24 2.105 . S
O42 C26 1.268 . S
O43 Sc23 2.105 . S
O43 C28 1.268 . S
Sc44 O47 2.025 . S
Sc44 O54 2.105 . S
Sc44 O57 2.105 . S
Sc44 O60 2.105 . S
Sc44 O63 2.105 . S
Sc45 O47 2.025 . S
Sc45 O55 2.105 . S
Sc45 O59 2.105 1_655 S
Sc45 O61 2.105 1_655 S
Sc45 O65 2.105 . S
Sc46 O47 2.025 . S
Sc46 O56 2.105 . S
Sc46 O58 2.105 . S
Sc46 O62 2.105 . S
Sc46 O64 2.105 . S
O47 Sc44 2.025 . S
O47 Sc45 2.025 . S
O47 Sc46 2.025 . S
C48 O54 1.268 . S
C48 O64 1.268 . S
C49 O55 1.268 . S
C49 O63 1.268 . S
C50 O56 1.268 . S
C50 O65 1.268 . S
C51 O57 1.268 1_455 S
C51 O61 1.268 . S
C52 O58 1.268 . S
C52 O60 1.268 . S
C53 O59 1.268 1_655 S
C53 O62 1.268 . S
O54 Sc44 2.105 . S
O54 C48 1.268 . S
O55 Sc45 2.105 . S
O55 C49 1.268 . S
O56 Sc46 2.105 . S
O56 C50 1.268 . S
O57 Sc44 2.105 . S
O57 C51 1.268 1_655 S
O58 Sc46 2.105 . S
O58 C52 1.268 . S
O59 Sc45 2.105 1_455 S
O59 C53 1.268 1_455 S
O60 Sc44 2.105 . S
O60 C52 1.268 . S
O61 Sc45 2.105 1_455 S
O61 C51 1.268 . S
O62 Sc46 2.105 . S
O62 C53 1.268 . S
O63 Sc44 2.105 . S
O63 C49 1.268 . S
O64 Sc46 2.105 . S
O64 C48 1.268 . S
O65 Sc45 2.105 . S
O65 C50 1.268 . S
Sc66 O69 2.025 . S
Sc66 O76 2.105 . S
Sc66 O79 2.105 . S
Sc66 O82 2.105 . S
Sc66 O85 2.105 . S
Sc67 O69 2.025 . S
Sc67 O77 2.105 1_455 S
Sc67 O81 2.105 . S
Sc67 O83 2.105 . S
Sc67 O87 2.105 . S
Sc68 O69 2.025 . S
Sc68 O78 2.105 . S
Sc68 O80 2.105 . S
Sc68 O84 2.105 . S
Sc68 O86 2.105 . S
O69 Sc66 2.025 . S
O69 Sc67 2.025 . S
O69 Sc68 2.025 . S
C70 O76 1.268 . S
C70 O86 1.268 . S
C71 O77 1.268 . S
C71 O85 1.268 1_655 S
C72 O78 1.268 . S
C72 O87 1.268 . S
C73 O79 1.268 . S
C73 O83 1.268 . S
C74 O80 1.268 . S
C74 O82 1.268 . S
C75 O81 1.268 . S
C75 O84 1.268 . S
O76 Sc66 2.105 . S
O76 C70 1.268 . S
O77 Sc67 2.105 1_655 S
O77 C71 1.268 . S
O78 Sc68 2.105 . S
O78 C72 1.268 . S
O79 Sc66 2.105 . S
O79 C73 1.268 . S
O80 Sc68 2.105 . S
O80 C74 1.268 . S
O81 Sc67 2.105 . S
O81 C75 1.268 . S
O82 Sc66 2.105 . S
O82 C74 1.268 . S
O83 Sc67 2.105 . S
O83 C73 1.268 . S
O84 Sc68 2.105 . S
O84 C75 1.268 . S
O85 Sc66 2.105 . S
O85 C71 1.268 1_455 S
O86 Sc68 2.105 . S
O86 C70 1.268 . S
O87 Sc67 2.105 . S
O87 C72 1.268 . S
Sc88 O91 2.025 . S
Sc88 O98 2.105 . S
Sc88 O101 2.105 . S
Sc88 O104 2.105 . S
Sc88 O107 2.105 . S
Sc89 O91 2.025 . S
Sc89 O99 2.105 1_565 S
Sc89 O103 2.105 . S
Sc89 O105 2.105 . S
Sc89 O109 2.105 1_565 S
Sc90 O91 2.025 . S
Sc90 O100 2.105 . S
Sc90 O102 2.105 . S
Sc90 O106 2.105 . S
Sc90 O108 2.105 . S
O91 Sc88 2.025 . S
O91 Sc89 2.025 . S
O91 Sc90 2.025 . S
C92 O98 1.268 . S
C92 O108 1.268 . S
C93 O99 1.268 . S
C93 O107 1.268 1_545 S
C94 O100 1.268 . S
C94 O109 1.268 1_565 S
C95 O101 1.268 . S
C95 O105 1.268 . S
C96 O102 1.268 . S
C96 O104 1.268 . S
C97 O103 1.268 . S
C97 O106 1.268 . S
O98 Sc88 2.105 . S
O98 C92 1.268 . S
O99 Sc89 2.105 1_545 S
O99 C93 1.268 . S
O100 Sc90 2.105 . S
O100 C94 1.268 . S
O101 Sc88 2.105 . S
O101 C95 1.268 . S
O102 Sc90 2.105 . S
O102 C96 1.268 . S
O103 Sc89 2.105 . S
O103 C97 1.268 . S
O104 Sc88 2.105 . S
O104 C96 1.268 . S
O105 Sc89 2.105 . S
O105 C95 1.268 . S
O106 Sc90 2.105 . S
O106 C97 1.268 . S
O107 Sc88 2.105 . S
O107 C93 1.268 1_565 S
O108 Sc90 2.105 . S
O108 C92 1.268 . S
O109 Sc89 2.105 1_545 S
O109 C94 1.268 1_545 S
Sc110 O113 2.025 . S
Sc110 O120 2.105 . S
Sc110 O123 2.105 . S
Sc110 O126 2.105 . S
Sc110 O129 2.105 . S
Sc111 O113 2.025 . S
Sc111 O121 2.105 . S
Sc111 O125 2.105 . S
Sc111 O127 2.105 . S
Sc111 O131 2.105 . S
Sc112 O113 2.025 . S
Sc112 O122 2.105 . S
Sc112 O124 2.105 . S
Sc112 O128 2.105 . S
Sc112 O130 2.105 . S
O113 Sc110 2.025 . S
O113 Sc111 2.025 . S
O113 Sc112 2.025 . S
C114 O120 1.268 . S
C114 O130 1.268 . S
C115 O121 1.268 . S
C115 O129 1.268 . S
C116 O122 1.268 . S
C116 O131 1.268 . S
C117 O123 1.268 . S
C117 O127 1.268 . S
C118 O124 1.268 . S
C118 O126 1.268 . S
C119 O125 1.268 . S
C119 O128 1.268 . S
O120 Sc110 2.105 . S
O120 C114 1.268 . S
O121 Sc111 2.105 . S
O121 C115 1.268 . S
O122 Sc112 2.105 . S
O122 C116 1.268 . S
O123 Sc110 2.105 . S
O123 C117 1.268 . S
O124 Sc112 2.105 . S
O124 C118 1.268 . S
O125 Sc111 2.105 . S
O125 C119 1.268 . S
O126 Sc110 2.105 . S
O126 C118 1.268 . S
O127 Sc111 2.105 . S
O127 C117 1.268 . S
O128 Sc112 2.105 . S
O128 C119 1.268 . S
O129 Sc110 2.105 . S
O129 C115 1.268 . S
O130 Sc112 2.105 . S
O130 C114 1.268 . S
O131 Sc111 2.105 . S
O131 C116 1.268 . S
C132 C133 1.391 . S
C132 C134 1.394 . S
C132 H148 0.931 . S
C133 C132 1.391 . S
C133 C137 1.376 1_565 S
C134 C132 1.394 . S
C134 C135 1.369 . S
C134 C138 1.531 . S
C135 C134 1.369 . S
C135 C136 1.410 1_565 S
C135 C143 1.503 1_566 S
C136 C135 1.410 1_545 S
C136 C137 1.392 . S
C136 C139 1.511 . S
C137 C133 1.376 1_545 S
C137 C136 1.392 . S
C137 H149 0.929 . S
C138 C134 1.531 . S
C138 H150 0.960 1_556 S
C138 H151 0.977 . S
C138 H152 0.960 . S
C139 C136 1.511 . S
C139 H153 0.961 . S
C139 H154 0.961 1_556 S
C139 H155 0.961 1_545 S
C140 C141 1.370 . S
C140 C142 1.363 . S
C140 H156 0.931 . S
C141 C140 1.370 . S
C141 C145 1.408 1_545 S
C142 C140 1.363 . S
C142 C143 1.370 . S
C142 C146 1.524 . S
C143 C135 1.503 1_544 S
C143 C142 1.370 . S
C143 C144 1.403 1_545 S
C144 C143 1.403 1_565 S
C144 C145 1.404 . S
C144 C147 1.539 . S
C145 C141 1.408 1_565 S
C145 C144 1.404 . S
C145 H157 0.930 . S
C146 C142 1.524 . S
C146 H158 0.956 . S
C146 H159 0.961 . S
C146 H160 0.961 . S
C147 C144 1.539 . S
C147 H161 0.958 . S
C147 H162 0.961 . S
C147 H163 0.960 . S
H148 C132 0.931 . S
H149 C137 0.929 . S
H150 C138 0.960 1_554 S
H151 C138 0.977 . S
H152 C138 0.960 . S
H153 C139 0.961 . S
H154 C139 0.961 1_554 S
H155 C139 0.961 1_565 S
H156 C140 0.931 . S
H157 C145 0.930 . S
H158 C146 0.956 . S
H159 C146 0.961 . S
H160 C146 0.961 . S
H161 C147 0.958 . S
H162 C147 0.961 . S
H163 C147 0.960 . S
C164 C165 1.391 . S
C164 C166 1.394 . S
C164 H180 0.931 . S
C165 C164 1.391 . S
C165 C169 1.376 . S
C166 C164 1.394 . S
C166 C167 1.369 . S
C166 C170 1.531 . S
C167 C166 1.369 . S
C167 C168 1.410 . S
C167 C175 1.503 . S
C168 C167 1.410 . S
C168 C169 1.392 . S
C168 C171 1.511 . S
C169 C165 1.376 . S
C169 C168 1.392 . S
C169 H181 0.929 . S
C170 C166 1.531 . S
C170 H182 0.960 . S
C170 H183 0.962 . S
C170 H184 0.960 . S
C171 C168 1.511 . S
C171 H185 0.961 . S
C171 H186 0.961 . S
C171 H187 0.961 . S
C172 C173 1.370 . S
C172 C174 1.363 . S
C172 H188 0.931 . S
C173 C172 1.370 . S
C173 C177 1.408 . S
C174 C172 1.363 . S
C174 C175 1.370 . S
C174 C178 1.524 . S
C175 C167 1.503 . S
C175 C174 1.370 . S
C175 C176 1.403 . S
C176 C175 1.403 . S
C176 C177 1.404 . S
C176 C179 1.539 . S
C177 C173 1.408 . S
C177 C176 1.404 . S
C177 H189 0.930 . S
C178 C174 1.524 . S
C178 H190 0.956 . S
C178 H191 0.961 . S
C178 H192 0.961 . S
C179 C176 1.539 . S
C179 H193 0.958 . S
C179 H194 0.961 . S
C179 H195 0.960 . S
H180 C164 0.931 . S
H181 C169 0.929 . S
H182 C170 0.960 . S
H183 C170 0.962 . S
H184 C170 0.960 . S
H185 C171 0.961 . S
H186 C171 0.961 . S
H187 C171 0.961 . S
H188 C172 0.931 . S
H189 C177 0.930 . S
H190 C178 0.956 . S
H191 C178 0.961 . S
H192 C178 0.961 . S
H193 C179 0.958 . S
H194 C179 0.961 . S
H195 C179 0.960 . S
C196 C197 1.391 . S
C196 C198 1.394 . S
C196 H212 0.931 . S
C197 C196 1.391 . S
C197 C201 1.376 . S
C198 C196 1.394 . S
C198 C199 1.369 . S
C198 C202 1.531 . S
C199 C198 1.369 . S
C199 C200 1.410 1_655 S
C199 C207 1.503 1_654 S
C200 C199 1.410 1_455 S
C200 C201 1.392 1_455 S
C200 C203 1.511 . S
C201 C197 1.376 . S
C201 C200 1.392 1_655 S
C201 H213 0.929 . S
C202 C198 1.531 . S
C202 H214 0.960 . S
C202 H215 0.962 . S
C202 H216 0.960 . S
C203 C200 1.511 . S
C203 H217 0.961 . S
C203 H218 0.961 . S
C203 H219 0.961 . S
C204 C205 1.370 1_655 S
C204 C206 1.363 . S
C204 H220 0.931 . S
C205 C204 1.370 1_455 S
C205 C209 1.408 . S
C206 C204 1.363 . S
C206 C207 1.370 1_655 S
C206 C210 1.524 . S
C207 C199 1.503 1_456 S
C207 C206 1.370 1_455 S
C207 C208 1.403 . S
C208 C207 1.403 . S
C208 C209 1.404 . S
C208 C211 1.539 1_556 S
C209 C205 1.408 . S
C209 C208 1.404 . S
C209 H221 0.930 . S
C210 C206 1.524 . S
C210 H222 0.956 . S
C210 H223 0.961 . S
C210 H224 0.961 . S
C211 C208 1.539 1_554 S
C211 H225 0.958 . S
C211 H226 0.961 . S
C211 H227 0.960 . S
H212 C196 0.931 . S
H213 C201 0.929 . S
H214 C202 0.960 . S
H215 C202 0.962 . S
H216 C202 0.960 . S
H217 C203 0.961 . S
H218 C203 0.961 . S
H219 C203 0.961 . S
H220 C204 0.931 . S
H221 C209 0.930 . S
H222 C210 0.956 . S
H223 C210 0.961 . S
H224 C210 0.961 . S
H225 C211 0.958 . S
H226 C211 0.961 . S
H227 C211 0.960 . S
C228 C229 1.391 . S
C228 C230 1.394 . S
C228 H244 0.931 . S
C229 C228 1.391 . S
C229 C233 1.376 1_545 S
C230 C228 1.394 . S
C230 C231 1.369 . S
C230 C234 1.531 . S
C231 C230 1.369 . S
C231 C232 1.410 1_545 S
C231 C239 1.503 1_545 S
C232 C231 1.410 1_565 S
C232 C233 1.392 . S
C232 C235 1.511 . S
C233 C229 1.376 1_565 S
C233 C232 1.392 . S
C233 H245 0.929 . S
C234 C230 1.531 . S
C234 H246 0.960 . S
C234 H247 0.962 . S
C234 H248 0.960 . S
C235 C232 1.511 . S
C235 H249 0.961 . S
C235 H250 0.961 . S
C235 H251 0.961 . S
C236 C237 1.370 . S
C236 C238 1.363 . S
C236 H252 0.931 . S
C237 C236 1.370 . S
C237 C241 1.408 1_565 S
C238 C236 1.363 . S
C238 C239 1.370 . S
C238 C242 1.524 . S
C239 C231 1.503 1_565 S
C239 C238 1.370 . S
C239 C240 1.403 1_565 S
C240 C239 1.403 1_545 S
C240 C241 1.404 . S
C240 C243 1.539 . S
C241 C237 1.408 1_545 S
C241 C240 1.404 . S
C241 H253 0.930 . S
C242 C238 1.524 . S
C242 H254 0.956 . S
C242 H255 0.961 . S
C242 H256 0.961 . S
C243 C240 1.539 . S
C243 H257 0.958 . S
C243 H258 0.961 . S
C243 H259 0.960 . S
H244 C228 0.931 . S
H245 C233 0.929 . S
H246 C234 0.960 . S
H247 C234 0.962 . S
H248 C234 0.960 . S
H249 C235 0.961 . S
H250 C235 0.961 . S
H251 C235 0.961 . S
H252 C236 0.931 . S
H253 C241 0.930 . S
H254 C242 0.956 . S
H255 C242 0.961 . S
H256 C242 0.961 . S
H257 C243 0.958 . S
H258 C243 0.961 . S
H259 C243 0.960 . S
C260 C261 1.391 . S
C260 C262 1.394 . S
C260 H276 0.931 . S
C261 C260 1.391 . S
C261 C265 1.376 . S
C262 C260 1.394 . S
C262 C263 1.369 . S
C262 C266 1.531 . S
C263 C262 1.369 . S
C263 C264 1.410 . S
C263 C271 1.503 1_556 S
C264 C263 1.410 . S
C264 C265 1.392 . S
C264 C267 1.511 . S
C265 C261 1.376 . S
C265 C264 1.392 . S
C265 H277 0.929 . S
C266 C262 1.531 . S
C266 H278 0.960 . S
C266 H279 0.962 . S
C266 H280 0.960 . S
C267 C264 1.511 . S
C267 H281 0.961 . S
C267 H282 0.961 . S
C267 H283 0.961 . S
C268 C269 1.370 . S
C268 C270 1.363 . S
C268 H284 0.931 . S
C269 C268 1.370 . S
C269 C273 1.408 . S
C270 C268 1.363 . S
C270 C271 1.370 . S
C270 C274 1.524 1_554 S
C271 C263 1.503 1_554 S
C271 C270 1.370 . S
C271 C272 1.403 . S
C272 C271 1.403 . S
C272 C273 1.404 . S
C272 C275 1.539 . S
C273 C269 1.408 . S
C273 C272 1.404 . S
C273 H285 0.930 . S
C274 C270 1.524 1_556 S
C274 H286 0.956 . S
C274 H287 0.961 . S
C274 H288 0.948 1_556 S
C275 C272 1.539 . S
C275 H289 0.958 . S
C275 H290 0.961 . S
C275 H291 0.960 . S
H276 C260 0.931 . S
H277 C265 0.929 . S
H278 C266 0.960 . S
H279 C266 0.962 . S
H280 C266 0.960 . S
H281 C267 0.961 . S
H282 C267 0.961 . S
H283 C267 0.961 . S
H284 C268 0.931 . S
H285 C273 0.930 . S
H286 C274 0.956 . S
H287 C274 0.961 . S
H288 C274 0.948 1_554 S
H289 C275 0.958 . S
H290 C275 0.961 . S
H291 C275 0.960 . S
C292 C293 1.391 . S
C292 C294 1.394 . S
C292 H308 0.931 . S
C293 C292 1.391 . S
C293 C297 1.376 1_655 S
C294 C292 1.394 . S
C294 C295 1.369 1_655 S
C294 C298 1.531 . S
C295 C294 1.369 1_455 S
C295 C296 1.410 . S
C295 C303 1.503 . S
C296 C295 1.410 . S
C296 C297 1.392 . S
C296 C299 1.511 . S
C297 C293 1.376 1_455 S
C297 C296 1.392 . S
C297 H309 0.929 . S
C298 C294 1.531 . S
C298 H310 0.960 . S
C298 H311 0.962 . S
C298 H312 0.960 . S
C299 C296 1.511 . S
C299 H313 0.961 . S
C299 H314 0.961 . S
C299 H315 0.961 . S
C300 C301 1.370 . S
C300 C302 1.363 . S
C300 H316 0.932 1_455 S
C301 C300 1.370 . S
C301 C305 1.408 . S
C302 C300 1.363 . S
C302 C303 1.370 . S
C302 C306 1.524 1_455 S
C303 C295 1.503 . S
C303 C302 1.370 . S
C303 C304 1.403 . S
C304 C303 1.403 . S
C304 C305 1.404 . S
C304 C307 1.539 . S
C305 C301 1.408 . S
C305 C304 1.404 . S
C305 H317 0.930 . S
C306 C302 1.524 1_655 S
C306 H318 0.956 . S
C306 H319 0.961 1_655 S
C306 H320 0.961 . S
C307 C304 1.539 . S
C307 H321 0.958 . S
C307 H322 0.961 . S
C307 H323 0.960 . S
H308 C292 0.931 . S
H309 C297 0.929 . S
H310 C298 0.960 . S
H311 C298 0.962 . S
H312 C298 0.960 . S
H313 C299 0.961 . S
H314 C299 0.961 . S
H315 C299 0.961 . S
H316 C300 0.932 1_655 S
H317 C305 0.930 . S
H318 C306 0.956 . S
H319 C306 0.961 1_455 S
H320 C306 0.961 . S
H321 C307 0.958 . S
H322 C307 0.961 . S
H323 C307 0.960 . S
C324 C325 1.391 . S
C324 C326 1.394 . S
C324 H340 0.931 . S
C325 C324 1.391 . S
C325 C329 1.376 . S
C326 C324 1.394 . S
C326 C327 1.369 . S
C326 C330 1.531 . S
C327 C326 1.369 . S
C327 C328 1.410 . S
C327 C335 1.503 . S
C328 C327 1.410 . S
C328 C329 1.392 . S
C328 C331 1.511 . S
C329 C325 1.376 . S
C329 C328 1.392 . S
C329 H341 0.929 . S
C330 C326 1.531 . S
C330 H342 0.960 . S
C330 H343 0.962 . S
C330 H344 0.960 . S
C331 C328 1.511 . S
C331 H345 0.961 . S
C331 H346 0.961 . S
C331 H347 0.961 . S
C332 C333 1.370 . S
C332 C334 1.363 . S
C332 H348 0.931 . S
C333 C332 1.370 . S
C333 C337 1.408 . S
C334 C332 1.363 . S
C334 C335 1.370 . S
C334 C338 1.524 . S
C335 C327 1.503 . S
C335 C334 1.370 . S
C335 C336 1.403 . S
C336 C335 1.403 . S
C336 C337 1.404 . S
C336 C339 1.539 . S
C337 C333 1.408 . S
C337 C336 1.404 . S
C337 H349 0.930 . S
C338 C334 1.524 . S
C338 H350 0.956 . S
C338 H351 0.961 . S
C338 H352 0.961 . S
C339 C336 1.539 . S
C339 H353 0.958 . S
C339 H354 0.961 . S
C339 H355 0.960 . S
H340 C324 0.931 . S
H341 C329 0.929 . S
H342 C330 0.960 . S
H343 C330 0.962 . S
H344 C330 0.960 . S
H345 C331 0.961 . S
H346 C331 0.961 . S
H347 C331 0.961 . S
H348 C332 0.931 . S
H349 C337 0.930 . S
H350 C338 0.956 . S
H351 C338 0.961 . S
H352 C338 0.961 . S
H353 C339 0.958 . S
H354 C339 0.961 . S
H355 C339 0.960 . S
C356 C357 1.391 . S
C356 C358 1.394 . S
C356 H372 0.931 . S
C357 C356 1.391 . S
C357 C361 1.376 . S
C358 C356 1.394 . S
C358 C359 1.369 . S
C358 C362 1.531 . S
C359 C358 1.369 . S
C359 C360 1.410 . S
C359 C367 1.503 . S
C360 C359 1.410 . S
C360 C361 1.392 . S
C360 C363 1.511 . S
C361 C357 1.376 . S
C361 C360 1.392 . S
C361 H373 0.929 . S
C362 C358 1.531 . S
C362 H374 0.960 . S
C362 H375 0.962 . S
C362 H376 0.960 . S
C363 C360 1.511 . S
C363 H377 0.961 . S
C363 H378 0.961 . S
C363 H379 0.961 . S
C364 C365 1.370 . S
C364 C366 1.363 . S
C364 H380 0.931 . S
C365 C364 1.370 . S
C365 C369 1.408 . S
C366 C364 1.363 . S
C366 C367 1.370 . S
C366 C370 1.524 . S
C367 C359 1.503 . S
C367 C366 1.370 . S
C367 C368 1.403 . S
C368 C367 1.403 . S
C368 C369 1.404 . S
C368 C371 1.539 . S
C369 C365 1.408 . S
C369 C368 1.404 . S
C369 H381 0.930 . S
C370 C366 1.524 . S
C370 H382 0.956 . S
C370 H383 0.961 . S
C370 H384 0.961 . S
C371 C368 1.539 . S
C371 H385 0.958 . S
C371 H386 0.961 . S
C371 H387 0.960 . S
H372 C356 0.931 . S
H373 C361 0.929 . S
H374 C362 0.960 . S
H375 C362 0.962 . S
H376 C362 0.960 . S
H377 C363 0.961 . S
H378 C363 0.961 . S
H379 C363 0.961 . S
H380 C364 0.931 . S
H381 C369 0.930 . S
H382 C370 0.956 . S
H383 C370 0.961 . S
H384 C370 0.961 . S
H385 C371 0.958 . S
H386 C371 0.961 . S
H387 C371 0.960 . S
C388 C389 1.391 . S
C388 C390 1.394 . S
C388 H404 0.931 . S
C389 C388 1.391 . S
C389 C393 1.376 . S
C390 C388 1.394 . S
C390 C391 1.369 . S
C390 C394 1.531 . S
C391 C390 1.369 . S
C391 C392 1.410 . S
C391 C399 1.503 . S
C392 C391 1.410 . S
C392 C393 1.392 . S
C392 C395 1.511 . S
C393 C389 1.376 . S
C393 C392 1.392 . S
C393 H405 0.929 . S
C394 C390 1.531 . S
C394 H406 0.960 . S
C394 H407 0.962 . S
C394 H408 0.960 . S
C395 C392 1.511 . S
C395 H409 0.961 . S
C395 H410 0.961 . S
C395 H411 0.961 . S
C396 C397 1.370 . S
C396 C398 1.363 . S
C396 H412 0.931 . S
C397 C396 1.370 . S
C397 C401 1.408 . S
C398 C396 1.363 . S
C398 C399 1.370 . S
C398 C402 1.524 . S
C399 C391 1.503 . S
C399 C398 1.370 . S
C399 C400 1.403 . S
C400 C399 1.403 . S
C400 C401 1.404 . S
C400 C403 1.539 . S
C401 C397 1.408 . S
C401 C400 1.404 . S
C401 H413 0.930 . S
C402 C398 1.524 . S
C402 H414 0.956 . S
C402 H415 0.961 . S
C402 H416 0.961 . S
C403 C400 1.539 . S
C403 H417 0.958 . S
C403 H418 0.961 . S
C403 H419 0.960 . S
H404 C388 0.931 . S
H405 C393 0.929 . S
H406 C394 0.960 . S
H407 C394 0.962 . S
H408 C394 0.960 . S
H409 C395 0.961 . S
H410 C395 0.961 . S
H411 C395 0.961 . S
H412 C396 0.931 . S
H413 C401 0.930 . S
H414 C402 0.956 . S
H415 C402 0.961 . S
H416 C402 0.961 . S
H417 C403 0.958 . S
H418 C403 0.961 . S
H419 C403 0.960 . S
C420 C421 1.391 . S
C420 C422 1.394 . S
C420 H436 0.931 . S
C421 C420 1.391 . S
C421 C425 1.376 . S
C422 C420 1.394 . S
C422 C423 1.369 . S
C422 C426 1.531 . S
C423 C422 1.369 . S
C423 C424 1.410 . S
C423 C431 1.503 . S
C424 C423 1.410 . S
C424 C425 1.392 . S
C424 C427 1.511 . S
C425 C421 1.376 . S
C425 C424 1.392 . S
C425 H437 0.929 . S
C426 C422 1.531 . S
C426 H438 0.960 . S
C426 H439 0.962 . S
C426 H440 0.960 . S
C427 C424 1.511 . S
C427 H441 0.961 . S
C427 H442 0.961 . S
C427 H443 0.961 . S
C428 C429 1.370 . S
C428 C430 1.363 . S
C428 H444 0.931 . S
C429 C428 1.370 . S
C429 C433 1.408 . S
C430 C428 1.363 . S
C430 C431 1.370 . S
C430 C434 1.524 . S
C431 C423 1.503 . S
C431 C430 1.370 . S
C431 C432 1.403 . S
C432 C431 1.403 . S
C432 C433 1.404 . S
C432 C435 1.539 . S
C433 C429 1.408 . S
C433 C432 1.404 . S
C433 H445 0.930 . S
C434 C430 1.524 . S
C434 H446 0.956 . S
C434 H447 0.961 . S
C434 H448 0.961 . S
C435 C432 1.539 . S
C435 H449 0.958 . S
C435 H450 0.961 . S
C435 H451 0.960 . S
H436 C420 0.931 . S
H437 C425 0.929 . S
H438 C426 0.960 . S
H439 C426 0.962 . S
H440 C426 0.960 . S
H441 C427 0.961 . S
H442 C427 0.961 . S
H443 C427 0.961 . S
H444 C428 0.931 . S
H445 C433 0.930 . S
H446 C434 0.956 . S
H447 C434 0.961 . S
H448 C434 0.961 . S
H449 C435 0.958 . S
H450 C435 0.961 . S
H451 C435 0.960 . S
C452 C453 1.391 . S
C452 C454 1.394 . S
C452 H468 0.931 . S
C453 C452 1.391 . S
C453 C457 1.376 . S
C454 C452 1.394 . S
C454 C455 1.369 . S
C454 C458 1.531 . S
C455 C454 1.369 . S
C455 C456 1.410 . S
C455 C463 1.503 . S
C456 C455 1.410 . S
C456 C457 1.392 . S
C456 C459 1.511 . S
C457 C453 1.376 . S
C457 C456 1.392 . S
C457 H469 0.929 . S
C458 C454 1.531 . S
C458 H470 0.960 . S
C458 H471 0.962 . S
C458 H472 0.960 . S
C459 C456 1.511 . S
C459 H473 0.961 . S
C459 H474 0.961 . S
C459 H475 0.961 . S
C460 C461 1.370 . S
C460 C462 1.363 . S
C460 H476 0.931 . S
C461 C460 1.370 . S
C461 C465 1.408 . S
C462 C460 1.363 . S
C462 C463 1.370 . S
C462 C466 1.524 . S
C463 C455 1.503 . S
C463 C462 1.370 . S
C463 C464 1.403 . S
C464 C463 1.403 . S
C464 C465 1.404 . S
C464 C467 1.539 . S
C465 C461 1.408 . S
C465 C464 1.404 . S
C465 H477 0.930 . S
C466 C462 1.524 . S
C466 H478 0.956 . S
C466 H479 0.961 . S
C466 H480 0.961 . S
C467 C464 1.539 . S
C467 H481 0.958 . S
C467 H482 0.961 . S
C467 H483 0.960 . S
H468 C452 0.931 . S
H469 C457 0.929 . S
H470 C458 0.960 . S
H471 C458 0.962 . S
H472 C458 0.960 . S
H473 C459 0.961 . S
H474 C459 0.961 . S
H475 C459 0.961 . S
H476 C460 0.931 . S
H477 C465 0.930 . S
H478 C466 0.956 . S
H479 C466 0.961 . S
H480 C466 0.961 . S
H481 C467 0.958 . S
H482 C467 0.961 . S
H483 C467 0.960 . S
C484 C485 1.391 . S
C484 C486 1.394 . S
C484 H500 0.931 . S
C485 C484 1.391 . S
C485 C489 1.376 . S
C486 C484 1.394 . S
C486 C487 1.369 . S
C486 C490 1.531 . S
C487 C486 1.369 . S
C487 C488 1.410 . S
C487 C495 1.503 . S
C488 C487 1.410 . S
C488 C489 1.392 . S
C488 C491 1.511 . S
C489 C485 1.376 . S
C489 C488 1.392 . S
C489 H501 0.929 . S
C490 C486 1.531 . S
C490 H502 0.960 . S
C490 H503 0.962 . S
C490 H504 0.960 . S
C491 C488 1.511 . S
C491 H505 0.961 . S
C491 H506 0.961 . S
C491 H507 0.961 . S
C492 C493 1.370 . S
C492 C494 1.363 . S
C492 H508 0.931 . S
C493 C492 1.370 . S
C493 C497 1.408 . S
C494 C492 1.363 . S
C494 C495 1.370 . S
C494 C498 1.524 . S
C495 C487 1.503 . S
C495 C494 1.370 . S
C495 C496 1.403 . S
C496 C495 1.403 . S
C496 C497 1.404 . S
C496 C499 1.539 . S
C497 C493 1.408 . S
C497 C496 1.404 . S
C497 H509 0.930 . S
C498 C494 1.524 . S
C498 H510 0.956 . S
C498 H511 0.961 . S
C498 H512 0.961 . S
C499 C496 1.539 . S
C499 H513 0.958 . S
C499 H514 0.961 . S
C499 H515 0.960 . S
H500 C484 0.931 . S
H501 C489 0.929 . S
H502 C490 0.960 . S
H503 C490 0.962 . S
H504 C490 0.960 . S
H505 C491 0.961 . S
H506 C491 0.961 . S
H507 C491 0.961 . S
H508 C492 0.931 . S
H509 C497 0.930 . S
H510 C498 0.956 . S
H511 C498 0.961 . S
H512 C498 0.961 . S
H513 C499 0.958 . S
H514 C499 0.961 . S
H515 C499 0.960 . S
C516 C517 1.391 . S
C516 C518 1.394 . S
C516 H532 0.931 . S
C517 C516 1.391 . S
C517 C521 1.376 . S
C518 C516 1.394 . S
C518 C519 1.369 . S
C518 C522 1.531 . S
C519 C518 1.369 . S
C519 C520 1.410 . S
C519 C527 1.503 . S
C520 C519 1.410 . S
C520 C521 1.392 . S
C520 C523 1.511 . S
C521 C517 1.376 . S
C521 C520 1.392 . S
C521 H533 0.929 . S
C522 C518 1.531 . S
C522 H534 0.960 . S
C522 H535 0.962 . S
C522 H536 0.960 . S
C523 C520 1.511 . S
C523 H537 0.961 . S
C523 H538 0.961 . S
C523 H539 0.961 . S
C524 C525 1.370 . S
C524 C526 1.363 . S
C524 H540 0.931 . S
C525 C524 1.370 . S
C525 C529 1.408 . S
C526 C524 1.363 . S
C526 C527 1.370 . S
C526 C530 1.524 . S
C527 C519 1.503 . S
C527 C526 1.370 . S
C527 C528 1.403 . S
C528 C527 1.403 . S
C528 C529 1.404 . S
C528 C531 1.539 . S
C529 C525 1.408 . S
C529 C528 1.404 . S
C529 H541 0.930 . S
C530 C526 1.524 . S
C530 H542 0.956 . S
C530 H543 0.961 . S
C530 H544 0.961 . S
C531 C528 1.539 . S
C531 H545 0.958 . S
C531 H546 0.961 . S
C531 H547 0.960 . S
H532 C516 0.931 . S
H533 C521 0.929 . S
H534 C522 0.960 . S
H535 C522 0.962 . S
H536 C522 0.960 . S
H537 C523 0.961 . S
H538 C523 0.961 . S
H539 C523 0.961 . S
H540 C524 0.931 . S
H541 C529 0.930 . S
H542 C530 0.956 . S
H543 C530 0.961 . S
H544 C530 0.961 . S
H545 C531 0.958 . S
H546 C531 0.961 . S
H547 C531 0.960 . S
C548 C549 1.391 . S
C548 C550 1.394 . S
C548 H564 0.931 . S
C549 C548 1.391 . S
C549 C553 1.376 . S
C550 C548 1.394 . S
C550 C551 1.369 1_655 S
C550 C554 1.531 . S
C551 C550 1.369 1_455 S
C551 C552 1.410 1_455 S
C551 C559 1.503 . S
C552 C551 1.410 1_655 S
C552 C553 1.392 . S
C552 C555 1.511 1_655 S
C553 C549 1.376 . S
C553 C552 1.392 . S
C553 H565 0.929 . S
C554 C550 1.531 . S
C554 H566 0.960 1_655 S
C554 H567 0.962 . S
C554 H568 0.960 . S
C555 C552 1.511 1_455 S
C555 H569 0.961 . S
C555 H570 0.961 . S
C555 H571 0.961 . S
C556 C557 1.370 . S
C556 C558 1.363 . S
C556 H572 0.931 . S
C557 C556 1.370 . S
C557 C561 1.408 . S
C558 C556 1.363 . S
C558 C559 1.370 . S
C558 C562 1.524 . S
C559 C551 1.503 . S
C559 C558 1.370 . S
C559 C560 1.403 . S
C560 C559 1.403 . S
C560 C561 1.404 . S
C560 C563 1.539 . S
C561 C557 1.408 . S
C561 C560 1.404 . S
C561 H573 0.930 . S
C562 C558 1.524 . S
C562 H574 0.956 . S
C562 H575 0.961 . S
C562 H576 0.961 . S
C563 C560 1.539 . S
C563 H577 0.958 . S
C563 H578 0.961 . S
C563 H579 0.960 . S
H564 C548 0.931 . S
H565 C553 0.929 . S
H566 C554 0.960 1_455 S
H567 C554 0.962 . S
H568 C554 0.960 . S
H569 C555 0.961 . S
H570 C555 0.961 . S
H571 C555 0.961 . S
H572 C556 0.931 . S
H573 C561 0.930 . S
H574 C562 0.956 . S
H575 C562 0.961 . S
H576 C562 0.961 . S
H577 C563 0.958 . S
H578 C563 0.961 . S
H579 C563 0.960 . S
C580 C581 1.391 . S
C580 C582 1.394 . S
C580 H596 0.931 . S
C581 C580 1.391 . S
C581 C585 1.376 . S
C582 C580 1.394 . S
C582 C583 1.369 1_545 S
C582 C586 1.531 1_545 S
C583 C582 1.369 1_565 S
C583 C584 1.410 1_565 S
C583 C591 1.503 . S
C584 C583 1.410 1_545 S
C584 C585 1.392 . S
C584 C587 1.511 . S
C585 C581 1.376 . S
C585 C584 1.392 . S
C585 H597 0.929 . S
C586 C582 1.531 1_565 S
C586 H598 0.960 . S
C586 H599 0.962 . S
C586 H600 0.960 . S
C587 C584 1.511 . S
C587 H601 0.961 . S
C587 H602 0.961 1_545 S
C587 H603 0.961 . S
C588 C589 1.370 . S
C588 C590 1.363 . S
C588 H604 0.931 . S
C589 C588 1.370 . S
C589 C593 1.408 . S
C590 C588 1.363 . S
C590 C591 1.370 . S
C590 C594 1.524 . S
C591 C583 1.503 . S
C591 C590 1.370 . S
C591 C592 1.403 . S
C592 C591 1.403 . S
C592 C593 1.404 . S
C592 C595 1.539 . S
C593 C589 1.408 . S
C593 C592 1.404 . S
C593 H605 0.930 . S
C594 C590 1.524 . S
C594 H606 0.956 . S
C594 H607 0.961 . S
C594 H608 0.961 . S
C595 C592 1.539 . S
C595 H609 0.958 . S
C595 H610 0.961 . S
C595 H611 0.960 . S
H596 C580 0.931 . S
H597 C585 0.929 . S
H598 C586 0.960 . S
H599 C586 0.962 . S
H600 C586 0.960 . S
H601 C587 0.961 . S
H602 C587 0.961 1_565 S
H603 C587 0.961 . S
H604 C588 0.931 . S
H605 C593 0.930 . S
H606 C594 0.956 . S
H607 C594 0.961 . S
H608 C594 0.961 . S
H609 C595 0.958 . S
H610 C595 0.961 . S
H611 C595 0.960 . S
C612 C613 1.391 . S
C612 C614 1.394 . S
C612 H628 0.931 . S
C613 C612 1.391 . S
C613 C617 1.376 . S
C614 C612 1.394 . S
C614 C615 1.369 . S
C614 C618 1.531 . S
C615 C614 1.369 . S
C615 C616 1.410 . S
C615 C623 1.503 . S
C616 C615 1.410 . S
C616 C617 1.392 . S
C616 C619 1.511 . S
C617 C613 1.376 . S
C617 C616 1.392 . S
C617 H629 0.929 . S
C618 C614 1.531 . S
C618 H630 0.960 . S
C618 H631 0.962 . S
C618 H632 0.960 . S
C619 C616 1.511 . S
C619 H633 0.961 . S
C619 H634 0.961 . S
C619 H635 0.961 . S
C620 C621 1.370 . S
C620 C622 1.363 . S
C620 H636 0.931 . S
C621 C620 1.370 . S
C621 C625 1.408 . S
C622 C620 1.363 . S
C622 C623 1.370 . S
C622 C626 1.524 . S
C623 C615 1.503 . S
C623 C622 1.370 . S
C623 C624 1.403 . S
C624 C623 1.403 . S
C624 C625 1.404 . S
C624 C627 1.539 . S
C625 C621 1.408 . S
C625 C624 1.404 . S
C625 H637 0.930 . S
C626 C622 1.524 . S
C626 H638 0.956 . S
C626 H639 0.961 . S
C626 H640 0.961 . S
C627 C624 1.539 . S
C627 H641 0.958 . S
C627 H642 0.961 . S
C627 H643 0.960 . S
H628 C612 0.931 . S
H629 C617 0.929 . S
H630 C618 0.960 . S
H631 C618 0.962 . S
H632 C618 0.960 . S
H633 C619 0.961 . S
H634 C619 0.961 . S
H635 C619 0.961 . S
H636 C620 0.931 . S
H637 C625 0.930 . S
H638 C626 0.956 . S
H639 C626 0.961 . S
H640 C626 0.961 . S
H641 C627 0.958 . S
H642 C627 0.961 . S
H643 C627 0.960 . S
C644 C645 1.391 . S
C644 C646 1.394 . S
C644 H660 0.931 . S
C645 C644 1.391 . S
C645 C649 1.376 . S
C646 C644 1.394 . S
C646 C647 1.369 1_455 S
C646 C650 1.531 . S
C647 C646 1.369 1_655 S
C647 C648 1.410 1_655 S
C647 C655 1.503 . S
C648 C647 1.410 1_455 S
C648 C649 1.392 . S
C648 C651 1.511 1_455 S
C649 C645 1.376 . S
C649 C648 1.392 . S
C649 H661 0.929 . S
C650 C646 1.531 . S
C650 H662 0.960 1_455 S
C650 H663 0.962 . S
C650 H664 0.960 . S
C651 C648 1.511 1_655 S
C651 H665 0.961 . S
C651 H666 0.961 . S
C651 H667 0.961 . S
C652 C653 1.370 . S
C652 C654 1.363 . S
C652 H668 0.931 . S
C653 C652 1.370 . S
C653 C657 1.408 . S
C654 C652 1.363 . S
C654 C655 1.370 . S
C654 C658 1.524 . S
C655 C647 1.503 . S
C655 C654 1.370 . S
C655 C656 1.403 . S
C656 C655 1.403 . S
C656 C657 1.404 . S
C656 C659 1.539 . S
C657 C653 1.408 . S
C657 C656 1.404 . S
C657 H669 0.930 . S
C658 C654 1.524 . S
C658 H670 0.956 . S
C658 H671 0.961 . S
C658 H672 0.961 . S
C659 C656 1.539 . S
C659 H673 0.958 . S
C659 H674 0.961 . S
C659 H675 0.960 . S
H660 C644 0.931 . S
H661 C649 0.929 . S
H662 C650 0.960 1_655 S
H663 C650 0.962 . S
H664 C650 0.960 . S
H665 C651 0.961 . S
H666 C651 0.961 . S
H667 C651 0.961 . S
H668 C652 0.931 . S
H669 C657 0.930 . S
H670 C658 0.956 . S
H671 C658 0.961 . S
H672 C658 0.961 . S
H673 C659 0.958 . S
H674 C659 0.961 . S
H675 C659 0.960 . S
C676 C677 1.391 . S
C676 C678 1.394 . S
C676 H692 0.931 . S
C677 C676 1.391 . S
C677 C681 1.376 . S
C678 C676 1.394 . S
C678 C679 1.369 . S
C678 C682 1.531 . S
C679 C678 1.369 . S
C679 C680 1.410 . S
C679 C687 1.503 . S
C680 C679 1.410 . S
C680 C681 1.392 . S
C680 C683 1.511 . S
C681 C677 1.376 . S
C681 C680 1.392 . S
C681 H693 0.929 . S
C682 C678 1.531 . S
C682 H694 0.960 . S
C682 H695 0.962 . S
C682 H696 0.960 . S
C683 C680 1.511 . S
C683 H697 0.961 . S
C683 H698 0.961 . S
C683 H699 0.961 . S
C684 C685 1.370 . S
C684 C686 1.363 . S
C684 H700 0.931 . S
C685 C684 1.370 . S
C685 C689 1.408 . S
C686 C684 1.363 . S
C686 C687 1.370 1_565 S
C686 C690 1.524 1_565 S
C687 C679 1.503 . S
C687 C686 1.370 1_545 S
C687 C688 1.403 1_545 S
C688 C687 1.403 1_565 S
C688 C689 1.404 . S
C688 C691 1.539 1_565 S
C689 C685 1.408 . S
C689 C688 1.404 . S
C689 H701 0.930 . S
C690 C686 1.524 1_545 S
C690 H702 0.956 . S
C690 H703 0.961 . S
C690 H704 0.961 1_545 S
C691 C688 1.539 1_545 S
C691 H705 0.958 . S
C691 H706 0.961 1_545 S
C691 H707 0.960 . S
H692 C676 0.931 . S
H693 C681 0.929 . S
H694 C682 0.960 . S
H695 C682 0.962 . S
H696 C682 0.960 . S
H697 C683 0.961 . S
H698 C683 0.961 . S
H699 C683 0.961 . S
H700 C684 0.931 . S
H701 C689 0.930 . S
H702 C690 0.956 . S
H703 C690 0.961 . S
H704 C690 0.961 1_565 S
H705 C691 0.958 . S
H706 C691 0.961 1_565 S
H707 C691 0.960 . S
C133 C94 0.576 . S
C141 C5 0.658 . S
C165 C115 1.361 . S
C173 C28 1.358 . S
C197 C49 2.104 . S
C205 C72 2.180 . S
C229 C9 2.179 . S
C237 C95 2.102 . S
C261 C119 1.322 . S
C269 C29 1.380 . S
C293 C53 0.704 . S
C301 C73 0.618 . S
C325 C6 1.431 . S
C333 C48 1.288 . S
C357 C27 1.258 . S
C365 C4 1.191 . S
C389 C50 1.260 . S
C397 C26 1.243 . S
C421 C75 1.424 . S
C429 C96 1.317 . S
C453 C97 1.282 . S
C461 C118 1.213 . S
C485 C74 1.232 . S
C493 C117 1.247 . S
C517 C8 1.258 . S
C525 C51 1.321 . S
C549 C30 1.212 . S
C557 C7 1.287 . S
C581 C52 1.232 . S
C589 C31 1.337 . S
C613 C70 1.241 . S
C621 C93 1.320 . S
C645 C92 1.230 . S
C653 C116 1.335 . S
C677 C71 1.274 . S
C685 C114 1.260 . S
