# Generated by pormake.
# Topology bcs, (6)-cn, num edge types: 1
# Building blocks:
#     Node 0, Type 0, BuildingBlock: VOLQOD_clean_sbu_1, # of connection points: 6
#     Node 1, Type 0, BuildingBlock: VOLQOD_clean_sbu_1, # of connection points: 6
#     Node 2, Type 0, BuildingBlock: VOLQOD_clean_sbu_1, # of connection points: 6
#     Node 3, Type 0, BuildingBlock: VOLQOD_clean_sbu_1, # of connection points: 6
#     Node 4, Type 0, BuildingBlock: VOLQOD_clean_sbu_1, # of connection points: 6
#     Node 5, Type 0, BuildingBlock: VOLQOD_clean_sbu_1, # of connection points: 6
#     Node 6, Type 0, BuildingBlock: VOLQOD_clean_sbu_1, # of connection points: 6
#     Node 7, Type 0, BuildingBlock: VOLQOD_clean_sbu_1, # of connection points: 6
#     Node 8, Type 0, BuildingBlock: VOLQOD_clean_sbu_1, # of connection points: 6
#     Node 9, Type 0, BuildingBlock: VOLQOD_clean_sbu_1, # of connection points: 6
#     Node 10, Type 0, BuildingBlock: VOLQOD_clean_sbu_1, # of connection points: 6
#     Node 11, Type 0, BuildingBlock: VOLQOD_clean_sbu_1, # of connection points: 6
#     Node 12, Type 0, BuildingBlock: VOLQOD_clean_sbu_1, # of connection points: 6
#     Node 13, Type 0, BuildingBlock: VOLQOD_clean_sbu_1, # of connection points: 6
#     Node 14, Type 0, BuildingBlock: VOLQOD_clean_sbu_1, # of connection points: 6
#     Node 15, Type 0, BuildingBlock: VOLQOD_clean_sbu_1, # of connection points: 6
#     Edge 16, Type (0, 0), BuildingBlock: XIVTED_clean_linker_0, # of connection points: 2
#     Edge 17, Type (0, 0), BuildingBlock: XIVTED_clean_linker_0, # of connection points: 2
#     Edge 18, Type (0, 0), BuildingBlock: XIVTED_clean_linker_0, # of connection points: 2
#     Edge 19, Type (0, 0), BuildingBlock: XIVTED_clean_linker_0, # of connection points: 2
#     Edge 20, Type (0, 0), BuildingBlock: XIVTED_clean_linker_0, # of connection points: 2
#     Edge 21, Type (0, 0), BuildingBlock: XIVTED_clean_linker_0, # of connection points: 2
#     Edge 22, Type (0, 0), BuildingBlock: XIVTED_clean_linker_0, # of connection points: 2
#     Edge 23, Type (0, 0), BuildingBlock: XIVTED_clean_linker_0, # of connection points: 2
#     Edge 24, Type (0, 0), BuildingBlock: XIVTED_clean_linker_0, # of connection points: 2
#     Edge 25, Type (0, 0), BuildingBlock: XIVTED_clean_linker_0, # of connection points: 2
#     Edge 26, Type (0, 0), BuildingBlock: XIVTED_clean_linker_0, # of connection points: 2
#     Edge 27, Type (0, 0), BuildingBlock: XIVTED_clean_linker_0, # of connection points: 2
#     Edge 28, Type (0, 0), BuildingBlock: XIVTED_clean_linker_0, # of connection points: 2
#     Edge 29, Type (0, 0), BuildingBlock: XIVTED_clean_linker_0, # of connection points: 2
#     Edge 30, Type (0, 0), BuildingBlock: XIVTED_clean_linker_0, # of connection points: 2
#     Edge 31, Type (0, 0), BuildingBlock: XIVTED_clean_linker_0, # of connection points: 2
#     Edge 32, Type (0, 0), BuildingBlock: XIVTED_clean_linker_0, # of connection points: 2
#     Edge 33, Type (0, 0), BuildingBlock: XIVTED_clean_linker_0, # of connection points: 2
#     Edge 34, Type (0, 0), BuildingBlock: XIVTED_clean_linker_0, # of connection points: 2
#     Edge 35, Type (0, 0), BuildingBlock: XIVTED_clean_linker_0, # of connection points: 2
#     Edge 36, Type (0, 0), BuildingBlock: XIVTED_clean_linker_0, # of connection points: 2
#     Edge 37, Type (0, 0), BuildingBlock: XIVTED_clean_linker_0, # of connection points: 2
#     Edge 38, Type (0, 0), BuildingBlock: XIVTED_clean_linker_0, # of connection points: 2
#     Edge 39, Type (0, 0), BuildingBlock: XIVTED_clean_linker_0, # of connection points: 2
#     Edge 40, Type (0, 0), BuildingBlock: XIVTED_clean_linker_0, # of connection points: 2
#     Edge 41, Type (0, 0), BuildingBlock: XIVTED_clean_linker_0, # of connection points: 2
#     Edge 42, Type (0, 0), BuildingBlock: XIVTED_clean_linker_0, # of connection points: 2
#     Edge 43, Type (0, 0), BuildingBlock: XIVTED_clean_linker_0, # of connection points: 2
#     Edge 44, Type (0, 0), BuildingBlock: XIVTED_clean_linker_0, # of connection points: 2
#     Edge 45, Type (0, 0), BuildingBlock: XIVTED_clean_linker_0, # of connection points: 2
#     Edge 46, Type (0, 0), BuildingBlock: XIVTED_clean_linker_0, # of connection points: 2
#     Edge 47, Type (0, 0), BuildingBlock: XIVTED_clean_linker_0, # of connection points: 2
#     Edge 48, Type (0, 0), BuildingBlock: XIVTED_clean_linker_0, # of connection points: 2
#     Edge 49, Type (0, 0), BuildingBlock: XIVTED_clean_linker_0, # of connection points: 2
#     Edge 50, Type (0, 0), BuildingBlock: XIVTED_clean_linker_0, # of connection points: 2
#     Edge 51, Type (0, 0), BuildingBlock: XIVTED_clean_linker_0, # of connection points: 2
#     Edge 52, Type (0, 0), BuildingBlock: XIVTED_clean_linker_0, # of connection points: 2
#     Edge 53, Type (0, 0), BuildingBlock: XIVTED_clean_linker_0, # of connection points: 2
#     Edge 54, Type (0, 0), BuildingBlock: XIVTED_clean_linker_0, # of connection points: 2
#     Edge 55, Type (0, 0), BuildingBlock: XIVTED_clean_linker_0, # of connection points: 2
#     Edge 56, Type (0, 0), BuildingBlock: XIVTED_clean_linker_0, # of connection points: 2
#     Edge 57, Type (0, 0), BuildingBlock: XIVTED_clean_linker_0, # of connection points: 2
#     Edge 58, Type (0, 0), BuildingBlock: XIVTED_clean_linker_0, # of connection points: 2
#     Edge 59, Type (0, 0), BuildingBlock: XIVTED_clean_linker_0, # of connection points: 2
#     Edge 60, Type (0, 0), BuildingBlock: XIVTED_clean_linker_0, # of connection points: 2
#     Edge 61, Type (0, 0), BuildingBlock: XIVTED_clean_linker_0, # of connection points: 2
#     Edge 62, Type (0, 0), BuildingBlock: XIVTED_clean_linker_0, # of connection points: 2
#     Edge 63, Type (0, 0), BuildingBlock: XIVTED_clean_linker_0, # of connection points: 2
# Relax obj value: 0.390
# Max RMSD: 0.283
# Mean RMSD: 0.278
data_MOF--net-bcs--node1-VOLQOD_clean_sbu_1--edge1-XIVTED_clean_linker_0
_symmetry_space_group_name_H-M    P1
_symmetry_Int_Tables_number       1
_symmetry_cell_setting            triclinic
loop_
_symmetry_equiv_pos_as_xyz
'x, y, z'
_cell_length_a     36.606682
_cell_length_b     36.811649
_cell_length_c     36.678989
_cell_angle_alpha  90.033036
_cell_angle_beta   89.906597
_cell_angle_gamma 89.29928
loop_
_atom_site_label
_atom_site_type_symbol
_atom_site_fract_x
_atom_site_fract_y
_atom_site_fract_z
_atom_type_partial_charge
O0 O 0.09246 0.00281 0.01361 0.0
Zn1 Zn 0.0419 0.98764 0.02621 0.0
O2 O 0.02109 0.96139 0.98734 0.0
Zn3 Zn 0.97106 0.9761 0.98157 0.0
Zn4 Zn 0.04604 0.97316 0.94363 0.0
Zn5 Zn 0.02705 0.91055 -0.00262 0.0
O6 O 0.93819 0.9351 -0.00493 0.0
O7 O 0.97776 0.89057 0.00801 0.0
O8 O 0.01252 0.03126 0.03926 0.0
O9 O 0.95961 0.02136 0.01182 0.0
O10 O 0.96249 0.99104 0.93007 0.0
O11 O 0.01756 0.01254 0.91847 0.0
O12 O 0.04766 0.92923 0.91219 0.0
O13 O 0.04561 0.95603 0.0692 0.0
O14 O 0.04409 0.88398 0.9522 0.0
O15 O 0.05892 0.90314 0.04257 0.0
C16 C 0.11098 0.00109 0.98428 0.0
C17 C 0.94512 0.90258 0.00507 0.0
C18 C 0.98319 0.01282 0.91307 0.0
C19 C 0.97977 0.04067 0.03231 0.0
C20 C 0.04784 0.89544 0.9196 0.0
C21 C 0.05791 0.92367 0.07066 0.0
O22 O 0.09705 0.98961 0.95467 0.0
O23 O 0.26294 0.7741 0.27673 0.0
Zn24 Zn 0.29486 0.80454 0.30816 0.0
O25 O 0.2666 0.83773 0.33891 0.0
Zn26 Zn 0.27808 0.88715 0.32471 0.0
Zn27 Zn 0.21537 0.829 0.33115 0.0
Zn28 Zn 0.27717 0.82991 0.39053 0.0
O29 O 0.29527 0.91581 0.36764 0.0
O30 O 0.30365 0.87358 0.41041 0.0
O31 O 0.32978 0.82981 0.2749 0.0
O32 O 0.31964 0.88766 0.28905 0.0
O33 O 0.23587 0.91087 0.29797 0.0
O34 O 0.19209 0.87047 0.30613 0.0
O35 O 0.18875 0.82078 0.37738 0.0
O36 O 0.32139 0.76901 0.33897 0.0
O37 O 0.2311 0.82195 0.42046 0.0
O38 O 0.30721 0.78366 0.39612 0.0
C39 C 0.22875 0.76866 0.27678 0.0
C40 C 0.30689 0.90615 0.39895 0.0
C41 C 0.20314 0.90044 0.29344 0.0
C42 C 0.33675 0.86332 0.27104 0.0
C43 C 0.19789 0.81878 0.41072 0.0
C44 C 0.32283 0.76272 0.373 0.0
O45 O 0.20737 0.78652 0.29773 0.0
O46 O 0.53233 0.01509 0.52969 0.0
Zn47 Zn 0.57815 0.01918 0.55805 0.0
O48 O 0.60931 0.05575 0.53716 0.0
Zn49 Zn 0.65687 0.03542 0.52443 0.0
Zn50 Zn 0.5874 0.07374 0.49262 0.0
Zn51 Zn 0.61554 0.09421 0.57279 0.0
O52 O 0.69688 0.05352 0.55676 0.0
O53 O 0.6658 0.09033 0.59401 0.0
O54 O 0.60293 0.97059 0.55778 0.0
O55 O 0.65615 0.98147 0.53102 0.0
O56 O 0.66996 0.04423 0.47243 0.0
O57 O 0.61602 0.05805 0.44841 0.0
O58 O 0.58945 0.12751 0.49391 0.0
O59 O 0.56099 0.03248 0.60842 0.0
O60 O 0.60811 0.14361 0.5494 0.0
O61 O 0.58048 0.089 0.61478 0.0
C62 C 0.51788 0.03215 0.5032 0.0
C63 C 0.69522 0.0741 0.58453 0.0
C64 C 0.64974 0.04998 0.44483 0.0
C65 C 0.63346 0.95954 0.54501 0.0
C66 C 0.59824 0.15164 0.51705 0.0
C67 C 0.56219 0.0621 0.62628 0.0
O68 O 0.5351 0.05696 0.48637 0.0
O69 O 0.38015 0.2303 0.88783 0.0
Zn70 Zn 0.34787 0.19802 0.85872 0.0
O71 O 0.31372 0.22661 0.82962 0.0
Zn72 Zn 0.26481 0.22462 0.85037 0.0
Zn73 Zn 0.32949 0.27679 0.82775 0.0
Zn74 Zn 0.31405 0.20561 0.78129 0.0
O75 O 0.2281 0.20899 0.81232 0.0
O76 O 0.26385 0.19284 0.76584 0.0
O77 O 0.32106 0.16517 0.89258 0.0
O78 O 0.26445 0.18806 0.89105 0.0
O79 O 0.24816 0.27369 0.86925 0.0
O80 O 0.29282 0.31053 0.85263 0.0
O81 O 0.3366 0.29354 0.7757 0.0
O82 O 0.38081 0.16697 0.82735 0.0
O83 O 0.32945 0.24225 0.74481 0.0
O84 O 0.34924 0.16351 0.77592 0.0
C85 C 0.39122 0.26202 0.8803 0.0
C86 C 0.23236 0.19688 0.78003 0.0
C87 C 0.26199 0.30526 0.86783 0.0
C88 C 0.28816 0.16579 0.90374 0.0
C89 C 0.33637 0.27596 0.74575 0.0
C90 C 0.37623 0.1538 0.79564 0.0
O91 O 0.37646 0.2814 0.85545 0.0
O92 O 0.0245 0.98232 0.45962 0.0
Zn93 Zn 0.05992 0.01271 0.48816 0.0
O94 O 0.03475 0.0393 0.52714 0.0
Zn95 Zn 0.04309 0.09036 0.52182 0.0
Zn96 Zn 0.98283 0.03089 0.52568 0.0
Zn97 Zn 0.0536 0.02445 0.57347 0.0
O98 O 0.05274 0.11525 0.56992 0.0
O99 O 0.06823 0.06708 0.6031 0.0
O100 O 0.09182 0.04604 0.45786 0.0
O101 O 0.08853 0.09563 0.49258 0.0
O102 O 0.00102 0.11358 0.49496 0.0
O103 O 0.95681 0.07297 0.49991 0.0
O104 O 0.96295 0.01989 0.57662 0.0
O105 O 0.0963 0.97695 0.50909 0.0
O106 O 0.01467 0.00187 0.60311 0.0
O107 O 0.09638 0.9903 0.56816 0.0
C108 C 0.99259 0.97192 0.46858 0.0
C109 C 0.06452 0.10125 0.59947 0.0
C110 C 0.96843 0.10353 0.48851 0.0
C111 C 0.10357 0.07717 0.46721 0.0
C112 C 0.98005 0.0054 0.60339 0.0
C113 C 0.10915 0.9727 0.541 0.0
O114 O 0.97495 0.98667 0.4948 0.0
O115 O 0.24325 0.66412 0.71964 0.0
Zn116 Zn 0.24529 0.70797 0.7507 0.0
O117 O 0.27973 0.74289 0.731 0.0
Zn118 Zn 0.32078 0.74667 0.76453 0.0
Zn119 Zn 0.29519 0.727 0.68221 0.0
Zn120 Zn 0.25675 0.79014 0.72678 0.0
O121 O 0.32777 0.79808 0.78209 0.0
O122 O 0.2799 0.82757 0.75889 0.0
O123 O 0.25869 0.69068 0.80057 0.0
O124 O 0.31121 0.7185 0.81026 0.0
O125 O 0.36648 0.72641 0.74076 0.0
O126 O 0.34948 0.72049 0.68271 0.0
O127 O 0.28083 0.76277 0.64212 0.0
O128 O 0.19511 0.72954 0.75488 0.0
O129 O 0.25989 0.80837 0.67624 0.0
O130 O 0.20373 0.78713 0.73944 0.0
C131 C 0.25566 0.65541 0.68844 0.0
C132 C 0.30843 0.82687 0.77862 0.0
C133 C 0.37375 0.71905 0.70754 0.0
C134 C 0.28573 0.69781 0.82084 0.0
C135 C 0.26857 0.79512 0.64541 0.0
C136 C 0.18293 0.7616 0.74966 0.0
O137 O 0.27482 0.67736 0.66981 0.0
O138 O 0.52864 0.07494 0.05648 0.0
Zn139 Zn 0.49806 0.04126 0.02699 0.0
O140 O 0.46093 0.06718 -0.00179 0.0
Zn141 Zn 0.41252 0.05032 0.0124 0.0
Zn142 Zn 0.46464 0.11881 0.00747 0.0
Zn143 Zn 0.46894 0.05957 0.9463 0.0
O144 O 0.38522 0.03102 0.9687 0.0
O145 O 0.42501 0.0369 0.92317 0.0
O146 O 0.47582 0.00599 0.0617 0.0
O147 O 0.41681 0.00879 0.04788 0.0
O148 O 0.38464 0.09001 0.03972 0.0
O149 O 0.4203 0.1378 0.03191 0.0
O150 O 0.47531 0.14784 0.96304 0.0
O151 O 0.53271 0.01404 -0.0055 0.0
O152 O 0.48207 0.10588 0.92027 0.0
O153 O 0.51209 0.0261 0.93885 0.0
C154 C 0.52897 0.10936 0.05883 0.0
C155 C 0.39406 0.0269 0.93527 0.0
C156 C 0.3915 0.12356 0.04455 0.0
C157 C 0.44326 -0.00482 0.06598 0.0
C158 C 0.48328 0.1389 0.93051 0.0
C159 C 0.53502 0.01069 0.96007 0.0
O160 O 0.50626 0.129 0.04124 0.0
O161 O 0.38407 0.39282 0.36129 0.0
Zn162 Zn 0.36706 0.34715 0.38591 0.0
O163 O 0.34244 0.31418 0.35212 0.0
Zn164 Zn 0.29173 0.30812 0.36568 0.0
Zn165 Zn 0.34383 0.33465 0.30391 0.0
Zn166 Zn 0.36684 0.26682 0.35167 0.0
O167 O 0.28109 0.25583 0.37238 0.0
O168 O 0.33519 0.22766 0.37423 0.0
O169 O 0.33382 0.36261 0.42643 0.0
O170 O 0.28257 0.33375 0.41275 0.0
O171 O 0.25553 0.32675 0.32794 0.0
O172 O 0.29398 0.34363 0.28477 0.0
O173 O 0.3653 0.30051 0.2675 0.0
O174 O 0.41149 0.32367 0.4068 0.0
O175 O 0.3742 0.25016 0.29963 0.0
O176 O 0.41526 0.27043 0.37795 0.0
C177 C 0.38256 0.40226 0.32803 0.0
C178 C 0.30049 0.22737 0.37699 0.0
C179 C 0.26161 0.33936 0.29626 0.0
C180 C 0.30099 0.35427 0.4336 0.0
C181 C 0.37318 0.26684 0.26922 0.0
C182 C 0.42831 0.29412 0.39964 0.0
O183 O 0.36869 0.38215 0.30366 0.0
O184 O 0.50875 0.48308 -0.00424 0.0
Zn185 Zn 0.52811 0.53233 0.00366 0.0
O186 O 0.49783 0.55933 0.0377 0.0
Zn187 Zn 0.48252 0.60475 0.01527 0.0
Zn188 Zn 0.45486 0.53105 0.05032 0.0
Zn189 Zn 0.52624 0.56911 0.08116 0.0
O190 O 0.49805 0.64839 0.04353 0.0
O191 O 0.52861 0.62236 0.08909 0.0
O192 O 0.53408 0.55798 0.9563 0.0
O193 O 0.5042 0.60992 0.96542 0.0
O194 O 0.42866 0.60669 0.01098 0.0
O195 O 0.40859 0.55258 0.02832 0.0
O196 O 0.44866 0.53074 0.10476 0.0
O197 O 0.57834 0.52423 0.02284 0.0
O198 O 0.50203 0.54989 0.1258 0.0
O199 O 0.57759 0.54871 0.07802 0.0
C200 C 0.48333 0.46481 0.01023 0.0
C201 C 0.51612 0.65038 0.07293 0.0
C202 C 0.40286 0.58439 0.0158 0.0
C203 C 0.52383 0.58923 0.94542 0.0
C204 C 0.47014 0.53768 0.13109 0.0
C205 C 0.59427 0.53174 0.05257 0.0
O206 O 0.46085 0.4792 0.03274 0.0
O207 O 0.74929 0.22799 0.20825 0.0
Zn208 Zn 0.77546 0.26203 0.24293 0.0
O209 O 0.80297 0.29835 0.21551 0.0
Zn210 Zn 0.85472 0.2943 0.22546 0.0
Zn211 Zn 0.79493 0.29286 0.16386 0.0
Zn212 Zn 0.7865 0.34607 0.22863 0.0
O213 O 0.87614 0.34433 0.23534 0.0
O214 O 0.82553 0.37375 0.25252 0.0
O215 O 0.80848 0.23612 0.2798 0.0
O216 O 0.86145 0.26381 0.2706 0.0
O217 O 0.88025 0.26746 0.18392 0.0
O218 O 0.83737 0.26735 0.14114 0.0
O219 O 0.78406 0.33997 0.13734 0.0
O220 O 0.73363 0.28625 0.27037 0.0
O221 O 0.77528 0.37579 0.18508 0.0
O222 O 0.74092 0.3448 0.25834 0.0
C223 C 0.73921 0.23449 0.17555 0.0
C224 C 0.86005 0.37233 0.2487 0.0
C225 C 0.86917 0.25853 0.1522 0.0
C226 C 0.84181 0.24154 0.2884 0.0
C227 C 0.77617 0.37093 0.15086 0.0
C228 C 0.72292 0.31922 0.27282 0.0
O229 O 0.75269 0.26041 0.15717 0.0
O230 O 0.08056 0.49355 0.54268 0.0
Zn231 Zn 0.03811 0.48952 0.50837 0.0
O232 O 0.01615 0.53608 0.50095 0.0
Zn233 Zn 0.96515 0.53072 0.49376 0.0
Zn234 Zn 0.02493 0.56529 0.54214 0.0
Zn235 Zn 0.03986 0.55476 0.45873 0.0
O236 O 0.95439 0.53245 0.43979 0.0
O237 O 0.00856 0.54515 0.41511 0.0
O238 O 0.00211 0.45491 0.52917 0.0
O239 O 0.94986 0.48324 0.51617 0.0
O240 O 0.93765 0.56743 0.52403 0.0
O241 O 0.97821 0.57001 0.56929 0.0
O242 O 0.04137 0.61483 0.52602 0.0
O243 O 0.05864 0.47481 0.4609 0.0
O244 O 0.04888 0.60807 0.46604 0.0
O245 O 0.08725 0.52655 0.45478 0.0
C246 C 0.08565 0.51622 0.56826 0.0
C247 C 0.97488 0.53731 0.412 0.0
C248 C 0.94579 0.5739 0.5572 0.0
C249 C 0.96738 0.45668 0.53039 0.0
C250 C 0.04916 0.62769 0.49474 0.0
C251 C 0.08797 0.49192 0.4549 0.0
O252 O 0.06468 0.54368 0.57291 0.0
O253 O 0.82694 0.76961 0.34538 0.0
Zn254 Zn 0.78859 0.73946 0.31994 0.0
O255 O 0.76721 0.76623 0.27974 0.0
Zn256 Zn 0.7182 0.78144 0.29202 0.0
Zn257 Zn 0.7953 0.80891 0.27063 0.0
Zn258 Zn 0.76615 0.73571 0.23656 0.0
O259 O 0.68505 0.77367 0.25024 0.0
O260 O 0.71566 0.73423 0.21555 0.0
O261 O 0.7488 0.72263 0.35385 0.0
O262 O 0.69944 0.75123 0.33267 0.0
O263 O 0.71437 0.8343 0.30313 0.0
O264 O 0.76775 0.85457 0.28356 0.0
O265 O 0.80767 0.8123 0.21815 0.0
O266 O 0.81272 0.69362 0.30116 0.0
O267 O 0.79462 0.75791 0.19569 0.0
O268 O 0.78748 0.68601 0.2466 0.0
C269 C 0.84711 0.79436 0.33205 0.0
C270 C 0.68718 0.75326 0.22242 0.0
C271 C 0.73598 0.86028 0.29653 0.0
C272 C 0.71446 0.72884 0.35458 0.0
C273 C 0.80688 0.78983 0.19185 0.0
C274 C 0.80749 0.67451 0.2727 0.0
O275 O 0.84026 0.80877 0.30122 0.0
O276 O 0.83868 0.22754 0.76131 0.0
Zn277 Zn 0.83792 0.27442 0.78992 0.0
O278 O 0.78863 0.28915 0.80222 0.0
Zn279 Zn 0.78166 0.3396 0.79229 0.0
Zn280 Zn 0.75523 0.26177 0.77476 0.0
Zn281 Zn 0.77959 0.27939 0.85243 0.0
O282 O 0.78775 0.3684 0.83911 0.0
O283 O 0.7887 0.3244 0.88071 0.0
O284 O 0.86209 0.31123 0.75771 0.0
O285 O 0.81985 0.35499 0.75648 0.0
O286 O 0.73429 0.34704 0.76516 0.0
O287 O 0.73333 0.29331 0.7371 0.0
O288 O 0.71307 0.24646 0.80469 0.0
O289 O 0.8648 0.26311 0.83585 0.0
O290 O 0.72753 0.26253 0.86102 0.0
O291 O 0.81724 0.24211 0.86686 0.0
C292 C 0.81256 0.20835 0.74963 0.0
C293 C 0.79124 0.35778 0.87211 0.0
C294 C 0.72243 0.32614 0.7401 0.0
C295 C 0.85008 0.34146 0.74546 0.0
C296 C 0.70488 0.24958 0.83819 0.0
C297 C 0.85145 0.24204 0.85987 0.0
O298 O 0.77933 0.21819 0.75318 0.0
O299 O 0.83716 0.85991 0.81484 0.0
Zn300 Zn 0.80583 0.82115 0.8391 0.0
O301 O 0.78605 0.7891 0.80147 0.0
Zn302 Zn 0.73551 0.79952 0.7936 0.0
Zn303 Zn 0.81165 0.79597 0.75618 0.0
Zn304 Zn 0.79071 0.73869 0.81474 0.0
O305 O 0.70441 0.75927 0.81041 0.0
O306 O 0.74294 0.71694 0.83048 0.0
O307 O 0.76426 0.84889 0.8645 0.0
O308 O 0.72131 0.84304 0.82194 0.0
O309 O 0.72321 0.80638 0.74131 0.0
O310 O 0.7776 0.80678 0.71498 0.0
O311 O 0.83635 0.7512 0.73937 0.0
O312 O 0.83858 0.79108 0.8736 0.0
O313 O 0.80826 0.70921 0.77215 0.0
O314 O 0.82873 0.73495 0.85303 0.0
C315 C 0.85206 0.86076 0.7834 0.0
C316 C 0.7105 0.72841 0.82471 0.0
C317 C 0.74302 0.80859 0.71299 0.0
C318 C 0.73336 0.85787 0.85079 0.0
C319 C 0.8281 0.71833 0.74529 0.0
C320 C 0.84526 0.75688 0.87398 0.0
O321 O 0.84617 0.83664 0.75943 0.0
O322 O 0.56209 0.5199 0.47942 0.0
Zn323 Zn 0.53016 0.49338 0.51313 0.0
O324 O 0.49038 0.46905 0.48905 0.0
Zn325 Zn 0.44531 0.48445 0.51223 0.0
Zn326 Zn 0.49109 0.48291 0.43785 0.0
Zn327 Zn 0.496 0.41656 0.49413 0.0
O328 O 0.41722 0.44213 0.53048 0.0
O329 O 0.45067 0.39387 0.51488 0.0
O330 O 0.51305 0.52997 0.54947 0.0
O331 O 0.45423 0.5175 0.55515 0.0
O332 O 0.41532 0.51307 0.47689 0.0
O333 O 0.44401 0.5076 0.42369 0.0
O334 O 0.50366 0.43953 0.40647 0.0
O335 O 0.56034 0.45863 0.54038 0.0
O336 O 0.50995 0.3942 0.44609 0.0
O337 O 0.53634 0.40463 0.52979 0.0
C338 C 0.55749 0.53055 0.4469 0.0
C339 C 0.42224 0.40789 0.52957 0.0
C340 C 0.41751 0.51975 0.44292 0.0
C341 C 0.48242 0.53481 0.56503 0.0
C342 C 0.51174 0.40649 0.41368 0.0
C343 C 0.55977 0.42459 0.54544 0.0
O344 O 0.5303 0.52024 0.42809 0.0
O345 O 0.9838 0.46288 0.05652 0.0
Zn346 Zn 0.01949 0.48337 0.09349 0.0
O347 O 0.04838 0.52258 0.07138 0.0
Zn348 Zn 0.10059 0.51551 0.07892 0.0
Zn349 Zn 0.04036 0.52523 0.01951 0.0
Zn350 Zn 0.03263 0.56836 0.09168 0.0
O351 O 0.12428 0.55983 0.10205 0.0
O352 O 0.0752 0.59494 0.11013 0.0
O353 O 0.05311 0.44569 0.11688 0.0
O354 O 0.10703 0.47302 0.11195 0.0
O355 O 0.12648 0.49995 0.0325 0.0
O356 O 0.08206 0.50184 0.99143 0.0
O357 O 0.02856 0.57638 0.00265 0.0
O358 O 0.98786 0.50232 0.13462 0.0
O359 O 0.00866 0.60076 0.05446 0.0
O360 O -0.0008 0.56144 0.13418 0.0
C361 C 0.9765 0.47362 0.02422 0.0
C362 C 0.10939 0.58943 0.11295 0.0
C363 C 0.11484 0.49392 0.00035 0.0
C364 C 0.08729 0.44718 0.12346 0.0
C365 C 0.01238 0.602 0.01997 0.0
C366 C 0.98354 0.53399 0.14791 0.0
O367 O -0.00424 0.49739 0.00834 0.0
H368 H 0.30761 0.09415 0.90376 0.0
H369 H 0.1414 0.04662 0.03418 0.0
H370 H 0.23999 0.17323 0.95966 0.0
H371 H 0.16497 0.98998 0.93353 0.0
H372 H 0.1974 0.08126 0.02639 0.0
H373 H 0.27465 0.04541 0.93498 0.0
C374 C 0.28671 0.10122 0.92356 0.0
C375 C 0.27577 0.1375 0.92879 0.0
C376 C 0.19071 0.06049 0.00663 0.0
C377 C 0.23888 0.08251 0.96456 0.0
C378 C 0.1588 0.04077 0.01093 0.0
C379 C 0.14806 0.01618 0.98384 0.0
C380 C 0.2121 0.05518 0.97534 0.0
C381 C 0.17184 0.0094 0.95453 0.0
C382 C 0.26797 0.0735 0.94119 0.0
C383 C 0.24862 0.14544 0.95456 0.0
N384 N 0.20261 0.02926 0.95074 0.0
N385 N 0.23075 0.11806 0.97128 0.0
H386 H 0.1266 0.896 0.07861 0.0
H387 H 0.12927 0.90887 0.29371 0.0
H388 H 0.03163 0.93176 0.13902 0.0
H389 H 0.22524 0.92571 0.22778 0.0
H390 H 0.09154 0.91298 0.23881 0.0
H391 H 0.16229 0.89717 0.13524 0.0
C392 C 0.11307 0.90283 0.10405 0.0
C393 C 0.07624 0.91342 0.10455 0.0
C394 C 0.12077 0.91663 0.23652 0.0
C395 C 0.11668 0.91601 0.16856 0.0
C396 C 0.14218 0.91485 0.26782 0.0
C397 C 0.18029 0.91707 0.26512 0.0
C398 C 0.13783 0.91973 0.20242 0.0
C399 C 0.19588 0.92423 0.23098 0.0
C400 C 0.13351 0.9043 0.13608 0.0
C401 C 0.06 0.9231 0.13786 0.0
N402 N 0.17462 0.92443 0.2007 0.0
N403 N 0.08037 0.92423 0.16866 0.0
H404 H 0.4799 0.05333 0.44181 0.0
H405 H 0.33266 0.8987 0.4687 0.0
H406 H 0.47132 0.98673 0.53829 0.0
H407 H 0.33218 0.97241 0.37711 0.0
H408 H 0.37839 0.93621 0.49823 0.0
H409 H 0.42143 0.02942 0.42074 0.0
C410 C 0.46557 0.03405 0.45873 0.0
C411 C 0.48087 0.02154 0.49152 0.0
C412 C 0.36793 0.94449 0.47188 0.0
C413 C 0.41418 -0.00592 0.46765 0.0
C414 C 0.34174 0.92307 0.45503 0.0
C415 C 0.32901 0.93203 0.4201 0.0
C416 C 0.38185 0.97484 0.45349 0.0
C417 C 0.34149 0.96419 0.40389 0.0
C418 C 0.43219 0.02043 0.44674 0.0
C419 C 0.46096 -0.00329 0.5125 0.0
N420 N 0.36769 0.9841 0.42044 0.0
N421 N 0.42892 0.98354 0.50002 0.0
H422 H 0.44869 0.15045 0.81361 0.0
H423 H 0.50175 0.02335 0.64482 0.0
H424 H 0.36939 0.10457 0.74036 0.0
H425 H 0.56911 0.11152 0.68166 0.0
H426 H 0.45803 0.03756 0.69349 0.0
H427 H 0.49754 0.12031 0.7787 0.0
C428 C 0.44148 0.13335 0.79073 0.0
C429 C 0.40499 0.13038 0.77946 0.0
C430 C 0.48273 0.05332 0.69121 0.0
C431 C 0.46053 0.09581 0.7399 0.0
C432 C 0.50775 0.0452 0.66359 0.0
C433 C 0.53887 0.06664 0.65891 0.0
C434 C 0.48918 0.08267 0.71462 0.0
C435 C 0.54521 0.09464 0.68402 0.0
C436 C 0.46936 0.11638 0.77079 0.0
C437 C 0.39721 0.10795 0.74962 0.0
N438 N 0.52043 0.10202 0.71073 0.0
N439 N 0.4248 0.09167 0.73069 0.0
H440 H 0.16439 0.98043 0.58921 0.0
H441 H 0.22654 0.7787 0.58621 0.0
H442 H 0.12496 0.90874 0.50535 0.0
H443 H 0.29022 0.86385 0.63431 0.0
H444 H 0.19417 0.82442 0.54921 0.0
H445 H 0.21413 0.93783 0.60153 0.0
C446 C 0.16635 0.95565 0.57332 0.0
C447 C 0.14035 0.94774 0.54667 0.0
C448 C 0.21618 0.83292 0.56684 0.0
C449 C 0.19712 0.89852 0.56072 0.0
C450 C 0.23488 0.8068 0.58763 0.0
C451 C 0.26061 0.81783 0.61351 0.0
C452 C 0.22326 0.86995 0.57265 0.0
C453 C 0.27019 0.85449 0.61485 0.0
C454 C 0.19498 0.93146 0.58005 0.0
C455 C 0.14445 0.91558 0.52636 0.0
N456 N 0.25095 0.87936 0.59534 0.0
N457 N 0.17194 0.89164 0.53434 0.0
H458 H 0.30091 0.89834 0.75897 0.0
H459 H 0.34677 0.97408 0.95586 0.0
H460 H 0.33584 0.82896 0.84735 0.0
H461 H 0.39036 0.02715 0.8606 0.0
H462 H 0.32123 0.92711 0.91646 0.0
H463 H 0.31506 0.95183 0.79666 0.0
C464 C 0.31148 0.89444 0.78628 0.0
C465 C 0.31767 0.85933 0.80006 0.0
C466 C 0.33578 0.94951 0.90427 0.0
C467 C 0.33229 0.9198 0.84328 0.0
C468 C 0.35004 0.97649 0.92661 0.0
C469 C 0.37109 0.0043 0.91146 0.0
C470 C 0.34189 0.95087 0.86656 0.0
C471 C 0.37463 0.00591 0.87335 0.0
C472 C 0.31941 0.92481 0.80763 0.0
C473 C 0.3312 0.8556 0.8356 0.0
N474 N 0.36033 0.97935 0.8521 0.0
N475 N 0.33777 0.88549 0.85615 0.0
H476 H 0.35975 0.0982 0.10674 0.0
H477 H 0.37677 0.29341 0.19976 0.0
H478 H 0.38132 0.19683 0.04748 0.0
H479 H 0.37109 0.19291 0.26012 0.0
H480 H 0.36977 0.25945 0.14325 0.0
H481 H 0.35082 0.13409 0.16226 0.0
C482 C 0.3611 0.12754 0.10508 0.0
C483 C 0.3718 0.1446 0.07265 0.0
C484 C 0.37013 0.24479 0.16884 0.0
C485 C 0.36288 0.18554 0.13606 0.0
C486 C 0.3745 0.26413 0.20114 0.0
C487 C 0.37479 0.24598 0.2348 0.0
C488 C 0.36591 0.20696 0.17006 0.0
C489 C 0.37143 0.20802 0.23481 0.0
C490 C 0.35669 0.14795 0.13692 0.0
C491 C 0.37352 0.18264 0.0721 0.0
N492 N 0.36705 0.18977 0.20292 0.0
N493 N 0.36981 0.2018 0.1035 0.0
H494 H 0.15694 0.11112 0.50394 0.0
H495 H 0.24863 0.19627 0.33576 0.0
H496 H 0.1287 0.07333 0.3964 0.0
H497 H 0.30723 0.18375 0.43682 0.0
H498 H 0.2059 0.14948 0.35533 0.0
H499 H 0.21275 0.13702 0.4794 0.0
C500 C 0.16262 0.10826 0.47506 0.0
C501 C 0.13799 0.09071 0.45194 0.0
C502 C 0.22868 0.15616 0.3728 0.0
C503 C 0.20175 0.12037 0.4237 0.0
C504 C 0.25298 0.1828 0.36168 0.0
C505 C 0.28122 0.19364 0.38487 0.0
C506 C 0.23204 0.14131 0.40783 0.0
C507 C 0.28579 0.17584 0.41824 0.0
C508 C 0.19468 0.12265 0.46118 0.0
C509 C 0.14694 0.08702 0.41495 0.0
N510 N 0.26082 0.15104 0.42918 0.0
N511 N 0.17786 0.1025 0.40172 0.0
H512 H 0.85348 0.23374 0.08375 0.0
H513 H 0.01118 0.08204 0.08523 0.0
H514 H 0.93394 0.22396 0.16934 0.0
H515 H 0.91666 0.0781 0.01506 0.0
H516 H 0.98844 0.13914 0.11068 0.0
H517 H 0.88264 0.18298 0.05201 0.0
C518 C 0.87764 0.22133 0.09567 0.0
C519 C 0.89097 0.2329 0.12962 0.0
C520 C 0.9727 0.12583 0.08969 0.0
C521 C 0.92426 0.17442 0.09336 0.0
C522 C 0.98561 0.09317 0.07511 0.0
C523 C 0.96564 0.07506 0.04808 0.0
C524 C 0.93967 0.14075 0.07706 0.0
C525 C 0.93277 0.09092 0.03607 0.0
C526 C 0.89412 0.19216 0.07756 0.0
C527 C 0.92255 0.21587 0.1434 0.0
N528 N 0.9208 0.12289 0.05066 0.0
N529 N 0.93792 0.18723 0.12538 0.0
H530 H 0.0359 0.67503 0.43942 0.0
H531 H 0.20801 0.78595 0.47742 0.0
H532 H 0.09074 0.66567 0.543 0.0
H533 H 0.12398 0.8229 0.40331 0.0
H534 H 0.16292 0.74814 0.50824 0.0
H535 H 0.06441 0.73382 0.43003 0.0
C536 C 0.05357 0.68573 0.46042 0.0
C537 C 0.06141 0.66547 0.49176 0.0
C538 C 0.15414 0.76536 0.48591 0.0
C539 C 0.09482 0.73226 0.48099 0.0
C540 C 0.17987 0.78706 0.46838 0.0
C541 C 0.16998 0.80649 0.43692 0.0
C542 C 0.11869 0.76299 0.47146 0.0
C543 C 0.13304 0.80733 0.42672 0.0
C544 C 0.06969 0.71938 0.45523 0.0
C545 C 0.0842 0.68056 0.51837 0.0
N546 N 0.10895 0.78507 0.4433 0.0
N547 N 0.10093 0.71274 0.51198 0.0
H548 H 0.69892 0.92704 0.52737 0.0
H549 H 0.67076 0.8022 0.6961 0.0
H550 H 0.5948 0.90542 0.57793 0.0
H551 H 0.7754 0.82732 0.64846 0.0
H552 H 0.64098 0.82171 0.64001 0.0
H553 H 0.72417 0.87272 0.55613 0.0
C554 C 0.68108 0.9104 0.54378 0.0
C555 C 0.64521 0.92173 0.55182 0.0
C556 C 0.67051 0.82236 0.64153 0.0
C557 C 0.67406 0.86 0.58511 0.0
C558 C 0.68751 0.8115 0.67368 0.0
C559 C 0.72546 0.81459 0.67741 0.0
C560 C 0.69158 0.8371 0.61327 0.0
C561 C 0.74593 0.82555 0.6471 0.0
C562 C 0.69554 0.87933 0.56021 0.0
C563 C 0.62305 0.89847 0.5722 0.0
N564 N 0.72863 0.83727 0.61654 0.0
N565 N 0.63814 0.86919 0.58905 0.0
H566 H 0.43375 0.41497 0.03492 0.0
H567 H 0.44776 0.30394 0.85918 0.0
H568 H 0.52467 0.42712 0.96081 0.0
H569 H 0.39532 0.25945 0.95423 0.0
H570 H 0.48195 0.34484 0.89838 0.0
H571 H 0.42322 0.35453 0.00958 0.0
C572 C 0.45177 0.40478 0.01371 0.0
C573 C 0.47941 0.42654 -0.00079 0.0
C574 C 0.46374 0.32549 0.91086 0.0
C575 C 0.4676 0.3577 0.97029 0.0
C576 C 0.44425 0.30226 0.88847 0.0
C577 C 0.41845 0.27901 0.90366 0.0
C578 C 0.45617 0.32628 0.94842 0.0
C579 C 0.41489 0.27739 0.94166 0.0
C580 C 0.44597 0.37018 -0.0005 0.0
C581 C 0.50242 0.41169 0.97223 0.0
N582 N 0.43275 0.30165 0.96283 0.0
N583 N 0.49552 0.37848 0.95811 0.0
H584 H 0.85346 0.7953 0.40642 0.0
H585 H 0.01326 0.94156 0.40321 0.0
H586 H 0.90667 0.83092 0.30784 0.0
H587 H 0.93485 0.93119 0.49061 0.0
H588 H 0.98439 0.8906 0.3719 0.0
H589 H 0.89459 0.83358 0.44188 0.0
C590 C 0.87435 0.81047 0.39232 0.0
C591 C 0.87634 0.81046 0.35415 0.0
C592 C 0.97373 0.89944 0.39804 0.0
C593 C 0.92304 0.85431 0.39433 0.0
C594 C 0.99009 0.92853 0.41586 0.0
C595 C 0.97608 0.941 0.44928 0.0
C596 C 0.94349 0.88251 0.41401 0.0
C597 C 0.9462 0.92289 0.46459 0.0
C598 C 0.89758 0.83251 0.41251 0.0
C599 C 0.90388 0.83066 0.33723 0.0
N600 N 0.93085 0.89462 0.44679 0.0
N601 N 0.92595 0.85208 0.35741 0.0
H602 H 0.51804 0.59918 0.56928 0.0
H603 H 0.40611 0.66359 0.74419 0.0
H604 H 0.43946 0.53324 0.62576 0.0
H605 H 0.41705 0.73029 0.64831 0.0
H606 H 0.44627 0.61777 0.71596 0.0
H607 H 0.50642 0.64835 0.61331 0.0
C608 C 0.49899 0.5948 0.59144 0.0
C609 C 0.47915 0.5625 0.59374 0.0
C610 C 0.44105 0.64317 0.70188 0.0
C611 C 0.46693 0.61769 0.64435 0.0
C612 C 0.41853 0.66943 0.71804 0.0
C613 C 0.40811 0.7004 0.69821 0.0
C614 C 0.45361 0.64855 0.66619 0.0
C615 C 0.42438 0.70652 0.6642 0.0
C616 C 0.49255 0.62272 0.61645 0.0
C617 C 0.4548 0.55804 0.62283 0.0
N618 N 0.446 0.68045 0.6489 0.0
N619 N 0.44923 0.58548 0.64701 0.0
H620 H 0.49605 0.21074 0.94532 0.0
H621 H 0.67056 0.26309 0.90367 0.0
H622 H 0.51619 0.12787 0.86405 0.0
H623 H 0.65416 0.21301 0.79853 0.0
H624 H 0.60873 0.24572 0.92109 0.0
H625 H 0.54592 0.246 0.91982 0.0
C626 C 0.51046 0.20022 0.92167 0.0
C627 C 0.50295 0.16549 0.90779 0.0
C628 C 0.6183 0.2393 0.89389 0.0
C629 C 0.56078 0.20515 0.87941 0.0
C630 C 0.65389 0.24867 0.88419 0.0
C631 C 0.66769 0.23928 0.84973 0.0
C632 C 0.59647 0.22028 0.86894 0.0
C633 C 0.64477 0.22073 0.82548 0.0
C634 C 0.53937 0.22015 0.90754 0.0
C635 C 0.52174 0.15395 0.87639 0.0
N636 N 0.61051 0.21147 0.83572 0.0
N637 N 0.55035 0.17341 0.86371 0.0
H638 H 0.14851 0.40986 0.10615 0.0
H639 H 0.18839 0.35114 0.31182 0.0
H640 H 0.0683 0.42284 0.1914 0.0
H641 H 0.26567 0.3459 0.22284 0.0
H642 H 0.14021 0.36813 0.26798 0.0
H643 H 0.18708 0.37501 0.14761 0.0
C644 C 0.13876 0.40456 0.13353 0.0
C645 C 0.10544 0.41915 0.14558 0.0
C646 C 0.1677 0.36289 0.25819 0.0
C647 C 0.15 0.38065 0.19386 0.0
C648 C 0.19515 0.35331 0.28315 0.0
C649 C 0.23122 0.34777 0.27105 0.0
C650 C 0.17653 0.36652 0.22104 0.0
C651 C 0.23847 0.35062 0.23361 0.0
C652 C 0.16084 0.3849 0.15735 0.0
C653 C 0.09388 0.41173 0.18124 0.0
N654 N 0.21149 0.35992 0.21012 0.0
N655 N 0.11654 0.39351 0.20453 0.0
H656 H 0.50905 0.65449 0.91259 0.0
H657 H 0.63848 0.74259 0.81075 0.0
H658 H 0.57941 0.55974 0.90471 0.0
H659 H 0.71064 0.66123 0.85716 0.0
H660 H 0.58643 0.70525 0.82637 0.0
H661 H 0.55048 0.6871 0.87303 0.0
C662 C 0.53258 0.64013 0.90151 0.0
C663 C 0.54127 0.60466 0.91275 0.0
C664 C 0.61356 0.6957 0.83349 0.0
C665 C 0.58893 0.64178 0.86724 0.0
C666 C 0.64341 0.71696 0.82451 0.0
C667 C 0.679 0.70542 0.83352 0.0
C668 C 0.6193 0.66282 0.85198 0.0
C669 C 0.68368 0.67152 0.85036 0.0
C670 C 0.55629 0.65878 0.8787 0.0
C671 C 0.57195 0.5873 0.89728 0.0
N672 N 0.65408 0.65153 0.85932 0.0
N673 N 0.59525 0.6064 0.87609 0.0
H674 H 0.77443 0.44286 0.16784 0.0
H675 H 0.63374 0.48547 0.00879 0.0
H676 H 0.74979 0.36811 0.08081 0.0
H677 H 0.63974 0.54442 0.11044 0.0
H678 H 0.69 0.45301 0.0247 0.0
H679 H 0.74028 0.49033 0.136 0.0
C680 C 0.76239 0.43662 0.14164 0.0
C681 C 0.76397 0.40122 0.12741 0.0
C682 C 0.67932 0.47352 0.04317 0.0
C683 C 0.7246 0.45534 0.09111 0.0
C684 C 0.64719 0.49212 0.03417 0.0
C685 C 0.63148 0.51709 0.0588 0.0
C686 C 0.69589 0.48006 0.07693 0.0
C687 C 0.65044 0.52487 0.09099 0.0
C688 C 0.7429 0.46375 0.12351 0.0
C689 C 0.7487 0.39489 0.093 0.0
N690 N 0.68141 0.50603 0.09936 0.0
N691 N 0.72889 0.42156 0.07631 0.0
H692 H 0.90488 0.54386 0.38715 0.0
H693 H 0.93431 0.37817 0.25954 0.0
H694 H 0.01272 0.50739 0.35527 0.0
H695 H 0.83339 0.44008 0.26316 0.0
H696 H 0.96569 0.42981 0.28708 0.0
H697 H 0.87965 0.51276 0.3343 0.0
C698 C 0.92328 0.52997 0.36849 0.0
C699 C 0.96073 0.5275 0.37586 0.0
C700 C 0.9368 0.43228 0.28115 0.0
C701 C 0.93214 0.49074 0.31625 0.0
C702 C 0.91889 0.40273 0.26564 0.0
C703 C 0.881 0.40435 0.26028 0.0
C704 C 0.9165 0.46332 0.29153 0.0
C705 C 0.86244 0.43711 0.268 0.0
C706 C 0.90896 0.51218 0.33831 0.0
C707 C 0.98356 0.50958 0.35067 0.0
N708 N 0.88023 0.46501 0.28382 0.0
N709 N 0.96878 0.49092 0.32248 0.0
H710 H 0.6266 0.54471 0.46983 0.0
H711 H 0.63981 0.7279 0.35556 0.0
H712 H 0.54451 0.58032 0.39291 0.0
H713 H 0.73469 0.67381 0.40117 0.0
H714 H 0.6017 0.67939 0.37891 0.0
H715 H 0.66453 0.59591 0.45205 0.0
C716 C 0.61672 0.56314 0.44893 0.0
C717 C 0.5824 0.5583 0.43273 0.0
C718 C 0.63082 0.67835 0.38406 0.0
C719 C 0.62525 0.6172 0.41298 0.0
C720 C 0.65262 0.70622 0.37109 0.0
C721 C 0.69067 0.7047 0.37595 0.0
C722 C 0.64708 0.6489 0.4023 0.0
C723 C 0.70555 0.67597 0.3965 0.0
C724 C 0.63832 0.59237 0.43894 0.0
C725 C 0.57092 0.58292 0.40585 0.0
N726 N 0.68372 0.64898 0.40869 0.0
N727 N 0.59222 0.61156 0.39701 0.0
H728 H 0.7977 0.34625 0.94556 0.0
H729 H 0.9485 0.49858 0.96008 0.0
H730 H 0.81866 0.42602 0.86205 0.0
H731 H 0.92911 0.41955 0.04477 0.0
H732 H 0.89479 0.47766 0.92816 0.0
H733 H 0.83738 0.37931 0.98696 0.0
C734 C 0.80995 0.37121 0.93615 0.0
C735 C 0.80556 0.3829 0.89992 0.0
C736 C 0.90208 0.46493 0.95379 0.0
C737 C 0.85146 0.42046 0.94706 0.0
C738 C 0.93302 0.47667 0.97201 0.0
C739 C 0.94378 0.46038 0.00498 0.0
C740 C 0.88168 0.43638 0.96831 0.0
C741 C 0.9221 0.43258 0.01923 0.0
C742 C 0.83278 0.38995 0.95981 0.0
C743 C 0.82163 0.41569 0.88952 0.0
N744 N 0.89222 0.4212 0.0006 0.0
N745 N 0.84445 0.43293 0.91277 0.0
H746 H 0.8003 0.85799 0.16542 0.0
H747 H 0.87224 0.92004 0.00979 0.0
H748 H 0.83738 0.75017 0.13599 0.0
H749 H 0.94914 0.83194 0.02802 0.0
H750 H 0.82657 0.88689 0.04457 0.0
H751 H 0.82228 0.88055 0.10741 0.0
C752 C 0.81281 0.83901 0.14642 0.0
C753 C 0.81782 0.80239 0.15561 0.0
C754 C 0.85339 0.87477 0.04065 0.0
C755 C 0.84231 0.82778 0.08867 0.0
C756 C 0.8794 0.89354 0.02065 0.0
C757 C 0.91505 0.87948 0.01757 0.0
C758 C 0.86348 0.84218 0.058 0.0
C759 C 0.92238 0.84445 0.03103 0.0
C760 C 0.82468 0.85174 0.11293 0.0
C761 C 0.83348 0.77873 0.12988 0.0
N762 N 0.89701 0.82729 0.05147 0.0
N763 N 0.84614 0.79206 0.09776 0.0
H764 H 0.92541 0.23252 0.85207 0.0
H765 H 0.91139 0.02159 0.89523 0.0
H766 H 0.82893 0.18074 0.89454 0.0
H767 H 0.01518 0.07615 0.8912 0.0
H768 H 0.88057 0.07918 0.88295 0.0
H769 H 0.95921 0.17527 0.85935 0.0
C770 C 0.91151 0.20936 0.86355 0.0
C771 C 0.87418 0.21129 0.87237 0.0
C772 C 0.91012 0.07846 0.88444 0.0
C773 C 0.91232 0.14588 0.87967 0.0
C774 C 0.92778 0.04554 0.891 0.0
C775 C 0.96586 0.04424 0.89503 0.0
C776 C 0.9307 0.11021 0.88169 0.0
C777 C 0.98572 0.07602 0.88871 0.0
C778 C 0.93074 0.1767 0.86737 0.0
C779 C 0.8576 0.18051 0.88723 0.0
N780 N 0.96782 0.10798 0.88282 0.0
N781 N 0.87669 0.14891 0.88994 0.0
H782 H 0.79703 0.1403 0.77135 0.0
H783 H 0.76398 0.09502 0.56485 0.0
H784 H 0.84206 0.20113 0.68207 0.0
H785 H 0.69887 0.06198 0.65673 0.0
H786 H 0.81266 0.11326 0.60715 0.0
H787 H 0.78496 0.09004 0.72975 0.0
C788 C 0.8058 0.1423 0.74319 0.0
C789 C 0.81991 0.17474 0.7297 0.0
C790 C 0.78817 0.10095 0.61787 0.0
C791 C 0.80446 0.1187 0.68185 0.0
C792 C 0.7605 0.0907 0.59386 0.0
C793 C 0.72735 0.07806 0.60775 0.0
C794 C 0.78239 0.09795 0.65566 0.0
C795 C 0.72388 0.07255 0.64527 0.0
C796 C 0.79872 0.11381 0.7194 0.0
C797 C 0.83081 0.1764 0.69316 0.0
N798 N 0.7509 0.08293 0.66799 0.0
N799 N 0.82177 0.1491 0.67005 0.0
H800 H 0.72124 0.0446 0.42382 0.0
H801 H 0.66619 0.88631 0.29977 0.0
H802 H 0.61136 0.03167 0.38379 0.0
H803 H 0.77834 0.91931 0.31091 0.0
H804 H 0.64619 0.94607 0.32081 0.0
H805 H 0.74403 0.00838 0.37285 0.0
C806 C 0.702 0.03501 0.40368 0.0
C807 C 0.66427 0.03993 0.40871 0.0
C808 C 0.67519 0.94061 0.31802 0.0
C809 C 0.68999 -0.00214 0.35094 0.0
C810 C 0.6866 0.90634 0.30637 0.0
C811 C 0.72393 0.89766 0.30463 0.0
C812 C 0.70131 0.96601 0.32895 0.0
C813 C 0.74926 0.92481 0.31252 0.0
C814 C 0.71502 0.01431 0.37454 0.0
C815 C 0.64063 0.02773 0.38141 0.0
N816 N 0.73748 0.95759 0.32522 0.0
N817 N 0.65379 0.00623 0.35423 0.0
H818 H 0.90774 0.2544 0.32025 0.0
H819 H 0.90018 0.08872 0.46065 0.0
H820 H 0.81382 0.18511 0.32913 0.0
H821 H 0.98424 0.17 0.45962 0.0
H822 H 0.86692 0.12343 0.41396 0.0
H823 H 0.93541 0.22311 0.37173 0.0
C824 C 0.89286 0.23253 0.33298 0.0
C825 C 0.85837 0.22233 0.32007 0.0
C826 C 0.89247 0.13378 0.42427 0.0
C827 C 0.8902 0.18611 0.37959 0.0
C828 C 0.91144 0.11405 0.45104 0.0
C829 C 0.94528 0.12625 0.46402 0.0
C830 C 0.90753 0.16582 0.41025 0.0
C831 C 0.95845 0.15927 0.4504 0.0
C832 C 0.90869 0.21471 0.36261 0.0
C833 C 0.84046 0.19388 0.33806 0.0
N834 N 0.93975 0.17763 0.42416 0.0
N835 N 0.85667 0.17661 0.36679 0.0
H836 H 0.70316 0.25033 0.11275 0.0
H837 H 0.57596 0.07827 0.10849 0.0
H838 H 0.70623 0.17209 0.20054 0.0
H839 H 0.54825 0.18062 0.05735 0.0
H840 H 0.62743 0.10768 0.13896 0.0
H841 H 0.651 0.21958 0.08711 0.0
C842 C 0.69307 0.22648 0.12659 0.0
C843 C 0.70914 0.21382 0.15898 0.0
C844 C 0.60978 0.1236 0.12131 0.0
C845 C 0.64899 0.17851 0.12954 0.0
C846 C 0.58051 0.10692 0.10388 0.0
C847 C 0.55792 0.127 0.08017 0.0
C848 C 0.61671 0.16033 0.11437 0.0
C849 C 0.56492 0.16404 0.07532 0.0
C850 C 0.66303 0.20911 0.112 0.0
C851 C 0.69461 0.18279 0.17558 0.0
N852 N 0.59393 0.17938 0.09195 0.0
N853 N 0.66528 0.16601 0.16056 0.0
H854 H 0.72935 0.87739 0.92338 0.0
H855 H 0.5508 0.00014 0.88803 0.0
H856 H 0.68303 0.90062 0.81765 0.0
H857 H 0.5902 0.97446 -0.00392 0.0
H858 H 0.60269 0.96733 0.86226 0.0
H859 H 0.68277 0.91753 0.95118 0.0
C860 C 0.70978 0.89133 0.90605 0.0
C861 C 0.70964 0.88537 0.86829 0.0
C862 C 0.60008 0.96883 0.89164 0.0
C863 C 0.6566 0.93074 0.89958 0.0
C864 C 0.5703 0.98749 0.90639 0.0
C865 C 0.56596 0.98988 0.94428 0.0
C866 C 0.62581 0.95225 0.91487 0.0
C867 C 0.59236 0.97313 0.96667 0.0
C868 C 0.68313 0.91398 0.92187 0.0
C869 C 0.68374 0.90398 0.84698 0.0
N870 N 0.62116 0.95489 0.95161 0.0
N871 N 0.6582 0.92558 0.86292 0.0
H872 H 0.90607 0.00913 0.61838 0.0
H873 H 0.8275 0.92947 0.77102 0.0
H874 H 0.00897 0.9714 0.66282 0.0
H875 H 0.92375 0.8612 0.76597 0.0
H876 H 0.85787 0.97398 0.73171 0.0
H877 H 0.87478 0.98296 0.67114 0.0
C878 C 0.9221 -0.00421 0.63937 0.0
C879 C 0.96015 0.9921 0.63585 0.0
C880 C 0.87254 0.94956 0.73968 0.0
C881 C 0.92476 0.96282 0.69658 0.0
C882 C 0.85556 0.92462 0.76271 0.0
C883 C 0.87345 0.89198 0.77174 0.0
C884 C 0.9075 0.94142 0.72581 0.0
C885 C 0.90933 0.88629 0.75973 0.0
C886 C 0.90428 0.98126 0.66975 0.0
C887 C 0.97957 0.97466 0.66402 0.0
N888 N 0.92513 0.91069 0.73716 0.0
N889 N 0.96162 0.96026 0.69281 0.0
H890 H 0.14055 0.81919 0.72829 0.0
H891 H 0.05704 0.82136 0.9236 0.0
H892 H 0.14131 0.72623 0.7999 0.0
H893 H 0.04844 0.90987 0.84669 0.0
H894 H 0.07267 0.7804 0.87337 0.0
H895 H 0.09049 0.84558 0.76361 0.0
C896 C 0.12946 0.8039 0.7509 0.0
C897 C 0.14586 0.7712 0.76209 0.0
C898 C 0.06672 0.80867 0.86742 0.0
C899 C 0.08963 0.80165 0.80333 0.0
C900 C 0.05806 0.83211 0.89614 0.0
C901 C 0.05281 0.86932 0.88948 0.0
C902 C 0.07044 0.82271 0.83199 0.0
C903 C 0.05351 0.88159 0.85328 0.0
C904 C 0.10092 0.81898 0.77116 0.0
C905 C 0.12994 0.75199 0.79093 0.0
N906 N 0.06286 0.85847 0.826 0.0
N907 N 0.1034 0.76808 0.81137 0.0
H908 H -0.00502 0.39798 0.56793 0.0
H909 H 0.82741 0.40073 0.70639 0.0
H910 H 0.89553 0.46002 0.55093 0.0
H911 H 0.9145 0.32067 0.71238 0.0
H912 H 0.85384 0.42392 0.65029 0.0
H913 H 0.96635 0.36813 0.61994 0.0
C914 C 0.96688 0.40478 0.57458 0.0
C915 C 0.94782 0.43194 0.55525 0.0
C916 C 0.86722 0.40129 0.66386 0.0
C917 C 0.9153 0.39848 0.61524 0.0
C918 C 0.85235 0.38824 0.69618 0.0
C919 C 0.86876 0.35866 0.71425 0.0
C920 C 0.89892 0.3849 0.64947 0.0
C921 C 0.90095 0.34355 0.69944 0.0
C922 C 0.95066 0.38789 0.60446 0.0
C923 C 0.91144 0.43948 0.56512 0.0
N924 N 0.915 0.35685 0.66789 0.0
N925 N 0.89658 0.42326 0.59476 0.0
H926 H 0.62014 0.18269 0.45417 0.0
H927 H 0.45071 0.31701 0.4668 0.0
H928 H 0.56223 0.20548 0.55413 0.0
H929 H 0.48626 0.25602 0.37243 0.0
H930 H 0.50682 0.29822 0.49862 0.0
H931 H 0.58942 0.2345 0.42558 0.0
C932 C 0.60201 0.19962 0.47049 0.0
C933 C 0.59279 0.18953 0.5061 0.0
C934 C 0.50257 0.28968 0.47069 0.0
C935 C 0.5567 0.24747 0.47337 0.0
C936 C 0.47064 0.30018 0.45261 0.0
C937 C 0.46358 0.28701 0.41741 0.0
C938 C 0.52769 0.2666 0.453 0.0
C939 C 0.4903 0.26582 0.39995 0.0
C940 C 0.58434 0.22897 0.45414 0.0
C941 C 0.56954 0.21231 0.52637 0.0
N942 N 0.52109 0.25601 0.41806 0.0
N943 N 0.5512 0.23974 0.5093 0.0
H944 H 0.55832 0.70075 0.04046 0.0
H945 H 0.61546 0.76851 0.23694 0.0
H946 H 0.49901 0.67777 0.13915 0.0
H947 H 0.68923 0.73846 0.14975 0.0
H948 H 0.56402 0.76293 0.19467 0.0
H949 H 0.59539 0.74448 0.07414 0.0
C950 C 0.55191 0.70641 0.06877 0.0
C951 C 0.5263 0.68559 0.08752 0.0
C952 C 0.5916 0.75842 0.18475 0.0
C953 C 0.56832 0.73446 0.1258 0.0
C954 C 0.62083 0.76123 0.2088 0.0
C955 C 0.65637 0.75275 0.19693 0.0
C956 C 0.59821 0.74761 0.14866 0.0
C957 C 0.66205 0.74407 0.16017 0.0
C958 C 0.57316 0.73104 0.08797 0.0
C959 C 0.519 0.69328 0.12415 0.0
N960 N 0.63315 0.74135 0.13734 0.0
N961 N 0.54051 0.71672 0.14245 0.0
H962 H 0.16604 0.16876 0.79996 0.0
H963 H 0.09352 0.16915 0.5944 0.0
H964 H 0.22612 0.20995 0.70785 0.0
H965 H 0.06594 0.08576 0.67201 0.0
H966 H 0.1275 0.20059 0.6423 0.0
H967 H 0.11549 0.1534 0.75858 0.0
C968 C 0.16831 0.17496 0.77118 0.0
C969 C 0.20037 0.1899 0.75701 0.0
C970 C 0.11328 0.17581 0.64893 0.0
C971 C 0.14292 0.17358 0.71026 0.0
C972 C 0.09376 0.15803 0.62174 0.0
C973 C 0.07757 0.12456 0.62922 0.0
C974 C 0.11609 0.16015 0.68375 0.0
C975 C 0.0787 0.11124 0.66507 0.0
C976 C 0.13961 0.16629 0.74772 0.0
C977 C 0.20208 0.19771 0.71964 0.0
N978 N 0.09805 0.12889 0.691 0.0
N979 N 0.17379 0.18938 0.69753 0.0
H980 H 0.6823 0.38106 0.26462 0.0
H981 H 0.54221 0.33844 0.42089 0.0
H982 H 0.68192 0.27716 0.3192 0.0
H983 H 0.52679 0.42507 0.34292 0.0
H984 H 0.58904 0.3117 0.38147 0.0
H985 H 0.62336 0.39558 0.29181 0.0
C986 C 0.66988 0.3613 0.2825 0.0
C987 C 0.68736 0.32802 0.29006 0.0
C988 C 0.57484 0.33611 0.37261 0.0
C989 C 0.61939 0.34448 0.32121 0.0
C990 C 0.54782 0.35129 0.395 0.0
C991 C 0.53106 0.38455 0.38567 0.0
C992 C 0.58544 0.35465 0.34097 0.0
C993 C 0.53946 0.39983 0.35168 0.0
C994 C 0.63594 0.36946 0.29771 0.0
C995 C 0.66954 0.30326 0.31291 0.0
N996 N 0.56666 0.3852 0.33097 0.0
N997 N 0.63667 0.31218 0.32809 0.0
H998 H 0.47928 0.98549 0.13023 0.0
H999 H 0.34758 0.83185 0.20464 0.0
H1000 H 0.38926 0.9447 0.06706 0.0
H1001 H 0.38206 0.9215 0.27159 0.0
H1002 H 0.38072 0.85807 0.15287 0.0
H1003 H 0.46078 0.94656 0.18116 0.0
C1004 C 0.45612 0.96777 0.12683 0.0
C1005 C 0.43547 0.96844 0.09465 0.0
C1006 C 0.38157 0.87144 0.17917 0.0
C1007 C 0.41487 0.92376 0.15214 0.0
C1008 C 0.36296 0.85649 0.20866 0.0
C1009 C 0.36199 0.87481 0.24219 0.0
C1010 C 0.39994 0.90432 0.1837 0.0
C1011 C 0.38199 0.90681 0.246 0.0
C1012 C 0.44561 0.94577 0.15584 0.0
C1013 C 0.40559 0.94517 0.09163 0.0
N1014 N 0.40015 0.92068 0.21698 0.0
N1015 N 0.3961 0.92371 0.12013 0.0
H1016 H 0.97136 0.65924 0.04671 0.0
H1017 H 0.89535 0.70852 0.85044 0.0
H1018 H 0.01304 0.61352 0.94624 0.0
H1019 H 0.86471 0.77059 0.94566 0.0
H1020 H 0.94216 0.67727 0.88563 0.0
H1021 H 0.93601 0.70372 0.01134 0.0
C1022 C 0.9735 0.6588 0.01726 0.0
C1023 C -0.00517 0.63215 -0.00059 0.0
C1024 C 0.92558 0.69789 0.899 0.0
C1025 C 0.95432 0.68293 0.9589 0.0
C1026 C 0.89872 0.71567 0.8789 0.0
C1027 C 0.87588 0.74174 0.89537 0.0
C1028 C 0.92935 0.70557 0.93625 0.0
C1029 C 0.88175 0.75046 0.9321 0.0
C1030 C 0.9533 0.68427 -0.00288 0.0
C1031 C -0.00331 0.63317 0.96124 0.0
N1032 N 0.90761 0.73188 0.95161 0.0
N1033 N 0.9764 0.65781 0.94234 0.0
H1034 H 0.40037 0.53896 0.15643 0.0
H1035 H 0.45281 0.42597 0.32871 0.0
H1036 H 0.51192 0.52255 0.19112 0.0
H1037 H 0.34288 0.45698 0.29948 0.0
H1038 H 0.476 0.47416 0.28902 0.0
H1039 H 0.37957 0.52182 0.21695 0.0
C1040 C 0.42048 0.53187 0.17696 0.0
C1041 C 0.45779 0.53113 0.16862 0.0
C1042 C 0.44677 0.4713 0.29225 0.0
C1043 C 0.43431 0.511 0.2379 0.0
C1044 C 0.43363 0.44401 0.31507 0.0
C1045 C 0.39609 0.43751 0.31651 0.0
C1046 C 0.42195 0.49144 0.27077 0.0
C1047 C 0.37211 0.46113 0.29842 0.0
C1048 C 0.40867 0.52238 0.21165 0.0
C1049 C 0.48282 0.5228 0.19641 0.0
N1050 N 0.38547 0.48667 0.27568 0.0
N1051 N 0.47058 0.51217 0.22968 0.0
H1052 H 0.35669 0.54586 0.97247 0.0
H1053 H 0.31136 0.72931 0.88221 0.0
H1054 H 0.36856 0.64877 0.02692 0.0
H1055 H 0.26493 0.62991 0.84214 0.0
H1056 H 0.32242 0.70022 0.94077 0.0
H1057 H 0.31162 0.57384 0.93152 0.0
C1058 C 0.34849 0.57391 0.97684 0.0
C1059 C 0.36677 0.59543 0.00229 0.0
C1060 C 0.3092 0.68477 0.91952 0.0
C1061 C 0.31646 0.62767 0.9554 0.0
C1062 C 0.30321 0.70136 0.88601 0.0
C1063 C 0.288 0.68164 0.85733 0.0
C1064 C 0.30109 0.6478 0.92398 0.0
C1065 C 0.27717 0.64577 0.86367 0.0
C1066 C 0.32301 0.58998 0.95331 0.0
C1067 C 0.35547 0.63159 0.00696 0.0
N1068 N 0.28482 0.62959 0.89614 0.0
N1069 N 0.33165 0.64686 0.98311 0.0
H1070 H 0.15465 0.51025 0.54166 0.0
H1071 H 0.2264 0.59821 0.72485 0.0
H1072 H 0.09338 0.52187 0.6415 0.0
H1073 H 0.26032 0.63174 0.61731 0.0
H1074 H 0.19561 0.54641 0.69798 0.0
H1075 H 0.20967 0.53052 0.57372 0.0
C1076 C 0.15326 0.51545 0.57071 0.0
C1077 C 0.11966 0.51497 0.58911 0.0
C1078 C 0.21057 0.56463 0.68039 0.0
C1079 C 0.18178 0.53783 0.6255 0.0
C1080 C 0.22798 0.59434 0.69561 0.0
C1081 C 0.24477 0.62009 0.67309 0.0
C1082 C 0.20978 0.56071 0.64242 0.0
C1083 C 0.24691 0.61301 0.63555 0.0
C1084 C 0.18448 0.52722 0.58884 0.0
C1085 C 0.11888 0.52229 0.62649 0.0
N1086 N 0.22879 0.58432 0.62121 0.0
N1087 N 0.14946 0.53391 0.64343 0.0
H1088 H 0.33391 0.34909 0.73195 0.0
H1089 H 0.42495 0.33375 0.53806 0.0
H1090 H 0.35454 0.24539 0.68028 0.0
H1091 H 0.36616 0.42979 0.57403 0.0
H1092 H 0.39747 0.29976 0.58807 0.0
H1093 H 0.34581 0.37914 0.67376 0.0
C1094 C 0.34097 0.33267 0.7084 0.0
C1095 C 0.34353 0.29475 0.71101 0.0
C1096 C 0.39007 0.32811 0.58454 0.0
C1097 C 0.35702 0.32882 0.64445 0.0
C1098 C 0.40564 0.34751 0.5559 0.0
C1099 C 0.39856 0.3849 0.55236 0.0
C1100 C 0.36777 0.34642 0.60995 0.0
C1101 C 0.37298 0.40117 0.57607 0.0
C1102 C 0.34738 0.34977 0.67512 0.0
C1103 C 0.35237 0.27474 0.6795 0.0
N1104 N 0.35915 0.38202 0.60437 0.0
N1105 N 0.35919 0.29204 0.6476 0.0
H1106 H 0.26512 0.7149 0.23901 0.0
H1107 H 0.08745 0.65833 0.12888 0.0
H1108 H 0.15767 0.76169 0.25606 0.0
H1109 H 0.17988 0.58505 0.13981 0.0
H1110 H 0.11838 0.70226 0.16673 0.0
H1111 H 0.23885 0.67189 0.19546 0.0
C1112 C 0.23605 0.71614 0.2336 0.0
C1113 C 0.21349 0.74188 0.25122 0.0
C1114 C 0.13202 0.67664 0.1608 0.0
C1115 C 0.18366 0.69329 0.20131 0.0
C1116 C 0.11444 0.6515 0.13904 0.0
C1117 C 0.13086 0.61762 0.13159 0.0
C1118 C 0.16643 0.66814 0.17529 0.0
C1119 C 0.16616 0.61074 0.14507 0.0
C1120 C 0.22117 0.69159 0.20884 0.0
C1121 C 0.17606 0.74223 0.24329 0.0
N1122 N 0.18277 0.63577 0.16659 0.0
N1123 N 0.16238 0.71843 0.2188 0.0
H1124 H 0.68108 0.28669 0.69325 0.0
H1125 H 0.61131 0.46046 0.58428 0.0
H1126 H 0.70486 0.39698 0.72486 0.0
H1127 H 0.56612 0.35367 0.56825 0.0
H1128 H 0.64972 0.43634 0.63249 0.0
H1129 H 0.64162 0.30983 0.64496 0.0
C1130 C 0.67788 0.31582 0.69012 0.0
C1131 C 0.69643 0.34004 0.71292 0.0
C1132 C 0.63142 0.41816 0.61846 0.0
C1133 C 0.65155 0.36651 0.65766 0.0
C1134 C 0.60957 0.43182 0.59073 0.0
C1135 C 0.58527 0.40903 0.5723 0.0
C1136 C 0.6292 0.38139 0.62779 0.0
C1137 C 0.58441 0.37218 0.58182 0.0
C1138 C 0.65531 0.32894 0.66258 0.0
C1139 C 0.69105 0.37741 0.70788 0.0
N1140 N 0.6061 0.35945 0.60907 0.0
N1141 N 0.66923 0.38954 0.68053 0.0
H1142 H 0.86806 0.65139 0.31022 0.0
H1143 H 0.91701 0.50297 0.15951 0.0
H1144 H 0.79509 0.61978 0.22376 0.0
H1145 H 0.99289 0.57889 0.20567 0.0
H1146 H 0.87026 0.52449 0.20301 0.0
H1147 H 0.91034 0.60274 0.29176 0.0
C1148 C 0.86043 0.63366 0.288 0.0
C1149 C 0.82854 0.64035 0.26772 0.0
C1150 C 0.89752 0.53556 0.2042 0.0
C1151 C 0.87657 0.58474 0.24687 0.0
C1152 C 0.9241 0.52333 0.17954 0.0
C1153 C 0.95836 0.53994 0.17864 0.0
C1154 C 0.90576 0.56397 0.22827 0.0
C1155 C 0.96642 0.56607 0.2051 0.0
C1156 C 0.88458 0.60595 0.27754 0.0
C1157 C 0.81987 0.61618 0.23949 0.0
N1158 N 0.94014 0.57761 0.22863 0.0
N1159 N 0.84409 0.58978 0.22945 0.0
H1160 H 0.88727 0.61841 0.54311 0.0
H1161 H 0.84154 0.64547 0.75431 0.0
H1162 H 0.94081 0.55793 0.62891 0.0
H1163 H 0.83514 0.73013 0.67307 0.0
H1164 H 0.85953 0.60213 0.7062 0.0
H1165 H 0.84794 0.6477 0.58906 0.0
C1166 C 0.89011 0.61077 0.57149 0.0
C1167 C 0.91772 0.58667 0.58264 0.0
C1168 C 0.85369 0.63016 0.69909 0.0
C1169 C 0.87321 0.61934 0.63462 0.0
C1170 C 0.84372 0.65477 0.72638 0.0
C1171 C 0.83795 0.69139 0.71757 0.0
C1172 C 0.85694 0.64241 0.66299 0.0
C1173 C 0.84045 0.70224 0.68104 0.0
C1174 C 0.86784 0.62742 0.59757 0.0
C1175 C 0.92033 0.57724 0.61957 0.0
N1176 N 0.84991 0.67784 0.65504 0.0
N1177 N 0.89857 0.59395 0.64445 0.0
H1178 H 0.41812 0.54797 0.37372 0.0
H1179 H 0.31431 0.72868 0.43893 0.0
H1180 H 0.36414 0.55899 0.47809 0.0
H1181 H 0.36426 0.71529 0.3329 0.0
H1182 H 0.33075 0.66575 0.45326 0.0
H1183 H 0.39319 0.60703 0.35598 0.0
C1184 C 0.40035 0.56237 0.39262 0.0
C1185 C 0.39398 0.54888 0.4278 0.0
C1186 C 0.33817 0.67666 0.4269 0.0
C1187 C 0.36613 0.61685 0.40798 0.0
C1188 C 0.32924 0.71273 0.41891 0.0
C1189 C 0.33794 0.72729 0.38469 0.0
C1190 C 0.35599 0.65511 0.40052 0.0
C1191 C 0.35693 0.7052 0.35962 0.0
C1192 C 0.38642 0.59631 0.38259 0.0
C1193 C 0.37036 0.56859 0.45091 0.0
N1194 N 0.36521 0.67022 0.36801 0.0
N1195 N 0.35784 0.60193 0.44084 0.0
H1196 H 0.28924 0.3693 0.89423 0.0
H1197 H 0.09326 0.45527 0.94056 0.0
H1198 H 0.18831 0.31209 0.87837 0.0
H1199 H 0.18923 0.48247 0.00264 0.0
H1200 H 0.12997 0.41189 0.90517 0.0
H1201 H 0.25461 0.41945 0.92277 0.0
C1202 C 0.25981 0.3674 0.89649 0.0
C1203 C 0.24163 0.33637 0.8841 0.0
C1204 C 0.14303 0.4277 0.92627 0.0
C1205 C 0.20202 0.39378 0.91599 0.0
C1206 C 0.1222 0.45272 0.9463 0.0
C1207 C 0.13811 0.47247 0.97482 0.0
C1208 C 0.18022 0.42273 0.93432 0.0
C1209 C 0.17576 0.4677 0.98107 0.0
C1210 C 0.24016 0.39594 0.91284 0.0
C1211 C 0.20348 0.33533 0.88782 0.0
N1212 N 0.19554 0.44325 0.96104 0.0
N1213 N 0.18494 0.36365 0.90325 0.0
H1214 H 0.3092 0.42526 0.45222 0.0
H1215 H 0.09727 0.42413 0.48323 0.0
H1216 H 0.24577 0.33037 0.47655 0.0
H1217 H 0.15765 0.51759 0.44699 0.0
H1218 H 0.15415 0.39437 0.49996 0.0
H1219 H 0.25848 0.46366 0.4731 0.0
C1220 C 0.28526 0.41248 0.46365 0.0
C1221 C 0.28077 0.37478 0.46139 0.0
C1222 C 0.15507 0.42146 0.48851 0.0
C1223 C 0.22286 0.41817 0.48424 0.0
C1224 C 0.12257 0.43831 0.47836 0.0
C1225 C 0.12277 0.47304 0.46258 0.0
C1226 C 0.18826 0.43896 0.48212 0.0
C1227 C 0.15636 0.49044 0.4582 0.0
C1228 C 0.25614 0.43443 0.47512 0.0
C1229 C 0.2496 0.35949 0.47684 0.0
N1230 N 0.1879 0.47294 0.46739 0.0
N1231 N 0.22126 0.38132 0.48671 0.0
loop_
_geom_bond_atom_site_label_1
_geom_bond_atom_site_label_2
_geom_bond_distance
_geom_bond_site_symmetry_2
_ccdc_geom_bond_type
O0 Zn1 1.954 . S
O0 C16 1.224 1_554 S
Zn1 O0 1.954 . S
Zn1 O2 1.948 1_545 S
Zn1 O8 1.919 1_455 S
Zn1 O13 1.924 . S
O2 Zn1 1.948 1_565 S
O2 Zn3 1.894 1_465 S
O2 Zn4 1.954 1_564 S
O2 Zn5 1.971 . S
Zn3 O2 1.894 1_645 S
Zn3 O6 1.933 1_545 S
Zn3 O9 1.941 . S
Zn3 O10 1.965 1_554 S
Zn4 O2 1.954 1_546 S
Zn4 O11 1.938 1_455 S
Zn4 O12 1.906 1_545 S
Zn4 O22 1.953 . S
Zn5 O2 1.971 . S
Zn5 O7 1.932 1_455 S
Zn5 O14 1.977 1_554 S
Zn5 O15 1.910 . S
O6 Zn3 1.933 1_565 S
O6 C17 1.226 . S
O7 Zn5 1.932 1_655 S
O7 C17 1.307 . S
O8 Zn1 1.919 1_655 S
O8 C19 1.253 . S
O9 Zn3 1.941 . S
O9 C19 1.283 . S
O10 Zn3 1.965 1_556 S
O10 C18 1.303 . S
O11 Zn4 1.938 1_655 S
O11 C18 1.247 . S
O12 Zn4 1.906 1_565 S
O12 C20 1.304 . S
O13 Zn1 1.924 . S
O13 C21 1.311 1_545 S
O14 Zn5 1.977 1_556 S
O14 C20 1.272 . S
O15 Zn5 1.910 . S
O15 C21 1.231 . S
C16 O0 1.224 1_556 S
C16 O22 1.298 . S
C17 O6 1.226 . S
C17 O7 1.307 . S
C18 O10 1.303 . S
C18 O11 1.247 . S
C19 O8 1.253 . S
C19 O9 1.283 . S
C20 O12 1.304 . S
C20 O14 1.272 . S
C21 O13 1.311 1_565 S
C21 O15 1.231 . S
O22 Zn4 1.953 . S
O22 C16 1.298 . S
O23 Zn24 1.953 . S
O23 C39 1.225 . S
Zn24 O23 1.953 . S
Zn24 O25 1.949 . S
Zn24 O31 1.919 . S
Zn24 O36 1.924 . S
O25 Zn24 1.949 . S
O25 Zn26 1.923 . S
O25 Zn27 1.950 . S
O25 Zn28 1.945 . S
Zn26 O25 1.923 . S
Zn26 O29 1.933 . S
Zn26 O32 1.941 . S
Zn26 O33 1.965 . S
Zn27 O25 1.950 . S
Zn27 O34 1.938 . S
Zn27 O35 1.906 . S
Zn27 O45 1.953 . S
Zn28 O25 1.945 . S
Zn28 O30 1.932 . S
Zn28 O37 1.977 . S
Zn28 O38 1.910 . S
O29 Zn26 1.933 . S
O29 C40 1.226 . S
O30 Zn28 1.932 . S
O30 C40 1.307 . S
O31 Zn24 1.919 . S
O31 C42 1.253 . S
O32 Zn26 1.941 . S
O32 C42 1.283 . S
O33 Zn26 1.965 . S
O33 C41 1.303 . S
O34 Zn27 1.938 . S
O34 C41 1.247 . S
O35 Zn27 1.906 . S
O35 C43 1.304 . S
O36 Zn24 1.924 . S
O36 C44 1.311 . S
O37 Zn28 1.977 . S
O37 C43 1.272 . S
O38 Zn28 1.910 . S
O38 C44 1.231 . S
C39 O23 1.225 . S
C39 O45 1.298 . S
C40 O29 1.226 . S
C40 O30 1.307 . S
C41 O33 1.303 . S
C41 O34 1.247 . S
C42 O31 1.253 . S
C42 O32 1.283 . S
C43 O35 1.304 . S
C43 O37 1.272 . S
C44 O36 1.311 . S
C44 O38 1.231 . S
O45 Zn27 1.953 . S
O45 C39 1.298 . S
O46 Zn47 1.953 1_565 S
O46 C62 1.225 . S
Zn47 O46 1.953 1_545 S
Zn47 O48 1.949 . S
Zn47 O54 1.919 1_545 S
Zn47 O59 1.924 . S
O48 Zn47 1.949 . S
O48 Zn49 1.923 . S
O48 Zn50 1.950 . S
O48 Zn51 1.945 . S
Zn49 O48 1.923 . S
Zn49 O52 1.933 . S
Zn49 O55 1.941 . S
Zn49 O56 1.965 . S
Zn50 O48 1.950 . S
Zn50 O57 1.938 . S
Zn50 O58 1.906 . S
Zn50 O68 1.953 . S
Zn51 O48 1.945 . S
Zn51 O53 1.932 . S
Zn51 O60 1.977 . S
Zn51 O61 1.910 . S
O52 Zn49 1.933 . S
O52 C63 1.226 . S
O53 Zn51 1.932 . S
O53 C63 1.307 . S
O54 Zn47 1.919 1_565 S
O54 C65 1.253 . S
O55 Zn49 1.941 . S
O55 C65 1.283 1_545 S
O56 Zn49 1.965 . S
O56 C64 1.303 . S
O57 Zn50 1.938 . S
O57 C64 1.247 . S
O58 Zn50 1.906 . S
O58 C66 1.304 . S
O59 Zn47 1.924 . S
O59 C67 1.311 . S
O60 Zn51 1.977 . S
O60 C66 1.272 . S
O61 Zn51 1.910 . S
O61 C67 1.231 . S
C62 O46 1.225 . S
C62 O68 1.298 1_565 S
C63 O52 1.226 . S
C63 O53 1.307 . S
C64 O56 1.303 . S
C64 O57 1.247 . S
C65 O54 1.253 . S
C65 O55 1.283 1_565 S
C66 O58 1.304 . S
C66 O60 1.272 . S
C67 O59 1.311 . S
C67 O61 1.231 . S
O68 Zn50 1.953 . S
O68 C62 1.298 1_545 S
O69 Zn70 1.953 . S
O69 C85 1.225 . S
Zn70 O69 1.953 . S
Zn70 O71 1.949 . S
Zn70 O77 1.919 . S
Zn70 O82 1.924 . S
O71 Zn70 1.949 . S
O71 Zn72 1.923 . S
O71 Zn73 1.950 . S
O71 Zn74 1.945 . S
Zn72 O71 1.923 . S
Zn72 O75 1.933 . S
Zn72 O78 1.941 . S
Zn72 O79 1.965 . S
Zn73 O71 1.950 . S
Zn73 O80 1.938 . S
Zn73 O81 1.906 . S
Zn73 O91 1.953 . S
Zn74 O71 1.945 . S
Zn74 O76 1.932 . S
Zn74 O83 1.977 . S
Zn74 O84 1.910 . S
O75 Zn72 1.933 . S
O75 C86 1.226 . S
O76 Zn74 1.932 . S
O76 C86 1.307 . S
O77 Zn70 1.919 . S
O77 C88 1.253 . S
O78 Zn72 1.941 . S
O78 C88 1.283 . S
O79 Zn72 1.965 . S
O79 C87 1.303 . S
O80 Zn73 1.938 . S
O80 C87 1.247 . S
O81 Zn73 1.906 . S
O81 C89 1.304 . S
O82 Zn70 1.924 . S
O82 C90 1.311 . S
O83 Zn74 1.977 . S
O83 C89 1.272 . S
O84 Zn74 1.910 . S
O84 C90 1.231 . S
C85 O69 1.225 . S
C85 O91 1.298 . S
C86 O75 1.226 . S
C86 O76 1.307 . S
C87 O79 1.303 . S
C87 O80 1.247 . S
C88 O77 1.253 . S
C88 O78 1.283 . S
C89 O81 1.304 . S
C89 O83 1.272 . S
C90 O82 1.311 . S
C90 O84 1.231 . S
O91 Zn73 1.953 . S
O91 C85 1.298 . S
O92 Zn93 1.953 1_565 S
O92 C108 1.225 . S
Zn93 O92 1.953 1_545 S
Zn93 O94 1.949 . S
Zn93 O100 1.919 . S
Zn93 O105 1.924 1_545 S
O94 Zn93 1.949 . S
O94 Zn95 1.923 . S
O94 Zn96 1.950 1_455 S
O94 Zn97 1.945 . S
Zn95 O94 1.923 . S
Zn95 O98 1.933 . S
Zn95 O101 1.941 . S
Zn95 O102 1.965 . S
Zn96 O94 1.950 1_655 S
Zn96 O103 1.938 . S
Zn96 O104 1.906 . S
Zn96 O114 1.953 1_545 S
Zn97 O94 1.945 . S
Zn97 O99 1.932 . S
Zn97 O106 1.977 . S
Zn97 O107 1.910 1_545 S
O98 Zn95 1.933 . S
O98 C109 1.226 . S
O99 Zn97 1.932 . S
O99 C109 1.307 . S
O100 Zn93 1.919 . S
O100 C111 1.253 . S
O101 Zn95 1.941 . S
O101 C111 1.283 . S
O102 Zn95 1.965 . S
O102 C110 1.303 1_455 S
O103 Zn96 1.938 . S
O103 C110 1.247 . S
O104 Zn96 1.906 . S
O104 C112 1.304 . S
O105 Zn93 1.924 1_565 S
O105 C113 1.311 . S
O106 Zn97 1.977 . S
O106 C112 1.272 1_455 S
O107 Zn97 1.910 1_565 S
O107 C113 1.231 . S
C108 O92 1.225 . S
C108 O114 1.298 1_455 S
C109 O98 1.226 . S
C109 O99 1.307 . S
C110 O102 1.303 1_655 S
C110 O103 1.247 . S
C111 O100 1.253 . S
C111 O101 1.283 . S
C112 O104 1.304 . S
C112 O106 1.272 1_655 S
C113 O105 1.311 . S
C113 O107 1.231 . S
O114 Zn96 1.953 1_565 S
O114 C108 1.298 1_655 S
O115 Zn116 1.953 . S
O115 C131 1.225 . S
Zn116 O115 1.953 . S
Zn116 O117 1.949 . S
Zn116 O123 1.919 . S
Zn116 O128 1.924 . S
O117 Zn116 1.949 . S
O117 Zn118 1.923 . S
O117 Zn119 1.950 . S
O117 Zn120 1.945 . S
Zn118 O117 1.923 . S
Zn118 O121 1.933 . S
Zn118 O124 1.941 . S
Zn118 O125 1.965 . S
Zn119 O117 1.950 . S
Zn119 O126 1.938 . S
Zn119 O127 1.906 . S
Zn119 O137 1.953 . S
Zn120 O117 1.945 . S
Zn120 O122 1.932 . S
Zn120 O129 1.977 . S
Zn120 O130 1.910 . S
O121 Zn118 1.933 . S
O121 C132 1.226 . S
O122 Zn120 1.932 . S
O122 C132 1.307 . S
O123 Zn116 1.919 . S
O123 C134 1.253 . S
O124 Zn118 1.941 . S
O124 C134 1.283 . S
O125 Zn118 1.965 . S
O125 C133 1.303 . S
O126 Zn119 1.938 . S
O126 C133 1.247 . S
O127 Zn119 1.906 . S
O127 C135 1.304 . S
O128 Zn116 1.924 . S
O128 C136 1.311 . S
O129 Zn120 1.977 . S
O129 C135 1.272 . S
O130 Zn120 1.910 . S
O130 C136 1.231 . S
C131 O115 1.225 . S
C131 O137 1.298 . S
C132 O121 1.226 . S
C132 O122 1.307 . S
C133 O125 1.303 . S
C133 O126 1.247 . S
C134 O123 1.253 . S
C134 O124 1.283 . S
C135 O127 1.304 . S
C135 O129 1.272 . S
C136 O128 1.311 . S
C136 O130 1.231 . S
O137 Zn119 1.953 . S
O137 C131 1.298 . S
O138 Zn139 1.953 . S
O138 C154 1.225 . S
Zn139 O138 1.953 . S
Zn139 O140 1.949 . S
Zn139 O146 1.919 1_545 S
Zn139 O151 1.924 1_545 S
O140 Zn139 1.949 . S
O140 Zn141 1.923 . S
O140 Zn142 1.950 . S
O140 Zn143 1.924 1_554 S
Zn141 O140 1.923 . S
Zn141 O144 1.933 . S
Zn141 O147 1.941 . S
Zn141 O148 1.965 . S
Zn142 O140 1.950 . S
Zn142 O149 1.938 . S
Zn142 O150 1.906 . S
Zn142 O160 1.953 . S
Zn143 O140 1.924 1_556 S
Zn143 O145 1.943 . S
Zn143 O152 1.989 . S
Zn143 O153 1.911 1_545 S
O144 Zn141 1.933 . S
O144 C155 1.226 1_554 S
O145 Zn143 1.943 . S
O145 C155 1.307 . S
O146 Zn139 1.919 1_565 S
O146 C157 1.253 . S
O147 Zn141 1.941 . S
O147 C157 1.283 1_545 S
O148 Zn141 1.965 . S
O148 C156 1.303 . S
O149 Zn142 1.938 . S
O149 C156 1.247 . S
O150 Zn142 1.906 . S
O150 C158 1.304 1_554 S
O151 Zn139 1.924 1_565 S
O151 C159 1.311 . S
O152 Zn143 1.989 . S
O152 C158 1.272 . S
O153 Zn143 1.911 1_565 S
O153 C159 1.231 1_556 S
C154 O138 1.225 . S
C154 O160 1.298 . S
C155 O144 1.226 1_556 S
C155 O145 1.307 . S
C156 O148 1.303 . S
C156 O149 1.247 . S
C157 O146 1.253 . S
C157 O147 1.283 1_565 S
C158 O150 1.304 1_556 S
C158 O152 1.272 . S
C159 O151 1.311 . S
C159 O153 1.231 1_554 S
O160 Zn142 1.953 . S
O160 C154 1.298 . S
O161 Zn162 1.953 . S
O161 C177 1.225 . S
Zn162 O161 1.953 . S
Zn162 O163 1.949 . S
Zn162 O169 1.919 . S
Zn162 O174 1.924 . S
O163 Zn162 1.949 . S
O163 Zn164 1.923 . S
O163 Zn165 1.950 . S
O163 Zn166 1.945 . S
Zn164 O163 1.923 . S
Zn164 O167 1.933 . S
Zn164 O170 1.941 . S
Zn164 O171 1.965 . S
Zn165 O163 1.950 . S
Zn165 O172 1.938 . S
Zn165 O173 1.906 . S
Zn165 O183 1.953 . S
Zn166 O163 1.945 . S
Zn166 O168 1.932 . S
Zn166 O175 1.977 . S
Zn166 O176 1.910 . S
O167 Zn164 1.933 . S
O167 C178 1.226 . S
O168 Zn166 1.932 . S
O168 C178 1.307 . S
O169 Zn162 1.919 . S
O169 C180 1.253 . S
O170 Zn164 1.941 . S
O170 C180 1.283 . S
O171 Zn164 1.965 . S
O171 C179 1.303 . S
O172 Zn165 1.938 . S
O172 C179 1.247 . S
O173 Zn165 1.906 . S
O173 C181 1.304 . S
O174 Zn162 1.924 . S
O174 C182 1.311 . S
O175 Zn166 1.977 . S
O175 C181 1.272 . S
O176 Zn166 1.910 . S
O176 C182 1.231 . S
C177 O161 1.225 . S
C177 O183 1.298 . S
C178 O167 1.226 . S
C178 O168 1.307 . S
C179 O171 1.303 . S
C179 O172 1.247 . S
C180 O169 1.253 . S
C180 O170 1.283 . S
C181 O173 1.304 . S
C181 O175 1.272 . S
C182 O174 1.311 . S
C182 O176 1.231 . S
O183 Zn165 1.953 . S
O183 C177 1.298 . S
O184 Zn185 1.953 1_556 S
O184 C200 1.225 . S
Zn185 O184 1.953 1_554 S
Zn185 O186 1.949 . S
Zn185 O192 1.919 1_554 S
Zn185 O197 1.924 . S
O186 Zn185 1.949 . S
O186 Zn187 1.923 . S
O186 Zn188 1.950 . S
O186 Zn189 1.945 . S
Zn187 O186 1.923 . S
Zn187 O190 1.933 . S
Zn187 O193 1.941 1_554 S
Zn187 O194 1.965 . S
Zn188 O186 1.950 . S
Zn188 O195 1.938 . S
Zn188 O196 1.906 . S
Zn188 O206 1.953 . S
Zn189 O186 1.945 . S
Zn189 O191 1.932 . S
Zn189 O198 1.977 . S
Zn189 O199 1.910 . S
O190 Zn187 1.933 . S
O190 C201 1.226 . S
O191 Zn189 1.932 . S
O191 C201 1.307 . S
O192 Zn185 1.919 1_556 S
O192 C203 1.253 . S
O193 Zn187 1.941 1_556 S
O193 C203 1.283 . S
O194 Zn187 1.965 . S
O194 C202 1.303 . S
O195 Zn188 1.938 . S
O195 C202 1.247 . S
O196 Zn188 1.906 . S
O196 C204 1.304 . S
O197 Zn185 1.924 . S
O197 C205 1.311 . S
O198 Zn189 1.977 . S
O198 C204 1.272 . S
O199 Zn189 1.910 . S
O199 C205 1.231 . S
C200 O184 1.225 . S
C200 O206 1.298 1_556 S
C201 O190 1.226 . S
C201 O191 1.307 . S
C202 O194 1.303 . S
C202 O195 1.247 . S
C203 O192 1.253 . S
C203 O193 1.283 . S
C204 O196 1.304 . S
C204 O198 1.272 . S
C205 O197 1.311 . S
C205 O199 1.231 . S
O206 Zn188 1.953 . S
O206 C200 1.298 1_554 S
O207 Zn208 1.953 . S
O207 C223 1.225 . S
Zn208 O207 1.953 . S
Zn208 O209 1.949 . S
Zn208 O215 1.919 . S
Zn208 O220 1.924 . S
O209 Zn208 1.949 . S
O209 Zn210 1.923 . S
O209 Zn211 1.950 . S
O209 Zn212 1.945 . S
Zn210 O209 1.923 . S
Zn210 O213 1.933 . S
Zn210 O216 1.941 . S
Zn210 O217 1.965 . S
Zn211 O209 1.950 . S
Zn211 O218 1.938 . S
Zn211 O219 1.906 . S
Zn211 O229 1.953 . S
Zn212 O209 1.945 . S
Zn212 O214 1.932 . S
Zn212 O221 1.977 . S
Zn212 O222 1.910 . S
O213 Zn210 1.933 . S
O213 C224 1.226 . S
O214 Zn212 1.932 . S
O214 C224 1.307 . S
O215 Zn208 1.919 . S
O215 C226 1.253 . S
O216 Zn210 1.941 . S
O216 C226 1.283 . S
O217 Zn210 1.965 . S
O217 C225 1.303 . S
O218 Zn211 1.938 . S
O218 C225 1.247 . S
O219 Zn211 1.906 . S
O219 C227 1.304 . S
O220 Zn208 1.924 . S
O220 C228 1.311 . S
O221 Zn212 1.977 . S
O221 C227 1.272 . S
O222 Zn212 1.910 . S
O222 C228 1.231 . S
C223 O207 1.225 . S
C223 O229 1.298 . S
C224 O213 1.226 . S
C224 O214 1.307 . S
C225 O217 1.303 . S
C225 O218 1.247 . S
C226 O215 1.253 . S
C226 O216 1.283 . S
C227 O219 1.304 . S
C227 O221 1.272 . S
C228 O220 1.311 . S
C228 O222 1.231 . S
O229 Zn211 1.953 . S
O229 C223 1.298 . S
O230 Zn231 1.953 . S
O230 C246 1.225 . S
Zn231 O230 1.953 . S
Zn231 O232 1.949 . S
Zn231 O238 1.919 . S
Zn231 O243 1.924 . S
O232 Zn231 1.949 . S
O232 Zn233 1.923 1_455 S
O232 Zn234 1.950 . S
O232 Zn235 1.945 . S
Zn233 O232 1.923 1_655 S
Zn233 O236 1.933 . S
Zn233 O239 1.941 . S
Zn233 O240 1.965 . S
Zn234 O232 1.950 . S
Zn234 O241 1.938 . S
Zn234 O242 1.906 . S
Zn234 O252 1.953 . S
Zn235 O232 1.945 . S
Zn235 O237 1.932 . S
Zn235 O244 1.977 . S
Zn235 O245 1.910 . S
O236 Zn233 1.933 . S
O236 C247 1.226 . S
O237 Zn235 1.932 . S
O237 C247 1.307 1_455 S
O238 Zn231 1.919 . S
O238 C249 1.253 1_455 S
O239 Zn233 1.941 . S
O239 C249 1.283 . S
O240 Zn233 1.965 . S
O240 C248 1.303 . S
O241 Zn234 1.938 . S
O241 C248 1.247 1_455 S
O242 Zn234 1.906 . S
O242 C250 1.304 . S
O243 Zn231 1.924 . S
O243 C251 1.311 . S
O244 Zn235 1.977 . S
O244 C250 1.272 . S
O245 Zn235 1.910 . S
O245 C251 1.231 . S
C246 O230 1.225 . S
C246 O252 1.298 . S
C247 O236 1.226 . S
C247 O237 1.307 1_655 S
C248 O240 1.303 . S
C248 O241 1.247 1_655 S
C249 O238 1.253 1_655 S
C249 O239 1.283 . S
C250 O242 1.304 . S
C250 O244 1.272 . S
C251 O243 1.311 . S
C251 O245 1.231 . S
O252 Zn234 1.953 . S
O252 C246 1.298 . S
O253 Zn254 1.953 . S
O253 C269 1.225 . S
Zn254 O253 1.953 . S
Zn254 O255 1.949 . S
Zn254 O261 1.919 . S
Zn254 O266 1.924 . S
O255 Zn254 1.949 . S
O255 Zn256 1.923 . S
O255 Zn257 1.950 . S
O255 Zn258 1.945 . S
Zn256 O255 1.923 . S
Zn256 O259 1.933 . S
Zn256 O262 1.941 . S
Zn256 O263 1.965 . S
Zn257 O255 1.950 . S
Zn257 O264 1.938 . S
Zn257 O265 1.906 . S
Zn257 O275 1.953 . S
Zn258 O255 1.945 . S
Zn258 O260 1.932 . S
Zn258 O267 1.977 . S
Zn258 O268 1.910 . S
O259 Zn256 1.933 . S
O259 C270 1.226 . S
O260 Zn258 1.932 . S
O260 C270 1.307 . S
O261 Zn254 1.919 . S
O261 C272 1.253 . S
O262 Zn256 1.941 . S
O262 C272 1.283 . S
O263 Zn256 1.965 . S
O263 C271 1.303 . S
O264 Zn257 1.938 . S
O264 C271 1.247 . S
O265 Zn257 1.906 . S
O265 C273 1.304 . S
O266 Zn254 1.924 . S
O266 C274 1.311 . S
O267 Zn258 1.977 . S
O267 C273 1.272 . S
O268 Zn258 1.910 . S
O268 C274 1.231 . S
C269 O253 1.225 . S
C269 O275 1.298 . S
C270 O259 1.226 . S
C270 O260 1.307 . S
C271 O263 1.303 . S
C271 O264 1.247 . S
C272 O261 1.253 . S
C272 O262 1.283 . S
C273 O265 1.304 . S
C273 O267 1.272 . S
C274 O266 1.311 . S
C274 O268 1.231 . S
O275 Zn257 1.953 . S
O275 C269 1.298 . S
O276 Zn277 1.953 . S
O276 C292 1.225 . S
Zn277 O276 1.953 . S
Zn277 O278 1.949 . S
Zn277 O284 1.919 . S
Zn277 O289 1.924 . S
O278 Zn277 1.949 . S
O278 Zn279 1.923 . S
O278 Zn280 1.950 . S
O278 Zn281 1.945 . S
Zn279 O278 1.923 . S
Zn279 O282 1.933 . S
Zn279 O285 1.941 . S
Zn279 O286 1.965 . S
Zn280 O278 1.950 . S
Zn280 O287 1.938 . S
Zn280 O288 1.906 . S
Zn280 O298 1.953 . S
Zn281 O278 1.945 . S
Zn281 O283 1.932 . S
Zn281 O290 1.977 . S
Zn281 O291 1.910 . S
O282 Zn279 1.933 . S
O282 C293 1.226 . S
O283 Zn281 1.932 . S
O283 C293 1.307 . S
O284 Zn277 1.919 . S
O284 C295 1.253 . S
O285 Zn279 1.941 . S
O285 C295 1.283 . S
O286 Zn279 1.965 . S
O286 C294 1.303 . S
O287 Zn280 1.938 . S
O287 C294 1.247 . S
O288 Zn280 1.906 . S
O288 C296 1.304 . S
O289 Zn277 1.924 . S
O289 C297 1.311 . S
O290 Zn281 1.977 . S
O290 C296 1.272 . S
O291 Zn281 1.910 . S
O291 C297 1.231 . S
C292 O276 1.225 . S
C292 O298 1.298 . S
C293 O282 1.226 . S
C293 O283 1.307 . S
C294 O286 1.303 . S
C294 O287 1.247 . S
C295 O284 1.253 . S
C295 O285 1.283 . S
C296 O288 1.304 . S
C296 O290 1.272 . S
C297 O289 1.311 . S
C297 O291 1.231 . S
O298 Zn280 1.953 . S
O298 C292 1.298 . S
O299 Zn300 1.953 . S
O299 C315 1.225 . S
Zn300 O299 1.953 . S
Zn300 O301 1.949 . S
Zn300 O307 1.919 . S
Zn300 O312 1.924 . S
O301 Zn300 1.949 . S
O301 Zn302 1.923 . S
O301 Zn303 1.950 . S
O301 Zn304 1.945 . S
Zn302 O301 1.923 . S
Zn302 O305 1.933 . S
Zn302 O308 1.941 . S
Zn302 O309 1.965 . S
Zn303 O301 1.950 . S
Zn303 O310 1.938 . S
Zn303 O311 1.906 . S
Zn303 O321 1.953 . S
Zn304 O301 1.945 . S
Zn304 O306 1.932 . S
Zn304 O313 1.977 . S
Zn304 O314 1.910 . S
O305 Zn302 1.933 . S
O305 C316 1.226 . S
O306 Zn304 1.932 . S
O306 C316 1.307 . S
O307 Zn300 1.919 . S
O307 C318 1.253 . S
O308 Zn302 1.941 . S
O308 C318 1.283 . S
O309 Zn302 1.965 . S
O309 C317 1.303 . S
O310 Zn303 1.938 . S
O310 C317 1.247 . S
O311 Zn303 1.906 . S
O311 C319 1.304 . S
O312 Zn300 1.924 . S
O312 C320 1.311 . S
O313 Zn304 1.977 . S
O313 C319 1.272 . S
O314 Zn304 1.910 . S
O314 C320 1.231 . S
C315 O299 1.225 . S
C315 O321 1.298 . S
C316 O305 1.226 . S
C316 O306 1.307 . S
C317 O309 1.303 . S
C317 O310 1.247 . S
C318 O307 1.253 . S
C318 O308 1.283 . S
C319 O311 1.304 . S
C319 O313 1.272 . S
C320 O312 1.311 . S
C320 O314 1.231 . S
O321 Zn303 1.953 . S
O321 C315 1.298 . S
O322 Zn323 1.953 . S
O322 C338 1.225 . S
Zn323 O322 1.953 . S
Zn323 O324 1.949 . S
Zn323 O330 1.919 . S
Zn323 O335 1.924 . S
O324 Zn323 1.949 . S
O324 Zn325 1.923 . S
O324 Zn326 1.950 . S
O324 Zn327 1.945 . S
Zn325 O324 1.923 . S
Zn325 O328 1.933 . S
Zn325 O331 1.941 . S
Zn325 O332 1.965 . S
Zn326 O324 1.950 . S
Zn326 O333 1.938 . S
Zn326 O334 1.906 . S
Zn326 O344 1.953 . S
Zn327 O324 1.945 . S
Zn327 O329 1.932 . S
Zn327 O336 1.977 . S
Zn327 O337 1.910 . S
O328 Zn325 1.933 . S
O328 C339 1.226 . S
O329 Zn327 1.932 . S
O329 C339 1.307 . S
O330 Zn323 1.919 . S
O330 C341 1.253 . S
O331 Zn325 1.941 . S
O331 C341 1.283 . S
O332 Zn325 1.965 . S
O332 C340 1.303 . S
O333 Zn326 1.938 . S
O333 C340 1.247 . S
O334 Zn326 1.906 . S
O334 C342 1.304 . S
O335 Zn323 1.924 . S
O335 C343 1.311 . S
O336 Zn327 1.977 . S
O336 C342 1.272 . S
O337 Zn327 1.910 . S
O337 C343 1.231 . S
C338 O322 1.225 . S
C338 O344 1.298 . S
C339 O328 1.226 . S
C339 O329 1.307 . S
C340 O332 1.303 . S
C340 O333 1.247 . S
C341 O330 1.253 . S
C341 O331 1.283 . S
C342 O334 1.304 . S
C342 O336 1.272 . S
C343 O335 1.311 . S
C343 O337 1.231 . S
O344 Zn326 1.953 . S
O344 C338 1.298 . S
O345 Zn346 1.953 . S
O345 C361 1.225 1_455 S
Zn346 O345 1.953 . S
Zn346 O347 1.949 . S
Zn346 O353 1.919 . S
Zn346 O358 1.924 . S
O347 Zn346 1.949 . S
O347 Zn348 1.923 . S
O347 Zn349 1.950 1_554 S
O347 Zn350 1.945 . S
Zn348 O347 1.923 . S
Zn348 O351 1.933 . S
Zn348 O354 1.941 . S
Zn348 O355 1.965 1_554 S
Zn349 O347 1.950 1_556 S
Zn349 O356 1.938 . S
Zn349 O357 1.906 . S
Zn349 O367 1.953 . S
Zn350 O347 1.945 . S
Zn350 O352 1.932 . S
Zn350 O359 1.977 . S
Zn350 O360 1.910 . S
O351 Zn348 1.933 . S
O351 C362 1.226 . S
O352 Zn350 1.932 . S
O352 C362 1.307 . S
O353 Zn346 1.919 . S
O353 C364 1.253 . S
O354 Zn348 1.941 . S
O354 C364 1.283 . S
O355 Zn348 1.965 1_556 S
O355 C363 1.303 . S
O356 Zn349 1.938 . S
O356 C363 1.247 . S
O357 Zn349 1.906 . S
O357 C365 1.304 . S
O358 Zn346 1.924 . S
O358 C366 1.311 1_455 S
O359 Zn350 1.977 . S
O359 C365 1.272 1_554 S
O360 Zn350 1.910 . S
O360 C366 1.231 1_455 S
C361 O345 1.225 1_655 S
C361 O367 1.298 1_654 S
C362 O351 1.226 . S
C362 O352 1.307 . S
C363 O355 1.303 . S
C363 O356 1.247 . S
C364 O353 1.253 . S
C364 O354 1.283 . S
C365 O357 1.304 . S
C365 O359 1.272 1_556 S
C366 O358 1.311 1_655 S
C366 O360 1.231 1_655 S
O367 Zn349 1.953 . S
O367 C361 1.298 1_456 S
H368 C374 0.930 . S
H369 C378 0.930 . S
H370 C383 0.929 . S
H371 C381 0.929 . S
H372 C376 0.929 . S
H373 C382 0.929 . S
C374 H368 0.930 . S
C374 C375 1.367 . S
C374 C382 1.378 . S
C375 C374 1.367 . S
C375 C383 1.433 . S
C376 H372 0.929 . S
C376 C378 1.378 . S
C376 C380 1.350 . S
C377 C380 1.463 . S
C377 C382 1.350 . S
C377 N385 1.427 . S
C378 H369 0.930 . S
C378 C376 1.378 . S
C378 C379 1.367 . S
C379 C378 1.367 . S
C379 C381 1.433 . S
C380 C376 1.350 . S
C380 C377 1.463 . S
C380 N384 1.427 . S
C381 H371 0.929 . S
C381 C379 1.433 . S
C381 N384 1.384 . S
C382 H373 0.929 . S
C382 C374 1.378 . S
C382 C377 1.350 . S
C383 H370 0.929 . S
C383 C375 1.433 . S
C383 N385 1.384 . S
N384 C380 1.427 . S
N384 C381 1.384 . S
N385 C377 1.427 . S
N385 C383 1.384 . S
H386 C392 0.930 . S
H387 C396 0.930 . S
H388 C401 0.929 . S
H389 C399 0.929 . S
H390 C394 0.929 . S
H391 C400 0.929 . S
C392 H386 0.930 . S
C392 C393 1.367 . S
C392 C400 1.378 . S
C393 C392 1.367 . S
C393 C401 1.433 . S
C394 H390 0.929 . S
C394 C396 1.378 . S
C394 C398 1.350 . S
C395 C398 1.463 . S
C395 C400 1.350 . S
C395 N403 1.427 . S
C396 H387 0.930 . S
C396 C394 1.378 . S
C396 C397 1.367 . S
C397 C396 1.367 . S
C397 C399 1.433 . S
C398 C394 1.350 . S
C398 C395 1.463 . S
C398 N402 1.427 . S
C399 H389 0.929 . S
C399 C397 1.433 . S
C399 N402 1.384 . S
C400 H391 0.929 . S
C400 C392 1.378 . S
C400 C395 1.350 . S
C401 H388 0.929 . S
C401 C393 1.433 . S
C401 N403 1.384 . S
N402 C398 1.427 . S
N402 C399 1.384 . S
N403 C395 1.427 . S
N403 C401 1.384 . S
H404 C410 0.930 . S
H405 C414 0.930 . S
H406 C419 0.929 . S
H407 C417 0.929 . S
H408 C412 0.929 . S
H409 C418 0.929 . S
C410 H404 0.930 . S
C410 C411 1.367 . S
C410 C418 1.378 . S
C411 C410 1.367 . S
C411 C419 1.433 . S
C412 H408 0.929 . S
C412 C414 1.378 . S
C412 C416 1.350 . S
C413 C416 1.463 . S
C413 C418 1.350 . S
C413 N421 1.427 . S
C414 H405 0.930 . S
C414 C412 1.378 . S
C414 C415 1.367 . S
C415 C414 1.367 . S
C415 C417 1.433 . S
C416 C412 1.350 . S
C416 C413 1.463 . S
C416 N420 1.427 . S
C417 H407 0.929 . S
C417 C415 1.433 . S
C417 N420 1.384 . S
C418 H409 0.929 . S
C418 C410 1.378 . S
C418 C413 1.350 . S
C419 H406 0.929 . S
C419 C411 1.433 . S
C419 N421 1.384 . S
N420 C416 1.427 . S
N420 C417 1.384 . S
N421 C413 1.427 . S
N421 C419 1.384 . S
H422 C428 0.930 . S
H423 C432 0.930 . S
H424 C437 0.929 . S
H425 C435 0.929 . S
H426 C430 0.929 . S
H427 C436 0.929 . S
C428 H422 0.930 . S
C428 C429 1.367 . S
C428 C436 1.378 . S
C429 C428 1.367 . S
C429 C437 1.433 . S
C430 H426 0.929 . S
C430 C432 1.378 . S
C430 C434 1.350 . S
C431 C434 1.463 . S
C431 C436 1.350 . S
C431 N439 1.427 . S
C432 H423 0.930 . S
C432 C430 1.378 . S
C432 C433 1.367 . S
C433 C432 1.367 . S
C433 C435 1.433 . S
C434 C430 1.350 . S
C434 C431 1.463 . S
C434 N438 1.427 . S
C435 H425 0.929 . S
C435 C433 1.433 . S
C435 N438 1.384 . S
C436 H427 0.929 . S
C436 C428 1.378 . S
C436 C431 1.350 . S
C437 H424 0.929 . S
C437 C429 1.433 . S
C437 N439 1.384 . S
N438 C434 1.427 . S
N438 C435 1.384 . S
N439 C431 1.427 . S
N439 C437 1.384 . S
H440 C446 0.930 . S
H441 C450 0.930 . S
H442 C455 0.929 . S
H443 C453 0.929 . S
H444 C448 0.929 . S
H445 C454 0.929 . S
C446 H440 0.930 . S
C446 C447 1.367 . S
C446 C454 1.378 . S
C447 C446 1.367 . S
C447 C455 1.433 . S
C448 H444 0.929 . S
C448 C450 1.378 . S
C448 C452 1.350 . S
C449 C452 1.463 . S
C449 C454 1.350 . S
C449 N457 1.427 . S
C450 H441 0.930 . S
C450 C448 1.378 . S
C450 C451 1.367 . S
C451 C450 1.367 . S
C451 C453 1.433 . S
C452 C448 1.350 . S
C452 C449 1.463 . S
C452 N456 1.427 . S
C453 H443 0.929 . S
C453 C451 1.433 . S
C453 N456 1.384 . S
C454 H445 0.929 . S
C454 C446 1.378 . S
C454 C449 1.350 . S
C455 H442 0.929 . S
C455 C447 1.433 . S
C455 N457 1.384 . S
N456 C452 1.427 . S
N456 C453 1.384 . S
N457 C449 1.427 . S
N457 C455 1.384 . S
H458 C464 0.930 . S
H459 C468 0.930 . S
H460 C473 0.929 . S
H461 C471 0.929 1_545 S
H462 C466 0.929 . S
H463 C472 0.929 . S
C464 H458 0.930 . S
C464 C465 1.367 . S
C464 C472 1.378 . S
C465 C464 1.367 . S
C465 C473 1.433 . S
C466 H462 0.929 . S
C466 C468 1.378 . S
C466 C470 1.350 . S
C467 C470 1.463 . S
C467 C472 1.350 . S
C467 N475 1.427 . S
C468 H459 0.930 . S
C468 C466 1.378 . S
C468 C469 1.367 . S
C469 C468 1.367 . S
C469 C471 1.433 . S
C470 C466 1.350 . S
C470 C467 1.463 . S
C470 N474 1.427 . S
C471 H461 0.929 1_565 S
C471 C469 1.433 . S
C471 N474 1.384 . S
C472 H463 0.929 . S
C472 C464 1.378 . S
C472 C467 1.350 . S
C473 H460 0.929 . S
C473 C465 1.433 . S
C473 N475 1.384 . S
N474 C470 1.427 . S
N474 C471 1.384 . S
N475 C467 1.427 . S
N475 C473 1.384 . S
H476 C482 0.930 . S
H477 C486 0.930 . S
H478 C491 0.929 . S
H479 C489 0.929 . S
H480 C484 0.929 . S
H481 C490 0.929 . S
C482 H476 0.930 . S
C482 C483 1.367 . S
C482 C490 1.378 . S
C483 C482 1.367 . S
C483 C491 1.433 . S
C484 H480 0.929 . S
C484 C486 1.378 . S
C484 C488 1.350 . S
C485 C488 1.463 . S
C485 C490 1.350 . S
C485 N493 1.427 . S
C486 H477 0.930 . S
C486 C484 1.378 . S
C486 C487 1.367 . S
C487 C486 1.367 . S
C487 C489 1.433 . S
C488 C484 1.350 . S
C488 C485 1.463 . S
C488 N492 1.427 . S
C489 H479 0.929 . S
C489 C487 1.433 . S
C489 N492 1.384 . S
C490 H481 0.929 . S
C490 C482 1.378 . S
C490 C485 1.350 . S
C491 H478 0.929 . S
C491 C483 1.433 . S
C491 N493 1.384 . S
N492 C488 1.427 . S
N492 C489 1.384 . S
N493 C485 1.427 . S
N493 C491 1.384 . S
H494 C500 0.930 . S
H495 C504 0.930 . S
H496 C509 0.929 . S
H497 C507 0.929 . S
H498 C502 0.929 . S
H499 C508 0.929 . S
C500 H494 0.930 . S
C500 C501 1.367 . S
C500 C508 1.378 . S
C501 C500 1.367 . S
C501 C509 1.433 . S
C502 H498 0.929 . S
C502 C504 1.378 . S
C502 C506 1.350 . S
C503 C506 1.463 . S
C503 C508 1.350 . S
C503 N511 1.427 . S
C504 H495 0.930 . S
C504 C502 1.378 . S
C504 C505 1.367 . S
C505 C504 1.367 . S
C505 C507 1.433 . S
C506 C502 1.350 . S
C506 C503 1.463 . S
C506 N510 1.427 . S
C507 H497 0.929 . S
C507 C505 1.433 . S
C507 N510 1.384 . S
C508 H499 0.929 . S
C508 C500 1.378 . S
C508 C503 1.350 . S
C509 H496 0.929 . S
C509 C501 1.433 . S
C509 N511 1.384 . S
N510 C506 1.427 . S
N510 C507 1.384 . S
N511 C503 1.427 . S
N511 C509 1.384 . S
H512 C518 0.930 . S
H513 C522 0.930 . S
H514 C527 0.929 . S
H515 C525 0.929 . S
H516 C520 0.929 . S
H517 C526 0.929 . S
C518 H512 0.930 . S
C518 C519 1.367 . S
C518 C526 1.378 . S
C519 C518 1.367 . S
C519 C527 1.433 . S
C520 H516 0.929 . S
C520 C522 1.378 . S
C520 C524 1.350 . S
C521 C524 1.463 . S
C521 C526 1.350 . S
C521 N529 1.427 . S
C522 H513 0.930 . S
C522 C520 1.378 . S
C522 C523 1.367 . S
C523 C522 1.367 . S
C523 C525 1.433 . S
C524 C520 1.350 . S
C524 C521 1.463 . S
C524 N528 1.427 . S
C525 H515 0.929 . S
C525 C523 1.433 . S
C525 N528 1.384 . S
C526 H517 0.929 . S
C526 C518 1.378 . S
C526 C521 1.350 . S
C527 H514 0.929 . S
C527 C519 1.433 . S
C527 N529 1.384 . S
N528 C524 1.427 . S
N528 C525 1.384 . S
N529 C521 1.427 . S
N529 C527 1.384 . S
H530 C536 0.930 . S
H531 C540 0.930 . S
H532 C545 0.929 . S
H533 C543 0.929 . S
H534 C538 0.929 . S
H535 C544 0.929 . S
C536 H530 0.930 . S
C536 C537 1.367 . S
C536 C544 1.378 . S
C537 C536 1.367 . S
C537 C545 1.433 . S
C538 H534 0.929 . S
C538 C540 1.378 . S
C538 C542 1.350 . S
C539 C542 1.463 . S
C539 C544 1.350 . S
C539 N547 1.427 . S
C540 H531 0.930 . S
C540 C538 1.378 . S
C540 C541 1.367 . S
C541 C540 1.367 . S
C541 C543 1.433 . S
C542 C538 1.350 . S
C542 C539 1.463 . S
C542 N546 1.427 . S
C543 H533 0.929 . S
C543 C541 1.433 . S
C543 N546 1.384 . S
C544 H535 0.929 . S
C544 C536 1.378 . S
C544 C539 1.350 . S
C545 H532 0.929 . S
C545 C537 1.433 . S
C545 N547 1.384 . S
N546 C542 1.427 . S
N546 C543 1.384 . S
N547 C539 1.427 . S
N547 C545 1.384 . S
H548 C554 0.930 . S
H549 C558 0.930 . S
H550 C563 0.929 . S
H551 C561 0.929 . S
H552 C556 0.929 . S
H553 C562 0.929 . S
C554 H548 0.930 . S
C554 C555 1.367 . S
C554 C562 1.378 . S
C555 C554 1.367 . S
C555 C563 1.433 . S
C556 H552 0.929 . S
C556 C558 1.378 . S
C556 C560 1.350 . S
C557 C560 1.463 . S
C557 C562 1.350 . S
C557 N565 1.427 . S
C558 H549 0.930 . S
C558 C556 1.378 . S
C558 C559 1.367 . S
C559 C558 1.367 . S
C559 C561 1.433 . S
C560 C556 1.350 . S
C560 C557 1.463 . S
C560 N564 1.427 . S
C561 H551 0.929 . S
C561 C559 1.433 . S
C561 N564 1.384 . S
C562 H553 0.929 . S
C562 C554 1.378 . S
C562 C557 1.350 . S
C563 H550 0.929 . S
C563 C555 1.433 . S
C563 N565 1.384 . S
N564 C560 1.427 . S
N564 C561 1.384 . S
N565 C557 1.427 . S
N565 C563 1.384 . S
H566 C572 0.930 1_554 S
H567 C576 0.930 . S
H568 C581 0.929 . S
H569 C579 0.929 . S
H570 C574 0.929 . S
H571 C580 0.929 . S
C572 H566 0.930 1_556 S
C572 C573 1.367 . S
C572 C580 1.378 . S
C573 C572 1.367 . S
C573 C581 1.433 . S
C574 H570 0.929 . S
C574 C576 1.378 . S
C574 C578 1.350 . S
C575 C578 1.463 . S
C575 C580 1.350 . S
C575 N583 1.427 . S
C576 H567 0.930 . S
C576 C574 1.378 . S
C576 C577 1.367 . S
C577 C576 1.367 . S
C577 C579 1.433 . S
C578 C574 1.350 . S
C578 C575 1.463 . S
C578 N582 1.427 . S
C579 H569 0.929 . S
C579 C577 1.433 . S
C579 N582 1.384 . S
C580 H571 0.929 . S
C580 C572 1.378 . S
C580 C575 1.350 . S
C581 H568 0.929 . S
C581 C573 1.433 . S
C581 N583 1.384 . S
N582 C578 1.427 . S
N582 C579 1.384 . S
N583 C575 1.427 . S
N583 C581 1.384 . S
H584 C590 0.930 . S
H585 C594 0.930 1_455 S
H586 C599 0.929 . S
H587 C597 0.929 . S
H588 C592 0.929 . S
H589 C598 0.929 . S
C590 H584 0.930 . S
C590 C591 1.367 . S
C590 C598 1.378 . S
C591 C590 1.367 . S
C591 C599 1.433 . S
C592 H588 0.929 . S
C592 C594 1.378 . S
C592 C596 1.350 . S
C593 C596 1.463 . S
C593 C598 1.350 . S
C593 N601 1.427 . S
C594 H585 0.930 1_655 S
C594 C592 1.378 . S
C594 C595 1.367 . S
C595 C594 1.367 . S
C595 C597 1.433 . S
C596 C592 1.350 . S
C596 C593 1.463 . S
C596 N600 1.427 . S
C597 H587 0.929 . S
C597 C595 1.433 . S
C597 N600 1.384 . S
C598 H589 0.929 . S
C598 C590 1.378 . S
C598 C593 1.350 . S
C599 H586 0.929 . S
C599 C591 1.433 . S
C599 N601 1.384 . S
N600 C596 1.427 . S
N600 C597 1.384 . S
N601 C593 1.427 . S
N601 C599 1.384 . S
H602 C608 0.930 . S
H603 C612 0.930 . S
H604 C617 0.929 . S
H605 C615 0.929 . S
H606 C610 0.929 . S
H607 C616 0.929 . S
C608 H602 0.930 . S
C608 C609 1.367 . S
C608 C616 1.378 . S
C609 C608 1.367 . S
C609 C617 1.433 . S
C610 H606 0.929 . S
C610 C612 1.378 . S
C610 C614 1.350 . S
C611 C614 1.463 . S
C611 C616 1.350 . S
C611 N619 1.427 . S
C612 H603 0.930 . S
C612 C610 1.378 . S
C612 C613 1.367 . S
C613 C612 1.367 . S
C613 C615 1.433 . S
C614 C610 1.350 . S
C614 C611 1.463 . S
C614 N618 1.427 . S
C615 H605 0.929 . S
C615 C613 1.433 . S
C615 N618 1.384 . S
C616 H607 0.929 . S
C616 C608 1.378 . S
C616 C611 1.350 . S
C617 H604 0.929 . S
C617 C609 1.433 . S
C617 N619 1.384 . S
N618 C614 1.427 . S
N618 C615 1.384 . S
N619 C611 1.427 . S
N619 C617 1.384 . S
H620 C626 0.930 . S
H621 C630 0.930 . S
H622 C635 0.929 . S
H623 C633 0.929 . S
H624 C628 0.929 . S
H625 C634 0.929 . S
C626 H620 0.930 . S
C626 C627 1.367 . S
C626 C634 1.378 . S
C627 C626 1.367 . S
C627 C635 1.433 . S
C628 H624 0.929 . S
C628 C630 1.378 . S
C628 C632 1.350 . S
C629 C632 1.463 . S
C629 C634 1.350 . S
C629 N637 1.427 . S
C630 H621 0.930 . S
C630 C628 1.378 . S
C630 C631 1.367 . S
C631 C630 1.367 . S
C631 C633 1.433 . S
C632 C628 1.350 . S
C632 C629 1.463 . S
C632 N636 1.427 . S
C633 H623 0.929 . S
C633 C631 1.433 . S
C633 N636 1.384 . S
C634 H625 0.929 . S
C634 C626 1.378 . S
C634 C629 1.350 . S
C635 H622 0.929 . S
C635 C627 1.433 . S
C635 N637 1.384 . S
N636 C632 1.427 . S
N636 C633 1.384 . S
N637 C629 1.427 . S
N637 C635 1.384 . S
H638 C644 0.930 . S
H639 C648 0.930 . S
H640 C653 0.929 . S
H641 C651 0.929 . S
H642 C646 0.929 . S
H643 C652 0.929 . S
C644 H638 0.930 . S
C644 C645 1.367 . S
C644 C652 1.378 . S
C645 C644 1.367 . S
C645 C653 1.433 . S
C646 H642 0.929 . S
C646 C648 1.378 . S
C646 C650 1.350 . S
C647 C650 1.463 . S
C647 C652 1.350 . S
C647 N655 1.427 . S
C648 H639 0.930 . S
C648 C646 1.378 . S
C648 C649 1.367 . S
C649 C648 1.367 . S
C649 C651 1.433 . S
C650 C646 1.350 . S
C650 C647 1.463 . S
C650 N654 1.427 . S
C651 H641 0.929 . S
C651 C649 1.433 . S
C651 N654 1.384 . S
C652 H643 0.929 . S
C652 C644 1.378 . S
C652 C647 1.350 . S
C653 H640 0.929 . S
C653 C645 1.433 . S
C653 N655 1.384 . S
N654 C650 1.427 . S
N654 C651 1.384 . S
N655 C647 1.427 . S
N655 C653 1.384 . S
H656 C662 0.930 1_554 S
H657 C666 0.930 . S
H658 C671 0.929 . S
H659 C669 0.929 . S
H660 C664 0.929 . S
H661 C670 0.929 . S
C662 H656 0.930 1_556 S
C662 C663 1.367 . S
C662 C670 1.378 . S
C663 C662 1.367 . S
C663 C671 1.433 . S
C664 H660 0.929 . S
C664 C666 1.378 . S
C664 C668 1.350 . S
C665 C668 1.463 . S
C665 C670 1.350 . S
C665 N673 1.427 . S
C666 H657 0.930 . S
C666 C664 1.378 . S
C666 C667 1.367 . S
C667 C666 1.367 . S
C667 C669 1.433 . S
C668 C664 1.350 . S
C668 C665 1.463 . S
C668 N672 1.427 . S
C669 H659 0.929 . S
C669 C667 1.433 . S
C669 N672 1.384 . S
C670 H661 0.929 . S
C670 C662 1.378 . S
C670 C665 1.350 . S
C671 H658 0.929 . S
C671 C663 1.433 . S
C671 N673 1.384 . S
N672 C668 1.427 . S
N672 C669 1.384 . S
N673 C665 1.427 . S
N673 C671 1.384 . S
H674 C680 0.930 . S
H675 C684 0.930 . S
H676 C689 0.929 . S
H677 C687 0.929 . S
H678 C682 0.929 . S
H679 C688 0.929 . S
C680 H674 0.930 . S
C680 C681 1.367 . S
C680 C688 1.378 . S
C681 C680 1.367 . S
C681 C689 1.433 . S
C682 H678 0.929 . S
C682 C684 1.378 . S
C682 C686 1.350 . S
C683 C686 1.463 . S
C683 C688 1.350 . S
C683 N691 1.427 . S
C684 H675 0.930 . S
C684 C682 1.378 . S
C684 C685 1.367 . S
C685 C684 1.367 . S
C685 C687 1.433 . S
C686 C682 1.350 . S
C686 C683 1.463 . S
C686 N690 1.427 . S
C687 H677 0.929 . S
C687 C685 1.433 . S
C687 N690 1.384 . S
C688 H679 0.929 . S
C688 C680 1.378 . S
C688 C683 1.350 . S
C689 H676 0.929 . S
C689 C681 1.433 . S
C689 N691 1.384 . S
N690 C686 1.427 . S
N690 C687 1.384 . S
N691 C683 1.427 . S
N691 C689 1.384 . S
H692 C698 0.930 . S
H693 C702 0.930 . S
H694 C707 0.929 . S
H695 C705 0.929 . S
H696 C700 0.929 . S
H697 C706 0.929 . S
C698 H692 0.930 . S
C698 C699 1.367 . S
C698 C706 1.378 . S
C699 C698 1.367 . S
C699 C707 1.433 . S
C700 H696 0.929 . S
C700 C702 1.378 . S
C700 C704 1.350 . S
C701 C704 1.463 . S
C701 C706 1.350 . S
C701 N709 1.427 . S
C702 H693 0.930 . S
C702 C700 1.378 . S
C702 C703 1.367 . S
C703 C702 1.367 . S
C703 C705 1.433 . S
C704 C700 1.350 . S
C704 C701 1.463 . S
C704 N708 1.427 . S
C705 H695 0.929 . S
C705 C703 1.433 . S
C705 N708 1.384 . S
C706 H697 0.929 . S
C706 C698 1.378 . S
C706 C701 1.350 . S
C707 H694 0.929 . S
C707 C699 1.433 . S
C707 N709 1.384 . S
N708 C704 1.427 . S
N708 C705 1.384 . S
N709 C701 1.427 . S
N709 C707 1.384 . S
H710 C716 0.930 . S
H711 C720 0.930 . S
H712 C725 0.929 . S
H713 C723 0.929 . S
H714 C718 0.929 . S
H715 C724 0.929 . S
C716 H710 0.930 . S
C716 C717 1.367 . S
C716 C724 1.378 . S
C717 C716 1.367 . S
C717 C725 1.433 . S
C718 H714 0.929 . S
C718 C720 1.378 . S
C718 C722 1.350 . S
C719 C722 1.463 . S
C719 C724 1.350 . S
C719 N727 1.427 . S
C720 H711 0.930 . S
C720 C718 1.378 . S
C720 C721 1.367 . S
C721 C720 1.367 . S
C721 C723 1.433 . S
C722 C718 1.350 . S
C722 C719 1.463 . S
C722 N726 1.427 . S
C723 H713 0.929 . S
C723 C721 1.433 . S
C723 N726 1.384 . S
C724 H715 0.929 . S
C724 C716 1.378 . S
C724 C719 1.350 . S
C725 H712 0.929 . S
C725 C717 1.433 . S
C725 N727 1.384 . S
N726 C722 1.427 . S
N726 C723 1.384 . S
N727 C719 1.427 . S
N727 C725 1.384 . S
H728 C734 0.930 . S
H729 C738 0.930 . S
H730 C743 0.929 . S
H731 C741 0.929 1_554 S
H732 C736 0.929 . S
H733 C742 0.929 . S
C734 H728 0.930 . S
C734 C735 1.367 . S
C734 C742 1.378 . S
C735 C734 1.367 . S
C735 C743 1.433 . S
C736 H732 0.929 . S
C736 C738 1.378 . S
C736 C740 1.350 . S
C737 C740 1.463 . S
C737 C742 1.350 . S
C737 N745 1.427 . S
C738 H729 0.930 . S
C738 C736 1.378 . S
C738 C739 1.367 . S
C739 C738 1.367 . S
C739 C741 1.433 . S
C740 C736 1.350 . S
C740 C737 1.463 . S
C740 N744 1.427 . S
C741 H731 0.929 1_556 S
C741 C739 1.433 . S
C741 N744 1.384 . S
C742 H733 0.929 . S
C742 C734 1.378 . S
C742 C737 1.350 . S
C743 H730 0.929 . S
C743 C735 1.433 . S
C743 N745 1.384 . S
N744 C740 1.427 . S
N744 C741 1.384 . S
N745 C737 1.427 . S
N745 C743 1.384 . S
H746 C752 0.930 . S
H747 C756 0.930 . S
H748 C761 0.929 . S
H749 C759 0.929 . S
H750 C754 0.929 . S
H751 C760 0.929 . S
C752 H746 0.930 . S
C752 C753 1.367 . S
C752 C760 1.378 . S
C753 C752 1.367 . S
C753 C761 1.433 . S
C754 H750 0.929 . S
C754 C756 1.378 . S
C754 C758 1.350 . S
C755 C758 1.463 . S
C755 C760 1.350 . S
C755 N763 1.427 . S
C756 H747 0.930 . S
C756 C754 1.378 . S
C756 C757 1.367 . S
C757 C756 1.367 . S
C757 C759 1.433 . S
C758 C754 1.350 . S
C758 C755 1.463 . S
C758 N762 1.427 . S
C759 H749 0.929 . S
C759 C757 1.433 . S
C759 N762 1.384 . S
C760 H751 0.929 . S
C760 C752 1.378 . S
C760 C755 1.350 . S
C761 H748 0.929 . S
C761 C753 1.433 . S
C761 N763 1.384 . S
N762 C758 1.427 . S
N762 C759 1.384 . S
N763 C755 1.427 . S
N763 C761 1.384 . S
H764 C770 0.930 . S
H765 C774 0.930 . S
H766 C779 0.929 . S
H767 C777 0.929 . S
H768 C772 0.929 . S
H769 C778 0.929 . S
C770 H764 0.930 . S
C770 C771 1.367 . S
C770 C778 1.378 . S
C771 C770 1.367 . S
C771 C779 1.433 . S
C772 H768 0.929 . S
C772 C774 1.378 . S
C772 C776 1.350 . S
C773 C776 1.463 . S
C773 C778 1.350 . S
C773 N781 1.427 . S
C774 H765 0.930 . S
C774 C772 1.378 . S
C774 C775 1.367 . S
C775 C774 1.367 . S
C775 C777 1.433 . S
C776 C772 1.350 . S
C776 C773 1.463 . S
C776 N780 1.427 . S
C777 H767 0.929 . S
C777 C775 1.433 . S
C777 N780 1.384 . S
C778 H769 0.929 . S
C778 C770 1.378 . S
C778 C773 1.350 . S
C779 H766 0.929 . S
C779 C771 1.433 . S
C779 N781 1.384 . S
N780 C776 1.427 . S
N780 C777 1.384 . S
N781 C773 1.427 . S
N781 C779 1.384 . S
H782 C788 0.930 . S
H783 C792 0.930 . S
H784 C797 0.929 . S
H785 C795 0.929 . S
H786 C790 0.929 . S
H787 C796 0.929 . S
C788 H782 0.930 . S
C788 C789 1.367 . S
C788 C796 1.378 . S
C789 C788 1.367 . S
C789 C797 1.433 . S
C790 H786 0.929 . S
C790 C792 1.378 . S
C790 C794 1.350 . S
C791 C794 1.463 . S
C791 C796 1.350 . S
C791 N799 1.427 . S
C792 H783 0.930 . S
C792 C790 1.378 . S
C792 C793 1.367 . S
C793 C792 1.367 . S
C793 C795 1.433 . S
C794 C790 1.350 . S
C794 C791 1.463 . S
C794 N798 1.427 . S
C795 H785 0.929 . S
C795 C793 1.433 . S
C795 N798 1.384 . S
C796 H787 0.929 . S
C796 C788 1.378 . S
C796 C791 1.350 . S
C797 H784 0.929 . S
C797 C789 1.433 . S
C797 N799 1.384 . S
N798 C794 1.427 . S
N798 C795 1.384 . S
N799 C791 1.427 . S
N799 C797 1.384 . S
H800 C806 0.947 . S
H801 C810 0.930 . S
H802 C815 0.929 . S
H803 C813 0.929 . S
H804 C808 0.929 . S
H805 C814 0.929 . S
C806 H800 0.947 . S
C806 C807 1.364 1_545 S
C806 C814 1.365 1_545 S
C807 C806 1.364 1_565 S
C807 C815 1.433 . S
C808 H804 0.929 . S
C808 C810 1.378 . S
C808 C812 1.350 . S
C809 C812 1.463 . S
C809 C814 1.350 . S
C809 N817 1.427 . S
C810 H801 0.930 . S
C810 C808 1.378 . S
C810 C811 1.367 . S
C811 C810 1.367 . S
C811 C813 1.433 . S
C812 C808 1.350 . S
C812 C809 1.463 . S
C812 N816 1.427 . S
C813 H803 0.929 . S
C813 C811 1.433 . S
C813 N816 1.384 . S
C814 H805 0.929 . S
C814 C806 1.365 1_565 S
C814 C809 1.350 . S
C815 H802 0.929 . S
C815 C807 1.433 . S
C815 N817 1.384 . S
N816 C812 1.427 . S
N816 C813 1.384 . S
N817 C809 1.427 . S
N817 C815 1.384 . S
H818 C824 0.930 . S
H819 C828 0.930 . S
H820 C833 0.929 . S
H821 C831 0.929 . S
H822 C826 0.929 . S
H823 C832 0.929 . S
C824 H818 0.930 . S
C824 C825 1.367 . S
C824 C832 1.378 . S
C825 C824 1.367 . S
C825 C833 1.433 . S
C826 H822 0.929 . S
C826 C828 1.378 . S
C826 C830 1.350 . S
C827 C830 1.463 . S
C827 C832 1.350 . S
C827 N835 1.427 . S
C828 H819 0.930 . S
C828 C826 1.378 . S
C828 C829 1.367 . S
C829 C828 1.367 . S
C829 C831 1.433 . S
C830 C826 1.350 . S
C830 C827 1.463 . S
C830 N834 1.427 . S
C831 H821 0.929 . S
C831 C829 1.433 . S
C831 N834 1.384 . S
C832 H823 0.929 . S
C832 C824 1.378 . S
C832 C827 1.350 . S
C833 H820 0.929 . S
C833 C825 1.433 . S
C833 N835 1.384 . S
N834 C830 1.427 . S
N834 C831 1.384 . S
N835 C827 1.427 . S
N835 C833 1.384 . S
H836 C842 0.930 . S
H837 C846 0.930 . S
H838 C851 0.929 . S
H839 C849 0.929 . S
H840 C844 0.929 . S
H841 C850 0.929 . S
C842 H836 0.930 . S
C842 C843 1.367 . S
C842 C850 1.378 . S
C843 C842 1.367 . S
C843 C851 1.433 . S
C844 H840 0.929 . S
C844 C846 1.378 . S
C844 C848 1.350 . S
C845 C848 1.463 . S
C845 C850 1.350 . S
C845 N853 1.427 . S
C846 H837 0.930 . S
C846 C844 1.378 . S
C846 C847 1.367 . S
C847 C846 1.367 . S
C847 C849 1.433 . S
C848 C844 1.350 . S
C848 C845 1.463 . S
C848 N852 1.427 . S
C849 H839 0.929 . S
C849 C847 1.433 . S
C849 N852 1.384 . S
C850 H841 0.929 . S
C850 C842 1.378 . S
C850 C845 1.350 . S
C851 H838 0.929 . S
C851 C843 1.433 . S
C851 N853 1.384 . S
N852 C848 1.427 . S
N852 C849 1.384 . S
N853 C845 1.427 . S
N853 C851 1.384 . S
H854 C860 0.930 . S
H855 C864 0.930 . S
H856 C869 0.929 . S
H857 C867 0.929 . S
H858 C862 0.929 . S
H859 C868 0.929 . S
C860 H854 0.930 . S
C860 C861 1.367 . S
C860 C868 1.378 . S
C861 C860 1.367 . S
C861 C869 1.433 . S
C862 H858 0.929 . S
C862 C864 1.378 . S
C862 C866 1.350 . S
C863 C866 1.463 . S
C863 C868 1.350 . S
C863 N871 1.427 . S
C864 H855 0.930 . S
C864 C862 1.378 . S
C864 C865 1.367 1_556 S
C865 C864 1.367 1_554 S
C865 C867 1.433 . S
C866 C862 1.350 . S
C866 C863 1.463 . S
C866 N870 1.427 1_556 S
C867 H857 0.929 . S
C867 C865 1.433 . S
C867 N870 1.384 . S
C868 H859 0.929 . S
C868 C860 1.378 . S
C868 C863 1.350 . S
C869 H856 0.929 . S
C869 C861 1.433 . S
C869 N871 1.384 . S
N870 C866 1.427 1_554 S
N870 C867 1.384 . S
N871 C863 1.427 . S
N871 C869 1.384 . S
H872 C878 0.930 1_455 S
H873 C882 0.930 . S
H874 C887 0.929 . S
H875 C885 0.929 . S
H876 C880 0.929 . S
H877 C886 0.929 . S
C878 H872 0.930 1_655 S
C878 C879 1.367 1_565 S
C878 C886 1.378 . S
C879 C878 1.367 1_545 S
C879 C887 1.433 . S
C880 H876 0.929 . S
C880 C882 1.378 . S
C880 C884 1.350 . S
C881 C884 1.463 . S
C881 C886 1.350 . S
C881 N889 1.427 1_565 S
C882 H873 0.930 . S
C882 C880 1.378 . S
C882 C883 1.367 . S
C883 C882 1.367 . S
C883 C885 1.433 . S
C884 C880 1.350 . S
C884 C881 1.463 . S
C884 N888 1.427 . S
C885 H875 0.929 . S
C885 C883 1.433 . S
C885 N888 1.384 . S
C886 H877 0.929 . S
C886 C878 1.378 . S
C886 C881 1.350 . S
C887 H874 0.929 . S
C887 C879 1.433 . S
C887 N889 1.384 . S
N888 C884 1.427 . S
N888 C885 1.384 . S
N889 C881 1.427 1_545 S
N889 C887 1.384 . S
H890 C896 0.930 . S
H891 C900 0.930 . S
H892 C905 0.929 . S
H893 C903 0.929 . S
H894 C898 0.929 . S
H895 C904 0.929 . S
C896 H890 0.930 . S
C896 C897 1.367 . S
C896 C904 1.378 . S
C897 C896 1.367 . S
C897 C905 1.433 . S
C898 H894 0.929 . S
C898 C900 1.378 . S
C898 C902 1.350 . S
C899 C902 1.463 . S
C899 C904 1.350 . S
C899 N907 1.427 . S
C900 H891 0.930 . S
C900 C898 1.378 . S
C900 C901 1.367 . S
C901 C900 1.367 . S
C901 C903 1.433 . S
C902 C898 1.350 . S
C902 C899 1.463 . S
C902 N906 1.427 . S
C903 H893 0.929 . S
C903 C901 1.433 . S
C903 N906 1.384 . S
C904 H895 0.929 . S
C904 C896 1.378 . S
C904 C899 1.350 . S
C905 H892 0.929 . S
C905 C897 1.433 . S
C905 N907 1.384 . S
N906 C902 1.427 . S
N906 C903 1.384 . S
N907 C899 1.427 . S
N907 C905 1.384 . S
H908 C914 0.930 1_455 S
H909 C918 0.930 . S
H910 C923 0.929 . S
H911 C921 0.929 . S
H912 C916 0.929 . S
H913 C922 0.929 . S
C914 H908 0.930 1_655 S
C914 C915 1.367 . S
C914 C922 1.378 . S
C915 C914 1.367 . S
C915 C923 1.433 . S
C916 H912 0.929 . S
C916 C918 1.378 . S
C916 C920 1.350 . S
C917 C920 1.463 . S
C917 C922 1.350 . S
C917 N925 1.427 . S
C918 H909 0.930 . S
C918 C916 1.378 . S
C918 C919 1.367 . S
C919 C918 1.367 . S
C919 C921 1.433 . S
C920 C916 1.350 . S
C920 C917 1.463 . S
C920 N924 1.427 . S
C921 H911 0.929 . S
C921 C919 1.433 . S
C921 N924 1.384 . S
C922 H913 0.929 . S
C922 C914 1.378 . S
C922 C917 1.350 . S
C923 H910 0.929 . S
C923 C915 1.433 . S
C923 N925 1.384 . S
N924 C920 1.427 . S
N924 C921 1.384 . S
N925 C917 1.427 . S
N925 C923 1.384 . S
H926 C932 0.930 . S
H927 C936 0.930 . S
H928 C941 0.929 . S
H929 C939 0.929 . S
H930 C934 0.929 . S
H931 C940 0.929 . S
C932 H926 0.930 . S
C932 C933 1.367 . S
C932 C940 1.378 . S
C933 C932 1.367 . S
C933 C941 1.433 . S
C934 H930 0.929 . S
C934 C936 1.378 . S
C934 C938 1.350 . S
C935 C938 1.463 . S
C935 C940 1.350 . S
C935 N943 1.427 . S
C936 H927 0.930 . S
C936 C934 1.378 . S
C936 C937 1.367 . S
C937 C936 1.367 . S
C937 C939 1.433 . S
C938 C934 1.350 . S
C938 C935 1.463 . S
C938 N942 1.427 . S
C939 H929 0.929 . S
C939 C937 1.433 . S
C939 N942 1.384 . S
C940 H931 0.929 . S
C940 C932 1.378 . S
C940 C935 1.350 . S
C941 H928 0.929 . S
C941 C933 1.433 . S
C941 N943 1.384 . S
N942 C938 1.427 . S
N942 C939 1.384 . S
N943 C935 1.427 . S
N943 C941 1.384 . S
H944 C950 0.930 . S
H945 C954 0.930 . S
H946 C959 0.929 . S
H947 C957 0.929 . S
H948 C952 0.929 . S
H949 C958 0.929 . S
C950 H944 0.930 . S
C950 C951 1.367 . S
C950 C958 1.378 . S
C951 C950 1.367 . S
C951 C959 1.433 . S
C952 H948 0.929 . S
C952 C954 1.378 . S
C952 C956 1.350 . S
C953 C956 1.463 . S
C953 C958 1.350 . S
C953 N961 1.427 . S
C954 H945 0.930 . S
C954 C952 1.378 . S
C954 C955 1.367 . S
C955 C954 1.367 . S
C955 C957 1.433 . S
C956 C952 1.350 . S
C956 C953 1.463 . S
C956 N960 1.427 . S
C957 H947 0.929 . S
C957 C955 1.433 . S
C957 N960 1.384 . S
C958 H949 0.929 . S
C958 C950 1.378 . S
C958 C953 1.350 . S
C959 H946 0.929 . S
C959 C951 1.433 . S
C959 N961 1.384 . S
N960 C956 1.427 . S
N960 C957 1.384 . S
N961 C953 1.427 . S
N961 C959 1.384 . S
H962 C968 0.930 . S
H963 C972 0.930 . S
H964 C977 0.929 . S
H965 C975 0.929 . S
H966 C970 0.929 . S
H967 C976 0.929 . S
C968 H962 0.930 . S
C968 C969 1.367 . S
C968 C976 1.378 . S
C969 C968 1.367 . S
C969 C977 1.433 . S
C970 H966 0.929 . S
C970 C972 1.378 . S
C970 C974 1.350 . S
C971 C974 1.463 . S
C971 C976 1.350 . S
C971 N979 1.427 . S
C972 H963 0.930 . S
C972 C970 1.378 . S
C972 C973 1.367 . S
C973 C972 1.367 . S
C973 C975 1.433 . S
C974 C970 1.350 . S
C974 C971 1.463 . S
C974 N978 1.427 . S
C975 H965 0.929 . S
C975 C973 1.433 . S
C975 N978 1.384 . S
C976 H967 0.929 . S
C976 C968 1.378 . S
C976 C971 1.350 . S
C977 H964 0.929 . S
C977 C969 1.433 . S
C977 N979 1.384 . S
N978 C974 1.427 . S
N978 C975 1.384 . S
N979 C971 1.427 . S
N979 C977 1.384 . S
H980 C986 0.930 . S
H981 C990 0.930 . S
H982 C995 0.929 . S
H983 C993 0.929 . S
H984 C988 0.929 . S
H985 C994 0.929 . S
C986 H980 0.930 . S
C986 C987 1.367 . S
C986 C994 1.378 . S
C987 C986 1.367 . S
C987 C995 1.433 . S
C988 H984 0.929 . S
C988 C990 1.378 . S
C988 C992 1.350 . S
C989 C992 1.463 . S
C989 C994 1.350 . S
C989 N997 1.427 . S
C990 H981 0.930 . S
C990 C988 1.378 . S
C990 C991 1.367 . S
C991 C990 1.367 . S
C991 C993 1.433 . S
C992 C988 1.350 . S
C992 C989 1.463 . S
C992 N996 1.427 . S
C993 H983 0.929 . S
C993 C991 1.433 . S
C993 N996 1.384 . S
C994 H985 0.929 . S
C994 C986 1.378 . S
C994 C989 1.350 . S
C995 H982 0.929 . S
C995 C987 1.433 . S
C995 N997 1.384 . S
N996 C992 1.427 . S
N996 C993 1.384 . S
N997 C989 1.427 . S
N997 C995 1.384 . S
H998 C1004 0.930 . S
H999 C1008 0.930 . S
H1000 C1013 0.929 . S
H1001 C1011 0.929 . S
H1002 C1006 0.929 . S
H1003 C1012 0.929 . S
C1004 H998 0.930 . S
C1004 C1005 1.367 . S
C1004 C1012 1.378 . S
C1005 C1004 1.367 . S
C1005 C1013 1.433 . S
C1006 H1002 0.929 . S
C1006 C1008 1.378 . S
C1006 C1010 1.350 . S
C1007 C1010 1.463 . S
C1007 C1012 1.350 . S
C1007 N1015 1.427 . S
C1008 H999 0.930 . S
C1008 C1006 1.378 . S
C1008 C1009 1.367 . S
C1009 C1008 1.367 . S
C1009 C1011 1.433 . S
C1010 C1006 1.350 . S
C1010 C1007 1.463 . S
C1010 N1014 1.427 . S
C1011 H1001 0.929 . S
C1011 C1009 1.433 . S
C1011 N1014 1.384 . S
C1012 H1003 0.929 . S
C1012 C1004 1.378 . S
C1012 C1007 1.350 . S
C1013 H1000 0.929 . S
C1013 C1005 1.433 . S
C1013 N1015 1.384 . S
N1014 C1010 1.427 . S
N1014 C1011 1.384 . S
N1015 C1007 1.427 . S
N1015 C1013 1.384 . S
H1016 C1022 0.930 . S
H1017 C1026 0.930 . S
H1018 C1031 0.929 . S
H1019 C1029 0.929 . S
H1020 C1024 0.929 1_455 S
H1021 C1030 0.929 . S
C1022 H1016 0.930 . S
C1022 C1023 1.367 1_655 S
C1022 C1030 1.378 . S
C1023 C1022 1.367 1_455 S
C1023 C1031 1.433 . S
C1024 H1020 0.929 1_655 S
C1024 C1026 1.378 . S
C1024 C1028 1.350 . S
C1025 C1028 1.463 . S
C1025 C1030 1.350 . S
C1025 N1033 1.427 1_655 S
C1026 H1017 0.930 . S
C1026 C1024 1.378 . S
C1026 C1027 1.367 . S
C1027 C1026 1.367 . S
C1027 C1029 1.433 . S
C1028 C1024 1.350 . S
C1028 C1025 1.463 . S
C1028 N1032 1.427 . S
C1029 H1019 0.929 . S
C1029 C1027 1.433 . S
C1029 N1032 1.384 . S
C1030 H1021 0.929 . S
C1030 C1022 1.378 . S
C1030 C1025 1.350 . S
C1031 H1018 0.929 . S
C1031 C1023 1.433 . S
C1031 N1033 1.384 . S
N1032 C1028 1.427 . S
N1032 C1029 1.384 . S
N1033 C1025 1.427 1_455 S
N1033 C1031 1.384 . S
H1034 C1040 0.930 . S
H1035 C1044 0.930 . S
H1036 C1049 0.929 . S
H1037 C1047 0.929 . S
H1038 C1042 0.929 . S
H1039 C1048 0.929 . S
C1040 H1034 0.930 . S
C1040 C1041 1.367 . S
C1040 C1048 1.378 . S
C1041 C1040 1.367 . S
C1041 C1049 1.433 . S
C1042 H1038 0.929 . S
C1042 C1044 1.378 . S
C1042 C1046 1.350 . S
C1043 C1046 1.463 . S
C1043 C1048 1.350 . S
C1043 N1051 1.427 . S
C1044 H1035 0.930 . S
C1044 C1042 1.378 . S
C1044 C1045 1.367 . S
C1045 C1044 1.367 . S
C1045 C1047 1.433 . S
C1046 C1042 1.350 . S
C1046 C1043 1.463 . S
C1046 N1050 1.427 . S
C1047 H1037 0.929 . S
C1047 C1045 1.433 . S
C1047 N1050 1.384 . S
C1048 H1039 0.929 . S
C1048 C1040 1.378 . S
C1048 C1043 1.350 . S
C1049 H1036 0.929 . S
C1049 C1041 1.433 . S
C1049 N1051 1.384 . S
N1050 C1046 1.427 . S
N1050 C1047 1.384 . S
N1051 C1043 1.427 . S
N1051 C1049 1.384 . S
H1052 C1058 0.930 . S
H1053 C1062 0.930 . S
H1054 C1067 0.929 . S
H1055 C1065 0.929 . S
H1056 C1060 0.929 . S
H1057 C1066 0.929 . S
C1058 H1052 0.930 . S
C1058 C1059 1.367 . S
C1058 C1066 1.378 . S
C1059 C1058 1.367 . S
C1059 C1067 1.433 . S
C1060 H1056 0.929 . S
C1060 C1062 1.378 . S
C1060 C1064 1.350 . S
C1061 C1064 1.463 . S
C1061 C1066 1.350 . S
C1061 N1069 1.427 . S
C1062 H1053 0.930 . S
C1062 C1060 1.378 . S
C1062 C1063 1.367 . S
C1063 C1062 1.367 . S
C1063 C1065 1.433 . S
C1064 C1060 1.350 . S
C1064 C1061 1.463 . S
C1064 N1068 1.427 . S
C1065 H1055 0.929 . S
C1065 C1063 1.433 . S
C1065 N1068 1.384 . S
C1066 H1057 0.929 . S
C1066 C1058 1.378 . S
C1066 C1061 1.350 . S
C1067 H1054 0.929 . S
C1067 C1059 1.433 . S
C1067 N1069 1.384 . S
N1068 C1064 1.427 . S
N1068 C1065 1.384 . S
N1069 C1061 1.427 . S
N1069 C1067 1.384 . S
H1070 C1076 0.930 . S
H1071 C1080 0.930 . S
H1072 C1085 0.929 . S
H1073 C1083 0.929 . S
H1074 C1078 0.929 . S
H1075 C1084 0.929 . S
C1076 H1070 0.930 . S
C1076 C1077 1.367 . S
C1076 C1084 1.378 . S
C1077 C1076 1.367 . S
C1077 C1085 1.433 . S
C1078 H1074 0.929 . S
C1078 C1080 1.378 . S
C1078 C1082 1.350 . S
C1079 C1082 1.463 . S
C1079 C1084 1.350 . S
C1079 N1087 1.427 . S
C1080 H1071 0.930 . S
C1080 C1078 1.378 . S
C1080 C1081 1.367 . S
C1081 C1080 1.367 . S
C1081 C1083 1.433 . S
C1082 C1078 1.350 . S
C1082 C1079 1.463 . S
C1082 N1086 1.427 . S
C1083 H1073 0.929 . S
C1083 C1081 1.433 . S
C1083 N1086 1.384 . S
C1084 H1075 0.929 . S
C1084 C1076 1.378 . S
C1084 C1079 1.350 . S
C1085 H1072 0.929 . S
C1085 C1077 1.433 . S
C1085 N1087 1.384 . S
N1086 C1082 1.427 . S
N1086 C1083 1.384 . S
N1087 C1079 1.427 . S
N1087 C1085 1.384 . S
H1088 C1094 0.930 . S
H1089 C1098 0.930 . S
H1090 C1103 0.929 . S
H1091 C1101 0.929 . S
H1092 C1096 0.929 . S
H1093 C1102 0.929 . S
C1094 H1088 0.930 . S
C1094 C1095 1.367 . S
C1094 C1102 1.378 . S
C1095 C1094 1.367 . S
C1095 C1103 1.433 . S
C1096 H1092 0.929 . S
C1096 C1098 1.378 . S
C1096 C1100 1.350 . S
C1097 C1100 1.463 . S
C1097 C1102 1.350 . S
C1097 N1105 1.427 . S
C1098 H1089 0.930 . S
C1098 C1096 1.378 . S
C1098 C1099 1.367 . S
C1099 C1098 1.367 . S
C1099 C1101 1.433 . S
C1100 C1096 1.350 . S
C1100 C1097 1.463 . S
C1100 N1104 1.427 . S
C1101 H1091 0.929 . S
C1101 C1099 1.433 . S
C1101 N1104 1.384 . S
C1102 H1093 0.929 . S
C1102 C1094 1.378 . S
C1102 C1097 1.350 . S
C1103 H1090 0.929 . S
C1103 C1095 1.433 . S
C1103 N1105 1.384 . S
N1104 C1100 1.427 . S
N1104 C1101 1.384 . S
N1105 C1097 1.427 . S
N1105 C1103 1.384 . S
H1106 C1112 0.930 . S
H1107 C1116 0.930 . S
H1108 C1121 0.929 . S
H1109 C1119 0.929 . S
H1110 C1114 0.929 . S
H1111 C1120 0.929 . S
C1112 H1106 0.930 . S
C1112 C1113 1.367 . S
C1112 C1120 1.378 . S
C1113 C1112 1.367 . S
C1113 C1121 1.433 . S
C1114 H1110 0.929 . S
C1114 C1116 1.378 . S
C1114 C1118 1.350 . S
C1115 C1118 1.463 . S
C1115 C1120 1.350 . S
C1115 N1123 1.427 . S
C1116 H1107 0.930 . S
C1116 C1114 1.378 . S
C1116 C1117 1.367 . S
C1117 C1116 1.367 . S
C1117 C1119 1.433 . S
C1118 C1114 1.350 . S
C1118 C1115 1.463 . S
C1118 N1122 1.427 . S
C1119 H1109 0.929 . S
C1119 C1117 1.433 . S
C1119 N1122 1.384 . S
C1120 H1111 0.929 . S
C1120 C1112 1.378 . S
C1120 C1115 1.350 . S
C1121 H1108 0.929 . S
C1121 C1113 1.433 . S
C1121 N1123 1.384 . S
N1122 C1118 1.427 . S
N1122 C1119 1.384 . S
N1123 C1115 1.427 . S
N1123 C1121 1.384 . S
H1124 C1130 0.930 . S
H1125 C1134 0.930 . S
H1126 C1139 0.929 . S
H1127 C1137 0.929 . S
H1128 C1132 0.929 . S
H1129 C1138 0.929 . S
C1130 H1124 0.930 . S
C1130 C1131 1.367 . S
C1130 C1138 1.378 . S
C1131 C1130 1.367 . S
C1131 C1139 1.433 . S
C1132 H1128 0.929 . S
C1132 C1134 1.378 . S
C1132 C1136 1.350 . S
C1133 C1136 1.463 . S
C1133 C1138 1.350 . S
C1133 N1141 1.427 . S
C1134 H1125 0.930 . S
C1134 C1132 1.378 . S
C1134 C1135 1.367 . S
C1135 C1134 1.367 . S
C1135 C1137 1.433 . S
C1136 C1132 1.350 . S
C1136 C1133 1.463 . S
C1136 N1140 1.427 . S
C1137 H1127 0.929 . S
C1137 C1135 1.433 . S
C1137 N1140 1.384 . S
C1138 H1129 0.929 . S
C1138 C1130 1.378 . S
C1138 C1133 1.350 . S
C1139 H1126 0.929 . S
C1139 C1131 1.433 . S
C1139 N1141 1.384 . S
N1140 C1136 1.427 . S
N1140 C1137 1.384 . S
N1141 C1133 1.427 . S
N1141 C1139 1.384 . S
H1142 C1148 0.930 . S
H1143 C1152 0.930 . S
H1144 C1157 0.929 . S
H1145 C1155 0.929 1_455 S
H1146 C1150 0.929 . S
H1147 C1156 0.929 . S
C1148 H1142 0.930 . S
C1148 C1149 1.367 . S
C1148 C1156 1.378 . S
C1149 C1148 1.367 . S
C1149 C1157 1.433 . S
C1150 H1146 0.929 . S
C1150 C1152 1.378 . S
C1150 C1154 1.350 . S
C1151 C1154 1.463 . S
C1151 C1156 1.350 . S
C1151 N1159 1.427 . S
C1152 H1143 0.930 . S
C1152 C1150 1.378 . S
C1152 C1153 1.367 . S
C1153 C1152 1.367 . S
C1153 C1155 1.433 . S
C1154 C1150 1.350 . S
C1154 C1151 1.463 . S
C1154 N1158 1.427 . S
C1155 H1145 0.929 1_655 S
C1155 C1153 1.433 . S
C1155 N1158 1.384 . S
C1156 H1147 0.929 . S
C1156 C1148 1.378 . S
C1156 C1151 1.350 . S
C1157 H1144 0.929 . S
C1157 C1149 1.433 . S
C1157 N1159 1.384 . S
N1158 C1154 1.427 . S
N1158 C1155 1.384 . S
N1159 C1151 1.427 . S
N1159 C1157 1.384 . S
H1160 C1166 0.930 . S
H1161 C1170 0.930 . S
H1162 C1175 0.929 . S
H1163 C1173 0.929 . S
H1164 C1168 0.929 . S
H1165 C1174 0.929 . S
C1166 H1160 0.930 . S
C1166 C1167 1.367 . S
C1166 C1174 1.378 . S
C1167 C1166 1.367 . S
C1167 C1175 1.433 . S
C1168 H1164 0.929 . S
C1168 C1170 1.378 . S
C1168 C1172 1.350 . S
C1169 C1172 1.463 . S
C1169 C1174 1.350 . S
C1169 N1177 1.427 . S
C1170 H1161 0.930 . S
C1170 C1168 1.378 . S
C1170 C1171 1.367 . S
C1171 C1170 1.367 . S
C1171 C1173 1.433 . S
C1172 C1168 1.350 . S
C1172 C1169 1.463 . S
C1172 N1176 1.427 . S
C1173 H1163 0.929 . S
C1173 C1171 1.433 . S
C1173 N1176 1.384 . S
C1174 H1165 0.929 . S
C1174 C1166 1.378 . S
C1174 C1169 1.350 . S
C1175 H1162 0.929 . S
C1175 C1167 1.433 . S
C1175 N1177 1.384 . S
N1176 C1172 1.427 . S
N1176 C1173 1.384 . S
N1177 C1169 1.427 . S
N1177 C1175 1.384 . S
H1178 C1184 0.930 . S
H1179 C1188 0.930 . S
H1180 C1193 0.929 . S
H1181 C1191 0.929 . S
H1182 C1186 0.929 . S
H1183 C1192 0.929 . S
C1184 H1178 0.930 . S
C1184 C1185 1.367 . S
C1184 C1192 1.378 . S
C1185 C1184 1.367 . S
C1185 C1193 1.433 . S
C1186 H1182 0.929 . S
C1186 C1188 1.378 . S
C1186 C1190 1.350 . S
C1187 C1190 1.463 . S
C1187 C1192 1.350 . S
C1187 N1195 1.427 . S
C1188 H1179 0.930 . S
C1188 C1186 1.378 . S
C1188 C1189 1.367 . S
C1189 C1188 1.367 . S
C1189 C1191 1.433 . S
C1190 C1186 1.350 . S
C1190 C1187 1.463 . S
C1190 N1194 1.427 . S
C1191 H1181 0.929 . S
C1191 C1189 1.433 . S
C1191 N1194 1.384 . S
C1192 H1183 0.929 . S
C1192 C1184 1.378 . S
C1192 C1187 1.350 . S
C1193 H1180 0.929 . S
C1193 C1185 1.433 . S
C1193 N1195 1.384 . S
N1194 C1190 1.427 . S
N1194 C1191 1.384 . S
N1195 C1187 1.427 . S
N1195 C1193 1.384 . S
H1196 C1202 0.930 . S
H1197 C1206 0.930 . S
H1198 C1211 0.929 . S
H1199 C1209 0.929 . S
H1200 C1204 0.929 . S
H1201 C1210 0.929 . S
C1202 H1196 0.930 . S
C1202 C1203 1.367 . S
C1202 C1210 1.378 . S
C1203 C1202 1.367 . S
C1203 C1211 1.433 . S
C1204 H1200 0.929 . S
C1204 C1206 1.378 . S
C1204 C1208 1.350 . S
C1205 C1208 1.463 . S
C1205 C1210 1.350 . S
C1205 N1213 1.427 . S
C1206 H1197 0.930 . S
C1206 C1204 1.378 . S
C1206 C1207 1.367 . S
C1207 C1206 1.367 . S
C1207 C1209 1.433 . S
C1208 C1204 1.350 . S
C1208 C1205 1.463 . S
C1208 N1212 1.427 . S
C1209 H1199 0.929 . S
C1209 C1207 1.433 . S
C1209 N1212 1.384 . S
C1210 H1201 0.929 . S
C1210 C1202 1.378 . S
C1210 C1205 1.350 . S
C1211 H1198 0.929 . S
C1211 C1203 1.433 . S
C1211 N1213 1.384 . S
N1212 C1208 1.427 . S
N1212 C1209 1.384 . S
N1213 C1205 1.427 . S
N1213 C1211 1.384 . S
H1214 C1220 0.930 . S
H1215 C1224 0.930 . S
H1216 C1229 0.929 . S
H1217 C1227 0.929 . S
H1218 C1222 0.929 . S
H1219 C1228 0.929 . S
C1220 H1214 0.930 . S
C1220 C1221 1.367 . S
C1220 C1228 1.378 . S
C1221 C1220 1.367 . S
C1221 C1229 1.433 . S
C1222 H1218 0.929 . S
C1222 C1224 1.378 . S
C1222 C1226 1.350 . S
C1223 C1226 1.463 . S
C1223 C1228 1.350 . S
C1223 N1231 1.427 . S
C1224 H1215 0.930 . S
C1224 C1222 1.378 . S
C1224 C1225 1.367 . S
C1225 C1224 1.367 . S
C1225 C1227 1.433 . S
C1226 C1222 1.350 . S
C1226 C1223 1.463 . S
C1226 N1230 1.427 . S
C1227 H1217 0.929 . S
C1227 C1225 1.433 . S
C1227 N1230 1.384 . S
C1228 H1219 0.929 . S
C1228 C1220 1.378 . S
C1228 C1223 1.350 . S
C1229 H1216 0.929 . S
C1229 C1221 1.433 . S
C1229 N1231 1.384 . S
N1230 C1226 1.427 . S
N1230 C1227 1.384 . S
N1231 C1223 1.427 . S
N1231 C1229 1.384 . S
C375 C88 1.310 . S
C379 C16 1.335 . S
C393 C21 1.293 . S
C397 C41 1.358 . S
C411 C62 1.595 . S
C415 C40 1.597 . S
C429 C90 1.182 . S
C433 C67 1.185 . S
C447 C113 1.132 . S
C451 C135 1.154 . S
C465 C132 1.582 . S
C469 C155 1.570 1_565 S
C483 C156 1.316 . S
C487 C181 1.236 . S
C501 C111 1.300 . S
C505 C178 1.323 . S
C519 C225 1.336 . S
C523 C19 1.298 . S
C537 C250 1.452 . S
C541 C43 1.450 . S
C555 C65 1.306 . S
C559 C317 1.319 . S
C573 C200 1.480 . S
C577 C85 1.481 . S
C591 C269 1.488 . S
C595 C108 1.487 1_655 S
C609 C341 1.294 . S
C613 C133 1.337 . S
C627 C158 1.447 . S
C631 C296 1.432 . S
C645 C364 1.317 . S
C649 C179 1.314 . S
C663 C203 1.297 . S
C667 C316 1.322 . S
C681 C227 1.143 . S
C685 C205 1.131 . S
C699 C247 1.572 . S
C703 C224 1.584 . S
C717 C338 1.334 . S
C721 C272 1.305 . S
C735 C293 1.591 . S
C739 C361 1.594 1_556 S
C753 C273 0.888 . S
C757 C17 0.921 . S
C771 C297 0.999 . S
C775 C18 1.018 . S
C789 C292 0.562 . S
C793 C63 0.578 . S
C807 C64 1.093 1_565 S
C811 C271 1.089 . S
C825 C226 1.077 . S
C829 C110 1.089 . S
C843 C223 0.584 . S
C847 C154 0.593 . S
C861 C318 1.013 . S
C865 C159 0.982 . S
C879 C112 0.910 . S
C883 C315 0.941 . S
C897 C136 1.025 . S
C901 C20 0.971 . S
C915 C249 0.797 . S
C919 C295 0.787 . S
C933 C66 1.008 . S
C937 C182 0.995 . S
C951 C201 0.655 . S
C955 C270 0.665 . S
C969 C86 0.653 . S
C973 C109 0.651 . S
C987 C228 1.035 . S
C991 C342 0.957 . S
C1005 C157 0.791 . S
C1009 C42 0.787 . S
C1023 C365 0.984 . S
C1027 C320 1.006 . S
C1041 C204 0.938 . S
C1045 C177 0.941 . S
C1059 C202 1.092 1_556 S
C1063 C134 1.085 . S
C1077 C246 0.595 . S
C1081 C131 0.607 . S
C1095 C89 0.914 . S
C1099 C339 0.913 . S
C1113 C39 0.576 . S
C1117 C362 0.566 . S
C1131 C294 1.360 . S
C1135 C343 1.293 . S
C1149 C274 1.192 . S
C1153 C366 1.197 . S
C1167 C248 1.315 . S
C1171 C319 1.243 . S
C1185 C340 1.013 . S
C1189 C44 0.981 . S
C1203 C87 1.085 . S
C1207 C363 1.095 . S
C1221 C180 1.001 . S
C1225 C251 0.996 . S
