# Generated by pormake.
# Topology qtz-g, (3)-cn, num edge types: 1
# Building blocks:
#     Node 0, Type 0, BuildingBlock: OLANEW_clean_sbu_2, # of connection points: 3
#     Node 1, Type 0, BuildingBlock: OLANEW_clean_sbu_2, # of connection points: 3
#     Node 2, Type 0, BuildingBlock: OLANEW_clean_sbu_2, # of connection points: 3
#     Node 3, Type 0, BuildingBlock: OLANEW_clean_sbu_2, # of connection points: 3
#     Node 4, Type 0, BuildingBlock: OLANEW_clean_sbu_2, # of connection points: 3
#     Node 5, Type 0, BuildingBlock: OLANEW_clean_sbu_2, # of connection points: 3
#     Node 6, Type 0, BuildingBlock: OLANEW_clean_sbu_2, # of connection points: 3
#     Node 7, Type 0, BuildingBlock: OLANEW_clean_sbu_2, # of connection points: 3
#     Node 8, Type 0, BuildingBlock: OLANEW_clean_sbu_2, # of connection points: 3
#     Node 9, Type 0, BuildingBlock: OLANEW_clean_sbu_2, # of connection points: 3
#     Node 10, Type 0, BuildingBlock: OLANEW_clean_sbu_2, # of connection points: 3
#     Node 11, Type 0, BuildingBlock: OLANEW_clean_sbu_2, # of connection points: 3
#     Edge 12, Type (0, 0), BuildingBlock: UVAHIK_clean_linker_0, # of connection points: 2
#     Edge 13, Type (0, 0), BuildingBlock: UVAHIK_clean_linker_0, # of connection points: 2
#     Edge 14, Type (0, 0), BuildingBlock: UVAHIK_clean_linker_0, # of connection points: 2
#     Edge 15, Type (0, 0), BuildingBlock: UVAHIK_clean_linker_0, # of connection points: 2
#     Edge 16, Type (0, 0), BuildingBlock: UVAHIK_clean_linker_0, # of connection points: 2
#     Edge 17, Type (0, 0), BuildingBlock: UVAHIK_clean_linker_0, # of connection points: 2
#     Edge 18, Type (0, 0), BuildingBlock: UVAHIK_clean_linker_0, # of connection points: 2
#     Edge 19, Type (0, 0), BuildingBlock: UVAHIK_clean_linker_0, # of connection points: 2
#     Edge 20, Type (0, 0), BuildingBlock: UVAHIK_clean_linker_0, # of connection points: 2
#     Edge 21, Type (0, 0), BuildingBlock: UVAHIK_clean_linker_0, # of connection points: 2
#     Edge 22, Type (0, 0), BuildingBlock: UVAHIK_clean_linker_0, # of connection points: 2
#     Edge 23, Type (0, 0), BuildingBlock: UVAHIK_clean_linker_0, # of connection points: 2
#     Edge 24, Type (0, 0), BuildingBlock: UVAHIK_clean_linker_0, # of connection points: 2
#     Edge 25, Type (0, 0), BuildingBlock: UVAHIK_clean_linker_0, # of connection points: 2
#     Edge 26, Type (0, 0), BuildingBlock: UVAHIK_clean_linker_0, # of connection points: 2
#     Edge 27, Type (0, 0), BuildingBlock: UVAHIK_clean_linker_0, # of connection points: 2
#     Edge 28, Type (0, 0), BuildingBlock: UVAHIK_clean_linker_0, # of connection points: 2
#     Edge 29, Type (0, 0), BuildingBlock: UVAHIK_clean_linker_0, # of connection points: 2
# Relax obj value: 0.011
# Max RMSD: 0.032
# Mean RMSD: 0.032
data_MOF--net-qtz-g--node1-OLANEW_clean_sbu_2--edge1-UVAHIK_clean_linker_0
_symmetry_space_group_name_H-M    P1
_symmetry_Int_Tables_number       1
_symmetry_cell_setting            triclinic
loop_
_symmetry_equiv_pos_as_xyz
'x, y, z'
_cell_length_a     56.39591
_cell_length_b     56.395863
_cell_length_c     105.67292
_cell_angle_alpha  89.999904
_cell_angle_beta   90.000464
_cell_angle_gamma 119.99519
loop_
_atom_site_label
_atom_site_type_symbol
_atom_site_fract_x
_atom_site_fract_y
_atom_site_fract_z
_atom_type_partial_charge
O0 O 0.99962 0.36718 0.03059 0.0
Cd1 Cd 0.99484 0.322 0.0277 0.0
O2 O 0.99944 0.36169 0.05112 0.0
Cd3 Cd 0.00342 0.37419 0.07097 0.0
O4 O 0.00792 0.3822 0.0913 0.0
C5 C 0.98719 0.37695 0.09803 0.0
O6 O 0.96319 0.36719 0.09254 0.0
C7 C 0.00052 0.37625 0.0417 0.0
C8 C 0.04328 0.32465 0.01975 0.0
O9 O 0.02603 0.32422 0.01172 0.0
O10 O 0.03768 0.324 0.03155 0.0
O11 O 0.6341 0.9871 0.36528 0.0
Cd12 Cd 0.67673 0.98597 0.36367 0.0
O13 O 0.64366 0.99944 0.38508 0.0
Cd14 Cd 0.64008 0.01251 0.40416 0.0
O15 O 0.63761 0.01879 0.42439 0.0
C16 C 0.62086 0.99862 0.43111 0.0
O17 O 0.60516 0.97493 0.42558 0.0
C18 C 0.62745 0.99341 0.37571 0.0
C19 C 0.72022 0.03545 0.35509 0.0
O20 O 0.70469 0.01661 0.3473 0.0
O21 O 0.7151 0.03092 0.36694 0.0
O22 O 0.63923 0.63077 0.69924 0.0
Cd23 Cd 0.68402 0.67224 0.69774 0.0
O24 O 0.63849 0.63832 0.71949 0.0
Cd25 Cd 0.62347 0.63348 0.73897 0.0
O26 O 0.61554 0.62951 0.75931 0.0
C27 C 0.62674 0.61919 0.76606 0.0
O28 O 0.64222 0.61093 0.76053 0.0
C29 C 0.62697 0.62343 0.70983 0.0
C30 C 0.68024 0.71722 0.68948 0.0
O31 O 0.68261 0.70128 0.68157 0.0
O32 O 0.67958 0.71182 0.7013 0.0
O33 O 0.0073 0.644 0.0331 0.0
Cd34 Cd 0.00818 0.68763 0.03128 0.0
O35 O 0.00105 0.64446 0.05351 0.0
Cd36 Cd 0.99789 0.63145 0.07326 0.0
O37 O 0.99371 0.62299 0.09355 0.0
C38 C 0.0118 0.62052 0.09963 0.0
O39 O 0.03303 0.62263 0.09349 0.0
C40 C 0.00406 0.63273 0.04386 0.0
C41 C 0.959 0.68195 0.02244 0.0
O42 O 0.9779 0.685 0.01475 0.0
O43 O 0.9633 0.68138 0.03432 0.0
O44 O 0.37013 0.0087 0.3654 0.0
Cd45 Cd 0.32877 0.0122 0.3638 0.0
O46 O 0.3613 0.99853 0.38544 0.0
Cd47 Cd 0.36515 0.98656 0.40472 0.0
O48 O 0.36776 0.981 0.42502 0.0
C49 C 0.38316 0.00182 0.43173 0.0
O50 O 0.39739 0.02574 0.42616 0.0
C51 C 0.3768 0.00282 0.37593 0.0
C52 C 0.28354 0.96337 0.3558 0.0
O53 O 0.29943 0.98144 0.3478 0.0
O54 O 0.28912 0.96837 0.36759 0.0
O55 O 0.35293 0.36736 0.69859 0.0
Cd56 Cd 0.30898 0.32493 0.69696 0.0
O57 O 0.35479 0.35847 0.71858 0.0
Cd58 Cd 0.37047 0.36249 0.73789 0.0
O59 O 0.37858 0.36611 0.75821 0.0
C60 C 0.37129 0.3803 0.76476 0.0
O61 O 0.35975 0.39262 0.75901 0.0
C62 C 0.3655 0.3743 0.70911 0.0
C63 C 0.31466 0.28091 0.68894 0.0
O64 O 0.31173 0.29634 0.68095 0.0
O65 O 0.31502 0.28638 0.70074 0.0
O66 O 0.64306 0.00728 0.63441 0.0
Cd67 Cd 0.68685 0.0085 0.63629 0.0
O68 O 0.64465 0.00306 0.61388 0.0
Cd69 Cd 0.63222 0.00165 0.59413 0.0
O70 O 0.62385 0.99911 0.57385 0.0
C71 C 0.63728 0.02007 0.56689 0.0
O72 O 0.65568 0.04313 0.57215 0.0
C73 C 0.6323 0.00493 0.62358 0.0
C74 C 0.6814 0.95942 0.64516 0.0
O75 O 0.68425 0.97826 0.65285 0.0
O76 O 0.68092 0.96373 0.63328 0.0
O77 O 0.63012 0.63942 0.96855 0.0
Cd78 Cd 0.67139 0.68429 0.97037 0.0
O79 O 0.63878 0.63888 0.94843 0.0
Cd80 Cd 0.63495 0.62402 0.92896 0.0
O81 O 0.63171 0.6166 0.90858 0.0
C82 C 0.61664 0.62292 0.90214 0.0
O83 O 0.60315 0.63308 0.90802 0.0
C84 C 0.62339 0.62725 0.95793 0.0
C85 C 0.71644 0.68052 0.97852 0.0
O86 O 0.70036 0.68251 0.98647 0.0
O87 O 0.71115 0.68024 0.9667 0.0
O88 O 0.99032 0.63701 0.30192 0.0
Cd89 Cd 0.98944 0.67965 0.30435 0.0
O90 O 0.99671 0.64487 0.28157 0.0
Cd91 Cd 1.00011 0.63624 0.26166 0.0
O92 O 0.00483 0.63363 0.24129 0.0
C93 C 0.99337 0.61083 0.23549 0.0
O94 O 0.97854 0.5882 0.24195 0.0
C95 C 0.99365 0.62959 0.29102 0.0
C96 C 0.03905 0.72298 0.31291 0.0
O97 O 0.02054 0.70696 0.32071 0.0
O98 O 0.03416 0.71836 0.30104 0.0
O99 O 0.36527 0.99883 0.63517 0.0
Cd100 Cd 0.32013 0.99439 0.63761 0.0
O101 O 0.35995 0.99712 0.6146 0.0
Cd102 Cd 0.37243 0.99962 0.59481 0.0
O103 O 0.38056 0.00259 0.57449 0.0
C104 C 0.36856 0.9813 0.56761 0.0
O105 O 0.35181 0.95769 0.57295 0.0
C106 C 0.37443 0.99891 0.62418 0.0
C107 C 0.32292 0.04254 0.64613 0.0
O108 O 0.32174 0.02461 0.65395 0.0
O109 O 0.32292 0.03774 0.63427 0.0
O110 O 0.36714 0.3529 0.96715 0.0
Cd111 Cd 0.32452 0.30905 0.96847 0.0
O112 O 0.35893 0.35518 0.9471 0.0
Cd113 Cd 0.36359 0.3713 0.92784 0.0
O114 O 0.36731 0.37997 0.90757 0.0
C115 C 0.37893 0.37025 0.90071 0.0
O116 O 0.38866 0.35588 0.9061 0.0
C117 C 0.37445 0.36567 0.95668 0.0
C118 C 0.28086 0.3148 0.97701 0.0
O119 O 0.29624 0.31127 0.98481 0.0
O120 O 0.2862 0.3157 0.96518 0.0
O121 O 0.00033 0.36929 0.30142 0.0
Cd122 Cd 0.00533 0.32895 0.30394 0.0
O123 O 0.00105 0.36498 0.28085 0.0
Cd124 Cd 0.9974 0.37435 0.26109 0.0
O125 O 0.99313 0.3788 0.24082 0.0
C126 C 0.01395 0.38766 0.23365 0.0
O127 O 0.03784 0.3945 0.23868 0.0
C128 C 0.99962 0.37794 0.2904 0.0
C129 C 0.95715 0.28301 0.31201 0.0
O130 O 0.97461 0.29974 0.32 0.0
O131 O 0.96244 0.28811 0.3002 0.0
C132 C 0.01984 0.60108 0.03618 0.0
C133 C 0.0048 0.60695 0.04497 0.0
C134 C 0.02045 0.57667 0.03695 0.0
C135 C 0.98206 0.50649 0.04981 0.0
H136 H 0.04905 0.50589 0.04224 0.0
C137 C 0.99006 0.40836 0.05364 0.0
C138 C 0.00293 0.40336 0.04344 0.0
C139 C 0.99131 0.43366 0.05484 0.0
C140 C 0.03016 0.50572 0.04432 0.0
H141 H 0.97741 0.59109 0.06106 0.0
H142 H 0.97929 0.54894 0.06274 0.0
H143 H 0.0493 0.54925 0.04259 0.0
H144 H 0.027 0.42073 0.02645 0.0
H145 H 0.02918 0.46489 0.02852 0.0
H146 H 0.96292 0.4629 0.05147 0.0
C147 C 0.99071 0.56327 0.05526 0.0
C148 C 0.03027 0.53055 0.04449 0.0
C149 C 0.99006 0.58771 0.05446 0.0
C150 C 0.01707 0.42412 0.03447 0.0
C151 C 0.01847 0.44945 0.0357 0.0
C152 C 0.98198 0.48166 0.04969 0.0
C153 C 0.00592 0.55746 0.04651 0.0
C154 C 0.00614 0.53121 0.04708 0.0
C155 C 0.00547 0.45445 0.04586 0.0
C156 C 0.00595 0.48097 0.04678 0.0
H157 H 0.03122 0.61542 0.02869 0.0
H158 H 0.03193 0.57266 0.0299 0.0
H159 H 0.96303 0.50619 0.05167 0.0
H160 H 0.97825 0.39246 0.06046 0.0
H161 H 0.9811 0.43691 0.06277 0.0
C162 C 0.58814 0.99092 0.38819 0.0
C163 C 0.6015 0.994 0.37656 0.0
C164 C 0.56358 0.99139 0.38874 0.0
C165 C 0.50373 0.9771 0.37002 0.0
H166 H 0.49603 0.02709 0.39255 0.0
C167 C 0.41269 0.9957 0.36573 0.0
C168 C 0.4019 0.00066 0.37674 0.0
C169 C 0.4366 0.99413 0.3662 0.0
C170 C 0.49756 0.01262 0.38636 0.0
H171 H 0.59897 0.99904 0.35633 0.0
H172 H 0.55578 0.9991 0.35729 0.0
H173 H 0.53836 0.02525 0.39266 0.0
H174 H 0.40898 0.00955 0.39679 0.0
H175 H 0.44951 0.00494 0.39783 0.0
H176 H 0.46291 0.96385 0.36389 0.0
C177 C 0.56459 0.99678 0.36599 0.0
C178 C 0.5219 0.01171 0.3864 0.0
C179 C 0.58933 0.99678 0.36546 0.0
C180 C 0.41585 0.00438 0.38824 0.0
C181 C 0.43961 0.00243 0.38876 0.0
C182 C 0.47926 0.97766 0.37012 0.0
C183 C 0.55155 0.99421 0.37763 0.0
C184 C 0.52532 0.9942 0.3781 0.0
C185 C 0.45033 0.99729 0.37774 0.0
C186 C 0.47595 0.99571 0.37816 0.0
H187 H 0.59603 0.98728 0.39682 0.0
H188 H 0.55362 0.98885 0.39781 0.0
H189 H 0.50575 0.96315 0.36365 0.0
H190 H 0.40265 0.99307 0.35667 0.0
H191 H 0.44452 0.99086 0.35744 0.0
C192 C 0.40744 0.4119 0.6989 0.0
C193 C 0.39217 0.4001 0.70997 0.0
C194 C 0.43235 0.43646 0.69943 0.0
C195 C 0.48996 0.47863 0.71978 0.0
H196 H 0.50178 0.53825 0.69753 0.0
C197 C 0.58947 0.58394 0.72194 0.0
C198 C 0.59968 0.59834 0.71054 0.0
C199 C 0.56366 0.56029 0.72237 0.0
C200 C 0.49907 0.52172 0.70368 0.0
H201 H 0.39058 0.40615 0.73016 0.0
H202 H 0.43489 0.44815 0.73117 0.0
H203 H 0.45797 0.4957 0.6972 0.0
H204 H 0.5912 0.59844 0.69053 0.0
H205 H 0.54702 0.55672 0.69112 0.0
H206 H 0.5313 0.50395 0.72592 0.0
C207 C 0.42754 0.43803 0.72213 0.0
C208 C 0.47387 0.49742 0.70353 0.0
C209 C 0.40233 0.41369 0.72157 0.0
C210 C 0.58383 0.58806 0.69952 0.0
C211 C 0.55827 0.56423 0.69989 0.0
C212 C 0.51538 0.50276 0.71977 0.0
C213 C 0.4427 0.44965 0.71105 0.0
C214 C 0.46913 0.47565 0.71153 0.0
C215 C 0.54768 0.55009 0.71134 0.0
C216 C 0.52035 0.52462 0.71167 0.0
H217 H 0.40017 0.4021 0.68979 0.0
H218 H 0.44372 0.445 0.69076 0.0
H219 H 0.48682 0.462 0.72597 0.0
H220 H 0.60155 0.59036 0.73048 0.0
H221 H 0.55628 0.55009 0.73138 0.0
C222 C 0.59997 0.01975 0.63135 0.0
C223 C 0.60636 0.00531 0.62245 0.0
C224 C 0.57539 0.02002 0.63054 0.0
C225 C 0.5056 0.98135 0.61737 0.0
H226 H 0.50408 0.04794 0.62477 0.0
C227 C 0.40689 0.98806 0.6128 0.0
C228 C 0.4016 0.00129 0.62274 0.0
C229 C 0.4323 0.98946 0.61185 0.0
C230 C 0.50415 0.02914 0.62276 0.0
H231 H 0.59129 0.97861 0.6061 0.0
H232 H 0.54875 0.97977 0.60439 0.0
H233 H 0.54767 0.04864 0.62473 0.0
H234 H 0.41856 0.02606 0.63958 0.0
H235 H 0.46284 0.02839 0.63799 0.0
H236 H 0.46203 0.96182 0.61549 0.0
C237 C 0.56283 0.99103 0.61198 0.0
C238 C 0.52911 0.02952 0.62275 0.0
C239 C 0.58746 0.99078 0.61281 0.0
C240 C 0.42216 0.01585 0.63175 0.0
C241 C 0.44757 0.01734 0.63079 0.0
C242 C 0.48063 0.98098 0.61735 0.0
C243 C 0.55652 0.00568 0.62084 0.0
C244 C 0.53012 0.00557 0.62019 0.0
C245 C 0.45291 0.00406 0.62086 0.0
C246 C 0.47959 0.0048 0.62018 0.0
H247 H 0.61405 0.03096 0.63896 0.0
H248 H 0.57097 0.03109 0.63765 0.0
H249 H 0.50559 0.96245 0.61552 0.0
H250 H 0.39116 0.97589 0.60597 0.0
H251 H 0.43578 0.97903 0.60409 0.0
C252 C 0.41173 0.40739 0.96717 0.0
C253 C 0.4003 0.39233 0.95602 0.0
C254 C 0.43631 0.43231 0.96683 0.0
C255 C 0.47923 0.49022 0.94675 0.0
H256 H 0.53791 0.50181 0.96958 0.0
C257 C 0.58455 0.58985 0.94547 0.0
C258 C 0.5984 0.59993 0.957 0.0
C259 C 0.56097 0.56402 0.94484 0.0
C260 C 0.52164 0.49917 0.96327 0.0
H261 H 0.40703 0.39109 0.93587 0.0
H262 H 0.44908 0.43539 0.93518 0.0
H263 H 0.49539 0.45798 0.96958 0.0
H264 H 0.59755 0.5912 0.97704 0.0
H265 H 0.55594 0.54698 0.97609 0.0
H266 H 0.50478 0.53165 0.94078 0.0
C267 C 0.43866 0.42789 0.94414 0.0
C268 C 0.49736 0.47395 0.96323 0.0
C269 C 0.41429 0.40268 0.94452 0.0
C270 C 0.58762 0.58393 0.96795 0.0
C271 C 0.56385 0.55834 0.96738 0.0
C272 C 0.50335 0.51565 0.94694 0.0
C273 C 0.44991 0.44285 0.9553 0.0
C274 C 0.47592 0.4693 0.95501 0.0
C275 C 0.55027 0.54789 0.9558 0.0
C276 C 0.52486 0.52054 0.95526 0.0
H277 H 0.40161 0.39997 0.97621 0.0
H278 H 0.44455 0.44352 0.97556 0.0
H279 H 0.46286 0.48715 0.9404 0.0
H280 H 0.59136 0.60204 0.93697 0.0
H281 H 0.5512 0.55674 0.93574 0.0
C282 C 0.00786 0.59926 0.27989 0.0
C283 C 0.99302 0.6032 0.28953 0.0
C284 C 0.0074 0.57431 0.27876 0.0
C285 C 0.96833 0.50153 0.28884 0.0
H286 H 0.03616 0.50231 0.28171 0.0
C287 C 0.9825 0.40859 0.29794 0.0
C288 C 0.99698 0.40256 0.28891 0.0
C289 C 0.98084 0.43242 0.29693 0.0
C290 C 0.01697 0.50171 0.28353 0.0
H291 H 0.96657 0.58433 0.30572 0.0
H292 H 0.96618 0.54109 0.30394 0.0
H293 H 0.03554 0.54523 0.28193 0.0
H294 H 0.02201 0.4173 0.27201 0.0
H295 H 0.01869 0.4587 0.27009 0.0
H296 H 0.94992 0.45805 0.2907 0.0
C297 C 0.97761 0.55695 0.29702 0.0
C298 C 0.0166 0.52632 0.28365 0.0
C299 C 0.97803 0.58183 0.29812 0.0
C300 C 0.00994 0.42092 0.27888 0.0
C301 C 0.00842 0.44486 0.2779 0.0
C302 C 0.96873 0.47696 0.28877 0.0
C303 C 0.99227 0.55285 0.28733 0.0
C304 C 0.99234 0.52656 0.28645 0.0
C305 C 0.99391 0.4509 0.28694 0.0
C306 C 0.99311 0.47681 0.28625 0.0
H307 H 0.02046 0.61564 0.27342 0.0
H308 H 0.01892 0.57186 0.27118 0.0
H309 H 0.94918 0.50092 0.29079 0.0
H310 H 0.9725 0.39489 0.30583 0.0
H311 H 0.96986 0.43668 0.30416 0.0
C312 C 0.03397 0.39799 0.21181 0.0
C313 C 0.01112 0.38917 0.21978 0.0
C314 C 0.03114 0.39841 0.19869 0.0
C315 C 0.97967 0.36736 0.17333 0.0
H316 H 0.03486 0.42635 0.15296 0.0
C317 C 0.96679 0.37383 0.11947 0.0
C318 C 0.98987 0.38068 0.11194 0.0
C319 C 0.96913 0.37632 0.13264 0.0
C320 C 0.01938 0.40962 0.15851 0.0
H321 H 0.96746 0.37439 0.22021 0.0
H322 H 0.9626 0.37538 0.19732 0.0
H323 H 0.0394 0.42816 0.17595 0.0
H324 H 0.03363 0.39593 0.11233 0.0
H325 H 0.03766 0.40004 0.13528 0.0
H326 H 0.95978 0.3487 0.15591 0.0
C327 C 0.98264 0.3816 0.20122 0.0
C328 C 0.02199 0.41065 0.17168 0.0
C329 C 0.98546 0.38119 0.21434 0.0
C330 C 0.01543 0.3905 0.11785 0.0
C331 C 0.01778 0.39301 0.13101 0.0
C332 C 0.97707 0.36634 0.16017 0.0
C333 C 0.0054 0.39003 0.19323 0.0
C334 C 0.00223 0.38946 0.17925 0.0
C335 C 0.99462 0.38575 0.13857 0.0
C336 C 0.99696 0.38738 0.15259 0.0
H337 H 0.05403 0.40423 0.21569 0.0
H338 H 0.04904 0.40471 0.1928 0.0
H339 H 0.96432 0.35049 0.17886 0.0
H340 H 0.94681 0.36631 0.11523 0.0
H341 H 0.95096 0.37091 0.13818 0.0
C342 C 0.6374 0.02638 0.45103 0.0
C343 C 0.62001 0.00133 0.44502 0.0
C344 C 0.63744 0.02853 0.46422 0.0
C345 C 0.62023 0.98646 0.49309 0.0
H346 H 0.62646 0.05085 0.50949 0.0
C347 C 0.614 0.99338 0.54732 0.0
C348 C 0.63311 0.01823 0.55301 0.0
C349 C 0.61088 0.99138 0.53418 0.0
C350 C 0.62495 0.03284 0.50504 0.0
H351 H 0.58859 0.95905 0.44813 0.0
H352 H 0.58854 0.96289 0.4711 0.0
H353 H 0.62369 0.04729 0.48645 0.0
H354 H 0.66364 0.06058 0.54934 0.0
H355 H 0.65837 0.05701 0.52641 0.0
H356 H 0.62175 0.9721 0.51163 0.0
C357 C 0.60241 0.98077 0.46563 0.0
C358 C 0.62336 0.0308 0.49185 0.0
C359 C 0.60233 0.97862 0.45246 0.0
C360 C 0.64871 0.04114 0.54527 0.0
C361 C 0.64558 0.03914 0.53212 0.0
C362 C 0.62183 0.9885 0.50627 0.0
C363 C 0.62013 0.00568 0.47168 0.0
C364 C 0.62108 0.00763 0.48571 0.0
C365 C 0.62679 0.01418 0.52641 0.0
C366 C 0.62431 0.01176 0.5124 0.0
H367 H 0.65129 0.04427 0.44558 0.0
H368 H 0.65155 0.04795 0.46858 0.0
H369 H 0.61895 0.96854 0.48865 0.0
H370 H 0.60157 0.97536 0.55301 0.0
H371 H 0.59595 0.97196 0.53009 0.0
C372 C 0.6367 0.60703 0.78745 0.0
C373 C 0.62326 0.61735 0.77999 0.0
C374 C 0.6342 0.60611 0.80062 0.0
C375 C 0.6173 0.63765 0.82711 0.0
H376 H 0.61134 0.57616 0.8462 0.0
C377 C 0.59947 0.62824 0.88107 0.0
C378 C 0.6152 0.62005 0.88819 0.0
C379 C 0.59896 0.62661 0.86787 0.0
C380 C 0.61322 0.59358 0.841 0.0
H381 H 0.59622 0.63434 0.78052 0.0
H382 H 0.59163 0.63245 0.8035 0.0
H383 H 0.61295 0.57559 0.82313 0.0
H384 H 0.6424 0.60331 0.88702 0.0
H385 H 0.64164 0.60065 0.86398 0.0
H386 H 0.61773 0.65572 0.84497 0.0
C387 C 0.60444 0.62544 0.79917 0.0
C388 C 0.61415 0.59326 0.82779 0.0
C389 C 0.60695 0.62638 0.78599 0.0
C390 C 0.63005 0.60977 0.88182 0.0
C391 C 0.6295 0.6081 0.86861 0.0
C392 C 0.61633 0.63795 0.84032 0.0
C393 C 0.61818 0.61546 0.80664 0.0
C394 C 0.61633 0.61535 0.82068 0.0
C395 C 0.61412 0.61672 0.86148 0.0
C396 C 0.61441 0.61598 0.84742 0.0
H397 H 0.64947 0.59995 0.78313 0.0
H398 H 0.64534 0.59862 0.80609 0.0
H399 H 0.61943 0.6552 0.82195 0.0
H400 H 0.5877 0.63615 0.88568 0.0
H401 H 0.58661 0.63306 0.86266 0.0
C402 C 0.01208 0.63424 0.21473 0.0
C403 C 0.99617 0.60997 0.22159 0.0
C404 C 0.01422 0.63361 0.20158 0.0
C405 C 0.97873 0.59177 0.17366 0.0
H406 H 0.04795 0.63894 0.15698 0.0
C407 C 0.98701 0.61468 0.1201 0.0
C408 C 0.00952 0.61647 0.11352 0.0
C409 C 0.98536 0.61196 0.13326 0.0
C410 C 0.02852 0.62543 0.16149 0.0
H411 H 0.97027 0.56591 0.21999 0.0
H412 H 0.97417 0.5648 0.19702 0.0
H413 H 0.04568 0.6376 0.18002 0.0
H414 H 0.04768 0.61626 0.11561 0.0
H415 H 0.04468 0.61132 0.13858 0.0
H416 H 0.96161 0.57949 0.15512 0.0
C417 C 0.98475 0.58437 0.20182 0.0
C418 C 0.02716 0.6249 0.17469 0.0
C419 C 0.98264 0.58499 0.215 0.0
C420 C 0.03012 0.61505 0.12038 0.0
C421 C 0.02848 0.61236 0.13356 0.0
C422 C 0.98008 0.59234 0.16045 0.0
C423 C 0.00049 0.60869 0.19496 0.0
C424 C 0.0022 0.60825 0.18094 0.0
C425 C 0.00617 0.61098 0.14016 0.0
C426 C 0.00495 0.60934 0.1542 0.0
H427 H 0.02274 0.65385 0.2195 0.0
H428 H 0.02621 0.65275 0.19657 0.0
H429 H 0.95914 0.57889 0.17817 0.0
H430 H 0.97079 0.61574 0.11511 0.0
H431 H 0.96807 0.61129 0.13807 0.0
C432 C 0.36831 0.97407 0.4517 0.0
C433 C 0.38409 0.99946 0.44565 0.0
C434 C 0.36836 0.97212 0.46489 0.0
C435 C 0.38212 0.01387 0.4937 0.0
H436 H 0.38212 0.95249 0.51023 0.0
C437 C 0.38989 0.00863 0.54794 0.0
C438 C 0.3725 0.98328 0.55371 0.0
C439 C 0.39276 0.01065 0.53478 0.0
C440 C 0.38187 0.96963 0.50575 0.0
H441 H 0.41274 0.04262 0.44872 0.0
H442 H 0.41297 0.03916 0.4717 0.0
H443 H 0.38454 0.95589 0.48719 0.0
H444 H 0.34478 0.94009 0.55018 0.0
H445 H 0.34958 0.94369 0.52723 0.0
H446 H 0.3792 0.0275 0.51221 0.0
C447 C 0.40027 0.02082 0.46626 0.0
C448 C 0.38326 0.97158 0.49255 0.0
C449 C 0.40025 0.02276 0.45308 0.0
C450 C 0.35837 0.95993 0.54604 0.0
C451 C 0.36124 0.96196 0.53288 0.0
C452 C 0.38072 0.01191 0.50688 0.0
C453 C 0.38416 0.99552 0.47233 0.0
C454 C 0.38332 0.99368 0.48637 0.0
C455 C 0.3783 0.98738 0.52709 0.0
C456 C 0.38049 0.98973 0.51307 0.0
H457 H 0.3556 0.95571 0.44627 0.0
H458 H 0.35549 0.95238 0.46928 0.0
H459 H 0.38166 0.03091 0.48923 0.0
H460 H 0.40118 0.027 0.55356 0.0
H461 H 0.40637 0.03047 0.53063 0.0
C462 C 0.39213 0.36205 0.87921 0.0
C463 C 0.38051 0.37405 0.88681 0.0
C464 C 0.39272 0.36469 0.86605 0.0
C465 C 0.35822 0.37874 0.83987 0.0
H466 H 0.42093 0.38902 0.82037 0.0
C467 C 0.38647 0.36842 0.78492 0.0
C468 C 0.37459 0.38195 0.77869 0.0
C469 C 0.38856 0.36913 0.79812 0.0
C470 C 0.40318 0.38593 0.82568 0.0
H471 H 0.36088 0.39874 0.88654 0.0
H472 H 0.36218 0.40361 0.86358 0.0
H473 H 0.42222 0.38749 0.84343 0.0
H474 H 0.35607 0.40729 0.78143 0.0
H475 H 0.35988 0.40864 0.80442 0.0
H476 H 0.33911 0.37701 0.82214 0.0
C477 C 0.37047 0.39179 0.86779 0.0
C478 C 0.40391 0.38504 0.83889 0.0
C479 C 0.36987 0.38913 0.88096 0.0
C480 C 0.36523 0.39654 0.78593 0.0
C481 C 0.36727 0.3972 0.79912 0.0
C482 C 0.35751 0.37966 0.82668 0.0
C483 C 0.38172 0.37943 0.86017 0.0
C484 C 0.38138 0.3813 0.84614 0.0
C485 C 0.37876 0.38334 0.80537 0.0
C486 C 0.37992 0.38314 0.81942 0.0
H487 H 0.40047 0.35025 0.8834 0.0
H488 H 0.40122 0.35463 0.86046 0.0
H489 H 0.34033 0.37537 0.84515 0.0
H490 H 0.39387 0.35697 0.77963 0.0
H491 H 0.39726 0.358 0.80265 0.0
C492 C 0.25209 0.31695 0.99457 0.0
C493 C 0.25743 0.31744 0.98155 0.0
C494 C 0.22968 0.31891 0.99884 0.0
C495 C 0.18038 0.34062 0.98898 0.0
H496 H 0.13669 0.29377 0.01656 0.0
C497 C 0.07479 0.32648 0.00256 0.0
C498 C 0.0687 0.32545 0.01552 0.0
C499 C 0.09846 0.32657 0.99856 0.0
C500 C 0.14887 0.30723 0.00895 0.0
H501 H 0.24349 0.32053 0.96281 0.0
H502 H 0.20422 0.32361 0.97026 0.0
H503 H 0.17676 0.29194 0.00931 0.0
H504 H 0.08288 0.32402 0.03444 0.0
H505 H 0.12424 0.32432 0.02744 0.0
H506 H 0.1523 0.35573 0.98856 0.0
C507 C 0.21756 0.32208 0.97718 0.0
C508 C 0.17185 0.3062 0.00479 0.0
C509 C 0.23999 0.32015 0.97291 0.0
C510 C 0.08692 0.32474 0.02439 0.0
C511 C 0.11055 0.32476 0.02038 0.0
C512 C 0.15736 0.34162 0.99312 0.0
C513 C 0.21207 0.32138 0.9902 0.0
C514 C 0.18786 0.32284 0.99474 0.0
C515 C 0.11653 0.32556 0.00741 0.0
C516 C 0.1413 0.32489 0.00314 0.0
H517 H 0.26519 0.315 0.00148 0.0
H518 H 0.22627 0.3187 0.00894 0.0
H519 H 0.1925 0.35402 0.98134 0.0
H520 H 0.06117 0.327 0.99549 0.0
H521 H 0.10231 0.32689 0.9885 0.0
C522 C 0.91341 0.23951 0.30746 0.0
C523 C 0.93185 0.25834 0.31629 0.0
C524 C 0.88986 0.21588 0.31152 0.0
C525 C 0.84365 0.18577 0.33895 0.0
H526 H 0.82373 0.1168 0.32252 0.0
C527 C 0.76122 0.08158 0.35917 0.0
C528 C 0.74358 0.06153 0.35054 0.0
C529 C 0.7836 0.10596 0.35487 0.0
C530 C 0.82878 0.13593 0.3271 0.0
H531 H 0.93986 0.26723 0.33632 0.0
H532 H 0.89885 0.22593 0.34338 0.0
H533 H 0.86372 0.1587 0.31521 0.0
H534 H 0.73541 0.05153 0.33061 0.0
H535 H 0.77425 0.09416 0.32311 0.0
H536 H 0.80873 0.16299 0.35085 0.0
C537 C 0.90248 0.22956 0.33332 0.0
C538 C 0.85172 0.15996 0.32292 0.0
C539 C 0.92606 0.25316 0.32927 0.0
C540 C 0.74867 0.0665 0.33751 0.0
C541 C 0.77103 0.09088 0.33321 0.0
C542 C 0.82067 0.16175 0.34312 0.0
C543 C 0.88418 0.21058 0.32449 0.0
C544 C 0.85948 0.18514 0.32881 0.0
C545 C 0.78885 0.11086 0.34184 0.0
C546 C 0.81301 0.13652 0.33728 0.0
H547 H 0.91722 0.24293 0.29739 0.0
H548 H 0.876 0.20183 0.30448 0.0
H549 H 0.84886 0.20491 0.34357 0.0
H550 H 0.75791 0.07837 0.36927 0.0
H551 H 0.7971 0.12074 0.36178 0.0
C552 C 0.67851 0.74654 0.67208 0.0
C553 C 0.67861 0.7413 0.68508 0.0
C554 C 0.67745 0.76953 0.66793 0.0
C555 C 0.69237 0.838 0.67826 0.0
H556 H 0.64669 0.83283 0.64976 0.0
C557 C 0.67899 0.92884 0.66292 0.0
C558 C 0.67923 0.93367 0.64987 0.0
C559 C 0.67772 0.90488 0.66737 0.0
C560 C 0.65977 0.83468 0.65765 0.0
H561 H 0.67743 0.75598 0.70392 0.0
H562 H 0.67549 0.79604 0.69667 0.0
H563 H 0.64673 0.79192 0.65723 0.0
H564 H 0.67809 0.91702 0.63123 0.0
H565 H 0.67624 0.87543 0.63897 0.0
H566 H 0.70566 0.88077 0.67861 0.0
C567 C 0.67649 0.7825 0.68969 0.0
C568 C 0.65977 0.81123 0.66193 0.0
C569 C 0.67746 0.75946 0.69384 0.0
C570 C 0.67787 0.91389 0.64135 0.0
C571 C 0.67665 0.88996 0.64579 0.0
C572 C 0.69243 0.86146 0.67396 0.0
C573 C 0.67656 0.78784 0.67669 0.0
C574 C 0.67613 0.81264 0.67227 0.0
C575 C 0.6767 0.88522 0.65886 0.0
C576 C 0.67618 0.86011 0.66358 0.0
H577 H 0.67941 0.73298 0.66509 0.0
H578 H 0.67784 0.77323 0.65786 0.0
H579 H 0.70551 0.83985 0.68612 0.0
H580 H 0.67989 0.9436 0.66974 0.0
H581 H 0.67737 0.9017 0.67749 0.0
C582 C 0.92842 0.67967 0.0047 0.0
C583 C 0.9332 0.67969 0.01776 0.0
C584 C 0.90442 0.67835 0.00028 0.0
C585 C 0.83408 0.65986 0.00999 0.0
H586 H 0.83921 0.70619 0.98178 0.0
C587 C 0.74573 0.67847 0.99584 0.0
C588 C 0.74056 0.6789 0.98285 0.0
C589 C 0.76875 0.67741 0.99993 0.0
C590 C 0.83737 0.69288 0.98957 0.0
H591 H 0.9164 0.6781 0.03641 0.0
H592 H 0.87474 0.67616 0.0287 0.0
H593 H 0.88019 0.70636 0.98923 0.0
H594 H 0.7554 0.6783 0.96398 0.0
H595 H 0.79551 0.67635 0.97114 0.0
H596 H 0.79128 0.64663 0.0104 0.0
C597 C 0.88935 0.67678 0.02187 0.0
C598 C 0.86086 0.69295 0.99383 0.0
C599 C 0.91332 0.67806 0.02629 0.0
C600 C 0.75882 0.67807 0.97405 0.0
C601 C 0.78189 0.6771 0.97815 0.0
C602 C 0.8106 0.65984 0.00574 0.0
C603 C 0.88467 0.67706 0.00881 0.0
C604 C 0.85953 0.6765 0.00412 0.0
C605 C 0.78716 0.67684 0.99114 0.0
C606 C 0.81199 0.67641 0.99551 0.0
H607 H 0.94327 0.68079 0.99787 0.0
H608 H 0.90129 0.67818 0.99016 0.0
H609 H 0.83225 0.64662 0.01781 0.0
H610 H 0.73208 0.67911 0.00286 0.0
H611 H 0.77239 0.67755 0.01 0.0
C612 C 0.25367 0.93214 0.33858 0.0
C613 C 0.2593 0.93765 0.35155 0.0
C614 C 0.23049 0.90812 0.33457 0.0
C615 C 0.1622 0.85498 0.34534 0.0
H616 H 0.16607 0.81411 0.31668 0.0
C617 C 0.07043 0.75099 0.33048 0.0
C618 C 0.06507 0.74642 0.31745 0.0
C619 C 0.09464 0.77357 0.33479 0.0
C620 C 0.16459 0.82544 0.32462 0.0
H621 H 0.24511 0.92207 0.37047 0.0
H622 H 0.20473 0.8801 0.36345 0.0
H623 H 0.2074 0.85494 0.32392 0.0
H624 H 0.08107 0.76186 0.29872 0.0
H625 H 0.12312 0.80142 0.30623 0.0
H626 H 0.11939 0.82571 0.34598 0.0
C627 C 0.21811 0.89451 0.35639 0.0
C628 C 0.18827 0.84882 0.32877 0.0
C629 C 0.24133 0.9185 0.36041 0.0
C630 C 0.0846 0.76475 0.30882 0.0
C631 C 0.10879 0.78736 0.31313 0.0
C632 C 0.13852 0.83165 0.34117 0.0
C633 C 0.21236 0.88909 0.34343 0.0
C634 C 0.18733 0.86391 0.33916 0.0
C635 C 0.11404 0.79213 0.32616 0.0
C636 C 0.1394 0.81663 0.33074 0.0
H637 H 0.26708 0.94649 0.33151 0.0
H638 H 0.22648 0.90471 0.32451 0.0
H639 H 0.1607 0.86638 0.35325 0.0
H640 H 0.05588 0.73719 0.33739 0.0
H641 H 0.09822 0.7764 0.34489 0.0
C642 C 0.31725 0.25173 0.67171 0.0
C643 C 0.31722 0.25727 0.68468 0.0
C644 C 0.31913 0.22911 0.66769 0.0
C645 C 0.30696 0.1618 0.67848 0.0
H646 H 0.35236 0.16766 0.64975 0.0
C647 C 0.32438 0.07315 0.66368 0.0
C648 C 0.32385 0.06784 0.65065 0.0
C649 C 0.32463 0.09673 0.66795 0.0
C650 C 0.33937 0.16561 0.6577 0.0
H651 H 0.31942 0.24353 0.7036 0.0
H652 H 0.32283 0.20415 0.69657 0.0
H653 H 0.35087 0.20797 0.65698 0.0
H654 H 0.32335 0.08325 0.6319 0.0
H655 H 0.32346 0.1242 0.63937 0.0
H656 H 0.29525 0.11942 0.67915 0.0
C657 C 0.32111 0.21714 0.68951 0.0
C658 C 0.33854 0.18872 0.66185 0.0
C659 C 0.3193 0.2398 0.69354 0.0
C660 C 0.32382 0.08676 0.642 0.0
C661 C 0.32405 0.11033 0.64628 0.0
C662 C 0.30776 0.13869 0.67432 0.0
C663 C 0.32095 0.21148 0.67655 0.0
C664 C 0.32227 0.18706 0.67227 0.0
C665 C 0.32434 0.11554 0.65931 0.0
C666 C 0.32391 0.14029 0.66386 0.0
H667 H 0.31563 0.26476 0.66465 0.0
H668 H 0.31863 0.22515 0.65764 0.0
H669 H 0.2939 0.15974 0.68641 0.0
H670 H 0.32453 0.05905 0.67059 0.0
H671 H 0.32525 0.10031 0.67805 0.0
loop_
_geom_bond_atom_site_label_1
_geom_bond_atom_site_label_2
_geom_bond_distance
_geom_bond_site_symmetry_2
_ccdc_geom_bond_type
O0 Cd1 2.300 . S
O0 C7 1.275 . S
Cd1 O0 2.300 . S
Cd1 O9 2.381 . S
Cd1 O10 2.378 . S
O2 Cd3 2.385 . S
O2 C7 1.255 . S
Cd3 O2 2.385 . S
Cd3 O4 2.317 . S
O4 Cd3 2.317 . S
O4 C5 1.232 . S
C5 O4 1.232 . S
C5 O6 1.218 . S
O6 C5 1.218 . S
C7 O0 1.275 . S
C7 O2 1.255 . S
C8 O9 1.258 . S
C8 O10 1.256 . S
O9 Cd1 2.381 . S
O9 C8 1.258 . S
O10 Cd1 2.378 . S
O10 C8 1.256 . S
O11 Cd12 2.300 . S
O11 C18 1.275 . S
Cd12 O11 2.300 . S
Cd12 O20 2.381 . S
Cd12 O21 2.378 . S
O13 Cd14 2.385 . S
O13 C18 1.255 . S
Cd14 O13 2.385 . S
Cd14 O15 2.317 . S
O15 Cd14 2.317 . S
O15 C16 1.232 . S
C16 O15 1.232 . S
C16 O17 1.218 . S
O17 C16 1.218 . S
C18 O11 1.275 . S
C18 O13 1.255 . S
C19 O20 1.258 . S
C19 O21 1.256 . S
O20 Cd12 2.381 . S
O20 C19 1.258 . S
O21 Cd12 2.378 . S
O21 C19 1.256 . S
O22 Cd23 2.300 . S
O22 C29 1.275 . S
Cd23 O22 2.300 . S
Cd23 O31 2.381 . S
Cd23 O32 2.378 . S
O24 Cd25 2.385 . S
O24 C29 1.255 . S
Cd25 O24 2.385 . S
Cd25 O26 2.317 . S
O26 Cd25 2.317 . S
O26 C27 1.232 . S
C27 O26 1.232 . S
C27 O28 1.218 . S
O28 C27 1.218 . S
C29 O22 1.275 . S
C29 O24 1.255 . S
C30 O31 1.258 . S
C30 O32 1.256 . S
O31 Cd23 2.381 . S
O31 C30 1.258 . S
O32 Cd23 2.378 . S
O32 C30 1.256 . S
O33 Cd34 2.300 . S
O33 C40 1.275 . S
Cd34 O33 2.300 . S
Cd34 O42 2.381 . S
Cd34 O43 2.378 . S
O35 Cd36 2.385 . S
O35 C40 1.255 . S
Cd36 O35 2.385 . S
Cd36 O37 2.317 . S
O37 Cd36 2.317 . S
O37 C38 1.232 . S
C38 O37 1.232 . S
C38 O39 1.218 . S
O39 C38 1.218 . S
C40 O33 1.275 . S
C40 O35 1.255 . S
C41 O42 1.258 . S
C41 O43 1.256 . S
O42 Cd34 2.381 . S
O42 C41 1.258 . S
O43 Cd34 2.378 . S
O43 C41 1.256 . S
O44 Cd45 2.300 . S
O44 C51 1.275 . S
Cd45 O44 2.300 . S
Cd45 O53 2.381 . S
Cd45 O54 2.378 . S
O46 Cd47 2.385 . S
O46 C51 1.255 . S
Cd47 O46 2.385 . S
Cd47 O48 2.317 . S
O48 Cd47 2.317 . S
O48 C49 1.232 . S
C49 O48 1.232 . S
C49 O50 1.218 . S
O50 C49 1.218 . S
C51 O44 1.275 . S
C51 O46 1.255 . S
C52 O53 1.258 . S
C52 O54 1.256 . S
O53 Cd45 2.381 . S
O53 C52 1.258 . S
O54 Cd45 2.378 . S
O54 C52 1.256 . S
O55 Cd56 2.300 . S
O55 C62 1.275 . S
Cd56 O55 2.300 . S
Cd56 O64 2.381 . S
Cd56 O65 2.378 . S
O57 Cd58 2.385 . S
O57 C62 1.255 . S
Cd58 O57 2.385 . S
Cd58 O59 2.317 . S
O59 Cd58 2.317 . S
O59 C60 1.232 . S
C60 O59 1.232 . S
C60 O61 1.218 . S
O61 C60 1.218 . S
C62 O55 1.275 . S
C62 O57 1.255 . S
C63 O64 1.258 . S
C63 O65 1.256 . S
O64 Cd56 2.381 . S
O64 C63 1.258 . S
O65 Cd56 2.378 . S
O65 C63 1.256 . S
O66 Cd67 2.300 . S
O66 C73 1.275 . S
Cd67 O66 2.300 . S
Cd67 O75 2.381 . S
Cd67 O76 2.378 . S
O68 Cd69 2.385 . S
O68 C73 1.255 . S
Cd69 O68 2.385 . S
Cd69 O70 2.317 . S
O70 Cd69 2.317 . S
O70 C71 1.232 . S
C71 O70 1.232 . S
C71 O72 1.218 . S
O72 C71 1.218 . S
C73 O66 1.275 . S
C73 O68 1.255 . S
C74 O75 1.258 . S
C74 O76 1.256 . S
O75 Cd67 2.381 . S
O75 C74 1.258 . S
O76 Cd67 2.378 . S
O76 C74 1.256 . S
O77 Cd78 2.300 . S
O77 C84 1.275 . S
Cd78 O77 2.300 . S
Cd78 O86 2.381 . S
Cd78 O87 2.378 . S
O79 Cd80 2.385 . S
O79 C84 1.255 . S
Cd80 O79 2.385 . S
Cd80 O81 2.317 . S
O81 Cd80 2.317 . S
O81 C82 1.232 . S
C82 O81 1.232 . S
C82 O83 1.218 . S
O83 C82 1.218 . S
C84 O77 1.275 . S
C84 O79 1.255 . S
C85 O86 1.258 . S
C85 O87 1.256 . S
O86 Cd78 2.381 . S
O86 C85 1.258 . S
O87 Cd78 2.378 . S
O87 C85 1.256 . S
O88 Cd89 2.300 . S
O88 C95 1.275 . S
Cd89 O88 2.300 . S
Cd89 O97 2.381 . S
Cd89 O98 2.378 . S
O90 Cd91 2.385 . S
O90 C95 1.255 . S
Cd91 O90 2.385 . S
Cd91 O92 2.317 . S
O92 Cd91 2.317 . S
O92 C93 1.232 . S
C93 O92 1.232 . S
C93 O94 1.218 . S
O94 C93 1.218 . S
C95 O88 1.275 . S
C95 O90 1.255 . S
C96 O97 1.258 . S
C96 O98 1.256 . S
O97 Cd89 2.381 . S
O97 C96 1.258 . S
O98 Cd89 2.378 . S
O98 C96 1.256 . S
O99 Cd100 2.300 . S
O99 C106 1.275 . S
Cd100 O99 2.300 . S
Cd100 O108 2.381 . S
Cd100 O109 2.378 . S
O101 Cd102 2.385 . S
O101 C106 1.255 . S
Cd102 O101 2.385 . S
Cd102 O103 2.317 . S
O103 Cd102 2.317 . S
O103 C104 1.232 . S
C104 O103 1.232 . S
C104 O105 1.218 . S
O105 C104 1.218 . S
C106 O99 1.275 . S
C106 O101 1.255 . S
C107 O108 1.258 . S
C107 O109 1.256 . S
O108 Cd100 2.381 . S
O108 C107 1.258 . S
O109 Cd100 2.378 . S
O109 C107 1.256 . S
O110 Cd111 2.300 . S
O110 C117 1.275 . S
Cd111 O110 2.300 . S
Cd111 O119 2.381 . S
Cd111 O120 2.378 . S
O112 Cd113 2.385 . S
O112 C117 1.255 . S
Cd113 O112 2.385 . S
Cd113 O114 2.317 . S
O114 Cd113 2.317 . S
O114 C115 1.232 . S
C115 O114 1.232 . S
C115 O116 1.218 . S
O116 C115 1.218 . S
C117 O110 1.275 . S
C117 O112 1.255 . S
C118 O119 1.258 . S
C118 O120 1.256 . S
O119 Cd111 2.381 . S
O119 C118 1.258 . S
O120 Cd111 2.378 . S
O120 C118 1.256 . S
O121 Cd122 2.300 . S
O121 C128 1.275 . S
Cd122 O121 2.300 . S
Cd122 O130 2.381 . S
Cd122 O131 2.378 . S
O123 Cd124 2.385 . S
O123 C128 1.255 . S
Cd124 O123 2.385 . S
Cd124 O125 2.317 . S
O125 Cd124 2.317 . S
O125 C126 1.232 . S
C126 O125 1.232 . S
C126 O127 1.218 . S
O127 C126 1.218 . S
C128 O121 1.275 . S
C128 O123 1.255 . S
C129 O130 1.258 . S
C129 O131 1.256 . S
O130 Cd122 2.381 . S
O130 C129 1.258 . S
O131 Cd122 2.378 . S
O131 C129 1.256 . S
C132 C133 1.349 1_455 S
C132 C134 1.327 . S
C132 H157 0.950 . S
C133 C132 1.349 1_655 S
C133 C149 1.349 . S
C134 C132 1.327 . S
C134 C153 1.429 1_455 S
C134 H158 0.950 . S
C135 C152 1.574 . S
C135 C154 1.368 . S
C135 H159 0.949 . S
H136 C140 0.949 . S
C137 C138 1.349 1_655 S
C137 C139 1.327 . S
C137 H160 0.950 . S
C138 C137 1.349 1_455 S
C138 C150 1.349 . S
C139 C137 1.327 . S
C139 C155 1.429 1_655 S
C139 H161 0.950 . S
C140 H136 0.949 . S
C140 C148 1.574 . S
C140 C156 1.368 . S
H141 C149 0.950 . S
H142 C147 0.950 . S
H143 C148 0.949 . S
H144 C150 0.950 . S
H145 C151 0.950 . S
H146 C152 0.949 . S
C147 H142 0.950 . S
C147 C149 1.327 . S
C147 C153 1.429 . S
C148 C140 1.574 . S
C148 H143 0.949 . S
C148 C154 1.368 1_455 S
C149 C133 1.349 . S
C149 H141 0.950 . S
C149 C147 1.327 . S
C150 C138 1.349 . S
C150 H144 0.950 . S
C150 C151 1.327 . S
C151 H145 0.950 . S
C151 C150 1.327 . S
C151 C155 1.429 . S
C152 C135 1.574 . S
C152 H146 0.949 . S
C152 C156 1.368 1_655 S
C153 C134 1.429 1_655 S
C153 C147 1.429 . S
C153 C154 1.523 . S
C154 C135 1.368 . S
C154 C148 1.368 1_655 S
C154 C153 1.523 . S
C155 C139 1.429 1_455 S
C155 C151 1.429 . S
C155 C156 1.523 . S
C156 C140 1.368 . S
C156 C152 1.368 1_455 S
C156 C155 1.523 . S
H157 C132 0.950 . S
H158 C134 0.950 . S
H159 C135 0.949 . S
H160 C137 0.950 . S
H161 C139 0.950 . S
C162 C163 1.349 . S
C162 C164 1.327 . S
C162 H187 0.950 . S
C163 C162 1.349 . S
C163 C179 1.349 1_545 S
C164 C162 1.327 . S
C164 C183 1.429 . S
C164 H188 0.950 . S
C165 C182 1.574 . S
C165 C184 1.368 1_565 S
C165 H189 0.949 . S
H166 C170 0.949 . S
C167 C168 1.349 . S
C167 C169 1.327 . S
C167 H190 0.950 . S
C168 C167 1.349 . S
C168 C180 1.349 1_565 S
C169 C167 1.327 . S
C169 C185 1.429 . S
C169 H191 0.950 . S
C170 H166 0.949 . S
C170 C178 1.574 . S
C170 C186 1.368 1_545 S
H171 C179 0.950 . S
H172 C177 0.950 . S
H173 C178 0.949 . S
H174 C180 0.950 . S
H175 C181 0.950 . S
H176 C182 0.949 . S
C177 H172 0.950 . S
C177 C179 1.327 . S
C177 C183 1.429 1_565 S
C178 C170 1.574 . S
C178 H173 0.949 . S
C178 C184 1.368 . S
C179 C163 1.349 1_565 S
C179 H171 0.950 . S
C179 C177 1.327 . S
C180 C168 1.349 1_545 S
C180 H174 0.950 . S
C180 C181 1.327 . S
C181 H175 0.950 . S
C181 C180 1.327 . S
C181 C185 1.429 1_545 S
C182 C165 1.574 . S
C182 H176 0.949 . S
C182 C186 1.368 . S
C183 C164 1.429 . S
C183 C177 1.429 1_545 S
C183 C184 1.523 . S
C184 C165 1.368 1_545 S
C184 C178 1.368 . S
C184 C183 1.523 . S
C185 C169 1.429 . S
C185 C181 1.429 1_565 S
C185 C186 1.523 . S
C186 C170 1.368 1_565 S
C186 C182 1.368 . S
C186 C185 1.523 . S
H187 C162 0.950 . S
H188 C164 0.950 . S
H189 C165 0.949 . S
H190 C167 0.950 . S
H191 C169 0.950 . S
C192 C193 1.349 . S
C192 C194 1.327 . S
C192 H217 0.950 . S
C193 C192 1.349 . S
C193 C209 1.349 . S
C194 C192 1.327 . S
C194 C213 1.429 . S
C194 H218 0.950 . S
C195 C212 1.574 . S
C195 C214 1.368 . S
C195 H219 0.949 . S
H196 C200 0.949 . S
C197 C198 1.349 . S
C197 C199 1.327 . S
C197 H220 0.950 . S
C198 C197 1.349 . S
C198 C210 1.349 . S
C199 C197 1.327 . S
C199 C215 1.429 . S
C199 H221 0.950 . S
C200 H196 0.949 . S
C200 C208 1.574 . S
C200 C216 1.368 . S
H201 C209 0.950 . S
H202 C207 0.950 . S
H203 C208 0.949 . S
H204 C210 0.950 . S
H205 C211 0.950 . S
H206 C212 0.949 . S
C207 H202 0.950 . S
C207 C209 1.327 . S
C207 C213 1.429 . S
C208 C200 1.574 . S
C208 H203 0.949 . S
C208 C214 1.368 . S
C209 C193 1.349 . S
C209 H201 0.950 . S
C209 C207 1.327 . S
C210 C198 1.349 . S
C210 H204 0.950 . S
C210 C211 1.327 . S
C211 H205 0.950 . S
C211 C210 1.327 . S
C211 C215 1.429 . S
C212 C195 1.574 . S
C212 H206 0.949 . S
C212 C216 1.368 . S
C213 C194 1.429 . S
C213 C207 1.429 . S
C213 C214 1.523 . S
C214 C195 1.368 . S
C214 C208 1.368 . S
C214 C213 1.523 . S
C215 C199 1.429 . S
C215 C211 1.429 . S
C215 C216 1.523 . S
C216 C200 1.368 . S
C216 C212 1.368 . S
C216 C215 1.523 . S
H217 C192 0.950 . S
H218 C194 0.950 . S
H219 C195 0.949 . S
H220 C197 0.950 . S
H221 C199 0.950 . S
C222 C223 1.349 1_545 S
C222 C224 1.327 . S
C222 H247 0.950 . S
C223 C222 1.349 1_565 S
C223 C239 1.349 . S
C224 C222 1.327 . S
C224 C243 1.429 1_545 S
C224 H248 0.950 . S
C225 C242 1.574 . S
C225 C244 1.368 . S
C225 H249 0.949 . S
H226 C230 0.949 . S
C227 C228 1.349 1_565 S
C227 C229 1.327 . S
C227 H250 0.950 . S
C228 C227 1.349 1_545 S
C228 C240 1.349 . S
C229 C227 1.327 . S
C229 C245 1.429 1_565 S
C229 H251 0.950 . S
C230 H226 0.949 . S
C230 C238 1.574 . S
C230 C246 1.368 . S
H231 C239 0.950 . S
H232 C237 0.950 . S
H233 C238 0.949 . S
H234 C240 0.950 . S
H235 C241 0.950 . S
H236 C242 0.949 . S
C237 H232 0.950 . S
C237 C239 1.327 . S
C237 C243 1.429 . S
C238 C230 1.574 . S
C238 H233 0.949 . S
C238 C244 1.368 1_545 S
C239 C223 1.349 . S
C239 H231 0.950 . S
C239 C237 1.327 . S
C240 C228 1.349 . S
C240 H234 0.950 . S
C240 C241 1.327 . S
C241 H235 0.950 . S
C241 C240 1.327 . S
C241 C245 1.429 . S
C242 C225 1.574 . S
C242 H236 0.949 . S
C242 C246 1.368 1_565 S
C243 C224 1.429 1_565 S
C243 C237 1.429 . S
C243 C244 1.523 . S
C244 C225 1.368 . S
C244 C238 1.368 1_565 S
C244 C243 1.523 . S
C245 C229 1.429 1_545 S
C245 C241 1.429 . S
C245 C246 1.523 . S
C246 C230 1.368 . S
C246 C242 1.368 1_545 S
C246 C245 1.523 . S
H247 C222 0.950 . S
H248 C224 0.950 . S
H249 C225 0.949 . S
H250 C227 0.950 . S
H251 C229 0.950 . S
C252 C253 1.349 . S
C252 C254 1.327 . S
C252 H277 0.950 . S
C253 C252 1.349 . S
C253 C269 1.349 . S
C254 C252 1.327 . S
C254 C273 1.429 . S
C254 H278 0.950 . S
C255 C272 1.574 . S
C255 C274 1.368 . S
C255 H279 0.949 . S
H256 C260 0.949 . S
C257 C258 1.349 . S
C257 C259 1.327 . S
C257 H280 0.950 . S
C258 C257 1.349 . S
C258 C270 1.349 . S
C259 C257 1.327 . S
C259 C275 1.429 . S
C259 H281 0.950 . S
C260 H256 0.949 . S
C260 C268 1.574 . S
C260 C276 1.368 . S
H261 C269 0.950 . S
H262 C267 0.950 . S
H263 C268 0.949 . S
H264 C270 0.950 . S
H265 C271 0.950 . S
H266 C272 0.949 . S
C267 H262 0.950 . S
C267 C269 1.327 . S
C267 C273 1.429 . S
C268 C260 1.574 . S
C268 H263 0.949 . S
C268 C274 1.368 . S
C269 C253 1.349 . S
C269 H261 0.950 . S
C269 C267 1.327 . S
C270 C258 1.349 . S
C270 H264 0.950 . S
C270 C271 1.327 . S
C271 H265 0.950 . S
C271 C270 1.327 . S
C271 C275 1.429 . S
C272 C255 1.574 . S
C272 H266 0.949 . S
C272 C276 1.368 . S
C273 C254 1.429 . S
C273 C267 1.429 . S
C273 C274 1.523 . S
C274 C255 1.368 . S
C274 C268 1.368 . S
C274 C273 1.523 . S
C275 C259 1.429 . S
C275 C271 1.429 . S
C275 C276 1.523 . S
C276 C260 1.368 . S
C276 C272 1.368 . S
C276 C275 1.523 . S
H277 C252 0.950 . S
H278 C254 0.950 . S
H279 C255 0.949 . S
H280 C257 0.950 . S
H281 C259 0.950 . S
C282 C283 1.349 . S
C282 C284 1.327 . S
C282 H307 0.950 . S
C283 C282 1.349 . S
C283 C299 1.349 1_455 S
C284 C282 1.327 . S
C284 C303 1.429 . S
C284 H308 0.950 . S
C285 C302 1.574 . S
C285 C304 1.368 1_655 S
C285 H309 0.949 . S
H286 C290 0.949 . S
C287 C288 1.349 . S
C287 C289 1.327 . S
C287 H310 0.950 . S
C288 C287 1.349 . S
C288 C300 1.349 1_655 S
C289 C287 1.327 . S
C289 C305 1.429 . S
C289 H311 0.950 . S
C290 H286 0.949 . S
C290 C298 1.574 . S
C290 C306 1.368 1_455 S
H291 C299 0.950 . S
H292 C297 0.950 . S
H293 C298 0.949 . S
H294 C300 0.950 . S
H295 C301 0.950 . S
H296 C302 0.949 . S
C297 H292 0.950 . S
C297 C299 1.327 . S
C297 C303 1.429 1_655 S
C298 C290 1.574 . S
C298 H293 0.949 . S
C298 C304 1.368 . S
C299 C283 1.349 1_655 S
C299 H291 0.950 . S
C299 C297 1.327 . S
C300 C288 1.349 1_455 S
C300 H294 0.950 . S
C300 C301 1.327 . S
C301 H295 0.950 . S
C301 C300 1.327 . S
C301 C305 1.429 1_455 S
C302 C285 1.574 . S
C302 H296 0.949 . S
C302 C306 1.368 . S
C303 C284 1.429 . S
C303 C297 1.429 1_455 S
C303 C304 1.523 . S
C304 C285 1.368 1_455 S
C304 C298 1.368 . S
C304 C303 1.523 . S
C305 C289 1.429 . S
C305 C301 1.429 1_655 S
C305 C306 1.523 . S
C306 C290 1.368 1_655 S
C306 C302 1.368 . S
C306 C305 1.523 . S
H307 C282 0.950 . S
H308 C284 0.950 . S
H309 C285 0.949 . S
H310 C287 0.950 . S
H311 C289 0.950 . S
C312 C313 1.349 1_455 S
C312 C314 1.327 . S
C312 H337 0.950 . S
C313 C312 1.349 1_655 S
C313 C329 1.349 . S
C314 C312 1.327 . S
C314 C333 1.429 1_455 S
C314 H338 0.950 . S
C315 C332 1.574 . S
C315 C334 1.368 . S
C315 H339 0.949 . S
H316 C320 0.949 . S
C317 C318 1.349 1_655 S
C317 C319 1.327 . S
C317 H340 0.950 . S
C318 C317 1.349 1_455 S
C318 C330 1.349 . S
C319 C317 1.327 . S
C319 C335 1.429 1_655 S
C319 H341 0.950 . S
C320 H316 0.949 . S
C320 C328 1.574 . S
C320 C336 1.368 . S
H321 C329 0.950 . S
H322 C327 0.950 . S
H323 C328 0.949 . S
H324 C330 0.950 . S
H325 C331 0.950 . S
H326 C332 0.949 . S
C327 H322 0.950 . S
C327 C329 1.327 . S
C327 C333 1.429 . S
C328 C320 1.574 . S
C328 H323 0.949 . S
C328 C334 1.368 1_455 S
C329 C313 1.349 . S
C329 H321 0.950 . S
C329 C327 1.327 . S
C330 C318 1.349 . S
C330 H324 0.950 . S
C330 C331 1.327 . S
C331 H325 0.950 . S
C331 C330 1.327 . S
C331 C335 1.429 . S
C332 C315 1.574 . S
C332 H326 0.949 . S
C332 C336 1.368 1_655 S
C333 C314 1.429 1_655 S
C333 C327 1.429 . S
C333 C334 1.523 . S
C334 C315 1.368 . S
C334 C328 1.368 1_655 S
C334 C333 1.523 . S
C335 C319 1.429 1_455 S
C335 C331 1.429 . S
C335 C336 1.523 . S
C336 C320 1.368 . S
C336 C332 1.368 1_455 S
C336 C335 1.523 . S
H337 C312 0.950 . S
H338 C314 0.950 . S
H339 C315 0.949 . S
H340 C317 0.950 . S
H341 C319 0.950 . S
C342 C343 1.349 . S
C342 C344 1.327 . S
C342 H367 0.950 . S
C343 C342 1.349 . S
C343 C359 1.349 1_545 S
C344 C342 1.327 . S
C344 C363 1.429 . S
C344 H368 0.950 . S
C345 C362 1.574 . S
C345 C364 1.368 1_565 S
C345 H369 0.949 . S
H346 C350 0.949 . S
C347 C348 1.349 . S
C347 C349 1.327 . S
C347 H370 0.950 . S
C348 C347 1.349 . S
C348 C360 1.349 1_565 S
C349 C347 1.327 . S
C349 C365 1.429 . S
C349 H371 0.950 . S
C350 H346 0.949 . S
C350 C358 1.574 . S
C350 C366 1.368 1_545 S
H351 C359 0.950 . S
H352 C357 0.950 . S
H353 C358 0.949 . S
H354 C360 0.950 . S
H355 C361 0.950 . S
H356 C362 0.949 . S
C357 H352 0.950 . S
C357 C359 1.327 . S
C357 C363 1.429 1_565 S
C358 C350 1.574 . S
C358 H353 0.949 . S
C358 C364 1.368 . S
C359 C343 1.349 1_565 S
C359 H351 0.950 . S
C359 C357 1.327 . S
C360 C348 1.349 1_545 S
C360 H354 0.950 . S
C360 C361 1.327 . S
C361 H355 0.950 . S
C361 C360 1.327 . S
C361 C365 1.429 1_545 S
C362 C345 1.574 . S
C362 H356 0.949 . S
C362 C366 1.368 . S
C363 C344 1.429 . S
C363 C357 1.429 1_545 S
C363 C364 1.523 . S
C364 C345 1.368 1_545 S
C364 C358 1.368 . S
C364 C363 1.523 . S
C365 C349 1.429 . S
C365 C361 1.429 1_565 S
C365 C366 1.523 . S
C366 C350 1.368 1_565 S
C366 C362 1.368 . S
C366 C365 1.523 . S
H367 C342 0.950 . S
H368 C344 0.950 . S
H369 C345 0.949 . S
H370 C347 0.950 . S
H371 C349 0.950 . S
C372 C373 1.349 . S
C372 C374 1.327 . S
C372 H397 0.950 . S
C373 C372 1.349 . S
C373 C389 1.349 . S
C374 C372 1.327 . S
C374 C393 1.429 . S
C374 H398 0.950 . S
C375 C392 1.574 . S
C375 C394 1.368 . S
C375 H399 0.949 . S
H376 C380 0.949 . S
C377 C378 1.349 . S
C377 C379 1.327 . S
C377 H400 0.950 . S
C378 C377 1.349 . S
C378 C390 1.349 . S
C379 C377 1.327 . S
C379 C395 1.429 . S
C379 H401 0.950 . S
C380 H376 0.949 . S
C380 C388 1.574 . S
C380 C396 1.368 . S
H381 C389 0.950 . S
H382 C387 0.950 . S
H383 C388 0.949 . S
H384 C390 0.950 . S
H385 C391 0.950 . S
H386 C392 0.949 . S
C387 H382 0.950 . S
C387 C389 1.327 . S
C387 C393 1.429 . S
C388 C380 1.574 . S
C388 H383 0.949 . S
C388 C394 1.368 . S
C389 C373 1.349 . S
C389 H381 0.950 . S
C389 C387 1.327 . S
C390 C378 1.349 . S
C390 H384 0.950 . S
C390 C391 1.327 . S
C391 H385 0.950 . S
C391 C390 1.327 . S
C391 C395 1.429 . S
C392 C375 1.574 . S
C392 H386 0.949 . S
C392 C396 1.368 . S
C393 C374 1.429 . S
C393 C387 1.429 . S
C393 C394 1.523 . S
C394 C375 1.368 . S
C394 C388 1.368 . S
C394 C393 1.523 . S
C395 C379 1.429 . S
C395 C391 1.429 . S
C395 C396 1.523 . S
C396 C380 1.368 . S
C396 C392 1.368 . S
C396 C395 1.523 . S
H397 C372 0.950 . S
H398 C374 0.950 . S
H399 C375 0.949 . S
H400 C377 0.950 . S
H401 C379 0.950 . S
C402 C403 1.349 . S
C402 C404 1.327 . S
C402 H427 0.950 . S
C403 C402 1.349 . S
C403 C419 1.349 1_455 S
C404 C402 1.327 . S
C404 C423 1.429 . S
C404 H428 0.950 . S
C405 C422 1.574 . S
C405 C424 1.368 1_655 S
C405 H429 0.949 . S
H406 C410 0.949 . S
C407 C408 1.349 . S
C407 C409 1.327 . S
C407 H430 0.950 . S
C408 C407 1.349 . S
C408 C420 1.349 1_655 S
C409 C407 1.327 . S
C409 C425 1.429 . S
C409 H431 0.950 . S
C410 H406 0.949 . S
C410 C418 1.574 . S
C410 C426 1.368 1_455 S
H411 C419 0.950 . S
H412 C417 0.950 . S
H413 C418 0.949 . S
H414 C420 0.950 . S
H415 C421 0.950 . S
H416 C422 0.949 . S
C417 H412 0.950 . S
C417 C419 1.327 . S
C417 C423 1.429 1_655 S
C418 C410 1.574 . S
C418 H413 0.949 . S
C418 C424 1.368 . S
C419 C403 1.349 1_655 S
C419 H411 0.950 . S
C419 C417 1.327 . S
C420 C408 1.349 1_455 S
C420 H414 0.950 . S
C420 C421 1.327 . S
C421 H415 0.950 . S
C421 C420 1.327 . S
C421 C425 1.429 1_455 S
C422 C405 1.574 . S
C422 H416 0.949 . S
C422 C426 1.368 . S
C423 C404 1.429 . S
C423 C417 1.429 1_455 S
C423 C424 1.523 . S
C424 C405 1.368 1_455 S
C424 C418 1.368 . S
C424 C423 1.523 . S
C425 C409 1.429 . S
C425 C421 1.429 1_655 S
C425 C426 1.523 . S
C426 C410 1.368 1_655 S
C426 C422 1.368 . S
C426 C425 1.523 . S
H427 C402 0.950 . S
H428 C404 0.950 . S
H429 C405 0.949 . S
H430 C407 0.950 . S
H431 C409 0.950 . S
C432 C433 1.349 . S
C432 C434 1.327 . S
C432 H457 0.950 . S
C433 C432 1.349 . S
C433 C449 1.349 1_565 S
C434 C432 1.327 . S
C434 C453 1.429 . S
C434 H458 0.950 . S
C435 C452 1.574 . S
C435 C454 1.368 1_545 S
C435 H459 0.949 . S
H436 C440 0.949 . S
C437 C438 1.349 . S
C437 C439 1.327 . S
C437 H460 0.950 . S
C438 C437 1.349 . S
C438 C450 1.349 1_545 S
C439 C437 1.327 . S
C439 C455 1.429 . S
C439 H461 0.950 . S
C440 H436 0.949 . S
C440 C448 1.574 . S
C440 C456 1.368 1_565 S
H441 C449 0.950 . S
H442 C447 0.950 . S
H443 C448 0.949 . S
H444 C450 0.950 . S
H445 C451 0.950 . S
H446 C452 0.949 . S
C447 H442 0.950 . S
C447 C449 1.327 . S
C447 C453 1.429 1_545 S
C448 C440 1.574 . S
C448 H443 0.949 . S
C448 C454 1.368 . S
C449 C433 1.349 1_545 S
C449 H441 0.950 . S
C449 C447 1.327 . S
C450 C438 1.349 1_565 S
C450 H444 0.950 . S
C450 C451 1.327 . S
C451 H445 0.950 . S
C451 C450 1.327 . S
C451 C455 1.429 1_565 S
C452 C435 1.574 . S
C452 H446 0.949 . S
C452 C456 1.368 . S
C453 C434 1.429 . S
C453 C447 1.429 1_565 S
C453 C454 1.523 . S
C454 C435 1.368 1_565 S
C454 C448 1.368 . S
C454 C453 1.523 . S
C455 C439 1.429 . S
C455 C451 1.429 1_545 S
C455 C456 1.523 . S
C456 C440 1.368 1_545 S
C456 C452 1.368 . S
C456 C455 1.523 . S
H457 C432 0.950 . S
H458 C434 0.950 . S
H459 C435 0.949 . S
H460 C437 0.950 . S
H461 C439 0.950 . S
C462 C463 1.349 . S
C462 C464 1.327 . S
C462 H487 0.950 . S
C463 C462 1.349 . S
C463 C479 1.349 . S
C464 C462 1.327 . S
C464 C483 1.429 . S
C464 H488 0.950 . S
C465 C482 1.574 . S
C465 C484 1.368 . S
C465 H489 0.949 . S
H466 C470 0.949 . S
C467 C468 1.349 . S
C467 C469 1.327 . S
C467 H490 0.950 . S
C468 C467 1.349 . S
C468 C480 1.349 . S
C469 C467 1.327 . S
C469 C485 1.429 . S
C469 H491 0.950 . S
C470 H466 0.949 . S
C470 C478 1.574 . S
C470 C486 1.368 . S
H471 C479 0.950 . S
H472 C477 0.950 . S
H473 C478 0.949 . S
H474 C480 0.950 . S
H475 C481 0.950 . S
H476 C482 0.949 . S
C477 H472 0.950 . S
C477 C479 1.327 . S
C477 C483 1.429 . S
C478 C470 1.574 . S
C478 H473 0.949 . S
C478 C484 1.368 . S
C479 C463 1.349 . S
C479 H471 0.950 . S
C479 C477 1.327 . S
C480 C468 1.349 . S
C480 H474 0.950 . S
C480 C481 1.327 . S
C481 H475 0.950 . S
C481 C480 1.327 . S
C481 C485 1.429 . S
C482 C465 1.574 . S
C482 H476 0.949 . S
C482 C486 1.368 . S
C483 C464 1.429 . S
C483 C477 1.429 . S
C483 C484 1.523 . S
C484 C465 1.368 . S
C484 C478 1.368 . S
C484 C483 1.523 . S
C485 C469 1.429 . S
C485 C481 1.429 . S
C485 C486 1.523 . S
C486 C470 1.368 . S
C486 C482 1.368 . S
C486 C485 1.523 . S
H487 C462 0.950 . S
H488 C464 0.950 . S
H489 C465 0.949 . S
H490 C467 0.950 . S
H491 C469 0.950 . S
C492 C493 1.349 . S
C492 C494 1.327 . S
C492 H517 0.950 . S
C493 C492 1.349 . S
C493 C509 1.349 . S
C494 C492 1.327 . S
C494 C513 1.429 . S
C494 H518 0.950 . S
C495 C512 1.632 . S
C495 C514 1.368 . S
C495 H519 0.949 . S
H496 C500 0.949 . S
C497 C498 1.349 . S
C497 C499 1.327 . S
C497 H520 0.950 . S
C498 C497 1.349 . S
C498 C510 1.349 . S
C499 C497 1.327 . S
C499 C515 1.429 . S
C499 H521 0.950 . S
C500 H496 0.949 . S
C500 C508 1.632 . S
C500 C516 1.368 . S
H501 C509 0.950 . S
H502 C507 0.950 . S
H503 C508 0.958 . S
H504 C510 0.950 . S
H505 C511 0.950 . S
H506 C512 0.958 . S
C507 H502 0.950 . S
C507 C509 1.327 . S
C507 C513 1.429 . S
C508 C500 1.632 . S
C508 H503 0.958 . S
C508 C514 1.308 1_554 S
C509 C493 1.349 . S
C509 H501 0.950 . S
C509 C507 1.327 . S
C510 C498 1.349 . S
C510 H504 0.950 . S
C510 C511 1.327 . S
C511 H505 0.950 . S
C511 C510 1.327 . S
C511 C515 1.429 . S
C512 C495 1.632 . S
C512 H506 0.958 . S
C512 C516 1.309 1_556 S
C513 C494 1.429 . S
C513 C507 1.429 . S
C513 C514 1.523 . S
C514 C495 1.368 . S
C514 C508 1.308 1_556 S
C514 C513 1.523 . S
C515 C499 1.429 . S
C515 C511 1.429 . S
C515 C516 1.523 . S
C516 C500 1.368 . S
C516 C512 1.309 1_554 S
C516 C515 1.523 . S
H517 C492 0.950 . S
H518 C494 0.950 . S
H519 C495 0.949 . S
H520 C497 0.950 . S
H521 C499 0.950 . S
C522 C523 1.349 . S
C522 C524 1.327 . S
C522 H547 0.950 . S
C523 C522 1.349 . S
C523 C539 1.349 . S
C524 C522 1.327 . S
C524 C543 1.429 . S
C524 H548 0.950 . S
C525 C542 1.574 . S
C525 C544 1.368 . S
C525 H549 0.949 . S
H526 C530 0.949 . S
C527 C528 1.349 . S
C527 C529 1.327 . S
C527 H550 0.950 . S
C528 C527 1.349 . S
C528 C540 1.349 . S
C529 C527 1.327 . S
C529 C545 1.429 . S
C529 H551 0.950 . S
C530 H526 0.949 . S
C530 C538 1.574 . S
C530 C546 1.368 . S
H531 C539 0.950 . S
H532 C537 0.950 . S
H533 C538 0.949 . S
H534 C540 0.950 . S
H535 C541 0.950 . S
H536 C542 0.949 . S
C537 H532 0.950 . S
C537 C539 1.327 . S
C537 C543 1.429 . S
C538 C530 1.574 . S
C538 H533 0.949 . S
C538 C544 1.368 . S
C539 C523 1.349 . S
C539 H531 0.950 . S
C539 C537 1.327 . S
C540 C528 1.349 . S
C540 H534 0.950 . S
C540 C541 1.327 . S
C541 H535 0.950 . S
C541 C540 1.327 . S
C541 C545 1.429 . S
C542 C525 1.574 . S
C542 H536 0.949 . S
C542 C546 1.368 . S
C543 C524 1.429 . S
C543 C537 1.429 . S
C543 C544 1.523 . S
C544 C525 1.368 . S
C544 C538 1.368 . S
C544 C543 1.523 . S
C545 C529 1.429 . S
C545 C541 1.429 . S
C545 C546 1.523 . S
C546 C530 1.368 . S
C546 C542 1.368 . S
C546 C545 1.523 . S
H547 C522 0.950 . S
H548 C524 0.950 . S
H549 C525 0.949 . S
H550 C527 0.950 . S
H551 C529 0.950 . S
C552 C553 1.349 . S
C552 C554 1.327 . S
C552 H577 0.950 . S
C553 C552 1.349 . S
C553 C569 1.349 . S
C554 C552 1.327 . S
C554 C573 1.429 . S
C554 H578 0.950 . S
C555 C572 1.574 . S
C555 C574 1.368 . S
C555 H579 0.949 . S
H556 C560 0.949 . S
C557 C558 1.349 . S
C557 C559 1.327 . S
C557 H580 0.950 . S
C558 C557 1.349 . S
C558 C570 1.349 . S
C559 C557 1.327 . S
C559 C575 1.429 . S
C559 H581 0.950 . S
C560 H556 0.949 . S
C560 C568 1.574 . S
C560 C576 1.368 . S
H561 C569 0.950 . S
H562 C567 0.950 . S
H563 C568 0.949 . S
H564 C570 0.950 . S
H565 C571 0.950 . S
H566 C572 0.949 . S
C567 H562 0.950 . S
C567 C569 1.327 . S
C567 C573 1.429 . S
C568 C560 1.574 . S
C568 H563 0.949 . S
C568 C574 1.368 . S
C569 C553 1.349 . S
C569 H561 0.950 . S
C569 C567 1.327 . S
C570 C558 1.349 . S
C570 H564 0.950 . S
C570 C571 1.327 . S
C571 H565 0.950 . S
C571 C570 1.327 . S
C571 C575 1.429 . S
C572 C555 1.574 . S
C572 H566 0.949 . S
C572 C576 1.368 . S
C573 C554 1.429 . S
C573 C567 1.429 . S
C573 C574 1.523 . S
C574 C555 1.368 . S
C574 C568 1.368 . S
C574 C573 1.523 . S
C575 C559 1.429 . S
C575 C571 1.429 . S
C575 C576 1.523 . S
C576 C560 1.368 . S
C576 C572 1.368 . S
C576 C575 1.523 . S
H577 C552 0.950 . S
H578 C554 0.950 . S
H579 C555 0.949 . S
H580 C557 0.950 . S
H581 C559 0.950 . S
C582 C583 1.349 . S
C582 C584 1.327 . S
C582 H607 0.950 . S
C583 C582 1.349 . S
C583 C599 1.349 . S
C584 C582 1.327 . S
C584 C603 1.429 . S
C584 H608 0.950 . S
C585 C602 1.632 . S
C585 C604 1.368 . S
C585 H609 0.949 . S
H586 C590 0.949 . S
C587 C588 1.349 . S
C587 C589 1.327 . S
C587 H610 0.950 . S
C588 C587 1.349 . S
C588 C600 1.349 . S
C589 C587 1.327 . S
C589 C605 1.429 . S
C589 H611 0.950 . S
C590 H586 0.949 . S
C590 C598 1.632 . S
C590 C606 1.368 . S
H591 C599 0.950 . S
H592 C597 0.950 . S
H593 C598 0.958 . S
H594 C600 0.950 . S
H595 C601 0.950 . S
H596 C602 0.958 . S
C597 H592 0.950 . S
C597 C599 1.327 . S
C597 C603 1.429 . S
C598 C590 1.632 . S
C598 H593 0.958 . S
C598 C604 1.308 1_556 S
C599 C583 1.349 . S
C599 H591 0.950 . S
C599 C597 1.327 . S
C600 C588 1.349 . S
C600 H594 0.950 . S
C600 C601 1.327 . S
C601 H595 0.950 . S
C601 C600 1.327 . S
C601 C605 1.429 . S
C602 C585 1.632 . S
C602 H596 0.958 . S
C602 C606 1.309 1_554 S
C603 C584 1.429 . S
C603 C597 1.429 . S
C603 C604 1.523 . S
C604 C585 1.368 . S
C604 C598 1.308 1_554 S
C604 C603 1.523 . S
C605 C589 1.429 . S
C605 C601 1.429 . S
C605 C606 1.523 . S
C606 C590 1.368 . S
C606 C602 1.309 1_556 S
C606 C605 1.523 . S
H607 C582 0.950 . S
H608 C584 0.950 . S
H609 C585 0.949 . S
H610 C587 0.950 . S
H611 C589 0.950 . S
C612 C613 1.349 . S
C612 C614 1.327 . S
C612 H637 0.950 . S
C613 C612 1.349 . S
C613 C629 1.349 . S
C614 C612 1.327 . S
C614 C633 1.429 . S
C614 H638 0.950 . S
C615 C632 1.574 . S
C615 C634 1.368 . S
C615 H639 0.949 . S
H616 C620 0.949 . S
C617 C618 1.349 . S
C617 C619 1.327 . S
C617 H640 0.950 . S
C618 C617 1.349 . S
C618 C630 1.349 . S
C619 C617 1.327 . S
C619 C635 1.429 . S
C619 H641 0.950 . S
C620 H616 0.949 . S
C620 C628 1.574 . S
C620 C636 1.368 . S
H621 C629 0.950 . S
H622 C627 0.950 . S
H623 C628 0.949 . S
H624 C630 0.950 . S
H625 C631 0.950 . S
H626 C632 0.949 . S
C627 H622 0.950 . S
C627 C629 1.327 . S
C627 C633 1.429 . S
C628 C620 1.574 . S
C628 H623 0.949 . S
C628 C634 1.368 . S
C629 C613 1.349 . S
C629 H621 0.950 . S
C629 C627 1.327 . S
C630 C618 1.349 . S
C630 H624 0.950 . S
C630 C631 1.327 . S
C631 H625 0.950 . S
C631 C630 1.327 . S
C631 C635 1.429 . S
C632 C615 1.574 . S
C632 H626 0.949 . S
C632 C636 1.368 . S
C633 C614 1.429 . S
C633 C627 1.429 . S
C633 C634 1.523 . S
C634 C615 1.368 . S
C634 C628 1.368 . S
C634 C633 1.523 . S
C635 C619 1.429 . S
C635 C631 1.429 . S
C635 C636 1.523 . S
C636 C620 1.368 . S
C636 C632 1.368 . S
C636 C635 1.523 . S
H637 C612 0.950 . S
H638 C614 0.950 . S
H639 C615 0.949 . S
H640 C617 0.950 . S
H641 C619 0.950 . S
C642 C643 1.349 . S
C642 C644 1.327 . S
C642 H667 0.950 . S
C643 C642 1.349 . S
C643 C659 1.349 . S
C644 C642 1.327 . S
C644 C663 1.429 . S
C644 H668 0.950 . S
C645 C662 1.574 . S
C645 C664 1.368 . S
C645 H669 0.949 . S
H646 C650 0.949 . S
C647 C648 1.349 . S
C647 C649 1.327 . S
C647 H670 0.950 . S
C648 C647 1.349 . S
C648 C660 1.349 . S
C649 C647 1.327 . S
C649 C665 1.429 . S
C649 H671 0.950 . S
C650 H646 0.949 . S
C650 C658 1.574 . S
C650 C666 1.368 . S
H651 C659 0.950 . S
H652 C657 0.950 . S
H653 C658 0.949 . S
H654 C660 0.950 . S
H655 C661 0.950 . S
H656 C662 0.949 . S
C657 H652 0.950 . S
C657 C659 1.327 . S
C657 C663 1.429 . S
C658 C650 1.574 . S
C658 H653 0.949 . S
C658 C664 1.368 . S
C659 C643 1.349 . S
C659 H651 0.950 . S
C659 C657 1.327 . S
C660 C648 1.349 . S
C660 H654 0.950 . S
C660 C661 1.327 . S
C661 H655 0.950 . S
C661 C660 1.327 . S
C661 C665 1.429 . S
C662 C645 1.574 . S
C662 H656 0.949 . S
C662 C666 1.368 . S
C663 C644 1.429 . S
C663 C657 1.429 . S
C663 C664 1.523 . S
C664 C645 1.368 . S
C664 C658 1.368 . S
C664 C663 1.523 . S
C665 C649 1.429 . S
C665 C661 1.429 . S
C665 C666 1.523 . S
C666 C650 1.368 . S
C666 C662 1.368 . S
C666 C665 1.523 . S
H667 C642 0.950 . S
H668 C644 0.950 . S
H669 C645 0.949 . S
H670 C647 0.950 . S
H671 C649 0.950 . S
C133 C40 1.553 . S
C138 C7 1.553 . S
C163 C18 1.553 . S
C168 C51 1.552 . S
C193 C62 1.553 . S
C198 C29 1.553 . S
C223 C73 1.553 . S
C228 C106 1.553 . S
C253 C117 1.553 . S
C258 C84 1.553 . S
C283 C95 1.552 . S
C288 C128 1.552 . S
C313 C126 1.312 . S
C318 C5 1.312 . S
C343 C16 1.312 . S
C348 C71 1.312 . S
C373 C27 1.312 . S
C378 C82 1.312 . S
C403 C93 1.312 . S
C408 C38 1.312 . S
C433 C49 1.312 . S
C438 C104 1.312 . S
C463 C115 1.312 . S
C468 C60 1.312 . S
C493 C118 1.644 . S
C498 C8 1.644 . S
C523 C129 1.644 . S
C528 C19 1.644 . S
C553 C30 1.644 . S
C558 C74 1.644 . S
C583 C41 1.644 . S
C588 C85 1.644 . S
C613 C52 1.644 . S
C618 C96 1.644 . S
C643 C63 1.644 . S
C648 C107 1.644 . S
