# Generated by pormake.
# Topology tfs, (6)-cn, num edge types: 1
# Building blocks:
#     Node 0, Type 0, BuildingBlock: UKALOJ_clean_sbu_0, # of connection points: 6
#     Node 1, Type 0, BuildingBlock: UKALOJ_clean_sbu_0, # of connection points: 6
#     Node 2, Type 0, BuildingBlock: UKALOJ_clean_sbu_0, # of connection points: 6
#     Node 3, Type 0, BuildingBlock: UKALOJ_clean_sbu_0, # of connection points: 6
#     Node 4, Type 0, BuildingBlock: UKALOJ_clean_sbu_0, # of connection points: 6
#     Node 5, Type 0, BuildingBlock: UKALOJ_clean_sbu_0, # of connection points: 6
#     Edge 6, Type (0, 0), BuildingBlock: MIFKUJ_clean_linker_0, # of connection points: 2
#     Edge 7, Type (0, 0), BuildingBlock: MIFKUJ_clean_linker_0, # of connection points: 2
#     Edge 8, Type (0, 0), BuildingBlock: MIFKUJ_clean_linker_0, # of connection points: 2
#     Edge 9, Type (0, 0), BuildingBlock: MIFKUJ_clean_linker_0, # of connection points: 2
#     Edge 10, Type (0, 0), BuildingBlock: MIFKUJ_clean_linker_0, # of connection points: 2
#     Edge 11, Type (0, 0), BuildingBlock: MIFKUJ_clean_linker_0, # of connection points: 2
#     Edge 12, Type (0, 0), BuildingBlock: MIFKUJ_clean_linker_0, # of connection points: 2
#     Edge 13, Type (0, 0), BuildingBlock: MIFKUJ_clean_linker_0, # of connection points: 2
#     Edge 14, Type (0, 0), BuildingBlock: MIFKUJ_clean_linker_0, # of connection points: 2
#     Edge 15, Type (0, 0), BuildingBlock: MIFKUJ_clean_linker_0, # of connection points: 2
#     Edge 16, Type (0, 0), BuildingBlock: MIFKUJ_clean_linker_0, # of connection points: 2
#     Edge 17, Type (0, 0), BuildingBlock: MIFKUJ_clean_linker_0, # of connection points: 2
#     Edge 18, Type (0, 0), BuildingBlock: MIFKUJ_clean_linker_0, # of connection points: 2
#     Edge 19, Type (0, 0), BuildingBlock: MIFKUJ_clean_linker_0, # of connection points: 2
#     Edge 20, Type (0, 0), BuildingBlock: MIFKUJ_clean_linker_0, # of connection points: 2
#     Edge 21, Type (0, 0), BuildingBlock: MIFKUJ_clean_linker_0, # of connection points: 2
#     Edge 22, Type (0, 0), BuildingBlock: MIFKUJ_clean_linker_0, # of connection points: 2
#     Edge 23, Type (0, 0), BuildingBlock: MIFKUJ_clean_linker_0, # of connection points: 2
# Relax obj value: 0.219
# Max RMSD: 0.156
# Mean RMSD: 0.155
data_MOF--net-tfs--node1-UKALOJ_clean_sbu_0--edge1-MIFKUJ_clean_linker_0
_symmetry_space_group_name_H-M    P1
_symmetry_Int_Tables_number       1
_symmetry_cell_setting            triclinic
loop_
_symmetry_equiv_pos_as_xyz
'x, y, z'
_cell_length_a     59.990354
_cell_length_b     59.981531
_cell_length_c     19.840555
_cell_angle_alpha  90.104819
_cell_angle_beta   89.786477
_cell_angle_gamma 120.01494
loop_
_atom_site_label
_atom_site_type_symbol
_atom_site_fract_x
_atom_site_fract_y
_atom_site_fract_z
_atom_type_partial_charge
Zn0 Zn 0.17842 0.44178 0.97089 0.0
O1 O 0.17681 0.44119 0.07732 0.0
C2 C 0.23495 0.46228 0.9753 0.0
Zn3 Zn 0.18794 0.41034 0.97074 0.0
C4 C 0.18136 0.42556 0.10931 0.0
O5 O 0.18649 0.41041 0.07675 0.0
C6 C 0.18486 0.42639 0.83234 0.0
O7 O 0.14794 0.38277 0.96739 0.0
O8 O 0.13898 0.41401 0.96789 0.0
N9 N 0.19612 0.38113 0.97514 0.0
C10 C 0.216 0.37886 0.95154 0.0
C11 C 0.19179 0.34492 0.00787 0.0
N12 N 0.18107 0.35998 0.00988 0.0
N13 N 0.21383 0.35634 0.9719 0.0
C14 C 0.18025 0.49413 -0.00678 0.0
C15 C 0.14843 0.48907 0.93419 0.0
N16 N 0.16913 0.47022 0.96683 0.0
N17 N 0.14932 0.46711 0.93039 0.0
N18 N 0.16771 0.50641 0.97304 0.0
H19 H 0.20292 0.48927 0.07002 0.0
H20 H 0.20119 0.5184 0.07723 0.0
H21 H 0.22067 0.51542 0.01269 0.0
C22 C 0.20242 0.50483 0.04141 0.0
C23 C 0.23666 0.3981 0.90599 0.0
H24 H 0.2295 0.40872 0.8759 0.0
H25 H 0.24376 0.38844 0.87141 0.0
H26 H 0.25298 0.41229 0.93693 0.0
O27 O 0.18914 0.41061 0.86449 0.0
O28 O 0.1799 0.4417 0.86471 0.0
C29 C 0.13138 0.39009 0.96658 0.0
O30 O 0.21812 0.46921 0.97332 0.0
O31 O 0.22773 0.43842 0.9749 0.0
Zn32 Zn 0.73884 0.1776 0.00092 0.0
O33 O 0.73812 0.17697 0.10718 0.0
C34 C 0.77483 0.23411 0.00262 0.0
Zn35 Zn 0.77977 0.18698 0.00066 0.0
C36 C 0.75827 0.18153 0.13923 0.0
O37 O 0.77844 0.18621 0.10674 0.0
C38 C 0.76032 0.18292 0.86236 0.0
O39 O 0.76737 0.14696 -0.00131 0.0
O40 O 0.7272 0.13811 8e-05 0.0
N41 N 0.81725 0.19538 0.00466 0.0
C42 C 0.83921 0.21516 0.97984 0.0
C43 C 0.84949 0.19157 0.03677 0.0
N44 N 0.82369 0.18072 0.0398 0.0
N45 N 0.85976 0.21332 -0.0002 0.0
C46 C 0.68833 0.17958 0.02227 0.0
C47 C 0.66149 0.14725 0.96464 0.0
N48 N 0.70107 0.16821 -0.00305 0.0
N49 N 0.68432 0.14808 0.96142 0.0
N50 N 0.66348 0.16688 0.00225 0.0
H51 H 0.71589 0.20285 0.09844 0.0
H52 H 0.6851 0.20134 0.1046 0.0
H53 H 0.70765 0.22018 0.03954 0.0
C54 C 0.69989 0.20218 0.06926 0.0
C55 C 0.84029 0.2354 0.93346 0.0
H56 H 0.82229 0.22803 0.90431 0.0
H57 H 0.85677 0.24214 0.898 0.0
H58 H 0.84278 0.25205 0.96369 0.0
O59 O 0.78043 0.18741 0.89448 0.0
O60 O 0.74011 0.1782 0.89476 0.0
C61 C 0.74347 0.13044 -0.0012 0.0
O62 O 0.75105 0.21729 0.00112 0.0
O63 O 0.79143 0.22683 0.00318 0.0
Zn64 Zn 0.56339 0.7373 -0.00518 0.0
O65 O 0.56293 0.73649 0.10124 0.0
C66 C 0.54243 0.77298 -0.00389 0.0
Zn67 Zn 0.59462 0.77841 -0.00512 0.0
C68 C 0.5783 0.75678 0.13334 0.0
O69 O 0.59373 0.77697 0.10091 0.0
C70 C 0.57978 0.75904 0.8564 0.0
O71 O 0.62244 0.76623 -0.0068 0.0
O72 O 0.59142 0.72593 -0.00554 0.0
N73 N 0.62366 0.81593 -0.00021 0.0
C74 C 0.62588 0.83804 0.97633 0.0
C75 C 0.65982 0.84794 0.03244 0.0
N76 N 0.64482 0.82214 0.0344 0.0
N77 N 0.64835 0.85845 -0.00339 0.0
C78 C 0.51098 0.6864 0.0141 0.0
C79 C 0.51723 0.65984 0.95715 0.0
N80 N 0.53525 0.69941 0.9899 0.0
N81 N 0.5391 0.68283 0.95478 0.0
N82 N 0.49922 0.66157 -0.00619 0.0
H83 H 0.51443 0.71384 0.08987 0.0
H84 H 0.48541 0.68275 0.09535 0.0
H85 H 0.489 0.70505 0.03003 0.0
C86 C 0.49938 0.69765 0.06037 0.0
C87 C 0.60672 0.83943 0.93081 0.0
H88 H 0.59618 0.82163 0.90058 0.0
H89 H 0.61643 0.85622 0.89644 0.0
H90 H 0.59252 0.8416 0.9618 0.0
O91 O 0.59511 0.77927 0.88874 0.0
O92 O 0.56448 0.73872 0.88859 0.0
C93 C 0.6153 0.74238 -0.00668 0.0
O94 O 0.5357 0.74925 -0.00549 0.0
O95 O 0.56626 0.78977 -0.00297 0.0
Zn96 Zn 0.82826 0.56274 0.98907 0.0
O97 O 0.82888 0.56244 0.09541 0.0
C98 C 0.77161 0.54195 -0.00928 0.0
Zn99 Zn 0.81849 0.59406 0.98957 0.0
C100 C 0.824 0.57782 0.12772 0.0
O101 O 0.81907 0.59312 0.0955 0.0
C102 C 0.82288 0.57919 0.85089 0.0
O103 O 0.85852 0.62173 0.98821 0.0
O104 O 0.8677 0.59065 0.9883 0.0
N105 N 0.81024 0.62324 -0.00462 0.0
C106 C 0.79051 0.62574 0.9721 0.0
C107 C 0.81458 0.65936 0.02957 0.0
N108 N 0.8252 0.6442 0.03085 0.0
N109 N 0.79268 0.64819 -0.00662 0.0
C110 C 0.8267 0.51035 0.00919 0.0
C111 C 0.85909 0.51613 0.95092 0.0
N112 N 0.83778 0.53442 0.98383 0.0
N113 N 0.85794 0.53797 0.94784 0.0
N114 N 0.83962 0.49843 0.98885 0.0
H115 H 0.80292 0.51438 0.08483 0.0
H116 H 0.80565 0.48581 0.09274 0.0
H117 H 0.78623 0.48806 0.02734 0.0
C118 C 0.80418 0.49912 0.05662 0.0
C119 C 0.77001 0.60688 0.92584 0.0
H120 H 0.77715 0.5962 0.89563 0.0
H121 H 0.76331 0.61688 0.89148 0.0
H122 H 0.7534 0.59276 0.95627 0.0
O123 O 0.81819 0.59466 0.88345 0.0
O124 O 0.8277 0.56374 0.88284 0.0
C125 C 0.87519 0.61454 0.98785 0.0
O126 O 0.7886 0.5352 0.98932 0.0
O127 O 0.77866 0.56578 -0.0086 0.0
Zn128 Zn 0.26782 0.82718 -0.00099 0.0
O129 O 0.26973 0.82873 0.10535 0.0
C130 C 0.2323 0.7707 0.00408 0.0
Zn131 Zn 0.22678 0.81753 0.00084 0.0
C132 C 0.24975 0.82439 0.1384 0.0
O133 O 0.22935 0.81935 0.10692 0.0
C134 C 0.2448 0.82034 0.86137 0.0
O135 O 0.23878 0.85736 -0.0028 0.0
O136 O 0.27908 0.86661 -0.00339 0.0
N137 N 0.18931 0.80903 0.00846 0.0
C138 C 0.16701 0.78916 0.98582 0.0
C139 C 0.15761 0.81345 0.04309 0.0
N140 N 0.1834 0.82411 0.04386 0.0
N141 N 0.14679 0.79139 0.00735 0.0
C142 C 0.31911 0.82622 0.01513 0.0
C143 C 0.34468 0.85796 0.95355 0.0
N144 N 0.30568 0.83699 -0.00891 0.0
N145 N 0.32165 0.85676 0.95308 0.0
N146 N 0.34358 0.83891 -0.00819 0.0
H147 H 0.2926 0.8033 0.094 0.0
H148 H 0.32406 0.80619 0.09861 0.0
H149 H 0.30135 0.78598 0.03594 0.0
C150 C 0.30867 0.80426 0.0641 0.0
C151 C 0.16526 0.76845 0.93996 0.0
H152 H 0.18308 0.77533 0.90992 0.0
H153 H 0.1486 0.76176 0.90542 0.0
H154 H 0.16258 0.75188 0.97072 0.0
O155 O 0.22493 0.81617 0.89459 0.0
O156 O 0.26526 0.82543 0.89268 0.0
C157 C 0.26263 0.87404 -0.00396 0.0
O158 O 0.25601 0.7877 0.00123 0.0
O159 O 0.21548 0.77772 0.00488 0.0
Zn160 Zn 0.44251 0.26676 -0.00813 0.0
O161 O 0.44112 0.26875 0.09806 0.0
C162 C 0.46356 0.23134 0.00271 0.0
Zn163 Zn 0.41136 0.22566 -0.00736 0.0
C164 C 0.42535 0.24874 0.13065 0.0
O165 O 0.41056 0.2282 0.09868 0.0
C166 C 0.42852 0.24361 0.85386 0.0
O167 O 0.38356 0.23771 0.98422 0.0
O168 O 0.41456 0.27802 0.9841 0.0
N169 N 0.38221 0.18823 -0.0016 0.0
C170 C 0.38032 0.16588 0.97814 0.0
C171 C 0.34527 0.1566 0.02848 0.0
N172 N 0.36038 0.18241 0.02945 0.0
N173 N 0.35737 0.14573 -0.00311 0.0
C174 C 0.49443 0.31797 0.01257 0.0
C175 C 0.48958 0.34348 0.9476 0.0
N176 N 0.4707 0.30457 0.98557 0.0
N177 N 0.46772 0.32051 0.94548 0.0
N178 N 0.50675 0.34241 0.98908 0.0
H179 H 0.48922 0.29179 0.09369 0.0
H180 H 0.51807 0.32299 0.09922 0.0
H181 H 0.51591 0.29965 0.03872 0.0
C182 C 0.50491 0.30751 0.06437 0.0
C183 C 0.4003 0.16396 0.93702 0.0
H184 H 0.39119 0.14693 0.90329 0.0
H185 H 0.41364 0.16179 0.97129 0.0
H186 H 0.41165 0.18153 0.90638 0.0
O187 O 0.41255 0.22369 0.8864 0.0
O188 O 0.44332 0.26416 0.88581 0.0
C189 C 0.39071 0.26154 0.98141 0.0
O190 O 0.47016 0.255 -0.00101 0.0
O191 O 0.43977 0.2144 0.00147 0.0
H192 H 0.33808 0.23189 0.9752 0.0
H193 H 0.30692 0.24685 0.96767 0.0
H194 H 0.36913 0.32562 0.96531 0.0
H195 H 0.40029 0.31094 0.9735 0.0
H196 H 0.33231 0.31866 0.0546 0.0
H197 H 0.33549 0.29671 0.82114 0.0
H198 H 0.33196 0.26805 0.72745 0.0
H199 H 0.25356 0.21515 0.78239 0.0
H200 H 0.25661 0.24346 0.87661 0.0
H201 H 0.26618 0.38348 0.97551 0.0
H202 H 0.29521 0.36623 0.96873 0.0
H203 H 0.2301 0.28925 0.95356 0.0
H204 H 0.20096 0.3068 0.95529 0.0
H205 H 0.26694 0.29336 0.87428 0.0
H206 H 0.26246 0.31447 0.10486 0.0
H207 H 0.2648 0.34211 0.19991 0.0
H208 H 0.34442 0.39453 0.15525 0.0
H209 H 0.34246 0.36737 0.05934 0.0
C210 C 0.34511 0.25239 0.97283 0.0
C211 C 0.37166 0.27023 0.9752 0.0
C212 C 0.32729 0.2609 0.96817 0.0
C213 C 0.33573 0.28735 0.96548 0.0
C214 C 0.36221 0.30512 0.96737 0.0
C215 C 0.37999 0.29668 0.97202 0.0
C216 C 0.3171 0.29672 0.96346 0.0
C217 C 0.31822 0.31339 0.01469 0.0
C218 C 0.29816 0.28913 0.91271 0.0
C219 C 0.29637 0.27206 0.85631 0.0
C220 C 0.31756 0.27886 0.81357 0.0
C221 C 0.31564 0.26271 0.7603 0.0
C222 C 0.29262 0.23974 0.74918 0.0
C223 C 0.27141 0.23293 0.79114 0.0
C224 C 0.2732 0.24904 0.84438 0.0
C225 C 0.25803 0.36302 0.96802 0.0
C226 C 0.23126 0.34656 0.96398 0.0
C227 C 0.27466 0.35308 0.96568 0.0
C228 C 0.26485 0.32638 0.96171 0.0
C229 C 0.23814 0.30991 0.95664 0.0
C230 C 0.22152 0.31991 0.95793 0.0
C231 C 0.28241 0.31566 0.96492 0.0
C232 C 0.281 0.29863 0.91422 0.0
C233 C 0.30096 0.3227 0.01664 0.0
C234 C 0.30224 0.339 0.07456 0.0
C235 C 0.28042 0.33198 0.11504 0.0
C236 C 0.28168 0.34755 0.16911 0.0
C237 C 0.30473 0.37009 0.18351 0.0
C238 C 0.32657 0.37708 0.14399 0.0
C239 C 0.3254 0.36159 0.08981 0.0
H240 H 0.30567 0.38212 0.22538 0.0
H241 H 0.29118 0.22727 0.70791 0.0
H242 H 0.09163 0.39987 0.9615 0.0
H243 H 0.04561 0.3688 0.9625 0.0
H244 H 0.06174 0.30638 0.96946 0.0
H245 H 0.10803 0.33741 0.96766 0.0
H246 H 0.02243 0.29719 0.88068 0.0
H247 H 0.04541 0.32531 0.11092 0.0
H248 H 0.06501 0.35822 0.19995 0.0
H249 H 0.01355 0.38619 0.15256 0.0
H250 H 0.99394 0.35373 0.06242 0.0
H251 H 0.89627 0.20047 0.97907 0.0
H252 H 0.94279 0.22976 0.9697 0.0
H253 H 0.93099 0.2948 0.98948 0.0
H254 H 0.88488 0.26558 0.00321 0.0
H255 H 0.96877 0.30196 0.06481 0.0
H256 H 0.9464 0.27648 0.83477 0.0
H257 H 0.92744 0.24618 0.73984 0.0
H258 H 0.97722 0.21561 0.78061 0.0
H259 H 0.99625 0.24551 0.87642 0.0
C260 C 0.08546 0.37954 0.96306 0.0
C261 C 0.10351 0.37112 0.96504 0.0
C262 C 0.05913 0.36182 0.96374 0.0
C263 C 0.05029 0.33532 0.96698 0.0
C264 C 0.0682 0.32677 0.96716 0.0
C265 C 0.09462 0.34452 0.96637 0.0
C266 C 0.02235 0.31666 0.97182 0.0
C267 C 0.01069 0.29793 0.92139 0.0
C268 C 0.00703 0.31816 0.02405 0.0
C269 C 0.01835 0.33721 0.07955 0.0
C270 C 0.03836 0.33856 0.11927 0.0
C271 C 0.04947 0.35713 0.16996 0.0
C272 C 0.04057 0.37432 0.1818 0.0
C273 C 0.02044 0.37288 0.14327 0.0
C274 C 0.00931 0.35438 0.09241 0.0
C275 C 0.90369 0.22104 0.98088 0.0
C276 C 0.88685 0.23073 0.98963 0.0
C277 C 0.93021 0.23776 0.97507 0.0
C278 C 0.94039 0.26454 0.97744 0.0
C279 C 0.92359 0.27424 0.98669 0.0
C280 C 0.89713 0.25751 -0.00673 0.0
C281 C 0.96861 0.28249 0.9732 0.0
C282 C 0.9804 0.30108 0.024 0.0
C283 C 0.98396 0.28105 0.92081 0.0
C284 C 0.97256 0.26306 0.86321 0.0
C285 C 0.95316 0.26316 0.82384 0.0
C286 C 0.94243 0.24608 0.76981 0.0
C287 C 0.95107 0.22893 0.75432 0.0
C288 C 0.97052 0.22888 0.79273 0.0
C289 C 0.9813 0.2459 0.84687 0.0
H290 H 0.94274 0.21573 0.71246 0.0
H291 H 0.04925 0.38878 0.2208 0.0
H292 H 0.77258 0.107 0.98812 0.0
H293 H 0.75722 0.06073 0.98436 0.0
H294 H 0.67882 0.04463 0.00102 0.0
H295 H 0.69393 0.09068 0.00528 0.0
H296 H 0.68835 0.01493 0.08555 0.0
H297 H 0.70252 0.03921 0.85127 0.0
H298 H 0.72794 0.06446 0.75324 0.0
H299 H 0.78201 0.03845 0.78526 0.0
H300 H 0.75708 0.01332 0.88412 0.0
H301 H 0.62116 0.88339 0.00559 0.0
H302 H 0.6382 0.92977 7e-05 0.0
H303 H 0.71488 0.94188 0.97266 0.0
H304 H 0.69753 0.89516 0.9747 0.0
H305 H 0.70778 0.97396 0.89411 0.0
H306 H 0.694 0.94951 0.12693 0.0
H307 H 0.66932 0.92459 0.2262 0.0
H308 H 0.61566 0.9514 0.19903 0.0
H309 H 0.63983 0.97621 0.09899 0.0
C310 C 0.75207 0.09361 -0.009 0.0
C311 C 0.73447 0.10253 -0.00308 0.0
C312 C 0.74333 0.06719 0.98855 0.0
C313 C 0.71686 0.04927 -0.00817 0.0
C314 C 0.69931 0.05814 -0.00164 0.0
C315 C 0.708 0.08448 0.00063 0.0
C316 C 0.70732 0.02121 0.98938 0.0
C317 C 0.69234 0.00592 0.04332 0.0
C318 C 0.71315 0.0096 0.93513 0.0
C319 C 0.72808 0.0246 0.87552 0.0
C320 C 0.71994 0.03904 0.83774 0.0
C321 C 0.73424 0.0533 0.78196 0.0
C322 C 0.75662 0.05312 0.76314 0.0
C323 C 0.7647 0.03861 0.79996 0.0
C324 C 0.75048 0.02434 0.85584 0.0
C325 C 0.64148 0.89582 -0.00399 0.0
C326 C 0.65795 0.88562 0.98885 0.0
C327 C 0.6513 0.9224 -0.00586 0.0
C328 C 0.67787 0.93934 0.98675 0.0
C329 C 0.69431 0.92919 0.97836 0.0
C330 C 0.68444 0.90257 0.97976 0.0
C331 C 0.68856 0.96761 0.99 0.0
C332 C 0.70382 0.98296 0.93638 0.0
C333 C 0.68311 0.97934 0.04475 0.0
C334 C 0.6686 0.96453 0.10509 0.0
C335 C 0.67683 0.94994 0.14183 0.0
C336 C 0.66295 0.93586 0.19828 0.0
C337 C 0.6409 0.93636 0.21881 0.0
C338 C 0.63272 0.951 0.18302 0.0
C339 C 0.64652 0.9651 0.12648 0.0
H340 H 0.63018 0.92544 0.26253 0.0
H341 H 0.76766 0.06417 0.71994 0.0
H342 H 0.74048 0.6215 0.00048 0.0
H343 H 0.71159 0.63906 -0.00699 0.0
H344 H 0.77688 0.7154 0.96825 0.0
H345 H 0.80591 0.69768 0.97387 0.0
H346 H 0.74232 0.71299 0.06478 0.0
H347 H 0.74005 0.68614 0.83572 0.0
H348 H 0.73475 0.65565 0.74523 0.0
H349 H 0.65669 0.60511 0.80793 0.0
H350 H 0.66164 0.63512 0.89951 0.0
H351 H 0.66789 0.77202 0.98684 0.0
H352 H 0.69917 0.75718 0.98217 0.0
H353 H 0.6373 0.67833 -0.00882 0.0
H354 H 0.60596 0.69293 -0.0052 0.0
H355 H 0.67176 0.68377 0.89787 0.0
H356 H 0.67377 0.70789 0.12927 0.0
H357 H 0.67811 0.73674 0.22323 0.0
H358 H 0.75531 0.79052 0.16026 0.0
H359 H 0.7513 0.76212 0.0653 0.0
C360 C 0.74865 0.64186 -0.00892 0.0
C361 C 0.77542 0.65813 0.98546 0.0
C362 C 0.73213 0.65193 0.98763 0.0
C363 C 0.74209 0.67849 0.9792 0.0
C364 C 0.76882 0.69483 0.9744 0.0
C365 C 0.78533 0.68472 0.97745 0.0
C366 C 0.72456 0.68921 0.97769 0.0
C367 C 0.72716 0.70696 0.0276 0.0
C368 C 0.70439 0.68079 0.93025 0.0
C369 C 0.70129 0.66279 0.87486 0.0
C370 C 0.72181 0.66843 0.83056 0.0
C371 C 0.71886 0.65125 0.77901 0.0
C372 C 0.69542 0.62843 0.77093 0.0
C373 C 0.67485 0.62278 0.81429 0.0
C374 C 0.67771 0.63989 0.86599 0.0
C375 C 0.66095 0.75153 0.98791 0.0
C376 C 0.63443 0.73366 -0.00862 0.0
C377 C 0.67885 0.74308 0.98542 0.0
C378 C 0.67057 0.71664 0.98687 0.0
C379 C 0.64412 0.69881 0.98989 0.0
C380 C 0.62623 0.70721 -0.00776 0.0
C381 C 0.6894 0.70746 0.98523 0.0
C382 C 0.68703 0.68997 0.93477 0.0
C383 C 0.70963 0.71593 0.03258 0.0
C384 C 0.71214 0.73301 0.08974 0.0
C385 C 0.6916 0.72597 0.13513 0.0
C386 C 0.69401 0.74222 0.18863 0.0
C387 C 0.71694 0.76549 0.19759 0.0
C388 C 0.73754 0.77251 0.15318 0.0
C389 C 0.73522 0.75633 0.09954 0.0
H390 H 0.71877 0.77805 0.23904 0.0
H391 H 0.69317 0.61515 0.731 0.0
H392 H 0.1209 0.73915 0.01366 0.0
H393 H 0.07449 0.71049 0.0031 0.0
H394 H 0.06412 0.77617 0.97878 0.0
H395 H 0.11084 0.80497 0.98723 0.0
H396 H 0.03063 0.74056 0.07281 0.0
H397 H 0.05808 0.74095 0.84515 0.0
H398 H 0.0844 0.73669 0.75585 0.0
H399 H 0.05604 0.65791 0.81223 0.0
H400 H 0.02984 0.66181 0.90261 0.0
H401 H 0.8982 0.66716 0.98401 0.0
H402 H 0.94434 0.69846 0.98262 0.0
H403 H 0.96121 0.63651 0.98886 0.0
H404 H 0.91525 0.60514 0.98916 0.0
H405 H 0.99136 0.67202 0.89926 0.0
H406 H 0.96634 0.67134 0.12945 0.0
H407 H 0.94061 0.6746 0.22211 0.0
H408 H 0.96488 0.75251 0.16511 0.0
H409 H 0.99049 0.74959 0.07145 0.0
C410 C 0.10888 0.74747 0.00379 0.0
C411 C 0.11958 0.77428 -0.00111 0.0
C412 C 0.08231 0.73108 -0.0014 0.0
C413 C 0.06592 0.74121 0.98925 0.0
C414 C 0.07647 0.76798 0.98559 0.0
C415 C 0.10308 0.78436 0.99028 0.0
C416 C 0.03771 0.72379 0.98507 0.0
C417 C 0.02195 0.72584 0.03421 0.0
C418 C 0.02657 0.70421 0.93571 0.0
C419 C 0.04216 0.70175 0.88106 0.0
C420 C 0.05761 0.72278 0.83887 0.0
C421 C 0.07249 0.72042 0.78799 0.0
C422 C 0.07194 0.69707 0.77847 0.0
C423 C 0.05646 0.676 0.81971 0.0
C424 C 0.04158 0.67827 0.87073 0.0
C425 C 0.91173 0.6602 0.98506 0.0
C426 C 0.90304 0.63366 0.98692 0.0
C427 C 0.93809 0.67811 0.98446 0.0
C428 C 0.95622 0.66981 0.98626 0.0
C429 C 0.94757 0.64334 0.98738 0.0
C430 C 0.92127 0.62544 0.98781 0.0
C431 C 0.98423 0.68864 0.9873 0.0
C432 C 0.99998 0.68685 0.9376 0.0
C433 C 0.9954 0.7083 0.03656 0.0
C434 C 0.98011 0.71015 0.09299 0.0
C435 C 0.96603 0.6891 0.13634 0.0
C436 C 0.95149 0.69089 0.1891 0.0
C437 C 0.95105 0.71372 0.19937 0.0
C438 C 0.9652 0.73483 0.15701 0.0
C439 C 0.97975 0.73312 0.10411 0.0
H440 H 0.93979 0.71507 0.24025 0.0
H441 H 0.08347 0.69528 0.73905 0.0
H442 H 0.31165 0.91418 0.00984 0.0
H443 H 0.32609 0.96013 0.0086 0.0
H444 H 0.24799 0.94305 0.97741 0.0
H445 H 0.23327 0.89685 0.9787 0.0
H446 H 0.28377 0.98209 0.89298 0.0
H447 H 0.2724 0.96085 0.12776 0.0
H448 H 0.27782 0.94239 0.23312 0.0
H449 H 0.35963 0.99307 0.22288 0.0
H450 H 0.35474 0.01157 0.11679 0.0
H451 H 0.30899 0.10936 0.96607 0.0
H452 H 0.29153 0.06264 0.96337 0.0
H453 H 0.36647 0.07401 0.01342 0.0
H454 H 0.38358 0.1205 0.01864 0.0
H455 H 0.33016 0.03717 0.08903 0.0
H456 H 0.34197 0.05751 0.85293 0.0
H457 H 0.33695 0.07579 0.7467 0.0
H458 H 0.2549 0.02687 0.75849 0.0
H459 H 0.25941 0.00853 0.86536 0.0
C460 C 0.2975 0.92014 0.00266 0.0
C461 C 0.27129 0.90186 -0.00542 0.0
C462 C 0.30579 0.94641 0.00217 0.0
C463 C 0.28806 0.95493 -0.00653 0.0
C464 C 0.26194 0.9368 0.9843 0.0
C465 C 0.25357 0.91046 0.9853 0.0
C466 C 0.29697 0.98283 -0.00585 0.0
C467 C 0.29356 0.99413 0.93616 0.0
C468 C 0.3102 0.9985 0.05006 0.0
C469 C 0.31321 0.98744 0.11396 0.0
C470 C 0.29157 0.96791 0.14764 0.0
C471 C 0.29454 0.95747 0.20758 0.0
C472 C 0.31906 0.96652 0.23463 0.0
C473 C 0.34065 0.98606 0.20183 0.0
C474 C 0.33779 0.99655 0.14182 0.0
C475 C 0.32169 0.10179 0.97583 0.0
C476 C 0.34776 0.11853 -0.00932 0.0
C477 C 0.31178 0.07518 0.97401 0.0
C478 C 0.3278 0.06485 0.98716 0.0
C479 C 0.35382 0.08157 0.00245 0.0
C480 C 0.3637 0.10816 0.00439 0.0
C481 C 0.31728 0.03659 0.98747 0.0
C482 C 0.32032 0.02519 0.04581 0.0
C483 C 0.30377 0.02086 0.93179 0.0
C484 C 0.30101 0.03185 0.86753 0.0
C485 C 0.32284 0.0508 0.83318 0.0
C486 C 0.32009 0.06115 0.77279 0.0
C487 C 0.29562 0.05255 0.74596 0.0
C488 C 0.27384 0.03354 0.77939 0.0
C489 C 0.27648 0.02315 0.83985 0.0
H490 H 0.29353 0.06057 0.69919 0.0
H491 H 0.32134 0.95846 0.28108 0.0
H492 H 0.26348 0.74979 -0.00329 0.0
H493 H 0.25105 0.70448 -0.00236 0.0
H494 H 0.17113 0.68336 0.01375 0.0
H495 H 0.18356 0.72897 0.01545 0.0
H496 H 0.18239 0.6538 0.09498 0.0
H497 H 0.19676 0.68068 0.86304 0.0
H498 H 0.22188 0.7093 0.76936 0.0
H499 H 0.28187 0.69134 0.80219 0.0
H500 H 0.25732 0.66297 0.89697 0.0
H501 H 0.13407 0.5228 -0.00336 0.0
H502 H 0.1438 0.56754 0.00669 0.0
H503 H 0.22473 0.59377 0.98242 0.0
H504 H 0.21489 0.54927 0.96934 0.0
H505 H 0.21111 0.62039 0.90464 0.0
H506 H 0.19844 0.59498 0.1372 0.0
H507 H 0.17513 0.56785 0.23496 0.0
H508 H 0.11344 0.58342 0.20345 0.0
H509 H 0.13623 0.61037 0.10487 0.0
C510 C 0.24327 0.73561 0.00113 0.0
C511 C 0.22452 0.74307 0.00571 0.0
C512 C 0.23617 0.70965 0.0012 0.0
C513 C 0.21013 0.69053 0.00462 0.0
C514 C 0.19134 0.69783 0.01076 0.0
C515 C 0.19847 0.7239 0.01126 0.0
C516 C 0.20266 0.66298 0.00016 0.0
C517 C 0.18831 0.64635 0.05291 0.0
C518 C 0.21088 0.65345 0.9459 0.0
C519 C 0.22527 0.66985 0.88745 0.0
C520 C 0.21535 0.68291 0.85046 0.0
C521 C 0.2295 0.6991 0.79716 0.0
C522 C 0.25349 0.70218 0.77991 0.0
C523 C 0.2633 0.68895 0.81566 0.0
C524 C 0.24927 0.6728 0.86915 0.0
C525 C 0.15392 0.53818 -0.00584 0.0
C526 C 0.17378 0.53256 0.98416 0.0
C527 C 0.15949 0.56368 0.00023 0.0
C528 C 0.18505 0.584 -0.0036 0.0
C529 C 0.2049 0.57839 0.98621 0.0
C530 C 0.19931 0.55292 0.97985 0.0
C531 C 0.19108 0.61117 -0.0001 0.0
C532 C 0.20509 0.62774 0.9467 0.0
C533 C 0.18264 0.62062 0.05388 0.0
C534 C 0.16892 0.60447 0.11323 0.0
C535 C 0.17981 0.59245 0.15078 0.0
C536 C 0.16671 0.57713 0.2064 0.0
C537 C 0.14279 0.57385 0.22529 0.0
C538 C 0.13195 0.58594 0.1887 0.0
C539 C 0.14496 0.60126 0.13298 0.0
H540 H 0.13268 0.56199 0.26838 0.0
H541 H 0.2645 0.71482 0.73888 0.0
H542 H 0.51567 0.26267 -0.00349 0.0
H543 H 0.5487 0.25055 0.0033 0.0
H544 H 0.49007 0.17076 0.02454 0.0
H545 H 0.45674 0.18292 0.02045 0.0
H546 H 0.52997 0.18301 0.10853 0.0
H547 H 0.51994 0.19421 0.87314 0.0
H548 H 0.51741 0.21735 0.77349 0.0
H549 H 0.5946 0.27867 0.80881 0.0
H550 H 0.59748 0.25604 0.90922 0.0
H551 H 0.61331 0.13363 0.02533 0.0
H552 H 0.57839 0.14362 0.03134 0.0
H553 H 0.63357 0.22429 0.00456 0.0
H554 H 0.66813 0.21416 -0.00459 0.0
H555 H 0.59415 0.20998 0.92339 0.0
H556 H 0.60428 0.19915 0.15906 0.0
H557 H 0.60682 0.17645 0.25965 0.0
H558 H 0.52978 0.11477 0.22459 0.0
H559 H 0.52691 0.13695 0.1232 0.0
C560 C 0.50971 0.24257 0.00332 0.0
C561 C 0.4835 0.22377 0.00768 0.0
C562 C 0.52866 0.23564 0.00667 0.0
C563 C 0.52185 0.2097 0.01328 0.0
C564 C 0.49575 0.19088 0.01911 0.0
C565 C 0.47672 0.19785 0.01629 0.0
C566 C 0.54207 0.20235 0.01275 0.0
C567 C 0.54379 0.18856 0.06763 0.0
C568 C 0.5604 0.21006 0.95998 0.0
C569 C 0.55885 0.22351 0.89899 0.0
C570 C 0.53633 0.21269 0.85986 0.0
C571 C 0.53484 0.22571 0.80322 0.0
C572 C 0.55581 0.24949 0.7849 0.0
C573 C 0.57837 0.26025 0.82307 0.0
C574 C 0.57995 0.24733 0.8798 0.0
C575 C 0.6179 0.15349 0.02155 0.0
C576 C 0.64349 0.17319 0.01183 0.0
C577 C 0.59803 0.15921 0.02533 0.0
C578 C 0.60341 0.18477 0.0195 0.0
C579 C 0.62899 0.20446 0.0099 0.0
C580 C 0.64881 0.19872 0.00579 0.0
C581 C 0.58232 0.1909 0.0196 0.0
C582 C 0.58034 0.20439 0.96437 0.0
C583 C 0.56382 0.18292 0.07206 0.0
C584 C 0.56548 0.1696 0.13315 0.0
C585 C 0.58796 0.18065 0.17249 0.0
C586 C 0.58944 0.16789 0.22971 0.0
C587 C 0.5685 0.14415 0.2484 0.0
C588 C 0.546 0.13315 0.21 0.0
C589 C 0.54442 0.14581 0.15269 0.0
H590 H 0.56969 0.13431 0.29272 0.0
H591 H 0.55461 0.25955 0.74108 0.0
H592 H 0.48273 0.61174 0.02022 0.0
H593 H 0.43793 0.5764 0.02463 0.0
H594 H 0.41171 0.63035 0.98693 0.0
H595 H 0.45634 0.66549 0.98192 0.0
H596 H 0.38248 0.59545 0.08272 0.0
H597 H 0.41475 0.5943 0.86082 0.0
H598 H 0.44482 0.5926 0.7787 0.0
H599 H 0.42812 0.51907 0.85665 0.0
H600 H 0.39819 0.5205 0.93992 0.0
H601 H 0.25691 0.51434 0.961 0.0
H602 H 0.30226 0.54688 0.97154 0.0
H603 H 0.32114 0.48743 0.00896 0.0
H604 H 0.27564 0.45462 -0.0015 0.0
H605 H 0.35451 0.52329 0.92046 0.0
H606 H 0.31977 0.52331 0.13781 0.0
H607 H 0.2891 0.52502 0.21779 0.0
H608 H 0.31002 0.60068 0.14739 0.0
H609 H 0.34056 0.59928 0.06624 0.0
C610 C 0.46731 0.61598 0.0137 0.0
C611 C 0.47294 0.64137 0.00221 0.0
C612 C 0.4418 0.59585 0.01601 0.0
C613 C 0.42149 0.60074 0.00577 0.0
C614 C 0.42707 0.62618 -0.00442 0.0
C615 C 0.45258 0.64629 -0.00665 0.0
C616 C 0.39446 0.57932 0.00296 0.0
C617 C 0.37631 0.57978 0.04688 0.0
C618 C 0.38654 0.55858 0.95721 0.0
C619 C 0.40446 0.55764 0.90708 0.0
C620 C 0.41765 0.57786 0.86081 0.0
C621 C 0.43464 0.57693 0.814 0.0
C622 C 0.43844 0.55577 0.81259 0.0
C623 C 0.42519 0.53547 0.85789 0.0
C624 C 0.40821 0.53632 0.90487 0.0
C625 C 0.27064 0.50813 0.97182 0.0
C626 C 0.2626 0.48188 0.97944 0.0
C627 C 0.29658 0.52678 0.9779 0.0
C628 C 0.31502 0.5196 -0.00793 0.0
C629 C 0.30719 0.49338 -0.00172 0.0
C630 C 0.28119 0.47467 -0.00778 0.0
C631 C 0.34248 0.53954 -0.0002 0.0
C632 C 0.36071 0.53882 0.95676 0.0
C633 C 0.35045 0.56006 0.04628 0.0
C634 C 0.33231 0.5611 0.09555 0.0
C635 C 0.3177 0.54025 0.13905 0.0
C636 C 0.30036 0.54117 0.18464 0.0
C637 C 0.29757 0.56292 0.18757 0.0
C638 C 0.31219 0.58384 0.14503 0.0
C639 C 0.32954 0.583 0.09928 0.0
H640 H 0.28413 0.56359 0.22288 0.0
H641 H 0.45159 0.55508 0.7763 0.0
H642 H 0.87346 0.48267 0.01591 0.0
H643 H 0.86429 0.43807 0.02556 0.0
H644 H 0.78369 0.41074 -0.00854 0.0
H645 H 0.7929 0.45516 0.98114 0.0
H646 H 0.79048 0.38384 0.09147 0.0
H647 H 0.82168 0.41114 0.86535 0.0
H648 H 0.85262 0.43934 0.77908 0.0
H649 H 0.91026 0.42448 0.85974 0.0
H650 H 0.87974 0.39645 0.94713 0.0
H651 H 0.74473 0.25593 0.9863 0.0
H652 H 0.75777 0.30147 -0.00848 0.0
H653 H 0.8363 0.32078 0.02726 0.0
H654 H 0.82337 0.27508 0.02231 0.0
H655 H 0.8331 0.35236 0.93385 0.0
H656 H 0.80056 0.32245 0.15557 0.0
H657 H 0.76907 0.29363 0.23991 0.0
H658 H 0.71358 0.31297 0.16681 0.0
H659 H 0.74463 0.34164 0.08132 0.0
C660 C 0.85379 0.46707 0.01118 0.0
C661 C 0.83382 0.47234 -0.00068 0.0
C662 C 0.84857 0.44166 0.01649 0.0
C663 C 0.82331 0.42108 0.00897 0.0
C664 C 0.80328 0.42633 -0.00192 0.0
C665 C 0.80851 0.45172 -0.00718 0.0
C666 C 0.81777 0.39405 0.01017 0.0
C667 C 0.79963 0.3769 0.05665 0.0
C668 C 0.83018 0.38515 0.96579 0.0
C669 C 0.84853 0.40194 0.91322 0.0
C670 C 0.84102 0.41406 0.86503 0.0
C671 C 0.85847 0.42998 0.81587 0.0
C672 C 0.88341 0.43376 0.81405 0.0
C673 C 0.89094 0.42157 0.86129 0.0
C674 C 0.87358 0.40566 0.91062 0.0
C675 C 0.76475 0.26979 -0.00427 0.0
C676 C 0.78297 0.26182 0.00438 0.0
C677 C 0.77217 0.29584 -0.00127 0.0
C678 C 0.79794 0.31448 0.01073 0.0
C679 C 0.8163 0.30668 0.01818 0.0
C680 C 0.80887 0.28057 0.01528 0.0
C681 C 0.80562 0.3421 0.01468 0.0
C682 C 0.82414 0.35936 0.96914 0.0
C683 C 0.79353 0.35108 0.05986 0.0
C684 C 0.77487 0.33405 0.11166 0.0
C685 C 0.78159 0.32043 0.15715 0.0
C686 C 0.76382 0.30413 0.20522 0.0
C687 C 0.73932 0.30143 0.20862 0.0
C688 C 0.73256 0.31507 0.16408 0.0
C689 C 0.75025 0.33137 0.11586 0.0
H690 H 0.72559 0.2888 0.24586 0.0
H691 H 0.89689 0.44608 0.77594 0.0
H692 H 0.33963 0.79199 0.98407 0.0
H693 H 0.37466 0.78248 -0.00876 0.0
H694 H 0.42911 0.86332 0.01761 0.0
H695 H 0.3938 0.87282 0.0113 0.0
H696 H 0.44555 0.84145 0.92464 0.0
H697 H 0.41251 0.82266 0.15011 0.0
H698 H 0.37898 0.80255 0.23777 0.0
H699 H 0.36113 0.72749 0.16912 0.0
H700 H 0.3943 0.74715 0.08034 0.0
H701 H 0.54958 0.82148 0.01338 0.0
H702 H 0.51663 0.83411 0.01623 0.0
H703 H 0.45767 0.75503 0.98549 0.0
H704 H 0.49043 0.74229 0.98183 0.0
H705 H 0.445 0.77807 0.08601 0.0
H706 H 0.47584 0.79621 0.85774 0.0
H707 H 0.50885 0.81561 0.76862 0.0
H708 H 0.53037 0.8912 0.84133 0.0
H709 H 0.49771 0.87221 0.93159 0.0
C710 C 0.35892 0.80762 -0.00646 0.0
C711 C 0.36394 0.83306 -0.0006 0.0
C712 C 0.37898 0.80221 -0.00306 0.0
C713 C 0.40446 0.82216 0.00603 0.0
C714 C 0.40957 0.84764 0.01098 0.0
C715 C 0.38947 0.85303 0.0076 0.0
C716 C 0.42575 0.81637 0.00842 0.0
C717 C 0.44568 0.82794 0.96069 0.0
C718 C 0.42559 0.79829 0.05448 0.0
C719 C 0.40576 0.78639 0.1082 0.0
C720 C 0.40131 0.80186 0.15338 0.0
C721 C 0.38239 0.79054 0.20332 0.0
C722 C 0.3679 0.76376 0.20892 0.0
C723 C 0.37235 0.74823 0.16468 0.0
C724 C 0.39123 0.75946 0.11459 0.0
C725 C 0.52964 0.80679 0.0068 0.0
C726 C 0.52266 0.78086 -0.0026 0.0
C727 C 0.51083 0.81405 0.00853 0.0
C728 C 0.48473 0.79551 0.00081 0.0
C729 C 0.4777 0.76962 -0.00817 0.0
C730 C 0.49648 0.76238 0.98979 0.0
C731 C 0.46465 0.80301 0.00199 0.0
C732 C 0.44496 0.79174 0.05035 0.0
C733 C 0.46499 0.82129 0.9564 0.0
C734 C 0.48452 0.83278 0.90188 0.0
C735 C 0.48775 0.81696 0.85507 0.0
C736 C 0.50638 0.82788 0.80429 0.0
C737 C 0.52175 0.85462 0.79942 0.0
C738 C 0.51848 0.87049 0.84523 0.0
C739 C 0.4999 0.85966 0.89619 0.0
H740 H 0.53616 0.86304 0.76007 0.0
H741 H 0.35326 0.75503 0.24761 0.0
H742 H 0.73 0.54911 0.00163 0.0
H743 H 0.68445 0.51607 0.00369 0.0
H744 H 0.70515 0.45696 0.98687 0.0
H745 H 0.7505 0.48982 0.98204 0.0
H746 H 0.66686 0.44668 0.90591 0.0
H747 H 0.68579 0.47153 0.13887 0.0
H748 H 0.7012 0.50198 0.23423 0.0
H749 H 0.64426 0.52331 0.19088 0.0
H750 H 0.62874 0.49322 0.09466 0.0
H751 H 0.54946 0.33778 -0.00851 0.0
H752 H 0.59403 0.37262 -0.00183 0.0
H753 H 0.56835 0.42813 0.00593 0.0
H754 H 0.52344 0.39298 0.00264 0.0
H755 H 0.6084 0.44139 0.09058 0.0
H756 H 0.58907 0.41561 0.85867 0.0
H757 H 0.57356 0.38461 0.7645 0.0
H758 H 0.63154 0.36467 0.80717 0.0
H759 H 0.64719 0.39532 0.90218 0.0
C760 C 0.72486 0.5291 -0.00194 0.0
C761 C 0.74395 0.52213 -0.008 0.0
C762 C 0.6988 0.5102 -0.00021 0.0
C763 C 0.69138 0.48399 -0.0036 0.0
C764 C 0.7104 0.47705 0.98976 0.0
C765 C 0.73638 0.49589 0.98746 0.0
C766 C 0.66382 0.46368 -0.00126 0.0
C767 C 0.65419 0.44537 0.94676 0.0
C768 C 0.64707 0.46232 0.0511 0.0
C769 C 0.65628 0.48031 0.10916 0.0
C770 C 0.67668 0.48285 0.14938 0.0
C771 C 0.68542 0.50003 0.20363 0.0
C772 C 0.67376 0.51463 0.21849 0.0
C773 C 0.6533 0.51202 0.17925 0.0
C774 C 0.64451 0.49489 0.12488 0.0
C775 C 0.55322 0.35728 -0.00284 0.0
C776 C 0.53295 0.36264 -0.00171 0.0
C777 C 0.57875 0.37725 -0.0003 0.0
C778 C 0.58453 0.403 0.00175 0.0
C779 C 0.56432 0.40841 0.00441 0.0
C780 C 0.53875 0.38839 0.0023 0.0
C781 C 0.61164 0.42425 -0.00172 0.0
C782 C 0.62112 0.44277 0.04978 0.0
C783 C 0.62832 0.42579 0.94557 0.0
C784 C 0.61916 0.40761 0.88786 0.0
C785 C 0.59841 0.40451 0.8482 0.0
C786 C 0.58961 0.38701 0.79465 0.0
C787 C 0.60152 0.37264 0.77995 0.0
C788 C 0.62232 0.3758 0.81864 0.0
C789 C 0.63119 0.39325 0.87229 0.0
H790 H 0.59466 0.35909 0.7385 0.0
H791 H 0.68055 0.52791 0.26051 0.0
H792 H 0.19845 0.39916 0.74741 0.0
H793 H 0.19835 0.39944 0.62412 0.0
H794 H 0.17233 0.45472 0.626 0.0
H795 H 0.17222 0.45449 0.74909 0.0
H796 H 0.14461 0.41461 0.53921 0.0
H797 H 0.23355 0.47403 0.58883 0.0
H798 H 0.27564 0.48801 0.64177 0.0
H799 H 0.28082 0.42758 0.53964 0.0
H800 H 0.23856 0.41299 0.48681 0.0
H801 H 0.16784 0.45263 0.19507 0.0
H802 H 0.16831 0.45231 0.31837 0.0
H803 H 0.19504 0.3976 0.31483 0.0
H804 H 0.19467 0.39778 0.19177 0.0
H805 H 0.22251 0.43721 0.40244 0.0
H806 H 0.13435 0.37698 0.35488 0.0
H807 H 0.09144 0.36072 0.30463 0.0
H808 H 0.08428 0.42061 0.4034 0.0
H809 H 0.12731 0.43739 0.45379 0.0
C810 C 0.19275 0.41142 0.72159 0.0
C811 C 0.18533 0.4268 0.75796 0.0
C812 C 0.1928 0.41162 0.65121 0.0
C813 C 0.18549 0.42723 0.61614 0.0
C814 C 0.17804 0.44256 0.65227 0.0
C815 C 0.17807 0.44244 0.72256 0.0
C816 C 0.18511 0.42724 0.54167 0.0
C817 C 0.16171 0.41992 0.50922 0.0
C818 C 0.2073 0.43345 0.50288 0.0
C819 C 0.23277 0.44226 0.53439 0.0
C820 C 0.24356 0.46358 0.57809 0.0
C821 C 0.26747 0.47165 0.608 0.0
C822 C 0.28086 0.45865 0.59422 0.0
C823 C 0.27041 0.43761 0.55035 0.0
C824 C 0.24649 0.42945 0.52036 0.0
C825 C 0.17374 0.44047 0.22053 0.0
C826 C 0.18116 0.42518 0.18371 0.0
C827 C 0.17393 0.44026 0.29091 0.0
C828 C 0.18157 0.42481 0.32552 0.0
C829 C 0.1891 0.40965 0.28893 0.0
C830 C 0.18878 0.40972 0.21865 0.0
C831 C 0.18202 0.4247 0.39998 0.0
C832 C 0.20543 0.43197 0.43243 0.0
C833 C 0.15981 0.41828 0.43881 0.0
C834 C 0.13416 0.4086 0.40753 0.0
C835 C 0.12375 0.38686 0.36528 0.0
C836 C 0.09938 0.37751 0.33691 0.0
C837 C 0.08517 0.38966 0.35067 0.0
C838 C 0.09533 0.41123 0.39273 0.0
C839 C 0.1197 0.42066 0.42128 0.0
H840 H 0.06623 0.38228 0.32908 0.0
H841 H 0.29937 0.46492 0.61742 0.0
H842 H 0.80027 0.19302 0.77732 0.0
H843 H 0.79993 0.19307 0.65411 0.0
H844 H 0.72029 0.17367 0.6562 0.0
H845 H 0.72031 0.17323 0.77925 0.0
H846 H 0.72871 0.14459 0.56699 0.0
H847 H 0.76715 0.23435 0.62194 0.0
H848 H 0.7983 0.27495 0.67722 0.0
H849 H 0.86057 0.27331 0.57441 0.0
H850 H 0.8298 0.23248 0.51921 0.0
H851 H 0.7187 0.17244 0.22459 0.0
H852 H 0.71932 0.17289 0.34781 0.0
H853 H 0.79866 0.19134 0.3451 0.0
H854 H 0.79833 0.19115 0.22203 0.0
H855 H 0.79052 0.22099 0.43451 0.0
H856 H 0.75221 0.13125 0.38 0.0
H857 H 0.72115 0.09058 0.32481 0.0
H858 H 0.65873 0.09217 0.42697 0.0
H859 H 0.68941 0.13308 0.48206 0.0
C860 C 0.78268 0.18877 0.75157 0.0
C861 C 0.76032 0.18315 0.78799 0.0
C862 C 0.78256 0.18891 0.68122 0.0
C863 C 0.76015 0.18361 0.6462 0.0
C864 C 0.73777 0.17782 0.68239 0.0
C865 C 0.73786 0.17766 0.75267 0.0
C866 C 0.75991 0.18382 0.57172 0.0
C867 C 0.74198 0.1614 0.53798 0.0
C868 C 0.77765 0.20558 0.53411 0.0
C869 C 0.79618 0.23021 0.56696 0.0
C870 C 0.7875 0.24253 0.61152 0.0
C871 C 0.80508 0.26561 0.64277 0.0
C872 C 0.8314 0.27667 0.62948 0.0
C873 C 0.84018 0.26471 0.58474 0.0
C874 C 0.82268 0.2416 0.55341 0.0
C875 C 0.73627 0.17655 0.2502 0.0
C876 C 0.75843 0.18165 0.2136 0.0
C877 C 0.73656 0.17675 0.32055 0.0
C878 C 0.75897 0.18192 0.35538 0.0
C879 C 0.78119 0.18729 0.31903 0.0
C880 C 0.78092 0.18708 0.24875 0.0
C881 C 0.75928 0.18178 0.42985 0.0
C882 C 0.77723 0.20419 0.46356 0.0
C883 C 0.74157 0.16002 0.46746 0.0
C884 C 0.72309 0.13536 0.43462 0.0
C885 C 0.73184 0.12304 0.39027 0.0
C886 C 0.71431 0.09993 0.35909 0.0
C887 C 0.68797 0.08884 0.37224 0.0
C888 C 0.67913 0.10081 0.41676 0.0
C889 C 0.69658 0.12395 0.44802 0.0
H890 H 0.67443 0.07094 0.34805 0.0
H891 H 0.84499 0.29454 0.65372 0.0
H892 H 0.60662 0.79999 0.77185 0.0
H893 H 0.60607 0.79974 0.64858 0.0
H894 H 0.55209 0.71808 0.64974 0.0
H895 H 0.55262 0.71807 0.77283 0.0
H896 H 0.59156 0.73146 0.55952 0.0
H897 H 0.53121 0.7589 0.61851 0.0
H898 H 0.51698 0.78609 0.67628 0.0
H899 H 0.57547 0.85281 0.57324 0.0
H900 H 0.59031 0.82607 0.51558 0.0
H901 H 0.55082 0.71636 0.21905 0.0
H902 H 0.55109 0.71726 0.34235 0.0
H903 H 0.60556 0.79878 0.33892 0.0
H904 H 0.60543 0.79813 0.21582 0.0
H905 H 0.56606 0.78588 0.43017 0.0
H906 H 0.62681 0.75921 0.37234 0.0
H907 H 0.64193 0.73266 0.3151 0.0
H908 H 0.58364 0.66527 0.41635 0.0
H909 H 0.56792 0.69138 0.47348 0.0
C910 C 0.59466 0.78197 0.74587 0.0
C911 C 0.57963 0.75905 0.78203 0.0
C912 C 0.59429 0.78189 0.67552 0.0
C913 C 0.57888 0.75892 0.64027 0.0
C914 C 0.56409 0.73599 0.67616 0.0
C915 C 0.56436 0.73606 0.74645 0.0
C916 C 0.57823 0.75875 0.56583 0.0
C917 C 0.58566 0.74308 0.53119 0.0
C918 C 0.57111 0.77442 0.52917 0.0
C919 C 0.56204 0.79051 0.56322 0.0
C920 C 0.54117 0.7794 0.60855 0.0
C921 C 0.53297 0.79473 0.64123 0.0
C922 C 0.54536 0.82118 0.62859 0.0
C923 C 0.56592 0.83233 0.58306 0.0
C924 C 0.57422 0.81709 0.55032 0.0
C925 C 0.56285 0.73448 0.24452 0.0
C926 C 0.57821 0.75714 0.20773 0.0
C927 C 0.56301 0.73495 0.31488 0.0
C928 C 0.57849 0.75806 0.34951 0.0
C929 C 0.5935 0.78077 0.31298 0.0
C930 C 0.59347 0.78031 0.24269 0.0
C931 C 0.57927 0.7585 0.42394 0.0
C932 C 0.57192 0.77423 0.45854 0.0
C933 C 0.58654 0.74296 0.46063 0.0
C934 C 0.59602 0.72721 0.42665 0.0
C935 C 0.61708 0.73869 0.38197 0.0
C936 C 0.62578 0.72373 0.34962 0.0
C937 C 0.61371 0.69728 0.36193 0.0
C938 C 0.59295 0.68575 0.40678 0.0
C939 C 0.58415 0.70063 0.4392 0.0
H940 H 0.62048 0.68573 0.33684 0.0
H941 H 0.539 0.83302 0.65394 0.0
H942 H 0.81169 0.60829 0.76667 0.0
H943 H 0.81178 0.60806 0.64342 0.0
H944 H 0.83376 0.54969 0.64384 0.0
H945 H 0.83402 0.54997 0.7669 0.0
H946 H 0.86208 0.58806 0.55463 0.0
H947 H 0.77259 0.53369 0.6112 0.0
H948 H 0.73167 0.52288 0.66746 0.0
H949 H 0.73061 0.58539 0.5653 0.0
H950 H 0.77172 0.59679 0.50911 0.0
H951 H 0.8348 0.54869 0.21297 0.0
H952 H 0.83455 0.54923 0.33625 0.0
H953 H 0.81269 0.60768 0.33365 0.0
H954 H 0.81271 0.60718 0.21063 0.0
H955 H 0.78435 0.56966 0.42383 0.0
H956 H 0.87329 0.62432 0.36751 0.0
H957 H 0.9144 0.63596 0.3112 0.0
H958 H 0.91686 0.57409 0.41284 0.0
H959 H 0.87553 0.56184 0.46906 0.0
C960 C 0.81655 0.59541 0.74054 0.0
C961 C 0.82281 0.57911 0.7765 0.0
C962 C 0.8165 0.59524 0.67018 0.0
C963 C 0.82256 0.5787 0.63469 0.0
C964 C 0.82902 0.56259 0.67041 0.0
C965 C 0.82907 0.56272 0.7407 0.0
C966 C 0.82231 0.57824 0.5602 0.0
C967 C 0.845 0.5837 0.52598 0.0
C968 C 0.80018 0.57319 0.52307 0.0
C969 C 0.77536 0.56625 0.55646 0.0
C970 C 0.76373 0.54525 0.60112 0.0
C971 C 0.74049 0.539 0.63293 0.0
C972 C 0.72858 0.55348 0.6201 0.0
C973 C 0.73987 0.57421 0.57526 0.0
C974 C 0.76313 0.58056 0.54337 0.0
C975 C 0.82997 0.56168 0.23863 0.0
C976 C 0.82388 0.57797 0.20209 0.0
C977 C 0.82989 0.562 0.30899 0.0
C978 C 0.82381 0.57866 0.34386 0.0
C979 C 0.81743 0.5947 0.30756 0.0
C980 C 0.81755 0.59444 0.23729 0.0
C981 C 0.82408 0.57937 0.41831 0.0
C982 C 0.80142 0.57399 0.45251 0.0
C983 C 0.84626 0.58461 0.45542 0.0
C984 C 0.87118 0.592 0.42197 0.0
C985 C 0.88249 0.61306 0.37743 0.0
C986 C 0.90585 0.6198 0.3456 0.0
C987 C 0.9182 0.60573 0.35829 0.0
C988 C 0.90725 0.58494 0.40299 0.0
C989 C 0.88386 0.57811 0.43489 0.0
H990 H 0.93629 0.61098 0.3336 0.0
H991 H 0.71059 0.54861 0.64479 0.0
H992 H 0.21318 0.82339 0.22233 0.0
H993 H 0.21277 0.82286 0.34537 0.0
H994 H 0.28591 0.82541 0.34615 0.0
H995 H 0.28654 0.82597 0.22264 0.0
H996 H 0.24928 0.78801 0.43215 0.0
H997 H 0.28483 0.87782 0.38474 0.0
H998 H 0.28644 0.91555 0.33077 0.0
H999 H 0.21496 0.8977 0.42569 0.0
H1000 H 0.21268 0.85954 0.4794 0.0
H1001 H 0.28079 0.82029 0.77705 0.0
H1002 H 0.28056 0.81979 0.65394 0.0
H1003 H 0.2078 0.81804 0.65405 0.0
H1004 H 0.20775 0.81837 0.77752 0.0
H1005 H 0.24397 0.85489 0.56744 0.0
H1006 H 0.20792 0.76538 0.61439 0.0
H1007 H 0.20439 0.72608 0.66393 0.0
H1008 H 0.27539 0.74247 0.56873 0.0
H1009 H 0.27955 0.78211 0.51932 0.0
C1010 C 0.22924 0.82391 0.24858 0.0
C1011 C 0.24993 0.82476 0.2128 0.0
C1012 C 0.22899 0.8237 0.31887 0.0
C1013 C 0.24938 0.82426 0.35466 0.0
C1014 C 0.27002 0.825 0.31924 0.0
C1015 C 0.2704 0.82543 0.24881 0.0
C1016 C 0.24885 0.82367 0.42914 0.0
C1017 C 0.24855 0.80283 0.46192 0.0
C1018 C 0.24709 0.84264 0.46747 0.0
C1019 C 0.24846 0.86566 0.43558 0.0
C1020 C 0.26933 0.8818 0.39366 0.0
C1021 C 0.27039 0.9033 0.36318 0.0
C1022 C 0.2508 0.90901 0.37466 0.0
C1023 C 0.23012 0.89324 0.41677 0.0
C1024 C 0.22894 0.87168 0.44729 0.0
C1025 C 0.26468 0.81971 0.75096 0.0
C1026 C 0.24431 0.81943 0.78697 0.0
C1027 C 0.26454 0.81931 0.68065 0.0
C1028 C 0.24411 0.81875 0.64508 0.0
C1029 C 0.22373 0.81846 0.68075 0.0
C1030 C 0.22371 0.81859 0.75118 0.0
C1031 C 0.2445 0.81926 0.57057 0.0
C1032 C 0.24476 0.84009 0.53776 0.0
C1033 C 0.24614 0.80023 0.53221 0.0
C1034 C 0.24417 0.77687 0.56368 0.0
C1035 C 0.22296 0.76081 0.60472 0.0
C1036 C 0.2208 0.73842 0.6326 0.0
C1037 C 0.23965 0.7318 0.61946 0.0
C1038 C 0.2608 0.74764 0.57882 0.0
C1039 C 0.26306 0.77006 0.55085 0.0
H1040 H 0.23779 0.7143 0.64041 0.0
H1041 H 0.25166 0.92568 0.35105 0.0
H1042 H 0.45941 0.28337 0.7702 0.0
H1043 H 0.4593 0.28369 0.64723 0.0
H1044 H 0.39975 0.20379 0.64568 0.0
H1045 H 0.39985 0.20317 0.76909 0.0
H1046 H 0.43733 0.21486 0.54948 0.0
H1047 H 0.38427 0.24881 0.62466 0.0
H1048 H 0.37458 0.27768 0.69103 0.0
H1049 H 0.43477 0.34326 0.58831 0.0
H1050 H 0.44537 0.3148 0.52261 0.0
H1051 H 0.39518 0.20869 0.2144 0.0
H1052 H 0.39617 0.20805 0.3373 0.0
H1053 H 0.45554 0.28802 0.33877 0.0
H1054 H 0.45463 0.28894 0.21546 0.0
H1055 H 0.41815 0.27687 0.43497 0.0
H1056 H 0.4717 0.2432 0.36119 0.0
H1057 H 0.48212 0.21452 0.2961 0.0
H1058 H 0.42098 0.14864 0.39557 0.0
H1059 H 0.40992 0.17692 0.46055 0.0
C1060 C 0.44637 0.26579 0.74383 0.0
C1061 C 0.42945 0.24329 0.77943 0.0
C1062 C 0.44632 0.26604 0.67354 0.0
C1063 C 0.42927 0.24387 0.6375 0.0
C1064 C 0.41299 0.22112 0.67269 0.0
C1065 C 0.41301 0.22084 0.74314 0.0
C1066 C 0.42782 0.24476 0.56318 0.0
C1067 C 0.43281 0.22817 0.52439 0.0
C1068 C 0.42244 0.26254 0.53066 0.0
C1069 C 0.41579 0.27967 0.56915 0.0
C1070 C 0.39559 0.2694 0.61655 0.0
C1071 C 0.38991 0.28569 0.65404 0.0
C1072 C 0.40402 0.31229 0.64388 0.0
C1073 C 0.42386 0.32265 0.59616 0.0
C1074 C 0.42974 0.30645 0.55883 0.0
C1075 C 0.40837 0.22622 0.24075 0.0
C1076 C 0.42493 0.24885 0.20513 0.0
C1077 C 0.40896 0.22577 0.31099 0.0
C1078 C 0.42616 0.24789 0.34696 0.0
C1079 C 0.44218 0.27073 0.3118 0.0
C1080 C 0.44166 0.2712 0.24141 0.0
C1081 C 0.42769 0.24699 0.42125 0.0
C1082 C 0.42268 0.26357 0.46004 0.0
C1083 C 0.43306 0.22922 0.45376 0.0
C1084 C 0.43983 0.21217 0.41527 0.0
C1085 C 0.46035 0.22259 0.36882 0.0
C1086 C 0.46639 0.2064 0.332 0.0
C1087 C 0.45218 0.17977 0.34157 0.0
C1088 C 0.43194 0.16928 0.38815 0.0
C1089 C 0.42579 0.18537 0.42503 0.0
H1090 H 0.45688 0.16728 0.31301 0.0
H1091 H 0.39958 0.32487 0.67295 0.0
loop_
_geom_bond_atom_site_label_1
_geom_bond_atom_site_label_2
_geom_bond_distance
_geom_bond_site_symmetry_2
_ccdc_geom_bond_type
Zn0 O1 2.055 . S
Zn0 O8 2.046 . S
Zn0 N16 2.036 1_554 S
Zn0 O28 2.053 1_554 S
Zn0 O30 2.066 . S
O1 Zn0 2.055 . S
O1 C4 1.259 . S
C2 O30 1.256 . S
C2 O31 1.244 . S
Zn3 O5 2.046 . S
Zn3 O7 2.055 . S
Zn3 N9 2.036 . S
Zn3 O27 2.066 1_554 S
Zn3 O31 2.053 . S
C4 O1 1.259 . S
C4 O5 1.254 . S
O5 Zn3 2.046 . S
O5 C4 1.254 . S
C6 O27 1.256 . S
C6 O28 1.244 . S
O7 Zn3 2.055 . S
O7 C29 1.259 . S
O8 Zn0 2.046 . S
O8 C29 1.255 . S
N9 Zn3 2.036 . S
N9 C10 1.298 1_554 S
N9 N12 1.398 . S
C10 N9 1.298 1_556 S
C10 N13 1.367 . S
C10 C23 1.481 . S
C11 N12 1.299 . S
C11 N13 1.379 1_554 S
N12 N9 1.398 . S
N12 C11 1.299 . S
N13 C10 1.367 . S
N13 C11 1.379 1_556 S
C14 N16 1.298 1_554 S
C14 N18 1.367 1_554 S
C14 C22 1.481 . S
C15 N17 1.299 . S
C15 N18 1.379 . S
N16 Zn0 2.036 1_556 S
N16 C14 1.298 1_556 S
N16 N17 1.398 . S
N17 C15 1.299 . S
N17 N16 1.398 . S
N18 C14 1.367 1_556 S
N18 C15 1.379 . S
H19 C22 0.980 . S
H20 C22 0.981 . S
H21 C22 0.981 . S
C22 C14 1.481 . S
C22 H19 0.980 . S
C22 H20 0.981 . S
C22 H21 0.981 . S
C23 C10 1.481 . S
C23 H24 0.980 . S
C23 H25 0.981 . S
C23 H26 0.981 . S
H24 C23 0.980 . S
H25 C23 0.981 . S
H26 C23 0.981 . S
O27 Zn3 2.066 1_556 S
O27 C6 1.256 . S
O28 Zn0 2.053 1_556 S
O28 C6 1.244 . S
C29 O7 1.259 . S
C29 O8 1.255 . S
O30 Zn0 2.066 . S
O30 C2 1.256 . S
O31 C2 1.244 . S
O31 Zn3 2.053 . S
Zn32 O33 2.055 . S
Zn32 O40 2.046 . S
Zn32 N48 2.036 1_554 S
Zn32 O60 2.053 1_554 S
Zn32 O62 2.066 . S
O33 Zn32 2.055 . S
O33 C36 1.259 . S
C34 O62 1.256 . S
C34 O63 1.244 . S
Zn35 O37 2.046 . S
Zn35 O39 2.055 . S
Zn35 N41 2.036 . S
Zn35 O59 2.066 1_554 S
Zn35 O63 2.053 . S
C36 O33 1.259 . S
C36 O37 1.254 . S
O37 Zn35 2.046 . S
O37 C36 1.254 . S
C38 O59 1.256 . S
C38 O60 1.244 . S
O39 Zn35 2.055 . S
O39 C61 1.259 . S
O40 Zn32 2.046 . S
O40 C61 1.255 . S
N41 Zn35 2.036 . S
N41 C42 1.298 1_554 S
N41 N44 1.398 . S
C42 N41 1.298 1_556 S
C42 N45 1.367 . S
C42 C55 1.481 . S
C43 N44 1.299 . S
C43 N45 1.379 1_554 S
N44 N41 1.398 . S
N44 C43 1.299 . S
N45 C42 1.367 . S
N45 C43 1.379 1_556 S
C46 N48 1.298 1_554 S
C46 N50 1.367 1_554 S
C46 C54 1.481 . S
C47 N49 1.299 . S
C47 N50 1.379 . S
N48 Zn32 2.036 1_556 S
N48 C46 1.298 1_556 S
N48 N49 1.398 . S
N49 C47 1.299 . S
N49 N48 1.398 . S
N50 C46 1.367 1_556 S
N50 C47 1.379 . S
H51 C54 0.980 . S
H52 C54 0.981 . S
H53 C54 0.981 . S
C54 C46 1.481 . S
C54 H51 0.980 . S
C54 H52 0.981 . S
C54 H53 0.981 . S
C55 C42 1.481 . S
C55 H56 0.980 . S
C55 H57 0.981 . S
C55 H58 0.981 . S
H56 C55 0.980 . S
H57 C55 0.981 . S
H58 C55 0.981 . S
O59 Zn35 2.066 1_556 S
O59 C38 1.256 . S
O60 Zn32 2.053 1_556 S
O60 C38 1.244 . S
C61 O39 1.259 . S
C61 O40 1.255 . S
O62 Zn32 2.066 . S
O62 C34 1.256 . S
O63 C34 1.244 . S
O63 Zn35 2.053 . S
Zn64 O65 2.055 . S
Zn64 O72 2.046 . S
Zn64 N80 2.036 1_554 S
Zn64 O92 2.053 1_554 S
Zn64 O94 2.066 . S
O65 Zn64 2.055 . S
O65 C68 1.259 . S
C66 O94 1.256 . S
C66 O95 1.244 . S
Zn67 O69 2.046 . S
Zn67 O71 2.055 . S
Zn67 N73 2.036 . S
Zn67 O91 2.066 1_554 S
Zn67 O95 2.053 . S
C68 O65 1.259 . S
C68 O69 1.254 . S
O69 Zn67 2.046 . S
O69 C68 1.254 . S
C70 O91 1.256 . S
C70 O92 1.244 . S
O71 Zn67 2.055 . S
O71 C93 1.259 . S
O72 Zn64 2.046 . S
O72 C93 1.255 . S
N73 Zn67 2.036 . S
N73 C74 1.298 1_554 S
N73 N76 1.398 . S
C74 N73 1.298 1_556 S
C74 N77 1.367 . S
C74 C87 1.481 . S
C75 N76 1.299 . S
C75 N77 1.379 1_554 S
N76 N73 1.398 . S
N76 C75 1.299 . S
N77 C74 1.367 . S
N77 C75 1.379 1_556 S
C78 N80 1.298 1_554 S
C78 N82 1.367 1_554 S
C78 C86 1.481 . S
C79 N81 1.299 . S
C79 N82 1.379 . S
N80 Zn64 2.036 1_556 S
N80 C78 1.298 1_556 S
N80 N81 1.398 . S
N81 C79 1.299 . S
N81 N80 1.398 . S
N82 C78 1.367 1_556 S
N82 C79 1.379 . S
H83 C86 0.980 . S
H84 C86 0.981 . S
H85 C86 0.981 . S
C86 C78 1.481 . S
C86 H83 0.980 . S
C86 H84 0.981 . S
C86 H85 0.981 . S
C87 C74 1.481 . S
C87 H88 0.980 . S
C87 H89 0.981 . S
C87 H90 0.981 . S
H88 C87 0.980 . S
H89 C87 0.981 . S
H90 C87 0.981 . S
O91 Zn67 2.066 1_556 S
O91 C70 1.256 . S
O92 Zn64 2.053 1_556 S
O92 C70 1.244 . S
C93 O71 1.259 . S
C93 O72 1.255 . S
O94 Zn64 2.066 . S
O94 C66 1.256 . S
O95 C66 1.244 . S
O95 Zn67 2.053 . S
Zn96 O97 2.055 . S
Zn96 O104 2.046 . S
Zn96 N112 2.036 1_554 S
Zn96 O124 2.053 1_554 S
Zn96 O126 2.066 . S
O97 Zn96 2.055 . S
O97 C100 1.259 . S
C98 O126 1.256 . S
C98 O127 1.244 . S
Zn99 O101 2.046 . S
Zn99 O103 2.055 . S
Zn99 N105 2.036 . S
Zn99 O123 2.066 1_554 S
Zn99 O127 2.053 . S
C100 O97 1.259 . S
C100 O101 1.254 . S
O101 Zn99 2.046 . S
O101 C100 1.254 . S
C102 O123 1.256 . S
C102 O124 1.244 . S
O103 Zn99 2.055 . S
O103 C125 1.259 . S
O104 Zn96 2.046 . S
O104 C125 1.255 . S
N105 Zn99 2.036 . S
N105 C106 1.298 1_554 S
N105 N108 1.398 . S
C106 N105 1.298 1_556 S
C106 N109 1.367 . S
C106 C119 1.481 . S
C107 N108 1.299 . S
C107 N109 1.379 1_554 S
N108 N105 1.398 . S
N108 C107 1.299 . S
N109 C106 1.367 . S
N109 C107 1.379 1_556 S
C110 N112 1.298 1_554 S
C110 N114 1.367 1_554 S
C110 C118 1.481 . S
C111 N113 1.299 . S
C111 N114 1.379 . S
N112 Zn96 2.036 1_556 S
N112 C110 1.298 1_556 S
N112 N113 1.398 . S
N113 C111 1.299 . S
N113 N112 1.398 . S
N114 C110 1.367 1_556 S
N114 C111 1.379 . S
H115 C118 0.980 . S
H116 C118 0.981 . S
H117 C118 0.981 . S
C118 C110 1.481 . S
C118 H115 0.980 . S
C118 H116 0.981 . S
C118 H117 0.981 . S
C119 C106 1.481 . S
C119 H120 0.980 . S
C119 H121 0.981 . S
C119 H122 0.981 . S
H120 C119 0.980 . S
H121 C119 0.981 . S
H122 C119 0.981 . S
O123 Zn99 2.066 1_556 S
O123 C102 1.256 . S
O124 Zn96 2.053 1_556 S
O124 C102 1.244 . S
C125 O103 1.259 . S
C125 O104 1.255 . S
O126 Zn96 2.066 . S
O126 C98 1.256 . S
O127 C98 1.244 . S
O127 Zn99 2.053 . S
Zn128 O129 2.055 . S
Zn128 O136 2.046 . S
Zn128 N144 2.036 1_554 S
Zn128 O156 2.053 1_554 S
Zn128 O158 2.066 . S
O129 Zn128 2.055 . S
O129 C132 1.259 . S
C130 O158 1.256 . S
C130 O159 1.244 . S
Zn131 O133 2.046 . S
Zn131 O135 2.055 . S
Zn131 N137 2.036 . S
Zn131 O155 2.066 1_554 S
Zn131 O159 2.053 . S
C132 O129 1.259 . S
C132 O133 1.254 . S
O133 Zn131 2.046 . S
O133 C132 1.254 . S
C134 O155 1.256 . S
C134 O156 1.244 . S
O135 Zn131 2.055 . S
O135 C157 1.259 . S
O136 Zn128 2.046 . S
O136 C157 1.255 . S
N137 Zn131 2.036 . S
N137 C138 1.298 1_554 S
N137 N140 1.398 . S
C138 N137 1.298 1_556 S
C138 N141 1.367 . S
C138 C151 1.481 . S
C139 N140 1.299 . S
C139 N141 1.379 1_554 S
N140 N137 1.398 . S
N140 C139 1.299 . S
N141 C138 1.367 . S
N141 C139 1.379 1_556 S
C142 N144 1.298 1_554 S
C142 N146 1.367 1_554 S
C142 C150 1.481 . S
C143 N145 1.299 . S
C143 N146 1.379 . S
N144 Zn128 2.036 1_556 S
N144 C142 1.298 1_556 S
N144 N145 1.398 . S
N145 C143 1.299 . S
N145 N144 1.398 . S
N146 C142 1.367 1_556 S
N146 C143 1.379 . S
H147 C150 0.980 . S
H148 C150 0.981 . S
H149 C150 0.981 . S
C150 C142 1.481 . S
C150 H147 0.980 . S
C150 H148 0.981 . S
C150 H149 0.981 . S
C151 C138 1.481 . S
C151 H152 0.980 . S
C151 H153 0.981 . S
C151 H154 0.981 . S
H152 C151 0.980 . S
H153 C151 0.981 . S
H154 C151 0.981 . S
O155 Zn131 2.066 1_556 S
O155 C134 1.256 . S
O156 Zn128 2.053 1_556 S
O156 C134 1.244 . S
C157 O135 1.259 . S
C157 O136 1.255 . S
O158 Zn128 2.066 . S
O158 C130 1.256 . S
O159 C130 1.244 . S
O159 Zn131 2.053 . S
Zn160 O161 2.055 . S
Zn160 O168 2.046 . S
Zn160 N176 2.036 1_554 S
Zn160 O188 2.053 1_554 S
Zn160 O190 2.066 . S
O161 Zn160 2.055 . S
O161 C164 1.259 . S
C162 O190 1.256 . S
C162 O191 1.244 . S
Zn163 O165 2.046 . S
Zn163 O167 2.055 . S
Zn163 N169 2.036 . S
Zn163 O187 2.066 1_554 S
Zn163 O191 2.053 . S
C164 O161 1.259 . S
C164 O165 1.254 . S
O165 Zn163 2.046 . S
O165 C164 1.254 . S
C166 O187 1.256 . S
C166 O188 1.244 . S
O167 Zn163 2.055 . S
O167 C189 1.259 . S
O168 Zn160 2.046 . S
O168 C189 1.255 . S
N169 Zn163 2.036 . S
N169 C170 1.298 1_554 S
N169 N172 1.398 . S
C170 N169 1.298 1_556 S
C170 N173 1.367 . S
C170 C183 1.481 . S
C171 N172 1.299 . S
C171 N173 1.379 1_554 S
N172 N169 1.398 . S
N172 C171 1.299 . S
N173 C170 1.367 . S
N173 C171 1.379 1_556 S
C174 N176 1.298 1_554 S
C174 N178 1.367 1_554 S
C174 C182 1.481 . S
C175 N177 1.299 . S
C175 N178 1.379 . S
N176 Zn160 2.036 1_556 S
N176 C174 1.298 1_556 S
N176 N177 1.398 . S
N177 C175 1.299 . S
N177 N176 1.398 . S
N178 C174 1.367 1_556 S
N178 C175 1.379 . S
H179 C182 0.980 . S
H180 C182 0.981 . S
H181 C182 0.981 . S
C182 C174 1.481 . S
C182 H179 0.980 . S
C182 H180 0.981 . S
C182 H181 0.981 . S
C183 C170 1.481 . S
C183 H184 0.980 . S
C183 H185 0.981 . S
C183 H186 0.981 . S
H184 C183 0.980 . S
H185 C183 0.981 . S
H186 C183 0.981 . S
O187 Zn163 2.066 1_556 S
O187 C166 1.256 . S
O188 Zn160 2.053 1_556 S
O188 C166 1.244 . S
C189 O167 1.259 . S
C189 O168 1.255 . S
O190 Zn160 2.066 . S
O190 C162 1.256 . S
O191 C162 1.244 . S
O191 Zn163 2.053 . S
H192 C210 0.951 . S
H193 C212 0.951 . S
H194 C214 0.950 . S
H195 C215 0.950 . S
H196 C217 0.950 . S
H197 C220 0.950 . S
H198 C221 0.950 . S
H199 C223 0.950 . S
H200 C224 0.950 . S
H201 C225 0.951 . S
H202 C227 0.951 . S
H203 C229 0.950 . S
H204 C230 0.950 . S
H205 C232 0.947 1_554 S
H206 C235 0.950 1_554 S
H207 C236 0.950 1_554 S
H208 C238 0.950 . S
H209 C239 0.950 . S
C210 H192 0.951 . S
C210 C211 1.366 1_554 S
C210 C212 1.388 . S
C211 C210 1.366 1_556 S
C211 C215 1.385 . S
C212 H193 0.951 . S
C212 C210 1.388 . S
C212 C213 1.366 1_554 S
C213 C212 1.366 1_556 S
C213 C214 1.414 . S
C213 C216 1.499 . S
C214 H194 0.950 . S
C214 C213 1.414 . S
C214 C215 1.374 . S
C215 H195 0.950 . S
C215 C211 1.385 . S
C215 C214 1.374 . S
C216 C213 1.499 . S
C216 C217 1.373 . S
C216 C218 1.389 . S
C217 H196 0.950 . S
C217 C216 1.373 . S
C217 C233 1.377 . S
C218 C216 1.389 . S
C218 C219 1.524 1_556 S
C218 C232 1.377 . S
C219 C218 1.524 1_554 S
C219 C220 1.397 1_554 S
C219 C224 1.363 . S
C220 H197 0.950 . S
C220 C219 1.397 1_556 S
C220 C221 1.334 . S
C221 H198 0.950 . S
C221 C220 1.334 . S
C221 C222 1.287 1_556 S
C222 C221 1.287 1_554 S
C222 C223 1.524 . S
C222 H241 0.913 . S
C223 H199 0.950 . S
C223 C222 1.524 . S
C223 C224 1.415 . S
C224 H200 0.950 . S
C224 C219 1.363 . S
C224 C223 1.415 . S
C225 H201 0.951 . S
C225 C226 1.366 . S
C225 C227 1.388 . S
C226 C225 1.366 . S
C226 C230 1.385 1_556 S
C227 H202 0.951 . S
C227 C225 1.388 . S
C227 C228 1.366 . S
C228 C227 1.366 . S
C228 C229 1.414 1_556 S
C228 C231 1.499 . S
C229 H203 0.950 . S
C229 C228 1.414 1_554 S
C229 C230 1.374 . S
C230 H204 0.950 . S
C230 C226 1.385 1_554 S
C230 C229 1.374 . S
C231 C228 1.499 . S
C231 C232 1.377 . S
C231 C233 1.389 . S
C232 H205 0.947 1_556 S
C232 C218 1.377 . S
C232 C231 1.377 . S
C233 C217 1.377 . S
C233 C231 1.389 . S
C233 C234 1.524 . S
C234 C233 1.524 . S
C234 C235 1.397 . S
C234 C239 1.363 . S
C235 H206 0.950 1_556 S
C235 C234 1.397 . S
C235 C236 1.334 . S
C236 H207 0.950 1_556 S
C236 C235 1.334 . S
C236 C237 1.287 . S
C237 C236 1.287 . S
C237 C238 1.524 . S
C237 H240 0.999 . S
C238 H208 0.950 . S
C238 C237 1.524 . S
C238 C239 1.415 . S
C239 H209 0.950 . S
C239 C234 1.363 . S
C239 C238 1.415 . S
H240 C237 0.999 . S
H241 C222 0.913 . S
H242 C260 0.951 . S
H243 C262 0.951 . S
H244 C264 0.950 . S
H245 C265 0.950 . S
H246 C267 0.950 . S
H247 C270 0.950 . S
H248 C271 0.950 1_554 S
H249 C273 0.950 . S
H250 C274 0.950 . S
H251 C275 0.951 . S
H252 C277 0.951 . S
H253 C279 0.950 . S
H254 C280 0.950 . S
H255 C282 0.959 . S
H256 C285 0.950 . S
H257 C286 0.950 . S
H258 C288 0.972 . S
H259 C289 0.950 . S
C260 H242 0.951 . S
C260 C261 1.366 . S
C260 C262 1.388 . S
C261 C260 1.366 . S
C261 C265 1.385 1_556 S
C262 H243 0.951 . S
C262 C260 1.388 . S
C262 C263 1.366 . S
C263 C262 1.366 . S
C263 C264 1.414 1_556 S
C263 C266 1.499 . S
C264 H244 0.950 . S
C264 C263 1.414 1_554 S
C264 C265 1.374 . S
C265 H245 0.950 . S
C265 C261 1.385 1_554 S
C265 C264 1.374 . S
C266 C263 1.499 . S
C266 C267 1.373 1_556 S
C266 C268 1.389 . S
C267 H246 0.950 . S
C267 C266 1.373 1_554 S
C267 C283 1.377 1_554 S
C268 C266 1.389 . S
C268 C269 1.524 . S
C268 C282 1.377 . S
C269 C268 1.524 . S
C269 C270 1.397 1_556 S
C269 C274 1.363 . S
C270 H247 0.950 . S
C270 C269 1.397 1_554 S
C270 C271 1.334 1_554 S
C271 H248 0.950 1_556 S
C271 C270 1.334 1_556 S
C271 C272 1.287 . S
C272 C271 1.287 . S
C272 C273 1.524 . S
C272 H291 0.913 . S
C273 H249 0.950 . S
C273 C272 1.524 . S
C273 C274 1.415 . S
C274 H250 0.950 . S
C274 C269 1.363 . S
C274 C273 1.415 . S
C275 H251 0.951 . S
C275 C276 1.366 1_554 S
C275 C277 1.388 . S
C276 C275 1.366 1_556 S
C276 C280 1.385 . S
C277 H252 0.951 . S
C277 C275 1.388 . S
C277 C278 1.366 1_554 S
C278 C277 1.366 1_556 S
C278 C279 1.414 . S
C278 C281 1.499 . S
C279 H253 0.950 . S
C279 C278 1.414 . S
C279 C280 1.374 . S
C280 H254 0.950 . S
C280 C276 1.385 . S
C280 C279 1.374 . S
C281 C278 1.499 . S
C281 C282 1.373 1_655 S
C281 C283 1.389 1_655 S
C282 H255 0.959 . S
C282 C268 1.377 . S
C282 C281 1.373 1_455 S
C283 C267 1.377 1_556 S
C283 C281 1.389 1_455 S
C283 C284 1.524 1_556 S
C284 C283 1.524 1_554 S
C284 C285 1.397 1_454 S
C284 C289 1.363 . S
C285 H256 0.950 . S
C285 C284 1.397 1_656 S
C285 C286 1.334 . S
C286 H257 0.950 . S
C286 C285 1.334 . S
C286 C287 1.287 1_556 S
C287 C286 1.287 1_554 S
C287 C288 1.510 1_655 S
C287 H290 0.999 . S
C288 H258 0.972 . S
C288 C287 1.510 1_455 S
C288 C289 1.406 . S
C289 H259 0.950 . S
C289 C284 1.363 . S
C289 C288 1.406 . S
H290 C287 0.999 . S
H291 C272 0.913 . S
H292 C310 0.951 . S
H293 C312 0.951 . S
H294 C314 0.950 . S
H295 C315 0.950 . S
H296 C317 0.946 1_554 S
H297 C320 0.950 . S
H298 C321 0.950 . S
H299 C323 0.950 . S
H300 C324 0.950 . S
H301 C325 0.951 . S
H302 C327 0.951 . S
H303 C329 0.950 . S
H304 C330 0.950 . S
H305 C332 0.950 . S
H306 C335 0.950 . S
H307 C336 0.950 . S
H308 C338 0.950 . S
H309 C339 0.950 1_556 S
C310 H292 0.951 . S
C310 C311 1.366 1_554 S
C310 C312 1.388 . S
C311 C310 1.366 1_556 S
C311 C315 1.385 . S
C312 H293 0.951 . S
C312 C310 1.388 . S
C312 C313 1.366 1_554 S
C313 C312 1.366 1_556 S
C313 C314 1.414 . S
C313 C316 1.499 . S
C314 H294 0.950 . S
C314 C313 1.414 . S
C314 C315 1.374 . S
C315 H295 0.950 . S
C315 C311 1.385 . S
C315 C314 1.374 . S
C316 C313 1.499 . S
C316 C317 1.378 . S
C316 C318 1.389 . S
C317 H296 0.946 1_556 S
C317 C316 1.378 . S
C317 C333 1.376 1_556 S
C318 C316 1.389 . S
C318 C319 1.524 . S
C318 C332 1.377 . S
C319 C318 1.524 . S
C319 C320 1.397 . S
C319 C324 1.363 . S
C320 H297 0.950 . S
C320 C319 1.397 . S
C320 C321 1.334 . S
C321 H298 0.950 . S
C321 C320 1.334 . S
C321 C322 1.287 . S
C322 C321 1.287 . S
C322 C323 1.524 . S
C322 H341 0.913 . S
C323 H299 0.950 . S
C323 C322 1.524 . S
C323 C324 1.415 . S
C324 H300 0.950 . S
C324 C319 1.363 . S
C324 C323 1.415 . S
C325 H301 0.951 . S
C325 C326 1.366 . S
C325 C327 1.388 . S
C326 C325 1.366 . S
C326 C330 1.384 1_556 S
C327 H302 0.951 . S
C327 C325 1.388 . S
C327 C328 1.366 . S
C328 C327 1.366 . S
C328 C329 1.414 1_556 S
C328 C331 1.499 . S
C329 H303 0.950 . S
C329 C328 1.414 1_554 S
C329 C330 1.374 . S
C330 H304 0.950 . S
C330 C326 1.384 1_554 S
C330 C329 1.374 . S
C331 C328 1.499 . S
C331 C332 1.373 1_565 S
C331 C333 1.389 1_566 S
C332 H305 0.950 . S
C332 C318 1.377 . S
C332 C331 1.373 1_545 S
C333 C317 1.376 1_554 S
C333 C331 1.389 1_544 S
C333 C334 1.524 1_545 S
C334 C333 1.524 1_565 S
C334 C335 1.397 . S
C334 C339 1.363 1_565 S
C335 H306 0.950 . S
C335 C334 1.397 . S
C335 C336 1.334 . S
C336 H307 0.950 . S
C336 C335 1.334 . S
C336 C337 1.287 . S
C337 C336 1.287 . S
C337 C338 1.524 . S
C337 H340 0.999 . S
C338 H308 0.950 . S
C338 C337 1.524 . S
C338 C339 1.415 1_565 S
C339 H309 0.950 1_554 S
C339 C334 1.363 1_545 S
C339 C338 1.415 1_545 S
H340 C337 0.999 . S
H341 C322 0.913 . S
H342 C360 0.951 . S
H343 C362 0.951 . S
H344 C364 0.950 . S
H345 C365 0.950 . S
H346 C367 0.950 . S
H347 C370 0.950 . S
H348 C371 0.950 . S
H349 C373 0.950 . S
H350 C374 0.950 . S
H351 C375 0.951 . S
H352 C377 0.951 . S
H353 C379 0.950 . S
H354 C380 0.950 . S
H355 C382 0.950 . S
H356 C385 0.950 . S
H357 C386 0.950 . S
H358 C388 0.950 . S
H359 C389 0.950 . S
C360 H342 0.951 . S
C360 C361 1.366 . S
C360 C362 1.388 . S
C361 C360 1.366 . S
C361 C365 1.385 1_556 S
C362 H343 0.951 . S
C362 C360 1.388 . S
C362 C363 1.366 . S
C363 C362 1.366 . S
C363 C364 1.414 1_556 S
C363 C366 1.499 . S
C364 H344 0.950 . S
C364 C363 1.414 1_554 S
C364 C365 1.374 . S
C365 H345 0.950 . S
C365 C361 1.385 1_554 S
C365 C364 1.374 . S
C366 C363 1.499 . S
C366 C367 1.373 1_556 S
C366 C368 1.389 . S
C367 H346 0.950 . S
C367 C366 1.373 1_554 S
C367 C383 1.377 . S
C368 C366 1.389 . S
C368 C369 1.524 . S
C368 C382 1.377 . S
C369 C368 1.524 . S
C369 C370 1.397 . S
C369 C374 1.363 . S
C370 H347 0.950 . S
C370 C369 1.397 . S
C370 C371 1.334 . S
C371 H348 0.950 . S
C371 C370 1.334 . S
C371 C372 1.287 . S
C372 C371 1.287 . S
C372 C373 1.524 . S
C372 H391 0.913 . S
C373 H349 0.950 . S
C373 C372 1.524 . S
C373 C374 1.415 . S
C374 H350 0.950 . S
C374 C369 1.363 . S
C374 C373 1.415 . S
C375 H351 0.951 . S
C375 C376 1.366 1_554 S
C375 C377 1.388 . S
C376 C375 1.366 1_556 S
C376 C380 1.385 . S
C377 H352 0.951 . S
C377 C375 1.388 . S
C377 C378 1.366 1_554 S
C378 C377 1.366 1_556 S
C378 C379 1.414 . S
C378 C381 1.499 . S
C379 H353 0.950 . S
C379 C378 1.414 . S
C379 C380 1.374 . S
C380 H354 0.950 . S
C380 C376 1.385 . S
C380 C379 1.374 . S
C381 C378 1.499 . S
C381 C382 1.373 . S
C381 C383 1.389 1_556 S
C382 H355 0.950 . S
C382 C368 1.377 . S
C382 C381 1.373 . S
C383 C367 1.377 . S
C383 C381 1.389 1_554 S
C383 C384 1.524 . S
C384 C383 1.524 . S
C384 C385 1.397 . S
C384 C389 1.363 . S
C385 H356 0.950 . S
C385 C384 1.397 . S
C385 C386 1.334 . S
C386 H357 0.950 . S
C386 C385 1.334 . S
C386 C387 1.287 . S
C387 C386 1.287 . S
C387 C388 1.524 . S
C387 H390 0.999 . S
C388 H358 0.950 . S
C388 C387 1.524 . S
C388 C389 1.415 . S
C389 H359 0.950 . S
C389 C384 1.363 . S
C389 C388 1.415 . S
H390 C387 0.999 . S
H391 C372 0.913 . S
H392 C410 0.951 . S
H393 C412 0.951 . S
H394 C414 0.950 . S
H395 C415 0.950 . S
H396 C417 0.950 . S
H397 C420 0.950 . S
H398 C421 0.950 . S
H399 C423 0.950 . S
H400 C424 0.950 . S
H401 C425 0.951 . S
H402 C427 0.951 . S
H403 C429 0.950 . S
H404 C430 0.950 . S
H405 C432 0.950 . S
H406 C435 0.950 . S
H407 C436 0.950 . S
H408 C438 0.950 . S
H409 C439 0.950 . S
C410 H392 0.951 . S
C410 C411 1.366 . S
C410 C412 1.388 . S
C411 C410 1.366 . S
C411 C415 1.385 . S
C412 H393 0.951 . S
C412 C410 1.388 . S
C412 C413 1.366 . S
C413 C412 1.366 . S
C413 C414 1.414 . S
C413 C416 1.499 . S
C414 H394 0.950 . S
C414 C413 1.414 . S
C414 C415 1.374 . S
C415 H395 0.950 . S
C415 C411 1.385 . S
C415 C414 1.374 . S
C416 C413 1.499 . S
C416 C417 1.373 1_456 S
C416 C418 1.389 1_455 S
C417 H396 0.950 . S
C417 C416 1.373 1_654 S
C417 C433 1.377 . S
C418 C416 1.389 1_655 S
C418 C419 1.518 1_655 S
C418 C432 1.377 . S
C419 C418 1.518 1_455 S
C419 C420 1.399 . S
C419 C424 1.366 1_455 S
C420 H397 0.950 . S
C420 C419 1.399 . S
C420 C421 1.334 . S
C421 H398 0.950 . S
C421 C420 1.334 . S
C421 C422 1.287 . S
C422 C421 1.287 . S
C422 C423 1.524 . S
C422 H441 0.913 . S
C423 H399 0.950 . S
C423 C422 1.524 . S
C423 C424 1.415 1_455 S
C424 H400 0.950 . S
C424 C419 1.366 1_655 S
C424 C423 1.415 1_655 S
C425 H401 0.951 . S
C425 C426 1.366 . S
C425 C427 1.388 . S
C426 C425 1.366 . S
C426 C430 1.385 1_556 S
C427 H402 0.951 . S
C427 C425 1.388 . S
C427 C428 1.366 . S
C428 C427 1.366 . S
C428 C429 1.414 1_556 S
C428 C431 1.499 . S
C429 H403 0.950 . S
C429 C428 1.414 1_554 S
C429 C430 1.374 . S
C430 H404 0.950 . S
C430 C426 1.385 1_554 S
C430 C429 1.374 . S
C431 C428 1.499 . S
C431 C432 1.373 . S
C431 C433 1.389 1_556 S
C432 H405 0.950 . S
C432 C418 1.377 . S
C432 C431 1.373 . S
C433 C417 1.377 . S
C433 C431 1.389 1_554 S
C433 C434 1.524 . S
C434 C433 1.524 . S
C434 C435 1.397 . S
C434 C439 1.363 . S
C435 H406 0.950 . S
C435 C434 1.397 . S
C435 C436 1.334 . S
C436 H407 0.950 . S
C436 C435 1.334 . S
C436 C437 1.287 . S
C437 C436 1.287 . S
C437 C438 1.524 . S
C437 H440 0.999 . S
C438 H408 0.950 . S
C438 C437 1.524 . S
C438 C439 1.415 . S
C439 H409 0.950 . S
C439 C434 1.363 . S
C439 C438 1.415 . S
H440 C437 0.999 . S
H441 C422 0.913 . S
H442 C460 0.951 . S
H443 C462 0.951 . S
H444 C464 0.950 . S
H445 C465 0.950 . S
H446 C467 0.950 . S
H447 C470 0.950 . S
H448 C471 0.950 . S
H449 C473 0.950 . S
H450 C474 0.950 . S
H451 C475 0.951 . S
H452 C477 0.951 . S
H453 C479 0.950 . S
H454 C480 0.950 . S
H455 C482 0.961 . S
H456 C485 0.950 . S
H457 C486 0.950 . S
H458 C488 0.950 . S
H459 C489 0.950 . S
C460 H442 0.951 . S
C460 C461 1.366 1_554 S
C460 C462 1.388 . S
C461 C460 1.366 1_556 S
C461 C465 1.385 . S
C462 H443 0.951 . S
C462 C460 1.388 . S
C462 C463 1.366 1_554 S
C463 C462 1.366 1_556 S
C463 C464 1.414 . S
C463 C466 1.499 . S
C464 H444 0.950 . S
C464 C463 1.414 . S
C464 C465 1.374 . S
C465 H445 0.950 . S
C465 C461 1.385 . S
C465 C464 1.374 . S
C466 C463 1.499 . S
C466 C467 1.373 . S
C466 C468 1.389 1_556 S
C467 H446 0.950 . S
C467 C466 1.373 . S
C467 C483 1.377 . S
C468 C466 1.389 1_554 S
C468 C469 1.524 . S
C468 C482 1.377 . S
C469 C468 1.524 . S
C469 C470 1.397 . S
C469 C474 1.363 . S
C470 H447 0.950 . S
C470 C469 1.397 . S
C470 C471 1.334 . S
C471 H448 0.950 . S
C471 C470 1.334 . S
C471 C472 1.287 . S
C472 C471 1.287 . S
C472 C473 1.524 . S
C472 H491 0.913 . S
C473 H449 0.950 . S
C473 C472 1.524 . S
C473 C474 1.415 . S
C474 H450 0.950 . S
C474 C469 1.363 . S
C474 C473 1.415 . S
C475 H451 0.951 . S
C475 C476 1.366 . S
C475 C477 1.388 . S
C476 C475 1.366 . S
C476 C480 1.385 1_556 S
C477 H452 0.951 . S
C477 C475 1.388 . S
C477 C478 1.366 . S
C478 C477 1.366 . S
C478 C479 1.414 1_556 S
C478 C481 1.499 . S
C479 H453 0.950 . S
C479 C478 1.414 1_554 S
C479 C480 1.374 . S
C480 H454 0.950 . S
C480 C476 1.385 1_554 S
C480 C479 1.374 . S
C481 C478 1.499 . S
C481 C482 1.373 1_546 S
C481 C483 1.389 1_545 S
C482 H455 0.961 . S
C482 C468 1.377 . S
C482 C481 1.373 1_564 S
C483 C467 1.377 . S
C483 C481 1.389 1_565 S
C483 C484 1.524 . S
C484 C483 1.524 . S
C484 C485 1.397 1_565 S
C484 C489 1.363 . S
C485 H456 0.950 . S
C485 C484 1.397 1_545 S
C485 C486 1.334 . S
C486 H457 0.950 . S
C486 C485 1.334 . S
C486 C487 1.287 . S
C487 C486 1.287 . S
C487 C488 1.524 1_545 S
C487 H490 0.999 . S
C488 H458 0.950 . S
C488 C487 1.524 1_565 S
C488 C489 1.415 . S
C489 H459 0.950 . S
C489 C484 1.363 . S
C489 C488 1.415 . S
H490 C487 0.999 . S
H491 C472 0.913 . S
H492 C510 0.951 . S
H493 C512 0.951 . S
H494 C514 0.950 . S
H495 C515 0.950 . S
H496 C517 0.950 . S
H497 C520 0.950 . S
H498 C521 0.950 . S
H499 C523 0.950 1_554 S
H500 C524 0.950 . S
H501 C525 0.951 . S
H502 C527 0.951 . S
H503 C529 0.950 . S
H504 C530 0.950 . S
H505 C532 0.949 1_556 S
H506 C535 0.950 . S
H507 C536 0.950 . S
H508 C538 0.950 . S
H509 C539 0.950 1_556 S
C510 H492 0.951 . S
C510 C511 1.366 . S
C510 C512 1.388 . S
C511 C510 1.366 . S
C511 C515 1.385 1_554 S
C512 H493 0.951 . S
C512 C510 1.388 . S
C512 C513 1.366 . S
C513 C512 1.366 . S
C513 C514 1.414 1_554 S
C513 C516 1.499 . S
C514 H494 0.950 . S
C514 C513 1.414 1_556 S
C514 C515 1.374 . S
C515 H495 0.950 . S
C515 C511 1.385 1_556 S
C515 C514 1.374 . S
C516 C513 1.499 . S
C516 C517 1.373 . S
C516 C518 1.389 1_554 S
C517 H496 0.950 . S
C517 C516 1.373 . S
C517 C533 1.377 . S
C518 C516 1.389 1_556 S
C518 C519 1.524 . S
C518 C532 1.376 1_556 S
C519 C518 1.524 . S
C519 C520 1.397 . S
C519 C524 1.363 1_556 S
C520 H497 0.950 . S
C520 C519 1.397 . S
C520 C521 1.334 . S
C521 H498 0.950 . S
C521 C520 1.334 . S
C521 C522 1.287 . S
C522 C521 1.287 . S
C522 C523 1.524 . S
C522 H541 0.913 . S
C523 H499 0.950 1_556 S
C523 C522 1.524 . S
C523 C524 1.415 1_556 S
C524 H500 0.950 . S
C524 C519 1.363 1_554 S
C524 C523 1.415 1_554 S
C525 H501 0.951 . S
C525 C526 1.366 1_556 S
C525 C527 1.388 . S
C526 C525 1.366 1_554 S
C526 C530 1.385 . S
C527 H502 0.951 . S
C527 C525 1.388 . S
C527 C528 1.366 1_556 S
C528 C527 1.366 1_554 S
C528 C529 1.414 . S
C528 C531 1.499 . S
C529 H503 0.950 . S
C529 C528 1.414 . S
C529 C530 1.374 . S
C530 H504 0.950 . S
C530 C526 1.385 . S
C530 C529 1.374 . S
C531 C528 1.499 . S
C531 C532 1.375 . S
C531 C533 1.389 . S
C532 H505 0.949 1_554 S
C532 C518 1.376 1_554 S
C532 C531 1.375 . S
C533 C517 1.377 . S
C533 C531 1.389 . S
C533 C534 1.524 . S
C534 C533 1.524 . S
C534 C535 1.397 . S
C534 C539 1.363 . S
C535 H506 0.950 . S
C535 C534 1.397 . S
C535 C536 1.334 . S
C536 H507 0.950 . S
C536 C535 1.334 . S
C536 C537 1.287 . S
C537 C536 1.287 . S
C537 C538 1.524 . S
C537 H540 0.999 . S
C538 H508 0.950 . S
C538 C537 1.524 . S
C538 C539 1.415 . S
C539 H509 0.950 1_554 S
C539 C534 1.363 . S
C539 C538 1.415 . S
H540 C537 0.999 . S
H541 C522 0.913 . S
H542 C560 0.951 . S
H543 C562 0.951 . S
H544 C564 0.950 . S
H545 C565 0.950 . S
H546 C567 0.950 . S
H547 C570 0.950 . S
H548 C571 0.950 . S
H549 C573 0.950 . S
H550 C574 0.950 . S
H551 C575 0.951 . S
H552 C577 0.951 . S
H553 C579 0.950 . S
H554 C580 0.950 . S
H555 C582 0.950 . S
H556 C585 0.950 . S
H557 C586 0.950 . S
H558 C588 0.950 . S
H559 C589 0.950 . S
C560 H542 0.951 . S
C560 C561 1.366 . S
C560 C562 1.388 . S
C561 C560 1.366 . S
C561 C565 1.385 1_554 S
C562 H543 0.951 . S
C562 C560 1.388 . S
C562 C563 1.366 . S
C563 C562 1.366 . S
C563 C564 1.414 1_554 S
C563 C566 1.499 . S
C564 H544 0.950 . S
C564 C563 1.414 1_556 S
C564 C565 1.374 . S
C565 H545 0.950 . S
C565 C561 1.385 1_556 S
C565 C564 1.374 . S
C566 C563 1.499 . S
C566 C567 1.373 . S
C566 C568 1.389 . S
C567 H546 0.950 . S
C567 C566 1.373 . S
C567 C583 1.377 . S
C568 C566 1.389 . S
C568 C569 1.524 1_554 S
C568 C582 1.377 . S
C569 C568 1.524 1_556 S
C569 C570 1.397 . S
C569 C574 1.363 1_556 S
C570 H547 0.950 . S
C570 C569 1.397 . S
C570 C571 1.334 . S
C571 H548 0.950 . S
C571 C570 1.334 . S
C571 C572 1.287 . S
C572 C571 1.287 . S
C572 C573 1.524 1_556 S
C572 H591 0.913 . S
C573 H549 0.950 . S
C573 C572 1.524 1_554 S
C573 C574 1.415 . S
C574 H550 0.950 . S
C574 C569 1.363 1_554 S
C574 C573 1.415 . S
C575 H551 0.951 . S
C575 C576 1.366 1_556 S
C575 C577 1.388 . S
C576 C575 1.366 1_554 S
C576 C580 1.385 . S
C577 H552 0.951 . S
C577 C575 1.388 . S
C577 C578 1.366 1_556 S
C578 C577 1.366 1_554 S
C578 C579 1.414 . S
C578 C581 1.499 . S
C579 H553 0.950 . S
C579 C578 1.414 . S
C579 C580 1.374 . S
C580 H554 0.950 . S
C580 C576 1.385 . S
C580 C579 1.374 . S
C581 C578 1.499 . S
C581 C582 1.373 . S
C581 C583 1.389 . S
C582 H555 0.950 . S
C582 C568 1.377 . S
C582 C581 1.373 . S
C583 C567 1.377 . S
C583 C581 1.389 . S
C583 C584 1.524 . S
C584 C583 1.524 . S
C584 C585 1.397 . S
C584 C589 1.363 1_554 S
C585 H556 0.950 . S
C585 C584 1.397 . S
C585 C586 1.334 . S
C586 H557 0.950 . S
C586 C585 1.334 . S
C586 C587 1.287 . S
C587 C586 1.287 . S
C587 C588 1.524 1_554 S
C587 H590 0.999 . S
C588 H558 0.950 . S
C588 C587 1.524 1_556 S
C588 C589 1.415 . S
C589 H559 0.950 . S
C589 C584 1.363 1_556 S
C589 C588 1.415 . S
H590 C587 0.999 . S
H591 C572 0.913 . S
H592 C610 0.951 . S
H593 C612 0.951 . S
H594 C614 0.950 . S
H595 C615 0.950 . S
H596 C617 0.950 . S
H597 C620 0.950 . S
H598 C621 0.950 . S
H599 C623 0.950 . S
H600 C624 0.950 . S
H601 C625 0.951 . S
H602 C627 0.951 . S
H603 C629 0.950 . S
H604 C630 0.950 . S
H605 C632 0.950 . S
H606 C635 0.950 . S
H607 C636 0.950 . S
H608 C638 0.950 . S
H609 C639 0.950 . S
C610 H592 0.951 . S
C610 C611 1.366 . S
C610 C612 1.388 . S
C611 C610 1.366 . S
C611 C615 1.385 . S
C612 H593 0.951 . S
C612 C610 1.388 . S
C612 C613 1.366 . S
C613 C612 1.366 . S
C613 C614 1.414 . S
C613 C616 1.499 . S
C614 H594 0.950 . S
C614 C613 1.414 . S
C614 C615 1.374 . S
C615 H595 0.950 . S
C615 C611 1.385 . S
C615 C614 1.374 . S
C616 C613 1.499 . S
C616 C617 1.373 . S
C616 C618 1.389 1_554 S
C617 H596 0.950 . S
C617 C616 1.373 . S
C617 C633 1.377 . S
C618 C616 1.389 1_556 S
C618 C619 1.524 . S
C618 C632 1.377 . S
C619 C618 1.524 . S
C619 C620 1.397 . S
C619 C624 1.363 . S
C620 H597 0.950 . S
C620 C619 1.397 . S
C620 C621 1.334 . S
C621 H598 0.950 . S
C621 C620 1.334 . S
C621 C622 1.287 . S
C622 C621 1.287 . S
C622 C623 1.524 . S
C622 H641 0.913 . S
C623 H599 0.950 . S
C623 C622 1.524 . S
C623 C624 1.415 . S
C624 H600 0.950 . S
C624 C619 1.363 . S
C624 C623 1.415 . S
C625 H601 0.951 . S
C625 C626 1.366 . S
C625 C627 1.388 . S
C626 C625 1.366 . S
C626 C630 1.385 . S
C627 H602 0.951 . S
C627 C625 1.388 . S
C627 C628 1.366 . S
C628 C627 1.366 . S
C628 C629 1.414 . S
C628 C631 1.499 . S
C629 H603 0.950 . S
C629 C628 1.414 . S
C629 C630 1.374 . S
C630 H604 0.950 . S
C630 C626 1.385 . S
C630 C629 1.374 . S
C631 C628 1.499 . S
C631 C632 1.373 1_554 S
C631 C633 1.389 . S
C632 H605 0.950 . S
C632 C618 1.377 . S
C632 C631 1.373 1_556 S
C633 C617 1.377 . S
C633 C631 1.389 . S
C633 C634 1.524 . S
C634 C633 1.524 . S
C634 C635 1.397 . S
C634 C639 1.363 . S
C635 H606 0.950 . S
C635 C634 1.397 . S
C635 C636 1.334 . S
C636 H607 0.950 . S
C636 C635 1.334 . S
C636 C637 1.287 . S
C637 C636 1.287 . S
C637 C638 1.524 . S
C637 H640 0.999 . S
C638 H608 0.950 . S
C638 C637 1.524 . S
C638 C639 1.415 . S
C639 H609 0.950 . S
C639 C634 1.363 . S
C639 C638 1.415 . S
H640 C637 0.999 . S
H641 C622 0.913 . S
H642 C660 0.951 . S
H643 C662 0.951 . S
H644 C664 0.950 . S
H645 C665 0.950 . S
H646 C667 0.950 . S
H647 C670 0.950 . S
H648 C671 0.950 . S
H649 C673 0.950 . S
H650 C674 0.950 . S
H651 C675 0.951 . S
H652 C677 0.951 . S
H653 C679 0.950 . S
H654 C680 0.950 . S
H655 C682 0.950 . S
H656 C685 0.950 . S
H657 C686 0.950 . S
H658 C688 0.950 . S
H659 C689 0.950 . S
C660 H642 0.951 . S
C660 C661 1.366 . S
C660 C662 1.388 . S
C661 C660 1.366 . S
C661 C665 1.385 1_554 S
C662 H643 0.951 . S
C662 C660 1.388 . S
C662 C663 1.366 . S
C663 C662 1.366 . S
C663 C664 1.414 1_554 S
C663 C666 1.499 . S
C664 H644 0.950 . S
C664 C663 1.414 1_556 S
C664 C665 1.374 . S
C665 H645 0.950 . S
C665 C661 1.385 1_556 S
C665 C664 1.374 . S
C666 C663 1.499 . S
C666 C667 1.373 . S
C666 C668 1.389 1_554 S
C667 H646 0.950 . S
C667 C666 1.373 . S
C667 C683 1.377 . S
C668 C666 1.389 1_556 S
C668 C669 1.524 . S
C668 C682 1.377 . S
C669 C668 1.524 . S
C669 C670 1.397 . S
C669 C674 1.363 . S
C670 H647 0.950 . S
C670 C669 1.397 . S
C670 C671 1.334 . S
C671 H648 0.950 . S
C671 C670 1.334 . S
C671 C672 1.287 . S
C672 C671 1.287 . S
C672 C673 1.524 . S
C672 H691 0.913 . S
C673 H649 0.950 . S
C673 C672 1.524 . S
C673 C674 1.415 . S
C674 H650 0.950 . S
C674 C669 1.363 . S
C674 C673 1.415 . S
C675 H651 0.951 . S
C675 C676 1.366 1_556 S
C675 C677 1.388 . S
C676 C675 1.366 1_554 S
C676 C680 1.385 . S
C677 H652 0.951 . S
C677 C675 1.388 . S
C677 C678 1.366 1_556 S
C678 C677 1.366 1_554 S
C678 C679 1.414 . S
C678 C681 1.499 . S
C679 H653 0.950 . S
C679 C678 1.414 . S
C679 C680 1.374 . S
C680 H654 0.950 . S
C680 C676 1.385 . S
C680 C679 1.374 . S
C681 C678 1.499 . S
C681 C682 1.373 1_554 S
C681 C683 1.389 . S
C682 H655 0.950 . S
C682 C668 1.377 . S
C682 C681 1.373 1_556 S
C683 C667 1.377 . S
C683 C681 1.389 . S
C683 C684 1.524 . S
C684 C683 1.524 . S
C684 C685 1.397 . S
C684 C689 1.363 . S
C685 H656 0.950 . S
C685 C684 1.397 . S
C685 C686 1.334 . S
C686 H657 0.950 . S
C686 C685 1.334 . S
C686 C687 1.287 . S
C687 C686 1.287 . S
C687 C688 1.524 . S
C687 H690 0.999 . S
C688 H658 0.950 . S
C688 C687 1.524 . S
C688 C689 1.415 . S
C689 H659 0.950 . S
C689 C684 1.363 . S
C689 C688 1.415 . S
H690 C687 0.999 . S
H691 C672 0.913 . S
H692 C710 0.951 . S
H693 C712 0.951 . S
H694 C714 0.950 . S
H695 C715 0.950 . S
H696 C717 0.950 . S
H697 C720 0.950 . S
H698 C721 0.950 . S
H699 C723 0.950 . S
H700 C724 0.959 . S
H701 C725 0.951 . S
H702 C727 0.951 . S
H703 C729 0.950 . S
H704 C730 0.950 . S
H705 C732 0.950 . S
H706 C735 0.950 . S
H707 C736 0.950 . S
H708 C738 0.950 . S
H709 C739 0.950 1_554 S
C710 H692 0.951 . S
C710 C711 1.366 1_556 S
C710 C712 1.388 . S
C711 C710 1.366 1_554 S
C711 C715 1.385 . S
C712 H693 0.951 . S
C712 C710 1.388 . S
C712 C713 1.366 1_556 S
C713 C712 1.366 1_554 S
C713 C714 1.414 . S
C713 C716 1.499 . S
C714 H694 0.950 . S
C714 C713 1.414 . S
C714 C715 1.374 . S
C715 H695 0.950 . S
C715 C711 1.385 . S
C715 C714 1.374 . S
C716 C713 1.499 . S
C716 C717 1.373 1_554 S
C716 C718 1.389 . S
C717 H696 0.950 . S
C717 C716 1.373 1_556 S
C717 C733 1.377 . S
C718 C716 1.389 . S
C718 C719 1.524 . S
C718 C732 1.377 . S
C719 C718 1.524 . S
C719 C720 1.397 . S
C719 C724 1.363 . S
C720 H697 0.950 . S
C720 C719 1.397 . S
C720 C721 1.334 . S
C721 H698 0.950 . S
C721 C720 1.334 . S
C721 C722 1.287 . S
C722 C721 1.287 . S
C722 C723 1.524 . S
C722 H741 0.913 . S
C723 H699 0.950 . S
C723 C722 1.524 . S
C723 C724 1.415 . S
C724 H700 0.959 . S
C724 C719 1.363 . S
C724 C723 1.415 . S
C725 H701 0.951 . S
C725 C726 1.366 . S
C725 C727 1.388 . S
C726 C725 1.366 . S
C726 C730 1.385 1_554 S
C727 H702 0.951 . S
C727 C725 1.388 . S
C727 C728 1.366 . S
C728 C727 1.366 . S
C728 C729 1.414 1_554 S
C728 C731 1.499 . S
C729 H703 0.950 . S
C729 C728 1.414 1_556 S
C729 C730 1.374 . S
C730 H704 0.950 . S
C730 C726 1.385 1_556 S
C730 C729 1.374 . S
C731 C728 1.499 . S
C731 C732 1.373 . S
C731 C733 1.389 1_554 S
C732 H705 0.950 . S
C732 C718 1.377 . S
C732 C731 1.373 . S
C733 C717 1.377 . S
C733 C731 1.389 1_556 S
C733 C734 1.524 . S
C734 C733 1.524 . S
C734 C735 1.397 . S
C734 C739 1.363 . S
C735 H706 0.950 . S
C735 C734 1.397 . S
C735 C736 1.334 . S
C736 H707 0.950 . S
C736 C735 1.334 . S
C736 C737 1.287 . S
C737 C736 1.287 . S
C737 C738 1.524 . S
C737 H740 0.999 . S
C738 H708 0.950 . S
C738 C737 1.524 . S
C738 C739 1.415 . S
C739 H709 0.950 1_556 S
C739 C734 1.363 . S
C739 C738 1.415 . S
H740 C737 0.999 . S
H741 C722 0.913 . S
H742 C760 0.951 . S
H743 C762 0.951 . S
H744 C764 0.950 . S
H745 C765 0.950 . S
H746 C767 0.950 . S
H747 C770 0.950 . S
H748 C771 0.950 . S
H749 C773 0.950 . S
H750 C774 0.950 . S
H751 C775 0.951 . S
H752 C777 0.951 . S
H753 C779 0.950 . S
H754 C780 0.950 . S
H755 C782 0.950 . S
H756 C785 0.950 . S
H757 C786 0.950 . S
H758 C788 0.950 . S
H759 C789 0.950 . S
C760 H742 0.951 . S
C760 C761 1.366 . S
C760 C762 1.388 . S
C761 C760 1.366 . S
C761 C765 1.385 . S
C762 H743 0.951 . S
C762 C760 1.388 . S
C762 C763 1.366 . S
C763 C762 1.366 . S
C763 C764 1.414 . S
C763 C766 1.499 . S
C764 H744 0.950 . S
C764 C763 1.414 . S
C764 C765 1.374 . S
C765 H745 0.950 . S
C765 C761 1.385 . S
C765 C764 1.374 . S
C766 C763 1.499 . S
C766 C767 1.373 1_554 S
C766 C768 1.389 . S
C767 H746 0.950 . S
C767 C766 1.373 1_556 S
C767 C783 1.377 . S
C768 C766 1.389 . S
C768 C769 1.524 . S
C768 C782 1.377 . S
C769 C768 1.524 . S
C769 C770 1.397 . S
C769 C774 1.363 . S
C770 H747 0.950 . S
C770 C769 1.397 . S
C770 C771 1.334 . S
C771 H748 0.950 . S
C771 C770 1.334 . S
C771 C772 1.287 . S
C772 C771 1.287 . S
C772 C773 1.524 . S
C772 H791 0.913 . S
C773 H749 0.950 . S
C773 C772 1.524 . S
C773 C774 1.415 . S
C774 H750 0.950 . S
C774 C769 1.363 . S
C774 C773 1.415 . S
C775 H751 0.951 . S
C775 C776 1.366 1_556 S
C775 C777 1.388 . S
C776 C775 1.366 1_554 S
C776 C780 1.385 . S
C777 H752 0.951 . S
C777 C775 1.388 . S
C777 C778 1.366 1_556 S
C778 C777 1.366 1_554 S
C778 C779 1.414 . S
C778 C781 1.499 . S
C779 H753 0.950 . S
C779 C778 1.414 . S
C779 C780 1.374 . S
C780 H754 0.950 . S
C780 C776 1.385 . S
C780 C779 1.374 . S
C781 C778 1.499 . S
C781 C782 1.373 . S
C781 C783 1.389 1_554 S
C782 H755 0.950 . S
C782 C768 1.377 . S
C782 C781 1.373 . S
C783 C767 1.377 . S
C783 C781 1.389 1_556 S
C783 C784 1.524 . S
C784 C783 1.524 . S
C784 C785 1.397 . S
C784 C789 1.363 . S
C785 H756 0.950 . S
C785 C784 1.397 . S
C785 C786 1.334 . S
C786 H757 0.950 . S
C786 C785 1.334 . S
C786 C787 1.287 . S
C787 C786 1.287 . S
C787 C788 1.524 . S
C787 H790 0.999 . S
C788 H758 0.950 . S
C788 C787 1.524 . S
C788 C789 1.415 . S
C789 H759 0.950 . S
C789 C784 1.363 . S
C789 C788 1.415 . S
H790 C787 0.999 . S
H791 C772 0.913 . S
H792 C810 0.951 . S
H793 C812 0.951 . S
H794 C814 0.950 . S
H795 C815 0.950 . S
H796 C817 0.950 . S
H797 C820 0.950 . S
H798 C821 0.950 . S
H799 C823 0.950 . S
H800 C824 0.950 . S
H801 C825 0.951 . S
H802 C827 0.951 . S
H803 C829 0.950 . S
H804 C830 0.950 . S
H805 C832 0.950 . S
H806 C835 0.950 . S
H807 C836 0.950 . S
H808 C838 0.950 . S
H809 C839 0.950 . S
C810 H792 0.951 . S
C810 C811 1.366 . S
C810 C812 1.388 . S
C811 C810 1.366 . S
C811 C815 1.385 . S
C812 H793 0.951 . S
C812 C810 1.388 . S
C812 C813 1.366 . S
C813 C812 1.366 . S
C813 C814 1.414 . S
C813 C816 1.499 . S
C814 H794 0.950 . S
C814 C813 1.414 . S
C814 C815 1.374 . S
C815 H795 0.950 . S
C815 C811 1.385 . S
C815 C814 1.374 . S
C816 C813 1.499 . S
C816 C817 1.373 . S
C816 C818 1.389 . S
C817 H796 0.950 . S
C817 C816 1.373 . S
C817 C833 1.377 . S
C818 C816 1.389 . S
C818 C819 1.524 . S
C818 C832 1.377 . S
C819 C818 1.524 . S
C819 C820 1.397 . S
C819 C824 1.363 . S
C820 H797 0.950 . S
C820 C819 1.397 . S
C820 C821 1.334 . S
C821 H798 0.950 . S
C821 C820 1.334 . S
C821 C822 1.287 . S
C822 C821 1.287 . S
C822 C823 1.524 . S
C822 H841 0.913 . S
C823 H799 0.950 . S
C823 C822 1.524 . S
C823 C824 1.415 . S
C824 H800 0.950 . S
C824 C819 1.363 . S
C824 C823 1.415 . S
C825 H801 0.951 . S
C825 C826 1.366 . S
C825 C827 1.388 . S
C826 C825 1.366 . S
C826 C830 1.385 . S
C827 H802 0.951 . S
C827 C825 1.388 . S
C827 C828 1.366 . S
C828 C827 1.366 . S
C828 C829 1.414 . S
C828 C831 1.499 . S
C829 H803 0.950 . S
C829 C828 1.414 . S
C829 C830 1.374 . S
C830 H804 0.950 . S
C830 C826 1.385 . S
C830 C829 1.374 . S
C831 C828 1.499 . S
C831 C832 1.373 . S
C831 C833 1.389 . S
C832 H805 0.950 . S
C832 C818 1.377 . S
C832 C831 1.373 . S
C833 C817 1.377 . S
C833 C831 1.389 . S
C833 C834 1.524 . S
C834 C833 1.524 . S
C834 C835 1.397 . S
C834 C839 1.363 . S
C835 H806 0.950 . S
C835 C834 1.397 . S
C835 C836 1.334 . S
C836 H807 0.950 . S
C836 C835 1.334 . S
C836 C837 1.287 . S
C837 C836 1.287 . S
C837 C838 1.524 . S
C837 H840 0.999 . S
C838 H808 0.950 . S
C838 C837 1.524 . S
C838 C839 1.415 . S
C839 H809 0.950 . S
C839 C834 1.363 . S
C839 C838 1.415 . S
H840 C837 0.999 . S
H841 C822 0.913 . S
H842 C860 0.951 . S
H843 C862 0.951 . S
H844 C864 0.950 . S
H845 C865 0.950 . S
H846 C867 0.950 . S
H847 C870 0.950 . S
H848 C871 0.950 . S
H849 C873 0.950 . S
H850 C874 0.950 . S
H851 C875 0.951 . S
H852 C877 0.951 . S
H853 C879 0.950 . S
H854 C880 0.950 . S
H855 C882 0.950 . S
H856 C885 0.950 . S
H857 C886 0.950 . S
H858 C888 0.950 . S
H859 C889 0.950 . S
C860 H842 0.951 . S
C860 C861 1.366 . S
C860 C862 1.388 . S
C861 C860 1.366 . S
C861 C865 1.385 . S
C862 H843 0.951 . S
C862 C860 1.388 . S
C862 C863 1.366 . S
C863 C862 1.366 . S
C863 C864 1.414 . S
C863 C866 1.499 . S
C864 H844 0.950 . S
C864 C863 1.414 . S
C864 C865 1.374 . S
C865 H845 0.950 . S
C865 C861 1.385 . S
C865 C864 1.374 . S
C866 C863 1.499 . S
C866 C867 1.373 . S
C866 C868 1.389 . S
C867 H846 0.950 . S
C867 C866 1.373 . S
C867 C883 1.377 . S
C868 C866 1.389 . S
C868 C869 1.524 . S
C868 C882 1.377 . S
C869 C868 1.524 . S
C869 C870 1.397 . S
C869 C874 1.363 . S
C870 H847 0.950 . S
C870 C869 1.397 . S
C870 C871 1.334 . S
C871 H848 0.950 . S
C871 C870 1.334 . S
C871 C872 1.287 . S
C872 C871 1.287 . S
C872 C873 1.524 . S
C872 H891 0.913 . S
C873 H849 0.950 . S
C873 C872 1.524 . S
C873 C874 1.415 . S
C874 H850 0.950 . S
C874 C869 1.363 . S
C874 C873 1.415 . S
C875 H851 0.951 . S
C875 C876 1.366 . S
C875 C877 1.388 . S
C876 C875 1.366 . S
C876 C880 1.385 . S
C877 H852 0.951 . S
C877 C875 1.388 . S
C877 C878 1.366 . S
C878 C877 1.366 . S
C878 C879 1.414 . S
C878 C881 1.499 . S
C879 H853 0.950 . S
C879 C878 1.414 . S
C879 C880 1.374 . S
C880 H854 0.950 . S
C880 C876 1.385 . S
C880 C879 1.374 . S
C881 C878 1.499 . S
C881 C882 1.373 . S
C881 C883 1.389 . S
C882 H855 0.950 . S
C882 C868 1.377 . S
C882 C881 1.373 . S
C883 C867 1.377 . S
C883 C881 1.389 . S
C883 C884 1.524 . S
C884 C883 1.524 . S
C884 C885 1.397 . S
C884 C889 1.363 . S
C885 H856 0.950 . S
C885 C884 1.397 . S
C885 C886 1.334 . S
C886 H857 0.950 . S
C886 C885 1.334 . S
C886 C887 1.287 . S
C887 C886 1.287 . S
C887 C888 1.524 . S
C887 H890 0.999 . S
C888 H858 0.950 . S
C888 C887 1.524 . S
C888 C889 1.415 . S
C889 H859 0.950 . S
C889 C884 1.363 . S
C889 C888 1.415 . S
H890 C887 0.999 . S
H891 C872 0.913 . S
H892 C910 0.951 . S
H893 C912 0.951 . S
H894 C914 0.950 . S
H895 C915 0.950 . S
H896 C917 0.950 . S
H897 C920 0.950 . S
H898 C921 0.950 . S
H899 C923 0.950 . S
H900 C924 0.950 . S
H901 C925 0.951 . S
H902 C927 0.951 . S
H903 C929 0.950 . S
H904 C930 0.950 . S
H905 C932 0.950 . S
H906 C935 0.950 . S
H907 C936 0.950 . S
H908 C938 0.950 . S
H909 C939 0.950 . S
C910 H892 0.951 . S
C910 C911 1.366 . S
C910 C912 1.388 . S
C911 C910 1.366 . S
C911 C915 1.385 . S
C912 H893 0.951 . S
C912 C910 1.388 . S
C912 C913 1.366 . S
C913 C912 1.366 . S
C913 C914 1.414 . S
C913 C916 1.499 . S
C914 H894 0.950 . S
C914 C913 1.414 . S
C914 C915 1.374 . S
C915 H895 0.950 . S
C915 C911 1.385 . S
C915 C914 1.374 . S
C916 C913 1.499 . S
C916 C917 1.373 . S
C916 C918 1.389 . S
C917 H896 0.950 . S
C917 C916 1.373 . S
C917 C933 1.377 . S
C918 C916 1.389 . S
C918 C919 1.524 . S
C918 C932 1.377 . S
C919 C918 1.524 . S
C919 C920 1.397 . S
C919 C924 1.363 . S
C920 H897 0.950 . S
C920 C919 1.397 . S
C920 C921 1.334 . S
C921 H898 0.950 . S
C921 C920 1.334 . S
C921 C922 1.287 . S
C922 C921 1.287 . S
C922 C923 1.524 . S
C922 H941 0.913 . S
C923 H899 0.950 . S
C923 C922 1.524 . S
C923 C924 1.415 . S
C924 H900 0.950 . S
C924 C919 1.363 . S
C924 C923 1.415 . S
C925 H901 0.951 . S
C925 C926 1.366 . S
C925 C927 1.388 . S
C926 C925 1.366 . S
C926 C930 1.385 . S
C927 H902 0.951 . S
C927 C925 1.388 . S
C927 C928 1.366 . S
C928 C927 1.366 . S
C928 C929 1.414 . S
C928 C931 1.499 . S
C929 H903 0.950 . S
C929 C928 1.414 . S
C929 C930 1.374 . S
C930 H904 0.950 . S
C930 C926 1.385 . S
C930 C929 1.374 . S
C931 C928 1.499 . S
C931 C932 1.373 . S
C931 C933 1.389 . S
C932 H905 0.950 . S
C932 C918 1.377 . S
C932 C931 1.373 . S
C933 C917 1.377 . S
C933 C931 1.389 . S
C933 C934 1.524 . S
C934 C933 1.524 . S
C934 C935 1.397 . S
C934 C939 1.363 . S
C935 H906 0.950 . S
C935 C934 1.397 . S
C935 C936 1.334 . S
C936 H907 0.950 . S
C936 C935 1.334 . S
C936 C937 1.287 . S
C937 C936 1.287 . S
C937 C938 1.524 . S
C937 H940 0.999 . S
C938 H908 0.950 . S
C938 C937 1.524 . S
C938 C939 1.415 . S
C939 H909 0.950 . S
C939 C934 1.363 . S
C939 C938 1.415 . S
H940 C937 0.999 . S
H941 C922 0.913 . S
H942 C960 0.951 . S
H943 C962 0.951 . S
H944 C964 0.950 . S
H945 C965 0.950 . S
H946 C967 0.950 . S
H947 C970 0.950 . S
H948 C971 0.950 . S
H949 C973 0.950 . S
H950 C974 0.950 . S
H951 C975 0.951 . S
H952 C977 0.951 . S
H953 C979 0.950 . S
H954 C980 0.950 . S
H955 C982 0.950 . S
H956 C985 0.950 . S
H957 C986 0.950 . S
H958 C988 0.950 . S
H959 C989 0.950 . S
C960 H942 0.951 . S
C960 C961 1.366 . S
C960 C962 1.388 . S
C961 C960 1.366 . S
C961 C965 1.385 . S
C962 H943 0.951 . S
C962 C960 1.388 . S
C962 C963 1.366 . S
C963 C962 1.366 . S
C963 C964 1.414 . S
C963 C966 1.499 . S
C964 H944 0.950 . S
C964 C963 1.414 . S
C964 C965 1.374 . S
C965 H945 0.950 . S
C965 C961 1.385 . S
C965 C964 1.374 . S
C966 C963 1.499 . S
C966 C967 1.373 . S
C966 C968 1.389 . S
C967 H946 0.950 . S
C967 C966 1.373 . S
C967 C983 1.377 . S
C968 C966 1.389 . S
C968 C969 1.524 . S
C968 C982 1.377 . S
C969 C968 1.524 . S
C969 C970 1.397 . S
C969 C974 1.363 . S
C970 H947 0.950 . S
C970 C969 1.397 . S
C970 C971 1.334 . S
C971 H948 0.950 . S
C971 C970 1.334 . S
C971 C972 1.287 . S
C972 C971 1.287 . S
C972 C973 1.524 . S
C972 H991 0.913 . S
C973 H949 0.950 . S
C973 C972 1.524 . S
C973 C974 1.415 . S
C974 H950 0.950 . S
C974 C969 1.363 . S
C974 C973 1.415 . S
C975 H951 0.951 . S
C975 C976 1.366 . S
C975 C977 1.388 . S
C976 C975 1.366 . S
C976 C980 1.385 . S
C977 H952 0.951 . S
C977 C975 1.388 . S
C977 C978 1.366 . S
C978 C977 1.366 . S
C978 C979 1.414 . S
C978 C981 1.499 . S
C979 H953 0.950 . S
C979 C978 1.414 . S
C979 C980 1.374 . S
C980 H954 0.950 . S
C980 C976 1.385 . S
C980 C979 1.374 . S
C981 C978 1.499 . S
C981 C982 1.373 . S
C981 C983 1.389 . S
C982 H955 0.950 . S
C982 C968 1.377 . S
C982 C981 1.373 . S
C983 C967 1.377 . S
C983 C981 1.389 . S
C983 C984 1.524 . S
C984 C983 1.524 . S
C984 C985 1.397 . S
C984 C989 1.363 . S
C985 H956 0.950 . S
C985 C984 1.397 . S
C985 C986 1.334 . S
C986 H957 0.950 . S
C986 C985 1.334 . S
C986 C987 1.287 . S
C987 C986 1.287 . S
C987 C988 1.524 . S
C987 H990 0.999 . S
C988 H958 0.950 . S
C988 C987 1.524 . S
C988 C989 1.415 . S
C989 H959 0.950 . S
C989 C984 1.363 . S
C989 C988 1.415 . S
H990 C987 0.999 . S
H991 C972 0.913 . S
H992 C1010 0.951 . S
H993 C1012 0.951 . S
H994 C1014 0.950 . S
H995 C1015 0.950 . S
H996 C1017 0.950 . S
H997 C1020 0.950 . S
H998 C1021 0.950 . S
H999 C1023 0.950 . S
H1000 C1024 0.950 . S
H1001 C1025 0.951 . S
H1002 C1027 0.951 . S
H1003 C1029 0.950 . S
H1004 C1030 0.950 . S
H1005 C1032 0.950 . S
H1006 C1035 0.950 . S
H1007 C1036 0.950 . S
H1008 C1038 0.950 . S
H1009 C1039 0.950 . S
C1010 H992 0.951 . S
C1010 C1011 1.366 . S
C1010 C1012 1.388 . S
C1011 C1010 1.366 . S
C1011 C1015 1.385 . S
C1012 H993 0.951 . S
C1012 C1010 1.388 . S
C1012 C1013 1.366 . S
C1013 C1012 1.366 . S
C1013 C1014 1.414 . S
C1013 C1016 1.499 . S
C1014 H994 0.950 . S
C1014 C1013 1.414 . S
C1014 C1015 1.374 . S
C1015 H995 0.950 . S
C1015 C1011 1.385 . S
C1015 C1014 1.374 . S
C1016 C1013 1.499 . S
C1016 C1017 1.373 . S
C1016 C1018 1.389 . S
C1017 H996 0.950 . S
C1017 C1016 1.373 . S
C1017 C1033 1.377 . S
C1018 C1016 1.389 . S
C1018 C1019 1.524 . S
C1018 C1032 1.377 . S
C1019 C1018 1.524 . S
C1019 C1020 1.397 . S
C1019 C1024 1.363 . S
C1020 H997 0.950 . S
C1020 C1019 1.397 . S
C1020 C1021 1.334 . S
C1021 H998 0.950 . S
C1021 C1020 1.334 . S
C1021 C1022 1.287 . S
C1022 C1021 1.287 . S
C1022 C1023 1.524 . S
C1022 H1041 0.913 . S
C1023 H999 0.950 . S
C1023 C1022 1.524 . S
C1023 C1024 1.415 . S
C1024 H1000 0.950 . S
C1024 C1019 1.363 . S
C1024 C1023 1.415 . S
C1025 H1001 0.951 . S
C1025 C1026 1.366 . S
C1025 C1027 1.388 . S
C1026 C1025 1.366 . S
C1026 C1030 1.385 . S
C1027 H1002 0.951 . S
C1027 C1025 1.388 . S
C1027 C1028 1.366 . S
C1028 C1027 1.366 . S
C1028 C1029 1.414 . S
C1028 C1031 1.499 . S
C1029 H1003 0.950 . S
C1029 C1028 1.414 . S
C1029 C1030 1.374 . S
C1030 H1004 0.950 . S
C1030 C1026 1.385 . S
C1030 C1029 1.374 . S
C1031 C1028 1.499 . S
C1031 C1032 1.373 . S
C1031 C1033 1.389 . S
C1032 H1005 0.950 . S
C1032 C1018 1.377 . S
C1032 C1031 1.373 . S
C1033 C1017 1.377 . S
C1033 C1031 1.389 . S
C1033 C1034 1.524 . S
C1034 C1033 1.524 . S
C1034 C1035 1.397 . S
C1034 C1039 1.363 . S
C1035 H1006 0.950 . S
C1035 C1034 1.397 . S
C1035 C1036 1.334 . S
C1036 H1007 0.950 . S
C1036 C1035 1.334 . S
C1036 C1037 1.287 . S
C1037 C1036 1.287 . S
C1037 C1038 1.524 . S
C1037 H1040 0.999 . S
C1038 H1008 0.950 . S
C1038 C1037 1.524 . S
C1038 C1039 1.415 . S
C1039 H1009 0.950 . S
C1039 C1034 1.363 . S
C1039 C1038 1.415 . S
H1040 C1037 0.999 . S
H1041 C1022 0.913 . S
H1042 C1060 0.951 . S
H1043 C1062 0.951 . S
H1044 C1064 0.950 . S
H1045 C1065 0.950 . S
H1046 C1067 0.950 . S
H1047 C1070 0.950 . S
H1048 C1071 0.950 . S
H1049 C1073 0.950 . S
H1050 C1074 0.950 . S
H1051 C1075 0.951 . S
H1052 C1077 0.951 . S
H1053 C1079 0.950 . S
H1054 C1080 0.950 . S
H1055 C1082 0.950 . S
H1056 C1085 0.950 . S
H1057 C1086 0.950 . S
H1058 C1088 0.950 . S
H1059 C1089 0.950 . S
C1060 H1042 0.951 . S
C1060 C1061 1.366 . S
C1060 C1062 1.388 . S
C1061 C1060 1.366 . S
C1061 C1065 1.385 . S
C1062 H1043 0.951 . S
C1062 C1060 1.388 . S
C1062 C1063 1.366 . S
C1063 C1062 1.366 . S
C1063 C1064 1.414 . S
C1063 C1066 1.499 . S
C1064 H1044 0.950 . S
C1064 C1063 1.414 . S
C1064 C1065 1.374 . S
C1065 H1045 0.950 . S
C1065 C1061 1.385 . S
C1065 C1064 1.374 . S
C1066 C1063 1.499 . S
C1066 C1067 1.373 . S
C1066 C1068 1.389 . S
C1067 H1046 0.950 . S
C1067 C1066 1.373 . S
C1067 C1083 1.377 . S
C1068 C1066 1.389 . S
C1068 C1069 1.524 . S
C1068 C1082 1.377 . S
C1069 C1068 1.524 . S
C1069 C1070 1.397 . S
C1069 C1074 1.363 . S
C1070 H1047 0.950 . S
C1070 C1069 1.397 . S
C1070 C1071 1.334 . S
C1071 H1048 0.950 . S
C1071 C1070 1.334 . S
C1071 C1072 1.287 . S
C1072 C1071 1.287 . S
C1072 C1073 1.524 . S
C1072 H1091 0.913 . S
C1073 H1049 0.950 . S
C1073 C1072 1.524 . S
C1073 C1074 1.415 . S
C1074 H1050 0.950 . S
C1074 C1069 1.363 . S
C1074 C1073 1.415 . S
C1075 H1051 0.951 . S
C1075 C1076 1.366 . S
C1075 C1077 1.388 . S
C1076 C1075 1.366 . S
C1076 C1080 1.385 . S
C1077 H1052 0.951 . S
C1077 C1075 1.388 . S
C1077 C1078 1.366 . S
C1078 C1077 1.366 . S
C1078 C1079 1.414 . S
C1078 C1081 1.499 . S
C1079 H1053 0.950 . S
C1079 C1078 1.414 . S
C1079 C1080 1.374 . S
C1080 H1054 0.950 . S
C1080 C1076 1.385 . S
C1080 C1079 1.374 . S
C1081 C1078 1.499 . S
C1081 C1082 1.373 . S
C1081 C1083 1.389 . S
C1082 H1055 0.950 . S
C1082 C1068 1.377 . S
C1082 C1081 1.373 . S
C1083 C1067 1.377 . S
C1083 C1081 1.389 . S
C1083 C1084 1.524 . S
C1084 C1083 1.524 . S
C1084 C1085 1.397 . S
C1084 C1089 1.363 . S
C1085 H1056 0.950 . S
C1085 C1084 1.397 . S
C1085 C1086 1.334 . S
C1086 H1057 0.950 . S
C1086 C1085 1.334 . S
C1086 C1087 1.287 . S
C1087 C1086 1.287 . S
C1087 C1088 1.524 . S
C1087 H1090 0.999 . S
C1088 H1058 0.950 . S
C1088 C1087 1.524 . S
C1088 C1089 1.415 . S
C1089 H1059 0.950 . S
C1089 C1084 1.363 . S
C1089 C1088 1.415 . S
H1090 C1087 0.999 . S
H1091 C1072 0.913 . S
C211 C189 1.357 1_556 S
C226 N13 1.271 . S
C261 C29 1.357 1_556 S
C276 N45 1.269 . S
C311 C61 1.358 1_556 S
C326 N77 1.272 . S
C361 N109 1.270 . S
C376 C93 1.358 1_556 S
C411 N141 1.270 . S
C426 C125 1.357 1_556 S
C461 C157 1.358 1_556 S
C476 N173 1.271 . S
C511 C130 1.531 . S
C526 N18 1.523 1_554 S
C561 C162 1.530 . S
C576 N50 1.523 1_554 S
C611 N82 1.524 1_554 S
C626 C2 1.530 . S
C661 N114 1.524 1_554 S
C676 C34 1.530 . S
C711 N146 1.523 1_554 S
C726 C66 1.530 . S
C761 C98 1.530 . S
C776 N178 1.524 1_554 S
C811 C6 1.514 . S
C826 C4 1.505 . S
C861 C38 1.514 . S
C876 C36 1.505 . S
C911 C70 1.513 . S
C926 C68 1.505 . S
C961 C102 1.514 . S
C976 C100 1.505 . S
C1011 C132 1.505 . S
C1026 C134 1.514 . S
C1061 C166 1.513 . S
C1076 C164 1.504 . S
