# Generated by pormake.
# Topology est, (5)-cn, num edge types: 1
# Building blocks:
#     Node 0, Type 0, BuildingBlock: XOMCOT_clean_sbu_0, # of connection points: 5
#     Node 1, Type 0, BuildingBlock: XOMCOT_clean_sbu_0, # of connection points: 5
#     Node 2, Type 0, BuildingBlock: XOMCOT_clean_sbu_0, # of connection points: 5
#     Node 3, Type 0, BuildingBlock: XOMCOT_clean_sbu_0, # of connection points: 5
#     Edge 4, Type (0, 0), BuildingBlock: MIFKUJ_clean_linker_0, # of connection points: 2
#     Edge 5, Type (0, 0), BuildingBlock: MIFKUJ_clean_linker_0, # of connection points: 2
#     Edge 6, Type (0, 0), BuildingBlock: MIFKUJ_clean_linker_0, # of connection points: 2
#     Edge 7, Type (0, 0), BuildingBlock: MIFKUJ_clean_linker_0, # of connection points: 2
#     Edge 8, Type (0, 0), BuildingBlock: MIFKUJ_clean_linker_0, # of connection points: 2
#     Edge 9, Type (0, 0), BuildingBlock: MIFKUJ_clean_linker_0, # of connection points: 2
#     Edge 10, Type (0, 0), BuildingBlock: MIFKUJ_clean_linker_0, # of connection points: 2
#     Edge 11, Type (0, 0), BuildingBlock: MIFKUJ_clean_linker_0, # of connection points: 2
#     Edge 12, Type (0, 0), BuildingBlock: MIFKUJ_clean_linker_0, # of connection points: 2
#     Edge 13, Type (0, 0), BuildingBlock: MIFKUJ_clean_linker_0, # of connection points: 2
# Relax obj value: 0.174
# Max RMSD: 0.241
# Mean RMSD: 0.241
data_MOF--net-est--node1-XOMCOT_clean_sbu_0--edge1-MIFKUJ_clean_linker_0
_symmetry_space_group_name_H-M    P1
_symmetry_Int_Tables_number       1
_symmetry_cell_setting            triclinic
loop_
_symmetry_equiv_pos_as_xyz
'x, y, z'
_cell_length_a     21.3807
_cell_length_b     21.63639
_cell_length_c     67.907116
_cell_angle_alpha  90.172047
_cell_angle_beta   91.957426
_cell_angle_gamma 89.979791
loop_
_atom_site_label
_atom_site_type_symbol
_atom_site_fract_x
_atom_site_fract_y
_atom_site_fract_z
_atom_type_partial_charge
Co0 Co 0.28558 0.19759 0.58193 0.0
C1 C 0.15159 0.23192 0.58084 0.0
C2 C 0.20178 0.27864 0.55865 0.0
C3 C 0.13869 0.28673 0.55473 0.0
N4 N 0.21024 0.24485 0.57525 0.0
N5 N 0.10739 0.25707 0.56872 0.0
H6 H 0.1406 0.19799 0.59177 0.0
H7 H 0.23849 0.29113 0.54885 0.0
C8 C 0.33365 0.32573 0.57531 0.0
O9 O 0.28838 0.34842 0.58577 0.0
N10 N 0.3598 0.14972 0.5877 0.0
C11 C 0.37041 0.11142 0.60305 0.0
C12 C 0.43275 0.09487 0.60355 0.0
C13 C 0.4149 0.15497 0.57884 0.0
N14 N 0.46042 0.12245 0.58832 0.0
C15 C 0.24199 0.21148 0.62154 0.0
C16 C 0.348 0.27015 0.63669 0.0
C17 C 0.2995 0.2566 0.64928 0.0
C18 C 0.24579 0.22731 0.64152 0.0
C19 C 0.34163 0.25497 0.6167 0.0
N20 N 0.28852 0.22702 0.60918 0.0
H21 H 0.20315 0.18372 0.61638 0.0
H22 H 0.38094 0.26311 0.6075 0.0
H23 H 0.33614 0.09927 0.61374 0.0
H24 H 0.42251 0.18515 0.56647 0.0
O25 O 0.23437 0.12435 0.58445 0.0
O26 O 0.27573 0.15721 0.55685 0.0
O27 O 0.33946 0.26751 0.57306 0.0
C28 C 0.23976 0.11798 0.56547 0.0
H29 H 0.11754 0.30883 0.54186 0.0
H30 H 0.45638 0.06668 0.61465 0.0
H31 H 0.39092 0.29135 0.64232 0.0
H32 H 0.20842 0.21401 0.65102 0.0
Co33 Co 0.71737 0.69572 0.07629 0.0
C34 C 0.67856 0.56352 0.07691 0.0
C35 C 0.64678 0.61033 0.05071 0.0
C36 C 0.63368 0.54849 0.04854 0.0
N37 N 0.67411 0.62012 0.06862 0.0
N38 N 0.65399 0.51878 0.06499 0.0
H39 H 0.7025 0.55456 0.0908 0.0
H40 H 0.64033 0.64533 0.03948 0.0
C41 C 0.58391 0.7394 0.06581 0.0
O42 O 0.55722 0.68624 0.06948 0.0
N43 N 0.76035 0.77127 0.08315 0.0
C44 C 0.7966 0.78428 0.09923 0.0
C45 C 0.80639 0.84737 0.09993 0.0
C46 C 0.74982 0.82566 0.07413 0.0
N47 N 0.77614 0.87325 0.08422 0.0
C48 C 0.72509 0.64889 0.1157 0.0
C49 C 0.64009 0.72907 0.13175 0.0
C50 C 0.67385 0.68893 0.14435 0.0
C51 C 0.71629 0.64798 0.13597 0.0
C52 C 0.65046 0.72866 0.11151 0.0
N53 N 0.69221 0.68845 0.1036 0.0
H54 H 0.76089 0.61948 0.10994 0.0
H55 H 0.627 0.76321 0.10261 0.0
H56 H 0.81153 0.75104 0.11028 0.0
H57 H 0.72083 0.83045 0.06086 0.0
O58 O 0.79572 0.65098 0.0779 0.0
O59 O 0.75593 0.69596 0.05101 0.0
O60 O 0.64264 0.74735 0.06837 0.0
C61 C 0.80059 0.66342 0.05928 0.0
H62 H 0.61499 0.52676 0.03523 0.0
H63 H 0.83015 0.87247 0.11179 0.0
H64 H 0.60692 0.76176 0.1375 0.0
H65 H 0.74496 0.61739 0.14508 0.0
Co66 Co 0.70723 0.79197 0.42428 0.0
C67 C 0.84103 0.75736 0.42513 0.0
C68 C 0.79133 0.71247 0.44783 0.0
C69 C 0.85444 0.70453 0.45166 0.0
N70 N 0.78259 0.74513 0.43102 0.0
N71 N 0.88547 0.73316 0.43739 0.0
H72 H 0.85162 0.78997 0.41377 0.0
H73 H 0.75476 0.70068 0.45777 0.0
C74 C 0.66102 0.6629 0.4307 0.0
O75 O 0.70759 0.64076 0.42069 0.0
N76 N 0.63283 0.8393 0.41838 0.0
C77 C 0.62235 0.87804 0.40313 0.0
C78 C 0.56005 0.89469 0.40266 0.0
C79 C 0.5777 0.83377 0.42719 0.0
N80 N 0.53227 0.86667 0.4178 0.0
C81 C 0.75104 0.7856 0.38469 0.0
C82 C 0.65137 0.71853 0.36889 0.0
C83 C 0.69792 0.73852 0.35634 0.0
C84 C 0.74837 0.7723 0.36452 0.0
C85 C 0.656 0.73261 0.38899 0.0
N86 N 0.7063 0.76438 0.39684 0.0
H87 H 0.78732 0.81609 0.39019 0.0
H88 H 0.61734 0.72031 0.39799 0.0
H89 H 0.65676 0.89075 0.39256 0.0
H90 H 0.57005 0.80335 0.43949 0.0
O91 O 0.75791 0.86578 0.42244 0.0
O92 O 0.71553 0.83113 0.44964 0.0
O93 O 0.65361 0.72107 0.43259 0.0
C94 C 0.75172 0.87104 0.44141 0.0
H95 H 0.8758 0.68331 0.46464 0.0
H96 H 0.53656 0.92343 0.39169 0.0
H97 H 0.61096 0.69321 0.36319 0.0
H98 H 0.78405 0.79099 0.35529 0.0
Co99 Co 0.29764 0.2866 0.92822 0.0
C100 C 0.33257 0.41826 0.92943 0.0
C101 C 0.35353 0.37295 0.95686 0.0
C102 C 0.36151 0.43531 0.95956 0.0
N103 N 0.33614 0.36205 0.9379 0.0
N104 N 0.34787 0.46407 0.94233 0.0
H105 H 0.31508 0.4256 0.91454 0.0
H106 H 0.35635 0.33822 0.96828 0.0
C107 C 0.43013 0.24658 0.94111 0.0
O108 O 0.45206 0.30288 0.9433 0.0
N109 N 0.25845 0.21146 0.91919 0.0
C110 C 0.21686 0.20154 0.90417 0.0
C111 C 0.20762 0.13862 0.90231 0.0
C112 C 0.27248 0.15548 0.92652 0.0
N113 N 0.2431 0.10997 0.91637 0.0
C114 C 0.27466 0.33471 0.8895 0.0
C115 C 0.38216 0.29178 0.87272 0.0
C116 C 0.33532 0.31838 0.86044 0.0
C117 C 0.28158 0.34107 0.86928 0.0
C118 C 0.37302 0.28558 0.89296 0.0
N119 N 0.31897 0.3056 0.9011 0.0
H120 H 0.23185 0.35107 0.89563 0.0
H121 H 0.40915 0.26312 0.90171 0.0
H122 H 0.19565 0.23699 0.89498 0.0
H123 H 0.30567 0.1482 0.93864 0.0
O124 O 0.21681 0.32637 0.92913 0.0
O125 O 0.26246 0.27435 0.95373 0.0
O126 O 0.37574 0.23663 0.93351 0.0
C127 C 0.21508 0.30671 0.94718 0.0
H128 H 0.3718 0.45767 0.97356 0.0
H129 H 0.17789 0.1159 0.89129 0.0
H130 H 0.42523 0.27479 0.86675 0.0
H131 H 0.24344 0.36123 0.86059 0.0
H132 H 0.02908 0.23618 0.53709 0.0
H133 H 0.9186 0.20584 0.53778 0.0
H134 H 0.92711 0.21589 0.6013 0.0
H135 H 0.03752 0.24508 0.60062 0.0
H136 H 0.86985 0.11232 0.58868 0.0
H137 H 0.86053 0.33031 0.57218 0.0
H138 H 0.88389 0.42077 0.55168 0.0
H139 H 0.78844 0.33588 0.50196 0.0
H140 H 0.76514 0.24468 0.52209 0.0
H141 H 0.55502 0.12592 0.61566 0.0
H142 H 0.66578 0.14227 0.60982 0.0
H143 H 0.62583 0.14335 0.54706 0.0
H144 H 0.5143 0.12912 0.55301 0.0
H145 H 0.69978 0.23348 0.55567 0.0
H146 H 0.70099 0.01997 0.57181 0.0
H147 H 0.68029 0.926 0.59089 0.0
H148 H 0.79086 -0.00242 0.63975 0.0
H149 H 0.81171 0.09245 0.62105 0.0
C150 C 0.00697 0.23281 0.55115 0.0
C151 C 0.04153 0.24353 0.56883 0.0
C152 C 0.94402 0.21524 0.55153 0.0
C153 C 0.91448 0.20913 0.56959 0.0
C154 C 0.94898 0.22015 0.58721 0.0
C155 C 0.01187 0.23703 0.58682 0.0
C156 C 0.84773 0.19094 0.57039 0.0
C157 C 0.83252 0.13916 0.58166 0.0
C158 C 0.79932 0.22452 0.56053 0.0
C159 C 0.8121 0.28009 0.54856 0.0
C160 C 0.84498 0.33069 0.55683 0.0
C161 C 0.85814 0.38216 0.54528 0.0
C162 C 0.83815 0.38381 0.52548 0.0
C163 C 0.80428 0.33435 0.51726 0.0
C164 C 0.79109 0.28275 0.52873 0.0
C165 C 0.57007 0.12851 0.60062 0.0
C166 C 0.52625 0.12586 0.58477 0.0
C167 C 0.63342 0.13785 0.59727 0.0
C168 C 0.65448 0.14322 0.57797 0.0
C169 C 0.6108 0.13941 0.56208 0.0
C170 C 0.54723 0.13112 0.56546 0.0
C171 C 0.72154 0.15573 0.57449 0.0
C172 C 0.73692 0.2063 0.56265 0.0
C173 C 0.7702 0.12071 0.58372 0.0
C174 C 0.75764 0.06362 0.59503 0.0
C175 C 0.72067 0.01592 0.58665 0.0
C176 C 0.70892 0.96243 0.5974 0.0
C177 C 0.73416 0.95585 0.61653 0.0
C178 C 0.77132 0.00274 0.62493 0.0
C179 C 0.78319 0.05636 0.61425 0.0
H180 H 0.725 0.9144 0.62483 0.0
H181 H 0.84868 0.42353 0.51653 0.0
H182 H 0.73199 0.45538 0.09047 0.0
H183 H 0.74847 0.34407 0.09141 0.0
H184 H 0.60258 0.31838 0.04689 0.0
H185 H 0.58556 0.4301 0.04557 0.0
H186 H 0.61139 0.23838 0.08678 0.0
H187 H 0.70319 0.29399 0.02724 0.0
H188 H 0.76769 0.34244 1.00225 0.0
H189 H 0.93464 0.28838 0.03463 0.0
H190 H 0.87106 0.24224 0.06037 0.0
H191 H 0.67582 0.92387 0.06469 0.0
H192 H 0.65218 0.03292 0.06059 0.0
H193 H 0.82418 0.08032 0.09205 0.0
H194 H 0.84874 0.97022 0.09613 0.0
H195 H 0.79842 0.14809 0.0563 0.0
H196 H 0.69422 0.09027 0.11611 0.0
H197 H 0.62339 0.02395 0.13468 0.0
H198 H 0.47133 0.06889 0.0943 0.0
H199 H 0.5415 0.13499 0.07536 0.0
C200 C 0.7026 0.4266 0.08099 0.0
C201 C 0.65841 0.45252 0.06754 0.0
C202 C 0.71285 0.36282 0.08139 0.0
C203 C 0.67829 0.32361 0.06872 0.0
C204 C 0.63095 0.34837 0.05636 0.0
C205 C 0.62143 0.41229 0.05564 0.0
C206 C 0.69083 0.25654 0.06901 0.0
C207 C 0.65189 0.21852 0.07992 0.0
C208 C 0.74377 0.23087 0.06005 0.0
C209 C 0.78208 0.26596 0.04606 0.0
C210 C 0.75353 0.29441 0.02946 0.0
C211 C 0.79001 0.32092 0.01503 0.0
C212 C 0.85522 0.31835 0.01682 0.0
C213 C 0.8841 0.29019 0.03323 0.0
C214 C 0.84783 0.26436 0.04784 0.0
C215 C 0.70918 0.95707 0.07058 0.0
C216 C 0.76422 0.93802 0.08084 0.0
C217 C 0.69523 0.01958 0.06833 0.0
C218 C 0.73605 0.06447 0.07624 0.0
C219 C 0.79193 0.04608 0.08597 0.0
C220 C 0.80574 0.9833 0.08837 0.0
C221 C 0.72004 0.13066 0.0744 0.0
C222 C 0.75835 0.16841 0.06327 0.0
C223 C 0.66564 0.15565 0.08261 0.0
C224 C 0.62313 0.1173 0.09429 0.0
C225 C 0.64572 0.08583 0.11116 0.0
C226 C 0.60571 0.0483 0.12175 0.0
C227 C 0.54292 0.04216 0.11566 0.0
C228 C 0.51997 0.07372 0.099 0.0
C229 C 0.5598 0.11132 0.08836 0.0
H230 H 0.51204 0.013 0.12386 0.0
H231 H 0.88341 0.33847 0.00555 0.0
H232 H 0.4373 0.86584 0.39057 0.0
H233 H 0.32649 0.85015 0.39645 0.0
H234 H 0.36721 0.84478 0.45914 0.0
H235 H 0.47876 0.85848 0.45315 0.0
H236 H 0.29274 0.75549 0.45 0.0
H237 H 0.29143 0.97003 0.43577 0.0
H238 H 0.31259 0.06574 0.4176 0.0
H239 H 0.2031 -0.00152 0.36788 0.0
H240 H 0.18185 0.90192 0.38565 0.0
H241 H 0.96399 0.75427 0.46894 0.0
H242 H 0.0744 0.78448 0.4682 0.0
H243 H 0.06546 0.77505 0.40468 0.0
H244 H 0.95509 0.74559 0.4054 0.0
H245 H 0.123 0.8793 0.41786 0.0
H246 H 0.13161 0.66025 0.4329 0.0
H247 H 0.10764 0.5687 0.45283 0.0
H248 H 0.20328 0.65016 0.5031 0.0
H249 H 0.22716 0.74246 0.48355 0.0
C250 C 0.42243 0.86246 0.4056 0.0
C251 C 0.46647 0.86369 0.42141 0.0
C252 C 0.35905 0.85351 0.40898 0.0
C253 C 0.33822 0.84706 0.42827 0.0
C254 C 0.3821 0.84954 0.44413 0.0
C255 C 0.44568 0.8575 0.44072 0.0
C256 C 0.27118 0.8346 0.43174 0.0
C257 C 0.25569 0.78325 0.44322 0.0
C258 C 0.22263 0.8704 0.42279 0.0
C259 C 0.23539 0.92845 0.41202 0.0
C260 C 0.27216 0.97541 0.42092 0.0
C261 C 0.28413 0.02987 0.41069 0.0
C262 C 0.25931 0.03814 0.39159 0.0
C263 C 0.22233 0.992 0.38268 0.0
C264 C 0.21024 0.93741 0.39283 0.0
C265 C 0.98594 0.7577 0.45486 0.0
C266 C 0.95126 0.74698 0.4372 0.0
C267 C 0.04884 0.77524 0.45445 0.0
C268 C 0.07822 0.78147 0.43638 0.0
C269 C 0.04364 0.77064 0.41877 0.0
C270 C 0.98078 0.75364 0.41918 0.0
C271 C 0.14496 0.79943 0.4356 0.0
C272 C 0.16027 0.85191 0.42468 0.0
C273 C 0.19324 0.76508 0.44524 0.0
C274 C 0.18021 0.70882 0.45685 0.0
C275 C 0.14709 0.65888 0.44825 0.0
C276 C 0.13358 0.60679 0.45947 0.0
C277 C 0.15345 0.60387 0.47927 0.0
C278 C 0.18755 0.65267 0.48781 0.0
C279 C 0.20108 0.70489 0.47666 0.0
H280 H 0.14263 0.56368 0.48797 0.0
H281 H 0.26864 0.08035 0.38369 0.0
H282 H 0.2855 0.05228 0.94967 0.0
H283 H 0.31191 0.94352 0.9533 0.0
H284 H 0.2519 0.90993 0.89297 0.0
H285 H 0.22709 0.01953 0.88887 0.0
H286 H 0.19815 0.8337 0.92193 0.0
H287 H 0.4014 0.91185 0.90493 0.0
H288 H 0.49493 0.97764 0.90932 0.0
H289 H 0.53282 0.89901 0.96647 0.0
H290 H 0.43962 0.83266 0.96243 0.0
H291 H 0.2842 0.52308 0.91227 0.0
H292 H 0.26713 0.63333 0.90883 0.0
H293 H 0.37518 0.66625 0.96265 0.0
H294 H 0.39514 0.55612 0.96581 0.0
H295 H 0.40773 0.74509 0.93762 0.0
H296 H 0.20693 0.69917 0.96242 0.0
H297 H 0.10046 0.6595 0.96748 0.0
H298 H 0.05273 0.68728 0.90622 0.0
H299 H 0.15849 0.7285 0.90093 0.0
C300 C 0.2787 0.02222 0.93702 0.0
C301 C 0.25437 0.04489 0.9189 0.0
C302 C 0.29407 0.96005 0.93916 0.0
C303 C 0.285 0.91933 0.9233 0.0
C304 C 0.25981 0.9412 0.9053 0.0
C305 C 0.2449 0.0036 0.90307 0.0
C306 C 0.29633 0.85282 0.92602 0.0
C307 C 0.24417 0.81392 0.92493 0.0
C308 C 0.35595 0.82837 0.93125 0.0
C309 C 0.41266 0.86792 0.9335 0.0
C310 C 0.42926 0.90891 0.91851 0.0
C311 C 0.48255 0.94602 0.92088 0.0
C312 C 0.51991 0.94235 0.93813 0.0
C313 C 0.50406 0.90158 0.95306 0.0
C314 C 0.45104 0.86413 0.95071 0.0
C315 C 0.30522 0.55332 0.92331 0.0
C316 C 0.34086 0.52987 0.93944 0.0
C317 C 0.29431 0.61665 0.92148 0.0
C318 C 0.31872 0.65801 0.9357 0.0
C319 C 0.35534 0.63513 0.95158 0.0
C320 C 0.36649 0.57186 0.95339 0.0
C321 C 0.30927 0.72537 0.9333 0.0
C322 C 0.36173 0.76455 0.93446 0.0
C323 C 0.24951 0.75094 0.92907 0.0
C324 C 0.19072 0.71601 0.93124 0.0
C325 C 0.17409 0.6956 0.94997 0.0
C326 C 0.11358 0.6739 0.95294 0.0
C327 C 0.06971 0.67154 0.93722 0.0
C328 C 0.08663 0.68959 0.9184 0.0
C329 C 0.14676 0.71224 0.91542 0.0
H330 H 0.02274 0.65517 0.93959 0.0
H331 H 0.56096 0.97132 0.93996 0.0
H332 H 0.39024 0.23204 0.83666 0.0
H333 H 0.38995 0.22931 0.8007 0.0
H334 H 0.28755 0.40076 0.79825 0.0
H335 H 0.2906 0.40618 0.83419 0.0
H336 H 0.23463 0.29362 0.77516 0.0
H337 H 0.42408 0.41268 0.78619 0.0
H338 H 0.529 0.43197 0.80113 0.0
H339 H 0.59706 0.26502 0.77503 0.0
H340 H 0.49222 0.24427 0.76017 0.0
H341 H 0.22783 0.33105 0.67177 0.0
H342 H 0.23854 0.34892 0.70739 0.0
H343 H 0.39568 0.22336 0.71057 0.0
H344 H 0.38721 0.2089 0.67479 0.0
H345 H 0.42099 0.31046 0.73396 0.0
H346 H 0.23844 0.18469 0.72434 0.0
H347 H 0.13463 0.15506 0.71044 0.0
H348 H 0.05425 0.31898 0.73486 0.0
H349 H 0.15779 0.35002 0.7487 0.0
C350 C 0.36908 0.27018 0.82859 0.0
C351 C 0.34014 0.31922 0.83852 0.0
C352 C 0.36851 0.26815 0.80798 0.0
C353 C 0.33841 0.31464 0.79687 0.0
C354 C 0.31059 0.3642 0.80661 0.0
C355 C 0.3121 0.3669 0.82719 0.0
C356 C 0.33378 0.31018 0.77509 0.0
C357 C 0.2751 0.29819 0.76606 0.0
C358 C 0.38703 0.31397 0.76341 0.0
C359 C 0.45015 0.32662 0.77223 0.0
C360 C 0.46126 0.37979 0.78378 0.0
C361 C 0.52076 0.39105 0.79221 0.0
C362 C 0.56963 0.34966 0.78908 0.0
C363 C 0.55914 0.29701 0.77747 0.0
C364 C 0.49971 0.28551 0.76902 0.0
C365 C 0.2648 0.30774 0.68015 0.0
C366 C 0.30667 0.26862 0.67068 0.0
C367 C 0.27067 0.31748 0.70051 0.0
C368 C 0.3171 0.28644 0.71188 0.0
C369 C 0.35945 0.24792 0.70225 0.0
C370 C 0.35457 0.23949 0.68183 0.0
C371 C 0.32147 0.29363 0.73375 0.0
C372 C 0.38019 0.30601 0.7429 0.0
C373 C 0.26836 0.28861 0.74562 0.0
C374 C 0.20599 0.26999 0.73738 0.0
C375 C 0.1987 0.21463 0.72663 0.0
C376 C 0.13991 0.19756 0.71878 0.0
C377 C 0.08792 0.2352 0.72172 0.0
C378 C 0.09459 0.28992 0.73257 0.0
C379 C 0.1533 0.30726 0.74043 0.0
H380 H 0.04243 0.2219 0.71563 0.0
H381 H 0.61566 0.35846 0.79561 0.0
H382 H 0.67678 0.59366 0.17106 0.0
H383 H 0.67682 0.60074 0.20696 0.0
H384 H 0.65693 0.79878 0.20308 0.0
H385 H 0.66009 0.79245 0.16725 0.0
H386 H 0.74207 0.77236 0.22997 0.0
H387 H 0.53333 0.70236 0.21528 0.0
H388 H 0.45174 0.6345 0.20049 0.0
H389 H 0.52676 0.48031 0.23322 0.0
H390 H 0.60933 0.54711 0.24802 0.0
H391 H 0.59266 0.74855 0.3324 0.0
H392 H 0.58434 0.7378 0.29657 0.0
H393 H 0.78112 0.69449 0.29533 0.0
H394 H 0.78983 0.70539 0.3312 0.0
H395 H 0.60292 0.647 0.27107 0.0
H396 H 0.84218 0.75685 0.25443 0.0
H397 H 0.91656 0.83243 0.26918 0.0
H398 H 0.76669 0.92148 0.2988 0.0
H399 H 0.69134 0.84701 0.28401 0.0
C400 C 0.67259 0.6388 0.17782 0.0
C401 C 0.6684 0.69247 0.16617 0.0
C402 C 0.67196 0.6427 0.19838 0.0
C403 C 0.6663 0.70026 0.20778 0.0
C404 C 0.66125 0.75381 0.1962 0.0
C405 C 0.6623 0.75001 0.17565 0.0
C406 C 0.66782 0.70499 0.22967 0.0
C407 C 0.71158 0.7449 0.23892 0.0
C408 C 0.62757 0.66987 0.24144 0.0
C409 C 0.57784 0.62963 0.23262 0.0
C410 C 0.53269 0.65389 0.21922 0.0
C411 C 0.48623 0.61563 0.21085 0.0
C412 C 0.48416 0.5531 0.21587 0.0
C413 C 0.52846 0.52874 0.22932 0.0
C414 C 0.57506 0.56679 0.23772 0.0
C415 C 0.63402 0.73587 0.32455 0.0
C416 C 0.692 0.72806 0.33467 0.0
C417 C 0.6292 0.72989 0.30404 0.0
C418 C 0.68222 0.71612 0.2932 0.0
C419 C 0.73977 0.7063 0.30333 0.0
C420 C 0.7447 0.71257 0.32383 0.0
C421 C 0.67762 0.71379 0.2713 0.0
C422 C 0.63343 0.6743 0.26208 0.0
C423 C 0.71649 0.75033 0.25952 0.0
C424 C 0.76128 0.79593 0.26827 0.0
C425 C 0.82509 0.79271 0.26403 0.0
C426 C 0.86741 0.83534 0.2724 0.0
C427 C 0.84639 0.8816 0.28497 0.0
C428 C 0.78295 0.88549 0.28912 0.0
C429 C 0.74043 0.84305 0.28076 0.0
H430 H 0.87924 0.9145 0.29146 0.0
H431 H 0.44815 0.52356 0.20938 0.0
H432 H 0.30454 0.44089 0.56135 0.0
H433 H 0.36123 0.4994 0.53675 0.0
H434 H 0.50604 0.36048 0.53753 0.0
H435 H 0.44956 0.30168 0.56195 0.0
H436 H 0.55226 0.48181 0.53554 0.0
H437 H 0.39733 0.35139 0.50414 0.0
H438 H 0.29147 0.30958 0.49758 0.0
H439 H 0.2273 0.48847 0.47868 0.0
H440 H 0.33228 0.53203 0.4858 0.0
H441 H 0.69098 0.54809 0.44482 0.0
H442 H 0.63442 0.48926 0.46936 0.0
H443 H 0.48815 0.62669 0.46814 0.0
H444 H 0.54441 0.68576 0.44375 0.0
H445 H 0.44269 0.50604 0.47037 0.0
H446 H 0.5972 0.63662 0.5017 0.0
H447 H 0.7028 0.67894 0.50836 0.0
H448 H 0.76751 0.50051 0.52754 0.0
H449 H 0.66282 0.45641 0.5203 0.0
C450 C 0.34917 0.42363 0.55661 0.0
C451 C 0.37251 0.36661 0.56344 0.0
C452 C 0.38123 0.45682 0.54248 0.0
C453 C 0.43731 0.43372 0.53517 0.0
C454 C 0.46272 0.3789 0.54295 0.0
C455 C 0.43034 0.34535 0.55685 0.0
C456 C 0.46742 0.46422 0.51848 0.0
C457 C 0.52865 0.48657 0.52123 0.0
C458 C 0.436 0.47106 0.49992 0.0
C459 C 0.37255 0.44519 0.4958 0.0
C460 C 0.36045 0.38209 0.49888 0.0
C461 C 0.30056 0.35807 0.49506 0.0
C462 C 0.25256 0.39648 0.48785 0.0
C463 C 0.26438 0.45897 0.48443 0.0
C464 C 0.32405 0.48337 0.48839 0.0
C465 C 0.64607 0.56495 0.44944 0.0
C466 C 0.62225 0.62166 0.4425 0.0
C467 C 0.61407 0.53157 0.46354 0.0
C468 C 0.55763 0.5542 0.47073 0.0
C469 C 0.53177 0.60864 0.46283 0.0
C470 C 0.56403 0.64235 0.44894 0.0
C471 C 0.52756 0.52363 0.48743 0.0
C472 C 0.46634 0.50127 0.48468 0.0
C473 C 0.55897 0.51684 0.506 0.0
C474 C 0.62228 0.54299 0.51016 0.0
C475 C 0.63415 0.60611 0.50703 0.0
C476 C 0.69388 0.63043 0.51092 0.0
C477 C 0.74196 0.59229 0.51823 0.0
C478 C 0.73037 0.52979 0.52169 0.0
C479 C 0.67086 0.50509 0.51767 0.0
H480 H 0.78812 0.61124 0.52131 0.0
H481 H 0.20627 0.37776 0.48482 0.0
H482 H 0.50427 0.2502 0.97464 0.0
H483 H 0.52871 0.1633 0.99642 0.0
H484 H 0.44535 0.03778 0.95352 0.0
H485 H 0.4204 0.1245 0.93186 0.0
H486 H 0.40059 0.01403 0.98664 0.0
H487 H 0.6125 0.0457 0.96645 0.0
H488 H 0.70762 0.10683 0.96088 0.0
H489 H 0.7217 0.1532 0.02235 0.0
H490 H 0.62633 0.09292 0.02831 0.0
H491 H 0.50818 0.73383 0.0328 0.0
H492 H 0.47744 0.8218 0.01193 0.0
H493 H 0.55268 0.94741 0.05623 0.0
H494 H 0.58531 0.85943 0.07666 0.0
H495 H 0.60126 0.97165 0.02277 0.0
H496 H 0.3934 0.93542 0.04356 0.0
H497 H 0.29755 0.87588 0.04938 0.0
H498 H 0.27387 0.84035 0.98731 0.0
H499 H 0.36986 0.89913 0.9812 0.0
C500 C 0.49346 0.20382 0.96953 0.0
C501 C 0.46059 0.19417 0.95152 0.0
C502 C 0.50725 0.15399 0.98204 0.0
C503 C 0.48961 0.09349 0.97658 0.0
C504 C 0.46002 0.08368 0.95806 0.0
C505 C 0.44592 0.13337 0.94564 0.0
C506 C 0.49721 0.04122 0.9907 0.0
C507 C 0.44481 0.00411 0.99429 0.0
C508 C 0.55418 0.02946 1.00126 0.0
C509 C 0.61202 0.06511 0.99778 0.0
C510 C 0.63574 0.06917 0.97877 0.0
C511 C 0.68972 0.10365 0.97556 0.0
C512 C 0.7206 0.13399 0.99126 0.0
C513 C 0.69772 0.12969 0.01023 0.0
C514 C 0.64378 0.09527 0.01354 0.0
C515 C 0.51585 0.78033 0.03834 0.0
C516 C 0.54872 0.79019 0.0563 0.0
C517 C 0.4986 0.83062 0.02639 0.0
C518 C 0.51301 0.89139 0.03245 0.0
C519 C 0.54154 0.90106 0.05114 0.0
C520 C 0.55963 0.8509 0.06288 0.0
C521 C 0.50472 0.9442 0.01863 0.0
C522 C 0.55702 0.98143 0.0151 0.0
C523 C 0.44758 0.9561 0.00819 0.0
C524 C 0.38958 0.92083 0.01192 0.0
C525 C 0.36818 0.91435 0.03117 0.0
C526 C 0.31365 0.88089 0.03453 0.0
C527 C 0.27978 0.85408 0.01875 0.0
C528 C 0.30022 0.86092 0.99955 0.0
C529 C 0.3547 0.89431 0.99613 0.0
H530 H 0.23758 0.82821 0.02138 0.0
H531 H 0.76231 0.16079 0.98875 0.0
H532 H 0.7499 0.88799 0.48108 0.0
H533 H 0.83299 0.93167 0.50219 0.0
H534 H 0.93318 0.98562 0.45089 0.0
H535 H 0.85059 0.94027 0.42959 0.0
H536 H 0.00669 0.92185 0.4755 0.0
H537 H 0.87134 0.09915 0.48297 0.0
H538 H 0.7704 0.1497 0.48928 0.0
H539 H 0.76719 0.06372 0.54607 0.0
H540 H 0.86877 0.01413 0.54039 0.0
H541 H 0.24099 0.09853 0.52594 0.0
H542 H 0.15775 0.05374 0.50521 0.0
H543 H 0.05825 0.00265 0.55695 0.0
H544 H 0.14095 0.04954 0.57788 0.0
H545 H 0.98417 0.06409 0.53227 0.0
H546 H 0.12109 0.88782 0.5248 0.0
H547 H 0.22203 0.83764 0.51822 0.0
H548 H 0.22249 0.92208 0.46115 0.0
H549 H 0.12092 0.97131 0.46711 0.0
C550 C 0.78876 0.91063 0.47425 0.0
C551 C 0.7937 0.91066 0.45366 0.0
C552 C 0.83626 0.93578 0.48637 0.0
C553 C 0.88929 0.9622 0.47815 0.0
C554 C 0.89267 0.96544 0.45755 0.0
C555 C 0.84517 0.94001 0.44539 0.0
C556 C 0.94353 0.9808 0.49104 0.0
C557 C 0.00197 0.95376 0.48772 0.0
C558 C 0.93709 0.02077 0.50737 0.0
C559 C 0.87734 0.05262 0.51118 0.0
C560 C 0.84913 0.09127 0.49684 0.0
C561 C 0.79197 0.11997 0.50036 0.0
C562 C 0.76245 0.11003 0.51811 0.0
C563 C 0.79038 0.07193 0.53246 0.0
C564 C 0.84792 0.04381 0.52915 0.0
C565 C 0.20224 0.07632 0.53297 0.0
C566 C 0.19752 0.07762 0.55356 0.0
C567 C 0.15466 0.05044 0.52106 0.0
C568 C 0.1018 0.02441 0.52949 0.0
C569 C 0.09865 0.02246 0.55012 0.0
C570 C 0.14619 0.04877 0.56207 0.0
C571 C 0.04743 0.00516 0.51674 0.0
C572 C 0.98892 0.03209 0.52007 0.0
C573 C 0.05385 0.96513 0.50041 0.0
C574 C 0.1137 0.93357 0.49647 0.0
C575 C 0.14269 0.89546 0.51081 0.0
C576 C 0.19986 0.86695 0.50714 0.0
C577 C 0.2286 0.87656 0.48924 0.0
C578 C 0.1999 0.91412 0.47489 0.0
C579 C 0.14237 0.94204 0.47836 0.0
H580 H 0.27311 0.85491 0.48646 0.0
H581 H 0.71794 0.13184 0.52077 0.0
H582 H 0.80335 0.65157 0.01938 0.0
H583 H 0.87788 0.5914 1.00067 0.0
H584 H 0.98739 0.55707 0.05408 0.0
H585 H 0.91154 0.6151 0.07299 0.0
H586 H 0.00081 0.58551 0.99279 0.0
H587 H 0.02704 0.40477 0.05558 0.0
H588 H 0.96944 0.37252 0.08474 0.0
H589 H 0.79746 0.43519 0.05695 0.0
H590 H 0.85334 0.4664 0.02783 0.0
H591 H 0.2238 0.32105 0.98693 0.0
H592 H 0.14926 0.37519 0.00747 0.0
H593 H 0.01954 0.38875 0.95762 0.0
H594 H 0.0953 0.33778 0.93676 0.0
H595 H 0.01708 0.36927 0.01711 0.0
H596 H 0.9895 0.51372 0.9508 0.0
H597 H 0.04856 0.52743 0.92045 0.0
H598 H 0.22103 0.52937 0.95478 0.0
H599 H 0.16318 0.51401 0.98506 0.0
C600 C 0.84395 0.63214 0.02708 0.0
C601 C 0.85113 0.63691 0.04768 0.0
C602 C 0.8867 0.59808 0.01634 0.0
C603 C 0.93748 0.56873 0.02603 0.0
C604 C 0.9478 0.57836 0.04636 0.0
C605 C 0.90445 0.61141 0.05716 0.0
C606 C 0.97428 0.52176 0.01545 0.0
C607 C 0.00385 0.53834 0.9981 0.0
C608 C 0.97877 0.45993 0.02231 0.0
C609 C 0.94456 0.43876 0.03965 0.0
C610 C 0.97683 0.41136 0.05575 0.0
C611 C 0.94442 0.39329 0.07232 0.0
C612 C 0.87977 0.40227 0.07289 0.0
C613 C 0.8474 0.42873 0.0568 0.0
C614 C 0.87944 0.44665 0.04024 0.0
C615 C 0.17873 0.33432 0.98049 0.0
C616 C 0.16547 0.32646 0.96023 0.0
C617 C 0.13615 0.36488 0.99226 0.0
C618 C 0.07961 0.38693 0.98393 0.0
C619 C 0.06361 0.37307 0.96418 0.0
C620 C 0.10678 0.34408 0.9523 0.0
C621 C 0.04303 0.43329 0.99466 0.0
C622 C 0.01388 0.41663 0.01198 0.0
C623 C 0.03851 0.49476 0.98777 0.0
C624 C 0.07209 0.51381 0.97013 0.0
C625 C 0.03996 0.51827 0.95182 0.0
C626 C 0.07332 0.52513 0.93459 0.0
C627 C 0.13862 0.52917 0.93562 0.0
C628 C 0.17063 0.52627 0.95389 0.0
C629 C 0.13762 0.51836 0.97108 0.0
H630 H 0.16427 0.53487 0.92229 0.0
H631 H 0.85483 0.38839 0.08574 0.0
loop_
_geom_bond_atom_site_label_1
_geom_bond_atom_site_label_2
_geom_bond_distance
_geom_bond_site_symmetry_2
_ccdc_geom_bond_type
Co0 N4 2.148 . S
Co0 N10 2.128 . S
Co0 N20 2.194 . S
Co0 O25 2.351 . S
Co0 O26 2.155 . S
Co0 O27 2.096 . S
C1 N4 1.301 . S
C1 N5 1.328 . S
C1 H6 0.930 . S
C2 C3 1.333 . S
C2 N4 1.317 . S
C2 H7 0.930 . S
C3 C2 1.333 . S
C3 N5 1.350 . S
C3 H29 0.931 . S
N4 Co0 2.148 . S
N4 C1 1.301 . S
N4 C2 1.317 . S
N5 C1 1.328 . S
N5 C3 1.350 . S
H6 C1 0.930 . S
H7 C2 0.930 . S
C8 O9 1.224 . S
C8 O27 1.247 . S
O9 C8 1.224 . S
N10 Co0 2.128 . S
N10 C11 1.355 . S
N10 C13 1.311 . S
C11 N10 1.355 . S
C11 C12 1.363 . S
C11 H23 0.929 . S
C12 C11 1.363 . S
C12 N14 1.375 . S
C12 H30 0.931 . S
C13 N10 1.311 . S
C13 N14 1.347 . S
C13 H24 0.929 . S
N14 C12 1.375 . S
N14 C13 1.347 . S
C15 C18 1.365 . S
C15 N20 1.328 . S
C15 H21 0.929 . S
C16 C17 1.362 . S
C16 C19 1.378 . S
C16 H31 0.929 . S
C17 C16 1.362 . S
C17 C18 1.366 . S
C18 C15 1.365 . S
C18 C17 1.366 . S
C18 H32 0.930 . S
C19 C16 1.378 . S
C19 N20 1.315 . S
C19 H22 0.930 . S
N20 Co0 2.194 . S
N20 C15 1.328 . S
N20 C19 1.315 . S
H21 C15 0.929 . S
H22 C19 0.930 . S
H23 C11 0.929 . S
H24 C13 0.929 . S
O25 Co0 2.351 . S
O25 C28 1.244 . S
O26 Co0 2.155 . S
O26 C28 1.240 . S
O27 Co0 2.096 . S
O27 C8 1.247 . S
C28 O25 1.244 . S
C28 O26 1.240 . S
H29 C3 0.931 . S
H30 C12 0.931 . S
H31 C16 0.929 . S
H32 C18 0.930 . S
Co33 N37 2.148 . S
Co33 N43 2.128 . S
Co33 N53 2.194 . S
Co33 O58 2.351 . S
Co33 O59 2.155 . S
Co33 O60 2.096 . S
C34 N37 1.301 . S
C34 N38 1.328 . S
C34 H39 0.930 . S
C35 C36 1.333 . S
C35 N37 1.317 . S
C35 H40 0.930 . S
C36 C35 1.333 . S
C36 N38 1.350 . S
C36 H62 0.931 . S
N37 Co33 2.148 . S
N37 C34 1.301 . S
N37 C35 1.317 . S
N38 C34 1.328 . S
N38 C36 1.350 . S
H39 C34 0.930 . S
H40 C35 0.930 . S
C41 O42 1.224 . S
C41 O60 1.247 . S
O42 C41 1.224 . S
N43 Co33 2.128 . S
N43 C44 1.355 . S
N43 C46 1.311 . S
C44 N43 1.355 . S
C44 C45 1.363 . S
C44 H56 0.929 . S
C45 C44 1.363 . S
C45 N47 1.375 . S
C45 H63 0.931 . S
C46 N43 1.311 . S
C46 N47 1.347 . S
C46 H57 0.929 . S
N47 C45 1.375 . S
N47 C46 1.347 . S
C48 C51 1.365 . S
C48 N53 1.328 . S
C48 H54 0.929 . S
C49 C50 1.362 . S
C49 C52 1.378 . S
C49 H64 0.929 . S
C50 C49 1.362 . S
C50 C51 1.366 . S
C51 C48 1.365 . S
C51 C50 1.366 . S
C51 H65 0.930 . S
C52 C49 1.378 . S
C52 N53 1.315 . S
C52 H55 0.930 . S
N53 Co33 2.194 . S
N53 C48 1.328 . S
N53 C52 1.315 . S
H54 C48 0.929 . S
H55 C52 0.930 . S
H56 C44 0.929 . S
H57 C46 0.929 . S
O58 Co33 2.351 . S
O58 C61 1.244 . S
O59 Co33 2.155 . S
O59 C61 1.240 . S
O60 Co33 2.096 . S
O60 C41 1.247 . S
C61 O58 1.244 . S
C61 O59 1.240 . S
H62 C36 0.931 . S
H63 C45 0.931 . S
H64 C49 0.929 . S
H65 C51 0.930 . S
Co66 N70 2.148 . S
Co66 N76 2.128 . S
Co66 N86 2.194 . S
Co66 O91 2.351 . S
Co66 O92 2.155 . S
Co66 O93 2.096 . S
C67 N70 1.301 . S
C67 N71 1.328 . S
C67 H72 0.930 . S
C68 C69 1.333 . S
C68 N70 1.317 . S
C68 H73 0.930 . S
C69 C68 1.333 . S
C69 N71 1.350 . S
C69 H95 0.931 . S
N70 Co66 2.148 . S
N70 C67 1.301 . S
N70 C68 1.317 . S
N71 C67 1.328 . S
N71 C69 1.350 . S
H72 C67 0.930 . S
H73 C68 0.930 . S
C74 O75 1.224 . S
C74 O93 1.247 . S
O75 C74 1.224 . S
N76 Co66 2.128 . S
N76 C77 1.355 . S
N76 C79 1.311 . S
C77 N76 1.355 . S
C77 C78 1.363 . S
C77 H89 0.929 . S
C78 C77 1.363 . S
C78 N80 1.375 . S
C78 H96 0.931 . S
C79 N76 1.311 . S
C79 N80 1.347 . S
C79 H90 0.929 . S
N80 C78 1.375 . S
N80 C79 1.347 . S
C81 C84 1.365 . S
C81 N86 1.328 . S
C81 H87 0.929 . S
C82 C83 1.362 . S
C82 C85 1.378 . S
C82 H97 0.929 . S
C83 C82 1.362 . S
C83 C84 1.366 . S
C84 C81 1.365 . S
C84 C83 1.366 . S
C84 H98 0.930 . S
C85 C82 1.378 . S
C85 N86 1.315 . S
C85 H88 0.930 . S
N86 Co66 2.194 . S
N86 C81 1.328 . S
N86 C85 1.315 . S
H87 C81 0.929 . S
H88 C85 0.930 . S
H89 C77 0.929 . S
H90 C79 0.929 . S
O91 Co66 2.351 . S
O91 C94 1.244 . S
O92 Co66 2.155 . S
O92 C94 1.240 . S
O93 Co66 2.096 . S
O93 C74 1.247 . S
C94 O91 1.244 . S
C94 O92 1.240 . S
H95 C69 0.931 . S
H96 C78 0.931 . S
H97 C82 0.929 . S
H98 C84 0.930 . S
Co99 N103 2.148 . S
Co99 N109 2.128 . S
Co99 N119 2.194 . S
Co99 O124 2.351 . S
Co99 O125 2.155 . S
Co99 O126 2.096 . S
C100 N103 1.301 . S
C100 N104 1.328 . S
C100 H105 0.930 . S
C101 C102 1.333 . S
C101 N103 1.317 . S
C101 H106 0.930 . S
C102 C101 1.333 . S
C102 N104 1.350 . S
C102 H128 0.931 . S
N103 Co99 2.148 . S
N103 C100 1.301 . S
N103 C101 1.317 . S
N104 C100 1.328 . S
N104 C102 1.350 . S
H105 C100 0.930 . S
H106 C101 0.930 . S
C107 O108 1.224 . S
C107 O126 1.247 . S
O108 C107 1.224 . S
N109 Co99 2.128 . S
N109 C110 1.355 . S
N109 C112 1.311 . S
C110 N109 1.355 . S
C110 C111 1.363 . S
C110 H122 0.929 . S
C111 C110 1.363 . S
C111 N113 1.375 . S
C111 H129 0.931 . S
C112 N109 1.311 . S
C112 N113 1.347 . S
C112 H123 0.929 . S
N113 C111 1.375 . S
N113 C112 1.347 . S
C114 C117 1.365 . S
C114 N119 1.328 . S
C114 H120 0.929 . S
C115 C116 1.362 . S
C115 C118 1.378 . S
C115 H130 0.929 . S
C116 C115 1.362 . S
C116 C117 1.366 . S
C117 C114 1.365 . S
C117 C116 1.366 . S
C117 H131 0.930 . S
C118 C115 1.378 . S
C118 N119 1.315 . S
C118 H121 0.930 . S
N119 Co99 2.194 . S
N119 C114 1.328 . S
N119 C118 1.315 . S
H120 C114 0.929 . S
H121 C118 0.930 . S
H122 C110 0.929 . S
H123 C112 0.929 . S
O124 Co99 2.351 . S
O124 C127 1.244 . S
O125 Co99 2.155 . S
O125 C127 1.240 . S
O126 Co99 2.096 . S
O126 C107 1.247 . S
C127 O124 1.244 . S
C127 O125 1.240 . S
H128 C102 0.931 . S
H129 C111 0.931 . S
H130 C115 0.929 . S
H131 C117 0.930 . S
H132 C150 0.951 1_455 S
H133 C152 0.951 . S
H134 C154 0.950 . S
H135 C155 0.950 . S
H136 C157 0.950 . S
H137 C160 0.950 . S
H138 C161 0.950 . S
H139 C163 0.950 . S
H140 C164 0.950 . S
H141 C165 0.951 . S
H142 C167 0.951 . S
H143 C169 0.950 . S
H144 C170 0.950 . S
H145 C172 0.950 . S
H146 C175 0.950 . S
H147 C176 0.950 . S
H148 C178 0.950 . S
H149 C179 0.950 . S
C150 H132 0.951 1_655 S
C150 C151 1.366 1_655 S
C150 C152 1.388 . S
C151 C150 1.366 1_455 S
C151 C155 1.385 1_455 S
C152 H133 0.951 . S
C152 C150 1.388 . S
C152 C153 1.366 . S
C153 C152 1.366 . S
C153 C154 1.414 . S
C153 C156 1.499 . S
C154 H134 0.950 . S
C154 C153 1.414 . S
C154 C155 1.374 . S
C155 H135 0.950 . S
C155 C151 1.385 1_655 S
C155 C154 1.374 . S
C156 C153 1.499 . S
C156 C157 1.373 . S
C156 C158 1.389 . S
C157 H136 0.950 . S
C157 C156 1.373 . S
C157 C173 1.377 . S
C158 C156 1.389 . S
C158 C159 1.524 . S
C158 C172 1.377 . S
C159 C158 1.524 . S
C159 C160 1.397 . S
C159 C164 1.363 . S
C160 H137 0.950 . S
C160 C159 1.397 . S
C160 C161 1.334 . S
C161 H138 0.950 . S
C161 C160 1.334 . S
C161 C162 1.287 . S
C162 C161 1.287 . S
C162 C163 1.524 . S
C162 H181 0.913 . S
C163 H139 0.950 . S
C163 C162 1.524 . S
C163 C164 1.415 . S
C164 H140 0.950 . S
C164 C159 1.363 . S
C164 C163 1.415 . S
C165 H141 0.951 . S
C165 C166 1.366 . S
C165 C167 1.388 . S
C166 C165 1.366 . S
C166 C170 1.385 . S
C167 H142 0.951 . S
C167 C165 1.388 . S
C167 C168 1.366 . S
C168 C167 1.366 . S
C168 C169 1.414 . S
C168 C171 1.499 . S
C169 H143 0.950 . S
C169 C168 1.414 . S
C169 C170 1.374 . S
C170 H144 0.950 . S
C170 C166 1.385 . S
C170 C169 1.374 . S
C171 C168 1.499 . S
C171 C172 1.373 . S
C171 C173 1.389 . S
C172 H145 0.950 . S
C172 C158 1.377 . S
C172 C171 1.373 . S
C173 C157 1.377 . S
C173 C171 1.389 . S
C173 C174 1.524 . S
C174 C173 1.524 . S
C174 C175 1.397 . S
C174 C179 1.363 . S
C175 H146 0.950 . S
C175 C174 1.397 . S
C175 C176 1.334 . S
C176 H147 0.950 . S
C176 C175 1.334 . S
C176 C177 1.287 . S
C177 C176 1.287 . S
C177 C178 1.524 . S
C177 H180 0.999 . S
C178 H148 0.950 . S
C178 C177 1.524 . S
C178 C179 1.415 . S
C179 H149 0.950 . S
C179 C174 1.363 . S
C179 C178 1.415 . S
H180 C177 0.999 . S
H181 C162 0.913 . S
H182 C200 0.951 . S
H183 C202 0.951 . S
H184 C204 0.950 . S
H185 C205 0.950 . S
H186 C207 0.950 . S
H187 C210 0.950 . S
H188 C211 0.950 . S
H189 C213 0.950 . S
H190 C214 0.950 . S
H191 C215 0.951 . S
H192 C217 0.951 . S
H193 C219 0.950 . S
H194 C220 0.950 . S
H195 C222 0.950 . S
H196 C225 0.950 . S
H197 C226 0.950 . S
H198 C228 0.950 . S
H199 C229 0.950 . S
C200 H182 0.951 . S
C200 C201 1.366 . S
C200 C202 1.388 . S
C201 C200 1.366 . S
C201 C205 1.385 . S
C202 H183 0.951 . S
C202 C200 1.388 . S
C202 C203 1.366 . S
C203 C202 1.366 . S
C203 C204 1.414 . S
C203 C206 1.499 . S
C204 H184 0.950 . S
C204 C203 1.414 . S
C204 C205 1.374 . S
C205 H185 0.950 . S
C205 C201 1.385 . S
C205 C204 1.374 . S
C206 C203 1.499 . S
C206 C207 1.373 . S
C206 C208 1.389 . S
C207 H186 0.950 . S
C207 C206 1.373 . S
C207 C223 1.377 . S
C208 C206 1.389 . S
C208 C209 1.524 . S
C208 C222 1.377 . S
C209 C208 1.524 . S
C209 C210 1.397 . S
C209 C214 1.363 . S
C210 H187 0.950 . S
C210 C209 1.397 . S
C210 C211 1.334 . S
C211 H188 0.950 . S
C211 C210 1.334 . S
C211 C212 1.287 . S
C212 C211 1.287 . S
C212 C213 1.524 . S
C212 H231 0.913 . S
C213 H189 0.950 . S
C213 C212 1.524 . S
C213 C214 1.415 . S
C214 H190 0.950 . S
C214 C209 1.363 . S
C214 C213 1.415 . S
C215 H191 0.951 . S
C215 C216 1.366 . S
C215 C217 1.388 1_565 S
C216 C215 1.366 . S
C216 C220 1.385 1_565 S
C217 H192 0.951 . S
C217 C215 1.388 1_545 S
C217 C218 1.366 . S
C218 C217 1.366 . S
C218 C219 1.414 . S
C218 C221 1.499 . S
C219 H193 0.950 . S
C219 C218 1.414 . S
C219 C220 1.374 . S
C220 H194 0.950 . S
C220 C216 1.385 1_545 S
C220 C219 1.374 . S
C221 C218 1.499 . S
C221 C222 1.373 . S
C221 C223 1.389 . S
C222 H195 0.950 . S
C222 C208 1.377 . S
C222 C221 1.373 . S
C223 C207 1.377 . S
C223 C221 1.389 . S
C223 C224 1.524 . S
C224 C223 1.524 . S
C224 C225 1.397 . S
C224 C229 1.363 . S
C225 H196 0.950 . S
C225 C224 1.397 . S
C225 C226 1.334 . S
C226 H197 0.950 . S
C226 C225 1.334 . S
C226 C227 1.287 . S
C227 C226 1.287 . S
C227 C228 1.524 . S
C227 H230 0.999 . S
C228 H198 0.950 . S
C228 C227 1.524 . S
C228 C229 1.415 . S
C229 H199 0.950 . S
C229 C224 1.363 . S
C229 C228 1.415 . S
H230 C227 0.999 . S
H231 C212 0.913 . S
H232 C250 0.951 . S
H233 C252 0.951 . S
H234 C254 0.950 . S
H235 C255 0.950 . S
H236 C257 0.950 . S
H237 C260 0.950 . S
H238 C261 0.950 . S
H239 C263 0.950 . S
H240 C264 0.950 . S
H241 C265 0.951 . S
H242 C267 0.951 . S
H243 C269 0.950 . S
H244 C270 0.950 . S
H245 C272 0.950 . S
H246 C275 0.950 . S
H247 C276 0.950 . S
H248 C278 0.950 . S
H249 C279 0.950 . S
C250 H232 0.951 . S
C250 C251 1.366 . S
C250 C252 1.388 . S
C251 C250 1.366 . S
C251 C255 1.385 . S
C252 H233 0.951 . S
C252 C250 1.388 . S
C252 C253 1.366 . S
C253 C252 1.366 . S
C253 C254 1.414 . S
C253 C256 1.499 . S
C254 H234 0.950 . S
C254 C253 1.414 . S
C254 C255 1.374 . S
C255 H235 0.950 . S
C255 C251 1.385 . S
C255 C254 1.374 . S
C256 C253 1.499 . S
C256 C257 1.373 . S
C256 C258 1.389 . S
C257 H236 0.950 . S
C257 C256 1.373 . S
C257 C273 1.377 . S
C258 C256 1.389 . S
C258 C259 1.524 . S
C258 C272 1.377 . S
C259 C258 1.524 . S
C259 C260 1.397 . S
C259 C264 1.363 . S
C260 H237 0.950 . S
C260 C259 1.397 . S
C260 C261 1.334 . S
C261 H238 0.950 . S
C261 C260 1.334 . S
C261 C262 1.287 . S
C262 C261 1.287 . S
C262 C263 1.524 . S
C262 H281 0.913 . S
C263 H239 0.950 . S
C263 C262 1.524 . S
C263 C264 1.415 . S
C264 H240 0.950 . S
C264 C259 1.363 . S
C264 C263 1.415 . S
C265 H241 0.951 . S
C265 C266 1.366 1_455 S
C265 C267 1.388 . S
C266 C265 1.366 1_655 S
C266 C270 1.385 1_655 S
C267 H242 0.951 . S
C267 C265 1.388 . S
C267 C268 1.366 . S
C268 C267 1.366 . S
C268 C269 1.414 . S
C268 C271 1.499 . S
C269 H243 0.950 . S
C269 C268 1.414 . S
C269 C270 1.374 . S
C270 H244 0.950 . S
C270 C266 1.385 1_455 S
C270 C269 1.374 . S
C271 C268 1.499 . S
C271 C272 1.373 . S
C271 C273 1.389 . S
C272 H245 0.950 . S
C272 C258 1.377 . S
C272 C271 1.373 . S
C273 C257 1.377 . S
C273 C271 1.389 . S
C273 C274 1.524 . S
C274 C273 1.524 . S
C274 C275 1.397 . S
C274 C279 1.363 . S
C275 H246 0.950 . S
C275 C274 1.397 . S
C275 C276 1.334 . S
C276 H247 0.950 . S
C276 C275 1.334 . S
C276 C277 1.287 . S
C277 C276 1.287 . S
C277 C278 1.524 . S
C277 H280 0.999 . S
C278 H248 0.950 . S
C278 C277 1.524 . S
C278 C279 1.415 . S
C279 H249 0.950 . S
C279 C274 1.363 . S
C279 C278 1.415 . S
H280 C277 0.999 . S
H281 C262 0.913 . S
H282 C300 0.950 1_545 S
H283 C302 0.951 . S
H284 C304 0.950 . S
H285 C305 0.950 1_545 S
H286 C307 0.950 . S
H287 C310 0.950 . S
H288 C311 0.950 . S
H289 C313 0.950 . S
H290 C314 0.950 . S
H291 C315 0.951 . S
H292 C317 0.951 . S
H293 C319 0.950 . S
H294 C320 0.950 . S
H295 C322 0.950 . S
H296 C325 0.950 . S
H297 C326 0.950 . S
H298 C328 0.950 . S
H299 C329 0.950 . S
C300 H282 0.950 1_565 S
C300 C301 1.365 1_565 S
C300 C302 1.389 . S
C301 C300 1.365 1_545 S
C301 C305 1.385 1_545 S
C302 H283 0.951 . S
C302 C300 1.389 . S
C302 C303 1.366 . S
C303 C302 1.366 . S
C303 C304 1.414 . S
C303 C306 1.499 . S
C304 H284 0.950 . S
C304 C303 1.414 . S
C304 C305 1.374 . S
C305 H285 0.950 1_565 S
C305 C301 1.385 1_565 S
C305 C304 1.374 . S
C306 C303 1.499 . S
C306 C307 1.373 . S
C306 C308 1.389 . S
C307 H286 0.950 . S
C307 C306 1.373 . S
C307 C323 1.377 . S
C308 C306 1.389 . S
C308 C309 1.524 . S
C308 C322 1.377 . S
C309 C308 1.524 . S
C309 C310 1.397 . S
C309 C314 1.363 . S
C310 H287 0.950 . S
C310 C309 1.397 . S
C310 C311 1.334 . S
C311 H288 0.950 . S
C311 C310 1.334 . S
C311 C312 1.287 . S
C312 C311 1.287 . S
C312 C313 1.524 . S
C312 H331 0.913 . S
C313 H289 0.950 . S
C313 C312 1.524 . S
C313 C314 1.415 . S
C314 H290 0.950 . S
C314 C309 1.363 . S
C314 C313 1.415 . S
C315 H291 0.951 . S
C315 C316 1.366 . S
C315 C317 1.388 . S
C316 C315 1.366 . S
C316 C320 1.385 . S
C317 H292 0.951 . S
C317 C315 1.388 . S
C317 C318 1.366 . S
C318 C317 1.366 . S
C318 C319 1.414 . S
C318 C321 1.499 . S
C319 H293 0.950 . S
C319 C318 1.414 . S
C319 C320 1.374 . S
C320 H294 0.950 . S
C320 C316 1.385 . S
C320 C319 1.374 . S
C321 C318 1.499 . S
C321 C322 1.373 . S
C321 C323 1.389 . S
C322 H295 0.950 . S
C322 C308 1.377 . S
C322 C321 1.373 . S
C323 C307 1.377 . S
C323 C321 1.389 . S
C323 C324 1.524 . S
C324 C323 1.524 . S
C324 C325 1.397 . S
C324 C329 1.363 . S
C325 H296 0.950 . S
C325 C324 1.397 . S
C325 C326 1.334 . S
C326 H297 0.950 . S
C326 C325 1.334 . S
C326 C327 1.287 . S
C327 C326 1.287 . S
C327 C328 1.524 . S
C327 H330 0.999 . S
C328 H298 0.950 . S
C328 C327 1.524 . S
C328 C329 1.415 . S
C329 H299 0.950 . S
C329 C324 1.363 . S
C329 C328 1.415 . S
H330 C327 0.999 . S
H331 C312 0.913 . S
H332 C350 0.951 . S
H333 C352 0.951 . S
H334 C354 0.950 . S
H335 C355 0.950 . S
H336 C357 0.950 . S
H337 C360 0.950 . S
H338 C361 0.950 . S
H339 C363 0.950 . S
H340 C364 0.950 . S
H341 C365 0.951 . S
H342 C367 0.951 . S
H343 C369 0.950 . S
H344 C370 0.950 . S
H345 C372 0.950 . S
H346 C375 0.950 . S
H347 C376 0.950 . S
H348 C378 0.950 1_655 S
H349 C379 0.950 . S
C350 H332 0.951 . S
C350 C351 1.366 . S
C350 C352 1.388 . S
C351 C350 1.366 . S
C351 C355 1.385 . S
C352 H333 0.951 . S
C352 C350 1.388 . S
C352 C353 1.366 . S
C353 C352 1.366 . S
C353 C354 1.414 . S
C353 C356 1.499 . S
C354 H334 0.950 . S
C354 C353 1.414 . S
C354 C355 1.374 . S
C355 H335 0.950 . S
C355 C351 1.385 . S
C355 C354 1.374 . S
C356 C353 1.499 . S
C356 C357 1.373 . S
C356 C358 1.389 . S
C357 H336 0.950 . S
C357 C356 1.373 . S
C357 C373 1.377 . S
C358 C356 1.389 . S
C358 C359 1.524 . S
C358 C372 1.377 . S
C359 C358 1.524 . S
C359 C360 1.397 . S
C359 C364 1.363 . S
C360 H337 0.950 . S
C360 C359 1.397 . S
C360 C361 1.334 . S
C361 H338 0.950 . S
C361 C360 1.334 . S
C361 C362 1.287 . S
C362 C361 1.287 . S
C362 C363 1.524 . S
C362 H381 0.913 . S
C363 H339 0.950 . S
C363 C362 1.524 . S
C363 C364 1.415 . S
C364 H340 0.950 . S
C364 C359 1.363 . S
C364 C363 1.415 . S
C365 H341 0.951 . S
C365 C366 1.366 . S
C365 C367 1.388 . S
C366 C365 1.366 . S
C366 C370 1.385 . S
C367 H342 0.951 . S
C367 C365 1.388 . S
C367 C368 1.366 . S
C368 C367 1.366 . S
C368 C369 1.414 . S
C368 C371 1.499 . S
C369 H343 0.950 . S
C369 C368 1.414 . S
C369 C370 1.374 . S
C370 H344 0.950 . S
C370 C366 1.385 . S
C370 C369 1.374 . S
C371 C368 1.499 . S
C371 C372 1.373 . S
C371 C373 1.389 . S
C372 H345 0.950 . S
C372 C358 1.377 . S
C372 C371 1.373 . S
C373 C357 1.377 . S
C373 C371 1.389 . S
C373 C374 1.524 . S
C374 C373 1.524 . S
C374 C375 1.397 . S
C374 C379 1.363 . S
C375 H346 0.950 . S
C375 C374 1.397 . S
C375 C376 1.334 . S
C376 H347 0.950 . S
C376 C375 1.334 . S
C376 C377 1.287 . S
C377 C376 1.287 . S
C377 C378 1.524 . S
C377 H380 0.999 1_455 S
C378 H348 0.950 1_455 S
C378 C377 1.524 . S
C378 C379 1.415 . S
C379 H349 0.950 . S
C379 C374 1.363 . S
C379 C378 1.415 . S
H380 C377 0.999 1_655 S
H381 C362 0.913 . S
H382 C400 0.951 . S
H383 C402 0.951 . S
H384 C404 0.950 . S
H385 C405 0.950 . S
H386 C407 0.950 . S
H387 C410 0.950 . S
H388 C411 0.950 . S
H389 C413 0.950 . S
H390 C414 0.950 . S
H391 C415 0.951 . S
H392 C417 0.951 . S
H393 C419 0.950 . S
H394 C420 0.950 . S
H395 C422 0.950 . S
H396 C425 0.950 . S
H397 C426 0.950 . S
H398 C428 0.950 . S
H399 C429 0.950 . S
C400 H382 0.951 . S
C400 C401 1.366 . S
C400 C402 1.388 . S
C401 C400 1.366 . S
C401 C405 1.385 . S
C402 H383 0.951 . S
C402 C400 1.388 . S
C402 C403 1.366 . S
C403 C402 1.366 . S
C403 C404 1.414 . S
C403 C406 1.499 . S
C404 H384 0.950 . S
C404 C403 1.414 . S
C404 C405 1.374 . S
C405 H385 0.950 . S
C405 C401 1.385 . S
C405 C404 1.374 . S
C406 C403 1.499 . S
C406 C407 1.373 . S
C406 C408 1.389 . S
C407 H386 0.950 . S
C407 C406 1.373 . S
C407 C423 1.377 . S
C408 C406 1.389 . S
C408 C409 1.524 . S
C408 C422 1.377 . S
C409 C408 1.524 . S
C409 C410 1.397 . S
C409 C414 1.363 . S
C410 H387 0.950 . S
C410 C409 1.397 . S
C410 C411 1.334 . S
C411 H388 0.950 . S
C411 C410 1.334 . S
C411 C412 1.287 . S
C412 C411 1.287 . S
C412 C413 1.524 . S
C412 H431 0.913 . S
C413 H389 0.950 . S
C413 C412 1.524 . S
C413 C414 1.415 . S
C414 H390 0.950 . S
C414 C409 1.363 . S
C414 C413 1.415 . S
C415 H391 0.951 . S
C415 C416 1.366 . S
C415 C417 1.388 . S
C416 C415 1.366 . S
C416 C420 1.385 . S
C417 H392 0.951 . S
C417 C415 1.388 . S
C417 C418 1.366 . S
C418 C417 1.366 . S
C418 C419 1.414 . S
C418 C421 1.499 . S
C419 H393 0.950 . S
C419 C418 1.414 . S
C419 C420 1.374 . S
C420 H394 0.950 . S
C420 C416 1.385 . S
C420 C419 1.374 . S
C421 C418 1.499 . S
C421 C422 1.373 . S
C421 C423 1.389 . S
C422 H395 0.950 . S
C422 C408 1.377 . S
C422 C421 1.373 . S
C423 C407 1.377 . S
C423 C421 1.389 . S
C423 C424 1.524 . S
C424 C423 1.524 . S
C424 C425 1.397 . S
C424 C429 1.363 . S
C425 H396 0.950 . S
C425 C424 1.397 . S
C425 C426 1.334 . S
C426 H397 0.950 . S
C426 C425 1.334 . S
C426 C427 1.287 . S
C427 C426 1.287 . S
C427 C428 1.524 . S
C427 H430 0.999 . S
C428 H398 0.950 . S
C428 C427 1.524 . S
C428 C429 1.415 . S
C429 H399 0.950 . S
C429 C424 1.363 . S
C429 C428 1.415 . S
H430 C427 0.999 . S
H431 C412 0.913 . S
H432 C450 0.951 . S
H433 C452 0.951 . S
H434 C454 0.950 . S
H435 C455 0.950 . S
H436 C457 0.950 . S
H437 C460 0.950 . S
H438 C461 0.950 . S
H439 C463 0.950 . S
H440 C464 0.950 . S
H441 C465 0.951 . S
H442 C467 0.951 . S
H443 C469 0.950 . S
H444 C470 0.950 . S
H445 C472 0.950 . S
H446 C475 0.950 . S
H447 C476 0.950 . S
H448 C478 0.950 . S
H449 C479 0.950 . S
C450 H432 0.951 . S
C450 C451 1.366 . S
C450 C452 1.388 . S
C451 C450 1.366 . S
C451 C455 1.385 . S
C452 H433 0.951 . S
C452 C450 1.388 . S
C452 C453 1.366 . S
C453 C452 1.366 . S
C453 C454 1.414 . S
C453 C456 1.499 . S
C454 H434 0.950 . S
C454 C453 1.414 . S
C454 C455 1.374 . S
C455 H435 0.950 . S
C455 C451 1.385 . S
C455 C454 1.374 . S
C456 C453 1.499 . S
C456 C457 1.373 . S
C456 C458 1.389 . S
C457 H436 0.950 . S
C457 C456 1.373 . S
C457 C473 1.377 . S
C458 C456 1.389 . S
C458 C459 1.524 . S
C458 C472 1.377 . S
C459 C458 1.524 . S
C459 C460 1.397 . S
C459 C464 1.363 . S
C460 H437 0.950 . S
C460 C459 1.397 . S
C460 C461 1.334 . S
C461 H438 0.950 . S
C461 C460 1.334 . S
C461 C462 1.287 . S
C462 C461 1.287 . S
C462 C463 1.524 . S
C462 H481 0.913 . S
C463 H439 0.950 . S
C463 C462 1.524 . S
C463 C464 1.415 . S
C464 H440 0.950 . S
C464 C459 1.363 . S
C464 C463 1.415 . S
C465 H441 0.951 . S
C465 C466 1.366 . S
C465 C467 1.388 . S
C466 C465 1.366 . S
C466 C470 1.385 . S
C467 H442 0.951 . S
C467 C465 1.388 . S
C467 C468 1.366 . S
C468 C467 1.366 . S
C468 C469 1.414 . S
C468 C471 1.499 . S
C469 H443 0.950 . S
C469 C468 1.414 . S
C469 C470 1.374 . S
C470 H444 0.950 . S
C470 C466 1.385 . S
C470 C469 1.374 . S
C471 C468 1.499 . S
C471 C472 1.373 . S
C471 C473 1.389 . S
C472 H445 0.950 . S
C472 C458 1.377 . S
C472 C471 1.373 . S
C473 C457 1.377 . S
C473 C471 1.389 . S
C473 C474 1.524 . S
C474 C473 1.524 . S
C474 C475 1.397 . S
C474 C479 1.363 . S
C475 H446 0.950 . S
C475 C474 1.397 . S
C475 C476 1.334 . S
C476 H447 0.950 . S
C476 C475 1.334 . S
C476 C477 1.287 . S
C477 C476 1.287 . S
C477 C478 1.524 . S
C477 H480 0.999 . S
C478 H448 0.950 . S
C478 C477 1.524 . S
C478 C479 1.415 . S
C479 H449 0.950 . S
C479 C474 1.363 . S
C479 C478 1.415 . S
H480 C477 0.999 . S
H481 C462 0.913 . S
H482 C500 0.951 . S
H483 C502 0.951 . S
H484 C504 0.950 . S
H485 C505 0.950 . S
H486 C507 0.950 . S
H487 C510 0.950 . S
H488 C511 0.950 . S
H489 C513 0.950 . S
H490 C514 0.950 1_554 S
H491 C515 0.951 . S
H492 C517 0.951 . S
H493 C519 0.950 . S
H494 C520 0.950 . S
H495 C522 0.950 . S
H496 C525 0.950 . S
H497 C526 0.950 . S
H498 C528 0.950 . S
H499 C529 0.950 1_556 S
C500 H482 0.951 . S
C500 C501 1.366 . S
C500 C502 1.388 . S
C501 C500 1.366 . S
C501 C505 1.385 . S
C502 H483 0.951 . S
C502 C500 1.388 . S
C502 C503 1.366 . S
C503 C502 1.366 . S
C503 C504 1.414 . S
C503 C506 1.499 . S
C504 H484 0.950 . S
C504 C503 1.414 . S
C504 C505 1.374 . S
C505 H485 0.950 . S
C505 C501 1.385 . S
C505 C504 1.374 . S
C506 C503 1.499 . S
C506 C507 1.381 . S
C506 C508 1.389 . S
C507 H486 0.950 . S
C507 C506 1.381 . S
C507 C523 1.369 1_546 S
C508 C506 1.389 . S
C508 C509 1.524 . S
C508 C522 1.369 1_546 S
C509 C508 1.524 . S
C509 C510 1.397 . S
C509 C514 1.363 . S
C510 H487 0.950 . S
C510 C509 1.397 . S
C510 C511 1.334 . S
C511 H488 0.950 . S
C511 C510 1.334 . S
C511 C512 1.287 . S
C512 C511 1.287 . S
C512 C513 1.524 . S
C512 H531 0.913 . S
C513 H489 0.950 . S
C513 C512 1.524 . S
C513 C514 1.415 . S
C514 H490 0.950 1_556 S
C514 C509 1.363 . S
C514 C513 1.415 . S
C515 H491 0.951 . S
C515 C516 1.366 . S
C515 C517 1.388 . S
C516 C515 1.366 . S
C516 C520 1.385 . S
C517 H492 0.951 . S
C517 C515 1.388 . S
C517 C518 1.366 . S
C518 C517 1.366 . S
C518 C519 1.414 . S
C518 C521 1.499 . S
C519 H493 0.950 . S
C519 C518 1.414 . S
C519 C520 1.374 . S
C520 H494 0.950 . S
C520 C516 1.385 . S
C520 C519 1.374 . S
C521 C518 1.499 . S
C521 C522 1.381 . S
C521 C523 1.389 . S
C522 H495 0.950 . S
C522 C508 1.369 1_564 S
C522 C521 1.381 . S
C523 C507 1.369 1_564 S
C523 C521 1.389 . S
C523 C524 1.524 . S
C524 C523 1.524 . S
C524 C525 1.397 . S
C524 C529 1.363 . S
C525 H496 0.950 . S
C525 C524 1.397 . S
C525 C526 1.334 . S
C526 H497 0.950 . S
C526 C525 1.334 . S
C526 C527 1.287 . S
C527 C526 1.287 . S
C527 C528 1.524 . S
C527 H530 0.999 . S
C528 H498 0.950 . S
C528 C527 1.524 . S
C528 C529 1.415 . S
C529 H499 0.950 1_554 S
C529 C524 1.363 . S
C529 C528 1.415 . S
H530 C527 0.999 . S
H531 C512 0.913 . S
H532 C550 0.951 . S
H533 C552 0.951 . S
H534 C554 0.950 . S
H535 C555 0.950 . S
H536 C557 0.950 . S
H537 C560 0.950 . S
H538 C561 0.950 . S
H539 C563 0.950 . S
H540 C564 0.950 . S
H541 C565 0.951 . S
H542 C567 0.951 . S
H543 C569 0.950 . S
H544 C570 0.950 . S
H545 C572 0.950 . S
H546 C575 0.950 . S
H547 C576 0.950 . S
H548 C578 0.950 . S
H549 C579 0.950 . S
C550 H532 0.951 . S
C550 C551 1.366 . S
C550 C552 1.388 . S
C551 C550 1.366 . S
C551 C555 1.385 . S
C552 H533 0.951 . S
C552 C550 1.388 . S
C552 C553 1.366 . S
C553 C552 1.366 . S
C553 C554 1.414 . S
C553 C556 1.499 . S
C554 H534 0.950 . S
C554 C553 1.414 . S
C554 C555 1.374 . S
C555 H535 0.950 . S
C555 C551 1.385 . S
C555 C554 1.374 . S
C556 C553 1.499 . S
C556 C557 1.373 1_655 S
C556 C558 1.389 1_565 S
C557 H536 0.950 . S
C557 C556 1.373 1_455 S
C557 C573 1.377 . S
C558 C556 1.389 1_545 S
C558 C559 1.524 . S
C558 C572 1.377 . S
C559 C558 1.524 . S
C559 C560 1.397 . S
C559 C564 1.363 . S
C560 H537 0.950 . S
C560 C559 1.397 . S
C560 C561 1.334 . S
C561 H538 0.950 . S
C561 C560 1.334 . S
C561 C562 1.287 . S
C562 C561 1.287 . S
C562 C563 1.524 . S
C562 H581 0.913 . S
C563 H539 0.950 . S
C563 C562 1.524 . S
C563 C564 1.415 . S
C564 H540 0.950 . S
C564 C559 1.363 . S
C564 C563 1.415 . S
C565 H541 0.951 . S
C565 C566 1.366 . S
C565 C567 1.388 . S
C566 C565 1.366 . S
C566 C570 1.385 . S
C567 H542 0.951 . S
C567 C565 1.388 . S
C567 C568 1.366 . S
C568 C567 1.366 . S
C568 C569 1.414 . S
C568 C571 1.499 . S
C569 H543 0.950 . S
C569 C568 1.414 . S
C569 C570 1.374 . S
C570 H544 0.950 . S
C570 C566 1.385 . S
C570 C569 1.374 . S
C571 C568 1.499 . S
C571 C572 1.373 1_455 S
C571 C573 1.389 1_545 S
C572 H545 0.950 . S
C572 C558 1.377 . S
C572 C571 1.373 1_655 S
C573 C557 1.377 . S
C573 C571 1.389 1_565 S
C573 C574 1.524 . S
C574 C573 1.524 . S
C574 C575 1.397 . S
C574 C579 1.363 . S
C575 H546 0.950 . S
C575 C574 1.397 . S
C575 C576 1.334 . S
C576 H547 0.950 . S
C576 C575 1.334 . S
C576 C577 1.287 . S
C577 C576 1.287 . S
C577 C578 1.524 . S
C577 H580 0.999 . S
C578 H548 0.950 . S
C578 C577 1.524 . S
C578 C579 1.415 . S
C579 H549 0.950 . S
C579 C574 1.363 . S
C579 C578 1.415 . S
H580 C577 0.999 . S
H581 C562 0.913 . S
H582 C600 0.951 . S
H583 C602 0.951 . S
H584 C604 0.950 1_455 S
H585 C605 0.950 . S
H586 C607 0.950 . S
H587 C610 0.950 . S
H588 C611 0.950 . S
H589 C613 0.950 . S
H590 C614 0.950 . S
H591 C615 0.951 . S
H592 C617 0.951 . S
H593 C619 0.950 1_655 S
H594 C620 0.950 . S
H595 C622 0.950 . S
H596 C625 0.950 . S
H597 C626 0.950 . S
H598 C628 0.950 . S
H599 C629 0.950 . S
C600 H582 0.951 . S
C600 C601 1.366 . S
C600 C602 1.388 . S
C601 C600 1.366 . S
C601 C605 1.385 . S
C602 H583 0.951 . S
C602 C600 1.388 . S
C602 C603 1.366 . S
C603 C602 1.366 . S
C603 C604 1.414 . S
C603 C606 1.499 . S
C604 H584 0.950 1_655 S
C604 C603 1.414 . S
C604 C605 1.374 . S
C605 H585 0.950 . S
C605 C601 1.385 . S
C605 C604 1.374 . S
C606 C603 1.499 . S
C606 C607 1.382 1_655 S
C606 C608 1.389 . S
C607 H586 0.950 . S
C607 C606 1.382 1_455 S
C607 C623 1.368 1_554 S
C608 C606 1.389 . S
C608 C609 1.524 . S
C608 C622 1.368 1_554 S
C609 C608 1.524 . S
C609 C610 1.397 . S
C609 C614 1.363 . S
C610 H587 0.950 . S
C610 C609 1.397 . S
C610 C611 1.334 . S
C611 H588 0.950 . S
C611 C610 1.334 . S
C611 C612 1.287 . S
C612 C611 1.287 . S
C612 C613 1.524 . S
C612 H631 0.913 . S
C613 H589 0.950 . S
C613 C612 1.524 . S
C613 C614 1.415 . S
C614 H590 0.950 . S
C614 C609 1.363 . S
C614 C613 1.415 . S
C615 H591 0.951 . S
C615 C616 1.366 . S
C615 C617 1.388 . S
C616 C615 1.366 . S
C616 C620 1.385 . S
C617 H592 0.951 . S
C617 C615 1.388 . S
C617 C618 1.366 . S
C618 C617 1.366 . S
C618 C619 1.414 . S
C618 C621 1.499 . S
C619 H593 0.950 1_455 S
C619 C618 1.414 . S
C619 C620 1.374 . S
C620 H594 0.950 . S
C620 C616 1.385 . S
C620 C619 1.374 . S
C621 C618 1.499 . S
C621 C622 1.382 1_455 S
C621 C623 1.389 . S
C622 H595 0.950 . S
C622 C608 1.368 1_556 S
C622 C621 1.382 1_655 S
C623 C607 1.368 1_556 S
C623 C621 1.389 . S
C623 C624 1.524 . S
C624 C623 1.524 . S
C624 C625 1.397 . S
C624 C629 1.363 . S
C625 H596 0.950 . S
C625 C624 1.397 . S
C625 C626 1.334 . S
C626 H597 0.950 . S
C626 C625 1.334 . S
C626 C627 1.287 . S
C627 C626 1.287 . S
C627 C628 1.524 . S
C627 H630 0.999 . S
C628 H598 0.950 . S
C628 C627 1.524 . S
C628 C629 1.415 . S
C629 H599 0.950 . S
C629 C624 1.363 . S
C629 C628 1.415 . S
H630 C627 0.999 . S
H631 C612 0.913 . S
C151 N5 1.022 . S
C166 N14 1.021 . S
C201 N38 1.023 . S
C216 N47 1.021 . S
C251 N80 1.020 . S
C266 N71 1.022 . S
C301 N113 1.021 . S
C316 N104 1.022 . S
C351 C116 1.429 . S
C366 C17 1.430 . S
C401 C50 1.430 . S
C416 C83 1.430 . S
C451 C8 1.043 . S
C466 C74 1.043 . S
C501 C107 1.032 . S
C516 C41 1.032 . S
C551 C94 0.997 . S
C566 C28 0.997 . S
C601 C61 1.002 . S
C616 C127 1.002 . S
