# Generated by pormake.
# Topology ums, (4)-cn, num edge types: 1
# Building blocks:
#     Node 0, Type 0, BuildingBlock: GALJAG_clean_sbu_0, # of connection points: 4
#     Node 1, Type 0, BuildingBlock: GALJAG_clean_sbu_0, # of connection points: 4
#     Node 2, Type 0, BuildingBlock: GALJAG_clean_sbu_0, # of connection points: 4
#     Node 3, Type 0, BuildingBlock: GALJAG_clean_sbu_0, # of connection points: 4
#     Node 4, Type 0, BuildingBlock: GALJAG_clean_sbu_0, # of connection points: 4
#     Node 5, Type 0, BuildingBlock: GALJAG_clean_sbu_0, # of connection points: 4
#     Node 6, Type 0, BuildingBlock: GALJAG_clean_sbu_0, # of connection points: 4
#     Node 7, Type 0, BuildingBlock: GALJAG_clean_sbu_0, # of connection points: 4
#     Node 8, Type 0, BuildingBlock: GALJAG_clean_sbu_0, # of connection points: 4
#     Node 9, Type 0, BuildingBlock: GALJAG_clean_sbu_0, # of connection points: 4
#     Node 10, Type 0, BuildingBlock: GALJAG_clean_sbu_0, # of connection points: 4
#     Node 11, Type 0, BuildingBlock: GALJAG_clean_sbu_0, # of connection points: 4
#     Node 12, Type 0, BuildingBlock: GALJAG_clean_sbu_0, # of connection points: 4
#     Node 13, Type 0, BuildingBlock: GALJAG_clean_sbu_0, # of connection points: 4
#     Node 14, Type 0, BuildingBlock: GALJAG_clean_sbu_0, # of connection points: 4
#     Node 15, Type 0, BuildingBlock: GALJAG_clean_sbu_0, # of connection points: 4
#     Node 16, Type 0, BuildingBlock: GALJAG_clean_sbu_0, # of connection points: 4
#     Node 17, Type 0, BuildingBlock: GALJAG_clean_sbu_0, # of connection points: 4
#     Node 18, Type 0, BuildingBlock: GALJAG_clean_sbu_0, # of connection points: 4
#     Node 19, Type 0, BuildingBlock: GALJAG_clean_sbu_0, # of connection points: 4
#     Node 20, Type 0, BuildingBlock: GALJAG_clean_sbu_0, # of connection points: 4
#     Node 21, Type 0, BuildingBlock: GALJAG_clean_sbu_0, # of connection points: 4
#     Node 22, Type 0, BuildingBlock: GALJAG_clean_sbu_0, # of connection points: 4
#     Node 23, Type 0, BuildingBlock: GALJAG_clean_sbu_0, # of connection points: 4
#     Node 24, Type 0, BuildingBlock: GALJAG_clean_sbu_0, # of connection points: 4
#     Node 25, Type 0, BuildingBlock: GALJAG_clean_sbu_0, # of connection points: 4
#     Node 26, Type 0, BuildingBlock: GALJAG_clean_sbu_0, # of connection points: 4
#     Node 27, Type 0, BuildingBlock: GALJAG_clean_sbu_0, # of connection points: 4
#     Node 28, Type 0, BuildingBlock: GALJAG_clean_sbu_0, # of connection points: 4
#     Node 29, Type 0, BuildingBlock: GALJAG_clean_sbu_0, # of connection points: 4
#     Node 30, Type 0, BuildingBlock: GALJAG_clean_sbu_0, # of connection points: 4
#     Node 31, Type 0, BuildingBlock: GALJAG_clean_sbu_0, # of connection points: 4
#     Node 32, Type 0, BuildingBlock: GALJAG_clean_sbu_0, # of connection points: 4
#     Node 33, Type 0, BuildingBlock: GALJAG_clean_sbu_0, # of connection points: 4
#     Node 34, Type 0, BuildingBlock: GALJAG_clean_sbu_0, # of connection points: 4
#     Node 35, Type 0, BuildingBlock: GALJAG_clean_sbu_0, # of connection points: 4
#     Edge 36, Type (0, 0), BuildingBlock: KIFKEQ_clean_linker_1, # of connection points: 2
#     Edge 37, Type (0, 0), BuildingBlock: KIFKEQ_clean_linker_1, # of connection points: 2
#     Edge 38, Type (0, 0), BuildingBlock: KIFKEQ_clean_linker_1, # of connection points: 2
#     Edge 39, Type (0, 0), BuildingBlock: KIFKEQ_clean_linker_1, # of connection points: 2
#     Edge 40, Type (0, 0), BuildingBlock: KIFKEQ_clean_linker_1, # of connection points: 2
#     Edge 41, Type (0, 0), BuildingBlock: KIFKEQ_clean_linker_1, # of connection points: 2
#     Edge 42, Type (0, 0), BuildingBlock: KIFKEQ_clean_linker_1, # of connection points: 2
#     Edge 43, Type (0, 0), BuildingBlock: KIFKEQ_clean_linker_1, # of connection points: 2
#     Edge 44, Type (0, 0), BuildingBlock: KIFKEQ_clean_linker_1, # of connection points: 2
#     Edge 45, Type (0, 0), BuildingBlock: KIFKEQ_clean_linker_1, # of connection points: 2
#     Edge 46, Type (0, 0), BuildingBlock: KIFKEQ_clean_linker_1, # of connection points: 2
#     Edge 47, Type (0, 0), BuildingBlock: KIFKEQ_clean_linker_1, # of connection points: 2
#     Edge 48, Type (0, 0), BuildingBlock: KIFKEQ_clean_linker_1, # of connection points: 2
#     Edge 49, Type (0, 0), BuildingBlock: KIFKEQ_clean_linker_1, # of connection points: 2
#     Edge 50, Type (0, 0), BuildingBlock: KIFKEQ_clean_linker_1, # of connection points: 2
#     Edge 51, Type (0, 0), BuildingBlock: KIFKEQ_clean_linker_1, # of connection points: 2
#     Edge 52, Type (0, 0), BuildingBlock: KIFKEQ_clean_linker_1, # of connection points: 2
#     Edge 53, Type (0, 0), BuildingBlock: KIFKEQ_clean_linker_1, # of connection points: 2
#     Edge 54, Type (0, 0), BuildingBlock: KIFKEQ_clean_linker_1, # of connection points: 2
#     Edge 55, Type (0, 0), BuildingBlock: KIFKEQ_clean_linker_1, # of connection points: 2
#     Edge 56, Type (0, 0), BuildingBlock: KIFKEQ_clean_linker_1, # of connection points: 2
#     Edge 57, Type (0, 0), BuildingBlock: KIFKEQ_clean_linker_1, # of connection points: 2
#     Edge 58, Type (0, 0), BuildingBlock: KIFKEQ_clean_linker_1, # of connection points: 2
#     Edge 59, Type (0, 0), BuildingBlock: KIFKEQ_clean_linker_1, # of connection points: 2
#     Edge 60, Type (0, 0), BuildingBlock: KIFKEQ_clean_linker_1, # of connection points: 2
#     Edge 61, Type (0, 0), BuildingBlock: KIFKEQ_clean_linker_1, # of connection points: 2
#     Edge 62, Type (0, 0), BuildingBlock: KIFKEQ_clean_linker_1, # of connection points: 2
#     Edge 63, Type (0, 0), BuildingBlock: KIFKEQ_clean_linker_1, # of connection points: 2
#     Edge 64, Type (0, 0), BuildingBlock: KIFKEQ_clean_linker_1, # of connection points: 2
#     Edge 65, Type (0, 0), BuildingBlock: KIFKEQ_clean_linker_1, # of connection points: 2
#     Edge 66, Type (0, 0), BuildingBlock: KIFKEQ_clean_linker_1, # of connection points: 2
#     Edge 67, Type (0, 0), BuildingBlock: KIFKEQ_clean_linker_1, # of connection points: 2
#     Edge 68, Type (0, 0), BuildingBlock: KIFKEQ_clean_linker_1, # of connection points: 2
#     Edge 69, Type (0, 0), BuildingBlock: KIFKEQ_clean_linker_1, # of connection points: 2
#     Edge 70, Type (0, 0), BuildingBlock: KIFKEQ_clean_linker_1, # of connection points: 2
#     Edge 71, Type (0, 0), BuildingBlock: KIFKEQ_clean_linker_1, # of connection points: 2
#     Edge 72, Type (0, 0), BuildingBlock: KIFKEQ_clean_linker_1, # of connection points: 2
#     Edge 73, Type (0, 0), BuildingBlock: KIFKEQ_clean_linker_1, # of connection points: 2
#     Edge 74, Type (0, 0), BuildingBlock: KIFKEQ_clean_linker_1, # of connection points: 2
#     Edge 75, Type (0, 0), BuildingBlock: KIFKEQ_clean_linker_1, # of connection points: 2
#     Edge 76, Type (0, 0), BuildingBlock: KIFKEQ_clean_linker_1, # of connection points: 2
#     Edge 77, Type (0, 0), BuildingBlock: KIFKEQ_clean_linker_1, # of connection points: 2
#     Edge 78, Type (0, 0), BuildingBlock: KIFKEQ_clean_linker_1, # of connection points: 2
#     Edge 79, Type (0, 0), BuildingBlock: KIFKEQ_clean_linker_1, # of connection points: 2
#     Edge 80, Type (0, 0), BuildingBlock: KIFKEQ_clean_linker_1, # of connection points: 2
#     Edge 81, Type (0, 0), BuildingBlock: KIFKEQ_clean_linker_1, # of connection points: 2
#     Edge 82, Type (0, 0), BuildingBlock: KIFKEQ_clean_linker_1, # of connection points: 2
#     Edge 83, Type (0, 0), BuildingBlock: KIFKEQ_clean_linker_1, # of connection points: 2
#     Edge 84, Type (0, 0), BuildingBlock: KIFKEQ_clean_linker_1, # of connection points: 2
#     Edge 85, Type (0, 0), BuildingBlock: KIFKEQ_clean_linker_1, # of connection points: 2
#     Edge 86, Type (0, 0), BuildingBlock: KIFKEQ_clean_linker_1, # of connection points: 2
#     Edge 87, Type (0, 0), BuildingBlock: KIFKEQ_clean_linker_1, # of connection points: 2
#     Edge 88, Type (0, 0), BuildingBlock: KIFKEQ_clean_linker_1, # of connection points: 2
#     Edge 89, Type (0, 0), BuildingBlock: KIFKEQ_clean_linker_1, # of connection points: 2
#     Edge 90, Type (0, 0), BuildingBlock: KIFKEQ_clean_linker_1, # of connection points: 2
#     Edge 91, Type (0, 0), BuildingBlock: KIFKEQ_clean_linker_1, # of connection points: 2
#     Edge 92, Type (0, 0), BuildingBlock: KIFKEQ_clean_linker_1, # of connection points: 2
#     Edge 93, Type (0, 0), BuildingBlock: KIFKEQ_clean_linker_1, # of connection points: 2
#     Edge 94, Type (0, 0), BuildingBlock: KIFKEQ_clean_linker_1, # of connection points: 2
#     Edge 95, Type (0, 0), BuildingBlock: KIFKEQ_clean_linker_1, # of connection points: 2
#     Edge 96, Type (0, 0), BuildingBlock: KIFKEQ_clean_linker_1, # of connection points: 2
#     Edge 97, Type (0, 0), BuildingBlock: KIFKEQ_clean_linker_1, # of connection points: 2
#     Edge 98, Type (0, 0), BuildingBlock: KIFKEQ_clean_linker_1, # of connection points: 2
#     Edge 99, Type (0, 0), BuildingBlock: KIFKEQ_clean_linker_1, # of connection points: 2
#     Edge 100, Type (0, 0), BuildingBlock: KIFKEQ_clean_linker_1, # of connection points: 2
#     Edge 101, Type (0, 0), BuildingBlock: KIFKEQ_clean_linker_1, # of connection points: 2
#     Edge 102, Type (0, 0), BuildingBlock: KIFKEQ_clean_linker_1, # of connection points: 2
#     Edge 103, Type (0, 0), BuildingBlock: KIFKEQ_clean_linker_1, # of connection points: 2
#     Edge 104, Type (0, 0), BuildingBlock: KIFKEQ_clean_linker_1, # of connection points: 2
#     Edge 105, Type (0, 0), BuildingBlock: KIFKEQ_clean_linker_1, # of connection points: 2
#     Edge 106, Type (0, 0), BuildingBlock: KIFKEQ_clean_linker_1, # of connection points: 2
#     Edge 107, Type (0, 0), BuildingBlock: KIFKEQ_clean_linker_1, # of connection points: 2
# Relax obj value: 0.176
# Max RMSD: 0.175
# Mean RMSD: 0.174
data_MOF--net-ums--node1-GALJAG_clean_sbu_0--edge1-KIFKEQ_clean_linker_1
_symmetry_space_group_name_H-M    P1
_symmetry_Int_Tables_number       1
_symmetry_cell_setting            triclinic
loop_
_symmetry_equiv_pos_as_xyz
'x, y, z'
_cell_length_a     98.729034
_cell_length_b     98.684101
_cell_length_c     26.598502
_cell_angle_alpha  89.987497
_cell_angle_beta   90.001058
_cell_angle_gamma 119.98212
loop_
_atom_site_label
_atom_site_type_symbol
_atom_site_fract_x
_atom_site_fract_y
_atom_site_fract_z
_atom_type_partial_charge
In0 In 0.16293 0.25022 0.16427 0.0
O1 O 0.16398 0.22768 0.16706 0.0
O2 O 0.18415 0.24871 0.18983 0.0
C3 C 0.14481 0.2424 0.08135 0.0
C4 C 0.1477 0.24488 0.25264 0.0
C5 C 0.18178 0.28068 0.14135 0.0
O6 O 0.15681 0.241 0.084 0.0
O7 O 0.14176 0.2474 0.1209 0.0
O8 O 0.17036 0.27603 0.17113 0.0
O9 O 0.1838 0.26998 0.1235 0.0
C10 C 0.17776 0.23412 0.18384 0.0
O11 O 0.16115 0.25646 0.2453 0.0
O12 O 0.14179 0.23601 0.2151 0.0
In13 In 0.75137 0.91085 0.15895 0.0
O14 O 0.74378 0.9019 0.23833 0.0
O15 O 0.76469 0.90321 0.21161 0.0
C16 C 0.72148 0.89986 0.13023 0.0
C17 C 0.76625 0.94181 0.17927 0.0
C18 C 0.75973 0.89962 0.0797 0.0
O19 O 0.72507 0.89562 0.17039 0.0
O20 O 0.73294 0.90977 0.10474 0.0
O21 O 0.76299 0.9137 0.08255 0.0
O22 O 0.75277 0.89138 0.11764 0.0
C23 C 0.75516 0.89985 0.2475 0.0
O24 O 0.77351 0.93476 0.16798 0.0
O25 O 0.75159 0.93335 0.17907 0.0
In26 In 0.08013 0.83528 0.16321 0.0
O27 O 0.05653 0.83388 0.1752 0.0
O28 O 0.05749 0.81309 0.18462 0.0
C29 C 0.09131 0.85509 0.0844 0.0
C30 C 0.0935 0.85093 0.24901 0.0
C31 C 0.08934 0.81516 0.13194 0.0
O32 O 0.07726 0.84422 0.08717 0.0
O33 O 0.09957 0.8563 0.12223 0.0
O34 O 0.09069 0.81967 0.17699 0.0
O35 O 0.08302 0.8205 0.10294 0.0
C36 C 0.0493 0.81957 0.1863 0.0
O37 O 0.09455 0.83938 0.23404 0.0
O38 O 0.08592 0.85487 0.22014 0.0
In39 In 0.24053 0.15587 0.33811 0.0
O40 O 0.24761 0.14343 0.28081 0.0
O41 O 0.22402 0.13843 0.27996 0.0
C42 C 0.27021 0.17689 0.36395 0.0
C43 C 0.22777 0.17297 0.30679 0.0
C44 C 0.23129 0.13768 0.42096 0.0
O45 O 0.26674 0.17007 0.32187 0.0
O46 O 0.25869 0.17335 0.39239 0.0
O47 O 0.22905 0.14911 0.41567 0.0
O48 O 0.23769 0.13517 0.38389 0.0
C49 C 0.23428 0.13596 0.26074 0.0
O50 O 0.22052 0.16109 0.33455 0.0
O51 O 0.24149 0.1763 0.29538 0.0
In52 In 0.83294 0.08412 0.32422 0.0
O53 O 0.83787 0.09818 0.25245 0.0
O54 O 0.85343 0.08995 0.27092 0.0
C55 C 0.80981 0.08934 0.35334 0.0
C56 C 0.81869 0.05368 0.29763 0.0
C57 C 0.85194 0.09753 0.40392 0.0
O58 O 0.81791 0.09536 0.31439 0.0
O59 O 0.8132 0.08042 0.37749 0.0
O60 O 0.84414 0.08289 0.39809 0.0
O61 O 0.85051 0.10533 0.36885 0.0
C62 C 0.84972 0.09729 0.24015 0.0
O63 O 0.83103 0.06002 0.3236 0.0
O64 O 0.81349 0.0626 0.2861 0.0
In65 In 0.91017 0.75483 0.35642 0.0
O66 O 0.89064 0.74871 0.29936 0.0
O67 O 0.90985 0.77184 0.29853 0.0
C68 C 0.89546 0.7237 0.37324 0.0
C69 C 0.93999 0.76664 0.32627 0.0
C70 C 0.90851 0.76545 0.4483 0.0
O71 O 0.88969 0.73211 0.38519 0.0
O72 O 0.90867 0.73094 0.35218 0.0
O73 O 0.91618 0.75862 0.43975 0.0
O74 O 0.9021 0.76742 0.41008 0.0
C75 C 0.89702 0.76202 0.27912 0.0
O76 O 0.93602 0.77315 0.35937 0.0
O77 O 0.92896 0.75397 0.30925 0.0
In78 In 0.83982 0.75506 0.85397 0.0
O79 O 0.83436 0.77481 0.84616 0.0
O80 O 0.81919 0.75332 0.80974 0.0
C81 C 0.85503 0.76542 0.94229 0.0
C82 C 0.86142 0.76208 0.7814 0.0
C83 C 0.82023 0.72443 0.87366 0.0
O84 O 0.8419 0.76419 0.93385 0.0
O85 O 0.86074 0.76185 0.90563 0.0
O86 O 0.82684 0.72917 0.83159 0.0
O87 O 0.82329 0.73511 0.90517 0.0
C88 C 0.82249 0.76718 0.81878 0.0
O89 O 0.85496 0.74913 0.80423 0.0
O90 O 0.85727 0.77161 0.79602 0.0
In91 In 0.24018 0.08224 0.84281 0.0
O92 O 0.24851 0.09342 0.76603 0.0
O93 O 0.22657 0.08984 0.79124 0.0
C94 C 0.27065 0.09786 0.86833 0.0
C95 C 0.22612 0.05187 0.81567 0.0
C96 C 0.22947 0.0855 0.93247 0.0
O97 O 0.26262 0.10452 0.86409 0.0
O98 O 0.26336 0.08338 0.85907 0.0
O99 O 0.23443 0.07608 0.92549 0.0
O100 O 0.22938 0.09284 0.89372 0.0
C101 C 0.23665 0.09462 0.75664 0.0
O102 O 0.21863 0.05796 0.83408 0.0
O103 O 0.24065 0.061 0.8121 0.0
In104 In 0.91025 0.16143 0.82587 0.0
O105 O 0.93173 0.15914 0.80982 0.0
O106 O 0.93493 0.18199 0.81812 0.0
C107 C 0.89919 0.14248 0.90683 0.0
C108 C 0.89936 0.14753 0.73612 0.0
C109 C 0.90089 0.1822 0.84874 0.0
O110 O 0.91358 0.15193 0.90059 0.0
O111 O 0.89056 0.14228 0.87161 0.0
O112 O 0.89528 0.1728 0.81237 0.0
O113 O 0.9114 0.18132 0.87292 0.0
C114 C 0.94108 0.1737 0.8091 0.0
O115 O 0.90772 0.16217 0.74104 0.0
O116 O 0.89632 0.13987 0.7766 0.0
In117 In 0.74822 0.83318 0.65976 0.0
O118 O 0.74172 0.83442 0.74087 0.0
O119 O 0.7621 0.85413 0.71174 0.0
C120 C 0.71785 0.81505 0.63457 0.0
C121 C 0.76359 0.81761 0.67968 0.0
C122 C 0.75686 0.85192 0.57817 0.0
O123 O 0.72247 0.8258 0.66694 0.0
O124 O 0.72854 0.81329 0.61522 0.0
O125 O 0.75844 0.84002 0.58076 0.0
O126 O 0.75133 0.85458 0.61722 0.0
C127 C 0.75315 0.84792 0.74895 0.0
O128 O 0.77045 0.8316 0.6647 0.0
O129 O 0.74895 0.81137 0.68351 0.0
In130 In 0.15848 0.91025 0.66544 0.0
O131 O 0.1601 0.93415 0.6694 0.0
O132 O 0.17968 0.93245 0.69371 0.0
C133 C 0.14001 0.89916 0.58346 0.0
C134 C 0.14296 0.89956 0.75316 0.0
C135 C 0.1784 0.90024 0.63941 0.0
O136 O 0.15039 0.91335 0.588 0.0
O137 O 0.13861 0.89072 0.62093 0.0
O138 O 0.16809 0.89367 0.67291 0.0
O139 O 0.17881 0.91202 0.61924 0.0
C140 C 0.1737 0.94102 0.6878 0.0
O141 O 0.15618 0.90097 0.74492 0.0
O142 O 0.13732 0.9033 0.71667 0.0
In143 In 0.08275 0.24296 0.6624 0.0
O144 O 0.06037 0.21994 0.68003 0.0
O145 O 0.05886 0.24057 0.67416 0.0
C146 C 0.09454 0.23538 0.58265 0.0
C147 C 0.09442 0.24066 0.75144 0.0
C148 C 0.09213 0.27273 0.63579 0.0
O149 O 0.08021 0.2311 0.58638 0.0
O150 O 0.10274 0.24295 0.61986 0.0
O151 O 0.09734 0.26933 0.67417 0.0
O152 O 0.0821 0.26112 0.6111 0.0
C153 C 0.05187 0.2261 0.68285 0.0
O154 O 0.0904 0.25073 0.74277 0.0
O155 O 0.09264 0.23173 0.71495 0.0
In156 In 0.82517 0.57842 0.48647 0.0
O157 O 0.82335 0.58688 0.56423 0.0
O158 O 0.80494 0.56466 0.5411 0.0
C159 C 0.84034 0.60882 0.45947 0.0
C160 C 0.84169 0.56435 0.51073 0.0
C161 C 0.80826 0.56748 0.40161 0.0
O162 O 0.82617 0.60165 0.47269 0.0
O163 O 0.84695 0.60069 0.46011 0.0
O164 O 0.82252 0.57137 0.40376 0.0
O165 O 0.80248 0.5686 0.44263 0.0
C166 C 0.81053 0.5749 0.57517 0.0
O167 O 0.82836 0.55704 0.49056 0.0
O168 O 0.84678 0.57875 0.5173 0.0
In169 In 0.41174 0.24244 0.50301 0.0
O170 O 0.43434 0.26616 0.50452 0.0
O171 O 0.41334 0.26515 0.52848 0.0
C172 C 0.41742 0.23048 0.42012 0.0
C173 C 0.41811 0.23129 0.58703 0.0
C174 C 0.3817 0.23299 0.48053 0.0
O175 O 0.42395 0.24506 0.42762 0.0
O176 O 0.40845 0.22211 0.45489 0.0
O177 O 0.38555 0.22737 0.51681 0.0
O178 O 0.39302 0.24362 0.45628 0.0
C179 C 0.42788 0.27343 0.52193 0.0
O180 O 0.40834 0.23596 0.58601 0.0
O181 O 0.42462 0.23209 0.5455 0.0
In182 In 0.75 0.16698 0.50876 0.0
O183 O 0.76474 0.17376 0.57912 0.0
O184 O 0.75484 0.18782 0.55927 0.0
C185 C 0.7552 0.14342 0.4839 0.0
C186 C 0.71958 0.15187 0.53537 0.0
C187 C 0.76285 0.18633 0.42933 0.0
O188 O 0.76192 0.15258 0.52011 0.0
O189 O 0.74559 0.14595 0.4604 0.0
O190 O 0.74865 0.18062 0.44113 0.0
O191 O 0.77061 0.18276 0.45867 0.0
C192 C 0.76289 0.18513 0.59036 0.0
O193 O 0.72424 0.15894 0.49395 0.0
O194 O 0.73018 0.15229 0.56276 0.0
In195 In 0.91387 0.49504 0.66273 0.0
O196 O 0.89171 0.49688 0.65759 0.0
O197 O 0.91323 0.51656 0.63562 0.0
C198 C 0.90596 0.47627 0.74375 0.0
C199 C 0.90852 0.47862 0.5769 0.0
C200 C 0.94384 0.51432 0.69002 0.0
O201 O 0.90236 0.48683 0.73959 0.0
O202 O 0.91315 0.47496 0.70653 0.0
O203 O 0.94014 0.50527 0.65266 0.0
O204 O 0.93244 0.51381 0.71313 0.0
C205 C 0.89865 0.51061 0.64025 0.0
O206 O 0.91956 0.49251 0.58174 0.0
O207 O 0.90021 0.47288 0.61565 0.0
In208 In 0.50388 0.4163 0.66016 0.0
O209 O 0.50644 0.42791 0.58419 0.0
O210 O 0.52366 0.42204 0.60424 0.0
C211 C 0.48827 0.43101 0.68808 0.0
C212 C 0.48731 0.38564 0.63688 0.0
C213 C 0.52067 0.42221 0.74527 0.0
O214 O 0.50283 0.43815 0.68046 0.0
O215 O 0.4815 0.41641 0.68121 0.0
O216 O 0.5064 0.41185 0.74295 0.0
O217 O 0.52653 0.42908 0.70426 0.0
C218 C 0.5187 0.42781 0.57179 0.0
O219 O 0.50049 0.39162 0.65805 0.0
O220 O 0.48242 0.39503 0.62863 0.0
In221 In 0.57688 0.08372 0.67231 0.0
O222 O 0.56509 0.07652 0.59625 0.0
O223 O 0.57121 0.09921 0.62236 0.0
C224 C 0.56237 0.05294 0.6941 0.0
C225 C 0.60734 0.0979 0.64678 0.0
C226 C 0.57178 0.09333 0.76136 0.0
O227 O 0.55508 0.06026 0.68724 0.0
O228 O 0.57702 0.06112 0.68958 0.0
O229 O 0.58156 0.08876 0.75576 0.0
O230 O 0.56487 0.09349 0.72159 0.0
C231 C 0.56541 0.08922 0.58754 0.0
O232 O 0.60208 0.10384 0.67763 0.0
O233 O 0.5973 0.08478 0.62958 0.0
In234 In 0.50497 0.08709 0.17238 0.0
O235 O 0.50016 0.10741 0.17032 0.0
O236 O 0.4844 0.08654 0.13173 0.0
C237 C 0.52358 0.09735 0.25421 0.0
C238 C 0.52418 0.09253 0.09347 0.0
C239 C 0.48449 0.05707 0.1974 0.0
O240 O 0.51126 0.09815 0.25054 0.0
O241 O 0.52674 0.09188 0.21599 0.0
O242 O 0.49016 0.06104 0.15383 0.0
O243 O 0.48882 0.06826 0.22786 0.0
C244 C 0.48812 0.10038 0.14318 0.0
O245 O 0.52094 0.10261 0.10951 0.0
O246 O 0.51797 0.07986 0.11779 0.0
In247 In 0.91132 0.41829 0.16545 0.0
O248 O 0.91994 0.42832 0.08739 0.0
O249 O 0.89761 0.42441 0.10934 0.0
C250 C 0.94176 0.43271 0.19132 0.0
C251 C 0.89626 0.38734 0.14638 0.0
C252 C 0.90137 0.42532 0.25053 0.0
O253 O 0.93464 0.44006 0.18202 0.0
O254 O 0.93358 0.41804 0.18705 0.0
O255 O 0.90458 0.41445 0.24845 0.0
O256 O 0.90263 0.43219 0.20932 0.0
C257 C 0.90796 0.42903 0.07562 0.0
O258 O 0.88937 0.39414 0.16414 0.0
O259 O 0.91072 0.3961 0.13917 0.0
In260 In 0.57814 0.49186 0.15651 0.0
O261 O 0.60239 0.49425 0.15188 0.0
O262 O 0.59999 0.51353 0.12885 0.0
C263 C 0.5676 0.47337 0.23818 0.0
C264 C 0.56726 0.47521 0.07098 0.0
C265 C 0.56699 0.51084 0.18309 0.0
O266 O 0.58175 0.48389 0.23342 0.0
O267 O 0.55898 0.47194 0.20118 0.0
O268 O 0.56162 0.50154 0.14636 0.0
O269 O 0.57814 0.51073 0.20594 0.0
C270 C 0.60889 0.50792 0.13404 0.0
O271 O 0.57013 0.48913 0.07526 0.0
O272 O 0.56973 0.46955 0.11013 0.0
In273 In 0.41459 0.16858 0.9967 0.0
O274 O 0.41143 0.16788 0.08169 0.0
O275 O 0.42171 0.19007 0.04611 0.0
C276 C 0.38354 0.15383 0.97791 0.0
C277 C 0.43106 0.154 0.01352 0.0
C278 C 0.42555 0.18373 0.90873 0.0
O279 O 0.39181 0.1685 0.98078 0.0
O280 O 0.39085 0.14658 0.98539 0.0
O281 O 0.41843 0.169 0.91198 0.0
O282 O 0.4277 0.19076 0.9501 0.0
C283 C 0.41732 0.18244 0.0866 0.0
O284 O 0.43757 0.16865 0.00829 0.0
O285 O 0.41639 0.14679 0.00877 0.0
In286 In 0.8238 0.24466 0.0053 0.0
O287 O 0.82645 0.26892 0.01164 0.0
O288 O 0.84497 0.26592 0.039 0.0
C289 C 0.80415 0.23417 0.92588 0.0
C290 C 0.80727 0.23093 0.08942 0.0
C291 C 0.84526 0.23716 0.97402 0.0
O292 O 0.81485 0.24823 0.93015 0.0
O293 O 0.803 0.22555 0.96256 0.0
O294 O 0.8393 0.23391 0.01739 0.0
O295 O 0.84069 0.24456 0.94675 0.0
C296 C 0.83966 0.27505 0.03254 0.0
O297 O 0.81601 0.22675 0.06825 0.0
O298 O 0.80645 0.24182 0.06733 0.0
In299 In 0.75119 0.57984 0.99041 0.0
O300 O 0.72715 0.55775 0.99438 0.0
O301 O 0.72899 0.57929 0.01635 0.0
C302 C 0.7613 0.57192 0.90763 0.0
C303 C 0.76136 0.57351 0.07641 0.0
C304 C 0.76347 0.61046 0.96812 0.0
O305 O 0.74748 0.56938 0.91166 0.0
O306 O 0.7698 0.57806 0.94574 0.0
O307 O 0.76886 0.60566 0.00238 0.0
O308 O 0.75174 0.59984 0.94544 0.0
C309 C 0.72034 0.56472 0.01137 0.0
O310 O 0.75787 0.58414 0.07291 0.0
O311 O 0.75985 0.56606 0.03627 0.0
In312 In 0.48735 0.90834 0.81464 0.0
O313 O 0.49798 0.89257 0.8021 0.0
O314 O 0.50141 0.9037 0.87288 0.0
C315 C 0.47012 0.8954 0.7314 0.0
C316 C 0.47014 0.90593 0.89612 0.0
C317 C 0.50466 0.93864 0.78676 0.0
O318 O 0.48471 0.90086 0.73273 0.0
O319 O 0.46407 0.89571 0.77292 0.0
O320 O 0.49003 0.93083 0.78236 0.0
O321 O 0.51076 0.93123 0.80572 0.0
C322 C 0.50378 0.89468 0.84558 0.0
O323 O 0.48101 0.9188 0.87977 0.0
O324 O 0.46755 0.8941 0.87038 0.0
In325 In 0.08461 0.57823 0.83973 0.0
O326 O 0.10454 0.60344 0.83004 0.0
O327 O 0.08635 0.5991 0.88148 0.0
C328 C 0.09199 0.56682 0.75892 0.0
C329 C 0.09169 0.56808 0.92456 0.0
C330 C 0.0547 0.56841 0.81315 0.0
O331 O 0.09724 0.58128 0.76529 0.0
O332 O 0.08348 0.55821 0.79421 0.0
O333 O 0.05832 0.56189 0.84715 0.0
O334 O 0.06615 0.58007 0.79298 0.0
C335 C 0.09912 0.60898 0.86182 0.0
O336 O 0.07971 0.56941 0.91996 0.0
O337 O 0.10014 0.57159 0.88574 0.0
In338 In 0.41806 0.5044 0.82225 0.0
O339 O 0.42897 0.50655 0.8993 0.0
O340 O 0.42404 0.52433 0.87774 0.0
C341 C 0.43244 0.48834 0.79591 0.0
C342 C 0.38723 0.48859 0.84328 0.0
C343 C 0.42462 0.52124 0.73703 0.0
O344 O 0.43973 0.50292 0.80308 0.0
O345 O 0.41784 0.48176 0.80248 0.0
O346 O 0.41413 0.507 0.73911 0.0
O347 O 0.43136 0.52703 0.77826 0.0
C348 C 0.42925 0.51906 0.91104 0.0
O349 O 0.39376 0.50185 0.8225 0.0
O350 O 0.39617 0.4832 0.85227 0.0
In351 In 0.57866 0.82816 0.99673 0.0
O352 O 0.55701 0.83089 0.99622 0.0
O353 O 0.57742 0.84825 0.95933 0.0
C354 C 0.57008 0.81215 0.08408 0.0
C355 C 0.57326 0.81165 0.91111 0.0
C356 C 0.60932 0.84587 0.01893 0.0
O357 O 0.57149 0.8255 0.07895 0.0
O358 O 0.57255 0.8066 0.0446 0.0
O359 O 0.60389 0.83334 0.99413 0.0
O360 O 0.59934 0.84959 0.0321 0.0
C361 C 0.56333 0.84332 0.9707 0.0
O362 O 0.58494 0.8251 0.91739 0.0
O363 O 0.56427 0.80624 0.94867 0.0
In364 In 0.16824 0.75174 -0.00178 0.0
O365 O 0.17281 0.76393 0.92302 0.0
O366 O 0.18975 0.75826 0.94916 0.0
C367 C 0.14888 0.76288 0.01943 0.0
C368 C 0.15394 0.72145 0.97019 0.0
C369 C 0.18394 0.75918 0.08618 0.0
O370 O 0.16244 0.77134 0.00182 0.0
O371 O 0.14501 0.74874 0.02601 0.0
O372 O 0.17023 0.74784 0.08142 0.0
O373 O 0.18999 0.76662 0.04609 0.0
C374 C 0.18545 0.76406 0.91456 0.0
O375 O 0.16434 0.72693 0.00378 0.0
O376 O 0.15065 0.73116 0.95133 0.0
In377 In 0.24549 0.42153 0.99289 0.0
O378 O 0.22739 0.41109 0.93065 0.0
O379 O 0.24278 0.43566 0.92925 0.0
C380 C 0.23703 0.39234 0.02437 0.0
C381 C 0.27597 0.43551 0.96682 0.0
C382 C 0.23538 0.43141 0.07147 0.0
O383 O 0.23534 0.3954 0.97954 0.0
O384 O 0.24332 0.40406 0.05314 0.0
O385 O 0.24913 0.43374 0.06865 0.0
O386 O 0.22693 0.42463 0.03376 0.0
C387 C 0.23173 0.42385 0.90815 0.0
O388 O 0.26983 0.44301 0.98459 0.0
O389 O 0.26684 0.42099 0.96316 0.0
In390 In 0.16683 0.41346 0.4888 0.0
O391 O 0.15918 0.4315 0.50279 0.0
O392 O 0.14853 0.41549 0.44263 0.0
C393 C 0.18649 0.4213 0.56776 0.0
C394 C 0.18405 0.42043 0.40392 0.0
C395 C 0.14628 0.38372 0.51577 0.0
O396 O 0.1787 0.42799 0.55872 0.0
O397 O 0.18483 0.41112 0.53586 0.0
O398 O 0.15596 0.38714 0.48048 0.0
O399 O 0.14675 0.39533 0.53737 0.0
C400 C 0.1496 0.42695 0.46677 0.0
O401 O 0.17215 0.40731 0.41224 0.0
O402 O 0.1877 0.43017 0.43929 0.0
In403 In 0.57568 0.75175 0.49826 0.0
O404 O 0.58298 0.772 0.44344 0.0
O405 O 0.56076 0.7517 0.43266 0.0
C406 C 0.60554 0.76084 0.52373 0.0
C407 C 0.56231 0.72148 0.47076 0.0
C408 C 0.56545 0.7604 0.57966 0.0
O409 O 0.60177 0.76288 0.48025 0.0
O410 O 0.59425 0.75396 0.55382 0.0
O411 O 0.5646 0.74725 0.57638 0.0
O412 O 0.57089 0.7689 0.54117 0.0
C413 C 0.57068 0.76517 0.41735 0.0
O414 O 0.55502 0.72685 0.49494 0.0
O415 O 0.5764 0.73132 0.46132 0.0
In416 In 0.24492 0.82533 0.49948 0.0
O417 O 0.2248 0.81288 0.44409 0.0
O418 O 0.24453 0.80989 0.43489 0.0
C419 C 0.23636 0.84649 0.52485 0.0
C420 C 0.2751 0.84186 0.47111 0.0
C421 C 0.2359 0.80655 0.58122 0.0
O422 O 0.23384 0.84032 0.48182 0.0
O423 O 0.2435 0.84226 0.55454 0.0
O424 O 0.24935 0.81839 0.57724 0.0
O425 O 0.22728 0.80388 0.54327 0.0
C426 C 0.23128 0.80687 0.41886 0.0
O427 O 0.26968 0.82922 0.49543 0.0
O428 O 0.26536 0.84628 0.46196 0.0
In429 In 0.08454 0.50481 0.33345 0.0
O430 O 0.07503 0.51057 0.4028 0.0
O431 O 0.09963 0.52333 0.39189 0.0
C432 C 0.05444 0.4888 0.30301 0.0
C433 C 0.09705 0.48696 0.35904 0.0
C434 C 0.09747 0.52244 0.25095 0.0
O435 O 0.06225 0.50351 0.30454 0.0
O436 O 0.06174 0.48203 0.31726 0.0
O437 O 0.09236 0.50788 0.25175 0.0
O438 O 0.09661 0.5282 0.29243 0.0
C439 C 0.08818 0.52079 0.4194 0.0
O440 O 0.1023 0.49662 0.32321 0.0
O441 O 0.08545 0.48621 0.38141 0.0
In442 In 0.49358 0.57949 0.32499 0.0
O443 O 0.495 0.60328 0.33039 0.0
O444 O 0.51537 0.6021 0.34767 0.0
C445 C 0.47497 0.56864 0.24365 0.0
C446 C 0.47739 0.56886 0.41141 0.0
C447 C 0.51246 0.5681 0.29984 0.0
O448 O 0.4855 0.58281 0.2479 0.0
O449 O 0.47359 0.56015 0.28098 0.0
O450 O 0.50343 0.56318 0.33733 0.0
O451 O 0.51217 0.57894 0.27563 0.0
C452 C 0.50907 0.61046 0.34459 0.0
O453 O 0.49159 0.5727 0.4074 0.0
O454 O 0.47125 0.57028 0.37162 0.0
In455 In 0.41655 0.91321 0.32135 0.0
O456 O 0.39252 0.89121 0.32588 0.0
O457 O 0.39436 0.9129 0.34605 0.0
C458 C 0.42603 0.9057 0.23617 0.0
C459 C 0.42648 0.90592 0.40636 0.0
C460 C 0.42839 0.94388 0.30085 0.0
O461 O 0.41188 0.90156 0.24418 0.0
O462 O 0.43523 0.91321 0.27163 0.0
O463 O 0.4342 0.93907 0.33375 0.0
O464 O 0.4165 0.93325 0.27885 0.0
C465 C 0.3857 0.8983 0.34173 0.0
O466 O 0.42262 0.91631 0.40461 0.0
O467 O 0.42563 0.89934 0.3649 0.0
H468 H 0.19801 0.16711 0.32222 0.0
H469 H 0.24142 0.1992 0.24856 0.0
H470 H 0.18613 0.18193 0.29006 0.0
H471 H 0.22948 0.2139 0.21586 0.0
H472 H 0.20741 0.24562 0.2193 0.0
H473 H 0.21963 0.23078 0.24808 0.0
H474 H 0.17783 0.18766 0.20904 0.0
H475 H 0.16553 0.2025 0.18083 0.0
C476 C 0.205 0.17732 0.29912 0.0
C477 C 0.22064 0.18203 0.28797 0.0
C478 C 0.19817 0.18573 0.28041 0.0
C479 C 0.20687 0.19904 0.25032 0.0
C480 C 0.22254 0.20378 0.23934 0.0
C481 C 0.22935 0.19533 0.25791 0.0
C482 C 0.20088 0.23298 0.21657 0.0
C483 C 0.18551 0.2252 0.19798 0.0
C484 C 0.2079 0.22449 0.23285 0.0
C485 C 0.19966 0.20806 0.23101 0.0
C486 C 0.18438 0.20031 0.21155 0.0
C487 C 0.17738 0.2088 0.19509 0.0
H488 H 0.82723 0.03184 0.31855 0.0
H489 H 0.79317 0.03862 0.2374 0.0
H490 H 0.81471 0.00481 0.28878 0.0
H491 H 0.78093 0.01184 0.20673 0.0
H492 H 0.75265 0.95858 0.20908 0.0
H493 H 0.7655 0.98554 0.23821 0.0
H494 H 0.81061 0.98966 0.21201 0.0
H495 H 0.79768 0.96244 0.1839 0.0
C496 C 0.8171 0.02756 0.2943 0.0
C497 C 0.81113 0.03729 0.28047 0.0
C498 C 0.81 0.01213 0.27694 0.0
C499 C 0.79682 0.00618 0.2454 0.0
C500 C 0.79092 0.01598 0.23156 0.0
C501 C 0.79797 0.03135 0.24898 0.0
C502 C 0.76531 0.96526 0.2093 0.0
C503 C 0.77417 0.95843 0.19417 0.0
C504 C 0.77268 0.98074 0.22581 0.0
C505 C 0.78908 0.98975 0.22741 0.0
C506 C 0.79795 0.98295 0.21183 0.0
C507 C 0.79056 0.96742 0.19536 0.0
H508 H 0.95133 0.75457 0.25655 0.0
H509 H 0.96493 0.79488 0.35148 0.0
H510 H 0.97759 0.76713 0.22047 0.0
H511 H 0.9912 0.80735 0.3158 0.0
H512 H 0.03022 0.83182 0.20032 0.0
H513 H 0.00365 0.81859 0.23389 0.0
H514 H 0.00489 0.77555 0.24516 0.0
H515 H 0.0314 0.78874 0.21106 0.0
C516 C 0.95997 0.76606 0.26997 0.0
C517 C 0.9561 0.77377 0.30676 0.0
C518 C 0.975 0.77322 0.24941 0.0
C519 C 0.98641 0.78826 0.26509 0.0
C520 C 0.98258 0.79585 0.30243 0.0
C521 C 0.96758 0.78867 0.32314 0.0
C522 C 0.02476 0.81951 0.20959 0.0
C523 C 0.03287 0.81131 0.20319 0.0
C524 C 0.00961 0.81197 0.22916 0.0
C525 C 0.00225 0.79607 0.24251 0.0
C526 C 0.01023 0.78778 0.2349 0.0
C527 C 0.02541 0.79534 0.21554 0.0
H528 H 0.82824 0.797 0.83055 0.0
H529 H 0.79668 0.75308 0.75855 0.0
H530 H 0.81392 0.80876 0.79379 0.0
H531 H 0.78247 0.76493 0.72109 0.0
H532 H 0.75129 0.78781 0.71496 0.0
H533 H 0.76546 0.77528 0.74724 0.0
H534 H 0.80929 0.81667 0.711 0.0
H535 H 0.79511 0.82928 0.67945 0.0
C536 C 0.81825 0.78987 0.80683 0.0
C537 C 0.81355 0.77413 0.79746 0.0
C538 C 0.81012 0.79664 0.78545 0.0
C539 C 0.79713 0.7878 0.7543 0.0
C540 C 0.79236 0.772 0.74524 0.0
C541 C 0.80052 0.76524 0.76656 0.0
C542 C 0.76394 0.79416 0.71351 0.0
C543 C 0.77211 0.80954 0.69493 0.0
C544 C 0.77206 0.78697 0.73181 0.0
C545 C 0.78849 0.79503 0.73198 0.0
C546 C 0.79663 0.81026 0.71209 0.0
C547 C 0.78851 0.81744 0.69371 0.0
H548 H 0.2399 0.03725 0.76956 0.0
H549 H 0.19513 0.02981 0.82037 0.0
H550 H 0.22731 0.01072 0.73637 0.0
H551 H 0.18253 0.00306 0.78826 0.0
H552 H 0.16331 0.96188 0.67878 0.0
H553 H 0.17608 0.98883 0.70917 0.0
H554 H 0.21455 0.98402 0.76532 0.0
H555 H 0.20199 0.9573 0.73385 0.0
C556 C 0.22738 0.02988 0.77401 0.0
C557 C 0.21849 0.03557 0.79761 0.0
C558 C 0.22017 0.01466 0.75516 0.0
C559 C 0.20392 0.00477 0.75965 0.0
C560 C 0.19504 0.01046 0.78356 0.0
C561 C 0.20226 0.02572 0.80231 0.0
C562 C 0.17455 0.96665 0.6973 0.0
C563 C 0.18167 0.95752 0.70389 0.0
C564 C 0.1818 0.98203 0.71506 0.0
C565 C 0.19631 0.98855 0.73983 0.0
C566 C 0.20348 0.97943 0.74585 0.0
C567 C 0.19625 0.96409 0.728 0.0
H568 H 0.03595 0.19685 0.72397 0.0
H569 H 0.03065 0.2359 0.6778 0.0
H570 H 0.00935 0.18369 0.75742 0.0
H571 H 0.00396 0.2226 0.70931 0.0
H572 H 0.96395 0.2041 0.81799 0.0
H573 H 0.99077 0.2161 0.78785 0.0
H574 H 0.9822 0.17102 0.73535 0.0
H575 H 0.95549 0.15894 0.7674 0.0
C576 C 0.029 0.20249 0.7203 0.0
C577 C 0.03536 0.21741 0.69857 0.0
C578 C 0.01376 0.19496 0.73935 0.0
C579 C 0.00457 0.20217 0.73662 0.0
C580 C 0.01083 0.21688 0.71324 0.0
C581 C 0.02608 0.22445 0.69472 0.0
C582 C 0.96786 0.19674 0.80047 0.0
C583 C 0.95765 0.18062 0.79484 0.0
C584 C 0.98318 0.20362 0.78276 0.0
C585 C 0.98858 0.19456 0.75843 0.0
C586 C 0.97847 0.17832 0.75418 0.0
C587 C 0.96316 0.17141 0.77241 0.0
H588 H 0.86958 0.57766 0.5598 0.0
H589 H 0.83313 0.53352 0.5015 0.0
H590 H 0.8832 0.56472 0.59295 0.0
H591 H 0.84696 0.52059 0.53366 0.0
H592 H 0.86732 0.50015 0.64509 0.0
H593 H 0.85357 0.51324 0.61353 0.0
H594 H 0.89756 0.5523 0.5646 0.0
H595 H 0.91128 0.5394 0.59717 0.0
C596 C 0.86456 0.56521 0.55363 0.0
C597 C 0.85031 0.55659 0.52803 0.0
C598 C 0.87239 0.5578 0.57249 0.0
C599 C 0.86615 0.54162 0.56603 0.0
C600 C 0.85195 0.53304 0.53991 0.0
C601 C 0.8441 0.54045 0.52112 0.0
C602 C 0.87403 0.51158 0.62792 0.0
C603 C 0.89036 0.51878 0.62367 0.0
C604 C 0.86616 0.51902 0.60947 0.0
C605 C 0.87447 0.53378 0.58637 0.0
C606 C 0.89083 0.54102 0.58271 0.0
C607 C 0.89869 0.53361 0.60122 0.0
H608 H 0.41621 0.29072 0.56281 0.0
H609 H 0.45935 0.29363 0.51427 0.0
H610 H 0.43065 0.31775 0.59129 0.0
H611 H 0.47383 0.3209 0.54186 0.0
H612 H 0.49551 0.36317 0.64894 0.0
H613 H 0.4812 0.33606 0.61997 0.0
H614 H 0.4453 0.34404 0.5581 0.0
H615 H 0.4594 0.37095 0.58795 0.0
C616 C 0.42878 0.2972 0.55777 0.0
C617 C 0.43666 0.29009 0.53628 0.0
C618 C 0.43705 0.31271 0.57393 0.0
C619 C 0.45339 0.32147 0.56887 0.0
C620 C 0.46127 0.31439 0.54687 0.0
C621 C 0.45297 0.29884 0.53071 0.0
C622 C 0.48453 0.35908 0.62937 0.0
C623 C 0.47854 0.36913 0.62086 0.0
C624 C 0.4764 0.3436 0.61242 0.0
C625 C 0.46213 0.33791 0.58666 0.0
C626 C 0.45616 0.348 0.57837 0.0
C627 C 0.46426 0.36343 0.59533 0.0
H628 H 0.69394 0.14436 0.47756 0.0
H629 H 0.70812 0.14165 0.62919 0.0
H630 H 0.66658 0.13126 0.50475 0.0
H631 H 0.68084 0.12874 0.65629 0.0
H632 H 0.63207 0.12327 0.68994 0.0
H633 H 0.65939 0.1365 0.66251 0.0
H634 H 0.64696 0.10373 0.53986 0.0
H635 H 0.6197 0.0904 0.56746 0.0
C636 C 0.6912 0.14098 0.51662 0.0
C637 C 0.7031 0.14397 0.55127 0.0
C638 C 0.67559 0.13346 0.53208 0.0
C639 C 0.67168 0.12905 0.58257 0.0
C640 C 0.6836 0.13215 0.61725 0.0
C641 C 0.69916 0.13944 0.60166 0.0
C642 C 0.6352 0.1189 0.6572 0.0
C643 C 0.62382 0.10581 0.63086 0.0
C644 C 0.65079 0.12642 0.64165 0.0
C645 C 0.6552 0.12112 0.59907 0.0
C646 C 0.6438 0.1081 0.57256 0.0
C647 C 0.62826 0.10044 0.58854 0.0
H648 H 0.49327 0.12955 0.1656 0.0
H649 H 0.46382 0.08848 0.07698 0.0
H650 H 0.47962 0.14243 0.1319 0.0
H651 H 0.45047 0.1015 0.04213 0.0
H652 H 0.41888 0.12315 0.0354 0.0
H653 H 0.43266 0.11017 0.06652 0.0
H654 H 0.47653 0.15365 0.05507 0.0
H655 H 0.46261 0.16675 0.02526 0.0
C656 C 0.48389 0.1233 0.13886 0.0
C657 C 0.47956 0.108 0.12404 0.0
C658 C 0.47616 0.13072 0.11919 0.0
C659 C 0.46399 0.12303 0.08413 0.0
C660 C 0.45966 0.10769 0.06951 0.0
C661 C 0.46734 0.10025 0.08935 0.0
C662 C 0.43149 0.12991 0.03915 0.0
C663 C 0.43968 0.14597 0.028 0.0
C664 C 0.4394 0.12245 0.05681 0.0
C665 C 0.4557 0.13087 0.06348 0.0
C666 C 0.46394 0.14688 0.05115 0.0
C667 C 0.456 0.15436 0.03368 0.0
H668 H 0.83053 0.29682 0.02251 0.0
H669 H 0.86762 0.29023 0.0814 0.0
H670 H 0.84423 0.32386 0.05184 0.0
H671 H 0.88117 0.31715 0.11166 0.0
H672 H 0.90877 0.3708 0.10529 0.0
H673 H 0.89504 0.34359 0.07816 0.0
H674 H 0.8514 0.33885 0.13004 0.0
H675 H 0.86513 0.36623 0.15627 0.0
C676 C 0.84159 0.30115 0.04181 0.0
C677 C 0.84804 0.29146 0.04956 0.0
C678 C 0.84938 0.31659 0.05895 0.0
C679 C 0.86376 0.32263 0.08419 0.0
C680 C 0.8702 0.3129 0.09184 0.0
C681 C 0.86242 0.29747 0.07467 0.0
C682 C 0.89626 0.36393 0.11113 0.0
C683 C 0.88801 0.37063 0.1328 0.0
C684 C 0.8884 0.34832 0.0958 0.0
C685 C 0.87213 0.33908 0.10186 0.0
C686 C 0.86391 0.34574 0.12424 0.0
C687 C 0.87178 0.36137 0.13957 0.0
H688 H 0.6306 0.49855 0.14201 0.0
H689 H 0.62429 0.53639 0.08866 0.0
H690 H 0.65758 0.51233 0.11184 0.0
H691 H 0.65103 0.54993 0.05735 0.0
H692 H 0.70429 0.57725 0.05581 0.0
H693 H 0.67754 0.56352 0.08699 0.0
H694 H 0.67222 0.51975 0.03361 0.0
H695 H 0.69921 0.5335 0.00359 0.0
C696 C 0.63499 0.50981 0.12388 0.0
C697 C 0.62538 0.51642 0.11781 0.0
C698 C 0.65039 0.51764 0.10622 0.0
C699 C 0.65644 0.53222 0.08205 0.0
C700 C 0.64681 0.53884 0.07637 0.0
C701 C 0.63146 0.53104 0.09415 0.0
C702 C 0.69738 0.56471 0.0505 0.0
C703 C 0.70382 0.55644 0.02723 0.0
C704 C 0.68203 0.55684 0.06822 0.0
C705 C 0.67274 0.54054 0.06285 0.0
C706 C 0.67914 0.53229 0.039 0.0
C707 C 0.69454 0.54016 0.02142 0.0
H708 H 0.51612 0.88022 0.78983 0.0
H709 H 0.51102 0.89207 0.94233 0.0
H710 H 0.53074 0.86785 0.8207 0.0
H711 H 0.5254 0.87953 0.97304 0.0
H712 H 0.53516 0.83855 0.0042 0.0
H713 H 0.52065 0.85103 0.97363 0.0
H714 H 0.55747 0.87783 0.86705 0.0
H715 H 0.5721 0.86555 0.89798 0.0
C716 C 0.51809 0.88014 0.82986 0.0
C717 C 0.51248 0.88711 0.86371 0.0
C718 C 0.52648 0.87314 0.84745 0.0
C719 C 0.52914 0.87276 0.89919 0.0
C720 C 0.52339 0.87959 0.93301 0.0
C721 C 0.51525 0.88682 0.9154 0.0
C722 C 0.54017 0.84716 0.97442 0.0
C723 C 0.55475 0.85113 0.95352 0.0
C724 C 0.5319 0.8543 0.95706 0.0
C725 C 0.53796 0.86532 0.91794 0.0
C726 C 0.55252 0.86926 0.89697 0.0
C727 C 0.5609 0.86232 0.91489 0.0
H728 H 0.12204 0.63379 0.81029 0.0
H729 H 0.0947 0.62148 0.94682 0.0
H730 H 0.13572 0.66136 0.83604 0.0
H731 H 0.10863 0.64891 0.97288 0.0
H732 H 0.15233 0.69665 0.02066 0.0
H733 H 0.13915 0.66926 0.99351 0.0
H734 H 0.1256 0.682 0.855 0.0
H735 H 0.13842 0.70932 0.8825 0.0
C736 C 0.119 0.63699 0.84575 0.0
C737 C 0.10731 0.62557 0.87653 0.0
C738 C 0.12678 0.65269 0.86035 0.0
C739 C 0.12321 0.65712 0.90643 0.0
C740 C 0.11162 0.6457 0.93734 0.0
C741 C 0.10362 0.63007 0.92229 0.0
C742 C 0.14654 0.69358 0.98444 0.0
C743 C 0.14631 0.70503 0.95372 0.0
C744 C 0.139 0.67796 0.96904 0.0
C745 C 0.13144 0.67365 0.92225 0.0
C746 C 0.13145 0.68513 0.89113 0.0
C747 C 0.13869 0.70068 0.90698 0.0
H748 H 0.29104 0.42166 0.92402 0.0
H749 H 0.29775 0.46659 0.97003 0.0
H750 H 0.31772 0.43432 0.89192 0.0
H751 H 0.32459 0.47926 0.93888 0.0
H752 H 0.36583 0.4981 0.82991 0.0
H753 H 0.33879 0.48509 0.85938 0.0
H754 H 0.34446 0.44785 0.92231 0.0
H755 H 0.37133 0.46067 0.89194 0.0
C756 C 0.29827 0.43424 0.92762 0.0
C757 C 0.29234 0.44315 0.94953 0.0
C758 C 0.31357 0.44148 0.9094 0.0
C759 C 0.32326 0.45779 0.91277 0.0
C760 C 0.31734 0.46669 0.93506 0.0
C761 C 0.30202 0.45944 0.95326 0.0
C762 C 0.36124 0.48708 0.84972 0.0
C763 C 0.37066 0.48038 0.85861 0.0
C764 C 0.34581 0.47969 0.86693 0.0
C765 C 0.33952 0.46548 0.89338 0.0
C766 C 0.34891 0.4587 0.90158 0.0
C767 C 0.36431 0.46607 0.88435 0.0
H768 H 0.09182 0.47044 0.44577 0.0
H769 H 0.11824 0.48232 0.30739 0.0
H770 H 0.10402 0.45534 0.4727 0.0
H771 H 0.1303 0.46705 0.33419 0.0
H772 H 0.13394 0.42364 0.37939 0.0
H773 H 0.12072 0.43781 0.35314 0.0
H774 H 0.13243 0.46231 0.49504 0.0
H775 H 0.14585 0.44827 0.52121 0.0
C776 C 0.10017 0.46975 0.42104 0.0
C777 C 0.10411 0.47753 0.37452 0.0
C778 C 0.10718 0.46119 0.43656 0.0
C779 C 0.11806 0.46007 0.40547 0.0
C780 C 0.12184 0.46766 0.35864 0.0
C781 C 0.11501 0.47643 0.34344 0.0
C782 C 0.13361 0.43198 0.40508 0.0
C783 C 0.14091 0.43489 0.4523 0.0
C784 C 0.12613 0.44013 0.38993 0.0
C785 C 0.12562 0.45115 0.42206 0.0
C786 C 0.13261 0.4538 0.46974 0.0
C787 C 0.14031 0.44583 0.4846 0.0
H788 H 0.49769 0.63061 0.34398 0.0
H789 H 0.53885 0.62771 0.37967 0.0
H790 H 0.51078 0.65764 0.37363 0.0
H791 H 0.55181 0.65457 0.41026 0.0
H792 H 0.5754 0.70793 0.41456 0.0
H793 H 0.56266 0.68135 0.38135 0.0
H794 H 0.51947 0.67164 0.45331 0.0
H795 H 0.53215 0.69835 0.48563 0.0
C796 C 0.50955 0.63577 0.35799 0.0
C797 C 0.51725 0.62707 0.35954 0.0
C798 C 0.517 0.6512 0.37533 0.0
C799 C 0.5323 0.65821 0.39456 0.0
C800 C 0.54008 0.64956 0.3952 0.0
C801 C 0.53264 0.63416 0.37785 0.0
C802 C 0.5632 0.7001 0.4234 0.0
C803 C 0.55476 0.70519 0.45269 0.0
C804 C 0.55591 0.68486 0.40452 0.0
C805 C 0.54004 0.6744 0.41458 0.0
C806 C 0.53165 0.67949 0.44424 0.0
C807 C 0.53894 0.69474 0.4631 0.0
H808 H 0.36908 0.91124 0.37926 0.0
H809 H 0.36505 0.8669 0.33973 0.0
H810 H 0.3423 0.89766 0.41063 0.0
H811 H 0.33812 0.85331 0.37027 0.0
H812 H 0.2979 0.83427 0.48418 0.0
H813 H 0.32451 0.84799 0.45106 0.0
H814 H 0.31535 0.88223 0.38182 0.0
H815 H 0.28886 0.86868 0.41574 0.0
C816 C 0.3624 0.89859 0.37678 0.0
C817 C 0.36914 0.89011 0.35714 0.0
C818 C 0.34705 0.89082 0.39458 0.0
C819 C 0.33813 0.87441 0.39312 0.0
C820 C 0.34479 0.86595 0.37259 0.0
C821 C 0.36015 0.87373 0.35475 0.0
C822 C 0.30161 0.84476 0.46208 0.0
C823 C 0.29134 0.85043 0.45261 0.0
C824 C 0.3168 0.85255 0.44277 0.0
C825 C 0.322 0.86615 0.41363 0.0
C826 C 0.31174 0.87187 0.40454 0.0
C827 C 0.29656 0.86408 0.42384 0.0
H828 H 0.10328 0.21962 0.78028 0.0
H829 H 0.09986 0.25918 0.83334 0.0
H830 H 0.11401 0.21809 0.86153 0.0
H831 H 0.11087 0.25789 0.91382 0.0
H832 H 0.11834 0.24408 0.06759 0.0
H833 H 0.1049 0.242 0.98859 0.0
H834 H 0.13788 0.23295 0.91 0.0
H835 H 0.15107 0.23464 0.98925 0.0
C836 C 0.10484 0.22799 0.80929 0.0
C837 C 0.10076 0.23953 0.80051 0.0
C838 C 0.11103 0.22715 0.85571 0.0
C839 C 0.11326 0.23784 0.8942 0.0
C840 C 0.10906 0.24931 0.88533 0.0
C841 C 0.10286 0.25013 0.83905 0.0
C842 C 0.12259 0.24145 0.03351 0.0
C843 C 0.1358 0.23961 0.03449 0.0
C844 C 0.11496 0.24036 0.98822 0.0
C845 C 0.12042 0.23747 0.94291 0.0
C846 C 0.13329 0.23505 0.94426 0.0
C847 C 0.14089 0.23609 0.98962 0.0
H848 H 0.75443 0.86999 0.06593 0.0
H849 H 0.77009 0.91384 0.98864 0.0
H850 H 0.75479 0.85771 0.98681 0.0
H851 H 0.77005 0.90148 0.90922 0.0
H852 H 0.77742 0.87645 0.7771 0.0
H853 H 0.78146 0.88927 0.85883 0.0
H854 H 0.73854 0.84985 0.91297 0.0
H855 H 0.73476 0.83697 0.83208 0.0
C856 C 0.75812 0.87704 0.0321 0.0
C857 C 0.76212 0.89284 0.03337 0.0
C858 C 0.75821 0.86999 0.9867 0.0
C859 C 0.76222 0.87855 0.94154 0.0
C860 C 0.76699 0.89457 0.94331 0.0
C861 C 0.76697 0.90165 0.98881 0.0
C862 C 0.76891 0.87053 0.80663 0.0
C863 C 0.75576 0.85573 0.79823 0.0
C864 C 0.77119 0.87788 0.85335 0.0
C865 C 0.76036 0.87056 0.89254 0.0
C866 C 0.74728 0.8557 0.88401 0.0
C867 C 0.74503 0.84836 0.83745 0.0
H868 H 0.1211 0.87899 0.06985 0.0
H869 H 0.07686 0.85163 0.99397 0.0
H870 H 0.1333 0.89138 0.99035 0.0
H871 H 0.08913 0.86373 0.9142 0.0
H872 H 0.11477 0.89619 0.78174 0.0
H873 H 0.10193 0.88755 0.86359 0.0
H874 H 0.14033 0.88207 0.91624 0.0
H875 H 0.15321 0.89094 0.83528 0.0
C876 C 0.11394 0.87577 0.03628 0.0
C877 C 0.09806 0.86425 0.03803 0.0
C878 C 0.12095 0.88278 0.99067 0.0
C879 C 0.11224 0.87836 0.9458 0.0
C880 C 0.09615 0.86746 0.94807 0.0
C881 C 0.08913 0.86048 0.99377 0.0
C882 C 0.12045 0.89316 0.81094 0.0
C883 C 0.13498 0.89421 0.80214 0.0
C884 C 0.11309 0.88819 0.85772 0.0
C885 C 0.12016 0.88423 0.89656 0.0
C886 C 0.13471 0.88533 0.88755 0.0
C887 C 0.14203 0.89028 0.84094 0.0
H888 H 0.21239 0.0988 0.72719 0.0
H889 H 0.25616 0.10365 0.67622 0.0
H890 H 0.20874 0.10769 0.64488 0.0
H891 H 0.25259 0.11259 0.59472 0.0
H892 H 0.23548 0.11295 0.43994 0.0
H893 H 0.23509 0.10152 0.52148 0.0
H894 H 0.22112 0.13204 0.59216 0.0
H895 H 0.22131 0.14338 0.51022 0.0
C896 C 0.22124 0.10182 0.6985 0.0
C897 C 0.23455 0.10052 0.70801 0.0
C898 C 0.21916 0.10691 0.65152 0.0
C899 C 0.2303 0.11066 0.61325 0.0
C900 C 0.24365 0.10949 0.62313 0.0
C901 C 0.24576 0.10449 0.66997 0.0
C902 C 0.23207 0.11705 0.47274 0.0
C903 C 0.22858 0.12916 0.46884 0.0
C904 C 0.23194 0.11057 0.51945 0.0
C905 C 0.22833 0.11608 0.56325 0.0
C906 C 0.22392 0.12755 0.55901 0.0
C907 C 0.22406 0.13405 0.51215 0.0
H908 H 0.85879 0.08373 0.48135 0.0
H909 H 0.86493 0.12807 0.43115 0.0
H910 H 0.87168 0.09574 0.5606 0.0
H911 H 0.87715 0.13992 0.51077 0.0
H912 H 0.909 0.16072 0.64367 0.0
H913 H 0.89934 0.14853 0.56202 0.0
H914 H 0.8666 0.10529 0.63574 0.0
H915 H 0.87683 0.11737 0.71728 0.0
C916 C 0.86296 0.09605 0.48722 0.0
C917 C 0.86086 0.10497 0.45012 0.0
C918 C 0.87022 0.10292 0.53278 0.0
C919 C 0.87539 0.1188 0.54237 0.0
C920 C 0.87357 0.12774 0.50458 0.0
C921 C 0.86648 0.12093 0.45892 0.0
C922 C 0.89978 0.14859 0.64232 0.0
C923 C 0.8936 0.14001 0.68676 0.0
C924 C 0.89418 0.1416 0.59552 0.0
C925 C 0.8821 0.12592 0.59211 0.0
C926 C 0.87607 0.11731 0.63676 0.0
C927 C 0.88183 0.12425 0.68357 0.0
H928 H 0.87485 0.78814 0.72205 0.0
H929 H 0.87157 0.74317 0.74255 0.0
H930 H 0.88961 0.79202 0.6445 0.0
H931 H 0.88607 0.74692 0.66484 0.0
H932 H 0.91931 0.76022 0.53638 0.0
H933 H 0.91107 0.76209 0.62137 0.0
H934 H 0.88239 0.77995 0.56118 0.0
H935 H 0.89083 0.77833 0.47642 0.0
C936 C 0.87746 0.77918 0.71032 0.0
C937 C 0.87196 0.76529 0.7381 0.0
C938 C 0.88585 0.78137 0.66583 0.0
C939 C 0.88894 0.76975 0.64836 0.0
C940 C 0.88406 0.75619 0.67751 0.0
C941 C 0.87565 0.75398 0.7219 0.0
C942 C 0.91149 0.76485 0.54143 0.0
C943 C 0.90559 0.769 0.49976 0.0
C944 C 0.9067 0.76583 0.59006 0.0
C945 C 0.89595 0.771 0.59797 0.0
C946 C 0.89079 0.77604 0.55645 0.0
C947 C 0.89557 0.77504 0.50782 0.0
H948 H 0.84166 0.76651 0.03061 0.0
H949 H 0.88438 0.77173 0.96786 0.0
H950 H 0.85198 0.76825 0.11534 0.0
H951 H 0.89474 0.77363 0.05265 0.0
H952 H 0.91214 0.78654 0.21439 0.0
H953 H 0.90246 0.79032 0.13385 0.0
H954 H 0.85792 0.74878 0.16101 0.0
H955 H 0.86762 0.74489 0.24106 0.0
C956 C 0.85337 0.76835 0.03491 0.0
C957 C 0.86219 0.76888 0.99272 0.0
C958 C 0.85923 0.76928 0.08335 0.0
C959 C 0.8741 0.77099 0.09042 0.0
C960 C 0.88327 0.77242 0.04819 0.0
C961 C 0.87733 0.77127 -0.00027 0.0
C962 C 0.90021 0.77837 0.20345 0.0
C963 C 0.89063 0.76538 0.23375 0.0
C964 C 0.89472 0.7805 0.15737 0.0
C965 C 0.87947 0.76983 0.14133 0.0
C966 C 0.86968 0.75726 0.17274 0.0
C967 C 0.87525 0.75499 0.21837 0.0
H968 H 0.23383 0.07507 0.0226 0.0
H969 H 0.21785 0.10459 0.95641 0.0
H970 H 0.23255 0.08473 0.106 0.0
H971 H 0.21663 0.11426 0.03973 0.0
H972 H 0.20812 0.12247 0.20184 0.0
H973 H 0.20396 0.10725 0.12498 0.0
H974 H 0.24928 0.11126 0.14374 0.0
H975 H 0.25343 0.12641 0.22033 0.0
C976 C 0.22974 0.08338 0.02596 0.0
C977 C 0.22608 0.0892 0.98301 0.0
C978 C 0.2291 0.08896 0.07364 0.0
C979 C 0.22464 0.10035 0.07925 0.0
C980 C 0.22001 0.10541 0.03658 0.0
C981 C 0.22077 0.09992 0.98886 0.0
C982 C 0.2171 0.11993 0.18979 0.0
C983 C 0.23114 0.12569 0.21681 0.0
C984 C 0.21473 0.11127 0.1458 0.0
C985 C 0.22629 0.10807 0.12843 0.0
C986 C 0.24008 0.11337 0.15654 0.0
C987 C 0.24251 0.12214 0.20018 0.0
H988 H 0.84239 0.11197 0.168 0.0
H989 H 0.87554 0.09694 0.20378 0.0
H990 H 0.8549 0.12149 0.08687 0.0
H991 H 0.88809 0.10645 0.12172 0.0
H992 H 0.91493 0.14357 0.99286 0.0
H993 H 0.90348 0.13182 0.07421 0.0
H994 H 0.8574 0.10974 0.00789 0.0
H995 H 0.86875 0.12158 0.9271 0.0
C996 C 0.85238 0.11072 0.15853 0.0
C997 C 0.85797 0.10368 0.19215 0.0
C998 C 0.85947 0.11606 0.11186 0.0
C999 C 0.87234 0.11452 0.09769 0.0
C1000 C 0.87819 0.10779 0.13171 0.0
C1001 C 0.87101 0.10234 0.17854 0.0
C1002 C 0.90238 0.136 0.99558 0.0
C1003 C 0.89271 0.13361 0.95383 0.0
C1004 C 0.89584 0.12926 0.04207 0.0
C1005 C 0.87954 0.12008 0.04751 0.0
C1006 C 0.86998 0.11703 0.00503 0.0
C1007 C 0.87649 0.12373 0.9587 0.0
H1008 H 0.77824 0.89382 0.27664 0.0
H1009 H 0.73635 0.8928 0.32928 0.0
H1010 H 0.781 0.884 0.35831 0.0
H1011 H 0.73894 0.88282 0.4101 0.0
H1012 H 0.75391 0.87766 0.56393 0.0
H1013 H 0.75546 0.89077 0.48467 0.0
H1014 H 0.76739 0.85963 0.40747 0.0
H1015 H 0.76614 0.84671 0.487 0.0
C1016 C 0.76964 0.8915 0.30564 0.0
C1017 C 0.75707 0.89405 0.29662 0.0
C1018 C 0.7712 0.88585 0.35228 0.0
C1019 C 0.76024 0.88272 0.39075 0.0
C1020 C 0.74775 0.88539 0.38162 0.0
C1021 C 0.74618 0.89098 0.33512 0.0
C1022 C 0.75709 0.87377 0.53015 0.0
C1023 C 0.75977 0.86108 0.53154 0.0
C1024 C 0.75788 0.88122 0.48472 0.0
C1025 C 0.76134 0.87611 0.4397 0.0
C1026 C 0.76479 0.86391 0.44153 0.0
C1027 C 0.76401 0.85646 0.48704 0.0
H1028 H 0.10822 0.84276 0.31888 0.0
H1029 H 0.0935 0.87651 0.28898 0.0
H1030 H 0.11826 0.85476 0.40051 0.0
H1031 H 0.10353 0.88851 0.37126 0.0
H1032 H 0.14122 0.91487 0.49736 0.0
H1033 H 0.12929 0.90353 0.41621 0.0
H1034 H 0.1074 0.85732 0.48179 0.0
H1035 H 0.11938 0.8686 0.56262 0.0
C1036 C 0.10714 0.85277 0.32975 0.0
C1037 C 0.10006 0.85869 0.29759 0.0
C1038 C 0.11279 0.85956 0.37668 0.0
C1039 C 0.11155 0.87248 0.39246 0.0
C1040 C 0.10469 0.87859 0.35999 0.0
C1041 C 0.09893 0.87171 0.31301 0.0
C1042 C 0.13369 0.90231 0.49454 0.0
C1043 C 0.13131 0.8926 0.53621 0.0
C1044 C 0.12683 0.89583 0.44815 0.0
C1045 C 0.11756 0.87954 0.44256 0.0
C1046 C 0.1147 0.86991 0.48479 0.0
C1047 C 0.12147 0.87638 0.53115 0.0
H1048 H 0.1245 0.24181 0.56885 0.0
H1049 H 0.0805 0.22485 0.49137 0.0
H1050 H 0.13712 0.24224 0.48969 0.0
H1051 H 0.09321 0.22571 0.41181 0.0
H1052 H 0.11941 0.22 0.27947 0.0
H1053 H 0.10624 0.21531 0.36078 0.0
H1054 H 0.14458 0.25873 0.41664 0.0
H1055 H 0.15783 0.26316 0.33618 0.0
C1056 C 0.11749 0.23802 0.53493 0.0
C1057 C 0.10155 0.23341 0.53618 0.0
C1058 C 0.12474 0.23838 0.48951 0.0
C1059 C 0.11624 0.23426 0.44427 0.0
C1060 C 0.10009 0.22887 0.44597 0.0
C1061 C 0.09281 0.22842 0.49153 0.0
C1062 C 0.12501 0.22849 0.30928 0.0
C1063 C 0.13963 0.24195 0.30152 0.0
C1064 C 0.11746 0.22583 0.35576 0.0
C1065 C 0.12439 0.2366 0.39534 0.0
C1066 C 0.13904 0.25003 0.38738 0.0
C1067 C 0.14659 0.25265 0.34108 0.0
H1068 H 0.81879 0.56668 0.30725 0.0
H1069 H 0.77817 0.56065 0.38809 0.0
H1070 H 0.80593 0.56561 0.22765 0.0
H1071 H 0.76532 0.55946 0.30863 0.0
H1072 H 0.76179 0.58547 0.16867 0.0
H1073 H 0.77156 0.5808 0.24697 0.0
H1074 H 0.78311 0.54934 0.17012 0.0
H1075 H 0.7733 0.55406 0.09121 0.0
C1076 C 0.80699 0.56477 0.30797 0.0
C1077 C 0.79955 0.56395 0.35383 0.0
C1078 C 0.79961 0.56411 0.26242 0.0
C1079 C 0.78472 0.56267 0.26206 0.0
C1080 C 0.77691 0.56084 0.30788 0.0
C1081 C 0.78424 0.56144 0.35332 0.0
C1082 C 0.76633 0.57749 0.16848 0.0
C1083 C 0.76684 0.57016 0.12387 0.0
C1084 C 0.7718 0.57471 0.2134 0.0
C1085 C 0.778 0.56463 0.21467 0.0
C1086 C 0.77842 0.5572 0.17012 0.0
C1087 C 0.77279 0.55987 0.12511 0.0
H1088 H 0.41441 0.16943 0.17889 0.0
H1089 H 0.42385 0.21229 0.10537 0.0
H1090 H 0.41639 0.18141 0.26053 0.0
H1091 H 0.42513 0.22414 0.18699 0.0
H1092 H 0.43786 0.24538 0.34285 0.0
H1093 H 0.43944 0.23403 0.26293 0.0
H1094 H 0.4017 0.18897 0.31063 0.0
H1095 H 0.40065 0.20015 0.39073 0.0
C1096 C 0.41683 0.18141 0.18027 0.0
C1097 C 0.41888 0.18991 0.13589 0.0
C1098 C 0.41789 0.18827 0.22704 0.0
C1099 C 0.42079 0.20372 0.23047 0.0
C1100 C 0.4231 0.2123 0.1859 0.0
C1101 C 0.42224 0.20548 0.13908 0.0
C1102 C 0.43006 0.23302 0.33628 0.0
C1103 C 0.41916 0.22364 0.37296 0.0
C1104 C 0.43087 0.22653 0.29039 0.0
C1105 C 0.42068 0.21057 0.28017 0.0
C1106 C 0.40994 0.20122 0.31739 0.0
C1107 C 0.40926 0.20765 0.36331 0.0
H1108 H 0.78875 0.23869 0.14486 0.0
H1109 H 0.80865 0.2084 0.14414 0.0
H1110 H 0.77794 0.22911 0.22875 0.0
H1111 H 0.79779 0.19879 0.22728 0.0
H1112 H 0.79267 0.1984 0.39536 0.0
H1113 H 0.80291 0.20972 0.31308 0.0
H1114 H 0.75824 0.20477 0.27328 0.0
H1115 H 0.74799 0.19355 0.35617 0.0
C1116 C 0.79068 0.22989 0.16241 0.0
C1117 C 0.79959 0.22433 0.13808 0.0
C1118 C 0.78449 0.22441 0.21033 0.0
C1119 C 0.7872 0.21336 0.23482 0.0
C1120 C 0.79577 0.20754 0.20981 0.0
C1121 C 0.80189 0.21295 0.16199 0.0
C1122 C 0.78508 0.19991 0.36935 0.0
C1123 C 0.7695 0.195 0.38208 0.0
C1124 C 0.79091 0.20628 0.32207 0.0
C1125 C 0.7813 0.20791 0.28647 0.0
C1126 C 0.76592 0.20368 0.29999 0.0
C1127 C 0.76006 0.19724 0.34738 0.0
H1128 H 0.89398 0.47934 0.83284 0.0
H1129 H 0.91232 0.45278 0.75981 0.0
H1130 H 0.89307 0.46666 0.91265 0.0
H1131 H 0.91111 0.4399 0.8392 0.0
H1132 H 0.92861 0.43894 -0.00199 0.0
H1133 H 0.9262 0.44882 0.9167 0.0
H1134 H 0.88092 0.44181 0.9596 0.0
H1135 H 0.88347 0.43211 0.0417 0.0
C1136 C 0.89754 0.47059 0.83368 0.0
C1137 C 0.90336 0.46715 0.79028 0.0
C1138 C 0.89696 0.46328 0.87932 0.0
C1139 C 0.9022 0.45242 0.88232 0.0
C1140 C 0.90729 0.44845 0.83828 0.0
C1141 C 0.90788 0.45575 0.79276 0.0
C1142 C 0.91812 0.43946 0.99008 0.0
C1143 C 0.90624 0.43478 0.02619 0.0
C1144 C 0.91668 0.44501 0.94333 0.0
C1145 C 0.90332 0.446 0.93159 0.0
C1146 C 0.89139 0.44128 0.96769 0.0
C1147 C 0.89283 0.43568 0.01456 0.0
H1148 H 0.56572 0.4866 0.97957 0.0
H1149 H 0.55597 0.44395 0.05555 0.0
H1150 H 0.55594 0.47219 0.9012 0.0
H1151 H 0.54609 0.42945 0.97661 0.0
H1152 H 0.51013 0.41063 0.83947 0.0
H1153 H 0.52276 0.42247 0.91935 0.0
H1154 H 0.56311 0.45762 0.83909 0.0
H1155 H 0.55052 0.44588 0.75938 0.0
C1156 C 0.56153 0.47414 0.97944 0.0
C1157 C 0.56157 0.46638 0.02361 0.0
C1158 C 0.55606 0.46592 0.93448 0.0
C1159 C 0.55037 0.44973 0.9328 0.0
C1160 C 0.5504 0.44193 0.97696 0.0
C1161 C 0.55607 0.45022 0.02197 0.0
C1162 C 0.52183 0.42068 0.83897 0.0
C1163 C 0.52927 0.42745 0.79323 0.0
C1164 C 0.52907 0.42743 0.88467 0.0
C1165 C 0.54381 0.44108 0.88528 0.0
C1166 C 0.55163 0.44724 0.8396 0.0
C1167 C 0.54445 0.44046 0.79402 0.0
H1168 H 0.55079 0.10282 0.7833 0.0
H1169 H 0.58321 0.09106 0.85228 0.0
H1170 H 0.54138 0.10477 0.86636 0.0
H1171 H 0.57387 0.09313 0.9353 0.0
H1172 H 0.53485 0.07375 0.05764 0.0
H1173 H 0.54859 0.07647 0.97886 0.0
H1174 H 0.54871 0.11949 0.9476 0.0
H1175 H 0.53485 0.11672 0.02657 0.0
C1176 C 0.55609 0.10093 0.81623 0.0
C1177 C 0.56763 0.09666 0.81133 0.0
C1178 C 0.55076 0.10212 0.86378 0.0
C1179 C 0.55681 0.09898 0.90727 0.0
C1180 C 0.56886 0.09541 0.90238 0.0
C1181 C 0.57425 0.09431 0.85488 0.0
C1182 C 0.53796 0.08388 0.03424 0.0
C1183 C 0.53373 0.09498 0.04809 0.0
C1184 C 0.54592 0.08549 0.98928 0.0
C1185 C 0.54972 0.09819 0.95708 0.0
C1186 C 0.54582 0.10952 0.97154 0.0
C1187 C 0.53797 0.10797 0.01679 0.0
H1188 H 0.51745 0.10649 0.34438 0.0
H1189 H 0.54937 0.09479 0.27138 0.0
H1190 H 0.52905 0.10667 0.42583 0.0
H1191 H 0.56096 0.09507 0.35255 0.0
H1192 H 0.55679 0.07093 0.5044 0.0
H1193 H 0.54871 0.07587 0.42337 0.0
H1194 H 0.554 0.11932 0.47944 0.0
H1195 H 0.56221 0.11438 0.56131 0.0
C1196 C 0.52717 0.10432 0.34561 0.0
C1197 C 0.53237 0.10042 0.30167 0.0
C1198 C 0.53382 0.10446 0.39218 0.0
C1199 C 0.54572 0.10064 0.39547 0.0
C1200 C 0.55161 0.09779 0.35111 0.0
C1201 C 0.54502 0.09771 0.30465 0.0
C1202 C 0.55624 0.08155 0.49958 0.0
C1203 C 0.56012 0.09227 0.53916 0.0
C1204 C 0.55175 0.08444 0.45301 0.0
C1205 C 0.55091 0.09806 0.44498 0.0
C1206 C 0.55458 0.10874 0.4847 0.0
C1207 C 0.55926 0.10591 0.53139 0.0
H1208 H 0.89951 0.41345 0.34473 0.0
H1209 H 0.89694 0.45016 0.26438 0.0
H1210 H 0.89915 0.42554 0.42454 0.0
H1211 H 0.8965 0.46216 0.34404 0.0
H1212 H 0.92232 0.49003 0.48646 0.0
H1213 H 0.91777 0.4758 0.40773 0.0
H1214 H 0.8834 0.43329 0.48075 0.0
H1215 H 0.88797 0.4476 0.56001 0.0
C1216 C 0.89854 0.42391 0.34415 0.0
C1217 C 0.89842 0.43096 0.29838 0.0
C1218 C 0.89829 0.4308 0.3898 0.0
C1219 C 0.89801 0.44489 0.39038 0.0
C1220 C 0.89697 0.45142 0.34462 0.0
C1221 C 0.89714 0.4445 0.29906 0.0
C1222 C 0.91375 0.47766 0.48573 0.0
C1223 C 0.90552 0.46991 0.52933 0.0
C1224 C 0.91105 0.46955 0.44056 0.0
C1225 C 0.90015 0.45347 0.43809 0.0
C1226 C 0.89189 0.44567 0.4817 0.0
C1227 C 0.89449 0.45386 0.52691 0.0
H1228 H 0.50888 0.4391 0.4955 0.0
H1229 H 0.54573 0.42976 0.53726 0.0
H1230 H 0.52117 0.44864 0.41398 0.0
H1231 H 0.55801 0.43921 0.455 0.0
H1232 H 0.58302 0.47641 0.32655 0.0
H1233 H 0.57145 0.46432 0.40729 0.0
H1234 H 0.52617 0.43829 0.33643 0.0
H1235 H 0.53764 0.45051 0.25612 0.0
C1236 C 0.51959 0.43905 0.48717 0.0
C1237 C 0.52635 0.43369 0.52269 0.0
C1238 C 0.52657 0.4444 0.44032 0.0
C1239 C 0.54048 0.44455 0.42795 0.0
C1240 C 0.54732 0.43929 0.46361 0.0
C1241 C 0.54028 0.43385 0.51055 0.0
C1242 C 0.57064 0.46793 0.32815 0.0
C1243 C 0.5612 0.46451 0.28521 0.0
C1244 C 0.56403 0.46098 0.37431 0.0
C1245 C 0.54787 0.45052 0.37825 0.0
C1246 C 0.53861 0.44654 0.3347 0.0
C1247 C 0.5452 0.45346 0.28867 0.0
H1248 H 0.43465 0.21596 0.59596 0.0
H1249 H 0.4095 0.23336 0.68242 0.0
H1250 H 0.4397 0.20558 0.67302 0.0
H1251 H 0.41461 0.22311 0.75902 0.0
H1252 H 0.43673 0.2148 0.89305 0.0
H1253 H 0.43747 0.2275 0.81357 0.0
H1254 H 0.42233 0.18396 0.73507 0.0
H1255 H 0.42157 0.1712 0.81464 0.0
C1256 C 0.4303 0.21765 0.63143 0.0
C1257 C 0.42163 0.2254 0.63329 0.0
C1258 C 0.43317 0.2117 0.67538 0.0
C1259 C 0.42763 0.21364 0.72192 0.0
C1260 C 0.41922 0.22165 0.72375 0.0
C1261 C 0.41618 0.2274 0.67986 0.0
C1262 C 0.43389 0.20802 0.85872 0.0
C1263 C 0.42893 0.19197 0.86006 0.0
C1264 C 0.43423 0.21527 0.81331 0.0
C1265 C 0.42976 0.20665 0.76837 0.0
C1266 C 0.42588 0.19088 0.76918 0.0
C1267 C 0.42541 0.18358 0.81471 0.0
H1268 H 0.77769 0.17883 0.66467 0.0
H1269 H 0.76091 0.21034 0.62484 0.0
H1270 H 0.78564 0.19119 0.74662 0.0
H1271 H 0.76901 0.22284 0.70772 0.0
H1272 H 0.80577 0.25013 0.83993 0.0
H1273 H 0.7946 0.23887 0.75788 0.0
H1274 H 0.77153 0.19268 0.82363 0.0
H1275 H 0.78268 0.20386 0.90537 0.0
C1276 C 0.77576 0.18846 0.67334 0.0
C1277 C 0.76864 0.1936 0.63838 0.0
C1278 C 0.78019 0.19545 0.72049 0.0
C1279 C 0.77772 0.2078 0.73376 0.0
C1280 C 0.771 0.21329 0.69839 0.0
C1281 C 0.7664 0.20616 0.6511 0.0
C1282 C 0.79805 0.2376 0.83701 0.0
C1283 C 0.79523 0.22784 0.87888 0.0
C1284 C 0.79164 0.23118 0.79011 0.0
C1285 C 0.78242 0.2149 0.78436 0.0
C1286 C 0.77882 0.20526 0.82692 0.0
C1287 C 0.78514 0.21167 0.87374 0.0
H1288 H 0.79056 0.5767 0.89128 0.0
H1289 H 0.74628 0.56158 0.81753 0.0
H1290 H 0.80206 0.57572 0.81129 0.0
H1291 H 0.75789 0.56083 0.73714 0.0
H1292 H 0.78235 0.55078 0.60663 0.0
H1293 H 0.76987 0.54793 0.68853 0.0
H1294 H 0.80896 0.59213 0.73563 0.0
H1295 H 0.82145 0.59487 0.65448 0.0
C1296 C 0.78324 0.57301 0.85804 0.0
C1297 C 0.76757 0.56935 0.8605 0.0
C1298 C 0.78985 0.57254 0.81221 0.0
C1299 C 0.78093 0.56841 0.76788 0.0
C1300 C 0.76503 0.56399 0.77074 0.0
C1301 C 0.7584 0.56447 0.81669 0.0
C1302 C 0.78826 0.55984 0.63462 0.0
C1303 C 0.80286 0.57305 0.62426 0.0
C1304 C 0.7811 0.55823 0.68135 0.0
C1305 C 0.78849 0.56975 0.71857 0.0
C1306 C 0.80311 0.58292 0.70805 0.0
C1307 C 0.8102 0.58455 0.66141 0.0
H1308 H 0.42567 0.91609 0.50064 0.0
H1309 H 0.43819 0.88617 0.41858 0.0
H1310 H 0.43417 0.90975 0.57861 0.0
H1311 H 0.44669 0.87974 0.49711 0.0
H1312 H 0.48091 0.89481 0.6375 0.0
H1313 H 0.46861 0.89457 0.55773 0.0
H1314 H 0.42748 0.88766 0.63718 0.0
H1315 H 0.43983 0.88805 0.71708 0.0
C1316 C 0.43016 0.90808 0.49933 0.0
C1317 C 0.43135 0.90169 0.45352 0.0
C1318 C 0.43489 0.90432 0.54408 0.0
C1319 C 0.441 0.89415 0.54402 0.0
C1320 C 0.44206 0.88763 0.49823 0.0
C1321 C 0.43719 0.8913 0.45338 0.0
C1322 C 0.46909 0.89285 0.63786 0.0
C1323 C 0.4614 0.89165 0.68353 0.0
C1324 C 0.46203 0.89267 0.59214 0.0
C1325 C 0.44718 0.89135 0.59131 0.0
C1326 C 0.43904 0.88897 0.6368 0.0
C1327 C 0.44607 0.88908 0.68249 0.0
H1328 H 0.10896 0.58288 0.67645 0.0
H1329 H 0.07955 0.53612 0.73403 0.0
H1330 H 0.10927 0.57204 0.59405 0.0
H1331 H 0.07996 0.52534 0.65197 0.0
H1332 H 0.06525 0.51475 0.48701 0.0
H1333 H 0.06794 0.52604 0.57024 0.0
H1334 H 0.1177 0.55511 0.54717 0.0
H1335 H 0.115 0.54377 0.46322 0.0
C1336 C 0.1028 0.57029 0.67173 0.0
C1337 C 0.09412 0.56034 0.71151 0.0
C1338 C 0.10301 0.5641 0.62464 0.0
C1339 C 0.09447 0.54787 0.6165 0.0
C1340 C 0.08643 0.53792 0.65699 0.0
C1341 C 0.08628 0.54409 0.70404 0.0
C1342 C 0.07677 0.52358 0.49953 0.0
C1343 C 0.08992 0.52837 0.46866 0.0
C1344 C 0.07832 0.52996 0.54738 0.0
C1345 C 0.09306 0.54132 0.56539 0.0
C1346 C 0.10621 0.54637 0.53417 0.0
C1347 C 0.10466 0.53988 0.48624 0.0
H1348 H 0.44819 0.5512 0.72359 0.0
H1349 H 0.41344 0.51075 0.64253 0.0
H1350 H 0.45993 0.56407 0.64419 0.0
H1351 H 0.4253 0.52361 0.563 0.0
H1352 H 0.44602 0.55656 0.4271 0.0
H1353 H 0.4317 0.54645 0.50613 0.0
H1354 H 0.47493 0.55812 0.58157 0.0
H1355 H 0.48918 0.56821 0.50309 0.0
C1356 C 0.4429 0.54516 0.68879 0.0
C1357 C 0.43 0.5299 0.68922 0.0
C1358 C 0.44968 0.5525 0.64338 0.0
C1359 C 0.44365 0.54475 0.5975 0.0
C1360 C 0.43015 0.52988 0.5978 0.0
C1361 C 0.4234 0.5225 0.64331 0.0
C1362 C 0.45243 0.55702 0.46071 0.0
C1363 C 0.46869 0.56312 0.45901 0.0
C1364 C 0.44425 0.55121 0.5058 0.0
C1365 C 0.45222 0.55158 0.55 0.0
C1366 C 0.46851 0.5579 0.54829 0.0
C1367 C 0.47665 0.56357 0.50326 0.0
H1368 H 0.56475 0.78273 0.10417 0.0
H1369 H 0.56922 0.82409 0.17553 0.0
H1370 H 0.56298 0.77108 0.1868 0.0
H1371 H 0.56748 0.81246 0.258 0.0
H1372 H 0.58831 0.79517 0.38419 0.0
H1373 H 0.58596 0.80602 0.30433 0.0
H1374 H 0.54597 0.76147 0.2653 0.0
H1375 H 0.54827 0.75059 0.34543 0.0
C1376 C 0.56513 0.78923 0.13747 0.0
C1377 C 0.5672 0.80434 0.13345 0.0
C1378 C 0.56405 0.78254 0.18471 0.0
C1379 C 0.56519 0.79092 0.22875 0.0
C1380 C 0.56673 0.80582 0.22465 0.0
C1381 C 0.56764 0.81243 0.17745 0.0
C1382 C 0.57892 0.78774 0.3588 0.0
C1383 C 0.5685 0.77204 0.37092 0.0
C1384 C 0.57752 0.79397 0.31323 0.0
C1385 C 0.56579 0.78457 0.27865 0.0
C1386 C 0.55518 0.76893 0.29116 0.0
C1387 C 0.55646 0.76275 0.33706 0.0
H1388 H 0.24527 0.79775 0.34859 0.0
H1389 H 0.20161 0.79572 0.38442 0.0
H1390 H 0.23424 0.78452 0.26864 0.0
H1391 H 0.19062 0.78249 0.30479 0.0
H1392 H 0.1714 0.74727 0.17787 0.0
H1393 H 0.18308 0.75715 0.26021 0.0
H1394 H 0.22554 0.79217 0.18875 0.0
H1395 H 0.21385 0.7823 0.10616 0.0
C1396 C 0.23327 0.79432 0.33962 0.0
C1397 C 0.22429 0.79778 0.3726 0.0
C1398 C 0.22701 0.78684 0.29383 0.0
C1399 C 0.21159 0.7825 0.28056 0.0
C1400 C 0.20249 0.78556 0.31428 0.0
C1401 C 0.2088 0.79319 0.35972 0.0
C1402 C 0.1833 0.75695 0.17971 0.0
C1403 C 0.1917 0.76409 0.13561 0.0
C1404 C 0.18994 0.76264 0.22683 0.0
C1405 C 0.20516 0.77548 0.23082 0.0
C1406 C 0.21382 0.78219 0.18675 0.0
C1407 C 0.20711 0.77659 0.13954 0.0
H1408 H 0.20579 0.42584 0.0875 0.0
H1409 H 0.25044 0.44289 0.16092 0.0
H1410 H 0.19388 0.42559 0.16806 0.0
H1411 H 0.23844 0.44246 0.24174 0.0
H1412 H 0.21109 0.44708 0.37668 0.0
H1413 H 0.22419 0.45284 0.29455 0.0
H1414 H 0.18866 0.40763 0.2402 0.0
H1415 H 0.17569 0.40195 0.32131 0.0
C1416 C 0.21312 0.42982 0.12069 0.0
C1417 C 0.22899 0.43419 0.11805 0.0
C1418 C 0.20629 0.42959 0.16684 0.0
C1419 C 0.21519 0.43374 0.21126 0.0
C1420 C 0.23131 0.43922 0.20811 0.0
C1421 C 0.23816 0.43942 0.16186 0.0
C1422 C 0.20614 0.43842 0.34706 0.0
C1423 C 0.19239 0.42407 0.35537 0.0
C1424 C 0.21361 0.44171 0.30019 0.0
C1425 C 0.20733 0.43076 0.26083 0.0
C1426 C 0.19361 0.41644 0.26943 0.0
C1427 C 0.18626 0.41312 0.31612 0.0
H1428 H 0.21017 0.39946 0.85273 0.0
H1429 H 0.23859 0.44987 0.85249 0.0
H1430 H 0.2006 0.40025 0.76902 0.0
H1431 H 0.22895 0.45064 0.7682 0.0
H1432 H 0.1919 0.44262 0.64187 0.0
H1433 H 0.20349 0.44427 0.72457 0.0
H1434 H 0.2124 0.40716 0.68278 0.0
H1435 H 0.20083 0.40547 0.6004 0.0
C1436 C 0.2143 0.41073 0.83489 0.0
C1437 C 0.22515 0.42461 0.85908 0.0
C1438 C 0.20892 0.41117 0.78678 0.0
C1439 C 0.21419 0.42549 0.76189 0.0
C1440 C 0.2247 0.43944 0.78658 0.0
C1441 C 0.23021 0.43899 0.83472 0.0
C1442 C 0.19656 0.43499 0.65014 0.0
C1443 C 0.19538 0.42385 0.61483 0.0
C1444 C 0.20321 0.43596 0.6974 0.0
C1445 C 0.20865 0.4257 0.71026 0.0
C1446 C 0.20806 0.41503 0.67413 0.0
C1447 C 0.20154 0.41415 0.62686 0.0
H1448 H 0.59016 0.82235 0.82523 0.0
H1449 H 0.54963 0.7821 0.88778 0.0
H1450 H 0.58549 0.80902 0.74494 0.0
H1451 H 0.54484 0.7687 0.80656 0.0
H1452 H 0.55765 0.74589 0.67123 0.0
H1453 H 0.55755 0.75766 0.75196 0.0
H1454 H 0.56655 0.8 0.6756 0.0
H1455 H 0.5669 0.78836 0.59516 0.0
C1456 C 0.5802 0.81065 0.82175 0.0
C1457 C 0.57027 0.80326 0.8628 0.0
C1458 C 0.57744 0.80306 0.77556 0.0
C1459 C 0.56469 0.78787 0.76924 0.0
C1460 C 0.55477 0.78039 0.81038 0.0
C1461 C 0.5575 0.78806 0.85675 0.0
C1462 C 0.55929 0.7576 0.67166 0.0
C1463 C 0.56247 0.76629 0.62699 0.0
C1464 C 0.5592 0.76432 0.71787 0.0
C1465 C 0.5623 0.77984 0.72015 0.0
C1466 C 0.56444 0.78812 0.67509 0.0
C1467 C 0.56454 0.78142 0.629 0.0
H1468 H 0.17629 0.77403 0.83325 0.0
H1469 H 0.2136 0.76697 0.8872 0.0
H1470 H 0.18935 0.78256 0.75245 0.0
H1471 H 0.22676 0.77558 0.8055 0.0
H1472 H 0.25124 0.81189 0.67108 0.0
H1473 H 0.2397 0.80049 0.75266 0.0
H1474 H 0.19547 0.77038 0.6802 0.0
H1475 H 0.2069 0.78179 0.59898 0.0
C1476 C 0.18731 0.77432 0.82786 0.0
C1477 C 0.19392 0.76982 0.86653 0.0
C1478 C 0.19472 0.77908 0.78138 0.0
C1479 C 0.20896 0.77954 0.77248 0.0
C1480 C 0.21577 0.77532 0.8114 0.0
C1481 C 0.20825 0.7704 0.85801 0.0
C1482 C 0.23914 0.80261 0.67252 0.0
C1483 C 0.22991 0.79785 0.62878 0.0
C1484 C 0.23256 0.79608 0.71917 0.0
C1485 C 0.21664 0.78474 0.72278 0.0
C1486 C 0.20771 0.77931 0.67859 0.0
C1487 C 0.21428 0.78578 0.63206 0.0
H1488 H 0.07891 0.56657 0.0159 0.0
H1489 H 0.11299 0.5584 0.94086 0.0
H1490 H 0.08426 0.55771 0.09485 0.0
H1491 H 0.11829 0.54933 0.02056 0.0
H1492 H 0.10002 0.51255 0.15741 0.0
H1493 H 0.10181 0.52558 0.07755 0.0
H1494 H 0.10616 0.5656 0.15774 0.0
H1495 H 0.10436 0.55261 0.23759 0.0
C1496 C 0.08761 0.56294 0.01637 0.0
C1497 C 0.09548 0.56309 0.97224 0.0
C1498 C 0.09078 0.55801 0.0617 0.0
C1499 C 0.10177 0.55296 0.06387 0.0
C1500 C 0.10976 0.55319 0.01983 0.0
C1501 C 0.10674 0.55837 0.97439 0.0
C1502 C 0.10175 0.52429 0.15798 0.0
C1503 C 0.10184 0.53148 0.20367 0.0
C1504 C 0.10284 0.53176 0.11227 0.0
C1505 C 0.10391 0.5465 0.11155 0.0
C1506 C 0.10513 0.55415 0.15731 0.0
C1507 C 0.10417 0.54673 0.20297 0.0
H1508 H 0.4399 0.50897 0.98847 0.0
H1509 H 0.43155 0.54633 0.9446 0.0
H1510 H 0.44941 0.52137 0.06987 0.0
H1511 H 0.44092 0.55869 0.02674 0.0
H1512 H 0.47802 0.58376 0.15466 0.0
H1513 H 0.4658 0.57195 0.07437 0.0
H1514 H 0.43955 0.52694 0.147 0.0
H1515 H 0.45193 0.53867 0.22689 0.0
C1516 C 0.44004 0.51981 0.99634 0.0
C1517 C 0.43501 0.5267 0.96022 0.0
C1518 C 0.44537 0.52685 0.04312 0.0
C1519 C 0.4458 0.54095 0.05484 0.0
C1520 C 0.4408 0.54788 0.01864 0.0
C1521 C 0.4354 0.54078 0.97176 0.0
C1522 C 0.46947 0.57139 0.15354 0.0
C1523 C 0.46604 0.5621 0.19687 0.0
C1524 C 0.46244 0.56464 0.10763 0.0
C1525 C 0.45187 0.54849 0.1043 0.0
C1526 C 0.44788 0.53937 0.14823 0.0
C1527 C 0.45489 0.54611 0.19402 0.0
H1528 H 0.47635 0.92963 0.96055 0.0
H1529 H 0.44601 0.87988 0.94014 0.0
H1530 H 0.46499 0.92795 0.04305 0.0
H1531 H 0.43453 0.87823 0.02336 0.0
H1532 H 0.40868 0.88978 0.15392 0.0
H1533 H 0.41849 0.88866 0.07027 0.0
H1534 H 0.46589 0.91531 0.12506 0.0
H1535 H 0.45618 0.91643 0.20826 0.0
C1536 C 0.46716 0.91834 0.97353 0.0
C1537 C 0.46211 0.90487 0.944 0.0
C1538 C 0.46074 0.91737 0.02093 0.0
C1539 C 0.44904 0.90293 0.03977 0.0
C1540 C 0.44355 0.8895 0.00963 0.0
C1541 C 0.45011 0.89045 0.96216 0.0
C1542 C 0.42118 0.8952 0.14817 0.0
C1543 C 0.43168 0.9033 0.18745 0.0
C1544 C 0.42677 0.89453 0.10041 0.0
C1545 C 0.44293 0.90207 0.09118 0.0
C1546 C 0.45337 0.9096 0.13102 0.0
C1547 C 0.44781 0.91017 0.17869 0.0
H1548 H 0.23544 0.38255 0.12123 0.0
H1549 H 0.22513 0.36571 0.96827 0.0
H1550 H 0.22358 0.35563 0.15156 0.0
H1551 H 0.21324 0.33882 -0.0014 0.0
H1552 H 0.20446 0.29294 0.06923 0.0
H1553 H 0.2196 0.32023 0.04228 0.0
H1554 H 0.19622 0.33306 0.15381 0.0
H1555 H 0.18114 0.30583 0.18086 0.0
C1556 C 0.23079 0.37311 0.09409 0.0
C1557 C 0.23115 0.37621 0.04241 0.0
C1558 C 0.22393 0.35771 0.11146 0.0
C1559 C 0.21743 0.34513 0.07746 0.0
C1560 C 0.21828 0.34828 0.02567 0.0
C1561 C 0.22502 0.36366 0.00832 0.0
C1562 C 0.20266 0.30162 0.08823 0.0
C1563 C 0.19159 0.29727 0.12702 0.0
C1564 C 0.21127 0.31721 0.07266 0.0
C1565 C 0.20907 0.32876 0.0959 0.0
C1566 C 0.19828 0.32445 0.13556 0.0
C1567 C 0.18959 0.30885 0.15084 0.0
H1568 H 0.71106 0.90059 0.03595 0.0
H1569 H 0.6951 0.88428 0.18692 0.0
H1570 H 0.68388 0.88843 0.00744 0.0
H1571 H 0.66796 0.8724 0.1585 0.0
H1572 H 0.62228 0.86798 0.0924 0.0
H1573 H 0.64969 0.88215 0.11905 0.0
H1574 H 0.66124 0.85884 0.00368 0.0
H1575 H 0.63381 0.84444 0.97759 0.0
C1576 C 0.70174 0.89455 0.06307 0.0
C1577 C 0.70514 0.89332 0.11359 0.0
C1578 C 0.68624 0.88757 0.04673 0.0
C1579 C 0.6739 0.87953 0.08085 0.0
C1580 C 0.6773 0.87865 0.1316 0.0
C1581 C 0.69279 0.88536 0.14775 0.0
C1582 C 0.6307 0.86597 0.07256 0.0
C1583 C 0.62596 0.8551 0.03303 0.0
C1584 C 0.64633 0.87402 0.08792 0.0
C1585 C 0.6575 0.87156 0.06334 0.0
C1586 C 0.65283 0.861 0.02296 0.0
C1587 C 0.63716 0.85274 0.00823 0.0
H1588 H 0.12255 0.74914 0.07735 0.0
H1589 H 0.15215 0.79091 0.99183 0.0
H1590 H 0.10639 0.76035 0.10309 0.0
H1591 H 0.1359 0.80198 0.01705 0.0
H1592 H 0.09437 0.81005 0.03489 0.0
H1593 H 0.10746 0.79608 0.00518 0.0
H1594 H 0.11196 0.78434 0.15828 0.0
H1595 H 0.09903 0.79846 0.18817 0.0
C1596 C 0.1255 0.76064 0.0637 0.0
C1597 C 0.13861 0.76919 0.03272 0.0
C1598 C 0.11631 0.76705 0.07855 0.0
C1599 C 0.11992 0.78199 0.06194 0.0
C1600 C 0.13279 0.79037 0.02997 0.0
C1601 C 0.14212 0.78408 0.01579 0.0
C1602 C 0.09798 0.80432 0.06214 0.0
C1603 C 0.09576 0.80538 0.11384 0.0
C1604 C 0.10553 0.79641 0.04514 0.0
C1605 C 0.11075 0.78921 0.07949 0.0
C1606 C 0.10795 0.78972 0.13104 0.0
C1607 C 0.10062 0.79784 0.14811 0.0
H1608 H 0.29683 0.18691 0.30866 0.0
H1609 H 0.28034 0.19036 0.45592 0.0
H1610 H 0.32381 0.20225 0.33794 0.0
H1611 H 0.30731 0.20578 0.48507 0.0
H1612 H 0.35551 0.2115 0.52993 0.0
H1613 H 0.32846 0.19967 0.50151 0.0
H1614 H 0.3437 0.22871 0.36861 0.0
H1615 H 0.37081 0.2405 0.39692 0.0
C1616 C 0.29898 0.19112 0.34708 0.0
C1617 C 0.2865 0.18738 0.38009 0.0
C1618 C 0.31442 0.19996 0.36377 0.0
C1619 C 0.31766 0.20515 0.41387 0.0
C1620 C 0.30516 0.20179 0.44643 0.0
C1621 C 0.28973 0.19303 0.42966 0.0
C1622 C 0.35307 0.21548 0.49492 0.0
C1623 C 0.36526 0.22687 0.46555 0.0
C1624 C 0.33758 0.20876 0.47877 0.0
C1625 C 0.33398 0.21324 0.43276 0.0
C1626 C 0.34615 0.22493 0.40398 0.0
C1627 C 0.36164 0.23173 0.42033 0.0
H1628 H 0.74629 0.12586 0.39809 0.0
H1629 H 0.77382 0.13475 0.53304 0.0
H1630 H 0.7563 0.10928 0.36639 0.0
H1631 H 0.78389 0.11835 0.50131 0.0
H1632 H 0.79432 0.08188 0.44322 0.0
H1633 H 0.77766 0.09164 0.47621 0.0
H1634 H 0.78277 0.11614 0.33662 0.0
H1635 H 0.79923 0.10632 0.30364 0.0
C1636 C 0.75426 0.12406 0.42131 0.0
C1637 C 0.75941 0.1317 0.46777 0.0
C1638 C 0.76004 0.11463 0.40309 0.0
C1639 C 0.77095 0.1126 0.43123 0.0
C1640 C 0.77538 0.11955 0.47896 0.0
C1641 C 0.7697 0.12904 0.49698 0.0
C1642 C 0.79164 0.08912 0.41934 0.0
C1643 C 0.79817 0.09347 0.37106 0.0
C1644 C 0.78217 0.09475 0.43827 0.0
C1645 C 0.77898 0.10471 0.40908 0.0
C1646 C 0.78486 0.10836 0.35983 0.0
C1647 C 0.7944 0.10282 0.34107 0.0
H1648 H 0.90311 0.7022 0.33961 0.0
H1649 H 0.86978 0.70708 0.43171 0.0
H1650 H 0.88967 0.6742 0.3579 0.0
H1651 H 0.85675 0.67935 0.45172 0.0
H1652 H 0.82733 0.62692 0.44016 0.0
H1653 H 0.84059 0.65441 0.41645 0.0
H1654 H 0.8851 0.65594 0.42336 0.0
H1655 H 0.87167 0.6282 0.44507 0.0
C1656 C 0.89296 0.69728 0.36396 0.0
C1657 C 0.88745 0.70678 0.38408 0.0
C1658 C 0.88531 0.68127 0.37473 0.0
C1659 C 0.87208 0.67447 0.40624 0.0
C1660 C 0.86668 0.68407 0.42651 0.0
C1661 C 0.87422 0.70001 0.41531 0.0
C1662 C 0.83994 0.63313 0.43647 0.0
C1663 C 0.84848 0.62545 0.44463 0.0
C1664 C 0.84758 0.64892 0.42317 0.0
C1665 C 0.86396 0.65747 0.41833 0.0
C1666 C 0.87247 0.6497 0.4261 0.0
C1667 C 0.8648 0.63383 0.43887 0.0
H1668 H 0.80751 0.71186 0.96457 0.0
H1669 H 0.81081 0.69924 0.81139 0.0
H1670 H 0.79271 0.68424 0.98731 0.0
H1671 H 0.79602 0.67154 0.8343 0.0
H1672 H 0.75667 0.62323 0.88765 0.0
H1673 H 0.76934 0.65087 0.86403 0.0
H1674 H 0.79923 0.66291 0.99446 0.0
H1675 H 0.78659 0.63537 0.01809 0.0
C1676 C 0.80498 0.70318 0.93568 0.0
C1677 C 0.81037 0.70769 0.88624 0.0
C1678 C 0.79658 0.68737 0.94878 0.0
C1679 C 0.7933 0.67575 0.91265 0.0
C1680 C 0.79829 0.68025 0.86284 0.0
C1681 C 0.8068 0.69609 0.84979 0.0
C1682 C 0.76589 0.63181 0.91137 0.0
C1683 C 0.77065 0.62717 0.95471 0.0
C1684 C 0.77318 0.64759 0.89771 0.0
C1685 C 0.78525 0.65903 0.92744 0.0
C1686 C 0.78984 0.65438 0.97114 0.0
C1687 C 0.78266 0.6386 0.98452 0.0
H1688 H 0.36707 0.16688 0.93984 0.0
H1689 H 0.36238 0.12271 0.98515 0.0
H1690 H 0.33988 0.15348 0.91259 0.0
H1691 H 0.33497 0.10932 0.96023 0.0
H1692 H 0.29176 0.08783 0.86163 0.0
H1693 H 0.31899 0.10156 0.88839 0.0
H1694 H 0.31376 0.14026 0.94006 0.0
H1695 H 0.28674 0.12677 0.91094 0.0
C1696 C 0.36013 0.15431 0.94462 0.0
C1697 C 0.36682 0.14582 0.96448 0.0
C1698 C 0.34451 0.14662 0.92924 0.0
C1699 C 0.33517 0.13028 0.93401 0.0
C1700 C 0.34185 0.12186 0.95496 0.0
C1701 C 0.35753 0.12954 0.96967 0.0
C1702 C 0.29648 0.0993 0.87854 0.0
C1703 C 0.28717 0.10626 0.88412 0.0
C1704 C 0.31206 0.10714 0.8943 0.0
C1705 C 0.31861 0.12202 0.91671 0.0
C1706 C 0.30922 0.12894 0.92227 0.0
C1707 C 0.29371 0.12119 0.90583 0.0
H1708 H 0.90964 0.20162 0.93003 0.0
H1709 H 0.87851 0.1862 0.80212 0.0
H1710 H 0.89814 0.2171 0.95928 0.0
H1711 H 0.8669 0.20153 0.83165 0.0
H1712 H 0.85676 0.23971 0.87897 0.0
H1713 H 0.87215 0.22844 0.84671 0.0
H1714 H 0.87256 0.21066 0.9948 0.0
H1715 H 0.85735 0.22204 0.02707 0.0
C1716 C 0.90044 0.20165 0.90793 0.0
C1717 C 0.89491 0.19264 0.86393 0.0
C1718 C 0.89381 0.21045 0.92482 0.0
C1719 C 0.88156 0.21047 0.89792 0.0
C1720 C 0.87642 0.20188 0.85294 0.0
C1721 C 0.88301 0.19303 0.83617 0.0
C1722 C 0.86032 0.23357 0.90472 0.0
C1723 C 0.85581 0.2317 0.95549 0.0
C1724 C 0.86905 0.22704 0.88619 0.0
C1725 C 0.87351 0.2186 0.91816 0.0
C1726 C 0.86945 0.21723 0.96932 0.0
C1727 C 0.86067 0.22368 0.98777 0.0
H1728 H 0.70567 0.7945 0.55626 0.0
H1729 H 0.6927 0.81454 0.67854 0.0
H1730 H 0.67833 0.7799 0.52921 0.0
H1731 H 0.66547 0.80001 0.65152 0.0
H1732 H 0.61632 0.76061 0.61777 0.0
H1733 H 0.64348 0.77242 0.64509 0.0
H1734 H 0.65894 0.7867 0.49243 0.0
H1735 H 0.63173 0.77482 0.46497 0.0
C1736 C 0.69697 0.7957 0.5775 0.0
C1737 C 0.70129 0.80566 0.61946 0.0
C1738 C 0.68136 0.78742 0.56188 0.0
C1739 C 0.66979 0.78882 0.58829 0.0
C1740 C 0.67411 0.79856 0.63078 0.0
C1741 C 0.68971 0.80695 0.64608 0.0
C1742 C 0.62551 0.76613 0.58995 0.0
C1743 C 0.62192 0.76686 0.53927 0.0
C1744 C 0.64105 0.77296 0.60566 0.0
C1745 C 0.65331 0.78055 0.57094 0.0
C1746 C 0.64972 0.78082 0.51995 0.0
C1747 C 0.63416 0.77409 0.50428 0.0
H1748 H 0.18173 0.87734 0.68453 0.0
H1749 H 0.19836 0.90948 0.55918 0.0
H1750 H 0.19764 0.86623 0.65659 0.0
H1751 H 0.21437 0.89835 0.53122 0.0
H1752 H 0.22122 0.85772 0.46731 0.0
H1753 H 0.20885 0.87249 0.49578 0.0
H1754 H 0.2255 0.87331 0.64654 0.0
H1755 H 0.23779 0.85849 0.6182 0.0
C1756 C 0.18889 0.88211 0.65123 0.0
C1757 C 0.18878 0.89423 0.62395 0.0
C1758 C 0.19808 0.87582 0.63541 0.0
C1759 C 0.20726 0.88144 0.59175 0.0
C1760 C 0.20732 0.89373 0.56482 0.0
C1761 C 0.19822 0.90013 0.58094 0.0
C1762 C 0.2224 0.86123 0.50637 0.0
C1763 C 0.23037 0.85686 0.54061 0.0
C1764 C 0.21539 0.86975 0.52261 0.0
C1765 C 0.21613 0.87395 0.57345 0.0
C1766 C 0.22458 0.87006 0.60727 0.0
C1767 C 0.23168 0.86164 0.59098 0.0
H1768 H 0.13997 0.35721 0.46567 0.0
H1769 H 0.12952 0.37353 0.603 0.0
H1770 H 0.12487 0.3303 0.49548 0.0
H1771 H 0.11441 0.34649 0.63301 0.0
H1772 H 0.11108 0.29944 0.68782 0.0
H1773 H 0.12214 0.32639 0.65855 0.0
H1774 H 0.09725 0.30971 0.51818 0.0
H1775 H 0.08615 0.28274 0.54743 0.0
C1776 C 0.13429 0.35501 0.50201 0.0
C1777 C 0.13595 0.36744 0.53213 0.0
C1778 C 0.12558 0.33961 0.51894 0.0
C1779 C 0.1185 0.33633 0.56657 0.0
C1780 C 0.11985 0.34873 0.59626 0.0
C1781 C 0.12841 0.36415 0.57901 0.0
C1782 C 0.10785 0.30154 0.65093 0.0
C1783 C 0.09784 0.28901 0.61976 0.0
C1784 C 0.11409 0.31696 0.63434 0.0
C1785 C 0.11057 0.32011 0.58607 0.0
C1786 C 0.10024 0.30758 0.55541 0.0
C1787 C 0.09386 0.29217 0.57222 0.0
H1788 H 0.04459 0.57565 0.72722 0.0
H1789 H 0.02812 0.54724 0.86129 0.0
H1790 H 0.01765 0.56394 0.69677 0.0
H1791 H 0.00123 0.5357 0.83108 0.0
H1792 H 0.95404 0.52945 0.77964 0.0
H1793 H 0.98099 0.54407 0.8101 0.0
H1794 H -0.00264 0.53587 0.66912 0.0
H1795 H 0.97041 0.52111 0.63876 0.0
C1796 C 0.0352 0.56705 0.7504 0.0
C1797 C 0.03842 0.56231 0.79653 0.0
C1798 C 0.01983 0.56032 0.73288 0.0
C1799 C 0.0074 0.54893 0.7616 0.0
C1800 C 0.01059 0.54455 0.80843 0.0
C1801 C 0.02597 0.5511 0.82557 0.0
C1802 C 0.96341 0.53089 0.75501 0.0
C1803 C 0.96016 0.52411 0.70691 0.0
C1804 C 0.9788 0.5392 0.77252 0.0
C1805 C 0.99122 0.54107 0.74195 0.0
C1806 C 0.988 0.5347 0.69326 0.0
C1807 C 0.97259 0.5262 0.67602 0.0
H1808 H 0.46143 0.50045 0.75519 0.0
H1809 H 0.42135 0.45691 0.80128 0.0
H1810 H 0.47458 0.48645 0.72797 0.0
H1811 H 0.43479 0.44286 0.77677 0.0
H1812 H 0.45693 0.42034 0.68347 0.0
H1813 H 0.44327 0.43412 0.70851 0.0
H1814 H 0.48719 0.47347 0.75713 0.0
H1815 H 0.50081 0.45999 0.72938 0.0
C1816 C 0.45552 0.48787 0.76002 0.0
C1817 C 0.44039 0.47975 0.78036 0.0
C1818 C 0.46309 0.47982 0.74475 0.0
C1819 C 0.45583 0.46348 0.75037 0.0
C1820 C 0.44067 0.45539 0.77102 0.0
C1821 C 0.43299 0.46344 0.78544 0.0
C1822 C 0.46361 0.43195 0.69941 0.0
C1823 C 0.47992 0.43915 0.70424 0.0
C1824 C 0.45579 0.43983 0.71414 0.0
C1825 C 0.46409 0.45498 0.73484 0.0
C1826 C 0.48041 0.462 0.74031 0.0
C1827 C 0.48824 0.45424 0.72474 0.0
H1828 H 0.53511 0.95994 0.80895 0.0
H1829 H 0.49458 0.95458 0.72943 0.0
H1830 H 0.54942 0.98766 0.78644 0.0
H1831 H 0.50895 0.98197 0.70519 0.0
H1832 H 0.53182 0.03445 0.71952 0.0
H1833 H 0.51841 0.00688 0.7419 0.0
H1834 H 0.56121 0.0058 0.7186 0.0
H1835 H 0.57477 0.03365 0.69808 0.0
C1836 C 0.52934 0.96467 0.78622 0.0
C1837 C 0.51372 0.95517 0.77127 0.0
C1838 C 0.53754 0.98052 0.77307 0.0
C1839 C 0.5303 0.9871 0.74431 0.0
C1840 C 0.51479 0.97741 0.72835 0.0
C1841 C 0.50657 0.96167 0.74196 0.0
C1842 C 0.53836 0.02832 0.71917 0.0
C1843 C 0.55432 0.03617 0.70696 0.0
C1844 C 0.53066 0.01248 0.73169 0.0
C1845 C 0.53869 0.00405 0.73172 0.0
C1846 C 0.5547 0.01195 0.71954 0.0
C1847 C 0.56245 0.02788 0.70747 0.0
H1848 H 0.47247 0.03116 0.13754 0.0
H1849 H 0.47416 0.04574 0.29164 0.0
H1850 H 0.4578 0.0038 0.16385 0.0
H1851 H 0.45942 0.01839 0.31788 0.0
H1852 H 0.45266 0.96893 0.34706 0.0
H1853 H 0.46498 0.99641 0.32244 0.0
H1854 H 0.43211 0.98402 0.20006 0.0
H1855 H 0.41983 0.95652 0.22453 0.0
C1856 C 0.46955 0.02851 0.17693 0.0
C1857 C 0.47449 0.04057 0.21255 0.0
C1858 C 0.4611 0.01286 0.19196 0.0
C1859 C 0.45752 0.00896 0.24296 0.0
C1860 C 0.46217 0.02104 0.27841 0.0
C1861 C 0.47051 0.03669 0.26333 0.0
C1862 C 0.448 0.9721 0.31512 0.0
C1863 C 0.43531 0.96059 0.28765 0.0
C1864 C 0.455 0.98783 0.30118 0.0
C1865 C 0.44952 0.99236 0.25928 0.0
C1866 C 0.43668 0.98086 0.23222 0.0
C1867 C 0.42961 0.96514 0.24639 0.0
H1868 H 0.03301 0.45787 0.31599 0.0
H1869 H 0.03904 0.50059 0.25064 0.0
H1870 H 0.0057 0.44413 0.28935 0.0
H1871 H 0.01208 0.48681 0.22173 0.0
H1872 H 0.95936 0.46269 0.22379 0.0
H1873 H 0.98646 0.47588 0.25141 0.0
H1874 H 0.9888 0.43411 0.21958 0.0
H1875 H 0.96137 0.42071 0.19434 0.0
C1876 C 0.02851 0.46426 0.29547 0.0
C1877 C 0.03807 0.48029 0.28565 0.0
C1878 C 0.01289 0.45639 0.27987 0.0
C1879 C 0.0066 0.46435 0.25349 0.0
C1880 C 0.01636 0.48035 0.24293 0.0
C1881 C 0.03187 0.48825 0.2592 0.0
C1882 C 0.96569 0.45635 0.2227 0.0
C1883 C 0.9583 0.4407 0.20689 0.0
C1884 C 0.98127 0.46393 0.23822 0.0
C1885 C 0.98992 0.45612 0.23751 0.0
C1886 C 0.98248 0.44044 0.2214 0.0
C1887 C 0.96679 0.43278 0.20658 0.0
H1888 H 0.57258 0.52711 0.27073 0.0
H1889 H 0.54628 0.51641 0.13236 0.0
H1890 H 0.56046 0.54211 0.29963 0.0
H1891 H 0.53426 0.53149 0.16117 0.0
H1892 H 0.52803 0.57263 0.21127 0.0
H1893 H 0.54234 0.55978 0.18265 0.0
H1894 H 0.53259 0.53498 0.32376 0.0
H1895 H 0.51818 0.54774 0.35234 0.0
C1896 C 0.56432 0.52808 0.24635 0.0
C1897 C 0.56034 0.52059 0.19934 0.0
C1898 C 0.55734 0.53658 0.263 0.0
C1899 C 0.54644 0.53793 0.23263 0.0
C1900 C 0.54274 0.53074 0.18513 0.0
C1901 C 0.54955 0.52207 0.16877 0.0
C1902 C 0.52905 0.56453 0.23631 0.0
C1903 C 0.52198 0.56115 0.28398 0.0
C1904 C 0.53717 0.55713 0.21983 0.0
C1905 C 0.53853 0.54638 0.25097 0.0
C1906 C 0.53181 0.54332 0.29917 0.0
C1907 C 0.52352 0.55056 0.31541 0.0
loop_
_geom_bond_atom_site_label_1
_geom_bond_atom_site_label_2
_geom_bond_distance
_geom_bond_site_symmetry_2
_ccdc_geom_bond_type
In0 O1 2.294 . S
In0 O2 2.326 . S
In0 O6 2.266 . S
In0 O7 2.326 . S
In0 O8 2.266 . S
In0 O9 2.326 . S
In0 O11 2.294 . S
In0 O12 2.326 . S
O1 In0 2.294 . S
O1 C10 1.240 . S
O2 In0 2.326 . S
O2 C10 1.252 . S
C3 O6 1.252 . S
C3 O7 1.260 . S
C4 O11 1.240 . S
C4 O12 1.252 . S
C5 O8 1.252 . S
C5 O9 1.260 . S
O6 In0 2.266 . S
O6 C3 1.252 . S
O7 In0 2.326 . S
O7 C3 1.260 . S
O8 In0 2.266 . S
O8 C5 1.252 . S
O9 In0 2.326 . S
O9 C5 1.260 . S
C10 O1 1.240 . S
C10 O2 1.252 . S
O11 In0 2.294 . S
O11 C4 1.240 . S
O12 In0 2.326 . S
O12 C4 1.252 . S
In13 O14 2.294 . S
In13 O15 2.326 . S
In13 O19 2.266 . S
In13 O20 2.326 . S
In13 O21 2.266 . S
In13 O22 2.326 . S
In13 O24 2.294 . S
In13 O25 2.326 . S
O14 In13 2.294 . S
O14 C23 1.240 . S
O15 In13 2.326 . S
O15 C23 1.252 . S
C16 O19 1.252 . S
C16 O20 1.260 . S
C17 O24 1.240 . S
C17 O25 1.252 . S
C18 O21 1.252 . S
C18 O22 1.260 . S
O19 In13 2.266 . S
O19 C16 1.252 . S
O20 In13 2.326 . S
O20 C16 1.260 . S
O21 In13 2.266 . S
O21 C18 1.252 . S
O22 In13 2.326 . S
O22 C18 1.260 . S
C23 O14 1.240 . S
C23 O15 1.252 . S
O24 In13 2.294 . S
O24 C17 1.240 . S
O25 In13 2.326 . S
O25 C17 1.252 . S
In26 O27 2.294 . S
In26 O28 2.326 . S
In26 O32 2.266 . S
In26 O33 2.326 . S
In26 O34 2.266 . S
In26 O35 2.326 . S
In26 O37 2.294 . S
In26 O38 2.326 . S
O27 In26 2.294 . S
O27 C36 1.240 . S
O28 In26 2.326 . S
O28 C36 1.252 . S
C29 O32 1.252 . S
C29 O33 1.260 . S
C30 O37 1.240 . S
C30 O38 1.252 . S
C31 O34 1.252 . S
C31 O35 1.260 . S
O32 In26 2.266 . S
O32 C29 1.252 . S
O33 In26 2.326 . S
O33 C29 1.260 . S
O34 In26 2.266 . S
O34 C31 1.252 . S
O35 In26 2.326 . S
O35 C31 1.260 . S
C36 O27 1.240 . S
C36 O28 1.252 . S
O37 In26 2.294 . S
O37 C30 1.240 . S
O38 In26 2.326 . S
O38 C30 1.252 . S
In39 O40 2.294 . S
In39 O41 2.326 . S
In39 O45 2.266 . S
In39 O46 2.326 . S
In39 O47 2.266 . S
In39 O48 2.326 . S
In39 O50 2.294 . S
In39 O51 2.326 . S
O40 In39 2.294 . S
O40 C49 1.240 . S
O41 In39 2.326 . S
O41 C49 1.252 . S
C42 O45 1.252 . S
C42 O46 1.260 . S
C43 O50 1.240 . S
C43 O51 1.252 . S
C44 O47 1.252 . S
C44 O48 1.260 . S
O45 In39 2.266 . S
O45 C42 1.252 . S
O46 In39 2.326 . S
O46 C42 1.260 . S
O47 In39 2.266 . S
O47 C44 1.252 . S
O48 In39 2.326 . S
O48 C44 1.260 . S
C49 O40 1.240 . S
C49 O41 1.252 . S
O50 In39 2.294 . S
O50 C43 1.240 . S
O51 In39 2.326 . S
O51 C43 1.252 . S
In52 O53 2.294 . S
In52 O54 2.326 . S
In52 O58 2.266 . S
In52 O59 2.326 . S
In52 O60 2.266 . S
In52 O61 2.326 . S
In52 O63 2.294 . S
In52 O64 2.326 . S
O53 In52 2.294 . S
O53 C62 1.240 . S
O54 In52 2.326 . S
O54 C62 1.252 . S
C55 O58 1.252 . S
C55 O59 1.260 . S
C56 O63 1.240 . S
C56 O64 1.252 . S
C57 O60 1.252 . S
C57 O61 1.260 . S
O58 In52 2.266 . S
O58 C55 1.252 . S
O59 In52 2.326 . S
O59 C55 1.260 . S
O60 In52 2.266 . S
O60 C57 1.252 . S
O61 In52 2.326 . S
O61 C57 1.260 . S
C62 O53 1.240 . S
C62 O54 1.252 . S
O63 In52 2.294 . S
O63 C56 1.240 . S
O64 In52 2.326 . S
O64 C56 1.252 . S
In65 O66 2.294 . S
In65 O67 2.326 . S
In65 O71 2.266 . S
In65 O72 2.326 . S
In65 O73 2.266 . S
In65 O74 2.326 . S
In65 O76 2.294 . S
In65 O77 2.326 . S
O66 In65 2.294 . S
O66 C75 1.240 . S
O67 In65 2.326 . S
O67 C75 1.252 . S
C68 O71 1.252 . S
C68 O72 1.260 . S
C69 O76 1.240 . S
C69 O77 1.252 . S
C70 O73 1.252 . S
C70 O74 1.260 . S
O71 In65 2.266 . S
O71 C68 1.252 . S
O72 In65 2.326 . S
O72 C68 1.260 . S
O73 In65 2.266 . S
O73 C70 1.252 . S
O74 In65 2.326 . S
O74 C70 1.260 . S
C75 O66 1.240 . S
C75 O67 1.252 . S
O76 In65 2.294 . S
O76 C69 1.240 . S
O77 In65 2.326 . S
O77 C69 1.252 . S
In78 O79 2.294 . S
In78 O80 2.326 . S
In78 O84 2.266 . S
In78 O85 2.326 . S
In78 O86 2.266 . S
In78 O87 2.326 . S
In78 O89 2.294 . S
In78 O90 2.326 . S
O79 In78 2.294 . S
O79 C88 1.240 . S
O80 In78 2.326 . S
O80 C88 1.252 . S
C81 O84 1.252 . S
C81 O85 1.260 . S
C82 O89 1.240 . S
C82 O90 1.252 . S
C83 O86 1.252 . S
C83 O87 1.260 . S
O84 In78 2.266 . S
O84 C81 1.252 . S
O85 In78 2.326 . S
O85 C81 1.260 . S
O86 In78 2.266 . S
O86 C83 1.252 . S
O87 In78 2.326 . S
O87 C83 1.260 . S
C88 O79 1.240 . S
C88 O80 1.252 . S
O89 In78 2.294 . S
O89 C82 1.240 . S
O90 In78 2.326 . S
O90 C82 1.252 . S
In91 O92 2.294 . S
In91 O93 2.326 . S
In91 O97 2.266 . S
In91 O98 2.326 . S
In91 O99 2.266 . S
In91 O100 2.326 . S
In91 O102 2.294 . S
In91 O103 2.326 . S
O92 In91 2.294 . S
O92 C101 1.240 . S
O93 In91 2.326 . S
O93 C101 1.252 . S
C94 O97 1.252 . S
C94 O98 1.260 . S
C95 O102 1.240 . S
C95 O103 1.252 . S
C96 O99 1.252 . S
C96 O100 1.260 . S
O97 In91 2.266 . S
O97 C94 1.252 . S
O98 In91 2.326 . S
O98 C94 1.260 . S
O99 In91 2.266 . S
O99 C96 1.252 . S
O100 In91 2.326 . S
O100 C96 1.260 . S
C101 O92 1.240 . S
C101 O93 1.252 . S
O102 In91 2.294 . S
O102 C95 1.240 . S
O103 In91 2.326 . S
O103 C95 1.252 . S
In104 O105 2.294 . S
In104 O106 2.326 . S
In104 O110 2.266 . S
In104 O111 2.326 . S
In104 O112 2.266 . S
In104 O113 2.326 . S
In104 O115 2.294 . S
In104 O116 2.326 . S
O105 In104 2.294 . S
O105 C114 1.240 . S
O106 In104 2.326 . S
O106 C114 1.252 . S
C107 O110 1.252 . S
C107 O111 1.260 . S
C108 O115 1.240 . S
C108 O116 1.252 . S
C109 O112 1.252 . S
C109 O113 1.260 . S
O110 In104 2.266 . S
O110 C107 1.252 . S
O111 In104 2.326 . S
O111 C107 1.260 . S
O112 In104 2.266 . S
O112 C109 1.252 . S
O113 In104 2.326 . S
O113 C109 1.260 . S
C114 O105 1.240 . S
C114 O106 1.252 . S
O115 In104 2.294 . S
O115 C108 1.240 . S
O116 In104 2.326 . S
O116 C108 1.252 . S
In117 O118 2.294 . S
In117 O119 2.326 . S
In117 O123 2.266 . S
In117 O124 2.326 . S
In117 O125 2.266 . S
In117 O126 2.326 . S
In117 O128 2.294 . S
In117 O129 2.326 . S
O118 In117 2.294 . S
O118 C127 1.240 . S
O119 In117 2.326 . S
O119 C127 1.252 . S
C120 O123 1.252 . S
C120 O124 1.260 . S
C121 O128 1.240 . S
C121 O129 1.252 . S
C122 O125 1.252 . S
C122 O126 1.260 . S
O123 In117 2.266 . S
O123 C120 1.252 . S
O124 In117 2.326 . S
O124 C120 1.260 . S
O125 In117 2.266 . S
O125 C122 1.252 . S
O126 In117 2.326 . S
O126 C122 1.260 . S
C127 O118 1.240 . S
C127 O119 1.252 . S
O128 In117 2.294 . S
O128 C121 1.240 . S
O129 In117 2.326 . S
O129 C121 1.252 . S
In130 O131 2.294 . S
In130 O132 2.326 . S
In130 O136 2.266 . S
In130 O137 2.326 . S
In130 O138 2.266 . S
In130 O139 2.326 . S
In130 O141 2.294 . S
In130 O142 2.326 . S
O131 In130 2.294 . S
O131 C140 1.240 . S
O132 In130 2.326 . S
O132 C140 1.252 . S
C133 O136 1.252 . S
C133 O137 1.260 . S
C134 O141 1.240 . S
C134 O142 1.252 . S
C135 O138 1.252 . S
C135 O139 1.260 . S
O136 In130 2.266 . S
O136 C133 1.252 . S
O137 In130 2.326 . S
O137 C133 1.260 . S
O138 In130 2.266 . S
O138 C135 1.252 . S
O139 In130 2.326 . S
O139 C135 1.260 . S
C140 O131 1.240 . S
C140 O132 1.252 . S
O141 In130 2.294 . S
O141 C134 1.240 . S
O142 In130 2.326 . S
O142 C134 1.252 . S
In143 O144 2.294 . S
In143 O145 2.326 . S
In143 O149 2.266 . S
In143 O150 2.326 . S
In143 O151 2.266 . S
In143 O152 2.326 . S
In143 O154 2.294 . S
In143 O155 2.326 . S
O144 In143 2.294 . S
O144 C153 1.240 . S
O145 In143 2.326 . S
O145 C153 1.252 . S
C146 O149 1.252 . S
C146 O150 1.260 . S
C147 O154 1.240 . S
C147 O155 1.252 . S
C148 O151 1.252 . S
C148 O152 1.260 . S
O149 In143 2.266 . S
O149 C146 1.252 . S
O150 In143 2.326 . S
O150 C146 1.260 . S
O151 In143 2.266 . S
O151 C148 1.252 . S
O152 In143 2.326 . S
O152 C148 1.260 . S
C153 O144 1.240 . S
C153 O145 1.252 . S
O154 In143 2.294 . S
O154 C147 1.240 . S
O155 In143 2.326 . S
O155 C147 1.252 . S
In156 O157 2.294 . S
In156 O158 2.326 . S
In156 O162 2.266 . S
In156 O163 2.326 . S
In156 O164 2.266 . S
In156 O165 2.326 . S
In156 O167 2.294 . S
In156 O168 2.326 . S
O157 In156 2.294 . S
O157 C166 1.240 . S
O158 In156 2.326 . S
O158 C166 1.252 . S
C159 O162 1.252 . S
C159 O163 1.260 . S
C160 O167 1.240 . S
C160 O168 1.252 . S
C161 O164 1.252 . S
C161 O165 1.260 . S
O162 In156 2.266 . S
O162 C159 1.252 . S
O163 In156 2.326 . S
O163 C159 1.260 . S
O164 In156 2.266 . S
O164 C161 1.252 . S
O165 In156 2.326 . S
O165 C161 1.260 . S
C166 O157 1.240 . S
C166 O158 1.252 . S
O167 In156 2.294 . S
O167 C160 1.240 . S
O168 In156 2.326 . S
O168 C160 1.252 . S
In169 O170 2.294 . S
In169 O171 2.326 . S
In169 O175 2.266 . S
In169 O176 2.326 . S
In169 O177 2.266 . S
In169 O178 2.326 . S
In169 O180 2.294 . S
In169 O181 2.326 . S
O170 In169 2.294 . S
O170 C179 1.240 . S
O171 In169 2.326 . S
O171 C179 1.252 . S
C172 O175 1.252 . S
C172 O176 1.260 . S
C173 O180 1.240 . S
C173 O181 1.252 . S
C174 O177 1.252 . S
C174 O178 1.260 . S
O175 In169 2.266 . S
O175 C172 1.252 . S
O176 In169 2.326 . S
O176 C172 1.260 . S
O177 In169 2.266 . S
O177 C174 1.252 . S
O178 In169 2.326 . S
O178 C174 1.260 . S
C179 O170 1.240 . S
C179 O171 1.252 . S
O180 In169 2.294 . S
O180 C173 1.240 . S
O181 In169 2.326 . S
O181 C173 1.252 . S
In182 O183 2.294 . S
In182 O184 2.326 . S
In182 O188 2.266 . S
In182 O189 2.326 . S
In182 O190 2.266 . S
In182 O191 2.326 . S
In182 O193 2.294 . S
In182 O194 2.326 . S
O183 In182 2.294 . S
O183 C192 1.240 . S
O184 In182 2.326 . S
O184 C192 1.252 . S
C185 O188 1.252 . S
C185 O189 1.260 . S
C186 O193 1.240 . S
C186 O194 1.252 . S
C187 O190 1.252 . S
C187 O191 1.260 . S
O188 In182 2.266 . S
O188 C185 1.252 . S
O189 In182 2.326 . S
O189 C185 1.260 . S
O190 In182 2.266 . S
O190 C187 1.252 . S
O191 In182 2.326 . S
O191 C187 1.260 . S
C192 O183 1.240 . S
C192 O184 1.252 . S
O193 In182 2.294 . S
O193 C186 1.240 . S
O194 In182 2.326 . S
O194 C186 1.252 . S
In195 O196 2.294 . S
In195 O197 2.326 . S
In195 O201 2.266 . S
In195 O202 2.326 . S
In195 O203 2.266 . S
In195 O204 2.326 . S
In195 O206 2.294 . S
In195 O207 2.326 . S
O196 In195 2.294 . S
O196 C205 1.240 . S
O197 In195 2.326 . S
O197 C205 1.252 . S
C198 O201 1.252 . S
C198 O202 1.260 . S
C199 O206 1.240 . S
C199 O207 1.252 . S
C200 O203 1.252 . S
C200 O204 1.260 . S
O201 In195 2.266 . S
O201 C198 1.252 . S
O202 In195 2.326 . S
O202 C198 1.260 . S
O203 In195 2.266 . S
O203 C200 1.252 . S
O204 In195 2.326 . S
O204 C200 1.260 . S
C205 O196 1.240 . S
C205 O197 1.252 . S
O206 In195 2.294 . S
O206 C199 1.240 . S
O207 In195 2.326 . S
O207 C199 1.252 . S
In208 O209 2.294 . S
In208 O210 2.326 . S
In208 O214 2.266 . S
In208 O215 2.326 . S
In208 O216 2.266 . S
In208 O217 2.326 . S
In208 O219 2.294 . S
In208 O220 2.326 . S
O209 In208 2.294 . S
O209 C218 1.240 . S
O210 In208 2.326 . S
O210 C218 1.252 . S
C211 O214 1.252 . S
C211 O215 1.260 . S
C212 O219 1.240 . S
C212 O220 1.252 . S
C213 O216 1.252 . S
C213 O217 1.260 . S
O214 In208 2.266 . S
O214 C211 1.252 . S
O215 In208 2.326 . S
O215 C211 1.260 . S
O216 In208 2.266 . S
O216 C213 1.252 . S
O217 In208 2.326 . S
O217 C213 1.260 . S
C218 O209 1.240 . S
C218 O210 1.252 . S
O219 In208 2.294 . S
O219 C212 1.240 . S
O220 In208 2.326 . S
O220 C212 1.252 . S
In221 O222 2.294 . S
In221 O223 2.326 . S
In221 O227 2.266 . S
In221 O228 2.326 . S
In221 O229 2.266 . S
In221 O230 2.326 . S
In221 O232 2.294 . S
In221 O233 2.326 . S
O222 In221 2.294 . S
O222 C231 1.240 . S
O223 In221 2.326 . S
O223 C231 1.252 . S
C224 O227 1.252 . S
C224 O228 1.260 . S
C225 O232 1.240 . S
C225 O233 1.252 . S
C226 O229 1.252 . S
C226 O230 1.260 . S
O227 In221 2.266 . S
O227 C224 1.252 . S
O228 In221 2.326 . S
O228 C224 1.260 . S
O229 In221 2.266 . S
O229 C226 1.252 . S
O230 In221 2.326 . S
O230 C226 1.260 . S
C231 O222 1.240 . S
C231 O223 1.252 . S
O232 In221 2.294 . S
O232 C225 1.240 . S
O233 In221 2.326 . S
O233 C225 1.252 . S
In234 O235 2.294 . S
In234 O236 2.326 . S
In234 O240 2.266 . S
In234 O241 2.326 . S
In234 O242 2.266 . S
In234 O243 2.326 . S
In234 O245 2.294 . S
In234 O246 2.326 . S
O235 In234 2.294 . S
O235 C244 1.240 . S
O236 In234 2.326 . S
O236 C244 1.252 . S
C237 O240 1.252 . S
C237 O241 1.260 . S
C238 O245 1.240 . S
C238 O246 1.252 . S
C239 O242 1.252 . S
C239 O243 1.260 . S
O240 In234 2.266 . S
O240 C237 1.252 . S
O241 In234 2.326 . S
O241 C237 1.260 . S
O242 In234 2.266 . S
O242 C239 1.252 . S
O243 In234 2.326 . S
O243 C239 1.260 . S
C244 O235 1.240 . S
C244 O236 1.252 . S
O245 In234 2.294 . S
O245 C238 1.240 . S
O246 In234 2.326 . S
O246 C238 1.252 . S
In247 O248 2.294 . S
In247 O249 2.326 . S
In247 O253 2.266 . S
In247 O254 2.326 . S
In247 O255 2.266 . S
In247 O256 2.326 . S
In247 O258 2.294 . S
In247 O259 2.326 . S
O248 In247 2.294 . S
O248 C257 1.240 . S
O249 In247 2.326 . S
O249 C257 1.252 . S
C250 O253 1.252 . S
C250 O254 1.260 . S
C251 O258 1.240 . S
C251 O259 1.252 . S
C252 O255 1.252 . S
C252 O256 1.260 . S
O253 In247 2.266 . S
O253 C250 1.252 . S
O254 In247 2.326 . S
O254 C250 1.260 . S
O255 In247 2.266 . S
O255 C252 1.252 . S
O256 In247 2.326 . S
O256 C252 1.260 . S
C257 O248 1.240 . S
C257 O249 1.252 . S
O258 In247 2.294 . S
O258 C251 1.240 . S
O259 In247 2.326 . S
O259 C251 1.252 . S
In260 O261 2.294 . S
In260 O262 2.326 . S
In260 O266 2.266 . S
In260 O267 2.326 . S
In260 O268 2.266 . S
In260 O269 2.326 . S
In260 O271 2.294 . S
In260 O272 2.326 . S
O261 In260 2.294 . S
O261 C270 1.240 . S
O262 In260 2.326 . S
O262 C270 1.252 . S
C263 O266 1.252 . S
C263 O267 1.260 . S
C264 O271 1.240 . S
C264 O272 1.252 . S
C265 O268 1.252 . S
C265 O269 1.260 . S
O266 In260 2.266 . S
O266 C263 1.252 . S
O267 In260 2.326 . S
O267 C263 1.260 . S
O268 In260 2.266 . S
O268 C265 1.252 . S
O269 In260 2.326 . S
O269 C265 1.260 . S
C270 O261 1.240 . S
C270 O262 1.252 . S
O271 In260 2.294 . S
O271 C264 1.240 . S
O272 In260 2.326 . S
O272 C264 1.252 . S
In273 O274 2.297 . S
In273 O275 2.328 . S
In273 O279 2.266 1_554 S
In273 O280 2.323 1_554 S
In273 O281 2.263 1_554 S
In273 O282 2.324 1_554 S
In273 O284 2.294 . S
In273 O285 2.329 . S
O274 In273 2.297 . S
O274 C283 1.240 . S
O275 In273 2.328 . S
O275 C283 1.252 . S
C276 O279 1.252 . S
C276 O280 1.260 . S
C277 O284 1.240 . S
C277 O285 1.252 . S
C278 O281 1.252 . S
C278 O282 1.260 . S
O279 In273 2.266 1_556 S
O279 C276 1.252 . S
O280 In273 2.323 1_556 S
O280 C276 1.260 . S
O281 In273 2.263 1_556 S
O281 C278 1.252 . S
O282 In273 2.324 1_556 S
O282 C278 1.260 . S
C283 O274 1.240 . S
C283 O275 1.252 . S
O284 In273 2.294 . S
O284 C277 1.240 . S
O285 In273 2.329 . S
O285 C277 1.252 . S
In286 O287 2.294 . S
In286 O288 2.329 . S
In286 O292 2.263 1_554 S
In286 O293 2.324 1_554 S
In286 O294 2.266 1_554 S
In286 O295 2.323 1_554 S
In286 O297 2.297 . S
In286 O298 2.328 . S
O287 In286 2.294 . S
O287 C296 1.240 . S
O288 In286 2.329 . S
O288 C296 1.252 . S
C289 O292 1.252 . S
C289 O293 1.260 . S
C290 O297 1.240 . S
C290 O298 1.252 . S
C291 O294 1.252 . S
C291 O295 1.260 . S
O292 In286 2.263 1_556 S
O292 C289 1.252 . S
O293 In286 2.324 1_556 S
O293 C289 1.260 . S
O294 In286 2.266 1_556 S
O294 C291 1.252 . S
O295 In286 2.323 1_556 S
O295 C291 1.260 . S
C296 O287 1.240 . S
C296 O288 1.252 . S
O297 In286 2.297 . S
O297 C290 1.240 . S
O298 In286 2.328 . S
O298 C290 1.252 . S
In299 O300 2.294 . S
In299 O301 2.329 . S
In299 O305 2.263 1_554 S
In299 O306 2.324 1_554 S
In299 O307 2.266 1_554 S
In299 O308 2.323 1_554 S
In299 O310 2.297 . S
In299 O311 2.328 . S
O300 In299 2.294 . S
O300 C309 1.240 . S
O301 In299 2.329 . S
O301 C309 1.252 . S
C302 O305 1.252 . S
C302 O306 1.260 . S
C303 O310 1.240 . S
C303 O311 1.252 . S
C304 O307 1.252 . S
C304 O308 1.260 . S
O305 In299 2.263 1_556 S
O305 C302 1.252 . S
O306 In299 2.324 1_556 S
O306 C302 1.260 . S
O307 In299 2.266 1_556 S
O307 C304 1.252 . S
O308 In299 2.323 1_556 S
O308 C304 1.260 . S
C309 O300 1.240 . S
C309 O301 1.252 . S
O310 In299 2.297 . S
O310 C303 1.240 . S
O311 In299 2.328 . S
O311 C303 1.252 . S
In312 O313 2.294 . S
In312 O314 2.326 . S
In312 O318 2.266 . S
In312 O319 2.326 . S
In312 O320 2.266 . S
In312 O321 2.326 . S
In312 O323 2.294 . S
In312 O324 2.326 . S
O313 In312 2.294 . S
O313 C322 1.240 . S
O314 In312 2.326 . S
O314 C322 1.252 . S
C315 O318 1.252 . S
C315 O319 1.260 . S
C316 O323 1.240 . S
C316 O324 1.252 . S
C317 O320 1.252 . S
C317 O321 1.260 . S
O318 In312 2.266 . S
O318 C315 1.252 . S
O319 In312 2.326 . S
O319 C315 1.260 . S
O320 In312 2.266 . S
O320 C317 1.252 . S
O321 In312 2.326 . S
O321 C317 1.260 . S
C322 O313 1.240 . S
C322 O314 1.252 . S
O323 In312 2.294 . S
O323 C316 1.240 . S
O324 In312 2.326 . S
O324 C316 1.252 . S
In325 O326 2.294 . S
In325 O327 2.326 . S
In325 O331 2.266 . S
In325 O332 2.326 . S
In325 O333 2.266 . S
In325 O334 2.326 . S
In325 O336 2.294 . S
In325 O337 2.326 . S
O326 In325 2.294 . S
O326 C335 1.240 . S
O327 In325 2.326 . S
O327 C335 1.252 . S
C328 O331 1.252 . S
C328 O332 1.260 . S
C329 O336 1.240 . S
C329 O337 1.252 . S
C330 O333 1.252 . S
C330 O334 1.260 . S
O331 In325 2.266 . S
O331 C328 1.252 . S
O332 In325 2.326 . S
O332 C328 1.260 . S
O333 In325 2.266 . S
O333 C330 1.252 . S
O334 In325 2.326 . S
O334 C330 1.260 . S
C335 O326 1.240 . S
C335 O327 1.252 . S
O336 In325 2.294 . S
O336 C329 1.240 . S
O337 In325 2.326 . S
O337 C329 1.252 . S
In338 O339 2.294 . S
In338 O340 2.326 . S
In338 O344 2.266 . S
In338 O345 2.326 . S
In338 O346 2.266 . S
In338 O347 2.326 . S
In338 O349 2.294 . S
In338 O350 2.326 . S
O339 In338 2.294 . S
O339 C348 1.240 . S
O340 In338 2.326 . S
O340 C348 1.252 . S
C341 O344 1.252 . S
C341 O345 1.260 . S
C342 O349 1.240 . S
C342 O350 1.252 . S
C343 O346 1.252 . S
C343 O347 1.260 . S
O344 In338 2.266 . S
O344 C341 1.252 . S
O345 In338 2.326 . S
O345 C341 1.260 . S
O346 In338 2.266 . S
O346 C343 1.252 . S
O347 In338 2.326 . S
O347 C343 1.260 . S
C348 O339 1.240 . S
C348 O340 1.252 . S
O349 In338 2.294 . S
O349 C342 1.240 . S
O350 In338 2.326 . S
O350 C342 1.252 . S
In351 O352 2.294 . S
In351 O353 2.329 . S
In351 O357 2.263 1_556 S
In351 O358 2.324 1_556 S
In351 O359 2.266 1_556 S
In351 O360 2.323 1_556 S
In351 O362 2.297 . S
In351 O363 2.328 . S
O352 In351 2.294 . S
O352 C361 1.240 . S
O353 In351 2.329 . S
O353 C361 1.252 . S
C354 O357 1.252 . S
C354 O358 1.260 . S
C355 O362 1.240 . S
C355 O363 1.252 . S
C356 O359 1.252 . S
C356 O360 1.260 . S
O357 In351 2.263 1_554 S
O357 C354 1.252 . S
O358 In351 2.324 1_554 S
O358 C354 1.260 . S
O359 In351 2.266 1_554 S
O359 C356 1.252 . S
O360 In351 2.323 1_554 S
O360 C356 1.260 . S
C361 O352 1.240 . S
C361 O353 1.252 . S
O362 In351 2.297 . S
O362 C355 1.240 . S
O363 In351 2.328 . S
O363 C355 1.252 . S
In364 O365 2.297 . S
In364 O366 2.328 . S
In364 O370 2.266 1_556 S
In364 O371 2.323 1_556 S
In364 O372 2.263 1_556 S
In364 O373 2.324 1_556 S
In364 O375 2.294 . S
In364 O376 2.329 . S
O365 In364 2.297 . S
O365 C374 1.240 . S
O366 In364 2.328 . S
O366 C374 1.252 . S
C367 O370 1.252 . S
C367 O371 1.260 . S
C368 O375 1.240 . S
C368 O376 1.252 . S
C369 O372 1.252 . S
C369 O373 1.260 . S
O370 In364 2.266 1_554 S
O370 C367 1.252 . S
O371 In364 2.323 1_554 S
O371 C367 1.260 . S
O372 In364 2.263 1_554 S
O372 C369 1.252 . S
O373 In364 2.324 1_554 S
O373 C369 1.260 . S
C374 O365 1.240 . S
C374 O366 1.252 . S
O375 In364 2.294 . S
O375 C368 1.240 . S
O376 In364 2.329 . S
O376 C368 1.252 . S
In377 O378 2.297 . S
In377 O379 2.328 . S
In377 O383 2.266 1_556 S
In377 O384 2.323 1_556 S
In377 O385 2.263 1_556 S
In377 O386 2.324 1_556 S
In377 O388 2.294 . S
In377 O389 2.329 . S
O378 In377 2.297 . S
O378 C387 1.240 . S
O379 In377 2.328 . S
O379 C387 1.252 . S
C380 O383 1.252 . S
C380 O384 1.260 . S
C381 O388 1.240 . S
C381 O389 1.252 . S
C382 O385 1.252 . S
C382 O386 1.260 . S
O383 In377 2.266 1_554 S
O383 C380 1.252 . S
O384 In377 2.323 1_554 S
O384 C380 1.260 . S
O385 In377 2.263 1_554 S
O385 C382 1.252 . S
O386 In377 2.324 1_554 S
O386 C382 1.260 . S
C387 O378 1.240 . S
C387 O379 1.252 . S
O388 In377 2.294 . S
O388 C381 1.240 . S
O389 In377 2.329 . S
O389 C381 1.252 . S
In390 O391 2.294 . S
In390 O392 2.326 . S
In390 O396 2.266 . S
In390 O397 2.326 . S
In390 O398 2.266 . S
In390 O399 2.326 . S
In390 O401 2.294 . S
In390 O402 2.326 . S
O391 In390 2.294 . S
O391 C400 1.240 . S
O392 In390 2.326 . S
O392 C400 1.252 . S
C393 O396 1.252 . S
C393 O397 1.260 . S
C394 O401 1.240 . S
C394 O402 1.252 . S
C395 O398 1.252 . S
C395 O399 1.260 . S
O396 In390 2.266 . S
O396 C393 1.252 . S
O397 In390 2.326 . S
O397 C393 1.260 . S
O398 In390 2.266 . S
O398 C395 1.252 . S
O399 In390 2.326 . S
O399 C395 1.260 . S
C400 O391 1.240 . S
C400 O392 1.252 . S
O401 In390 2.294 . S
O401 C394 1.240 . S
O402 In390 2.326 . S
O402 C394 1.252 . S
In403 O404 2.294 . S
In403 O405 2.326 . S
In403 O409 2.266 . S
In403 O410 2.326 . S
In403 O411 2.266 . S
In403 O412 2.326 . S
In403 O414 2.294 . S
In403 O415 2.326 . S
O404 In403 2.294 . S
O404 C413 1.240 . S
O405 In403 2.326 . S
O405 C413 1.252 . S
C406 O409 1.252 . S
C406 O410 1.260 . S
C407 O414 1.240 . S
C407 O415 1.252 . S
C408 O411 1.252 . S
C408 O412 1.260 . S
O409 In403 2.266 . S
O409 C406 1.252 . S
O410 In403 2.326 . S
O410 C406 1.260 . S
O411 In403 2.266 . S
O411 C408 1.252 . S
O412 In403 2.326 . S
O412 C408 1.260 . S
C413 O404 1.240 . S
C413 O405 1.252 . S
O414 In403 2.294 . S
O414 C407 1.240 . S
O415 In403 2.326 . S
O415 C407 1.252 . S
In416 O417 2.294 . S
In416 O418 2.326 . S
In416 O422 2.266 . S
In416 O423 2.326 . S
In416 O424 2.266 . S
In416 O425 2.326 . S
In416 O427 2.294 . S
In416 O428 2.326 . S
O417 In416 2.294 . S
O417 C426 1.240 . S
O418 In416 2.326 . S
O418 C426 1.252 . S
C419 O422 1.252 . S
C419 O423 1.260 . S
C420 O427 1.240 . S
C420 O428 1.252 . S
C421 O424 1.252 . S
C421 O425 1.260 . S
O422 In416 2.266 . S
O422 C419 1.252 . S
O423 In416 2.326 . S
O423 C419 1.260 . S
O424 In416 2.266 . S
O424 C421 1.252 . S
O425 In416 2.326 . S
O425 C421 1.260 . S
C426 O417 1.240 . S
C426 O418 1.252 . S
O427 In416 2.294 . S
O427 C420 1.240 . S
O428 In416 2.326 . S
O428 C420 1.252 . S
In429 O430 2.294 . S
In429 O431 2.326 . S
In429 O435 2.266 . S
In429 O436 2.326 . S
In429 O437 2.266 . S
In429 O438 2.326 . S
In429 O440 2.294 . S
In429 O441 2.326 . S
O430 In429 2.294 . S
O430 C439 1.240 . S
O431 In429 2.326 . S
O431 C439 1.252 . S
C432 O435 1.252 . S
C432 O436 1.260 . S
C433 O440 1.240 . S
C433 O441 1.252 . S
C434 O437 1.252 . S
C434 O438 1.260 . S
O435 In429 2.266 . S
O435 C432 1.252 . S
O436 In429 2.326 . S
O436 C432 1.260 . S
O437 In429 2.266 . S
O437 C434 1.252 . S
O438 In429 2.326 . S
O438 C434 1.260 . S
C439 O430 1.240 . S
C439 O431 1.252 . S
O440 In429 2.294 . S
O440 C433 1.240 . S
O441 In429 2.326 . S
O441 C433 1.252 . S
In442 O443 2.294 . S
In442 O444 2.326 . S
In442 O448 2.266 . S
In442 O449 2.326 . S
In442 O450 2.266 . S
In442 O451 2.326 . S
In442 O453 2.294 . S
In442 O454 2.326 . S
O443 In442 2.294 . S
O443 C452 1.240 . S
O444 In442 2.326 . S
O444 C452 1.252 . S
C445 O448 1.252 . S
C445 O449 1.260 . S
C446 O453 1.240 . S
C446 O454 1.252 . S
C447 O450 1.252 . S
C447 O451 1.260 . S
O448 In442 2.266 . S
O448 C445 1.252 . S
O449 In442 2.326 . S
O449 C445 1.260 . S
O450 In442 2.266 . S
O450 C447 1.252 . S
O451 In442 2.326 . S
O451 C447 1.260 . S
C452 O443 1.240 . S
C452 O444 1.252 . S
O453 In442 2.294 . S
O453 C446 1.240 . S
O454 In442 2.326 . S
O454 C446 1.252 . S
In455 O456 2.294 . S
In455 O457 2.326 . S
In455 O461 2.266 . S
In455 O462 2.326 . S
In455 O463 2.266 . S
In455 O464 2.326 . S
In455 O466 2.294 . S
In455 O467 2.326 . S
O456 In455 2.294 . S
O456 C465 1.240 . S
O457 In455 2.326 . S
O457 C465 1.252 . S
C458 O461 1.252 . S
C458 O462 1.260 . S
C459 O466 1.240 . S
C459 O467 1.252 . S
C460 O463 1.252 . S
C460 O464 1.260 . S
O461 In455 2.266 . S
O461 C458 1.252 . S
O462 In455 2.326 . S
O462 C458 1.260 . S
O463 In455 2.266 . S
O463 C460 1.252 . S
O464 In455 2.326 . S
O464 C460 1.260 . S
C465 O456 1.240 . S
C465 O457 1.252 . S
O466 In455 2.294 . S
O466 C459 1.240 . S
O467 In455 2.326 . S
O467 C459 1.252 . S
H468 C476 0.950 . S
H469 C481 0.950 . S
H470 C478 0.950 . S
H471 C480 0.950 . S
H472 C482 0.950 . S
H473 C484 0.950 . S
H474 C486 0.950 . S
H475 C487 0.950 . S
C476 H468 0.950 . S
C476 C477 1.386 . S
C476 C478 1.391 . S
C477 C476 1.386 . S
C477 C481 1.393 . S
C478 H470 0.950 . S
C478 C476 1.391 . S
C478 C479 1.400 . S
C479 C478 1.400 . S
C479 C480 1.398 . S
C479 C485 1.491 . S
C480 H471 0.950 . S
C480 C479 1.398 . S
C480 C481 1.391 . S
C481 H469 0.950 . S
C481 C477 1.393 . S
C481 C480 1.391 . S
C482 H472 0.950 . S
C482 C483 1.386 . S
C482 C484 1.391 . S
C483 C482 1.386 . S
C483 C487 1.393 . S
C484 H473 0.950 . S
C484 C482 1.391 . S
C484 C485 1.400 . S
C485 C479 1.491 . S
C485 C484 1.400 . S
C485 C486 1.398 . S
C486 H474 0.950 . S
C486 C485 1.398 . S
C486 C487 1.391 . S
C487 H475 0.950 . S
C487 C483 1.393 . S
C487 C486 1.391 . S
H488 C496 0.950 . S
H489 C501 0.950 . S
H490 C498 0.950 . S
H491 C500 0.950 . S
H492 C502 0.950 . S
H493 C504 0.950 . S
H494 C506 0.950 . S
H495 C507 0.950 . S
C496 H488 0.950 . S
C496 C497 1.386 . S
C496 C498 1.391 . S
C497 C496 1.386 . S
C497 C501 1.393 . S
C498 H490 0.950 . S
C498 C496 1.391 . S
C498 C499 1.400 . S
C499 C498 1.400 . S
C499 C500 1.398 . S
C499 C505 1.491 1_545 S
C500 H491 0.950 . S
C500 C499 1.398 . S
C500 C501 1.391 . S
C501 H489 0.950 . S
C501 C497 1.393 . S
C501 C500 1.391 . S
C502 H492 0.950 . S
C502 C503 1.386 . S
C502 C504 1.391 . S
C503 C502 1.386 . S
C503 C507 1.393 . S
C504 H493 0.950 . S
C504 C502 1.391 . S
C504 C505 1.400 . S
C505 C499 1.491 1_565 S
C505 C504 1.400 . S
C505 C506 1.398 . S
C506 H494 0.950 . S
C506 C505 1.398 . S
C506 C507 1.391 . S
C507 H495 0.950 . S
C507 C503 1.393 . S
C507 C506 1.391 . S
H508 C516 0.950 . S
H509 C521 0.950 . S
H510 C518 0.950 . S
H511 C520 0.950 . S
H512 C522 0.950 . S
H513 C524 0.950 . S
H514 C526 0.950 . S
H515 C527 0.950 . S
C516 H508 0.950 . S
C516 C517 1.386 . S
C516 C518 1.391 . S
C517 C516 1.386 . S
C517 C521 1.393 . S
C518 H510 0.950 . S
C518 C516 1.391 . S
C518 C519 1.400 . S
C519 C518 1.400 . S
C519 C520 1.398 . S
C519 C525 1.491 1_655 S
C520 H511 0.950 . S
C520 C519 1.398 . S
C520 C521 1.391 . S
C521 H509 0.950 . S
C521 C517 1.393 . S
C521 C520 1.391 . S
C522 H512 0.950 . S
C522 C523 1.386 . S
C522 C524 1.391 . S
C523 C522 1.386 . S
C523 C527 1.393 . S
C524 H513 0.950 . S
C524 C522 1.391 . S
C524 C525 1.400 . S
C525 C519 1.491 1_455 S
C525 C524 1.400 . S
C525 C526 1.398 . S
C526 H514 0.950 . S
C526 C525 1.398 . S
C526 C527 1.391 . S
C527 H515 0.950 . S
C527 C523 1.393 . S
C527 C526 1.391 . S
H528 C536 0.950 . S
H529 C541 0.950 . S
H530 C538 0.950 . S
H531 C540 0.950 . S
H532 C542 0.950 . S
H533 C544 0.950 . S
H534 C546 0.950 . S
H535 C547 0.950 . S
C536 H528 0.950 . S
C536 C537 1.386 . S
C536 C538 1.391 . S
C537 C536 1.386 . S
C537 C541 1.393 . S
C538 H530 0.950 . S
C538 C536 1.391 . S
C538 C539 1.400 . S
C539 C538 1.400 . S
C539 C540 1.398 . S
C539 C545 1.491 . S
C540 H531 0.950 . S
C540 C539 1.398 . S
C540 C541 1.391 . S
C541 H529 0.950 . S
C541 C537 1.393 . S
C541 C540 1.391 . S
C542 H532 0.950 . S
C542 C543 1.386 . S
C542 C544 1.391 . S
C543 C542 1.386 . S
C543 C547 1.393 . S
C544 H533 0.950 . S
C544 C542 1.391 . S
C544 C545 1.400 . S
C545 C539 1.491 . S
C545 C544 1.400 . S
C545 C546 1.398 . S
C546 H534 0.950 . S
C546 C545 1.398 . S
C546 C547 1.391 . S
C547 H535 0.950 . S
C547 C543 1.393 . S
C547 C546 1.391 . S
H548 C556 0.950 . S
H549 C561 0.950 . S
H550 C558 0.950 . S
H551 C560 0.950 . S
H552 C562 0.950 . S
H553 C564 0.950 . S
H554 C566 0.950 . S
H555 C567 0.950 . S
C556 H548 0.950 . S
C556 C557 1.386 . S
C556 C558 1.391 . S
C557 C556 1.386 . S
C557 C561 1.393 . S
C558 H550 0.950 . S
C558 C556 1.391 . S
C558 C559 1.400 . S
C559 C558 1.400 . S
C559 C560 1.398 . S
C559 C565 1.491 1_545 S
C560 H551 0.950 . S
C560 C559 1.398 . S
C560 C561 1.391 . S
C561 H549 0.950 . S
C561 C557 1.393 . S
C561 C560 1.391 . S
C562 H552 0.950 . S
C562 C563 1.386 . S
C562 C564 1.391 . S
C563 C562 1.386 . S
C563 C567 1.393 . S
C564 H553 0.950 . S
C564 C562 1.391 . S
C564 C565 1.400 . S
C565 C559 1.491 1_565 S
C565 C564 1.400 . S
C565 C566 1.398 . S
C566 H554 0.950 . S
C566 C565 1.398 . S
C566 C567 1.391 . S
C567 H555 0.950 . S
C567 C563 1.393 . S
C567 C566 1.391 . S
H568 C576 0.950 . S
H569 C581 0.950 . S
H570 C578 0.950 . S
H571 C580 0.950 . S
H572 C582 0.950 . S
H573 C584 0.950 . S
H574 C586 0.950 . S
H575 C587 0.950 . S
C576 H568 0.950 . S
C576 C577 1.386 . S
C576 C578 1.391 . S
C577 C576 1.386 . S
C577 C581 1.393 . S
C578 H570 0.950 . S
C578 C576 1.391 . S
C578 C579 1.400 . S
C579 C578 1.400 . S
C579 C580 1.398 . S
C579 C585 1.491 1_455 S
C580 H571 0.950 . S
C580 C579 1.398 . S
C580 C581 1.391 . S
C581 H569 0.950 . S
C581 C577 1.393 . S
C581 C580 1.391 . S
C582 H572 0.950 . S
C582 C583 1.386 . S
C582 C584 1.391 . S
C583 C582 1.386 . S
C583 C587 1.393 . S
C584 H573 0.950 . S
C584 C582 1.391 . S
C584 C585 1.400 . S
C585 C579 1.491 1_655 S
C585 C584 1.400 . S
C585 C586 1.398 . S
C586 H574 0.950 . S
C586 C585 1.398 . S
C586 C587 1.391 . S
C587 H575 0.950 . S
C587 C583 1.393 . S
C587 C586 1.391 . S
H588 C596 0.950 . S
H589 C601 0.950 . S
H590 C598 0.950 . S
H591 C600 0.950 . S
H592 C602 0.950 . S
H593 C604 0.950 . S
H594 C606 0.950 . S
H595 C607 0.950 . S
C596 H588 0.950 . S
C596 C597 1.386 . S
C596 C598 1.391 . S
C597 C596 1.386 . S
C597 C601 1.393 . S
C598 H590 0.950 . S
C598 C596 1.391 . S
C598 C599 1.400 . S
C599 C598 1.400 . S
C599 C600 1.398 . S
C599 C605 1.491 . S
C600 H591 0.950 . S
C600 C599 1.398 . S
C600 C601 1.391 . S
C601 H589 0.950 . S
C601 C597 1.393 . S
C601 C600 1.391 . S
C602 H592 0.950 . S
C602 C603 1.386 . S
C602 C604 1.391 . S
C603 C602 1.386 . S
C603 C607 1.393 . S
C604 H593 0.950 . S
C604 C602 1.391 . S
C604 C605 1.400 . S
C605 C599 1.491 . S
C605 C604 1.400 . S
C605 C606 1.398 . S
C606 H594 0.950 . S
C606 C605 1.398 . S
C606 C607 1.391 . S
C607 H595 0.950 . S
C607 C603 1.393 . S
C607 C606 1.391 . S
H608 C616 0.950 . S
H609 C621 0.950 . S
H610 C618 0.950 . S
H611 C620 0.950 . S
H612 C622 0.950 . S
H613 C624 0.950 . S
H614 C626 0.950 . S
H615 C627 0.950 . S
C616 H608 0.950 . S
C616 C617 1.386 . S
C616 C618 1.391 . S
C617 C616 1.386 . S
C617 C621 1.393 . S
C618 H610 0.950 . S
C618 C616 1.391 . S
C618 C619 1.400 . S
C619 C618 1.400 . S
C619 C620 1.398 . S
C619 C625 1.491 . S
C620 H611 0.950 . S
C620 C619 1.398 . S
C620 C621 1.391 . S
C621 H609 0.950 . S
C621 C617 1.393 . S
C621 C620 1.391 . S
C622 H612 0.950 . S
C622 C623 1.386 . S
C622 C624 1.391 . S
C623 C622 1.386 . S
C623 C627 1.393 . S
C624 H613 0.950 . S
C624 C622 1.391 . S
C624 C625 1.400 . S
C625 C619 1.491 . S
C625 C624 1.400 . S
C625 C626 1.398 . S
C626 H614 0.950 . S
C626 C625 1.398 . S
C626 C627 1.391 . S
C627 H615 0.950 . S
C627 C623 1.393 . S
C627 C626 1.391 . S
H628 C636 0.950 . S
H629 C641 0.950 . S
H630 C638 0.950 . S
H631 C640 0.950 . S
H632 C642 0.950 . S
H633 C644 0.950 . S
H634 C646 0.950 . S
H635 C647 0.950 . S
C636 H628 0.950 . S
C636 C637 1.386 . S
C636 C638 1.391 . S
C637 C636 1.386 . S
C637 C641 1.393 . S
C638 H630 0.950 . S
C638 C636 1.391 . S
C638 C639 1.400 . S
C639 C638 1.400 . S
C639 C640 1.398 . S
C639 C645 1.491 . S
C640 H631 0.950 . S
C640 C639 1.398 . S
C640 C641 1.391 . S
C641 H629 0.950 . S
C641 C637 1.393 . S
C641 C640 1.391 . S
C642 H632 0.950 . S
C642 C643 1.386 . S
C642 C644 1.391 . S
C643 C642 1.386 . S
C643 C647 1.393 . S
C644 H633 0.950 . S
C644 C642 1.391 . S
C644 C645 1.400 . S
C645 C639 1.491 . S
C645 C644 1.400 . S
C645 C646 1.398 . S
C646 H634 0.950 . S
C646 C645 1.398 . S
C646 C647 1.391 . S
C647 H635 0.950 . S
C647 C643 1.393 . S
C647 C646 1.391 . S
H648 C656 0.950 . S
H649 C661 0.950 . S
H650 C658 0.950 . S
H651 C660 0.950 . S
H652 C662 0.950 . S
H653 C664 0.950 . S
H654 C666 0.950 . S
H655 C667 0.950 . S
C656 H648 0.950 . S
C656 C657 1.386 . S
C656 C658 1.391 . S
C657 C656 1.386 . S
C657 C661 1.393 . S
C658 H650 0.950 . S
C658 C656 1.391 . S
C658 C659 1.400 . S
C659 C658 1.400 . S
C659 C660 1.398 . S
C659 C665 1.491 . S
C660 H651 0.950 . S
C660 C659 1.398 . S
C660 C661 1.391 . S
C661 H649 0.950 . S
C661 C657 1.393 . S
C661 C660 1.391 . S
C662 H652 0.950 . S
C662 C663 1.386 . S
C662 C664 1.391 . S
C663 C662 1.386 . S
C663 C667 1.393 . S
C664 H653 0.950 . S
C664 C662 1.391 . S
C664 C665 1.400 . S
C665 C659 1.491 . S
C665 C664 1.400 . S
C665 C666 1.398 . S
C666 H654 0.950 . S
C666 C665 1.398 . S
C666 C667 1.391 . S
C667 H655 0.950 . S
C667 C663 1.393 . S
C667 C666 1.391 . S
H668 C676 0.950 . S
H669 C681 0.950 . S
H670 C678 0.950 . S
H671 C680 0.950 . S
H672 C682 0.950 . S
H673 C684 0.950 . S
H674 C686 0.950 . S
H675 C687 0.950 . S
C676 H668 0.950 . S
C676 C677 1.386 . S
C676 C678 1.391 . S
C677 C676 1.386 . S
C677 C681 1.393 . S
C678 H670 0.950 . S
C678 C676 1.391 . S
C678 C679 1.400 . S
C679 C678 1.400 . S
C679 C680 1.398 . S
C679 C685 1.491 . S
C680 H671 0.950 . S
C680 C679 1.398 . S
C680 C681 1.391 . S
C681 H669 0.950 . S
C681 C677 1.393 . S
C681 C680 1.391 . S
C682 H672 0.950 . S
C682 C683 1.386 . S
C682 C684 1.391 . S
C683 C682 1.386 . S
C683 C687 1.393 . S
C684 H673 0.950 . S
C684 C682 1.391 . S
C684 C685 1.400 . S
C685 C679 1.491 . S
C685 C684 1.400 . S
C685 C686 1.398 . S
C686 H674 0.950 . S
C686 C685 1.398 . S
C686 C687 1.391 . S
C687 H675 0.950 . S
C687 C683 1.393 . S
C687 C686 1.391 . S
H688 C696 0.950 . S
H689 C701 0.950 . S
H690 C698 0.950 . S
H691 C700 0.950 . S
H692 C702 0.950 . S
H693 C704 0.950 . S
H694 C706 0.950 . S
H695 C707 0.950 . S
C696 H688 0.950 . S
C696 C697 1.386 . S
C696 C698 1.391 . S
C697 C696 1.386 . S
C697 C701 1.393 . S
C698 H690 0.950 . S
C698 C696 1.391 . S
C698 C699 1.400 . S
C699 C698 1.400 . S
C699 C700 1.398 . S
C699 C705 1.491 . S
C700 H691 0.950 . S
C700 C699 1.398 . S
C700 C701 1.391 . S
C701 H689 0.950 . S
C701 C697 1.393 . S
C701 C700 1.391 . S
C702 H692 0.950 . S
C702 C703 1.386 . S
C702 C704 1.391 . S
C703 C702 1.386 . S
C703 C707 1.393 . S
C704 H693 0.950 . S
C704 C702 1.391 . S
C704 C705 1.400 . S
C705 C699 1.491 . S
C705 C704 1.400 . S
C705 C706 1.398 . S
C706 H694 0.950 . S
C706 C705 1.398 . S
C706 C707 1.391 . S
C707 H695 0.950 . S
C707 C703 1.393 . S
C707 C706 1.391 . S
H708 C716 0.950 . S
H709 C721 0.950 . S
H710 C718 0.950 . S
H711 C720 0.950 . S
H712 C722 0.950 1_554 S
H713 C724 0.966 . S
H714 C726 0.950 . S
H715 C727 0.950 . S
C716 H708 0.950 . S
C716 C717 1.386 . S
C716 C718 1.391 . S
C717 C716 1.386 . S
C717 C721 1.393 . S
C718 H710 0.950 . S
C718 C716 1.391 . S
C718 C719 1.400 . S
C719 C718 1.400 . S
C719 C720 1.398 . S
C719 C725 1.491 . S
C720 H711 0.950 . S
C720 C719 1.398 . S
C720 C721 1.391 . S
C721 H709 0.950 . S
C721 C717 1.393 . S
C721 C720 1.391 . S
C722 H712 0.950 1_556 S
C722 C723 1.386 . S
C722 C724 1.391 . S
C723 C722 1.386 . S
C723 C727 1.393 . S
C724 H713 0.966 . S
C724 C722 1.391 . S
C724 C725 1.400 . S
C725 C719 1.491 . S
C725 C724 1.400 . S
C725 C726 1.398 . S
C726 H714 0.950 . S
C726 C725 1.398 . S
C726 C727 1.391 . S
C727 H715 0.950 . S
C727 C723 1.393 . S
C727 C726 1.391 . S
H728 C736 0.950 . S
H729 C741 0.950 . S
H730 C738 0.950 . S
H731 C740 0.950 . S
H732 C742 0.950 1_554 S
H733 C744 0.950 . S
H734 C746 0.950 . S
H735 C747 0.950 . S
C736 H728 0.950 . S
C736 C737 1.386 . S
C736 C738 1.391 . S
C737 C736 1.386 . S
C737 C741 1.393 . S
C738 H730 0.950 . S
C738 C736 1.391 . S
C738 C739 1.400 . S
C739 C738 1.400 . S
C739 C740 1.398 . S
C739 C745 1.491 . S
C740 H731 0.950 . S
C740 C739 1.398 . S
C740 C741 1.391 . S
C741 H729 0.950 . S
C741 C737 1.393 . S
C741 C740 1.391 . S
C742 H732 0.950 1_556 S
C742 C743 1.386 . S
C742 C744 1.391 . S
C743 C742 1.386 . S
C743 C747 1.393 . S
C744 H733 0.950 . S
C744 C742 1.391 . S
C744 C745 1.400 . S
C745 C739 1.491 . S
C745 C744 1.400 . S
C745 C746 1.398 . S
C746 H734 0.950 . S
C746 C745 1.398 . S
C746 C747 1.391 . S
C747 H735 0.950 . S
C747 C743 1.393 . S
C747 C746 1.391 . S
H748 C756 0.950 . S
H749 C761 0.950 . S
H750 C758 0.950 . S
H751 C760 0.950 . S
H752 C762 0.950 . S
H753 C764 0.950 . S
H754 C766 0.950 . S
H755 C767 0.950 . S
C756 H748 0.950 . S
C756 C757 1.386 . S
C756 C758 1.391 . S
C757 C756 1.386 . S
C757 C761 1.393 . S
C758 H750 0.950 . S
C758 C756 1.391 . S
C758 C759 1.400 . S
C759 C758 1.400 . S
C759 C760 1.398 . S
C759 C765 1.491 . S
C760 H751 0.950 . S
C760 C759 1.398 . S
C760 C761 1.391 . S
C761 H749 0.950 . S
C761 C757 1.393 . S
C761 C760 1.391 . S
C762 H752 0.950 . S
C762 C763 1.386 . S
C762 C764 1.391 . S
C763 C762 1.386 . S
C763 C767 1.393 . S
C764 H753 0.950 . S
C764 C762 1.391 . S
C764 C765 1.400 . S
C765 C759 1.491 . S
C765 C764 1.400 . S
C765 C766 1.398 . S
C766 H754 0.950 . S
C766 C765 1.398 . S
C766 C767 1.391 . S
C767 H755 0.950 . S
C767 C763 1.393 . S
C767 C766 1.391 . S
H768 C776 0.950 . S
H769 C781 0.950 . S
H770 C778 0.950 . S
H771 C780 0.950 . S
H772 C782 0.950 . S
H773 C784 0.950 . S
H774 C786 0.950 . S
H775 C787 0.950 . S
C776 H768 0.950 . S
C776 C777 1.386 . S
C776 C778 1.391 . S
C777 C776 1.386 . S
C777 C781 1.393 . S
C778 H770 0.950 . S
C778 C776 1.391 . S
C778 C779 1.400 . S
C779 C778 1.400 . S
C779 C780 1.398 . S
C779 C785 1.491 . S
C780 H771 0.950 . S
C780 C779 1.398 . S
C780 C781 1.391 . S
C781 H769 0.950 . S
C781 C777 1.393 . S
C781 C780 1.391 . S
C782 H772 0.950 . S
C782 C783 1.386 . S
C782 C784 1.391 . S
C783 C782 1.386 . S
C783 C787 1.393 . S
C784 H773 0.950 . S
C784 C782 1.391 . S
C784 C785 1.400 . S
C785 C779 1.491 . S
C785 C784 1.400 . S
C785 C786 1.398 . S
C786 H774 0.950 . S
C786 C785 1.398 . S
C786 C787 1.391 . S
C787 H775 0.950 . S
C787 C783 1.393 . S
C787 C786 1.391 . S
H788 C796 0.950 . S
H789 C801 0.950 . S
H790 C798 0.950 . S
H791 C800 0.950 . S
H792 C802 0.950 . S
H793 C804 0.950 . S
H794 C806 0.950 . S
H795 C807 0.950 . S
C796 H788 0.950 . S
C796 C797 1.386 . S
C796 C798 1.391 . S
C797 C796 1.386 . S
C797 C801 1.393 . S
C798 H790 0.950 . S
C798 C796 1.391 . S
C798 C799 1.400 . S
C799 C798 1.400 . S
C799 C800 1.398 . S
C799 C805 1.491 . S
C800 H791 0.950 . S
C800 C799 1.398 . S
C800 C801 1.391 . S
C801 H789 0.950 . S
C801 C797 1.393 . S
C801 C800 1.391 . S
C802 H792 0.950 . S
C802 C803 1.386 . S
C802 C804 1.391 . S
C803 C802 1.386 . S
C803 C807 1.393 . S
C804 H793 0.950 . S
C804 C802 1.391 . S
C804 C805 1.400 . S
C805 C799 1.491 . S
C805 C804 1.400 . S
C805 C806 1.398 . S
C806 H794 0.950 . S
C806 C805 1.398 . S
C806 C807 1.391 . S
C807 H795 0.950 . S
C807 C803 1.393 . S
C807 C806 1.391 . S
H808 C816 0.950 . S
H809 C821 0.950 . S
H810 C818 0.950 . S
H811 C820 0.950 . S
H812 C822 0.950 . S
H813 C824 0.950 . S
H814 C826 0.950 . S
H815 C827 0.950 . S
C816 H808 0.950 . S
C816 C817 1.386 . S
C816 C818 1.391 . S
C817 C816 1.386 . S
C817 C821 1.393 . S
C818 H810 0.950 . S
C818 C816 1.391 . S
C818 C819 1.400 . S
C819 C818 1.400 . S
C819 C820 1.398 . S
C819 C825 1.491 . S
C820 H811 0.950 . S
C820 C819 1.398 . S
C820 C821 1.391 . S
C821 H809 0.950 . S
C821 C817 1.393 . S
C821 C820 1.391 . S
C822 H812 0.950 . S
C822 C823 1.386 . S
C822 C824 1.391 . S
C823 C822 1.386 . S
C823 C827 1.393 . S
C824 H813 0.950 . S
C824 C822 1.391 . S
C824 C825 1.400 . S
C825 C819 1.491 . S
C825 C824 1.400 . S
C825 C826 1.398 . S
C826 H814 0.950 . S
C826 C825 1.398 . S
C826 C827 1.391 . S
C827 H815 0.950 . S
C827 C823 1.393 . S
C827 C826 1.391 . S
H828 C836 0.950 . S
H829 C841 0.950 . S
H830 C838 0.950 . S
H831 C840 0.950 . S
H832 C842 0.950 . S
H833 C844 0.950 . S
H834 C846 0.950 . S
H835 C847 0.950 . S
C836 H828 0.950 . S
C836 C837 1.386 . S
C836 C838 1.391 . S
C837 C836 1.386 . S
C837 C841 1.393 . S
C838 H830 0.950 . S
C838 C836 1.391 . S
C838 C839 1.400 . S
C839 C838 1.400 . S
C839 C840 1.398 . S
C839 C845 1.491 . S
C840 H831 0.950 . S
C840 C839 1.398 . S
C840 C841 1.391 . S
C841 H829 0.950 . S
C841 C837 1.393 . S
C841 C840 1.391 . S
C842 H832 0.950 . S
C842 C843 1.386 . S
C842 C844 1.391 1_554 S
C843 C842 1.386 . S
C843 C847 1.393 1_554 S
C844 H833 0.950 . S
C844 C842 1.391 1_556 S
C844 C845 1.400 . S
C845 C839 1.491 . S
C845 C844 1.400 . S
C845 C846 1.398 . S
C846 H834 0.950 . S
C846 C845 1.398 . S
C846 C847 1.391 . S
C847 H835 0.950 . S
C847 C843 1.393 1_556 S
C847 C846 1.391 . S
H848 C856 0.950 . S
H849 C861 0.950 . S
H850 C858 0.950 . S
H851 C860 0.950 . S
H852 C862 0.950 . S
H853 C864 0.950 . S
H854 C866 0.950 . S
H855 C867 0.950 . S
C856 H848 0.950 . S
C856 C857 1.386 . S
C856 C858 1.391 1_554 S
C857 C856 1.386 . S
C857 C861 1.393 . S
C858 H850 0.950 . S
C858 C856 1.391 1_556 S
C858 C859 1.400 . S
C859 C858 1.400 . S
C859 C860 1.398 . S
C859 C865 1.491 . S
C860 H851 0.950 . S
C860 C859 1.398 . S
C860 C861 1.391 1_556 S
C861 H849 0.950 . S
C861 C857 1.393 . S
C861 C860 1.391 1_554 S
C862 H852 0.950 . S
C862 C863 1.386 . S
C862 C864 1.391 . S
C863 C862 1.386 . S
C863 C867 1.393 . S
C864 H853 0.950 . S
C864 C862 1.391 . S
C864 C865 1.400 . S
C865 C859 1.491 . S
C865 C864 1.400 . S
C865 C866 1.398 . S
C866 H854 0.950 . S
C866 C865 1.398 . S
C866 C867 1.391 . S
C867 H855 0.950 . S
C867 C863 1.393 . S
C867 C866 1.391 . S
H868 C876 0.950 . S
H869 C881 0.950 . S
H870 C878 0.950 . S
H871 C880 0.950 . S
H872 C882 0.950 . S
H873 C884 0.950 . S
H874 C886 0.950 . S
H875 C887 0.950 . S
C876 H868 0.950 . S
C876 C877 1.386 . S
C876 C878 1.391 1_554 S
C877 C876 1.386 . S
C877 C881 1.393 . S
C878 H870 0.950 . S
C878 C876 1.391 1_556 S
C878 C879 1.400 . S
C879 C878 1.400 . S
C879 C880 1.398 . S
C879 C885 1.491 . S
C880 H871 0.950 . S
C880 C879 1.398 . S
C880 C881 1.391 1_556 S
C881 H869 0.950 . S
C881 C877 1.393 . S
C881 C880 1.391 1_554 S
C882 H872 0.950 . S
C882 C883 1.386 . S
C882 C884 1.391 . S
C883 C882 1.386 . S
C883 C887 1.393 . S
C884 H873 0.950 . S
C884 C882 1.391 . S
C884 C885 1.400 . S
C885 C879 1.491 . S
C885 C884 1.400 . S
C885 C886 1.398 . S
C886 H874 0.950 . S
C886 C885 1.398 . S
C886 C887 1.391 . S
C887 H875 0.950 . S
C887 C883 1.393 . S
C887 C886 1.391 . S
H888 C896 0.950 . S
H889 C901 0.950 . S
H890 C898 0.950 . S
H891 C900 0.950 . S
H892 C902 0.950 . S
H893 C904 0.950 . S
H894 C906 0.950 . S
H895 C907 0.950 . S
C896 H888 0.950 . S
C896 C897 1.386 . S
C896 C898 1.391 . S
C897 C896 1.386 . S
C897 C901 1.393 . S
C898 H890 0.950 . S
C898 C896 1.391 . S
C898 C899 1.400 . S
C899 C898 1.400 . S
C899 C900 1.398 . S
C899 C905 1.491 . S
C900 H891 0.950 . S
C900 C899 1.398 . S
C900 C901 1.391 . S
C901 H889 0.950 . S
C901 C897 1.393 . S
C901 C900 1.391 . S
C902 H892 0.950 . S
C902 C903 1.386 . S
C902 C904 1.391 . S
C903 C902 1.386 . S
C903 C907 1.393 . S
C904 H893 0.950 . S
C904 C902 1.391 . S
C904 C905 1.400 . S
C905 C899 1.491 . S
C905 C904 1.400 . S
C905 C906 1.398 . S
C906 H894 0.950 . S
C906 C905 1.398 . S
C906 C907 1.391 . S
C907 H895 0.950 . S
C907 C903 1.393 . S
C907 C906 1.391 . S
H908 C916 0.950 . S
H909 C921 0.950 . S
H910 C918 0.950 . S
H911 C920 0.950 . S
H912 C922 0.950 . S
H913 C924 0.950 . S
H914 C926 0.950 . S
H915 C927 0.950 . S
C916 H908 0.950 . S
C916 C917 1.386 . S
C916 C918 1.391 . S
C917 C916 1.386 . S
C917 C921 1.393 . S
C918 H910 0.950 . S
C918 C916 1.391 . S
C918 C919 1.400 . S
C919 C918 1.400 . S
C919 C920 1.398 . S
C919 C925 1.491 . S
C920 H911 0.950 . S
C920 C919 1.398 . S
C920 C921 1.391 . S
C921 H909 0.950 . S
C921 C917 1.393 . S
C921 C920 1.391 . S
C922 H912 0.950 . S
C922 C923 1.386 . S
C922 C924 1.391 . S
C923 C922 1.386 . S
C923 C927 1.393 . S
C924 H913 0.950 . S
C924 C922 1.391 . S
C924 C925 1.400 . S
C925 C919 1.491 . S
C925 C924 1.400 . S
C925 C926 1.398 . S
C926 H914 0.950 . S
C926 C925 1.398 . S
C926 C927 1.391 . S
C927 H915 0.950 . S
C927 C923 1.393 . S
C927 C926 1.391 . S
H928 C936 0.950 . S
H929 C941 0.950 . S
H930 C938 0.950 . S
H931 C940 0.950 . S
H932 C942 0.950 . S
H933 C944 0.950 . S
H934 C946 0.950 . S
H935 C947 0.950 . S
C936 H928 0.950 . S
C936 C937 1.386 . S
C936 C938 1.391 . S
C937 C936 1.386 . S
C937 C941 1.393 . S
C938 H930 0.950 . S
C938 C936 1.391 . S
C938 C939 1.400 . S
C939 C938 1.400 . S
C939 C940 1.398 . S
C939 C945 1.491 . S
C940 H931 0.950 . S
C940 C939 1.398 . S
C940 C941 1.391 . S
C941 H929 0.950 . S
C941 C937 1.393 . S
C941 C940 1.391 . S
C942 H932 0.950 . S
C942 C943 1.386 . S
C942 C944 1.391 . S
C943 C942 1.386 . S
C943 C947 1.393 . S
C944 H933 0.950 . S
C944 C942 1.391 . S
C944 C945 1.400 . S
C945 C939 1.491 . S
C945 C944 1.400 . S
C945 C946 1.398 . S
C946 H934 0.950 . S
C946 C945 1.398 . S
C946 C947 1.391 . S
C947 H935 0.950 . S
C947 C943 1.393 . S
C947 C946 1.391 . S
H948 C956 0.950 . S
H949 C961 0.950 . S
H950 C958 0.950 . S
H951 C960 0.950 . S
H952 C962 0.950 . S
H953 C964 0.950 . S
H954 C966 0.950 . S
H955 C967 0.950 . S
C956 H948 0.950 . S
C956 C957 1.386 1_554 S
C956 C958 1.391 . S
C957 C956 1.386 1_556 S
C957 C961 1.393 . S
C958 H950 0.950 . S
C958 C956 1.391 . S
C958 C959 1.400 . S
C959 C958 1.400 . S
C959 C960 1.398 . S
C959 C965 1.491 . S
C960 H951 0.950 . S
C960 C959 1.398 . S
C960 C961 1.391 1_554 S
C961 H949 0.950 . S
C961 C957 1.393 . S
C961 C960 1.391 1_556 S
C962 H952 0.950 . S
C962 C963 1.386 . S
C962 C964 1.391 . S
C963 C962 1.386 . S
C963 C967 1.393 . S
C964 H953 0.950 . S
C964 C962 1.391 . S
C964 C965 1.400 . S
C965 C959 1.491 . S
C965 C964 1.400 . S
C965 C966 1.398 . S
C966 H954 0.950 . S
C966 C965 1.398 . S
C966 C967 1.391 . S
C967 H955 0.950 . S
C967 C963 1.393 . S
C967 C966 1.391 . S
H968 C976 0.950 . S
H969 C981 0.950 . S
H970 C978 0.950 . S
H971 C980 0.950 . S
H972 C982 0.950 . S
H973 C984 0.950 . S
H974 C986 0.950 . S
H975 C987 0.950 . S
C976 H968 0.950 . S
C976 C977 1.386 1_554 S
C976 C978 1.391 . S
C977 C976 1.386 1_556 S
C977 C981 1.393 . S
C978 H970 0.950 . S
C978 C976 1.391 . S
C978 C979 1.400 . S
C979 C978 1.400 . S
C979 C980 1.398 . S
C979 C985 1.491 . S
C980 H971 0.950 . S
C980 C979 1.398 . S
C980 C981 1.391 1_554 S
C981 H969 0.950 . S
C981 C977 1.393 . S
C981 C980 1.391 1_556 S
C982 H972 0.950 . S
C982 C983 1.386 . S
C982 C984 1.391 . S
C983 C982 1.386 . S
C983 C987 1.393 . S
C984 H973 0.950 . S
C984 C982 1.391 . S
C984 C985 1.400 . S
C985 C979 1.491 . S
C985 C984 1.400 . S
C985 C986 1.398 . S
C986 H974 0.950 . S
C986 C985 1.398 . S
C986 C987 1.391 . S
C987 H975 0.950 . S
C987 C983 1.393 . S
C987 C986 1.391 . S
H988 C996 0.950 . S
H989 C1001 0.950 . S
H990 C998 0.950 . S
H991 C1000 0.950 . S
H992 C1002 0.950 . S
H993 C1004 0.950 . S
H994 C1006 0.950 . S
H995 C1007 0.950 . S
C996 H988 0.950 . S
C996 C997 1.386 . S
C996 C998 1.391 . S
C997 C996 1.386 . S
C997 C1001 1.393 . S
C998 H990 0.950 . S
C998 C996 1.391 . S
C998 C999 1.400 . S
C999 C998 1.400 . S
C999 C1000 1.398 . S
C999 C1005 1.491 . S
C1000 H991 0.950 . S
C1000 C999 1.398 . S
C1000 C1001 1.391 . S
C1001 H989 0.950 . S
C1001 C997 1.393 . S
C1001 C1000 1.391 . S
C1002 H992 0.950 . S
C1002 C1003 1.386 . S
C1002 C1004 1.391 1_556 S
C1003 C1002 1.386 . S
C1003 C1007 1.393 . S
C1004 H993 0.950 . S
C1004 C1002 1.391 1_554 S
C1004 C1005 1.400 . S
C1005 C999 1.491 . S
C1005 C1004 1.400 . S
C1005 C1006 1.398 . S
C1006 H994 0.950 . S
C1006 C1005 1.398 . S
C1006 C1007 1.391 1_554 S
C1007 H995 0.950 . S
C1007 C1003 1.393 . S
C1007 C1006 1.391 1_556 S
H1008 C1016 0.950 . S
H1009 C1021 0.950 . S
H1010 C1018 0.950 . S
H1011 C1020 0.950 . S
H1012 C1022 0.950 . S
H1013 C1024 0.950 . S
H1014 C1026 0.950 . S
H1015 C1027 0.950 . S
C1016 H1008 0.950 . S
C1016 C1017 1.386 . S
C1016 C1018 1.391 . S
C1017 C1016 1.386 . S
C1017 C1021 1.393 . S
C1018 H1010 0.950 . S
C1018 C1016 1.391 . S
C1018 C1019 1.400 . S
C1019 C1018 1.400 . S
C1019 C1020 1.398 . S
C1019 C1025 1.491 . S
C1020 H1011 0.950 . S
C1020 C1019 1.398 . S
C1020 C1021 1.391 . S
C1021 H1009 0.950 . S
C1021 C1017 1.393 . S
C1021 C1020 1.391 . S
C1022 H1012 0.950 . S
C1022 C1023 1.386 . S
C1022 C1024 1.391 . S
C1023 C1022 1.386 . S
C1023 C1027 1.393 . S
C1024 H1013 0.950 . S
C1024 C1022 1.391 . S
C1024 C1025 1.400 . S
C1025 C1019 1.491 . S
C1025 C1024 1.400 . S
C1025 C1026 1.398 . S
C1026 H1014 0.950 . S
C1026 C1025 1.398 . S
C1026 C1027 1.391 . S
C1027 H1015 0.950 . S
C1027 C1023 1.393 . S
C1027 C1026 1.391 . S
H1028 C1036 0.950 . S
H1029 C1041 0.950 . S
H1030 C1038 0.950 . S
H1031 C1040 0.950 . S
H1032 C1042 0.950 . S
H1033 C1044 0.950 . S
H1034 C1046 0.950 . S
H1035 C1047 0.950 . S
C1036 H1028 0.950 . S
C1036 C1037 1.386 . S
C1036 C1038 1.391 . S
C1037 C1036 1.386 . S
C1037 C1041 1.393 . S
C1038 H1030 0.950 . S
C1038 C1036 1.391 . S
C1038 C1039 1.400 . S
C1039 C1038 1.400 . S
C1039 C1040 1.398 . S
C1039 C1045 1.491 . S
C1040 H1031 0.950 . S
C1040 C1039 1.398 . S
C1040 C1041 1.391 . S
C1041 H1029 0.950 . S
C1041 C1037 1.393 . S
C1041 C1040 1.391 . S
C1042 H1032 0.950 . S
C1042 C1043 1.386 . S
C1042 C1044 1.391 . S
C1043 C1042 1.386 . S
C1043 C1047 1.393 . S
C1044 H1033 0.950 . S
C1044 C1042 1.391 . S
C1044 C1045 1.400 . S
C1045 C1039 1.491 . S
C1045 C1044 1.400 . S
C1045 C1046 1.398 . S
C1046 H1034 0.950 . S
C1046 C1045 1.398 . S
C1046 C1047 1.391 . S
C1047 H1035 0.950 . S
C1047 C1043 1.393 . S
C1047 C1046 1.391 . S
H1048 C1056 0.950 . S
H1049 C1061 0.950 . S
H1050 C1058 0.950 . S
H1051 C1060 0.950 . S
H1052 C1062 0.950 . S
H1053 C1064 0.950 . S
H1054 C1066 0.950 . S
H1055 C1067 0.950 . S
C1056 H1048 0.950 . S
C1056 C1057 1.386 . S
C1056 C1058 1.391 . S
C1057 C1056 1.386 . S
C1057 C1061 1.393 . S
C1058 H1050 0.950 . S
C1058 C1056 1.391 . S
C1058 C1059 1.400 . S
C1059 C1058 1.400 . S
C1059 C1060 1.398 . S
C1059 C1065 1.491 . S
C1060 H1051 0.950 . S
C1060 C1059 1.398 . S
C1060 C1061 1.391 . S
C1061 H1049 0.950 . S
C1061 C1057 1.393 . S
C1061 C1060 1.391 . S
C1062 H1052 0.950 . S
C1062 C1063 1.386 . S
C1062 C1064 1.391 . S
C1063 C1062 1.386 . S
C1063 C1067 1.393 . S
C1064 H1053 0.950 . S
C1064 C1062 1.391 . S
C1064 C1065 1.400 . S
C1065 C1059 1.491 . S
C1065 C1064 1.400 . S
C1065 C1066 1.398 . S
C1066 H1054 0.950 . S
C1066 C1065 1.398 . S
C1066 C1067 1.391 . S
C1067 H1055 0.950 . S
C1067 C1063 1.393 . S
C1067 C1066 1.391 . S
H1068 C1076 0.950 . S
H1069 C1081 0.950 . S
H1070 C1078 0.950 . S
H1071 C1080 0.950 . S
H1072 C1082 0.950 . S
H1073 C1084 0.950 . S
H1074 C1086 0.950 . S
H1075 C1087 0.950 . S
C1076 H1068 0.950 . S
C1076 C1077 1.386 . S
C1076 C1078 1.391 . S
C1077 C1076 1.386 . S
C1077 C1081 1.393 . S
C1078 H1070 0.950 . S
C1078 C1076 1.391 . S
C1078 C1079 1.400 . S
C1079 C1078 1.400 . S
C1079 C1080 1.398 . S
C1079 C1085 1.491 . S
C1080 H1071 0.950 . S
C1080 C1079 1.398 . S
C1080 C1081 1.391 . S
C1081 H1069 0.950 . S
C1081 C1077 1.393 . S
C1081 C1080 1.391 . S
C1082 H1072 0.950 . S
C1082 C1083 1.386 . S
C1082 C1084 1.391 . S
C1083 C1082 1.386 . S
C1083 C1087 1.393 . S
C1084 H1073 0.950 . S
C1084 C1082 1.391 . S
C1084 C1085 1.400 . S
C1085 C1079 1.491 . S
C1085 C1084 1.400 . S
C1085 C1086 1.398 . S
C1086 H1074 0.950 . S
C1086 C1085 1.398 . S
C1086 C1087 1.391 . S
C1087 H1075 0.950 . S
C1087 C1083 1.393 . S
C1087 C1086 1.391 . S
H1088 C1096 0.950 . S
H1089 C1101 0.950 . S
H1090 C1098 0.950 . S
H1091 C1100 0.950 . S
H1092 C1102 0.950 . S
H1093 C1104 0.950 . S
H1094 C1106 0.950 . S
H1095 C1107 0.950 . S
C1096 H1088 0.950 . S
C1096 C1097 1.386 . S
C1096 C1098 1.391 . S
C1097 C1096 1.386 . S
C1097 C1101 1.393 . S
C1098 H1090 0.950 . S
C1098 C1096 1.391 . S
C1098 C1099 1.400 . S
C1099 C1098 1.400 . S
C1099 C1100 1.398 . S
C1099 C1105 1.491 . S
C1100 H1091 0.950 . S
C1100 C1099 1.398 . S
C1100 C1101 1.391 . S
C1101 H1089 0.950 . S
C1101 C1097 1.393 . S
C1101 C1100 1.391 . S
C1102 H1092 0.950 . S
C1102 C1103 1.386 . S
C1102 C1104 1.391 . S
C1103 C1102 1.386 . S
C1103 C1107 1.393 . S
C1104 H1093 0.950 . S
C1104 C1102 1.391 . S
C1104 C1105 1.400 . S
C1105 C1099 1.491 . S
C1105 C1104 1.400 . S
C1105 C1106 1.398 . S
C1106 H1094 0.950 . S
C1106 C1105 1.398 . S
C1106 C1107 1.391 . S
C1107 H1095 0.950 . S
C1107 C1103 1.393 . S
C1107 C1106 1.391 . S
H1108 C1116 0.950 . S
H1109 C1121 0.950 . S
H1110 C1118 0.950 . S
H1111 C1120 0.950 . S
H1112 C1122 0.950 . S
H1113 C1124 0.950 . S
H1114 C1126 0.950 . S
H1115 C1127 0.950 . S
C1116 H1108 0.950 . S
C1116 C1117 1.386 . S
C1116 C1118 1.391 . S
C1117 C1116 1.386 . S
C1117 C1121 1.393 . S
C1118 H1110 0.950 . S
C1118 C1116 1.391 . S
C1118 C1119 1.400 . S
C1119 C1118 1.400 . S
C1119 C1120 1.398 . S
C1119 C1125 1.491 . S
C1120 H1111 0.950 . S
C1120 C1119 1.398 . S
C1120 C1121 1.391 . S
C1121 H1109 0.950 . S
C1121 C1117 1.393 . S
C1121 C1120 1.391 . S
C1122 H1112 0.950 . S
C1122 C1123 1.386 . S
C1122 C1124 1.391 . S
C1123 C1122 1.386 . S
C1123 C1127 1.393 . S
C1124 H1113 0.950 . S
C1124 C1122 1.391 . S
C1124 C1125 1.400 . S
C1125 C1119 1.491 . S
C1125 C1124 1.400 . S
C1125 C1126 1.398 . S
C1126 H1114 0.950 . S
C1126 C1125 1.398 . S
C1126 C1127 1.391 . S
C1127 H1115 0.950 . S
C1127 C1123 1.393 . S
C1127 C1126 1.391 . S
H1128 C1136 0.950 . S
H1129 C1141 0.950 . S
H1130 C1138 0.950 . S
H1131 C1140 0.950 . S
H1132 C1142 0.950 . S
H1133 C1144 0.950 . S
H1134 C1146 0.950 . S
H1135 C1147 0.950 . S
C1136 H1128 0.950 . S
C1136 C1137 1.386 . S
C1136 C1138 1.391 . S
C1137 C1136 1.386 . S
C1137 C1141 1.393 . S
C1138 H1130 0.950 . S
C1138 C1136 1.391 . S
C1138 C1139 1.400 . S
C1139 C1138 1.400 . S
C1139 C1140 1.398 . S
C1139 C1145 1.491 . S
C1140 H1131 0.950 . S
C1140 C1139 1.398 . S
C1140 C1141 1.391 . S
C1141 H1129 0.950 . S
C1141 C1137 1.393 . S
C1141 C1140 1.391 . S
C1142 H1132 0.950 . S
C1142 C1143 1.386 1_556 S
C1142 C1144 1.391 . S
C1143 C1142 1.386 1_554 S
C1143 C1147 1.393 . S
C1144 H1133 0.950 . S
C1144 C1142 1.391 . S
C1144 C1145 1.400 . S
C1145 C1139 1.491 . S
C1145 C1144 1.400 . S
C1145 C1146 1.398 . S
C1146 H1134 0.950 . S
C1146 C1145 1.398 . S
C1146 C1147 1.391 1_556 S
C1147 H1135 0.950 . S
C1147 C1143 1.393 . S
C1147 C1146 1.391 1_554 S
H1148 C1156 0.950 . S
H1149 C1161 0.950 . S
H1150 C1158 0.950 . S
H1151 C1160 0.950 . S
H1152 C1162 0.950 . S
H1153 C1164 0.950 . S
H1154 C1166 0.950 . S
H1155 C1167 0.950 . S
C1156 H1148 0.950 . S
C1156 C1157 1.386 1_556 S
C1156 C1158 1.391 . S
C1157 C1156 1.386 1_554 S
C1157 C1161 1.393 . S
C1158 H1150 0.950 . S
C1158 C1156 1.391 . S
C1158 C1159 1.400 . S
C1159 C1158 1.400 . S
C1159 C1160 1.398 . S
C1159 C1165 1.491 . S
C1160 H1151 0.950 . S
C1160 C1159 1.398 . S
C1160 C1161 1.391 1_556 S
C1161 H1149 0.950 . S
C1161 C1157 1.393 . S
C1161 C1160 1.391 1_554 S
C1162 H1152 0.950 . S
C1162 C1163 1.386 . S
C1162 C1164 1.391 . S
C1163 C1162 1.386 . S
C1163 C1167 1.393 . S
C1164 H1153 0.950 . S
C1164 C1162 1.391 . S
C1164 C1165 1.400 . S
C1165 C1159 1.491 . S
C1165 C1164 1.400 . S
C1165 C1166 1.398 . S
C1166 H1154 0.950 . S
C1166 C1165 1.398 . S
C1166 C1167 1.391 . S
C1167 H1155 0.950 . S
C1167 C1163 1.393 . S
C1167 C1166 1.391 . S
H1168 C1176 0.950 . S
H1169 C1181 0.950 . S
H1170 C1178 0.950 . S
H1171 C1180 0.950 . S
H1172 C1182 0.950 . S
H1173 C1184 0.950 . S
H1174 C1186 0.950 . S
H1175 C1187 0.950 1_554 S
C1176 H1168 0.950 . S
C1176 C1177 1.386 . S
C1176 C1178 1.391 . S
C1177 C1176 1.386 . S
C1177 C1181 1.393 . S
C1178 H1170 0.950 . S
C1178 C1176 1.391 . S
C1178 C1179 1.400 . S
C1179 C1178 1.400 . S
C1179 C1180 1.398 . S
C1179 C1185 1.491 . S
C1180 H1171 0.950 . S
C1180 C1179 1.398 . S
C1180 C1181 1.391 . S
C1181 H1169 0.950 . S
C1181 C1177 1.393 . S
C1181 C1180 1.391 . S
C1182 H1172 0.950 . S
C1182 C1183 1.386 . S
C1182 C1184 1.391 1_554 S
C1183 C1182 1.386 . S
C1183 C1187 1.393 1_554 S
C1184 H1173 0.950 . S
C1184 C1182 1.391 1_556 S
C1184 C1185 1.400 . S
C1185 C1179 1.491 . S
C1185 C1184 1.400 . S
C1185 C1186 1.398 . S
C1186 H1174 0.950 . S
C1186 C1185 1.398 . S
C1186 C1187 1.391 . S
C1187 H1175 0.950 1_556 S
C1187 C1183 1.393 1_556 S
C1187 C1186 1.391 . S
H1188 C1196 0.950 . S
H1189 C1201 0.950 . S
H1190 C1198 0.950 . S
H1191 C1200 0.950 . S
H1192 C1202 0.950 . S
H1193 C1204 0.950 . S
H1194 C1206 0.950 . S
H1195 C1207 0.950 . S
C1196 H1188 0.950 . S
C1196 C1197 1.386 . S
C1196 C1198 1.391 . S
C1197 C1196 1.386 . S
C1197 C1201 1.393 . S
C1198 H1190 0.950 . S
C1198 C1196 1.391 . S
C1198 C1199 1.400 . S
C1199 C1198 1.400 . S
C1199 C1200 1.398 . S
C1199 C1205 1.491 . S
C1200 H1191 0.950 . S
C1200 C1199 1.398 . S
C1200 C1201 1.391 . S
C1201 H1189 0.950 . S
C1201 C1197 1.393 . S
C1201 C1200 1.391 . S
C1202 H1192 0.950 . S
C1202 C1203 1.386 . S
C1202 C1204 1.391 . S
C1203 C1202 1.386 . S
C1203 C1207 1.393 . S
C1204 H1193 0.950 . S
C1204 C1202 1.391 . S
C1204 C1205 1.400 . S
C1205 C1199 1.491 . S
C1205 C1204 1.400 . S
C1205 C1206 1.398 . S
C1206 H1194 0.950 . S
C1206 C1205 1.398 . S
C1206 C1207 1.391 . S
C1207 H1195 0.950 . S
C1207 C1203 1.393 . S
C1207 C1206 1.391 . S
H1208 C1216 0.950 . S
H1209 C1221 0.950 . S
H1210 C1218 0.950 . S
H1211 C1220 0.950 . S
H1212 C1222 0.950 . S
H1213 C1224 0.950 . S
H1214 C1226 0.950 . S
H1215 C1227 0.950 . S
C1216 H1208 0.950 . S
C1216 C1217 1.386 . S
C1216 C1218 1.391 . S
C1217 C1216 1.386 . S
C1217 C1221 1.393 . S
C1218 H1210 0.950 . S
C1218 C1216 1.391 . S
C1218 C1219 1.400 . S
C1219 C1218 1.400 . S
C1219 C1220 1.398 . S
C1219 C1225 1.491 . S
C1220 H1211 0.950 . S
C1220 C1219 1.398 . S
C1220 C1221 1.391 . S
C1221 H1209 0.950 . S
C1221 C1217 1.393 . S
C1221 C1220 1.391 . S
C1222 H1212 0.950 . S
C1222 C1223 1.386 . S
C1222 C1224 1.391 . S
C1223 C1222 1.386 . S
C1223 C1227 1.393 . S
C1224 H1213 0.950 . S
C1224 C1222 1.391 . S
C1224 C1225 1.400 . S
C1225 C1219 1.491 . S
C1225 C1224 1.400 . S
C1225 C1226 1.398 . S
C1226 H1214 0.950 . S
C1226 C1225 1.398 . S
C1226 C1227 1.391 . S
C1227 H1215 0.950 . S
C1227 C1223 1.393 . S
C1227 C1226 1.391 . S
H1228 C1236 0.950 . S
H1229 C1241 0.950 . S
H1230 C1238 0.950 . S
H1231 C1240 0.950 . S
H1232 C1242 0.950 . S
H1233 C1244 0.950 . S
H1234 C1246 0.950 . S
H1235 C1247 0.950 . S
C1236 H1228 0.950 . S
C1236 C1237 1.386 . S
C1236 C1238 1.391 . S
C1237 C1236 1.386 . S
C1237 C1241 1.393 . S
C1238 H1230 0.950 . S
C1238 C1236 1.391 . S
C1238 C1239 1.400 . S
C1239 C1238 1.400 . S
C1239 C1240 1.398 . S
C1239 C1245 1.491 . S
C1240 H1231 0.950 . S
C1240 C1239 1.398 . S
C1240 C1241 1.391 . S
C1241 H1229 0.950 . S
C1241 C1237 1.393 . S
C1241 C1240 1.391 . S
C1242 H1232 0.950 . S
C1242 C1243 1.386 . S
C1242 C1244 1.391 . S
C1243 C1242 1.386 . S
C1243 C1247 1.393 . S
C1244 H1233 0.950 . S
C1244 C1242 1.391 . S
C1244 C1245 1.400 . S
C1245 C1239 1.491 . S
C1245 C1244 1.400 . S
C1245 C1246 1.398 . S
C1246 H1234 0.950 . S
C1246 C1245 1.398 . S
C1246 C1247 1.391 . S
C1247 H1235 0.950 . S
C1247 C1243 1.393 . S
C1247 C1246 1.391 . S
H1248 C1256 0.950 . S
H1249 C1261 0.950 . S
H1250 C1258 0.950 . S
H1251 C1260 0.950 . S
H1252 C1262 0.950 . S
H1253 C1264 0.950 . S
H1254 C1266 0.950 . S
H1255 C1267 0.950 . S
C1256 H1248 0.950 . S
C1256 C1257 1.386 . S
C1256 C1258 1.391 . S
C1257 C1256 1.386 . S
C1257 C1261 1.393 . S
C1258 H1250 0.950 . S
C1258 C1256 1.391 . S
C1258 C1259 1.400 . S
C1259 C1258 1.400 . S
C1259 C1260 1.398 . S
C1259 C1265 1.491 . S
C1260 H1251 0.950 . S
C1260 C1259 1.398 . S
C1260 C1261 1.391 . S
C1261 H1249 0.950 . S
C1261 C1257 1.393 . S
C1261 C1260 1.391 . S
C1262 H1252 0.950 . S
C1262 C1263 1.386 . S
C1262 C1264 1.391 . S
C1263 C1262 1.386 . S
C1263 C1267 1.393 . S
C1264 H1253 0.950 . S
C1264 C1262 1.391 . S
C1264 C1265 1.400 . S
C1265 C1259 1.491 . S
C1265 C1264 1.400 . S
C1265 C1266 1.398 . S
C1266 H1254 0.950 . S
C1266 C1265 1.398 . S
C1266 C1267 1.391 . S
C1267 H1255 0.950 . S
C1267 C1263 1.393 . S
C1267 C1266 1.391 . S
H1268 C1276 0.950 . S
H1269 C1281 0.950 . S
H1270 C1278 0.950 . S
H1271 C1280 0.950 . S
H1272 C1282 0.950 . S
H1273 C1284 0.950 . S
H1274 C1286 0.950 . S
H1275 C1287 0.950 . S
C1276 H1268 0.950 . S
C1276 C1277 1.386 . S
C1276 C1278 1.391 . S
C1277 C1276 1.386 . S
C1277 C1281 1.393 . S
C1278 H1270 0.950 . S
C1278 C1276 1.391 . S
C1278 C1279 1.400 . S
C1279 C1278 1.400 . S
C1279 C1280 1.398 . S
C1279 C1285 1.491 . S
C1280 H1271 0.950 . S
C1280 C1279 1.398 . S
C1280 C1281 1.391 . S
C1281 H1269 0.950 . S
C1281 C1277 1.393 . S
C1281 C1280 1.391 . S
C1282 H1272 0.950 . S
C1282 C1283 1.386 . S
C1282 C1284 1.391 . S
C1283 C1282 1.386 . S
C1283 C1287 1.393 . S
C1284 H1273 0.950 . S
C1284 C1282 1.391 . S
C1284 C1285 1.400 . S
C1285 C1279 1.491 . S
C1285 C1284 1.400 . S
C1285 C1286 1.398 . S
C1286 H1274 0.950 . S
C1286 C1285 1.398 . S
C1286 C1287 1.391 . S
C1287 H1275 0.950 . S
C1287 C1283 1.393 . S
C1287 C1286 1.391 . S
H1288 C1296 0.950 . S
H1289 C1301 0.950 . S
H1290 C1298 0.950 . S
H1291 C1300 0.950 . S
H1292 C1302 0.950 . S
H1293 C1304 0.950 . S
H1294 C1306 0.950 . S
H1295 C1307 0.950 . S
C1296 H1288 0.950 . S
C1296 C1297 1.386 . S
C1296 C1298 1.391 . S
C1297 C1296 1.386 . S
C1297 C1301 1.393 . S
C1298 H1290 0.950 . S
C1298 C1296 1.391 . S
C1298 C1299 1.400 . S
C1299 C1298 1.400 . S
C1299 C1300 1.398 . S
C1299 C1305 1.491 . S
C1300 H1291 0.950 . S
C1300 C1299 1.398 . S
C1300 C1301 1.391 . S
C1301 H1289 0.950 . S
C1301 C1297 1.393 . S
C1301 C1300 1.391 . S
C1302 H1292 0.950 . S
C1302 C1303 1.386 . S
C1302 C1304 1.391 . S
C1303 C1302 1.386 . S
C1303 C1307 1.393 . S
C1304 H1293 0.950 . S
C1304 C1302 1.391 . S
C1304 C1305 1.400 . S
C1305 C1299 1.491 . S
C1305 C1304 1.400 . S
C1305 C1306 1.398 . S
C1306 H1294 0.950 . S
C1306 C1305 1.398 . S
C1306 C1307 1.391 . S
C1307 H1295 0.950 . S
C1307 C1303 1.393 . S
C1307 C1306 1.391 . S
H1308 C1316 0.950 . S
H1309 C1321 0.950 . S
H1310 C1318 0.950 . S
H1311 C1320 0.950 . S
H1312 C1322 0.950 . S
H1313 C1324 0.950 . S
H1314 C1326 0.950 . S
H1315 C1327 0.950 . S
C1316 H1308 0.950 . S
C1316 C1317 1.386 . S
C1316 C1318 1.391 . S
C1317 C1316 1.386 . S
C1317 C1321 1.393 . S
C1318 H1310 0.950 . S
C1318 C1316 1.391 . S
C1318 C1319 1.400 . S
C1319 C1318 1.400 . S
C1319 C1320 1.398 . S
C1319 C1325 1.491 . S
C1320 H1311 0.950 . S
C1320 C1319 1.398 . S
C1320 C1321 1.391 . S
C1321 H1309 0.950 . S
C1321 C1317 1.393 . S
C1321 C1320 1.391 . S
C1322 H1312 0.950 . S
C1322 C1323 1.386 . S
C1322 C1324 1.391 . S
C1323 C1322 1.386 . S
C1323 C1327 1.393 . S
C1324 H1313 0.950 . S
C1324 C1322 1.391 . S
C1324 C1325 1.400 . S
C1325 C1319 1.491 . S
C1325 C1324 1.400 . S
C1325 C1326 1.398 . S
C1326 H1314 0.950 . S
C1326 C1325 1.398 . S
C1326 C1327 1.391 . S
C1327 H1315 0.950 . S
C1327 C1323 1.393 . S
C1327 C1326 1.391 . S
H1328 C1336 0.950 . S
H1329 C1341 0.950 . S
H1330 C1338 0.950 . S
H1331 C1340 0.950 . S
H1332 C1342 0.950 . S
H1333 C1344 0.950 . S
H1334 C1346 0.950 . S
H1335 C1347 0.950 . S
C1336 H1328 0.950 . S
C1336 C1337 1.386 . S
C1336 C1338 1.391 . S
C1337 C1336 1.386 . S
C1337 C1341 1.393 . S
C1338 H1330 0.950 . S
C1338 C1336 1.391 . S
C1338 C1339 1.400 . S
C1339 C1338 1.400 . S
C1339 C1340 1.398 . S
C1339 C1345 1.491 . S
C1340 H1331 0.950 . S
C1340 C1339 1.398 . S
C1340 C1341 1.391 . S
C1341 H1329 0.950 . S
C1341 C1337 1.393 . S
C1341 C1340 1.391 . S
C1342 H1332 0.950 . S
C1342 C1343 1.386 . S
C1342 C1344 1.391 . S
C1343 C1342 1.386 . S
C1343 C1347 1.393 . S
C1344 H1333 0.950 . S
C1344 C1342 1.391 . S
C1344 C1345 1.400 . S
C1345 C1339 1.491 . S
C1345 C1344 1.400 . S
C1345 C1346 1.398 . S
C1346 H1334 0.950 . S
C1346 C1345 1.398 . S
C1346 C1347 1.391 . S
C1347 H1335 0.950 . S
C1347 C1343 1.393 . S
C1347 C1346 1.391 . S
H1348 C1356 0.950 . S
H1349 C1361 0.950 . S
H1350 C1358 0.950 . S
H1351 C1360 0.950 . S
H1352 C1362 0.950 . S
H1353 C1364 0.950 . S
H1354 C1366 0.950 . S
H1355 C1367 0.950 . S
C1356 H1348 0.950 . S
C1356 C1357 1.386 . S
C1356 C1358 1.391 . S
C1357 C1356 1.386 . S
C1357 C1361 1.393 . S
C1358 H1350 0.950 . S
C1358 C1356 1.391 . S
C1358 C1359 1.400 . S
C1359 C1358 1.400 . S
C1359 C1360 1.398 . S
C1359 C1365 1.491 . S
C1360 H1351 0.950 . S
C1360 C1359 1.398 . S
C1360 C1361 1.391 . S
C1361 H1349 0.950 . S
C1361 C1357 1.393 . S
C1361 C1360 1.391 . S
C1362 H1352 0.950 . S
C1362 C1363 1.386 . S
C1362 C1364 1.391 . S
C1363 C1362 1.386 . S
C1363 C1367 1.393 . S
C1364 H1353 0.950 . S
C1364 C1362 1.391 . S
C1364 C1365 1.400 . S
C1365 C1359 1.491 . S
C1365 C1364 1.400 . S
C1365 C1366 1.398 . S
C1366 H1354 0.950 . S
C1366 C1365 1.398 . S
C1366 C1367 1.391 . S
C1367 H1355 0.950 . S
C1367 C1363 1.393 . S
C1367 C1366 1.391 . S
H1368 C1376 0.950 . S
H1369 C1381 0.950 . S
H1370 C1378 0.950 . S
H1371 C1380 0.950 . S
H1372 C1382 0.950 . S
H1373 C1384 0.950 . S
H1374 C1386 0.950 . S
H1375 C1387 0.950 . S
C1376 H1368 0.950 . S
C1376 C1377 1.386 . S
C1376 C1378 1.391 . S
C1377 C1376 1.386 . S
C1377 C1381 1.393 . S
C1378 H1370 0.950 . S
C1378 C1376 1.391 . S
C1378 C1379 1.400 . S
C1379 C1378 1.400 . S
C1379 C1380 1.398 . S
C1379 C1385 1.491 . S
C1380 H1371 0.950 . S
C1380 C1379 1.398 . S
C1380 C1381 1.391 . S
C1381 H1369 0.950 . S
C1381 C1377 1.393 . S
C1381 C1380 1.391 . S
C1382 H1372 0.950 . S
C1382 C1383 1.386 . S
C1382 C1384 1.391 . S
C1383 C1382 1.386 . S
C1383 C1387 1.393 . S
C1384 H1373 0.950 . S
C1384 C1382 1.391 . S
C1384 C1385 1.400 . S
C1385 C1379 1.491 . S
C1385 C1384 1.400 . S
C1385 C1386 1.398 . S
C1386 H1374 0.950 . S
C1386 C1385 1.398 . S
C1386 C1387 1.391 . S
C1387 H1375 0.950 . S
C1387 C1383 1.393 . S
C1387 C1386 1.391 . S
H1388 C1396 0.950 . S
H1389 C1401 0.950 . S
H1390 C1398 0.950 . S
H1391 C1400 0.950 . S
H1392 C1402 0.950 . S
H1393 C1404 0.950 . S
H1394 C1406 0.950 . S
H1395 C1407 0.950 . S
C1396 H1388 0.950 . S
C1396 C1397 1.386 . S
C1396 C1398 1.391 . S
C1397 C1396 1.386 . S
C1397 C1401 1.393 . S
C1398 H1390 0.950 . S
C1398 C1396 1.391 . S
C1398 C1399 1.400 . S
C1399 C1398 1.400 . S
C1399 C1400 1.398 . S
C1399 C1405 1.491 . S
C1400 H1391 0.950 . S
C1400 C1399 1.398 . S
C1400 C1401 1.391 . S
C1401 H1389 0.950 . S
C1401 C1397 1.393 . S
C1401 C1400 1.391 . S
C1402 H1392 0.950 . S
C1402 C1403 1.386 . S
C1402 C1404 1.391 . S
C1403 C1402 1.386 . S
C1403 C1407 1.393 . S
C1404 H1393 0.950 . S
C1404 C1402 1.391 . S
C1404 C1405 1.400 . S
C1405 C1399 1.491 . S
C1405 C1404 1.400 . S
C1405 C1406 1.398 . S
C1406 H1394 0.950 . S
C1406 C1405 1.398 . S
C1406 C1407 1.391 . S
C1407 H1395 0.950 . S
C1407 C1403 1.393 . S
C1407 C1406 1.391 . S
H1408 C1416 0.950 . S
H1409 C1421 0.950 . S
H1410 C1418 0.950 . S
H1411 C1420 0.950 . S
H1412 C1422 0.950 . S
H1413 C1424 0.950 . S
H1414 C1426 0.950 . S
H1415 C1427 0.950 . S
C1416 H1408 0.950 . S
C1416 C1417 1.386 . S
C1416 C1418 1.391 . S
C1417 C1416 1.386 . S
C1417 C1421 1.393 . S
C1418 H1410 0.950 . S
C1418 C1416 1.391 . S
C1418 C1419 1.400 . S
C1419 C1418 1.400 . S
C1419 C1420 1.398 . S
C1419 C1425 1.491 . S
C1420 H1411 0.950 . S
C1420 C1419 1.398 . S
C1420 C1421 1.391 . S
C1421 H1409 0.950 . S
C1421 C1417 1.393 . S
C1421 C1420 1.391 . S
C1422 H1412 0.950 . S
C1422 C1423 1.386 . S
C1422 C1424 1.391 . S
C1423 C1422 1.386 . S
C1423 C1427 1.393 . S
C1424 H1413 0.950 . S
C1424 C1422 1.391 . S
C1424 C1425 1.400 . S
C1425 C1419 1.491 . S
C1425 C1424 1.400 . S
C1425 C1426 1.398 . S
C1426 H1414 0.950 . S
C1426 C1425 1.398 . S
C1426 C1427 1.391 . S
C1427 H1415 0.950 . S
C1427 C1423 1.393 . S
C1427 C1426 1.391 . S
H1428 C1436 0.950 . S
H1429 C1441 0.950 . S
H1430 C1438 0.950 . S
H1431 C1440 0.950 . S
H1432 C1442 0.950 . S
H1433 C1444 0.950 . S
H1434 C1446 0.950 . S
H1435 C1447 0.950 . S
C1436 H1428 0.950 . S
C1436 C1437 1.386 . S
C1436 C1438 1.391 . S
C1437 C1436 1.386 . S
C1437 C1441 1.393 . S
C1438 H1430 0.950 . S
C1438 C1436 1.391 . S
C1438 C1439 1.400 . S
C1439 C1438 1.400 . S
C1439 C1440 1.398 . S
C1439 C1445 1.491 . S
C1440 H1431 0.950 . S
C1440 C1439 1.398 . S
C1440 C1441 1.391 . S
C1441 H1429 0.950 . S
C1441 C1437 1.393 . S
C1441 C1440 1.391 . S
C1442 H1432 0.950 . S
C1442 C1443 1.386 . S
C1442 C1444 1.391 . S
C1443 C1442 1.386 . S
C1443 C1447 1.393 . S
C1444 H1433 0.950 . S
C1444 C1442 1.391 . S
C1444 C1445 1.400 . S
C1445 C1439 1.491 . S
C1445 C1444 1.400 . S
C1445 C1446 1.398 . S
C1446 H1434 0.950 . S
C1446 C1445 1.398 . S
C1446 C1447 1.391 . S
C1447 H1435 0.950 . S
C1447 C1443 1.393 . S
C1447 C1446 1.391 . S
H1448 C1456 0.950 . S
H1449 C1461 0.950 . S
H1450 C1458 0.950 . S
H1451 C1460 0.950 . S
H1452 C1462 0.950 . S
H1453 C1464 0.950 . S
H1454 C1466 0.950 . S
H1455 C1467 0.950 . S
C1456 H1448 0.950 . S
C1456 C1457 1.386 . S
C1456 C1458 1.391 . S
C1457 C1456 1.386 . S
C1457 C1461 1.393 . S
C1458 H1450 0.950 . S
C1458 C1456 1.391 . S
C1458 C1459 1.400 . S
C1459 C1458 1.400 . S
C1459 C1460 1.398 . S
C1459 C1465 1.491 . S
C1460 H1451 0.950 . S
C1460 C1459 1.398 . S
C1460 C1461 1.391 . S
C1461 H1449 0.950 . S
C1461 C1457 1.393 . S
C1461 C1460 1.391 . S
C1462 H1452 0.950 . S
C1462 C1463 1.386 . S
C1462 C1464 1.391 . S
C1463 C1462 1.386 . S
C1463 C1467 1.393 . S
C1464 H1453 0.950 . S
C1464 C1462 1.391 . S
C1464 C1465 1.400 . S
C1465 C1459 1.491 . S
C1465 C1464 1.400 . S
C1465 C1466 1.398 . S
C1466 H1454 0.950 . S
C1466 C1465 1.398 . S
C1466 C1467 1.391 . S
C1467 H1455 0.950 . S
C1467 C1463 1.393 . S
C1467 C1466 1.391 . S
H1468 C1476 0.950 . S
H1469 C1481 0.950 . S
H1470 C1478 0.950 . S
H1471 C1480 0.950 . S
H1472 C1482 0.950 . S
H1473 C1484 0.950 . S
H1474 C1486 0.950 . S
H1475 C1487 0.950 . S
C1476 H1468 0.950 . S
C1476 C1477 1.386 . S
C1476 C1478 1.391 . S
C1477 C1476 1.386 . S
C1477 C1481 1.393 . S
C1478 H1470 0.950 . S
C1478 C1476 1.391 . S
C1478 C1479 1.400 . S
C1479 C1478 1.400 . S
C1479 C1480 1.398 . S
C1479 C1485 1.491 . S
C1480 H1471 0.950 . S
C1480 C1479 1.398 . S
C1480 C1481 1.391 . S
C1481 H1469 0.950 . S
C1481 C1477 1.393 . S
C1481 C1480 1.391 . S
C1482 H1472 0.950 . S
C1482 C1483 1.386 . S
C1482 C1484 1.391 . S
C1483 C1482 1.386 . S
C1483 C1487 1.393 . S
C1484 H1473 0.950 . S
C1484 C1482 1.391 . S
C1484 C1485 1.400 . S
C1485 C1479 1.491 . S
C1485 C1484 1.400 . S
C1485 C1486 1.398 . S
C1486 H1474 0.950 . S
C1486 C1485 1.398 . S
C1486 C1487 1.391 . S
C1487 H1475 0.950 . S
C1487 C1483 1.393 . S
C1487 C1486 1.391 . S
H1488 C1496 0.951 . S
H1489 C1501 0.950 . S
H1490 C1498 0.950 . S
H1491 C1500 0.950 . S
H1492 C1502 0.950 . S
H1493 C1504 0.950 . S
H1494 C1506 0.950 . S
H1495 C1507 0.950 . S
C1496 H1488 0.951 . S
C1496 C1497 1.389 . S
C1496 C1498 1.387 1_556 S
C1497 C1496 1.389 . S
C1497 C1501 1.393 . S
C1498 H1490 0.950 . S
C1498 C1496 1.387 1_554 S
C1498 C1499 1.400 . S
C1499 C1498 1.400 . S
C1499 C1500 1.398 . S
C1499 C1505 1.491 . S
C1500 H1491 0.950 . S
C1500 C1499 1.398 . S
C1500 C1501 1.391 1_554 S
C1501 H1489 0.950 . S
C1501 C1497 1.393 . S
C1501 C1500 1.391 1_556 S
C1502 H1492 0.950 . S
C1502 C1503 1.386 . S
C1502 C1504 1.391 . S
C1503 C1502 1.386 . S
C1503 C1507 1.393 . S
C1504 H1493 0.950 . S
C1504 C1502 1.391 . S
C1504 C1505 1.400 . S
C1505 C1499 1.491 . S
C1505 C1504 1.400 . S
C1505 C1506 1.398 . S
C1506 H1494 0.950 . S
C1506 C1505 1.398 . S
C1506 C1507 1.391 . S
C1507 H1495 0.950 . S
C1507 C1503 1.393 . S
C1507 C1506 1.391 . S
H1508 C1516 0.950 . S
H1509 C1521 0.949 1_556 S
H1510 C1518 0.950 . S
H1511 C1520 0.950 . S
H1512 C1522 0.950 . S
H1513 C1524 0.950 . S
H1514 C1526 0.950 . S
H1515 C1527 0.950 . S
C1516 H1508 0.950 . S
C1516 C1517 1.386 . S
C1516 C1518 1.391 1_556 S
C1517 C1516 1.386 . S
C1517 C1521 1.393 1_556 S
C1518 H1510 0.950 . S
C1518 C1516 1.391 1_554 S
C1518 C1519 1.400 . S
C1519 C1518 1.400 . S
C1519 C1520 1.398 . S
C1519 C1525 1.491 . S
C1520 H1511 0.950 . S
C1520 C1519 1.398 . S
C1520 C1521 1.391 . S
C1521 H1509 0.949 1_554 S
C1521 C1517 1.393 1_554 S
C1521 C1520 1.391 . S
C1522 H1512 0.950 . S
C1522 C1523 1.386 . S
C1522 C1524 1.391 . S
C1523 C1522 1.386 . S
C1523 C1527 1.393 . S
C1524 H1513 0.950 . S
C1524 C1522 1.391 . S
C1524 C1525 1.400 . S
C1525 C1519 1.491 . S
C1525 C1524 1.400 . S
C1525 C1526 1.398 . S
C1526 H1514 0.950 . S
C1526 C1525 1.398 . S
C1526 C1527 1.391 . S
C1527 H1515 0.950 . S
C1527 C1523 1.393 . S
C1527 C1526 1.391 . S
H1528 C1536 0.950 . S
H1529 C1541 0.950 . S
H1530 C1538 0.950 . S
H1531 C1540 0.950 . S
H1532 C1542 0.950 . S
H1533 C1544 0.950 . S
H1534 C1546 0.950 . S
H1535 C1547 0.950 . S
C1536 H1528 0.950 . S
C1536 C1537 1.386 1_554 S
C1536 C1538 1.391 . S
C1537 C1536 1.386 1_556 S
C1537 C1541 1.393 . S
C1538 H1530 0.950 . S
C1538 C1536 1.391 . S
C1538 C1539 1.400 . S
C1539 C1538 1.400 . S
C1539 C1540 1.398 . S
C1539 C1545 1.491 . S
C1540 H1531 0.950 . S
C1540 C1539 1.398 . S
C1540 C1541 1.391 1_554 S
C1541 H1529 0.950 . S
C1541 C1537 1.393 . S
C1541 C1540 1.391 1_556 S
C1542 H1532 0.950 . S
C1542 C1543 1.386 . S
C1542 C1544 1.391 . S
C1543 C1542 1.386 . S
C1543 C1547 1.393 . S
C1544 H1533 0.950 . S
C1544 C1542 1.391 . S
C1544 C1545 1.400 . S
C1545 C1539 1.491 . S
C1545 C1544 1.400 . S
C1545 C1546 1.398 . S
C1546 H1534 0.950 . S
C1546 C1545 1.398 . S
C1546 C1547 1.391 . S
C1547 H1535 0.950 . S
C1547 C1543 1.393 . S
C1547 C1546 1.391 . S
H1548 C1556 0.950 . S
H1549 C1561 0.950 1_556 S
H1550 C1558 0.950 . S
H1551 C1560 0.950 . S
H1552 C1562 0.950 . S
H1553 C1564 0.950 . S
H1554 C1566 0.950 . S
H1555 C1567 0.950 . S
C1556 H1548 0.950 . S
C1556 C1557 1.386 . S
C1556 C1558 1.391 . S
C1557 C1556 1.386 . S
C1557 C1561 1.393 . S
C1558 H1550 0.950 . S
C1558 C1556 1.391 . S
C1558 C1559 1.400 . S
C1559 C1558 1.400 . S
C1559 C1560 1.398 . S
C1559 C1565 1.491 . S
C1560 H1551 0.950 . S
C1560 C1559 1.398 . S
C1560 C1561 1.391 . S
C1561 H1549 0.950 1_554 S
C1561 C1557 1.393 . S
C1561 C1560 1.391 . S
C1562 H1552 0.950 . S
C1562 C1563 1.386 . S
C1562 C1564 1.391 . S
C1563 C1562 1.386 . S
C1563 C1567 1.393 . S
C1564 H1553 0.950 . S
C1564 C1562 1.391 . S
C1564 C1565 1.400 . S
C1565 C1559 1.491 . S
C1565 C1564 1.400 . S
C1565 C1566 1.398 . S
C1566 H1554 0.950 . S
C1566 C1565 1.398 . S
C1566 C1567 1.391 . S
C1567 H1555 0.950 . S
C1567 C1563 1.393 . S
C1567 C1566 1.391 . S
H1568 C1576 0.950 . S
H1569 C1581 0.950 . S
H1570 C1578 0.950 . S
H1571 C1580 0.950 . S
H1572 C1582 0.950 . S
H1573 C1584 0.950 . S
H1574 C1586 0.950 . S
H1575 C1587 0.950 . S
C1576 H1568 0.950 . S
C1576 C1577 1.386 . S
C1576 C1578 1.391 . S
C1577 C1576 1.386 . S
C1577 C1581 1.393 . S
C1578 H1570 0.950 . S
C1578 C1576 1.391 . S
C1578 C1579 1.400 . S
C1579 C1578 1.400 . S
C1579 C1580 1.398 . S
C1579 C1585 1.491 . S
C1580 H1571 0.950 . S
C1580 C1579 1.398 . S
C1580 C1581 1.391 . S
C1581 H1569 0.950 . S
C1581 C1577 1.393 . S
C1581 C1580 1.391 . S
C1582 H1572 0.950 . S
C1582 C1583 1.386 . S
C1582 C1584 1.391 . S
C1583 C1582 1.386 . S
C1583 C1587 1.393 . S
C1584 H1573 0.950 . S
C1584 C1582 1.391 . S
C1584 C1585 1.400 . S
C1585 C1579 1.491 . S
C1585 C1584 1.400 . S
C1585 C1586 1.398 . S
C1586 H1574 0.950 . S
C1586 C1585 1.398 . S
C1586 C1587 1.391 . S
C1587 H1575 0.950 . S
C1587 C1583 1.393 . S
C1587 C1586 1.391 . S
H1588 C1596 0.950 . S
H1589 C1601 0.950 . S
H1590 C1598 0.950 . S
H1591 C1600 0.950 . S
H1592 C1602 0.950 . S
H1593 C1604 0.950 . S
H1594 C1606 0.950 . S
H1595 C1607 0.950 . S
C1596 H1588 0.950 . S
C1596 C1597 1.386 . S
C1596 C1598 1.391 . S
C1597 C1596 1.386 . S
C1597 C1601 1.393 . S
C1598 H1590 0.950 . S
C1598 C1596 1.391 . S
C1598 C1599 1.400 . S
C1599 C1598 1.400 . S
C1599 C1600 1.398 . S
C1599 C1605 1.491 . S
C1600 H1591 0.950 . S
C1600 C1599 1.398 . S
C1600 C1601 1.391 . S
C1601 H1589 0.950 . S
C1601 C1597 1.393 . S
C1601 C1600 1.391 . S
C1602 H1592 0.950 . S
C1602 C1603 1.386 . S
C1602 C1604 1.391 . S
C1603 C1602 1.386 . S
C1603 C1607 1.393 . S
C1604 H1593 0.950 . S
C1604 C1602 1.391 . S
C1604 C1605 1.400 . S
C1605 C1599 1.491 . S
C1605 C1604 1.400 . S
C1605 C1606 1.398 . S
C1606 H1594 0.950 . S
C1606 C1605 1.398 . S
C1606 C1607 1.391 . S
C1607 H1595 0.950 . S
C1607 C1603 1.393 . S
C1607 C1606 1.391 . S
H1608 C1616 0.950 . S
H1609 C1621 0.950 . S
H1610 C1618 0.950 . S
H1611 C1620 0.950 . S
H1612 C1622 0.950 . S
H1613 C1624 0.950 . S
H1614 C1626 0.950 . S
H1615 C1627 0.950 . S
C1616 H1608 0.950 . S
C1616 C1617 1.386 . S
C1616 C1618 1.391 . S
C1617 C1616 1.386 . S
C1617 C1621 1.393 . S
C1618 H1610 0.950 . S
C1618 C1616 1.391 . S
C1618 C1619 1.400 . S
C1619 C1618 1.400 . S
C1619 C1620 1.398 . S
C1619 C1625 1.491 . S
C1620 H1611 0.950 . S
C1620 C1619 1.398 . S
C1620 C1621 1.391 . S
C1621 H1609 0.950 . S
C1621 C1617 1.393 . S
C1621 C1620 1.391 . S
C1622 H1612 0.950 . S
C1622 C1623 1.386 . S
C1622 C1624 1.391 . S
C1623 C1622 1.386 . S
C1623 C1627 1.393 . S
C1624 H1613 0.950 . S
C1624 C1622 1.391 . S
C1624 C1625 1.400 . S
C1625 C1619 1.491 . S
C1625 C1624 1.400 . S
C1625 C1626 1.398 . S
C1626 H1614 0.950 . S
C1626 C1625 1.398 . S
C1626 C1627 1.391 . S
C1627 H1615 0.950 . S
C1627 C1623 1.393 . S
C1627 C1626 1.391 . S
H1628 C1636 0.950 . S
H1629 C1641 0.950 . S
H1630 C1638 0.950 . S
H1631 C1640 0.950 . S
H1632 C1642 0.950 . S
H1633 C1644 0.950 . S
H1634 C1646 0.950 . S
H1635 C1647 0.950 . S
C1636 H1628 0.950 . S
C1636 C1637 1.386 . S
C1636 C1638 1.391 . S
C1637 C1636 1.386 . S
C1637 C1641 1.393 . S
C1638 H1630 0.950 . S
C1638 C1636 1.391 . S
C1638 C1639 1.400 . S
C1639 C1638 1.400 . S
C1639 C1640 1.398 . S
C1639 C1645 1.491 . S
C1640 H1631 0.950 . S
C1640 C1639 1.398 . S
C1640 C1641 1.391 . S
C1641 H1629 0.950 . S
C1641 C1637 1.393 . S
C1641 C1640 1.391 . S
C1642 H1632 0.950 . S
C1642 C1643 1.386 . S
C1642 C1644 1.391 . S
C1643 C1642 1.386 . S
C1643 C1647 1.393 . S
C1644 H1633 0.950 . S
C1644 C1642 1.391 . S
C1644 C1645 1.400 . S
C1645 C1639 1.491 . S
C1645 C1644 1.400 . S
C1645 C1646 1.398 . S
C1646 H1634 0.950 . S
C1646 C1645 1.398 . S
C1646 C1647 1.391 . S
C1647 H1635 0.950 . S
C1647 C1643 1.393 . S
C1647 C1646 1.391 . S
H1648 C1656 0.950 . S
H1649 C1661 0.950 . S
H1650 C1658 0.950 . S
H1651 C1660 0.950 . S
H1652 C1662 0.950 . S
H1653 C1664 0.950 . S
H1654 C1666 0.950 . S
H1655 C1667 0.950 . S
C1656 H1648 0.950 . S
C1656 C1657 1.386 . S
C1656 C1658 1.391 . S
C1657 C1656 1.386 . S
C1657 C1661 1.393 . S
C1658 H1650 0.950 . S
C1658 C1656 1.391 . S
C1658 C1659 1.400 . S
C1659 C1658 1.400 . S
C1659 C1660 1.398 . S
C1659 C1665 1.491 . S
C1660 H1651 0.950 . S
C1660 C1659 1.398 . S
C1660 C1661 1.391 . S
C1661 H1649 0.950 . S
C1661 C1657 1.393 . S
C1661 C1660 1.391 . S
C1662 H1652 0.950 . S
C1662 C1663 1.386 . S
C1662 C1664 1.391 . S
C1663 C1662 1.386 . S
C1663 C1667 1.393 . S
C1664 H1653 0.950 . S
C1664 C1662 1.391 . S
C1664 C1665 1.400 . S
C1665 C1659 1.491 . S
C1665 C1664 1.400 . S
C1665 C1666 1.398 . S
C1666 H1654 0.950 . S
C1666 C1665 1.398 . S
C1666 C1667 1.391 . S
C1667 H1655 0.950 . S
C1667 C1663 1.393 . S
C1667 C1666 1.391 . S
H1668 C1676 0.950 . S
H1669 C1681 0.950 . S
H1670 C1678 0.950 . S
H1671 C1680 0.950 . S
H1672 C1682 0.950 . S
H1673 C1684 0.950 . S
H1674 C1686 0.950 . S
H1675 C1687 0.950 1_554 S
C1676 H1668 0.950 . S
C1676 C1677 1.386 . S
C1676 C1678 1.391 . S
C1677 C1676 1.386 . S
C1677 C1681 1.393 . S
C1678 H1670 0.950 . S
C1678 C1676 1.391 . S
C1678 C1679 1.400 . S
C1679 C1678 1.400 . S
C1679 C1680 1.398 . S
C1679 C1685 1.491 . S
C1680 H1671 0.950 . S
C1680 C1679 1.398 . S
C1680 C1681 1.391 . S
C1681 H1669 0.950 . S
C1681 C1677 1.393 . S
C1681 C1680 1.391 . S
C1682 H1672 0.950 . S
C1682 C1683 1.386 . S
C1682 C1684 1.391 . S
C1683 C1682 1.386 . S
C1683 C1687 1.393 . S
C1684 H1673 0.950 . S
C1684 C1682 1.391 . S
C1684 C1685 1.400 . S
C1685 C1679 1.491 . S
C1685 C1684 1.400 . S
C1685 C1686 1.398 . S
C1686 H1674 0.950 . S
C1686 C1685 1.398 . S
C1686 C1687 1.391 . S
C1687 H1675 0.950 1_556 S
C1687 C1683 1.393 . S
C1687 C1686 1.391 . S
H1688 C1696 0.950 . S
H1689 C1701 0.950 . S
H1690 C1698 0.950 . S
H1691 C1700 0.950 . S
H1692 C1702 0.950 . S
H1693 C1704 0.950 . S
H1694 C1706 0.950 . S
H1695 C1707 0.950 . S
C1696 H1688 0.950 . S
C1696 C1697 1.386 . S
C1696 C1698 1.391 . S
C1697 C1696 1.386 . S
C1697 C1701 1.393 . S
C1698 H1690 0.950 . S
C1698 C1696 1.391 . S
C1698 C1699 1.400 . S
C1699 C1698 1.400 . S
C1699 C1700 1.398 . S
C1699 C1705 1.491 . S
C1700 H1691 0.950 . S
C1700 C1699 1.398 . S
C1700 C1701 1.391 . S
C1701 H1689 0.950 . S
C1701 C1697 1.393 . S
C1701 C1700 1.391 . S
C1702 H1692 0.950 . S
C1702 C1703 1.386 . S
C1702 C1704 1.391 . S
C1703 C1702 1.386 . S
C1703 C1707 1.393 . S
C1704 H1693 0.950 . S
C1704 C1702 1.391 . S
C1704 C1705 1.400 . S
C1705 C1699 1.491 . S
C1705 C1704 1.400 . S
C1705 C1706 1.398 . S
C1706 H1694 0.950 . S
C1706 C1705 1.398 . S
C1706 C1707 1.391 . S
C1707 H1695 0.950 . S
C1707 C1703 1.393 . S
C1707 C1706 1.391 . S
H1708 C1716 0.950 . S
H1709 C1721 0.950 . S
H1710 C1718 0.950 . S
H1711 C1720 0.950 . S
H1712 C1722 0.950 . S
H1713 C1724 0.950 . S
H1714 C1726 0.950 . S
H1715 C1727 0.950 . S
C1716 H1708 0.950 . S
C1716 C1717 1.386 . S
C1716 C1718 1.391 . S
C1717 C1716 1.386 . S
C1717 C1721 1.393 . S
C1718 H1710 0.950 . S
C1718 C1716 1.391 . S
C1718 C1719 1.400 . S
C1719 C1718 1.400 . S
C1719 C1720 1.398 . S
C1719 C1725 1.491 . S
C1720 H1711 0.950 . S
C1720 C1719 1.398 . S
C1720 C1721 1.391 . S
C1721 H1709 0.950 . S
C1721 C1717 1.393 . S
C1721 C1720 1.391 . S
C1722 H1712 0.950 . S
C1722 C1723 1.386 . S
C1722 C1724 1.391 . S
C1723 C1722 1.386 . S
C1723 C1727 1.393 . S
C1724 H1713 0.950 . S
C1724 C1722 1.391 . S
C1724 C1725 1.400 . S
C1725 C1719 1.491 . S
C1725 C1724 1.400 . S
C1725 C1726 1.398 . S
C1726 H1714 0.950 . S
C1726 C1725 1.398 . S
C1726 C1727 1.391 . S
C1727 H1715 0.950 . S
C1727 C1723 1.393 . S
C1727 C1726 1.391 . S
H1728 C1736 0.950 . S
H1729 C1741 0.950 . S
H1730 C1738 0.950 . S
H1731 C1740 0.950 . S
H1732 C1742 0.950 . S
H1733 C1744 0.950 . S
H1734 C1746 0.950 . S
H1735 C1747 0.950 . S
C1736 H1728 0.950 . S
C1736 C1737 1.386 . S
C1736 C1738 1.391 . S
C1737 C1736 1.386 . S
C1737 C1741 1.393 . S
C1738 H1730 0.950 . S
C1738 C1736 1.391 . S
C1738 C1739 1.400 . S
C1739 C1738 1.400 . S
C1739 C1740 1.398 . S
C1739 C1745 1.491 . S
C1740 H1731 0.950 . S
C1740 C1739 1.398 . S
C1740 C1741 1.391 . S
C1741 H1729 0.950 . S
C1741 C1737 1.393 . S
C1741 C1740 1.391 . S
C1742 H1732 0.950 . S
C1742 C1743 1.386 . S
C1742 C1744 1.391 . S
C1743 C1742 1.386 . S
C1743 C1747 1.393 . S
C1744 H1733 0.950 . S
C1744 C1742 1.391 . S
C1744 C1745 1.400 . S
C1745 C1739 1.491 . S
C1745 C1744 1.400 . S
C1745 C1746 1.398 . S
C1746 H1734 0.950 . S
C1746 C1745 1.398 . S
C1746 C1747 1.391 . S
C1747 H1735 0.950 . S
C1747 C1743 1.393 . S
C1747 C1746 1.391 . S
H1748 C1756 0.950 . S
H1749 C1761 0.950 . S
H1750 C1758 0.950 . S
H1751 C1760 0.950 . S
H1752 C1762 0.950 . S
H1753 C1764 0.950 . S
H1754 C1766 0.950 . S
H1755 C1767 0.950 . S
C1756 H1748 0.950 . S
C1756 C1757 1.386 . S
C1756 C1758 1.391 . S
C1757 C1756 1.386 . S
C1757 C1761 1.393 . S
C1758 H1750 0.950 . S
C1758 C1756 1.391 . S
C1758 C1759 1.400 . S
C1759 C1758 1.400 . S
C1759 C1760 1.398 . S
C1759 C1765 1.491 . S
C1760 H1751 0.950 . S
C1760 C1759 1.398 . S
C1760 C1761 1.391 . S
C1761 H1749 0.950 . S
C1761 C1757 1.393 . S
C1761 C1760 1.391 . S
C1762 H1752 0.950 . S
C1762 C1763 1.386 . S
C1762 C1764 1.391 . S
C1763 C1762 1.386 . S
C1763 C1767 1.393 . S
C1764 H1753 0.950 . S
C1764 C1762 1.391 . S
C1764 C1765 1.400 . S
C1765 C1759 1.491 . S
C1765 C1764 1.400 . S
C1765 C1766 1.398 . S
C1766 H1754 0.950 . S
C1766 C1765 1.398 . S
C1766 C1767 1.391 . S
C1767 H1755 0.950 . S
C1767 C1763 1.393 . S
C1767 C1766 1.391 . S
H1768 C1776 0.950 . S
H1769 C1781 0.950 . S
H1770 C1778 0.950 . S
H1771 C1780 0.950 . S
H1772 C1782 0.950 . S
H1773 C1784 0.950 . S
H1774 C1786 0.950 . S
H1775 C1787 0.950 . S
C1776 H1768 0.950 . S
C1776 C1777 1.386 . S
C1776 C1778 1.391 . S
C1777 C1776 1.386 . S
C1777 C1781 1.393 . S
C1778 H1770 0.950 . S
C1778 C1776 1.391 . S
C1778 C1779 1.400 . S
C1779 C1778 1.400 . S
C1779 C1780 1.398 . S
C1779 C1785 1.491 . S
C1780 H1771 0.950 . S
C1780 C1779 1.398 . S
C1780 C1781 1.391 . S
C1781 H1769 0.950 . S
C1781 C1777 1.393 . S
C1781 C1780 1.391 . S
C1782 H1772 0.950 . S
C1782 C1783 1.386 . S
C1782 C1784 1.391 . S
C1783 C1782 1.386 . S
C1783 C1787 1.393 . S
C1784 H1773 0.950 . S
C1784 C1782 1.391 . S
C1784 C1785 1.400 . S
C1785 C1779 1.491 . S
C1785 C1784 1.400 . S
C1785 C1786 1.398 . S
C1786 H1774 0.950 . S
C1786 C1785 1.398 . S
C1786 C1787 1.391 . S
C1787 H1775 0.950 . S
C1787 C1783 1.393 . S
C1787 C1786 1.391 . S
H1788 C1796 0.950 . S
H1789 C1801 0.950 . S
H1790 C1798 0.950 . S
H1791 C1800 0.950 . S
H1792 C1802 0.950 . S
H1793 C1804 0.950 . S
H1794 C1806 0.950 . S
H1795 C1807 0.950 . S
C1796 H1788 0.950 . S
C1796 C1797 1.386 . S
C1796 C1798 1.391 . S
C1797 C1796 1.386 . S
C1797 C1801 1.393 . S
C1798 H1790 0.950 . S
C1798 C1796 1.391 . S
C1798 C1799 1.400 . S
C1799 C1798 1.400 . S
C1799 C1800 1.398 . S
C1799 C1805 1.491 1_455 S
C1800 H1791 0.950 . S
C1800 C1799 1.398 . S
C1800 C1801 1.391 . S
C1801 H1789 0.950 . S
C1801 C1797 1.393 . S
C1801 C1800 1.391 . S
C1802 H1792 0.950 . S
C1802 C1803 1.386 . S
C1802 C1804 1.391 . S
C1803 C1802 1.386 . S
C1803 C1807 1.393 . S
C1804 H1793 0.950 . S
C1804 C1802 1.391 . S
C1804 C1805 1.400 . S
C1805 C1799 1.491 1_655 S
C1805 C1804 1.400 . S
C1805 C1806 1.398 . S
C1806 H1794 0.950 . S
C1806 C1805 1.398 . S
C1806 C1807 1.391 . S
C1807 H1795 0.950 . S
C1807 C1803 1.393 . S
C1807 C1806 1.391 . S
H1808 C1816 0.950 . S
H1809 C1821 0.950 . S
H1810 C1818 0.950 . S
H1811 C1820 0.950 . S
H1812 C1822 0.950 . S
H1813 C1824 0.950 . S
H1814 C1826 0.950 . S
H1815 C1827 0.950 . S
C1816 H1808 0.950 . S
C1816 C1817 1.386 . S
C1816 C1818 1.391 . S
C1817 C1816 1.386 . S
C1817 C1821 1.393 . S
C1818 H1810 0.950 . S
C1818 C1816 1.391 . S
C1818 C1819 1.400 . S
C1819 C1818 1.400 . S
C1819 C1820 1.398 . S
C1819 C1825 1.491 . S
C1820 H1811 0.950 . S
C1820 C1819 1.398 . S
C1820 C1821 1.391 . S
C1821 H1809 0.950 . S
C1821 C1817 1.393 . S
C1821 C1820 1.391 . S
C1822 H1812 0.950 . S
C1822 C1823 1.386 . S
C1822 C1824 1.391 . S
C1823 C1822 1.386 . S
C1823 C1827 1.393 . S
C1824 H1813 0.950 . S
C1824 C1822 1.391 . S
C1824 C1825 1.400 . S
C1825 C1819 1.491 . S
C1825 C1824 1.400 . S
C1825 C1826 1.398 . S
C1826 H1814 0.950 . S
C1826 C1825 1.398 . S
C1826 C1827 1.391 . S
C1827 H1815 0.950 . S
C1827 C1823 1.393 . S
C1827 C1826 1.391 . S
H1828 C1836 0.950 . S
H1829 C1841 0.950 . S
H1830 C1838 0.950 . S
H1831 C1840 0.950 . S
H1832 C1842 0.950 . S
H1833 C1844 0.950 . S
H1834 C1846 0.950 . S
H1835 C1847 0.950 . S
C1836 H1828 0.950 . S
C1836 C1837 1.386 . S
C1836 C1838 1.391 . S
C1837 C1836 1.386 . S
C1837 C1841 1.393 . S
C1838 H1830 0.950 . S
C1838 C1836 1.391 . S
C1838 C1839 1.400 . S
C1839 C1838 1.400 . S
C1839 C1840 1.398 . S
C1839 C1845 1.491 1_565 S
C1840 H1831 0.950 . S
C1840 C1839 1.398 . S
C1840 C1841 1.391 . S
C1841 H1829 0.950 . S
C1841 C1837 1.393 . S
C1841 C1840 1.391 . S
C1842 H1832 0.950 . S
C1842 C1843 1.386 . S
C1842 C1844 1.391 . S
C1843 C1842 1.386 . S
C1843 C1847 1.393 . S
C1844 H1833 0.950 . S
C1844 C1842 1.391 . S
C1844 C1845 1.400 . S
C1845 C1839 1.491 1_545 S
C1845 C1844 1.400 . S
C1845 C1846 1.398 . S
C1846 H1834 0.950 . S
C1846 C1845 1.398 . S
C1846 C1847 1.391 . S
C1847 H1835 0.950 . S
C1847 C1843 1.393 . S
C1847 C1846 1.391 . S
H1848 C1856 0.950 . S
H1849 C1861 0.950 . S
H1850 C1858 0.950 . S
H1851 C1860 0.950 . S
H1852 C1862 0.950 . S
H1853 C1864 0.950 . S
H1854 C1866 0.950 . S
H1855 C1867 0.950 . S
C1856 H1848 0.950 . S
C1856 C1857 1.386 . S
C1856 C1858 1.391 . S
C1857 C1856 1.386 . S
C1857 C1861 1.393 . S
C1858 H1850 0.950 . S
C1858 C1856 1.391 . S
C1858 C1859 1.400 . S
C1859 C1858 1.400 . S
C1859 C1860 1.398 . S
C1859 C1865 1.491 1_545 S
C1860 H1851 0.950 . S
C1860 C1859 1.398 . S
C1860 C1861 1.391 . S
C1861 H1849 0.950 . S
C1861 C1857 1.393 . S
C1861 C1860 1.391 . S
C1862 H1852 0.950 . S
C1862 C1863 1.386 . S
C1862 C1864 1.391 . S
C1863 C1862 1.386 . S
C1863 C1867 1.393 . S
C1864 H1853 0.950 . S
C1864 C1862 1.391 . S
C1864 C1865 1.400 . S
C1865 C1859 1.491 1_565 S
C1865 C1864 1.400 . S
C1865 C1866 1.398 . S
C1866 H1854 0.950 . S
C1866 C1865 1.398 . S
C1866 C1867 1.391 . S
C1867 H1855 0.950 . S
C1867 C1863 1.393 . S
C1867 C1866 1.391 . S
H1868 C1876 0.950 . S
H1869 C1881 0.950 . S
H1870 C1878 0.950 . S
H1871 C1880 0.950 . S
H1872 C1882 0.950 . S
H1873 C1884 0.950 . S
H1874 C1886 0.950 . S
H1875 C1887 0.950 . S
C1876 H1868 0.950 . S
C1876 C1877 1.386 . S
C1876 C1878 1.391 . S
C1877 C1876 1.386 . S
C1877 C1881 1.393 . S
C1878 H1870 0.950 . S
C1878 C1876 1.391 . S
C1878 C1879 1.400 . S
C1879 C1878 1.400 . S
C1879 C1880 1.398 . S
C1879 C1885 1.491 1_455 S
C1880 H1871 0.950 . S
C1880 C1879 1.398 . S
C1880 C1881 1.391 . S
C1881 H1869 0.950 . S
C1881 C1877 1.393 . S
C1881 C1880 1.391 . S
C1882 H1872 0.950 . S
C1882 C1883 1.386 . S
C1882 C1884 1.391 . S
C1883 C1882 1.386 . S
C1883 C1887 1.393 . S
C1884 H1873 0.950 . S
C1884 C1882 1.391 . S
C1884 C1885 1.400 . S
C1885 C1879 1.491 1_655 S
C1885 C1884 1.400 . S
C1885 C1886 1.398 . S
C1886 H1874 0.950 . S
C1886 C1885 1.398 . S
C1886 C1887 1.391 . S
C1887 H1875 0.950 . S
C1887 C1883 1.393 . S
C1887 C1886 1.391 . S
H1888 C1896 0.950 . S
H1889 C1901 0.950 . S
H1890 C1898 0.950 . S
H1891 C1900 0.950 . S
H1892 C1902 0.950 . S
H1893 C1904 0.950 . S
H1894 C1906 0.950 . S
H1895 C1907 0.950 . S
C1896 H1888 0.950 . S
C1896 C1897 1.386 . S
C1896 C1898 1.391 . S
C1897 C1896 1.386 . S
C1897 C1901 1.393 . S
C1898 H1890 0.950 . S
C1898 C1896 1.391 . S
C1898 C1899 1.400 . S
C1899 C1898 1.400 . S
C1899 C1900 1.398 . S
C1899 C1905 1.491 . S
C1900 H1891 0.950 . S
C1900 C1899 1.398 . S
C1900 C1901 1.391 . S
C1901 H1889 0.950 . S
C1901 C1897 1.393 . S
C1901 C1900 1.391 . S
C1902 H1892 0.950 . S
C1902 C1903 1.386 . S
C1902 C1904 1.391 . S
C1903 C1902 1.386 . S
C1903 C1907 1.393 . S
C1904 H1893 0.950 . S
C1904 C1902 1.391 . S
C1904 C1905 1.400 . S
C1905 C1899 1.491 . S
C1905 C1904 1.400 . S
C1905 C1906 1.398 . S
C1906 H1894 0.950 . S
C1906 C1905 1.398 . S
C1906 C1907 1.391 . S
C1907 H1895 0.950 . S
C1907 C1903 1.393 . S
C1907 C1906 1.391 . S
C477 C43 1.175 . S
C483 C10 1.171 . S
C497 C56 1.172 . S
C503 C17 1.172 . S
C517 C69 1.176 . S
C523 C36 1.174 . S
C537 C88 1.175 . S
C543 C121 1.176 . S
C557 C95 1.173 . S
C563 C140 1.171 . S
C577 C153 1.177 . S
C583 C114 1.173 . S
C597 C160 1.176 . S
C603 C205 1.174 . S
C617 C179 1.173 . S
C623 C212 1.176 . S
C637 C186 1.174 . S
C643 C225 1.170 . S
C657 C244 1.176 . S
C663 C277 1.172 . S
C677 C296 1.175 . S
C683 C251 1.174 . S
C697 C270 1.175 . S
C703 C309 1.174 . S
C717 C322 1.176 . S
C723 C361 1.170 . S
C737 C335 1.174 . S
C743 C368 1.170 . S
C757 C381 1.173 . S
C763 C342 1.175 . S
C777 C433 1.174 . S
C783 C400 1.170 . S
C797 C452 1.175 . S
C803 C407 1.175 . S
C817 C465 1.173 . S
C823 C420 1.170 . S
C837 C147 1.644 . S
C843 C3 1.678 . S
C857 C18 1.674 . S
C863 C127 1.648 . S
C877 C29 1.673 . S
C883 C134 1.649 . S
C897 C101 1.652 . S
C903 C44 1.680 . S
C917 C57 1.679 . S
C923 C108 1.646 . S
C937 C82 1.661 . S
C943 C70 1.677 . S
C957 C81 1.676 . S
C963 C75 1.657 . S
C977 C96 1.674 . S
C983 C49 1.660 . S
C997 C62 1.652 . S
C1003 C107 1.678 . S
C1017 C23 1.661 . S
C1023 C122 1.674 . S
C1037 C30 1.656 . S
C1043 C133 1.679 . S
C1057 C146 1.680 . S
C1063 C4 1.646 . S
C1077 C161 1.674 . S
C1083 C303 1.641 . S
C1097 C283 1.648 . S
C1103 C172 1.665 . S
C1117 C290 1.652 . S
C1123 C187 1.669 . S
C1137 C198 1.679 . S
C1143 C257 1.646 . S
C1157 C264 1.660 . S
C1163 C213 1.674 . S
C1177 C226 1.673 . S
C1183 C238 1.655 . S
C1197 C237 1.673 . S
C1203 C231 1.660 . S
C1217 C252 1.673 . S
C1223 C199 1.658 . S
C1237 C218 1.649 . S
C1243 C263 1.679 . S
C1257 C173 1.660 . S
C1263 C278 1.679 . S
C1277 C192 1.662 . S
C1283 C289 1.683 . S
C1297 C302 1.683 . S
C1303 C166 1.655 . S
C1317 C459 1.659 . S
C1323 C315 1.673 . S
C1337 C328 1.679 . S
C1343 C439 1.650 . S
C1357 C343 1.672 . S
C1363 C446 1.655 . S
C1377 C354 1.679 . S
C1383 C413 1.667 . S
C1397 C426 1.664 . S
C1403 C369 1.682 . S
C1417 C382 1.677 . S
C1423 C394 1.666 . S
C1437 C387 1.647 . S
C1443 C393 1.671 . S
C1457 C355 1.643 . S
C1463 C408 1.672 . S
C1477 C374 1.653 . S
C1483 C421 1.669 . S
C1497 C329 1.650 . S
C1503 C434 1.680 . S
C1517 C348 1.659 . S
C1523 C445 1.677 . S
C1537 C316 1.647 . S
C1543 C458 1.680 . S
C1557 C380 1.449 . S
C1563 C5 1.461 . S
C1577 C16 1.449 . S
C1583 C356 1.457 . S
C1597 C367 1.456 . S
C1603 C31 1.464 . S
C1617 C42 1.463 . S
C1623 C174 1.457 . S
C1637 C185 1.449 . S
C1643 C55 1.457 . S
C1657 C68 1.460 . S
C1663 C159 1.461 . S
C1677 C83 1.460 . S
C1683 C304 1.449 . S
C1697 C276 1.460 . S
C1703 C94 1.462 . S
C1717 C109 1.451 . S
C1723 C291 1.454 . S
C1737 C120 1.462 . S
C1743 C406 1.450 . S
C1757 C135 1.451 . S
C1763 C419 1.463 . S
C1777 C395 1.456 . S
C1783 C148 1.464 . S
C1797 C330 1.449 . S
C1803 C200 1.459 . S
C1817 C341 1.455 . S
C1823 C211 1.451 . S
C1837 C317 1.463 . S
C1843 C224 1.460 . S
C1857 C239 1.457 . S
C1863 C460 1.464 . S
C1877 C432 1.450 . S
C1883 C250 1.455 . S
C1897 C265 1.464 . S
C1903 C447 1.455 . S
