# Generated by pormake.
# Topology zft, (5)-cn, num edge types: 1
# Building blocks:
#     Node 0, Type 0, BuildingBlock: BEQFEK_clean_sbu_0, # of connection points: 5
#     Node 1, Type 0, BuildingBlock: BEQFEK_clean_sbu_0, # of connection points: 5
#     Node 2, Type 0, BuildingBlock: BEQFEK_clean_sbu_0, # of connection points: 5
#     Node 3, Type 0, BuildingBlock: BEQFEK_clean_sbu_0, # of connection points: 5
#     Node 4, Type 0, BuildingBlock: BEQFEK_clean_sbu_0, # of connection points: 5
#     Node 5, Type 0, BuildingBlock: BEQFEK_clean_sbu_0, # of connection points: 5
#     Node 6, Type 0, BuildingBlock: BEQFEK_clean_sbu_0, # of connection points: 5
#     Node 7, Type 0, BuildingBlock: BEQFEK_clean_sbu_0, # of connection points: 5
#     Edge 8, Type (0, 0), BuildingBlock: ZUJKAS_clean_linker_0, # of connection points: 2
#     Edge 9, Type (0, 0), BuildingBlock: ZUJKAS_clean_linker_0, # of connection points: 2
#     Edge 10, Type (0, 0), BuildingBlock: ZUJKAS_clean_linker_0, # of connection points: 2
#     Edge 11, Type (0, 0), BuildingBlock: ZUJKAS_clean_linker_0, # of connection points: 2
#     Edge 12, Type (0, 0), BuildingBlock: ZUJKAS_clean_linker_0, # of connection points: 2
#     Edge 13, Type (0, 0), BuildingBlock: ZUJKAS_clean_linker_0, # of connection points: 2
#     Edge 14, Type (0, 0), BuildingBlock: ZUJKAS_clean_linker_0, # of connection points: 2
#     Edge 15, Type (0, 0), BuildingBlock: ZUJKAS_clean_linker_0, # of connection points: 2
#     Edge 16, Type (0, 0), BuildingBlock: ZUJKAS_clean_linker_0, # of connection points: 2
#     Edge 17, Type (0, 0), BuildingBlock: ZUJKAS_clean_linker_0, # of connection points: 2
#     Edge 18, Type (0, 0), BuildingBlock: ZUJKAS_clean_linker_0, # of connection points: 2
#     Edge 19, Type (0, 0), BuildingBlock: ZUJKAS_clean_linker_0, # of connection points: 2
#     Edge 20, Type (0, 0), BuildingBlock: ZUJKAS_clean_linker_0, # of connection points: 2
#     Edge 21, Type (0, 0), BuildingBlock: ZUJKAS_clean_linker_0, # of connection points: 2
#     Edge 22, Type (0, 0), BuildingBlock: ZUJKAS_clean_linker_0, # of connection points: 2
#     Edge 23, Type (0, 0), BuildingBlock: ZUJKAS_clean_linker_0, # of connection points: 2
#     Edge 24, Type (0, 0), BuildingBlock: ZUJKAS_clean_linker_0, # of connection points: 2
#     Edge 25, Type (0, 0), BuildingBlock: ZUJKAS_clean_linker_0, # of connection points: 2
#     Edge 26, Type (0, 0), BuildingBlock: ZUJKAS_clean_linker_0, # of connection points: 2
#     Edge 27, Type (0, 0), BuildingBlock: ZUJKAS_clean_linker_0, # of connection points: 2
# Relax obj value: 0.057
# Max RMSD: 0.119
# Mean RMSD: 0.119
data_MOF--net-zft--node1-BEQFEK_clean_sbu_0--edge1-ZUJKAS_clean_linker_0
_symmetry_space_group_name_H-M    P1
_symmetry_Int_Tables_number       1
_symmetry_cell_setting            triclinic
loop_
_symmetry_equiv_pos_as_xyz
'x, y, z'
_cell_length_a     35.513113
_cell_length_b     35.527828
_cell_length_c     69.911518
_cell_angle_alpha  90.031648
_cell_angle_beta   90.012748
_cell_angle_gamma 89.996447
loop_
_atom_site_label
_atom_site_type_symbol
_atom_site_fract_x
_atom_site_fract_y
_atom_site_fract_z
_atom_type_partial_charge
Co0 Co 0.05983 0.27903 0.18739 0.0
Co1 Co 0.12628 0.32831 0.17153 0.0
C2 C 0.05019 0.32728 0.15274 0.0
O3 O 0.03669 0.30477 0.16514 0.0
O4 O 0.08433 0.33806 0.15354 0.0
C5 C 0.98622 0.26319 0.20252 0.0
O6 O 0.9775 0.29634 0.19547 0.0
C7 C 0.16856 0.39593 0.15876 0.0
C8 C 0.22695 0.37456 0.16002 0.0
C9 C 0.20578 0.40592 0.15525 0.0
N10 N 0.16793 0.36034 0.1654 0.0
N11 N 0.20297 0.3479 0.1662 0.0
C12 C 0.13416 0.41917 0.15498 0.0
H13 H 0.10845 0.40174 0.15486 0.0
H14 H 0.13094 0.44038 0.16651 0.0
H15 H 0.13695 0.43429 0.14116 0.0
C16 C 0.07781 0.32229 0.22263 0.0
N17 N 0.08337 0.31404 0.20403 0.0
N18 N 0.1109 0.33508 0.19736 0.0
C19 C 0.12361 0.35756 0.21149 0.0
C20 C 0.10306 0.3502 0.22798 0.0
C21 C 0.05031 0.30224 0.23524 0.0
H22 H 0.05142 0.27156 0.23238 0.0
H23 H 0.02146 0.31233 0.23197 0.0
H24 H 0.05632 0.30727 0.25061 0.0
O25 O 0.09663 0.24118 0.17827 0.0
O26 O 0.14384 0.27602 0.16741 0.0
H27 H 0.18058 0.37263 0.20522 0.0
H28 H 0.15753 0.40429 0.22182 0.0
C29 C 0.15363 0.38668 0.20888 0.0
H30 H 0.14582 0.40532 0.19684 0.0
H31 H 0.21047 0.3209 0.17065 0.0
O32 O 0.0197 0.25103 0.20082 0.0
C33 C 0.12904 0.24401 0.17061 0.0
Co34 Co 0.21565 0.55947 0.43706 0.0
Co35 Co 0.16547 0.62611 0.42247 0.0
C36 C 0.16637 0.55115 0.40261 0.0
O37 O 0.18956 0.5374 0.41463 0.0
O38 O 0.15495 0.58503 0.40399 0.0
C39 C 0.23355 0.48531 0.45094 0.0
O40 O 0.20076 0.47601 0.44363 0.0
C41 C 0.09706 0.66593 0.41053 0.0
C42 C 0.11473 0.72543 0.41295 0.0
C43 C 0.08478 0.70265 0.40772 0.0
N44 N 0.13253 0.66714 0.41721 0.0
N45 N 0.14286 0.70275 0.41872 0.0
C46 C 0.07761 0.63009 0.40512 0.0
H47 H 0.08874 0.62051 0.39112 0.0
H48 H 0.08397 0.60795 0.41584 0.0
H49 H 0.04679 0.63355 0.40371 0.0
C50 C 0.17279 0.57489 0.47276 0.0
N51 N 0.18084 0.58171 0.45424 0.0
N52 N 0.15932 0.60928 0.44803 0.0
C53 C 0.13661 0.62065 0.46236 0.0
C54 C 0.14438 0.59922 0.47847 0.0
C55 C 0.19101 0.54466 0.48443 0.0
H56 H 0.22207 0.54755 0.4836 0.0
H57 H 0.18327 0.51684 0.4784 0.0
H58 H 0.18197 0.5456 0.4996 0.0
O59 O 0.25282 0.59708 0.42811 0.0
O60 O 0.21735 0.64467 0.41825 0.0
H61 H 0.12399 0.67788 0.45539 0.0
H62 H 0.09634 0.65947 0.47487 0.0
C63 C 0.10927 0.65258 0.46086 0.0
H64 H 0.08677 0.64503 0.45055 0.0
H65 H 0.16937 0.71153 0.42337 0.0
O66 O 0.24466 0.51924 0.44987 0.0
C67 C 0.24956 0.62989 0.42098 0.0
Co68 Co 0.93505 0.71749 0.68719 0.0
Co69 Co 0.87002 0.66585 0.67201 0.0
C70 C 0.94556 0.66773 0.65299 0.0
O71 O 0.95847 0.69142 0.66501 0.0
O72 O 0.91187 0.65574 0.65412 0.0
C73 C 0.00796 0.73477 0.70282 0.0
O74 O 0.01679 0.70082 0.69687 0.0
C75 C 0.83172 0.59784 0.65847 0.0
C76 C 0.77184 0.61252 0.6627 0.0
C77 C 0.79534 0.58435 0.65592 0.0
N78 N 0.82968 0.63241 0.6662 0.0
N79 N 0.79383 0.64105 0.6687 0.0
C80 C 0.86799 0.57746 0.65506 0.0
H81 H 0.89007 0.5879 0.66496 0.0
H82 H 0.86434 0.54669 0.65706 0.0
H83 H 0.87746 0.58276 0.64018 0.0
C84 C 0.91819 0.67536 0.72299 0.0
N85 N 0.91251 0.68264 0.70429 0.0
N86 N 0.88575 0.6604 0.6978 0.0
C87 C 0.8739 0.63788 0.71209 0.0
C88 C 0.89397 0.6467 0.72856 0.0
C89 C 0.9446 0.69707 0.73551 0.0
H90 H 0.94323 0.72742 0.7319 0.0
H91 H 0.97377 0.68708 0.73297 0.0
H92 H 0.9377 0.69339 0.75087 0.0
O93 O 0.89718 0.75402 0.6778 0.0
O94 O 0.85107 0.71735 0.66725 0.0
H95 H 0.81721 0.62016 0.70716 0.0
H96 H 0.84384 0.58857 0.72231 0.0
C97 C 0.84526 0.60733 0.70967 0.0
H98 H 0.85255 0.59005 0.69702 0.0
H99 H 0.7844 0.66646 0.67443 0.0
O100 O 0.9747 0.74696 0.70024 0.0
C101 C 0.86491 0.74991 0.67014 0.0
Co102 Co 0.78032 0.43601 0.93727 0.0
Co103 Co 0.83254 0.3708 0.92251 0.0
C104 C 0.8292 0.44517 0.9025 0.0
O105 O 0.80516 0.45788 0.91439 0.0
O106 O 0.84229 0.41192 0.90402 0.0
C107 C 0.75824 0.51097 0.94815 0.0
O108 O 0.7856 0.5213 0.93666 0.0
C109 C 0.9001 0.33114 0.90908 0.0
C110 C 0.88625 0.27195 0.91573 0.0
C111 C 0.91372 0.29467 0.90773 0.0
N112 N 0.86599 0.33004 0.91738 0.0
N113 N 0.85786 0.29457 0.92129 0.0
C114 C 0.91996 0.36665 0.90361 0.0
H115 H 0.91249 0.37389 0.88866 0.0
H116 H 0.91103 0.3901 0.91306 0.0
H117 H 0.95095 0.36303 0.90451 0.0
C118 C 0.82431 0.42254 0.97263 0.0
N119 N 0.81632 0.41515 0.95418 0.0
N120 N 0.83858 0.38813 0.94801 0.0
C121 C 0.86172 0.37765 0.96234 0.0
C122 C 0.8534 0.39909 0.97841 0.0
C123 C 0.80509 0.4523 0.98422 0.0
H124 H 0.77448 0.44615 0.9849 0.0
H125 H 0.80864 0.47991 0.97705 0.0
H126 H 0.81668 0.4542 0.99891 0.0
O127 O 0.74379 0.39716 0.92897 0.0
O128 O 0.78087 0.35147 0.91829 0.0
H129 H 0.87482 0.31995 0.95696 0.0
H130 H 0.90483 0.34155 0.97457 0.0
C131 C 0.88968 0.34625 0.96091 0.0
H132 H 0.91032 0.35273 0.94948 0.0
H133 H 0.83285 0.28579 0.92776 0.0
O134 O 0.75146 0.47613 0.95047 0.0
C135 C 0.74817 0.36477 0.92148 0.0
Co136 Co 0.56151 0.21655 0.56042 0.0
Co137 Co 0.62798 0.16648 0.57548 0.0
C138 C 0.55268 0.1688 0.5952 0.0
O139 O 0.5389 0.19138 0.58292 0.0
O140 O 0.58662 0.15751 0.59401 0.0
C141 C 0.48733 0.23471 0.54673 0.0
O142 O 0.47768 0.20307 0.55512 0.0
C143 C 0.66778 0.097 0.58675 0.0
C144 C 0.72639 0.1175 0.58875 0.0
C145 C 0.70416 0.08591 0.59151 0.0
N146 N 0.66868 0.13341 0.58146 0.0
N147 N 0.70385 0.14534 0.58252 0.0
C148 C 0.63241 0.0743 0.58838 0.0
H149 H 0.60715 0.09236 0.58727 0.0
H150 H 0.63125 0.05361 0.57652 0.0
H151 H 0.63205 0.05862 0.60211 0.0
C152 C 0.57737 0.17313 0.52502 0.0
N153 N 0.58377 0.18106 0.54359 0.0
N154 N 0.61156 0.15987 0.54986 0.0
C155 C 0.62377 0.13779 0.53545 0.0
C156 C 0.60244 0.14539 0.51927 0.0
C157 C 0.54702 0.19107 0.5133 0.0
H158 H 0.51933 0.18485 0.51989 0.0
H159 H 0.54679 0.18056 0.49837 0.0
H160 H 0.5509 0.22206 0.51331 0.0
O161 O 0.59938 0.25382 0.56921 0.0
O162 O 0.64679 0.21828 0.57925 0.0
H163 H 0.66622 0.1021 0.52249 0.0
H164 H 0.64919 0.08713 0.54559 0.0
C165 C 0.65692 0.11191 0.5368 0.0
H166 H 0.68065 0.12657 0.5439 0.0
H167 H 0.71233 0.17281 0.57947 0.0
O168 O 0.52154 0.2452 0.54714 0.0
C169 C 0.63222 0.25049 0.57633 0.0
Co170 Co 0.28057 0.06345 0.81034 0.0
Co171 Co 0.33183 0.12832 0.82619 0.0
C172 C 0.32743 0.05345 0.8457 0.0
O173 O 0.30423 0.04079 0.83337 0.0
O174 O 0.34045 0.08676 0.84452 0.0
C175 C 0.26155 0.98946 0.79659 0.0
O176 O 0.29303 0.9794 0.80504 0.0
C177 C 0.40043 0.16649 0.83925 0.0
C178 C 0.38409 0.22639 0.83701 0.0
C179 C 0.41331 0.20289 0.84247 0.0
N180 N 0.36533 0.16858 0.83213 0.0
N181 N 0.3558 0.20442 0.83074 0.0
C182 C 0.41885 0.13012 0.84468 0.0
H183 H 0.40641 0.12018 0.85831 0.0
H184 H 0.413 0.10852 0.83359 0.0
H185 H 0.44957 0.13299 0.84678 0.0
C186 C 0.32601 0.07815 0.77551 0.0
N187 N 0.31725 0.08477 0.79395 0.0
N188 N 0.33896 0.11183 0.80058 0.0
C189 C 0.36248 0.12309 0.78658 0.0
C190 C 0.35506 0.10212 0.77025 0.0
C191 C 0.30758 0.0486 0.76346 0.0
H192 H 0.31307 0.02058 0.76985 0.0
H193 H 0.31836 0.04862 0.74858 0.0
H194 H 0.27667 0.05317 0.76337 0.0
O195 O 0.24379 0.10223 0.81839 0.0
O196 O 0.28008 0.14762 0.83009 0.0
H197 H 0.37524 0.18009 0.794 0.0
H198 H 0.40353 0.16184 0.77469 0.0
C199 C 0.38999 0.15479 0.78852 0.0
H200 H 0.41202 0.14687 0.79902 0.0
H201 H 0.32971 0.21386 0.82582 0.0
O202 O 0.2516 0.02382 0.79693 0.0
C203 C 0.24766 0.13432 0.82627 0.0
Co204 Co 0.43454 0.78012 0.06001 0.0
Co205 Co 0.36757 0.8274 0.07688 0.0
C206 C 0.44409 0.82667 0.09519 0.0
O207 O 0.45812 0.80555 0.08231 0.0
O208 O 0.40964 0.83654 0.09481 0.0
C209 C 0.50844 0.76343 0.0452 0.0
O210 O 0.51874 0.79364 0.0547 0.0
C211 C 0.32711 0.89261 0.09261 0.0
C212 C 0.26784 0.8778 0.0865 0.0
C213 C 0.29034 0.90539 0.09458 0.0
N214 N 0.32628 0.85923 0.08355 0.0
N215 N 0.2908 0.85051 0.07997 0.0
C216 C 0.36237 0.90984 0.10046 0.0
H217 H 0.37417 0.89091 0.11155 0.0
H218 H 0.38358 0.91236 0.08887 0.0
H219 H 0.35742 0.93766 0.10714 0.0
C220 C 0.41501 0.8244 0.02548 0.0
N221 N 0.41 0.81536 0.04401 0.0
N222 N 0.38253 0.83589 0.05113 0.0
C223 C 0.36947 0.85908 0.03739 0.0
C224 C 0.38952 0.85247 0.02065 0.0
C225 C 0.44207 0.80473 0.01245 0.0
H226 H 0.44028 0.7739 0.01473 0.0
H227 H 0.47115 0.81387 0.01594 0.0
H228 H 0.43619 0.81092 0.9972 0.0
O229 O 0.39849 0.74149 0.06918 0.0
O230 O 0.35054 0.77491 0.08042 0.0
H231 H 0.31204 0.87399 0.04244 0.0
H232 H 0.33774 0.9082 0.02843 0.0
C233 C 0.33961 0.88817 0.04055 0.0
H234 H 0.34595 0.90421 0.05375 0.0
H235 H 0.28226 0.82585 0.07312 0.0
O236 O 0.47417 0.75317 0.04557 0.0
C237 C 0.36609 0.74336 0.07694 0.0
Co238 Co 0.7176 0.93459 0.31079 0.0
Co239 Co 0.66519 0.87106 0.32675 0.0
C240 C 0.66711 0.94713 0.34476 0.0
O241 O 0.69107 0.95898 0.33261 0.0
O242 O 0.65475 0.91353 0.34415 0.0
C243 C 0.73298 0.00652 0.29404 0.0
O244 O 0.69846 0.01428 0.29952 0.0
C245 C 0.59791 0.83186 0.34093 0.0
C246 C 0.61274 0.77238 0.33558 0.0
C247 C 0.58475 0.79525 0.34307 0.0
N248 N 0.63211 0.83049 0.33272 0.0
N249 N 0.64082 0.79488 0.32957 0.0
C250 C 0.57742 0.86776 0.3451 0.0
H251 H 0.58709 0.89039 0.33534 0.0
H252 H 0.54657 0.86396 0.34346 0.0
H253 H 0.58351 0.87656 0.36001 0.0
C254 C 0.67695 0.91513 0.27496 0.0
N255 N 0.68329 0.91097 0.29384 0.0
N256 N 0.6598 0.88578 0.30074 0.0
C257 C 0.63677 0.87409 0.28661 0.0
C258 C 0.64702 0.89209 0.26969 0.0
C259 C 0.70112 0.93847 0.26204 0.0
H260 H 0.7308 0.93755 0.26692 0.0
H261 H 0.69131 0.9681 0.26249 0.0
H262 H 0.69975 0.92825 0.24705 0.0
O263 O 0.7541 0.89761 0.32072 0.0
O264 O 0.71701 0.8525 0.33194 0.0
H265 H 0.61457 0.8188 0.29086 0.0
H266 H 0.58339 0.8499 0.27783 0.0
C267 C 0.60411 0.84813 0.28966 0.0
H268 H 0.58957 0.85554 0.30313 0.0
H269 H 0.66597 0.78595 0.32333 0.0
O270 O 0.7465 0.97406 0.29736 0.0
C271 C 0.74972 0.86593 0.32891 0.0
H272 H 0.04801 0.38249 0.24953 0.0
H273 H 0.05517 0.41459 0.28045 0.0
H274 H 0.17414 0.3902 0.27988 0.0
H275 H 0.16698 0.35774 0.2491 0.0
H276 H 0.08686 0.38685 0.31642 0.0
H277 H 0.16592 0.50708 0.28521 0.0
H278 H 0.13843 0.47503 0.27081 0.0
H279 H 0.18402 0.46121 0.27943 0.0
C280 C 0.07557 0.38376 0.25614 0.0
C281 C 0.10705 0.36813 0.24694 0.0
C282 C 0.07963 0.40207 0.27372 0.0
C283 C 0.11525 0.40513 0.28226 0.0
C284 C 0.14654 0.3886 0.27334 0.0
H285 H 0.18191 0.47684 0.39561 0.0
H286 H 0.16628 0.44053 0.36697 0.0
C287 C 0.14245 0.3702 0.2558 0.0
C288 C 0.11993 0.42643 0.30027 0.0
H289 H 0.16168 0.5047 0.31898 0.0
C290 C 0.1031 0.41267 0.31703 0.0
C291 C 0.14075 0.46031 0.30088 0.0
C292 C 0.1581 0.47708 0.28312 0.0
C293 C 0.10726 0.43162 0.33454 0.0
C294 C 0.129 0.46494 0.33524 0.0
C295 C 0.14519 0.47902 0.31839 0.0
C296 C 0.13563 0.48573 0.35327 0.0
C297 C 0.0881 0.41613 0.3521 0.0
C298 C 0.1237 0.52319 0.35501 0.0
C299 C 0.1327 0.5441 0.3713 0.0
C300 C 0.1541 0.52798 0.38612 0.0
C301 C 0.16535 0.49012 0.38449 0.0
C302 C 0.15625 0.46923 0.36819 0.0
H303 H 0.06533 0.39599 0.34834 0.0
H304 H 0.10912 0.401 0.36098 0.0
H305 H 0.07594 0.43917 0.36089 0.0
H306 H 0.10793 0.53647 0.34358 0.0
H307 H 0.12374 0.57318 0.37199 0.0
H308 H 0.01996 0.68405 0.64634 0.0
H309 H 0.05689 0.66856 0.61777 0.0
H310 H 0.96184 0.60912 0.59417 0.0
H311 H 0.9247 0.62426 0.62252 0.0
H312 H 0.06783 0.58884 0.59835 0.0
H313 H 0.99434 0.69946 0.55602 0.0
H314 H 0.99733 0.70111 0.58181 0.0
H315 H 0.96569 0.66874 0.57043 0.0
C316 C 0.00701 0.66734 0.63517 0.0
C317 C 0.96926 0.65561 0.63668 0.0
C318 C 0.02818 0.65848 0.61891 0.0
C319 C 0.01187 0.63797 0.60391 0.0
C320 C 0.97475 0.62512 0.60562 0.0
H321 H 0.07037 0.59012 0.48664 0.0
H322 H 0.0395 0.59728 0.51782 0.0
C323 C 0.95363 0.63378 0.62186 0.0
C324 C 0.03277 0.63174 0.58595 0.0
H325 H 0.03659 0.66016 0.53943 0.0
C326 C 0.06125 0.60445 0.58545 0.0
C327 C 0.02382 0.65216 0.56924 0.0
C328 C 0.99379 0.68222 0.56927 0.0
C329 C 0.0806 0.59641 0.5684 0.0
C330 C 0.07165 0.61689 0.55162 0.0
C331 C 0.04334 0.64443 0.55228 0.0
C332 C 0.09093 0.61019 0.53314 0.0
C333 C 0.1096 0.56537 0.56838 0.0
C334 C 0.13003 0.6151 0.53141 0.0
C335 C 0.14762 0.61075 0.51366 0.0
C336 C 0.12627 0.6019 0.49738 0.0
C337 C 0.08726 0.59693 0.49908 0.0
C338 C 0.06972 0.601 0.51683 0.0
H339 H 0.10557 0.54579 0.5806 0.0
H340 H 0.1085 0.54895 0.55487 0.0
H341 H 0.13809 0.57793 0.56968 0.0
H342 H 0.14681 0.62316 0.54368 0.0
H343 H 0.17772 0.61518 0.51253 0.0
H344 H 0.88082 0.42847 0.87469 0.0
H345 H 0.89725 0.46604 0.84669 0.0
H346 H 0.81999 0.55263 0.86483 0.0
H347 H 0.80385 0.51561 0.89309 0.0
H348 H 0.84787 0.4875 0.81847 0.0
H349 H 0.91424 0.613 0.85161 0.0
H350 H 0.90685 0.56963 0.86454 0.0
H351 H 0.86854 0.60202 0.86107 0.0
C352 C 0.86768 0.45571 0.87291 0.0
C353 C 0.84101 0.46898 0.88618 0.0
C354 C 0.87711 0.47714 0.85688 0.0
C355 C 0.86019 0.5123 0.85381 0.0
C356 C 0.834 0.52593 0.86714 0.0
H357 H 0.82965 0.63574 0.74895 0.0
H358 H 0.82302 0.60353 0.77981 0.0
C359 C 0.82462 0.50457 0.88322 0.0
C360 C 0.86782 0.53331 0.83594 0.0
H361 H 0.89862 0.61765 0.81844 0.0
C362 C 0.85922 0.51584 0.81847 0.0
C363 C 0.88281 0.57023 0.83599 0.0
C364 C 0.894 0.58975 0.85429 0.0
C365 C 0.86439 0.53463 0.80104 0.0
C366 C 0.87827 0.57186 0.80114 0.0
C367 C 0.88769 0.58914 0.81853 0.0
C368 C 0.88266 0.5932 0.78319 0.0
C369 C 0.85495 0.5147 0.78259 0.0
C370 C 0.91845 0.59838 0.77516 0.0
C371 C 0.92223 0.61632 0.75747 0.0
C372 C 0.89027 0.62946 0.7477 0.0
C373 C 0.85461 0.62528 0.75609 0.0
C374 C 0.85082 0.60714 0.7737 0.0
H375 H 0.84965 0.48419 0.78479 0.0
H376 H 0.8293 0.52751 0.77626 0.0
H377 H 0.87823 0.51808 0.77213 0.0
H378 H 0.94329 0.5877 0.78234 0.0
H379 H 0.94999 0.61913 0.75121 0.0
H380 H 0.92703 0.40835 0.98775 0.0
H381 H 0.9561 0.40042 0.01941 0.0
H382 H 0.84724 0.37534 0.04359 0.0
H383 H 0.81814 0.38321 0.01192 0.0
H384 H 0.93375 0.43902 0.05674 0.0
H385 H 0.91979 0.2828 0.05574 0.0
H386 H 0.91884 0.31061 0.03412 0.0
H387 H 0.87882 0.31024 0.04975 0.0
C388 C 0.90943 0.4013 -0.00011 0.0
C389 C 0.87053 0.39622 0.99756 0.0
C390 C 0.92594 0.39692 0.01789 0.0
C391 C 0.90376 0.3871 0.03372 0.0
C392 C 0.86475 0.38273 0.03147 0.0
H393 H 0.97498 0.3139 0.14711 0.0
H394 H 0.93678 0.33184 0.11947 0.0
C395 C 0.84822 0.38733 0.01349 0.0
C396 C 0.92174 0.38026 0.05244 0.0
H397 H 0.94753 0.30998 0.08295 0.0
C398 C 0.93668 0.41088 0.06257 0.0
C399 C 0.92519 0.34353 0.05995 0.0
C400 C 0.91006 0.30974 0.04936 0.0
C401 C 0.95522 0.40567 0.08011 0.0
C402 C 0.9597 0.36876 0.08737 0.0
C403 C 0.94405 0.33825 0.07737 0.0
C404 C 0.982 0.36076 0.10483 0.0
C405 C 0.96948 0.43978 0.09074 0.0
C406 C 0.02008 0.37111 0.10579 0.0
C407 C 0.04193 0.36111 0.12159 0.0
C408 C 0.02626 0.34004 0.13665 0.0
C409 C 0.98796 0.33007 0.13576 0.0
C410 C 0.96607 0.34031 0.11997 0.0
H411 H 0.95352 0.4655 0.08673 0.0
H412 H 0.96744 0.43583 0.10646 0.0
H413 H -0.00054 0.44455 0.087 0.0
H414 H 0.03324 0.38604 0.09406 0.0
H415 H 0.07137 0.36911 0.12174 0.0
H416 H 0.59845 0.07127 0.51012 0.0
H417 H 0.60609 0.04266 0.47834 0.0
H418 H 0.62326 0.15265 0.45379 0.0
H419 H 0.61559 0.18135 0.48558 0.0
H420 H 0.56152 0.06833 0.44106 0.0
H421 H 0.71816 0.07933 0.44013 0.0
H422 H 0.69202 0.07686 0.46227 0.0
H423 H 0.69079 0.119 0.44822 0.0
C424 C 0.60379 0.08921 0.49789 0.0
C425 C 0.60635 0.12837 0.50013 0.0
C426 C 0.60801 0.07295 0.47982 0.0
C427 C 0.61523 0.09564 0.46383 0.0
C428 C 0.61769 0.1348 0.46602 0.0
H429 H 0.68304 0.02203 0.34976 0.0
H430 H 0.66701 0.06148 0.37728 0.0
C431 C 0.61323 0.15109 0.48408 0.0
C432 C 0.62082 0.07813 0.44491 0.0
H433 H 0.68921 0.05061 0.41368 0.0
C434 C 0.58936 0.06458 0.43496 0.0
C435 C 0.65715 0.07376 0.43704 0.0
C436 C 0.69166 0.08781 0.44739 0.0
C437 C 0.59335 0.04624 0.41729 0.0
C438 C 0.62988 0.04051 0.40971 0.0
C439 C 0.66124 0.05499 0.4195 0.0
C440 C 0.63653 0.01775 0.39226 0.0
C441 C 0.5584 0.03342 0.40688 0.0
C442 C 0.62461 0.98013 0.39151 0.0
C443 C 0.6335 0.95761 0.37579 0.0
C444 C 0.655 0.97209 0.36058 0.0
C445 C 0.66646 0.00997 0.36122 0.0
C446 C 0.65734 0.03257 0.37694 0.0
H447 H 0.53351 0.05053 0.41102 0.0
H448 H 0.56206 0.03518 0.39113 0.0
H449 H 0.55239 0.00373 0.41072 0.0
H450 H 0.60942 0.96778 0.40338 0.0
H451 H 0.62447 0.9285 0.37587 0.0
H452 H 0.42927 0.09396 0.76189 0.0
H453 H 0.45975 0.10173 0.73056 0.0
H454 H 0.35192 0.12611 0.70502 0.0
H455 H 0.32141 0.11837 0.73633 0.0
H456 H 0.43819 0.06175 0.69324 0.0
H457 H 0.42564 0.21807 0.69284 0.0
H458 H 0.42415 0.19096 0.71469 0.0
H459 H 0.38433 0.19122 0.69891 0.0
C460 C 0.41221 0.10087 0.74953 0.0
C461 C 0.37316 0.10559 0.75136 0.0
C462 C 0.42953 0.10518 0.73172 0.0
C463 C 0.40802 0.11464 0.71559 0.0
C464 C 0.36892 0.11897 0.71737 0.0
H465 H 0.47783 0.18281 0.60147 0.0
H466 H 0.4407 0.16634 0.62969 0.0
C467 C 0.35157 0.11443 0.73515 0.0
C468 C 0.42667 0.12075 0.69698 0.0
H469 H 0.45298 0.18968 0.66582 0.0
C470 C 0.44141 0.08965 0.68716 0.0
C471 C 0.43049 0.15717 0.68915 0.0
C472 C 0.41556 0.19144 0.69941 0.0
C473 C 0.45994 0.09405 0.66956 0.0
C474 C 0.46461 0.13065 0.66192 0.0
C475 C 0.44935 0.16166 0.67168 0.0
C476 C 0.48633 0.13776 0.64418 0.0
C477 C 0.47383 0.05944 0.65923 0.0
C478 C 0.52428 0.12706 0.64293 0.0
C479 C 0.54553 0.13618 0.62678 0.0
C480 C 0.52937 0.15673 0.61166 0.0
C481 C 0.49119 0.16703 0.61285 0.0
C482 C 0.46991 0.15765 0.62897 0.0
H483 H 0.45793 0.03394 0.66363 0.0
H484 H 0.47137 0.0627 0.64348 0.0
H485 H 0.5039 0.05476 0.66282 0.0
H486 H 0.53782 0.11254 0.65468 0.0
H487 H 0.57489 0.12797 0.62639 0.0
H488 H 0.32412 0.86084 0.00084 0.0
H489 H 0.31518 0.89194 0.96985 0.0
H490 H 0.4342 0.91558 0.9671 0.0
H491 H 0.44315 0.88476 0.99818 0.0
H492 H 0.33309 0.9674 0.96102 0.0
H493 H 0.41065 0.86663 0.91473 0.0
H494 H 0.39503 0.85481 0.93857 0.0
H495 H 0.4364 0.88314 0.93522 0.0
C496 C 0.3483 0.87276 0.99359 0.0
C497 C 0.38429 0.87055 0.00181 0.0
C498 C 0.34321 0.89031 0.97591 0.0
C499 C 0.3741 0.90559 0.96611 0.0
C500 C 0.41013 0.9033 0.97428 0.0
H501 H 0.36963 0.07364 0.87681 0.0
H502 H 0.38207 0.03656 0.90549 0.0
C503 C 0.41519 0.88583 0.992 0.0
C504 C 0.36829 0.9255 0.94777 0.0
H505 H 0.39142 0.92416 0.90035 0.0
C506 C 0.34574 0.95791 0.94774 0.0
C507 C 0.38456 0.91278 0.93047 0.0
C508 C 0.40776 0.87725 0.92961 0.0
C509 C 0.33952 0.97838 0.93089 0.0
C510 C 0.35668 0.96629 0.9137 0.0
C511 C 0.37865 0.93348 0.91363 0.0
C512 C 0.35176 0.98743 0.89567 0.0
C513 C 0.31434 0.01258 0.93156 0.0
C514 C 0.33167 0.97153 0.8804 0.0
C515 C 0.32457 0.9926 0.86391 0.0
C516 C 0.33768 0.02987 0.86238 0.0
C517 C 0.35907 0.04509 0.87746 0.0
C518 C 0.36606 0.02404 0.89394 0.0
H519 H 0.29676 0.01314 0.94471 0.0
H520 H 0.33199 0.03835 0.93142 0.0
H521 H 0.29551 0.01348 0.91889 0.0
H522 H 0.32058 0.9432 0.88148 0.0
H523 H 0.30817 0.97993 0.85254 0.0
H524 H 0.63077 0.9473 0.24372 0.0
H525 H 0.60228 0.94002 0.21215 0.0
H526 H 0.59294 0.82027 0.22145 0.0
H527 H 0.62532 0.82702 0.25205 0.0
H528 H 0.61088 0.83075 0.18688 0.0
H529 H 0.4941 0.9295 0.20218 0.0
H530 H 0.53898 0.95233 0.20346 0.0
H531 H 0.5274 0.91558 0.22025 0.0
C532 C 0.62329 0.91935 0.23886 0.0
C533 C 0.62987 0.88776 0.25047 0.0
C534 C 0.6063 0.9153 0.22094 0.0
C535 C 0.59421 0.87976 0.2146 0.0
C536 C 0.60157 0.84809 0.22605 0.0
H537 H 0.42067 0.83864 0.1316 0.0
H538 H 0.45927 0.85228 0.15959 0.0
C539 C 0.61963 0.85201 0.24368 0.0
C540 C 0.57391 0.87527 0.19612 0.0
H541 H 0.49883 0.90726 0.17034 0.0
C542 C 0.58624 0.84737 0.18332 0.0
C543 C 0.54148 0.89665 0.1915 0.0
C544 C 0.52448 0.92487 0.20516 0.0
C545 C 0.56672 0.83967 0.1663 0.0
C546 C 0.53505 0.86192 0.16138 0.0
C547 C 0.52326 0.89039 0.17398 0.0
C548 C 0.51199 0.85454 0.144 0.0
C549 C 0.57937 0.8066 0.15433 0.0
C550 C 0.52849 0.85178 0.12577 0.0
C551 C 0.5065 0.84277 0.1098 0.0
C552 C 0.46743 0.83787 0.11168 0.0
C553 C 0.45072 0.8424 0.12973 0.0
C554 C 0.47281 0.85024 0.14574 0.0
H555 H 0.59603 0.78618 0.16288 0.0
H556 H 0.55499 0.7915 0.14801 0.0
H557 H 0.59765 0.81683 0.14257 0.0
H558 H 0.55838 0.85635 0.12387 0.0
H559 H 0.51996 0.83989 0.09597 0.0
H560 H 0.31688 0.97681 0.08917 0.0
H561 H 0.29348 0.03494 0.10384 0.0
H562 H 0.20697 0.97174 0.13288 0.0
H563 H 0.2312 0.91341 0.11879 0.0
H564 H 0.22316 0.06638 0.10026 0.0
H565 H 0.2525 0.03332 0.17634 0.0
H566 H 0.27299 0.00699 0.15686 0.0
H567 H 0.22541 0.99781 0.16432 0.0
C568 C 0.29356 0.97526 0.09911 0.0
C569 C 0.27662 0.94056 0.10341 0.0
C570 C 0.27997 0.00847 0.10731 0.0
C571 C 0.24909 0.00751 0.11982 0.0
C572 C 0.23152 0.97296 0.12371 0.0
H573 H 0.10683 0.17078 0.17531 0.0
H574 H 0.13798 0.11418 0.16325 0.0
C575 C 0.24515 0.93976 0.11555 0.0
C576 C 0.2341 0.04286 0.12809 0.0
H577 H 0.21319 0.08644 0.17032 0.0
C578 C 0.22129 0.07094 0.11557 0.0
C579 C 0.23172 0.04867 0.14807 0.0
C580 C 0.24671 0.02027 0.1622 0.0
C581 C 0.20517 0.10431 0.12251 0.0
C582 C 0.20228 0.10985 0.14248 0.0
C583 C 0.21543 0.08198 0.15501 0.0
C584 C 0.18479 0.14409 0.1506 0.0
C585 C 0.19038 0.13291 0.10843 0.0
C586 C 0.20132 0.1795 0.14782 0.0
C587 C 0.18365 0.21194 0.1547 0.0
C588 C 0.14912 0.20948 0.1645 0.0
C589 C 0.13327 0.17375 0.16775 0.0
C590 C 0.15103 0.14135 0.1609 0.0
H591 H 0.18751 0.12095 0.09381 0.0
H592 H 0.16255 0.14385 0.11308 0.0
H593 H 0.2102 0.15701 0.10769 0.0
H594 H 0.22771 0.18207 0.14017 0.0
H595 H 0.19677 0.23896 0.15204 0.0
H596 H 0.5451 0.82508 0.37333 0.0
H597 H 0.48658 0.80145 0.38716 0.0
H598 H 0.4868 0.70929 0.34698 0.0
H599 H 0.54441 0.73382 0.33244 0.0
H600 H 0.41703 0.7418 0.3507 0.0
H601 H 0.47858 0.71019 0.42192 0.0
H602 H 0.48414 0.7582 0.41444 0.0
H603 H 0.50718 0.72121 0.40135 0.0
C604 C 0.53224 0.80037 0.36709 0.0
C605 C 0.54896 0.7818 0.35149 0.0
C606 C 0.49914 0.78648 0.37527 0.0
C607 C 0.48259 0.75339 0.36824 0.0
C608 C 0.49914 0.73487 0.35263 0.0
H609 H 0.32211 0.60408 0.42034 0.0
H610 H 0.3777 0.63634 0.40798 0.0
C611 C 0.53211 0.74884 0.34439 0.0
C612 C 0.44804 0.73786 0.37708 0.0
H613 H 0.41273 0.70197 0.41867 0.0
C614 C 0.41601 0.73315 0.36557 0.0
C615 C 0.44702 0.72623 0.39643 0.0
C616 C 0.48114 0.72884 0.40924 0.0
C617 C 0.38296 0.71698 0.37285 0.0
C618 C 0.3817 0.70598 0.39229 0.0
C619 C 0.41369 0.71079 0.40382 0.0
C620 C 0.34811 0.68759 0.40066 0.0
C621 C 0.35014 0.71073 0.35949 0.0
C622 C 0.3132 0.70606 0.40104 0.0
C623 C 0.28125 0.68761 0.40799 0.0
C624 C 0.28376 0.65047 0.41487 0.0
C625 C 0.31911 0.63261 0.41511 0.0
C626 C 0.35095 0.65101 0.40806 0.0
H627 H 0.35885 0.71203 0.34424 0.0
H628 H 0.33668 0.68301 0.36217 0.0
H629 H 0.32875 0.73299 0.36192 0.0
H630 H 0.31059 0.73462 0.3958 0.0
H631 H 0.25454 0.70232 0.40776 0.0
H632 H 0.6808 0.01373 0.5831 0.0
H633 H 0.70225 0.95527 0.59792 0.0
H634 H 0.78134 0.01788 0.63228 0.0
H635 H 0.75884 0.07658 0.61817 0.0
H636 H 0.77301 0.9247 0.59762 0.0
H637 H 0.72893 0.95347 0.67223 0.0
H638 H 0.71198 0.98067 0.65219 0.0
H639 H 0.75758 0.99022 0.66233 0.0
C640 C 0.7019 0.01525 0.59421 0.0
C641 C 0.71725 0.04996 0.5999 0.0
C642 C 0.71449 0.98172 0.6025 0.0
C643 C 0.74269 0.98234 0.61655 0.0
C644 C 0.75876 0.01685 0.62187 0.0
H645 H 0.88361 0.82401 0.67523 0.0
H646 H 0.85111 0.87919 0.66242 0.0
C647 C 0.74614 0.05033 0.61364 0.0
C648 C 0.75665 0.94683 0.62507 0.0
H649 H 0.77217 0.90258 0.6677 0.0
C650 C 0.77242 0.91962 0.61291 0.0
C651 C 0.75576 0.94031 0.64503 0.0
C652 C 0.73731 0.96754 0.65869 0.0
C653 C 0.78859 0.88663 0.62026 0.0
C654 C 0.7886 0.88065 0.64025 0.0
C655 C 0.7722 0.90745 0.65238 0.0
C656 C 0.8067 0.84725 0.64883 0.0
C657 C 0.80665 0.85897 0.60668 0.0
C658 C 0.79192 0.81118 0.64574 0.0
C659 C 0.81032 0.77956 0.65307 0.0
C660 C 0.84388 0.78352 0.6636 0.0
C661 C 0.85796 0.8199 0.66711 0.0
C662 C 0.83943 0.85148 0.65984 0.0
H663 H 0.81027 0.87096 0.59212 0.0
H664 H 0.8346 0.84997 0.61213 0.0
H665 H 0.78861 0.83357 0.60552 0.0
H666 H 0.76637 0.80748 0.63748 0.0
H667 H 0.79859 0.752 0.65016 0.0
H668 H 0.42216 0.25529 0.87022 0.0
H669 H 0.48112 0.27825 0.88415 0.0
H670 H 0.54383 0.20211 0.84812 0.0
H671 H 0.48499 0.18047 0.83348 0.0
H672 H 0.53614 0.24009 0.90398 0.0
H673 H 0.59419 0.3022 0.8373 0.0
H674 H 0.54581 0.28726 0.83932 0.0
H675 H 0.58247 0.25319 0.83543 0.0
C676 C 0.44858 0.24351 0.86529 0.0
C677 C 0.44905 0.21547 0.85113 0.0
C678 C 0.48217 0.25652 0.87328 0.0
C679 C 0.51685 0.24202 0.86711 0.0
C680 C 0.5174 0.21394 0.85297 0.0
H681 H 0.74636 0.29991 0.90033 0.0
H682 H 0.69082 0.26694 0.88818 0.0
C683 C 0.48376 0.20107 0.84488 0.0
C684 C 0.55229 0.25658 0.87549 0.0
H685 H 0.63382 0.30267 0.86449 0.0
C686 C 0.55752 0.25374 0.89535 0.0
C687 C 0.58013 0.27438 0.86418 0.0
C688 C 0.57534 0.27981 0.8429 0.0
C689 C 0.58985 0.2683 0.90421 0.0
C690 C 0.61743 0.28636 0.89293 0.0
C691 C 0.61258 0.28863 0.87305 0.0
C692 C 0.65081 0.30459 0.90151 0.0
C693 C 0.59439 0.26418 0.92556 0.0
C694 C 0.64657 0.33659 0.91306 0.0
C695 C 0.67819 0.35566 0.91995 0.0
C696 C 0.71465 0.34302 0.9154 0.0
C697 C 0.71872 0.31038 0.90416 0.0
C698 C 0.68706 0.2915 0.89717 0.0
H699 H 0.57538 0.24225 0.93148 0.0
H700 H 0.62392 0.25691 0.92928 0.0
H701 H 0.58748 0.29135 0.93257 0.0
H702 H 0.61878 0.3474 0.91633 0.0
H703 H 0.67402 0.38067 0.92856 0.0
H704 H 0.60772 0.32356 0.57591 0.0
H705 H 0.64068 0.37903 0.58794 0.0
H706 H 0.737 0.31053 0.60207 0.0
H707 H 0.70405 0.25467 0.5904 0.0
H708 H 0.71546 0.35566 0.63161 0.0
H709 H 0.72669 0.43928 0.565 0.0
H710 H 0.67936 0.42459 0.57001 0.0
H711 H 0.71488 0.38985 0.56497 0.0
C712 C 0.63609 0.32029 0.58136 0.0
C713 C 0.65321 0.28462 0.5822 0.0
C714 C 0.65497 0.35211 0.58813 0.0
C715 C 0.69147 0.34897 0.59565 0.0
C716 C 0.70889 0.31356 0.59623 0.0
H717 H 0.82685 0.54487 0.62613 0.0
H718 H 0.80469 0.48584 0.61221 0.0
C719 C 0.69 0.28168 0.58954 0.0
C720 C 0.71046 0.38223 0.60403 0.0
H721 H 0.73775 0.4723 0.59432 0.0
C722 C 0.72067 0.38106 0.62342 0.0
C723 C 0.7177 0.41512 0.59325 0.0
C724 C 0.70945 0.41725 0.57211 0.0
C725 C 0.73686 0.41234 0.63249 0.0
C726 C 0.74224 0.44589 0.62196 0.0
C727 C 0.73318 0.44667 0.60242 0.0
C728 C 0.75659 0.48073 0.63102 0.0
C729 C 0.7482 0.40908 0.65322 0.0
C730 C 0.73672 0.49761 0.64611 0.0
C731 C 0.74968 0.53104 0.6543 0.0
C732 C 0.78274 0.54822 0.64755 0.0
C733 C 0.80222 0.5316 0.63222 0.0
C734 C 0.78929 0.4981 0.62406 0.0
H735 H 0.75262 0.37927 0.65746 0.0
H736 H 0.77443 0.42509 0.65616 0.0
H737 H 0.72545 0.42076 0.66234 0.0
H738 H 0.71085 0.48521 0.65136 0.0
H739 H 0.7338 0.54348 0.66592 0.0
H740 H 0.1759 0.12655 0.81272 0.0
H741 H 0.11919 0.1585 0.82412 0.0
H742 H 0.18577 0.21983 0.86532 0.0
H743 H 0.24268 0.18933 0.8534 0.0
H744 H 0.0881 0.15392 0.85747 0.0
H745 H 0.12309 0.30352 0.84524 0.0
H746 H 0.15079 0.26576 0.83527 0.0
H747 H 0.15829 0.28096 0.85958 0.0
C748 C 0.1785 0.14732 0.824 0.0
C749 C 0.21375 0.15553 0.83212 0.0
C750 C 0.14608 0.16554 0.83051 0.0
C751 C 0.1482 0.19202 0.8454 0.0
C752 C 0.18346 0.20042 0.85343 0.0
H753 H 0.96225 0.2424 0.92163 0.0
H754 H 0.01952 0.21838 0.90638 0.0
C755 C 0.21599 0.18273 0.84669 0.0
C756 C 0.11327 0.20856 0.8535 0.0
H757 H 0.07232 0.29132 0.86708 0.0
C758 C 0.08452 0.18402 0.85937 0.0
C759 C 0.10827 0.24785 0.85576 0.0
C760 C 0.13661 0.27602 0.84843 0.0
C761 C 0.05133 0.19752 0.86778 0.0
C762 C 0.04734 0.23663 0.87111 0.0
C763 C 0.07566 0.26129 0.86483 0.0
C764 C 0.01381 0.25252 0.88087 0.0
C765 C 0.02066 0.16969 0.87264 0.0
C766 C 0.99254 0.28095 0.87204 0.0
C767 C 0.96041 0.29533 0.88096 0.0
C768 C 0.94897 0.28143 0.89884 0.0
C769 C 0.97047 0.25339 0.90779 0.0
C770 C 0.00296 0.23948 0.89902 0.0
H771 H 0.02281 0.14384 0.86374 0.0
H772 H 0.02352 0.16113 0.88783 0.0
H773 H 0.99226 0.1821 0.87054 0.0
H774 H 0.00036 0.29148 0.85805 0.0
H775 H 0.94389 0.31644 0.8736 0.0
H776 H 0.30057 0.73644 0.09727 0.0
H777 H 0.27238 0.67871 0.10973 0.0
H778 H 0.35976 0.61315 0.08281 0.0
H779 H 0.38863 0.67071 0.07055 0.0
H780 H 0.24535 0.61451 0.0916 0.0
H781 H 0.36662 0.58074 0.1387 0.0
H782 H 0.36105 0.62605 0.12739 0.0
H783 H 0.37899 0.58673 0.11399 0.0
C784 C 0.31375 0.70975 0.0939 0.0
C785 C 0.34712 0.70826 0.08307 0.0
C786 C 0.29757 0.6768 0.10104 0.0
C787 C 0.31443 0.64179 0.09751 0.0
C788 C 0.34683 0.64001 0.08607 0.0
H789 H 0.26442 0.41245 0.13059 0.0
H790 H 0.28987 0.46993 0.11628 0.0
C791 C 0.36315 0.67294 0.07899 0.0
C792 C 0.29841 0.6072 0.10605 0.0
H793 H 0.31887 0.53435 0.13614 0.0
C794 C 0.26133 0.59703 0.10139 0.0
C795 C 0.31933 0.5846 0.11889 0.0
C796 C 0.35857 0.59519 0.12521 0.0
C797 C 0.24484 0.56436 0.10896 0.0
C798 C 0.26592 0.54164 0.12164 0.0
C799 C 0.30292 0.55184 0.12633 0.0
C800 C 0.25011 0.50704 0.1302 0.0
C801 C 0.2053 0.55401 0.10307 0.0
C802 C 0.21984 0.50906 0.14304 0.0
C803 C 0.20538 0.47632 0.15131 0.0
C804 C 0.22085 0.441 0.14678 0.0
C805 C 0.25172 0.43923 0.13424 0.0
C806 C 0.26622 0.47197 0.12602 0.0
H807 H 0.19608 0.5697 0.09015 0.0
H808 H 0.20311 0.52335 0.10015 0.0
H809 H 0.18565 0.56086 0.11491 0.0
H810 H 0.20775 0.53603 0.14686 0.0
H811 H 0.18276 0.4789 0.16156 0.0
H812 H 0.75172 0.80232 0.35108 0.0
H813 H 0.80731 0.77182 0.3648 0.0
H814 H 0.87898 0.85186 0.33613 0.0
H815 H 0.82377 0.88295 0.32263 0.0
H816 H 0.87048 0.73895 0.34801 0.0
H817 H 0.91034 0.86262 0.392 0.0
H818 H 0.86496 0.85848 0.38057 0.0
H819 H 0.9054 0.8734 0.36705 0.0
C820 C 0.77932 0.81336 0.34762 0.0
C821 C 0.78326 0.84537 0.33593 0.0
C822 C 0.81102 0.79588 0.35547 0.0
C823 C 0.84715 0.81011 0.3518 0.0
C824 C 0.85127 0.84104 0.33952 0.0
H825 H 0.07593 0.7558 0.38038 0.0
H826 H 0.01687 0.78006 0.3671 0.0
C827 C 0.81965 0.85864 0.33174 0.0
C828 C 0.8806 0.79301 0.36097 0.0
H829 H 0.9558 0.81354 0.38956 0.0
C830 C 0.88899 0.75511 0.35722 0.0
C831 C 0.90449 0.81415 0.37311 0.0
C832 C 0.8957 0.8543 0.3786 0.0
C833 C 0.92147 0.73814 0.36478 0.0
C834 C 0.94584 0.75965 0.37644 0.0
C835 C 0.93708 0.79729 0.38048 0.0
C836 C 0.98122 0.74399 0.38421 0.0
C837 C 0.93014 0.69773 0.35984 0.0
C838 C 0.98053 0.71612 0.39841 0.0
C839 C 0.01421 0.70241 0.40609 0.0
C840 C 0.04897 0.71613 0.39951 0.0
C841 C 0.04948 0.74445 0.38551 0.0
C842 C 0.01587 0.75825 0.37791 0.0
H843 H 0.91185 0.68697 0.34816 0.0
H844 H 0.96005 0.69474 0.35545 0.0
H845 H 0.92569 0.67989 0.37267 0.0
H846 H 0.95397 0.70551 0.40378 0.0
H847 H 0.01301 0.68186 0.4175 0.0
H848 H 0.71257 0.07801 0.2836 0.0
H849 H 0.75101 0.12462 0.26669 0.0
H850 H 0.84358 0.04613 0.26499 0.0
H851 H 0.80541 -0.00068 0.28155 0.0
H852 H 0.81958 0.15612 0.27771 0.0
H853 H 0.83436 0.07877 0.2093 0.0
H854 H 0.7997 0.06629 0.22709 0.0
H855 H 0.84779 0.05111 0.22965 0.0
C856 C 0.74105 0.07062 0.27953 0.0
C857 C 0.75588 0.0349 0.28384 0.0
C858 C 0.76295 0.09728 0.26989 0.0
C859 C 0.79988 0.08856 0.26431 0.0
C860 C 0.81484 0.0531 0.26878 0.0
H861 H 0.9951 0.19276 0.21738 0.0
H862 H 0.94728 0.15309 0.23228 0.0
C863 C 0.79303 0.02646 0.27836 0.0
C864 C 0.82343 0.11677 0.25435 0.0
H865 H 0.87724 0.12976 0.21446 0.0
C866 C 0.83181 0.15067 0.26376 0.0
C867 C 0.83916 0.10956 0.23613 0.0
C868 C 0.82952 0.07462 0.22486 0.0
C869 C 0.85695 0.17682 0.25579 0.0
C870 C 0.87372 0.16889 0.23791 0.0
C871 C 0.86445 0.13557 0.22824 0.0
C872 C 0.90243 0.19386 0.22937 0.0
C873 C 0.86658 0.212 0.26685 0.0
C874 C 0.89291 0.22992 0.22279 0.0
C875 C 0.92021 0.25274 0.2142 0.0
C876 C 0.95739 0.23975 0.21206 0.0
C877 C 0.96675 0.20366 0.21881 0.0
C878 C 0.93948 0.1809 0.22731 0.0
H879 H 0.85613 0.21087 0.28182 0.0
H880 H 0.89753 0.21647 0.26709 0.0
H881 H 0.85357 0.23668 0.25972 0.0
H882 H 0.8643 0.24018 0.22405 0.0
H883 H 0.91208 0.28036 0.20912 0.0
H884 H 0.49739 0.30359 0.53026 0.0
H885 H 0.45059 0.342 0.51376 0.0
H886 H 0.3667 0.25618 0.52312 0.0
H887 H 0.41322 0.21779 0.54007 0.0
H888 H 0.41002 0.32589 0.48142 0.0
H889 H 0.31432 0.35012 0.54313 0.0
H890 H 0.36118 0.33128 0.54594 0.0
H891 H 0.32349 0.30151 0.53783 0.0
C892 C 0.46896 0.29289 0.5289 0.0
C893 C 0.45896 0.25772 0.53659 0.0
C894 C 0.44226 0.31488 0.51944 0.0
C895 C 0.40506 0.30219 0.51746 0.0
C896 C 0.39506 0.26687 0.52486 0.0
H897 H 0.21563 0.41226 0.45963 0.0
H898 H 0.25593 0.36532 0.47523 0.0
C899 C 0.42173 0.24489 0.53445 0.0
C900 C 0.37717 0.32589 0.50732 0.0
H901 H 0.29492 0.37441 0.51322 0.0
C902 C 0.38481 0.3364 0.48836 0.0
C903 C 0.34425 0.3395 0.51641 0.0
C904 C 0.33535 0.33035 0.537 0.0
C905 C 0.36062 0.36049 0.4783 0.0
C906 C 0.32814 0.37457 0.4875 0.0
C907 C 0.31989 0.36338 0.50626 0.0
C908 C 0.30363 0.40271 0.4782 0.0
C909 C 0.37002 0.37096 0.45794 0.0
C910 C 0.3171 0.43923 0.475 0.0
C911 C 0.29421 0.46608 0.46624 0.0
C912 C 0.25742 0.45682 0.46046 0.0
C913 C 0.24389 0.4202 0.46383 0.0
C914 C 0.26679 0.39339 0.47275 0.0
H915 H 0.39114 0.35154 0.4516 0.0
H916 H 0.34432 0.37075 0.4489 0.0
H917 H 0.38186 0.39986 0.45767 0.0
H918 H 0.34534 0.44699 0.47934 0.0
H919 H 0.30548 0.49403 0.4639 0.0
H920 H -0.00046 0.80744 0.71474 0.0
H921 H 0.04591 0.84712 0.73077 0.0
H922 H 0.126 0.75588 0.72974 0.0
H923 H 0.07994 0.71606 0.71329 0.0
H924 H 0.08054 0.83617 0.76545 0.0
H925 H 0.18643 0.84245 0.70699 0.0
H926 H 0.13911 0.82544 0.70325 0.0
H927 H 0.17371 0.79576 0.71441 0.0
C928 C 0.02706 0.79578 0.71783 0.0
C929 C 0.03612 0.75862 0.71264 0.0
C930 C 0.05351 0.81852 0.72701 0.0
C931 C 0.08955 0.80463 0.7312 0.0
C932 C 0.09862 0.76742 0.72626 0.0
H933 H 0.27656 0.9147 0.79068 0.0
H934 H 0.23581 0.86796 0.77525 0.0
C935 C 0.07218 0.74464 0.71697 0.0
C936 C 0.11711 0.82909 0.74114 0.0
H937 H 0.20274 0.87184 0.73622 0.0
C938 C 0.10728 0.84391 0.75907 0.0
C939 C 0.15202 0.83906 0.73279 0.0
C940 C 0.16344 0.82516 0.71323 0.0
C941 C 0.1313 0.86866 0.76883 0.0
C942 C 0.16586 0.87908 0.76035 0.0
C943 C 0.17617 0.86367 0.74264 0.0
C944 C 0.19083 0.90729 0.76932 0.0
C945 C 0.11955 0.88356 0.78815 0.0
C946 C 0.17915 0.94486 0.77077 0.0
C947 C 0.20231 0.9716 0.77946 0.0
C948 C 0.23761 0.9612 0.7869 0.0
C949 C 0.24947 0.92357 0.78518 0.0
C950 C 0.2263 0.89685 0.77636 0.0
H951 H 0.09664 0.86644 0.79457 0.0
H952 H 0.14384 0.88407 0.79816 0.0
H953 H 0.10915 0.91284 0.78652 0.0
H954 H 0.15204 0.95349 0.76517 0.0
H955 H 0.19237 0.00035 0.78048 0.0
H956 H 0.76073 0.5875 0.94402 0.0
H957 H 0.72224 0.63448 0.96059 0.0
H958 H 0.66576 0.54617 0.99165 0.0
H959 H 0.70417 0.49902 0.97529 0.0
H960 H 0.64236 0.63955 0.96051 0.0
H961 H 0.69964 0.6206 0.03374 0.0
H962 H 0.72374 0.60382 0.01264 0.0
H963 H 0.68493 0.57766 0.0224 0.0
C964 C 0.74028 0.57807 0.95446 0.0
C965 C 0.73553 0.53952 0.95836 0.0
C966 C 0.71832 0.60495 0.96389 0.0
C967 C 0.69155 0.59377 0.97749 0.0
C968 C 0.68675 0.55537 0.98143 0.0
H969 H 0.49512 0.70308 0.02197 0.0
H970 H 0.54129 0.66485 0.00487 0.0
C971 C 0.70857 0.52847 0.97197 0.0
C972 C 0.66756 0.6221 0.98708 0.0
H973 H 0.64293 0.65614 0.03099 0.0
C974 C 0.64268 0.64346 0.9759 0.0
C975 C 0.66843 0.6274 0.00712 0.0
C976 C 0.69585 0.60644 0.0197 0.0
C977 C 0.61762 0.6691 0.98433 0.0
C978 C 0.61728 0.67311 0.00445 0.0
C979 C 0.64309 0.65275 0.01557 0.0
C980 C 0.58943 0.69725 0.0143 0.0
C981 C 0.59165 0.69161 0.97165 0.0
C982 C 0.6013 0.7278 0.0255 0.0
C983 C 0.57496 0.74971 0.03537 0.0
C984 C 0.53636 0.74113 0.03433 0.0
C985 C 0.52463 0.71049 0.02306 0.0
C986 C 0.55094 0.68873 0.01317 0.0
H987 H 0.60216 0.69287 0.95669 0.0
H988 H 0.56349 0.67807 0.97144 0.0
H989 H 0.58826 0.72077 0.97712 0.0
H990 H 0.63095 0.73463 0.02663 0.0
H991 H 0.58491 0.77306 0.04396 0.0
loop_
_geom_bond_atom_site_label_1
_geom_bond_atom_site_label_2
_geom_bond_distance
_geom_bond_site_symmetry_2
_ccdc_geom_bond_type
Co0 O3 1.970 . S
Co0 N17 1.989 . S
Co0 O25 1.967 . S
Co0 O32 1.920 . S
Co1 O4 1.966 . S
Co1 N10 2.022 . S
Co1 N18 1.993 . S
Co1 O26 1.941 . S
C2 O3 1.258 . S
C2 O4 1.263 . S
O3 Co0 1.970 . S
O3 C2 1.258 . S
O4 Co1 1.966 . S
O4 C2 1.263 . S
C5 O6 1.235 1_455 S
C5 O32 1.289 . S
O6 C5 1.235 1_655 S
C7 C9 1.400 . S
C7 N10 1.351 . S
C7 C12 1.501 . S
C8 C9 1.387 . S
C8 N11 1.341 . S
C9 C7 1.400 . S
C9 C8 1.387 . S
N10 Co1 2.022 . S
N10 C7 1.351 . S
N10 N11 1.365 . S
N11 C8 1.341 . S
N11 N10 1.365 . S
N11 H31 0.862 . S
C12 C7 1.501 . S
C12 H13 0.961 . S
C12 H14 0.961 . S
C12 H15 0.960 . S
H13 C12 0.961 . S
H14 C12 0.961 . S
H15 C12 0.960 . S
C16 N17 1.342 . S
C16 C20 1.401 . S
C16 C21 1.499 . S
N17 Co0 1.989 . S
N17 C16 1.342 . S
N17 N18 1.388 . S
N18 Co1 1.993 . S
N18 N17 1.388 . S
N18 C19 1.346 . S
C19 N18 1.346 . S
C19 C20 1.396 . S
C19 C29 1.510 . S
C20 C16 1.401 . S
C20 C19 1.396 . S
C21 C16 1.499 . S
C21 H22 0.959 . S
C21 H23 0.960 . S
C21 H24 0.961 . S
H22 C21 0.959 . S
H23 C21 0.960 . S
H24 C21 0.961 . S
O25 Co0 1.967 . S
O25 C33 1.258 . S
O26 Co1 1.941 . S
O26 C33 1.266 . S
H27 C29 0.959 . S
H28 C29 0.961 . S
C29 C19 1.510 . S
C29 H27 0.959 . S
C29 H28 0.961 . S
C29 H30 0.960 . S
H30 C29 0.960 . S
H31 N11 0.862 . S
O32 Co0 1.920 . S
O32 C5 1.289 . S
C33 O25 1.258 . S
C33 O26 1.266 . S
Co34 O37 1.970 . S
Co34 N51 1.989 . S
Co34 O59 1.967 . S
Co34 O66 1.920 . S
Co35 O38 1.966 . S
Co35 N44 2.022 . S
Co35 N52 1.993 . S
Co35 O60 1.941 . S
C36 O37 1.258 . S
C36 O38 1.263 . S
O37 Co34 1.970 . S
O37 C36 1.258 . S
O38 Co35 1.966 . S
O38 C36 1.263 . S
C39 O40 1.235 . S
C39 O66 1.289 . S
O40 C39 1.235 . S
C41 C43 1.400 . S
C41 N44 1.351 . S
C41 C46 1.501 . S
C42 C43 1.387 . S
C42 N45 1.341 . S
C43 C41 1.400 . S
C43 C42 1.387 . S
N44 Co35 2.022 . S
N44 C41 1.351 . S
N44 N45 1.365 . S
N45 C42 1.341 . S
N45 N44 1.365 . S
N45 H65 0.862 . S
C46 C41 1.501 . S
C46 H47 0.961 . S
C46 H48 0.961 . S
C46 H49 0.960 . S
H47 C46 0.961 . S
H48 C46 0.961 . S
H49 C46 0.960 . S
C50 N51 1.342 . S
C50 C54 1.401 . S
C50 C55 1.499 . S
N51 Co34 1.989 . S
N51 C50 1.342 . S
N51 N52 1.388 . S
N52 Co35 1.993 . S
N52 N51 1.388 . S
N52 C53 1.346 . S
C53 N52 1.346 . S
C53 C54 1.396 . S
C53 C63 1.510 . S
C54 C50 1.401 . S
C54 C53 1.396 . S
C55 C50 1.499 . S
C55 H56 0.959 . S
C55 H57 0.960 . S
C55 H58 0.961 . S
H56 C55 0.959 . S
H57 C55 0.960 . S
H58 C55 0.961 . S
O59 Co34 1.967 . S
O59 C67 1.258 . S
O60 Co35 1.941 . S
O60 C67 1.266 . S
H61 C63 0.959 . S
H62 C63 0.961 . S
C63 C53 1.510 . S
C63 H61 0.959 . S
C63 H62 0.961 . S
C63 H64 0.960 . S
H64 C63 0.960 . S
H65 N45 0.862 . S
O66 Co34 1.920 . S
O66 C39 1.289 . S
C67 O59 1.258 . S
C67 O60 1.266 . S
Co68 O71 1.970 . S
Co68 N85 1.989 . S
Co68 O93 1.967 . S
Co68 O100 1.920 . S
Co69 O72 1.966 . S
Co69 N78 2.022 . S
Co69 N86 1.993 . S
Co69 O94 1.941 . S
C70 O71 1.258 . S
C70 O72 1.263 . S
O71 Co68 1.970 . S
O71 C70 1.258 . S
O72 Co69 1.966 . S
O72 C70 1.263 . S
C73 O74 1.235 1_655 S
C73 O100 1.289 . S
O74 C73 1.235 1_455 S
C75 C77 1.400 . S
C75 N78 1.351 . S
C75 C80 1.501 . S
C76 C77 1.387 . S
C76 N79 1.341 . S
C77 C75 1.400 . S
C77 C76 1.387 . S
N78 Co69 2.022 . S
N78 C75 1.351 . S
N78 N79 1.365 . S
N79 C76 1.341 . S
N79 N78 1.365 . S
N79 H99 0.862 . S
C80 C75 1.501 . S
C80 H81 0.961 . S
C80 H82 0.961 . S
C80 H83 0.960 . S
H81 C80 0.961 . S
H82 C80 0.961 . S
H83 C80 0.960 . S
C84 N85 1.342 . S
C84 C88 1.401 . S
C84 C89 1.499 . S
N85 Co68 1.989 . S
N85 C84 1.342 . S
N85 N86 1.388 . S
N86 Co69 1.993 . S
N86 N85 1.388 . S
N86 C87 1.346 . S
C87 N86 1.346 . S
C87 C88 1.396 . S
C87 C97 1.510 . S
C88 C84 1.401 . S
C88 C87 1.396 . S
C89 C84 1.499 . S
C89 H90 0.959 . S
C89 H91 0.960 . S
C89 H92 0.961 . S
H90 C89 0.959 . S
H91 C89 0.960 . S
H92 C89 0.961 . S
O93 Co68 1.967 . S
O93 C101 1.258 . S
O94 Co69 1.941 . S
O94 C101 1.266 . S
H95 C97 0.959 . S
H96 C97 0.961 . S
C97 C87 1.510 . S
C97 H95 0.959 . S
C97 H96 0.961 . S
C97 H98 0.960 . S
H98 C97 0.960 . S
H99 N79 0.862 . S
O100 Co68 1.920 . S
O100 C73 1.289 . S
C101 O93 1.258 . S
C101 O94 1.266 . S
Co102 O105 1.970 . S
Co102 N119 1.989 . S
Co102 O127 1.967 . S
Co102 O134 1.920 . S
Co103 O106 1.966 . S
Co103 N112 2.022 . S
Co103 N120 1.993 . S
Co103 O128 1.941 . S
C104 O105 1.258 . S
C104 O106 1.263 . S
O105 Co102 1.970 . S
O105 C104 1.258 . S
O106 Co103 1.966 . S
O106 C104 1.263 . S
C107 O108 1.235 . S
C107 O134 1.289 . S
O108 C107 1.235 . S
C109 C111 1.400 . S
C109 N112 1.351 . S
C109 C114 1.501 . S
C110 C111 1.387 . S
C110 N113 1.341 . S
C111 C109 1.400 . S
C111 C110 1.387 . S
N112 Co103 2.022 . S
N112 C109 1.351 . S
N112 N113 1.365 . S
N113 C110 1.341 . S
N113 N112 1.365 . S
N113 H133 0.862 . S
C114 C109 1.501 . S
C114 H115 0.961 . S
C114 H116 0.961 . S
C114 H117 0.960 . S
H115 C114 0.961 . S
H116 C114 0.961 . S
H117 C114 0.960 . S
C118 N119 1.342 . S
C118 C122 1.401 . S
C118 C123 1.499 . S
N119 Co102 1.989 . S
N119 C118 1.342 . S
N119 N120 1.388 . S
N120 Co103 1.993 . S
N120 N119 1.388 . S
N120 C121 1.346 . S
C121 N120 1.346 . S
C121 C122 1.396 . S
C121 C131 1.510 . S
C122 C118 1.401 . S
C122 C121 1.396 . S
C123 C118 1.499 . S
C123 H124 0.959 . S
C123 H125 0.960 . S
C123 H126 0.961 . S
H124 C123 0.959 . S
H125 C123 0.960 . S
H126 C123 0.961 . S
O127 Co102 1.967 . S
O127 C135 1.258 . S
O128 Co103 1.941 . S
O128 C135 1.266 . S
H129 C131 0.959 . S
H130 C131 0.961 . S
C131 C121 1.510 . S
C131 H129 0.959 . S
C131 H130 0.961 . S
C131 H132 0.960 . S
H132 C131 0.960 . S
H133 N113 0.862 . S
O134 Co102 1.920 . S
O134 C107 1.289 . S
C135 O127 1.258 . S
C135 O128 1.266 . S
Co136 O139 1.970 . S
Co136 N153 1.989 . S
Co136 O161 1.967 . S
Co136 O168 1.920 . S
Co137 O140 1.966 . S
Co137 N146 2.022 . S
Co137 N154 1.993 . S
Co137 O162 1.941 . S
C138 O139 1.258 . S
C138 O140 1.263 . S
O139 Co136 1.970 . S
O139 C138 1.258 . S
O140 Co137 1.966 . S
O140 C138 1.263 . S
C141 O142 1.235 . S
C141 O168 1.289 . S
O142 C141 1.235 . S
C143 C145 1.400 . S
C143 N146 1.351 . S
C143 C148 1.501 . S
C144 C145 1.387 . S
C144 N147 1.341 . S
C145 C143 1.400 . S
C145 C144 1.387 . S
N146 Co137 2.022 . S
N146 C143 1.351 . S
N146 N147 1.365 . S
N147 C144 1.341 . S
N147 N146 1.365 . S
N147 H167 0.862 . S
C148 C143 1.501 . S
C148 H149 0.961 . S
C148 H150 0.961 . S
C148 H151 0.960 . S
H149 C148 0.961 . S
H150 C148 0.961 . S
H151 C148 0.960 . S
C152 N153 1.342 . S
C152 C156 1.401 . S
C152 C157 1.499 . S
N153 Co136 1.989 . S
N153 C152 1.342 . S
N153 N154 1.388 . S
N154 Co137 1.993 . S
N154 N153 1.388 . S
N154 C155 1.346 . S
C155 N154 1.346 . S
C155 C156 1.396 . S
C155 C165 1.510 . S
C156 C152 1.401 . S
C156 C155 1.396 . S
C157 C152 1.499 . S
C157 H158 0.959 . S
C157 H159 0.960 . S
C157 H160 0.961 . S
H158 C157 0.959 . S
H159 C157 0.960 . S
H160 C157 0.961 . S
O161 Co136 1.967 . S
O161 C169 1.258 . S
O162 Co137 1.941 . S
O162 C169 1.266 . S
H163 C165 0.959 . S
H164 C165 0.961 . S
C165 C155 1.510 . S
C165 H163 0.959 . S
C165 H164 0.961 . S
C165 H166 0.960 . S
H166 C165 0.960 . S
H167 N147 0.862 . S
O168 Co136 1.920 . S
O168 C141 1.289 . S
C169 O161 1.258 . S
C169 O162 1.266 . S
Co170 O173 1.970 . S
Co170 N187 1.989 . S
Co170 O195 1.967 . S
Co170 O202 1.920 . S
Co171 O174 1.966 . S
Co171 N180 2.022 . S
Co171 N188 1.993 . S
Co171 O196 1.941 . S
C172 O173 1.258 . S
C172 O174 1.263 . S
O173 Co170 1.970 . S
O173 C172 1.258 . S
O174 Co171 1.966 . S
O174 C172 1.263 . S
C175 O176 1.235 1_545 S
C175 O202 1.289 . S
O176 C175 1.235 1_565 S
C177 C179 1.400 . S
C177 N180 1.351 . S
C177 C182 1.501 . S
C178 C179 1.387 . S
C178 N181 1.341 . S
C179 C177 1.400 . S
C179 C178 1.387 . S
N180 Co171 2.022 . S
N180 C177 1.351 . S
N180 N181 1.365 . S
N181 C178 1.341 . S
N181 N180 1.365 . S
N181 H201 0.862 . S
C182 C177 1.501 . S
C182 H183 0.961 . S
C182 H184 0.961 . S
C182 H185 0.960 . S
H183 C182 0.961 . S
H184 C182 0.961 . S
H185 C182 0.960 . S
C186 N187 1.342 . S
C186 C190 1.401 . S
C186 C191 1.499 . S
N187 Co170 1.989 . S
N187 C186 1.342 . S
N187 N188 1.388 . S
N188 Co171 1.993 . S
N188 N187 1.388 . S
N188 C189 1.346 . S
C189 N188 1.346 . S
C189 C190 1.396 . S
C189 C199 1.510 . S
C190 C186 1.401 . S
C190 C189 1.396 . S
C191 C186 1.499 . S
C191 H192 0.959 . S
C191 H193 0.960 . S
C191 H194 0.961 . S
H192 C191 0.959 . S
H193 C191 0.960 . S
H194 C191 0.961 . S
O195 Co170 1.967 . S
O195 C203 1.258 . S
O196 Co171 1.941 . S
O196 C203 1.266 . S
H197 C199 0.959 . S
H198 C199 0.961 . S
C199 C189 1.510 . S
C199 H197 0.959 . S
C199 H198 0.961 . S
C199 H200 0.960 . S
H200 C199 0.960 . S
H201 N181 0.862 . S
O202 Co170 1.920 . S
O202 C175 1.289 . S
C203 O195 1.258 . S
C203 O196 1.266 . S
Co204 O207 1.970 . S
Co204 N221 1.989 . S
Co204 O229 1.967 . S
Co204 O236 1.920 . S
Co205 O208 1.966 . S
Co205 N214 2.022 . S
Co205 N222 1.993 . S
Co205 O230 1.941 . S
C206 O207 1.258 . S
C206 O208 1.263 . S
O207 Co204 1.970 . S
O207 C206 1.258 . S
O208 Co205 1.966 . S
O208 C206 1.263 . S
C209 O210 1.235 . S
C209 O236 1.289 . S
O210 C209 1.235 . S
C211 C213 1.400 . S
C211 N214 1.351 . S
C211 C216 1.501 . S
C212 C213 1.387 . S
C212 N215 1.341 . S
C213 C211 1.400 . S
C213 C212 1.387 . S
N214 Co205 2.022 . S
N214 C211 1.351 . S
N214 N215 1.365 . S
N215 C212 1.341 . S
N215 N214 1.365 . S
N215 H235 0.862 . S
C216 C211 1.501 . S
C216 H217 0.961 . S
C216 H218 0.961 . S
C216 H219 0.960 . S
H217 C216 0.961 . S
H218 C216 0.961 . S
H219 C216 0.960 . S
C220 N221 1.342 . S
C220 C224 1.401 . S
C220 C225 1.499 . S
N221 Co204 1.989 . S
N221 C220 1.342 . S
N221 N222 1.388 . S
N222 Co205 1.993 . S
N222 N221 1.388 . S
N222 C223 1.346 . S
C223 N222 1.346 . S
C223 C224 1.396 . S
C223 C233 1.510 . S
C224 C220 1.401 . S
C224 C223 1.396 . S
C225 C220 1.499 . S
C225 H226 0.959 . S
C225 H227 0.960 . S
C225 H228 0.961 . S
H226 C225 0.959 . S
H227 C225 0.960 . S
H228 C225 0.961 . S
O229 Co204 1.967 . S
O229 C237 1.258 . S
O230 Co205 1.941 . S
O230 C237 1.266 . S
H231 C233 0.959 . S
H232 C233 0.961 . S
C233 C223 1.510 . S
C233 H231 0.959 . S
C233 H232 0.961 . S
C233 H234 0.960 . S
H234 C233 0.960 . S
H235 N215 0.862 . S
O236 Co204 1.920 . S
O236 C209 1.289 . S
C237 O229 1.258 . S
C237 O230 1.266 . S
Co238 O241 1.970 . S
Co238 N255 1.989 . S
Co238 O263 1.967 . S
Co238 O270 1.920 . S
Co239 O242 1.966 . S
Co239 N248 2.022 . S
Co239 N256 1.993 . S
Co239 O264 1.941 . S
C240 O241 1.258 . S
C240 O242 1.263 . S
O241 Co238 1.970 . S
O241 C240 1.258 . S
O242 Co239 1.966 . S
O242 C240 1.263 . S
C243 O244 1.235 1_565 S
C243 O270 1.289 . S
O244 C243 1.235 1_545 S
C245 C247 1.400 . S
C245 N248 1.351 . S
C245 C250 1.501 . S
C246 C247 1.387 . S
C246 N249 1.341 . S
C247 C245 1.400 . S
C247 C246 1.387 . S
N248 Co239 2.022 . S
N248 C245 1.351 . S
N248 N249 1.365 . S
N249 C246 1.341 . S
N249 N248 1.365 . S
N249 H269 0.862 . S
C250 C245 1.501 . S
C250 H251 0.961 . S
C250 H252 0.961 . S
C250 H253 0.960 . S
H251 C250 0.961 . S
H252 C250 0.961 . S
H253 C250 0.960 . S
C254 N255 1.342 . S
C254 C258 1.401 . S
C254 C259 1.499 . S
N255 Co238 1.989 . S
N255 C254 1.342 . S
N255 N256 1.388 . S
N256 Co239 1.993 . S
N256 N255 1.388 . S
N256 C257 1.346 . S
C257 N256 1.346 . S
C257 C258 1.396 . S
C257 C267 1.510 . S
C258 C254 1.401 . S
C258 C257 1.396 . S
C259 C254 1.499 . S
C259 H260 0.959 . S
C259 H261 0.960 . S
C259 H262 0.961 . S
H260 C259 0.959 . S
H261 C259 0.960 . S
H262 C259 0.961 . S
O263 Co238 1.967 . S
O263 C271 1.258 . S
O264 Co239 1.941 . S
O264 C271 1.266 . S
H265 C267 0.959 . S
H266 C267 0.961 . S
C267 C257 1.510 . S
C267 H265 0.959 . S
C267 H266 0.961 . S
C267 H268 0.960 . S
H268 C267 0.960 . S
H269 N249 0.862 . S
O270 Co238 1.920 . S
O270 C243 1.289 . S
C271 O263 1.258 . S
C271 O264 1.266 . S
H272 C280 0.929 . S
H273 C282 0.930 . S
H274 C284 0.930 . S
H275 C287 0.929 . S
H276 C290 0.930 . S
H277 C292 0.960 . S
H278 C292 0.960 . S
H279 C292 0.960 . S
C280 H272 0.929 . S
C280 C281 1.377 . S
C280 C282 1.384 . S
C281 C280 1.377 . S
C281 C287 1.390 . S
C282 H273 0.930 . S
C282 C280 1.384 . S
C282 C283 1.372 . S
C283 C282 1.372 . S
C283 C284 1.400 . S
C283 C288 1.490 . S
C284 H274 0.930 . S
C284 C283 1.400 . S
C284 C287 1.386 . S
H285 C301 0.930 . S
H286 C302 0.931 . S
C287 H275 0.929 . S
C287 C281 1.390 . S
C287 C284 1.386 . S
C288 C283 1.490 . S
C288 C290 1.395 . S
C288 C291 1.403 . S
H289 C295 0.930 . S
C290 H276 0.930 . S
C290 C288 1.395 . S
C290 C293 1.403 . S
C291 C288 1.403 . S
C291 C292 1.524 . S
C291 C295 1.400 . S
C292 H277 0.960 . S
C292 H278 0.960 . S
C292 H279 0.960 . S
C292 C291 1.524 . S
C293 C290 1.403 . S
C293 C294 1.392 . S
C293 C297 1.495 . S
C294 C293 1.392 . S
C294 C295 1.385 . S
C294 C296 1.478 . S
C295 H289 0.930 . S
C295 C291 1.400 . S
C295 C294 1.385 . S
C296 C294 1.478 . S
C296 C298 1.381 . S
C296 C302 1.383 . S
C297 C293 1.495 . S
C297 H303 0.959 . S
C297 H304 0.961 . S
C297 H305 0.960 . S
C298 C296 1.381 . S
C298 C299 1.394 . S
C298 H306 0.930 . S
C299 C298 1.394 . S
C299 C300 1.383 . S
C299 H307 0.929 . S
C300 C299 1.383 . S
C300 C301 1.377 . S
C301 H285 0.930 . S
C301 C300 1.377 . S
C301 C302 1.379 . S
C302 H286 0.931 . S
C302 C296 1.383 . S
C302 C301 1.379 . S
H303 C297 0.959 . S
H304 C297 0.961 . S
H305 C297 0.960 . S
H306 C298 0.930 . S
H307 C299 0.929 . S
H308 C316 0.929 1_455 S
H309 C318 0.930 . S
H310 C320 0.930 . S
H311 C323 0.929 . S
H312 C326 0.930 . S
H313 C328 0.960 . S
H314 C328 0.960 . S
H315 C328 0.960 . S
C316 H308 0.929 1_655 S
C316 C317 1.377 . S
C316 C318 1.384 1_655 S
C317 C316 1.377 . S
C317 C323 1.390 . S
C318 H309 0.930 . S
C318 C316 1.384 1_455 S
C318 C319 1.377 . S
C319 C318 1.377 . S
C319 C320 1.386 1_455 S
C319 C324 1.498 . S
C320 H310 0.930 . S
C320 C319 1.386 1_655 S
C320 C323 1.386 . S
H321 C337 0.930 . S
H322 C338 0.931 . S
C323 H311 0.929 . S
C323 C317 1.390 . S
C323 C320 1.386 . S
C324 C319 1.498 . S
C324 C326 1.395 . S
C324 C327 1.403 . S
H325 C331 0.930 . S
C326 H312 0.930 . S
C326 C324 1.395 . S
C326 C329 1.403 . S
C327 C324 1.403 . S
C327 C328 1.524 1_455 S
C327 C331 1.400 . S
C328 H313 0.960 . S
C328 H314 0.960 . S
C328 H315 0.960 . S
C328 C327 1.524 1_655 S
C329 C326 1.403 . S
C329 C330 1.392 . S
C329 C333 1.495 . S
C330 C329 1.392 . S
C330 C331 1.385 . S
C330 C332 1.478 . S
C331 H325 0.930 . S
C331 C327 1.400 . S
C331 C330 1.385 . S
C332 C330 1.478 . S
C332 C334 1.381 . S
C332 C338 1.383 . S
C333 C329 1.495 . S
C333 H339 0.959 . S
C333 H340 0.961 . S
C333 H341 0.960 . S
C334 C332 1.381 . S
C334 C335 1.394 . S
C334 H342 0.930 . S
C335 C334 1.394 . S
C335 C336 1.383 . S
C335 H343 0.929 . S
C336 C335 1.383 . S
C336 C337 1.377 . S
C337 H321 0.930 . S
C337 C336 1.377 . S
C337 C338 1.379 . S
C338 H322 0.931 . S
C338 C332 1.383 . S
C338 C337 1.379 . S
H339 C333 0.959 . S
H340 C333 0.961 . S
H341 C333 0.960 . S
H342 C334 0.930 . S
H343 C335 0.929 . S
H344 C352 0.929 . S
H345 C354 0.930 . S
H346 C356 0.930 . S
H347 C359 0.929 . S
H348 C362 0.930 . S
H349 C364 0.960 . S
H350 C364 0.960 . S
H351 C364 0.960 . S
C352 H344 0.929 . S
C352 C353 1.377 . S
C352 C354 1.384 . S
C353 C352 1.377 . S
C353 C359 1.390 . S
C354 H345 0.930 . S
C354 C352 1.384 . S
C354 C355 1.372 . S
C355 C354 1.372 . S
C355 C356 1.400 . S
C355 C360 1.490 . S
C356 H346 0.930 . S
C356 C355 1.400 . S
C356 C359 1.386 . S
H357 C373 0.930 . S
H358 C374 0.931 . S
C359 H347 0.929 . S
C359 C353 1.390 . S
C359 C356 1.386 . S
C360 C355 1.490 . S
C360 C362 1.395 . S
C360 C363 1.403 . S
H361 C367 0.930 . S
C362 H348 0.930 . S
C362 C360 1.395 . S
C362 C365 1.403 . S
C363 C360 1.403 . S
C363 C364 1.524 . S
C363 C367 1.400 . S
C364 H349 0.960 . S
C364 H350 0.960 . S
C364 H351 0.960 . S
C364 C363 1.524 . S
C365 C362 1.403 . S
C365 C366 1.392 . S
C365 C369 1.495 . S
C366 C365 1.392 . S
C366 C367 1.385 . S
C366 C368 1.478 . S
C367 H361 0.930 . S
C367 C363 1.400 . S
C367 C366 1.385 . S
C368 C366 1.478 . S
C368 C370 1.381 . S
C368 C374 1.383 . S
C369 C365 1.495 . S
C369 H375 0.959 . S
C369 H376 0.961 . S
C369 H377 0.960 . S
C370 C368 1.381 . S
C370 C371 1.394 . S
C370 H378 0.930 . S
C371 C370 1.394 . S
C371 C372 1.383 . S
C371 H379 0.929 . S
C372 C371 1.383 . S
C372 C373 1.377 . S
C373 H357 0.930 . S
C373 C372 1.377 . S
C373 C374 1.379 . S
C374 H358 0.931 . S
C374 C368 1.383 . S
C374 C373 1.379 . S
H375 C369 0.959 . S
H376 C369 0.961 . S
H377 C369 0.960 . S
H378 C370 0.930 . S
H379 C371 0.929 . S
H380 C388 0.929 . S
H381 C390 0.930 . S
H382 C392 0.930 . S
H383 C395 0.929 . S
H384 C398 0.930 . S
H385 C400 0.960 . S
H386 C400 0.960 . S
H387 C400 0.960 . S
C388 H380 0.929 . S
C388 C389 1.377 . S
C388 C390 1.384 1_556 S
C389 C388 1.377 . S
C389 C395 1.390 1_556 S
C390 H381 0.930 . S
C390 C388 1.384 1_554 S
C390 C391 1.372 . S
C391 C390 1.372 . S
C391 C392 1.400 . S
C391 C396 1.490 . S
C392 H382 0.930 . S
C392 C391 1.400 . S
C392 C395 1.386 . S
H393 C409 0.930 1_655 S
H394 C410 0.931 . S
C395 H383 0.929 . S
C395 C389 1.390 1_554 S
C395 C392 1.386 . S
C396 C391 1.490 . S
C396 C398 1.395 . S
C396 C399 1.403 . S
H397 C403 0.930 . S
C398 H384 0.930 . S
C398 C396 1.395 . S
C398 C401 1.403 . S
C399 C396 1.403 . S
C399 C400 1.524 . S
C399 C403 1.400 . S
C400 H385 0.960 . S
C400 H386 0.960 . S
C400 H387 0.960 . S
C400 C399 1.524 . S
C401 C398 1.403 . S
C401 C402 1.392 . S
C401 C405 1.495 . S
C402 C401 1.392 . S
C402 C403 1.385 . S
C402 C404 1.478 . S
C403 H397 0.930 . S
C403 C399 1.400 . S
C403 C402 1.385 . S
C404 C402 1.478 . S
C404 C406 1.381 1_655 S
C404 C410 1.383 . S
C405 C401 1.495 . S
C405 H411 0.959 . S
C405 H412 0.961 . S
C405 H413 0.960 . S
C406 C404 1.381 1_455 S
C406 C407 1.394 . S
C406 H414 0.930 . S
C407 C406 1.394 . S
C407 C408 1.383 . S
C407 H415 0.929 . S
C408 C407 1.383 . S
C408 C409 1.377 . S
C409 H393 0.930 1_455 S
C409 C408 1.377 . S
C409 C410 1.379 1_455 S
C410 H394 0.931 . S
C410 C404 1.383 . S
C410 C409 1.379 1_655 S
H411 C405 0.959 . S
H412 C405 0.961 . S
H413 C405 0.960 . S
H414 C406 0.930 . S
H415 C407 0.929 . S
H416 C424 0.929 . S
H417 C426 0.930 . S
H418 C428 0.930 . S
H419 C431 0.929 . S
H420 C434 0.930 . S
H421 C436 0.960 . S
H422 C436 0.960 . S
H423 C436 0.960 . S
C424 H416 0.929 . S
C424 C425 1.377 . S
C424 C426 1.384 . S
C425 C424 1.377 . S
C425 C431 1.390 . S
C426 H417 0.930 . S
C426 C424 1.384 . S
C426 C427 1.372 . S
C427 C426 1.372 . S
C427 C428 1.400 . S
C427 C432 1.490 . S
C428 H418 0.930 . S
C428 C427 1.400 . S
C428 C431 1.386 . S
H429 C445 0.930 1_545 S
H430 C446 0.931 . S
C431 H419 0.929 . S
C431 C425 1.390 . S
C431 C428 1.386 . S
C432 C427 1.490 . S
C432 C434 1.395 . S
C432 C435 1.403 . S
H433 C439 0.930 . S
C434 H420 0.930 . S
C434 C432 1.395 . S
C434 C437 1.403 . S
C435 C432 1.403 . S
C435 C436 1.524 . S
C435 C439 1.400 . S
C436 H421 0.960 . S
C436 H422 0.960 . S
C436 H423 0.960 . S
C436 C435 1.524 . S
C437 C434 1.403 . S
C437 C438 1.392 . S
C437 C441 1.495 1_545 S
C438 C437 1.392 . S
C438 C439 1.385 . S
C438 C440 1.478 1_545 S
C439 H433 0.930 . S
C439 C435 1.400 . S
C439 C438 1.385 . S
C440 C438 1.478 1_565 S
C440 C442 1.381 . S
C440 C446 1.383 1_565 S
C441 C437 1.495 1_565 S
C441 H447 0.959 . S
C441 H448 0.961 . S
C441 H449 0.960 . S
C442 C440 1.381 . S
C442 C443 1.394 . S
C442 H450 0.930 . S
C443 C442 1.394 . S
C443 C444 1.383 . S
C443 H451 0.929 . S
C444 C443 1.383 . S
C444 C445 1.377 . S
C445 H429 0.930 1_565 S
C445 C444 1.377 . S
C445 C446 1.379 1_565 S
C446 H430 0.931 . S
C446 C440 1.383 1_545 S
C446 C445 1.379 1_545 S
H447 C441 0.959 . S
H448 C441 0.961 . S
H449 C441 0.960 . S
H450 C442 0.930 . S
H451 C443 0.929 . S
H452 C460 0.929 . S
H453 C462 0.930 . S
H454 C464 0.930 . S
H455 C467 0.929 . S
H456 C470 0.930 . S
H457 C472 0.960 . S
H458 C472 0.960 . S
H459 C472 0.960 . S
C460 H452 0.929 . S
C460 C461 1.377 . S
C460 C462 1.384 . S
C461 C460 1.377 . S
C461 C467 1.390 . S
C462 H453 0.930 . S
C462 C460 1.384 . S
C462 C463 1.372 . S
C463 C462 1.372 . S
C463 C464 1.400 . S
C463 C468 1.490 . S
C464 H454 0.930 . S
C464 C463 1.400 . S
C464 C467 1.386 . S
H465 C481 0.930 . S
H466 C482 0.931 . S
C467 H455 0.929 . S
C467 C461 1.390 . S
C467 C464 1.386 . S
C468 C463 1.490 . S
C468 C470 1.395 . S
C468 C471 1.403 . S
H469 C475 0.930 . S
C470 H456 0.930 . S
C470 C468 1.395 . S
C470 C473 1.403 . S
C471 C468 1.403 . S
C471 C472 1.524 . S
C471 C475 1.400 . S
C472 H457 0.960 . S
C472 H458 0.960 . S
C472 H459 0.960 . S
C472 C471 1.524 . S
C473 C470 1.403 . S
C473 C474 1.392 . S
C473 C477 1.495 . S
C474 C473 1.392 . S
C474 C475 1.385 . S
C474 C476 1.478 . S
C475 H469 0.930 . S
C475 C471 1.400 . S
C475 C474 1.385 . S
C476 C474 1.478 . S
C476 C478 1.381 . S
C476 C482 1.383 . S
C477 C473 1.495 . S
C477 H483 0.959 . S
C477 H484 0.961 . S
C477 H485 0.960 . S
C478 C476 1.381 . S
C478 C479 1.394 . S
C478 H486 0.930 . S
C479 C478 1.394 . S
C479 C480 1.383 . S
C479 H487 0.929 . S
C480 C479 1.383 . S
C480 C481 1.377 . S
C481 H465 0.930 . S
C481 C480 1.377 . S
C481 C482 1.379 . S
C482 H466 0.931 . S
C482 C476 1.383 . S
C482 C481 1.379 . S
H483 C477 0.959 . S
H484 C477 0.961 . S
H485 C477 0.960 . S
H486 C478 0.930 . S
H487 C479 0.929 . S
H488 C496 0.927 . S
H489 C498 0.930 . S
H490 C500 0.930 . S
H491 C503 0.929 . S
H492 C506 0.930 . S
H493 C508 0.960 . S
H494 C508 0.960 . S
H495 C508 0.960 . S
C496 H488 0.927 . S
C496 C497 1.376 . S
C496 C498 1.387 1_554 S
C497 C496 1.376 . S
C497 C503 1.390 1_554 S
C498 H489 0.930 . S
C498 C496 1.387 1_556 S
C498 C499 1.372 . S
C499 C498 1.372 . S
C499 C500 1.400 . S
C499 C504 1.490 . S
C500 H490 0.930 . S
C500 C499 1.400 . S
C500 C503 1.386 . S
H501 C517 0.930 . S
H502 C518 0.931 . S
C503 H491 0.929 . S
C503 C497 1.390 1_556 S
C503 C500 1.386 . S
C504 C499 1.490 . S
C504 C506 1.395 . S
C504 C507 1.403 . S
H505 C511 0.930 . S
C506 H492 0.930 . S
C506 C504 1.395 . S
C506 C509 1.403 1_565 S
C507 C504 1.403 . S
C507 C508 1.524 . S
C507 C511 1.400 . S
C508 H493 0.960 . S
C508 H494 0.960 . S
C508 H495 0.960 . S
C508 C507 1.524 . S
C509 C506 1.403 1_545 S
C509 C510 1.392 1_545 S
C509 C513 1.495 . S
C510 C509 1.392 1_565 S
C510 C511 1.385 . S
C510 C512 1.478 1_565 S
C511 H505 0.930 . S
C511 C507 1.400 . S
C511 C510 1.385 . S
C512 C510 1.478 1_545 S
C512 C514 1.381 . S
C512 C518 1.383 . S
C513 C509 1.495 . S
C513 H519 0.959 . S
C513 H520 0.961 . S
C513 H521 0.960 . S
C514 C512 1.381 . S
C514 C515 1.394 . S
C514 H522 0.930 . S
C515 C514 1.394 . S
C515 C516 1.383 . S
C515 H523 0.929 . S
C516 C515 1.383 . S
C516 C517 1.377 . S
C517 H501 0.930 . S
C517 C516 1.377 . S
C517 C518 1.379 . S
C518 H502 0.931 . S
C518 C512 1.383 . S
C518 C517 1.379 . S
H519 C513 0.959 . S
H520 C513 0.961 . S
H521 C513 0.960 . S
H522 C514 0.930 . S
H523 C515 0.929 . S
H524 C532 0.929 . S
H525 C534 0.930 . S
H526 C536 0.930 . S
H527 C539 0.929 . S
H528 C542 0.930 . S
H529 C544 0.960 . S
H530 C544 0.960 . S
H531 C544 0.960 . S
C532 H524 0.929 . S
C532 C533 1.377 . S
C532 C534 1.384 . S
C533 C532 1.377 . S
C533 C539 1.390 . S
C534 H525 0.930 . S
C534 C532 1.384 . S
C534 C535 1.372 . S
C535 C534 1.372 . S
C535 C536 1.400 . S
C535 C540 1.490 . S
C536 H526 0.930 . S
C536 C535 1.400 . S
C536 C539 1.386 . S
H537 C553 0.930 . S
H538 C554 0.931 . S
C539 H527 0.929 . S
C539 C533 1.390 . S
C539 C536 1.386 . S
C540 C535 1.490 . S
C540 C542 1.395 . S
C540 C543 1.403 . S
H541 C547 0.930 . S
C542 H528 0.930 . S
C542 C540 1.395 . S
C542 C545 1.403 . S
C543 C540 1.403 . S
C543 C544 1.524 . S
C543 C547 1.400 . S
C544 H529 0.960 . S
C544 H530 0.960 . S
C544 H531 0.960 . S
C544 C543 1.524 . S
C545 C542 1.403 . S
C545 C546 1.392 . S
C545 C549 1.495 . S
C546 C545 1.392 . S
C546 C547 1.385 . S
C546 C548 1.478 . S
C547 H541 0.930 . S
C547 C543 1.400 . S
C547 C546 1.385 . S
C548 C546 1.478 . S
C548 C550 1.381 . S
C548 C554 1.383 . S
C549 C545 1.495 . S
C549 H555 0.959 . S
C549 H556 0.961 . S
C549 H557 0.960 . S
C550 C548 1.381 . S
C550 C551 1.394 . S
C550 H558 0.930 . S
C551 C550 1.394 . S
C551 C552 1.383 . S
C551 H559 0.929 . S
C552 C551 1.383 . S
C552 C553 1.377 . S
C553 H537 0.930 . S
C553 C552 1.377 . S
C553 C554 1.379 . S
C554 H538 0.931 . S
C554 C548 1.383 . S
C554 C553 1.379 . S
H555 C549 0.959 . S
H556 C549 0.961 . S
H557 C549 0.960 . S
H558 C550 0.930 . S
H559 C551 0.929 . S
H560 C568 0.929 . S
H561 C570 0.930 . S
H562 C572 0.930 . S
H563 C575 0.929 . S
H564 C578 0.930 . S
H565 C580 0.960 . S
H566 C580 0.960 . S
H567 C580 0.960 . S
C568 H560 0.929 . S
C568 C569 1.377 1_545 S
C568 C570 1.384 . S
C569 C568 1.377 1_565 S
C569 C575 1.390 . S
C570 H561 0.930 . S
C570 C568 1.384 . S
C570 C571 1.372 . S
C571 C570 1.372 . S
C571 C572 1.400 . S
C571 C576 1.490 . S
C572 H562 0.930 . S
C572 C571 1.400 . S
C572 C575 1.386 1_545 S
H573 C589 0.930 . S
H574 C590 0.931 . S
C575 H563 0.929 . S
C575 C569 1.390 . S
C575 C572 1.386 1_565 S
C576 C571 1.490 . S
C576 C578 1.395 . S
C576 C579 1.403 . S
H577 C583 0.930 . S
C578 H564 0.930 . S
C578 C576 1.395 . S
C578 C581 1.403 . S
C579 C576 1.403 . S
C579 C580 1.524 . S
C579 C583 1.400 . S
C580 H565 0.960 . S
C580 H566 0.960 . S
C580 H567 0.960 . S
C580 C579 1.524 . S
C581 C578 1.403 . S
C581 C582 1.392 . S
C581 C585 1.495 . S
C582 C581 1.392 . S
C582 C583 1.385 . S
C582 C584 1.478 . S
C583 H577 0.930 . S
C583 C579 1.400 . S
C583 C582 1.385 . S
C584 C582 1.478 . S
C584 C586 1.381 . S
C584 C590 1.383 . S
C585 C581 1.495 . S
C585 H591 0.959 . S
C585 H592 0.961 . S
C585 H593 0.960 . S
C586 C584 1.381 . S
C586 C587 1.394 . S
C586 H594 0.930 . S
C587 C586 1.394 . S
C587 C588 1.383 . S
C587 H595 0.929 . S
C588 C587 1.383 . S
C588 C589 1.377 . S
C589 H573 0.930 . S
C589 C588 1.377 . S
C589 C590 1.379 . S
C590 H574 0.931 . S
C590 C584 1.383 . S
C590 C589 1.379 . S
H591 C585 0.959 . S
H592 C585 0.961 . S
H593 C585 0.960 . S
H594 C586 0.930 . S
H595 C587 0.929 . S
H596 C604 0.929 . S
H597 C606 0.930 . S
H598 C608 0.930 . S
H599 C611 0.929 . S
H600 C614 0.930 . S
H601 C616 0.960 . S
H602 C616 0.960 . S
H603 C616 0.960 . S
C604 H596 0.929 . S
C604 C605 1.377 . S
C604 C606 1.384 . S
C605 C604 1.377 . S
C605 C611 1.390 . S
C606 H597 0.930 . S
C606 C604 1.384 . S
C606 C607 1.372 . S
C607 C606 1.372 . S
C607 C608 1.400 . S
C607 C612 1.490 . S
C608 H598 0.930 . S
C608 C607 1.400 . S
C608 C611 1.386 . S
H609 C625 0.930 . S
H610 C626 0.931 . S
C611 H599 0.929 . S
C611 C605 1.390 . S
C611 C608 1.386 . S
C612 C607 1.490 . S
C612 C614 1.395 . S
C612 C615 1.403 . S
H613 C619 0.930 . S
C614 H600 0.930 . S
C614 C612 1.395 . S
C614 C617 1.403 . S
C615 C612 1.403 . S
C615 C616 1.524 . S
C615 C619 1.400 . S
C616 H601 0.960 . S
C616 H602 0.960 . S
C616 H603 0.960 . S
C616 C615 1.524 . S
C617 C614 1.403 . S
C617 C618 1.392 . S
C617 C621 1.495 . S
C618 C617 1.392 . S
C618 C619 1.385 . S
C618 C620 1.478 . S
C619 H613 0.930 . S
C619 C615 1.400 . S
C619 C618 1.385 . S
C620 C618 1.478 . S
C620 C622 1.381 . S
C620 C626 1.383 . S
C621 C617 1.495 . S
C621 H627 0.959 . S
C621 H628 0.961 . S
C621 H629 0.960 . S
C622 C620 1.381 . S
C622 C623 1.394 . S
C622 H630 0.930 . S
C623 C622 1.394 . S
C623 C624 1.383 . S
C623 H631 0.929 . S
C624 C623 1.383 . S
C624 C625 1.377 . S
C625 H609 0.930 . S
C625 C624 1.377 . S
C625 C626 1.379 . S
C626 H610 0.931 . S
C626 C620 1.383 . S
C626 C625 1.379 . S
H627 C621 0.959 . S
H628 C621 0.961 . S
H629 C621 0.960 . S
H630 C622 0.930 . S
H631 C623 0.929 . S
H632 C640 0.929 . S
H633 C642 0.930 . S
H634 C644 0.930 . S
H635 C647 0.929 . S
H636 C650 0.930 . S
H637 C652 0.960 . S
H638 C652 0.960 . S
H639 C652 0.960 . S
C640 H632 0.929 . S
C640 C641 1.377 1_565 S
C640 C642 1.384 . S
C641 C640 1.377 1_545 S
C641 C647 1.390 . S
C642 H633 0.930 . S
C642 C640 1.384 . S
C642 C643 1.372 . S
C643 C642 1.372 . S
C643 C644 1.400 . S
C643 C648 1.490 . S
C644 H634 0.930 . S
C644 C643 1.400 . S
C644 C647 1.386 1_565 S
H645 C661 0.930 . S
H646 C662 0.931 . S
C647 H635 0.929 . S
C647 C641 1.390 . S
C647 C644 1.386 1_545 S
C648 C643 1.490 . S
C648 C650 1.395 . S
C648 C651 1.403 . S
H649 C655 0.930 . S
C650 H636 0.930 . S
C650 C648 1.395 . S
C650 C653 1.403 . S
C651 C648 1.403 . S
C651 C652 1.524 . S
C651 C655 1.400 . S
C652 H637 0.960 . S
C652 H638 0.960 . S
C652 H639 0.960 . S
C652 C651 1.524 . S
C653 C650 1.403 . S
C653 C654 1.392 . S
C653 C657 1.495 . S
C654 C653 1.392 . S
C654 C655 1.385 . S
C654 C656 1.478 . S
C655 H649 0.930 . S
C655 C651 1.400 . S
C655 C654 1.385 . S
C656 C654 1.478 . S
C656 C658 1.381 . S
C656 C662 1.383 . S
C657 C653 1.495 . S
C657 H663 0.959 . S
C657 H664 0.961 . S
C657 H665 0.960 . S
C658 C656 1.381 . S
C658 C659 1.394 . S
C658 H666 0.930 . S
C659 C658 1.394 . S
C659 C660 1.383 . S
C659 H667 0.929 . S
C660 C659 1.383 . S
C660 C661 1.377 . S
C661 H645 0.930 . S
C661 C660 1.377 . S
C661 C662 1.379 . S
C662 H646 0.931 . S
C662 C656 1.383 . S
C662 C661 1.379 . S
H663 C657 0.959 . S
H664 C657 0.961 . S
H665 C657 0.960 . S
H666 C658 0.930 . S
H667 C659 0.929 . S
H668 C676 0.929 . S
H669 C678 0.930 . S
H670 C680 0.930 . S
H671 C683 0.929 . S
H672 C686 0.930 . S
H673 C688 0.960 . S
H674 C688 0.960 . S
H675 C688 0.960 . S
C676 H668 0.929 . S
C676 C677 1.377 . S
C676 C678 1.384 . S
C677 C676 1.377 . S
C677 C683 1.390 . S
C678 H669 0.930 . S
C678 C676 1.384 . S
C678 C679 1.372 . S
C679 C678 1.372 . S
C679 C680 1.400 . S
C679 C684 1.490 . S
C680 H670 0.930 . S
C680 C679 1.400 . S
C680 C683 1.386 . S
H681 C697 0.930 . S
H682 C698 0.931 . S
C683 H671 0.929 . S
C683 C677 1.390 . S
C683 C680 1.386 . S
C684 C679 1.490 . S
C684 C686 1.395 . S
C684 C687 1.403 . S
H685 C691 0.930 . S
C686 H672 0.930 . S
C686 C684 1.395 . S
C686 C689 1.403 . S
C687 C684 1.403 . S
C687 C688 1.524 . S
C687 C691 1.400 . S
C688 H673 0.960 . S
C688 H674 0.960 . S
C688 H675 0.960 . S
C688 C687 1.524 . S
C689 C686 1.403 . S
C689 C690 1.392 . S
C689 C693 1.495 . S
C690 C689 1.392 . S
C690 C691 1.385 . S
C690 C692 1.478 . S
C691 H685 0.930 . S
C691 C687 1.400 . S
C691 C690 1.385 . S
C692 C690 1.478 . S
C692 C694 1.381 . S
C692 C698 1.383 . S
C693 C689 1.495 . S
C693 H699 0.959 . S
C693 H700 0.961 . S
C693 H701 0.960 . S
C694 C692 1.381 . S
C694 C695 1.394 . S
C694 H702 0.930 . S
C695 C694 1.394 . S
C695 C696 1.383 . S
C695 H703 0.929 . S
C696 C695 1.383 . S
C696 C697 1.377 . S
C697 H681 0.930 . S
C697 C696 1.377 . S
C697 C698 1.379 . S
C698 H682 0.931 . S
C698 C692 1.383 . S
C698 C697 1.379 . S
H699 C693 0.959 . S
H700 C693 0.961 . S
H701 C693 0.960 . S
H702 C694 0.930 . S
H703 C695 0.929 . S
H704 C712 0.929 . S
H705 C714 0.930 . S
H706 C716 0.930 . S
H707 C719 0.929 . S
H708 C722 0.930 . S
H709 C724 0.960 . S
H710 C724 0.960 . S
H711 C724 0.960 . S
C712 H704 0.929 . S
C712 C713 1.377 . S
C712 C714 1.384 . S
C713 C712 1.377 . S
C713 C719 1.390 . S
C714 H705 0.930 . S
C714 C712 1.384 . S
C714 C715 1.372 . S
C715 C714 1.372 . S
C715 C716 1.400 . S
C715 C720 1.490 . S
C716 H706 0.930 . S
C716 C715 1.400 . S
C716 C719 1.386 . S
H717 C733 0.930 . S
H718 C734 0.931 . S
C719 H707 0.929 . S
C719 C713 1.390 . S
C719 C716 1.386 . S
C720 C715 1.490 . S
C720 C722 1.395 . S
C720 C723 1.403 . S
H721 C727 0.930 . S
C722 H708 0.930 . S
C722 C720 1.395 . S
C722 C725 1.403 . S
C723 C720 1.403 . S
C723 C724 1.524 . S
C723 C727 1.400 . S
C724 H709 0.960 . S
C724 H710 0.960 . S
C724 H711 0.960 . S
C724 C723 1.524 . S
C725 C722 1.403 . S
C725 C726 1.392 . S
C725 C729 1.495 . S
C726 C725 1.392 . S
C726 C727 1.385 . S
C726 C728 1.478 . S
C727 H721 0.930 . S
C727 C723 1.400 . S
C727 C726 1.385 . S
C728 C726 1.478 . S
C728 C730 1.381 . S
C728 C734 1.383 . S
C729 C725 1.495 . S
C729 H735 0.959 . S
C729 H736 0.961 . S
C729 H737 0.960 . S
C730 C728 1.381 . S
C730 C731 1.394 . S
C730 H738 0.930 . S
C731 C730 1.394 . S
C731 C732 1.383 . S
C731 H739 0.929 . S
C732 C731 1.383 . S
C732 C733 1.377 . S
C733 H717 0.930 . S
C733 C732 1.377 . S
C733 C734 1.379 . S
C734 H718 0.931 . S
C734 C728 1.383 . S
C734 C733 1.379 . S
H735 C729 0.959 . S
H736 C729 0.961 . S
H737 C729 0.960 . S
H738 C730 0.930 . S
H739 C731 0.929 . S
H740 C748 0.929 . S
H741 C750 0.930 . S
H742 C752 0.930 . S
H743 C755 0.929 . S
H744 C758 0.930 . S
H745 C760 0.960 . S
H746 C760 0.960 . S
H747 C760 0.960 . S
C748 H740 0.929 . S
C748 C749 1.377 . S
C748 C750 1.384 . S
C749 C748 1.377 . S
C749 C755 1.390 . S
C750 H741 0.930 . S
C750 C748 1.384 . S
C750 C751 1.372 . S
C751 C750 1.372 . S
C751 C752 1.400 . S
C751 C756 1.490 . S
C752 H742 0.930 . S
C752 C751 1.400 . S
C752 C755 1.386 . S
H753 C769 0.930 . S
H754 C770 0.931 . S
C755 H743 0.929 . S
C755 C749 1.390 . S
C755 C752 1.386 . S
C756 C751 1.490 . S
C756 C758 1.395 . S
C756 C759 1.403 . S
H757 C763 0.930 . S
C758 H744 0.930 . S
C758 C756 1.395 . S
C758 C761 1.403 . S
C759 C756 1.403 . S
C759 C760 1.524 . S
C759 C763 1.400 . S
C760 H745 0.960 . S
C760 H746 0.960 . S
C760 H747 0.960 . S
C760 C759 1.524 . S
C761 C758 1.403 . S
C761 C762 1.392 . S
C761 C765 1.495 . S
C762 C761 1.392 . S
C762 C763 1.385 . S
C762 C764 1.478 . S
C763 H757 0.930 . S
C763 C759 1.400 . S
C763 C762 1.385 . S
C764 C762 1.478 . S
C764 C766 1.381 . S
C764 C770 1.383 . S
C765 C761 1.495 . S
C765 H771 0.959 . S
C765 H772 0.961 . S
C765 H773 0.960 . S
C766 C764 1.381 . S
C766 C767 1.394 1_455 S
C766 H774 0.930 . S
C767 C766 1.394 1_655 S
C767 C768 1.383 . S
C767 H775 0.929 . S
C768 C767 1.383 . S
C768 C769 1.377 1_655 S
C769 H753 0.930 . S
C769 C768 1.377 1_455 S
C769 C770 1.379 . S
C770 H754 0.931 . S
C770 C764 1.383 . S
C770 C769 1.379 . S
H771 C765 0.959 . S
H772 C765 0.961 . S
H773 C765 0.960 . S
H774 C766 0.930 . S
H775 C767 0.929 . S
H776 C784 0.929 . S
H777 C786 0.930 . S
H778 C788 0.930 . S
H779 C791 0.929 . S
H780 C794 0.930 . S
H781 C796 0.960 . S
H782 C796 0.960 . S
H783 C796 0.960 . S
C784 H776 0.929 . S
C784 C785 1.377 . S
C784 C786 1.384 . S
C785 C784 1.377 . S
C785 C791 1.390 . S
C786 H777 0.930 . S
C786 C784 1.384 . S
C786 C787 1.372 . S
C787 C786 1.372 . S
C787 C788 1.400 . S
C787 C792 1.490 . S
C788 H778 0.930 . S
C788 C787 1.400 . S
C788 C791 1.386 . S
H789 C805 0.930 . S
H790 C806 0.931 . S
C791 H779 0.929 . S
C791 C785 1.390 . S
C791 C788 1.386 . S
C792 C787 1.490 . S
C792 C794 1.395 . S
C792 C795 1.403 . S
H793 C799 0.930 . S
C794 H780 0.930 . S
C794 C792 1.395 . S
C794 C797 1.403 . S
C795 C792 1.403 . S
C795 C796 1.524 . S
C795 C799 1.400 . S
C796 H781 0.960 . S
C796 H782 0.960 . S
C796 H783 0.960 . S
C796 C795 1.524 . S
C797 C794 1.403 . S
C797 C798 1.392 . S
C797 C801 1.495 . S
C798 C797 1.392 . S
C798 C799 1.385 . S
C798 C800 1.478 . S
C799 H793 0.930 . S
C799 C795 1.400 . S
C799 C798 1.385 . S
C800 C798 1.478 . S
C800 C802 1.381 . S
C800 C806 1.383 . S
C801 C797 1.495 . S
C801 H807 0.959 . S
C801 H808 0.961 . S
C801 H809 0.960 . S
C802 C800 1.381 . S
C802 C803 1.394 . S
C802 H810 0.930 . S
C803 C802 1.394 . S
C803 C804 1.383 . S
C803 H811 0.929 . S
C804 C803 1.383 . S
C804 C805 1.377 . S
C805 H789 0.930 . S
C805 C804 1.377 . S
C805 C806 1.379 . S
C806 H790 0.931 . S
C806 C800 1.383 . S
C806 C805 1.379 . S
H807 C801 0.959 . S
H808 C801 0.961 . S
H809 C801 0.960 . S
H810 C802 0.930 . S
H811 C803 0.929 . S
H812 C820 0.929 . S
H813 C822 0.930 . S
H814 C824 0.930 . S
H815 C827 0.929 . S
H816 C830 0.930 . S
H817 C832 0.960 . S
H818 C832 0.960 . S
H819 C832 0.960 . S
C820 H812 0.929 . S
C820 C821 1.377 . S
C820 C822 1.384 . S
C821 C820 1.377 . S
C821 C827 1.390 . S
C822 H813 0.930 . S
C822 C820 1.384 . S
C822 C823 1.372 . S
C823 C822 1.372 . S
C823 C824 1.400 . S
C823 C828 1.490 . S
C824 H814 0.930 . S
C824 C823 1.400 . S
C824 C827 1.386 . S
H825 C841 0.930 . S
H826 C842 0.931 . S
C827 H815 0.929 . S
C827 C821 1.390 . S
C827 C824 1.386 . S
C828 C823 1.490 . S
C828 C830 1.395 . S
C828 C831 1.403 . S
H829 C835 0.930 . S
C830 H816 0.930 . S
C830 C828 1.395 . S
C830 C833 1.403 . S
C831 C828 1.403 . S
C831 C832 1.524 . S
C831 C835 1.400 . S
C832 H817 0.960 . S
C832 H818 0.960 . S
C832 H819 0.960 . S
C832 C831 1.524 . S
C833 C830 1.403 . S
C833 C834 1.392 . S
C833 C837 1.495 . S
C834 C833 1.392 . S
C834 C835 1.385 . S
C834 C836 1.478 . S
C835 H829 0.930 . S
C835 C831 1.400 . S
C835 C834 1.385 . S
C836 C834 1.478 . S
C836 C838 1.381 . S
C836 C842 1.383 . S
C837 C833 1.495 . S
C837 H843 0.959 . S
C837 H844 0.961 . S
C837 H845 0.960 . S
C838 C836 1.381 . S
C838 C839 1.394 . S
C838 H846 0.930 . S
C839 C838 1.394 . S
C839 C840 1.383 1_655 S
C839 H847 0.929 . S
C840 C839 1.383 1_455 S
C840 C841 1.377 . S
C841 H825 0.930 . S
C841 C840 1.377 . S
C841 C842 1.379 1_455 S
C842 H826 0.931 . S
C842 C836 1.383 . S
C842 C841 1.379 1_655 S
H843 C837 0.959 . S
H844 C837 0.961 . S
H845 C837 0.960 . S
H846 C838 0.930 . S
H847 C839 0.929 . S
H848 C856 0.929 . S
H849 C858 0.930 . S
H850 C860 0.930 . S
H851 C863 0.929 . S
H852 C866 0.930 . S
H853 C868 0.960 . S
H854 C868 0.960 . S
H855 C868 0.960 . S
C856 H848 0.929 . S
C856 C857 1.377 . S
C856 C858 1.384 . S
C857 C856 1.377 . S
C857 C863 1.390 . S
C858 H849 0.930 . S
C858 C856 1.384 . S
C858 C859 1.372 . S
C859 C858 1.372 . S
C859 C860 1.400 . S
C859 C864 1.490 . S
C860 H850 0.930 . S
C860 C859 1.400 . S
C860 C863 1.386 . S
H861 C877 0.930 1_455 S
H862 C878 0.931 . S
C863 H851 0.929 . S
C863 C857 1.390 . S
C863 C860 1.386 . S
C864 C859 1.490 . S
C864 C866 1.395 . S
C864 C867 1.403 . S
H865 C871 0.930 . S
C866 H852 0.930 . S
C866 C864 1.395 . S
C866 C869 1.403 . S
C867 C864 1.403 . S
C867 C868 1.524 . S
C867 C871 1.400 . S
C868 H853 0.960 . S
C868 H854 0.960 . S
C868 H855 0.960 . S
C868 C867 1.524 . S
C869 C866 1.403 . S
C869 C870 1.392 . S
C869 C873 1.495 . S
C870 C869 1.392 . S
C870 C871 1.385 . S
C870 C872 1.478 . S
C871 H865 0.930 . S
C871 C867 1.400 . S
C871 C870 1.385 . S
C872 C870 1.478 . S
C872 C874 1.381 . S
C872 C878 1.383 . S
C873 C869 1.495 . S
C873 H879 0.959 . S
C873 H880 0.961 . S
C873 H881 0.960 . S
C874 C872 1.381 . S
C874 C875 1.394 . S
C874 H882 0.930 . S
C875 C874 1.394 . S
C875 C876 1.383 . S
C875 H883 0.929 . S
C876 C875 1.383 . S
C876 C877 1.377 . S
C877 H861 0.930 1_655 S
C877 C876 1.377 . S
C877 C878 1.379 . S
C878 H862 0.931 . S
C878 C872 1.383 . S
C878 C877 1.379 . S
H879 C873 0.959 . S
H880 C873 0.961 . S
H881 C873 0.960 . S
H882 C874 0.930 . S
H883 C875 0.929 . S
H884 C892 0.929 . S
H885 C894 0.930 . S
H886 C896 0.930 . S
H887 C899 0.929 . S
H888 C902 0.930 . S
H889 C904 0.960 . S
H890 C904 0.960 . S
H891 C904 0.960 . S
C892 H884 0.929 . S
C892 C893 1.377 . S
C892 C894 1.384 . S
C893 C892 1.377 . S
C893 C899 1.390 . S
C894 H885 0.930 . S
C894 C892 1.384 . S
C894 C895 1.372 . S
C895 C894 1.372 . S
C895 C896 1.400 . S
C895 C900 1.490 . S
C896 H886 0.930 . S
C896 C895 1.400 . S
C896 C899 1.386 . S
H897 C913 0.930 . S
H898 C914 0.931 . S
C899 H887 0.929 . S
C899 C893 1.390 . S
C899 C896 1.386 . S
C900 C895 1.490 . S
C900 C902 1.395 . S
C900 C903 1.403 . S
H901 C907 0.930 . S
C902 H888 0.930 . S
C902 C900 1.395 . S
C902 C905 1.403 . S
C903 C900 1.403 . S
C903 C904 1.524 . S
C903 C907 1.400 . S
C904 H889 0.960 . S
C904 H890 0.960 . S
C904 H891 0.960 . S
C904 C903 1.524 . S
C905 C902 1.403 . S
C905 C906 1.392 . S
C905 C909 1.495 . S
C906 C905 1.392 . S
C906 C907 1.385 . S
C906 C908 1.478 . S
C907 H901 0.930 . S
C907 C903 1.400 . S
C907 C906 1.385 . S
C908 C906 1.478 . S
C908 C910 1.381 . S
C908 C914 1.383 . S
C909 C905 1.495 . S
C909 H915 0.959 . S
C909 H916 0.961 . S
C909 H917 0.960 . S
C910 C908 1.381 . S
C910 C911 1.394 . S
C910 H918 0.930 . S
C911 C910 1.394 . S
C911 C912 1.383 . S
C911 H919 0.929 . S
C912 C911 1.383 . S
C912 C913 1.377 . S
C913 H897 0.930 . S
C913 C912 1.377 . S
C913 C914 1.379 . S
C914 H898 0.931 . S
C914 C908 1.383 . S
C914 C913 1.379 . S
H915 C909 0.959 . S
H916 C909 0.961 . S
H917 C909 0.960 . S
H918 C910 0.930 . S
H919 C911 0.929 . S
H920 C928 0.929 1_655 S
H921 C930 0.930 . S
H922 C932 0.930 . S
H923 C935 0.929 . S
H924 C938 0.930 . S
H925 C940 0.960 . S
H926 C940 0.960 . S
H927 C940 0.960 . S
C928 H920 0.929 1_455 S
C928 C929 1.377 . S
C928 C930 1.384 . S
C929 C928 1.377 . S
C929 C935 1.390 . S
C930 H921 0.930 . S
C930 C928 1.384 . S
C930 C931 1.372 . S
C931 C930 1.372 . S
C931 C932 1.400 . S
C931 C936 1.490 . S
C932 H922 0.930 . S
C932 C931 1.400 . S
C932 C935 1.386 . S
H933 C949 0.930 . S
H934 C950 0.931 . S
C935 H923 0.929 . S
C935 C929 1.390 . S
C935 C932 1.386 . S
C936 C931 1.490 . S
C936 C938 1.395 . S
C936 C939 1.403 . S
H937 C943 0.930 . S
C938 H924 0.930 . S
C938 C936 1.395 . S
C938 C941 1.403 . S
C939 C936 1.403 . S
C939 C940 1.524 . S
C939 C943 1.400 . S
C940 H925 0.960 . S
C940 H926 0.960 . S
C940 H927 0.960 . S
C940 C939 1.524 . S
C941 C938 1.403 . S
C941 C942 1.392 . S
C941 C945 1.495 . S
C942 C941 1.392 . S
C942 C943 1.385 . S
C942 C944 1.478 . S
C943 H937 0.930 . S
C943 C939 1.400 . S
C943 C942 1.385 . S
C944 C942 1.478 . S
C944 C946 1.381 . S
C944 C950 1.383 . S
C945 C941 1.495 . S
C945 H951 0.959 . S
C945 H952 0.961 . S
C945 H953 0.960 . S
C946 C944 1.381 . S
C946 C947 1.394 . S
C946 H954 0.930 . S
C947 C946 1.394 . S
C947 C948 1.383 . S
C947 H955 0.929 1_565 S
C948 C947 1.383 . S
C948 C949 1.377 . S
C949 H933 0.930 . S
C949 C948 1.377 . S
C949 C950 1.379 . S
C950 H934 0.931 . S
C950 C944 1.383 . S
C950 C949 1.379 . S
H951 C945 0.959 . S
H952 C945 0.961 . S
H953 C945 0.960 . S
H954 C946 0.930 . S
H955 C947 0.929 1_545 S
H956 C964 0.929 . S
H957 C966 0.930 . S
H958 C968 0.930 1_554 S
H959 C971 0.929 . S
H960 C974 0.930 . S
H961 C976 0.960 . S
H962 C976 0.960 . S
H963 C976 0.960 . S
C964 H956 0.929 . S
C964 C965 1.377 . S
C964 C966 1.384 . S
C965 C964 1.377 . S
C965 C971 1.390 . S
C966 H957 0.930 . S
C966 C964 1.384 . S
C966 C967 1.372 . S
C967 C966 1.372 . S
C967 C968 1.400 . S
C967 C972 1.490 . S
C968 H958 0.930 1_556 S
C968 C967 1.400 . S
C968 C971 1.386 . S
H969 C985 0.930 . S
H970 C986 0.931 . S
C971 H959 0.929 . S
C971 C965 1.390 . S
C971 C968 1.386 . S
C972 C967 1.490 . S
C972 C974 1.395 . S
C972 C975 1.403 1_556 S
H973 C979 0.930 . S
C974 H960 0.930 . S
C974 C972 1.395 . S
C974 C977 1.403 . S
C975 C972 1.403 1_554 S
C975 C976 1.524 . S
C975 C979 1.400 . S
C976 H961 0.960 . S
C976 H962 0.960 . S
C976 H963 0.960 . S
C976 C975 1.524 . S
C977 C974 1.403 . S
C977 C978 1.392 1_556 S
C977 C981 1.495 . S
C978 C977 1.392 1_554 S
C978 C979 1.385 . S
C978 C980 1.478 . S
C979 H973 0.930 . S
C979 C975 1.400 . S
C979 C978 1.385 . S
C980 C978 1.478 . S
C980 C982 1.381 . S
C980 C986 1.383 . S
C981 C977 1.495 . S
C981 H987 0.959 . S
C981 H988 0.961 . S
C981 H989 0.960 . S
C982 C980 1.381 . S
C982 C983 1.394 . S
C982 H990 0.930 1_554 S
C983 C982 1.394 . S
C983 C984 1.383 . S
C983 H991 0.929 . S
C984 C983 1.383 . S
C984 C985 1.377 . S
C985 H969 0.930 . S
C985 C984 1.377 . S
C985 C986 1.379 . S
C986 H970 0.931 . S
C986 C980 1.383 . S
C986 C985 1.379 . S
H987 C981 0.959 . S
H988 C981 0.961 . S
H989 C981 0.960 . S
H990 C982 0.930 1_556 S
H991 C983 0.929 . S
C281 C20 1.234 . S
C300 C36 1.238 . S
C317 C70 1.239 . S
C336 C54 1.239 . S
C353 C104 1.239 . S
C372 C88 1.225 . S
C389 C122 1.234 . S
C408 C2 1.235 . S
C425 C156 1.236 . S
C444 C240 1.233 . S
C461 C190 1.235 . S
C480 C138 1.234 . S
C497 C224 1.237 . S
C516 C172 1.233 . S
C533 C258 1.235 . S
C552 C206 1.239 . S
C569 C213 1.327 . S
C588 C33 1.354 . S
C605 C247 1.326 . S
C624 C67 1.356 . S
C641 C145 1.331 . S
C660 C101 1.350 . S
C677 C179 1.320 . S
C696 C135 1.368 . S
C713 C169 1.361 . S
C732 C77 1.344 . S
C749 C203 1.364 . S
C768 C111 1.295 . S
C785 C237 1.361 . S
C804 C9 1.334 . S
C821 C271 1.361 . S
C840 C43 1.327 . S
C857 C243 1.737 1_545 S
C876 C5 1.724 1_655 S
C893 C141 1.738 . S
C912 C39 1.737 . S
C929 C73 1.738 1_455 S
C948 C175 1.738 1_565 S
C965 C107 1.735 . S
C984 C209 1.736 . S
