# Generated by pormake.
# Topology som, (6)-cn, num edge types: 1
# Building blocks:
#     Node 0, Type 0, BuildingBlock: BETDIP_clean_sbu_0, # of connection points: 6
#     Node 1, Type 0, BuildingBlock: BETDIP_clean_sbu_0, # of connection points: 6
#     Node 2, Type 0, BuildingBlock: BETDIP_clean_sbu_0, # of connection points: 6
#     Node 3, Type 0, BuildingBlock: BETDIP_clean_sbu_0, # of connection points: 6
#     Node 4, Type 0, BuildingBlock: BETDIP_clean_sbu_0, # of connection points: 6
#     Node 5, Type 0, BuildingBlock: BETDIP_clean_sbu_0, # of connection points: 6
#     Node 6, Type 0, BuildingBlock: BETDIP_clean_sbu_0, # of connection points: 6
#     Node 7, Type 0, BuildingBlock: BETDIP_clean_sbu_0, # of connection points: 6
#     Node 8, Type 0, BuildingBlock: BETDIP_clean_sbu_0, # of connection points: 6
#     Node 9, Type 0, BuildingBlock: BETDIP_clean_sbu_0, # of connection points: 6
#     Node 10, Type 0, BuildingBlock: BETDIP_clean_sbu_0, # of connection points: 6
#     Node 11, Type 0, BuildingBlock: BETDIP_clean_sbu_0, # of connection points: 6
#     Node 12, Type 0, BuildingBlock: BETDIP_clean_sbu_0, # of connection points: 6
#     Node 13, Type 0, BuildingBlock: BETDIP_clean_sbu_0, # of connection points: 6
#     Node 14, Type 0, BuildingBlock: BETDIP_clean_sbu_0, # of connection points: 6
#     Node 15, Type 0, BuildingBlock: BETDIP_clean_sbu_0, # of connection points: 6
#     Node 16, Type 0, BuildingBlock: BETDIP_clean_sbu_0, # of connection points: 6
#     Node 17, Type 0, BuildingBlock: BETDIP_clean_sbu_0, # of connection points: 6
#     Node 18, Type 0, BuildingBlock: BETDIP_clean_sbu_0, # of connection points: 6
#     Node 19, Type 0, BuildingBlock: BETDIP_clean_sbu_0, # of connection points: 6
#     Node 20, Type 0, BuildingBlock: BETDIP_clean_sbu_0, # of connection points: 6
#     Node 21, Type 0, BuildingBlock: BETDIP_clean_sbu_0, # of connection points: 6
#     Node 22, Type 0, BuildingBlock: BETDIP_clean_sbu_0, # of connection points: 6
#     Node 23, Type 0, BuildingBlock: BETDIP_clean_sbu_0, # of connection points: 6
#     Node 24, Type 0, BuildingBlock: BETDIP_clean_sbu_0, # of connection points: 6
#     Node 25, Type 0, BuildingBlock: BETDIP_clean_sbu_0, # of connection points: 6
#     Node 26, Type 0, BuildingBlock: BETDIP_clean_sbu_0, # of connection points: 6
#     Node 27, Type 0, BuildingBlock: BETDIP_clean_sbu_0, # of connection points: 6
#     Node 28, Type 0, BuildingBlock: BETDIP_clean_sbu_0, # of connection points: 6
#     Node 29, Type 0, BuildingBlock: BETDIP_clean_sbu_0, # of connection points: 6
#     Node 30, Type 0, BuildingBlock: BETDIP_clean_sbu_0, # of connection points: 6
#     Node 31, Type 0, BuildingBlock: BETDIP_clean_sbu_0, # of connection points: 6
#     Edge 32, Type (0, 0), BuildingBlock: XIVTED_clean_linker_0, # of connection points: 2
#     Edge 33, Type (0, 0), BuildingBlock: XIVTED_clean_linker_0, # of connection points: 2
#     Edge 34, Type (0, 0), BuildingBlock: XIVTED_clean_linker_0, # of connection points: 2
#     Edge 35, Type (0, 0), BuildingBlock: XIVTED_clean_linker_0, # of connection points: 2
#     Edge 36, Type (0, 0), BuildingBlock: XIVTED_clean_linker_0, # of connection points: 2
#     Edge 37, Type (0, 0), BuildingBlock: XIVTED_clean_linker_0, # of connection points: 2
#     Edge 38, Type (0, 0), BuildingBlock: XIVTED_clean_linker_0, # of connection points: 2
#     Edge 39, Type (0, 0), BuildingBlock: XIVTED_clean_linker_0, # of connection points: 2
#     Edge 40, Type (0, 0), BuildingBlock: XIVTED_clean_linker_0, # of connection points: 2
#     Edge 41, Type (0, 0), BuildingBlock: XIVTED_clean_linker_0, # of connection points: 2
#     Edge 42, Type (0, 0), BuildingBlock: XIVTED_clean_linker_0, # of connection points: 2
#     Edge 43, Type (0, 0), BuildingBlock: XIVTED_clean_linker_0, # of connection points: 2
#     Edge 44, Type (0, 0), BuildingBlock: XIVTED_clean_linker_0, # of connection points: 2
#     Edge 45, Type (0, 0), BuildingBlock: XIVTED_clean_linker_0, # of connection points: 2
#     Edge 46, Type (0, 0), BuildingBlock: XIVTED_clean_linker_0, # of connection points: 2
#     Edge 47, Type (0, 0), BuildingBlock: XIVTED_clean_linker_0, # of connection points: 2
#     Edge 48, Type (0, 0), BuildingBlock: XIVTED_clean_linker_0, # of connection points: 2
#     Edge 49, Type (0, 0), BuildingBlock: XIVTED_clean_linker_0, # of connection points: 2
#     Edge 50, Type (0, 0), BuildingBlock: XIVTED_clean_linker_0, # of connection points: 2
#     Edge 51, Type (0, 0), BuildingBlock: XIVTED_clean_linker_0, # of connection points: 2
#     Edge 52, Type (0, 0), BuildingBlock: XIVTED_clean_linker_0, # of connection points: 2
#     Edge 53, Type (0, 0), BuildingBlock: XIVTED_clean_linker_0, # of connection points: 2
#     Edge 54, Type (0, 0), BuildingBlock: XIVTED_clean_linker_0, # of connection points: 2
#     Edge 55, Type (0, 0), BuildingBlock: XIVTED_clean_linker_0, # of connection points: 2
#     Edge 56, Type (0, 0), BuildingBlock: XIVTED_clean_linker_0, # of connection points: 2
#     Edge 57, Type (0, 0), BuildingBlock: XIVTED_clean_linker_0, # of connection points: 2
#     Edge 58, Type (0, 0), BuildingBlock: XIVTED_clean_linker_0, # of connection points: 2
#     Edge 59, Type (0, 0), BuildingBlock: XIVTED_clean_linker_0, # of connection points: 2
#     Edge 60, Type (0, 0), BuildingBlock: XIVTED_clean_linker_0, # of connection points: 2
#     Edge 61, Type (0, 0), BuildingBlock: XIVTED_clean_linker_0, # of connection points: 2
#     Edge 62, Type (0, 0), BuildingBlock: XIVTED_clean_linker_0, # of connection points: 2
#     Edge 63, Type (0, 0), BuildingBlock: XIVTED_clean_linker_0, # of connection points: 2
#     Edge 64, Type (0, 0), BuildingBlock: XIVTED_clean_linker_0, # of connection points: 2
#     Edge 65, Type (0, 0), BuildingBlock: XIVTED_clean_linker_0, # of connection points: 2
#     Edge 66, Type (0, 0), BuildingBlock: XIVTED_clean_linker_0, # of connection points: 2
#     Edge 67, Type (0, 0), BuildingBlock: XIVTED_clean_linker_0, # of connection points: 2
#     Edge 68, Type (0, 0), BuildingBlock: XIVTED_clean_linker_0, # of connection points: 2
#     Edge 69, Type (0, 0), BuildingBlock: XIVTED_clean_linker_0, # of connection points: 2
#     Edge 70, Type (0, 0), BuildingBlock: XIVTED_clean_linker_0, # of connection points: 2
#     Edge 71, Type (0, 0), BuildingBlock: XIVTED_clean_linker_0, # of connection points: 2
#     Edge 72, Type (0, 0), BuildingBlock: XIVTED_clean_linker_0, # of connection points: 2
#     Edge 73, Type (0, 0), BuildingBlock: XIVTED_clean_linker_0, # of connection points: 2
#     Edge 74, Type (0, 0), BuildingBlock: XIVTED_clean_linker_0, # of connection points: 2
#     Edge 75, Type (0, 0), BuildingBlock: XIVTED_clean_linker_0, # of connection points: 2
#     Edge 76, Type (0, 0), BuildingBlock: XIVTED_clean_linker_0, # of connection points: 2
#     Edge 77, Type (0, 0), BuildingBlock: XIVTED_clean_linker_0, # of connection points: 2
#     Edge 78, Type (0, 0), BuildingBlock: XIVTED_clean_linker_0, # of connection points: 2
#     Edge 79, Type (0, 0), BuildingBlock: XIVTED_clean_linker_0, # of connection points: 2
#     Edge 80, Type (0, 0), BuildingBlock: XIVTED_clean_linker_0, # of connection points: 2
#     Edge 81, Type (0, 0), BuildingBlock: XIVTED_clean_linker_0, # of connection points: 2
#     Edge 82, Type (0, 0), BuildingBlock: XIVTED_clean_linker_0, # of connection points: 2
#     Edge 83, Type (0, 0), BuildingBlock: XIVTED_clean_linker_0, # of connection points: 2
#     Edge 84, Type (0, 0), BuildingBlock: XIVTED_clean_linker_0, # of connection points: 2
#     Edge 85, Type (0, 0), BuildingBlock: XIVTED_clean_linker_0, # of connection points: 2
#     Edge 86, Type (0, 0), BuildingBlock: XIVTED_clean_linker_0, # of connection points: 2
#     Edge 87, Type (0, 0), BuildingBlock: XIVTED_clean_linker_0, # of connection points: 2
#     Edge 88, Type (0, 0), BuildingBlock: XIVTED_clean_linker_0, # of connection points: 2
#     Edge 89, Type (0, 0), BuildingBlock: XIVTED_clean_linker_0, # of connection points: 2
#     Edge 90, Type (0, 0), BuildingBlock: XIVTED_clean_linker_0, # of connection points: 2
#     Edge 91, Type (0, 0), BuildingBlock: XIVTED_clean_linker_0, # of connection points: 2
#     Edge 92, Type (0, 0), BuildingBlock: XIVTED_clean_linker_0, # of connection points: 2
#     Edge 93, Type (0, 0), BuildingBlock: XIVTED_clean_linker_0, # of connection points: 2
#     Edge 94, Type (0, 0), BuildingBlock: XIVTED_clean_linker_0, # of connection points: 2
#     Edge 95, Type (0, 0), BuildingBlock: XIVTED_clean_linker_0, # of connection points: 2
#     Edge 96, Type (0, 0), BuildingBlock: XIVTED_clean_linker_0, # of connection points: 2
#     Edge 97, Type (0, 0), BuildingBlock: XIVTED_clean_linker_0, # of connection points: 2
#     Edge 98, Type (0, 0), BuildingBlock: XIVTED_clean_linker_0, # of connection points: 2
#     Edge 99, Type (0, 0), BuildingBlock: XIVTED_clean_linker_0, # of connection points: 2
#     Edge 100, Type (0, 0), BuildingBlock: XIVTED_clean_linker_0, # of connection points: 2
#     Edge 101, Type (0, 0), BuildingBlock: XIVTED_clean_linker_0, # of connection points: 2
#     Edge 102, Type (0, 0), BuildingBlock: XIVTED_clean_linker_0, # of connection points: 2
#     Edge 103, Type (0, 0), BuildingBlock: XIVTED_clean_linker_0, # of connection points: 2
#     Edge 104, Type (0, 0), BuildingBlock: XIVTED_clean_linker_0, # of connection points: 2
#     Edge 105, Type (0, 0), BuildingBlock: XIVTED_clean_linker_0, # of connection points: 2
#     Edge 106, Type (0, 0), BuildingBlock: XIVTED_clean_linker_0, # of connection points: 2
#     Edge 107, Type (0, 0), BuildingBlock: XIVTED_clean_linker_0, # of connection points: 2
#     Edge 108, Type (0, 0), BuildingBlock: XIVTED_clean_linker_0, # of connection points: 2
#     Edge 109, Type (0, 0), BuildingBlock: XIVTED_clean_linker_0, # of connection points: 2
#     Edge 110, Type (0, 0), BuildingBlock: XIVTED_clean_linker_0, # of connection points: 2
#     Edge 111, Type (0, 0), BuildingBlock: XIVTED_clean_linker_0, # of connection points: 2
#     Edge 112, Type (0, 0), BuildingBlock: XIVTED_clean_linker_0, # of connection points: 2
#     Edge 113, Type (0, 0), BuildingBlock: XIVTED_clean_linker_0, # of connection points: 2
#     Edge 114, Type (0, 0), BuildingBlock: XIVTED_clean_linker_0, # of connection points: 2
#     Edge 115, Type (0, 0), BuildingBlock: XIVTED_clean_linker_0, # of connection points: 2
#     Edge 116, Type (0, 0), BuildingBlock: XIVTED_clean_linker_0, # of connection points: 2
#     Edge 117, Type (0, 0), BuildingBlock: XIVTED_clean_linker_0, # of connection points: 2
#     Edge 118, Type (0, 0), BuildingBlock: XIVTED_clean_linker_0, # of connection points: 2
#     Edge 119, Type (0, 0), BuildingBlock: XIVTED_clean_linker_0, # of connection points: 2
#     Edge 120, Type (0, 0), BuildingBlock: XIVTED_clean_linker_0, # of connection points: 2
#     Edge 121, Type (0, 0), BuildingBlock: XIVTED_clean_linker_0, # of connection points: 2
#     Edge 122, Type (0, 0), BuildingBlock: XIVTED_clean_linker_0, # of connection points: 2
#     Edge 123, Type (0, 0), BuildingBlock: XIVTED_clean_linker_0, # of connection points: 2
#     Edge 124, Type (0, 0), BuildingBlock: XIVTED_clean_linker_0, # of connection points: 2
#     Edge 125, Type (0, 0), BuildingBlock: XIVTED_clean_linker_0, # of connection points: 2
#     Edge 126, Type (0, 0), BuildingBlock: XIVTED_clean_linker_0, # of connection points: 2
#     Edge 127, Type (0, 0), BuildingBlock: XIVTED_clean_linker_0, # of connection points: 2
# Relax obj value: 0.064
# Max RMSD: 0.130
# Mean RMSD: 0.130
data_MOF--net-som--node1-BETDIP_clean_sbu_0--edge1-XIVTED_clean_linker_0
_symmetry_space_group_name_H-M    P1
_symmetry_Int_Tables_number       1
_symmetry_cell_setting            triclinic
loop_
_symmetry_equiv_pos_as_xyz
'x, y, z'
_cell_length_a     25.771367
_cell_length_b     56.044982
_cell_length_c     109.70608
_cell_angle_alpha  89.993178
_cell_angle_beta   89.952769
_cell_angle_gamma 90.034281
loop_
_atom_site_label
_atom_site_type_symbol
_atom_site_fract_x
_atom_site_fract_y
_atom_site_fract_z
_atom_type_partial_charge
Tb0 Tb 0.9846 0.49444 0.08762 0.0
Tb1 Tb 0.08884 0.47061 0.08843 0.0
C2 C 0.89375 0.50801 0.0827 0.0
C3 C 0.83892 0.50046 0.08345 0.0
C4 C 0.80535 0.50653 0.07389 0.0
C5 C 0.75221 0.50175 0.07472 0.0
C6 C 0.73133 0.49084 0.08519 0.0
C7 C 0.76534 0.48419 0.09465 0.0
C8 C 0.81867 0.4889 0.09378 0.0
C9 C 0.03053 0.49315 0.10922 0.0
C10 C 0.99086 0.43832 0.09113 0.0
C11 C 0.17954 0.4575 0.09394 0.0
C12 C 0.23453 0.46469 0.09302 0.0
C13 C 0.26784 0.45946 0.10275 0.0
C14 C 0.32107 0.46395 0.10184 0.0
C15 C 0.34229 0.47379 0.09114 0.0
C16 C 0.30851 0.47961 0.08149 0.0
C17 C 0.2551 0.47513 0.08242 0.0
C18 C 0.04601 0.472 0.06652 0.0
C19 C 0.07907 0.5273 0.08486 0.0
O20 O 0.92351 0.49665 0.07496 0.0
O21 O 0.91754 0.51277 0.09295 0.0
O22 O 0.02957 0.47688 0.10135 0.0
O23 O 1.00256 0.51082 0.10539 0.0
O24 O 0.96311 0.45687 0.08759 0.0
O25 O 0.0409 0.44023 0.09368 0.0
O26 O 0.14985 0.47005 0.10117 0.0
O27 O 0.15589 0.45145 0.08386 0.0
O28 O 0.04469 0.48825 0.07447 0.0
O29 O 0.07501 0.45486 0.07054 0.0
O30 O 0.1085 0.50908 0.08837 0.0
O31 O 0.03002 0.52439 0.08189 0.0
H32 H 0.8201 0.51557 0.06587 0.0
H33 H 0.72726 0.50739 0.06733 0.0
H34 H 0.7507 0.47546 0.10276 0.0
H35 H 0.84383 0.48393 0.10126 0.0
H36 H 0.25281 0.45129 0.11099 0.0
H37 H 0.34579 0.45896 0.1094 0.0
H38 H 0.32337 0.48753 0.07318 0.0
H39 H 0.23012 0.47943 0.0748 0.0
Tb40 Tb 0.31137 0.72669 0.08931 0.0
Tb41 Tb 0.2074 0.75057 0.08998 0.0
C42 C 0.40238 0.71315 0.08456 0.0
C43 C 0.45717 0.72092 0.08535 0.0
C44 C 0.48736 0.72128 0.0747 0.0
C45 C 0.54065 0.72584 0.07526 0.0
C46 C 0.56515 0.73 0.08652 0.0
C47 C 0.53451 0.7304 0.09716 0.0
C48 C 0.4811 0.7259 0.09658 0.0
C49 C 0.2653 0.72841 0.1109 0.0
C50 C 0.30541 0.78287 0.09239 0.0
C51 C 0.11673 0.76361 0.09551 0.0
C52 C 0.06172 0.75639 0.09446 0.0
C53 C 0.03113 0.75565 0.10504 0.0
C54 C 0.97773 0.7515 0.1043 0.0
C55 C 0.95357 0.7481 0.09294 0.0
C56 C 0.9846 0.74808 0.08236 0.0
C57 C 0.03813 0.75221 0.08311 0.0
C58 C 0.25021 0.74876 0.06806 0.0
C59 C 0.21696 0.69382 0.0865 0.0
O60 O 0.37268 0.72425 0.07672 0.0
O61 O 0.37816 0.70831 0.09476 0.0
O62 O 0.26644 0.74457 0.10297 0.0
O63 O 0.29312 0.71063 0.10714 0.0
O64 O 0.33306 0.76418 0.08902 0.0
O65 O 0.25537 0.7811 0.09498 0.0
O66 O 0.14626 0.75085 0.10269 0.0
O67 O 0.14081 0.77016 0.08556 0.0
O68 O 0.25157 0.73268 0.0761 0.0
O69 O 0.22094 0.76591 0.07196 0.0
O70 O 0.18737 0.71209 0.08987 0.0
O71 O 0.26615 0.69668 0.08365 0.0
H72 H 0.46991 0.71744 0.06593 0.0
H73 H 0.56276 0.72584 0.06687 0.0
H74 H 0.55206 0.73333 0.106 0.0
H75 H 0.45892 0.72566 0.10497 0.0
H76 H 0.0484 0.75885 0.1139 0.0
H77 H 0.95529 0.75118 0.11265 0.0
H78 H 0.9673 0.74572 0.07345 0.0
H79 H 0.0607 0.75273 0.07478 0.0
Tb80 Tb 0.99141 0.72762 0.20733 0.0
Tb81 Tb 0.09443 0.75193 0.20722 0.0
C82 C 0.89997 0.71365 0.21129 0.0
C83 C 0.8452 0.7211 0.20975 0.0
C84 C 0.82269 0.7388 0.21714 0.0
C85 C 0.76945 0.74362 0.21641 0.0
C86 C 0.7376 0.73086 0.20828 0.0
C87 C 0.76051 0.7136 0.20069 0.0
C88 C 0.81358 0.70873 0.20146 0.0
C89 C 0.0403 0.72845 0.18609 0.0
C90 C 0.9965 0.78371 0.20369 0.0
C91 C 0.18594 0.76537 0.2027 0.0
C92 C 0.24083 0.75815 0.20434 0.0
C93 C 0.26426 0.7412 0.19665 0.0
C94 C 0.31762 0.73672 0.1974 0.0
C95 C 0.34877 0.74911 0.20582 0.0
C96 C 0.32499 0.76561 0.2137 0.0
C97 C 0.27175 0.77013 0.21293 0.0
C98 C 0.04882 0.75045 0.22887 0.0
C99 C 0.08592 0.69528 0.21095 0.0
O100 O 0.92825 0.72502 0.21934 0.0
O101 O 0.92599 0.70865 0.20137 0.0
O102 O 0.03775 0.7451 0.19374 0.0
O103 O 1.01248 0.71074 0.18992 0.0
O104 O 0.96882 0.76506 0.20714 0.0
O105 O 0.04683 0.782 0.20145 0.0
O106 O 0.15743 0.75303 0.1951 0.0
O107 O 0.16014 0.77153 0.21246 0.0
O108 O 0.04918 0.73413 0.22096 0.0
O109 O 0.07726 0.76786 0.22494 0.0
O110 O 0.11519 0.71358 0.20746 0.0
O111 O 0.03656 0.69806 0.21367 0.0
H112 H 0.84587 0.74861 0.22367 0.0
H113 H 0.75314 0.75721 0.22229 0.0
H114 H 0.7371 0.70321 0.19445 0.0
H115 H 0.82968 0.69476 0.19577 0.0
H116 H 0.24171 0.73178 0.18985 0.0
H117 H 0.33456 0.72369 0.19129 0.0
H118 H 0.34781 0.77573 0.22017 0.0
H119 H 0.25503 0.78357 0.21884 0.0
Tb120 Tb 0.31084 0.4954 0.20454 0.0
Tb121 Tb 0.20783 0.47103 0.20507 0.0
C122 C 0.40233 0.5099 0.20789 0.0
C123 C 0.45721 0.50297 0.20623 0.0
C124 C 0.47737 0.48156 0.21093 0.0
C125 C 0.53068 0.47677 0.21018 0.0
C126 C 0.56476 0.49324 0.20468 0.0
C127 C 0.54406 0.51432 0.19972 0.0
C128 C 0.49097 0.51912 0.20052 0.0
C129 C 0.25964 0.49446 0.18362 0.0
C130 C 0.30562 0.43926 0.20124 0.0
C131 C 0.1163 0.4571 0.20104 0.0
C132 C 0.06131 0.46394 0.20267 0.0
C133 C 0.04072 0.485 0.19767 0.0
C134 C 0.98732 0.4896 0.19834 0.0
C135 C 0.95352 0.47328 0.20405 0.0
C136 C 0.97461 0.45254 0.20929 0.0
C137 C 0.0278 0.44793 0.20858 0.0
C138 C 0.25591 0.47232 0.2264 0.0
C139 C 0.21648 0.52762 0.20886 0.0
O140 O 0.3751 0.49852 0.21614 0.0
O141 O 0.37559 0.51428 0.19802 0.0
O142 O 0.26314 0.47783 0.19126 0.0
O143 O 0.28761 0.51225 0.18728 0.0
O144 O 0.33363 0.45801 0.20436 0.0
O145 O 0.25509 0.44087 0.19927 0.0
O146 O 0.14417 0.46918 0.1932 0.0
O147 O 0.14239 0.45174 0.21088 0.0
O148 O 0.25462 0.48876 0.21855 0.0
O149 O 0.22718 0.45491 0.22259 0.0
O150 O 0.18676 0.50935 0.20555 0.0
O151 O 0.26618 0.52484 0.21118 0.0
H152 H 0.45221 0.46873 0.21537 0.0
H153 H 0.54524 0.46023 0.21396 0.0
H154 H 0.56912 0.52755 0.19557 0.0
H155 H 0.4764 0.53583 0.19691 0.0
H156 H 0.0656 0.49769 0.19305 0.0
H157 H 0.97247 0.50588 0.19434 0.0
H158 H 0.9498 0.43941 0.2136 0.0
H159 H 0.04265 0.43146 0.2124 0.0
Tb160 Tb 0.95554 0.501 0.95469 0.0
Tb161 Tb 0.06015 0.47753 0.95547 0.0
C162 C 0.86497 0.51402 0.94902 0.0
C163 C 0.80991 0.50705 0.94993 0.0
C164 C 0.77615 0.51374 0.94053 0.0
C165 C 0.72291 0.50936 0.94147 0.0
C166 C 0.70215 0.49814 0.95186 0.0
C167 C 0.73638 0.49091 0.96117 0.0
C168 C 0.78983 0.49529 0.96021 0.0
C169 C 0.99831 0.49999 0.97659 0.0
C170 C 0.9662 0.44439 0.95852 0.0
C171 C 0.15111 0.46396 0.96026 0.0
C172 C 0.20584 0.47165 0.9597 0.0
C173 C 0.23977 0.46407 0.9689 0.0
C174 C 0.29286 0.46898 0.96814 0.0
C175 C 0.31328 0.48155 0.95812 0.0
C176 C 0.27887 0.48972 0.94906 0.0
C177 C 0.22558 0.48486 0.94985 0.0
C178 C 1.01347 0.47835 0.93395 0.0
C179 C 0.05319 0.53356 0.95205 0.0
O180 O 0.89462 0.50115 0.94193 0.0
O181 O 0.88843 0.52026 0.95909 0.0
O182 O 1.00023 0.48367 0.96867 0.0
O183 O 0.96877 0.51691 0.97256 0.0
O184 O 0.93615 0.46246 0.95508 0.0
O185 O 1.01538 0.4475 0.9613 0.0
O186 O 0.12108 0.47478 0.96815 0.0
O187 O 0.12763 0.45983 0.9499 0.0
O188 O 1.01469 0.49477 0.94173 0.0
O189 O 0.04157 0.46077 0.93783 0.0
O190 O 0.08117 0.51509 0.95557 0.0
O191 O 1.00318 0.53153 0.94948 0.0
H192 H 0.79086 0.52294 0.93255 0.0
H193 H 0.69785 0.51547 0.93419 0.0
H194 H 0.72186 0.48193 0.96922 0.0
H195 H 0.81524 0.48987 0.96757 0.0
H196 H 0.22537 0.45375 0.97654 0.0
H197 H 0.31814 0.46216 0.97521 0.0
H198 H 0.29317 0.49973 0.94131 0.0
H199 H 0.20006 0.49101 0.94267 0.0
Tb200 Tb 0.8405 0.22086 0.95626 0.0
Tb201 Tb 0.73752 0.24518 0.9559 0.0
C202 C 0.93204 0.20714 0.95208 0.0
C203 C 0.98699 0.21408 0.95374 0.0
C204 C 1.00809 0.23456 0.94823 0.0
C205 C 0.06147 0.23916 0.94891 0.0
C206 C 0.09481 0.2234 0.95513 0.0
C207 C 0.07324 0.20327 0.96087 0.0
C208 C 1.02004 0.19865 0.96015 0.0
C209 C 0.79316 0.222 0.97768 0.0
C210 C 0.83173 0.27742 0.96012 0.0
C211 C 0.64603 0.25959 0.9593 0.0
C212 C 0.59119 0.25258 0.95759 0.0
C213 C 0.57056 0.23159 0.96267 0.0
C214 C 0.51726 0.22683 0.9619 0.0
C215 C 0.48362 0.24291 0.956 0.0
C216 C 0.50478 0.26354 0.95065 0.0
C217 C 0.55788 0.26832 0.95147 0.0
C218 C 0.78854 0.2441 0.9349 0.0
C219 C 0.74266 0.18911 0.95244 0.0
O220 O 0.90406 0.21935 0.94433 0.0
O221 O 0.90598 0.20146 0.96188 0.0
O222 O 0.79393 0.2385 0.96985 0.0
O223 O 0.82185 0.20465 0.97379 0.0
O224 O 0.86128 0.25922 0.95664 0.0
O225 O 0.78222 0.27452 0.96263 0.0
O226 O 0.67319 0.24811 0.96751 0.0
O227 O 0.6729 0.26419 0.94946 0.0
O228 O 0.78477 0.22759 0.94258 0.0
O229 O 0.76092 0.26199 0.93858 0.0
O230 O 0.71476 0.20777 0.95574 0.0
O231 O 0.79312 0.19082 0.95036 0.0
H232 H 0.98363 0.2468 0.94319 0.0
H233 H 0.07669 0.25499 0.94451 0.0
H234 H 0.09771 0.19056 0.96558 0.0
H235 H 1.00486 0.1826 0.96435 0.0
H236 H 0.59533 0.21907 0.96743 0.0
H237 H 0.50233 0.21062 0.96598 0.0
H238 H 0.48004 0.27647 0.94617 0.0
H239 H 0.57278 0.28473 0.94757 0.0
Tb240 Tb 0.96194 0.22189 0.84009 0.0
Tb241 Tb 0.06635 0.2455 0.83926 0.0
C242 C 0.87109 0.20922 0.84574 0.0
C243 C 0.81628 0.21666 0.84473 0.0
C244 C 0.78437 0.21493 0.85505 0.0
C245 C 0.73118 0.21953 0.85422 0.0
C246 C 0.7086 0.22589 0.84301 0.0
C247 C 0.74096 0.22824 0.83273 0.0
C248 C 0.79431 0.2237 0.83357 0.0
C249 C 1.00457 0.22302 0.81816 0.0
C250 C 0.97228 0.27853 0.83625 0.0
C251 C 0.15752 0.2588 0.83444 0.0
C252 C 0.21217 0.25096 0.83527 0.0
C253 C 0.24421 0.25347 0.82501 0.0
C254 C 0.29734 0.24865 0.82575 0.0
C255 C 0.31973 0.24131 0.83682 0.0
C256 C 0.28726 0.23816 0.84703 0.0
C257 C 0.23398 0.24289 0.84626 0.0
C258 C 1.01997 0.24453 0.86082 0.0
C259 C 0.05939 0.18936 0.84267 0.0
O260 O 0.90098 0.22191 0.85286 0.0
O261 O 0.89479 0.2026 0.83575 0.0
O262 O 1.00645 0.23933 0.82608 0.0
O263 O 0.97509 0.20606 0.8222 0.0
O264 O 0.94251 0.26039 0.83974 0.0
O265 O 1.02147 0.27553 0.83342 0.0
O266 O 0.12772 0.24761 0.82665 0.0
O267 O 0.13343 0.26375 0.84464 0.0
O268 O 1.02113 0.22815 0.85302 0.0
O269 O 0.04805 0.26214 0.85694 0.0
O270 O 0.08741 0.20791 0.83922 0.0
O271 O 1.00937 0.19132 0.84523 0.0
H272 H 0.80042 0.20939 0.86373 0.0
H273 H 0.70749 0.21727 0.8623 0.0
H274 H 0.725 0.23345 0.824 0.0
H275 H 0.81809 0.22526 0.82547 0.0
H276 H 0.22835 0.25983 0.81646 0.0
H277 H 0.32116 0.25152 0.81775 0.0
H278 H 0.30312 0.23221 0.85565 0.0
H279 H 0.21015 0.24071 0.85432 0.0
Tb280 Tb 0.84282 0.50159 0.8383 0.0
Tb281 Tb 0.73867 0.4775 0.83782 0.0
C282 C 0.93359 0.51495 0.84362 0.0
C283 C 0.9886 0.50768 0.84286 0.0
C284 C 1.02136 0.5128 0.85271 0.0
C285 C 0.07459 0.50821 0.85198 0.0
C286 C 0.0964 0.4984 0.84134 0.0
C287 C 0.06318 0.49274 0.83156 0.0
C288 C 1.00975 0.4973 0.83231 0.0
C289 C 0.79934 0.49979 0.81648 0.0
C290 C 0.83338 0.4448 0.83493 0.0
C291 C 0.64766 0.46362 0.83325 0.0
C292 C 0.59289 0.47139 0.8337 0.0
C293 C 0.56 0.46528 0.82402 0.0
C294 C 0.50687 0.4702 0.82459 0.0
C295 C 0.4853 0.48131 0.83492 0.0
C296 C 0.51863 0.48801 0.8445 0.0
C297 C 0.57195 0.48316 0.84389 0.0
C298 C 0.78599 0.47899 0.85925 0.0
C299 C 0.74458 0.53369 0.84097 0.0
O300 O 0.90377 0.50287 0.85103 0.0
O301 O 0.91003 0.52042 0.83344 0.0
O302 O 0.79812 0.48366 0.82451 0.0
O303 O 0.82839 0.51704 0.82037 0.0
O304 O 0.86287 0.46315 0.83825 0.0
O305 O 0.78404 0.44749 0.83218 0.0
O306 O 0.67772 0.47395 0.82519 0.0
O307 O 0.67126 0.45998 0.84364 0.0
O308 O 0.78417 0.49524 0.85138 0.0
O309 O 0.75812 0.46119 0.85552 0.0
O310 O 0.71695 0.515 0.83757 0.0
O311 O 0.79475 0.532 0.84343 0.0
H312 H 1.00591 0.52093 0.86091 0.0
H313 H 0.09888 0.5131 0.85964 0.0
H314 H 0.07848 0.48485 0.82329 0.0
H315 H 0.98523 0.4931 0.82459 0.0
H316 H 0.57525 0.45607 0.8161 0.0
H317 H 0.48243 0.46453 0.81711 0.0
H318 H 0.50345 0.49689 0.85251 0.0
H319 H 0.59654 0.48817 0.85148 0.0
Tb320 Tb 0.98762 -0.00447 0.58652 0.0
Tb321 Tb 0.09114 0.97085 0.58691 0.0
C322 C 0.89669 0.00965 0.58203 0.0
C323 C 0.84183 0.00196 0.58258 0.0
C324 C 0.80831 0.00867 0.57313 0.0
C325 C 0.75517 0.00375 0.57382 0.0
C326 C 0.73418 -0.00796 0.58405 0.0
C327 C 0.76815 0.98475 0.5934 0.0
C328 C 0.82148 -0.01039 0.59266 0.0
C329 C 0.03504 -0.00624 0.60792 0.0
C330 C 0.99203 0.9393 0.58972 0.0
C331 C 0.1819 0.95711 0.59202 0.0
C332 C 0.23701 0.96428 0.59119 0.0
C333 C 0.2703 0.95856 0.60086 0.0
C334 C 0.32357 0.96309 0.60003 0.0
C335 C 0.34492 0.97347 0.58947 0.0
C336 C 0.31117 0.97974 0.57988 0.0
C337 C 0.25772 0.97522 0.58073 0.0
C338 C 0.04695 0.97284 0.56516 0.0
C339 C 0.08316 0.02774 0.58361 0.0
O340 O 0.92646 -0.00076 0.57395 0.0
O341 O 0.9206 0.01327 0.59239 0.0
O342 O 0.03291 0.97751 0.60004 0.0
O343 O 1.00755 0.01169 0.60421 0.0
O344 O 0.965 0.95813 0.58627 0.0
O345 O 0.04227 0.94074 0.59217 0.0
O346 O 0.15245 0.9691 0.59955 0.0
O347 O 0.15792 0.9519 0.58186 0.0
O348 O 0.04674 -0.011 0.57317 0.0
O349 O 0.07543 0.95539 0.56903 0.0
O350 O 0.11207 0.00919 0.58691 0.0
O351 O 0.03371 0.02535 0.58087 0.0
H352 H 0.82309 0.01832 0.5653 0.0
H353 H 0.73028 0.00988 0.56652 0.0
H354 H 0.75347 0.97539 0.60132 0.0
H355 H 0.84655 0.98412 0.60007 0.0
H356 H 0.25522 0.95 0.60898 0.0
H357 H 0.34821 0.95772 0.60753 0.0
H358 H 0.32606 -0.01192 0.57169 0.0
H359 H 0.2328 0.97991 0.57316 0.0
Tb360 Tb 0.31415 0.22692 0.58969 0.0
Tb361 Tb 0.21128 0.25136 0.58951 0.0
C362 C 0.40568 0.21286 0.58596 0.0
C363 C 0.46038 0.22077 0.58717 0.0
C364 C 0.48495 0.23364 0.57779 0.0
C365 C 0.53816 0.23855 0.57835 0.0
C366 C 0.56809 0.23061 0.58828 0.0
C367 C 0.5432 0.21826 0.59779 0.0
C368 C 0.49008 0.21331 0.59721 0.0
C369 C 0.26457 0.22818 0.61082 0.0
C370 C 0.30934 0.28318 0.59273 0.0
C371 C 0.11984 0.26487 0.59399 0.0
C372 C 0.06499 0.2573 0.59264 0.0
C373 C 0.03945 0.24529 0.60217 0.0
C374 C 0.98611 0.24077 0.60154 0.0
C375 C 0.95694 0.24829 0.59141 0.0
C376 C 0.98278 0.25978 0.58175 0.0
C377 C 0.03608 0.2643 0.58238 0.0
C378 C 0.25751 0.24953 0.56796 0.0
C379 C 0.21939 0.19459 0.58601 0.0
O380 O 0.37696 0.2232 0.57765 0.0
O381 O 0.37994 0.20882 0.59604 0.0
O382 O 0.26757 0.24472 0.6031 0.0
O383 O 0.29219 0.21033 0.6071 0.0
O384 O 0.33694 0.26434 0.58956 0.0
O385 O 0.25894 0.28166 0.59492 0.0
O386 O 0.14873 0.25313 0.60175 0.0
O387 O 0.14529 0.27046 0.58408 0.0
O388 O 0.25686 0.23331 0.57594 0.0
O389 O 0.22897 0.26701 0.57177 0.0
O390 O 0.19002 0.21304 0.58923 0.0
O391 O 0.26909 0.19714 0.58358 0.0
H392 H 0.4634 0.23946 0.56986 0.0
H393 H 0.55598 0.24834 0.57094 0.0
H394 H 0.56512 0.21158 0.60548 0.0
H395 H 0.47259 0.203 0.60449 0.0
H396 H 0.06039 0.23989 0.61027 0.0
H397 H 0.96761 0.23162 0.60908 0.0
H398 H 0.96149 0.26612 0.57389 0.0
H399 H 0.05429 0.27396 0.57497 0.0
Tb400 Tb 0.99167 0.22841 0.70726 0.0
Tb401 Tb 0.09604 0.25212 0.70628 0.0
C402 C 0.90076 0.21502 0.71232 0.0
C403 C 0.84597 0.22264 0.71157 0.0
C404 C 0.81313 0.21805 0.72149 0.0
C405 C 0.75999 0.22285 0.72075 0.0
C406 C 0.73836 0.23228 0.71001 0.0
C407 C 0.77164 0.23745 0.70016 0.0
C408 C 0.82496 0.23273 0.70093 0.0
C409 C 0.03711 0.22966 0.68559 0.0
C410 C 0.99825 0.28451 0.7037 0.0
C411 C 0.18685 0.26504 0.70068 0.0
C412 C 0.24177 0.25769 0.70157 0.0
C413 C 0.27435 0.26144 0.69151 0.0
C414 C 0.32756 0.25687 0.69231 0.0
C415 C 0.34953 0.24847 0.70324 0.0
C416 C 0.31648 0.24412 0.71324 0.0
C417 C 0.26309 0.24865 0.71241 0.0
C418 C 0.05363 0.25079 0.72825 0.0
C419 C 0.08582 0.19543 0.70988 0.0
O420 O 0.93066 0.22648 0.71998 0.0
O421 O 0.9245 0.20998 0.70209 0.0
O422 O 0.03644 0.24592 0.69345 0.0
O423 O 1.00911 0.21201 0.68946 0.0
O424 O 0.97048 0.266 0.7073 0.0
O425 O 0.04823 0.28255 0.70106 0.0
O426 O 0.15691 0.25257 0.69347 0.0
O427 O 0.16331 0.2712 0.71076 0.0
O428 O 0.05207 0.23454 0.72031 0.0
O429 O 0.08269 0.26789 0.7242 0.0
O430 O 0.11522 0.21359 0.70624 0.0
O431 O 0.03699 0.19847 0.71302 0.0
H432 H 0.82843 0.21014 0.72976 0.0
H433 H 0.73559 0.21837 0.72846 0.0
H434 H 0.75641 0.24503 0.69181 0.0
H435 H 0.8495 0.23654 0.69315 0.0
H436 H 0.25877 0.26852 0.68308 0.0
H437 H 0.35173 0.26071 0.68447 0.0
H438 H 0.33192 0.23732 0.72173 0.0
H439 H 0.23874 0.24551 0.7203 0.0
Tb440 Tb 0.31158 -0.00546 0.70369 0.0
Tb441 Tb 0.2066 0.97135 0.70308 0.0
C442 C 0.40254 0.00802 0.70851 0.0
C443 C 0.45712 6e-05 0.70828 0.0
C444 C 0.48914 0.00579 0.71818 0.0
C445 C 0.5423 0.00098 0.71777 0.0
C446 C 0.56476 -0.00958 0.7074 0.0
C447 C 0.53219 0.98389 0.69764 0.0
C448 C 0.47884 -0.01134 0.69807 0.0
C449 C 0.26515 -0.00666 0.68217 0.0
C450 C 0.3037 0.93844 0.70069 0.0
C451 C 0.11604 0.95834 0.69746 0.0
C452 C 0.06097 0.9651 0.69857 0.0
C453 C 0.02767 0.96021 0.68879 0.0
C454 C 0.97435 0.96418 0.68985 0.0
C455 C 0.95309 0.97309 0.70075 0.0
C456 C 0.98686 0.97872 0.71043 0.0
C457 C 0.04037 0.97474 0.70935 0.0
C458 C 0.24947 0.97313 0.72499 0.0
C459 C 0.21793 0.02808 0.70636 0.0
O460 O 0.37181 -0.00206 0.71651 0.0
O461 O 0.37971 0.01158 0.69801 0.0
O462 O 0.26577 0.97707 0.69006 0.0
O463 O 0.29371 0.01087 0.68594 0.0
O464 O 0.332 0.95689 0.70411 0.0
O465 O 0.25382 0.94061 0.69805 0.0
O466 O 0.14524 0.97163 0.69046 0.0
O467 O 0.13999 0.95164 0.70739 0.0
O468 O 0.25145 -0.01095 0.71688 0.0
O469 O 0.21936 0.95621 0.72119 0.0
O470 O 0.18748 0.00992 0.70324 0.0
O471 O 0.26722 0.02502 0.70905 0.0
H472 H 0.47317 0.01456 0.72614 0.0
H473 H 0.56591 0.0058 0.72555 0.0
H474 H 0.54814 0.97586 0.68948 0.0
H475 H 0.45494 0.98402 0.69031 0.0
H476 H 0.04283 0.95283 0.68038 0.0
H477 H 0.94971 0.9601 0.68213 0.0
H478 H 0.97179 0.98549 0.71897 0.0
H479 H 0.06538 0.97867 0.71703 0.0
Tb480 Tb 0.95736 0.00067 0.45319 0.0
Tb481 Tb 0.06163 0.97699 0.45381 0.0
C482 C 0.86659 0.01347 0.44763 0.0
C483 C 0.81172 0.00619 0.44878 0.0
C484 C 0.77947 0.00802 0.43853 0.0
C485 C 0.72626 0.00355 0.43948 0.0
C486 C 0.70401 -0.00282 0.45074 0.0
C487 C 0.73671 -0.00528 0.46095 0.0
C488 C 0.79008 -0.00085 0.45998 0.0
C489 C 1.00024 -0.00079 0.47508 0.0
C490 C 0.96746 0.94399 0.45694 0.0
C491 C 0.15275 0.96354 0.45848 0.0
C492 C 0.20743 0.97129 0.45757 0.0
C493 C 0.23975 0.96863 0.46775 0.0
C494 C 0.2929 0.97337 0.46691 0.0
C495 C 0.31502 0.98078 0.45581 0.0
C496 C 0.28228 0.9841 0.44568 0.0
C497 C 0.22897 0.97945 0.44655 0.0
C498 C 1.01481 0.97816 0.43232 0.0
C499 C 0.05514 0.03314 0.45056 0.0
O500 O 0.89611 0.00056 0.44053 0.0
O501 O 0.89061 0.02022 0.45755 0.0
O502 O 1.00202 0.98306 0.46708 0.0
O503 O 0.97062 0.0162 0.47116 0.0
O504 O 0.93757 0.96216 0.45356 0.0
O505 O 1.01672 0.94701 0.45968 0.0
O506 O 0.12326 0.97478 0.46632 0.0
O507 O 0.12838 0.95862 0.44832 0.0
O508 O 1.01621 -0.00551 0.44015 0.0
O509 O 0.04291 0.96052 0.43612 0.0
O510 O 0.08306 0.01452 0.45391 0.0
O511 O 1.00501 0.03127 0.44809 0.0
H512 H 0.79529 0.01355 0.42982 0.0
H513 H 0.70231 0.00589 0.43147 0.0
H514 H 0.721 -0.01049 0.46971 0.0
H515 H 0.81414 -0.00249 0.46802 0.0
H516 H 0.22408 0.96221 0.47632 0.0
H517 H 0.31694 0.97037 0.47486 0.0
H518 H 0.29793 -0.00988 0.43705 0.0
H519 H 0.20492 0.98175 0.43854 0.0
Tb520 Tb 0.85062 0.71904 0.45715 0.0
Tb521 Tb 0.74609 0.74293 0.45827 0.0
C522 C 0.94104 0.70619 0.4512 0.0
C523 C 0.99612 0.71311 0.45231 0.0
C524 C 0.02965 0.70837 0.44254 0.0
C525 C 0.08287 0.71278 0.44356 0.0
C526 C 0.10389 0.72204 0.45441 0.0
C527 C 0.0699 0.72732 0.46412 0.0
C528 C 1.01649 0.72292 0.46308 0.0
C529 C 0.80921 0.72044 0.4792 0.0
C530 C 0.84076 0.77572 0.46087 0.0
C531 C 0.6553 0.75644 0.46335 0.0
C532 C 0.60042 0.74897 0.4625 0.0
C533 C 0.56678 0.75463 0.47213 0.0
C534 C 0.51364 0.7499 0.47124 0.0
C535 C 0.49282 0.73943 0.46066 0.0
C536 C 0.52691 0.73319 0.45113 0.0
C537 C 0.58024 0.73786 0.45205 0.0
C538 C 0.79157 0.74172 0.43658 0.0
C539 C 0.75215 0.68687 0.45461 0.0
O540 O 0.91157 0.71968 0.44438 0.0
O541 O 0.91729 0.69908 0.46109 0.0
O542 O 0.80671 0.7366 0.47122 0.0
O543 O 0.83917 0.70363 0.47522 0.0
O544 O 0.87004 0.75753 0.45724 0.0
O545 O 0.79189 0.77277 0.46402 0.0
O546 O 0.68493 0.74469 0.47095 0.0
O547 O 0.67921 0.76163 0.45316 0.0
O548 O 0.79067 0.72545 0.44444 0.0
O549 O 0.76357 0.75934 0.44045 0.0
O550 O 0.72465 0.70539 0.45828 0.0
O551 O 0.80213 0.68876 0.45193 0.0
H552 H 1.01477 0.70069 0.43418 0.0
H553 H 0.10773 0.7082 0.43595 0.0
H554 H 0.08458 0.73478 0.47254 0.0
H555 H 0.99132 0.72683 0.47073 0.0
H556 H 0.58147 0.76332 0.48025 0.0
H557 H 0.48863 0.7552 0.4787 0.0
H558 H 0.51234 0.72481 0.44292 0.0
H559 H 0.60546 0.73321 0.44451 0.0
Tb560 Tb 0.9626 0.7219 0.3409 0.0
Tb561 Tb 0.06667 0.74566 0.34042 0.0
C562 C 0.87159 0.70915 0.34633 0.0
C563 C 0.81684 0.71666 0.34516 0.0
C564 C 0.78595 0.71773 0.35569 0.0
C565 C 0.73279 0.72238 0.35485 0.0
C566 C 0.70919 0.72597 0.34344 0.0
C567 C 0.74048 0.72552 0.33291 0.0
C568 C 0.79379 0.72093 0.33376 0.0
C569 C 1.00587 0.72353 0.31904 0.0
C570 C 0.97259 0.77861 0.33724 0.0
C571 C 0.15802 0.75909 0.33591 0.0
C572 C 0.21263 0.75117 0.33685 0.0
C573 C 0.24343 0.75079 0.3263 0.0
C574 C 0.29657 0.74597 0.32702 0.0
C575 C 0.32025 0.74158 0.33834 0.0
C576 C 0.28907 0.74131 0.34888 0.0
C577 C 0.2358 0.74603 0.34815 0.0
C578 C 1.01942 0.74429 0.36187 0.0
C579 C 0.06018 0.68947 0.34356 0.0
O580 O 0.90117 0.72183 0.35353 0.0
O581 O 0.89584 0.70244 0.33643 0.0
O582 O 1.00742 0.73966 0.32706 0.0
O583 O 0.97641 0.70644 0.32295 0.0
O584 O 0.94273 0.76038 0.34057 0.0
O585 O 1.02197 0.77572 0.33459 0.0
O586 O 0.12856 0.74808 0.32797 0.0
O587 O 0.13336 0.76394 0.34604 0.0
O588 O 1.02109 0.72801 0.35402 0.0
O589 O 0.04744 0.76202 0.35812 0.0
O590 O 0.08814 0.70812 0.34025 0.0
O591 O 1.01004 0.6913 0.34602 0.0
H592 H 0.80276 0.71431 0.36457 0.0
H593 H 0.70989 0.72231 0.36313 0.0
H594 H 0.7237 0.72855 0.324 0.0
H595 H 0.81664 0.72028 0.32548 0.0
H596 H 0.22662 0.75491 0.31749 0.0
H597 H 0.31943 0.74658 0.31873 0.0
H598 H 0.30594 0.73767 0.35773 0.0
H599 H 0.21311 0.74617 0.35646 0.0
Tb600 Tb 0.84265 0.00147 0.33699 0.0
Tb601 Tb 0.73861 0.97734 0.33645 0.0
C602 C 0.93352 0.01463 0.34233 0.0
C603 C 0.98843 0.00721 0.34143 0.0
C604 C 1.02044 0.0099 0.35167 0.0
C605 C 0.07365 0.00525 0.35091 0.0
C606 C 0.09618 -0.00216 0.33985 0.0
C607 C 0.06372 -0.00544 0.32966 0.0
C608 C 1.01035 -0.00083 0.33044 0.0
C609 C 0.79945 -0.00037 0.31515 0.0
C610 C 0.83331 0.94468 0.33364 0.0
C611 C 0.64757 0.96363 0.33181 0.0
C612 C 0.59281 0.97141 0.33249 0.0
C613 C 0.56066 0.96777 0.32235 0.0
C614 C 0.50751 0.97262 0.323 0.0
C615 C 0.48517 0.98116 0.33386 0.0
C616 C 0.51774 0.98541 0.34394 0.0
C617 C 0.57106 0.98064 0.34326 0.0
C618 C 0.78556 0.97891 0.35792 0.0
C619 C 0.74448 0.03355 0.33972 0.0
O620 O 0.90375 0.00241 0.34969 0.0
O621 O 0.90971 0.02051 0.33224 0.0
O622 O 0.79818 0.98351 0.32317 0.0
O623 O 0.82848 0.01688 0.31904 0.0
O624 O 0.86261 0.96304 0.33703 0.0
O625 O 0.78409 0.94737 0.33077 0.0
O626 O 0.67739 0.97442 0.32386 0.0
O627 O 0.67156 0.95932 0.34209 0.0
O628 O 0.78387 -0.00487 0.35003 0.0
O629 O 0.7577 0.96111 0.35419 0.0
O630 O 0.71686 0.01488 0.33629 0.0
O631 O 0.79463 0.03183 0.34219 0.0
H632 H 1.00445 0.01621 0.36022 0.0
H633 H 0.09737 0.00826 0.3589 0.0
H634 H 0.0796 -0.01145 0.32105 0.0
H635 H 0.98649 -0.00314 0.3224 0.0
H636 H 0.57648 0.96051 0.31397 0.0
H637 H 0.48364 0.96888 0.31511 0.0
H638 H 0.50195 -0.00771 0.35239 0.0
H639 H 0.59497 0.98371 0.35122 0.0
Tb640 Tb 0.49333 0.49444 0.5873 0.0
Tb641 Tb 0.59779 0.47089 0.58807 0.0
C642 C 0.40255 0.50813 0.58242 0.0
C643 C 0.34768 0.50058 0.58287 0.0
C644 C 0.31492 0.50704 0.57323 0.0
C645 C 0.26167 0.50246 0.57383 0.0
C646 C 0.23984 0.49137 0.58414 0.0
C647 C 0.27312 0.48417 0.59364 0.0
C648 C 0.32657 0.48873 0.59302 0.0
C649 C 0.53954 0.49328 0.60887 0.0
C650 C 0.49995 0.43835 0.5907 0.0
C651 C 0.68831 0.45772 0.59366 0.0
C652 C 0.74341 0.46466 0.59274 0.0
C653 C 0.77666 0.45899 0.60241 0.0
C654 C 0.82998 0.46315 0.60149 0.0
C655 C 0.85133 0.47307 0.59082 0.0
C656 C 0.8176 0.47947 0.58126 0.0
C657 C 0.76409 0.47528 0.5822 0.0
C658 C 0.55484 0.47214 0.56618 0.0
C659 C 0.58749 0.52761 0.58447 0.0
O660 O 0.43269 0.4973 0.57456 0.0
O661 O 0.42583 0.51221 0.59281 0.0
O662 O 0.53857 0.47698 0.60102 0.0
O663 O 0.51153 0.51093 0.60503 0.0
O664 O 0.47206 0.45685 0.58716 0.0
O665 O 0.54996 0.44039 0.59328 0.0
O666 O 0.65878 0.47052 0.60081 0.0
O667 O 0.6647 0.45157 0.58359 0.0
O668 O 0.55335 0.4884 0.57413 0.0
O669 O 0.58419 0.45512 0.57017 0.0
O670 O 0.61739 0.50946 0.58787 0.0
O671 O 0.53836 0.52453 0.58162 0.0
H672 H 0.33041 0.51615 0.56531 0.0
H673 H 0.23753 0.5078 0.56623 0.0
H674 H 0.2577 0.47572 0.60175 0.0
H675 H 0.35109 0.48354 0.60058 0.0
H676 H 0.76146 0.45084 0.61064 0.0
H677 H 0.85455 0.45845 0.60912 0.0
H678 H 0.8327 0.48702 0.57289 0.0
H679 H 0.73913 0.47983 0.57461 0.0
Tb680 Tb 0.81337 0.7274 0.58919 0.0
Tb681 Tb 0.70284 0.75127 0.59127 0.0
C682 C 0.90444 0.71566 0.58342 0.0
C683 C 0.95874 0.72402 0.58448 0.0
C684 C 0.9907 0.72343 0.57413 0.0
C685 C 0.04353 0.72891 0.57501 0.0
C686 C 0.06581 0.735 0.5863 0.0
C687 C 0.03328 0.73632 0.59661 0.0
C688 C 0.9803 0.7309 0.59571 0.0
C689 C 0.76652 0.72685 0.61071 0.0
C690 C 0.8043 0.78352 0.59327 0.0
C691 C 0.61772 0.76385 0.60044 0.0
C692 C 0.56161 0.76082 0.5983 0.0
C693 C 0.52743 0.76253 0.6082 0.0
C694 C 0.47393 0.75998 0.6065 0.0
C695 C 0.45336 0.75568 0.59482 0.0
C696 C 0.48795 0.75378 0.5849 0.0
C697 C 0.54159 0.7563 0.58663 0.0
C698 C 0.73026 0.74606 0.56805 0.0
C699 C 0.71733 0.69566 0.58541 0.0
O700 O 0.87362 0.72782 0.57624 0.0
O701 O 0.8812 0.70865 0.59344 0.0
O702 O 0.7661 0.74334 0.60297 0.0
O703 O 0.79639 0.70985 0.60677 0.0
O704 O 0.83395 0.76466 0.59123 0.0
O705 O 0.75293 0.78233 0.59435 0.0
O706 O 0.64307 0.74467 0.60381 0.0
O707 O 0.64356 0.77673 0.59248 0.0
O708 O 0.75451 0.74021 0.57753 0.0
O709 O 0.68699 0.75564 0.57162 0.0
O710 O 0.68789 0.71252 0.59045 0.0
O711 O 0.76566 0.69949 0.58195 0.0
H712 H 0.97497 0.71821 0.56537 0.0
H713 H 0.06702 0.72816 0.56683 0.0
H714 H 0.04903 0.74076 0.60547 0.0
H715 H 0.95658 0.73153 0.60386 0.0
H716 H 0.54218 0.76582 0.6173 0.0
H717 H 0.44875 0.76111 0.61439 0.0
H718 H 0.47355 0.75069 0.57577 0.0
H719 H 0.56735 0.75483 0.57886 0.0
Tb720 Tb 0.48472 0.72615 0.70585 0.0
Tb721 Tb 0.58749 0.75064 0.70632 0.0
C722 C 0.3932 0.71177 0.70928 0.0
C723 C 0.33838 0.71906 0.70769 0.0
C724 C 0.31494 0.73598 0.71539 0.0
C725 C 0.26159 0.74047 0.71463 0.0
C726 C 0.23048 0.72808 0.70619 0.0
C727 C 0.25438 0.7117 0.69827 0.0
C728 C 0.30759 0.70718 0.69905 0.0
C729 C 0.53575 0.7272 0.6849 0.0
C730 C 0.48975 0.78232 0.70248 0.0
C731 C 0.67916 0.76438 0.70228 0.0
C732 C 0.73396 0.75701 0.70387 0.0
C733 C 0.75768 0.74079 0.69582 0.0
C734 C 0.81101 0.73626 0.69656 0.0
C735 C 0.84186 0.74795 0.7053 0.0
C736 C 0.81775 0.76367 0.71353 0.0
C737 C 0.76454 0.7682 0.71279 0.0
C738 C 0.53974 0.74905 0.72771 0.0
C739 C 0.57921 0.69401 0.70995 0.0
O740 O 0.4208 0.72279 0.71758 0.0
O741 O 0.41987 0.7074 0.69938 0.0
O742 O 0.53213 0.74379 0.69256 0.0
O743 O 0.50797 0.70934 0.68856 0.0
O744 O 0.4618 0.76358 0.70568 0.0
O745 O 0.54026 0.7807 0.70049 0.0
O746 O 0.65092 0.7527 0.69437 0.0
O747 O 0.65304 0.76973 0.71213 0.0
O748 O 0.54106 0.73273 0.71981 0.0
O749 O 0.56821 0.76657 0.72391 0.0
O750 O 0.60862 0.71236 0.7066 0.0
O751 O 0.52957 0.69667 0.71239 0.0
H752 H 0.33743 0.74531 0.72223 0.0
H753 H 0.24445 0.75303 0.72095 0.0
H754 H 0.23186 0.70214 0.69152 0.0
H755 H 0.32447 0.69391 0.69306 0.0
H756 H 0.73542 0.73207 0.68873 0.0
H757 H 0.82836 0.72425 0.68999 0.0
H758 H 0.84014 0.7727 0.72049 0.0
H759 H 0.74753 0.78097 0.71903 0.0
Tb760 Tb 0.81377 0.49539 0.70508 0.0
Tb761 Tb 0.70963 0.47145 0.70463 0.0
C762 C 0.90497 0.5089 0.70966 0.0
C763 C 0.9596 0.50099 0.7089 0.0
C764 C 0.99135 0.5034 0.71921 0.0
C765 C 0.04446 0.49848 0.71853 0.0
C766 C 0.06714 0.49115 0.70748 0.0
C767 C 0.03497 0.4881 0.69723 0.0
C768 C 0.9817 0.49293 0.69793 0.0
C769 C 0.76631 0.49441 0.68369 0.0
C770 C 0.80746 0.43924 0.70174 0.0
C771 C 0.61866 0.45843 0.69935 0.0
C772 C 0.56383 0.46592 0.70028 0.0
C773 C 0.53227 0.4643 0.68991 0.0
C774 C 0.47907 0.46891 0.69066 0.0
C775 C 0.4561 0.4752 0.70184 0.0
C776 C 0.48809 0.47744 0.71219 0.0
C777 C 0.54145 0.47288 0.71142 0.0
C778 C 0.75377 0.47288 0.7264 0.0
C779 C 0.7194 0.52814 0.70836 0.0
O780 O 0.8752 0.4981 0.71762 0.0
O781 O 0.88081 0.5134 0.69942 0.0
O782 O 0.76788 0.47795 0.69146 0.0
O783 O 0.79448 0.51205 0.68749 0.0
O784 O 0.83537 0.45789 0.70506 0.0
O785 O 0.75722 0.44098 0.6994 0.0
O786 O 0.64844 0.47061 0.69196 0.0
O787 O 0.64255 0.45247 0.70941 0.0
O788 O 0.75461 0.48908 0.71842 0.0
O789 O 0.7245 0.45572 0.7225 0.0
O790 O 0.68965 0.5099 0.70499 0.0
O791 O 0.76881 0.5253 0.71099 0.0
H792 H 0.97528 0.50975 0.72774 0.0
H793 H 0.06805 0.50128 0.72657 0.0
H794 H 0.05105 0.48216 0.68862 0.0
H795 H 0.95814 0.49083 0.68983 0.0
H796 H 0.54861 0.45881 0.68124 0.0
H797 H 0.45566 0.46673 0.68254 0.0
H798 H 0.47183 0.48258 0.7209 0.0
H799 H 0.56492 0.47434 0.71957 0.0
Tb800 Tb 0.45881 0.50118 0.45463 0.0
Tb801 Tb 0.56264 0.47691 0.45502 0.0
C802 C 0.36799 0.51457 0.44941 0.0
C803 C 0.31305 0.5071 0.4501 0.0
C804 C 0.28073 0.51149 0.44007 0.0
C805 C 0.22748 0.50685 0.44073 0.0
C806 C 0.2052 0.49774 0.45149 0.0
C807 C 0.23798 0.49275 0.46145 0.0
C808 C 0.2914 0.49736 0.46076 0.0
C809 C 0.50294 0.49972 0.47635 0.0
C810 C 0.46775 0.44439 0.45815 0.0
C811 C 0.65375 0.46301 0.45943 0.0
C812 C 0.70852 0.47084 0.45889 0.0
C813 C 0.74114 0.46566 0.46877 0.0
C814 C 0.79428 0.4706 0.46816 0.0
C815 C 0.81614 0.48076 0.45761 0.0
C816 C 0.78309 0.48653 0.44782 0.0
C817 C 0.72976 0.48167 0.44846 0.0
C818 C 0.51492 0.47842 0.43365 0.0
C819 C 0.55725 0.53314 0.45194 0.0
O820 O 0.39798 0.50289 0.44187 0.0
O821 O 0.3915 0.51972 0.45963 0.0
O822 O 0.5037 0.48338 0.46843 0.0
O823 O 0.47406 0.51697 0.47242 0.0
O824 O 0.43836 0.46276 0.45483 0.0
O825 O 0.51721 0.44703 0.4608 0.0
O826 O 0.62392 0.47326 0.46755 0.0
O827 O 0.6298 0.45937 0.44908 0.0
O828 O 0.51713 0.49471 0.44149 0.0
O829 O 0.54248 0.46054 0.43738 0.0
O830 O 0.58473 0.51436 0.45524 0.0
O831 O 0.507 0.5316 0.44954 0.0
H832 H 0.29653 0.51912 0.43178 0.0
H833 H 0.20354 0.51119 0.43294 0.0
H834 H 0.22231 0.4854 0.4698 0.0
H835 H 0.31552 0.49371 0.46862 0.0
H836 H 0.7257 0.45717 0.47687 0.0
H837 H 0.81851 0.46565 0.47581 0.0
H838 H 0.79849 0.49468 0.43963 0.0
H839 H 0.70544 0.48595 0.44072 0.0
Tb840 Tb 0.34476 0.22005 0.45592 0.0
Tb841 Tb 0.2408 0.24405 0.45675 0.0
C842 C 0.43535 0.20706 0.45026 0.0
C843 C 0.49046 0.21406 0.45144 0.0
C844 C 0.52143 0.21478 0.44093 0.0
C845 C 0.57485 0.21881 0.44178 0.0
C846 C 0.59866 0.22213 0.45319 0.0
C847 C 0.56726 0.22215 0.4637 0.0
C848 C 0.5137 0.21813 0.46285 0.0
C849 C 0.30279 0.22197 0.47792 0.0
C850 C 0.33554 0.27683 0.45937 0.0
C851 C 0.14989 0.25758 0.46163 0.0
C852 C 0.09507 0.2498 0.46089 0.0
C853 C 0.06486 0.24971 0.47154 0.0
C854 C 1.01158 0.2451 0.471 0.0
C855 C 0.98708 0.24062 0.45977 0.0
C856 C 1.01775 0.23998 0.44915 0.0
C857 C 0.07117 0.24452 0.44969 0.0
C858 C 0.28671 0.24247 0.43513 0.0
C859 C 0.24651 0.18789 0.45336 0.0
O860 O 0.40611 0.22031 0.44326 0.0
O861 O 0.41105 0.20002 0.4601 0.0
O862 O 0.30096 0.23801 0.46986 0.0
O863 O 0.33196 0.20483 0.47398 0.0
O864 O 0.36483 0.25849 0.45595 0.0
O865 O 0.2864 0.27407 0.46232 0.0
O866 O 0.17978 0.24645 0.46943 0.0
O867 O 0.1739 0.26246 0.45141 0.0
O868 O 0.28543 0.22628 0.44303 0.0
O869 O 0.25889 0.26022 0.43892 0.0
O870 O 0.21903 0.20649 0.45694 0.0
O871 O 0.29648 0.18976 0.4507 0.0
H872 H 0.50443 0.21167 0.43204 0.0
H873 H 0.59757 0.21913 0.43347 0.0
H874 H 0.58428 0.22447 0.47265 0.0
H875 H 0.49081 0.21764 0.47113 0.0
H876 H 0.08231 0.25378 0.48028 0.0
H877 H 0.98947 0.2453 0.4794 0.0
H878 H 1.00024 0.2368 0.44033 0.0
H879 H 0.09335 0.24454 0.4413 0.0
Tb880 Tb 0.45454 0.22035 0.33932 0.0
Tb881 Tb 0.55898 0.24419 0.33852 0.0
C882 C 0.36392 0.20713 0.34492 0.0
C883 C 0.30887 0.21418 0.34407 0.0
C884 C 0.2749 0.2071 0.35338 0.0
C885 C 0.22168 0.21156 0.35247 0.0
C886 C 0.20111 0.22324 0.3422 0.0
C887 C 0.23555 0.23086 0.33299 0.0
C888 C 0.28897 0.2264 0.33393 0.0
C889 C 0.49748 0.22163 0.31742 0.0
C890 C 0.46446 0.27703 0.3356 0.0
C891 C 0.6499 0.25795 0.33371 0.0
C892 C 0.70471 0.25037 0.33428 0.0
C893 C 0.73885 0.25825 0.32517 0.0
C894 C 0.79195 0.25339 0.32594 0.0
C895 C 0.81222 0.24055 0.33588 0.0
C896 C 0.77761 0.23211 0.34485 0.0
C897 C 0.72431 0.23692 0.34405 0.0
C898 C 0.51231 0.24319 0.36005 0.0
C899 C 0.55256 0.18807 0.34187 0.0
O900 O 0.39365 0.21973 0.35212 0.0
O901 O 0.38738 0.20122 0.33479 0.0
O902 O 0.49911 0.23791 0.32536 0.0
O903 O 0.46813 0.20459 0.32142 0.0
O904 O 0.43477 0.25882 0.33905 0.0
O905 O 0.51368 0.27412 0.33276 0.0
O906 O 0.61997 0.24707 0.32584 0.0
O907 O 0.62633 0.26205 0.34407 0.0
O908 O 0.51364 0.22677 0.35226 0.0
O909 O 0.54034 0.26082 0.35618 0.0
O910 O 0.58034 0.20667 0.33841 0.0
O911 O 0.50248 0.18988 0.34443 0.0
H912 H 0.28943 0.19754 0.36126 0.0
H913 H 0.19648 0.20514 0.35966 0.0
H914 H 0.22122 0.24021 0.32504 0.0
H915 H 0.31453 0.23213 0.32665 0.0
H916 H 0.72457 0.26875 0.31759 0.0
H917 H 0.81735 0.26043 0.31894 0.0
H918 H 0.79176 0.22188 0.35254 0.0
H919 H 0.69864 0.23054 0.35117 0.0
Tb920 Tb 0.34725 0.50189 0.33823 0.0
Tb921 Tb 0.24278 0.47825 0.33717 0.0
C922 C 0.438 0.51456 0.34397 0.0
C923 C 0.49291 0.50728 0.34292 0.0
C924 C 0.52524 0.50985 0.35311 0.0
C925 C 0.57844 0.5053 0.35222 0.0
C926 C 0.60063 0.49811 0.34109 0.0
C927 C 0.56785 0.49496 0.33094 0.0
C928 C 0.51447 0.49946 0.33185 0.0
C929 C 0.30538 0.50077 0.31622 0.0
C930 C 0.337 0.44526 0.3344 0.0
C931 C 0.15186 0.46502 0.33208 0.0
C932 C 0.09713 0.47274 0.33286 0.0
C933 C 0.06476 0.46922 0.32275 0.0
C934 C 1.01161 0.47401 0.3235 0.0
C935 C 0.98952 0.48236 0.33443 0.0
C936 C 1.02233 0.48652 0.34447 0.0
C937 C 0.07565 0.48181 0.34369 0.0
C938 C 0.28839 0.47895 0.35881 0.0
C939 C 0.24954 0.5343 0.34098 0.0
O940 O 0.40817 0.50161 0.35099 0.0
O941 O 0.41434 0.52136 0.33401 0.0
O942 O 0.30328 0.48448 0.32414 0.0
O943 O 0.33463 0.51775 0.32031 0.0
O944 O 0.36653 0.46338 0.33801 0.0
O945 O 0.28806 0.4483 0.33137 0.0
O946 O 0.1819 0.47649 0.32443 0.0
O947 O 0.17553 0.45981 0.34229 0.0
O948 O 0.28761 0.49541 0.35105 0.0
O949 O 0.26018 0.46145 0.35486 0.0
O950 O 0.22169 0.51587 0.33732 0.0
O951 O 0.2995 0.53225 0.34359 0.0
H952 H 0.50949 0.51598 0.36172 0.0
H953 H 0.60243 0.50821 0.36019 0.0
H954 H 0.58348 0.48911 0.32228 0.0
H955 H 0.49032 0.49725 0.32385 0.0
H956 H 0.0804 0.4621 0.31433 0.0
H957 H 0.98754 0.47035 0.31563 0.0
H958 H 1.00673 0.49326 0.35297 0.0
H959 H 0.09979 0.48479 0.35163 0.0
Tb960 Tb 0.49168 -0.00663 0.08612 0.0
Tb961 Tb 0.59572 0.96938 0.08681 0.0
C962 C 0.40085 0.00706 0.0813 0.0
C963 C 0.34601 -0.00057 0.08195 0.0
C964 C 0.31398 0.00335 0.07182 0.0
C965 C 0.26074 -0.00128 0.07246 0.0
C966 C 0.23816 -0.00987 0.08329 0.0
C967 C 0.27069 0.98546 0.09333 0.0
C968 C 0.3241 -0.00994 0.09267 0.0
C969 C 0.53819 -0.00786 0.10765 0.0
C970 C 0.49752 0.93728 0.08965 0.0
C971 C 0.68643 0.95614 0.09219 0.0
C972 C 0.74146 0.96331 0.09123 0.0
C973 C 0.77375 0.96017 0.10138 0.0
C974 C 0.82707 0.96445 0.10053 0.0
C975 C 0.84943 0.97192 0.08946 0.0
C976 C 0.81667 0.97579 0.07938 0.0
C977 C 0.76318 0.97151 0.08024 0.0
C978 C 0.55239 0.9709 0.06495 0.0
C979 C 0.58628 0.02609 0.08329 0.0
O980 O 0.43071 -0.00398 0.07346 0.0
O981 O 0.42463 0.01157 0.09158 0.0
O982 O 0.53687 0.9758 0.09982 0.0
O983 O 0.51029 0.00984 0.10383 0.0
O984 O 0.4699 0.95585 0.08609 0.0
O985 O 0.54762 0.93912 0.09215 0.0
O986 O 0.65694 0.96867 0.09948 0.0
O987 O 0.66249 0.9501 0.08215 0.0
O988 O 0.55142 -0.01289 0.07292 0.0
O989 O 0.58137 0.9537 0.0689 0.0
O990 O 0.61564 0.00783 0.08678 0.0
O991 O 0.53721 0.02323 0.08033 0.0
H992 H 0.33001 0.01054 0.06345 0.0
H993 H 0.23719 0.00206 0.06447 0.0
H994 H 0.25469 0.97901 0.10184 0.0
H995 H 0.34794 -0.01315 0.10063 0.0
H996 H 0.75782 0.95389 0.10995 0.0
H997 H 0.85085 0.96174 0.10854 0.0
H998 H 0.83254 0.98139 0.07069 0.0
H999 H 0.73911 0.97408 0.07226 0.0
Tb1000 Tb 0.807 0.22738 0.08853 0.0
Tb1001 Tb 0.70263 0.25106 0.08955 0.0
C1002 C 0.89777 0.21391 0.08348 0.0
C1003 C 0.95266 0.22148 0.08406 0.0
C1004 C 0.98429 0.21794 0.07382 0.0
C1005 C 0.03762 0.22235 0.0744 0.0
C1006 C 0.06069 0.23032 0.08528 0.0
C1007 C 0.02856 0.23467 0.09544 0.0
C1008 C 0.97506 0.23029 0.09484 0.0
C1009 C 0.76121 0.22815 0.11016 0.0
C1010 C 0.80055 0.28341 0.09218 0.0
C1011 C 0.61212 0.26401 0.0953 0.0
C1012 C 0.557 0.25705 0.09432 0.0
C1013 C 0.52488 0.25991 0.10453 0.0
C1014 C 0.47147 0.25593 0.10368 0.0
C1015 C 0.44885 0.24905 0.09256 0.0
C1016 C 0.48143 0.24541 0.08241 0.0
C1017 C 0.53502 0.24939 0.08327 0.0
C1018 C 0.74507 0.24999 0.06758 0.0
C1019 C 0.71267 0.19445 0.08567 0.0
O1020 O 0.86769 0.22511 0.07575 0.0
O1021 O 0.87428 0.20917 0.09378 0.0
O1022 O 0.76205 0.24462 0.10239 0.0
O1023 O 0.7892 0.21059 0.10621 0.0
O1024 O 0.82832 0.26493 0.08856 0.0
O1025 O 0.75059 0.28143 0.09482 0.0
O1026 O 0.64168 0.25097 0.10232 0.0
O1027 O 0.63584 0.27066 0.08532 0.0
O1028 O 0.74669 0.23369 0.07549 0.0
O1029 O 0.71581 0.26698 0.07165 0.0
O1030 O 0.68296 0.21256 0.08921 0.0
O1031 O 0.76172 0.1975 0.08273 0.0
H1032 H 0.96788 0.21117 0.06541 0.0
H1033 H 0.06086 0.21928 0.06632 0.0
H1034 H 0.04495 0.24065 0.10399 0.0
H1035 H 0.95155 0.23319 0.10289 0.0
H1036 H 0.54102 0.26577 0.11315 0.0
H1037 H 0.44781 0.25845 0.11174 0.0
H1038 H 0.46534 0.24025 0.07368 0.0
H1039 H 0.55897 0.24705 0.07524 0.0
Tb1040 Tb 0.48757 0.22764 0.20649 0.0
Tb1041 Tb 0.59199 0.25138 0.20573 0.0
C1042 C 0.39666 0.21405 0.21139 0.0
C1043 C 0.34186 0.2216 0.21068 0.0
C1044 C 0.3082 0.2153 0.22019 0.0
C1045 C 0.25508 0.22005 0.21938 0.0
C1046 C 0.23431 0.23118 0.20897 0.0
C1047 C 0.26841 0.23807 0.19956 0.0
C1048 C 0.32173 0.23337 0.20041 0.0
C1049 C 0.53383 0.22893 0.18492 0.0
C1050 C 0.49429 0.28381 0.20304 0.0
C1051 C 0.68281 0.26449 0.20028 0.0
C1052 C 0.73772 0.25723 0.20117 0.0
C1053 C 0.77116 0.26268 0.19148 0.0
C1054 C 0.82435 0.25814 0.19237 0.0
C1055 C 0.8454 0.24804 0.20302 0.0
C1056 C 0.81148 0.24199 0.21262 0.0
C1057 C 0.75811 0.24652 0.2117 0.0
C1058 C 0.54879 0.24992 0.22762 0.0
C1059 C 0.58186 0.19466 0.20921 0.0
O1060 O 0.42642 0.22534 0.21916 0.0
O1061 O 0.42045 0.2094 0.20112 0.0
O1062 O 0.53285 0.24519 0.19279 0.0
O1063 O 0.50567 0.21128 0.18872 0.0
O1064 O 0.4663 0.26526 0.20652 0.0
O1065 O 0.54437 0.28185 0.20052 0.0
O1066 O 0.65308 0.25209 0.193 0.0
O1067 O 0.65915 0.27039 0.21039 0.0
O1068 O 0.54752 0.23371 0.21965 0.0
O1069 O 0.57796 0.26706 0.22365 0.0
O1070 O 0.61143 0.21289 0.20573 0.0
O1071 O 0.53279 0.19759 0.21217 0.0
H1072 H 0.32287 0.20609 0.22817 0.0
H1073 H 0.23004 0.21424 0.22673 0.0
H1074 H 0.25385 0.24696 0.19149 0.0
H1075 H 0.34697 0.23852 0.19296 0.0
H1076 H 0.75627 0.27106 0.18329 0.0
H1077 H 0.84919 0.26332 0.18486 0.0
H1078 H 0.82621 0.23387 0.22088 0.0
H1079 H 0.73301 0.24204 0.21929 0.0
Tb1080 Tb 0.81269 -0.00507 0.20379 0.0
Tb1081 Tb 0.70856 0.97117 0.20324 0.0
C1082 C 0.90375 0.00847 0.20846 0.0
C1083 C 0.95847 0.0006 0.20778 0.0
C1084 C 0.98854 0.00076 0.21844 0.0
C1085 C 0.0418 -0.00384 0.21794 0.0
C1086 C 0.06638 -0.00857 0.20675 0.0
C1087 C 0.03585 -0.0095 0.19612 0.0
C1088 C 0.98245 -0.00496 0.19662 0.0
C1089 C 0.76605 -0.00641 0.18229 0.0
C1090 C 0.80628 0.93873 0.2007 0.0
C1091 C 0.6178 0.95814 0.19781 0.0
C1092 C 0.56283 0.96537 0.19884 0.0
C1093 C 0.53218 0.96572 0.18828 0.0
C1094 C 0.4788 0.96983 0.18903 0.0
C1095 C 0.45473 0.9736 0.20038 0.0
C1096 C 0.48582 0.97403 0.21093 0.0
C1097 C 0.53935 0.96993 0.21017 0.0
C1098 C 0.75178 0.9729 0.22511 0.0
C1099 C 0.71849 0.02793 0.20675 0.0
O1100 O 0.87381 -0.0023 0.21639 0.0
O1101 O 0.87978 0.01295 0.1982 0.0
O1102 O 0.76726 0.97727 0.19015 0.0
O1103 O 0.79409 0.01127 0.18608 0.0
O1104 O 0.83417 0.95739 0.20401 0.0
O1105 O 0.75619 0.94056 0.19821 0.0
O1106 O 0.64737 0.97078 0.19058 0.0
O1107 O 0.64183 0.95172 0.20778 0.0
O1108 O 0.75308 -0.01103 0.21707 0.0
O1109 O 0.72238 0.95577 0.22123 0.0
O1110 O 0.68866 0.00967 0.20345 0.0
O1111 O 0.76778 0.02502 0.20948 0.0
H1112 H 0.97101 0.00505 0.22715 0.0
H1113 H 0.06384 -0.00342 0.22634 0.0
H1114 H 0.05346 -0.01288 0.18732 0.0
H1115 H 0.96035 -0.00514 0.18823 0.0
H1116 H 0.5494 0.96222 0.17944 0.0
H1117 H 0.45628 0.96983 0.1807 0.0
H1118 H 0.46857 0.97669 0.21983 0.0
H1119 H 0.562 0.96972 0.21848 0.0
Tb1120 Tb 0.45616 0.00133 0.95339 0.0
Tb1121 Tb 0.5603 0.97769 0.95391 0.0
C1122 C 0.36549 0.01427 0.94788 0.0
C1123 C 0.31048 0.00714 0.94897 0.0
C1124 C 0.27985 0.00648 0.93842 0.0
C1125 C 0.22644 0.00244 0.93919 0.0
C1126 C 0.20235 -0.00094 0.95057 0.0
C1127 C 0.23342 -0.00107 0.96113 0.0
C1128 C 0.28697 0.00295 0.96034 0.0
C1129 C 0.49924 -0.00021 0.97524 0.0
C1130 C 0.46628 0.94462 0.95694 0.0
C1131 C 0.65146 0.96418 0.95845 0.0
C1132 C 0.70612 0.97215 0.9578 0.0
C1133 C 0.73592 0.97237 0.9685 0.0
C1134 C 0.78916 0.97705 0.96804 0.0
C1135 C 0.814 0.98147 0.95684 0.0
C1136 C 0.78374 0.98203 0.94617 0.0
C1137 C 0.73037 0.9774 0.94663 0.0
C1138 C 0.51333 0.97914 0.93243 0.0
C1139 C 0.55373 0.03383 0.9508 0.0
O1140 O 0.39491 0.00137 0.94074 0.0
O1141 O 0.38959 0.02095 0.95779 0.0
O1142 O 0.50088 0.98362 0.96724 0.0
O1143 O 0.46969 0.01682 0.97134 0.0
O1144 O 0.43634 0.96282 0.95365 0.0
O1145 O 0.51558 0.94757 0.95963 0.0
O1146 O 0.62153 0.97473 0.96646 0.0
O1147 O 0.62742 0.95988 0.94818 0.0
O1148 O 0.51493 -0.00464 0.94031 0.0
O1149 O 0.54117 0.96137 0.93618 0.0
O1150 O 0.58164 0.01525 0.9542 0.0
O1151 O 0.50374 0.03188 0.94824 0.0
H1152 H 0.2971 0.00967 0.92955 0.0
H1153 H 0.20392 0.0022 0.93086 0.0
H1154 H 0.21614 -0.00344 0.97005 0.0
H1155 H 0.30961 0.0034 0.96865 0.0
H1156 H 0.7182 0.96831 0.97722 0.0
H1157 H 0.81099 0.97692 0.97647 0.0
H1158 H 0.80158 0.98515 0.93737 0.0
H1159 H 0.70851 0.97728 0.93821 0.0
Tb1160 Tb 0.34049 0.72109 0.95603 0.0
Tb1161 Tb 0.23632 0.74485 0.9567 0.0
C1162 C 0.43137 0.70828 0.95053 0.0
C1163 C 0.48621 0.71573 0.95158 0.0
C1164 C 0.51775 0.7149 0.94116 0.0
C1165 C 0.57094 0.71953 0.94198 0.0
C1166 C 0.59391 0.72503 0.95326 0.0
C1167 C 0.56194 0.72647 0.96365 0.0
C1168 C 0.50859 0.7219 0.96283 0.0
C1169 C 0.29776 0.72272 0.97795 0.0
C1170 C 0.33047 0.77781 0.95952 0.0
C1171 C 0.14519 0.75828 0.96142 0.0
C1172 C 0.09048 0.7505 0.96054 0.0
C1173 C 0.05882 0.75212 0.97091 0.0
C1174 C 1.00567 0.74731 0.97018 0.0
C1175 C 0.98286 0.74088 0.95901 0.0
C1176 C 1.01492 0.73864 0.94867 0.0
C1177 C 0.06823 0.74335 0.94943 0.0
C1178 C 0.28285 0.74328 0.93514 0.0
C1179 C 0.24272 0.6887 0.9534 0.0
O1180 O 0.40169 0.7209 0.94334 0.0
O1181 O 0.4074 0.70175 0.9605 0.0
O1182 O 0.29607 0.73886 0.96994 0.0
O1183 O 0.32709 0.70564 0.97401 0.0
O1184 O 0.35999 0.7596 0.95603 0.0
O1185 O 0.28141 0.77485 0.96248 0.0
O1186 O 0.17474 0.74706 0.96925 0.0
O1187 O 0.16956 0.76324 0.95125 0.0
O1188 O 0.28143 0.72713 0.94306 0.0
O1189 O 0.25494 0.76104 0.9389 0.0
O1190 O 0.21491 0.70727 0.95688 0.0
O1191 O 0.29277 0.69062 0.95084 0.0
H1192 H 0.50141 0.71003 0.93241 0.0
H1193 H 0.59434 0.71798 0.93381 0.0
H1194 H 0.5782 0.731 0.97246 0.0
H1195 H 0.48515 0.72275 0.97101 0.0
H1196 H 0.075 0.75777 0.97956 0.0
H1197 H 0.98216 0.74949 0.97829 0.0
H1198 H 0.99874 0.7334 0.93996 0.0
H1199 H 0.09171 0.74188 0.94127 0.0
Tb1200 Tb 0.4533 0.72013 0.83976 0.0
Tb1201 Tb 0.55764 0.74405 0.83894 0.0
C1202 C 0.3628 0.70698 0.84548 0.0
C1203 C 0.30764 0.71374 0.84438 0.0
C1204 C 0.27425 0.70887 0.85416 0.0
C1205 C 0.22093 0.71294 0.85313 0.0
C1206 C 0.19968 0.72196 0.84226 0.0
C1207 C 0.23353 0.72754 0.83257 0.0
C1208 C 0.28705 0.72345 0.83361 0.0
C1209 C 0.49577 0.7217 0.8178 0.0
C1210 C 0.46297 0.77684 0.83601 0.0
C1211 C 0.64853 0.75782 0.83413 0.0
C1212 C 0.70332 0.75009 0.83453 0.0
C1213 C 0.7358 0.75583 0.8247 0.0
C1214 C 0.78901 0.7511 0.82522 0.0
C1215 C 0.81113 0.7406 0.83565 0.0
C1216 C 0.77811 0.73411 0.84535 0.0
C1217 C 0.72472 0.7388 0.8448 0.0
C1218 C 0.51095 0.74308 0.86047 0.0
C1219 C 0.55153 0.68797 0.8423 0.0
O1220 O 0.39201 0.7203 0.85245 0.0
O1221 O 0.38679 0.70025 0.83555 0.0
O1222 O 0.49763 0.73781 0.82582 0.0
O1223 O 0.46628 0.70466 0.82176 0.0
O1224 O 0.43325 0.75858 0.83938 0.0
O1225 O 0.51231 0.77401 0.83327 0.0
O1226 O 0.61824 0.74735 0.82618 0.0
O1227 O 0.62521 0.76165 0.84455 0.0
O1228 O 0.51238 0.72663 0.85269 0.0
O1229 O 0.53891 0.76073 0.85658 0.0
O1230 O 0.5791 0.70656 0.83874 0.0
O1231 O 0.50153 0.68978 0.84494 0.0
H1232 H 0.28935 0.70144 0.86256 0.0
H1233 H 0.19629 0.70889 0.86086 0.0
H1234 H 0.21854 0.73438 0.82404 0.0
H1235 H 0.31208 0.72737 0.82593 0.0
H1236 H 0.72013 0.7645 0.81667 0.0
H1237 H 0.81291 0.75589 0.81748 0.0
H1238 H 0.79372 0.72614 0.85356 0.0
H1239 H 0.70049 0.73417 0.85252 0.0
Tb1240 Tb 0.34464 0.00145 0.83683 0.0
Tb1241 Tb 0.24028 0.97773 0.83606 0.0
C1242 C 0.43558 0.01411 0.84235 0.0
C1243 C 0.49038 0.0067 0.84114 0.0
C1244 C 0.52157 0.00612 0.85161 0.0
C1245 C 0.57474 0.00152 0.85072 0.0
C1246 C 0.59804 -0.00254 0.83931 0.0
C1247 C 0.56644 -0.00257 0.82884 0.0
C1248 C 0.51311 0.00198 0.82974 0.0
C1249 C 0.3021 -0.00014 0.81489 0.0
C1250 C 0.33452 0.94478 0.83326 0.0
C1251 C 0.14922 0.9645 0.83116 0.0
C1252 C 0.09456 0.97231 0.83213 0.0
C1253 C 0.06343 0.97201 0.82164 0.0
C1254 C 1.01029 0.97681 0.8224 0.0
C1255 C 0.98696 0.98188 0.8337 0.0
C1256 C 1.0185 0.98282 0.84417 0.0
C1257 C 0.07178 0.97812 0.84339 0.0
C1258 C 0.28655 0.97877 0.85762 0.0
C1259 C 0.24705 0.03385 0.83969 0.0
O1260 O 0.406 0.00121 0.84945 0.0
O1261 O 0.4114 0.02106 0.83249 0.0
O1262 O 0.30028 0.98376 0.82291 0.0
O1263 O 0.33161 0.0169 0.81881 0.0
O1264 O 0.36403 0.96298 0.83677 0.0
O1265 O 0.28551 0.94774 0.83027 0.0
O1266 O 0.17893 0.97603 0.82346 0.0
O1267 O 0.17346 0.95907 0.84127 0.0
O1268 O 0.2855 -0.00488 0.84979 0.0
O1269 O 0.25818 0.96122 0.85379 0.0
O1270 O 0.21906 0.01536 0.83616 0.0
O1271 O 0.29711 0.03183 0.84219 0.0
H1272 H 0.50498 0.00988 0.86049 0.0
H1273 H 0.59787 0.00197 0.85895 0.0
H1274 H 0.58297 -0.00596 0.81993 0.0
H1275 H 0.48999 0.00224 0.8215 0.0
H1276 H 0.08 0.96738 0.81287 0.0
H1277 H 0.98716 0.97567 0.81418 0.0
H1278 H 1.0019 -0.013 0.85298 0.0
H1279 H 0.0948 0.97855 0.85164 0.0
H1280 H 0.03332 0.39412 0.09512 0.0
H1281 H 0.75785 0.32777 0.09559 0.0
H1282 H 0.88647 0.43039 0.09106 0.0
H1283 H 0.90487 0.29134 0.09228 0.0
H1284 H 0.80448 0.36578 0.09687 0.0
H1285 H 0.98659 0.35625 0.09698 0.0
C1286 C 0.99133 0.39414 0.09468 0.0
C1287 C 0.96381 0.41538 0.09281 0.0
C1288 C 0.82643 0.34942 0.09591 0.0
C1289 C 0.91024 0.37229 0.09496 0.0
C1290 C 0.79985 0.32775 0.09522 0.0
C1291 C 0.82746 0.30642 0.09371 0.0
C1292 C 0.88089 0.34965 0.09517 0.0
C1293 C 0.8819 0.30739 0.0933 0.0
C1294 C 0.96469 0.37254 0.09572 0.0
C1295 C 0.90937 0.41441 0.09235 0.0
N1296 N 0.90681 0.32865 0.09399 0.0
N1297 N 0.88439 0.39321 0.09339 0.0
H1298 H 0.53943 0.89311 0.09405 0.0
H1299 H 0.26313 0.8275 0.09517 0.0
H1300 H 0.39305 0.92956 0.08948 0.0
H1301 H 0.40978 0.79055 0.09253 0.0
H1302 H 0.3102 0.86545 0.09595 0.0
H1303 H 0.49224 0.85544 0.0963 0.0
C1304 C 0.49745 0.89321 0.09357 0.0
C1305 C 0.47021 0.91444 0.09146 0.0
C1306 C 0.33197 0.84899 0.09525 0.0
C1307 C 0.41609 0.87159 0.09406 0.0
C1308 C 0.30514 0.82736 0.09484 0.0
C1309 C 0.33252 0.80589 0.09366 0.0
C1310 C 0.38645 0.84904 0.09455 0.0
C1311 C 0.38699 0.8067 0.0933 0.0
C1312 C 0.47054 0.87173 0.09484 0.0
C1313 C 0.41576 0.91357 0.09096 0.0
N1314 N 0.41213 0.82793 0.0937 0.0
N1315 N 0.39052 0.89249 0.09222 0.0
H1316 H 0.76332 0.89413 0.19819 0.0
H1317 H 0.0387 0.82779 0.1991 0.0
H1318 H 0.91057 0.93072 0.20046 0.0
H1319 H 0.89202 0.79167 0.20402 0.0
H1320 H 0.99195 0.86553 0.19687 0.0
H1321 H 0.80977 0.85602 0.19754 0.0
C1322 C 0.80533 0.89416 0.19846 0.0
C1323 C 0.83305 0.91559 0.19949 0.0
C1324 C 0.97007 0.8493 0.1984 0.0
C1325 C 0.88631 0.87223 0.19875 0.0
C1326 C 0.99673 0.82777 0.19966 0.0
C1327 C 0.9693 0.80659 0.20184 0.0
C1328 C 0.91565 0.84958 0.19927 0.0
C1329 C 0.91487 0.8076 0.20245 0.0
C1330 C 0.83181 0.87244 0.19813 0.0
C1331 C 0.88751 0.91462 0.19979 0.0
N1332 N 0.88986 0.82874 0.2012 0.0
N1333 N 0.91231 0.8933 0.19946 0.0
H1334 H 0.26261 0.39481 0.19836 0.0
H1335 H 0.5373 0.32791 0.1989 0.0
H1336 H 0.41002 0.43121 0.20086 0.0
H1337 H 0.38998 0.29209 0.2033 0.0
H1338 H 0.49113 0.36588 0.19694 0.0
H1339 H 0.30883 0.35672 0.19741 0.0
C1340 C 0.30463 0.39481 0.19862 0.0
C1341 C 0.33244 0.41619 0.19979 0.0
C1342 C 0.469 0.34966 0.1983 0.0
C1343 C 0.38546 0.3728 0.19872 0.0
C1344 C 0.49533 0.32801 0.1994 0.0
C1345 C 0.46753 0.30684 0.20137 0.0
C1346 C 0.41456 0.35007 0.1991 0.0
C1347 C 0.41311 0.30799 0.20191 0.0
C1348 C 0.33098 0.37308 0.19811 0.0
C1349 C 0.3869 0.41515 0.20007 0.0
N1350 N 0.38845 0.32925 0.2008 0.0
N1351 N 0.4116 0.39382 0.19958 0.0
H1352 H 1.01009 0.57795 0.949 0.0
H1353 H 0.28526 0.64457 0.94921 0.0
H1354 H 0.15743 0.54161 0.9517 0.0
H1355 H 0.13837 0.68063 0.95374 0.0
H1356 H 0.23866 0.60669 0.9473 0.0
H1357 H 0.05648 0.61605 0.94786 0.0
C1358 C 0.0521 0.57797 0.94927 0.0
C1359 C 0.07988 0.55664 0.95057 0.0
C1360 C 0.21672 0.62294 0.94868 0.0
C1361 C 0.13304 0.59995 0.94927 0.0
C1362 C 0.24329 0.64454 0.94975 0.0
C1363 C 0.21574 0.66573 0.95175 0.0
C1364 C 0.16229 0.62262 0.94954 0.0
C1365 C 0.16131 0.66469 0.95234 0.0
C1366 C 0.07855 0.59968 0.94865 0.0
C1367 C 0.13434 0.55766 0.95085 0.0
N1368 N 0.1364 0.64348 0.95127 0.0
N1369 N 0.15911 0.57896 0.95024 0.0
H1370 H 0.78537 0.14501 0.94838 0.0
H1371 H 0.51058 0.07816 0.94762 0.0
H1372 H 0.63822 0.18108 0.95239 0.0
H1373 H 0.65796 0.04202 0.95082 0.0
H1374 H 0.55678 0.1163 0.94653 0.0
H1375 H 0.73898 0.10711 0.94644 0.0
C1376 C 0.74338 0.14498 0.94878 0.0
C1377 C 0.71569 0.16618 0.95065 0.0
C1378 C 0.5789 0.09997 0.94742 0.0
C1379 C 0.66247 0.12302 0.94842 0.0
C1380 C 0.55257 0.07823 0.94802 0.0
C1381 C 0.58041 0.05694 0.94943 0.0
C1382 C 0.63335 0.10032 0.94817 0.0
C1383 C 0.63483 0.05803 0.94987 0.0
C1384 C 0.71692 0.12336 0.9477 0.0
C1385 C 0.66124 0.16513 0.95107 0.0
N1386 N 0.65949 0.07936 0.94927 0.0
N1387 N 0.63644 0.14389 0.95 0.0
H1388 H 1.01588 0.14496 0.8454 0.0
H1389 H 0.29012 0.07774 0.84422 0.0
H1390 H 0.16358 0.18111 0.84284 0.0
H1391 H 0.14277 0.04219 0.8394 0.0
H1392 H 0.24406 0.11565 0.84652 0.0
H1393 H 0.0618 0.10674 0.84609 0.0
C1394 C 0.05789 0.14487 0.84508 0.0
C1395 C 0.0859 0.1662 0.84395 0.0
C1396 C 0.22189 0.09951 0.84499 0.0
C1397 C 0.13853 0.12272 0.84472 0.0
C1398 C 0.24816 0.07789 0.8437 0.0
C1399 C 0.22032 0.05683 0.84151 0.0
C1400 C 0.16747 0.09999 0.84417 0.0
C1401 C 0.16592 0.05803 0.84095 0.0
C1402 C 0.08406 0.12308 0.84543 0.0
C1403 C 0.14033 0.16508 0.84358 0.0
N1404 N 0.1413 0.07925 0.84224 0.0
N1405 N 0.16484 0.1437 0.84392 0.0
H1406 H 0.50954 0.64333 0.84547 0.0
H1407 H 0.78632 0.57815 0.84482 0.0
H1408 H 0.65595 0.68044 0.84243 0.0
H1409 H 0.64006 0.54123 0.84092 0.0
H1410 H 0.73893 0.61584 0.84667 0.0
H1411 H 0.55686 0.60548 0.84657 0.0
C1412 C 0.55154 0.64353 0.84512 0.0
C1413 C 0.57877 0.66501 0.84373 0.0
C1414 C 0.7173 0.59944 0.84544 0.0
C1415 C 0.63301 0.62198 0.845 0.0
C1416 C 0.74434 0.57795 0.84441 0.0
C1417 C 0.71719 0.55657 0.8426 0.0
C1418 C 0.66282 0.59945 0.84473 0.0
C1419 C 0.66271 0.55732 0.84217 0.0
C1420 C 0.57852 0.62196 0.84571 0.0
C1421 C 0.63325 0.66427 0.84335 0.0
N1422 N 0.63736 0.57842 0.8432 0.0
N1423 N 0.65854 0.64311 0.84394 0.0
H1424 H 0.88744 0.93206 0.58851 0.0
H1425 H 0.90782 0.79116 0.59659 0.0
H1426 H 0.03174 0.89499 0.59501 0.0
H1427 H 0.7622 0.82861 0.59292 0.0
H1428 H 0.95316 0.82915 0.59699 0.0
H1429 H 0.84079 0.89463 0.59089 0.0
C1430 C 0.90945 0.91604 0.59045 0.0
C1431 C 0.96379 0.91664 0.59147 0.0
C1432 C 0.91129 0.82912 0.59617 0.0
C1433 C 0.91021 0.87363 0.59423 0.0
C1434 C 0.88523 0.8074 0.59592 0.0
C1435 C 0.83102 0.80668 0.5946 0.0
C1436 C 0.88312 0.85038 0.59501 0.0
C1437 C 0.80398 0.82833 0.59392 0.0
C1438 C 0.88261 0.89466 0.59185 0.0
C1439 C 0.98993 0.89534 0.5941 0.0
N1440 N 0.83041 0.84934 0.59403 0.0
N1441 N 0.96287 0.87465 0.59532 0.0
H1442 H 0.26709 0.32776 0.5957 0.0
H1443 H 0.54264 0.39413 0.59469 0.0
H1444 H 0.41385 0.29102 0.59269 0.0
H1445 H 0.39562 0.43021 0.59056 0.0
H1446 H 0.49606 0.3562 0.59662 0.0
H1447 H 0.31388 0.36574 0.59655 0.0
C1448 C 0.30908 0.32766 0.5953 0.0
C1449 C 0.33653 0.30622 0.59403 0.0
C1450 C 0.4741 0.37247 0.59533 0.0
C1451 C 0.39023 0.34949 0.59498 0.0
C1452 C 0.50066 0.3941 0.59425 0.0
C1453 C 0.47305 0.41532 0.59236 0.0
C1454 C 0.41963 0.37215 0.59459 0.0
C1455 C 0.41861 0.41426 0.59188 0.0
C1456 C 0.33577 0.34932 0.59575 0.0
C1457 C 0.391 0.30713 0.59356 0.0
N1458 N 0.39374 0.39304 0.59297 0.0
N1459 N 0.41603 0.32841 0.59401 0.0
H1460 H 0.04057 0.32866 0.69931 0.0
H1461 H 0.76482 0.39467 0.69895 0.0
H1462 H 0.8939 0.29243 0.70403 0.0
H1463 H 0.91183 0.43147 0.70126 0.0
H1464 H 0.81157 0.35669 0.69796 0.0
H1465 H 0.99372 0.36645 0.69724 0.0
C1466 C 0.9986 0.32864 0.69986 0.0
C1467 C 0.97118 0.30743 0.70196 0.0
C1468 C 0.8335 0.37313 0.69863 0.0
C1469 C 0.91746 0.35041 0.69956 0.0
C1470 C 0.80684 0.39478 0.69916 0.0
C1471 C 0.83442 0.41621 0.70031 0.0
C1472 C 0.88801 0.37301 0.69918 0.0
C1473 C 0.88889 0.41535 0.70052 0.0
C1474 C 0.97189 0.35017 0.69869 0.0
C1475 C 0.91675 0.30839 0.70255 0.0
N1476 N 0.91388 0.3941 0.7 0.0
N1477 N 0.89172 0.32953 0.70139 0.0
H1478 H 0.53289 0.82631 0.69835 0.0
H1479 H 0.25945 0.89421 0.69777 0.0
H1480 H 0.38532 0.79067 0.70268 0.0
H1481 H 0.40772 0.92974 0.7007 0.0
H1482 H 0.30475 0.85583 0.69683 0.0
H1483 H 0.48711 0.86433 0.69647 0.0
C1484 C 0.49091 0.82645 0.69884 0.0
C1485 C 0.46295 0.80532 0.70076 0.0
C1486 C 0.32726 0.87208 0.69763 0.0
C1487 C 0.41039 0.84867 0.69861 0.0
C1488 C 0.30145 0.89396 0.69813 0.0
C1489 C 0.3298 0.91516 0.69942 0.0
C1490 C 0.38171 0.8715 0.69833 0.0
C1491 C 0.38419 0.91382 0.69984 0.0
C1492 C 0.4648 0.84815 0.69779 0.0
C1493 C 0.40854 0.80655 0.7013 0.0
N1494 N 0.40833 0.89236 0.69932 0.0
N1495 N 0.38405 0.82788 0.70026 0.0
H1496 H 1.01238 0.07778 0.4482 0.0
H1497 H 0.28832 0.14381 0.44862 0.0
H1498 H 0.15943 0.041 0.44999 0.0
H1499 H 0.14209 0.17996 0.45405 0.0
H1500 H 0.24121 0.10613 0.44639 0.0
H1501 H 0.05914 0.11584 0.44753 0.0
C1502 C 0.0544 0.0777 0.44836 0.0
C1503 C 0.082 0.05623 0.44927 0.0
C1504 C 0.21952 0.12236 0.44804 0.0
C1505 C 0.13559 0.09952 0.44851 0.0
C1506 C 0.24638 0.14385 0.4493 0.0
C1507 C 0.21918 0.16501 0.45163 0.0
C1508 C 0.16513 0.12211 0.44905 0.0
C1509 C 0.16478 0.16404 0.45239 0.0
C1510 C 0.08106 0.09939 0.44801 0.0
C1511 C 0.13648 0.05713 0.44943 0.0
N1512 N 0.13958 0.14294 0.45112 0.0
N1513 N 0.16145 0.07841 0.44909 0.0
H1514 H 0.79343 0.64255 0.45009 0.0
H1515 H 0.51581 0.57799 0.44935 0.0
H1516 H 0.64764 0.67943 0.45485 0.0
H1517 H 0.66178 0.54037 0.45146 0.0
H1518 H 0.56363 0.61574 0.44853 0.0
H1519 H 0.74558 0.60503 0.44784 0.0
C1520 C 0.75146 0.64277 0.45061 0.0
C1521 C 0.72458 0.66408 0.45278 0.0
C1522 C 0.5851 0.59917 0.44912 0.0
C1523 C 0.66972 0.62142 0.45017 0.0
C1524 C 0.55782 0.57766 0.44956 0.0
C1525 C 0.58479 0.55605 0.45061 0.0
C1526 C 0.63962 0.59899 0.44967 0.0
C1527 C 0.6393 0.55663 0.4508 0.0
C1528 C 0.72418 0.62139 0.44934 0.0
C1529 C 0.67011 0.66339 0.45333 0.0
N1530 N 0.66488 0.57775 0.45039 0.0
N1531 N 0.64452 0.6424 0.45206 0.0
H1532 H 0.29223 0.57833 0.34545 0.0
H1533 H 1.01718 0.64495 0.3463 0.0
H1534 H 0.14522 0.54244 0.34072 0.0
H1535 H 0.16449 0.68145 0.34377 0.0
H1536 H 0.06355 0.60685 0.3471 0.0
H1537 H 0.24576 0.61619 0.34762 0.0
C1538 C 0.25027 0.57839 0.34492 0.0
C1539 C 0.22264 0.55725 0.34279 0.0
C1540 C 0.08563 0.62325 0.34642 0.0
C1541 C 0.16934 0.60034 0.3453 0.0
C1542 C 0.05919 0.64497 0.346 0.0
C1543 C 0.08695 0.66636 0.34485 0.0
C1544 C 0.14012 0.62301 0.34576 0.0
C1545 C 0.14141 0.66536 0.34452 0.0
C1546 C 0.22377 0.59998 0.34614 0.0
C1547 C 0.16822 0.55834 0.34222 0.0
N1548 N 0.16618 0.64405 0.34494 0.0
N1549 N 0.14339 0.57952 0.34344 0.0
H1550 H 0.78635 0.07783 0.34397 0.0
H1551 H 0.5101 0.14343 0.34464 0.0
H1552 H 0.64 0.04127 0.33943 0.0
H1553 H 0.65691 0.18038 0.34223 0.0
H1554 H 0.55707 0.10547 0.34551 0.0
H1555 H 0.73918 0.11551 0.34604 0.0
C1556 C 0.74438 0.07771 0.34346 0.0
C1557 C 0.71715 0.05643 0.34142 0.0
C1558 C 0.57889 0.12193 0.34484 0.0
C1559 C 0.66303 0.09932 0.34381 0.0
C1560 C 0.55212 0.14357 0.34438 0.0
C1561 C 0.57958 0.16504 0.34323 0.0
C1562 C 0.6334 0.12188 0.34423 0.0
C1563 C 0.63406 0.16423 0.34296 0.0
C1564 C 0.71748 0.09919 0.34463 0.0
C1565 C 0.66271 0.05728 0.34087 0.0
N1566 N 0.65914 0.143 0.34342 0.0
N1567 N 0.63747 0.07838 0.34203 0.0
H1568 H 0.07584 0.4548 0.12033 0.0
H1569 H 0.22957 0.53263 0.16983 0.0
H1570 H 0.05868 0.53103 0.12355 0.0
H1571 H 0.21271 0.4563 0.17253 0.0
H1572 H 0.17269 0.53243 0.15191 0.0
H1573 H 0.13129 0.45492 0.13849 0.0
C1574 C 0.08369 0.47156 0.12489 0.0
C1575 C 0.06269 0.49294 0.12043 0.0
C1576 C 0.18134 0.51571 0.15643 0.0
C1577 C 0.1264 0.49326 0.14119 0.0
C1578 C 0.21398 0.51581 0.16662 0.0
C1579 C 0.22581 0.49445 0.17268 0.0
C1580 C 0.16084 0.49404 0.15213 0.0
C1581 C 0.20443 0.47318 0.16815 0.0
C1582 C 0.11527 0.47162 0.13527 0.0
C1583 C 0.07398 0.51414 0.1267 0.0
N1584 N 0.17319 0.47349 0.15813 0.0
N1585 N 0.1053 0.51379 0.13671 0.0
H1586 H 0.21987 0.76698 0.12183 0.0
H1587 H 0.06888 0.69012 0.17225 0.0
H1588 H 0.23787 0.69088 0.12553 0.0
H1589 H 0.08684 0.76643 0.17471 0.0
H1590 H 0.12451 0.69003 0.1541 0.0
H1591 H 0.16523 0.76722 0.14017 0.0
C1592 C 0.21236 0.75033 0.12653 0.0
C1593 C 0.2334 0.72887 0.12216 0.0
C1594 C 0.11636 0.7068 0.1586 0.0
C1595 C 0.17061 0.72896 0.14311 0.0
C1596 C 0.08442 0.70687 0.16894 0.0
C1597 C 0.07328 0.72831 0.175 0.0
C1598 C 0.13682 0.72839 0.15417 0.0
C1599 C 0.09459 0.74949 0.17033 0.0
C1600 C 0.18126 0.75048 0.137 0.0
C1601 C 0.22253 0.70782 0.12861 0.0
N1602 N 0.12513 0.74902 0.16018 0.0
N1603 N 0.19168 0.70836 0.1387 0.0
H1604 H 0.83099 0.51751 0.87033 0.0
H1605 H 0.98532 0.44005 0.91997 0.0
H1606 H 0.81568 0.44117 0.87341 0.0
H1607 H 0.96767 0.51635 0.92255 0.0
H1608 H 0.92952 0.4401 0.90185 0.0
H1609 H 0.88689 0.51752 0.88843 0.0
C1610 C 0.83938 0.50075 0.87484 0.0
C1611 C 0.81872 0.4793 0.87037 0.0
C1612 C 0.93782 0.45684 0.90637 0.0
C1613 C 0.88292 0.47913 0.89106 0.0
C1614 C 0.96986 0.45683 0.91668 0.0
C1615 C 0.98101 0.47822 0.92278 0.0
C1616 C 0.91725 0.47846 0.90202 0.0
C1617 C 0.95985 0.49944 0.91814 0.0
C1618 C 0.87122 0.50076 0.88518 0.0
C1619 C 0.8307 0.45811 0.87658 0.0
N1620 N 0.92914 0.49904 0.90804 0.0
N1621 N 0.8622 0.45853 0.88655 0.0
H1622 H 0.99161 0.28285 0.87474 0.0
H1623 H 0.83448 0.20556 0.92406 0.0
H1624 H 0.97385 0.20655 0.8722 0.0
H1625 H 0.81975 0.28191 0.9209 0.0
H1626 H 0.8916 0.20549 0.90615 0.0
H1627 H 0.93519 0.28287 0.89278 0.0
C1628 C 0.976 0.26609 0.87802 0.0
C1629 C 0.98728 0.24467 0.87196 0.0
C1630 C 0.87581 0.22226 0.90935 0.0
C1631 C 0.92281 0.24451 0.89262 0.0
C1632 C 0.84329 0.22231 0.91958 0.0
C1633 C 0.82236 0.24377 0.92396 0.0
C1634 C 0.88797 0.24388 0.9035 0.0
C1635 C 0.83494 0.26496 0.91779 0.0
C1636 C 0.94361 0.26611 0.88828 0.0
C1637 C 0.96593 0.22347 0.87658 0.0
N1638 N 0.86708 0.2645 0.90793 0.0
N1639 N 0.93486 0.2239 0.88664 0.0
H1640 H 0.07922 0.95503 0.61896 0.0
H1641 H 0.23792 0.03168 0.66815 0.0
H1642 H 0.06611 0.03145 0.62203 0.0
H1643 H 0.21737 0.95556 0.67099 0.0
H1644 H 0.18138 0.03189 0.65016 0.0
H1645 H 0.13566 0.95473 0.63696 0.0
C1646 C 0.0882 0.97174 0.62345 0.0
C1647 C 0.068 -0.0067 0.619 0.0
C1648 C 0.1892 0.01514 0.65471 0.0
C1649 C 0.13285 -0.00686 0.63958 0.0
C1650 C 0.22167 0.01499 0.66494 0.0
C1651 C 0.23224 -0.00643 0.67108 0.0
C1652 C 0.16761 -0.00636 0.65046 0.0
C1653 C 0.21004 0.97248 0.66655 0.0
C1654 C 0.12034 0.97157 0.63373 0.0
C1655 C 0.08074 0.01443 0.62518 0.0
N1656 N 0.17894 0.97302 0.65651 0.0
N1657 N 0.11256 0.01385 0.6351 0.0
H1658 H 0.2346 0.19006 0.62466 0.0
H1659 H 0.0825 0.26797 0.67443 0.0
H1660 H 0.21838 0.26642 0.62202 0.0
H1661 H 0.06472 0.19177 0.6712 0.0
H1662 H 0.13761 0.26783 0.65619 0.0
H1663 H 0.17816 0.1903 0.64267 0.0
C1664 C 0.21926 0.20689 0.62791 0.0
C1665 C 0.23112 0.22825 0.62184 0.0
C1666 C 0.12153 0.25114 0.65943 0.0
C1667 C 0.16662 0.22871 0.64249 0.0
C1668 C 0.09014 0.25121 0.66985 0.0
C1669 C 0.06906 0.22984 0.67433 0.0
C1670 C 0.1324 0.2295 0.65348 0.0
C1671 C 0.08009 0.20865 0.66803 0.0
C1672 C 0.18686 0.20701 0.63816 0.0
C1673 C 0.21005 0.24954 0.62641 0.0
N1674 N 0.11123 0.20898 0.65798 0.0
N1675 N 0.17903 0.24925 0.63648 0.0
H1676 H 0.98634 0.93994 0.41835 0.0
H1677 H 0.83069 0.01743 0.36898 0.0
H1678 H 0.96847 0.01621 0.42106 0.0
H1679 H 0.81536 0.94109 0.37208 0.0
H1680 H 0.88691 0.01744 0.38702 0.0
H1681 H 0.92998 0.94002 0.40033 0.0
C1682 C 0.97071 0.95672 0.41511 0.0
C1683 C 0.98197 0.97809 0.42121 0.0
C1684 C 0.87115 0.00069 0.38379 0.0
C1685 C 0.91757 0.97837 0.40056 0.0
C1686 C 0.83913 0.00067 0.37348 0.0
C1687 C 0.81838 0.97922 0.36903 0.0
C1688 C 0.88296 0.97905 0.38965 0.0
C1689 C 0.83044 0.95803 0.37523 0.0
C1690 C 0.93835 0.95675 0.40486 0.0
C1691 C 0.96058 -0.00068 0.41664 0.0
N1692 N 0.86213 0.95846 0.38517 0.0
N1693 N 0.92957 -0.00106 0.40659 0.0
H1694 H 0.99068 0.78225 0.37602 0.0
H1695 H 0.83714 0.70355 0.42533 0.0
H1696 H 0.97347 0.70598 0.37301 0.0
H1697 H 0.82013 0.77984 0.42247 0.0
H1698 H 0.89288 0.70401 0.40718 0.0
H1699 H 0.93451 0.78174 0.39409 0.0
C1700 C 0.97523 0.76538 0.3792 0.0
C1701 C 0.98664 0.74413 0.373 0.0
C1702 C 0.87685 0.72065 0.41049 0.0
C1703 C 0.92247 0.74337 0.39372 0.0
C1704 C 0.84509 0.7204 0.42085 0.0
C1705 C 0.82402 0.7417 0.4254 0.0
C1706 C 0.88809 0.74241 0.40467 0.0
C1707 C 0.83547 0.76301 0.41924 0.0
C1708 C 0.94298 0.76511 0.38948 0.0
C1709 C 0.96548 0.72278 0.3775 0.0
N1710 N 0.86694 0.76285 0.40924 0.0
N1711 N 0.93459 0.72293 0.38759 0.0
H1712 H 0.58489 0.45496 0.61999 0.0
H1713 H 0.73752 0.53269 0.66978 0.0
H1714 H 0.56775 0.5312 0.62318 0.0
H1715 H 0.72048 0.45634 0.67233 0.0
H1716 H 0.68151 0.53257 0.65169 0.0
H1717 H 0.64024 0.45509 0.63817 0.0
C1718 C 0.59273 0.47173 0.62455 0.0
C1719 C 0.57173 0.49311 0.62008 0.0
C1720 C 0.68997 0.51584 0.6562 0.0
C1721 C 0.63538 0.49344 0.64086 0.0
C1722 C 0.72213 0.51589 0.66649 0.0
C1723 C 0.73356 0.4945 0.67257 0.0
C1724 C 0.66958 0.49419 0.65184 0.0
C1725 C 0.71247 0.47325 0.66794 0.0
C1726 C 0.62427 0.4718 0.63493 0.0
C1727 C 0.58304 0.51431 0.62635 0.0
N1728 N 0.68168 0.47361 0.65785 0.0
N1729 N 0.61431 0.51397 0.63637 0.0
H1730 H 0.73949 0.6882 0.62473 0.0
H1731 H 0.58203 0.76558 0.67397 0.0
H1732 H 0.71999 0.7644 0.62211 0.0
H1733 H 0.56716 0.68919 0.67106 0.0
H1734 H 0.6393 0.76543 0.65611 0.0
H1735 H 0.68337 0.68803 0.64287 0.0
C1736 C 0.72361 0.70489 0.62802 0.0
C1737 C 0.73424 0.72633 0.6219 0.0
C1738 C 0.62347 0.74868 0.65935 0.0
C1739 C 0.67028 0.72633 0.64265 0.0
C1740 C 0.59086 0.74877 0.66956 0.0
C1741 C 0.5698 0.72737 0.67398 0.0
C1742 C 0.6356 0.727 0.65356 0.0
C1743 C 0.58243 0.7061 0.6679 0.0
C1744 C 0.69141 0.70478 0.63833 0.0
C1745 C 0.71259 0.74745 0.62653 0.0
N1746 N 0.61466 0.70643 0.65805 0.0
N1747 N 0.6818 0.74694 0.63662 0.0
H1748 H 0.3157 0.44047 0.37273 0.0
H1749 H 0.47087 0.51713 0.42256 0.0
H1750 H 0.33469 0.51673 0.3703 0.0
H1751 H 0.48464 0.44074 0.41944 0.0
H1752 H 0.41521 0.51742 0.40443 0.0
H1753 H 0.3713 0.44021 0.39089 0.0
C1754 C 0.33141 0.45717 0.37606 0.0
C1755 C 0.32069 0.47865 0.37 0.0
C1756 C 0.43049 0.50059 0.40768 0.0
C1757 C 0.38422 0.47853 0.39079 0.0
C1758 C 0.46218 0.50042 0.41804 0.0
C1759 C 0.48233 0.47888 0.42251 0.0
C1760 C 0.41842 0.47903 0.40178 0.0
C1761 C 0.47001 0.45775 0.41627 0.0
C1762 C 0.36334 0.45701 0.38639 0.0
C1763 C 0.34216 0.49977 0.37468 0.0
N1764 N 0.43865 0.45833 0.40628 0.0
N1765 N 0.37275 0.4992 0.3848 0.0
H1766 H 0.33237 0.20403 0.42414 0.0
H1767 H 0.48394 0.28147 0.37399 0.0
H1768 H 0.31483 0.2802 0.4207 0.0
H1769 H 0.46688 0.20512 0.37153 0.0
H1770 H 0.42847 0.28139 0.39218 0.0
H1771 H 0.38766 0.20401 0.40592 0.0
C1772 C 0.34012 0.22075 0.41952 0.0
C1773 C 0.319 0.24215 0.42393 0.0
C1774 C 0.43681 0.26465 0.38767 0.0
C1775 C 0.38254 0.24232 0.40311 0.0
C1776 C 0.46866 0.26467 0.37732 0.0
C1777 C 0.4799 0.24327 0.37123 0.0
C1778 C 0.41654 0.243 0.39208 0.0
C1779 C 0.45898 0.22203 0.37592 0.0
C1780 C 0.37161 0.22073 0.40911 0.0
C1781 C 0.3302 0.2633 0.41759 0.0
N1782 N 0.42848 0.22241 0.38607 0.0
N1783 N 0.3614 0.26288 0.40755 0.0
H1784 H 0.73772 0.03173 0.16824 0.0
H1785 H 0.58344 0.95381 0.11881 0.0
H1786 H 0.71979 0.95547 0.17107 0.0
H1787 H 0.56724 0.03011 0.12182 0.0
H1788 H 0.63921 0.95399 0.13692 0.0
H1789 H 0.68161 0.03152 0.15017 0.0
C1790 C 0.72213 0.01493 0.16502 0.0
C1791 C 0.73333 -0.00641 0.17117 0.0
C1792 C 0.62335 0.9707 0.13365 0.0
C1793 C 0.6692 -0.00684 0.15046 0.0
C1794 C 0.59159 0.9706 0.12331 0.0
C1795 C 0.57071 -0.00802 0.11881 0.0
C1796 C 0.63482 -0.00762 0.13951 0.0
C1797 C 0.58241 0.01322 0.12501 0.0
C1798 C 0.6899 0.01482 0.15474 0.0
C1799 C 0.71197 0.97233 0.16662 0.0
N1800 N 0.61389 0.01291 0.13499 0.0
N1801 N 0.6811 0.97264 0.15653 0.0
H1802 H 0.73289 0.18974 0.12408 0.0
H1803 H 0.57933 0.26727 0.17383 0.0
H1804 H 0.71562 0.26607 0.12162 0.0
H1805 H 0.56253 0.191 0.17067 0.0
H1806 H 0.63516 0.26716 0.15572 0.0
H1807 H 0.67689 0.18973 0.1422 0.0
C1808 C 0.71749 0.20651 0.1274 0.0
C1809 C 0.7288 0.22794 0.12134 0.0
C1810 C 0.61917 0.25044 0.15895 0.0
C1811 C 0.66484 0.2281 0.14209 0.0
C1812 C 0.58736 0.2505 0.1693 0.0
C1813 C 0.5663 0.22911 0.17375 0.0
C1814 C 0.63049 0.2288 0.15305 0.0
C1815 C 0.57785 0.2079 0.16751 0.0
C1816 C 0.68533 0.20648 0.1377 0.0
C1817 C 0.7077 0.24914 0.126 0.0
N1818 N 0.60938 0.20825 0.15753 0.0
N1819 N 0.6769 0.24871 0.1361 0.0
H1820 H 0.31427 0.94047 0.87162 0.0
H1821 H 0.46797 0.01765 0.92144 0.0
H1822 H 0.33303 0.01672 0.86895 0.0
H1823 H 0.48451 0.94142 0.91808 0.0
H1824 H 0.41243 0.01774 0.90328 0.0
H1825 H 0.37006 0.94045 0.88974 0.0
C1826 C 0.32998 0.95722 0.87489 0.0
C1827 C 0.3191 0.97862 0.86877 0.0
C1828 C 0.42831 0.00099 0.90649 0.0
C1829 C 0.38283 0.97878 0.88953 0.0
C1830 C 0.45995 0.00093 0.91686 0.0
C1831 C 0.48086 0.97949 0.92126 0.0
C1832 C 0.41702 0.97941 0.90052 0.0
C1833 C 0.4693 0.95835 0.91496 0.0
C1834 C 0.36201 0.95719 0.8852 0.0
C1835 C 0.3406 -0.00019 0.87337 0.0
N1836 N 0.43796 0.95881 0.90496 0.0
N1837 N 0.37126 -0.00063 0.88349 0.0
H1838 H 0.48223 0.78152 0.87425 0.0
H1839 H 0.32811 0.7047 0.92421 0.0
H1840 H 0.46482 0.70517 0.87194 0.0
H1841 H 0.31178 0.78093 0.92072 0.0
H1842 H 0.38389 0.70447 0.90608 0.0
H1843 H 0.42601 0.7817 0.89231 0.0
C1844 C 0.46672 0.76478 0.87758 0.0
C1845 C 0.47809 0.74331 0.87158 0.0
C1846 C 0.368 0.72125 0.90925 0.0
C1847 C 0.41386 0.74333 0.89229 0.0
C1848 C 0.33622 0.72139 0.9196 0.0
C1849 C 0.31532 0.74287 0.92397 0.0
C1850 C 0.37944 0.74279 0.90325 0.0
C1851 C 0.32698 0.76396 0.91763 0.0
C1852 C 0.43444 0.7649 0.88786 0.0
C1853 C 0.45685 0.72214 0.87628 0.0
N1854 N 0.35847 0.76342 0.90764 0.0
N1855 N 0.42592 0.72266 0.88636 0.0
H1856 H 0.27177 0.65285 0.08367 0.0
H1857 H 1.0251 0.56826 0.08091 0.0
H1858 H 0.1151 0.67904 0.08791 0.0
H1859 H 0.18002 0.54216 0.08791 0.0
H1860 H 0.05793 0.60887 0.08112 0.0
H1861 H 0.23881 0.61234 0.08293 0.0
C1862 C 0.23026 0.65013 0.08439 0.0
C1863 C 0.19599 0.66943 0.08581 0.0
C1864 C 0.08473 0.59428 0.0826 0.0
C1865 C 0.15823 0.62287 0.085 0.0
C1866 C 0.0662 0.57102 0.08242 0.0
C1867 C 0.10001 0.55172 0.08438 0.0
C1868 C 0.13755 0.59835 0.08466 0.0
C1869 C 0.15267 0.55649 0.08635 0.0
C1870 C 0.21162 0.62692 0.08403 0.0
C1871 C 0.1428 0.66469 0.0868 0.0
N1872 N 0.16992 0.57941 0.08642 0.0
N1873 N 0.12544 0.64179 0.08633 0.0
H1874 H 0.18708 0.68071 0.20797 0.0
H1875 H 0.11449 0.54217 0.20762 0.0
H1876 H 0.03246 0.65426 0.21514 0.0
H1877 H 0.27083 0.56857 0.21232 0.0
H1878 H 0.08283 0.58342 0.20866 0.0
H1879 H 0.2186 0.63944 0.20788 0.0
C1880 C 0.15992 0.6663 0.2096 0.0
C1881 C 0.1072 0.67094 0.21159 0.0
C1882 C 0.12403 0.58004 0.20953 0.0
C1883 C 0.14257 0.62393 0.21134 0.0
C1884 C 0.14202 0.55656 0.20892 0.0
C1885 C 0.19524 0.55192 0.20993 0.0
C1886 C 0.15969 0.59886 0.21098 0.0
C1887 C 0.22936 0.57124 0.21156 0.0
C1888 C 0.17783 0.64279 0.20955 0.0
C1889 C 0.07353 0.65157 0.21361 0.0
N1890 N 0.21103 0.59385 0.21197 0.0
N1891 N 0.09174 0.62892 0.21335 0.0
H1892 H 0.77841 0.31792 0.96554 0.0
H1893 H 1.02238 0.40372 0.9608 0.0
H1894 H 0.93212 0.29266 0.95646 0.0
H1895 H 0.86455 0.4291 0.95789 0.0
H1896 H 0.99057 0.36304 0.96177 0.0
H1897 H 0.81059 0.35861 0.96545 0.0
C1898 C 0.81914 0.32086 0.96361 0.0
C1899 C 0.85274 0.30178 0.96098 0.0
C1900 C 0.96288 0.37747 0.96092 0.0
C1901 C 0.88951 0.34853 0.96085 0.0
C1902 C 0.98086 0.40078 0.96043 0.0
C1903 C 0.94591 0.4199 0.95931 0.0
C1904 C 0.9095 0.37315 0.9604 0.0
C1905 C 0.89274 0.41489 0.95876 0.0
C1906 C 0.83728 0.34418 0.9635 0.0
C1907 C 0.90495 0.30682 0.95854 0.0
N1908 N 0.87605 0.3919 0.95936 0.0
N1909 N 0.92181 0.3298 0.95854 0.0
H1910 H 0.77959 0.40368 0.83128 0.0
H1911 H 0.02697 0.31947 0.83287 0.0
H1912 H 0.93484 0.43023 0.83748 0.0
H1913 H 0.87067 0.2933 0.83797 0.0
H1914 H 0.99392 0.35999 0.83216 0.0
H1915 H 0.81289 0.3632 0.83127 0.0
C1916 C 0.82086 0.40105 0.83257 0.0
C1917 C 0.85461 0.42044 0.83437 0.0
C1918 C 0.96685 0.34541 0.83343 0.0
C1919 C 0.89272 0.37393 0.83441 0.0
C1920 C 0.98554 0.3222 0.83378 0.0
C1921 C 0.95139 0.30291 0.83545 0.0
C1922 C 0.91355 0.34944 0.83466 0.0
C1923 C 0.89829 0.30764 0.83666 0.0
C1924 C 0.83968 0.37786 0.83263 0.0
C1925 C 0.90752 0.41582 0.83606 0.0
N1926 N 0.88091 0.33051 0.8362 0.0
N1927 N 0.92504 0.39295 0.83601 0.0
H1928 H 0.18489 0.04155 0.58648 0.0
H1929 H 0.117 0.18067 0.58718 0.0
H1930 H 0.03092 0.06927 0.57997 0.0
H1931 H 0.27264 0.15322 0.58292 0.0
H1932 H 0.08398 0.13966 0.58618 0.0
H1933 H 0.21792 0.08257 0.58677 0.0
C1934 C 0.15817 0.05619 0.58505 0.0
C1935 C 0.1052 0.05197 0.58317 0.0
C1936 C 0.12534 0.14273 0.58541 0.0
C1937 C 0.14232 0.09872 0.58363 0.0
C1938 C 0.14411 0.16609 0.58599 0.0
C1939 C 0.19752 0.17038 0.58508 0.0
C1940 C 0.16038 0.12367 0.58406 0.0
C1941 C 0.23106 0.15081 0.58359 0.0
C1942 C 0.17694 0.07956 0.58521 0.0
C1943 C 0.07215 0.07163 0.5814 0.0
N1944 N 0.21195 0.12833 0.58318 0.0
N1945 N 0.09122 0.09413 0.58174 0.0
H1946 H 0.03254 0.15482 0.71525 0.0
H1947 H 0.27462 0.06879 0.70724 0.0
H1948 H 0.18506 0.18 0.70504 0.0
H1949 H 0.11627 0.04342 0.7068 0.0
H1950 H 0.24329 0.1095 0.70846 0.0
H1951 H 0.06394 0.11403 0.71439 0.0
C1952 C 0.07284 0.15183 0.7129 0.0
C1953 C 0.10634 0.17093 0.7102 0.0
C1954 C 0.21534 0.09508 0.70808 0.0
C1955 C 0.14222 0.12406 0.70917 0.0
C1956 C 0.2331 0.07175 0.70745 0.0
C1957 C 0.19787 0.05262 0.70701 0.0
C1958 C 0.16193 0.09942 0.70837 0.0
C1959 C 0.14467 0.05764 0.70715 0.0
C1960 C 0.09053 0.12846 0.71235 0.0
C1961 C 0.15798 0.16584 0.70719 0.0
N1962 N 0.12822 0.08065 0.70788 0.0
N1963 N 0.1744 0.14282 0.70677 0.0
H1964 H 0.94091 0.7907 0.45679 0.0
H1965 H 0.86553 0.92905 0.45652 0.0
H1966 H 0.78707 0.81663 0.46519 0.0
H1967 H 1.02308 0.9032 0.45915 0.0
H1968 H 0.83474 0.88764 0.45783 0.0
H1969 H 0.97138 0.83208 0.45591 0.0
C1970 C 0.91371 0.80503 0.45853 0.0
C1971 C 0.86152 0.8002 0.4611 0.0
C1972 C 0.87603 0.89117 0.45816 0.0
C1973 C 0.89567 0.84736 0.45994 0.0
C1974 C 0.89351 0.91473 0.45739 0.0
C1975 C 0.94679 0.91957 0.45781 0.0
C1976 C 0.91225 0.87249 0.45919 0.0
C1977 C 0.98154 0.90036 0.4589 0.0
C1978 C 0.93101 0.82861 0.45801 0.0
C1979 C 0.82777 0.81947 0.46322 0.0
N1980 N 0.96367 0.87769 0.45952 0.0
N1981 N 0.84537 0.8422 0.46253 0.0
H1982 H 0.02749 0.81965 0.33471 0.0
H1983 H 0.78041 0.9035 0.32932 0.0
H1984 H 0.87049 0.79317 0.33773 0.0
H1985 H 0.93407 0.93018 0.33729 0.0
H1986 H 0.81368 0.86299 0.32996 0.0
H1987 H 0.9943 0.86005 0.33334 0.0
C1988 C 0.98588 0.82229 0.33503 0.0
C1989 C 0.95157 0.80295 0.33629 0.0
C1990 C 0.84012 0.87769 0.33155 0.0
C1991 C 0.91352 0.84937 0.33475 0.0
C1992 C 0.82133 0.9009 0.33112 0.0
C1993 C 0.85462 0.92032 0.33326 0.0
C1994 C 0.89267 0.87382 0.33404 0.0
C1995 C 0.9071 0.91575 0.33559 0.0
C1996 C 0.96708 0.84544 0.33431 0.0
C1997 C 0.89821 0.80756 0.33677 0.0
N1998 N 0.92458 0.89289 0.33591 0.0
N1999 N 0.88072 0.83039 0.33595 0.0
H2000 H 0.53116 0.56822 0.58213 0.0
H2001 H 0.77277 0.65583 0.57959 0.0
H2002 H 0.68901 0.54323 0.58575 0.0
H2003 H 0.61792 0.67914 0.58893 0.0
H2004 H 0.74217 0.61478 0.57903 0.0
H2005 H 0.56235 0.60902 0.58185 0.0
C2006 C 0.57257 0.57126 0.58279 0.0
C2007 C 0.60766 0.5522 0.58393 0.0
C2008 C 0.71494 0.62888 0.58119 0.0
C2009 C 0.64342 0.59916 0.58364 0.0
C2010 C 0.73215 0.65239 0.58143 0.0
C2011 C 0.69773 0.67103 0.58431 0.0
C2012 C 0.66281 0.62393 0.58369 0.0
C2013 C 0.64575 0.66536 0.58668 0.0
C2014 C 0.59021 0.59465 0.5827 0.0
C2015 C 0.6607 0.55738 0.58486 0.0
N2016 N 0.62981 0.64226 0.58629 0.0
N2017 N 0.67708 0.58047 0.58465 0.0
H2018 H 0.77396 0.56917 0.71137 0.0
H2019 H 0.52632 0.65301 0.71465 0.0
H2020 H 0.6174 0.54265 0.70734 0.0
H2021 H 0.68046 0.67956 0.707 0.0
H2022 H 0.5599 0.61256 0.7147 0.0
H2023 H 0.74059 0.60958 0.7124 0.0
C2024 C 0.7324 0.5718 0.71076 0.0
C2025 C 0.69827 0.55245 0.70929 0.0
C2026 C 0.58638 0.62722 0.71303 0.0
C2027 C 0.66007 0.59887 0.71045 0.0
C2028 C 0.56741 0.65039 0.71306 0.0
C2029 C 0.60075 0.66976 0.7108 0.0
C2030 C 0.63914 0.62331 0.71083 0.0
C2031 C 0.65346 0.66516 0.70878 0.0
C2032 C 0.71352 0.59495 0.71129 0.0
C2033 C 0.64499 0.55705 0.70847 0.0
N2034 N 0.67112 0.64232 0.70885 0.0
N2035 N 0.62742 0.57988 0.7091 0.0
H2036 H 0.36572 0.43007 0.45651 0.0
H2037 H 0.43694 0.29127 0.45662 0.0
H2038 H 0.52162 0.4032 0.46118 0.0
H2039 H 0.28193 0.318 0.46289 0.0
H2040 H 0.46884 0.33248 0.45654 0.0
H2041 H 0.33355 0.38886 0.45709 0.0
C2042 C 0.39305 0.41557 0.4577 0.0
C2043 C 0.44628 0.42008 0.45885 0.0
C2044 C 0.42788 0.32921 0.45799 0.0
C2045 C 0.41015 0.37318 0.45939 0.0
C2046 C 0.40975 0.30574 0.45803 0.0
C2047 C 0.35684 0.30119 0.45981 0.0
C2048 C 0.39268 0.34814 0.45959 0.0
C2049 C 0.32316 0.32063 0.46155 0.0
C2050 C 0.37477 0.39212 0.45804 0.0
C2051 C 0.48015 0.40063 0.46033 0.0
N2052 N 0.34161 0.34324 0.46134 0.0
N2053 N 0.46153 0.37806 0.4605 0.0
H2054 H 0.3628 0.29188 0.33724 0.0
H2055 H 0.43784 0.43026 0.33736 0.0
H2056 H 0.5195 0.31792 0.33264 0.0
H2057 H 0.28246 0.40442 0.33059 0.0
H2058 H 0.46855 0.38888 0.33746 0.0
H2059 H 0.3318 0.33328 0.33666 0.0
C2060 C 0.39054 0.30623 0.33607 0.0
C2061 C 0.44365 0.30145 0.33492 0.0
C2062 C 0.42778 0.39238 0.33589 0.0
C2063 C 0.40887 0.34853 0.33439 0.0
C2064 C 0.41033 0.41595 0.33583 0.0
C2065 C 0.35767 0.4208 0.33392 0.0
C2066 C 0.39213 0.37366 0.33417 0.0
C2067 C 0.32354 0.40156 0.33204 0.0
C2068 C 0.37293 0.32979 0.33573 0.0
C2069 C 0.47809 0.32071 0.33347 0.0
N2070 N 0.34132 0.37885 0.33228 0.0
N2071 N 0.46012 0.34338 0.3333 0.0
H2072 H 0.68689 0.04109 0.08677 0.0
H2073 H 0.61104 0.17936 0.08695 0.0
H2074 H 0.53216 0.06693 0.07928 0.0
H2075 H 0.7683 0.15373 0.083 0.0
H2076 H 0.58044 0.1379 0.08612 0.0
H2077 H 0.71744 0.08252 0.08727 0.0
C2078 C 0.65951 0.05541 0.08517 0.0
C2079 C 0.60706 0.05055 0.08294 0.0
C2080 C 0.62162 0.14149 0.08538 0.0
C2081 C 0.64128 0.09771 0.08366 0.0
C2082 C 0.63899 0.16508 0.08588 0.0
C2083 C 0.69212 0.16999 0.08496 0.0
C2084 C 0.65782 0.12285 0.08413 0.0
C2085 C 0.72685 0.15083 0.08364 0.0
C2086 C 0.67685 0.079 0.08546 0.0
C2087 C 0.57307 0.06979 0.08097 0.0
N2088 N 0.7091 0.12812 0.0833 0.0
N2089 N 0.59073 0.09251 0.08144 0.0
H2090 H 0.52778 0.15371 0.21327 0.0
H2091 H 0.77372 0.06886 0.20934 0.0
H2092 H 0.68256 0.17968 0.20585 0.0
H2093 H 0.61659 0.04282 0.20577 0.0
H2094 H 0.74109 0.10938 0.2103 0.0
H2095 H 0.56027 0.11305 0.21284 0.0
C2096 C 0.56878 0.15092 0.21163 0.0
C2097 C 0.60264 0.1702 0.20961 0.0
C2098 C 0.71371 0.09485 0.2093 0.0
C2099 C 0.6398 0.1235 0.20908 0.0
C2100 C 0.73218 0.07161 0.20881 0.0
C2101 C 0.69769 0.05235 0.20752 0.0
C2102 C 0.66028 0.09895 0.20859 0.0
C2103 C 0.64446 0.05714 0.20678 0.0
C2104 C 0.58712 0.12763 0.21132 0.0
C2105 C 0.65517 0.16537 0.20747 0.0
N2106 N 0.62728 0.08005 0.20737 0.0
N2107 N 0.67221 0.14243 0.20728 0.0
H2108 H 0.27661 0.81862 0.96396 0.0
H2109 H 0.52184 0.90378 0.9593 0.0
H2110 H 0.43091 0.7929 0.95587 0.0
H2111 H 0.36441 0.92961 0.95622 0.0
H2112 H 0.48945 0.86322 0.96033 0.0
H2113 H 0.30894 0.85931 0.96352 0.0
C2114 C 0.31748 0.82147 0.96217 0.0
C2115 C 0.35124 0.80226 0.95995 0.0
C2116 C 0.46196 0.87772 0.95942 0.0
C2117 C 0.38819 0.84898 0.9594 0.0
C2118 C 0.48029 0.90097 0.9589 0.0
C2119 C 0.44563 0.92018 0.95773 0.0
C2120 C 0.40852 0.87354 0.95887 0.0
C2121 C 0.39239 0.91532 0.95714 0.0
C2122 C 0.33572 0.84478 0.96185 0.0
C2123 C 0.4036 0.80716 0.95763 0.0
N2124 N 0.37536 0.89239 0.95776 0.0
N2125 N 0.42056 0.83012 0.95743 0.0
H2126 H 0.36096 0.79148 0.83697 0.0
H2127 H 0.43509 0.92997 0.83671 0.0
H2128 H 0.51793 0.81779 0.83341 0.0
H2129 H 0.28053 0.90382 0.82925 0.0
H2130 H 0.46596 0.88865 0.83723 0.0
H2131 H 0.32963 0.83281 0.83595 0.0
C2132 C 0.3887 0.80588 0.83594 0.0
C2133 C 0.44198 0.8012 0.8352 0.0
C2134 C 0.42534 0.89206 0.83542 0.0
C2135 C 0.40682 0.84817 0.83415 0.0
C2136 C 0.4078 0.9156 0.83511 0.0
C2137 C 0.35531 0.92034 0.8329 0.0
C2138 C 0.38994 0.87327 0.83364 0.0
C2139 C 0.32146 0.90104 0.83094 0.0
C2140 C 0.3709 0.82939 0.83534 0.0
C2141 C 0.4764 0.8205 0.83392 0.0
N2142 N 0.33931 0.87834 0.83142 0.0
N2143 N 0.45823 0.84312 0.83348 0.0
H2144 H 0.66993 0.49768 0.10538 0.0
H2145 H 0.404 0.46558 0.07111 0.0
H2146 H 0.66192 0.47637 0.06763 0.0
H2147 H 0.41166 0.48924 0.10851 0.0
H2148 H 0.49827 0.4694 0.06966 0.0
H2149 H 0.57566 0.49374 0.10683 0.0
C2150 C 0.64847 0.49193 0.09742 0.0
C2151 C 0.67412 0.48736 0.08636 0.0
C2152 C 0.47934 0.4738 0.07818 0.0
C2153 C 0.56569 0.48314 0.08792 0.0
C2154 C 0.42536 0.47181 0.07899 0.0
C2155 C 0.39958 0.47709 0.08996 0.0
C2156 C 0.50806 0.48113 0.0884 0.0
C2157 C 0.42973 0.48465 0.09991 0.0
C2158 C 0.5945 0.48988 0.09823 0.0
C2159 C 0.64391 0.48038 0.0763 0.0
N2160 N 0.48222 0.48642 0.0989 0.0
N2161 N 0.59143 0.4785 0.07732 0.0
H2162 H 0.63996 0.70601 0.07357 0.0
H2163 H 0.87882 0.77197 0.10594 0.0
H2164 H 0.6218 0.76041 0.1011 0.0
H2165 H 0.89691 0.71843 0.07798 0.0
H2166 H 0.7848 0.76771 0.10443 0.0
H2167 H 0.73393 0.71051 0.07497 0.0
C2168 C 0.65563 0.71907 0.07984 0.0
C2169 C 0.62262 0.73292 0.0872 0.0
C2170 C 0.80929 0.75688 0.09862 0.0
C2171 C 0.73076 0.73788 0.08898 0.0
C2172 C 0.86311 0.75916 0.09954 0.0
C2173 C 0.89609 0.74546 0.09212 0.0
C2174 C 0.78795 0.74076 0.0902 0.0
C2175 C 0.87317 0.72954 0.08381 0.0
C2176 C 0.70944 0.7215 0.0807 0.0
C2177 C 0.64554 0.74917 0.09534 0.0
N2178 N 0.82062 0.72761 0.0831 0.0
N2179 N 0.69809 0.75119 0.096 0.0
H2180 H 0.67161 0.73743 0.22764 0.0
H2181 H 0.41525 0.74396 0.18642 0.0
H2182 H 0.67297 0.73272 0.18838 0.0
H2183 H 0.41335 0.74681 0.22574 0.0
H2184 H 0.50957 0.7399 0.18696 0.0
H2185 H 0.57729 0.74183 0.22711 0.0
C2186 C 0.65217 0.73757 0.21889 0.0
C2187 C 0.68041 0.7347 0.20804 0.0
C2188 C 0.48855 0.74136 0.19548 0.0
C2189 C 0.57207 0.7394 0.20737 0.0
C2190 C 0.43455 0.74349 0.19519 0.0
C2191 C 0.40611 0.74569 0.20606 0.0
C2192 C 0.51456 0.74141 0.20673 0.0
C2193 C 0.43359 0.74544 0.21712 0.0
C2194 C 0.59821 0.73989 0.21861 0.0
C2195 C 0.65285 0.73459 0.19699 0.0
N2196 N 0.48617 0.74336 0.21717 0.0
N2197 N 0.60031 0.73689 0.19695 0.0
H2198 H 0.89194 0.49068 0.18565 0.0
H2199 H 0.62612 0.47496 0.22289 0.0
H2200 H 0.8843 0.46461 0.22263 0.0
H2201 H 0.63396 0.5023 0.18616 0.0
H2202 H 0.72041 0.47026 0.22281 0.0
H2203 H 0.79762 0.4952 0.18568 0.0
C2204 C 0.87055 0.48613 0.19382 0.0
C2205 C 0.8963 0.47724 0.20415 0.0
C2206 C 0.70152 0.47724 0.21475 0.0
C2207 C 0.78787 0.48203 0.20418 0.0
C2208 C 0.64756 0.47975 0.21475 0.0
C2209 C 0.62189 0.48907 0.20452 0.0
C2210 C 0.73027 0.48405 0.20443 0.0
C2211 C 0.65202 0.49534 0.19432 0.0
C2212 C 0.81656 0.48854 0.1938 0.0
C2213 C 0.8662 0.47124 0.2144 0.0
N2214 N 0.70449 0.49274 0.19454 0.0
N2215 N 0.81371 0.47373 0.21415 0.0
H2216 H 0.64155 0.50373 0.97231 0.0
H2217 H 0.37362 0.47783 0.93756 0.0
H2218 H 0.63178 0.48534 0.93418 0.0
H2219 H 0.38358 0.49311 0.97604 0.0
H2220 H 0.46787 0.48168 0.93604 0.0
H2221 H 0.54726 0.5001 0.97386 0.0
C2222 C 0.61973 0.49869 0.96428 0.0
C2223 C 0.6449 0.49486 0.95309 0.0
C2224 C 0.44946 0.48424 0.94482 0.0
C2225 C 0.53644 0.49105 0.95477 0.0
C2226 C 0.39551 0.48224 0.94567 0.0
C2227 C 0.37043 0.48513 0.95695 0.0
C2228 C 0.47882 0.48922 0.95531 0.0
C2229 C 0.40116 0.49043 0.96719 0.0
C2230 C 0.56574 0.49681 0.96516 0.0
C2231 C 0.61419 0.48879 0.94296 0.0
N2232 N 0.45362 0.49228 0.96612 0.0
N2233 N 0.56172 0.48712 0.94404 0.0
H2234 H 0.42141 0.22639 0.9745 0.0
H2235 H 0.15731 0.23877 0.9364 0.0
H2236 H 0.41528 0.25045 0.93716 0.0
H2237 H 0.16314 0.21657 0.97405 0.0
H2238 H 0.25165 0.2432 0.9365 0.0
H2239 H 0.32708 0.22181 0.97436 0.0
C2240 C 0.40033 0.23048 0.96622 0.0
C2241 C 0.42647 0.23883 0.95582 0.0
C2242 C 0.2323 0.23741 0.94475 0.0
C2243 C 0.31808 0.23395 0.95566 0.0
C2244 C 0.17831 0.23505 0.94473 0.0
C2245 C 0.15205 0.22728 0.95524 0.0
C2246 C 0.26049 0.23196 0.95535 0.0
C2247 C 0.18165 0.22232 0.96569 0.0
C2248 C 0.34635 0.22804 0.96618 0.0
C2249 C 0.39682 0.24424 0.94544 0.0
N2250 N 0.23417 0.22472 0.96548 0.0
N2251 N 0.34432 0.24172 0.94562 0.0
H2252 H 0.64245 0.24764 0.85926 0.0
H2253 H 0.38592 0.22042 0.82031 0.0
H2254 H 0.6438 0.21129 0.82458 0.0
H2255 H 0.38432 0.2549 0.85548 0.0
H2256 H 0.48035 0.21716 0.82163 0.0
H2257 H 0.54806 0.25082 0.85793 0.0
C2258 C 0.62295 0.24028 0.85137 0.0
C2259 C 0.65132 0.22913 0.84203 0.0
C2260 C 0.45936 0.22539 0.82907 0.0
C2261 C 0.5429 0.23283 0.84042 0.0
C2262 C 0.40539 0.22733 0.82831 0.0
C2263 C 0.37697 0.23798 0.83779 0.0
C2264 C 0.48537 0.23424 0.83938 0.0
C2265 C 0.40441 0.24629 0.84801 0.0
C2266 C 0.56898 0.24217 0.8506 0.0
C2267 C 0.62379 0.22029 0.83193 0.0
N2268 N 0.45698 0.24432 0.84851 0.0
N2269 N 0.57122 0.22227 0.83142 0.0
H2270 H 0.16409 0.48256 0.85896 0.0
H2271 H 0.41759 0.49583 0.81702 0.0
H2272 H 0.15983 0.50649 0.82157 0.0
H2273 H 0.42212 0.47478 0.85484 0.0
H2274 H 0.32323 0.49944 0.81843 0.0
H2275 H 0.25838 0.47911 0.85752 0.0
C2276 C 0.18291 0.48715 0.85044 0.0
C2277 C 0.15371 0.49491 0.84038 0.0
C2278 C 0.34485 0.49409 0.82643 0.0
C2279 C 0.26213 0.49082 0.83865 0.0
C2280 C 0.39879 0.49194 0.82563 0.0
C2281 C 0.42805 0.48494 0.83582 0.0
C2282 C 0.31965 0.48912 0.83751 0.0
C2283 C 0.40141 0.4805 0.84678 0.0
C2284 C 0.23685 0.48508 0.84962 0.0
C2285 C 0.18045 0.50017 0.82953 0.0
N2286 N 0.34884 0.48257 0.84731 0.0
N2287 N 0.23303 0.49809 0.82897 0.0
H2288 H 0.40706 0.96669 0.56934 0.0
H2289 H 0.67238 -0.00291 0.60433 0.0
H2290 H 0.41409 -0.0121 0.60713 0.0
H2291 H 0.66498 0.97887 0.56615 0.0
H2292 H 0.57815 -0.00725 0.60565 0.0
H2293 H 0.50131 0.97088 0.568 0.0
C2294 C 0.42825 0.97245 0.57734 0.0
C2295 C 0.40226 0.97693 0.58837 0.0
C2296 C 0.59711 -0.01035 0.59698 0.0
C2297 C 0.5108 0.98141 0.58694 0.0
C2298 C 0.65108 -0.00806 0.59624 0.0
C2299 C 0.67692 -0.01165 0.5851 0.0
C2300 C 0.56846 0.98366 0.58652 0.0
C2301 C 0.64685 0.98211 0.5749 0.0
C2302 C 0.48224 0.97466 0.57659 0.0
C2303 C 0.43227 0.98392 0.59847 0.0
N2304 N 0.59438 0.97998 0.57585 0.0
N2305 N 0.48476 0.98591 0.59751 0.0
H2306 H 0.63703 0.22634 0.56932 0.0
H2307 H 0.88758 0.25396 0.61019 0.0
H2308 H 0.62999 0.24271 0.60773 0.0
H2309 H 0.89507 0.23586 0.57199 0.0
H2310 H 0.79329 0.25001 0.60945 0.0
H2311 H 0.7313 0.23066 0.57001 0.0
C2312 C 0.65521 0.23108 0.57788 0.0
C2313 C 0.62536 0.23419 0.58849 0.0
C2314 C 0.81553 0.24685 0.60123 0.0
C2315 C 0.73369 0.23881 0.58937 0.0
C2316 C 0.8695 0.24892 0.60166 0.0
C2317 C 0.89952 0.24518 0.59114 0.0
C2318 C 0.79111 0.24099 0.59018 0.0
C2319 C 0.8736 0.23918 0.5803 0.0
C2320 C 0.70916 0.23336 0.57829 0.0
C2321 C 0.65136 0.23988 0.59936 0.0
N2322 N 0.82098 0.23727 0.5801 0.0
N2323 N 0.70393 0.242 0.59952 0.0
H2324 H 0.67081 0.2496 0.72729 0.0
H2325 H 0.41703 0.23024 0.68617 0.0
H2326 H 0.67509 0.22263 0.69046 0.0
H2327 H 0.4131 0.25931 0.72259 0.0
H2328 H 0.51135 0.22696 0.68765 0.0
H2329 H 0.57647 0.25302 0.7258 0.0
C2330 C 0.65195 0.24437 0.71889 0.0
C2331 C 0.68113 0.23576 0.70899 0.0
C2332 C 0.48988 0.23403 0.69533 0.0
C2333 C 0.57275 0.23972 0.70721 0.0
C2334 C 0.43594 0.23598 0.69448 0.0
C2335 C 0.40683 0.24513 0.70426 0.0
C2336 C 0.51525 0.24127 0.70604 0.0
C2337 C 0.43366 0.25189 0.71487 0.0
C2338 C 0.59802 0.2464 0.71803 0.0
C2339 C 0.65443 0.22961 0.69828 0.0
N2340 N 0.48623 0.24988 0.71546 0.0
N2341 N 0.60186 0.23163 0.69769 0.0
H2342 H 0.89879 0.00942 0.71182 0.0
H2343 H 0.61927 0.95274 0.6976 0.0
H2344 H 0.87666 0.94283 0.69275 0.0
H2345 H 0.6413 0.02077 0.71531 0.0
H2346 H 0.71347 0.94841 0.69608 0.0
H2347 H 0.80459 0.01331 0.71375 0.0
C2348 C 0.87419 -0.00444 0.70808 0.0
C2349 C 0.89584 0.97582 0.70206 0.0
C2350 C 0.69768 0.96426 0.70032 0.0
C2351 C 0.78774 0.98024 0.70417 0.0
C2352 C 0.64382 0.9668 0.70114 0.0
C2353 C 0.62209 -0.01287 0.70662 0.0
C2354 C 0.73026 0.98219 0.705 0.0
C2355 C 0.6561 0.0046 0.71119 0.0
C2356 C 0.82035 -0.00215 0.70913 0.0
C2357 C 0.86183 0.95856 0.69729 0.0
N2358 N 0.70833 0.00174 0.71027 0.0
N2359 N 0.80962 0.96117 0.69844 0.0
H2360 H 0.64017 0.01186 0.46935 0.0
H2361 H 0.37868 0.96723 0.43698 0.0
H2362 H 0.6369 0.97571 0.43462 0.0
H2363 H 0.38214 0.0013 0.47224 0.0
H2364 H 0.47301 0.97098 0.43576 0.0
H2365 H 0.54584 0.00815 0.47059 0.0
C2366 C 0.61974 0.00292 0.46203 0.0
C2367 C 0.64673 -0.00592 0.45186 0.0
C2368 C 0.45316 0.97769 0.44376 0.0
C2369 C 0.53827 -0.00989 0.45314 0.0
C2370 C 0.39918 0.97573 0.44442 0.0
C2371 C 0.37226 0.98398 0.45473 0.0
C2372 C 0.48069 -0.01197 0.45347 0.0
C2373 C 0.4012 -0.00556 0.46418 0.0
C2374 C 0.56575 0.00098 0.46271 0.0
C2375 C 0.61783 0.98307 0.44257 0.0
N2376 N 0.45374 -0.00384 0.46332 0.0
N2377 N 0.56529 0.98143 0.44343 0.0
H2378 H 0.43154 0.74706 0.44054 0.0
H2379 H 0.16543 0.71296 0.47435 0.0
H2380 H 0.42329 0.7242 0.47806 0.0
H2381 H 0.17338 0.73846 0.43727 0.0
H2382 H 0.25967 0.7169 0.47589 0.0
H2383 H 0.33731 0.74305 0.43903 0.0
C2384 C 0.41004 0.74097 0.44844 0.0
C2385 C 0.43562 0.73597 0.45945 0.0
C2386 C 0.2408 0.72167 0.46742 0.0
C2387 C 0.32721 0.73166 0.45783 0.0
C2388 C 0.18684 0.71961 0.46656 0.0
C2389 C 0.16115 0.72537 0.45566 0.0
C2390 C 0.26959 0.72956 0.45731 0.0
C2391 C 0.19137 0.73348 0.44581 0.0
C2392 C 0.35609 0.73887 0.44759 0.0
C2393 C 0.40534 0.72854 0.46943 0.0
N2394 N 0.24383 0.7353 0.44687 0.0
N2395 N 0.35288 0.72662 0.46838 0.0
H2396 H 0.38427 0.71616 0.32306 0.0
H2397 H 0.64519 0.75217 0.35837 0.0
H2398 H 0.38704 0.75992 0.35542 0.0
H2399 H 0.64234 0.70695 0.32654 0.0
H2400 H 0.55076 0.75553 0.35731 0.0
H2401 H 0.47877 0.71281 0.32408 0.0
C2402 C 0.40472 0.72509 0.33038 0.0
C2403 C 0.37752 0.73835 0.33917 0.0
C2404 C 0.57077 0.7449 0.35054 0.0
C2405 C 0.48595 0.73453 0.34041 0.0
C2406 C 0.62475 0.74291 0.35116 0.0
C2407 C 0.65193 0.72922 0.34254 0.0
C2408 C 0.54351 0.73309 0.34124 0.0
C2409 C 0.62324 0.71794 0.3333 0.0
C2410 C 0.45871 0.72311 0.33097 0.0
C2411 C 0.40618 0.74925 0.34853 0.0
N2412 N 0.57069 0.72007 0.33291 0.0
N2413 N 0.45873 0.74716 0.34888 0.0
H2414 H 0.16235 0.97774 0.35663 0.0
H2415 H 0.41892 0.00015 0.31678 0.0
H2416 H 0.16108 0.01038 0.32099 0.0
H2417 H 0.42052 0.96984 0.35294 0.0
H2418 H 0.32452 0.00369 0.31806 0.0
H2419 H 0.2567 0.97427 0.35533 0.0
C2420 C 0.18185 0.98423 0.34853 0.0
C2421 C 0.15349 -0.00557 0.33892 0.0
C2422 C 0.3455 -0.00369 0.32573 0.0
C2423 C 0.26193 -0.00964 0.33734 0.0
C2424 C 0.39946 -0.00579 0.32499 0.0
C2425 C 0.4279 0.98464 0.33476 0.0
C2426 C 0.31947 -0.01127 0.33631 0.0
C2427 C 0.40044 0.97758 0.34524 0.0
C2428 C 0.23581 0.98217 0.34778 0.0
C2429 C 0.18105 0.00213 0.32857 0.0
N2430 N 0.34787 0.97969 0.34571 0.0
N2431 N 0.23362 -0.0 0.32808 0.0
H2432 H 0.18555 0.45322 0.59358 0.0
H2433 H 0.90549 0.51038 0.58054 0.0
H2434 H 0.16297 0.52225 0.57696 0.0
H2435 H 0.9281 0.44244 0.59828 0.0
H2436 H 0.99967 0.51465 0.57872 0.0
H2437 H 0.09138 0.44875 0.5952 0.0
C2438 C 0.1609 0.46748 0.59031 0.0
C2439 C 0.18249 0.48812 0.58509 0.0
C2440 C 0.98402 0.49881 0.58303 0.0
C2441 C 0.07429 0.48301 0.58682 0.0
C2442 C 0.93018 0.49631 0.58401 0.0
C2443 C 0.90864 0.47606 0.58961 0.0
C2444 C 1.01678 0.48091 0.58764 0.0
C2445 C 0.9428 0.45854 0.59406 0.0
C2446 C 0.10704 0.46486 0.59118 0.0
C2447 C 0.14831 0.50584 0.58086 0.0
N2448 N 0.99501 0.46137 0.59298 0.0
N2449 N 0.09609 0.50289 0.58183 0.0
H2450 H 0.40111 0.72456 0.57977 0.0
H2451 H 0.11763 0.76813 0.60036 0.0
H2452 H 0.3747 0.78091 0.60587 0.0
H2453 H 0.14479 0.711 0.57475 0.0
H2454 H 0.21146 0.77359 0.60226 0.0
H2455 H 0.30732 0.72023 0.57736 0.0
C2456 C 0.3757 0.73616 0.58494 0.0
C2457 C 0.39614 0.7531 0.59306 0.0
C2458 C 0.19687 0.7599 0.59619 0.0
C2459 C 0.28821 0.74802 0.59044 0.0
C2460 C 0.14321 0.75668 0.59515 0.0
C2461 C 0.12295 0.73908 0.58736 0.0
C2462 C 0.23081 0.74541 0.58942 0.0
C2463 C 0.15831 0.72505 0.58072 0.0
C2464 C 0.32202 0.73356 0.58361 0.0
C2465 C 0.36094 0.76735 0.59963 0.0
N2466 N 0.21031 0.72849 0.58192 0.0
N2467 N 0.30887 0.76448 0.59818 0.0
H2468 H 0.89728 0.70648 0.70206 0.0
H2469 H 0.17507 0.76975 0.70887 0.0
H2470 H 0.91736 0.78175 0.70894 0.0
H2471 H 0.15483 0.69412 0.70308 0.0
H2472 H 0.08078 0.77455 0.70882 0.0
H2473 H 0.99159 0.70168 0.70211 0.0
C2474 C 0.92147 0.72201 0.70355 0.0
C2475 C 0.89918 0.74454 0.70553 0.0
C2476 C 0.09698 0.75691 0.70754 0.0
C2477 C 1.0074 0.73915 0.70567 0.0
C2478 C 0.15088 0.75413 0.70762 0.0
C2479 C 0.17313 0.7315 0.70594 0.0
C2480 C 0.0649 0.73691 0.70578 0.0
C2481 C 0.13963 0.71198 0.70421 0.0
C2482 C 0.97536 0.71924 0.70363 0.0
C2483 C 0.93263 0.76397 0.70756 0.0
N2484 N 0.08733 0.71514 0.70418 0.0
N2485 N 0.98493 0.76083 0.70756 0.0
H2486 H 0.1326 0.47004 0.72406 0.0
H2487 H 0.39063 0.49713 0.68554 0.0
H2488 H 0.13244 0.50472 0.68894 0.0
H2489 H 0.39056 0.4605 0.72014 0.0
H2490 H 0.29622 0.50041 0.68672 0.0
H2491 H 0.22705 0.46661 0.72287 0.0
C2492 C 0.1524 0.47696 0.7161 0.0
C2493 C 0.12437 0.48772 0.70659 0.0
C2494 C 0.31683 0.49168 0.69407 0.0
C2495 C 0.23279 0.48378 0.70515 0.0
C2496 C 0.37081 0.48973 0.69338 0.0
C2497 C 0.39879 0.47848 0.70274 0.0
C2498 C 0.29034 0.4823 0.70419 0.0
C2499 C 0.37086 0.46959 0.71278 0.0
C2500 C 0.20637 0.47493 0.71541 0.0
C2501 C 0.15221 0.49603 0.69642 0.0
N2502 N 0.31828 0.47163 0.71322 0.0
N2503 N 0.20478 0.49397 0.69599 0.0
H2504 H 0.88328 0.497 0.47525 0.0
H2505 H 0.13809 0.48065 0.43404 0.0
H2506 H 0.87993 0.4725 0.43797 0.0
H2507 H 0.14111 0.50727 0.47095 0.0
H2508 H 0.04373 0.47721 0.43538 0.0
H2509 H 0.97765 0.50064 0.4739 0.0
C2510 C 0.90234 0.49236 0.46677 0.0
C2511 C 0.8734 0.48438 0.45671 0.0
C2512 C 0.06501 0.48377 0.4432 0.0
C2513 C 0.98183 0.48859 0.45509 0.0
C2514 C 0.11898 0.48582 0.44243 0.0
C2515 C 0.14786 0.49432 0.45239 0.0
C2516 C 0.03938 0.49027 0.454 0.0
C2517 C 0.12075 0.50035 0.46308 0.0
C2518 C 0.95629 0.49452 0.466 0.0
C2519 C 0.90038 0.47899 0.44592 0.0
N2520 N 0.06816 0.49827 0.46359 0.0
N2521 N 0.95296 0.4811 0.44541 0.0
H2522 H 0.91202 0.26471 0.47262 0.0
H2523 H 0.67371 0.19821 0.44029 0.0
H2524 H 0.93061 0.20986 0.44534 0.0
H2525 H 0.65505 0.25173 0.46825 0.0
H2526 H 0.76769 0.20251 0.4419 0.0
H2527 H 0.81807 0.26003 0.47124 0.0
C2528 C 0.89647 0.25151 0.46641 0.0
C2529 C 0.9296 0.2376 0.45912 0.0
C2530 C 0.74309 0.21333 0.44768 0.0
C2531 C 0.82146 0.23244 0.45734 0.0
C2532 C 0.68929 0.21102 0.44671 0.0
C2533 C 0.65615 0.22472 0.4541 0.0
C2534 C 0.76428 0.22948 0.45611 0.0
C2535 C 0.67891 0.24063 0.46243 0.0
C2536 C 0.84266 0.24898 0.46556 0.0
C2537 C 0.9068 0.22117 0.45105 0.0
N2538 N 0.73146 0.24259 0.46319 0.0
N2539 N 0.85426 0.21906 0.45039 0.0
H2540 H 0.14077 0.21874 0.32164 0.0
H2541 H 0.8723 0.24346 0.35651 0.0
H2542 H 0.13043 0.23522 0.36 0.0
H2543 H 0.88288 0.22968 0.31789 0.0
H2544 H 0.96651 0.23944 0.35805 0.0
H2545 H 0.04653 0.22259 0.32008 0.0
C2546 C 0.11884 0.2234 0.32972 0.0
C2547 C 0.14386 0.22663 0.34098 0.0
C2548 C 0.94825 0.23725 0.34924 0.0
C2549 C 0.03541 0.23069 0.33928 0.0
C2550 C 0.89431 0.23935 0.34837 0.0
C2551 C 0.86939 0.23692 0.33705 0.0
C2552 C 0.97778 0.23264 0.33872 0.0
C2553 C 0.9003 0.232 0.32678 0.0
C2554 C 0.06487 0.22541 0.32884 0.0
C2555 C 0.11298 0.23222 0.35116 0.0
N2556 N 0.95273 0.23004 0.32787 0.0
N2557 N 0.06054 0.23404 0.35007 0.0
H2558 H 0.92266 0.50152 0.31753 0.0
H2559 H 0.66745 0.47779 0.35765 0.0
H2560 H 0.92553 0.4706 0.35355 0.0
H2561 H 0.66482 0.51112 0.32218 0.0
H2562 H 0.76179 0.47455 0.35619 0.0
H2563 H 0.82826 0.50483 0.31896 0.0
C2564 C 0.90348 0.4954 0.32574 0.0
C2565 C 0.93227 0.48574 0.33543 0.0
C2566 C 0.7406 0.48255 0.34871 0.0
C2567 C 0.82386 0.48955 0.33715 0.0
C2568 C 0.68665 0.48448 0.34955 0.0
C2569 C 0.65792 0.49481 0.34004 0.0
C2570 C 0.76634 0.49101 0.33827 0.0
C2571 C 0.6851 0.50277 0.32969 0.0
C2572 C 0.84952 0.49737 0.32657 0.0
C2573 C 0.90517 0.47844 0.34591 0.0
N2574 N 0.73767 0.50076 0.3291 0.0
N2575 N 0.8526 0.48041 0.34647 0.0
H2576 H 0.90388 0.00673 0.07716 0.0
H2577 H 0.18369 0.95442 0.09492 0.0
H2578 H 0.92608 0.94384 0.09926 0.0
H2579 H 0.16139 0.0186 0.0738 0.0
H2580 H 0.08949 0.95004 0.09647 0.0
H2581 H 0.9981 0.01092 0.07549 0.0
C2582 C 0.92848 -0.00626 0.08163 0.0
C2583 C 0.90679 0.97494 0.0884 0.0
C2584 C 0.10522 0.96506 0.09148 0.0
C2585 C 1.01501 0.97974 0.08659 0.0
C2586 C 0.15909 0.96764 0.09064 0.0
C2587 C 0.18078 -0.01312 0.08419 0.0
C2588 C 0.07254 0.98184 0.08585 0.0
C2589 C 0.14667 0.00325 0.0787 0.0
C2590 C 0.98235 -0.00378 0.08072 0.0
C2591 C 0.94086 0.95884 0.09411 0.0
N2592 N 0.09443 0.00037 0.07966 0.0
N2593 N 0.99311 0.9616 0.09306 0.0
H2594 H 0.13634 0.20182 0.07534 0.0
H2595 H 0.37328 0.27731 0.10268 0.0
H2596 H 0.11653 0.26515 0.09724 0.0
H2597 H 0.3931 0.21512 0.07995 0.0
H2598 H 0.27936 0.2729 0.10096 0.0
H2599 H 0.23023 0.20648 0.07688 0.0
C2600 C 0.15163 0.21685 0.08039 0.0
C2601 C 0.11817 0.23318 0.08612 0.0
C2602 C 0.30419 0.2602 0.09634 0.0
C2603 C 0.22623 0.2384 0.08809 0.0
C2604 C 0.35795 0.2626 0.09739 0.0
C2605 C 0.3914 0.24648 0.09151 0.0
C2606 C 0.28337 0.24153 0.08935 0.0
C2607 C 0.369 0.2281 0.08456 0.0
C2608 C 0.20539 0.21939 0.08134 0.0
C2609 C 0.1406 0.25197 0.09277 0.0
N2610 N 0.31648 0.2261 0.08371 0.0
N2611 N 0.19312 0.25406 0.09356 0.0
H2612 H 0.90683 0.25582 0.22311 0.0
H2613 H 0.17317 0.22469 0.18873 0.0
H2614 H 0.91495 0.23299 0.18559 0.0
H2615 H 0.1647 0.24523 0.22659 0.0
H2616 H 0.07891 0.22856 0.18728 0.0
H2617 H 1.00108 0.25203 0.22457 0.0
C2618 C 0.92828 0.24977 0.21521 0.0
C2619 C 0.90265 0.24472 0.2042 0.0
C2620 C 0.09765 0.23226 0.1959 0.0
C2621 C 1.0111 0.24072 0.20577 0.0
C2622 C 0.15161 0.23025 0.19672 0.0
C2623 C 0.17712 0.23463 0.20781 0.0
C2624 C 0.06871 0.23876 0.20625 0.0
C2625 C 0.14679 0.24138 0.21789 0.0
C2626 C 0.98225 0.2478 0.21602 0.0
C2627 C 0.93291 0.23739 0.19421 0.0
N2628 N 0.09433 0.24322 0.21687 0.0
N2629 N 0.98538 0.23564 0.19523 0.0
H2630 H 0.3801 0.94903 0.1877 0.0
H2631 H 0.14105 0.01614 0.21937 0.0
H2632 H 0.39803 0.00377 0.21506 0.0
H2633 H 0.12311 0.96031 0.19259 0.0
H2634 H 0.23503 0.01167 0.21801 0.0
H2635 H 0.28607 0.95318 0.18924 0.0
C2636 C 0.36434 0.96207 0.19397 0.0
C2637 C 0.39726 0.97616 0.20122 0.0
C2638 C 0.21058 0.00036 0.21244 0.0
C2639 C 0.28914 0.98075 0.20315 0.0
C2640 C 0.15677 0.00277 0.21327 0.0
C2641 C 0.12384 -0.01149 0.20611 0.0
C2642 C 0.23196 0.98359 0.20437 0.0
C2643 C 0.1468 0.97188 0.19819 0.0
C2644 C 0.31052 0.9643 0.1949 0.0
C2645 C 0.37431 -0.00762 0.20936 0.0
N2646 N 0.19935 0.96988 0.19754 0.0
N2647 N 0.32176 -0.00575 0.21009 0.0
H2648 H 0.88839 0.95719 0.96974 0.0
H2649 H 0.12796 0.02336 0.93772 0.0
H2650 H 0.87094 0.01225 0.94253 0.0
H2651 H 0.14544 0.96936 0.96546 0.0
H2652 H 0.03391 0.01932 0.93926 0.0
H2653 H 0.9824 0.96165 0.96843 0.0
C2654 C 0.90423 0.97039 0.96356 0.0
C2655 C 0.87144 0.98443 0.95626 0.0
C2656 C 0.05826 0.00834 0.94501 0.0
C2657 C 0.97957 -0.01067 0.95457 0.0
C2658 C 0.11209 0.0105 0.94407 0.0
C2659 C 0.14488 -0.00342 0.95143 0.0
C2660 C 0.03675 -0.00787 0.95337 0.0
C2661 C 0.12181 0.98061 0.95969 0.0
C2662 C 0.95805 0.9728 0.96276 0.0
C2663 C 0.89453 0.00086 0.94824 0.0
N2664 N 0.06925 0.9788 0.96041 0.0
N2665 N 0.94709 0.00285 0.94761 0.0
H2666 H 0.91744 0.71851 0.9752 0.0
H2667 H 0.65927 0.74825 0.93736 0.0
H2668 H 0.91746 0.75591 0.94081 0.0
H2669 H 0.65951 0.70908 0.97124 0.0
H2670 H 0.75368 0.75158 0.93857 0.0
H2671 H 0.823 0.71513 0.97399 0.0
C2672 C 0.89762 0.72604 0.96739 0.0
C2673 C 0.9256 0.73754 0.9581 0.0
C2674 C 0.7331 0.74228 0.94576 0.0
C2675 C 0.81718 0.73366 0.95664 0.0
C2676 C 0.67913 0.7403 0.94505 0.0
C2677 C 0.6512 0.72832 0.9542 0.0
C2678 C 0.75964 0.73218 0.95568 0.0
C2679 C 0.67917 0.71873 0.96404 0.0
C2680 C 0.84364 0.72404 0.96669 0.0
C2681 C 0.89772 0.74664 0.94812 0.0
N2682 N 0.73174 0.72082 0.9645 0.0
N2683 N 0.84515 0.74458 0.94768 0.0
H2684 H 0.14582 0.75839 0.83113 0.0
H2685 H 0.86517 0.703 0.84571 0.0
H2686 H 0.12255 0.69214 0.85044 0.0
H2687 H 0.88835 0.77063 0.82766 0.0
H2688 H 0.9593 0.69841 0.84726 0.0
H2689 H 0.05167 0.76266 0.82927 0.0
C2690 C 0.12101 0.74468 0.83493 0.0
C2691 C 0.14237 0.72492 0.84099 0.0
C2692 C 0.94378 0.71424 0.84294 0.0
C2693 C 0.03422 0.72979 0.83897 0.0
C2694 C 0.88993 0.71694 0.8421 0.0
C2695 C 0.8685 0.73722 0.83652 0.0
C2696 C 0.9767 0.73196 0.83817 0.0
C2697 C 0.90285 0.7545 0.83187 0.0
C2698 C 0.06717 0.7472 0.83392 0.0
C2699 C 0.10802 0.70788 0.84586 0.0
N2700 N 0.95507 0.75148 0.83281 0.0
N2701 N 0.05582 0.71071 0.84474 0.0
H2702 H 0.66257 0.97204 0.85445 0.0
H2703 H 0.92241 0.00632 0.81815 0.0
H2704 H 0.6644 0.0157 0.82204 0.0
H2705 H 0.92072 0.96457 0.85121 0.0
H2706 H 0.82792 0.00965 0.81929 0.0
H2707 H 0.75697 0.96872 0.85326 0.0
C2708 C 0.68278 0.98097 0.84709 0.0
C2709 C 0.65531 -0.00579 0.83834 0.0
C2710 C 0.84821 -0.0002 0.82632 0.0
C2711 C 0.76373 -0.00963 0.83689 0.0
C2712 C 0.90219 -0.00217 0.82565 0.0
C2713 C 0.9297 0.98513 0.8346 0.0
C2714 C 0.82127 -0.01106 0.83598 0.0
C2715 C 0.90135 0.97479 0.84419 0.0
C2716 C 0.73675 0.979 0.84639 0.0
C2717 C 0.68371 0.00506 0.8289 0.0
N2718 N 0.84879 0.97685 0.8446 0.0
N2719 N 0.73627 0.00295 0.82845 0.0
H2720 H 0.06062 0.44014 0.04809 0.0
H2721 H 0.98302 0.53186 0.995 0.0
H2722 H 1.00892 0.51206 0.05494 0.0
H2723 H 0.0362 0.46015 0.98821 0.0
H2724 H 0.99291 0.52511 1.01691 0.0
H2725 H 0.05081 0.44698 0.0262 0.0
C2726 C 0.04685 0.45736 0.04498 0.0
C2727 C 0.03568 0.47559 0.05335 0.0
C2728 C 1.00261 0.51085 1.01065 0.0
C2729 C 1.0247 0.48363 0.02822 0.0
C2730 C 0.99714 0.51472 0.99813 0.0
C2731 C 1.00871 0.49652 0.98976 0.0
C2732 C 1.01974 0.48856 1.0149 0.0
C2733 C 0.02687 0.47468 0.99433 0.0
C2734 C 0.04143 0.46127 0.03246 0.0
C2735 C 1.01794 0.49751 0.0488 0.0
N2736 N 0.03164 0.47128 1.00658 0.0
N2737 N 1.01317 0.50095 0.03655 0.0
H2738 H 0.25794 0.76252 0.98921 0.0
H2739 H 0.28955 0.70881 0.05683 0.0
H2740 H 0.31435 0.69158 0.99664 0.0
H2741 H 0.23407 0.77989 0.04935 0.0
H2742 H 0.29971 0.70219 0.03483 0.0
H2743 H 0.24776 0.76908 1.0112 0.0
C2744 C 0.26781 0.74827 0.99546 0.0
C2745 C 0.28712 0.7265 0.99109 0.0
C2746 C 0.28545 0.71927 0.038 0.0
C2747 C 0.27606 0.73389 1.01628 0.0
C2748 C 0.27988 0.72307 0.05056 0.0
C2749 C 0.26083 0.7449 0.05492 0.0
C2750 C 0.27186 0.73744 0.02973 0.0
C2751 C 0.24879 0.76275 0.04639 0.0
C2752 C 0.26223 0.75204 1.00802 0.0
C2753 C 0.29941 0.70867 0.99961 0.0
N2754 N 0.25433 0.75861 0.03424 0.0
N2755 N 0.29384 0.71277 1.01177 0.0
H2756 H 0.04427 0.76365 0.30778 0.0
H2757 H 1.01155 0.71016 0.24016 0.0
H2758 H 0.98962 0.6924 0.30033 0.0
H2759 H 0.06389 0.78179 0.24757 0.0
H2760 H 1.00265 0.70335 0.26216 0.0
H2761 H 0.05321 0.77048 0.28578 0.0
C2762 C 0.03455 0.74939 0.30152 0.0
C2763 C 1.01606 0.72745 0.30589 0.0
C2764 C 1.01592 0.72059 0.25898 0.0
C2765 C 0.02569 0.73516 0.28069 0.0
C2766 C 1.02076 0.7245 0.24641 0.0
C2767 C 0.03858 0.74655 0.24203 0.0
C2768 C 0.02904 0.73886 0.26723 0.0
C2769 C 0.05009 0.7645 0.25055 0.0
C2770 C 0.03941 0.75332 0.28895 0.0
C2771 C 1.00392 0.70961 0.29736 0.0
N2772 N 0.04531 0.76025 0.26271 0.0
N2773 N 1.00878 0.71387 0.2852 0.0
H2774 H 0.24542 0.44012 0.24484 0.0
H2775 H 0.32063 0.53262 0.29777 0.0
H2776 H 0.29138 0.51285 0.23786 0.0
H2777 H 0.26813 0.4608 0.30464 0.0
H2778 H 0.31085 0.52574 0.27587 0.0
H2779 H 0.25609 0.44706 0.26669 0.0
C2780 C 0.25816 0.45754 0.24791 0.0
C2781 C 0.26738 0.47596 0.23951 0.0
C2782 C 0.30128 0.51149 0.28214 0.0
C2783 C 0.27932 0.48413 0.26461 0.0
C2784 C 0.3067 0.51543 0.29466 0.0
C2785 C 0.29526 0.49723 0.30304 0.0
C2786 C 0.28439 0.48913 0.27792 0.0
C2787 C 0.27736 0.47532 0.2985 0.0
C2788 C 0.26404 0.46152 0.26041 0.0
C2789 C 0.28386 0.49815 0.24402 0.0
N2790 N 0.27267 0.47186 0.28625 0.0
N2791 N 0.28912 0.50163 0.25626 0.0
H2792 H 0.8043 0.18969 0.99604 0.0
H2793 H 0.73067 0.28199 0.04919 0.0
H2794 H 0.75778 0.26238 0.98926 0.0
H2795 H 0.78155 0.20991 0.05593 0.0
H2796 H 0.7402 0.2752 0.02728 0.0
H2797 H 0.79412 0.19649 1.01793 0.0
C2798 C 0.79153 0.20706 0.99917 0.0
C2799 C 0.78201 0.22553 0.99081 0.0
C2800 C 0.74947 0.26086 0.03353 0.0
C2801 C 0.77065 0.23353 1.01594 0.0
C2802 C 0.7442 0.26476 0.04605 0.0
C2803 C 0.75524 0.24647 0.0544 0.0
C2804 C 0.76583 0.23846 0.02926 0.0
C2805 C 0.77265 0.22451 0.04982 0.0
C2806 C 0.78593 0.21096 1.01168 0.0
C2807 C 0.76553 0.24765 0.99538 0.0
N2808 N 0.77721 0.2211 0.03756 0.0
N2809 N 0.76056 0.25106 1.00763 0.0
H2810 H 0.98936 0.19115 0.79976 0.0
H2811 H 0.06871 0.28264 0.74667 0.0
H2812 H 0.04286 0.26283 0.80656 0.0
H2813 H 1.01592 0.21085 0.73985 0.0
H2814 H 0.05859 0.27587 0.76856 0.0
H2815 H 0.99967 0.19786 0.77786 0.0
C2816 C 1.00363 0.20828 0.79664 0.0
C2817 C 1.01515 0.22648 0.805 0.0
C2818 C 0.04904 0.26159 0.7623 0.0
C2819 C 0.02669 0.23439 0.77987 0.0
C2820 C 0.05465 0.26547 0.74979 0.0
C2821 C 0.04325 0.24725 0.74142 0.0
C2822 C 0.03191 0.23928 0.76655 0.0
C2823 C 1.02514 0.22538 0.74598 0.0
C2824 C 1.00934 0.21212 0.78412 0.0
C2825 C 0.03353 0.2483 0.80043 0.0
N2826 N 1.02019 0.22198 0.75823 0.0
N2827 N 0.03855 0.25167 0.78818 0.0
H2828 H 0.76071 0.45965 0.8053 0.0
H2829 H 0.79268 0.51292 0.7376 0.0
H2830 H 0.81528 0.53087 0.79772 0.0
H2831 H 0.73786 0.44172 0.74514 0.0
H2832 H 0.80236 0.5197 0.75957 0.0
H2833 H 0.75115 0.4528 0.78332 0.0
C2834 C 0.77028 0.4739 0.79902 0.0
C2835 C 0.7889 0.49584 0.80334 0.0
C2836 C 0.78837 0.50256 0.75643 0.0
C2837 C 0.77859 0.48811 0.77817 0.0
C2838 C 0.78308 0.49866 0.74388 0.0
C2839 C 0.76434 0.47675 0.73954 0.0
C2840 C 0.77479 0.48441 0.76472 0.0
C2841 C 0.75236 0.45891 0.74809 0.0
C2842 C 0.76507 0.46997 0.78646 0.0
C2843 C 0.80087 0.51366 0.79478 0.0
N2844 N 0.75761 0.46315 0.76024 0.0
N2845 N 0.79568 0.50939 0.78263 0.0
H2846 H 1.00921 0.01314 0.55396 0.0
H2847 H 0.03978 0.95937 0.48633 0.0
H2848 H 0.06152 0.94156 0.54645 0.0
H2849 H 0.98383 0.03039 0.49377 0.0
H2850 H 0.0497 0.95276 0.50831 0.0
H2851 H 0.99931 0.01987 0.53197 0.0
C2852 C 1.01821 -0.00121 0.54769 0.0
C2853 C 0.0363 0.97678 0.55204 0.0
C2854 C 0.03539 0.96983 0.50514 0.0
C2855 C 1.02562 0.98438 0.52686 0.0
C2856 C 0.02997 0.97363 0.49259 0.0
C2857 C 1.01084 -0.00456 0.48822 0.0
C2858 C 1.02161 -0.01202 0.51341 0.0
C2859 C 0.99862 0.01328 0.49675 0.0
C2860 C 1.01279 0.00266 0.53513 0.0
C2861 C 0.04754 0.95883 0.5435 0.0
N2862 N 1.00405 0.00914 0.5089 0.0
N2863 N 0.0422 0.96304 0.53135 0.0
H2864 H 0.26404 0.26207 0.48908 0.0
H2865 H 0.29498 0.2091 0.55685 0.0
H2866 H 0.31951 0.19106 0.49671 0.0
H2867 H 0.24354 0.28074 0.54918 0.0
H2868 H 0.30475 0.20212 0.53488 0.0
H2869 H 0.25473 0.26904 0.51105 0.0
C2870 C 0.27389 0.2479 0.49538 0.0
C2871 C 0.29268 0.22598 0.49107 0.0
C2872 C 0.2915 0.2194 0.538 0.0
C2873 C 0.2826 0.23384 0.51624 0.0
C2874 C 0.28616 0.22341 0.55055 0.0
C2875 C 0.26832 0.24551 0.55484 0.0
C2876 C 0.27884 0.23762 0.52968 0.0
C2877 C 0.25732 0.26341 0.54627 0.0
C2878 C 0.26882 0.2519 0.50793 0.0
C2879 C 0.30496 0.20825 0.49964 0.0
N2880 N 0.26255 0.25906 0.53412 0.0
N2881 N 0.29986 0.21257 0.51179 0.0
H2882 H 0.26021 0.96034 0.80384 0.0
H2883 H 0.29113 0.01287 0.73596 0.0
H2884 H 0.31966 0.03064 0.79605 0.0
H2885 H 0.23254 0.94246 0.74387 0.0
H2886 H 0.30273 0.01969 0.7579 0.0
H2887 H 0.24878 0.95362 0.78192 0.0
C2888 C 0.27052 0.97441 0.79752 0.0
C2889 C 0.29101 -0.00395 0.80177 0.0
C2890 C 0.28747 0.00271 0.75484 0.0
C2891 C 0.27849 -0.01153 0.77664 0.0
C2892 C 0.28108 -0.0012 0.74231 0.0
C2893 C 0.26076 0.97709 0.73809 0.0
C2894 C 0.27342 0.98479 0.76321 0.0
C2895 C 0.24824 0.95949 0.74672 0.0
C2896 C 0.2642 0.97055 0.78499 0.0
C2897 C 0.3038 0.01366 0.79316 0.0
N2898 N 0.25461 0.96374 0.75884 0.0
N2899 N 0.29749 0.00947 0.78103 0.0
H2900 H 0.83622 0.69159 0.49822 0.0
H2901 H 0.68953 0.769 0.54867 0.0
H2902 H 0.75598 0.75717 0.49008 0.0
H2903 H 0.80442 0.71621 0.55799 0.0
H2904 H 0.70913 0.76309 0.52712 0.0
H2905 H 0.82019 0.69822 0.51997 0.0
C2906 C 0.81498 0.70734 0.50101 0.0
C2907 C 0.79729 0.72385 0.49231 0.0
C2908 C 0.73042 0.75289 0.53384 0.0
C2909 C 0.77878 0.73152 0.51722 0.0
C2910 C 0.71924 0.75623 0.54617 0.0
C2911 C 0.74564 0.74317 0.55514 0.0
C2912 C 0.76781 0.73602 0.53037 0.0
C2913 C 0.78361 0.72683 0.55137 0.0
C2914 C 0.80611 0.71117 0.51344 0.0
C2915 C 0.77013 0.74396 0.49645 0.0
N2916 N 0.79332 0.72357 0.53924 0.0
N2917 N 0.76156 0.74717 0.5086 0.0
H2918 H 0.79124 0.0129 0.23626 0.0
H2919 H 0.76011 0.95963 0.30399 0.0
H2920 H 0.73566 0.94186 0.24387 0.0
H2921 H 0.81552 0.03071 0.29639 0.0
H2922 H 0.74994 0.95287 0.28202 0.0
H2923 H 0.80145 0.01967 0.25823 0.0
C2924 C 0.78156 -0.00132 0.24255 0.0
C2925 C 0.76247 0.97681 0.23824 0.0
C2926 C 0.76418 0.96998 0.28515 0.0
C2927 C 0.77355 0.98445 0.2634 0.0
C2928 C 0.76975 0.97386 0.2977 0.0
C2929 C 0.78878 -0.00426 0.30201 0.0
C2930 C 0.77775 -0.01189 0.27685 0.0
C2931 C 0.8008 0.01355 0.29345 0.0
C2932 C 0.78716 0.00257 0.2551 0.0
C2933 C 0.75042 0.95902 0.2468 0.0
N2934 N 0.79526 0.00933 0.28131 0.0
N2935 N 0.75598 0.96324 0.25895 0.0
H2936 H 0.56871 0.44016 0.54778 0.0
H2937 H 0.49015 0.53182 0.49475 0.0
H2938 H 0.51729 0.51212 0.55461 0.0
H2939 H 0.53993 0.45961 0.48791 0.0
H2940 H 0.50109 0.52513 0.51662 0.0
H2941 H 0.55789 0.44683 0.5259 0.0
C2942 C 0.55479 0.45735 0.54467 0.0
C2943 C 0.54399 0.47564 0.55303 0.0
C2944 C 0.50981 0.51074 0.51036 0.0
C2945 C 0.53187 0.4835 0.52792 0.0
C2946 C 0.50375 0.51457 0.49786 0.0
C2947 C 0.51404 0.49621 0.48949 0.0
C2948 C 0.5263 0.48835 0.5146 0.0
C2949 C 0.53158 0.47425 0.49404 0.0
C2950 C 0.54879 0.46117 0.53216 0.0
C2951 C 0.52605 0.49753 0.54848 0.0
N2952 N 0.53699 0.47091 0.50628 0.0
N2953 N 0.52074 0.50087 0.53624 0.0
H2954 H 0.53423 0.76179 0.80657 0.0
H2955 H 0.50285 0.70854 0.73888 0.0
H2956 H 0.47906 0.69065 0.79906 0.0
H2957 H 0.55309 0.78043 0.74645 0.0
H2958 H 0.49343 0.7016 0.76086 0.0
H2959 H 0.54309 0.76871 0.78458 0.0
C2960 C 0.52438 0.74758 0.80029 0.0
C2961 C 0.50579 0.72564 0.80464 0.0
C2962 C 0.50633 0.71893 0.75771 0.0
C2963 C 0.51534 0.73345 0.77945 0.0
C2964 C 0.51146 0.72292 0.74516 0.0
C2965 C 0.52889 0.74507 0.74083 0.0
C2966 C 0.51879 0.73722 0.76601 0.0
C2967 C 0.53962 0.76305 0.74939 0.0
C2968 C 0.52918 0.75155 0.78774 0.0
C2969 C 0.49346 0.70786 0.7961 0.0
N2970 N 0.53462 0.75872 0.76154 0.0
N2971 N 0.49831 0.71216 0.78394 0.0
H2972 H 0.48277 0.18983 0.29896 0.0
H2973 H 0.56302 0.28169 0.2461 0.0
H2974 H 0.53576 0.26153 0.30591 0.0
H2975 H 0.51093 0.20987 0.2391 0.0
H2976 H 0.55225 0.2748 0.26797 0.0
H2977 H 0.49353 0.19667 0.27708 0.0
C2978 C 0.49703 0.20699 0.29587 0.0
C2979 C 0.50829 0.22516 0.30427 0.0
C2980 C 0.543 0.26054 0.26167 0.0
C2981 C 0.52034 0.23321 0.27917 0.0
C2982 C 0.54897 0.26449 0.24917 0.0
C2983 C 0.53797 0.2463 0.24076 0.0
C2984 C 0.52589 0.23819 0.26586 0.0
C2985 C 0.51985 0.22438 0.24526 0.0
C2986 C 0.50299 0.21091 0.28337 0.0
C2987 C 0.52665 0.24703 0.29976 0.0
N2988 N 0.51455 0.22091 0.2575 0.0
N2989 N 0.53192 0.25047 0.28752 0.0
H2990 H 0.56657 0.93925 0.04638 0.0
H2991 H 0.48482 0.03137 0.99382 0.0
H2992 H 0.5143 0.01095 0.05356 0.0
H2993 H 0.53788 0.9598 0.98661 0.0
H2994 H 0.49613 0.02437 1.01566 0.0
H2995 H 0.55539 0.94626 0.02454 0.0
C2996 C 0.55239 0.95645 0.04336 0.0
C2997 C 0.54145 0.97457 0.05181 0.0
C2998 C 0.50548 0.01019 1.00932 0.0
C2999 C 0.52889 0.98281 0.02674 0.0
C3000 C 0.49919 0.0142 0.99684 0.0
C3001 C 0.51031 -0.00388 0.98838 0.0
C3002 C 0.52301 -0.01213 1.01344 0.0
C3003 C 0.52885 0.97424 0.99281 0.0
C3004 C 0.54619 0.96047 0.03087 0.0
C3005 C 0.52318 -0.00351 0.04737 0.0
N3006 N 0.53444 0.9707 1.00503 0.0
N3007 N 0.51764 2e-05 0.03514 0.0
loop_
_geom_bond_atom_site_label_1
_geom_bond_atom_site_label_2
_geom_bond_distance
_geom_bond_site_symmetry_2
_ccdc_geom_bond_type
Tb0 C2 2.809 . S
Tb0 O20 2.484 . S
Tb0 O21 2.440 . S
Tb0 O22 2.658 1_655 S
Tb0 O23 2.409 . S
Tb0 O24 2.378 . S
Tb0 O28 2.325 1_655 S
Tb0 O31 2.341 1_655 S
Tb1 C11 2.809 . S
Tb1 O22 2.325 . S
Tb1 O25 2.341 . S
Tb1 O26 2.484 . S
Tb1 O27 2.440 . S
Tb1 O28 2.658 . S
Tb1 O29 2.409 . S
Tb1 O30 2.378 . S
C2 Tb0 2.809 . S
C2 C3 1.514 . S
C2 O20 1.248 . S
C2 O21 1.266 . S
C3 C2 1.514 . S
C3 C4 1.359 . S
C3 C8 1.348 . S
C4 C3 1.359 . S
C4 C5 1.380 . S
C4 H32 0.929 . S
C5 C4 1.380 . S
C5 C6 1.347 . S
C5 H33 0.931 . S
C6 C5 1.347 . S
C6 C7 1.369 . S
C7 C6 1.369 . S
C7 C8 1.408 . S
C7 H34 0.930 . S
C8 C3 1.348 . S
C8 C7 1.408 . S
C8 H35 0.930 . S
C9 O22 1.281 . S
C9 O23 1.254 1_455 S
C10 O24 1.236 . S
C10 O25 1.266 1_655 S
C11 Tb1 2.809 . S
C11 C12 1.514 . S
C11 O26 1.248 . S
C11 O27 1.266 . S
C12 C11 1.514 . S
C12 C13 1.359 . S
C12 C17 1.348 . S
C13 C12 1.359 . S
C13 C14 1.380 . S
C13 H36 0.929 . S
C14 C13 1.380 . S
C14 C15 1.347 . S
C14 H37 0.931 . S
C15 C14 1.347 . S
C15 C16 1.369 . S
C16 C15 1.369 . S
C16 C17 1.408 . S
C16 H38 0.930 . S
C17 C12 1.348 . S
C17 C16 1.408 . S
C17 H39 0.930 . S
C18 O28 1.281 . S
C18 O29 1.254 . S
C19 O30 1.236 . S
C19 O31 1.266 . S
O20 Tb0 2.484 . S
O20 C2 1.248 . S
O21 Tb0 2.440 . S
O21 C2 1.266 . S
O22 Tb0 2.658 1_455 S
O22 Tb1 2.325 . S
O22 C9 1.281 . S
O23 Tb0 2.409 . S
O23 C9 1.254 1_655 S
O24 Tb0 2.378 . S
O24 C10 1.236 . S
O25 Tb1 2.341 . S
O25 C10 1.266 1_455 S
O26 Tb1 2.484 . S
O26 C11 1.248 . S
O27 Tb1 2.440 . S
O27 C11 1.266 . S
O28 Tb0 2.325 1_455 S
O28 Tb1 2.658 . S
O28 C18 1.281 . S
O29 Tb1 2.409 . S
O29 C18 1.254 . S
O30 Tb1 2.378 . S
O30 C19 1.236 . S
O31 Tb0 2.341 1_455 S
O31 C19 1.266 . S
H32 C4 0.929 . S
H33 C5 0.931 . S
H34 C7 0.930 . S
H35 C8 0.930 . S
H36 C13 0.929 . S
H37 C14 0.931 . S
H38 C16 0.930 . S
H39 C17 0.930 . S
Tb40 C42 2.809 . S
Tb40 O60 2.484 . S
Tb40 O61 2.440 . S
Tb40 O62 2.658 . S
Tb40 O63 2.409 . S
Tb40 O64 2.378 . S
Tb40 O68 2.325 . S
Tb40 O71 2.341 . S
Tb41 C51 2.809 . S
Tb41 O62 2.325 . S
Tb41 O65 2.341 . S
Tb41 O66 2.484 . S
Tb41 O67 2.440 . S
Tb41 O68 2.658 . S
Tb41 O69 2.409 . S
Tb41 O70 2.378 . S
C42 Tb40 2.809 . S
C42 C43 1.514 . S
C42 O60 1.248 . S
C42 O61 1.266 . S
C43 C42 1.514 . S
C43 C44 1.359 . S
C43 C48 1.348 . S
C44 C43 1.359 . S
C44 C45 1.380 . S
C44 H72 0.929 . S
C45 C44 1.380 . S
C45 C46 1.347 . S
C45 H73 0.931 . S
C46 C45 1.347 . S
C46 C47 1.369 . S
C47 C46 1.369 . S
C47 C48 1.408 . S
C47 H74 0.930 . S
C48 C43 1.348 . S
C48 C47 1.408 . S
C48 H75 0.930 . S
C49 O62 1.281 . S
C49 O63 1.254 . S
C50 O64 1.236 . S
C50 O65 1.266 . S
C51 Tb41 2.809 . S
C51 C52 1.514 . S
C51 O66 1.248 . S
C51 O67 1.266 . S
C52 C51 1.514 . S
C52 C53 1.359 1_455 S
C52 C57 1.348 1_455 S
C53 C52 1.359 1_655 S
C53 C54 1.380 . S
C53 H76 0.929 . S
C54 C53 1.380 . S
C54 C55 1.347 . S
C54 H77 0.931 . S
C55 C54 1.347 . S
C55 C56 1.369 . S
C56 C55 1.369 . S
C56 C57 1.408 . S
C56 H78 0.930 . S
C57 C52 1.348 1_655 S
C57 C56 1.408 . S
C57 H79 0.930 . S
C58 O68 1.281 . S
C58 O69 1.254 . S
C59 O70 1.236 . S
C59 O71 1.266 . S
O60 Tb40 2.484 . S
O60 C42 1.248 . S
O61 Tb40 2.440 . S
O61 C42 1.266 . S
O62 Tb40 2.658 . S
O62 Tb41 2.325 . S
O62 C49 1.281 . S
O63 Tb40 2.409 . S
O63 C49 1.254 . S
O64 Tb40 2.378 . S
O64 C50 1.236 . S
O65 Tb41 2.341 . S
O65 C50 1.266 . S
O66 Tb41 2.484 . S
O66 C51 1.248 . S
O67 Tb41 2.440 . S
O67 C51 1.266 . S
O68 Tb40 2.325 . S
O68 Tb41 2.658 . S
O68 C58 1.281 . S
O69 Tb41 2.409 . S
O69 C58 1.254 . S
O70 Tb41 2.378 . S
O70 C59 1.236 . S
O71 Tb40 2.341 . S
O71 C59 1.266 . S
H72 C44 0.929 . S
H73 C45 0.931 . S
H74 C47 0.930 . S
H75 C48 0.930 . S
H76 C53 0.929 . S
H77 C54 0.931 . S
H78 C56 0.930 . S
H79 C57 0.930 . S
Tb80 C82 2.809 . S
Tb80 O100 2.484 . S
Tb80 O101 2.440 . S
Tb80 O102 2.658 1_655 S
Tb80 O103 2.409 . S
Tb80 O104 2.378 . S
Tb80 O108 2.325 1_655 S
Tb80 O111 2.341 1_655 S
Tb81 C91 2.809 . S
Tb81 O102 2.325 . S
Tb81 O105 2.341 . S
Tb81 O106 2.484 . S
Tb81 O107 2.440 . S
Tb81 O108 2.658 . S
Tb81 O109 2.409 . S
Tb81 O110 2.378 . S
C82 Tb80 2.809 . S
C82 C83 1.514 . S
C82 O100 1.248 . S
C82 O101 1.266 . S
C83 C82 1.514 . S
C83 C84 1.359 . S
C83 C88 1.348 . S
C84 C83 1.359 . S
C84 C85 1.380 . S
C84 H112 0.929 . S
C85 C84 1.380 . S
C85 C86 1.347 . S
C85 H113 0.931 . S
C86 C85 1.347 . S
C86 C87 1.369 . S
C87 C86 1.369 . S
C87 C88 1.408 . S
C87 H114 0.930 . S
C88 C83 1.348 . S
C88 C87 1.408 . S
C88 H115 0.930 . S
C89 O102 1.281 . S
C89 O103 1.254 1_455 S
C90 O104 1.236 . S
C90 O105 1.266 1_655 S
C91 Tb81 2.809 . S
C91 C92 1.514 . S
C91 O106 1.248 . S
C91 O107 1.266 . S
C92 C91 1.514 . S
C92 C93 1.359 . S
C92 C97 1.348 . S
C93 C92 1.359 . S
C93 C94 1.380 . S
C93 H116 0.929 . S
C94 C93 1.380 . S
C94 C95 1.347 . S
C94 H117 0.931 . S
C95 C94 1.347 . S
C95 C96 1.369 . S
C96 C95 1.369 . S
C96 C97 1.408 . S
C96 H118 0.930 . S
C97 C92 1.348 . S
C97 C96 1.408 . S
C97 H119 0.930 . S
C98 O108 1.281 . S
C98 O109 1.254 . S
C99 O110 1.236 . S
C99 O111 1.266 . S
O100 Tb80 2.484 . S
O100 C82 1.248 . S
O101 Tb80 2.440 . S
O101 C82 1.266 . S
O102 Tb80 2.658 1_455 S
O102 Tb81 2.325 . S
O102 C89 1.281 . S
O103 Tb80 2.409 . S
O103 C89 1.254 1_655 S
O104 Tb80 2.378 . S
O104 C90 1.236 . S
O105 Tb81 2.341 . S
O105 C90 1.266 1_455 S
O106 Tb81 2.484 . S
O106 C91 1.248 . S
O107 Tb81 2.440 . S
O107 C91 1.266 . S
O108 Tb80 2.325 1_455 S
O108 Tb81 2.658 . S
O108 C98 1.281 . S
O109 Tb81 2.409 . S
O109 C98 1.254 . S
O110 Tb81 2.378 . S
O110 C99 1.236 . S
O111 Tb80 2.341 1_455 S
O111 C99 1.266 . S
H112 C84 0.929 . S
H113 C85 0.931 . S
H114 C87 0.930 . S
H115 C88 0.930 . S
H116 C93 0.929 . S
H117 C94 0.931 . S
H118 C96 0.930 . S
H119 C97 0.930 . S
Tb120 C122 2.809 . S
Tb120 O140 2.484 . S
Tb120 O141 2.440 . S
Tb120 O142 2.658 . S
Tb120 O143 2.409 . S
Tb120 O144 2.378 . S
Tb120 O148 2.325 . S
Tb120 O151 2.341 . S
Tb121 C131 2.809 . S
Tb121 O142 2.325 . S
Tb121 O145 2.341 . S
Tb121 O146 2.484 . S
Tb121 O147 2.440 . S
Tb121 O148 2.658 . S
Tb121 O149 2.409 . S
Tb121 O150 2.378 . S
C122 Tb120 2.809 . S
C122 C123 1.514 . S
C122 O140 1.248 . S
C122 O141 1.266 . S
C123 C122 1.514 . S
C123 C124 1.359 . S
C123 C128 1.348 . S
C124 C123 1.359 . S
C124 C125 1.380 . S
C124 H152 0.929 . S
C125 C124 1.380 . S
C125 C126 1.347 . S
C125 H153 0.931 . S
C126 C125 1.347 . S
C126 C127 1.369 . S
C127 C126 1.369 . S
C127 C128 1.408 . S
C127 H154 0.930 . S
C128 C123 1.348 . S
C128 C127 1.408 . S
C128 H155 0.930 . S
C129 O142 1.281 . S
C129 O143 1.254 . S
C130 O144 1.236 . S
C130 O145 1.266 . S
C131 Tb121 2.809 . S
C131 C132 1.514 . S
C131 O146 1.248 . S
C131 O147 1.266 . S
C132 C131 1.514 . S
C132 C133 1.359 1_455 S
C132 C137 1.348 1_455 S
C133 C132 1.359 1_655 S
C133 C134 1.380 . S
C133 H156 0.929 . S
C134 C133 1.380 . S
C134 C135 1.347 . S
C134 H157 0.931 . S
C135 C134 1.347 . S
C135 C136 1.369 . S
C136 C135 1.369 . S
C136 C137 1.408 . S
C136 H158 0.930 . S
C137 C132 1.348 1_655 S
C137 C136 1.408 . S
C137 H159 0.930 . S
C138 O148 1.281 . S
C138 O149 1.254 . S
C139 O150 1.236 . S
C139 O151 1.266 . S
O140 Tb120 2.484 . S
O140 C122 1.248 . S
O141 Tb120 2.440 . S
O141 C122 1.266 . S
O142 Tb120 2.658 . S
O142 Tb121 2.325 . S
O142 C129 1.281 . S
O143 Tb120 2.409 . S
O143 C129 1.254 . S
O144 Tb120 2.378 . S
O144 C130 1.236 . S
O145 Tb121 2.341 . S
O145 C130 1.266 . S
O146 Tb121 2.484 . S
O146 C131 1.248 . S
O147 Tb121 2.440 . S
O147 C131 1.266 . S
O148 Tb120 2.325 . S
O148 Tb121 2.658 . S
O148 C138 1.281 . S
O149 Tb121 2.409 . S
O149 C138 1.254 . S
O150 Tb121 2.378 . S
O150 C139 1.236 . S
O151 Tb120 2.341 . S
O151 C139 1.266 . S
H152 C124 0.929 . S
H153 C125 0.931 . S
H154 C127 0.930 . S
H155 C128 0.930 . S
H156 C133 0.929 . S
H157 C134 0.931 . S
H158 C136 0.930 . S
H159 C137 0.930 . S
Tb160 C162 2.809 . S
Tb160 O180 2.484 . S
Tb160 O181 2.440 . S
Tb160 O182 2.658 . S
Tb160 O183 2.409 . S
Tb160 O184 2.378 . S
Tb160 O188 2.325 . S
Tb160 O191 2.341 . S
Tb161 C171 2.809 . S
Tb161 O182 2.325 1_455 S
Tb161 O185 2.341 1_455 S
Tb161 O186 2.484 . S
Tb161 O187 2.440 . S
Tb161 O188 2.658 1_455 S
Tb161 O189 2.409 . S
Tb161 O190 2.378 . S
C162 Tb160 2.809 . S
C162 C163 1.514 . S
C162 O180 1.248 . S
C162 O181 1.266 . S
C163 C162 1.514 . S
C163 C164 1.359 . S
C163 C168 1.348 . S
C164 C163 1.359 . S
C164 C165 1.380 . S
C164 H192 0.929 . S
C165 C164 1.380 . S
C165 C166 1.347 . S
C165 H193 0.931 . S
C166 C165 1.347 . S
C166 C167 1.369 . S
C167 C166 1.369 . S
C167 C168 1.408 . S
C167 H194 0.930 . S
C168 C163 1.348 . S
C168 C167 1.408 . S
C168 H195 0.930 . S
C169 O182 1.281 . S
C169 O183 1.254 . S
C170 O184 1.236 . S
C170 O185 1.266 . S
C171 Tb161 2.809 . S
C171 C172 1.514 . S
C171 O186 1.248 . S
C171 O187 1.266 . S
C172 C171 1.514 . S
C172 C173 1.359 . S
C172 C177 1.348 . S
C173 C172 1.359 . S
C173 C174 1.380 . S
C173 H196 0.929 . S
C174 C173 1.380 . S
C174 C175 1.347 . S
C174 H197 0.931 . S
C175 C174 1.347 . S
C175 C176 1.369 . S
C176 C175 1.369 . S
C176 C177 1.408 . S
C176 H198 0.930 . S
C177 C172 1.348 . S
C177 C176 1.408 . S
C177 H199 0.930 . S
C178 O188 1.281 . S
C178 O189 1.254 1_655 S
C179 O190 1.236 . S
C179 O191 1.266 1_455 S
O180 Tb160 2.484 . S
O180 C162 1.248 . S
O181 Tb160 2.440 . S
O181 C162 1.266 . S
O182 Tb160 2.658 . S
O182 Tb161 2.325 1_655 S
O182 C169 1.281 . S
O183 Tb160 2.409 . S
O183 C169 1.254 . S
O184 Tb160 2.378 . S
O184 C170 1.236 . S
O185 Tb161 2.341 1_655 S
O185 C170 1.266 . S
O186 Tb161 2.484 . S
O186 C171 1.248 . S
O187 Tb161 2.440 . S
O187 C171 1.266 . S
O188 Tb160 2.325 . S
O188 Tb161 2.658 1_655 S
O188 C178 1.281 . S
O189 Tb161 2.409 . S
O189 C178 1.254 1_455 S
O190 Tb161 2.378 . S
O190 C179 1.236 . S
O191 Tb160 2.341 . S
O191 C179 1.266 1_655 S
H192 C164 0.929 . S
H193 C165 0.931 . S
H194 C167 0.930 . S
H195 C168 0.930 . S
H196 C173 0.929 . S
H197 C174 0.931 . S
H198 C176 0.930 . S
H199 C177 0.930 . S
Tb200 C202 2.809 . S
Tb200 O220 2.484 . S
Tb200 O221 2.440 . S
Tb200 O222 2.658 . S
Tb200 O223 2.409 . S
Tb200 O224 2.378 . S
Tb200 O228 2.325 . S
Tb200 O231 2.341 . S
Tb201 C211 2.809 . S
Tb201 O222 2.325 . S
Tb201 O225 2.341 . S
Tb201 O226 2.484 . S
Tb201 O227 2.440 . S
Tb201 O228 2.658 . S
Tb201 O229 2.409 . S
Tb201 O230 2.378 . S
C202 Tb200 2.809 . S
C202 C203 1.514 . S
C202 O220 1.248 . S
C202 O221 1.266 . S
C203 C202 1.514 . S
C203 C204 1.359 1_655 S
C203 C208 1.348 1_655 S
C204 C203 1.359 1_455 S
C204 C205 1.380 . S
C204 H232 0.929 . S
C205 C204 1.380 . S
C205 C206 1.347 . S
C205 H233 0.931 . S
C206 C205 1.347 . S
C206 C207 1.369 . S
C207 C206 1.369 . S
C207 C208 1.408 . S
C207 H234 0.930 . S
C208 C203 1.348 1_455 S
C208 C207 1.408 . S
C208 H235 0.930 . S
C209 O222 1.281 . S
C209 O223 1.254 . S
C210 O224 1.236 . S
C210 O225 1.266 . S
C211 Tb201 2.809 . S
C211 C212 1.514 . S
C211 O226 1.248 . S
C211 O227 1.266 . S
C212 C211 1.514 . S
C212 C213 1.359 . S
C212 C217 1.348 . S
C213 C212 1.359 . S
C213 C214 1.380 . S
C213 H236 0.929 . S
C214 C213 1.380 . S
C214 C215 1.347 . S
C214 H237 0.931 . S
C215 C214 1.347 . S
C215 C216 1.369 . S
C216 C215 1.369 . S
C216 C217 1.408 . S
C216 H238 0.930 . S
C217 C212 1.348 . S
C217 C216 1.408 . S
C217 H239 0.930 . S
C218 O228 1.281 . S
C218 O229 1.254 . S
C219 O230 1.236 . S
C219 O231 1.266 . S
O220 Tb200 2.484 . S
O220 C202 1.248 . S
O221 Tb200 2.440 . S
O221 C202 1.266 . S
O222 Tb200 2.658 . S
O222 Tb201 2.325 . S
O222 C209 1.281 . S
O223 Tb200 2.409 . S
O223 C209 1.254 . S
O224 Tb200 2.378 . S
O224 C210 1.236 . S
O225 Tb201 2.341 . S
O225 C210 1.266 . S
O226 Tb201 2.484 . S
O226 C211 1.248 . S
O227 Tb201 2.440 . S
O227 C211 1.266 . S
O228 Tb200 2.325 . S
O228 Tb201 2.658 . S
O228 C218 1.281 . S
O229 Tb201 2.409 . S
O229 C218 1.254 . S
O230 Tb201 2.378 . S
O230 C219 1.236 . S
O231 Tb200 2.341 . S
O231 C219 1.266 . S
H232 C204 0.929 . S
H233 C205 0.931 . S
H234 C207 0.930 . S
H235 C208 0.930 . S
H236 C213 0.929 . S
H237 C214 0.931 . S
H238 C216 0.930 . S
H239 C217 0.930 . S
Tb240 C242 2.809 . S
Tb240 O260 2.484 . S
Tb240 O261 2.440 . S
Tb240 O262 2.658 . S
Tb240 O263 2.409 . S
Tb240 O264 2.378 . S
Tb240 O268 2.325 . S
Tb240 O271 2.341 . S
Tb241 C251 2.809 . S
Tb241 O262 2.325 1_455 S
Tb241 O265 2.341 1_455 S
Tb241 O266 2.484 . S
Tb241 O267 2.440 . S
Tb241 O268 2.658 1_455 S
Tb241 O269 2.409 . S
Tb241 O270 2.378 . S
C242 Tb240 2.809 . S
C242 C243 1.514 . S
C242 O260 1.248 . S
C242 O261 1.266 . S
C243 C242 1.514 . S
C243 C244 1.359 . S
C243 C248 1.348 . S
C244 C243 1.359 . S
C244 C245 1.380 . S
C244 H272 0.929 . S
C245 C244 1.380 . S
C245 C246 1.347 . S
C245 H273 0.931 . S
C246 C245 1.347 . S
C246 C247 1.369 . S
C247 C246 1.369 . S
C247 C248 1.408 . S
C247 H274 0.930 . S
C248 C243 1.348 . S
C248 C247 1.408 . S
C248 H275 0.930 . S
C249 O262 1.281 . S
C249 O263 1.254 . S
C250 O264 1.236 . S
C250 O265 1.266 . S
C251 Tb241 2.809 . S
C251 C252 1.514 . S
C251 O266 1.248 . S
C251 O267 1.266 . S
C252 C251 1.514 . S
C252 C253 1.359 . S
C252 C257 1.348 . S
C253 C252 1.359 . S
C253 C254 1.380 . S
C253 H276 0.929 . S
C254 C253 1.380 . S
C254 C255 1.347 . S
C254 H277 0.931 . S
C255 C254 1.347 . S
C255 C256 1.369 . S
C256 C255 1.369 . S
C256 C257 1.408 . S
C256 H278 0.930 . S
C257 C252 1.348 . S
C257 C256 1.408 . S
C257 H279 0.930 . S
C258 O268 1.281 . S
C258 O269 1.254 1_655 S
C259 O270 1.236 . S
C259 O271 1.266 1_455 S
O260 Tb240 2.484 . S
O260 C242 1.248 . S
O261 Tb240 2.440 . S
O261 C242 1.266 . S
O262 Tb240 2.658 . S
O262 Tb241 2.325 1_655 S
O262 C249 1.281 . S
O263 Tb240 2.409 . S
O263 C249 1.254 . S
O264 Tb240 2.378 . S
O264 C250 1.236 . S
O265 Tb241 2.341 1_655 S
O265 C250 1.266 . S
O266 Tb241 2.484 . S
O266 C251 1.248 . S
O267 Tb241 2.440 . S
O267 C251 1.266 . S
O268 Tb240 2.325 . S
O268 Tb241 2.658 1_655 S
O268 C258 1.281 . S
O269 Tb241 2.409 . S
O269 C258 1.254 1_455 S
O270 Tb241 2.378 . S
O270 C259 1.236 . S
O271 Tb240 2.341 . S
O271 C259 1.266 1_655 S
H272 C244 0.929 . S
H273 C245 0.931 . S
H274 C247 0.930 . S
H275 C248 0.930 . S
H276 C253 0.929 . S
H277 C254 0.931 . S
H278 C256 0.930 . S
H279 C257 0.930 . S
Tb280 C282 2.809 . S
Tb280 O300 2.484 . S
Tb280 O301 2.440 . S
Tb280 O302 2.658 . S
Tb280 O303 2.409 . S
Tb280 O304 2.378 . S
Tb280 O308 2.325 . S
Tb280 O311 2.341 . S
Tb281 C291 2.809 . S
Tb281 O302 2.325 . S
Tb281 O305 2.341 . S
Tb281 O306 2.484 . S
Tb281 O307 2.440 . S
Tb281 O308 2.658 . S
Tb281 O309 2.409 . S
Tb281 O310 2.378 . S
C282 Tb280 2.809 . S
C282 C283 1.514 . S
C282 O300 1.248 . S
C282 O301 1.266 . S
C283 C282 1.514 . S
C283 C284 1.359 1_655 S
C283 C288 1.348 1_655 S
C284 C283 1.359 1_455 S
C284 C285 1.380 . S
C284 H312 0.929 . S
C285 C284 1.380 . S
C285 C286 1.347 . S
C285 H313 0.931 . S
C286 C285 1.347 . S
C286 C287 1.369 . S
C287 C286 1.369 . S
C287 C288 1.408 . S
C287 H314 0.930 . S
C288 C283 1.348 1_455 S
C288 C287 1.408 . S
C288 H315 0.930 . S
C289 O302 1.281 . S
C289 O303 1.254 . S
C290 O304 1.236 . S
C290 O305 1.266 . S
C291 Tb281 2.809 . S
C291 C292 1.514 . S
C291 O306 1.248 . S
C291 O307 1.266 . S
C292 C291 1.514 . S
C292 C293 1.359 . S
C292 C297 1.348 . S
C293 C292 1.359 . S
C293 C294 1.380 . S
C293 H316 0.929 . S
C294 C293 1.380 . S
C294 C295 1.347 . S
C294 H317 0.931 . S
C295 C294 1.347 . S
C295 C296 1.369 . S
C296 C295 1.369 . S
C296 C297 1.408 . S
C296 H318 0.930 . S
C297 C292 1.348 . S
C297 C296 1.408 . S
C297 H319 0.930 . S
C298 O308 1.281 . S
C298 O309 1.254 . S
C299 O310 1.236 . S
C299 O311 1.266 . S
O300 Tb280 2.484 . S
O300 C282 1.248 . S
O301 Tb280 2.440 . S
O301 C282 1.266 . S
O302 Tb280 2.658 . S
O302 Tb281 2.325 . S
O302 C289 1.281 . S
O303 Tb280 2.409 . S
O303 C289 1.254 . S
O304 Tb280 2.378 . S
O304 C290 1.236 . S
O305 Tb281 2.341 . S
O305 C290 1.266 . S
O306 Tb281 2.484 . S
O306 C291 1.248 . S
O307 Tb281 2.440 . S
O307 C291 1.266 . S
O308 Tb280 2.325 . S
O308 Tb281 2.658 . S
O308 C298 1.281 . S
O309 Tb281 2.409 . S
O309 C298 1.254 . S
O310 Tb281 2.378 . S
O310 C299 1.236 . S
O311 Tb280 2.341 . S
O311 C299 1.266 . S
H312 C284 0.929 . S
H313 C285 0.931 . S
H314 C287 0.930 . S
H315 C288 0.930 . S
H316 C293 0.929 . S
H317 C294 0.931 . S
H318 C296 0.930 . S
H319 C297 0.930 . S
Tb320 C322 2.809 1_545 S
Tb320 O340 2.484 1_545 S
Tb320 O341 2.440 . S
Tb320 O342 2.658 1_645 S
Tb320 O343 2.409 . S
Tb320 O344 2.378 1_545 S
Tb320 O348 2.325 1_645 S
Tb320 O351 2.341 1_655 S
Tb321 C331 2.809 . S
Tb321 O342 2.325 . S
Tb321 O345 2.341 . S
Tb321 O346 2.484 . S
Tb321 O347 2.440 . S
Tb321 O348 2.658 . S
Tb321 O349 2.409 . S
Tb321 O350 2.378 1_565 S
C322 Tb320 2.809 1_565 S
C322 C323 1.514 . S
C322 O340 1.248 . S
C322 O341 1.266 1_565 S
C323 C322 1.514 . S
C323 C324 1.359 . S
C323 C328 1.348 . S
C324 C323 1.359 . S
C324 C325 1.380 . S
C324 H352 0.929 . S
C325 C324 1.380 . S
C325 C326 1.347 . S
C325 H353 0.931 . S
C326 C325 1.347 . S
C326 C327 1.369 . S
C327 C326 1.369 . S
C327 C328 1.408 . S
C327 H354 0.930 . S
C328 C323 1.348 . S
C328 C327 1.408 . S
C328 H355 0.930 . S
C329 O342 1.281 . S
C329 O343 1.254 1_465 S
C330 O344 1.236 . S
C330 O345 1.266 1_655 S
C331 Tb321 2.809 . S
C331 C332 1.514 . S
C331 O346 1.248 . S
C331 O347 1.266 . S
C332 C331 1.514 . S
C332 C333 1.359 1_565 S
C332 C337 1.348 . S
C333 C332 1.359 1_545 S
C333 C334 1.380 . S
C333 H356 0.929 . S
C334 C333 1.380 . S
C334 C335 1.347 . S
C334 H357 0.931 . S
C335 C334 1.347 . S
C335 C336 1.357 1_545 S
C336 C335 1.357 1_565 S
C336 C337 1.418 . S
C336 H358 0.935 . S
C337 C332 1.348 . S
C337 C336 1.418 . S
C337 H359 0.930 . S
C338 O348 1.281 . S
C338 O349 1.254 . S
C339 O350 1.236 . S
C339 O351 1.266 . S
O340 Tb320 2.484 1_565 S
O340 C322 1.248 . S
O341 Tb320 2.440 . S
O341 C322 1.266 1_545 S
O342 Tb320 2.658 1_465 S
O342 Tb321 2.325 . S
O342 C329 1.281 . S
O343 Tb320 2.409 . S
O343 C329 1.254 1_645 S
O344 Tb320 2.378 1_565 S
O344 C330 1.236 . S
O345 Tb321 2.341 . S
O345 C330 1.266 1_455 S
O346 Tb321 2.484 . S
O346 C331 1.248 . S
O347 Tb321 2.440 . S
O347 C331 1.266 . S
O348 Tb320 2.325 1_465 S
O348 Tb321 2.658 . S
O348 C338 1.281 . S
O349 Tb321 2.409 . S
O349 C338 1.254 . S
O350 Tb321 2.378 1_545 S
O350 C339 1.236 . S
O351 Tb320 2.341 1_455 S
O351 C339 1.266 . S
H352 C324 0.929 . S
H353 C325 0.931 . S
H354 C327 0.930 . S
H355 C328 0.930 . S
H356 C333 0.929 . S
H357 C334 0.931 . S
H358 C336 0.935 . S
H359 C337 0.930 . S
Tb360 C362 2.809 . S
Tb360 O380 2.484 . S
Tb360 O381 2.440 . S
Tb360 O382 2.658 . S
Tb360 O383 2.409 . S
Tb360 O384 2.378 . S
Tb360 O388 2.325 . S
Tb360 O391 2.341 . S
Tb361 C371 2.809 . S
Tb361 O382 2.325 . S
Tb361 O385 2.341 . S
Tb361 O386 2.484 . S
Tb361 O387 2.440 . S
Tb361 O388 2.658 . S
Tb361 O389 2.409 . S
Tb361 O390 2.378 . S
C362 Tb360 2.809 . S
C362 C363 1.514 . S
C362 O380 1.248 . S
C362 O381 1.266 . S
C363 C362 1.514 . S
C363 C364 1.359 . S
C363 C368 1.348 . S
C364 C363 1.359 . S
C364 C365 1.380 . S
C364 H392 0.929 . S
C365 C364 1.380 . S
C365 C366 1.347 . S
C365 H393 0.931 . S
C366 C365 1.347 . S
C366 C367 1.369 . S
C367 C366 1.369 . S
C367 C368 1.408 . S
C367 H394 0.930 . S
C368 C363 1.348 . S
C368 C367 1.408 . S
C368 H395 0.930 . S
C369 O382 1.281 . S
C369 O383 1.254 . S
C370 O384 1.236 . S
C370 O385 1.266 . S
C371 Tb361 2.809 . S
C371 C372 1.514 . S
C371 O386 1.248 . S
C371 O387 1.266 . S
C372 C371 1.514 . S
C372 C373 1.359 1_455 S
C372 C377 1.348 1_455 S
C373 C372 1.359 1_655 S
C373 C374 1.380 . S
C373 H396 0.929 . S
C374 C373 1.380 . S
C374 C375 1.347 . S
C374 H397 0.931 . S
C375 C374 1.347 . S
C375 C376 1.369 . S
C376 C375 1.369 . S
C376 C377 1.408 . S
C376 H398 0.930 . S
C377 C372 1.348 1_655 S
C377 C376 1.408 . S
C377 H399 0.930 . S
C378 O388 1.281 . S
C378 O389 1.254 . S
C379 O390 1.236 . S
C379 O391 1.266 . S
O380 Tb360 2.484 . S
O380 C362 1.248 . S
O381 Tb360 2.440 . S
O381 C362 1.266 . S
O382 Tb360 2.658 . S
O382 Tb361 2.325 . S
O382 C369 1.281 . S
O383 Tb360 2.409 . S
O383 C369 1.254 . S
O384 Tb360 2.378 . S
O384 C370 1.236 . S
O385 Tb361 2.341 . S
O385 C370 1.266 . S
O386 Tb361 2.484 . S
O386 C371 1.248 . S
O387 Tb361 2.440 . S
O387 C371 1.266 . S
O388 Tb360 2.325 . S
O388 Tb361 2.658 . S
O388 C378 1.281 . S
O389 Tb361 2.409 . S
O389 C378 1.254 . S
O390 Tb361 2.378 . S
O390 C379 1.236 . S
O391 Tb360 2.341 . S
O391 C379 1.266 . S
H392 C364 0.929 . S
H393 C365 0.931 . S
H394 C367 0.930 . S
H395 C368 0.930 . S
H396 C373 0.929 . S
H397 C374 0.931 . S
H398 C376 0.930 . S
H399 C377 0.930 . S
Tb400 C402 2.809 . S
Tb400 O420 2.484 . S
Tb400 O421 2.440 . S
Tb400 O422 2.658 1_655 S
Tb400 O423 2.409 . S
Tb400 O424 2.378 . S
Tb400 O428 2.325 1_655 S
Tb400 O431 2.341 1_655 S
Tb401 C411 2.809 . S
Tb401 O422 2.325 . S
Tb401 O425 2.341 . S
Tb401 O426 2.484 . S
Tb401 O427 2.440 . S
Tb401 O428 2.658 . S
Tb401 O429 2.409 . S
Tb401 O430 2.378 . S
C402 Tb400 2.809 . S
C402 C403 1.514 . S
C402 O420 1.248 . S
C402 O421 1.266 . S
C403 C402 1.514 . S
C403 C404 1.359 . S
C403 C408 1.348 . S
C404 C403 1.359 . S
C404 C405 1.380 . S
C404 H432 0.929 . S
C405 C404 1.380 . S
C405 C406 1.347 . S
C405 H433 0.931 . S
C406 C405 1.347 . S
C406 C407 1.369 . S
C407 C406 1.369 . S
C407 C408 1.408 . S
C407 H434 0.930 . S
C408 C403 1.348 . S
C408 C407 1.408 . S
C408 H435 0.930 . S
C409 O422 1.281 . S
C409 O423 1.254 1_455 S
C410 O424 1.236 . S
C410 O425 1.266 1_655 S
C411 Tb401 2.809 . S
C411 C412 1.514 . S
C411 O426 1.248 . S
C411 O427 1.266 . S
C412 C411 1.514 . S
C412 C413 1.359 . S
C412 C417 1.348 . S
C413 C412 1.359 . S
C413 C414 1.380 . S
C413 H436 0.929 . S
C414 C413 1.380 . S
C414 C415 1.347 . S
C414 H437 0.931 . S
C415 C414 1.347 . S
C415 C416 1.369 . S
C416 C415 1.369 . S
C416 C417 1.408 . S
C416 H438 0.930 . S
C417 C412 1.348 . S
C417 C416 1.408 . S
C417 H439 0.930 . S
C418 O428 1.281 . S
C418 O429 1.254 . S
C419 O430 1.236 . S
C419 O431 1.266 . S
O420 Tb400 2.484 . S
O420 C402 1.248 . S
O421 Tb400 2.440 . S
O421 C402 1.266 . S
O422 Tb400 2.658 1_455 S
O422 Tb401 2.325 . S
O422 C409 1.281 . S
O423 Tb400 2.409 . S
O423 C409 1.254 1_655 S
O424 Tb400 2.378 . S
O424 C410 1.236 . S
O425 Tb401 2.341 . S
O425 C410 1.266 1_455 S
O426 Tb401 2.484 . S
O426 C411 1.248 . S
O427 Tb401 2.440 . S
O427 C411 1.266 . S
O428 Tb400 2.325 1_455 S
O428 Tb401 2.658 . S
O428 C418 1.281 . S
O429 Tb401 2.409 . S
O429 C418 1.254 . S
O430 Tb401 2.378 . S
O430 C419 1.236 . S
O431 Tb400 2.341 1_455 S
O431 C419 1.266 . S
H432 C404 0.929 . S
H433 C405 0.931 . S
H434 C407 0.930 . S
H435 C408 0.930 . S
H436 C413 0.929 . S
H437 C414 0.931 . S
H438 C416 0.930 . S
H439 C417 0.930 . S
Tb440 C442 2.809 1_545 S
Tb440 O460 2.484 1_545 S
Tb440 O461 2.440 . S
Tb440 O462 2.658 1_545 S
Tb440 O463 2.409 . S
Tb440 O464 2.378 1_545 S
Tb440 O468 2.325 1_545 S
Tb440 O471 2.341 . S
Tb441 C451 2.809 . S
Tb441 O462 2.325 . S
Tb441 O465 2.341 . S
Tb441 O466 2.484 . S
Tb441 O467 2.440 . S
Tb441 O468 2.658 . S
Tb441 O469 2.409 . S
Tb441 O470 2.378 1_565 S
C442 Tb440 2.809 1_565 S
C442 C443 1.514 . S
C442 O460 1.248 . S
C442 O461 1.266 1_565 S
C443 C442 1.514 . S
C443 C444 1.359 . S
C443 C448 1.348 . S
C444 C443 1.359 . S
C444 C445 1.380 . S
C444 H472 0.929 . S
C445 C444 1.380 . S
C445 C446 1.347 . S
C445 H473 0.931 . S
C446 C445 1.347 . S
C446 C447 1.369 . S
C447 C446 1.369 . S
C447 C448 1.408 . S
C447 H474 0.930 . S
C448 C443 1.348 . S
C448 C447 1.408 . S
C448 H475 0.930 . S
C449 O462 1.281 . S
C449 O463 1.254 1_565 S
C450 O464 1.236 . S
C450 O465 1.266 . S
C451 Tb441 2.809 . S
C451 C452 1.514 . S
C451 O466 1.248 . S
C451 O467 1.266 . S
C452 C451 1.514 . S
C452 C453 1.359 1_465 S
C452 C457 1.348 1_455 S
C453 C452 1.359 1_645 S
C453 C454 1.380 . S
C453 H476 0.929 . S
C454 C453 1.380 . S
C454 C455 1.347 . S
C454 H477 0.931 . S
C455 C454 1.347 . S
C455 C456 1.357 1_545 S
C456 C455 1.357 1_565 S
C456 C457 1.418 . S
C456 H478 0.935 . S
C457 C452 1.348 1_655 S
C457 C456 1.418 . S
C457 H479 0.930 . S
C458 O468 1.281 . S
C458 O469 1.254 . S
C459 O470 1.236 . S
C459 O471 1.266 . S
O460 Tb440 2.484 1_565 S
O460 C442 1.248 . S
O461 Tb440 2.440 . S
O461 C442 1.266 1_545 S
O462 Tb440 2.658 1_565 S
O462 Tb441 2.325 . S
O462 C449 1.281 . S
O463 Tb440 2.409 . S
O463 C449 1.254 1_545 S
O464 Tb440 2.378 1_565 S
O464 C450 1.236 . S
O465 Tb441 2.341 . S
O465 C450 1.266 . S
O466 Tb441 2.484 . S
O466 C451 1.248 . S
O467 Tb441 2.440 . S
O467 C451 1.266 . S
O468 Tb440 2.325 1_565 S
O468 Tb441 2.658 . S
O468 C458 1.281 . S
O469 Tb441 2.409 . S
O469 C458 1.254 . S
O470 Tb441 2.378 1_545 S
O470 C459 1.236 . S
O471 Tb440 2.341 . S
O471 C459 1.266 . S
H472 C444 0.929 . S
H473 C445 0.931 . S
H474 C447 0.930 . S
H475 C448 0.930 . S
H476 C453 0.929 . S
H477 C454 0.931 . S
H478 C456 0.935 . S
H479 C457 0.930 . S
Tb480 C482 2.809 . S
Tb480 O500 2.484 . S
Tb480 O501 2.440 . S
Tb480 O502 2.658 . S
Tb480 O503 2.409 . S
Tb480 O504 2.378 1_545 S
Tb480 O508 2.325 . S
Tb480 O511 2.341 . S
Tb481 C491 2.809 1_565 S
Tb481 O502 2.325 1_465 S
Tb481 O505 2.341 1_455 S
Tb481 O506 2.484 1_565 S
Tb481 O507 2.440 . S
Tb481 O508 2.658 1_465 S
Tb481 O509 2.409 . S
Tb481 O510 2.378 1_565 S
C482 Tb480 2.809 . S
C482 C483 1.514 . S
C482 O500 1.248 . S
C482 O501 1.266 . S
C483 C482 1.514 . S
C483 C484 1.359 1_545 S
C483 C488 1.348 . S
C484 C483 1.359 1_565 S
C484 C485 1.380 . S
C484 H512 0.929 . S
C485 C484 1.380 . S
C485 C486 1.347 . S
C485 H513 0.931 . S
C486 C485 1.347 . S
C486 C487 1.357 1_565 S
C487 C486 1.357 1_545 S
C487 C488 1.418 . S
C487 H514 0.935 . S
C488 C483 1.348 . S
C488 C487 1.418 . S
C488 H515 0.930 . S
C489 O502 1.281 . S
C489 O503 1.254 . S
C490 O504 1.236 . S
C490 O505 1.266 . S
C491 Tb481 2.809 1_545 S
C491 C492 1.514 . S
C491 O506 1.248 . S
C491 O507 1.266 1_545 S
C492 C491 1.514 . S
C492 C493 1.359 . S
C492 C497 1.348 . S
C493 C492 1.359 . S
C493 C494 1.380 . S
C493 H516 0.929 . S
C494 C493 1.380 . S
C494 C495 1.347 . S
C494 H517 0.931 . S
C495 C494 1.347 . S
C495 C496 1.369 . S
C496 C495 1.369 . S
C496 C497 1.408 . S
C496 H518 0.930 . S
C497 C492 1.348 . S
C497 C496 1.408 . S
C497 H519 0.930 . S
C498 O508 1.281 . S
C498 O509 1.254 1_645 S
C499 O510 1.236 . S
C499 O511 1.266 1_455 S
O500 Tb480 2.484 . S
O500 C482 1.248 . S
O501 Tb480 2.440 . S
O501 C482 1.266 . S
O502 Tb480 2.658 . S
O502 Tb481 2.325 1_645 S
O502 C489 1.281 . S
O503 Tb480 2.409 . S
O503 C489 1.254 . S
O504 Tb480 2.378 1_565 S
O504 C490 1.236 . S
O505 Tb481 2.341 1_655 S
O505 C490 1.266 . S
O506 Tb481 2.484 1_545 S
O506 C491 1.248 . S
O507 Tb481 2.440 . S
O507 C491 1.266 1_565 S
O508 Tb480 2.325 . S
O508 Tb481 2.658 1_645 S
O508 C498 1.281 . S
O509 Tb481 2.409 . S
O509 C498 1.254 1_465 S
O510 Tb481 2.378 1_545 S
O510 C499 1.236 . S
O511 Tb480 2.341 . S
O511 C499 1.266 1_655 S
H512 C484 0.929 . S
H513 C485 0.931 . S
H514 C487 0.935 . S
H515 C488 0.930 . S
H516 C493 0.929 . S
H517 C494 0.931 . S
H518 C496 0.930 . S
H519 C497 0.930 . S
Tb520 C522 2.809 . S
Tb520 O540 2.484 . S
Tb520 O541 2.440 . S
Tb520 O542 2.658 . S
Tb520 O543 2.409 . S
Tb520 O544 2.378 . S
Tb520 O548 2.325 . S
Tb520 O551 2.341 . S
Tb521 C531 2.809 . S
Tb521 O542 2.325 . S
Tb521 O545 2.341 . S
Tb521 O546 2.484 . S
Tb521 O547 2.440 . S
Tb521 O548 2.658 . S
Tb521 O549 2.409 . S
Tb521 O550 2.378 . S
C522 Tb520 2.809 . S
C522 C523 1.514 . S
C522 O540 1.248 . S
C522 O541 1.266 . S
C523 C522 1.514 . S
C523 C524 1.359 1_655 S
C523 C528 1.348 1_655 S
C524 C523 1.359 1_455 S
C524 C525 1.380 . S
C524 H552 0.929 . S
C525 C524 1.380 . S
C525 C526 1.347 . S
C525 H553 0.931 . S
C526 C525 1.347 . S
C526 C527 1.369 . S
C527 C526 1.369 . S
C527 C528 1.408 . S
C527 H554 0.930 . S
C528 C523 1.348 1_455 S
C528 C527 1.408 . S
C528 H555 0.930 . S
C529 O542 1.281 . S
C529 O543 1.254 . S
C530 O544 1.236 . S
C530 O545 1.266 . S
C531 Tb521 2.809 . S
C531 C532 1.514 . S
C531 O546 1.248 . S
C531 O547 1.266 . S
C532 C531 1.514 . S
C532 C533 1.359 . S
C532 C537 1.348 . S
C533 C532 1.359 . S
C533 C534 1.380 . S
C533 H556 0.929 . S
C534 C533 1.380 . S
C534 C535 1.347 . S
C534 H557 0.931 . S
C535 C534 1.347 . S
C535 C536 1.369 . S
C536 C535 1.369 . S
C536 C537 1.408 . S
C536 H558 0.930 . S
C537 C532 1.348 . S
C537 C536 1.408 . S
C537 H559 0.930 . S
C538 O548 1.281 . S
C538 O549 1.254 . S
C539 O550 1.236 . S
C539 O551 1.266 . S
O540 Tb520 2.484 . S
O540 C522 1.248 . S
O541 Tb520 2.440 . S
O541 C522 1.266 . S
O542 Tb520 2.658 . S
O542 Tb521 2.325 . S
O542 C529 1.281 . S
O543 Tb520 2.409 . S
O543 C529 1.254 . S
O544 Tb520 2.378 . S
O544 C530 1.236 . S
O545 Tb521 2.341 . S
O545 C530 1.266 . S
O546 Tb521 2.484 . S
O546 C531 1.248 . S
O547 Tb521 2.440 . S
O547 C531 1.266 . S
O548 Tb520 2.325 . S
O548 Tb521 2.658 . S
O548 C538 1.281 . S
O549 Tb521 2.409 . S
O549 C538 1.254 . S
O550 Tb521 2.378 . S
O550 C539 1.236 . S
O551 Tb520 2.341 . S
O551 C539 1.266 . S
H552 C524 0.929 . S
H553 C525 0.931 . S
H554 C527 0.930 . S
H555 C528 0.930 . S
H556 C533 0.929 . S
H557 C534 0.931 . S
H558 C536 0.930 . S
H559 C537 0.930 . S
Tb560 C562 2.809 . S
Tb560 O580 2.484 . S
Tb560 O581 2.440 . S
Tb560 O582 2.658 . S
Tb560 O583 2.409 . S
Tb560 O584 2.378 . S
Tb560 O588 2.325 . S
Tb560 O591 2.341 . S
Tb561 C571 2.809 . S
Tb561 O582 2.325 1_455 S
Tb561 O585 2.341 1_455 S
Tb561 O586 2.484 . S
Tb561 O587 2.440 . S
Tb561 O588 2.658 1_455 S
Tb561 O589 2.409 . S
Tb561 O590 2.378 . S
C562 Tb560 2.809 . S
C562 C563 1.514 . S
C562 O580 1.248 . S
C562 O581 1.266 . S
C563 C562 1.514 . S
C563 C564 1.359 . S
C563 C568 1.348 . S
C564 C563 1.359 . S
C564 C565 1.380 . S
C564 H592 0.929 . S
C565 C564 1.380 . S
C565 C566 1.347 . S
C565 H593 0.931 . S
C566 C565 1.347 . S
C566 C567 1.369 . S
C567 C566 1.369 . S
C567 C568 1.408 . S
C567 H594 0.930 . S
C568 C563 1.348 . S
C568 C567 1.408 . S
C568 H595 0.930 . S
C569 O582 1.281 . S
C569 O583 1.254 . S
C570 O584 1.236 . S
C570 O585 1.266 . S
C571 Tb561 2.809 . S
C571 C572 1.514 . S
C571 O586 1.248 . S
C571 O587 1.266 . S
C572 C571 1.514 . S
C572 C573 1.359 . S
C572 C577 1.348 . S
C573 C572 1.359 . S
C573 C574 1.380 . S
C573 H596 0.929 . S
C574 C573 1.380 . S
C574 C575 1.347 . S
C574 H597 0.931 . S
C575 C574 1.347 . S
C575 C576 1.369 . S
C576 C575 1.369 . S
C576 C577 1.408 . S
C576 H598 0.930 . S
C577 C572 1.348 . S
C577 C576 1.408 . S
C577 H599 0.930 . S
C578 O588 1.281 . S
C578 O589 1.254 1_655 S
C579 O590 1.236 . S
C579 O591 1.266 1_455 S
O580 Tb560 2.484 . S
O580 C562 1.248 . S
O581 Tb560 2.440 . S
O581 C562 1.266 . S
O582 Tb560 2.658 . S
O582 Tb561 2.325 1_655 S
O582 C569 1.281 . S
O583 Tb560 2.409 . S
O583 C569 1.254 . S
O584 Tb560 2.378 . S
O584 C570 1.236 . S
O585 Tb561 2.341 1_655 S
O585 C570 1.266 . S
O586 Tb561 2.484 . S
O586 C571 1.248 . S
O587 Tb561 2.440 . S
O587 C571 1.266 . S
O588 Tb560 2.325 . S
O588 Tb561 2.658 1_655 S
O588 C578 1.281 . S
O589 Tb561 2.409 . S
O589 C578 1.254 1_455 S
O590 Tb561 2.378 . S
O590 C579 1.236 . S
O591 Tb560 2.341 . S
O591 C579 1.266 1_655 S
H592 C564 0.929 . S
H593 C565 0.931 . S
H594 C567 0.930 . S
H595 C568 0.930 . S
H596 C573 0.929 . S
H597 C574 0.931 . S
H598 C576 0.930 . S
H599 C577 0.930 . S
Tb600 C602 2.809 . S
Tb600 O620 2.484 . S
Tb600 O621 2.440 . S
Tb600 O622 2.658 . S
Tb600 O623 2.409 . S
Tb600 O624 2.378 1_545 S
Tb600 O628 2.325 . S
Tb600 O631 2.341 . S
Tb601 C611 2.809 1_565 S
Tb601 O622 2.325 1_565 S
Tb601 O625 2.341 . S
Tb601 O626 2.484 1_565 S
Tb601 O627 2.440 . S
Tb601 O628 2.658 1_565 S
Tb601 O629 2.409 . S
Tb601 O630 2.378 1_565 S
C602 Tb600 2.809 . S
C602 C603 1.514 . S
C602 O620 1.248 . S
C602 O621 1.266 . S
C603 C602 1.514 . S
C603 C604 1.359 1_645 S
C603 C608 1.348 1_655 S
C604 C603 1.359 1_465 S
C604 C605 1.380 . S
C604 H632 0.929 . S
C605 C604 1.380 . S
C605 C606 1.347 . S
C605 H633 0.931 . S
C606 C605 1.347 . S
C606 C607 1.357 1_565 S
C607 C606 1.357 1_545 S
C607 C608 1.418 . S
C607 H634 0.935 . S
C608 C603 1.348 1_455 S
C608 C607 1.418 . S
C608 H635 0.930 . S
C609 O622 1.281 . S
C609 O623 1.254 . S
C610 O624 1.236 . S
C610 O625 1.266 . S
C611 Tb601 2.809 1_545 S
C611 C612 1.514 . S
C611 O626 1.248 . S
C611 O627 1.266 1_545 S
C612 C611 1.514 . S
C612 C613 1.359 . S
C612 C617 1.348 . S
C613 C612 1.359 . S
C613 C614 1.380 . S
C613 H636 0.929 . S
C614 C613 1.380 . S
C614 C615 1.347 . S
C614 H637 0.931 . S
C615 C614 1.347 . S
C615 C616 1.369 . S
C616 C615 1.369 . S
C616 C617 1.408 . S
C616 H638 0.930 . S
C617 C612 1.348 . S
C617 C616 1.408 . S
C617 H639 0.930 . S
C618 O628 1.281 . S
C618 O629 1.254 1_545 S
C619 O630 1.236 . S
C619 O631 1.266 . S
O620 Tb600 2.484 . S
O620 C602 1.248 . S
O621 Tb600 2.440 . S
O621 C602 1.266 . S
O622 Tb600 2.658 . S
O622 Tb601 2.325 1_545 S
O622 C609 1.281 . S
O623 Tb600 2.409 . S
O623 C609 1.254 . S
O624 Tb600 2.378 1_565 S
O624 C610 1.236 . S
O625 Tb601 2.341 . S
O625 C610 1.266 . S
O626 Tb601 2.484 1_545 S
O626 C611 1.248 . S
O627 Tb601 2.440 . S
O627 C611 1.266 1_565 S
O628 Tb600 2.325 . S
O628 Tb601 2.658 1_545 S
O628 C618 1.281 . S
O629 Tb601 2.409 . S
O629 C618 1.254 1_565 S
O630 Tb601 2.378 1_545 S
O630 C619 1.236 . S
O631 Tb600 2.341 . S
O631 C619 1.266 . S
H632 C604 0.929 . S
H633 C605 0.931 . S
H634 C607 0.935 . S
H635 C608 0.930 . S
H636 C613 0.929 . S
H637 C614 0.931 . S
H638 C616 0.930 . S
H639 C617 0.930 . S
Tb640 C642 2.809 . S
Tb640 O660 2.484 . S
Tb640 O661 2.440 . S
Tb640 O662 2.658 . S
Tb640 O663 2.409 . S
Tb640 O664 2.378 . S
Tb640 O668 2.325 . S
Tb640 O671 2.341 . S
Tb641 C651 2.809 . S
Tb641 O662 2.325 . S
Tb641 O665 2.341 . S
Tb641 O666 2.484 . S
Tb641 O667 2.440 . S
Tb641 O668 2.658 . S
Tb641 O669 2.409 . S
Tb641 O670 2.378 . S
C642 Tb640 2.809 . S
C642 C643 1.514 . S
C642 O660 1.248 . S
C642 O661 1.266 . S
C643 C642 1.514 . S
C643 C644 1.359 . S
C643 C648 1.348 . S
C644 C643 1.359 . S
C644 C645 1.380 . S
C644 H672 0.929 . S
C645 C644 1.380 . S
C645 C646 1.347 . S
C645 H673 0.931 . S
C646 C645 1.347 . S
C646 C647 1.369 . S
C647 C646 1.369 . S
C647 C648 1.408 . S
C647 H674 0.930 . S
C648 C643 1.348 . S
C648 C647 1.408 . S
C648 H675 0.930 . S
C649 O662 1.281 . S
C649 O663 1.254 . S
C650 O664 1.236 . S
C650 O665 1.266 . S
C651 Tb641 2.809 . S
C651 C652 1.514 . S
C651 O666 1.248 . S
C651 O667 1.266 . S
C652 C651 1.514 . S
C652 C653 1.359 . S
C652 C657 1.348 . S
C653 C652 1.359 . S
C653 C654 1.380 . S
C653 H676 0.929 . S
C654 C653 1.380 . S
C654 C655 1.347 . S
C654 H677 0.931 . S
C655 C654 1.347 . S
C655 C656 1.369 . S
C656 C655 1.369 . S
C656 C657 1.408 . S
C656 H678 0.930 . S
C657 C652 1.348 . S
C657 C656 1.408 . S
C657 H679 0.930 . S
C658 O668 1.281 . S
C658 O669 1.254 . S
C659 O670 1.236 . S
C659 O671 1.266 . S
O660 Tb640 2.484 . S
O660 C642 1.248 . S
O661 Tb640 2.440 . S
O661 C642 1.266 . S
O662 Tb640 2.658 . S
O662 Tb641 2.325 . S
O662 C649 1.281 . S
O663 Tb640 2.409 . S
O663 C649 1.254 . S
O664 Tb640 2.378 . S
O664 C650 1.236 . S
O665 Tb641 2.341 . S
O665 C650 1.266 . S
O666 Tb641 2.484 . S
O666 C651 1.248 . S
O667 Tb641 2.440 . S
O667 C651 1.266 . S
O668 Tb640 2.325 . S
O668 Tb641 2.658 . S
O668 C658 1.281 . S
O669 Tb641 2.409 . S
O669 C658 1.254 . S
O670 Tb641 2.378 . S
O670 C659 1.236 . S
O671 Tb640 2.341 . S
O671 C659 1.266 . S
H672 C644 0.929 . S
H673 C645 0.931 . S
H674 C647 0.930 . S
H675 C648 0.930 . S
H676 C653 0.929 . S
H677 C654 0.931 . S
H678 C656 0.930 . S
H679 C657 0.930 . S
Tb680 C682 2.809 . S
Tb680 O700 2.484 . S
Tb680 O701 2.440 . S
Tb680 O702 2.658 . S
Tb680 O703 2.409 . S
Tb680 O704 2.378 . S
Tb680 O708 2.325 . S
Tb680 O711 2.341 . S
Tb681 C691 2.809 . S
Tb681 O702 2.325 . S
Tb681 O705 2.341 . S
Tb681 O706 2.484 . S
Tb681 O707 2.440 . S
Tb681 O708 2.658 . S
Tb681 O709 2.409 . S
Tb681 O710 2.378 . S
C682 Tb680 2.809 . S
C682 C683 1.514 . S
C682 O700 1.248 . S
C682 O701 1.266 . S
C683 C682 1.514 . S
C683 C684 1.359 . S
C683 C688 1.348 . S
C684 C683 1.359 . S
C684 C685 1.380 1_655 S
C684 H712 0.929 . S
C685 C684 1.380 1_455 S
C685 C686 1.347 . S
C685 H713 0.931 . S
C686 C685 1.347 . S
C686 C687 1.369 . S
C687 C686 1.369 . S
C687 C688 1.408 1_455 S
C687 H714 0.930 . S
C688 C683 1.348 . S
C688 C687 1.408 1_655 S
C688 H715 0.930 . S
C689 O702 1.281 . S
C689 O703 1.254 . S
C690 O704 1.236 . S
C690 O705 1.266 . S
C691 Tb681 2.809 . S
C691 C692 1.514 . S
C691 O706 1.248 . S
C691 O707 1.266 . S
C692 C691 1.514 . S
C692 C693 1.359 . S
C692 C697 1.348 . S
C693 C692 1.359 . S
C693 C694 1.380 . S
C693 H716 0.929 . S
C694 C693 1.380 . S
C694 C695 1.347 . S
C694 H717 0.931 . S
C695 C694 1.347 . S
C695 C696 1.369 . S
C696 C695 1.369 . S
C696 C697 1.408 . S
C696 H718 0.930 . S
C697 C692 1.348 . S
C697 C696 1.408 . S
C697 H719 0.930 . S
C698 O708 1.281 . S
C698 O709 1.254 . S
C699 O710 1.236 . S
C699 O711 1.266 . S
O700 Tb680 2.484 . S
O700 C682 1.248 . S
O701 Tb680 2.440 . S
O701 C682 1.266 . S
O702 Tb680 2.658 . S
O702 Tb681 2.325 . S
O702 C689 1.281 . S
O703 Tb680 2.409 . S
O703 C689 1.254 . S
O704 Tb680 2.378 . S
O704 C690 1.236 . S
O705 Tb681 2.341 . S
O705 C690 1.266 . S
O706 Tb681 2.484 . S
O706 C691 1.248 . S
O707 Tb681 2.440 . S
O707 C691 1.266 . S
O708 Tb680 2.325 . S
O708 Tb681 2.658 . S
O708 C698 1.281 . S
O709 Tb681 2.409 . S
O709 C698 1.254 . S
O710 Tb681 2.378 . S
O710 C699 1.236 . S
O711 Tb680 2.341 . S
O711 C699 1.266 . S
H712 C684 0.929 . S
H713 C685 0.931 . S
H714 C687 0.930 . S
H715 C688 0.930 . S
H716 C693 0.929 . S
H717 C694 0.931 . S
H718 C696 0.930 . S
H719 C697 0.930 . S
Tb720 C722 2.809 . S
Tb720 O740 2.484 . S
Tb720 O741 2.440 . S
Tb720 O742 2.658 . S
Tb720 O743 2.409 . S
Tb720 O744 2.378 . S
Tb720 O748 2.325 . S
Tb720 O751 2.341 . S
Tb721 C731 2.809 . S
Tb721 O742 2.325 . S
Tb721 O745 2.341 . S
Tb721 O746 2.484 . S
Tb721 O747 2.440 . S
Tb721 O748 2.658 . S
Tb721 O749 2.409 . S
Tb721 O750 2.378 . S
C722 Tb720 2.809 . S
C722 C723 1.514 . S
C722 O740 1.248 . S
C722 O741 1.266 . S
C723 C722 1.514 . S
C723 C724 1.359 . S
C723 C728 1.348 . S
C724 C723 1.359 . S
C724 C725 1.380 . S
C724 H752 0.929 . S
C725 C724 1.380 . S
C725 C726 1.347 . S
C725 H753 0.931 . S
C726 C725 1.347 . S
C726 C727 1.369 . S
C727 C726 1.369 . S
C727 C728 1.408 . S
C727 H754 0.930 . S
C728 C723 1.348 . S
C728 C727 1.408 . S
C728 H755 0.930 . S
C729 O742 1.281 . S
C729 O743 1.254 . S
C730 O744 1.236 . S
C730 O745 1.266 . S
C731 Tb721 2.809 . S
C731 C732 1.514 . S
C731 O746 1.248 . S
C731 O747 1.266 . S
C732 C731 1.514 . S
C732 C733 1.359 . S
C732 C737 1.348 . S
C733 C732 1.359 . S
C733 C734 1.380 . S
C733 H756 0.929 . S
C734 C733 1.380 . S
C734 C735 1.347 . S
C734 H757 0.931 . S
C735 C734 1.347 . S
C735 C736 1.369 . S
C736 C735 1.369 . S
C736 C737 1.408 . S
C736 H758 0.930 . S
C737 C732 1.348 . S
C737 C736 1.408 . S
C737 H759 0.930 . S
C738 O748 1.281 . S
C738 O749 1.254 . S
C739 O750 1.236 . S
C739 O751 1.266 . S
O740 Tb720 2.484 . S
O740 C722 1.248 . S
O741 Tb720 2.440 . S
O741 C722 1.266 . S
O742 Tb720 2.658 . S
O742 Tb721 2.325 . S
O742 C729 1.281 . S
O743 Tb720 2.409 . S
O743 C729 1.254 . S
O744 Tb720 2.378 . S
O744 C730 1.236 . S
O745 Tb721 2.341 . S
O745 C730 1.266 . S
O746 Tb721 2.484 . S
O746 C731 1.248 . S
O747 Tb721 2.440 . S
O747 C731 1.266 . S
O748 Tb720 2.325 . S
O748 Tb721 2.658 . S
O748 C738 1.281 . S
O749 Tb721 2.409 . S
O749 C738 1.254 . S
O750 Tb721 2.378 . S
O750 C739 1.236 . S
O751 Tb720 2.341 . S
O751 C739 1.266 . S
H752 C724 0.929 . S
H753 C725 0.931 . S
H754 C727 0.930 . S
H755 C728 0.930 . S
H756 C733 0.929 . S
H757 C734 0.931 . S
H758 C736 0.930 . S
H759 C737 0.930 . S
Tb760 C762 2.809 . S
Tb760 O780 2.484 . S
Tb760 O781 2.440 . S
Tb760 O782 2.658 . S
Tb760 O783 2.409 . S
Tb760 O784 2.378 . S
Tb760 O788 2.325 . S
Tb760 O791 2.341 . S
Tb761 C771 2.809 . S
Tb761 O782 2.325 . S
Tb761 O785 2.341 . S
Tb761 O786 2.484 . S
Tb761 O787 2.440 . S
Tb761 O788 2.658 . S
Tb761 O789 2.409 . S
Tb761 O790 2.378 . S
C762 Tb760 2.809 . S
C762 C763 1.514 . S
C762 O780 1.248 . S
C762 O781 1.266 . S
C763 C762 1.514 . S
C763 C764 1.359 . S
C763 C768 1.348 . S
C764 C763 1.359 . S
C764 C765 1.380 1_655 S
C764 H792 0.929 . S
C765 C764 1.380 1_455 S
C765 C766 1.347 . S
C765 H793 0.931 . S
C766 C765 1.347 . S
C766 C767 1.369 . S
C767 C766 1.369 . S
C767 C768 1.408 1_455 S
C767 H794 0.930 . S
C768 C763 1.348 . S
C768 C767 1.408 1_655 S
C768 H795 0.930 . S
C769 O782 1.281 . S
C769 O783 1.254 . S
C770 O784 1.236 . S
C770 O785 1.266 . S
C771 Tb761 2.809 . S
C771 C772 1.514 . S
C771 O786 1.248 . S
C771 O787 1.266 . S
C772 C771 1.514 . S
C772 C773 1.359 . S
C772 C777 1.348 . S
C773 C772 1.359 . S
C773 C774 1.380 . S
C773 H796 0.929 . S
C774 C773 1.380 . S
C774 C775 1.347 . S
C774 H797 0.931 . S
C775 C774 1.347 . S
C775 C776 1.369 . S
C776 C775 1.369 . S
C776 C777 1.408 . S
C776 H798 0.930 . S
C777 C772 1.348 . S
C777 C776 1.408 . S
C777 H799 0.930 . S
C778 O788 1.281 . S
C778 O789 1.254 . S
C779 O790 1.236 . S
C779 O791 1.266 . S
O780 Tb760 2.484 . S
O780 C762 1.248 . S
O781 Tb760 2.440 . S
O781 C762 1.266 . S
O782 Tb760 2.658 . S
O782 Tb761 2.325 . S
O782 C769 1.281 . S
O783 Tb760 2.409 . S
O783 C769 1.254 . S
O784 Tb760 2.378 . S
O784 C770 1.236 . S
O785 Tb761 2.341 . S
O785 C770 1.266 . S
O786 Tb761 2.484 . S
O786 C771 1.248 . S
O787 Tb761 2.440 . S
O787 C771 1.266 . S
O788 Tb760 2.325 . S
O788 Tb761 2.658 . S
O788 C778 1.281 . S
O789 Tb761 2.409 . S
O789 C778 1.254 . S
O790 Tb761 2.378 . S
O790 C779 1.236 . S
O791 Tb760 2.341 . S
O791 C779 1.266 . S
H792 C764 0.929 . S
H793 C765 0.931 . S
H794 C767 0.930 . S
H795 C768 0.930 . S
H796 C773 0.929 . S
H797 C774 0.931 . S
H798 C776 0.930 . S
H799 C777 0.930 . S
Tb800 C802 2.809 . S
Tb800 O820 2.484 . S
Tb800 O821 2.440 . S
Tb800 O822 2.658 . S
Tb800 O823 2.409 . S
Tb800 O824 2.378 . S
Tb800 O828 2.325 . S
Tb800 O831 2.341 . S
Tb801 C811 2.809 . S
Tb801 O822 2.325 . S
Tb801 O825 2.341 . S
Tb801 O826 2.484 . S
Tb801 O827 2.440 . S
Tb801 O828 2.658 . S
Tb801 O829 2.409 . S
Tb801 O830 2.378 . S
C802 Tb800 2.809 . S
C802 C803 1.514 . S
C802 O820 1.248 . S
C802 O821 1.266 . S
C803 C802 1.514 . S
C803 C804 1.359 . S
C803 C808 1.348 . S
C804 C803 1.359 . S
C804 C805 1.380 . S
C804 H832 0.929 . S
C805 C804 1.380 . S
C805 C806 1.347 . S
C805 H833 0.931 . S
C806 C805 1.347 . S
C806 C807 1.369 . S
C807 C806 1.369 . S
C807 C808 1.408 . S
C807 H834 0.930 . S
C808 C803 1.348 . S
C808 C807 1.408 . S
C808 H835 0.930 . S
C809 O822 1.281 . S
C809 O823 1.254 . S
C810 O824 1.236 . S
C810 O825 1.266 . S
C811 Tb801 2.809 . S
C811 C812 1.514 . S
C811 O826 1.248 . S
C811 O827 1.266 . S
C812 C811 1.514 . S
C812 C813 1.359 . S
C812 C817 1.348 . S
C813 C812 1.359 . S
C813 C814 1.380 . S
C813 H836 0.929 . S
C814 C813 1.380 . S
C814 C815 1.347 . S
C814 H837 0.931 . S
C815 C814 1.347 . S
C815 C816 1.369 . S
C816 C815 1.369 . S
C816 C817 1.408 . S
C816 H838 0.930 . S
C817 C812 1.348 . S
C817 C816 1.408 . S
C817 H839 0.930 . S
C818 O828 1.281 . S
C818 O829 1.254 . S
C819 O830 1.236 . S
C819 O831 1.266 . S
O820 Tb800 2.484 . S
O820 C802 1.248 . S
O821 Tb800 2.440 . S
O821 C802 1.266 . S
O822 Tb800 2.658 . S
O822 Tb801 2.325 . S
O822 C809 1.281 . S
O823 Tb800 2.409 . S
O823 C809 1.254 . S
O824 Tb800 2.378 . S
O824 C810 1.236 . S
O825 Tb801 2.341 . S
O825 C810 1.266 . S
O826 Tb801 2.484 . S
O826 C811 1.248 . S
O827 Tb801 2.440 . S
O827 C811 1.266 . S
O828 Tb800 2.325 . S
O828 Tb801 2.658 . S
O828 C818 1.281 . S
O829 Tb801 2.409 . S
O829 C818 1.254 . S
O830 Tb801 2.378 . S
O830 C819 1.236 . S
O831 Tb800 2.341 . S
O831 C819 1.266 . S
H832 C804 0.929 . S
H833 C805 0.931 . S
H834 C807 0.930 . S
H835 C808 0.930 . S
H836 C813 0.929 . S
H837 C814 0.931 . S
H838 C816 0.930 . S
H839 C817 0.930 . S
Tb840 C842 2.809 . S
Tb840 O860 2.484 . S
Tb840 O861 2.440 . S
Tb840 O862 2.658 . S
Tb840 O863 2.409 . S
Tb840 O864 2.378 . S
Tb840 O868 2.325 . S
Tb840 O871 2.341 . S
Tb841 C851 2.809 . S
Tb841 O862 2.325 . S
Tb841 O865 2.341 . S
Tb841 O866 2.484 . S
Tb841 O867 2.440 . S
Tb841 O868 2.658 . S
Tb841 O869 2.409 . S
Tb841 O870 2.378 . S
C842 Tb840 2.809 . S
C842 C843 1.514 . S
C842 O860 1.248 . S
C842 O861 1.266 . S
C843 C842 1.514 . S
C843 C844 1.359 . S
C843 C848 1.348 . S
C844 C843 1.359 . S
C844 C845 1.380 . S
C844 H872 0.929 . S
C845 C844 1.380 . S
C845 C846 1.347 . S
C845 H873 0.931 . S
C846 C845 1.347 . S
C846 C847 1.369 . S
C847 C846 1.369 . S
C847 C848 1.408 . S
C847 H874 0.930 . S
C848 C843 1.348 . S
C848 C847 1.408 . S
C848 H875 0.930 . S
C849 O862 1.281 . S
C849 O863 1.254 . S
C850 O864 1.236 . S
C850 O865 1.266 . S
C851 Tb841 2.809 . S
C851 C852 1.514 . S
C851 O866 1.248 . S
C851 O867 1.266 . S
C852 C851 1.514 . S
C852 C853 1.359 . S
C852 C857 1.348 . S
C853 C852 1.359 . S
C853 C854 1.380 1_455 S
C853 H876 0.929 . S
C854 C853 1.380 1_655 S
C854 C855 1.347 . S
C854 H877 0.931 . S
C855 C854 1.347 . S
C855 C856 1.369 . S
C856 C855 1.369 . S
C856 C857 1.408 1_655 S
C856 H878 0.930 . S
C857 C852 1.348 . S
C857 C856 1.408 1_455 S
C857 H879 0.930 . S
C858 O868 1.281 . S
C858 O869 1.254 . S
C859 O870 1.236 . S
C859 O871 1.266 . S
O860 Tb840 2.484 . S
O860 C842 1.248 . S
O861 Tb840 2.440 . S
O861 C842 1.266 . S
O862 Tb840 2.658 . S
O862 Tb841 2.325 . S
O862 C849 1.281 . S
O863 Tb840 2.409 . S
O863 C849 1.254 . S
O864 Tb840 2.378 . S
O864 C850 1.236 . S
O865 Tb841 2.341 . S
O865 C850 1.266 . S
O866 Tb841 2.484 . S
O866 C851 1.248 . S
O867 Tb841 2.440 . S
O867 C851 1.266 . S
O868 Tb840 2.325 . S
O868 Tb841 2.658 . S
O868 C858 1.281 . S
O869 Tb841 2.409 . S
O869 C858 1.254 . S
O870 Tb841 2.378 . S
O870 C859 1.236 . S
O871 Tb840 2.341 . S
O871 C859 1.266 . S
H872 C844 0.929 . S
H873 C845 0.931 . S
H874 C847 0.930 . S
H875 C848 0.930 . S
H876 C853 0.929 . S
H877 C854 0.931 . S
H878 C856 0.930 . S
H879 C857 0.930 . S
Tb880 C882 2.809 . S
Tb880 O900 2.484 . S
Tb880 O901 2.440 . S
Tb880 O902 2.658 . S
Tb880 O903 2.409 . S
Tb880 O904 2.378 . S
Tb880 O908 2.325 . S
Tb880 O911 2.341 . S
Tb881 C891 2.809 . S
Tb881 O902 2.325 . S
Tb881 O905 2.341 . S
Tb881 O906 2.484 . S
Tb881 O907 2.440 . S
Tb881 O908 2.658 . S
Tb881 O909 2.409 . S
Tb881 O910 2.378 . S
C882 Tb880 2.809 . S
C882 C883 1.514 . S
C882 O900 1.248 . S
C882 O901 1.266 . S
C883 C882 1.514 . S
C883 C884 1.359 . S
C883 C888 1.348 . S
C884 C883 1.359 . S
C884 C885 1.380 . S
C884 H912 0.929 . S
C885 C884 1.380 . S
C885 C886 1.347 . S
C885 H913 0.931 . S
C886 C885 1.347 . S
C886 C887 1.369 . S
C887 C886 1.369 . S
C887 C888 1.408 . S
C887 H914 0.930 . S
C888 C883 1.348 . S
C888 C887 1.408 . S
C888 H915 0.930 . S
C889 O902 1.281 . S
C889 O903 1.254 . S
C890 O904 1.236 . S
C890 O905 1.266 . S
C891 Tb881 2.809 . S
C891 C892 1.514 . S
C891 O906 1.248 . S
C891 O907 1.266 . S
C892 C891 1.514 . S
C892 C893 1.359 . S
C892 C897 1.348 . S
C893 C892 1.359 . S
C893 C894 1.380 . S
C893 H916 0.929 . S
C894 C893 1.380 . S
C894 C895 1.347 . S
C894 H917 0.931 . S
C895 C894 1.347 . S
C895 C896 1.369 . S
C896 C895 1.369 . S
C896 C897 1.408 . S
C896 H918 0.930 . S
C897 C892 1.348 . S
C897 C896 1.408 . S
C897 H919 0.930 . S
C898 O908 1.281 . S
C898 O909 1.254 . S
C899 O910 1.236 . S
C899 O911 1.266 . S
O900 Tb880 2.484 . S
O900 C882 1.248 . S
O901 Tb880 2.440 . S
O901 C882 1.266 . S
O902 Tb880 2.658 . S
O902 Tb881 2.325 . S
O902 C889 1.281 . S
O903 Tb880 2.409 . S
O903 C889 1.254 . S
O904 Tb880 2.378 . S
O904 C890 1.236 . S
O905 Tb881 2.341 . S
O905 C890 1.266 . S
O906 Tb881 2.484 . S
O906 C891 1.248 . S
O907 Tb881 2.440 . S
O907 C891 1.266 . S
O908 Tb880 2.325 . S
O908 Tb881 2.658 . S
O908 C898 1.281 . S
O909 Tb881 2.409 . S
O909 C898 1.254 . S
O910 Tb881 2.378 . S
O910 C899 1.236 . S
O911 Tb880 2.341 . S
O911 C899 1.266 . S
H912 C884 0.929 . S
H913 C885 0.931 . S
H914 C887 0.930 . S
H915 C888 0.930 . S
H916 C893 0.929 . S
H917 C894 0.931 . S
H918 C896 0.930 . S
H919 C897 0.930 . S
Tb920 C922 2.809 . S
Tb920 O940 2.484 . S
Tb920 O941 2.440 . S
Tb920 O942 2.658 . S
Tb920 O943 2.409 . S
Tb920 O944 2.378 . S
Tb920 O948 2.325 . S
Tb920 O951 2.341 . S
Tb921 C931 2.809 . S
Tb921 O942 2.325 . S
Tb921 O945 2.341 . S
Tb921 O946 2.484 . S
Tb921 O947 2.440 . S
Tb921 O948 2.658 . S
Tb921 O949 2.409 . S
Tb921 O950 2.378 . S
C922 Tb920 2.809 . S
C922 C923 1.514 . S
C922 O940 1.248 . S
C922 O941 1.266 . S
C923 C922 1.514 . S
C923 C924 1.359 . S
C923 C928 1.348 . S
C924 C923 1.359 . S
C924 C925 1.380 . S
C924 H952 0.929 . S
C925 C924 1.380 . S
C925 C926 1.347 . S
C925 H953 0.931 . S
C926 C925 1.347 . S
C926 C927 1.369 . S
C927 C926 1.369 . S
C927 C928 1.408 . S
C927 H954 0.930 . S
C928 C923 1.348 . S
C928 C927 1.408 . S
C928 H955 0.930 . S
C929 O942 1.281 . S
C929 O943 1.254 . S
C930 O944 1.236 . S
C930 O945 1.266 . S
C931 Tb921 2.809 . S
C931 C932 1.514 . S
C931 O946 1.248 . S
C931 O947 1.266 . S
C932 C931 1.514 . S
C932 C933 1.359 . S
C932 C937 1.348 . S
C933 C932 1.359 . S
C933 C934 1.380 1_455 S
C933 H956 0.929 . S
C934 C933 1.380 1_655 S
C934 C935 1.347 . S
C934 H957 0.931 . S
C935 C934 1.347 . S
C935 C936 1.369 . S
C936 C935 1.369 . S
C936 C937 1.408 1_655 S
C936 H958 0.930 . S
C937 C932 1.348 . S
C937 C936 1.408 1_455 S
C937 H959 0.930 . S
C938 O948 1.281 . S
C938 O949 1.254 . S
C939 O950 1.236 . S
C939 O951 1.266 . S
O940 Tb920 2.484 . S
O940 C922 1.248 . S
O941 Tb920 2.440 . S
O941 C922 1.266 . S
O942 Tb920 2.658 . S
O942 Tb921 2.325 . S
O942 C929 1.281 . S
O943 Tb920 2.409 . S
O943 C929 1.254 . S
O944 Tb920 2.378 . S
O944 C930 1.236 . S
O945 Tb921 2.341 . S
O945 C930 1.266 . S
O946 Tb921 2.484 . S
O946 C931 1.248 . S
O947 Tb921 2.440 . S
O947 C931 1.266 . S
O948 Tb920 2.325 . S
O948 Tb921 2.658 . S
O948 C938 1.281 . S
O949 Tb921 2.409 . S
O949 C938 1.254 . S
O950 Tb921 2.378 . S
O950 C939 1.236 . S
O951 Tb920 2.341 . S
O951 C939 1.266 . S
H952 C924 0.929 . S
H953 C925 0.931 . S
H954 C927 0.930 . S
H955 C928 0.930 . S
H956 C933 0.929 . S
H957 C934 0.931 . S
H958 C936 0.930 . S
H959 C937 0.930 . S
Tb960 C962 2.809 1_545 S
Tb960 O980 2.484 1_545 S
Tb960 O981 2.440 . S
Tb960 O982 2.658 1_545 S
Tb960 O983 2.409 . S
Tb960 O984 2.378 1_545 S
Tb960 O988 2.325 1_545 S
Tb960 O991 2.341 . S
Tb961 C971 2.809 . S
Tb961 O982 2.325 . S
Tb961 O985 2.341 . S
Tb961 O986 2.484 . S
Tb961 O987 2.440 . S
Tb961 O988 2.658 . S
Tb961 O989 2.409 . S
Tb961 O990 2.378 1_565 S
C962 Tb960 2.809 1_565 S
C962 C963 1.514 . S
C962 O980 1.248 . S
C962 O981 1.266 1_565 S
C963 C962 1.514 . S
C963 C964 1.359 . S
C963 C968 1.348 . S
C964 C963 1.359 . S
C964 C965 1.380 . S
C964 H992 0.929 . S
C965 C964 1.380 . S
C965 C966 1.347 . S
C965 H993 0.931 . S
C966 C965 1.347 . S
C966 C967 1.369 . S
C967 C966 1.369 . S
C967 C968 1.408 . S
C967 H994 0.930 . S
C968 C963 1.348 . S
C968 C967 1.408 . S
C968 H995 0.930 . S
C969 O982 1.281 . S
C969 O983 1.254 1_565 S
C970 O984 1.236 . S
C970 O985 1.266 . S
C971 Tb961 2.809 . S
C971 C972 1.514 . S
C971 O986 1.248 . S
C971 O987 1.266 . S
C972 C971 1.514 . S
C972 C973 1.359 1_565 S
C972 C977 1.348 . S
C973 C972 1.359 1_545 S
C973 C974 1.380 . S
C973 H996 0.929 . S
C974 C973 1.380 . S
C974 C975 1.347 . S
C974 H997 0.931 . S
C975 C974 1.347 . S
C975 C976 1.357 1_545 S
C976 C975 1.357 1_565 S
C976 C977 1.418 . S
C976 H998 0.935 . S
C977 C972 1.348 . S
C977 C976 1.418 . S
C977 H999 0.930 . S
C978 O988 1.281 . S
C978 O989 1.254 . S
C979 O990 1.236 . S
C979 O991 1.266 . S
O980 Tb960 2.484 1_565 S
O980 C962 1.248 . S
O981 Tb960 2.440 . S
O981 C962 1.266 1_545 S
O982 Tb960 2.658 1_565 S
O982 Tb961 2.325 . S
O982 C969 1.281 . S
O983 Tb960 2.409 . S
O983 C969 1.254 1_545 S
O984 Tb960 2.378 1_565 S
O984 C970 1.236 . S
O985 Tb961 2.341 . S
O985 C970 1.266 . S
O986 Tb961 2.484 . S
O986 C971 1.248 . S
O987 Tb961 2.440 . S
O987 C971 1.266 . S
O988 Tb960 2.325 1_565 S
O988 Tb961 2.658 . S
O988 C978 1.281 . S
O989 Tb961 2.409 . S
O989 C978 1.254 . S
O990 Tb961 2.378 1_545 S
O990 C979 1.236 . S
O991 Tb960 2.341 . S
O991 C979 1.266 . S
H992 C964 0.929 . S
H993 C965 0.931 . S
H994 C967 0.930 . S
H995 C968 0.930 . S
H996 C973 0.929 . S
H997 C974 0.931 . S
H998 C976 0.935 . S
H999 C977 0.930 . S
Tb1000 C1002 2.809 . S
Tb1000 O1020 2.484 . S
Tb1000 O1021 2.440 . S
Tb1000 O1022 2.658 . S
Tb1000 O1023 2.409 . S
Tb1000 O1024 2.378 . S
Tb1000 O1028 2.325 . S
Tb1000 O1031 2.341 . S
Tb1001 C1011 2.809 . S
Tb1001 O1022 2.325 . S
Tb1001 O1025 2.341 . S
Tb1001 O1026 2.484 . S
Tb1001 O1027 2.440 . S
Tb1001 O1028 2.658 . S
Tb1001 O1029 2.409 . S
Tb1001 O1030 2.378 . S
C1002 Tb1000 2.809 . S
C1002 C1003 1.514 . S
C1002 O1020 1.248 . S
C1002 O1021 1.266 . S
C1003 C1002 1.514 . S
C1003 C1004 1.359 . S
C1003 C1008 1.348 . S
C1004 C1003 1.359 . S
C1004 C1005 1.380 1_655 S
C1004 H1032 0.929 . S
C1005 C1004 1.380 1_455 S
C1005 C1006 1.347 . S
C1005 H1033 0.931 . S
C1006 C1005 1.347 . S
C1006 C1007 1.369 . S
C1007 C1006 1.369 . S
C1007 C1008 1.408 1_455 S
C1007 H1034 0.930 . S
C1008 C1003 1.348 . S
C1008 C1007 1.408 1_655 S
C1008 H1035 0.930 . S
C1009 O1022 1.281 . S
C1009 O1023 1.254 . S
C1010 O1024 1.236 . S
C1010 O1025 1.266 . S
C1011 Tb1001 2.809 . S
C1011 C1012 1.514 . S
C1011 O1026 1.248 . S
C1011 O1027 1.266 . S
C1012 C1011 1.514 . S
C1012 C1013 1.359 . S
C1012 C1017 1.348 . S
C1013 C1012 1.359 . S
C1013 C1014 1.380 . S
C1013 H1036 0.929 . S
C1014 C1013 1.380 . S
C1014 C1015 1.347 . S
C1014 H1037 0.931 . S
C1015 C1014 1.347 . S
C1015 C1016 1.369 . S
C1016 C1015 1.369 . S
C1016 C1017 1.408 . S
C1016 H1038 0.930 . S
C1017 C1012 1.348 . S
C1017 C1016 1.408 . S
C1017 H1039 0.930 . S
C1018 O1028 1.281 . S
C1018 O1029 1.254 . S
C1019 O1030 1.236 . S
C1019 O1031 1.266 . S
O1020 Tb1000 2.484 . S
O1020 C1002 1.248 . S
O1021 Tb1000 2.440 . S
O1021 C1002 1.266 . S
O1022 Tb1000 2.658 . S
O1022 Tb1001 2.325 . S
O1022 C1009 1.281 . S
O1023 Tb1000 2.409 . S
O1023 C1009 1.254 . S
O1024 Tb1000 2.378 . S
O1024 C1010 1.236 . S
O1025 Tb1001 2.341 . S
O1025 C1010 1.266 . S
O1026 Tb1001 2.484 . S
O1026 C1011 1.248 . S
O1027 Tb1001 2.440 . S
O1027 C1011 1.266 . S
O1028 Tb1000 2.325 . S
O1028 Tb1001 2.658 . S
O1028 C1018 1.281 . S
O1029 Tb1001 2.409 . S
O1029 C1018 1.254 . S
O1030 Tb1001 2.378 . S
O1030 C1019 1.236 . S
O1031 Tb1000 2.341 . S
O1031 C1019 1.266 . S
H1032 C1004 0.929 . S
H1033 C1005 0.931 . S
H1034 C1007 0.930 . S
H1035 C1008 0.930 . S
H1036 C1013 0.929 . S
H1037 C1014 0.931 . S
H1038 C1016 0.930 . S
H1039 C1017 0.930 . S
Tb1040 C1042 2.809 . S
Tb1040 O1060 2.484 . S
Tb1040 O1061 2.440 . S
Tb1040 O1062 2.658 . S
Tb1040 O1063 2.409 . S
Tb1040 O1064 2.378 . S
Tb1040 O1068 2.325 . S
Tb1040 O1071 2.341 . S
Tb1041 C1051 2.809 . S
Tb1041 O1062 2.325 . S
Tb1041 O1065 2.341 . S
Tb1041 O1066 2.484 . S
Tb1041 O1067 2.440 . S
Tb1041 O1068 2.658 . S
Tb1041 O1069 2.409 . S
Tb1041 O1070 2.378 . S
C1042 Tb1040 2.809 . S
C1042 C1043 1.514 . S
C1042 O1060 1.248 . S
C1042 O1061 1.266 . S
C1043 C1042 1.514 . S
C1043 C1044 1.359 . S
C1043 C1048 1.348 . S
C1044 C1043 1.359 . S
C1044 C1045 1.380 . S
C1044 H1072 0.929 . S
C1045 C1044 1.380 . S
C1045 C1046 1.347 . S
C1045 H1073 0.931 . S
C1046 C1045 1.347 . S
C1046 C1047 1.369 . S
C1047 C1046 1.369 . S
C1047 C1048 1.408 . S
C1047 H1074 0.930 . S
C1048 C1043 1.348 . S
C1048 C1047 1.408 . S
C1048 H1075 0.930 . S
C1049 O1062 1.281 . S
C1049 O1063 1.254 . S
C1050 O1064 1.236 . S
C1050 O1065 1.266 . S
C1051 Tb1041 2.809 . S
C1051 C1052 1.514 . S
C1051 O1066 1.248 . S
C1051 O1067 1.266 . S
C1052 C1051 1.514 . S
C1052 C1053 1.359 . S
C1052 C1057 1.348 . S
C1053 C1052 1.359 . S
C1053 C1054 1.380 . S
C1053 H1076 0.929 . S
C1054 C1053 1.380 . S
C1054 C1055 1.347 . S
C1054 H1077 0.931 . S
C1055 C1054 1.347 . S
C1055 C1056 1.369 . S
C1056 C1055 1.369 . S
C1056 C1057 1.408 . S
C1056 H1078 0.930 . S
C1057 C1052 1.348 . S
C1057 C1056 1.408 . S
C1057 H1079 0.930 . S
C1058 O1068 1.281 . S
C1058 O1069 1.254 . S
C1059 O1070 1.236 . S
C1059 O1071 1.266 . S
O1060 Tb1040 2.484 . S
O1060 C1042 1.248 . S
O1061 Tb1040 2.440 . S
O1061 C1042 1.266 . S
O1062 Tb1040 2.658 . S
O1062 Tb1041 2.325 . S
O1062 C1049 1.281 . S
O1063 Tb1040 2.409 . S
O1063 C1049 1.254 . S
O1064 Tb1040 2.378 . S
O1064 C1050 1.236 . S
O1065 Tb1041 2.341 . S
O1065 C1050 1.266 . S
O1066 Tb1041 2.484 . S
O1066 C1051 1.248 . S
O1067 Tb1041 2.440 . S
O1067 C1051 1.266 . S
O1068 Tb1040 2.325 . S
O1068 Tb1041 2.658 . S
O1068 C1058 1.281 . S
O1069 Tb1041 2.409 . S
O1069 C1058 1.254 . S
O1070 Tb1041 2.378 . S
O1070 C1059 1.236 . S
O1071 Tb1040 2.341 . S
O1071 C1059 1.266 . S
H1072 C1044 0.929 . S
H1073 C1045 0.931 . S
H1074 C1047 0.930 . S
H1075 C1048 0.930 . S
H1076 C1053 0.929 . S
H1077 C1054 0.931 . S
H1078 C1056 0.930 . S
H1079 C1057 0.930 . S
Tb1080 C1082 2.809 1_545 S
Tb1080 O1100 2.484 1_545 S
Tb1080 O1101 2.440 . S
Tb1080 O1102 2.658 1_545 S
Tb1080 O1103 2.409 . S
Tb1080 O1104 2.378 1_545 S
Tb1080 O1108 2.325 1_545 S
Tb1080 O1111 2.341 . S
Tb1081 C1091 2.809 . S
Tb1081 O1102 2.325 . S
Tb1081 O1105 2.341 . S
Tb1081 O1106 2.484 . S
Tb1081 O1107 2.440 . S
Tb1081 O1108 2.658 . S
Tb1081 O1109 2.409 . S
Tb1081 O1110 2.378 1_565 S
C1082 Tb1080 2.809 1_565 S
C1082 C1083 1.514 . S
C1082 O1100 1.248 . S
C1082 O1101 1.266 1_565 S
C1083 C1082 1.514 . S
C1083 C1084 1.359 . S
C1083 C1088 1.348 . S
C1084 C1083 1.359 . S
C1084 C1085 1.380 1_655 S
C1084 H1112 0.929 . S
C1085 C1084 1.380 1_455 S
C1085 C1086 1.347 . S
C1085 H1113 0.931 . S
C1086 C1085 1.347 . S
C1086 C1087 1.369 . S
C1087 C1086 1.369 . S
C1087 C1088 1.408 1_455 S
C1087 H1114 0.930 . S
C1088 C1083 1.348 . S
C1088 C1087 1.408 1_655 S
C1088 H1115 0.930 . S
C1089 O1102 1.281 . S
C1089 O1103 1.254 1_565 S
C1090 O1104 1.236 . S
C1090 O1105 1.266 . S
C1091 Tb1081 2.809 . S
C1091 C1092 1.514 . S
C1091 O1106 1.248 . S
C1091 O1107 1.266 . S
C1092 C1091 1.514 . S
C1092 C1093 1.359 1_565 S
C1092 C1097 1.348 . S
C1093 C1092 1.359 1_545 S
C1093 C1094 1.380 . S
C1093 H1116 0.929 . S
C1094 C1093 1.380 . S
C1094 C1095 1.347 . S
C1094 H1117 0.931 . S
C1095 C1094 1.347 . S
C1095 C1096 1.357 1_545 S
C1096 C1095 1.357 1_565 S
C1096 C1097 1.418 . S
C1096 H1118 0.935 . S
C1097 C1092 1.348 . S
C1097 C1096 1.418 . S
C1097 H1119 0.930 . S
C1098 O1108 1.281 . S
C1098 O1109 1.254 . S
C1099 O1110 1.236 . S
C1099 O1111 1.266 . S
O1100 Tb1080 2.484 1_565 S
O1100 C1082 1.248 . S
O1101 Tb1080 2.440 . S
O1101 C1082 1.266 1_545 S
O1102 Tb1080 2.658 1_565 S
O1102 Tb1081 2.325 . S
O1102 C1089 1.281 . S
O1103 Tb1080 2.409 . S
O1103 C1089 1.254 1_545 S
O1104 Tb1080 2.378 1_565 S
O1104 C1090 1.236 . S
O1105 Tb1081 2.341 . S
O1105 C1090 1.266 . S
O1106 Tb1081 2.484 . S
O1106 C1091 1.248 . S
O1107 Tb1081 2.440 . S
O1107 C1091 1.266 . S
O1108 Tb1080 2.325 1_565 S
O1108 Tb1081 2.658 . S
O1108 C1098 1.281 . S
O1109 Tb1081 2.409 . S
O1109 C1098 1.254 . S
O1110 Tb1081 2.378 1_545 S
O1110 C1099 1.236 . S
O1111 Tb1080 2.341 . S
O1111 C1099 1.266 . S
H1112 C1084 0.929 . S
H1113 C1085 0.931 . S
H1114 C1087 0.930 . S
H1115 C1088 0.930 . S
H1116 C1093 0.929 . S
H1117 C1094 0.931 . S
H1118 C1096 0.935 . S
H1119 C1097 0.930 . S
Tb1120 C1122 2.809 . S
Tb1120 O1140 2.484 . S
Tb1120 O1141 2.440 . S
Tb1120 O1142 2.658 . S
Tb1120 O1143 2.409 . S
Tb1120 O1144 2.378 1_545 S
Tb1120 O1148 2.325 . S
Tb1120 O1151 2.341 . S
Tb1121 C1131 2.809 1_565 S
Tb1121 O1142 2.325 1_565 S
Tb1121 O1145 2.341 . S
Tb1121 O1146 2.484 1_565 S
Tb1121 O1147 2.440 . S
Tb1121 O1148 2.658 1_565 S
Tb1121 O1149 2.409 . S
Tb1121 O1150 2.378 1_565 S
C1122 Tb1120 2.809 . S
C1122 C1123 1.514 . S
C1122 O1140 1.248 . S
C1122 O1141 1.266 . S
C1123 C1122 1.514 . S
C1123 C1124 1.359 1_545 S
C1123 C1128 1.348 . S
C1124 C1123 1.359 1_565 S
C1124 C1125 1.380 . S
C1124 H1152 0.929 . S
C1125 C1124 1.380 . S
C1125 C1126 1.347 . S
C1125 H1153 0.931 . S
C1126 C1125 1.347 . S
C1126 C1127 1.357 1_565 S
C1127 C1126 1.357 1_545 S
C1127 C1128 1.418 . S
C1127 H1154 0.935 . S
C1128 C1123 1.348 . S
C1128 C1127 1.418 . S
C1128 H1155 0.930 . S
C1129 O1142 1.281 . S
C1129 O1143 1.254 . S
C1130 O1144 1.236 . S
C1130 O1145 1.266 . S
C1131 Tb1121 2.809 1_545 S
C1131 C1132 1.514 . S
C1131 O1146 1.248 . S
C1131 O1147 1.266 1_545 S
C1132 C1131 1.514 . S
C1132 C1133 1.359 . S
C1132 C1137 1.348 . S
C1133 C1132 1.359 . S
C1133 C1134 1.380 . S
C1133 H1156 0.929 . S
C1134 C1133 1.380 . S
C1134 C1135 1.347 . S
C1134 H1157 0.931 . S
C1135 C1134 1.347 . S
C1135 C1136 1.369 . S
C1136 C1135 1.369 . S
C1136 C1137 1.408 . S
C1136 H1158 0.930 . S
C1137 C1132 1.348 . S
C1137 C1136 1.408 . S
C1137 H1159 0.930 . S
C1138 O1148 1.281 . S
C1138 O1149 1.254 1_545 S
C1139 O1150 1.236 . S
C1139 O1151 1.266 . S
O1140 Tb1120 2.484 . S
O1140 C1122 1.248 . S
O1141 Tb1120 2.440 . S
O1141 C1122 1.266 . S
O1142 Tb1120 2.658 . S
O1142 Tb1121 2.325 1_545 S
O1142 C1129 1.281 . S
O1143 Tb1120 2.409 . S
O1143 C1129 1.254 . S
O1144 Tb1120 2.378 1_565 S
O1144 C1130 1.236 . S
O1145 Tb1121 2.341 . S
O1145 C1130 1.266 . S
O1146 Tb1121 2.484 1_545 S
O1146 C1131 1.248 . S
O1147 Tb1121 2.440 . S
O1147 C1131 1.266 1_565 S
O1148 Tb1120 2.325 . S
O1148 Tb1121 2.658 1_545 S
O1148 C1138 1.281 . S
O1149 Tb1121 2.409 . S
O1149 C1138 1.254 1_565 S
O1150 Tb1121 2.378 1_545 S
O1150 C1139 1.236 . S
O1151 Tb1120 2.341 . S
O1151 C1139 1.266 . S
H1152 C1124 0.929 . S
H1153 C1125 0.931 . S
H1154 C1127 0.935 . S
H1155 C1128 0.930 . S
H1156 C1133 0.929 . S
H1157 C1134 0.931 . S
H1158 C1136 0.930 . S
H1159 C1137 0.930 . S
Tb1160 C1162 2.809 . S
Tb1160 O1180 2.484 . S
Tb1160 O1181 2.440 . S
Tb1160 O1182 2.658 . S
Tb1160 O1183 2.409 . S
Tb1160 O1184 2.378 . S
Tb1160 O1188 2.325 . S
Tb1160 O1191 2.341 . S
Tb1161 C1171 2.809 . S
Tb1161 O1182 2.325 . S
Tb1161 O1185 2.341 . S
Tb1161 O1186 2.484 . S
Tb1161 O1187 2.440 . S
Tb1161 O1188 2.658 . S
Tb1161 O1189 2.409 . S
Tb1161 O1190 2.378 . S
C1162 Tb1160 2.809 . S
C1162 C1163 1.514 . S
C1162 O1180 1.248 . S
C1162 O1181 1.266 . S
C1163 C1162 1.514 . S
C1163 C1164 1.359 . S
C1163 C1168 1.348 . S
C1164 C1163 1.359 . S
C1164 C1165 1.380 . S
C1164 H1192 0.929 . S
C1165 C1164 1.380 . S
C1165 C1166 1.347 . S
C1165 H1193 0.931 . S
C1166 C1165 1.347 . S
C1166 C1167 1.369 . S
C1167 C1166 1.369 . S
C1167 C1168 1.408 . S
C1167 H1194 0.930 . S
C1168 C1163 1.348 . S
C1168 C1167 1.408 . S
C1168 H1195 0.930 . S
C1169 O1182 1.281 . S
C1169 O1183 1.254 . S
C1170 O1184 1.236 . S
C1170 O1185 1.266 . S
C1171 Tb1161 2.809 . S
C1171 C1172 1.514 . S
C1171 O1186 1.248 . S
C1171 O1187 1.266 . S
C1172 C1171 1.514 . S
C1172 C1173 1.359 . S
C1172 C1177 1.348 . S
C1173 C1172 1.359 . S
C1173 C1174 1.380 1_455 S
C1173 H1196 0.929 . S
C1174 C1173 1.380 1_655 S
C1174 C1175 1.347 . S
C1174 H1197 0.931 . S
C1175 C1174 1.347 . S
C1175 C1176 1.369 . S
C1176 C1175 1.369 . S
C1176 C1177 1.408 1_655 S
C1176 H1198 0.930 . S
C1177 C1172 1.348 . S
C1177 C1176 1.408 1_455 S
C1177 H1199 0.930 . S
C1178 O1188 1.281 . S
C1178 O1189 1.254 . S
C1179 O1190 1.236 . S
C1179 O1191 1.266 . S
O1180 Tb1160 2.484 . S
O1180 C1162 1.248 . S
O1181 Tb1160 2.440 . S
O1181 C1162 1.266 . S
O1182 Tb1160 2.658 . S
O1182 Tb1161 2.325 . S
O1182 C1169 1.281 . S
O1183 Tb1160 2.409 . S
O1183 C1169 1.254 . S
O1184 Tb1160 2.378 . S
O1184 C1170 1.236 . S
O1185 Tb1161 2.341 . S
O1185 C1170 1.266 . S
O1186 Tb1161 2.484 . S
O1186 C1171 1.248 . S
O1187 Tb1161 2.440 . S
O1187 C1171 1.266 . S
O1188 Tb1160 2.325 . S
O1188 Tb1161 2.658 . S
O1188 C1178 1.281 . S
O1189 Tb1161 2.409 . S
O1189 C1178 1.254 . S
O1190 Tb1161 2.378 . S
O1190 C1179 1.236 . S
O1191 Tb1160 2.341 . S
O1191 C1179 1.266 . S
H1192 C1164 0.929 . S
H1193 C1165 0.931 . S
H1194 C1167 0.930 . S
H1195 C1168 0.930 . S
H1196 C1173 0.929 . S
H1197 C1174 0.931 . S
H1198 C1176 0.930 . S
H1199 C1177 0.930 . S
Tb1200 C1202 2.809 . S
Tb1200 O1220 2.484 . S
Tb1200 O1221 2.440 . S
Tb1200 O1222 2.658 . S
Tb1200 O1223 2.409 . S
Tb1200 O1224 2.378 . S
Tb1200 O1228 2.325 . S
Tb1200 O1231 2.341 . S
Tb1201 C1211 2.809 . S
Tb1201 O1222 2.325 . S
Tb1201 O1225 2.341 . S
Tb1201 O1226 2.484 . S
Tb1201 O1227 2.440 . S
Tb1201 O1228 2.658 . S
Tb1201 O1229 2.409 . S
Tb1201 O1230 2.378 . S
C1202 Tb1200 2.809 . S
C1202 C1203 1.514 . S
C1202 O1220 1.248 . S
C1202 O1221 1.266 . S
C1203 C1202 1.514 . S
C1203 C1204 1.359 . S
C1203 C1208 1.348 . S
C1204 C1203 1.359 . S
C1204 C1205 1.380 . S
C1204 H1232 0.929 . S
C1205 C1204 1.380 . S
C1205 C1206 1.347 . S
C1205 H1233 0.931 . S
C1206 C1205 1.347 . S
C1206 C1207 1.369 . S
C1207 C1206 1.369 . S
C1207 C1208 1.408 . S
C1207 H1234 0.930 . S
C1208 C1203 1.348 . S
C1208 C1207 1.408 . S
C1208 H1235 0.930 . S
C1209 O1222 1.281 . S
C1209 O1223 1.254 . S
C1210 O1224 1.236 . S
C1210 O1225 1.266 . S
C1211 Tb1201 2.809 . S
C1211 C1212 1.514 . S
C1211 O1226 1.248 . S
C1211 O1227 1.266 . S
C1212 C1211 1.514 . S
C1212 C1213 1.359 . S
C1212 C1217 1.348 . S
C1213 C1212 1.359 . S
C1213 C1214 1.380 . S
C1213 H1236 0.929 . S
C1214 C1213 1.380 . S
C1214 C1215 1.347 . S
C1214 H1237 0.931 . S
C1215 C1214 1.347 . S
C1215 C1216 1.369 . S
C1216 C1215 1.369 . S
C1216 C1217 1.408 . S
C1216 H1238 0.930 . S
C1217 C1212 1.348 . S
C1217 C1216 1.408 . S
C1217 H1239 0.930 . S
C1218 O1228 1.281 . S
C1218 O1229 1.254 . S
C1219 O1230 1.236 . S
C1219 O1231 1.266 . S
O1220 Tb1200 2.484 . S
O1220 C1202 1.248 . S
O1221 Tb1200 2.440 . S
O1221 C1202 1.266 . S
O1222 Tb1200 2.658 . S
O1222 Tb1201 2.325 . S
O1222 C1209 1.281 . S
O1223 Tb1200 2.409 . S
O1223 C1209 1.254 . S
O1224 Tb1200 2.378 . S
O1224 C1210 1.236 . S
O1225 Tb1201 2.341 . S
O1225 C1210 1.266 . S
O1226 Tb1201 2.484 . S
O1226 C1211 1.248 . S
O1227 Tb1201 2.440 . S
O1227 C1211 1.266 . S
O1228 Tb1200 2.325 . S
O1228 Tb1201 2.658 . S
O1228 C1218 1.281 . S
O1229 Tb1201 2.409 . S
O1229 C1218 1.254 . S
O1230 Tb1201 2.378 . S
O1230 C1219 1.236 . S
O1231 Tb1200 2.341 . S
O1231 C1219 1.266 . S
H1232 C1204 0.929 . S
H1233 C1205 0.931 . S
H1234 C1207 0.930 . S
H1235 C1208 0.930 . S
H1236 C1213 0.929 . S
H1237 C1214 0.931 . S
H1238 C1216 0.930 . S
H1239 C1217 0.930 . S
Tb1240 C1242 2.809 . S
Tb1240 O1260 2.484 . S
Tb1240 O1261 2.440 . S
Tb1240 O1262 2.658 . S
Tb1240 O1263 2.409 . S
Tb1240 O1264 2.378 1_545 S
Tb1240 O1268 2.325 . S
Tb1240 O1271 2.341 . S
Tb1241 C1251 2.809 1_565 S
Tb1241 O1262 2.325 1_565 S
Tb1241 O1265 2.341 . S
Tb1241 O1266 2.484 1_565 S
Tb1241 O1267 2.440 . S
Tb1241 O1268 2.658 1_565 S
Tb1241 O1269 2.409 . S
Tb1241 O1270 2.378 1_565 S
C1242 Tb1240 2.809 . S
C1242 C1243 1.514 . S
C1242 O1260 1.248 . S
C1242 O1261 1.266 . S
C1243 C1242 1.514 . S
C1243 C1244 1.359 1_545 S
C1243 C1248 1.348 . S
C1244 C1243 1.359 1_565 S
C1244 C1245 1.380 . S
C1244 H1272 0.929 . S
C1245 C1244 1.380 . S
C1245 C1246 1.347 . S
C1245 H1273 0.931 . S
C1246 C1245 1.347 . S
C1246 C1247 1.357 1_565 S
C1247 C1246 1.357 1_545 S
C1247 C1248 1.418 . S
C1247 H1274 0.935 . S
C1248 C1243 1.348 . S
C1248 C1247 1.418 . S
C1248 H1275 0.930 . S
C1249 O1262 1.281 . S
C1249 O1263 1.254 . S
C1250 O1264 1.236 . S
C1250 O1265 1.266 . S
C1251 Tb1241 2.809 1_545 S
C1251 C1252 1.514 . S
C1251 O1266 1.248 . S
C1251 O1267 1.266 1_545 S
C1252 C1251 1.514 . S
C1252 C1253 1.359 . S
C1252 C1257 1.348 . S
C1253 C1252 1.359 . S
C1253 C1254 1.380 1_455 S
C1253 H1276 0.929 . S
C1254 C1253 1.380 1_655 S
C1254 C1255 1.347 . S
C1254 H1277 0.931 . S
C1255 C1254 1.347 . S
C1255 C1256 1.369 . S
C1256 C1255 1.369 . S
C1256 C1257 1.408 1_655 S
C1256 H1278 0.930 . S
C1257 C1252 1.348 . S
C1257 C1256 1.408 1_455 S
C1257 H1279 0.930 . S
C1258 O1268 1.281 . S
C1258 O1269 1.254 1_545 S
C1259 O1270 1.236 . S
C1259 O1271 1.266 . S
O1260 Tb1240 2.484 . S
O1260 C1242 1.248 . S
O1261 Tb1240 2.440 . S
O1261 C1242 1.266 . S
O1262 Tb1240 2.658 . S
O1262 Tb1241 2.325 1_545 S
O1262 C1249 1.281 . S
O1263 Tb1240 2.409 . S
O1263 C1249 1.254 . S
O1264 Tb1240 2.378 1_565 S
O1264 C1250 1.236 . S
O1265 Tb1241 2.341 . S
O1265 C1250 1.266 . S
O1266 Tb1241 2.484 1_545 S
O1266 C1251 1.248 . S
O1267 Tb1241 2.440 . S
O1267 C1251 1.266 1_565 S
O1268 Tb1240 2.325 . S
O1268 Tb1241 2.658 1_545 S
O1268 C1258 1.281 . S
O1269 Tb1241 2.409 . S
O1269 C1258 1.254 1_565 S
O1270 Tb1241 2.378 1_545 S
O1270 C1259 1.236 . S
O1271 Tb1240 2.341 . S
O1271 C1259 1.266 . S
H1272 C1244 0.929 . S
H1273 C1245 0.931 . S
H1274 C1247 0.935 . S
H1275 C1248 0.930 . S
H1276 C1253 0.929 . S
H1277 C1254 0.931 . S
H1278 C1256 0.930 . S
H1279 C1257 0.930 . S
H1280 C1286 0.930 1_455 S
H1281 C1290 0.930 . S
H1282 C1295 0.929 . S
H1283 C1293 0.929 . S
H1284 C1288 0.929 . S
H1285 C1294 0.929 . S
C1286 H1280 0.930 1_655 S
C1286 C1287 1.367 . S
C1286 C1294 1.378 . S
C1287 C1286 1.367 . S
C1287 C1295 1.433 . S
C1288 H1284 0.929 . S
C1288 C1290 1.378 . S
C1288 C1292 1.350 . S
C1289 C1292 1.463 . S
C1289 C1294 1.350 . S
C1289 N1297 1.427 . S
C1290 H1281 0.930 . S
C1290 C1288 1.378 . S
C1290 C1291 1.367 . S
C1291 C1290 1.367 . S
C1291 C1293 1.433 . S
C1292 C1288 1.350 . S
C1292 C1289 1.463 . S
C1292 N1296 1.427 . S
C1293 H1283 0.929 . S
C1293 C1291 1.433 . S
C1293 N1296 1.384 . S
C1294 H1285 0.929 . S
C1294 C1286 1.378 . S
C1294 C1289 1.350 . S
C1295 H1282 0.929 . S
C1295 C1287 1.433 . S
C1295 N1297 1.384 . S
N1296 C1292 1.427 . S
N1296 C1293 1.384 . S
N1297 C1289 1.427 . S
N1297 C1295 1.384 . S
H1298 C1304 0.930 . S
H1299 C1308 0.930 . S
H1300 C1313 0.929 . S
H1301 C1311 0.929 . S
H1302 C1306 0.929 . S
H1303 C1312 0.929 . S
C1304 H1298 0.930 . S
C1304 C1305 1.367 . S
C1304 C1312 1.378 . S
C1305 C1304 1.367 . S
C1305 C1313 1.433 . S
C1306 H1302 0.929 . S
C1306 C1308 1.378 . S
C1306 C1310 1.350 . S
C1307 C1310 1.463 . S
C1307 C1312 1.350 . S
C1307 N1315 1.427 . S
C1308 H1299 0.930 . S
C1308 C1306 1.378 . S
C1308 C1309 1.367 . S
C1309 C1308 1.367 . S
C1309 C1311 1.433 . S
C1310 C1306 1.350 . S
C1310 C1307 1.463 . S
C1310 N1314 1.427 . S
C1311 H1301 0.929 . S
C1311 C1309 1.433 . S
C1311 N1314 1.384 . S
C1312 H1303 0.929 . S
C1312 C1304 1.378 . S
C1312 C1307 1.350 . S
C1313 H1300 0.929 . S
C1313 C1305 1.433 . S
C1313 N1315 1.384 . S
N1314 C1310 1.427 . S
N1314 C1311 1.384 . S
N1315 C1307 1.427 . S
N1315 C1313 1.384 . S
H1316 C1322 0.930 . S
H1317 C1326 0.930 . S
H1318 C1331 0.929 . S
H1319 C1329 0.929 . S
H1320 C1324 0.929 . S
H1321 C1330 0.929 . S
C1322 H1316 0.930 . S
C1322 C1323 1.367 . S
C1322 C1330 1.378 . S
C1323 C1322 1.367 . S
C1323 C1331 1.433 . S
C1324 H1320 0.929 . S
C1324 C1326 1.378 . S
C1324 C1328 1.350 . S
C1325 C1328 1.463 . S
C1325 C1330 1.350 . S
C1325 N1333 1.427 . S
C1326 H1317 0.930 . S
C1326 C1324 1.378 . S
C1326 C1327 1.367 . S
C1327 C1326 1.367 . S
C1327 C1329 1.433 . S
C1328 C1324 1.350 . S
C1328 C1325 1.463 . S
C1328 N1332 1.427 . S
C1329 H1319 0.929 . S
C1329 C1327 1.433 . S
C1329 N1332 1.384 . S
C1330 H1321 0.929 . S
C1330 C1322 1.378 . S
C1330 C1325 1.350 . S
C1331 H1318 0.929 . S
C1331 C1323 1.433 . S
C1331 N1333 1.384 . S
N1332 C1328 1.427 . S
N1332 C1329 1.384 . S
N1333 C1325 1.427 . S
N1333 C1331 1.384 . S
H1334 C1340 0.930 . S
H1335 C1344 0.930 . S
H1336 C1349 0.929 . S
H1337 C1347 0.929 . S
H1338 C1342 0.929 . S
H1339 C1348 0.929 . S
C1340 H1334 0.930 . S
C1340 C1341 1.367 . S
C1340 C1348 1.378 . S
C1341 C1340 1.367 . S
C1341 C1349 1.433 . S
C1342 H1338 0.929 . S
C1342 C1344 1.378 . S
C1342 C1346 1.350 . S
C1343 C1346 1.463 . S
C1343 C1348 1.350 . S
C1343 N1351 1.427 . S
C1344 H1335 0.930 . S
C1344 C1342 1.378 . S
C1344 C1345 1.367 . S
C1345 C1344 1.367 . S
C1345 C1347 1.433 . S
C1346 C1342 1.350 . S
C1346 C1343 1.463 . S
C1346 N1350 1.427 . S
C1347 H1337 0.929 . S
C1347 C1345 1.433 . S
C1347 N1350 1.384 . S
C1348 H1339 0.929 . S
C1348 C1340 1.378 . S
C1348 C1343 1.350 . S
C1349 H1336 0.929 . S
C1349 C1341 1.433 . S
C1349 N1351 1.384 . S
N1350 C1346 1.427 . S
N1350 C1347 1.384 . S
N1351 C1343 1.427 . S
N1351 C1349 1.384 . S
H1352 C1358 0.930 . S
H1353 C1362 0.930 . S
H1354 C1367 0.929 . S
H1355 C1365 0.929 . S
H1356 C1360 0.929 . S
H1357 C1366 0.929 . S
C1358 H1352 0.930 . S
C1358 C1359 1.367 . S
C1358 C1366 1.378 . S
C1359 C1358 1.367 . S
C1359 C1367 1.433 . S
C1360 H1356 0.929 . S
C1360 C1362 1.378 . S
C1360 C1364 1.350 . S
C1361 C1364 1.463 . S
C1361 C1366 1.350 . S
C1361 N1369 1.427 . S
C1362 H1353 0.930 . S
C1362 C1360 1.378 . S
C1362 C1363 1.367 . S
C1363 C1362 1.367 . S
C1363 C1365 1.433 . S
C1364 C1360 1.350 . S
C1364 C1361 1.463 . S
C1364 N1368 1.427 . S
C1365 H1355 0.929 . S
C1365 C1363 1.433 . S
C1365 N1368 1.384 . S
C1366 H1357 0.929 . S
C1366 C1358 1.378 . S
C1366 C1361 1.350 . S
C1367 H1354 0.929 . S
C1367 C1359 1.433 . S
C1367 N1369 1.384 . S
N1368 C1364 1.427 . S
N1368 C1365 1.384 . S
N1369 C1361 1.427 . S
N1369 C1367 1.384 . S
H1370 C1376 0.930 . S
H1371 C1380 0.930 . S
H1372 C1385 0.929 . S
H1373 C1383 0.929 . S
H1374 C1378 0.929 . S
H1375 C1384 0.929 . S
C1376 H1370 0.930 . S
C1376 C1377 1.367 . S
C1376 C1384 1.378 . S
C1377 C1376 1.367 . S
C1377 C1385 1.433 . S
C1378 H1374 0.929 . S
C1378 C1380 1.378 . S
C1378 C1382 1.350 . S
C1379 C1382 1.463 . S
C1379 C1384 1.350 . S
C1379 N1387 1.427 . S
C1380 H1371 0.930 . S
C1380 C1378 1.378 . S
C1380 C1381 1.367 . S
C1381 C1380 1.367 . S
C1381 C1383 1.433 . S
C1382 C1378 1.350 . S
C1382 C1379 1.463 . S
C1382 N1386 1.427 . S
C1383 H1373 0.929 . S
C1383 C1381 1.433 . S
C1383 N1386 1.384 . S
C1384 H1375 0.929 . S
C1384 C1376 1.378 . S
C1384 C1379 1.350 . S
C1385 H1372 0.929 . S
C1385 C1377 1.433 . S
C1385 N1387 1.384 . S
N1386 C1382 1.427 . S
N1386 C1383 1.384 . S
N1387 C1379 1.427 . S
N1387 C1385 1.384 . S
H1388 C1394 0.930 . S
H1389 C1398 0.930 . S
H1390 C1403 0.929 . S
H1391 C1401 0.929 . S
H1392 C1396 0.929 . S
H1393 C1402 0.929 . S
C1394 H1388 0.930 . S
C1394 C1395 1.367 . S
C1394 C1402 1.378 . S
C1395 C1394 1.367 . S
C1395 C1403 1.433 . S
C1396 H1392 0.929 . S
C1396 C1398 1.378 . S
C1396 C1400 1.350 . S
C1397 C1400 1.463 . S
C1397 C1402 1.350 . S
C1397 N1405 1.427 . S
C1398 H1389 0.930 . S
C1398 C1396 1.378 . S
C1398 C1399 1.367 . S
C1399 C1398 1.367 . S
C1399 C1401 1.433 . S
C1400 C1396 1.350 . S
C1400 C1397 1.463 . S
C1400 N1404 1.427 . S
C1401 H1391 0.929 . S
C1401 C1399 1.433 . S
C1401 N1404 1.384 . S
C1402 H1393 0.929 . S
C1402 C1394 1.378 . S
C1402 C1397 1.350 . S
C1403 H1390 0.929 . S
C1403 C1395 1.433 . S
C1403 N1405 1.384 . S
N1404 C1400 1.427 . S
N1404 C1401 1.384 . S
N1405 C1397 1.427 . S
N1405 C1403 1.384 . S
H1406 C1412 0.930 . S
H1407 C1416 0.930 . S
H1408 C1421 0.929 . S
H1409 C1419 0.929 . S
H1410 C1414 0.929 . S
H1411 C1420 0.929 . S
C1412 H1406 0.930 . S
C1412 C1413 1.367 . S
C1412 C1420 1.378 . S
C1413 C1412 1.367 . S
C1413 C1421 1.433 . S
C1414 H1410 0.929 . S
C1414 C1416 1.378 . S
C1414 C1418 1.350 . S
C1415 C1418 1.463 . S
C1415 C1420 1.350 . S
C1415 N1423 1.427 . S
C1416 H1407 0.930 . S
C1416 C1414 1.378 . S
C1416 C1417 1.367 . S
C1417 C1416 1.367 . S
C1417 C1419 1.433 . S
C1418 C1414 1.350 . S
C1418 C1415 1.463 . S
C1418 N1422 1.427 . S
C1419 H1409 0.929 . S
C1419 C1417 1.433 . S
C1419 N1422 1.384 . S
C1420 H1411 0.929 . S
C1420 C1412 1.378 . S
C1420 C1415 1.350 . S
C1421 H1408 0.929 . S
C1421 C1413 1.433 . S
C1421 N1423 1.384 . S
N1422 C1418 1.427 . S
N1422 C1419 1.384 . S
N1423 C1415 1.427 . S
N1423 C1421 1.384 . S
H1424 C1430 0.930 . S
H1425 C1434 0.930 . S
H1426 C1439 0.929 1_455 S
H1427 C1437 0.929 . S
H1428 C1432 0.929 . S
H1429 C1438 0.929 . S
C1430 H1424 0.930 . S
C1430 C1431 1.367 . S
C1430 C1438 1.378 . S
C1431 C1430 1.367 . S
C1431 C1439 1.433 . S
C1432 H1428 0.929 . S
C1432 C1434 1.378 . S
C1432 C1436 1.350 . S
C1433 C1436 1.463 . S
C1433 C1438 1.350 . S
C1433 N1441 1.427 . S
C1434 H1425 0.930 . S
C1434 C1432 1.378 . S
C1434 C1435 1.367 . S
C1435 C1434 1.367 . S
C1435 C1437 1.433 . S
C1436 C1432 1.350 . S
C1436 C1433 1.463 . S
C1436 N1440 1.427 . S
C1437 H1427 0.929 . S
C1437 C1435 1.433 . S
C1437 N1440 1.384 . S
C1438 H1429 0.929 . S
C1438 C1430 1.378 . S
C1438 C1433 1.350 . S
C1439 H1426 0.929 1_655 S
C1439 C1431 1.433 . S
C1439 N1441 1.384 . S
N1440 C1436 1.427 . S
N1440 C1437 1.384 . S
N1441 C1433 1.427 . S
N1441 C1439 1.384 . S
H1442 C1448 0.930 . S
H1443 C1452 0.930 . S
H1444 C1457 0.929 . S
H1445 C1455 0.929 . S
H1446 C1450 0.929 . S
H1447 C1456 0.929 . S
C1448 H1442 0.930 . S
C1448 C1449 1.367 . S
C1448 C1456 1.378 . S
C1449 C1448 1.367 . S
C1449 C1457 1.433 . S
C1450 H1446 0.929 . S
C1450 C1452 1.378 . S
C1450 C1454 1.350 . S
C1451 C1454 1.463 . S
C1451 C1456 1.350 . S
C1451 N1459 1.427 . S
C1452 H1443 0.930 . S
C1452 C1450 1.378 . S
C1452 C1453 1.367 . S
C1453 C1452 1.367 . S
C1453 C1455 1.433 . S
C1454 C1450 1.350 . S
C1454 C1451 1.463 . S
C1454 N1458 1.427 . S
C1455 H1445 0.929 . S
C1455 C1453 1.433 . S
C1455 N1458 1.384 . S
C1456 H1447 0.929 . S
C1456 C1448 1.378 . S
C1456 C1451 1.350 . S
C1457 H1444 0.929 . S
C1457 C1449 1.433 . S
C1457 N1459 1.384 . S
N1458 C1454 1.427 . S
N1458 C1455 1.384 . S
N1459 C1451 1.427 . S
N1459 C1457 1.384 . S
H1460 C1466 0.930 . S
H1461 C1470 0.930 . S
H1462 C1475 0.929 . S
H1463 C1473 0.929 . S
H1464 C1468 0.929 . S
H1465 C1474 0.929 . S
C1466 H1460 0.930 . S
C1466 C1467 1.367 . S
C1466 C1474 1.378 . S
C1467 C1466 1.367 . S
C1467 C1475 1.433 . S
C1468 H1464 0.929 . S
C1468 C1470 1.378 . S
C1468 C1472 1.350 . S
C1469 C1472 1.463 . S
C1469 C1474 1.350 . S
C1469 N1477 1.427 . S
C1470 H1461 0.930 . S
C1470 C1468 1.378 . S
C1470 C1471 1.367 . S
C1471 C1470 1.367 . S
C1471 C1473 1.433 . S
C1472 C1468 1.350 . S
C1472 C1469 1.463 . S
C1472 N1476 1.427 . S
C1473 H1463 0.929 . S
C1473 C1471 1.433 . S
C1473 N1476 1.384 . S
C1474 H1465 0.929 . S
C1474 C1466 1.378 . S
C1474 C1469 1.350 . S
C1475 H1462 0.929 . S
C1475 C1467 1.433 . S
C1475 N1477 1.384 . S
N1476 C1472 1.427 . S
N1476 C1473 1.384 . S
N1477 C1469 1.427 . S
N1477 C1475 1.384 . S
H1478 C1484 0.930 . S
H1479 C1488 0.930 . S
H1480 C1493 0.929 . S
H1481 C1491 0.929 . S
H1482 C1486 0.929 . S
H1483 C1492 0.929 . S
C1484 H1478 0.930 . S
C1484 C1485 1.367 . S
C1484 C1492 1.378 . S
C1485 C1484 1.367 . S
C1485 C1493 1.433 . S
C1486 H1482 0.929 . S
C1486 C1488 1.378 . S
C1486 C1490 1.350 . S
C1487 C1490 1.463 . S
C1487 C1492 1.350 . S
C1487 N1495 1.427 . S
C1488 H1479 0.930 . S
C1488 C1486 1.378 . S
C1488 C1489 1.367 . S
C1489 C1488 1.367 . S
C1489 C1491 1.433 . S
C1490 C1486 1.350 . S
C1490 C1487 1.463 . S
C1490 N1494 1.427 . S
C1491 H1481 0.929 . S
C1491 C1489 1.433 . S
C1491 N1494 1.384 . S
C1492 H1483 0.929 . S
C1492 C1484 1.378 . S
C1492 C1487 1.350 . S
C1493 H1480 0.929 . S
C1493 C1485 1.433 . S
C1493 N1495 1.384 . S
N1494 C1490 1.427 . S
N1494 C1491 1.384 . S
N1495 C1487 1.427 . S
N1495 C1493 1.384 . S
H1496 C1502 0.930 . S
H1497 C1506 0.930 . S
H1498 C1511 0.929 . S
H1499 C1509 0.929 . S
H1500 C1504 0.929 . S
H1501 C1510 0.929 . S
C1502 H1496 0.930 . S
C1502 C1503 1.367 . S
C1502 C1510 1.378 . S
C1503 C1502 1.367 . S
C1503 C1511 1.433 . S
C1504 H1500 0.929 . S
C1504 C1506 1.378 . S
C1504 C1508 1.350 . S
C1505 C1508 1.463 . S
C1505 C1510 1.350 . S
C1505 N1513 1.427 . S
C1506 H1497 0.930 . S
C1506 C1504 1.378 . S
C1506 C1507 1.367 . S
C1507 C1506 1.367 . S
C1507 C1509 1.433 . S
C1508 C1504 1.350 . S
C1508 C1505 1.463 . S
C1508 N1512 1.427 . S
C1509 H1499 0.929 . S
C1509 C1507 1.433 . S
C1509 N1512 1.384 . S
C1510 H1501 0.929 . S
C1510 C1502 1.378 . S
C1510 C1505 1.350 . S
C1511 H1498 0.929 . S
C1511 C1503 1.433 . S
C1511 N1513 1.384 . S
N1512 C1508 1.427 . S
N1512 C1509 1.384 . S
N1513 C1505 1.427 . S
N1513 C1511 1.384 . S
H1514 C1520 0.930 . S
H1515 C1524 0.930 . S
H1516 C1529 0.929 . S
H1517 C1527 0.929 . S
H1518 C1522 0.929 . S
H1519 C1528 0.929 . S
C1520 H1514 0.930 . S
C1520 C1521 1.367 . S
C1520 C1528 1.378 . S
C1521 C1520 1.367 . S
C1521 C1529 1.433 . S
C1522 H1518 0.929 . S
C1522 C1524 1.378 . S
C1522 C1526 1.350 . S
C1523 C1526 1.463 . S
C1523 C1528 1.350 . S
C1523 N1531 1.427 . S
C1524 H1515 0.930 . S
C1524 C1522 1.378 . S
C1524 C1525 1.367 . S
C1525 C1524 1.367 . S
C1525 C1527 1.433 . S
C1526 C1522 1.350 . S
C1526 C1523 1.463 . S
C1526 N1530 1.427 . S
C1527 H1517 0.929 . S
C1527 C1525 1.433 . S
C1527 N1530 1.384 . S
C1528 H1519 0.929 . S
C1528 C1520 1.378 . S
C1528 C1523 1.350 . S
C1529 H1516 0.929 . S
C1529 C1521 1.433 . S
C1529 N1531 1.384 . S
N1530 C1526 1.427 . S
N1530 C1527 1.384 . S
N1531 C1523 1.427 . S
N1531 C1529 1.384 . S
H1532 C1538 0.930 . S
H1533 C1542 0.930 . S
H1534 C1547 0.929 . S
H1535 C1545 0.929 . S
H1536 C1540 0.929 . S
H1537 C1546 0.929 . S
C1538 H1532 0.930 . S
C1538 C1539 1.367 . S
C1538 C1546 1.378 . S
C1539 C1538 1.367 . S
C1539 C1547 1.433 . S
C1540 H1536 0.929 . S
C1540 C1542 1.378 . S
C1540 C1544 1.350 . S
C1541 C1544 1.463 . S
C1541 C1546 1.350 . S
C1541 N1549 1.427 . S
C1542 H1533 0.930 . S
C1542 C1540 1.378 . S
C1542 C1543 1.367 . S
C1543 C1542 1.367 . S
C1543 C1545 1.433 . S
C1544 C1540 1.350 . S
C1544 C1541 1.463 . S
C1544 N1548 1.427 . S
C1545 H1535 0.929 . S
C1545 C1543 1.433 . S
C1545 N1548 1.384 . S
C1546 H1537 0.929 . S
C1546 C1538 1.378 . S
C1546 C1541 1.350 . S
C1547 H1534 0.929 . S
C1547 C1539 1.433 . S
C1547 N1549 1.384 . S
N1548 C1544 1.427 . S
N1548 C1545 1.384 . S
N1549 C1541 1.427 . S
N1549 C1547 1.384 . S
H1550 C1556 0.930 . S
H1551 C1560 0.930 . S
H1552 C1565 0.929 . S
H1553 C1563 0.929 . S
H1554 C1558 0.929 . S
H1555 C1564 0.929 . S
C1556 H1550 0.930 . S
C1556 C1557 1.367 . S
C1556 C1564 1.378 . S
C1557 C1556 1.367 . S
C1557 C1565 1.433 . S
C1558 H1554 0.929 . S
C1558 C1560 1.378 . S
C1558 C1562 1.350 . S
C1559 C1562 1.463 . S
C1559 C1564 1.350 . S
C1559 N1567 1.427 . S
C1560 H1551 0.930 . S
C1560 C1558 1.378 . S
C1560 C1561 1.367 . S
C1561 C1560 1.367 . S
C1561 C1563 1.433 . S
C1562 C1558 1.350 . S
C1562 C1559 1.463 . S
C1562 N1566 1.427 . S
C1563 H1553 0.929 . S
C1563 C1561 1.433 . S
C1563 N1566 1.384 . S
C1564 H1555 0.929 . S
C1564 C1556 1.378 . S
C1564 C1559 1.350 . S
C1565 H1552 0.929 . S
C1565 C1557 1.433 . S
C1565 N1567 1.384 . S
N1566 C1562 1.427 . S
N1566 C1563 1.384 . S
N1567 C1559 1.427 . S
N1567 C1565 1.384 . S
H1568 C1574 0.930 . S
H1569 C1578 0.930 . S
H1570 C1583 0.929 . S
H1571 C1581 0.929 . S
H1572 C1576 0.929 . S
H1573 C1582 0.929 . S
C1574 H1568 0.930 . S
C1574 C1575 1.367 . S
C1574 C1582 1.378 . S
C1575 C1574 1.367 . S
C1575 C1583 1.433 . S
C1576 H1572 0.929 . S
C1576 C1578 1.378 . S
C1576 C1580 1.350 . S
C1577 C1580 1.463 . S
C1577 C1582 1.350 . S
C1577 N1585 1.427 . S
C1578 H1569 0.930 . S
C1578 C1576 1.378 . S
C1578 C1579 1.367 . S
C1579 C1578 1.367 . S
C1579 C1581 1.433 . S
C1580 C1576 1.350 . S
C1580 C1577 1.463 . S
C1580 N1584 1.427 . S
C1581 H1571 0.929 . S
C1581 C1579 1.433 . S
C1581 N1584 1.384 . S
C1582 H1573 0.929 . S
C1582 C1574 1.378 . S
C1582 C1577 1.350 . S
C1583 H1570 0.929 . S
C1583 C1575 1.433 . S
C1583 N1585 1.384 . S
N1584 C1580 1.427 . S
N1584 C1581 1.384 . S
N1585 C1577 1.427 . S
N1585 C1583 1.384 . S
H1586 C1592 0.930 . S
H1587 C1596 0.930 . S
H1588 C1601 0.929 . S
H1589 C1599 0.929 . S
H1590 C1594 0.929 . S
H1591 C1600 0.929 . S
C1592 H1586 0.930 . S
C1592 C1593 1.367 . S
C1592 C1600 1.378 . S
C1593 C1592 1.367 . S
C1593 C1601 1.433 . S
C1594 H1590 0.929 . S
C1594 C1596 1.378 . S
C1594 C1598 1.350 . S
C1595 C1598 1.463 . S
C1595 C1600 1.350 . S
C1595 N1603 1.427 . S
C1596 H1587 0.930 . S
C1596 C1594 1.378 . S
C1596 C1597 1.367 . S
C1597 C1596 1.367 . S
C1597 C1599 1.433 . S
C1598 C1594 1.350 . S
C1598 C1595 1.463 . S
C1598 N1602 1.427 . S
C1599 H1589 0.929 . S
C1599 C1597 1.433 . S
C1599 N1602 1.384 . S
C1600 H1591 0.929 . S
C1600 C1592 1.378 . S
C1600 C1595 1.350 . S
C1601 H1588 0.929 . S
C1601 C1593 1.433 . S
C1601 N1603 1.384 . S
N1602 C1598 1.427 . S
N1602 C1599 1.384 . S
N1603 C1595 1.427 . S
N1603 C1601 1.384 . S
H1604 C1610 0.930 . S
H1605 C1614 0.930 . S
H1606 C1619 0.929 . S
H1607 C1617 0.929 . S
H1608 C1612 0.929 . S
H1609 C1618 0.929 . S
C1610 H1604 0.930 . S
C1610 C1611 1.367 . S
C1610 C1618 1.378 . S
C1611 C1610 1.367 . S
C1611 C1619 1.433 . S
C1612 H1608 0.929 . S
C1612 C1614 1.378 . S
C1612 C1616 1.350 . S
C1613 C1616 1.463 . S
C1613 C1618 1.350 . S
C1613 N1621 1.427 . S
C1614 H1605 0.930 . S
C1614 C1612 1.378 . S
C1614 C1615 1.367 . S
C1615 C1614 1.367 . S
C1615 C1617 1.433 . S
C1616 C1612 1.350 . S
C1616 C1613 1.463 . S
C1616 N1620 1.427 . S
C1617 H1607 0.929 . S
C1617 C1615 1.433 . S
C1617 N1620 1.384 . S
C1618 H1609 0.929 . S
C1618 C1610 1.378 . S
C1618 C1613 1.350 . S
C1619 H1606 0.929 . S
C1619 C1611 1.433 . S
C1619 N1621 1.384 . S
N1620 C1616 1.427 . S
N1620 C1617 1.384 . S
N1621 C1613 1.427 . S
N1621 C1619 1.384 . S
H1622 C1628 0.930 . S
H1623 C1632 0.930 . S
H1624 C1637 0.929 . S
H1625 C1635 0.929 . S
H1626 C1630 0.929 . S
H1627 C1636 0.929 . S
C1628 H1622 0.930 . S
C1628 C1629 1.367 . S
C1628 C1636 1.378 . S
C1629 C1628 1.367 . S
C1629 C1637 1.433 . S
C1630 H1626 0.929 . S
C1630 C1632 1.378 . S
C1630 C1634 1.350 . S
C1631 C1634 1.463 . S
C1631 C1636 1.350 . S
C1631 N1639 1.427 . S
C1632 H1623 0.930 . S
C1632 C1630 1.378 . S
C1632 C1633 1.367 . S
C1633 C1632 1.367 . S
C1633 C1635 1.433 . S
C1634 C1630 1.350 . S
C1634 C1631 1.463 . S
C1634 N1638 1.427 . S
C1635 H1625 0.929 . S
C1635 C1633 1.433 . S
C1635 N1638 1.384 . S
C1636 H1627 0.929 . S
C1636 C1628 1.378 . S
C1636 C1631 1.350 . S
C1637 H1624 0.929 . S
C1637 C1629 1.433 . S
C1637 N1639 1.384 . S
N1638 C1634 1.427 . S
N1638 C1635 1.384 . S
N1639 C1631 1.427 . S
N1639 C1637 1.384 . S
H1640 C1646 0.930 . S
H1641 C1650 0.930 1_545 S
H1642 C1655 0.929 1_545 S
H1643 C1653 0.929 . S
H1644 C1648 0.929 1_545 S
H1645 C1654 0.929 . S
C1646 H1640 0.930 . S
C1646 C1647 1.367 . S
C1646 C1654 1.378 . S
C1647 C1646 1.367 . S
C1647 C1655 1.433 . S
C1648 H1644 0.929 1_565 S
C1648 C1650 1.378 . S
C1648 C1652 1.350 . S
C1649 C1652 1.463 . S
C1649 C1654 1.350 . S
C1649 N1657 1.427 . S
C1650 H1641 0.930 1_565 S
C1650 C1648 1.378 . S
C1650 C1651 1.367 . S
C1651 C1650 1.367 . S
C1651 C1653 1.433 . S
C1652 C1648 1.350 . S
C1652 C1649 1.463 . S
C1652 N1656 1.427 . S
C1653 H1643 0.929 . S
C1653 C1651 1.433 . S
C1653 N1656 1.384 . S
C1654 H1645 0.929 . S
C1654 C1646 1.378 . S
C1654 C1649 1.350 . S
C1655 H1642 0.929 1_565 S
C1655 C1647 1.433 . S
C1655 N1657 1.384 . S
N1656 C1652 1.427 . S
N1656 C1653 1.384 . S
N1657 C1649 1.427 . S
N1657 C1655 1.384 . S
H1658 C1664 0.930 . S
H1659 C1668 0.930 . S
H1660 C1673 0.929 . S
H1661 C1671 0.929 . S
H1662 C1666 0.929 . S
H1663 C1672 0.929 . S
C1664 H1658 0.930 . S
C1664 C1665 1.367 . S
C1664 C1672 1.378 . S
C1665 C1664 1.367 . S
C1665 C1673 1.433 . S
C1666 H1662 0.929 . S
C1666 C1668 1.378 . S
C1666 C1670 1.350 . S
C1667 C1670 1.463 . S
C1667 C1672 1.350 . S
C1667 N1675 1.427 . S
C1668 H1659 0.930 . S
C1668 C1666 1.378 . S
C1668 C1669 1.367 . S
C1669 C1668 1.367 . S
C1669 C1671 1.433 . S
C1670 C1666 1.350 . S
C1670 C1667 1.463 . S
C1670 N1674 1.427 . S
C1671 H1661 0.929 . S
C1671 C1669 1.433 . S
C1671 N1674 1.384 . S
C1672 H1663 0.929 . S
C1672 C1664 1.378 . S
C1672 C1667 1.350 . S
C1673 H1660 0.929 . S
C1673 C1665 1.433 . S
C1673 N1675 1.384 . S
N1674 C1670 1.427 . S
N1674 C1671 1.384 . S
N1675 C1667 1.427 . S
N1675 C1673 1.384 . S
H1676 C1682 0.932 . S
H1677 C1686 0.930 . S
H1678 C1691 0.929 . S
H1679 C1689 0.929 . S
H1680 C1684 0.929 . S
H1681 C1690 0.930 . S
C1682 H1676 0.932 . S
C1682 C1683 1.367 . S
C1682 C1690 1.378 . S
C1683 C1682 1.367 . S
C1683 C1691 1.433 . S
C1684 H1680 0.929 . S
C1684 C1686 1.378 . S
C1684 C1688 1.350 . S
C1685 C1688 1.463 . S
C1685 C1690 1.350 . S
C1685 N1693 1.427 . S
C1686 H1677 0.930 . S
C1686 C1684 1.378 . S
C1686 C1687 1.367 . S
C1687 C1686 1.367 . S
C1687 C1689 1.433 . S
C1688 C1684 1.350 . S
C1688 C1685 1.463 . S
C1688 N1692 1.427 . S
C1689 H1679 0.929 . S
C1689 C1687 1.433 . S
C1689 N1692 1.384 . S
C1690 H1681 0.930 . S
C1690 C1682 1.378 . S
C1690 C1685 1.350 . S
C1691 H1678 0.929 . S
C1691 C1683 1.433 . S
C1691 N1693 1.384 . S
N1692 C1688 1.427 . S
N1692 C1689 1.384 . S
N1693 C1685 1.427 . S
N1693 C1691 1.384 . S
H1694 C1700 0.930 . S
H1695 C1704 0.930 . S
H1696 C1709 0.929 . S
H1697 C1707 0.929 . S
H1698 C1702 0.929 . S
H1699 C1708 0.929 . S
C1700 H1694 0.930 . S
C1700 C1701 1.367 . S
C1700 C1708 1.378 . S
C1701 C1700 1.367 . S
C1701 C1709 1.433 . S
C1702 H1698 0.929 . S
C1702 C1704 1.378 . S
C1702 C1706 1.350 . S
C1703 C1706 1.463 . S
C1703 C1708 1.350 . S
C1703 N1711 1.427 . S
C1704 H1695 0.930 . S
C1704 C1702 1.378 . S
C1704 C1705 1.367 . S
C1705 C1704 1.367 . S
C1705 C1707 1.433 . S
C1706 C1702 1.350 . S
C1706 C1703 1.463 . S
C1706 N1710 1.427 . S
C1707 H1697 0.929 . S
C1707 C1705 1.433 . S
C1707 N1710 1.384 . S
C1708 H1699 0.929 . S
C1708 C1700 1.378 . S
C1708 C1703 1.350 . S
C1709 H1696 0.929 . S
C1709 C1701 1.433 . S
C1709 N1711 1.384 . S
N1710 C1706 1.427 . S
N1710 C1707 1.384 . S
N1711 C1703 1.427 . S
N1711 C1709 1.384 . S
H1712 C1718 0.930 . S
H1713 C1722 0.930 . S
H1714 C1727 0.929 . S
H1715 C1725 0.929 . S
H1716 C1720 0.929 . S
H1717 C1726 0.929 . S
C1718 H1712 0.930 . S
C1718 C1719 1.367 . S
C1718 C1726 1.378 . S
C1719 C1718 1.367 . S
C1719 C1727 1.433 . S
C1720 H1716 0.929 . S
C1720 C1722 1.378 . S
C1720 C1724 1.350 . S
C1721 C1724 1.463 . S
C1721 C1726 1.350 . S
C1721 N1729 1.427 . S
C1722 H1713 0.930 . S
C1722 C1720 1.378 . S
C1722 C1723 1.367 . S
C1723 C1722 1.367 . S
C1723 C1725 1.433 . S
C1724 C1720 1.350 . S
C1724 C1721 1.463 . S
C1724 N1728 1.427 . S
C1725 H1715 0.929 . S
C1725 C1723 1.433 . S
C1725 N1728 1.384 . S
C1726 H1717 0.929 . S
C1726 C1718 1.378 . S
C1726 C1721 1.350 . S
C1727 H1714 0.929 . S
C1727 C1719 1.433 . S
C1727 N1729 1.384 . S
N1728 C1724 1.427 . S
N1728 C1725 1.384 . S
N1729 C1721 1.427 . S
N1729 C1727 1.384 . S
H1730 C1736 0.930 . S
H1731 C1740 0.930 . S
H1732 C1745 0.929 . S
H1733 C1743 0.929 . S
H1734 C1738 0.929 . S
H1735 C1744 0.929 . S
C1736 H1730 0.930 . S
C1736 C1737 1.367 . S
C1736 C1744 1.378 . S
C1737 C1736 1.367 . S
C1737 C1745 1.433 . S
C1738 H1734 0.929 . S
C1738 C1740 1.378 . S
C1738 C1742 1.350 . S
C1739 C1742 1.463 . S
C1739 C1744 1.350 . S
C1739 N1747 1.427 . S
C1740 H1731 0.930 . S
C1740 C1738 1.378 . S
C1740 C1741 1.367 . S
C1741 C1740 1.367 . S
C1741 C1743 1.433 . S
C1742 C1738 1.350 . S
C1742 C1739 1.463 . S
C1742 N1746 1.427 . S
C1743 H1733 0.929 . S
C1743 C1741 1.433 . S
C1743 N1746 1.384 . S
C1744 H1735 0.929 . S
C1744 C1736 1.378 . S
C1744 C1739 1.350 . S
C1745 H1732 0.929 . S
C1745 C1737 1.433 . S
C1745 N1747 1.384 . S
N1746 C1742 1.427 . S
N1746 C1743 1.384 . S
N1747 C1739 1.427 . S
N1747 C1745 1.384 . S
H1748 C1754 0.930 . S
H1749 C1758 0.930 . S
H1750 C1763 0.929 . S
H1751 C1761 0.929 . S
H1752 C1756 0.929 . S
H1753 C1762 0.929 . S
C1754 H1748 0.930 . S
C1754 C1755 1.367 . S
C1754 C1762 1.378 . S
C1755 C1754 1.367 . S
C1755 C1763 1.433 . S
C1756 H1752 0.929 . S
C1756 C1758 1.378 . S
C1756 C1760 1.350 . S
C1757 C1760 1.463 . S
C1757 C1762 1.350 . S
C1757 N1765 1.427 . S
C1758 H1749 0.930 . S
C1758 C1756 1.378 . S
C1758 C1759 1.367 . S
C1759 C1758 1.367 . S
C1759 C1761 1.433 . S
C1760 C1756 1.350 . S
C1760 C1757 1.463 . S
C1760 N1764 1.427 . S
C1761 H1751 0.929 . S
C1761 C1759 1.433 . S
C1761 N1764 1.384 . S
C1762 H1753 0.929 . S
C1762 C1754 1.378 . S
C1762 C1757 1.350 . S
C1763 H1750 0.929 . S
C1763 C1755 1.433 . S
C1763 N1765 1.384 . S
N1764 C1760 1.427 . S
N1764 C1761 1.384 . S
N1765 C1757 1.427 . S
N1765 C1763 1.384 . S
H1766 C1772 0.930 . S
H1767 C1776 0.930 . S
H1768 C1781 0.929 . S
H1769 C1779 0.929 . S
H1770 C1774 0.929 . S
H1771 C1780 0.929 . S
C1772 H1766 0.930 . S
C1772 C1773 1.367 . S
C1772 C1780 1.378 . S
C1773 C1772 1.367 . S
C1773 C1781 1.433 . S
C1774 H1770 0.929 . S
C1774 C1776 1.378 . S
C1774 C1778 1.350 . S
C1775 C1778 1.463 . S
C1775 C1780 1.350 . S
C1775 N1783 1.427 . S
C1776 H1767 0.930 . S
C1776 C1774 1.378 . S
C1776 C1777 1.367 . S
C1777 C1776 1.367 . S
C1777 C1779 1.433 . S
C1778 C1774 1.350 . S
C1778 C1775 1.463 . S
C1778 N1782 1.427 . S
C1779 H1769 0.929 . S
C1779 C1777 1.433 . S
C1779 N1782 1.384 . S
C1780 H1771 0.929 . S
C1780 C1772 1.378 . S
C1780 C1775 1.350 . S
C1781 H1768 0.929 . S
C1781 C1773 1.433 . S
C1781 N1783 1.384 . S
N1782 C1778 1.427 . S
N1782 C1779 1.384 . S
N1783 C1775 1.427 . S
N1783 C1781 1.384 . S
H1784 C1790 0.930 . S
H1785 C1794 0.930 . S
H1786 C1799 0.929 . S
H1787 C1797 0.929 . S
H1788 C1792 0.929 . S
H1789 C1798 0.929 . S
C1790 H1784 0.930 . S
C1790 C1791 1.367 1_545 S
C1790 C1798 1.378 . S
C1791 C1790 1.367 1_565 S
C1791 C1799 1.433 . S
C1792 H1788 0.929 . S
C1792 C1794 1.378 . S
C1792 C1796 1.350 . S
C1793 C1796 1.463 . S
C1793 C1798 1.350 1_565 S
C1793 N1801 1.427 . S
C1794 H1785 0.930 . S
C1794 C1792 1.378 . S
C1794 C1795 1.367 . S
C1795 C1794 1.367 . S
C1795 C1797 1.433 1_565 S
C1796 C1792 1.350 . S
C1796 C1793 1.463 . S
C1796 N1800 1.427 1_565 S
C1797 H1787 0.929 . S
C1797 C1795 1.433 1_545 S
C1797 N1800 1.384 . S
C1798 H1789 0.929 . S
C1798 C1790 1.378 . S
C1798 C1793 1.350 1_545 S
C1799 H1786 0.929 . S
C1799 C1791 1.433 . S
C1799 N1801 1.384 . S
N1800 C1796 1.427 1_545 S
N1800 C1797 1.384 . S
N1801 C1793 1.427 . S
N1801 C1799 1.384 . S
H1802 C1808 0.930 . S
H1803 C1812 0.930 . S
H1804 C1817 0.929 . S
H1805 C1815 0.929 . S
H1806 C1810 0.929 . S
H1807 C1816 0.929 . S
C1808 H1802 0.930 . S
C1808 C1809 1.367 . S
C1808 C1816 1.378 . S
C1809 C1808 1.367 . S
C1809 C1817 1.433 . S
C1810 H1806 0.929 . S
C1810 C1812 1.378 . S
C1810 C1814 1.350 . S
C1811 C1814 1.463 . S
C1811 C1816 1.350 . S
C1811 N1819 1.427 . S
C1812 H1803 0.930 . S
C1812 C1810 1.378 . S
C1812 C1813 1.367 . S
C1813 C1812 1.367 . S
C1813 C1815 1.433 . S
C1814 C1810 1.350 . S
C1814 C1811 1.463 . S
C1814 N1818 1.427 . S
C1815 H1805 0.929 . S
C1815 C1813 1.433 . S
C1815 N1818 1.384 . S
C1816 H1807 0.929 . S
C1816 C1808 1.378 . S
C1816 C1811 1.350 . S
C1817 H1804 0.929 . S
C1817 C1809 1.433 . S
C1817 N1819 1.384 . S
N1818 C1814 1.427 . S
N1818 C1815 1.384 . S
N1819 C1811 1.427 . S
N1819 C1817 1.384 . S
H1820 C1826 0.936 . S
H1821 C1830 0.930 . S
H1822 C1835 0.929 . S
H1823 C1833 0.934 . S
H1824 C1828 0.929 . S
H1825 C1834 0.935 . S
C1826 H1820 0.936 . S
C1826 C1827 1.367 . S
C1826 C1834 1.378 . S
C1827 C1826 1.367 . S
C1827 C1835 1.433 . S
C1828 H1824 0.929 . S
C1828 C1830 1.378 . S
C1828 C1832 1.350 . S
C1829 C1832 1.463 . S
C1829 C1834 1.350 . S
C1829 N1837 1.427 . S
C1830 H1821 0.930 . S
C1830 C1828 1.378 . S
C1830 C1831 1.367 . S
C1831 C1830 1.367 . S
C1831 C1833 1.433 . S
C1832 C1828 1.350 . S
C1832 C1829 1.463 . S
C1832 N1836 1.427 . S
C1833 H1823 0.934 . S
C1833 C1831 1.433 . S
C1833 N1836 1.384 . S
C1834 H1825 0.935 . S
C1834 C1826 1.378 . S
C1834 C1829 1.350 . S
C1835 H1822 0.929 . S
C1835 C1827 1.433 . S
C1835 N1837 1.384 . S
N1836 C1832 1.427 . S
N1836 C1833 1.384 . S
N1837 C1829 1.427 . S
N1837 C1835 1.384 . S
H1838 C1844 0.930 . S
H1839 C1848 0.930 . S
H1840 C1853 0.929 . S
H1841 C1851 0.929 . S
H1842 C1846 0.929 . S
H1843 C1852 0.929 . S
C1844 H1838 0.930 . S
C1844 C1845 1.367 . S
C1844 C1852 1.378 . S
C1845 C1844 1.367 . S
C1845 C1853 1.433 . S
C1846 H1842 0.929 . S
C1846 C1848 1.378 . S
C1846 C1850 1.350 . S
C1847 C1850 1.463 . S
C1847 C1852 1.350 . S
C1847 N1855 1.427 . S
C1848 H1839 0.930 . S
C1848 C1846 1.378 . S
C1848 C1849 1.367 . S
C1849 C1848 1.367 . S
C1849 C1851 1.433 . S
C1850 C1846 1.350 . S
C1850 C1847 1.463 . S
C1850 N1854 1.427 . S
C1851 H1841 0.929 . S
C1851 C1849 1.433 . S
C1851 N1854 1.384 . S
C1852 H1843 0.929 . S
C1852 C1844 1.378 . S
C1852 C1847 1.350 . S
C1853 H1840 0.929 . S
C1853 C1845 1.433 . S
C1853 N1855 1.384 . S
N1854 C1850 1.427 . S
N1854 C1851 1.384 . S
N1855 C1847 1.427 . S
N1855 C1853 1.384 . S
H1856 C1862 0.930 . S
H1857 C1866 0.930 . S
H1858 C1871 0.929 . S
H1859 C1869 0.929 . S
H1860 C1864 0.929 . S
H1861 C1870 0.929 . S
C1862 H1856 0.930 . S
C1862 C1863 1.367 . S
C1862 C1870 1.378 . S
C1863 C1862 1.367 . S
C1863 C1871 1.433 . S
C1864 H1860 0.929 . S
C1864 C1866 1.378 . S
C1864 C1868 1.350 . S
C1865 C1868 1.463 . S
C1865 C1870 1.350 . S
C1865 N1873 1.427 . S
C1866 H1857 0.930 . S
C1866 C1864 1.378 . S
C1866 C1867 1.367 . S
C1867 C1866 1.367 . S
C1867 C1869 1.433 . S
C1868 C1864 1.350 . S
C1868 C1865 1.463 . S
C1868 N1872 1.427 . S
C1869 H1859 0.929 . S
C1869 C1867 1.433 . S
C1869 N1872 1.384 . S
C1870 H1861 0.929 . S
C1870 C1862 1.378 . S
C1870 C1865 1.350 . S
C1871 H1858 0.929 . S
C1871 C1863 1.433 . S
C1871 N1873 1.384 . S
N1872 C1868 1.427 . S
N1872 C1869 1.384 . S
N1873 C1865 1.427 . S
N1873 C1871 1.384 . S
H1874 C1880 0.930 . S
H1875 C1884 0.930 . S
H1876 C1889 0.929 . S
H1877 C1887 0.929 . S
H1878 C1882 0.929 . S
H1879 C1888 0.929 . S
C1880 H1874 0.930 . S
C1880 C1881 1.367 . S
C1880 C1888 1.378 . S
C1881 C1880 1.367 . S
C1881 C1889 1.433 . S
C1882 H1878 0.929 . S
C1882 C1884 1.378 . S
C1882 C1886 1.350 . S
C1883 C1886 1.463 . S
C1883 C1888 1.350 . S
C1883 N1891 1.427 . S
C1884 H1875 0.930 . S
C1884 C1882 1.378 . S
C1884 C1885 1.367 . S
C1885 C1884 1.367 . S
C1885 C1887 1.433 . S
C1886 C1882 1.350 . S
C1886 C1883 1.463 . S
C1886 N1890 1.427 . S
C1887 H1877 0.929 . S
C1887 C1885 1.433 . S
C1887 N1890 1.384 . S
C1888 H1879 0.929 . S
C1888 C1880 1.378 . S
C1888 C1883 1.350 . S
C1889 H1876 0.929 . S
C1889 C1881 1.433 . S
C1889 N1891 1.384 . S
N1890 C1886 1.427 . S
N1890 C1887 1.384 . S
N1891 C1883 1.427 . S
N1891 C1889 1.384 . S
H1892 C1898 0.930 . S
H1893 C1902 0.930 . S
H1894 C1907 0.929 . S
H1895 C1905 0.929 . S
H1896 C1900 0.929 . S
H1897 C1906 0.929 . S
C1898 H1892 0.930 . S
C1898 C1899 1.367 . S
C1898 C1906 1.378 . S
C1899 C1898 1.367 . S
C1899 C1907 1.433 . S
C1900 H1896 0.929 . S
C1900 C1902 1.378 . S
C1900 C1904 1.350 . S
C1901 C1904 1.463 . S
C1901 C1906 1.350 . S
C1901 N1909 1.427 . S
C1902 H1893 0.930 . S
C1902 C1900 1.378 . S
C1902 C1903 1.367 . S
C1903 C1902 1.367 . S
C1903 C1905 1.433 . S
C1904 C1900 1.350 . S
C1904 C1901 1.463 . S
C1904 N1908 1.427 . S
C1905 H1895 0.929 . S
C1905 C1903 1.433 . S
C1905 N1908 1.384 . S
C1906 H1897 0.929 . S
C1906 C1898 1.378 . S
C1906 C1901 1.350 . S
C1907 H1894 0.929 . S
C1907 C1899 1.433 . S
C1907 N1909 1.384 . S
N1908 C1904 1.427 . S
N1908 C1905 1.384 . S
N1909 C1901 1.427 . S
N1909 C1907 1.384 . S
H1910 C1916 0.930 . S
H1911 C1920 0.930 . S
H1912 C1925 0.929 . S
H1913 C1923 0.929 . S
H1914 C1918 0.929 . S
H1915 C1924 0.929 . S
C1916 H1910 0.930 . S
C1916 C1917 1.367 . S
C1916 C1924 1.378 . S
C1917 C1916 1.367 . S
C1917 C1925 1.433 . S
C1918 H1914 0.929 . S
C1918 C1920 1.378 . S
C1918 C1922 1.350 . S
C1919 C1922 1.463 . S
C1919 C1924 1.350 . S
C1919 N1927 1.427 . S
C1920 H1911 0.930 . S
C1920 C1918 1.378 . S
C1920 C1921 1.367 . S
C1921 C1920 1.367 . S
C1921 C1923 1.433 . S
C1922 C1918 1.350 . S
C1922 C1919 1.463 . S
C1922 N1926 1.427 . S
C1923 H1913 0.929 . S
C1923 C1921 1.433 . S
C1923 N1926 1.384 . S
C1924 H1915 0.929 . S
C1924 C1916 1.378 . S
C1924 C1919 1.350 . S
C1925 H1912 0.929 . S
C1925 C1917 1.433 . S
C1925 N1927 1.384 . S
N1926 C1922 1.427 . S
N1926 C1923 1.384 . S
N1927 C1919 1.427 . S
N1927 C1925 1.384 . S
H1928 C1934 0.930 . S
H1929 C1938 0.930 . S
H1930 C1943 0.929 . S
H1931 C1941 0.929 . S
H1932 C1936 0.929 . S
H1933 C1942 0.929 . S
C1934 H1928 0.930 . S
C1934 C1935 1.367 . S
C1934 C1942 1.378 . S
C1935 C1934 1.367 . S
C1935 C1943 1.433 . S
C1936 H1932 0.929 . S
C1936 C1938 1.378 . S
C1936 C1940 1.350 . S
C1937 C1940 1.463 . S
C1937 C1942 1.350 . S
C1937 N1945 1.427 . S
C1938 H1929 0.930 . S
C1938 C1936 1.378 . S
C1938 C1939 1.367 . S
C1939 C1938 1.367 . S
C1939 C1941 1.433 . S
C1940 C1936 1.350 . S
C1940 C1937 1.463 . S
C1940 N1944 1.427 . S
C1941 H1931 0.929 . S
C1941 C1939 1.433 . S
C1941 N1944 1.384 . S
C1942 H1933 0.929 . S
C1942 C1934 1.378 . S
C1942 C1937 1.350 . S
C1943 H1930 0.929 . S
C1943 C1935 1.433 . S
C1943 N1945 1.384 . S
N1944 C1940 1.427 . S
N1944 C1941 1.384 . S
N1945 C1937 1.427 . S
N1945 C1943 1.384 . S
H1946 C1952 0.930 . S
H1947 C1956 0.930 . S
H1948 C1961 0.929 . S
H1949 C1959 0.929 . S
H1950 C1954 0.929 . S
H1951 C1960 0.929 . S
C1952 H1946 0.930 . S
C1952 C1953 1.367 . S
C1952 C1960 1.378 . S
C1953 C1952 1.367 . S
C1953 C1961 1.433 . S
C1954 H1950 0.929 . S
C1954 C1956 1.378 . S
C1954 C1958 1.350 . S
C1955 C1958 1.463 . S
C1955 C1960 1.350 . S
C1955 N1963 1.427 . S
C1956 H1947 0.930 . S
C1956 C1954 1.378 . S
C1956 C1957 1.367 . S
C1957 C1956 1.367 . S
C1957 C1959 1.433 . S
C1958 C1954 1.350 . S
C1958 C1955 1.463 . S
C1958 N1962 1.427 . S
C1959 H1949 0.929 . S
C1959 C1957 1.433 . S
C1959 N1962 1.384 . S
C1960 H1951 0.929 . S
C1960 C1952 1.378 . S
C1960 C1955 1.350 . S
C1961 H1948 0.929 . S
C1961 C1953 1.433 . S
C1961 N1963 1.384 . S
N1962 C1958 1.427 . S
N1962 C1959 1.384 . S
N1963 C1955 1.427 . S
N1963 C1961 1.384 . S
H1964 C1970 0.930 . S
H1965 C1974 0.930 . S
H1966 C1979 0.929 . S
H1967 C1977 0.929 . S
H1968 C1972 0.929 . S
H1969 C1978 0.929 . S
C1970 H1964 0.930 . S
C1970 C1971 1.367 . S
C1970 C1978 1.378 . S
C1971 C1970 1.367 . S
C1971 C1979 1.433 . S
C1972 H1968 0.929 . S
C1972 C1974 1.378 . S
C1972 C1976 1.350 . S
C1973 C1976 1.463 . S
C1973 C1978 1.350 . S
C1973 N1981 1.427 . S
C1974 H1965 0.930 . S
C1974 C1972 1.378 . S
C1974 C1975 1.367 . S
C1975 C1974 1.367 . S
C1975 C1977 1.433 . S
C1976 C1972 1.350 . S
C1976 C1973 1.463 . S
C1976 N1980 1.427 . S
C1977 H1967 0.929 . S
C1977 C1975 1.433 . S
C1977 N1980 1.384 . S
C1978 H1969 0.929 . S
C1978 C1970 1.378 . S
C1978 C1973 1.350 . S
C1979 H1966 0.929 . S
C1979 C1971 1.433 . S
C1979 N1981 1.384 . S
N1980 C1976 1.427 . S
N1980 C1977 1.384 . S
N1981 C1973 1.427 . S
N1981 C1979 1.384 . S
H1982 C1988 0.930 . S
H1983 C1992 0.930 . S
H1984 C1997 0.929 . S
H1985 C1995 0.929 . S
H1986 C1990 0.929 . S
H1987 C1996 0.929 . S
C1988 H1982 0.930 . S
C1988 C1989 1.367 . S
C1988 C1996 1.378 . S
C1989 C1988 1.367 . S
C1989 C1997 1.433 . S
C1990 H1986 0.929 . S
C1990 C1992 1.378 . S
C1990 C1994 1.350 . S
C1991 C1994 1.463 . S
C1991 C1996 1.350 . S
C1991 N1999 1.427 . S
C1992 H1983 0.930 . S
C1992 C1990 1.378 . S
C1992 C1993 1.367 . S
C1993 C1992 1.367 . S
C1993 C1995 1.433 . S
C1994 C1990 1.350 . S
C1994 C1991 1.463 . S
C1994 N1998 1.427 . S
C1995 H1985 0.929 . S
C1995 C1993 1.433 . S
C1995 N1998 1.384 . S
C1996 H1987 0.929 . S
C1996 C1988 1.378 . S
C1996 C1991 1.350 . S
C1997 H1984 0.929 . S
C1997 C1989 1.433 . S
C1997 N1999 1.384 . S
N1998 C1994 1.427 . S
N1998 C1995 1.384 . S
N1999 C1991 1.427 . S
N1999 C1997 1.384 . S
H2000 C2006 0.930 . S
H2001 C2010 0.930 . S
H2002 C2015 0.929 . S
H2003 C2013 0.929 . S
H2004 C2008 0.929 . S
H2005 C2014 0.929 . S
C2006 H2000 0.930 . S
C2006 C2007 1.367 . S
C2006 C2014 1.378 . S
C2007 C2006 1.367 . S
C2007 C2015 1.433 . S
C2008 H2004 0.929 . S
C2008 C2010 1.378 . S
C2008 C2012 1.350 . S
C2009 C2012 1.463 . S
C2009 C2014 1.350 . S
C2009 N2017 1.427 . S
C2010 H2001 0.930 . S
C2010 C2008 1.378 . S
C2010 C2011 1.367 . S
C2011 C2010 1.367 . S
C2011 C2013 1.433 . S
C2012 C2008 1.350 . S
C2012 C2009 1.463 . S
C2012 N2016 1.427 . S
C2013 H2003 0.929 . S
C2013 C2011 1.433 . S
C2013 N2016 1.384 . S
C2014 H2005 0.929 . S
C2014 C2006 1.378 . S
C2014 C2009 1.350 . S
C2015 H2002 0.929 . S
C2015 C2007 1.433 . S
C2015 N2017 1.384 . S
N2016 C2012 1.427 . S
N2016 C2013 1.384 . S
N2017 C2009 1.427 . S
N2017 C2015 1.384 . S
H2018 C2024 0.930 . S
H2019 C2028 0.930 . S
H2020 C2033 0.929 . S
H2021 C2031 0.929 . S
H2022 C2026 0.929 . S
H2023 C2032 0.929 . S
C2024 H2018 0.930 . S
C2024 C2025 1.367 . S
C2024 C2032 1.378 . S
C2025 C2024 1.367 . S
C2025 C2033 1.433 . S
C2026 H2022 0.929 . S
C2026 C2028 1.378 . S
C2026 C2030 1.350 . S
C2027 C2030 1.463 . S
C2027 C2032 1.350 . S
C2027 N2035 1.427 . S
C2028 H2019 0.930 . S
C2028 C2026 1.378 . S
C2028 C2029 1.367 . S
C2029 C2028 1.367 . S
C2029 C2031 1.433 . S
C2030 C2026 1.350 . S
C2030 C2027 1.463 . S
C2030 N2034 1.427 . S
C2031 H2021 0.929 . S
C2031 C2029 1.433 . S
C2031 N2034 1.384 . S
C2032 H2023 0.929 . S
C2032 C2024 1.378 . S
C2032 C2027 1.350 . S
C2033 H2020 0.929 . S
C2033 C2025 1.433 . S
C2033 N2035 1.384 . S
N2034 C2030 1.427 . S
N2034 C2031 1.384 . S
N2035 C2027 1.427 . S
N2035 C2033 1.384 . S
H2036 C2042 0.930 . S
H2037 C2046 0.930 . S
H2038 C2051 0.929 . S
H2039 C2049 0.929 . S
H2040 C2044 0.929 . S
H2041 C2050 0.929 . S
C2042 H2036 0.930 . S
C2042 C2043 1.367 . S
C2042 C2050 1.378 . S
C2043 C2042 1.367 . S
C2043 C2051 1.433 . S
C2044 H2040 0.929 . S
C2044 C2046 1.378 . S
C2044 C2048 1.350 . S
C2045 C2048 1.463 . S
C2045 C2050 1.350 . S
C2045 N2053 1.427 . S
C2046 H2037 0.930 . S
C2046 C2044 1.378 . S
C2046 C2047 1.367 . S
C2047 C2046 1.367 . S
C2047 C2049 1.433 . S
C2048 C2044 1.350 . S
C2048 C2045 1.463 . S
C2048 N2052 1.427 . S
C2049 H2039 0.929 . S
C2049 C2047 1.433 . S
C2049 N2052 1.384 . S
C2050 H2041 0.929 . S
C2050 C2042 1.378 . S
C2050 C2045 1.350 . S
C2051 H2038 0.929 . S
C2051 C2043 1.433 . S
C2051 N2053 1.384 . S
N2052 C2048 1.427 . S
N2052 C2049 1.384 . S
N2053 C2045 1.427 . S
N2053 C2051 1.384 . S
H2054 C2060 0.930 . S
H2055 C2064 0.930 . S
H2056 C2069 0.929 . S
H2057 C2067 0.929 . S
H2058 C2062 0.929 . S
H2059 C2068 0.929 . S
C2060 H2054 0.930 . S
C2060 C2061 1.367 . S
C2060 C2068 1.378 . S
C2061 C2060 1.367 . S
C2061 C2069 1.433 . S
C2062 H2058 0.929 . S
C2062 C2064 1.378 . S
C2062 C2066 1.350 . S
C2063 C2066 1.463 . S
C2063 C2068 1.350 . S
C2063 N2071 1.427 . S
C2064 H2055 0.930 . S
C2064 C2062 1.378 . S
C2064 C2065 1.367 . S
C2065 C2064 1.367 . S
C2065 C2067 1.433 . S
C2066 C2062 1.350 . S
C2066 C2063 1.463 . S
C2066 N2070 1.427 . S
C2067 H2057 0.929 . S
C2067 C2065 1.433 . S
C2067 N2070 1.384 . S
C2068 H2059 0.929 . S
C2068 C2060 1.378 . S
C2068 C2063 1.350 . S
C2069 H2056 0.929 . S
C2069 C2061 1.433 . S
C2069 N2071 1.384 . S
N2070 C2066 1.427 . S
N2070 C2067 1.384 . S
N2071 C2063 1.427 . S
N2071 C2069 1.384 . S
H2072 C2078 0.930 . S
H2073 C2082 0.930 . S
H2074 C2087 0.929 . S
H2075 C2085 0.929 . S
H2076 C2080 0.929 . S
H2077 C2086 0.929 . S
C2078 H2072 0.930 . S
C2078 C2079 1.367 . S
C2078 C2086 1.378 . S
C2079 C2078 1.367 . S
C2079 C2087 1.433 . S
C2080 H2076 0.929 . S
C2080 C2082 1.378 . S
C2080 C2084 1.350 . S
C2081 C2084 1.463 . S
C2081 C2086 1.350 . S
C2081 N2089 1.427 . S
C2082 H2073 0.930 . S
C2082 C2080 1.378 . S
C2082 C2083 1.367 . S
C2083 C2082 1.367 . S
C2083 C2085 1.433 . S
C2084 C2080 1.350 . S
C2084 C2081 1.463 . S
C2084 N2088 1.427 . S
C2085 H2075 0.929 . S
C2085 C2083 1.433 . S
C2085 N2088 1.384 . S
C2086 H2077 0.929 . S
C2086 C2078 1.378 . S
C2086 C2081 1.350 . S
C2087 H2074 0.929 . S
C2087 C2079 1.433 . S
C2087 N2089 1.384 . S
N2088 C2084 1.427 . S
N2088 C2085 1.384 . S
N2089 C2081 1.427 . S
N2089 C2087 1.384 . S
H2090 C2096 0.930 . S
H2091 C2100 0.930 . S
H2092 C2105 0.929 . S
H2093 C2103 0.929 . S
H2094 C2098 0.929 . S
H2095 C2104 0.929 . S
C2096 H2090 0.930 . S
C2096 C2097 1.367 . S
C2096 C2104 1.378 . S
C2097 C2096 1.367 . S
C2097 C2105 1.433 . S
C2098 H2094 0.929 . S
C2098 C2100 1.378 . S
C2098 C2102 1.350 . S
C2099 C2102 1.463 . S
C2099 C2104 1.350 . S
C2099 N2107 1.427 . S
C2100 H2091 0.930 . S
C2100 C2098 1.378 . S
C2100 C2101 1.367 . S
C2101 C2100 1.367 . S
C2101 C2103 1.433 . S
C2102 C2098 1.350 . S
C2102 C2099 1.463 . S
C2102 N2106 1.427 . S
C2103 H2093 0.929 . S
C2103 C2101 1.433 . S
C2103 N2106 1.384 . S
C2104 H2095 0.929 . S
C2104 C2096 1.378 . S
C2104 C2099 1.350 . S
C2105 H2092 0.929 . S
C2105 C2097 1.433 . S
C2105 N2107 1.384 . S
N2106 C2102 1.427 . S
N2106 C2103 1.384 . S
N2107 C2099 1.427 . S
N2107 C2105 1.384 . S
H2108 C2114 0.930 . S
H2109 C2118 0.930 . S
H2110 C2123 0.929 . S
H2111 C2121 0.929 . S
H2112 C2116 0.929 . S
H2113 C2122 0.929 . S
C2114 H2108 0.930 . S
C2114 C2115 1.367 . S
C2114 C2122 1.378 . S
C2115 C2114 1.367 . S
C2115 C2123 1.433 . S
C2116 H2112 0.929 . S
C2116 C2118 1.378 . S
C2116 C2120 1.350 . S
C2117 C2120 1.463 . S
C2117 C2122 1.350 . S
C2117 N2125 1.427 . S
C2118 H2109 0.930 . S
C2118 C2116 1.378 . S
C2118 C2119 1.367 . S
C2119 C2118 1.367 . S
C2119 C2121 1.433 . S
C2120 C2116 1.350 . S
C2120 C2117 1.463 . S
C2120 N2124 1.427 . S
C2121 H2111 0.929 . S
C2121 C2119 1.433 . S
C2121 N2124 1.384 . S
C2122 H2113 0.929 . S
C2122 C2114 1.378 . S
C2122 C2117 1.350 . S
C2123 H2110 0.929 . S
C2123 C2115 1.433 . S
C2123 N2125 1.384 . S
N2124 C2120 1.427 . S
N2124 C2121 1.384 . S
N2125 C2117 1.427 . S
N2125 C2123 1.384 . S
H2126 C2132 0.930 . S
H2127 C2136 0.930 . S
H2128 C2141 0.929 . S
H2129 C2139 0.929 . S
H2130 C2134 0.929 . S
H2131 C2140 0.929 . S
C2132 H2126 0.930 . S
C2132 C2133 1.367 . S
C2132 C2140 1.378 . S
C2133 C2132 1.367 . S
C2133 C2141 1.433 . S
C2134 H2130 0.929 . S
C2134 C2136 1.378 . S
C2134 C2138 1.350 . S
C2135 C2138 1.463 . S
C2135 C2140 1.350 . S
C2135 N2143 1.427 . S
C2136 H2127 0.930 . S
C2136 C2134 1.378 . S
C2136 C2137 1.367 . S
C2137 C2136 1.367 . S
C2137 C2139 1.433 . S
C2138 C2134 1.350 . S
C2138 C2135 1.463 . S
C2138 N2142 1.427 . S
C2139 H2129 0.929 . S
C2139 C2137 1.433 . S
C2139 N2142 1.384 . S
C2140 H2131 0.929 . S
C2140 C2132 1.378 . S
C2140 C2135 1.350 . S
C2141 H2128 0.929 . S
C2141 C2133 1.433 . S
C2141 N2143 1.384 . S
N2142 C2138 1.427 . S
N2142 C2139 1.384 . S
N2143 C2135 1.427 . S
N2143 C2141 1.384 . S
H2144 C2150 0.930 . S
H2145 C2154 0.930 . S
H2146 C2159 0.929 . S
H2147 C2157 0.929 . S
H2148 C2152 0.929 . S
H2149 C2158 0.929 . S
C2150 H2144 0.930 . S
C2150 C2151 1.367 . S
C2150 C2158 1.378 . S
C2151 C2150 1.367 . S
C2151 C2159 1.433 . S
C2152 H2148 0.929 . S
C2152 C2154 1.378 . S
C2152 C2156 1.350 . S
C2153 C2156 1.463 . S
C2153 C2158 1.350 . S
C2153 N2161 1.427 . S
C2154 H2145 0.930 . S
C2154 C2152 1.378 . S
C2154 C2155 1.367 . S
C2155 C2154 1.367 . S
C2155 C2157 1.433 . S
C2156 C2152 1.350 . S
C2156 C2153 1.463 . S
C2156 N2160 1.427 . S
C2157 H2147 0.929 . S
C2157 C2155 1.433 . S
C2157 N2160 1.384 . S
C2158 H2149 0.929 . S
C2158 C2150 1.378 . S
C2158 C2153 1.350 . S
C2159 H2146 0.929 . S
C2159 C2151 1.433 . S
C2159 N2161 1.384 . S
N2160 C2156 1.427 . S
N2160 C2157 1.384 . S
N2161 C2153 1.427 . S
N2161 C2159 1.384 . S
H2162 C2168 0.930 . S
H2163 C2172 0.930 . S
H2164 C2177 0.929 . S
H2165 C2175 0.929 . S
H2166 C2170 0.929 . S
H2167 C2176 0.929 . S
C2168 H2162 0.930 . S
C2168 C2169 1.367 . S
C2168 C2176 1.378 . S
C2169 C2168 1.367 . S
C2169 C2177 1.433 . S
C2170 H2166 0.929 . S
C2170 C2172 1.378 . S
C2170 C2174 1.350 . S
C2171 C2174 1.463 . S
C2171 C2176 1.350 . S
C2171 N2179 1.427 . S
C2172 H2163 0.930 . S
C2172 C2170 1.378 . S
C2172 C2173 1.367 . S
C2173 C2172 1.367 . S
C2173 C2175 1.433 . S
C2174 C2170 1.350 . S
C2174 C2171 1.463 . S
C2174 N2178 1.427 . S
C2175 H2165 0.929 . S
C2175 C2173 1.433 . S
C2175 N2178 1.384 . S
C2176 H2167 0.929 . S
C2176 C2168 1.378 . S
C2176 C2171 1.350 . S
C2177 H2164 0.929 . S
C2177 C2169 1.433 . S
C2177 N2179 1.384 . S
N2178 C2174 1.427 . S
N2178 C2175 1.384 . S
N2179 C2171 1.427 . S
N2179 C2177 1.384 . S
H2180 C2186 0.930 . S
H2181 C2190 0.930 . S
H2182 C2195 0.929 . S
H2183 C2193 0.929 . S
H2184 C2188 0.929 . S
H2185 C2194 0.929 . S
C2186 H2180 0.930 . S
C2186 C2187 1.367 . S
C2186 C2194 1.378 . S
C2187 C2186 1.367 . S
C2187 C2195 1.433 . S
C2188 H2184 0.929 . S
C2188 C2190 1.378 . S
C2188 C2192 1.350 . S
C2189 C2192 1.463 . S
C2189 C2194 1.350 . S
C2189 N2197 1.427 . S
C2190 H2181 0.930 . S
C2190 C2188 1.378 . S
C2190 C2191 1.367 . S
C2191 C2190 1.367 . S
C2191 C2193 1.433 . S
C2192 C2188 1.350 . S
C2192 C2189 1.463 . S
C2192 N2196 1.427 . S
C2193 H2183 0.929 . S
C2193 C2191 1.433 . S
C2193 N2196 1.384 . S
C2194 H2185 0.929 . S
C2194 C2186 1.378 . S
C2194 C2189 1.350 . S
C2195 H2182 0.929 . S
C2195 C2187 1.433 . S
C2195 N2197 1.384 . S
N2196 C2192 1.427 . S
N2196 C2193 1.384 . S
N2197 C2189 1.427 . S
N2197 C2195 1.384 . S
H2198 C2204 0.930 . S
H2199 C2208 0.930 . S
H2200 C2213 0.929 . S
H2201 C2211 0.929 . S
H2202 C2206 0.929 . S
H2203 C2212 0.929 . S
C2204 H2198 0.930 . S
C2204 C2205 1.367 . S
C2204 C2212 1.378 . S
C2205 C2204 1.367 . S
C2205 C2213 1.433 . S
C2206 H2202 0.929 . S
C2206 C2208 1.378 . S
C2206 C2210 1.350 . S
C2207 C2210 1.463 . S
C2207 C2212 1.350 . S
C2207 N2215 1.427 . S
C2208 H2199 0.930 . S
C2208 C2206 1.378 . S
C2208 C2209 1.367 . S
C2209 C2208 1.367 . S
C2209 C2211 1.433 . S
C2210 C2206 1.350 . S
C2210 C2207 1.463 . S
C2210 N2214 1.427 . S
C2211 H2201 0.929 . S
C2211 C2209 1.433 . S
C2211 N2214 1.384 . S
C2212 H2203 0.929 . S
C2212 C2204 1.378 . S
C2212 C2207 1.350 . S
C2213 H2200 0.929 . S
C2213 C2205 1.433 . S
C2213 N2215 1.384 . S
N2214 C2210 1.427 . S
N2214 C2211 1.384 . S
N2215 C2207 1.427 . S
N2215 C2213 1.384 . S
H2216 C2222 0.930 . S
H2217 C2226 0.930 . S
H2218 C2231 0.929 . S
H2219 C2229 0.929 . S
H2220 C2224 0.929 . S
H2221 C2230 0.929 . S
C2222 H2216 0.930 . S
C2222 C2223 1.367 . S
C2222 C2230 1.378 . S
C2223 C2222 1.367 . S
C2223 C2231 1.433 . S
C2224 H2220 0.929 . S
C2224 C2226 1.378 . S
C2224 C2228 1.350 . S
C2225 C2228 1.463 . S
C2225 C2230 1.350 . S
C2225 N2233 1.427 . S
C2226 H2217 0.930 . S
C2226 C2224 1.378 . S
C2226 C2227 1.367 . S
C2227 C2226 1.367 . S
C2227 C2229 1.433 . S
C2228 C2224 1.350 . S
C2228 C2225 1.463 . S
C2228 N2232 1.427 . S
C2229 H2219 0.929 . S
C2229 C2227 1.433 . S
C2229 N2232 1.384 . S
C2230 H2221 0.929 . S
C2230 C2222 1.378 . S
C2230 C2225 1.350 . S
C2231 H2218 0.929 . S
C2231 C2223 1.433 . S
C2231 N2233 1.384 . S
N2232 C2228 1.427 . S
N2232 C2229 1.384 . S
N2233 C2225 1.427 . S
N2233 C2231 1.384 . S
H2234 C2240 0.930 . S
H2235 C2244 0.930 . S
H2236 C2249 0.929 . S
H2237 C2247 0.929 . S
H2238 C2242 0.929 . S
H2239 C2248 0.929 . S
C2240 H2234 0.930 . S
C2240 C2241 1.367 . S
C2240 C2248 1.378 . S
C2241 C2240 1.367 . S
C2241 C2249 1.433 . S
C2242 H2238 0.929 . S
C2242 C2244 1.378 . S
C2242 C2246 1.350 . S
C2243 C2246 1.463 . S
C2243 C2248 1.350 . S
C2243 N2251 1.427 . S
C2244 H2235 0.930 . S
C2244 C2242 1.378 . S
C2244 C2245 1.367 . S
C2245 C2244 1.367 . S
C2245 C2247 1.433 . S
C2246 C2242 1.350 . S
C2246 C2243 1.463 . S
C2246 N2250 1.427 . S
C2247 H2237 0.929 . S
C2247 C2245 1.433 . S
C2247 N2250 1.384 . S
C2248 H2239 0.929 . S
C2248 C2240 1.378 . S
C2248 C2243 1.350 . S
C2249 H2236 0.929 . S
C2249 C2241 1.433 . S
C2249 N2251 1.384 . S
N2250 C2246 1.427 . S
N2250 C2247 1.384 . S
N2251 C2243 1.427 . S
N2251 C2249 1.384 . S
H2252 C2258 0.930 . S
H2253 C2262 0.930 . S
H2254 C2267 0.929 . S
H2255 C2265 0.929 . S
H2256 C2260 0.929 . S
H2257 C2266 0.929 . S
C2258 H2252 0.930 . S
C2258 C2259 1.367 . S
C2258 C2266 1.378 . S
C2259 C2258 1.367 . S
C2259 C2267 1.433 . S
C2260 H2256 0.929 . S
C2260 C2262 1.378 . S
C2260 C2264 1.350 . S
C2261 C2264 1.463 . S
C2261 C2266 1.350 . S
C2261 N2269 1.427 . S
C2262 H2253 0.930 . S
C2262 C2260 1.378 . S
C2262 C2263 1.367 . S
C2263 C2262 1.367 . S
C2263 C2265 1.433 . S
C2264 C2260 1.350 . S
C2264 C2261 1.463 . S
C2264 N2268 1.427 . S
C2265 H2255 0.929 . S
C2265 C2263 1.433 . S
C2265 N2268 1.384 . S
C2266 H2257 0.929 . S
C2266 C2258 1.378 . S
C2266 C2261 1.350 . S
C2267 H2254 0.929 . S
C2267 C2259 1.433 . S
C2267 N2269 1.384 . S
N2268 C2264 1.427 . S
N2268 C2265 1.384 . S
N2269 C2261 1.427 . S
N2269 C2267 1.384 . S
H2270 C2276 0.930 . S
H2271 C2280 0.930 . S
H2272 C2285 0.929 . S
H2273 C2283 0.929 . S
H2274 C2278 0.929 . S
H2275 C2284 0.929 . S
C2276 H2270 0.930 . S
C2276 C2277 1.367 . S
C2276 C2284 1.378 . S
C2277 C2276 1.367 . S
C2277 C2285 1.433 . S
C2278 H2274 0.929 . S
C2278 C2280 1.378 . S
C2278 C2282 1.350 . S
C2279 C2282 1.463 . S
C2279 C2284 1.350 . S
C2279 N2287 1.427 . S
C2280 H2271 0.930 . S
C2280 C2278 1.378 . S
C2280 C2281 1.367 . S
C2281 C2280 1.367 . S
C2281 C2283 1.433 . S
C2282 C2278 1.350 . S
C2282 C2279 1.463 . S
C2282 N2286 1.427 . S
C2283 H2273 0.929 . S
C2283 C2281 1.433 . S
C2283 N2286 1.384 . S
C2284 H2275 0.929 . S
C2284 C2276 1.378 . S
C2284 C2279 1.350 . S
C2285 H2272 0.929 . S
C2285 C2277 1.433 . S
C2285 N2287 1.384 . S
N2286 C2282 1.427 . S
N2286 C2283 1.384 . S
N2287 C2279 1.427 . S
N2287 C2285 1.384 . S
H2288 C2294 0.930 . S
H2289 C2298 0.930 . S
H2290 C2303 0.929 . S
H2291 C2301 0.929 . S
H2292 C2296 0.929 . S
H2293 C2302 0.929 . S
C2294 H2288 0.930 . S
C2294 C2295 1.367 1_565 S
C2294 C2302 1.378 . S
C2295 C2294 1.367 1_545 S
C2295 C2303 1.433 . S
C2296 H2292 0.929 . S
C2296 C2298 1.378 . S
C2296 C2300 1.350 1_545 S
C2297 C2300 1.463 . S
C2297 C2302 1.350 . S
C2297 N2305 1.427 1_565 S
C2298 H2289 0.930 . S
C2298 C2296 1.378 . S
C2298 C2299 1.367 1_545 S
C2299 C2298 1.367 1_565 S
C2299 C2301 1.433 . S
C2300 C2296 1.350 1_565 S
C2300 C2297 1.463 . S
C2300 N2304 1.427 . S
C2301 H2291 0.929 . S
C2301 C2299 1.433 . S
C2301 N2304 1.384 . S
C2302 H2293 0.929 . S
C2302 C2294 1.378 . S
C2302 C2297 1.350 . S
C2303 H2290 0.929 . S
C2303 C2295 1.433 . S
C2303 N2305 1.384 . S
N2304 C2300 1.427 . S
N2304 C2301 1.384 . S
N2305 C2297 1.427 1_545 S
N2305 C2303 1.384 . S
H2306 C2312 0.930 . S
H2307 C2316 0.930 . S
H2308 C2321 0.929 . S
H2309 C2319 0.929 . S
H2310 C2314 0.929 . S
H2311 C2320 0.929 . S
C2312 H2306 0.930 . S
C2312 C2313 1.367 . S
C2312 C2320 1.378 . S
C2313 C2312 1.367 . S
C2313 C2321 1.433 . S
C2314 H2310 0.929 . S
C2314 C2316 1.378 . S
C2314 C2318 1.350 . S
C2315 C2318 1.463 . S
C2315 C2320 1.350 . S
C2315 N2323 1.427 . S
C2316 H2307 0.930 . S
C2316 C2314 1.378 . S
C2316 C2317 1.367 . S
C2317 C2316 1.367 . S
C2317 C2319 1.433 . S
C2318 C2314 1.350 . S
C2318 C2315 1.463 . S
C2318 N2322 1.427 . S
C2319 H2309 0.929 . S
C2319 C2317 1.433 . S
C2319 N2322 1.384 . S
C2320 H2311 0.929 . S
C2320 C2312 1.378 . S
C2320 C2315 1.350 . S
C2321 H2308 0.929 . S
C2321 C2313 1.433 . S
C2321 N2323 1.384 . S
N2322 C2318 1.427 . S
N2322 C2319 1.384 . S
N2323 C2315 1.427 . S
N2323 C2321 1.384 . S
H2324 C2330 0.930 . S
H2325 C2334 0.930 . S
H2326 C2339 0.929 . S
H2327 C2337 0.929 . S
H2328 C2332 0.929 . S
H2329 C2338 0.929 . S
C2330 H2324 0.930 . S
C2330 C2331 1.367 . S
C2330 C2338 1.378 . S
C2331 C2330 1.367 . S
C2331 C2339 1.433 . S
C2332 H2328 0.929 . S
C2332 C2334 1.378 . S
C2332 C2336 1.350 . S
C2333 C2336 1.463 . S
C2333 C2338 1.350 . S
C2333 N2341 1.427 . S
C2334 H2325 0.930 . S
C2334 C2332 1.378 . S
C2334 C2335 1.367 . S
C2335 C2334 1.367 . S
C2335 C2337 1.433 . S
C2336 C2332 1.350 . S
C2336 C2333 1.463 . S
C2336 N2340 1.427 . S
C2337 H2327 0.929 . S
C2337 C2335 1.433 . S
C2337 N2340 1.384 . S
C2338 H2329 0.929 . S
C2338 C2330 1.378 . S
C2338 C2333 1.350 . S
C2339 H2326 0.929 . S
C2339 C2331 1.433 . S
C2339 N2341 1.384 . S
N2340 C2336 1.427 . S
N2340 C2337 1.384 . S
N2341 C2333 1.427 . S
N2341 C2339 1.384 . S
H2342 C2348 0.930 . S
H2343 C2352 0.930 . S
H2344 C2357 0.929 . S
H2345 C2355 0.929 1_545 S
H2346 C2350 0.929 . S
H2347 C2356 0.929 . S
C2348 H2342 0.930 . S
C2348 C2349 1.367 . S
C2348 C2356 1.378 . S
C2349 C2348 1.367 . S
C2349 C2357 1.433 1_545 S
C2350 H2346 0.929 . S
C2350 C2352 1.378 . S
C2350 C2354 1.350 . S
C2351 C2354 1.463 . S
C2351 C2356 1.350 1_565 S
C2351 N2359 1.427 . S
C2352 H2343 0.930 . S
C2352 C2350 1.378 . S
C2352 C2353 1.367 . S
C2353 C2352 1.367 . S
C2353 C2355 1.433 . S
C2354 C2350 1.350 . S
C2354 C2351 1.463 . S
C2354 N2358 1.427 1_565 S
C2355 H2345 0.929 1_565 S
C2355 C2353 1.433 . S
C2355 N2358 1.384 1_565 S
C2356 H2347 0.929 . S
C2356 C2348 1.378 . S
C2356 C2351 1.350 1_545 S
C2357 H2344 0.929 . S
C2357 C2349 1.433 1_565 S
C2357 N2359 1.384 . S
N2358 C2354 1.427 1_545 S
N2358 C2355 1.384 1_545 S
N2359 C2351 1.427 . S
N2359 C2357 1.384 . S
H2360 C2366 0.930 . S
H2361 C2370 0.930 . S
H2362 C2375 0.929 . S
H2363 C2373 0.929 . S
H2364 C2368 0.929 . S
H2365 C2374 0.929 . S
C2366 H2360 0.930 . S
C2366 C2367 1.367 1_545 S
C2366 C2374 1.378 . S
C2367 C2366 1.367 1_565 S
C2367 C2375 1.433 . S
C2368 H2364 0.929 . S
C2368 C2370 1.378 . S
C2368 C2372 1.350 1_565 S
C2369 C2372 1.463 . S
C2369 C2374 1.350 . S
C2369 N2377 1.427 1_545 S
C2370 H2361 0.930 . S
C2370 C2368 1.378 . S
C2370 C2371 1.367 1_565 S
C2371 C2370 1.367 1_545 S
C2371 C2373 1.433 . S
C2372 C2368 1.350 1_545 S
C2372 C2369 1.463 . S
C2372 N2376 1.427 . S
C2373 H2363 0.929 . S
C2373 C2371 1.433 . S
C2373 N2376 1.384 . S
C2374 H2365 0.929 . S
C2374 C2366 1.378 . S
C2374 C2369 1.350 . S
C2375 H2362 0.929 . S
C2375 C2367 1.433 . S
C2375 N2377 1.384 . S
N2376 C2372 1.427 . S
N2376 C2373 1.384 . S
N2377 C2369 1.427 1_565 S
N2377 C2375 1.384 . S
H2378 C2384 0.930 . S
H2379 C2388 0.930 . S
H2380 C2393 0.929 . S
H2381 C2391 0.929 . S
H2382 C2386 0.929 . S
H2383 C2392 0.929 . S
C2384 H2378 0.930 . S
C2384 C2385 1.367 . S
C2384 C2392 1.378 . S
C2385 C2384 1.367 . S
C2385 C2393 1.433 . S
C2386 H2382 0.929 . S
C2386 C2388 1.378 . S
C2386 C2390 1.350 . S
C2387 C2390 1.463 . S
C2387 C2392 1.350 . S
C2387 N2395 1.427 . S
C2388 H2379 0.930 . S
C2388 C2386 1.378 . S
C2388 C2389 1.367 . S
C2389 C2388 1.367 . S
C2389 C2391 1.433 . S
C2390 C2386 1.350 . S
C2390 C2387 1.463 . S
C2390 N2394 1.427 . S
C2391 H2381 0.929 . S
C2391 C2389 1.433 . S
C2391 N2394 1.384 . S
C2392 H2383 0.929 . S
C2392 C2384 1.378 . S
C2392 C2387 1.350 . S
C2393 H2380 0.929 . S
C2393 C2385 1.433 . S
C2393 N2395 1.384 . S
N2394 C2390 1.427 . S
N2394 C2391 1.384 . S
N2395 C2387 1.427 . S
N2395 C2393 1.384 . S
H2396 C2402 0.930 . S
H2397 C2406 0.930 . S
H2398 C2411 0.929 . S
H2399 C2409 0.929 . S
H2400 C2404 0.929 . S
H2401 C2410 0.929 . S
C2402 H2396 0.930 . S
C2402 C2403 1.367 . S
C2402 C2410 1.378 . S
C2403 C2402 1.367 . S
C2403 C2411 1.433 . S
C2404 H2400 0.929 . S
C2404 C2406 1.378 . S
C2404 C2408 1.350 . S
C2405 C2408 1.463 . S
C2405 C2410 1.350 . S
C2405 N2413 1.427 . S
C2406 H2397 0.930 . S
C2406 C2404 1.378 . S
C2406 C2407 1.367 . S
C2407 C2406 1.367 . S
C2407 C2409 1.433 . S
C2408 C2404 1.350 . S
C2408 C2405 1.463 . S
C2408 N2412 1.427 . S
C2409 H2399 0.929 . S
C2409 C2407 1.433 . S
C2409 N2412 1.384 . S
C2410 H2401 0.929 . S
C2410 C2402 1.378 . S
C2410 C2405 1.350 . S
C2411 H2398 0.929 . S
C2411 C2403 1.433 . S
C2411 N2413 1.384 . S
N2412 C2408 1.427 . S
N2412 C2409 1.384 . S
N2413 C2405 1.427 . S
N2413 C2411 1.384 . S
H2414 C2420 0.930 . S
H2415 C2424 0.930 . S
H2416 C2429 0.929 . S
H2417 C2427 0.937 . S
H2418 C2422 0.929 . S
H2419 C2428 0.929 . S
C2420 H2414 0.930 . S
C2420 C2421 1.367 . S
C2420 C2428 1.378 . S
C2421 C2420 1.367 . S
C2421 C2429 1.433 1_565 S
C2422 H2418 0.929 . S
C2422 C2424 1.378 . S
C2422 C2426 1.350 . S
C2423 C2426 1.463 . S
C2423 C2428 1.350 1_545 S
C2423 N2431 1.427 . S
C2424 H2415 0.930 . S
C2424 C2422 1.378 . S
C2424 C2425 1.367 . S
C2425 C2424 1.367 . S
C2425 C2427 1.433 . S
C2426 C2422 1.350 . S
C2426 C2423 1.463 . S
C2426 N2430 1.427 . S
C2427 H2417 0.937 . S
C2427 C2425 1.433 . S
C2427 N2430 1.384 . S
C2428 H2419 0.929 . S
C2428 C2420 1.378 . S
C2428 C2423 1.350 1_565 S
C2429 H2416 0.929 . S
C2429 C2421 1.433 1_545 S
C2429 N2431 1.384 . S
N2430 C2426 1.427 . S
N2430 C2427 1.384 . S
N2431 C2423 1.427 . S
N2431 C2429 1.384 . S
H2432 C2438 0.930 . S
H2433 C2442 0.930 . S
H2434 C2447 0.929 . S
H2435 C2445 0.929 . S
H2436 C2440 0.929 1_455 S
H2437 C2446 0.929 . S
C2438 H2432 0.930 . S
C2438 C2439 1.367 . S
C2438 C2446 1.378 . S
C2439 C2438 1.367 . S
C2439 C2447 1.433 . S
C2440 H2436 0.929 1_655 S
C2440 C2442 1.378 . S
C2440 C2444 1.350 1_655 S
C2441 C2444 1.463 . S
C2441 C2446 1.350 . S
C2441 N2449 1.427 . S
C2442 H2433 0.930 . S
C2442 C2440 1.378 . S
C2442 C2443 1.367 . S
C2443 C2442 1.367 . S
C2443 C2445 1.433 . S
C2444 C2440 1.350 1_455 S
C2444 C2441 1.463 . S
C2444 N2448 1.427 1_455 S
C2445 H2435 0.929 . S
C2445 C2443 1.433 . S
C2445 N2448 1.384 . S
C2446 H2437 0.929 . S
C2446 C2438 1.378 . S
C2446 C2441 1.350 . S
C2447 H2434 0.929 . S
C2447 C2439 1.433 . S
C2447 N2449 1.384 . S
N2448 C2444 1.427 1_655 S
N2448 C2445 1.384 . S
N2449 C2441 1.427 . S
N2449 C2447 1.384 . S
H2450 C2456 0.930 . S
H2451 C2460 0.930 . S
H2452 C2465 0.929 . S
H2453 C2463 0.929 . S
H2454 C2458 0.929 . S
H2455 C2464 0.929 . S
C2456 H2450 0.930 . S
C2456 C2457 1.367 . S
C2456 C2464 1.378 . S
C2457 C2456 1.367 . S
C2457 C2465 1.433 . S
C2458 H2454 0.929 . S
C2458 C2460 1.378 . S
C2458 C2462 1.350 . S
C2459 C2462 1.463 . S
C2459 C2464 1.350 . S
C2459 N2467 1.427 . S
C2460 H2451 0.930 . S
C2460 C2458 1.378 . S
C2460 C2461 1.367 . S
C2461 C2460 1.367 . S
C2461 C2463 1.433 . S
C2462 C2458 1.350 . S
C2462 C2459 1.463 . S
C2462 N2466 1.427 . S
C2463 H2453 0.929 . S
C2463 C2461 1.433 . S
C2463 N2466 1.384 . S
C2464 H2455 0.929 . S
C2464 C2456 1.378 . S
C2464 C2459 1.350 . S
C2465 H2452 0.929 . S
C2465 C2457 1.433 . S
C2465 N2467 1.384 . S
N2466 C2462 1.427 . S
N2466 C2463 1.384 . S
N2467 C2459 1.427 . S
N2467 C2465 1.384 . S
H2468 C2474 0.930 . S
H2469 C2478 0.930 . S
H2470 C2483 0.929 . S
H2471 C2481 0.929 . S
H2472 C2476 0.929 . S
H2473 C2482 0.929 1_455 S
C2474 H2468 0.930 . S
C2474 C2475 1.367 . S
C2474 C2482 1.378 . S
C2475 C2474 1.367 . S
C2475 C2483 1.433 . S
C2476 H2472 0.929 . S
C2476 C2478 1.378 . S
C2476 C2480 1.350 . S
C2477 C2480 1.463 . S
C2477 C2482 1.350 1_455 S
C2477 N2485 1.427 1_455 S
C2478 H2469 0.930 . S
C2478 C2476 1.378 . S
C2478 C2479 1.367 . S
C2479 C2478 1.367 . S
C2479 C2481 1.433 . S
C2480 C2476 1.350 . S
C2480 C2477 1.463 . S
C2480 N2484 1.427 . S
C2481 H2471 0.929 . S
C2481 C2479 1.433 . S
C2481 N2484 1.384 . S
C2482 H2473 0.929 1_655 S
C2482 C2474 1.378 . S
C2482 C2477 1.350 1_655 S
C2483 H2470 0.929 . S
C2483 C2475 1.433 . S
C2483 N2485 1.384 . S
N2484 C2480 1.427 . S
N2484 C2481 1.384 . S
N2485 C2477 1.427 1_655 S
N2485 C2483 1.384 . S
H2486 C2492 0.930 . S
H2487 C2496 0.930 . S
H2488 C2501 0.929 . S
H2489 C2499 0.929 . S
H2490 C2494 0.929 . S
H2491 C2500 0.929 . S
C2492 H2486 0.930 . S
C2492 C2493 1.367 . S
C2492 C2500 1.378 . S
C2493 C2492 1.367 . S
C2493 C2501 1.433 . S
C2494 H2490 0.929 . S
C2494 C2496 1.378 . S
C2494 C2498 1.350 . S
C2495 C2498 1.463 . S
C2495 C2500 1.350 . S
C2495 N2503 1.427 . S
C2496 H2487 0.930 . S
C2496 C2494 1.378 . S
C2496 C2497 1.367 . S
C2497 C2496 1.367 . S
C2497 C2499 1.433 . S
C2498 C2494 1.350 . S
C2498 C2495 1.463 . S
C2498 N2502 1.427 . S
C2499 H2489 0.929 . S
C2499 C2497 1.433 . S
C2499 N2502 1.384 . S
C2500 H2491 0.929 . S
C2500 C2492 1.378 . S
C2500 C2495 1.350 . S
C2501 H2488 0.929 . S
C2501 C2493 1.433 . S
C2501 N2503 1.384 . S
N2502 C2498 1.427 . S
N2502 C2499 1.384 . S
N2503 C2495 1.427 . S
N2503 C2501 1.384 . S
H2504 C2510 0.930 . S
H2505 C2514 0.930 . S
H2506 C2519 0.929 . S
H2507 C2517 0.929 . S
H2508 C2512 0.929 1_655 S
H2509 C2518 0.929 . S
C2510 H2504 0.930 . S
C2510 C2511 1.367 . S
C2510 C2518 1.378 . S
C2511 C2510 1.367 . S
C2511 C2519 1.433 . S
C2512 H2508 0.929 1_455 S
C2512 C2514 1.378 . S
C2512 C2516 1.350 1_455 S
C2513 C2516 1.463 . S
C2513 C2518 1.350 . S
C2513 N2521 1.427 . S
C2514 H2505 0.930 . S
C2514 C2512 1.378 . S
C2514 C2515 1.367 . S
C2515 C2514 1.367 . S
C2515 C2517 1.433 . S
C2516 C2512 1.350 1_655 S
C2516 C2513 1.463 . S
C2516 N2520 1.427 1_655 S
C2517 H2507 0.929 . S
C2517 C2515 1.433 . S
C2517 N2520 1.384 . S
C2518 H2509 0.929 . S
C2518 C2510 1.378 . S
C2518 C2513 1.350 . S
C2519 H2506 0.929 . S
C2519 C2511 1.433 . S
C2519 N2521 1.384 . S
N2520 C2516 1.427 1_455 S
N2520 C2517 1.384 . S
N2521 C2513 1.427 . S
N2521 C2519 1.384 . S
H2522 C2528 0.930 . S
H2523 C2532 0.930 . S
H2524 C2537 0.929 . S
H2525 C2535 0.929 . S
H2526 C2530 0.929 . S
H2527 C2536 0.929 . S
C2528 H2522 0.930 . S
C2528 C2529 1.367 . S
C2528 C2536 1.378 . S
C2529 C2528 1.367 . S
C2529 C2537 1.433 . S
C2530 H2526 0.929 . S
C2530 C2532 1.378 . S
C2530 C2534 1.350 . S
C2531 C2534 1.463 . S
C2531 C2536 1.350 . S
C2531 N2539 1.427 . S
C2532 H2523 0.930 . S
C2532 C2530 1.378 . S
C2532 C2533 1.367 . S
C2533 C2532 1.367 . S
C2533 C2535 1.433 . S
C2534 C2530 1.350 . S
C2534 C2531 1.463 . S
C2534 N2538 1.427 . S
C2535 H2525 0.929 . S
C2535 C2533 1.433 . S
C2535 N2538 1.384 . S
C2536 H2527 0.929 . S
C2536 C2528 1.378 . S
C2536 C2531 1.350 . S
C2537 H2524 0.929 . S
C2537 C2529 1.433 . S
C2537 N2539 1.384 . S
N2538 C2534 1.427 . S
N2538 C2535 1.384 . S
N2539 C2531 1.427 . S
N2539 C2537 1.384 . S
H2540 C2546 0.930 . S
H2541 C2550 0.930 . S
H2542 C2555 0.929 . S
H2543 C2553 0.929 . S
H2544 C2548 0.929 . S
H2545 C2554 0.917 1_655 S
C2546 H2540 0.930 . S
C2546 C2547 1.367 . S
C2546 C2554 1.378 . S
C2547 C2546 1.367 . S
C2547 C2555 1.433 . S
C2548 H2544 0.929 . S
C2548 C2550 1.378 . S
C2548 C2552 1.350 . S
C2549 C2552 1.463 . S
C2549 C2554 1.350 1_655 S
C2549 N2557 1.427 1_655 S
C2550 H2541 0.930 . S
C2550 C2548 1.378 . S
C2550 C2551 1.367 . S
C2551 C2550 1.367 . S
C2551 C2553 1.433 . S
C2552 C2548 1.350 . S
C2552 C2549 1.463 . S
C2552 N2556 1.427 . S
C2553 H2543 0.929 . S
C2553 C2551 1.433 . S
C2553 N2556 1.384 . S
C2554 H2545 0.917 1_455 S
C2554 C2546 1.378 . S
C2554 C2549 1.350 1_455 S
C2555 H2542 0.929 . S
C2555 C2547 1.433 . S
C2555 N2557 1.384 . S
N2556 C2552 1.427 . S
N2556 C2553 1.384 . S
N2557 C2549 1.427 1_455 S
N2557 C2555 1.384 . S
H2558 C2564 0.930 . S
H2559 C2568 0.930 . S
H2560 C2573 0.929 . S
H2561 C2571 0.929 . S
H2562 C2566 0.929 . S
H2563 C2572 0.929 . S
C2564 H2558 0.930 . S
C2564 C2565 1.367 . S
C2564 C2572 1.378 . S
C2565 C2564 1.367 . S
C2565 C2573 1.433 . S
C2566 H2562 0.929 . S
C2566 C2568 1.378 . S
C2566 C2570 1.350 . S
C2567 C2570 1.463 . S
C2567 C2572 1.350 . S
C2567 N2575 1.427 . S
C2568 H2559 0.930 . S
C2568 C2566 1.378 . S
C2568 C2569 1.367 . S
C2569 C2568 1.367 . S
C2569 C2571 1.433 . S
C2570 C2566 1.350 . S
C2570 C2567 1.463 . S
C2570 N2574 1.427 . S
C2571 H2561 0.929 . S
C2571 C2569 1.433 . S
C2571 N2574 1.384 . S
C2572 H2563 0.929 . S
C2572 C2564 1.378 . S
C2572 C2567 1.350 . S
C2573 H2560 0.929 . S
C2573 C2565 1.433 . S
C2573 N2575 1.384 . S
N2574 C2570 1.427 . S
N2574 C2571 1.384 . S
N2575 C2567 1.427 . S
N2575 C2573 1.384 . S
H2576 C2582 0.930 . S
H2577 C2586 0.930 . S
H2578 C2591 0.929 . S
H2579 C2589 0.929 . S
H2580 C2584 0.929 . S
H2581 C2590 0.930 1_455 S
C2582 H2576 0.930 . S
C2582 C2583 1.367 . S
C2582 C2590 1.384 . S
C2583 C2582 1.367 . S
C2583 C2591 1.433 1_545 S
C2584 H2580 0.929 . S
C2584 C2586 1.378 . S
C2584 C2588 1.350 . S
C2585 C2588 1.463 . S
C2585 C2590 1.344 1_465 S
C2585 N2593 1.427 1_455 S
C2586 H2577 0.930 . S
C2586 C2584 1.378 . S
C2586 C2587 1.367 . S
C2587 C2586 1.367 . S
C2587 C2589 1.433 . S
C2588 C2584 1.350 . S
C2588 C2585 1.463 . S
C2588 N2592 1.427 . S
C2589 H2579 0.929 . S
C2589 C2587 1.433 . S
C2589 N2592 1.384 . S
C2590 H2581 0.930 1_655 S
C2590 C2582 1.384 . S
C2590 C2585 1.344 1_645 S
C2591 H2578 0.929 . S
C2591 C2583 1.433 1_565 S
C2591 N2593 1.384 . S
N2592 C2588 1.427 . S
N2592 C2589 1.384 . S
N2593 C2585 1.427 1_655 S
N2593 C2591 1.384 . S
H2594 C2600 0.930 . S
H2595 C2604 0.930 . S
H2596 C2609 0.929 . S
H2597 C2607 0.929 . S
H2598 C2602 0.929 . S
H2599 C2608 0.929 . S
C2600 H2594 0.930 . S
C2600 C2601 1.367 . S
C2600 C2608 1.378 . S
C2601 C2600 1.367 . S
C2601 C2609 1.433 . S
C2602 H2598 0.929 . S
C2602 C2604 1.378 . S
C2602 C2606 1.350 . S
C2603 C2606 1.463 . S
C2603 C2608 1.350 . S
C2603 N2611 1.427 . S
C2604 H2595 0.930 . S
C2604 C2602 1.378 . S
C2604 C2605 1.367 . S
C2605 C2604 1.367 . S
C2605 C2607 1.433 . S
C2606 C2602 1.350 . S
C2606 C2603 1.463 . S
C2606 N2610 1.427 . S
C2607 H2597 0.929 . S
C2607 C2605 1.433 . S
C2607 N2610 1.384 . S
C2608 H2599 0.929 . S
C2608 C2600 1.378 . S
C2608 C2603 1.350 . S
C2609 H2596 0.929 . S
C2609 C2601 1.433 . S
C2609 N2611 1.384 . S
N2610 C2606 1.427 . S
N2610 C2607 1.384 . S
N2611 C2603 1.427 . S
N2611 C2609 1.384 . S
H2612 C2618 0.930 . S
H2613 C2622 0.930 . S
H2614 C2627 0.929 . S
H2615 C2625 0.929 . S
H2616 C2620 0.929 . S
H2617 C2626 0.929 . S
C2618 H2612 0.930 . S
C2618 C2619 1.367 . S
C2618 C2626 1.378 . S
C2619 C2618 1.367 . S
C2619 C2627 1.433 . S
C2620 H2616 0.929 . S
C2620 C2622 1.378 . S
C2620 C2624 1.350 . S
C2621 C2624 1.463 . S
C2621 C2626 1.350 1_455 S
C2621 N2629 1.427 1_455 S
C2622 H2613 0.930 . S
C2622 C2620 1.378 . S
C2622 C2623 1.367 . S
C2623 C2622 1.367 . S
C2623 C2625 1.433 . S
C2624 C2620 1.350 . S
C2624 C2621 1.463 . S
C2624 N2628 1.427 . S
C2625 H2615 0.929 . S
C2625 C2623 1.433 . S
C2625 N2628 1.384 . S
C2626 H2617 0.929 . S
C2626 C2618 1.378 . S
C2626 C2621 1.350 1_655 S
C2627 H2614 0.929 . S
C2627 C2619 1.433 . S
C2627 N2629 1.384 . S
N2628 C2624 1.427 . S
N2628 C2625 1.384 . S
N2629 C2621 1.427 1_655 S
N2629 C2627 1.384 . S
H2630 C2636 0.930 . S
H2631 C2640 0.930 1_545 S
H2632 C2645 0.929 . S
H2633 C2643 0.929 . S
H2634 C2638 0.929 . S
H2635 C2644 0.929 . S
C2636 H2630 0.930 . S
C2636 C2637 1.367 1_565 S
C2636 C2644 1.378 . S
C2637 C2636 1.367 1_545 S
C2637 C2645 1.433 . S
C2638 H2634 0.929 . S
C2638 C2640 1.378 1_545 S
C2638 C2642 1.350 1_545 S
C2639 C2642 1.463 . S
C2639 C2644 1.350 . S
C2639 N2647 1.427 1_565 S
C2640 H2631 0.930 1_565 S
C2640 C2638 1.378 1_565 S
C2640 C2641 1.367 . S
C2641 C2640 1.367 . S
C2641 C2643 1.433 . S
C2642 C2638 1.350 1_565 S
C2642 C2639 1.463 . S
C2642 N2646 1.427 . S
C2643 H2633 0.929 . S
C2643 C2641 1.433 . S
C2643 N2646 1.384 . S
C2644 H2635 0.929 . S
C2644 C2636 1.378 . S
C2644 C2639 1.350 . S
C2645 H2632 0.929 . S
C2645 C2637 1.433 . S
C2645 N2647 1.384 . S
N2646 C2642 1.427 . S
N2646 C2643 1.384 . S
N2647 C2639 1.427 1_545 S
N2647 C2645 1.384 . S
H2648 C2654 0.930 . S
H2649 C2658 0.930 . S
H2650 C2663 0.929 . S
H2651 C2661 0.929 . S
H2652 C2656 0.929 . S
H2653 C2662 0.924 1_565 S
C2654 H2648 0.930 . S
C2654 C2655 1.367 . S
C2654 C2662 1.378 . S
C2655 C2654 1.367 . S
C2655 C2663 1.433 . S
C2656 H2652 0.929 . S
C2656 C2658 1.378 . S
C2656 C2660 1.350 1_455 S
C2657 C2660 1.463 . S
C2657 C2662 1.350 . S
C2657 N2665 1.427 . S
C2658 H2649 0.930 . S
C2658 C2656 1.378 . S
C2658 C2659 1.367 1_545 S
C2659 C2658 1.367 1_565 S
C2659 C2661 1.433 . S
C2660 C2656 1.350 1_655 S
C2660 C2657 1.463 . S
C2660 N2664 1.427 1_645 S
C2661 H2651 0.929 . S
C2661 C2659 1.433 . S
C2661 N2664 1.384 . S
C2662 H2653 0.924 1_545 S
C2662 C2654 1.378 . S
C2662 C2657 1.350 . S
C2663 H2650 0.929 . S
C2663 C2655 1.433 . S
C2663 N2665 1.384 . S
N2664 C2660 1.427 1_465 S
N2664 C2661 1.384 . S
N2665 C2657 1.427 . S
N2665 C2663 1.384 . S
H2666 C2672 0.930 . S
H2667 C2676 0.930 . S
H2668 C2681 0.929 . S
H2669 C2679 0.929 . S
H2670 C2674 0.929 . S
H2671 C2680 0.929 . S
C2672 H2666 0.930 . S
C2672 C2673 1.367 . S
C2672 C2680 1.378 . S
C2673 C2672 1.367 . S
C2673 C2681 1.433 . S
C2674 H2670 0.929 . S
C2674 C2676 1.378 . S
C2674 C2678 1.350 . S
C2675 C2678 1.463 . S
C2675 C2680 1.350 . S
C2675 N2683 1.427 . S
C2676 H2667 0.930 . S
C2676 C2674 1.378 . S
C2676 C2677 1.367 . S
C2677 C2676 1.367 . S
C2677 C2679 1.433 . S
C2678 C2674 1.350 . S
C2678 C2675 1.463 . S
C2678 N2682 1.427 . S
C2679 H2669 0.929 . S
C2679 C2677 1.433 . S
C2679 N2682 1.384 . S
C2680 H2671 0.929 . S
C2680 C2672 1.378 . S
C2680 C2675 1.350 . S
C2681 H2668 0.929 . S
C2681 C2673 1.433 . S
C2681 N2683 1.384 . S
N2682 C2678 1.427 . S
N2682 C2679 1.384 . S
N2683 C2675 1.427 . S
N2683 C2681 1.384 . S
H2684 C2690 0.930 . S
H2685 C2694 0.930 . S
H2686 C2699 0.929 . S
H2687 C2697 0.929 . S
H2688 C2692 0.929 . S
H2689 C2698 0.929 1_655 S
C2690 H2684 0.930 . S
C2690 C2691 1.367 . S
C2690 C2698 1.378 . S
C2691 C2690 1.367 . S
C2691 C2699 1.433 . S
C2692 H2688 0.929 . S
C2692 C2694 1.378 . S
C2692 C2696 1.350 . S
C2693 C2696 1.463 . S
C2693 C2698 1.350 1_655 S
C2693 N2701 1.427 1_655 S
C2694 H2685 0.930 . S
C2694 C2692 1.378 . S
C2694 C2695 1.367 . S
C2695 C2694 1.367 . S
C2695 C2697 1.433 . S
C2696 C2692 1.350 . S
C2696 C2693 1.463 . S
C2696 N2700 1.427 . S
C2697 H2687 0.929 . S
C2697 C2695 1.433 . S
C2697 N2700 1.384 . S
C2698 H2689 0.929 1_455 S
C2698 C2690 1.378 . S
C2698 C2693 1.350 1_455 S
C2699 H2686 0.929 . S
C2699 C2691 1.433 . S
C2699 N2701 1.384 . S
N2700 C2696 1.427 . S
N2700 C2697 1.384 . S
N2701 C2693 1.427 1_455 S
N2701 C2699 1.384 . S
H2702 C2708 0.930 . S
H2703 C2712 0.930 . S
H2704 C2717 0.929 . S
H2705 C2715 0.929 . S
H2706 C2710 0.929 . S
H2707 C2716 0.929 . S
C2708 H2702 0.930 . S
C2708 C2709 1.367 . S
C2708 C2716 1.378 . S
C2709 C2708 1.367 . S
C2709 C2717 1.433 1_565 S
C2710 H2706 0.929 . S
C2710 C2712 1.378 . S
C2710 C2714 1.350 . S
C2711 C2714 1.463 . S
C2711 C2716 1.350 1_545 S
C2711 N2719 1.427 . S
C2712 H2703 0.930 . S
C2712 C2710 1.378 . S
C2712 C2713 1.367 . S
C2713 C2712 1.367 . S
C2713 C2715 1.433 1_545 S
C2714 C2710 1.350 . S
C2714 C2711 1.463 . S
C2714 N2718 1.427 1_545 S
C2715 H2705 0.929 . S
C2715 C2713 1.433 1_565 S
C2715 N2718 1.384 . S
C2716 H2707 0.929 . S
C2716 C2708 1.378 . S
C2716 C2711 1.350 1_565 S
C2717 H2704 0.929 . S
C2717 C2709 1.433 1_545 S
C2717 N2719 1.384 . S
N2718 C2714 1.427 1_565 S
N2718 C2715 1.384 . S
N2719 C2711 1.427 . S
N2719 C2717 1.384 . S
H2720 C2726 0.930 . S
H2721 C2730 0.930 . S
H2722 C2735 0.929 . S
H2723 C2733 0.929 . S
H2724 C2728 0.929 . S
H2725 C2734 0.929 . S
C2726 H2720 0.930 . S
C2726 C2727 1.367 1_655 S
C2726 C2734 1.378 . S
C2727 C2726 1.367 1_455 S
C2727 C2735 1.433 . S
C2728 H2724 0.929 . S
C2728 C2730 1.378 . S
C2728 C2732 1.350 1_455 S
C2729 C2732 1.463 1_454 S
C2729 C2734 1.350 1_455 S
C2729 N2737 1.427 . S
C2730 H2721 0.930 . S
C2730 C2728 1.378 . S
C2730 C2731 1.367 1_455 S
C2731 C2730 1.367 1_655 S
C2731 C2733 1.433 . S
C2732 C2728 1.350 1_655 S
C2732 C2729 1.463 1_656 S
C2732 N2736 1.427 . S
C2733 H2723 0.929 . S
C2733 C2731 1.433 . S
C2733 N2736 1.384 . S
C2734 H2725 0.929 . S
C2734 C2726 1.378 . S
C2734 C2729 1.350 1_655 S
C2735 H2722 0.929 . S
C2735 C2727 1.433 . S
C2735 N2737 1.384 . S
N2736 C2732 1.427 . S
N2736 C2733 1.384 . S
N2737 C2729 1.427 . S
N2737 C2735 1.384 . S
H2738 C2744 0.930 . S
H2739 C2748 0.930 . S
H2740 C2753 0.929 . S
H2741 C2751 0.929 . S
H2742 C2746 0.929 . S
H2743 C2752 0.929 . S
C2744 H2738 0.930 . S
C2744 C2745 1.367 . S
C2744 C2752 1.378 . S
C2745 C2744 1.367 . S
C2745 C2753 1.433 . S
C2746 H2742 0.929 . S
C2746 C2748 1.378 . S
C2746 C2750 1.350 . S
C2747 C2750 1.463 1_556 S
C2747 C2752 1.350 . S
C2747 N2755 1.427 . S
C2748 H2739 0.930 . S
C2748 C2746 1.378 . S
C2748 C2749 1.367 . S
C2749 C2748 1.367 . S
C2749 C2751 1.433 . S
C2750 C2746 1.350 . S
C2750 C2747 1.463 1_554 S
C2750 N2754 1.427 . S
C2751 H2741 0.929 . S
C2751 C2749 1.433 . S
C2751 N2754 1.384 . S
C2752 H2743 0.929 . S
C2752 C2744 1.378 . S
C2752 C2747 1.350 . S
C2753 H2740 0.929 . S
C2753 C2745 1.433 . S
C2753 N2755 1.384 . S
N2754 C2750 1.427 . S
N2754 C2751 1.384 . S
N2755 C2747 1.427 . S
N2755 C2753 1.384 . S
H2756 C2762 0.930 . S
H2757 C2766 0.930 . S
H2758 C2771 0.929 . S
H2759 C2769 0.929 . S
H2760 C2764 0.929 . S
H2761 C2770 0.929 . S
C2762 H2756 0.930 . S
C2762 C2763 1.367 1_455 S
C2762 C2770 1.378 . S
C2763 C2762 1.367 1_655 S
C2763 C2771 1.433 . S
C2764 H2760 0.929 . S
C2764 C2766 1.378 . S
C2764 C2768 1.350 1_655 S
C2765 C2768 1.463 1_655 S
C2765 C2770 1.350 1_655 S
C2765 N2773 1.427 . S
C2766 H2757 0.930 . S
C2766 C2764 1.378 . S
C2766 C2767 1.367 1_655 S
C2767 C2766 1.367 1_455 S
C2767 C2769 1.433 . S
C2768 C2764 1.350 1_455 S
C2768 C2765 1.463 1_455 S
C2768 N2772 1.427 . S
C2769 H2759 0.929 . S
C2769 C2767 1.433 . S
C2769 N2772 1.384 . S
C2770 H2761 0.929 . S
C2770 C2762 1.378 . S
C2770 C2765 1.350 1_455 S
C2771 H2758 0.929 . S
C2771 C2763 1.433 . S
C2771 N2773 1.384 . S
N2772 C2768 1.427 . S
N2772 C2769 1.384 . S
N2773 C2765 1.427 . S
N2773 C2771 1.384 . S
H2774 C2780 0.930 . S
H2775 C2784 0.930 . S
H2776 C2789 0.929 . S
H2777 C2787 0.929 . S
H2778 C2782 0.929 . S
H2779 C2788 0.929 . S
C2780 H2774 0.930 . S
C2780 C2781 1.367 . S
C2780 C2788 1.378 . S
C2781 C2780 1.367 . S
C2781 C2789 1.433 . S
C2782 H2778 0.929 . S
C2782 C2784 1.378 . S
C2782 C2786 1.350 . S
C2783 C2786 1.463 . S
C2783 C2788 1.350 . S
C2783 N2791 1.427 . S
C2784 H2775 0.930 . S
C2784 C2782 1.378 . S
C2784 C2785 1.367 . S
C2785 C2784 1.367 . S
C2785 C2787 1.433 . S
C2786 C2782 1.350 . S
C2786 C2783 1.463 . S
C2786 N2790 1.427 . S
C2787 H2777 0.929 . S
C2787 C2785 1.433 . S
C2787 N2790 1.384 . S
C2788 H2779 0.929 . S
C2788 C2780 1.378 . S
C2788 C2783 1.350 . S
C2789 H2776 0.929 . S
C2789 C2781 1.433 . S
C2789 N2791 1.384 . S
N2790 C2786 1.427 . S
N2790 C2787 1.384 . S
N2791 C2783 1.427 . S
N2791 C2789 1.384 . S
H2792 C2798 0.930 . S
H2793 C2802 0.930 . S
H2794 C2807 0.929 . S
H2795 C2805 0.929 . S
H2796 C2800 0.929 . S
H2797 C2806 0.929 . S
C2798 H2792 0.930 . S
C2798 C2799 1.367 . S
C2798 C2806 1.378 . S
C2799 C2798 1.367 . S
C2799 C2807 1.433 . S
C2800 H2796 0.929 . S
C2800 C2802 1.378 . S
C2800 C2804 1.350 . S
C2801 C2804 1.463 1_556 S
C2801 C2806 1.350 . S
C2801 N2809 1.427 . S
C2802 H2793 0.930 . S
C2802 C2800 1.378 . S
C2802 C2803 1.367 . S
C2803 C2802 1.367 . S
C2803 C2805 1.433 . S
C2804 C2800 1.350 . S
C2804 C2801 1.463 1_554 S
C2804 N2808 1.427 . S
C2805 H2795 0.929 . S
C2805 C2803 1.433 . S
C2805 N2808 1.384 . S
C2806 H2797 0.929 . S
C2806 C2798 1.378 . S
C2806 C2801 1.350 . S
C2807 H2794 0.929 . S
C2807 C2799 1.433 . S
C2807 N2809 1.384 . S
N2808 C2804 1.427 . S
N2808 C2805 1.384 . S
N2809 C2801 1.427 . S
N2809 C2807 1.384 . S
H2810 C2816 0.930 . S
H2811 C2820 0.930 . S
H2812 C2825 0.929 . S
H2813 C2823 0.929 . S
H2814 C2818 0.929 . S
H2815 C2824 0.929 . S
C2816 H2810 0.930 . S
C2816 C2817 1.367 . S
C2816 C2824 1.378 . S
C2817 C2816 1.367 . S
C2817 C2825 1.433 . S
C2818 H2814 0.929 . S
C2818 C2820 1.378 . S
C2818 C2822 1.350 . S
C2819 C2822 1.463 1_655 S
C2819 C2824 1.350 . S
C2819 N2827 1.427 . S
C2820 H2811 0.930 . S
C2820 C2818 1.378 . S
C2820 C2821 1.367 . S
C2821 C2820 1.367 . S
C2821 C2823 1.433 . S
C2822 C2818 1.350 . S
C2822 C2819 1.463 1_455 S
C2822 N2826 1.427 . S
C2823 H2813 0.929 . S
C2823 C2821 1.433 . S
C2823 N2826 1.384 . S
C2824 H2815 0.929 . S
C2824 C2816 1.378 . S
C2824 C2819 1.350 . S
C2825 H2812 0.929 . S
C2825 C2817 1.433 . S
C2825 N2827 1.384 . S
N2826 C2822 1.427 . S
N2826 C2823 1.384 . S
N2827 C2819 1.427 . S
N2827 C2825 1.384 . S
H2828 C2834 0.930 . S
H2829 C2838 0.930 . S
H2830 C2843 0.929 . S
H2831 C2841 0.929 . S
H2832 C2836 0.929 . S
H2833 C2842 0.929 . S
C2834 H2828 0.930 . S
C2834 C2835 1.367 . S
C2834 C2842 1.378 . S
C2835 C2834 1.367 . S
C2835 C2843 1.433 . S
C2836 H2832 0.929 . S
C2836 C2838 1.378 . S
C2836 C2840 1.350 . S
C2837 C2840 1.463 . S
C2837 C2842 1.350 . S
C2837 N2845 1.427 . S
C2838 H2829 0.930 . S
C2838 C2836 1.378 . S
C2838 C2839 1.367 . S
C2839 C2838 1.367 . S
C2839 C2841 1.433 . S
C2840 C2836 1.350 . S
C2840 C2837 1.463 . S
C2840 N2844 1.427 . S
C2841 H2831 0.929 . S
C2841 C2839 1.433 . S
C2841 N2844 1.384 . S
C2842 H2833 0.929 . S
C2842 C2834 1.378 . S
C2842 C2837 1.350 . S
C2843 H2830 0.929 . S
C2843 C2835 1.433 . S
C2843 N2845 1.384 . S
N2844 C2840 1.427 . S
N2844 C2841 1.384 . S
N2845 C2837 1.427 . S
N2845 C2843 1.384 . S
H2846 C2852 0.930 . S
H2847 C2856 0.930 . S
H2848 C2861 0.929 . S
H2849 C2859 0.929 . S
H2850 C2854 0.929 . S
H2851 C2860 0.929 . S
C2852 H2846 0.930 . S
C2852 C2853 1.367 1_545 S
C2852 C2860 1.378 . S
C2853 C2852 1.367 1_565 S
C2853 C2861 1.433 1_455 S
C2854 H2850 0.929 . S
C2854 C2856 1.378 . S
C2854 C2858 1.351 1_565 S
C2855 C2858 1.463 1_465 S
C2855 C2860 1.351 1_565 S
C2855 N2863 1.426 1_455 S
C2856 H2847 0.930 . S
C2856 C2854 1.378 . S
C2856 C2857 1.367 1_565 S
C2857 C2856 1.367 1_545 S
C2857 C2859 1.433 1_655 S
C2858 C2854 1.351 1_545 S
C2858 C2855 1.463 1_645 S
C2858 N2862 1.426 1_655 S
C2859 H2849 0.929 . S
C2859 C2857 1.433 1_455 S
C2859 N2862 1.384 . S
C2860 H2851 0.929 . S
C2860 C2852 1.378 . S
C2860 C2855 1.351 1_545 S
C2861 H2848 0.929 . S
C2861 C2853 1.433 1_655 S
C2861 N2863 1.384 . S
N2862 C2858 1.426 1_455 S
N2862 C2859 1.384 . S
N2863 C2855 1.426 1_655 S
N2863 C2861 1.384 . S
H2864 C2870 0.930 . S
H2865 C2874 0.930 . S
H2866 C2879 0.929 . S
H2867 C2877 0.929 . S
H2868 C2872 0.929 . S
H2869 C2878 0.929 . S
C2870 H2864 0.930 . S
C2870 C2871 1.367 . S
C2870 C2878 1.378 . S
C2871 C2870 1.367 . S
C2871 C2879 1.433 . S
C2872 H2868 0.929 . S
C2872 C2874 1.378 . S
C2872 C2876 1.350 . S
C2873 C2876 1.463 . S
C2873 C2878 1.350 . S
C2873 N2881 1.427 . S
C2874 H2865 0.930 . S
C2874 C2872 1.378 . S
C2874 C2875 1.367 . S
C2875 C2874 1.367 . S
C2875 C2877 1.433 . S
C2876 C2872 1.350 . S
C2876 C2873 1.463 . S
C2876 N2880 1.427 . S
C2877 H2867 0.929 . S
C2877 C2875 1.433 . S
C2877 N2880 1.384 . S
C2878 H2869 0.929 . S
C2878 C2870 1.378 . S
C2878 C2873 1.350 . S
C2879 H2866 0.929 . S
C2879 C2871 1.433 . S
C2879 N2881 1.384 . S
N2880 C2876 1.427 . S
N2880 C2877 1.384 . S
N2881 C2873 1.427 . S
N2881 C2879 1.384 . S
H2882 C2888 0.930 . S
H2883 C2892 0.930 . S
H2884 C2897 0.929 . S
H2885 C2895 0.929 . S
H2886 C2890 0.929 . S
H2887 C2896 0.929 . S
C2888 H2882 0.930 . S
C2888 C2889 1.367 1_565 S
C2888 C2896 1.378 . S
C2889 C2888 1.367 1_545 S
C2889 C2897 1.433 . S
C2890 H2886 0.929 . S
C2890 C2892 1.378 . S
C2890 C2894 1.346 1_545 S
C2891 C2894 1.462 1_545 S
C2891 C2896 1.346 1_545 S
C2891 N2899 1.432 . S
C2892 H2883 0.930 . S
C2892 C2890 1.378 . S
C2892 C2893 1.367 1_545 S
C2893 C2892 1.367 1_565 S
C2893 C2895 1.433 . S
C2894 C2890 1.346 1_565 S
C2894 C2891 1.462 1_565 S
C2894 N2898 1.432 . S
C2895 H2885 0.929 . S
C2895 C2893 1.433 . S
C2895 N2898 1.384 . S
C2896 H2887 0.929 . S
C2896 C2888 1.378 . S
C2896 C2891 1.346 1_565 S
C2897 H2884 0.929 . S
C2897 C2889 1.433 . S
C2897 N2899 1.384 . S
N2898 C2894 1.432 . S
N2898 C2895 1.384 . S
N2899 C2891 1.432 . S
N2899 C2897 1.384 . S
H2900 C2906 0.930 . S
H2901 C2910 0.930 . S
H2902 C2915 0.929 . S
H2903 C2913 0.929 . S
H2904 C2908 0.929 . S
H2905 C2914 0.929 . S
C2906 H2900 0.930 . S
C2906 C2907 1.367 . S
C2906 C2914 1.378 . S
C2907 C2906 1.367 . S
C2907 C2915 1.433 . S
C2908 H2904 0.929 . S
C2908 C2910 1.378 . S
C2908 C2912 1.350 . S
C2909 C2912 1.463 . S
C2909 C2914 1.350 . S
C2909 N2917 1.427 . S
C2910 H2901 0.930 . S
C2910 C2908 1.378 . S
C2910 C2911 1.367 . S
C2911 C2910 1.367 . S
C2911 C2913 1.433 . S
C2912 C2908 1.350 . S
C2912 C2909 1.463 . S
C2912 N2916 1.427 . S
C2913 H2903 0.929 . S
C2913 C2911 1.433 . S
C2913 N2916 1.384 . S
C2914 H2905 0.929 . S
C2914 C2906 1.378 . S
C2914 C2909 1.350 . S
C2915 H2902 0.929 . S
C2915 C2907 1.433 . S
C2915 N2917 1.384 . S
N2916 C2912 1.427 . S
N2916 C2913 1.384 . S
N2917 C2909 1.427 . S
N2917 C2915 1.384 . S
H2918 C2924 0.930 . S
H2919 C2928 0.930 . S
H2920 C2933 0.929 . S
H2921 C2931 0.929 . S
H2922 C2926 0.929 . S
H2923 C2932 0.929 . S
C2924 H2918 0.930 . S
C2924 C2925 1.367 1_545 S
C2924 C2932 1.378 . S
C2925 C2924 1.367 1_565 S
C2925 C2933 1.433 . S
C2926 H2922 0.929 . S
C2926 C2928 1.378 . S
C2926 C2930 1.346 . S
C2927 C2930 1.463 1_545 S
C2927 C2932 1.346 . S
C2927 N2935 1.432 1_545 S
C2928 H2919 0.930 . S
C2928 C2926 1.378 . S
C2928 C2929 1.367 1_565 S
C2929 C2928 1.367 1_545 S
C2929 C2931 1.433 . S
C2930 C2926 1.346 . S
C2930 C2927 1.463 1_565 S
C2930 N2934 1.432 1_565 S
C2931 H2921 0.929 . S
C2931 C2929 1.433 . S
C2931 N2934 1.384 . S
C2932 H2923 0.929 . S
C2932 C2924 1.378 . S
C2932 C2927 1.346 . S
C2933 H2920 0.929 . S
C2933 C2925 1.433 . S
C2933 N2935 1.384 . S
N2934 C2930 1.432 1_545 S
N2934 C2931 1.384 . S
N2935 C2927 1.432 1_565 S
N2935 C2933 1.384 . S
H2936 C2942 0.930 . S
H2937 C2946 0.930 . S
H2938 C2951 0.929 . S
H2939 C2949 0.929 . S
H2940 C2944 0.929 . S
H2941 C2950 0.929 . S
C2942 H2936 0.930 . S
C2942 C2943 1.367 . S
C2942 C2950 1.378 . S
C2943 C2942 1.367 . S
C2943 C2951 1.433 . S
C2944 H2940 0.929 . S
C2944 C2946 1.378 . S
C2944 C2948 1.350 . S
C2945 C2948 1.463 . S
C2945 C2950 1.350 . S
C2945 N2953 1.427 . S
C2946 H2937 0.930 . S
C2946 C2944 1.378 . S
C2946 C2947 1.367 . S
C2947 C2946 1.367 . S
C2947 C2949 1.433 . S
C2948 C2944 1.350 . S
C2948 C2945 1.463 . S
C2948 N2952 1.427 . S
C2949 H2939 0.929 . S
C2949 C2947 1.433 . S
C2949 N2952 1.384 . S
C2950 H2941 0.929 . S
C2950 C2942 1.378 . S
C2950 C2945 1.350 . S
C2951 H2938 0.929 . S
C2951 C2943 1.433 . S
C2951 N2953 1.384 . S
N2952 C2948 1.427 . S
N2952 C2949 1.384 . S
N2953 C2945 1.427 . S
N2953 C2951 1.384 . S
H2954 C2960 0.930 . S
H2955 C2964 0.930 . S
H2956 C2969 0.929 . S
H2957 C2967 0.929 . S
H2958 C2962 0.929 . S
H2959 C2968 0.929 . S
C2960 H2954 0.930 . S
C2960 C2961 1.367 . S
C2960 C2968 1.378 . S
C2961 C2960 1.367 . S
C2961 C2969 1.433 . S
C2962 H2958 0.929 . S
C2962 C2964 1.378 . S
C2962 C2966 1.350 . S
C2963 C2966 1.463 . S
C2963 C2968 1.350 . S
C2963 N2971 1.427 . S
C2964 H2955 0.930 . S
C2964 C2962 1.378 . S
C2964 C2965 1.367 . S
C2965 C2964 1.367 . S
C2965 C2967 1.433 . S
C2966 C2962 1.350 . S
C2966 C2963 1.463 . S
C2966 N2970 1.427 . S
C2967 H2957 0.929 . S
C2967 C2965 1.433 . S
C2967 N2970 1.384 . S
C2968 H2959 0.929 . S
C2968 C2960 1.378 . S
C2968 C2963 1.350 . S
C2969 H2956 0.929 . S
C2969 C2961 1.433 . S
C2969 N2971 1.384 . S
N2970 C2966 1.427 . S
N2970 C2967 1.384 . S
N2971 C2963 1.427 . S
N2971 C2969 1.384 . S
H2972 C2978 0.930 . S
H2973 C2982 0.930 . S
H2974 C2987 0.929 . S
H2975 C2985 0.929 . S
H2976 C2980 0.929 . S
H2977 C2986 0.929 . S
C2978 H2972 0.930 . S
C2978 C2979 1.367 . S
C2978 C2986 1.378 . S
C2979 C2978 1.367 . S
C2979 C2987 1.433 . S
C2980 H2976 0.929 . S
C2980 C2982 1.378 . S
C2980 C2984 1.350 . S
C2981 C2984 1.463 . S
C2981 C2986 1.350 . S
C2981 N2989 1.427 . S
C2982 H2973 0.930 . S
C2982 C2980 1.378 . S
C2982 C2983 1.367 . S
C2983 C2982 1.367 . S
C2983 C2985 1.433 . S
C2984 C2980 1.350 . S
C2984 C2981 1.463 . S
C2984 N2988 1.427 . S
C2985 H2975 0.929 . S
C2985 C2983 1.433 . S
C2985 N2988 1.384 . S
C2986 H2977 0.929 . S
C2986 C2978 1.378 . S
C2986 C2981 1.350 . S
C2987 H2974 0.929 . S
C2987 C2979 1.433 . S
C2987 N2989 1.384 . S
N2988 C2984 1.427 . S
N2988 C2985 1.384 . S
N2989 C2981 1.427 . S
N2989 C2987 1.384 . S
H2990 C2996 0.930 . S
H2991 C3000 0.930 . S
H2992 C3005 0.929 . S
H2993 C3003 0.929 . S
H2994 C2998 0.929 . S
H2995 C3004 0.929 . S
C2996 H2990 0.930 . S
C2996 C2997 1.367 . S
C2996 C3004 1.378 . S
C2997 C2996 1.367 . S
C2997 C3005 1.433 1_565 S
C2998 H2994 0.929 . S
C2998 C3000 1.378 . S
C2998 C3002 1.350 . S
C2999 C3002 1.463 1_564 S
C2999 C3004 1.350 . S
C2999 N3007 1.427 1_565 S
C3000 H2991 0.930 . S
C3000 C2998 1.378 . S
C3000 C3001 1.367 . S
C3001 C3000 1.367 . S
C3001 C3003 1.433 1_545 S
C3002 C2998 1.350 . S
C3002 C2999 1.463 1_546 S
C3002 N3006 1.427 1_545 S
C3003 H2993 0.929 . S
C3003 C3001 1.433 1_565 S
C3003 N3006 1.384 . S
C3004 H2995 0.929 . S
C3004 C2996 1.378 . S
C3004 C2999 1.350 . S
C3005 H2992 0.929 . S
C3005 C2997 1.433 1_545 S
C3005 N3007 1.384 . S
N3006 C3002 1.427 1_565 S
N3006 C3003 1.384 . S
N3007 C2999 1.427 1_545 S
N3007 C3005 1.384 . S
C1287 C10 1.551 . S
C1291 C1010 1.550 . S
C1305 C970 1.549 . S
C1309 C50 1.553 . S
C1323 C1090 1.553 . S
C1327 C90 1.549 . S
C1341 C130 1.551 . S
C1345 C1050 1.551 . S
C1359 C179 1.549 . S
C1363 C1179 1.553 . S
C1377 C219 1.553 . S
C1381 C1139 1.549 . S
C1395 C259 1.553 . S
C1399 C1259 1.549 . S
C1413 C1219 1.553 . S
C1417 C299 1.549 . S
C1431 C330 1.552 . S
C1435 C690 1.551 . S
C1449 C370 1.553 . S
C1453 C650 1.549 . S
C1467 C410 1.549 . S
C1471 C770 1.553 . S
C1485 C730 1.553 . S
C1489 C450 1.549 . S
C1503 C499 1.553 . S
C1507 C859 1.549 . S
C1521 C539 1.553 . S
C1525 C819 1.549 . S
C1539 C939 1.550 . S
C1543 C579 1.552 . S
C1557 C619 1.553 . S
C1561 C899 1.549 . S
C1575 C9 1.607 . S
C1579 C129 1.599 . S
C1593 C49 1.607 . S
C1597 C89 1.598 . S
C1611 C298 1.604 . S
C1615 C178 1.599 . S
C1629 C258 1.599 . S
C1633 C218 1.607 . S
C1647 C329 1.603 . S
C1651 C449 1.599 . S
C1665 C369 1.598 . S
C1669 C409 1.606 . S
C1683 C498 1.600 . S
C1687 C618 1.602 . S
C1701 C578 1.598 . S
C1705 C538 1.607 . S
C1719 C649 1.605 . S
C1723 C769 1.602 . S
C1737 C689 1.598 . S
C1741 C729 1.605 . S
C1755 C938 1.599 . S
C1759 C818 1.607 . S
C1773 C858 1.605 . S
C1777 C898 1.598 . S
C1791 C1089 1.598 . S
C1795 C969 1.604 . S
C1809 C1009 1.599 . S
C1813 C1049 1.603 . S
C1827 C1258 1.600 . S
C1831 C1138 1.602 . S
C1845 C1218 1.598 . S
C1849 C1178 1.607 . S
C1863 C59 1.615 . S
C1867 C19 1.619 . S
C1881 C99 1.625 . S
C1885 C139 1.622 . S
C1899 C210 1.618 . S
C1903 C170 1.614 . S
C1917 C290 1.617 . S
C1921 C250 1.614 . S
C1935 C339 1.625 . S
C1939 C379 1.623 . S
C1953 C419 1.614 . S
C1957 C459 1.618 . S
C1971 C530 1.620 . S
C1975 C490 1.624 . S
C1989 C570 1.616 . S
C1993 C610 1.613 . S
C2007 C659 1.613 . S
C2011 C699 1.614 . S
C2025 C779 1.614 . S
C2029 C739 1.613 . S
C2043 C810 1.625 . S
C2047 C850 1.622 . S
C2061 C890 1.618 . S
C2065 C930 1.622 . S
C2079 C979 1.624 . S
C2083 C1019 1.621 . S
C2097 C1059 1.614 . S
C2101 C1099 1.618 . S
C2115 C1170 1.615 . S
C2119 C1130 1.613 . S
C2133 C1210 1.621 . S
C2137 C1250 1.617 . S
C2151 C6 1.667 . S
C2155 C15 1.667 . S
C2169 C46 1.663 . S
C2173 C55 1.663 . S
C2187 C86 1.667 . S
C2191 C95 1.667 . S
C2205 C135 1.667 . S
C2209 C126 1.667 . S
C2223 C166 1.668 . S
C2227 C175 1.668 . S
C2241 C215 1.666 . S
C2245 C206 1.666 . S
C2259 C246 1.671 . S
C2263 C255 1.671 . S
C2277 C286 1.668 . S
C2281 C295 1.668 . S
C2295 C335 1.664 . S
C2299 C326 1.664 . S
C2313 C366 1.665 . S
C2317 C375 1.665 . S
C2331 C406 1.668 . S
C2335 C415 1.668 . S
C2349 C455 1.673 . S
C2353 C446 1.673 . S
C2367 C486 1.664 . S
C2371 C495 1.664 . S
C2385 C535 1.667 . S
C2389 C526 1.667 . S
C2403 C575 1.672 . S
C2407 C566 1.672 . S
C2421 C606 1.669 . S
C2425 C615 1.669 . S
C2439 C646 1.673 . S
C2443 C655 1.673 . S
C2457 C695 1.669 . S
C2461 C686 1.669 . S
C2475 C735 1.673 . S
C2479 C726 1.673 . S
C2493 C766 1.672 . S
C2497 C775 1.672 . S
C2511 C815 1.669 . S
C2515 C806 1.669 . S
C2529 C855 1.664 . S
C2533 C846 1.664 . S
C2547 C886 1.668 . S
C2551 C895 1.668 . S
C2565 C935 1.671 . S
C2569 C926 1.671 . S
C2583 C975 1.671 . S
C2587 C966 1.671 . S
C2601 C1006 1.663 . S
C2605 C1015 1.663 . S
C2619 C1055 1.665 . S
C2623 C1046 1.665 . S
C2637 C1095 1.664 . S
C2641 C1086 1.664 . S
C2655 C1135 1.665 . S
C2659 C1126 1.665 . S
C2673 C1175 1.670 . S
C2677 C1166 1.670 . S
C2691 C1206 1.673 . S
C2695 C1215 1.673 . S
C2709 C1246 1.672 . S
C2713 C1255 1.672 . S
C2727 C18 1.477 . S
C2731 C169 1.477 . S
C2745 C1169 1.481 . S
C2749 C58 1.481 . S
C2763 C569 1.481 . S
C2767 C98 1.481 . S
C2781 C138 1.474 . S
C2785 C929 1.474 . S
C2799 C209 1.468 . S
C2803 C1018 1.468 . S
C2817 C249 1.469 . S
C2821 C418 1.469 . S
C2835 C289 1.470 . S
C2839 C778 1.470 . S
C2853 C338 1.475 . S
C2857 C489 1.475 . S
C2871 C849 1.480 . S
C2875 C378 1.480 . S
C2889 C1249 1.481 . S
C2893 C458 1.481 . S
C2907 C529 1.466 . S
C2911 C698 1.466 . S
C2925 C1098 1.477 . S
C2929 C609 1.477 . S
C2943 C658 1.472 . S
C2947 C809 1.472 . S
C2961 C1209 1.481 . S
C2965 C738 1.481 . S
C2979 C889 1.466 . S
C2983 C1058 1.466 . S
C2997 C978 1.476 . S
C3001 C1129 1.476 . S
