# Generated by pormake.
# Topology sod, (4)-cn, num edge types: 1
# Building blocks:
#     Node 0, Type 0, BuildingBlock: QUQFOY_clean_sbu_3, # of connection points: 4
#     Node 1, Type 0, BuildingBlock: QUQFOY_clean_sbu_3, # of connection points: 4
#     Node 2, Type 0, BuildingBlock: QUQFOY_clean_sbu_3, # of connection points: 4
#     Node 3, Type 0, BuildingBlock: QUQFOY_clean_sbu_3, # of connection points: 4
#     Node 4, Type 0, BuildingBlock: QUQFOY_clean_sbu_3, # of connection points: 4
#     Node 5, Type 0, BuildingBlock: QUQFOY_clean_sbu_3, # of connection points: 4
#     Node 6, Type 0, BuildingBlock: QUQFOY_clean_sbu_3, # of connection points: 4
#     Node 7, Type 0, BuildingBlock: QUQFOY_clean_sbu_3, # of connection points: 4
#     Node 8, Type 0, BuildingBlock: QUQFOY_clean_sbu_3, # of connection points: 4
#     Node 9, Type 0, BuildingBlock: QUQFOY_clean_sbu_3, # of connection points: 4
#     Node 10, Type 0, BuildingBlock: QUQFOY_clean_sbu_3, # of connection points: 4
#     Node 11, Type 0, BuildingBlock: QUQFOY_clean_sbu_3, # of connection points: 4
#     Edge 12, Type (0, 0), BuildingBlock: XUDNAN_clean_linker_2, # of connection points: 2
#     Edge 13, Type (0, 0), BuildingBlock: XUDNAN_clean_linker_2, # of connection points: 2
#     Edge 14, Type (0, 0), BuildingBlock: XUDNAN_clean_linker_2, # of connection points: 2
#     Edge 15, Type (0, 0), BuildingBlock: XUDNAN_clean_linker_2, # of connection points: 2
#     Edge 16, Type (0, 0), BuildingBlock: XUDNAN_clean_linker_2, # of connection points: 2
#     Edge 17, Type (0, 0), BuildingBlock: XUDNAN_clean_linker_2, # of connection points: 2
#     Edge 18, Type (0, 0), BuildingBlock: XUDNAN_clean_linker_2, # of connection points: 2
#     Edge 19, Type (0, 0), BuildingBlock: XUDNAN_clean_linker_2, # of connection points: 2
#     Edge 20, Type (0, 0), BuildingBlock: XUDNAN_clean_linker_2, # of connection points: 2
#     Edge 21, Type (0, 0), BuildingBlock: XUDNAN_clean_linker_2, # of connection points: 2
#     Edge 22, Type (0, 0), BuildingBlock: XUDNAN_clean_linker_2, # of connection points: 2
#     Edge 23, Type (0, 0), BuildingBlock: XUDNAN_clean_linker_2, # of connection points: 2
#     Edge 24, Type (0, 0), BuildingBlock: XUDNAN_clean_linker_2, # of connection points: 2
#     Edge 25, Type (0, 0), BuildingBlock: XUDNAN_clean_linker_2, # of connection points: 2
#     Edge 26, Type (0, 0), BuildingBlock: XUDNAN_clean_linker_2, # of connection points: 2
#     Edge 27, Type (0, 0), BuildingBlock: XUDNAN_clean_linker_2, # of connection points: 2
#     Edge 28, Type (0, 0), BuildingBlock: XUDNAN_clean_linker_2, # of connection points: 2
#     Edge 29, Type (0, 0), BuildingBlock: XUDNAN_clean_linker_2, # of connection points: 2
#     Edge 30, Type (0, 0), BuildingBlock: XUDNAN_clean_linker_2, # of connection points: 2
#     Edge 31, Type (0, 0), BuildingBlock: XUDNAN_clean_linker_2, # of connection points: 2
#     Edge 32, Type (0, 0), BuildingBlock: XUDNAN_clean_linker_2, # of connection points: 2
#     Edge 33, Type (0, 0), BuildingBlock: XUDNAN_clean_linker_2, # of connection points: 2
#     Edge 34, Type (0, 0), BuildingBlock: XUDNAN_clean_linker_2, # of connection points: 2
#     Edge 35, Type (0, 0), BuildingBlock: XUDNAN_clean_linker_2, # of connection points: 2
# Relax obj value: 0.139
# Max RMSD: 0.178
# Mean RMSD: 0.168
data_MOF--net-sod--node1-QUQFOY_clean_sbu_3--edge1-XUDNAN_clean_linker_2
_symmetry_space_group_name_H-M    P1
_symmetry_Int_Tables_number       1
_symmetry_cell_setting            triclinic
loop_
_symmetry_equiv_pos_as_xyz
'x, y, z'
_cell_length_a     43.756709
_cell_length_b     44.106146
_cell_length_c     43.72897
_cell_angle_alpha  92.788676
_cell_angle_beta   89.908175
_cell_angle_gamma 91.374584
loop_
_atom_site_label
_atom_site_type_symbol
_atom_site_fract_x
_atom_site_fract_y
_atom_site_fract_z
_atom_type_partial_charge
C0 C 0.97745 0.20856 0.51745 0.0
O1 O -0.01077 0.20742 0.54387 0.0
Cd2 Cd 0.03336 0.23754 0.55909 0.0
O3 O -0.01026 0.22511 0.49748 0.0
Cd4 Cd 0.03545 0.25925 0.49427 0.0
C5 C 0.08692 0.20624 0.51274 0.0
O6 O 0.0226 0.28764 0.54159 0.0
O7 O 0.06523 0.30099 0.52088 0.0
O8 O 0.00819 0.28492 0.45418 0.0
C9 C 0.04461 0.30668 0.54057 0.0
O10 O 0.07826 0.20986 0.54042 0.0
C11 C 0.03081 0.28524 0.43593 0.0
O12 O 0.0739 0.22031 0.49193 0.0
O13 O 0.0551 0.27328 0.44482 0.0
C14 C 0.69511 0.04504 0.44524 0.0
O15 O 0.69049 0.07155 0.45666 0.0
Cd16 Cd 0.71916 0.09116 0.50006 0.0
O17 O 0.71428 0.02793 0.45743 0.0
Cd18 Cd 0.75038 0.02801 0.5013 0.0
C19 C 0.69484 0.04248 0.55387 0.0
O20 O 0.77063 0.07679 0.48651 0.0
O21 O 0.79163 0.05932 0.52635 0.0
O22 O 0.77257 -0.01126 0.46779 0.0
C23 C 0.79171 0.07912 0.50629 0.0
O24 O 0.69425 0.06923 0.54427 0.0
C25 C 0.7823 0.97296 0.48908 0.0
O26 O 0.71247 0.02298 0.5415 0.0
O27 O 0.77748 0.9829 0.51634 0.0
C28 C 0.91181 0.79431 0.47358 0.0
O29 O 0.92073 0.78186 0.44847 0.0
Cd30 Cd 0.95848 0.74498 0.44169 0.0
O31 O 0.92354 0.78721 0.49896 0.0
Cd32 Cd 0.96434 0.74988 0.51109 0.0
C33 C 0.01891 0.78646 0.47163 0.0
O34 O 0.94477 0.70847 0.47814 0.0
O35 O -0.00794 0.70444 0.48965 0.0
O36 O 0.94097 0.7319 0.55831 0.0
C37 C 0.96774 0.69183 0.47899 0.0
O38 O 0.00764 0.77225 0.44808 0.0
C39 C 0.96503 0.73581 0.57436 0.0
O40 O 0.00623 0.7843 0.49763 0.0
O41 O -0.01222 0.74838 0.56163 0.0
C42 C 0.30933 0.94375 0.45968 0.0
O43 O 0.30358 0.91872 0.47193 0.0
Cd44 Cd 0.25984 0.90595 0.5011 0.0
O45 O 0.29164 0.9662 0.46416 0.0
Cd46 Cd 0.24465 0.97286 0.49724 0.0
C47 C 0.27717 0.95073 0.56306 0.0
O48 O 0.21987 0.92827 0.47299 0.0
O49 O 0.19498 0.94714 0.51133 0.0
O50 O 0.22939 0.01619 0.46735 0.0
C51 C 0.19533 0.92883 0.4881 0.0
O52 O 0.27114 0.92349 0.55378 0.0
C53 C 0.22097 0.03216 0.49072 0.0
O54 O 0.27219 0.97244 0.54582 0.0
O55 O 0.22448 0.02085 0.51654 0.0
C56 C 0.5567 -0.0076 0.27441 0.0
O57 O 0.55362 0.96528 0.26362 0.0
Cd58 Cd 0.5102 0.94484 0.23784 0.0
O59 O 0.53631 0.01199 0.26978 0.0
Cd60 Cd 0.48712 0.01226 0.23931 0.0
C61 C 0.4557 0.9673 0.29136 0.0
O62 O 0.5041 0.97859 0.19779 0.0
O63 O 0.4555 0.98252 0.20027 0.0
O64 O 0.50109 0.06154 0.21894 0.0
C65 C 0.47846 0.97261 0.18554 0.0
O66 O 0.47115 0.9464 0.27803 0.0
C67 C 0.47476 0.07272 0.22247 0.0
O68 O 0.45748 -0.00563 0.28258 0.0
O69 O 0.45472 0.05638 0.23532 0.0
C70 C 0.0517 0.529 0.22286 0.0
O71 O 0.04181 0.55552 0.22842 0.0
Cd72 Cd -0.00319 0.56435 0.2582 0.0
O73 O 0.03776 0.50599 0.23331 0.0
Cd74 Cd -0.00733 0.49412 0.26559 0.0
C75 C 0.94391 0.52194 0.21499 0.0
O76 O 0.00376 0.53591 0.30298 0.0
O77 O 0.96067 0.51222 0.30858 0.0
O78 O 0.02587 0.45372 0.27995 0.0
C79 C 0.98016 0.53167 0.31913 0.0
O80 O 0.95392 0.54789 0.22505 0.0
C81 C 0.00449 0.43455 0.28453 0.0
O82 O 0.95514 0.4978 0.22457 0.0
O83 O 0.97742 0.44268 0.27939 0.0
C84 C 0.53131 0.02044 0.70562 0.0
O85 O 0.51793 0.04569 0.70777 0.0
Cd86 Cd 0.48039 0.0589 0.74509 0.0
O87 O 0.52403 -0.00072 0.72338 0.0
Cd88 Cd 0.48582 -0.00576 0.76567 0.0
C89 C 0.42286 0.011 0.72361 0.0
O90 O 0.5037 0.04121 0.79119 0.0
O91 O 0.46486 0.02032 0.81283 0.0
O92 O 0.51527 0.95432 0.78927 0.0
C93 C 0.48649 0.03996 0.8143 0.0
O94 O 0.43115 0.03884 0.72472 0.0
C95 C 0.49269 0.93565 0.78965 0.0
O96 O 0.43938 -0.00846 0.73559 0.0
O97 O 0.46778 0.94424 0.7786 0.0
C98 C 0.04087 0.50321 0.79912 0.0
O99 O 0.04171 0.4751 0.79156 0.0
Cd100 Cd 0.01379 0.45234 0.7497 0.0
O101 O 0.02498 0.52101 0.78374 0.0
Cd102 Cd -0.00862 0.51742 0.73732 0.0
C103 C 0.94199 0.47219 0.7742 0.0
O104 O 0.02583 0.48462 0.70872 0.0
O105 O 0.9808 0.48566 0.6894 0.0
O106 O 0.01146 0.56821 0.72688 0.0
C107 C 0.00834 0.4777 0.68642 0.0
O108 O 0.96073 0.45116 0.76777 0.0
C109 C -0.01357 0.57807 0.71718 0.0
O110 O 0.94814 0.49939 0.76746 0.0
O111 O 0.96346 0.55993 0.71737 0.0
C112 C 0.18741 0.54712 0.96583 0.0
O113 O 0.19462 0.57269 0.97872 0.0
Cd114 Cd 0.2366 0.5816 0.01239 0.0
O115 O 0.20278 0.52359 0.97092 0.0
Cd116 Cd 0.24818 0.51305 0.00354 0.0
C117 C 0.21255 0.53694 0.06894 0.0
O118 O 0.27705 0.55579 0.98503 0.0
O119 O 0.298 0.53452 0.02265 0.0
O120 O 0.26096 0.4705 0.96782 0.0
C121 C 0.30055 0.55266 0.00116 0.0
O122 O 0.21789 0.56406 0.06144 0.0
C123 C 0.26875 0.45315 0.98868 0.0
O124 O 0.22009 0.51471 0.05121 0.0
O125 O 0.26561 0.46324 0.01611 0.0
C126 C 0.41777 0.29333 0.97426 0.0
O127 O 0.43368 0.28834 0.95034 0.0
Cd128 Cd 0.47867 0.25963 0.94764 0.0
O129 O 0.4257 0.28293 -0.00021 0.0
Cd130 Cd 0.46918 0.25056 0.01574 0.0
C131 C 0.52384 0.30208 -0.00262 0.0
O132 O 0.46269 0.21455 0.97239 0.0
O133 O 0.50491 0.21053 -0.00352 0.0
O134 O 0.43647 0.22876 0.05562 0.0
C135 C 0.48594 0.19911 0.97706 0.0
O136 O 0.5205 0.29181 0.96985 0.0
C137 C 0.45799 0.22752 0.07496 0.0
O138 O 0.50643 0.29258 0.01833 0.0
O139 O 0.4838 0.23837 0.06727 0.0
C140 C 0.79183 0.45462 0.93773 0.0
O141 O 0.7906 0.4312 0.95355 0.0
Cd142 Cd 0.76247 0.42391 -0.00051 0.0
O143 O 0.77783 0.47866 0.94639 0.0
Cd144 Cd 0.74487 0.49112 -0.00763 0.0
C145 C 0.7968 0.47472 0.04816 0.0
O146 O 0.71391 0.44446 0.98602 0.0
O147 O 0.70223 0.47299 0.02526 0.0
O148 O 0.71643 0.53301 0.97009 0.0
C149 C 0.69568 0.44997 0.00787 0.0
O150 O 0.79193 0.44636 0.04334 0.0
C151 C 0.72446 0.55221 -0.00855 0.0
O152 O 0.78379 0.49343 0.03166 0.0
O153 O 0.74227 0.54297 0.01163 0.0
C154 C 0.47855 0.68951 0.01255 0.0
O155 O 0.48725 0.69174 0.04028 0.0
Cd156 Cd 0.51872 0.73332 0.05949 0.0
O157 O 0.48779 0.70884 -0.00638 0.0
Cd158 Cd 0.52251 0.75418 -0.00545 0.0
C159 C 0.583 0.71657 0.02033 0.0
O160 O 0.49485 0.77615 0.03793 0.0
O161 O 0.53504 0.80181 0.02552 0.0
O162 O 0.49256 0.76609 0.94977 0.0
C163 C 0.5102 0.80075 0.04044 0.0
O164 O 0.57157 0.72059 0.04692 0.0
C165 C 0.51431 0.77971 0.93644 0.0
O166 O 0.56869 0.72454 -0.0031 0.0
O167 O 0.54007 0.78077 0.94977 0.0
H168 H 0.98304 0.3158 0.41229 0.0
H169 H 0.07644 0.28946 0.39362 0.0
H170 H 0.07697 0.31945 0.34752 0.0
H171 H 0.95844 0.31802 0.33012 0.0
H172 H 0.93528 0.35068 0.33827 0.0
H173 H 0.94046 0.32334 0.36705 0.0
H174 H 0.96032 0.36626 0.40502 0.0
H175 H 0.95526 0.39363 0.37645 0.0
H176 H -0.00787 0.39015 0.3941 0.0
H177 H 0.07062 0.35842 0.30908 0.0
H178 H 0.05698 0.40266 0.2798 0.0
H179 H 0.96701 0.4023 0.32147 0.0
C180 C 0.00331 0.31571 0.39805 0.0
C181 C 0.02968 0.30027 0.4065 0.0
C182 C 0.05594 0.30106 0.38755 0.0
C183 C 0.05643 0.31793 0.36123 0.0
C184 C 0.03035 0.33356 0.35396 0.0
C185 C 0.00413 0.33235 0.37159 0.0
C186 C 0.9802 0.35337 0.36028 0.0
C187 C 0.95192 0.33526 0.3482 0.0
C188 C 0.9715 0.37726 0.38545 0.0
C189 C -0.00239 0.36763 0.33446 0.0
C190 C 0.02637 0.35562 0.33098 0.0
C191 C 0.04789 0.36747 0.31098 0.0
C192 C 0.04001 0.39262 0.29453 0.0
C193 C 0.01083 0.40545 0.29808 0.0
C194 C -0.01085 0.3923 0.31769 0.0
H195 H 0.64419 0.06877 0.41943 0.0
H196 H 0.70992 -0.00305 0.40691 0.0
H197 H 0.68419 0.9793 0.359 0.0
H198 H 0.57965 0.0242 0.3939 0.0
H199 H 0.56158 0.05456 0.37518 0.0
H200 H 0.5865 0.06307 0.40732 0.0
H201 H 0.61927 0.09878 0.37438 0.0
H202 H 0.59456 0.09015 0.34202 0.0
H203 H 0.63507 0.08427 0.33864 0.0
H204 H 0.65104 0.96828 0.31396 0.0
H205 H 0.60952 0.96142 0.2763 0.0
H206 H 0.56396 0.03958 0.31785 0.0
C207 C 0.65331 0.04949 0.40646 0.0
C208 C 0.67916 0.03431 0.41683 0.0
C209 C 0.69014 0.0089 0.39946 0.0
C210 C 0.67582 -0.00117 0.3721 0.0
C211 C 0.65049 0.01434 0.36248 0.0
C212 C 0.6391 0.03893 0.37919 0.0
C213 C 0.61031 0.0502 0.36465 0.0
C214 C 0.5829 0.04785 0.38657 0.0
C215 C 0.6151 0.08279 0.35431 0.0
C216 C 0.60707 0.02775 0.33743 0.0
C217 C 0.63081 0.00758 0.33648 0.0
C218 C 0.6324 0.98398 0.31434 0.0
C219 C 0.60865 0.98029 0.29306 0.0
C220 C 0.58348 -3e-05 0.29413 0.0
C221 C 0.58309 0.02446 0.3162 0.0
H222 H 0.01876 0.57417 0.34725 0.0
H223 H 0.92912 0.53091 0.35528 0.0
H224 H 0.91882 0.56368 0.40132 0.0
H225 H 0.03376 0.58509 0.43052 0.0
H226 H 0.05267 0.62141 0.42628 0.0
H227 H 0.0543 0.59247 0.39579 0.0
H228 H 0.03231 0.62977 0.35795 0.0
H229 H 0.03069 0.65877 0.38823 0.0
H230 H -0.00334 0.64789 0.36684 0.0
H231 H 0.91575 0.60478 0.44209 0.0
H232 H 0.92045 0.65127 0.47575 0.0
H233 H 0.0129 0.66662 0.44323 0.0
C234 C -0.00286 0.57127 0.35897 0.0
C235 C 0.97471 0.55002 0.3477 0.0
C236 C 0.94664 0.54703 0.36354 0.0
C237 C 0.94063 0.56545 0.38977 0.0
C238 C 0.96308 0.58645 0.40005 0.0
C239 C -0.00914 0.58933 0.3853 0.0
C240 C 0.01031 0.61495 0.39998 0.0
C241 C 0.03949 0.60274 0.41398 0.0
C242 C 0.01792 0.63928 0.37688 0.0
C243 C -0.01134 0.62671 0.42462 0.0
C244 C 0.96163 0.60976 0.42437 0.0
C245 C 0.93701 0.61783 0.443 0.0
C246 C 0.93986 0.64423 0.46197 0.0
C247 C 0.96718 0.66205 0.46235 0.0
C248 C -0.00788 0.65283 0.44397 0.0
H249 H 0.32376 0.98741 0.41801 0.0
H250 H 0.35515 0.90337 0.45381 0.0
H251 H 0.39644 0.9017 0.41583 0.0
H252 H 0.3366 0.96758 0.34014 0.0
H253 H 0.35019 0.00458 0.32972 0.0
H254 H 0.32413 0.00113 0.36134 0.0
H255 H 0.36228 0.03118 0.39725 0.0
H256 H 0.38835 0.035 0.36564 0.0
H257 H 0.40098 0.01851 0.40021 0.0
H258 H 0.43098 0.90576 0.37178 0.0
H259 H 0.46043 0.91794 0.32586 0.0
H260 H 0.409 0.0003 0.31828 0.0
C261 C 0.33969 0.96902 0.41821 0.0
C262 C 0.33605 0.94547 0.4389 0.0
C263 C 0.35724 0.92161 0.43817 0.0
C264 C 0.38087 0.92042 0.41667 0.0
C265 C 0.38331 0.94338 0.3961 0.0
C266 C 0.36367 0.96748 0.39682 0.0
C267 C 0.37114 -0.01141 0.37126 0.0
C268 C 0.34389 -0.00943 0.34932 0.0
C269 C 0.3813 0.02019 0.38438 0.0
C270 C 0.39756 0.97214 0.35585 0.0
C271 C 0.40406 0.94611 0.37066 0.0
C272 C 0.42643 0.92627 0.36015 0.0
C273 C 0.4429 0.93332 0.3339 0.0
C274 C 0.43711 0.9601 0.31849 0.0
C275 C 0.41413 0.97979 0.32972 0.0
H276 H 0.94033 0.59987 0.68277 0.0
H277 H 0.02915 0.62436 0.72173 0.0
H278 H 0.02889 0.67273 0.6956 0.0
H279 H 0.95578 0.6244 0.61115 0.0
H280 H 0.91825 0.63837 0.60379 0.0
H281 H 0.92275 0.60861 0.62992 0.0
H282 H 0.89548 0.64091 0.67239 0.0
H283 H 0.89094 0.6709 0.64629 0.0
H284 H 0.90972 0.67875 0.68257 0.0
H285 H 0.02249 0.71455 0.65984 0.0
H286 H 0.0115 0.74534 0.61571 0.0
H287 H 0.92683 0.69388 0.59971 0.0
C288 C 0.9593 0.61583 0.68653 0.0
C289 C 0.98465 0.60848 0.70449 0.0
C290 C 0.00941 0.62959 0.70821 0.0
C291 C 0.00939 0.65721 0.69359 0.0
C292 C 0.98437 0.66345 0.67542 0.0
C293 C 0.95972 0.64339 0.67191 0.0
C294 C 0.93739 0.65381 0.64837 0.0
C295 C 0.93333 0.62988 0.62174 0.0
C296 C 0.90655 0.66155 0.6633 0.0
C297 C 0.95398 0.68214 0.63819 0.0
C298 C 0.98073 0.68765 0.65453 0.0
C299 C 0.00131 0.71085 0.64732 0.0
C300 C -0.00513 0.72823 0.6222 0.0
C301 C 0.96817 0.72222 0.60445 0.0
C302 C 0.94706 0.6995 0.61325 0.0
H303 H 0.39243 0.03908 0.67818 0.0
H304 H 0.39091 0.95809 0.73074 0.0
H305 H 0.34864 0.93651 0.69886 0.0
H306 H 0.30813 0.03994 0.6624 0.0
H307 H 0.31422 0.05228 0.62412 0.0
H308 H 0.34099 0.06359 0.65408 0.0
H309 H 0.38516 0.04114 0.62132 0.0
H310 H 0.35858 0.02964 0.5914 0.0
H311 H 0.38267 0.00195 0.60756 0.0
H312 H 0.31179 0.92071 0.65762 0.0
H313 H 0.2822 0.91211 0.60987 0.0
H314 H 0.30702 0.00317 0.58373 0.0
C315 C 0.38254 0.01723 0.68354 0.0
C316 C 0.39484 0.00035 0.70705 0.0
C317 C 0.38183 0.97146 0.71287 0.0
C318 C 0.35771 0.95904 0.69497 0.0
C319 C 0.34672 0.9758 0.67136 0.0
C320 C 0.35851 0.00436 0.6657 0.0
C321 C 0.34452 0.01629 0.63708 0.0
C322 C 0.32585 0.04471 0.6449 0.0
C323 C 0.3692 0.02261 0.61292 0.0
C324 C 0.32392 -0.01048 0.62702 0.0
C325 C 0.32525 0.96658 0.64735 0.0
C326 C 0.3101 0.93871 0.64179 0.0
C327 C 0.29344 0.93399 0.61454 0.0
C328 C 0.2921 0.95701 0.59315 0.0
C329 C 0.30714 0.98531 0.59986 0.0
H330 H -0.00324 0.332 0.57187 0.0
H331 H 0.09363 0.34488 0.55378 0.0
H332 H 0.09423 0.39184 0.58719 0.0
H333 H 0.97811 0.41187 0.57191 0.0
H334 H 0.95007 0.40898 0.60193 0.0
H335 H 0.95725 0.37662 0.57641 0.0
H336 H 0.96886 0.34435 0.6228 0.0
H337 H 0.96158 0.37653 0.64844 0.0
H338 H -0.00243 0.35765 0.65011 0.0
H339 H 0.08484 0.43524 0.62521 0.0
H340 H 0.06584 0.47326 0.6636 0.0
H341 H 0.97433 0.43403 0.65405 0.0
C342 C 0.01812 0.34469 0.57495 0.0
C343 C 0.04524 0.33474 0.56045 0.0
C344 C 0.07264 0.35212 0.56474 0.0
C345 C 0.07317 0.3788 0.58362 0.0
C346 C 0.046 0.38797 0.59757 0.0
C347 C 0.01893 0.37158 0.59325 0.0
C348 C -0.00709 0.38633 0.61085 0.0
C349 C 0.96813 0.39656 0.58896 0.0
C350 C 0.97945 0.36494 0.63445 0.0
C351 C 0.00968 0.4133 0.62629 0.0
C352 C 0.04031 0.41377 0.61837 0.0
C353 C 0.06084 0.43537 0.63122 0.0
C354 C 0.04986 0.45682 0.65298 0.0
C355 C 0.0186 0.45675 0.66138 0.0
C356 C -0.0018 0.43499 0.64749 0.0
H357 H 0.55346 0.06234 0.66678 0.0
H358 H 0.56677 0.97028 0.6943 0.0
H359 H 0.61078 0.96585 0.65883 0.0
H360 H 0.5724 0.0493 0.58725 0.0
H361 H 0.59131 0.08584 0.58462 0.0
H362 H 0.56062 0.08108 0.61157 0.0
H363 H 0.59618 0.10158 0.65564 0.0
H364 H 0.62706 0.10616 0.62887 0.0
H365 H 0.63208 0.08356 0.66166 0.0
H366 H 0.65394 0.97219 0.62053 0.0
H367 H 0.69155 -0.01192 0.58188 0.0
H368 H 0.64957 0.07626 0.5809 0.0
C369 C 0.56541 0.0411 0.66531 0.0
C370 C 0.55659 0.01662 0.68332 0.0
C371 C 0.57304 -0.01068 0.68067 0.0
C372 C 0.5981 0.98663 0.66065 0.0
C373 C 0.60636 0.01143 0.64355 0.0
C374 C 0.59039 0.03808 0.64565 0.0
C375 C 0.60387 0.06157 0.62513 0.0
C376 C 0.58067 0.06992 0.60069 0.0
C377 C 0.61549 0.08988 0.64396 0.0
C378 C 0.63003 0.04402 0.61107 0.0
C379 C 0.63114 0.01515 0.62192 0.0
C380 C 0.65327 -0.00525 0.6119 0.0
C381 C 0.67456 0.00402 0.58999 0.0
C382 C 0.67359 0.03346 0.57838 0.0
C383 C 0.65111 0.05368 0.58938 0.0
H384 H 0.38691 0.32472 0.02033 0.0
H385 H 0.38647 0.30381 0.92228 0.0
H386 H 0.3433 0.33775 0.91642 0.0
H387 H 0.30245 0.33339 0.02913 0.0
H388 H 0.30716 0.36472 0.05689 0.0
H389 H 0.33515 0.33535 0.05425 0.0
H390 H 0.37791 0.37594 0.04651 0.0
H391 H 0.35013 0.40534 0.04912 0.0
H392 H 0.3745 0.40164 0.01594 0.0
H393 H 0.3048 0.37818 0.91986 0.0
H394 H 0.27383 0.42313 0.93269 0.0
H395 H 0.29851 0.418 0.02837 0.0
C396 C 0.3772 0.32673 -0.00223 0.0
C397 C 0.39002 0.31156 0.9718 0.0
C398 C 0.37709 0.31526 0.94254 0.0
C399 C 0.35241 0.33435 0.93896 0.0
C400 C 0.34075 0.34955 0.96485 0.0
C401 C 0.35258 0.34592 -0.00626 0.0
C402 C 0.33764 0.3671 0.01731 0.0
C403 C 0.31952 0.34905 0.04078 0.0
C404 C 0.36146 0.38879 0.03313 0.0
C405 C 0.31646 0.38388 -0.00305 0.0
C406 C 0.31828 0.37308 0.96685 0.0
C407 C 0.3027 0.38652 0.94344 0.0
C408 C 0.28522 0.41206 0.95091 0.0
C409 C 0.28356 0.4239 0.98152 0.0
C410 C 0.29888 0.40914 0.00484 0.0
H411 H 0.34793 0.56574 0.04109 0.0
H412 H 0.31634 0.58025 0.94904 0.0
H413 H 0.36217 0.61219 0.93997 0.0
H414 H 0.37389 0.64038 0.0568 0.0
H415 H 0.40661 0.63067 0.07899 0.0
H416 H 0.37353 0.60566 0.07693 0.0
H417 H 0.40737 0.56135 0.05729 0.0
H418 H 0.44061 0.58631 0.05924 0.0
H419 H 0.43086 0.56577 0.02382 0.0
H420 H 0.40886 0.64546 0.94201 0.0
H421 H 0.45182 0.68051 0.95613 0.0
H422 H 0.45256 0.64564 0.04736 0.0
C423 C 0.35102 0.5752 0.01886 0.0
C424 C 0.32877 0.57046 -0.0043 0.0
C425 C 0.33317 0.58366 0.9671 0.0
C426 C 0.3592 0.60165 0.96164 0.0
C427 C 0.38055 0.60627 0.98506 0.0
C428 C 0.37673 0.59355 0.01315 0.0
C429 C 0.40165 0.60442 0.03532 0.0
C430 C 0.3881 0.62129 0.06367 0.0
C431 C 0.42128 0.57787 0.04445 0.0
C432 C 0.41952 0.62583 0.01555 0.0
C433 C 0.40729 0.62612 0.98648 0.0
C434 C 0.41889 0.64523 0.9646 0.0
C435 C 0.4433 0.66507 0.97286 0.0
C436 C 0.45559 0.66585 0.00285 0.0
C437 C 0.44385 0.64547 0.02418 0.0
H438 H 0.57185 0.32039 0.96156 0.0
H439 H 0.53007 0.33689 0.05076 0.0
H440 H 0.56937 0.37662 0.06339 0.0
H441 H 0.64986 0.32985 0.9873 0.0
H442 H 0.6625 0.34801 0.95331 0.0
H443 H 0.63088 0.32109 0.95127 0.0
H444 H 0.59685 0.36139 0.928 0.0
H445 H 0.62835 0.38844 0.93 0.0
H446 H 0.59253 0.39767 0.94816 0.0
H447 H 0.61267 0.41581 0.06567 0.0
H448 H 0.65792 0.44947 0.05812 0.0
H449 H 0.67201 0.40575 0.96831 0.0
C450 C 0.57091 0.33235 0.98375 0.0
C451 C 0.54778 0.32555 0.00511 0.0
C452 C 0.54757 0.34163 0.034 0.0
C453 C 0.56977 0.3643 0.04139 0.0
C454 C 0.59219 0.37047 0.01976 0.0
C455 C 0.59304 0.35481 -0.00839 0.0
C456 C 0.61978 0.36547 0.97259 0.0
C457 C 0.64207 0.33956 0.96573 0.0
C458 C 0.6087 0.37905 0.94294 0.0
C459 C 0.63374 0.38968 -0.00565 0.0
C460 C 0.61745 0.39239 0.02138 0.0
C461 C 0.62571 0.41377 0.04465 0.0
C462 C 0.65139 0.4328 0.04017 0.0
C463 C 0.66856 0.4301 0.01274 0.0
C464 C 0.65951 0.4082 -0.01035 0.0
H465 H 0.67902 0.57702 0.95755 0.0
H466 H 0.74074 0.59672 0.03397 0.0
H467 H 0.71492 0.6448 0.0457 0.0
H468 H 0.67126 0.65841 0.93607 0.0
H469 H 0.63143 0.65242 0.92659 0.0
H470 H 0.65768 0.62173 0.92111 0.0
H471 H 0.62335 0.58827 0.95488 0.0
H472 H 0.59718 0.61883 0.96061 0.0
H473 H 0.61385 0.60192 -0.00682 0.0
H474 H 0.67729 0.68542 0.05507 0.0
H475 H 0.63235 0.7184 0.05851 0.0
H476 H 0.59662 0.67505 0.97449 0.0
C477 C 0.68768 0.59192 0.97613 0.0
C478 C 0.71192 0.58308 -0.0052 0.0
C479 C 0.72224 0.60296 0.01929 0.0
C480 C 0.70776 0.63042 0.02613 0.0
C481 C 0.68326 0.63799 0.00802 0.0
C482 C 0.67357 0.61964 0.98318 0.0
C483 C 0.64519 0.63205 0.96892 0.0
C484 C 0.65179 0.64174 0.93623 0.0
C485 C 0.61832 0.60889 0.96946 0.0
C486 C 0.63973 0.65937 -0.00953 0.0
C487 C 0.66208 0.66247 0.01277 0.0
C488 C 0.66012 0.68384 0.03724 0.0
C489 C 0.63452 0.70237 0.03911 0.0
C490 C 0.61148 0.69963 0.01645 0.0
C491 C 0.61446 0.67824 -0.00844 0.0
H492 H 0.55105 0.82324 0.91184 0.0
H493 H 0.46553 0.77272 0.8976 0.0
H494 H 0.45421 0.80334 0.85339 0.0
H495 H 0.52226 0.89341 0.89921 0.0
H496 H 0.5555 0.90828 0.8801 0.0
H497 H 0.55957 0.87915 0.90705 0.0
H498 H 0.58648 0.84515 0.86573 0.0
H499 H 0.58262 0.87431 0.83859 0.0
H500 H 0.5678 0.83645 0.82953 0.0
H501 H 0.44915 0.84296 0.81532 0.0
H502 H 0.44997 0.88964 0.78657 0.0
H503 H 0.53844 0.91533 0.82585 0.0
C504 C 0.53038 0.81803 0.89885 0.0
C505 C 0.50928 0.79544 0.90791 0.0
C506 C 0.48207 0.78983 0.8909 0.0
C507 C 0.47551 0.80701 0.86569 0.0
C508 C 0.49642 0.82966 0.85782 0.0
C509 C 0.52336 0.83517 0.87381 0.0
C510 C 0.54035 0.86292 0.86274 0.0
C511 C 0.54465 0.88738 0.88883 0.0
C512 C 0.57114 0.85417 0.84828 0.0
C513 C 0.51821 0.87279 0.8388 0.0
C514 C 0.49329 0.85297 0.83597 0.0
C515 C 0.46875 0.85839 0.81695 0.0
C516 C 0.4694 0.88503 0.80079 0.0
C517 C 0.49434 0.90604 0.80389 0.0
C518 C 0.51931 0.89946 0.82267 0.0
H519 H 0.16734 0.49775 0.92965 0.0
H520 H 0.14932 0.59273 0.95202 0.0
H521 H 0.10851 0.59127 0.9133 0.0
H522 H 0.15728 0.50073 0.8498 0.0
H523 H 0.13889 0.4638 0.84497 0.0
H524 H 0.16547 0.47157 0.8759 0.0
H525 H 0.12415 0.45574 0.91496 0.0
H526 H 0.09746 0.44779 0.88411 0.0
H527 H 0.08766 0.47388 0.9154 0.0
H528 H 0.07181 0.58063 0.87004 0.0
H529 H 0.04071 0.56076 0.82607 0.0
H530 H 0.0822 0.47277 0.83235 0.0
C531 C 0.15457 0.51814 0.92669 0.0
C532 C 0.16161 0.54533 0.94391 0.0
C533 C 0.14444 0.57158 0.93913 0.0
C534 C 0.12115 0.57102 0.91719 0.0
C535 C 0.11512 0.54402 0.9003 0.0
C536 C 0.13118 0.518 0.90489 0.0
C537 C 0.12076 0.49222 0.88297 0.0
C538 C 0.14717 0.48146 0.86218 0.0
C539 C 0.10667 0.46585 0.90041 0.0
C540 C 0.09674 0.508 0.86507 0.0
C541 C 0.09376 0.53783 0.87547 0.0
C542 C 0.07372 0.55721 0.86183 0.0
C543 C 0.05622 0.54575 0.83682 0.0
C544 C 0.05892 0.5152 0.8258 0.0
C545 C 0.07939 0.49617 0.84032 0.0
H546 H 0.4443 0.06738 0.8522 0.0
H547 H 0.54168 0.05881 0.83688 0.0
H548 H 0.5523 0.09481 0.88085 0.0
H549 H 0.4478 0.14633 0.8674 0.0
H550 H 0.41803 0.14699 0.89594 0.0
H551 H 0.41805 0.1173 0.86624 0.0
H552 H 0.41724 0.07678 0.90726 0.0
H553 H 0.41723 0.10642 0.93713 0.0
H554 H 0.44633 0.07816 0.93647 0.0
H555 H 0.55239 0.13328 0.92506 0.0
H556 H 0.54182 0.17549 0.96273 0.0
H557 H 0.44457 0.16206 0.94638 0.0
C558 C 0.4678 0.07267 0.85861 0.0
C559 C 0.49221 0.06015 0.84158 0.0
C560 C 0.52271 0.06816 0.84987 0.0
C561 C 0.52896 0.08841 0.87487 0.0
C562 C 0.50442 0.10076 0.89105 0.0
C563 C 0.47444 0.09347 0.88307 0.0
C564 C 0.45234 0.1124 0.90209 0.0
C565 C 0.43293 0.13191 0.8817 0.0
C566 C 0.43209 0.09223 0.92192 0.0
C567 C 0.47459 0.13177 0.92155 0.0
C568 C 0.50449 0.12423 0.91536 0.0
C569 C 0.52906 0.13935 0.9302 0.0
C570 C 0.52287 0.16321 0.95156 0.0
C571 C 0.49244 0.17202 0.95727 0.0
C572 C 0.46808 0.1558 0.94234 0.0
H573 H 0.90787 0.51138 0.81034 0.0
H574 H 0.91421 0.41669 0.77946 0.0
H575 H 0.87228 0.4033 0.81436 0.0
H576 H 0.89771 0.49827 0.88708 0.0
H577 H 0.87103 0.52811 0.89523 0.0
H578 H 0.89813 0.53143 0.86453 0.0
H579 H 0.85402 0.53879 0.82638 0.0
H580 H 0.82671 0.53574 0.85707 0.0
H581 H 0.82317 0.51099 0.82317 0.0
H582 H 0.83505 0.39893 0.85636 0.0
H583 H 0.80333 0.40376 0.90272 0.0
H584 H 0.82003 0.5013 0.9074 0.0
C585 C 0.89979 0.48797 0.81027 0.0
C586 C 0.91416 0.46507 0.792 0.0
C587 C 0.9035 0.4346 0.79317 0.0
C588 C 0.87962 0.42678 0.81285 0.0
C589 C 0.86657 0.4497 0.83121 0.0
C590 C 0.87605 0.47973 0.83002 0.0
C591 C 0.85996 0.49942 0.85422 0.0
C592 C 0.88309 0.51522 0.87658 0.0
C593 C 0.83976 0.52261 0.83931 0.0
C594 C 0.84073 0.47559 0.86979 0.0
C595 C 0.84475 0.44715 0.85584 0.0
C596 C 0.83131 0.42112 0.86719 0.0
C597 C 0.81348 0.4241 0.89368 0.0
C598 C 0.80913 0.45291 0.90862 0.0
C599 C 0.82256 0.47907 0.89618 0.0
H600 H 0.51336 0.11298 0.19504 0.0
H601 H 0.41808 0.09715 0.21835 0.0
H602 H 0.4037 0.14041 0.18811 0.0
H603 H 0.50968 0.19817 0.19372 0.0
H604 H 0.53579 0.19909 0.16184 0.0
H605 H 0.53897 0.17023 0.1894 0.0
H606 H 0.5348 0.1286 0.1456 0.0
H607 H 0.53138 0.1572 0.11801 0.0
H608 H 0.50228 0.12777 0.12027 0.0
H609 H 0.39887 0.17902 0.14801 0.0
H610 H 0.40462 0.21216 0.10415 0.0
H611 H 0.50309 0.20453 0.1091 0.0
C612 C 0.48958 0.1192 0.19458 0.0
C613 C 0.46686 0.10173 0.20912 0.0
C614 C 0.43593 0.11033 0.20758 0.0
C615 C 0.42752 0.13489 0.19044 0.0
C616 C 0.45036 0.15096 0.17543 0.0
C617 C 0.48085 0.1438 0.1778 0.0
C618 C 0.5007 0.16295 0.15749 0.0
C619 C 0.52257 0.18386 0.17677 0.0
C620 C 0.5183 0.14293 0.13396 0.0
C621 C 0.47651 0.18097 0.14224 0.0
C622 C 0.44762 0.17396 0.15303 0.0
C623 C 0.42143 0.18533 0.13997 0.0
C624 C 0.42488 0.20404 0.11502 0.0
C625 C 0.45429 0.21128 0.10357 0.0
C626 C 0.48035 0.20007 0.11788 0.0
H627 H 0.91931 0.47082 0.1843 0.0
H628 H 0.91386 0.56917 0.19159 0.0
H629 H 0.87523 0.56711 0.1507 0.0
H630 H 0.91242 0.46303 0.10291 0.0
H631 H 0.88927 0.42866 0.10273 0.0
H632 H 0.91581 0.43738 0.13353 0.0
H633 H 0.87187 0.43299 0.17296 0.0
H634 H 0.84519 0.42416 0.14228 0.0
H635 H 0.83835 0.45551 0.16922 0.0
H636 H 0.83893 0.55519 0.10835 0.0
H637 H 0.80573 0.53401 0.06705 0.0
H638 H 0.83362 0.44297 0.0864 0.0
C639 C 0.90982 0.4919 0.17747 0.0
C640 C 0.91969 0.52018 0.19125 0.0
C641 C 0.90676 0.54723 0.18147 0.0
C642 C 0.88476 0.54632 0.15824 0.0
C643 C 0.8758 0.5182 0.14499 0.0
C644 C 0.88775 0.49144 0.15422 0.0
C645 C 0.87437 0.46433 0.13563 0.0
C646 C 0.89947 0.44736 0.11763 0.0
C647 C 0.85638 0.44299 0.15626 0.0
C648 C 0.85323 0.48015 0.11438 0.0
C649 C 0.85449 0.51122 0.12031 0.0
C650 C 0.83761 0.53089 0.10354 0.0
C651 C 0.81884 0.51855 0.08003 0.0
C652 C 0.81698 0.48675 0.07338 0.0
C653 C 0.83442 0.46732 0.09094 0.0
H654 H 0.54333 0.85012 0.06429 0.0
H655 H 0.452 0.80957 0.06024 0.0
H656 H 0.4328 0.85211 0.09295 0.0
H657 H 0.54 0.87372 0.14255 0.0
H658 H 0.56176 0.90851 0.13844 0.0
H659 H 0.56769 0.87651 0.11217 0.0
H660 H 0.55631 0.90992 0.06655 0.0
H661 H 0.55019 0.94201 0.09276 0.0
H662 H 0.52084 0.92983 0.06569 0.0
H663 H 0.42379 0.89788 0.12775 0.0
H664 H 0.42669 0.94129 0.16572 0.0
H665 H 0.5241 0.95093 0.14867 0.0
C666 C 0.51924 0.85045 0.06999 0.0
C667 C 0.49912 0.82668 0.05963 0.0
C668 C 0.46783 0.82757 0.06798 0.0
C669 C 0.45665 0.85173 0.08637 0.0
C670 C 0.47708 0.87475 0.0964 0.0
C671 C 0.50776 0.87422 0.08872 0.0
C672 C 0.52528 0.90053 0.10448 0.0
C673 C 0.55014 0.88913 0.12567 0.0
C674 C 0.53895 0.92183 0.08096 0.0
C675 C 0.49977 0.91556 0.12259 0.0
C676 C 0.47205 0.90066 0.11721 0.0
C677 C 0.44534 0.90986 0.13205 0.0
C678 C 0.44718 0.93456 0.15351 0.0
C679 C 0.4756 0.9494 0.16015 0.0
C680 C 0.50203 0.94004 0.14402 0.0
H681 H 0.17974 0.57745 0.10446 0.0
H682 H 0.20431 0.48263 0.09583 0.0
H683 H 0.16891 0.47111 0.13785 0.0
H684 H 0.16824 0.58132 0.18907 0.0
H685 H 0.13615 0.60591 0.1863 0.0
H686 H 0.16672 0.60745 0.1587 0.0
H687 H 0.12745 0.59776 0.11479 0.0
H688 H 0.09686 0.59585 0.14218 0.0
H689 H 0.10255 0.56459 0.11481 0.0
H690 H 0.12665 0.46873 0.17628 0.0
H691 H 0.0816 0.47602 0.2096 0.0
H692 H 0.08438 0.57233 0.1929 0.0
C693 C 0.17836 0.55443 0.11198 0.0
C694 C 0.1949 0.53098 0.09695 0.0
C695 C 0.19191 0.501 0.10705 0.0
C696 C 0.17191 0.49422 0.13095 0.0
C697 C 0.15517 0.51769 0.1446 0.0
C698 C 0.15838 0.54725 0.13569 0.0
C699 C 0.13592 0.56779 0.15232 0.0
C700 C 0.15277 0.59205 0.17282 0.0
C701 C 0.11443 0.58233 0.12967 0.0
C702 C 0.11897 0.54498 0.17122 0.0
C703 C 0.13063 0.51628 0.16671 0.0
C704 C 0.11759 0.49118 0.18037 0.0
C705 C 0.09192 0.49554 0.19915 0.0
C706 C 0.07947 0.52476 0.20394 0.0
C707 C 0.09346 0.54975 0.18994 0.0
H708 H 0.81775 0.94116 0.52776 0.0
H709 H 0.78272 0.9401 0.43485 0.0
H710 H 0.80925 0.89238 0.42258 0.0
H711 H 0.89176 0.91492 0.5074 0.0
H712 H 0.89586 0.89216 0.54022 0.0
H713 H 0.87232 0.92511 0.54267 0.0
H714 H 0.82641 0.89189 0.5599 0.0
H715 H 0.84982 0.85878 0.55742 0.0
H716 H 0.81442 0.85903 0.53642 0.0
H717 H 0.84013 0.84648 0.41955 0.0
H718 H 0.87648 0.8056 0.42461 0.0
H719 H 0.89361 0.83597 0.51923 0.0
C720 C 0.81546 0.93067 0.50495 0.0
C721 C 0.79807 0.94421 0.48225 0.0
C722 C 0.79594 0.93012 0.45254 0.0
C723 C 0.81079 0.90295 0.4454 0.0
C724 C 0.82782 0.89025 0.46818 0.0
C725 C 0.83046 0.90363 0.49729 0.0
C726 C 0.85173 0.88597 0.51686 0.0
C727 C 0.87957 0.90572 0.5274 0.0
C728 C 0.83456 0.87316 0.54427 0.0
C729 C 0.86084 0.86081 0.49401 0.0
C730 C 0.84642 0.86369 0.46623 0.0
C731 C 0.85153 0.84389 0.44118 0.0
C732 C 0.87233 0.82075 0.44434 0.0
C733 C 0.88805 0.81757 0.47232 0.0
C734 C 0.88183 0.83766 0.49764 0.0
H735 H 0.94925 0.16492 0.55102 0.0
H736 H 0.94041 0.2137 0.46766 0.0
H737 H 0.89124 0.18684 0.45673 0.0
H738 H 0.91812 0.09351 0.52013 0.0
H739 H 0.89884 0.08448 0.55512 0.0
H740 H 0.93323 0.10778 0.55652 0.0
H741 H 0.90456 0.14991 0.58745 0.0
H742 H 0.87003 0.12682 0.58597 0.0
H743 H 0.87002 0.16464 0.57208 0.0
H744 H 0.84276 0.15572 0.45536 0.0
H745 H 0.79958 0.11967 0.46168 0.0
H746 H 0.84042 0.09012 0.54531 0.0
C747 C 0.93701 0.16995 0.53044 0.0
C748 C 0.94866 0.19149 0.51023 0.0
C749 C 0.932 0.19726 0.48345 0.0
C750 C 0.90399 0.18221 0.4771 0.0
C751 C 0.89307 0.16136 0.49764 0.0
C752 C 0.90915 0.15499 0.52362 0.0
C753 C 0.89259 0.13111 0.5416 0.0
C754 C 0.91184 0.10253 0.54343 0.0
C755 C 0.88378 0.1439 0.57367 0.0
C756 C 0.86464 0.12508 0.52167 0.0
C757 C 0.86531 0.14293 0.49655 0.0
C758 C 0.84201 0.14155 0.47488 0.0
C759 C 0.81754 0.12105 0.47874 0.0
C760 C 0.81666 0.10205 0.50397 0.0
C761 C 0.84045 0.10434 0.52581 0.0
H762 H 0.04384 0.82788 0.51429 0.0
H763 H 0.05661 0.78954 0.42188 0.0
H764 H 0.10239 0.82244 0.41619 0.0
H765 H 0.06665 0.90463 0.49811 0.0
H766 H 0.08576 0.91206 0.53428 0.0
H767 H 0.05401 0.88531 0.53143 0.0
H768 H 0.0877 0.84382 0.553 0.0
H769 H 0.11952 0.87046 0.556 0.0
H770 H 0.12343 0.83485 0.5345 0.0
H771 H 0.14702 0.85832 0.42061 0.0
H772 H 0.1878 0.89589 0.4345 0.0
H773 H 0.1458 0.91259 0.52357 0.0
C774 C 0.05631 0.82632 0.49288 0.0
C775 C 0.04664 0.80602 0.46854 0.0
C776 C 0.0635 0.80488 0.44084 0.0
C777 C 0.08956 0.82348 0.43738 0.0
C778 C 0.09837 0.84326 0.46174 0.0
C779 C 0.08227 0.84492 0.48893 0.0
C780 C 0.09664 0.86837 0.51141 0.0
C781 C 0.07444 0.89412 0.51926 0.0
C782 C 0.10746 0.85348 0.54044 0.0
C783 C 0.12345 0.87946 0.49264 0.0
C784 C 0.12397 0.86456 0.46409 0.0
C785 C 0.14681 0.87024 0.44283 0.0
C786 C 0.1699 0.8916 0.45098 0.0
C787 C 0.16994 0.9072 0.48009 0.0
C788 C 0.14622 0.90118 0.50109 0.0
H789 H 0.11638 0.16777 0.54997 0.0
H790 H 0.11193 0.19495 0.45598 0.0
H791 H 0.14917 0.15596 0.44071 0.0
H792 H 0.19832 0.14986 0.54953 0.0
H793 H 0.19241 0.11775 0.573 0.0
H794 H 0.16761 0.14974 0.57707 0.0
H795 H 0.12047 0.1139 0.56725 0.0
H796 H 0.14507 0.08187 0.5631 0.0
H797 H 0.11887 0.08966 0.53285 0.0
H798 H 0.1834 0.11097 0.43474 0.0
H799 H 0.21235 0.06384 0.43899 0.0
H800 H 0.19486 0.06668 0.53681 0.0
C801 C 0.12361 0.16592 0.52627 0.0
C802 C 0.11122 0.18452 0.50422 0.0
C803 C 0.12109 0.18104 0.47336 0.0
C804 C 0.14231 0.15898 0.46443 0.0
C805 C 0.15365 0.14066 0.48663 0.0
C806 C 0.14479 0.14402 0.51695 0.0
C807 C 0.15908 0.12036 0.53599 0.0
C808 C 0.18064 0.13533 0.56034 0.0
C809 C 0.1344 0.10026 0.55064 0.0
C810 C 0.17673 0.10272 0.51151 0.0
C811 C 0.17352 0.1149 0.48322 0.0
C812 C 0.18642 0.10146 0.45686 0.0
C813 C 0.20278 0.07469 0.45946 0.0
C814 C 0.20603 0.06169 0.48822 0.0
C815 C 0.19312 0.07623 0.51454 0.0
loop_
_geom_bond_atom_site_label_1
_geom_bond_atom_site_label_2
_geom_bond_distance
_geom_bond_site_symmetry_2
_ccdc_geom_bond_type
C0 O1 1.306 . S
C0 O3 1.160 . S
O1 C0 1.306 . S
O1 Cd2 2.228 . S
Cd2 O1 2.228 . S
Cd2 O6 2.273 . S
Cd2 O10 2.277 1_655 S
O3 C0 1.160 . S
O3 Cd4 2.203 1_655 S
Cd4 O3 2.203 1_455 S
Cd4 O6 2.411 1_455 S
Cd4 O7 2.333 . S
Cd4 O8 2.352 1_455 S
Cd4 O12 2.277 . S
Cd4 O13 2.356 . S
C5 O10 1.209 . S
C5 O12 1.226 . S
O6 Cd2 2.273 . S
O6 Cd4 2.411 1_655 S
O6 C9 1.320 1_655 S
O7 Cd4 2.333 . S
O7 C9 1.214 . S
O8 Cd4 2.352 1_655 S
O8 C11 1.258 . S
C9 O6 1.320 1_455 S
C9 O7 1.214 . S
O10 Cd2 2.277 1_455 S
O10 C5 1.209 . S
C11 O8 1.258 . S
C11 O13 1.282 1_655 S
O12 Cd4 2.277 . S
O12 C5 1.226 . S
O13 Cd4 2.356 . S
O13 C11 1.282 1_455 S
C14 O15 1.306 . S
C14 O17 1.160 1_545 S
O15 C14 1.306 . S
O15 Cd16 2.228 . S
Cd16 O15 2.228 . S
Cd16 O20 2.273 . S
Cd16 O24 2.277 . S
O17 C14 1.160 1_565 S
O17 Cd18 2.203 1_565 S
Cd18 O17 2.203 1_545 S
Cd18 O20 2.411 . S
Cd18 O21 2.333 . S
Cd18 O22 2.352 1_545 S
Cd18 O26 2.274 1_545 S
Cd18 O27 2.356 1_545 S
C19 O24 1.209 . S
C19 O26 1.202 1_545 S
O20 Cd16 2.273 . S
O20 Cd18 2.411 . S
O20 C23 1.320 . S
O21 Cd18 2.333 . S
O21 C23 1.214 . S
O22 Cd18 2.352 1_565 S
O22 C25 1.258 . S
C23 O20 1.320 . S
C23 O21 1.214 . S
O24 Cd16 2.277 . S
O24 C19 1.209 . S
C25 O22 1.258 . S
C25 O27 1.282 . S
O26 Cd18 2.274 1_565 S
O26 C19 1.202 1_565 S
O27 Cd18 2.356 1_565 S
O27 C25 1.282 . S
C28 O29 1.306 . S
C28 O31 1.160 . S
O29 C28 1.306 . S
O29 Cd30 2.228 1_655 S
Cd30 O29 2.228 1_455 S
Cd30 O34 2.273 . S
Cd30 O38 2.277 . S
O31 C28 1.160 . S
O31 Cd32 2.203 1_655 S
Cd32 O31 2.203 1_455 S
Cd32 O34 2.411 . S
Cd32 O35 2.333 . S
Cd32 O36 2.352 1_455 S
Cd32 O40 2.277 . S
Cd32 O41 2.356 . S
C33 O38 1.209 . S
C33 O40 1.226 . S
O34 Cd30 2.273 . S
O34 Cd32 2.411 . S
O34 C37 1.320 . S
O35 Cd32 2.333 . S
O35 C37 1.214 . S
O36 Cd32 2.352 1_655 S
O36 C39 1.258 1_655 S
C37 O34 1.320 . S
C37 O35 1.214 . S
O38 Cd30 2.277 . S
O38 C33 1.209 . S
C39 O36 1.258 1_455 S
C39 O41 1.282 . S
O40 Cd32 2.277 . S
O40 C33 1.226 . S
O41 Cd32 2.356 . S
O41 C39 1.282 . S
C42 O43 1.306 1_545 S
C42 O45 1.160 . S
O43 C42 1.306 1_565 S
O43 Cd44 2.228 . S
Cd44 O43 2.228 . S
Cd44 O48 2.273 . S
Cd44 O52 2.277 . S
O45 C42 1.160 . S
O45 Cd46 2.203 . S
Cd46 O45 2.203 . S
Cd46 O48 2.411 1_545 S
Cd46 O49 2.333 1_545 S
Cd46 O50 2.352 . S
Cd46 O54 2.277 . S
Cd46 O55 2.356 . S
C47 O52 1.209 1_545 S
C47 O54 1.226 . S
O48 Cd44 2.273 . S
O48 Cd46 2.411 1_565 S
O48 C51 1.320 . S
O49 Cd46 2.333 1_565 S
O49 C51 1.214 . S
O50 Cd46 2.352 . S
O50 C53 1.258 . S
C51 O48 1.320 . S
C51 O49 1.214 . S
O52 Cd44 2.277 . S
O52 C47 1.209 1_565 S
C53 O50 1.258 . S
C53 O55 1.282 . S
O54 Cd46 2.277 . S
O54 C47 1.226 . S
O55 Cd46 2.356 . S
O55 C53 1.282 . S
C56 O57 1.306 1_545 S
C56 O59 1.160 . S
O57 C56 1.306 1_565 S
O57 Cd58 2.228 . S
Cd58 O57 2.228 . S
Cd58 O62 2.273 . S
Cd58 O66 2.277 . S
O59 C56 1.160 . S
O59 Cd60 2.203 . S
Cd60 O59 2.203 . S
Cd60 O62 2.411 1_545 S
Cd60 O63 2.333 1_545 S
Cd60 O64 2.352 . S
Cd60 O68 2.277 . S
Cd60 O69 2.356 . S
C61 O66 1.209 1_545 S
C61 O68 1.226 . S
O62 Cd58 2.273 . S
O62 Cd60 2.411 1_565 S
O62 C65 1.320 . S
O63 Cd60 2.333 1_565 S
O63 C65 1.214 . S
O64 Cd60 2.352 . S
O64 C67 1.258 . S
C65 O62 1.320 . S
C65 O63 1.214 . S
O66 Cd58 2.277 . S
O66 C61 1.209 1_565 S
C67 O64 1.258 . S
C67 O69 1.282 . S
O68 Cd60 2.277 . S
O68 C61 1.226 . S
O69 Cd60 2.356 . S
O69 C67 1.282 . S
C70 O71 1.306 . S
C70 O73 1.160 . S
O71 C70 1.306 . S
O71 Cd72 2.228 . S
Cd72 O71 2.228 . S
Cd72 O76 2.273 . S
Cd72 O80 2.277 1_455 S
O73 C70 1.160 . S
O73 Cd74 2.203 . S
Cd74 O73 2.203 . S
Cd74 O76 2.411 . S
Cd74 O77 2.333 1_455 S
Cd74 O78 2.352 . S
Cd74 O82 2.277 1_455 S
Cd74 O83 2.356 1_455 S
C75 O80 1.209 . S
C75 O82 1.226 . S
O76 Cd72 2.273 . S
O76 Cd74 2.411 . S
O76 C79 1.336 . S
O77 Cd74 2.333 1_655 S
O77 C79 1.200 1_655 S
O78 Cd74 2.352 . S
O78 C81 1.258 . S
C79 O76 1.336 . S
C79 O77 1.200 1_455 S
O80 Cd72 2.277 1_655 S
O80 C75 1.209 . S
C81 O78 1.258 . S
C81 O83 1.282 1_455 S
O82 Cd74 2.277 1_655 S
O82 C75 1.226 . S
O83 Cd74 2.356 1_655 S
O83 C81 1.282 1_655 S
C84 O85 1.306 . S
C84 O87 1.160 1_545 S
O85 C84 1.306 . S
O85 Cd86 2.228 . S
Cd86 O85 2.228 . S
Cd86 O90 2.273 . S
Cd86 O94 2.277 . S
O87 C84 1.160 1_565 S
O87 Cd88 2.203 1_565 S
Cd88 O87 2.203 1_545 S
Cd88 O90 2.411 . S
Cd88 O91 2.333 . S
Cd88 O92 2.352 1_545 S
Cd88 O96 2.277 . S
Cd88 O97 2.356 1_545 S
C89 O94 1.209 . S
C89 O96 1.226 . S
O90 Cd86 2.273 . S
O90 Cd88 2.411 . S
O90 C93 1.320 . S
O91 Cd88 2.333 . S
O91 C93 1.214 . S
O92 Cd88 2.352 1_565 S
O92 C95 1.258 . S
C93 O90 1.320 . S
C93 O91 1.214 . S
O94 Cd86 2.277 . S
O94 C89 1.209 . S
C95 O92 1.258 . S
C95 O97 1.282 . S
O96 Cd88 2.277 . S
O96 C89 1.226 . S
O97 Cd88 2.356 1_565 S
O97 C95 1.282 . S
C98 O99 1.306 . S
C98 O101 1.160 . S
O99 C98 1.306 . S
O99 Cd100 2.228 . S
Cd100 O99 2.228 . S
Cd100 O104 2.273 . S
Cd100 O108 2.277 1_455 S
O101 C98 1.160 . S
O101 Cd102 2.203 . S
Cd102 O101 2.203 . S
Cd102 O104 2.411 . S
Cd102 O105 2.333 1_455 S
Cd102 O106 2.352 . S
Cd102 O110 2.277 1_455 S
Cd102 O111 2.356 1_455 S
C103 O108 1.209 . S
C103 O110 1.226 . S
O104 Cd100 2.273 . S
O104 Cd102 2.411 . S
O104 C107 1.320 1_455 S
O105 Cd102 2.333 1_655 S
O105 C107 1.214 . S
O106 Cd102 2.352 . S
O106 C109 1.258 . S
C107 O104 1.320 1_655 S
C107 O105 1.214 . S
O108 Cd100 2.277 1_655 S
O108 C103 1.209 . S
C109 O106 1.258 . S
C109 O111 1.282 1_455 S
O110 Cd102 2.277 1_655 S
O110 C103 1.226 . S
O111 Cd102 2.356 1_655 S
O111 C109 1.282 1_655 S
C112 O113 1.306 . S
C112 O115 1.160 . S
O113 C112 1.306 . S
O113 Cd114 2.226 . S
Cd114 O113 2.226 . S
Cd114 O118 2.273 1_556 S
Cd114 O122 2.279 1_556 S
O115 C112 1.160 . S
O115 Cd116 2.203 1_556 S
Cd116 O115 2.203 1_554 S
Cd116 O118 2.419 . S
Cd116 O119 2.333 . S
Cd116 O120 2.352 1_554 S
Cd116 O124 2.277 . S
Cd116 O125 2.356 . S
C117 O122 1.209 . S
C117 O124 1.226 . S
O118 Cd114 2.273 1_554 S
O118 Cd116 2.419 . S
O118 C121 1.337 . S
O119 Cd116 2.333 . S
O119 C121 1.214 . S
O120 Cd116 2.352 1_556 S
O120 C123 1.258 1_556 S
C121 O118 1.337 . S
C121 O119 1.214 . S
O122 Cd114 2.279 1_554 S
O122 C117 1.209 . S
C123 O120 1.258 1_554 S
C123 O125 1.282 . S
O124 Cd116 2.277 . S
O124 C117 1.226 . S
O125 Cd116 2.356 . S
O125 C123 1.282 . S
C126 O127 1.306 1_554 S
C126 O129 1.160 . S
O127 C126 1.306 1_556 S
O127 Cd128 2.228 . S
Cd128 O127 2.228 . S
Cd128 O132 2.273 . S
Cd128 O136 2.277 . S
O129 C126 1.160 . S
O129 Cd130 2.203 . S
Cd130 O129 2.203 . S
Cd130 O132 2.411 1_554 S
Cd130 O133 2.333 1_554 S
Cd130 O134 2.352 . S
Cd130 O138 2.277 . S
Cd130 O139 2.356 . S
C131 O136 1.223 . S
C131 O138 1.210 1_556 S
O132 Cd128 2.273 . S
O132 Cd130 2.411 1_556 S
O132 C135 1.320 . S
O133 Cd130 2.333 1_556 S
O133 C135 1.214 . S
O134 Cd130 2.352 . S
O134 C137 1.258 . S
C135 O132 1.320 . S
C135 O133 1.214 . S
O136 Cd128 2.277 . S
O136 C131 1.223 . S
C137 O134 1.258 . S
C137 O139 1.282 . S
O138 Cd130 2.277 . S
O138 C131 1.210 1_554 S
O139 Cd130 2.356 . S
O139 C137 1.282 . S
C140 O141 1.306 . S
C140 O143 1.160 . S
O141 C140 1.306 . S
O141 Cd142 2.228 . S
Cd142 O141 2.228 . S
Cd142 O146 2.273 . S
Cd142 O150 2.277 1_556 S
O143 C140 1.160 . S
O143 Cd144 2.203 1_556 S
Cd144 O143 2.203 1_554 S
Cd144 O146 2.411 1_554 S
Cd144 O147 2.333 . S
Cd144 O148 2.352 1_554 S
Cd144 O152 2.277 . S
Cd144 O153 2.356 . S
C145 O150 1.209 . S
C145 O152 1.226 . S
O146 Cd142 2.273 . S
O146 Cd144 2.411 1_556 S
O146 C149 1.320 1_556 S
O147 Cd144 2.333 . S
O147 C149 1.214 . S
O148 Cd144 2.352 1_556 S
O148 C151 1.258 1_556 S
C149 O146 1.320 1_554 S
C149 O147 1.214 . S
O150 Cd142 2.277 1_554 S
O150 C145 1.209 . S
C151 O148 1.258 1_554 S
C151 O153 1.282 . S
O152 Cd144 2.277 . S
O152 C145 1.226 . S
O153 Cd144 2.356 . S
O153 C151 1.282 . S
C154 O155 1.306 . S
C154 O157 1.160 1_554 S
O155 C154 1.306 . S
O155 Cd156 2.228 . S
Cd156 O155 2.228 . S
Cd156 O160 2.273 . S
Cd156 O164 2.277 . S
O157 C154 1.160 1_556 S
O157 Cd158 2.203 1_556 S
Cd158 O157 2.203 1_554 S
Cd158 O160 2.411 . S
Cd158 O161 2.333 . S
Cd158 O162 2.352 1_554 S
Cd158 O166 2.277 . S
Cd158 O167 2.356 1_554 S
C159 O164 1.209 . S
C159 O166 1.226 . S
O160 Cd156 2.273 . S
O160 Cd158 2.411 . S
O160 C163 1.320 . S
O161 Cd158 2.333 . S
O161 C163 1.214 . S
O162 Cd158 2.352 1_556 S
O162 C165 1.258 . S
C163 O160 1.320 . S
C163 O161 1.214 . S
O164 Cd156 2.277 . S
O164 C159 1.209 . S
C165 O162 1.258 . S
C165 O167 1.282 . S
O166 Cd158 2.277 . S
O166 C159 1.226 . S
O167 Cd158 2.356 1_556 S
O167 C165 1.282 . S
H168 C180 0.930 . S
H169 C182 0.930 . S
H170 C183 0.930 . S
H171 C187 0.959 . S
H172 C187 0.959 . S
H173 C187 0.961 . S
H174 C188 0.960 . S
H175 C188 0.961 . S
H176 C188 0.959 . S
H177 C191 0.929 . S
H178 C192 0.931 . S
H179 C194 0.930 . S
C180 H168 0.930 . S
C180 C181 1.399 . S
C180 C185 1.395 1_655 S
C181 C180 1.399 . S
C181 C182 1.376 1_655 S
C182 H169 0.930 . S
C182 C181 1.376 1_455 S
C182 C183 1.388 . S
C183 H170 0.930 . S
C183 C182 1.388 . S
C183 C184 1.390 . S
C184 C183 1.390 . S
C184 C185 1.400 . S
C184 C190 1.465 . S
C185 C180 1.395 1_455 S
C185 C184 1.400 . S
C185 C186 1.516 . S
C186 C185 1.516 . S
C186 C187 1.502 1_455 S
C186 C188 1.561 . S
C186 C189 1.526 . S
C187 H171 0.959 . S
C187 H172 0.959 . S
C187 H173 0.961 . S
C187 C186 1.502 1_655 S
C188 H174 0.960 . S
C188 H175 0.961 . S
C188 H176 0.959 . S
C188 C186 1.561 . S
C189 C186 1.526 . S
C189 C190 1.396 . S
C189 C194 1.390 . S
C190 C184 1.465 . S
C190 C189 1.396 . S
C190 C191 1.399 . S
C191 H177 0.929 . S
C191 C190 1.399 . S
C191 C192 1.385 . S
C192 H178 0.931 . S
C192 C191 1.385 . S
C192 C193 1.389 . S
C193 C192 1.389 . S
C193 C194 1.387 . S
C194 H179 0.930 . S
C194 C189 1.390 . S
C194 C193 1.387 . S
H195 C207 0.930 . S
H196 C209 0.930 1_565 S
H197 C210 0.930 . S
H198 C214 0.959 . S
H199 C214 0.959 1_545 S
H200 C214 0.961 . S
H201 C215 0.960 . S
H202 C215 0.961 . S
H203 C215 0.959 . S
H204 C218 0.929 . S
H205 C219 0.931 . S
H206 C221 0.930 . S
C207 H195 0.930 . S
C207 C208 1.399 . S
C207 C212 1.399 . S
C208 C207 1.399 . S
C208 C209 1.376 . S
C209 H196 0.930 1_545 S
C209 C208 1.376 . S
C209 C210 1.388 . S
C210 H197 0.930 . S
C210 C209 1.388 . S
C210 C211 1.390 . S
C211 C210 1.390 . S
C211 C212 1.394 . S
C211 C217 1.465 . S
C212 C207 1.399 . S
C212 C211 1.394 . S
C212 C213 1.516 . S
C213 C212 1.516 . S
C213 C214 1.502 1_545 S
C213 C215 1.561 . S
C213 C216 1.526 . S
C214 H198 0.959 . S
C214 H199 0.959 1_565 S
C214 H200 0.961 . S
C214 C213 1.502 1_565 S
C215 H201 0.960 . S
C215 H202 0.961 . S
C215 H203 0.959 . S
C215 C213 1.561 . S
C216 C213 1.526 . S
C216 C217 1.396 . S
C216 C221 1.390 . S
C217 C211 1.465 . S
C217 C216 1.396 . S
C217 C218 1.399 . S
C218 H204 0.929 . S
C218 C217 1.399 . S
C218 C219 1.385 . S
C219 H205 0.931 . S
C219 C218 1.385 . S
C219 C220 1.389 . S
C220 C219 1.389 . S
C220 C221 1.387 . S
C221 H206 0.930 . S
C221 C216 1.390 . S
C221 C220 1.387 . S
H222 C234 0.930 . S
H223 C236 0.930 . S
H224 C237 0.930 . S
H225 C241 0.959 . S
H226 C241 0.959 . S
H227 C241 0.961 . S
H228 C242 0.960 . S
H229 C242 0.961 . S
H230 C242 0.959 . S
H231 C245 0.929 . S
H232 C246 0.931 . S
H233 C248 0.930 . S
C234 H222 0.930 . S
C234 C235 1.399 1_455 S
C234 C239 1.399 . S
C235 C234 1.399 1_655 S
C235 C236 1.376 . S
C236 H223 0.930 . S
C236 C235 1.376 . S
C236 C237 1.388 . S
C237 H224 0.930 . S
C237 C236 1.388 . S
C237 C238 1.390 . S
C238 C237 1.390 . S
C238 C239 1.394 1_655 S
C238 C244 1.465 1_655 S
C239 C234 1.399 . S
C239 C238 1.394 1_455 S
C239 C240 1.516 . S
C240 C239 1.516 . S
C240 C241 1.502 . S
C240 C242 1.561 . S
C240 C243 1.526 . S
C241 H225 0.959 . S
C241 H226 0.959 . S
C241 H227 0.961 . S
C241 C240 1.502 . S
C242 H228 0.960 . S
C242 H229 0.961 . S
C242 H230 0.959 . S
C242 C240 1.561 . S
C243 C240 1.526 . S
C243 C244 1.396 . S
C243 C248 1.390 . S
C244 C238 1.465 1_455 S
C244 C243 1.396 . S
C244 C245 1.399 1_455 S
C245 H231 0.929 . S
C245 C244 1.399 1_655 S
C245 C246 1.385 . S
C246 H232 0.931 . S
C246 C245 1.385 . S
C246 C247 1.389 1_655 S
C247 C246 1.389 1_455 S
C247 C248 1.387 . S
C248 H233 0.930 . S
C248 C243 1.390 . S
C248 C247 1.387 . S
H249 C261 0.930 . S
H250 C263 0.930 . S
H251 C264 0.930 . S
H252 C268 0.959 . S
H253 C268 0.959 . S
H254 C268 0.961 . S
H255 C269 0.960 . S
H256 C269 0.961 . S
H257 C269 0.959 . S
H258 C272 0.929 . S
H259 C273 0.931 . S
H260 C275 0.930 . S
C261 H249 0.930 . S
C261 C262 1.399 . S
C261 C266 1.399 . S
C262 C261 1.399 . S
C262 C263 1.376 1_545 S
C263 H250 0.930 . S
C263 C262 1.376 1_565 S
C263 C264 1.388 . S
C264 H251 0.930 . S
C264 C263 1.388 . S
C264 C265 1.390 1_565 S
C265 C264 1.390 1_545 S
C265 C266 1.394 . S
C265 C271 1.465 1_545 S
C266 C261 1.399 . S
C266 C265 1.394 . S
C266 C267 1.516 . S
C267 C266 1.516 . S
C267 C268 1.502 . S
C267 C269 1.561 . S
C267 C270 1.526 . S
C268 H252 0.959 . S
C268 H253 0.959 . S
C268 H254 0.961 . S
C268 C267 1.502 . S
C269 H255 0.960 . S
C269 H256 0.961 . S
C269 H257 0.959 . S
C269 C267 1.561 . S
C270 C267 1.526 . S
C270 C271 1.396 1_545 S
C270 C275 1.390 . S
C271 C265 1.465 1_565 S
C271 C270 1.396 1_565 S
C271 C272 1.399 . S
C272 H258 0.929 . S
C272 C271 1.399 . S
C272 C273 1.385 . S
C273 H259 0.931 . S
C273 C272 1.385 . S
C273 C274 1.413 . S
C274 C273 1.413 . S
C274 C275 1.365 1_565 S
C275 H260 0.930 . S
C275 C270 1.390 . S
C275 C274 1.365 1_545 S
H276 C288 0.930 . S
H277 C290 0.930 . S
H278 C291 0.930 . S
H279 C295 0.959 . S
H280 C295 0.959 . S
H281 C295 0.961 . S
H282 C296 0.960 . S
H283 C296 0.961 . S
H284 C296 0.959 . S
H285 C299 0.929 . S
H286 C300 0.931 . S
H287 C302 0.930 . S
C288 H276 0.930 . S
C288 C289 1.399 . S
C288 C293 1.399 . S
C289 C288 1.399 . S
C289 C290 1.376 . S
C290 H277 0.930 . S
C290 C289 1.376 . S
C290 C291 1.388 . S
C291 H278 0.930 . S
C291 C290 1.388 . S
C291 C292 1.390 . S
C292 C291 1.390 . S
C292 C293 1.394 . S
C292 C298 1.465 . S
C293 C288 1.399 . S
C293 C292 1.394 . S
C293 C294 1.516 . S
C294 C293 1.516 . S
C294 C295 1.502 1_455 S
C294 C296 1.561 . S
C294 C297 1.526 . S
C295 H279 0.959 . S
C295 H280 0.959 . S
C295 H281 0.961 . S
C295 C294 1.502 1_655 S
C296 H282 0.960 . S
C296 H283 0.961 . S
C296 H284 0.959 . S
C296 C294 1.561 . S
C297 C294 1.526 . S
C297 C298 1.396 . S
C297 C302 1.390 . S
C298 C292 1.465 . S
C298 C297 1.396 . S
C298 C299 1.399 . S
C299 H285 0.929 . S
C299 C298 1.399 . S
C299 C300 1.385 . S
C300 H286 0.931 . S
C300 C299 1.385 . S
C300 C301 1.389 . S
C301 C300 1.389 . S
C301 C302 1.387 . S
C302 H287 0.930 . S
C302 C297 1.390 . S
C302 C301 1.387 . S
H303 C315 0.930 . S
H304 C317 0.930 . S
H305 C318 0.930 1_565 S
H306 C322 0.959 . S
H307 C322 0.959 . S
H308 C322 0.961 . S
H309 C323 0.960 . S
H310 C323 0.961 . S
H311 C323 0.959 1_565 S
H312 C326 0.929 . S
H313 C327 0.931 . S
H314 C329 0.930 . S
C315 H303 0.930 . S
C315 C316 1.399 . S
C315 C320 1.399 . S
C316 C315 1.399 . S
C316 C317 1.376 . S
C317 H304 0.930 . S
C317 C316 1.376 . S
C317 C318 1.388 . S
C318 H305 0.930 1_545 S
C318 C317 1.388 . S
C318 C319 1.390 . S
C319 C318 1.390 . S
C319 C320 1.394 . S
C319 C325 1.465 . S
C320 C315 1.399 . S
C320 C319 1.394 . S
C320 C321 1.516 . S
C321 C320 1.516 . S
C321 C322 1.502 . S
C321 C323 1.561 . S
C321 C324 1.526 . S
C322 H306 0.959 . S
C322 H307 0.959 . S
C322 H308 0.961 . S
C322 C321 1.502 . S
C323 H309 0.960 . S
C323 H310 0.961 . S
C323 H311 0.959 1_545 S
C323 C321 1.561 . S
C324 C321 1.526 . S
C324 C325 1.396 . S
C324 C329 1.390 . S
C325 C319 1.465 . S
C325 C324 1.396 . S
C325 C326 1.399 1_545 S
C326 H312 0.929 . S
C326 C325 1.399 1_565 S
C326 C327 1.385 . S
C327 H313 0.931 . S
C327 C326 1.385 . S
C327 C328 1.389 1_565 S
C328 C327 1.389 1_545 S
C328 C329 1.387 . S
C329 H314 0.930 . S
C329 C324 1.390 . S
C329 C328 1.387 . S
H330 C342 0.944 . S
H331 C344 0.930 . S
H332 C345 0.930 . S
H333 C349 0.959 . S
H334 C349 0.959 . S
H335 C349 0.961 . S
H336 C350 0.957 1_655 S
H337 C350 0.948 1_655 S
H338 C350 0.988 . S
H339 C353 0.929 . S
H340 C354 0.931 . S
H341 C356 0.930 . S
C342 H330 0.944 . S
C342 C343 1.386 1_655 S
C342 C347 1.398 1_655 S
C343 C342 1.386 1_455 S
C343 C344 1.376 . S
C344 H331 0.930 . S
C344 C343 1.376 . S
C344 C345 1.388 . S
C345 H332 0.930 . S
C345 C344 1.388 . S
C345 C346 1.390 . S
C346 C345 1.390 . S
C346 C347 1.394 . S
C346 C352 1.465 . S
C347 C342 1.398 1_455 S
C347 C346 1.394 . S
C347 C348 1.516 1_455 S
C348 C347 1.516 1_655 S
C348 C349 1.502 . S
C348 C350 1.549 1_655 S
C348 C351 1.526 . S
C349 H333 0.959 . S
C349 H334 0.959 . S
C349 H335 0.961 . S
C349 C348 1.502 . S
C350 H336 0.957 1_455 S
C350 H337 0.948 1_455 S
C350 H338 0.988 . S
C350 C348 1.549 1_455 S
C351 C348 1.526 . S
C351 C352 1.396 1_655 S
C351 C356 1.390 . S
C352 C346 1.465 . S
C352 C351 1.396 1_455 S
C352 C353 1.399 . S
C353 H339 0.929 . S
C353 C352 1.399 . S
C353 C354 1.385 . S
C354 H340 0.931 . S
C354 C353 1.385 . S
C354 C355 1.392 1_455 S
C355 C354 1.392 1_655 S
C355 C356 1.385 . S
C356 H341 0.930 . S
C356 C351 1.390 . S
C356 C355 1.385 . S
H357 C369 0.930 . S
H358 C371 0.930 . S
H359 C372 0.930 . S
H360 C376 0.959 . S
H361 C376 0.959 . S
H362 C376 0.961 . S
H363 C377 0.960 . S
H364 C377 0.961 . S
H365 C377 0.959 . S
H366 C380 0.929 . S
H367 C381 0.931 . S
H368 C383 0.930 . S
C369 H357 0.930 . S
C369 C370 1.399 . S
C369 C374 1.399 . S
C370 C369 1.399 . S
C370 C371 1.376 1_545 S
C371 H358 0.930 . S
C371 C370 1.376 1_565 S
C371 C372 1.388 . S
C372 H359 0.930 . S
C372 C371 1.388 . S
C372 C373 1.390 1_565 S
C373 C372 1.390 1_545 S
C373 C374 1.394 . S
C373 C379 1.465 . S
C374 C369 1.399 . S
C374 C373 1.394 . S
C374 C375 1.516 . S
C375 C374 1.516 . S
C375 C376 1.502 . S
C375 C377 1.561 . S
C375 C378 1.526 . S
C376 H360 0.959 . S
C376 H361 0.959 . S
C376 H362 0.961 . S
C376 C375 1.502 . S
C377 H363 0.960 . S
C377 H364 0.961 . S
C377 H365 0.959 . S
C377 C375 1.561 . S
C378 C375 1.526 . S
C378 C379 1.396 . S
C378 C383 1.390 . S
C379 C373 1.465 . S
C379 C378 1.396 . S
C379 C380 1.399 1_545 S
C380 H366 0.929 . S
C380 C379 1.399 1_565 S
C380 C381 1.385 . S
C381 H367 0.931 . S
C381 C380 1.385 . S
C381 C382 1.389 1_565 S
C382 C381 1.389 1_545 S
C382 C383 1.387 . S
C383 H368 0.930 . S
C383 C378 1.390 . S
C383 C382 1.387 . S
H384 C396 0.930 . S
H385 C398 0.930 . S
H386 C399 0.930 . S
H387 C403 0.959 . S
H388 C403 0.959 . S
H389 C403 0.961 . S
H390 C404 0.960 . S
H391 C404 0.961 . S
H392 C404 0.959 . S
H393 C407 0.929 . S
H394 C408 0.931 . S
H395 C410 0.930 . S
C396 H384 0.930 . S
C396 C397 1.399 . S
C396 C401 1.399 . S
C397 C396 1.399 . S
C397 C398 1.376 1_554 S
C398 H385 0.930 . S
C398 C397 1.376 1_556 S
C398 C399 1.388 . S
C399 H386 0.930 . S
C399 C398 1.388 . S
C399 C400 1.390 . S
C400 C399 1.390 . S
C400 C401 1.394 1_556 S
C400 C406 1.465 . S
C401 C396 1.399 . S
C401 C400 1.394 1_554 S
C401 C402 1.516 . S
C402 C401 1.516 . S
C402 C403 1.502 . S
C402 C404 1.561 . S
C402 C405 1.526 . S
C403 H387 0.959 . S
C403 H388 0.959 . S
C403 H389 0.961 . S
C403 C402 1.502 . S
C404 H390 0.960 . S
C404 H391 0.961 . S
C404 H392 0.959 . S
C404 C402 1.561 . S
C405 C402 1.526 . S
C405 C406 1.396 1_554 S
C405 C410 1.390 . S
C406 C400 1.465 . S
C406 C405 1.396 1_556 S
C406 C407 1.399 . S
C407 H393 0.929 . S
C407 C406 1.399 . S
C407 C408 1.385 . S
C408 H394 0.931 . S
C408 C407 1.385 . S
C408 C409 1.389 . S
C409 C408 1.389 . S
C409 C410 1.387 1_556 S
C410 H395 0.930 . S
C410 C405 1.390 . S
C410 C409 1.387 1_554 S
H411 C423 0.930 . S
H412 C425 0.930 . S
H413 C426 0.930 . S
H414 C430 0.959 . S
H415 C430 0.959 . S
H416 C430 0.961 . S
H417 C431 0.960 . S
H418 C431 0.961 . S
H419 C431 0.959 . S
H420 C434 0.929 . S
H421 C435 0.931 . S
H422 C437 0.930 . S
C423 H411 0.930 . S
C423 C424 1.399 . S
C423 C428 1.399 . S
C424 C423 1.399 . S
C424 C425 1.376 . S
C425 H412 0.930 . S
C425 C424 1.376 . S
C425 C426 1.388 . S
C426 H413 0.930 . S
C426 C425 1.388 . S
C426 C427 1.390 . S
C427 C426 1.390 . S
C427 C428 1.394 . S
C427 C433 1.465 . S
C428 C423 1.399 . S
C428 C427 1.394 . S
C428 C429 1.516 . S
C429 C428 1.516 . S
C429 C430 1.502 . S
C429 C431 1.561 1_554 S
C429 C432 1.526 . S
C430 H414 0.959 . S
C430 H415 0.959 . S
C430 H416 0.961 . S
C430 C429 1.502 . S
C431 H417 0.960 . S
C431 H418 0.961 . S
C431 H419 0.959 . S
C431 C429 1.561 1_556 S
C432 C429 1.526 . S
C432 C433 1.396 . S
C432 C437 1.390 . S
C433 C427 1.465 . S
C433 C432 1.396 . S
C433 C434 1.399 . S
C434 H420 0.929 . S
C434 C433 1.399 . S
C434 C435 1.385 . S
C435 H421 0.931 . S
C435 C434 1.385 . S
C435 C436 1.389 . S
C436 C435 1.389 . S
C436 C437 1.387 . S
C437 H422 0.930 . S
C437 C432 1.390 . S
C437 C436 1.387 . S
H438 C450 0.930 . S
H439 C452 0.930 . S
H440 C453 0.930 . S
H441 C457 0.959 . S
H442 C457 0.959 . S
H443 C457 0.961 . S
H444 C458 0.960 . S
H445 C458 0.961 . S
H446 C458 0.959 . S
H447 C461 0.929 . S
H448 C462 0.931 . S
H449 C464 0.956 . S
C450 H438 0.930 . S
C450 C451 1.399 1_556 S
C450 C455 1.399 . S
C451 C450 1.399 1_554 S
C451 C452 1.376 . S
C452 H439 0.930 . S
C452 C451 1.376 . S
C452 C453 1.388 . S
C453 H440 0.930 . S
C453 C452 1.388 . S
C453 C454 1.390 . S
C454 C453 1.390 . S
C454 C455 1.394 1_554 S
C454 C460 1.465 . S
C455 C450 1.399 . S
C455 C454 1.394 1_556 S
C455 C456 1.516 . S
C456 C455 1.516 . S
C456 C457 1.502 . S
C456 C458 1.561 . S
C456 C459 1.531 . S
C457 H441 0.959 . S
C457 H442 0.959 . S
C457 H443 0.961 . S
C457 C456 1.502 . S
C458 H444 0.960 . S
C458 H445 0.961 . S
C458 H446 0.959 . S
C458 C456 1.561 . S
C459 C456 1.531 . S
C459 C460 1.390 1_556 S
C459 C464 1.388 . S
C460 C454 1.465 . S
C460 C459 1.390 1_554 S
C460 C461 1.399 . S
C461 H447 0.929 . S
C461 C460 1.399 . S
C461 C462 1.385 . S
C462 H448 0.931 . S
C462 C461 1.385 . S
C462 C463 1.389 . S
C463 C462 1.389 . S
C463 C464 1.363 1_554 S
C464 H449 0.956 . S
C464 C459 1.388 . S
C464 C463 1.363 1_556 S
H465 C477 0.930 . S
H466 C479 0.930 . S
H467 C480 0.930 . S
H468 C484 0.959 . S
H469 C484 0.959 . S
H470 C484 0.961 . S
H471 C485 0.960 . S
H472 C485 0.961 . S
H473 C485 0.959 . S
H474 C488 0.929 . S
H475 C489 0.931 . S
H476 C491 0.930 1_556 S
C477 H465 0.930 . S
C477 C478 1.399 1_556 S
C477 C482 1.399 . S
C478 C477 1.399 1_554 S
C478 C479 1.376 . S
C479 H466 0.930 . S
C479 C478 1.376 . S
C479 C480 1.388 . S
C480 H467 0.930 . S
C480 C479 1.388 . S
C480 C481 1.390 . S
C481 C480 1.390 . S
C481 C482 1.394 1_554 S
C481 C487 1.465 . S
C482 C477 1.399 . S
C482 C481 1.394 1_556 S
C482 C483 1.516 . S
C483 C482 1.516 . S
C483 C484 1.502 . S
C483 C485 1.561 . S
C483 C486 1.526 1_556 S
C484 H468 0.959 . S
C484 H469 0.959 . S
C484 H470 0.961 . S
C484 C483 1.502 . S
C485 H471 0.960 . S
C485 H472 0.961 . S
C485 H473 0.959 . S
C485 C483 1.561 . S
C486 C483 1.526 1_554 S
C486 C487 1.396 . S
C486 C491 1.390 . S
C487 C481 1.465 . S
C487 C486 1.396 . S
C487 C488 1.399 . S
C488 H474 0.929 . S
C488 C487 1.399 . S
C488 C489 1.385 . S
C489 H475 0.931 . S
C489 C488 1.385 . S
C489 C490 1.389 . S
C490 C489 1.389 . S
C490 C491 1.387 . S
C491 H476 0.930 1_554 S
C491 C486 1.390 . S
C491 C490 1.387 . S
H492 C504 0.930 . S
H493 C506 0.930 . S
H494 C507 0.930 . S
H495 C511 0.959 . S
H496 C511 0.959 . S
H497 C511 0.961 . S
H498 C512 0.960 . S
H499 C512 0.961 . S
H500 C512 0.959 . S
H501 C515 0.929 . S
H502 C516 0.931 . S
H503 C518 0.930 . S
C504 H492 0.930 . S
C504 C505 1.399 . S
C504 C509 1.399 . S
C505 C504 1.399 . S
C505 C506 1.376 . S
C506 H493 0.930 . S
C506 C505 1.376 . S
C506 C507 1.388 . S
C507 H494 0.930 . S
C507 C506 1.388 . S
C507 C508 1.390 . S
C508 C507 1.390 . S
C508 C509 1.394 . S
C508 C514 1.465 . S
C509 C504 1.399 . S
C509 C508 1.394 . S
C509 C510 1.516 . S
C510 C509 1.516 . S
C510 C511 1.502 . S
C510 C512 1.561 . S
C510 C513 1.526 . S
C511 H495 0.959 . S
C511 H496 0.959 . S
C511 H497 0.961 . S
C511 C510 1.502 . S
C512 H498 0.960 . S
C512 H499 0.961 . S
C512 H500 0.959 . S
C512 C510 1.561 . S
C513 C510 1.526 . S
C513 C514 1.396 . S
C513 C518 1.390 . S
C514 C508 1.465 . S
C514 C513 1.396 . S
C514 C515 1.399 . S
C515 H501 0.929 . S
C515 C514 1.399 . S
C515 C516 1.385 . S
C516 H502 0.931 . S
C516 C515 1.385 . S
C516 C517 1.389 . S
C517 C516 1.389 . S
C517 C518 1.387 . S
C518 H503 0.930 . S
C518 C513 1.390 . S
C518 C517 1.387 . S
H519 C531 0.930 . S
H520 C533 0.930 . S
H521 C534 0.930 . S
H522 C538 0.959 . S
H523 C538 0.959 . S
H524 C538 0.961 . S
H525 C539 0.960 . S
H526 C539 0.961 . S
H527 C539 0.959 . S
H528 C542 0.929 . S
H529 C543 0.931 . S
H530 C545 0.930 . S
C531 H519 0.930 . S
C531 C532 1.399 . S
C531 C536 1.399 . S
C532 C531 1.399 . S
C532 C533 1.376 . S
C533 H520 0.930 . S
C533 C532 1.376 . S
C533 C534 1.388 . S
C534 H521 0.930 . S
C534 C533 1.388 . S
C534 C535 1.390 . S
C535 C534 1.390 . S
C535 C536 1.394 . S
C535 C541 1.465 . S
C536 C531 1.399 . S
C536 C535 1.394 . S
C536 C537 1.516 . S
C537 C536 1.516 . S
C537 C538 1.502 . S
C537 C539 1.561 . S
C537 C540 1.526 . S
C538 H522 0.959 . S
C538 H523 0.959 . S
C538 H524 0.961 . S
C538 C537 1.502 . S
C539 H525 0.960 . S
C539 H526 0.961 . S
C539 H527 0.959 . S
C539 C537 1.561 . S
C540 C537 1.526 . S
C540 C541 1.396 . S
C540 C545 1.390 . S
C541 C535 1.465 . S
C541 C540 1.396 . S
C541 C542 1.399 . S
C542 H528 0.929 . S
C542 C541 1.399 . S
C542 C543 1.385 . S
C543 H529 0.931 . S
C543 C542 1.385 . S
C543 C544 1.389 . S
C544 C543 1.389 . S
C544 C545 1.387 . S
C545 H530 0.930 . S
C545 C540 1.390 . S
C545 C544 1.387 . S
H546 C558 0.930 . S
H547 C560 0.930 . S
H548 C561 0.930 . S
H549 C565 0.959 . S
H550 C565 0.959 . S
H551 C565 0.961 . S
H552 C566 0.960 . S
H553 C566 0.961 . S
H554 C566 0.959 . S
H555 C569 0.929 . S
H556 C570 0.931 . S
H557 C572 0.930 . S
C558 H546 0.930 . S
C558 C559 1.399 . S
C558 C563 1.399 . S
C559 C558 1.399 . S
C559 C560 1.376 . S
C560 H547 0.930 . S
C560 C559 1.376 . S
C560 C561 1.388 . S
C561 H548 0.930 . S
C561 C560 1.388 . S
C561 C562 1.390 . S
C562 C561 1.390 . S
C562 C563 1.394 . S
C562 C568 1.465 . S
C563 C558 1.399 . S
C563 C562 1.394 . S
C563 C564 1.516 . S
C564 C563 1.516 . S
C564 C565 1.502 . S
C564 C566 1.561 . S
C564 C567 1.526 . S
C565 H549 0.959 . S
C565 H550 0.959 . S
C565 H551 0.961 . S
C565 C564 1.502 . S
C566 H552 0.960 . S
C566 H553 0.961 . S
C566 H554 0.959 . S
C566 C564 1.561 . S
C567 C564 1.526 . S
C567 C568 1.396 . S
C567 C572 1.390 . S
C568 C562 1.465 . S
C568 C567 1.396 . S
C568 C569 1.399 . S
C569 H555 0.929 . S
C569 C568 1.399 . S
C569 C570 1.385 . S
C570 H556 0.931 . S
C570 C569 1.385 . S
C570 C571 1.389 . S
C571 C570 1.389 . S
C571 C572 1.387 . S
C572 H557 0.930 . S
C572 C567 1.390 . S
C572 C571 1.387 . S
H573 C585 0.930 . S
H574 C587 0.930 . S
H575 C588 0.930 . S
H576 C592 0.959 . S
H577 C592 0.959 . S
H578 C592 0.961 . S
H579 C593 0.960 . S
H580 C593 0.961 . S
H581 C593 0.959 . S
H582 C596 0.929 . S
H583 C597 0.931 . S
H584 C599 0.930 . S
C585 H573 0.930 . S
C585 C586 1.399 . S
C585 C590 1.399 . S
C586 C585 1.399 . S
C586 C587 1.376 . S
C587 H574 0.930 . S
C587 C586 1.376 . S
C587 C588 1.388 . S
C588 H575 0.930 . S
C588 C587 1.388 . S
C588 C589 1.390 . S
C589 C588 1.390 . S
C589 C590 1.394 . S
C589 C595 1.465 . S
C590 C585 1.399 . S
C590 C589 1.394 . S
C590 C591 1.516 . S
C591 C590 1.516 . S
C591 C592 1.502 . S
C591 C593 1.561 . S
C591 C594 1.526 . S
C592 H576 0.959 . S
C592 H577 0.959 . S
C592 H578 0.961 . S
C592 C591 1.502 . S
C593 H579 0.960 . S
C593 H580 0.961 . S
C593 H581 0.959 . S
C593 C591 1.561 . S
C594 C591 1.526 . S
C594 C595 1.396 . S
C594 C599 1.390 . S
C595 C589 1.465 . S
C595 C594 1.396 . S
C595 C596 1.399 . S
C596 H582 0.929 . S
C596 C595 1.399 . S
C596 C597 1.385 . S
C597 H583 0.931 . S
C597 C596 1.385 . S
C597 C598 1.389 . S
C598 C597 1.389 . S
C598 C599 1.387 . S
C599 H584 0.930 . S
C599 C594 1.390 . S
C599 C598 1.387 . S
H600 C612 0.930 . S
H601 C614 0.930 . S
H602 C615 0.930 . S
H603 C619 0.959 . S
H604 C619 0.959 . S
H605 C619 0.961 . S
H606 C620 0.960 . S
H607 C620 0.961 . S
H608 C620 0.959 . S
H609 C623 0.929 . S
H610 C624 0.931 . S
H611 C626 0.930 . S
C612 H600 0.930 . S
C612 C613 1.399 . S
C612 C617 1.399 . S
C613 C612 1.399 . S
C613 C614 1.376 . S
C614 H601 0.930 . S
C614 C613 1.376 . S
C614 C615 1.388 . S
C615 H602 0.930 . S
C615 C614 1.388 . S
C615 C616 1.390 . S
C616 C615 1.390 . S
C616 C617 1.394 . S
C616 C622 1.465 . S
C617 C612 1.399 . S
C617 C616 1.394 . S
C617 C618 1.516 . S
C618 C617 1.516 . S
C618 C619 1.502 . S
C618 C620 1.561 . S
C618 C621 1.526 . S
C619 H603 0.959 . S
C619 H604 0.959 . S
C619 H605 0.961 . S
C619 C618 1.502 . S
C620 H606 0.960 . S
C620 H607 0.961 . S
C620 H608 0.959 . S
C620 C618 1.561 . S
C621 C618 1.526 . S
C621 C622 1.396 . S
C621 C626 1.390 . S
C622 C616 1.465 . S
C622 C621 1.396 . S
C622 C623 1.399 . S
C623 H609 0.929 . S
C623 C622 1.399 . S
C623 C624 1.385 . S
C624 H610 0.931 . S
C624 C623 1.385 . S
C624 C625 1.389 . S
C625 C624 1.389 . S
C625 C626 1.387 . S
C626 H611 0.930 . S
C626 C621 1.390 . S
C626 C625 1.387 . S
H627 C639 0.930 . S
H628 C641 0.930 . S
H629 C642 0.930 . S
H630 C646 0.959 . S
H631 C646 0.959 . S
H632 C646 0.961 . S
H633 C647 0.960 . S
H634 C647 0.961 . S
H635 C647 0.959 . S
H636 C650 0.929 . S
H637 C651 0.931 . S
H638 C653 0.930 . S
C639 H627 0.930 . S
C639 C640 1.399 . S
C639 C644 1.399 . S
C640 C639 1.399 . S
C640 C641 1.376 . S
C641 H628 0.930 . S
C641 C640 1.376 . S
C641 C642 1.388 . S
C642 H629 0.930 . S
C642 C641 1.388 . S
C642 C643 1.390 . S
C643 C642 1.390 . S
C643 C644 1.394 . S
C643 C649 1.465 . S
C644 C639 1.399 . S
C644 C643 1.394 . S
C644 C645 1.516 . S
C645 C644 1.516 . S
C645 C646 1.502 . S
C645 C647 1.561 . S
C645 C648 1.526 . S
C646 H630 0.959 . S
C646 H631 0.959 . S
C646 H632 0.961 . S
C646 C645 1.502 . S
C647 H633 0.960 . S
C647 H634 0.961 . S
C647 H635 0.959 . S
C647 C645 1.561 . S
C648 C645 1.526 . S
C648 C649 1.396 . S
C648 C653 1.390 . S
C649 C643 1.465 . S
C649 C648 1.396 . S
C649 C650 1.399 . S
C650 H636 0.929 . S
C650 C649 1.399 . S
C650 C651 1.385 . S
C651 H637 0.931 . S
C651 C650 1.385 . S
C651 C652 1.389 . S
C652 C651 1.389 . S
C652 C653 1.387 . S
C653 H638 0.930 . S
C653 C648 1.390 . S
C653 C652 1.387 . S
H654 C666 0.930 . S
H655 C668 0.930 . S
H656 C669 0.930 . S
H657 C673 0.959 . S
H658 C673 0.959 . S
H659 C673 0.961 . S
H660 C674 0.960 . S
H661 C674 0.961 . S
H662 C674 0.959 . S
H663 C677 0.929 . S
H664 C678 0.931 . S
H665 C680 0.930 . S
C666 H654 0.930 . S
C666 C667 1.399 . S
C666 C671 1.399 . S
C667 C666 1.399 . S
C667 C668 1.376 . S
C668 H655 0.930 . S
C668 C667 1.376 . S
C668 C669 1.388 . S
C669 H656 0.930 . S
C669 C668 1.388 . S
C669 C670 1.390 . S
C670 C669 1.390 . S
C670 C671 1.394 . S
C670 C676 1.465 . S
C671 C666 1.399 . S
C671 C670 1.394 . S
C671 C672 1.516 . S
C672 C671 1.516 . S
C672 C673 1.502 . S
C672 C674 1.561 . S
C672 C675 1.526 . S
C673 H657 0.959 . S
C673 H658 0.959 . S
C673 H659 0.961 . S
C673 C672 1.502 . S
C674 H660 0.960 . S
C674 H661 0.961 . S
C674 H662 0.959 . S
C674 C672 1.561 . S
C675 C672 1.526 . S
C675 C676 1.396 . S
C675 C680 1.390 . S
C676 C670 1.465 . S
C676 C675 1.396 . S
C676 C677 1.399 . S
C677 H663 0.929 . S
C677 C676 1.399 . S
C677 C678 1.385 . S
C678 H664 0.931 . S
C678 C677 1.385 . S
C678 C679 1.389 . S
C679 C678 1.389 . S
C679 C680 1.387 . S
C680 H665 0.930 . S
C680 C675 1.390 . S
C680 C679 1.387 . S
H681 C693 0.930 . S
H682 C695 0.930 . S
H683 C696 0.930 . S
H684 C700 0.959 . S
H685 C700 0.959 . S
H686 C700 0.961 . S
H687 C701 0.960 . S
H688 C701 0.961 . S
H689 C701 0.959 . S
H690 C704 0.929 . S
H691 C705 0.931 . S
H692 C707 0.930 . S
C693 H681 0.930 . S
C693 C694 1.399 . S
C693 C698 1.399 . S
C694 C693 1.399 . S
C694 C695 1.376 . S
C695 H682 0.930 . S
C695 C694 1.376 . S
C695 C696 1.388 . S
C696 H683 0.930 . S
C696 C695 1.388 . S
C696 C697 1.390 . S
C697 C696 1.390 . S
C697 C698 1.394 . S
C697 C703 1.465 . S
C698 C693 1.399 . S
C698 C697 1.394 . S
C698 C699 1.516 . S
C699 C698 1.516 . S
C699 C700 1.502 . S
C699 C701 1.561 . S
C699 C702 1.526 . S
C700 H684 0.959 . S
C700 H685 0.959 . S
C700 H686 0.961 . S
C700 C699 1.502 . S
C701 H687 0.960 . S
C701 H688 0.961 . S
C701 H689 0.959 . S
C701 C699 1.561 . S
C702 C699 1.526 . S
C702 C703 1.396 . S
C702 C707 1.390 . S
C703 C697 1.465 . S
C703 C702 1.396 . S
C703 C704 1.399 . S
C704 H690 0.929 . S
C704 C703 1.399 . S
C704 C705 1.385 . S
C705 H691 0.931 . S
C705 C704 1.385 . S
C705 C706 1.389 . S
C706 C705 1.389 . S
C706 C707 1.387 . S
C707 H692 0.930 . S
C707 C702 1.390 . S
C707 C706 1.387 . S
H708 C720 0.930 . S
H709 C722 0.930 . S
H710 C723 0.930 . S
H711 C727 0.959 . S
H712 C727 0.959 . S
H713 C727 0.961 . S
H714 C728 0.960 . S
H715 C728 0.961 . S
H716 C728 0.959 . S
H717 C731 0.929 . S
H718 C732 0.931 . S
H719 C734 0.930 . S
C720 H708 0.930 . S
C720 C721 1.399 . S
C720 C725 1.399 . S
C721 C720 1.399 . S
C721 C722 1.376 . S
C722 H709 0.930 . S
C722 C721 1.376 . S
C722 C723 1.388 . S
C723 H710 0.930 . S
C723 C722 1.388 . S
C723 C724 1.390 . S
C724 C723 1.390 . S
C724 C725 1.394 . S
C724 C730 1.465 . S
C725 C720 1.399 . S
C725 C724 1.394 . S
C725 C726 1.516 . S
C726 C725 1.516 . S
C726 C727 1.502 . S
C726 C728 1.561 . S
C726 C729 1.526 . S
C727 H711 0.959 . S
C727 H712 0.959 . S
C727 H713 0.961 . S
C727 C726 1.502 . S
C728 H714 0.960 . S
C728 H715 0.961 . S
C728 H716 0.959 . S
C728 C726 1.561 . S
C729 C726 1.526 . S
C729 C730 1.396 . S
C729 C734 1.390 . S
C730 C724 1.465 . S
C730 C729 1.396 . S
C730 C731 1.399 . S
C731 H717 0.929 . S
C731 C730 1.399 . S
C731 C732 1.385 . S
C732 H718 0.931 . S
C732 C731 1.385 . S
C732 C733 1.389 . S
C733 C732 1.389 . S
C733 C734 1.387 . S
C734 H719 0.930 . S
C734 C729 1.390 . S
C734 C733 1.387 . S
H735 C747 0.930 . S
H736 C749 0.930 . S
H737 C750 0.930 . S
H738 C754 0.959 . S
H739 C754 0.959 . S
H740 C754 0.961 . S
H741 C755 0.960 . S
H742 C755 0.961 . S
H743 C755 0.959 . S
H744 C758 0.929 . S
H745 C759 0.931 . S
H746 C761 0.930 . S
C747 H735 0.930 . S
C747 C748 1.399 . S
C747 C752 1.399 . S
C748 C747 1.399 . S
C748 C749 1.376 . S
C749 H736 0.930 . S
C749 C748 1.376 . S
C749 C750 1.388 . S
C750 H737 0.930 . S
C750 C749 1.388 . S
C750 C751 1.390 . S
C751 C750 1.390 . S
C751 C752 1.394 . S
C751 C757 1.465 . S
C752 C747 1.399 . S
C752 C751 1.394 . S
C752 C753 1.516 . S
C753 C752 1.516 . S
C753 C754 1.502 . S
C753 C755 1.561 . S
C753 C756 1.526 . S
C754 H738 0.959 . S
C754 H739 0.959 . S
C754 H740 0.961 . S
C754 C753 1.502 . S
C755 H741 0.960 . S
C755 H742 0.961 . S
C755 H743 0.959 . S
C755 C753 1.561 . S
C756 C753 1.526 . S
C756 C757 1.396 . S
C756 C761 1.390 . S
C757 C751 1.465 . S
C757 C756 1.396 . S
C757 C758 1.399 . S
C758 H744 0.929 . S
C758 C757 1.399 . S
C758 C759 1.385 . S
C759 H745 0.931 . S
C759 C758 1.385 . S
C759 C760 1.389 . S
C760 C759 1.389 . S
C760 C761 1.387 . S
C761 H746 0.930 . S
C761 C756 1.390 . S
C761 C760 1.387 . S
H762 C774 0.930 . S
H763 C776 0.930 . S
H764 C777 0.930 . S
H765 C781 0.959 . S
H766 C781 0.959 . S
H767 C781 0.961 . S
H768 C782 0.960 . S
H769 C782 0.961 . S
H770 C782 0.959 . S
H771 C785 0.929 . S
H772 C786 0.931 . S
H773 C788 0.930 . S
C774 H762 0.930 . S
C774 C775 1.399 . S
C774 C779 1.399 . S
C775 C774 1.399 . S
C775 C776 1.376 . S
C776 H763 0.930 . S
C776 C775 1.376 . S
C776 C777 1.388 . S
C777 H764 0.930 . S
C777 C776 1.388 . S
C777 C778 1.390 . S
C778 C777 1.390 . S
C778 C779 1.394 . S
C778 C784 1.465 . S
C779 C774 1.399 . S
C779 C778 1.394 . S
C779 C780 1.516 . S
C780 C779 1.516 . S
C780 C781 1.502 . S
C780 C782 1.561 . S
C780 C783 1.526 . S
C781 H765 0.959 . S
C781 H766 0.959 . S
C781 H767 0.961 . S
C781 C780 1.502 . S
C782 H768 0.960 . S
C782 H769 0.961 . S
C782 H770 0.959 . S
C782 C780 1.561 . S
C783 C780 1.526 . S
C783 C784 1.396 . S
C783 C788 1.390 . S
C784 C778 1.465 . S
C784 C783 1.396 . S
C784 C785 1.399 . S
C785 H771 0.929 . S
C785 C784 1.399 . S
C785 C786 1.385 . S
C786 H772 0.931 . S
C786 C785 1.385 . S
C786 C787 1.389 . S
C787 C786 1.389 . S
C787 C788 1.387 . S
C788 H773 0.930 . S
C788 C783 1.390 . S
C788 C787 1.387 . S
H789 C801 0.930 . S
H790 C803 0.930 . S
H791 C804 0.930 . S
H792 C808 0.959 . S
H793 C808 0.959 . S
H794 C808 0.961 . S
H795 C809 0.960 . S
H796 C809 0.961 . S
H797 C809 0.959 . S
H798 C812 0.929 . S
H799 C813 0.931 . S
H800 C815 0.930 . S
C801 H789 0.930 . S
C801 C802 1.399 . S
C801 C806 1.399 . S
C802 C801 1.399 . S
C802 C803 1.376 . S
C803 H790 0.930 . S
C803 C802 1.376 . S
C803 C804 1.388 . S
C804 H791 0.930 . S
C804 C803 1.388 . S
C804 C805 1.390 . S
C805 C804 1.390 . S
C805 C806 1.394 . S
C805 C811 1.465 . S
C806 C801 1.399 . S
C806 C805 1.394 . S
C806 C807 1.516 . S
C807 C806 1.516 . S
C807 C808 1.502 . S
C807 C809 1.561 . S
C807 C810 1.526 . S
C808 H792 0.959 . S
C808 H793 0.959 . S
C808 H794 0.961 . S
C808 C807 1.502 . S
C809 H795 0.960 . S
C809 H796 0.961 . S
C809 H797 0.959 . S
C809 C807 1.561 . S
C810 C807 1.526 . S
C810 C811 1.396 . S
C810 C815 1.390 . S
C811 C805 1.465 . S
C811 C810 1.396 . S
C811 C812 1.399 . S
C812 H798 0.929 . S
C812 C811 1.399 . S
C812 C813 1.385 . S
C813 H799 0.931 . S
C813 C812 1.385 . S
C813 C814 1.389 . S
C814 C813 1.389 . S
C814 C815 1.387 . S
C815 H800 0.930 . S
C815 C810 1.390 . S
C815 C814 1.387 . S
C181 C11 1.447 . S
C193 C81 1.480 . S
C208 C14 1.421 . S
C220 C56 1.438 . S
C235 C79 1.401 1_655 S
C247 C37 1.368 . S
C262 C42 1.388 . S
C274 C61 1.454 1_565 S
C289 C109 1.474 . S
C301 C39 1.455 . S
C316 C89 1.416 . S
C328 C47 1.443 . S
C343 C9 1.398 . S
C355 C107 1.366 . S
C370 C84 1.443 . S
C382 C19 1.433 . S
C397 C126 1.411 . S
C409 C123 1.477 1_556 S
C424 C121 1.426 . S
C436 C154 1.419 . S
C451 C131 1.395 1_554 S
C463 C149 1.412 . S
C478 C151 1.420 . S
C490 C159 1.467 . S
C505 C165 1.476 . S
C517 C95 1.453 . S
C532 C112 1.388 . S
C544 C98 1.452 . S
C559 C93 1.370 . S
C571 C135 1.405 . S
C586 C103 1.459 . S
C598 C140 1.398 . S
C613 C67 1.433 . S
C625 C137 1.493 . S
C640 C75 1.446 . S
C652 C145 1.414 . S
C667 C163 1.374 . S
C679 C65 1.379 . S
C694 C117 1.435 . S
C706 C70 1.439 . S
C721 C25 1.463 . S
C733 C28 1.436 . S
C748 C0 1.434 . S
C760 C23 1.408 . S
C775 C33 1.434 . S
C787 C51 1.397 . S
C802 C5 1.435 . S
C814 C53 1.466 . S
