# Generated by pormake.
# Topology mmt, (4)-cn, num edge types: 1
# Building blocks:
#     Node 0, Type 0, BuildingBlock: QUQFOY_clean_sbu_1, # of connection points: 4
#     Node 1, Type 0, BuildingBlock: QUQFOY_clean_sbu_1, # of connection points: 4
#     Node 2, Type 0, BuildingBlock: QUQFOY_clean_sbu_1, # of connection points: 4
#     Node 3, Type 0, BuildingBlock: QUQFOY_clean_sbu_1, # of connection points: 4
#     Node 4, Type 0, BuildingBlock: QUQFOY_clean_sbu_1, # of connection points: 4
#     Node 5, Type 0, BuildingBlock: QUQFOY_clean_sbu_1, # of connection points: 4
#     Node 6, Type 0, BuildingBlock: QUQFOY_clean_sbu_1, # of connection points: 4
#     Node 7, Type 0, BuildingBlock: QUQFOY_clean_sbu_1, # of connection points: 4
#     Edge 8, Type (0, 0), BuildingBlock: FUNLAD_clean_linker_1, # of connection points: 2
#     Edge 9, Type (0, 0), BuildingBlock: FUNLAD_clean_linker_1, # of connection points: 2
#     Edge 10, Type (0, 0), BuildingBlock: FUNLAD_clean_linker_1, # of connection points: 2
#     Edge 11, Type (0, 0), BuildingBlock: FUNLAD_clean_linker_1, # of connection points: 2
#     Edge 12, Type (0, 0), BuildingBlock: FUNLAD_clean_linker_1, # of connection points: 2
#     Edge 13, Type (0, 0), BuildingBlock: FUNLAD_clean_linker_1, # of connection points: 2
#     Edge 14, Type (0, 0), BuildingBlock: FUNLAD_clean_linker_1, # of connection points: 2
#     Edge 15, Type (0, 0), BuildingBlock: FUNLAD_clean_linker_1, # of connection points: 2
#     Edge 16, Type (0, 0), BuildingBlock: FUNLAD_clean_linker_1, # of connection points: 2
#     Edge 17, Type (0, 0), BuildingBlock: FUNLAD_clean_linker_1, # of connection points: 2
#     Edge 18, Type (0, 0), BuildingBlock: FUNLAD_clean_linker_1, # of connection points: 2
#     Edge 19, Type (0, 0), BuildingBlock: FUNLAD_clean_linker_1, # of connection points: 2
#     Edge 20, Type (0, 0), BuildingBlock: FUNLAD_clean_linker_1, # of connection points: 2
#     Edge 21, Type (0, 0), BuildingBlock: FUNLAD_clean_linker_1, # of connection points: 2
#     Edge 22, Type (0, 0), BuildingBlock: FUNLAD_clean_linker_1, # of connection points: 2
#     Edge 23, Type (0, 0), BuildingBlock: FUNLAD_clean_linker_1, # of connection points: 2
# Relax obj value: 0.022
# Max RMSD: 0.102
# Mean RMSD: 0.102
data_MOF--net-mmt--node1-QUQFOY_clean_sbu_1--edge1-FUNLAD_clean_linker_1
_symmetry_space_group_name_H-M    P1
_symmetry_Int_Tables_number       1
_symmetry_cell_setting            triclinic
loop_
_symmetry_equiv_pos_as_xyz
'x, y, z'
_cell_length_a     22.729243
_cell_length_b     43.14824
_cell_length_c     47.623417
_cell_angle_alpha  89.162927
_cell_angle_beta   89.983924
_cell_angle_gamma 89.84432
loop_
_atom_site_label
_atom_site_type_symbol
_atom_site_fract_x
_atom_site_fract_y
_atom_site_fract_z
_atom_type_partial_charge
O0 O 0.17076 0.58831 0.32623 0.0
Cd1 Cd 0.10719 0.61424 0.34619 0.0
Cd2 Cd 0.08189 0.55615 0.36879 0.0
O3 O 0.15904 0.54374 0.34902 0.0
O4 O 0.12831 0.65805 0.33683 0.0
O5 O 0.13279 0.63871 0.38002 0.0
C6 C 0.14083 0.66178 0.36292 0.0
C7 C 0.06221 0.53912 0.41465 0.0
C8 C 0.18608 0.56038 0.33097 0.0
C9 C 0.9929 0.58575 0.32971 0.0
O10 O 0.01019 0.5615 0.34278 0.0
O11 O 0.02266 0.61059 0.33049 0.0
O12 O 0.0612 0.52036 0.39389 0.0
O13 O 0.07597 0.56771 0.40964 0.0
O14 O 0.29235 0.96097 0.33266 0.0
Cd15 Cd 0.35555 0.9317 0.35012 0.0
Cd16 Cd 0.37866 0.98344 0.37764 0.0
O17 O 0.29692 0.99761 0.36444 0.0
O18 O 0.33323 0.88893 0.33898 0.0
O19 O 0.32994 0.90483 0.38296 0.0
C20 C 0.32112 0.88322 0.36498 0.0
C21 C 0.40863 0.98754 0.42412 0.0
C22 C 0.27262 0.98594 0.34308 0.0
C23 C 0.4652 0.9635 0.33439 0.0
O24 O 0.44386 0.98612 0.3478 0.0
O25 O 0.44105 0.93703 0.33574 0.0
O26 O 0.40431 1.01168 0.40794 0.0
O27 O 0.39393 0.96097 0.41416 0.0
O28 O 0.68437 0.45065 0.20919 0.0
Cd29 Cd 0.61838 0.42119 0.19647 0.0
Cd30 Cd 0.58781 0.47644 0.16767 0.0
O31 O 0.66411 0.49348 0.18496 0.0
O32 O 0.64379 0.38152 0.21485 0.0
O33 O 0.63803 0.38726 0.16879 0.0
C34 C 0.65107 0.37008 0.19033 0.0
C35 C 0.56863 0.48122 0.11971 0.0
C36 C 0.69599 0.47856 0.20245 0.0
C37 C 0.50303 0.45184 0.21109 0.0
O38 O 0.51678 0.47381 0.1943 0.0
O39 O 0.53562 0.42799 0.21371 0.0
O40 O 0.56379 0.50464 0.1361 0.0
O41 O 0.58579 0.45505 0.13046 0.0
O42 O 0.79648 0.07586 0.20382 0.0
Cd43 Cd 0.86308 0.10303 0.18799 0.0
Cd44 Cd 0.87463 0.05442 0.15422 0.0
O45 O 0.79224 0.0422 0.1694 0.0
O46 O 0.84333 0.14627 0.19886 0.0
O47 O 0.84825 0.13115 0.15465 0.0
C48 C 0.83744 0.15274 0.17246 0.0
C49 C 0.89831 0.05187 0.10673 0.0
C50 C 0.77214 0.05292 0.19218 0.0
C51 C 0.96872 0.06555 0.19804 0.0
O52 O 0.94564 0.04716 0.18064 0.0
O53 O 0.94543 0.09176 0.2028 0.0
O54 O 0.89215 0.02709 0.1219 0.0
O55 O 0.888 0.07827 0.11818 0.0
O56 O 0.81841 0.45304 0.70924 0.0
Cd57 Cd 0.88309 0.42778 0.68942 0.0
Cd58 Cd 0.90696 0.48644 0.66723 0.0
O59 O 0.82987 0.49821 0.68741 0.0
O60 O 0.86255 0.38382 0.69853 0.0
O61 O 0.85814 0.40343 0.65544 0.0
C62 C 0.84996 0.38026 0.67242 0.0
C63 C 0.92551 0.50356 0.62131 0.0
C64 C 0.80275 0.48099 0.705 0.0
C65 C -0.00287 0.45703 0.70579 0.0
O66 O 0.97935 0.48121 0.69277 0.0
O67 O 0.96757 0.43209 0.7052 0.0
O68 O 0.92651 0.52234 0.64206 0.0
O69 O 0.91227 0.4749 0.62638 0.0
O70 O 0.6869 0.08707 0.70945 0.0
Cd71 Cd 0.62673 0.11283 0.68614 0.0
Cd72 Cd 0.6269 0.06209 0.65797 0.0
O73 O 0.70963 0.05597 0.67477 0.0
O74 O 0.63901 0.15729 0.69543 0.0
O75 O 0.66034 0.13768 0.65387 0.0
C76 C 0.66031 0.16105 0.6705 0.0
C77 C 0.60587 0.05739 0.61051 0.0
C78 C 0.71999 0.06638 0.69905 0.0
C79 C 0.5239 0.07444 0.69454 0.0
O80 O 0.55716 0.05356 0.68467 0.0
O81 O 0.53893 0.10271 0.69281 0.0
O82 O 0.61562 0.03325 0.62618 0.0
O83 O 0.61103 0.08443 0.62153 0.0
O84 O 0.31749 0.58756 0.82904 0.0
Cd85 Cd 0.38146 0.61363 0.84839 0.0
Cd86 Cd 0.40441 0.55744 0.87257 0.0
O87 O 0.32842 0.5435 0.85276 0.0
O88 O 0.36101 0.65737 0.83813 0.0
O89 O 0.35555 0.63897 0.88163 0.0
C90 C 0.34787 0.66169 0.86408 0.0
C91 C 0.41924 0.55113 0.92069 0.0
C92 C 0.3018 0.55984 0.83428 0.0
C93 C 0.49611 0.58367 0.83381 0.0
O94 O 0.47788 0.56009 0.84749 0.0
O95 O 0.46653 0.6087 0.83341 0.0
O96 O 0.42352 0.52796 0.90396 0.0
O97 O 0.40466 0.57785 0.91018 0.0
O98 O 0.18867 0.95609 0.82296 0.0
Cd99 Cd 0.12813 0.93043 0.84599 0.0
Cd100 Cd 0.12635 0.98145 0.87376 0.0
O101 O 0.20932 0.98791 0.85736 0.0
O102 O 0.1413 0.88595 0.83696 0.0
O103 O 0.16081 0.90573 0.87862 0.0
C104 C 0.16161 0.88228 0.86209 0.0
C105 C 0.10337 0.98585 0.92103 0.0
C106 C 0.2208 0.97715 0.8333 0.0
C107 C 0.02453 0.96847 0.83684 0.0
O108 O 0.05702 0.98956 0.84675 0.0
O109 O 0.04034 0.94029 0.8387 0.0
O110 O 0.11315 1.0101 0.90555 0.0
O111 O 0.10987 0.95888 0.90998 0.0
H112 H 0.25578 0.5625 0.29892 0.0
C113 C 0.2334 0.54711 0.3137 0.0
H114 H 0.22513 0.50073 0.32842 0.0
H115 H 0.33387 0.48485 0.20033 0.0
H116 H 0.23321 0.49505 0.18576 0.0
H117 H 0.15728 0.50898 0.22044 0.0
H118 H 0.18159 0.51291 0.26989 0.0
C119 C 0.24655 0.51674 0.3139 0.0
C120 C 0.29019 0.50438 0.29365 0.0
C121 C 0.27502 0.50168 0.26491 0.0
C122 C 0.31866 0.49343 0.24497 0.0
C123 C 0.30246 0.49121 0.21635 0.0
C124 C 0.24483 0.4969 0.20771 0.0
C125 C 0.20208 0.50476 0.22724 0.0
C126 C 0.2167 0.50709 0.25553 0.0
H127 H 0.43964 0.43575 0.2434 0.0
C128 C 0.45164 0.45516 0.22978 0.0
H129 H 0.43505 0.50202 0.21885 0.0
H130 H 0.33155 0.50434 0.34747 0.0
H131 H 0.43198 0.49395 0.36234 0.0
H132 H 0.50881 0.48136 0.3277 0.0
H133 H 0.4858 0.47875 0.27818 0.0
C134 C 0.42375 0.48248 0.23243 0.0
C135 C 0.37719 0.48756 0.25384 0.0
C136 C 0.39186 0.48916 0.28279 0.0
C137 C 0.34795 0.49715 0.30274 0.0
C138 C 0.36345 0.49862 0.33148 0.0
C139 C 0.42087 0.49272 0.34028 0.0
C140 C 0.4641 0.48557 0.32078 0.0
C141 C 0.45012 0.48394 0.29236 0.0
H142 H 0.0411 0.03322 0.20761 0.0
C143 C 0.02033 0.05471 0.21407 0.0
H144 H 0.01545 0.08848 0.24569 0.0
H145 H 0.10914 0.98809 0.33441 0.0
H146 H 0.00826 0.99504 0.34961 0.0
H147 H 0.93988 0.02835 0.32248 0.0
H148 H 0.97196 0.05479 0.27992 0.0
C149 C 0.03798 0.06809 0.23789 0.0
C150 C 0.08174 0.0521 0.25628 0.0
C151 C 0.06275 0.03763 0.28162 0.0
C152 C 0.10242 1.01881 0.2975 0.0
C153 C 0.08143 1.00334 0.32194 0.0
C154 C 0.02345 1.00696 0.33082 0.0
C155 C 0.98493 0.02567 0.31553 0.0
C156 C 0.00399 0.04076 0.29113 0.0
H157 H 0.20818 0.02409 0.33895 0.0
C158 C 0.22421 1.00304 0.32924 0.0
H159 H 0.22078 0.97471 0.29351 0.0
H160 H 0.13375 0.0798 0.21064 0.0
H161 H 0.23532 0.07385 0.19584 0.0
H162 H 0.30426 0.04111 0.22323 0.0
H163 H 0.27216 1.01419 0.26556 0.0
C164 C 0.20298 0.9948 0.30413 0.0
C165 C 0.16133 1.0151 0.28828 0.0
C166 C 0.18082 0.03049 0.26346 0.0
C167 C 0.14105 0.04916 0.24754 0.0
C168 C 0.16188 0.06479 0.22316 0.0
C169 C 0.22015 0.06173 0.21454 0.0
C170 C 0.25897 0.04333 0.22997 0.0
C171 C 0.23987 0.02791 0.2542 0.0
H172 H 0.77371 0.47899 0.22978 0.0
C173 C 0.74517 0.49368 0.21692 0.0
H174 H 0.72216 0.53983 0.20612 0.0
H175 H 0.82351 0.58241 0.32434 0.0
H176 H 0.71988 0.59527 0.32854 0.0
H177 H 0.64995 0.58237 0.29089 0.0
H178 H 0.68315 0.55653 0.24882 0.0
C179 C 0.75227 0.52456 0.21744 0.0
C180 C 0.79586 0.53814 0.23708 0.0
C181 C 0.77591 0.55414 0.26111 0.0
C182 C 0.81626 0.56171 0.28279 0.0
C183 C 0.79486 0.57646 0.30712 0.0
C184 C 0.73546 0.58389 0.30983 0.0
C185 C 0.69608 0.57662 0.28863 0.0
C186 C 0.71575 0.56179 0.26457 0.0
H187 H 0.92757 0.60512 0.29971 0.0
C188 C 0.94169 0.58414 0.31072 0.0
H189 H 0.93368 0.53549 0.31392 0.0
H190 H 0.84987 0.51343 0.19122 0.0
H191 H 0.95414 0.50219 0.18623 0.0
H192 H 0.02396 0.51445 0.22414 0.0
H193 H 0.99005 0.53815 0.26714 0.0
C194 C 0.91745 0.5568 0.3042 0.0
C195 C 0.87638 0.55352 0.28018 0.0
C196 C 0.89697 0.53965 0.25521 0.0
C197 C 0.85674 0.53221 0.23353 0.0
C198 C 0.87852 0.5188 0.20862 0.0
C199 C 0.93825 0.51245 0.20542 0.0
C200 C 0.97756 0.51937 0.22675 0.0
C201 C 0.95746 0.53287 0.25137 0.0
H202 H 0.68336 0.03197 0.19422 0.0
C203 C 0.72208 0.0379 0.20635 0.0
H204 H 0.76461 0.03778 0.24547 0.0
H205 H 0.55698 0.04215 0.3292 0.0
H206 H 0.60981 0.08934 0.33899 0.0
H207 H 0.69047 0.10712 0.30816 0.0
H208 H 0.71945 0.07752 0.26775 0.0
C209 C 0.72459 0.03211 0.23415 0.0
C210 C 0.67285 0.02192 0.25112 0.0
C211 C 0.65492 0.04026 0.27412 0.0
C212 C 0.60679 0.03074 0.2912 0.0
C213 C 0.59187 0.04874 0.31488 0.0
C214 C 0.62205 0.07587 0.32089 0.0
C215 C 0.66754 0.08582 0.30359 0.0
C216 C 0.68394 0.0684 0.28048 0.0
H217 H 0.54832 0.95014 0.3134 0.0
C218 C 0.51633 0.96864 0.31595 0.0
H219 H 0.48873 1.01354 0.30417 0.0
H220 H 0.70212 0.97794 0.21233 0.0
H221 H 0.64452 0.93294 0.20015 0.0
H222 H 0.55173 0.92108 0.2249 0.0
H223 H 0.51737 0.95344 0.26267 0.0
C224 C 0.52196 0.99559 0.30168 0.0
C225 C 0.57467 1.00368 0.28451 0.0
C226 C 0.59155 0.98576 0.26104 0.0
C227 C 0.64238 0.99408 0.24517 0.0
C228 C 0.66172 0.97398 0.22379 0.0
C229 C 0.62937 0.94785 0.21676 0.0
C230 C 0.57733 0.94107 0.2308 0.0
C231 C 0.5584 0.95972 0.25267 0.0
H232 H 0.5633 0.60157 0.80414 0.0
C233 C 0.54846 0.58108 0.81562 0.0
H234 H 0.5564 0.53253 0.82052 0.0
H235 H 0.64642 0.50972 0.69809 0.0
H236 H 0.54303 0.49721 0.6926 0.0
H237 H 0.47174 0.50838 0.73023 0.0
H238 H 0.50329 0.53232 0.77345 0.0
C239 C 0.57314 0.55343 0.81036 0.0
C240 C 0.61571 0.54928 0.78702 0.0
C241 C 0.59655 0.53507 0.76198 0.0
C242 C 0.6377 0.52822 0.74046 0.0
C243 C 0.61719 0.51468 0.7154 0.0
C244 C 0.55791 0.50758 0.7119 0.0
C245 C 0.51777 0.5139 0.73307 0.0
C246 C 0.53655 0.52755 0.75782 0.0
H247 H 0.72904 0.47707 0.73476 0.0
C248 C 0.75406 0.4934 0.72192 0.0
H249 H 0.76912 0.54074 0.71239 0.0
H250 H 0.66625 0.57782 0.83188 0.0
H251 H 0.76934 0.59118 0.83697 0.0
H252 H 0.8409 0.57918 0.79968 0.0
H253 H 0.80986 0.55377 0.75707 0.0
C254 C 0.74256 0.52385 0.7238 0.0
C255 C 0.69811 0.53505 0.74427 0.0
C256 C 0.71679 0.55067 0.7687 0.0
C257 C 0.67552 0.55769 0.79018 0.0
C258 C 0.69565 0.57227 0.8148 0.0
C259 C 0.75472 0.57999 0.81802 0.0
C260 C 0.79502 0.57322 0.79703 0.0
C261 C 0.77658 0.55865 0.77265 0.0
H262 H 0.80797 0.04544 0.70449 0.0
C263 C 0.7691 0.05344 0.71556 0.0
H264 H 0.72516 0.05699 0.7543 0.0
H265 H 0.9601 0.96174 0.76919 0.0
H266 H 0.91623 0.93029 0.73319 0.0
H267 H 0.82202 0.94551 0.7112 0.0
H268 H 0.77278 0.99305 0.72427 0.0
C269 C 0.76482 0.04951 0.74354 0.0
C270 C 0.81406 0.0366 0.76084 0.0
C271 C 0.83913 1.00723 0.75484 0.0
C272 C 0.89034 0.99694 0.76945 0.0
C273 C 0.91869 0.96952 0.76046 0.0
C274 C 0.8943 0.95137 0.73953 0.0
C275 C 0.84151 0.96004 0.72702 0.0
C276 C 0.81405 0.9876 0.7345 0.0
H277 H 0.93493 0.96014 0.82045 0.0
C278 C 0.97031 0.97696 0.82164 0.0
H279 H 0.00216 0.02076 0.80896 0.0
H280 H 0.77601 0.09359 0.77849 0.0
H281 H 0.81334 0.12222 0.81794 0.0
H282 H 0.89489 0.10149 0.84679 0.0
H283 H 0.94025 0.05226 0.83601 0.0
C284 C 0.96609 1.00432 0.80787 0.0
C285 C 0.91245 1.01439 0.7922 0.0
C286 C 0.88483 0.04271 0.79945 0.0
C287 C 0.83642 0.05413 0.78342 0.0
C288 C 0.81181 0.08328 0.79032 0.0
C289 C 0.83295 0.10009 0.81291 0.0
C290 C 0.87893 0.08846 0.82911 0.0
C291 C 0.90475 0.06017 0.82257 0.0
H292 H 0.22924 0.56256 0.80384 0.0
C293 C 0.25359 0.54676 0.81757 0.0
H294 H 0.26733 0.49985 0.82936 0.0
H295 H 0.00398 0.50941 0.76552 0.0
H296 H 0.97192 0.53588 0.80744 0.0
H297 H 0.04213 0.54742 0.84537 0.0
H298 H 0.14496 0.53271 0.84146 0.0
C299 C 0.24151 0.51631 0.81701 0.0
C300 C 0.19722 0.50445 0.79681 0.0
C301 C 0.13707 0.51252 0.79973 0.0
C302 C 0.09653 0.50549 0.77804 0.0
C303 C 0.03681 0.51429 0.78129 0.0
C304 C 0.01773 0.5294 0.8053 0.0
C305 C 0.05727 0.53592 0.82664 0.0
C306 C 0.11624 0.52756 0.82404 0.0
H307 H 0.06241 0.43812 0.73605 0.0
C308 C 0.04888 0.45882 0.72445 0.0
H309 H 0.05911 0.5072 0.7195 0.0
H310 H 0.30815 0.48266 0.78616 0.0
H311 H 0.33957 0.45458 0.74498 0.0
H312 H 0.26917 0.44242 0.70731 0.0
H313 H 0.16688 0.45825 0.7106 0.0
C314 C 0.07453 0.48612 0.72991 0.0
C315 C 0.116 0.48989 0.75372 0.0
C316 C 0.17534 0.48004 0.75162 0.0
C317 C 0.216 0.48722 0.77329 0.0
C318 C 0.27538 0.47778 0.77038 0.0
C319 C 0.29401 0.46166 0.74683 0.0
C320 C 0.25436 0.45479 0.72563 0.0
C321 C 0.19572 0.46394 0.72782 0.0
H322 H 0.30781 0.99909 0.82817 0.0
C323 C 0.27006 0.99009 0.81694 0.0
H324 H 0.22868 0.98423 0.77784 0.0
H325 H 0.4571 0.08275 0.76152 0.0
H326 H 0.40944 0.11503 0.7959 0.0
H327 H 0.31563 0.09909 0.81773 0.0
H328 H 0.27059 0.05009 0.80617 0.0
C329 C 0.26718 0.99277 0.7888 0.0
C330 C 0.31655 1.00565 0.77163 0.0
C331 C 0.33913 0.03573 0.77668 0.0
C332 C 0.39006 0.0463 0.76206 0.0
C333 C 0.41595 0.07463 0.7702 0.0
C334 C 0.38938 0.09328 0.79021 0.0
C335 C 0.33682 0.08421 0.80264 0.0
C336 C 0.31178 0.05582 0.79604 0.0
H337 H 0.43337 0.08184 0.71027 0.0
C338 C 0.46994 0.06559 0.70973 0.0
H339 H 0.50489 0.02295 0.72396 0.0
H340 H 0.28411 0.94702 0.75622 0.0
H341 H 0.32546 0.91714 0.7184 0.0
H342 H 0.40635 0.93804 0.68933 0.0
H343 H 0.44703 0.98872 0.69828 0.0
C344 C 0.4675 0.03872 0.72436 0.0
C345 C 0.41434 0.02825 0.74017 0.0
C346 C 0.38942 0.99901 0.73394 0.0
C347 C 0.34135 0.98743 0.75005 0.0
C348 C 0.31949 0.95745 0.74423 0.0
C349 C 0.34296 0.93992 0.7226 0.0
C350 C 0.38858 0.95164 0.70628 0.0
C351 C 0.4117 0.98078 0.71177 0.0
H352 H 0.03724 0.50303 0.44553 0.0
C353 C 0.04612 0.52766 0.44297 0.0
H354 H 0.04515 0.57122 0.46259 0.0
H355 H 0.85739 0.52717 0.55337 0.0
H356 H 0.79937 0.56273 0.52479 0.0
H357 H 0.83995 0.5856 0.48117 0.0
H358 H 0.9387 0.57293 0.46579 0.0
C359 C 0.0392 0.54635 0.46505 0.0
C360 C 0.0166 0.53393 0.49241 0.0
C361 C 0.95923 0.54211 0.50146 0.0
C362 C 0.93611 0.52928 0.52687 0.0
C363 C 0.8778 0.5369 0.53473 0.0
C364 C 0.8438 0.55712 0.5184 0.0
C365 C 0.86662 0.56996 0.49382 0.0
C366 C 0.92348 0.56253 0.48528 0.0
H367 H 0.94979 0.53969 0.59035 0.0
C368 C 0.9412 0.51504 0.59294 0.0
H369 H 0.94266 0.47145 0.5734 0.0
H370 H 0.13003 0.51546 0.48253 0.0
H371 H 0.18807 0.4799 0.51111 0.0
H372 H 0.14753 0.45707 0.55475 0.0
H373 H 0.04881 0.46976 0.57015 0.0
C374 C 0.94829 0.49633 0.57089 0.0
C375 C 0.97087 0.50874 0.54352 0.0
C376 C 0.02825 0.50056 0.53447 0.0
C377 C 0.05135 0.51339 0.50906 0.0
C378 C 0.10965 0.50575 0.50118 0.0
C379 C 0.14365 0.48553 0.51751 0.0
C380 C 0.12085 0.4727 0.5421 0.0
C381 C 0.06401 0.48015 0.55065 0.0
H382 H 0.43592 0.96896 0.46566 0.0
C383 C 0.4322 0.98996 0.45288 0.0
H384 H 0.45013 0.03788 0.44987 0.0
H385 H 0.4671 1.0124 0.58784 0.0
H386 H 0.36324 1.00005 0.58574 0.0
H387 H 0.3119 0.99712 0.54024 0.0
H388 H 0.36419 1.00626 0.49658 0.0
C389 C 0.4516 1.01705 0.46296 0.0
C390 C 0.48171 1.01907 0.49065 0.0
C391 C 0.45021 1.01395 0.51601 0.0
C392 C 0.47962 1.01617 0.54228 0.0
C393 C 0.4471 1.01095 0.56729 0.0
C394 C 0.38736 1.00393 0.56641 0.0
C395 C 0.35848 1.00225 0.5408 0.0
C396 C 0.3892 1.00733 0.51585 0.0
H397 H 0.57907 0.07524 0.56868 0.0
C398 C 0.58548 0.05429 0.58128 0.0
H399 H 0.57342 1.00581 0.58381 0.0
H400 H 0.55511 0.03035 0.44601 0.0
H401 H 0.65877 0.04313 0.4482 0.0
H402 H 0.70964 0.04685 0.49377 0.0
H403 H 0.65707 0.0379 0.53743 0.0
C404 C 0.57001 0.02668 0.57085 0.0
C405 C 0.54009 0.02417 0.54318 0.0
C406 C 0.57154 0.02938 0.51786 0.0
C407 C 0.54225 0.02698 0.49157 0.0
C408 C 0.57491 0.03208 0.46658 0.0
C409 C 0.63455 0.03933 0.46752 0.0
C410 C 0.66318 0.04144 0.49317 0.0
C411 C 0.63236 0.03642 0.5181 0.0
H412 H 0.55818 0.46356 0.07662 0.0
C413 C 0.55346 0.48393 0.0896 0.0
H414 H 0.52544 0.53057 0.0913 0.0
H415 H 0.56313 0.51403 0.9539 0.0
H416 H 0.6667 0.50735 0.96455 0.0
H417 H 0.70112 0.5038 1.01361 0.0
H418 H 0.63219 0.50669 0.05229 0.0
C419 C 0.5324 0.51046 0.07822 0.0
C420 C 0.51233 0.5126 0.04843 0.0
C421 C 0.55337 0.51111 0.02603 0.0
C422 C 0.53357 0.51362 0.99772 0.0
C423 C 0.57558 0.51213 0.97579 0.0
C424 C 0.63525 0.50841 0.98159 0.0
C425 C 0.65463 0.50638 1.00921 0.0
C426 C 0.61445 0.50785 0.03124 0.0
H427 H 0.42844 0.56781 0.96416 0.0
C428 C 0.43283 0.54763 0.95092 0.0
H429 H 0.45982 0.50086 0.9487 0.0
H430 H 0.42211 0.51667 0.08633 0.0
H431 H 0.31856 0.52346 0.07567 0.0
H432 H 0.28418 0.52715 0.02661 0.0
H433 H 0.35317 0.52427 0.98793 0.0
C434 C 0.45298 0.52078 0.96204 0.0
C435 C 0.47294 0.51821 0.99181 0.0
C436 C 0.4319 0.51968 1.01421 0.0
C437 C 0.45169 0.51714 0.04252 0.0
C438 C 0.40967 0.51862 0.06445 0.0
C439 C 0.35001 0.5224 0.05863 0.0
C440 C 0.33066 0.52451 0.03101 0.0
C441 C 0.37085 0.52303 1.00899 0.0
H442 H 0.07481 0.96764 0.96243 0.0
C443 C 0.08128 0.98869 0.95001 0.0
H444 H 0.06785 0.03711 0.94753 0.0
H445 H 0.85431 0.03651 0.03218 0.0
H446 H 0.80494 0.04727 0.98799 0.0
H447 H 0.85903 0.04502 0.94316 0.0
H448 H 0.96271 0.03181 0.94224 0.0
C449 C 0.06432 1.01615 0.96035 0.0
C450 C 0.03273 1.01833 0.98765 0.0
C451 C 0.97232 0.02674 0.98788 0.0
C452 C 0.94125 0.02844 1.01376 0.0
C453 C 0.88044 0.03567 1.01323 0.0
C454 C 0.85141 0.04171 0.98798 0.0
C455 C 0.88185 0.04041 0.96273 0.0
C456 C 0.94148 0.03289 0.96253 0.0
H457 H 0.92575 0.07176 0.06572 0.0
C458 C 0.92059 0.05028 0.07767 0.0
H459 H 0.93648 1.00205 0.07906 0.0
H460 H 0.14937 1.00418 0.99485 0.0
H461 H 0.19892 0.99365 0.03905 0.0
H462 H 0.14497 0.99609 0.08391 0.0
H463 H 0.04125 1.00921 0.08486 0.0
C464 C 0.93901 0.02338 0.0667 0.0
C465 C 0.97094 0.02223 0.03942 0.0
C466 C 0.03147 1.01404 0.0392 0.0
C467 C 0.06249 1.0123 1.01332 0.0
C468 C 0.12332 1.00509 1.01383 0.0
C469 C 0.15244 0.99919 0.03908 0.0
C470 C 0.12207 1.00058 0.06434 0.0
C471 C 0.06241 1.00803 0.06455 0.0
H472 H 0.20477 0.68899 0.38715 0.0
C473 C 0.16904 0.69068 0.37206 0.0
H474 H 0.1193 0.71879 0.34476 0.0
H475 H 0.30535 0.81286 0.41467 0.0
H476 H 0.26636 0.79136 0.45813 0.0
H477 H 0.19039 0.75064 0.45753 0.0
H478 H 0.15496 0.73028 0.41351 0.0
C479 C 0.15574 0.71796 0.35954 0.0
C480 C 0.19494 0.74573 0.36076 0.0
C481 C 0.21129 0.75921 0.38666 0.0
C482 C 0.25108 0.78473 0.38696 0.0
C483 C 0.27193 0.7952 0.41316 0.0
C484 C 0.25039 0.7828 0.43829 0.0
C485 C 0.20791 0.75974 0.43796 0.0
C486 C 0.1884 0.74802 0.41251 0.0
H487 H 0.2559 0.85457 0.38767 0.0
C488 C 0.29276 0.85377 0.37318 0.0
H489 H 0.34537 0.82718 0.3466 0.0
H490 H 0.17794 0.72417 0.30725 0.0
H491 H 0.20894 0.74883 0.26395 0.0
H492 H 0.26497 0.79765 0.2643 0.0
H493 H 0.29167 0.82151 0.30795 0.0
C494 C 0.30774 0.82712 0.36071 0.0
C495 C 0.26943 0.79893 0.36131 0.0
C496 C 0.25117 0.78615 0.3354 0.0
C497 C 0.21579 0.759 0.33515 0.0
C498 C 0.20221 0.74556 0.3089 0.0
C499 C 0.22012 0.75937 0.28374 0.0
C500 C 0.25185 0.78675 0.28394 0.0
C501 C 0.26727 0.80008 0.30932 0.0
H502 H 0.81433 0.18854 0.14044 0.0
C503 C 0.81648 0.18358 0.16286 0.0
H504 H 0.80023 0.20014 0.20362 0.0
H505 H 0.79744 0.3423 0.17742 0.0
H506 H 0.8955 0.33683 0.1971 0.0
H507 H 0.9391 0.28508 0.20545 0.0
H508 H 0.88503 0.23849 0.19404 0.0
C509 C 0.79725 0.20477 0.18117 0.0
C510 C 0.77388 0.23569 0.17227 0.0
C511 C 0.80602 0.26269 0.17899 0.0
C512 C 0.78066 0.29251 0.17446 0.0
C513 C 0.81412 0.31907 0.18105 0.0
C514 C 0.87058 0.31627 0.19218 0.0
C515 C 0.89514 0.28713 0.19687 0.0
C516 C 0.86353 0.26058 0.19033 0.0
H517 H 0.68503 0.32604 0.20739 0.0
C518 C 0.67629 0.33871 0.18791 0.0
H519 H 0.68376 0.33782 0.14361 0.0
H520 H 0.70028 0.18884 0.15617 0.0
H521 H 0.60388 0.19465 0.13502 0.0
H522 H 0.56113 0.24651 0.12628 0.0
H523 H 0.61459 0.29296 0.13888 0.0
C524 C 0.69239 0.32602 0.16349 0.0
C525 C 0.72276 0.29532 0.16361 0.0
C526 C 0.69213 0.26848 0.15514 0.0
C527 C 0.71735 0.23857 0.15975 0.0
C528 C 0.68412 0.21213 0.15256 0.0
C529 C 0.6285 0.21514 0.14051 0.0
C530 C 0.60438 0.24433 0.13562 0.0
C531 C 0.63549 0.27078 0.14295 0.0
H532 H 0.72912 0.18882 0.6495 0.0
C533 C 0.69002 0.19024 0.66254 0.0
H534 H 0.63395 0.21816 0.68633 0.0
H535 H 0.80118 0.32056 0.72811 0.0
H536 H 0.76282 0.29801 0.77099 0.0
H537 H 0.70382 0.25019 0.77024 0.0
H538 H 0.68157 0.22521 0.72655 0.0
C539 C 0.67362 0.21744 0.6736 0.0
C540 C 0.71276 0.24532 0.67344 0.0
C541 C 0.72804 0.25881 0.69948 0.0
C542 C 0.76494 0.28539 0.70008 0.0
C543 C 0.77581 0.29953 0.72631 0.0
C544 C 0.75367 0.28696 0.75121 0.0
C545 C 0.72028 0.26014 0.75077 0.0
C546 C 0.70751 0.24613 0.72536 0.0
H547 H 0.78716 0.3535 0.64711 0.0
C548 C 0.82101 0.35159 0.66315 0.0
H549 H 0.86547 0.32328 0.69233 0.0
H550 H 0.68345 0.2299 0.61955 0.0
H551 H 0.72909 0.24938 0.57681 0.0
H552 H 0.80673 0.28915 0.5786 0.0
H553 H 0.83733 0.31057 0.62301 0.0
C554 C 0.83095 0.32441 0.67654 0.0
C555 C 0.79001 0.29738 0.67484 0.0
C556 C 0.77625 0.2833 0.64887 0.0
C557 C 0.73524 0.25835 0.64805 0.0
C558 C 0.71742 0.2472 0.62158 0.0
C559 C 0.74282 0.25843 0.59684 0.0
C560 C 0.78626 0.28096 0.59784 0.0
C561 C 0.80299 0.29331 0.62348 0.0
H562 H 0.2835 0.68935 0.88777 0.0
C563 C 0.31905 0.69076 0.87256 0.0
H564 H 0.36776 0.71833 0.84451 0.0
H565 H 0.19097 0.81907 0.80629 0.0
H566 H 0.21845 0.79454 0.763 0.0
H567 H 0.27673 0.74628 0.76337 0.0
H568 H 0.30914 0.72283 0.807 0.0
C569 C 0.33149 0.71774 0.8594 0.0
C570 C 0.29155 0.74537 0.86017 0.0
C571 C 0.26999 0.7579 0.83438 0.0
C572 C 0.23347 0.78475 0.83422 0.0
C573 C 0.21644 0.79794 0.80796 0.0
C574 C 0.23224 0.7842 0.78279 0.0
C575 C 0.26523 0.75713 0.78299 0.0
C576 C 0.28394 0.74403 0.80834 0.0
H577 H 0.22864 0.85433 0.88442 0.0
C578 C 0.19092 0.85304 0.87049 0.0
H579 H 0.13761 0.82531 0.84527 0.0
H580 H 0.33274 0.73147 0.91306 0.0
H581 H 0.29722 0.75269 0.95678 0.0
H582 H 0.21998 0.79297 0.95682 0.0
H583 H 0.17973 0.81318 0.91309 0.0
C584 C 0.17586 0.82593 0.85895 0.0
C585 C 0.21505 0.79799 0.85993 0.0
C586 C 0.23435 0.78459 0.88578 0.0
C587 C 0.27504 0.75935 0.88584 0.0
C588 C 0.29867 0.74895 0.91183 0.0
C589 C 0.27912 0.76118 0.93709 0.0
C590 C 0.23591 0.784 0.93711 0.0
C591 C 0.21361 0.79563 0.91182 0.0
loop_
_geom_bond_atom_site_label_1
_geom_bond_atom_site_label_2
_geom_bond_distance
_geom_bond_site_symmetry_2
_ccdc_geom_bond_type
O0 Cd1 2.223 . S
O0 C8 1.315 . S
Cd1 O0 2.223 . S
Cd1 O4 2.297 . S
Cd1 O5 2.439 . S
Cd1 O11 2.240 . S
Cd2 O3 2.240 . S
Cd2 O10 2.223 . S
Cd2 O12 2.297 . S
Cd2 O13 2.439 . S
O3 Cd2 2.240 . S
O3 C8 1.279 . S
O4 Cd1 2.297 . S
O4 C6 1.247 . S
O5 Cd1 2.439 . S
O5 C6 1.208 . S
C6 O4 1.247 . S
C6 O5 1.208 . S
C7 O12 1.247 . S
C7 O13 1.208 . S
C8 O0 1.315 . S
C8 O3 1.279 . S
C9 O10 1.315 . S
C9 O11 1.279 . S
O10 Cd2 2.223 . S
O10 C9 1.315 . S
O11 Cd1 2.240 . S
O11 C9 1.279 . S
O12 Cd2 2.297 . S
O12 C7 1.247 . S
O13 Cd2 2.439 . S
O13 C7 1.208 . S
O14 Cd15 2.223 . S
O14 C22 1.315 . S
Cd15 O14 2.223 . S
Cd15 O18 2.297 . S
Cd15 O19 2.439 . S
Cd15 O25 2.240 . S
Cd16 O17 2.240 . S
Cd16 O24 2.223 . S
Cd16 O26 2.297 . S
Cd16 O27 2.439 . S
O17 Cd16 2.240 . S
O17 C22 1.279 . S
O18 Cd15 2.297 . S
O18 C20 1.247 . S
O19 Cd15 2.439 . S
O19 C20 1.208 . S
C20 O18 1.247 . S
C20 O19 1.208 . S
C21 O26 1.247 . S
C21 O27 1.208 . S
C22 O14 1.315 . S
C22 O17 1.279 . S
C23 O24 1.315 . S
C23 O25 1.279 . S
O24 Cd16 2.223 . S
O24 C23 1.315 . S
O25 Cd15 2.240 . S
O25 C23 1.279 . S
O26 Cd16 2.297 . S
O26 C21 1.247 . S
O27 Cd16 2.439 . S
O27 C21 1.208 . S
O28 Cd29 2.223 . S
O28 C36 1.315 . S
Cd29 O28 2.223 . S
Cd29 O32 2.297 . S
Cd29 O33 2.439 . S
Cd29 O39 2.240 . S
Cd30 O31 2.240 . S
Cd30 O38 2.223 . S
Cd30 O40 2.297 . S
Cd30 O41 2.439 . S
O31 Cd30 2.240 . S
O31 C36 1.279 . S
O32 Cd29 2.297 . S
O32 C34 1.247 . S
O33 Cd29 2.439 . S
O33 C34 1.208 . S
C34 O32 1.247 . S
C34 O33 1.208 . S
C35 O40 1.247 . S
C35 O41 1.208 . S
C36 O28 1.315 . S
C36 O31 1.279 . S
C37 O38 1.315 . S
C37 O39 1.279 . S
O38 Cd30 2.223 . S
O38 C37 1.315 . S
O39 Cd29 2.240 . S
O39 C37 1.279 . S
O40 Cd30 2.297 . S
O40 C35 1.247 . S
O41 Cd30 2.439 . S
O41 C35 1.208 . S
O42 Cd43 2.223 . S
O42 C50 1.315 . S
Cd43 O42 2.223 . S
Cd43 O46 2.297 . S
Cd43 O47 2.439 . S
Cd43 O53 2.240 . S
Cd44 O45 2.240 . S
Cd44 O52 2.223 . S
Cd44 O54 2.297 . S
Cd44 O55 2.439 . S
O45 Cd44 2.240 . S
O45 C50 1.279 . S
O46 Cd43 2.297 . S
O46 C48 1.247 . S
O47 Cd43 2.439 . S
O47 C48 1.208 . S
C48 O46 1.247 . S
C48 O47 1.208 . S
C49 O54 1.247 . S
C49 O55 1.208 . S
C50 O42 1.315 . S
C50 O45 1.279 . S
C51 O52 1.315 . S
C51 O53 1.279 . S
O52 Cd44 2.223 . S
O52 C51 1.315 . S
O53 Cd43 2.240 . S
O53 C51 1.279 . S
O54 Cd44 2.297 . S
O54 C49 1.247 . S
O55 Cd44 2.439 . S
O55 C49 1.208 . S
O56 Cd57 2.223 . S
O56 C64 1.315 . S
Cd57 O56 2.223 . S
Cd57 O60 2.297 . S
Cd57 O61 2.439 . S
Cd57 O67 2.240 . S
Cd58 O59 2.240 . S
Cd58 O66 2.223 . S
Cd58 O68 2.297 . S
Cd58 O69 2.439 . S
O59 Cd58 2.240 . S
O59 C64 1.279 . S
O60 Cd57 2.297 . S
O60 C62 1.247 . S
O61 Cd57 2.439 . S
O61 C62 1.208 . S
C62 O60 1.247 . S
C62 O61 1.208 . S
C63 O68 1.247 . S
C63 O69 1.208 . S
C64 O56 1.315 . S
C64 O59 1.279 . S
C65 O66 1.315 . S
C65 O67 1.279 . S
O66 Cd58 2.223 . S
O66 C65 1.315 . S
O67 Cd57 2.240 . S
O67 C65 1.279 . S
O68 Cd58 2.297 . S
O68 C63 1.247 . S
O69 Cd58 2.439 . S
O69 C63 1.208 . S
O70 Cd71 2.223 . S
O70 C78 1.315 . S
Cd71 O70 2.223 . S
Cd71 O74 2.297 . S
Cd71 O75 2.439 . S
Cd71 O81 2.240 . S
Cd72 O73 2.240 . S
Cd72 O80 2.223 . S
Cd72 O82 2.297 . S
Cd72 O83 2.439 . S
O73 Cd72 2.240 . S
O73 C78 1.279 . S
O74 Cd71 2.297 . S
O74 C76 1.247 . S
O75 Cd71 2.439 . S
O75 C76 1.208 . S
C76 O74 1.247 . S
C76 O75 1.208 . S
C77 O82 1.247 . S
C77 O83 1.208 . S
C78 O70 1.315 . S
C78 O73 1.279 . S
C79 O80 1.315 . S
C79 O81 1.279 . S
O80 Cd72 2.223 . S
O80 C79 1.315 . S
O81 Cd71 2.240 . S
O81 C79 1.279 . S
O82 Cd72 2.297 . S
O82 C77 1.247 . S
O83 Cd72 2.439 . S
O83 C77 1.208 . S
O84 Cd85 2.223 . S
O84 C92 1.315 . S
Cd85 O84 2.223 . S
Cd85 O88 2.297 . S
Cd85 O89 2.439 . S
Cd85 O95 2.240 . S
Cd86 O87 2.240 . S
Cd86 O94 2.223 . S
Cd86 O96 2.297 . S
Cd86 O97 2.439 . S
O87 Cd86 2.240 . S
O87 C92 1.279 . S
O88 Cd85 2.297 . S
O88 C90 1.247 . S
O89 Cd85 2.439 . S
O89 C90 1.208 . S
C90 O88 1.247 . S
C90 O89 1.208 . S
C91 O96 1.247 . S
C91 O97 1.208 . S
C92 O84 1.315 . S
C92 O87 1.279 . S
C93 O94 1.315 . S
C93 O95 1.279 . S
O94 Cd86 2.223 . S
O94 C93 1.315 . S
O95 Cd85 2.240 . S
O95 C93 1.279 . S
O96 Cd86 2.297 . S
O96 C91 1.247 . S
O97 Cd86 2.439 . S
O97 C91 1.208 . S
O98 Cd99 2.223 . S
O98 C106 1.315 . S
Cd99 O98 2.223 . S
Cd99 O102 2.297 . S
Cd99 O103 2.439 . S
Cd99 O109 2.240 . S
Cd100 O101 2.240 . S
Cd100 O108 2.223 . S
Cd100 O110 2.297 . S
Cd100 O111 2.439 . S
O101 Cd100 2.240 . S
O101 C106 1.279 . S
O102 Cd99 2.297 . S
O102 C104 1.247 . S
O103 Cd99 2.439 . S
O103 C104 1.208 . S
C104 O102 1.247 . S
C104 O103 1.208 . S
C105 O110 1.247 . S
C105 O111 1.208 . S
C106 O98 1.315 . S
C106 O101 1.279 . S
C107 O108 1.315 . S
C107 O109 1.279 . S
O108 Cd100 2.223 . S
O108 C107 1.315 . S
O109 Cd99 2.240 . S
O109 C107 1.279 . S
O110 Cd100 2.297 . S
O110 C105 1.247 . S
O111 Cd100 2.439 . S
O111 C105 1.208 . S
H112 C113 0.951 . S
C113 H112 0.951 . S
C113 C119 1.265 . S
H114 C119 0.950 . S
H115 C123 0.949 . S
H116 C124 0.950 . S
H117 C125 0.951 . S
H118 C126 0.951 . S
C119 C113 1.265 . S
C119 H114 0.950 . S
C119 C120 1.478 . S
C120 C119 1.478 . S
C120 C121 1.397 . S
C120 C137 1.394 . S
C121 C120 1.397 . S
C121 C122 1.438 . S
C121 C126 1.429 . S
C122 C121 1.438 . S
C122 C123 1.428 . S
C122 C135 1.394 . S
C123 H115 0.949 . S
C123 C122 1.428 . S
C123 C124 1.345 . S
C124 H116 0.950 . S
C124 C123 1.345 . S
C124 C125 1.424 . S
C125 H117 0.951 . S
C125 C124 1.424 . S
C125 C126 1.347 . S
C126 H118 0.951 . S
C126 C121 1.429 . S
C126 C125 1.347 . S
H127 C128 0.951 . S
C128 H127 0.951 . S
C128 C134 1.265 . S
H129 C134 0.950 . S
H130 C138 0.949 . S
H131 C139 0.950 . S
H132 C140 0.951 . S
H133 C141 0.951 . S
C134 C128 1.265 . S
C134 H129 0.950 . S
C134 C135 1.478 . S
C135 C122 1.394 . S
C135 C134 1.478 . S
C135 C136 1.397 . S
C136 C135 1.397 . S
C136 C137 1.438 . S
C136 C141 1.429 . S
C137 C120 1.394 . S
C137 C136 1.438 . S
C137 C138 1.428 . S
C138 H130 0.949 . S
C138 C137 1.428 . S
C138 C139 1.345 . S
C139 H131 0.950 . S
C139 C138 1.345 . S
C139 C140 1.424 . S
C140 H132 0.951 . S
C140 C139 1.424 . S
C140 C141 1.347 . S
C141 H133 0.951 . S
C141 C136 1.429 . S
C141 C140 1.347 . S
H142 C143 0.952 . S
C143 H142 0.952 . S
C143 C149 1.276 . S
H144 C149 0.950 . S
H145 C153 0.949 . S
H146 C154 0.950 . S
H147 C155 0.951 1_655 S
H148 C156 0.951 1_655 S
C149 C143 1.276 . S
C149 H144 0.950 . S
C149 C150 1.478 . S
C150 C149 1.478 . S
C150 C151 1.397 . S
C150 C167 1.395 1_545 S
C151 C150 1.397 . S
C151 C152 1.438 1_545 S
C151 C156 1.429 . S
C152 C151 1.438 1_565 S
C152 C153 1.428 . S
C152 C165 1.394 . S
C153 H145 0.949 . S
C153 C152 1.428 . S
C153 C154 1.345 . S
C154 H146 0.950 . S
C154 C153 1.345 . S
C154 C155 1.424 1_565 S
C155 H147 0.951 1_455 S
C155 C154 1.424 1_545 S
C155 C156 1.347 . S
C156 H148 0.951 1_455 S
C156 C151 1.429 . S
C156 C155 1.347 . S
H157 C158 0.951 . S
C158 H157 0.951 . S
C158 C164 1.265 . S
H159 C164 0.950 . S
H160 C168 0.949 . S
H161 C169 0.950 . S
H162 C170 0.951 . S
H163 C171 0.951 . S
C164 C158 1.265 . S
C164 H159 0.950 . S
C164 C165 1.478 . S
C165 C152 1.394 . S
C165 C164 1.478 . S
C165 C166 1.397 . S
C166 C165 1.397 . S
C166 C167 1.436 . S
C166 C171 1.429 . S
C167 C150 1.395 1_565 S
C167 C166 1.436 . S
C167 C168 1.428 1_565 S
C168 H160 0.949 . S
C168 C167 1.428 1_545 S
C168 C169 1.345 1_545 S
C169 H161 0.950 . S
C169 C168 1.345 1_565 S
C169 C170 1.424 . S
C170 H162 0.951 . S
C170 C169 1.424 . S
C170 C171 1.347 . S
C171 H163 0.951 . S
C171 C166 1.429 . S
C171 C170 1.347 . S
H172 C173 0.951 . S
C173 H172 0.951 . S
C173 C179 1.265 . S
H174 C179 0.950 . S
H175 C183 0.949 . S
H176 C184 0.950 . S
H177 C185 0.951 . S
H178 C186 0.951 . S
C179 C173 1.265 . S
C179 H174 0.950 . S
C179 C180 1.478 . S
C180 C179 1.478 . S
C180 C181 1.397 . S
C180 C197 1.394 . S
C181 C180 1.397 . S
C181 C182 1.438 . S
C181 C186 1.429 . S
C182 C181 1.438 . S
C182 C183 1.428 . S
C182 C195 1.394 . S
C183 H175 0.949 . S
C183 C182 1.428 . S
C183 C184 1.345 . S
C184 H176 0.950 . S
C184 C183 1.345 . S
C184 C185 1.424 . S
C185 H177 0.951 . S
C185 C184 1.424 . S
C185 C186 1.347 . S
C186 H178 0.951 . S
C186 C181 1.429 . S
C186 C185 1.347 . S
H187 C188 0.951 . S
C188 H187 0.951 . S
C188 C194 1.265 1_455 S
H189 C194 0.950 . S
H190 C198 0.949 . S
H191 C199 0.950 . S
H192 C200 0.951 . S
H193 C201 0.951 . S
C194 C188 1.265 1_655 S
C194 H189 0.950 . S
C194 C195 1.478 . S
C195 C182 1.394 . S
C195 C194 1.478 . S
C195 C196 1.397 . S
C196 C195 1.397 . S
C196 C197 1.438 . S
C196 C201 1.429 . S
C197 C180 1.394 . S
C197 C196 1.438 . S
C197 C198 1.428 . S
C198 H190 0.949 . S
C198 C197 1.428 . S
C198 C199 1.345 . S
C199 H191 0.950 . S
C199 C198 1.345 . S
C199 C200 1.424 . S
C200 H192 0.951 . S
C200 C199 1.424 . S
C200 C201 1.347 . S
C201 H193 0.951 . S
C201 C196 1.429 . S
C201 C200 1.347 . S
H202 C203 0.951 . S
C203 H202 0.951 . S
C203 C209 1.265 . S
H204 C209 0.950 . S
H205 C213 0.949 . S
H206 C214 0.950 . S
H207 C215 0.951 . S
H208 C216 0.951 . S
C209 C203 1.265 . S
C209 H204 0.950 . S
C209 C210 1.478 . S
C210 C209 1.478 . S
C210 C211 1.397 . S
C210 C227 1.394 1_545 S
C211 C210 1.397 . S
C211 C212 1.438 . S
C211 C216 1.429 . S
C212 C211 1.438 . S
C212 C213 1.428 . S
C212 C225 1.394 1_545 S
C213 H205 0.949 . S
C213 C212 1.428 . S
C213 C214 1.345 . S
C214 H206 0.950 . S
C214 C213 1.345 . S
C214 C215 1.424 . S
C215 H207 0.951 . S
C215 C214 1.424 . S
C215 C216 1.347 . S
C216 H208 0.951 . S
C216 C211 1.429 . S
C216 C215 1.347 . S
H217 C218 0.951 . S
C218 H217 0.951 . S
C218 C224 1.265 . S
H219 C224 0.950 . S
H220 C228 0.949 . S
H221 C229 0.950 . S
H222 C230 0.951 . S
H223 C231 0.951 . S
C224 C218 1.265 . S
C224 H219 0.950 . S
C224 C225 1.478 . S
C225 C212 1.394 1_565 S
C225 C224 1.478 . S
C225 C226 1.397 . S
C226 C225 1.397 . S
C226 C227 1.438 . S
C226 C231 1.429 . S
C227 C210 1.394 1_565 S
C227 C226 1.438 . S
C227 C228 1.428 . S
C228 H220 0.949 . S
C228 C227 1.428 . S
C228 C229 1.345 . S
C229 H221 0.950 . S
C229 C228 1.345 . S
C229 C230 1.424 . S
C230 H222 0.951 . S
C230 C229 1.424 . S
C230 C231 1.347 . S
C231 H223 0.951 . S
C231 C226 1.429 . S
C231 C230 1.347 . S
H232 C233 0.951 . S
C233 H232 0.951 . S
C233 C239 1.265 . S
H234 C239 0.950 . S
H235 C243 0.949 . S
H236 C244 0.950 . S
H237 C245 0.951 . S
H238 C246 0.951 . S
C239 C233 1.265 . S
C239 H234 0.950 . S
C239 C240 1.478 . S
C240 C239 1.478 . S
C240 C241 1.397 . S
C240 C257 1.394 . S
C241 C240 1.397 . S
C241 C242 1.438 . S
C241 C246 1.429 . S
C242 C241 1.438 . S
C242 C243 1.428 . S
C242 C255 1.394 . S
C243 H235 0.949 . S
C243 C242 1.428 . S
C243 C244 1.345 . S
C244 H236 0.950 . S
C244 C243 1.345 . S
C244 C245 1.424 . S
C245 H237 0.951 . S
C245 C244 1.424 . S
C245 C246 1.347 . S
C246 H238 0.951 . S
C246 C241 1.429 . S
C246 C245 1.347 . S
H247 C248 0.951 . S
C248 H247 0.951 . S
C248 C254 1.265 . S
H249 C254 0.950 . S
H250 C258 0.949 . S
H251 C259 0.950 . S
H252 C260 0.951 . S
H253 C261 0.951 . S
C254 C248 1.265 . S
C254 H249 0.950 . S
C254 C255 1.478 . S
C255 C242 1.394 . S
C255 C254 1.478 . S
C255 C256 1.397 . S
C256 C255 1.397 . S
C256 C257 1.438 . S
C256 C261 1.429 . S
C257 C240 1.394 . S
C257 C256 1.438 . S
C257 C258 1.428 . S
C258 H250 0.949 . S
C258 C257 1.428 . S
C258 C259 1.345 . S
C259 H251 0.950 . S
C259 C258 1.345 . S
C259 C260 1.424 . S
C260 H252 0.951 . S
C260 C259 1.424 . S
C260 C261 1.347 . S
C261 H253 0.951 . S
C261 C256 1.429 . S
C261 C260 1.347 . S
H262 C263 0.951 . S
C263 H262 0.951 . S
C263 C269 1.265 . S
H264 C269 0.942 1_565 S
H265 C273 0.949 . S
H266 C274 0.950 . S
H267 C275 0.951 . S
H268 C276 0.951 . S
C269 C263 1.265 . S
C269 H264 0.942 1_545 S
C269 C270 1.478 . S
C270 C269 1.478 . S
C270 C271 1.397 1_545 S
C270 C287 1.394 . S
C271 C270 1.397 1_565 S
C271 C272 1.438 . S
C271 C276 1.429 . S
C272 C271 1.438 . S
C272 C273 1.428 . S
C272 C285 1.405 . S
C273 H265 0.949 . S
C273 C272 1.428 . S
C273 C274 1.345 . S
C274 H266 0.950 . S
C274 C273 1.345 . S
C274 C275 1.424 . S
C275 H267 0.951 . S
C275 C274 1.424 . S
C275 C276 1.347 . S
C276 H268 0.951 . S
C276 C271 1.429 . S
C276 C275 1.347 . S
H277 C278 0.951 . S
C278 H277 0.951 . S
C278 C284 1.265 . S
H279 C284 0.950 1_445 S
H280 C288 0.949 . S
H281 C289 0.950 . S
H282 C290 0.951 . S
H283 C291 0.951 . S
C284 C278 1.265 . S
C284 H279 0.950 1_665 S
C284 C285 1.481 . S
C285 C272 1.405 . S
C285 C284 1.481 . S
C285 C286 1.383 1_565 S
C286 C285 1.383 1_545 S
C286 C287 1.438 . S
C286 C291 1.429 . S
C287 C270 1.394 . S
C287 C286 1.438 . S
C287 C288 1.428 . S
C288 H280 0.949 . S
C288 C287 1.428 . S
C288 C289 1.345 . S
C289 H281 0.950 . S
C289 C288 1.345 . S
C289 C290 1.424 . S
C290 H282 0.951 . S
C290 C289 1.424 . S
C290 C291 1.347 . S
C291 H283 0.951 . S
C291 C286 1.429 . S
C291 C290 1.347 . S
H292 C293 0.951 . S
C293 H292 0.951 . S
C293 C299 1.265 . S
H294 C299 0.950 . S
H295 C303 0.949 . S
H296 C304 0.950 . S
H297 C305 0.951 . S
H298 C306 0.951 . S
C299 C293 1.265 . S
C299 H294 0.950 . S
C299 C300 1.478 . S
C300 C299 1.478 . S
C300 C301 1.397 . S
C300 C317 1.394 . S
C301 C300 1.397 . S
C301 C302 1.438 . S
C301 C306 1.429 . S
C302 C301 1.438 . S
C302 C303 1.428 . S
C302 C315 1.394 . S
C303 H295 0.949 . S
C303 C302 1.428 . S
C303 C304 1.345 . S
C304 H296 0.950 . S
C304 C303 1.345 . S
C304 C305 1.424 . S
C305 H297 0.951 . S
C305 C304 1.424 . S
C305 C306 1.347 . S
C306 H298 0.951 . S
C306 C301 1.429 . S
C306 C305 1.347 . S
H307 C308 0.951 . S
C308 H307 0.951 . S
C308 C314 1.265 1_655 S
H309 C314 0.950 . S
H310 C318 0.949 . S
H311 C319 0.950 . S
H312 C320 0.951 . S
H313 C321 0.951 . S
C314 C308 1.265 1_455 S
C314 H309 0.950 . S
C314 C315 1.478 . S
C315 C302 1.394 . S
C315 C314 1.478 . S
C315 C316 1.397 . S
C316 C315 1.397 . S
C316 C317 1.438 . S
C316 C321 1.429 . S
C317 C300 1.394 . S
C317 C316 1.438 . S
C317 C318 1.428 . S
C318 H310 0.949 . S
C318 C317 1.428 . S
C318 C319 1.345 . S
C319 H311 0.950 . S
C319 C318 1.345 . S
C319 C320 1.424 . S
C320 H312 0.951 . S
C320 C319 1.424 . S
C320 C321 1.347 . S
C321 H313 0.951 . S
C321 C316 1.429 . S
C321 C320 1.347 . S
H322 C323 0.951 . S
C323 H322 0.951 . S
C323 C329 1.265 . S
H324 C329 0.950 . S
H325 C333 0.949 . S
H326 C334 0.950 . S
H327 C335 0.951 . S
H328 C336 0.951 . S
C329 C323 1.265 . S
C329 H324 0.950 . S
C329 C330 1.478 . S
C330 C329 1.478 . S
C330 C331 1.397 1_565 S
C330 C347 1.394 . S
C331 C330 1.397 1_545 S
C331 C332 1.438 . S
C331 C336 1.429 . S
C332 C331 1.438 . S
C332 C333 1.428 . S
C332 C345 1.394 . S
C333 H325 0.949 . S
C333 C332 1.428 . S
C333 C334 1.345 . S
C334 H326 0.950 . S
C334 C333 1.345 . S
C334 C335 1.424 . S
C335 H327 0.951 . S
C335 C334 1.424 . S
C335 C336 1.347 . S
C336 H328 0.951 . S
C336 C331 1.429 . S
C336 C335 1.347 . S
H337 C338 0.951 . S
C338 H337 0.951 . S
C338 C344 1.265 . S
H339 C344 0.962 . S
H340 C348 0.949 . S
H341 C349 0.950 . S
H342 C350 0.951 . S
H343 C351 0.951 . S
C344 C338 1.265 . S
C344 H339 0.962 . S
C344 C345 1.478 . S
C345 C332 1.394 . S
C345 C344 1.478 . S
C345 C346 1.397 1_545 S
C346 C345 1.397 1_565 S
C346 C347 1.438 . S
C346 C351 1.429 . S
C347 C330 1.394 . S
C347 C346 1.438 . S
C347 C348 1.428 . S
C348 H340 0.949 . S
C348 C347 1.428 . S
C348 C349 1.345 . S
C349 H341 0.950 . S
C349 C348 1.345 . S
C349 C350 1.424 . S
C350 H342 0.951 . S
C350 C349 1.424 . S
C350 C351 1.347 . S
C351 H343 0.951 . S
C351 C346 1.429 . S
C351 C350 1.347 . S
H352 C353 0.951 . S
C353 H352 0.951 . S
C353 C359 1.265 . S
H354 C359 0.950 . S
H355 C363 0.949 . S
H356 C364 0.950 . S
H357 C365 0.951 . S
H358 C366 0.951 1_455 S
C359 C353 1.265 . S
C359 H354 0.950 . S
C359 C360 1.478 . S
C360 C359 1.478 . S
C360 C361 1.395 1_455 S
C360 C377 1.394 . S
C361 C360 1.395 1_655 S
C361 C362 1.439 . S
C361 C366 1.429 . S
C362 C361 1.439 . S
C362 C363 1.428 . S
C362 C375 1.394 . S
C363 H355 0.949 . S
C363 C362 1.428 . S
C363 C364 1.345 . S
C364 H356 0.950 . S
C364 C363 1.345 . S
C364 C365 1.424 . S
C365 H357 0.951 . S
C365 C364 1.424 . S
C365 C366 1.347 . S
C366 H358 0.951 1_655 S
C366 C361 1.429 . S
C366 C365 1.347 . S
H367 C368 0.951 . S
C368 H367 0.951 . S
C368 C374 1.265 . S
H369 C374 0.950 . S
H370 C378 0.949 . S
H371 C379 0.950 . S
H372 C380 0.951 . S
H373 C381 0.951 1_655 S
C374 C368 1.265 . S
C374 H369 0.950 . S
C374 C375 1.478 . S
C375 C362 1.394 . S
C375 C374 1.478 . S
C375 C376 1.395 1_655 S
C376 C375 1.395 1_455 S
C376 C377 1.439 . S
C376 C381 1.429 . S
C377 C360 1.394 . S
C377 C376 1.439 . S
C377 C378 1.428 . S
C378 H370 0.949 . S
C378 C377 1.428 . S
C378 C379 1.345 . S
C379 H371 0.950 . S
C379 C378 1.345 . S
C379 C380 1.424 . S
C380 H372 0.951 . S
C380 C379 1.424 . S
C380 C381 1.347 . S
C381 H373 0.951 1_455 S
C381 C376 1.429 . S
C381 C380 1.347 . S
H382 C383 0.951 . S
C383 H382 0.951 . S
C383 C389 1.265 . S
H384 C389 0.950 . S
H385 C393 0.949 . S
H386 C394 0.950 . S
H387 C395 0.951 . S
H388 C396 0.951 . S
C389 C383 1.265 . S
C389 H384 0.950 . S
C389 C390 1.478 . S
C390 C389 1.478 . S
C390 C391 1.397 . S
C390 C407 1.394 1_565 S
C391 C390 1.397 . S
C391 C392 1.438 . S
C391 C396 1.429 . S
C392 C391 1.438 . S
C392 C393 1.428 . S
C392 C405 1.394 1_565 S
C393 H385 0.949 . S
C393 C392 1.428 . S
C393 C394 1.345 . S
C394 H386 0.950 . S
C394 C393 1.345 . S
C394 C395 1.424 . S
C395 H387 0.951 . S
C395 C394 1.424 . S
C395 C396 1.347 . S
C396 H388 0.951 . S
C396 C391 1.429 . S
C396 C395 1.347 . S
H397 C398 0.951 . S
C398 H397 0.951 . S
C398 C404 1.265 . S
H399 C404 0.950 . S
H400 C408 0.949 . S
H401 C409 0.950 . S
H402 C410 0.951 . S
H403 C411 0.951 . S
C404 C398 1.265 . S
C404 H399 0.950 . S
C404 C405 1.478 . S
C405 C392 1.394 1_545 S
C405 C404 1.478 . S
C405 C406 1.397 . S
C406 C405 1.397 . S
C406 C407 1.438 . S
C406 C411 1.429 . S
C407 C390 1.394 1_545 S
C407 C406 1.438 . S
C407 C408 1.428 . S
C408 H400 0.949 . S
C408 C407 1.428 . S
C408 C409 1.345 . S
C409 H401 0.950 . S
C409 C408 1.345 . S
C409 C410 1.424 . S
C410 H402 0.951 . S
C410 C409 1.424 . S
C410 C411 1.347 . S
C411 H403 0.951 . S
C411 C406 1.429 . S
C411 C410 1.347 . S
H412 C413 0.951 . S
C413 H412 0.951 . S
C413 C419 1.265 . S
H414 C419 0.950 . S
H415 C423 0.949 . S
H416 C424 0.950 . S
H417 C425 0.951 . S
H418 C426 0.951 1_554 S
C419 C413 1.265 . S
C419 H414 0.950 . S
C419 C420 1.478 . S
C420 C419 1.478 . S
C420 C421 1.372 1_554 S
C420 C437 1.394 . S
C421 C420 1.372 1_556 S
C421 C422 1.461 . S
C421 C426 1.431 . S
C422 C421 1.461 . S
C422 C423 1.428 . S
C422 C435 1.394 . S
C423 H415 0.949 . S
C423 C422 1.428 . S
C423 C424 1.345 . S
C424 H416 0.950 . S
C424 C423 1.345 . S
C424 C425 1.424 . S
C425 H417 0.951 . S
C425 C424 1.424 . S
C425 C426 1.347 . S
C426 H418 0.951 1_556 S
C426 C421 1.431 . S
C426 C425 1.347 . S
H427 C428 0.951 . S
C428 H427 0.951 . S
C428 C434 1.265 . S
H429 C434 0.950 . S
H430 C438 0.949 . S
H431 C439 0.950 . S
H432 C440 0.951 . S
H433 C441 0.951 1_556 S
C434 C428 1.265 . S
C434 H429 0.950 . S
C434 C435 1.478 . S
C435 C422 1.394 . S
C435 C434 1.478 . S
C435 C436 1.372 1_556 S
C436 C435 1.372 1_554 S
C436 C437 1.461 . S
C436 C441 1.431 . S
C437 C420 1.394 . S
C437 C436 1.461 . S
C437 C438 1.428 . S
C438 H430 0.949 . S
C438 C437 1.428 . S
C438 C439 1.345 . S
C439 H431 0.950 . S
C439 C438 1.345 . S
C439 C440 1.424 . S
C440 H432 0.951 . S
C440 C439 1.424 . S
C440 C441 1.347 . S
C441 H433 0.951 1_554 S
C441 C436 1.431 . S
C441 C440 1.347 . S
H442 C443 0.951 1_655 S
C443 H442 0.951 1_455 S
C443 C449 1.265 . S
H444 C449 0.950 . S
H445 C453 0.949 1_655 S
H446 C454 0.940 1_554 S
H447 C455 0.951 . S
H448 C456 0.951 . S
C449 C443 1.265 . S
C449 H444 0.950 . S
C449 C450 1.478 . S
C450 C449 1.478 . S
C450 C451 1.397 1_565 S
C450 C467 1.394 1_455 S
C451 C450 1.397 1_545 S
C451 C452 1.438 1_556 S
C451 C456 1.429 . S
C452 C451 1.438 1_554 S
C452 C453 1.428 . S
C452 C465 1.394 1_455 S
C453 H445 0.949 1_455 S
C453 C452 1.428 . S
C453 C454 1.325 1_554 S
C454 H446 0.940 1_556 S
C454 C453 1.325 1_556 S
C454 C455 1.454 . S
C455 H447 0.951 . S
C455 C454 1.454 . S
C455 C456 1.347 . S
C456 H448 0.951 . S
C456 C451 1.429 . S
C456 C455 1.347 . S
H457 C458 0.951 1_455 S
C458 H457 0.951 1_655 S
C458 C464 1.265 . S
H459 C464 0.950 . S
H460 C468 0.949 1_455 S
H461 C469 0.940 1_556 S
H462 C470 0.951 . S
H463 C471 0.951 . S
C464 C458 1.265 . S
C464 H459 0.950 . S
C464 C465 1.478 . S
C465 C452 1.394 1_655 S
C465 C464 1.478 . S
C465 C466 1.397 1_545 S
C466 C465 1.397 1_565 S
C466 C467 1.438 1_554 S
C466 C471 1.429 . S
C467 C450 1.394 1_655 S
C467 C466 1.438 1_556 S
C467 C468 1.428 . S
C468 H460 0.949 1_655 S
C468 C467 1.428 . S
C468 C469 1.325 1_556 S
C469 H461 0.940 1_554 S
C469 C468 1.325 1_554 S
C469 C470 1.454 . S
C470 H462 0.951 . S
C470 C469 1.454 . S
C470 C471 1.347 . S
C471 H463 0.951 . S
C471 C466 1.429 . S
C471 C470 1.347 . S
H472 C473 0.951 . S
C473 H472 0.951 . S
C473 C479 1.265 . S
H474 C479 0.950 . S
H475 C483 0.949 . S
H476 C484 0.950 . S
H477 C485 0.951 . S
H478 C486 0.951 . S
C479 C473 1.265 . S
C479 H474 0.950 . S
C479 C480 1.478 . S
C480 C479 1.478 . S
C480 C481 1.397 . S
C480 C497 1.394 . S
C481 C480 1.397 . S
C481 C482 1.438 . S
C481 C486 1.429 . S
C482 C481 1.438 . S
C482 C483 1.428 . S
C482 C495 1.394 . S
C483 H475 0.949 . S
C483 C482 1.428 . S
C483 C484 1.345 . S
C484 H476 0.950 . S
C484 C483 1.345 . S
C484 C485 1.424 . S
C485 H477 0.951 . S
C485 C484 1.424 . S
C485 C486 1.347 . S
C486 H478 0.951 . S
C486 C481 1.429 . S
C486 C485 1.347 . S
H487 C488 0.951 . S
C488 H487 0.951 . S
C488 C494 1.265 . S
H489 C494 0.950 . S
H490 C498 0.949 . S
H491 C499 0.950 . S
H492 C500 0.951 . S
H493 C501 0.951 . S
C494 C488 1.265 . S
C494 H489 0.950 . S
C494 C495 1.478 . S
C495 C482 1.394 . S
C495 C494 1.478 . S
C495 C496 1.397 . S
C496 C495 1.397 . S
C496 C497 1.438 . S
C496 C501 1.429 . S
C497 C480 1.394 . S
C497 C496 1.438 . S
C497 C498 1.428 . S
C498 H490 0.949 . S
C498 C497 1.428 . S
C498 C499 1.345 . S
C499 H491 0.950 . S
C499 C498 1.345 . S
C499 C500 1.424 . S
C500 H492 0.951 . S
C500 C499 1.424 . S
C500 C501 1.347 . S
C501 H493 0.951 . S
C501 C496 1.429 . S
C501 C500 1.347 . S
H502 C503 0.951 . S
C503 H502 0.951 . S
C503 C509 1.265 . S
H504 C509 0.950 . S
H505 C513 0.949 . S
H506 C514 0.950 . S
H507 C515 0.951 . S
H508 C516 0.951 . S
C509 C503 1.265 . S
C509 H504 0.950 . S
C509 C510 1.478 . S
C510 C509 1.478 . S
C510 C511 1.397 . S
C510 C527 1.394 . S
C511 C510 1.397 . S
C511 C512 1.438 . S
C511 C516 1.429 . S
C512 C511 1.438 . S
C512 C513 1.428 . S
C512 C525 1.394 . S
C513 H505 0.949 . S
C513 C512 1.428 . S
C513 C514 1.345 . S
C514 H506 0.950 . S
C514 C513 1.345 . S
C514 C515 1.424 . S
C515 H507 0.951 . S
C515 C514 1.424 . S
C515 C516 1.347 . S
C516 H508 0.951 . S
C516 C511 1.429 . S
C516 C515 1.347 . S
H517 C518 0.951 . S
C518 H517 0.951 . S
C518 C524 1.265 . S
H519 C524 0.950 . S
H520 C528 0.949 . S
H521 C529 0.950 . S
H522 C530 0.951 . S
H523 C531 0.951 . S
C524 C518 1.265 . S
C524 H519 0.950 . S
C524 C525 1.478 . S
C525 C512 1.394 . S
C525 C524 1.478 . S
C525 C526 1.397 . S
C526 C525 1.397 . S
C526 C527 1.438 . S
C526 C531 1.429 . S
C527 C510 1.394 . S
C527 C526 1.438 . S
C527 C528 1.428 . S
C528 H520 0.949 . S
C528 C527 1.428 . S
C528 C529 1.345 . S
C529 H521 0.950 . S
C529 C528 1.345 . S
C529 C530 1.424 . S
C530 H522 0.951 . S
C530 C529 1.424 . S
C530 C531 1.347 . S
C531 H523 0.951 . S
C531 C526 1.429 . S
C531 C530 1.347 . S
H532 C533 0.951 . S
C533 H532 0.951 . S
C533 C539 1.265 . S
H534 C539 0.950 . S
H535 C543 0.949 . S
H536 C544 0.950 . S
H537 C545 0.951 . S
H538 C546 0.951 . S
C539 C533 1.265 . S
C539 H534 0.950 . S
C539 C540 1.478 . S
C540 C539 1.478 . S
C540 C541 1.397 . S
C540 C557 1.394 . S
C541 C540 1.397 . S
C541 C542 1.438 . S
C541 C546 1.429 . S
C542 C541 1.438 . S
C542 C543 1.428 . S
C542 C555 1.394 . S
C543 H535 0.949 . S
C543 C542 1.428 . S
C543 C544 1.345 . S
C544 H536 0.950 . S
C544 C543 1.345 . S
C544 C545 1.424 . S
C545 H537 0.951 . S
C545 C544 1.424 . S
C545 C546 1.347 . S
C546 H538 0.951 . S
C546 C541 1.429 . S
C546 C545 1.347 . S
H547 C548 0.951 . S
C548 H547 0.951 . S
C548 C554 1.265 . S
H549 C554 0.950 . S
H550 C558 0.949 . S
H551 C559 0.950 . S
H552 C560 0.951 . S
H553 C561 0.951 . S
C554 C548 1.265 . S
C554 H549 0.950 . S
C554 C555 1.478 . S
C555 C542 1.394 . S
C555 C554 1.478 . S
C555 C556 1.397 . S
C556 C555 1.397 . S
C556 C557 1.438 . S
C556 C561 1.429 . S
C557 C540 1.394 . S
C557 C556 1.438 . S
C557 C558 1.428 . S
C558 H550 0.949 . S
C558 C557 1.428 . S
C558 C559 1.345 . S
C559 H551 0.950 . S
C559 C558 1.345 . S
C559 C560 1.424 . S
C560 H552 0.951 . S
C560 C559 1.424 . S
C560 C561 1.347 . S
C561 H553 0.951 . S
C561 C556 1.429 . S
C561 C560 1.347 . S
H562 C563 0.951 . S
C563 H562 0.951 . S
C563 C569 1.265 . S
H564 C569 0.950 . S
H565 C573 0.949 . S
H566 C574 0.950 . S
H567 C575 0.951 . S
H568 C576 0.951 . S
C569 C563 1.265 . S
C569 H564 0.950 . S
C569 C570 1.478 . S
C570 C569 1.478 . S
C570 C571 1.397 . S
C570 C587 1.394 . S
C571 C570 1.397 . S
C571 C572 1.438 . S
C571 C576 1.429 . S
C572 C571 1.438 . S
C572 C573 1.428 . S
C572 C585 1.394 . S
C573 H565 0.949 . S
C573 C572 1.428 . S
C573 C574 1.345 . S
C574 H566 0.950 . S
C574 C573 1.345 . S
C574 C575 1.424 . S
C575 H567 0.951 . S
C575 C574 1.424 . S
C575 C576 1.347 . S
C576 H568 0.951 . S
C576 C571 1.429 . S
C576 C575 1.347 . S
H577 C578 0.951 . S
C578 H577 0.951 . S
C578 C584 1.265 . S
H579 C584 0.950 . S
H580 C588 0.949 . S
H581 C589 0.950 . S
H582 C590 0.951 . S
H583 C591 0.951 . S
C584 C578 1.265 . S
C584 H579 0.950 . S
C584 C585 1.478 . S
C585 C572 1.394 . S
C585 C584 1.478 . S
C585 C586 1.397 . S
C586 C585 1.397 . S
C586 C587 1.438 . S
C586 C591 1.429 . S
C587 C570 1.394 . S
C587 C586 1.438 . S
C587 C588 1.428 . S
C588 H580 0.949 . S
C588 C587 1.428 . S
C588 C589 1.345 . S
C589 H581 0.950 . S
C589 C588 1.345 . S
C589 C590 1.424 . S
C590 H582 0.951 . S
C590 C589 1.424 . S
C590 C591 1.347 . S
C591 H583 0.951 . S
C591 C586 1.429 . S
C591 C590 1.347 . S
C113 C8 1.663 . S
C128 C37 1.675 . S
C143 C51 1.644 1_455 S
C158 C22 1.695 . S
C173 C36 1.655 . S
C188 C9 1.695 . S
C203 C50 1.667 . S
C218 C23 1.672 . S
C233 C93 1.688 . S
C248 C64 1.651 . S
C263 C78 1.654 . S
C278 C107 1.684 1_655 S
C293 C92 1.670 . S
C308 C65 1.685 . S
C323 C106 1.665 . S
C338 C79 1.673 . S
C353 C7 1.477 . S
C368 C63 1.477 . S
C383 C21 1.500 . S
C398 C77 1.500 . S
C413 C35 1.517 . S
C428 C91 1.517 . S
C443 C105 1.503 . S
C458 C49 1.503 . S
C473 C6 1.499 . S
C488 C20 1.512 . S
C503 C48 1.477 . S
C518 C34 1.446 . S
C533 C76 1.509 . S
C548 C62 1.504 . S
C563 C90 1.507 . S
C578 C104 1.505 . S
