# Generated by pormake.
# Topology xfu, (5)-cn, num edge types: 1
# Building blocks:
#     Node 0, Type 0, BuildingBlock: XOMCOT_clean_sbu_1, # of connection points: 5
#     Node 1, Type 0, BuildingBlock: XOMCOT_clean_sbu_1, # of connection points: 5
#     Node 2, Type 0, BuildingBlock: XOMCOT_clean_sbu_1, # of connection points: 5
#     Node 3, Type 0, BuildingBlock: XOMCOT_clean_sbu_1, # of connection points: 5
#     Node 4, Type 0, BuildingBlock: XOMCOT_clean_sbu_1, # of connection points: 5
#     Node 5, Type 0, BuildingBlock: XOMCOT_clean_sbu_1, # of connection points: 5
#     Node 6, Type 0, BuildingBlock: XOMCOT_clean_sbu_1, # of connection points: 5
#     Node 7, Type 0, BuildingBlock: XOMCOT_clean_sbu_1, # of connection points: 5
#     Edge 8, Type (0, 0), BuildingBlock: ZUJKAS_clean_linker_0, # of connection points: 2
#     Edge 9, Type (0, 0), BuildingBlock: ZUJKAS_clean_linker_0, # of connection points: 2
#     Edge 10, Type (0, 0), BuildingBlock: ZUJKAS_clean_linker_0, # of connection points: 2
#     Edge 11, Type (0, 0), BuildingBlock: ZUJKAS_clean_linker_0, # of connection points: 2
#     Edge 12, Type (0, 0), BuildingBlock: ZUJKAS_clean_linker_0, # of connection points: 2
#     Edge 13, Type (0, 0), BuildingBlock: ZUJKAS_clean_linker_0, # of connection points: 2
#     Edge 14, Type (0, 0), BuildingBlock: ZUJKAS_clean_linker_0, # of connection points: 2
#     Edge 15, Type (0, 0), BuildingBlock: ZUJKAS_clean_linker_0, # of connection points: 2
#     Edge 16, Type (0, 0), BuildingBlock: ZUJKAS_clean_linker_0, # of connection points: 2
#     Edge 17, Type (0, 0), BuildingBlock: ZUJKAS_clean_linker_0, # of connection points: 2
#     Edge 18, Type (0, 0), BuildingBlock: ZUJKAS_clean_linker_0, # of connection points: 2
#     Edge 19, Type (0, 0), BuildingBlock: ZUJKAS_clean_linker_0, # of connection points: 2
#     Edge 20, Type (0, 0), BuildingBlock: ZUJKAS_clean_linker_0, # of connection points: 2
#     Edge 21, Type (0, 0), BuildingBlock: ZUJKAS_clean_linker_0, # of connection points: 2
#     Edge 22, Type (0, 0), BuildingBlock: ZUJKAS_clean_linker_0, # of connection points: 2
#     Edge 23, Type (0, 0), BuildingBlock: ZUJKAS_clean_linker_0, # of connection points: 2
#     Edge 24, Type (0, 0), BuildingBlock: ZUJKAS_clean_linker_0, # of connection points: 2
#     Edge 25, Type (0, 0), BuildingBlock: ZUJKAS_clean_linker_0, # of connection points: 2
#     Edge 26, Type (0, 0), BuildingBlock: ZUJKAS_clean_linker_0, # of connection points: 2
#     Edge 27, Type (0, 0), BuildingBlock: ZUJKAS_clean_linker_0, # of connection points: 2
# Relax obj value: 0.490
# Max RMSD: 0.274
# Mean RMSD: 0.274
data_MOF--net-xfu--node1-XOMCOT_clean_sbu_1--edge1-ZUJKAS_clean_linker_0
_symmetry_space_group_name_H-M    P1
_symmetry_Int_Tables_number       1
_symmetry_cell_setting            triclinic
loop_
_symmetry_equiv_pos_as_xyz
'x, y, z'
_cell_length_a     36.480872
_cell_length_b     36.663746
_cell_length_c     64.76043
_cell_angle_alpha  90.058757
_cell_angle_beta   89.961243
_cell_angle_gamma 90.09407
loop_
_atom_site_label
_atom_site_type_symbol
_atom_site_fract_x
_atom_site_fract_y
_atom_site_fract_z
_atom_type_partial_charge
C0 C 0.99183 0.31069 0.63297 0.0
C1 C 0.99636 0.33992 0.64606 0.0
N2 N 0.03257 0.34557 0.64867 0.0
N3 N 0.02501 0.29807 0.62731 0.0
C4 C 0.04929 0.31999 0.637 0.0
H5 H 0.96611 0.29762 0.62924 0.0
Co6 Co 0.03385 0.25398 0.61426 0.0
C7 C 0.09448 0.28011 0.58618 0.0
O8 O 0.07479 0.27834 0.56925 0.0
N9 N 0.04264 0.20873 0.60114 0.0
C10 C 0.05544 0.15008 0.59567 0.0
C11 C 0.04949 0.17632 0.61039 0.0
C12 C 0.04325 0.20089 0.5807 0.0
N13 N 0.05139 0.16565 0.5771 0.0
O14 O 0.00585 0.27069 0.59086 0.0
H15 H 0.04981 0.1715 0.62683 0.0
H16 H 0.03755 0.22035 0.5686 0.0
O17 O 0.07999 0.27257 0.60358 0.0
C18 C 0.97432 0.25553 0.59096 0.0
O19 O 0.96719 0.23087 0.6051 0.0
N20 N 0.05762 0.23752 0.63809 0.0
C21 C 0.08313 0.20516 0.6742 0.0
C22 C 0.10747 0.21403 0.65815 0.0
C23 C 0.09417 0.23028 0.64014 0.0
C24 C 0.03383 0.23016 0.65375 0.0
C25 C 0.046 0.21409 0.67198 0.0
H26 H 0.11303 0.23524 0.62761 0.0
H27 H 0.00492 0.23561 0.65172 0.0
H28 H 0.07853 0.31501 0.63715 0.0
H29 H 0.97473 0.35436 0.65407 0.0
H30 H 0.06131 0.12153 0.59835 0.0
H31 H 0.1364 0.20775 0.65932 0.0
H32 H 0.02619 0.20726 0.68383 0.0
C33 C 0.81322 0.50664 0.14713 0.0
C34 C 0.78814 0.50732 0.16293 0.0
N35 N 0.76048 0.52951 0.15739 0.0
N36 N 0.80139 0.52822 0.13169 0.0
C37 C 0.76919 0.54199 0.1384 0.0
H38 H 0.83857 0.49141 0.14689 0.0
Co39 Co 0.82615 0.53302 0.10692 0.0
C40 C 0.80298 0.60129 0.08732 0.0
O41 O 0.83742 0.60496 0.08182 0.0
N42 N 0.85089 0.53588 0.08135 0.0
C43 C 0.85693 0.53395 0.04715 0.0
C44 C 0.83288 0.53119 0.06326 0.0
C45 C 0.88617 0.5415 0.07569 0.0
N46 N 0.89034 0.54054 0.05498 0.0
O47 O 0.79579 0.49528 0.09546 0.0
H48 H 0.80368 0.52683 0.06178 0.0
H49 H 0.90847 0.54631 0.08628 0.0
O50 O 0.79295 0.57332 0.0979 0.0
C51 C 0.8152 0.46676 0.0983 0.0
O52 O 0.84731 0.47074 0.10725 0.0
N53 N 0.85806 0.56613 0.12007 0.0
C54 C 0.89853 0.59699 0.15229 0.0
C55 C 0.86606 0.61331 0.14547 0.0
C56 C 0.84593 0.59716 0.12961 0.0
C57 C 0.89045 0.55081 0.12597 0.0
C58 C 0.91148 0.56614 0.14181 0.0
H59 H 0.81887 0.60753 0.12681 0.0
H60 H 0.89837 0.52462 0.11973 0.0
H61 H 0.75225 0.56042 0.12954 0.0
H62 H 0.79043 0.49323 0.17756 0.0
H63 H 0.85025 0.53216 0.03089 0.0
H64 H 0.85489 0.6369 0.15333 0.0
H65 H 0.93593 0.55213 0.14697 0.0
C66 C 0.59286 0.29817 0.63759 0.0
C67 C 0.59568 0.27134 0.65232 0.0
N68 N 0.57031 0.24537 0.64835 0.0
N69 N 0.56583 0.28934 0.62439 0.0
C70 C 0.5532 0.25682 0.631 0.0
H71 H 0.60764 0.32376 0.63741 0.0
Co72 Co 0.54608 0.32065 0.60495 0.0
C73 C 0.48861 0.27744 0.58439 0.0
O74 O 0.50613 0.28132 0.56679 0.0
N75 N 0.5258 0.35265 0.58563 0.0
C76 C 0.4847 0.3868 0.56934 0.0
C77 C 0.48997 0.36194 0.5848 0.0
C78 C 0.54187 0.37284 0.57074 0.0
N79 N 0.51738 0.3937 0.56056 0.0
O80 O 0.57436 0.29642 0.58407 0.0
H81 H 0.46898 0.35185 0.59514 0.0
H82 H 0.57094 0.37278 0.56755 0.0
O83 O 0.50345 0.28907 0.60098 0.0
C84 C 0.60579 0.31173 0.58355 0.0
O85 O 0.61147 0.34055 0.59518 0.0
N86 N 0.52229 0.34568 0.62603 0.0
C87 C 0.49733 0.38605 0.65961 0.0
C88 C 0.48386 0.35074 0.65588 0.0
C89 C 0.49688 0.33084 0.63902 0.0
C90 C 0.53556 0.37992 0.62932 0.0
C91 C 0.52326 0.40073 0.64594 0.0
H92 H 0.48743 0.30319 0.63687 0.0
H93 H 0.55652 0.39075 0.61921 0.0
H94 H 0.53026 0.24306 0.62393 0.0
H95 H 0.61308 0.27269 0.66581 0.0
H96 H 0.45909 0.40001 0.56548 0.0
H97 H 0.46373 0.33842 0.66602 0.0
H98 H 0.53491 0.42756 0.64845 0.0
C99 C 0.78651 0.08821 0.13817 0.0
C100 C 0.81457 0.08889 0.15236 0.0
N101 N 0.83714 0.06054 0.1485 0.0
N102 N 0.79131 0.0596 0.12543 0.0
C103 C 0.82284 0.04401 0.13167 0.0
H104 H 0.76236 0.10526 0.13841 0.0
Co105 Co 0.75545 0.04027 0.10835 0.0
C106 C 0.79316 0.98282 0.08506 0.0
O107 O 0.78627 1.00033 0.0678 0.0
N108 N 0.719 0.02013 0.09136 0.0
C109 C 0.68106 0.97945 0.0774 0.0
C110 C 0.70754 0.98505 0.09208 0.0
C111 C 0.6988 0.0353 0.07619 0.0
N112 N 0.6756 0.01115 0.06746 0.0
O113 O 0.77538 0.06783 0.08584 0.0
H114 H 0.71789 0.96468 0.10263 0.0
H115 H 0.70108 0.06336 0.07138 0.0
O116 O 0.78508 0.99768 0.10229 0.0
C117 C 0.75825 0.09811 0.08613 0.0
O118 O 0.73176 0.10256 0.09967 0.0
N119 N 0.73456 0.01722 0.13113 0.0
C120 C 0.69914 0.99221 0.16653 0.0
C121 C 0.73342 0.97806 0.16075 0.0
C122 C 0.75084 0.99113 0.143 0.0
C123 C 0.70154 0.0315 0.13659 0.0
C124 C 0.68324 0.01926 0.15414 0.0
H125 H 0.77769 0.98092 0.13915 0.0
H126 H 0.68961 0.05297 0.12734 0.0
H127 H 0.83341 0.01911 0.12509 0.0
H128 H 0.81588 0.10658 0.16572 0.0
H129 H 0.66645 0.95421 0.07459 0.0
H130 H 0.74674 0.9572 0.16987 0.0
H131 H 0.6573 0.03163 0.15825 0.0
C132 C 0.09373 0.7627 0.35696 0.0
C133 C 0.08655 0.73389 0.34394 0.0
N134 N 0.05003 0.73183 0.34094 0.0
N135 N 0.0619 0.77874 0.36233 0.0
C136 C 0.03581 0.75885 0.35267 0.0
H137 H 0.12067 0.77299 0.36069 0.0
Co138 Co 0.0554 0.82466 0.37438 0.0
C139 C 0.99762 0.80566 0.40605 0.0
O140 O 0.01742 0.81543 0.42205 0.0
N141 N 0.04855 0.87162 0.38635 0.0
C142 C 0.03255 0.92976 0.39106 0.0
C143 C 0.03524 0.90195 0.37703 0.0
C144 C 0.05496 0.88256 0.40604 0.0
N145 N 0.04497 0.91749 0.40922 0.0
O146 O 0.08765 0.81085 0.39676 0.0
H147 H 0.02772 0.90446 0.361 0.0
H148 H 0.06618 0.8653 0.41799 0.0
O149 O 0.01121 0.80719 0.38793 0.0
C150 C 0.11861 0.82408 0.39125 0.0
O151 O 0.11967 0.84408 0.37441 0.0
N152 N 0.02828 0.83865 0.35128 0.0
C153 C 0.99898 0.87005 0.31608 0.0
C154 C 0.97579 0.85738 0.33176 0.0
C155 C 0.99107 0.84186 0.34949 0.0
C156 C 0.05088 0.84883 0.33556 0.0
C157 C 0.0368 0.86504 0.31785 0.0
H158 H 0.97307 0.83421 0.36197 0.0
H159 H 0.08021 0.84595 0.33729 0.0
H160 H 0.00709 0.76596 0.353 0.0
H161 H 0.10698 0.7181 0.33577 0.0
H162 H 0.02253 0.95706 0.38815 0.0
H163 H 0.9464 0.86113 0.33076 0.0
H164 H 0.05532 0.87454 0.30592 0.0
C165 C 0.28409 0.58418 0.84185 0.0
C166 C 0.30889 0.58611 0.8259 0.0
N167 N 0.33821 0.56562 0.83086 0.0
N168 N 0.29769 0.56267 0.85685 0.0
C169 C 0.33098 0.55237 0.84986 0.0
H170 H 0.25672 0.59544 0.8418 0.0
Co171 Co 0.27076 0.54589 0.87943 0.0
C172 C 0.33496 0.48939 0.89175 0.0
O173 O 0.36756 0.50253 0.89614 0.0
N174 N 0.24339 0.52975 0.90224 0.0
C175 C 0.22472 0.50269 0.93114 0.0
C176 C 0.25174 0.50414 0.91649 0.0
C177 C 0.21139 0.54402 0.90896 0.0
N178 N 0.19942 0.52787 0.9264 0.0
O179 O 0.29123 0.58444 0.89602 0.0
H180 H 0.27642 0.48822 0.91705 0.0
H181 H 0.19712 0.56599 0.90129 0.0
O182 O 0.30948 0.5117 0.88686 0.0
C183 C 0.27031 0.61172 0.89265 0.0
O184 O 0.24136 0.60651 0.88094 0.0
N185 N 0.24833 0.51157 0.86214 0.0
C186 C 0.21337 0.47945 0.82839 0.0
C187 C 0.25021 0.47163 0.83276 0.0
C188 C 0.26731 0.48821 0.84964 0.0
C189 C 0.2122 0.51837 0.85853 0.0
C190 C 0.19407 0.50228 0.84191 0.0
H191 H 0.29632 0.484 0.85184 0.0
H192 H 0.19799 0.53871 0.86752 0.0
H193 H 0.34859 0.53343 0.85782 0.0
H194 H 0.30416 0.59877 0.81104 0.0
H195 H 0.22447 0.48548 0.94472 0.0
H196 H 0.26612 0.4541 0.82271 0.0
H197 H 0.1659 0.50983 0.83886 0.0
C198 C 0.49727 0.78931 0.34476 0.0
C199 C 0.49315 0.81841 0.33165 0.0
N200 N 0.5137 0.84645 0.33869 0.0
N201 N 0.52081 0.79846 0.35989 0.0
C202 C 0.52854 0.83398 0.35651 0.0
H203 H 0.48634 0.76217 0.34244 0.0
Co204 Co 0.54021 0.76438 0.37833 0.0
C205 C 0.6121 0.812 0.37447 0.0
O206 O 0.60661 0.82794 0.35665 0.0
N207 N 0.55919 0.73026 0.39695 0.0
C208 C 0.59893 0.69406 0.41289 0.0
C209 C 0.59436 0.71873 0.39724 0.0
C210 C 0.54275 0.71163 0.41239 0.0
N211 N 0.56645 0.68966 0.42239 0.0
O212 O 0.51691 0.79037 0.40056 0.0
H213 H 0.61532 0.72714 0.38642 0.0
H214 H 0.51403 0.71387 0.41626 0.0
O215 O 0.5877 0.79064 0.38205 0.0
C216 C 0.4845 0.77714 0.40137 0.0
O217 O 0.47584 0.75044 0.38873 0.0
N218 N 0.55894 0.73678 0.35595 0.0
C219 C 0.57803 0.6935 0.32205 0.0
C220 C 0.58626 0.73081 0.32239 0.0
C221 C 0.57624 0.75193 0.33935 0.0
C222 C 0.54928 0.70076 0.35548 0.0
C223 C 0.55903 0.67849 0.33884 0.0
H224 H 0.58029 0.78074 0.33835 0.0
H225 H 0.53341 0.68917 0.36797 0.0
H226 H 0.54627 0.84988 0.36638 0.0
H227 H 0.47922 0.81739 0.31692 0.0
H228 H 0.6239 0.67951 0.41654 0.0
H229 H 0.59934 0.74395 0.30934 0.0
H230 H 0.55176 0.64985 0.33916 0.0
C231 C 0.30359 0.99774 0.83907 0.0
C232 C 0.27489 0.99056 0.82605 0.0
N233 N 0.24421 0.00579 0.83392 0.0
N234 N 0.29159 0.018 0.85502 0.0
C235 C 0.25508 0.02051 0.85214 0.0
H236 H 0.33201 0.99098 0.83629 0.0
Co237 Co 0.32365 0.03972 0.87378 0.0
C238 C 0.26752 0.10567 0.87312 0.0
O239 O 0.2457 0.09794 0.85762 0.0
N240 N 0.35644 0.06116 0.89234 0.0
C241 C 0.3928 0.10251 0.90692 0.0
C242 C 0.36735 0.09638 0.89176 0.0
C243 C 0.37598 0.04634 0.90789 0.0
N244 N 0.39826 0.07094 0.91701 0.0
O245 O 0.29995 0.01348 0.89573 0.0
H246 H 0.35814 0.11624 0.88058 0.0
H247 H 0.37439 0.01803 0.91234 0.0
O248 O 0.2936 0.0839 0.8778 0.0
C249 C 0.31696 0.98304 0.89589 0.0
O250 O 0.34443 0.97847 0.88301 0.0
N251 N 0.3489 0.06136 0.8519 0.0
C252 C 0.39001 0.08212 0.81765 0.0
C253 C 0.35409 0.09494 0.82034 0.0
C254 C 0.33383 0.08396 0.83752 0.0
C255 C 0.38375 0.0487 0.84957 0.0
C256 C 0.40492 0.05893 0.83263 0.0
H257 H 0.30572 0.09241 0.8387 0.0
H258 H 0.39481 0.02966 0.86068 0.0
H259 H 0.23707 0.03406 0.86288 0.0
H260 H 0.27759 0.97814 0.81098 0.0
H261 H 0.40726 0.12784 0.9097 0.0
H262 H 0.34153 0.11292 0.80915 0.0
H263 H 0.43224 0.04779 0.83095 0.0
H264 H 0.1037 0.9289 0.43359 0.0
H265 H 0.10724 0.97218 0.46261 0.0
H266 H 0.99187 0.99524 0.45583 0.0
H267 H 0.9889 0.95309 0.42647 0.0
H268 H 0.03409 0.05692 0.4561 0.0
H269 H 0.07146 0.96746 0.52199 0.0
H270 H 0.1008 0.9635 0.49984 0.0
H271 H 0.05364 0.94964 0.49801 0.0
C272 C 0.07911 0.94272 0.43872 0.0
C273 C 0.04605 0.93798 0.42802 0.0
C274 C 0.08105 0.9673 0.45524 0.0
C275 C 0.04971 0.98674 0.46145 0.0
C276 C 0.01635 0.98062 0.45125 0.0
H277 H 0.99718 0.15759 0.54943 0.0
H278 H 0.99768 0.11633 0.5195 0.0
C279 C 0.01461 0.9566 0.4346 0.0
C280 C 0.052 0.01555 0.47742 0.0
H281 H 0.07196 0.03097 0.52808 0.0
C282 C 0.04234 0.0513 0.47187 0.0
C283 C 0.06293 0.00811 0.4979 0.0
C284 C 0.07251 0.97007 0.50491 0.0
C285 C 0.04355 0.07995 0.48622 0.0
C286 C 0.05415 0.07247 0.50678 0.0
C287 C 0.06402 0.03672 0.51228 0.0
C288 C 0.05468 0.10088 0.52309 0.0
C289 C 0.03407 0.11794 0.47907 0.0
C290 C 0.08637 0.10585 0.53507 0.0
C291 C 0.08568 0.12858 0.55235 0.0
C292 C 0.05354 0.14718 0.55769 0.0
C293 C 0.02235 0.14382 0.54521 0.0
C294 C 0.02275 0.12043 0.52814 0.0
H295 H 0.03794 0.12096 0.46214 0.0
H296 H 0.0048 0.12344 0.48254 0.0
H297 H 0.05102 0.13881 0.48706 0.0
H298 H 0.11128 0.09109 0.53148 0.0
H299 H 0.10986 0.13092 0.56195 0.0
H300 H 0.90941 0.50567 0.02015 0.0
H301 H 0.96386 0.51656 -0.00089 0.0
H302 H 0.99927 0.6 0.04175 0.0
H303 H 0.94482 0.58849 0.06317 0.0
H304 H 0.98631 0.57959 0.97957 0.0
H305 H 0.0884 0.53373 0.038 0.0
H306 H 0.03997 0.52517 0.0409 0.0
H307 H 0.05816 0.56994 0.04565 0.0
C308 C 0.92886 0.52629 0.02502 0.0
C309 C 0.92318 0.54615 0.04326 0.0
C310 C 0.95983 0.53256 0.013 0.0
C311 C 0.98559 0.55897 0.01894 0.0
C312 C 0.97996 0.5791 0.03711 0.0
H313 H 0.16883 0.59459 0.93153 0.0
H314 H 0.11696 0.60969 0.9542 0.0
C315 C 0.94904 0.57248 0.04932 0.0
C316 C 0.01851 0.56434 0.00605 0.0
H317 H 0.11043 0.54794 0.00499 0.0
C318 C 0.01361 0.57333 0.98515 0.0
C319 C 0.05395 0.55607 0.01349 0.0
C320 C 0.06064 0.54544 0.03569 0.0
C321 C 0.04295 0.57218 0.9712 0.0
C322 C 0.07799 0.56233 0.97849 0.0
C323 C 0.08335 0.55551 -0.00042 0.0
C324 C 0.1083 0.55406 0.96423 0.0
C325 C 0.03592 0.57908 0.94858 0.0
C326 C 0.12022 0.5179 0.96242 0.0
C327 C 0.14959 0.5093 0.94962 0.0
C328 C 0.16757 0.53673 0.93839 0.0
C329 C 0.15511 0.57292 0.93986 0.0
C330 C 0.12568 0.58158 0.9528 0.0
H331 H 0.00632 0.58292 0.94519 0.0
H332 H 0.05088 0.60397 0.94367 0.0
H333 H 0.04629 0.55592 0.93919 0.0
H334 H 0.10686 0.49631 0.97104 0.0
H335 H 0.15836 0.48117 0.94853 0.0
H336 H 0.47263 0.41365 0.52948 0.0
H337 H 0.48157 0.46484 0.50578 0.0
H338 H 0.58679 0.48701 0.5335 0.0
H339 H 0.57801 0.43577 0.55718 0.0
H340 H 0.49108 0.53731 0.51856 0.0
H341 H 0.60885 0.48919 0.47146 0.0
H342 H 0.58139 0.45873 0.48699 0.0
H343 H 0.61581 0.48688 0.49888 0.0
C344 C 0.49779 0.42927 0.53036 0.0
C345 C 0.52459 0.42089 0.54517 0.0
C346 C 0.50288 0.45837 0.51683 0.0
C347 C 0.53489 0.47947 0.51787 0.0
C348 C 0.56219 0.47058 0.53224 0.0
H349 H 0.61152 0.67087 0.4535 0.0
H350 H 0.60168 0.62213 0.47867 0.0
C351 C 0.55718 0.44132 0.54572 0.0
C352 C 0.53856 0.51219 0.50482 0.0
H353 H 0.59118 0.55088 0.46728 0.0
C354 C 0.51285 0.54032 0.50727 0.0
C355 C 0.56711 0.51589 0.49025 0.0
C356 C 0.59472 0.48597 0.48655 0.0
C357 C 0.51523 0.57245 0.49565 0.0
C358 C 0.54374 0.57611 0.48102 0.0
C359 C 0.56945 0.54797 0.47861 0.0
C360 C 0.54733 0.60854 0.4677 0.0
C361 C 0.48768 0.60239 0.4994 0.0
C362 C 0.51968 0.61744 0.45352 0.0
C363 C 0.52521 0.64539 0.4392 0.0
C364 C 0.55867 0.66436 0.4387 0.0
C365 C 0.5857 0.65627 0.45342 0.0
C366 C 0.58007 0.6286 0.46781 0.0
H367 H 0.47437 0.59966 0.51477 0.0
H368 H 0.50077 0.62969 0.4984 0.0
H369 H 0.46592 0.60082 0.48747 0.0
H370 H 0.49451 0.60177 0.45292 0.0
H371 H 0.50413 0.65086 0.42787 0.0
H372 H 0.42398 0.11976 0.94478 0.0
H373 H 0.47245 0.10977 0.9702 0.0
H374 H 0.48028 0.99723 0.95128 0.0
H375 H 0.43272 0.00722 0.9254 0.0
H376 H 0.47497 0.05853 0.00308 0.0
H377 H 0.58591 0.03683 0.94549 0.0
H378 H 0.54239 0.05708 0.93886 0.0
H379 H 0.54609 0.00856 0.94205 0.0
C380 C 0.43618 0.09296 0.94595 0.0
C381 C 0.42478 0.06438 0.93296 0.0
C382 C 0.46365 0.08727 0.96053 0.0
C383 C 0.4802 0.05297 0.96228 0.0
C384 C 0.46815 0.02406 0.94984 0.0
H385 H 0.6492 0.96268 0.03964 0.0
H386 H 0.60181 0.9738 0.01371 0.0
C387 C 0.44069 0.02972 0.93524 0.0
C388 C 0.51017 0.04747 0.97714 0.0
H389 H 0.60084 0.02589 0.98059 0.0
C390 C 0.50255 0.05154 -0.00178 0.0
C391 C 0.54599 0.03845 0.97058 0.0
C392 C 0.55581 0.03526 0.94801 0.0
C393 C 0.52983 0.04607 0.01308 0.0
C394 C 0.56561 0.03689 0.00653 0.0
C395 C 0.57328 0.03293 0.98545 0.0
C396 C 0.59535 0.03083 0.02146 0.0
C397 C 0.52003 0.04938 0.03565 0.0
C398 C 0.60773 0.05948 0.03398 0.0
C399 C 0.63451 0.05317 0.04888 0.0
C400 C 0.64942 0.01812 0.05139 0.0
C401 C 0.63772 0.98977 0.03833 0.0
C402 C 0.61092 0.99612 0.02343 0.0
H403 H 0.48991 0.04839 0.03817 0.0
H404 H 0.53301 0.02726 0.04477 0.0
H405 H 0.53029 0.07586 0.04165 0.0
H406 H 0.59631 0.0866 0.0324 0.0
H407 H 0.64276 0.07552 0.05876 0.0
H408 H 0.19138 0.05612 0.84379 0.0
H409 H 0.15123 0.08608 0.81931 0.0
H410 H 0.18297 0.00914 0.77223 0.0
H411 H 0.22216 0.97804 0.79672 0.0
H412 H 0.18238 0.11953 0.78704 0.0
H413 H 0.07736 0.02383 0.75778 0.0
H414 H 0.10275 0.01531 0.78121 0.0
H415 H 0.12232 0.00435 0.75642 0.0
C416 C 0.18939 0.04474 0.82846 0.0
C417 C 0.21203 0.0157 0.82207 0.0
C418 C 0.16613 0.06203 0.81442 0.0
C419 C 0.16452 0.05032 0.79382 0.0
C420 C 0.18359 0.01874 0.78805 0.0
H421 H 0.12932 0.14664 0.6751 0.0
H422 H 0.14707 0.11014 0.70512 0.0
C423 C 0.20662 1.00125 0.80211 0.0
C424 C 0.14833 0.07424 0.77779 0.0
H425 H 0.09248 0.07469 0.73547 0.0
C426 C 0.16214 0.10993 0.77603 0.0
C427 C 0.12225 0.06161 0.76328 0.0
C428 C 0.10507 0.02428 0.76489 0.0
C429 C 0.1516 0.13281 0.75977 0.0
C430 C 0.12647 0.11975 0.74494 0.0
C431 C 0.11194 0.08446 0.74688 0.0
C432 C 0.11586 0.14213 0.72698 0.0
C433 C 0.16838 0.17033 0.75804 0.0
C434 C 0.09269 0.17229 0.72947 0.0
C435 C 0.08264 0.19329 0.71239 0.0
C436 C 0.0957 0.18449 0.69256 0.0
C437 C 0.11926 0.15444 0.69021 0.0
C438 C 0.12911 0.13335 0.70727 0.0
H439 H 0.19085 0.17465 0.76936 0.0
H440 H 0.17936 0.17469 0.74223 0.0
H441 H 0.14695 0.19122 0.76082 0.0
H442 H 0.08221 0.17939 0.7446 0.0
H443 H 0.06461 0.21638 0.71469 0.0
H444 H 0.07244 0.66901 0.32257 0.0
H445 H 0.04731 0.64177 0.29106 0.0
H446 H 0.96064 0.72149 0.29088 0.0
H447 H 0.98603 0.74966 0.32169 0.0
H448 H 0.97683 0.6134 0.27982 0.0
H449 H 0.01361 0.73771 0.23539 0.0
H450 H 0.03106 0.72897 0.26099 0.0
H451 H 0.98531 0.74609 0.25758 0.0
C452 C 0.04795 0.68068 0.31589 0.0
C453 C 0.03178 0.71199 0.32459 0.0
C454 C 0.03352 0.66493 0.29795 0.0
C455 C 1.00266 0.68019 0.2884 0.0
C456 C 0.98495 0.70978 0.29779 0.0
H457 H 0.86421 0.61177 0.18864 0.0
H458 H 0.89191 0.62954 0.2215 0.0
C459 C 0.99938 0.72562 0.31564 0.0
C460 C 0.99016 0.66667 0.26801 0.0
H461 H 0.97764 0.69326 0.21796 0.0
C462 C 0.97716 0.63075 0.26627 0.0
C463 C 0.99115 0.68924 0.25028 0.0
C464 C 0.00634 0.72755 0.25102 0.0
C465 C 0.96396 0.61724 0.24736 0.0
C466 C 0.96377 0.64028 0.22987 0.0
C467 C 0.97776 0.67577 0.23146 0.0
C468 C 0.94754 0.62866 0.21 0.0
C469 C 0.95015 0.5785 0.24615 0.0
C470 C 0.96972 0.62285 0.19258 0.0
C471 C 0.95396 0.61269 0.17371 0.0
C472 C 0.91574 0.60893 0.17193 0.0
C473 C 0.89369 0.61509 0.18942 0.0
C474 C 0.90946 0.62482 0.20827 0.0
H475 H 0.95856 0.5622 0.2598 0.0
H476 H 0.91976 0.57866 0.24541 0.0
H477 H 0.96047 0.56497 0.23194 0.0
H478 H 0.99919 0.62598 0.19364 0.0
H479 H 0.97156 0.60808 0.16048 0.0
H480 H 0.36994 0.49879 0.83068 0.0
H481 H 0.40675 0.47261 0.80305 0.0
H482 H 0.40391 0.57489 0.77035 0.0
H483 H 0.36731 0.60175 0.79827 0.0
H484 H 0.3726 0.47434 0.76144 0.0
H485 H 0.51308 0.53398 0.76433 0.0
H486 H 0.48469 0.52948 0.78709 0.0
H487 H 0.47467 0.56403 0.76839 0.0
C488 C 0.37818 0.51626 0.81805 0.0
C489 C 0.3655 0.55241 0.81663 0.0
C490 C 0.39911 0.50112 0.80221 0.0
C491 C 0.40804 0.52187 0.78476 0.0
C492 C 0.39755 0.5586 0.78383 0.0
H493 H 0.48139 0.45892 0.66216 0.0
H494 H 0.46185 0.49317 0.69276 0.0
C495 C 0.37643 0.57379 0.79968 0.0
C496 C 0.42312 0.5035 0.76636 0.0
H497 H 0.49907 0.49578 0.73587 0.0
C498 C 0.40028 0.47892 0.75586 0.0
C499 C 0.45908 0.50992 0.75915 0.0
C500 C 0.48457 0.53563 0.7703 0.0
C501 C 0.41248 0.46046 0.73824 0.0
C502 C 0.44857 0.46645 0.73113 0.0
C503 C 0.4714 0.49133 0.74147 0.0
C504 C 0.46289 0.44646 0.71309 0.0
C505 C 0.38662 0.43492 0.72716 0.0
C506 C 0.47015 0.40903 0.71458 0.0
C507 C 0.48136 0.38943 0.69722 0.0
C508 C 0.48549 0.40698 0.67805 0.0
C509 C 0.47873 0.44469 0.67673 0.0
C510 C 0.46758 0.46429 0.69415 0.0
H511 H 0.35787 0.43808 0.73254 0.0
H512 H 0.38761 0.43975 0.71025 0.0
H513 H 0.39519 0.40633 0.72999 0.0
H514 H 0.46682 0.39495 0.72917 0.0
H515 H 0.48707 0.3606 0.69885 0.0
H516 H 0.57748 0.88515 0.34352 0.0
H517 H 0.60891 0.91847 0.31636 0.0
H518 H 0.513 0.91078 0.27786 0.0
H519 H 0.48131 0.87641 0.30483 0.0
H520 H 0.61198 0.87691 0.27437 0.0
H521 H 0.55974 0.01945 0.27174 0.0
H522 H 0.56125 0.99326 0.29538 0.0
H523 H 0.52717 0.98326 0.27627 0.0
C524 C 0.56261 0.89073 0.3295 0.0
C525 C 0.52738 0.87606 0.32604 0.0
C526 C 0.58072 0.91012 0.31399 0.0
C527 C 0.56346 0.91643 0.29504 0.0
C528 C 0.52685 0.90585 0.29239 0.0
H529 H 0.6259 0.97933 0.17209 0.0
H530 H 0.5945 0.9618 0.20394 0.0
C531 C 0.50887 0.886 0.3078 0.0
C532 C 0.58516 0.92895 0.27712 0.0
H533 H 0.59773 1.00031 0.24409 0.0
C534 C 0.60922 0.904 0.26784 0.0
C535 C 0.5811 0.96413 0.26866 0.0
C536 C 0.55609 0.99183 0.2785 0.0
C537 C 0.62883 0.91312 0.24993 0.0
C538 C 0.62464 0.94828 0.24135 0.0
C539 C 0.60085 0.97338 0.25077 0.0
C540 C 0.64397 0.95903 0.22223 0.0
C541 C 0.65297 0.88477 0.23991 0.0
C542 C 0.6822 0.96323 0.22203 0.0
C543 C 0.70026 0.97348 0.20388 0.0
C544 C 0.68033 0.97976 0.18563 0.0
C545 C 0.64201 0.97523 0.18593 0.0
C546 C 0.62402 0.96512 0.20408 0.0
H547 H 0.64817 0.8571 0.24636 0.0
H548 H 0.64815 0.88392 0.22299 0.0
H549 H 0.68216 0.89206 0.24246 0.0
H550 H 0.698 0.95896 0.23597 0.0
H551 H 0.72969 0.97728 0.20428 0.0
H552 H 0.95696 0.84563 0.28421 0.0
H553 H 0.93509 0.88126 0.25455 0.0
H554 H 0.9852 0.97801 0.28016 0.0
H555 H 0.00832 0.94204 0.30923 0.0
H556 H 0.88964 0.93783 0.2532 0.0
H557 H 0.02474 0.98167 0.22254 0.0
H558 H 0.02027 0.94706 0.24217 0.0
H559 H 0.01761 0.99461 0.24895 0.0
C560 C 0.96329 0.87447 0.28333 0.0
C561 C 0.98438 0.89128 0.29871 0.0
C562 C 0.95093 0.89477 0.26647 0.0
C563 C 0.95925 0.93214 0.2649 0.0
C564 C 0.97949 0.94903 0.28067 0.0
H565 H 0.87365 0.09517 0.17954 0.0
H566 H 0.90703 0.06584 0.20782 0.0
C567 C 0.99235 0.92863 0.29732 0.0
C568 C 0.94553 0.95363 0.24716 0.0
H569 H 0.9721 0.00919 0.20746 0.0
C570 C 0.90773 0.9533 0.24319 0.0
C571 C 0.96918 0.97398 0.23414 0.0
C572 C 0.01023 0.97414 0.23702 0.0
C573 C 0.89291 0.97269 0.22657 0.0
C574 C 0.91653 0.99283 0.21356 0.0
C575 C 0.95421 0.99375 0.21761 0.0
C576 C 0.9022 0.0115 0.19512 0.0
C577 C 0.85205 0.97142 0.22292 0.0
C578 C 0.88995 0.99073 0.17837 0.0
C579 C 0.87059 0.00717 0.16238 0.0
C580 C 0.86314 0.0449 0.16279 0.0
C581 C 0.87812 0.06603 0.1789 0.0
C582 C 0.89742 0.04941 0.195 0.0
H583 H 0.83697 0.96041 0.23646 0.0
H584 H 0.84138 0.99905 0.21935 0.0
H585 H 0.84623 0.95359 0.20944 0.0
H586 H 0.89372 0.96142 0.1782 0.0
H587 H 0.85971 0.9896 0.15047 0.0
H588 H 0.24367 0.47853 0.78977 0.0
H589 H 0.21383 0.46242 0.75719 0.0
H590 H 0.11404 0.43735 0.79001 0.0
H591 H 0.14371 0.45329 0.8227 0.0
H592 H 0.1824 0.39671 0.74548 0.0
H593 H 0.07895 0.50729 0.74495 0.0
H594 H 0.11831 0.50783 0.76185 0.0
H595 H 0.07875 0.48075 0.76823 0.0
C596 C 0.21551 0.46912 0.7901 0.0
C597 C 0.19606 0.46709 0.80884 0.0
C598 C 0.19842 0.46028 0.77145 0.0
C599 C 0.16153 0.44942 0.77115 0.0
C600 C 0.14225 0.4466 0.78985 0.0
H601 H 0.00568 0.36191 0.6865 0.0
H602 H 0.03849 0.39175 0.71468 0.0
C603 C 0.1593 0.4555 0.80851 0.0
C604 C 0.14362 0.43962 0.75138 0.0
H605 H 0.07015 0.459 0.72066 0.0
C606 C 0.1581 0.41056 0.7399 0.0
C607 C 0.112 0.45787 0.74414 0.0
C608 C 0.09624 0.4904 0.75532 0.0
C609 C 0.14087 0.39809 0.72185 0.0
C610 C 0.10871 0.41577 0.71486 0.0
C611 C 0.0948 0.44552 0.72604 0.0
C612 C 0.08768 0.40197 0.69689 0.0
C613 C 0.15637 0.36505 0.71101 0.0
C614 C 0.10392 0.39901 0.67729 0.0
C615 C 0.08527 0.38166 0.66117 0.0
C616 C 0.04983 0.36763 0.66429 0.0
C617 C 0.0328 0.37272 0.68355 0.0
C618 C 0.05159 0.38966 0.69971 0.0
H619 H 0.17588 0.34985 0.72095 0.0
H620 H 0.13415 0.34614 0.70618 0.0
H621 H 0.17137 0.37394 0.69698 0.0
H622 H 0.1314 0.4092 0.67463 0.0
H623 H 0.09876 0.3785 0.64638 0.0
H624 H 0.53859 0.63943 0.3026 0.0
H625 H 0.55785 0.60241 0.27286 0.0
H626 H 0.66089 0.66006 0.2711 0.0
H627 H 0.64248 0.69634 0.3009 0.0
H628 H 0.58434 0.62937 0.23134 0.0
H629 H 0.68603 0.54826 0.27525 0.0
H630 H 0.64831 0.57178 0.28749 0.0
H631 H 0.68869 0.59653 0.2799 0.0
C632 C 0.56548 0.64394 0.29597 0.0
C633 C 0.58908 0.67076 0.30414 0.0
C634 C 0.57624 0.62303 0.27892 0.0
C635 C 0.61081 0.62848 0.26996 0.0
C636 C 0.63419 0.65536 0.27794 0.0
H637 H 0.72853 0.59574 0.1601 0.0
H638 H 0.68331 0.61479 0.18585 0.0
C639 C 0.62351 0.67621 0.29488 0.0
C640 C 0.62341 0.60602 0.25242 0.0
H641 H 0.69346 0.54987 0.23862 0.0
C642 C 0.60775 0.61137 0.23288 0.0
C643 C 0.65343 0.58212 0.25463 0.0
C644 C 0.66994 0.57397 0.27548 0.0
C645 C 0.62305 0.59517 0.21519 0.0
C646 C 0.6551 0.57375 0.21721 0.0
C647 C 0.66909 0.56654 0.23698 0.0
C648 C 0.67667 0.56099 0.19919 0.0
C649 C 0.60515 0.60168 0.19455 0.0
C650 C 0.68788 0.52444 0.19801 0.0
C651 C 0.71422 0.51378 0.1836 0.0
C652 C 0.72964 0.53939 0.17001 0.0
C653 C 0.71677 0.57544 0.17029 0.0
C654 C 0.69075 0.58625 0.18491 0.0
H655 H 0.57523 0.60642 0.19632 0.0
H656 H 0.6172 0.62645 0.18741 0.0
H657 H 0.60939 0.57829 0.18391 0.0
H658 H 0.67746 0.5045 0.20887 0.0
H659 H 0.72341 0.48571 0.18348 0.0
H660 H 0.36576 0.08626 0.7778 0.0
H661 H 0.4006 0.10486 0.7473 0.0
H662 H 0.49748 0.11806 0.78469 0.0
H663 H 0.46273 0.10011 0.81539 0.0
H664 H 0.43702 0.17429 0.74469 0.0
H665 H 0.53264 0.05791 0.73348 0.0
H666 H 0.49041 0.05388 0.74793 0.0
H667 H 0.52947 0.07592 0.75927 0.0
C668 C 0.39446 0.09321 0.77956 0.0
C669 C 0.41144 0.092 0.79903 0.0
C670 C 0.41437 0.10344 0.7621 0.0
C671 C 0.45164 0.1123 0.76377 0.0
C672 C 0.4689 0.11054 0.78307 0.0
H673 H 0.60531 0.21973 0.68271 0.0
H674 H 0.57797 0.18285 0.71001 0.0
C675 C 0.44898 0.1004 0.80057 0.0
C676 C 0.47146 0.12675 0.74567 0.0
H677 H 0.54264 0.11037 0.71267 0.0
C678 C 0.45995 0.16023 0.73759 0.0
C679 C 0.50153 0.10836 0.73667 0.0
C680 C 0.51422 0.07187 0.74463 0.0
C681 C 0.47801 0.1762 0.72081 0.0
C682 C 0.50787 0.15771 0.71162 0.0
C683 C 0.51958 0.12425 0.71974 0.0
C684 C 0.52716 0.1735 0.69369 0.0
C685 C 0.46545 0.21313 0.71333 0.0
C686 C 0.50832 0.17874 0.67512 0.0
C687 C 0.52347 0.20035 0.65961 0.0
C688 C 0.55797 0.21712 0.66234 0.0
C689 C 0.57824 0.20857 0.68023 0.0
C690 C 0.56285 0.1871 0.69582 0.0
H691 H 0.44798 0.22719 0.72492 0.0
H692 H 0.48926 0.23092 0.7097 0.0
H693 H 0.44912 0.20965 0.69901 0.0
H694 H 0.48094 0.16781 0.6731 0.0
H695 H 0.50688 0.20531 0.64612 0.0
H696 H 0.94458 0.22413 0.55691 0.0
H697 H 0.88218 0.23426 0.54407 0.0
H698 H 0.86933 0.32265 0.58758 0.0
H699 H 0.93226 0.31431 0.59899 0.0
H700 H 0.8256 0.22154 0.56426 0.0
H701 H 0.8127 0.3659 0.54299 0.0
H702 H 0.85692 0.3451 0.54684 0.0
H703 H 0.8316 0.36366 0.56842 0.0
C704 C 0.92899 0.24705 0.56278 0.0
C705 C 0.94342 0.269 0.57856 0.0
C706 C 0.89313 0.25254 0.55569 0.0
C707 C 0.87068 0.27946 0.56468 0.0
C708 C 0.88601 0.30253 0.57977 0.0
H709 H 0.64881 0.26085 0.60075 0.0
H710 H 0.71266 0.2491 0.59183 0.0
C711 C 0.92215 0.29767 0.58641 0.0
C712 C 0.83029 0.27992 0.5607 0.0
H713 H 0.75694 0.33715 0.55636 0.0
C714 C 0.81077 0.24684 0.56202 0.0
C715 C 0.81042 0.31257 0.55736 0.0
C716 C 0.82917 0.34866 0.55359 0.0
C717 C 0.77227 0.24579 0.56135 0.0
C718 C 0.75238 0.27886 0.56022 0.0
C719 C 0.77187 0.31168 0.5576 0.0
C720 C 0.71186 0.28058 0.5635 0.0
C721 C 0.75352 0.20911 0.562 0.0
C722 C 0.68958 0.30207 0.55061 0.0
C723 C 0.65306 0.30929 0.55598 0.0
C724 C 0.63801 0.29452 0.57408 0.0
C725 C 0.65944 0.27129 0.58628 0.0
C726 C 0.69607 0.26464 0.58115 0.0
H727 H 0.77054 0.18798 0.55429 0.0
H728 H 0.74992 0.20063 0.57832 0.0
H729 H 0.72626 0.2098 0.55439 0.0
H730 H 0.701 0.31494 0.53699 0.0
H731 H 0.63736 0.3283 0.54675 0.0
H732 H 0.84637 0.40363 0.11009 0.0
H733 H 0.83213 0.34221 0.09893 0.0
H734 H 0.74471 0.38297 0.06062 0.0
H735 H 0.75925 0.4459 0.07174 0.0
H736 H 0.76066 0.30812 0.10395 0.0
H737 H 0.81078 0.31306 0.02263 0.0
H738 H 0.82658 0.34529 0.0418 0.0
H739 H 0.78077 0.34846 0.03204 0.0
C740 C 0.82412 0.39989 0.09922 0.0
C741 C 0.80396 0.42975 0.09175 0.0
C742 C 0.81608 0.36462 0.09285 0.0
C743 C 0.78772 0.35811 0.0788 0.0
C744 C 0.76706 0.38763 0.0713 0.0
H745 H 0.71295 0.13679 0.06183 0.0
H746 H 0.72081 0.20143 0.05368 0.0
C747 C 0.77513 0.42339 0.07779 0.0
C748 C 0.7796 0.31981 0.07321 0.0
H749 H 0.7953 0.25516 0.03611 0.0
C750 C 0.76756 0.29662 0.08901 0.0
C751 C 0.78912 0.30499 0.05376 0.0
C752 C 0.80267 0.32902 0.03649 0.0
C753 C 0.76601 0.25881 0.08616 0.0
C754 C 0.77673 0.24378 0.06698 0.0
C755 C 0.78742 0.26693 0.05082 0.0
C756 C 0.77697 0.20379 0.06415 0.0
C757 C 0.75406 0.23492 0.10393 0.0
C758 C 0.80686 0.18331 0.07137 0.0
C759 C 0.80254 0.14616 0.07583 0.0
C760 C 0.76821 0.1295 0.07324 0.0
C761 C 0.73979 0.14907 0.06372 0.0
C762 C 0.74421 0.18598 0.05909 0.0
H763 H 0.74562 0.25105 0.11766 0.0
H764 H 0.7307 0.21743 0.09912 0.0
H765 H 0.7769 0.21664 0.10847 0.0
H766 H 0.83223 0.1968 0.07557 0.0
H767 H 0.82454 0.13179 0.08354 0.0
H768 H 0.45569 0.74637 0.43567 0.0
H769 H 0.39226 0.75463 0.44725 0.0
H770 H 0.38068 0.84546 0.40553 0.0
H771 H 0.44447 0.8379 0.39451 0.0
H772 H 0.33556 0.85189 0.44095 0.0
H773 H 0.32221 0.7157 0.40345 0.0
H774 H 0.35226 0.71793 0.42535 0.0
H775 H 0.36386 0.74205 0.40209 0.0
C776 C 0.44022 0.76943 0.42992 0.0
C777 C 0.45506 0.79188 0.41445 0.0
C778 C 0.40379 0.77379 0.43629 0.0
C779 C 0.38136 0.80003 0.42685 0.0
C780 C 0.39738 0.82496 0.41303 0.0
H781 H 0.18176 0.81285 0.37117 0.0
H782 H 0.24257 0.80351 0.38532 0.0
C783 C 0.43398 0.8209 0.40686 0.0
C784 C 0.34064 0.79776 0.42841 0.0
H785 H 0.26821 0.74562 0.41237 0.0
C786 C 0.32075 0.82834 0.43516 0.0
C787 C 0.32126 0.76707 0.42067 0.0
C788 C 0.34083 0.73389 0.41232 0.0
C789 C 0.28225 0.82971 0.43343 0.0
C790 C 0.26321 0.79971 0.42481 0.0
C791 C 0.28287 0.76838 0.41922 0.0
C792 C 0.22493 0.80317 0.4172 0.0
C793 C 0.26235 0.86413 0.43943 0.0
C794 C 0.19433 0.80523 0.43044 0.0
C795 C 0.15888 0.81032 0.42225 0.0
C796 C 0.15398 0.81383 0.40081 0.0
C797 C 0.18462 0.8106 0.38778 0.0
C798 C 0.2195 0.80519 0.39584 0.0
H799 H 0.28124 0.88546 0.44541 0.0
H800 H 0.24744 0.8752 0.42587 0.0
H801 H 0.24173 0.85786 0.45153 0.0
H802 H 0.19794 0.8034 0.447 0.0
H803 H 0.13572 0.81289 0.43262 0.0
H804 H 0.25148 0.94702 0.89795 0.0
H805 H 0.2448 0.88279 0.90816 0.0
H806 H 0.35524 0.88333 0.93178 0.0
H807 H 0.36194 0.94712 0.92158 0.0
H808 H 0.34034 0.83635 0.89652 0.0
H809 H 0.24231 0.81438 0.96113 0.0
H810 H 0.22961 0.84779 0.94206 0.0
H811 H 0.26861 0.85595 0.95828 0.0
C812 C 0.27344 0.934 0.90644 0.0
C813 C 0.30708 0.95199 0.90918 0.0
C814 C 0.26975 0.89723 0.91214 0.0
C815 C 0.29959 0.87828 0.92072 0.0
C816 C 0.33185 0.89744 0.92531 0.0
H817 H 0.32063 0.63569 0.92194 0.0
H818 H 0.33208 0.69966 0.93236 0.0
C819 C 0.33555 0.93396 0.91959 0.0
C820 C 0.30004 0.8378 0.92084 0.0
H821 H 0.25801 0.76233 0.94082 0.0
C822 C 0.32294 0.82013 0.90654 0.0
C823 C 0.27725 0.81674 0.93384 0.0
C824 C 0.25315 0.8345 0.94984 0.0
C825 C 0.32237 0.78209 0.90424 0.0
C826 C 0.29851 0.76112 0.91664 0.0
C827 C 0.27663 0.77854 0.93153 0.0
C828 C 0.29146 0.72231 0.9117 0.0
C829 C 0.34561 0.76459 0.88771 0.0
C830 C 0.26513 0.71424 0.89673 0.0
C831 C 0.25864 0.67833 0.89084 0.0
C832 C 0.27843 0.64937 0.89974 0.0
C833 C 0.305 0.65738 0.91482 0.0
C834 C 0.31142 0.69376 0.92082 0.0
H835 H 0.36622 0.78382 0.88128 0.0
H836 H 0.35999 0.74035 0.89398 0.0
H837 H 0.32765 0.75515 0.87493 0.0
H838 H 0.2498 0.73593 0.88936 0.0
H839 H 0.23822 0.67343 0.87903 0.0
H840 H 0.44243 0.2759 0.55108 0.0
H841 H 0.37537 0.27631 0.55149 0.0
H842 H 0.37603 0.2655 0.61771 0.0
H843 H 0.44325 0.26516 0.61754 0.0
H844 H 0.3218 0.21736 0.58855 0.0
H845 H 0.31835 0.36885 0.58187 0.0
H846 H 0.35057 0.34382 0.56621 0.0
H847 H 0.35637 0.34518 0.59366 0.0
C848 C 0.42845 0.27282 0.56573 0.0
C849 C 0.44838 0.27063 0.5843 0.0
C850 C 0.39006 0.27332 0.56592 0.0
C851 C 0.37082 0.27134 0.58464 0.0
C852 C 0.39043 0.26725 0.60311 0.0
H853 H 0.14129 0.29973 0.61726 0.0
H854 H 0.20847 0.29919 0.61663 0.0
C855 C 0.42886 0.26699 0.60297 0.0
C856 C 0.33031 0.27505 0.58492 0.0
H857 H 0.26147 0.338 0.5814 0.0
C858 C 0.30857 0.24368 0.58699 0.0
C859 C 0.31322 0.30949 0.58301 0.0
C860 C 0.33561 0.34395 0.58114 0.0
C861 C 0.27006 0.24587 0.58691 0.0
C862 C 0.25297 0.28024 0.58471 0.0
C863 C 0.2747 0.31168 0.58293 0.0
C864 C 0.21245 0.28377 0.58449 0.0
C865 C 0.24767 0.21151 0.58921 0.0
C866 C 0.19249 0.27618 0.56646 0.0
C867 C 0.15406 0.2768 0.5667 0.0
C868 C 0.13492 0.28465 0.58505 0.0
C869 C 0.15515 0.29343 0.60289 0.0
C870 C 0.19353 0.29315 0.60258 0.0
H871 H 0.26498 0.18729 0.59246 0.0
H872 H 0.22745 0.21478 0.6019 0.0
H873 H 0.23208 0.20648 0.57476 0.0
H874 H 0.20666 0.2689 0.55234 0.0
H875 H 0.13939 0.26964 0.55273 0.0
H876 H 0.76453 0.63715 0.11748 0.0
H877 H 0.75451 0.70332 0.11725 0.0
H878 H 0.78224 0.70687 0.05259 0.0
H879 H 0.79368 0.64127 0.05295 0.0
H880 H 0.82339 0.74494 0.1025 0.0
H881 H 0.69471 0.78311 0.06188 0.0
H882 H 0.69943 0.74073 0.07591 0.0
H883 H 0.72122 0.74614 0.05127 0.0
C884 C 0.76681 0.65175 0.10301 0.0
C885 C 0.78021 0.63422 0.08525 0.0
C886 C 0.7613 0.6896 0.10293 0.0
C887 C 0.7679 0.70994 0.08493 0.0
C888 C 0.77676 0.69166 0.06659 0.0
H889 H 0.79346 0.93735 0.05137 0.0
H890 H 0.79029 0.87072 0.05157 0.0
C891 C 0.78299 0.65411 0.06678 0.0
C892 C 0.77254 0.75005 0.08594 0.0
H893 H 0.73735 0.83043 0.06847 0.0
C894 C 0.80438 0.76378 0.0953 0.0
C895 C 0.7482 0.77425 0.07606 0.0
C896 C 0.71379 0.76055 0.06576 0.0
C897 C 0.81294 0.80113 0.09474 0.0
C898 C 0.78833 0.8256 0.08509 0.0
C899 C 0.75629 0.81176 0.07584 0.0
C900 C 0.79478 0.86569 0.08478 0.0
C901 C 0.84894 0.81366 0.10381 0.0
C902 C 0.79951 0.88508 0.10329 0.0
C903 C 0.80209 0.9231 0.10317 0.0
C904 C 0.79905 0.94275 0.0846 0.0
C905 C 0.79598 0.9232 0.06597 0.0
C906 C 0.79381 0.88506 0.06607 0.0
H907 H 0.86934 0.7912 0.10413 0.0
H908 H 0.86071 0.83678 0.09493 0.0
H909 H 0.84443 0.82271 0.11996 0.0
H910 H 0.7997 0.87097 0.11796 0.0
H911 H 0.80476 0.93711 0.1178 0.0
H912 H 0.63769 0.78034 0.41047 0.0
H913 H 0.7016 0.77686 0.42223 0.0
H914 H 0.73552 0.84197 0.37021 0.0
H915 H 0.67241 0.8457 0.35846 0.0
H916 H 0.76169 0.74744 0.40107 0.0
H917 H 0.78621 0.89332 0.41792 0.0
H918 H 0.7407 0.87457 0.41496 0.0
H919 H 0.76752 0.88646 0.3926 0.0
C920 C 0.6587 0.7942 0.40165 0.0
C921 C 0.6497 0.81318 0.38344 0.0
C922 C 0.69525 0.79217 0.4084 0.0
C923 C 0.72339 0.80951 0.39724 0.0
C924 C 0.71431 0.82901 0.37935 0.0
H925 H 0.95134 0.77307 0.37842 0.0
H926 H 0.88447 0.77073 0.37963 0.0
C927 C 0.67801 0.83101 0.3726 0.0
C928 C 0.76257 0.80603 0.40345 0.0
H929 H 0.83985 0.85654 0.4122 0.0
C930 C 0.77868 0.77125 0.40384 0.0
C931 C 0.78477 0.83699 0.40736 0.0
C932 C 0.76885 0.8749 0.40841 0.0
C933 C 0.81663 0.76683 0.40688 0.0
C934 C 0.83917 0.79801 0.40933 0.0
C935 C 0.82273 0.8326 0.41009 0.0
C936 C 0.87997 0.79575 0.40981 0.0
C937 C 0.83232 0.7288 0.40722 0.0
C938 C 0.89995 0.81056 0.42637 0.0
C939 C 0.93838 0.81195 0.42572 0.0
C940 C 0.95757 0.79907 0.40832 0.0
C941 C 0.93749 0.78325 0.39205 0.0
C942 C 0.89917 0.78166 0.39278 0.0
H943 H 0.81125 0.70836 0.41169 0.0
H944 H 0.84232 0.72168 0.39155 0.0
H945 H 0.85572 0.72687 0.41813 0.0
H946 H 0.88576 0.82183 0.43961 0.0
H947 H 0.95289 0.82461 0.43843 0.0
H948 H 0.30593 0.13307 0.90633 0.0
H949 H 0.31808 0.19752 0.91407 0.0
H950 H 0.24395 0.22947 0.86564 0.0
H951 H 0.23261 0.16546 0.85729 0.0
H952 H 0.33968 0.25169 0.87363 0.0
H953 H 0.22502 0.28922 0.92626 0.0
H954 H 0.2447 0.24397 0.92611 0.0
H955 H 0.2163 0.25835 0.9051 0.0
C956 C 0.29215 0.15377 0.89734 0.0
C957 C 0.26904 0.14394 0.88082 0.0
C958 C 0.29896 0.19058 0.90189 0.0
C959 C 0.28211 0.21817 0.8903 0.0
C960 C 0.25724 0.20853 0.87473 0.0
H961 H 0.2706 0.45144 0.8848 0.0
H962 H 0.26098 0.38587 0.88511 0.0
C963 C 0.2507 0.17183 0.87005 0.0
C964 C 0.29239 0.257 0.89319 0.0
H965 H 0.26264 0.33707 0.91419 0.0
C966 C 0.32317 0.27043 0.88267 0.0
C967 C 0.27054 0.28119 0.90482 0.0
C968 C 0.23727 0.26772 0.91634 0.0
C969 C 0.332 0.30781 0.88284 0.0
C970 C 0.30992 0.33235 0.89436 0.0
C971 C 0.27962 0.31849 0.90534 0.0
C972 C 0.31642 0.37261 0.89431 0.0
C973 C 0.36385 0.32066 0.86984 0.0
C974 C 0.35067 0.38754 0.8996 0.0
C975 C 0.35663 0.42531 0.89866 0.0
C976 C 0.32824 0.44921 0.89288 0.0
C977 C 0.29358 0.43419 0.88849 0.0
C978 C 0.28784 0.39646 0.88901 0.0
H979 H 0.37104 0.30054 0.85765 0.0
H980 H 0.35772 0.34714 0.8623 0.0
H981 H 0.38828 0.32424 0.87983 0.0
H982 H 0.37288 0.37004 0.90449 0.0
H983 H 0.38353 0.43573 0.90257 0.0
loop_
_geom_bond_atom_site_label_1
_geom_bond_atom_site_label_2
_geom_bond_distance
_geom_bond_site_symmetry_2
_ccdc_geom_bond_type
C0 C1 1.351 . S
C0 N3 1.368 . S
C0 H5 0.931 . S
C1 C0 1.351 . S
C1 N2 1.373 . S
C1 H29 0.930 . S
N2 C1 1.373 . S
N2 C4 1.340 . S
N3 C0 1.368 . S
N3 C4 1.321 . S
N3 Co6 2.135 . S
C4 N2 1.340 . S
C4 N3 1.321 . S
C4 H28 0.930 . S
H5 C0 0.931 . S
Co6 N3 2.135 . S
Co6 N9 2.121 . S
Co6 O14 2.055 . S
Co6 O17 2.039 . S
Co6 N20 2.140 . S
C7 O8 1.227 . S
C7 O17 1.265 . S
O8 C7 1.227 . S
N9 Co6 2.121 . S
N9 C11 1.375 . S
N9 C12 1.313 . S
C10 C11 1.338 . S
C10 N13 1.377 . S
C10 H30 0.930 . S
C11 N9 1.375 . S
C11 C10 1.338 . S
C11 H15 0.931 . S
C12 N9 1.313 . S
C12 N13 1.344 . S
C12 H16 0.930 . S
N13 C10 1.377 . S
N13 C12 1.344 . S
O14 Co6 2.055 . S
O14 C18 1.253 1_455 S
H15 C11 0.931 . S
H16 C12 0.930 . S
O17 Co6 2.039 . S
O17 C7 1.265 . S
C18 O14 1.253 1_655 S
C18 O19 1.227 . S
O19 C18 1.227 . S
N20 Co6 2.140 . S
N20 C23 1.346 . S
N20 C24 1.345 . S
C21 C22 1.387 . S
C21 C25 1.391 . S
C22 C21 1.387 . S
C22 C23 1.369 . S
C22 H31 0.929 . S
C23 N20 1.346 . S
C23 C22 1.369 . S
C23 H26 0.928 . S
C24 N20 1.345 . S
C24 C25 1.371 . S
C24 H27 0.931 . S
C25 C21 1.391 . S
C25 C24 1.371 . S
C25 H32 0.930 . S
H26 C23 0.928 . S
H27 C24 0.931 . S
H28 C4 0.930 . S
H29 C1 0.930 . S
H30 C10 0.930 . S
H31 C22 0.929 . S
H32 C25 0.930 . S
C33 C34 1.351 . S
C33 N36 1.368 . S
C33 H38 0.931 . S
C34 C33 1.351 . S
C34 N35 1.373 . S
C34 H62 0.930 . S
N35 C34 1.373 . S
N35 C37 1.340 . S
N36 C33 1.368 . S
N36 C37 1.321 . S
N36 Co39 2.135 . S
C37 N35 1.340 . S
C37 N36 1.321 . S
C37 H61 0.930 . S
H38 C33 0.931 . S
Co39 N36 2.135 . S
Co39 N42 2.121 . S
Co39 O47 2.055 . S
Co39 O50 2.039 . S
Co39 N53 2.140 . S
C40 O41 1.227 . S
C40 O50 1.265 . S
O41 C40 1.227 . S
N42 Co39 2.121 . S
N42 C44 1.375 . S
N42 C45 1.313 . S
C43 C44 1.338 . S
C43 N46 1.377 . S
C43 H63 0.930 . S
C44 N42 1.375 . S
C44 C43 1.338 . S
C44 H48 0.931 . S
C45 N42 1.313 . S
C45 N46 1.344 . S
C45 H49 0.930 . S
N46 C43 1.377 . S
N46 C45 1.344 . S
O47 Co39 2.055 . S
O47 C51 1.253 . S
H48 C44 0.931 . S
H49 C45 0.930 . S
O50 Co39 2.039 . S
O50 C40 1.265 . S
C51 O47 1.253 . S
C51 O52 1.227 . S
O52 C51 1.227 . S
N53 Co39 2.140 . S
N53 C56 1.346 . S
N53 C57 1.345 . S
C54 C55 1.387 . S
C54 C58 1.391 . S
C55 C54 1.387 . S
C55 C56 1.369 . S
C55 H64 0.929 . S
C56 N53 1.346 . S
C56 C55 1.369 . S
C56 H59 0.928 . S
C57 N53 1.345 . S
C57 C58 1.371 . S
C57 H60 0.931 . S
C58 C54 1.391 . S
C58 C57 1.371 . S
C58 H65 0.930 . S
H59 C56 0.928 . S
H60 C57 0.931 . S
H61 C37 0.930 . S
H62 C34 0.930 . S
H63 C43 0.930 . S
H64 C55 0.929 . S
H65 C58 0.930 . S
C66 C67 1.351 . S
C66 N69 1.368 . S
C66 H71 0.931 . S
C67 C66 1.351 . S
C67 N68 1.373 . S
C67 H95 0.930 . S
N68 C67 1.373 . S
N68 C70 1.340 . S
N69 C66 1.368 . S
N69 C70 1.321 . S
N69 Co72 2.135 . S
C70 N68 1.340 . S
C70 N69 1.321 . S
C70 H94 0.930 . S
H71 C66 0.931 . S
Co72 N69 2.135 . S
Co72 N75 2.121 . S
Co72 O80 2.055 . S
Co72 O83 2.039 . S
Co72 N86 2.140 . S
C73 O74 1.227 . S
C73 O83 1.265 . S
O74 C73 1.227 . S
N75 Co72 2.121 . S
N75 C77 1.375 . S
N75 C78 1.313 . S
C76 C77 1.338 . S
C76 N79 1.377 . S
C76 H96 0.930 . S
C77 N75 1.375 . S
C77 C76 1.338 . S
C77 H81 0.931 . S
C78 N75 1.313 . S
C78 N79 1.344 . S
C78 H82 0.930 . S
N79 C76 1.377 . S
N79 C78 1.344 . S
O80 Co72 2.055 . S
O80 C84 1.253 . S
H81 C77 0.931 . S
H82 C78 0.930 . S
O83 Co72 2.039 . S
O83 C73 1.265 . S
C84 O80 1.253 . S
C84 O85 1.227 . S
O85 C84 1.227 . S
N86 Co72 2.140 . S
N86 C89 1.346 . S
N86 C90 1.345 . S
C87 C88 1.387 . S
C87 C91 1.391 . S
C88 C87 1.387 . S
C88 C89 1.369 . S
C88 H97 0.929 . S
C89 N86 1.346 . S
C89 C88 1.369 . S
C89 H92 0.928 . S
C90 N86 1.345 . S
C90 C91 1.371 . S
C90 H93 0.931 . S
C91 C87 1.391 . S
C91 C90 1.371 . S
C91 H98 0.930 . S
H92 C89 0.928 . S
H93 C90 0.931 . S
H94 C70 0.930 . S
H95 C67 0.930 . S
H96 C76 0.930 . S
H97 C88 0.929 . S
H98 C91 0.930 . S
C99 C100 1.351 . S
C99 N102 1.368 . S
C99 H104 0.931 . S
C100 C99 1.351 . S
C100 N101 1.373 . S
C100 H128 0.930 . S
N101 C100 1.373 . S
N101 C103 1.346 . S
N102 C99 1.368 . S
N102 C103 1.338 . S
N102 Co105 2.135 . S
C103 N101 1.346 . S
C103 N102 1.338 . S
C103 H127 0.910 1_545 S
H104 C99 0.931 . S
Co105 N102 2.135 . S
Co105 N108 2.121 . S
Co105 O113 2.055 . S
Co105 O116 2.039 1_545 S
Co105 N119 2.140 . S
C106 O107 1.227 . S
C106 O116 1.265 . S
O107 C106 1.227 . S
N108 Co105 2.121 . S
N108 C110 1.375 1_545 S
N108 C111 1.313 . S
C109 C110 1.338 . S
C109 N112 1.377 1_565 S
C109 H129 0.930 . S
C110 N108 1.375 1_565 S
C110 C109 1.338 . S
C110 H114 0.931 . S
C111 N108 1.313 . S
C111 N112 1.344 . S
C111 H115 0.930 . S
N112 C109 1.377 1_545 S
N112 C111 1.344 . S
O113 Co105 2.055 . S
O113 C117 1.253 . S
H114 C110 0.931 . S
H115 C111 0.930 . S
O116 Co105 2.039 1_565 S
O116 C106 1.265 . S
C117 O113 1.253 . S
C117 O118 1.227 . S
O118 C117 1.227 . S
N119 Co105 2.140 . S
N119 C122 1.346 1_545 S
N119 C123 1.345 . S
C120 C121 1.387 . S
C120 C124 1.391 1_565 S
C121 C120 1.387 . S
C121 C122 1.369 . S
C121 H130 0.929 . S
C122 N119 1.346 1_565 S
C122 C121 1.369 . S
C122 H125 0.928 . S
C123 N119 1.345 . S
C123 C124 1.371 . S
C123 H126 0.931 . S
C124 C120 1.391 1_545 S
C124 C123 1.371 . S
C124 H131 0.930 . S
H125 C122 0.928 . S
H126 C123 0.931 . S
H127 C103 0.910 1_565 S
H128 C100 0.930 . S
H129 C109 0.930 . S
H130 C121 0.929 . S
H131 C124 0.930 . S
C132 C133 1.351 . S
C132 N135 1.368 . S
C132 H137 0.931 . S
C133 C132 1.351 . S
C133 N134 1.373 . S
C133 H161 0.930 . S
N134 C133 1.373 . S
N134 C136 1.340 . S
N135 C132 1.368 . S
N135 C136 1.321 . S
N135 Co138 2.135 . S
C136 N134 1.340 . S
C136 N135 1.321 . S
C136 H160 0.930 1_455 S
H137 C132 0.931 . S
Co138 N135 2.135 . S
Co138 N141 2.121 . S
Co138 O146 2.055 . S
Co138 O149 2.039 1_455 S
Co138 N152 2.140 . S
C139 O140 1.227 . S
C139 O149 1.265 . S
O140 C139 1.227 . S
N141 Co138 2.121 . S
N141 C143 1.375 1_455 S
N141 C144 1.313 . S
C142 C143 1.338 . S
C142 N145 1.377 1_655 S
C142 H162 0.930 . S
C143 N141 1.375 1_655 S
C143 C142 1.338 . S
C143 H147 0.931 . S
C144 N141 1.313 . S
C144 N145 1.344 . S
C144 H148 0.930 . S
N145 C142 1.377 1_455 S
N145 C144 1.344 . S
O146 Co138 2.055 . S
O146 C150 1.253 . S
H147 C143 0.931 . S
H148 C144 0.930 . S
O149 Co138 2.039 1_655 S
O149 C139 1.265 . S
C150 O146 1.253 . S
C150 O151 1.227 . S
O151 C150 1.227 . S
N152 Co138 2.140 . S
N152 C155 1.346 1_455 S
N152 C156 1.345 . S
C153 C154 1.387 . S
C153 C157 1.391 1_655 S
C154 C153 1.387 . S
C154 C155 1.369 . S
C154 H163 0.929 . S
C155 N152 1.346 1_655 S
C155 C154 1.369 . S
C155 H158 0.928 . S
C156 N152 1.345 . S
C156 C157 1.371 . S
C156 H159 0.931 . S
C157 C153 1.391 1_455 S
C157 C156 1.371 . S
C157 H164 0.930 . S
H158 C155 0.928 . S
H159 C156 0.931 . S
H160 C136 0.930 1_655 S
H161 C133 0.930 . S
H162 C142 0.930 . S
H163 C154 0.929 . S
H164 C157 0.930 . S
C165 C166 1.351 . S
C165 N168 1.368 . S
C165 H170 0.931 . S
C166 C165 1.351 . S
C166 N167 1.373 . S
C166 H194 0.930 . S
N167 C166 1.373 . S
N167 C169 1.340 . S
N168 C165 1.368 . S
N168 C169 1.321 . S
N168 Co171 2.135 . S
C169 N167 1.340 . S
C169 N168 1.321 . S
C169 H193 0.930 . S
H170 C165 0.931 . S
Co171 N168 2.135 . S
Co171 N174 2.121 . S
Co171 O179 2.055 . S
Co171 O182 2.039 . S
Co171 N185 2.140 . S
C172 O173 1.227 . S
C172 O182 1.265 . S
O173 C172 1.227 . S
N174 Co171 2.121 . S
N174 C176 1.375 . S
N174 C177 1.313 . S
C175 C176 1.338 . S
C175 N178 1.377 . S
C175 H195 0.930 . S
C176 N174 1.375 . S
C176 C175 1.338 . S
C176 H180 0.931 . S
C177 N174 1.313 . S
C177 N178 1.344 . S
C177 H181 0.930 . S
N178 C175 1.377 . S
N178 C177 1.344 . S
O179 Co171 2.055 . S
O179 C183 1.253 . S
H180 C176 0.931 . S
H181 C177 0.930 . S
O182 Co171 2.039 . S
O182 C172 1.265 . S
C183 O179 1.253 . S
C183 O184 1.227 . S
O184 C183 1.227 . S
N185 Co171 2.140 . S
N185 C188 1.346 . S
N185 C189 1.345 . S
C186 C187 1.387 . S
C186 C190 1.391 . S
C187 C186 1.387 . S
C187 C188 1.369 . S
C187 H196 0.929 . S
C188 N185 1.346 . S
C188 C187 1.369 . S
C188 H191 0.928 . S
C189 N185 1.345 . S
C189 C190 1.371 . S
C189 H192 0.931 . S
C190 C186 1.391 . S
C190 C189 1.371 . S
C190 H197 0.930 . S
H191 C188 0.928 . S
H192 C189 0.931 . S
H193 C169 0.930 . S
H194 C166 0.930 . S
H195 C175 0.930 . S
H196 C187 0.929 . S
H197 C190 0.930 . S
C198 C199 1.351 . S
C198 N201 1.368 . S
C198 H203 0.931 . S
C199 C198 1.351 . S
C199 N200 1.373 . S
C199 H227 0.930 . S
N200 C199 1.373 . S
N200 C202 1.340 . S
N201 C198 1.368 . S
N201 C202 1.321 . S
N201 Co204 2.135 . S
C202 N200 1.340 . S
C202 N201 1.321 . S
C202 H226 0.930 . S
H203 C198 0.931 . S
Co204 N201 2.135 . S
Co204 N207 2.121 . S
Co204 O212 2.055 . S
Co204 O215 2.039 . S
Co204 N218 2.140 . S
C205 O206 1.227 . S
C205 O215 1.265 . S
O206 C205 1.227 . S
N207 Co204 2.121 . S
N207 C209 1.375 . S
N207 C210 1.313 . S
C208 C209 1.338 . S
C208 N211 1.377 . S
C208 H228 0.930 . S
C209 N207 1.375 . S
C209 C208 1.338 . S
C209 H213 0.931 . S
C210 N207 1.313 . S
C210 N211 1.344 . S
C210 H214 0.930 . S
N211 C208 1.377 . S
N211 C210 1.344 . S
O212 Co204 2.055 . S
O212 C216 1.253 . S
H213 C209 0.931 . S
H214 C210 0.930 . S
O215 Co204 2.039 . S
O215 C205 1.265 . S
C216 O212 1.253 . S
C216 O217 1.227 . S
O217 C216 1.227 . S
N218 Co204 2.140 . S
N218 C221 1.346 . S
N218 C222 1.345 . S
C219 C220 1.387 . S
C219 C223 1.391 . S
C220 C219 1.387 . S
C220 C221 1.369 . S
C220 H229 0.929 . S
C221 N218 1.346 . S
C221 C220 1.369 . S
C221 H224 0.928 . S
C222 N218 1.345 . S
C222 C223 1.371 . S
C222 H225 0.931 . S
C223 C219 1.391 . S
C223 C222 1.371 . S
C223 H230 0.930 . S
H224 C221 0.928 . S
H225 C222 0.931 . S
H226 C202 0.930 . S
H227 C199 0.930 . S
H228 C208 0.930 . S
H229 C220 0.929 . S
H230 C223 0.930 . S
C231 C232 1.351 . S
C231 N234 1.368 . S
C231 H236 0.931 . S
C232 C231 1.351 . S
C232 N233 1.373 . S
C232 H260 0.930 . S
N233 C232 1.373 . S
N233 C235 1.340 . S
N234 C231 1.368 . S
N234 C235 1.321 . S
N234 Co237 2.135 . S
C235 N233 1.340 . S
C235 N234 1.321 . S
C235 H259 0.930 . S
H236 C231 0.931 . S
Co237 N234 2.135 . S
Co237 N240 2.121 . S
Co237 O245 2.055 . S
Co237 O248 2.039 . S
Co237 N251 2.140 . S
C238 O239 1.227 . S
C238 O248 1.265 . S
O239 C238 1.227 . S
N240 Co237 2.121 . S
N240 C242 1.375 . S
N240 C243 1.313 . S
C241 C242 1.338 . S
C241 N244 1.377 . S
C241 H261 0.930 . S
C242 N240 1.375 . S
C242 C241 1.338 . S
C242 H246 0.931 . S
C243 N240 1.313 . S
C243 N244 1.344 . S
C243 H247 0.930 . S
N244 C241 1.377 . S
N244 C243 1.344 . S
O245 Co237 2.055 . S
O245 C249 1.253 1_545 S
H246 C242 0.931 . S
H247 C243 0.930 . S
O248 Co237 2.039 . S
O248 C238 1.265 . S
C249 O245 1.253 1_565 S
C249 O250 1.227 . S
O250 C249 1.227 . S
N251 Co237 2.140 . S
N251 C254 1.346 . S
N251 C255 1.345 . S
C252 C253 1.387 . S
C252 C256 1.391 . S
C253 C252 1.387 . S
C253 C254 1.369 . S
C253 H262 0.929 . S
C254 N251 1.346 . S
C254 C253 1.369 . S
C254 H257 0.928 . S
C255 N251 1.345 . S
C255 C256 1.371 . S
C255 H258 0.931 . S
C256 C252 1.391 . S
C256 C255 1.371 . S
C256 H263 0.930 . S
H257 C254 0.928 . S
H258 C255 0.931 . S
H259 C235 0.930 . S
H260 C232 0.930 . S
H261 C241 0.930 . S
H262 C253 0.929 . S
H263 C256 0.930 . S
H264 C272 0.929 . S
H265 C274 0.930 1_545 S
H266 C276 0.930 . S
H267 C279 0.929 . S
H268 C282 0.930 . S
H269 C284 0.960 . S
H270 C284 0.960 . S
H271 C284 0.960 . S
C272 H264 0.929 . S
C272 C273 1.377 . S
C272 C274 1.384 . S
C273 C272 1.377 . S
C273 C279 1.390 . S
C274 H265 0.930 1_565 S
C274 C272 1.384 . S
C274 C275 1.372 . S
C275 C274 1.372 . S
C275 C276 1.400 . S
C275 C280 1.490 1_565 S
C276 H266 0.930 . S
C276 C275 1.400 . S
C276 C279 1.386 . S
H277 C293 0.930 1_655 S
H278 C294 0.931 1_655 S
C279 H267 0.929 . S
C279 C273 1.390 . S
C279 C276 1.386 . S
C280 C275 1.490 1_545 S
C280 C282 1.395 . S
C280 C283 1.403 . S
H281 C287 0.930 . S
C282 H268 0.930 . S
C282 C280 1.395 . S
C282 C285 1.403 . S
C283 C280 1.403 . S
C283 C284 1.524 1_545 S
C283 C287 1.400 . S
C284 H269 0.960 . S
C284 H270 0.960 . S
C284 H271 0.960 . S
C284 C283 1.524 1_565 S
C285 C282 1.403 . S
C285 C286 1.392 . S
C285 C289 1.495 . S
C286 C285 1.392 . S
C286 C287 1.385 . S
C286 C288 1.478 . S
C287 H281 0.930 . S
C287 C283 1.400 . S
C287 C286 1.385 . S
C288 C286 1.478 . S
C288 C290 1.381 . S
C288 C294 1.383 . S
C289 C285 1.495 . S
C289 H295 0.959 . S
C289 H296 0.961 1_455 S
C289 H297 0.960 . S
C290 C288 1.381 . S
C290 C291 1.394 . S
C290 H298 0.930 . S
C291 C290 1.394 . S
C291 C292 1.383 . S
C291 H299 0.929 . S
C292 C291 1.383 . S
C292 C293 1.377 . S
C293 H277 0.930 1_455 S
C293 C292 1.377 . S
C293 C294 1.379 . S
C294 H278 0.931 1_455 S
C294 C288 1.383 . S
C294 C293 1.379 . S
H295 C289 0.959 . S
H296 C289 0.961 1_655 S
H297 C289 0.960 . S
H298 C290 0.930 . S
H299 C291 0.929 . S
H300 C308 0.929 . S
H301 C310 0.930 . S
H302 C312 0.930 . S
H303 C315 0.929 . S
H304 C318 0.910 1_655 S
H305 C320 0.960 . S
H306 C320 0.960 . S
H307 C320 0.960 . S
C308 H300 0.929 . S
C308 C309 1.377 . S
C308 C310 1.384 . S
C309 C308 1.377 . S
C309 C315 1.390 . S
C310 H301 0.930 . S
C310 C308 1.384 . S
C310 C311 1.372 . S
C311 C310 1.372 . S
C311 C312 1.400 . S
C311 C316 1.490 1_655 S
C312 H302 0.930 . S
C312 C311 1.400 . S
C312 C315 1.386 . S
H313 C329 0.930 . S
H314 C330 0.931 . S
C315 H303 0.929 . S
C315 C309 1.390 . S
C315 C312 1.386 . S
C316 C311 1.490 1_455 S
C316 C318 1.400 1_554 S
C316 C319 1.403 . S
H317 C323 0.930 . S
C318 H304 0.910 1_455 S
C318 C316 1.400 1_556 S
C318 C321 1.418 . S
C319 C316 1.403 . S
C319 C320 1.524 . S
C319 C323 1.400 . S
C320 H305 0.960 . S
C320 H306 0.960 . S
C320 H307 0.960 . S
C320 C319 1.524 . S
C321 C318 1.418 . S
C321 C322 1.392 . S
C321 C325 1.495 . S
C322 C321 1.392 . S
C322 C323 1.385 1_556 S
C322 C324 1.478 . S
C323 H317 0.930 . S
C323 C319 1.400 . S
C323 C322 1.385 1_554 S
C324 C322 1.478 . S
C324 C326 1.381 . S
C324 C330 1.383 . S
C325 C321 1.495 . S
C325 H331 0.959 1_455 S
C325 H332 0.961 . S
C325 H333 0.960 . S
C326 C324 1.381 . S
C326 C327 1.394 . S
C326 H334 0.930 . S
C327 C326 1.394 . S
C327 C328 1.383 . S
C327 H335 0.929 . S
C328 C327 1.383 . S
C328 C329 1.377 . S
C329 H313 0.930 . S
C329 C328 1.377 . S
C329 C330 1.379 . S
C330 H314 0.931 . S
C330 C324 1.383 . S
C330 C329 1.379 . S
H331 C325 0.959 1_655 S
H332 C325 0.961 . S
H333 C325 0.960 . S
H334 C326 0.930 . S
H335 C327 0.929 . S
H336 C344 0.929 . S
H337 C346 0.930 . S
H338 C348 0.930 . S
H339 C351 0.929 . S
H340 C354 0.930 . S
H341 C356 0.960 . S
H342 C356 0.960 . S
H343 C356 0.960 . S
C344 H336 0.929 . S
C344 C345 1.377 . S
C344 C346 1.384 . S
C345 C344 1.377 . S
C345 C351 1.390 . S
C346 H337 0.930 . S
C346 C344 1.384 . S
C346 C347 1.372 . S
C347 C346 1.372 . S
C347 C348 1.400 . S
C347 C352 1.490 . S
C348 H338 0.930 . S
C348 C347 1.400 . S
C348 C351 1.386 . S
H349 C365 0.930 . S
H350 C366 0.931 . S
C351 H339 0.929 . S
C351 C345 1.390 . S
C351 C348 1.386 . S
C352 C347 1.490 . S
C352 C354 1.395 . S
C352 C355 1.403 . S
H353 C359 0.930 . S
C354 H340 0.930 . S
C354 C352 1.395 . S
C354 C357 1.403 . S
C355 C352 1.403 . S
C355 C356 1.524 . S
C355 C359 1.400 . S
C356 H341 0.960 . S
C356 H342 0.960 . S
C356 H343 0.960 . S
C356 C355 1.524 . S
C357 C354 1.403 . S
C357 C358 1.392 . S
C357 C361 1.495 . S
C358 C357 1.392 . S
C358 C359 1.385 . S
C358 C360 1.478 . S
C359 H353 0.930 . S
C359 C355 1.400 . S
C359 C358 1.385 . S
C360 C358 1.478 . S
C360 C362 1.381 . S
C360 C366 1.383 . S
C361 C357 1.495 . S
C361 H367 0.959 . S
C361 H368 0.961 . S
C361 H369 0.960 . S
C362 C360 1.381 . S
C362 C363 1.394 . S
C362 H370 0.930 . S
C363 C362 1.394 . S
C363 C364 1.383 . S
C363 H371 0.929 . S
C364 C363 1.383 . S
C364 C365 1.377 . S
C365 H349 0.930 . S
C365 C364 1.377 . S
C365 C366 1.379 . S
C366 H350 0.931 . S
C366 C360 1.383 . S
C366 C365 1.379 . S
H367 C361 0.959 . S
H368 C361 0.961 . S
H369 C361 0.960 . S
H370 C362 0.930 . S
H371 C363 0.929 . S
H372 C380 0.929 . S
H373 C382 0.930 . S
H374 C384 0.930 1_565 S
H375 C387 0.929 1_565 S
H376 C390 0.930 . S
H377 C392 0.960 . S
H378 C392 0.960 . S
H379 C392 0.960 1_565 S
C380 H372 0.929 . S
C380 C381 1.377 . S
C380 C382 1.384 . S
C381 C380 1.377 . S
C381 C387 1.390 . S
C382 H373 0.930 . S
C382 C380 1.384 . S
C382 C383 1.372 . S
C383 C382 1.372 . S
C383 C384 1.400 . S
C383 C388 1.490 . S
C384 H374 0.930 1_545 S
C384 C383 1.400 . S
C384 C387 1.386 . S
H385 C401 0.930 1_565 S
H386 C402 0.931 1_565 S
C387 H375 0.929 1_545 S
C387 C381 1.390 . S
C387 C384 1.386 . S
C388 C383 1.490 . S
C388 C390 1.395 1_556 S
C388 C391 1.403 . S
H389 C395 0.930 . S
C390 H376 0.930 . S
C390 C388 1.395 1_554 S
C390 C393 1.403 . S
C391 C388 1.403 . S
C391 C392 1.524 . S
C391 C395 1.400 . S
C392 H377 0.960 . S
C392 H378 0.960 . S
C392 H379 0.960 1_545 S
C392 C391 1.524 . S
C393 C390 1.403 . S
C393 C394 1.392 . S
C393 C397 1.495 . S
C394 C393 1.392 . S
C394 C395 1.385 1_554 S
C394 C396 1.478 . S
C395 H389 0.930 . S
C395 C391 1.400 . S
C395 C394 1.385 1_556 S
C396 C394 1.478 . S
C396 C398 1.381 . S
C396 C402 1.383 . S
C397 C393 1.495 . S
C397 H403 0.959 . S
C397 H404 0.961 . S
C397 H405 0.960 . S
C398 C396 1.381 . S
C398 C399 1.394 . S
C398 H406 0.930 . S
C399 C398 1.394 . S
C399 C400 1.383 . S
C399 H407 0.929 . S
C400 C399 1.383 . S
C400 C401 1.377 . S
C401 H385 0.930 1_545 S
C401 C400 1.377 . S
C401 C402 1.379 . S
C402 H386 0.931 1_545 S
C402 C396 1.383 . S
C402 C401 1.379 . S
H403 C397 0.959 . S
H404 C397 0.961 . S
H405 C397 0.960 . S
H406 C398 0.930 . S
H407 C399 0.929 . S
H408 C416 0.929 . S
H409 C418 0.930 . S
H410 C420 0.930 . S
H411 C423 0.929 . S
H412 C426 0.930 . S
H413 C428 0.960 . S
H414 C428 0.960 . S
H415 C428 0.960 . S
C416 H408 0.929 . S
C416 C417 1.377 . S
C416 C418 1.384 . S
C417 C416 1.377 . S
C417 C423 1.390 . S
C418 H409 0.930 . S
C418 C416 1.384 . S
C418 C419 1.372 . S
C419 C418 1.372 . S
C419 C420 1.400 . S
C419 C424 1.490 . S
C420 H410 0.930 . S
C420 C419 1.400 . S
C420 C423 1.386 . S
H421 C437 0.930 . S
H422 C438 0.931 . S
C423 H411 0.929 . S
C423 C417 1.390 . S
C423 C420 1.386 . S
C424 C419 1.490 . S
C424 C426 1.395 . S
C424 C427 1.403 . S
H425 C431 0.930 . S
C426 H412 0.930 . S
C426 C424 1.395 . S
C426 C429 1.403 . S
C427 C424 1.403 . S
C427 C428 1.524 . S
C427 C431 1.400 . S
C428 H413 0.960 . S
C428 H414 0.960 . S
C428 H415 0.960 . S
C428 C427 1.524 . S
C429 C426 1.403 . S
C429 C430 1.392 . S
C429 C433 1.495 . S
C430 C429 1.392 . S
C430 C431 1.385 . S
C430 C432 1.478 . S
C431 H425 0.930 . S
C431 C427 1.400 . S
C431 C430 1.385 . S
C432 C430 1.478 . S
C432 C434 1.381 . S
C432 C438 1.383 . S
C433 C429 1.495 . S
C433 H439 0.959 . S
C433 H440 0.961 . S
C433 H441 0.960 . S
C434 C432 1.381 . S
C434 C435 1.394 . S
C434 H442 0.930 . S
C435 C434 1.394 . S
C435 C436 1.383 . S
C435 H443 0.929 . S
C436 C435 1.383 . S
C436 C437 1.377 . S
C437 H421 0.930 . S
C437 C436 1.377 . S
C437 C438 1.379 . S
C438 H422 0.931 . S
C438 C432 1.383 . S
C438 C437 1.379 . S
H439 C433 0.959 . S
H440 C433 0.961 . S
H441 C433 0.960 . S
H442 C434 0.930 . S
H443 C435 0.929 . S
H444 C452 0.929 . S
H445 C454 0.930 . S
H446 C456 0.930 . S
H447 C459 0.929 . S
H448 C462 0.930 . S
H449 C464 0.960 . S
H450 C464 0.960 . S
H451 C464 0.960 . S
C452 H444 0.929 . S
C452 C453 1.377 . S
C452 C454 1.384 . S
C453 C452 1.377 . S
C453 C459 1.390 1_455 S
C454 H445 0.930 . S
C454 C452 1.384 . S
C454 C455 1.372 1_455 S
C455 C454 1.372 1_655 S
C455 C456 1.400 . S
C455 C460 1.490 . S
C456 H446 0.930 . S
C456 C455 1.400 . S
C456 C459 1.386 . S
H457 C473 0.930 . S
H458 C474 0.931 . S
C459 H447 0.929 . S
C459 C453 1.390 1_655 S
C459 C456 1.386 . S
C460 C455 1.490 . S
C460 C462 1.395 . S
C460 C463 1.403 . S
H461 C467 0.930 . S
C462 H448 0.930 . S
C462 C460 1.395 . S
C462 C465 1.403 . S
C463 C460 1.403 . S
C463 C464 1.524 . S
C463 C467 1.400 . S
C464 H449 0.960 . S
C464 H450 0.960 . S
C464 H451 0.960 . S
C464 C463 1.524 . S
C465 C462 1.403 . S
C465 C466 1.392 . S
C465 C469 1.495 . S
C466 C465 1.392 . S
C466 C467 1.385 . S
C466 C468 1.478 . S
C467 H461 0.930 . S
C467 C463 1.400 . S
C467 C466 1.385 . S
C468 C466 1.478 . S
C468 C470 1.381 . S
C468 C474 1.383 . S
C469 C465 1.495 . S
C469 H475 0.959 . S
C469 H476 0.961 . S
C469 H477 0.960 . S
C470 C468 1.381 . S
C470 C471 1.394 . S
C470 H478 0.930 . S
C471 C470 1.394 . S
C471 C472 1.383 . S
C471 H479 0.929 . S
C472 C471 1.383 . S
C472 C473 1.377 . S
C473 H457 0.930 . S
C473 C472 1.377 . S
C473 C474 1.379 . S
C474 H458 0.931 . S
C474 C468 1.383 . S
C474 C473 1.379 . S
H475 C469 0.959 . S
H476 C469 0.961 . S
H477 C469 0.960 . S
H478 C470 0.930 . S
H479 C471 0.929 . S
H480 C488 0.929 . S
H481 C490 0.930 . S
H482 C492 0.930 . S
H483 C495 0.929 . S
H484 C498 0.930 . S
H485 C500 0.960 . S
H486 C500 0.960 . S
H487 C500 0.960 . S
C488 H480 0.929 . S
C488 C489 1.377 . S
C488 C490 1.384 . S
C489 C488 1.377 . S
C489 C495 1.390 . S
C490 H481 0.930 . S
C490 C488 1.384 . S
C490 C491 1.372 . S
C491 C490 1.372 . S
C491 C492 1.400 . S
C491 C496 1.490 . S
C492 H482 0.930 . S
C492 C491 1.400 . S
C492 C495 1.386 . S
H493 C509 0.930 . S
H494 C510 0.931 . S
C495 H483 0.929 . S
C495 C489 1.390 . S
C495 C492 1.386 . S
C496 C491 1.490 . S
C496 C498 1.395 . S
C496 C499 1.403 . S
H497 C503 0.930 . S
C498 H484 0.930 . S
C498 C496 1.395 . S
C498 C501 1.403 . S
C499 C496 1.403 . S
C499 C500 1.524 . S
C499 C503 1.400 . S
C500 H485 0.960 . S
C500 H486 0.960 . S
C500 H487 0.960 . S
C500 C499 1.524 . S
C501 C498 1.403 . S
C501 C502 1.392 . S
C501 C505 1.495 . S
C502 C501 1.392 . S
C502 C503 1.385 . S
C502 C504 1.478 . S
C503 H497 0.930 . S
C503 C499 1.400 . S
C503 C502 1.385 . S
C504 C502 1.478 . S
C504 C506 1.381 . S
C504 C510 1.383 . S
C505 C501 1.495 . S
C505 H511 0.959 . S
C505 H512 0.961 . S
C505 H513 0.960 . S
C506 C504 1.381 . S
C506 C507 1.394 . S
C506 H514 0.930 . S
C507 C506 1.394 . S
C507 C508 1.383 . S
C507 H515 0.929 . S
C508 C507 1.383 . S
C508 C509 1.377 . S
C509 H493 0.930 . S
C509 C508 1.377 . S
C509 C510 1.379 . S
C510 H494 0.931 . S
C510 C504 1.383 . S
C510 C509 1.379 . S
H511 C505 0.959 . S
H512 C505 0.961 . S
H513 C505 0.960 . S
H514 C506 0.930 . S
H515 C507 0.929 . S
H516 C524 0.929 . S
H517 C526 0.930 . S
H518 C528 0.930 . S
H519 C531 0.929 . S
H520 C534 0.930 . S
H521 C536 0.960 . S
H522 C536 0.960 . S
H523 C536 0.960 . S
C524 H516 0.929 . S
C524 C525 1.377 . S
C524 C526 1.384 . S
C525 C524 1.377 . S
C525 C531 1.390 . S
C526 H517 0.930 . S
C526 C524 1.384 . S
C526 C527 1.372 . S
C527 C526 1.372 . S
C527 C528 1.400 . S
C527 C532 1.490 . S
C528 H518 0.930 . S
C528 C527 1.400 . S
C528 C531 1.386 . S
H529 C545 0.930 . S
H530 C546 0.931 . S
C531 H519 0.929 . S
C531 C525 1.390 . S
C531 C528 1.386 . S
C532 C527 1.490 . S
C532 C534 1.395 . S
C532 C535 1.403 . S
H533 C539 0.930 . S
C534 H520 0.930 . S
C534 C532 1.395 . S
C534 C537 1.403 . S
C535 C532 1.403 . S
C535 C536 1.524 . S
C535 C539 1.400 . S
C536 H521 0.960 . S
C536 H522 0.960 . S
C536 H523 0.960 . S
C536 C535 1.524 . S
C537 C534 1.403 . S
C537 C538 1.392 . S
C537 C541 1.495 . S
C538 C537 1.392 . S
C538 C539 1.385 . S
C538 C540 1.478 . S
C539 H533 0.930 . S
C539 C535 1.400 . S
C539 C538 1.385 . S
C540 C538 1.478 . S
C540 C542 1.381 . S
C540 C546 1.383 . S
C541 C537 1.495 . S
C541 H547 0.959 . S
C541 H548 0.961 . S
C541 H549 0.960 . S
C542 C540 1.381 . S
C542 C543 1.394 . S
C542 H550 0.930 . S
C543 C542 1.394 . S
C543 C544 1.383 . S
C543 H551 0.929 . S
C544 C543 1.383 . S
C544 C545 1.377 . S
C545 H529 0.930 . S
C545 C544 1.377 . S
C545 C546 1.379 . S
C546 H530 0.931 . S
C546 C540 1.383 . S
C546 C545 1.379 . S
H547 C541 0.959 . S
H548 C541 0.961 . S
H549 C541 0.960 . S
H550 C542 0.930 . S
H551 C543 0.929 . S
H552 C560 0.929 . S
H553 C562 0.930 . S
H554 C564 0.930 . S
H555 C567 0.936 . S
H556 C570 0.930 . S
H557 C572 0.958 1_455 S
H558 C572 0.956 1_455 S
H559 C572 0.959 1_455 S
C560 H552 0.929 . S
C560 C561 1.377 . S
C560 C562 1.384 . S
C561 C560 1.377 . S
C561 C567 1.390 . S
C562 H553 0.930 . S
C562 C560 1.384 . S
C562 C563 1.372 . S
C563 C562 1.372 . S
C563 C564 1.400 . S
C563 C568 1.490 . S
C564 H554 0.930 . S
C564 C563 1.400 . S
C564 C567 1.386 . S
H565 C581 0.930 . S
H566 C582 0.931 . S
C567 H555 0.936 . S
C567 C561 1.390 . S
C567 C564 1.386 . S
C568 C563 1.490 . S
C568 C570 1.395 . S
C568 C571 1.403 . S
H569 C575 0.930 . S
C570 H556 0.930 . S
C570 C568 1.395 . S
C570 C573 1.403 . S
C571 C568 1.403 . S
C571 C572 1.531 . S
C571 C575 1.400 . S
C572 H557 0.958 1_655 S
C572 H558 0.956 1_655 S
C572 H559 0.959 1_655 S
C572 C571 1.531 . S
C573 C570 1.403 . S
C573 C574 1.392 . S
C573 C577 1.495 . S
C574 C573 1.392 . S
C574 C575 1.385 . S
C574 C576 1.478 . S
C575 H569 0.930 . S
C575 C571 1.400 . S
C575 C574 1.385 . S
C576 C574 1.478 . S
C576 C578 1.381 . S
C576 C582 1.383 1_565 S
C577 C573 1.495 . S
C577 H583 0.959 . S
C577 H584 0.961 . S
C577 H585 0.960 . S
C578 C576 1.381 . S
C578 C579 1.394 . S
C578 H586 0.930 . S
C579 C578 1.394 . S
C579 C580 1.383 1_565 S
C579 H587 0.929 . S
C580 C579 1.383 1_545 S
C580 C581 1.377 . S
C581 H565 0.930 . S
C581 C580 1.377 . S
C581 C582 1.379 . S
C582 H566 0.931 . S
C582 C576 1.383 1_545 S
C582 C581 1.379 . S
H583 C577 0.959 . S
H584 C577 0.961 . S
H585 C577 0.960 . S
H586 C578 0.930 . S
H587 C579 0.929 . S
H588 C596 0.929 . S
H589 C598 0.930 . S
H590 C600 0.930 . S
H591 C603 0.929 . S
H592 C606 0.930 . S
H593 C608 0.960 . S
H594 C608 0.960 . S
H595 C608 0.960 . S
C596 H588 0.929 . S
C596 C597 1.377 . S
C596 C598 1.384 . S
C597 C596 1.377 . S
C597 C603 1.390 . S
C598 H589 0.930 . S
C598 C596 1.384 . S
C598 C599 1.372 . S
C599 C598 1.372 . S
C599 C600 1.400 . S
C599 C604 1.490 . S
C600 H590 0.930 . S
C600 C599 1.400 . S
C600 C603 1.386 . S
H601 C617 0.930 . S
H602 C618 0.931 . S
C603 H591 0.929 . S
C603 C597 1.390 . S
C603 C600 1.386 . S
C604 C599 1.490 . S
C604 C606 1.395 . S
C604 C607 1.403 . S
H605 C611 0.930 . S
C606 H592 0.930 . S
C606 C604 1.395 . S
C606 C609 1.403 . S
C607 C604 1.403 . S
C607 C608 1.524 . S
C607 C611 1.400 . S
C608 H593 0.960 . S
C608 H594 0.960 . S
C608 H595 0.960 . S
C608 C607 1.524 . S
C609 C606 1.403 . S
C609 C610 1.392 . S
C609 C613 1.495 . S
C610 C609 1.392 . S
C610 C611 1.385 . S
C610 C612 1.478 . S
C611 H605 0.930 . S
C611 C607 1.400 . S
C611 C610 1.385 . S
C612 C610 1.478 . S
C612 C614 1.381 . S
C612 C618 1.383 . S
C613 C609 1.495 . S
C613 H619 0.959 . S
C613 H620 0.961 . S
C613 H621 0.960 . S
C614 C612 1.381 . S
C614 C615 1.394 . S
C614 H622 0.930 . S
C615 C614 1.394 . S
C615 C616 1.383 . S
C615 H623 0.929 . S
C616 C615 1.383 . S
C616 C617 1.377 . S
C617 H601 0.930 . S
C617 C616 1.377 . S
C617 C618 1.379 . S
C618 H602 0.931 . S
C618 C612 1.383 . S
C618 C617 1.379 . S
H619 C613 0.959 . S
H620 C613 0.961 . S
H621 C613 0.960 . S
H622 C614 0.930 . S
H623 C615 0.929 . S
H624 C632 0.929 . S
H625 C634 0.930 . S
H626 C636 0.930 . S
H627 C639 0.929 . S
H628 C642 0.930 . S
H629 C644 0.960 . S
H630 C644 0.960 . S
H631 C644 0.960 . S
C632 H624 0.929 . S
C632 C633 1.377 . S
C632 C634 1.384 . S
C633 C632 1.377 . S
C633 C639 1.390 . S
C634 H625 0.930 . S
C634 C632 1.384 . S
C634 C635 1.372 . S
C635 C634 1.372 . S
C635 C636 1.400 . S
C635 C640 1.490 . S
C636 H626 0.930 . S
C636 C635 1.400 . S
C636 C639 1.386 . S
H637 C653 0.930 . S
H638 C654 0.931 . S
C639 H627 0.929 . S
C639 C633 1.390 . S
C639 C636 1.386 . S
C640 C635 1.490 . S
C640 C642 1.395 . S
C640 C643 1.403 . S
H641 C647 0.930 . S
C642 H628 0.930 . S
C642 C640 1.395 . S
C642 C645 1.403 . S
C643 C640 1.403 . S
C643 C644 1.524 . S
C643 C647 1.400 . S
C644 H629 0.960 . S
C644 H630 0.960 . S
C644 H631 0.960 . S
C644 C643 1.524 . S
C645 C642 1.403 . S
C645 C646 1.392 . S
C645 C649 1.495 . S
C646 C645 1.392 . S
C646 C647 1.385 . S
C646 C648 1.478 . S
C647 H641 0.930 . S
C647 C643 1.400 . S
C647 C646 1.385 . S
C648 C646 1.478 . S
C648 C650 1.381 . S
C648 C654 1.383 . S
C649 C645 1.495 . S
C649 H655 0.959 . S
C649 H656 0.961 . S
C649 H657 0.960 . S
C650 C648 1.381 . S
C650 C651 1.394 . S
C650 H658 0.930 . S
C651 C650 1.394 . S
C651 C652 1.383 . S
C651 H659 0.929 . S
C652 C651 1.383 . S
C652 C653 1.377 . S
C653 H637 0.930 . S
C653 C652 1.377 . S
C653 C654 1.379 . S
C654 H638 0.931 . S
C654 C648 1.383 . S
C654 C653 1.379 . S
H655 C649 0.959 . S
H656 C649 0.961 . S
H657 C649 0.960 . S
H658 C650 0.930 . S
H659 C651 0.929 . S
H660 C668 0.929 . S
H661 C670 0.930 . S
H662 C672 0.930 . S
H663 C675 0.929 . S
H664 C678 0.930 . S
H665 C680 0.960 . S
H666 C680 0.960 . S
H667 C680 0.960 . S
C668 H660 0.929 . S
C668 C669 1.377 . S
C668 C670 1.384 . S
C669 C668 1.377 . S
C669 C675 1.390 . S
C670 H661 0.930 . S
C670 C668 1.384 . S
C670 C671 1.372 . S
C671 C670 1.372 . S
C671 C672 1.400 . S
C671 C676 1.490 . S
C672 H662 0.930 . S
C672 C671 1.400 . S
C672 C675 1.386 . S
H673 C689 0.930 . S
H674 C690 0.931 . S
C675 H663 0.929 . S
C675 C669 1.390 . S
C675 C672 1.386 . S
C676 C671 1.490 . S
C676 C678 1.395 . S
C676 C679 1.403 . S
H677 C683 0.930 . S
C678 H664 0.930 . S
C678 C676 1.395 . S
C678 C681 1.403 . S
C679 C676 1.403 . S
C679 C680 1.524 . S
C679 C683 1.400 . S
C680 H665 0.960 . S
C680 H666 0.960 . S
C680 H667 0.960 . S
C680 C679 1.524 . S
C681 C678 1.403 . S
C681 C682 1.392 . S
C681 C685 1.495 . S
C682 C681 1.392 . S
C682 C683 1.385 . S
C682 C684 1.478 . S
C683 H677 0.930 . S
C683 C679 1.400 . S
C683 C682 1.385 . S
C684 C682 1.478 . S
C684 C686 1.381 . S
C684 C690 1.383 . S
C685 C681 1.495 . S
C685 H691 0.959 . S
C685 H692 0.961 . S
C685 H693 0.960 . S
C686 C684 1.381 . S
C686 C687 1.394 . S
C686 H694 0.930 . S
C687 C686 1.394 . S
C687 C688 1.383 . S
C687 H695 0.929 . S
C688 C687 1.383 . S
C688 C689 1.377 . S
C689 H673 0.930 . S
C689 C688 1.377 . S
C689 C690 1.379 . S
C690 H674 0.931 . S
C690 C684 1.383 . S
C690 C689 1.379 . S
H691 C685 0.959 . S
H692 C685 0.961 . S
H693 C685 0.960 . S
H694 C686 0.930 . S
H695 C687 0.929 . S
H696 C704 0.929 . S
H697 C706 0.930 . S
H698 C708 0.930 . S
H699 C711 0.929 . S
H700 C714 0.930 . S
H701 C716 0.960 . S
H702 C716 0.960 . S
H703 C716 0.960 . S
C704 H696 0.929 . S
C704 C705 1.377 . S
C704 C706 1.384 . S
C705 C704 1.377 . S
C705 C711 1.390 . S
C706 H697 0.930 . S
C706 C704 1.384 . S
C706 C707 1.372 . S
C707 C706 1.372 . S
C707 C708 1.400 . S
C707 C712 1.490 . S
C708 H698 0.930 . S
C708 C707 1.400 . S
C708 C711 1.386 . S
H709 C725 0.930 . S
H710 C726 0.931 . S
C711 H699 0.929 . S
C711 C705 1.390 . S
C711 C708 1.386 . S
C712 C707 1.490 . S
C712 C714 1.395 . S
C712 C715 1.403 . S
H713 C719 0.930 . S
C714 H700 0.930 . S
C714 C712 1.395 . S
C714 C717 1.403 . S
C715 C712 1.403 . S
C715 C716 1.524 . S
C715 C719 1.400 . S
C716 H701 0.960 . S
C716 H702 0.960 . S
C716 H703 0.960 . S
C716 C715 1.524 . S
C717 C714 1.403 . S
C717 C718 1.392 . S
C717 C721 1.495 . S
C718 C717 1.392 . S
C718 C719 1.385 . S
C718 C720 1.478 . S
C719 H713 0.930 . S
C719 C715 1.400 . S
C719 C718 1.385 . S
C720 C718 1.478 . S
C720 C722 1.381 . S
C720 C726 1.383 . S
C721 C717 1.495 . S
C721 H727 0.959 . S
C721 H728 0.961 . S
C721 H729 0.960 . S
C722 C720 1.381 . S
C722 C723 1.394 . S
C722 H730 0.930 . S
C723 C722 1.394 . S
C723 C724 1.383 . S
C723 H731 0.929 . S
C724 C723 1.383 . S
C724 C725 1.377 . S
C725 H709 0.930 . S
C725 C724 1.377 . S
C725 C726 1.379 . S
C726 H710 0.931 . S
C726 C720 1.383 . S
C726 C725 1.379 . S
H727 C721 0.959 . S
H728 C721 0.961 . S
H729 C721 0.960 . S
H730 C722 0.930 . S
H731 C723 0.929 . S
H732 C740 0.929 . S
H733 C742 0.930 . S
H734 C744 0.930 . S
H735 C747 0.929 . S
H736 C750 0.930 . S
H737 C752 0.960 . S
H738 C752 0.960 . S
H739 C752 0.960 . S
C740 H732 0.929 . S
C740 C741 1.377 . S
C740 C742 1.384 . S
C741 C740 1.377 . S
C741 C747 1.390 . S
C742 H733 0.930 . S
C742 C740 1.384 . S
C742 C743 1.372 . S
C743 C742 1.372 . S
C743 C744 1.400 . S
C743 C748 1.490 . S
C744 H734 0.930 . S
C744 C743 1.400 . S
C744 C747 1.386 . S
H745 C761 0.930 . S
H746 C762 0.931 . S
C747 H735 0.929 . S
C747 C741 1.390 . S
C747 C744 1.386 . S
C748 C743 1.490 . S
C748 C750 1.395 . S
C748 C751 1.403 . S
H749 C755 0.930 . S
C750 H736 0.930 . S
C750 C748 1.395 . S
C750 C753 1.403 . S
C751 C748 1.403 . S
C751 C752 1.524 . S
C751 C755 1.400 . S
C752 H737 0.960 . S
C752 H738 0.960 . S
C752 H739 0.960 . S
C752 C751 1.524 . S
C753 C750 1.403 . S
C753 C754 1.392 . S
C753 C757 1.495 . S
C754 C753 1.392 . S
C754 C755 1.385 . S
C754 C756 1.478 . S
C755 H749 0.930 . S
C755 C751 1.400 . S
C755 C754 1.385 . S
C756 C754 1.478 . S
C756 C758 1.381 . S
C756 C762 1.383 . S
C757 C753 1.495 . S
C757 H763 0.959 . S
C757 H764 0.961 . S
C757 H765 0.960 . S
C758 C756 1.381 . S
C758 C759 1.394 . S
C758 H766 0.930 . S
C759 C758 1.394 . S
C759 C760 1.383 . S
C759 H767 0.929 . S
C760 C759 1.383 . S
C760 C761 1.377 . S
C761 H745 0.930 . S
C761 C760 1.377 . S
C761 C762 1.379 . S
C762 H746 0.931 . S
C762 C756 1.383 . S
C762 C761 1.379 . S
H763 C757 0.959 . S
H764 C757 0.961 . S
H765 C757 0.960 . S
H766 C758 0.930 . S
H767 C759 0.929 . S
H768 C776 0.929 . S
H769 C778 0.930 . S
H770 C780 0.930 . S
H771 C783 0.929 . S
H772 C786 0.930 . S
H773 C788 0.960 . S
H774 C788 0.960 . S
H775 C788 0.960 . S
C776 H768 0.929 . S
C776 C777 1.377 . S
C776 C778 1.384 . S
C777 C776 1.377 . S
C777 C783 1.390 . S
C778 H769 0.930 . S
C778 C776 1.384 . S
C778 C779 1.372 . S
C779 C778 1.372 . S
C779 C780 1.400 . S
C779 C784 1.490 . S
C780 H770 0.930 . S
C780 C779 1.400 . S
C780 C783 1.386 . S
H781 C797 0.930 . S
H782 C798 0.931 . S
C783 H771 0.929 . S
C783 C777 1.390 . S
C783 C780 1.386 . S
C784 C779 1.490 . S
C784 C786 1.395 . S
C784 C787 1.403 . S
H785 C791 0.930 . S
C786 H772 0.930 . S
C786 C784 1.395 . S
C786 C789 1.403 . S
C787 C784 1.403 . S
C787 C788 1.524 . S
C787 C791 1.400 . S
C788 H773 0.960 . S
C788 H774 0.960 . S
C788 H775 0.960 . S
C788 C787 1.524 . S
C789 C786 1.403 . S
C789 C790 1.392 . S
C789 C793 1.495 . S
C790 C789 1.392 . S
C790 C791 1.385 . S
C790 C792 1.478 . S
C791 H785 0.930 . S
C791 C787 1.400 . S
C791 C790 1.385 . S
C792 C790 1.478 . S
C792 C794 1.381 . S
C792 C798 1.383 . S
C793 C789 1.495 . S
C793 H799 0.959 . S
C793 H800 0.961 . S
C793 H801 0.960 . S
C794 C792 1.381 . S
C794 C795 1.394 . S
C794 H802 0.930 . S
C795 C794 1.394 . S
C795 C796 1.383 . S
C795 H803 0.929 . S
C796 C795 1.383 . S
C796 C797 1.377 . S
C797 H781 0.930 . S
C797 C796 1.377 . S
C797 C798 1.379 . S
C798 H782 0.931 . S
C798 C792 1.383 . S
C798 C797 1.379 . S
H799 C793 0.959 . S
H800 C793 0.961 . S
H801 C793 0.960 . S
H802 C794 0.930 . S
H803 C795 0.929 . S
H804 C812 0.929 . S
H805 C814 0.930 . S
H806 C816 0.930 . S
H807 C819 0.929 . S
H808 C822 0.930 . S
H809 C824 0.960 . S
H810 C824 0.960 . S
H811 C824 0.960 . S
C812 H804 0.929 . S
C812 C813 1.377 . S
C812 C814 1.384 . S
C813 C812 1.377 . S
C813 C819 1.390 . S
C814 H805 0.930 . S
C814 C812 1.384 . S
C814 C815 1.372 . S
C815 C814 1.372 . S
C815 C816 1.400 . S
C815 C820 1.490 . S
C816 H806 0.930 . S
C816 C815 1.400 . S
C816 C819 1.386 . S
H817 C833 0.930 . S
H818 C834 0.931 . S
C819 H807 0.929 . S
C819 C813 1.390 . S
C819 C816 1.386 . S
C820 C815 1.490 . S
C820 C822 1.395 . S
C820 C823 1.403 . S
H821 C827 0.930 . S
C822 H808 0.930 . S
C822 C820 1.395 . S
C822 C825 1.403 . S
C823 C820 1.403 . S
C823 C824 1.524 . S
C823 C827 1.400 . S
C824 H809 0.960 . S
C824 H810 0.960 . S
C824 H811 0.960 . S
C824 C823 1.524 . S
C825 C822 1.403 . S
C825 C826 1.392 . S
C825 C829 1.495 . S
C826 C825 1.392 . S
C826 C827 1.385 . S
C826 C828 1.478 . S
C827 H821 0.930 . S
C827 C823 1.400 . S
C827 C826 1.385 . S
C828 C826 1.478 . S
C828 C830 1.381 . S
C828 C834 1.383 . S
C829 C825 1.495 . S
C829 H835 0.959 . S
C829 H836 0.961 . S
C829 H837 0.960 . S
C830 C828 1.381 . S
C830 C831 1.394 . S
C830 H838 0.930 . S
C831 C830 1.394 . S
C831 C832 1.383 . S
C831 H839 0.929 . S
C832 C831 1.383 . S
C832 C833 1.377 . S
C833 H817 0.930 . S
C833 C832 1.377 . S
C833 C834 1.379 . S
C834 H818 0.931 . S
C834 C828 1.383 . S
C834 C833 1.379 . S
H835 C829 0.959 . S
H836 C829 0.961 . S
H837 C829 0.960 . S
H838 C830 0.930 . S
H839 C831 0.929 . S
H840 C848 0.929 . S
H841 C850 0.930 . S
H842 C852 0.930 . S
H843 C855 0.929 . S
H844 C858 0.930 . S
H845 C860 0.960 . S
H846 C860 0.960 . S
H847 C860 0.960 . S
C848 H840 0.929 . S
C848 C849 1.377 . S
C848 C850 1.384 . S
C849 C848 1.377 . S
C849 C855 1.390 . S
C850 H841 0.930 . S
C850 C848 1.384 . S
C850 C851 1.372 . S
C851 C850 1.372 . S
C851 C852 1.400 . S
C851 C856 1.490 . S
C852 H842 0.930 . S
C852 C851 1.400 . S
C852 C855 1.386 . S
H853 C869 0.930 . S
H854 C870 0.931 . S
C855 H843 0.929 . S
C855 C849 1.390 . S
C855 C852 1.386 . S
C856 C851 1.490 . S
C856 C858 1.395 . S
C856 C859 1.403 . S
H857 C863 0.930 . S
C858 H844 0.930 . S
C858 C856 1.395 . S
C858 C861 1.403 . S
C859 C856 1.403 . S
C859 C860 1.524 . S
C859 C863 1.400 . S
C860 H845 0.960 . S
C860 H846 0.960 . S
C860 H847 0.960 . S
C860 C859 1.524 . S
C861 C858 1.403 . S
C861 C862 1.392 . S
C861 C865 1.495 . S
C862 C861 1.392 . S
C862 C863 1.385 . S
C862 C864 1.478 . S
C863 H857 0.930 . S
C863 C859 1.400 . S
C863 C862 1.385 . S
C864 C862 1.478 . S
C864 C866 1.381 . S
C864 C870 1.383 . S
C865 C861 1.495 . S
C865 H871 0.959 . S
C865 H872 0.961 . S
C865 H873 0.960 . S
C866 C864 1.381 . S
C866 C867 1.394 . S
C866 H874 0.930 . S
C867 C866 1.394 . S
C867 C868 1.383 . S
C867 H875 0.929 . S
C868 C867 1.383 . S
C868 C869 1.377 . S
C869 H853 0.930 . S
C869 C868 1.377 . S
C869 C870 1.379 . S
C870 H854 0.931 . S
C870 C864 1.383 . S
C870 C869 1.379 . S
H871 C865 0.959 . S
H872 C865 0.961 . S
H873 C865 0.960 . S
H874 C866 0.930 . S
H875 C867 0.929 . S
H876 C884 0.929 . S
H877 C886 0.930 . S
H878 C888 0.930 . S
H879 C891 0.929 . S
H880 C894 0.930 . S
H881 C896 0.960 . S
H882 C896 0.960 . S
H883 C896 0.960 . S
C884 H876 0.929 . S
C884 C885 1.377 . S
C884 C886 1.384 . S
C885 C884 1.377 . S
C885 C891 1.390 . S
C886 H877 0.930 . S
C886 C884 1.384 . S
C886 C887 1.372 . S
C887 C886 1.372 . S
C887 C888 1.400 . S
C887 C892 1.490 . S
C888 H878 0.930 . S
C888 C887 1.400 . S
C888 C891 1.386 . S
H889 C905 0.930 . S
H890 C906 0.931 . S
C891 H879 0.929 . S
C891 C885 1.390 . S
C891 C888 1.386 . S
C892 C887 1.490 . S
C892 C894 1.395 . S
C892 C895 1.403 . S
H893 C899 0.930 . S
C894 H880 0.930 . S
C894 C892 1.395 . S
C894 C897 1.403 . S
C895 C892 1.403 . S
C895 C896 1.524 . S
C895 C899 1.400 . S
C896 H881 0.960 . S
C896 H882 0.960 . S
C896 H883 0.960 . S
C896 C895 1.524 . S
C897 C894 1.403 . S
C897 C898 1.392 . S
C897 C901 1.495 . S
C898 C897 1.392 . S
C898 C899 1.385 . S
C898 C900 1.478 . S
C899 H893 0.930 . S
C899 C895 1.400 . S
C899 C898 1.385 . S
C900 C898 1.478 . S
C900 C902 1.381 . S
C900 C906 1.383 . S
C901 C897 1.495 . S
C901 H907 0.959 . S
C901 H908 0.961 . S
C901 H909 0.960 . S
C902 C900 1.381 . S
C902 C903 1.394 . S
C902 H910 0.930 . S
C903 C902 1.394 . S
C903 C904 1.383 . S
C903 H911 0.929 . S
C904 C903 1.383 . S
C904 C905 1.377 . S
C905 H889 0.930 . S
C905 C904 1.377 . S
C905 C906 1.379 . S
C906 H890 0.931 . S
C906 C900 1.383 . S
C906 C905 1.379 . S
H907 C901 0.959 . S
H908 C901 0.961 . S
H909 C901 0.960 . S
H910 C902 0.930 . S
H911 C903 0.929 . S
H912 C920 0.929 . S
H913 C922 0.930 . S
H914 C924 0.930 . S
H915 C927 0.929 . S
H916 C930 0.930 . S
H917 C932 0.960 . S
H918 C932 0.960 . S
H919 C932 0.960 . S
C920 H912 0.929 . S
C920 C921 1.377 . S
C920 C922 1.384 . S
C921 C920 1.377 . S
C921 C927 1.390 . S
C922 H913 0.930 . S
C922 C920 1.384 . S
C922 C923 1.372 . S
C923 C922 1.372 . S
C923 C924 1.400 . S
C923 C928 1.490 . S
C924 H914 0.930 . S
C924 C923 1.400 . S
C924 C927 1.386 . S
H925 C941 0.930 . S
H926 C942 0.931 . S
C927 H915 0.929 . S
C927 C921 1.390 . S
C927 C924 1.386 . S
C928 C923 1.490 . S
C928 C930 1.395 . S
C928 C931 1.403 . S
H929 C935 0.930 . S
C930 H916 0.930 . S
C930 C928 1.395 . S
C930 C933 1.403 . S
C931 C928 1.403 . S
C931 C932 1.524 . S
C931 C935 1.400 . S
C932 H917 0.960 . S
C932 H918 0.960 . S
C932 H919 0.960 . S
C932 C931 1.524 . S
C933 C930 1.403 . S
C933 C934 1.392 . S
C933 C937 1.495 . S
C934 C933 1.392 . S
C934 C935 1.385 . S
C934 C936 1.478 . S
C935 H929 0.930 . S
C935 C931 1.400 . S
C935 C934 1.385 . S
C936 C934 1.478 . S
C936 C938 1.381 . S
C936 C942 1.383 . S
C937 C933 1.495 . S
C937 H943 0.959 . S
C937 H944 0.961 . S
C937 H945 0.960 . S
C938 C936 1.381 . S
C938 C939 1.394 . S
C938 H946 0.930 . S
C939 C938 1.394 . S
C939 C940 1.383 . S
C939 H947 0.929 . S
C940 C939 1.383 . S
C940 C941 1.377 . S
C941 H925 0.930 . S
C941 C940 1.377 . S
C941 C942 1.379 . S
C942 H926 0.931 . S
C942 C936 1.383 . S
C942 C941 1.379 . S
H943 C937 0.959 . S
H944 C937 0.961 . S
H945 C937 0.960 . S
H946 C938 0.930 . S
H947 C939 0.929 . S
H948 C956 0.929 . S
H949 C958 0.930 . S
H950 C960 0.930 . S
H951 C963 0.929 . S
H952 C966 0.930 . S
H953 C968 0.960 . S
H954 C968 0.960 . S
H955 C968 0.960 . S
C956 H948 0.929 . S
C956 C957 1.377 . S
C956 C958 1.384 . S
C957 C956 1.377 . S
C957 C963 1.390 . S
C958 H949 0.930 . S
C958 C956 1.384 . S
C958 C959 1.372 . S
C959 C958 1.372 . S
C959 C960 1.400 . S
C959 C964 1.490 . S
C960 H950 0.930 . S
C960 C959 1.400 . S
C960 C963 1.386 . S
H961 C977 0.930 . S
H962 C978 0.931 . S
C963 H951 0.929 . S
C963 C957 1.390 . S
C963 C960 1.386 . S
C964 C959 1.490 . S
C964 C966 1.395 . S
C964 C967 1.403 . S
H965 C971 0.930 . S
C966 H952 0.930 . S
C966 C964 1.395 . S
C966 C969 1.403 . S
C967 C964 1.403 . S
C967 C968 1.524 . S
C967 C971 1.400 . S
C968 H953 0.960 . S
C968 H954 0.960 . S
C968 H955 0.960 . S
C968 C967 1.524 . S
C969 C966 1.403 . S
C969 C970 1.392 . S
C969 C973 1.495 . S
C970 C969 1.392 . S
C970 C971 1.385 . S
C970 C972 1.478 . S
C971 H965 0.930 . S
C971 C967 1.400 . S
C971 C970 1.385 . S
C972 C970 1.478 . S
C972 C974 1.381 . S
C972 C978 1.383 . S
C973 C969 1.495 . S
C973 H979 0.959 . S
C973 H980 0.961 . S
C973 H981 0.960 . S
C974 C972 1.381 . S
C974 C975 1.394 . S
C974 H982 0.930 . S
C975 C974 1.394 . S
C975 C976 1.383 . S
C975 H983 0.929 . S
C976 C975 1.383 . S
C976 C977 1.377 . S
C977 H961 0.930 . S
C977 C976 1.377 . S
C977 C978 1.379 . S
C978 H962 0.931 . S
C978 C972 1.383 . S
C978 C977 1.379 . S
H979 C973 0.959 . S
H980 C973 0.961 . S
H981 C973 0.960 . S
H982 C974 0.930 . S
H983 C975 0.929 . S
C273 N145 1.633 . S
C292 N13 1.635 . S
C309 N46 1.632 . S
C328 N178 1.622 . S
C345 N79 1.627 . S
C364 N211 1.647 . S
C381 N244 1.623 . S
C400 N112 1.630 . S
C417 N233 0.430 . S
C436 C21 0.351 . S
C453 N134 0.404 . S
C472 C54 0.452 . S
C489 N167 0.435 . S
C508 C87 0.382 . S
C525 N200 0.435 . S
C544 C120 0.389 . S
C561 C153 0.422 . S
C580 N101 0.401 . S
C597 C186 0.431 . S
C616 N2 0.443 . S
C633 C219 0.443 . S
C652 N35 0.491 . S
C669 C252 0.425 . S
C688 N68 0.419 . S
C705 C18 1.476 . S
C724 C84 1.482 . S
C741 C51 1.472 . S
C760 C117 1.457 . S
C777 C216 1.473 . S
C796 C150 1.465 . S
C813 C249 1.475 . S
C832 C183 1.466 . S
C849 C73 0.664 . S
C868 C7 0.598 . S
C885 C40 0.652 . S
C904 C106 0.672 . S
C921 C205 0.670 . S
C940 C139 0.721 . S
C957 C238 0.666 . S
C976 C172 0.651 . S
