# Generated by pormake.
# Topology wkj, (6)-cn, num edge types: 1
# Building blocks:
#     Node 0, Type 0, BuildingBlock: UKALOJ_clean_sbu_0, # of connection points: 6
#     Node 1, Type 0, BuildingBlock: UKALOJ_clean_sbu_0, # of connection points: 6
#     Node 2, Type 0, BuildingBlock: UKALOJ_clean_sbu_0, # of connection points: 6
#     Node 3, Type 0, BuildingBlock: UKALOJ_clean_sbu_0, # of connection points: 6
#     Node 4, Type 0, BuildingBlock: UKALOJ_clean_sbu_0, # of connection points: 6
#     Node 5, Type 0, BuildingBlock: UKALOJ_clean_sbu_0, # of connection points: 6
#     Node 6, Type 0, BuildingBlock: UKALOJ_clean_sbu_0, # of connection points: 6
#     Node 7, Type 0, BuildingBlock: UKALOJ_clean_sbu_0, # of connection points: 6
#     Node 8, Type 0, BuildingBlock: UKALOJ_clean_sbu_0, # of connection points: 6
#     Node 9, Type 0, BuildingBlock: UKALOJ_clean_sbu_0, # of connection points: 6
#     Node 10, Type 0, BuildingBlock: UKALOJ_clean_sbu_0, # of connection points: 6
#     Node 11, Type 0, BuildingBlock: UKALOJ_clean_sbu_0, # of connection points: 6
#     Edge 12, Type (0, 0), BuildingBlock: KIFKEQ_clean_linker_1, # of connection points: 2
#     Edge 13, Type (0, 0), BuildingBlock: KIFKEQ_clean_linker_1, # of connection points: 2
#     Edge 14, Type (0, 0), BuildingBlock: KIFKEQ_clean_linker_1, # of connection points: 2
#     Edge 15, Type (0, 0), BuildingBlock: KIFKEQ_clean_linker_1, # of connection points: 2
#     Edge 16, Type (0, 0), BuildingBlock: KIFKEQ_clean_linker_1, # of connection points: 2
#     Edge 17, Type (0, 0), BuildingBlock: KIFKEQ_clean_linker_1, # of connection points: 2
#     Edge 18, Type (0, 0), BuildingBlock: KIFKEQ_clean_linker_1, # of connection points: 2
#     Edge 19, Type (0, 0), BuildingBlock: KIFKEQ_clean_linker_1, # of connection points: 2
#     Edge 20, Type (0, 0), BuildingBlock: KIFKEQ_clean_linker_1, # of connection points: 2
#     Edge 21, Type (0, 0), BuildingBlock: KIFKEQ_clean_linker_1, # of connection points: 2
#     Edge 22, Type (0, 0), BuildingBlock: KIFKEQ_clean_linker_1, # of connection points: 2
#     Edge 23, Type (0, 0), BuildingBlock: KIFKEQ_clean_linker_1, # of connection points: 2
#     Edge 24, Type (0, 0), BuildingBlock: KIFKEQ_clean_linker_1, # of connection points: 2
#     Edge 25, Type (0, 0), BuildingBlock: KIFKEQ_clean_linker_1, # of connection points: 2
#     Edge 26, Type (0, 0), BuildingBlock: KIFKEQ_clean_linker_1, # of connection points: 2
#     Edge 27, Type (0, 0), BuildingBlock: KIFKEQ_clean_linker_1, # of connection points: 2
#     Edge 28, Type (0, 0), BuildingBlock: KIFKEQ_clean_linker_1, # of connection points: 2
#     Edge 29, Type (0, 0), BuildingBlock: KIFKEQ_clean_linker_1, # of connection points: 2
#     Edge 30, Type (0, 0), BuildingBlock: KIFKEQ_clean_linker_1, # of connection points: 2
#     Edge 31, Type (0, 0), BuildingBlock: KIFKEQ_clean_linker_1, # of connection points: 2
#     Edge 32, Type (0, 0), BuildingBlock: KIFKEQ_clean_linker_1, # of connection points: 2
#     Edge 33, Type (0, 0), BuildingBlock: KIFKEQ_clean_linker_1, # of connection points: 2
#     Edge 34, Type (0, 0), BuildingBlock: KIFKEQ_clean_linker_1, # of connection points: 2
#     Edge 35, Type (0, 0), BuildingBlock: KIFKEQ_clean_linker_1, # of connection points: 2
#     Edge 36, Type (0, 0), BuildingBlock: KIFKEQ_clean_linker_1, # of connection points: 2
#     Edge 37, Type (0, 0), BuildingBlock: KIFKEQ_clean_linker_1, # of connection points: 2
#     Edge 38, Type (0, 0), BuildingBlock: KIFKEQ_clean_linker_1, # of connection points: 2
#     Edge 39, Type (0, 0), BuildingBlock: KIFKEQ_clean_linker_1, # of connection points: 2
#     Edge 40, Type (0, 0), BuildingBlock: KIFKEQ_clean_linker_1, # of connection points: 2
#     Edge 41, Type (0, 0), BuildingBlock: KIFKEQ_clean_linker_1, # of connection points: 2
#     Edge 42, Type (0, 0), BuildingBlock: KIFKEQ_clean_linker_1, # of connection points: 2
#     Edge 43, Type (0, 0), BuildingBlock: KIFKEQ_clean_linker_1, # of connection points: 2
#     Edge 44, Type (0, 0), BuildingBlock: KIFKEQ_clean_linker_1, # of connection points: 2
#     Edge 45, Type (0, 0), BuildingBlock: KIFKEQ_clean_linker_1, # of connection points: 2
#     Edge 46, Type (0, 0), BuildingBlock: KIFKEQ_clean_linker_1, # of connection points: 2
#     Edge 47, Type (0, 0), BuildingBlock: KIFKEQ_clean_linker_1, # of connection points: 2
# Relax obj value: 0.877
# Max RMSD: 0.239
# Mean RMSD: 0.239
data_MOF--net-wkj--node1-UKALOJ_clean_sbu_0--edge1-KIFKEQ_clean_linker_1
_symmetry_space_group_name_H-M    P1
_symmetry_Int_Tables_number       1
_symmetry_cell_setting            triclinic
loop_
_symmetry_equiv_pos_as_xyz
'x, y, z'
_cell_length_a     64.23019
_cell_length_b     64.197635
_cell_length_c     22.520636
_cell_angle_alpha  90.01366
_cell_angle_beta   89.975602
_cell_angle_gamma 120.00907
loop_
_atom_site_label
_atom_site_type_symbol
_atom_site_fract_x
_atom_site_fract_y
_atom_site_fract_z
_atom_type_partial_charge
Zn0 Zn 0.48089 0.0708 0.2332 0.0
O1 O 0.45833 0.05937 0.30664 0.0
C2 C 0.52014 0.10276 0.31409 0.0
Zn3 Zn 0.48155 0.10596 0.24255 0.0
C4 C 0.45062 0.07113 0.33494 0.0
O5 O 0.45717 0.09263 0.31913 0.0
C6 C 0.51244 0.10367 0.14165 0.0
O7 O 0.45119 0.09387 0.18246 0.0
O8 O 0.45184 0.06004 0.17722 0.0
N9 N 0.48523 0.14008 0.25156 0.0
C10 C 0.48017 0.15407 0.2163 0.0
C11 C 0.49595 0.17399 0.29534 0.0
N12 N 0.49502 0.15262 0.30057 0.0
N13 N 0.48667 0.17543 0.24292 0.0
C14 C 0.45575 1.01612 0.24107 0.0
C15 C 0.48482 1.01006 0.25548 0.0
N16 N 0.47616 0.03691 0.22898 0.0
N17 N 0.49425 0.0329 0.23649 0.0
N18 N 0.4606 0.9991 0.26022 0.0
H19 H 0.42792 0.02552 0.25243 0.0
H20 H 0.42786 1.01231 0.18281 0.0
H21 H 0.41703 0.99364 0.24779 0.0
C22 C 0.43071 1.01164 0.2312 0.0
C23 C 0.47041 0.14739 0.15458 0.0
H24 H 0.4771 0.13631 0.13313 0.0
H25 H 0.4505 0.13664 0.15671 0.0
H26 H 0.4756 0.16367 0.12735 0.0
O27 O 0.50622 0.11773 0.16613 0.0
O28 O 0.50404 0.08237 0.16092 0.0
C29 C 0.44242 0.07251 0.1627 0.0
O30 O 0.51075 0.08216 0.28981 0.0
O31 O 0.51163 0.11654 0.30299 0.0
Zn32 Zn 0.39955 0.47753 0.58868 0.0
O33 O 0.38165 0.45172 0.51672 0.0
C34 C 0.44157 0.50548 0.50458 0.0
Zn35 Zn 0.42674 0.46541 0.58953 0.0
C36 C 0.39049 0.43892 0.4987 0.0
O37 O 0.40929 0.44122 0.52281 0.0
C38 C 0.43797 0.50413 0.67989 0.0
O39 O 0.40596 0.44038 0.6516 0.0
O40 O 0.37853 0.45103 0.6582 0.0
N41 N 0.45069 0.45338 0.59488 0.0
C42 C 0.44757 0.43204 0.61379 0.0
C43 C 0.48504 0.45646 0.61062 0.0
N44 N 0.47408 0.46841 0.59157 0.0
N45 N 0.46885 0.43355 0.62568 0.0
C46 C 0.35039 0.4779 0.57885 0.0
C47 C 0.36313 0.51498 0.5619 0.0
N48 N 0.37471 0.48936 0.58171 0.0
N49 N 0.38246 0.51241 0.57139 0.0
N50 N 0.34269 0.4936 0.56644 0.0
H51 H 0.31999 0.44469 0.55003 0.0
H52 H 0.34465 0.44173 0.57967 0.0
H53 H 0.32561 0.44705 0.62846 0.0
C54 C 0.33435 0.45124 0.58418 0.0
C55 C 0.42388 0.40914 0.61801 0.0
H56 H 0.41086 0.40894 0.58548 0.0
H57 H 0.4264 0.39348 0.61002 0.0
H58 H 0.41635 0.40719 0.66308 0.0
O59 O 0.44471 0.49011 0.6586 0.0
O60 O 0.41925 0.50357 0.65863 0.0
C61 C 0.38688 0.43762 0.67485 0.0
O62 O 0.42186 0.50377 0.52194 0.0
O63 O 0.44809 0.49139 0.52644 0.0
Zn64 Zn 0.94085 0.38547 0.95059 0.0
O65 O 0.95585 0.37524 0.87566 0.0
C66 C 0.94649 0.42796 0.88084 0.0
Zn67 Zn 0.97762 0.41685 0.95643 0.0
C68 C 0.97659 0.38989 0.85407 0.0
O69 O 0.98991 0.40995 0.87921 0.0
C70 C 0.94316 0.41514 0.05234 0.0
O71 O 0.98842 0.39534 0.99799 0.0
O72 O 0.95173 0.36689 0.01567 0.0
N73 N 1.01083 0.44553 0.9787 0.0
C74 C 1.01977 0.45231 0.03422 0.0
C75 C 0.04272 0.48028 0.97588 0.0
N76 N 1.02555 0.4627 0.9422 0.0
N77 N 0.03949 0.47466 0.03452 0.0
C78 C 0.89187 0.33965 0.90248 0.0
C79 C 0.87676 0.32409 0.98628 0.0
N80 N 0.90724 0.35431 0.94484 0.0
N81 N 0.89756 0.34448 0.99659 0.0
N82 N 0.87251 0.32034 0.92755 0.0
H83 H 0.91554 0.35727 0.82828 0.0
H84 H 0.89143 0.32684 0.81397 0.0
H85 H 0.8854 0.35133 0.81934 0.0
C86 C 0.89648 0.34396 0.83725 0.0
C87 C 1.00917 0.43698 0.0888 0.0
H88 H 1.02356 0.43636 0.11462 0.0
H89 H 1.00009 0.44432 0.11637 0.0
H90 H 0.99551 0.41843 0.07991 0.0
O91 O 0.96472 0.4245 0.03522 0.0
O92 O 0.92695 0.39762 0.02301 0.0
C93 C 0.97426 0.37576 0.02317 0.0
O94 O 0.93197 0.40544 0.88831 0.0
O95 O 0.96657 0.43816 0.90833 0.0
Zn96 Zn 0.57265 0.93123 0.27687 0.0
O97 O 0.59786 0.95212 0.20539 0.0
C98 C 0.53286 0.93104 0.206 0.0
Zn99 Zn 0.56906 0.96362 0.29496 0.0
C100 C 0.60268 0.97379 0.19586 0.0
O101 O 0.59275 0.98274 0.22763 0.0
C102 C 0.53839 0.92327 0.3763 0.0
O103 O 0.59783 0.97643 0.35221 0.0
O104 O 0.60235 0.94508 0.33959 0.0
N105 N 0.56443 0.99178 0.31852 0.0
C106 C 0.56196 0.99788 0.37447 0.0
C107 C 0.54423 1.01015 0.31718 0.0
N108 N 0.55384 0.99995 0.28274 0.0
N109 N 0.5486 1.00869 0.37532 0.0
C110 C 0.5742 0.88573 0.22096 0.0
C111 C 0.58381 0.87398 0.29932 0.0
N112 N 0.5766 0.90117 0.26505 0.0
N113 N 0.58253 0.89364 0.31342 0.0
N114 N 0.57863 0.86835 0.24151 0.0
H115 H 0.57388 0.90758 0.14898 0.0
H116 H 0.57809 0.88272 0.12691 0.0
H117 H 0.54897 0.8773 0.15063 0.0
C118 C 0.56862 0.88858 0.15803 0.0
C119 C 0.57343 0.99429 0.42884 0.0
H120 H 0.59324 1.00419 0.42324 0.0
H121 H 0.56918 1.00145 0.46907 0.0
H122 H 0.56753 0.97508 0.43598 0.0
O123 O 0.54493 0.94458 0.36142 0.0
O124 O 0.5471 0.91193 0.34918 0.0
C125 C 0.609 0.96538 0.36356 0.0
O126 O 0.54321 0.91867 0.21401 0.0
O127 O 0.54002 0.95049 0.23491 0.0
Zn128 Zn 0.65883 0.56087 0.59489 0.0
O129 O 0.66475 0.58827 0.52977 0.0
C130 C 0.62132 0.52314 0.51354 0.0
Zn131 Zn 0.62215 0.55609 0.60927 0.0
C132 C 0.64834 0.59357 0.51959 0.0
O133 O 0.62821 0.58229 0.54628 0.0
C134 C 0.631 0.52304 0.68577 0.0
O135 O 0.636 0.58316 0.67111 0.0
O136 O 0.67241 0.58879 0.66464 0.0
N137 N 0.58845 0.54979 0.63003 0.0
C138 C 0.57947 0.54649 0.68571 0.0
C139 C 0.55023 0.52576 0.62807 0.0
N140 N 0.57007 0.53735 0.594 0.0
N141 N 0.55568 0.53073 0.68616 0.0
C142 C 0.70733 0.56386 0.54479 0.0
C143 C 0.72756 0.57423 0.62499 0.0
N144 N 0.69347 0.56612 0.58683 0.0
N145 N 0.70625 0.57255 0.63636 0.0
N146 N 0.72895 0.56882 0.56784 0.0
H147 H 0.68664 0.56358 0.4695 0.0
H148 H 0.71573 0.56698 0.45147 0.0
H149 H 0.69123 0.53822 0.4749 0.0
C150 C 0.69989 0.55796 0.48127 0.0
C151 C 0.59383 0.55781 0.74109 0.0
H152 H 0.6076 0.55251 0.74828 0.0
H153 H 0.60295 0.57767 0.73717 0.0
H154 H 0.58201 0.55258 0.78072 0.0
O155 O 0.61611 0.52967 0.67242 0.0
O156 O 0.65148 0.53307 0.66064 0.0
C157 C 0.6577 0.59444 0.68705 0.0
O158 O 0.64389 0.53349 0.5246 0.0
O159 O 0.60823 0.52902 0.54341 0.0
Zn160 Zn 0.07987 0.61601 0.94062 0.0
O161 O 0.0705 0.63269 1.00449 0.0
C162 C 0.11684 0.61368 0.01924 0.0
Zn163 Zn 0.11528 0.65036 0.93841 0.0
C164 C 0.08328 0.65264 0.02951 0.0
O165 O 0.10516 0.66549 0.01386 0.0
C166 C 0.10953 0.6122 0.84681 0.0
O167 O 0.09883 0.66425 0.87642 0.0
O168 O 0.06542 0.62912 0.87957 0.0
N169 N 0.14858 0.68191 0.93537 0.0
C170 C 0.16336 0.69728 0.89323 0.0
C171 C 0.17954 0.71148 0.97709 0.0
N172 N 0.15888 0.69087 0.9872 0.0
N173 N 0.18302 0.71616 0.91845 0.0
C174 C 0.03458 0.57865 1.00708 0.0
C175 C 1.01022 0.55745 0.9389 0.0
N176 N 0.04624 0.58656 0.95471 0.0
N177 N 0.03097 0.57357 0.91235 0.0
N178 N 1.01166 0.5605 0.99845 0.0
H179 H 0.03812 0.59986 0.08438 0.0
H180 H 0.04249 0.57496 0.09978 0.0
H181 H 0.06541 0.60047 0.06512 0.0
C182 C 0.0458 0.58898 0.06684 0.0
C183 C 0.15783 0.69413 0.8282 0.0
H184 H 0.13845 0.68157 0.8204 0.0
H185 H 0.16328 0.71175 0.80711 0.0
H186 H 0.16804 0.68638 0.80708 0.0
O187 O 0.1238 0.63388 0.86366 0.0
O188 O 0.08931 0.59982 0.87269 0.0
C189 C 0.07707 0.65047 0.86011 0.0
O190 O 0.09511 0.60233 1.00207 0.0
O191 O 0.13039 0.63503 1.00015 0.0
Zn192 Zn 0.94392 0.56324 0.45049 0.0
O193 O 0.95355 0.59233 0.51429 0.0
C194 C 0.95118 0.53316 0.54623 0.0
Zn195 Zn 0.98126 0.56889 0.45784 0.0
C196 C 0.97481 0.60249 0.53537 0.0
O197 O 0.98914 0.59548 0.51922 0.0
C198 C 0.95239 0.52961 0.37163 0.0
O199 O 0.98992 0.59409 0.39186 0.0
O200 O 0.95402 0.58871 0.3759 0.0
N201 N 1.01715 0.57951 0.45906 0.0
C202 C 0.03235 0.58839 0.4126 0.0
C203 C 0.0538 0.59971 0.49091 0.0
N204 N 0.03052 0.58667 0.50782 0.0
N205 N 0.05527 0.60177 0.43133 0.0
C206 C 0.8941 0.5615 0.47732 0.0
C207 C 0.87318 0.54109 0.40341 0.0
N208 N 0.90818 0.55566 0.44465 0.0
N209 N 0.89497 0.54294 0.39891 0.0
N210 N 0.87209 0.55269 0.4521 0.0
H211 H 0.912 0.56815 0.56145 0.0
H212 H 0.91265 0.59393 0.52774 0.0
H213 H 0.8854 0.57099 0.56216 0.0
C214 C 0.90135 0.57431 0.53573 0.0
C215 C 1.02512 0.58283 0.34849 0.0
H216 H 1.00634 0.5687 0.34245 0.0
H217 H 1.02772 0.5992 0.32531 0.0
H218 H 0.03665 0.5768 0.32693 0.0
O219 O 0.97298 0.54137 0.39564 0.0
O220 O 0.93606 0.5344 0.3866 0.0
C221 C 0.97636 0.59942 0.36336 0.0
O222 O 0.93557 0.53796 0.52482 0.0
O223 O 0.97247 0.54369 0.52549 0.0
Zn224 Zn 0.4336 0.96733 0.77989 0.0
O225 O 0.42135 0.97834 0.70802 0.0
C226 C 0.44049 0.93498 0.69847 0.0
Zn227 Zn 0.39948 0.93179 0.77314 0.0
C228 C 0.4017 0.96611 0.68083 0.0
O229 O 0.38741 0.94449 0.69703 0.0
C230 C 0.43389 0.93488 0.87109 0.0
O231 O 0.38162 0.94418 0.83382 0.0
O232 O 0.41593 0.97829 0.83787 0.0
N233 N 0.36903 0.89771 0.76611 0.0
C234 C 0.35089 0.88352 0.8035 0.0
C235 C 0.34474 0.86414 0.72257 0.0
N236 N 0.36505 0.88552 0.71594 0.0
N237 N 0.33532 0.86234 0.77708 0.0
C238 C 0.46333 0.02184 0.76769 0.0
C239 C 0.4983 0.0274 0.75397 0.0
N240 N 0.46281 1.00118 0.78211 0.0
N241 N 0.48481 1.00489 0.77503 0.0
N242 N 0.48517 0.03843 0.74732 0.0
H243 H 0.44171 0.02911 0.82645 0.0
H244 H 0.44666 0.04375 0.75568 0.0
H245 H 0.42568 1.01193 0.76353 0.0
C246 C 0.44316 0.0269 0.77802 0.0
C247 C 0.3494 0.88991 0.86669 0.0
H248 H 0.33907 0.89951 0.86855 0.0
H249 H 0.34009 0.8735 0.89455 0.0
H250 H 0.36762 0.90196 0.88478 0.0
O251 O 0.41323 0.9206 0.84873 0.0
O252 O 0.4463 0.95607 0.85066 0.0
C253 C 0.39412 0.96563 0.85316 0.0
O254 O 0.45142 0.95594 0.72095 0.0
O255 O 0.41853 0.92083 0.71221 0.0
Zn256 Zn 0.48503 0.39059 0.08157 0.0
O257 O 0.45793 0.38533 0.14677 0.0
C258 C 0.52339 0.42735 0.16349 0.0
Zn259 Zn 0.49116 0.42785 0.06802 0.0
C260 C 0.45332 0.40221 0.15727 0.0
O261 O 0.46513 0.42235 0.13089 0.0
C262 C 0.52337 0.41793 0.99123 0.0
O263 O 0.46419 0.41478 1.00597 0.0
O264 O 0.45707 0.3778 1.01172 0.0
N265 N 0.49842 0.46194 0.04806 0.0
C266 C 0.502 0.47113 0.99259 0.0
C267 C 0.52337 0.49997 0.05068 0.0
N268 N 0.51126 0.4801 0.0844 0.0
N269 N 0.51834 0.49477 0.99251 0.0
C270 C 0.48011 0.34147 0.13271 0.0
C271 C 0.47132 0.32158 0.05204 0.0
N272 N 0.47897 0.35563 0.08966 0.0
N273 N 0.47349 0.34307 0.03984 0.0
N274 N 0.47543 0.31986 0.11004 0.0
H275 H 0.47946 0.3624 0.20651 0.0
H276 H 0.47445 0.33281 0.22583 0.0
H277 H 0.50413 0.35668 0.20604 0.0
C278 C 0.48466 0.34867 0.19665 0.0
C279 C 0.49041 0.45707 0.93703 0.0
H280 H 0.4952 0.44295 0.92939 0.0
H281 H 0.47059 0.44842 0.94104 0.0
H282 H 0.49591 0.46906 0.89768 0.0
O283 O 0.51746 0.43335 1.00503 0.0
O284 O 0.51262 0.39732 0.01571 0.0
C285 C 0.4522 0.39315 0.98966 0.0
O286 O 0.51245 0.40479 0.15196 0.0
O287 O 0.5181 0.44097 0.134 0.0
Zn288 Zn 0.11998 0.48141 0.42217 0.0
O289 O 0.09471 0.4568 0.48718 0.0
C290 C 0.11944 0.5209 0.49607 0.0
Zn291 Zn 0.08994 0.48819 0.39902 0.0
C292 C 0.07303 0.45233 0.49247 0.0
O293 O 0.06534 0.46302 0.45905 0.0
C294 C 0.13585 0.51817 0.32832 0.0
O295 O 0.07806 0.46079 0.33678 0.0
O296 O 0.10622 0.4521 0.35683 0.0
N297 N 0.06599 0.49703 0.36433 0.0
C298 C 0.06551 0.50275 0.30678 0.0
C299 C 0.0514 0.5206 0.35754 0.0
N300 N 0.05668 0.50776 0.39582 0.0
N301 N 0.05719 0.5182 0.30121 0.0
C302 C 0.16882 0.48508 0.46849 0.0
C303 C 0.16013 0.44858 0.45949 0.0
N304 N 0.14589 0.47254 0.44829 0.0
N305 N 0.14067 0.4499 0.44298 0.0
N306 N 0.17826 0.4704 0.47556 0.0
H307 H 0.17013 0.51325 0.52157 0.0
H308 H 0.19918 0.51798 0.50316 0.0
H309 H 0.18105 0.52197 0.44729 0.0
C310 C 0.18077 0.51108 0.48586 0.0
C311 C 0.07263 0.4929 0.25477 0.0
H312 H 0.05853 0.47385 0.24818 0.0
H313 H 0.0743 0.50303 0.21357 0.0
H314 H 0.08964 0.49302 0.26155 0.0
O315 O 0.11491 0.51376 0.34097 0.0
O316 O 0.14443 0.50661 0.35501 0.0
C317 C 0.08748 0.4479 0.3278 0.0
O318 O 0.13142 0.51009 0.48829 0.0
O319 O 0.1012 0.51534 0.46365 0.0
Zn320 Zn 0.62342 0.07329 0.72742 0.0
O321 O 0.64239 0.06142 0.67847 0.0
C322 C 0.6291 0.10959 0.63631 0.0
Zn323 Zn 0.65714 0.10845 0.74158 0.0
C324 C 0.66408 0.07474 0.66351 0.0
O325 O 0.67546 0.09656 0.68068 0.0
C326 C 0.61535 0.10563 0.80837 0.0
O327 O 0.66483 0.09114 0.81646 0.0
O328 O 0.62974 0.05847 0.80104 0.0
N329 N 0.68883 0.14138 0.75036 0.0
C330 C 0.7045 0.15438 0.794 0.0
C331 C 0.7164 0.17549 0.71512 0.0
N332 N 0.69648 0.15465 0.70161 0.0
N333 N 0.72197 0.17591 0.77285 0.0
C334 C 0.58454 0.03379 0.65212 0.0
C335 C 0.55362 0.02271 0.70531 0.0
N336 N 0.59219 0.04223 0.7075 0.0
N337 N 0.57285 0.03474 0.74097 0.0
N338 N 0.56034 0.02233 0.64855 0.0
H339 H 0.61104 0.02677 0.61443 0.0
H340 H 0.58997 0.02637 0.56131 0.0
H341 H 0.61356 0.05451 0.59062 0.0
C342 C 0.60061 0.03556 0.60149 0.0
C343 C 0.7018 0.14643 0.85734 0.0
H344 H 0.68249 0.13503 0.86872 0.0
H345 H 0.71068 0.13554 0.8634 0.0
H346 H 0.71038 0.16216 0.88763 0.0
O347 O 0.63802 0.11913 0.80174 0.0
O348 O 0.60449 0.08579 0.78025 0.0
C349 C 0.6491 0.06952 0.83066 0.0
O350 O 0.61688 0.08792 0.65245 0.0
O351 O 0.64745 0.12397 0.66661 0.0
Zn352 Zn 0.57825 0.6531 0.08993 0.0
O353 O 0.60496 0.67097 0.16003 0.0
C354 C 0.54899 0.61267 0.17532 0.0
Zn355 Zn 0.58884 0.62467 0.08988 0.0
C356 C 0.61662 0.66108 0.17937 0.0
O357 O 0.61302 0.64155 0.15676 0.0
C358 C 0.55038 0.61422 0.99988 0.0
O359 O 0.61457 0.64384 0.02809 0.0
O360 O 0.60504 0.67199 0.01933 0.0
N361 N 0.5989 0.59914 0.08716 0.0
C362 C 0.61979 0.60096 0.06899 0.0
C363 C 0.59372 0.56391 0.07137 0.0
N364 N 0.58282 0.57599 0.09 0.0
N365 N 0.61697 0.57912 0.05697 0.0
C366 C 0.57391 0.69923 0.12424 0.0
C367 C 0.55388 0.70078 0.05079 0.0
N368 N 0.56898 0.68023 0.08876 0.0
N369 N 0.55646 0.68134 0.04336 0.0
N370 N 0.56479 0.7125 0.10109 0.0
H371 H 0.5797 0.6865 0.2072 0.0
H372 H 0.60581 0.71231 0.17647 0.0
H373 H 0.58242 0.71583 0.21109 0.0
C374 C 0.58611 0.70376 0.18332 0.0
C375 C 0.64352 0.62387 0.06569 0.0
H376 H 0.64432 0.63733 0.09777 0.0
H377 H 0.65834 0.62018 0.07499 0.0
H378 H 0.64641 0.63154 0.02053 0.0
O379 O 0.5641 0.60705 0.02071 0.0
O380 O 0.55156 0.63321 0.02123 0.0
C381 C 0.61793 0.66294 1.00371 0.0
O382 O 0.55169 0.63289 0.15833 0.0
O383 O 0.56216 0.60511 0.15279 0.0
H384 H 0.44725 0.17483 0.19793 0.0
H385 H 0.52118 0.2221 0.24579 0.0
H386 H 0.44303 0.20948 0.17213 0.0
H387 H 0.51778 0.25693 0.21707 0.0
H388 H 0.50268 0.31813 0.20229 0.0
H389 H 0.50398 0.28297 0.23764 0.0
H390 H 0.4513 0.2393 0.10539 0.0
H391 H 0.44858 0.27391 0.07412 0.0
C392 C 0.46276 0.1927 0.20153 0.0
C393 C 0.48463 0.19576 0.22295 0.0
C394 C 0.46045 0.21271 0.18674 0.0
C395 C 0.48008 0.23641 0.19208 0.0
C396 C 0.50202 0.23925 0.21325 0.0
C397 C 0.50414 0.21925 0.22908 0.0
C398 C 0.49068 0.3009 0.18234 0.0
C399 C 0.47509 0.29896 0.13606 0.0
C400 C 0.49184 0.28064 0.20167 0.0
C401 C 0.47784 0.25791 0.17449 0.0
C402 C 0.46209 0.25608 0.1287 0.0
C403 C 0.46067 0.27615 0.11019 0.0
H404 H 0.30275 0.46972 0.63483 0.0
H405 H 0.32885 0.50867 0.47084 0.0
H406 H 0.26322 0.46533 0.61662 0.0
H407 H 0.28924 0.50329 0.45004 0.0
H408 H 0.22191 0.50815 0.44333 0.0
H409 H 0.26143 0.51444 0.46932 0.0
H410 H 0.22776 0.44701 0.56517 0.0
H411 H 0.18848 0.4422 0.54367 0.0
C412 C 0.2998 0.47688 0.59421 0.0
C413 C 0.31878 0.48935 0.55402 0.0
C414 C 0.27709 0.47438 0.58346 0.0
C415 C 0.27261 0.48398 0.53166 0.0
C416 C 0.29175 0.49612 0.49116 0.0
C417 C 0.3145 0.499 0.50259 0.0
C418 C 0.223 0.49525 0.47216 0.0
C419 C 0.20196 0.47518 0.49345 0.0
C420 C 0.24578 0.49845 0.48582 0.0
C421 C 0.24824 0.48125 0.51958 0.0
C422 C 0.22703 0.46105 0.54034 0.0
C423 C 0.20434 0.45814 0.5276 0.0
H424 H 0.84917 0.27604 0.97587 0.0
H425 H 0.84783 0.31642 0.82427 0.0
H426 H 0.81238 0.24118 0.94224 0.0
H427 H 0.81205 0.28096 0.78775 0.0
H428 H 0.73452 0.22246 0.76518 0.0
H429 H 0.77111 0.25715 0.802 0.0
H430 H 0.79342 0.20934 0.87678 0.0
H431 H 0.75599 0.17471 0.8419 0.0
C432 C 0.8413 0.27738 0.93457 0.0
C433 C 0.85195 0.29917 0.90254 0.0
C434 C 0.82017 0.25718 0.91485 0.0
C435 C 0.8089 0.2579 0.86196 0.0
C436 C 0.81981 0.27958 0.82916 0.0
C437 C 0.84087 0.29996 0.84942 0.0
C438 C 0.74714 0.21947 0.79044 0.0
C439 C 0.74225 0.19591 0.80147 0.0
C440 C 0.76836 0.23938 0.81088 0.0
C441 C 0.7857 0.23638 0.84202 0.0
C442 C 0.78054 0.21263 0.85384 0.0
C443 C 0.75903 0.19266 0.83407 0.0
H444 H 0.60546 0.75259 0.13558 0.0
H445 H 0.52968 0.72386 0.10748 0.0
H446 H 0.60993 0.79143 0.16247 0.0
H447 H 0.53356 0.76231 0.137 0.0
H448 H 0.54891 0.83914 0.15281 0.0
H449 H 0.54654 0.80239 0.11481 0.0
H450 H 0.6032 0.81235 0.23523 0.0
H451 H 0.60662 0.84968 0.2694 0.0
C452 C 0.58964 0.7545 0.13655 0.0
C453 C 0.56714 0.73505 0.12072 0.0
C454 C 0.59212 0.77682 0.15194 0.0
C455 C 0.57209 0.78032 0.15261 0.0
C456 C 0.54956 0.76072 0.13636 0.0
C457 C 0.5472 0.73851 0.12007 0.0
C458 C 0.56144 0.83397 0.16953 0.0
C459 C 0.57832 0.84782 0.21345 0.0
C460 C 0.55974 0.81247 0.14868 0.0
C461 C 0.57463 0.80401 0.17175 0.0
C462 C 0.59167 0.81816 0.21507 0.0
C463 C 0.59353 0.83964 0.23524 0.0
H464 H 0.77517 0.59716 0.59924 0.0
H465 H 0.72971 0.53841 0.483 0.0
H466 H 0.8095 0.59332 0.57125 0.0
H467 H 0.76454 0.53562 0.45101 0.0
H468 H 0.82545 0.51801 0.45608 0.0
H469 H 0.79081 0.52257 0.47958 0.0
H470 H 0.83838 0.59904 0.5031 0.0
H471 H 0.87284 0.5939 0.48235 0.0
C472 C 0.77261 0.58376 0.56639 0.0
C473 C 0.74958 0.56837 0.54291 0.0
C474 C 0.79248 0.58165 0.5498 0.0
C475 C 0.79017 0.56416 0.5085 0.0
C476 C 0.7672 0.54914 0.48354 0.0
C477 C 0.74716 0.55109 0.50085 0.0
C478 C 0.82838 0.5357 0.46698 0.0
C479 C 0.85187 0.55548 0.4688 0.0
C480 C 0.80848 0.53845 0.47976 0.0
C481 C 0.81146 0.56122 0.49352 0.0
C482 C 0.83512 0.58108 0.4943 0.0
C483 C 0.85501 0.57821 0.48246 0.0
H484 H 0.29887 0.86239 0.83842 0.0
H485 H 0.32177 0.81563 0.76214 0.0
H486 H 0.26092 0.82742 0.86858 0.0
H487 H 0.28429 0.7805 0.79366 0.0
H488 H 0.20709 0.72081 0.81392 0.0
H489 H 0.24291 0.75662 0.77786 0.0
H490 H 0.24278 0.79536 0.9347 0.0
H491 H 0.20621 0.76013 0.96827 0.0
C492 C 0.29599 0.84459 0.82936 0.0
C493 C 0.31352 0.84177 0.79891 0.0
C494 C 0.27415 0.82442 0.84645 0.0
C495 C 0.26925 0.80083 0.83383 0.0
C496 C 0.28697 0.79818 0.80342 0.0
C497 C 0.30864 0.81834 0.78584 0.0
C498 C 0.21418 0.73715 0.83969 0.0
C499 C 0.20329 0.73758 0.89353 0.0
C500 C 0.23517 0.75769 0.81964 0.0
C501 C 0.24608 0.77917 0.85322 0.0
C502 C 0.23494 0.77952 0.90673 0.0
C503 C 0.21395 0.75914 0.92639 0.0
H504 H 0.56692 0.08851 0.81193 0.0
H505 H 0.63292 0.13598 0.90408 0.0
H506 H 0.54389 0.09394 0.89072 0.0
H507 H 0.60976 0.14111 0.98344 0.0
H508 H 0.55449 0.10399 0.14281 0.0
H509 H 0.581 0.10986 0.05893 0.0
H510 H 0.53615 0.12518 0.94549 0.0
H511 H 0.50981 0.11983 0.03066 0.0
C512 C 0.57655 0.10042 0.84855 0.0
C513 C 0.60178 0.11172 0.85186 0.0
C514 C 0.56333 0.10364 0.89352 0.0
C515 C 0.57499 0.1179 0.94341 0.0
C516 C 0.60027 0.12995 0.94562 0.0
C517 C 0.61354 0.12708 0.90006 0.0
C518 C 0.55072 0.10932 0.10031 0.0
C519 C 0.53032 0.11174 0.09319 0.0
C520 C 0.5659 0.1127 0.05229 0.0
C521 C 0.5607 0.11799 0.99554 0.0
C522 C 0.54062 0.12113 0.98873 0.0
C523 C 0.52567 0.11827 0.03738 0.0
H524 H 0.535 0.56651 0.20461 0.0
H525 H 0.52255 0.62471 0.25081 0.0
H526 H 0.50841 0.54219 0.28361 0.0
H527 H 0.4958 0.60007 0.33172 0.0
H528 H 0.48629 0.51606 0.46923 0.0
H529 H 0.51095 0.543 0.39089 0.0
H530 H 0.4566 0.56221 0.35573 0.0
H531 H 0.43174 0.53522 0.43584 0.0
C532 C 0.52659 0.5742 0.23171 0.0
C533 C 0.53119 0.59775 0.2216 0.0
C534 C 0.51136 0.5602 0.27739 0.0
C535 C 0.50028 0.56929 0.31485 0.0
C536 C 0.50407 0.59253 0.30366 0.0
C537 C 0.51942 0.60666 0.25744 0.0
C538 C 0.47949 0.52602 0.44512 0.0
C539 C 0.45685 0.52321 0.45856 0.0
C540 C 0.49365 0.54145 0.39985 0.0
C541 C 0.48562 0.55451 0.36623 0.0
C542 C 0.46333 0.55243 0.38081 0.0
C543 C 0.44906 0.5369 0.42653 0.0
H544 H 0.92039 0.4114 0.7785 0.0
H545 H 0.96204 0.47617 0.88088 0.0
H546 H 0.91755 0.43539 0.69739 0.0
H547 H 0.95843 0.49997 0.80049 0.0
H548 H 0.92494 0.52702 0.64792 0.0
H549 H 0.91988 0.50043 0.73248 0.0
H550 H 0.95872 0.47241 0.63673 0.0
H551 H 0.96462 0.49947 0.55385 0.0
C552 C 0.92834 0.43065 0.78439 0.0
C553 C 0.94143 0.44189 0.83613 0.0
C554 C 0.92677 0.44435 0.73791 0.0
C555 C 0.93766 0.46949 0.74289 0.0
C556 C 0.94966 0.4806 0.7958 0.0
C557 C 0.95179 0.46698 0.84165 0.0
C558 C 0.93206 0.51491 0.64481 0.0
C559 C 0.94513 0.51525 0.59437 0.0
C560 C 0.92927 0.49983 0.69314 0.0
C561 C 0.93884 0.48433 0.69088 0.0
C562 C 0.95102 0.48404 0.63943 0.0
C563 C 0.95442 0.49955 0.59213 0.0
H564 H 0.41291 0.91024 0.97431 0.0
H565 H 0.47933 0.94313 0.87538 0.0
H566 H 0.43355 0.90362 0.05834 0.0
H567 H 0.49959 0.93592 0.95772 0.0
H568 H 0.52619 0.90588 0.10258 0.0
H569 H 0.49882 0.90106 0.02089 0.0
H570 H 0.46905 0.93617 0.12573 0.0
H571 H 0.49666 0.94148 0.20656 0.0
C572 C 0.4317 0.91545 0.97002 0.0
C573 C 0.44456 0.92722 0.91854 0.0
C574 C 0.44352 0.91177 0.01801 0.0
C575 C 0.46817 0.91917 0.01444 0.0
C576 C 0.48057 0.92977 0.96161 0.0
C577 C 0.46899 0.934 0.91459 0.0
C578 C 0.51343 0.91206 0.10861 0.0
C579 C 0.51369 0.92419 0.16081 0.0
C580 C 0.49783 0.90939 0.06184 0.0
C581 C 0.4818 0.91825 0.06695 0.0
C582 C 0.48102 0.92896 0.12065 0.0
C583 C 0.49694 0.93212 0.16679 0.0
H584 H 0.52561 0.40669 0.26895 0.0
H585 H 0.56134 0.47299 0.16962 0.0
H586 H 0.55157 0.42719 0.35474 0.0
H587 H 0.58741 0.4932 0.25432 0.0
H588 H 0.64134 0.52002 0.4079 0.0
H589 H 0.62015 0.49441 0.32214 0.0
H590 H 0.55417 0.46053 0.42291 0.0
H591 H 0.5751 0.48628 0.50762 0.0
C592 C 0.53936 0.42544 0.26491 0.0
C593 C 0.54134 0.43819 0.21244 0.0
C594 C 0.55413 0.43724 0.31414 0.0
C595 C 0.57161 0.46189 0.31151 0.0
C596 C 0.57436 0.47421 0.25787 0.0
C597 C 0.5593 0.46261 0.20933 0.0
C598 C 0.62244 0.50677 0.41203 0.0
C599 C 0.60993 0.50527 0.4646 0.0
C600 C 0.61025 0.49219 0.36281 0.0
C601 C 0.58541 0.47539 0.36554 0.0
C602 C 0.57329 0.47306 0.41928 0.0
C603 C 0.5853 0.48794 0.46782 0.0
H604 H 0.13796 0.6343 0.74921 0.0
H605 H 0.09524 0.56486 0.83176 0.0
H606 H 0.14499 0.61481 0.6635 0.0
H607 H 0.10285 0.54563 0.74745 0.0
H608 H 0.13797 0.52131 0.60615 0.0
H609 H 0.13946 0.54538 0.69261 0.0
H610 H 0.11419 0.58356 0.58404 0.0
H611 H 0.11204 0.55914 0.49833 0.0
C612 C 0.13044 0.61497 0.74954 0.0
C613 C 0.11596 0.60112 0.79719 0.0
C614 C 0.13441 0.60382 0.70046 0.0
C615 C 0.12457 0.57869 0.69886 0.0
C616 C 0.11088 0.56502 0.74758 0.0
C617 C 0.10641 0.57605 0.79573 0.0
C618 C 0.13327 0.53521 0.6005 0.0
C619 C 0.12488 0.5383 0.54541 0.0
C620 C 0.13396 0.54888 0.65005 0.0
C621 C 0.12689 0.56634 0.64515 0.0
C622 C 0.11991 0.57039 0.58919 0.0
C623 C 0.11864 0.55635 0.54013 0.0
H624 H 0.38771 1.00344 0.83295 0.0
H625 H 0.38252 0.95384 0.96872 0.0
H626 H 0.38874 0.03112 0.90869 0.0
H627 H 0.38466 0.98172 0.04492 0.0
H628 H 0.39812 0.03421 0.17902 0.0
H629 H 0.3742 1.00602 0.10087 0.0
H630 H 0.42129 0.05682 0.96918 0.0
H631 H 0.44425 0.08509 0.04752 0.0
C632 C 0.38569 0.99803 0.87914 0.0
C633 C 0.3848 0.97648 0.89523 0.0
C634 C 0.38668 1.01405 0.92265 0.0
C635 C 0.3874 1.00907 0.98322 0.0
C636 C 0.38396 0.98626 0.99897 0.0
C637 C 0.38262 0.9701 0.95529 0.0
C638 C 0.40235 0.03981 0.1331 0.0
C639 C 0.42284 0.06185 0.11906 0.0
C640 C 0.38895 0.02349 0.08827 0.0
C641 C 0.39611 0.02872 0.02852 0.0
C642 C 0.41498 0.05203 0.01441 0.0
C643 C 0.42818 0.06845 0.05935 0.0
H644 H 0.42039 0.41634 0.14348 0.0
H645 H 0.44445 0.38165 0.2673 0.0
H646 H 0.39373 0.41755 0.21856 0.0
H647 H 0.41925 0.38434 0.34427 0.0
H648 H 0.38993 0.45592 0.38967 0.0
H649 H 0.3983 0.44092 0.29937 0.0
H650 H 0.38419 0.37596 0.3915 0.0
H651 H 0.37756 0.39216 0.48289 0.0
C652 C 0.41975 0.40878 0.18692 0.0
C653 C 0.43457 0.3991 0.2 0.0
C654 C 0.40461 0.40964 0.23023 0.0
C655 C 0.4045 0.40154 0.28838 0.0
C656 C 0.4184 0.39052 0.30014 0.0
C657 C 0.43306 0.38908 0.25615 0.0
C658 C 0.38737 0.4379 0.38969 0.0
C659 C 0.38306 0.42517 0.44304 0.0
C660 C 0.39239 0.42924 0.33778 0.0
C661 C 0.39273 0.40741 0.33804 0.0
C662 C 0.38504 0.39322 0.38982 0.0
C663 C 0.38061 0.40219 0.442 0.0
H664 H 1.02426 0.42373 0.48964 0.0
H665 H 0.08602 0.44419 0.60139 0.0
H666 H 0.99775 0.39981 0.57019 0.0
H667 H 0.05977 0.42198 0.68355 0.0
H668 H 1.01223 0.3802 0.82883 0.0
H669 H 0.03366 0.38839 0.73453 0.0
H670 H 0.98198 0.40471 0.65563 0.0
H671 H 0.95989 0.39455 0.74849 0.0
C672 C 0.03214 0.42305 0.53163 0.0
C673 C 0.05718 0.43592 0.53942 0.0
C674 C 1.01693 0.40948 0.57818 0.0
C675 C 1.02633 0.40902 0.63441 0.0
C676 C 0.05157 0.42131 0.64112 0.0
C677 C 0.06677 0.43432 0.59401 0.0
C678 C 1.00491 0.38432 0.79017 0.0
C679 C 0.98421 0.38629 0.79531 0.0
C680 C 1.01747 0.38961 0.73632 0.0
C681 C 1.01013 0.39795 0.6871 0.0
C682 C 0.9883 0.39815 0.6916 0.0
C683 C 0.97543 0.39221 0.74499 0.0
H684 H 0.61839 0.95961 0.09767 0.0
H685 H 0.6226 0.02202 0.18204 0.0
H686 H 0.63832 0.98395 1.00968 0.0
H687 H 0.64136 0.04583 0.09452 0.0
H688 H 0.67557 0.08816 0.93357 0.0
H689 H 0.67248 0.06556 0.02426 0.0
H690 H 0.62469 0.99915 0.93341 0.0
H691 H 0.62851 0.02142 0.8438 0.0
C692 C 0.62392 0.97856 0.0979 0.0
C693 C 0.61846 0.9887 0.14646 0.0
C694 C 0.6352 0.99253 0.04732 0.0
C695 C 0.64119 1.01689 0.04427 0.0
C696 C 0.63731 0.02731 0.09486 0.0
C697 C 0.62619 1.01346 0.14511 0.0
C698 C 0.66504 0.0687 0.93281 0.0
C699 C 0.65195 0.05663 0.88191 0.0
C700 C 0.66304 0.0557 0.98485 0.0
C701 C 0.64798 0.03043 0.98679 0.0
C702 C 0.6366 1.01844 0.93411 0.0
C703 C 0.63858 0.03133 0.88257 0.0
H704 H 0.66918 0.60239 0.40981 0.0
H705 H 0.6353 0.62736 0.53371 0.0
H706 H 0.66788 0.62861 0.33356 0.0
H707 H 0.63552 0.65502 0.45946 0.0
H708 H 0.59966 0.66234 0.28786 0.0
H709 H 0.61329 0.65238 0.3781 0.0
H710 H 0.67779 0.66425 0.28759 0.0
H711 H 0.66288 0.67243 0.19616 0.0
C712 C 0.66221 0.61415 0.42116 0.0
C713 C 0.65203 0.61264 0.47711 0.0
C714 C 0.66157 0.62941 0.37759 0.0
C715 C 0.65125 0.64394 0.38956 0.0
C716 C 0.64292 0.6437 0.44754 0.0
C717 C 0.64296 0.62797 0.4904 0.0
C718 C 0.61734 0.66408 0.28824 0.0
C719 C 0.63024 0.6682 0.23523 0.0
C720 C 0.62519 0.65812 0.34012 0.0
C721 C 0.64641 0.65665 0.34022 0.0
C722 C 0.66093 0.66422 0.28897 0.0
C723 C 0.65274 0.66958 0.23678 0.0
H724 H 0.03558 0.6506 0.87704 0.0
H725 H 0.08975 0.66455 0.74555 0.0
H726 H 1.00813 0.64864 0.79954 0.0
H727 H 0.06212 0.6614 0.66732 0.0
H728 H 1.0112 0.64837 0.52851 0.0
H729 H 0.03698 0.67081 0.61178 0.0
H730 H 0.98549 0.61757 0.73256 0.0
H731 H 0.95951 0.59608 0.64927 0.0
C732 C 0.04187 0.65413 0.83149 0.0
C733 C 0.06476 0.65786 0.81706 0.0
C734 C 1.02603 0.65266 0.78693 0.0
C735 C 0.03253 0.65425 0.72675 0.0
C736 C 0.05637 0.66027 0.71297 0.0
C737 C 0.07236 0.66215 0.75781 0.0
C738 C 1.00482 0.64239 0.57329 0.0
C739 C 0.98329 0.62066 0.58269 0.0
C740 C 1.01982 0.65495 0.62102 0.0
C741 C 1.0138 0.64573 0.67906 0.0
C742 C 0.99085 0.62546 0.68881 0.0
C743 C 0.97571 0.6131 0.64101 0.0
H744 H 0.45731 0.95603 0.28099 0.0
H745 H 0.43703 1.00559 0.35286 0.0
H746 H 0.46478 0.94721 0.38032 0.0
H747 H 0.44578 0.99768 0.4516 0.0
H748 H 0.53143 0.03842 0.39842 0.0
H749 H 0.49001 0.02331 0.42594 0.0
H750 H 0.48402 0.95608 0.48069 0.0
H751 H 0.52536 0.97112 0.45256 0.0
C752 C 0.45286 0.96382 0.31812 0.0
C753 C 0.44852 0.98289 0.30877 0.0
C754 C 0.45714 0.95882 0.37576 0.0
C755 C 0.45903 0.97444 0.42226 0.0
C756 C 0.44625 0.98675 0.41552 0.0
C757 C 0.44146 0.99151 0.35811 0.0
C758 C 0.52171 0.02097 0.41968 0.0
C759 C 0.53134 1.00567 0.42027 0.0
C760 C 0.49777 1.01212 0.43584 0.0
C761 C 0.48314 0.98759 0.45091 0.0
C762 C 0.49459 0.97467 0.46679 0.0
C763 C 0.51853 0.98345 0.45036 0.0
H764 H 0.50451 0.42267 0.63182 0.0
H765 H 0.44514 0.41785 0.73219 0.0
H766 H 0.52942 0.43739 0.71892 0.0
H767 H 0.4701 0.43232 0.81876 0.0
H768 H 0.50974 0.51182 0.72142 0.0
H769 H 0.48606 0.47226 0.76524 0.0
H770 H 0.5507 0.46853 0.79257 0.0
H771 H 0.57408 0.50798 0.74962 0.0
C772 C 0.49616 0.42291 0.67341 0.0
C773 C 0.47371 0.42164 0.67331 0.0
C774 C 0.51051 0.43146 0.72419 0.0
C775 C 0.50243 0.43991 0.77175 0.0
C776 C 0.47743 0.42851 0.77961 0.0
C777 C 0.46291 0.4201 0.72903 0.0
C778 C 0.51887 0.50299 0.73995 0.0
C779 C 0.54354 0.51276 0.73112 0.0
C780 C 0.50541 0.48023 0.76553 0.0
C781 C 0.5164 0.46652 0.78034 0.0
C782 C 0.54157 0.47818 0.7807 0.0
C783 C 0.55502 0.50098 0.75583 0.0
H784 H 0.03576 0.47055 0.16101 0.0
H785 H 0.06226 0.52366 0.02338 0.0
H786 H 1.01036 0.48593 0.19857 0.0
H787 H 0.04161 0.54209 0.06709 0.0
H788 H 0.98338 0.51192 0.98459 0.0
H789 H 0.98508 0.48657 0.06159 0.0
H790 H 1.00781 0.54429 0.18724 0.0
H791 H 1.00066 0.56774 0.11321 0.0
C792 C 0.03637 0.48569 0.1389 0.0
C793 C 0.04611 0.49259 0.08131 0.0
C794 C 1.02267 0.49516 0.16242 0.0
C795 C 1.02263 0.51431 0.13317 0.0
C796 C 0.04058 0.52689 0.09006 0.0
C797 C 0.05252 0.51607 0.06429 0.0
C798 C 0.9866 0.51857 0.02978 0.0
C799 C 0.99576 0.54314 0.04165 0.0
C800 C 0.98753 0.50394 0.07449 0.0
C801 C 1.00012 0.51507 0.12695 0.0
C802 C 1.0004 0.53615 0.14469 0.0
C803 C 0.99692 0.54984 0.1016 0.0
H804 H 0.10267 0.54354 0.25862 0.0
H805 H 0.03352 0.53906 0.25405 0.0
H806 H 0.1221 0.58661 0.24436 0.0
H807 H 0.05328 0.58194 0.23246 0.0
H808 H 0.09313 0.59479 0.43906 0.0
H809 H 0.11208 0.59091 0.35069 0.0
H810 H 0.0825 0.62696 0.24879 0.0
H811 H 0.06575 0.6332 0.34001 0.0
C812 C 0.09146 0.55133 0.24969 0.0
C813 C 0.0665 0.53813 0.26049 0.0
C814 C 0.10277 0.57613 0.24033 0.0
C815 C 0.08927 0.58769 0.24511 0.0
C816 C 0.06429 0.57359 0.23527 0.0
C817 C 0.05278 0.54893 0.24724 0.0
C818 C 0.09231 0.60361 0.39884 0.0
C819 C 0.07639 0.61239 0.39462 0.0
C820 C 0.10314 0.60138 0.3474 0.0
C821 C 0.09668 0.60659 0.2916 0.0
C822 C 0.08672 0.62169 0.29073 0.0
C823 C 0.07677 0.62486 0.34285 0.0
H824 H 0.52505 0.08079 0.7211 0.0
H825 H 0.45465 0.03017 0.65429 0.0
H826 H 0.5411 0.08588 0.62187 0.0
H827 H 0.47105 0.03442 0.55575 0.0
H828 H 0.51343 0.99285 0.62472 0.0
H829 H 0.48836 1.00852 0.59065 0.0
H830 H 0.55119 0.07273 0.52788 0.0
H831 H 0.5761 0.05694 0.56245 0.0
C832 C 0.51266 0.072 0.68474 0.0
C833 C 0.48914 0.05351 0.69633 0.0
C834 C 0.52181 0.07479 0.62716 0.0
C835 C 0.50778 0.05765 0.58358 0.0
C836 C 0.48271 0.04626 0.5903 0.0
C837 C 0.4733 0.04369 0.64758 0.0
C838 C 0.52172 1.00957 0.60023 0.0
C839 C 0.54677 0.02414 0.59974 0.0
C840 C 0.50737 1.0188 0.58044 0.0
C841 C 0.51812 0.04293 0.5609 0.0
C842 C 0.54252 0.05457 0.54521 0.0
C843 C 0.55688 0.04535 0.56529 0.0
H844 H 0.6252 0.54169 0.05063 0.0
H845 H 0.63388 0.6028 0.95081 0.0
H846 H 0.61011 0.51725 0.9628 0.0
H847 H 0.61897 0.57826 0.86356 0.0
H848 H 0.53899 0.54105 0.95864 0.0
H849 H 0.57889 0.56365 0.91602 0.0
H850 H 0.57953 0.49749 0.88642 0.0
H851 H 0.53979 0.47518 0.92817 0.0
C852 C 0.6257 0.55043 1.00909 0.0
C853 C 0.62828 0.57346 1.00938 0.0
C854 C 0.61696 0.53637 0.9579 0.0
C855 C 0.60959 0.54532 0.91001 0.0
C856 C 0.62203 0.5704 0.9028 0.0
C857 C 0.63068 0.58465 0.95379 0.0
C858 C 0.54722 0.53139 0.9398 0.0
C859 C 0.53649 0.50656 0.94776 0.0
C860 C 0.57017 0.54423 0.9149 0.0
C861 C 0.58308 0.53241 0.89996 0.0
C862 C 0.5705 0.50722 0.89844 0.0
C863 C 0.54752 0.49439 0.92265 0.0
H864 H 0.39483 0.95274 0.56384 0.0
H865 H 0.40036 1.00745 0.68423 0.0
H866 H 0.40119 0.97951 0.4798 0.0
H867 H 0.4071 0.03436 0.60104 0.0
H868 H 0.40764 0.03001 0.3347 0.0
H869 H 0.389 1.00284 0.41858 0.0
H870 H 0.44155 0.05662 0.53608 0.0
H871 H 0.46008 0.08373 0.45163 0.0
C872 C 0.39639 0.97009 0.5721 0.0
C873 C 0.39701 0.97797 0.6305 0.0
C874 C 0.40033 0.98561 0.52407 0.0
C875 C 0.40523 1.00939 0.53367 0.0
C876 C 0.40393 1.01644 0.59196 0.0
C877 C 0.39984 1.00091 0.63965 0.0
C878 C 0.41466 0.03631 0.37881 0.0
C879 C 0.43511 0.05911 0.38679 0.0
C880 C 0.40415 0.02062 0.42682 0.0
C881 C 0.41386 0.02734 0.48415 0.0
C882 C 0.43336 0.05087 0.49273 0.0
C883 C 0.4439 0.06658 0.44448 0.0
H884 H 0.44638 0.37848 0.87343 0.0
H885 H 0.41331 0.39667 0.0153 0.0
H886 H 0.4197 0.38221 0.80183 0.0
H887 H 0.38667 0.40044 0.94436 0.0
H888 H 0.38784 0.45112 0.78908 0.0
H889 H 0.39654 0.43217 0.87168 0.0
H890 H 0.3796 0.3707 0.76129 0.0
H891 H 0.3708 0.38982 0.67885 0.0
C892 C 0.43259 0.38207 0.88956 0.0
C893 C 0.4316 0.38686 0.94992 0.0
C894 C 0.41739 0.38445 0.84857 0.0
C895 C 0.4012 0.392 0.86718 0.0
C896 C 0.39907 0.39492 0.92829 0.0
C897 C 0.41412 0.39245 0.96903 0.0
C898 C 0.38436 0.43287 0.78369 0.0
C899 C 0.37847 0.42191 0.7276 0.0
C900 C 0.38975 0.42208 0.83086 0.0
C901 C 0.38934 0.40008 0.82282 0.0
C902 C 0.38054 0.38781 0.76879 0.0
C903 C 0.37498 0.39855 0.72189 0.0
H904 H 1.0125 0.36916 0.01432 0.0
H905 H 0.9623 0.36973 0.14028 0.0
H906 H 0.04218 0.37966 0.09298 0.0
H907 H 0.99202 0.38059 0.21912 0.0
H908 H 0.09411 0.4476 0.20903 0.0
H909 H 0.06448 0.41975 0.13816 0.0
H910 H 1.02046 0.37572 0.28321 0.0
H911 H 0.05029 0.40386 0.35385 0.0
C912 C 1.00729 0.37011 0.05958 0.0
C913 C 0.985 0.36849 0.07111 0.0
C914 C 1.0245 0.37664 0.10451 0.0
C915 C 1.01979 0.38164 0.16212 0.0
C916 C 0.99633 0.37685 0.17533 0.0
C917 C 0.97905 0.37023 0.13021 0.0
C918 C 0.07874 0.43128 0.22548 0.0
C919 C 0.07485 0.42745 0.28673 0.0
C920 C 0.06159 0.41534 0.18496 0.0
C921 C 0.03996 0.39539 0.20487 0.0
C922 C 0.03682 0.39087 0.26628 0.0
C923 C 0.05407 0.40676 0.30673 0.0
H924 H 0.67458 0.08629 0.54786 0.0
H925 H 0.67259 0.03831 0.68421 0.0
H926 H 0.67087 0.05762 0.47215 0.0
H927 H 0.66982 1.00976 0.60867 0.0
H928 H 0.65332 1.00263 0.34123 0.0
H929 H 0.67975 0.03163 0.41534 0.0
H930 H 0.63401 0.98455 0.55449 0.0
H931 H 0.60836 0.95553 0.48021 0.0
C932 C 0.67504 0.07031 0.56133 0.0
C933 C 0.67403 0.06452 0.62159 0.0
C934 C 0.67273 0.05368 0.51794 0.0
C935 C 0.66946 0.03102 0.53429 0.0
C936 C 0.67175 0.02677 0.59454 0.0
C937 C 0.67376 0.04328 0.63782 0.0
C938 C 0.64985 0.99799 0.38786 0.0
C939 C 0.62913 0.97678 0.40535 0.0
C940 C 0.66475 1.01474 0.43032 0.0
C941 C 0.65886 1.01072 0.49098 0.0
C942 C 0.6394 0.98826 0.50839 0.0
C943 C 0.62465 0.97147 0.46586 0.0
H944 H 0.60493 0.66308 0.88949 0.0
H945 H 0.6651 0.67643 0.99985 0.0
H946 H 0.623 0.65353 0.80635 0.0
H947 H 0.68333 0.66678 0.9169 0.0
H948 H 0.67177 0.59893 0.80328 0.0
H949 H 0.66955 0.62627 0.87559 0.0
H950 H 0.65461 0.66222 0.73387 0.0
H951 H 0.65676 0.63481 0.66221 0.0
C952 C 0.6228 0.66554 0.89485 0.0
C953 C 0.63365 0.67062 0.95103 0.0
C954 C 0.63307 0.65969 0.84737 0.0
C955 C 0.65441 0.65882 0.85528 0.0
C956 C 0.66669 0.66683 0.90953 0.0
C957 C 0.65648 0.67284 0.95675 0.0
C958 C 0.66924 0.61346 0.78752 0.0
C959 C 0.66489 0.61508 0.72719 0.0
C960 C 0.66776 0.62905 0.82888 0.0
C961 C 0.6616 0.64633 0.81063 0.0
C962 C 0.6591 0.64901 0.74959 0.0
C963 C 0.66065 0.63352 0.70846 0.0
H964 H 0.04251 0.65445 0.02068 0.0
H965 H 0.09605 0.6614 0.14677 0.0
H966 H 1.01463 0.64806 0.10138 0.0
H967 H 0.06816 0.65493 0.2281 0.0
H968 H 1.01593 0.64325 0.36949 0.0
H969 H 0.04343 0.66464 0.28804 0.0
H970 H 0.99173 0.61372 0.16393 0.0
H971 H 0.96407 0.59277 0.24584 0.0
C972 C 0.04868 0.65571 0.06603 0.0
C973 C 0.0716 0.65881 0.07749 0.0
C974 C 0.03253 0.65159 0.11229 0.0
C975 C 0.03883 0.65036 0.17138 0.0
C976 C 0.06261 0.65573 0.18321 0.0
C977 C 0.07881 0.6598 0.13667 0.0
C978 C 1.00999 0.63739 0.32439 0.0
C979 C 0.98765 0.61661 0.31388 0.0
C980 C 1.02596 0.64939 0.27776 0.0
C981 C 1.02009 0.6408 0.21926 0.0
C982 C 0.99687 0.62112 0.20821 0.0
C983 C 0.9808 0.60916 0.25508 0.0
H984 H 0.5266 0.12357 0.42365 0.0
H985 H 0.55933 0.098 0.29806 0.0
H986 H 0.55736 0.13012 0.49694 0.0
H987 H 0.59127 0.10643 0.36842 0.0
H988 H 0.62093 0.08792 0.53032 0.0
H989 H 0.59723 0.0899 0.44994 0.0
H990 H 0.59579 0.14932 0.5369 0.0
H991 H 0.61844 0.14581 0.62036 0.0
C992 C 0.54084 0.12004 0.41127 0.0
C993 C 0.54054 0.11013 0.35548 0.0
C994 C 0.55865 0.12393 0.45313 0.0
C995 C 0.57694 0.11859 0.4395 0.0
C996 C 0.57724 0.11007 0.38192 0.0
C997 C 0.55904 0.10545 0.34104 0.0
C998 C 0.61598 0.10175 0.53168 0.0
C999 C 0.62146 0.11663 0.58161 0.0
C1000 C 0.60245 0.1031 0.485 0.0
C1001 C 0.59422 0.11973 0.48619 0.0
C1002 C 0.60127 0.13591 0.53456 0.0
C1003 C 0.6147 0.1343 0.58198 0.0
H1004 H 0.46554 0.49736 0.7596 0.0
H1005 H 0.4424 0.54774 0.71261 0.0
H1006 H 0.49147 0.52446 0.83607 0.0
H1007 H 0.46924 0.57569 0.78874 0.0
H1008 H 0.50733 0.61123 0.96817 0.0
H1009 H 0.47875 0.58491 0.8924 0.0
H1010 H 0.52799 0.56028 0.84394 0.0
H1011 H 0.55572 0.58572 0.92005 0.0
C1012 C 0.46613 0.5144 0.76543 0.0
C1013 C 0.45214 0.5205 0.72935 0.0
C1014 C 0.48117 0.5301 0.80925 0.0
C1015 C 0.48302 0.55268 0.81815 0.0
C1016 C 0.46833 0.55849 0.78344 0.0
C1017 C 0.45297 0.54252 0.73967 0.0
C1018 C 0.51198 0.60023 0.94097 0.0
C1019 C 0.53362 0.60026 0.95084 0.0
C1020 C 0.49564 0.58516 0.8974 0.0
C1021 C 0.5007 0.56998 0.86244 0.0
C1022 C 0.52291 0.57099 0.87096 0.0
C1023 C 0.53898 0.58575 0.91458 0.0
H1024 H 0.96164 0.42069 0.16271 0.0
H1025 H 0.91445 0.43544 0.05772 0.0
H1026 H 0.96183 0.44698 0.24103 0.0
H1027 H 0.91471 0.46221 0.13611 0.0
H1028 H 0.91033 0.49828 0.31247 0.0
H1029 H 0.90459 0.46782 0.23819 0.0
H1030 H 0.97976 0.4894 0.2522 0.0
H1031 H 0.98537 0.51913 0.32596 0.0
C1032 C 0.95095 0.4293 0.15696 0.0
C1033 C 0.93796 0.42595 0.10433 0.0
C1034 C 0.9512 0.44457 0.20161 0.0
C1035 C 0.93863 0.45717 0.19473 0.0
C1036 C 0.9245 0.45275 0.14327 0.0
C1037 C 0.92419 0.43729 0.09847 0.0
C1038 C 0.92557 0.49641 0.29971 0.0
C1039 C 0.94824 0.51104 0.32594 0.0
C1040 C 0.92231 0.47901 0.2569 0.0
C1041 C 0.94163 0.47581 0.23949 0.0
C1042 C 0.96429 0.49078 0.26523 0.0
C1043 C 0.96753 0.50804 0.30764 0.0
H1044 H 0.49105 0.90808 0.37008 0.0
H1045 H 0.54726 0.91925 0.49229 0.0
H1046 H 0.46574 0.90655 0.45276 0.0
H1047 H 0.52194 0.91754 0.57571 0.0
H1048 H 0.48882 0.95623 0.68125 0.0
H1049 H 0.51033 0.94691 0.60659 0.0
H1050 H 0.44315 0.8875 0.54468 0.0
H1051 H 0.42146 0.89725 0.61915 0.0
C1052 C 0.49743 0.90886 0.41502 0.0
C1053 C 0.52079 0.913 0.42498 0.0
C1054 C 0.48302 0.9082 0.46249 0.0
C1055 C 0.49183 0.91211 0.52101 0.0
C1056 C 0.51465 0.91467 0.53117 0.0
C1057 C 0.52901 0.91516 0.48359 0.0
C1058 C 0.4786 0.94112 0.65188 0.0
C1059 C 0.45338 0.92766 0.65586 0.0
C1060 C 0.49099 0.93555 0.60949 0.0
C1061 C 0.47853 0.91631 0.56974 0.0
C1062 C 0.45331 0.90248 0.57447 0.0
C1063 C 0.44088 0.908 0.61729 0.0
H1064 H 0.60421 0.47507 0.66631 0.0
H1065 H 0.63908 0.5276 0.8044 0.0
H1066 H 0.58258 0.44397 0.74045 0.0
H1067 H 0.61728 0.4972 0.87903 0.0
H1068 H 0.51958 0.40888 0.87282 0.0
H1069 H 0.55057 0.43001 0.79889 0.0
H1070 H 0.60278 0.46566 0.93898 0.0
H1071 H 0.57114 0.44482 1.01224 0.0
C1072 C 0.60773 0.47973 0.71291 0.0
C1073 C 0.62357 0.50358 0.7298 0.0
C1074 C 0.59495 0.46199 0.75578 0.0
C1075 C 0.59717 0.46781 0.8168 0.0
C1076 C 0.61462 0.49151 0.83322 0.0
C1077 C 0.62741 0.50918 0.79029 0.0
C1078 C 0.5379 0.42063 0.88747 0.0
C1079 C 0.54306 0.42502 0.94806 0.0
C1080 C 0.55591 0.43302 0.84495 0.0
C1081 C 0.57951 0.45054 0.86188 0.0
C1082 C 0.58487 0.45324 0.92317 0.0
C1083 C 0.5668 0.44092 0.96559 0.0
H1084 H 0.13325 0.50569 0.21313 0.0
H1085 H 0.16119 0.5671 0.32923 0.0
H1086 H 0.13424 0.5306 0.13017 0.0
H1087 H 0.16286 0.59238 0.24616 0.0
H1088 H 0.16016 0.63275 0.08014 0.0
H1089 H 0.17342 0.61148 0.14743 0.0
H1090 H 0.10679 0.54542 0.11597 0.0
H1091 H 0.09377 0.56643 0.04994 0.0
C1092 C 0.14101 0.52486 0.22011 0.0
C1093 C 0.14756 0.5345 0.27752 0.0
C1094 C 0.14114 0.53911 0.17276 0.0
C1095 C 0.14792 0.56344 0.18159 0.0
C1096 C 0.15736 0.57374 0.23745 0.0
C1097 C 0.15673 0.55932 0.28516 0.0
C1098 C 0.14848 0.61365 0.08737 0.0
C1099 C 0.12584 0.60136 0.05949 0.0
C1100 C 0.15609 0.60143 0.1259 0.0
C1101 C 0.14143 0.57655 0.13661 0.0
C1102 C 0.11899 0.56436 0.10779 0.0
C1103 C 0.11132 0.57655 0.07031 0.0
loop_
_geom_bond_atom_site_label_1
_geom_bond_atom_site_label_2
_geom_bond_distance
_geom_bond_site_symmetry_2
_ccdc_geom_bond_type
Zn0 O1 2.055 . S
Zn0 O8 2.046 . S
Zn0 N16 2.036 . S
Zn0 O28 2.053 . S
Zn0 O30 2.066 . S
O1 Zn0 2.055 . S
O1 C4 1.259 . S
C2 O30 1.256 . S
C2 O31 1.244 . S
Zn3 O5 2.046 . S
Zn3 O7 2.055 . S
Zn3 N9 2.036 . S
Zn3 O27 2.066 . S
Zn3 O31 2.053 . S
C4 O1 1.259 . S
C4 O5 1.254 . S
O5 Zn3 2.046 . S
O5 C4 1.254 . S
C6 O27 1.256 . S
C6 O28 1.244 . S
O7 Zn3 2.055 . S
O7 C29 1.259 . S
O8 Zn0 2.046 . S
O8 C29 1.254 . S
N9 Zn3 2.036 . S
N9 C10 1.298 . S
N9 N12 1.398 . S
C10 N9 1.298 . S
C10 N13 1.367 . S
C10 C23 1.481 . S
C11 N12 1.299 . S
C11 N13 1.379 . S
N12 N9 1.398 . S
N12 C11 1.299 . S
N13 C10 1.367 . S
N13 C11 1.379 . S
C14 N16 1.298 . S
C14 N18 1.367 . S
C14 C22 1.481 . S
C15 N17 1.299 . S
C15 N18 1.379 . S
N16 Zn0 2.036 . S
N16 C14 1.298 . S
N16 N17 1.398 . S
N17 C15 1.299 . S
N17 N16 1.398 . S
N18 C14 1.367 . S
N18 C15 1.379 . S
H19 C22 0.980 . S
H20 C22 0.981 . S
H21 C22 0.981 . S
C22 C14 1.481 . S
C22 H19 0.980 . S
C22 H20 0.981 . S
C22 H21 0.981 . S
C23 C10 1.481 . S
C23 H24 0.980 . S
C23 H25 0.981 . S
C23 H26 0.981 . S
H24 C23 0.980 . S
H25 C23 0.981 . S
H26 C23 0.981 . S
O27 Zn3 2.066 . S
O27 C6 1.256 . S
O28 Zn0 2.053 . S
O28 C6 1.244 . S
C29 O7 1.259 . S
C29 O8 1.254 . S
O30 Zn0 2.066 . S
O30 C2 1.256 . S
O31 C2 1.244 . S
O31 Zn3 2.053 . S
Zn32 O33 2.055 . S
Zn32 O40 2.046 . S
Zn32 N48 2.036 . S
Zn32 O60 2.053 . S
Zn32 O62 2.066 . S
O33 Zn32 2.055 . S
O33 C36 1.259 . S
C34 O62 1.256 . S
C34 O63 1.244 . S
Zn35 O37 2.046 . S
Zn35 O39 2.055 . S
Zn35 N41 2.036 . S
Zn35 O59 2.066 . S
Zn35 O63 2.053 . S
C36 O33 1.259 . S
C36 O37 1.254 . S
O37 Zn35 2.046 . S
O37 C36 1.254 . S
C38 O59 1.256 . S
C38 O60 1.244 . S
O39 Zn35 2.055 . S
O39 C61 1.259 . S
O40 Zn32 2.046 . S
O40 C61 1.254 . S
N41 Zn35 2.036 . S
N41 C42 1.298 . S
N41 N44 1.398 . S
C42 N41 1.298 . S
C42 N45 1.367 . S
C42 C55 1.481 . S
C43 N44 1.299 . S
C43 N45 1.379 . S
N44 N41 1.398 . S
N44 C43 1.299 . S
N45 C42 1.367 . S
N45 C43 1.379 . S
C46 N48 1.298 . S
C46 N50 1.367 . S
C46 C54 1.481 . S
C47 N49 1.299 . S
C47 N50 1.379 . S
N48 Zn32 2.036 . S
N48 C46 1.298 . S
N48 N49 1.398 . S
N49 C47 1.299 . S
N49 N48 1.398 . S
N50 C46 1.367 . S
N50 C47 1.379 . S
H51 C54 0.980 . S
H52 C54 0.981 . S
H53 C54 0.981 . S
C54 C46 1.481 . S
C54 H51 0.980 . S
C54 H52 0.981 . S
C54 H53 0.981 . S
C55 C42 1.481 . S
C55 H56 0.980 . S
C55 H57 0.981 . S
C55 H58 0.981 . S
H56 C55 0.980 . S
H57 C55 0.981 . S
H58 C55 0.981 . S
O59 Zn35 2.066 . S
O59 C38 1.256 . S
O60 Zn32 2.053 . S
O60 C38 1.244 . S
C61 O39 1.259 . S
C61 O40 1.254 . S
O62 Zn32 2.066 . S
O62 C34 1.256 . S
O63 C34 1.244 . S
O63 Zn35 2.053 . S
Zn64 O65 2.055 . S
Zn64 O72 2.046 . S
Zn64 N80 2.036 . S
Zn64 O92 2.053 . S
Zn64 O94 2.066 . S
O65 Zn64 2.055 . S
O65 C68 1.259 . S
C66 O94 1.256 . S
C66 O95 1.244 . S
Zn67 O69 2.046 . S
Zn67 O71 2.055 . S
Zn67 N73 2.036 . S
Zn67 O91 2.066 . S
Zn67 O95 2.053 . S
C68 O65 1.259 . S
C68 O69 1.254 . S
O69 Zn67 2.046 . S
O69 C68 1.254 . S
C70 O91 1.256 1_554 S
C70 O92 1.244 1_554 S
O71 Zn67 2.055 . S
O71 C93 1.259 1_556 S
O72 Zn64 2.046 . S
O72 C93 1.254 1_556 S
N73 Zn67 2.036 . S
N73 C74 1.298 . S
N73 N76 1.398 . S
C74 N73 1.298 . S
C74 N77 1.367 . S
C74 C87 1.481 1_556 S
C75 N76 1.299 . S
C75 N77 1.379 . S
N76 N73 1.398 . S
N76 C75 1.299 . S
N77 C74 1.367 . S
N77 C75 1.379 . S
C78 N80 1.298 . S
C78 N82 1.367 . S
C78 C86 1.481 . S
C79 N81 1.299 . S
C79 N82 1.379 . S
N80 Zn64 2.036 . S
N80 C78 1.298 . S
N80 N81 1.398 . S
N81 C79 1.299 . S
N81 N80 1.398 . S
N82 C78 1.367 . S
N82 C79 1.379 . S
H83 C86 0.980 . S
H84 C86 0.981 . S
H85 C86 0.981 . S
C86 C78 1.481 . S
C86 H83 0.980 . S
C86 H84 0.981 . S
C86 H85 0.981 . S
C87 C74 1.481 1_554 S
C87 H88 0.980 . S
C87 H89 0.981 . S
C87 H90 0.981 . S
H88 C87 0.980 . S
H89 C87 0.981 . S
H90 C87 0.981 . S
O91 Zn67 2.066 . S
O91 C70 1.256 1_556 S
O92 Zn64 2.053 . S
O92 C70 1.244 1_556 S
C93 O71 1.259 1_554 S
C93 O72 1.254 1_554 S
O94 Zn64 2.066 . S
O94 C66 1.256 . S
O95 C66 1.244 . S
O95 Zn67 2.053 . S
Zn96 O97 2.055 . S
Zn96 O104 2.046 . S
Zn96 N112 2.036 . S
Zn96 O124 2.053 . S
Zn96 O126 2.066 . S
O97 Zn96 2.055 . S
O97 C100 1.259 . S
C98 O126 1.256 . S
C98 O127 1.244 . S
Zn99 O101 2.046 . S
Zn99 O103 2.055 . S
Zn99 N105 2.036 . S
Zn99 O123 2.066 . S
Zn99 O127 2.053 . S
C100 O97 1.259 . S
C100 O101 1.254 . S
O101 Zn99 2.046 . S
O101 C100 1.254 . S
C102 O123 1.256 . S
C102 O124 1.244 . S
O103 Zn99 2.055 . S
O103 C125 1.259 . S
O104 Zn96 2.046 . S
O104 C125 1.254 . S
N105 Zn99 2.036 . S
N105 C106 1.298 . S
N105 N108 1.398 . S
C106 N105 1.298 . S
C106 N109 1.367 . S
C106 C119 1.481 . S
C107 N108 1.299 . S
C107 N109 1.379 . S
N108 N105 1.398 . S
N108 C107 1.299 . S
N109 C106 1.367 . S
N109 C107 1.379 . S
C110 N112 1.298 . S
C110 N114 1.367 . S
C110 C118 1.481 . S
C111 N113 1.299 . S
C111 N114 1.379 . S
N112 Zn96 2.036 . S
N112 C110 1.298 . S
N112 N113 1.398 . S
N113 C111 1.299 . S
N113 N112 1.398 . S
N114 C110 1.367 . S
N114 C111 1.379 . S
H115 C118 0.980 . S
H116 C118 0.981 . S
H117 C118 0.981 . S
C118 C110 1.481 . S
C118 H115 0.980 . S
C118 H116 0.981 . S
C118 H117 0.981 . S
C119 C106 1.481 . S
C119 H120 0.980 . S
C119 H121 0.981 . S
C119 H122 0.981 . S
H120 C119 0.980 . S
H121 C119 0.981 . S
H122 C119 0.981 . S
O123 Zn99 2.066 . S
O123 C102 1.256 . S
O124 Zn96 2.053 . S
O124 C102 1.244 . S
C125 O103 1.259 . S
C125 O104 1.254 . S
O126 Zn96 2.066 . S
O126 C98 1.256 . S
O127 C98 1.244 . S
O127 Zn99 2.053 . S
Zn128 O129 2.055 . S
Zn128 O136 2.046 . S
Zn128 N144 2.036 . S
Zn128 O156 2.053 . S
Zn128 O158 2.066 . S
O129 Zn128 2.055 . S
O129 C132 1.259 . S
C130 O158 1.256 . S
C130 O159 1.244 . S
Zn131 O133 2.046 . S
Zn131 O135 2.055 . S
Zn131 N137 2.036 . S
Zn131 O155 2.066 . S
Zn131 O159 2.053 . S
C132 O129 1.259 . S
C132 O133 1.254 . S
O133 Zn131 2.046 . S
O133 C132 1.254 . S
C134 O155 1.256 . S
C134 O156 1.244 . S
O135 Zn131 2.055 . S
O135 C157 1.259 . S
O136 Zn128 2.046 . S
O136 C157 1.254 . S
N137 Zn131 2.036 . S
N137 C138 1.298 . S
N137 N140 1.398 . S
C138 N137 1.298 . S
C138 N141 1.367 . S
C138 C151 1.481 . S
C139 N140 1.299 . S
C139 N141 1.379 . S
N140 N137 1.398 . S
N140 C139 1.299 . S
N141 C138 1.367 . S
N141 C139 1.379 . S
C142 N144 1.298 . S
C142 N146 1.367 . S
C142 C150 1.481 . S
C143 N145 1.299 . S
C143 N146 1.379 . S
N144 Zn128 2.036 . S
N144 C142 1.298 . S
N144 N145 1.398 . S
N145 C143 1.299 . S
N145 N144 1.398 . S
N146 C142 1.367 . S
N146 C143 1.379 . S
H147 C150 0.980 . S
H148 C150 0.981 . S
H149 C150 0.981 . S
C150 C142 1.481 . S
C150 H147 0.980 . S
C150 H148 0.981 . S
C150 H149 0.981 . S
C151 C138 1.481 . S
C151 H152 0.980 . S
C151 H153 0.981 . S
C151 H154 0.981 . S
H152 C151 0.980 . S
H153 C151 0.981 . S
H154 C151 0.981 . S
O155 Zn131 2.066 . S
O155 C134 1.256 . S
O156 Zn128 2.053 . S
O156 C134 1.244 . S
C157 O135 1.259 . S
C157 O136 1.254 . S
O158 Zn128 2.066 . S
O158 C130 1.256 . S
O159 C130 1.244 . S
O159 Zn131 2.053 . S
Zn160 O161 2.055 . S
Zn160 O168 2.046 . S
Zn160 N176 2.036 . S
Zn160 O188 2.053 . S
Zn160 O190 2.066 . S
O161 Zn160 2.055 . S
O161 C164 1.259 1_556 S
C162 O190 1.256 1_554 S
C162 O191 1.244 1_554 S
Zn163 O165 2.046 . S
Zn163 O167 2.055 . S
Zn163 N169 2.036 . S
Zn163 O187 2.066 . S
Zn163 O191 2.053 . S
C164 O161 1.259 1_554 S
C164 O165 1.254 1_554 S
O165 Zn163 2.046 . S
O165 C164 1.254 1_556 S
C166 O187 1.256 . S
C166 O188 1.244 . S
O167 Zn163 2.055 . S
O167 C189 1.259 . S
O168 Zn160 2.046 . S
O168 C189 1.254 . S
N169 Zn163 2.036 . S
N169 C170 1.298 . S
N169 N172 1.398 . S
C170 N169 1.298 . S
C170 N173 1.367 . S
C170 C183 1.481 . S
C171 N172 1.299 . S
C171 N173 1.379 . S
N172 N169 1.398 . S
N172 C171 1.299 . S
N173 C170 1.367 . S
N173 C171 1.379 . S
C174 N176 1.298 . S
C174 N178 1.367 . S
C174 C182 1.481 1_556 S
C175 N177 1.299 . S
C175 N178 1.379 . S
N176 Zn160 2.036 . S
N176 C174 1.298 . S
N176 N177 1.398 . S
N177 C175 1.299 . S
N177 N176 1.398 . S
N178 C174 1.367 . S
N178 C175 1.379 . S
H179 C182 0.980 . S
H180 C182 0.981 . S
H181 C182 0.981 . S
C182 C174 1.481 1_554 S
C182 H179 0.980 . S
C182 H180 0.981 . S
C182 H181 0.981 . S
C183 C170 1.481 . S
C183 H184 0.980 . S
C183 H185 0.981 . S
C183 H186 0.981 . S
H184 C183 0.980 . S
H185 C183 0.981 . S
H186 C183 0.981 . S
O187 Zn163 2.066 . S
O187 C166 1.256 . S
O188 Zn160 2.053 . S
O188 C166 1.244 . S
C189 O167 1.259 . S
C189 O168 1.254 . S
O190 Zn160 2.066 . S
O190 C162 1.256 1_556 S
O191 C162 1.244 1_556 S
O191 Zn163 2.053 . S
Zn192 O193 2.055 . S
Zn192 O200 2.046 . S
Zn192 N208 2.036 . S
Zn192 O220 2.053 . S
Zn192 O222 2.066 . S
O193 Zn192 2.055 . S
O193 C196 1.259 . S
C194 O222 1.256 . S
C194 O223 1.244 . S
Zn195 O197 2.046 . S
Zn195 O199 2.055 . S
Zn195 N201 2.036 . S
Zn195 O219 2.066 . S
Zn195 O223 2.053 . S
C196 O193 1.259 . S
C196 O197 1.254 . S
O197 Zn195 2.046 . S
O197 C196 1.254 . S
C198 O219 1.256 . S
C198 O220 1.244 . S
O199 Zn195 2.055 . S
O199 C221 1.259 . S
O200 Zn192 2.046 . S
O200 C221 1.254 . S
N201 Zn195 2.036 . S
N201 C202 1.298 . S
N201 N204 1.398 . S
C202 N201 1.298 . S
C202 N205 1.367 . S
C202 C215 1.481 . S
C203 N204 1.299 . S
C203 N205 1.379 . S
N204 N201 1.398 . S
N204 C203 1.299 . S
N205 C202 1.367 . S
N205 C203 1.379 . S
C206 N208 1.298 . S
C206 N210 1.367 . S
C206 C214 1.481 . S
C207 N209 1.299 . S
C207 N210 1.379 . S
N208 Zn192 2.036 . S
N208 C206 1.298 . S
N208 N209 1.398 . S
N209 C207 1.299 . S
N209 N208 1.398 . S
N210 C206 1.367 . S
N210 C207 1.379 . S
H211 C214 0.980 . S
H212 C214 0.981 . S
H213 C214 0.981 . S
C214 C206 1.481 . S
C214 H211 0.980 . S
C214 H212 0.981 . S
C214 H213 0.981 . S
C215 C202 1.481 . S
C215 H216 0.980 . S
C215 H217 0.981 . S
C215 H218 0.981 . S
H216 C215 0.980 . S
H217 C215 0.981 . S
H218 C215 0.981 . S
O219 Zn195 2.066 . S
O219 C198 1.256 . S
O220 Zn192 2.053 . S
O220 C198 1.244 . S
C221 O199 1.259 . S
C221 O200 1.254 . S
O222 Zn192 2.066 . S
O222 C194 1.256 . S
O223 C194 1.244 . S
O223 Zn195 2.053 . S
Zn224 O225 2.055 . S
Zn224 O232 2.046 . S
Zn224 N240 2.036 . S
Zn224 O252 2.053 . S
Zn224 O254 2.066 . S
O225 Zn224 2.055 . S
O225 C228 1.259 . S
C226 O254 1.256 . S
C226 O255 1.244 . S
Zn227 O229 2.046 . S
Zn227 O231 2.055 . S
Zn227 N233 2.036 . S
Zn227 O251 2.066 . S
Zn227 O255 2.053 . S
C228 O225 1.259 . S
C228 O229 1.254 . S
O229 Zn227 2.046 . S
O229 C228 1.254 . S
C230 O251 1.256 . S
C230 O252 1.244 . S
O231 Zn227 2.055 . S
O231 C253 1.259 . S
O232 Zn224 2.046 . S
O232 C253 1.254 . S
N233 Zn227 2.036 . S
N233 C234 1.298 . S
N233 N236 1.398 . S
C234 N233 1.298 . S
C234 N237 1.367 . S
C234 C247 1.481 . S
C235 N236 1.299 . S
C235 N237 1.379 . S
N236 N233 1.398 . S
N236 C235 1.299 . S
N237 C234 1.367 . S
N237 C235 1.379 . S
C238 N240 1.298 . S
C238 N242 1.367 . S
C238 C246 1.481 . S
C239 N241 1.299 . S
C239 N242 1.379 . S
N240 Zn224 2.036 . S
N240 C238 1.298 . S
N240 N241 1.398 . S
N241 C239 1.299 . S
N241 N240 1.398 . S
N242 C238 1.367 . S
N242 C239 1.379 . S
H243 C246 0.980 . S
H244 C246 0.981 . S
H245 C246 0.981 . S
C246 C238 1.481 . S
C246 H243 0.980 . S
C246 H244 0.981 . S
C246 H245 0.981 . S
C247 C234 1.481 . S
C247 H248 0.980 . S
C247 H249 0.981 . S
C247 H250 0.981 . S
H248 C247 0.980 . S
H249 C247 0.981 . S
H250 C247 0.981 . S
O251 Zn227 2.066 . S
O251 C230 1.256 . S
O252 Zn224 2.053 . S
O252 C230 1.244 . S
C253 O231 1.259 . S
C253 O232 1.254 . S
O254 Zn224 2.066 . S
O254 C226 1.256 . S
O255 C226 1.244 . S
O255 Zn227 2.053 . S
Zn256 O257 2.055 . S
Zn256 O264 2.046 . S
Zn256 N272 2.036 . S
Zn256 O284 2.053 . S
Zn256 O286 2.066 . S
O257 Zn256 2.055 . S
O257 C260 1.259 . S
C258 O286 1.256 . S
C258 O287 1.244 . S
Zn259 O261 2.046 . S
Zn259 O263 2.055 . S
Zn259 N265 2.036 . S
Zn259 O283 2.066 . S
Zn259 O287 2.053 . S
C260 O257 1.259 . S
C260 O261 1.254 . S
O261 Zn259 2.046 . S
O261 C260 1.254 . S
C262 O283 1.256 1_556 S
C262 O284 1.244 1_556 S
O263 Zn259 2.055 . S
O263 C285 1.259 1_554 S
O264 Zn256 2.046 . S
O264 C285 1.254 1_554 S
N265 Zn259 2.036 . S
N265 C266 1.298 . S
N265 N268 1.398 . S
C266 N265 1.298 . S
C266 N269 1.367 . S
C266 C279 1.481 1_554 S
C267 N268 1.299 . S
C267 N269 1.379 . S
N268 N265 1.398 . S
N268 C267 1.299 . S
N269 C266 1.367 . S
N269 C267 1.379 . S
C270 N272 1.298 . S
C270 N274 1.367 . S
C270 C278 1.481 . S
C271 N273 1.299 . S
C271 N274 1.379 . S
N272 Zn256 2.036 . S
N272 C270 1.298 . S
N272 N273 1.398 . S
N273 C271 1.299 . S
N273 N272 1.398 . S
N274 C270 1.367 . S
N274 C271 1.379 . S
H275 C278 0.980 . S
H276 C278 0.981 . S
H277 C278 0.981 . S
C278 C270 1.481 . S
C278 H275 0.980 . S
C278 H276 0.981 . S
C278 H277 0.981 . S
C279 C266 1.481 1_556 S
C279 H280 0.980 . S
C279 H281 0.981 . S
C279 H282 0.981 . S
H280 C279 0.980 . S
H281 C279 0.981 . S
H282 C279 0.981 . S
O283 Zn259 2.066 . S
O283 C262 1.256 1_554 S
O284 Zn256 2.053 . S
O284 C262 1.244 1_554 S
C285 O263 1.259 1_556 S
C285 O264 1.254 1_556 S
O286 Zn256 2.066 . S
O286 C258 1.256 . S
O287 C258 1.244 . S
O287 Zn259 2.053 . S
Zn288 O289 2.055 . S
Zn288 O296 2.046 . S
Zn288 N304 2.036 . S
Zn288 O316 2.053 . S
Zn288 O318 2.066 . S
O289 Zn288 2.055 . S
O289 C292 1.259 . S
C290 O318 1.256 . S
C290 O319 1.244 . S
Zn291 O293 2.046 . S
Zn291 O295 2.055 . S
Zn291 N297 2.036 . S
Zn291 O315 2.066 . S
Zn291 O319 2.053 . S
C292 O289 1.259 . S
C292 O293 1.254 . S
O293 Zn291 2.046 . S
O293 C292 1.254 . S
C294 O315 1.256 . S
C294 O316 1.244 . S
O295 Zn291 2.055 . S
O295 C317 1.259 . S
O296 Zn288 2.046 . S
O296 C317 1.254 . S
N297 Zn291 2.036 . S
N297 C298 1.298 . S
N297 N300 1.398 . S
C298 N297 1.298 . S
C298 N301 1.367 . S
C298 C311 1.481 . S
C299 N300 1.299 . S
C299 N301 1.379 . S
N300 N297 1.398 . S
N300 C299 1.299 . S
N301 C298 1.367 . S
N301 C299 1.379 . S
C302 N304 1.298 . S
C302 N306 1.367 . S
C302 C310 1.481 . S
C303 N305 1.299 . S
C303 N306 1.379 . S
N304 Zn288 2.036 . S
N304 C302 1.298 . S
N304 N305 1.398 . S
N305 C303 1.299 . S
N305 N304 1.398 . S
N306 C302 1.367 . S
N306 C303 1.379 . S
H307 C310 0.980 . S
H308 C310 0.981 . S
H309 C310 0.981 . S
C310 C302 1.481 . S
C310 H307 0.980 . S
C310 H308 0.981 . S
C310 H309 0.981 . S
C311 C298 1.481 . S
C311 H312 0.980 . S
C311 H313 0.981 . S
C311 H314 0.981 . S
H312 C311 0.980 . S
H313 C311 0.981 . S
H314 C311 0.981 . S
O315 Zn291 2.066 . S
O315 C294 1.256 . S
O316 Zn288 2.053 . S
O316 C294 1.244 . S
C317 O295 1.259 . S
C317 O296 1.254 . S
O318 Zn288 2.066 . S
O318 C290 1.256 . S
O319 C290 1.244 . S
O319 Zn291 2.053 . S
Zn320 O321 2.055 . S
Zn320 O328 2.046 . S
Zn320 N336 2.036 . S
Zn320 O348 2.053 . S
Zn320 O350 2.066 . S
O321 Zn320 2.055 . S
O321 C324 1.259 . S
C322 O350 1.256 . S
C322 O351 1.244 . S
Zn323 O325 2.046 . S
Zn323 O327 2.055 . S
Zn323 N329 2.036 . S
Zn323 O347 2.066 . S
Zn323 O351 2.053 . S
C324 O321 1.259 . S
C324 O325 1.254 . S
O325 Zn323 2.046 . S
O325 C324 1.254 . S
C326 O347 1.256 . S
C326 O348 1.244 . S
O327 Zn323 2.055 . S
O327 C349 1.259 . S
O328 Zn320 2.046 . S
O328 C349 1.254 . S
N329 Zn323 2.036 . S
N329 C330 1.298 . S
N329 N332 1.398 . S
C330 N329 1.298 . S
C330 N333 1.367 . S
C330 C343 1.481 . S
C331 N332 1.299 . S
C331 N333 1.379 . S
N332 N329 1.398 . S
N332 C331 1.299 . S
N333 C330 1.367 . S
N333 C331 1.379 . S
C334 N336 1.298 . S
C334 N338 1.367 . S
C334 C342 1.481 . S
C335 N337 1.299 . S
C335 N338 1.379 . S
N336 Zn320 2.036 . S
N336 C334 1.298 . S
N336 N337 1.398 . S
N337 C335 1.299 . S
N337 N336 1.398 . S
N338 C334 1.367 . S
N338 C335 1.379 . S
H339 C342 0.980 . S
H340 C342 0.981 . S
H341 C342 0.981 . S
C342 C334 1.481 . S
C342 H339 0.980 . S
C342 H340 0.981 . S
C342 H341 0.981 . S
C343 C330 1.481 . S
C343 H344 0.980 . S
C343 H345 0.981 . S
C343 H346 0.981 . S
H344 C343 0.980 . S
H345 C343 0.981 . S
H346 C343 0.981 . S
O347 Zn323 2.066 . S
O347 C326 1.256 . S
O348 Zn320 2.053 . S
O348 C326 1.244 . S
C349 O327 1.259 . S
C349 O328 1.254 . S
O350 Zn320 2.066 . S
O350 C322 1.256 . S
O351 C322 1.244 . S
O351 Zn323 2.053 . S
Zn352 O353 2.055 . S
Zn352 O360 2.046 . S
Zn352 N368 2.036 . S
Zn352 O380 2.053 . S
Zn352 O382 2.066 . S
O353 Zn352 2.055 . S
O353 C356 1.259 . S
C354 O382 1.256 . S
C354 O383 1.244 . S
Zn355 O357 2.046 . S
Zn355 O359 2.055 . S
Zn355 N361 2.036 . S
Zn355 O379 2.066 . S
Zn355 O383 2.053 . S
C356 O353 1.259 . S
C356 O357 1.254 . S
O357 Zn355 2.046 . S
O357 C356 1.254 . S
C358 O379 1.256 1_556 S
C358 O380 1.244 1_556 S
O359 Zn355 2.055 . S
O359 C381 1.259 1_554 S
O360 Zn352 2.046 . S
O360 C381 1.254 1_554 S
N361 Zn355 2.036 . S
N361 C362 1.298 . S
N361 N364 1.398 . S
C362 N361 1.298 . S
C362 N365 1.367 . S
C362 C375 1.481 1_554 S
C363 N364 1.299 . S
C363 N365 1.379 . S
N364 N361 1.398 . S
N364 C363 1.299 . S
N365 C362 1.367 . S
N365 C363 1.379 . S
C366 N368 1.298 . S
C366 N370 1.367 . S
C366 C374 1.481 . S
C367 N369 1.299 . S
C367 N370 1.379 . S
N368 Zn352 2.036 . S
N368 C366 1.298 . S
N368 N369 1.398 . S
N369 C367 1.299 . S
N369 N368 1.398 . S
N370 C366 1.367 . S
N370 C367 1.379 . S
H371 C374 0.980 . S
H372 C374 0.981 . S
H373 C374 0.981 . S
C374 C366 1.481 . S
C374 H371 0.980 . S
C374 H372 0.981 . S
C374 H373 0.981 . S
C375 C362 1.481 1_556 S
C375 H376 0.980 . S
C375 H377 0.981 . S
C375 H378 0.981 . S
H376 C375 0.980 . S
H377 C375 0.981 . S
H378 C375 0.981 . S
O379 Zn355 2.066 . S
O379 C358 1.256 1_554 S
O380 Zn352 2.053 . S
O380 C358 1.244 1_554 S
C381 O359 1.259 1_556 S
C381 O360 1.254 1_556 S
O382 Zn352 2.066 . S
O382 C354 1.256 . S
O383 C354 1.244 . S
O383 Zn355 2.053 . S
H384 C392 0.950 . S
H385 C397 0.950 . S
H386 C394 0.950 . S
H387 C396 0.950 . S
H388 C398 0.950 . S
H389 C400 0.950 . S
H390 C402 0.950 . S
H391 C403 0.950 . S
C392 H384 0.950 . S
C392 C393 1.386 . S
C392 C394 1.391 . S
C393 C392 1.386 . S
C393 C397 1.393 . S
C394 H386 0.950 . S
C394 C392 1.391 . S
C394 C395 1.400 . S
C395 C394 1.400 . S
C395 C396 1.398 . S
C395 C401 1.491 . S
C396 H387 0.950 . S
C396 C395 1.398 . S
C396 C397 1.391 . S
C397 H385 0.950 . S
C397 C393 1.393 . S
C397 C396 1.391 . S
C398 H388 0.950 . S
C398 C399 1.386 . S
C398 C400 1.391 . S
C399 C398 1.386 . S
C399 C403 1.393 . S
C400 H389 0.950 . S
C400 C398 1.391 . S
C400 C401 1.400 . S
C401 C395 1.491 . S
C401 C400 1.400 . S
C401 C402 1.398 . S
C402 H390 0.950 . S
C402 C401 1.398 . S
C402 C403 1.391 . S
C403 H391 0.950 . S
C403 C399 1.393 . S
C403 C402 1.391 . S
H404 C412 0.950 . S
H405 C417 0.950 . S
H406 C414 0.950 . S
H407 C416 0.950 . S
H408 C418 0.950 . S
H409 C420 0.950 . S
H410 C422 0.950 . S
H411 C423 0.950 . S
C412 H404 0.950 . S
C412 C413 1.386 . S
C412 C414 1.391 . S
C413 C412 1.386 . S
C413 C417 1.393 . S
C414 H406 0.950 . S
C414 C412 1.391 . S
C414 C415 1.400 . S
C415 C414 1.400 . S
C415 C416 1.398 . S
C415 C421 1.491 . S
C416 H407 0.950 . S
C416 C415 1.398 . S
C416 C417 1.391 . S
C417 H405 0.950 . S
C417 C413 1.393 . S
C417 C416 1.391 . S
C418 H408 0.950 . S
C418 C419 1.386 . S
C418 C420 1.391 . S
C419 C418 1.386 . S
C419 C423 1.393 . S
C420 H409 0.950 . S
C420 C418 1.391 . S
C420 C421 1.400 . S
C421 C415 1.491 . S
C421 C420 1.400 . S
C421 C422 1.398 . S
C422 H410 0.950 . S
C422 C421 1.398 . S
C422 C423 1.391 . S
C423 H411 0.950 . S
C423 C419 1.393 . S
C423 C422 1.391 . S
H424 C432 0.950 . S
H425 C437 0.950 . S
H426 C434 0.950 . S
H427 C436 0.950 . S
H428 C438 0.950 . S
H429 C440 0.950 . S
H430 C442 0.950 . S
H431 C443 0.950 . S
C432 H424 0.950 . S
C432 C433 1.386 . S
C432 C434 1.391 . S
C433 C432 1.386 . S
C433 C437 1.393 . S
C434 H426 0.950 . S
C434 C432 1.391 . S
C434 C435 1.400 . S
C435 C434 1.400 . S
C435 C436 1.398 . S
C435 C441 1.491 . S
C436 H427 0.950 . S
C436 C435 1.398 . S
C436 C437 1.391 . S
C437 H425 0.950 . S
C437 C433 1.393 . S
C437 C436 1.391 . S
C438 H428 0.950 . S
C438 C439 1.386 . S
C438 C440 1.391 . S
C439 C438 1.386 . S
C439 C443 1.393 . S
C440 H429 0.950 . S
C440 C438 1.391 . S
C440 C441 1.400 . S
C441 C435 1.491 . S
C441 C440 1.400 . S
C441 C442 1.398 . S
C442 H430 0.950 . S
C442 C441 1.398 . S
C442 C443 1.391 . S
C443 H431 0.950 . S
C443 C439 1.393 . S
C443 C442 1.391 . S
H444 C452 0.950 . S
H445 C457 0.950 . S
H446 C454 0.950 . S
H447 C456 0.950 . S
H448 C458 0.950 . S
H449 C460 0.950 . S
H450 C462 0.950 . S
H451 C463 0.950 . S
C452 H444 0.950 . S
C452 C453 1.386 . S
C452 C454 1.391 . S
C453 C452 1.386 . S
C453 C457 1.393 . S
C454 H446 0.950 . S
C454 C452 1.391 . S
C454 C455 1.400 . S
C455 C454 1.400 . S
C455 C456 1.398 . S
C455 C461 1.491 . S
C456 H447 0.950 . S
C456 C455 1.398 . S
C456 C457 1.391 . S
C457 H445 0.950 . S
C457 C453 1.393 . S
C457 C456 1.391 . S
C458 H448 0.950 . S
C458 C459 1.386 . S
C458 C460 1.391 . S
C459 C458 1.386 . S
C459 C463 1.393 . S
C460 H449 0.950 . S
C460 C458 1.391 . S
C460 C461 1.400 . S
C461 C455 1.491 . S
C461 C460 1.400 . S
C461 C462 1.398 . S
C462 H450 0.950 . S
C462 C461 1.398 . S
C462 C463 1.391 . S
C463 H451 0.950 . S
C463 C459 1.393 . S
C463 C462 1.391 . S
H464 C472 0.950 . S
H465 C477 0.950 . S
H466 C474 0.950 . S
H467 C476 0.950 . S
H468 C478 0.950 . S
H469 C480 0.950 . S
H470 C482 0.950 . S
H471 C483 0.950 . S
C472 H464 0.950 . S
C472 C473 1.386 . S
C472 C474 1.391 . S
C473 C472 1.386 . S
C473 C477 1.393 . S
C474 H466 0.950 . S
C474 C472 1.391 . S
C474 C475 1.400 . S
C475 C474 1.400 . S
C475 C476 1.398 . S
C475 C481 1.491 . S
C476 H467 0.950 . S
C476 C475 1.398 . S
C476 C477 1.391 . S
C477 H465 0.950 . S
C477 C473 1.393 . S
C477 C476 1.391 . S
C478 H468 0.950 . S
C478 C479 1.386 . S
C478 C480 1.391 . S
C479 C478 1.386 . S
C479 C483 1.393 . S
C480 H469 0.950 . S
C480 C478 1.391 . S
C480 C481 1.400 . S
C481 C475 1.491 . S
C481 C480 1.400 . S
C481 C482 1.398 . S
C482 H470 0.950 . S
C482 C481 1.398 . S
C482 C483 1.391 . S
C483 H471 0.950 . S
C483 C479 1.393 . S
C483 C482 1.391 . S
H484 C492 0.950 . S
H485 C497 0.950 . S
H486 C494 0.950 . S
H487 C496 0.950 . S
H488 C498 0.950 . S
H489 C500 0.950 . S
H490 C502 0.950 . S
H491 C503 0.950 . S
C492 H484 0.950 . S
C492 C493 1.386 . S
C492 C494 1.391 . S
C493 C492 1.386 . S
C493 C497 1.393 . S
C494 H486 0.950 . S
C494 C492 1.391 . S
C494 C495 1.400 . S
C495 C494 1.400 . S
C495 C496 1.398 . S
C495 C501 1.491 . S
C496 H487 0.950 . S
C496 C495 1.398 . S
C496 C497 1.391 . S
C497 H485 0.950 . S
C497 C493 1.393 . S
C497 C496 1.391 . S
C498 H488 0.950 . S
C498 C499 1.386 . S
C498 C500 1.391 . S
C499 C498 1.386 . S
C499 C503 1.393 . S
C500 H489 0.950 . S
C500 C498 1.391 . S
C500 C501 1.400 . S
C501 C495 1.491 . S
C501 C500 1.400 . S
C501 C502 1.398 . S
C502 H490 0.950 . S
C502 C501 1.398 . S
C502 C503 1.391 . S
C503 H491 0.950 . S
C503 C499 1.393 . S
C503 C502 1.391 . S
H504 C512 0.950 . S
H505 C517 0.950 . S
H506 C514 0.950 . S
H507 C516 0.950 1_554 S
H508 C518 0.950 . S
H509 C520 0.950 . S
H510 C522 0.950 1_556 S
H511 C523 0.950 . S
C512 H504 0.950 . S
C512 C513 1.386 . S
C512 C514 1.391 . S
C513 C512 1.386 . S
C513 C517 1.393 . S
C514 H506 0.950 . S
C514 C512 1.391 . S
C514 C515 1.400 . S
C515 C514 1.400 . S
C515 C516 1.398 . S
C515 C521 1.491 1_556 S
C516 H507 0.950 1_556 S
C516 C515 1.398 . S
C516 C517 1.391 . S
C517 H505 0.950 . S
C517 C513 1.393 . S
C517 C516 1.391 . S
C518 H508 0.950 . S
C518 C519 1.386 . S
C518 C520 1.391 . S
C519 C518 1.386 . S
C519 C523 1.393 . S
C520 H509 0.950 . S
C520 C518 1.391 . S
C520 C521 1.400 . S
C521 C515 1.491 1_554 S
C521 C520 1.400 . S
C521 C522 1.398 . S
C522 H510 0.950 1_554 S
C522 C521 1.398 . S
C522 C523 1.391 . S
C523 H511 0.950 . S
C523 C519 1.393 . S
C523 C522 1.391 . S
H524 C532 0.950 . S
H525 C537 0.950 . S
H526 C534 0.950 . S
H527 C536 0.950 . S
H528 C538 0.950 . S
H529 C540 0.950 . S
H530 C542 0.950 . S
H531 C543 0.950 . S
C532 H524 0.950 . S
C532 C533 1.386 . S
C532 C534 1.391 . S
C533 C532 1.386 . S
C533 C537 1.393 . S
C534 H526 0.950 . S
C534 C532 1.391 . S
C534 C535 1.400 . S
C535 C534 1.400 . S
C535 C536 1.398 . S
C535 C541 1.491 . S
C536 H527 0.950 . S
C536 C535 1.398 . S
C536 C537 1.391 . S
C537 H525 0.950 . S
C537 C533 1.393 . S
C537 C536 1.391 . S
C538 H528 0.950 . S
C538 C539 1.386 . S
C538 C540 1.391 . S
C539 C538 1.386 . S
C539 C543 1.393 . S
C540 H529 0.950 . S
C540 C538 1.391 . S
C540 C541 1.400 . S
C541 C535 1.491 . S
C541 C540 1.400 . S
C541 C542 1.398 . S
C542 H530 0.950 . S
C542 C541 1.398 . S
C542 C543 1.391 . S
C543 H531 0.950 . S
C543 C539 1.393 . S
C543 C542 1.391 . S
H544 C552 0.950 . S
H545 C557 0.950 . S
H546 C554 0.950 . S
H547 C556 0.950 . S
H548 C558 0.950 . S
H549 C560 0.950 . S
H550 C562 0.950 . S
H551 C563 0.950 . S
C552 H544 0.950 . S
C552 C553 1.386 . S
C552 C554 1.391 . S
C553 C552 1.386 . S
C553 C557 1.393 . S
C554 H546 0.950 . S
C554 C552 1.391 . S
C554 C555 1.400 . S
C555 C554 1.400 . S
C555 C556 1.398 . S
C555 C561 1.491 . S
C556 H547 0.950 . S
C556 C555 1.398 . S
C556 C557 1.391 . S
C557 H545 0.950 . S
C557 C553 1.393 . S
C557 C556 1.391 . S
C558 H548 0.950 . S
C558 C559 1.386 . S
C558 C560 1.391 . S
C559 C558 1.386 . S
C559 C563 1.393 . S
C560 H549 0.950 . S
C560 C558 1.391 . S
C560 C561 1.400 . S
C561 C555 1.491 . S
C561 C560 1.400 . S
C561 C562 1.398 . S
C562 H550 0.950 . S
C562 C561 1.398 . S
C562 C563 1.391 . S
C563 H551 0.950 . S
C563 C559 1.393 . S
C563 C562 1.391 . S
H564 C572 0.950 . S
H565 C577 0.950 . S
H566 C574 0.961 . S
H567 C576 0.950 . S
H568 C578 0.950 . S
H569 C580 0.961 . S
H570 C582 0.950 . S
H571 C583 0.950 . S
C572 H564 0.950 . S
C572 C573 1.386 . S
C572 C574 1.391 . S
C573 C572 1.386 . S
C573 C577 1.393 . S
C574 H566 0.961 . S
C574 C572 1.391 . S
C574 C575 1.400 . S
C575 C574 1.400 . S
C575 C576 1.398 . S
C575 C581 1.491 1_556 S
C576 H567 0.950 . S
C576 C575 1.398 . S
C576 C577 1.391 . S
C577 H565 0.950 . S
C577 C573 1.393 . S
C577 C576 1.391 . S
C578 H568 0.950 . S
C578 C579 1.386 . S
C578 C580 1.391 . S
C579 C578 1.386 . S
C579 C583 1.393 . S
C580 H569 0.961 . S
C580 C578 1.391 . S
C580 C581 1.400 . S
C581 C575 1.491 1_554 S
C581 C580 1.400 . S
C581 C582 1.398 . S
C582 H570 0.950 . S
C582 C581 1.398 . S
C582 C583 1.391 . S
C583 H571 0.950 . S
C583 C579 1.393 . S
C583 C582 1.391 . S
H584 C592 0.950 . S
H585 C597 0.950 . S
H586 C594 0.950 . S
H587 C596 0.950 . S
H588 C598 0.950 . S
H589 C600 0.950 . S
H590 C602 0.950 . S
H591 C603 0.950 . S
C592 H584 0.950 . S
C592 C593 1.386 . S
C592 C594 1.391 . S
C593 C592 1.386 . S
C593 C597 1.393 . S
C594 H586 0.950 . S
C594 C592 1.391 . S
C594 C595 1.400 . S
C595 C594 1.400 . S
C595 C596 1.398 . S
C595 C601 1.491 . S
C596 H587 0.950 . S
C596 C595 1.398 . S
C596 C597 1.391 . S
C597 H585 0.950 . S
C597 C593 1.393 . S
C597 C596 1.391 . S
C598 H588 0.950 . S
C598 C599 1.386 . S
C598 C600 1.391 . S
C599 C598 1.386 . S
C599 C603 1.393 . S
C600 H589 0.950 . S
C600 C598 1.391 . S
C600 C601 1.400 . S
C601 C595 1.491 . S
C601 C600 1.400 . S
C601 C602 1.398 . S
C602 H590 0.950 . S
C602 C601 1.398 . S
C602 C603 1.391 . S
C603 H591 0.950 . S
C603 C599 1.393 . S
C603 C602 1.391 . S
H604 C612 0.950 . S
H605 C617 0.950 . S
H606 C614 0.950 . S
H607 C616 0.950 . S
H608 C618 0.950 . S
H609 C620 0.950 . S
H610 C622 0.950 . S
H611 C623 0.950 . S
C612 H604 0.950 . S
C612 C613 1.386 . S
C612 C614 1.391 . S
C613 C612 1.386 . S
C613 C617 1.393 . S
C614 H606 0.950 . S
C614 C612 1.391 . S
C614 C615 1.400 . S
C615 C614 1.400 . S
C615 C616 1.398 . S
C615 C621 1.491 . S
C616 H607 0.950 . S
C616 C615 1.398 . S
C616 C617 1.391 . S
C617 H605 0.950 . S
C617 C613 1.393 . S
C617 C616 1.391 . S
C618 H608 0.950 . S
C618 C619 1.386 . S
C618 C620 1.391 . S
C619 C618 1.386 . S
C619 C623 1.393 . S
C620 H609 0.950 . S
C620 C618 1.391 . S
C620 C621 1.400 . S
C621 C615 1.491 . S
C621 C620 1.400 . S
C621 C622 1.398 . S
C622 H610 0.950 . S
C622 C621 1.398 . S
C622 C623 1.391 . S
C623 H611 0.950 . S
C623 C619 1.393 . S
C623 C622 1.391 . S
H624 C632 0.950 . S
H625 C637 0.950 . S
H626 C634 0.950 1_545 S
H627 C636 0.950 1_554 S
H628 C638 0.950 . S
H629 C640 0.950 1_565 S
H630 C642 0.950 1_556 S
H631 C643 0.950 . S
C632 H624 0.950 . S
C632 C633 1.386 . S
C632 C634 1.391 . S
C633 C632 1.386 . S
C633 C637 1.393 . S
C634 H626 0.950 1_565 S
C634 C632 1.391 . S
C634 C635 1.400 . S
C635 C634 1.400 . S
C635 C636 1.398 . S
C635 C641 1.491 1_566 S
C636 H627 0.950 1_556 S
C636 C635 1.398 . S
C636 C637 1.391 . S
C637 H625 0.950 . S
C637 C633 1.393 . S
C637 C636 1.391 . S
C638 H628 0.950 . S
C638 C639 1.386 . S
C638 C640 1.391 . S
C639 C638 1.386 . S
C639 C643 1.393 . S
C640 H629 0.950 1_545 S
C640 C638 1.391 . S
C640 C641 1.400 . S
C641 C635 1.491 1_544 S
C641 C640 1.400 . S
C641 C642 1.398 . S
C642 H630 0.950 1_554 S
C642 C641 1.398 . S
C642 C643 1.391 . S
C643 H631 0.950 . S
C643 C639 1.393 . S
C643 C642 1.391 . S
H644 C652 0.950 . S
H645 C657 0.950 . S
H646 C654 0.950 . S
H647 C656 0.950 . S
H648 C658 0.950 . S
H649 C660 0.950 . S
H650 C662 0.950 . S
H651 C663 0.950 . S
C652 H644 0.950 . S
C652 C653 1.386 . S
C652 C654 1.391 . S
C653 C652 1.386 . S
C653 C657 1.393 . S
C654 H646 0.950 . S
C654 C652 1.391 . S
C654 C655 1.400 . S
C655 C654 1.400 . S
C655 C656 1.398 . S
C655 C661 1.491 . S
C656 H647 0.950 . S
C656 C655 1.398 . S
C656 C657 1.391 . S
C657 H645 0.950 . S
C657 C653 1.393 . S
C657 C656 1.391 . S
C658 H648 0.950 . S
C658 C659 1.386 . S
C658 C660 1.391 . S
C659 C658 1.386 . S
C659 C663 1.393 . S
C660 H649 0.950 . S
C660 C658 1.391 . S
C660 C661 1.400 . S
C661 C655 1.491 . S
C661 C660 1.400 . S
C661 C662 1.398 . S
C662 H650 0.950 . S
C662 C661 1.398 . S
C662 C663 1.391 . S
C663 H651 0.950 . S
C663 C659 1.393 . S
C663 C662 1.391 . S
H664 C672 0.950 . S
H665 C677 0.950 . S
H666 C674 0.950 1_655 S
H667 C676 0.950 . S
H668 C678 0.950 . S
H669 C680 0.950 1_455 S
H670 C682 0.950 . S
H671 C683 0.950 . S
C672 H664 0.950 . S
C672 C673 1.386 . S
C672 C674 1.391 . S
C673 C672 1.386 . S
C673 C677 1.393 . S
C674 H666 0.950 1_455 S
C674 C672 1.391 . S
C674 C675 1.400 . S
C675 C674 1.400 . S
C675 C676 1.398 . S
C675 C681 1.491 1_455 S
C676 H667 0.950 . S
C676 C675 1.398 . S
C676 C677 1.391 . S
C677 H665 0.950 . S
C677 C673 1.393 . S
C677 C676 1.391 . S
C678 H668 0.950 . S
C678 C679 1.386 . S
C678 C680 1.391 . S
C679 C678 1.386 . S
C679 C683 1.393 . S
C680 H669 0.950 1_655 S
C680 C678 1.391 . S
C680 C681 1.400 . S
C681 C675 1.491 1_655 S
C681 C680 1.400 . S
C681 C682 1.398 . S
C682 H670 0.950 . S
C682 C681 1.398 . S
C682 C683 1.391 . S
C683 H671 0.950 . S
C683 C679 1.393 . S
C683 C682 1.391 . S
H684 C692 0.950 . S
H685 C697 0.950 . S
H686 C694 0.956 . S
H687 C696 0.907 1_545 S
H688 C698 0.950 . S
H689 C700 0.956 . S
H690 C702 0.906 1_565 S
H691 C703 0.950 . S
C692 H684 0.950 . S
C692 C693 1.386 . S
C692 C694 1.391 . S
C693 C692 1.386 . S
C693 C697 1.393 . S
C694 H686 0.956 . S
C694 C692 1.391 . S
C694 C695 1.400 . S
C695 C694 1.400 . S
C695 C696 1.398 . S
C695 C701 1.491 1_564 S
C696 H687 0.907 1_565 S
C696 C695 1.398 . S
C696 C697 1.391 . S
C697 H685 0.950 . S
C697 C693 1.393 . S
C697 C696 1.391 . S
C698 H688 0.950 . S
C698 C699 1.386 . S
C698 C700 1.391 . S
C699 C698 1.386 . S
C699 C703 1.393 . S
C700 H689 0.956 . S
C700 C698 1.391 . S
C700 C701 1.400 . S
C701 C695 1.491 1_546 S
C701 C700 1.400 . S
C701 C702 1.398 . S
C702 H690 0.906 1_545 S
C702 C701 1.398 . S
C702 C703 1.391 . S
C703 H691 0.950 . S
C703 C699 1.393 . S
C703 C702 1.391 . S
H704 C712 0.950 . S
H705 C717 0.950 . S
H706 C714 0.950 . S
H707 C716 0.950 . S
H708 C718 0.950 . S
H709 C720 0.950 . S
H710 C722 0.950 . S
H711 C723 0.950 . S
C712 H704 0.950 . S
C712 C713 1.386 . S
C712 C714 1.391 . S
C713 C712 1.386 . S
C713 C717 1.393 . S
C714 H706 0.950 . S
C714 C712 1.391 . S
C714 C715 1.400 . S
C715 C714 1.400 . S
C715 C716 1.398 . S
C715 C721 1.491 . S
C716 H707 0.950 . S
C716 C715 1.398 . S
C716 C717 1.391 . S
C717 H705 0.950 . S
C717 C713 1.393 . S
C717 C716 1.391 . S
C718 H708 0.950 . S
C718 C719 1.386 . S
C718 C720 1.391 . S
C719 C718 1.386 . S
C719 C723 1.393 . S
C720 H709 0.950 . S
C720 C718 1.391 . S
C720 C721 1.400 . S
C721 C715 1.491 . S
C721 C720 1.400 . S
C721 C722 1.398 . S
C722 H710 0.950 . S
C722 C721 1.398 . S
C722 C723 1.391 . S
C723 H711 0.950 . S
C723 C719 1.393 . S
C723 C722 1.391 . S
H724 C732 0.950 . S
H725 C737 0.950 . S
H726 C734 0.950 1_655 S
H727 C736 0.950 . S
H728 C738 0.950 . S
H729 C740 0.950 1_455 S
H730 C742 0.950 . S
H731 C743 0.950 . S
C732 H724 0.950 . S
C732 C733 1.386 . S
C732 C734 1.391 . S
C733 C732 1.386 . S
C733 C737 1.393 . S
C734 H726 0.950 1_455 S
C734 C732 1.391 . S
C734 C735 1.400 . S
C735 C734 1.400 . S
C735 C736 1.398 . S
C735 C741 1.491 1_455 S
C736 H727 0.950 . S
C736 C735 1.398 . S
C736 C737 1.391 . S
C737 H725 0.950 . S
C737 C733 1.393 . S
C737 C736 1.391 . S
C738 H728 0.950 . S
C738 C739 1.386 . S
C738 C740 1.391 . S
C739 C738 1.386 . S
C739 C743 1.393 . S
C740 H729 0.950 1_655 S
C740 C738 1.391 . S
C740 C741 1.400 . S
C741 C735 1.491 1_655 S
C741 C740 1.400 . S
C741 C742 1.398 . S
C742 H730 0.950 . S
C742 C741 1.398 . S
C742 C743 1.391 . S
C743 H731 0.950 . S
C743 C739 1.393 . S
C743 C742 1.391 . S
H744 C752 0.950 . S
H745 C757 0.950 . S
H746 C754 0.950 . S
H747 C756 0.950 . S
H748 C758 0.950 . S
H749 C760 0.950 . S
H750 C762 0.950 . S
H751 C763 0.950 . S
C752 H744 0.950 . S
C752 C753 1.386 1_565 S
C752 C754 1.391 . S
C753 C752 1.386 1_545 S
C753 C757 1.393 . S
C754 H746 0.950 . S
C754 C752 1.391 . S
C754 C755 1.400 1_565 S
C755 C754 1.400 1_545 S
C755 C756 1.398 . S
C755 C761 1.491 1_545 S
C756 H747 0.950 . S
C756 C755 1.398 . S
C756 C757 1.391 . S
C757 H745 0.950 . S
C757 C753 1.393 . S
C757 C756 1.391 . S
C758 H748 0.950 . S
C758 C759 1.386 1_545 S
C758 C760 1.391 . S
C759 C758 1.386 1_565 S
C759 C763 1.393 . S
C760 H749 0.950 . S
C760 C758 1.391 . S
C760 C761 1.400 1_545 S
C761 C755 1.491 1_565 S
C761 C760 1.400 1_565 S
C761 C762 1.398 . S
C762 H750 0.950 . S
C762 C761 1.398 . S
C762 C763 1.391 . S
C763 H751 0.950 . S
C763 C759 1.393 . S
C763 C762 1.391 . S
H764 C772 0.950 . S
H765 C777 0.950 . S
H766 C774 0.950 . S
H767 C776 0.950 . S
H768 C778 0.950 . S
H769 C780 0.950 . S
H770 C782 0.950 . S
H771 C783 0.950 . S
C772 H764 0.950 . S
C772 C773 1.386 . S
C772 C774 1.391 . S
C773 C772 1.386 . S
C773 C777 1.393 . S
C774 H766 0.950 . S
C774 C772 1.391 . S
C774 C775 1.400 . S
C775 C774 1.400 . S
C775 C776 1.398 . S
C775 C781 1.491 . S
C776 H767 0.950 . S
C776 C775 1.398 . S
C776 C777 1.391 . S
C777 H765 0.950 . S
C777 C773 1.393 . S
C777 C776 1.391 . S
C778 H768 0.950 . S
C778 C779 1.386 . S
C778 C780 1.391 . S
C779 C778 1.386 . S
C779 C783 1.393 . S
C780 H769 0.950 . S
C780 C778 1.391 . S
C780 C781 1.400 . S
C781 C775 1.491 . S
C781 C780 1.400 . S
C781 C782 1.398 . S
C782 H770 0.950 . S
C782 C781 1.398 . S
C782 C783 1.391 . S
C783 H771 0.950 . S
C783 C779 1.393 . S
C783 C782 1.391 . S
H784 C792 0.950 . S
H785 C797 0.950 . S
H786 C794 0.950 . S
H787 C796 0.950 . S
H788 C798 0.950 . S
H789 C800 0.950 . S
H790 C802 0.950 . S
H791 C803 0.950 . S
C792 H784 0.950 . S
C792 C793 1.386 1_554 S
C792 C794 1.391 . S
C793 C792 1.386 1_556 S
C793 C797 1.393 . S
C794 H786 0.950 . S
C794 C792 1.391 . S
C794 C795 1.400 1_554 S
C795 C794 1.400 1_556 S
C795 C796 1.398 . S
C795 C801 1.491 1_655 S
C796 H787 0.950 . S
C796 C795 1.398 . S
C796 C797 1.391 . S
C797 H785 0.950 . S
C797 C793 1.393 . S
C797 C796 1.391 . S
C798 H788 0.950 . S
C798 C799 1.386 . S
C798 C800 1.391 . S
C799 C798 1.386 . S
C799 C803 1.393 1_556 S
C800 H789 0.950 . S
C800 C798 1.391 . S
C800 C801 1.400 . S
C801 C795 1.491 1_455 S
C801 C800 1.400 . S
C801 C802 1.398 1_556 S
C802 H790 0.950 . S
C802 C801 1.398 1_554 S
C802 C803 1.391 . S
C803 H791 0.950 . S
C803 C799 1.393 1_554 S
C803 C802 1.391 . S
H804 C812 0.950 . S
H805 C817 0.951 1_655 S
H806 C814 0.950 . S
H807 C816 0.950 . S
H808 C818 0.950 . S
H809 C820 0.950 . S
H810 C822 0.950 . S
H811 C823 0.951 1_455 S
C812 H804 0.950 . S
C812 C813 1.386 . S
C812 C814 1.391 . S
C813 C812 1.386 . S
C813 C817 1.393 . S
C814 H806 0.950 . S
C814 C812 1.391 . S
C814 C815 1.400 . S
C815 C814 1.400 . S
C815 C816 1.398 1_455 S
C815 C821 1.491 1_455 S
C816 H807 0.950 . S
C816 C815 1.398 1_655 S
C816 C817 1.391 1_655 S
C817 H805 0.951 1_455 S
C817 C813 1.393 . S
C817 C816 1.391 1_455 S
C818 H808 0.950 . S
C818 C819 1.386 . S
C818 C820 1.391 . S
C819 C818 1.386 . S
C819 C823 1.393 . S
C820 H809 0.950 . S
C820 C818 1.391 . S
C820 C821 1.400 . S
C821 C815 1.491 1_655 S
C821 C820 1.400 . S
C821 C822 1.398 1_655 S
C822 H810 0.950 . S
C822 C821 1.398 1_455 S
C822 C823 1.391 1_455 S
C823 H811 0.951 1_655 S
C823 C819 1.393 . S
C823 C822 1.391 1_655 S
H824 C832 0.950 . S
H825 C837 0.950 . S
H826 C834 0.950 . S
H827 C836 0.950 . S
H828 C838 0.950 . S
H829 C840 0.950 . S
H830 C842 0.950 . S
H831 C843 0.950 . S
C832 H824 0.950 . S
C832 C833 1.386 1_545 S
C832 C834 1.391 . S
C833 C832 1.386 1_565 S
C833 C837 1.393 . S
C834 H826 0.950 . S
C834 C832 1.391 . S
C834 C835 1.400 1_545 S
C835 C834 1.400 1_565 S
C835 C836 1.398 . S
C835 C841 1.491 1_565 S
C836 H827 0.950 . S
C836 C835 1.398 . S
C836 C837 1.391 . S
C837 H825 0.950 . S
C837 C833 1.393 . S
C837 C836 1.391 . S
C838 H828 0.950 . S
C838 C839 1.386 1_565 S
C838 C840 1.391 . S
C839 C838 1.386 1_545 S
C839 C843 1.393 . S
C840 H829 0.950 . S
C840 C838 1.391 . S
C840 C841 1.400 1_565 S
C841 C835 1.491 1_545 S
C841 C840 1.400 1_545 S
C841 C842 1.398 . S
C842 H830 0.950 . S
C842 C841 1.398 . S
C842 C843 1.391 . S
C843 H831 0.950 . S
C843 C839 1.393 . S
C843 C842 1.391 . S
H844 C852 0.950 . S
H845 C857 0.950 . S
H846 C854 0.950 . S
H847 C856 0.950 . S
H848 C858 0.950 . S
H849 C860 0.950 . S
H850 C862 0.950 . S
H851 C863 0.950 . S
C852 H844 0.950 . S
C852 C853 1.386 . S
C852 C854 1.391 . S
C853 C852 1.386 . S
C853 C857 1.393 1_554 S
C854 H846 0.950 . S
C854 C852 1.391 . S
C854 C855 1.400 . S
C855 C854 1.400 . S
C855 C856 1.398 1_554 S
C855 C861 1.491 . S
C856 H847 0.950 . S
C856 C855 1.398 1_556 S
C856 C857 1.391 . S
C857 H845 0.950 . S
C857 C853 1.393 1_556 S
C857 C856 1.391 . S
C858 H848 0.950 . S
C858 C859 1.386 1_556 S
C858 C860 1.391 . S
C859 C858 1.386 1_554 S
C859 C863 1.393 . S
C860 H849 0.950 . S
C860 C858 1.391 . S
C860 C861 1.400 1_556 S
C861 C855 1.491 . S
C861 C860 1.400 1_554 S
C861 C862 1.398 . S
C862 H850 0.950 . S
C862 C861 1.398 . S
C862 C863 1.391 . S
C863 H851 0.950 . S
C863 C859 1.393 . S
C863 C862 1.391 . S
H864 C872 0.950 . S
H865 C877 0.950 . S
H866 C874 0.950 . S
H867 C876 0.950 . S
H868 C878 0.950 . S
H869 C880 0.950 . S
H870 C882 0.950 . S
H871 C883 0.950 . S
C872 H864 0.950 . S
C872 C873 1.386 . S
C872 C874 1.391 . S
C873 C872 1.386 . S
C873 C877 1.393 . S
C874 H866 0.950 . S
C874 C872 1.391 . S
C874 C875 1.400 . S
C875 C874 1.400 . S
C875 C876 1.398 . S
C875 C881 1.491 1_565 S
C876 H867 0.950 . S
C876 C875 1.398 . S
C876 C877 1.391 . S
C877 H865 0.950 . S
C877 C873 1.393 . S
C877 C876 1.391 . S
C878 H868 0.950 . S
C878 C879 1.386 . S
C878 C880 1.391 . S
C879 C878 1.386 . S
C879 C883 1.393 . S
C880 H869 0.950 . S
C880 C878 1.391 . S
C880 C881 1.400 . S
C881 C875 1.491 1_545 S
C881 C880 1.400 . S
C881 C882 1.398 . S
C882 H870 0.950 . S
C882 C881 1.398 . S
C882 C883 1.391 . S
C883 H871 0.950 . S
C883 C879 1.393 . S
C883 C882 1.391 . S
H884 C892 0.950 . S
H885 C897 0.950 . S
H886 C894 0.950 . S
H887 C896 0.950 . S
H888 C898 0.950 . S
H889 C900 0.950 . S
H890 C902 0.950 . S
H891 C903 0.950 . S
C892 H884 0.950 . S
C892 C893 1.386 . S
C892 C894 1.391 . S
C893 C892 1.386 . S
C893 C897 1.393 . S
C894 H886 0.950 . S
C894 C892 1.391 . S
C894 C895 1.400 . S
C895 C894 1.400 . S
C895 C896 1.398 . S
C895 C901 1.491 . S
C896 H887 0.950 . S
C896 C895 1.398 . S
C896 C897 1.391 . S
C897 H885 0.950 . S
C897 C893 1.393 . S
C897 C896 1.391 . S
C898 H888 0.950 . S
C898 C899 1.386 . S
C898 C900 1.391 . S
C899 C898 1.386 . S
C899 C903 1.393 . S
C900 H889 0.950 . S
C900 C898 1.391 . S
C900 C901 1.400 . S
C901 C895 1.491 . S
C901 C900 1.400 . S
C901 C902 1.398 . S
C902 H890 0.950 . S
C902 C901 1.398 . S
C902 C903 1.391 . S
C903 H891 0.950 . S
C903 C899 1.393 . S
C903 C902 1.391 . S
H904 C912 0.950 . S
H905 C917 0.950 . S
H906 C914 0.950 . S
H907 C916 0.950 . S
H908 C918 0.950 . S
H909 C920 0.950 . S
H910 C922 0.950 . S
H911 C923 0.950 . S
C912 H904 0.950 . S
C912 C913 1.386 . S
C912 C914 1.391 . S
C913 C912 1.386 . S
C913 C917 1.393 . S
C914 H906 0.950 . S
C914 C912 1.391 . S
C914 C915 1.400 . S
C915 C914 1.400 . S
C915 C916 1.398 . S
C915 C921 1.491 1_655 S
C916 H907 0.950 . S
C916 C915 1.398 . S
C916 C917 1.391 . S
C917 H905 0.950 . S
C917 C913 1.393 . S
C917 C916 1.391 . S
C918 H908 0.950 . S
C918 C919 1.386 . S
C918 C920 1.391 . S
C919 C918 1.386 . S
C919 C923 1.393 . S
C920 H909 0.950 . S
C920 C918 1.391 . S
C920 C921 1.400 . S
C921 C915 1.491 1_455 S
C921 C920 1.400 . S
C921 C922 1.398 . S
C922 H910 0.950 . S
C922 C921 1.398 . S
C922 C923 1.391 . S
C923 H911 0.950 . S
C923 C919 1.393 . S
C923 C922 1.391 . S
H924 C932 0.950 . S
H925 C937 0.950 . S
H926 C934 0.950 . S
H927 C936 0.950 . S
H928 C938 0.950 . S
H929 C940 0.950 . S
H930 C942 0.950 . S
H931 C943 0.950 . S
C932 H924 0.950 . S
C932 C933 1.386 . S
C932 C934 1.391 . S
C933 C932 1.386 . S
C933 C937 1.393 . S
C934 H926 0.950 . S
C934 C932 1.391 . S
C934 C935 1.400 . S
C935 C934 1.400 . S
C935 C936 1.398 . S
C935 C941 1.491 1_545 S
C936 H927 0.950 . S
C936 C935 1.398 . S
C936 C937 1.391 . S
C937 H925 0.950 . S
C937 C933 1.393 . S
C937 C936 1.391 . S
C938 H928 0.950 . S
C938 C939 1.386 . S
C938 C940 1.391 . S
C939 C938 1.386 . S
C939 C943 1.393 . S
C940 H929 0.950 . S
C940 C938 1.391 . S
C940 C941 1.400 . S
C941 C935 1.491 1_565 S
C941 C940 1.400 . S
C941 C942 1.398 . S
C942 H930 0.950 . S
C942 C941 1.398 . S
C942 C943 1.391 . S
C943 H931 0.950 . S
C943 C939 1.393 . S
C943 C942 1.391 . S
H944 C952 0.950 . S
H945 C957 0.950 . S
H946 C954 0.950 . S
H947 C956 0.950 . S
H948 C958 0.950 . S
H949 C960 0.950 . S
H950 C962 0.950 . S
H951 C963 0.950 . S
C952 H944 0.950 . S
C952 C953 1.386 . S
C952 C954 1.391 . S
C953 C952 1.386 . S
C953 C957 1.393 . S
C954 H946 0.950 . S
C954 C952 1.391 . S
C954 C955 1.400 . S
C955 C954 1.400 . S
C955 C956 1.398 . S
C955 C961 1.491 . S
C956 H947 0.950 . S
C956 C955 1.398 . S
C956 C957 1.391 . S
C957 H945 0.950 . S
C957 C953 1.393 . S
C957 C956 1.391 . S
C958 H948 0.950 . S
C958 C959 1.386 . S
C958 C960 1.391 . S
C959 C958 1.386 . S
C959 C963 1.393 . S
C960 H949 0.950 . S
C960 C958 1.391 . S
C960 C961 1.400 . S
C961 C955 1.491 . S
C961 C960 1.400 . S
C961 C962 1.398 . S
C962 H950 0.950 . S
C962 C961 1.398 . S
C962 C963 1.391 . S
C963 H951 0.950 . S
C963 C959 1.393 . S
C963 C962 1.391 . S
H964 C972 0.950 . S
H965 C977 0.950 . S
H966 C974 0.950 1_655 S
H967 C976 0.950 . S
H968 C978 0.950 . S
H969 C980 0.950 1_455 S
H970 C982 0.950 . S
H971 C983 0.950 . S
C972 H964 0.950 . S
C972 C973 1.386 . S
C972 C974 1.391 . S
C973 C972 1.386 . S
C973 C977 1.393 . S
C974 H966 0.950 1_455 S
C974 C972 1.391 . S
C974 C975 1.400 . S
C975 C974 1.400 . S
C975 C976 1.398 . S
C975 C981 1.491 1_455 S
C976 H967 0.950 . S
C976 C975 1.398 . S
C976 C977 1.391 . S
C977 H965 0.950 . S
C977 C973 1.393 . S
C977 C976 1.391 . S
C978 H968 0.950 . S
C978 C979 1.386 . S
C978 C980 1.391 . S
C979 C978 1.386 . S
C979 C983 1.393 . S
C980 H969 0.950 1_655 S
C980 C978 1.391 . S
C980 C981 1.400 . S
C981 C975 1.491 1_655 S
C981 C980 1.400 . S
C981 C982 1.398 . S
C982 H970 0.950 . S
C982 C981 1.398 . S
C982 C983 1.391 . S
C983 H971 0.950 . S
C983 C979 1.393 . S
C983 C982 1.391 . S
H984 C992 0.950 . S
H985 C997 0.950 . S
H986 C994 0.950 . S
H987 C996 0.950 . S
H988 C998 0.950 . S
H989 C1000 0.950 . S
H990 C1002 0.950 . S
H991 C1003 0.950 . S
C992 H984 0.950 . S
C992 C993 1.386 . S
C992 C994 1.391 . S
C993 C992 1.386 . S
C993 C997 1.393 . S
C994 H986 0.950 . S
C994 C992 1.391 . S
C994 C995 1.400 . S
C995 C994 1.400 . S
C995 C996 1.398 . S
C995 C1001 1.491 . S
C996 H987 0.950 . S
C996 C995 1.398 . S
C996 C997 1.391 . S
C997 H985 0.950 . S
C997 C993 1.393 . S
C997 C996 1.391 . S
C998 H988 0.950 . S
C998 C999 1.386 . S
C998 C1000 1.391 . S
C999 C998 1.386 . S
C999 C1003 1.393 . S
C1000 H989 0.950 . S
C1000 C998 1.391 . S
C1000 C1001 1.400 . S
C1001 C995 1.491 . S
C1001 C1000 1.400 . S
C1001 C1002 1.398 . S
C1002 H990 0.950 . S
C1002 C1001 1.398 . S
C1002 C1003 1.391 . S
C1003 H991 0.950 . S
C1003 C999 1.393 . S
C1003 C1002 1.391 . S
H1004 C1012 0.950 . S
H1005 C1017 0.950 . S
H1006 C1014 0.950 . S
H1007 C1016 0.950 . S
H1008 C1018 0.950 . S
H1009 C1020 0.950 . S
H1010 C1022 0.950 . S
H1011 C1023 0.950 . S
C1012 H1004 0.950 . S
C1012 C1013 1.386 . S
C1012 C1014 1.391 . S
C1013 C1012 1.386 . S
C1013 C1017 1.393 . S
C1014 H1006 0.950 . S
C1014 C1012 1.391 . S
C1014 C1015 1.400 . S
C1015 C1014 1.400 . S
C1015 C1016 1.398 . S
C1015 C1021 1.491 . S
C1016 H1007 0.950 . S
C1016 C1015 1.398 . S
C1016 C1017 1.391 . S
C1017 H1005 0.950 . S
C1017 C1013 1.393 . S
C1017 C1016 1.391 . S
C1018 H1008 0.950 . S
C1018 C1019 1.386 . S
C1018 C1020 1.391 . S
C1019 C1018 1.386 . S
C1019 C1023 1.393 . S
C1020 H1009 0.950 . S
C1020 C1018 1.391 . S
C1020 C1021 1.400 . S
C1021 C1015 1.491 . S
C1021 C1020 1.400 . S
C1021 C1022 1.398 . S
C1022 H1010 0.950 . S
C1022 C1021 1.398 . S
C1022 C1023 1.391 . S
C1023 H1011 0.950 . S
C1023 C1019 1.393 . S
C1023 C1022 1.391 . S
H1024 C1032 0.950 . S
H1025 C1037 0.950 . S
H1026 C1034 0.950 . S
H1027 C1036 0.950 . S
H1028 C1038 0.950 . S
H1029 C1040 0.950 . S
H1030 C1042 0.950 . S
H1031 C1043 0.950 . S
C1032 H1024 0.950 . S
C1032 C1033 1.386 . S
C1032 C1034 1.391 . S
C1033 C1032 1.386 . S
C1033 C1037 1.393 . S
C1034 H1026 0.950 . S
C1034 C1032 1.391 . S
C1034 C1035 1.400 . S
C1035 C1034 1.400 . S
C1035 C1036 1.398 . S
C1035 C1041 1.491 . S
C1036 H1027 0.950 . S
C1036 C1035 1.398 . S
C1036 C1037 1.391 . S
C1037 H1025 0.950 . S
C1037 C1033 1.393 . S
C1037 C1036 1.391 . S
C1038 H1028 0.950 . S
C1038 C1039 1.386 . S
C1038 C1040 1.391 . S
C1039 C1038 1.386 . S
C1039 C1043 1.393 . S
C1040 H1029 0.950 . S
C1040 C1038 1.391 . S
C1040 C1041 1.400 . S
C1041 C1035 1.491 . S
C1041 C1040 1.400 . S
C1041 C1042 1.398 . S
C1042 H1030 0.950 . S
C1042 C1041 1.398 . S
C1042 C1043 1.391 . S
C1043 H1031 0.950 . S
C1043 C1039 1.393 . S
C1043 C1042 1.391 . S
H1044 C1052 0.950 . S
H1045 C1057 0.950 . S
H1046 C1054 0.950 . S
H1047 C1056 0.950 . S
H1048 C1058 0.950 . S
H1049 C1060 0.950 . S
H1050 C1062 0.950 . S
H1051 C1063 0.950 . S
C1052 H1044 0.950 . S
C1052 C1053 1.386 . S
C1052 C1054 1.391 . S
C1053 C1052 1.386 . S
C1053 C1057 1.393 . S
C1054 H1046 0.950 . S
C1054 C1052 1.391 . S
C1054 C1055 1.400 . S
C1055 C1054 1.400 . S
C1055 C1056 1.398 . S
C1055 C1061 1.491 . S
C1056 H1047 0.950 . S
C1056 C1055 1.398 . S
C1056 C1057 1.391 . S
C1057 H1045 0.950 . S
C1057 C1053 1.393 . S
C1057 C1056 1.391 . S
C1058 H1048 0.950 . S
C1058 C1059 1.386 . S
C1058 C1060 1.391 . S
C1059 C1058 1.386 . S
C1059 C1063 1.393 . S
C1060 H1049 0.950 . S
C1060 C1058 1.391 . S
C1060 C1061 1.400 . S
C1061 C1055 1.491 . S
C1061 C1060 1.400 . S
C1061 C1062 1.398 . S
C1062 H1050 0.950 . S
C1062 C1061 1.398 . S
C1062 C1063 1.391 . S
C1063 H1051 0.950 . S
C1063 C1059 1.393 . S
C1063 C1062 1.391 . S
H1064 C1072 0.950 . S
H1065 C1077 0.950 . S
H1066 C1074 0.950 . S
H1067 C1076 0.950 . S
H1068 C1078 0.950 . S
H1069 C1080 0.950 . S
H1070 C1082 0.950 . S
H1071 C1083 0.950 . S
C1072 H1064 0.950 . S
C1072 C1073 1.386 . S
C1072 C1074 1.391 . S
C1073 C1072 1.386 . S
C1073 C1077 1.393 . S
C1074 H1066 0.950 . S
C1074 C1072 1.391 . S
C1074 C1075 1.400 . S
C1075 C1074 1.400 . S
C1075 C1076 1.398 . S
C1075 C1081 1.491 . S
C1076 H1067 0.950 . S
C1076 C1075 1.398 . S
C1076 C1077 1.391 . S
C1077 H1065 0.950 . S
C1077 C1073 1.393 . S
C1077 C1076 1.391 . S
C1078 H1068 0.950 . S
C1078 C1079 1.386 . S
C1078 C1080 1.391 . S
C1079 C1078 1.386 . S
C1079 C1083 1.393 . S
C1080 H1069 0.950 . S
C1080 C1078 1.391 . S
C1080 C1081 1.400 . S
C1081 C1075 1.491 . S
C1081 C1080 1.400 . S
C1081 C1082 1.398 . S
C1082 H1070 0.950 . S
C1082 C1081 1.398 . S
C1082 C1083 1.391 . S
C1083 H1071 0.950 . S
C1083 C1079 1.393 . S
C1083 C1082 1.391 . S
H1084 C1092 0.950 . S
H1085 C1097 0.950 . S
H1086 C1094 0.950 . S
H1087 C1096 0.950 . S
H1088 C1098 0.950 . S
H1089 C1100 0.950 . S
H1090 C1102 0.950 . S
H1091 C1103 0.950 . S
C1092 H1084 0.950 . S
C1092 C1093 1.386 . S
C1092 C1094 1.391 . S
C1093 C1092 1.386 . S
C1093 C1097 1.393 . S
C1094 H1086 0.950 . S
C1094 C1092 1.391 . S
C1094 C1095 1.400 . S
C1095 C1094 1.400 . S
C1095 C1096 1.398 . S
C1095 C1101 1.491 . S
C1096 H1087 0.950 . S
C1096 C1095 1.398 . S
C1096 C1097 1.391 . S
C1097 H1085 0.950 . S
C1097 C1093 1.393 . S
C1097 C1096 1.391 . S
C1098 H1088 0.950 . S
C1098 C1099 1.386 . S
C1098 C1100 1.391 . S
C1099 C1098 1.386 . S
C1099 C1103 1.393 . S
C1100 H1089 0.950 . S
C1100 C1098 1.391 . S
C1100 C1101 1.400 . S
C1101 C1095 1.491 . S
C1101 C1100 1.400 . S
C1101 C1102 1.398 . S
C1102 H1090 0.950 . S
C1102 C1101 1.398 . S
C1102 C1103 1.391 . S
C1103 H1091 0.950 . S
C1103 C1099 1.393 . S
C1103 C1102 1.391 . S
C393 N13 1.204 . S
C399 N274 1.202 . S
C413 N50 1.204 . S
C419 N306 1.202 . S
C433 N82 1.204 . S
C439 N333 1.206 . S
C453 N370 1.203 . S
C459 N114 1.201 . S
C473 N146 1.204 . S
C479 N210 1.207 . S
C493 N237 1.201 . S
C499 N173 1.201 . S
C513 C326 2.299 . S
C519 C6 2.303 . S
C533 C354 2.291 . S
C539 C34 2.303 . S
C553 C66 2.299 . S
C559 C194 2.291 . S
C573 C230 2.297 . S
C579 C98 2.292 . S
C593 C258 2.302 . S
C599 C130 2.291 . S
C613 C166 2.297 . S
C619 C290 2.292 . S
C633 C253 1.855 . S
C639 C29 1.839 . S
C653 C260 1.856 . S
C659 C36 1.853 . S
C673 C292 1.850 . S
C679 C68 1.838 . S
C693 C100 1.848 . S
C699 C349 1.858 . S
C713 C132 1.838 . S
C719 C356 1.852 . S
C733 C189 1.858 . S
C739 C196 1.846 . S
C753 N18 2.238 . S
C759 N109 2.256 . S
C773 N45 2.235 . S
C779 N141 2.252 . S
C793 N77 2.251 . S
C799 N178 2.252 . S
C813 N301 2.255 . S
C819 N205 2.247 . S
C833 N242 2.236 . S
C839 N338 2.255 . S
C853 N365 2.237 . S
C859 N269 2.246 . S
C873 C228 1.521 . S
C879 C4 1.520 . S
C893 C285 1.511 . S
C899 C61 1.496 . S
C913 C93 1.498 . S
C919 C317 1.505 . S
C933 C324 1.524 . S
C939 C125 1.515 . S
C953 C381 1.523 . S
C959 C157 1.505 . S
C973 C164 1.503 . S
C979 C221 1.522 . S
C993 C2 1.752 . S
C999 C322 1.761 . S
C1013 C38 1.757 . S
C1019 C358 1.754 . S
C1033 C70 1.761 . S
C1039 C198 1.752 . S
C1053 C102 1.770 . S
C1059 C226 1.753 . S
C1073 C134 1.768 . S
C1079 C262 1.770 . S
C1093 C294 1.759 . S
C1099 C162 1.753 . S
