# Generated by pormake.
# Topology lcs, (4)-cn, num edge types: 1
# Building blocks:
#     Node 0, Type 0, BuildingBlock: QUQFOY_clean_sbu_3, # of connection points: 4
#     Node 1, Type 0, BuildingBlock: QUQFOY_clean_sbu_3, # of connection points: 4
#     Node 2, Type 0, BuildingBlock: QUQFOY_clean_sbu_3, # of connection points: 4
#     Node 3, Type 0, BuildingBlock: QUQFOY_clean_sbu_3, # of connection points: 4
#     Node 4, Type 0, BuildingBlock: QUQFOY_clean_sbu_3, # of connection points: 4
#     Node 5, Type 0, BuildingBlock: QUQFOY_clean_sbu_3, # of connection points: 4
#     Node 6, Type 0, BuildingBlock: QUQFOY_clean_sbu_3, # of connection points: 4
#     Node 7, Type 0, BuildingBlock: QUQFOY_clean_sbu_3, # of connection points: 4
#     Node 8, Type 0, BuildingBlock: QUQFOY_clean_sbu_3, # of connection points: 4
#     Node 9, Type 0, BuildingBlock: QUQFOY_clean_sbu_3, # of connection points: 4
#     Node 10, Type 0, BuildingBlock: QUQFOY_clean_sbu_3, # of connection points: 4
#     Node 11, Type 0, BuildingBlock: QUQFOY_clean_sbu_3, # of connection points: 4
#     Node 12, Type 0, BuildingBlock: QUQFOY_clean_sbu_3, # of connection points: 4
#     Node 13, Type 0, BuildingBlock: QUQFOY_clean_sbu_3, # of connection points: 4
#     Node 14, Type 0, BuildingBlock: QUQFOY_clean_sbu_3, # of connection points: 4
#     Node 15, Type 0, BuildingBlock: QUQFOY_clean_sbu_3, # of connection points: 4
#     Node 16, Type 0, BuildingBlock: QUQFOY_clean_sbu_3, # of connection points: 4
#     Node 17, Type 0, BuildingBlock: QUQFOY_clean_sbu_3, # of connection points: 4
#     Node 18, Type 0, BuildingBlock: QUQFOY_clean_sbu_3, # of connection points: 4
#     Node 19, Type 0, BuildingBlock: QUQFOY_clean_sbu_3, # of connection points: 4
#     Node 20, Type 0, BuildingBlock: QUQFOY_clean_sbu_3, # of connection points: 4
#     Node 21, Type 0, BuildingBlock: QUQFOY_clean_sbu_3, # of connection points: 4
#     Node 22, Type 0, BuildingBlock: QUQFOY_clean_sbu_3, # of connection points: 4
#     Node 23, Type 0, BuildingBlock: QUQFOY_clean_sbu_3, # of connection points: 4
#     Edge 24, Type (0, 0), BuildingBlock: TEMPAE_clean_linker_10, # of connection points: 2
#     Edge 25, Type (0, 0), BuildingBlock: TEMPAE_clean_linker_10, # of connection points: 2
#     Edge 26, Type (0, 0), BuildingBlock: TEMPAE_clean_linker_10, # of connection points: 2
#     Edge 27, Type (0, 0), BuildingBlock: TEMPAE_clean_linker_10, # of connection points: 2
#     Edge 28, Type (0, 0), BuildingBlock: TEMPAE_clean_linker_10, # of connection points: 2
#     Edge 29, Type (0, 0), BuildingBlock: TEMPAE_clean_linker_10, # of connection points: 2
#     Edge 30, Type (0, 0), BuildingBlock: TEMPAE_clean_linker_10, # of connection points: 2
#     Edge 31, Type (0, 0), BuildingBlock: TEMPAE_clean_linker_10, # of connection points: 2
#     Edge 32, Type (0, 0), BuildingBlock: TEMPAE_clean_linker_10, # of connection points: 2
#     Edge 33, Type (0, 0), BuildingBlock: TEMPAE_clean_linker_10, # of connection points: 2
#     Edge 34, Type (0, 0), BuildingBlock: TEMPAE_clean_linker_10, # of connection points: 2
#     Edge 35, Type (0, 0), BuildingBlock: TEMPAE_clean_linker_10, # of connection points: 2
#     Edge 36, Type (0, 0), BuildingBlock: TEMPAE_clean_linker_10, # of connection points: 2
#     Edge 37, Type (0, 0), BuildingBlock: TEMPAE_clean_linker_10, # of connection points: 2
#     Edge 38, Type (0, 0), BuildingBlock: TEMPAE_clean_linker_10, # of connection points: 2
#     Edge 39, Type (0, 0), BuildingBlock: TEMPAE_clean_linker_10, # of connection points: 2
#     Edge 40, Type (0, 0), BuildingBlock: TEMPAE_clean_linker_10, # of connection points: 2
#     Edge 41, Type (0, 0), BuildingBlock: TEMPAE_clean_linker_10, # of connection points: 2
#     Edge 42, Type (0, 0), BuildingBlock: TEMPAE_clean_linker_10, # of connection points: 2
#     Edge 43, Type (0, 0), BuildingBlock: TEMPAE_clean_linker_10, # of connection points: 2
#     Edge 44, Type (0, 0), BuildingBlock: TEMPAE_clean_linker_10, # of connection points: 2
#     Edge 45, Type (0, 0), BuildingBlock: TEMPAE_clean_linker_10, # of connection points: 2
#     Edge 46, Type (0, 0), BuildingBlock: TEMPAE_clean_linker_10, # of connection points: 2
#     Edge 47, Type (0, 0), BuildingBlock: TEMPAE_clean_linker_10, # of connection points: 2
#     Edge 48, Type (0, 0), BuildingBlock: TEMPAE_clean_linker_10, # of connection points: 2
#     Edge 49, Type (0, 0), BuildingBlock: TEMPAE_clean_linker_10, # of connection points: 2
#     Edge 50, Type (0, 0), BuildingBlock: TEMPAE_clean_linker_10, # of connection points: 2
#     Edge 51, Type (0, 0), BuildingBlock: TEMPAE_clean_linker_10, # of connection points: 2
#     Edge 52, Type (0, 0), BuildingBlock: TEMPAE_clean_linker_10, # of connection points: 2
#     Edge 53, Type (0, 0), BuildingBlock: TEMPAE_clean_linker_10, # of connection points: 2
#     Edge 54, Type (0, 0), BuildingBlock: TEMPAE_clean_linker_10, # of connection points: 2
#     Edge 55, Type (0, 0), BuildingBlock: TEMPAE_clean_linker_10, # of connection points: 2
#     Edge 56, Type (0, 0), BuildingBlock: TEMPAE_clean_linker_10, # of connection points: 2
#     Edge 57, Type (0, 0), BuildingBlock: TEMPAE_clean_linker_10, # of connection points: 2
#     Edge 58, Type (0, 0), BuildingBlock: TEMPAE_clean_linker_10, # of connection points: 2
#     Edge 59, Type (0, 0), BuildingBlock: TEMPAE_clean_linker_10, # of connection points: 2
#     Edge 60, Type (0, 0), BuildingBlock: TEMPAE_clean_linker_10, # of connection points: 2
#     Edge 61, Type (0, 0), BuildingBlock: TEMPAE_clean_linker_10, # of connection points: 2
#     Edge 62, Type (0, 0), BuildingBlock: TEMPAE_clean_linker_10, # of connection points: 2
#     Edge 63, Type (0, 0), BuildingBlock: TEMPAE_clean_linker_10, # of connection points: 2
#     Edge 64, Type (0, 0), BuildingBlock: TEMPAE_clean_linker_10, # of connection points: 2
#     Edge 65, Type (0, 0), BuildingBlock: TEMPAE_clean_linker_10, # of connection points: 2
#     Edge 66, Type (0, 0), BuildingBlock: TEMPAE_clean_linker_10, # of connection points: 2
#     Edge 67, Type (0, 0), BuildingBlock: TEMPAE_clean_linker_10, # of connection points: 2
#     Edge 68, Type (0, 0), BuildingBlock: TEMPAE_clean_linker_10, # of connection points: 2
#     Edge 69, Type (0, 0), BuildingBlock: TEMPAE_clean_linker_10, # of connection points: 2
#     Edge 70, Type (0, 0), BuildingBlock: TEMPAE_clean_linker_10, # of connection points: 2
#     Edge 71, Type (0, 0), BuildingBlock: TEMPAE_clean_linker_10, # of connection points: 2
# Relax obj value: 0.004
# Max RMSD: 0.037
# Mean RMSD: 0.027
data_MOF--net-lcs--node1-QUQFOY_clean_sbu_3--edge1-TEMPAE_clean_linker_10
_symmetry_space_group_name_H-M    P1
_symmetry_Int_Tables_number       1
_symmetry_cell_setting            triclinic
loop_
_symmetry_equiv_pos_as_xyz
'x, y, z'
_cell_length_a     50.677632
_cell_length_b     51.666877
_cell_length_c     51.686989
_cell_angle_alpha  91.532426
_cell_angle_beta   89.975846
_cell_angle_gamma 91.212283
loop_
_atom_site_label
_atom_site_type_symbol
_atom_site_fract_x
_atom_site_fract_y
_atom_site_fract_z
_atom_type_partial_charge
C0 C 0.95877 0.25018 0.42546 0.0
O1 O 0.96884 0.23347 0.43988 0.0
Cd2 Cd 0.00868 0.2112 0.43 0.0
O3 O 0.9704 0.25745 0.40495 0.0
Cd4 Cd 0.01194 0.25058 0.38131 0.0
C5 C -0.00595 0.18815 0.36832 0.0
O6 O 0.0384 0.24547 0.41914 0.0
O7 O 0.05846 0.23813 0.38303 0.0
O8 O 0.01617 0.29662 0.37429 0.0
C9 C 0.05947 0.23953 0.40753 0.0
O10 O -0.00226 0.18353 0.39213 0.0
C11 C 0.01846 0.29429 0.34987 0.0
O12 O -0.00292 0.2109 0.35984 0.0
O13 O 0.01682 0.27152 0.34004 0.0
C14 C 0.95695 0.75674 0.58064 0.0
O15 O 0.97837 0.75714 0.56789 0.0
Cd16 Cd 0.01869 0.742 0.58532 0.0
O17 O 0.95571 0.74661 0.60282 0.0
Cd18 Cd 0.98299 0.72299 0.63337 0.0
C19 C 0.02074 0.77672 0.6433 0.0
O20 O 0.00736 0.69997 0.6007 0.0
O21 O 0.02228 0.69666 0.63943 0.0
O22 O 0.94626 0.69324 0.63937 0.0
C23 C 0.02388 0.6901 0.61568 0.0
O24 O 0.02977 0.77306 0.62051 0.0
C25 C 0.946 0.69537 0.66389 0.0
O26 O 0.00301 0.76174 0.65239 0.0
O27 O 0.96275 0.71102 0.67435 0.0
C28 C 0.46 0.75788 0.92442 0.0
O29 O 0.46821 0.73761 0.93491 0.0
Cd30 Cd 0.5092 0.71727 0.92526 0.0
O31 O 0.47297 0.7688 0.90647 0.0
Cd32 Cd 0.51342 0.76175 0.88117 0.0
C33 C 0.49539 0.70024 0.8623 0.0
O34 O 0.53922 0.75259 0.91843 0.0
O35 O 0.55989 0.74896 0.88216 0.0
O36 O 0.51924 0.80817 0.87682 0.0
C37 C 0.56048 0.74781 0.90661 0.0
O38 O 0.49974 0.69313 0.88528 0.0
C39 C 0.52072 0.80719 0.85228 0.0
O40 O 0.49772 0.72391 0.85634 0.0
O41 O 0.51804 0.78504 0.84125 0.0
C42 C 0.46007 0.26235 0.07283 0.0
O43 O 0.48193 0.26461 0.061 0.0
Cd44 Cd 0.52282 0.25237 0.07962 0.0
O45 O 0.45881 0.25198 0.09489 0.0
Cd46 Cd 0.48742 0.23074 0.12604 0.0
C47 C 0.52116 0.28672 0.13747 0.0
O48 O 0.51476 0.20933 0.09429 0.0
O49 O 0.52831 0.20769 0.1337 0.0
O50 O 0.45328 0.19811 0.13257 0.0
C51 C 0.5313 0.20089 0.11016 0.0
O52 O 0.53128 0.28392 0.11503 0.0
C53 C 0.45269 0.20101 0.15703 0.0
O54 O 0.50407 0.27057 0.14569 0.0
O55 O 0.46792 0.21835 0.16706 0.0
C56 C 0.95559 0.72349 0.08704 0.0
O57 O 0.96123 0.74243 0.07272 0.0
Cd58 Cd -0.00392 0.77325 0.0812 0.0
O59 O 0.96911 0.71924 0.1072 0.0
Cd60 Cd 0.00874 0.73583 0.13028 0.0
C61 C 0.98098 0.79332 0.14393 0.0
O62 O 0.03143 0.74603 0.09131 0.0
O63 O 0.05212 0.75802 0.12608 0.0
O64 O 0.01982 0.69121 0.1349 0.0
C65 C 0.05162 0.75672 0.10154 0.0
O66 O 0.98297 0.79796 0.1199 0.0
C67 C 0.02302 0.69253 0.15924 0.0
O68 O 0.98785 0.7717 0.15272 0.0
O69 O 0.01942 0.71435 0.17046 0.0
C70 C 0.44013 0.74236 0.42324 0.0
O71 O 0.45932 0.73714 0.43785 0.0
Cd72 Cd 0.5038 0.73732 0.42263 0.0
O73 O 0.44414 0.75028 0.40043 0.0
Cd74 Cd 0.48084 0.763 0.37183 0.0
C75 C 0.49647 0.70033 0.3662 0.0
O76 O 0.51145 0.77886 0.40468 0.0
O77 O 0.52752 0.77311 0.36624 0.0
O78 O 0.45942 0.80327 0.36463 0.0
C79 C 0.53089 0.78116 0.38941 0.0
O80 O 0.50458 0.70259 0.3895 0.0
C81 C 0.45901 0.80108 0.34013 0.0
O82 O 0.48619 0.71928 0.35495 0.0
O83 O 0.46815 0.78042 0.33005 0.0
C84 C 0.45705 0.23793 0.58766 0.0
O85 O 0.46189 0.25711 0.57338 0.0
Cd86 Cd 0.49645 0.28847 0.58071 0.0
O87 O 0.47122 0.23373 0.6074 0.0
Cd88 Cd 0.51109 0.25079 0.62987 0.0
C89 C 0.48307 0.30823 0.64398 0.0
O90 O 0.53191 0.26131 0.59023 0.0
O91 O 0.55463 0.27258 0.62396 0.0
O92 O 0.52268 0.20626 0.63467 0.0
C93 C 0.55265 0.27183 0.59949 0.0
O94 O 0.48416 0.31282 0.61988 0.0
C95 C 0.52607 0.20779 0.65899 0.0
O96 O 0.4906 0.28677 0.65262 0.0
O97 O 0.52243 0.22968 0.67006 0.0
C98 C 0.9547 0.23656 0.91929 0.0
O99 O 0.97521 0.23192 0.93231 0.0
Cd100 Cd 0.01809 0.23406 0.91325 0.0
O101 O 0.95654 0.24484 0.89636 0.0
Cd102 Cd 0.98981 0.25935 0.86486 0.0
C103 C 0.00727 0.19746 0.85696 0.0
O104 O 0.02198 0.27621 0.89563 0.0
O105 O 0.0353 0.27243 0.85599 0.0
O106 O 0.96498 0.29817 0.86102 0.0
C107 C 0.03999 0.28008 0.87908 0.0
O108 O 0.01707 0.19979 0.87962 0.0
C109 C 0.96279 0.2969 0.83657 0.0
O110 O -0.00446 0.21615 0.8467 0.0
O111 O 0.97265 0.27738 0.82494 0.0
C112 C 0.39904 0.95815 0.2498 0.0
O113 O 0.41398 0.97204 0.23583 0.0
Cd114 Cd 0.40017 0.01265 0.21935 0.0
O115 O 0.37684 0.96637 0.25767 0.0
Cd116 Cd 0.34852 0.00448 0.25733 0.0
C117 C 0.33985 0.99206 0.19359 0.0
O118 O 0.38347 0.03651 0.25562 0.0
O119 O 0.34439 0.05075 0.24957 0.0
O120 O 0.34413 -0.00021 0.30333 0.0
C121 C 0.36897 0.05558 0.25124 0.0
O122 O 0.36373 -0.00035 0.19057 0.0
C123 C 0.31914 0.00088 0.30384 0.0
O124 O 0.32948 0.99112 0.21601 0.0
O125 O 0.30744 0.00273 0.28222 0.0
C126 C 0.20948 0.16674 0.50682 0.0
O127 O 0.21894 0.17913 0.5264 0.0
Cd128 Cd 0.25154 0.16287 0.55463 0.0
O129 O 0.21776 0.14438 0.50018 0.0
Cd130 Cd 0.25076 0.11205 0.51157 0.0
C131 C 0.22057 0.10471 0.56966 0.0
O132 O 0.28098 0.14534 0.52369 0.0
O133 O 0.29648 0.10733 0.5285 0.0
O134 O 0.25659 0.10554 0.46559 0.0
C135 C 0.29982 0.13167 0.53085 0.0
O136 O 0.22824 0.12761 0.57625 0.0
C137 C 0.25433 0.08101 0.46565 0.0
O138 O 0.22577 0.09503 0.54738 0.0
O139 O 0.25011 0.07069 0.48735 0.0
C140 C 0.05094 0.03184 0.76241 0.0
O141 O 0.03637 0.0205 0.74542 0.0
Cd142 Cd 0.05073 0.98358 0.72011 0.0
O143 O 0.07329 0.02284 0.76828 0.0
Cd144 Cd 0.10178 0.98611 0.75834 0.0
C145 C 0.10993 0.00777 0.69769 0.0
O146 O 0.06744 0.95351 0.75024 0.0
O147 O 0.10726 0.94239 0.74113 0.0
O148 O 0.11171 0.98145 0.80377 0.0
C149 C 0.08298 0.93619 0.74211 0.0
O150 O 0.08619 0.00066 0.69273 0.0
C151 C 0.13658 0.98357 0.80108 0.0
O152 O 0.1197 0.00538 0.72013 0.0
O153 O 0.14522 0.98757 0.77844 0.0
C154 C 0.28982 0.82946 0.99047 0.0
O155 O 0.27938 0.81776 0.00934 0.0
Cd156 Cd 0.2378 0.82687 0.02882 0.0
O157 O 0.27882 0.84866 0.98027 0.0
Cd158 Cd 0.23905 0.87489 0.9869 0.0
C159 C 0.25408 0.88877 0.04999 0.0
O160 O 0.21119 0.83792 -0.00679 0.0
O161 O 0.19199 0.87422 -0.00074 0.0
O162 O 0.2362 0.88145 0.94079 0.0
C163 C 0.19035 0.84971 -0.00095 0.0
O164 O 0.24805 0.86541 0.05516 0.0
C165 C 0.2349 0.90595 0.94272 0.0
O166 O 0.25368 0.89663 0.02685 0.0
O167 O 0.2365 0.91609 0.96534 0.0
C168 C 0.29049 0.32575 -0.00043 0.0
O169 O 0.27002 0.3114 0.00187 0.0
Cd170 Cd 0.22636 0.325 -0.00748 0.0
O171 O 0.28899 0.34838 0.99056 0.0
Cd172 Cd 0.25555 0.37665 0.97232 0.0
C173 C 0.22464 0.38123 0.02988 0.0
O174 O 0.2295 0.34296 0.9506 0.0
O175 O 0.21223 0.38078 0.95258 0.0
O176 O 0.28472 0.38781 0.93731 0.0
C177 C 0.21089 0.35749 0.94426 0.0
O178 O 0.21656 0.35794 0.02586 0.0
C179 C 0.28361 0.41213 0.94117 0.0
O180 O 0.23997 0.3923 0.01392 0.0
O181 O 0.27022 0.42006 0.96048 0.0
C182 C 0.77942 0.1741 0.98508 0.0
O183 O 0.75842 0.18653 0.98168 0.0
Cd184 Cd 0.716 0.16669 0.98856 0.0
O185 O 0.77858 0.1515 -0.00569 0.0
Cd186 Cd 0.74743 0.11953 0.01217 0.0
C187 C 0.72247 0.10993 0.95253 0.0
O188 O 0.71761 0.15024 0.03146 0.0
O189 O 0.70401 0.11032 0.0304 0.0
O190 O 0.77809 0.11448 0.04725 0.0
C191 C 0.7002 0.13357 0.03764 0.0
O192 O 0.71268 0.13239 0.95486 0.0
C193 C 0.77918 0.09001 0.04489 0.0
O194 O 0.73643 0.10078 0.9704 0.0
O195 O 0.76568 0.07915 0.0268 0.0
C196 C 0.17917 0.49195 0.28683 0.0
O197 O 0.1944 0.47521 0.27689 0.0
Cd198 Cd 0.181 0.45046 0.23876 0.0
O199 O 0.15799 0.49796 0.27549 0.0
Cd200 Cd 0.13253 0.49036 0.23583 0.0
C201 C 0.11792 0.43085 0.25671 0.0
O202 O 0.16912 0.48118 0.20716 0.0
O203 O 0.13012 0.47364 0.19155 0.0
O204 O 0.1297 0.53671 0.23259 0.0
C205 C 0.15488 0.4737 0.18813 0.0
O206 O 0.14197 0.42544 0.2523 0.0
C207 C 0.10468 0.537 0.23166 0.0
O208 O 0.10942 0.45344 0.25307 0.0
O209 O 0.09244 0.51533 0.23283 0.0
C210 C 0.786 0.8219 0.51254 0.0
O211 O 0.76545 0.80832 0.51717 0.0
Cd212 Cd 0.7216 0.82232 0.50918 0.0
O213 O 0.78435 0.8437 0.50181 0.0
Cd214 Cd 0.75021 0.87085 0.48335 0.0
C215 C 0.72273 0.8813 0.54177 0.0
O216 O 0.72174 0.83654 0.46563 0.0
O217 O 0.70585 0.87502 0.46644 0.0
O218 O 0.77667 0.87839 0.44539 0.0
C219 C 0.70329 0.85139 0.45952 0.0
O220 O 0.71395 0.85803 0.54012 0.0
C221 C 0.77681 0.90291 0.44772 0.0
O222 O 0.73752 0.8905 0.52424 0.0
O223 O 0.76538 0.91264 0.46746 0.0
C224 C 0.83561 -0.00082 0.29242 0.0
O225 O 0.82111 0.0146 0.28039 0.0
Cd226 Cd 0.83569 0.03304 0.24059 0.0
O227 O 0.85684 0.99089 0.28234 0.0
Cd228 Cd 0.88301 -0.00755 0.2425 0.0
C229 C 0.89808 0.0539 0.26008 0.0
O230 O 0.84725 -0.00236 0.21238 0.0
O231 O 0.88641 0.00444 0.19729 0.0
O232 O 0.88428 0.94577 0.24288 0.0
C233 C 0.86177 0.0028 0.19315 0.0
O234 O 0.87444 0.05904 0.25396 0.0
C235 C 0.90912 0.94448 0.24021 0.0
O236 O 0.90637 0.03085 0.25842 0.0
O237 O 0.92208 0.9658 0.23962 0.0
C238 C 0.26461 0.67105 0.47765 0.0
O239 O 0.24269 0.68162 0.47347 0.0
Cd240 Cd 0.20208 0.65852 0.4807 0.0
O241 O 0.26544 0.64885 0.4877 0.0
Cd242 Cd 0.23655 0.61527 0.50627 0.0
C243 C 0.21311 0.60136 0.44682 0.0
O244 O 0.2047 0.64455 0.52458 0.0
O245 O 0.19379 0.60392 0.52502 0.0
O246 O 0.2678 0.61352 0.54136 0.0
C247 C 0.18862 0.62704 0.53172 0.0
O248 O 0.20159 0.62303 0.44812 0.0
C249 C 0.27031 0.58913 0.54006 0.0
O250 O 0.22751 0.59406 0.46523 0.0
O251 O 0.25729 0.57679 0.52255 0.0
C252 C 0.33898 0.51558 0.79086 0.0
O253 O 0.32371 0.52998 0.77846 0.0
Cd254 Cd 0.33614 0.54632 0.73702 0.0
O255 O 0.36002 0.50711 0.78055 0.0
Cd256 Cd 0.38457 0.50691 0.73966 0.0
C257 C 0.39885 0.56969 0.75213 0.0
O258 O 0.34746 0.50945 0.71062 0.0
O259 O 0.38585 0.51582 0.69357 0.0
O260 O 0.38709 0.46046 0.74265 0.0
C261 C 0.36108 0.51357 0.69052 0.0
O262 O 0.37479 0.57396 0.74686 0.0
C263 C 0.41187 0.45957 0.73931 0.0
O264 O 0.40758 0.54677 0.75171 0.0
O265 O 0.42424 0.48106 0.73711 0.0
C266 C 0.68073 0.0073 0.78962 0.0
O267 O 0.69552 0.99023 0.77957 0.0
Cd268 Cd 0.68168 0.96533 0.74182 0.0
O269 O 0.65944 0.01354 0.7786 0.0
Cd270 Cd 0.6333 0.00566 0.73926 0.0
C271 C 0.61875 0.94637 0.76098 0.0
O272 O 0.66953 -0.00398 0.71052 0.0
O273 O 0.63058 0.98821 0.695 0.0
O274 O 0.63078 0.05198 0.7356 0.0
C275 C 0.65536 0.98815 0.69159 0.0
O276 O 0.64266 0.94082 0.75607 0.0
C277 C 0.60577 0.05242 0.7344 0.0
O278 O 0.61027 0.96901 0.75742 0.0
O279 O 0.59338 0.03085 0.73578 0.0
C280 C 0.70711 0.66681 0.00385 0.0
O281 O 0.7173 0.67888 0.02326 0.0
Cd282 Cd 0.74801 0.66084 0.05228 0.0
O283 O 0.71358 0.64368 -0.00216 0.0
Cd284 Cd 0.74352 0.60897 0.01034 0.0
C285 C 0.71191 0.60571 0.0682 0.0
O286 O 0.77608 0.6401 0.02214 0.0
O287 O 0.78847 0.60113 0.02797 0.0
O288 O 0.74928 0.60147 0.96452 0.0
C289 C 0.79365 0.62522 0.02986 0.0
O290 O 0.72143 0.6281 0.07424 0.0
C291 C 0.74538 0.57712 0.9648 0.0
O292 O 0.7166 0.59493 0.04628 0.0
O293 O 0.74022 0.56733 0.98658 0.0
C294 C 0.89226 0.45425 0.7537 0.0
O295 O 0.90704 0.4688 0.74024 0.0
Cd296 Cd 0.89226 0.50845 0.72279 0.0
O297 O 0.86931 0.46134 0.76062 0.0
Cd298 Cd 0.83906 0.49808 0.75882 0.0
C299 C 0.83418 0.48386 0.69498 0.0
O300 O 0.87298 0.531 0.75845 0.0
O301 O 0.83394 0.54446 0.75082 0.0
O302 O 0.83344 0.49252 0.80455 0.0
C303 C 0.85833 0.54979 0.75357 0.0
O304 O 0.85775 0.49272 0.69302 0.0
C305 C 0.80845 0.4937 0.80453 0.0
O306 O 0.82261 0.48296 0.71685 0.0
O307 O 0.79727 0.49586 0.78268 0.0
C308 C 0.7861 0.32611 0.47952 0.0
O309 O 0.77224 0.31282 0.49501 0.0
Cd310 Cd 0.73332 0.32672 0.51658 0.0
O311 O 0.77909 0.3485 0.4727 0.0
Cd312 Cd 0.74134 0.37781 0.47875 0.0
C313 C 0.75653 0.38569 0.5422 0.0
O314 O 0.709 0.34401 0.48243 0.0
O315 O 0.6947 0.38186 0.49188 0.0
O316 O 0.74026 0.38598 0.43295 0.0
C317 C 0.68995 0.35772 0.48982 0.0
O318 O 0.74848 0.36244 0.54539 0.0
C319 C 0.7404 0.4105 0.43558 0.0
O320 O 0.75694 0.39555 0.51988 0.0
O321 O 0.74237 0.41988 0.45849 0.0
C322 C 0.54392 0.53642 0.27033 0.0
O323 O 0.52934 0.52554 0.25307 0.0
Cd324 Cd 0.54371 0.49011 0.2257 0.0
O325 O 0.56674 0.52789 0.27515 0.0
Cd326 Cd 0.59608 0.49275 0.26197 0.0
C327 C 0.60101 0.51644 0.20164 0.0
O328 O 0.56254 0.45932 0.25377 0.0
O329 O 0.60236 0.44986 0.24283 0.0
O330 O 0.60912 0.48619 0.30638 0.0
C331 C 0.57831 0.44287 0.24429 0.0
O332 O 0.57734 0.50876 0.19726 0.0
C333 C 0.63367 0.48973 0.30237 0.0
O334 O 0.6116 0.51379 0.22368 0.0
O335 O 0.64062 0.49539 0.27956 0.0
C336 C 0.11016 0.3884 0.27751 0.0
C337 C 0.09992 0.41093 0.26727 0.0
C338 C 0.09362 0.37018 0.28931 0.0
C339 C 0.06614 0.37444 0.29057 0.0
C340 C 0.05551 0.39664 0.27944 0.0
C341 C 0.07258 0.41477 0.26806 0.0
C342 C 0.1057 0.34677 0.30116 0.0
C343 C 0.02624 0.40151 0.28009 0.0
C344 C 0.02755 0.31376 0.30704 0.0
C345 C 0.02574 0.31664 0.33402 0.0
C346 C 0.03894 0.33339 0.29222 0.0
C347 C 0.04899 0.35615 0.30483 0.0
C348 C 0.04549 0.3599 0.33182 0.0
C349 C 0.03372 0.34012 0.3461 0.0
C350 C 0.04183 0.329 0.26338 0.0
C351 C 0.05602 0.38392 0.34595 0.0
H352 H 0.13124 0.38533 0.27699 0.0
H353 H 0.06452 0.43205 0.25997 0.0
H354 H 0.10189 0.34701 0.32231 0.0
H355 H 0.09646 0.32876 0.29284 0.0
H356 H 0.12735 0.34605 0.29797 0.0
H357 H 0.02092 0.41849 0.26859 0.0
H358 H 0.01507 0.38424 0.27251 0.0
H359 H 0.0198 0.40501 0.30037 0.0
H360 H 0.02111 0.29574 0.29759 0.0
H361 H 0.03222 0.3425 0.36694 0.0
H362 H 0.06273 0.32489 0.25873 0.0
H363 H 0.03647 0.34658 0.25288 0.0
H364 H 0.02937 0.31242 0.25608 0.0
H365 H 0.07792 0.38386 0.34586 0.0
H366 H 0.04919 0.38509 0.36637 0.0
H367 H 0.04987 0.40159 0.33606 0.0
C368 C 0.91223 0.77514 0.58584 0.0
C369 C 0.93297 0.76763 0.56955 0.0
C370 C 0.88895 0.78481 0.57566 0.0
C371 C 0.88621 0.7865 0.54852 0.0
C372 C 0.90713 0.77912 0.53196 0.0
C373 C 0.93044 0.76999 0.54271 0.0
C374 C 0.8672 0.79299 0.59393 0.0
C375 C 0.90465 0.78031 0.5029 0.0
C376 C 0.8157 0.78629 0.52453 0.0
C377 C 0.81206 0.81264 0.5203 0.0
C378 C 0.84009 0.77739 0.53288 0.0
C379 C 0.86109 0.79538 0.53757 0.0
C380 C 0.85766 0.82197 0.53301 0.0
C381 C 0.8332 0.83027 0.52417 0.0
C382 C 0.84326 0.7488 0.53711 0.0
C383 C 0.87952 0.84174 0.53826 0.0
H384 H 0.91424 0.77356 0.60662 0.0
H385 H 0.94641 0.76405 0.53007 0.0
H386 H 0.86167 0.81323 0.59028 0.0
H387 H 0.84935 0.78057 0.59049 0.0
H388 H 0.87301 0.79164 0.61457 0.0
H389 H 0.92295 0.77429 0.49276 0.0
H390 H 0.88807 0.76749 0.49612 0.0
H391 H 0.90003 0.80027 0.49724 0.0
H392 H 0.79945 0.77259 0.52131 0.0
H393 H 0.8304 0.85069 0.52103 0.0
H394 H 0.84679 0.74549 0.55793 0.0
H395 H 0.86067 0.74161 0.5263 0.0
H396 H 0.82558 0.73719 0.53087 0.0
H397 H 0.88461 0.84212 0.55915 0.0
H398 H 0.87394 0.86154 0.53279 0.0
H399 H 0.89756 0.83634 0.52742 0.0
C400 C 0.44338 0.58809 0.76383 0.0
C401 C 0.41606 0.59127 0.76167 0.0
C402 C 0.4593 0.60687 0.77667 0.0
C403 C 0.44745 0.62899 0.78796 0.0
C404 C 0.42018 0.63308 0.78438 0.0
C405 C 0.40485 0.61425 0.77105 0.0
C406 C 0.48845 0.60224 0.77953 0.0
C407 C 0.40679 0.65634 0.79634 0.0
C408 C 0.47483 0.65733 0.85071 0.0
C409 C 0.48573 0.68097 0.84277 0.0
C410 C 0.46302 0.63989 0.83285 0.0
C411 C 0.46255 0.64605 0.80633 0.0
C412 C 0.47472 0.66924 0.79796 0.0
C413 C 0.48596 0.68662 0.81637 0.0
C414 C 0.44997 0.61543 0.84255 0.0
C415 C 0.4751 0.67608 0.76975 0.0
H416 H 0.45222 0.57051 0.75628 0.0
H417 H 0.38376 0.61687 0.76937 0.0
H418 H 0.5001 0.62021 0.77593 0.0
H419 H 0.49265 0.59653 0.79963 0.0
H420 H 0.49528 0.58664 0.76608 0.0
H421 H 0.38603 0.65788 0.78973 0.0
H422 H 0.40681 0.6549 0.81773 0.0
H423 H 0.41768 0.67443 0.79159 0.0
H424 H 0.47455 0.65287 0.87108 0.0
H425 H 0.49462 0.70477 0.81011 0.0
H426 H 0.45793 0.59823 0.83218 0.0
H427 H 0.42845 0.61569 0.83859 0.0
H428 H 0.45289 0.61314 0.86366 0.0
H429 H 0.48184 0.65943 0.75766 0.0
H430 H 0.48816 0.69313 0.76608 0.0
H431 H 0.45484 0.68053 0.76337 0.0
C432 C 0.55865 0.18228 0.07459 0.0
C433 C 0.55485 0.18708 0.10113 0.0
C434 C 0.582 0.17139 0.06537 0.0
C435 C 0.60191 0.1651 0.08317 0.0
C436 C 0.59773 0.16882 0.11006 0.0
C437 C 0.57418 0.17984 0.11875 0.0
C438 C 0.5858 0.16766 0.03652 0.0
C439 C 0.61853 0.16215 0.12955 0.0
C440 C 0.65633 0.12267 0.057 0.0
C441 C 0.67568 0.14129 0.05078 0.0
C442 C 0.63241 0.13004 0.06832 0.0
C443 C 0.62784 0.15661 0.07338 0.0
C444 C 0.64757 0.1754 0.06775 0.0
C445 C 0.6713 0.1675 0.05654 0.0
C446 C 0.61178 0.10953 0.07424 0.0
C447 C 0.64333 0.20395 0.07288 0.0
H448 H 0.54368 0.18771 0.06089 0.0
H449 H 0.57123 0.18337 0.13931 0.0
H450 H 0.60201 0.18067 0.02992 0.0
H451 H 0.59161 0.1475 0.03183 0.0
H452 H 0.56768 0.17187 0.02543 0.0
H453 H 0.61123 0.16392 0.14978 0.0
H454 H 0.62532 0.1421 0.12594 0.0
H455 H 0.63595 0.17531 0.12749 0.0
H456 H 0.65972 0.10236 0.05269 0.0
H457 H 0.68624 0.18195 0.05186 0.0
H458 H 0.59416 0.11205 0.06191 0.0
H459 H 0.60528 0.11156 0.09468 0.0
H460 H 0.61914 0.08962 0.07082 0.0
H461 H 0.6267 0.21049 0.0609 0.0
H462 H 0.66113 0.21594 0.06842 0.0
H463 H 0.63793 0.20752 0.09344 0.0
C464 C 0.06302 0.56146 0.22694 0.0
C465 C 0.09067 0.56127 0.22754 0.0
C466 C 0.04969 0.58365 0.21971 0.0
C467 C 0.06447 0.60591 0.21267 0.0
C468 C 0.0923 0.60633 0.21483 0.0
C469 C 0.10507 0.584 0.22238 0.0
C470 C 0.01995 0.58272 0.21807 0.0
C471 C 0.10875 0.62969 0.20737 0.0
C472 C 0.0387 0.64734 0.15964 0.0
C473 C 0.03159 0.66982 0.17345 0.0
C474 C 0.0487 0.62613 0.17237 0.0
C475 C 0.05138 0.62733 0.19962 0.0
C476 C 0.04325 0.64955 0.21384 0.0
C477 C 0.03357 0.67069 0.20053 0.0
C478 C 0.05733 0.6028 0.1565 0.0
C479 C 0.04548 0.65125 0.24296 0.0
H480 H 0.05178 0.544 0.23123 0.0
H481 H 0.12645 0.58403 0.22303 0.0
H482 H 0.01155 0.60066 0.22665 0.0
H483 H 0.01384 0.58144 0.19746 0.0
H484 H 0.01131 0.56577 0.22808 0.0
H485 H 0.12985 0.62786 0.21271 0.0
H486 H 0.1075 0.63211 0.18613 0.0
H487 H 0.1011 0.64753 0.21682 0.0
H488 H 0.03714 0.64652 0.13872 0.0
H489 H 0.0279 0.688 0.21128 0.0
H490 H 0.04725 0.58501 0.16339 0.0
H491 H 0.07887 0.60024 0.15887 0.0
H492 H 0.05304 0.60462 0.13556 0.0
H493 H 0.03652 0.63373 0.25163 0.0
H494 H 0.03574 0.66864 0.25128 0.0
H495 H 0.06659 0.65208 0.24863 0.0
C496 C 0.5771 0.79623 0.381 0.0
C497 C 0.55659 0.79156 0.39858 0.0
C498 C 0.60159 0.8062 0.38956 0.0
C499 C 0.60558 0.81137 0.41629 0.0
C500 C 0.58497 0.80664 0.43413 0.0
C501 C 0.56065 0.79686 0.42502 0.0
C502 C 0.62316 0.81122 0.37004 0.0
C503 C 0.58863 0.81182 0.46282 0.0
C504 C 0.6748 0.81445 0.44363 0.0
C505 C 0.67892 0.84122 0.44714 0.0
C506 C 0.65114 0.80445 0.4331 0.0
C507 C 0.63133 0.82169 0.42578 0.0
C508 C 0.63566 0.84875 0.42862 0.0
C509 C 0.65943 0.85821 0.43937 0.0
C510 C 0.64707 0.77545 0.43043 0.0
C511 C 0.61498 0.86767 0.42081 0.0
H512 H 0.57398 0.79223 0.36052 0.0
H513 H 0.54485 0.79321 0.43868 0.0
H514 H 0.62949 0.83191 0.37116 0.0
H515 H 0.64068 0.79962 0.37454 0.0
H516 H 0.61677 0.80634 0.34991 0.0
H517 H 0.57063 0.80693 0.4741 0.0
H518 H 0.6052 0.80031 0.47007 0.0
H519 H 0.59385 0.83254 0.46655 0.0
H520 H 0.68984 0.80125 0.4496 0.0
H521 H 0.66264 0.87894 0.44191 0.0
H522 H 0.64188 0.76987 0.41016 0.0
H523 H 0.63034 0.76922 0.44281 0.0
H524 H 0.66487 0.76475 0.43606 0.0
H525 H 0.60904 0.86387 0.40038 0.0
H526 H 0.62203 0.88812 0.42299 0.0
H527 H 0.59707 0.86507 0.4329 0.0
C528 C 0.46064 0.35002 0.65253 0.0
C529 C 0.4733 0.32843 0.66212 0.0
C530 C 0.4518 0.36974 0.66922 0.0
C531 C 0.45591 0.36795 0.6962 0.0
C532 C 0.46855 0.34618 0.70611 0.0
C533 C 0.47703 0.32656 0.68893 0.0
C534 C 0.43812 0.39257 0.6579 0.0
C535 C 0.47338 0.3438 0.73476 0.0
C536 C 0.45178 0.43413 0.72811 0.0
C537 C 0.42493 0.43464 0.73457 0.0
C538 C 0.46295 0.41154 0.71773 0.0
C539 C 0.44678 0.38913 0.71365 0.0
C540 C 0.42037 0.38883 0.72252 0.0
C541 C 0.40977 0.41163 0.73299 0.0
C542 C 0.49136 0.41243 0.70894 0.0
C543 C 0.40253 0.36527 0.71864 0.0
H544 H 0.45756 0.35154 0.63187 0.0
H545 H 0.48691 0.30996 0.69647 0.0
H546 H 0.41813 0.39444 0.66643 0.0
H547 H 0.44935 0.41072 0.66274 0.0
H548 H 0.43613 0.39077 0.63652 0.0
H549 H 0.48293 0.32533 0.7394 0.0
H550 H 0.4862 0.36014 0.74189 0.0
H551 H 0.45447 0.34499 0.74551 0.0
H552 H 0.4637 0.45178 0.72962 0.0
H553 H 0.38906 0.4118 0.73827 0.0
H554 H 0.49203 0.4138 0.68756 0.0
H555 H 0.50154 0.3945 0.71411 0.0
H556 H 0.50237 0.42938 0.71754 0.0
H557 H 0.39682 0.36336 0.69794 0.0
H558 H 0.38424 0.36666 0.73042 0.0
H559 H 0.41286 0.34739 0.7237 0.0
C560 C 0.925 0.22929 0.95708 0.0
C561 C 0.92838 0.23116 0.93028 0.0
C562 C 0.90035 0.22247 0.9675 0.0
C563 C 0.8789 0.21684 0.95062 0.0
C564 C 0.88205 0.21934 0.9236 0.0
C565 C 0.90673 0.22674 0.91377 0.0
C566 C 0.89749 0.22051 -0.00354 0.0
C567 C 0.85971 0.21303 0.90498 0.0
C568 C 0.82633 0.16915 0.97216 0.0
C569 C 0.80511 0.18542 0.97747 0.0
C570 C 0.85055 0.17923 0.96365 0.0
C571 C 0.85375 0.20628 0.96092 0.0
C572 C 0.83267 0.22292 0.96697 0.0
C573 C 0.80842 0.21223 0.97492 0.0
C574 C 0.87246 0.16084 0.95691 0.0
C575 C 0.83567 0.25191 0.96476 0.0
H576 H 0.94166 0.23296 0.9699 0.0
H577 H 0.90929 0.22808 0.89302 0.0
H578 H 0.88004 0.23135 0.00333 0.0
H579 H 0.89421 0.19997 0.00154 0.0
H580 H 0.91523 0.22814 0.00699 0.0
H581 H 0.86506 0.21722 0.88465 0.0
H582 H 0.85413 0.1922 0.90606 0.0
H583 H 0.84203 0.22426 0.91036 0.0
H584 H 0.82379 0.14839 0.97397 0.0
H585 H 0.79208 0.22487 0.97922 0.0
H586 H 0.89031 0.16588 0.96855 0.0
H587 H 0.87791 0.16264 0.93623 0.0
H588 H 0.86679 0.14033 0.96035 0.0
H589 H 0.85308 0.25914 0.97601 0.0
H590 H 0.81794 0.26224 0.97182 0.0
H591 H 0.83914 0.25687 0.94427 0.0
C592 C 0.26727 0.07731 0.41935 0.0
C593 C 0.25802 0.06533 0.44168 0.0
C594 C 0.27362 0.0627 0.39714 0.0
C595 C 0.27025 0.03542 0.39712 0.0
C596 C 0.25945 0.02329 0.41907 0.0
C597 C 0.25368 0.03841 0.44127 0.0
C598 C 0.28524 0.07641 0.37416 0.0
C599 C 0.25501 -0.00567 0.4195 0.0
C600 C 0.27774 0.00783 0.32925 0.0
C601 C 0.30493 0.00338 0.32869 0.0
C602 C 0.26533 0.01591 0.35229 0.0
C603 C 0.28064 0.01989 0.37499 0.0
C604 C 0.30753 0.01304 0.37502 0.0
C605 C 0.3193 0.00468 0.35187 0.0
C606 C 0.23641 0.02225 0.35175 0.0
C607 C 0.32457 0.01698 0.39884 0.0
H608 H 0.27055 0.09812 0.4195 0.0
H609 H 0.24627 0.02908 0.45843 0.0
H610 H 0.30579 0.07008 0.37086 0.0
H611 H 0.27378 0.07127 0.35641 0.0
H612 H 0.28551 0.09781 0.37692 0.0
H613 H 0.24222 0.98853 0.43591 0.0
H614 H 0.24587 0.98705 0.40114 0.0
H615 H 0.27425 0.98473 0.42144 0.0
H616 H 0.26643 0.00648 0.31145 0.0
H617 H 0.34026 0.00089 0.35166 0.0
H618 H 0.2343 0.04353 0.35078 0.0
H619 H 0.22636 0.01583 0.36962 0.0
H620 H 0.22626 0.01307 0.3347 0.0
H621 H 0.32791 0.03804 0.40268 0.0
H622 H 0.34407 0.00777 0.39655 0.0
H623 H 0.31459 0.00897 0.41605 0.0
C624 C 0.15373 0.02212 0.68072 0.0
C625 C 0.12632 0.01965 0.67741 0.0
C626 C 0.16949 0.03464 0.66245 0.0
C627 C 0.15747 0.0452 0.64054 0.0
C628 C 0.1299 0.04228 0.63675 0.0
C629 C 0.11463 0.02937 0.6552 0.0
C630 C 0.19891 0.0371 0.66691 0.0
C631 C 0.11645 0.05351 0.61366 0.0
C632 C 0.19347 0.1014 0.60978 0.0
C633 C 0.20475 0.08935 0.58794 0.0
C634 C 0.17781 0.08725 0.62693 0.0
C635 C 0.17363 0.06037 0.62225 0.0
C636 C 0.18511 0.04802 0.60039 0.0
C637 C 0.20045 0.06271 0.58338 0.0
C638 C 0.16566 0.10107 0.64999 0.0
C639 C 0.1813 0.0193 0.59505 0.0
H640 H 0.16292 0.01441 0.69774 0.0
H641 H 0.09345 0.02755 0.65258 0.0
H642 H 0.20972 0.02966 0.64968 0.0
H643 H 0.20471 0.05781 0.66978 0.0
H644 H 0.20534 0.0264 0.68408 0.0
H645 H 0.09501 0.0486 0.61299 0.0
H646 H 0.11896 0.07491 0.6143 0.0
H647 H 0.1257 0.04631 0.59546 0.0
H648 H 0.19658 0.12201 0.61333 0.0
H649 H 0.20921 0.05326 0.56659 0.0
H650 H 0.17278 0.09265 0.66816 0.0
H651 H 0.14388 0.09837 0.64954 0.0
H652 H 0.17044 0.12216 0.65055 0.0
H653 H 0.18874 0.00834 0.61162 0.0
H654 H 0.19167 0.01266 0.57721 0.0
H655 H 0.15997 0.01441 0.59296 0.0
C656 C 0.14447 0.97033 0.84629 0.0
C657 C 0.15464 0.97912 0.82283 0.0
C658 C 0.16126 0.96199 0.86572 0.0
C659 C 0.1889 0.96278 0.86168 0.0
C660 C 0.19938 0.97345 0.83885 0.0
C661 C 0.18208 0.98135 0.81954 0.0
C662 C 0.14928 0.95072 0.88983 0.0
C663 C 0.22876 0.97517 0.83417 0.0
C664 C 0.22623 0.94847 0.92274 0.0
C665 C 0.22854 0.92152 0.92012 0.0
C666 C 0.21529 0.96275 0.90283 0.0
C667 C 0.2062 0.94962 0.88007 0.0
C668 C 0.21044 0.92276 0.87654 0.0
C669 C 0.22174 0.90906 0.89658 0.0
C670 C 0.21176 0.9915 0.90695 0.0
C671 C 0.20105 0.90805 0.85251 0.0
H672 H 0.12329 0.96873 0.84901 0.0
H673 H 0.19005 0.9884 0.80152 0.0
H674 H 0.15342 0.92973 0.89033 0.0
H675 H 0.15827 0.96004 0.90738 0.0
H676 H 0.12757 0.95314 0.89075 0.0
H677 H 0.23378 0.98811 0.81799 0.0
H678 H 0.23928 0.98235 0.85186 0.0
H679 H 0.23619 0.9556 0.82928 0.0
H680 H 0.23178 0.95826 0.9408 0.0
H681 H 0.22372 0.88827 0.89433 0.0
H682 H 0.19083 -0.00473 0.91177 0.0
H683 H 0.21658 0.00202 0.88907 0.0
H684 H 0.22428 -0.00051 0.92302 0.0
H685 H 0.17914 0.90743 0.85213 0.0
H686 H 0.20813 0.88784 0.85169 0.0
H687 H 0.20785 0.91796 0.83487 0.0
C688 C 0.27208 0.89658 0.09435 0.0
C689 C 0.26303 0.9066 0.07112 0.0
C690 C 0.28265 0.91293 0.1139 0.0
C691 C 0.28372 0.93998 0.11029 0.0
C692 C 0.27358 0.95035 0.08737 0.0
C693 C 0.26358 0.93347 0.06787 0.0
C694 C 0.29363 0.90112 0.13796 0.0
C695 C 0.27392 0.97916 0.08318 0.0
C696 C 0.29731 0.97845 0.17231 0.0
C697 C 0.32477 0.9821 0.1709 0.0
C698 C 0.28329 0.96621 0.15187 0.0
C699 C 0.2972 0.957 0.12987 0.0
C700 C 0.32472 0.96172 0.12784 0.0
C701 C 0.33814 0.97444 0.14831 0.0
C702 C 0.25384 0.96203 0.15437 0.0
C703 C 0.34029 0.95188 0.1048 0.0
H704 H 0.27178 0.87583 0.09694 0.0
H705 H 0.25635 0.9413 0.05002 0.0
H706 H 0.31513 0.90551 0.13938 0.0
H707 H 0.28422 0.90968 0.15547 0.0
H708 H 0.29055 0.87977 0.13805 0.0
H709 H 0.26285 0.98423 0.06554 0.0
H710 H 0.26527 0.98951 0.10014 0.0
H711 H 0.29459 0.98633 0.08122 0.0
H712 H 0.28684 0.98463 0.18962 0.0
H713 H 0.35936 0.97721 0.14709 0.0
H714 H 0.24937 0.94123 0.15749 0.0
H715 H 0.24371 0.96735 0.13631 0.0
H716 H 0.24553 0.97348 0.17083 0.0
H717 H 0.33996 0.93039 0.10438 0.0
H718 H 0.36119 0.95883 0.10533 0.0
H719 H 0.33122 0.9581 0.08652 0.0
C720 C 0.33677 0.33404 0.01439 0.0
C721 C 0.31624 0.31637 0.00812 0.0
C722 C 0.36082 0.32552 0.02402 0.0
C723 C 0.3645 0.29869 0.02696 0.0
C724 C 0.34416 0.28071 0.01988 0.0
C725 C 0.32013 0.28979 0.01076 0.0
C726 C 0.38196 0.34526 0.03179 0.0
C727 C 0.34762 0.25191 0.02235 0.0
C728 C 0.43442 0.27537 0.03424 0.0
C729 C 0.43578 0.27181 0.06099 0.0
C730 C 0.41122 0.28394 0.02279 0.0
C731 C 0.38916 0.28951 0.03861 0.0
C732 C 0.39054 0.28627 0.06566 0.0
C733 C 0.41378 0.27721 0.07651 0.0
C734 C 0.41021 0.2868 -0.00619 0.0
C735 C 0.36751 0.29245 0.08317 0.0
H736 H 0.33378 0.35461 0.01248 0.0
H737 H 0.30437 0.27607 0.00571 0.0
H738 H 0.38596 0.34416 0.05284 0.0
H739 H 0.40066 0.341 0.02153 0.0
H740 H 0.37626 0.36535 0.02753 0.0
H741 H 0.33054 0.24046 0.0144 0.0
H742 H 0.36576 0.24576 0.01208 0.0
H743 H 0.35005 0.24722 0.04302 0.0
H744 H 0.45135 0.27105 0.02217 0.0
H745 H 0.41484 0.27466 0.09723 0.0
H746 H 0.40588 0.3071 0.98913 0.0
H747 H 0.39402 0.2744 0.98551 0.0
H748 H 0.42902 0.28138 0.98425 0.0
H749 H 0.36178 0.31287 0.08087 0.0
H750 H 0.37207 0.28948 0.10389 0.0
H751 H 0.35016 0.28005 0.07767 0.0
C752 C 0.97338 0.81133 0.18875 0.0
C753 C 0.97095 0.8136 0.16185 0.0
C754 C 0.9646 0.83094 0.20578 0.0
C755 C 0.95298 0.85313 0.19559 0.0
C756 C 0.95023 0.85537 0.16849 0.0
C757 C 0.95934 0.83564 0.15197 0.0
C758 C 0.96796 0.82807 0.23457 0.0
C759 C 0.93768 0.87868 0.1569 0.0
C760 C 0.90615 0.89687 0.23156 0.0
C761 C 0.92176 0.91948 0.23462 0.0
C762 C 0.91667 0.87421 0.2207 0.0
C763 C 0.94343 0.87422 0.21293 0.0
C764 C 0.95988 0.89618 0.21831 0.0
C765 C 0.9488 0.91865 0.22906 0.0
C766 C 0.89852 0.85112 0.21539 0.0
C767 C 0.98865 0.89674 0.21068 0.0
H768 H 0.98245 0.79439 0.19652 0.0
H769 H 0.95728 0.83749 0.13123 0.0
H770 H 0.9805 0.84422 0.24258 0.0
H771 H 0.94854 0.82919 0.24439 0.0
H772 H 0.97714 0.80946 0.23938 0.0
H773 H 0.93677 0.87726 0.13543 0.0
H774 H 0.91733 0.88084 0.16446 0.0
H775 H 0.94904 0.89653 0.16257 0.0
H776 H 0.88528 0.89729 0.23611 0.0
H777 H 0.96104 0.93599 0.23169 0.0
H778 H 0.90811 0.8329 0.22066 0.0
H779 H 0.89401 0.84971 0.19438 0.0
H780 H 0.87961 0.85268 0.22615 0.0
H781 H -0.00174 0.87853 0.21596 0.0
H782 H -0.0004 0.91336 0.21998 0.0
H783 H 0.99026 0.89843 0.18937 0.0
C784 C 0.14664 0.61403 0.55369 0.0
C785 C 0.16448 0.63354 0.54617 0.0
C786 C 0.12325 0.62025 0.56674 0.0
C787 C 0.1177 0.64654 0.57224 0.0
C788 C 0.13592 0.66624 0.56518 0.0
C789 C 0.15911 0.65949 0.55224 0.0
C790 C 0.10424 0.59879 0.57412 0.0
C791 C 0.13061 0.69453 0.57071 0.0
C792 C 0.04808 0.67029 0.57856 0.0
C793 C 0.04643 0.67562 0.60524 0.0
C794 C 0.07075 0.65948 0.56771 0.0
C795 C 0.09219 0.65384 0.58397 0.0
C796 C 0.09006 0.65776 0.61109 0.0
C797 C 0.06712 0.66865 0.62144 0.0
C798 C 0.07229 0.65549 0.53869 0.0
C799 C 0.11254 0.65178 0.62899 0.0
H800 H 0.1508 0.59393 0.54915 0.0
H801 H 0.1729 0.67463 0.54657 0.0
H802 H 0.0993 0.60053 0.59499 0.0
H803 H 0.08555 0.60045 0.56318 0.0
H804 H 0.11234 0.57928 0.57006 0.0
H805 H 0.14733 0.70736 0.56489 0.0
H806 H 0.11268 0.70022 0.56014 0.0
H807 H 0.1268 0.69788 0.59166 0.0
H808 H 0.03201 0.67541 0.56598 0.0
H809 H 0.06583 0.67257 0.64211 0.0
H810 H 0.07888 0.63564 0.53369 0.0
H811 H 0.08709 0.66926 0.53069 0.0
H812 H 0.05305 0.65856 0.52908 0.0
H813 H 0.1201 0.63216 0.62455 0.0
H814 H 0.10657 0.6529 0.64967 0.0
H815 H 0.12906 0.66582 0.62605 0.0
C816 C 0.92761 0.68183 0.70648 0.0
C817 C 0.92859 0.67868 0.67946 0.0
C818 C 0.91381 0.66389 0.72158 0.0
C819 C 0.90116 0.64219 0.70932 0.0
C820 C 0.90093 0.6397 0.68198 0.0
C821 C 0.91449 0.65811 0.66738 0.0
C822 C 0.91391 0.66745 0.75066 0.0
C823 C 0.8878 0.61672 0.66818 0.0
C824 C 0.89683 0.57758 0.74155 0.0
C825 C 0.86965 0.575 0.74601 0.0
C826 C 0.90755 0.60003 0.7308 0.0
C827 C 0.8907 0.62053 0.72478 0.0
C828 C 0.86354 0.61879 0.73094 0.0
C829 C 0.85324 0.59588 0.74131 0.0
C830 C 0.93663 0.60108 0.72433 0.0
C831 C 0.84513 0.64054 0.72535 0.0
H832 H 0.93828 0.69787 0.71588 0.0
H833 H 0.91507 0.65564 0.6465 0.0
H834 H 0.89386 0.66393 0.75864 0.0
H835 H 0.92715 0.65316 0.75923 0.0
H836 H 0.92087 0.68718 0.75687 0.0
H837 H 0.88792 0.61859 0.64681 0.0
H838 H 0.89823 0.59879 0.67299 0.0
H839 H 0.86707 0.61435 0.6747 0.0
H840 H 0.90962 0.56154 0.74526 0.0
H841 H 0.83224 0.59405 0.74504 0.0
H842 H 0.94594 0.61917 0.73235 0.0
H843 H 0.93919 0.60115 0.703 0.0
H844 H 0.94731 0.58433 0.73194 0.0
H845 H 0.85398 0.65946 0.7318 0.0
H846 H 0.82569 0.63792 0.73498 0.0
H847 H 0.84181 0.64135 0.70417 0.0
C848 C 0.18502 0.20528 0.49268 0.0
C849 C 0.18864 0.17845 0.4914 0.0
C850 C 0.16515 0.21661 0.47826 0.0
C851 C 0.14827 0.20062 0.46266 0.0
C852 C 0.15192 0.17355 0.46116 0.0
C853 C 0.17226 0.1628 0.47541 0.0
C854 C 0.16203 0.24562 0.47992 0.0
C855 C 0.13397 0.15587 0.44502 0.0
C856 C 0.08002 0.22429 0.44784 0.0
C857 C 0.08264 0.23101 0.42187 0.0
C858 C 0.10136 0.21457 0.46141 0.0
C859 C 0.12597 0.21199 0.44879 0.0
C860 C 0.12896 0.21946 0.4228 0.0
C861 C 0.10712 0.22869 0.40952 0.0
C862 C 0.09736 0.20641 0.48902 0.0
C863 C 0.15511 0.21738 0.40896 0.0
H864 H 0.19785 0.21747 0.50483 0.0
H865 H 0.17496 0.14204 0.47445 0.0
H866 H 0.1624 0.25369 0.46024 0.0
H867 H 0.14262 0.25028 0.48861 0.0
H868 H 0.17777 0.25543 0.49174 0.0
H869 H 0.13981 0.13529 0.4456 0.0
H870 H 0.11337 0.15735 0.45211 0.0
H871 H 0.13413 0.16191 0.42459 0.0
H872 H 0.06106 0.22595 0.45739 0.0
H873 H 0.10917 0.23404 0.38947 0.0
H874 H 0.11152 0.21703 0.50201 0.0
H875 H 0.1013 0.18546 0.49054 0.0
H876 H 0.07703 0.21001 0.49608 0.0
H877 H 0.1708 0.22781 0.42029 0.0
H878 H 0.1545 0.22542 0.38925 0.0
H879 H 0.16077 0.19678 0.40724 0.0
C880 C 0.58656 0.39861 0.22645 0.0
C881 C 0.56883 0.41849 0.23181 0.0
C882 C 0.57851 0.37624 0.21246 0.0
C883 C 0.55226 0.37403 0.20323 0.0
C884 C 0.53409 0.39376 0.20914 0.0
C885 C 0.54256 0.41571 0.22362 0.0
C886 C 0.59827 0.35532 0.20696 0.0
C887 C 0.50603 0.39216 0.19931 0.0
C888 C 0.5408 0.33114 0.14357 0.0
C889 C 0.52925 0.309 0.15426 0.0
C890 C 0.54809 0.3526 0.15931 0.0
C891 C 0.54418 0.35162 0.18639 0.0
C892 C 0.53279 0.32922 0.19734 0.0
C893 C 0.52523 0.30823 0.18109 0.0
C894 C 0.55985 0.37638 0.14696 0.0
C895 C 0.5288 0.32735 0.22619 0.0
H896 H 0.60686 0.40069 0.23294 0.0
H897 H 0.52887 0.43116 0.22763 0.0
H898 H 0.59016 0.33626 0.21289 0.0
H899 H 0.60222 0.35385 0.18587 0.0
H900 H 0.61729 0.35914 0.21718 0.0
H901 H 0.4941 0.40866 0.2065 0.0
H902 H 0.50603 0.39203 0.17784 0.0
H903 H 0.4963 0.37385 0.2053 0.0
H904 H 0.54376 0.33186 0.12283 0.0
H905 H 0.51646 0.29105 0.18945 0.0
H906 H 0.58005 0.38033 0.15455 0.0
H907 H 0.54787 0.39352 0.152 0.0
H908 H 0.56092 0.37425 0.12554 0.0
H909 H 0.54801 0.33005 0.23632 0.0
H910 H 0.51991 0.30842 0.23162 0.0
H911 H 0.51579 0.343 0.2333 0.0
C912 C 0.33463 0.81256 -0.00274 0.0
C913 C 0.31511 0.82049 0.98024 0.0
C914 C 0.3587 0.80343 0.98785 0.0
C915 C 0.36279 0.80133 0.9608 0.0
C916 C 0.34303 0.80923 0.94352 0.0
C917 C 0.31952 0.81921 0.95352 0.0
C918 C 0.37969 0.79597 0.00684 0.0
C919 C 0.34643 0.80647 0.91456 0.0
C920 C 0.4326 0.79589 0.93544 0.0
C921 C 0.43504 0.769 0.93316 0.0
C922 C 0.40918 0.80675 0.9446 0.0
C923 C 0.38753 0.79025 0.95065 0.0
C924 C 0.38971 0.76306 0.94765 0.0
C925 C 0.41369 0.75272 0.93938 0.0
C926 C 0.4078 0.83578 0.94841 0.0
C927 C 0.36673 0.74493 0.95316 0.0
H928 H 0.33117 0.81382 0.01795 0.0
H929 H 0.30421 0.8252 0.94044 0.0
H930 H 0.38337 0.77492 0.00486 0.0
H931 H 0.39855 0.80632 0.0026 0.0
H932 H 0.37404 0.80047 0.02721 0.0
H933 H 0.32909 0.81343 0.90382 0.0
H934 H 0.36422 0.81751 0.90832 0.0
H935 H 0.34947 0.78584 0.90905 0.0
H936 H 0.4493 0.80839 0.93077 0.0
H937 H 0.41563 0.7319 0.93732 0.0
H938 H 0.40338 0.84066 0.96897 0.0
H939 H 0.39156 0.8434 0.93664 0.0
H940 H 0.42651 0.84583 0.94299 0.0
H941 H 0.36143 0.74639 0.97395 0.0
H942 H 0.37119 0.72443 0.9482 0.0
H943 H 0.34916 0.75053 0.94196 0.0
C944 C 0.92898 0.42411 0.76215 0.0
C945 C 0.9019 0.42908 0.76215 0.0
C946 C 0.93847 0.40111 0.77211 0.0
C947 C 0.92037 0.38256 0.7819 0.0
C948 C 0.89294 0.38689 0.78072 0.0
C949 C 0.88403 0.41022 0.77104 0.0
C950 C 0.96789 0.39726 0.77335 0.0
C951 C 0.87305 0.36735 0.79062 0.0
C952 C 0.946 0.3158 0.79576 0.0
C953 C 0.9506 0.31804 0.82248 0.0
C954 C 0.93567 0.33651 0.78223 0.0
C955 C 0.93022 0.35997 0.79577 0.0
C956 C 0.93458 0.36219 0.82277 0.0
C957 C 0.94455 0.34114 0.83581 0.0
C958 C 0.93084 0.33342 0.75349 0.0
C959 C 0.92921 0.38699 0.83785 0.0
H960 H 0.94287 0.43861 0.75527 0.0
H961 H 0.86303 0.41381 0.77075 0.0
H962 H 0.97434 0.39752 0.79387 0.0
H963 H 0.97298 0.37812 0.76474 0.0
H964 H 0.97919 0.41255 0.76311 0.0
H965 H 0.85247 0.37231 0.78565 0.0
H966 H 0.87715 0.34775 0.7825 0.0
H967 H 0.87465 0.36643 0.81198 0.0
H968 H 0.9506 0.29794 0.7854 0.0
H969 H 0.94814 0.34302 0.85645 0.0
H970 H 0.94354 0.34737 0.74296 0.0
H971 H 0.91005 0.33788 0.74897 0.0
H972 H 0.93498 0.31354 0.74606 0.0
H973 H 0.94133 0.40312 0.83001 0.0
H974 H 0.93368 0.38549 0.85879 0.0
H975 H 0.9082 0.39216 0.83574 0.0
C976 C 0.34781 0.13155 0.54181 0.0
C977 C 0.32347 0.14386 0.5427 0.0
C978 C 0.37081 0.14457 0.55065 0.0
C979 C 0.36907 0.17015 0.56098 0.0
C980 C 0.34426 0.182 0.56323 0.0
C981 C 0.32179 0.16879 0.55381 0.0
C982 C 0.39705 0.13152 0.54774 0.0
C983 C 0.34156 0.20909 0.57456 0.0
C984 C 0.42469 0.20295 0.59913 0.0
C985 C 0.43526 0.21972 0.58072 0.0
C986 C 0.40359 0.18598 0.59279 0.0
C987 C 0.39321 0.18559 0.56739 0.0
C988 C 0.40443 0.20182 0.5485 0.0
C989 C 0.42519 0.21887 0.55547 0.0
C990 C 0.39179 0.1692 0.61348 0.0
C991 C 0.39403 0.20171 0.52111 0.0
H992 H 0.34904 0.11226 0.53317 0.0
H993 H 0.30288 0.1782 0.55481 0.0
H994 H 0.40907 0.14157 0.53296 0.0
H995 H 0.40823 0.13288 0.56618 0.0
H996 H 0.39475 0.11079 0.54171 0.0
H997 H 0.32059 0.21447 0.57718 0.0
H998 H 0.35166 0.2109 0.59358 0.0
H999 H 0.35116 0.22322 0.56158 0.0
H1000 H 0.43248 0.20353 0.61867 0.0
H1001 H 0.43356 0.23152 0.54107 0.0
H1002 H 0.3904 0.14871 0.60655 0.0
H1003 H 0.37143 0.17547 0.61788 0.0
H1004 H 0.40349 0.17026 0.63167 0.0
H1005 H 0.3931 0.18164 0.5129 0.0
H1006 H 0.40642 0.21383 0.50825 0.0
H1007 H 0.37366 0.20917 0.52106 0.0
C1008 C 0.50152 0.67505 0.32477 0.0
C1009 C 0.49984 0.67557 0.35184 0.0
C1010 C 0.50688 0.65199 0.31103 0.0
C1011 C 0.51004 0.6289 0.32473 0.0
C1012 C 0.50716 0.6291 0.35196 0.0
C1013 C 0.50238 0.65253 0.36524 0.0
C1014 C 0.51032 0.65259 0.28203 0.0
C1015 C 0.50989 0.60472 0.36713 0.0
C1016 C 0.50798 0.5651 0.28653 0.0
C1017 C 0.53492 0.5598 0.28444 0.0
C1018 C 0.49948 0.58741 0.29989 0.0
C1019 C 0.51844 0.605 0.31082 0.0
C1020 C 0.54565 0.59984 0.30852 0.0
C1021 C 0.55355 0.57716 0.29559 0.0
C1022 C 0.47028 0.5921 0.30247 0.0
C1023 C 0.56648 0.6184 0.31951 0.0
H1024 H 0.49966 0.69286 0.31437 0.0
H1025 H 0.50079 0.65284 0.38616 0.0
H1026 H 0.53099 0.64793 0.27692 0.0
H1027 H 0.49738 0.63769 0.27238 0.0
H1028 H 0.50577 0.67179 0.27416 0.0
H1029 H 0.50455 0.60768 0.38784 0.0
H1030 H 0.49714 0.58896 0.35867 0.0
H1031 H 0.53056 0.59813 0.36605 0.0
H1032 H 0.49354 0.55163 0.27803 0.0
H1033 H 0.57441 0.57326 0.2938 0.0
H1034 H 0.46531 0.6106 0.29342 0.0
H1035 H 0.46485 0.59391 0.32324 0.0
H1036 H 0.45809 0.57627 0.29329 0.0
H1037 H 0.56418 0.63782 0.31124 0.0
H1038 H 0.58682 0.6118 0.31544 0.0
H1039 H 0.56401 0.6206 0.34077 0.0
C1040 C 0.06758 0.77177 0.05887 0.0
C1041 C 0.07149 0.7701 0.08564 0.0
C1042 C 0.08577 0.78502 0.04343 0.0
C1043 C 0.10845 0.79668 0.05506 0.0
C1044 C 0.11257 0.79501 0.08205 0.0
C1045 C 0.09395 0.78176 0.09708 0.0
C1046 C 0.08075 0.78652 0.01471 0.0
C1047 C 0.1367 0.80713 0.09501 0.0
C1048 C 0.16894 0.80911 0.01415 0.0
C1049 C 0.16792 0.83594 0.01099 0.0
C1050 C 0.14939 0.796 0.02807 0.0
C1051 C 0.12826 0.81007 0.0389 0.0
C1052 C 0.12653 0.83697 0.03492 0.0
C1053 C 0.14646 0.84964 0.02098 0.0
C1054 C 0.1518 0.76725 0.0319 0.0
C1055 C 0.10406 0.85247 0.04603 0.0
H1056 H 0.05016 0.76287 0.04995 0.0
H1057 H 0.097 0.7805 0.11776 0.0
H1058 H 0.08034 0.80706 0.00901 0.0
H1059 H 0.09703 0.77727 0.00376 0.0
H1060 H 0.06183 0.77685 0.00881 0.0
H1061 H 0.13682 0.80427 0.11624 0.0
H1062 H 0.1548 0.79862 0.08658 0.0
H1063 H 0.13764 0.82821 0.09148 0.0
H1064 H 0.18546 0.79841 0.00638 0.0
H1065 H 0.14556 0.87037 0.0185 0.0
H1066 H 0.13358 0.75684 0.02524 0.0
H1067 H 0.15412 0.76349 0.05281 0.0
H1068 H 0.1689 0.75902 0.02132 0.0
H1069 H 0.08486 0.8436 0.0399 0.0
H1070 H 0.10483 0.87292 0.03993 0.0
H1071 H 0.10471 0.85224 0.06748 0.0
C1072 C 0.71887 0.92503 0.56306 0.0
C1073 C 0.71496 0.8981 0.56392 0.0
C1074 C 0.71036 0.94132 0.58337 0.0
C1075 C 0.69795 0.93034 0.60511 0.0
C1076 C 0.69451 0.90316 0.60639 0.0
C1077 C 0.70293 0.88735 0.58569 0.0
C1078 C 0.71411 0.97027 0.5813 0.0
C1079 C 0.6816 0.89078 0.62947 0.0
C1080 C 0.69352 0.9685 0.66848 0.0
C1081 C 0.66698 0.97561 0.66847 0.0
C1082 C 0.70411 0.95424 0.64765 0.0
C1083 C 0.68779 0.94725 0.62628 0.0
C1084 C 0.66129 0.95531 0.6257 0.0
C1085 C 0.65114 0.96929 0.64691 0.0
C1086 C 0.73241 0.94579 0.64897 0.0
C1087 C 0.64343 0.94849 0.60303 0.0
H1088 H 0.72807 0.93348 0.54624 0.0
H1089 H 0.70001 0.86655 0.58655 0.0
H1090 H 0.6946 0.97962 0.58135 0.0
H1091 H 0.72522 0.97827 0.5983 0.0
H1092 H 0.72485 0.97566 0.56343 0.0
H1093 H 0.68144 0.86929 0.62792 0.0
H1094 H 0.69211 0.89698 0.64749 0.0
H1095 H 0.66094 0.89725 0.63135 0.0
H1096 H 0.70582 0.97331 0.68515 0.0
H1097 H 0.63065 0.97492 0.64679 0.0
H1098 H 0.74331 0.95169 0.63139 0.0
H1099 H 0.73297 0.92435 0.64956 0.0
H1100 H 0.74287 0.95406 0.66627 0.0
H1101 H 0.65282 0.95455 0.58471 0.0
H1102 H 0.62391 0.95777 0.60481 0.0
H1103 H 0.64022 0.92719 0.60159 0.0
C1104 C 0.80095 0.98812 0.32482 0.0
C1105 C 0.82765 0.98987 0.31798 0.0
C1106 C 0.79315 0.97635 0.34781 0.0
C1107 C 0.81262 0.96668 0.36444 0.0
C1108 C 0.83967 0.97 0.35842 0.0
C1109 C 0.84687 0.9813 0.33508 0.0
C1110 C 0.76409 0.97283 0.35347 0.0
C1111 C 0.86099 0.96044 0.37598 0.0
C1112 C 0.79104 0.94607 0.43124 0.0
C1113 C 0.78789 0.91923 0.42728 0.0
C1114 C 0.79964 0.96186 0.41109 0.0
C1115 C 0.80467 0.95047 0.38643 0.0
C1116 C 0.80186 0.92335 0.38247 0.0
C1117 C 0.79374 0.90804 0.40302 0.0
C1118 C 0.803 0.99066 0.41606 0.0
C1119 C 0.80682 0.91054 0.35634 0.0
H1120 H 0.78609 -0.00525 0.3116 0.0
H1121 H 0.86757 0.98303 0.32999 0.0
H1122 H 0.75858 0.95194 0.35192 0.0
H1123 H 0.7596 0.97954 0.37352 0.0
H1124 H 0.75159 0.98349 0.33986 0.0
H1125 H 0.88093 0.96759 0.37028 0.0
H1126 H 0.85723 0.96668 0.39633 0.0
H1127 H 0.86089 0.93896 0.37527 0.0
H1128 H 0.78659 0.95477 0.45002 0.0
H1129 H 0.79118 0.88731 0.39983 0.0
H1130 H 0.78891 0.00118 0.40398 0.0
H1131 H 0.82317 -0.00284 0.41045 0.0
H1132 H 0.79968 -0.00374 0.43669 0.0
H1133 H 0.79358 0.91864 0.34165 0.0
H1134 H 0.80352 0.88921 0.3565 0.0
H1135 H 0.82742 0.91456 0.3501 0.0
C1136 C 0.80667 0.08755 0.08455 0.0
C1137 C 0.79426 0.0749 0.06339 0.0
C1138 C 0.8189 0.07349 0.10375 0.0
C1139 C 0.81888 0.04613 0.10161 0.0
C1140 C 0.80744 0.03326 0.07974 0.0
C1141 C 0.79512 0.04784 0.06087 0.0
C1142 C 0.83088 0.0879 0.12687 0.0
C1143 C 0.8074 0.00411 0.07674 0.0
C1144 C 0.8668 0.01574 0.14722 0.0
C1145 C 0.85038 0.01055 0.16838 0.0
C1146 C 0.85654 0.02591 0.12456 0.0
C1147 C 0.82931 0.03121 0.12327 0.0
C1148 C 0.81243 0.02475 0.14404 0.0
C1149 C 0.82317 0.01436 0.16635 0.0
C1150 C 0.87503 0.03221 0.10259 0.0
C1151 C 0.78328 0.03023 0.14337 0.0
H1152 H 0.80616 0.10847 0.08655 0.0
H1153 H 0.78566 0.03799 0.04445 0.0
H1154 H 0.82004 0.08259 0.14468 0.0
H1155 H 0.85171 0.08232 0.12944 0.0
H1156 H 0.83028 0.10925 0.12498 0.0
H1157 H 0.80015 -0.00271 0.0574 0.0
H1158 H 0.82757 -0.00323 0.07965 0.0
H1159 H 0.79454 -0.00453 0.09173 0.0
H1160 H 0.88786 0.01252 0.14863 0.0
H1161 H 0.81039 0.01025 0.18259 0.0
H1162 H 0.87753 0.05353 0.10139 0.0
H1163 H 0.86667 0.02496 0.08386 0.0
H1164 H 0.8948 0.02376 0.1052 0.0
H1165 H 0.78043 0.05147 0.14358 0.0
H1166 H 0.77255 0.02203 0.16012 0.0
H1167 H 0.77427 0.02212 0.12527 0.0
C1168 C 0.71458 0.02491 0.82083 0.0
C1169 C 0.68805 0.02041 0.81427 0.0
C1170 C 0.72146 0.03906 0.84347 0.0
C1171 C 0.70127 0.0482 0.86008 0.0
C1172 C 0.67447 0.04286 0.85395 0.0
C1173 C 0.66818 0.02931 0.83091 0.0
C1174 C 0.75021 0.0449 0.84921 0.0
C1175 C 0.65243 0.05172 0.87155 0.0
C1176 C 0.71777 0.0671 0.92958 0.0
C1177 C 0.71761 0.09419 0.92879 0.0
C1178 C 0.71267 0.05181 0.90728 0.0
C1179 C 0.70797 0.064 0.88358 0.0
C1180 C 0.70843 0.09136 0.88255 0.0
C1181 C 0.71291 0.10616 0.90529 0.0
C1182 C 0.71163 0.02269 0.9092 0.0
C1183 C 0.70402 0.10498 0.85747 0.0
H1184 H 0.72992 0.01814 0.80784 0.0
H1185 H 0.64764 0.02557 0.82593 0.0
H1186 H 0.75384 0.06616 0.84974 0.0
H1187 H 0.75547 0.03773 0.86853 0.0
H1188 H 0.7635 0.03599 0.83454 0.0
H1189 H 0.63275 0.04454 0.86472 0.0
H1190 H 0.65565 0.04486 0.89144 0.0
H1191 H 0.65229 0.07318 0.87271 0.0
H1192 H 0.72127 0.05783 0.9478 0.0
H1193 H 0.71306 0.12712 0.90463 0.0
H1194 H 0.72581 0.01379 0.89544 0.0
H1195 H 0.69165 0.0152 0.90376 0.0
H1196 H 0.71623 0.01627 0.929 0.0
H1197 H 0.71786 0.09772 0.84244 0.0
H1198 H 0.70677 0.12632 0.85967 0.0
H1199 H 0.6837 0.10074 0.85033 0.0
C1200 C 0.6078 0.73554 0.90779 0.0
C1201 C 0.58343 0.73791 0.92034 0.0
C1202 C 0.6294 0.72507 0.92048 0.0
C1203 C 0.62627 0.71651 0.94609 0.0
C1204 C 0.60179 0.71913 0.95893 0.0
C1205 C 0.58069 0.73 0.94594 0.0
C1206 C 0.65541 0.72288 0.90642 0.0
C1207 C 0.59768 0.70992 0.98617 0.0
C1208 C 0.67078 0.66507 0.97132 0.0
C1209 C 0.68735 0.67972 0.98805 0.0
C1210 C 0.65113 0.67692 0.95707 0.0
C1211 C 0.6483 0.70407 0.95939 0.0
C1212 C 0.6655 0.71907 0.9756 0.0
C1213 C 0.68473 0.70667 0.98992 0.0
C1214 C 0.63286 0.66031 0.94018 0.0
C1215 C 0.66323 0.74812 0.97821 0.0
H1216 H 0.60997 0.74179 0.88803 0.0
H1217 H 0.56183 0.73173 0.95567 0.0
H1218 H 0.67139 0.73255 0.91801 0.0
H1219 H 0.66057 0.7022 0.90395 0.0
H1220 H 0.65492 0.73164 0.88704 0.0
H1221 H 0.57745 0.71365 -0.00654 0.0
H1222 H 0.60116 0.68882 0.98682 0.0
H1223 H 0.61209 0.71973 -0.0005 0.0
H1224 H 0.6727 0.64423 0.96983 0.0
H1225 H 0.69769 0.7181 0.00263 0.0
H1226 H 0.63302 0.66734 0.92009 0.0
H1227 H 0.61233 0.66173 0.94747 0.0
H1228 H 0.63839 0.6396 0.93973 0.0
H1229 H 0.6636 0.75685 0.95882 0.0
H1230 H 0.67937 0.75713 0.99013 0.0
H1231 H 0.64408 0.75301 0.98731 0.0
C1232 C 0.06148 0.07388 0.78492 0.0
C1233 C 0.04245 0.05613 0.77515 0.0
C1234 C 0.05407 0.09708 0.79718 0.0
C1235 C 0.02696 0.10236 0.80028 0.0
C1236 C 0.00761 0.08454 0.79044 0.0
C1237 C 0.01561 0.0617 0.77767 0.0
C1238 C 0.0753 0.11587 0.80694 0.0
C1239 C 0.97853 0.08936 0.79391 0.0
C1240 C 0.01332 0.14974 0.85546 0.0
C1241 C 0.0101 0.17282 0.84229 0.0
C1242 C 0.0175 0.12636 0.84188 0.0
C1243 C 0.01911 0.12624 0.81455 0.0
C1244 C 0.01527 0.14938 0.80111 0.0
C1245 C 0.0105 0.1724 0.81517 0.0
C1246 C 0.02096 0.10194 0.85684 0.0
C1247 C 0.0174 0.15006 0.77199 0.0
H1248 H 0.08226 0.06976 0.78272 0.0
H1249 H 0.00089 0.04793 0.7702 0.0
H1250 H 0.0723 0.13526 0.79883 0.0
H1251 H 0.07407 0.11806 0.82831 0.0
H1252 H 0.09544 0.10945 0.80173 0.0
H1253 H 0.96599 0.07378 0.78474 0.0
H1254 H 0.97373 0.09073 0.81484 0.0
H1255 H 0.97338 0.1081 0.78544 0.0
H1256 H 0.0127 0.14998 0.87643 0.0
H1257 H 0.0081 0.19026 0.80497 0.0
H1258 H 0.04158 0.09537 0.85483 0.0
H1259 H 0.00786 0.08619 0.84889 0.0
H1260 H 0.01657 0.10485 0.87777 0.0
H1261 H 0.03789 0.14566 0.76601 0.0
H1262 H 0.01225 0.16922 0.7644 0.0
H1263 H 0.00424 0.13503 0.76285 0.0
C1264 C 0.92618 0.26429 0.45867 0.0
C1265 C 0.93334 0.26153 0.4326 0.0
C1266 C 0.90224 0.27553 0.46575 0.0
C1267 C 0.88484 0.28345 0.4462 0.0
C1268 C 0.89184 0.28039 0.41982 0.0
C1269 C 0.91625 0.26977 0.41333 0.0
C1270 C 0.89563 0.27907 0.49411 0.0
C1271 C 0.87341 0.28797 0.39848 0.0
C1272 C 0.81332 0.2886 0.46621 0.0
C1273 C 0.81091 0.31543 0.46964 0.0
C1274 C 0.8371 0.27797 0.45777 0.0
C1275 C 0.85912 0.29459 0.45344 0.0
C1276 C 0.85675 0.32172 0.45675 0.0
C1277 C 0.83247 0.33188 0.46447 0.0
C1278 C 0.83874 0.24898 0.45375 0.0
C1279 C 0.88003 0.33994 0.45287 0.0
H1280 H 0.93954 0.25811 0.47356 0.0
H1281 H 0.92175 0.26744 0.39314 0.0
H1282 H 0.89153 0.29972 0.49862 0.0
H1283 H 0.87752 0.26769 0.49874 0.0
H1284 H 0.91184 0.27289 0.50686 0.0
H1285 H 0.88171 0.28394 0.37892 0.0
H1286 H 0.85432 0.27724 0.4002 0.0
H1287 H 0.86915 0.30891 0.40032 0.0
H1288 H 0.79652 0.27592 0.46999 0.0
H1289 H 0.83061 0.35263 0.46733 0.0
H1290 H 0.85294 0.24112 0.46768 0.0
H1291 H 0.84615 0.2443 0.434 0.0
H1292 H 0.81933 0.23898 0.45634 0.0
H1293 H 0.89608 0.33532 0.46649 0.0
H1294 H 0.8748 0.36056 0.45602 0.0
H1295 H 0.88798 0.3374 0.43299 0.0
C1296 C 0.57376 0.93084 0.77434 0.0
C1297 C 0.60092 0.92652 0.77197 0.0
C1298 C 0.55695 0.91259 0.78591 0.0
C1299 C 0.56768 0.88973 0.79556 0.0
C1300 C 0.59497 0.88505 0.79279 0.0
C1301 C 0.61122 0.90344 0.7809 0.0
C1302 C 0.52786 0.91797 0.78824 0.0
C1303 C 0.60715 0.8609 0.803 0.0
C1304 C 0.53706 0.85289 0.85045 0.0
C1305 C 0.52805 0.83024 0.83747 0.0
C1306 C 0.5486 0.87326 0.8368 0.0
C1307 C 0.55084 0.87095 0.80955 0.0
C1308 C 0.53984 0.84905 0.79618 0.0
C1309 C 0.52867 0.82883 0.81035 0.0
C1310 C 0.56016 0.89634 0.85173 0.0
C1311 C 0.54145 0.84616 0.76708 0.0
H1312 H 0.56563 0.94857 0.76731 0.0
H1313 H 0.63218 0.89995 0.77917 0.0
H1314 H 0.51603 0.90138 0.78008 0.0
H1315 H 0.5224 0.92025 0.80894 0.0
H1316 H 0.52237 0.93578 0.77813 0.0
H1317 H 0.62863 0.86001 0.79888 0.0
H1318 H 0.60422 0.86017 0.82424 0.0
H1319 H 0.5973 0.84341 0.79422 0.0
H1320 H 0.53648 0.85414 0.87141 0.0
H1321 H 0.52144 0.81146 0.80021 0.0
H1322 H 0.55399 0.91465 0.84305 0.0
H1323 H 0.58202 0.89587 0.85075 0.0
H1324 H 0.55416 0.89655 0.87241 0.0
H1325 H 0.53586 0.86437 0.75781 0.0
H1326 H 0.5285 0.83011 0.75945 0.0
H1327 H 0.56208 0.8421 0.76133 0.0
C1328 C 0.98573 0.1703 0.32363 0.0
C1329 C 0.98458 0.16718 0.3505 0.0
C1330 C 0.97454 0.15162 0.30655 0.0
C1331 C 0.96157 0.12961 0.31666 0.0
C1332 C 0.96124 0.12586 0.34369 0.0
C1333 C 0.97296 0.14463 0.3603 0.0
C1334 C 0.97569 0.15596 0.27779 0.0
C1335 C 0.94737 0.10269 0.35517 0.0
C1336 C 0.90431 0.09793 0.28029 0.0
C1337 C 0.91527 0.07458 0.27156 0.0
C1338 C 0.91948 0.1164 0.29429 0.0
C1339 C 0.94634 0.11157 0.29931 0.0
C1340 C 0.95794 0.08874 0.28932 0.0
C1341 C 0.94219 0.07038 0.27569 0.0
C1342 C 0.90638 0.1405 0.3048 0.0
C1343 C 0.98669 0.08326 0.29388 0.0
H1344 H -0.00502 0.18757 0.31594 0.0
H1345 H 0.97201 0.14213 0.38103 0.0
H1346 H 0.98242 0.13826 0.26734 0.0
H1347 H 0.95566 0.1601 0.27054 0.0
H1348 H 0.98911 0.1724 0.27295 0.0
H1349 H 0.95022 0.10191 0.37644 0.0
H1350 H 0.92589 0.10341 0.35113 0.0
H1351 H 0.95467 0.08451 0.3461 0.0
H1352 H 0.88353 0.10133 0.27719 0.0
H1353 H 0.95084 0.05247 0.26878 0.0
H1354 H 0.91756 0.15805 0.29889 0.0
H1355 H 0.9064 0.14046 0.32627 0.0
H1356 H 0.88567 0.14193 0.29804 0.0
H1357 H -0.00078 0.10029 0.28893 0.0
H1358 H -0.00664 0.06616 0.28235 0.0
H1359 H 0.9899 0.07956 0.31468 0.0
C1360 C 0.56439 0.07699 0.7282 0.0
C1361 C 0.592 0.0767 0.72965 0.0
C1362 C 0.55141 0.09916 0.72032 0.0
C1363 C 0.5665 0.12131 0.71353 0.0
C1364 C 0.59426 0.12162 0.71649 0.0
C1365 C 0.60667 0.09932 0.72465 0.0
C1366 C 0.52173 0.09832 0.71779 0.0
C1367 C 0.61104 0.14486 0.70932 0.0
C1368 C 0.54218 0.16273 0.65978 0.0
C1369 C 0.53466 0.18521 0.67339 0.0
C1370 C 0.5519 0.14155 0.67277 0.0
C1371 C 0.55389 0.14277 0.70009 0.0
C1372 C 0.54545 0.16501 0.71407 0.0
C1373 C 0.53606 0.18612 0.7005 0.0
C1374 C 0.5609 0.11821 0.65716 0.0
C1375 C 0.54695 0.16674 0.74323 0.0
H1376 H 0.55294 0.05962 0.73233 0.0
H1377 H 0.62802 0.09929 0.72594 0.0
H1378 H 0.51315 0.11629 0.7261 0.0
H1379 H 0.51625 0.09707 0.69701 0.0
H1380 H 0.51271 0.0814 0.72756 0.0
H1381 H 0.63197 0.14295 0.71521 0.0
H1382 H 0.61037 0.14719 0.68805 0.0
H1383 H 0.60324 0.16279 0.71847 0.0
H1384 H 0.54109 0.16189 0.63883 0.0
H1385 H 0.53007 0.20341 0.7111 0.0
H1386 H 0.55057 0.10044 0.66379 0.0
H1387 H 0.58236 0.11559 0.66012 0.0
H1388 H 0.55721 0.12004 0.63611 0.0
H1389 H 0.53746 0.14936 0.7517 0.0
H1390 H 0.53729 0.18429 0.75129 0.0
H1391 H 0.56791 0.16723 0.74944 0.0
C1392 C 0.16674 0.36327 0.92422 0.0
C1393 C 0.18718 0.3469 0.93098 0.0
C1394 C 0.1432 0.35313 0.91351 0.0
C1395 C 0.14011 0.32602 0.90969 0.0
C1396 C 0.16106 0.3095 0.91557 0.0
C1397 C 0.18442 0.32017 0.92608 0.0
C1398 C 0.12129 0.37131 0.90723 0.0
C1399 C 0.15837 0.28046 0.91181 0.0
C1400 C 0.0711 0.29719 0.91287 0.0
C1401 C 0.06554 0.29206 0.88667 0.0
C1402 C 0.09531 0.30839 0.92057 0.0
C1403 C 0.11428 0.31474 0.90155 0.0
C1404 C 0.10872 0.30985 0.87503 0.0
C1405 C 0.08437 0.29844 0.86788 0.0
C1406 C 0.10066 0.3132 0.94907 0.0
C1407 C 0.12852 0.31657 0.8543 0.0
H1408 H 0.1689 0.38398 0.92779 0.0
H1409 H 0.20023 0.30744 0.93118 0.0
H1410 H 0.11404 0.36742 0.88723 0.0
H1411 H 0.1044 0.36801 0.9205 0.0
H1412 H 0.1277 0.39197 0.90914 0.0
H1413 H 0.17715 0.27052 0.9156 0.0
H1414 H 0.14305 0.27285 0.92511 0.0
H1415 H 0.15187 0.27542 0.89178 0.0
H1416 H 0.0566 0.29226 0.92746 0.0
H1417 H 0.08006 0.2946 0.84758 0.0
H1418 H 0.10511 0.33406 0.95295 0.0
H1419 H 0.11824 0.30234 0.95497 0.0
H1420 H 0.08371 0.30727 0.96136 0.0
H1421 H 0.13391 0.33748 0.85578 0.0
H1422 H 0.12086 0.31208 0.83451 0.0
H1423 H 0.14688 0.30568 0.8571 0.0
C1424 C 0.4073 0.73523 0.45847 0.0
C1425 C 0.41289 0.73731 0.43205 0.0
C1426 C 0.38207 0.72759 0.46683 0.0
C1427 C 0.36229 0.72135 0.44825 0.0
C1428 C 0.3675 0.72451 0.42162 0.0
C1429 C 0.39272 0.73272 0.41384 0.0
C1430 C 0.37699 0.72499 0.49544 0.0
C1431 C 0.34701 0.71762 0.40122 0.0
C1432 C 0.31208 0.66966 0.46586 0.0
C1433 C 0.2895 0.68425 0.47049 0.0
C1434 C 0.33586 0.68158 0.45855 0.0
C1435 C 0.3372 0.70882 0.45638 0.0
C1436 C 0.3146 0.72375 0.46145 0.0
C1437 C 0.29084 0.71122 0.46818 0.0
C1438 C 0.35946 0.66496 0.45281 0.0
C1439 C 0.31557 0.75289 0.45982 0.0
H1440 H 0.42279 0.73906 0.47261 0.0
H1441 H 0.39698 0.73426 0.39338 0.0
H1442 H 0.35818 0.73427 0.50097 0.0
H1443 H 0.37504 0.7042 0.50008 0.0
H1444 H 0.39318 0.73384 0.50741 0.0
H1445 H 0.35345 0.72327 0.38157 0.0
H1446 H 0.34306 0.6964 0.40092 0.0
H1447 H 0.32813 0.72717 0.40581 0.0
H1448 H 0.31105 0.64878 0.46745 0.0
H1449 H 0.27342 0.72254 0.47196 0.0
H1450 H 0.37598 0.67062 0.46599 0.0
H1451 H 0.36638 0.66802 0.43273 0.0
H1452 H 0.35494 0.644 0.45503 0.0
H1453 H 0.33121 0.76112 0.47282 0.0
H1454 H 0.29647 0.76172 0.46523 0.0
H1455 H 0.32071 0.75853 0.43986 0.0
C1456 C 0.80764 0.49664 0.85259 0.0
C1457 C 0.79376 0.49622 0.82912 0.0
C1458 C 0.79581 0.50542 0.87556 0.0
C1459 C 0.76936 0.51363 0.87506 0.0
C1460 C 0.75435 0.51041 0.85207 0.0
C1461 C 0.76681 0.50187 0.82922 0.0
C1462 C 0.81253 0.50848 0.89969 0.0
C1463 C 0.72584 0.51814 0.85102 0.0
C1464 C 0.74249 0.53431 0.94081 0.0
C1465 C 0.74839 0.56097 0.94102 0.0
C1466 C 0.74767 0.51865 0.91882 0.0
C1467 C 0.75948 0.52994 0.89689 0.0
C1468 C 0.76442 0.55701 0.89669 0.0
C1469 C 0.75862 0.57219 0.91867 0.0
C1470 C 0.74153 0.48997 0.91947 0.0
C1471 C 0.77716 0.56984 0.87374 0.0
H1472 H 0.82837 0.49189 0.85275 0.0
H1473 H 0.75585 0.5012 0.8112 0.0
H1474 H 0.81704 0.52935 0.90353 0.0
H1475 H 0.80176 0.50109 0.91673 0.0
H1476 H 0.83148 0.49817 0.89778 0.0
H1477 H 0.71555 0.50932 0.83387 0.0
H1478 H 0.71517 0.51237 0.86878 0.0
H1479 H 0.72484 0.53951 0.84984 0.0
H1480 H 0.73432 0.52558 0.95797 0.0
H1481 H 0.7631 0.5928 0.91865 0.0
H1482 H 0.76007 0.47936 0.92226 0.0
H1483 H 0.73268 0.48289 0.9009 0.0
H1484 H 0.72783 0.48515 0.93551 0.0
H1485 H 0.79732 0.56233 0.87076 0.0
H1486 H 0.77866 0.59124 0.87632 0.0
H1487 H 0.76569 0.56521 0.85589 0.0
C1488 C 0.60425 0.53791 0.15893 0.0
C1489 C 0.61663 0.52854 0.18094 0.0
C1490 C 0.61898 0.55016 0.13963 0.0
C1491 C 0.6467 0.55273 0.14234 0.0
C1492 C 0.65936 0.54283 0.16424 0.0
C1493 C 0.64414 0.531 0.18336 0.0
C1494 C 0.60487 0.56076 0.1166 0.0
C1495 C 0.68895 0.54496 0.1676 0.0
C1496 C 0.68901 0.56565 0.08348 0.0
C1497 C 0.69483 0.59218 0.08685 0.0
C1498 C 0.67309 0.55255 0.10127 0.0
C1499 C 0.66254 0.56644 0.1227 0.0
C1500 C 0.66794 0.5933 0.12597 0.0
C1501 C 0.68418 0.60583 0.10808 0.0
C1502 C 0.66797 0.52381 0.09741 0.0
C1503 C 0.65677 0.60875 0.1485 0.0
H1504 H 0.58298 0.53611 0.15701 0.0
H1505 H 0.65386 0.52358 0.20022 0.0
H1506 H 0.60823 0.58203 0.11603 0.0
H1507 H 0.61295 0.55229 0.09839 0.0
H1508 H 0.58327 0.55668 0.11713 0.0
H1509 H 0.69579 0.53531 0.18526 0.0
H1510 H 0.69896 0.53614 0.15054 0.0
H1511 H 0.69526 0.56565 0.16888 0.0
H1512 H 0.69724 0.55499 0.06714 0.0
H1513 H 0.6884 0.62639 0.11067 0.0
H1514 H 0.64642 0.51959 0.09666 0.0
H1515 H 0.67596 0.51335 0.11407 0.0
H1516 H 0.6771 0.516 0.07937 0.0
H1517 H 0.63497 0.6064 0.14894 0.0
H1518 H 0.6619 0.62972 0.14757 0.0
H1519 H 0.66442 0.60139 0.16695 0.0
C1520 C 0.72775 0.41535 0.38952 0.0
C1521 C 0.73437 0.42696 0.41353 0.0
C1522 C 0.7155 0.42949 0.37037 0.0
C1523 C 0.71009 0.45594 0.37529 0.0
C1524 C 0.7194 0.46844 0.3983 0.0
C1525 C 0.73134 0.45372 0.4173 0.0
C1526 C 0.70602 0.41545 0.34599 0.0
C1527 C 0.71473 0.49679 0.40385 0.0
C1528 C 0.68039 0.48903 0.31796 0.0
C1529 C 0.65334 0.48511 0.32269 0.0
C1530 C 0.69933 0.48121 0.33578 0.0
C1531 C 0.69092 0.46886 0.35853 0.0
C1532 C 0.66363 0.46625 0.36406 0.0
C1533 C 0.64518 0.47457 0.34613 0.0
C1534 C 0.72825 0.48488 0.32956 0.0
C1535 C 0.65383 0.45317 0.38815 0.0
H1536 H 0.73037 0.39474 0.38634 0.0
H1537 H 0.73678 0.4629 0.4357 0.0
H1538 H 0.68418 0.41332 0.34653 0.0
H1539 H 0.71124 0.4267 0.32868 0.0
H1540 H 0.71449 0.39586 0.34376 0.0
H1541 H 0.72783 0.50469 0.41952 0.0
H1542 H 0.71796 0.50826 0.38624 0.0
H1543 H 0.69396 0.49936 0.41002 0.0
H1544 H 0.68681 0.49742 0.29996 0.0
H1545 H 0.62431 0.47165 0.34997 0.0
H1546 H 0.7364 0.46614 0.32275 0.0
H1547 H 0.73952 0.49137 0.34704 0.0
H1548 H 0.73148 0.4992 0.31415 0.0
H1549 H 0.65945 0.43252 0.38745 0.0
H1550 H 0.63205 0.45408 0.39029 0.0
H1551 H 0.66314 0.46234 0.40562 0.0
C1552 C 0.836 0.46556 0.64997 0.0
C1553 C 0.82096 0.47259 0.67172 0.0
C1554 C 0.82437 0.45256 0.62864 0.0
C1555 C 0.79695 0.44688 0.62889 0.0
C1556 C 0.78143 0.45487 0.6503 0.0
C1557 C 0.79368 0.46745 0.67163 0.0
C1558 C 0.84162 0.44403 0.60627 0.0
C1559 C 0.75202 0.44956 0.65094 0.0
C1560 C 0.76672 0.42854 0.56378 0.0
C1561 C 0.76575 0.40144 0.56478 0.0
C1562 C 0.77597 0.44369 0.58491 0.0
C1563 C 0.78492 0.43137 0.60728 0.0
C1564 C 0.78372 0.40403 0.60851 0.0
C1565 C 0.7739 0.38939 0.5873 0.0
C1566 C 0.77655 0.47283 0.58315 0.0
C1567 C 0.79352 0.39022 0.63192 0.0
H1568 H 0.85712 0.46936 0.64995 0.0
H1569 H 0.78194 0.47302 0.68833 0.0
H1570 H 0.84113 0.42258 0.60438 0.0
H1571 H 0.83403 0.45158 0.58788 0.0
H1572 H 0.86247 0.45071 0.60874 0.0
H1573 H 0.74249 0.45892 0.66803 0.0
H1574 H 0.74266 0.4566 0.63313 0.0
H1575 H 0.74808 0.42838 0.65149 0.0
H1576 H 0.76015 0.43794 0.54649 0.0
H1577 H 0.77327 0.36844 0.58812 0.0
H1578 H 0.79726 0.48019 0.58365 0.0
H1579 H 0.76627 0.48169 0.60004 0.0
H1580 H 0.76711 0.47941 0.56515 0.0
H1581 H 0.81487 0.39459 0.6348 0.0
H1582 H 0.79061 0.36888 0.63003 0.0
H1583 H 0.78311 0.39721 0.64956 0.0
C1584 C 0.36387 0.10127 0.23792 0.0
C1585 C 0.38032 0.08053 0.243 0.0
C1586 C 0.37399 0.12379 0.22667 0.0
C1587 C 0.40107 0.12535 0.22015 0.0
C1588 C 0.41802 0.10507 0.2266 0.0
C1589 C 0.40745 0.08293 0.23811 0.0
C1590 C 0.35545 0.14526 0.22047 0.0
C1591 C 0.44704 0.10601 0.21988 0.0
C1592 C 0.42334 0.16221 0.16165 0.0
C1593 C 0.43661 0.18361 0.17315 0.0
C1594 C 0.41077 0.1436 0.1768 0.0
C1595 C 0.41127 0.14666 0.20409 0.0
C1596 C 0.42334 0.16896 0.21579 0.0
C1597 C 0.43603 0.18717 0.20014 0.0
C1598 C 0.39813 0.12 0.16362 0.0
C1599 C 0.42384 0.17301 0.24482 0.0
H1600 H 0.34292 0.09959 0.24194 0.0
H1601 H 0.42027 0.067 0.24212 0.0
H1602 H 0.36413 0.16436 0.22655 0.0
H1603 H 0.35226 0.14558 0.19925 0.0
H1604 H 0.33596 0.14274 0.23005 0.0
H1605 H 0.45788 0.08967 0.2281 0.0
H1606 H 0.44941 0.10523 0.19853 0.0
H1607 H 0.45629 0.12446 0.2271 0.0
H1608 H 0.42364 0.15941 0.14079 0.0
H1609 H 0.44611 0.2038 0.20911 0.0
H1610 H 0.37746 0.11739 0.17026 0.0
H1611 H 0.40894 0.10244 0.1689 0.0
H1612 H 0.39815 0.12129 0.1422 0.0
H1613 H 0.40386 0.16979 0.25306 0.0
H1614 H 0.43103 0.19277 0.25066 0.0
H1615 H 0.43703 0.15872 0.25349 0.0
C1616 C 0.02681 0.79953 0.68614 0.0
C1617 C 0.03047 0.79904 0.65923 0.0
C1618 C 0.03536 0.8209 0.70143 0.0
C1619 C 0.0474 0.8424 0.68941 0.0
C1620 C 0.0512 0.842 0.66227 0.0
C1621 C 0.04289 0.82019 0.64752 0.0
C1622 C 0.03147 0.82051 0.73038 0.0
C1623 C 0.06368 0.86476 0.64877 0.0
C1624 C 0.04686 0.9085 0.72284 0.0
C1625 C 0.07316 0.91133 0.73093 0.0
C1626 C 0.03803 0.88586 0.70973 0.0
C1627 C 0.05584 0.86552 0.70509 0.0
C1628 C 0.0821 0.86784 0.71426 0.0
C1629 C 0.09053 0.89087 0.72689 0.0
C1630 C 0.00996 0.88415 0.69992 0.0
C1631 C 0.10148 0.84632 0.7101 0.0
H1632 H 0.01738 0.78313 0.6953 0.0
H1633 H 0.04561 0.81996 0.62671 0.0
H1634 H 0.05069 0.82369 0.74037 0.0
H1635 H 0.01849 0.83652 0.73669 0.0
H1636 H 0.02253 0.80193 0.73678 0.0
H1637 H 0.06501 0.86143 0.62749 0.0
H1638 H 0.05201 0.88238 0.65266 0.0
H1639 H 0.08384 0.86874 0.65644 0.0
H1640 H 0.03344 0.92436 0.72587 0.0
H1641 H 0.11084 0.89299 0.73334 0.0
H1642 H -9e-05 0.8664 0.70696 0.0
H1643 H 0.00997 0.88275 0.67846 0.0
H1644 H -0.00169 0.90121 0.70611 0.0
H1645 H 0.09296 0.82778 0.71699 0.0
H1646 H 0.12048 0.85036 0.72028 0.0
H1647 H 0.10556 0.84364 0.68912 0.0
C1648 C 0.44445 0.84642 0.33611 0.0
C1649 C 0.44943 0.82229 0.32429 0.0
C1650 C 0.43648 0.86729 0.32154 0.0
C1651 C 0.43306 0.86386 0.29449 0.0
C1652 C 0.43772 0.83947 0.28241 0.0
C1653 C 0.44605 0.81894 0.29747 0.0
C1654 C 0.4319 0.89308 0.33511 0.0
C1655 C 0.43386 0.83511 0.25365 0.0
C1656 C 0.38911 0.91443 0.267 0.0
C1657 C 0.40772 0.93257 0.25809 0.0
C1658 C 0.39705 0.89106 0.27734 0.0
C1659 C 0.42429 0.88597 0.2792 0.0
C1660 C 0.44314 0.90364 0.26913 0.0
C1661 C 0.43459 0.9267 0.25848 0.0
C1662 C 0.37636 0.87248 0.28749 0.0
C1663 C 0.47237 0.89895 0.27103 0.0
H1664 H 0.44718 0.84918 0.35681 0.0
H1665 H 0.44986 0.80029 0.28828 0.0
H1666 H 0.4447 0.90829 0.32654 0.0
H1667 H 0.41114 0.89883 0.33241 0.0
H1668 H 0.43603 0.89263 0.3562 0.0
H1669 H 0.43804 0.8149 0.24729 0.0
H1670 H 0.41327 0.83949 0.24827 0.0
H1671 H 0.447 0.84846 0.24288 0.0
H1672 H 0.36827 0.91871 0.26637 0.0
H1673 H 0.44904 0.94066 0.25157 0.0
H1674 H 0.37721 0.87259 0.30895 0.0
H1675 H 0.38018 0.85243 0.28047 0.0
H1676 H 0.35611 0.87768 0.28161 0.0
H1677 H 0.47856 0.90047 0.29162 0.0
H1678 H 0.48427 0.91313 0.2599 0.0
H1679 H 0.47694 0.87913 0.26384 0.0
C1680 C 0.81787 0.66104 0.05269 0.0
C1681 C 0.81793 0.6359 0.04186 0.0
C1682 C 0.84107 0.67287 0.06212 0.0
C1683 C 0.86501 0.6594 0.06015 0.0
C1684 C 0.86509 0.63361 0.05013 0.0
C1685 C 0.84135 0.62201 0.04128 0.0
C1686 C 0.84012 0.70024 0.07313 0.0
C1687 C 0.89037 0.61884 0.04754 0.0
C1688 C 0.92374 0.70499 0.05452 0.0
C1689 C 0.93342 0.7058 0.07992 0.0
C1690 C 0.90232 0.68878 0.04752 0.0
C1691 C 0.89005 0.67339 0.0665 0.0
C1692 C 0.90014 0.67358 0.09201 0.0
C1693 C 0.92189 0.6897 0.09839 0.0
C1694 C 0.89226 0.68882 0.02 0.0
C1695 C 0.88725 0.65769 0.11281 0.0
H1696 H 0.79967 0.67168 0.05344 0.0
H1697 H 0.84133 0.60256 0.03285 0.0
H1698 H 0.85017 0.70162 0.0922 0.0
H1699 H 0.85073 0.71358 0.06004 0.0
H1700 H 0.81957 0.70699 0.07556 0.0
H1701 H 0.88669 0.59818 0.04191 0.0
H1702 H 0.90304 0.62782 0.03258 0.0
H1703 H 0.90156 0.61984 0.06598 0.0
H1704 H 0.93286 0.71711 0.04008 0.0
H1705 H 0.92938 0.69024 0.11805 0.0
H1706 H 0.87248 0.6976 0.01962 0.0
H1707 H 0.89006 0.6687 0.01214 0.0
H1708 H 0.90558 0.6999 0.00706 0.0
H1709 H 0.86743 0.66537 0.11726 0.0
H1710 H 0.89903 0.65804 0.13095 0.0
H1711 H 0.8844 0.63728 0.10598 0.0
C1712 C 0.56542 0.28868 0.55656 0.0
C1713 C 0.57163 0.28528 0.58268 0.0
C1714 C 0.58303 0.30146 0.54015 0.0
C1715 C 0.6075 0.31078 0.55008 0.0
C1716 C 0.61384 0.3076 0.57647 0.0
C1717 C 0.59571 0.29494 0.59254 0.0
C1718 C 0.57558 0.30473 0.51214 0.0
C1719 C 0.63993 0.31716 0.5876 0.0
C1720 C 0.66515 0.31877 0.50446 0.0
C1721 C 0.66683 0.34577 0.50244 0.0
C1722 C 0.64554 0.3071 0.5195 0.0
C1723 C 0.62703 0.32282 0.53259 0.0
C1724 C 0.62779 0.34997 0.52963 0.0
C1725 C 0.64778 0.36118 0.51458 0.0
C1726 C 0.64527 0.27805 0.52221 0.0
C1727 C 0.60807 0.36723 0.54308 0.0
H1728 H 0.5467 0.28141 0.54889 0.0
H1729 H 0.60052 0.29235 0.61273 0.0
H1730 H 0.57707 0.32546 0.50715 0.0
H1731 H 0.58952 0.29411 0.4994 0.0
H1732 H 0.55522 0.29746 0.50781 0.0
H1733 H 0.64152 0.31371 0.60866 0.0
H1734 H 0.65634 0.30723 0.57749 0.0
H1735 H 0.64258 0.33821 0.58445 0.0
H1736 H 0.67977 0.30675 0.49503 0.0
H1737 H 0.64896 0.38205 0.51298 0.0
H1738 H 0.6256 0.26971 0.5169 0.0
H1739 H 0.649 0.27328 0.54267 0.0
H1740 H 0.66042 0.26854 0.50989 0.0
H1741 H 0.58766 0.3603 0.53867 0.0
H1742 H 0.61022 0.38772 0.53728 0.0
H1743 H 0.61074 0.36644 0.56434 0.0
C1744 C 0.20373 0.38265 0.07363 0.0
C1745 C 0.21579 0.39573 0.0532 0.0
C1746 C 0.19481 0.39621 0.09565 0.0
C1747 C 0.19775 0.42351 0.0971 0.0
C1748 C 0.21002 0.43684 0.07664 0.0
C1749 C 0.21906 0.42275 0.05497 0.0
C1750 C 0.18206 0.38135 0.11729 0.0
C1751 C 0.21319 0.46598 0.07745 0.0
C1752 C 0.15055 0.45796 0.14237 0.0
C1753 C 0.16644 0.4627 0.16423 0.0
C1754 C 0.16074 0.44588 0.12006 0.0
C1755 C 0.18735 0.4381 0.11982 0.0
C1756 C 0.20365 0.44334 0.14163 0.0
C1757 C 0.19302 0.45576 0.16358 0.0
C1758 C 0.1429 0.44092 0.09698 0.0
C1759 C 0.23206 0.43509 0.14209 0.0
H1760 H 0.20131 0.36175 0.07245 0.0
H1761 H 0.22827 0.43299 0.03919 0.0
H1762 H 0.19252 0.38581 0.13579 0.0
H1763 H 0.16132 0.38738 0.11987 0.0
H1764 H 0.18215 0.36008 0.11355 0.0
H1765 H 0.22359 0.47335 0.06012 0.0
H1766 H 0.19351 0.47495 0.0787 0.0
H1767 H 0.2244 0.47244 0.09497 0.0
H1768 H 0.13002 0.46347 0.14278 0.0
H1769 H 0.20532 0.45933 0.1805 0.0
H1770 H 0.14016 0.41976 0.09345 0.0
H1771 H 0.15206 0.44898 0.07936 0.0
H1772 H 0.12318 0.44956 0.09976 0.0
H1773 H 0.23289 0.41367 0.14032 0.0
H1774 H 0.24236 0.44156 0.16017 0.0
H1775 H 0.24292 0.44305 0.12535 0.0
C1776 C 0.30517 0.50331 0.82357 0.0
C1777 C 0.33172 0.50691 0.81685 0.0
C1778 C 0.29818 0.49093 0.84646 0.0
C1779 C 0.31829 0.48257 0.86313 0.0
C1780 C 0.34507 0.48821 0.85747 0.0
C1781 C 0.35149 0.50002 0.83416 0.0
C1782 C 0.26941 0.48495 0.85171 0.0
C1783 C 0.367 0.48025 0.87514 0.0
C1784 C 0.29629 0.45695 0.92799 0.0
C1785 C 0.29518 0.43022 0.92251 0.0
C1786 C 0.3047 0.47436 0.90913 0.0
C1787 C 0.31155 0.46472 0.8842 0.0
C1788 C 0.31112 0.4377 0.87885 0.0
C1789 C 0.3032 0.42078 0.89816 0.0
C1790 C 0.30561 0.50302 0.91564 0.0
C1791 C 0.31809 0.42666 0.85239 0.0
H1792 H 0.28988 0.50866 0.81017 0.0
H1793 H 0.37207 0.5032 0.82914 0.0
H1794 H 0.26561 0.4638 0.84922 0.0
H1795 H 0.26426 0.49044 0.87194 0.0
H1796 H 0.25616 0.49516 0.83843 0.0
H1797 H 0.38613 0.48986 0.8703 0.0
H1798 H 0.36213 0.48496 0.89564 0.0
H1799 H 0.36945 0.45898 0.87336 0.0
H1800 H 0.29019 0.46429 0.94685 0.0
H1801 H 0.3023 0.40014 0.8938 0.0
H1802 H 0.29022 0.51284 0.9045 0.0
H1803 H 0.32496 0.51161 0.91003 0.0
H1804 H 0.3023 0.50714 0.93658 0.0
H1805 H 0.30452 0.4342 0.83766 0.0
H1806 H 0.31683 0.40516 0.8515 0.0
H1807 H 0.33841 0.43284 0.84704 0.0
C1808 C 0.29877 0.58997 0.57927 0.0
C1809 C 0.28646 0.57573 0.55905 0.0
C1810 C 0.31213 0.57752 0.5989 0.0
C1811 C 0.31335 0.55018 0.59816 0.0
C1812 C 0.30193 0.53571 0.57725 0.0
C1813 C 0.2885 0.54869 0.55791 0.0
C1814 C 0.32408 0.5936 0.62095 0.0
C1815 C 0.30314 0.50654 0.57577 0.0
C1816 C 0.36405 0.52424 0.64382 0.0
C1817 C 0.34854 0.51954 0.66573 0.0
C1818 C 0.35262 0.53281 0.62099 0.0
C1819 C 0.32513 0.53692 0.62026 0.0
C1820 C 0.30921 0.53088 0.64187 0.0
C1821 C 0.32112 0.52214 0.66435 0.0
C1822 C 0.37013 0.53874 0.59817 0.0
C1823 C 0.2798 0.53507 0.6418 0.0
H1824 H 0.29734 0.61088 0.5802 0.0
H1825 H 0.27911 0.53761 0.54223 0.0
H1826 H 0.31399 0.5888 0.63932 0.0
H1827 H 0.34523 0.58909 0.62324 0.0
H1828 H 0.32242 0.61473 0.61798 0.0
H1829 H 0.29556 0.4984 0.55703 0.0
H1830 H 0.32373 0.50024 0.57841 0.0
H1831 H 0.2912 0.49822 0.59163 0.0
H1832 H 0.3852 0.52197 0.64472 0.0
H1833 H 0.30902 0.51836 0.68122 0.0
H1834 H 0.37155 0.56001 0.59582 0.0
H1835 H 0.36155 0.53017 0.58006 0.0
H1836 H 0.39037 0.53134 0.60061 0.0
H1837 H 0.27598 0.55611 0.64107 0.0
H1838 H 0.26997 0.52731 0.65926 0.0
H1839 H 0.27061 0.5257 0.62437 0.0
C1840 C 0.16548 0.51292 0.3282 0.0
C1841 C 0.18583 0.50517 0.31157 0.0
C1842 C 0.17095 0.52726 0.35097 0.0
C1843 C 0.19737 0.53458 0.35683 0.0
C1844 C 0.2181 0.52639 0.34035 0.0
C1845 C 0.21208 0.51141 0.31799 0.0
C1846 C 0.14839 0.53504 0.36844 0.0
C1847 C 0.24644 0.53432 0.3458 0.0
C1848 C 0.20433 0.59492 0.39963 0.0
C1849 C 0.20979 0.58437 0.42367 0.0
C1850 C 0.20124 0.57893 0.37748 0.0
C1851 C 0.20298 0.55176 0.37965 0.0
C1852 C 0.20855 0.54101 0.40388 0.0
C1853 C 0.21222 0.55751 0.42558 0.0
C1854 C 0.19582 0.59108 0.35181 0.0
C1855 C 0.20985 0.51209 0.40701 0.0
H1856 H 0.14518 0.50784 0.32332 0.0
H1857 H 0.22777 0.50552 0.30498 0.0
H1858 H 0.15237 0.52938 0.3886 0.0
H1859 H 0.14645 0.55639 0.36865 0.0
H1860 H 0.12928 0.52604 0.36211 0.0
H1861 H 0.26031 0.52546 0.33164 0.0
H1862 H 0.24865 0.5557 0.34508 0.0
H1863 H 0.25215 0.52867 0.36554 0.0
H1864 H 0.20275 0.61572 0.3981 0.0
H1865 H 0.21633 0.54933 0.44422 0.0
H1866 H 0.17581 0.58517 0.34491 0.0
H1867 H 0.21013 0.58416 0.33705 0.0
H1868 H 0.19706 0.61257 0.35308 0.0
H1869 H 0.19041 0.50292 0.40216 0.0
H1870 H 0.21522 0.5069 0.42703 0.0
H1871 H 0.22452 0.5037 0.39343 0.0
loop_
_geom_bond_atom_site_label_1
_geom_bond_atom_site_label_2
_geom_bond_distance
_geom_bond_site_symmetry_2
_ccdc_geom_bond_type
C0 O1 1.306 . S
C0 O3 1.160 . S
O1 C0 1.306 . S
O1 Cd2 2.228 . S
Cd2 O1 2.228 . S
Cd2 O6 2.273 1_655 S
Cd2 O10 2.277 . S
O3 C0 1.160 . S
O3 Cd4 2.203 1_655 S
Cd4 O3 2.203 1_455 S
Cd4 O6 2.411 . S
Cd4 O7 2.333 . S
Cd4 O8 2.352 . S
Cd4 O12 2.277 1_455 S
Cd4 O13 2.356 . S
C5 O10 1.209 . S
C5 O12 1.226 . S
O6 Cd2 2.273 1_455 S
O6 Cd4 2.411 . S
O6 C9 1.320 . S
O7 Cd4 2.333 . S
O7 C9 1.214 . S
O8 Cd4 2.352 . S
O8 C11 1.258 . S
C9 O6 1.320 . S
C9 O7 1.214 . S
O10 Cd2 2.277 . S
O10 C5 1.209 . S
C11 O8 1.258 . S
C11 O13 1.282 . S
O12 Cd4 2.277 1_655 S
O12 C5 1.226 . S
O13 Cd4 2.356 . S
O13 C11 1.282 . S
C14 O15 1.306 . S
C14 O17 1.160 . S
O15 C14 1.306 . S
O15 Cd16 2.228 1_655 S
Cd16 O15 2.228 1_455 S
Cd16 O20 2.273 . S
Cd16 O24 2.277 . S
O17 C14 1.160 . S
O17 Cd18 2.203 . S
Cd18 O17 2.203 . S
Cd18 O20 2.411 1_655 S
Cd18 O21 2.333 1_655 S
Cd18 O22 2.351 . S
Cd18 O26 2.277 1_655 S
Cd18 O27 2.356 . S
C19 O24 1.209 . S
C19 O26 1.226 . S
O20 Cd16 2.273 . S
O20 Cd18 2.411 1_455 S
O20 C23 1.320 . S
O21 Cd18 2.333 1_455 S
O21 C23 1.214 . S
O22 Cd18 2.351 . S
O22 C25 1.258 . S
C23 O20 1.320 . S
C23 O21 1.214 . S
O24 Cd16 2.277 . S
O24 C19 1.209 . S
C25 O22 1.258 . S
C25 O27 1.282 . S
O26 Cd18 2.277 1_455 S
O26 C19 1.226 . S
O27 Cd18 2.356 . S
O27 C25 1.282 . S
C28 O29 1.306 . S
C28 O31 1.160 . S
O29 C28 1.306 . S
O29 Cd30 2.228 . S
Cd30 O29 2.228 . S
Cd30 O34 2.273 . S
Cd30 O38 2.277 . S
O31 C28 1.160 . S
O31 Cd32 2.203 . S
Cd32 O31 2.203 . S
Cd32 O34 2.411 . S
Cd32 O35 2.333 . S
Cd32 O36 2.352 . S
Cd32 O40 2.277 . S
Cd32 O41 2.356 . S
C33 O38 1.209 . S
C33 O40 1.226 . S
O34 Cd30 2.273 . S
O34 Cd32 2.411 . S
O34 C37 1.320 . S
O35 Cd32 2.333 . S
O35 C37 1.214 . S
O36 Cd32 2.352 . S
O36 C39 1.258 . S
C37 O34 1.320 . S
C37 O35 1.214 . S
O38 Cd30 2.277 . S
O38 C33 1.209 . S
C39 O36 1.258 . S
C39 O41 1.282 . S
O40 Cd32 2.277 . S
O40 C33 1.226 . S
O41 Cd32 2.356 . S
O41 C39 1.282 . S
C42 O43 1.306 . S
C42 O45 1.160 . S
O43 C42 1.306 . S
O43 Cd44 2.228 . S
Cd44 O43 2.228 . S
Cd44 O48 2.273 . S
Cd44 O52 2.277 . S
O45 C42 1.160 . S
O45 Cd46 2.203 . S
Cd46 O45 2.203 . S
Cd46 O48 2.411 . S
Cd46 O49 2.333 . S
Cd46 O50 2.352 . S
Cd46 O54 2.277 . S
Cd46 O55 2.356 . S
C47 O52 1.209 . S
C47 O54 1.226 . S
O48 Cd44 2.273 . S
O48 Cd46 2.411 . S
O48 C51 1.320 . S
O49 Cd46 2.333 . S
O49 C51 1.214 . S
O50 Cd46 2.352 . S
O50 C53 1.258 . S
C51 O48 1.320 . S
C51 O49 1.214 . S
O52 Cd44 2.277 . S
O52 C47 1.209 . S
C53 O50 1.258 . S
C53 O55 1.282 . S
O54 Cd46 2.277 . S
O54 C47 1.226 . S
O55 Cd46 2.356 . S
O55 C53 1.282 . S
C56 O57 1.306 . S
C56 O59 1.160 . S
O57 C56 1.306 . S
O57 Cd58 2.228 . S
Cd58 O57 2.228 . S
Cd58 O62 2.273 1_655 S
Cd58 O66 2.277 . S
O59 C56 1.160 . S
O59 Cd60 2.203 1_655 S
Cd60 O59 2.203 1_455 S
Cd60 O62 2.411 . S
Cd60 O63 2.333 . S
Cd60 O64 2.352 . S
Cd60 O68 2.277 1_455 S
Cd60 O69 2.356 . S
C61 O66 1.209 . S
C61 O68 1.226 . S
O62 Cd58 2.273 1_455 S
O62 Cd60 2.411 . S
O62 C65 1.320 . S
O63 Cd60 2.333 . S
O63 C65 1.214 . S
O64 Cd60 2.352 . S
O64 C67 1.258 . S
C65 O62 1.320 . S
C65 O63 1.214 . S
O66 Cd58 2.277 . S
O66 C61 1.209 . S
C67 O64 1.258 . S
C67 O69 1.282 . S
O68 Cd60 2.277 1_655 S
O68 C61 1.226 . S
O69 Cd60 2.356 . S
O69 C67 1.282 . S
C70 O71 1.306 . S
C70 O73 1.160 . S
O71 C70 1.306 . S
O71 Cd72 2.228 . S
Cd72 O71 2.228 . S
Cd72 O76 2.273 . S
Cd72 O80 2.277 . S
O73 C70 1.160 . S
O73 Cd74 2.203 . S
Cd74 O73 2.203 . S
Cd74 O76 2.411 . S
Cd74 O77 2.333 . S
Cd74 O78 2.352 . S
Cd74 O82 2.277 . S
Cd74 O83 2.356 . S
C75 O80 1.209 . S
C75 O82 1.226 . S
O76 Cd72 2.273 . S
O76 Cd74 2.411 . S
O76 C79 1.320 . S
O77 Cd74 2.333 . S
O77 C79 1.214 . S
O78 Cd74 2.352 . S
O78 C81 1.258 . S
C79 O76 1.320 . S
C79 O77 1.214 . S
O80 Cd72 2.277 . S
O80 C75 1.209 . S
C81 O78 1.258 . S
C81 O83 1.282 . S
O82 Cd74 2.277 . S
O82 C75 1.226 . S
O83 Cd74 2.356 . S
O83 C81 1.282 . S
C84 O85 1.306 . S
C84 O87 1.160 . S
O85 C84 1.306 . S
O85 Cd86 2.228 . S
Cd86 O85 2.228 . S
Cd86 O90 2.273 . S
Cd86 O94 2.277 . S
O87 C84 1.160 . S
O87 Cd88 2.203 . S
Cd88 O87 2.203 . S
Cd88 O90 2.411 . S
Cd88 O91 2.333 . S
Cd88 O92 2.352 . S
Cd88 O96 2.277 . S
Cd88 O97 2.356 . S
C89 O94 1.209 . S
C89 O96 1.226 . S
O90 Cd86 2.273 . S
O90 Cd88 2.411 . S
O90 C93 1.320 . S
O91 Cd88 2.333 . S
O91 C93 1.214 . S
O92 Cd88 2.352 . S
O92 C95 1.258 . S
C93 O90 1.320 . S
C93 O91 1.214 . S
O94 Cd86 2.277 . S
O94 C89 1.209 . S
C95 O92 1.258 . S
C95 O97 1.282 . S
O96 Cd88 2.277 . S
O96 C89 1.226 . S
O97 Cd88 2.356 . S
O97 C95 1.282 . S
C98 O99 1.306 . S
C98 O101 1.160 . S
O99 C98 1.306 . S
O99 Cd100 2.228 1_655 S
Cd100 O99 2.228 1_455 S
Cd100 O104 2.273 . S
Cd100 O108 2.277 . S
O101 C98 1.160 . S
O101 Cd102 2.205 1_655 S
Cd102 O101 2.205 1_455 S
Cd102 O104 2.410 . S
Cd102 O105 2.331 . S
Cd102 O106 2.353 1_455 S
Cd102 O110 2.276 . S
Cd102 O111 2.357 1_455 S
C103 O108 1.209 . S
C103 O110 1.226 . S
O104 Cd100 2.273 . S
O104 Cd102 2.410 . S
O104 C107 1.320 . S
O105 Cd102 2.331 . S
O105 C107 1.214 . S
O106 Cd102 2.353 1_655 S
O106 C109 1.258 . S
C107 O104 1.320 . S
C107 O105 1.214 . S
O108 Cd100 2.277 . S
O108 C103 1.209 . S
C109 O106 1.258 . S
C109 O111 1.282 . S
O110 Cd102 2.276 . S
O110 C103 1.226 . S
O111 Cd102 2.357 1_655 S
O111 C109 1.282 . S
C112 O113 1.306 . S
C112 O115 1.160 . S
O113 C112 1.306 . S
O113 Cd114 2.228 . S
Cd114 O113 2.228 . S
Cd114 O118 2.273 1_565 S
Cd114 O122 2.277 . S
O115 C112 1.160 . S
O115 Cd116 2.203 1_565 S
Cd116 O115 2.203 1_545 S
Cd116 O118 2.411 . S
Cd116 O119 2.333 . S
Cd116 O120 2.352 . S
Cd116 O124 2.277 1_545 S
Cd116 O125 2.356 . S
C117 O122 1.209 . S
C117 O124 1.226 . S
O118 Cd114 2.273 1_545 S
O118 Cd116 2.411 . S
O118 C121 1.320 . S
O119 Cd116 2.333 . S
O119 C121 1.214 . S
O120 Cd116 2.352 . S
O120 C123 1.258 . S
C121 O118 1.320 . S
C121 O119 1.214 . S
O122 Cd114 2.277 . S
O122 C117 1.209 . S
C123 O120 1.258 . S
C123 O125 1.282 . S
O124 Cd116 2.277 1_565 S
O124 C117 1.226 . S
O125 Cd116 2.356 . S
O125 C123 1.282 . S
C126 O127 1.306 . S
C126 O129 1.160 . S
O127 C126 1.306 . S
O127 Cd128 2.228 . S
Cd128 O127 2.228 . S
Cd128 O132 2.273 . S
Cd128 O136 2.277 . S
O129 C126 1.160 . S
O129 Cd130 2.203 . S
Cd130 O129 2.203 . S
Cd130 O132 2.411 . S
Cd130 O133 2.333 . S
Cd130 O134 2.352 . S
Cd130 O138 2.277 . S
Cd130 O139 2.356 . S
C131 O136 1.209 . S
C131 O138 1.226 . S
O132 Cd128 2.273 . S
O132 Cd130 2.411 . S
O132 C135 1.320 . S
O133 Cd130 2.333 . S
O133 C135 1.214 . S
O134 Cd130 2.352 . S
O134 C137 1.258 . S
C135 O132 1.320 . S
C135 O133 1.214 . S
O136 Cd128 2.277 . S
O136 C131 1.209 . S
C137 O134 1.258 . S
C137 O139 1.282 . S
O138 Cd130 2.277 . S
O138 C131 1.226 . S
O139 Cd130 2.356 . S
O139 C137 1.282 . S
C140 O141 1.306 . S
C140 O143 1.160 . S
O141 C140 1.306 . S
O141 Cd142 2.228 . S
Cd142 O141 2.228 . S
Cd142 O146 2.273 1_545 S
Cd142 O150 2.277 . S
O143 C140 1.160 . S
O143 Cd144 2.203 . S
Cd144 O143 2.203 . S
Cd144 O146 2.411 1_545 S
Cd144 O147 2.333 1_545 S
Cd144 O148 2.352 1_545 S
Cd144 O152 2.277 . S
Cd144 O153 2.356 1_545 S
C145 O150 1.209 . S
C145 O152 1.226 . S
O146 Cd142 2.273 1_565 S
O146 Cd144 2.411 1_565 S
O146 C149 1.320 . S
O147 Cd144 2.333 1_565 S
O147 C149 1.214 . S
O148 Cd144 2.352 1_565 S
O148 C151 1.258 . S
C149 O146 1.320 . S
C149 O147 1.214 . S
O150 Cd142 2.277 . S
O150 C145 1.209 . S
C151 O148 1.258 . S
C151 O153 1.282 . S
O152 Cd144 2.277 . S
O152 C145 1.226 . S
O153 Cd144 2.356 1_565 S
O153 C151 1.282 . S
C154 O155 1.306 1_556 S
C154 O157 1.160 . S
O155 C154 1.306 1_554 S
O155 Cd156 2.228 . S
Cd156 O155 2.228 . S
Cd156 O160 2.273 . S
Cd156 O164 2.277 . S
O157 C154 1.160 . S
O157 Cd158 2.203 1_556 S
Cd158 O157 2.203 1_554 S
Cd158 O160 2.411 . S
Cd158 O161 2.333 . S
Cd158 O162 2.352 1_554 S
Cd158 O166 2.277 . S
Cd158 O167 2.356 1_554 S
C159 O164 1.209 . S
C159 O166 1.226 . S
O160 Cd156 2.273 . S
O160 Cd158 2.411 . S
O160 C163 1.320 . S
O161 Cd158 2.333 . S
O161 C163 1.214 . S
O162 Cd158 2.352 1_556 S
O162 C165 1.258 . S
C163 O160 1.320 . S
C163 O161 1.214 . S
O164 Cd156 2.277 . S
O164 C159 1.209 . S
C165 O162 1.258 . S
C165 O167 1.282 . S
O166 Cd158 2.277 . S
O166 C159 1.226 . S
O167 Cd158 2.356 1_556 S
O167 C165 1.282 . S
C168 O169 1.306 . S
C168 O171 1.160 . S
O169 C168 1.306 . S
O169 Cd170 2.228 . S
Cd170 O169 2.228 . S
Cd170 O174 2.273 1_554 S
Cd170 O178 2.277 . S
O171 C168 1.160 . S
O171 Cd172 2.203 . S
Cd172 O171 2.203 . S
Cd172 O174 2.411 1_554 S
Cd172 O175 2.333 1_554 S
Cd172 O176 2.352 1_554 S
Cd172 O180 2.277 . S
Cd172 O181 2.356 1_554 S
C173 O178 1.209 . S
C173 O180 1.226 . S
O174 Cd170 2.273 1_556 S
O174 Cd172 2.411 1_556 S
O174 C177 1.320 . S
O175 Cd172 2.333 1_556 S
O175 C177 1.214 . S
O176 Cd172 2.352 1_556 S
O176 C179 1.258 . S
C177 O174 1.320 . S
C177 O175 1.214 . S
O178 Cd170 2.277 . S
O178 C173 1.209 . S
C179 O176 1.258 . S
C179 O181 1.282 . S
O180 Cd172 2.277 . S
O180 C173 1.226 . S
O181 Cd172 2.356 1_556 S
O181 C179 1.282 . S
C182 O183 1.306 . S
C182 O185 1.160 . S
O183 C182 1.306 . S
O183 Cd184 2.228 . S
Cd184 O183 2.228 . S
Cd184 O188 2.273 1_556 S
Cd184 O192 2.277 . S
O185 C182 1.160 . S
O185 Cd186 2.203 1_556 S
Cd186 O185 2.203 1_554 S
Cd186 O188 2.411 . S
Cd186 O189 2.333 . S
Cd186 O190 2.352 . S
Cd186 O194 2.277 1_554 S
Cd186 O195 2.356 . S
C187 O192 1.209 . S
C187 O194 1.226 . S
O188 Cd184 2.273 1_554 S
O188 Cd186 2.411 . S
O188 C191 1.320 . S
O189 Cd186 2.333 . S
O189 C191 1.214 . S
O190 Cd186 2.352 . S
O190 C193 1.258 . S
C191 O188 1.320 . S
C191 O189 1.214 . S
O192 Cd184 2.277 . S
O192 C187 1.209 . S
C193 O190 1.258 . S
C193 O195 1.282 . S
O194 Cd186 2.277 1_556 S
O194 C187 1.226 . S
O195 Cd186 2.356 . S
O195 C193 1.282 . S
C196 O197 1.306 . S
C196 O199 1.160 . S
O197 C196 1.306 . S
O197 Cd198 2.228 . S
Cd198 O197 2.228 . S
Cd198 O202 2.273 . S
Cd198 O206 2.277 . S
O199 C196 1.160 . S
O199 Cd200 2.203 . S
Cd200 O199 2.203 . S
Cd200 O202 2.411 . S
Cd200 O203 2.333 . S
Cd200 O204 2.352 . S
Cd200 O208 2.277 . S
Cd200 O209 2.356 . S
C201 O206 1.209 . S
C201 O208 1.226 . S
O202 Cd198 2.273 . S
O202 Cd200 2.411 . S
O202 C205 1.320 . S
O203 Cd200 2.333 . S
O203 C205 1.214 . S
O204 Cd200 2.352 . S
O204 C207 1.258 . S
C205 O202 1.320 . S
C205 O203 1.214 . S
O206 Cd198 2.277 . S
O206 C201 1.209 . S
C207 O204 1.258 . S
C207 O209 1.282 . S
O208 Cd200 2.277 . S
O208 C201 1.226 . S
O209 Cd200 2.356 . S
O209 C207 1.282 . S
C210 O211 1.306 . S
C210 O213 1.160 . S
O211 C210 1.306 . S
O211 Cd212 2.228 . S
Cd212 O211 2.228 . S
Cd212 O216 2.273 . S
Cd212 O220 2.277 . S
O213 C210 1.160 . S
O213 Cd214 2.203 . S
Cd214 O213 2.203 . S
Cd214 O216 2.411 . S
Cd214 O217 2.333 . S
Cd214 O218 2.352 . S
Cd214 O222 2.277 . S
Cd214 O223 2.356 . S
C215 O220 1.209 . S
C215 O222 1.226 . S
O216 Cd212 2.273 . S
O216 Cd214 2.411 . S
O216 C219 1.320 . S
O217 Cd214 2.333 . S
O217 C219 1.214 . S
O218 Cd214 2.352 . S
O218 C221 1.258 . S
C219 O216 1.320 . S
C219 O217 1.214 . S
O220 Cd212 2.277 . S
O220 C215 1.209 . S
C221 O218 1.258 . S
C221 O223 1.282 . S
O222 Cd214 2.277 . S
O222 C215 1.226 . S
O223 Cd214 2.356 . S
O223 C221 1.282 . S
C224 O225 1.306 1_565 S
C224 O227 1.160 . S
O225 C224 1.306 1_545 S
O225 Cd226 2.228 . S
Cd226 O225 2.228 . S
Cd226 O230 2.273 . S
Cd226 O234 2.277 . S
O227 C224 1.160 . S
O227 Cd228 2.189 1_565 S
Cd228 O227 2.189 1_545 S
Cd228 O230 2.423 . S
Cd228 O231 2.349 . S
Cd228 O232 2.321 1_545 S
Cd228 O236 2.299 . S
Cd228 O237 2.338 1_545 S
C229 O234 1.209 . S
C229 O236 1.226 . S
O230 Cd226 2.273 . S
O230 Cd228 2.423 . S
O230 C233 1.320 . S
O231 Cd228 2.349 . S
O231 C233 1.214 . S
O232 Cd228 2.321 1_565 S
O232 C235 1.258 . S
C233 O230 1.320 . S
C233 O231 1.214 . S
O234 Cd226 2.277 . S
O234 C229 1.209 . S
C235 O232 1.258 . S
C235 O237 1.282 . S
O236 Cd228 2.299 . S
O236 C229 1.226 . S
O237 Cd228 2.338 1_565 S
O237 C235 1.282 . S
C238 O239 1.306 . S
C238 O241 1.160 . S
O239 C238 1.306 . S
O239 Cd240 2.228 . S
Cd240 O239 2.228 . S
Cd240 O244 2.273 . S
Cd240 O248 2.277 . S
O241 C238 1.160 . S
O241 Cd242 2.203 . S
Cd242 O241 2.203 . S
Cd242 O244 2.411 . S
Cd242 O245 2.333 . S
Cd242 O246 2.352 . S
Cd242 O250 2.277 . S
Cd242 O251 2.356 . S
C243 O248 1.209 . S
C243 O250 1.226 . S
O244 Cd240 2.273 . S
O244 Cd242 2.411 . S
O244 C247 1.320 . S
O245 Cd242 2.333 . S
O245 C247 1.214 . S
O246 Cd242 2.352 . S
O246 C249 1.258 . S
C247 O244 1.320 . S
C247 O245 1.214 . S
O248 Cd240 2.277 . S
O248 C243 1.209 . S
C249 O246 1.258 . S
C249 O251 1.282 . S
O250 Cd242 2.277 . S
O250 C243 1.226 . S
O251 Cd242 2.356 . S
O251 C249 1.282 . S
C252 O253 1.306 . S
C252 O255 1.160 . S
O253 C252 1.306 . S
O253 Cd254 2.228 . S
Cd254 O253 2.228 . S
Cd254 O258 2.273 . S
Cd254 O262 2.277 . S
O255 C252 1.160 . S
O255 Cd256 2.203 . S
Cd256 O255 2.203 . S
Cd256 O258 2.411 . S
Cd256 O259 2.333 . S
Cd256 O260 2.352 . S
Cd256 O264 2.277 . S
Cd256 O265 2.356 . S
C257 O262 1.209 . S
C257 O264 1.226 . S
O258 Cd254 2.273 . S
O258 Cd256 2.411 . S
O258 C261 1.320 . S
O259 Cd256 2.333 . S
O259 C261 1.214 . S
O260 Cd256 2.352 . S
O260 C263 1.258 . S
C261 O258 1.320 . S
C261 O259 1.214 . S
O262 Cd254 2.277 . S
O262 C257 1.209 . S
C263 O260 1.258 . S
C263 O265 1.282 . S
O264 Cd256 2.277 . S
O264 C257 1.226 . S
O265 Cd256 2.356 . S
O265 C263 1.282 . S
C266 O267 1.306 . S
C266 O269 1.160 . S
O267 C266 1.306 . S
O267 Cd268 2.228 1_545 S
Cd268 O267 2.228 1_565 S
Cd268 O272 2.273 . S
Cd268 O276 2.277 . S
O269 C266 1.160 . S
O269 Cd270 2.203 . S
Cd270 O269 2.203 . S
Cd270 O272 2.411 1_545 S
Cd270 O273 2.333 1_545 S
Cd270 O274 2.352 . S
Cd270 O278 2.277 1_545 S
Cd270 O279 2.356 . S
C271 O276 1.209 . S
C271 O278 1.226 . S
O272 Cd268 2.273 . S
O272 Cd270 2.411 1_565 S
O272 C275 1.320 . S
O273 Cd270 2.333 1_565 S
O273 C275 1.214 . S
O274 Cd270 2.352 . S
O274 C277 1.258 . S
C275 O272 1.320 . S
C275 O273 1.214 . S
O276 Cd268 2.277 . S
O276 C271 1.209 . S
C277 O274 1.258 . S
C277 O279 1.282 . S
O278 Cd270 2.277 1_565 S
O278 C271 1.226 . S
O279 Cd270 2.356 . S
O279 C277 1.282 . S
C280 O281 1.306 1_556 S
C280 O283 1.160 . S
O281 C280 1.306 1_554 S
O281 Cd282 2.228 . S
Cd282 O281 2.228 . S
Cd282 O286 2.273 . S
Cd282 O290 2.277 . S
O283 C280 1.160 . S
O283 Cd284 2.203 1_556 S
Cd284 O283 2.203 1_554 S
Cd284 O286 2.411 . S
Cd284 O287 2.333 . S
Cd284 O288 2.352 1_554 S
Cd284 O292 2.277 . S
Cd284 O293 2.356 1_554 S
C285 O290 1.209 . S
C285 O292 1.226 . S
O286 Cd282 2.273 . S
O286 Cd284 2.411 . S
O286 C289 1.320 . S
O287 Cd284 2.333 . S
O287 C289 1.214 . S
O288 Cd284 2.352 1_556 S
O288 C291 1.258 . S
C289 O286 1.320 . S
C289 O287 1.214 . S
O290 Cd282 2.277 . S
O290 C285 1.209 . S
C291 O288 1.258 . S
C291 O293 1.282 . S
O292 Cd284 2.277 . S
O292 C285 1.226 . S
O293 Cd284 2.356 1_556 S
O293 C291 1.282 . S
C294 O295 1.306 . S
C294 O297 1.160 . S
O295 C294 1.306 . S
O295 Cd296 2.228 . S
Cd296 O295 2.228 . S
Cd296 O300 2.273 . S
Cd296 O304 2.277 . S
O297 C294 1.160 . S
O297 Cd298 2.203 . S
Cd298 O297 2.203 . S
Cd298 O300 2.411 . S
Cd298 O301 2.333 . S
Cd298 O302 2.352 . S
Cd298 O306 2.277 . S
Cd298 O307 2.356 . S
C299 O304 1.209 . S
C299 O306 1.226 . S
O300 Cd296 2.273 . S
O300 Cd298 2.411 . S
O300 C303 1.320 . S
O301 Cd298 2.333 . S
O301 C303 1.214 . S
O302 Cd298 2.352 . S
O302 C305 1.258 . S
C303 O300 1.320 . S
C303 O301 1.214 . S
O304 Cd296 2.277 . S
O304 C299 1.209 . S
C305 O302 1.258 . S
C305 O307 1.282 . S
O306 Cd298 2.277 . S
O306 C299 1.226 . S
O307 Cd298 2.356 . S
O307 C305 1.282 . S
C308 O309 1.306 . S
C308 O311 1.160 . S
O309 C308 1.306 . S
O309 Cd310 2.228 . S
Cd310 O309 2.228 . S
Cd310 O314 2.273 . S
Cd310 O318 2.277 . S
O311 C308 1.160 . S
O311 Cd312 2.203 . S
Cd312 O311 2.203 . S
Cd312 O314 2.411 . S
Cd312 O315 2.333 . S
Cd312 O316 2.352 . S
Cd312 O320 2.277 . S
Cd312 O321 2.356 . S
C313 O318 1.209 . S
C313 O320 1.226 . S
O314 Cd310 2.273 . S
O314 Cd312 2.411 . S
O314 C317 1.320 . S
O315 Cd312 2.333 . S
O315 C317 1.214 . S
O316 Cd312 2.352 . S
O316 C319 1.258 . S
C317 O314 1.320 . S
C317 O315 1.214 . S
O318 Cd310 2.277 . S
O318 C313 1.209 . S
C319 O316 1.258 . S
C319 O321 1.282 . S
O320 Cd312 2.277 . S
O320 C313 1.226 . S
O321 Cd312 2.356 . S
O321 C319 1.282 . S
C322 O323 1.306 . S
C322 O325 1.160 . S
O323 C322 1.306 . S
O323 Cd324 2.228 . S
Cd324 O323 2.228 . S
Cd324 O328 2.273 . S
Cd324 O332 2.277 . S
O325 C322 1.160 . S
O325 Cd326 2.203 . S
Cd326 O325 2.203 . S
Cd326 O328 2.411 . S
Cd326 O329 2.333 . S
Cd326 O330 2.352 . S
Cd326 O334 2.277 . S
Cd326 O335 2.356 . S
C327 O332 1.209 . S
C327 O334 1.226 . S
O328 Cd324 2.273 . S
O328 Cd326 2.411 . S
O328 C331 1.320 . S
O329 Cd326 2.333 . S
O329 C331 1.214 . S
O330 Cd326 2.352 . S
O330 C333 1.258 . S
C331 O328 1.320 . S
C331 O329 1.214 . S
O332 Cd324 2.277 . S
O332 C327 1.209 . S
C333 O330 1.258 . S
C333 O335 1.282 . S
O334 Cd326 2.277 . S
O334 C327 1.226 . S
O335 Cd326 2.356 . S
O335 C333 1.282 . S
C336 C337 1.391 . S
C336 C338 1.394 . S
C336 H352 0.931 . S
C337 C336 1.391 . S
C337 C341 1.376 . S
C338 C336 1.394 . S
C338 C339 1.369 . S
C338 C342 1.531 . S
C339 C338 1.369 . S
C339 C340 1.410 . S
C339 C347 1.503 . S
C340 C339 1.410 . S
C340 C341 1.392 . S
C340 C343 1.511 . S
C341 C337 1.376 . S
C341 C340 1.392 . S
C341 H353 0.929 . S
C342 C338 1.531 . S
C342 H354 0.960 . S
C342 H355 0.962 . S
C342 H356 0.960 . S
C343 C340 1.511 . S
C343 H357 0.961 . S
C343 H358 0.961 . S
C343 H359 0.961 . S
C344 C345 1.370 . S
C344 C346 1.363 . S
C344 H360 0.931 . S
C345 C344 1.370 . S
C345 C349 1.408 . S
C346 C344 1.363 . S
C346 C347 1.370 . S
C346 C350 1.524 . S
C347 C339 1.503 . S
C347 C346 1.370 . S
C347 C348 1.403 . S
C348 C347 1.403 . S
C348 C349 1.404 . S
C348 C351 1.539 . S
C349 C345 1.408 . S
C349 C348 1.404 . S
C349 H361 0.930 . S
C350 C346 1.524 . S
C350 H362 0.956 . S
C350 H363 0.961 . S
C350 H364 0.961 . S
C351 C348 1.539 . S
C351 H365 0.958 . S
C351 H366 0.961 . S
C351 H367 0.960 . S
H352 C336 0.931 . S
H353 C341 0.929 . S
H354 C342 0.960 . S
H355 C342 0.962 . S
H356 C342 0.960 . S
H357 C343 0.961 . S
H358 C343 0.961 . S
H359 C343 0.961 . S
H360 C344 0.931 . S
H361 C349 0.930 . S
H362 C350 0.956 . S
H363 C350 0.961 . S
H364 C350 0.961 . S
H365 C351 0.958 . S
H366 C351 0.961 . S
H367 C351 0.960 . S
C368 C369 1.391 . S
C368 C370 1.394 . S
C368 H384 0.931 . S
C369 C368 1.391 . S
C369 C373 1.376 . S
C370 C368 1.394 . S
C370 C371 1.369 . S
C370 C374 1.531 . S
C371 C370 1.369 . S
C371 C372 1.410 . S
C371 C379 1.503 . S
C372 C371 1.410 . S
C372 C373 1.392 . S
C372 C375 1.511 . S
C373 C369 1.376 . S
C373 C372 1.392 . S
C373 H385 0.929 . S
C374 C370 1.531 . S
C374 H386 0.960 . S
C374 H387 0.962 . S
C374 H388 0.960 . S
C375 C372 1.511 . S
C375 H389 0.961 . S
C375 H390 0.961 . S
C375 H391 0.961 . S
C376 C377 1.370 . S
C376 C378 1.363 . S
C376 H392 0.931 . S
C377 C376 1.370 . S
C377 C381 1.408 . S
C378 C376 1.363 . S
C378 C379 1.370 . S
C378 C382 1.524 . S
C379 C371 1.503 . S
C379 C378 1.370 . S
C379 C380 1.403 . S
C380 C379 1.403 . S
C380 C381 1.404 . S
C380 C383 1.539 . S
C381 C377 1.408 . S
C381 C380 1.404 . S
C381 H393 0.930 . S
C382 C378 1.524 . S
C382 H394 0.956 . S
C382 H395 0.961 . S
C382 H396 0.961 . S
C383 C380 1.539 . S
C383 H397 0.958 . S
C383 H398 0.961 . S
C383 H399 0.960 . S
H384 C368 0.931 . S
H385 C373 0.929 . S
H386 C374 0.960 . S
H387 C374 0.962 . S
H388 C374 0.960 . S
H389 C375 0.961 . S
H390 C375 0.961 . S
H391 C375 0.961 . S
H392 C376 0.931 . S
H393 C381 0.930 . S
H394 C382 0.956 . S
H395 C382 0.961 . S
H396 C382 0.961 . S
H397 C383 0.958 . S
H398 C383 0.961 . S
H399 C383 0.960 . S
C400 C401 1.391 . S
C400 C402 1.394 . S
C400 H416 0.931 . S
C401 C400 1.391 . S
C401 C405 1.376 . S
C402 C400 1.394 . S
C402 C403 1.369 . S
C402 C406 1.531 . S
C403 C402 1.369 . S
C403 C404 1.410 . S
C403 C411 1.503 . S
C404 C403 1.410 . S
C404 C405 1.392 . S
C404 C407 1.511 . S
C405 C401 1.376 . S
C405 C404 1.392 . S
C405 H417 0.929 . S
C406 C402 1.531 . S
C406 H418 0.960 . S
C406 H419 0.962 . S
C406 H420 0.960 . S
C407 C404 1.511 . S
C407 H421 0.961 . S
C407 H422 0.961 . S
C407 H423 0.961 . S
C408 C409 1.370 . S
C408 C410 1.363 . S
C408 H424 0.931 . S
C409 C408 1.370 . S
C409 C413 1.408 . S
C410 C408 1.363 . S
C410 C411 1.370 . S
C410 C414 1.524 . S
C411 C403 1.503 . S
C411 C410 1.370 . S
C411 C412 1.403 . S
C412 C411 1.403 . S
C412 C413 1.404 . S
C412 C415 1.539 . S
C413 C409 1.408 . S
C413 C412 1.404 . S
C413 H425 0.930 . S
C414 C410 1.524 . S
C414 H426 0.956 . S
C414 H427 0.961 . S
C414 H428 0.961 . S
C415 C412 1.539 . S
C415 H429 0.958 . S
C415 H430 0.961 . S
C415 H431 0.960 . S
H416 C400 0.931 . S
H417 C405 0.929 . S
H418 C406 0.960 . S
H419 C406 0.962 . S
H420 C406 0.960 . S
H421 C407 0.961 . S
H422 C407 0.961 . S
H423 C407 0.961 . S
H424 C408 0.931 . S
H425 C413 0.930 . S
H426 C414 0.956 . S
H427 C414 0.961 . S
H428 C414 0.961 . S
H429 C415 0.958 . S
H430 C415 0.961 . S
H431 C415 0.960 . S
C432 C433 1.391 . S
C432 C434 1.394 . S
C432 H448 0.931 . S
C433 C432 1.391 . S
C433 C437 1.376 . S
C434 C432 1.394 . S
C434 C435 1.369 . S
C434 C438 1.531 . S
C435 C434 1.369 . S
C435 C436 1.410 . S
C435 C443 1.503 . S
C436 C435 1.410 . S
C436 C437 1.392 . S
C436 C439 1.511 . S
C437 C433 1.376 . S
C437 C436 1.392 . S
C437 H449 0.929 . S
C438 C434 1.531 . S
C438 H450 0.960 . S
C438 H451 0.962 . S
C438 H452 0.960 . S
C439 C436 1.511 . S
C439 H453 0.961 . S
C439 H454 0.961 . S
C439 H455 0.961 . S
C440 C441 1.370 . S
C440 C442 1.363 . S
C440 H456 0.931 . S
C441 C440 1.370 . S
C441 C445 1.408 . S
C442 C440 1.363 . S
C442 C443 1.370 . S
C442 C446 1.524 . S
C443 C435 1.503 . S
C443 C442 1.370 . S
C443 C444 1.403 . S
C444 C443 1.403 . S
C444 C445 1.404 . S
C444 C447 1.539 . S
C445 C441 1.408 . S
C445 C444 1.404 . S
C445 H457 0.930 . S
C446 C442 1.524 . S
C446 H458 0.956 . S
C446 H459 0.961 . S
C446 H460 0.961 . S
C447 C444 1.539 . S
C447 H461 0.958 . S
C447 H462 0.961 . S
C447 H463 0.960 . S
H448 C432 0.931 . S
H449 C437 0.929 . S
H450 C438 0.960 . S
H451 C438 0.962 . S
H452 C438 0.960 . S
H453 C439 0.961 . S
H454 C439 0.961 . S
H455 C439 0.961 . S
H456 C440 0.931 . S
H457 C445 0.930 . S
H458 C446 0.956 . S
H459 C446 0.961 . S
H460 C446 0.961 . S
H461 C447 0.958 . S
H462 C447 0.961 . S
H463 C447 0.960 . S
C464 C465 1.391 . S
C464 C466 1.394 . S
C464 H480 0.931 . S
C465 C464 1.391 . S
C465 C469 1.376 . S
C466 C464 1.394 . S
C466 C467 1.369 . S
C466 C470 1.531 . S
C467 C466 1.369 . S
C467 C468 1.410 . S
C467 C475 1.503 . S
C468 C467 1.410 . S
C468 C469 1.392 . S
C468 C471 1.511 . S
C469 C465 1.376 . S
C469 C468 1.392 . S
C469 H481 0.929 . S
C470 C466 1.531 . S
C470 H482 0.960 . S
C470 H483 0.962 . S
C470 H484 0.960 . S
C471 C468 1.511 . S
C471 H485 0.961 . S
C471 H486 0.961 . S
C471 H487 0.961 . S
C472 C473 1.370 . S
C472 C474 1.363 . S
C472 H488 0.931 . S
C473 C472 1.370 . S
C473 C477 1.408 . S
C474 C472 1.363 . S
C474 C475 1.370 . S
C474 C478 1.524 . S
C475 C467 1.503 . S
C475 C474 1.370 . S
C475 C476 1.403 . S
C476 C475 1.403 . S
C476 C477 1.404 . S
C476 C479 1.539 . S
C477 C473 1.408 . S
C477 C476 1.404 . S
C477 H489 0.930 . S
C478 C474 1.524 . S
C478 H490 0.956 . S
C478 H491 0.961 . S
C478 H492 0.961 . S
C479 C476 1.539 . S
C479 H493 0.958 . S
C479 H494 0.961 . S
C479 H495 0.960 . S
H480 C464 0.931 . S
H481 C469 0.929 . S
H482 C470 0.960 . S
H483 C470 0.962 . S
H484 C470 0.960 . S
H485 C471 0.961 . S
H486 C471 0.961 . S
H487 C471 0.961 . S
H488 C472 0.931 . S
H489 C477 0.930 . S
H490 C478 0.956 . S
H491 C478 0.961 . S
H492 C478 0.961 . S
H493 C479 0.958 . S
H494 C479 0.961 . S
H495 C479 0.960 . S
C496 C497 1.391 . S
C496 C498 1.394 . S
C496 H512 0.931 . S
C497 C496 1.391 . S
C497 C501 1.376 . S
C498 C496 1.394 . S
C498 C499 1.369 . S
C498 C502 1.531 . S
C499 C498 1.369 . S
C499 C500 1.410 . S
C499 C507 1.503 . S
C500 C499 1.410 . S
C500 C501 1.392 . S
C500 C503 1.511 . S
C501 C497 1.376 . S
C501 C500 1.392 . S
C501 H513 0.929 . S
C502 C498 1.531 . S
C502 H514 0.960 . S
C502 H515 0.962 . S
C502 H516 0.960 . S
C503 C500 1.511 . S
C503 H517 0.961 . S
C503 H518 0.961 . S
C503 H519 0.961 . S
C504 C505 1.370 . S
C504 C506 1.363 . S
C504 H520 0.931 . S
C505 C504 1.370 . S
C505 C509 1.408 . S
C506 C504 1.363 . S
C506 C507 1.370 . S
C506 C510 1.524 . S
C507 C499 1.503 . S
C507 C506 1.370 . S
C507 C508 1.403 . S
C508 C507 1.403 . S
C508 C509 1.404 . S
C508 C511 1.539 . S
C509 C505 1.408 . S
C509 C508 1.404 . S
C509 H521 0.930 . S
C510 C506 1.524 . S
C510 H522 0.956 . S
C510 H523 0.961 . S
C510 H524 0.961 . S
C511 C508 1.539 . S
C511 H525 0.958 . S
C511 H526 0.961 . S
C511 H527 0.960 . S
H512 C496 0.931 . S
H513 C501 0.929 . S
H514 C502 0.960 . S
H515 C502 0.962 . S
H516 C502 0.960 . S
H517 C503 0.961 . S
H518 C503 0.961 . S
H519 C503 0.961 . S
H520 C504 0.931 . S
H521 C509 0.930 . S
H522 C510 0.956 . S
H523 C510 0.961 . S
H524 C510 0.961 . S
H525 C511 0.958 . S
H526 C511 0.961 . S
H527 C511 0.960 . S
C528 C529 1.391 . S
C528 C530 1.394 . S
C528 H544 0.931 . S
C529 C528 1.391 . S
C529 C533 1.376 . S
C530 C528 1.394 . S
C530 C531 1.369 . S
C530 C534 1.531 . S
C531 C530 1.369 . S
C531 C532 1.410 . S
C531 C539 1.503 . S
C532 C531 1.410 . S
C532 C533 1.392 . S
C532 C535 1.511 . S
C533 C529 1.376 . S
C533 C532 1.392 . S
C533 H545 0.929 . S
C534 C530 1.531 . S
C534 H546 0.960 . S
C534 H547 0.962 . S
C534 H548 0.960 . S
C535 C532 1.511 . S
C535 H549 0.961 . S
C535 H550 0.961 . S
C535 H551 0.961 . S
C536 C537 1.370 . S
C536 C538 1.363 . S
C536 H552 0.931 . S
C537 C536 1.370 . S
C537 C541 1.408 . S
C538 C536 1.363 . S
C538 C539 1.370 . S
C538 C542 1.524 . S
C539 C531 1.503 . S
C539 C538 1.370 . S
C539 C540 1.403 . S
C540 C539 1.403 . S
C540 C541 1.404 . S
C540 C543 1.539 . S
C541 C537 1.408 . S
C541 C540 1.404 . S
C541 H553 0.930 . S
C542 C538 1.524 . S
C542 H554 0.956 . S
C542 H555 0.961 . S
C542 H556 0.961 . S
C543 C540 1.539 . S
C543 H557 0.958 . S
C543 H558 0.961 . S
C543 H559 0.960 . S
H544 C528 0.931 . S
H545 C533 0.929 . S
H546 C534 0.960 . S
H547 C534 0.962 . S
H548 C534 0.960 . S
H549 C535 0.961 . S
H550 C535 0.961 . S
H551 C535 0.961 . S
H552 C536 0.931 . S
H553 C541 0.930 . S
H554 C542 0.956 . S
H555 C542 0.961 . S
H556 C542 0.961 . S
H557 C543 0.958 . S
H558 C543 0.961 . S
H559 C543 0.960 . S
C560 C561 1.391 . S
C560 C562 1.394 . S
C560 H576 0.931 . S
C561 C560 1.391 . S
C561 C565 1.376 . S
C562 C560 1.394 . S
C562 C563 1.369 . S
C562 C566 1.531 . S
C563 C562 1.369 . S
C563 C564 1.410 . S
C563 C571 1.503 . S
C564 C563 1.410 . S
C564 C565 1.392 . S
C564 C567 1.511 . S
C565 C561 1.376 . S
C565 C564 1.392 . S
C565 H577 0.929 . S
C566 C562 1.531 . S
C566 H578 0.960 . S
C566 H579 0.962 . S
C566 H580 0.960 . S
C567 C564 1.511 . S
C567 H581 0.961 . S
C567 H582 0.961 . S
C567 H583 0.961 . S
C568 C569 1.370 . S
C568 C570 1.363 . S
C568 H584 0.931 . S
C569 C568 1.370 . S
C569 C573 1.408 . S
C570 C568 1.363 . S
C570 C571 1.370 . S
C570 C574 1.524 . S
C571 C563 1.503 . S
C571 C570 1.370 . S
C571 C572 1.403 . S
C572 C571 1.403 . S
C572 C573 1.404 . S
C572 C575 1.539 . S
C573 C569 1.408 . S
C573 C572 1.404 . S
C573 H585 0.930 . S
C574 C570 1.524 . S
C574 H586 0.956 . S
C574 H587 0.961 . S
C574 H588 0.961 . S
C575 C572 1.539 . S
C575 H589 0.958 . S
C575 H590 0.961 . S
C575 H591 0.960 . S
H576 C560 0.931 . S
H577 C565 0.929 . S
H578 C566 0.960 . S
H579 C566 0.962 . S
H580 C566 0.960 . S
H581 C567 0.961 . S
H582 C567 0.961 . S
H583 C567 0.961 . S
H584 C568 0.931 . S
H585 C573 0.930 . S
H586 C574 0.956 . S
H587 C574 0.961 . S
H588 C574 0.961 . S
H589 C575 0.958 . S
H590 C575 0.961 . S
H591 C575 0.960 . S
C592 C593 1.391 . S
C592 C594 1.394 . S
C592 H608 0.931 . S
C593 C592 1.391 . S
C593 C597 1.376 . S
C594 C592 1.394 . S
C594 C595 1.369 . S
C594 C598 1.531 . S
C595 C594 1.369 . S
C595 C596 1.410 . S
C595 C603 1.503 . S
C596 C595 1.410 . S
C596 C597 1.392 . S
C596 C599 1.511 . S
C597 C593 1.376 . S
C597 C596 1.392 . S
C597 H609 0.929 . S
C598 C594 1.531 . S
C598 H610 0.960 . S
C598 H611 0.962 . S
C598 H612 0.960 . S
C599 C596 1.511 . S
C599 H613 0.961 . S
C599 H614 0.961 . S
C599 H615 0.961 . S
C600 C601 1.370 . S
C600 C602 1.363 . S
C600 H616 0.931 . S
C601 C600 1.370 . S
C601 C605 1.408 . S
C602 C600 1.363 . S
C602 C603 1.370 . S
C602 C606 1.524 . S
C603 C595 1.503 . S
C603 C602 1.370 . S
C603 C604 1.403 . S
C604 C603 1.403 . S
C604 C605 1.404 . S
C604 C607 1.539 . S
C605 C601 1.408 . S
C605 C604 1.404 . S
C605 H617 0.930 . S
C606 C602 1.524 . S
C606 H618 0.956 . S
C606 H619 0.961 . S
C606 H620 0.961 . S
C607 C604 1.539 . S
C607 H621 0.958 . S
C607 H622 0.961 . S
C607 H623 0.960 . S
H608 C592 0.931 . S
H609 C597 0.929 . S
H610 C598 0.960 . S
H611 C598 0.962 . S
H612 C598 0.960 . S
H613 C599 0.961 . S
H614 C599 0.961 . S
H615 C599 0.961 . S
H616 C600 0.931 . S
H617 C605 0.930 . S
H618 C606 0.956 . S
H619 C606 0.961 . S
H620 C606 0.961 . S
H621 C607 0.958 . S
H622 C607 0.961 . S
H623 C607 0.960 . S
C624 C625 1.391 . S
C624 C626 1.394 . S
C624 H640 0.931 . S
C625 C624 1.391 . S
C625 C629 1.376 . S
C626 C624 1.394 . S
C626 C627 1.369 . S
C626 C630 1.531 . S
C627 C626 1.369 . S
C627 C628 1.410 . S
C627 C635 1.503 . S
C628 C627 1.410 . S
C628 C629 1.392 . S
C628 C631 1.511 . S
C629 C625 1.376 . S
C629 C628 1.392 . S
C629 H641 0.929 . S
C630 C626 1.531 . S
C630 H642 0.960 . S
C630 H643 0.962 . S
C630 H644 0.960 . S
C631 C628 1.511 . S
C631 H645 0.961 . S
C631 H646 0.961 . S
C631 H647 0.961 . S
C632 C633 1.370 . S
C632 C634 1.363 . S
C632 H648 0.931 . S
C633 C632 1.370 . S
C633 C637 1.408 . S
C634 C632 1.363 . S
C634 C635 1.370 . S
C634 C638 1.524 . S
C635 C627 1.503 . S
C635 C634 1.370 . S
C635 C636 1.403 . S
C636 C635 1.403 . S
C636 C637 1.404 . S
C636 C639 1.539 . S
C637 C633 1.408 . S
C637 C636 1.404 . S
C637 H649 0.930 . S
C638 C634 1.524 . S
C638 H650 0.956 . S
C638 H651 0.961 . S
C638 H652 0.961 . S
C639 C636 1.539 . S
C639 H653 0.958 . S
C639 H654 0.961 . S
C639 H655 0.960 . S
H640 C624 0.931 . S
H641 C629 0.929 . S
H642 C630 0.960 . S
H643 C630 0.962 . S
H644 C630 0.960 . S
H645 C631 0.961 . S
H646 C631 0.961 . S
H647 C631 0.961 . S
H648 C632 0.931 . S
H649 C637 0.930 . S
H650 C638 0.956 . S
H651 C638 0.961 . S
H652 C638 0.961 . S
H653 C639 0.958 . S
H654 C639 0.961 . S
H655 C639 0.960 . S
C656 C657 1.391 . S
C656 C658 1.394 . S
C656 H672 0.931 . S
C657 C656 1.391 . S
C657 C661 1.376 . S
C658 C656 1.394 . S
C658 C659 1.369 . S
C658 C662 1.531 . S
C659 C658 1.369 . S
C659 C660 1.410 . S
C659 C667 1.503 . S
C660 C659 1.410 . S
C660 C661 1.392 . S
C660 C663 1.511 . S
C661 C657 1.376 . S
C661 C660 1.392 . S
C661 H673 0.929 . S
C662 C658 1.531 . S
C662 H674 0.960 . S
C662 H675 0.962 . S
C662 H676 0.960 . S
C663 C660 1.511 . S
C663 H677 0.961 . S
C663 H678 0.961 . S
C663 H679 0.961 . S
C664 C665 1.370 . S
C664 C666 1.363 . S
C664 H680 0.931 . S
C665 C664 1.370 . S
C665 C669 1.408 . S
C666 C664 1.363 . S
C666 C667 1.370 . S
C666 C670 1.524 . S
C667 C659 1.503 . S
C667 C666 1.370 . S
C667 C668 1.403 . S
C668 C667 1.403 . S
C668 C669 1.404 . S
C668 C671 1.539 . S
C669 C665 1.408 . S
C669 C668 1.404 . S
C669 H681 0.930 . S
C670 C666 1.524 . S
C670 H682 0.956 . S
C670 H683 0.961 . S
C670 H684 0.961 . S
C671 C668 1.539 . S
C671 H685 0.958 . S
C671 H686 0.961 . S
C671 H687 0.960 . S
H672 C656 0.931 . S
H673 C661 0.929 . S
H674 C662 0.960 . S
H675 C662 0.962 . S
H676 C662 0.960 . S
H677 C663 0.961 . S
H678 C663 0.961 . S
H679 C663 0.961 . S
H680 C664 0.931 . S
H681 C669 0.930 . S
H682 C670 0.956 . S
H683 C670 0.961 . S
H684 C670 0.961 . S
H685 C671 0.958 . S
H686 C671 0.961 . S
H687 C671 0.960 . S
C688 C689 1.391 . S
C688 C690 1.394 . S
C688 H704 0.931 . S
C689 C688 1.391 . S
C689 C693 1.376 . S
C690 C688 1.394 . S
C690 C691 1.369 . S
C690 C694 1.531 . S
C691 C690 1.369 . S
C691 C692 1.410 . S
C691 C699 1.503 . S
C692 C691 1.410 . S
C692 C693 1.392 . S
C692 C695 1.511 . S
C693 C689 1.376 . S
C693 C692 1.392 . S
C693 H705 0.929 . S
C694 C690 1.531 . S
C694 H706 0.960 . S
C694 H707 0.962 . S
C694 H708 0.960 . S
C695 C692 1.511 . S
C695 H709 0.961 . S
C695 H710 0.961 . S
C695 H711 0.961 . S
C696 C697 1.370 . S
C696 C698 1.363 . S
C696 H712 0.931 . S
C697 C696 1.370 . S
C697 C701 1.408 . S
C698 C696 1.363 . S
C698 C699 1.370 . S
C698 C702 1.524 . S
C699 C691 1.503 . S
C699 C698 1.370 . S
C699 C700 1.403 . S
C700 C699 1.403 . S
C700 C701 1.404 . S
C700 C703 1.539 . S
C701 C697 1.408 . S
C701 C700 1.404 . S
C701 H713 0.930 . S
C702 C698 1.524 . S
C702 H714 0.956 . S
C702 H715 0.961 . S
C702 H716 0.948 1_565 S
C703 C700 1.539 . S
C703 H717 0.958 . S
C703 H718 0.961 . S
C703 H719 0.960 . S
H704 C688 0.931 . S
H705 C693 0.929 . S
H706 C694 0.960 . S
H707 C694 0.962 . S
H708 C694 0.960 . S
H709 C695 0.961 . S
H710 C695 0.961 . S
H711 C695 0.961 . S
H712 C696 0.931 . S
H713 C701 0.930 . S
H714 C702 0.956 . S
H715 C702 0.961 . S
H716 C702 0.948 1_545 S
H717 C703 0.958 . S
H718 C703 0.961 . S
H719 C703 0.960 . S
C720 C721 1.391 . S
C720 C722 1.394 . S
C720 H736 0.931 . S
C721 C720 1.391 . S
C721 C725 1.376 . S
C722 C720 1.394 . S
C722 C723 1.369 . S
C722 C726 1.531 . S
C723 C722 1.369 . S
C723 C724 1.410 . S
C723 C731 1.503 . S
C724 C723 1.410 . S
C724 C725 1.392 . S
C724 C727 1.511 . S
C725 C721 1.376 . S
C725 C724 1.392 . S
C725 H737 0.929 . S
C726 C722 1.531 . S
C726 H738 0.960 . S
C726 H739 0.962 . S
C726 H740 0.960 . S
C727 C724 1.511 . S
C727 H741 0.961 . S
C727 H742 0.961 . S
C727 H743 0.961 . S
C728 C729 1.370 . S
C728 C730 1.363 . S
C728 H744 0.931 . S
C729 C728 1.370 . S
C729 C733 1.408 . S
C730 C728 1.363 . S
C730 C731 1.370 . S
C730 C734 1.524 . S
C731 C723 1.503 . S
C731 C730 1.370 . S
C731 C732 1.403 . S
C732 C731 1.403 . S
C732 C733 1.404 . S
C732 C735 1.539 . S
C733 C729 1.408 . S
C733 C732 1.404 . S
C733 H745 0.930 . S
C734 C730 1.524 . S
C734 H746 0.956 . S
C734 H747 0.961 . S
C734 H748 0.961 . S
C735 C732 1.539 . S
C735 H749 0.958 . S
C735 H750 0.961 . S
C735 H751 0.960 . S
H736 C720 0.931 . S
H737 C725 0.929 . S
H738 C726 0.960 . S
H739 C726 0.962 . S
H740 C726 0.960 . S
H741 C727 0.961 . S
H742 C727 0.961 . S
H743 C727 0.961 . S
H744 C728 0.931 . S
H745 C733 0.930 . S
H746 C734 0.956 . S
H747 C734 0.961 . S
H748 C734 0.961 . S
H749 C735 0.958 . S
H750 C735 0.961 . S
H751 C735 0.960 . S
C752 C753 1.391 . S
C752 C754 1.394 . S
C752 H768 0.931 . S
C753 C752 1.391 . S
C753 C757 1.376 . S
C754 C752 1.394 . S
C754 C755 1.369 . S
C754 C758 1.531 . S
C755 C754 1.369 . S
C755 C756 1.410 . S
C755 C763 1.503 . S
C756 C755 1.410 . S
C756 C757 1.392 . S
C756 C759 1.511 . S
C757 C753 1.376 . S
C757 C756 1.392 . S
C757 H769 0.929 . S
C758 C754 1.531 . S
C758 H770 0.960 . S
C758 H771 0.962 . S
C758 H772 0.960 . S
C759 C756 1.511 . S
C759 H773 0.961 . S
C759 H774 0.961 . S
C759 H775 0.942 1_655 S
C760 C761 1.370 . S
C760 C762 1.363 . S
C760 H776 0.931 . S
C761 C760 1.370 . S
C761 C765 1.408 . S
C762 C760 1.363 . S
C762 C763 1.370 . S
C762 C766 1.524 . S
C763 C755 1.503 . S
C763 C762 1.370 . S
C763 C764 1.403 . S
C764 C763 1.403 . S
C764 C765 1.404 . S
C764 C767 1.539 . S
C765 C761 1.408 . S
C765 C764 1.404 . S
C765 H777 0.930 . S
C766 C762 1.524 . S
C766 H778 0.956 . S
C766 H779 0.961 . S
C766 H780 0.961 . S
C767 C764 1.539 . S
C767 H781 0.958 . S
C767 H782 0.961 . S
C767 H783 0.960 . S
H768 C752 0.931 . S
H769 C757 0.929 . S
H770 C758 0.960 . S
H771 C758 0.962 . S
H772 C758 0.960 . S
H773 C759 0.961 . S
H774 C759 0.961 . S
H775 C759 0.942 1_455 S
H776 C760 0.931 . S
H777 C765 0.930 . S
H778 C766 0.956 . S
H779 C766 0.961 . S
H780 C766 0.961 . S
H781 C767 0.958 . S
H782 C767 0.961 . S
H783 C767 0.960 . S
C784 C785 1.391 . S
C784 C786 1.394 . S
C784 H800 0.931 . S
C785 C784 1.391 . S
C785 C789 1.376 . S
C786 C784 1.394 . S
C786 C787 1.369 . S
C786 C790 1.531 . S
C787 C786 1.369 . S
C787 C788 1.410 . S
C787 C795 1.503 . S
C788 C787 1.410 . S
C788 C789 1.392 . S
C788 C791 1.511 . S
C789 C785 1.376 . S
C789 C788 1.392 . S
C789 H801 0.929 . S
C790 C786 1.531 . S
C790 H802 0.960 . S
C790 H803 0.962 . S
C790 H804 0.960 . S
C791 C788 1.511 . S
C791 H805 0.961 . S
C791 H806 0.961 . S
C791 H807 0.961 . S
C792 C793 1.370 . S
C792 C794 1.363 . S
C792 H808 0.931 . S
C793 C792 1.370 . S
C793 C797 1.408 . S
C794 C792 1.363 . S
C794 C795 1.370 . S
C794 C798 1.524 . S
C795 C787 1.503 . S
C795 C794 1.370 . S
C795 C796 1.403 . S
C796 C795 1.403 . S
C796 C797 1.404 . S
C796 C799 1.539 . S
C797 C793 1.408 . S
C797 C796 1.404 . S
C797 H809 0.930 . S
C798 C794 1.524 . S
C798 H810 0.956 . S
C798 H811 0.961 . S
C798 H812 0.961 . S
C799 C796 1.539 . S
C799 H813 0.958 . S
C799 H814 0.961 . S
C799 H815 0.960 . S
H800 C784 0.931 . S
H801 C789 0.929 . S
H802 C790 0.960 . S
H803 C790 0.962 . S
H804 C790 0.960 . S
H805 C791 0.961 . S
H806 C791 0.961 . S
H807 C791 0.961 . S
H808 C792 0.931 . S
H809 C797 0.930 . S
H810 C798 0.956 . S
H811 C798 0.961 . S
H812 C798 0.961 . S
H813 C799 0.958 . S
H814 C799 0.961 . S
H815 C799 0.960 . S
C816 C817 1.391 . S
C816 C818 1.394 . S
C816 H832 0.931 . S
C817 C816 1.391 . S
C817 C821 1.376 . S
C818 C816 1.394 . S
C818 C819 1.369 . S
C818 C822 1.531 . S
C819 C818 1.369 . S
C819 C820 1.410 . S
C819 C827 1.503 . S
C820 C819 1.410 . S
C820 C821 1.392 . S
C820 C823 1.511 . S
C821 C817 1.376 . S
C821 C820 1.392 . S
C821 H833 0.929 . S
C822 C818 1.531 . S
C822 H834 0.960 . S
C822 H835 0.962 . S
C822 H836 0.960 . S
C823 C820 1.511 . S
C823 H837 0.961 . S
C823 H838 0.961 . S
C823 H839 0.961 . S
C824 C825 1.370 . S
C824 C826 1.363 . S
C824 H840 0.931 . S
C825 C824 1.370 . S
C825 C829 1.408 . S
C826 C824 1.363 . S
C826 C827 1.370 . S
C826 C830 1.524 . S
C827 C819 1.503 . S
C827 C826 1.370 . S
C827 C828 1.403 . S
C828 C827 1.403 . S
C828 C829 1.404 . S
C828 C831 1.539 . S
C829 C825 1.408 . S
C829 C828 1.404 . S
C829 H841 0.930 . S
C830 C826 1.524 . S
C830 H842 0.956 . S
C830 H843 0.961 . S
C830 H844 0.961 . S
C831 C828 1.539 . S
C831 H845 0.958 . S
C831 H846 0.961 . S
C831 H847 0.960 . S
H832 C816 0.931 . S
H833 C821 0.929 . S
H834 C822 0.960 . S
H835 C822 0.962 . S
H836 C822 0.960 . S
H837 C823 0.961 . S
H838 C823 0.961 . S
H839 C823 0.961 . S
H840 C824 0.931 . S
H841 C829 0.930 . S
H842 C830 0.956 . S
H843 C830 0.961 . S
H844 C830 0.961 . S
H845 C831 0.958 . S
H846 C831 0.961 . S
H847 C831 0.960 . S
C848 C849 1.391 . S
C848 C850 1.394 . S
C848 H864 0.931 . S
C849 C848 1.391 . S
C849 C853 1.376 . S
C850 C848 1.394 . S
C850 C851 1.369 . S
C850 C854 1.531 . S
C851 C850 1.369 . S
C851 C852 1.410 . S
C851 C859 1.503 . S
C852 C851 1.410 . S
C852 C853 1.392 . S
C852 C855 1.511 . S
C853 C849 1.376 . S
C853 C852 1.392 . S
C853 H865 0.929 . S
C854 C850 1.531 . S
C854 H866 0.960 . S
C854 H867 0.962 . S
C854 H868 0.960 . S
C855 C852 1.511 . S
C855 H869 0.961 . S
C855 H870 0.961 . S
C855 H871 0.961 . S
C856 C857 1.370 . S
C856 C858 1.363 . S
C856 H872 0.931 . S
C857 C856 1.370 . S
C857 C861 1.408 . S
C858 C856 1.363 . S
C858 C859 1.370 . S
C858 C862 1.524 . S
C859 C851 1.503 . S
C859 C858 1.370 . S
C859 C860 1.403 . S
C860 C859 1.403 . S
C860 C861 1.404 . S
C860 C863 1.539 . S
C861 C857 1.408 . S
C861 C860 1.404 . S
C861 H873 0.930 . S
C862 C858 1.524 . S
C862 H874 0.956 . S
C862 H875 0.961 . S
C862 H876 0.961 . S
C863 C860 1.539 . S
C863 H877 0.958 . S
C863 H878 0.961 . S
C863 H879 0.960 . S
H864 C848 0.931 . S
H865 C853 0.929 . S
H866 C854 0.960 . S
H867 C854 0.962 . S
H868 C854 0.960 . S
H869 C855 0.961 . S
H870 C855 0.961 . S
H871 C855 0.961 . S
H872 C856 0.931 . S
H873 C861 0.930 . S
H874 C862 0.956 . S
H875 C862 0.961 . S
H876 C862 0.961 . S
H877 C863 0.958 . S
H878 C863 0.961 . S
H879 C863 0.960 . S
C880 C881 1.391 . S
C880 C882 1.394 . S
C880 H896 0.931 . S
C881 C880 1.391 . S
C881 C885 1.376 . S
C882 C880 1.394 . S
C882 C883 1.369 . S
C882 C886 1.531 . S
C883 C882 1.369 . S
C883 C884 1.410 . S
C883 C891 1.503 . S
C884 C883 1.410 . S
C884 C885 1.392 . S
C884 C887 1.511 . S
C885 C881 1.376 . S
C885 C884 1.392 . S
C885 H897 0.929 . S
C886 C882 1.531 . S
C886 H898 0.960 . S
C886 H899 0.962 . S
C886 H900 0.960 . S
C887 C884 1.511 . S
C887 H901 0.961 . S
C887 H902 0.961 . S
C887 H903 0.961 . S
C888 C889 1.370 . S
C888 C890 1.363 . S
C888 H904 0.931 . S
C889 C888 1.370 . S
C889 C893 1.408 . S
C890 C888 1.363 . S
C890 C891 1.370 . S
C890 C894 1.524 . S
C891 C883 1.503 . S
C891 C890 1.370 . S
C891 C892 1.403 . S
C892 C891 1.403 . S
C892 C893 1.404 . S
C892 C895 1.539 . S
C893 C889 1.408 . S
C893 C892 1.404 . S
C893 H905 0.930 . S
C894 C890 1.524 . S
C894 H906 0.956 . S
C894 H907 0.961 . S
C894 H908 0.961 . S
C895 C892 1.539 . S
C895 H909 0.958 . S
C895 H910 0.961 . S
C895 H911 0.960 . S
H896 C880 0.931 . S
H897 C885 0.929 . S
H898 C886 0.960 . S
H899 C886 0.962 . S
H900 C886 0.960 . S
H901 C887 0.961 . S
H902 C887 0.961 . S
H903 C887 0.961 . S
H904 C888 0.931 . S
H905 C893 0.930 . S
H906 C894 0.956 . S
H907 C894 0.961 . S
H908 C894 0.961 . S
H909 C895 0.958 . S
H910 C895 0.961 . S
H911 C895 0.960 . S
C912 C913 1.391 . S
C912 C914 1.394 . S
C912 H928 0.931 1_556 S
C913 C912 1.391 . S
C913 C917 1.376 . S
C914 C912 1.394 . S
C914 C915 1.369 . S
C914 C918 1.531 . S
C915 C914 1.369 . S
C915 C916 1.410 . S
C915 C923 1.503 . S
C916 C915 1.410 . S
C916 C917 1.392 . S
C916 C919 1.511 . S
C917 C913 1.376 . S
C917 C916 1.392 . S
C917 H929 0.929 . S
C918 C914 1.531 . S
C918 H930 0.960 . S
C918 H931 0.962 . S
C918 H932 0.960 1_556 S
C919 C916 1.511 . S
C919 H933 0.961 . S
C919 H934 0.961 . S
C919 H935 0.961 . S
C920 C921 1.370 . S
C920 C922 1.363 . S
C920 H936 0.931 . S
C921 C920 1.370 . S
C921 C925 1.408 . S
C922 C920 1.363 . S
C922 C923 1.370 . S
C922 C926 1.524 . S
C923 C915 1.503 . S
C923 C922 1.370 . S
C923 C924 1.403 . S
C924 C923 1.403 . S
C924 C925 1.404 . S
C924 C927 1.539 . S
C925 C921 1.408 . S
C925 C924 1.404 . S
C925 H937 0.930 . S
C926 C922 1.524 . S
C926 H938 0.956 . S
C926 H939 0.961 . S
C926 H940 0.961 . S
C927 C924 1.539 . S
C927 H941 0.958 . S
C927 H942 0.961 . S
C927 H943 0.960 . S
H928 C912 0.931 1_554 S
H929 C917 0.929 . S
H930 C918 0.960 . S
H931 C918 0.962 . S
H932 C918 0.960 1_554 S
H933 C919 0.961 . S
H934 C919 0.961 . S
H935 C919 0.961 . S
H936 C920 0.931 . S
H937 C925 0.930 . S
H938 C926 0.956 . S
H939 C926 0.961 . S
H940 C926 0.961 . S
H941 C927 0.958 . S
H942 C927 0.961 . S
H943 C927 0.960 . S
C944 C945 1.391 . S
C944 C946 1.394 . S
C944 H960 0.931 . S
C945 C944 1.391 . S
C945 C949 1.376 . S
C946 C944 1.394 . S
C946 C947 1.369 . S
C946 C950 1.531 . S
C947 C946 1.369 . S
C947 C948 1.410 . S
C947 C955 1.503 . S
C948 C947 1.410 . S
C948 C949 1.392 . S
C948 C951 1.511 . S
C949 C945 1.376 . S
C949 C948 1.392 . S
C949 H961 0.929 . S
C950 C946 1.531 . S
C950 H962 0.960 . S
C950 H963 0.962 . S
C950 H964 0.960 . S
C951 C948 1.511 . S
C951 H965 0.961 . S
C951 H966 0.961 . S
C951 H967 0.961 . S
C952 C953 1.370 . S
C952 C954 1.363 . S
C952 H968 0.931 . S
C953 C952 1.370 . S
C953 C957 1.408 . S
C954 C952 1.363 . S
C954 C955 1.370 . S
C954 C958 1.524 . S
C955 C947 1.503 . S
C955 C954 1.370 . S
C955 C956 1.403 . S
C956 C955 1.403 . S
C956 C957 1.404 . S
C956 C959 1.539 . S
C957 C953 1.408 . S
C957 C956 1.404 . S
C957 H969 0.930 . S
C958 C954 1.524 . S
C958 H970 0.956 . S
C958 H971 0.961 . S
C958 H972 0.961 . S
C959 C956 1.539 . S
C959 H973 0.958 . S
C959 H974 0.961 . S
C959 H975 0.960 . S
H960 C944 0.931 . S
H961 C949 0.929 . S
H962 C950 0.960 . S
H963 C950 0.962 . S
H964 C950 0.960 . S
H965 C951 0.961 . S
H966 C951 0.961 . S
H967 C951 0.961 . S
H968 C952 0.931 . S
H969 C957 0.930 . S
H970 C958 0.956 . S
H971 C958 0.961 . S
H972 C958 0.961 . S
H973 C959 0.958 . S
H974 C959 0.961 . S
H975 C959 0.960 . S
C976 C977 1.391 . S
C976 C978 1.394 . S
C976 H992 0.931 . S
C977 C976 1.391 . S
C977 C981 1.376 . S
C978 C976 1.394 . S
C978 C979 1.369 . S
C978 C982 1.531 . S
C979 C978 1.369 . S
C979 C980 1.410 . S
C979 C987 1.503 . S
C980 C979 1.410 . S
C980 C981 1.392 . S
C980 C983 1.511 . S
C981 C977 1.376 . S
C981 C980 1.392 . S
C981 H993 0.929 . S
C982 C978 1.531 . S
C982 H994 0.960 . S
C982 H995 0.962 . S
C982 H996 0.960 . S
C983 C980 1.511 . S
C983 H997 0.961 . S
C983 H998 0.961 . S
C983 H999 0.961 . S
C984 C985 1.370 . S
C984 C986 1.363 . S
C984 H1000 0.931 . S
C985 C984 1.370 . S
C985 C989 1.408 . S
C986 C984 1.363 . S
C986 C987 1.370 . S
C986 C990 1.524 . S
C987 C979 1.503 . S
C987 C986 1.370 . S
C987 C988 1.403 . S
C988 C987 1.403 . S
C988 C989 1.404 . S
C988 C991 1.539 . S
C989 C985 1.408 . S
C989 C988 1.404 . S
C989 H1001 0.930 . S
C990 C986 1.524 . S
C990 H1002 0.956 . S
C990 H1003 0.961 . S
C990 H1004 0.961 . S
C991 C988 1.539 . S
C991 H1005 0.958 . S
C991 H1006 0.961 . S
C991 H1007 0.960 . S
H992 C976 0.931 . S
H993 C981 0.929 . S
H994 C982 0.960 . S
H995 C982 0.962 . S
H996 C982 0.960 . S
H997 C983 0.961 . S
H998 C983 0.961 . S
H999 C983 0.961 . S
H1000 C984 0.931 . S
H1001 C989 0.930 . S
H1002 C990 0.956 . S
H1003 C990 0.961 . S
H1004 C990 0.961 . S
H1005 C991 0.958 . S
H1006 C991 0.961 . S
H1007 C991 0.960 . S
C1008 C1009 1.391 . S
C1008 C1010 1.394 . S
C1008 H1024 0.931 . S
C1009 C1008 1.391 . S
C1009 C1013 1.376 . S
C1010 C1008 1.394 . S
C1010 C1011 1.369 . S
C1010 C1014 1.531 . S
C1011 C1010 1.369 . S
C1011 C1012 1.410 . S
C1011 C1019 1.503 . S
C1012 C1011 1.410 . S
C1012 C1013 1.392 . S
C1012 C1015 1.511 . S
C1013 C1009 1.376 . S
C1013 C1012 1.392 . S
C1013 H1025 0.929 . S
C1014 C1010 1.531 . S
C1014 H1026 0.960 . S
C1014 H1027 0.962 . S
C1014 H1028 0.960 . S
C1015 C1012 1.511 . S
C1015 H1029 0.961 . S
C1015 H1030 0.961 . S
C1015 H1031 0.961 . S
C1016 C1017 1.370 . S
C1016 C1018 1.363 . S
C1016 H1032 0.931 . S
C1017 C1016 1.370 . S
C1017 C1021 1.408 . S
C1018 C1016 1.363 . S
C1018 C1019 1.370 . S
C1018 C1022 1.524 . S
C1019 C1011 1.503 . S
C1019 C1018 1.370 . S
C1019 C1020 1.403 . S
C1020 C1019 1.403 . S
C1020 C1021 1.404 . S
C1020 C1023 1.539 . S
C1021 C1017 1.408 . S
C1021 C1020 1.404 . S
C1021 H1033 0.930 . S
C1022 C1018 1.524 . S
C1022 H1034 0.956 . S
C1022 H1035 0.961 . S
C1022 H1036 0.961 . S
C1023 C1020 1.539 . S
C1023 H1037 0.958 . S
C1023 H1038 0.961 . S
C1023 H1039 0.960 . S
H1024 C1008 0.931 . S
H1025 C1013 0.929 . S
H1026 C1014 0.960 . S
H1027 C1014 0.962 . S
H1028 C1014 0.960 . S
H1029 C1015 0.961 . S
H1030 C1015 0.961 . S
H1031 C1015 0.961 . S
H1032 C1016 0.931 . S
H1033 C1021 0.930 . S
H1034 C1022 0.956 . S
H1035 C1022 0.961 . S
H1036 C1022 0.961 . S
H1037 C1023 0.958 . S
H1038 C1023 0.961 . S
H1039 C1023 0.960 . S
C1040 C1041 1.391 . S
C1040 C1042 1.394 . S
C1040 H1056 0.931 . S
C1041 C1040 1.391 . S
C1041 C1045 1.376 . S
C1042 C1040 1.394 . S
C1042 C1043 1.369 . S
C1042 C1046 1.531 . S
C1043 C1042 1.369 . S
C1043 C1044 1.410 . S
C1043 C1051 1.503 . S
C1044 C1043 1.410 . S
C1044 C1045 1.392 . S
C1044 C1047 1.511 . S
C1045 C1041 1.376 . S
C1045 C1044 1.392 . S
C1045 H1057 0.929 . S
C1046 C1042 1.531 . S
C1046 H1058 0.960 . S
C1046 H1059 0.962 . S
C1046 H1060 0.960 . S
C1047 C1044 1.511 . S
C1047 H1061 0.961 . S
C1047 H1062 0.961 . S
C1047 H1063 0.961 . S
C1048 C1049 1.370 . S
C1048 C1050 1.363 . S
C1048 H1064 0.931 . S
C1049 C1048 1.370 . S
C1049 C1053 1.408 . S
C1050 C1048 1.363 . S
C1050 C1051 1.370 . S
C1050 C1054 1.524 . S
C1051 C1043 1.503 . S
C1051 C1050 1.370 . S
C1051 C1052 1.403 . S
C1052 C1051 1.403 . S
C1052 C1053 1.404 . S
C1052 C1055 1.539 . S
C1053 C1049 1.408 . S
C1053 C1052 1.404 . S
C1053 H1065 0.930 . S
C1054 C1050 1.524 . S
C1054 H1066 0.956 . S
C1054 H1067 0.961 . S
C1054 H1068 0.961 . S
C1055 C1052 1.539 . S
C1055 H1069 0.958 . S
C1055 H1070 0.961 . S
C1055 H1071 0.960 . S
H1056 C1040 0.931 . S
H1057 C1045 0.929 . S
H1058 C1046 0.960 . S
H1059 C1046 0.962 . S
H1060 C1046 0.960 . S
H1061 C1047 0.961 . S
H1062 C1047 0.961 . S
H1063 C1047 0.961 . S
H1064 C1048 0.931 . S
H1065 C1053 0.930 . S
H1066 C1054 0.956 . S
H1067 C1054 0.961 . S
H1068 C1054 0.961 . S
H1069 C1055 0.958 . S
H1070 C1055 0.961 . S
H1071 C1055 0.960 . S
C1072 C1073 1.391 . S
C1072 C1074 1.394 . S
C1072 H1088 0.931 . S
C1073 C1072 1.391 . S
C1073 C1077 1.376 . S
C1074 C1072 1.394 . S
C1074 C1075 1.369 . S
C1074 C1078 1.531 . S
C1075 C1074 1.369 . S
C1075 C1076 1.410 . S
C1075 C1083 1.503 . S
C1076 C1075 1.410 . S
C1076 C1077 1.392 . S
C1076 C1079 1.511 . S
C1077 C1073 1.376 . S
C1077 C1076 1.392 . S
C1077 H1089 0.929 . S
C1078 C1074 1.531 . S
C1078 H1090 0.960 . S
C1078 H1091 0.962 . S
C1078 H1092 0.960 . S
C1079 C1076 1.511 . S
C1079 H1093 0.961 . S
C1079 H1094 0.961 . S
C1079 H1095 0.961 . S
C1080 C1081 1.370 . S
C1080 C1082 1.363 . S
C1080 H1096 0.931 . S
C1081 C1080 1.370 . S
C1081 C1085 1.408 . S
C1082 C1080 1.363 . S
C1082 C1083 1.370 . S
C1082 C1086 1.524 . S
C1083 C1075 1.503 . S
C1083 C1082 1.370 . S
C1083 C1084 1.403 . S
C1084 C1083 1.403 . S
C1084 C1085 1.404 . S
C1084 C1087 1.539 . S
C1085 C1081 1.408 . S
C1085 C1084 1.404 . S
C1085 H1097 0.930 . S
C1086 C1082 1.524 . S
C1086 H1098 0.956 . S
C1086 H1099 0.961 . S
C1086 H1100 0.961 . S
C1087 C1084 1.539 . S
C1087 H1101 0.961 1_565 S
C1087 H1102 0.961 . S
C1087 H1103 0.960 . S
H1088 C1072 0.931 . S
H1089 C1077 0.929 . S
H1090 C1078 0.960 . S
H1091 C1078 0.962 . S
H1092 C1078 0.960 . S
H1093 C1079 0.961 . S
H1094 C1079 0.961 . S
H1095 C1079 0.961 . S
H1096 C1080 0.931 . S
H1097 C1085 0.930 . S
H1098 C1086 0.956 . S
H1099 C1086 0.961 . S
H1100 C1086 0.961 . S
H1101 C1087 0.961 1_545 S
H1102 C1087 0.961 . S
H1103 C1087 0.960 . S
C1104 C1105 1.391 . S
C1104 C1106 1.394 . S
C1104 H1120 0.931 . S
C1105 C1104 1.391 . S
C1105 C1109 1.376 . S
C1106 C1104 1.394 . S
C1106 C1107 1.369 . S
C1106 C1110 1.531 . S
C1107 C1106 1.369 . S
C1107 C1108 1.410 . S
C1107 C1115 1.503 . S
C1108 C1107 1.410 . S
C1108 C1109 1.392 . S
C1108 C1111 1.511 . S
C1109 C1105 1.376 . S
C1109 C1108 1.392 . S
C1109 H1121 0.929 . S
C1110 C1106 1.531 . S
C1110 H1122 0.960 . S
C1110 H1123 0.962 . S
C1110 H1124 0.960 . S
C1111 C1108 1.511 . S
C1111 H1125 0.961 . S
C1111 H1126 0.961 . S
C1111 H1127 0.961 . S
C1112 C1113 1.370 . S
C1112 C1114 1.363 . S
C1112 H1128 0.931 . S
C1113 C1112 1.370 . S
C1113 C1117 1.408 . S
C1114 C1112 1.363 . S
C1114 C1115 1.370 . S
C1114 C1118 1.524 . S
C1115 C1107 1.503 . S
C1115 C1114 1.370 . S
C1115 C1116 1.403 . S
C1116 C1115 1.403 . S
C1116 C1117 1.404 . S
C1116 C1119 1.539 . S
C1117 C1113 1.408 . S
C1117 C1116 1.404 . S
C1117 H1129 0.930 . S
C1118 C1114 1.524 . S
C1118 H1130 0.956 . S
C1118 H1131 0.961 . S
C1118 H1132 0.961 . S
C1119 C1116 1.539 . S
C1119 H1133 0.958 . S
C1119 H1134 0.961 . S
C1119 H1135 0.960 . S
H1120 C1104 0.931 . S
H1121 C1109 0.929 . S
H1122 C1110 0.960 . S
H1123 C1110 0.962 . S
H1124 C1110 0.960 . S
H1125 C1111 0.961 . S
H1126 C1111 0.961 . S
H1127 C1111 0.961 . S
H1128 C1112 0.931 . S
H1129 C1117 0.930 . S
H1130 C1118 0.956 . S
H1131 C1118 0.961 . S
H1132 C1118 0.961 . S
H1133 C1119 0.958 . S
H1134 C1119 0.961 . S
H1135 C1119 0.960 . S
C1136 C1137 1.391 . S
C1136 C1138 1.394 . S
C1136 H1152 0.931 . S
C1137 C1136 1.391 . S
C1137 C1141 1.376 . S
C1138 C1136 1.394 . S
C1138 C1139 1.369 . S
C1138 C1142 1.531 . S
C1139 C1138 1.369 . S
C1139 C1140 1.410 . S
C1139 C1147 1.503 . S
C1140 C1139 1.410 . S
C1140 C1141 1.392 . S
C1140 C1143 1.511 . S
C1141 C1137 1.376 . S
C1141 C1140 1.392 . S
C1141 H1153 0.929 . S
C1142 C1138 1.531 . S
C1142 H1154 0.960 . S
C1142 H1155 0.962 . S
C1142 H1156 0.960 . S
C1143 C1140 1.511 . S
C1143 H1157 0.961 . S
C1143 H1158 0.961 . S
C1143 H1159 0.961 . S
C1144 C1145 1.370 . S
C1144 C1146 1.363 . S
C1144 H1160 0.931 . S
C1145 C1144 1.370 . S
C1145 C1149 1.408 . S
C1146 C1144 1.363 . S
C1146 C1147 1.370 . S
C1146 C1150 1.524 . S
C1147 C1139 1.503 . S
C1147 C1146 1.370 . S
C1147 C1148 1.403 . S
C1148 C1147 1.403 . S
C1148 C1149 1.404 . S
C1148 C1151 1.539 . S
C1149 C1145 1.408 . S
C1149 C1148 1.404 . S
C1149 H1161 0.930 . S
C1150 C1146 1.524 . S
C1150 H1162 0.956 . S
C1150 H1163 0.961 . S
C1150 H1164 0.961 . S
C1151 C1148 1.539 . S
C1151 H1165 0.958 . S
C1151 H1166 0.961 . S
C1151 H1167 0.960 . S
H1152 C1136 0.931 . S
H1153 C1141 0.929 . S
H1154 C1142 0.960 . S
H1155 C1142 0.962 . S
H1156 C1142 0.960 . S
H1157 C1143 0.961 . S
H1158 C1143 0.961 . S
H1159 C1143 0.961 . S
H1160 C1144 0.931 . S
H1161 C1149 0.930 . S
H1162 C1150 0.956 . S
H1163 C1150 0.961 . S
H1164 C1150 0.961 . S
H1165 C1151 0.958 . S
H1166 C1151 0.961 . S
H1167 C1151 0.960 . S
C1168 C1169 1.391 . S
C1168 C1170 1.394 . S
C1168 H1184 0.931 . S
C1169 C1168 1.391 . S
C1169 C1173 1.376 . S
C1170 C1168 1.394 . S
C1170 C1171 1.369 . S
C1170 C1174 1.531 . S
C1171 C1170 1.369 . S
C1171 C1172 1.410 . S
C1171 C1179 1.503 . S
C1172 C1171 1.410 . S
C1172 C1173 1.392 . S
C1172 C1175 1.511 . S
C1173 C1169 1.376 . S
C1173 C1172 1.392 . S
C1173 H1185 0.929 . S
C1174 C1170 1.531 . S
C1174 H1186 0.960 . S
C1174 H1187 0.962 . S
C1174 H1188 0.960 . S
C1175 C1172 1.511 . S
C1175 H1189 0.961 . S
C1175 H1190 0.961 . S
C1175 H1191 0.961 . S
C1176 C1177 1.370 . S
C1176 C1178 1.363 . S
C1176 H1192 0.931 . S
C1177 C1176 1.370 . S
C1177 C1181 1.408 . S
C1178 C1176 1.363 . S
C1178 C1179 1.370 . S
C1178 C1182 1.524 . S
C1179 C1171 1.503 . S
C1179 C1178 1.370 . S
C1179 C1180 1.403 . S
C1180 C1179 1.403 . S
C1180 C1181 1.404 . S
C1180 C1183 1.539 . S
C1181 C1177 1.408 . S
C1181 C1180 1.404 . S
C1181 H1193 0.930 . S
C1182 C1178 1.524 . S
C1182 H1194 0.956 . S
C1182 H1195 0.961 . S
C1182 H1196 0.961 . S
C1183 C1180 1.539 . S
C1183 H1197 0.958 . S
C1183 H1198 0.961 . S
C1183 H1199 0.960 . S
H1184 C1168 0.931 . S
H1185 C1173 0.929 . S
H1186 C1174 0.960 . S
H1187 C1174 0.962 . S
H1188 C1174 0.960 . S
H1189 C1175 0.961 . S
H1190 C1175 0.961 . S
H1191 C1175 0.961 . S
H1192 C1176 0.931 . S
H1193 C1181 0.930 . S
H1194 C1182 0.956 . S
H1195 C1182 0.961 . S
H1196 C1182 0.961 . S
H1197 C1183 0.958 . S
H1198 C1183 0.961 . S
H1199 C1183 0.960 . S
C1200 C1201 1.391 . S
C1200 C1202 1.394 . S
C1200 H1216 0.931 . S
C1201 C1200 1.391 . S
C1201 C1205 1.376 . S
C1202 C1200 1.394 . S
C1202 C1203 1.369 . S
C1202 C1206 1.531 . S
C1203 C1202 1.369 . S
C1203 C1204 1.410 . S
C1203 C1211 1.503 . S
C1204 C1203 1.410 . S
C1204 C1205 1.392 . S
C1204 C1207 1.511 . S
C1205 C1201 1.376 . S
C1205 C1204 1.392 . S
C1205 H1217 0.929 . S
C1206 C1202 1.531 . S
C1206 H1218 0.960 . S
C1206 H1219 0.962 . S
C1206 H1220 0.960 . S
C1207 C1204 1.511 . S
C1207 H1221 0.961 . S
C1207 H1222 0.961 . S
C1207 H1223 0.961 . S
C1208 C1209 1.370 . S
C1208 C1210 1.363 . S
C1208 H1224 0.931 . S
C1209 C1208 1.370 . S
C1209 C1213 1.408 . S
C1210 C1208 1.363 . S
C1210 C1211 1.370 . S
C1210 C1214 1.524 . S
C1211 C1203 1.503 . S
C1211 C1210 1.370 . S
C1211 C1212 1.403 . S
C1212 C1211 1.403 . S
C1212 C1213 1.404 . S
C1212 C1215 1.539 . S
C1213 C1209 1.408 . S
C1213 C1212 1.404 . S
C1213 H1225 0.930 . S
C1214 C1210 1.524 . S
C1214 H1226 0.956 . S
C1214 H1227 0.961 . S
C1214 H1228 0.961 . S
C1215 C1212 1.539 . S
C1215 H1229 0.958 . S
C1215 H1230 0.961 . S
C1215 H1231 0.960 . S
H1216 C1200 0.931 . S
H1217 C1205 0.929 . S
H1218 C1206 0.960 . S
H1219 C1206 0.962 . S
H1220 C1206 0.960 . S
H1221 C1207 0.961 . S
H1222 C1207 0.961 . S
H1223 C1207 0.961 . S
H1224 C1208 0.931 . S
H1225 C1213 0.930 . S
H1226 C1214 0.956 . S
H1227 C1214 0.961 . S
H1228 C1214 0.961 . S
H1229 C1215 0.958 . S
H1230 C1215 0.961 . S
H1231 C1215 0.960 . S
C1232 C1233 1.391 . S
C1232 C1234 1.394 . S
C1232 H1248 0.931 . S
C1233 C1232 1.391 . S
C1233 C1237 1.376 . S
C1234 C1232 1.394 . S
C1234 C1235 1.369 . S
C1234 C1238 1.531 . S
C1235 C1234 1.369 . S
C1235 C1236 1.410 . S
C1235 C1243 1.503 . S
C1236 C1235 1.410 . S
C1236 C1237 1.392 . S
C1236 C1239 1.511 . S
C1237 C1233 1.376 . S
C1237 C1236 1.392 . S
C1237 H1249 0.929 . S
C1238 C1234 1.531 . S
C1238 H1250 0.960 . S
C1238 H1251 0.962 . S
C1238 H1252 0.960 . S
C1239 C1236 1.511 . S
C1239 H1253 0.961 . S
C1239 H1254 0.961 . S
C1239 H1255 0.961 . S
C1240 C1241 1.370 . S
C1240 C1242 1.363 . S
C1240 H1256 0.931 . S
C1241 C1240 1.370 . S
C1241 C1245 1.408 . S
C1242 C1240 1.363 . S
C1242 C1243 1.370 . S
C1242 C1246 1.524 . S
C1243 C1235 1.503 . S
C1243 C1242 1.370 . S
C1243 C1244 1.403 . S
C1244 C1243 1.403 . S
C1244 C1245 1.404 . S
C1244 C1247 1.539 . S
C1245 C1241 1.408 . S
C1245 C1244 1.404 . S
C1245 H1257 0.930 . S
C1246 C1242 1.524 . S
C1246 H1258 0.956 . S
C1246 H1259 0.961 . S
C1246 H1260 0.961 . S
C1247 C1244 1.539 . S
C1247 H1261 0.958 . S
C1247 H1262 0.961 . S
C1247 H1263 0.960 . S
H1248 C1232 0.931 . S
H1249 C1237 0.929 . S
H1250 C1238 0.960 . S
H1251 C1238 0.962 . S
H1252 C1238 0.960 . S
H1253 C1239 0.961 . S
H1254 C1239 0.961 . S
H1255 C1239 0.961 . S
H1256 C1240 0.931 . S
H1257 C1245 0.930 . S
H1258 C1246 0.956 . S
H1259 C1246 0.961 . S
H1260 C1246 0.961 . S
H1261 C1247 0.958 . S
H1262 C1247 0.961 . S
H1263 C1247 0.960 . S
C1264 C1265 1.391 . S
C1264 C1266 1.394 . S
C1264 H1280 0.931 . S
C1265 C1264 1.391 . S
C1265 C1269 1.376 . S
C1266 C1264 1.394 . S
C1266 C1267 1.369 . S
C1266 C1270 1.531 . S
C1267 C1266 1.369 . S
C1267 C1268 1.410 . S
C1267 C1275 1.503 . S
C1268 C1267 1.410 . S
C1268 C1269 1.392 . S
C1268 C1271 1.511 . S
C1269 C1265 1.376 . S
C1269 C1268 1.392 . S
C1269 H1281 0.929 . S
C1270 C1266 1.531 . S
C1270 H1282 0.960 . S
C1270 H1283 0.962 . S
C1270 H1284 0.960 . S
C1271 C1268 1.511 . S
C1271 H1285 0.961 . S
C1271 H1286 0.961 . S
C1271 H1287 0.961 . S
C1272 C1273 1.370 . S
C1272 C1274 1.363 . S
C1272 H1288 0.931 . S
C1273 C1272 1.370 . S
C1273 C1277 1.408 . S
C1274 C1272 1.363 . S
C1274 C1275 1.370 . S
C1274 C1278 1.524 . S
C1275 C1267 1.503 . S
C1275 C1274 1.370 . S
C1275 C1276 1.403 . S
C1276 C1275 1.403 . S
C1276 C1277 1.404 . S
C1276 C1279 1.539 . S
C1277 C1273 1.408 . S
C1277 C1276 1.404 . S
C1277 H1289 0.930 . S
C1278 C1274 1.524 . S
C1278 H1290 0.956 . S
C1278 H1291 0.961 . S
C1278 H1292 0.961 . S
C1279 C1276 1.539 . S
C1279 H1293 0.958 . S
C1279 H1294 0.961 . S
C1279 H1295 0.960 . S
H1280 C1264 0.931 . S
H1281 C1269 0.929 . S
H1282 C1270 0.960 . S
H1283 C1270 0.962 . S
H1284 C1270 0.960 . S
H1285 C1271 0.961 . S
H1286 C1271 0.961 . S
H1287 C1271 0.961 . S
H1288 C1272 0.931 . S
H1289 C1277 0.930 . S
H1290 C1278 0.956 . S
H1291 C1278 0.961 . S
H1292 C1278 0.961 . S
H1293 C1279 0.958 . S
H1294 C1279 0.961 . S
H1295 C1279 0.960 . S
C1296 C1297 1.391 . S
C1296 C1298 1.394 . S
C1296 H1312 0.931 . S
C1297 C1296 1.391 . S
C1297 C1301 1.376 . S
C1298 C1296 1.394 . S
C1298 C1299 1.369 . S
C1298 C1302 1.531 . S
C1299 C1298 1.369 . S
C1299 C1300 1.410 . S
C1299 C1307 1.503 . S
C1300 C1299 1.410 . S
C1300 C1301 1.392 . S
C1300 C1303 1.511 . S
C1301 C1297 1.376 . S
C1301 C1300 1.392 . S
C1301 H1313 0.929 . S
C1302 C1298 1.531 . S
C1302 H1314 0.960 . S
C1302 H1315 0.962 . S
C1302 H1316 0.960 . S
C1303 C1300 1.511 . S
C1303 H1317 0.961 . S
C1303 H1318 0.961 . S
C1303 H1319 0.961 . S
C1304 C1305 1.370 . S
C1304 C1306 1.363 . S
C1304 H1320 0.931 . S
C1305 C1304 1.370 . S
C1305 C1309 1.408 . S
C1306 C1304 1.363 . S
C1306 C1307 1.370 . S
C1306 C1310 1.524 . S
C1307 C1299 1.503 . S
C1307 C1306 1.370 . S
C1307 C1308 1.403 . S
C1308 C1307 1.403 . S
C1308 C1309 1.404 . S
C1308 C1311 1.539 . S
C1309 C1305 1.408 . S
C1309 C1308 1.404 . S
C1309 H1321 0.930 . S
C1310 C1306 1.524 . S
C1310 H1322 0.956 . S
C1310 H1323 0.961 . S
C1310 H1324 0.961 . S
C1311 C1308 1.539 . S
C1311 H1325 0.958 . S
C1311 H1326 0.961 . S
C1311 H1327 0.960 . S
H1312 C1296 0.931 . S
H1313 C1301 0.929 . S
H1314 C1302 0.960 . S
H1315 C1302 0.962 . S
H1316 C1302 0.960 . S
H1317 C1303 0.961 . S
H1318 C1303 0.961 . S
H1319 C1303 0.961 . S
H1320 C1304 0.931 . S
H1321 C1309 0.930 . S
H1322 C1310 0.956 . S
H1323 C1310 0.961 . S
H1324 C1310 0.961 . S
H1325 C1311 0.958 . S
H1326 C1311 0.961 . S
H1327 C1311 0.960 . S
C1328 C1329 1.391 . S
C1328 C1330 1.394 . S
C1328 H1344 0.931 . S
C1329 C1328 1.391 . S
C1329 C1333 1.376 . S
C1330 C1328 1.394 . S
C1330 C1331 1.369 . S
C1330 C1334 1.531 . S
C1331 C1330 1.369 . S
C1331 C1332 1.410 . S
C1331 C1339 1.503 . S
C1332 C1331 1.410 . S
C1332 C1333 1.392 . S
C1332 C1335 1.511 . S
C1333 C1329 1.376 . S
C1333 C1332 1.392 . S
C1333 H1345 0.929 . S
C1334 C1330 1.531 . S
C1334 H1346 0.960 . S
C1334 H1347 0.962 . S
C1334 H1348 0.937 1_655 S
C1335 C1332 1.511 . S
C1335 H1349 0.961 . S
C1335 H1350 0.961 . S
C1335 H1351 0.961 . S
C1336 C1337 1.370 . S
C1336 C1338 1.363 . S
C1336 H1352 0.931 . S
C1337 C1336 1.370 . S
C1337 C1341 1.408 . S
C1338 C1336 1.363 . S
C1338 C1339 1.370 . S
C1338 C1342 1.524 . S
C1339 C1331 1.503 . S
C1339 C1338 1.370 . S
C1339 C1340 1.403 . S
C1340 C1339 1.403 . S
C1340 C1341 1.404 . S
C1340 C1343 1.539 . S
C1341 C1337 1.408 . S
C1341 C1340 1.404 . S
C1341 H1353 0.930 . S
C1342 C1338 1.524 . S
C1342 H1354 0.956 . S
C1342 H1355 0.961 . S
C1342 H1356 0.961 . S
C1343 C1340 1.539 . S
C1343 H1357 0.958 . S
C1343 H1358 0.961 . S
C1343 H1359 0.960 . S
H1344 C1328 0.931 . S
H1345 C1333 0.929 . S
H1346 C1334 0.960 . S
H1347 C1334 0.962 . S
H1348 C1334 0.937 1_455 S
H1349 C1335 0.961 . S
H1350 C1335 0.961 . S
H1351 C1335 0.961 . S
H1352 C1336 0.931 . S
H1353 C1341 0.930 . S
H1354 C1342 0.956 . S
H1355 C1342 0.961 . S
H1356 C1342 0.961 . S
H1357 C1343 0.958 . S
H1358 C1343 0.961 . S
H1359 C1343 0.960 . S
C1360 C1361 1.391 . S
C1360 C1362 1.394 . S
C1360 H1376 0.931 . S
C1361 C1360 1.391 . S
C1361 C1365 1.376 . S
C1362 C1360 1.394 . S
C1362 C1363 1.369 . S
C1362 C1366 1.531 . S
C1363 C1362 1.369 . S
C1363 C1364 1.410 . S
C1363 C1371 1.503 . S
C1364 C1363 1.410 . S
C1364 C1365 1.392 . S
C1364 C1367 1.511 . S
C1365 C1361 1.376 . S
C1365 C1364 1.392 . S
C1365 H1377 0.929 . S
C1366 C1362 1.531 . S
C1366 H1378 0.960 . S
C1366 H1379 0.962 . S
C1366 H1380 0.960 . S
C1367 C1364 1.511 . S
C1367 H1381 0.961 . S
C1367 H1382 0.961 . S
C1367 H1383 0.961 . S
C1368 C1369 1.370 . S
C1368 C1370 1.363 . S
C1368 H1384 0.931 . S
C1369 C1368 1.370 . S
C1369 C1373 1.408 . S
C1370 C1368 1.363 . S
C1370 C1371 1.370 . S
C1370 C1374 1.524 . S
C1371 C1363 1.503 . S
C1371 C1370 1.370 . S
C1371 C1372 1.403 . S
C1372 C1371 1.403 . S
C1372 C1373 1.404 . S
C1372 C1375 1.539 . S
C1373 C1369 1.408 . S
C1373 C1372 1.404 . S
C1373 H1385 0.930 . S
C1374 C1370 1.524 . S
C1374 H1386 0.956 . S
C1374 H1387 0.961 . S
C1374 H1388 0.961 . S
C1375 C1372 1.539 . S
C1375 H1389 0.958 . S
C1375 H1390 0.961 . S
C1375 H1391 0.960 . S
H1376 C1360 0.931 . S
H1377 C1365 0.929 . S
H1378 C1366 0.960 . S
H1379 C1366 0.962 . S
H1380 C1366 0.960 . S
H1381 C1367 0.961 . S
H1382 C1367 0.961 . S
H1383 C1367 0.961 . S
H1384 C1368 0.931 . S
H1385 C1373 0.930 . S
H1386 C1374 0.956 . S
H1387 C1374 0.961 . S
H1388 C1374 0.961 . S
H1389 C1375 0.958 . S
H1390 C1375 0.961 . S
H1391 C1375 0.960 . S
C1392 C1393 1.391 . S
C1392 C1394 1.394 . S
C1392 H1408 0.931 1_556 S
C1393 C1392 1.391 . S
C1393 C1397 1.376 . S
C1394 C1392 1.394 . S
C1394 C1395 1.369 . S
C1394 C1398 1.531 . S
C1395 C1394 1.369 . S
C1395 C1396 1.410 . S
C1395 C1403 1.503 . S
C1396 C1395 1.410 . S
C1396 C1397 1.392 . S
C1396 C1399 1.511 . S
C1397 C1393 1.376 . S
C1397 C1396 1.392 . S
C1397 H1409 0.929 . S
C1398 C1394 1.531 . S
C1398 H1410 0.960 . S
C1398 H1411 0.962 . S
C1398 H1412 0.960 . S
C1399 C1396 1.511 . S
C1399 H1413 0.961 . S
C1399 H1414 0.961 . S
C1399 H1415 0.961 . S
C1400 C1401 1.370 . S
C1400 C1402 1.363 . S
C1400 H1416 0.931 . S
C1401 C1400 1.370 . S
C1401 C1405 1.408 . S
C1402 C1400 1.363 . S
C1402 C1403 1.370 . S
C1402 C1406 1.524 . S
C1403 C1395 1.503 . S
C1403 C1402 1.370 . S
C1403 C1404 1.403 . S
C1404 C1403 1.403 . S
C1404 C1405 1.404 . S
C1404 C1407 1.539 . S
C1405 C1401 1.408 . S
C1405 C1404 1.404 . S
C1405 H1417 0.930 . S
C1406 C1402 1.524 . S
C1406 H1418 0.956 . S
C1406 H1419 0.961 . S
C1406 H1420 0.961 . S
C1407 C1404 1.539 . S
C1407 H1421 0.958 . S
C1407 H1422 0.961 . S
C1407 H1423 0.960 . S
H1408 C1392 0.931 1_554 S
H1409 C1397 0.929 . S
H1410 C1398 0.960 . S
H1411 C1398 0.962 . S
H1412 C1398 0.960 . S
H1413 C1399 0.961 . S
H1414 C1399 0.961 . S
H1415 C1399 0.961 . S
H1416 C1400 0.931 . S
H1417 C1405 0.930 . S
H1418 C1406 0.956 . S
H1419 C1406 0.961 . S
H1420 C1406 0.961 . S
H1421 C1407 0.958 . S
H1422 C1407 0.961 . S
H1423 C1407 0.960 . S
C1424 C1425 1.391 . S
C1424 C1426 1.394 . S
C1424 H1440 0.931 . S
C1425 C1424 1.391 . S
C1425 C1429 1.376 . S
C1426 C1424 1.394 . S
C1426 C1427 1.369 . S
C1426 C1430 1.531 . S
C1427 C1426 1.369 . S
C1427 C1428 1.410 . S
C1427 C1435 1.503 . S
C1428 C1427 1.410 . S
C1428 C1429 1.392 . S
C1428 C1431 1.511 . S
C1429 C1425 1.376 . S
C1429 C1428 1.392 . S
C1429 H1441 0.929 . S
C1430 C1426 1.531 . S
C1430 H1442 0.960 . S
C1430 H1443 0.962 . S
C1430 H1444 0.960 . S
C1431 C1428 1.511 . S
C1431 H1445 0.961 . S
C1431 H1446 0.961 . S
C1431 H1447 0.961 . S
C1432 C1433 1.370 . S
C1432 C1434 1.363 . S
C1432 H1448 0.931 . S
C1433 C1432 1.370 . S
C1433 C1437 1.408 . S
C1434 C1432 1.363 . S
C1434 C1435 1.370 . S
C1434 C1438 1.524 . S
C1435 C1427 1.503 . S
C1435 C1434 1.370 . S
C1435 C1436 1.403 . S
C1436 C1435 1.403 . S
C1436 C1437 1.404 . S
C1436 C1439 1.539 . S
C1437 C1433 1.408 . S
C1437 C1436 1.404 . S
C1437 H1449 0.930 . S
C1438 C1434 1.524 . S
C1438 H1450 0.956 . S
C1438 H1451 0.961 . S
C1438 H1452 0.961 . S
C1439 C1436 1.539 . S
C1439 H1453 0.958 . S
C1439 H1454 0.961 . S
C1439 H1455 0.960 . S
H1440 C1424 0.931 . S
H1441 C1429 0.929 . S
H1442 C1430 0.960 . S
H1443 C1430 0.962 . S
H1444 C1430 0.960 . S
H1445 C1431 0.961 . S
H1446 C1431 0.961 . S
H1447 C1431 0.961 . S
H1448 C1432 0.931 . S
H1449 C1437 0.930 . S
H1450 C1438 0.956 . S
H1451 C1438 0.961 . S
H1452 C1438 0.961 . S
H1453 C1439 0.958 . S
H1454 C1439 0.961 . S
H1455 C1439 0.960 . S
C1456 C1457 1.391 . S
C1456 C1458 1.394 . S
C1456 H1472 0.931 . S
C1457 C1456 1.391 . S
C1457 C1461 1.376 . S
C1458 C1456 1.394 . S
C1458 C1459 1.369 . S
C1458 C1462 1.531 . S
C1459 C1458 1.369 . S
C1459 C1460 1.410 . S
C1459 C1467 1.503 . S
C1460 C1459 1.410 . S
C1460 C1461 1.392 . S
C1460 C1463 1.511 . S
C1461 C1457 1.376 . S
C1461 C1460 1.392 . S
C1461 H1473 0.929 . S
C1462 C1458 1.531 . S
C1462 H1474 0.960 . S
C1462 H1475 0.962 . S
C1462 H1476 0.960 . S
C1463 C1460 1.511 . S
C1463 H1477 0.961 . S
C1463 H1478 0.961 . S
C1463 H1479 0.961 . S
C1464 C1465 1.370 . S
C1464 C1466 1.363 . S
C1464 H1480 0.931 . S
C1465 C1464 1.370 . S
C1465 C1469 1.408 . S
C1466 C1464 1.363 . S
C1466 C1467 1.370 . S
C1466 C1470 1.524 . S
C1467 C1459 1.503 . S
C1467 C1466 1.370 . S
C1467 C1468 1.403 . S
C1468 C1467 1.403 . S
C1468 C1469 1.404 . S
C1468 C1471 1.539 . S
C1469 C1465 1.408 . S
C1469 C1468 1.404 . S
C1469 H1481 0.930 . S
C1470 C1466 1.524 . S
C1470 H1482 0.956 . S
C1470 H1483 0.961 . S
C1470 H1484 0.961 . S
C1471 C1468 1.539 . S
C1471 H1485 0.958 . S
C1471 H1486 0.961 . S
C1471 H1487 0.960 . S
H1472 C1456 0.931 . S
H1473 C1461 0.929 . S
H1474 C1462 0.960 . S
H1475 C1462 0.962 . S
H1476 C1462 0.960 . S
H1477 C1463 0.961 . S
H1478 C1463 0.961 . S
H1479 C1463 0.961 . S
H1480 C1464 0.931 . S
H1481 C1469 0.930 . S
H1482 C1470 0.956 . S
H1483 C1470 0.961 . S
H1484 C1470 0.961 . S
H1485 C1471 0.958 . S
H1486 C1471 0.961 . S
H1487 C1471 0.960 . S
C1488 C1489 1.391 . S
C1488 C1490 1.394 . S
C1488 H1504 0.931 . S
C1489 C1488 1.391 . S
C1489 C1493 1.376 . S
C1490 C1488 1.394 . S
C1490 C1491 1.369 . S
C1490 C1494 1.531 . S
C1491 C1490 1.369 . S
C1491 C1492 1.410 . S
C1491 C1499 1.503 . S
C1492 C1491 1.410 . S
C1492 C1493 1.392 . S
C1492 C1495 1.511 . S
C1493 C1489 1.376 . S
C1493 C1492 1.392 . S
C1493 H1505 0.929 . S
C1494 C1490 1.531 . S
C1494 H1506 0.960 . S
C1494 H1507 0.962 . S
C1494 H1508 0.960 . S
C1495 C1492 1.511 . S
C1495 H1509 0.961 . S
C1495 H1510 0.961 . S
C1495 H1511 0.961 . S
C1496 C1497 1.370 . S
C1496 C1498 1.363 . S
C1496 H1512 0.931 . S
C1497 C1496 1.370 . S
C1497 C1501 1.408 . S
C1498 C1496 1.363 . S
C1498 C1499 1.370 . S
C1498 C1502 1.524 . S
C1499 C1491 1.503 . S
C1499 C1498 1.370 . S
C1499 C1500 1.403 . S
C1500 C1499 1.403 . S
C1500 C1501 1.404 . S
C1500 C1503 1.539 . S
C1501 C1497 1.408 . S
C1501 C1500 1.404 . S
C1501 H1513 0.930 . S
C1502 C1498 1.524 . S
C1502 H1514 0.956 . S
C1502 H1515 0.961 . S
C1502 H1516 0.961 . S
C1503 C1500 1.539 . S
C1503 H1517 0.958 . S
C1503 H1518 0.961 . S
C1503 H1519 0.960 . S
H1504 C1488 0.931 . S
H1505 C1493 0.929 . S
H1506 C1494 0.960 . S
H1507 C1494 0.962 . S
H1508 C1494 0.960 . S
H1509 C1495 0.961 . S
H1510 C1495 0.961 . S
H1511 C1495 0.961 . S
H1512 C1496 0.931 . S
H1513 C1501 0.930 . S
H1514 C1502 0.956 . S
H1515 C1502 0.961 . S
H1516 C1502 0.961 . S
H1517 C1503 0.958 . S
H1518 C1503 0.961 . S
H1519 C1503 0.960 . S
C1520 C1521 1.391 . S
C1520 C1522 1.394 . S
C1520 H1536 0.931 . S
C1521 C1520 1.391 . S
C1521 C1525 1.376 . S
C1522 C1520 1.394 . S
C1522 C1523 1.369 . S
C1522 C1526 1.531 . S
C1523 C1522 1.369 . S
C1523 C1524 1.410 . S
C1523 C1531 1.503 . S
C1524 C1523 1.410 . S
C1524 C1525 1.392 . S
C1524 C1527 1.511 . S
C1525 C1521 1.376 . S
C1525 C1524 1.392 . S
C1525 H1537 0.929 . S
C1526 C1522 1.531 . S
C1526 H1538 0.960 . S
C1526 H1539 0.962 . S
C1526 H1540 0.960 . S
C1527 C1524 1.511 . S
C1527 H1541 0.961 . S
C1527 H1542 0.961 . S
C1527 H1543 0.961 . S
C1528 C1529 1.370 . S
C1528 C1530 1.363 . S
C1528 H1544 0.931 . S
C1529 C1528 1.370 . S
C1529 C1533 1.408 . S
C1530 C1528 1.363 . S
C1530 C1531 1.370 . S
C1530 C1534 1.524 . S
C1531 C1523 1.503 . S
C1531 C1530 1.370 . S
C1531 C1532 1.403 . S
C1532 C1531 1.403 . S
C1532 C1533 1.404 . S
C1532 C1535 1.539 . S
C1533 C1529 1.408 . S
C1533 C1532 1.404 . S
C1533 H1545 0.930 . S
C1534 C1530 1.524 . S
C1534 H1546 0.956 . S
C1534 H1547 0.961 . S
C1534 H1548 0.961 . S
C1535 C1532 1.539 . S
C1535 H1549 0.958 . S
C1535 H1550 0.961 . S
C1535 H1551 0.960 . S
H1536 C1520 0.931 . S
H1537 C1525 0.929 . S
H1538 C1526 0.960 . S
H1539 C1526 0.962 . S
H1540 C1526 0.960 . S
H1541 C1527 0.961 . S
H1542 C1527 0.961 . S
H1543 C1527 0.961 . S
H1544 C1528 0.931 . S
H1545 C1533 0.930 . S
H1546 C1534 0.956 . S
H1547 C1534 0.961 . S
H1548 C1534 0.961 . S
H1549 C1535 0.958 . S
H1550 C1535 0.961 . S
H1551 C1535 0.960 . S
C1552 C1553 1.391 . S
C1552 C1554 1.394 . S
C1552 H1568 0.931 . S
C1553 C1552 1.391 . S
C1553 C1557 1.376 . S
C1554 C1552 1.394 . S
C1554 C1555 1.369 . S
C1554 C1558 1.531 . S
C1555 C1554 1.369 . S
C1555 C1556 1.410 . S
C1555 C1563 1.503 . S
C1556 C1555 1.410 . S
C1556 C1557 1.392 . S
C1556 C1559 1.511 . S
C1557 C1553 1.376 . S
C1557 C1556 1.392 . S
C1557 H1569 0.929 . S
C1558 C1554 1.531 . S
C1558 H1570 0.960 . S
C1558 H1571 0.962 . S
C1558 H1572 0.960 . S
C1559 C1556 1.511 . S
C1559 H1573 0.961 . S
C1559 H1574 0.961 . S
C1559 H1575 0.961 . S
C1560 C1561 1.370 . S
C1560 C1562 1.363 . S
C1560 H1576 0.931 . S
C1561 C1560 1.370 . S
C1561 C1565 1.408 . S
C1562 C1560 1.363 . S
C1562 C1563 1.370 . S
C1562 C1566 1.524 . S
C1563 C1555 1.503 . S
C1563 C1562 1.370 . S
C1563 C1564 1.403 . S
C1564 C1563 1.403 . S
C1564 C1565 1.404 . S
C1564 C1567 1.539 . S
C1565 C1561 1.408 . S
C1565 C1564 1.404 . S
C1565 H1577 0.930 . S
C1566 C1562 1.524 . S
C1566 H1578 0.956 . S
C1566 H1579 0.961 . S
C1566 H1580 0.961 . S
C1567 C1564 1.539 . S
C1567 H1581 0.958 . S
C1567 H1582 0.961 . S
C1567 H1583 0.960 . S
H1568 C1552 0.931 . S
H1569 C1557 0.929 . S
H1570 C1558 0.960 . S
H1571 C1558 0.962 . S
H1572 C1558 0.960 . S
H1573 C1559 0.961 . S
H1574 C1559 0.961 . S
H1575 C1559 0.961 . S
H1576 C1560 0.931 . S
H1577 C1565 0.930 . S
H1578 C1566 0.956 . S
H1579 C1566 0.961 . S
H1580 C1566 0.961 . S
H1581 C1567 0.958 . S
H1582 C1567 0.961 . S
H1583 C1567 0.960 . S
C1584 C1585 1.391 . S
C1584 C1586 1.394 . S
C1584 H1600 0.931 . S
C1585 C1584 1.391 . S
C1585 C1589 1.376 . S
C1586 C1584 1.394 . S
C1586 C1587 1.369 . S
C1586 C1590 1.531 . S
C1587 C1586 1.369 . S
C1587 C1588 1.410 . S
C1587 C1595 1.503 . S
C1588 C1587 1.410 . S
C1588 C1589 1.392 . S
C1588 C1591 1.511 . S
C1589 C1585 1.376 . S
C1589 C1588 1.392 . S
C1589 H1601 0.929 . S
C1590 C1586 1.531 . S
C1590 H1602 0.960 . S
C1590 H1603 0.962 . S
C1590 H1604 0.960 . S
C1591 C1588 1.511 . S
C1591 H1605 0.961 . S
C1591 H1606 0.961 . S
C1591 H1607 0.961 . S
C1592 C1593 1.370 . S
C1592 C1594 1.363 . S
C1592 H1608 0.931 . S
C1593 C1592 1.370 . S
C1593 C1597 1.408 . S
C1594 C1592 1.363 . S
C1594 C1595 1.370 . S
C1594 C1598 1.524 . S
C1595 C1587 1.503 . S
C1595 C1594 1.370 . S
C1595 C1596 1.403 . S
C1596 C1595 1.403 . S
C1596 C1597 1.404 . S
C1596 C1599 1.539 . S
C1597 C1593 1.408 . S
C1597 C1596 1.404 . S
C1597 H1609 0.930 . S
C1598 C1594 1.524 . S
C1598 H1610 0.956 . S
C1598 H1611 0.961 . S
C1598 H1612 0.961 . S
C1599 C1596 1.539 . S
C1599 H1613 0.958 . S
C1599 H1614 0.961 . S
C1599 H1615 0.960 . S
H1600 C1584 0.931 . S
H1601 C1589 0.929 . S
H1602 C1590 0.960 . S
H1603 C1590 0.962 . S
H1604 C1590 0.960 . S
H1605 C1591 0.961 . S
H1606 C1591 0.961 . S
H1607 C1591 0.961 . S
H1608 C1592 0.931 . S
H1609 C1597 0.930 . S
H1610 C1598 0.956 . S
H1611 C1598 0.961 . S
H1612 C1598 0.961 . S
H1613 C1599 0.958 . S
H1614 C1599 0.961 . S
H1615 C1599 0.960 . S
C1616 C1617 1.391 . S
C1616 C1618 1.394 . S
C1616 H1632 0.931 . S
C1617 C1616 1.391 . S
C1617 C1621 1.376 . S
C1618 C1616 1.394 . S
C1618 C1619 1.369 . S
C1618 C1622 1.531 . S
C1619 C1618 1.369 . S
C1619 C1620 1.410 . S
C1619 C1627 1.503 . S
C1620 C1619 1.410 . S
C1620 C1621 1.392 . S
C1620 C1623 1.511 . S
C1621 C1617 1.376 . S
C1621 C1620 1.392 . S
C1621 H1633 0.929 . S
C1622 C1618 1.531 . S
C1622 H1634 0.960 . S
C1622 H1635 0.962 . S
C1622 H1636 0.986 . S
C1623 C1620 1.511 . S
C1623 H1637 0.961 . S
C1623 H1638 0.961 . S
C1623 H1639 0.961 . S
C1624 C1625 1.370 . S
C1624 C1626 1.363 . S
C1624 H1640 0.931 . S
C1625 C1624 1.370 . S
C1625 C1629 1.408 . S
C1626 C1624 1.363 . S
C1626 C1627 1.370 . S
C1626 C1630 1.524 . S
C1627 C1619 1.503 . S
C1627 C1626 1.370 . S
C1627 C1628 1.403 . S
C1628 C1627 1.403 . S
C1628 C1629 1.404 . S
C1628 C1631 1.539 . S
C1629 C1625 1.408 . S
C1629 C1628 1.404 . S
C1629 H1641 0.930 . S
C1630 C1626 1.524 . S
C1630 H1642 0.956 . S
C1630 H1643 0.961 . S
C1630 H1644 0.961 . S
C1631 C1628 1.539 . S
C1631 H1645 0.958 . S
C1631 H1646 0.961 . S
C1631 H1647 0.960 . S
H1632 C1616 0.931 . S
H1633 C1621 0.929 . S
H1634 C1622 0.960 . S
H1635 C1622 0.962 . S
H1636 C1622 0.986 . S
H1637 C1623 0.961 . S
H1638 C1623 0.961 . S
H1639 C1623 0.961 . S
H1640 C1624 0.931 . S
H1641 C1629 0.930 . S
H1642 C1630 0.956 . S
H1643 C1630 0.961 . S
H1644 C1630 0.961 . S
H1645 C1631 0.958 . S
H1646 C1631 0.961 . S
H1647 C1631 0.960 . S
C1648 C1649 1.391 . S
C1648 C1650 1.394 . S
C1648 H1664 0.931 . S
C1649 C1648 1.391 . S
C1649 C1653 1.376 . S
C1650 C1648 1.394 . S
C1650 C1651 1.369 . S
C1650 C1654 1.531 . S
C1651 C1650 1.369 . S
C1651 C1652 1.410 . S
C1651 C1659 1.503 . S
C1652 C1651 1.410 . S
C1652 C1653 1.392 . S
C1652 C1655 1.511 . S
C1653 C1649 1.376 . S
C1653 C1652 1.392 . S
C1653 H1665 0.929 . S
C1654 C1650 1.531 . S
C1654 H1666 0.960 . S
C1654 H1667 0.962 . S
C1654 H1668 0.960 . S
C1655 C1652 1.511 . S
C1655 H1669 0.961 . S
C1655 H1670 0.961 . S
C1655 H1671 0.961 . S
C1656 C1657 1.370 . S
C1656 C1658 1.363 . S
C1656 H1672 0.931 . S
C1657 C1656 1.370 . S
C1657 C1661 1.408 . S
C1658 C1656 1.363 . S
C1658 C1659 1.370 . S
C1658 C1662 1.524 . S
C1659 C1651 1.503 . S
C1659 C1658 1.370 . S
C1659 C1660 1.403 . S
C1660 C1659 1.403 . S
C1660 C1661 1.404 . S
C1660 C1663 1.539 . S
C1661 C1657 1.408 . S
C1661 C1660 1.404 . S
C1661 H1673 0.930 . S
C1662 C1658 1.524 . S
C1662 H1674 0.956 . S
C1662 H1675 0.961 . S
C1662 H1676 0.961 . S
C1663 C1660 1.539 . S
C1663 H1677 0.958 . S
C1663 H1678 0.961 . S
C1663 H1679 0.960 . S
H1664 C1648 0.931 . S
H1665 C1653 0.929 . S
H1666 C1654 0.960 . S
H1667 C1654 0.962 . S
H1668 C1654 0.960 . S
H1669 C1655 0.961 . S
H1670 C1655 0.961 . S
H1671 C1655 0.961 . S
H1672 C1656 0.931 . S
H1673 C1661 0.930 . S
H1674 C1662 0.956 . S
H1675 C1662 0.961 . S
H1676 C1662 0.961 . S
H1677 C1663 0.958 . S
H1678 C1663 0.961 . S
H1679 C1663 0.960 . S
C1680 C1681 1.391 . S
C1680 C1682 1.394 . S
C1680 H1696 0.931 . S
C1681 C1680 1.391 . S
C1681 C1685 1.376 . S
C1682 C1680 1.394 . S
C1682 C1683 1.369 . S
C1682 C1686 1.531 . S
C1683 C1682 1.369 . S
C1683 C1684 1.410 . S
C1683 C1691 1.503 . S
C1684 C1683 1.410 . S
C1684 C1685 1.392 . S
C1684 C1687 1.511 . S
C1685 C1681 1.376 . S
C1685 C1684 1.392 . S
C1685 H1697 0.929 . S
C1686 C1682 1.531 . S
C1686 H1698 0.960 . S
C1686 H1699 0.962 . S
C1686 H1700 0.960 . S
C1687 C1684 1.511 . S
C1687 H1701 0.961 . S
C1687 H1702 0.961 . S
C1687 H1703 0.961 . S
C1688 C1689 1.370 . S
C1688 C1690 1.363 . S
C1688 H1704 0.931 . S
C1689 C1688 1.370 . S
C1689 C1693 1.408 . S
C1690 C1688 1.363 . S
C1690 C1691 1.370 . S
C1690 C1694 1.524 . S
C1691 C1683 1.503 . S
C1691 C1690 1.370 . S
C1691 C1692 1.403 . S
C1692 C1691 1.403 . S
C1692 C1693 1.404 . S
C1692 C1695 1.539 . S
C1693 C1689 1.408 . S
C1693 C1692 1.404 . S
C1693 H1705 0.930 . S
C1694 C1690 1.524 . S
C1694 H1706 0.956 . S
C1694 H1707 0.961 . S
C1694 H1708 0.961 . S
C1695 C1692 1.539 . S
C1695 H1709 0.958 . S
C1695 H1710 0.961 . S
C1695 H1711 0.960 . S
H1696 C1680 0.931 . S
H1697 C1685 0.929 . S
H1698 C1686 0.960 . S
H1699 C1686 0.962 . S
H1700 C1686 0.960 . S
H1701 C1687 0.961 . S
H1702 C1687 0.961 . S
H1703 C1687 0.961 . S
H1704 C1688 0.931 . S
H1705 C1693 0.930 . S
H1706 C1694 0.956 . S
H1707 C1694 0.961 . S
H1708 C1694 0.961 . S
H1709 C1695 0.958 . S
H1710 C1695 0.961 . S
H1711 C1695 0.960 . S
C1712 C1713 1.391 . S
C1712 C1714 1.394 . S
C1712 H1728 0.931 . S
C1713 C1712 1.391 . S
C1713 C1717 1.376 . S
C1714 C1712 1.394 . S
C1714 C1715 1.369 . S
C1714 C1718 1.531 . S
C1715 C1714 1.369 . S
C1715 C1716 1.410 . S
C1715 C1723 1.503 . S
C1716 C1715 1.410 . S
C1716 C1717 1.392 . S
C1716 C1719 1.511 . S
C1717 C1713 1.376 . S
C1717 C1716 1.392 . S
C1717 H1729 0.929 . S
C1718 C1714 1.531 . S
C1718 H1730 0.960 . S
C1718 H1731 0.962 . S
C1718 H1732 0.960 . S
C1719 C1716 1.511 . S
C1719 H1733 0.961 . S
C1719 H1734 0.961 . S
C1719 H1735 0.961 . S
C1720 C1721 1.370 . S
C1720 C1722 1.363 . S
C1720 H1736 0.931 . S
C1721 C1720 1.370 . S
C1721 C1725 1.408 . S
C1722 C1720 1.363 . S
C1722 C1723 1.370 . S
C1722 C1726 1.524 . S
C1723 C1715 1.503 . S
C1723 C1722 1.370 . S
C1723 C1724 1.403 . S
C1724 C1723 1.403 . S
C1724 C1725 1.404 . S
C1724 C1727 1.539 . S
C1725 C1721 1.408 . S
C1725 C1724 1.404 . S
C1725 H1737 0.930 . S
C1726 C1722 1.524 . S
C1726 H1738 0.956 . S
C1726 H1739 0.961 . S
C1726 H1740 0.961 . S
C1727 C1724 1.539 . S
C1727 H1741 0.958 . S
C1727 H1742 0.961 . S
C1727 H1743 0.960 . S
H1728 C1712 0.931 . S
H1729 C1717 0.929 . S
H1730 C1718 0.960 . S
H1731 C1718 0.962 . S
H1732 C1718 0.960 . S
H1733 C1719 0.961 . S
H1734 C1719 0.961 . S
H1735 C1719 0.961 . S
H1736 C1720 0.931 . S
H1737 C1725 0.930 . S
H1738 C1726 0.956 . S
H1739 C1726 0.961 . S
H1740 C1726 0.961 . S
H1741 C1727 0.958 . S
H1742 C1727 0.961 . S
H1743 C1727 0.960 . S
C1744 C1745 1.391 . S
C1744 C1746 1.394 . S
C1744 H1760 0.931 . S
C1745 C1744 1.391 . S
C1745 C1749 1.376 . S
C1746 C1744 1.394 . S
C1746 C1747 1.369 . S
C1746 C1750 1.531 . S
C1747 C1746 1.369 . S
C1747 C1748 1.410 . S
C1747 C1755 1.503 . S
C1748 C1747 1.410 . S
C1748 C1749 1.392 . S
C1748 C1751 1.511 . S
C1749 C1745 1.376 . S
C1749 C1748 1.392 . S
C1749 H1761 0.929 . S
C1750 C1746 1.531 . S
C1750 H1762 0.960 . S
C1750 H1763 0.962 . S
C1750 H1764 0.960 . S
C1751 C1748 1.511 . S
C1751 H1765 0.961 . S
C1751 H1766 0.961 . S
C1751 H1767 0.961 . S
C1752 C1753 1.370 . S
C1752 C1754 1.363 . S
C1752 H1768 0.931 . S
C1753 C1752 1.370 . S
C1753 C1757 1.408 . S
C1754 C1752 1.363 . S
C1754 C1755 1.370 . S
C1754 C1758 1.524 . S
C1755 C1747 1.503 . S
C1755 C1754 1.370 . S
C1755 C1756 1.403 . S
C1756 C1755 1.403 . S
C1756 C1757 1.404 . S
C1756 C1759 1.539 . S
C1757 C1753 1.408 . S
C1757 C1756 1.404 . S
C1757 H1769 0.930 . S
C1758 C1754 1.524 . S
C1758 H1770 0.956 . S
C1758 H1771 0.961 . S
C1758 H1772 0.961 . S
C1759 C1756 1.539 . S
C1759 H1773 0.958 . S
C1759 H1774 0.961 . S
C1759 H1775 0.960 . S
H1760 C1744 0.931 . S
H1761 C1749 0.929 . S
H1762 C1750 0.960 . S
H1763 C1750 0.962 . S
H1764 C1750 0.960 . S
H1765 C1751 0.961 . S
H1766 C1751 0.961 . S
H1767 C1751 0.961 . S
H1768 C1752 0.931 . S
H1769 C1757 0.930 . S
H1770 C1758 0.956 . S
H1771 C1758 0.961 . S
H1772 C1758 0.961 . S
H1773 C1759 0.958 . S
H1774 C1759 0.961 . S
H1775 C1759 0.960 . S
C1776 C1777 1.391 . S
C1776 C1778 1.394 . S
C1776 H1792 0.931 . S
C1777 C1776 1.391 . S
C1777 C1781 1.376 . S
C1778 C1776 1.394 . S
C1778 C1779 1.369 . S
C1778 C1782 1.531 . S
C1779 C1778 1.369 . S
C1779 C1780 1.410 . S
C1779 C1787 1.503 . S
C1780 C1779 1.410 . S
C1780 C1781 1.392 . S
C1780 C1783 1.511 . S
C1781 C1777 1.376 . S
C1781 C1780 1.392 . S
C1781 H1793 0.929 . S
C1782 C1778 1.531 . S
C1782 H1794 0.960 . S
C1782 H1795 0.962 . S
C1782 H1796 0.960 . S
C1783 C1780 1.511 . S
C1783 H1797 0.961 . S
C1783 H1798 0.961 . S
C1783 H1799 0.961 . S
C1784 C1785 1.370 . S
C1784 C1786 1.363 . S
C1784 H1800 0.931 . S
C1785 C1784 1.370 . S
C1785 C1789 1.408 . S
C1786 C1784 1.363 . S
C1786 C1787 1.370 . S
C1786 C1790 1.524 . S
C1787 C1779 1.503 . S
C1787 C1786 1.370 . S
C1787 C1788 1.403 . S
C1788 C1787 1.403 . S
C1788 C1789 1.404 . S
C1788 C1791 1.539 . S
C1789 C1785 1.408 . S
C1789 C1788 1.404 . S
C1789 H1801 0.930 . S
C1790 C1786 1.524 . S
C1790 H1802 0.956 . S
C1790 H1803 0.961 . S
C1790 H1804 0.961 . S
C1791 C1788 1.539 . S
C1791 H1805 0.958 . S
C1791 H1806 0.961 . S
C1791 H1807 0.960 . S
H1792 C1776 0.931 . S
H1793 C1781 0.929 . S
H1794 C1782 0.960 . S
H1795 C1782 0.962 . S
H1796 C1782 0.960 . S
H1797 C1783 0.961 . S
H1798 C1783 0.961 . S
H1799 C1783 0.961 . S
H1800 C1784 0.931 . S
H1801 C1789 0.930 . S
H1802 C1790 0.956 . S
H1803 C1790 0.961 . S
H1804 C1790 0.961 . S
H1805 C1791 0.958 . S
H1806 C1791 0.961 . S
H1807 C1791 0.960 . S
C1808 C1809 1.391 . S
C1808 C1810 1.394 . S
C1808 H1824 0.931 . S
C1809 C1808 1.391 . S
C1809 C1813 1.376 . S
C1810 C1808 1.394 . S
C1810 C1811 1.369 . S
C1810 C1814 1.531 . S
C1811 C1810 1.369 . S
C1811 C1812 1.410 . S
C1811 C1819 1.503 . S
C1812 C1811 1.410 . S
C1812 C1813 1.392 . S
C1812 C1815 1.511 . S
C1813 C1809 1.376 . S
C1813 C1812 1.392 . S
C1813 H1825 0.929 . S
C1814 C1810 1.531 . S
C1814 H1826 0.960 . S
C1814 H1827 0.962 . S
C1814 H1828 0.960 . S
C1815 C1812 1.511 . S
C1815 H1829 0.961 . S
C1815 H1830 0.961 . S
C1815 H1831 0.961 . S
C1816 C1817 1.370 . S
C1816 C1818 1.363 . S
C1816 H1832 0.931 . S
C1817 C1816 1.370 . S
C1817 C1821 1.408 . S
C1818 C1816 1.363 . S
C1818 C1819 1.370 . S
C1818 C1822 1.524 . S
C1819 C1811 1.503 . S
C1819 C1818 1.370 . S
C1819 C1820 1.403 . S
C1820 C1819 1.403 . S
C1820 C1821 1.404 . S
C1820 C1823 1.539 . S
C1821 C1817 1.408 . S
C1821 C1820 1.404 . S
C1821 H1833 0.930 . S
C1822 C1818 1.524 . S
C1822 H1834 0.956 . S
C1822 H1835 0.961 . S
C1822 H1836 0.961 . S
C1823 C1820 1.539 . S
C1823 H1837 0.958 . S
C1823 H1838 0.961 . S
C1823 H1839 0.960 . S
H1824 C1808 0.931 . S
H1825 C1813 0.929 . S
H1826 C1814 0.960 . S
H1827 C1814 0.962 . S
H1828 C1814 0.960 . S
H1829 C1815 0.961 . S
H1830 C1815 0.961 . S
H1831 C1815 0.961 . S
H1832 C1816 0.931 . S
H1833 C1821 0.930 . S
H1834 C1822 0.956 . S
H1835 C1822 0.961 . S
H1836 C1822 0.961 . S
H1837 C1823 0.958 . S
H1838 C1823 0.961 . S
H1839 C1823 0.960 . S
C1840 C1841 1.391 . S
C1840 C1842 1.394 . S
C1840 H1856 0.931 . S
C1841 C1840 1.391 . S
C1841 C1845 1.376 . S
C1842 C1840 1.394 . S
C1842 C1843 1.369 . S
C1842 C1846 1.531 . S
C1843 C1842 1.369 . S
C1843 C1844 1.410 . S
C1843 C1851 1.503 . S
C1844 C1843 1.410 . S
C1844 C1845 1.392 . S
C1844 C1847 1.511 . S
C1845 C1841 1.376 . S
C1845 C1844 1.392 . S
C1845 H1857 0.929 . S
C1846 C1842 1.531 . S
C1846 H1858 0.960 . S
C1846 H1859 0.962 . S
C1846 H1860 0.960 . S
C1847 C1844 1.511 . S
C1847 H1861 0.961 . S
C1847 H1862 0.961 . S
C1847 H1863 0.961 . S
C1848 C1849 1.370 . S
C1848 C1850 1.363 . S
C1848 H1864 0.931 . S
C1849 C1848 1.370 . S
C1849 C1853 1.408 . S
C1850 C1848 1.363 . S
C1850 C1851 1.370 . S
C1850 C1854 1.524 . S
C1851 C1843 1.503 . S
C1851 C1850 1.370 . S
C1851 C1852 1.403 . S
C1852 C1851 1.403 . S
C1852 C1853 1.404 . S
C1852 C1855 1.539 . S
C1853 C1849 1.408 . S
C1853 C1852 1.404 . S
C1853 H1865 0.930 . S
C1854 C1850 1.524 . S
C1854 H1866 0.956 . S
C1854 H1867 0.961 . S
C1854 H1868 0.961 . S
C1855 C1852 1.539 . S
C1855 H1869 0.958 . S
C1855 H1870 0.961 . S
C1855 H1871 0.960 . S
H1856 C1840 0.931 . S
H1857 C1845 0.929 . S
H1858 C1846 0.960 . S
H1859 C1846 0.962 . S
H1860 C1846 0.960 . S
H1861 C1847 0.961 . S
H1862 C1847 0.961 . S
H1863 C1847 0.961 . S
H1864 C1848 0.931 . S
H1865 C1853 0.930 . S
H1866 C1854 0.956 . S
H1867 C1854 0.961 . S
H1868 C1854 0.961 . S
H1869 C1855 0.958 . S
H1870 C1855 0.961 . S
H1871 C1855 0.960 . S
C337 C201 1.492 . S
C345 C11 1.495 . S
C369 C14 1.517 . S
C377 C210 1.532 . S
C401 C257 1.492 . S
C409 C33 1.498 . S
C433 C51 1.581 . S
C441 C191 1.594 . S
C465 C207 1.445 . S
C473 C67 1.442 . S
C497 C79 1.564 . S
C505 C219 1.569 . S
C529 C89 1.445 . S
C537 C263 1.448 . S
C561 C98 1.506 . S
C569 C182 1.505 . S
C593 C137 1.394 . S
C601 C123 1.393 . S
C625 C145 1.546 . S
C633 C131 1.547 . S
C657 C151 1.453 . S
C665 C165 1.461 . S
C689 C159 1.473 . S
C697 C117 1.478 . S
C721 C168 1.518 . S
C729 C42 1.531 . S
C753 C61 1.445 . S
C761 C235 1.445 . S
C785 C247 1.588 . S
C793 C23 1.589 . S
C817 C25 1.469 . S
C825 C303 1.464 . S
C849 C126 1.435 . S
C857 C9 1.424 . S
C881 C331 1.519 . S
C889 C47 1.528 . S
C913 C154 1.412 . S
C921 C28 1.419 . S
C945 C294 1.445 . S
C953 C109 1.445 . S
C977 C135 1.450 . S
C985 C84 1.447 . S
C1009 C75 1.489 . S
C1017 C322 1.490 . S
C1041 C65 1.463 . S
C1049 C163 1.449 . S
C1073 C215 1.531 . S
C1081 C275 1.519 . S
C1105 C224 1.438 . S
C1113 C221 1.438 . S
C1137 C193 1.479 . S
C1145 C233 1.484 . S
C1169 C266 1.484 . S
C1177 C187 1.482 . S
C1201 C37 1.412 . S
C1209 C280 1.432 . S
C1233 C140 1.477 . S
C1241 C103 1.493 . S
C1265 C0 1.423 . S
C1273 C308 1.420 . S
C1297 C271 1.494 . S
C1305 C39 1.490 . S
C1329 C5 1.493 . S
C1337 C229 1.498 . S
C1361 C277 1.445 . S
C1369 C95 1.440 . S
C1393 C177 1.558 . S
C1401 C107 1.573 . S
C1425 C70 1.500 . S
C1433 C238 1.508 . S
C1457 C305 1.383 . S
C1465 C291 1.395 . S
C1489 C327 1.544 . S
C1497 C285 1.547 . S
C1521 C319 1.456 . S
C1529 C333 1.461 . S
C1553 C299 1.476 . S
C1561 C313 1.478 . S
C1585 C121 1.460 . S
C1593 C53 1.471 . S
C1617 C19 1.527 . S
C1625 C149 1.513 . S
C1649 C81 1.444 . S
C1657 C112 1.445 . S
C1681 C289 1.435 . S
C1689 C56 1.456 . S
C1713 C93 1.441 . S
C1721 C317 1.456 . S
C1745 C173 1.527 . S
C1753 C205 1.529 . S
C1777 C252 1.437 . S
C1785 C179 1.438 . S
C1809 C249 1.477 . S
C1817 C261 1.484 . S
C1841 C196 1.468 . S
C1849 C243 1.484 . S
