# Generated by pormake.
# Topology crs, (6)-cn, num edge types: 1
# Building blocks:
#     Node 0, Type 0, BuildingBlock: BETDEL_clean_sbu_0, # of connection points: 6
#     Node 1, Type 0, BuildingBlock: BETDEL_clean_sbu_0, # of connection points: 6
#     Node 2, Type 0, BuildingBlock: BETDEL_clean_sbu_0, # of connection points: 6
#     Node 3, Type 0, BuildingBlock: BETDEL_clean_sbu_0, # of connection points: 6
#     Node 4, Type 0, BuildingBlock: BETDEL_clean_sbu_0, # of connection points: 6
#     Node 5, Type 0, BuildingBlock: BETDEL_clean_sbu_0, # of connection points: 6
#     Node 6, Type 0, BuildingBlock: BETDEL_clean_sbu_0, # of connection points: 6
#     Node 7, Type 0, BuildingBlock: BETDEL_clean_sbu_0, # of connection points: 6
#     Node 8, Type 0, BuildingBlock: BETDEL_clean_sbu_0, # of connection points: 6
#     Node 9, Type 0, BuildingBlock: BETDEL_clean_sbu_0, # of connection points: 6
#     Node 10, Type 0, BuildingBlock: BETDEL_clean_sbu_0, # of connection points: 6
#     Node 11, Type 0, BuildingBlock: BETDEL_clean_sbu_0, # of connection points: 6
#     Node 12, Type 0, BuildingBlock: BETDEL_clean_sbu_0, # of connection points: 6
#     Node 13, Type 0, BuildingBlock: BETDEL_clean_sbu_0, # of connection points: 6
#     Node 14, Type 0, BuildingBlock: BETDEL_clean_sbu_0, # of connection points: 6
#     Node 15, Type 0, BuildingBlock: BETDEL_clean_sbu_0, # of connection points: 6
#     Edge 16, Type (0, 0), BuildingBlock: XIVTED_clean_linker_0, # of connection points: 2
#     Edge 17, Type (0, 0), BuildingBlock: XIVTED_clean_linker_0, # of connection points: 2
#     Edge 18, Type (0, 0), BuildingBlock: XIVTED_clean_linker_0, # of connection points: 2
#     Edge 19, Type (0, 0), BuildingBlock: XIVTED_clean_linker_0, # of connection points: 2
#     Edge 20, Type (0, 0), BuildingBlock: XIVTED_clean_linker_0, # of connection points: 2
#     Edge 21, Type (0, 0), BuildingBlock: XIVTED_clean_linker_0, # of connection points: 2
#     Edge 22, Type (0, 0), BuildingBlock: XIVTED_clean_linker_0, # of connection points: 2
#     Edge 23, Type (0, 0), BuildingBlock: XIVTED_clean_linker_0, # of connection points: 2
#     Edge 24, Type (0, 0), BuildingBlock: XIVTED_clean_linker_0, # of connection points: 2
#     Edge 25, Type (0, 0), BuildingBlock: XIVTED_clean_linker_0, # of connection points: 2
#     Edge 26, Type (0, 0), BuildingBlock: XIVTED_clean_linker_0, # of connection points: 2
#     Edge 27, Type (0, 0), BuildingBlock: XIVTED_clean_linker_0, # of connection points: 2
#     Edge 28, Type (0, 0), BuildingBlock: XIVTED_clean_linker_0, # of connection points: 2
#     Edge 29, Type (0, 0), BuildingBlock: XIVTED_clean_linker_0, # of connection points: 2
#     Edge 30, Type (0, 0), BuildingBlock: XIVTED_clean_linker_0, # of connection points: 2
#     Edge 31, Type (0, 0), BuildingBlock: XIVTED_clean_linker_0, # of connection points: 2
#     Edge 32, Type (0, 0), BuildingBlock: XIVTED_clean_linker_0, # of connection points: 2
#     Edge 33, Type (0, 0), BuildingBlock: XIVTED_clean_linker_0, # of connection points: 2
#     Edge 34, Type (0, 0), BuildingBlock: XIVTED_clean_linker_0, # of connection points: 2
#     Edge 35, Type (0, 0), BuildingBlock: XIVTED_clean_linker_0, # of connection points: 2
#     Edge 36, Type (0, 0), BuildingBlock: XIVTED_clean_linker_0, # of connection points: 2
#     Edge 37, Type (0, 0), BuildingBlock: XIVTED_clean_linker_0, # of connection points: 2
#     Edge 38, Type (0, 0), BuildingBlock: XIVTED_clean_linker_0, # of connection points: 2
#     Edge 39, Type (0, 0), BuildingBlock: XIVTED_clean_linker_0, # of connection points: 2
#     Edge 40, Type (0, 0), BuildingBlock: XIVTED_clean_linker_0, # of connection points: 2
#     Edge 41, Type (0, 0), BuildingBlock: XIVTED_clean_linker_0, # of connection points: 2
#     Edge 42, Type (0, 0), BuildingBlock: XIVTED_clean_linker_0, # of connection points: 2
#     Edge 43, Type (0, 0), BuildingBlock: XIVTED_clean_linker_0, # of connection points: 2
#     Edge 44, Type (0, 0), BuildingBlock: XIVTED_clean_linker_0, # of connection points: 2
#     Edge 45, Type (0, 0), BuildingBlock: XIVTED_clean_linker_0, # of connection points: 2
#     Edge 46, Type (0, 0), BuildingBlock: XIVTED_clean_linker_0, # of connection points: 2
#     Edge 47, Type (0, 0), BuildingBlock: XIVTED_clean_linker_0, # of connection points: 2
#     Edge 48, Type (0, 0), BuildingBlock: XIVTED_clean_linker_0, # of connection points: 2
#     Edge 49, Type (0, 0), BuildingBlock: XIVTED_clean_linker_0, # of connection points: 2
#     Edge 50, Type (0, 0), BuildingBlock: XIVTED_clean_linker_0, # of connection points: 2
#     Edge 51, Type (0, 0), BuildingBlock: XIVTED_clean_linker_0, # of connection points: 2
#     Edge 52, Type (0, 0), BuildingBlock: XIVTED_clean_linker_0, # of connection points: 2
#     Edge 53, Type (0, 0), BuildingBlock: XIVTED_clean_linker_0, # of connection points: 2
#     Edge 54, Type (0, 0), BuildingBlock: XIVTED_clean_linker_0, # of connection points: 2
#     Edge 55, Type (0, 0), BuildingBlock: XIVTED_clean_linker_0, # of connection points: 2
#     Edge 56, Type (0, 0), BuildingBlock: XIVTED_clean_linker_0, # of connection points: 2
#     Edge 57, Type (0, 0), BuildingBlock: XIVTED_clean_linker_0, # of connection points: 2
#     Edge 58, Type (0, 0), BuildingBlock: XIVTED_clean_linker_0, # of connection points: 2
#     Edge 59, Type (0, 0), BuildingBlock: XIVTED_clean_linker_0, # of connection points: 2
#     Edge 60, Type (0, 0), BuildingBlock: XIVTED_clean_linker_0, # of connection points: 2
#     Edge 61, Type (0, 0), BuildingBlock: XIVTED_clean_linker_0, # of connection points: 2
#     Edge 62, Type (0, 0), BuildingBlock: XIVTED_clean_linker_0, # of connection points: 2
#     Edge 63, Type (0, 0), BuildingBlock: XIVTED_clean_linker_0, # of connection points: 2
# Relax obj value: 0.346
# Max RMSD: 0.299
# Mean RMSD: 0.253
data_MOF--net-crs--node1-BETDEL_clean_sbu_0--edge1-XIVTED_clean_linker_0
_symmetry_space_group_name_H-M    P1
_symmetry_Int_Tables_number       1
_symmetry_cell_setting            triclinic
loop_
_symmetry_equiv_pos_as_xyz
'x, y, z'
_cell_length_a     43.550951
_cell_length_b     43.882259
_cell_length_c     42.978614
_cell_angle_alpha  84.72039
_cell_angle_beta   86.196455
_cell_angle_gamma 80.174161
loop_
_atom_site_label
_atom_site_type_symbol
_atom_site_fract_x
_atom_site_fract_y
_atom_site_fract_z
_atom_type_partial_charge
Dy0 Dy 0.97687 0.95947 0.03643 0.0
C1 C 0.09787 0.98827 0.99403 0.0
C2 C 0.91627 0.95209 0.0463 0.0
Dy3 Dy 0.03761 0.98106 0.00702 0.0
O4 O 0.93897 0.93769 0.06302 0.0
O5 O 0.92667 0.97065 0.02436 0.0
O6 O 0.00291 0.93462 0.07787 0.0
O7 O 0.01716 0.97329 0.05346 0.0
C8 C 0.02438 0.95219 0.07459 0.0
C9 C 0.98899 -0.00793 0.97098 0.0
O10 O 0.04777 0.92996 0.00119 0.0
O11 O -0.00245 0.91877 0.01005 0.0
O12 O 0.07551 -0.00319 0.97492 0.0
O13 O 0.08722 0.9761 0.02037 0.0
O14 O 0.01013 0.00994 0.96924 0.0
O15 O -0.00343 0.96845 0.98948 0.0
O16 O 0.96747 0.01053 0.04429 0.0
O17 O 0.01738 0.02234 0.03274 0.0
C18 C 0.02716 0.9111 0.00019 0.0
C19 C 0.98808 0.02978 0.04383 0.0
Dy20 Dy 0.00289 0.2834 0.24979 0.0
C21 C 0.97564 0.16892 0.21425 0.0
C22 C 0.00455 0.33967 0.27082 0.0
Dy23 Dy 0.98061 0.22366 0.23693 0.0
O24 O 0.02857 0.31802 0.26742 0.0
O25 O 0.97986 0.33089 0.26166 0.0
O26 O 0.05243 0.26094 0.24367 0.0
O27 O 0.01858 0.23411 0.26231 0.0
C28 C 0.04667 0.23327 0.25257 0.0
C29 C 0.93805 0.27491 0.2337 0.0
O30 O 0.97397 0.21821 0.28871 0.0
O31 O 0.9773 0.26958 0.29483 0.0
O32 O 0.95272 0.19156 0.21815 0.0
O33 O 0.00103 0.17576 0.224 0.0
O34 O 0.93134 0.24803 0.24436 0.0
O35 O 0.96603 0.27258 0.22378 0.0
O36 O 0.01122 0.28778 0.19808 0.0
O37 O 0.00755 0.23637 0.19258 0.0
C38 C 0.97036 0.2422 0.30597 0.0
C39 C 0.01517 0.26341 0.1813 0.0
Dy40 Dy 0.74888 0.21358 0.48536 0.0
C41 C 0.75544 0.33357 0.52316 0.0
C42 C 0.74651 0.15408 0.47424 0.0
Dy43 Dy 0.75073 0.27458 0.51169 0.0
O44 O 0.74197 0.16491 0.50157 0.0
O45 O 0.75164 0.17584 0.45305 0.0
O46 O 0.75061 0.23595 0.43646 0.0
O47 O 0.72786 0.26179 0.47244 0.0
C48 C 0.73684 0.26306 0.44391 0.0
C49 C 0.76165 0.22476 0.55288 0.0
O50 O 0.69952 0.27467 0.51756 0.0
O51 O 0.7017 0.22249 0.51064 0.0
O52 O 0.75121 0.32485 0.49594 0.0
O53 O 0.75736 0.31005 0.54391 0.0
O54 O 0.74736 0.25171 0.56038 0.0
O55 O 0.7714 0.22634 0.52459 0.0
O56 O 0.80005 0.21344 0.48144 0.0
O57 O 0.79672 0.26628 0.48407 0.0
C58 C 0.68633 0.24946 0.51923 0.0
C59 C 0.81256 0.23901 0.47703 0.0
Dy60 Dy 0.72773 -0.0074 0.73903 0.0
C61 C 0.82499 0.00776 0.81631 0.0
C62 C 0.68068 0.98613 0.70293 0.0
Dy63 Dy 0.7759 0.00975 0.77979 0.0
O64 O 0.69756 0.9638 0.71897 0.0
O65 O 0.68919 0.01247 0.70679 0.0
O66 O 0.75729 0.94695 0.73142 0.0
O67 O 0.77909 0.98462 0.73811 0.0
C68 C 0.78336 0.95581 0.73585 0.0
C69 C 0.72115 0.04756 0.7814 0.0
O70 O 0.78839 0.03528 0.73419 0.0
O71 O 0.74307 0.03255 0.70944 0.0
O72 O 0.8072 0.03297 0.80602 0.0
O73 O 0.81612 0.98374 0.8065 0.0
O74 O 0.74725 0.0561 0.78681 0.0
O75 O 0.72509 0.01864 0.77981 0.0
O76 O 0.71263 0.97047 0.78498 0.0
O77 O 0.75816 0.97093 0.8098 0.0
C78 C 0.76905 0.0441 0.71116 0.0
C79 C 0.73151 0.96061 0.808 0.0
Dy80 Dy 0.49268 0.76049 0.25018 0.0
C81 C 0.43465 0.67646 0.19141 0.0
C82 C 0.52447 0.79178 0.28512 0.0
Dy83 Dy 0.45114 0.72156 0.22289 0.0
O84 O 0.52634 0.76196 0.28661 0.0
O85 O 0.50479 0.80505 0.2645 0.0
O86 O 0.53399 0.72986 0.22863 0.0
O87 O 0.4944 0.71157 0.24588 0.0
C88 C 0.52058 0.70547 0.23199 0.0
C89 C 0.42046 0.7744 0.24221 0.0
O90 O 0.44552 0.705 0.27313 0.0
O91 O 0.46277 0.74679 0.29176 0.0
O92 O 0.42187 0.70555 0.18836 0.0
O93 O 0.45558 0.6722 0.21215 0.0
O94 O 0.40788 0.74952 0.24204 0.0
O95 O 0.44744 0.77096 0.22882 0.0
O96 O 0.49631 0.78053 0.20129 0.0
O97 O 0.47846 0.73998 0.18094 0.0
C98 C 0.44957 0.72156 0.29633 0.0
C99 C 0.492 0.7651 0.17739 0.0
Dy100 Dy 0.23391 0.71873 0.48845 0.0
C101 C 0.28783 0.81857 0.5341 0.0
C102 C 0.21438 0.66986 0.46573 0.0
Dy103 Dy 0.26516 0.76713 0.52259 0.0
O104 O 0.21976 0.69478 0.449 0.0
O105 O 0.21989 0.6716 0.4948 0.0
O106 O 0.20643 0.75951 0.46149 0.0
O107 O 0.25096 0.76238 0.47585 0.0
C108 C 0.22714 0.77736 0.46304 0.0
C109 C 0.2649 0.71349 0.55845 0.0
O110 O 0.21443 0.77939 0.53699 0.0
O111 O 0.19668 0.73492 0.52385 0.0
O112 O 0.26345 0.81888 0.51807 0.0
O113 O 0.29948 0.79034 0.54386 0.0
O114 O 0.27645 0.73656 0.56729 0.0
O115 O 0.25459 0.72134 0.5318 0.0
O116 O 0.28454 0.70393 0.47608 0.0
O117 O 0.30466 0.74613 0.49137 0.0
C118 C 0.19272 0.76137 0.53748 0.0
C119 C 0.3077 0.7198 0.47758 0.0
Dy120 Dy 0.20316 0.47165 0.72635 0.0
C121 C 0.30344 0.48598 0.80221 0.0
C122 C 0.15322 0.47533 0.69015 0.0
Dy123 Dy 0.25518 0.48444 0.76535 0.0
O124 O 0.17131 0.44992 0.69931 0.0
O125 O 0.16194 0.49878 0.70137 0.0
O126 O 0.22835 0.42443 0.71792 0.0
O127 O 0.25412 0.45968 0.72399 0.0
C128 C 0.25566 0.43098 0.72182 0.0
C129 C 0.20206 0.52481 0.76953 0.0
O130 O 0.26595 0.51362 0.72193 0.0
O131 O 0.22154 0.50977 0.69635 0.0
O132 O 0.27409 0.49177 0.81083 0.0
O133 O 0.30666 0.47863 0.77339 0.0
O134 O 0.22948 0.53203 0.77134 0.0
O135 O 0.20393 0.49595 0.76812 0.0
O136 O 0.19152 0.44587 0.77172 0.0
O137 O 0.24108 0.44156 0.79049 0.0
C138 C 0.24708 0.52191 0.69855 0.0
C139 C 0.21322 0.43311 0.79141 0.0
Dy140 Dy 0.9399 0.50535 0.50305 0.0
C141 C 0.04644 0.55533 0.44877 0.0
C142 C 0.88445 0.48832 0.52332 0.0
Dy143 Dy 0.98991 0.5402 0.46818 0.0
O144 O 0.91131 0.47569 0.53398 0.0
O145 O 0.8879 0.51027 0.50163 0.0
O146 O 0.97685 0.47311 0.52907 0.0
O147 O 0.98291 0.51895 0.51544 0.0
C148 C -0.00409 0.49311 0.52756 0.0
C149 C 0.93405 0.5496 0.44254 0.0
O150 O 0.00145 0.4936 0.44821 0.0
O151 O 0.95652 0.47363 0.4654 0.0
O152 O 0.01974 0.57194 0.44162 0.0
O153 O 0.04213 0.53058 0.46633 0.0
O154 O 0.95265 0.57012 0.43874 0.0
O155 O 0.94804 0.52544 0.45641 0.0
O156 O 0.92854 0.55179 0.52321 0.0
O157 O 0.9739 0.57106 0.50651 0.0
C158 C 0.98317 0.47225 0.44825 0.0
C159 C 0.94735 0.57255 0.52377 0.0
Dy160 Dy 0.24015 0.19759 0.98316 0.0
C161 C 0.26159 0.32058 -0.00224 0.0
C162 C 0.23058 0.13809 0.98305 0.0
Dy163 Dy 0.25272 0.26062 0.00122 0.0
O164 O 0.23503 0.15619 0.95815 0.0
O165 O 0.23043 0.15274 0.00793 0.0
O166 O 0.23351 0.21752 0.93315 0.0
O167 O 0.22212 0.24591 0.97008 0.0
C168 C 0.22488 0.24575 0.94086 0.0
C169 C 0.2656 0.21349 0.04491 0.0
O170 O 0.20206 0.26506 0.01507 0.0
O171 O 0.19759 0.21305 0.01425 0.0
O172 O 0.26102 0.30265 0.02352 0.0
O173 O 0.2582 0.30552 0.974 0.0
O174 O 0.25746 0.24221 0.05142 0.0
O175 O 0.26986 0.21209 0.01569 0.0
O176 O 0.29088 0.1931 0.96923 0.0
O177 O 0.29504 0.24509 0.97023 0.0
C178 C 0.18646 0.24167 0.02195 0.0
C179 C 0.3062 0.21665 0.96225 0.0
Dy180 Dy 0.21007 0.00283 0.26021 0.0
C181 C 0.32945 0.01165 0.30519 0.0
C182 C 0.15312 0.00042 0.23885 0.0
Dy183 Dy 0.27143 0.01561 0.28414 0.0
O184 O 0.17107 0.97752 0.253 0.0
O185 O 0.1661 0.02518 0.23665 0.0
O186 O 0.23169 0.95395 0.25305 0.0
O187 O 0.25969 0.98849 0.24841 0.0
C188 C 0.25991 0.95973 0.24975 0.0
C189 C 0.22177 0.05907 0.29395 0.0
O190 O 0.27582 0.03669 0.23508 0.0
O191 O 0.22435 0.03774 0.22246 0.0
O192 O 0.30836 0.03639 0.30444 0.0
O193 O 0.31892 0.98897 0.29444 0.0
O194 O 0.25014 0.06475 0.2905 0.0
O195 O 0.22178 0.03027 0.29563 0.0
O196 O 0.20518 0.98497 0.3106 0.0
O197 O 0.25749 0.98016 0.32082 0.0
C198 C 0.25223 0.04614 0.21658 0.0
C199 C 0.22925 0.9733 0.32788 0.0
Dy200 Dy 0.49489 0.25887 0.73535 0.0
C201 C 0.46913 0.15032 0.68591 0.0
C202 C 0.50254 0.31071 0.76198 0.0
Dy203 Dy 0.47215 0.20242 0.71452 0.0
O204 O 0.52279 0.28541 0.76159 0.0
O205 O 0.47806 0.30788 0.7475 0.0
O206 O 0.54389 0.23733 0.72358 0.0
O207 O 0.51115 0.20886 0.74075 0.0
C208 C 0.53874 0.20908 0.72986 0.0
C209 C 0.42842 0.25199 0.72027 0.0
O210 O 0.46415 0.19177 0.76576 0.0
O211 O 0.46901 0.24111 0.77833 0.0
O212 O 0.44781 0.17491 0.68542 0.0
O213 O 0.49152 0.15384 0.70307 0.0
O214 O 0.42285 0.22375 0.72581 0.0
O215 O 0.45599 0.2522 0.70939 0.0
O216 O 0.50191 0.27002 0.68425 0.0
O217 O 0.49837 0.22044 0.67181 0.0
C218 C 0.46135 0.21327 0.78598 0.0
C219 C 0.50557 0.24843 0.66415 0.0
Dy220 Dy 0.01097 0.76437 0.77811 0.0
C221 C 0.95966 0.67662 0.71473 0.0
C222 C 0.03079 0.80901 0.80784 0.0
Dy223 Dy 0.97997 0.72246 0.7423 0.0
O224 O 0.04802 0.78315 0.80082 0.0
O225 O 0.00331 0.81095 0.7971 0.0
O226 O 0.03282 0.72284 0.80791 0.0
O227 O 0.0256 0.71847 0.76094 0.0
C228 C 0.03439 0.70386 0.78625 0.0
C229 C 0.95711 0.78279 0.73304 0.0
O230 O 0.96103 0.71191 0.79135 0.0
O231 O 0.97361 0.75439 0.81301 0.0
O232 O 0.98726 0.67499 0.72507 0.0
O233 O 0.94278 0.70309 0.72031 0.0
O234 O 0.95867 0.76335 0.71178 0.0
O235 O 0.96536 0.76861 0.7588 0.0
O236 O 0.02881 0.7765 0.72942 0.0
O237 O 0.01688 0.73405 0.70696 0.0
C238 C 0.95944 0.72994 0.81473 0.0
C239 C 0.03045 0.759 0.70566 0.0
Dy240 Dy 0.70357 0.47024 0.20891 0.0
C241 C 0.77746 0.51584 0.29596 0.0
C242 C 0.65921 0.45529 0.17384 0.0
Dy243 Dy 0.73552 0.4983 0.25982 0.0
O244 O 0.65372 0.46787 0.2003 0.0
O245 O 0.68904 0.45042 0.16674 0.0
O246 O 0.75022 0.4499 0.18791 0.0
O247 O 0.74446 0.45595 0.23591 0.0
C248 C 0.76418 0.44877 0.21397 0.0
C249 C 0.6748 0.51945 0.25356 0.0
O250 O 0.7522 0.52302 0.21538 0.0
O251 O 0.71536 0.51338 0.18233 0.0
O252 O 0.78038 0.48912 0.2844 0.0
O253 O 0.75152 0.53319 0.28779 0.0
O254 O 0.68797 0.51763 0.28016 0.0
O255 O 0.69516 0.51255 0.2322 0.0
O256 O 0.69289 0.43983 0.25272 0.0
O257 O 0.72069 0.45871 0.28939 0.0
C258 C 0.73804 0.52829 0.18851 0.0
C259 C 0.70286 0.43934 0.2815 0.0
Dy260 Dy 0.71872 0.71958 0.988 0.0
C261 C 0.75369 0.83139 0.02561 0.0
C262 C 0.70415 0.66251 0.98347 0.0
Dy263 Dy 0.73532 0.77702 0.01543 0.0
O264 O 0.71427 0.6798 0.96018 0.0
O265 O 0.70121 0.67671 0.00894 0.0
O266 O 0.71742 0.74346 0.93941 0.0
O267 O 0.70659 0.76962 0.97835 0.0
C268 C 0.71199 0.77114 0.94917 0.0
C269 C 0.74219 0.72461 0.05335 0.0
O270 O 0.68349 0.78615 0.02409 0.0
O271 O 0.6748 0.73664 0.01602 0.0
O272 O 0.74611 0.81109 0.04735 0.0
O273 O 0.7513 0.82198 -0.00174 0.0
O274 O 0.73501 0.75196 0.06361 0.0
O275 O 0.74807 0.72702 0.02432 0.0
O276 O 0.77015 0.71121 0.97867 0.0
O277 O 0.77808 0.76126 0.98489 0.0
C278 C 0.66525 0.76463 0.02597 0.0
C279 C 0.78763 0.73328 0.97491 0.0
Dy280 Dy 0.5131 0.95453 0.4891 0.0
C281 C 0.6269 -0.00069 0.44956 0.0
C282 C 0.45599 0.93923 0.50556 0.0
Dy283 Dy 0.56846 0.98602 0.46055 0.0
O284 O 0.4805 0.93127 0.52191 0.0
O285 O 0.4627 0.95523 0.47981 0.0
O286 O 0.54464 0.927 0.52506 0.0
O287 O 0.5519 0.97093 0.50674 0.0
C288 C 0.56289 0.94768 0.52409 0.0
C289 C 0.51841 -0.00437 0.42684 0.0
O290 O 0.58218 0.93758 0.44552 0.0
O291 O 0.53646 0.91743 0.45955 0.0
O292 O 0.60291 0.01235 0.43388 0.0
O293 O 0.61888 0.97915 0.47126 0.0
O294 O 0.53723 0.01579 0.42632 0.0
O295 O 0.52899 0.97092 0.4426 0.0
O296 O 0.49766 0.00415 0.50032 0.0
O297 O 0.54548 0.02126 0.49278 0.0
C298 C 0.56499 0.91526 0.44614 0.0
C299 C 0.51584 0.02498 0.50343 0.0
Dy300 Dy 0.44955 0.48455 0.98602 0.0
C301 C 0.57677 0.50694 0.97045 0.0
C302 C 0.38928 0.47601 0.98442 0.0
Dy303 Dy 0.51646 0.49807 0.96996 0.0
O304 O 0.40293 0.47918 0.00958 0.0
O305 O 0.40867 0.47704 0.96031 0.0
O306 O 0.46354 0.46234 0.03329 0.0
O307 O 0.49666 0.46056 0.99582 0.0
C308 C 0.49286 0.45512 0.02497 0.0
C309 C 0.47303 0.52639 0.93048 0.0
O310 O 0.51913 0.45441 0.94625 0.0
O311 O 0.4655 0.45659 0.94542 0.0
O312 O 0.56074 0.50945 0.94572 0.0
O313 O 0.55978 0.49968 0.99507 0.0
O314 O 0.50245 0.51953 0.92235 0.0
O315 O 0.46963 0.52144 0.9597 0.0
O316 O 0.44572 0.53024 0.00561 0.0
O317 O 0.49899 0.5279 0.00948 0.0
C318 C 0.49435 0.44626 0.935 0.0
C319 C 0.46959 0.5392 0.01763 0.0
H320 H 0.93357 0.04995 0.07758 0.0
H321 H 0.02526 0.12971 0.19133 0.0
H322 H 0.02759 0.0682 0.05721 0.0
H323 H 0.92519 0.1542 0.188 0.0
H324 H 0.02573 0.09813 0.14737 0.0
H325 H 0.9286 0.08302 0.12126 0.0
C326 C 0.95289 0.0614 0.08177 0.0
C327 C 0.98122 0.05588 0.06393 0.0
C328 C 0.00364 0.11025 0.15643 0.0
C329 C 0.97593 0.09262 0.11422 0.0
C330 C 0.00332 0.12789 0.18175 0.0
C331 C 0.97517 0.14464 0.19307 0.0
C332 C 0.97559 0.10915 0.14258 0.0
C333 C 0.94737 0.1416 0.17978 0.0
C334 C 0.95008 0.08001 0.10683 0.0
C335 C 0.00541 0.0714 0.07044 0.0
N336 N 0.94825 0.12425 0.15501 0.0
N337 N 0.00241 0.08858 0.09541 0.0
H338 H 0.85186 0.18721 0.45949 0.0
H339 H 0.95641 0.28716 0.34715 0.0
H340 H 0.84441 0.28677 0.45783 0.0
H341 H 0.9514 0.19095 0.33782 0.0
H342 H 0.92537 0.28452 0.39632 0.0
H343 H 0.89815 0.18579 0.4242 0.0
C344 C 0.86023 0.20875 0.45215 0.0
C345 C 0.84381 0.23726 0.4611 0.0
C346 C 0.93144 0.26388 0.38373 0.0
C347 C 0.8967 0.23572 0.42053 0.0
C348 C 0.94919 0.26531 0.35562 0.0
C349 C 0.95601 0.23937 0.33798 0.0
C350 C 0.92038 0.23633 0.39428 0.0
C351 C 0.94631 0.21166 0.35038 0.0
C352 C 0.88666 0.20789 0.43194 0.0
C353 C 0.85605 0.26432 0.45119 0.0
N354 N 0.92862 0.21098 0.3776 0.0
N355 N 0.88152 0.26294 0.43102 0.0
H356 H 0.79173 0.09704 0.71877 0.0
H357 H 0.7854 0.16479 0.54062 0.0
H358 H 0.75992 0.047 0.64881 0.0
H359 H 0.7533 0.2222 0.61635 0.0
H360 H 0.79203 0.11894 0.5786 0.0
H361 H 0.79439 0.14106 0.67936 0.0
C362 C 0.78608 0.09507 0.69495 0.0
C363 C 0.77561 0.06849 0.6869 0.0
C364 C 0.78374 0.14167 0.58676 0.0
C365 C 0.77887 0.11823 0.64202 0.0
C366 C 0.7798 0.16773 0.56518 0.0
C367 C 0.76812 0.19716 0.57533 0.0
C368 C 0.77697 0.14535 0.61872 0.0
C369 C 0.76199 0.19985 0.60753 0.0
C370 C 0.78735 0.12018 0.67264 0.0
C371 C 0.76803 0.06719 0.65587 0.0
N372 N 0.76659 0.17427 0.62813 0.0
N373 N 0.76989 0.09172 0.63447 0.0
H374 H 0.9527 0.94919 0.96246 0.0
H375 H 0.84919 0.05598 0.83521 0.0
H376 H 0.96853 0.04154 0.93007 0.0
H377 H 0.85707 0.95628 0.84662 0.0
H378 H 0.88912 0.05292 0.87354 0.0
H379 H 0.91281 0.95332 0.92427 0.0
C380 C 0.94761 0.97041 0.94738 0.0
C381 C 0.96386 -0.00493 0.94924 0.0
C382 C 0.88217 0.03174 0.86752 0.0
C383 C 0.91847 -9e-05 0.90556 0.0
C384 C 0.85946 0.03348 0.84573 0.0
C385 C 0.84998 0.00633 0.83791 0.0
C386 C 0.89503 0.00269 0.88175 0.0
C387 C 0.86386 0.97773 0.85207 0.0
C388 C 0.92501 0.97269 0.9255 0.0
C389 C 0.95649 0.02202 0.9292 0.0
N390 N 0.88559 0.97665 0.87351 0.0
N391 N 0.93422 0.02377 0.90813 0.0
H392 H 0.0601 -0.00315 0.07428 0.0
H393 H 0.12383 0.95015 0.24275 0.0
H394 H 0.03137 0.9203 0.13278 0.0
H395 H 0.12393 0.04033 0.19349 0.0
H396 H 0.08976 0.93792 0.20422 0.0
H397 H 0.08586 0.01095 0.11771 0.0
C398 C 0.05953 0.9827 0.09623 0.0
C399 C 0.0436 0.95729 0.09991 0.0
C400 C 0.09675 0.96058 0.2022 0.0
C401 C 0.07289 0.97368 0.15014 0.0
C402 C 0.11604 0.96763 0.2242 0.0
C403 C 0.12689 -0.00386 0.22093 0.0
C404 C 0.08878 0.98207 0.17665 0.0
C405 C 0.11617 0.01803 0.19668 0.0
C406 C 0.07396 -0.00894 0.12119 0.0
C407 C 0.04356 0.93996 0.12899 0.0
N408 N 0.09809 0.01033 0.17509 0.0
N409 N 0.0581 0.94846 0.15312 0.0
H410 H 0.94273 0.43775 0.42891 0.0
H411 H 0.05351 0.3588 0.29557 0.0
H412 H 0.03608 0.45833 0.41021 0.0
H413 H 0.9531 0.37676 0.29331 0.0
H414 H 0.04995 0.39195 0.3391 0.0
H415 H 0.94887 0.40908 0.38252 0.0
C416 C 0.96475 0.43585 0.41537 0.0
C417 C 0.98894 0.45055 0.42346 0.0
C418 C 0.0288 0.389 0.32866 0.0
C419 C -0.00415 0.41807 0.36996 0.0
C420 C 0.0308 0.37032 0.30377 0.0
C421 C 0.00353 0.36499 0.2911 0.0
C422 C -0.00069 0.40178 0.3411 0.0
C423 C 0.97467 0.38025 0.30253 0.0
C424 C 0.96805 0.41981 0.38862 0.0
C425 C 0.01683 0.4474 0.40477 0.0
N426 N 0.97328 0.39757 0.32728 0.0
N427 N 0.01957 0.43142 0.3788 0.0
H428 H 0.65114 0.203 0.52781 0.0
H429 H 0.51231 0.21289 0.61429 0.0
H430 H 0.6473 0.3003 0.53954 0.0
H431 H 0.53789 0.29574 0.64489 0.0
H432 H 0.54998 0.21511 0.57006 0.0
H433 H 0.60028 0.20502 0.55493 0.0
C434 C 0.63929 0.22498 0.53552 0.0
C435 C 0.65373 0.2514 0.53176 0.0
C436 C 0.54754 0.23275 0.58644 0.0
C437 C 0.59483 0.2542 0.56243 0.0
C438 C 0.52567 0.23174 0.61154 0.0
C439 C 0.52258 0.25368 0.63382 0.0
C440 C 0.5668 0.25557 0.58398 0.0
C441 C 0.53987 0.27802 0.62861 0.0
C442 C 0.60991 0.22625 0.55081 0.0
C443 C 0.63722 0.27924 0.54222 0.0
N444 N 0.56166 0.27799 0.60451 0.0
N445 N 0.60887 0.27978 0.55749 0.0
H446 H 0.74813 0.94874 0.86888 0.0
H447 H 0.71848 0.77754 0.88555 0.0
H448 H 0.69808 0.91542 0.79917 0.0
H449 H 0.70211 0.83067 0.96637 0.0
H450 H 0.71908 0.82585 0.85209 0.0
H451 H 0.73947 0.90357 0.90465 0.0
C452 C 0.73505 0.93211 0.86127 0.0
C453 C 0.72367 0.93579 0.83114 0.0
C454 C 0.71532 0.82683 0.87718 0.0
C455 C 0.71459 0.88407 0.87132 0.0
C456 C 0.71506 0.79937 0.89624 0.0
C457 C 0.71082 0.80017 0.92878 0.0
C458 C 0.71204 0.85509 0.89086 0.0
C459 C 0.70627 0.82905 0.94145 0.0
C460 C 0.7301 0.9065 0.88164 0.0
C461 C 0.70698 0.91357 0.82232 0.0
N462 N 0.70751 0.85543 0.92248 0.0
N463 N 0.7034 0.88832 0.84214 0.0
H464 H 0.1561 0.29715 0.04107 0.0
H465 H 0.02375 0.21967 0.13888 0.0
H466 H 0.14618 0.20093 0.04023 0.0
H467 H 0.04438 0.31013 0.15297 0.0
H468 H 0.05996 0.21731 0.09319 0.0
H469 H 0.10747 0.30631 0.07281 0.0
C470 C 0.14359 0.27797 0.0473 0.0
C471 C 0.15553 0.24805 0.03842 0.0
C472 C 0.05623 0.23787 0.10601 0.0
C473 C 0.09981 0.25852 0.07472 0.0
C474 C 0.0355 0.2393 0.1321 0.0
C475 C 0.03158 0.26487 0.15021 0.0
C476 C 0.07323 0.26212 0.09803 0.0
C477 C 0.04701 0.2898 0.13994 0.0
C478 C 0.11578 0.28328 0.0654 0.0
C479 C 0.13806 0.22426 0.04688 0.0
N480 N 0.06759 0.28758 0.11476 0.0
N481 N 0.11121 0.22995 0.06485 0.0
H482 H 0.69904 0.37917 0.27221 0.0
H483 H 0.70677 0.32165 0.45451 0.0
H484 H 0.69682 0.44135 0.34471 0.0
H485 H 0.74334 0.26358 0.38041 0.0
H486 H 0.69155 0.3648 0.41504 0.0
H487 H 0.70247 0.33537 0.31246 0.0
C488 C 0.69841 0.38367 0.29662 0.0
C489 C 0.69782 0.41384 0.30519 0.0
C490 C 0.70277 0.34253 0.40749 0.0
C491 C 0.70203 0.36406 0.35114 0.0
C492 C 0.71155 0.318 0.42996 0.0
C493 C 0.7267 0.28919 0.42068 0.0
C494 C 0.70874 0.33801 0.37555 0.0
C495 C 0.73196 0.28553 0.38856 0.0
C496 C 0.70071 0.35869 0.31953 0.0
C497 C 0.69747 0.41838 0.33714 0.0
N498 N 0.723 0.30965 0.36715 0.0
N499 N 0.69976 0.39375 0.35895 0.0
H500 H 0.59464 -0.00525 0.52897 0.0
H501 H 0.6592 0.93278 0.69592 0.0
H502 H 0.57629 0.90827 0.5767 0.0
H503 H 0.65515 0.02732 0.65647 0.0
H504 H 0.63096 0.92183 0.65201 0.0
H505 H 0.62123 0.0046 0.57397 0.0
C506 C 0.59662 0.97756 0.54881 0.0
C507 C 0.58321 0.95065 0.5492 0.0
C508 C 0.63596 0.94503 0.65313 0.0
C509 C 0.61324 0.96209 0.60109 0.0
C510 C 0.65193 0.95134 0.67818 0.0
C511 C 0.65951 0.98096 0.67958 0.0
C512 C 0.62795 0.96846 0.62923 0.0
C513 C 0.64967 0.0042 0.65617 0.0
C514 C 0.61153 0.9834 0.57465 0.0
C515 C 0.5864 0.92926 0.57553 0.0
N516 N 0.63463 -0.00264 0.6317 0.0
N517 N 0.60106 0.9355 0.6006 0.0
H518 H 0.98919 0.87165 0.98552 0.0
H519 H 0.08502 0.80483 0.83817 0.0
H520 H 0.08206 0.89341 0.96605 0.0
H521 H 0.98921 0.85103 0.83758 0.0
H522 H 0.08918 0.82391 0.8897 0.0
H523 H -0.00548 0.84518 0.93764 0.0
C524 C 0.01109 0.8701 0.97177 0.0
C525 C 0.0348 0.88572 0.97928 0.0
C526 C 0.06749 0.83002 0.87791 0.0
C527 C 0.04079 0.8556 0.92457 0.0
C528 C 0.06517 0.81953 0.84854 0.0
C529 C 0.03669 0.82635 0.8338 0.0
C530 C 0.0409 0.8465 0.89257 0.0
C531 C 0.01157 0.84522 0.84817 0.0
C532 C 0.01392 0.85526 0.94431 0.0
C533 C 0.06289 0.88228 0.96076 0.0
N534 N 0.01408 0.85415 0.87707 0.0
N535 N 0.06495 0.86801 0.93374 0.0
H536 H 0.12454 0.0101 0.93939 0.0
H537 H 0.22449 0.09676 0.03333 0.0
H538 H 0.14133 0.98648 0.03712 0.0
H539 H 0.22156 0.1079 0.93275 0.0
H540 H 0.2041 0.04824 0.03362 0.0
H541 H 0.16968 0.03666 0.93413 0.0
C542 C 0.13825 0.00994 0.95956 0.0
C543 C 0.12891 -0.00304 0.98888 0.0
C544 C 0.2085 0.06091 0.01139 0.0
C545 C 0.17992 0.02777 0.98336 0.0
C546 C 0.21997 0.08866 0.01127 0.0
C547 C 0.22374 0.10658 0.98304 0.0
C548 C 0.20025 0.05152 0.98312 0.0
C549 C 0.21826 0.09494 0.95505 0.0
C550 C 0.16402 0.02507 0.9566 0.0
C551 C 0.14757 -0.00319 0.01421 0.0
N552 N 0.20612 0.0684 0.95582 0.0
N553 N 0.17182 0.01277 0.01107 0.0
H554 H 0.65393 0.5427 0.19663 0.0
H555 H 0.50544 0.65302 0.26315 0.0
H556 H 0.62771 0.54078 0.29536 0.0
H557 H 0.57265 0.68601 0.19563 0.0
H558 H 0.53714 0.60113 0.26492 0.0
H559 H 0.60989 0.58435 0.18661 0.0
C560 C 0.63846 0.55051 0.21612 0.0
C561 C 0.64474 0.53894 0.247 0.0
C562 C 0.54447 0.61967 0.24931 0.0
C563 C 0.59438 0.58576 0.23548 0.0
C564 C 0.52655 0.64915 0.24822 0.0
C565 C 0.53693 0.67371 0.22956 0.0
C566 C 0.57236 0.61478 0.231 0.0
C567 C 0.56425 0.66762 0.2106 0.0
C568 C 0.61347 0.57422 0.21032 0.0
C569 C 0.62381 0.54955 0.27132 0.0
N570 N 0.58123 0.63861 0.21188 0.0
N571 N 0.59956 0.57274 0.26508 0.0
H572 H 0.28317 0.87246 0.49603 0.0
H573 H 0.43875 0.91013 0.56069 0.0
H574 H 0.3294 0.82407 0.57636 0.0
H575 H 0.40446 0.94697 0.47066 0.0
H576 H 0.39077 0.88895 0.57327 0.0
H577 H 0.31916 0.91018 0.49323 0.0
C578 C 0.30034 0.87034 0.51357 0.0
C579 C 0.30379 0.84506 0.53622 0.0
C580 C 0.39352 0.90195 0.55087 0.0
C581 C 0.34481 0.88759 0.53308 0.0
C582 C 0.42092 0.91398 0.54368 0.0
C583 C 0.42566 0.92973 0.5144 0.0
C584 C 0.37087 0.90542 0.52847 0.0
C585 C 0.40172 0.93455 0.49336 0.0
C586 C 0.32095 0.89168 0.51186 0.0
C587 C 0.32635 0.84311 0.55833 0.0
N588 N 0.37542 0.922 0.50062 0.0
N589 N 0.34624 0.8639 0.55601 0.0
H590 H 0.06754 0.67504 0.83519 0.0
H591 H 0.14244 0.52216 0.75402 0.0
H592 H 0.04429 0.66199 0.74181 0.0
H593 H 0.19636 0.57615 0.80096 0.0
H594 H 0.09607 0.56232 0.76151 0.0
H595 H 0.10467 0.62633 0.83533 0.0
C596 C 0.06973 0.6616 0.81501 0.0
C597 C 0.05307 0.67257 0.78833 0.0
C598 C 0.11808 0.56495 0.77041 0.0
C599 C 0.09476 0.61694 0.78869 0.0
C600 C 0.1444 0.54226 0.76607 0.0
C601 C 0.17321 0.54635 0.77628 0.0
C602 C 0.1207 0.59098 0.78609 0.0
C603 C 0.17461 0.57243 0.79231 0.0
C604 C 0.09084 0.63392 0.81515 0.0
C605 C 0.05668 0.65424 0.76283 0.0
N606 N 0.14867 0.59377 0.79681 0.0
N607 N 0.07735 0.62727 0.76353 0.0
H608 H 0.77145 0.35189 0.57771 0.0
H609 H 0.83199 0.49973 0.49012 0.0
H610 H 0.75526 0.38436 0.48142 0.0
H611 H 0.87181 0.44741 0.57194 0.0
H612 H 0.78941 0.46932 0.4955 0.0
H613 H 0.79323 0.39861 0.58402 0.0
C614 C 0.77189 0.36921 0.55809 0.0
C615 C 0.76231 0.3641 0.5288 0.0
C616 C 0.80708 0.46505 0.51268 0.0
C617 C 0.78712 0.41727 0.53582 0.0
C618 C 0.83127 0.48241 0.5097 0.0
C619 C 0.85558 0.47551 0.53032 0.0
C620 C 0.80732 0.44092 0.53653 0.0
C621 C 0.85366 0.453 0.55531 0.0
C622 C 0.78431 0.3958 0.56171 0.0
C623 C 0.76296 0.38731 0.50423 0.0
N624 N 0.83011 0.43616 0.5575 0.0
N625 N 0.77571 0.41277 0.50814 0.0
H626 H 0.32129 0.96272 0.23197 0.0
H627 H 0.37055 0.78211 0.28266 0.0
H628 H 0.26059 0.90207 0.27713 0.0
H629 H 0.42957 0.83352 0.22152 0.0
H630 H 0.3351 0.83014 0.29109 0.0
H631 H 0.36557 0.91949 0.23671 0.0
C632 C 0.31743 0.94041 0.24307 0.0
C633 C 0.28738 0.93558 0.25371 0.0
C634 C 0.3559 0.83112 0.276 0.0
C635 C 0.33729 0.88678 0.25956 0.0
C636 C 0.37611 0.8037 0.27125 0.0
C637 C 0.40247 0.804 0.2509 0.0
C638 C 0.36179 0.85898 0.2598 0.0
C639 C 0.40914 0.83252 0.23712 0.0
C640 C 0.34256 0.91589 0.24579 0.0
C641 C 0.28336 0.90653 0.26811 0.0
N642 N 0.3885 0.85901 0.24135 0.0
N643 N 0.30798 0.88325 0.2705 0.0
H644 H 0.31781 0.43716 0.71594 0.0
H645 H 0.3714 0.25392 0.74968 0.0
H646 H 0.25584 0.37039 0.73797 0.0
H647 H 0.43267 0.31285 0.70236 0.0
H648 H 0.33121 0.29927 0.7553 0.0
H649 H 0.36265 0.39439 0.71998 0.0
C650 C 0.31375 0.41359 0.72185 0.0
C651 C 0.28329 0.40703 0.72615 0.0
C652 C 0.35347 0.3024 0.74377 0.0
C653 C 0.33376 0.35868 0.73116 0.0
C654 C 0.37638 0.27651 0.74054 0.0
C655 C 0.40511 0.27973 0.72517 0.0
C656 C 0.35926 0.33175 0.7314 0.0
C657 C 0.41062 0.30953 0.71419 0.0
C658 C 0.33918 0.38931 0.72409 0.0
C659 C 0.279 0.37631 0.73395 0.0
N660 N 0.38771 0.33452 0.71727 0.0
N661 N 0.30392 0.35332 0.73613 0.0
H662 H 0.13833 0.73937 0.5341 0.0
H663 H 0.06907 0.8026 0.69614 0.0
H664 H 0.18029 0.80208 0.58317 0.0
H665 H 0.03376 0.73338 0.64983 0.0
H666 H 0.10342 0.81115 0.65 0.0
H667 H 0.09321 0.7461 0.5708 0.0
C668 C 0.1379 0.75485 0.55243 0.0
C669 C 0.16338 0.76963 0.55608 0.0
C670 C 0.08788 0.79435 0.64986 0.0
C671 C 0.11193 0.77718 0.59835 0.0
C672 C 0.0683 0.78942 0.67618 0.0
C673 C 0.04901 0.76677 0.67706 0.0
C674 C 0.08807 0.77652 0.62434 0.0
C675 C 0.0487 0.75064 0.65043 0.0
C676 C 0.11209 0.7587 0.57337 0.0
C677 C 0.16127 0.78994 0.57978 0.0
N678 N 0.06819 0.75562 0.62528 0.0
N679 N 0.13616 0.79271 0.60043 0.0
H680 H 0.27168 0.94822 0.3712 0.0
H681 H 0.17666 0.81295 0.43616 0.0
H682 H 0.17895 0.94376 0.34404 0.0
H683 H 0.27245 0.81388 0.45526 0.0
H684 H 0.17427 0.86441 0.40808 0.0
H685 H 0.26912 0.90329 0.40843 0.0
C686 C 0.25055 0.93809 0.37335 0.0
C687 C 0.22558 0.94968 0.35417 0.0
C688 C 0.19572 0.8535 0.41868 0.0
C689 C 0.22271 0.89777 0.39666 0.0
C690 C 0.19709 0.82414 0.43467 0.0
C691 C 0.22479 0.80921 0.44801 0.0
C692 C 0.22228 0.86796 0.41597 0.0
C693 C 0.25058 0.82469 0.44547 0.0
C694 C 0.24918 0.9123 0.39459 0.0
C695 C 0.19879 0.93561 0.35824 0.0
N696 N 0.24874 0.85315 0.42962 0.0
N697 N 0.1982 0.91017 0.37879 0.0
H698 H -0.00163 0.62809 0.69141 0.0
H699 H 0.89551 0.58626 0.56366 0.0
H700 H 0.90503 0.67988 0.68546 0.0
H701 H 0.99011 0.60325 0.54458 0.0
H702 H 0.89438 0.60971 0.61376 0.0
H703 H -0.00875 0.60355 0.64426 0.0
C704 C 0.97608 0.63368 0.68064 0.0
C705 C 0.95238 0.6563 0.69194 0.0
C706 C 0.91509 0.60852 0.5982 0.0
C707 C 0.94428 0.62854 0.63822 0.0
C708 C 0.91574 0.5954 0.56964 0.0
C709 C 0.94301 0.59262 0.54996 0.0
C710 C 0.94213 0.61795 0.60716 0.0
C711 C 0.96858 0.60478 0.55889 0.0
C712 C 0.97218 0.61992 0.65366 0.0
C713 C 0.9239 0.66266 0.67718 0.0
N714 N 0.9677 0.61636 0.5871 0.0
N715 N 0.92064 0.64899 0.65069 0.0
H716 H 0.32197 0.67069 0.44114 0.0
H717 H 0.45802 0.74642 0.35045 0.0
H718 H 0.36044 0.74648 0.47225 0.0
H719 H 0.41376 0.67681 0.31476 0.0
H720 H 0.43204 0.7369 0.40146 0.0
H721 H 0.36513 0.66259 0.40213 0.0
C722 C 0.33977 0.68528 0.44021 0.0
C723 C 0.33702 0.70998 0.45932 0.0
C724 C 0.42833 0.7234 0.38259 0.0
C725 C 0.38628 0.70093 0.41458 0.0
C726 C 0.44306 0.72891 0.35339 0.0
C727 C 0.43737 0.71296 0.3281 0.0
C728 C 0.40755 0.70201 0.38644 0.0
C729 C 0.41834 0.69005 0.33348 0.0
C730 C 0.36441 0.68063 0.41787 0.0
C731 C 0.36115 0.72766 0.45747 0.0
N732 N 0.40367 0.68562 0.36198 0.0
N733 N 0.38447 0.72317 0.43502 0.0
H734 H 0.22758 0.04967 0.15901 0.0
H735 H 0.28027 0.15133 0.03593 0.0
H736 H 0.28684 0.09252 0.21198 0.0
H737 H 0.25649 0.21472 0.10803 0.0
H738 H 0.27754 0.10764 0.07581 0.0
H739 H 0.2341 0.08816 0.11459 0.0
C740 C 0.24209 0.06703 0.16117 0.0
C741 C 0.25693 0.06785 0.18901 0.0
C742 C 0.27289 0.13119 0.08269 0.0
C743 C 0.26386 0.11192 0.13895 0.0
C744 C 0.27426 0.15604 0.06005 0.0
C745 C 0.2675 0.18666 0.06858 0.0
C746 C 0.26597 0.13714 0.11414 0.0
C747 C 0.26135 0.19148 0.10038 0.0
C748 C 0.24591 0.08876 0.13587 0.0
C749 C 0.27534 0.0909 0.19076 0.0
N750 N 0.26092 0.16696 0.12207 0.0
N751 N 0.27783 0.1124 0.16626 0.0
H752 H 0.81074 0.68303 0.9422 0.0
H753 H 0.95575 0.75858 0.86876 0.0
H754 H 0.83381 0.7689 0.96816 0.0
H755 H 0.91877 0.68814 0.82595 0.0
H756 H 0.91891 0.75395 0.91322 0.0
H757 H 0.85783 0.67651 0.9077 0.0
C758 C 0.82593 0.70029 0.94105 0.0
C759 C 0.81811 0.72683 0.95773 0.0
C760 C 0.91903 0.7393 0.89424 0.0
C761 C 0.87186 0.71941 0.91835 0.0
C762 C 0.94004 0.74192 0.86877 0.0
C763 C 0.93988 0.72416 0.84324 0.0
C764 C 0.89764 0.71882 0.89425 0.0
C765 C 0.9194 0.70256 0.84494 0.0
C766 C 0.85273 0.69655 0.92127 0.0
C767 C 0.83872 0.74831 0.95542 0.0
N768 N 0.89876 0.70074 0.86992 0.0
N769 N 0.86455 0.74425 0.93584 0.0
H770 H 0.21746 0.54088 0.64422 0.0
H771 H 0.29999 0.69043 0.60772 0.0
H772 H 0.29067 0.56043 0.6986 0.0
H773 H 0.22916 0.66908 0.55185 0.0
H774 H 0.29891 0.64152 0.63966 0.0
H775 H 0.22396 0.58573 0.60812 0.0
C776 C 0.23513 0.55442 0.64847 0.0
C777 C 0.25342 0.54693 0.67469 0.0
C778 C 0.2838 0.64731 0.62021 0.0
C779 C 0.26077 0.59865 0.63338 0.0
C780 C 0.28435 0.67525 0.60203 0.0
C781 C 0.26487 0.6835 0.57688 0.0
C782 C 0.26335 0.62761 0.61336 0.0
C783 C 0.24503 0.66315 0.57054 0.0
C784 C 0.23878 0.58011 0.6278 0.0
C785 C 0.27602 0.56531 0.67877 0.0
N786 N 0.24465 0.63617 0.58875 0.0
N787 N 0.27887 0.59047 0.65848 0.0
H788 H 0.37126 0.95917 0.31845 0.0
H789 H 0.48986 0.04784 0.3943 0.0
H790 H 0.35594 0.05845 0.32324 0.0
H791 H 0.4871 0.95011 0.41416 0.0
H792 H 0.44551 0.05198 0.36099 0.0
H793 H 0.41942 0.95521 0.346 0.0
C794 C 0.37827 0.98012 0.32505 0.0
C795 C 0.35972 0.00914 0.31891 0.0
C796 C 0.45468 0.02966 0.37266 0.0
C797 C 0.41433 0.00485 0.35021 0.0
C798 C 0.47988 0.02731 0.39159 0.0
C799 C 0.49182 -0.00132 0.40701 0.0
C800 C 0.44173 0.00308 0.36901 0.0
C801 C 0.4783 0.97268 0.40279 0.0
C802 C 0.40558 0.97786 0.34084 0.0
C803 C 0.36965 0.03564 0.32782 0.0
N804 N 0.45393 0.97549 0.38411 0.0
N805 N 0.39633 0.03287 0.34315 0.0
H806 H 0.77038 0.87597 0.98248 0.0
H807 H 0.88954 0.91825 0.09351 0.0
H808 H 0.76973 0.84741 0.08124 0.0
H809 H 0.87199 0.96736 0.00315 0.0
H810 H 0.84144 0.89699 0.09176 0.0
H811 H 0.80281 0.91448 0.99101 0.0
C812 C 0.77662 0.87826 0.00604 0.0
C813 C 0.76795 0.85826 0.03114 0.0
C814 C 0.84771 0.91291 0.07257 0.0
C815 C 0.80523 0.90173 0.04103 0.0
C816 C 0.87517 0.925 0.07359 0.0
C817 C 0.88478 0.94416 0.04827 0.0
C818 C 0.83022 0.91958 0.04573 0.0
C819 C 0.86538 0.95243 0.02305 0.0
C820 C 0.79506 0.90024 0.01093 0.0
C821 C 0.77633 0.86222 0.06123 0.0
N822 N 0.83926 0.93956 0.02211 0.0
N823 N 0.79504 0.88314 0.06528 0.0
H824 H 0.74608 0.13219 0.41718 0.0
H825 H 0.67193 0.98748 0.49201 0.0
H826 H 0.73794 0.10537 0.51612 0.0
H827 H 0.64931 0.03697 0.40285 0.0
H828 H 0.71448 0.01695 0.49467 0.0
H829 H 0.72919 0.08396 0.40649 0.0
C830 C 0.74136 0.1158 0.43661 0.0
C831 C 0.74248 0.12292 0.46758 0.0
C832 C 0.70073 0.02069 0.47415 0.0
C833 C 0.72347 0.06805 0.45556 0.0
C834 C 0.67656 0.00388 0.47256 0.0
C835 C 0.65681 0.01051 0.44751 0.0
C836 C 0.70505 0.04398 0.45042 0.0
C837 C 0.66376 0.03174 0.42283 0.0
C838 C 0.73181 0.08834 0.43049 0.0
C839 C 0.73664 0.10087 0.49193 0.0
N840 N 0.6871 0.04817 0.42512 0.0
N841 N 0.72685 0.07452 0.48542 0.0
H842 H 0.7861 0.42222 0.26957 0.0
H843 H 0.94218 0.32771 0.19645 0.0
H844 H 0.81124 0.43196 0.17073 0.0
H845 H 0.88467 0.28833 0.26975 0.0
H846 H 0.90361 0.37567 0.19386 0.0
H847 H 0.8328 0.38304 0.27697 0.0
C848 C 0.80183 0.41659 0.24954 0.0
C849 C 0.79476 0.42984 0.21939 0.0
C850 C 0.89972 0.35657 0.21065 0.0
C851 C 0.84789 0.38556 0.22781 0.0
C852 C 0.92154 0.32935 0.21214 0.0
C853 C 0.91612 0.30414 0.23303 0.0
C854 C 0.8729 0.3586 0.23074 0.0
C855 C 0.8893 0.30723 0.25304 0.0
C856 C 0.82828 0.3942 0.2538 0.0
C857 C 0.81584 0.42187 0.19425 0.0
N858 N 0.86858 0.33409 0.25143 0.0
N859 N 0.84152 0.39997 0.19898 0.0
H860 H 0.10192 0.528 0.47207 0.0
H861 H 0.18541 0.67211 0.41106 0.0
H862 H 0.05998 0.60549 0.41123 0.0
H863 H 0.20659 0.61436 0.4962 0.0
H864 H 0.14964 0.63784 0.39894 0.0
H865 H 0.15022 0.54985 0.46868 0.0
C866 C 0.10312 0.5493 0.45749 0.0
C867 C 0.0769 0.56534 0.44231 0.0
C868 C 0.16264 0.63237 0.41992 0.0
C869 C 0.13184 0.59027 0.43832 0.0
C870 C 0.1831 0.65178 0.42678 0.0
C871 C 0.19845 0.6462 0.4549 0.0
C872 C 0.15788 0.60719 0.44124 0.0
C873 C 0.1948 0.61959 0.47447 0.0
C874 C 0.13062 0.56174 0.45562 0.0
C875 C 0.07964 0.5927 0.42359 0.0
N876 N 0.17457 0.6012 0.46744 0.0
N877 N 0.10659 0.60454 0.42238 0.0
H878 H 0.71796 0.109 0.76661 0.0
H879 H 0.53526 0.14927 0.75312 0.0
H880 H 0.66207 0.03613 0.77363 0.0
H881 H 0.59957 0.20813 0.71193 0.0
H882 H 0.5796 0.10722 0.76268 0.0
H883 H 0.67303 0.14613 0.74968 0.0
C884 C 0.69608 0.10086 0.76469 0.0
C885 C 0.69352 0.06959 0.77173 0.0
C886 C 0.58383 0.12924 0.75117 0.0
C887 C 0.64191 0.11201 0.75226 0.0
C888 C 0.55864 0.15315 0.74573 0.0
C889 C 0.56397 0.18223 0.73216 0.0
C890 C 0.61429 0.13482 0.74325 0.0
C891 C 0.59454 0.18617 0.72286 0.0
C892 C 0.6705 0.12203 0.75476 0.0
C893 C 0.66477 0.06018 0.76853 0.0
N894 N 0.61858 0.16286 0.72894 0.0
N895 N 0.63981 0.08146 0.75926 0.0
H896 H 0.72834 0.53805 0.12585 0.0
H897 H 0.73563 0.71644 0.11691 0.0
H898 H 0.76137 0.57917 0.202 0.0
H899 H 0.7563 0.66578 0.0346 0.0
H900 H 0.73914 0.66706 0.14922 0.0
H901 H 0.73298 0.58537 0.09196 0.0
C902 C 0.73692 0.55687 0.13531 0.0
C903 C 0.74451 0.55472 0.16674 0.0
C904 C 0.74301 0.66682 0.12408 0.0
C905 C 0.74911 0.60888 0.12847 0.0
C906 C 0.74088 0.69491 0.10567 0.0
C907 C 0.74525 0.69509 0.07307 0.0
C908 C 0.74894 0.63881 0.10968 0.0
C909 C 0.75221 0.66659 0.05964 0.0
C910 C 0.73958 0.58376 0.11599 0.0
C911 C 0.75546 0.57978 0.17785 0.0
N912 N 0.75344 0.63952 0.07799 0.0
N913 N 0.75697 0.60604 0.15886 0.0
H914 H 0.90269 0.50175 0.44169 0.0
H915 H 0.78078 0.57319 0.31527 0.0
H916 H 0.90476 0.59468 0.39977 0.0
H917 H 0.82425 0.47703 0.32437 0.0
H918 H 0.81743 0.58487 0.35224 0.0
H919 H 0.86332 0.49613 0.40645 0.0
C920 C 0.89455 0.52124 0.42534 0.0
C921 C 0.90722 0.54871 0.42357 0.0
C922 C 0.81886 0.56133 0.3459 0.0
C923 C 0.86207 0.54213 0.3827 0.0
C924 C 0.79804 0.55463 0.325 0.0
C925 C 0.79957 0.52409 0.31694 0.0
C926 C 0.84062 0.53711 0.35917 0.0
C927 C 0.82229 0.50086 0.32999 0.0
C928 C 0.87219 0.51786 0.40502 0.0
C929 C 0.89564 0.5731 0.40176 0.0
N930 N 0.8417 0.5078 0.35067 0.0
N931 N 0.87363 0.56922 0.38193 0.0
H932 H 0.13185 0.42777 0.66675 0.0
H933 H 0.02765 0.5383 0.54146 0.0
H934 H 0.12096 0.52766 0.66064 0.0
H935 H 0.02291 0.441 0.56155 0.0
H936 H 0.06622 0.53401 0.58118 0.0
H937 H 0.09517 0.43149 0.6253 0.0
C938 C 0.12151 0.45049 0.6568 0.0
C939 C 0.12926 0.47746 0.66711 0.0
C940 C 0.05685 0.51356 0.5768 0.0
C941 C 0.08777 0.48191 0.61944 0.0
C942 C 0.03501 0.51595 0.554 0.0
C943 C 0.02199 0.48997 0.54841 0.0
C944 C 0.06585 0.48496 0.59396 0.0
C945 C 0.03232 0.46159 0.56528 0.0
C946 C 0.10068 0.45261 0.6331 0.0
C947 C 0.11541 0.50632 0.6534 0.0
N948 N 0.05359 0.45985 0.58739 0.0
N949 N 0.09541 0.5078 0.63012 0.0
H950 H 0.49651 0.73428 0.12424 0.0
H951 H 0.63828 0.81615 0.05545 0.0
H952 H 0.52219 0.81446 0.16063 0.0
H953 H 0.61897 0.72948 0.02764 0.0
H954 H 0.58766 0.82373 0.08426 0.0
H955 H 0.53211 0.74089 0.07886 0.0
C956 C 0.50911 0.75368 0.12241 0.0
C957 C 0.50707 0.7733 0.14672 0.0
C958 C 0.59434 0.80329 0.07145 0.0
C959 C 0.54809 0.78073 0.09506 0.0
C960 C 0.62325 0.79892 0.05503 0.0
C961 C 0.63318 0.77178 0.03974 0.0
C962 C 0.57535 0.78032 0.07261 0.0
C963 C 0.61257 0.75045 0.03965 0.0
C964 C 0.52953 0.75737 0.09651 0.0
C965 C 0.5236 0.7983 0.1428 0.0
N966 N 0.58481 0.75498 0.05622 0.0
N967 N 0.5439 0.80095 0.11775 0.0
H968 H 0.59639 0.46379 0.18657 0.0
H969 H 0.5558 0.43808 0.01284 0.0
H970 H 0.66677 0.43592 0.11468 0.0
H971 H 0.48683 0.45954 0.08778 0.0
H972 H 0.59704 0.43437 0.04997 0.0
H973 H 0.55602 0.45953 0.15112 0.0
C974 C 0.60332 0.4565 0.16336 0.0
C975 C 0.63489 0.45026 0.15346 0.0
C976 C 0.57287 0.43962 0.05833 0.0
C977 C 0.58885 0.44559 0.11257 0.0
C978 C 0.54939 0.44177 0.03715 0.0
C979 C 0.51797 0.44948 0.04724 0.0
C980 C 0.56475 0.44517 0.08978 0.0
C981 C 0.5108 0.45369 0.079 0.0
C982 C 0.58028 0.45409 0.14309 0.0
C983 C 0.64263 0.44094 0.12317 0.0
N984 N 0.53399 0.45172 0.09907 0.0
N985 N 0.61975 0.4391 0.10368 0.0
H986 H 0.3603 0.46437 0.93376 0.0
H987 H 0.25856 0.36155 0.9461 0.0
H988 H 0.34935 0.46536 0.03413 0.0
H989 H 0.27827 0.35211 0.04385 0.0
H990 H 0.27693 0.41131 0.94037 0.0
H991 H 0.3173 0.4357 0.93467 0.0
C992 C 0.3481 0.45927 0.95594 0.0
C993 C 0.35874 0.46637 0.984 0.0
C994 C 0.27747 0.39845 0.96307 0.0
C995 C 0.30928 0.43359 0.9855 0.0
C996 C 0.26673 0.37012 0.96637 0.0
C997 C 0.26797 0.35244 0.99525 0.0
C998 C 0.29015 0.40862 0.98876 0.0
C999 C 0.2777 0.36482 0.02102 0.0
C1000 C 0.32329 0.44295 0.95652 0.0
C1001 C 0.34211 0.45967 0.01205 0.0
N1002 N 0.28897 0.39195 0.01703 0.0
N1003 N 0.31859 0.443 0.01217 0.0
H1004 H 0.10791 0.23035 0.23595 0.0
H1005 H 0.15988 0.05271 0.29658 0.0
H1006 H 0.04118 0.17462 0.27815 0.0
H1007 H 0.22172 0.12028 0.28043 0.0
H1008 H 0.11545 0.09426 0.28501 0.0
H1009 H 0.14964 0.18675 0.24573 0.0
C1010 C 0.10207 0.20882 0.24722 0.0
C1011 C 0.07123 0.20607 0.2566 0.0
C1012 C 0.13879 0.09985 0.28419 0.0
C1013 C 0.11886 0.15606 0.26801 0.0
C1014 C 0.16401 0.07627 0.29079 0.0
C1015 C 0.19435 0.08323 0.28938 0.0
C1016 C 0.14429 0.13025 0.27592 0.0
C1017 C 0.19867 0.11396 0.28177 0.0
C1018 C 0.1259 0.18395 0.2529 0.0
C1019 C 0.06483 0.17758 0.27079 0.0
N1020 N 0.17395 0.13627 0.27519 0.0
N1021 N 0.08857 0.15354 0.27622 0.0
H1022 H 0.20243 0.30485 0.95524 0.0
H1023 H 0.18949 0.38159 0.78083 0.0
H1024 H 0.22961 0.24984 0.87673 0.0
H1025 H 0.22555 0.42563 0.85291 0.0
H1026 H 0.18813 0.33511 0.81747 0.0
H1027 H 0.19505 0.35172 0.91912 0.0
C1028 C 0.20686 0.30265 0.93039 0.0
C1029 C 0.21757 0.27359 0.91895 0.0
C1030 C 0.19584 0.35521 0.82526 0.0
C1031 C 0.20772 0.32681 0.87763 0.0
C1032 C 0.19634 0.38169 0.8046 0.0
C1033 C 0.20747 0.40732 0.81412 0.0
C1034 C 0.20577 0.35491 0.85572 0.0
C1035 C 0.21674 0.40626 0.84485 0.0
C1036 C 0.20243 0.32933 0.90987 0.0
C1037 C 0.2218 0.27191 0.88647 0.0
N1038 N 0.21554 0.38049 0.86467 0.0
N1039 N 0.21687 0.29824 0.86683 0.0
H1040 H 0.3487 0.25603 0.94994 0.0
H1041 H 0.4327 0.16401 0.80892 0.0
H1042 H 0.3313 0.16564 0.93122 0.0
H1043 H 0.45599 0.2498 0.83478 0.0
H1044 H 0.40096 0.16021 0.85781 0.0
H1045 H 0.39328 0.25042 0.91236 0.0
C1046 C 0.35447 0.23482 0.93822 0.0
C1047 C 0.33593 0.21148 0.94339 0.0
C1048 C 0.41342 0.17961 0.85297 0.0
C1049 C 0.3868 0.20503 0.89998 0.0
C1050 C 0.43159 0.18177 0.82507 0.0
C1051 C 0.44656 0.20756 0.81744 0.0
C1052 C 0.4101 0.2035 0.8732 0.0
C1053 C 0.44443 0.22976 0.83937 0.0
C1054 C 0.38 0.23159 0.91675 0.0
C1055 C 0.34478 0.18435 0.92778 0.0
N1056 N 0.42618 0.22743 0.86601 0.0
N1057 N 0.36931 0.18207 0.90639 0.0
H1058 H 0.48007 0.50721 0.87148 0.0
H1059 H 0.29817 0.50339 0.86165 0.0
H1060 H 0.41008 0.542 0.94103 0.0
H1061 H 0.36592 0.48051 0.78599 0.0
H1062 H 0.33932 0.51587 0.89178 0.0
H1063 H 0.43893 0.49725 0.83971 0.0
C1064 C 0.45595 0.51332 0.87977 0.0
C1065 C 0.44835 0.52527 0.90899 0.0
C1066 C 0.34525 0.50814 0.8686 0.0
C1067 C 0.40124 0.51352 0.87299 0.0
C1068 C 0.3218 0.50083 0.85146 0.0
C1069 C 0.32873 0.49096 0.8213 0.0
C1070 C 0.37588 0.50554 0.85548 0.0
C1071 C 0.35968 0.48802 0.8092 0.0
C1072 C 0.4325 0.5074 0.86173 0.0
C1073 C 0.41683 0.5326 0.91869 0.0
N1074 N 0.38216 0.49535 0.82633 0.0
N1075 N 0.39439 0.52633 0.90086 0.0
H1076 H 0.71216 0.62839 0.93276 0.0
H1077 H 0.61283 0.52541 0.92072 0.0
H1078 H 0.67816 0.62669 0.02935 0.0
H1079 H 0.60825 0.51357 0.02153 0.0
H1080 H 0.65425 0.55563 0.92211 0.0
H1081 H 0.69314 0.57998 0.9281 0.0
C1082 C 0.70058 0.61774 0.95295 0.0
C1083 C 0.69579 0.63186 0.98117 0.0
C1084 C 0.64522 0.54572 0.94404 0.0
C1085 C 0.67289 0.57716 0.97591 0.0
C1086 C 0.62132 0.52847 0.94317 0.0
C1087 C 0.60678 0.51769 0.97106 0.0
C1088 C 0.65443 0.5523 0.97313 0.0
C1089 C 0.61865 0.52198 -0.00049 0.0
C1090 C 0.68947 0.59017 0.95028 0.0
C1091 C 0.6816 0.61682 0.00694 0.0
N1092 N 0.64138 0.53958 -0.00016 0.0
N1093 N 0.6702 0.5905 0.00355 0.0
H1094 H 0.92911 0.81129 0.68125 0.0
H1095 H 0.84046 0.96316 0.75516 0.0
H1096 H 0.94342 0.82547 0.77695 0.0
H1097 H 0.7952 0.90361 0.70553 0.0
H1098 H 0.88922 0.92519 0.75201 0.0
H1099 H 0.89138 0.8594 0.67803 0.0
C1100 C 0.92478 0.82486 0.70139 0.0
C1101 C 0.93884 0.8142 0.72963 0.0
C1102 C 0.86856 0.92087 0.74159 0.0
C1103 C 0.89635 0.86922 0.72579 0.0
C1104 C 0.84087 0.94229 0.74348 0.0
C1105 C 0.81376 0.93597 0.7313 0.0
C1106 C 0.86904 0.89392 0.72626 0.0
C1107 C 0.81552 0.90906 0.71566 0.0
C1108 C 0.90336 0.85224 0.69947 0.0
C1109 C 0.93273 0.83284 0.75489 0.0
N1110 N 0.84274 0.88904 0.71352 0.0
N1111 N 0.91153 0.85947 0.75252 0.0
H1112 H 0.52004 0.1075 0.6731 0.0
H1113 H 0.45634 0.04463 0.52721 0.0
H1114 H 0.42611 0.1418 0.64544 0.0
H1115 H 0.55221 0.05634 0.53341 0.0
H1116 H 0.44232 0.0734 0.5739 0.0
H1117 H 0.52957 0.07818 0.62682 0.0
C1118 C 0.5012 0.10827 0.65765 0.0
C1119 C 0.47235 0.1272 0.66282 0.0
C1120 C 0.4663 0.0699 0.56464 0.0
C1121 C 0.48322 0.09423 0.60984 0.0
C1122 C 0.47429 0.05374 0.53797 0.0
C1123 C 0.5055 0.04801 0.52644 0.0
C1124 C 0.48983 0.07966 0.58008 0.0
C1125 C 0.52784 0.06024 0.54134 0.0
C1126 C 0.50678 0.09189 0.63109 0.0
C1127 C 0.44873 0.12748 0.64207 0.0
N1128 N 0.51964 0.07505 0.56768 0.0
N1129 N 0.45472 0.11132 0.61623 0.0
H1130 H 0.45822 0.36094 0.77244 0.0
H1131 H 0.54823 0.41311 0.90973 0.0
H1132 H 0.55121 0.31737 0.79591 0.0
H1133 H 0.44905 0.4376 0.89786 0.0
H1134 H 0.55302 0.38428 0.86283 0.0
H1135 H 0.45841 0.39732 0.81216 0.0
C1136 C 0.47887 0.35943 0.78561 0.0
C1137 C 0.50456 0.33603 0.78133 0.0
C1138 C 0.53028 0.39604 0.87063 0.0
C1139 C 0.50483 0.37699 0.82695 0.0
C1140 C 0.52752 0.41231 0.89741 0.0
C1141 C 0.49817 0.42735 0.908 0.0
C1142 C 0.50356 0.39526 0.85429 0.0
C1143 C 0.47211 0.42592 0.89095 0.0
C1144 C 0.47892 0.38001 0.8084 0.0
C1145 C 0.53082 0.33502 0.79883 0.0
N1146 N 0.47545 0.41019 0.86497 0.0
N1147 N 0.53018 0.35504 0.82122 0.0
H1148 H 0.53077 0.85304 0.28111 0.0
H1149 H 0.55515 0.85537 0.45442 0.0
H1150 H 0.55445 0.76614 0.33671 0.0
H1151 H 0.59373 0.92081 0.38852 0.0
H1152 H 0.55559 0.82116 0.41245 0.0
H1153 H 0.55339 0.87911 0.32005 0.0
C1154 C 0.54107 0.83949 0.3013 0.0
C1155 C 0.5405 0.80762 0.30607 0.0
C1156 C 0.56487 0.84258 0.40743 0.0
C1157 C 0.56591 0.83695 0.35036 0.0
C1158 C 0.56469 0.86197 0.43134 0.0
C1159 C 0.57429 0.89083 0.42474 0.0
C1160 C 0.57362 0.8528 0.37674 0.0
C1161 C 0.58624 0.89861 0.39447 0.0
C1162 C 0.55417 0.85422 0.32328 0.0
C1163 C 0.55426 0.79088 0.33241 0.0
N1164 N 0.58467 0.88008 0.37123 0.0
N1165 N 0.56586 0.80587 0.35399 0.0
H1166 H 0.50854 0.54662 0.06217 0.0
H1167 H 0.39816 0.68322 0.1409 0.0
H1168 H 0.41577 0.57936 0.03033 0.0
H1169 H 0.4676 0.6184 0.19073 0.0
H1170 H 0.40456 0.64882 0.09809 0.0
H1171 H 0.49595 0.57803 0.10668 0.0
C1172 C 0.48566 0.56076 0.06433 0.0
C1173 C 0.46318 0.56055 0.04254 0.0
C1174 C 0.41794 0.64199 0.1187 0.0
C1175 C 0.44855 0.59617 0.09348 0.0
C1176 C 0.41418 0.66145 0.1431 0.0
C1177 C 0.43258 0.65364 0.16912 0.0
C1178 C 0.44059 0.61506 0.12036 0.0
C1179 C 0.45311 0.62532 0.17093 0.0
C1180 C 0.47836 0.57834 0.08992 0.0
C1181 C 0.43373 0.57894 0.04669 0.0
N1182 N 0.45696 0.60726 0.1466 0.0
N1183 N 0.42726 0.59623 0.07168 0.0
loop_
_geom_bond_atom_site_label_1
_geom_bond_atom_site_label_2
_geom_bond_distance
_geom_bond_site_symmetry_2
_ccdc_geom_bond_type
Dy0 O4 2.398 . S
Dy0 O5 2.486 1_554 S
Dy0 O6 2.403 1_655 S
Dy0 O7 2.664 1_655 S
Dy0 O11 2.326 1_654 S
Dy0 O15 2.310 1_564 S
Dy0 O16 2.351 1_565 S
C1 O12 1.185 . S
C1 O13 1.343 1_556 S
C2 O4 1.185 . S
C2 O5 1.349 1_554 S
Dy3 O7 2.310 1_546 S
Dy3 O10 2.351 1_545 S
Dy3 O12 2.398 . S
Dy3 O13 2.481 1_556 S
Dy3 O14 2.403 1_455 S
Dy3 O15 2.664 1_455 S
Dy3 O17 2.326 1_456 S
O4 Dy0 2.398 . S
O4 C2 1.185 . S
O5 Dy0 2.486 1_556 S
O5 C2 1.349 1_556 S
O6 Dy0 2.403 1_455 S
O6 C8 1.254 . S
O7 Dy0 2.664 1_455 S
O7 Dy3 2.310 1_564 S
O7 C8 1.268 . S
C8 O6 1.254 . S
C8 O7 1.268 . S
C9 O14 1.254 . S
C9 O15 1.268 . S
O10 Dy3 2.351 1_565 S
O10 C18 1.249 . S
O11 Dy0 2.326 1_456 S
O11 C18 1.267 . S
O12 C1 1.185 . S
O12 Dy3 2.398 . S
O13 C1 1.343 1_554 S
O13 Dy3 2.481 1_554 S
O14 Dy3 2.403 1_655 S
O14 C9 1.254 . S
O15 Dy0 2.310 1_546 S
O15 Dy3 2.664 1_655 S
O15 C9 1.268 . S
O16 Dy0 2.351 1_545 S
O16 C19 1.249 . S
O17 Dy3 2.326 1_654 S
O17 C19 1.267 . S
C18 O10 1.249 . S
C18 O11 1.267 . S
C19 O16 1.249 . S
C19 O17 1.267 . S
Dy20 O24 2.398 . S
Dy20 O25 2.491 1_455 S
Dy20 O26 2.403 . S
Dy20 O27 2.664 . S
Dy20 O31 2.326 1_455 S
Dy20 O35 2.310 1_455 S
Dy20 O36 2.351 . S
C21 O32 1.185 . S
C21 O33 1.355 1_655 S
C22 O24 1.185 . S
C22 O25 1.355 1_455 S
Dy23 O27 2.310 1_655 S
Dy23 O30 2.351 . S
Dy23 O32 2.398 . S
Dy23 O33 2.491 1_655 S
Dy23 O34 2.403 . S
Dy23 O35 2.664 . S
Dy23 O37 2.326 1_655 S
O24 Dy20 2.398 . S
O24 C22 1.185 . S
O25 Dy20 2.491 1_655 S
O25 C22 1.355 1_655 S
O26 Dy20 2.403 . S
O26 C28 1.254 . S
O27 Dy20 2.664 . S
O27 Dy23 2.310 1_455 S
O27 C28 1.268 . S
C28 O26 1.254 . S
C28 O27 1.268 . S
C29 O34 1.254 . S
C29 O35 1.268 . S
O30 Dy23 2.351 . S
O30 C38 1.249 . S
O31 Dy20 2.326 1_655 S
O31 C38 1.267 . S
O32 C21 1.185 . S
O32 Dy23 2.398 . S
O33 C21 1.355 1_455 S
O33 Dy23 2.491 1_455 S
O34 Dy23 2.403 . S
O34 C29 1.254 . S
O35 Dy20 2.310 1_655 S
O35 Dy23 2.664 . S
O35 C29 1.268 . S
O36 Dy20 2.351 . S
O36 C39 1.249 . S
O37 Dy23 2.326 1_455 S
O37 C39 1.267 . S
C38 O30 1.249 . S
C38 O31 1.267 . S
C39 O36 1.249 . S
C39 O37 1.267 . S
Dy40 O44 2.398 . S
Dy40 O45 2.491 . S
Dy40 O46 2.403 . S
Dy40 O47 2.664 . S
Dy40 O51 2.326 . S
Dy40 O55 2.310 . S
Dy40 O56 2.351 . S
C41 O52 1.185 . S
C41 O53 1.355 . S
C42 O44 1.185 . S
C42 O45 1.355 . S
Dy43 O47 2.310 . S
Dy43 O50 2.351 . S
Dy43 O52 2.398 . S
Dy43 O53 2.491 . S
Dy43 O54 2.403 . S
Dy43 O55 2.664 . S
Dy43 O57 2.326 . S
O44 Dy40 2.398 . S
O44 C42 1.185 . S
O45 Dy40 2.491 . S
O45 C42 1.355 . S
O46 Dy40 2.403 . S
O46 C48 1.254 . S
O47 Dy40 2.664 . S
O47 Dy43 2.310 . S
O47 C48 1.268 . S
C48 O46 1.254 . S
C48 O47 1.268 . S
C49 O54 1.254 . S
C49 O55 1.268 . S
O50 Dy43 2.351 . S
O50 C58 1.249 . S
O51 Dy40 2.326 . S
O51 C58 1.267 . S
O52 C41 1.185 . S
O52 Dy43 2.398 . S
O53 C41 1.355 . S
O53 Dy43 2.491 . S
O54 Dy43 2.403 . S
O54 C49 1.254 . S
O55 Dy40 2.310 . S
O55 Dy43 2.664 . S
O55 C49 1.268 . S
O56 Dy40 2.351 . S
O56 C59 1.249 . S
O57 Dy43 2.326 . S
O57 C59 1.267 . S
C58 O50 1.249 . S
C58 O51 1.267 . S
C59 O56 1.249 . S
C59 O57 1.267 . S
Dy60 O64 2.398 . S
Dy60 O65 2.491 1_565 S
Dy60 O66 2.403 . S
Dy60 O67 2.664 . S
Dy60 O71 2.326 1_565 S
Dy60 O75 2.310 1_565 S
Dy60 O76 2.351 . S
C61 O72 1.185 . S
C61 O73 1.355 1_545 S
C62 O64 1.185 . S
C62 O65 1.355 1_565 S
Dy63 O67 2.310 1_545 S
Dy63 O70 2.351 . S
Dy63 O72 2.398 . S
Dy63 O73 2.491 1_545 S
Dy63 O74 2.403 . S
Dy63 O75 2.664 . S
Dy63 O77 2.326 1_545 S
O64 Dy60 2.398 . S
O64 C62 1.185 . S
O65 Dy60 2.491 1_545 S
O65 C62 1.355 1_545 S
O66 Dy60 2.403 . S
O66 C68 1.254 . S
O67 Dy60 2.664 . S
O67 Dy63 2.310 1_565 S
O67 C68 1.268 . S
C68 O66 1.254 . S
C68 O67 1.268 . S
C69 O74 1.254 . S
C69 O75 1.268 . S
O70 Dy63 2.351 . S
O70 C78 1.249 . S
O71 Dy60 2.326 1_545 S
O71 C78 1.267 . S
O72 C61 1.185 . S
O72 Dy63 2.398 . S
O73 C61 1.355 1_565 S
O73 Dy63 2.491 1_565 S
O74 Dy63 2.403 . S
O74 C69 1.254 . S
O75 Dy60 2.310 1_545 S
O75 Dy63 2.664 . S
O75 C69 1.268 . S
O76 Dy60 2.351 . S
O76 C79 1.249 . S
O77 Dy63 2.326 1_565 S
O77 C79 1.267 . S
C78 O70 1.249 . S
C78 O71 1.267 . S
C79 O76 1.249 . S
C79 O77 1.267 . S
Dy80 O84 2.398 . S
Dy80 O85 2.491 . S
Dy80 O86 2.403 . S
Dy80 O87 2.664 . S
Dy80 O91 2.326 . S
Dy80 O95 2.310 . S
Dy80 O96 2.351 . S
C81 O92 1.185 . S
C81 O93 1.355 . S
C82 O84 1.185 . S
C82 O85 1.355 . S
Dy83 O87 2.310 . S
Dy83 O90 2.351 . S
Dy83 O92 2.398 . S
Dy83 O93 2.491 . S
Dy83 O94 2.403 . S
Dy83 O95 2.664 . S
Dy83 O97 2.326 . S
O84 Dy80 2.398 . S
O84 C82 1.185 . S
O85 Dy80 2.491 . S
O85 C82 1.355 . S
O86 Dy80 2.403 . S
O86 C88 1.254 . S
O87 Dy80 2.664 . S
O87 Dy83 2.310 . S
O87 C88 1.268 . S
C88 O86 1.254 . S
C88 O87 1.268 . S
C89 O94 1.254 . S
C89 O95 1.268 . S
O90 Dy83 2.351 . S
O90 C98 1.249 . S
O91 Dy80 2.326 . S
O91 C98 1.267 . S
O92 C81 1.185 . S
O92 Dy83 2.398 . S
O93 C81 1.355 . S
O93 Dy83 2.491 . S
O94 Dy83 2.403 . S
O94 C89 1.254 . S
O95 Dy80 2.310 . S
O95 Dy83 2.664 . S
O95 C89 1.268 . S
O96 Dy80 2.351 . S
O96 C99 1.249 . S
O97 Dy83 2.326 . S
O97 C99 1.267 . S
C98 O90 1.249 . S
C98 O91 1.267 . S
C99 O96 1.249 . S
C99 O97 1.267 . S
Dy100 O104 2.398 . S
Dy100 O105 2.491 . S
Dy100 O106 2.403 . S
Dy100 O107 2.664 . S
Dy100 O111 2.326 . S
Dy100 O115 2.310 . S
Dy100 O116 2.351 . S
C101 O112 1.185 . S
C101 O113 1.355 . S
C102 O104 1.185 . S
C102 O105 1.355 . S
Dy103 O107 2.310 . S
Dy103 O110 2.351 . S
Dy103 O112 2.398 . S
Dy103 O113 2.491 . S
Dy103 O114 2.403 . S
Dy103 O115 2.664 . S
Dy103 O117 2.326 . S
O104 Dy100 2.398 . S
O104 C102 1.185 . S
O105 Dy100 2.491 . S
O105 C102 1.355 . S
O106 Dy100 2.403 . S
O106 C108 1.254 . S
O107 Dy100 2.664 . S
O107 Dy103 2.310 . S
O107 C108 1.268 . S
C108 O106 1.254 . S
C108 O107 1.268 . S
C109 O114 1.254 . S
C109 O115 1.268 . S
O110 Dy103 2.351 . S
O110 C118 1.249 . S
O111 Dy100 2.326 . S
O111 C118 1.267 . S
O112 C101 1.185 . S
O112 Dy103 2.398 . S
O113 C101 1.355 . S
O113 Dy103 2.491 . S
O114 Dy103 2.403 . S
O114 C109 1.254 . S
O115 Dy100 2.310 . S
O115 Dy103 2.664 . S
O115 C109 1.268 . S
O116 Dy100 2.351 . S
O116 C119 1.249 . S
O117 Dy103 2.326 . S
O117 C119 1.267 . S
C118 O110 1.249 . S
C118 O111 1.267 . S
C119 O116 1.249 . S
C119 O117 1.267 . S
Dy120 O124 2.398 . S
Dy120 O125 2.491 . S
Dy120 O126 2.403 . S
Dy120 O127 2.664 . S
Dy120 O131 2.326 . S
Dy120 O135 2.310 . S
Dy120 O136 2.351 . S
C121 O132 1.185 . S
C121 O133 1.355 . S
C122 O124 1.185 . S
C122 O125 1.355 . S
Dy123 O127 2.310 . S
Dy123 O130 2.351 . S
Dy123 O132 2.398 . S
Dy123 O133 2.491 . S
Dy123 O134 2.403 . S
Dy123 O135 2.664 . S
Dy123 O137 2.326 . S
O124 Dy120 2.398 . S
O124 C122 1.185 . S
O125 Dy120 2.491 . S
O125 C122 1.355 . S
O126 Dy120 2.403 . S
O126 C128 1.254 . S
O127 Dy120 2.664 . S
O127 Dy123 2.310 . S
O127 C128 1.268 . S
C128 O126 1.254 . S
C128 O127 1.268 . S
C129 O134 1.254 . S
C129 O135 1.268 . S
O130 Dy123 2.351 . S
O130 C138 1.249 . S
O131 Dy120 2.326 . S
O131 C138 1.267 . S
O132 C121 1.185 . S
O132 Dy123 2.398 . S
O133 C121 1.355 . S
O133 Dy123 2.491 . S
O134 Dy123 2.403 . S
O134 C129 1.254 . S
O135 Dy120 2.310 . S
O135 Dy123 2.664 . S
O135 C129 1.268 . S
O136 Dy120 2.351 . S
O136 C139 1.249 . S
O137 Dy123 2.326 . S
O137 C139 1.267 . S
C138 O130 1.249 . S
C138 O131 1.267 . S
C139 O136 1.249 . S
C139 O137 1.267 . S
Dy140 O144 2.398 . S
Dy140 O145 2.491 . S
Dy140 O146 2.403 1_655 S
Dy140 O147 2.664 1_655 S
Dy140 O151 2.326 1_655 S
Dy140 O155 2.310 . S
Dy140 O156 2.351 . S
C141 O152 1.185 . S
C141 O153 1.355 . S
C142 O144 1.185 . S
C142 O145 1.355 . S
Dy143 O147 2.310 . S
Dy143 O150 2.351 . S
Dy143 O152 2.398 . S
Dy143 O153 2.491 . S
Dy143 O154 2.403 1_455 S
Dy143 O155 2.664 1_455 S
Dy143 O157 2.326 1_455 S
O144 Dy140 2.398 . S
O144 C142 1.185 . S
O145 Dy140 2.491 . S
O145 C142 1.355 . S
O146 Dy140 2.403 1_455 S
O146 C148 1.254 . S
O147 Dy140 2.664 1_455 S
O147 Dy143 2.310 . S
O147 C148 1.268 . S
C148 O146 1.254 . S
C148 O147 1.268 . S
C149 O154 1.254 . S
C149 O155 1.268 . S
O150 Dy143 2.351 . S
O150 C158 1.249 . S
O151 Dy140 2.326 1_455 S
O151 C158 1.267 . S
O152 C141 1.185 . S
O152 Dy143 2.398 . S
O153 C141 1.355 . S
O153 Dy143 2.491 . S
O154 Dy143 2.403 1_655 S
O154 C149 1.254 . S
O155 Dy140 2.310 . S
O155 Dy143 2.664 1_655 S
O155 C149 1.268 . S
O156 Dy140 2.351 . S
O156 C159 1.249 . S
O157 Dy143 2.326 1_655 S
O157 C159 1.267 . S
C158 O150 1.249 . S
C158 O151 1.267 . S
C159 O156 1.249 . S
C159 O157 1.267 . S
Dy160 O164 2.398 . S
Dy160 O165 2.491 1_556 S
Dy160 O166 2.403 . S
Dy160 O167 2.664 . S
Dy160 O171 2.326 1_556 S
Dy160 O175 2.310 1_556 S
Dy160 O176 2.351 . S
C161 O172 1.185 . S
C161 O173 1.355 1_554 S
C162 O164 1.185 . S
C162 O165 1.355 1_556 S
Dy163 O167 2.310 1_554 S
Dy163 O170 2.351 . S
Dy163 O172 2.398 . S
Dy163 O173 2.491 1_554 S
Dy163 O174 2.403 . S
Dy163 O175 2.664 . S
Dy163 O177 2.326 1_554 S
O164 Dy160 2.398 . S
O164 C162 1.185 . S
O165 Dy160 2.491 1_554 S
O165 C162 1.355 1_554 S
O166 Dy160 2.403 . S
O166 C168 1.254 . S
O167 Dy160 2.664 . S
O167 Dy163 2.310 1_556 S
O167 C168 1.268 . S
C168 O166 1.254 . S
C168 O167 1.268 . S
C169 O174 1.254 . S
C169 O175 1.268 . S
O170 Dy163 2.351 . S
O170 C178 1.249 . S
O171 Dy160 2.326 1_554 S
O171 C178 1.267 . S
O172 C161 1.185 . S
O172 Dy163 2.398 . S
O173 C161 1.355 1_556 S
O173 Dy163 2.491 1_556 S
O174 Dy163 2.403 . S
O174 C169 1.254 . S
O175 Dy160 2.310 1_554 S
O175 Dy163 2.664 . S
O175 C169 1.268 . S
O176 Dy160 2.351 . S
O176 C179 1.249 . S
O177 Dy163 2.326 1_556 S
O177 C179 1.267 . S
C178 O170 1.249 . S
C178 O171 1.267 . S
C179 O176 1.249 . S
C179 O177 1.267 . S
Dy180 O184 2.398 . S
Dy180 O185 2.491 1_565 S
Dy180 O186 2.403 . S
Dy180 O187 2.664 . S
Dy180 O191 2.326 1_565 S
Dy180 O195 2.310 1_565 S
Dy180 O196 2.351 . S
C181 O192 1.185 . S
C181 O193 1.355 1_545 S
C182 O184 1.185 . S
C182 O185 1.355 1_565 S
Dy183 O187 2.310 1_545 S
Dy183 O190 2.351 . S
Dy183 O192 2.398 . S
Dy183 O193 2.491 1_545 S
Dy183 O194 2.403 . S
Dy183 O195 2.664 . S
Dy183 O197 2.326 1_545 S
O184 Dy180 2.398 . S
O184 C182 1.185 . S
O185 Dy180 2.491 1_545 S
O185 C182 1.355 1_545 S
O186 Dy180 2.403 . S
O186 C188 1.254 . S
O187 Dy180 2.664 . S
O187 Dy183 2.310 1_565 S
O187 C188 1.268 . S
C188 O186 1.254 . S
C188 O187 1.268 . S
C189 O194 1.254 . S
C189 O195 1.268 . S
O190 Dy183 2.351 . S
O190 C198 1.249 . S
O191 Dy180 2.326 1_545 S
O191 C198 1.267 . S
O192 C181 1.185 . S
O192 Dy183 2.398 . S
O193 C181 1.355 1_565 S
O193 Dy183 2.491 1_565 S
O194 Dy183 2.403 . S
O194 C189 1.254 . S
O195 Dy180 2.310 1_545 S
O195 Dy183 2.664 . S
O195 C189 1.268 . S
O196 Dy180 2.351 . S
O196 C199 1.249 . S
O197 Dy183 2.326 1_565 S
O197 C199 1.267 . S
C198 O190 1.249 . S
C198 O191 1.267 . S
C199 O196 1.249 . S
C199 O197 1.267 . S
Dy200 O204 2.398 . S
Dy200 O205 2.491 . S
Dy200 O206 2.403 . S
Dy200 O207 2.664 . S
Dy200 O211 2.326 . S
Dy200 O215 2.310 . S
Dy200 O216 2.351 . S
C201 O212 1.185 . S
C201 O213 1.355 . S
C202 O204 1.185 . S
C202 O205 1.355 . S
Dy203 O207 2.310 . S
Dy203 O210 2.351 . S
Dy203 O212 2.398 . S
Dy203 O213 2.491 . S
Dy203 O214 2.403 . S
Dy203 O215 2.664 . S
Dy203 O217 2.326 . S
O204 Dy200 2.398 . S
O204 C202 1.185 . S
O205 Dy200 2.491 . S
O205 C202 1.355 . S
O206 Dy200 2.403 . S
O206 C208 1.254 . S
O207 Dy200 2.664 . S
O207 Dy203 2.310 . S
O207 C208 1.268 . S
C208 O206 1.254 . S
C208 O207 1.268 . S
C209 O214 1.254 . S
C209 O215 1.268 . S
O210 Dy203 2.351 . S
O210 C218 1.249 . S
O211 Dy200 2.326 . S
O211 C218 1.267 . S
O212 C201 1.185 . S
O212 Dy203 2.398 . S
O213 C201 1.355 . S
O213 Dy203 2.491 . S
O214 Dy203 2.403 . S
O214 C209 1.254 . S
O215 Dy200 2.310 . S
O215 Dy203 2.664 . S
O215 C209 1.268 . S
O216 Dy200 2.351 . S
O216 C219 1.249 . S
O217 Dy203 2.326 . S
O217 C219 1.267 . S
C218 O210 1.249 . S
C218 O211 1.267 . S
C219 O216 1.249 . S
C219 O217 1.267 . S
Dy220 O224 2.398 . S
Dy220 O225 2.491 1_455 S
Dy220 O226 2.403 . S
Dy220 O227 2.664 . S
Dy220 O231 2.326 1_455 S
Dy220 O235 2.310 1_455 S
Dy220 O236 2.351 . S
C221 O232 1.185 . S
C221 O233 1.355 1_655 S
C222 O224 1.185 . S
C222 O225 1.355 1_455 S
Dy223 O227 2.310 1_655 S
Dy223 O230 2.351 . S
Dy223 O232 2.398 . S
Dy223 O233 2.491 1_655 S
Dy223 O234 2.403 . S
Dy223 O235 2.664 . S
Dy223 O237 2.326 1_655 S
O224 Dy220 2.398 . S
O224 C222 1.185 . S
O225 Dy220 2.491 1_655 S
O225 C222 1.355 1_655 S
O226 Dy220 2.403 . S
O226 C228 1.254 . S
O227 Dy220 2.664 . S
O227 Dy223 2.310 1_455 S
O227 C228 1.268 . S
C228 O226 1.254 . S
C228 O227 1.268 . S
C229 O234 1.254 . S
C229 O235 1.268 . S
O230 Dy223 2.351 . S
O230 C238 1.249 . S
O231 Dy220 2.326 1_655 S
O231 C238 1.267 . S
O232 C221 1.185 . S
O232 Dy223 2.398 . S
O233 C221 1.355 1_455 S
O233 Dy223 2.491 1_455 S
O234 Dy223 2.403 . S
O234 C229 1.254 . S
O235 Dy220 2.310 1_655 S
O235 Dy223 2.664 . S
O235 C229 1.268 . S
O236 Dy220 2.351 . S
O236 C239 1.249 . S
O237 Dy223 2.326 1_455 S
O237 C239 1.267 . S
C238 O230 1.249 . S
C238 O231 1.267 . S
C239 O236 1.249 . S
C239 O237 1.267 . S
Dy240 O244 2.398 . S
Dy240 O245 2.491 . S
Dy240 O246 2.403 . S
Dy240 O247 2.664 . S
Dy240 O251 2.326 . S
Dy240 O255 2.310 . S
Dy240 O256 2.351 . S
C241 O252 1.185 . S
C241 O253 1.355 . S
C242 O244 1.185 . S
C242 O245 1.355 . S
Dy243 O247 2.310 . S
Dy243 O250 2.351 . S
Dy243 O252 2.398 . S
Dy243 O253 2.491 . S
Dy243 O254 2.403 . S
Dy243 O255 2.664 . S
Dy243 O257 2.326 . S
O244 Dy240 2.398 . S
O244 C242 1.185 . S
O245 Dy240 2.491 . S
O245 C242 1.355 . S
O246 Dy240 2.403 . S
O246 C248 1.254 . S
O247 Dy240 2.664 . S
O247 Dy243 2.310 . S
O247 C248 1.268 . S
C248 O246 1.254 . S
C248 O247 1.268 . S
C249 O254 1.254 . S
C249 O255 1.268 . S
O250 Dy243 2.351 . S
O250 C258 1.249 . S
O251 Dy240 2.326 . S
O251 C258 1.267 . S
O252 C241 1.185 . S
O252 Dy243 2.398 . S
O253 C241 1.355 . S
O253 Dy243 2.491 . S
O254 Dy243 2.403 . S
O254 C249 1.254 . S
O255 Dy240 2.310 . S
O255 Dy243 2.664 . S
O255 C249 1.268 . S
O256 Dy240 2.351 . S
O256 C259 1.249 . S
O257 Dy243 2.326 . S
O257 C259 1.267 . S
C258 O250 1.249 . S
C258 O251 1.267 . S
C259 O256 1.249 . S
C259 O257 1.267 . S
Dy260 O264 2.398 . S
Dy260 O265 2.491 1_556 S
Dy260 O266 2.403 . S
Dy260 O267 2.664 . S
Dy260 O271 2.326 1_556 S
Dy260 O275 2.310 1_556 S
Dy260 O276 2.351 . S
C261 O272 1.185 . S
C261 O273 1.355 1_554 S
C262 O264 1.185 . S
C262 O265 1.355 1_556 S
Dy263 O267 2.310 1_554 S
Dy263 O270 2.351 . S
Dy263 O272 2.398 . S
Dy263 O273 2.491 1_554 S
Dy263 O274 2.403 . S
Dy263 O275 2.664 . S
Dy263 O277 2.326 1_554 S
O264 Dy260 2.398 . S
O264 C262 1.185 . S
O265 Dy260 2.491 1_554 S
O265 C262 1.355 1_554 S
O266 Dy260 2.403 . S
O266 C268 1.254 . S
O267 Dy260 2.664 . S
O267 Dy263 2.310 1_556 S
O267 C268 1.268 . S
C268 O266 1.254 . S
C268 O267 1.268 . S
C269 O274 1.254 . S
C269 O275 1.268 . S
O270 Dy263 2.351 . S
O270 C278 1.249 . S
O271 Dy260 2.326 1_554 S
O271 C278 1.267 . S
O272 C261 1.185 . S
O272 Dy263 2.398 . S
O273 C261 1.355 1_556 S
O273 Dy263 2.491 1_556 S
O274 Dy263 2.403 . S
O274 C269 1.254 . S
O275 Dy260 2.310 1_554 S
O275 Dy263 2.664 . S
O275 C269 1.268 . S
O276 Dy260 2.351 . S
O276 C279 1.249 . S
O277 Dy263 2.326 1_556 S
O277 C279 1.267 . S
C278 O270 1.249 . S
C278 O271 1.267 . S
C279 O276 1.249 . S
C279 O277 1.267 . S
Dy280 O284 2.398 . S
Dy280 O285 2.491 . S
Dy280 O286 2.403 . S
Dy280 O287 2.664 . S
Dy280 O291 2.326 . S
Dy280 O295 2.310 1_565 S
Dy280 O296 2.351 1_565 S
C281 O292 1.185 . S
C281 O293 1.355 . S
C282 O284 1.185 . S
C282 O285 1.355 . S
Dy283 O287 2.310 1_545 S
Dy283 O290 2.351 1_545 S
Dy283 O292 2.398 . S
Dy283 O293 2.491 . S
Dy283 O294 2.403 . S
Dy283 O295 2.664 . S
Dy283 O297 2.326 . S
O284 Dy280 2.398 . S
O284 C282 1.185 . S
O285 Dy280 2.491 . S
O285 C282 1.355 . S
O286 Dy280 2.403 . S
O286 C288 1.254 . S
O287 Dy280 2.664 . S
O287 Dy283 2.310 1_565 S
O287 C288 1.268 . S
C288 O286 1.254 . S
C288 O287 1.268 . S
C289 O294 1.254 . S
C289 O295 1.268 . S
O290 Dy283 2.351 1_565 S
O290 C298 1.249 . S
O291 Dy280 2.326 . S
O291 C298 1.267 . S
O292 C281 1.185 . S
O292 Dy283 2.398 . S
O293 C281 1.355 . S
O293 Dy283 2.491 . S
O294 Dy283 2.403 . S
O294 C289 1.254 . S
O295 Dy280 2.310 1_545 S
O295 Dy283 2.664 . S
O295 C289 1.268 . S
O296 Dy280 2.351 1_545 S
O296 C299 1.249 . S
O297 Dy283 2.326 . S
O297 C299 1.267 . S
C298 O290 1.249 . S
C298 O291 1.267 . S
C299 O296 1.249 . S
C299 O297 1.267 . S
Dy300 O304 2.398 . S
Dy300 O305 2.486 1_554 S
Dy300 O306 2.403 . S
Dy300 O307 2.664 . S
Dy300 O311 2.326 1_554 S
Dy300 O315 2.310 1_554 S
Dy300 O316 2.351 . S
C301 O312 1.185 . S
C301 O313 1.343 1_556 S
C302 O304 1.185 . S
C302 O305 1.349 1_554 S
Dy303 O307 2.310 1_556 S
Dy303 O310 2.351 . S
Dy303 O312 2.398 . S
Dy303 O313 2.481 1_556 S
Dy303 O314 2.403 . S
Dy303 O315 2.664 . S
Dy303 O317 2.326 1_556 S
O304 Dy300 2.398 . S
O304 C302 1.185 . S
O305 Dy300 2.486 1_556 S
O305 C302 1.349 1_556 S
O306 Dy300 2.403 . S
O306 C308 1.254 . S
O307 Dy300 2.664 . S
O307 Dy303 2.310 1_554 S
O307 C308 1.268 . S
C308 O306 1.254 . S
C308 O307 1.268 . S
C309 O314 1.254 . S
C309 O315 1.268 . S
O310 Dy303 2.351 . S
O310 C318 1.249 . S
O311 Dy300 2.326 1_556 S
O311 C318 1.267 . S
O312 C301 1.185 . S
O312 Dy303 2.398 . S
O313 C301 1.343 1_554 S
O313 Dy303 2.481 1_554 S
O314 Dy303 2.403 . S
O314 C309 1.254 . S
O315 Dy300 2.310 1_556 S
O315 Dy303 2.664 . S
O315 C309 1.268 . S
O316 Dy300 2.351 . S
O316 C319 1.249 . S
O317 Dy303 2.326 1_554 S
O317 C319 1.267 . S
C318 O310 1.249 . S
C318 O311 1.267 . S
C319 O316 1.249 . S
C319 O317 1.267 . S
H320 C326 0.930 . S
H321 C330 0.930 . S
H322 C335 0.929 . S
H323 C333 0.929 . S
H324 C328 0.929 . S
H325 C334 0.929 . S
C326 H320 0.930 . S
C326 C327 1.367 . S
C326 C334 1.378 . S
C327 C326 1.367 . S
C327 C335 1.433 1_655 S
C328 H324 0.929 . S
C328 C330 1.378 . S
C328 C332 1.350 1_455 S
C329 C332 1.463 . S
C329 C334 1.350 . S
C329 N337 1.427 1_655 S
C330 H321 0.930 . S
C330 C328 1.378 . S
C330 C331 1.367 1_455 S
C331 C330 1.367 1_655 S
C331 C333 1.433 . S
C332 C328 1.350 1_655 S
C332 C329 1.463 . S
C332 N336 1.427 . S
C333 H323 0.929 . S
C333 C331 1.433 . S
C333 N336 1.384 . S
C334 H325 0.929 . S
C334 C326 1.378 . S
C334 C329 1.350 . S
C335 H322 0.929 . S
C335 C327 1.433 1_455 S
C335 N337 1.384 . S
N336 C332 1.427 . S
N336 C333 1.384 . S
N337 C329 1.427 1_455 S
N337 C335 1.384 . S
H338 C344 0.930 . S
H339 C348 0.930 . S
H340 C353 0.929 . S
H341 C351 0.929 . S
H342 C346 0.929 . S
H343 C352 0.929 . S
C344 H338 0.930 . S
C344 C345 1.367 . S
C344 C352 1.378 . S
C345 C344 1.367 . S
C345 C353 1.433 . S
C346 H342 0.929 . S
C346 C348 1.378 . S
C346 C350 1.350 . S
C347 C350 1.463 . S
C347 C352 1.350 . S
C347 N355 1.427 . S
C348 H339 0.930 . S
C348 C346 1.378 . S
C348 C349 1.367 . S
C349 C348 1.367 . S
C349 C351 1.433 . S
C350 C346 1.350 . S
C350 C347 1.463 . S
C350 N354 1.427 . S
C351 H341 0.929 . S
C351 C349 1.433 . S
C351 N354 1.384 . S
C352 H343 0.929 . S
C352 C344 1.378 . S
C352 C347 1.350 . S
C353 H340 0.929 . S
C353 C345 1.433 . S
C353 N355 1.384 . S
N354 C350 1.427 . S
N354 C351 1.384 . S
N355 C347 1.427 . S
N355 C353 1.384 . S
H356 C362 0.930 . S
H357 C366 0.930 . S
H358 C371 0.929 . S
H359 C369 0.929 . S
H360 C364 0.929 . S
H361 C370 0.929 . S
C362 H356 0.930 . S
C362 C363 1.367 . S
C362 C370 1.378 . S
C363 C362 1.367 . S
C363 C371 1.433 . S
C364 H360 0.929 . S
C364 C366 1.378 . S
C364 C368 1.350 . S
C365 C368 1.463 . S
C365 C370 1.350 . S
C365 N373 1.427 . S
C366 H357 0.930 . S
C366 C364 1.378 . S
C366 C367 1.367 . S
C367 C366 1.367 . S
C367 C369 1.433 . S
C368 C364 1.350 . S
C368 C365 1.463 . S
C368 N372 1.427 . S
C369 H359 0.929 . S
C369 C367 1.433 . S
C369 N372 1.384 . S
C370 H361 0.929 . S
C370 C362 1.378 . S
C370 C365 1.350 . S
C371 H358 0.929 . S
C371 C363 1.433 . S
C371 N373 1.384 . S
N372 C368 1.427 . S
N372 C369 1.384 . S
N373 C365 1.427 . S
N373 C371 1.384 . S
H374 C380 0.930 1_565 S
H375 C384 0.930 . S
H376 C389 0.929 . S
H377 C387 0.929 . S
H378 C382 0.929 . S
H379 C388 0.925 . S
C380 H374 0.930 1_545 S
C380 C381 1.367 . S
C380 C388 1.379 1_545 S
C381 C380 1.367 . S
C381 C389 1.433 . S
C382 H378 0.929 . S
C382 C384 1.378 . S
C382 C386 1.350 . S
C383 C386 1.463 . S
C383 C388 1.352 1_545 S
C383 N391 1.427 . S
C384 H375 0.930 . S
C384 C382 1.378 . S
C384 C385 1.367 . S
C385 C384 1.367 . S
C385 C387 1.433 1_545 S
C386 C382 1.350 . S
C386 C383 1.463 . S
C386 N390 1.427 1_545 S
C387 H377 0.929 . S
C387 C385 1.433 1_565 S
C387 N390 1.384 . S
C388 H379 0.925 . S
C388 C380 1.379 1_565 S
C388 C383 1.352 1_565 S
C389 H376 0.929 . S
C389 C381 1.433 . S
C389 N391 1.384 . S
N390 C386 1.427 1_565 S
N390 C387 1.384 . S
N391 C383 1.427 . S
N391 C389 1.384 . S
H392 C398 0.919 1_545 S
H393 C402 0.930 . S
H394 C407 0.929 . S
H395 C405 0.929 . S
H396 C400 0.929 . S
H397 C406 0.929 . S
C398 H392 0.919 1_565 S
C398 C399 1.384 . S
C398 C406 1.372 1_565 S
C399 C398 1.384 . S
C399 C407 1.433 . S
C400 H396 0.929 . S
C400 C402 1.378 . S
C400 C404 1.350 . S
C401 C404 1.463 . S
C401 C406 1.350 1_565 S
C401 N409 1.427 . S
C402 H393 0.930 . S
C402 C400 1.378 . S
C402 C403 1.367 . S
C403 C402 1.367 . S
C403 C405 1.433 1_565 S
C404 C400 1.350 . S
C404 C401 1.463 . S
C404 N408 1.427 1_565 S
C405 H395 0.929 . S
C405 C403 1.433 1_545 S
C405 N408 1.384 . S
C406 H397 0.929 . S
C406 C398 1.372 1_545 S
C406 C401 1.350 1_545 S
C407 H394 0.929 . S
C407 C399 1.433 . S
C407 N409 1.384 . S
N408 C404 1.427 1_545 S
N408 C405 1.384 . S
N409 C401 1.427 . S
N409 C407 1.384 . S
H410 C416 0.930 . S
H411 C420 0.930 . S
H412 C425 0.929 . S
H413 C423 0.929 . S
H414 C418 0.929 . S
H415 C424 0.929 . S
C416 H410 0.930 . S
C416 C417 1.367 1_655 S
C416 C424 1.378 . S
C417 C416 1.367 1_455 S
C417 C425 1.433 . S
C418 H414 0.929 . S
C418 C420 1.378 . S
C418 C422 1.350 . S
C419 C422 1.463 . S
C419 C424 1.350 1_455 S
C419 N427 1.427 . S
C420 H411 0.930 . S
C420 C418 1.378 . S
C420 C421 1.367 . S
C421 C420 1.367 . S
C421 C423 1.433 1_455 S
C422 C418 1.350 . S
C422 C419 1.463 . S
C422 N426 1.427 1_455 S
C423 H413 0.929 . S
C423 C421 1.433 1_655 S
C423 N426 1.384 . S
C424 H415 0.929 . S
C424 C416 1.378 . S
C424 C419 1.350 1_655 S
C425 H412 0.929 . S
C425 C417 1.433 . S
C425 N427 1.384 . S
N426 C422 1.427 1_655 S
N426 C423 1.384 . S
N427 C419 1.427 . S
N427 C425 1.384 . S
H428 C434 0.930 . S
H429 C438 0.930 . S
H430 C443 0.929 . S
H431 C441 0.929 . S
H432 C436 0.929 . S
H433 C442 0.929 . S
C434 H428 0.930 . S
C434 C435 1.367 . S
C434 C442 1.378 . S
C435 C434 1.367 . S
C435 C443 1.433 . S
C436 H432 0.929 . S
C436 C438 1.378 . S
C436 C440 1.350 . S
C437 C440 1.463 . S
C437 C442 1.350 . S
C437 N445 1.427 . S
C438 H429 0.930 . S
C438 C436 1.378 . S
C438 C439 1.367 . S
C439 C438 1.367 . S
C439 C441 1.433 . S
C440 C436 1.350 . S
C440 C437 1.463 . S
C440 N444 1.427 . S
C441 H431 0.929 . S
C441 C439 1.433 . S
C441 N444 1.384 . S
C442 H433 0.929 . S
C442 C434 1.378 . S
C442 C437 1.350 . S
C443 H430 0.929 . S
C443 C435 1.433 . S
C443 N445 1.384 . S
N444 C440 1.427 . S
N444 C441 1.384 . S
N445 C437 1.427 . S
N445 C443 1.384 . S
H446 C452 0.930 . S
H447 C456 0.930 . S
H448 C461 0.929 . S
H449 C459 0.929 . S
H450 C454 0.929 . S
H451 C460 0.929 . S
C452 H446 0.930 . S
C452 C453 1.367 . S
C452 C460 1.378 . S
C453 C452 1.367 . S
C453 C461 1.433 . S
C454 H450 0.929 . S
C454 C456 1.378 . S
C454 C458 1.350 . S
C455 C458 1.463 . S
C455 C460 1.350 . S
C455 N463 1.427 . S
C456 H447 0.930 . S
C456 C454 1.378 . S
C456 C457 1.367 . S
C457 C456 1.367 . S
C457 C459 1.433 . S
C458 C454 1.350 . S
C458 C455 1.463 . S
C458 N462 1.427 . S
C459 H449 0.929 . S
C459 C457 1.433 . S
C459 N462 1.384 . S
C460 H451 0.929 . S
C460 C452 1.378 . S
C460 C455 1.350 . S
C461 H448 0.929 . S
C461 C453 1.433 . S
C461 N463 1.384 . S
N462 C458 1.427 . S
N462 C459 1.384 . S
N463 C455 1.427 . S
N463 C461 1.384 . S
H464 C470 0.930 . S
H465 C474 0.930 . S
H466 C479 0.929 . S
H467 C477 0.929 . S
H468 C472 0.929 . S
H469 C478 0.929 . S
C470 H464 0.930 . S
C470 C471 1.367 . S
C470 C478 1.378 . S
C471 C470 1.367 . S
C471 C479 1.433 . S
C472 H468 0.929 . S
C472 C474 1.378 . S
C472 C476 1.350 . S
C473 C476 1.463 . S
C473 C478 1.350 . S
C473 N481 1.427 . S
C474 H465 0.930 . S
C474 C472 1.378 . S
C474 C475 1.367 . S
C475 C474 1.367 . S
C475 C477 1.433 . S
C476 C472 1.350 . S
C476 C473 1.463 . S
C476 N480 1.427 . S
C477 H467 0.929 . S
C477 C475 1.433 . S
C477 N480 1.384 . S
C478 H469 0.929 . S
C478 C470 1.378 . S
C478 C473 1.350 . S
C479 H466 0.929 . S
C479 C471 1.433 . S
C479 N481 1.384 . S
N480 C476 1.427 . S
N480 C477 1.384 . S
N481 C473 1.427 . S
N481 C479 1.384 . S
H482 C488 0.930 . S
H483 C492 0.930 . S
H484 C497 0.929 . S
H485 C495 0.929 . S
H486 C490 0.929 . S
H487 C496 0.929 . S
C488 H482 0.930 . S
C488 C489 1.367 . S
C488 C496 1.378 . S
C489 C488 1.367 . S
C489 C497 1.433 . S
C490 H486 0.929 . S
C490 C492 1.378 . S
C490 C494 1.350 . S
C491 C494 1.463 . S
C491 C496 1.350 . S
C491 N499 1.427 . S
C492 H483 0.930 . S
C492 C490 1.378 . S
C492 C493 1.367 . S
C493 C492 1.367 . S
C493 C495 1.433 . S
C494 C490 1.350 . S
C494 C491 1.463 . S
C494 N498 1.427 . S
C495 H485 0.929 . S
C495 C493 1.433 . S
C495 N498 1.384 . S
C496 H487 0.929 . S
C496 C488 1.378 . S
C496 C491 1.350 . S
C497 H484 0.929 . S
C497 C489 1.433 . S
C497 N499 1.384 . S
N498 C494 1.427 . S
N498 C495 1.384 . S
N499 C491 1.427 . S
N499 C497 1.384 . S
H500 C506 0.930 1_545 S
H501 C510 0.930 . S
H502 C515 0.929 . S
H503 C513 0.929 . S
H504 C508 0.929 . S
H505 C514 0.929 1_545 S
C506 H500 0.930 1_565 S
C506 C507 1.367 . S
C506 C514 1.378 . S
C507 C506 1.367 . S
C507 C515 1.433 . S
C508 H504 0.929 . S
C508 C510 1.378 . S
C508 C512 1.350 . S
C509 C512 1.463 . S
C509 C514 1.350 . S
C509 N517 1.427 . S
C510 H501 0.930 . S
C510 C508 1.378 . S
C510 C511 1.367 . S
C511 C510 1.367 . S
C511 C513 1.433 1_565 S
C512 C508 1.350 . S
C512 C509 1.463 . S
C512 N516 1.427 1_565 S
C513 H503 0.929 . S
C513 C511 1.433 1_545 S
C513 N516 1.384 . S
C514 H505 0.929 1_565 S
C514 C506 1.378 . S
C514 C509 1.350 . S
C515 H502 0.929 . S
C515 C507 1.433 . S
C515 N517 1.384 . S
N516 C512 1.427 1_545 S
N516 C513 1.384 . S
N517 C509 1.427 . S
N517 C515 1.384 . S
H518 C524 0.930 1_655 S
H519 C528 0.930 . S
H520 C533 0.929 . S
H521 C531 0.929 . S
H522 C526 0.929 . S
H523 C532 0.929 . S
C524 H518 0.930 1_455 S
C524 C525 1.367 . S
C524 C532 1.378 1_455 S
C525 C524 1.367 . S
C525 C533 1.433 . S
C526 H522 0.929 . S
C526 C528 1.378 . S
C526 C530 1.350 . S
C527 C530 1.463 . S
C527 C532 1.350 1_455 S
C527 N535 1.427 . S
C528 H519 0.930 . S
C528 C526 1.378 . S
C528 C529 1.367 . S
C529 C528 1.367 . S
C529 C531 1.433 1_455 S
C530 C526 1.350 . S
C530 C527 1.463 . S
C530 N534 1.427 1_455 S
C531 H521 0.929 . S
C531 C529 1.433 1_655 S
C531 N534 1.384 . S
C532 H523 0.929 . S
C532 C524 1.378 1_655 S
C532 C527 1.350 1_655 S
C533 H520 0.929 . S
C533 C525 1.433 . S
C533 N535 1.384 . S
N534 C530 1.427 1_655 S
N534 C531 1.384 . S
N535 C527 1.427 . S
N535 C533 1.384 . S
H536 C542 0.930 . S
H537 C546 0.930 . S
H538 C551 0.929 . S
H539 C549 0.929 . S
H540 C544 0.929 . S
H541 C550 0.929 . S
C542 H536 0.930 . S
C542 C543 1.367 . S
C542 C550 1.378 . S
C543 C542 1.367 . S
C543 C551 1.433 . S
C544 H540 0.929 . S
C544 C546 1.378 . S
C544 C548 1.350 . S
C545 C548 1.463 . S
C545 C550 1.350 . S
C545 N553 1.427 . S
C546 H537 0.930 . S
C546 C544 1.378 . S
C546 C547 1.367 . S
C547 C546 1.367 . S
C547 C549 1.433 . S
C548 C544 1.350 . S
C548 C545 1.463 . S
C548 N552 1.427 . S
C549 H539 0.929 . S
C549 C547 1.433 . S
C549 N552 1.384 . S
C550 H541 0.929 . S
C550 C542 1.378 . S
C550 C545 1.350 . S
C551 H538 0.929 . S
C551 C543 1.433 . S
C551 N553 1.384 . S
N552 C548 1.427 . S
N552 C549 1.384 . S
N553 C545 1.427 . S
N553 C551 1.384 . S
H554 C560 0.930 . S
H555 C564 0.930 . S
H556 C569 0.929 . S
H557 C567 0.929 . S
H558 C562 0.929 . S
H559 C568 0.929 . S
C560 H554 0.930 . S
C560 C561 1.367 . S
C560 C568 1.378 . S
C561 C560 1.367 . S
C561 C569 1.433 . S
C562 H558 0.929 . S
C562 C564 1.378 . S
C562 C566 1.350 . S
C563 C566 1.463 . S
C563 C568 1.350 . S
C563 N571 1.427 . S
C564 H555 0.930 . S
C564 C562 1.378 . S
C564 C565 1.367 . S
C565 C564 1.367 . S
C565 C567 1.433 . S
C566 C562 1.350 . S
C566 C563 1.463 . S
C566 N570 1.427 . S
C567 H557 0.929 . S
C567 C565 1.433 . S
C567 N570 1.384 . S
C568 H559 0.929 . S
C568 C560 1.378 . S
C568 C563 1.350 . S
C569 H556 0.929 . S
C569 C561 1.433 . S
C569 N571 1.384 . S
N570 C566 1.427 . S
N570 C567 1.384 . S
N571 C563 1.427 . S
N571 C569 1.384 . S
H572 C578 0.930 . S
H573 C582 0.930 . S
H574 C587 0.929 . S
H575 C585 0.929 . S
H576 C580 0.929 . S
H577 C586 0.929 . S
C578 H572 0.930 . S
C578 C579 1.367 . S
C578 C586 1.378 . S
C579 C578 1.367 . S
C579 C587 1.433 . S
C580 H576 0.929 . S
C580 C582 1.378 . S
C580 C584 1.350 . S
C581 C584 1.463 . S
C581 C586 1.350 . S
C581 N589 1.427 . S
C582 H573 0.930 . S
C582 C580 1.378 . S
C582 C583 1.367 . S
C583 C582 1.367 . S
C583 C585 1.433 . S
C584 C580 1.350 . S
C584 C581 1.463 . S
C584 N588 1.427 . S
C585 H575 0.929 . S
C585 C583 1.433 . S
C585 N588 1.384 . S
C586 H577 0.929 . S
C586 C578 1.378 . S
C586 C581 1.350 . S
C587 H574 0.929 . S
C587 C579 1.433 . S
C587 N589 1.384 . S
N588 C584 1.427 . S
N588 C585 1.384 . S
N589 C581 1.427 . S
N589 C587 1.384 . S
H590 C596 0.930 . S
H591 C600 0.930 . S
H592 C605 0.929 . S
H593 C603 0.929 . S
H594 C598 0.929 . S
H595 C604 0.929 . S
C596 H590 0.930 . S
C596 C597 1.367 . S
C596 C604 1.378 . S
C597 C596 1.367 . S
C597 C605 1.433 . S
C598 H594 0.929 . S
C598 C600 1.378 . S
C598 C602 1.350 . S
C599 C602 1.463 . S
C599 C604 1.350 . S
C599 N607 1.427 . S
C600 H591 0.930 . S
C600 C598 1.378 . S
C600 C601 1.367 . S
C601 C600 1.367 . S
C601 C603 1.433 . S
C602 C598 1.350 . S
C602 C599 1.463 . S
C602 N606 1.427 . S
C603 H593 0.929 . S
C603 C601 1.433 . S
C603 N606 1.384 . S
C604 H595 0.929 . S
C604 C596 1.378 . S
C604 C599 1.350 . S
C605 H592 0.929 . S
C605 C597 1.433 . S
C605 N607 1.384 . S
N606 C602 1.427 . S
N606 C603 1.384 . S
N607 C599 1.427 . S
N607 C605 1.384 . S
H608 C614 0.930 . S
H609 C618 0.930 . S
H610 C623 0.929 . S
H611 C621 0.929 . S
H612 C616 0.929 . S
H613 C622 0.929 . S
C614 H608 0.930 . S
C614 C615 1.367 . S
C614 C622 1.378 . S
C615 C614 1.367 . S
C615 C623 1.433 . S
C616 H612 0.929 . S
C616 C618 1.378 . S
C616 C620 1.350 . S
C617 C620 1.463 . S
C617 C622 1.350 . S
C617 N625 1.427 . S
C618 H609 0.930 . S
C618 C616 1.378 . S
C618 C619 1.367 . S
C619 C618 1.367 . S
C619 C621 1.433 . S
C620 C616 1.350 . S
C620 C617 1.463 . S
C620 N624 1.427 . S
C621 H611 0.929 . S
C621 C619 1.433 . S
C621 N624 1.384 . S
C622 H613 0.929 . S
C622 C614 1.378 . S
C622 C617 1.350 . S
C623 H610 0.929 . S
C623 C615 1.433 . S
C623 N625 1.384 . S
N624 C620 1.427 . S
N624 C621 1.384 . S
N625 C617 1.427 . S
N625 C623 1.384 . S
H626 C632 0.930 . S
H627 C636 0.930 . S
H628 C641 0.929 . S
H629 C639 0.929 . S
H630 C634 0.929 . S
H631 C640 0.929 . S
C632 H626 0.930 . S
C632 C633 1.367 . S
C632 C640 1.378 . S
C633 C632 1.367 . S
C633 C641 1.433 . S
C634 H630 0.929 . S
C634 C636 1.378 . S
C634 C638 1.350 . S
C635 C638 1.463 . S
C635 C640 1.350 . S
C635 N643 1.427 . S
C636 H627 0.930 . S
C636 C634 1.378 . S
C636 C637 1.367 . S
C637 C636 1.367 . S
C637 C639 1.433 . S
C638 C634 1.350 . S
C638 C635 1.463 . S
C638 N642 1.427 . S
C639 H629 0.929 . S
C639 C637 1.433 . S
C639 N642 1.384 . S
C640 H631 0.929 . S
C640 C632 1.378 . S
C640 C635 1.350 . S
C641 H628 0.929 . S
C641 C633 1.433 . S
C641 N643 1.384 . S
N642 C638 1.427 . S
N642 C639 1.384 . S
N643 C635 1.427 . S
N643 C641 1.384 . S
H644 C650 0.930 . S
H645 C654 0.930 . S
H646 C659 0.929 . S
H647 C657 0.929 . S
H648 C652 0.929 . S
H649 C658 0.929 . S
C650 H644 0.930 . S
C650 C651 1.367 . S
C650 C658 1.378 . S
C651 C650 1.367 . S
C651 C659 1.433 . S
C652 H648 0.929 . S
C652 C654 1.378 . S
C652 C656 1.350 . S
C653 C656 1.463 . S
C653 C658 1.350 . S
C653 N661 1.427 . S
C654 H645 0.930 . S
C654 C652 1.378 . S
C654 C655 1.367 . S
C655 C654 1.367 . S
C655 C657 1.433 . S
C656 C652 1.350 . S
C656 C653 1.463 . S
C656 N660 1.427 . S
C657 H647 0.929 . S
C657 C655 1.433 . S
C657 N660 1.384 . S
C658 H649 0.929 . S
C658 C650 1.378 . S
C658 C653 1.350 . S
C659 H646 0.929 . S
C659 C651 1.433 . S
C659 N661 1.384 . S
N660 C656 1.427 . S
N660 C657 1.384 . S
N661 C653 1.427 . S
N661 C659 1.384 . S
H662 C668 0.930 . S
H663 C672 0.930 . S
H664 C677 0.929 . S
H665 C675 0.929 . S
H666 C670 0.929 . S
H667 C676 0.929 . S
C668 H662 0.930 . S
C668 C669 1.367 . S
C668 C676 1.378 . S
C669 C668 1.367 . S
C669 C677 1.433 . S
C670 H666 0.929 . S
C670 C672 1.378 . S
C670 C674 1.350 . S
C671 C674 1.463 . S
C671 C676 1.350 . S
C671 N679 1.427 . S
C672 H663 0.930 . S
C672 C670 1.378 . S
C672 C673 1.367 . S
C673 C672 1.367 . S
C673 C675 1.433 . S
C674 C670 1.350 . S
C674 C671 1.463 . S
C674 N678 1.427 . S
C675 H665 0.929 . S
C675 C673 1.433 . S
C675 N678 1.384 . S
C676 H667 0.929 . S
C676 C668 1.378 . S
C676 C671 1.350 . S
C677 H664 0.929 . S
C677 C669 1.433 . S
C677 N679 1.384 . S
N678 C674 1.427 . S
N678 C675 1.384 . S
N679 C671 1.427 . S
N679 C677 1.384 . S
H680 C686 0.930 . S
H681 C690 0.930 . S
H682 C695 0.929 . S
H683 C693 0.929 . S
H684 C688 0.929 . S
H685 C694 0.929 . S
C686 H680 0.930 . S
C686 C687 1.367 . S
C686 C694 1.378 . S
C687 C686 1.367 . S
C687 C695 1.433 . S
C688 H684 0.929 . S
C688 C690 1.378 . S
C688 C692 1.350 . S
C689 C692 1.463 . S
C689 C694 1.350 . S
C689 N697 1.427 . S
C690 H681 0.930 . S
C690 C688 1.378 . S
C690 C691 1.367 . S
C691 C690 1.367 . S
C691 C693 1.433 . S
C692 C688 1.350 . S
C692 C689 1.463 . S
C692 N696 1.427 . S
C693 H683 0.929 . S
C693 C691 1.433 . S
C693 N696 1.384 . S
C694 H685 0.929 . S
C694 C686 1.378 . S
C694 C689 1.350 . S
C695 H682 0.929 . S
C695 C687 1.433 . S
C695 N697 1.384 . S
N696 C692 1.427 . S
N696 C693 1.384 . S
N697 C689 1.427 . S
N697 C695 1.384 . S
H698 C704 0.930 . S
H699 C708 0.930 . S
H700 C713 0.929 . S
H701 C711 0.929 . S
H702 C706 0.929 . S
H703 C712 0.929 . S
C704 H698 0.930 . S
C704 C705 1.367 . S
C704 C712 1.378 . S
C705 C704 1.367 . S
C705 C713 1.433 . S
C706 H702 0.929 . S
C706 C708 1.378 . S
C706 C710 1.350 . S
C707 C710 1.463 . S
C707 C712 1.350 . S
C707 N715 1.427 . S
C708 H699 0.930 . S
C708 C706 1.378 . S
C708 C709 1.367 . S
C709 C708 1.367 . S
C709 C711 1.433 . S
C710 C706 1.350 . S
C710 C707 1.463 . S
C710 N714 1.427 . S
C711 H701 0.929 . S
C711 C709 1.433 . S
C711 N714 1.384 . S
C712 H703 0.929 . S
C712 C704 1.378 . S
C712 C707 1.350 . S
C713 H700 0.929 . S
C713 C705 1.433 . S
C713 N715 1.384 . S
N714 C710 1.427 . S
N714 C711 1.384 . S
N715 C707 1.427 . S
N715 C713 1.384 . S
H716 C722 0.930 . S
H717 C726 0.930 . S
H718 C731 0.929 . S
H719 C729 0.929 . S
H720 C724 0.929 . S
H721 C730 0.929 . S
C722 H716 0.930 . S
C722 C723 1.367 . S
C722 C730 1.378 . S
C723 C722 1.367 . S
C723 C731 1.433 . S
C724 H720 0.929 . S
C724 C726 1.378 . S
C724 C728 1.350 . S
C725 C728 1.463 . S
C725 C730 1.350 . S
C725 N733 1.427 . S
C726 H717 0.930 . S
C726 C724 1.378 . S
C726 C727 1.367 . S
C727 C726 1.367 . S
C727 C729 1.433 . S
C728 C724 1.350 . S
C728 C725 1.463 . S
C728 N732 1.427 . S
C729 H719 0.929 . S
C729 C727 1.433 . S
C729 N732 1.384 . S
C730 H721 0.929 . S
C730 C722 1.378 . S
C730 C725 1.350 . S
C731 H718 0.929 . S
C731 C723 1.433 . S
C731 N733 1.384 . S
N732 C728 1.427 . S
N732 C729 1.384 . S
N733 C725 1.427 . S
N733 C731 1.384 . S
H734 C740 0.930 . S
H735 C744 0.930 . S
H736 C749 0.929 . S
H737 C747 0.929 . S
H738 C742 0.929 . S
H739 C748 0.929 . S
C740 H734 0.930 . S
C740 C741 1.367 . S
C740 C748 1.378 . S
C741 C740 1.367 . S
C741 C749 1.433 . S
C742 H738 0.929 . S
C742 C744 1.378 . S
C742 C746 1.350 . S
C743 C746 1.463 . S
C743 C748 1.350 . S
C743 N751 1.427 . S
C744 H735 0.930 . S
C744 C742 1.378 . S
C744 C745 1.367 . S
C745 C744 1.367 . S
C745 C747 1.433 . S
C746 C742 1.350 . S
C746 C743 1.463 . S
C746 N750 1.427 . S
C747 H737 0.929 . S
C747 C745 1.433 . S
C747 N750 1.384 . S
C748 H739 0.929 . S
C748 C740 1.378 . S
C748 C743 1.350 . S
C749 H736 0.929 . S
C749 C741 1.433 . S
C749 N751 1.384 . S
N750 C746 1.427 . S
N750 C747 1.384 . S
N751 C743 1.427 . S
N751 C749 1.384 . S
H752 C758 0.930 . S
H753 C762 0.930 . S
H754 C767 0.929 . S
H755 C765 0.929 . S
H756 C760 0.929 . S
H757 C766 0.929 . S
C758 H752 0.930 . S
C758 C759 1.367 . S
C758 C766 1.378 . S
C759 C758 1.367 . S
C759 C767 1.433 . S
C760 H756 0.929 . S
C760 C762 1.378 . S
C760 C764 1.350 . S
C761 C764 1.463 . S
C761 C766 1.350 . S
C761 N769 1.427 . S
C762 H753 0.930 . S
C762 C760 1.378 . S
C762 C763 1.367 . S
C763 C762 1.367 . S
C763 C765 1.433 . S
C764 C760 1.350 . S
C764 C761 1.463 . S
C764 N768 1.427 . S
C765 H755 0.929 . S
C765 C763 1.433 . S
C765 N768 1.384 . S
C766 H757 0.929 . S
C766 C758 1.378 . S
C766 C761 1.350 . S
C767 H754 0.929 . S
C767 C759 1.433 . S
C767 N769 1.384 . S
N768 C764 1.427 . S
N768 C765 1.384 . S
N769 C761 1.427 . S
N769 C767 1.384 . S
H770 C776 0.930 . S
H771 C780 0.930 . S
H772 C785 0.929 . S
H773 C783 0.929 . S
H774 C778 0.929 . S
H775 C784 0.929 . S
C776 H770 0.930 . S
C776 C777 1.367 . S
C776 C784 1.378 . S
C777 C776 1.367 . S
C777 C785 1.433 . S
C778 H774 0.929 . S
C778 C780 1.378 . S
C778 C782 1.350 . S
C779 C782 1.463 . S
C779 C784 1.350 . S
C779 N787 1.427 . S
C780 H771 0.930 . S
C780 C778 1.378 . S
C780 C781 1.367 . S
C781 C780 1.367 . S
C781 C783 1.433 . S
C782 C778 1.350 . S
C782 C779 1.463 . S
C782 N786 1.427 . S
C783 H773 0.929 . S
C783 C781 1.433 . S
C783 N786 1.384 . S
C784 H775 0.929 . S
C784 C776 1.378 . S
C784 C779 1.350 . S
C785 H772 0.929 . S
C785 C777 1.433 . S
C785 N787 1.384 . S
N786 C782 1.427 . S
N786 C783 1.384 . S
N787 C779 1.427 . S
N787 C785 1.384 . S
H788 C794 0.930 . S
H789 C798 0.930 . S
H790 C803 0.929 . S
H791 C801 0.952 . S
H792 C796 0.929 . S
H793 C802 0.929 . S
C794 H788 0.930 . S
C794 C795 1.367 1_565 S
C794 C802 1.378 . S
C795 C794 1.367 1_545 S
C795 C803 1.433 . S
C796 H792 0.929 . S
C796 C798 1.378 . S
C796 C800 1.350 . S
C797 C800 1.463 . S
C797 C802 1.350 1_545 S
C797 N805 1.427 . S
C798 H789 0.930 . S
C798 C796 1.378 . S
C798 C799 1.367 . S
C799 C798 1.367 . S
C799 C801 1.399 1_545 S
C800 C796 1.350 . S
C800 C797 1.463 . S
C800 N804 1.427 1_545 S
C801 H791 0.952 . S
C801 C799 1.399 1_565 S
C801 N804 1.394 . S
C802 H793 0.929 . S
C802 C794 1.378 . S
C802 C797 1.350 1_565 S
C803 H790 0.929 . S
C803 C795 1.433 . S
C803 N805 1.384 . S
N804 C800 1.427 1_565 S
N804 C801 1.394 . S
N805 C797 1.427 . S
N805 C803 1.384 . S
H806 C812 0.930 1_556 S
H807 C816 0.930 . S
H808 C821 0.929 . S
H809 C819 0.929 . S
H810 C814 0.929 . S
H811 C820 0.929 1_556 S
C812 H806 0.930 1_554 S
C812 C813 1.367 . S
C812 C820 1.378 . S
C813 C812 1.367 . S
C813 C821 1.433 . S
C814 H810 0.929 . S
C814 C816 1.378 . S
C814 C818 1.350 . S
C815 C818 1.463 . S
C815 C820 1.350 . S
C815 N823 1.427 . S
C816 H807 0.930 . S
C816 C814 1.378 . S
C816 C817 1.367 . S
C817 C816 1.367 . S
C817 C819 1.433 . S
C818 C814 1.350 . S
C818 C815 1.463 . S
C818 N822 1.427 . S
C819 H809 0.929 . S
C819 C817 1.433 . S
C819 N822 1.384 . S
C820 H811 0.929 1_554 S
C820 C812 1.378 . S
C820 C815 1.350 . S
C821 H808 0.929 . S
C821 C813 1.433 . S
C821 N823 1.384 . S
N822 C818 1.427 . S
N822 C819 1.384 . S
N823 C815 1.427 . S
N823 C821 1.384 . S
H824 C830 0.930 . S
H825 C834 0.930 . S
H826 C839 0.929 . S
H827 C837 0.929 . S
H828 C832 0.929 . S
H829 C838 0.929 . S
C830 H824 0.930 . S
C830 C831 1.367 . S
C830 C838 1.378 . S
C831 C830 1.367 . S
C831 C839 1.433 . S
C832 H828 0.929 . S
C832 C834 1.378 . S
C832 C836 1.350 . S
C833 C836 1.463 . S
C833 C838 1.350 . S
C833 N841 1.427 . S
C834 H825 0.930 . S
C834 C832 1.378 . S
C834 C835 1.367 . S
C835 C834 1.367 . S
C835 C837 1.433 . S
C836 C832 1.350 . S
C836 C833 1.463 . S
C836 N840 1.427 . S
C837 H827 0.929 . S
C837 C835 1.433 . S
C837 N840 1.384 . S
C838 H829 0.929 . S
C838 C830 1.378 . S
C838 C833 1.350 . S
C839 H826 0.929 . S
C839 C831 1.433 . S
C839 N841 1.384 . S
N840 C836 1.427 . S
N840 C837 1.384 . S
N841 C833 1.427 . S
N841 C839 1.384 . S
H842 C848 0.930 . S
H843 C852 0.930 . S
H844 C857 0.929 . S
H845 C855 0.929 . S
H846 C850 0.929 . S
H847 C856 0.929 . S
C848 H842 0.930 . S
C848 C849 1.367 . S
C848 C856 1.378 . S
C849 C848 1.367 . S
C849 C857 1.433 . S
C850 H846 0.929 . S
C850 C852 1.378 . S
C850 C854 1.350 . S
C851 C854 1.463 . S
C851 C856 1.350 . S
C851 N859 1.427 . S
C852 H843 0.930 . S
C852 C850 1.378 . S
C852 C853 1.367 . S
C853 C852 1.367 . S
C853 C855 1.433 . S
C854 C850 1.350 . S
C854 C851 1.463 . S
C854 N858 1.427 . S
C855 H845 0.929 . S
C855 C853 1.433 . S
C855 N858 1.384 . S
C856 H847 0.929 . S
C856 C848 1.378 . S
C856 C851 1.350 . S
C857 H844 0.929 . S
C857 C849 1.433 . S
C857 N859 1.384 . S
N858 C854 1.427 . S
N858 C855 1.384 . S
N859 C851 1.427 . S
N859 C857 1.384 . S
H860 C866 0.930 . S
H861 C870 0.930 . S
H862 C875 0.929 . S
H863 C873 0.929 . S
H864 C868 0.929 . S
H865 C874 0.929 . S
C866 H860 0.930 . S
C866 C867 1.367 . S
C866 C874 1.378 . S
C867 C866 1.367 . S
C867 C875 1.433 . S
C868 H864 0.929 . S
C868 C870 1.378 . S
C868 C872 1.350 . S
C869 C872 1.463 . S
C869 C874 1.350 . S
C869 N877 1.427 . S
C870 H861 0.930 . S
C870 C868 1.378 . S
C870 C871 1.367 . S
C871 C870 1.367 . S
C871 C873 1.433 . S
C872 C868 1.350 . S
C872 C869 1.463 . S
C872 N876 1.427 . S
C873 H863 0.929 . S
C873 C871 1.433 . S
C873 N876 1.384 . S
C874 H865 0.929 . S
C874 C866 1.378 . S
C874 C869 1.350 . S
C875 H862 0.929 . S
C875 C867 1.433 . S
C875 N877 1.384 . S
N876 C872 1.427 . S
N876 C873 1.384 . S
N877 C869 1.427 . S
N877 C875 1.384 . S
H878 C884 0.930 . S
H879 C888 0.930 . S
H880 C893 0.929 . S
H881 C891 0.929 . S
H882 C886 0.929 . S
H883 C892 0.929 . S
C884 H878 0.930 . S
C884 C885 1.367 . S
C884 C892 1.378 . S
C885 C884 1.367 . S
C885 C893 1.433 . S
C886 H882 0.929 . S
C886 C888 1.378 . S
C886 C890 1.350 . S
C887 C890 1.463 . S
C887 C892 1.350 . S
C887 N895 1.427 . S
C888 H879 0.930 . S
C888 C886 1.378 . S
C888 C889 1.367 . S
C889 C888 1.367 . S
C889 C891 1.433 . S
C890 C886 1.350 . S
C890 C887 1.463 . S
C890 N894 1.427 . S
C891 H881 0.929 . S
C891 C889 1.433 . S
C891 N894 1.384 . S
C892 H883 0.929 . S
C892 C884 1.378 . S
C892 C887 1.350 . S
C893 H880 0.929 . S
C893 C885 1.433 . S
C893 N895 1.384 . S
N894 C890 1.427 . S
N894 C891 1.384 . S
N895 C887 1.427 . S
N895 C893 1.384 . S
H896 C902 0.930 . S
H897 C906 0.930 . S
H898 C911 0.929 . S
H899 C909 0.929 . S
H900 C904 0.929 . S
H901 C910 0.929 . S
C902 H896 0.930 . S
C902 C903 1.367 . S
C902 C910 1.378 . S
C903 C902 1.367 . S
C903 C911 1.433 . S
C904 H900 0.929 . S
C904 C906 1.378 . S
C904 C908 1.350 . S
C905 C908 1.463 . S
C905 C910 1.350 . S
C905 N913 1.427 . S
C906 H897 0.930 . S
C906 C904 1.378 . S
C906 C907 1.367 . S
C907 C906 1.367 . S
C907 C909 1.433 . S
C908 C904 1.350 . S
C908 C905 1.463 . S
C908 N912 1.427 . S
C909 H899 0.929 . S
C909 C907 1.433 . S
C909 N912 1.384 . S
C910 H901 0.929 . S
C910 C902 1.378 . S
C910 C905 1.350 . S
C911 H898 0.929 . S
C911 C903 1.433 . S
C911 N913 1.384 . S
N912 C908 1.427 . S
N912 C909 1.384 . S
N913 C905 1.427 . S
N913 C911 1.384 . S
H914 C920 0.930 . S
H915 C924 0.930 . S
H916 C929 0.929 . S
H917 C927 0.929 . S
H918 C922 0.929 . S
H919 C928 0.929 . S
C920 H914 0.930 . S
C920 C921 1.367 . S
C920 C928 1.378 . S
C921 C920 1.367 . S
C921 C929 1.433 . S
C922 H918 0.929 . S
C922 C924 1.378 . S
C922 C926 1.350 . S
C923 C926 1.463 . S
C923 C928 1.350 . S
C923 N931 1.427 . S
C924 H915 0.930 . S
C924 C922 1.378 . S
C924 C925 1.367 . S
C925 C924 1.367 . S
C925 C927 1.433 . S
C926 C922 1.350 . S
C926 C923 1.463 . S
C926 N930 1.427 . S
C927 H917 0.929 . S
C927 C925 1.433 . S
C927 N930 1.384 . S
C928 H919 0.929 . S
C928 C920 1.378 . S
C928 C923 1.350 . S
C929 H916 0.929 . S
C929 C921 1.433 . S
C929 N931 1.384 . S
N930 C926 1.427 . S
N930 C927 1.384 . S
N931 C923 1.427 . S
N931 C929 1.384 . S
H932 C938 0.930 . S
H933 C942 0.930 . S
H934 C947 0.929 . S
H935 C945 0.929 . S
H936 C940 0.929 . S
H937 C946 0.929 . S
C938 H932 0.930 . S
C938 C939 1.367 . S
C938 C946 1.378 . S
C939 C938 1.367 . S
C939 C947 1.433 . S
C940 H936 0.929 . S
C940 C942 1.378 . S
C940 C944 1.350 . S
C941 C944 1.463 . S
C941 C946 1.350 . S
C941 N949 1.427 . S
C942 H933 0.930 . S
C942 C940 1.378 . S
C942 C943 1.367 . S
C943 C942 1.367 . S
C943 C945 1.433 . S
C944 C940 1.350 . S
C944 C941 1.463 . S
C944 N948 1.427 . S
C945 H935 0.929 . S
C945 C943 1.433 . S
C945 N948 1.384 . S
C946 H937 0.929 . S
C946 C938 1.378 . S
C946 C941 1.350 . S
C947 H934 0.929 . S
C947 C939 1.433 . S
C947 N949 1.384 . S
N948 C944 1.427 . S
N948 C945 1.384 . S
N949 C941 1.427 . S
N949 C947 1.384 . S
H950 C956 0.930 . S
H951 C960 0.930 . S
H952 C965 0.929 . S
H953 C963 0.929 . S
H954 C958 0.929 . S
H955 C964 0.929 . S
C956 H950 0.930 . S
C956 C957 1.367 . S
C956 C964 1.378 . S
C957 C956 1.367 . S
C957 C965 1.433 . S
C958 H954 0.929 . S
C958 C960 1.378 . S
C958 C962 1.350 . S
C959 C962 1.463 . S
C959 C964 1.350 . S
C959 N967 1.427 . S
C960 H951 0.930 . S
C960 C958 1.378 . S
C960 C961 1.367 . S
C961 C960 1.367 . S
C961 C963 1.433 . S
C962 C958 1.350 . S
C962 C959 1.463 . S
C962 N966 1.427 . S
C963 H953 0.929 . S
C963 C961 1.433 . S
C963 N966 1.384 . S
C964 H955 0.929 . S
C964 C956 1.378 . S
C964 C959 1.350 . S
C965 H952 0.929 . S
C965 C957 1.433 . S
C965 N967 1.384 . S
N966 C962 1.427 . S
N966 C963 1.384 . S
N967 C959 1.427 . S
N967 C965 1.384 . S
H968 C974 0.930 . S
H969 C978 0.930 . S
H970 C983 0.929 . S
H971 C981 0.929 . S
H972 C976 0.929 . S
H973 C982 0.929 . S
C974 H968 0.930 . S
C974 C975 1.367 . S
C974 C982 1.378 . S
C975 C974 1.367 . S
C975 C983 1.433 . S
C976 H972 0.929 . S
C976 C978 1.378 . S
C976 C980 1.350 . S
C977 C980 1.463 . S
C977 C982 1.350 . S
C977 N985 1.427 . S
C978 H969 0.930 . S
C978 C976 1.378 . S
C978 C979 1.367 . S
C979 C978 1.367 . S
C979 C981 1.433 . S
C980 C976 1.350 . S
C980 C977 1.463 . S
C980 N984 1.427 . S
C981 H971 0.929 . S
C981 C979 1.433 . S
C981 N984 1.384 . S
C982 H973 0.929 . S
C982 C974 1.378 . S
C982 C977 1.350 . S
C983 H970 0.929 . S
C983 C975 1.433 . S
C983 N985 1.384 . S
N984 C980 1.427 . S
N984 C981 1.384 . S
N985 C977 1.427 . S
N985 C983 1.384 . S
H986 C992 0.930 . S
H987 C996 0.930 . S
H988 C1001 0.929 . S
H989 C999 0.929 . S
H990 C994 0.929 . S
H991 C1000 0.929 . S
C992 H986 0.930 . S
C992 C993 1.367 . S
C992 C1000 1.378 . S
C993 C992 1.367 . S
C993 C1001 1.433 1_554 S
C994 H990 0.929 . S
C994 C996 1.378 . S
C994 C998 1.350 1_556 S
C995 C998 1.463 . S
C995 C1000 1.350 . S
C995 N1003 1.427 1_554 S
C996 H987 0.930 . S
C996 C994 1.378 . S
C996 C997 1.367 1_556 S
C997 C996 1.367 1_554 S
C997 C999 1.433 . S
C998 C994 1.350 1_554 S
C998 C995 1.463 . S
C998 N1002 1.427 . S
C999 H989 0.929 . S
C999 C997 1.433 . S
C999 N1002 1.384 . S
C1000 H991 0.929 . S
C1000 C992 1.378 . S
C1000 C995 1.350 . S
C1001 H988 0.929 . S
C1001 C993 1.433 1_556 S
C1001 N1003 1.384 . S
N1002 C998 1.427 . S
N1002 C999 1.384 . S
N1003 C995 1.427 1_556 S
N1003 C1001 1.384 . S
H1004 C1010 0.930 . S
H1005 C1014 0.930 . S
H1006 C1019 0.929 . S
H1007 C1017 0.929 . S
H1008 C1012 0.929 . S
H1009 C1018 0.929 . S
C1010 H1004 0.930 . S
C1010 C1011 1.367 . S
C1010 C1018 1.378 . S
C1011 C1010 1.367 . S
C1011 C1019 1.433 . S
C1012 H1008 0.929 . S
C1012 C1014 1.378 . S
C1012 C1016 1.350 . S
C1013 C1016 1.463 . S
C1013 C1018 1.350 . S
C1013 N1021 1.427 . S
C1014 H1005 0.930 . S
C1014 C1012 1.378 . S
C1014 C1015 1.367 . S
C1015 C1014 1.367 . S
C1015 C1017 1.433 . S
C1016 C1012 1.350 . S
C1016 C1013 1.463 . S
C1016 N1020 1.427 . S
C1017 H1007 0.929 . S
C1017 C1015 1.433 . S
C1017 N1020 1.384 . S
C1018 H1009 0.929 . S
C1018 C1010 1.378 . S
C1018 C1013 1.350 . S
C1019 H1006 0.929 . S
C1019 C1011 1.433 . S
C1019 N1021 1.384 . S
N1020 C1016 1.427 . S
N1020 C1017 1.384 . S
N1021 C1013 1.427 . S
N1021 C1019 1.384 . S
H1022 C1028 0.930 . S
H1023 C1032 0.930 . S
H1024 C1037 0.929 . S
H1025 C1035 0.929 . S
H1026 C1030 0.929 . S
H1027 C1036 0.929 . S
C1028 H1022 0.930 . S
C1028 C1029 1.367 . S
C1028 C1036 1.378 . S
C1029 C1028 1.367 . S
C1029 C1037 1.433 . S
C1030 H1026 0.929 . S
C1030 C1032 1.378 . S
C1030 C1034 1.350 . S
C1031 C1034 1.463 . S
C1031 C1036 1.350 . S
C1031 N1039 1.427 . S
C1032 H1023 0.930 . S
C1032 C1030 1.378 . S
C1032 C1033 1.367 . S
C1033 C1032 1.367 . S
C1033 C1035 1.433 . S
C1034 C1030 1.350 . S
C1034 C1031 1.463 . S
C1034 N1038 1.427 . S
C1035 H1025 0.929 . S
C1035 C1033 1.433 . S
C1035 N1038 1.384 . S
C1036 H1027 0.929 . S
C1036 C1028 1.378 . S
C1036 C1031 1.350 . S
C1037 H1024 0.929 . S
C1037 C1029 1.433 . S
C1037 N1039 1.384 . S
N1038 C1034 1.427 . S
N1038 C1035 1.384 . S
N1039 C1031 1.427 . S
N1039 C1037 1.384 . S
H1040 C1046 0.930 . S
H1041 C1050 0.930 . S
H1042 C1055 0.929 . S
H1043 C1053 0.929 . S
H1044 C1048 0.929 . S
H1045 C1054 0.929 . S
C1046 H1040 0.930 . S
C1046 C1047 1.367 . S
C1046 C1054 1.378 . S
C1047 C1046 1.367 . S
C1047 C1055 1.433 . S
C1048 H1044 0.929 . S
C1048 C1050 1.378 . S
C1048 C1052 1.350 . S
C1049 C1052 1.463 . S
C1049 C1054 1.350 . S
C1049 N1057 1.427 . S
C1050 H1041 0.930 . S
C1050 C1048 1.378 . S
C1050 C1051 1.367 . S
C1051 C1050 1.367 . S
C1051 C1053 1.433 . S
C1052 C1048 1.350 . S
C1052 C1049 1.463 . S
C1052 N1056 1.427 . S
C1053 H1043 0.929 . S
C1053 C1051 1.433 . S
C1053 N1056 1.384 . S
C1054 H1045 0.929 . S
C1054 C1046 1.378 . S
C1054 C1049 1.350 . S
C1055 H1042 0.929 . S
C1055 C1047 1.433 . S
C1055 N1057 1.384 . S
N1056 C1052 1.427 . S
N1056 C1053 1.384 . S
N1057 C1049 1.427 . S
N1057 C1055 1.384 . S
H1058 C1064 0.930 . S
H1059 C1068 0.930 . S
H1060 C1073 0.929 . S
H1061 C1071 0.929 . S
H1062 C1066 0.929 . S
H1063 C1072 0.929 . S
C1064 H1058 0.930 . S
C1064 C1065 1.367 . S
C1064 C1072 1.378 . S
C1065 C1064 1.367 . S
C1065 C1073 1.433 . S
C1066 H1062 0.929 . S
C1066 C1068 1.378 . S
C1066 C1070 1.350 . S
C1067 C1070 1.463 . S
C1067 C1072 1.350 . S
C1067 N1075 1.427 . S
C1068 H1059 0.930 . S
C1068 C1066 1.378 . S
C1068 C1069 1.367 . S
C1069 C1068 1.367 . S
C1069 C1071 1.433 . S
C1070 C1066 1.350 . S
C1070 C1067 1.463 . S
C1070 N1074 1.427 . S
C1071 H1061 0.929 . S
C1071 C1069 1.433 . S
C1071 N1074 1.384 . S
C1072 H1063 0.929 . S
C1072 C1064 1.378 . S
C1072 C1067 1.350 . S
C1073 H1060 0.929 . S
C1073 C1065 1.433 . S
C1073 N1075 1.384 . S
N1074 C1070 1.427 . S
N1074 C1071 1.384 . S
N1075 C1067 1.427 . S
N1075 C1073 1.384 . S
H1076 C1082 0.930 . S
H1077 C1086 0.930 . S
H1078 C1091 0.929 . S
H1079 C1089 0.929 . S
H1080 C1084 0.929 . S
H1081 C1090 0.929 . S
C1082 H1076 0.930 . S
C1082 C1083 1.367 . S
C1082 C1090 1.378 . S
C1083 C1082 1.367 . S
C1083 C1091 1.433 1_556 S
C1084 H1080 0.929 . S
C1084 C1086 1.378 . S
C1084 C1088 1.350 1_554 S
C1085 C1088 1.463 . S
C1085 C1090 1.350 . S
C1085 N1093 1.427 1_556 S
C1086 H1077 0.930 . S
C1086 C1084 1.378 . S
C1086 C1087 1.367 1_554 S
C1087 C1086 1.367 1_556 S
C1087 C1089 1.433 . S
C1088 C1084 1.350 1_556 S
C1088 C1085 1.463 . S
C1088 N1092 1.427 . S
C1089 H1079 0.929 . S
C1089 C1087 1.433 . S
C1089 N1092 1.384 . S
C1090 H1081 0.929 . S
C1090 C1082 1.378 . S
C1090 C1085 1.350 . S
C1091 H1078 0.929 . S
C1091 C1083 1.433 1_554 S
C1091 N1093 1.384 . S
N1092 C1088 1.427 . S
N1092 C1089 1.384 . S
N1093 C1085 1.427 1_554 S
N1093 C1091 1.384 . S
H1094 C1100 0.930 . S
H1095 C1104 0.930 . S
H1096 C1109 0.929 . S
H1097 C1107 0.929 . S
H1098 C1102 0.929 . S
H1099 C1108 0.929 . S
C1100 H1094 0.930 . S
C1100 C1101 1.367 . S
C1100 C1108 1.378 . S
C1101 C1100 1.367 . S
C1101 C1109 1.433 . S
C1102 H1098 0.929 . S
C1102 C1104 1.378 . S
C1102 C1106 1.350 . S
C1103 C1106 1.463 . S
C1103 C1108 1.350 . S
C1103 N1111 1.427 . S
C1104 H1095 0.930 . S
C1104 C1102 1.378 . S
C1104 C1105 1.367 . S
C1105 C1104 1.367 . S
C1105 C1107 1.433 . S
C1106 C1102 1.350 . S
C1106 C1103 1.463 . S
C1106 N1110 1.427 . S
C1107 H1097 0.929 . S
C1107 C1105 1.433 . S
C1107 N1110 1.384 . S
C1108 H1099 0.929 . S
C1108 C1100 1.378 . S
C1108 C1103 1.350 . S
C1109 H1096 0.929 . S
C1109 C1101 1.433 . S
C1109 N1111 1.384 . S
N1110 C1106 1.427 . S
N1110 C1107 1.384 . S
N1111 C1103 1.427 . S
N1111 C1109 1.384 . S
H1112 C1118 0.930 . S
H1113 C1122 0.930 . S
H1114 C1127 0.929 . S
H1115 C1125 0.929 . S
H1116 C1120 0.929 . S
H1117 C1126 0.929 . S
C1118 H1112 0.930 . S
C1118 C1119 1.367 . S
C1118 C1126 1.378 . S
C1119 C1118 1.367 . S
C1119 C1127 1.433 . S
C1120 H1116 0.929 . S
C1120 C1122 1.378 . S
C1120 C1124 1.350 . S
C1121 C1124 1.463 . S
C1121 C1126 1.350 . S
C1121 N1129 1.427 . S
C1122 H1113 0.930 . S
C1122 C1120 1.378 . S
C1122 C1123 1.367 . S
C1123 C1122 1.367 . S
C1123 C1125 1.433 . S
C1124 C1120 1.350 . S
C1124 C1121 1.463 . S
C1124 N1128 1.427 . S
C1125 H1115 0.929 . S
C1125 C1123 1.433 . S
C1125 N1128 1.384 . S
C1126 H1117 0.929 . S
C1126 C1118 1.378 . S
C1126 C1121 1.350 . S
C1127 H1114 0.929 . S
C1127 C1119 1.433 . S
C1127 N1129 1.384 . S
N1128 C1124 1.427 . S
N1128 C1125 1.384 . S
N1129 C1121 1.427 . S
N1129 C1127 1.384 . S
H1130 C1136 0.930 . S
H1131 C1140 0.930 . S
H1132 C1145 0.929 . S
H1133 C1143 0.929 . S
H1134 C1138 0.929 . S
H1135 C1144 0.929 . S
C1136 H1130 0.930 . S
C1136 C1137 1.367 . S
C1136 C1144 1.378 . S
C1137 C1136 1.367 . S
C1137 C1145 1.433 . S
C1138 H1134 0.929 . S
C1138 C1140 1.378 . S
C1138 C1142 1.350 . S
C1139 C1142 1.463 . S
C1139 C1144 1.350 . S
C1139 N1147 1.427 . S
C1140 H1131 0.930 . S
C1140 C1138 1.378 . S
C1140 C1141 1.367 . S
C1141 C1140 1.367 . S
C1141 C1143 1.433 . S
C1142 C1138 1.350 . S
C1142 C1139 1.463 . S
C1142 N1146 1.427 . S
C1143 H1133 0.929 . S
C1143 C1141 1.433 . S
C1143 N1146 1.384 . S
C1144 H1135 0.929 . S
C1144 C1136 1.378 . S
C1144 C1139 1.350 . S
C1145 H1132 0.929 . S
C1145 C1137 1.433 . S
C1145 N1147 1.384 . S
N1146 C1142 1.427 . S
N1146 C1143 1.384 . S
N1147 C1139 1.427 . S
N1147 C1145 1.384 . S
H1148 C1154 0.930 . S
H1149 C1158 0.930 . S
H1150 C1163 0.929 . S
H1151 C1161 0.929 . S
H1152 C1156 0.929 . S
H1153 C1162 0.929 . S
C1154 H1148 0.930 . S
C1154 C1155 1.367 . S
C1154 C1162 1.378 . S
C1155 C1154 1.367 . S
C1155 C1163 1.433 . S
C1156 H1152 0.929 . S
C1156 C1158 1.378 . S
C1156 C1160 1.350 . S
C1157 C1160 1.463 . S
C1157 C1162 1.350 . S
C1157 N1165 1.427 . S
C1158 H1149 0.930 . S
C1158 C1156 1.378 . S
C1158 C1159 1.367 . S
C1159 C1158 1.367 . S
C1159 C1161 1.433 . S
C1160 C1156 1.350 . S
C1160 C1157 1.463 . S
C1160 N1164 1.427 . S
C1161 H1151 0.929 . S
C1161 C1159 1.433 . S
C1161 N1164 1.384 . S
C1162 H1153 0.929 . S
C1162 C1154 1.378 . S
C1162 C1157 1.350 . S
C1163 H1150 0.929 . S
C1163 C1155 1.433 . S
C1163 N1165 1.384 . S
N1164 C1160 1.427 . S
N1164 C1161 1.384 . S
N1165 C1157 1.427 . S
N1165 C1163 1.384 . S
H1166 C1172 0.930 . S
H1167 C1176 0.930 . S
H1168 C1181 0.929 . S
H1169 C1179 0.929 . S
H1170 C1174 0.929 . S
H1171 C1180 0.929 . S
C1172 H1166 0.930 . S
C1172 C1173 1.367 . S
C1172 C1180 1.378 . S
C1173 C1172 1.367 . S
C1173 C1181 1.433 . S
C1174 H1170 0.929 . S
C1174 C1176 1.378 . S
C1174 C1178 1.350 . S
C1175 C1178 1.463 . S
C1175 C1180 1.350 . S
C1175 N1183 1.427 . S
C1176 H1167 0.930 . S
C1176 C1174 1.378 . S
C1176 C1177 1.367 . S
C1177 C1176 1.367 . S
C1177 C1179 1.433 . S
C1178 C1174 1.350 . S
C1178 C1175 1.463 . S
C1178 N1182 1.427 . S
C1179 H1169 0.929 . S
C1179 C1177 1.433 . S
C1179 N1182 1.384 . S
C1180 H1171 0.929 . S
C1180 C1172 1.378 . S
C1180 C1175 1.350 . S
C1181 H1168 0.929 . S
C1181 C1173 1.433 . S
C1181 N1183 1.384 . S
N1182 C1178 1.427 . S
N1182 C1179 1.384 . S
N1183 C1175 1.427 . S
N1183 C1181 1.384 . S
C327 C19 0.963 . S
C331 C21 0.954 . S
C345 C59 1.266 . S
C349 C38 1.267 . S
C363 C78 1.410 . S
C367 C49 1.394 . S
C381 C9 1.060 . S
C385 C61 1.044 . S
C399 C8 1.052 . S
C403 C182 1.049 . S
C417 C158 0.962 . S
C421 C22 0.945 . S
C435 C58 1.268 . S
C439 C219 1.264 . S
C453 C79 1.412 . S
C457 C268 1.385 . S
C471 C178 1.267 . S
C475 C39 1.266 . S
C489 C259 1.409 . S
C493 C48 1.393 . S
C507 C288 1.062 . S
C511 C62 1.042 . S
C525 C18 0.963 . S
C529 C222 0.941 . S
C543 C1 0.433 . S
C547 C162 0.427 . S
C561 C249 1.137 . S
C565 C88 1.126 . S
C579 C101 0.422 . S
C583 C282 0.433 . S
C597 C228 1.124 . S
C601 C129 1.139 . S
C615 C41 0.457 . S
C619 C142 0.408 . S
C633 C188 1.132 . S
C637 C89 1.133 . S
C651 C128 1.138 . S
C655 C209 1.125 . S
C669 C118 1.268 . S
C673 C239 1.265 . S
C687 C199 1.416 . S
C691 C108 1.392 . S
C705 C221 0.956 . S
C709 C159 0.962 . S
C723 C119 1.266 . S
C727 C98 1.267 . S
C741 C198 1.414 . S
C745 C169 1.395 . S
C759 C279 1.266 . S
C763 C238 1.268 . S
C777 C138 1.416 . S
C781 C109 1.387 . S
C795 C181 1.057 . S
C799 C289 1.068 . S
C813 C261 0.432 . S
C817 C2 0.432 . S
C831 C42 0.447 . S
C835 C281 0.420 . S
C849 C248 1.123 . S
C853 C29 1.140 . S
C867 C141 0.407 . S
C871 C102 0.453 . S
C885 C69 1.127 . S
C889 C208 1.135 . S
C903 C258 1.416 . S
C907 C269 1.385 . S
C921 C149 1.061 . S
C925 C241 1.043 . S
C939 C122 1.042 . S
C943 C148 1.063 . S
C957 C99 1.267 . S
C961 C278 1.265 . S
C975 C242 1.043 . S
C979 C308 1.058 . S
C993 C302 0.414 . S
C997 C161 0.454 . S
C1011 C28 1.127 . S
C1015 C189 1.135 . S
C1029 C168 1.393 . S
C1033 C139 1.410 . S
C1047 C179 1.267 . S
C1051 C218 1.265 . S
C1065 C309 1.053 . S
C1069 C121 1.049 . S
C1083 C262 0.426 . S
C1087 C301 0.427 . S
C1101 C229 1.130 . S
C1105 C68 1.134 . S
C1119 C201 0.957 . S
C1123 C299 0.962 . S
C1137 C202 0.957 . S
C1141 C318 0.964 . S
C1155 C82 0.945 . S
C1159 C298 0.964 . S
C1173 C319 0.962 . S
C1177 C81 0.940 . S
