# Generated by pormake.
# Topology nov, (5)-cn, num edge types: 1
# Building blocks:
#     Node 0, Type 0, BuildingBlock: XOMCOT_clean_sbu_0, # of connection points: 5
#     Node 1, Type 0, BuildingBlock: XOMCOT_clean_sbu_0, # of connection points: 5
#     Node 2, Type 0, BuildingBlock: XOMCOT_clean_sbu_0, # of connection points: 5
#     Node 3, Type 0, BuildingBlock: XOMCOT_clean_sbu_0, # of connection points: 5
#     Node 4, Type 0, BuildingBlock: XOMCOT_clean_sbu_0, # of connection points: 5
#     Node 5, Type 0, BuildingBlock: XOMCOT_clean_sbu_0, # of connection points: 5
#     Node 6, Type 0, BuildingBlock: XOMCOT_clean_sbu_0, # of connection points: 5
#     Node 7, Type 0, BuildingBlock: XOMCOT_clean_sbu_0, # of connection points: 5
#     Edge 8, Type (0, 0), BuildingBlock: XIVTED_clean_linker_0, # of connection points: 2
#     Edge 9, Type (0, 0), BuildingBlock: XIVTED_clean_linker_0, # of connection points: 2
#     Edge 10, Type (0, 0), BuildingBlock: XIVTED_clean_linker_0, # of connection points: 2
#     Edge 11, Type (0, 0), BuildingBlock: XIVTED_clean_linker_0, # of connection points: 2
#     Edge 12, Type (0, 0), BuildingBlock: XIVTED_clean_linker_0, # of connection points: 2
#     Edge 13, Type (0, 0), BuildingBlock: XIVTED_clean_linker_0, # of connection points: 2
#     Edge 14, Type (0, 0), BuildingBlock: XIVTED_clean_linker_0, # of connection points: 2
#     Edge 15, Type (0, 0), BuildingBlock: XIVTED_clean_linker_0, # of connection points: 2
#     Edge 16, Type (0, 0), BuildingBlock: XIVTED_clean_linker_0, # of connection points: 2
#     Edge 17, Type (0, 0), BuildingBlock: XIVTED_clean_linker_0, # of connection points: 2
#     Edge 18, Type (0, 0), BuildingBlock: XIVTED_clean_linker_0, # of connection points: 2
#     Edge 19, Type (0, 0), BuildingBlock: XIVTED_clean_linker_0, # of connection points: 2
#     Edge 20, Type (0, 0), BuildingBlock: XIVTED_clean_linker_0, # of connection points: 2
#     Edge 21, Type (0, 0), BuildingBlock: XIVTED_clean_linker_0, # of connection points: 2
#     Edge 22, Type (0, 0), BuildingBlock: XIVTED_clean_linker_0, # of connection points: 2
#     Edge 23, Type (0, 0), BuildingBlock: XIVTED_clean_linker_0, # of connection points: 2
#     Edge 24, Type (0, 0), BuildingBlock: XIVTED_clean_linker_0, # of connection points: 2
#     Edge 25, Type (0, 0), BuildingBlock: XIVTED_clean_linker_0, # of connection points: 2
#     Edge 26, Type (0, 0), BuildingBlock: XIVTED_clean_linker_0, # of connection points: 2
#     Edge 27, Type (0, 0), BuildingBlock: XIVTED_clean_linker_0, # of connection points: 2
# Relax obj value: 0.158
# Max RMSD: 0.189
# Mean RMSD: 0.189
data_MOF--net-nov--node1-XOMCOT_clean_sbu_0--edge1-XIVTED_clean_linker_0
_symmetry_space_group_name_H-M    P1
_symmetry_Int_Tables_number       1
_symmetry_cell_setting            triclinic
loop_
_symmetry_equiv_pos_as_xyz
'x, y, z'
_cell_length_a     27.428061
_cell_length_b     54.325255
_cell_length_c     28.337779
_cell_angle_alpha  90.040971
_cell_angle_beta   89.938885
_cell_angle_gamma 89.932553
loop_
_atom_site_label
_atom_site_type_symbol
_atom_site_fract_x
_atom_site_fract_y
_atom_site_fract_z
_atom_type_partial_charge
Co0 Co 0.02628 0.16285 0.15335 0.0
C1 C 0.02546 0.1132 0.10363 0.0
C2 C 0.05326 0.11243 0.17423 0.0
C3 C 0.05322 0.08884 0.15706 0.0
N4 N 0.03648 0.1279 0.14078 0.0
N5 N 0.03558 0.08921 0.11269 0.0
H6 H 0.0092 0.11946 0.07124 0.0
H7 H 0.06462 0.118 0.20918 0.0
C8 C 0.13242 0.15445 0.16283 0.0
O9 O 0.12998 0.14146 0.12377 0.0
N10 N 0.01576 0.19713 0.16915 0.0
C11 C 0.9968 0.2151 0.14197 0.0
C12 C 0.99228 0.23617 0.16887 0.0
C13 C 0.02167 0.20732 0.21222 0.0
N14 N 0.0076 0.23116 0.21307 0.0
C15 C 0.01634 0.16812 0.05336 0.0
C16 C 0.09398 0.19981 0.04052 0.0
C17 C 0.06224 0.19546 1.00273 0.0
C18 C 0.02362 0.17898 0.00933 0.0
C19 C 0.08525 0.18863 0.08416 0.0
N20 N 0.04702 0.17276 0.09022 0.0
H21 H 0.98387 0.15729 0.05843 0.0
H22 H 0.10721 0.19433 0.11375 0.0
H23 H 0.98585 0.21293 0.10557 0.0
H24 H 0.03534 0.19733 0.24249 0.0
O25 O 0.95775 0.15912 0.1412 0.0
O26 O 0.993 0.15366 0.21085 0.0
O27 O 0.09455 0.16521 0.17915 0.0
C28 C 0.95334 0.15366 0.18561 0.0
H29 H 0.06562 0.0727 0.17589 0.0
H30 H 0.97716 0.25356 0.1573 0.0
H31 H 0.12333 0.21303 0.0374 0.0
H32 H 0.99791 0.17529 0.98122 0.0
Co33 Co 0.55068 0.86664 0.6542 0.0
C34 C 0.55201 0.9159 0.60308 0.0
C35 C 0.52569 0.91734 0.67426 0.0
C36 C 0.52586 0.94079 0.65653 0.0
N37 N 0.54161 0.90155 0.64089 0.0
N38 N 0.54257 0.94 0.61181 0.0
H39 H 0.56715 0.90929 0.57036 0.0
H40 H 0.51471 0.91206 0.7095 0.0
C41 C 0.44422 0.87577 0.66304 0.0
O42 O 0.44706 0.8889 0.62422 0.0
N43 N 0.55973 0.83248 0.67074 0.0
C44 C 0.58263 0.81462 0.64629 0.0
C45 C 0.58534 0.79387 0.67435 0.0
C46 C 0.54924 0.82259 0.71311 0.0
N47 N 0.56462 0.79902 0.7165 0.0
C48 C 0.5624 0.86046 0.55455 0.0
C49 C 0.4846 0.82892 0.54152 0.0
C50 C 0.51734 0.83259 0.50418 0.0
C51 C 0.55605 0.84902 0.51088 0.0
C52 C 0.49242 0.84066 0.58483 0.0
N53 N 0.53079 0.85642 0.591 0.0
H54 H 0.59481 0.87133 0.55978 0.0
H55 H 0.4696 0.83548 0.61419 0.0
H56 H 0.59779 0.81676 0.61128 0.0
H57 H 0.53175 0.83276 0.74127 0.0
O58 O 0.61967 0.8698 0.64297 0.0
O59 O 0.58367 0.8758 0.71208 0.0
O60 O 0.4819 0.86486 0.67932 0.0
C61 C 0.62376 0.87524 0.68743 0.0
H62 H 0.51409 0.95714 0.67517 0.0
H63 H 0.60318 0.77674 0.66517 0.0
H64 H 0.45505 0.81581 0.53838 0.0
H65 H 0.58245 0.85228 0.48314 0.0
Co66 Co 0.02952 0.86755 0.86327 0.0
C67 C 0.02759 0.91687 0.91412 0.0
C68 C 0.05339 0.91832 0.84277 0.0
C69 C 0.0526 0.9418 0.86037 0.0
N70 N 0.03836 0.90249 0.87638 0.0
N71 N 0.03619 0.94101 0.90519 0.0
H72 H 0.01251 0.91023 0.9468 0.0
H73 H 0.06402 0.91305 0.80741 0.0
C74 C 0.13516 0.87723 0.8501 0.0
O75 O 0.13353 0.89012 0.88932 0.0
N76 N 0.02026 0.83333 0.84705 0.0
C77 C 1.00039 0.81532 0.87343 0.0
C78 C 0.99604 0.79447 0.84587 0.0
C79 C 0.02715 0.82342 0.80394 0.0
N80 N 0.01255 0.79969 0.80211 0.0
C81 C 0.02389 0.86125 0.96374 0.0
C82 C 0.10301 0.83 0.97158 0.0
C83 C 0.07319 0.83368 0.01118 0.0
C84 C 0.03371 0.84996 0.00703 0.0
C85 C 0.09192 0.84165 0.92897 0.0
N86 N 0.053 0.85732 0.92533 0.0
H87 H 0.99072 0.87178 0.96045 0.0
H88 H 0.11281 0.83653 0.89824 0.0
H89 H 0.9884 0.81739 0.90958 0.0
H90 H 0.0415 0.83363 0.77425 0.0
O91 O 0.96089 0.87038 0.87746 0.0
O92 O 0.99393 0.87664 0.80706 0.0
O93 O 0.09713 0.86614 0.83504 0.0
C94 C 0.95489 0.87586 0.83319 0.0
H95 H 0.06362 0.95818 0.84149 0.0
H96 H 0.97991 0.77719 0.85663 0.0
H97 H 0.13366 0.81744 0.97287 0.0
H98 H 0.00865 0.85276 0.0361 0.0
Co99 Co 0.54782 0.15892 0.35692 0.0
C100 C 0.54885 0.10929 0.40644 0.0
C101 C 0.5209 0.10849 0.3359 0.0
C102 C 0.52109 0.0849 0.35305 0.0
N103 N 0.53769 0.12397 0.36933 0.0
N104 N 0.53883 0.0853 0.39738 0.0
H105 H 0.56518 0.11556 0.43879 0.0
H106 H 0.50945 0.11405 0.30098 0.0
C107 C 0.44164 0.15067 0.34754 0.0
O108 O 0.44415 0.13754 0.38638 0.0
N109 N 0.55837 0.19321 0.34135 0.0
C110 C 0.57739 0.21108 0.36872 0.0
C111 C 0.58273 0.23209 0.34186 0.0
C112 C 0.55322 0.2034 0.2982 0.0
N113 N 0.56787 0.22714 0.29749 0.0
C114 C 0.5581 0.16419 0.45687 0.0
C115 C 0.48055 0.196 0.46997 0.0
C116 C 0.5126 0.19176 0.50755 0.0
C117 C 0.55113 0.17519 0.50085 0.0
C118 C 0.48897 0.1847 0.42636 0.0
N119 N 0.52721 0.16879 0.42015 0.0
H120 H 0.59055 0.15332 0.45168 0.0
H121 H 0.46685 0.19038 0.39688 0.0
H122 H 0.58805 0.20886 0.40519 0.0
H123 H 0.5399 0.19345 0.26774 0.0
O124 O 0.61637 0.15513 0.36893 0.0
O125 O 0.58104 0.14978 0.29928 0.0
O126 O 0.47951 0.16141 0.33126 0.0
C127 C 0.62075 0.14983 0.32442 0.0
H128 H 0.50878 0.06874 0.33423 0.0
H129 H 0.59826 0.24935 0.35357 0.0
H130 H 0.45125 0.20929 0.47318 0.0
H131 H 0.57707 0.17158 0.52881 0.0
Co132 Co 0.51883 0.65698 0.15618 0.0
C133 C 0.52337 0.60834 0.10357 0.0
C134 C 0.55835 0.60814 0.17113 0.0
C135 C 0.5605 0.58479 0.15287 0.0
N136 N 0.5357 0.62314 0.1402 0.0
N137 N 0.53843 0.58485 0.11045 0.0
H138 H 0.50211 0.61399 0.07356 0.0
H139 H 0.57151 0.61375 0.20545 0.0
C140 C 0.62677 0.65514 0.16348 0.0
O141 O 0.62656 0.64507 0.1213 0.0
N142 N 0.50199 0.69008 0.17489 0.0
C143 C 0.4712 0.70562 0.15294 0.0
C144 C 0.4653 0.72625 0.18077 0.0
C145 C 0.51435 0.70129 0.21559 0.0
N146 N 0.49245 0.72346 0.22013 0.0
C147 C 0.51071 0.66422 0.05573 0.0
C148 C 0.57915 0.70135 0.04965 0.0
C149 C 0.55184 0.69548 0.0094 0.0
C150 C 0.51766 0.67639 0.01273 0.0
C151 C 0.57107 0.68873 0.09186 0.0
N152 N 0.53804 0.66992 0.0945 0.0
H153 H 0.48077 0.6515 0.0585 0.0
H154 H 0.58958 0.69518 0.12309 0.0
H155 H 0.45341 0.70195 0.11963 0.0
H156 H 0.53726 0.6929 0.24219 0.0
O157 O 0.45106 0.65051 0.14293 0.0
O158 O 0.48649 0.64484 0.21233 0.0
O159 O 0.58666 0.66159 0.18302 0.0
C160 C 0.44691 0.64415 0.18697 0.0
H161 H 0.57696 0.56895 0.16968 0.0
H162 H 0.44251 0.74198 0.17282 0.0
H163 H 0.60552 0.71617 0.04908 0.0
H164 H 0.49429 0.67187 0.98319 0.0
Co165 Co 0.05611 0.36857 0.65309 0.0
C166 C 0.05168 0.41656 0.60228 0.0
C167 C 0.01067 0.41636 0.66694 0.0
C168 C 0.0087 0.43962 0.64809 0.0
N169 N 0.03749 0.40193 0.63832 0.0
N170 N 0.03458 0.43981 0.60759 0.0
H171 H 0.0753 0.41058 0.57387 0.0
H172 H 0.99472 0.41053 0.7 0.0
C173 C 0.96155 0.34343 0.68025 0.0
O174 O 0.97699 0.32329 0.65927 0.0
N175 N 0.07513 0.33534 0.67034 0.0
C176 C 0.10501 0.31938 0.6479 0.0
C177 C 0.11285 0.29931 0.67669 0.0
C178 C 0.06652 0.32502 0.71283 0.0
N179 N 0.08833 0.30289 0.71735 0.0
C180 C 0.07479 0.35327 0.55806 0.0
C181 C 0.97974 0.34492 0.53063 0.0
C182 C 0.01773 0.33781 0.50034 0.0
C183 C 0.06561 0.34301 0.51385 0.0
C184 C 0.99062 0.35581 0.57435 0.0
N185 N 0.03787 0.35805 0.5892 0.0
H186 H 0.11224 0.35654 0.56759 0.0
H187 H 0.96083 0.36214 0.596 0.0
H188 H 0.12173 0.32221 0.61393 0.0
H189 H 0.04561 0.33391 0.74043 0.0
O190 O 0.12374 0.37644 0.64121 0.0
O191 O 0.08773 0.38014 0.71058 0.0
O192 O 0.98786 0.36291 0.67958 0.0
C193 C 0.12752 0.38187 0.68562 0.0
H194 H 0.98973 0.45524 0.66319 0.0
H195 H 0.13505 0.28339 0.66843 0.0
H196 H 0.94206 0.3421 0.52062 0.0
H197 H 0.09607 0.33825 0.49123 0.0
Co198 Co 0.53274 0.36581 0.85779 0.0
C199 C 0.53531 0.41365 0.90891 0.0
C200 C 0.58071 0.41324 0.84709 0.0
C201 C 0.58197 0.43644 0.8663 0.0
N202 N 0.55164 0.39896 0.87378 0.0
N203 N 0.55328 0.43678 0.90501 0.0
H204 H 0.50949 0.40781 0.93554 0.0
H205 H 0.59864 0.40739 0.81498 0.0
C206 C 0.62711 0.34044 0.82973 0.0
O207 O 0.61123 0.31999 0.8491 0.0
N208 N 0.51335 0.3328 0.83961 0.0
C209 C 0.48394 0.31672 0.86214 0.0
C210 C 0.4756 0.29685 0.83296 0.0
C211 C 0.52125 0.32276 0.79671 0.0
N212 N 0.49935 0.30068 0.79198 0.0
C213 C 0.51267 0.35069 0.95259 0.0
C214 C 0.60683 0.34019 0.98025 0.0
C215 C 0.56818 0.33389 0.01037 0.0
C216 C 0.52083 0.34015 0.99672 0.0
C217 C 0.59703 0.3514 0.9366 0.0
N218 N 0.55006 0.35477 0.92163 0.0
H219 H 0.47551 0.35463 0.94292 0.0
H220 H 0.62742 0.3571 0.91519 0.0
H221 H 0.46795 0.31932 0.89652 0.0
H222 H 0.54178 0.33179 0.76906 0.0
O223 O 0.4651 0.37393 0.86915 0.0
O224 O 0.5019 0.37796 0.80029 0.0
O225 O 0.60115 0.36005 0.83173 0.0
C226 C 0.46189 0.37975 0.8249 0.0
H227 H 0.60227 0.45194 0.85256 0.0
H228 H 0.45361 0.28089 0.84121 0.0
H229 H 0.64421 0.33651 0.99037 0.0
H230 H 0.48992 0.33599 0.01915 0.0
Co231 Co 0.04322 0.66066 0.36043 0.0
C232 C 0.04341 0.61198 0.40995 0.0
C233 C 0.99654 0.61282 0.34937 0.0
C234 C 0.99622 0.5894 0.36755 0.0
N235 N 0.02583 0.62708 0.37599 0.0
N236 N 0.02575 0.58882 0.40553 0.0
H237 H 0.06995 0.61745 0.43607 0.0
H238 H 0.97773 0.61881 0.31789 0.0
C239 C 0.95154 0.68289 0.31572 0.0
O240 O 0.96985 0.70516 0.31589 0.0
N241 N 0.06169 0.69406 0.3433 0.0
C242 C 0.07274 0.71314 0.37183 0.0
C243 C 0.08418 0.73327 0.34437 0.0
C244 C 0.06842 0.70265 0.29899 0.0
N245 N 0.08115 0.72668 0.29855 0.0
C246 C 0.057 0.66861 0.45945 0.0
C247 C 0.97431 0.6964 0.47551 0.0
C248 C 0.0093 0.69463 0.51137 0.0
C249 C 0.0503 0.67982 0.50338 0.0
C250 C 0.98217 0.68469 0.43216 0.0
N251 N 0.02407 0.6717 0.42372 0.0
H252 H 0.09026 0.65847 0.45371 0.0
H253 H 0.95503 0.68716 0.40541 0.0
H254 H 0.07252 0.71274 0.40992 0.0
H255 H 0.06139 0.69184 0.26767 0.0
O256 O 0.11121 0.65372 0.37232 0.0
O257 O 0.0747 0.64866 0.30346 0.0
O258 O 0.97465 0.66481 0.33417 0.0
C259 C 0.11458 0.64745 0.32822 0.0
H260 H 0.97587 0.57395 0.35369 0.0
H261 H 0.09391 0.75135 0.35728 0.0
H262 H 0.94156 0.70726 0.48048 0.0
H263 H 0.07847 0.67797 0.5299 0.0
H264 H 0.03566 0.94138 1.00144 0.0
H265 H 0.03177 0.08861 0.01654 0.0
H266 H 0.02153 0.98876 0.88 0.0
H267 H 0.02503 0.04127 0.13865 0.0
H268 H 0.02642 0.05225 0.96588 0.0
H269 H 0.03014 0.97764 0.05253 0.0
C270 C 0.03097 0.95931 0.98546 0.0
C271 C 0.02967 0.96193 0.93619 0.0
C272 C 0.02592 0.04985 1.0038 0.0
C273 C 0.02391 1.00364 0.99451 0.0
C274 C 0.02874 0.07066 0.03278 0.0
C275 C 0.02939 0.06812 0.08209 0.0
C276 C 0.02387 0.02626 0.02417 0.0
C277 C 0.02579 0.04423 0.10094 0.0
C278 C 0.02806 0.98006 0.01467 0.0
C279 C 0.0239 0.98578 0.91763 0.0
N280 N 0.02348 0.02429 0.07204 0.0
N281 N 0.02155 1.00564 0.9467 0.0
H282 H 0.55021 0.03739 0.3713 0.0
H283 H 0.55691 0.98776 0.63681 0.0
H284 H 0.54273 0.08471 0.49354 0.0
H285 H 0.54206 0.94026 0.51554 0.0
H286 H 0.5602 0.02327 0.58455 0.0
H287 H 0.55548 1.00174 0.42315 0.0
C288 C 0.54952 0.04037 0.40904 0.0
C289 C 0.54537 0.06423 0.42793 0.0
C290 C 0.55634 1.00509 0.56929 0.0
C291 C 0.55216 0.02321 0.48776 0.0
C292 C 0.55419 0.98473 0.59918 0.0
C293 C 0.54848 0.96087 0.58071 0.0
C294 C 0.55292 1.00174 0.52033 0.0
C295 C 0.5466 0.95822 0.53144 0.0
C296 C 0.55281 0.01992 0.43867 0.0
C297 C 0.54604 0.06678 0.47726 0.0
N298 N 0.54853 0.9784 0.503 0.0
N299 N 0.5491 0.04653 0.5054 0.0
H300 H 0.53328 0.58468 0.01466 0.0
H301 H 0.53096 0.43708 0.99855 0.0
H302 H 0.52977 0.53695 0.13615 0.0
H303 H 0.55289 0.48481 0.87886 0.0
H304 H 0.52021 0.4735 0.04872 0.0
H305 H 0.5301 0.54834 0.96342 0.0
C306 C 0.53129 0.56659 0.03054 0.0
C307 C 0.53238 0.56386 0.07975 0.0
C308 C 0.52718 0.47598 0.01141 0.0
C309 C 0.52906 0.52216 0.02145 0.0
C310 C 0.53306 0.45518 0.98276 0.0
C311 C 0.54345 0.45787 0.93455 0.0
C312 C 0.5314 0.49964 0.99164 0.0
C313 C 0.54599 0.48183 0.91599 0.0
C314 C 0.52978 0.54583 1.00132 0.0
C315 C 0.53003 0.53992 0.09842 0.0
N316 N 0.54021 0.50174 0.94453 0.0
N317 N 0.52869 0.52004 0.06932 0.0
H318 H 0.04625 0.44026 0.51229 0.0
H319 H 0.04772 0.58798 0.49903 0.0
H320 H 0.04059 0.4876 0.63436 0.0
H321 H 0.02711 0.54097 0.37802 0.0
H322 H 0.05776 0.55128 0.54844 0.0
H323 H 0.05178 0.47686 0.46176 0.0
C324 C 0.04674 0.45832 0.52845 0.0
C325 C 0.0423 0.46089 0.57752 0.0
C326 C 0.05129 0.54901 0.511 0.0
C327 C 0.04846 0.50282 0.52015 0.0
C328 C 0.04586 0.56997 0.48278 0.0
C329 C 0.03595 0.56756 0.43445 0.0
C330 C 0.04717 0.52546 0.49067 0.0
C331 C 0.03368 0.54371 0.41528 0.0
C332 C 0.0496 0.47921 0.49965 0.0
C333 C 0.04291 0.48477 0.59664 0.0
N334 N 0.03903 0.52363 0.44342 0.0
N335 N 0.04571 0.50476 0.56797 0.0
H336 H 0.37282 0.11505 0.34018 0.0
H337 H 0.16855 0.19243 0.21563 0.0
H338 H 0.40583 0.18915 0.29585 0.0
H339 H 0.20009 0.11824 0.17049 0.0
H340 H 0.24513 0.19254 0.2611 0.0
H341 H 0.29716 0.11669 0.2942 0.0
C342 C 0.36383 0.13173 0.32111 0.0
C343 C 0.39537 0.15199 0.32157 0.0
C344 C 0.2351 0.17635 0.24101 0.0
C345 C 0.30912 0.15406 0.26999 0.0
C346 C 0.19162 0.17623 0.21535 0.0
C347 C 0.17844 0.15533 0.18926 0.0
C348 C 0.26431 0.15515 0.24162 0.0
C349 C 0.20934 0.13477 0.18987 0.0
C350 C 0.321 0.13257 0.2948 0.0
C351 C 0.38239 0.17312 0.29604 0.0
N352 N 0.25064 0.13506 0.2162 0.0
N353 N 0.33981 0.17374 0.27149 0.0
H354 H 0.4082 0.83757 0.71542 0.0
H355 H 0.20213 0.91363 0.84054 0.0
H356 H 0.37533 0.91157 0.67029 0.0
H357 H 0.17131 0.83914 0.79718 0.0
H358 H 0.27707 0.91266 0.79322 0.0
H359 H 0.33124 0.83699 0.76037 0.0
C360 C 0.38475 0.85364 0.71501 0.0
C361 C 0.39778 0.87463 0.6891 0.0
C362 C 0.25385 0.89656 0.79423 0.0
C363 C 0.31126 0.87425 0.74093 0.0
C364 C 0.21141 0.89702 0.82131 0.0
C365 C 0.1807 0.87643 0.82257 0.0
C366 C 0.2663 0.87511 0.76944 0.0
C367 C 0.19407 0.85541 0.7968 0.0
C368 C 0.34101 0.85324 0.74037 0.0
C369 C 0.3663 0.89498 0.68955 0.0
N370 N 0.23634 0.85515 0.77158 0.0
N371 N 0.32474 0.89443 0.71564 0.0
H372 H 0.86756 0.87677 0.87982 0.0
H373 H 0.71111 0.87968 0.64236 0.0
H374 H 0.93055 0.88336 0.74078 0.0
H375 H 0.64644 0.87982 0.78126 0.0
H376 H 0.7916 0.88315 0.67818 0.0
H377 H 0.78627 0.87995 0.84501 0.0
C378 C 0.86429 0.87906 0.84199 0.0
C379 C 0.90584 0.87966 0.81309 0.0
C380 C 0.75985 0.88261 0.7009 0.0
C381 C 0.81296 0.88317 0.77301 0.0
C382 C 0.71384 0.88061 0.68045 0.0
C383 C 0.67206 0.87932 0.70892 0.0
C384 C 0.76426 0.88312 0.75025 0.0
C385 C 0.67775 0.88072 0.75804 0.0
C386 C 0.81786 0.88089 0.82215 0.0
C387 C 0.89949 0.88274 0.76435 0.0
N388 N 0.72308 0.88234 0.7772 0.0
N389 N 0.85392 0.8842 0.74582 0.0
H390 H 0.64341 0.14373 0.23109 0.0
H391 H 0.93096 0.14566 0.27845 0.0
H392 H 0.70793 0.1463 0.36988 0.0
H393 H 0.86624 0.15027 0.13993 0.0
H394 H 0.84962 0.1404 0.31238 0.0
H395 H 0.72504 0.14052 0.19677 0.0
C396 C 0.67473 0.14337 0.25433 0.0
C397 C 0.66904 0.14552 0.30331 0.0
C398 C 0.85327 0.1424 0.27452 0.0
C399 C 0.76229 0.14198 0.26446 0.0
C400 C 0.89967 0.14537 0.25517 0.0
C401 C 0.9052 0.14863 0.20641 0.0
C402 C 0.81226 0.14269 0.24483 0.0
C403 C 0.86352 0.14802 0.1778 0.0
C404 C 0.72129 0.1416 0.23476 0.0
C405 C 0.71076 0.1449 0.33187 0.0
N406 N 0.81875 0.14527 0.19747 0.0
N407 N 0.75567 0.14335 0.31199 0.0
H408 H 0.8827 0.64892 0.34195 0.0
H409 H 0.71249 0.66772 0.12184 0.0
H410 H 0.90922 0.70786 0.2433 0.0
H411 H 0.64793 0.65356 0.25795 0.0
H412 H 0.79109 0.67513 0.16051 0.0
H413 H 0.80158 0.64289 0.30655 0.0
C414 C 0.87146 0.66053 0.31285 0.0
C415 C 0.90252 0.67896 0.29552 0.0
C416 C 0.75964 0.67044 0.18183 0.0
C417 C 0.8109 0.67182 0.25462 0.0
C418 C 0.71496 0.66612 0.15987 0.0
C419 C 0.67381 0.66008 0.18686 0.0
C420 C 0.7635 0.66797 0.23094 0.0
C421 C 0.67885 0.65834 0.23603 0.0
C422 C 0.82526 0.65717 0.29295 0.0
C423 C 0.88623 0.69356 0.25787 0.0
N424 N 0.72316 0.66196 0.25657 0.0
N425 N 0.84177 0.68947 0.23824 0.0
H426 H 0.90944 0.38321 0.71377 0.0
H427 H 0.68653 0.30139 0.80858 0.0
H428 H 0.90143 0.30429 0.69825 0.0
H429 H 0.68044 0.38064 0.80039 0.0
H430 H 0.76753 0.30234 0.77274 0.0
H431 H 0.82816 0.38289 0.75002 0.0
C432 C 0.89071 0.36581 0.71802 0.0
C433 C 0.91245 0.34374 0.70276 0.0
C434 C 0.74853 0.31955 0.77871 0.0
C435 C 0.81929 0.34325 0.74449 0.0
C436 C 0.7022 0.31903 0.79934 0.0
C437 C 0.67641 0.34097 0.80763 0.0
C438 C 0.76977 0.3422 0.76645 0.0
C439 C 0.69878 0.36325 0.7946 0.0
C440 C 0.8442 0.36566 0.73862 0.0
C441 C 0.88622 0.32178 0.70921 0.0
N442 N 0.74415 0.3633 0.77485 0.0
N443 N 0.84127 0.3221 0.72961 0.0
H444 H 0.43919 0.3862 0.73113 0.0
H445 H 0.15074 0.38809 0.77929 0.0
H446 H 0.37488 0.38611 0.87013 0.0
H447 H 0.21475 0.3871 0.64016 0.0
H448 H 0.23258 0.39182 0.81322 0.0
H449 H 0.35756 0.39097 0.69705 0.0
C450 C 0.40801 0.38751 0.75449 0.0
C451 C 0.4139 0.38562 0.80353 0.0
C452 C 0.22869 0.39102 0.77523 0.0
C453 C 0.32026 0.39084 0.76483 0.0
C454 C 0.18191 0.38899 0.75586 0.0
C455 C 0.17584 0.38715 0.70683 0.0
C456 C 0.26976 0.39117 0.74538 0.0
C457 C 0.21765 0.38834 0.67819 0.0
C458 C 0.36136 0.39014 0.73504 0.0
C459 C 0.37211 0.38735 0.8321 0.0
N460 N 0.26273 0.39008 0.69785 0.0
N461 N 0.32717 0.38968 0.81237 0.0
H462 H 0.13614 0.64017 0.23472 0.0
H463 H 0.42442 0.63572 0.27985 0.0
H464 H 0.20189 0.6414 0.37297 0.0
H465 H 0.35925 0.64088 0.14167 0.0
H466 H 0.34292 0.63199 0.31433 0.0
H467 H 0.21716 0.63471 0.19983 0.0
C468 C 0.16754 0.63898 0.25777 0.0
C469 C 0.16231 0.64141 0.30679 0.0
C470 C 0.34646 0.6337 0.27641 0.0
C471 C 0.25513 0.63534 0.26715 0.0
C472 C 0.39302 0.63575 0.25671 0.0
C473 C 0.39862 0.6388 0.20786 0.0
C474 C 0.3052 0.63474 0.24706 0.0
C475 C 0.35663 0.63872 0.17956 0.0
C476 C 0.21381 0.63595 0.23783 0.0
C477 C 0.20427 0.63978 0.33496 0.0
N478 N 0.31172 0.63692 0.19959 0.0
N479 N 0.24889 0.63701 0.31474 0.0
H480 H 0.15816 0.27138 0.74868 0.0
H481 H 0.9888 0.21811 0.95447 0.0
H482 H 0.01242 0.29726 0.77734 0.0
H483 H 0.1444 0.20643 0.95102 0.0
H484 H 0.99536 0.24349 0.88382 0.0
H485 H 0.15247 0.24403 0.81737 0.0
C486 C 0.12493 0.27121 0.76931 0.0
C487 C 0.08575 0.28666 0.75744 0.0
C488 C 0.0281 0.23534 0.89837 0.0
C489 C 0.07894 0.25548 0.83577 0.0
C490 C 0.02434 0.22064 0.93848 0.0
C491 C 0.06611 0.21 0.95851 0.0
C492 C 0.07395 0.23938 0.87776 0.0
C493 C 0.11133 0.21438 0.9368 0.0
C494 C 0.12181 0.25574 0.8086 0.0
C495 C 0.04369 0.2859 0.78561 0.0
N496 N 0.11406 0.2287 0.89747 0.0
N497 N 0.04134 0.27053 0.82331 0.0
H498 H 0.59132 0.80936 0.45713 0.0
H499 H 0.42264 0.75491 0.25194 0.0
H500 H 0.43586 0.82125 0.45188 0.0
H501 H 0.56918 0.72985 0.27915 0.0
H502 H 0.42843 0.78249 0.3201 0.0
H503 H 0.5855 0.78353 0.38686 0.0
C504 C 0.55598 0.80677 0.44086 0.0
C505 C 0.51402 0.81763 0.46031 0.0
C506 C 0.4593 0.77095 0.31113 0.0
C507 C 0.50704 0.78775 0.37992 0.0
C508 C 0.45615 0.75533 0.27205 0.0
C509 C 0.49551 0.74003 0.25981 0.0
C510 C 0.50233 0.77151 0.33794 0.0
C511 C 0.53781 0.74111 0.28758 0.0
C512 C 0.55264 0.79183 0.40095 0.0
C513 C 0.46908 0.81316 0.4382 0.0
N514 N 0.54015 0.75662 0.32519 0.0
N515 N 0.46678 0.79862 0.3991 0.0
H516 H 0.06314 0.8485 0.10363 0.0
H517 H 0.10469 0.71315 0.20892 0.0
H518 H 0.09841 0.78493 0.01867 0.0
H519 H 0.06803 0.77631 0.29437 0.0
H520 H 0.10701 0.73968 0.13941 0.0
H521 H 0.06916 0.82293 0.17446 0.0
C522 C 0.07232 0.8292 0.09983 0.0
C523 C 0.08029 0.81892 0.05498 0.0
C524 C 0.09869 0.74777 0.17341 0.0
C525 C 0.08735 0.78948 0.13606 0.0
C526 C 0.09714 0.73258 0.21315 0.0
C527 C 0.08587 0.74242 0.2577 0.0
C528 C 0.08875 0.77304 0.17804 0.0
C529 C 0.07729 0.76788 0.26097 0.0
C530 C 0.07592 0.81462 0.14032 0.0
C531 C 0.09263 0.79382 0.0524 0.0
N532 N 0.07862 0.78225 0.2217 0.0
N533 N 0.09552 0.77999 0.09226 0.0
H534 H 0.57401 0.29541 0.73038 0.0
H535 H 0.43112 0.20303 0.56003 0.0
H536 H 0.42901 0.26935 0.76128 0.0
H537 H 0.58656 0.21477 0.55426 0.0
H538 H 0.4271 0.22936 0.63043 0.0
H539 H 0.57678 0.26826 0.66168 0.0
C540 C 0.54264 0.28406 0.72251 0.0
C541 C 0.50119 0.28466 0.75149 0.0
C542 C 0.46208 0.226 0.61387 0.0
C543 C 0.50411 0.25342 0.67301 0.0
C544 C 0.46436 0.21106 0.57369 0.0
C545 C 0.50927 0.20656 0.5515 0.0
C546 C 0.50493 0.23679 0.63146 0.0
C547 C 0.55127 0.2174 0.57067 0.0
C548 C 0.54435 0.26842 0.6835 0.0
C549 C 0.46182 0.26927 0.74007 0.0
N550 N 0.54802 0.23209 0.60931 0.0
N551 N 0.46412 0.25435 0.70154 0.0
H552 H 0.56406 0.74893 0.71965 0.0
H553 H 0.56137 0.74554 1.00248 0.0
H554 H 0.56228 0.81353 0.80828 0.0
H555 H 0.55036 0.68013 0.91665 0.0
H556 H 0.5656 0.77037 0.93107 0.0
H557 H 0.56242 0.72312 0.79058 0.0
C558 C 0.56343 0.7577 0.75394 0.0
C559 C 0.56306 0.78348 0.75785 0.0
C560 C 0.56239 0.75058 0.92772 0.0
C561 C 0.56109 0.75406 0.83923 0.0
C562 C 0.56041 0.73633 0.96859 0.0
C563 C 0.55584 0.71062 0.96571 0.0
C564 C 0.55985 0.73917 0.8833 0.0
C565 C 0.55357 0.69988 0.92061 0.0
C566 C 0.56228 0.74295 0.79443 0.0
C567 C 0.56178 0.7938 0.80332 0.0
N568 N 0.55567 0.71418 0.8812 0.0
N569 N 0.56094 0.77909 0.84206 0.0
H570 H 0.96256 0.29638 0.48834 0.0
H571 H 0.02361 0.28037 0.21372 0.0
H572 H 0.05347 0.34732 0.41187 0.0
H573 H 0.98808 0.21919 0.30412 0.0
H574 H 0.02118 0.30781 0.28257 0.0
H575 H 0.95698 0.27067 0.41719 0.0
C576 C 0.98057 0.30237 0.45631 0.0
C577 C 0.00853 0.32398 0.45595 0.0
C578 C 0.01387 0.28838 0.28729 0.0
C579 C 1.00252 0.29469 0.37467 0.0
C580 C 0.01509 0.27276 0.24804 0.0
C581 C 1.00634 0.24746 0.25329 0.0
C582 C 1.00289 0.27872 0.33202 0.0
C583 C 0.99571 0.23851 0.29864 0.0
C584 C 0.97779 0.28759 0.41593 0.0
C585 C 0.03172 0.33072 0.41367 0.0
N586 N 0.99404 0.25413 0.33621 0.0
N587 N 0.02818 0.31616 0.37474 0.0
H588 H 0.61986 0.29126 0.02253 0.0
H589 H 0.55427 0.27655 0.2965 0.0
H590 H 0.53278 0.34417 0.09865 0.0
H591 H 0.58805 0.21477 0.20667 0.0
H592 H 0.55939 0.30387 0.22773 0.0
H593 H 0.62277 0.26543 0.09362 0.0
C594 C 0.60215 0.29764 0.05448 0.0
C595 C 0.57602 0.31986 0.05475 0.0
C596 C 0.5657 0.28433 0.22311 0.0
C597 C 0.57895 0.29042 0.13594 0.0
C598 C 0.56295 0.26877 0.26232 0.0
C599 C 0.57044 0.24335 0.25722 0.0
C600 C 0.57692 0.27448 0.17855 0.0
C601 C 0.58134 0.2342 0.21204 0.0
C602 C 0.6034 0.2828 0.09482 0.0
C603 C 0.55312 0.3271 0.09691 0.0
N604 N 0.58449 0.24976 0.1745 0.0
N605 N 0.55513 0.31245 0.13578 0.0
H606 H 0.98081 0.74272 0.51978 0.0
H607 H 0.01929 0.74981 0.79973 0.0
H608 H 0.02932 0.68083 0.60283 0.0
H609 H 1.00161 0.81353 0.71065 0.0
H610 H 0.01547 0.72345 0.72956 0.0
H611 H 0.97969 0.76801 0.59106 0.0
C612 C 0.99061 0.73434 0.55313 0.0
C613 C 1.00511 0.70957 0.55527 0.0
C614 C 0.01251 0.74321 0.72541 0.0
C615 C 1.00454 0.73861 0.63714 0.0
C616 C 0.01449 0.75825 0.76545 0.0
C617 C 0.01102 0.78394 0.76109 0.0
C618 C 1.00647 0.75391 0.68066 0.0
C619 C 1.00521 0.79388 0.7157 0.0
C620 C 0.99041 0.74888 0.59378 0.0
C621 C 0.01829 0.69988 0.59944 0.0
N622 N 1.00296 0.77887 0.67736 0.0
N623 N 0.01766 0.71441 0.63861 0.0
loop_
_geom_bond_atom_site_label_1
_geom_bond_atom_site_label_2
_geom_bond_distance
_geom_bond_site_symmetry_2
_ccdc_geom_bond_type
Co0 N4 2.148 . S
Co0 N10 2.128 . S
Co0 N20 2.194 . S
Co0 O25 2.351 1_455 S
Co0 O26 2.155 1_455 S
Co0 O27 2.096 . S
C1 N4 1.301 1_655 S
C1 N5 1.328 1_655 S
C1 H6 0.930 . S
C2 C3 1.333 . S
C2 N4 1.317 . S
C2 H7 0.930 . S
C3 C2 1.333 . S
C3 N5 1.350 . S
C3 H29 0.931 . S
N4 Co0 2.148 . S
N4 C1 1.301 1_455 S
N4 C2 1.317 . S
N5 C1 1.328 1_455 S
N5 C3 1.350 . S
H6 C1 0.930 . S
H7 C2 0.930 . S
C8 O9 1.224 . S
C8 O27 1.247 . S
O9 C8 1.224 . S
N10 Co0 2.128 . S
N10 C11 1.355 1_455 S
N10 C13 1.311 . S
C11 N10 1.355 1_655 S
C11 C12 1.363 . S
C11 H23 0.929 . S
C12 C11 1.363 . S
C12 N14 1.375 1_655 S
C12 H30 0.931 . S
C13 N10 1.311 . S
C13 N14 1.347 . S
C13 H24 0.929 . S
N14 C12 1.375 1_455 S
N14 C13 1.347 . S
C15 C18 1.365 . S
C15 N20 1.328 1_655 S
C15 H21 0.929 . S
C16 C17 1.362 . S
C16 C19 1.378 . S
C16 H31 0.929 . S
C17 C16 1.362 . S
C17 C18 1.366 1_455 S
C18 C15 1.365 . S
C18 C17 1.366 1_655 S
C18 H32 0.930 . S
C19 C16 1.378 . S
C19 N20 1.315 . S
C19 H22 0.930 . S
N20 Co0 2.194 . S
N20 C15 1.328 1_455 S
N20 C19 1.315 . S
H21 C15 0.929 . S
H22 C19 0.930 . S
H23 C11 0.929 . S
H24 C13 0.929 . S
O25 Co0 2.351 1_655 S
O25 C28 1.244 . S
O26 Co0 2.155 1_655 S
O26 C28 1.240 . S
O27 Co0 2.096 . S
O27 C8 1.247 . S
C28 O25 1.244 . S
C28 O26 1.240 . S
H29 C3 0.931 . S
H30 C12 0.931 . S
H31 C16 0.929 . S
H32 C18 0.930 . S
Co33 N37 2.148 . S
Co33 N43 2.128 . S
Co33 N53 2.194 . S
Co33 O58 2.351 . S
Co33 O59 2.155 . S
Co33 O60 2.096 . S
C34 N37 1.301 . S
C34 N38 1.328 . S
C34 H39 0.930 . S
C35 C36 1.333 . S
C35 N37 1.317 . S
C35 H40 0.930 . S
C36 C35 1.333 . S
C36 N38 1.350 . S
C36 H62 0.931 . S
N37 Co33 2.148 . S
N37 C34 1.301 . S
N37 C35 1.317 . S
N38 C34 1.328 . S
N38 C36 1.350 . S
H39 C34 0.930 . S
H40 C35 0.930 . S
C41 O42 1.224 . S
C41 O60 1.247 . S
O42 C41 1.224 . S
N43 Co33 2.128 . S
N43 C44 1.355 . S
N43 C46 1.311 . S
C44 N43 1.355 . S
C44 C45 1.363 . S
C44 H56 0.929 . S
C45 C44 1.363 . S
C45 N47 1.375 . S
C45 H63 0.931 . S
C46 N43 1.311 . S
C46 N47 1.347 . S
C46 H57 0.929 . S
N47 C45 1.375 . S
N47 C46 1.347 . S
C48 C51 1.365 . S
C48 N53 1.328 . S
C48 H54 0.929 . S
C49 C50 1.362 . S
C49 C52 1.378 . S
C49 H64 0.929 . S
C50 C49 1.362 . S
C50 C51 1.366 . S
C51 C48 1.365 . S
C51 C50 1.366 . S
C51 H65 0.930 . S
C52 C49 1.378 . S
C52 N53 1.315 . S
C52 H55 0.930 . S
N53 Co33 2.194 . S
N53 C48 1.328 . S
N53 C52 1.315 . S
H54 C48 0.929 . S
H55 C52 0.930 . S
H56 C44 0.929 . S
H57 C46 0.929 . S
O58 Co33 2.351 . S
O58 C61 1.244 . S
O59 Co33 2.155 . S
O59 C61 1.240 . S
O60 Co33 2.096 . S
O60 C41 1.247 . S
C61 O58 1.244 . S
C61 O59 1.240 . S
H62 C36 0.931 . S
H63 C45 0.931 . S
H64 C49 0.929 . S
H65 C51 0.930 . S
Co66 N70 2.148 . S
Co66 N76 2.128 . S
Co66 N86 2.194 . S
Co66 O91 2.351 1_455 S
Co66 O92 2.155 1_455 S
Co66 O93 2.096 . S
C67 N70 1.301 1_655 S
C67 N71 1.328 1_655 S
C67 H72 0.930 . S
C68 C69 1.333 . S
C68 N70 1.317 . S
C68 H73 0.930 . S
C69 C68 1.333 . S
C69 N71 1.350 . S
C69 H95 0.931 . S
N70 Co66 2.148 . S
N70 C67 1.301 1_455 S
N70 C68 1.317 . S
N71 C67 1.328 1_455 S
N71 C69 1.350 . S
H72 C67 0.930 . S
H73 C68 0.930 . S
C74 O75 1.224 . S
C74 O93 1.247 . S
O75 C74 1.224 . S
N76 Co66 2.128 . S
N76 C77 1.355 1_455 S
N76 C79 1.311 . S
C77 N76 1.355 1_655 S
C77 C78 1.363 . S
C77 H89 0.929 . S
C78 C77 1.363 . S
C78 N80 1.375 1_655 S
C78 H96 0.931 . S
C79 N76 1.311 . S
C79 N80 1.347 . S
C79 H90 0.929 . S
N80 C78 1.375 1_455 S
N80 C79 1.347 . S
C81 C84 1.365 . S
C81 N86 1.328 1_655 S
C81 H87 0.929 . S
C82 C83 1.362 . S
C82 C85 1.378 . S
C82 H97 0.929 . S
C83 C82 1.362 . S
C83 C84 1.366 1_455 S
C84 C81 1.365 . S
C84 C83 1.366 1_655 S
C84 H98 0.930 . S
C85 C82 1.378 . S
C85 N86 1.315 . S
C85 H88 0.930 . S
N86 Co66 2.194 . S
N86 C81 1.328 1_455 S
N86 C85 1.315 . S
H87 C81 0.929 . S
H88 C85 0.930 . S
H89 C77 0.929 . S
H90 C79 0.929 . S
O91 Co66 2.351 1_655 S
O91 C94 1.244 . S
O92 Co66 2.155 1_655 S
O92 C94 1.240 . S
O93 Co66 2.096 . S
O93 C74 1.247 . S
C94 O91 1.244 . S
C94 O92 1.240 . S
H95 C69 0.931 . S
H96 C78 0.931 . S
H97 C82 0.929 . S
H98 C84 0.930 . S
Co99 N103 2.148 . S
Co99 N109 2.128 . S
Co99 N119 2.194 . S
Co99 O124 2.351 . S
Co99 O125 2.155 . S
Co99 O126 2.096 . S
C100 N103 1.301 . S
C100 N104 1.328 . S
C100 H105 0.930 . S
C101 C102 1.333 . S
C101 N103 1.317 . S
C101 H106 0.930 . S
C102 C101 1.333 . S
C102 N104 1.350 . S
C102 H128 0.931 . S
N103 Co99 2.148 . S
N103 C100 1.301 . S
N103 C101 1.317 . S
N104 C100 1.328 . S
N104 C102 1.350 . S
H105 C100 0.930 . S
H106 C101 0.930 . S
C107 O108 1.224 . S
C107 O126 1.247 . S
O108 C107 1.224 . S
N109 Co99 2.128 . S
N109 C110 1.355 . S
N109 C112 1.311 . S
C110 N109 1.355 . S
C110 C111 1.363 . S
C110 H122 0.929 . S
C111 C110 1.363 . S
C111 N113 1.375 . S
C111 H129 0.931 . S
C112 N109 1.311 . S
C112 N113 1.347 . S
C112 H123 0.929 . S
N113 C111 1.375 . S
N113 C112 1.347 . S
C114 C117 1.365 . S
C114 N119 1.328 . S
C114 H120 0.929 . S
C115 C116 1.362 . S
C115 C118 1.378 . S
C115 H130 0.929 . S
C116 C115 1.362 . S
C116 C117 1.366 . S
C117 C114 1.365 . S
C117 C116 1.366 . S
C117 H131 0.930 . S
C118 C115 1.378 . S
C118 N119 1.315 . S
C118 H121 0.930 . S
N119 Co99 2.194 . S
N119 C114 1.328 . S
N119 C118 1.315 . S
H120 C114 0.929 . S
H121 C118 0.930 . S
H122 C110 0.929 . S
H123 C112 0.929 . S
O124 Co99 2.351 . S
O124 C127 1.244 . S
O125 Co99 2.155 . S
O125 C127 1.240 . S
O126 Co99 2.096 . S
O126 C107 1.247 . S
C127 O124 1.244 . S
C127 O125 1.240 . S
H128 C102 0.931 . S
H129 C111 0.931 . S
H130 C115 0.929 . S
H131 C117 0.930 . S
Co132 N136 2.148 . S
Co132 N142 2.128 . S
Co132 N152 2.194 . S
Co132 O157 2.351 . S
Co132 O158 2.155 . S
Co132 O159 2.096 . S
C133 N136 1.301 . S
C133 N137 1.328 . S
C133 H138 0.930 . S
C134 C135 1.333 . S
C134 N136 1.317 . S
C134 H139 0.930 . S
C135 C134 1.333 . S
C135 N137 1.350 . S
C135 H161 0.931 . S
N136 Co132 2.148 . S
N136 C133 1.301 . S
N136 C134 1.317 . S
N137 C133 1.328 . S
N137 C135 1.350 . S
H138 C133 0.930 . S
H139 C134 0.930 . S
C140 O141 1.224 . S
C140 O159 1.247 . S
O141 C140 1.224 . S
N142 Co132 2.128 . S
N142 C143 1.355 . S
N142 C145 1.311 . S
C143 N142 1.355 . S
C143 C144 1.363 . S
C143 H155 0.929 . S
C144 C143 1.363 . S
C144 N146 1.375 . S
C144 H162 0.931 . S
C145 N142 1.311 . S
C145 N146 1.347 . S
C145 H156 0.929 . S
N146 C144 1.375 . S
N146 C145 1.347 . S
C147 C150 1.365 . S
C147 N152 1.328 . S
C147 H153 0.929 . S
C148 C149 1.362 . S
C148 C151 1.378 . S
C148 H163 0.929 . S
C149 C148 1.362 . S
C149 C150 1.366 . S
C150 C147 1.365 . S
C150 C149 1.366 . S
C150 H164 0.930 . S
C151 C148 1.378 . S
C151 N152 1.315 . S
C151 H154 0.930 . S
N152 Co132 2.194 . S
N152 C147 1.328 . S
N152 C151 1.315 . S
H153 C147 0.929 . S
H154 C151 0.930 . S
H155 C143 0.929 . S
H156 C145 0.929 . S
O157 Co132 2.351 . S
O157 C160 1.244 . S
O158 Co132 2.155 . S
O158 C160 1.240 . S
O159 Co132 2.096 . S
O159 C140 1.247 . S
C160 O157 1.244 . S
C160 O158 1.240 . S
H161 C135 0.931 . S
H162 C144 0.931 . S
H163 C148 0.929 . S
H164 C150 0.930 . S
Co165 N169 2.148 . S
Co165 N175 2.128 . S
Co165 N185 2.194 . S
Co165 O190 2.351 . S
Co165 O191 2.155 . S
Co165 O192 2.096 1_455 S
C166 N169 1.301 . S
C166 N170 1.328 . S
C166 H171 0.930 . S
C167 C168 1.333 . S
C167 N169 1.317 . S
C167 H172 0.930 1_455 S
C168 C167 1.333 . S
C168 N170 1.350 . S
C168 H194 0.931 1_455 S
N169 Co165 2.148 . S
N169 C166 1.301 . S
N169 C167 1.317 . S
N170 C166 1.328 . S
N170 C168 1.350 . S
H171 C166 0.930 . S
H172 C167 0.930 1_655 S
C173 O174 1.224 . S
C173 O192 1.247 . S
O174 C173 1.224 . S
N175 Co165 2.128 . S
N175 C176 1.355 . S
N175 C178 1.311 . S
C176 N175 1.355 . S
C176 C177 1.363 . S
C176 H188 0.929 . S
C177 C176 1.363 . S
C177 N179 1.375 . S
C177 H195 0.931 . S
C178 N175 1.311 . S
C178 N179 1.347 . S
C178 H189 0.929 . S
N179 C177 1.375 . S
N179 C178 1.347 . S
C180 C183 1.365 . S
C180 N185 1.328 . S
C180 H186 0.929 . S
C181 C182 1.362 . S
C181 C184 1.378 . S
C181 H196 0.929 1_455 S
C182 C181 1.362 . S
C182 C183 1.366 . S
C183 C180 1.365 . S
C183 C182 1.366 . S
C183 H197 0.930 . S
C184 C181 1.378 . S
C184 N185 1.315 . S
C184 H187 0.930 1_455 S
N185 Co165 2.194 . S
N185 C180 1.328 . S
N185 C184 1.315 . S
H186 C180 0.929 . S
H187 C184 0.930 1_655 S
H188 C176 0.929 . S
H189 C178 0.929 . S
O190 Co165 2.351 . S
O190 C193 1.244 . S
O191 Co165 2.155 . S
O191 C193 1.240 . S
O192 Co165 2.096 1_655 S
O192 C173 1.247 . S
C193 O190 1.244 . S
C193 O191 1.240 . S
H194 C168 0.931 1_655 S
H195 C177 0.931 . S
H196 C181 0.929 1_655 S
H197 C183 0.930 . S
Co198 N202 2.148 . S
Co198 N208 2.128 . S
Co198 N218 2.194 . S
Co198 O223 2.351 . S
Co198 O224 2.155 . S
Co198 O225 2.096 . S
C199 N202 1.301 . S
C199 N203 1.328 . S
C199 H204 0.930 . S
C200 C201 1.333 . S
C200 N202 1.317 . S
C200 H205 0.930 . S
C201 C200 1.333 . S
C201 N203 1.350 . S
C201 H227 0.931 . S
N202 Co198 2.148 . S
N202 C199 1.301 . S
N202 C200 1.317 . S
N203 C199 1.328 . S
N203 C201 1.350 . S
H204 C199 0.930 . S
H205 C200 0.930 . S
C206 O207 1.224 . S
C206 O225 1.247 . S
O207 C206 1.224 . S
N208 Co198 2.128 . S
N208 C209 1.355 . S
N208 C211 1.311 . S
C209 N208 1.355 . S
C209 C210 1.363 . S
C209 H221 0.929 . S
C210 C209 1.363 . S
C210 N212 1.375 . S
C210 H228 0.931 . S
C211 N208 1.311 . S
C211 N212 1.347 . S
C211 H222 0.929 . S
N212 C210 1.375 . S
N212 C211 1.347 . S
C213 C216 1.365 . S
C213 N218 1.328 . S
C213 H219 0.929 . S
C214 C215 1.362 . S
C214 C217 1.378 . S
C214 H229 0.929 . S
C215 C214 1.362 . S
C215 C216 1.366 . S
C216 C213 1.365 . S
C216 C215 1.366 . S
C216 H230 0.930 . S
C217 C214 1.378 . S
C217 N218 1.315 . S
C217 H220 0.930 . S
N218 Co198 2.194 . S
N218 C213 1.328 . S
N218 C217 1.315 . S
H219 C213 0.929 . S
H220 C217 0.930 . S
H221 C209 0.929 . S
H222 C211 0.929 . S
O223 Co198 2.351 . S
O223 C226 1.244 . S
O224 Co198 2.155 . S
O224 C226 1.240 . S
O225 Co198 2.096 . S
O225 C206 1.247 . S
C226 O223 1.244 . S
C226 O224 1.240 . S
H227 C201 0.931 . S
H228 C210 0.931 . S
H229 C214 0.929 . S
H230 C216 0.930 . S
Co231 N235 2.148 . S
Co231 N241 2.128 . S
Co231 N251 2.194 . S
Co231 O256 2.351 . S
Co231 O257 2.155 . S
Co231 O258 2.096 1_455 S
C232 N235 1.301 . S
C232 N236 1.328 . S
C232 H237 0.930 . S
C233 C234 1.333 . S
C233 N235 1.317 . S
C233 H238 0.930 1_455 S
C234 C233 1.333 . S
C234 N236 1.350 . S
C234 H260 0.931 1_455 S
N235 Co231 2.148 . S
N235 C232 1.301 . S
N235 C233 1.317 . S
N236 C232 1.328 . S
N236 C234 1.350 . S
H237 C232 0.930 . S
H238 C233 0.930 1_655 S
C239 O240 1.224 . S
C239 O258 1.247 . S
O240 C239 1.224 . S
N241 Co231 2.128 . S
N241 C242 1.355 . S
N241 C244 1.311 . S
C242 N241 1.355 . S
C242 C243 1.363 . S
C242 H254 0.929 . S
C243 C242 1.363 . S
C243 N245 1.375 . S
C243 H261 0.931 . S
C244 N241 1.311 . S
C244 N245 1.347 . S
C244 H255 0.929 . S
N245 C243 1.375 . S
N245 C244 1.347 . S
C246 C249 1.365 . S
C246 N251 1.328 . S
C246 H252 0.929 . S
C247 C248 1.362 . S
C247 C250 1.378 . S
C247 H262 0.929 1_455 S
C248 C247 1.362 . S
C248 C249 1.366 . S
C249 C246 1.365 . S
C249 C248 1.366 . S
C249 H263 0.930 . S
C250 C247 1.378 . S
C250 N251 1.315 . S
C250 H253 0.930 1_455 S
N251 Co231 2.194 . S
N251 C246 1.328 . S
N251 C250 1.315 . S
H252 C246 0.929 . S
H253 C250 0.930 1_655 S
H254 C242 0.929 . S
H255 C244 0.929 . S
O256 Co231 2.351 . S
O256 C259 1.244 . S
O257 Co231 2.155 . S
O257 C259 1.240 . S
O258 Co231 2.096 1_655 S
O258 C239 1.247 . S
C259 O256 1.244 . S
C259 O257 1.240 . S
H260 C234 0.931 1_655 S
H261 C243 0.931 . S
H262 C247 0.929 1_655 S
H263 C249 0.930 . S
H264 C270 0.930 1_554 S
H265 C274 0.930 1_556 S
H266 C279 0.929 . S
H267 C277 0.929 . S
H268 C272 0.929 . S
H269 C278 0.929 . S
C270 H264 0.930 1_556 S
C270 C271 1.367 1_655 S
C270 C278 1.378 1_556 S
C271 C270 1.367 1_455 S
C271 C279 1.433 . S
C272 H268 0.929 . S
C272 C274 1.378 1_556 S
C272 C276 1.350 1_556 S
C273 C276 1.463 1_566 S
C273 C278 1.350 1_456 S
C273 N281 1.427 . S
C274 H265 0.930 1_554 S
C274 C272 1.378 1_554 S
C274 C275 1.367 . S
C275 C274 1.367 . S
C275 C277 1.433 1_455 S
C276 C272 1.350 1_554 S
C276 C273 1.463 1_544 S
C276 N280 1.427 1_455 S
C277 H267 0.929 . S
C277 C275 1.433 1_655 S
C277 N280 1.384 . S
C278 H269 0.929 . S
C278 C270 1.378 1_554 S
C278 C273 1.350 1_654 S
C279 H266 0.929 . S
C279 C271 1.433 . S
C279 N281 1.384 . S
N280 C276 1.427 1_655 S
N280 C277 1.384 . S
N281 C273 1.427 . S
N281 C279 1.384 . S
H282 C288 0.930 . S
H283 C292 0.930 . S
H284 C297 0.929 . S
H285 C295 0.929 . S
H286 C290 0.929 . S
H287 C296 0.929 . S
C288 H282 0.930 . S
C288 C289 1.367 . S
C288 C296 1.378 . S
C289 C288 1.367 . S
C289 C297 1.433 . S
C290 H286 0.929 . S
C290 C292 1.378 . S
C290 C294 1.350 . S
C291 C294 1.463 1_545 S
C291 C296 1.350 . S
C291 N299 1.427 . S
C292 H283 0.930 . S
C292 C290 1.378 . S
C292 C293 1.367 . S
C293 C292 1.367 . S
C293 C295 1.433 . S
C294 C290 1.350 . S
C294 C291 1.463 1_565 S
C294 N298 1.427 . S
C295 H285 0.929 . S
C295 C293 1.433 . S
C295 N298 1.384 . S
C296 H287 0.929 . S
C296 C288 1.378 . S
C296 C291 1.350 . S
C297 H284 0.929 . S
C297 C289 1.433 . S
C297 N299 1.384 . S
N298 C294 1.427 . S
N298 C295 1.384 . S
N299 C291 1.427 . S
N299 C297 1.384 . S
H300 C306 0.930 . S
H301 C310 0.930 . S
H302 C315 0.929 . S
H303 C313 0.929 . S
H304 C308 0.929 . S
H305 C314 0.929 . S
C306 H300 0.930 . S
C306 C307 1.367 . S
C306 C314 1.378 1_554 S
C307 C306 1.367 . S
C307 C315 1.433 . S
C308 H304 0.929 . S
C308 C310 1.378 1_554 S
C308 C312 1.350 1_554 S
C309 C312 1.463 1_554 S
C309 C314 1.350 1_554 S
C309 N317 1.427 . S
C310 H301 0.930 . S
C310 C308 1.378 1_556 S
C310 C311 1.367 . S
C311 C310 1.367 . S
C311 C313 1.433 . S
C312 C308 1.350 1_556 S
C312 C309 1.463 1_556 S
C312 N316 1.427 . S
C313 H303 0.929 . S
C313 C311 1.433 . S
C313 N316 1.384 . S
C314 H305 0.929 . S
C314 C306 1.378 1_556 S
C314 C309 1.350 1_556 S
C315 H302 0.929 . S
C315 C307 1.433 . S
C315 N317 1.384 . S
N316 C312 1.427 . S
N316 C313 1.384 . S
N317 C309 1.427 . S
N317 C315 1.384 . S
H318 C324 0.930 . S
H319 C328 0.930 . S
H320 C333 0.929 . S
H321 C331 0.929 . S
H322 C326 0.929 . S
H323 C332 0.929 . S
C324 H318 0.930 . S
C324 C325 1.367 . S
C324 C332 1.378 . S
C325 C324 1.367 . S
C325 C333 1.433 . S
C326 H322 0.929 . S
C326 C328 1.378 . S
C326 C330 1.350 . S
C327 C330 1.463 . S
C327 C332 1.350 . S
C327 N335 1.427 . S
C328 H319 0.930 . S
C328 C326 1.378 . S
C328 C329 1.367 . S
C329 C328 1.367 . S
C329 C331 1.433 . S
C330 C326 1.350 . S
C330 C327 1.463 . S
C330 N334 1.427 . S
C331 H321 0.929 . S
C331 C329 1.433 . S
C331 N334 1.384 . S
C332 H323 0.929 . S
C332 C324 1.378 . S
C332 C327 1.350 . S
C333 H320 0.929 . S
C333 C325 1.433 . S
C333 N335 1.384 . S
N334 C330 1.427 . S
N334 C331 1.384 . S
N335 C327 1.427 . S
N335 C333 1.384 . S
H336 C342 0.930 . S
H337 C346 0.930 . S
H338 C351 0.929 . S
H339 C349 0.929 . S
H340 C344 0.929 . S
H341 C350 0.929 . S
C342 H336 0.930 . S
C342 C343 1.367 . S
C342 C350 1.378 . S
C343 C342 1.367 . S
C343 C351 1.433 . S
C344 H340 0.929 . S
C344 C346 1.378 . S
C344 C348 1.350 . S
C345 C348 1.463 . S
C345 C350 1.350 . S
C345 N353 1.427 . S
C346 H337 0.930 . S
C346 C344 1.378 . S
C346 C347 1.367 . S
C347 C346 1.367 . S
C347 C349 1.433 . S
C348 C344 1.350 . S
C348 C345 1.463 . S
C348 N352 1.427 . S
C349 H339 0.929 . S
C349 C347 1.433 . S
C349 N352 1.384 . S
C350 H341 0.929 . S
C350 C342 1.378 . S
C350 C345 1.350 . S
C351 H338 0.929 . S
C351 C343 1.433 . S
C351 N353 1.384 . S
N352 C348 1.427 . S
N352 C349 1.384 . S
N353 C345 1.427 . S
N353 C351 1.384 . S
H354 C360 0.930 . S
H355 C364 0.930 . S
H356 C369 0.929 . S
H357 C367 0.929 . S
H358 C362 0.929 . S
H359 C368 0.929 . S
C360 H354 0.930 . S
C360 C361 1.367 . S
C360 C368 1.378 . S
C361 C360 1.367 . S
C361 C369 1.433 . S
C362 H358 0.929 . S
C362 C364 1.378 . S
C362 C366 1.350 . S
C363 C366 1.463 . S
C363 C368 1.350 . S
C363 N371 1.427 . S
C364 H355 0.930 . S
C364 C362 1.378 . S
C364 C365 1.367 . S
C365 C364 1.367 . S
C365 C367 1.433 . S
C366 C362 1.350 . S
C366 C363 1.463 . S
C366 N370 1.427 . S
C367 H357 0.929 . S
C367 C365 1.433 . S
C367 N370 1.384 . S
C368 H359 0.929 . S
C368 C360 1.378 . S
C368 C363 1.350 . S
C369 H356 0.929 . S
C369 C361 1.433 . S
C369 N371 1.384 . S
N370 C366 1.427 . S
N370 C367 1.384 . S
N371 C363 1.427 . S
N371 C369 1.384 . S
H372 C378 0.930 . S
H373 C382 0.930 . S
H374 C387 0.929 . S
H375 C385 0.929 . S
H376 C380 0.929 . S
H377 C386 0.929 . S
C378 H372 0.930 . S
C378 C379 1.367 . S
C378 C386 1.378 . S
C379 C378 1.367 . S
C379 C387 1.433 . S
C380 H376 0.929 . S
C380 C382 1.378 . S
C380 C384 1.350 . S
C381 C384 1.463 . S
C381 C386 1.350 . S
C381 N389 1.427 . S
C382 H373 0.930 . S
C382 C380 1.378 . S
C382 C383 1.367 . S
C383 C382 1.367 . S
C383 C385 1.433 . S
C384 C380 1.350 . S
C384 C381 1.463 . S
C384 N388 1.427 . S
C385 H375 0.929 . S
C385 C383 1.433 . S
C385 N388 1.384 . S
C386 H377 0.929 . S
C386 C378 1.378 . S
C386 C381 1.350 . S
C387 H374 0.929 . S
C387 C379 1.433 . S
C387 N389 1.384 . S
N388 C384 1.427 . S
N388 C385 1.384 . S
N389 C381 1.427 . S
N389 C387 1.384 . S
H390 C396 0.930 . S
H391 C400 0.930 . S
H392 C405 0.929 . S
H393 C403 0.929 . S
H394 C398 0.929 . S
H395 C404 0.929 . S
C396 H390 0.930 . S
C396 C397 1.367 . S
C396 C404 1.378 . S
C397 C396 1.367 . S
C397 C405 1.433 . S
C398 H394 0.929 . S
C398 C400 1.378 . S
C398 C402 1.350 . S
C399 C402 1.463 . S
C399 C404 1.350 . S
C399 N407 1.427 . S
C400 H391 0.930 . S
C400 C398 1.378 . S
C400 C401 1.367 . S
C401 C400 1.367 . S
C401 C403 1.433 . S
C402 C398 1.350 . S
C402 C399 1.463 . S
C402 N406 1.427 . S
C403 H393 0.929 . S
C403 C401 1.433 . S
C403 N406 1.384 . S
C404 H395 0.929 . S
C404 C396 1.378 . S
C404 C399 1.350 . S
C405 H392 0.929 . S
C405 C397 1.433 . S
C405 N407 1.384 . S
N406 C402 1.427 . S
N406 C403 1.384 . S
N407 C399 1.427 . S
N407 C405 1.384 . S
H408 C414 0.930 . S
H409 C418 0.930 . S
H410 C423 0.929 . S
H411 C421 0.929 . S
H412 C416 0.929 . S
H413 C422 0.929 . S
C414 H408 0.930 . S
C414 C415 1.367 . S
C414 C422 1.378 . S
C415 C414 1.367 . S
C415 C423 1.433 . S
C416 H412 0.929 . S
C416 C418 1.378 . S
C416 C420 1.350 . S
C417 C420 1.463 . S
C417 C422 1.350 . S
C417 N425 1.427 . S
C418 H409 0.930 . S
C418 C416 1.378 . S
C418 C419 1.367 . S
C419 C418 1.367 . S
C419 C421 1.433 . S
C420 C416 1.350 . S
C420 C417 1.463 . S
C420 N424 1.427 . S
C421 H411 0.929 . S
C421 C419 1.433 . S
C421 N424 1.384 . S
C422 H413 0.929 . S
C422 C414 1.378 . S
C422 C417 1.350 . S
C423 H410 0.929 . S
C423 C415 1.433 . S
C423 N425 1.384 . S
N424 C420 1.427 . S
N424 C421 1.384 . S
N425 C417 1.427 . S
N425 C423 1.384 . S
H426 C432 0.930 . S
H427 C436 0.930 . S
H428 C441 0.929 . S
H429 C439 0.929 . S
H430 C434 0.929 . S
H431 C440 0.929 . S
C432 H426 0.930 . S
C432 C433 1.367 . S
C432 C440 1.378 . S
C433 C432 1.367 . S
C433 C441 1.433 . S
C434 H430 0.929 . S
C434 C436 1.378 . S
C434 C438 1.350 . S
C435 C438 1.463 . S
C435 C440 1.350 . S
C435 N443 1.427 . S
C436 H427 0.930 . S
C436 C434 1.378 . S
C436 C437 1.367 . S
C437 C436 1.367 . S
C437 C439 1.433 . S
C438 C434 1.350 . S
C438 C435 1.463 . S
C438 N442 1.427 . S
C439 H429 0.929 . S
C439 C437 1.433 . S
C439 N442 1.384 . S
C440 H431 0.929 . S
C440 C432 1.378 . S
C440 C435 1.350 . S
C441 H428 0.929 . S
C441 C433 1.433 . S
C441 N443 1.384 . S
N442 C438 1.427 . S
N442 C439 1.384 . S
N443 C435 1.427 . S
N443 C441 1.384 . S
H444 C450 0.930 . S
H445 C454 0.930 . S
H446 C459 0.929 . S
H447 C457 0.929 . S
H448 C452 0.929 . S
H449 C458 0.929 . S
C450 H444 0.930 . S
C450 C451 1.367 . S
C450 C458 1.378 . S
C451 C450 1.367 . S
C451 C459 1.433 . S
C452 H448 0.929 . S
C452 C454 1.378 . S
C452 C456 1.350 . S
C453 C456 1.463 . S
C453 C458 1.350 . S
C453 N461 1.427 . S
C454 H445 0.930 . S
C454 C452 1.378 . S
C454 C455 1.367 . S
C455 C454 1.367 . S
C455 C457 1.433 . S
C456 C452 1.350 . S
C456 C453 1.463 . S
C456 N460 1.427 . S
C457 H447 0.929 . S
C457 C455 1.433 . S
C457 N460 1.384 . S
C458 H449 0.929 . S
C458 C450 1.378 . S
C458 C453 1.350 . S
C459 H446 0.929 . S
C459 C451 1.433 . S
C459 N461 1.384 . S
N460 C456 1.427 . S
N460 C457 1.384 . S
N461 C453 1.427 . S
N461 C459 1.384 . S
H462 C468 0.930 . S
H463 C472 0.930 . S
H464 C477 0.929 . S
H465 C475 0.929 . S
H466 C470 0.929 . S
H467 C476 0.929 . S
C468 H462 0.930 . S
C468 C469 1.367 . S
C468 C476 1.378 . S
C469 C468 1.367 . S
C469 C477 1.433 . S
C470 H466 0.929 . S
C470 C472 1.378 . S
C470 C474 1.350 . S
C471 C474 1.463 . S
C471 C476 1.350 . S
C471 N479 1.427 . S
C472 H463 0.930 . S
C472 C470 1.378 . S
C472 C473 1.367 . S
C473 C472 1.367 . S
C473 C475 1.433 . S
C474 C470 1.350 . S
C474 C471 1.463 . S
C474 N478 1.427 . S
C475 H465 0.929 . S
C475 C473 1.433 . S
C475 N478 1.384 . S
C476 H467 0.929 . S
C476 C468 1.378 . S
C476 C471 1.350 . S
C477 H464 0.929 . S
C477 C469 1.433 . S
C477 N479 1.384 . S
N478 C474 1.427 . S
N478 C475 1.384 . S
N479 C471 1.427 . S
N479 C477 1.384 . S
H480 C486 0.930 . S
H481 C490 0.930 . S
H482 C495 0.929 . S
H483 C493 0.929 . S
H484 C488 0.929 . S
H485 C494 0.929 . S
C486 H480 0.930 . S
C486 C487 1.367 . S
C486 C494 1.378 . S
C487 C486 1.367 . S
C487 C495 1.433 1_455 S
C488 H484 0.929 . S
C488 C490 1.378 . S
C488 C492 1.350 1_655 S
C489 C492 1.463 . S
C489 C494 1.350 . S
C489 N497 1.427 1_455 S
C490 H481 0.930 . S
C490 C488 1.378 . S
C490 C491 1.367 1_655 S
C491 C490 1.367 1_455 S
C491 C493 1.433 . S
C492 C488 1.350 1_455 S
C492 C489 1.463 . S
C492 N496 1.427 . S
C493 H483 0.929 . S
C493 C491 1.433 . S
C493 N496 1.384 . S
C494 H485 0.929 . S
C494 C486 1.378 . S
C494 C489 1.350 . S
C495 H482 0.929 . S
C495 C487 1.433 1_655 S
C495 N497 1.384 . S
N496 C492 1.427 . S
N496 C493 1.384 . S
N497 C489 1.427 1_655 S
N497 C495 1.384 . S
H498 C504 0.930 . S
H499 C508 0.930 . S
H500 C513 0.929 . S
H501 C511 0.929 . S
H502 C506 0.929 . S
H503 C512 0.929 . S
C504 H498 0.930 . S
C504 C505 1.367 . S
C504 C512 1.378 . S
C505 C504 1.367 . S
C505 C513 1.433 . S
C506 H502 0.929 . S
C506 C508 1.378 . S
C506 C510 1.350 . S
C507 C510 1.463 . S
C507 C512 1.350 . S
C507 N515 1.427 . S
C508 H499 0.930 . S
C508 C506 1.378 . S
C508 C509 1.367 . S
C509 C508 1.367 . S
C509 C511 1.433 . S
C510 C506 1.350 . S
C510 C507 1.463 . S
C510 N514 1.427 . S
C511 H501 0.929 . S
C511 C509 1.433 . S
C511 N514 1.384 . S
C512 H503 0.929 . S
C512 C504 1.378 . S
C512 C507 1.350 . S
C513 H500 0.929 . S
C513 C505 1.433 . S
C513 N515 1.384 . S
N514 C510 1.427 . S
N514 C511 1.384 . S
N515 C507 1.427 . S
N515 C513 1.384 . S
H516 C522 0.930 . S
H517 C526 0.930 . S
H518 C531 0.929 1_556 S
H519 C529 0.930 . S
H520 C524 0.929 . S
H521 C530 0.929 . S
C522 H516 0.930 . S
C522 C523 1.367 . S
C522 C530 1.378 . S
C523 C522 1.367 . S
C523 C531 1.433 . S
C524 H520 0.929 . S
C524 C526 1.378 . S
C524 C528 1.350 . S
C525 C528 1.463 . S
C525 C530 1.350 . S
C525 N533 1.427 . S
C526 H517 0.930 . S
C526 C524 1.378 . S
C526 C527 1.367 . S
C527 C526 1.367 . S
C527 C529 1.433 . S
C528 C524 1.350 . S
C528 C525 1.463 . S
C528 N532 1.427 . S
C529 H519 0.930 . S
C529 C527 1.433 . S
C529 N532 1.384 . S
C530 H521 0.929 . S
C530 C522 1.378 . S
C530 C525 1.350 . S
C531 H518 0.929 1_554 S
C531 C523 1.433 . S
C531 N533 1.384 . S
N532 C528 1.427 . S
N532 C529 1.384 . S
N533 C525 1.427 . S
N533 C531 1.384 . S
H534 C540 0.930 . S
H535 C544 0.930 . S
H536 C549 0.929 . S
H537 C547 0.929 . S
H538 C542 0.929 . S
H539 C548 0.929 . S
C540 H534 0.930 . S
C540 C541 1.367 . S
C540 C548 1.378 . S
C541 C540 1.367 . S
C541 C549 1.433 . S
C542 H538 0.929 . S
C542 C544 1.378 . S
C542 C546 1.350 . S
C543 C546 1.463 . S
C543 C548 1.350 . S
C543 N551 1.427 . S
C544 H535 0.930 . S
C544 C542 1.378 . S
C544 C545 1.367 . S
C545 C544 1.367 . S
C545 C547 1.433 . S
C546 C542 1.350 . S
C546 C543 1.463 . S
C546 N550 1.427 . S
C547 H537 0.929 . S
C547 C545 1.433 . S
C547 N550 1.384 . S
C548 H539 0.929 . S
C548 C540 1.378 . S
C548 C543 1.350 . S
C549 H536 0.929 . S
C549 C541 1.433 . S
C549 N551 1.384 . S
N550 C546 1.427 . S
N550 C547 1.384 . S
N551 C543 1.427 . S
N551 C549 1.384 . S
H552 C558 0.930 . S
H553 C562 0.930 1_554 S
H554 C567 0.929 . S
H555 C565 0.929 . S
H556 C560 0.929 . S
H557 C566 0.929 . S
C558 H552 0.930 . S
C558 C559 1.367 . S
C558 C566 1.378 . S
C559 C558 1.367 . S
C559 C567 1.433 . S
C560 H556 0.929 . S
C560 C562 1.378 . S
C560 C564 1.350 . S
C561 C564 1.463 . S
C561 C566 1.350 . S
C561 N569 1.427 . S
C562 H553 0.930 1_556 S
C562 C560 1.378 . S
C562 C563 1.367 . S
C563 C562 1.367 . S
C563 C565 1.433 . S
C564 C560 1.350 . S
C564 C561 1.463 . S
C564 N568 1.427 . S
C565 H555 0.929 . S
C565 C563 1.433 . S
C565 N568 1.384 . S
C566 H557 0.929 . S
C566 C558 1.378 . S
C566 C561 1.350 . S
C567 H554 0.929 . S
C567 C559 1.433 . S
C567 N569 1.384 . S
N568 C564 1.427 . S
N568 C565 1.384 . S
N569 C561 1.427 . S
N569 C567 1.384 . S
H570 C576 0.930 . S
H571 C580 0.930 . S
H572 C585 0.929 . S
H573 C583 0.929 . S
H574 C578 0.929 . S
H575 C584 0.929 . S
C576 H570 0.930 . S
C576 C577 1.367 . S
C576 C584 1.378 . S
C577 C576 1.367 . S
C577 C585 1.433 . S
C578 H574 0.929 . S
C578 C580 1.378 . S
C578 C582 1.350 . S
C579 C582 1.463 . S
C579 C584 1.350 . S
C579 N587 1.427 . S
C580 H571 0.930 . S
C580 C578 1.378 . S
C580 C581 1.367 . S
C581 C580 1.367 . S
C581 C583 1.433 . S
C582 C578 1.350 . S
C582 C579 1.463 . S
C582 N586 1.427 . S
C583 H573 0.929 . S
C583 C581 1.433 . S
C583 N586 1.384 . S
C584 H575 0.929 . S
C584 C576 1.378 . S
C584 C579 1.350 . S
C585 H572 0.929 . S
C585 C577 1.433 . S
C585 N587 1.384 . S
N586 C582 1.427 . S
N586 C583 1.384 . S
N587 C579 1.427 . S
N587 C585 1.384 . S
H588 C594 0.930 1_556 S
H589 C598 0.930 . S
H590 C603 0.929 . S
H591 C601 0.929 . S
H592 C596 0.929 . S
H593 C602 0.929 . S
C594 H588 0.930 1_554 S
C594 C595 1.367 . S
C594 C602 1.378 . S
C595 C594 1.367 . S
C595 C603 1.433 . S
C596 H592 0.929 . S
C596 C598 1.378 . S
C596 C600 1.350 . S
C597 C600 1.463 . S
C597 C602 1.350 . S
C597 N605 1.427 . S
C598 H589 0.930 . S
C598 C596 1.378 . S
C598 C599 1.367 . S
C599 C598 1.367 . S
C599 C601 1.433 . S
C600 C596 1.350 . S
C600 C597 1.463 . S
C600 N604 1.427 . S
C601 H591 0.929 . S
C601 C599 1.433 . S
C601 N604 1.384 . S
C602 H593 0.929 . S
C602 C594 1.378 . S
C602 C597 1.350 . S
C603 H590 0.929 . S
C603 C595 1.433 . S
C603 N605 1.384 . S
N604 C600 1.427 . S
N604 C601 1.384 . S
N605 C597 1.427 . S
N605 C603 1.384 . S
H606 C612 0.930 1_655 S
H607 C616 0.930 . S
H608 C621 0.929 . S
H609 C619 0.929 1_655 S
H610 C614 0.929 . S
H611 C620 0.929 1_655 S
C612 H606 0.930 1_455 S
C612 C613 1.367 . S
C612 C620 1.378 . S
C613 C612 1.367 . S
C613 C621 1.433 . S
C614 H610 0.929 . S
C614 C616 1.378 . S
C614 C618 1.350 . S
C615 C618 1.463 . S
C615 C620 1.350 . S
C615 N623 1.427 . S
C616 H607 0.930 . S
C616 C614 1.378 . S
C616 C617 1.367 . S
C617 C616 1.367 . S
C617 C619 1.433 . S
C618 C614 1.350 . S
C618 C615 1.463 . S
C618 N622 1.427 . S
C619 H609 0.929 1_455 S
C619 C617 1.433 . S
C619 N622 1.384 . S
C620 H611 0.929 1_455 S
C620 C612 1.378 . S
C620 C615 1.350 . S
C621 H608 0.929 . S
C621 C613 1.433 . S
C621 N623 1.384 . S
N622 C618 1.427 . S
N622 C619 1.384 . S
N623 C615 1.427 . S
N623 C621 1.384 . S
C271 N71 1.390 . S
C275 N5 1.389 . S
C289 N104 1.383 . S
C293 N38 1.377 . S
C307 N137 1.383 . S
C311 N203 1.393 . S
C325 N170 1.387 . S
C329 N236 1.392 . S
C343 C107 1.566 . S
C347 C8 1.559 . S
C361 C41 1.558 . S
C365 C74 1.565 . S
C379 C94 1.079 . S
C383 C61 1.082 . S
C397 C127 1.084 . S
C401 C28 1.071 . S
C415 C239 1.562 . S
C419 C140 1.557 . S
C433 C173 1.566 . S
C437 C206 1.563 . S
C451 C226 1.073 . S
C455 C193 1.082 . S
C469 C259 1.085 . S
C473 C160 1.071 . S
C487 N179 1.552 . S
C491 C17 1.601 1_556 S
C505 C50 1.600 . S
C509 N146 1.553 . S
C523 C83 1.600 1_554 S
C527 N245 1.556 . S
C541 N212 1.563 . S
C545 C116 1.601 . S
C559 N47 1.556 . S
C563 C149 1.601 1_556 S
C577 C182 1.602 . S
C581 N14 1.561 . S
C595 C215 1.602 1_554 S
C599 N113 1.560 . S
C613 C248 1.602 . S
C617 N80 1.563 . S
