# Generated by pormake.
# Topology sml, (6)-cn, num edge types: 1
# Building blocks:
#     Node 0, Type 0, BuildingBlock: PAMTUU_clean_sbu_0, # of connection points: 6
#     Node 1, Type 0, BuildingBlock: PAMTUU_clean_sbu_0, # of connection points: 6
#     Node 2, Type 0, BuildingBlock: PAMTUU_clean_sbu_0, # of connection points: 6
#     Node 3, Type 0, BuildingBlock: PAMTUU_clean_sbu_0, # of connection points: 6
#     Node 4, Type 0, BuildingBlock: PAMTUU_clean_sbu_0, # of connection points: 6
#     Node 5, Type 0, BuildingBlock: PAMTUU_clean_sbu_0, # of connection points: 6
#     Edge 6, Type (0, 0), BuildingBlock: ZUJKAS_clean_linker_0, # of connection points: 2
#     Edge 7, Type (0, 0), BuildingBlock: ZUJKAS_clean_linker_0, # of connection points: 2
#     Edge 8, Type (0, 0), BuildingBlock: ZUJKAS_clean_linker_0, # of connection points: 2
#     Edge 9, Type (0, 0), BuildingBlock: ZUJKAS_clean_linker_0, # of connection points: 2
#     Edge 10, Type (0, 0), BuildingBlock: ZUJKAS_clean_linker_0, # of connection points: 2
#     Edge 11, Type (0, 0), BuildingBlock: ZUJKAS_clean_linker_0, # of connection points: 2
#     Edge 12, Type (0, 0), BuildingBlock: ZUJKAS_clean_linker_0, # of connection points: 2
#     Edge 13, Type (0, 0), BuildingBlock: ZUJKAS_clean_linker_0, # of connection points: 2
#     Edge 14, Type (0, 0), BuildingBlock: ZUJKAS_clean_linker_0, # of connection points: 2
#     Edge 15, Type (0, 0), BuildingBlock: ZUJKAS_clean_linker_0, # of connection points: 2
#     Edge 16, Type (0, 0), BuildingBlock: ZUJKAS_clean_linker_0, # of connection points: 2
#     Edge 17, Type (0, 0), BuildingBlock: ZUJKAS_clean_linker_0, # of connection points: 2
#     Edge 18, Type (0, 0), BuildingBlock: ZUJKAS_clean_linker_0, # of connection points: 2
#     Edge 19, Type (0, 0), BuildingBlock: ZUJKAS_clean_linker_0, # of connection points: 2
#     Edge 20, Type (0, 0), BuildingBlock: ZUJKAS_clean_linker_0, # of connection points: 2
#     Edge 21, Type (0, 0), BuildingBlock: ZUJKAS_clean_linker_0, # of connection points: 2
#     Edge 22, Type (0, 0), BuildingBlock: ZUJKAS_clean_linker_0, # of connection points: 2
#     Edge 23, Type (0, 0), BuildingBlock: ZUJKAS_clean_linker_0, # of connection points: 2
# Relax obj value: 0.155
# Max RMSD: 0.212
# Mean RMSD: 0.212
data_MOF--net-sml--node1-PAMTUU_clean_sbu_0--edge1-ZUJKAS_clean_linker_0
_symmetry_space_group_name_H-M    P1
_symmetry_Int_Tables_number       1
_symmetry_cell_setting            triclinic
loop_
_symmetry_equiv_pos_as_xyz
'x, y, z'
_cell_length_a     45.477158
_cell_length_b     45.4068
_cell_length_c     29.398439
_cell_angle_alpha  89.927309
_cell_angle_beta   90.045715
_cell_angle_gamma 119.89236
loop_
_atom_site_label
_atom_site_type_symbol
_atom_site_fract_x
_atom_site_fract_y
_atom_site_fract_z
_atom_type_partial_charge
Tb0 Tb 0.21644 0.40825 0.05868 0.0
Tb1 Tb 0.17424 0.41273 0.96903 0.0
C2 C 0.25356 0.45456 0.97596 0.0
C3 C 0.24084 0.40885 0.17912 0.0
C4 C 0.23054 0.41341 0.27316 0.0
C5 C 0.25926 0.41229 0.25753 0.0
C6 C 0.2643 0.41001 0.21098 0.0
C7 C 0.21234 0.41031 0.19431 0.0
C8 C 0.20721 0.41252 0.24086 0.0
C9 C 0.24598 0.40567 0.13028 0.0
O10 O 0.21108 0.45291 0.06593 0.0
O11 O 0.16296 0.43762 0.0239 0.0
O12 O 0.13849 0.36915 1.00891 0.0
O13 O 0.16384 0.38546 0.07899 0.0
O14 O 0.16478 0.44205 0.92207 0.0
O15 O 0.13934 0.38753 0.91645 0.0
O16 O 0.20094 0.38684 0.94732 0.0
O17 O 0.20471 0.36478 0.01587 0.0
O18 O 0.25385 0.43265 1.00494 0.0
O19 O 0.22569 0.45536 0.96694 0.0
C20 C 0.18457 0.45599 0.05589 0.0
O21 O 0.22176 0.37909 0.11006 0.0
O22 O 0.25615 0.43305 0.10589 0.0
C23 C 0.13736 0.36651 0.05346 0.0
C24 C 0.15418 0.41859 0.84821 0.0
C25 C 0.1691 0.42088 0.75445 0.0
C26 C 0.13863 0.41878 0.76913 0.0
C27 C 0.13126 0.41761 0.81556 0.0
C28 C 0.18477 0.42104 0.83393 0.0
C29 C 0.19216 0.42218 0.78751 0.0
C30 C 0.14547 0.41578 0.89688 0.0
C31 C 0.20474 0.36454 0.9712 0.0
H32 H 0.27804 0.41347 0.28126 0.0
H33 H 0.28652 0.40905 0.19986 0.0
H34 H 0.1939 0.40945 0.17017 0.0
H35 H 0.18462 0.4129 0.25154 0.0
H36 H 0.12007 0.41726 0.74473 0.0
H37 H 0.10743 0.4155 0.82596 0.0
H38 H 0.2028 0.42181 0.85871 0.0
H39 H 0.21604 0.42423 0.77753 0.0
Tb40 Tb 0.79821 0.22123 0.39416 0.0
Tb41 Tb 0.75363 0.17994 0.30327 0.0
C42 C 0.79071 0.25858 0.30876 0.0
C43 C 0.82402 0.24253 0.51465 0.0
C44 C 0.81213 0.2281 0.60845 0.0
C45 C 0.83893 0.25952 0.59338 0.0
C46 C 0.84478 0.26664 0.54691 0.0
C47 C 0.79746 0.211 0.52931 0.0
C48 C 0.7916 0.20381 0.57581 0.0
C49 C 0.82943 0.25098 0.46597 0.0
O50 O 0.74582 0.19354 0.41518 0.0
O51 O 0.72102 0.19086 0.34627 0.0
O52 O 0.74027 0.14198 0.35577 0.0
O53 O 0.78895 0.16938 0.39845 0.0
O54 O 0.71973 0.17536 0.25167 0.0
O55 O 0.7387 0.14032 0.25589 0.0
O56 O 0.80381 0.18542 0.29635 0.0
O57 O 0.83492 0.23273 0.34057 0.0
O58 O 0.78993 0.25674 0.35342 0.0
O59 O 0.78456 0.23245 0.28339 0.0
C60 C 0.72006 0.19001 0.39101 0.0
O61 O 0.83728 0.23217 0.44103 0.0
O62 O 0.8065 0.25591 0.44648 0.0
C63 C 0.76105 0.14162 0.3865 0.0
C64 C 0.73011 0.15594 0.18276 0.0
C65 C 0.7448 0.16597 0.08887 0.0
C66 C 0.71619 0.13624 0.10475 0.0
C67 C 0.70891 0.13132 0.15129 0.0
C68 C 0.75895 0.18544 0.16726 0.0
C69 C 0.76617 0.19046 0.12072 0.0
C70 C 0.72178 0.15088 0.23152 0.0
C71 C 0.83289 0.21183 0.3083 0.0
H72 H 0.85552 0.27859 0.61754 0.0
H73 H 0.86538 0.29111 0.53614 0.0
H74 H 0.78103 0.19214 0.50477 0.0
H75 H 0.77053 0.17954 0.58618 0.0
H76 H 0.69905 0.11705 0.08111 0.0
H77 H 0.68654 0.10841 0.16269 0.0
H78 H 0.77576 0.20464 0.19114 0.0
H79 H 0.78863 0.21341 0.10969 0.0
Tb80 Tb 0.55791 0.79638 0.72536 0.0
Tb81 Tb 0.56428 0.75601 0.63485 0.0
C82 C 0.51418 0.78402 0.63716 0.0
C83 C 0.55691 0.8203 0.84548 0.0
C84 C 0.56189 0.81052 0.93949 0.0
C85 C 0.55359 0.83486 0.92405 0.0
C86 C 0.55111 0.83966 0.87748 0.0
C87 C 0.56544 0.79616 0.86051 0.0
C88 C 0.56794 0.79132 0.90708 0.0
C89 C 0.55326 0.82487 0.79664 0.0
O90 O 0.53778 0.74415 0.74562 0.0
O91 O 0.52215 0.71832 0.67572 0.0
O92 O 0.59082 0.74642 0.68869 0.0
O93 O 0.60347 0.79262 0.73396 0.0
O94 O 0.53977 0.72091 0.58232 0.0
O95 O 0.5943 0.74779 0.58779 0.0
O96 O 0.6056 0.80838 0.63224 0.0
O97 O 0.58168 0.83435 0.67263 0.0
O98 O 0.51428 0.78364 0.68189 0.0
O99 O 0.53713 0.78142 0.61339 0.0
C100 C 0.5197 0.7173 0.72036 0.0
O101 O 0.58079 0.83649 0.7723 0.0
O102 O 0.5275 0.79952 0.77665 0.0
C103 C 0.60832 0.76754 0.72153 0.0
C104 C 0.57073 0.7366 0.51406 0.0
C105 C 0.57293 0.75126 0.42031 0.0
C106 C 0.57756 0.72444 0.43556 0.0
C107 C 0.5764 0.71716 0.48202 0.0
C108 C 0.56662 0.76372 0.4992 0.0
C109 C 0.56763 0.77094 0.45274 0.0
C110 C 0.56822 0.7279 0.56269 0.0
C111 C 0.60402 0.83557 0.64334 0.0
H112 H 0.54925 0.85041 0.94797 0.0
H113 H 0.54454 0.85843 0.86645 0.0
H114 H 0.56986 0.78086 0.8362 0.0
H115 H 0.57398 0.7721 0.91769 0.0
H116 H 0.58133 0.70858 0.41151 0.0
H117 H 0.57954 0.69608 0.4929 0.0
H118 H 0.56238 0.77913 0.52351 0.0
H119 H 0.56441 0.79204 0.44223 0.0
Tb120 Tb 0.74619 0.56769 0.06178 0.0
Tb121 Tb 0.78864 0.56453 0.97166 0.0
C122 C 0.70968 0.52103 0.97907 0.0
C123 C 0.72098 0.56612 0.18189 0.0
C124 C 0.73148 0.56211 0.27597 0.0
C125 C 0.70354 0.56468 0.26034 0.0
C126 C 0.69839 0.56669 0.21375 0.0
C127 C 0.74868 0.56319 0.19709 0.0
C128 C 0.75389 0.56122 0.24368 0.0
C129 C 0.71588 0.56923 0.13304 0.0
O130 O 0.75412 0.52464 0.07039 0.0
O131 O 0.80142 0.54052 0.02608 0.0
O132 O 0.82409 0.60827 1.01151 0.0
O133 O 0.79895 0.59216 0.08185 0.0
O134 O 0.79898 0.5359 0.92477 0.0
O135 O 0.82272 0.59031 0.91851 0.0
O136 O 0.76073 0.58936 0.95049 0.0
O137 O 0.75714 0.61114 0.01923 0.0
O138 O 0.70894 0.54265 1.00804 0.0
O139 O 0.73785 0.52082 0.97027 0.0
C140 C 0.7809 0.52236 0.05915 0.0
O141 O 0.73981 0.59617 0.11304 0.0
O142 O 0.70647 0.542 0.10866 0.0
C143 C 0.82525 0.61117 0.05604 0.0
C144 C 0.80828 0.55885 0.8507 0.0
C145 C 0.79245 0.55512 0.75715 0.0
C146 C 0.82261 0.55647 0.7717 0.0
C147 C 0.83044 0.55837 0.81805 0.0
C148 C 0.77795 0.55708 0.83656 0.0
C149 C 0.77012 0.55526 0.79021 0.0
C150 C 0.81744 0.56226 0.89922 0.0
C151 C 0.75667 0.61136 0.97458 0.0
H152 H 0.68547 0.5649 0.2841 0.0
H153 H 0.67682 0.56883 0.2026 0.0
H154 H 0.76644 0.56276 0.17292 0.0
H155 H 0.77587 0.55968 0.25439 0.0
H156 H 0.84057 0.55684 0.74722 0.0
H157 H 0.85403 0.55987 0.82836 0.0
H158 H 0.76048 0.55736 0.86136 0.0
H159 H 0.7465 0.55382 0.78027 0.0
Tb160 Tb 0.16656 0.75626 0.39342 0.0
Tb161 Tb 0.21032 0.79888 0.30247 0.0
C162 C 0.1744 0.72025 0.30678 0.0
C163 C 0.1415 0.73389 0.51382 0.0
C164 C 0.1531 0.74839 0.60764 0.0
C165 C 0.12531 0.71768 0.59252 0.0
C166 C 0.11962 0.71051 0.54603 0.0
C167 C 0.16905 0.76474 0.52852 0.0
C168 C 0.1748 0.77194 0.57501 0.0
C169 C 0.13606 0.72552 0.46514 0.0
O170 O 0.21899 0.78475 0.41401 0.0
O171 O 0.24364 0.7884 0.34477 0.0
O172 O 0.22289 0.83665 0.35484 0.0
O173 O 0.17546 0.80785 0.39981 0.0
O174 O 0.2445 0.80436 0.25084 0.0
O175 O 0.22426 0.83831 0.25495 0.0
O176 O 0.1598 0.79261 0.29626 0.0
O177 O 0.12941 0.74504 0.34048 0.0
O178 O 0.17525 0.72159 0.35149 0.0
O179 O 0.17982 0.7465 0.2821 0.0
C180 C 0.24482 0.78896 0.38949 0.0
O181 O 0.1273 0.74381 0.44051 0.0
O182 O 0.15946 0.72154 0.44528 0.0
C183 C 0.20245 0.83612 0.38674 0.0
C184 C 0.23332 0.82308 0.18191 0.0
C185 C 0.2187 0.812 0.0881 0.0
C186 C 0.24848 0.84081 0.10339 0.0
C187 C 0.25572 0.84624 0.1499 0.0
C188 C 0.20335 0.79452 0.167 0.0
C189 C 0.19613 0.78899 0.1205 0.0
C190 C 0.2417 0.82842 0.23062 0.0
C191 C 0.13096 0.76602 0.30855 0.0
H192 H 0.10782 0.69921 0.61662 0.0
H193 H 0.09821 0.6866 0.53524 0.0
H194 H 0.1863 0.78306 0.50403 0.0
H195 H 0.19665 0.79564 0.58538 0.0
H196 H 0.26656 0.85881 0.07936 0.0
H197 H 0.27901 0.86836 0.16085 0.0
H198 H 0.18567 0.77642 0.19132 0.0
H199 H 0.17278 0.7668 0.10993 0.0
Tb200 Tb 0.40597 0.18144 0.72619 0.0
Tb201 Tb 0.40136 0.22261 0.63516 0.0
C202 C 0.45007 0.19305 0.63852 0.0
C203 C 0.40622 0.1578 0.84664 0.0
C204 C 0.40118 0.16802 0.94038 0.0
C205 C 0.40302 0.1396 0.9251 0.0
C206 C 0.40558 0.1346 0.87863 0.0
C207 C 0.40397 0.18597 0.86155 0.0
C208 C 0.40156 0.19108 0.90801 0.0
C209 C 0.40972 0.15277 0.79795 0.0
O210 O 0.4263 0.23367 0.74643 0.0
O211 O 0.44352 0.25946 0.67672 0.0
O212 O 0.37433 0.23213 0.68834 0.0
O213 O 0.36054 0.18553 0.73341 0.0
O214 O 0.42711 0.25769 0.58296 0.0
O215 O 0.37259 0.23256 0.58802 0.0
O216 O 0.36016 0.1703 0.63018 0.0
O217 O 0.38157 0.1433 0.67401 0.0
O218 O 0.44963 0.19332 0.68324 0.0
O219 O 0.42771 0.19636 0.6143 0.0
C220 C 0.44517 0.26046 0.72142 0.0
O221 O 0.38225 0.14164 0.77358 0.0
O222 O 0.43582 0.17758 0.77771 0.0
C223 C 0.35619 0.21089 0.72075 0.0
C224 C 0.39651 0.24353 0.51455 0.0
C225 C 0.39486 0.22929 0.4208 0.0
C226 C 0.3969 0.25972 0.43571 0.0
C227 C 0.39775 0.26676 0.48216 0.0
C228 C 0.39405 0.21294 0.50006 0.0
C229 C 0.39319 0.20586 0.45359 0.0
C230 C 0.39907 0.25194 0.56321 0.0
C231 C 0.36044 0.1427 0.64309 0.0
H232 H 0.40316 0.12157 0.94912 0.0
H233 H 0.40734 0.11275 0.86769 0.0
H234 H 0.40424 0.20406 0.83726 0.0
H235 H 0.39975 0.21296 0.91857 0.0
H236 H 0.39773 0.27809 0.41146 0.0
H237 H 0.39965 0.29048 0.49279 0.0
H238 H 0.39324 0.19477 0.52468 0.0
H239 H 0.39201 0.18238 0.44338 0.0
H240 H 0.33492 0.25583 0.6996 0.0
H241 H 0.29966 0.27073 0.74587 0.0
H242 H 0.28745 0.19576 0.84562 0.0
H243 H 0.32287 0.18067 0.79975 0.0
H244 H 0.23028 0.22754 0.78418 0.0
H245 H 0.33343 0.29016 0.91286 0.0
H246 H 0.34135 0.28049 0.85619 0.0
H247 H 0.32049 0.24708 0.89719 0.0
C248 C 0.32449 0.24223 0.73114 0.0
C249 C 0.33195 0.21728 0.7462 0.0
C250 C 0.30425 0.25069 0.75739 0.0
C251 C 0.29132 0.23451 0.79918 0.0
C252 C 0.29749 0.20864 0.81353 0.0
H253 H 0.21118 0.31254 1.0078 0.0
H254 H 0.22638 0.27473 0.968 0.0
C255 C 0.31764 0.20003 0.7872 0.0
C256 C 0.27344 0.2466 0.82888 0.0
H257 H 0.28492 0.29496 0.92294 0.0
C258 C 0.24193 0.24193 0.81486 0.0
C259 C 0.28878 0.26516 0.86889 0.0
C260 C 0.32296 0.27131 0.8848 0.0
C261 C 0.22562 0.25616 0.83939 0.0
C262 C 0.24177 0.27618 0.87818 0.0
C263 C 0.27262 0.2796 0.89318 0.0
C264 C 0.22881 0.29627 0.90147 0.0
C265 C 0.19146 0.24986 0.82331 0.0
C266 C 0.22513 0.32086 0.8772 0.0
C267 C 0.21637 0.3424 0.89972 0.0
C268 C 0.2116 0.34007 0.94712 0.0
C269 C 0.21476 0.31504 0.97129 0.0
C270 C 0.22336 0.29336 0.94863 0.0
H271 H 0.17773 0.22556 0.80427 0.0
H272 H 0.17543 0.24916 0.85222 0.0
H273 H 0.19512 0.27062 0.79991 0.0
H274 H 0.23015 0.32419 0.841 0.0
H275 H 0.21431 0.36149 0.88007 0.0
H276 H 0.12594 0.35197 0.14407 0.0
H277 H 0.07174 0.31599 0.18155 0.0
H278 H 0.02106 0.29149 0.05155 0.0
H279 H 0.07523 0.32773 1.01351 0.0
H280 H -0.00732 0.3151 0.11578 0.0
H281 H 0.01063 0.21238 0.18813 0.0
H282 H 0.04494 0.25417 0.20085 0.0
H283 H 0.03681 0.23983 0.1428 0.0
C284 C 0.10337 0.33866 0.12328 0.0
C285 C 0.1049 0.34284 0.07577 0.0
C286 C 0.07245 0.31785 0.14478 0.0
C287 C 0.04254 0.30071 0.11922 0.0
C288 C 0.04399 0.30431 0.07176 0.0
H289 H 0.83869 0.17733 0.23549 0.0
H290 H 0.88856 0.1951 0.18694 0.0
C291 C 0.07495 0.32506 0.05014 0.0
C292 C 0.00951 0.28182 0.14261 0.0
H293 H 0.96594 0.21932 0.22088 0.0
C294 C -0.01345 0.29378 0.13813 0.0
C295 C 0.00159 0.25392 0.17156 0.0
C296 C 0.02464 0.23907 0.17585 0.0
C297 C 0.95659 0.27964 0.16366 0.0
C298 C 0.94963 0.25305 0.1944 0.0
C299 C 0.97169 0.23994 0.19741 0.0
C300 C 0.92064 0.24036 0.22578 0.0
C301 C 0.93299 0.29383 0.15882 0.0
C302 C 0.92272 0.25969 0.26397 0.0
C303 C 0.89449 0.24968 0.29179 0.0
C304 C 0.86364 0.22018 0.28172 0.0
C305 C 0.86206 0.20019 0.2442 0.0
C306 C 0.89044 0.21023 0.21643 0.0
H307 H 0.93932 0.31077 0.12873 0.0
H308 H 0.90632 0.2729 0.15578 0.0
H309 H 0.93478 0.30867 0.18972 0.0
H310 H 0.94598 0.28303 0.27156 0.0
H311 H 0.89667 0.26564 0.32041 0.0
H312 H 0.70045 0.08264 0.38254 0.0
H313 H 0.68234 0.03139 0.42751 0.0
H314 H 0.78121 0.0761 0.49 0.0
H315 H 0.79937 0.12817 0.44599 0.0
H316 H 0.70486 0.9867 0.43318 0.0
H317 H 0.71962 0.05064 0.59969 0.0
H318 H 0.7222 0.07131 0.54624 0.0
H319 H 0.75756 0.06749 0.56608 0.0
C320 C 0.71849 0.08162 0.40564 0.0
C321 C 0.75128 0.10962 0.41097 0.0
C322 C 0.70807 0.05225 0.4313 0.0
C323 C 0.73024 0.05017 0.46263 0.0
C324 C 0.76346 0.07751 0.46678 0.0
H325 H 0.66074 0.85176 0.59313 0.0
H326 H 0.6962 0.90448 0.55138 0.0
C327 C 0.77384 0.10714 0.4414 0.0
C328 C 0.71782 0.01952 0.49146 0.0
H329 H 0.69983 -0.00811 0.60132 0.0
C330 C 0.704 0.98778 0.46999 0.0
C331 C 0.71649 0.02112 0.53943 0.0
C332 C 0.72947 0.0544 0.56433 0.0
C333 C 0.6878 0.95748 0.49501 0.0
C334 C 0.68637 0.95907 0.54297 0.0
C335 C 0.7012 -0.00917 0.56457 0.0
C336 C 0.66698 0.92819 0.571 0.0
C337 C 0.67088 0.92415 0.46962 0.0
C338 C 0.63973 0.92466 0.59743 0.0
C339 C 0.61981 0.89489 0.6219 0.0
C340 C 0.62667 0.86797 0.62015 0.0
C341 C 0.65459 0.87191 0.59471 0.0
C342 C 0.67477 0.90193 0.57066 0.0
H343 H 0.66744 0.92767 0.43298 0.0
H344 H 0.68691 0.91213 0.47206 0.0
H345 H 0.64567 0.90642 0.48448 0.0
H346 H 0.63333 0.94467 0.59823 0.0
H347 H 0.5985 0.89265 0.64115 0.0
H348 H 0.63731 0.79438 0.80389 0.0
H349 H 0.67262 0.77929 0.8502 0.0
H350 H 0.6686 0.71132 0.74493 0.0
H351 H 0.63348 0.72622 0.69836 0.0
H352 H 0.64955 0.71134 0.87828 0.0
H353 H 0.76984 0.76378 0.7815 0.0
H354 H 0.74002 0.77874 0.77394 0.0
H355 H 0.73262 0.74005 0.74718 0.0
C356 C 0.64451 0.77673 0.79018 0.0
C357 C 0.63255 0.76141 0.74749 0.0
C358 C 0.66464 0.76817 0.81671 0.0
C359 C 0.67352 0.74458 0.80065 0.0
C360 C 0.66255 0.7301 0.75749 0.0
H361 H 0.7437 0.61269 0.88418 0.0
H362 H 0.72709 0.64981 0.84583 0.0
C363 C 0.64224 0.73843 0.73111 0.0
C364 C 0.69098 0.73208 0.83064 0.0
H365 H 0.75909 0.71991 0.83563 0.0
C366 C 0.67382 0.71372 0.86959 0.0
C367 C 0.72252 0.73522 0.81889 0.0
C368 C 0.74252 0.75579 0.77831 0.0
C369 C 0.68643 0.69662 0.89574 0.0
C370 C 0.71742 0.69872 0.88305 0.0
C371 C 0.73531 0.71835 0.8452 0.0
C372 C 0.73013 0.67837 0.90626 0.0
C373 C 0.66547 0.6749 0.93508 0.0
C374 C 0.73804 0.68266 0.95277 0.0
C375 C 0.74722 0.66122 0.97499 0.0
C376 C 0.74902 0.63544 0.95084 0.0
C377 C 0.74243 0.63218 0.90385 0.0
C378 C 0.73302 0.65344 0.8818 0.0
H379 H 0.6391 0.67034 0.9342 0.0
H380 H 0.66446 0.64995 0.93501 0.0
H381 H 0.67725 0.68793 0.96752 0.0
H382 H 0.73662 0.70224 0.972 0.0
H383 H 0.75254 0.66463 1.01111 0.0
H384 H 0.06742 0.71203 0.32169 0.0
H385 H 0.0176 0.69432 0.27367 0.0
H386 H 0.07382 0.78232 0.18851 0.0
H387 H 0.12416 0.80041 0.23621 0.0
H388 H -0.00165 0.75961 0.22046 0.0
H389 H 0.02145 0.66403 0.13388 0.0
H390 H 0.02514 0.66618 0.19493 0.0
H391 H 0.05492 0.70142 0.16115 0.0
C392 C 0.06922 0.72792 0.29311 0.0
C393 C 0.09988 0.75753 0.28261 0.0
C394 C 0.04071 0.71773 0.26577 0.0
C395 C 0.04232 0.73696 0.22761 0.0
C396 C 0.0723 0.76724 0.21795 0.0
H397 H 0.88752 0.64881 0.01601 0.0
H398 H 0.94177 0.68495 0.0539 0.0
C399 C 0.10096 0.77746 0.24523 0.0
C400 C 0.0131 0.72406 0.19656 0.0
H401 H 0.96846 0.66056 0.1205 0.0
C402 C -0.00809 0.73823 0.19813 0.0
C403 C 0.00523 0.69649 0.16726 0.0
C404 C 0.02792 0.68115 0.16373 0.0
C405 C 0.96198 0.72442 0.17232 0.0
C406 C 0.95319 0.69567 0.1448 0.0
C407 C 0.97527 0.68256 0.14176 0.0
C408 C 0.92015 0.67717 0.12135 0.0
C409 C 0.93982 0.74037 0.17508 0.0
C410 C 0.89014 0.66095 0.14685 0.0
C411 C 0.85918 0.64017 0.12544 0.0
C412 C 0.85771 0.63514 0.0781 0.0
C413 C 0.88776 0.65215 0.0525 0.0
C414 C 0.91876 0.67284 0.07403 0.0
H415 H 0.95439 0.76718 0.18671 0.0
H416 H 0.92813 0.73957 0.14159 0.0
H417 H 0.91913 0.72602 0.19991 0.0
H418 H 0.89082 0.66342 0.18353 0.0
H419 H 0.83653 0.62748 0.14619 0.0
H420 H 0.32362 0.13275 0.56521 0.0
H421 H 0.29006 0.07939 0.52414 0.0
H422 H 0.312 0.02598 0.62813 0.0
H423 H 0.34605 0.07919 0.66899 0.0
H424 H 0.32659 0.01367 0.54337 0.0
H425 H 0.19706 -0.00337 0.5469 0.0
H426 H 0.2288 0.03742 0.52604 0.0
H427 H 0.23056 0.02585 0.58408 0.0
C428 C 0.32085 0.10956 0.57973 0.0
C429 C 0.3376 0.1102 0.62027 0.0
C430 C 0.30148 0.07906 0.55634 0.0
C431 C 0.29822 0.0487 0.57341 0.0
C432 C 0.31412 0.04915 0.61451 0.0
H433 H 0.1778 0.84347 0.46833 0.0
H434 H 0.19908 0.89554 0.51326 0.0
C435 C 0.33363 0.0796 0.63774 0.0
C436 C 0.28105 0.01707 0.54644 0.0
H437 H 0.20614 0.96103 0.49578 0.0
C438 C 0.30019 0.00205 0.53322 0.0
C439 C 0.24656 0.00187 0.53359 0.0
C440 C 0.22441 0.01605 0.54872 0.0
C441 C 0.28595 0.97249 0.50686 0.0
C442 C 0.25186 0.95801 0.4925 0.0
C443 C 0.23242 0.97255 0.50643 0.0
C444 C 0.23618 0.92758 0.46322 0.0
C445 C 0.30747 0.9568 0.49502 0.0
C446 C 0.24928 0.92875 0.4197 0.0
C447 C 0.2374 0.89914 0.39411 0.0
C448 C 0.21193 0.8679 0.41146 0.0
C449 C 0.19746 0.86715 0.45403 0.0
C450 C 0.20955 0.89683 0.47975 0.0
H451 H 0.32974 0.96583 0.51797 0.0
H452 H 0.29242 0.92865 0.49695 0.0
H453 H 0.31703 0.96398 0.45971 0.0
H454 H 0.26944 0.95244 0.40609 0.0
H455 H 0.24877 0.90064 0.3612 0.0
H456 H 0.15699 0.45429 0.68542 0.0
H457 H 0.16734 0.45295 0.60394 0.0
H458 H 0.20911 0.38765 0.62979 0.0
H459 H 0.19792 0.38798 0.71108 0.0
H460 H 0.22848 0.47289 0.55788 0.0
H461 H 0.13763 0.33571 0.53191 0.0
H462 H 0.1373 0.35822 0.58231 0.0
H463 H 0.16805 0.34461 0.57634 0.0
C464 C 0.16805 0.43933 0.67377 0.0
C465 C 0.17641 0.42106 0.70492 0.0
C466 C 0.17416 0.43879 0.62718 0.0
C467 C 0.18852 0.41979 0.61064 0.0
C468 C 0.19744 0.402 0.64164 0.0
H469 H 0.24229 0.38042 0.34306 0.0
H470 H 0.2332 0.38348 0.42445 0.0
C471 C 0.19138 0.40255 0.68823 0.0
C472 C 0.1945 0.41889 0.56104 0.0
H473 H 0.1738 0.36538 0.47003 0.0
C474 C 0.21642 0.44942 0.5386 0.0
C475 C 0.17877 0.38824 0.53591 0.0
C476 C 0.15388 0.35485 0.55766 0.0
C477 C 0.2236 0.45004 0.49195 0.0
C478 C 0.20789 0.41937 0.46682 0.0
C479 C 0.18589 0.38887 0.48928 0.0
C480 C 0.21399 0.41828 0.41726 0.0
C481 C 0.24862 0.48343 0.47031 0.0
C482 C 0.20595 0.43658 0.38594 0.0
C483 C 0.21142 0.43515 0.33932 0.0
C484 C 0.22483 0.41515 0.32289 0.0
C485 C 0.23251 0.39657 0.35441 0.0
C486 C 0.22708 0.39808 0.401 0.0
H487 H 0.2651 0.50237 0.4961 0.0
H488 H 0.26496 0.48 0.44533 0.0
H489 H 0.23454 0.49399 0.45209 0.0
H490 H 0.19517 0.45181 0.39751 0.0
H491 H 0.20541 0.44998 0.3162 0.0
H492 H 0.76533 0.2246 0.04049 0.0
H493 H 0.77652 0.23366 0.9588 0.0
H494 H 0.75216 0.12947 0.94337 0.0
H495 H 0.74079 0.12017 0.02503 0.0
H496 H 0.8231 0.22725 0.90628 0.0
H497 H 0.69239 0.13762 0.84711 0.0
H498 H 0.70195 0.15124 0.90556 0.0
H499 H 0.70993 0.11881 0.88407 0.0
C500 C 0.76251 0.20365 0.01976 0.0
C501 C 0.75202 0.17161 0.03927 0.0
C502 C 0.76877 0.20883 0.97304 0.0
C503 C 0.76462 0.1821 0.94481 0.0
C504 C 0.75468 0.15024 0.96426 0.0
H505 H 0.79448 0.16878 0.65414 0.0
H506 H 0.78354 0.1575 0.73569 0.0
C507 C 0.74826 0.14498 1.01096 0.0
C508 C 0.77143 0.18789 0.89523 0.0
H509 H 0.73506 0.1617 0.79043 0.0
C510 C 0.80382 0.21299 0.88095 0.0
C511 C 0.74627 0.1692 0.8622 0.0
C512 C 0.71059 0.14292 0.87539 0.0
C513 C 0.81186 0.21968 0.83459 0.0
C514 C 0.78667 0.20112 0.80158 0.0
C515 C 0.75435 0.17585 0.8158 0.0
C516 C 0.79318 0.20797 0.75215 0.0
C517 C 0.84744 0.24618 0.82133 0.0
C518 C 0.80169 0.23991 0.73424 0.0
C519 C 0.80783 0.2464 0.6877 0.0
C520 C 0.80539 0.221 0.65798 0.0
C521 C 0.79635 0.18883 0.67597 0.0
C522 C 0.79023 0.18238 0.72259 0.0
H523 H 0.86576 0.25141 0.84943 0.0
H524 H 0.85604 0.23811 0.79086 0.0
H525 H 0.84791 0.27025 0.81304 0.0
H526 H 0.80328 0.25977 0.75624 0.0
H527 H 0.81401 0.2712 0.6749 0.0
H528 H 0.53016 0.76679 0.37382 0.0
H529 H 0.52956 0.77712 0.29221 0.0
H530 H 0.61521 0.76215 0.27303 0.0
H531 H 0.61592 0.7517 0.35461 0.0
H532 H 0.57876 0.82604 0.23726 0.0
H533 H 0.54818 0.69747 0.17974 0.0
H534 H 0.54432 0.70682 0.23836 0.0
H535 H 0.58521 0.71821 0.21511 0.0
C536 C 0.54901 0.76589 0.3523 0.0
C537 C 0.57299 0.75824 0.37076 0.0
C538 C 0.54854 0.77166 0.30561 0.0
C539 C 0.57195 0.76982 0.27634 0.0
C540 C 0.59633 0.76283 0.29474 0.0
H541 H 0.60829 0.79908 0.98434 0.0
H542 H 0.61123 0.7899 0.06592 0.0
C543 C 0.59674 0.75692 0.34141 0.0
C544 C 0.57113 0.77579 0.22672 0.0
H545 H 0.56207 0.73912 0.12234 0.0
C546 C 0.575 0.80699 0.21214 0.0
C547 C 0.56627 0.75093 0.19393 0.0
C548 C 0.56044 0.71635 0.20747 0.0
C549 C 0.57457 0.81419 0.16571 0.0
C550 C 0.56962 0.78931 0.13297 0.0
C551 C 0.56594 0.75818 0.14749 0.0
C552 C 0.56775 0.79491 0.08349 0.0
C553 C 0.58002 0.8486 0.15208 0.0
C554 C 0.54203 0.80028 0.06617 0.0
C555 C 0.54017 0.80536 0.01955 0.0
C556 C 0.5639 0.80501 0.98916 0.0
C557 C 0.58941 0.79921 1.00663 0.0
C558 C 0.59124 0.79412 0.05329 0.0
H559 H 0.59217 0.86757 0.17974 0.0
H560 H 0.59605 0.85817 0.12112 0.0
H561 H 0.55512 0.84645 0.14444 0.0
H562 H 0.52314 0.80017 0.08867 0.0
H563 H 0.51977 0.80904 1.00724 0.0
H564 H 0.76601 0.58975 0.71253 0.0
H565 H 0.75443 0.58922 0.63112 0.0
H566 H 0.79092 0.5192 0.6081 0.0
H567 H 0.80177 0.51889 0.6896 0.0
H568 H 0.80142 0.60801 0.55911 0.0
H569 H 0.69869 0.47373 0.54286 0.0
H570 H 0.71207 0.49495 0.59712 0.0
H571 H 0.73683 0.47945 0.56924 0.0
C572 C 0.77108 0.57381 0.69029 0.0
C573 C 0.7847 0.55424 0.70771 0.0
C574 C 0.76466 0.57372 0.6437 0.0
C575 C 0.77142 0.55386 0.61359 0.0
C576 C 0.78498 0.53429 0.63079 0.0
H577 H 0.75353 0.52331 0.3202 0.0
H578 H 0.76419 0.5222 0.40163 0.0
C579 C 0.79151 0.53443 0.67735 0.0
C580 C 0.76536 0.55457 0.56401 0.0
H581 H 0.71985 0.50484 0.47433 0.0
C582 C 0.78348 0.5855 0.54058 0.0
C583 C 0.74207 0.52513 0.53986 0.0
C584 C 0.72104 0.49146 0.56352 0.0
C585 C 0.77933 0.58771 0.49355 0.0
C586 C 0.75587 0.55831 0.46941 0.0
C587 C 0.73782 0.52734 0.49283 0.0
C588 C 0.74952 0.55922 0.41992 0.0
C589 C 0.8007 0.62136 0.46998 0.0
C590 C 0.73735 0.58009 0.40312 0.0
C591 C 0.73151 0.58102 0.35654 0.0
C592 C 0.73743 0.56084 0.32569 0.0
C593 C 0.74919 0.53959 0.34278 0.0
C594 C 0.75507 0.53873 0.3894 0.0
H595 H 0.82363 0.63846 0.49014 0.0
H596 H 0.80884 0.61779 0.43581 0.0
H597 H 0.78554 0.63418 0.46563 0.0
H598 H 0.73224 0.59564 0.42608 0.0
H599 H 0.72274 0.59791 0.34467 0.0
H600 H 0.14717 0.7043 0.67548 0.0
H601 H 0.15752 0.71593 0.75684 0.0
H602 H 0.18575 0.82051 0.73338 0.0
H603 H 0.17431 0.80885 0.65211 0.0
H604 H 0.21711 0.76137 0.80039 0.0
H605 H 0.11591 0.79282 0.83515 0.0
H606 H 0.11733 0.77223 0.78337 0.0
H607 H 0.14437 0.8173 0.79017 0.0
C608 C 0.15507 0.72967 0.68765 0.0
C609 C 0.15964 0.75557 0.6572 0.0
C610 C 0.16123 0.73633 0.73416 0.0
C611 C 0.17192 0.76896 0.75131 0.0
C612 C 0.17688 0.79499 0.72104 0.0
H613 H 0.22719 0.85805 0.0217 0.0
H614 H 0.21662 0.84778 0.93995 0.0
C615 C 0.17071 0.78835 0.67449 0.0
C616 C 0.17864 0.77583 0.80073 0.0
H617 H 0.15469 0.80254 0.89508 0.0
C618 C 0.20337 0.77025 0.82114 0.0
C619 C 0.16074 0.78747 0.82774 0.0
C620 C 0.13288 0.79254 0.80818 0.0
C621 C 0.21099 0.7764 0.86767 0.0
C622 C 0.19304 0.78796 0.89466 0.0
C623 C 0.16843 0.79371 0.87427 0.0
C624 C 0.1993 0.79402 0.94423 0.0
C625 C 0.23862 0.77105 0.88742 0.0
C626 C 0.19262 0.7671 0.97381 0.0
C627 C 0.1987 0.77289 0.02049 0.0
C628 C 0.21151 0.80573 0.03855 0.0
C629 C 0.21776 0.83256 1.00883 0.0
C630 C 0.21156 0.82671 0.96216 0.0
H631 H 0.25541 0.77031 0.86056 0.0
H632 H 0.25436 0.79149 0.91197 0.0
H633 H 0.22691 0.74646 0.90587 0.0
H634 H 0.18266 0.74157 0.96077 0.0
H635 H 0.19385 0.75171 0.04233 0.0
H636 H 0.35691 0.16896 0.37559 0.0
H637 H 0.35812 0.15768 0.29437 0.0
H638 H 0.43344 0.26266 0.27253 0.0
H639 H 0.43325 0.27392 0.35374 0.0
H640 H 0.34385 0.18674 0.22008 0.0
H641 H 0.47638 0.2122 0.21246 0.0
H642 H 0.45403 0.20609 0.26546 0.0
H643 H 0.4724 0.24635 0.23659 0.0
C644 C 0.37405 0.18956 0.35361 0.0
C645 C 0.39508 0.22233 0.3713 0.0
C646 C 0.37454 0.18311 0.30715 0.0
C647 C 0.39623 0.2092 0.27748 0.0
C648 C 0.41696 0.24199 0.2949 0.0
H649 H 0.43518 0.22791 0.98726 0.0
H650 H 0.43262 0.23727 0.06882 0.0
C651 C 0.41649 0.24847 0.3413 0.0
C652 C 0.39668 0.20234 0.22817 0.0
H653 H 0.44857 0.20603 0.14166 0.0
C654 C 0.36667 0.19073 0.20296 0.0
C655 C 0.4265 0.20757 0.2059 0.0
C656 C 0.45909 0.21843 0.23151 0.0
C657 C 0.36587 0.18497 0.15589 0.0
C658 C 0.39577 0.19052 0.13359 0.0
C659 C 0.42572 0.20193 0.15882 0.0
C660 C 0.39657 0.18473 0.08404 0.0
C661 C 0.33327 0.17379 0.13018 0.0
C662 C 0.37732 0.15204 0.0656 0.0
C663 C 0.37866 0.14661 0.01899 0.0
C664 C 0.39934 0.1738 0.98989 0.0
C665 C 0.41863 0.20651 1.00857 0.0
C666 C 0.41737 0.21188 0.05521 0.0
H667 H 0.31508 0.1783 0.14996 0.0
H668 H 0.33827 0.18735 0.09714 0.0
H669 H 0.3211 0.14618 0.12303 0.0
H670 H 0.36147 0.13065 0.08735 0.0
H671 H 0.36332 0.12116 1.00568 0.0
H672 H 0.22419 0.4973 0.12412 0.0
H673 H 0.21627 0.53838 0.16756 0.0
H674 H 0.12548 0.51243 0.09143 0.0
H675 H 0.13301 0.47073 0.04749 0.0
H676 H 0.21347 0.5944 0.12989 0.0
H677 H 0.09719 0.50766 0.22762 0.0
H678 H 0.12355 0.49333 0.20077 0.0
H679 H 0.09534 0.5013 0.16705 0.0
C680 C 0.20242 0.50011 0.11649 0.0
C681 C 0.17928 0.48076 0.0821 0.0
C682 C 0.19793 0.52361 0.14151 0.0
C683 C 0.17016 0.52816 0.13298 0.0
C684 C 0.14681 0.50885 0.09893 0.0
H685 H 0.1609 0.70588 0.21672 0.0
H686 H 0.15666 0.65751 0.17517 0.0
C687 C 0.1513 0.48525 0.07368 0.0
C688 C 0.167 0.55452 0.15838 0.0
H689 H 0.11892 0.56675 0.23711 0.0
C690 C 0.19276 0.5884 0.15322 0.0
C691 C 0.14013 0.54642 0.18913 0.0
C692 C 0.11253 0.51021 0.19694 0.0
C693 C 0.1924 0.61454 0.17798 0.0
C694 C 0.16527 0.60658 0.20822 0.0
C695 C 0.13953 0.57268 0.21363 0.0
C696 C 0.16362 0.63344 0.23449 0.0
C697 C 0.22142 0.6504 0.17223 0.0
C698 C 0.16757 0.63514 0.28194 0.0
C699 C 0.16989 0.6628 0.30603 0.0
C700 C 0.16833 0.68909 0.28287 0.0
C701 C 0.1627 0.68632 0.23559 0.0
C702 C 0.16025 0.6587 0.2117 0.0
H703 H 0.24381 0.65105 0.15604 0.0
H704 H 0.21315 0.66479 0.15018 0.0
H705 H 0.22927 0.66359 0.20555 0.0
H706 H 0.1701 0.61573 0.30007 0.0
H707 H 0.1741 0.66415 0.34242 0.0
H708 H 0.70792 0.1812 0.48218 0.0
H709 H 0.65969 0.17704 0.52373 0.0
H710 H 0.61533 0.18498 0.39789 0.0
H711 H 0.66353 0.18878 0.35559 0.0
H712 H 0.64084 0.22651 0.52498 0.0
H713 H 0.53595 0.10361 0.46152 0.0
H714 H 0.58007 0.11591 0.45464 0.0
H715 H 0.56097 0.13333 0.41789 0.0
C716 C 0.68781 0.18176 0.4631 0.0
C717 C 0.68963 0.18541 0.41546 0.0
C718 C 0.66024 0.17934 0.48701 0.0
C719 C 0.63384 0.18039 0.46388 0.0
C720 C 0.63519 0.1835 0.41628 0.0
H721 H 0.45864 0.19243 0.54673 0.0
H722 H 0.50311 0.18821 0.50618 0.0
C723 C 0.66283 0.18585 0.3922 0.0
C724 C 0.60609 0.18041 0.49011 0.0
H725 H 0.52043 0.13702 0.50678 0.0
C726 C 0.61452 0.20685 0.52124 0.0
C727 C 0.57184 0.15473 0.48502 0.0
C728 C 0.56157 0.12509 0.45327 0.0
C729 C 0.58951 0.20871 0.54686 0.0
C730 C 0.55524 0.18307 0.54174 0.0
C731 C 0.54678 0.15654 0.51071 0.0
C732 C 0.52765 0.18414 0.56698 0.0
C733 C 0.59989 0.23861 0.5782 0.0
C734 C 0.52642 0.18269 0.6147 0.0
C735 C 0.50104 0.18525 0.63818 0.0
C736 C 0.47637 0.18907 0.61423 0.0
C737 C 0.47729 0.18964 0.56636 0.0
C738 C 0.50264 0.18715 0.54302 0.0
H739 H 0.62572 0.25982 0.57026 0.0
H740 H 0.58173 0.24818 0.576 0.0
H741 H 0.59998 0.2305 0.6138 0.0
H742 H 0.54519 0.17975 0.63376 0.0
H743 H 0.50092 0.18446 0.67501 0.0
H744 H 0.30908 0.44788 0.95743 0.0
H745 H 0.35791 0.48536 0.90968 0.0
H746 H 0.31673 0.55206 0.89113 0.0
H747 H 0.26771 0.5144 0.93717 0.0
H748 H 0.33629 0.53844 0.81188 0.0
H749 H 0.43895 0.57632 0.94009 0.0
H750 H 0.41334 0.53146 0.93027 0.0
H751 H 0.39468 0.55432 0.95551 0.0
C752 C 0.31076 0.47079 0.94357 0.0
C753 C 0.28466 0.47828 0.95106 0.0
C754 C 0.33866 0.49218 0.91637 0.0
C755 C 0.34111 0.52166 0.8971 0.0
C756 C 0.31533 0.52938 0.90544 0.0
H757 H 0.49834 0.70993 0.80809 0.0
H758 H 0.45694 0.65839 0.84645 0.0
C759 C 0.28736 0.50787 0.93191 0.0
C760 C 0.36984 0.5445 0.86727 0.0
H761 H 0.45504 0.6002 0.86711 0.0
C762 C 0.36235 0.55176 0.82374 0.0
C763 C 0.40377 0.56174 0.88287 0.0
C764 C 0.41329 0.55586 0.92983 0.0
C765 C 0.38745 0.57715 0.79637 0.0
C766 C 0.42128 0.595 0.81239 0.0
C767 C 0.4291 0.5864 0.85488 0.0
C768 C 0.44792 0.62549 0.78859 0.0
C769 C 0.37703 0.58602 0.75194 0.0
C770 C 0.45704 0.62419 0.74328 0.0
C771 C 0.48047 0.65396 0.72077 0.0
C772 C 0.49561 0.68533 0.7436 0.0
C773 C 0.48722 0.68623 0.7894 0.0
C774 C 0.46358 0.6567 0.81153 0.0
H775 H 0.34909 0.57486 0.74941 0.0
H776 H 0.38911 0.61397 0.74779 0.0
H777 H 0.38528 0.57594 0.72333 0.0
H778 H 0.44585 0.60025 0.72521 0.0
H779 H 0.48673 0.65241 0.68564 0.0
H780 H 0.81467 0.27821 0.22292 0.0
H781 H 0.82211 0.32816 0.18181 0.0
H782 H 0.78924 0.35996 0.30031 0.0
H783 H 0.78292 0.3105 0.34226 0.0
H784 H 0.77333 0.3407 0.16064 0.0
H785 H 0.86902 0.44863 0.26233 0.0
H786 H 0.8608 0.40575 0.27024 0.0
H787 H 0.83361 0.41928 0.2961 0.0
C788 C 0.80953 0.29613 0.24049 0.0
C789 C 0.79811 0.29045 0.28578 0.0
C790 C 0.81385 0.32469 0.21695 0.0
C791 C 0.80659 0.34803 0.23805 0.0
C792 C 0.79587 0.34281 0.28365 0.0
H793 H 0.75333 0.49219 0.1403 0.0
H794 H 0.76332 0.45172 0.18266 0.0
C795 C 0.79203 0.31442 0.30752 0.0
C796 C 0.80712 0.37584 0.21091 0.0
H797 H 0.83675 0.46135 0.20897 0.0
C798 C 0.78763 0.36713 0.17091 0.0
C799 C 0.82579 0.41035 0.22428 0.0
C800 C 0.84875 0.42162 0.26534 0.0
C801 C 0.78551 0.39179 0.14471 0.0
C802 C 0.80323 0.42598 0.15893 0.0
C803 C 0.8232 0.43496 0.19836 0.0
C804 C 0.79945 0.45225 0.13449 0.0
C805 C 0.76358 0.38117 0.10264 0.0
C806 C 0.81681 0.46606 0.09362 0.0
C807 C 0.81123 0.4893 0.06921 0.0
C808 C 0.78797 0.49873 0.08524 0.0
C809 C 0.77113 0.48518 0.1267 0.0
C810 C 0.77693 0.46223 0.15115 0.0
H811 H 0.74991 0.3532 0.09758 0.0
H812 H 0.74471 0.38985 0.10491 0.0
H813 H 0.77961 0.39343 0.0723 0.0
H814 H 0.83427 0.45848 0.08036 0.0
H815 H 0.82463 0.49934 0.03746 0.0
H816 H 0.25761 0.79788 0.4805 0.0
H817 H 0.30582 0.80146 0.52152 0.0
H818 H 0.34926 0.79327 0.39511 0.0
H819 H 0.30106 0.79005 0.35335 0.0
H820 H 0.32374 0.75128 0.52206 0.0
H821 H 0.42955 0.87375 0.45869 0.0
H822 H 0.38557 0.86209 0.45217 0.0
H823 H 0.40407 0.84431 0.41511 0.0
C824 C 0.27752 0.79717 0.46118 0.0
C825 C 0.27542 0.79357 0.41355 0.0
C826 C 0.30509 0.79925 0.48478 0.0
C827 C 0.33121 0.79792 0.46135 0.0
C828 C 0.32962 0.79496 0.41375 0.0
H829 H 0.50585 0.78429 0.54521 0.0
H830 H 0.46155 0.78849 0.50399 0.0
C831 C 0.302 0.79296 0.38996 0.0
C832 C 0.35883 0.79736 0.48731 0.0
H833 H 0.4445 0.83987 0.50397 0.0
C834 C 0.35014 0.77073 0.51832 0.0
C835 C 0.39319 0.82275 0.4822 0.0
C836 C 0.40376 0.85254 0.45055 0.0
C837 C 0.37498 0.76846 0.54387 0.0
C838 C 0.40935 0.79386 0.53884 0.0
C839 C 0.41808 0.82052 0.50783 0.0
C840 C 0.43673 0.79256 0.56442 0.0
C841 C 0.36428 0.73842 0.57515 0.0
C842 C 0.43772 0.79398 0.61214 0.0
C843 C 0.463 0.79144 0.63599 0.0
C844 C 0.48782 0.78768 0.61242 0.0
C845 C 0.4871 0.78705 0.56454 0.0
C846 C 0.46183 0.78952 0.54083 0.0
H847 H 0.33845 0.71733 0.56693 0.0
H848 H 0.38234 0.72872 0.57318 0.0
H849 H 0.36402 0.74642 0.61072 0.0
H850 H 0.41889 0.79696 0.63093 0.0
H851 H 0.46297 0.79227 0.6728 0.0
H852 H 0.69731 0.46316 0.93583 0.0
H853 H 0.64903 0.42655 0.88799 0.0
H854 H 0.60478 0.48971 0.91394 0.0
H855 H 0.65291 0.52616 0.96335 0.0
H856 H 0.55775 0.42417 0.91717 0.0
H857 H 0.63255 0.4464 0.76058 0.0
H858 H 0.64925 0.432 0.80511 0.0
H859 H 0.65014 0.47197 0.81095 0.0
C860 C 0.6773 0.46928 0.9315 0.0
C861 C 0.67899 0.49765 0.95313 0.0
C862 C 0.64986 0.44851 0.90374 0.0
C863 C 0.62384 0.45602 0.89616 0.0
C864 C 0.62484 0.48372 0.91884 0.0
H865 H 0.4798 0.32515 0.68623 0.0
H866 H 0.51978 0.37731 0.72645 0.0
C867 C 0.65222 0.5044 0.94721 0.0
C868 C 0.59525 0.43401 0.86566 0.0
H869 H 0.57831 0.39401 0.7629 0.0
C870 C 0.56214 0.41804 0.8831 0.0
C871 C 0.60072 0.42678 0.82063 0.0
C872 C 0.63507 0.44555 0.79809 0.0
C873 C 0.53479 0.3931 0.85803 0.0
C874 C 0.54095 0.38317 0.81505 0.0
C875 C 0.57361 0.40105 0.79621 0.0
C876 C 0.51488 0.35239 0.79114 0.0
C877 C 0.49968 0.37738 0.87826 0.0
C878 C 0.49917 0.32106 0.81391 0.0
C879 C 0.47623 0.29148 0.79127 0.0
C880 C 0.46896 0.29236 0.74496 0.0
C881 C 0.48489 0.32366 0.72191 0.0
C882 C 0.50765 0.35346 0.74486 0.0
H883 H 0.49711 0.39585 0.90026 0.0
H884 H 0.47982 0.36832 0.85151 0.0
H885 H 0.49517 0.35549 0.89995 0.0
H886 H 0.50525 0.31927 0.84906 0.0
H887 H 0.46477 0.26776 0.80999 0.0
loop_
_geom_bond_atom_site_label_1
_geom_bond_atom_site_label_2
_geom_bond_distance
_geom_bond_site_symmetry_2
_ccdc_geom_bond_type
Tb0 C9 2.764 . S
Tb0 O10 2.325 . S
Tb0 O13 2.303 . S
Tb0 O17 2.322 1_554 S
Tb0 O18 2.349 . S
Tb0 O21 2.415 . S
Tb0 O22 2.399 . S
Tb1 O11 2.322 1_556 S
Tb1 O12 2.349 . S
Tb1 O14 2.415 . S
Tb1 O15 2.399 . S
Tb1 O16 2.325 . S
Tb1 O19 2.303 . S
Tb1 C30 2.764 . S
C2 O18 1.261 1_556 S
C2 O19 1.257 . S
C3 C6 1.358 . S
C3 C7 1.332 . S
C3 C9 1.504 . S
C4 C5 1.373 . S
C4 C8 1.308 . S
C5 C4 1.373 . S
C5 C6 1.429 . S
C5 H32 0.932 . S
C6 C3 1.358 . S
C6 C5 1.429 . S
C6 H33 0.930 . S
C7 C3 1.332 . S
C7 C8 1.394 . S
C7 H34 0.932 . S
C8 C4 1.308 . S
C8 C7 1.394 . S
C8 H35 0.929 . S
C9 Tb0 2.764 . S
C9 C3 1.504 . S
C9 O21 1.239 . S
C9 O22 1.263 . S
O10 Tb0 2.325 . S
O10 C20 1.236 . S
O11 Tb1 2.322 1_554 S
O11 C20 1.257 . S
O12 Tb1 2.349 . S
O12 C23 1.261 1_556 S
O13 Tb0 2.303 . S
O13 C23 1.257 . S
O14 Tb1 2.415 . S
O14 C30 1.239 . S
O15 Tb1 2.399 . S
O15 C30 1.263 . S
O16 Tb1 2.325 . S
O16 C31 1.236 . S
O17 Tb0 2.322 1_556 S
O17 C31 1.257 . S
O18 Tb0 2.349 . S
O18 C2 1.261 1_554 S
O19 Tb1 2.303 . S
O19 C2 1.257 . S
C20 O10 1.236 . S
C20 O11 1.257 . S
O21 Tb0 2.415 . S
O21 C9 1.239 . S
O22 Tb0 2.399 . S
O22 C9 1.263 . S
C23 O12 1.261 1_554 S
C23 O13 1.257 . S
C24 C27 1.358 . S
C24 C28 1.332 . S
C24 C30 1.504 . S
C25 C26 1.373 . S
C25 C29 1.308 . S
C26 C25 1.373 . S
C26 C27 1.429 . S
C26 H36 0.932 . S
C27 C24 1.358 . S
C27 C26 1.429 . S
C27 H37 0.930 . S
C28 C24 1.332 . S
C28 C29 1.394 . S
C28 H38 0.932 . S
C29 C25 1.308 . S
C29 C28 1.394 . S
C29 H39 0.929 . S
C30 Tb1 2.764 . S
C30 O14 1.239 . S
C30 O15 1.263 . S
C30 C24 1.504 . S
C31 O16 1.236 . S
C31 O17 1.257 . S
H32 C5 0.932 . S
H33 C6 0.930 . S
H34 C7 0.932 . S
H35 C8 0.929 . S
H36 C26 0.932 . S
H37 C27 0.930 . S
H38 C28 0.932 . S
H39 C29 0.929 . S
Tb40 C49 2.764 . S
Tb40 O50 2.325 . S
Tb40 O53 2.303 . S
Tb40 O57 2.322 . S
Tb40 O58 2.349 . S
Tb40 O61 2.415 . S
Tb40 O62 2.399 . S
Tb41 O51 2.322 . S
Tb41 O52 2.349 . S
Tb41 O54 2.415 . S
Tb41 O55 2.399 . S
Tb41 O56 2.325 . S
Tb41 O59 2.303 . S
Tb41 C70 2.764 . S
C42 O58 1.261 . S
C42 O59 1.257 . S
C43 C46 1.358 . S
C43 C47 1.332 . S
C43 C49 1.504 . S
C44 C45 1.373 . S
C44 C48 1.308 . S
C45 C44 1.373 . S
C45 C46 1.429 . S
C45 H72 0.932 . S
C46 C43 1.358 . S
C46 C45 1.429 . S
C46 H73 0.930 . S
C47 C43 1.332 . S
C47 C48 1.394 . S
C47 H74 0.932 . S
C48 C44 1.308 . S
C48 C47 1.394 . S
C48 H75 0.929 . S
C49 Tb40 2.764 . S
C49 C43 1.504 . S
C49 O61 1.239 . S
C49 O62 1.263 . S
O50 Tb40 2.325 . S
O50 C60 1.236 . S
O51 Tb41 2.322 . S
O51 C60 1.257 . S
O52 Tb41 2.349 . S
O52 C63 1.261 . S
O53 Tb40 2.303 . S
O53 C63 1.257 . S
O54 Tb41 2.415 . S
O54 C70 1.239 . S
O55 Tb41 2.399 . S
O55 C70 1.263 . S
O56 Tb41 2.325 . S
O56 C71 1.236 . S
O57 Tb40 2.322 . S
O57 C71 1.257 . S
O58 Tb40 2.349 . S
O58 C42 1.261 . S
O59 Tb41 2.303 . S
O59 C42 1.257 . S
C60 O50 1.236 . S
C60 O51 1.257 . S
O61 Tb40 2.415 . S
O61 C49 1.239 . S
O62 Tb40 2.399 . S
O62 C49 1.263 . S
C63 O52 1.261 . S
C63 O53 1.257 . S
C64 C67 1.358 . S
C64 C68 1.332 . S
C64 C70 1.504 . S
C65 C66 1.373 . S
C65 C69 1.308 . S
C66 C65 1.373 . S
C66 C67 1.429 . S
C66 H76 0.932 . S
C67 C64 1.358 . S
C67 C66 1.429 . S
C67 H77 0.930 . S
C68 C64 1.332 . S
C68 C69 1.394 . S
C68 H78 0.932 . S
C69 C65 1.308 . S
C69 C68 1.394 . S
C69 H79 0.929 . S
C70 Tb41 2.764 . S
C70 O54 1.239 . S
C70 O55 1.263 . S
C70 C64 1.504 . S
C71 O56 1.236 . S
C71 O57 1.257 . S
H72 C45 0.932 . S
H73 C46 0.930 . S
H74 C47 0.932 . S
H75 C48 0.929 . S
H76 C66 0.932 . S
H77 C67 0.930 . S
H78 C68 0.932 . S
H79 C69 0.929 . S
Tb80 C89 2.764 . S
Tb80 O90 2.325 . S
Tb80 O93 2.303 . S
Tb80 O97 2.322 . S
Tb80 O98 2.349 . S
Tb80 O101 2.415 . S
Tb80 O102 2.399 . S
Tb81 O91 2.322 . S
Tb81 O92 2.349 . S
Tb81 O94 2.415 . S
Tb81 O95 2.399 . S
Tb81 O96 2.325 . S
Tb81 O99 2.303 . S
Tb81 C110 2.764 . S
C82 O98 1.261 . S
C82 O99 1.257 . S
C83 C86 1.358 . S
C83 C87 1.332 . S
C83 C89 1.504 . S
C84 C85 1.373 . S
C84 C88 1.308 . S
C85 C84 1.373 . S
C85 C86 1.429 . S
C85 H112 0.932 . S
C86 C83 1.358 . S
C86 C85 1.429 . S
C86 H113 0.930 . S
C87 C83 1.332 . S
C87 C88 1.394 . S
C87 H114 0.932 . S
C88 C84 1.308 . S
C88 C87 1.394 . S
C88 H115 0.929 . S
C89 Tb80 2.764 . S
C89 C83 1.504 . S
C89 O101 1.239 . S
C89 O102 1.263 . S
O90 Tb80 2.325 . S
O90 C100 1.236 . S
O91 Tb81 2.322 . S
O91 C100 1.257 . S
O92 Tb81 2.349 . S
O92 C103 1.261 . S
O93 Tb80 2.303 . S
O93 C103 1.257 . S
O94 Tb81 2.415 . S
O94 C110 1.239 . S
O95 Tb81 2.399 . S
O95 C110 1.263 . S
O96 Tb81 2.325 . S
O96 C111 1.236 . S
O97 Tb80 2.322 . S
O97 C111 1.257 . S
O98 Tb80 2.349 . S
O98 C82 1.261 . S
O99 Tb81 2.303 . S
O99 C82 1.257 . S
C100 O90 1.236 . S
C100 O91 1.257 . S
O101 Tb80 2.415 . S
O101 C89 1.239 . S
O102 Tb80 2.399 . S
O102 C89 1.263 . S
C103 O92 1.261 . S
C103 O93 1.257 . S
C104 C107 1.358 . S
C104 C108 1.332 . S
C104 C110 1.504 . S
C105 C106 1.373 . S
C105 C109 1.308 . S
C106 C105 1.373 . S
C106 C107 1.429 . S
C106 H116 0.932 . S
C107 C104 1.358 . S
C107 C106 1.429 . S
C107 H117 0.930 . S
C108 C104 1.332 . S
C108 C109 1.394 . S
C108 H118 0.932 . S
C109 C105 1.308 . S
C109 C108 1.394 . S
C109 H119 0.929 . S
C110 Tb81 2.764 . S
C110 O94 1.239 . S
C110 O95 1.263 . S
C110 C104 1.504 . S
C111 O96 1.236 . S
C111 O97 1.257 . S
H112 C85 0.932 . S
H113 C86 0.930 . S
H114 C87 0.932 . S
H115 C88 0.929 . S
H116 C106 0.932 . S
H117 C107 0.930 . S
H118 C108 0.932 . S
H119 C109 0.929 . S
Tb120 C129 2.764 . S
Tb120 O130 2.325 . S
Tb120 O133 2.303 . S
Tb120 O137 2.322 1_554 S
Tb120 O138 2.349 . S
Tb120 O141 2.415 . S
Tb120 O142 2.399 . S
Tb121 O131 2.322 1_556 S
Tb121 O132 2.349 . S
Tb121 O134 2.415 . S
Tb121 O135 2.399 . S
Tb121 O136 2.325 . S
Tb121 O139 2.303 . S
Tb121 C150 2.764 . S
C122 O138 1.261 1_556 S
C122 O139 1.257 . S
C123 C126 1.358 . S
C123 C127 1.332 . S
C123 C129 1.504 . S
C124 C125 1.373 . S
C124 C128 1.308 . S
C125 C124 1.373 . S
C125 C126 1.429 . S
C125 H152 0.932 . S
C126 C123 1.358 . S
C126 C125 1.429 . S
C126 H153 0.930 . S
C127 C123 1.332 . S
C127 C128 1.394 . S
C127 H154 0.932 . S
C128 C124 1.308 . S
C128 C127 1.394 . S
C128 H155 0.929 . S
C129 Tb120 2.764 . S
C129 C123 1.504 . S
C129 O141 1.239 . S
C129 O142 1.263 . S
O130 Tb120 2.325 . S
O130 C140 1.236 . S
O131 Tb121 2.322 1_554 S
O131 C140 1.257 . S
O132 Tb121 2.349 . S
O132 C143 1.261 1_556 S
O133 Tb120 2.303 . S
O133 C143 1.257 . S
O134 Tb121 2.415 . S
O134 C150 1.239 . S
O135 Tb121 2.399 . S
O135 C150 1.263 . S
O136 Tb121 2.325 . S
O136 C151 1.236 . S
O137 Tb120 2.322 1_556 S
O137 C151 1.257 . S
O138 Tb120 2.349 . S
O138 C122 1.261 1_554 S
O139 Tb121 2.303 . S
O139 C122 1.257 . S
C140 O130 1.236 . S
C140 O131 1.257 . S
O141 Tb120 2.415 . S
O141 C129 1.239 . S
O142 Tb120 2.399 . S
O142 C129 1.263 . S
C143 O132 1.261 1_554 S
C143 O133 1.257 . S
C144 C147 1.358 . S
C144 C148 1.332 . S
C144 C150 1.504 . S
C145 C146 1.373 . S
C145 C149 1.308 . S
C146 C145 1.373 . S
C146 C147 1.429 . S
C146 H156 0.932 . S
C147 C144 1.358 . S
C147 C146 1.429 . S
C147 H157 0.930 . S
C148 C144 1.332 . S
C148 C149 1.394 . S
C148 H158 0.932 . S
C149 C145 1.308 . S
C149 C148 1.394 . S
C149 H159 0.929 . S
C150 Tb121 2.764 . S
C150 O134 1.239 . S
C150 O135 1.263 . S
C150 C144 1.504 . S
C151 O136 1.236 . S
C151 O137 1.257 . S
H152 C125 0.932 . S
H153 C126 0.930 . S
H154 C127 0.932 . S
H155 C128 0.929 . S
H156 C146 0.932 . S
H157 C147 0.930 . S
H158 C148 0.932 . S
H159 C149 0.929 . S
Tb160 C169 2.764 . S
Tb160 O170 2.325 . S
Tb160 O173 2.303 . S
Tb160 O177 2.322 . S
Tb160 O178 2.349 . S
Tb160 O181 2.415 . S
Tb160 O182 2.399 . S
Tb161 O171 2.322 . S
Tb161 O172 2.349 . S
Tb161 O174 2.415 . S
Tb161 O175 2.399 . S
Tb161 O176 2.325 . S
Tb161 O179 2.303 . S
Tb161 C190 2.764 . S
C162 O178 1.261 . S
C162 O179 1.257 . S
C163 C166 1.358 . S
C163 C167 1.332 . S
C163 C169 1.504 . S
C164 C165 1.373 . S
C164 C168 1.308 . S
C165 C164 1.373 . S
C165 C166 1.429 . S
C165 H192 0.932 . S
C166 C163 1.358 . S
C166 C165 1.429 . S
C166 H193 0.930 . S
C167 C163 1.332 . S
C167 C168 1.394 . S
C167 H194 0.932 . S
C168 C164 1.308 . S
C168 C167 1.394 . S
C168 H195 0.929 . S
C169 Tb160 2.764 . S
C169 C163 1.504 . S
C169 O181 1.239 . S
C169 O182 1.263 . S
O170 Tb160 2.325 . S
O170 C180 1.236 . S
O171 Tb161 2.322 . S
O171 C180 1.257 . S
O172 Tb161 2.349 . S
O172 C183 1.261 . S
O173 Tb160 2.303 . S
O173 C183 1.257 . S
O174 Tb161 2.415 . S
O174 C190 1.239 . S
O175 Tb161 2.399 . S
O175 C190 1.263 . S
O176 Tb161 2.325 . S
O176 C191 1.236 . S
O177 Tb160 2.322 . S
O177 C191 1.257 . S
O178 Tb160 2.349 . S
O178 C162 1.261 . S
O179 Tb161 2.303 . S
O179 C162 1.257 . S
C180 O170 1.236 . S
C180 O171 1.257 . S
O181 Tb160 2.415 . S
O181 C169 1.239 . S
O182 Tb160 2.399 . S
O182 C169 1.263 . S
C183 O172 1.261 . S
C183 O173 1.257 . S
C184 C187 1.358 . S
C184 C188 1.332 . S
C184 C190 1.504 . S
C185 C186 1.373 . S
C185 C189 1.308 . S
C186 C185 1.373 . S
C186 C187 1.429 . S
C186 H196 0.932 . S
C187 C184 1.358 . S
C187 C186 1.429 . S
C187 H197 0.930 . S
C188 C184 1.332 . S
C188 C189 1.394 . S
C188 H198 0.932 . S
C189 C185 1.308 . S
C189 C188 1.394 . S
C189 H199 0.929 . S
C190 Tb161 2.764 . S
C190 O174 1.239 . S
C190 O175 1.263 . S
C190 C184 1.504 . S
C191 O176 1.236 . S
C191 O177 1.257 . S
H192 C165 0.932 . S
H193 C166 0.930 . S
H194 C167 0.932 . S
H195 C168 0.929 . S
H196 C186 0.932 . S
H197 C187 0.930 . S
H198 C188 0.932 . S
H199 C189 0.929 . S
Tb200 C209 2.764 . S
Tb200 O210 2.325 . S
Tb200 O213 2.303 . S
Tb200 O217 2.322 . S
Tb200 O218 2.349 . S
Tb200 O221 2.415 . S
Tb200 O222 2.399 . S
Tb201 O211 2.322 . S
Tb201 O212 2.349 . S
Tb201 O214 2.415 . S
Tb201 O215 2.399 . S
Tb201 O216 2.325 . S
Tb201 O219 2.303 . S
Tb201 C230 2.764 . S
C202 O218 1.261 . S
C202 O219 1.257 . S
C203 C206 1.358 . S
C203 C207 1.332 . S
C203 C209 1.504 . S
C204 C205 1.373 . S
C204 C208 1.308 . S
C205 C204 1.373 . S
C205 C206 1.429 . S
C205 H232 0.932 . S
C206 C203 1.358 . S
C206 C205 1.429 . S
C206 H233 0.930 . S
C207 C203 1.332 . S
C207 C208 1.394 . S
C207 H234 0.932 . S
C208 C204 1.308 . S
C208 C207 1.394 . S
C208 H235 0.929 . S
C209 Tb200 2.764 . S
C209 C203 1.504 . S
C209 O221 1.239 . S
C209 O222 1.263 . S
O210 Tb200 2.325 . S
O210 C220 1.236 . S
O211 Tb201 2.322 . S
O211 C220 1.257 . S
O212 Tb201 2.349 . S
O212 C223 1.261 . S
O213 Tb200 2.303 . S
O213 C223 1.257 . S
O214 Tb201 2.415 . S
O214 C230 1.239 . S
O215 Tb201 2.399 . S
O215 C230 1.263 . S
O216 Tb201 2.325 . S
O216 C231 1.236 . S
O217 Tb200 2.322 . S
O217 C231 1.257 . S
O218 Tb200 2.349 . S
O218 C202 1.261 . S
O219 Tb201 2.303 . S
O219 C202 1.257 . S
C220 O210 1.236 . S
C220 O211 1.257 . S
O221 Tb200 2.415 . S
O221 C209 1.239 . S
O222 Tb200 2.399 . S
O222 C209 1.263 . S
C223 O212 1.261 . S
C223 O213 1.257 . S
C224 C227 1.358 . S
C224 C228 1.332 . S
C224 C230 1.504 . S
C225 C226 1.373 . S
C225 C229 1.308 . S
C226 C225 1.373 . S
C226 C227 1.429 . S
C226 H236 0.932 . S
C227 C224 1.358 . S
C227 C226 1.429 . S
C227 H237 0.930 . S
C228 C224 1.332 . S
C228 C229 1.394 . S
C228 H238 0.932 . S
C229 C225 1.308 . S
C229 C228 1.394 . S
C229 H239 0.929 . S
C230 Tb201 2.764 . S
C230 O214 1.239 . S
C230 O215 1.263 . S
C230 C224 1.504 . S
C231 O216 1.236 . S
C231 O217 1.257 . S
H232 C205 0.932 . S
H233 C206 0.930 . S
H234 C207 0.932 . S
H235 C208 0.929 . S
H236 C226 0.932 . S
H237 C227 0.930 . S
H238 C228 0.932 . S
H239 C229 0.929 . S
H240 C248 0.929 . S
H241 C250 0.930 . S
H242 C252 0.930 . S
H243 C255 0.929 . S
H244 C258 0.930 . S
H245 C260 0.960 . S
H246 C260 0.960 . S
H247 C260 0.960 . S
C248 H240 0.929 . S
C248 C249 1.377 . S
C248 C250 1.384 . S
C249 C248 1.377 . S
C249 C255 1.390 . S
C250 H241 0.930 . S
C250 C248 1.384 . S
C250 C251 1.372 . S
C251 C250 1.372 . S
C251 C252 1.400 . S
C251 C256 1.490 . S
C252 H242 0.930 . S
C252 C251 1.400 . S
C252 C255 1.386 . S
H253 C269 0.930 . S
H254 C270 0.931 . S
C255 H243 0.929 . S
C255 C249 1.390 . S
C255 C252 1.386 . S
C256 C251 1.490 . S
C256 C258 1.395 . S
C256 C259 1.403 . S
H257 C263 0.930 . S
C258 H244 0.930 . S
C258 C256 1.395 . S
C258 C261 1.403 . S
C259 C256 1.403 . S
C259 C260 1.524 . S
C259 C263 1.400 . S
C260 H245 0.960 . S
C260 H246 0.960 . S
C260 H247 0.960 . S
C260 C259 1.524 . S
C261 C258 1.403 . S
C261 C262 1.392 . S
C261 C265 1.495 . S
C262 C261 1.392 . S
C262 C263 1.385 . S
C262 C264 1.478 . S
C263 H257 0.930 . S
C263 C259 1.400 . S
C263 C262 1.385 . S
C264 C262 1.478 . S
C264 C266 1.381 . S
C264 C270 1.383 . S
C265 C261 1.495 . S
C265 H271 0.959 . S
C265 H272 0.961 . S
C265 H273 0.960 . S
C266 C264 1.381 . S
C266 C267 1.394 . S
C266 H274 0.930 . S
C267 C266 1.394 . S
C267 C268 1.383 . S
C267 H275 0.929 . S
C268 C267 1.383 . S
C268 C269 1.377 . S
C269 H253 0.930 . S
C269 C268 1.377 . S
C269 C270 1.379 . S
C270 H254 0.931 . S
C270 C264 1.383 . S
C270 C269 1.379 . S
H271 C265 0.959 . S
H272 C265 0.961 . S
H273 C265 0.960 . S
H274 C266 0.930 . S
H275 C267 0.929 . S
H276 C284 0.929 . S
H277 C286 0.930 . S
H278 C288 0.930 . S
H279 C291 0.929 . S
H280 C294 0.924 . S
H281 C296 0.960 . S
H282 C296 0.960 . S
H283 C296 0.960 . S
C284 H276 0.929 . S
C284 C285 1.377 . S
C284 C286 1.384 . S
C285 C284 1.377 . S
C285 C291 1.390 . S
C286 H277 0.930 . S
C286 C284 1.384 . S
C286 C287 1.372 . S
C287 C286 1.372 . S
C287 C288 1.400 . S
C287 C292 1.490 . S
C288 H278 0.930 . S
C288 C287 1.400 . S
C288 C291 1.386 . S
H289 C305 0.930 . S
H290 C306 0.931 . S
C291 H279 0.929 . S
C291 C285 1.390 . S
C291 C288 1.386 . S
C292 C287 1.490 . S
C292 C294 1.427 . S
C292 C295 1.403 . S
H293 C299 0.930 . S
C294 H280 0.924 . S
C294 C292 1.427 . S
C294 C297 1.377 1_455 S
C295 C292 1.403 . S
C295 C296 1.524 . S
C295 C299 1.400 1_455 S
C296 H281 0.960 . S
C296 H282 0.960 . S
C296 H283 0.960 . S
C296 C295 1.524 . S
C297 C294 1.377 1_655 S
C297 C298 1.392 . S
C297 C301 1.495 . S
C298 C297 1.392 . S
C298 C299 1.385 . S
C298 C300 1.478 . S
C299 H293 0.930 . S
C299 C295 1.400 1_655 S
C299 C298 1.385 . S
C300 C298 1.478 . S
C300 C302 1.381 . S
C300 C306 1.383 . S
C301 C297 1.495 . S
C301 H307 0.959 . S
C301 H308 0.961 . S
C301 H309 0.960 . S
C302 C300 1.381 . S
C302 C303 1.394 . S
C302 H310 0.930 . S
C303 C302 1.394 . S
C303 C304 1.383 . S
C303 H311 0.929 . S
C304 C303 1.383 . S
C304 C305 1.377 . S
C305 H289 0.930 . S
C305 C304 1.377 . S
C305 C306 1.379 . S
C306 H290 0.931 . S
C306 C300 1.383 . S
C306 C305 1.379 . S
H307 C301 0.959 . S
H308 C301 0.961 . S
H309 C301 0.960 . S
H310 C302 0.930 . S
H311 C303 0.929 . S
H312 C320 0.929 . S
H313 C322 0.930 . S
H314 C324 0.930 . S
H315 C327 0.929 . S
H316 C330 0.930 . S
H317 C332 0.960 . S
H318 C332 0.960 . S
H319 C332 0.960 . S
C320 H312 0.929 . S
C320 C321 1.377 . S
C320 C322 1.384 . S
C321 C320 1.377 . S
C321 C327 1.390 . S
C322 H313 0.930 . S
C322 C320 1.384 . S
C322 C323 1.372 . S
C323 C322 1.372 . S
C323 C324 1.400 . S
C323 C328 1.490 . S
C324 H314 0.930 . S
C324 C323 1.400 . S
C324 C327 1.386 . S
H325 C341 0.930 . S
H326 C342 0.931 . S
C327 H315 0.929 . S
C327 C321 1.390 . S
C327 C324 1.386 . S
C328 C323 1.490 . S
C328 C330 1.395 1_545 S
C328 C331 1.403 . S
H329 C335 0.930 . S
C330 H316 0.930 . S
C330 C328 1.395 1_565 S
C330 C333 1.403 . S
C331 C328 1.403 . S
C331 C332 1.524 . S
C331 C335 1.400 1_545 S
C332 H317 0.960 . S
C332 H318 0.960 . S
C332 H319 0.960 . S
C332 C331 1.524 . S
C333 C330 1.403 . S
C333 C334 1.392 . S
C333 C337 1.495 . S
C334 C333 1.392 . S
C334 C335 1.385 . S
C334 C336 1.478 . S
C335 H329 0.930 . S
C335 C331 1.400 1_565 S
C335 C334 1.385 . S
C336 C334 1.478 . S
C336 C338 1.381 . S
C336 C342 1.383 . S
C337 C333 1.495 . S
C337 H343 0.959 . S
C337 H344 0.961 . S
C337 H345 0.960 . S
C338 C336 1.381 . S
C338 C339 1.394 . S
C338 H346 0.930 . S
C339 C338 1.394 . S
C339 C340 1.383 . S
C339 H347 0.929 . S
C340 C339 1.383 . S
C340 C341 1.377 . S
C341 H325 0.930 . S
C341 C340 1.377 . S
C341 C342 1.379 . S
C342 H326 0.931 . S
C342 C336 1.383 . S
C342 C341 1.379 . S
H343 C337 0.959 . S
H344 C337 0.961 . S
H345 C337 0.960 . S
H346 C338 0.930 . S
H347 C339 0.929 . S
H348 C356 0.929 . S
H349 C358 0.930 . S
H350 C360 0.930 . S
H351 C363 0.929 . S
H352 C366 0.930 . S
H353 C368 0.960 . S
H354 C368 0.960 . S
H355 C368 0.960 . S
C356 H348 0.929 . S
C356 C357 1.377 . S
C356 C358 1.384 . S
C357 C356 1.377 . S
C357 C363 1.390 . S
C358 H349 0.930 . S
C358 C356 1.384 . S
C358 C359 1.372 . S
C359 C358 1.372 . S
C359 C360 1.400 . S
C359 C364 1.490 . S
C360 H350 0.930 . S
C360 C359 1.400 . S
C360 C363 1.386 . S
H361 C377 0.930 . S
H362 C378 0.931 . S
C363 H351 0.929 . S
C363 C357 1.390 . S
C363 C360 1.386 . S
C364 C359 1.490 . S
C364 C366 1.395 . S
C364 C367 1.403 . S
H365 C371 0.930 . S
C366 H352 0.930 . S
C366 C364 1.395 . S
C366 C369 1.403 . S
C367 C364 1.403 . S
C367 C368 1.524 . S
C367 C371 1.400 . S
C368 H353 0.960 . S
C368 H354 0.960 . S
C368 H355 0.960 . S
C368 C367 1.524 . S
C369 C366 1.403 . S
C369 C370 1.392 . S
C369 C373 1.495 . S
C370 C369 1.392 . S
C370 C371 1.385 . S
C370 C372 1.478 . S
C371 H365 0.930 . S
C371 C367 1.400 . S
C371 C370 1.385 . S
C372 C370 1.478 . S
C372 C374 1.381 . S
C372 C378 1.383 . S
C373 C369 1.495 . S
C373 H379 0.959 . S
C373 H380 0.961 . S
C373 H381 0.960 . S
C374 C372 1.381 . S
C374 C375 1.394 . S
C374 H382 0.930 . S
C375 C374 1.394 . S
C375 C376 1.383 . S
C375 H383 0.929 . S
C376 C375 1.383 . S
C376 C377 1.377 . S
C377 H361 0.930 . S
C377 C376 1.377 . S
C377 C378 1.379 . S
C378 H362 0.931 . S
C378 C372 1.383 . S
C378 C377 1.379 . S
H379 C373 0.959 . S
H380 C373 0.961 . S
H381 C373 0.960 . S
H382 C374 0.930 . S
H383 C375 0.929 . S
H384 C392 0.929 . S
H385 C394 0.930 . S
H386 C396 0.930 . S
H387 C399 0.929 . S
H388 C402 0.930 . S
H389 C404 0.960 1_655 S
H390 C404 0.960 . S
H391 C404 0.960 . S
C392 H384 0.929 . S
C392 C393 1.377 . S
C392 C394 1.384 . S
C393 C392 1.377 . S
C393 C399 1.390 . S
C394 H385 0.930 . S
C394 C392 1.384 . S
C394 C395 1.372 . S
C395 C394 1.372 . S
C395 C396 1.400 . S
C395 C400 1.490 . S
C396 H386 0.930 . S
C396 C395 1.400 . S
C396 C399 1.386 . S
H397 C413 0.930 . S
H398 C414 0.931 . S
C399 H387 0.929 . S
C399 C393 1.390 . S
C399 C396 1.386 . S
C400 C395 1.490 . S
C400 C402 1.395 . S
C400 C403 1.403 . S
H401 C407 0.930 . S
C402 H388 0.930 . S
C402 C400 1.395 . S
C402 C405 1.403 1_455 S
C403 C400 1.403 . S
C403 C404 1.524 . S
C403 C407 1.400 1_455 S
C404 H389 0.960 1_455 S
C404 H390 0.960 . S
C404 H391 0.960 . S
C404 C403 1.524 . S
C405 C402 1.403 1_655 S
C405 C406 1.392 . S
C405 C409 1.495 . S
C406 C405 1.392 . S
C406 C407 1.385 . S
C406 C408 1.478 . S
C407 H401 0.930 . S
C407 C403 1.400 1_655 S
C407 C406 1.385 . S
C408 C406 1.478 . S
C408 C410 1.381 . S
C408 C414 1.383 . S
C409 C405 1.495 . S
C409 H415 0.959 1_655 S
C409 H416 0.961 . S
C409 H417 0.960 . S
C410 C408 1.381 . S
C410 C411 1.394 . S
C410 H418 0.930 . S
C411 C410 1.394 . S
C411 C412 1.383 . S
C411 H419 0.929 . S
C412 C411 1.383 . S
C412 C413 1.377 . S
C413 H397 0.930 . S
C413 C412 1.377 . S
C413 C414 1.379 . S
C414 H398 0.931 . S
C414 C408 1.383 . S
C414 C413 1.379 . S
H415 C409 0.959 1_455 S
H416 C409 0.961 . S
H417 C409 0.960 . S
H418 C410 0.930 . S
H419 C411 0.929 . S
H420 C428 0.929 . S
H421 C430 0.930 . S
H422 C432 0.930 . S
H423 C435 0.929 . S
H424 C438 0.930 . S
H425 C440 0.960 . S
H426 C440 0.960 1_545 S
H427 C440 0.960 . S
C428 H420 0.929 . S
C428 C429 1.377 . S
C428 C430 1.384 . S
C429 C428 1.377 . S
C429 C435 1.390 . S
C430 H421 0.930 . S
C430 C428 1.384 . S
C430 C431 1.372 . S
C431 C430 1.372 . S
C431 C432 1.400 . S
C431 C436 1.490 . S
C432 H422 0.930 . S
C432 C431 1.400 . S
C432 C435 1.386 . S
H433 C449 0.930 . S
H434 C450 0.931 . S
C435 H423 0.929 . S
C435 C429 1.390 . S
C435 C432 1.386 . S
C436 C431 1.490 . S
C436 C438 1.395 . S
C436 C439 1.403 1_545 S
H437 C443 0.930 . S
C438 H424 0.930 . S
C438 C436 1.395 . S
C438 C441 1.403 . S
C439 C436 1.403 1_565 S
C439 C440 1.524 . S
C439 C443 1.400 . S
C440 H425 0.960 . S
C440 H426 0.960 1_565 S
C440 H427 0.960 . S
C440 C439 1.524 . S
C441 C438 1.403 . S
C441 C442 1.392 1_545 S
C441 C445 1.495 . S
C442 C441 1.392 1_565 S
C442 C443 1.385 . S
C442 C444 1.478 . S
C443 H437 0.930 . S
C443 C439 1.400 . S
C443 C442 1.385 . S
C444 C442 1.478 . S
C444 C446 1.381 . S
C444 C450 1.383 . S
C445 C441 1.495 . S
C445 H451 0.959 . S
C445 H452 0.961 . S
C445 H453 0.960 . S
C446 C444 1.381 . S
C446 C447 1.394 . S
C446 H454 0.930 . S
C447 C446 1.394 . S
C447 C448 1.383 . S
C447 H455 0.929 . S
C448 C447 1.383 . S
C448 C449 1.377 . S
C449 H433 0.930 . S
C449 C448 1.377 . S
C449 C450 1.379 . S
C450 H434 0.931 . S
C450 C444 1.383 . S
C450 C449 1.379 . S
H451 C445 0.959 . S
H452 C445 0.961 . S
H453 C445 0.960 . S
H454 C446 0.930 . S
H455 C447 0.929 . S
H456 C464 0.929 . S
H457 C466 0.930 . S
H458 C468 0.930 . S
H459 C471 0.929 . S
H460 C474 0.930 . S
H461 C476 0.960 . S
H462 C476 0.960 . S
H463 C476 0.960 . S
C464 H456 0.929 . S
C464 C465 1.377 . S
C464 C466 1.384 . S
C465 C464 1.377 . S
C465 C471 1.390 . S
C466 H457 0.930 . S
C466 C464 1.384 . S
C466 C467 1.372 . S
C467 C466 1.372 . S
C467 C468 1.400 . S
C467 C472 1.490 . S
C468 H458 0.930 . S
C468 C467 1.400 . S
C468 C471 1.386 . S
H469 C485 0.930 . S
H470 C486 0.931 . S
C471 H459 0.929 . S
C471 C465 1.390 . S
C471 C468 1.386 . S
C472 C467 1.490 . S
C472 C474 1.395 . S
C472 C475 1.403 . S
H473 C479 0.930 . S
C474 H460 0.930 . S
C474 C472 1.395 . S
C474 C477 1.403 . S
C475 C472 1.403 . S
C475 C476 1.524 . S
C475 C479 1.400 . S
C476 H461 0.960 . S
C476 H462 0.960 . S
C476 H463 0.960 . S
C476 C475 1.524 . S
C477 C474 1.403 . S
C477 C478 1.392 . S
C477 C481 1.495 . S
C478 C477 1.392 . S
C478 C479 1.385 . S
C478 C480 1.478 . S
C479 H473 0.930 . S
C479 C475 1.400 . S
C479 C478 1.385 . S
C480 C478 1.478 . S
C480 C482 1.381 . S
C480 C486 1.383 . S
C481 C477 1.495 . S
C481 H487 0.959 . S
C481 H488 0.961 . S
C481 H489 0.960 . S
C482 C480 1.381 . S
C482 C483 1.394 . S
C482 H490 0.930 . S
C483 C482 1.394 . S
C483 C484 1.383 . S
C483 H491 0.929 . S
C484 C483 1.383 . S
C484 C485 1.377 . S
C485 H469 0.930 . S
C485 C484 1.377 . S
C485 C486 1.379 . S
C486 H470 0.931 . S
C486 C480 1.383 . S
C486 C485 1.379 . S
H487 C481 0.959 . S
H488 C481 0.961 . S
H489 C481 0.960 . S
H490 C482 0.930 . S
H491 C483 0.929 . S
H492 C500 0.929 1_554 S
H493 C502 0.930 . S
H494 C504 0.930 . S
H495 C507 0.929 . S
H496 C510 0.930 . S
H497 C512 0.960 . S
H498 C512 0.960 . S
H499 C512 0.960 . S
C500 H492 0.929 1_556 S
C500 C501 1.377 1_556 S
C500 C502 1.384 . S
C501 C500 1.377 1_554 S
C501 C507 1.390 1_554 S
C502 H493 0.930 . S
C502 C500 1.384 . S
C502 C503 1.372 . S
C503 C502 1.372 . S
C503 C504 1.400 . S
C503 C508 1.490 . S
C504 H494 0.930 . S
C504 C503 1.400 . S
C504 C507 1.386 . S
H505 C521 0.930 . S
H506 C522 0.931 . S
C507 H495 0.929 . S
C507 C501 1.390 1_556 S
C507 C504 1.386 . S
C508 C503 1.490 . S
C508 C510 1.395 . S
C508 C511 1.403 . S
H509 C515 0.930 . S
C510 H496 0.930 . S
C510 C508 1.395 . S
C510 C513 1.403 . S
C511 C508 1.403 . S
C511 C512 1.524 . S
C511 C515 1.400 . S
C512 H497 0.960 . S
C512 H498 0.960 . S
C512 H499 0.960 . S
C512 C511 1.524 . S
C513 C510 1.403 . S
C513 C514 1.392 . S
C513 C517 1.495 . S
C514 C513 1.392 . S
C514 C515 1.385 . S
C514 C516 1.478 . S
C515 H509 0.930 . S
C515 C511 1.400 . S
C515 C514 1.385 . S
C516 C514 1.478 . S
C516 C518 1.381 . S
C516 C522 1.383 . S
C517 C513 1.495 . S
C517 H523 0.959 . S
C517 H524 0.961 . S
C517 H525 0.960 . S
C518 C516 1.381 . S
C518 C519 1.394 . S
C518 H526 0.930 . S
C519 C518 1.394 . S
C519 C520 1.383 . S
C519 H527 0.929 . S
C520 C519 1.383 . S
C520 C521 1.377 . S
C521 H505 0.930 . S
C521 C520 1.377 . S
C521 C522 1.379 . S
C522 H506 0.931 . S
C522 C516 1.383 . S
C522 C521 1.379 . S
H523 C517 0.959 . S
H524 C517 0.961 . S
H525 C517 0.960 . S
H526 C518 0.930 . S
H527 C519 0.929 . S
H528 C536 0.929 . S
H529 C538 0.930 . S
H530 C540 0.930 . S
H531 C543 0.929 . S
H532 C546 0.930 . S
H533 C548 0.960 . S
H534 C548 0.960 . S
H535 C548 0.960 . S
C536 H528 0.929 . S
C536 C537 1.377 . S
C536 C538 1.384 . S
C537 C536 1.377 . S
C537 C543 1.390 . S
C538 H529 0.930 . S
C538 C536 1.384 . S
C538 C539 1.372 . S
C539 C538 1.372 . S
C539 C540 1.400 . S
C539 C544 1.490 . S
C540 H530 0.930 . S
C540 C539 1.400 . S
C540 C543 1.386 . S
H541 C557 0.930 1_556 S
H542 C558 0.931 . S
C543 H531 0.929 . S
C543 C537 1.390 . S
C543 C540 1.386 . S
C544 C539 1.490 . S
C544 C546 1.395 . S
C544 C547 1.403 . S
H545 C551 0.930 . S
C546 H532 0.930 . S
C546 C544 1.395 . S
C546 C549 1.403 . S
C547 C544 1.403 . S
C547 C548 1.524 . S
C547 C551 1.400 . S
C548 H533 0.960 . S
C548 H534 0.960 . S
C548 H535 0.960 . S
C548 C547 1.524 . S
C549 C546 1.403 . S
C549 C550 1.392 . S
C549 C553 1.495 . S
C550 C549 1.392 . S
C550 C551 1.385 . S
C550 C552 1.478 . S
C551 H545 0.930 . S
C551 C547 1.400 . S
C551 C550 1.385 . S
C552 C550 1.478 . S
C552 C554 1.381 . S
C552 C558 1.383 . S
C553 C549 1.495 . S
C553 H559 0.959 . S
C553 H560 0.961 . S
C553 H561 0.960 . S
C554 C552 1.381 . S
C554 C555 1.394 . S
C554 H562 0.930 . S
C555 C554 1.394 . S
C555 C556 1.383 1_554 S
C555 H563 0.929 . S
C556 C555 1.383 1_556 S
C556 C557 1.377 1_556 S
C557 H541 0.930 1_554 S
C557 C556 1.377 1_554 S
C557 C558 1.379 . S
C558 H542 0.931 . S
C558 C552 1.383 . S
C558 C557 1.379 . S
H559 C553 0.959 . S
H560 C553 0.961 . S
H561 C553 0.960 . S
H562 C554 0.930 . S
H563 C555 0.929 . S
H564 C572 0.929 . S
H565 C574 0.930 . S
H566 C576 0.930 . S
H567 C579 0.929 . S
H568 C582 0.930 . S
H569 C584 0.960 . S
H570 C584 0.960 . S
H571 C584 0.960 . S
C572 H564 0.929 . S
C572 C573 1.377 . S
C572 C574 1.384 . S
C573 C572 1.377 . S
C573 C579 1.390 . S
C574 H565 0.930 . S
C574 C572 1.384 . S
C574 C575 1.372 . S
C575 C574 1.372 . S
C575 C576 1.400 . S
C575 C580 1.490 . S
C576 H566 0.930 . S
C576 C575 1.400 . S
C576 C579 1.386 . S
H577 C593 0.930 . S
H578 C594 0.931 . S
C579 H567 0.929 . S
C579 C573 1.390 . S
C579 C576 1.386 . S
C580 C575 1.490 . S
C580 C582 1.395 . S
C580 C583 1.403 . S
H581 C587 0.930 . S
C582 H568 0.930 . S
C582 C580 1.395 . S
C582 C585 1.403 . S
C583 C580 1.403 . S
C583 C584 1.524 . S
C583 C587 1.400 . S
C584 H569 0.960 . S
C584 H570 0.960 . S
C584 H571 0.960 . S
C584 C583 1.524 . S
C585 C582 1.403 . S
C585 C586 1.392 . S
C585 C589 1.495 . S
C586 C585 1.392 . S
C586 C587 1.385 . S
C586 C588 1.478 . S
C587 H581 0.930 . S
C587 C583 1.400 . S
C587 C586 1.385 . S
C588 C586 1.478 . S
C588 C590 1.381 . S
C588 C594 1.383 . S
C589 C585 1.495 . S
C589 H595 0.959 . S
C589 H596 0.961 . S
C589 H597 0.960 . S
C590 C588 1.381 . S
C590 C591 1.394 . S
C590 H598 0.930 . S
C591 C590 1.394 . S
C591 C592 1.383 . S
C591 H599 0.929 . S
C592 C591 1.383 . S
C592 C593 1.377 . S
C593 H577 0.930 . S
C593 C592 1.377 . S
C593 C594 1.379 . S
C594 H578 0.931 . S
C594 C588 1.383 . S
C594 C593 1.379 . S
H595 C589 0.959 . S
H596 C589 0.961 . S
H597 C589 0.960 . S
H598 C590 0.930 . S
H599 C591 0.929 . S
H600 C608 0.929 . S
H601 C610 0.930 . S
H602 C612 0.930 . S
H603 C615 0.929 . S
H604 C618 0.930 . S
H605 C620 0.960 . S
H606 C620 0.960 . S
H607 C620 0.960 . S
C608 H600 0.929 . S
C608 C609 1.377 . S
C608 C610 1.384 . S
C609 C608 1.377 . S
C609 C615 1.390 . S
C610 H601 0.930 . S
C610 C608 1.384 . S
C610 C611 1.372 . S
C611 C610 1.372 . S
C611 C612 1.400 . S
C611 C616 1.490 . S
C612 H602 0.930 . S
C612 C611 1.400 . S
C612 C615 1.386 . S
H613 C629 0.930 . S
H614 C630 0.931 . S
C615 H603 0.929 . S
C615 C609 1.390 . S
C615 C612 1.386 . S
C616 C611 1.490 . S
C616 C618 1.395 . S
C616 C619 1.403 . S
H617 C623 0.930 . S
C618 H604 0.930 . S
C618 C616 1.395 . S
C618 C621 1.403 . S
C619 C616 1.403 . S
C619 C620 1.524 . S
C619 C623 1.400 . S
C620 H605 0.960 . S
C620 H606 0.960 . S
C620 H607 0.960 . S
C620 C619 1.524 . S
C621 C618 1.403 . S
C621 C622 1.392 . S
C621 C625 1.495 . S
C622 C621 1.392 . S
C622 C623 1.385 . S
C622 C624 1.478 . S
C623 H617 0.930 . S
C623 C619 1.400 . S
C623 C622 1.385 . S
C624 C622 1.478 . S
C624 C626 1.381 . S
C624 C630 1.383 . S
C625 C621 1.495 . S
C625 H631 0.959 . S
C625 H632 0.961 . S
C625 H633 0.960 . S
C626 C624 1.381 . S
C626 C627 1.394 1_556 S
C626 H634 0.930 . S
C627 C626 1.394 1_554 S
C627 C628 1.383 . S
C627 H635 0.929 . S
C628 C627 1.383 . S
C628 C629 1.377 1_554 S
C629 H613 0.930 . S
C629 C628 1.377 1_556 S
C629 C630 1.379 . S
C630 H614 0.931 . S
C630 C624 1.383 . S
C630 C629 1.379 . S
H631 C625 0.959 . S
H632 C625 0.961 . S
H633 C625 0.960 . S
H634 C626 0.930 . S
H635 C627 0.929 . S
H636 C644 0.929 . S
H637 C646 0.930 . S
H638 C648 0.930 . S
H639 C651 0.929 . S
H640 C654 0.930 . S
H641 C656 0.960 . S
H642 C656 0.960 . S
H643 C656 0.960 . S
C644 H636 0.929 . S
C644 C645 1.377 . S
C644 C646 1.384 . S
C645 C644 1.377 . S
C645 C651 1.390 . S
C646 H637 0.930 . S
C646 C644 1.384 . S
C646 C647 1.372 . S
C647 C646 1.372 . S
C647 C648 1.400 . S
C647 C652 1.490 . S
C648 H638 0.930 . S
C648 C647 1.400 . S
C648 C651 1.386 . S
H649 C665 0.930 . S
H650 C666 0.931 . S
C651 H639 0.929 . S
C651 C645 1.390 . S
C651 C648 1.386 . S
C652 C647 1.490 . S
C652 C654 1.395 . S
C652 C655 1.403 . S
H653 C659 0.930 . S
C654 H640 0.930 . S
C654 C652 1.395 . S
C654 C657 1.403 . S
C655 C652 1.403 . S
C655 C656 1.524 . S
C655 C659 1.400 . S
C656 H641 0.960 . S
C656 H642 0.960 . S
C656 H643 0.960 . S
C656 C655 1.524 . S
C657 C654 1.403 . S
C657 C658 1.392 . S
C657 C661 1.495 . S
C658 C657 1.392 . S
C658 C659 1.385 . S
C658 C660 1.478 . S
C659 H653 0.930 . S
C659 C655 1.400 . S
C659 C658 1.385 . S
C660 C658 1.478 . S
C660 C662 1.381 . S
C660 C666 1.383 . S
C661 C657 1.495 . S
C661 H667 0.959 . S
C661 H668 0.961 . S
C661 H669 0.960 . S
C662 C660 1.381 . S
C662 C663 1.394 . S
C662 H670 0.930 . S
C663 C662 1.394 . S
C663 C664 1.383 1_554 S
C663 H671 0.929 1_554 S
C664 C663 1.383 1_556 S
C664 C665 1.377 1_556 S
C665 H649 0.930 . S
C665 C664 1.377 1_554 S
C665 C666 1.379 . S
C666 H650 0.931 . S
C666 C660 1.383 . S
C666 C665 1.379 . S
H667 C661 0.959 . S
H668 C661 0.961 . S
H669 C661 0.960 . S
H670 C662 0.930 . S
H671 C663 0.929 1_556 S
H672 C680 0.929 . S
H673 C682 0.930 . S
H674 C684 0.930 . S
H675 C687 0.929 . S
H676 C690 0.930 . S
H677 C692 0.960 . S
H678 C692 0.960 . S
H679 C692 0.960 . S
C680 H672 0.929 . S
C680 C681 1.377 . S
C680 C682 1.384 . S
C681 C680 1.377 . S
C681 C687 1.390 . S
C682 H673 0.930 . S
C682 C680 1.384 . S
C682 C683 1.372 . S
C683 C682 1.372 . S
C683 C684 1.400 . S
C683 C688 1.490 . S
C684 H674 0.930 . S
C684 C683 1.400 . S
C684 C687 1.386 . S
H685 C701 0.930 . S
H686 C702 0.931 . S
C687 H675 0.929 . S
C687 C681 1.390 . S
C687 C684 1.386 . S
C688 C683 1.490 . S
C688 C690 1.395 . S
C688 C691 1.403 . S
H689 C695 0.930 . S
C690 H676 0.930 . S
C690 C688 1.395 . S
C690 C693 1.403 . S
C691 C688 1.403 . S
C691 C692 1.524 . S
C691 C695 1.400 . S
C692 H677 0.960 . S
C692 H678 0.960 . S
C692 H679 0.960 . S
C692 C691 1.524 . S
C693 C690 1.403 . S
C693 C694 1.392 . S
C693 C697 1.495 . S
C694 C693 1.392 . S
C694 C695 1.385 . S
C694 C696 1.478 . S
C695 H689 0.930 . S
C695 C691 1.400 . S
C695 C694 1.385 . S
C696 C694 1.478 . S
C696 C698 1.381 . S
C696 C702 1.383 . S
C697 C693 1.495 . S
C697 H703 0.959 . S
C697 H704 0.961 . S
C697 H705 0.960 . S
C698 C696 1.381 . S
C698 C699 1.394 . S
C698 H706 0.930 . S
C699 C698 1.394 . S
C699 C700 1.383 . S
C699 H707 0.929 . S
C700 C699 1.383 . S
C700 C701 1.377 . S
C701 H685 0.930 . S
C701 C700 1.377 . S
C701 C702 1.379 . S
C702 H686 0.931 . S
C702 C696 1.383 . S
C702 C701 1.379 . S
H703 C697 0.959 . S
H704 C697 0.961 . S
H705 C697 0.960 . S
H706 C698 0.930 . S
H707 C699 0.929 . S
H708 C716 0.929 . S
H709 C718 0.930 . S
H710 C720 0.930 . S
H711 C723 0.929 . S
H712 C726 0.930 . S
H713 C728 0.960 . S
H714 C728 0.960 . S
H715 C728 0.960 . S
C716 H708 0.929 . S
C716 C717 1.377 . S
C716 C718 1.384 . S
C717 C716 1.377 . S
C717 C723 1.390 . S
C718 H709 0.930 . S
C718 C716 1.384 . S
C718 C719 1.372 . S
C719 C718 1.372 . S
C719 C720 1.400 . S
C719 C724 1.490 . S
C720 H710 0.930 . S
C720 C719 1.400 . S
C720 C723 1.386 . S
H721 C737 0.930 . S
H722 C738 0.931 . S
C723 H711 0.929 . S
C723 C717 1.390 . S
C723 C720 1.386 . S
C724 C719 1.490 . S
C724 C726 1.395 . S
C724 C727 1.403 . S
H725 C731 0.930 . S
C726 H712 0.930 . S
C726 C724 1.395 . S
C726 C729 1.403 . S
C727 C724 1.403 . S
C727 C728 1.524 . S
C727 C731 1.400 . S
C728 H713 0.960 . S
C728 H714 0.960 . S
C728 H715 0.960 . S
C728 C727 1.524 . S
C729 C726 1.403 . S
C729 C730 1.392 . S
C729 C733 1.495 . S
C730 C729 1.392 . S
C730 C731 1.385 . S
C730 C732 1.478 . S
C731 H725 0.930 . S
C731 C727 1.400 . S
C731 C730 1.385 . S
C732 C730 1.478 . S
C732 C734 1.381 . S
C732 C738 1.383 . S
C733 C729 1.495 . S
C733 H739 0.959 . S
C733 H740 0.961 . S
C733 H741 0.960 . S
C734 C732 1.381 . S
C734 C735 1.394 . S
C734 H742 0.930 . S
C735 C734 1.394 . S
C735 C736 1.383 . S
C735 H743 0.929 . S
C736 C735 1.383 . S
C736 C737 1.377 . S
C737 H721 0.930 . S
C737 C736 1.377 . S
C737 C738 1.379 . S
C738 H722 0.931 . S
C738 C732 1.383 . S
C738 C737 1.379 . S
H739 C733 0.959 . S
H740 C733 0.961 . S
H741 C733 0.960 . S
H742 C734 0.930 . S
H743 C735 0.929 . S
H744 C752 0.929 . S
H745 C754 0.930 . S
H746 C756 0.930 . S
H747 C759 0.929 . S
H748 C762 0.930 . S
H749 C764 0.960 . S
H750 C764 0.960 . S
H751 C764 0.960 . S
C752 H744 0.929 . S
C752 C753 1.377 . S
C752 C754 1.384 . S
C753 C752 1.377 . S
C753 C759 1.390 . S
C754 H745 0.930 . S
C754 C752 1.384 . S
C754 C755 1.372 . S
C755 C754 1.372 . S
C755 C756 1.400 . S
C755 C760 1.490 . S
C756 H746 0.930 . S
C756 C755 1.400 . S
C756 C759 1.386 . S
H757 C773 0.930 . S
H758 C774 0.931 . S
C759 H747 0.929 . S
C759 C753 1.390 . S
C759 C756 1.386 . S
C760 C755 1.490 . S
C760 C762 1.395 . S
C760 C763 1.403 . S
H761 C767 0.930 . S
C762 H748 0.930 . S
C762 C760 1.395 . S
C762 C765 1.403 . S
C763 C760 1.403 . S
C763 C764 1.524 . S
C763 C767 1.400 . S
C764 H749 0.960 . S
C764 H750 0.960 . S
C764 H751 0.960 . S
C764 C763 1.524 . S
C765 C762 1.403 . S
C765 C766 1.392 . S
C765 C769 1.495 . S
C766 C765 1.392 . S
C766 C767 1.385 . S
C766 C768 1.478 . S
C767 H761 0.930 . S
C767 C763 1.400 . S
C767 C766 1.385 . S
C768 C766 1.478 . S
C768 C770 1.381 . S
C768 C774 1.383 . S
C769 C765 1.495 . S
C769 H775 0.959 . S
C769 H776 0.961 . S
C769 H777 0.960 . S
C770 C768 1.381 . S
C770 C771 1.394 . S
C770 H778 0.930 . S
C771 C770 1.394 . S
C771 C772 1.383 . S
C771 H779 0.929 . S
C772 C771 1.383 . S
C772 C773 1.377 . S
C773 H757 0.930 . S
C773 C772 1.377 . S
C773 C774 1.379 . S
C774 H758 0.931 . S
C774 C768 1.383 . S
C774 C773 1.379 . S
H775 C769 0.959 . S
H776 C769 0.961 . S
H777 C769 0.960 . S
H778 C770 0.930 . S
H779 C771 0.929 . S
H780 C788 0.929 . S
H781 C790 0.930 . S
H782 C792 0.930 . S
H783 C795 0.929 . S
H784 C798 0.930 . S
H785 C800 0.960 . S
H786 C800 0.960 . S
H787 C800 0.960 . S
C788 H780 0.929 . S
C788 C789 1.377 . S
C788 C790 1.384 . S
C789 C788 1.377 . S
C789 C795 1.390 . S
C790 H781 0.930 . S
C790 C788 1.384 . S
C790 C791 1.372 . S
C791 C790 1.372 . S
C791 C792 1.400 . S
C791 C796 1.490 . S
C792 H782 0.930 . S
C792 C791 1.400 . S
C792 C795 1.386 . S
H793 C809 0.930 . S
H794 C810 0.931 . S
C795 H783 0.929 . S
C795 C789 1.390 . S
C795 C792 1.386 . S
C796 C791 1.490 . S
C796 C798 1.395 . S
C796 C799 1.403 . S
H797 C803 0.930 . S
C798 H784 0.930 . S
C798 C796 1.395 . S
C798 C801 1.403 . S
C799 C796 1.403 . S
C799 C800 1.524 . S
C799 C803 1.400 . S
C800 H785 0.960 . S
C800 H786 0.960 . S
C800 H787 0.960 . S
C800 C799 1.524 . S
C801 C798 1.403 . S
C801 C802 1.392 . S
C801 C805 1.495 . S
C802 C801 1.392 . S
C802 C803 1.385 . S
C802 C804 1.478 . S
C803 H797 0.930 . S
C803 C799 1.400 . S
C803 C802 1.385 . S
C804 C802 1.478 . S
C804 C806 1.381 . S
C804 C810 1.383 . S
C805 C801 1.495 . S
C805 H811 0.959 . S
C805 H812 0.961 . S
C805 H813 0.960 . S
C806 C804 1.381 . S
C806 C807 1.394 . S
C806 H814 0.930 . S
C807 C806 1.394 . S
C807 C808 1.383 . S
C807 H815 0.929 . S
C808 C807 1.383 . S
C808 C809 1.377 . S
C809 H793 0.930 . S
C809 C808 1.377 . S
C809 C810 1.379 . S
C810 H794 0.931 . S
C810 C804 1.383 . S
C810 C809 1.379 . S
H811 C805 0.959 . S
H812 C805 0.961 . S
H813 C805 0.960 . S
H814 C806 0.930 . S
H815 C807 0.929 . S
H816 C824 0.929 . S
H817 C826 0.930 . S
H818 C828 0.930 . S
H819 C831 0.929 . S
H820 C834 0.930 . S
H821 C836 0.960 . S
H822 C836 0.960 . S
H823 C836 0.960 . S
C824 H816 0.929 . S
C824 C825 1.377 . S
C824 C826 1.384 . S
C825 C824 1.377 . S
C825 C831 1.390 . S
C826 H817 0.930 . S
C826 C824 1.384 . S
C826 C827 1.372 . S
C827 C826 1.372 . S
C827 C828 1.400 . S
C827 C832 1.490 . S
C828 H818 0.930 . S
C828 C827 1.400 . S
C828 C831 1.386 . S
H829 C845 0.930 . S
H830 C846 0.931 . S
C831 H819 0.929 . S
C831 C825 1.390 . S
C831 C828 1.386 . S
C832 C827 1.490 . S
C832 C834 1.395 . S
C832 C835 1.403 . S
H833 C839 0.930 . S
C834 H820 0.930 . S
C834 C832 1.395 . S
C834 C837 1.403 . S
C835 C832 1.403 . S
C835 C836 1.524 . S
C835 C839 1.400 . S
C836 H821 0.960 . S
C836 H822 0.960 . S
C836 H823 0.960 . S
C836 C835 1.524 . S
C837 C834 1.403 . S
C837 C838 1.392 . S
C837 C841 1.495 . S
C838 C837 1.392 . S
C838 C839 1.385 . S
C838 C840 1.478 . S
C839 H833 0.930 . S
C839 C835 1.400 . S
C839 C838 1.385 . S
C840 C838 1.478 . S
C840 C842 1.381 . S
C840 C846 1.383 . S
C841 C837 1.495 . S
C841 H847 0.959 . S
C841 H848 0.961 . S
C841 H849 0.960 . S
C842 C840 1.381 . S
C842 C843 1.394 . S
C842 H850 0.930 . S
C843 C842 1.394 . S
C843 C844 1.383 . S
C843 H851 0.929 . S
C844 C843 1.383 . S
C844 C845 1.377 . S
C845 H829 0.930 . S
C845 C844 1.377 . S
C845 C846 1.379 . S
C846 H830 0.931 . S
C846 C840 1.383 . S
C846 C845 1.379 . S
H847 C841 0.959 . S
H848 C841 0.961 . S
H849 C841 0.960 . S
H850 C842 0.930 . S
H851 C843 0.929 . S
H852 C860 0.929 . S
H853 C862 0.930 . S
H854 C864 0.930 . S
H855 C867 0.929 . S
H856 C870 0.930 . S
H857 C872 0.960 . S
H858 C872 0.960 . S
H859 C872 0.960 . S
C860 H852 0.929 . S
C860 C861 1.377 . S
C860 C862 1.384 . S
C861 C860 1.377 . S
C861 C867 1.390 . S
C862 H853 0.930 . S
C862 C860 1.384 . S
C862 C863 1.372 . S
C863 C862 1.372 . S
C863 C864 1.400 . S
C863 C868 1.490 . S
C864 H854 0.930 . S
C864 C863 1.400 . S
C864 C867 1.386 . S
H865 C881 0.930 . S
H866 C882 0.931 . S
C867 H855 0.929 . S
C867 C861 1.390 . S
C867 C864 1.386 . S
C868 C863 1.490 . S
C868 C870 1.395 . S
C868 C871 1.403 . S
H869 C875 0.930 . S
C870 H856 0.930 . S
C870 C868 1.395 . S
C870 C873 1.403 . S
C871 C868 1.403 . S
C871 C872 1.524 . S
C871 C875 1.400 . S
C872 H857 0.960 . S
C872 H858 0.960 . S
C872 H859 0.960 . S
C872 C871 1.524 . S
C873 C870 1.403 . S
C873 C874 1.392 . S
C873 C877 1.495 . S
C874 C873 1.392 . S
C874 C875 1.385 . S
C874 C876 1.478 . S
C875 H869 0.930 . S
C875 C871 1.400 . S
C875 C874 1.385 . S
C876 C874 1.478 . S
C876 C878 1.381 . S
C876 C882 1.383 . S
C877 C873 1.495 . S
C877 H883 0.959 . S
C877 H884 0.961 . S
C877 H885 0.960 . S
C878 C876 1.381 . S
C878 C879 1.394 . S
C878 H886 0.930 . S
C879 C878 1.394 . S
C879 C880 1.383 . S
C879 H887 0.929 . S
C880 C879 1.383 . S
C880 C881 1.377 . S
C881 H865 0.930 . S
C881 C880 1.377 . S
C881 C882 1.379 . S
C882 H866 0.931 . S
C882 C876 1.383 . S
C882 C881 1.379 . S
H883 C877 0.959 . S
H884 C877 0.961 . S
H885 C877 0.960 . S
H886 C878 0.930 . S
H887 C879 0.929 . S
C249 C223 1.320 . S
C268 C31 1.338 . S
C285 C23 1.322 . S
C304 C71 1.334 . S
C321 C63 1.321 . S
C340 C111 1.336 . S
C357 C103 1.324 . S
C376 C151 1.340 . S
C393 C191 1.342 . S
C412 C143 1.332 . S
C429 C231 1.344 . S
C448 C183 1.304 . S
C465 C25 1.193 . S
C484 C4 1.204 . S
C501 C65 1.188 . S
C520 C44 1.216 . S
C537 C105 1.188 . S
C556 C84 1.216 . S
C573 C145 1.181 . S
C592 C124 1.154 . S
C609 C164 1.193 . S
C628 C185 1.183 . S
C645 C225 1.183 . S
C664 C204 1.151 . S
C681 C20 1.565 . S
C700 C162 1.574 . S
C717 C60 1.567 . S
C736 C202 1.562 . S
C753 C2 1.574 . S
C772 C100 1.559 . S
C789 C42 1.573 . S
C808 C140 1.563 . S
C825 C180 1.568 . S
C844 C82 1.562 . S
C861 C122 1.575 . S
C880 C220 1.559 . S
