# Generated by pormake.
# Topology som, (6)-cn, num edge types: 1
# Building blocks:
#     Node 0, Type 0, BuildingBlock: CUWYAW_clean_sbu_0, # of connection points: 6
#     Node 1, Type 0, BuildingBlock: CUWYAW_clean_sbu_0, # of connection points: 6
#     Node 2, Type 0, BuildingBlock: CUWYAW_clean_sbu_0, # of connection points: 6
#     Node 3, Type 0, BuildingBlock: CUWYAW_clean_sbu_0, # of connection points: 6
#     Node 4, Type 0, BuildingBlock: CUWYAW_clean_sbu_0, # of connection points: 6
#     Node 5, Type 0, BuildingBlock: CUWYAW_clean_sbu_0, # of connection points: 6
#     Node 6, Type 0, BuildingBlock: CUWYAW_clean_sbu_0, # of connection points: 6
#     Node 7, Type 0, BuildingBlock: CUWYAW_clean_sbu_0, # of connection points: 6
#     Node 8, Type 0, BuildingBlock: CUWYAW_clean_sbu_0, # of connection points: 6
#     Node 9, Type 0, BuildingBlock: CUWYAW_clean_sbu_0, # of connection points: 6
#     Node 10, Type 0, BuildingBlock: CUWYAW_clean_sbu_0, # of connection points: 6
#     Node 11, Type 0, BuildingBlock: CUWYAW_clean_sbu_0, # of connection points: 6
#     Node 12, Type 0, BuildingBlock: CUWYAW_clean_sbu_0, # of connection points: 6
#     Node 13, Type 0, BuildingBlock: CUWYAW_clean_sbu_0, # of connection points: 6
#     Node 14, Type 0, BuildingBlock: CUWYAW_clean_sbu_0, # of connection points: 6
#     Node 15, Type 0, BuildingBlock: CUWYAW_clean_sbu_0, # of connection points: 6
#     Node 16, Type 0, BuildingBlock: CUWYAW_clean_sbu_0, # of connection points: 6
#     Node 17, Type 0, BuildingBlock: CUWYAW_clean_sbu_0, # of connection points: 6
#     Node 18, Type 0, BuildingBlock: CUWYAW_clean_sbu_0, # of connection points: 6
#     Node 19, Type 0, BuildingBlock: CUWYAW_clean_sbu_0, # of connection points: 6
#     Node 20, Type 0, BuildingBlock: CUWYAW_clean_sbu_0, # of connection points: 6
#     Node 21, Type 0, BuildingBlock: CUWYAW_clean_sbu_0, # of connection points: 6
#     Node 22, Type 0, BuildingBlock: CUWYAW_clean_sbu_0, # of connection points: 6
#     Node 23, Type 0, BuildingBlock: CUWYAW_clean_sbu_0, # of connection points: 6
#     Node 24, Type 0, BuildingBlock: CUWYAW_clean_sbu_0, # of connection points: 6
#     Node 25, Type 0, BuildingBlock: CUWYAW_clean_sbu_0, # of connection points: 6
#     Node 26, Type 0, BuildingBlock: CUWYAW_clean_sbu_0, # of connection points: 6
#     Node 27, Type 0, BuildingBlock: CUWYAW_clean_sbu_0, # of connection points: 6
#     Node 28, Type 0, BuildingBlock: CUWYAW_clean_sbu_0, # of connection points: 6
#     Node 29, Type 0, BuildingBlock: CUWYAW_clean_sbu_0, # of connection points: 6
#     Node 30, Type 0, BuildingBlock: CUWYAW_clean_sbu_0, # of connection points: 6
#     Node 31, Type 0, BuildingBlock: CUWYAW_clean_sbu_0, # of connection points: 6
#     Edge 32, Type (0, 0), None
#     Edge 33, Type (0, 0), None
#     Edge 34, Type (0, 0), None
#     Edge 35, Type (0, 0), None
#     Edge 36, Type (0, 0), None
#     Edge 37, Type (0, 0), None
#     Edge 38, Type (0, 0), None
#     Edge 39, Type (0, 0), None
#     Edge 40, Type (0, 0), None
#     Edge 41, Type (0, 0), None
#     Edge 42, Type (0, 0), None
#     Edge 43, Type (0, 0), None
#     Edge 44, Type (0, 0), None
#     Edge 45, Type (0, 0), None
#     Edge 46, Type (0, 0), None
#     Edge 47, Type (0, 0), None
#     Edge 48, Type (0, 0), None
#     Edge 49, Type (0, 0), None
#     Edge 50, Type (0, 0), None
#     Edge 51, Type (0, 0), None
#     Edge 52, Type (0, 0), None
#     Edge 53, Type (0, 0), None
#     Edge 54, Type (0, 0), None
#     Edge 55, Type (0, 0), None
#     Edge 56, Type (0, 0), None
#     Edge 57, Type (0, 0), None
#     Edge 58, Type (0, 0), None
#     Edge 59, Type (0, 0), None
#     Edge 60, Type (0, 0), None
#     Edge 61, Type (0, 0), None
#     Edge 62, Type (0, 0), None
#     Edge 63, Type (0, 0), None
#     Edge 64, Type (0, 0), None
#     Edge 65, Type (0, 0), None
#     Edge 66, Type (0, 0), None
#     Edge 67, Type (0, 0), None
#     Edge 68, Type (0, 0), None
#     Edge 69, Type (0, 0), None
#     Edge 70, Type (0, 0), None
#     Edge 71, Type (0, 0), None
#     Edge 72, Type (0, 0), None
#     Edge 73, Type (0, 0), None
#     Edge 74, Type (0, 0), None
#     Edge 75, Type (0, 0), None
#     Edge 76, Type (0, 0), None
#     Edge 77, Type (0, 0), None
#     Edge 78, Type (0, 0), None
#     Edge 79, Type (0, 0), None
#     Edge 80, Type (0, 0), None
#     Edge 81, Type (0, 0), None
#     Edge 82, Type (0, 0), None
#     Edge 83, Type (0, 0), None
#     Edge 84, Type (0, 0), None
#     Edge 85, Type (0, 0), None
#     Edge 86, Type (0, 0), None
#     Edge 87, Type (0, 0), None
#     Edge 88, Type (0, 0), None
#     Edge 89, Type (0, 0), None
#     Edge 90, Type (0, 0), None
#     Edge 91, Type (0, 0), None
#     Edge 92, Type (0, 0), None
#     Edge 93, Type (0, 0), None
#     Edge 94, Type (0, 0), None
#     Edge 95, Type (0, 0), None
#     Edge 96, Type (0, 0), None
#     Edge 97, Type (0, 0), None
#     Edge 98, Type (0, 0), None
#     Edge 99, Type (0, 0), None
#     Edge 100, Type (0, 0), None
#     Edge 101, Type (0, 0), None
#     Edge 102, Type (0, 0), None
#     Edge 103, Type (0, 0), None
#     Edge 104, Type (0, 0), None
#     Edge 105, Type (0, 0), None
#     Edge 106, Type (0, 0), None
#     Edge 107, Type (0, 0), None
#     Edge 108, Type (0, 0), None
#     Edge 109, Type (0, 0), None
#     Edge 110, Type (0, 0), None
#     Edge 111, Type (0, 0), None
#     Edge 112, Type (0, 0), None
#     Edge 113, Type (0, 0), None
#     Edge 114, Type (0, 0), None
#     Edge 115, Type (0, 0), None
#     Edge 116, Type (0, 0), None
#     Edge 117, Type (0, 0), None
#     Edge 118, Type (0, 0), None
#     Edge 119, Type (0, 0), None
#     Edge 120, Type (0, 0), None
#     Edge 121, Type (0, 0), None
#     Edge 122, Type (0, 0), None
#     Edge 123, Type (0, 0), None
#     Edge 124, Type (0, 0), None
#     Edge 125, Type (0, 0), None
#     Edge 126, Type (0, 0), None
#     Edge 127, Type (0, 0), None
# Relax obj value: 0.096
# Max RMSD: 0.190
# Mean RMSD: 0.189
data_MOF--net-som--node1-CUWYAW_clean_sbu_0--edge1-none
_symmetry_space_group_name_H-M    P1
_symmetry_Int_Tables_number       1
_symmetry_cell_setting            triclinic
loop_
_symmetry_equiv_pos_as_xyz
'x, y, z'
_cell_length_a     15.956162
_cell_length_b     23.451825
_cell_length_c     45.609079
_cell_angle_alpha  90.758643
_cell_angle_beta   90.000044
_cell_angle_gamma 89.998575
loop_
_atom_site_label
_atom_site_type_symbol
_atom_site_fract_x
_atom_site_fract_y
_atom_site_fract_z
_atom_type_partial_charge
C0 C 0.30641 0.33191 0.08099 0.0
Eu1 Eu 0.16546 0.38487 0.07858 0.0
C2 C 0.39151 0.35603 0.07676 0.0
C3 C 0.42864 0.3591 0.04875 0.0
C4 C 0.50788 0.3841 0.0453 0.0
C5 C 0.5504 0.40678 0.06969 0.0
C6 C 0.51431 0.40275 0.09753 0.0
C7 C 0.43563 0.37813 0.10107 0.0
C8 C 0.09735 0.42491 0.03018 0.0
C9 C 0.17736 0.52498 0.07128 0.0
C10 C 0.87151 0.50805 0.08649 0.0
Eu11 Eu 1.01746 0.46109 0.09042 0.0
C12 C 0.79077 0.4842 0.07657 0.0
C13 C 0.71862 0.51742 0.07855 0.0
C14 C 0.63993 0.49301 0.07369 0.0
C15 C 0.63265 0.43477 0.067 0.0
C16 C 0.70532 0.40261 0.06198 0.0
C17 C 0.78412 0.42754 0.06632 0.0
C18 C 0.13991 0.45853 0.13388 0.0
C19 C 0.97784 0.32618 0.0891 0.0
O20 O 0.26659 0.3497 0.10451 0.0
O21 O 0.25764 0.32822 0.05792 0.0
O22 O 0.17741 0.41879 0.03315 0.0
O23 O 1.05667 0.40805 0.05218 0.0
O24 O 0.21707 0.47723 0.07881 0.0
O25 O 0.09582 0.52643 0.06879 0.0
O26 O 0.92868 0.51246 0.06606 0.0
O27 O 0.9013 0.48793 0.11115 0.0
O28 O 0.09637 0.50338 0.1271 0.0
O29 O 0.11096 0.41717 0.11917 0.0
O30 O 0.95054 0.37762 0.0953 0.0
O31 O 1.05881 0.31683 0.08249 0.0
H32 H 0.39662 0.34228 0.02957 0.0
H33 H 0.53582 0.38598 0.02375 0.0
H34 H 0.54791 0.41802 0.11665 0.0
H35 H 0.40982 0.37583 0.12299 0.0
H36 H 0.7233 0.56137 0.08524 0.0
H37 H 0.58442 0.51863 0.07691 0.0
H38 H 0.70118 0.35783 0.0561 0.0
H39 H 0.83926 0.40208 0.06237 0.0
C40 C 0.07974 0.76778 0.08067 0.0
Eu41 Eu 0.22754 0.72285 0.07905 0.0
C42 C 0.99662 0.74223 0.08581 0.0
C43 C 0.95278 0.7149 0.06284 0.0
C44 C 0.873 0.69259 0.06758 0.0
C45 C 0.83477 0.69789 0.09525 0.0
C46 C 0.87918 0.72471 0.11824 0.0
C47 C 0.95955 0.74605 0.11362 0.0
C48 C 0.30969 0.69528 0.03046 0.0
C49 C 0.22217 0.5799 0.07189 0.0
C50 C 0.5057 0.60538 0.11544 0.0
Eu51 Eu 0.36405 0.64673 0.09987 0.0
C52 C 0.58939 0.62811 0.10941 0.0
C53 C 0.64902 0.62809 0.13165 0.0
C54 C 0.72798 0.65125 0.12713 0.0
C55 C 0.74895 0.6757 0.10016 0.0
C56 C 0.68767 0.67762 0.07797 0.0
C57 C 0.60846 0.65386 0.08255 0.0
C58 C 0.2263 0.65821 0.13642 0.0
C59 C 0.41342 0.7791 0.08917 0.0
O60 O 0.1312 0.77036 0.103 0.0
O61 O 0.11701 0.75298 0.05628 0.0
O62 O 0.25058 0.73296 0.0311 0.0
O63 O 0.32919 0.67778 0.05582 0.0
O64 O 0.17998 0.62871 0.07622 0.0
O65 O 0.30355 0.5778 0.07462 0.0
O66 O 0.46394 0.58528 0.0928 0.0
O67 O 0.46006 0.63709 0.13307 0.0
O68 O 0.26622 0.61119 0.13153 0.0
O69 O 0.26421 0.69731 0.12297 0.0
O70 O 0.43991 0.72649 0.09149 0.0
O71 O 0.33148 0.79036 0.08689 0.0
H72 H 0.97962 0.7111 0.04109 0.0
H73 H 0.84144 0.6712 0.04951 0.0
H74 H 0.85089 0.73095 0.13961 0.0
H75 H 0.99152 0.76753 0.13154 0.0
H76 H 0.63415 0.60968 0.15247 0.0
H77 H 0.77283 0.64884 0.14463 0.0
H78 H 0.70064 0.69746 0.05716 0.0
H79 H 0.56231 0.65578 0.06517 0.0
C80 C 0.30644 0.78767 0.20273 0.0
Eu81 Eu 0.16549 0.73472 0.20514 0.0
C82 C 0.39153 0.76354 0.20695 0.0
C83 C 0.4287 0.7605 0.23496 0.0
C84 C 0.50795 0.73549 0.2384 0.0
C85 C 0.55043 0.71278 0.21401 0.0
C86 C 0.5143 0.71678 0.18617 0.0
C87 C 0.43562 0.74141 0.18264 0.0
C88 C 0.09735 0.69467 0.25352 0.0
C89 C 0.17738 0.5946 0.21244 0.0
C90 C 0.87155 0.61153 0.19719 0.0
Eu91 Eu 1.0175 0.65848 0.19327 0.0
C92 C 0.79081 0.63536 0.20711 0.0
C93 C 0.71866 0.60215 0.20511 0.0
C94 C 0.63997 0.62655 0.20997 0.0
C95 C 0.63268 0.68479 0.2167 0.0
C96 C 0.70535 0.71693 0.22173 0.0
C97 C 0.78416 0.69201 0.21738 0.0
C98 C 0.14004 0.66102 0.14987 0.0
C99 C 0.97785 0.79339 0.19461 0.0
O100 O 0.26661 0.76991 0.17921 0.0
O101 O 0.25768 0.79136 0.2258 0.0
O102 O 0.17741 0.70081 0.25056 0.0
O103 O 1.05668 0.71152 0.23152 0.0
O104 O 0.2171 0.64236 0.20492 0.0
O105 O 0.09584 0.59315 0.21492 0.0
O106 O 0.92872 0.6071 0.21762 0.0
O107 O 0.90135 0.63166 0.17254 0.0
O108 O 0.09642 0.61619 0.15659 0.0
O109 O 0.11105 0.70241 0.16455 0.0
O110 O 0.95056 0.74196 0.1884 0.0
O111 O 1.05881 0.80275 0.20122 0.0
H112 H 0.39671 0.77734 0.25414 0.0
H113 H 0.53591 0.73363 0.25995 0.0
H114 H 0.54787 0.70149 0.16705 0.0
H115 H 0.40978 0.74369 0.16072 0.0
H116 H 0.72334 0.55821 0.19839 0.0
H117 H 0.58446 0.60094 0.20674 0.0
H118 H 0.70121 0.76171 0.22763 0.0
H119 H 0.8393 0.71746 0.22135 0.0
C120 C 0.07973 0.3518 0.20305 0.0
Eu121 Eu 0.22753 0.39671 0.20466 0.0
C122 C 0.99661 0.37735 0.1979 0.0
C123 C 0.95276 0.4047 0.22086 0.0
C124 C 0.87298 0.42701 0.21612 0.0
C125 C 0.83475 0.42168 0.18845 0.0
C126 C 0.87918 0.39485 0.16546 0.0
C127 C 0.95954 0.37351 0.17008 0.0
C128 C 0.30969 0.4243 0.25324 0.0
C129 C 0.22219 0.53968 0.21182 0.0
C130 C 0.50566 0.51416 0.16823 0.0
Eu131 Eu 0.36402 0.47284 0.18382 0.0
C132 C 0.58936 0.49144 0.17427 0.0
C133 C 0.64898 0.49143 0.15202 0.0
C134 C 0.72795 0.46827 0.15655 0.0
C135 C 0.74893 0.44386 0.18352 0.0
C136 C 0.68766 0.44198 0.20572 0.0
C137 C 0.60845 0.46573 0.20114 0.0
C138 C 0.22619 0.46136 0.14731 0.0
C139 C 0.41342 0.34047 0.19453 0.0
O140 O 0.13119 0.34918 0.18072 0.0
O141 O 0.11699 0.36663 0.22743 0.0
O142 O 0.2506 0.38661 0.2526 0.0
O143 O 0.32919 0.4418 0.22788 0.0
O144 O 0.17999 0.49087 0.20749 0.0
O145 O 0.30356 0.54177 0.20907 0.0
O146 O 0.46391 0.53429 0.19086 0.0
O147 O 0.46002 0.48244 0.15061 0.0
O148 O 0.26617 0.50837 0.15216 0.0
O149 O 0.26414 0.42225 0.16074 0.0
O150 O 0.43989 0.39309 0.19221 0.0
O151 O 0.33148 0.32921 0.19682 0.0
H152 H 0.97959 0.40852 0.24261 0.0
H153 H 0.84142 0.44841 0.23417 0.0
H154 H 0.8509 0.38858 0.14409 0.0
H155 H 0.99152 0.35201 0.15218 0.0
H156 H 0.63411 0.50981 0.13119 0.0
H157 H 0.77279 0.47064 0.13904 0.0
H158 H 0.70064 0.42216 0.22654 0.0
H159 H 0.5623 0.46384 0.21852 0.0
C160 C 0.28466 0.36161 0.94725 0.0
Eu161 Eu 0.13865 0.40853 0.94334 0.0
C162 C 0.36543 0.38543 0.95716 0.0
C163 C 0.43758 0.35222 0.95514 0.0
C164 C 0.51628 0.37661 0.96 0.0
C165 C 0.52359 0.43484 0.96674 0.0
C166 C 0.45092 0.46699 0.97179 0.0
C167 C 0.3721 0.44207 0.96744 0.0
C168 C 1.01637 0.411 0.89988 0.0
C169 C 0.17846 0.54342 0.94465 0.0
C170 C 0.84988 0.53776 0.95288 0.0
Eu171 Eu 0.99086 0.4848 0.9552 0.0
C172 C 0.76477 0.51361 0.95707 0.0
C173 C 0.72754 0.51054 0.98507 0.0
C174 C 0.64828 0.48553 0.98848 0.0
C175 C 0.60586 0.46284 0.96408 0.0
C176 C 0.64205 0.46686 0.93625 0.0
C177 C 0.72073 0.49149 0.93275 0.0
C178 C 1.05909 0.44445 1.00356 0.0
C179 C 0.97885 0.34464 0.96246 0.0
O180 O 0.2275 0.35719 0.96769 0.0
O181 O 0.25483 0.38174 0.9226 0.0
O182 O 1.05994 0.36619 0.90667 0.0
O183 O 1.04503 0.45249 0.91457 0.0
O184 O 0.20567 0.49198 0.93842 0.0
O185 O 0.09753 0.55281 0.95128 0.0
O186 O 0.88971 0.52011 0.92933 0.0
O187 O 0.89865 0.54131 0.97595 0.0
O188 O 0.97902 0.45053 1.00059 0.0
O189 O 0.09957 0.46163 0.98159 0.0
O190 O 0.93919 0.39243 0.95493 0.0
O191 O 1.06037 0.34317 0.96497 0.0
H192 H 0.43291 0.30829 0.9484 0.0
H193 H 0.57178 0.351 0.95675 0.0
H194 H 0.45507 0.51175 0.9777 0.0
H195 H 0.31696 0.46753 0.97141 0.0
H196 H 0.75948 0.52737 1.00426 0.0
H197 H 0.62026 0.48366 1.01002 0.0
H198 H 0.60852 0.45158 0.91712 0.0
H199 H 0.74662 0.4938 0.91084 0.0
C200 C 0.65071 0.26409 0.91819 0.0
Eu201 Eu 0.7924 0.22285 0.93382 0.0
C202 C 0.56699 0.24142 0.92425 0.0
C203 C 0.5073 0.24146 0.90203 0.0
C204 C 0.42831 0.21835 0.90657 0.0
C205 C 0.40738 0.19392 0.93354 0.0
C206 C 0.46871 0.192 0.95572 0.0
C207 C 0.54794 0.21571 0.95112 0.0
C208 C 0.93009 0.21143 0.89731 0.0
C209 C 0.74292 0.09049 0.94457 0.0
C210 C 1.0766 0.10189 0.9532 0.0
Eu211 Eu 0.92873 0.14673 0.95474 0.0
C212 C 0.15971 0.12743 0.94801 0.0
C213 C 0.20365 0.15476 0.97095 0.0
C214 C 0.28341 0.17707 0.96618 0.0
C215 C 0.32155 0.17176 0.93849 0.0
C216 C 0.27705 0.14494 0.91552 0.0
C217 C 0.19668 0.12361 0.92017 0.0
C218 C 0.84648 0.17438 1.00329 0.0
C219 C 0.93404 0.28973 0.96185 0.0
O220 O 0.69246 0.28431 0.9408 0.0
O221 O 0.69636 0.23229 0.90061 0.0
O222 O 0.89007 0.25841 0.90216 0.0
O223 O 0.89247 0.17223 0.91079 0.0
O224 O 0.7165 0.14311 0.94221 0.0
O225 O 0.82484 0.0792 0.94689 0.0
O226 O 1.02513 0.0991 0.93088 0.0
O227 O 1.03933 0.11685 0.97756 0.0
O228 O 0.90557 0.13668 1.00267 0.0
O229 O 0.82704 0.19188 0.97792 0.0
O230 O 0.97623 0.2409 0.95754 0.0
O231 O 0.85268 0.29183 0.95908 0.0
H232 H 0.52214 0.25987 0.88119 0.0
H233 H 0.38341 0.22078 0.88909 0.0
H234 H 0.45577 0.17217 0.97654 0.0
H235 H 0.59412 0.21379 0.96849 0.0
H236 H 0.17689 0.15857 0.99272 0.0
H237 H 0.31503 0.19845 0.98423 0.0
H238 H 0.30525 0.1387 0.89414 0.0
H239 H 0.16465 0.10214 0.90227 0.0
C240 C 0.28464 0.25799 0.83646 0.0
Eu241 Eu 0.13863 0.21107 0.84037 0.0
C242 C 0.36541 0.23417 0.82655 0.0
C243 C 0.43756 0.26738 0.82858 0.0
C244 C 0.51626 0.243 0.82371 0.0
C245 C 0.52357 0.18477 0.81695 0.0
C246 C 0.4509 0.15263 0.8119 0.0
C247 C 0.37208 0.17754 0.81626 0.0
C248 C 1.01626 0.20861 0.88378 0.0
C249 C 0.17846 0.07617 0.83904 0.0
C250 C 0.84986 0.08183 0.83079 0.0
Eu251 Eu 0.99085 0.13478 0.82848 0.0
C252 C 0.76476 0.10599 0.8266 0.0
C253 C 0.72749 0.10903 0.79861 0.0
C254 C 0.64823 0.13405 0.7952 0.0
C255 C 0.60584 0.15678 0.8196 0.0
C256 C 0.64207 0.15278 0.84743 0.0
C257 C 0.72076 0.12814 0.85093 0.0
C258 C 1.0591 0.17518 0.78013 0.0
C259 C 0.97884 0.27495 0.82123 0.0
O260 O 0.22748 0.26242 0.81603 0.0
O261 O 0.25482 0.23785 0.86111 0.0
O262 O 1.05992 0.25342 0.87704 0.0
O263 O 1.04496 0.1671 0.86911 0.0
O264 O 0.20565 0.12762 0.84528 0.0
O265 O 0.09754 0.06678 0.8324 0.0
O266 O 0.88969 0.09945 0.85434 0.0
O267 O 0.89863 0.07829 0.80771 0.0
O268 O 0.97903 0.16905 0.78308 0.0
O269 O 0.09957 0.15799 0.80211 0.0
O270 O 0.93917 0.22716 0.82874 0.0
O271 O 1.06037 0.27643 0.81874 0.0
H272 H 0.43288 0.31131 0.83532 0.0
H273 H 0.57176 0.26861 0.82696 0.0
H274 H 0.45505 0.10787 0.80598 0.0
H275 H 0.31694 0.15208 0.81229 0.0
H276 H 0.7594 0.09216 0.77941 0.0
H277 H 0.62018 0.13589 0.77366 0.0
H278 H 0.60858 0.16809 0.86656 0.0
H279 H 0.74667 0.12586 0.87283 0.0
C280 C 0.65073 0.35552 0.86552 0.0
Eu281 Eu 0.79242 0.39675 0.84988 0.0
C282 C 0.567 0.37819 0.85946 0.0
C283 C 0.50731 0.37815 0.88168 0.0
C284 C 0.42832 0.40126 0.87713 0.0
C285 C 0.40739 0.42568 0.85016 0.0
C286 C 0.46872 0.4276 0.82798 0.0
C287 C 0.54795 0.40389 0.83259 0.0
C288 C 0.93018 0.40817 0.88636 0.0
C289 C 0.74292 0.52912 0.83912 0.0
C290 C 1.07661 0.51771 0.83049 0.0
Eu291 Eu 0.92874 0.47288 0.82894 0.0
C292 C 0.15971 0.49216 0.83568 0.0
C293 C 0.20366 0.46483 0.81274 0.0
C294 C 0.28343 0.44252 0.81752 0.0
C295 C 0.32156 0.44784 0.84521 0.0
C296 C 0.27704 0.47466 0.86817 0.0
C297 C 0.19668 0.496 0.86352 0.0
C298 C 0.84648 0.44521 0.78041 0.0
C299 C 0.93403 0.32987 0.82184 0.0
O300 O 0.69248 0.33529 0.84292 0.0
O301 O 0.69638 0.38734 0.88309 0.0
O302 O 0.8901 0.36119 0.88155 0.0
O303 O 0.89253 0.44738 0.8729 0.0
O304 O 0.7165 0.4765 0.84149 0.0
O305 O 0.82484 0.5404 0.8368 0.0
O306 O 1.02514 0.52052 0.8528 0.0
O307 O 1.03934 0.50273 0.80612 0.0
O308 O 0.90555 0.48293 0.78102 0.0
O309 O 0.82704 0.42771 0.80578 0.0
O310 O 0.97622 0.3787 0.82615 0.0
O311 O 0.85267 0.32777 0.82462 0.0
H312 H 0.52215 0.35975 0.90252 0.0
H313 H 0.38341 0.39883 0.89462 0.0
H314 H 0.45578 0.44742 0.80716 0.0
H315 H 0.59414 0.40581 0.81522 0.0
H316 H 0.17692 0.46102 0.79097 0.0
H317 H 0.31505 0.42113 0.79947 0.0
H318 H 0.30523 0.48091 0.88956 0.0
H319 H 0.16463 0.51747 0.88142 0.0
C320 C 0.30642 0.83191 0.581 0.0
Eu321 Eu 0.16547 0.88487 0.57859 0.0
C322 C 0.39152 0.85604 0.57677 0.0
C323 C 0.42865 0.8591 0.54876 0.0
C324 C 0.50789 0.8841 0.54531 0.0
C325 C 0.55041 0.90678 0.5697 0.0
C326 C 0.51433 0.90275 0.59754 0.0
C327 C 0.43564 0.87814 0.60108 0.0
C328 C 0.09736 0.92491 0.53019 0.0
C329 C 0.17737 0.02498 0.57128 0.0
C330 C 0.87152 0.00805 0.58649 0.0
Eu331 Eu 1.01747 -0.0389 0.59043 0.0
C332 C 0.79078 -0.01579 0.57657 0.0
C333 C 0.71863 0.01742 0.57855 0.0
C334 C 0.63994 -0.00699 0.5737 0.0
C335 C 0.63266 0.93477 0.567 0.0
C336 C 0.70533 0.90261 0.56199 0.0
C337 C 0.78414 0.92754 0.56633 0.0
C338 C 0.13992 -0.04146 0.63388 0.0
C339 C 0.97785 0.82619 0.5891 0.0
O340 O 0.2666 0.84971 0.60452 0.0
O341 O 0.25765 0.82822 0.55793 0.0
O342 O 0.17742 0.91878 0.53316 0.0
O343 O 1.05668 0.90805 0.55219 0.0
O344 O 0.21708 -0.02277 0.57881 0.0
O345 O 0.09583 0.02643 0.56879 0.0
O346 O 0.92869 0.01246 0.56607 0.0
O347 O 0.90131 -0.01206 0.61115 0.0
O348 O 0.09638 0.00338 0.6271 0.0
O349 O 0.11097 0.91717 0.61917 0.0
O350 O 0.95055 0.87762 0.5953 0.0
O351 O 1.05882 0.81683 0.5825 0.0
H352 H 0.39663 0.84228 0.52958 0.0
H353 H 0.53583 0.88598 0.52376 0.0
H354 H 0.54792 0.91802 0.61666 0.0
H355 H 0.40983 0.87583 0.623 0.0
H356 H 0.72331 0.06137 0.58525 0.0
H357 H 0.58444 0.01863 0.57691 0.0
H358 H 0.70119 0.85783 0.55611 0.0
H359 H 0.83928 0.90208 0.56238 0.0
C360 C 0.07975 0.26778 0.58067 0.0
Eu361 Eu 0.22755 0.22285 0.57904 0.0
C362 C 0.99664 0.24223 0.5858 0.0
C363 C 0.95279 0.21491 0.56284 0.0
C364 C 0.87301 0.19259 0.56757 0.0
C365 C 0.83478 0.1979 0.59524 0.0
C366 C 0.87919 0.22472 0.61823 0.0
C367 C 0.95955 0.24606 0.61362 0.0
C368 C 0.30969 0.19527 0.53045 0.0
C369 C 0.22218 0.0799 0.57188 0.0
C370 C 0.50571 0.10539 0.61543 0.0
Eu371 Eu 0.36406 0.14673 0.59986 0.0
C372 C 0.5894 0.12811 0.6094 0.0
C373 C 0.64903 0.1281 0.63164 0.0
C374 C 0.72799 0.15125 0.62712 0.0
C375 C 0.74896 0.17571 0.60016 0.0
C376 C 0.68768 0.17762 0.57797 0.0
C377 C 0.60847 0.15387 0.58254 0.0
C378 C 0.22631 0.15821 0.63641 0.0
C379 C 0.41343 0.2791 0.58917 0.0
O380 O 0.13121 0.27036 0.603 0.0
O381 O 0.11702 0.25298 0.55628 0.0
O382 O 0.25058 0.23296 0.5311 0.0
O383 O 0.3292 0.17778 0.55581 0.0
O384 O 0.17999 0.12871 0.57622 0.0
O385 O 0.30356 0.0778 0.57462 0.0
O386 O 0.46395 0.08528 0.5928 0.0
O387 O 0.46007 0.13709 0.63306 0.0
O388 O 0.26624 0.11119 0.63152 0.0
O389 O 0.26422 0.19731 0.62296 0.0
O390 O 0.43992 0.22649 0.59148 0.0
O391 O 0.33149 0.29036 0.58689 0.0
H392 H 0.97963 0.2111 0.54108 0.0
H393 H 0.84146 0.1712 0.54951 0.0
H394 H 0.8509 0.23096 0.6396 0.0
H395 H 0.99153 0.26754 0.63153 0.0
H396 H 0.63417 0.10968 0.65247 0.0
H397 H 0.77284 0.14885 0.64462 0.0
H398 H 0.70066 0.19747 0.55715 0.0
H399 H 0.56233 0.15578 0.56516 0.0
C400 C 0.30645 0.28768 0.70271 0.0
Eu401 Eu 0.16551 0.23473 0.70512 0.0
C402 C 0.39155 0.26355 0.70694 0.0
C403 C 0.42871 0.2605 0.73495 0.0
C404 C 0.50795 0.23549 0.73839 0.0
C405 C 0.55044 0.21279 0.714 0.0
C406 C 0.51432 0.2168 0.68616 0.0
C407 C 0.43564 0.24142 0.68263 0.0
C408 C 0.09737 0.19471 0.75352 0.0
C409 C 0.1774 0.09461 0.71244 0.0
C410 C 0.87157 0.11153 0.69719 0.0
Eu411 Eu 1.01752 0.15849 0.69327 0.0
C412 C 0.79083 0.13537 0.70711 0.0
C413 C 0.71867 0.10216 0.70511 0.0
C414 C 0.63999 0.12656 0.70997 0.0
C415 C 0.6327 0.1848 0.71669 0.0
C416 C 0.70536 0.21694 0.72172 0.0
C417 C 0.78417 0.19202 0.71738 0.0
C418 C 0.14005 0.16102 0.64986 0.0
C419 C 0.97786 0.2934 0.6946 0.0
O420 O 0.26662 0.26991 0.67919 0.0
O421 O 0.25769 0.29137 0.72579 0.0
O422 O 0.17743 0.20083 0.75055 0.0
O423 O 1.0567 0.21155 0.73151 0.0
O424 O 0.21711 0.14237 0.70492 0.0
O425 O 0.09585 0.09316 0.71492 0.0
O426 O 0.92874 0.10711 0.71762 0.0
O427 O 0.90137 0.13166 0.67253 0.0
O428 O 0.09644 0.11618 0.65659 0.0
O429 O 0.11106 0.20241 0.66454 0.0
O430 O 0.95058 0.24196 0.6884 0.0
O431 O 1.05883 0.30276 0.70121 0.0
H432 H 0.39672 0.27734 0.75413 0.0
H433 H 0.53592 0.23363 0.75994 0.0
H434 H 0.5479 0.2015 0.66704 0.0
H435 H 0.40981 0.24371 0.66071 0.0
H436 H 0.72336 0.05822 0.69839 0.0
H437 H 0.58448 0.10095 0.70674 0.0
H438 H 0.70122 0.26172 0.72762 0.0
H439 H 0.83931 0.21748 0.72134 0.0
C440 C 0.07974 0.8518 0.70305 0.0
Eu441 Eu 0.22754 0.89672 0.70467 0.0
C442 C 0.99662 0.87735 0.69791 0.0
C443 C 0.95277 0.9047 0.72087 0.0
C444 C 0.87299 0.92701 0.71612 0.0
C445 C 0.83476 0.92168 0.68845 0.0
C446 C 0.87918 0.89484 0.66547 0.0
C447 C 0.95955 0.87351 0.67009 0.0
C448 C 0.3097 0.92431 0.75325 0.0
C449 C 0.2222 0.03969 0.71183 0.0
C450 C 0.50567 0.01416 0.66824 0.0
Eu451 Eu 0.36403 -0.02716 0.68383 0.0
C452 C 0.58937 -0.00855 0.67427 0.0
C453 C 0.64899 -0.00857 0.65203 0.0
C454 C 0.72795 -0.03173 0.65656 0.0
C455 C 0.74893 -0.05614 0.68353 0.0
C456 C 0.68767 -0.05801 0.70572 0.0
C457 C 0.60846 -0.03427 0.70114 0.0
C458 C 0.2262 -0.03863 0.64732 0.0
C459 C 0.41343 0.84048 0.69454 0.0
O460 O 0.1312 0.84919 0.68073 0.0
O461 O 0.117 0.86663 0.72744 0.0
O462 O 0.2506 0.88662 0.75261 0.0
O463 O 0.3292 -0.05819 0.72789 0.0
O464 O 0.18 -0.00913 0.7075 0.0
O465 O 0.30357 0.04178 0.70908 0.0
O466 O 0.46392 0.0343 0.69087 0.0
O467 O 0.46003 -0.01756 0.65062 0.0
O468 O 0.26618 0.00838 0.65216 0.0
O469 O 0.26415 0.92226 0.66075 0.0
O470 O 0.4399 0.89309 0.69222 0.0
O471 O 0.33149 0.82922 0.69683 0.0
H472 H 0.9796 0.90853 0.74262 0.0
H473 H 0.84143 -0.05158 0.73418 0.0
H474 H 0.8509 0.88858 0.6441 0.0
H475 H 0.99152 0.85201 0.65218 0.0
H476 H 0.63412 0.00981 0.6312 0.0
H477 H 0.77279 -0.02936 0.63905 0.0
H478 H 0.70065 0.92217 0.72655 0.0
H479 H 0.56231 -0.03615 0.71853 0.0
C480 C 0.28467 0.86161 0.44726 0.0
Eu481 Eu 0.13866 0.90852 0.44334 0.0
C482 C 0.36543 0.88543 0.45717 0.0
C483 C 0.43759 0.85222 0.45516 0.0
C484 C 0.51628 0.87661 0.46002 0.0
C485 C 0.52359 -0.06516 0.46676 0.0
C486 C 0.45092 -0.03301 0.4718 0.0
C487 C 0.3721 -0.05792 0.46745 0.0
C488 C 1.01638 0.911 0.39988 0.0
C489 C 0.17846 0.04342 0.44465 0.0
C490 C 0.84989 0.03775 0.45289 0.0
Eu491 Eu 0.99087 -0.01521 0.45521 0.0
C492 C 0.76478 0.0136 0.45709 0.0
C493 C 0.72754 0.01055 0.48508 0.0
C494 C 0.64828 -0.01446 0.4885 0.0
C495 C 0.60586 -0.03717 0.4641 0.0
C496 C 0.64205 -0.03315 0.43627 0.0
C497 C 0.72074 -0.00852 0.43276 0.0
C498 C 1.0591 -0.05556 0.50357 0.0
C499 C 0.97885 0.84463 0.46246 0.0
O500 O 0.22751 0.85719 0.46769 0.0
O501 O 0.25485 0.88173 0.42261 0.0
O502 O 1.05995 0.86618 0.40667 0.0
O503 O 1.04504 -0.04751 0.41458 0.0
O504 O 0.20567 -0.00803 0.43842 0.0
O505 O 0.09753 0.0528 0.45129 0.0
O506 O 0.88971 0.02011 0.42934 0.0
O507 O 0.89866 0.0413 0.47596 0.0
O508 O 0.97903 -0.04948 0.5006 0.0
O509 O 0.09958 -0.03838 0.4816 0.0
O510 O 0.93919 0.89242 0.45494 0.0
O511 O 1.06037 0.84316 0.46497 0.0
H512 H 0.43291 0.80828 0.44844 0.0
H513 H 0.57179 0.85099 0.45678 0.0
H514 H 0.45507 0.01176 0.4777 0.0
H515 H 0.31696 -0.03246 0.47141 0.0
H516 H 0.75948 0.02739 0.50428 0.0
H517 H 0.62026 -0.01632 0.51004 0.0
H518 H 0.60853 -0.04844 0.41714 0.0
H519 H 0.74663 -0.00622 0.41085 0.0
C520 C 0.65069 0.7641 0.41821 0.0
Eu521 Eu 0.79238 0.72285 0.43383 0.0
C522 C 0.56697 0.74143 0.42426 0.0
C523 C 0.50727 0.74149 0.40205 0.0
C524 C 0.42828 0.71838 0.40659 0.0
C525 C 0.40736 0.69392 0.43356 0.0
C526 C 0.4687 0.69198 0.45573 0.0
C527 C 0.54793 0.71569 0.45113 0.0
C528 C 0.93007 0.71143 0.39731 0.0
C529 C 0.74291 0.59048 0.44457 0.0
C530 C 1.07659 0.60188 0.4532 0.0
Eu531 Eu 0.92872 0.64672 0.45475 0.0
C532 C 0.15969 0.62742 0.44801 0.0
C533 C 0.20363 0.65474 0.47096 0.0
C534 C 0.2834 0.67705 0.46619 0.0
C535 C 0.32153 0.67176 0.4385 0.0
C536 C 0.27703 0.64495 0.41553 0.0
C537 C 0.19667 0.62361 0.42018 0.0
C538 C 0.84648 0.67438 0.50329 0.0
C539 C 0.93403 0.78972 0.46185 0.0
O540 O 0.69244 0.78431 0.44082 0.0
O541 O 0.69633 0.73231 0.40063 0.0
O542 O 0.89004 0.75841 0.40216 0.0
O543 O 0.89245 0.67223 0.4108 0.0
O544 O 0.71648 0.6431 0.44221 0.0
O545 O 0.82483 0.5792 0.44689 0.0
O546 O 1.02512 0.5991 0.43088 0.0
O547 O 1.03931 0.61683 0.47756 0.0
O548 O 0.90557 0.63668 0.50267 0.0
O549 O 0.82703 0.69188 0.47793 0.0
O550 O 0.97622 0.7409 0.45754 0.0
O551 O 0.85268 0.79182 0.45908 0.0
H552 H 0.5221 0.75992 0.38122 0.0
H553 H 0.38337 0.72083 0.38911 0.0
H554 H 0.45576 0.67213 0.47655 0.0
H555 H 0.59412 0.71375 0.4685 0.0
H556 H 0.17688 0.65853 0.49273 0.0
H557 H 0.31502 0.69842 0.48424 0.0
H558 H 0.30523 0.63872 0.39415 0.0
H559 H 0.16463 0.60215 0.40227 0.0
C560 C 0.28461 0.75799 0.33647 0.0
Eu561 Eu 0.13861 0.71106 0.34037 0.0
C562 C 0.36538 0.73417 0.32656 0.0
C563 C 0.43754 0.76738 0.3286 0.0
C564 C 0.51624 0.74299 0.32374 0.0
C565 C 0.52355 0.68477 0.31697 0.0
C566 C 0.45088 0.65264 0.3119 0.0
C567 C 0.37206 0.67754 0.31626 0.0
C568 C 1.01624 0.70861 0.38378 0.0
C569 C 0.17844 0.57617 0.33905 0.0
C570 C 0.84984 0.58182 0.3308 0.0
Eu571 Eu 0.99083 0.63477 0.32849 0.0
C572 C 0.76474 0.60599 0.32662 0.0
C573 C 0.72747 0.60903 0.29863 0.0
C574 C 0.64822 0.63405 0.29522 0.0
C575 C 0.60582 0.65678 0.31962 0.0
C576 C 0.64205 0.65277 0.34744 0.0
C577 C 0.72073 0.62813 0.35094 0.0
C578 C 1.05908 0.67513 0.28014 0.0
C579 C 0.97882 0.77494 0.32122 0.0
O580 O 0.22746 0.76242 0.31604 0.0
O581 O 0.25478 0.73784 0.36112 0.0
O582 O 1.05988 0.75342 0.37704 0.0
O583 O 1.04494 0.6671 0.36912 0.0
O584 O 0.20564 0.62761 0.34528 0.0
O585 O 0.09752 0.56677 0.33241 0.0
O586 O 0.88968 0.59945 0.35435 0.0
O587 O 0.89861 0.57828 0.30773 0.0
O588 O 0.97901 0.66903 0.28309 0.0
O589 O 0.09955 0.65796 0.30211 0.0
O590 O 0.93916 0.72715 0.32874 0.0
O591 O 1.06035 0.77641 0.31873 0.0
H592 H 0.43286 0.8113 0.33536 0.0
H593 H 0.57174 0.7686 0.327 0.0
H594 H 0.45504 0.60788 0.30598 0.0
H595 H 0.31692 0.65209 0.31228 0.0
H596 H 0.75939 0.59218 0.27943 0.0
H597 H 0.62017 0.6359 0.27368 0.0
H598 H 0.60855 0.66808 0.36658 0.0
H599 H 0.74664 0.62584 0.37285 0.0
C600 C 0.65074 0.85553 0.36554 0.0
Eu601 Eu 0.79243 0.89675 0.34989 0.0
C602 C 0.56701 0.87819 0.35948 0.0
C603 C 0.50733 0.87818 0.3817 0.0
C604 C 0.42834 0.90129 0.37715 0.0
C605 C 0.4074 0.92569 0.35017 0.0
C606 C 0.46872 0.92758 0.32799 0.0
C607 C 0.54795 0.90387 0.3326 0.0
C608 C 0.93019 0.90816 0.38636 0.0
C609 C 0.74292 0.02911 0.33912 0.0
C610 C 1.07661 0.0177 0.33049 0.0
Eu611 Eu 0.92874 -0.02713 0.32895 0.0
C612 C 0.15971 -0.00784 0.33568 0.0
C613 C 0.20366 -0.03519 0.31275 0.0
C614 C 0.28343 -0.0575 0.31753 0.0
C615 C 0.32156 -0.05216 0.34522 0.0
C616 C 0.27705 -0.02533 0.36818 0.0
C617 C 0.19669 -0.00399 0.36352 0.0
C618 C 0.84648 -0.05479 0.28041 0.0
C619 C 0.93401 0.82986 0.32184 0.0
O620 O 0.69248 0.83528 0.34293 0.0
O621 O 0.69639 0.88735 0.3831 0.0
O622 O 0.89011 0.86119 0.38156 0.0
O623 O 0.89253 -0.05263 0.3729 0.0
O624 O 0.71651 -0.02351 0.34149 0.0
O625 O 0.82484 0.04039 0.3368 0.0
O626 O 1.02514 0.02052 0.3528 0.0
O627 O 1.03934 0.00271 0.30613 0.0
O628 O 0.90555 -0.01708 0.28103 0.0
O629 O 0.82703 0.92771 0.30578 0.0
O630 O 0.97622 0.87868 0.32615 0.0
O631 O 0.85266 0.82777 0.32462 0.0
H632 H 0.52217 0.8598 0.40254 0.0
H633 H 0.38344 0.89889 0.39464 0.0
H634 H 0.45577 -0.05262 0.30716 0.0
H635 H 0.59413 0.90577 0.31523 0.0
H636 H 0.17691 -0.03902 0.29098 0.0
H637 H 0.31505 0.9211 0.29949 0.0
H638 H 0.30524 -0.01906 0.38956 0.0
H639 H 0.16464 0.0175 0.38142 0.0
C640 C 0.80641 0.33191 0.58099 0.0
Eu641 Eu 0.66547 0.38487 0.57858 0.0
C642 C 0.89152 0.35604 0.57676 0.0
C643 C 0.92865 0.3591 0.54875 0.0
C644 C 1.00789 0.3841 0.5453 0.0
C645 C 1.05041 0.40678 0.56969 0.0
C646 C 1.01432 0.40275 0.59753 0.0
C647 C 0.93564 0.37814 0.60107 0.0
C648 C 0.59736 0.42492 0.53018 0.0
C649 C 0.67737 0.52499 0.57128 0.0
C650 C 0.37152 0.50805 0.58649 0.0
Eu651 Eu 0.51747 0.4611 0.59042 0.0
C652 C 0.29078 0.48421 0.57657 0.0
C653 C 0.21863 0.51742 0.57855 0.0
C654 C 0.13994 0.49302 0.57369 0.0
C655 C 0.13266 0.43477 0.567 0.0
C656 C 0.20533 0.40261 0.56198 0.0
C657 C 0.28413 0.42754 0.56632 0.0
C658 C 0.63992 0.45853 0.63388 0.0
C659 C 0.47785 0.32619 0.5891 0.0
O660 O 0.7666 0.3497 0.60451 0.0
O661 O 0.75765 0.32822 0.55792 0.0
O662 O 0.67741 0.41879 0.53315 0.0
O663 O 0.55668 0.40805 0.55218 0.0
O664 O 0.71708 0.47723 0.57881 0.0
O665 O 0.59583 0.52644 0.56879 0.0
O666 O 0.42869 0.51246 0.56606 0.0
O667 O 0.40131 0.48794 0.61115 0.0
O668 O 0.59638 0.50338 0.6271 0.0
O669 O 0.61097 0.41717 0.61917 0.0
O670 O 0.45055 0.37762 0.5953 0.0
O671 O 0.55881 0.31684 0.58249 0.0
H672 H 0.89663 0.34228 0.52957 0.0
H673 H 1.03583 0.38598 0.52375 0.0
H674 H 1.04792 0.41803 0.61665 0.0
H675 H 0.90982 0.37584 0.62299 0.0
H676 H 0.22331 0.56137 0.58525 0.0
H677 H 0.08443 0.51864 0.57691 0.0
H678 H 0.20119 0.35783 0.5561 0.0
H679 H 0.33927 0.40208 0.56237 0.0
C680 C 0.57975 0.76778 0.58067 0.0
Eu681 Eu 0.72755 0.72286 0.57905 0.0
C682 C 0.49663 0.74223 0.58581 0.0
C683 C 0.45279 0.71491 0.56284 0.0
C684 C 0.37301 0.69259 0.56758 0.0
C685 C 0.33478 0.69789 0.59525 0.0
C686 C 0.37919 0.72471 0.61824 0.0
C687 C 0.45955 0.74605 0.61362 0.0
C688 C 0.80968 0.69527 0.53046 0.0
C689 C 0.72218 0.5799 0.57189 0.0
C690 C 1.00571 0.60539 0.61544 0.0
Eu691 Eu 0.86406 0.64673 0.59987 0.0
C692 C 0.0894 0.62811 0.60941 0.0
C693 C 0.14903 0.6281 0.63165 0.0
C694 C 0.22799 0.65125 0.62713 0.0
C695 C 0.24895 0.67571 0.60017 0.0
C696 C 0.18768 0.67762 0.57797 0.0
C697 C 0.10847 0.65387 0.58255 0.0
C698 C 0.72631 0.65821 0.63642 0.0
C699 C 0.91343 0.7791 0.58917 0.0
O700 O 0.6312 0.77036 0.603 0.0
O701 O 0.61702 0.75298 0.55628 0.0
O702 O 0.75058 0.73296 0.5311 0.0
O703 O 0.82919 0.67777 0.55582 0.0
O704 O 0.67999 0.62872 0.57623 0.0
O705 O 0.80355 0.57781 0.57463 0.0
O706 O 0.96395 0.58528 0.5928 0.0
O707 O 0.96007 0.63709 0.63307 0.0
O708 O 0.76623 0.61119 0.63153 0.0
O709 O 0.76422 0.69732 0.62297 0.0
O710 O 0.93992 0.72649 0.59149 0.0
O711 O 0.83149 0.79036 0.58689 0.0
H712 H 0.47963 0.7111 0.54109 0.0
H713 H 0.34146 0.6712 0.54951 0.0
H714 H 0.3509 0.73096 0.63961 0.0
H715 H 0.49152 0.76754 0.63154 0.0
H716 H 0.13416 0.60968 0.65248 0.0
H717 H 0.27284 0.64885 0.64463 0.0
H718 H 0.20066 0.69747 0.55715 0.0
H719 H 1.06232 0.65578 0.56517 0.0
C720 C 0.80645 0.78768 0.70273 0.0
Eu721 Eu 0.6655 0.73473 0.70514 0.0
C722 C 0.89154 0.76354 0.70695 0.0
C723 C 0.92871 0.7605 0.73496 0.0
C724 C 1.00795 0.73549 0.7384 0.0
C725 C 1.05044 0.71279 0.71401 0.0
C726 C 1.01431 0.71679 0.68617 0.0
C727 C 0.93563 0.74141 0.68264 0.0
C728 C 0.59736 0.69467 0.75352 0.0
C729 C 0.67739 0.5946 0.71243 0.0
C730 C 0.37156 0.61153 0.69719 0.0
Eu731 Eu 0.51751 0.65849 0.69327 0.0
C732 C 0.29082 0.63537 0.70711 0.0
C733 C 0.21866 0.60215 0.70511 0.0
C734 C 0.13998 0.62655 0.70997 0.0
C735 C 0.13269 0.68479 0.7167 0.0
C736 C 0.20536 0.71694 0.72173 0.0
C737 C 0.28417 0.69201 0.71738 0.0
C738 C 0.64005 0.66103 0.64987 0.0
C739 C 0.47786 0.7934 0.69461 0.0
O740 O 0.76662 0.76991 0.67921 0.0
O741 O 0.75769 0.79136 0.7258 0.0
O742 O 0.67742 0.70082 0.75056 0.0
O743 O 0.55669 0.71153 0.73152 0.0
O744 O 0.71711 0.64237 0.70492 0.0
O745 O 0.59585 0.59315 0.71491 0.0
O746 O 0.42873 0.6071 0.71762 0.0
O747 O 0.40136 0.63167 0.67254 0.0
O748 O 0.59643 0.61619 0.65659 0.0
O749 O 0.61106 0.70242 0.66455 0.0
O750 O 0.45057 0.74197 0.6884 0.0
O751 O 0.55882 0.80276 0.70122 0.0
H752 H 0.89672 0.77734 0.75414 0.0
H753 H 1.03592 0.73363 0.75995 0.0
H754 H 1.04788 0.70149 0.66705 0.0
H755 H 0.90979 0.7437 0.66072 0.0
H756 H 0.22335 0.55822 0.69839 0.0
H757 H 0.08447 0.60094 0.70674 0.0
H758 H 0.20122 0.76171 0.72763 0.0
H759 H 0.3393 0.71747 0.72135 0.0
C760 C 0.57974 0.35181 0.70305 0.0
Eu761 Eu 0.72754 0.39672 0.70467 0.0
C762 C 0.49662 0.37736 0.6979 0.0
C763 C 0.45277 0.40471 0.72086 0.0
C764 C 0.37299 0.42702 0.71612 0.0
C765 C 0.33476 0.42169 0.68845 0.0
C766 C 0.37919 0.39485 0.66546 0.0
C767 C 0.45955 0.37351 0.67008 0.0
C768 C 0.80969 0.42432 0.75324 0.0
C769 C 0.7222 0.53968 0.71182 0.0
C770 C 1.00567 0.51416 0.66823 0.0
Eu771 Eu 0.86402 0.47284 0.68382 0.0
C772 C 0.08937 0.49145 0.67427 0.0
C773 C 0.14899 0.49143 0.65203 0.0
C774 C 0.22795 0.46827 0.65655 0.0
C775 C 0.24894 0.44387 0.68352 0.0
C776 C 0.18767 0.44199 0.70572 0.0
C777 C 0.10845 0.46573 0.70114 0.0
C778 C 0.7262 0.46136 0.64731 0.0
C779 C 0.91343 0.34048 0.69453 0.0
O780 O 0.6312 0.34919 0.68072 0.0
O781 O 0.617 0.36663 0.72744 0.0
O782 O 0.75061 0.38661 0.7526 0.0
O783 O 0.82919 0.44181 0.72788 0.0
O784 O 0.68 0.49087 0.70749 0.0
O785 O 0.80357 0.54178 0.70907 0.0
O786 O 0.96392 0.5343 0.69086 0.0
O787 O 0.96003 0.48244 0.65062 0.0
O788 O 0.76618 0.50838 0.65216 0.0
O789 O 0.76415 0.42226 0.66074 0.0
O790 O 0.9399 0.39309 0.69221 0.0
O791 O 0.8315 0.32921 0.69682 0.0
H792 H 0.4796 0.40853 0.74261 0.0
H793 H 0.34143 0.44842 0.73418 0.0
H794 H 0.35091 0.38858 0.6441 0.0
H795 H 0.49153 0.35202 0.65218 0.0
H796 H 0.13412 0.50981 0.63119 0.0
H797 H 0.2728 0.47065 0.63905 0.0
H798 H 0.20065 0.42217 0.72654 0.0
H799 H 1.06231 0.46385 0.71852 0.0
C800 C 0.78465 0.3616 0.44725 0.0
Eu801 Eu 0.63864 0.40852 0.44334 0.0
C802 C 0.86542 0.38543 0.45716 0.0
C803 C 0.93758 0.35221 0.45513 0.0
C804 C 1.01627 0.37661 0.45999 0.0
C805 C 1.02358 0.43483 0.46674 0.0
C806 C 0.95091 0.46698 0.47179 0.0
C807 C 0.87209 0.44207 0.46744 0.0
C808 C 0.51636 0.411 0.39988 0.0
C809 C 0.67845 0.54342 0.44464 0.0
C810 C 0.34987 0.53775 0.45288 0.0
Eu811 Eu 0.49086 0.4848 0.4552 0.0
C812 C 0.26476 0.5136 0.45708 0.0
C813 C 0.22753 0.51054 0.48507 0.0
C814 C 0.14827 0.48553 0.48848 0.0
C815 C 0.10585 0.46283 0.46408 0.0
C816 C 0.14204 0.46685 0.43625 0.0
C817 C 0.22073 0.49148 0.43275 0.0
C818 C 0.55909 0.44445 0.50356 0.0
C819 C 0.47884 0.34464 0.46246 0.0
O820 O 0.7275 0.35718 0.46768 0.0
O821 O 0.75483 0.38173 0.4226 0.0
O822 O 0.55993 0.36618 0.40667 0.0
O823 O 0.54502 0.45249 0.41457 0.0
O824 O 0.70566 0.49197 0.43842 0.0
O825 O 0.59752 0.55281 0.45128 0.0
O826 O 0.3897 0.52011 0.42933 0.0
O827 O 0.39865 0.5413 0.47596 0.0
O828 O 0.47902 0.45052 0.50059 0.0
O829 O 0.59957 0.46162 0.48159 0.0
O830 O 0.43919 0.39242 0.45493 0.0
O831 O 0.56037 0.34316 0.46497 0.0
H832 H 0.9329 0.30828 0.4484 0.0
H833 H 1.07178 0.35099 0.45674 0.0
H834 H 0.95506 0.51174 0.4777 0.0
H835 H 0.81695 0.46752 0.47141 0.0
H836 H 0.25947 0.52737 0.50426 0.0
H837 H 0.12025 0.48366 0.51002 0.0
H838 H 0.10852 0.45156 0.41712 0.0
H839 H 0.24662 0.49378 0.41084 0.0
C840 C 0.1507 0.26409 0.41819 0.0
Eu841 Eu 0.2924 0.22285 0.43382 0.0
C842 C 1.06698 0.24141 0.42425 0.0
C843 C 1.0073 0.24145 0.40202 0.0
C844 C 0.92831 0.21834 0.40657 0.0
C845 C 0.90738 0.19391 0.43354 0.0
C846 C 0.9687 0.19199 0.45572 0.0
C847 C 1.04793 0.2157 0.45112 0.0
C848 C 0.43009 0.21142 0.39731 0.0
C849 C 0.24292 0.09048 0.44457 0.0
C850 C 0.5766 0.10188 0.45319 0.0
Eu851 Eu 0.42873 0.14672 0.45474 0.0
C852 C 0.6597 0.12743 0.44801 0.0
C853 C 0.70364 0.15476 0.47095 0.0
C854 C 0.7834 0.17706 0.46618 0.0
C855 C 0.82154 0.17175 0.43849 0.0
C856 C 0.77704 0.14493 0.41552 0.0
C857 C 0.69668 0.1236 0.42017 0.0
C858 C 0.34649 0.17439 0.50329 0.0
C859 C 0.43403 0.28973 0.46185 0.0
O860 O 0.19245 0.28431 0.4408 0.0
O861 O 0.19635 0.23229 0.40061 0.0
O862 O 0.39006 0.25841 0.40216 0.0
O863 O 0.39247 0.17222 0.41079 0.0
O864 O 0.21649 0.1431 0.44221 0.0
O865 O 0.32484 0.0792 0.44689 0.0
O866 O 0.52513 0.09909 0.43088 0.0
O867 O 0.53932 0.11685 0.47756 0.0
O868 O 0.40557 0.13667 0.50267 0.0
O869 O 0.32704 0.19189 0.47792 0.0
O870 O 0.47622 0.2409 0.45754 0.0
O871 O 0.35267 0.29182 0.45908 0.0
H872 H 1.02214 0.25985 0.38119 0.0
H873 H 0.88341 0.22077 0.38908 0.0
H874 H 0.95576 0.17216 0.47654 0.0
H875 H 0.09411 0.21378 0.46849 0.0
H876 H 0.67688 0.15857 0.49272 0.0
H877 H 0.81502 0.19845 0.48423 0.0
H878 H 0.80525 0.13868 0.39414 0.0
H879 H 0.66464 0.10212 0.40227 0.0
C880 C 0.78463 0.25798 0.33646 0.0
Eu881 Eu 0.63863 0.21106 0.34037 0.0
C882 C 0.8654 0.23416 0.32655 0.0
C883 C 0.93756 0.26737 0.32857 0.0
C884 C 1.01625 0.24299 0.32371 0.0
C885 C 1.02356 0.18476 0.31695 0.0
C886 C 0.95089 0.15262 0.3119 0.0
C887 C 0.87208 0.17753 0.31626 0.0
C888 C 0.51625 0.2086 0.38377 0.0
C889 C 0.67845 0.07617 0.33904 0.0
C890 C 0.34986 0.08182 0.33078 0.0
Eu891 Eu 0.49084 0.13477 0.32848 0.0
C892 C 0.26475 0.10598 0.3266 0.0
C893 C 0.22748 0.10902 0.29861 0.0
C894 C 0.14823 0.13404 0.2952 0.0
C895 C 0.10584 0.15677 0.3196 0.0
C896 C 0.14207 0.15278 0.34742 0.0
C897 C 0.22075 0.12814 0.35092 0.0
C898 C 0.55909 0.17517 0.28013 0.0
C899 C 0.47883 0.27495 0.32123 0.0
O900 O 0.72747 0.26242 0.31603 0.0
O901 O 0.75481 0.23784 0.36111 0.0
O902 O 0.55991 0.25341 0.37704 0.0
O903 O 0.54495 0.16709 0.36911 0.0
O904 O 0.70565 0.12761 0.34528 0.0
O905 O 0.59753 0.06677 0.3324 0.0
O906 O 0.38969 0.09944 0.35434 0.0
O907 O 0.39863 0.07828 0.30771 0.0
O908 O 0.47903 0.16904 0.28308 0.0
O909 O 0.59956 0.15799 0.30211 0.0
O910 O 0.43917 0.22715 0.32874 0.0
O911 O 0.56036 0.27642 0.31874 0.0
H912 H 0.93288 0.3113 0.33532 0.0
H913 H 1.07175 0.2686 0.32696 0.0
H914 H 0.95505 0.10786 0.30598 0.0
H915 H 0.81694 0.15207 0.31229 0.0
H916 H 0.25939 0.09216 0.27941 0.0
H917 H 0.12017 0.13588 0.27366 0.0
H918 H 0.10857 0.16809 0.36656 0.0
H919 H 0.24666 0.12585 0.37283 0.0
C920 C 0.15072 0.35551 0.36552 0.0
Eu921 Eu 0.29241 0.39674 0.34988 0.0
C922 C 1.067 0.37818 0.35946 0.0
C923 C 1.0073 0.37814 0.38168 0.0
C924 C 0.92831 0.40125 0.37713 0.0
C925 C 0.90738 0.42567 0.35016 0.0
C926 C 0.96872 0.42759 0.32798 0.0
C927 C 1.04794 0.40389 0.33259 0.0
C928 C 0.43017 0.40816 0.38636 0.0
C929 C 0.24291 0.52911 0.33912 0.0
C930 C 0.5766 0.51771 0.33048 0.0
Eu931 Eu 0.42873 0.47287 0.32894 0.0
C932 C 0.6597 0.49216 0.33568 0.0
C933 C 0.70365 0.46482 0.31274 0.0
C934 C 0.78342 0.44251 0.31752 0.0
C935 C 0.82155 0.44783 0.3452 0.0
C936 C 0.77703 0.47465 0.36817 0.0
C937 C 0.69667 0.49599 0.36352 0.0
C938 C 0.34649 0.4452 0.28041 0.0
C939 C 0.43402 0.32986 0.32184 0.0
O940 O 0.19248 0.33528 0.34291 0.0
O941 O 0.19637 0.38733 0.38309 0.0
O942 O 0.39009 0.36119 0.38155 0.0
O943 O 0.39252 0.44737 0.3729 0.0
O944 O 0.2165 0.47649 0.34149 0.0
O945 O 0.32483 0.54039 0.3368 0.0
O946 O 0.52513 0.52052 0.3528 0.0
O947 O 0.53933 0.50272 0.30612 0.0
O948 O 0.40554 0.48292 0.28102 0.0
O949 O 0.32704 0.4277 0.30578 0.0
O950 O 0.47621 0.37869 0.32615 0.0
O951 O 0.35266 0.32777 0.32462 0.0
H952 H 1.02214 0.35974 0.40251 0.0
H953 H 0.8834 0.39882 0.39462 0.0
H954 H 0.95577 0.44741 0.30716 0.0
H955 H 0.09413 0.4058 0.31522 0.0
H956 H 0.67691 0.46101 0.29097 0.0
H957 H 0.81505 0.42113 0.29947 0.0
H958 H 0.80522 0.4809 0.38955 0.0
H959 H 0.66463 0.51746 0.38142 0.0
C960 C 0.80641 0.83191 0.081 0.0
Eu961 Eu 0.66547 0.88487 0.07859 0.0
C962 C 0.89151 0.85603 0.07677 0.0
C963 C 0.92863 0.8591 0.04876 0.0
C964 C 1.00788 0.8841 0.04531 0.0
C965 C 1.0504 0.90677 0.0697 0.0
C966 C 1.01432 0.90274 0.09754 0.0
C967 C 0.93564 0.87813 0.10108 0.0
C968 C 0.59736 0.92491 0.03019 0.0
C969 C 0.67736 0.02498 0.07128 0.0
C970 C 0.37151 0.00805 0.08649 0.0
Eu971 Eu 0.51746 -0.03891 0.09043 0.0
C972 C 0.29077 -0.0158 0.07657 0.0
C973 C 0.21862 0.01742 0.07855 0.0
C974 C 0.13993 -0.00699 0.0737 0.0
C975 C 0.13265 0.93476 0.067 0.0
C976 C 0.20532 0.9026 0.06199 0.0
C977 C 0.28413 0.92754 0.06633 0.0
C978 C 0.63991 -0.04147 0.13388 0.0
C979 C 0.47784 0.82619 0.0891 0.0
O980 O 0.76659 0.84971 0.10452 0.0
O981 O 0.75764 0.82821 0.05793 0.0
O982 O 0.67741 0.91878 0.03316 0.0
O983 O 0.55667 0.90805 0.05219 0.0
O984 O 0.71707 -0.02278 0.07881 0.0
O985 O 0.59582 0.02643 0.06879 0.0
O986 O 0.42868 0.01246 0.06606 0.0
O987 O 0.4013 -0.01207 0.11115 0.0
O988 O 0.59637 0.00338 0.1271 0.0
O989 O 0.61096 0.91717 0.11917 0.0
O990 O 0.45054 0.87762 0.0953 0.0
O991 O 0.55881 0.81683 0.0825 0.0
H992 H 0.89661 0.84228 0.02958 0.0
H993 H 1.03581 0.88598 0.02376 0.0
H994 H 1.04792 0.91801 0.11666 0.0
H995 H 0.90982 0.87582 0.123 0.0
H996 H 0.2233 0.06137 0.08524 0.0
H997 H 0.08443 0.01863 0.07691 0.0
H998 H 0.20118 0.85782 0.05612 0.0
H999 H 0.33926 0.90207 0.06238 0.0
C1000 C 0.57975 0.26778 0.08067 0.0
Eu1001 Eu 0.72754 0.22285 0.07904 0.0
C1002 C 0.49663 0.24223 0.0858 0.0
C1003 C 0.45278 0.2149 0.06283 0.0
C1004 C 0.373 0.19259 0.06757 0.0
C1005 C 0.33477 0.19789 0.09524 0.0
C1006 C 0.37918 0.22471 0.11823 0.0
C1007 C 0.45955 0.24605 0.11362 0.0
C1008 C 0.80968 0.19526 0.03045 0.0
C1009 C 0.72217 0.07989 0.07188 0.0
C1010 C 1.0057 0.10538 0.11543 0.0
Eu1011 Eu 0.86405 0.14673 0.09986 0.0
C1012 C 0.0894 0.12811 0.1094 0.0
C1013 C 0.14903 0.12809 0.13164 0.0
C1014 C 0.22798 0.15125 0.12712 0.0
C1015 C 0.24895 0.1757 0.10016 0.0
C1016 C 0.18767 0.17762 0.07797 0.0
C1017 C 0.10846 0.15387 0.08254 0.0
C1018 C 0.7263 0.1582 0.13641 0.0
C1019 C 0.91342 0.2791 0.08917 0.0
O1020 O 0.6312 0.27036 0.10299 0.0
O1021 O 0.61701 0.25298 0.05628 0.0
O1022 O 0.75058 0.23296 0.0311 0.0
O1023 O 0.82918 0.17777 0.05581 0.0
O1024 O 0.67998 0.12871 0.07622 0.0
O1025 O 0.80355 0.0778 0.07462 0.0
O1026 O 0.96394 0.08528 0.0928 0.0
O1027 O 0.96006 0.13708 0.13306 0.0
O1028 O 0.76623 0.11119 0.13152 0.0
O1029 O 0.76421 0.19731 0.12296 0.0
O1030 O 0.93991 0.22648 0.09148 0.0
O1031 O 0.83148 0.29036 0.08689 0.0
H1032 H 0.47962 0.2111 0.04108 0.0
H1033 H 0.34145 0.1712 0.04951 0.0
H1034 H 0.3509 0.23096 0.1396 0.0
H1035 H 0.49152 0.26753 0.13153 0.0
H1036 H 0.13416 0.10967 0.15247 0.0
H1037 H 0.27284 0.14884 0.14462 0.0
H1038 H 0.20065 0.19747 0.05715 0.0
H1039 H 1.06231 0.15578 0.06516 0.0
C1040 C 0.80644 0.28768 0.20271 0.0
Eu1041 Eu 0.6655 0.23473 0.20512 0.0
C1042 C 0.89154 0.26354 0.20694 0.0
C1043 C 0.9287 0.26049 0.23494 0.0
C1044 C 1.00794 0.23548 0.23839 0.0
C1045 C 1.05043 0.21279 0.214 0.0
C1046 C 1.01431 0.21679 0.18616 0.0
C1047 C 0.93563 0.24141 0.18263 0.0
C1048 C 0.59736 0.1947 0.25352 0.0
C1049 C 0.67739 0.0946 0.21244 0.0
C1050 C 0.37156 0.11153 0.19719 0.0
Eu1051 Eu 0.51751 0.15849 0.19327 0.0
C1052 C 0.29082 0.13536 0.20711 0.0
C1053 C 0.21866 0.10215 0.20511 0.0
C1054 C 0.13998 0.12655 0.20997 0.0
C1055 C 0.13269 0.18479 0.21669 0.0
C1056 C 0.20535 0.21694 0.22172 0.0
C1057 C 0.28416 0.19201 0.21738 0.0
C1058 C 0.64004 0.16102 0.14986 0.0
C1059 C 0.47785 0.29339 0.1946 0.0
O1060 O 0.76661 0.2699 0.17919 0.0
O1061 O 0.75768 0.29137 0.22578 0.0
O1062 O 0.67742 0.20082 0.25055 0.0
O1063 O 0.55669 0.21154 0.23151 0.0
O1064 O 0.7171 0.14236 0.20492 0.0
O1065 O 0.59584 0.09316 0.21492 0.0
O1066 O 0.42873 0.10711 0.21762 0.0
O1067 O 0.40136 0.13166 0.17253 0.0
O1068 O 0.59643 0.11618 0.15659 0.0
O1069 O 0.61105 0.20241 0.16454 0.0
O1070 O 0.45057 0.24196 0.1884 0.0
O1071 O 0.55882 0.30275 0.20121 0.0
H1072 H 0.8967 0.27733 0.25413 0.0
H1073 H 1.03591 0.23362 0.25994 0.0
H1074 H 1.04789 0.2015 0.16704 0.0
H1075 H 0.9098 0.24371 0.16071 0.0
H1076 H 0.22335 0.05821 0.19839 0.0
H1077 H 0.08447 0.10094 0.20673 0.0
H1078 H 0.20121 0.26171 0.22761 0.0
H1079 H 0.3393 0.21747 0.22134 0.0
C1080 C 0.57973 0.8518 0.20305 0.0
Eu1081 Eu 0.72753 0.89671 0.20467 0.0
C1082 C 0.49661 0.87735 0.19791 0.0
C1083 C 0.45276 0.9047 0.22087 0.0
C1084 C 0.37298 0.92701 0.21612 0.0
C1085 C 0.33475 0.92168 0.18845 0.0
C1086 C 0.37917 0.89484 0.16547 0.0
C1087 C 0.45954 0.8735 0.17009 0.0
C1088 C 0.80968 0.92431 0.25325 0.0
C1089 C 0.72219 0.03968 0.21183 0.0
C1090 C 1.00566 0.01416 0.16824 0.0
Eu1091 Eu 0.86402 -0.02716 0.18383 0.0
C1092 C 0.08936 -0.00856 0.17427 0.0
C1093 C 0.14898 -0.00858 0.15203 0.0
C1094 C 0.22794 -0.03173 0.15655 0.0
C1095 C 0.24892 -0.05614 0.18353 0.0
C1096 C 0.18766 -0.05802 0.20572 0.0
C1097 C 0.10845 -0.03427 0.20114 0.0
C1098 C 0.72619 -0.03864 0.14732 0.0
C1099 C 0.91342 0.84047 0.19454 0.0
O1100 O 0.63119 0.84918 0.18073 0.0
O1101 O 0.61699 0.86663 0.22744 0.0
O1102 O 0.7506 0.88661 0.25261 0.0
O1103 O 0.82918 -0.05819 0.22789 0.0
O1104 O 0.67999 -0.00913 0.2075 0.0
O1105 O 0.80356 0.04177 0.20908 0.0
O1106 O 0.96391 0.03429 0.19086 0.0
O1107 O 0.96002 -0.01757 0.15062 0.0
O1108 O 0.76617 0.00837 0.15216 0.0
O1109 O 0.76414 0.92225 0.16075 0.0
O1110 O 0.93989 0.89309 0.19222 0.0
O1111 O 0.83148 0.82921 0.19683 0.0
H1112 H 0.47959 0.90853 0.24262 0.0
H1113 H 0.34142 -0.05158 0.23418 0.0
H1114 H 0.35089 0.88857 0.1441 0.0
H1115 H 0.49151 0.852 0.15218 0.0
H1116 H 0.13411 0.0098 0.13119 0.0
H1117 H 0.27278 -0.02936 0.13905 0.0
H1118 H 0.20064 0.92217 0.22655 0.0
H1119 H 1.0623 -0.03615 0.21853 0.0
C1120 C 0.78467 0.86161 0.94726 0.0
Eu1121 Eu 0.63866 0.90853 0.94334 0.0
C1122 C 0.86544 0.88544 0.95718 0.0
C1123 C 0.9376 0.85222 0.95516 0.0
C1124 C 1.01629 0.87662 0.96002 0.0
C1125 C 1.0236 -0.06515 0.96676 0.0
C1126 C 0.95093 -0.033 0.9718 0.0
C1127 C 0.87211 -0.05791 0.96745 0.0
C1128 C 0.51639 0.91101 0.89988 0.0
C1129 C 0.67847 0.04342 0.94465 0.0
C1130 C 0.34989 0.03776 0.95289 0.0
Eu1131 Eu 0.49087 -0.0152 0.95521 0.0
C1132 C 0.26478 0.01361 0.95709 0.0
C1133 C 0.22755 0.01056 0.98508 0.0
C1134 C 0.14829 -0.01446 0.9885 0.0
C1135 C 0.10587 -0.03716 0.9641 0.0
C1136 C 0.14206 -0.03314 0.93627 0.0
C1137 C 0.22075 -0.00851 0.93276 0.0
C1138 C 0.5591 -0.05555 1.00357 0.0
C1139 C 0.47885 0.84464 0.96246 0.0
O1140 O 0.72751 0.85719 0.9677 0.0
O1141 O 0.75485 0.88174 0.92261 0.0
O1142 O 0.55996 0.86619 0.90667 0.0
O1143 O 0.54505 -0.04751 0.91458 0.0
O1144 O 0.70567 -0.00802 0.93842 0.0
O1145 O 0.59754 0.05281 0.95129 0.0
O1146 O 0.38971 0.02011 0.92934 0.0
O1147 O 0.39867 0.04131 0.97596 0.0
O1148 O 0.47903 -0.04948 1.0006 0.0
O1149 O 0.59958 -0.03837 0.9816 0.0
O1150 O 0.4392 0.89243 0.95494 0.0
O1151 O 0.56038 0.84317 0.96497 0.0
H1152 H 0.93292 0.80829 0.94844 0.0
H1153 H 1.07179 0.851 0.95678 0.0
H1154 H 0.95508 0.01177 0.9777 0.0
H1155 H 0.81697 -0.03245 0.97141 0.0
H1156 H 0.25949 0.02739 1.00428 0.0
H1157 H 0.12027 -0.01632 1.01004 0.0
H1158 H 0.10853 -0.04843 0.91714 0.0
H1159 H 0.24663 -0.00621 0.91085 0.0
C1160 C 0.15069 0.76411 0.91821 0.0
Eu1161 Eu 0.29239 0.72286 0.93383 0.0
C1162 C 1.06697 0.74144 0.92426 0.0
C1163 C 1.00728 0.7415 0.90205 0.0
C1164 C 0.92829 0.71839 0.90659 0.0
C1165 C 0.90737 0.69393 0.93356 0.0
C1166 C 0.96871 0.69198 0.95573 0.0
C1167 C 1.04793 0.71569 0.95113 0.0
C1168 C 0.43008 0.71144 0.89731 0.0
C1169 C 0.24292 0.59049 0.94457 0.0
C1170 C 0.5766 0.60188 0.9532 0.0
Eu1171 Eu 0.42873 0.64673 0.95475 0.0
C1172 C 0.6597 0.62743 0.94802 0.0
C1173 C 0.70364 0.65474 0.97096 0.0
C1174 C 0.78341 0.67706 0.96619 0.0
C1175 C 0.82154 0.67177 0.93851 0.0
C1176 C 0.77703 0.64497 0.91553 0.0
C1177 C 0.69667 0.62362 0.92018 0.0
C1178 C 0.34649 0.67439 1.00329 0.0
C1179 C 0.43404 0.78973 0.96185 0.0
O1180 O 0.19245 0.78432 0.94082 0.0
O1181 O 0.19634 0.73232 0.90063 0.0
O1182 O 0.39005 0.75842 0.90216 0.0
O1183 O 0.39246 0.67223 0.9108 0.0
O1184 O 0.21649 0.64311 0.94221 0.0
O1185 O 0.32484 0.57921 0.94689 0.0
O1186 O 0.52513 0.5991 0.93088 0.0
O1187 O 0.53932 0.61684 0.97756 0.0
O1188 O 0.40557 0.63668 1.00267 0.0
O1189 O 0.32704 0.69189 0.97793 0.0
O1190 O 0.47623 0.7409 0.95754 0.0
O1191 O 0.35268 0.79183 0.95908 0.0
H1192 H 1.02211 0.75993 0.88122 0.0
H1193 H 0.88337 0.72085 0.88911 0.0
H1194 H 0.95577 0.67213 0.97655 0.0
H1195 H 0.09413 0.71376 0.9685 0.0
H1196 H 0.67689 0.65854 0.99273 0.0
H1197 H 0.81503 0.69843 0.98425 0.0
H1198 H 0.80523 0.63874 0.89415 0.0
H1199 H 0.66463 0.60217 0.90227 0.0
C1200 C 0.78462 0.75799 0.83647 0.0
Eu1201 Eu 0.63861 0.71107 0.84038 0.0
C1202 C 0.86539 0.73418 0.82656 0.0
C1203 C 0.93755 0.76738 0.8286 0.0
C1204 C 1.01625 0.743 0.82374 0.0
C1205 C 1.02356 0.68478 0.81697 0.0
C1206 C 0.95089 0.65264 0.8119 0.0
C1207 C 0.87207 0.67755 0.81626 0.0
C1208 C 0.51624 0.70862 0.88378 0.0
C1209 C 0.67845 0.57617 0.83905 0.0
C1210 C 0.34985 0.58183 0.8308 0.0
Eu1211 Eu 0.49083 0.63478 0.82849 0.0
C1212 C 0.26474 0.606 0.82662 0.0
C1213 C 0.22748 0.60904 0.79863 0.0
C1214 C 0.14822 0.63406 0.79522 0.0
C1215 C 0.10583 0.65678 0.81962 0.0
C1216 C 0.14206 0.65278 0.84744 0.0
C1217 C 0.22074 0.62814 0.85094 0.0
C1218 C 0.55909 0.67514 0.78014 0.0
C1219 C 0.47883 0.77495 0.82122 0.0
O1220 O 0.72747 0.76243 0.81604 0.0
O1221 O 0.75479 0.73785 0.86112 0.0
O1222 O 0.55989 0.75342 0.87704 0.0
O1223 O 0.54494 0.6671 0.86912 0.0
O1224 O 0.70565 0.62762 0.84528 0.0
O1225 O 0.59752 0.56678 0.83241 0.0
O1226 O 0.38969 0.59945 0.85435 0.0
O1227 O 0.39861 0.57829 0.80773 0.0
O1228 O 0.47902 0.66904 0.78309 0.0
O1229 O 0.59956 0.65797 0.80211 0.0
O1230 O 0.43916 0.72716 0.82874 0.0
O1231 O 0.56036 0.77642 0.81873 0.0
H1232 H 0.93287 0.8113 0.83536 0.0
H1233 H 1.07175 0.76861 0.827 0.0
H1234 H 0.95505 0.60789 0.80597 0.0
H1235 H 0.81693 0.6521 0.81228 0.0
H1236 H 0.25939 0.59218 0.77943 0.0
H1237 H 0.12017 0.63591 0.77368 0.0
H1238 H 0.10856 0.66809 0.86658 0.0
H1239 H 0.24665 0.62585 0.87285 0.0
C1240 C 0.15074 0.85554 0.86554 0.0
Eu1241 Eu 0.29243 0.89676 0.84989 0.0
C1242 C 1.06702 0.8782 0.85948 0.0
C1243 C 1.00733 0.87819 0.8817 0.0
C1244 C 0.92835 0.9013 0.87715 0.0
C1245 C 0.9074 0.92569 0.85017 0.0
C1246 C 0.96873 0.92758 0.82799 0.0
C1247 C 1.04795 0.90388 0.8326 0.0
C1248 C 0.4302 0.90817 0.88636 0.0
C1249 C 0.24293 0.02912 0.83912 0.0
C1250 C 0.57662 0.01771 0.83049 0.0
Eu1251 Eu 0.42875 -0.02712 0.82895 0.0
C1252 C 0.65972 -0.00784 0.83568 0.0
C1253 C 0.70367 -0.03519 0.81275 0.0
C1254 C 0.78343 -0.05749 0.81753 0.0
C1255 C 0.82157 -0.05216 0.84522 0.0
C1256 C 0.77705 -0.02532 0.86818 0.0
C1257 C 0.69669 -0.00399 0.86352 0.0
C1258 C 0.34649 -0.05479 0.78041 0.0
C1259 C 0.43402 0.82986 0.82185 0.0
O1260 O 0.19249 0.83529 0.84293 0.0
O1261 O 0.1964 0.88736 0.8831 0.0
O1262 O 0.39012 0.8612 0.88156 0.0
O1263 O 0.39254 -0.05262 0.8729 0.0
O1264 O 0.21651 -0.02351 0.84149 0.0
O1265 O 0.32485 0.0404 0.8368 0.0
O1266 O 0.52514 0.02053 0.8528 0.0
O1267 O 0.53935 0.00272 0.80613 0.0
O1268 O 0.40556 -0.01707 0.78103 0.0
O1269 O 0.32705 0.92771 0.80578 0.0
O1270 O 0.47622 0.87869 0.82615 0.0
O1271 O 0.35267 0.82778 0.82463 0.0
H1272 H 1.02218 0.85981 0.90254 0.0
H1273 H 0.88345 0.8989 0.89464 0.0
H1274 H 0.95578 -0.05261 0.80716 0.0
H1275 H 0.09413 0.90578 0.81523 0.0
H1276 H 0.67692 -0.03901 0.79098 0.0
H1277 H 0.81506 0.9211 0.79949 0.0
H1278 H 0.80525 -0.01905 0.88956 0.0
H1279 H 0.66465 0.0175 0.88142 0.0
loop_
_geom_bond_atom_site_label_1
_geom_bond_atom_site_label_2
_geom_bond_distance
_geom_bond_site_symmetry_2
_ccdc_geom_bond_type
C0 Eu1 2.835 . S
C0 C2 1.500 . S
C0 O20 1.257 . S
C0 O21 1.260 . S
Eu1 C0 2.835 . S
Eu1 O20 2.473 . S
Eu1 O21 2.480 . S
Eu1 O22 2.430 . S
Eu1 O23 2.670 1_455 S
Eu1 O24 2.394 . S
Eu1 O29 2.355 . S
Eu1 O31 2.374 . S
C2 C0 1.500 . S
C2 C3 1.377 . S
C2 C7 1.377 . S
C3 C2 1.377 . S
C3 C4 1.395 . S
C3 H32 0.931 . S
C4 C3 1.395 . S
C4 C5 1.383 . S
C4 H33 0.931 . S
C5 C4 1.383 . S
C5 C6 1.394 . S
C6 C5 1.394 . S
C6 C7 1.378 . S
C6 H34 0.931 . S
C7 C2 1.377 . S
C7 C6 1.378 . S
C7 H35 0.931 . S
C8 O22 1.259 . S
C8 O23 1.270 1_455 S
C9 O24 1.251 . S
C9 O25 1.251 . S
C10 Eu11 2.835 . S
C10 C12 1.500 . S
C10 O26 1.257 . S
C10 O27 1.260 . S
Eu11 C10 2.835 . S
Eu11 O23 2.355 . S
Eu11 O25 2.374 1_655 S
Eu11 O26 2.473 . S
Eu11 O27 2.480 . S
Eu11 O28 2.430 . S
Eu11 O29 2.670 1_655 S
Eu11 O30 2.394 . S
C12 C10 1.500 . S
C12 C13 1.377 . S
C12 C17 1.377 . S
C13 C12 1.377 . S
C13 C14 1.395 . S
C13 H36 0.931 . S
C14 C13 1.395 . S
C14 C15 1.383 . S
C14 H37 0.931 . S
C15 C14 1.383 . S
C15 C16 1.394 . S
C16 C15 1.394 . S
C16 C17 1.378 . S
C16 H38 0.931 . S
C17 C12 1.377 . S
C17 C16 1.378 . S
C17 H39 0.931 . S
C18 O28 1.259 1_455 S
C18 O29 1.270 . S
C19 O30 1.251 . S
C19 O31 1.251 1_655 S
O20 C0 1.257 . S
O20 Eu1 2.473 . S
O21 C0 1.260 . S
O21 Eu1 2.480 . S
O22 Eu1 2.430 . S
O22 C8 1.259 . S
O23 Eu1 2.670 1_655 S
O23 C8 1.270 1_655 S
O23 Eu11 2.355 . S
O24 Eu1 2.394 . S
O24 C9 1.251 . S
O25 C9 1.251 . S
O25 Eu11 2.374 1_455 S
O26 C10 1.257 . S
O26 Eu11 2.473 . S
O27 C10 1.260 . S
O27 Eu11 2.480 . S
O28 Eu11 2.430 . S
O28 C18 1.259 1_655 S
O29 Eu1 2.355 . S
O29 Eu11 2.670 1_455 S
O29 C18 1.270 . S
O30 Eu11 2.394 . S
O30 C19 1.251 . S
O31 Eu1 2.374 . S
O31 C19 1.251 1_455 S
H32 C3 0.931 . S
H33 C4 0.931 . S
H34 C6 0.931 . S
H35 C7 0.931 . S
H36 C13 0.931 . S
H37 C14 0.931 . S
H38 C16 0.931 . S
H39 C17 0.931 . S
C40 Eu41 2.835 1_655 S
C40 C42 1.500 . S
C40 O60 1.257 1_655 S
C40 O61 1.260 1_655 S
Eu41 C40 2.835 1_455 S
Eu41 O60 2.473 . S
Eu41 O61 2.480 . S
Eu41 O62 2.430 . S
Eu41 O63 2.670 . S
Eu41 O64 2.394 . S
Eu41 O69 2.355 . S
Eu41 O71 2.374 . S
C42 C40 1.500 . S
C42 C43 1.377 . S
C42 C47 1.377 . S
C43 C42 1.377 . S
C43 C44 1.395 . S
C43 H72 0.931 . S
C44 C43 1.395 . S
C44 C45 1.383 . S
C44 H73 0.931 . S
C45 C44 1.383 . S
C45 C46 1.394 . S
C46 C45 1.394 . S
C46 C47 1.378 . S
C46 H74 0.931 . S
C47 C42 1.377 . S
C47 C46 1.378 . S
C47 H75 0.931 . S
C48 O62 1.259 . S
C48 O63 1.270 . S
C49 O64 1.251 . S
C49 O65 1.251 . S
C50 Eu51 2.835 . S
C50 C52 1.500 . S
C50 O66 1.257 . S
C50 O67 1.260 . S
Eu51 C50 2.835 . S
Eu51 O63 2.355 . S
Eu51 O65 2.374 . S
Eu51 O66 2.473 . S
Eu51 O67 2.480 . S
Eu51 O68 2.430 . S
Eu51 O69 2.670 . S
Eu51 O70 2.394 . S
C52 C50 1.500 . S
C52 C53 1.377 . S
C52 C57 1.377 . S
C53 C52 1.377 . S
C53 C54 1.395 . S
C53 H76 0.931 . S
C54 C53 1.395 . S
C54 C55 1.383 . S
C54 H77 0.931 . S
C55 C54 1.383 . S
C55 C56 1.394 . S
C56 C55 1.394 . S
C56 C57 1.378 . S
C56 H78 0.931 . S
C57 C52 1.377 . S
C57 C56 1.378 . S
C57 H79 0.931 . S
C58 O68 1.259 . S
C58 O69 1.270 . S
C59 O70 1.251 . S
C59 O71 1.251 . S
O60 C40 1.257 1_455 S
O60 Eu41 2.473 . S
O61 C40 1.260 1_455 S
O61 Eu41 2.480 . S
O62 Eu41 2.430 . S
O62 C48 1.259 . S
O63 Eu41 2.670 . S
O63 C48 1.270 . S
O63 Eu51 2.355 . S
O64 Eu41 2.394 . S
O64 C49 1.251 . S
O65 C49 1.251 . S
O65 Eu51 2.374 . S
O66 C50 1.257 . S
O66 Eu51 2.473 . S
O67 C50 1.260 . S
O67 Eu51 2.480 . S
O68 Eu51 2.430 . S
O68 C58 1.259 . S
O69 Eu41 2.355 . S
O69 Eu51 2.670 . S
O69 C58 1.270 . S
O70 Eu51 2.394 . S
O70 C59 1.251 . S
O71 Eu41 2.374 . S
O71 C59 1.251 . S
H72 C43 0.931 . S
H73 C44 0.931 . S
H74 C46 0.931 . S
H75 C47 0.931 . S
H76 C53 0.931 . S
H77 C54 0.931 . S
H78 C56 0.931 . S
H79 C57 0.931 . S
C80 Eu81 2.835 . S
C80 C82 1.500 . S
C80 O100 1.257 . S
C80 O101 1.260 . S
Eu81 C80 2.835 . S
Eu81 O100 2.473 . S
Eu81 O101 2.480 . S
Eu81 O102 2.430 . S
Eu81 O103 2.670 1_455 S
Eu81 O104 2.394 . S
Eu81 O109 2.355 . S
Eu81 O111 2.374 . S
C82 C80 1.500 . S
C82 C83 1.377 . S
C82 C87 1.377 . S
C83 C82 1.377 . S
C83 C84 1.395 . S
C83 H112 0.931 . S
C84 C83 1.395 . S
C84 C85 1.383 . S
C84 H113 0.931 . S
C85 C84 1.383 . S
C85 C86 1.394 . S
C86 C85 1.394 . S
C86 C87 1.378 . S
C86 H114 0.931 . S
C87 C82 1.377 . S
C87 C86 1.378 . S
C87 H115 0.931 . S
C88 O102 1.259 . S
C88 O103 1.270 1_455 S
C89 O104 1.251 . S
C89 O105 1.251 . S
C90 Eu91 2.835 . S
C90 C92 1.500 . S
C90 O106 1.257 . S
C90 O107 1.260 . S
Eu91 C90 2.835 . S
Eu91 O103 2.355 . S
Eu91 O105 2.374 1_655 S
Eu91 O106 2.473 . S
Eu91 O107 2.480 . S
Eu91 O108 2.430 . S
Eu91 O109 2.670 1_655 S
Eu91 O110 2.394 . S
C92 C90 1.500 . S
C92 C93 1.377 . S
C92 C97 1.377 . S
C93 C92 1.377 . S
C93 C94 1.395 . S
C93 H116 0.931 . S
C94 C93 1.395 . S
C94 C95 1.383 . S
C94 H117 0.931 . S
C95 C94 1.383 . S
C95 C96 1.394 . S
C96 C95 1.394 . S
C96 C97 1.378 . S
C96 H118 0.931 . S
C97 C92 1.377 . S
C97 C96 1.378 . S
C97 H119 0.931 . S
C98 O108 1.259 1_455 S
C98 O109 1.270 . S
C99 O110 1.251 . S
C99 O111 1.251 1_655 S
O100 C80 1.257 . S
O100 Eu81 2.473 . S
O101 C80 1.260 . S
O101 Eu81 2.480 . S
O102 Eu81 2.430 . S
O102 C88 1.259 . S
O103 Eu81 2.670 1_655 S
O103 C88 1.270 1_655 S
O103 Eu91 2.355 . S
O104 Eu81 2.394 . S
O104 C89 1.251 . S
O105 C89 1.251 . S
O105 Eu91 2.374 1_455 S
O106 C90 1.257 . S
O106 Eu91 2.473 . S
O107 C90 1.260 . S
O107 Eu91 2.480 . S
O108 Eu91 2.430 . S
O108 C98 1.259 1_655 S
O109 Eu81 2.355 . S
O109 Eu91 2.670 1_455 S
O109 C98 1.270 . S
O110 Eu91 2.394 . S
O110 C99 1.251 . S
O111 Eu81 2.374 . S
O111 C99 1.251 1_455 S
H112 C83 0.931 . S
H113 C84 0.931 . S
H114 C86 0.931 . S
H115 C87 0.931 . S
H116 C93 0.931 . S
H117 C94 0.931 . S
H118 C96 0.931 . S
H119 C97 0.931 . S
C120 Eu121 2.835 1_655 S
C120 C122 1.500 . S
C120 O140 1.257 1_655 S
C120 O141 1.260 1_655 S
Eu121 C120 2.835 1_455 S
Eu121 O140 2.473 . S
Eu121 O141 2.480 . S
Eu121 O142 2.430 . S
Eu121 O143 2.670 . S
Eu121 O144 2.394 . S
Eu121 O149 2.355 . S
Eu121 O151 2.374 . S
C122 C120 1.500 . S
C122 C123 1.377 . S
C122 C127 1.377 . S
C123 C122 1.377 . S
C123 C124 1.395 . S
C123 H152 0.931 . S
C124 C123 1.395 . S
C124 C125 1.383 . S
C124 H153 0.931 . S
C125 C124 1.383 . S
C125 C126 1.394 . S
C126 C125 1.394 . S
C126 C127 1.378 . S
C126 H154 0.931 . S
C127 C122 1.377 . S
C127 C126 1.378 . S
C127 H155 0.931 . S
C128 O142 1.259 . S
C128 O143 1.270 . S
C129 O144 1.251 . S
C129 O145 1.251 . S
C130 Eu131 2.835 . S
C130 C132 1.500 . S
C130 O146 1.257 . S
C130 O147 1.260 . S
Eu131 C130 2.835 . S
Eu131 O143 2.355 . S
Eu131 O145 2.374 . S
Eu131 O146 2.473 . S
Eu131 O147 2.480 . S
Eu131 O148 2.430 . S
Eu131 O149 2.670 . S
Eu131 O150 2.394 . S
C132 C130 1.500 . S
C132 C133 1.377 . S
C132 C137 1.377 . S
C133 C132 1.377 . S
C133 C134 1.395 . S
C133 H156 0.931 . S
C134 C133 1.395 . S
C134 C135 1.383 . S
C134 H157 0.931 . S
C135 C134 1.383 . S
C135 C136 1.394 . S
C136 C135 1.394 . S
C136 C137 1.378 . S
C136 H158 0.931 . S
C137 C132 1.377 . S
C137 C136 1.378 . S
C137 H159 0.931 . S
C138 O148 1.259 . S
C138 O149 1.270 . S
C139 O150 1.251 . S
C139 O151 1.251 . S
O140 C120 1.257 1_455 S
O140 Eu121 2.473 . S
O141 C120 1.260 1_455 S
O141 Eu121 2.480 . S
O142 Eu121 2.430 . S
O142 C128 1.259 . S
O143 Eu121 2.670 . S
O143 C128 1.270 . S
O143 Eu131 2.355 . S
O144 Eu121 2.394 . S
O144 C129 1.251 . S
O145 C129 1.251 . S
O145 Eu131 2.374 . S
O146 C130 1.257 . S
O146 Eu131 2.473 . S
O147 C130 1.260 . S
O147 Eu131 2.480 . S
O148 Eu131 2.430 . S
O148 C138 1.259 . S
O149 Eu121 2.355 . S
O149 Eu131 2.670 . S
O149 C138 1.270 . S
O150 Eu131 2.394 . S
O150 C139 1.251 . S
O151 Eu121 2.374 . S
O151 C139 1.251 . S
H152 C123 0.931 . S
H153 C124 0.931 . S
H154 C126 0.931 . S
H155 C127 0.931 . S
H156 C133 0.931 . S
H157 C134 0.931 . S
H158 C136 0.931 . S
H159 C137 0.931 . S
C160 Eu161 2.835 . S
C160 C162 1.500 . S
C160 O180 1.257 . S
C160 O181 1.260 . S
Eu161 C160 2.835 . S
Eu161 O180 2.473 . S
Eu161 O181 2.480 . S
Eu161 O182 2.430 . S
Eu161 O183 2.670 1_455 S
Eu161 O184 2.394 . S
Eu161 O189 2.355 . S
Eu161 O191 2.374 1_455 S
C162 C160 1.500 . S
C162 C163 1.377 . S
C162 C167 1.377 . S
C163 C162 1.377 . S
C163 C164 1.395 . S
C163 H192 0.931 . S
C164 C163 1.395 . S
C164 C165 1.383 . S
C164 H193 0.931 . S
C165 C164 1.383 . S
C165 C166 1.394 . S
C166 C165 1.394 . S
C166 C167 1.378 . S
C166 H194 0.931 . S
C167 C162 1.377 . S
C167 C166 1.378 . S
C167 H195 0.931 . S
C168 O182 1.259 1_655 S
C168 O183 1.270 . S
C169 O184 1.251 . S
C169 O185 1.251 1_455 S
C170 Eu171 2.835 . S
C170 C172 1.500 . S
C170 O186 1.257 . S
C170 O187 1.260 . S
Eu171 C170 2.835 . S
Eu171 O183 2.355 . S
Eu171 O185 2.374 . S
Eu171 O186 2.473 . S
Eu171 O187 2.480 . S
Eu171 O188 2.430 . S
Eu171 O189 2.670 1_655 S
Eu171 O190 2.394 . S
C172 C170 1.500 . S
C172 C173 1.377 . S
C172 C177 1.377 . S
C173 C172 1.377 . S
C173 C174 1.395 . S
C173 H196 0.931 . S
C174 C173 1.395 . S
C174 C175 1.383 . S
C174 H197 0.931 . S
C175 C174 1.383 . S
C175 C176 1.394 . S
C176 C175 1.394 . S
C176 C177 1.378 . S
C176 H198 0.931 . S
C177 C172 1.377 . S
C177 C176 1.378 . S
C177 H199 0.931 . S
C178 O188 1.259 . S
C178 O189 1.270 1_655 S
C179 O190 1.251 . S
C179 O191 1.251 . S
O180 C160 1.257 . S
O180 Eu161 2.473 . S
O181 C160 1.260 . S
O181 Eu161 2.480 . S
O182 Eu161 2.430 . S
O182 C168 1.259 1_455 S
O183 Eu161 2.670 1_655 S
O183 C168 1.270 . S
O183 Eu171 2.355 . S
O184 Eu161 2.394 . S
O184 C169 1.251 . S
O185 C169 1.251 1_655 S
O185 Eu171 2.374 . S
O186 C170 1.257 . S
O186 Eu171 2.473 . S
O187 C170 1.260 . S
O187 Eu171 2.480 . S
O188 Eu171 2.430 . S
O188 C178 1.259 . S
O189 Eu161 2.355 . S
O189 Eu171 2.670 1_455 S
O189 C178 1.270 1_455 S
O190 Eu171 2.394 . S
O190 C179 1.251 . S
O191 Eu161 2.374 1_655 S
O191 C179 1.251 . S
H192 C163 0.931 . S
H193 C164 0.931 . S
H194 C166 0.931 . S
H195 C167 0.931 . S
H196 C173 0.931 . S
H197 C174 0.931 . S
H198 C176 0.931 . S
H199 C177 0.931 . S
C200 Eu201 2.835 . S
C200 C202 1.500 . S
C200 O220 1.257 . S
C200 O221 1.260 . S
Eu201 C200 2.835 . S
Eu201 O220 2.473 . S
Eu201 O221 2.480 . S
Eu201 O222 2.430 . S
Eu201 O223 2.670 . S
Eu201 O224 2.394 . S
Eu201 O229 2.355 . S
Eu201 O231 2.374 . S
C202 C200 1.500 . S
C202 C203 1.377 . S
C202 C207 1.377 . S
C203 C202 1.377 . S
C203 C204 1.395 . S
C203 H232 0.931 . S
C204 C203 1.395 . S
C204 C205 1.383 . S
C204 H233 0.931 . S
C205 C204 1.383 . S
C205 C206 1.394 . S
C206 C205 1.394 . S
C206 C207 1.378 . S
C206 H234 0.931 . S
C207 C202 1.377 . S
C207 C206 1.378 . S
C207 H235 0.931 . S
C208 O222 1.259 . S
C208 O223 1.270 . S
C209 O224 1.251 . S
C209 O225 1.251 . S
C210 Eu211 2.835 1_455 S
C210 C212 1.500 . S
C210 O226 1.257 1_455 S
C210 O227 1.260 1_455 S
Eu211 C210 2.835 1_655 S
Eu211 O223 2.355 . S
Eu211 O225 2.374 . S
Eu211 O226 2.473 . S
Eu211 O227 2.480 . S
Eu211 O228 2.430 . S
Eu211 O229 2.670 . S
Eu211 O230 2.394 . S
C212 C210 1.500 . S
C212 C213 1.377 . S
C212 C217 1.377 . S
C213 C212 1.377 . S
C213 C214 1.395 . S
C213 H236 0.931 . S
C214 C213 1.395 . S
C214 C215 1.383 . S
C214 H237 0.931 . S
C215 C214 1.383 . S
C215 C216 1.394 . S
C216 C215 1.394 . S
C216 C217 1.378 . S
C216 H238 0.931 . S
C217 C212 1.377 . S
C217 C216 1.378 . S
C217 H239 0.931 . S
C218 O228 1.259 . S
C218 O229 1.270 . S
C219 O230 1.251 . S
C219 O231 1.251 . S
O220 C200 1.257 . S
O220 Eu201 2.473 . S
O221 C200 1.260 . S
O221 Eu201 2.480 . S
O222 Eu201 2.430 . S
O222 C208 1.259 . S
O223 Eu201 2.670 . S
O223 C208 1.270 . S
O223 Eu211 2.355 . S
O224 Eu201 2.394 . S
O224 C209 1.251 . S
O225 C209 1.251 . S
O225 Eu211 2.374 . S
O226 C210 1.257 1_655 S
O226 Eu211 2.473 . S
O227 C210 1.260 1_655 S
O227 Eu211 2.480 . S
O228 Eu211 2.430 . S
O228 C218 1.259 . S
O229 Eu201 2.355 . S
O229 Eu211 2.670 . S
O229 C218 1.270 . S
O230 Eu211 2.394 . S
O230 C219 1.251 . S
O231 Eu201 2.374 . S
O231 C219 1.251 . S
H232 C203 0.931 . S
H233 C204 0.931 . S
H234 C206 0.931 . S
H235 C207 0.931 . S
H236 C213 0.931 . S
H237 C214 0.931 . S
H238 C216 0.931 . S
H239 C217 0.931 . S
C240 Eu241 2.835 . S
C240 C242 1.500 . S
C240 O260 1.257 . S
C240 O261 1.260 . S
Eu241 C240 2.835 . S
Eu241 O260 2.473 . S
Eu241 O261 2.480 . S
Eu241 O262 2.430 . S
Eu241 O263 2.670 1_455 S
Eu241 O264 2.394 . S
Eu241 O269 2.355 . S
Eu241 O271 2.374 1_455 S
C242 C240 1.500 . S
C242 C243 1.377 . S
C242 C247 1.377 . S
C243 C242 1.377 . S
C243 C244 1.395 . S
C243 H272 0.931 . S
C244 C243 1.395 . S
C244 C245 1.383 . S
C244 H273 0.931 . S
C245 C244 1.383 . S
C245 C246 1.394 . S
C246 C245 1.394 . S
C246 C247 1.378 . S
C246 H274 0.931 . S
C247 C242 1.377 . S
C247 C246 1.378 . S
C247 H275 0.931 . S
C248 O262 1.259 1_655 S
C248 O263 1.270 . S
C249 O264 1.251 . S
C249 O265 1.251 1_455 S
C250 Eu251 2.835 . S
C250 C252 1.500 . S
C250 O266 1.257 . S
C250 O267 1.260 . S
Eu251 C250 2.835 . S
Eu251 O263 2.355 . S
Eu251 O265 2.374 . S
Eu251 O266 2.473 . S
Eu251 O267 2.480 . S
Eu251 O268 2.430 . S
Eu251 O269 2.670 1_655 S
Eu251 O270 2.394 . S
C252 C250 1.500 . S
C252 C253 1.377 . S
C252 C257 1.377 . S
C253 C252 1.377 . S
C253 C254 1.395 . S
C253 H276 0.931 . S
C254 C253 1.395 . S
C254 C255 1.383 . S
C254 H277 0.931 . S
C255 C254 1.383 . S
C255 C256 1.394 . S
C256 C255 1.394 . S
C256 C257 1.378 . S
C256 H278 0.931 . S
C257 C252 1.377 . S
C257 C256 1.378 . S
C257 H279 0.931 . S
C258 O268 1.259 . S
C258 O269 1.270 1_655 S
C259 O270 1.251 . S
C259 O271 1.251 . S
O260 C240 1.257 . S
O260 Eu241 2.473 . S
O261 C240 1.260 . S
O261 Eu241 2.480 . S
O262 Eu241 2.430 . S
O262 C248 1.259 1_455 S
O263 Eu241 2.670 1_655 S
O263 C248 1.270 . S
O263 Eu251 2.355 . S
O264 Eu241 2.394 . S
O264 C249 1.251 . S
O265 C249 1.251 1_655 S
O265 Eu251 2.374 . S
O266 C250 1.257 . S
O266 Eu251 2.473 . S
O267 C250 1.260 . S
O267 Eu251 2.480 . S
O268 Eu251 2.430 . S
O268 C258 1.259 . S
O269 Eu241 2.355 . S
O269 Eu251 2.670 1_455 S
O269 C258 1.270 1_455 S
O270 Eu251 2.394 . S
O270 C259 1.251 . S
O271 Eu241 2.374 1_655 S
O271 C259 1.251 . S
H272 C243 0.931 . S
H273 C244 0.931 . S
H274 C246 0.931 . S
H275 C247 0.931 . S
H276 C253 0.931 . S
H277 C254 0.931 . S
H278 C256 0.931 . S
H279 C257 0.931 . S
C280 Eu281 2.835 . S
C280 C282 1.500 . S
C280 O300 1.257 . S
C280 O301 1.260 . S
Eu281 C280 2.835 . S
Eu281 O300 2.473 . S
Eu281 O301 2.480 . S
Eu281 O302 2.430 . S
Eu281 O303 2.670 . S
Eu281 O304 2.394 . S
Eu281 O309 2.355 . S
Eu281 O311 2.374 . S
C282 C280 1.500 . S
C282 C283 1.377 . S
C282 C287 1.377 . S
C283 C282 1.377 . S
C283 C284 1.395 . S
C283 H312 0.931 . S
C284 C283 1.395 . S
C284 C285 1.383 . S
C284 H313 0.931 . S
C285 C284 1.383 . S
C285 C286 1.394 . S
C286 C285 1.394 . S
C286 C287 1.378 . S
C286 H314 0.931 . S
C287 C282 1.377 . S
C287 C286 1.378 . S
C287 H315 0.931 . S
C288 O302 1.259 . S
C288 O303 1.270 . S
C289 O304 1.251 . S
C289 O305 1.251 . S
C290 Eu291 2.835 1_455 S
C290 C292 1.500 . S
C290 O306 1.257 1_455 S
C290 O307 1.260 1_455 S
Eu291 C290 2.835 1_655 S
Eu291 O303 2.355 . S
Eu291 O305 2.374 . S
Eu291 O306 2.473 . S
Eu291 O307 2.480 . S
Eu291 O308 2.430 . S
Eu291 O309 2.670 . S
Eu291 O310 2.394 . S
C292 C290 1.500 . S
C292 C293 1.377 . S
C292 C297 1.377 . S
C293 C292 1.377 . S
C293 C294 1.395 . S
C293 H316 0.931 . S
C294 C293 1.395 . S
C294 C295 1.383 . S
C294 H317 0.931 . S
C295 C294 1.383 . S
C295 C296 1.394 . S
C296 C295 1.394 . S
C296 C297 1.378 . S
C296 H318 0.931 . S
C297 C292 1.377 . S
C297 C296 1.378 . S
C297 H319 0.931 . S
C298 O308 1.259 . S
C298 O309 1.270 . S
C299 O310 1.251 . S
C299 O311 1.251 . S
O300 C280 1.257 . S
O300 Eu281 2.473 . S
O301 C280 1.260 . S
O301 Eu281 2.480 . S
O302 Eu281 2.430 . S
O302 C288 1.259 . S
O303 Eu281 2.670 . S
O303 C288 1.270 . S
O303 Eu291 2.355 . S
O304 Eu281 2.394 . S
O304 C289 1.251 . S
O305 C289 1.251 . S
O305 Eu291 2.374 . S
O306 C290 1.257 1_655 S
O306 Eu291 2.473 . S
O307 C290 1.260 1_655 S
O307 Eu291 2.480 . S
O308 Eu291 2.430 . S
O308 C298 1.259 . S
O309 Eu281 2.355 . S
O309 Eu291 2.670 . S
O309 C298 1.270 . S
O310 Eu291 2.394 . S
O310 C299 1.251 . S
O311 Eu281 2.374 . S
O311 C299 1.251 . S
H312 C283 0.931 . S
H313 C284 0.931 . S
H314 C286 0.931 . S
H315 C287 0.931 . S
H316 C293 0.931 . S
H317 C294 0.931 . S
H318 C296 0.931 . S
H319 C297 0.931 . S
C320 Eu321 2.835 . S
C320 C322 1.500 . S
C320 O340 1.257 . S
C320 O341 1.260 . S
Eu321 C320 2.835 . S
Eu321 O340 2.473 . S
Eu321 O341 2.480 . S
Eu321 O342 2.430 . S
Eu321 O343 2.670 1_455 S
Eu321 O344 2.394 1_565 S
Eu321 O349 2.355 . S
Eu321 O351 2.374 . S
C322 C320 1.500 . S
C322 C323 1.377 . S
C322 C327 1.377 . S
C323 C322 1.377 . S
C323 C324 1.395 . S
C323 H352 0.931 . S
C324 C323 1.395 . S
C324 C325 1.383 . S
C324 H353 0.931 . S
C325 C324 1.383 . S
C325 C326 1.394 . S
C326 C325 1.394 . S
C326 C327 1.378 . S
C326 H354 0.931 . S
C327 C322 1.377 . S
C327 C326 1.378 . S
C327 H355 0.931 . S
C328 O342 1.259 . S
C328 O343 1.270 1_455 S
C329 O344 1.251 . S
C329 O345 1.251 . S
C330 Eu331 2.835 . S
C330 C332 1.500 . S
C330 O346 1.257 . S
C330 O347 1.260 . S
Eu331 C330 2.835 . S
Eu331 O343 2.355 1_545 S
Eu331 O345 2.374 1_655 S
Eu331 O346 2.473 . S
Eu331 O347 2.480 . S
Eu331 O348 2.430 . S
Eu331 O349 2.670 1_645 S
Eu331 O350 2.394 1_545 S
C332 C330 1.500 . S
C332 C333 1.377 . S
C332 C337 1.377 1_545 S
C333 C332 1.377 . S
C333 C334 1.395 . S
C333 H356 0.931 . S
C334 C333 1.395 . S
C334 C335 1.383 1_545 S
C334 H357 0.931 . S
C335 C334 1.383 1_565 S
C335 C336 1.394 . S
C336 C335 1.394 . S
C336 C337 1.378 . S
C336 H358 0.931 . S
C337 C332 1.377 1_565 S
C337 C336 1.378 . S
C337 H359 0.931 . S
C338 O348 1.259 1_465 S
C338 O349 1.270 . S
C339 O350 1.251 . S
C339 O351 1.251 1_655 S
O340 C320 1.257 . S
O340 Eu321 2.473 . S
O341 C320 1.260 . S
O341 Eu321 2.480 . S
O342 Eu321 2.430 . S
O342 C328 1.259 . S
O343 Eu321 2.670 1_655 S
O343 C328 1.270 1_655 S
O343 Eu331 2.355 1_565 S
O344 Eu321 2.394 1_545 S
O344 C329 1.251 . S
O345 C329 1.251 . S
O345 Eu331 2.374 1_455 S
O346 C330 1.257 . S
O346 Eu331 2.473 . S
O347 C330 1.260 . S
O347 Eu331 2.480 . S
O348 Eu331 2.430 . S
O348 C338 1.259 1_645 S
O349 Eu321 2.355 . S
O349 Eu331 2.670 1_465 S
O349 C338 1.270 . S
O350 Eu331 2.394 1_565 S
O350 C339 1.251 . S
O351 Eu321 2.374 . S
O351 C339 1.251 1_455 S
H352 C323 0.931 . S
H353 C324 0.931 . S
H354 C326 0.931 . S
H355 C327 0.931 . S
H356 C333 0.931 . S
H357 C334 0.931 . S
H358 C336 0.931 . S
H359 C337 0.931 . S
C360 Eu361 2.835 1_655 S
C360 C362 1.500 . S
C360 O380 1.257 1_655 S
C360 O381 1.260 1_655 S
Eu361 C360 2.835 1_455 S
Eu361 O380 2.473 . S
Eu361 O381 2.480 . S
Eu361 O382 2.430 . S
Eu361 O383 2.670 . S
Eu361 O384 2.394 . S
Eu361 O389 2.355 . S
Eu361 O391 2.374 . S
C362 C360 1.500 . S
C362 C363 1.377 . S
C362 C367 1.377 . S
C363 C362 1.377 . S
C363 C364 1.395 . S
C363 H392 0.931 . S
C364 C363 1.395 . S
C364 C365 1.383 . S
C364 H393 0.931 . S
C365 C364 1.383 . S
C365 C366 1.394 . S
C366 C365 1.394 . S
C366 C367 1.378 . S
C366 H394 0.931 . S
C367 C362 1.377 . S
C367 C366 1.378 . S
C367 H395 0.931 . S
C368 O382 1.259 . S
C368 O383 1.270 . S
C369 O384 1.251 . S
C369 O385 1.251 . S
C370 Eu371 2.835 . S
C370 C372 1.500 . S
C370 O386 1.257 . S
C370 O387 1.260 . S
Eu371 C370 2.835 . S
Eu371 O383 2.355 . S
Eu371 O385 2.374 . S
Eu371 O386 2.473 . S
Eu371 O387 2.480 . S
Eu371 O388 2.430 . S
Eu371 O389 2.670 . S
Eu371 O390 2.394 . S
C372 C370 1.500 . S
C372 C373 1.377 . S
C372 C377 1.377 . S
C373 C372 1.377 . S
C373 C374 1.395 . S
C373 H396 0.931 . S
C374 C373 1.395 . S
C374 C375 1.383 . S
C374 H397 0.931 . S
C375 C374 1.383 . S
C375 C376 1.394 . S
C376 C375 1.394 . S
C376 C377 1.378 . S
C376 H398 0.931 . S
C377 C372 1.377 . S
C377 C376 1.378 . S
C377 H399 0.931 . S
C378 O388 1.259 . S
C378 O389 1.270 . S
C379 O390 1.251 . S
C379 O391 1.251 . S
O380 C360 1.257 1_455 S
O380 Eu361 2.473 . S
O381 C360 1.260 1_455 S
O381 Eu361 2.480 . S
O382 Eu361 2.430 . S
O382 C368 1.259 . S
O383 Eu361 2.670 . S
O383 C368 1.270 . S
O383 Eu371 2.355 . S
O384 Eu361 2.394 . S
O384 C369 1.251 . S
O385 C369 1.251 . S
O385 Eu371 2.374 . S
O386 C370 1.257 . S
O386 Eu371 2.473 . S
O387 C370 1.260 . S
O387 Eu371 2.480 . S
O388 Eu371 2.430 . S
O388 C378 1.259 . S
O389 Eu361 2.355 . S
O389 Eu371 2.670 . S
O389 C378 1.270 . S
O390 Eu371 2.394 . S
O390 C379 1.251 . S
O391 Eu361 2.374 . S
O391 C379 1.251 . S
H392 C363 0.931 . S
H393 C364 0.931 . S
H394 C366 0.931 . S
H395 C367 0.931 . S
H396 C373 0.931 . S
H397 C374 0.931 . S
H398 C376 0.931 . S
H399 C377 0.931 . S
C400 Eu401 2.835 . S
C400 C402 1.500 . S
C400 O420 1.257 . S
C400 O421 1.260 . S
Eu401 C400 2.835 . S
Eu401 O420 2.473 . S
Eu401 O421 2.480 . S
Eu401 O422 2.430 . S
Eu401 O423 2.670 1_455 S
Eu401 O424 2.394 . S
Eu401 O429 2.355 . S
Eu401 O431 2.374 . S
C402 C400 1.500 . S
C402 C403 1.377 . S
C402 C407 1.377 . S
C403 C402 1.377 . S
C403 C404 1.395 . S
C403 H432 0.931 . S
C404 C403 1.395 . S
C404 C405 1.383 . S
C404 H433 0.931 . S
C405 C404 1.383 . S
C405 C406 1.394 . S
C406 C405 1.394 . S
C406 C407 1.378 . S
C406 H434 0.931 . S
C407 C402 1.377 . S
C407 C406 1.378 . S
C407 H435 0.931 . S
C408 O422 1.259 . S
C408 O423 1.270 1_455 S
C409 O424 1.251 . S
C409 O425 1.251 . S
C410 Eu411 2.835 . S
C410 C412 1.500 . S
C410 O426 1.257 . S
C410 O427 1.260 . S
Eu411 C410 2.835 . S
Eu411 O423 2.355 . S
Eu411 O425 2.374 1_655 S
Eu411 O426 2.473 . S
Eu411 O427 2.480 . S
Eu411 O428 2.430 . S
Eu411 O429 2.670 1_655 S
Eu411 O430 2.394 . S
C412 C410 1.500 . S
C412 C413 1.377 . S
C412 C417 1.377 . S
C413 C412 1.377 . S
C413 C414 1.395 . S
C413 H436 0.931 . S
C414 C413 1.395 . S
C414 C415 1.383 . S
C414 H437 0.931 . S
C415 C414 1.383 . S
C415 C416 1.394 . S
C416 C415 1.394 . S
C416 C417 1.378 . S
C416 H438 0.931 . S
C417 C412 1.377 . S
C417 C416 1.378 . S
C417 H439 0.931 . S
C418 O428 1.259 1_455 S
C418 O429 1.270 . S
C419 O430 1.251 . S
C419 O431 1.251 1_655 S
O420 C400 1.257 . S
O420 Eu401 2.473 . S
O421 C400 1.260 . S
O421 Eu401 2.480 . S
O422 Eu401 2.430 . S
O422 C408 1.259 . S
O423 Eu401 2.670 1_655 S
O423 C408 1.270 1_655 S
O423 Eu411 2.355 . S
O424 Eu401 2.394 . S
O424 C409 1.251 . S
O425 C409 1.251 . S
O425 Eu411 2.374 1_455 S
O426 C410 1.257 . S
O426 Eu411 2.473 . S
O427 C410 1.260 . S
O427 Eu411 2.480 . S
O428 Eu411 2.430 . S
O428 C418 1.259 1_655 S
O429 Eu401 2.355 . S
O429 Eu411 2.670 1_455 S
O429 C418 1.270 . S
O430 Eu411 2.394 . S
O430 C419 1.251 . S
O431 Eu401 2.374 . S
O431 C419 1.251 1_455 S
H432 C403 0.931 . S
H433 C404 0.931 . S
H434 C406 0.931 . S
H435 C407 0.931 . S
H436 C413 0.931 . S
H437 C414 0.931 . S
H438 C416 0.931 . S
H439 C417 0.931 . S
C440 Eu441 2.835 1_655 S
C440 C442 1.500 . S
C440 O460 1.257 1_655 S
C440 O461 1.260 1_655 S
Eu441 C440 2.835 1_455 S
Eu441 O460 2.473 . S
Eu441 O461 2.480 . S
Eu441 O462 2.430 . S
Eu441 O463 2.670 . S
Eu441 O464 2.394 1_565 S
Eu441 O469 2.355 . S
Eu441 O471 2.374 . S
C442 C440 1.500 . S
C442 C443 1.377 . S
C442 C447 1.377 . S
C443 C442 1.377 . S
C443 C444 1.395 . S
C443 H472 0.931 . S
C444 C443 1.395 . S
C444 C445 1.383 . S
C444 H473 0.931 . S
C445 C444 1.383 . S
C445 C446 1.394 . S
C446 C445 1.394 . S
C446 C447 1.378 . S
C446 H474 0.931 . S
C447 C442 1.377 . S
C447 C446 1.378 . S
C447 H475 0.931 . S
C448 O462 1.259 . S
C448 O463 1.270 . S
C449 O464 1.251 . S
C449 O465 1.251 . S
C450 Eu451 2.835 . S
C450 C452 1.500 . S
C450 O466 1.257 . S
C450 O467 1.260 . S
Eu451 C450 2.835 . S
Eu451 O463 2.355 1_545 S
Eu451 O465 2.374 . S
Eu451 O466 2.473 . S
Eu451 O467 2.480 . S
Eu451 O468 2.430 . S
Eu451 O469 2.670 1_545 S
Eu451 O470 2.394 1_545 S
C452 C450 1.500 . S
C452 C453 1.377 . S
C452 C457 1.377 1_545 S
C453 C452 1.377 . S
C453 C454 1.395 . S
C453 H476 0.931 . S
C454 C453 1.395 . S
C454 C455 1.383 1_545 S
C454 H477 0.931 . S
C455 C454 1.383 1_565 S
C455 C456 1.394 . S
C456 C455 1.394 . S
C456 C457 1.378 . S
C456 H478 0.931 . S
C457 C452 1.377 1_565 S
C457 C456 1.378 . S
C457 H479 0.931 . S
C458 O468 1.259 1_565 S
C458 O469 1.270 . S
C459 O470 1.251 . S
C459 O471 1.251 . S
O460 C440 1.257 1_455 S
O460 Eu441 2.473 . S
O461 C440 1.260 1_455 S
O461 Eu441 2.480 . S
O462 Eu441 2.430 . S
O462 C448 1.259 . S
O463 Eu441 2.670 . S
O463 C448 1.270 . S
O463 Eu451 2.355 1_565 S
O464 Eu441 2.394 1_545 S
O464 C449 1.251 . S
O465 C449 1.251 . S
O465 Eu451 2.374 . S
O466 C450 1.257 . S
O466 Eu451 2.473 . S
O467 C450 1.260 . S
O467 Eu451 2.480 . S
O468 Eu451 2.430 . S
O468 C458 1.259 1_545 S
O469 Eu441 2.355 . S
O469 Eu451 2.670 1_565 S
O469 C458 1.270 . S
O470 Eu451 2.394 1_565 S
O470 C459 1.251 . S
O471 Eu441 2.374 . S
O471 C459 1.251 . S
H472 C443 0.931 . S
H473 C444 0.931 . S
H474 C446 0.931 . S
H475 C447 0.931 . S
H476 C453 0.931 . S
H477 C454 0.931 . S
H478 C456 0.931 . S
H479 C457 0.931 . S
C480 Eu481 2.835 . S
C480 C482 1.500 . S
C480 O500 1.257 . S
C480 O501 1.260 . S
Eu481 C480 2.835 . S
Eu481 O500 2.473 . S
Eu481 O501 2.480 . S
Eu481 O502 2.430 . S
Eu481 O503 2.670 1_465 S
Eu481 O504 2.394 1_565 S
Eu481 O509 2.355 1_565 S
Eu481 O511 2.374 1_455 S
C482 C480 1.500 . S
C482 C483 1.377 . S
C482 C487 1.377 1_565 S
C483 C482 1.377 . S
C483 C484 1.395 . S
C483 H512 0.931 . S
C484 C483 1.395 . S
C484 C485 1.383 1_565 S
C484 H513 0.931 . S
C485 C484 1.383 1_545 S
C485 C486 1.394 . S
C486 C485 1.394 . S
C486 C487 1.378 . S
C486 H514 0.931 . S
C487 C482 1.377 1_545 S
C487 C486 1.378 . S
C487 H515 0.931 . S
C488 O502 1.259 1_645 S
C488 O503 1.270 . S
C489 O504 1.251 . S
C489 O505 1.251 1_455 S
C490 Eu491 2.835 . S
C490 C492 1.500 . S
C490 O506 1.257 . S
C490 O507 1.260 . S
Eu491 C490 2.835 . S
Eu491 O503 2.355 . S
Eu491 O505 2.374 . S
Eu491 O506 2.473 . S
Eu491 O507 2.480 . S
Eu491 O508 2.430 . S
Eu491 O509 2.670 1_655 S
Eu491 O510 2.394 1_545 S
C492 C490 1.500 . S
C492 C493 1.377 . S
C492 C497 1.377 . S
C493 C492 1.377 . S
C493 C494 1.395 . S
C493 H516 0.931 . S
C494 C493 1.395 . S
C494 C495 1.383 . S
C494 H517 0.931 . S
C495 C494 1.383 . S
C495 C496 1.394 . S
C496 C495 1.394 . S
C496 C497 1.378 . S
C496 H518 0.931 . S
C497 C492 1.377 . S
C497 C496 1.378 . S
C497 H519 0.931 . S
C498 O508 1.259 . S
C498 O509 1.270 1_655 S
C499 O510 1.251 . S
C499 O511 1.251 . S
O500 C480 1.257 . S
O500 Eu481 2.473 . S
O501 C480 1.260 . S
O501 Eu481 2.480 . S
O502 Eu481 2.430 . S
O502 C488 1.259 1_465 S
O503 Eu481 2.670 1_645 S
O503 C488 1.270 . S
O503 Eu491 2.355 . S
O504 Eu481 2.394 1_545 S
O504 C489 1.251 . S
O505 C489 1.251 1_655 S
O505 Eu491 2.374 . S
O506 C490 1.257 . S
O506 Eu491 2.473 . S
O507 C490 1.260 . S
O507 Eu491 2.480 . S
O508 Eu491 2.430 . S
O508 C498 1.259 . S
O509 Eu481 2.355 1_545 S
O509 Eu491 2.670 1_455 S
O509 C498 1.270 1_455 S
O510 Eu491 2.394 1_565 S
O510 C499 1.251 . S
O511 Eu481 2.374 1_655 S
O511 C499 1.251 . S
H512 C483 0.931 . S
H513 C484 0.931 . S
H514 C486 0.931 . S
H515 C487 0.931 . S
H516 C493 0.931 . S
H517 C494 0.931 . S
H518 C496 0.931 . S
H519 C497 0.931 . S
C520 Eu521 2.835 . S
C520 C522 1.500 . S
C520 O540 1.257 . S
C520 O541 1.260 . S
Eu521 C520 2.835 . S
Eu521 O540 2.473 . S
Eu521 O541 2.480 . S
Eu521 O542 2.430 . S
Eu521 O543 2.670 . S
Eu521 O544 2.394 . S
Eu521 O549 2.355 . S
Eu521 O551 2.374 . S
C522 C520 1.500 . S
C522 C523 1.377 . S
C522 C527 1.377 . S
C523 C522 1.377 . S
C523 C524 1.395 . S
C523 H552 0.931 . S
C524 C523 1.395 . S
C524 C525 1.383 . S
C524 H553 0.931 . S
C525 C524 1.383 . S
C525 C526 1.394 . S
C526 C525 1.394 . S
C526 C527 1.378 . S
C526 H554 0.931 . S
C527 C522 1.377 . S
C527 C526 1.378 . S
C527 H555 0.931 . S
C528 O542 1.259 . S
C528 O543 1.270 . S
C529 O544 1.251 . S
C529 O545 1.251 . S
C530 Eu531 2.835 1_455 S
C530 C532 1.500 . S
C530 O546 1.257 1_455 S
C530 O547 1.260 1_455 S
Eu531 C530 2.835 1_655 S
Eu531 O543 2.355 . S
Eu531 O545 2.374 . S
Eu531 O546 2.473 . S
Eu531 O547 2.480 . S
Eu531 O548 2.430 . S
Eu531 O549 2.670 . S
Eu531 O550 2.394 . S
C532 C530 1.500 . S
C532 C533 1.377 . S
C532 C537 1.377 . S
C533 C532 1.377 . S
C533 C534 1.395 . S
C533 H556 0.931 . S
C534 C533 1.395 . S
C534 C535 1.383 . S
C534 H557 0.931 . S
C535 C534 1.383 . S
C535 C536 1.394 . S
C536 C535 1.394 . S
C536 C537 1.378 . S
C536 H558 0.931 . S
C537 C532 1.377 . S
C537 C536 1.378 . S
C537 H559 0.931 . S
C538 O548 1.259 . S
C538 O549 1.270 . S
C539 O550 1.251 . S
C539 O551 1.251 . S
O540 C520 1.257 . S
O540 Eu521 2.473 . S
O541 C520 1.260 . S
O541 Eu521 2.480 . S
O542 Eu521 2.430 . S
O542 C528 1.259 . S
O543 Eu521 2.670 . S
O543 C528 1.270 . S
O543 Eu531 2.355 . S
O544 Eu521 2.394 . S
O544 C529 1.251 . S
O545 C529 1.251 . S
O545 Eu531 2.374 . S
O546 C530 1.257 1_655 S
O546 Eu531 2.473 . S
O547 C530 1.260 1_655 S
O547 Eu531 2.480 . S
O548 Eu531 2.430 . S
O548 C538 1.259 . S
O549 Eu521 2.355 . S
O549 Eu531 2.670 . S
O549 C538 1.270 . S
O550 Eu531 2.394 . S
O550 C539 1.251 . S
O551 Eu521 2.374 . S
O551 C539 1.251 . S
H552 C523 0.931 . S
H553 C524 0.931 . S
H554 C526 0.931 . S
H555 C527 0.931 . S
H556 C533 0.931 . S
H557 C534 0.931 . S
H558 C536 0.931 . S
H559 C537 0.931 . S
C560 Eu561 2.835 . S
C560 C562 1.500 . S
C560 O580 1.257 . S
C560 O581 1.260 . S
Eu561 C560 2.835 . S
Eu561 O580 2.473 . S
Eu561 O581 2.480 . S
Eu561 O582 2.430 . S
Eu561 O583 2.670 1_455 S
Eu561 O584 2.394 . S
Eu561 O589 2.355 . S
Eu561 O591 2.374 1_455 S
C562 C560 1.500 . S
C562 C563 1.377 . S
C562 C567 1.377 . S
C563 C562 1.377 . S
C563 C564 1.395 . S
C563 H592 0.931 . S
C564 C563 1.395 . S
C564 C565 1.383 . S
C564 H593 0.931 . S
C565 C564 1.383 . S
C565 C566 1.394 . S
C566 C565 1.394 . S
C566 C567 1.378 . S
C566 H594 0.931 . S
C567 C562 1.377 . S
C567 C566 1.378 . S
C567 H595 0.931 . S
C568 O582 1.259 1_655 S
C568 O583 1.270 . S
C569 O584 1.251 . S
C569 O585 1.251 1_455 S
C570 Eu571 2.835 . S
C570 C572 1.500 . S
C570 O586 1.257 . S
C570 O587 1.260 . S
Eu571 C570 2.835 . S
Eu571 O583 2.355 . S
Eu571 O585 2.374 . S
Eu571 O586 2.473 . S
Eu571 O587 2.480 . S
Eu571 O588 2.430 . S
Eu571 O589 2.670 1_655 S
Eu571 O590 2.394 . S
C572 C570 1.500 . S
C572 C573 1.377 . S
C572 C577 1.377 . S
C573 C572 1.377 . S
C573 C574 1.395 . S
C573 H596 0.931 . S
C574 C573 1.395 . S
C574 C575 1.383 . S
C574 H597 0.931 . S
C575 C574 1.383 . S
C575 C576 1.394 . S
C576 C575 1.394 . S
C576 C577 1.378 . S
C576 H598 0.931 . S
C577 C572 1.377 . S
C577 C576 1.378 . S
C577 H599 0.931 . S
C578 O588 1.259 . S
C578 O589 1.270 1_655 S
C579 O590 1.251 . S
C579 O591 1.251 . S
O580 C560 1.257 . S
O580 Eu561 2.473 . S
O581 C560 1.260 . S
O581 Eu561 2.480 . S
O582 Eu561 2.430 . S
O582 C568 1.259 1_455 S
O583 Eu561 2.670 1_655 S
O583 C568 1.270 . S
O583 Eu571 2.355 . S
O584 Eu561 2.394 . S
O584 C569 1.251 . S
O585 C569 1.251 1_655 S
O585 Eu571 2.374 . S
O586 C570 1.257 . S
O586 Eu571 2.473 . S
O587 C570 1.260 . S
O587 Eu571 2.480 . S
O588 Eu571 2.430 . S
O588 C578 1.259 . S
O589 Eu561 2.355 . S
O589 Eu571 2.670 1_455 S
O589 C578 1.270 1_455 S
O590 Eu571 2.394 . S
O590 C579 1.251 . S
O591 Eu561 2.374 1_655 S
O591 C579 1.251 . S
H592 C563 0.931 . S
H593 C564 0.931 . S
H594 C566 0.931 . S
H595 C567 0.931 . S
H596 C573 0.931 . S
H597 C574 0.931 . S
H598 C576 0.931 . S
H599 C577 0.931 . S
C600 Eu601 2.835 . S
C600 C602 1.500 . S
C600 O620 1.257 . S
C600 O621 1.260 . S
Eu601 C600 2.835 . S
Eu601 O620 2.473 . S
Eu601 O621 2.480 . S
Eu601 O622 2.430 . S
Eu601 O623 2.670 1_565 S
Eu601 O624 2.394 1_565 S
Eu601 O629 2.355 1_565 S
Eu601 O631 2.374 . S
C602 C600 1.500 . S
C602 C603 1.377 . S
C602 C607 1.377 1_565 S
C603 C602 1.377 . S
C603 C604 1.395 . S
C603 H632 0.931 . S
C604 C603 1.395 . S
C604 C605 1.383 1_565 S
C604 H633 0.931 . S
C605 C604 1.383 1_545 S
C605 C606 1.394 . S
C606 C605 1.394 . S
C606 C607 1.378 . S
C606 H634 0.931 . S
C607 C602 1.377 1_545 S
C607 C606 1.378 . S
C607 H635 0.931 . S
C608 O622 1.259 1_545 S
C608 O623 1.270 . S
C609 O624 1.251 . S
C609 O625 1.251 . S
C610 Eu611 2.835 1_455 S
C610 C612 1.500 . S
C610 O626 1.257 1_455 S
C610 O627 1.260 1_455 S
Eu611 C610 2.835 1_655 S
Eu611 O623 2.355 . S
Eu611 O625 2.374 . S
Eu611 O626 2.473 . S
Eu611 O627 2.480 . S
Eu611 O628 2.430 . S
Eu611 O629 2.670 . S
Eu611 O630 2.394 1_545 S
C612 C610 1.500 . S
C612 C613 1.377 . S
C612 C617 1.377 . S
C613 C612 1.377 . S
C613 C614 1.395 . S
C613 H636 0.931 . S
C614 C613 1.395 . S
C614 C615 1.383 . S
C614 H637 0.931 . S
C615 C614 1.383 . S
C615 C616 1.394 . S
C616 C615 1.394 . S
C616 C617 1.378 . S
C616 H638 0.931 . S
C617 C612 1.377 . S
C617 C616 1.378 . S
C617 H639 0.931 . S
C618 O628 1.259 . S
C618 O629 1.270 . S
C619 O630 1.251 . S
C619 O631 1.251 . S
O620 C600 1.257 . S
O620 Eu601 2.473 . S
O621 C600 1.260 . S
O621 Eu601 2.480 . S
O622 Eu601 2.430 . S
O622 C608 1.259 1_565 S
O623 Eu601 2.670 1_545 S
O623 C608 1.270 . S
O623 Eu611 2.355 . S
O624 Eu601 2.394 1_545 S
O624 C609 1.251 . S
O625 C609 1.251 . S
O625 Eu611 2.374 . S
O626 C610 1.257 1_655 S
O626 Eu611 2.473 . S
O627 C610 1.260 1_655 S
O627 Eu611 2.480 . S
O628 Eu611 2.430 . S
O628 C618 1.259 . S
O629 Eu601 2.355 1_545 S
O629 Eu611 2.670 . S
O629 C618 1.270 . S
O630 Eu611 2.394 1_565 S
O630 C619 1.251 . S
O631 Eu601 2.374 . S
O631 C619 1.251 . S
H632 C603 0.931 . S
H633 C604 0.931 . S
H634 C606 0.931 . S
H635 C607 0.931 . S
H636 C613 0.931 . S
H637 C614 0.931 . S
H638 C616 0.931 . S
H639 C617 0.931 . S
C640 Eu641 2.835 . S
C640 C642 1.500 . S
C640 O660 1.257 . S
C640 O661 1.260 . S
Eu641 C640 2.835 . S
Eu641 O660 2.473 . S
Eu641 O661 2.480 . S
Eu641 O662 2.430 . S
Eu641 O663 2.670 . S
Eu641 O664 2.394 . S
Eu641 O669 2.355 . S
Eu641 O671 2.374 . S
C642 C640 1.500 . S
C642 C643 1.377 . S
C642 C647 1.377 . S
C643 C642 1.377 . S
C643 C644 1.395 . S
C643 H672 0.931 . S
C644 C643 1.395 . S
C644 C645 1.383 . S
C644 H673 0.931 . S
C645 C644 1.383 . S
C645 C646 1.394 . S
C646 C645 1.394 . S
C646 C647 1.378 . S
C646 H674 0.931 . S
C647 C642 1.377 . S
C647 C646 1.378 . S
C647 H675 0.931 . S
C648 O662 1.259 . S
C648 O663 1.270 . S
C649 O664 1.251 . S
C649 O665 1.251 . S
C650 Eu651 2.835 . S
C650 C652 1.500 . S
C650 O666 1.257 . S
C650 O667 1.260 . S
Eu651 C650 2.835 . S
Eu651 O663 2.355 . S
Eu651 O665 2.374 . S
Eu651 O666 2.473 . S
Eu651 O667 2.480 . S
Eu651 O668 2.430 . S
Eu651 O669 2.670 . S
Eu651 O670 2.394 . S
C652 C650 1.500 . S
C652 C653 1.377 . S
C652 C657 1.377 . S
C653 C652 1.377 . S
C653 C654 1.395 . S
C653 H676 0.931 . S
C654 C653 1.395 . S
C654 C655 1.383 . S
C654 H677 0.931 . S
C655 C654 1.383 . S
C655 C656 1.394 . S
C656 C655 1.394 . S
C656 C657 1.378 . S
C656 H678 0.931 . S
C657 C652 1.377 . S
C657 C656 1.378 . S
C657 H679 0.931 . S
C658 O668 1.259 . S
C658 O669 1.270 . S
C659 O670 1.251 . S
C659 O671 1.251 . S
O660 C640 1.257 . S
O660 Eu641 2.473 . S
O661 C640 1.260 . S
O661 Eu641 2.480 . S
O662 Eu641 2.430 . S
O662 C648 1.259 . S
O663 Eu641 2.670 . S
O663 C648 1.270 . S
O663 Eu651 2.355 . S
O664 Eu641 2.394 . S
O664 C649 1.251 . S
O665 C649 1.251 . S
O665 Eu651 2.374 . S
O666 C650 1.257 . S
O666 Eu651 2.473 . S
O667 C650 1.260 . S
O667 Eu651 2.480 . S
O668 Eu651 2.430 . S
O668 C658 1.259 . S
O669 Eu641 2.355 . S
O669 Eu651 2.670 . S
O669 C658 1.270 . S
O670 Eu651 2.394 . S
O670 C659 1.251 . S
O671 Eu641 2.374 . S
O671 C659 1.251 . S
H672 C643 0.931 . S
H673 C644 0.931 . S
H674 C646 0.931 . S
H675 C647 0.931 . S
H676 C653 0.931 . S
H677 C654 0.931 . S
H678 C656 0.931 . S
H679 C657 0.931 . S
C680 Eu681 2.835 . S
C680 C682 1.500 . S
C680 O700 1.257 . S
C680 O701 1.260 . S
Eu681 C680 2.835 . S
Eu681 O700 2.473 . S
Eu681 O701 2.480 . S
Eu681 O702 2.430 . S
Eu681 O703 2.670 . S
Eu681 O704 2.394 . S
Eu681 O709 2.355 . S
Eu681 O711 2.374 . S
C682 C680 1.500 . S
C682 C683 1.377 . S
C682 C687 1.377 . S
C683 C682 1.377 . S
C683 C684 1.395 . S
C683 H712 0.931 . S
C684 C683 1.395 . S
C684 C685 1.383 . S
C684 H713 0.931 . S
C685 C684 1.383 . S
C685 C686 1.394 . S
C686 C685 1.394 . S
C686 C687 1.378 . S
C686 H714 0.931 . S
C687 C682 1.377 . S
C687 C686 1.378 . S
C687 H715 0.931 . S
C688 O702 1.259 . S
C688 O703 1.270 . S
C689 O704 1.251 . S
C689 O705 1.251 . S
C690 Eu691 2.835 . S
C690 C692 1.500 1_655 S
C690 O706 1.257 . S
C690 O707 1.260 . S
Eu691 C690 2.835 . S
Eu691 O703 2.355 . S
Eu691 O705 2.374 . S
Eu691 O706 2.473 . S
Eu691 O707 2.480 . S
Eu691 O708 2.430 . S
Eu691 O709 2.670 . S
Eu691 O710 2.394 . S
C692 C690 1.500 1_455 S
C692 C693 1.377 . S
C692 C697 1.377 . S
C693 C692 1.377 . S
C693 C694 1.395 . S
C693 H716 0.931 . S
C694 C693 1.395 . S
C694 C695 1.383 . S
C694 H717 0.931 . S
C695 C694 1.383 . S
C695 C696 1.394 . S
C696 C695 1.394 . S
C696 C697 1.378 . S
C696 H718 0.931 . S
C697 C692 1.377 . S
C697 C696 1.378 . S
C697 H719 0.931 . S
C698 O708 1.259 . S
C698 O709 1.270 . S
C699 O710 1.251 . S
C699 O711 1.251 . S
O700 C680 1.257 . S
O700 Eu681 2.473 . S
O701 C680 1.260 . S
O701 Eu681 2.480 . S
O702 Eu681 2.430 . S
O702 C688 1.259 . S
O703 Eu681 2.670 . S
O703 C688 1.270 . S
O703 Eu691 2.355 . S
O704 Eu681 2.394 . S
O704 C689 1.251 . S
O705 C689 1.251 . S
O705 Eu691 2.374 . S
O706 C690 1.257 . S
O706 Eu691 2.473 . S
O707 C690 1.260 . S
O707 Eu691 2.480 . S
O708 Eu691 2.430 . S
O708 C698 1.259 . S
O709 Eu681 2.355 . S
O709 Eu691 2.670 . S
O709 C698 1.270 . S
O710 Eu691 2.394 . S
O710 C699 1.251 . S
O711 Eu681 2.374 . S
O711 C699 1.251 . S
H712 C683 0.931 . S
H713 C684 0.931 . S
H714 C686 0.931 . S
H715 C687 0.931 . S
H716 C693 0.931 . S
H717 C694 0.931 . S
H718 C696 0.931 . S
H719 C697 0.931 . S
C720 Eu721 2.835 . S
C720 C722 1.500 . S
C720 O740 1.257 . S
C720 O741 1.260 . S
Eu721 C720 2.835 . S
Eu721 O740 2.473 . S
Eu721 O741 2.480 . S
Eu721 O742 2.430 . S
Eu721 O743 2.670 . S
Eu721 O744 2.394 . S
Eu721 O749 2.355 . S
Eu721 O751 2.374 . S
C722 C720 1.500 . S
C722 C723 1.377 . S
C722 C727 1.377 . S
C723 C722 1.377 . S
C723 C724 1.395 . S
C723 H752 0.931 . S
C724 C723 1.395 . S
C724 C725 1.383 . S
C724 H753 0.931 . S
C725 C724 1.383 . S
C725 C726 1.394 . S
C726 C725 1.394 . S
C726 C727 1.378 . S
C726 H754 0.931 . S
C727 C722 1.377 . S
C727 C726 1.378 . S
C727 H755 0.931 . S
C728 O742 1.259 . S
C728 O743 1.270 . S
C729 O744 1.251 . S
C729 O745 1.251 . S
C730 Eu731 2.835 . S
C730 C732 1.500 . S
C730 O746 1.257 . S
C730 O747 1.260 . S
Eu731 C730 2.835 . S
Eu731 O743 2.355 . S
Eu731 O745 2.374 . S
Eu731 O746 2.473 . S
Eu731 O747 2.480 . S
Eu731 O748 2.430 . S
Eu731 O749 2.670 . S
Eu731 O750 2.394 . S
C732 C730 1.500 . S
C732 C733 1.377 . S
C732 C737 1.377 . S
C733 C732 1.377 . S
C733 C734 1.395 . S
C733 H756 0.931 . S
C734 C733 1.395 . S
C734 C735 1.383 . S
C734 H757 0.931 . S
C735 C734 1.383 . S
C735 C736 1.394 . S
C736 C735 1.394 . S
C736 C737 1.378 . S
C736 H758 0.931 . S
C737 C732 1.377 . S
C737 C736 1.378 . S
C737 H759 0.931 . S
C738 O748 1.259 . S
C738 O749 1.270 . S
C739 O750 1.251 . S
C739 O751 1.251 . S
O740 C720 1.257 . S
O740 Eu721 2.473 . S
O741 C720 1.260 . S
O741 Eu721 2.480 . S
O742 Eu721 2.430 . S
O742 C728 1.259 . S
O743 Eu721 2.670 . S
O743 C728 1.270 . S
O743 Eu731 2.355 . S
O744 Eu721 2.394 . S
O744 C729 1.251 . S
O745 C729 1.251 . S
O745 Eu731 2.374 . S
O746 C730 1.257 . S
O746 Eu731 2.473 . S
O747 C730 1.260 . S
O747 Eu731 2.480 . S
O748 Eu731 2.430 . S
O748 C738 1.259 . S
O749 Eu721 2.355 . S
O749 Eu731 2.670 . S
O749 C738 1.270 . S
O750 Eu731 2.394 . S
O750 C739 1.251 . S
O751 Eu721 2.374 . S
O751 C739 1.251 . S
H752 C723 0.931 . S
H753 C724 0.931 . S
H754 C726 0.931 . S
H755 C727 0.931 . S
H756 C733 0.931 . S
H757 C734 0.931 . S
H758 C736 0.931 . S
H759 C737 0.931 . S
C760 Eu761 2.835 . S
C760 C762 1.500 . S
C760 O780 1.257 . S
C760 O781 1.260 . S
Eu761 C760 2.835 . S
Eu761 O780 2.473 . S
Eu761 O781 2.480 . S
Eu761 O782 2.430 . S
Eu761 O783 2.670 . S
Eu761 O784 2.394 . S
Eu761 O789 2.355 . S
Eu761 O791 2.374 . S
C762 C760 1.500 . S
C762 C763 1.377 . S
C762 C767 1.377 . S
C763 C762 1.377 . S
C763 C764 1.395 . S
C763 H792 0.931 . S
C764 C763 1.395 . S
C764 C765 1.383 . S
C764 H793 0.931 . S
C765 C764 1.383 . S
C765 C766 1.394 . S
C766 C765 1.394 . S
C766 C767 1.378 . S
C766 H794 0.931 . S
C767 C762 1.377 . S
C767 C766 1.378 . S
C767 H795 0.931 . S
C768 O782 1.259 . S
C768 O783 1.270 . S
C769 O784 1.251 . S
C769 O785 1.251 . S
C770 Eu771 2.835 . S
C770 C772 1.500 1_655 S
C770 O786 1.257 . S
C770 O787 1.260 . S
Eu771 C770 2.835 . S
Eu771 O783 2.355 . S
Eu771 O785 2.374 . S
Eu771 O786 2.473 . S
Eu771 O787 2.480 . S
Eu771 O788 2.430 . S
Eu771 O789 2.670 . S
Eu771 O790 2.394 . S
C772 C770 1.500 1_455 S
C772 C773 1.377 . S
C772 C777 1.377 . S
C773 C772 1.377 . S
C773 C774 1.395 . S
C773 H796 0.931 . S
C774 C773 1.395 . S
C774 C775 1.383 . S
C774 H797 0.931 . S
C775 C774 1.383 . S
C775 C776 1.394 . S
C776 C775 1.394 . S
C776 C777 1.378 . S
C776 H798 0.931 . S
C777 C772 1.377 . S
C777 C776 1.378 . S
C777 H799 0.931 . S
C778 O788 1.259 . S
C778 O789 1.270 . S
C779 O790 1.251 . S
C779 O791 1.251 . S
O780 C760 1.257 . S
O780 Eu761 2.473 . S
O781 C760 1.260 . S
O781 Eu761 2.480 . S
O782 Eu761 2.430 . S
O782 C768 1.259 . S
O783 Eu761 2.670 . S
O783 C768 1.270 . S
O783 Eu771 2.355 . S
O784 Eu761 2.394 . S
O784 C769 1.251 . S
O785 C769 1.251 . S
O785 Eu771 2.374 . S
O786 C770 1.257 . S
O786 Eu771 2.473 . S
O787 C770 1.260 . S
O787 Eu771 2.480 . S
O788 Eu771 2.430 . S
O788 C778 1.259 . S
O789 Eu761 2.355 . S
O789 Eu771 2.670 . S
O789 C778 1.270 . S
O790 Eu771 2.394 . S
O790 C779 1.251 . S
O791 Eu761 2.374 . S
O791 C779 1.251 . S
H792 C763 0.931 . S
H793 C764 0.931 . S
H794 C766 0.931 . S
H795 C767 0.931 . S
H796 C773 0.931 . S
H797 C774 0.931 . S
H798 C776 0.931 . S
H799 C777 0.931 . S
C800 Eu801 2.835 . S
C800 C802 1.500 . S
C800 O820 1.257 . S
C800 O821 1.260 . S
Eu801 C800 2.835 . S
Eu801 O820 2.473 . S
Eu801 O821 2.480 . S
Eu801 O822 2.430 . S
Eu801 O823 2.670 . S
Eu801 O824 2.394 . S
Eu801 O829 2.355 . S
Eu801 O831 2.374 . S
C802 C800 1.500 . S
C802 C803 1.377 . S
C802 C807 1.377 . S
C803 C802 1.377 . S
C803 C804 1.395 . S
C803 H832 0.931 . S
C804 C803 1.395 . S
C804 C805 1.383 . S
C804 H833 0.931 . S
C805 C804 1.383 . S
C805 C806 1.394 . S
C806 C805 1.394 . S
C806 C807 1.378 . S
C806 H834 0.931 . S
C807 C802 1.377 . S
C807 C806 1.378 . S
C807 H835 0.931 . S
C808 O822 1.259 . S
C808 O823 1.270 . S
C809 O824 1.251 . S
C809 O825 1.251 . S
C810 Eu811 2.835 . S
C810 C812 1.500 . S
C810 O826 1.257 . S
C810 O827 1.260 . S
Eu811 C810 2.835 . S
Eu811 O823 2.355 . S
Eu811 O825 2.374 . S
Eu811 O826 2.473 . S
Eu811 O827 2.480 . S
Eu811 O828 2.430 . S
Eu811 O829 2.670 . S
Eu811 O830 2.394 . S
C812 C810 1.500 . S
C812 C813 1.377 . S
C812 C817 1.377 . S
C813 C812 1.377 . S
C813 C814 1.395 . S
C813 H836 0.931 . S
C814 C813 1.395 . S
C814 C815 1.383 . S
C814 H837 0.931 . S
C815 C814 1.383 . S
C815 C816 1.394 . S
C816 C815 1.394 . S
C816 C817 1.378 . S
C816 H838 0.931 . S
C817 C812 1.377 . S
C817 C816 1.378 . S
C817 H839 0.931 . S
C818 O828 1.259 . S
C818 O829 1.270 . S
C819 O830 1.251 . S
C819 O831 1.251 . S
O820 C800 1.257 . S
O820 Eu801 2.473 . S
O821 C800 1.260 . S
O821 Eu801 2.480 . S
O822 Eu801 2.430 . S
O822 C808 1.259 . S
O823 Eu801 2.670 . S
O823 C808 1.270 . S
O823 Eu811 2.355 . S
O824 Eu801 2.394 . S
O824 C809 1.251 . S
O825 C809 1.251 . S
O825 Eu811 2.374 . S
O826 C810 1.257 . S
O826 Eu811 2.473 . S
O827 C810 1.260 . S
O827 Eu811 2.480 . S
O828 Eu811 2.430 . S
O828 C818 1.259 . S
O829 Eu801 2.355 . S
O829 Eu811 2.670 . S
O829 C818 1.270 . S
O830 Eu811 2.394 . S
O830 C819 1.251 . S
O831 Eu801 2.374 . S
O831 C819 1.251 . S
H832 C803 0.931 . S
H833 C804 0.931 . S
H834 C806 0.931 . S
H835 C807 0.931 . S
H836 C813 0.931 . S
H837 C814 0.931 . S
H838 C816 0.931 . S
H839 C817 0.931 . S
C840 Eu841 2.835 . S
C840 C842 1.500 1_455 S
C840 O860 1.257 . S
C840 O861 1.260 . S
Eu841 C840 2.835 . S
Eu841 O860 2.473 . S
Eu841 O861 2.480 . S
Eu841 O862 2.430 . S
Eu841 O863 2.670 . S
Eu841 O864 2.394 . S
Eu841 O869 2.355 . S
Eu841 O871 2.374 . S
C842 C840 1.500 1_655 S
C842 C843 1.377 . S
C842 C847 1.377 . S
C843 C842 1.377 . S
C843 C844 1.395 . S
C843 H872 0.931 . S
C844 C843 1.395 . S
C844 C845 1.383 . S
C844 H873 0.931 . S
C845 C844 1.383 . S
C845 C846 1.394 . S
C846 C845 1.394 . S
C846 C847 1.378 . S
C846 H874 0.931 . S
C847 C842 1.377 . S
C847 C846 1.378 . S
C847 H875 0.931 . S
C848 O862 1.259 . S
C848 O863 1.270 . S
C849 O864 1.251 . S
C849 O865 1.251 . S
C850 Eu851 2.835 . S
C850 C852 1.500 . S
C850 O866 1.257 . S
C850 O867 1.260 . S
Eu851 C850 2.835 . S
Eu851 O863 2.355 . S
Eu851 O865 2.374 . S
Eu851 O866 2.473 . S
Eu851 O867 2.480 . S
Eu851 O868 2.430 . S
Eu851 O869 2.670 . S
Eu851 O870 2.394 . S
C852 C850 1.500 . S
C852 C853 1.377 . S
C852 C857 1.377 . S
C853 C852 1.377 . S
C853 C854 1.395 . S
C853 H876 0.931 . S
C854 C853 1.395 . S
C854 C855 1.383 . S
C854 H877 0.931 . S
C855 C854 1.383 . S
C855 C856 1.394 . S
C856 C855 1.394 . S
C856 C857 1.378 . S
C856 H878 0.931 . S
C857 C852 1.377 . S
C857 C856 1.378 . S
C857 H879 0.931 . S
C858 O868 1.259 . S
C858 O869 1.270 . S
C859 O870 1.251 . S
C859 O871 1.251 . S
O860 C840 1.257 . S
O860 Eu841 2.473 . S
O861 C840 1.260 . S
O861 Eu841 2.480 . S
O862 Eu841 2.430 . S
O862 C848 1.259 . S
O863 Eu841 2.670 . S
O863 C848 1.270 . S
O863 Eu851 2.355 . S
O864 Eu841 2.394 . S
O864 C849 1.251 . S
O865 C849 1.251 . S
O865 Eu851 2.374 . S
O866 C850 1.257 . S
O866 Eu851 2.473 . S
O867 C850 1.260 . S
O867 Eu851 2.480 . S
O868 Eu851 2.430 . S
O868 C858 1.259 . S
O869 Eu841 2.355 . S
O869 Eu851 2.670 . S
O869 C858 1.270 . S
O870 Eu851 2.394 . S
O870 C859 1.251 . S
O871 Eu841 2.374 . S
O871 C859 1.251 . S
H872 C843 0.931 . S
H873 C844 0.931 . S
H874 C846 0.931 . S
H875 C847 0.931 . S
H876 C853 0.931 . S
H877 C854 0.931 . S
H878 C856 0.931 . S
H879 C857 0.931 . S
C880 Eu881 2.835 . S
C880 C882 1.500 . S
C880 O900 1.257 . S
C880 O901 1.260 . S
Eu881 C880 2.835 . S
Eu881 O900 2.473 . S
Eu881 O901 2.480 . S
Eu881 O902 2.430 . S
Eu881 O903 2.670 . S
Eu881 O904 2.394 . S
Eu881 O909 2.355 . S
Eu881 O911 2.374 . S
C882 C880 1.500 . S
C882 C883 1.377 . S
C882 C887 1.377 . S
C883 C882 1.377 . S
C883 C884 1.395 . S
C883 H912 0.931 . S
C884 C883 1.395 . S
C884 C885 1.383 . S
C884 H913 0.931 . S
C885 C884 1.383 . S
C885 C886 1.394 . S
C886 C885 1.394 . S
C886 C887 1.378 . S
C886 H914 0.931 . S
C887 C882 1.377 . S
C887 C886 1.378 . S
C887 H915 0.931 . S
C888 O902 1.259 . S
C888 O903 1.270 . S
C889 O904 1.251 . S
C889 O905 1.251 . S
C890 Eu891 2.835 . S
C890 C892 1.500 . S
C890 O906 1.257 . S
C890 O907 1.260 . S
Eu891 C890 2.835 . S
Eu891 O903 2.355 . S
Eu891 O905 2.374 . S
Eu891 O906 2.473 . S
Eu891 O907 2.480 . S
Eu891 O908 2.430 . S
Eu891 O909 2.670 . S
Eu891 O910 2.394 . S
C892 C890 1.500 . S
C892 C893 1.377 . S
C892 C897 1.377 . S
C893 C892 1.377 . S
C893 C894 1.395 . S
C893 H916 0.931 . S
C894 C893 1.395 . S
C894 C895 1.383 . S
C894 H917 0.931 . S
C895 C894 1.383 . S
C895 C896 1.394 . S
C896 C895 1.394 . S
C896 C897 1.378 . S
C896 H918 0.931 . S
C897 C892 1.377 . S
C897 C896 1.378 . S
C897 H919 0.931 . S
C898 O908 1.259 . S
C898 O909 1.270 . S
C899 O910 1.251 . S
C899 O911 1.251 . S
O900 C880 1.257 . S
O900 Eu881 2.473 . S
O901 C880 1.260 . S
O901 Eu881 2.480 . S
O902 Eu881 2.430 . S
O902 C888 1.259 . S
O903 Eu881 2.670 . S
O903 C888 1.270 . S
O903 Eu891 2.355 . S
O904 Eu881 2.394 . S
O904 C889 1.251 . S
O905 C889 1.251 . S
O905 Eu891 2.374 . S
O906 C890 1.257 . S
O906 Eu891 2.473 . S
O907 C890 1.260 . S
O907 Eu891 2.480 . S
O908 Eu891 2.430 . S
O908 C898 1.259 . S
O909 Eu881 2.355 . S
O909 Eu891 2.670 . S
O909 C898 1.270 . S
O910 Eu891 2.394 . S
O910 C899 1.251 . S
O911 Eu881 2.374 . S
O911 C899 1.251 . S
H912 C883 0.931 . S
H913 C884 0.931 . S
H914 C886 0.931 . S
H915 C887 0.931 . S
H916 C893 0.931 . S
H917 C894 0.931 . S
H918 C896 0.931 . S
H919 C897 0.931 . S
C920 Eu921 2.835 . S
C920 C922 1.500 1_455 S
C920 O940 1.257 . S
C920 O941 1.260 . S
Eu921 C920 2.835 . S
Eu921 O940 2.473 . S
Eu921 O941 2.480 . S
Eu921 O942 2.430 . S
Eu921 O943 2.670 . S
Eu921 O944 2.394 . S
Eu921 O949 2.355 . S
Eu921 O951 2.374 . S
C922 C920 1.500 1_655 S
C922 C923 1.377 . S
C922 C927 1.377 . S
C923 C922 1.377 . S
C923 C924 1.395 . S
C923 H952 0.931 . S
C924 C923 1.395 . S
C924 C925 1.383 . S
C924 H953 0.931 . S
C925 C924 1.383 . S
C925 C926 1.394 . S
C926 C925 1.394 . S
C926 C927 1.378 . S
C926 H954 0.931 . S
C927 C922 1.377 . S
C927 C926 1.378 . S
C927 H955 0.931 . S
C928 O942 1.259 . S
C928 O943 1.270 . S
C929 O944 1.251 . S
C929 O945 1.251 . S
C930 Eu931 2.835 . S
C930 C932 1.500 . S
C930 O946 1.257 . S
C930 O947 1.260 . S
Eu931 C930 2.835 . S
Eu931 O943 2.355 . S
Eu931 O945 2.374 . S
Eu931 O946 2.473 . S
Eu931 O947 2.480 . S
Eu931 O948 2.430 . S
Eu931 O949 2.670 . S
Eu931 O950 2.394 . S
C932 C930 1.500 . S
C932 C933 1.377 . S
C932 C937 1.377 . S
C933 C932 1.377 . S
C933 C934 1.395 . S
C933 H956 0.931 . S
C934 C933 1.395 . S
C934 C935 1.383 . S
C934 H957 0.931 . S
C935 C934 1.383 . S
C935 C936 1.394 . S
C936 C935 1.394 . S
C936 C937 1.378 . S
C936 H958 0.931 . S
C937 C932 1.377 . S
C937 C936 1.378 . S
C937 H959 0.931 . S
C938 O948 1.259 . S
C938 O949 1.270 . S
C939 O950 1.251 . S
C939 O951 1.251 . S
O940 C920 1.257 . S
O940 Eu921 2.473 . S
O941 C920 1.260 . S
O941 Eu921 2.480 . S
O942 Eu921 2.430 . S
O942 C928 1.259 . S
O943 Eu921 2.670 . S
O943 C928 1.270 . S
O943 Eu931 2.355 . S
O944 Eu921 2.394 . S
O944 C929 1.251 . S
O945 C929 1.251 . S
O945 Eu931 2.374 . S
O946 C930 1.257 . S
O946 Eu931 2.473 . S
O947 C930 1.260 . S
O947 Eu931 2.480 . S
O948 Eu931 2.430 . S
O948 C938 1.259 . S
O949 Eu921 2.355 . S
O949 Eu931 2.670 . S
O949 C938 1.270 . S
O950 Eu931 2.394 . S
O950 C939 1.251 . S
O951 Eu921 2.374 . S
O951 C939 1.251 . S
H952 C923 0.931 . S
H953 C924 0.931 . S
H954 C926 0.931 . S
H955 C927 0.931 . S
H956 C933 0.931 . S
H957 C934 0.931 . S
H958 C936 0.931 . S
H959 C937 0.931 . S
C960 Eu961 2.835 . S
C960 C962 1.500 . S
C960 O980 1.257 . S
C960 O981 1.260 . S
Eu961 C960 2.835 . S
Eu961 O980 2.473 . S
Eu961 O981 2.480 . S
Eu961 O982 2.430 . S
Eu961 O983 2.670 . S
Eu961 O984 2.394 1_565 S
Eu961 O989 2.355 . S
Eu961 O991 2.374 . S
C962 C960 1.500 . S
C962 C963 1.377 . S
C962 C967 1.377 . S
C963 C962 1.377 . S
C963 C964 1.395 . S
C963 H992 0.931 . S
C964 C963 1.395 . S
C964 C965 1.383 . S
C964 H993 0.931 . S
C965 C964 1.383 . S
C965 C966 1.394 . S
C966 C965 1.394 . S
C966 C967 1.378 . S
C966 H994 0.931 . S
C967 C962 1.377 . S
C967 C966 1.378 . S
C967 H995 0.931 . S
C968 O982 1.259 . S
C968 O983 1.270 . S
C969 O984 1.251 . S
C969 O985 1.251 . S
C970 Eu971 2.835 . S
C970 C972 1.500 . S
C970 O986 1.257 . S
C970 O987 1.260 . S
Eu971 C970 2.835 . S
Eu971 O983 2.355 1_545 S
Eu971 O985 2.374 . S
Eu971 O986 2.473 . S
Eu971 O987 2.480 . S
Eu971 O988 2.430 . S
Eu971 O989 2.670 1_545 S
Eu971 O990 2.394 1_545 S
C972 C970 1.500 . S
C972 C973 1.377 . S
C972 C977 1.377 1_545 S
C973 C972 1.377 . S
C973 C974 1.395 . S
C973 H996 0.931 . S
C974 C973 1.395 . S
C974 C975 1.383 1_545 S
C974 H997 0.931 . S
C975 C974 1.383 1_565 S
C975 C976 1.394 . S
C976 C975 1.394 . S
C976 C977 1.378 . S
C976 H998 0.931 . S
C977 C972 1.377 1_565 S
C977 C976 1.378 . S
C977 H999 0.931 . S
C978 O988 1.259 1_565 S
C978 O989 1.270 . S
C979 O990 1.251 . S
C979 O991 1.251 . S
O980 C960 1.257 . S
O980 Eu961 2.473 . S
O981 C960 1.260 . S
O981 Eu961 2.480 . S
O982 Eu961 2.430 . S
O982 C968 1.259 . S
O983 Eu961 2.670 . S
O983 C968 1.270 . S
O983 Eu971 2.355 1_565 S
O984 Eu961 2.394 1_545 S
O984 C969 1.251 . S
O985 C969 1.251 . S
O985 Eu971 2.374 . S
O986 C970 1.257 . S
O986 Eu971 2.473 . S
O987 C970 1.260 . S
O987 Eu971 2.480 . S
O988 Eu971 2.430 . S
O988 C978 1.259 1_545 S
O989 Eu961 2.355 . S
O989 Eu971 2.670 1_565 S
O989 C978 1.270 . S
O990 Eu971 2.394 1_565 S
O990 C979 1.251 . S
O991 Eu961 2.374 . S
O991 C979 1.251 . S
H992 C963 0.931 . S
H993 C964 0.931 . S
H994 C966 0.931 . S
H995 C967 0.931 . S
H996 C973 0.931 . S
H997 C974 0.931 . S
H998 C976 0.931 . S
H999 C977 0.931 . S
C1000 Eu1001 2.835 . S
C1000 C1002 1.500 . S
C1000 O1020 1.257 . S
C1000 O1021 1.260 . S
Eu1001 C1000 2.835 . S
Eu1001 O1020 2.473 . S
Eu1001 O1021 2.480 . S
Eu1001 O1022 2.430 . S
Eu1001 O1023 2.670 . S
Eu1001 O1024 2.394 . S
Eu1001 O1029 2.355 . S
Eu1001 O1031 2.374 . S
C1002 C1000 1.500 . S
C1002 C1003 1.377 . S
C1002 C1007 1.377 . S
C1003 C1002 1.377 . S
C1003 C1004 1.395 . S
C1003 H1032 0.931 . S
C1004 C1003 1.395 . S
C1004 C1005 1.383 . S
C1004 H1033 0.931 . S
C1005 C1004 1.383 . S
C1005 C1006 1.394 . S
C1006 C1005 1.394 . S
C1006 C1007 1.378 . S
C1006 H1034 0.931 . S
C1007 C1002 1.377 . S
C1007 C1006 1.378 . S
C1007 H1035 0.931 . S
C1008 O1022 1.259 . S
C1008 O1023 1.270 . S
C1009 O1024 1.251 . S
C1009 O1025 1.251 . S
C1010 Eu1011 2.835 . S
C1010 C1012 1.500 1_655 S
C1010 O1026 1.257 . S
C1010 O1027 1.260 . S
Eu1011 C1010 2.835 . S
Eu1011 O1023 2.355 . S
Eu1011 O1025 2.374 . S
Eu1011 O1026 2.473 . S
Eu1011 O1027 2.480 . S
Eu1011 O1028 2.430 . S
Eu1011 O1029 2.670 . S
Eu1011 O1030 2.394 . S
C1012 C1010 1.500 1_455 S
C1012 C1013 1.377 . S
C1012 C1017 1.377 . S
C1013 C1012 1.377 . S
C1013 C1014 1.395 . S
C1013 H1036 0.931 . S
C1014 C1013 1.395 . S
C1014 C1015 1.383 . S
C1014 H1037 0.931 . S
C1015 C1014 1.383 . S
C1015 C1016 1.394 . S
C1016 C1015 1.394 . S
C1016 C1017 1.378 . S
C1016 H1038 0.931 . S
C1017 C1012 1.377 . S
C1017 C1016 1.378 . S
C1017 H1039 0.931 . S
C1018 O1028 1.259 . S
C1018 O1029 1.270 . S
C1019 O1030 1.251 . S
C1019 O1031 1.251 . S
O1020 C1000 1.257 . S
O1020 Eu1001 2.473 . S
O1021 C1000 1.260 . S
O1021 Eu1001 2.480 . S
O1022 Eu1001 2.430 . S
O1022 C1008 1.259 . S
O1023 Eu1001 2.670 . S
O1023 C1008 1.270 . S
O1023 Eu1011 2.355 . S
O1024 Eu1001 2.394 . S
O1024 C1009 1.251 . S
O1025 C1009 1.251 . S
O1025 Eu1011 2.374 . S
O1026 C1010 1.257 . S
O1026 Eu1011 2.473 . S
O1027 C1010 1.260 . S
O1027 Eu1011 2.480 . S
O1028 Eu1011 2.430 . S
O1028 C1018 1.259 . S
O1029 Eu1001 2.355 . S
O1029 Eu1011 2.670 . S
O1029 C1018 1.270 . S
O1030 Eu1011 2.394 . S
O1030 C1019 1.251 . S
O1031 Eu1001 2.374 . S
O1031 C1019 1.251 . S
H1032 C1003 0.931 . S
H1033 C1004 0.931 . S
H1034 C1006 0.931 . S
H1035 C1007 0.931 . S
H1036 C1013 0.931 . S
H1037 C1014 0.931 . S
H1038 C1016 0.931 . S
H1039 C1017 0.931 . S
C1040 Eu1041 2.835 . S
C1040 C1042 1.500 . S
C1040 O1060 1.257 . S
C1040 O1061 1.260 . S
Eu1041 C1040 2.835 . S
Eu1041 O1060 2.473 . S
Eu1041 O1061 2.480 . S
Eu1041 O1062 2.430 . S
Eu1041 O1063 2.670 . S
Eu1041 O1064 2.394 . S
Eu1041 O1069 2.355 . S
Eu1041 O1071 2.374 . S
C1042 C1040 1.500 . S
C1042 C1043 1.377 . S
C1042 C1047 1.377 . S
C1043 C1042 1.377 . S
C1043 C1044 1.395 . S
C1043 H1072 0.931 . S
C1044 C1043 1.395 . S
C1044 C1045 1.383 . S
C1044 H1073 0.931 . S
C1045 C1044 1.383 . S
C1045 C1046 1.394 . S
C1046 C1045 1.394 . S
C1046 C1047 1.378 . S
C1046 H1074 0.931 . S
C1047 C1042 1.377 . S
C1047 C1046 1.378 . S
C1047 H1075 0.931 . S
C1048 O1062 1.259 . S
C1048 O1063 1.270 . S
C1049 O1064 1.251 . S
C1049 O1065 1.251 . S
C1050 Eu1051 2.835 . S
C1050 C1052 1.500 . S
C1050 O1066 1.257 . S
C1050 O1067 1.260 . S
Eu1051 C1050 2.835 . S
Eu1051 O1063 2.355 . S
Eu1051 O1065 2.374 . S
Eu1051 O1066 2.473 . S
Eu1051 O1067 2.480 . S
Eu1051 O1068 2.430 . S
Eu1051 O1069 2.670 . S
Eu1051 O1070 2.394 . S
C1052 C1050 1.500 . S
C1052 C1053 1.377 . S
C1052 C1057 1.377 . S
C1053 C1052 1.377 . S
C1053 C1054 1.395 . S
C1053 H1076 0.931 . S
C1054 C1053 1.395 . S
C1054 C1055 1.383 . S
C1054 H1077 0.931 . S
C1055 C1054 1.383 . S
C1055 C1056 1.394 . S
C1056 C1055 1.394 . S
C1056 C1057 1.378 . S
C1056 H1078 0.931 . S
C1057 C1052 1.377 . S
C1057 C1056 1.378 . S
C1057 H1079 0.931 . S
C1058 O1068 1.259 . S
C1058 O1069 1.270 . S
C1059 O1070 1.251 . S
C1059 O1071 1.251 . S
O1060 C1040 1.257 . S
O1060 Eu1041 2.473 . S
O1061 C1040 1.260 . S
O1061 Eu1041 2.480 . S
O1062 Eu1041 2.430 . S
O1062 C1048 1.259 . S
O1063 Eu1041 2.670 . S
O1063 C1048 1.270 . S
O1063 Eu1051 2.355 . S
O1064 Eu1041 2.394 . S
O1064 C1049 1.251 . S
O1065 C1049 1.251 . S
O1065 Eu1051 2.374 . S
O1066 C1050 1.257 . S
O1066 Eu1051 2.473 . S
O1067 C1050 1.260 . S
O1067 Eu1051 2.480 . S
O1068 Eu1051 2.430 . S
O1068 C1058 1.259 . S
O1069 Eu1041 2.355 . S
O1069 Eu1051 2.670 . S
O1069 C1058 1.270 . S
O1070 Eu1051 2.394 . S
O1070 C1059 1.251 . S
O1071 Eu1041 2.374 . S
O1071 C1059 1.251 . S
H1072 C1043 0.931 . S
H1073 C1044 0.931 . S
H1074 C1046 0.931 . S
H1075 C1047 0.931 . S
H1076 C1053 0.931 . S
H1077 C1054 0.931 . S
H1078 C1056 0.931 . S
H1079 C1057 0.931 . S
C1080 Eu1081 2.835 . S
C1080 C1082 1.500 . S
C1080 O1100 1.257 . S
C1080 O1101 1.260 . S
Eu1081 C1080 2.835 . S
Eu1081 O1100 2.473 . S
Eu1081 O1101 2.480 . S
Eu1081 O1102 2.430 . S
Eu1081 O1103 2.670 . S
Eu1081 O1104 2.394 1_565 S
Eu1081 O1109 2.355 . S
Eu1081 O1111 2.374 . S
C1082 C1080 1.500 . S
C1082 C1083 1.377 . S
C1082 C1087 1.377 . S
C1083 C1082 1.377 . S
C1083 C1084 1.395 . S
C1083 H1112 0.931 . S
C1084 C1083 1.395 . S
C1084 C1085 1.383 . S
C1084 H1113 0.931 . S
C1085 C1084 1.383 . S
C1085 C1086 1.394 . S
C1086 C1085 1.394 . S
C1086 C1087 1.378 . S
C1086 H1114 0.931 . S
C1087 C1082 1.377 . S
C1087 C1086 1.378 . S
C1087 H1115 0.931 . S
C1088 O1102 1.259 . S
C1088 O1103 1.270 . S
C1089 O1104 1.251 . S
C1089 O1105 1.251 . S
C1090 Eu1091 2.835 . S
C1090 C1092 1.500 1_655 S
C1090 O1106 1.257 . S
C1090 O1107 1.260 . S
Eu1091 C1090 2.835 . S
Eu1091 O1103 2.355 1_545 S
Eu1091 O1105 2.374 . S
Eu1091 O1106 2.473 . S
Eu1091 O1107 2.480 . S
Eu1091 O1108 2.430 . S
Eu1091 O1109 2.670 1_545 S
Eu1091 O1110 2.394 1_545 S
C1092 C1090 1.500 1_455 S
C1092 C1093 1.377 . S
C1092 C1097 1.377 1_545 S
C1093 C1092 1.377 . S
C1093 C1094 1.395 . S
C1093 H1116 0.931 . S
C1094 C1093 1.395 . S
C1094 C1095 1.383 1_545 S
C1094 H1117 0.931 . S
C1095 C1094 1.383 1_565 S
C1095 C1096 1.394 . S
C1096 C1095 1.394 . S
C1096 C1097 1.378 . S
C1096 H1118 0.931 . S
C1097 C1092 1.377 1_565 S
C1097 C1096 1.378 . S
C1097 H1119 0.931 . S
C1098 O1108 1.259 1_565 S
C1098 O1109 1.270 . S
C1099 O1110 1.251 . S
C1099 O1111 1.251 . S
O1100 C1080 1.257 . S
O1100 Eu1081 2.473 . S
O1101 C1080 1.260 . S
O1101 Eu1081 2.480 . S
O1102 Eu1081 2.430 . S
O1102 C1088 1.259 . S
O1103 Eu1081 2.670 . S
O1103 C1088 1.270 . S
O1103 Eu1091 2.355 1_565 S
O1104 Eu1081 2.394 1_545 S
O1104 C1089 1.251 . S
O1105 C1089 1.251 . S
O1105 Eu1091 2.374 . S
O1106 C1090 1.257 . S
O1106 Eu1091 2.473 . S
O1107 C1090 1.260 . S
O1107 Eu1091 2.480 . S
O1108 Eu1091 2.430 . S
O1108 C1098 1.259 1_545 S
O1109 Eu1081 2.355 . S
O1109 Eu1091 2.670 1_565 S
O1109 C1098 1.270 . S
O1110 Eu1091 2.394 1_565 S
O1110 C1099 1.251 . S
O1111 Eu1081 2.374 . S
O1111 C1099 1.251 . S
H1112 C1083 0.931 . S
H1113 C1084 0.931 . S
H1114 C1086 0.931 . S
H1115 C1087 0.931 . S
H1116 C1093 0.931 . S
H1117 C1094 0.931 . S
H1118 C1096 0.931 . S
H1119 C1097 0.931 . S
C1120 Eu1121 2.835 . S
C1120 C1122 1.500 . S
C1120 O1140 1.257 . S
C1120 O1141 1.260 . S
Eu1121 C1120 2.835 . S
Eu1121 O1140 2.473 . S
Eu1121 O1141 2.480 . S
Eu1121 O1142 2.430 . S
Eu1121 O1143 2.670 1_565 S
Eu1121 O1144 2.394 1_565 S
Eu1121 O1149 2.355 1_565 S
Eu1121 O1151 2.374 . S
C1122 C1120 1.500 . S
C1122 C1123 1.377 . S
C1122 C1127 1.377 1_565 S
C1123 C1122 1.377 . S
C1123 C1124 1.395 . S
C1123 H1152 0.931 . S
C1124 C1123 1.395 . S
C1124 C1125 1.383 1_565 S
C1124 H1153 0.931 . S
C1125 C1124 1.383 1_545 S
C1125 C1126 1.394 . S
C1126 C1125 1.394 . S
C1126 C1127 1.378 . S
C1126 H1154 0.931 . S
C1127 C1122 1.377 1_545 S
C1127 C1126 1.378 . S
C1127 H1155 0.931 . S
C1128 O1142 1.259 1_545 S
C1128 O1143 1.270 . S
C1129 O1144 1.251 . S
C1129 O1145 1.251 . S
C1130 Eu1131 2.835 . S
C1130 C1132 1.500 . S
C1130 O1146 1.257 . S
C1130 O1147 1.260 . S
Eu1131 C1130 2.835 . S
Eu1131 O1143 2.355 . S
Eu1131 O1145 2.374 . S
Eu1131 O1146 2.473 . S
Eu1131 O1147 2.480 . S
Eu1131 O1148 2.430 . S
Eu1131 O1149 2.670 . S
Eu1131 O1150 2.394 1_545 S
C1132 C1130 1.500 . S
C1132 C1133 1.377 . S
C1132 C1137 1.377 . S
C1133 C1132 1.377 . S
C1133 C1134 1.395 . S
C1133 H1156 0.931 . S
C1134 C1133 1.395 . S
C1134 C1135 1.383 . S
C1134 H1157 0.931 . S
C1135 C1134 1.383 . S
C1135 C1136 1.394 . S
C1136 C1135 1.394 . S
C1136 C1137 1.378 . S
C1136 H1158 0.931 . S
C1137 C1132 1.377 . S
C1137 C1136 1.378 . S
C1137 H1159 0.931 . S
C1138 O1148 1.259 . S
C1138 O1149 1.270 . S
C1139 O1150 1.251 . S
C1139 O1151 1.251 . S
O1140 C1120 1.257 . S
O1140 Eu1121 2.473 . S
O1141 C1120 1.260 . S
O1141 Eu1121 2.480 . S
O1142 Eu1121 2.430 . S
O1142 C1128 1.259 1_565 S
O1143 Eu1121 2.670 1_545 S
O1143 C1128 1.270 . S
O1143 Eu1131 2.355 . S
O1144 Eu1121 2.394 1_545 S
O1144 C1129 1.251 . S
O1145 C1129 1.251 . S
O1145 Eu1131 2.374 . S
O1146 C1130 1.257 . S
O1146 Eu1131 2.473 . S
O1147 C1130 1.260 . S
O1147 Eu1131 2.480 . S
O1148 Eu1131 2.430 . S
O1148 C1138 1.259 . S
O1149 Eu1121 2.355 1_545 S
O1149 Eu1131 2.670 . S
O1149 C1138 1.270 . S
O1150 Eu1131 2.394 1_565 S
O1150 C1139 1.251 . S
O1151 Eu1121 2.374 . S
O1151 C1139 1.251 . S
H1152 C1123 0.931 . S
H1153 C1124 0.931 . S
H1154 C1126 0.931 . S
H1155 C1127 0.931 . S
H1156 C1133 0.931 . S
H1157 C1134 0.931 . S
H1158 C1136 0.931 . S
H1159 C1137 0.931 . S
C1160 Eu1161 2.835 . S
C1160 C1162 1.500 1_455 S
C1160 O1180 1.257 . S
C1160 O1181 1.260 . S
Eu1161 C1160 2.835 . S
Eu1161 O1180 2.473 . S
Eu1161 O1181 2.480 . S
Eu1161 O1182 2.430 . S
Eu1161 O1183 2.670 . S
Eu1161 O1184 2.394 . S
Eu1161 O1189 2.355 . S
Eu1161 O1191 2.374 . S
C1162 C1160 1.500 1_655 S
C1162 C1163 1.377 . S
C1162 C1167 1.377 . S
C1163 C1162 1.377 . S
C1163 C1164 1.395 . S
C1163 H1192 0.931 . S
C1164 C1163 1.395 . S
C1164 C1165 1.383 . S
C1164 H1193 0.931 . S
C1165 C1164 1.383 . S
C1165 C1166 1.394 . S
C1166 C1165 1.394 . S
C1166 C1167 1.378 . S
C1166 H1194 0.931 . S
C1167 C1162 1.377 . S
C1167 C1166 1.378 . S
C1167 H1195 0.931 . S
C1168 O1182 1.259 . S
C1168 O1183 1.270 . S
C1169 O1184 1.251 . S
C1169 O1185 1.251 . S
C1170 Eu1171 2.835 . S
C1170 C1172 1.500 . S
C1170 O1186 1.257 . S
C1170 O1187 1.260 . S
Eu1171 C1170 2.835 . S
Eu1171 O1183 2.355 . S
Eu1171 O1185 2.374 . S
Eu1171 O1186 2.473 . S
Eu1171 O1187 2.480 . S
Eu1171 O1188 2.430 . S
Eu1171 O1189 2.670 . S
Eu1171 O1190 2.394 . S
C1172 C1170 1.500 . S
C1172 C1173 1.377 . S
C1172 C1177 1.377 . S
C1173 C1172 1.377 . S
C1173 C1174 1.395 . S
C1173 H1196 0.931 . S
C1174 C1173 1.395 . S
C1174 C1175 1.383 . S
C1174 H1197 0.931 . S
C1175 C1174 1.383 . S
C1175 C1176 1.394 . S
C1176 C1175 1.394 . S
C1176 C1177 1.378 . S
C1176 H1198 0.931 . S
C1177 C1172 1.377 . S
C1177 C1176 1.378 . S
C1177 H1199 0.931 . S
C1178 O1188 1.259 . S
C1178 O1189 1.270 . S
C1179 O1190 1.251 . S
C1179 O1191 1.251 . S
O1180 C1160 1.257 . S
O1180 Eu1161 2.473 . S
O1181 C1160 1.260 . S
O1181 Eu1161 2.480 . S
O1182 Eu1161 2.430 . S
O1182 C1168 1.259 . S
O1183 Eu1161 2.670 . S
O1183 C1168 1.270 . S
O1183 Eu1171 2.355 . S
O1184 Eu1161 2.394 . S
O1184 C1169 1.251 . S
O1185 C1169 1.251 . S
O1185 Eu1171 2.374 . S
O1186 C1170 1.257 . S
O1186 Eu1171 2.473 . S
O1187 C1170 1.260 . S
O1187 Eu1171 2.480 . S
O1188 Eu1171 2.430 . S
O1188 C1178 1.259 . S
O1189 Eu1161 2.355 . S
O1189 Eu1171 2.670 . S
O1189 C1178 1.270 . S
O1190 Eu1171 2.394 . S
O1190 C1179 1.251 . S
O1191 Eu1161 2.374 . S
O1191 C1179 1.251 . S
H1192 C1163 0.931 . S
H1193 C1164 0.931 . S
H1194 C1166 0.931 . S
H1195 C1167 0.931 . S
H1196 C1173 0.931 . S
H1197 C1174 0.931 . S
H1198 C1176 0.931 . S
H1199 C1177 0.931 . S
C1200 Eu1201 2.835 . S
C1200 C1202 1.500 . S
C1200 O1220 1.257 . S
C1200 O1221 1.260 . S
Eu1201 C1200 2.835 . S
Eu1201 O1220 2.473 . S
Eu1201 O1221 2.480 . S
Eu1201 O1222 2.430 . S
Eu1201 O1223 2.670 . S
Eu1201 O1224 2.394 . S
Eu1201 O1229 2.355 . S
Eu1201 O1231 2.374 . S
C1202 C1200 1.500 . S
C1202 C1203 1.377 . S
C1202 C1207 1.377 . S
C1203 C1202 1.377 . S
C1203 C1204 1.395 . S
C1203 H1232 0.931 . S
C1204 C1203 1.395 . S
C1204 C1205 1.383 . S
C1204 H1233 0.931 . S
C1205 C1204 1.383 . S
C1205 C1206 1.394 . S
C1206 C1205 1.394 . S
C1206 C1207 1.378 . S
C1206 H1234 0.931 . S
C1207 C1202 1.377 . S
C1207 C1206 1.378 . S
C1207 H1235 0.931 . S
C1208 O1222 1.259 . S
C1208 O1223 1.270 . S
C1209 O1224 1.251 . S
C1209 O1225 1.251 . S
C1210 Eu1211 2.835 . S
C1210 C1212 1.500 . S
C1210 O1226 1.257 . S
C1210 O1227 1.260 . S
Eu1211 C1210 2.835 . S
Eu1211 O1223 2.355 . S
Eu1211 O1225 2.374 . S
Eu1211 O1226 2.473 . S
Eu1211 O1227 2.480 . S
Eu1211 O1228 2.430 . S
Eu1211 O1229 2.670 . S
Eu1211 O1230 2.394 . S
C1212 C1210 1.500 . S
C1212 C1213 1.377 . S
C1212 C1217 1.377 . S
C1213 C1212 1.377 . S
C1213 C1214 1.395 . S
C1213 H1236 0.931 . S
C1214 C1213 1.395 . S
C1214 C1215 1.383 . S
C1214 H1237 0.931 . S
C1215 C1214 1.383 . S
C1215 C1216 1.394 . S
C1216 C1215 1.394 . S
C1216 C1217 1.378 . S
C1216 H1238 0.931 . S
C1217 C1212 1.377 . S
C1217 C1216 1.378 . S
C1217 H1239 0.931 . S
C1218 O1228 1.259 . S
C1218 O1229 1.270 . S
C1219 O1230 1.251 . S
C1219 O1231 1.251 . S
O1220 C1200 1.257 . S
O1220 Eu1201 2.473 . S
O1221 C1200 1.260 . S
O1221 Eu1201 2.480 . S
O1222 Eu1201 2.430 . S
O1222 C1208 1.259 . S
O1223 Eu1201 2.670 . S
O1223 C1208 1.270 . S
O1223 Eu1211 2.355 . S
O1224 Eu1201 2.394 . S
O1224 C1209 1.251 . S
O1225 C1209 1.251 . S
O1225 Eu1211 2.374 . S
O1226 C1210 1.257 . S
O1226 Eu1211 2.473 . S
O1227 C1210 1.260 . S
O1227 Eu1211 2.480 . S
O1228 Eu1211 2.430 . S
O1228 C1218 1.259 . S
O1229 Eu1201 2.355 . S
O1229 Eu1211 2.670 . S
O1229 C1218 1.270 . S
O1230 Eu1211 2.394 . S
O1230 C1219 1.251 . S
O1231 Eu1201 2.374 . S
O1231 C1219 1.251 . S
H1232 C1203 0.931 . S
H1233 C1204 0.931 . S
H1234 C1206 0.931 . S
H1235 C1207 0.931 . S
H1236 C1213 0.931 . S
H1237 C1214 0.931 . S
H1238 C1216 0.931 . S
H1239 C1217 0.931 . S
C1240 Eu1241 2.835 . S
C1240 C1242 1.500 1_455 S
C1240 O1260 1.257 . S
C1240 O1261 1.260 . S
Eu1241 C1240 2.835 . S
Eu1241 O1260 2.473 . S
Eu1241 O1261 2.480 . S
Eu1241 O1262 2.430 . S
Eu1241 O1263 2.670 1_565 S
Eu1241 O1264 2.394 1_565 S
Eu1241 O1269 2.355 1_565 S
Eu1241 O1271 2.374 . S
C1242 C1240 1.500 1_655 S
C1242 C1243 1.377 . S
C1242 C1247 1.377 1_565 S
C1243 C1242 1.377 . S
C1243 C1244 1.395 . S
C1243 H1272 0.931 . S
C1244 C1243 1.395 . S
C1244 C1245 1.383 1_565 S
C1244 H1273 0.931 . S
C1245 C1244 1.383 1_545 S
C1245 C1246 1.394 . S
C1246 C1245 1.394 . S
C1246 C1247 1.378 . S
C1246 H1274 0.931 . S
C1247 C1242 1.377 1_545 S
C1247 C1246 1.378 . S
C1247 H1275 0.931 . S
C1248 O1262 1.259 1_545 S
C1248 O1263 1.270 . S
C1249 O1264 1.251 . S
C1249 O1265 1.251 . S
C1250 Eu1251 2.835 . S
C1250 C1252 1.500 . S
C1250 O1266 1.257 . S
C1250 O1267 1.260 . S
Eu1251 C1250 2.835 . S
Eu1251 O1263 2.355 . S
Eu1251 O1265 2.374 . S
Eu1251 O1266 2.473 . S
Eu1251 O1267 2.480 . S
Eu1251 O1268 2.430 . S
Eu1251 O1269 2.670 . S
Eu1251 O1270 2.394 1_545 S
C1252 C1250 1.500 . S
C1252 C1253 1.377 . S
C1252 C1257 1.377 . S
C1253 C1252 1.377 . S
C1253 C1254 1.395 . S
C1253 H1276 0.931 . S
C1254 C1253 1.395 . S
C1254 C1255 1.383 . S
C1254 H1277 0.931 . S
C1255 C1254 1.383 . S
C1255 C1256 1.394 . S
C1256 C1255 1.394 . S
C1256 C1257 1.378 . S
C1256 H1278 0.931 . S
C1257 C1252 1.377 . S
C1257 C1256 1.378 . S
C1257 H1279 0.931 . S
C1258 O1268 1.259 . S
C1258 O1269 1.270 . S
C1259 O1270 1.251 . S
C1259 O1271 1.251 . S
O1260 C1240 1.257 . S
O1260 Eu1241 2.473 . S
O1261 C1240 1.260 . S
O1261 Eu1241 2.480 . S
O1262 Eu1241 2.430 . S
O1262 C1248 1.259 1_565 S
O1263 Eu1241 2.670 1_545 S
O1263 C1248 1.270 . S
O1263 Eu1251 2.355 . S
O1264 Eu1241 2.394 1_545 S
O1264 C1249 1.251 . S
O1265 C1249 1.251 . S
O1265 Eu1251 2.374 . S
O1266 C1250 1.257 . S
O1266 Eu1251 2.473 . S
O1267 C1250 1.260 . S
O1267 Eu1251 2.480 . S
O1268 Eu1251 2.430 . S
O1268 C1258 1.259 . S
O1269 Eu1241 2.355 1_545 S
O1269 Eu1251 2.670 . S
O1269 C1258 1.270 . S
O1270 Eu1251 2.394 1_565 S
O1270 C1259 1.251 . S
O1271 Eu1241 2.374 . S
O1271 C1259 1.251 . S
H1272 C1243 0.931 . S
H1273 C1244 0.931 . S
H1274 C1246 0.931 . S
H1275 C1247 0.931 . S
H1276 C1253 0.931 . S
H1277 C1254 0.931 . S
H1278 C1256 0.931 . S
H1279 C1257 0.931 . S
C19 C1019 2.738 . S
C979 C59 2.738 . S
C1099 C99 2.738 . S
C139 C1059 2.738 . S
C169 C1169 2.738 . S
C209 C1129 2.738 . S
C249 C1249 2.738 . S
C1209 C289 2.738 . S
C339 C699 2.738 . S
C379 C659 2.738 . S
C419 C779 2.738 . S
C739 C459 2.738 . S
C489 C849 2.738 . S
C529 C809 2.738 . S
C929 C569 2.738 . S
C609 C889 2.738 . S
C18 C138 2.788 . S
C58 C98 2.788 . S
C288 C168 2.788 . S
C248 C208 2.788 . S
C338 C458 2.788 . S
C378 C418 2.788 . S
C488 C608 2.788 . S
C568 C528 2.788 . S
C658 C778 2.788 . S
C698 C738 2.788 . S
C928 C808 2.788 . S
C848 C888 2.788 . S
C1098 C978 2.788 . S
C1018 C1058 2.788 . S
C1248 C1128 2.788 . S
C1208 C1168 2.788 . S
C49 C9 1.662 . S
C89 C129 1.662 . S
C219 C179 1.662 . S
C299 C259 1.662 . S
C329 C369 1.662 . S
C409 C449 1.662 . S
C539 C499 1.662 . S
C579 C619 1.662 . S
C649 C689 1.662 . S
C769 C729 1.662 . S
C819 C859 1.662 . S
C899 C939 1.662 . S
C969 C1009 1.662 . S
C1049 C1089 1.662 . S
C1179 C1139 1.662 . S
C1219 C1259 1.662 . S
C15 C5 2.394 . S
C55 C45 2.392 . S
C95 C85 2.392 . S
C125 C135 2.394 . S
C175 C165 2.394 . S
C205 C215 2.392 . S
C255 C245 2.392 . S
C295 C285 2.394 . S
C325 C335 2.394 . S
C375 C365 2.392 . S
C415 C405 2.392 . S
C445 C455 2.394 . S
C495 C485 2.394 . S
C525 C535 2.392 . S
C565 C575 2.392 . S
C615 C605 2.394 . S
C655 C645 2.394 1_455 S
C685 C695 2.392 . S
C725 C735 2.392 1_655 S
C775 C765 2.394 . S
C805 C815 2.394 1_655 S
C845 C855 2.392 . S
C895 C885 2.392 1_455 S
C925 C935 2.394 . S
C965 C975 2.394 1_655 S
C1015 C1005 2.392 . S
C1045 C1055 2.392 1_655 S
C1085 C1095 2.394 . S
C1125 C1135 2.394 1_655 S
C1165 C1175 2.392 . S
C1215 C1205 2.392 1_455 S
C1255 C1245 2.394 . S
C8 C178 1.572 1_454 S
C1178 C48 1.569 1_556 S
C578 C88 1.569 1_655 S
C128 C938 1.572 . S
C218 C1008 1.569 1_556 S
C258 C408 1.569 1_655 S
C298 C768 1.572 . S
C328 C498 1.572 1_465 S
C858 C368 1.569 . S
C1258 C448 1.572 1_545 S
C538 C688 1.569 . S
C1088 C618 1.572 1_565 S
C648 C818 1.572 . S
C1218 C728 1.569 . S
C898 C1048 1.569 . S
C968 C1138 1.572 1_564 S
