# Generated by pormake.
# Topology gis, (4)-cn, num edge types: 1
# Building blocks:
#     Node 0, Type 0, BuildingBlock: QUQFOY_clean_sbu_1, # of connection points: 4
#     Node 1, Type 0, BuildingBlock: QUQFOY_clean_sbu_1, # of connection points: 4
#     Node 2, Type 0, BuildingBlock: QUQFOY_clean_sbu_1, # of connection points: 4
#     Node 3, Type 0, BuildingBlock: QUQFOY_clean_sbu_1, # of connection points: 4
#     Node 4, Type 0, BuildingBlock: QUQFOY_clean_sbu_1, # of connection points: 4
#     Node 5, Type 0, BuildingBlock: QUQFOY_clean_sbu_1, # of connection points: 4
#     Node 6, Type 0, BuildingBlock: QUQFOY_clean_sbu_1, # of connection points: 4
#     Node 7, Type 0, BuildingBlock: QUQFOY_clean_sbu_1, # of connection points: 4
#     Node 8, Type 0, BuildingBlock: QUQFOY_clean_sbu_1, # of connection points: 4
#     Node 9, Type 0, BuildingBlock: QUQFOY_clean_sbu_1, # of connection points: 4
#     Node 10, Type 0, BuildingBlock: QUQFOY_clean_sbu_1, # of connection points: 4
#     Node 11, Type 0, BuildingBlock: QUQFOY_clean_sbu_1, # of connection points: 4
#     Node 12, Type 0, BuildingBlock: QUQFOY_clean_sbu_1, # of connection points: 4
#     Node 13, Type 0, BuildingBlock: QUQFOY_clean_sbu_1, # of connection points: 4
#     Node 14, Type 0, BuildingBlock: QUQFOY_clean_sbu_1, # of connection points: 4
#     Node 15, Type 0, BuildingBlock: QUQFOY_clean_sbu_1, # of connection points: 4
#     Edge 16, Type (0, 0), BuildingBlock: OJICUG_clean_linker_0, # of connection points: 2
#     Edge 17, Type (0, 0), BuildingBlock: OJICUG_clean_linker_0, # of connection points: 2
#     Edge 18, Type (0, 0), BuildingBlock: OJICUG_clean_linker_0, # of connection points: 2
#     Edge 19, Type (0, 0), BuildingBlock: OJICUG_clean_linker_0, # of connection points: 2
#     Edge 20, Type (0, 0), BuildingBlock: OJICUG_clean_linker_0, # of connection points: 2
#     Edge 21, Type (0, 0), BuildingBlock: OJICUG_clean_linker_0, # of connection points: 2
#     Edge 22, Type (0, 0), BuildingBlock: OJICUG_clean_linker_0, # of connection points: 2
#     Edge 23, Type (0, 0), BuildingBlock: OJICUG_clean_linker_0, # of connection points: 2
#     Edge 24, Type (0, 0), BuildingBlock: OJICUG_clean_linker_0, # of connection points: 2
#     Edge 25, Type (0, 0), BuildingBlock: OJICUG_clean_linker_0, # of connection points: 2
#     Edge 26, Type (0, 0), BuildingBlock: OJICUG_clean_linker_0, # of connection points: 2
#     Edge 27, Type (0, 0), BuildingBlock: OJICUG_clean_linker_0, # of connection points: 2
#     Edge 28, Type (0, 0), BuildingBlock: OJICUG_clean_linker_0, # of connection points: 2
#     Edge 29, Type (0, 0), BuildingBlock: OJICUG_clean_linker_0, # of connection points: 2
#     Edge 30, Type (0, 0), BuildingBlock: OJICUG_clean_linker_0, # of connection points: 2
#     Edge 31, Type (0, 0), BuildingBlock: OJICUG_clean_linker_0, # of connection points: 2
#     Edge 32, Type (0, 0), BuildingBlock: OJICUG_clean_linker_0, # of connection points: 2
#     Edge 33, Type (0, 0), BuildingBlock: OJICUG_clean_linker_0, # of connection points: 2
#     Edge 34, Type (0, 0), BuildingBlock: OJICUG_clean_linker_0, # of connection points: 2
#     Edge 35, Type (0, 0), BuildingBlock: OJICUG_clean_linker_0, # of connection points: 2
#     Edge 36, Type (0, 0), BuildingBlock: OJICUG_clean_linker_0, # of connection points: 2
#     Edge 37, Type (0, 0), BuildingBlock: OJICUG_clean_linker_0, # of connection points: 2
#     Edge 38, Type (0, 0), BuildingBlock: OJICUG_clean_linker_0, # of connection points: 2
#     Edge 39, Type (0, 0), BuildingBlock: OJICUG_clean_linker_0, # of connection points: 2
#     Edge 40, Type (0, 0), BuildingBlock: OJICUG_clean_linker_0, # of connection points: 2
#     Edge 41, Type (0, 0), BuildingBlock: OJICUG_clean_linker_0, # of connection points: 2
#     Edge 42, Type (0, 0), BuildingBlock: OJICUG_clean_linker_0, # of connection points: 2
#     Edge 43, Type (0, 0), BuildingBlock: OJICUG_clean_linker_0, # of connection points: 2
#     Edge 44, Type (0, 0), BuildingBlock: OJICUG_clean_linker_0, # of connection points: 2
#     Edge 45, Type (0, 0), BuildingBlock: OJICUG_clean_linker_0, # of connection points: 2
#     Edge 46, Type (0, 0), BuildingBlock: OJICUG_clean_linker_0, # of connection points: 2
#     Edge 47, Type (0, 0), BuildingBlock: OJICUG_clean_linker_0, # of connection points: 2
# Relax obj value: 0.008
# Max RMSD: 0.052
# Mean RMSD: 0.052
data_MOF--net-gis--node1-QUQFOY_clean_sbu_1--edge1-OJICUG_clean_linker_0
_symmetry_space_group_name_H-M    P1
_symmetry_Int_Tables_number       1
_symmetry_cell_setting            triclinic
loop_
_symmetry_equiv_pos_as_xyz
'x, y, z'
_cell_length_a     39.250678
_cell_length_b     39.284132
_cell_length_c     31.247357
_cell_angle_alpha  90.01127
_cell_angle_beta   90.008
_cell_angle_gamma 89.990853
loop_
_atom_site_label
_atom_site_type_symbol
_atom_site_fract_x
_atom_site_fract_y
_atom_site_fract_z
_atom_type_partial_charge
O0 O 0.16263 0.67818 0.17113 0.0
Cd1 Cd 0.15661 0.62711 0.18391 0.0
Cd2 Cd 0.15448 0.62456 0.09923 0.0
O3 O 0.17312 0.6741 0.10198 0.0
O4 O 0.17728 0.61888 0.24165 0.0
O5 O 0.19967 0.59978 0.18126 0.0
C6 C 0.20206 0.6038 0.22214 0.0
C7 C 0.17793 0.57898 0.06141 0.0
C8 C 0.17121 0.69198 0.13592 0.0
C9 C 0.0893 0.61031 0.14683 0.0
O10 O 0.1033 0.61869 0.11166 0.0
O11 O 0.10703 0.60853 0.18092 0.0
O12 O 0.16296 0.60369 0.04167 0.0
O13 O 0.18177 0.58151 0.10231 0.0
O14 O 0.66283 0.85287 0.36132 0.0
Cd15 Cd 0.6569 0.90398 0.34873 0.0
Cd16 Cd 0.65459 0.9063 0.43342 0.0
O17 O 0.6732 0.85675 0.43053 0.0
O18 O 0.67763 0.91232 0.29106 0.0
O19 O 0.69999 0.93125 0.35156 0.0
C20 C 0.70241 0.92733 0.31066 0.0
C21 C 0.678 0.95182 0.47139 0.0
C22 C 0.67132 0.83896 0.39651 0.0
C23 C 0.58953 0.92077 0.38564 0.0
O24 O 0.60344 0.91227 0.42083 0.0
O25 O 0.60732 0.92262 0.35163 0.0
O26 O 0.66299 0.9271 0.49104 0.0
O27 O 0.68191 0.94933 0.4305 0.0
O28 O 0.36953 0.35317 0.67119 0.0
Cd29 Cd 0.37555 0.40425 0.68396 0.0
Cd30 Cd 0.37763 0.40678 0.59928 0.0
O31 O 0.35897 0.35724 0.60205 0.0
O32 O 0.35488 0.4125 0.7417 0.0
O33 O 0.33248 0.43157 0.68131 0.0
C34 C 0.33009 0.42755 0.72219 0.0
C35 C 0.3542 0.45237 0.56147 0.0
C36 C 0.36092 0.33937 0.63598 0.0
C37 C 0.44284 0.42101 0.64687 0.0
O38 O 0.42883 0.41263 0.6117 0.0
O39 O 0.42514 0.42281 0.68096 0.0
O40 O 0.36915 0.42764 0.54173 0.0
O41 O 0.35037 0.44986 0.60237 0.0
O42 O 0.92861 0.11888 0.92098 0.0
Cd43 Cd 0.87746 0.12483 0.93358 0.0
Cd44 Cd 0.87511 0.12715 0.8489 0.0
O45 O 0.9247 0.10855 0.85178 0.0
O46 O 0.86907 0.10402 0.99118 0.0
O47 O 0.85014 0.0818 0.93061 0.0
C48 C 0.85406 0.0793 0.9715 0.0
C49 C 0.82961 0.10381 0.81077 0.0
C50 C 0.94251 0.1104 0.88578 0.0
C51 C 0.86068 0.19216 0.89673 0.0
O52 O 0.86915 0.17825 0.86153 0.0
O53 O 0.85884 0.17438 0.93074 0.0
O54 O 0.85439 0.11883 0.79121 0.0
O55 O 0.83202 0.09986 0.85165 0.0
O56 O 0.16338 0.35286 0.86225 0.0
Cd57 Cd 0.15744 0.40398 0.84971 0.0
Cd58 Cd 0.1549 0.4062 0.93437 0.0
O59 O 0.17354 0.35666 0.9315 0.0
O60 O 0.17822 0.41234 0.79207 0.0
O61 O 0.20053 0.43128 0.85259 0.0
C62 C 0.20298 0.42736 0.8117 0.0
C63 C 0.1782 0.45174 0.97239 0.0
C64 C 0.17178 0.33892 0.89745 0.0
C65 C 0.08995 0.42066 0.88637 0.0
O66 O 0.10377 0.41213 0.9216 0.0
O67 O 0.10784 0.42257 0.85244 0.0
O68 O 0.16317 0.42701 0.99201 0.0
O69 O 0.18219 0.44924 0.93152 0.0
O70 O 0.86906 0.85301 0.17038 0.0
Cd71 Cd 0.87503 0.90411 0.18306 0.0
Cd72 Cd 0.87735 0.9065 0.0984 0.0
O73 O 0.85868 0.85697 0.10119 0.0
O74 O 0.85431 0.9124 0.24075 0.0
O75 O 0.83195 0.93141 0.18031 0.0
C76 C 0.82953 0.92743 0.22119 0.0
C77 C 0.85399 0.95207 0.0605 0.0
C78 C 0.86054 0.83915 0.13517 0.0
C79 C 0.94242 0.92083 0.1462 0.0
O80 O 0.92851 0.91237 0.11099 0.0
O81 O 0.92462 0.92269 0.1802 0.0
O82 O 0.86897 0.92734 0.04081 0.0
O83 O 0.85008 0.94957 0.10139 0.0
O84 O 0.42841 0.61911 0.42162 0.0
Cd85 Cd 0.37729 0.62509 0.4344 0.0
Cd86 Cd 0.37471 0.62728 0.34974 0.0
O87 O 0.42429 0.60865 0.35246 0.0
O88 O 0.36903 0.60431 0.49205 0.0
O89 O 0.34996 0.58206 0.43156 0.0
C90 C 0.35398 0.57958 0.47244 0.0
C91 C 0.32916 0.60392 0.31172 0.0
C92 C 0.4422 0.61055 0.38638 0.0
C93 C 0.36043 0.69236 0.39748 0.0
O94 O 0.3688 0.67841 0.36228 0.0
O95 O 0.35867 0.67463 0.43154 0.0
O96 O 0.35392 0.61892 0.2921 0.0
O97 O 0.33161 0.60001 0.35261 0.0
O98 O 0.66305 0.17818 0.67026 0.0
Cd99 Cd 0.65704 0.1271 0.68299 0.0
Cd100 Cd 0.65467 0.12465 0.59833 0.0
O101 O 0.67334 0.17417 0.60106 0.0
O102 O 0.67776 0.11885 0.74069 0.0
O103 O 0.7001 0.09975 0.68028 0.0
C104 C 0.70252 0.10377 0.72116 0.0
C105 C 0.67801 0.07905 0.56044 0.0
C106 C 0.67153 0.19201 0.63503 0.0
C107 C 0.58962 0.11038 0.64617 0.0
O108 O 0.60352 0.11879 0.61095 0.0
O109 O 0.60744 0.10855 0.68017 0.0
O110 O 0.66301 0.10377 0.54074 0.0
O111 O 0.68194 0.08158 0.60132 0.0
O112 O 0.86947 0.35295 0.86142 0.0
Cd113 Cd 0.87552 0.40403 0.84871 0.0
Cd114 Cd 0.87765 0.40649 0.93341 0.0
O115 O 0.85898 0.35697 0.93058 0.0
O116 O 0.85488 0.4123 0.79097 0.0
O117 O 0.83247 0.43138 0.85135 0.0
C118 C 0.83009 0.42737 0.81047 0.0
C119 C 0.85421 0.45207 0.97123 0.0
C120 C 0.86088 0.33912 0.89662 0.0
C121 C 0.94284 0.42075 0.88583 0.0
O122 O 0.92884 0.41235 0.92099 0.0
O123 O 0.92512 0.42257 0.85174 0.0
O124 O 0.86917 0.42735 0.99097 0.0
O125 O 0.85038 0.44956 0.93033 0.0
O126 O 0.36921 0.17844 0.67072 0.0
Cd127 Cd 0.37513 0.12732 0.68323 0.0
Cd128 Cd 0.37746 0.1251 0.59853 0.0
O129 O 0.35886 0.17466 0.60151 0.0
O130 O 0.35441 0.11893 0.7409 0.0
O131 O 0.33203 0.10006 0.68039 0.0
C132 C 0.32962 0.10395 0.72128 0.0
C133 C 0.35404 0.0796 0.56055 0.0
C134 C 0.36073 0.1924 0.63556 0.0
C135 C 0.44251 0.11057 0.64629 0.0
O136 O 0.42861 0.11912 0.61112 0.0
O137 O 0.42471 0.10868 0.68029 0.0
O138 O 0.36904 0.10433 0.5409 0.0
O139 O 0.35013 0.08208 0.60144 0.0
O140 O 0.6626 0.67813 0.36125 0.0
Cd141 Cd 0.65659 0.62704 0.34859 0.0
Cd142 Cd 0.65451 0.62463 0.43328 0.0
O143 O 0.67317 0.67416 0.4304 0.0
O144 O 0.67725 0.61871 0.29087 0.0
O145 O 0.69966 0.59973 0.35129 0.0
C146 C 0.70205 0.60369 0.31041 0.0
C147 C 0.67796 0.57907 0.47113 0.0
C148 C 0.67121 0.69198 0.39643 0.0
C149 C 0.5893 0.61032 0.38574 0.0
O150 O 0.60332 0.61876 0.42088 0.0
O151 O 0.60701 0.60846 0.35165 0.0
O152 O 0.66302 0.60381 0.49086 0.0
O153 O 0.68177 0.58156 0.43023 0.0
O154 O 0.10343 0.9122 0.11105 0.0
Cd155 Cd 0.15458 0.90623 0.09847 0.0
Cd156 Cd 0.15692 0.90404 0.18316 0.0
O157 O 0.10734 0.92266 0.18023 0.0
O158 O 0.16298 0.92699 0.04084 0.0
O159 O 0.18189 0.94926 0.10139 0.0
C160 C 0.17799 0.95173 0.0605 0.0
C161 C 0.20242 0.92742 0.22125 0.0
C162 C 0.08953 0.92075 0.14623 0.0
C163 C 0.17134 0.83895 0.13549 0.0
O164 O 0.16286 0.85291 0.17065 0.0
O165 O 0.17319 0.85668 0.10144 0.0
O166 O 0.17763 0.91244 0.24084 0.0
O167 O 0.20001 0.93131 0.18035 0.0
O168 O 0.8688 0.67827 0.17032 0.0
Cd169 Cd 0.87472 0.62716 0.18293 0.0
Cd170 Cd 0.87726 0.62485 0.09828 0.0
O171 O 0.85862 0.67439 0.10107 0.0
O172 O 0.85392 0.61884 0.24056 0.0
O173 O 0.83163 0.59987 0.18005 0.0
C174 C 0.82917 0.60382 0.22094 0.0
C175 C 0.85395 0.57931 0.06026 0.0
C176 C 0.8604 0.69218 0.1351 0.0
C177 C 0.9422 0.61041 0.1463 0.0
O178 O 0.92838 0.61891 0.11105 0.0
O179 O 0.92431 0.60855 0.18023 0.0
O180 O 0.869 0.60403 0.04064 0.0
O181 O 0.84995 0.58181 0.10113 0.0
O182 O 0.16304 0.17816 0.86179 0.0
Cd183 Cd 0.15703 0.12709 0.84899 0.0
Cd184 Cd 0.15471 0.12456 0.93363 0.0
O185 O 0.1734 0.17408 0.93097 0.0
O186 O 0.17774 0.11887 0.79128 0.0
O187 O 0.20009 0.09975 0.85168 0.0
C188 C 0.20251 0.10379 0.8108 0.0
C189 C 0.17804 0.07895 0.97149 0.0
C190 C 0.17156 0.19195 0.89704 0.0
C191 C 0.08962 0.11034 0.8858 0.0
O192 O 0.10354 0.11872 0.92103 0.0
O193 O 0.10742 0.10853 0.85179 0.0
O194 O 0.16306 0.10367 0.9912 0.0
O195 O 0.18196 0.08147 0.93061 0.0
O196 O 0.60374 0.4123 0.61096 0.0
Cd197 Cd 0.65485 0.40632 0.59815 0.0
Cd198 Cd 0.65745 0.40401 0.68279 0.0
O199 O 0.60786 0.42265 0.68014 0.0
O200 O 0.66309 0.42714 0.54052 0.0
O201 O 0.68219 0.44934 0.60102 0.0
C202 C 0.67817 0.45185 0.56015 0.0
C203 C 0.70301 0.42732 0.72085 0.0
C204 C 0.58995 0.4208 0.64622 0.0
C205 C 0.67171 0.33899 0.63492 0.0
O206 O 0.66335 0.3529 0.67015 0.0
O207 O 0.67346 0.35676 0.6009 0.0
O208 O 0.67825 0.4123 0.74044 0.0
O209 O 0.70055 0.43128 0.67997 0.0
O210 O 0.369 0.85314 0.36179 0.0
Cd211 Cd 0.375 0.90421 0.34899 0.0
Cd212 Cd 0.37737 0.90676 0.43364 0.0
O213 O 0.35871 0.85722 0.43099 0.0
O214 O 0.35427 0.91241 0.29129 0.0
O215 O 0.33195 0.93156 0.35169 0.0
C216 C 0.32952 0.92751 0.31082 0.0
C217 C 0.35403 0.95236 0.47151 0.0
C218 C 0.36053 0.83934 0.39705 0.0
C219 C 0.44242 0.92097 0.38577 0.0
O220 O 0.42852 0.91261 0.42101 0.0
O221 O 0.42461 0.92276 0.35177 0.0
O222 O 0.36904 0.92765 0.49121 0.0
O223 O 0.35009 0.94982 0.43063 0.0
C224 C 0.17792 0.78328 0.17313 0.0
C225 C 0.17641 0.8015 0.13447 0.0
H226 H 0.17796 0.73477 0.20379 0.0
C227 C 0.17689 0.78326 0.0957 0.0
H228 H 0.17802 0.79642 0.20361 0.0
C229 C 0.17686 0.7475 0.0958 0.0
C230 C 0.17634 0.72942 0.13468 0.0
H231 H 0.17581 0.79653 0.06535 0.0
H232 H 0.17575 0.73412 0.06553 0.0
C233 C 0.17789 0.74779 0.17323 0.0
C234 C 0.49806 0.92643 0.34576 0.0
C235 C 0.47991 0.92601 0.38461 0.0
H236 H 0.54717 0.92523 0.31541 0.0
C237 C 0.49825 0.92756 0.42319 0.0
H238 H 0.48471 0.92531 0.31547 0.0
C239 C 0.53377 0.92751 0.42316 0.0
C240 C 0.55206 0.92591 0.38454 0.0
H241 H 0.48518 0.9277 0.45372 0.0
H242 H 0.54689 0.92762 0.45367 0.0
C243 C 0.53385 0.92638 0.34573 0.0
C244 C 0.35423 0.28358 0.67329 0.0
C245 C 0.35576 0.30194 0.63474 0.0
H246 H 0.35409 0.23496 0.70368 0.0
C247 C 0.35523 0.28384 0.59586 0.0
H248 H 0.35417 0.29661 0.70385 0.0
C249 C 0.35518 0.24808 0.59576 0.0
C250 C 0.35567 0.22985 0.63454 0.0
H251 H 0.35633 0.29721 0.56559 0.0
H252 H 0.35625 0.2348 0.56541 0.0
C253 C 0.35418 0.24809 0.67319 0.0
C254 C 0.03396 0.10483 0.84584 0.0
C255 C 0.05214 0.10528 0.88466 0.0
H256 H 0.98483 0.10596 0.81552 0.0
C257 C 0.03382 0.10374 0.92326 0.0
H258 H 0.04729 0.10593 0.81553 0.0
C259 C 0.9983 0.10376 0.92326 0.0
C260 C 0.97999 0.10531 0.88465 0.0
H261 H 0.04692 0.10363 0.95379 0.0
H262 H 0.98521 0.10365 0.95378 0.0
C263 C 0.99817 0.10484 0.84583 0.0
C264 C 0.17847 0.28323 0.85985 0.0
C265 C 0.17685 0.30147 0.8985 0.0
H266 H 0.17857 0.23471 0.8292 0.0
C267 C 0.1772 0.28324 0.93728 0.0
H268 H 0.17867 0.29636 0.82937 0.0
C269 C 0.17714 0.24748 0.93718 0.0
C270 C 0.17673 0.22938 0.8983 0.0
H271 H 0.17602 0.29652 0.96762 0.0
H272 H 0.17593 0.23411 0.96744 0.0
C273 C 0.17841 0.24774 0.85975 0.0
C274 C 0.99822 0.92737 0.10872 0.0
C275 C 0.9799 0.9259 0.14732 0.0
H276 H 0.04683 0.92739 0.07821 0.0
C277 C 0.99808 0.92642 0.18615 0.0
H278 H 0.98513 0.92743 0.0782 0.0
C279 C 0.03387 0.9264 0.18616 0.0
C280 C 0.05205 0.92586 0.14734 0.0
H281 H 0.98474 0.92537 0.21646 0.0
H282 H 0.04721 0.92534 0.21647 0.0
C283 C 0.03374 0.92735 0.10873 0.0
C284 C 0.35498 0.74806 0.4373 0.0
C285 C 0.35535 0.72982 0.39852 0.0
H286 H 0.3562 0.7972 0.46746 0.0
C287 C 0.35371 0.74804 0.35987 0.0
H288 H 0.35616 0.73479 0.46764 0.0
C289 C 0.35374 0.78353 0.35977 0.0
C290 C 0.35539 0.8019 0.39831 0.0
H291 H 0.35352 0.7349 0.32939 0.0
H292 H 0.35356 0.79655 0.32921 0.0
C293 C 0.355 0.78382 0.43719 0.0
C294 C 0.53379 0.10383 0.60874 0.0
C295 C 0.55213 0.10534 0.64733 0.0
H296 H 0.48516 0.1038 0.57826 0.0
C297 C 0.53397 0.10489 0.68617 0.0
H298 H 0.54687 0.10372 0.57821 0.0
C299 C 0.49819 0.10493 0.6862 0.0
C300 C 0.47998 0.10544 0.64739 0.0
H301 H 0.54733 0.10597 0.71647 0.0
H302 H 0.48487 0.10605 0.71652 0.0
C303 C 0.49827 0.10388 0.60877 0.0
C304 C 0.85519 0.2478 0.93666 0.0
C305 C 0.85561 0.22961 0.89784 0.0
H306 H 0.85641 0.2969 0.96693 0.0
C307 C 0.85404 0.24788 0.85923 0.0
H308 H 0.85632 0.23449 0.96697 0.0
C309 C 0.8541 0.28337 0.8592 0.0
C310 C 0.85571 0.30169 0.89779 0.0
H311 H 0.85389 0.23478 0.82872 0.0
H312 H 0.85398 0.29644 0.82867 0.0
C313 C 0.85524 0.28355 0.93663 0.0
C314 C 0.67689 0.74758 0.43641 0.0
C315 C 0.67634 0.72943 0.39757 0.0
H316 H 0.67587 0.79666 0.46675 0.0
C317 C 0.67784 0.74773 0.35898 0.0
H318 H 0.67582 0.73425 0.46671 0.0
C319 C 0.67786 0.78322 0.359 0.0
C320 C 0.6764 0.80151 0.39761 0.0
H321 H 0.67788 0.73465 0.32845 0.0
H322 H 0.67793 0.79631 0.32848 0.0
C323 C 0.67692 0.78334 0.43643 0.0
C324 C 0.85376 0.74792 0.17258 0.0
C325 C 0.85533 0.72963 0.13397 0.0
H326 H 0.85367 0.79649 0.20313 0.0
C327 C 0.85491 0.7478 0.09515 0.0
H328 H 0.85361 0.73484 0.2031 0.0
C329 C 0.85495 0.78356 0.09517 0.0
C330 C 0.8554 0.80171 0.13401 0.0
H331 H 0.85604 0.73448 0.06484 0.0
H332 H 0.8561 0.79689 0.06487 0.0
C333 C 0.85379 0.78341 0.1726 0.0
C334 C 0.67843 0.28326 0.67239 0.0
C335 C 0.67677 0.30154 0.63379 0.0
H336 H 0.67857 0.23471 0.70295 0.0
C337 C 0.6771 0.28334 0.59497 0.0
H338 H 0.67865 0.29636 0.7029 0.0
C339 C 0.67706 0.24759 0.595 0.0
C340 C 0.67669 0.22945 0.63384 0.0
H341 H 0.6759 0.29665 0.56466 0.0
H342 H 0.67583 0.23424 0.56471 0.0
C343 C 0.67838 0.24777 0.67242 0.0
C344 C 0.03438 0.42627 0.84622 0.0
C345 C 0.05248 0.42576 0.88511 0.0
H346 H 0.98533 0.42521 0.81572 0.0
C347 C 0.03408 0.42728 0.92365 0.0
H348 H 0.04779 0.42518 0.81596 0.0
C349 C 0.99856 0.4273 0.92352 0.0
C350 C 0.98033 0.42581 0.88484 0.0
H351 H 0.0471 0.42735 0.95422 0.0
H352 H 0.98539 0.42739 0.95399 0.0
C353 C 0.9986 0.42629 0.84608 0.0
C354 C 0.53361 0.60382 0.42347 0.0
C355 C 0.55181 0.60528 0.38478 0.0
H356 H 0.48508 0.60384 0.4542 0.0
C357 C 0.53352 0.60479 0.34603 0.0
H358 H 0.54679 0.60373 0.45393 0.0
C359 C 0.49774 0.60485 0.34619 0.0
C360 C 0.47967 0.60541 0.3851 0.0
H361 H 0.54677 0.60584 0.31567 0.0
H362 H 0.48431 0.60595 0.31594 0.0
C363 C 0.49809 0.60388 0.42362 0.0
C364 C 0.53406 0.42753 0.609 0.0
C365 C 0.55248 0.42594 0.64752 0.0
H366 H 0.48536 0.42774 0.5787 0.0
C367 C 0.53441 0.42641 0.68643 0.0
H368 H 0.54706 0.42764 0.57842 0.0
C369 C 0.49863 0.42646 0.68659 0.0
C370 C 0.48033 0.42605 0.64784 0.0
H371 H 0.54784 0.42526 0.71667 0.0
H372 H 0.48538 0.42535 0.71695 0.0
C373 C 0.49854 0.42759 0.60916 0.0
C374 C 0.03355 0.60481 0.18659 0.0
C375 C 0.05182 0.60525 0.14783 0.0
H376 H 0.98436 0.60597 0.21672 0.0
C377 C 0.03359 0.60371 0.10916 0.0
H378 H 0.04683 0.60592 0.21695 0.0
C379 C 0.99807 0.60373 0.10903 0.0
C380 C 0.97967 0.6053 0.14757 0.0
H381 H 0.04675 0.60358 0.07869 0.0
H382 H 0.98504 0.60363 0.07846 0.0
C383 C 0.99777 0.60483 0.18646 0.0
C384 C 0.18721 0.54587 0.99388 0.0
C385 C 0.18592 0.54684 0.03879 0.0
H386 H 0.18683 0.51479 0.93759 0.0
C387 C 0.18742 0.51604 0.06166 0.0
H388 H 0.18621 0.56918 0.97541 0.0
C389 C 0.18711 0.48485 0.04001 0.0
C390 C 0.18607 0.48388 0.99509 0.0
H391 H 0.1864 0.51593 0.0963 0.0
H392 H 0.18602 0.46154 0.05847 0.0
C393 C 0.18767 0.51468 0.97224 0.0
C394 C 0.7654 0.93681 0.31065 0.0
C395 C 0.73452 0.93527 0.2879 0.0
H396 H 0.81994 0.93541 0.30728 0.0
C397 C 0.73537 0.93646 0.24298 0.0
H398 H 0.7656 0.93586 0.3453 0.0
C399 C 0.76653 0.93688 0.22122 0.0
C400 C 0.79742 0.93533 0.24398 0.0
H401 H 0.712 0.93543 0.2246 0.0
H402 H 0.76633 0.93598 0.18658 0.0
C403 C 0.79656 0.93645 0.28889 0.0
C404 C 0.34492 0.48546 0.49394 0.0
C405 C 0.34622 0.48451 0.53885 0.0
H406 H 0.34529 0.51651 0.43764 0.0
C407 C 0.34476 0.51532 0.56171 0.0
H408 H 0.34589 0.46214 0.47547 0.0
C409 C 0.34508 0.5465 0.54006 0.0
C410 C 0.3461 0.54745 0.49514 0.0
H411 H 0.34579 0.51544 0.59636 0.0
H412 H 0.34619 0.56981 0.55852 0.0
C413 C 0.34448 0.51664 0.47229 0.0
C414 C 0.73546 0.09473 0.78889 0.0
C415 C 0.73463 0.09586 0.74397 0.0
H416 H 0.7664 0.09531 0.84533 0.0
C417 C 0.76552 0.0943 0.72125 0.0
H418 H 0.71208 0.09579 0.80725 0.0
C419 C 0.79667 0.09469 0.74304 0.0
C420 C 0.79751 0.09588 0.78796 0.0
H421 H 0.76573 0.0952 0.6866 0.0
H422 H 0.82006 0.09572 0.72468 0.0
C423 C 0.76661 0.09436 0.81068 0.0
C424 C 0.84473 0.51501 0.97099 0.0
C425 C 0.84622 0.48421 0.99386 0.0
H426 H 0.84613 0.56951 0.97418 0.0
C427 C 0.84494 0.48518 0.03877 0.0
H428 H 0.84575 0.51513 0.93635 0.0
C429 C 0.84449 0.51637 0.06041 0.0
C430 C 0.84609 0.54717 0.03756 0.0
H431 H 0.84593 0.46187 0.05724 0.0
H432 H 0.84532 0.51626 0.09507 0.0
C433 C 0.84505 0.5462 0.99264 0.0
C434 C 0.26551 0.09434 0.81073 0.0
C435 C 0.23462 0.09591 0.78799 0.0
H436 H 0.32005 0.09577 0.80735 0.0
C437 C 0.23547 0.09484 0.74307 0.0
H438 H 0.26571 0.0952 0.84538 0.0
C439 C 0.26663 0.0945 0.7213 0.0
C440 C 0.29751 0.096 0.74405 0.0
H441 H 0.21209 0.09591 0.7247 0.0
H442 H 0.26642 0.09548 0.68666 0.0
C443 C 0.29666 0.09476 0.78897 0.0
C444 C 0.68742 0.51612 0.47089 0.0
C445 C 0.68593 0.54693 0.49376 0.0
H446 H 0.68601 0.46163 0.47407 0.0
C447 C 0.6872 0.54597 0.53867 0.0
H448 H 0.68642 0.516 0.43625 0.0
C449 C 0.68764 0.51479 0.56032 0.0
C450 C 0.68604 0.48398 0.53746 0.0
H451 H 0.68621 0.56929 0.55714 0.0
H452 H 0.6868 0.51491 0.59497 0.0
C453 C 0.6871 0.48494 0.49254 0.0
C454 C 0.29657 0.9365 0.24309 0.0
C455 C 0.29741 0.93541 0.28801 0.0
H456 H 0.26562 0.93588 0.18666 0.0
C457 C 0.26652 0.937 0.31073 0.0
H458 H 0.31995 0.93542 0.22472 0.0
C459 C 0.23537 0.93659 0.28895 0.0
C460 C 0.23452 0.93536 0.24404 0.0
H461 H 0.26632 0.93613 0.34538 0.0
H462 H 0.21199 0.93559 0.30732 0.0
C463 C 0.26541 0.93686 0.2213 0.0
C464 C 0.68744 0.0161 0.56064 0.0
C465 C 0.68593 0.0469 0.53778 0.0
H466 H 0.68598 0.9616 0.55745 0.0
C467 C 0.68713 0.04594 0.49287 0.0
H468 H 0.68648 0.01599 0.59529 0.0
C469 C 0.68752 1.01475 0.47122 0.0
C470 C 0.68593 0.98395 0.49407 0.0
H471 H 0.68613 0.06925 0.47441 0.0
H472 H 0.68662 1.01487 0.43657 0.0
C473 C 0.68705 0.98491 0.53899 0.0
C474 C 0.29714 0.43646 0.78994 0.0
C475 C 0.29799 0.43542 0.74501 0.0
H476 H 0.26618 0.43578 0.84635 0.0
C477 C 0.2671 0.43703 0.72228 0.0
H478 H 0.32052 0.43536 0.80831 0.0
C479 C 0.23594 0.4366 0.74404 0.0
C480 C 0.23509 0.43532 0.78895 0.0
H481 H 0.26689 0.4362 0.68763 0.0
H482 H 0.21256 0.43561 0.72566 0.0
C483 C 0.26598 0.43679 0.81171 0.0
C484 C 0.84497 0.04621 0.03908 0.0
C485 C 0.84611 0.04717 0.99416 0.0
H486 H 0.8455 1.01515 0.09537 0.0
C487 C 0.84453 0.01637 0.9713 0.0
H488 H 0.84603 0.06952 0.05755 0.0
C489 C 0.8449 0.98518 0.99294 0.0
C490 C 0.84608 0.98422 0.03785 0.0
H491 H 0.84544 0.01624 0.93665 0.0
H492 H 0.84592 0.96186 0.97447 0.0
C493 C 0.84457 1.01502 0.06072 0.0
C494 C 0.235 0.59489 0.28991 0.0
C495 C 0.23416 0.59591 0.24499 0.0
H496 H 0.26594 0.59557 0.34634 0.0
C497 C 0.26504 0.59427 0.22227 0.0
H498 H 0.21162 0.59601 0.30827 0.0
C499 C 0.2962 0.59468 0.24405 0.0
C500 C 0.29704 0.59598 0.28896 0.0
H501 H 0.26526 0.59508 0.18762 0.0
H502 H 0.31958 0.59564 0.22568 0.0
C503 C 0.26615 0.59453 0.3117 0.0
C504 C 0.3445 0.01667 0.56071 0.0
C505 C 0.34611 0.04747 0.53786 0.0
H506 H 0.34588 0.96217 0.55753 0.0
C507 C 0.345 0.0465 0.49294 0.0
H508 H 0.34538 0.01656 0.59536 0.0
C509 C 0.34462 1.01532 0.47129 0.0
C510 C 0.34611 0.98452 0.49415 0.0
H511 H 0.34609 0.06982 0.47448 0.0
H512 H 0.34559 1.01543 0.43664 0.0
C513 C 0.34488 0.98549 0.53906 0.0
C514 C 0.76618 0.59438 0.22092 0.0
C515 C 0.79706 0.59587 0.24368 0.0
H516 H 0.71164 0.59582 0.22429 0.0
C517 C 0.7962 0.59461 0.28859 0.0
H518 H 0.76598 0.59538 0.18627 0.0
C519 C 0.76504 0.59419 0.31034 0.0
C520 C 0.73415 0.5958 0.28759 0.0
H521 H 0.81957 0.59561 0.30698 0.0
H522 H 0.76524 0.59504 0.34499 0.0
C523 C 0.73501 0.59473 0.24267 0.0
C524 C 0.18702 0.98481 0.9929 0.0
C525 C 0.18593 0.98385 0.03782 0.0
H526 H 0.18644 0.01587 0.93661 0.0
C527 C 0.18755 1.01465 0.06068 0.0
H528 H 0.18592 0.96149 0.97444 0.0
C529 C 0.18718 0.04583 0.03903 0.0
C530 C 0.18595 0.0468 0.99412 0.0
H531 H 0.18668 1.01478 0.09533 0.0
H532 H 0.1862 0.06915 0.05751 0.0
C533 C 0.18742 0.01599 0.97126 0.0
C534 C 0.76602 0.43668 0.7209 0.0
C535 C 0.73512 0.43524 0.74362 0.0
H536 H 0.82055 0.43519 0.72433 0.0
C537 C 0.73596 0.43652 0.78854 0.0
H538 H 0.76623 0.43567 0.68625 0.0
C539 C 0.76711 0.43692 0.81032 0.0
C540 C 0.798 0.43527 0.78761 0.0
H541 H 0.71257 0.43556 0.8069 0.0
H542 H 0.76689 0.43609 0.84498 0.0
C543 C 0.79717 0.43632 0.74269 0.0
loop_
_geom_bond_atom_site_label_1
_geom_bond_atom_site_label_2
_geom_bond_distance
_geom_bond_site_symmetry_2
_ccdc_geom_bond_type
O0 Cd1 2.223 . S
O0 C8 1.315 . S
Cd1 O0 2.223 . S
Cd1 O4 2.297 . S
Cd1 O5 2.439 . S
Cd1 O11 2.240 . S
Cd2 O3 2.240 . S
Cd2 O10 2.223 . S
Cd2 O12 2.297 . S
Cd2 O13 2.439 . S
O3 Cd2 2.240 . S
O3 C8 1.279 . S
O4 Cd1 2.297 . S
O4 C6 1.247 . S
O5 Cd1 2.439 . S
O5 C6 1.208 . S
C6 O4 1.247 . S
C6 O5 1.208 . S
C7 O12 1.247 . S
C7 O13 1.208 . S
C8 O0 1.315 . S
C8 O3 1.279 . S
C9 O10 1.315 . S
C9 O11 1.279 . S
O10 Cd2 2.223 . S
O10 C9 1.315 . S
O11 Cd1 2.240 . S
O11 C9 1.279 . S
O12 Cd2 2.297 . S
O12 C7 1.247 . S
O13 Cd2 2.439 . S
O13 C7 1.208 . S
O14 Cd15 2.223 . S
O14 C22 1.315 . S
Cd15 O14 2.223 . S
Cd15 O18 2.297 . S
Cd15 O19 2.439 . S
Cd15 O25 2.240 . S
Cd16 O17 2.240 . S
Cd16 O24 2.223 . S
Cd16 O26 2.297 . S
Cd16 O27 2.439 . S
O17 Cd16 2.240 . S
O17 C22 1.279 . S
O18 Cd15 2.297 . S
O18 C20 1.247 . S
O19 Cd15 2.439 . S
O19 C20 1.208 . S
C20 O18 1.247 . S
C20 O19 1.208 . S
C21 O26 1.247 . S
C21 O27 1.208 . S
C22 O14 1.315 . S
C22 O17 1.279 . S
C23 O24 1.315 . S
C23 O25 1.279 . S
O24 Cd16 2.223 . S
O24 C23 1.315 . S
O25 Cd15 2.240 . S
O25 C23 1.279 . S
O26 Cd16 2.297 . S
O26 C21 1.247 . S
O27 Cd16 2.439 . S
O27 C21 1.208 . S
O28 Cd29 2.223 . S
O28 C36 1.315 . S
Cd29 O28 2.223 . S
Cd29 O32 2.297 . S
Cd29 O33 2.439 . S
Cd29 O39 2.240 . S
Cd30 O31 2.240 . S
Cd30 O38 2.223 . S
Cd30 O40 2.297 . S
Cd30 O41 2.439 . S
O31 Cd30 2.240 . S
O31 C36 1.279 . S
O32 Cd29 2.297 . S
O32 C34 1.247 . S
O33 Cd29 2.439 . S
O33 C34 1.208 . S
C34 O32 1.247 . S
C34 O33 1.208 . S
C35 O40 1.247 . S
C35 O41 1.208 . S
C36 O28 1.315 . S
C36 O31 1.279 . S
C37 O38 1.315 . S
C37 O39 1.279 . S
O38 Cd30 2.223 . S
O38 C37 1.315 . S
O39 Cd29 2.240 . S
O39 C37 1.279 . S
O40 Cd30 2.297 . S
O40 C35 1.247 . S
O41 Cd30 2.439 . S
O41 C35 1.208 . S
O42 Cd43 2.223 . S
O42 C50 1.315 . S
Cd43 O42 2.223 . S
Cd43 O46 2.297 . S
Cd43 O47 2.439 . S
Cd43 O53 2.240 . S
Cd44 O45 2.240 . S
Cd44 O52 2.223 . S
Cd44 O54 2.297 . S
Cd44 O55 2.439 . S
O45 Cd44 2.240 . S
O45 C50 1.279 . S
O46 Cd43 2.297 . S
O46 C48 1.247 . S
O47 Cd43 2.439 . S
O47 C48 1.208 . S
C48 O46 1.247 . S
C48 O47 1.208 . S
C49 O54 1.247 . S
C49 O55 1.208 . S
C50 O42 1.315 . S
C50 O45 1.279 . S
C51 O52 1.315 . S
C51 O53 1.279 . S
O52 Cd44 2.223 . S
O52 C51 1.315 . S
O53 Cd43 2.240 . S
O53 C51 1.279 . S
O54 Cd44 2.297 . S
O54 C49 1.247 . S
O55 Cd44 2.439 . S
O55 C49 1.208 . S
O56 Cd57 2.223 . S
O56 C64 1.315 . S
Cd57 O56 2.223 . S
Cd57 O60 2.297 . S
Cd57 O61 2.439 . S
Cd57 O67 2.240 . S
Cd58 O59 2.240 . S
Cd58 O66 2.223 . S
Cd58 O68 2.297 . S
Cd58 O69 2.439 . S
O59 Cd58 2.240 . S
O59 C64 1.279 . S
O60 Cd57 2.297 . S
O60 C62 1.247 . S
O61 Cd57 2.439 . S
O61 C62 1.208 . S
C62 O60 1.247 . S
C62 O61 1.208 . S
C63 O68 1.247 . S
C63 O69 1.208 . S
C64 O56 1.315 . S
C64 O59 1.279 . S
C65 O66 1.315 . S
C65 O67 1.279 . S
O66 Cd58 2.223 . S
O66 C65 1.315 . S
O67 Cd57 2.240 . S
O67 C65 1.279 . S
O68 Cd58 2.297 . S
O68 C63 1.247 . S
O69 Cd58 2.439 . S
O69 C63 1.208 . S
O70 Cd71 2.223 . S
O70 C78 1.315 . S
Cd71 O70 2.223 . S
Cd71 O74 2.297 . S
Cd71 O75 2.439 . S
Cd71 O81 2.240 . S
Cd72 O73 2.240 . S
Cd72 O80 2.223 . S
Cd72 O82 2.297 . S
Cd72 O83 2.439 . S
O73 Cd72 2.240 . S
O73 C78 1.279 . S
O74 Cd71 2.297 . S
O74 C76 1.247 . S
O75 Cd71 2.439 . S
O75 C76 1.208 . S
C76 O74 1.247 . S
C76 O75 1.208 . S
C77 O82 1.247 . S
C77 O83 1.208 . S
C78 O70 1.315 . S
C78 O73 1.279 . S
C79 O80 1.315 . S
C79 O81 1.279 . S
O80 Cd72 2.223 . S
O80 C79 1.315 . S
O81 Cd71 2.240 . S
O81 C79 1.279 . S
O82 Cd72 2.297 . S
O82 C77 1.247 . S
O83 Cd72 2.439 . S
O83 C77 1.208 . S
O84 Cd85 2.223 . S
O84 C92 1.315 . S
Cd85 O84 2.223 . S
Cd85 O88 2.297 . S
Cd85 O89 2.439 . S
Cd85 O95 2.240 . S
Cd86 O87 2.240 . S
Cd86 O94 2.223 . S
Cd86 O96 2.297 . S
Cd86 O97 2.439 . S
O87 Cd86 2.240 . S
O87 C92 1.279 . S
O88 Cd85 2.297 . S
O88 C90 1.247 . S
O89 Cd85 2.439 . S
O89 C90 1.208 . S
C90 O88 1.247 . S
C90 O89 1.208 . S
C91 O96 1.247 . S
C91 O97 1.208 . S
C92 O84 1.315 . S
C92 O87 1.279 . S
C93 O94 1.315 . S
C93 O95 1.279 . S
O94 Cd86 2.223 . S
O94 C93 1.315 . S
O95 Cd85 2.240 . S
O95 C93 1.279 . S
O96 Cd86 2.297 . S
O96 C91 1.247 . S
O97 Cd86 2.439 . S
O97 C91 1.208 . S
O98 Cd99 2.223 . S
O98 C106 1.315 . S
Cd99 O98 2.223 . S
Cd99 O102 2.297 . S
Cd99 O103 2.439 . S
Cd99 O109 2.240 . S
Cd100 O101 2.240 . S
Cd100 O108 2.223 . S
Cd100 O110 2.297 . S
Cd100 O111 2.439 . S
O101 Cd100 2.240 . S
O101 C106 1.279 . S
O102 Cd99 2.297 . S
O102 C104 1.247 . S
O103 Cd99 2.439 . S
O103 C104 1.208 . S
C104 O102 1.247 . S
C104 O103 1.208 . S
C105 O110 1.247 . S
C105 O111 1.208 . S
C106 O98 1.315 . S
C106 O101 1.279 . S
C107 O108 1.315 . S
C107 O109 1.279 . S
O108 Cd100 2.223 . S
O108 C107 1.315 . S
O109 Cd99 2.240 . S
O109 C107 1.279 . S
O110 Cd100 2.297 . S
O110 C105 1.247 . S
O111 Cd100 2.439 . S
O111 C105 1.208 . S
O112 Cd113 2.223 . S
O112 C120 1.315 . S
Cd113 O112 2.223 . S
Cd113 O116 2.297 . S
Cd113 O117 2.439 . S
Cd113 O123 2.240 . S
Cd114 O115 2.240 . S
Cd114 O122 2.223 . S
Cd114 O124 2.297 . S
Cd114 O125 2.439 . S
O115 Cd114 2.240 . S
O115 C120 1.279 . S
O116 Cd113 2.297 . S
O116 C118 1.247 . S
O117 Cd113 2.439 . S
O117 C118 1.208 . S
C118 O116 1.247 . S
C118 O117 1.208 . S
C119 O124 1.247 . S
C119 O125 1.208 . S
C120 O112 1.315 . S
C120 O115 1.279 . S
C121 O122 1.315 . S
C121 O123 1.279 . S
O122 Cd114 2.223 . S
O122 C121 1.315 . S
O123 Cd113 2.240 . S
O123 C121 1.279 . S
O124 Cd114 2.297 . S
O124 C119 1.247 . S
O125 Cd114 2.439 . S
O125 C119 1.208 . S
O126 Cd127 2.223 . S
O126 C134 1.315 . S
Cd127 O126 2.223 . S
Cd127 O130 2.297 . S
Cd127 O131 2.439 . S
Cd127 O137 2.240 . S
Cd128 O129 2.240 . S
Cd128 O136 2.223 . S
Cd128 O138 2.297 . S
Cd128 O139 2.439 . S
O129 Cd128 2.240 . S
O129 C134 1.279 . S
O130 Cd127 2.297 . S
O130 C132 1.247 . S
O131 Cd127 2.439 . S
O131 C132 1.208 . S
C132 O130 1.247 . S
C132 O131 1.208 . S
C133 O138 1.247 . S
C133 O139 1.208 . S
C134 O126 1.315 . S
C134 O129 1.279 . S
C135 O136 1.315 . S
C135 O137 1.279 . S
O136 Cd128 2.223 . S
O136 C135 1.315 . S
O137 Cd127 2.240 . S
O137 C135 1.279 . S
O138 Cd128 2.297 . S
O138 C133 1.247 . S
O139 Cd128 2.439 . S
O139 C133 1.208 . S
O140 Cd141 2.223 . S
O140 C148 1.315 . S
Cd141 O140 2.223 . S
Cd141 O144 2.297 . S
Cd141 O145 2.439 . S
Cd141 O151 2.240 . S
Cd142 O143 2.240 . S
Cd142 O150 2.223 . S
Cd142 O152 2.297 . S
Cd142 O153 2.439 . S
O143 Cd142 2.240 . S
O143 C148 1.279 . S
O144 Cd141 2.297 . S
O144 C146 1.247 . S
O145 Cd141 2.439 . S
O145 C146 1.208 . S
C146 O144 1.247 . S
C146 O145 1.208 . S
C147 O152 1.247 . S
C147 O153 1.208 . S
C148 O140 1.315 . S
C148 O143 1.279 . S
C149 O150 1.315 . S
C149 O151 1.279 . S
O150 Cd142 2.223 . S
O150 C149 1.315 . S
O151 Cd141 2.240 . S
O151 C149 1.279 . S
O152 Cd142 2.297 . S
O152 C147 1.247 . S
O153 Cd142 2.439 . S
O153 C147 1.208 . S
O154 Cd155 2.223 . S
O154 C162 1.315 . S
Cd155 O154 2.223 . S
Cd155 O158 2.297 . S
Cd155 O159 2.439 . S
Cd155 O165 2.240 . S
Cd156 O157 2.240 . S
Cd156 O164 2.223 . S
Cd156 O166 2.297 . S
Cd156 O167 2.439 . S
O157 Cd156 2.240 . S
O157 C162 1.279 . S
O158 Cd155 2.297 . S
O158 C160 1.247 . S
O159 Cd155 2.439 . S
O159 C160 1.208 . S
C160 O158 1.247 . S
C160 O159 1.208 . S
C161 O166 1.247 . S
C161 O167 1.208 . S
C162 O154 1.315 . S
C162 O157 1.279 . S
C163 O164 1.315 . S
C163 O165 1.279 . S
O164 Cd156 2.223 . S
O164 C163 1.315 . S
O165 Cd155 2.240 . S
O165 C163 1.279 . S
O166 Cd156 2.297 . S
O166 C161 1.247 . S
O167 Cd156 2.439 . S
O167 C161 1.208 . S
O168 Cd169 2.223 . S
O168 C176 1.315 . S
Cd169 O168 2.223 . S
Cd169 O172 2.297 . S
Cd169 O173 2.439 . S
Cd169 O179 2.240 . S
Cd170 O171 2.240 . S
Cd170 O178 2.223 . S
Cd170 O180 2.297 . S
Cd170 O181 2.439 . S
O171 Cd170 2.240 . S
O171 C176 1.279 . S
O172 Cd169 2.297 . S
O172 C174 1.247 . S
O173 Cd169 2.439 . S
O173 C174 1.208 . S
C174 O172 1.247 . S
C174 O173 1.208 . S
C175 O180 1.247 . S
C175 O181 1.208 . S
C176 O168 1.315 . S
C176 O171 1.279 . S
C177 O178 1.315 . S
C177 O179 1.279 . S
O178 Cd170 2.223 . S
O178 C177 1.315 . S
O179 Cd169 2.240 . S
O179 C177 1.279 . S
O180 Cd170 2.297 . S
O180 C175 1.247 . S
O181 Cd170 2.439 . S
O181 C175 1.208 . S
O182 Cd183 2.223 . S
O182 C190 1.315 . S
Cd183 O182 2.223 . S
Cd183 O186 2.297 . S
Cd183 O187 2.439 . S
Cd183 O193 2.240 . S
Cd184 O185 2.240 . S
Cd184 O192 2.223 . S
Cd184 O194 2.297 . S
Cd184 O195 2.439 . S
O185 Cd184 2.240 . S
O185 C190 1.279 . S
O186 Cd183 2.297 . S
O186 C188 1.247 . S
O187 Cd183 2.439 . S
O187 C188 1.208 . S
C188 O186 1.247 . S
C188 O187 1.208 . S
C189 O194 1.247 . S
C189 O195 1.208 . S
C190 O182 1.315 . S
C190 O185 1.279 . S
C191 O192 1.315 . S
C191 O193 1.279 . S
O192 Cd184 2.223 . S
O192 C191 1.315 . S
O193 Cd183 2.240 . S
O193 C191 1.279 . S
O194 Cd184 2.297 . S
O194 C189 1.247 . S
O195 Cd184 2.439 . S
O195 C189 1.208 . S
O196 Cd197 2.223 . S
O196 C204 1.315 . S
Cd197 O196 2.223 . S
Cd197 O200 2.297 . S
Cd197 O201 2.439 . S
Cd197 O207 2.240 . S
Cd198 O199 2.240 . S
Cd198 O206 2.223 . S
Cd198 O208 2.297 . S
Cd198 O209 2.439 . S
O199 Cd198 2.240 . S
O199 C204 1.279 . S
O200 Cd197 2.297 . S
O200 C202 1.247 . S
O201 Cd197 2.439 . S
O201 C202 1.208 . S
C202 O200 1.247 . S
C202 O201 1.208 . S
C203 O208 1.247 . S
C203 O209 1.208 . S
C204 O196 1.315 . S
C204 O199 1.279 . S
C205 O206 1.315 . S
C205 O207 1.279 . S
O206 Cd198 2.223 . S
O206 C205 1.315 . S
O207 Cd197 2.240 . S
O207 C205 1.279 . S
O208 Cd198 2.297 . S
O208 C203 1.247 . S
O209 Cd198 2.439 . S
O209 C203 1.208 . S
O210 Cd211 2.223 . S
O210 C218 1.315 . S
Cd211 O210 2.223 . S
Cd211 O214 2.297 . S
Cd211 O215 2.439 . S
Cd211 O221 2.240 . S
Cd212 O213 2.240 . S
Cd212 O220 2.223 . S
Cd212 O222 2.297 . S
Cd212 O223 2.439 . S
O213 Cd212 2.240 . S
O213 C218 1.279 . S
O214 Cd211 2.297 . S
O214 C216 1.247 . S
O215 Cd211 2.439 . S
O215 C216 1.208 . S
C216 O214 1.247 . S
C216 O215 1.208 . S
C217 O222 1.247 . S
C217 O223 1.208 . S
C218 O210 1.315 . S
C218 O213 1.279 . S
C219 O220 1.315 . S
C219 O221 1.279 . S
O220 Cd212 2.223 . S
O220 C219 1.315 . S
O221 Cd211 2.240 . S
O221 C219 1.279 . S
O222 Cd212 2.297 . S
O222 C217 1.247 . S
O223 Cd212 2.439 . S
O223 C217 1.208 . S
C224 C225 1.387 . S
C224 H228 0.950 . S
C224 C233 1.390 . S
C225 C224 1.387 . S
C225 C227 1.387 . S
H226 C233 0.950 . S
C227 C225 1.387 . S
C227 C229 1.390 . S
C227 H231 0.950 . S
H228 C224 0.950 . S
C229 C227 1.390 . S
C229 C230 1.387 . S
C229 H232 0.950 . S
C230 C229 1.387 . S
C230 C233 1.387 . S
H231 C227 0.950 . S
H232 C229 0.950 . S
C233 C224 1.390 . S
C233 H226 0.950 . S
C233 C230 1.387 . S
C234 C235 1.387 . S
C234 H238 0.950 . S
C234 C243 1.390 . S
C235 C234 1.387 . S
C235 C237 1.387 . S
H236 C243 0.950 . S
C237 C235 1.387 . S
C237 C239 1.390 . S
C237 H241 0.950 . S
H238 C234 0.950 . S
C239 C237 1.390 . S
C239 C240 1.387 . S
C239 H242 0.950 . S
C240 C239 1.387 . S
C240 C243 1.387 . S
H241 C237 0.950 . S
H242 C239 0.950 . S
C243 C234 1.390 . S
C243 H236 0.950 . S
C243 C240 1.387 . S
C244 C245 1.387 . S
C244 H248 0.950 . S
C244 C253 1.390 . S
C245 C244 1.387 . S
C245 C247 1.387 . S
H246 C253 0.950 . S
C247 C245 1.387 . S
C247 C249 1.390 . S
C247 H251 0.950 . S
H248 C244 0.950 . S
C249 C247 1.390 . S
C249 C250 1.387 . S
C249 H252 0.950 . S
C250 C249 1.387 . S
C250 C253 1.387 . S
H251 C247 0.950 . S
H252 C249 0.950 . S
C253 C244 1.390 . S
C253 H246 0.950 . S
C253 C250 1.387 . S
C254 C255 1.387 . S
C254 H258 0.950 . S
C254 C263 1.390 1_455 S
C255 C254 1.387 . S
C255 C257 1.387 . S
H256 C263 0.950 . S
C257 C255 1.387 . S
C257 C259 1.390 1_455 S
C257 H261 0.950 . S
H258 C254 0.950 . S
C259 C257 1.390 1_655 S
C259 C260 1.387 . S
C259 H262 0.950 . S
C260 C259 1.387 . S
C260 C263 1.387 . S
H261 C257 0.950 . S
H262 C259 0.950 . S
C263 C254 1.390 1_655 S
C263 H256 0.950 . S
C263 C260 1.387 . S
C264 C265 1.387 . S
C264 H268 0.950 . S
C264 C273 1.390 . S
C265 C264 1.387 . S
C265 C267 1.387 . S
H266 C273 0.950 . S
C267 C265 1.387 . S
C267 C269 1.390 . S
C267 H271 0.950 . S
H268 C264 0.950 . S
C269 C267 1.390 . S
C269 C270 1.387 . S
C269 H272 0.950 . S
C270 C269 1.387 . S
C270 C273 1.387 . S
H271 C267 0.950 . S
H272 C269 0.950 . S
C273 C264 1.390 . S
C273 H266 0.950 . S
C273 C270 1.387 . S
C274 C275 1.387 . S
C274 H278 0.950 . S
C274 C283 1.390 1_655 S
C275 C274 1.387 . S
C275 C277 1.387 . S
H276 C283 0.950 . S
C277 C275 1.387 . S
C277 C279 1.390 1_655 S
C277 H281 0.950 . S
H278 C274 0.950 . S
C279 C277 1.390 1_455 S
C279 C280 1.387 . S
C279 H282 0.950 . S
C280 C279 1.387 . S
C280 C283 1.387 . S
H281 C277 0.950 . S
H282 C279 0.950 . S
C283 C274 1.390 1_455 S
C283 H276 0.950 . S
C283 C280 1.387 . S
C284 C285 1.387 . S
C284 H288 0.950 . S
C284 C293 1.390 . S
C285 C284 1.387 . S
C285 C287 1.387 . S
H286 C293 0.950 . S
C287 C285 1.387 . S
C287 C289 1.390 . S
C287 H291 0.950 . S
H288 C284 0.950 . S
C289 C287 1.390 . S
C289 C290 1.387 . S
C289 H292 0.950 . S
C290 C289 1.387 . S
C290 C293 1.387 . S
H291 C287 0.950 . S
H292 C289 0.950 . S
C293 C284 1.390 . S
C293 H286 0.950 . S
C293 C290 1.387 . S
C294 C295 1.387 . S
C294 H298 0.950 . S
C294 C303 1.390 . S
C295 C294 1.387 . S
C295 C297 1.387 . S
H296 C303 0.950 . S
C297 C295 1.387 . S
C297 C299 1.390 . S
C297 H301 0.950 . S
H298 C294 0.950 . S
C299 C297 1.390 . S
C299 C300 1.387 . S
C299 H302 0.950 . S
C300 C299 1.387 . S
C300 C303 1.387 . S
H301 C297 0.950 . S
H302 C299 0.950 . S
C303 C294 1.390 . S
C303 H296 0.950 . S
C303 C300 1.387 . S
C304 C305 1.387 . S
C304 H308 0.950 . S
C304 C313 1.390 . S
C305 C304 1.387 . S
C305 C307 1.387 . S
H306 C313 0.950 . S
C307 C305 1.387 . S
C307 C309 1.390 . S
C307 H311 0.950 . S
H308 C304 0.950 . S
C309 C307 1.390 . S
C309 C310 1.387 . S
C309 H312 0.950 . S
C310 C309 1.387 . S
C310 C313 1.387 . S
H311 C307 0.950 . S
H312 C309 0.950 . S
C313 C304 1.390 . S
C313 H306 0.950 . S
C313 C310 1.387 . S
C314 C315 1.387 . S
C314 H318 0.950 . S
C314 C323 1.390 . S
C315 C314 1.387 . S
C315 C317 1.387 . S
H316 C323 0.950 . S
C317 C315 1.387 . S
C317 C319 1.390 . S
C317 H321 0.950 . S
H318 C314 0.950 . S
C319 C317 1.390 . S
C319 C320 1.387 . S
C319 H322 0.950 . S
C320 C319 1.387 . S
C320 C323 1.387 . S
H321 C317 0.950 . S
H322 C319 0.950 . S
C323 C314 1.390 . S
C323 H316 0.950 . S
C323 C320 1.387 . S
C324 C325 1.387 . S
C324 H328 0.950 . S
C324 C333 1.390 . S
C325 C324 1.387 . S
C325 C327 1.387 . S
H326 C333 0.950 . S
C327 C325 1.387 . S
C327 C329 1.390 . S
C327 H331 0.950 . S
H328 C324 0.950 . S
C329 C327 1.390 . S
C329 C330 1.387 . S
C329 H332 0.950 . S
C330 C329 1.387 . S
C330 C333 1.387 . S
H331 C327 0.950 . S
H332 C329 0.950 . S
C333 C324 1.390 . S
C333 H326 0.950 . S
C333 C330 1.387 . S
C334 C335 1.387 . S
C334 H338 0.950 . S
C334 C343 1.390 . S
C335 C334 1.387 . S
C335 C337 1.387 . S
H336 C343 0.950 . S
C337 C335 1.387 . S
C337 C339 1.390 . S
C337 H341 0.950 . S
H338 C334 0.950 . S
C339 C337 1.390 . S
C339 C340 1.387 . S
C339 H342 0.950 . S
C340 C339 1.387 . S
C340 C343 1.387 . S
H341 C337 0.950 . S
H342 C339 0.950 . S
C343 C334 1.390 . S
C343 H336 0.950 . S
C343 C340 1.387 . S
C344 C345 1.387 . S
C344 H348 0.950 . S
C344 C353 1.390 1_455 S
C345 C344 1.387 . S
C345 C347 1.387 . S
H346 C353 0.950 . S
C347 C345 1.387 . S
C347 C349 1.390 1_455 S
C347 H351 0.950 . S
H348 C344 0.950 . S
C349 C347 1.390 1_655 S
C349 C350 1.387 . S
C349 H352 0.950 . S
C350 C349 1.387 . S
C350 C353 1.387 . S
H351 C347 0.950 . S
H352 C349 0.950 . S
C353 C344 1.390 1_655 S
C353 H346 0.950 . S
C353 C350 1.387 . S
C354 C355 1.387 . S
C354 H358 0.950 . S
C354 C363 1.390 . S
C355 C354 1.387 . S
C355 C357 1.387 . S
H356 C363 0.950 . S
C357 C355 1.387 . S
C357 C359 1.390 . S
C357 H361 0.950 . S
H358 C354 0.950 . S
C359 C357 1.390 . S
C359 C360 1.387 . S
C359 H362 0.950 . S
C360 C359 1.387 . S
C360 C363 1.387 . S
H361 C357 0.950 . S
H362 C359 0.950 . S
C363 C354 1.390 . S
C363 H356 0.950 . S
C363 C360 1.387 . S
C364 C365 1.387 . S
C364 H368 0.950 . S
C364 C373 1.390 . S
C365 C364 1.387 . S
C365 C367 1.387 . S
H366 C373 0.950 . S
C367 C365 1.387 . S
C367 C369 1.390 . S
C367 H371 0.950 . S
H368 C364 0.950 . S
C369 C367 1.390 . S
C369 C370 1.387 . S
C369 H372 0.950 . S
C370 C369 1.387 . S
C370 C373 1.387 . S
H371 C367 0.950 . S
H372 C369 0.950 . S
C373 C364 1.390 . S
C373 H366 0.950 . S
C373 C370 1.387 . S
C374 C375 1.387 . S
C374 H378 0.950 . S
C374 C383 1.390 1_455 S
C375 C374 1.387 . S
C375 C377 1.387 . S
H376 C383 0.950 . S
C377 C375 1.387 . S
C377 C379 1.390 1_455 S
C377 H381 0.950 . S
H378 C374 0.950 . S
C379 C377 1.390 1_655 S
C379 C380 1.387 . S
C379 H382 0.950 . S
C380 C379 1.387 . S
C380 C383 1.387 . S
H381 C377 0.950 . S
H382 C379 0.950 . S
C383 C374 1.390 1_655 S
C383 H376 0.950 . S
C383 C380 1.387 . S
C384 C385 1.387 . S
C384 H388 0.950 . S
C384 C393 1.390 1_554 S
C385 C384 1.387 . S
C385 C387 1.387 . S
H386 C393 0.950 . S
C387 C385 1.387 . S
C387 C389 1.390 1_554 S
C387 H391 0.950 . S
H388 C384 0.950 . S
C389 C387 1.390 1_556 S
C389 C390 1.387 . S
C389 H392 0.950 . S
C390 C389 1.387 . S
C390 C393 1.387 . S
H391 C387 0.950 . S
H392 C389 0.950 . S
C393 C384 1.390 1_556 S
C393 H386 0.950 . S
C393 C390 1.387 . S
C394 C395 1.387 . S
C394 H398 0.950 . S
C394 C403 1.390 . S
C395 C394 1.387 . S
C395 C397 1.387 . S
H396 C403 0.950 . S
C397 C395 1.387 . S
C397 C399 1.390 . S
C397 H401 0.950 . S
H398 C394 0.950 . S
C399 C397 1.390 . S
C399 C400 1.387 . S
C399 H402 0.950 . S
C400 C399 1.387 . S
C400 C403 1.387 . S
H401 C397 0.950 . S
H402 C399 0.950 . S
C403 C394 1.390 . S
C403 H396 0.950 . S
C403 C400 1.387 . S
C404 C405 1.387 . S
C404 H408 0.950 . S
C404 C413 1.390 . S
C405 C404 1.387 . S
C405 C407 1.387 . S
H406 C413 0.950 . S
C407 C405 1.387 . S
C407 C409 1.390 . S
C407 H411 0.950 . S
H408 C404 0.950 . S
C409 C407 1.390 . S
C409 C410 1.387 . S
C409 H412 0.950 . S
C410 C409 1.387 . S
C410 C413 1.387 . S
H411 C407 0.950 . S
H412 C409 0.950 . S
C413 C404 1.390 . S
C413 H406 0.950 . S
C413 C410 1.387 . S
C414 C415 1.387 . S
C414 H418 0.950 . S
C414 C423 1.390 . S
C415 C414 1.387 . S
C415 C417 1.387 . S
H416 C423 0.950 . S
C417 C415 1.387 . S
C417 C419 1.390 . S
C417 H421 0.950 . S
H418 C414 0.950 . S
C419 C417 1.390 . S
C419 C420 1.387 . S
C419 H422 0.950 . S
C420 C419 1.387 . S
C420 C423 1.387 . S
H421 C417 0.950 . S
H422 C419 0.950 . S
C423 C414 1.390 . S
C423 H416 0.950 . S
C423 C420 1.387 . S
C424 C425 1.387 . S
C424 H428 0.950 . S
C424 C433 1.390 1_556 S
C425 C424 1.387 . S
C425 C427 1.387 . S
H426 C433 0.950 . S
C427 C425 1.387 . S
C427 C429 1.390 1_556 S
C427 H431 0.950 . S
H428 C424 0.950 . S
C429 C427 1.390 1_554 S
C429 C430 1.387 . S
C429 H432 0.950 . S
C430 C429 1.387 . S
C430 C433 1.387 . S
H431 C427 0.950 . S
H432 C429 0.950 . S
C433 C424 1.390 1_554 S
C433 H426 0.950 . S
C433 C430 1.387 . S
C434 C435 1.387 . S
C434 H438 0.950 . S
C434 C443 1.390 . S
C435 C434 1.387 . S
C435 C437 1.387 . S
H436 C443 0.950 . S
C437 C435 1.387 . S
C437 C439 1.390 . S
C437 H441 0.950 . S
H438 C434 0.950 . S
C439 C437 1.390 . S
C439 C440 1.387 . S
C439 H442 0.950 . S
C440 C439 1.387 . S
C440 C443 1.387 . S
H441 C437 0.950 . S
H442 C439 0.950 . S
C443 C434 1.390 . S
C443 H436 0.950 . S
C443 C440 1.387 . S
C444 C445 1.387 . S
C444 H448 0.950 . S
C444 C453 1.390 . S
C445 C444 1.387 . S
C445 C447 1.387 . S
H446 C453 0.950 . S
C447 C445 1.387 . S
C447 C449 1.390 . S
C447 H451 0.950 . S
H448 C444 0.950 . S
C449 C447 1.390 . S
C449 C450 1.387 . S
C449 H452 0.950 . S
C450 C449 1.387 . S
C450 C453 1.387 . S
H451 C447 0.950 . S
H452 C449 0.950 . S
C453 C444 1.390 . S
C453 H446 0.950 . S
C453 C450 1.387 . S
C454 C455 1.387 . S
C454 H458 0.950 . S
C454 C463 1.390 . S
C455 C454 1.387 . S
C455 C457 1.387 . S
H456 C463 0.950 . S
C457 C455 1.387 . S
C457 C459 1.390 . S
C457 H461 0.950 . S
H458 C454 0.950 . S
C459 C457 1.390 . S
C459 C460 1.387 . S
C459 H462 0.950 . S
C460 C459 1.387 . S
C460 C463 1.387 . S
H461 C457 0.950 . S
H462 C459 0.950 . S
C463 C454 1.390 . S
C463 H456 0.950 . S
C463 C460 1.387 . S
C464 C465 1.387 . S
C464 H468 0.950 . S
C464 C473 1.390 1_545 S
C465 C464 1.387 . S
C465 C467 1.387 . S
H466 C473 0.950 . S
C467 C465 1.387 . S
C467 C469 1.390 1_545 S
C467 H471 0.950 . S
H468 C464 0.950 . S
C469 C467 1.390 1_565 S
C469 C470 1.387 . S
C469 H472 0.950 . S
C470 C469 1.387 . S
C470 C473 1.387 . S
H471 C467 0.950 . S
H472 C469 0.950 . S
C473 C464 1.390 1_565 S
C473 H466 0.950 . S
C473 C470 1.387 . S
C474 C475 1.387 . S
C474 H478 0.950 . S
C474 C483 1.390 . S
C475 C474 1.387 . S
C475 C477 1.387 . S
H476 C483 0.950 . S
C477 C475 1.387 . S
C477 C479 1.390 . S
C477 H481 0.950 . S
H478 C474 0.950 . S
C479 C477 1.390 . S
C479 C480 1.387 . S
C479 H482 0.950 . S
C480 C479 1.387 . S
C480 C483 1.387 . S
H481 C477 0.950 . S
H482 C479 0.950 . S
C483 C474 1.390 . S
C483 H476 0.950 . S
C483 C480 1.387 . S
C484 C485 1.387 . S
C484 H488 0.950 . S
C484 C493 1.390 1_546 S
C485 C484 1.387 . S
C485 C487 1.387 . S
H486 C493 0.950 . S
C487 C485 1.387 . S
C487 C489 1.390 1_546 S
C487 H491 0.950 . S
H488 C484 0.950 . S
C489 C487 1.390 1_564 S
C489 C490 1.387 . S
C489 H492 0.950 . S
C490 C489 1.387 . S
C490 C493 1.387 . S
H491 C487 0.950 . S
H492 C489 0.950 . S
C493 C484 1.390 1_564 S
C493 H486 0.950 . S
C493 C490 1.387 . S
C494 C495 1.387 . S
C494 H498 0.950 . S
C494 C503 1.390 . S
C495 C494 1.387 . S
C495 C497 1.387 . S
H496 C503 0.950 . S
C497 C495 1.387 . S
C497 C499 1.390 . S
C497 H501 0.950 . S
H498 C494 0.950 . S
C499 C497 1.390 . S
C499 C500 1.387 . S
C499 H502 0.950 . S
C500 C499 1.387 . S
C500 C503 1.387 . S
H501 C497 0.950 . S
H502 C499 0.950 . S
C503 C494 1.390 . S
C503 H496 0.950 . S
C503 C500 1.387 . S
C504 C505 1.387 . S
C504 H508 0.950 . S
C504 C513 1.390 1_545 S
C505 C504 1.387 . S
C505 C507 1.387 . S
H506 C513 0.950 . S
C507 C505 1.387 . S
C507 C509 1.390 1_545 S
C507 H511 0.950 . S
H508 C504 0.950 . S
C509 C507 1.390 1_565 S
C509 C510 1.387 . S
C509 H512 0.950 . S
C510 C509 1.387 . S
C510 C513 1.387 . S
H511 C507 0.950 . S
H512 C509 0.950 . S
C513 C504 1.390 1_565 S
C513 H506 0.950 . S
C513 C510 1.387 . S
C514 C515 1.387 . S
C514 H518 0.950 . S
C514 C523 1.390 . S
C515 C514 1.387 . S
C515 C517 1.387 . S
H516 C523 0.950 . S
C517 C515 1.387 . S
C517 C519 1.390 . S
C517 H521 0.950 . S
H518 C514 0.950 . S
C519 C517 1.390 . S
C519 C520 1.387 . S
C519 H522 0.950 . S
C520 C519 1.387 . S
C520 C523 1.387 . S
H521 C517 0.950 . S
H522 C519 0.950 . S
C523 C514 1.390 . S
C523 H516 0.950 . S
C523 C520 1.387 . S
C524 C525 1.387 . S
C524 H528 0.950 . S
C524 C533 1.390 1_564 S
C525 C524 1.387 . S
C525 C527 1.387 . S
H526 C533 0.950 . S
C527 C525 1.387 . S
C527 C529 1.390 1_564 S
C527 H531 0.950 . S
H528 C524 0.950 . S
C529 C527 1.390 1_546 S
C529 C530 1.387 . S
C529 H532 0.950 . S
C530 C529 1.387 . S
C530 C533 1.387 . S
H531 C527 0.950 . S
H532 C529 0.950 . S
C533 C524 1.390 1_546 S
C533 H526 0.950 . S
C533 C530 1.387 . S
C534 C535 1.387 . S
C534 H538 0.950 . S
C534 C543 1.390 . S
C535 C534 1.387 . S
C535 C537 1.387 . S
H536 C543 0.950 . S
C537 C535 1.387 . S
C537 C539 1.390 . S
C537 H541 0.950 . S
H538 C534 0.950 . S
C539 C537 1.390 . S
C539 C540 1.387 . S
C539 H542 0.950 . S
C540 C539 1.387 . S
C540 C543 1.387 . S
H541 C537 0.950 . S
H542 C539 0.950 . S
C543 C534 1.390 . S
C543 H536 0.950 . S
C543 C540 1.387 . S
C225 C163 1.435 . S
C230 C8 1.435 . S
C235 C219 1.437 . S
C240 C23 1.434 . S
C245 C36 1.434 . S
C250 C134 1.437 . S
C255 C191 1.435 . S
C260 C50 1.436 . S
C265 C64 1.436 . S
C270 C190 1.435 . S
C275 C79 1.436 . S
C280 C162 1.434 . S
C285 C93 1.435 . S
C290 C218 1.436 . S
C295 C107 1.437 . S
C300 C135 1.434 . S
C305 C51 1.435 . S
C310 C120 1.435 . S
C315 C148 1.437 . S
C320 C22 1.434 . S
C325 C176 1.434 . S
C330 C78 1.436 . S
C335 C205 1.435 . S
C340 C106 1.436 . S
C345 C65 1.434 . S
C350 C121 1.437 . S
C355 C149 1.436 . S
C360 C92 1.435 . S
C365 C204 1.436 . S
C370 C37 1.435 . S
C375 C9 1.435 . S
C380 C177 1.436 . S
C385 C7 1.445 . S
C390 C63 1.445 . S
C395 C20 1.445 . S
C400 C76 1.445 . S
C405 C35 1.443 . S
C410 C90 1.443 . S
C415 C104 1.443 . S
C420 C49 1.443 . S
C425 C119 1.443 . S
C430 C175 1.443 . S
C435 C188 1.445 . S
C440 C132 1.445 . S
C445 C147 1.443 . S
C450 C202 1.443 . S
C455 C216 1.445 . S
C460 C161 1.445 . S
C465 C105 1.445 . S
C470 C21 1.445 . S
C475 C34 1.445 . S
C480 C62 1.445 . S
C485 C48 1.445 . S
C490 C77 1.445 . S
C495 C6 1.445 . S
C500 C91 1.445 . S
C505 C133 1.443 . S
C510 C217 1.443 . S
C515 C174 1.445 . S
C520 C146 1.445 . S
C525 C160 1.445 . S
C530 C189 1.445 . S
C535 C203 1.443 . S
C540 C118 1.443 . S
