# Generated by pormake.
# Topology ukb, (4)-cn, num edge types: 1
# Building blocks:
#     Node 0, Type 0, BuildingBlock: GALJAG_clean_sbu_0, # of connection points: 4
#     Node 1, Type 0, BuildingBlock: GALJAG_clean_sbu_0, # of connection points: 4
#     Node 2, Type 0, BuildingBlock: GALJAG_clean_sbu_0, # of connection points: 4
#     Node 3, Type 0, BuildingBlock: GALJAG_clean_sbu_0, # of connection points: 4
#     Node 4, Type 0, BuildingBlock: GALJAG_clean_sbu_0, # of connection points: 4
#     Node 5, Type 0, BuildingBlock: GALJAG_clean_sbu_0, # of connection points: 4
#     Node 6, Type 0, BuildingBlock: GALJAG_clean_sbu_0, # of connection points: 4
#     Node 7, Type 0, BuildingBlock: GALJAG_clean_sbu_0, # of connection points: 4
#     Node 8, Type 0, BuildingBlock: GALJAG_clean_sbu_0, # of connection points: 4
#     Node 9, Type 0, BuildingBlock: GALJAG_clean_sbu_0, # of connection points: 4
#     Node 10, Type 0, BuildingBlock: GALJAG_clean_sbu_0, # of connection points: 4
#     Node 11, Type 0, BuildingBlock: GALJAG_clean_sbu_0, # of connection points: 4
#     Node 12, Type 0, BuildingBlock: GALJAG_clean_sbu_0, # of connection points: 4
#     Node 13, Type 0, BuildingBlock: GALJAG_clean_sbu_0, # of connection points: 4
#     Node 14, Type 0, BuildingBlock: GALJAG_clean_sbu_0, # of connection points: 4
#     Node 15, Type 0, BuildingBlock: GALJAG_clean_sbu_0, # of connection points: 4
#     Edge 16, Type (0, 0), BuildingBlock: TEMPAE_clean_linker_10, # of connection points: 2
#     Edge 17, Type (0, 0), BuildingBlock: TEMPAE_clean_linker_10, # of connection points: 2
#     Edge 18, Type (0, 0), BuildingBlock: TEMPAE_clean_linker_10, # of connection points: 2
#     Edge 19, Type (0, 0), BuildingBlock: TEMPAE_clean_linker_10, # of connection points: 2
#     Edge 20, Type (0, 0), BuildingBlock: TEMPAE_clean_linker_10, # of connection points: 2
#     Edge 21, Type (0, 0), BuildingBlock: TEMPAE_clean_linker_10, # of connection points: 2
#     Edge 22, Type (0, 0), BuildingBlock: TEMPAE_clean_linker_10, # of connection points: 2
#     Edge 23, Type (0, 0), BuildingBlock: TEMPAE_clean_linker_10, # of connection points: 2
#     Edge 24, Type (0, 0), BuildingBlock: TEMPAE_clean_linker_10, # of connection points: 2
#     Edge 25, Type (0, 0), BuildingBlock: TEMPAE_clean_linker_10, # of connection points: 2
#     Edge 26, Type (0, 0), BuildingBlock: TEMPAE_clean_linker_10, # of connection points: 2
#     Edge 27, Type (0, 0), BuildingBlock: TEMPAE_clean_linker_10, # of connection points: 2
#     Edge 28, Type (0, 0), BuildingBlock: TEMPAE_clean_linker_10, # of connection points: 2
#     Edge 29, Type (0, 0), BuildingBlock: TEMPAE_clean_linker_10, # of connection points: 2
#     Edge 30, Type (0, 0), BuildingBlock: TEMPAE_clean_linker_10, # of connection points: 2
#     Edge 31, Type (0, 0), BuildingBlock: TEMPAE_clean_linker_10, # of connection points: 2
#     Edge 32, Type (0, 0), BuildingBlock: TEMPAE_clean_linker_10, # of connection points: 2
#     Edge 33, Type (0, 0), BuildingBlock: TEMPAE_clean_linker_10, # of connection points: 2
#     Edge 34, Type (0, 0), BuildingBlock: TEMPAE_clean_linker_10, # of connection points: 2
#     Edge 35, Type (0, 0), BuildingBlock: TEMPAE_clean_linker_10, # of connection points: 2
#     Edge 36, Type (0, 0), BuildingBlock: TEMPAE_clean_linker_10, # of connection points: 2
#     Edge 37, Type (0, 0), BuildingBlock: TEMPAE_clean_linker_10, # of connection points: 2
#     Edge 38, Type (0, 0), BuildingBlock: TEMPAE_clean_linker_10, # of connection points: 2
#     Edge 39, Type (0, 0), BuildingBlock: TEMPAE_clean_linker_10, # of connection points: 2
#     Edge 40, Type (0, 0), BuildingBlock: TEMPAE_clean_linker_10, # of connection points: 2
#     Edge 41, Type (0, 0), BuildingBlock: TEMPAE_clean_linker_10, # of connection points: 2
#     Edge 42, Type (0, 0), BuildingBlock: TEMPAE_clean_linker_10, # of connection points: 2
#     Edge 43, Type (0, 0), BuildingBlock: TEMPAE_clean_linker_10, # of connection points: 2
#     Edge 44, Type (0, 0), BuildingBlock: TEMPAE_clean_linker_10, # of connection points: 2
#     Edge 45, Type (0, 0), BuildingBlock: TEMPAE_clean_linker_10, # of connection points: 2
#     Edge 46, Type (0, 0), BuildingBlock: TEMPAE_clean_linker_10, # of connection points: 2
#     Edge 47, Type (0, 0), BuildingBlock: TEMPAE_clean_linker_10, # of connection points: 2
# Relax obj value: 0.140
# Max RMSD: 0.093
# Mean RMSD: 0.093
data_MOF--net-ukb--node1-GALJAG_clean_sbu_0--edge1-TEMPAE_clean_linker_10
_symmetry_space_group_name_H-M    P1
_symmetry_Int_Tables_number       1
_symmetry_cell_setting            triclinic
loop_
_symmetry_equiv_pos_as_xyz
'x, y, z'
_cell_length_a     44.997746
_cell_length_b     44.973161
_cell_length_c     38.454224
_cell_angle_alpha  89.971209
_cell_angle_beta   89.984682
_cell_angle_gamma 89.925865
loop_
_atom_site_label
_atom_site_type_symbol
_atom_site_fract_x
_atom_site_fract_y
_atom_site_fract_z
_atom_type_partial_charge
In0 In 0.52121 0.19675 0.17998 0.0
O1 O 0.55984 0.16588 0.16794 0.0
O2 O 0.54532 0.16869 0.22051 0.0
C3 C 0.50954 0.21236 0.1138 0.0
C4 C 0.47209 0.16758 0.20052 0.0
C5 C 0.54481 0.24739 0.2053 0.0
O6 O 0.52717 0.19164 0.12171 0.0
O7 O 0.49738 0.22505 0.13935 0.0
O8 O 0.51806 0.24033 0.21083 0.0
O9 O 0.55927 0.22897 0.18735 0.0
C10 C 0.56327 0.1574 0.19897 0.0
O11 O 0.48094 0.19085 0.21568 0.0
O12 O 0.48773 0.15957 0.175 0.0
In13 In 0.29825 0.52152 0.67619 0.0
O14 O 0.30513 0.48162 0.71228 0.0
O15 O 0.33038 0.48388 0.66566 0.0
C16 C 0.25123 0.54847 0.70602 0.0
C17 C 0.34142 0.56055 0.69211 0.0
C18 C 0.27745 0.51272 0.61152 0.0
O19 O 0.25569 0.52085 0.70912 0.0
O20 O 0.27038 0.56204 0.68818 0.0
O21 O 0.3006 0.52757 0.61775 0.0
O22 O 0.26486 0.50197 0.638 0.0
C23 C 0.32476 0.46984 0.69324 0.0
O24 O 0.33095 0.55799 0.66181 0.0
O25 O 0.3304 0.54303 0.71431 0.0
In26 In 0.96713 0.29168 0.1817 0.0
O27 O 0.00689 0.29993 0.21753 0.0
O28 O 0.00398 0.32445 0.17042 0.0
C29 C 0.94361 0.24278 0.21151 0.0
C30 C 0.92659 0.33359 0.19784 0.0
C31 C 0.97631 0.27273 0.11627 0.0
O32 O 0.97092 0.24888 0.21394 0.0
O33 O 0.92854 0.26133 0.19443 0.0
O34 O 0.96061 0.29515 0.12341 0.0
O35 O 0.98753 0.25977 0.14223 0.0
C36 C 0.01827 0.31937 0.19794 0.0
O37 O 0.92868 0.32227 0.16793 0.0
O38 O 0.94518 0.3239 0.21971 0.0
In39 In 0.20727 0.97938 0.6972 0.0
O40 O 0.19523 0.01624 0.73595 0.0
O41 O 0.18173 0.02125 0.68344 0.0
C42 C 0.25662 0.96232 0.73226 0.0
C43 C 0.16714 0.93583 0.70751 0.0
C44 C 0.22224 0.98114 0.62949 0.0
O45 O 0.2322 0.94887 0.73439 0.0
O46 O 0.25595 0.98535 0.7136 0.0
O47 O 0.19868 0.96903 0.64017 0.0
O48 O 0.23821 0.99239 0.65298 0.0
C49 C 0.18189 0.03195 0.71366 0.0
O50 O 0.18931 0.93291 0.68767 0.0
O51 O 0.165 0.96096 0.722 0.0
In52 In 0.53227 0.30876 0.80631 0.0
O53 O 0.56404 0.34636 0.81975 0.0
O54 O 0.56297 0.33133 0.76732 0.0
C55 C 0.51865 0.29245 0.87175 0.0
C56 C 0.48239 0.33579 0.78395 0.0
C57 C 0.55745 0.25861 0.78175 0.0
O58 O 0.53979 0.30978 0.86464 0.0
O59 O 0.50412 0.28346 0.84579 0.0
O60 O 0.53471 0.27003 0.76782 0.0
O61 O 0.56719 0.27245 0.80786 0.0
C62 C 0.57421 0.34886 0.78931 0.0
O63 O 0.48909 0.30968 0.7748 0.0
O64 O 0.50079 0.34796 0.80408 0.0
In65 In 0.19309 0.52079 0.29827 0.0
O66 O 0.18808 0.47824 0.26599 0.0
O67 O 0.1532 0.49042 0.30043 0.0
C68 C 0.24566 0.53497 0.2681 0.0
C69 C 0.15813 0.56817 0.28565 0.0
C70 C 0.20233 0.51247 0.36664 0.0
O71 O 0.22097 0.54201 0.25513 0.0
O72 O 0.24388 0.51982 0.29551 0.0
O73 O 0.18981 0.53543 0.35471 0.0
O74 O 0.20992 0.49361 0.34406 0.0
C75 C 0.16282 0.47212 0.27835 0.0
O76 O 0.17646 0.56747 0.31052 0.0
O77 O 0.15749 0.54495 0.26721 0.0
In78 In 0.96893 0.19721 0.80008 0.0
O79 O 0.94108 0.15627 0.81153 0.0
O80 O 0.92987 0.18206 0.76693 0.0
C81 C 0.97872 0.20544 0.86851 0.0
C82 C 0.01805 0.17036 0.77456 0.0
C83 C 0.9495 0.2499 0.77519 0.0
O84 O 0.95594 0.19265 0.85683 0.0
O85 O 0.99686 0.21399 0.84562 0.0
O86 O 0.96652 0.23322 0.75779 0.0
O87 O 0.94274 0.24006 0.80482 0.0
C88 C 0.92408 0.15975 0.78573 0.0
O89 O 0.01764 0.19769 0.78188 0.0
O90 O 0.99375 0.15719 0.77929 0.0
In91 In 0.3012 0.9679 0.31176 0.0
O92 O 0.33541 0.93197 0.32262 0.0
O93 O 0.32883 0.94486 0.26991 0.0
C94 C 0.28526 0.97363 0.37892 0.0
C95 C 0.32886 0.01874 0.29404 0.0
C96 C 0.2502 0.9465 0.28466 0.0
O97 O 0.303 0.95388 0.36845 0.0
O98 O 0.27568 0.99077 0.35551 0.0
O99 O 0.25588 0.97395 0.28531 0.0
O100 O 0.27023 0.93018 0.29727 0.0
C101 C 0.34239 0.92821 0.29114 0.0
O102 O 0.30712 0.00867 0.27701 0.0
O103 O 0.33637 0.00328 0.31994 0.0
In104 In 0.47086 0.79235 0.80187 0.0
O105 O 0.50848 0.80224 0.76344 0.0
O106 O 0.51264 0.81795 0.81519 0.0
C107 C 0.44844 0.74271 0.77284 0.0
C108 C 0.4342 0.83799 0.78644 0.0
C109 C 0.47281 0.77307 0.86792 0.0
O110 O 0.4759 0.74842 0.77237 0.0
O111 O 0.43257 0.7621 0.78754 0.0
O112 O 0.45478 0.79269 0.85768 0.0
O113 O 0.48989 0.76297 0.8447 0.0
C114 C 0.52385 0.8164 0.78528 0.0
O115 O 0.44428 0.83355 0.81658 0.0
O116 O 0.44296 0.81962 0.76384 0.0
In117 In 0.6965 0.46802 0.30634 0.0
O118 O 0.66538 0.42968 0.31815 0.0
O119 O 0.66648 0.44591 0.26616 0.0
C120 C 0.71489 0.47679 0.37212 0.0
C121 C 0.66745 0.51861 0.29056 0.0
C122 C 0.74585 0.44464 0.27731 0.0
O123 O 0.69406 0.45929 0.3644 0.0
O124 O 0.72634 0.49018 0.34662 0.0
O125 O 0.73904 0.47171 0.27355 0.0
O126 O 0.72777 0.42978 0.29524 0.0
C127 C 0.6557 0.42743 0.28746 0.0
O128 O 0.68977 0.50992 0.27341 0.0
O129 O 0.66022 0.50198 0.31554 0.0
In130 In 0.03209 0.7039 0.8101 0.0
O131 O 0.07205 0.67453 0.82164 0.0
O132 O 0.05824 0.67848 0.76895 0.0
C133 C 0.01717 0.71569 0.87637 0.0
C134 C 0.98365 0.67354 0.78993 0.0
C135 C 0.05405 0.756 0.7866 0.0
O136 O 0.03739 0.69755 0.86822 0.0
O137 O 0.00423 0.72787 0.85097 0.0
O138 O 0.03263 0.74308 0.77174 0.0
O139 O 0.06395 0.74273 0.81303 0.0
C140 C 0.07625 0.66716 0.79037 0.0
O141 O 0.98787 0.70022 0.78088 0.0
O142 O 0.00367 0.66264 0.80898 0.0
In143 In 0.79191 0.02256 0.3124 0.0
O144 O 0.79912 0.98202 0.27746 0.0
O145 O 0.82629 0.98677 0.3223 0.0
C146 C 0.74325 0.04679 0.28288 0.0
C147 C 0.83351 0.0629 0.29508 0.0
C148 C 0.77242 0.01364 0.37769 0.0
O149 O 0.74918 0.01944 0.28007 0.0
O150 O 0.76185 0.06155 0.30018 0.0
O151 O 0.79444 0.02987 0.37067 0.0
O152 O 0.76032 0.00157 0.35172 0.0
C153 C 0.82004 0.97166 0.29571 0.0
O154 O 0.82334 0.06043 0.32554 0.0
O155 O 0.82287 0.04476 0.27333 0.0
In156 In 0.46714 0.69177 0.18488 0.0
O157 O 0.43784 0.65159 0.17476 0.0
O158 O 0.43782 0.66975 0.22583 0.0
C159 C 0.47166 0.70707 0.11746 0.0
C160 C 0.51785 0.66463 0.20462 0.0
C161 C 0.44605 0.74373 0.2096 0.0
O162 O 0.45125 0.69062 0.12893 0.0
O163 O 0.48994 0.71589 0.14005 0.0
O164 O 0.47335 0.73722 0.21083 0.0
O165 O 0.42975 0.72404 0.19622 0.0
C166 C 0.42771 0.65033 0.20531 0.0
O167 O 0.5067 0.68574 0.22189 0.0
O168 O 0.50365 0.65774 0.17762 0.0
In169 In 0.80449 0.47891 0.68543 0.0
O170 O 0.81308 0.51722 0.7233 0.0
O171 O 0.83729 0.51623 0.67594 0.0
C172 C 0.7551 0.46398 0.72157 0.0
C173 C 0.84186 0.4327 0.69437 0.0
C174 C 0.7895 0.48391 0.61789 0.0
O175 O 0.75476 0.4826 0.69711 0.0
O176 O 0.78048 0.45385 0.7287 0.0
O177 O 0.80855 0.46547 0.62855 0.0
O178 O 0.77818 0.49997 0.64126 0.0
C179 C 0.83233 0.52945 0.70421 0.0
O180 O 0.81769 0.43052 0.67787 0.0
O181 O 0.84734 0.45834 0.7061 0.0
In182 In 0.02342 0.80301 0.18772 0.0
O183 O 0.06022 0.8359 0.17561 0.0
O184 O 0.0484 0.82983 0.22869 0.0
C185 C 0.01136 0.78733 0.12171 0.0
C186 C 0.97303 0.83068 0.20714 0.0
C187 C 0.04887 0.75308 0.21272 0.0
O188 O 0.02937 0.8077 0.12952 0.0
O189 O -0.001 0.77492 0.14734 0.0
O190 O 0.02399 0.76223 0.2236 0.0
O191 O 0.0605 0.76901 0.18947 0.0
C192 C 0.06492 0.84282 0.2069 0.0
O193 O 0.9807 0.80597 0.21994 0.0
O194 O 0.99062 0.84101 0.1847 0.0
In195 In 0.69459 0.02281 0.69259 0.0
O196 O 0.69195 0.9779 0.72059 0.0
O197 O 0.65353 0.99411 0.69456 0.0
C198 C 0.74687 0.03711 0.72288 0.0
C199 C 0.6621 0.07175 0.70618 0.0
C200 C 0.70173 0.01273 0.62423 0.0
O201 O 0.72266 0.03721 0.73933 0.0
O202 O 0.74481 0.02882 0.69174 0.0
O203 O 0.68682 0.03438 0.63574 0.0
O204 O 0.71269 0.99601 0.64724 0.0
C205 C 0.66513 0.97367 0.71237 0.0
O206 O 0.68119 0.07089 0.68212 0.0
O207 O 0.65943 0.04792 0.72325 0.0
C208 C 0.42779 0.16038 0.23897 0.0
C209 C 0.44686 0.14964 0.21303 0.0
C210 C 0.40524 0.14228 0.25273 0.0
C211 C 0.40226 0.1127 0.24065 0.0
C212 C 0.42095 0.10212 0.21376 0.0
C213 C 0.44285 0.12082 0.20007 0.0
C214 C 0.38525 0.15446 0.28085 0.0
C215 C 0.41874 0.07057 0.20047 0.0
C216 C 0.37316 0.05149 0.29867 0.0
C217 C 0.3457 0.04527 0.28316 0.0
C218 C 0.39122 0.07443 0.2861 0.0
C219 C 0.38131 0.09183 0.25768 0.0
C220 C 0.3528 0.08684 0.24331 0.0
C221 C 0.33538 0.06337 0.25605 0.0
C222 C 0.42163 0.07885 0.30189 0.0
C223 C 0.34128 0.10536 0.21345 0.0
H224 H 0.43074 0.18275 0.24885 0.0
H225 H 0.45757 0.11242 0.18002 0.0
H226 H 0.36162 0.14995 0.27455 0.0
H227 H 0.39019 0.14318 0.30585 0.0
H228 H 0.38818 0.17879 0.28449 0.0
H229 H 0.43426 0.06619 0.17859 0.0
H230 H 0.42385 0.05477 0.22183 0.0
H231 H 0.39578 0.06586 0.19159 0.0
H232 H 0.38117 0.03759 0.31973 0.0
H233 H 0.31399 0.05878 0.24425 0.0
H234 H 0.42498 0.10251 0.30896 0.0
H235 H 0.43894 0.07294 0.28252 0.0
H236 H 0.42505 0.06499 0.32548 0.0
H237 H 0.34479 0.12936 0.21866 0.0
H238 H 0.31726 0.10149 0.20857 0.0
H239 H 0.35376 0.09976 0.18944 0.0
C240 C 0.36676 0.43483 0.68385 0.0
C241 C 0.34231 0.44368 0.70394 0.0
C242 C 0.38681 0.41346 0.69615 0.0
C243 C 0.38204 0.40039 0.72915 0.0
C244 C 0.35611 0.40748 0.74831 0.0
C245 C 0.33658 0.42927 0.73555 0.0
C246 C 0.41429 0.40665 0.675 0.0
C247 C 0.34999 0.39352 0.78328 0.0
C248 C 0.43365 0.33655 0.75253 0.0
C249 C 0.45565 0.35149 0.77149 0.0
C250 C 0.40876 0.3519 0.73966 0.0
C251 C 0.40625 0.38287 0.74548 0.0
C252 C 0.42815 0.39787 0.7652 0.0
C253 C 0.45247 0.38194 0.77814 0.0
C254 C 0.38554 0.33516 0.71923 0.0
C255 C 0.42645 0.43097 0.7717 0.0
H256 H 0.37118 0.44575 0.65925 0.0
H257 H 0.31751 0.43585 0.75099 0.0
H258 H 0.43407 0.41603 0.68826 0.0
H259 H 0.4177 0.3823 0.67288 0.0
H260 H 0.41308 0.41619 0.64838 0.0
H261 H 0.32678 0.39748 0.79199 0.0
H262 H 0.35412 0.3692 0.78243 0.0
H263 H 0.36527 0.4031 0.80294 0.0
H264 H 0.43597 0.31293 0.74759 0.0
H265 H 0.46942 0.39357 0.79283 0.0
H266 H 0.38592 0.34254 0.69171 0.0
H267 H 0.36304 0.34006 0.72957 0.0
H268 H 0.38923 0.31074 0.71997 0.0
H269 H 0.42723 0.44309 0.74657 0.0
H270 H 0.44492 0.43906 0.78835 0.0
H271 H 0.40509 0.4367 0.78445 0.0
C272 C 0.06009 0.33098 0.23854 0.0
C273 C 0.04478 0.33676 0.20753 0.0
C274 C 0.083 0.34983 0.24973 0.0
C275 C 0.09035 0.37515 0.2296 0.0
C276 C 0.07608 0.38008 0.19733 0.0
C277 C 0.05356 0.36071 0.1866 0.0
C278 C 0.09815 0.34361 0.28399 0.0
C279 C 0.0831 0.40696 0.17523 0.0
C280 C 0.11494 0.44494 0.27596 0.0
C281 C 0.14512 0.44629 0.26722 0.0
C282 C 0.09709 0.42151 0.26444 0.0
C283 C 0.10987 0.39857 0.24415 0.0
C284 C 0.14058 0.39924 0.23618 0.0
C285 C 0.15787 0.42334 0.24756 0.0
C286 C 0.06431 0.42184 0.27307 0.0
C287 C 0.155 0.37484 0.21516 0.0
H288 H 0.05354 0.31229 0.25462 0.0
H289 H 0.04192 0.36516 0.16246 0.0
H290 H 0.12258 0.34614 0.28144 0.0
H291 H 0.09049 0.35992 0.30368 0.0
H292 H 0.09322 0.32089 0.29376 0.0
H293 H 0.07211 0.40602 0.14939 0.0
H294 H 0.07551 0.42738 0.18881 0.0
H295 H 0.10742 0.40901 0.17126 0.0
H296 H 0.10501 0.46268 0.29113 0.0
H297 H 0.18128 0.42426 0.24103 0.0
H298 H 0.05803 0.40102 0.28665 0.0
H299 H 0.0511 0.42298 0.24873 0.0
H300 H 0.05805 0.44099 0.28978 0.0
H301 H 0.14968 0.3528 0.22654 0.0
H302 H 0.17954 0.3773 0.21386 0.0
H303 H 0.14606 0.37506 0.18828 0.0
C304 C 0.15896 0.06602 0.75735 0.0
C305 C 0.16484 0.05892 0.72256 0.0
C306 C 0.1383 0.08827 0.76584 0.0
C307 C 0.12343 0.10372 0.73884 0.0
C308 C 0.13122 0.09833 0.70377 0.0
C309 C 0.15179 0.07589 0.69604 0.0
C310 C 0.13065 0.09348 0.80357 0.0
C311 C 0.11611 0.11455 0.67426 0.0
C312 C 0.04319 0.12382 0.75617 0.0
C313 C 0.04502 0.15426 0.7635 0.0
C314 C 0.06858 0.10731 0.74794 0.0
C315 C 0.09657 0.12162 0.74689 0.0
C316 C 0.09858 0.1525 0.7536 0.0
C317 C 0.07269 0.16853 0.76189 0.0
C318 C 0.06545 0.0744 0.74082 0.0
C319 C 0.12806 0.16843 0.7525 0.0
H320 H 0.16916 0.05307 0.77792 0.0
H321 H 0.15659 0.0707 0.66908 0.0
H322 H 0.12939 0.11762 0.80927 0.0
H323 H 0.10848 0.08381 0.80919 0.0
H324 H 0.14713 0.0831 0.82136 0.0
H325 H 0.12793 0.11134 0.64918 0.0
H326 H 0.09308 0.10611 0.67134 0.0
H327 H 0.11465 0.13871 0.6798 0.0
H328 H 0.02186 0.11268 0.75734 0.0
H329 H 0.07416 0.19207 0.76764 0.0
H330 H 0.0789 0.06152 0.75976 0.0
H331 H 0.074 0.06913 0.71447 0.0
H332 H 0.04203 0.06676 0.74254 0.0
H333 H 0.14305 0.15922 0.77273 0.0
H334 H 0.12566 0.19273 0.75686 0.0
H335 H 0.139 0.16479 0.727 0.0
C336 C 0.5643 0.85165 0.80044 0.0
C337 C 0.55105 0.8328 0.77594 0.0
C338 C 0.5868 0.87143 0.79069 0.0
C339 C 0.59644 0.87206 0.75568 0.0
C340 C 0.58496 0.85129 0.73153 0.0
C341 C 0.56217 0.83196 0.74192 0.0
C342 C 0.59835 0.89334 0.81719 0.0
C343 C 0.59516 0.85094 0.69414 0.0
C344 C 0.61708 0.9479 0.72111 0.0
C345 C 0.64814 0.94724 0.723 0.0
C346 C 0.60013 0.92342 0.73144 0.0
C347 C 0.61465 0.8974 0.74334 0.0
C348 C 0.64608 0.89632 0.74466 0.0
C349 C 0.66252 0.92148 0.73478 0.0
C350 C 0.56662 0.92565 0.73019 0.0
C351 C 0.66221 0.8687 0.75659 0.0
H352 H 0.55595 0.85218 0.82688 0.0
H353 H 0.55219 0.81715 0.723 0.0
H354 H 0.62293 0.89462 0.81618 0.0
H355 H 0.58957 0.91583 0.81113 0.0
H356 H 0.59153 0.88742 0.84408 0.0
H357 H 0.58807 0.83039 0.68045 0.0
H358 H 0.58557 0.87034 0.68025 0.0
H359 H 0.6197 0.85279 0.69257 0.0
H360 H 0.60591 0.96785 0.71211 0.0
H361 H 0.68659 0.92091 0.73596 0.0
H362 H 0.55727 0.92225 0.7566 0.0
H363 H 0.55746 0.90797 0.7132 0.0
H364 H 0.55887 0.94753 0.72028 0.0
H365 H 0.65651 0.86384 0.78407 0.0
H366 H 0.68673 0.87096 0.75442 0.0
H367 H 0.65503 0.84929 0.74092 0.0
C368 C 0.56194 0.65771 0.24354 0.0
C369 C 0.54413 0.64764 0.21609 0.0
C370 C 0.58552 0.64024 0.25611 0.0
C371 C 0.59078 0.61189 0.24132 0.0
C372 C 0.57343 0.60213 0.21285 0.0
C373 C 0.55051 0.62027 0.20038 0.0
C374 C 0.60407 0.65163 0.28594 0.0
C375 C 0.57802 0.57185 0.19668 0.0
C376 C 0.65975 0.56494 0.2556 0.0
C377 C 0.6496 0.54483 0.28078 0.0
C378 C 0.6415 0.58828 0.24401 0.0
C379 C 0.61232 0.59101 0.25742 0.0
C380 C 0.60247 0.57145 0.28385 0.0
C381 C 0.62136 0.54877 0.29543 0.0
C382 C 0.65297 0.6092 0.21641 0.0
C383 C 0.57135 0.57333 0.29847 0.0
H384 H 0.55719 0.67901 0.25551 0.0
H385 H 0.5368 0.61241 0.17912 0.0
H386 H 0.59898 0.63871 0.30978 0.0
H387 H 0.62807 0.64859 0.28031 0.0
H388 H 0.5998 0.67552 0.29134 0.0
H389 H 0.56351 0.56821 0.17371 0.0
H390 H 0.60149 0.56907 0.18851 0.0
H391 H 0.57319 0.5543 0.21618 0.0
H392 H 0.68171 0.5621 0.24448 0.0
H393 H 0.61344 0.53329 0.31496 0.0
H394 H 0.64793 0.6326 0.22344 0.0
H395 H 0.64167 0.60452 0.19137 0.0
H396 H 0.67732 0.60686 0.21245 0.0
H397 H 0.56659 0.5962 0.3077 0.0
H398 H 0.56782 0.55763 0.3204 0.0
H399 H 0.55502 0.56814 0.27772 0.0
C400 C 0.95776 0.62507 0.78465 0.0
C401 C 0.95801 0.65575 0.77835 0.0
C402 C 0.93456 0.6072 0.77254 0.0
C403 C 0.91079 0.62041 0.75403 0.0
C404 C 0.91039 0.65153 0.74846 0.0
C405 C 0.93421 0.66888 0.7605 0.0
C406 C 0.93598 0.57403 0.7787 0.0
C407 C 0.88515 0.66634 0.72926 0.0
C408 C 0.87279 0.56605 0.694 0.0
C409 C 0.84954 0.55575 0.71504 0.0
C410 C 0.8919 0.58849 0.70559 0.0
C411 C 0.88748 0.60104 0.73893 0.0
C412 C 0.86287 0.59211 0.75935 0.0
C413 C 0.84421 0.56939 0.7472 0.0
C414 C 0.91799 0.59729 0.68311 0.0
C415 C 0.85723 0.60533 0.79482 0.0
H416 H 0.97613 0.61481 0.79843 0.0
H417 H 0.93428 0.69265 0.75579 0.0
H418 H 0.91567 0.56643 0.7924 0.0
H419 H 0.93689 0.56219 0.7534 0.0
H420 H 0.95567 0.56742 0.79433 0.0
H421 H 0.88698 0.69098 0.72956 0.0
H422 H 0.8849 0.65875 0.70182 0.0
H423 H 0.86355 0.6599 0.74096 0.0
H424 H 0.87686 0.55572 0.66898 0.0
H425 H 0.82607 0.56166 0.7634 0.0
H426 H 0.93891 0.58946 0.69536 0.0
H427 H 0.91941 0.62183 0.68087 0.0
H428 H 0.91655 0.58767 0.65656 0.0
H429 H 0.87431 0.59715 0.81332 0.0
H430 H 0.83497 0.59927 0.80508 0.0
H431 H 0.85904 0.62992 0.79389 0.0
C432 C 0.86425 0.93909 0.30296 0.0
C433 C 0.83778 0.94555 0.28532 0.0
C434 C 0.88361 0.91702 0.29084 0.0
C435 C 0.87606 0.90074 0.26064 0.0
C436 C 0.84841 0.90577 0.24407 0.0
C437 C 0.82964 0.92837 0.25646 0.0
C438 C 0.91303 0.91255 0.30906 0.0
C439 C 0.83937 0.88838 0.21223 0.0
C440 C 0.94233 0.8766 0.20729 0.0
C441 C 0.94652 0.84729 0.21865 0.0
C442 C 0.91882 0.89386 0.21994 0.0
C443 C 0.89875 0.88135 0.2442 0.0
C444 C 0.90203 0.85132 0.25459 0.0
C445 C 0.9261 0.83465 0.24187 0.0
C446 C 0.91626 0.9259 0.20845 0.0
C447 C 0.8807 0.83715 0.27994 0.0
H448 H 0.87058 0.95224 0.32538 0.0
H449 H 0.80903 0.93314 0.24296 0.0
H450 H 0.9167 0.88866 0.31477 0.0
H451 H 0.93135 0.91994 0.29177 0.0
H452 H 0.91444 0.92523 0.33379 0.0
H453 H 0.81554 0.8917 0.20571 0.0
H454 H 0.85294 0.89561 0.18968 0.0
H455 H 0.84353 0.86429 0.21614 0.0
H456 H 0.95803 0.88645 0.18927 0.0
H457 H 0.92918 0.8119 0.25049 0.0
H458 H 0.91941 0.9408 0.23115 0.0
H459 H 0.89377 0.93032 0.19784 0.0
H460 H 0.93296 0.93181 0.18832 0.0
H461 H 0.88365 0.8472 0.30605 0.0
H462 H 0.8842 0.81276 0.28215 0.0
H463 H 0.8574 0.84137 0.27186 0.0
C464 C 0.54109 0.2976 0.2332 0.0
C465 C 0.55847 0.27501 0.21844 0.0
C466 C 0.55419 0.32409 0.24501 0.0
C467 C 0.58536 0.32775 0.24232 0.0
C468 C 0.60296 0.30488 0.22764 0.0
C469 C 0.58928 0.27888 0.21572 0.0
C470 C 0.53474 0.34817 0.26022 0.0
C471 C 0.63632 0.3078 0.22465 0.0
C472 C 0.62339 0.40291 0.24312 0.0
C473 C 0.63494 0.40369 0.27694 0.0
C474 C 0.60579 0.379 0.23199 0.0
C475 C 0.59996 0.35523 0.25517 0.0
C476 C 0.6106 0.3565 0.28976 0.0
C477 C 0.62786 0.38082 0.30029 0.0
C478 C 0.59451 0.37857 0.19502 0.0
C479 C 0.60507 0.33148 0.31515 0.0
H480 H 0.51723 0.29471 0.23518 0.0
H481 H 0.60283 0.26143 0.20442 0.0
H482 H 0.54152 0.35282 0.28741 0.0
H483 H 0.53761 0.36909 0.24529 0.0
H484 H 0.51084 0.34203 0.26002 0.0
H485 H 0.64679 0.28782 0.21284 0.0
H486 H 0.64201 0.32744 0.20852 0.0
H487 H 0.64617 0.31137 0.25076 0.0
H488 H 0.62864 0.42068 0.22507 0.0
H489 H 0.63669 0.38136 0.3265 0.0
H490 H 0.57042 0.37339 0.19451 0.0
H491 H 0.60609 0.36083 0.18022 0.0
H492 H 0.59821 0.4001 0.18153 0.0
H493 H 0.58105 0.32602 0.31616 0.0
H494 H 0.61274 0.337 0.34183 0.0
H495 H 0.61696 0.31121 0.30631 0.0
C496 C 0.22462 0.59519 0.72098 0.0
C497 C 0.22542 0.56403 0.72115 0.0
C498 C 0.19992 0.61068 0.73372 0.0
C499 C 0.17528 0.59461 0.74666 0.0
C500 C 0.17606 0.56312 0.74734 0.0
C501 C 0.20127 0.54815 0.73471 0.0
C502 C 0.20007 0.64427 0.7329 0.0
C503 C 0.15006 0.54531 0.76076 0.0
C504 C 0.12222 0.63828 0.8038 0.0
C505 C 0.10061 0.64715 0.77968 0.0
C506 C 0.14625 0.62038 0.79366 0.0
C507 C 0.14851 0.611 0.75863 0.0
C508 C 0.12624 0.61914 0.73442 0.0
C509 C 0.1026 0.63726 0.74521 0.0
C510 C 0.16972 0.61234 0.82013 0.0
C511 C 0.12781 0.60937 0.69689 0.0
H512 H 0.24333 0.60755 0.7107 0.0
H513 H 0.20182 0.52406 0.73478 0.0
H514 H 0.1819 0.65244 0.71587 0.0
H515 H 0.19593 0.65323 0.75934 0.0
H516 H 0.22145 0.65339 0.72318 0.0
H517 H 0.15452 0.52101 0.76046 0.0
H518 H 0.14461 0.55211 0.78775 0.0
H519 H 0.13014 0.54985 0.74459 0.0
H520 H 0.12072 0.64584 0.83051 0.0
H521 H 0.0858 0.64391 0.72655 0.0
H522 H 0.19117 0.62273 0.81276 0.0
H523 H 0.17326 0.58793 0.82058 0.0
H524 H 0.16373 0.61984 0.84675 0.0
H525 H 0.14745 0.6196 0.68419 0.0
H526 H 0.10763 0.61576 0.68201 0.0
H527 H 0.13062 0.5849 0.69534 0.0
C528 C 0.86529 0.08843 0.25104 0.0
C529 C 0.8545 0.08664 0.28516 0.0
C530 C 0.88275 0.11259 0.24036 0.0
C531 C 0.88936 0.13552 0.26435 0.0
C532 C 0.87966 0.13312 0.29925 0.0
C533 C 0.86239 0.10863 0.30927 0.0
C534 C 0.8929 0.11426 0.20298 0.0
C535 C 0.88619 0.15716 0.32555 0.0
C536 C 0.94785 0.19289 0.24013 0.0
C537 C 0.93013 0.21575 0.22649 0.0
C538 C 0.93495 0.1666 0.25282 0.0
C539 C 0.90366 0.16335 0.25204 0.0
C540 C 0.8857 0.18663 0.23889 0.0
C541 C 0.89917 0.21248 0.22617 0.0
C542 C 0.95474 0.14213 0.26651 0.0
C543 C 0.85222 0.18413 0.2379 0.0
H544 H 0.85941 0.07137 0.23238 0.0
H545 H 0.85419 0.10728 0.33573 0.0
H546 H 0.88105 0.13262 0.18955 0.0
H547 H 0.91701 0.11924 0.20168 0.0
H548 H 0.88859 0.09327 0.18862 0.0
H549 H 0.87965 0.15057 0.35232 0.0
H550 H 0.9102 0.16272 0.32545 0.0
H551 H 0.87387 0.17768 0.31846 0.0
H552 H 0.97181 0.19534 0.24033 0.0
H553 H 0.88536 0.23015 0.21578 0.0
H554 H 0.95184 0.1218 0.25055 0.0
H555 H 0.94834 0.13637 0.29354 0.0
H556 H 0.9786 0.14846 0.26619 0.0
H557 H 0.84563 0.16514 0.22122 0.0
H558 H 0.84146 0.2046 0.22771 0.0
H559 H 0.8435 0.17971 0.26439 0.0
C560 C 0.28354 0.92261 0.76451 0.0
C561 C 0.2844 0.94961 0.74632 0.0
C562 C 0.30975 0.90741 0.77297 0.0
C563 C 0.3375 0.9196 0.76315 0.0
C564 C 0.33861 0.94775 0.7467 0.0
C565 C 0.31197 0.96243 0.73838 0.0
C566 C 0.30761 0.87748 0.79064 0.0
C567 C 0.36782 0.9616 0.73626 0.0
C568 C 0.40422 0.88211 0.80461 0.0
C569 C 0.412 0.86134 0.77897 0.0
C570 C 0.38094 0.90238 0.79918 0.0
C571 C 0.36492 0.90155 0.76754 0.0
C572 C 0.37354 0.88146 0.74101 0.0
C573 C 0.3971 0.86168 0.747 0.0
C574 C 0.37267 0.92377 0.82784 0.0
C575 C 0.35693 0.87982 0.70694 0.0
H576 H 0.26229 0.91265 0.77084 0.0
H577 H 0.31274 0.98334 0.72436 0.0
H578 H 0.31546 0.85987 0.77262 0.0
H579 H 0.32213 0.87683 0.81393 0.0
H580 H 0.28453 0.87212 0.79873 0.0
H581 H 0.36513 0.98509 0.72784 0.0
H582 H 0.38384 0.96078 0.75816 0.0
H583 H 0.37765 0.9488 0.71444 0.0
H584 H 0.41585 0.88206 0.82929 0.0
H585 H 0.40308 0.84569 0.72709 0.0
H586 H 0.35091 0.91731 0.8391 0.0
H587 H 0.37023 0.94663 0.81736 0.0
H588 H 0.38944 0.92406 0.84904 0.0
H589 H 0.33386 0.87213 0.71171 0.0
H590 H 0.36764 0.86437 0.68819 0.0
H591 H 0.3555 0.90218 0.69485 0.0
C592 C 0.59868 0.22168 0.78337 0.0
C593 C 0.57182 0.23129 0.76869 0.0
C594 C 0.61272 0.19573 0.77165 0.0
C595 C 0.59947 0.17888 0.74476 0.0
C596 C 0.57238 0.18849 0.72973 0.0
C597 C 0.5589 0.2147 0.74182 0.0
C598 C 0.64169 0.18629 0.7882 0.0
C599 C 0.55756 0.17094 0.70114 0.0
C600 C 0.65045 0.12549 0.69693 0.0
C601 C 0.64482 0.09875 0.71447 0.0
C602 C 0.63525 0.15165 0.7059 0.0
C603 C 0.61389 0.15094 0.73291 0.0
C604 C 0.60754 0.12382 0.75004 0.0
C605 C 0.62316 0.09804 0.74065 0.0
C606 C 0.64267 0.18021 0.68716 0.0
C607 C 0.58482 0.12217 0.77888 0.0
H608 H 0.60882 0.23449 0.80407 0.0
H609 H 0.53811 0.22206 0.73044 0.0
H610 H 0.63912 0.1641 0.80044 0.0
H611 H 0.65923 0.18427 0.76804 0.0
H612 H 0.64936 0.20224 0.80834 0.0
H613 H 0.53672 0.18162 0.69192 0.0
H614 H 0.57291 0.16848 0.67874 0.0
H615 H 0.55226 0.14823 0.71056 0.0
H616 H 0.66715 0.12612 0.67663 0.0
H617 H 0.61864 0.07738 0.75417 0.0
H618 H 0.6525 0.19631 0.70574 0.0
H619 H 0.62218 0.1905 0.67655 0.0
H620 H 0.65863 0.17668 0.6655 0.0
H621 H 0.59226 0.13586 0.80123 0.0
H622 H 0.5812 0.09904 0.78809 0.0
H623 H 0.56327 0.13141 0.76992 0.0
C624 C 0.38692 0.63455 0.245 0.0
C625 C 0.40415 0.62924 0.21532 0.0
C626 C 0.36236 0.61658 0.25279 0.0
C627 C 0.3553 0.59241 0.2307 0.0
C628 C 0.3735 0.58611 0.2016 0.0
C629 C 0.39757 0.60482 0.19404 0.0
C630 C 0.34326 0.62423 0.28384 0.0
C631 C 0.36702 0.56015 0.17791 0.0
C632 C 0.30112 0.53676 0.269 0.0
C633 C 0.27413 0.54666 0.25489 0.0
C634 C 0.32803 0.55053 0.26006 0.0
C635 C 0.32777 0.57503 0.23695 0.0
C636 C 0.30072 0.5843 0.22156 0.0
C637 C 0.27423 0.56983 0.23052 0.0
C638 C 0.35654 0.53964 0.27642 0.0
C639 C 0.2995 0.61052 0.19702 0.0
H640 H 0.39191 0.65349 0.26142 0.0
H641 H 0.41102 0.60057 0.17118 0.0
H642 H 0.32056 0.63024 0.27499 0.0
H643 H 0.34114 0.60467 0.30125 0.0
H644 H 0.35241 0.64309 0.29909 0.0
H645 H 0.38492 0.55659 0.15844 0.0
H646 H 0.36425 0.53949 0.19335 0.0
H647 H 0.34586 0.56411 0.16386 0.0
H648 H 0.30112 0.51875 0.28775 0.0
H649 H 0.2534 0.5776 0.21963 0.0
H650 H 0.36495 0.55656 0.29493 0.0
H651 H 0.37389 0.53643 0.25625 0.0
H652 H 0.35344 0.51839 0.29069 0.0
H653 H 0.30611 0.63103 0.21106 0.0
H654 H 0.27696 0.61393 0.18592 0.0
H655 H 0.31546 0.60738 0.17534 0.0
C656 C 0.85174 0.37814 0.69226 0.0
C657 C 0.86115 0.40678 0.70141 0.0
C658 C 0.86831 0.35301 0.70183 0.0
C659 C 0.89503 0.35667 0.72076 0.0
C660 C 0.90537 0.38561 0.72861 0.0
C661 C 0.88821 0.41036 0.71897 0.0
C662 C 0.85644 0.3225 0.69315 0.0
C663 C 0.93391 0.39039 0.74846 0.0
C664 C 0.91583 0.29352 0.78127 0.0
C665 C 0.93706 0.27804 0.76165 0.0
C666 C 0.90237 0.31937 0.7684 0.0
C667 C 0.91052 0.33018 0.73517 0.0
C668 C 0.93249 0.31509 0.71554 0.0
C669 C 0.94544 0.28905 0.72898 0.0
C670 C 0.87891 0.33471 0.79007 0.0
C671 C 0.94191 0.32619 0.68018 0.0
H672 H 0.83086 0.37526 0.67861 0.0
H673 H 0.89567 0.43249 0.7259 0.0
H674 H 0.87381 0.309 0.68011 0.0
H675 H 0.85025 0.31077 0.71749 0.0
H676 H 0.83659 0.32352 0.67602 0.0
H677 H 0.94047 0.41419 0.7492 0.0
H678 H 0.93119 0.38241 0.77557 0.0
H679 H 0.95224 0.37736 0.73659 0.0
H680 H 0.90926 0.28512 0.80655 0.0
H681 H 0.96191 0.27718 0.71378 0.0
H682 H 0.85742 0.33475 0.77593 0.0
H683 H 0.88517 0.35825 0.79457 0.0
H684 H 0.87559 0.32378 0.81569 0.0
H685 H 0.92281 0.32524 0.66198 0.0
H686 H 0.96046 0.3129 0.6691 0.0
H687 H 0.94895 0.34978 0.68186 0.0
C688 C 0.09386 0.86982 0.25236 0.0
C689 C 0.08923 0.86294 0.21725 0.0
C690 C 0.11866 0.88643 0.26278 0.0
C691 C 0.13934 0.89616 0.23747 0.0
C692 C 0.13404 0.89042 0.20183 0.0
C693 C 0.10897 0.87391 0.19213 0.0
C694 C 0.12347 0.89235 0.30101 0.0
C695 C 0.15563 0.90036 0.1741 0.0
C696 C 0.19804 0.95273 0.26324 0.0
C697 C 0.22212 0.93414 0.27122 0.0
C698 C 0.17085 0.94076 0.25205 0.0
C699 C 0.16794 0.90956 0.24854 0.0
C700 C 0.1924 0.89079 0.25597 0.0
C701 C 0.21914 0.90332 0.26736 0.0
C702 C 0.14514 0.96138 0.24452 0.0
C703 C 0.19027 0.85742 0.25219 0.0
H704 H 0.07853 0.86154 0.27183 0.0
H705 H 0.10542 0.86875 0.16492 0.0
H706 H 0.14298 0.87949 0.31029 0.0
H707 H 0.12833 0.91623 0.30542 0.0
H708 H 0.10387 0.88602 0.31695 0.0
H709 H 0.14685 0.89669 0.14745 0.0
H710 H 0.16093 0.92429 0.17721 0.0
H711 H 0.17676 0.88782 0.17684 0.0
H712 H 0.20027 0.97659 0.26632 0.0
H713 H 0.23775 0.88887 0.27337 0.0
H714 H 0.12635 0.95624 0.26221 0.0
H715 H 0.13711 0.95795 0.21755 0.0
H716 H 0.15124 0.98514 0.24778 0.0
H717 H 0.17287 0.84864 0.26987 0.0
H718 H 0.21158 0.84605 0.25823 0.0
H719 H 0.18365 0.85159 0.22526 0.0
C720 C 0.3711 0.60553 0.67693 0.0
C721 C 0.36273 0.58412 0.70155 0.0
C722 C 0.38813 0.63027 0.68661 0.0
C723 C 0.39702 0.63354 0.7217 0.0
C724 C 0.3901 0.6111 0.74621 0.0
C725 C 0.37295 0.58665 0.73584 0.0
C726 C 0.3951 0.65374 0.65973 0.0
C727 C 0.39939 0.6137 0.78382 0.0
C728 C 0.45405 0.69222 0.74619 0.0
C729 C 0.43566 0.71516 0.75835 0.0
C730 C 0.44185 0.66549 0.73385 0.0
C731 C 0.4106 0.66184 0.73358 0.0
C732 C 0.39199 0.68516 0.7453 0.0
C733 C 0.40475 0.7115 0.75761 0.0
C734 C 0.46233 0.64102 0.72163 0.0
C735 C 0.35854 0.68219 0.74521 0.0
H736 H 0.36336 0.6036 0.65034 0.0
H737 H 0.36669 0.57003 0.75491 0.0
H738 H 0.3822 0.6742 0.66552 0.0
H739 H 0.41899 0.65974 0.66062 0.0
H740 H 0.38952 0.64633 0.63296 0.0
H741 H 0.39513 0.59292 0.79863 0.0
H742 H 0.42337 0.61915 0.7857 0.0
H743 H 0.3869 0.63209 0.79635 0.0
H744 H 0.47797 0.69498 0.74679 0.0
H745 H 0.39044 0.72921 0.76689 0.0
H746 H 0.4567 0.63455 0.69459 0.0
H747 H 0.45932 0.62101 0.73815 0.0
H748 H 0.48607 0.64771 0.72254 0.0
H749 H 0.35057 0.6771 0.71858 0.0
H750 H 0.34723 0.7027 0.75442 0.0
H751 H 0.35178 0.66344 0.76222 0.0
C752 C 0.90105 0.36652 0.2408 0.0
C753 C 0.90285 0.35488 0.20707 0.0
C754 C 0.87686 0.38427 0.25087 0.0
C755 C 0.85393 0.3903 0.22665 0.0
C756 C 0.85638 0.37979 0.19209 0.0
C757 C 0.88087 0.36223 0.18269 0.0
C758 C 0.87513 0.39529 0.2879 0.0
C759 C 0.83235 0.38569 0.16555 0.0
C760 C 0.7768 0.40024 0.26422 0.0
C761 C 0.77311 0.43116 0.26286 0.0
C762 C 0.80286 0.38675 0.25209 0.0
C763 C 0.82595 0.40465 0.2385 0.0
C764 C 0.8223 0.4359 0.2367 0.0
C765 C 0.79578 0.44882 0.2488 0.0
C766 C 0.80575 0.35331 0.25414 0.0
C767 C 0.84656 0.45564 0.22254 0.0
H768 H 0.9181 0.36107 0.25967 0.0
H769 H 0.88224 0.35339 0.15651 0.0
H770 H 0.86988 0.41939 0.28841 0.0
H771 H 0.85694 0.38358 0.30174 0.0
H772 H 0.89618 0.39149 0.30234 0.0
H773 H 0.83905 0.37867 0.13898 0.0
H774 H 0.81193 0.37339 0.17291 0.0
H775 H 0.82661 0.40968 0.16497 0.0
H776 H 0.75927 0.38648 0.27493 0.0
H777 H 0.79301 0.47276 0.24783 0.0
H778 H 0.82481 0.34726 0.27103 0.0
H779 H 0.81029 0.34404 0.22793 0.0
H780 H 0.78542 0.34258 0.26465 0.0
H781 H 0.86687 0.45325 0.23867 0.0
H782 H 0.83996 0.47944 0.22213 0.0
H783 H 0.85248 0.44872 0.19573 0.0
C784 C 0.09192 0.79607 0.79124 0.0
C785 C 0.06737 0.78398 0.77386 0.0
C786 C 0.10592 0.82182 0.779 0.0
C787 C 0.09504 0.83595 0.74867 0.0
C788 C 0.06986 0.82425 0.73136 0.0
C789 C 0.05632 0.79829 0.74414 0.0
C790 C 0.13278 0.83354 0.79816 0.0
C791 C 0.05757 0.83887 0.69908 0.0
C792 C 0.12208 0.91522 0.73698 0.0
C793 C 0.1466 0.91103 0.71502 0.0
C794 C 0.10408 0.89115 0.74681 0.0
C795 C 0.11098 0.86226 0.73458 0.0
C796 C 0.13501 0.85815 0.71129 0.0
C797 C 0.15247 0.88262 0.7017 0.0
C798 C 0.07849 0.89644 0.77144 0.0
C799 C 0.14318 0.82767 0.69782 0.0
H800 H 0.10054 0.78515 0.81427 0.0
H801 H 0.0373 0.78904 0.73068 0.0
H802 H 0.15246 0.8331 0.78078 0.0
H803 H 0.12908 0.85701 0.80591 0.0
H804 H 0.13795 0.82036 0.82185 0.0
H805 H 0.03693 0.82794 0.68977 0.0
H806 H 0.05274 0.86266 0.70423 0.0
H807 H 0.07436 0.83804 0.67797 0.0
H808 H 0.11735 0.93719 0.74718 0.0
H809 H 0.17135 0.87927 0.68463 0.0
H810 H 0.08348 0.88608 0.79697 0.0
H811 H 0.05796 0.88586 0.76136 0.0
H812 H 0.07413 0.9205 0.77559 0.0
H813 H 0.15102 0.81359 0.71969 0.0
H814 H 0.16098 0.82858 0.67782 0.0
H815 H 0.12344 0.81662 0.68643 0.0
C816 C 0.58968 0.12727 0.24393 0.0
C817 C 0.58751 0.13716 0.20947 0.0
C818 C 0.61391 0.10998 0.25484 0.0
C819 C 0.63657 0.10268 0.23073 0.0
C820 C 0.63394 0.11173 0.19562 0.0
C821 C 0.60935 0.12879 0.18537 0.0
C822 C 0.61585 0.10051 0.29245 0.0
C823 C 0.65775 0.10454 0.16923 0.0
C824 C 0.71365 0.09173 0.26805 0.0
C825 C 0.71636 0.06069 0.26809 0.0
C826 C 0.68794 0.10561 0.25549 0.0
C827 C 0.66422 0.08798 0.24296 0.0
C828 C 0.66689 0.0566 0.2426 0.0
C829 C 0.69308 0.04329 0.25504 0.0
C830 C 0.68606 0.13916 0.25596 0.0
C831 C 0.64193 0.03716 0.22963 0.0
H832 H 0.57273 0.13353 0.26259 0.0
H833 H 0.60773 0.13635 0.15866 0.0
H834 H 0.62031 0.07629 0.29428 0.0
H835 H 0.63462 0.11214 0.30524 0.0
H836 H 0.59516 0.1056 0.30707 0.0
H837 H 0.65122 0.1111 0.14244 0.0
H838 H 0.67854 0.1164 0.17613 0.0
H839 H 0.66279 0.08039 0.16946 0.0
H840 H 0.73166 0.10528 0.27797 0.0
H841 H 0.6951 0.01927 0.25517 0.0
H842 H 0.66738 0.14635 0.27282 0.0
H843 H 0.6815 0.14766 0.2294 0.0
H844 H 0.70682 0.14961 0.26565 0.0
H845 H 0.6218 0.04078 0.24576 0.0
H846 H 0.64776 0.01315 0.23041 0.0
H847 H 0.6361 0.04326 0.20253 0.0
C848 C 0.45253 0.79579 0.23144 0.0
C849 C 0.43379 0.77215 0.2224 0.0
C850 C 0.4407 0.82306 0.24277 0.0
C851 C 0.40949 0.82648 0.24545 0.0
C852 C 0.39056 0.80253 0.23664 0.0
C853 C 0.40294 0.77574 0.22505 0.0
C854 C 0.4615 0.84824 0.25165 0.0
C855 C 0.35716 0.80518 0.2395 0.0
C856 C 0.37357 0.88373 0.30418 0.0
C857 C 0.36291 0.90443 0.27992 0.0
C858 C 0.39009 0.85891 0.29348 0.0
C859 C 0.39627 0.85488 0.2577 0.0
C860 C 0.387 0.87661 0.23333 0.0
C861 C 0.37028 0.9011 0.24472 0.0
C862 C 0.39945 0.83617 0.32025 0.0
C863 C 0.39347 0.87324 0.195 0.0
H864 H 0.4764 0.79311 0.22926 0.0
H865 H 0.38837 0.75748 0.2182 0.0
H866 H 0.45649 0.86782 0.23509 0.0
H867 H 0.45816 0.85516 0.27906 0.0
H868 H 0.4852 0.84205 0.24799 0.0
H869 H 0.34561 0.78432 0.23201 0.0
H870 H 0.35083 0.81086 0.26658 0.0
H871 H 0.34906 0.82341 0.22252 0.0
H872 H 0.36801 0.88626 0.33145 0.0
H873 H 0.36226 0.91717 0.22591 0.0
H874 H 0.42336 0.83073 0.31732 0.0
H875 H 0.38679 0.8153 0.31617 0.0
H876 H 0.39545 0.84397 0.34726 0.0
H877 H 0.4173 0.86797 0.19082 0.0
H878 H 0.38781 0.89363 0.18008 0.0
H879 H 0.38036 0.85445 0.18436 0.0
C880 C 0.69998 0.46447 0.72924 0.0
C881 C 0.7277 0.45201 0.73733 0.0
C882 C 0.67355 0.45065 0.73991 0.0
C883 C 0.67501 0.42356 0.75861 0.0
C884 C 0.70298 0.41168 0.76823 0.0
C885 C 0.729 0.42619 0.75767 0.0
C886 C 0.64412 0.46426 0.72976 0.0
C887 C 0.70546 0.38273 0.78796 0.0
C888 C 0.60804 0.39082 0.80477 0.0
C889 C 0.59847 0.3696 0.78054 0.0
C890 C 0.63234 0.40936 0.79754 0.0
C891 C 0.64757 0.40624 0.76555 0.0
C892 C 0.63754 0.38531 0.7407 0.0
C893 C 0.61297 0.36736 0.74842 0.0
C894 C 0.64213 0.43176 0.82441 0.0
C895 C 0.65337 0.38116 0.70638 0.0
H896 H 0.6989 0.48453 0.71364 0.0
H897 H 0.7504 0.41646 0.76395 0.0
H898 H 0.63326 0.45018 0.7098 0.0
H899 H 0.62901 0.46524 0.75253 0.0
H900 H 0.64673 0.48704 0.71901 0.0
H901 H 0.72874 0.37757 0.79547 0.0
H902 H 0.69163 0.38345 0.81181 0.0
H903 H 0.69697 0.36428 0.77158 0.0
H904 H 0.59675 0.39272 0.82958 0.0
H905 H 0.60564 0.35096 0.72964 0.0
H906 H 0.6441 0.45413 0.81247 0.0
H907 H 0.66441 0.42562 0.83446 0.0
H908 H 0.62647 0.43309 0.84669 0.0
H909 H 0.65455 0.4026 0.6922 0.0
H910 H 0.6422 0.36455 0.68949 0.0
H911 H 0.67654 0.37368 0.7111 0.0
C912 C 0.14198 0.62023 0.29824 0.0
C913 C 0.13957 0.59447 0.27795 0.0
C914 C 0.12576 0.64593 0.28992 0.0
C915 C 0.10671 0.64578 0.26062 0.0
C916 C 0.10353 0.61953 0.24067 0.0
C917 C 0.12002 0.59417 0.24958 0.0
C918 C 0.12974 0.67353 0.31177 0.0
C919 C 0.08343 0.61852 0.20925 0.0
C920 C 0.04921 0.7071 0.24955 0.0
C921 C 0.06353 0.72588 0.22579 0.0
C922 C 0.06304 0.68096 0.2614 0.0
C923 C 0.09185 0.67364 0.24924 0.0
C924 C 0.10649 0.69274 0.22555 0.0
C925 C 0.09212 0.71858 0.21406 0.0
C926 C 0.04678 0.66104 0.2866 0.0
C927 C 0.13728 0.68578 0.21209 0.0
H928 H 0.157 0.62052 0.32028 0.0
H929 H 0.118 0.57426 0.23389 0.0
H930 H 0.14036 0.69122 0.29596 0.0
H931 H 0.10782 0.68213 0.32039 0.0
H932 H 0.14372 0.66937 0.33508 0.0
H933 H 0.08188 0.59584 0.19795 0.0
H934 H 0.06076 0.62615 0.21629 0.0
H935 H 0.09195 0.63385 0.18896 0.0
H936 H 0.0271 0.71269 0.25866 0.0
H937 H 0.10335 0.73308 0.19578 0.0
H938 H 0.06025 0.65787 0.31049 0.0
H939 H 0.0435 0.63876 0.27483 0.0
H940 H 0.02474 0.67018 0.29407 0.0
H941 H 0.153 0.68342 0.23414 0.0
H942 H 0.14578 0.70327 0.19428 0.0
H943 H 0.13707 0.66428 0.19795 0.0
C944 C 0.89704 0.11207 0.79567 0.0
C945 C 0.89917 0.13944 0.77838 0.0
C946 C 0.87333 0.09264 0.78902 0.0
C947 C 0.8511 0.10109 0.76495 0.0
C948 C 0.8531 0.1288 0.74758 0.0
C949 C 0.87726 0.14755 0.75432 0.0
C950 C 0.87213 0.06308 0.80758 0.0
C951 C 0.82961 0.13872 0.722 0.0
C952 C 0.8014 0.04584 0.71899 0.0
C953 C 0.77464 0.04944 0.73717 0.0
C954 C 0.82704 0.06126 0.72902 0.0
C955 C 0.82568 0.08106 0.75757 0.0
C956 C 0.79912 0.0836 0.77711 0.0
C957 C 0.77391 0.06754 0.76679 0.0
C958 C 0.85513 0.05756 0.70795 0.0
C959 C 0.79676 0.10466 0.80756 0.0
H960 H 0.91404 0.10571 0.81421 0.0
H961 H 0.87879 0.16877 0.74105 0.0
H962 H 0.85137 0.06144 0.82301 0.0
H963 H 0.87179 0.04472 0.78831 0.0
H964 H 0.89137 0.05974 0.82527 0.0
H965 H 0.83416 0.1612 0.71127 0.0
H966 H 0.82831 0.12274 0.70009 0.0
H967 H 0.80752 0.13904 0.73482 0.0
H968 H 0.80205 0.03169 0.69618 0.0
H969 H 0.75322 0.07043 0.78084 0.0
H970 H 0.87443 0.05362 0.72532 0.0
H971 H 0.85961 0.07827 0.69318 0.0
H972 H 0.85353 0.03884 0.68921 0.0
H973 H 0.81542 0.10107 0.82593 0.0
H974 H 0.77549 0.10204 0.8219 0.0
H975 H 0.79831 0.12792 0.7981 0.0
C976 C 0.52103 0.20845 0.0507 0.0
C977 C 0.50528 0.2223 0.07763 0.0
C978 C 0.51989 0.21956 0.01671 0.0
C979 C 0.5025 0.24508 0.00957 0.0
C980 C 0.48537 0.2583 0.03629 0.0
C981 C 0.48702 0.24675 0.07013 0.0
C982 C 0.53845 0.20485 0.98885 0.0
C983 C 0.46639 0.28539 0.02949 0.0
C984 C 0.53073 0.29184 0.93485 0.0
C985 C 0.5126 0.28225 0.90748 0.0
C986 C 0.52697 0.28059 0.96851 0.0
C987 C 0.50446 0.25932 0.97488 0.0
C988 C 0.48534 0.25037 0.94763 0.0
C989 C 0.48969 0.26193 0.91413 0.0
C990 C 0.54781 0.29066 -0.00305 0.0
C991 C 0.46099 0.22787 0.95362 0.0
H992 H 0.53506 0.18944 0.05636 0.0
H993 H 0.47469 0.25743 0.0909 0.0
H994 H 0.52458 0.19974 0.96577 0.0
H995 H 0.55623 0.22028 0.98027 0.0
H996 H 0.54899 0.18393 -0.00192 0.0
H997 H 0.452 0.291 0.05204 0.0
H998 H 0.48089 0.30474 0.02385 0.0
H999 H 0.45213 0.28183 0.00634 0.0
H1000 H 0.5484 0.30764 0.92983 0.0
H1001 H 0.47555 0.25457 0.893 0.0
H1002 H 0.56133 0.27153 0.00608 0.0
H1003 H 0.53497 0.29898 0.01957 0.0
H1004 H 0.5631 0.3085 0.9881 0.0
H1005 H 0.47097 0.20594 0.95985 0.0
H1006 H 0.44641 0.22528 0.93051 0.0
H1007 H 0.44712 0.23449 0.97619 0.0
C1008 C 0.20123 0.53102 0.42764 0.0
C1009 C 0.20946 0.50895 0.4038 0.0
C1010 C 0.21044 0.52949 0.46239 0.0
C1011 C 0.22834 0.50536 0.47339 0.0
C1012 C 0.23561 0.48234 0.4498 0.0
C1013 C 0.22604 0.48441 0.4152 0.0
C1014 C 0.20214 0.55438 0.48691 0.0
C1015 C 0.25461 0.45624 0.46069 0.0
C1016 C 0.28079 0.52158 0.5478 0.0
C1017 C 0.26554 0.50924 0.57608 0.0
C1018 C 0.26912 0.51993 0.51413 0.0
C1019 C 0.24153 0.50561 0.50868 0.0
C1020 C 0.22629 0.49254 0.53701 0.0
C1021 C 0.23852 0.4945 0.57048 0.0
C1022 C 0.28606 0.53405 0.48448 0.0
C1023 C 0.19684 0.47707 0.53205 0.0
H1024 H 0.18826 0.54994 0.41894 0.0
H1025 H 0.23235 0.46724 0.39684 0.0
H1026 H 0.19227 0.54525 0.51109 0.0
H1027 H 0.22241 0.56685 0.49444 0.0
H1028 H 0.18609 0.57021 0.47506 0.0
H1029 H 0.2559 0.4389 0.44018 0.0
H1030 H 0.27746 0.46404 0.46649 0.0
H1031 H 0.24571 0.44603 0.4848 0.0
H1032 H 0.30172 0.53292 0.55203 0.0
H1033 H 0.22669 0.48492 0.59233 0.0
H1034 H 0.27258 0.55214 0.47278 0.0
H1035 H 0.2903 0.51739 0.4638 0.0
H1036 H 0.30768 0.54347 0.49298 0.0
H1037 H 0.18004 0.49324 0.5226 0.0
H1038 H 0.18854 0.46685 0.55649 0.0
H1039 H 0.19889 0.45947 0.51198 0.0
C1040 C 0.99664 0.23616 0.07354 0.0
C1041 C 0.98051 0.26221 0.08033 0.0
C1042 C -0.00056 0.2253 0.0395 0.0
C1043 C 0.98576 0.24091 0.01183 0.0
C1044 C 0.97009 0.2676 0.0185 0.0
C1045 C 0.96764 0.27792 0.0527 0.0
C1046 C 0.01634 0.19678 0.03324 0.0
C1047 C 0.95523 0.28488 0.98961 0.0
C1048 C 0.00656 0.22896 0.91742 0.0
C1049 C 0.98262 0.2117 0.90583 0.0
C1050 C 0.00866 0.2376 0.95237 0.0
C1051 C 0.98629 0.22871 0.97606 0.0
C1052 C 0.96285 0.21013 0.96478 0.0
C1053 C 0.9613 0.20185 0.92974 0.0
C1054 C 0.03403 0.25733 0.96359 0.0
C1055 C 0.93863 0.20012 0.98934 0.0
H1056 H 0.00667 0.22401 0.09487 0.0
H1057 H 0.95526 0.29814 0.05785 0.0
H1058 H 0.00094 0.17944 0.02349 0.0
H1059 H 0.03355 0.20019 0.01297 0.0
H1060 H 0.02727 0.18838 0.05723 0.0
H1061 H 0.94502 0.3059 -0.001 0.0
H1062 H 0.97161 0.29032 0.969 0.0
H1063 H 0.93762 0.2711 0.97749 0.0
H1064 H 0.02315 0.23651 0.89899 0.0
H1065 H 0.94286 0.18833 0.9209 0.0
H1066 H 0.04477 0.24827 0.98731 0.0
H1067 H 0.02536 0.27973 0.97019 0.0
H1068 H 0.05113 0.25975 0.94294 0.0
H1069 H 0.94845 0.18992 0.01297 0.0
H1070 H 0.92336 0.1838 0.97712 0.0
H1071 H 0.92541 0.21965 -0.00214 0.0
C1072 C 0.25717 -0.00095 0.42636 0.0
C1073 C 0.27606 0.97603 0.41559 0.0
C1074 C 0.24791 0.00117 0.46109 0.0
C1075 C 0.25771 0.97966 0.48541 0.0
C1076 C 0.27685 0.95643 0.47466 0.0
C1077 C 0.28586 0.95494 0.43985 0.0
C1078 C 0.22758 0.02631 0.47175 0.0
C1079 C 0.28764 0.93303 0.49989 0.0
C1080 C 0.25635 0.99681 0.58183 0.0
C1081 C 0.2307 0.9817 0.59249 0.0
C1082 C 0.2651 0.99683 0.54685 0.0
C1083 C 0.24784 0.98123 0.52213 0.0
C1084 C 0.22171 0.96626 0.53267 0.0
C1085 C 0.21339 0.96674 0.56779 0.0
C1086 C 0.29304 0.01316 0.53644 0.0
C1087 C 0.20284 0.9493 0.50699 0.0
H1088 H 0.24958 0.0154 0.40763 0.0
H1089 H 0.30043 0.93707 0.43158 0.0
H1090 H 0.20649 0.01722 0.48222 0.0
H1091 H 0.23805 0.03949 0.49282 0.0
H1092 H 0.22231 0.04143 0.44974 0.0
H1093 H 0.3025 0.91647 0.48733 0.0
H1094 H 0.29985 0.94367 0.52162 0.0
H1095 H 0.26839 0.92113 0.51134 0.0
H1096 H 0.26972 0.00848 0.60087 0.0
H1097 H 0.19353 0.95504 0.57597 0.0
H1098 H 0.28802 0.02942 0.51553 0.0
H1099 H 0.30953 0.99719 0.52588 0.0
H1100 H 0.30329 0.02518 0.55863 0.0
H1101 H 0.19576 0.96417 0.4855 0.0
H1102 H 0.18272 0.93957 0.51926 0.0
H1103 H 0.21608 0.93105 0.49525 0.0
C1104 C 0.45667 0.77743 0.92958 0.0
C1105 C 0.47391 0.76302 0.90434 0.0
C1106 C 0.45734 0.76822 0.96435 0.0
C1107 C 0.47553 0.74389 0.97395 0.0
C1108 C 0.49307 0.72928 0.94861 0.0
C1109 C 0.49213 0.73912 0.91402 0.0
C1110 C 0.43846 0.78442 0.99076 0.0
C1111 C 0.51255 0.70312 0.95798 0.0
C1112 C 0.49482 0.73633 0.06947 0.0
C1113 C 0.47356 0.71566 0.08056 0.0
C1114 C 0.49604 0.74543 0.03462 0.0
C1115 C 0.47562 0.73339 0.01046 0.0
C1116 C 0.4545 0.71208 0.02142 0.0
C1117 C 0.45367 0.70353 0.05642 0.0
C1118 C 0.51876 0.76833 0.0238 0.0
C1119 C 0.43247 0.69868 -0.00371 0.0
H1120 H 0.44265 0.796 0.92217 0.0
H1121 H 0.50546 0.72794 0.89452 0.0
H1122 H 0.4222 0.76885 0.00251 0.0
H1123 H 0.45264 0.79297 0.01213 0.0
H1124 H 0.42611 0.80338 0.97914 0.0
H1125 H 0.52511 0.69447 0.93525 0.0
H1126 H 0.52862 0.70961 0.97848 0.0
H1127 H 0.49873 0.68489 0.96874 0.0
H1128 H 0.51022 0.74574 0.08812 0.0
H1129 H 0.43727 0.68744 0.06491 0.0
H1130 H 0.50732 0.78856 0.01409 0.0
H1131 H 0.53254 0.75961 0.00216 0.0
H1132 H 0.53366 0.77477 0.04556 0.0
H1133 H 0.41786 0.71637 0.98564 0.0
H1134 H 0.4183 0.68148 0.00872 0.0
H1135 H 0.44434 0.68846 0.97401 0.0
C1136 C 0.79269 0.46642 0.55653 0.0
C1137 C 0.78026 0.4857 0.58119 0.0
C1138 C 0.7828 0.46658 0.52199 0.0
C1139 C 0.75999 0.48651 0.51199 0.0
C1140 C 0.74793 0.5066 0.53655 0.0
C1141 C 0.75822 0.50593 0.57094 0.0
C1142 C 0.79618 0.44484 0.49644 0.0
C1143 C 0.72361 0.5282 0.52672 0.0
C1144 C 0.74905 0.49993 0.41547 0.0
C1145 C 0.72562 0.48043 0.40806 0.0
C1146 C 0.76022 0.50254 0.44937 0.0
C1147 C 0.74766 0.48516 0.4763 0.0
C1148 C 0.7237 0.46579 0.46903 0.0
C1149 C 0.71294 0.46369 0.43496 0.0
C1150 C 0.78573 0.52351 0.4563 0.0
C1151 C 0.70976 0.44689 0.49712 0.0
H1152 H 0.80979 0.4508 0.56436 0.0
H1153 H 0.74861 0.52093 0.58994 0.0
H1154 H 0.77886 0.4291 0.48742 0.0
H1155 H 0.80456 0.45682 0.4732 0.0
H1156 H 0.81476 0.43186 0.50795 0.0
H1157 H 0.71788 0.54353 0.54837 0.0
H1158 H 0.73048 0.5416 0.50387 0.0
H1159 H 0.70333 0.51577 0.51919 0.0
H1160 H 0.75888 0.51293 0.3947 0.0
H1161 H 0.6948 0.4486 0.42932 0.0
H1162 H 0.8053 0.51078 0.46563 0.0
H1163 H 0.77962 0.53945 0.47712 0.0
H1164 H 0.79226 0.53624 0.43275 0.0
H1165 H 0.72664 0.43155 0.50815 0.0
H1166 H 0.69082 0.4335 0.48728 0.0
H1167 H 0.70173 0.46119 0.51867 0.0
C1168 C 0.02322 0.79088 0.05874 0.0
C1169 C 0.00674 0.77768 0.0855 0.0
C1170 C 0.02136 0.78032 0.02459 0.0
C1171 C 0.00239 0.7561 0.01704 0.0
C1172 C 0.98471 0.74347 0.04365 0.0
C1173 C 0.98718 0.75438 0.07772 0.0
C1174 C 0.04065 0.79431 -0.0031 0.0
C1175 C 0.96403 0.71782 0.03638 0.0
C1176 C 0.98873 0.74451 0.92083 0.0
C1177 C 0.01068 0.72347 0.91282 0.0
C1178 C 0.98458 0.75426 0.95514 0.0
C1179 C 0.00299 0.74279 0.9818 0.0
C1180 C 0.02421 0.7205 0.97405 0.0
C1181 C 0.02774 0.71105 0.93962 0.0
C1182 C 0.96151 0.77781 0.96257 0.0
C1183 C 0.0443 0.70775 0.0018 0.0
H1184 H 0.0383 0.80897 0.06463 0.0
H1185 H 0.9743 0.74422 0.09837 0.0
H1186 H 0.05696 0.77774 0.98722 0.0
H1187 H 0.02688 0.80133 0.97442 0.0
H1188 H 0.05301 0.81397 0.0067 0.0
H1189 H 0.94963 0.71257 0.05903 0.0
H1190 H 0.94971 0.72287 0.01365 0.0
H1191 H 0.97722 0.69773 0.02981 0.0
H1192 H 0.97535 0.754 0.90017 0.0
H1193 H 0.04462 0.69463 0.93355 0.0
H1194 H 0.97272 0.79904 0.96913 0.0
H1195 H 0.94778 0.7714 0.98533 0.0
H1196 H 0.94663 0.78172 0.93997 0.0
H1197 H 0.05946 0.72535 0.01147 0.0
H1198 H 0.05796 0.68894 0.992 0.0
H1199 H 0.031 0.69988 0.02428 0.0
C1200 C 0.697 0.02914 0.5626 0.0
C1201 C 0.70795 0.00868 0.58691 0.0
C1202 C 0.70557 0.02761 0.52761 0.0
C1203 C 0.72553 0.00507 0.51686 0.0
C1204 C 0.73545 0.98344 0.54094 0.0
C1205 C 0.72652 0.98552 0.57578 0.0
C1206 C 0.69445 0.05099 0.50258 0.0
C1207 C 0.75665 0.95902 0.53033 0.0
C1208 C 0.73562 0.99306 0.41993 0.0
C1209 C 0.76112 0.01005 0.4134 0.0
C1210 C 0.72394 0.99077 0.45365 0.0
C1211 C 0.73817 0.00587 0.48128 0.0
C1212 C 0.76423 0.02258 0.4749 0.0
C1213 C 0.7754 0.02446 0.441 0.0
C1214 C 0.69616 0.97269 0.45963 0.0
C1215 C 0.78005 0.03894 0.50378 0.0
H1216 H 0.68251 0.04699 0.5711 0.0
H1217 H 0.73491 0.96955 0.5945 0.0
H1218 H 0.71324 0.06532 0.49432 0.0
H1219 H 0.68529 0.0404 0.47885 0.0
H1220 H 0.67701 0.06533 0.51431 0.0
H1221 H 0.75978 0.94225 0.55123 0.0
H1222 H 0.74846 0.94759 0.50664 0.0
H1223 H 0.77861 0.96879 0.52392 0.0
H1224 H 0.72454 0.98186 0.39861 0.0
H1225 H 0.79515 0.03757 0.43606 0.0
H1226 H 0.67803 0.98737 0.46905 0.0
H1227 H 0.70015 0.95574 0.48008 0.0
H1228 H 0.68853 0.96127 0.43563 0.0
H1229 H 0.76497 0.05581 0.5153 0.0
H1230 H 0.80048 0.05032 0.49456 0.0
H1231 H 0.78624 0.02321 0.5248 0.0
loop_
_geom_bond_atom_site_label_1
_geom_bond_atom_site_label_2
_geom_bond_distance
_geom_bond_site_symmetry_2
_ccdc_geom_bond_type
In0 O1 2.294 . S
In0 O2 2.326 . S
In0 O6 2.266 . S
In0 O7 2.326 . S
In0 O8 2.266 . S
In0 O9 2.326 . S
In0 O11 2.294 . S
In0 O12 2.326 . S
O1 In0 2.294 . S
O1 C10 1.240 . S
O2 In0 2.326 . S
O2 C10 1.252 . S
C3 O6 1.252 . S
C3 O7 1.260 . S
C4 O11 1.240 . S
C4 O12 1.252 . S
C5 O8 1.252 . S
C5 O9 1.260 . S
O6 In0 2.266 . S
O6 C3 1.252 . S
O7 In0 2.326 . S
O7 C3 1.260 . S
O8 In0 2.266 . S
O8 C5 1.252 . S
O9 In0 2.326 . S
O9 C5 1.260 . S
C10 O1 1.240 . S
C10 O2 1.252 . S
O11 In0 2.294 . S
O11 C4 1.240 . S
O12 In0 2.326 . S
O12 C4 1.252 . S
In13 O14 2.294 . S
In13 O15 2.326 . S
In13 O19 2.266 . S
In13 O20 2.326 . S
In13 O21 2.266 . S
In13 O22 2.326 . S
In13 O24 2.294 . S
In13 O25 2.326 . S
O14 In13 2.294 . S
O14 C23 1.240 . S
O15 In13 2.326 . S
O15 C23 1.252 . S
C16 O19 1.252 . S
C16 O20 1.260 . S
C17 O24 1.240 . S
C17 O25 1.252 . S
C18 O21 1.252 . S
C18 O22 1.260 . S
O19 In13 2.266 . S
O19 C16 1.252 . S
O20 In13 2.326 . S
O20 C16 1.260 . S
O21 In13 2.266 . S
O21 C18 1.252 . S
O22 In13 2.326 . S
O22 C18 1.260 . S
C23 O14 1.240 . S
C23 O15 1.252 . S
O24 In13 2.294 . S
O24 C17 1.240 . S
O25 In13 2.326 . S
O25 C17 1.252 . S
In26 O27 2.294 1_655 S
In26 O28 2.326 1_655 S
In26 O32 2.266 . S
In26 O33 2.326 . S
In26 O34 2.266 . S
In26 O35 2.326 1_655 S
In26 O37 2.294 . S
In26 O38 2.326 . S
O27 In26 2.294 1_455 S
O27 C36 1.240 . S
O28 In26 2.326 1_455 S
O28 C36 1.252 . S
C29 O32 1.252 . S
C29 O33 1.260 . S
C30 O37 1.240 . S
C30 O38 1.252 . S
C31 O34 1.252 . S
C31 O35 1.260 1_655 S
O32 In26 2.266 . S
O32 C29 1.252 . S
O33 In26 2.326 . S
O33 C29 1.260 . S
O34 In26 2.266 . S
O34 C31 1.252 . S
O35 In26 2.326 1_455 S
O35 C31 1.260 1_455 S
C36 O27 1.240 . S
C36 O28 1.252 . S
O37 In26 2.294 . S
O37 C30 1.240 . S
O38 In26 2.326 . S
O38 C30 1.252 . S
In39 O40 2.294 1_565 S
In39 O41 2.326 1_565 S
In39 O45 2.266 . S
In39 O46 2.326 . S
In39 O47 2.266 . S
In39 O48 2.326 1_565 S
In39 O50 2.294 . S
In39 O51 2.326 . S
O40 In39 2.294 1_545 S
O40 C49 1.240 . S
O41 In39 2.326 1_545 S
O41 C49 1.252 . S
C42 O45 1.252 . S
C42 O46 1.260 . S
C43 O50 1.240 . S
C43 O51 1.252 . S
C44 O47 1.252 . S
C44 O48 1.260 1_565 S
O45 In39 2.266 . S
O45 C42 1.252 . S
O46 In39 2.326 . S
O46 C42 1.260 . S
O47 In39 2.266 . S
O47 C44 1.252 . S
O48 In39 2.326 1_545 S
O48 C44 1.260 1_545 S
C49 O40 1.240 . S
C49 O41 1.252 . S
O50 In39 2.294 . S
O50 C43 1.240 . S
O51 In39 2.326 . S
O51 C43 1.252 . S
In52 O53 2.294 . S
In52 O54 2.326 . S
In52 O58 2.266 . S
In52 O59 2.326 . S
In52 O60 2.266 . S
In52 O61 2.326 . S
In52 O63 2.294 . S
In52 O64 2.326 . S
O53 In52 2.294 . S
O53 C62 1.240 . S
O54 In52 2.326 . S
O54 C62 1.252 . S
C55 O58 1.252 . S
C55 O59 1.260 . S
C56 O63 1.240 . S
C56 O64 1.252 . S
C57 O60 1.252 . S
C57 O61 1.260 . S
O58 In52 2.266 . S
O58 C55 1.252 . S
O59 In52 2.326 . S
O59 C55 1.260 . S
O60 In52 2.266 . S
O60 C57 1.252 . S
O61 In52 2.326 . S
O61 C57 1.260 . S
C62 O53 1.240 . S
C62 O54 1.252 . S
O63 In52 2.294 . S
O63 C56 1.240 . S
O64 In52 2.326 . S
O64 C56 1.252 . S
In65 O66 2.294 . S
In65 O67 2.326 . S
In65 O71 2.266 . S
In65 O72 2.326 . S
In65 O73 2.266 . S
In65 O74 2.326 . S
In65 O76 2.294 . S
In65 O77 2.326 . S
O66 In65 2.294 . S
O66 C75 1.240 . S
O67 In65 2.326 . S
O67 C75 1.252 . S
C68 O71 1.252 . S
C68 O72 1.260 . S
C69 O76 1.240 . S
C69 O77 1.252 . S
C70 O73 1.252 . S
C70 O74 1.260 . S
O71 In65 2.266 . S
O71 C68 1.252 . S
O72 In65 2.326 . S
O72 C68 1.260 . S
O73 In65 2.266 . S
O73 C70 1.252 . S
O74 In65 2.326 . S
O74 C70 1.260 . S
C75 O66 1.240 . S
C75 O67 1.252 . S
O76 In65 2.294 . S
O76 C69 1.240 . S
O77 In65 2.326 . S
O77 C69 1.252 . S
In78 O79 2.294 . S
In78 O80 2.326 . S
In78 O84 2.266 . S
In78 O85 2.326 1_655 S
In78 O86 2.266 . S
In78 O87 2.326 . S
In78 O89 2.294 1_655 S
In78 O90 2.326 1_655 S
O79 In78 2.294 . S
O79 C88 1.240 . S
O80 In78 2.326 . S
O80 C88 1.252 . S
C81 O84 1.252 . S
C81 O85 1.260 1_655 S
C82 O89 1.240 . S
C82 O90 1.252 . S
C83 O86 1.252 . S
C83 O87 1.260 . S
O84 In78 2.266 . S
O84 C81 1.252 . S
O85 In78 2.326 1_455 S
O85 C81 1.260 1_455 S
O86 In78 2.266 . S
O86 C83 1.252 . S
O87 In78 2.326 . S
O87 C83 1.260 . S
C88 O79 1.240 . S
C88 O80 1.252 . S
O89 In78 2.294 1_455 S
O89 C82 1.240 . S
O90 In78 2.326 1_455 S
O90 C82 1.252 . S
In91 O92 2.294 . S
In91 O93 2.326 . S
In91 O97 2.266 . S
In91 O98 2.326 1_565 S
In91 O99 2.266 . S
In91 O100 2.326 . S
In91 O102 2.294 1_565 S
In91 O103 2.326 1_565 S
O92 In91 2.294 . S
O92 C101 1.240 . S
O93 In91 2.326 . S
O93 C101 1.252 . S
C94 O97 1.252 . S
C94 O98 1.260 1_565 S
C95 O102 1.240 . S
C95 O103 1.252 . S
C96 O99 1.252 . S
C96 O100 1.260 . S
O97 In91 2.266 . S
O97 C94 1.252 . S
O98 In91 2.326 1_545 S
O98 C94 1.260 1_545 S
O99 In91 2.266 . S
O99 C96 1.252 . S
O100 In91 2.326 . S
O100 C96 1.260 . S
C101 O92 1.240 . S
C101 O93 1.252 . S
O102 In91 2.294 1_545 S
O102 C95 1.240 . S
O103 In91 2.326 1_545 S
O103 C95 1.252 . S
In104 O105 2.294 . S
In104 O106 2.326 . S
In104 O110 2.266 . S
In104 O111 2.326 . S
In104 O112 2.266 . S
In104 O113 2.326 . S
In104 O115 2.294 . S
In104 O116 2.326 . S
O105 In104 2.294 . S
O105 C114 1.240 . S
O106 In104 2.326 . S
O106 C114 1.252 . S
C107 O110 1.252 . S
C107 O111 1.260 . S
C108 O115 1.240 . S
C108 O116 1.252 . S
C109 O112 1.252 . S
C109 O113 1.260 . S
O110 In104 2.266 . S
O110 C107 1.252 . S
O111 In104 2.326 . S
O111 C107 1.260 . S
O112 In104 2.266 . S
O112 C109 1.252 . S
O113 In104 2.326 . S
O113 C109 1.260 . S
C114 O105 1.240 . S
C114 O106 1.252 . S
O115 In104 2.294 . S
O115 C108 1.240 . S
O116 In104 2.326 . S
O116 C108 1.252 . S
In117 O118 2.294 . S
In117 O119 2.326 . S
In117 O123 2.266 . S
In117 O124 2.326 . S
In117 O125 2.266 . S
In117 O126 2.326 . S
In117 O128 2.294 . S
In117 O129 2.326 . S
O118 In117 2.294 . S
O118 C127 1.240 . S
O119 In117 2.326 . S
O119 C127 1.252 . S
C120 O123 1.252 . S
C120 O124 1.260 . S
C121 O128 1.240 . S
C121 O129 1.252 . S
C122 O125 1.252 . S
C122 O126 1.260 . S
O123 In117 2.266 . S
O123 C120 1.252 . S
O124 In117 2.326 . S
O124 C120 1.260 . S
O125 In117 2.266 . S
O125 C122 1.252 . S
O126 In117 2.326 . S
O126 C122 1.260 . S
C127 O118 1.240 . S
C127 O119 1.252 . S
O128 In117 2.294 . S
O128 C121 1.240 . S
O129 In117 2.326 . S
O129 C121 1.252 . S
In130 O131 2.294 . S
In130 O132 2.326 . S
In130 O136 2.266 . S
In130 O137 2.326 1_455 S
In130 O138 2.266 . S
In130 O139 2.326 . S
In130 O141 2.294 1_455 S
In130 O142 2.326 1_455 S
O131 In130 2.294 . S
O131 C140 1.240 . S
O132 In130 2.326 . S
O132 C140 1.252 . S
C133 O136 1.252 . S
C133 O137 1.260 1_455 S
C134 O141 1.240 . S
C134 O142 1.252 . S
C135 O138 1.252 . S
C135 O139 1.260 . S
O136 In130 2.266 . S
O136 C133 1.252 . S
O137 In130 2.326 1_655 S
O137 C133 1.260 1_655 S
O138 In130 2.266 . S
O138 C135 1.252 . S
O139 In130 2.326 . S
O139 C135 1.260 . S
C140 O131 1.240 . S
C140 O132 1.252 . S
O141 In130 2.294 1_655 S
O141 C134 1.240 . S
O142 In130 2.326 1_655 S
O142 C134 1.252 . S
In143 O144 2.294 1_545 S
In143 O145 2.326 1_545 S
In143 O149 2.266 . S
In143 O150 2.326 . S
In143 O151 2.266 . S
In143 O152 2.326 1_545 S
In143 O154 2.294 . S
In143 O155 2.326 . S
O144 In143 2.294 1_565 S
O144 C153 1.240 . S
O145 In143 2.326 1_565 S
O145 C153 1.252 . S
C146 O149 1.252 . S
C146 O150 1.260 . S
C147 O154 1.240 . S
C147 O155 1.252 . S
C148 O151 1.252 . S
C148 O152 1.260 1_545 S
O149 In143 2.266 . S
O149 C146 1.252 . S
O150 In143 2.326 . S
O150 C146 1.260 . S
O151 In143 2.266 . S
O151 C148 1.252 . S
O152 In143 2.326 1_565 S
O152 C148 1.260 1_565 S
C153 O144 1.240 . S
C153 O145 1.252 . S
O154 In143 2.294 . S
O154 C147 1.240 . S
O155 In143 2.326 . S
O155 C147 1.252 . S
In156 O157 2.294 . S
In156 O158 2.326 . S
In156 O162 2.266 . S
In156 O163 2.326 . S
In156 O164 2.266 . S
In156 O165 2.326 . S
In156 O167 2.294 . S
In156 O168 2.326 . S
O157 In156 2.294 . S
O157 C166 1.240 . S
O158 In156 2.326 . S
O158 C166 1.252 . S
C159 O162 1.252 . S
C159 O163 1.260 . S
C160 O167 1.240 . S
C160 O168 1.252 . S
C161 O164 1.252 . S
C161 O165 1.260 . S
O162 In156 2.266 . S
O162 C159 1.252 . S
O163 In156 2.326 . S
O163 C159 1.260 . S
O164 In156 2.266 . S
O164 C161 1.252 . S
O165 In156 2.326 . S
O165 C161 1.260 . S
C166 O157 1.240 . S
C166 O158 1.252 . S
O167 In156 2.294 . S
O167 C160 1.240 . S
O168 In156 2.326 . S
O168 C160 1.252 . S
In169 O170 2.294 . S
In169 O171 2.326 . S
In169 O175 2.266 . S
In169 O176 2.326 . S
In169 O177 2.266 . S
In169 O178 2.326 . S
In169 O180 2.294 . S
In169 O181 2.326 . S
O170 In169 2.294 . S
O170 C179 1.240 . S
O171 In169 2.326 . S
O171 C179 1.252 . S
C172 O175 1.252 . S
C172 O176 1.260 . S
C173 O180 1.240 . S
C173 O181 1.252 . S
C174 O177 1.252 . S
C174 O178 1.260 . S
O175 In169 2.266 . S
O175 C172 1.252 . S
O176 In169 2.326 . S
O176 C172 1.260 . S
O177 In169 2.266 . S
O177 C174 1.252 . S
O178 In169 2.326 . S
O178 C174 1.260 . S
C179 O170 1.240 . S
C179 O171 1.252 . S
O180 In169 2.294 . S
O180 C173 1.240 . S
O181 In169 2.326 . S
O181 C173 1.252 . S
In182 O183 2.294 . S
In182 O184 2.326 . S
In182 O188 2.266 . S
In182 O189 2.326 1_455 S
In182 O190 2.266 . S
In182 O191 2.326 . S
In182 O193 2.294 1_455 S
In182 O194 2.326 1_455 S
O183 In182 2.294 . S
O183 C192 1.240 . S
O184 In182 2.326 . S
O184 C192 1.252 . S
C185 O188 1.252 . S
C185 O189 1.260 1_455 S
C186 O193 1.240 . S
C186 O194 1.252 . S
C187 O190 1.252 . S
C187 O191 1.260 . S
O188 In182 2.266 . S
O188 C185 1.252 . S
O189 In182 2.326 1_655 S
O189 C185 1.260 1_655 S
O190 In182 2.266 . S
O190 C187 1.252 . S
O191 In182 2.326 . S
O191 C187 1.260 . S
C192 O183 1.240 . S
C192 O184 1.252 . S
O193 In182 2.294 1_655 S
O193 C186 1.240 . S
O194 In182 2.326 1_655 S
O194 C186 1.252 . S
In195 O196 2.294 1_545 S
In195 O197 2.326 1_545 S
In195 O201 2.266 . S
In195 O202 2.326 . S
In195 O203 2.266 . S
In195 O204 2.326 1_545 S
In195 O206 2.294 . S
In195 O207 2.326 . S
O196 In195 2.294 1_565 S
O196 C205 1.240 . S
O197 In195 2.326 1_565 S
O197 C205 1.252 . S
C198 O201 1.252 . S
C198 O202 1.260 . S
C199 O206 1.240 . S
C199 O207 1.252 . S
C200 O203 1.252 . S
C200 O204 1.260 1_545 S
O201 In195 2.266 . S
O201 C198 1.252 . S
O202 In195 2.326 . S
O202 C198 1.260 . S
O203 In195 2.266 . S
O203 C200 1.252 . S
O204 In195 2.326 1_565 S
O204 C200 1.260 1_565 S
C205 O196 1.240 . S
C205 O197 1.252 . S
O206 In195 2.294 . S
O206 C199 1.240 . S
O207 In195 2.326 . S
O207 C199 1.252 . S
C208 C209 1.391 . S
C208 C210 1.394 . S
C208 H224 0.931 . S
C209 C208 1.391 . S
C209 C213 1.376 . S
C210 C208 1.394 . S
C210 C211 1.369 . S
C210 C214 1.531 . S
C211 C210 1.369 . S
C211 C212 1.410 . S
C211 C219 1.503 . S
C212 C211 1.410 . S
C212 C213 1.392 . S
C212 C215 1.511 . S
C213 C209 1.376 . S
C213 C212 1.392 . S
C213 H225 0.929 . S
C214 C210 1.531 . S
C214 H226 0.960 . S
C214 H227 0.962 . S
C214 H228 0.960 . S
C215 C212 1.511 . S
C215 H229 0.961 . S
C215 H230 0.961 . S
C215 H231 0.961 . S
C216 C217 1.370 . S
C216 C218 1.363 . S
C216 H232 0.931 . S
C217 C216 1.370 . S
C217 C221 1.408 . S
C218 C216 1.363 . S
C218 C219 1.370 . S
C218 C222 1.524 . S
C219 C211 1.503 . S
C219 C218 1.370 . S
C219 C220 1.403 . S
C220 C219 1.403 . S
C220 C221 1.404 . S
C220 C223 1.539 . S
C221 C217 1.408 . S
C221 C220 1.404 . S
C221 H233 0.930 . S
C222 C218 1.524 . S
C222 H234 0.956 . S
C222 H235 0.961 . S
C222 H236 0.961 . S
C223 C220 1.539 . S
C223 H237 0.958 . S
C223 H238 0.961 . S
C223 H239 0.960 . S
H224 C208 0.931 . S
H225 C213 0.929 . S
H226 C214 0.960 . S
H227 C214 0.962 . S
H228 C214 0.960 . S
H229 C215 0.961 . S
H230 C215 0.961 . S
H231 C215 0.961 . S
H232 C216 0.931 . S
H233 C221 0.930 . S
H234 C222 0.956 . S
H235 C222 0.961 . S
H236 C222 0.961 . S
H237 C223 0.958 . S
H238 C223 0.961 . S
H239 C223 0.960 . S
C240 C241 1.391 . S
C240 C242 1.394 . S
C240 H256 0.931 . S
C241 C240 1.391 . S
C241 C245 1.376 . S
C242 C240 1.394 . S
C242 C243 1.369 . S
C242 C246 1.531 . S
C243 C242 1.369 . S
C243 C244 1.410 . S
C243 C251 1.503 . S
C244 C243 1.410 . S
C244 C245 1.392 . S
C244 C247 1.511 . S
C245 C241 1.376 . S
C245 C244 1.392 . S
C245 H257 0.929 . S
C246 C242 1.531 . S
C246 H258 0.960 . S
C246 H259 0.962 . S
C246 H260 0.960 . S
C247 C244 1.511 . S
C247 H261 0.961 . S
C247 H262 0.961 . S
C247 H263 0.961 . S
C248 C249 1.370 . S
C248 C250 1.363 . S
C248 H264 0.931 . S
C249 C248 1.370 . S
C249 C253 1.408 . S
C250 C248 1.363 . S
C250 C251 1.370 . S
C250 C254 1.524 . S
C251 C243 1.503 . S
C251 C250 1.370 . S
C251 C252 1.403 . S
C252 C251 1.403 . S
C252 C253 1.404 . S
C252 C255 1.539 . S
C253 C249 1.408 . S
C253 C252 1.404 . S
C253 H265 0.930 . S
C254 C250 1.524 . S
C254 H266 0.956 . S
C254 H267 0.961 . S
C254 H268 0.961 . S
C255 C252 1.539 . S
C255 H269 0.958 . S
C255 H270 0.961 . S
C255 H271 0.960 . S
H256 C240 0.931 . S
H257 C245 0.929 . S
H258 C246 0.960 . S
H259 C246 0.962 . S
H260 C246 0.960 . S
H261 C247 0.961 . S
H262 C247 0.961 . S
H263 C247 0.961 . S
H264 C248 0.931 . S
H265 C253 0.930 . S
H266 C254 0.956 . S
H267 C254 0.961 . S
H268 C254 0.961 . S
H269 C255 0.958 . S
H270 C255 0.961 . S
H271 C255 0.960 . S
C272 C273 1.391 . S
C272 C274 1.394 . S
C272 H288 0.931 . S
C273 C272 1.391 . S
C273 C277 1.376 . S
C274 C272 1.394 . S
C274 C275 1.369 . S
C274 C278 1.531 . S
C275 C274 1.369 . S
C275 C276 1.410 . S
C275 C283 1.503 . S
C276 C275 1.410 . S
C276 C277 1.392 . S
C276 C279 1.511 . S
C277 C273 1.376 . S
C277 C276 1.392 . S
C277 H289 0.929 . S
C278 C274 1.531 . S
C278 H290 0.960 . S
C278 H291 0.962 . S
C278 H292 0.960 . S
C279 C276 1.511 . S
C279 H293 0.961 . S
C279 H294 0.961 . S
C279 H295 0.961 . S
C280 C281 1.370 . S
C280 C282 1.363 . S
C280 H296 0.931 . S
C281 C280 1.370 . S
C281 C285 1.408 . S
C282 C280 1.363 . S
C282 C283 1.370 . S
C282 C286 1.524 . S
C283 C275 1.503 . S
C283 C282 1.370 . S
C283 C284 1.403 . S
C284 C283 1.403 . S
C284 C285 1.404 . S
C284 C287 1.539 . S
C285 C281 1.408 . S
C285 C284 1.404 . S
C285 H297 0.930 . S
C286 C282 1.524 . S
C286 H298 0.956 . S
C286 H299 0.961 . S
C286 H300 0.961 . S
C287 C284 1.539 . S
C287 H301 0.958 . S
C287 H302 0.961 . S
C287 H303 0.960 . S
H288 C272 0.931 . S
H289 C277 0.929 . S
H290 C278 0.960 . S
H291 C278 0.962 . S
H292 C278 0.960 . S
H293 C279 0.961 . S
H294 C279 0.961 . S
H295 C279 0.961 . S
H296 C280 0.931 . S
H297 C285 0.930 . S
H298 C286 0.956 . S
H299 C286 0.961 . S
H300 C286 0.961 . S
H301 C287 0.958 . S
H302 C287 0.961 . S
H303 C287 0.960 . S
C304 C305 1.391 . S
C304 C306 1.394 . S
C304 H320 0.931 . S
C305 C304 1.391 . S
C305 C309 1.376 . S
C306 C304 1.394 . S
C306 C307 1.369 . S
C306 C310 1.531 . S
C307 C306 1.369 . S
C307 C308 1.410 . S
C307 C315 1.503 . S
C308 C307 1.410 . S
C308 C309 1.392 . S
C308 C311 1.511 . S
C309 C305 1.376 . S
C309 C308 1.392 . S
C309 H321 0.929 . S
C310 C306 1.531 . S
C310 H322 0.960 . S
C310 H323 0.962 . S
C310 H324 0.960 . S
C311 C308 1.511 . S
C311 H325 0.961 . S
C311 H326 0.961 . S
C311 H327 0.961 . S
C312 C313 1.370 . S
C312 C314 1.363 . S
C312 H328 0.931 . S
C313 C312 1.370 . S
C313 C317 1.408 . S
C314 C312 1.363 . S
C314 C315 1.370 . S
C314 C318 1.524 . S
C315 C307 1.503 . S
C315 C314 1.370 . S
C315 C316 1.403 . S
C316 C315 1.403 . S
C316 C317 1.404 . S
C316 C319 1.539 . S
C317 C313 1.408 . S
C317 C316 1.404 . S
C317 H329 0.930 . S
C318 C314 1.524 . S
C318 H330 0.956 . S
C318 H331 0.961 . S
C318 H332 0.961 . S
C319 C316 1.539 . S
C319 H333 0.958 . S
C319 H334 0.961 . S
C319 H335 0.960 . S
H320 C304 0.931 . S
H321 C309 0.929 . S
H322 C310 0.960 . S
H323 C310 0.962 . S
H324 C310 0.960 . S
H325 C311 0.961 . S
H326 C311 0.961 . S
H327 C311 0.961 . S
H328 C312 0.931 . S
H329 C317 0.930 . S
H330 C318 0.956 . S
H331 C318 0.961 . S
H332 C318 0.961 . S
H333 C319 0.958 . S
H334 C319 0.961 . S
H335 C319 0.960 . S
C336 C337 1.391 . S
C336 C338 1.394 . S
C336 H352 0.931 . S
C337 C336 1.391 . S
C337 C341 1.376 . S
C338 C336 1.394 . S
C338 C339 1.369 . S
C338 C342 1.531 . S
C339 C338 1.369 . S
C339 C340 1.410 . S
C339 C347 1.503 . S
C340 C339 1.410 . S
C340 C341 1.392 . S
C340 C343 1.511 . S
C341 C337 1.376 . S
C341 C340 1.392 . S
C341 H353 0.929 . S
C342 C338 1.531 . S
C342 H354 0.960 . S
C342 H355 0.962 . S
C342 H356 0.960 . S
C343 C340 1.511 . S
C343 H357 0.961 . S
C343 H358 0.961 . S
C343 H359 0.961 . S
C344 C345 1.370 . S
C344 C346 1.363 . S
C344 H360 0.931 . S
C345 C344 1.370 . S
C345 C349 1.408 . S
C346 C344 1.363 . S
C346 C347 1.370 . S
C346 C350 1.524 . S
C347 C339 1.503 . S
C347 C346 1.370 . S
C347 C348 1.403 . S
C348 C347 1.403 . S
C348 C349 1.404 . S
C348 C351 1.539 . S
C349 C345 1.408 . S
C349 C348 1.404 . S
C349 H361 0.930 . S
C350 C346 1.524 . S
C350 H362 0.956 . S
C350 H363 0.961 . S
C350 H364 0.961 . S
C351 C348 1.539 . S
C351 H365 0.958 . S
C351 H366 0.961 . S
C351 H367 0.960 . S
H352 C336 0.931 . S
H353 C341 0.929 . S
H354 C342 0.960 . S
H355 C342 0.962 . S
H356 C342 0.960 . S
H357 C343 0.961 . S
H358 C343 0.961 . S
H359 C343 0.961 . S
H360 C344 0.931 . S
H361 C349 0.930 . S
H362 C350 0.956 . S
H363 C350 0.961 . S
H364 C350 0.961 . S
H365 C351 0.958 . S
H366 C351 0.961 . S
H367 C351 0.960 . S
C368 C369 1.391 . S
C368 C370 1.394 . S
C368 H384 0.931 . S
C369 C368 1.391 . S
C369 C373 1.376 . S
C370 C368 1.394 . S
C370 C371 1.369 . S
C370 C374 1.531 . S
C371 C370 1.369 . S
C371 C372 1.410 . S
C371 C379 1.503 . S
C372 C371 1.410 . S
C372 C373 1.392 . S
C372 C375 1.511 . S
C373 C369 1.376 . S
C373 C372 1.392 . S
C373 H385 0.929 . S
C374 C370 1.531 . S
C374 H386 0.960 . S
C374 H387 0.962 . S
C374 H388 0.960 . S
C375 C372 1.511 . S
C375 H389 0.961 . S
C375 H390 0.961 . S
C375 H391 0.961 . S
C376 C377 1.370 . S
C376 C378 1.363 . S
C376 H392 0.931 . S
C377 C376 1.370 . S
C377 C381 1.408 . S
C378 C376 1.363 . S
C378 C379 1.370 . S
C378 C382 1.524 . S
C379 C371 1.503 . S
C379 C378 1.370 . S
C379 C380 1.403 . S
C380 C379 1.403 . S
C380 C381 1.404 . S
C380 C383 1.539 . S
C381 C377 1.408 . S
C381 C380 1.404 . S
C381 H393 0.930 . S
C382 C378 1.524 . S
C382 H394 0.956 . S
C382 H395 0.961 . S
C382 H396 0.961 . S
C383 C380 1.539 . S
C383 H397 0.958 . S
C383 H398 0.961 . S
C383 H399 0.960 . S
H384 C368 0.931 . S
H385 C373 0.929 . S
H386 C374 0.960 . S
H387 C374 0.962 . S
H388 C374 0.960 . S
H389 C375 0.961 . S
H390 C375 0.961 . S
H391 C375 0.961 . S
H392 C376 0.931 . S
H393 C381 0.930 . S
H394 C382 0.956 . S
H395 C382 0.961 . S
H396 C382 0.961 . S
H397 C383 0.958 . S
H398 C383 0.961 . S
H399 C383 0.960 . S
C400 C401 1.391 . S
C400 C402 1.394 . S
C400 H416 0.931 . S
C401 C400 1.391 . S
C401 C405 1.376 . S
C402 C400 1.394 . S
C402 C403 1.369 . S
C402 C406 1.531 . S
C403 C402 1.369 . S
C403 C404 1.410 . S
C403 C411 1.503 . S
C404 C403 1.410 . S
C404 C405 1.392 . S
C404 C407 1.511 . S
C405 C401 1.376 . S
C405 C404 1.392 . S
C405 H417 0.929 . S
C406 C402 1.531 . S
C406 H418 0.960 . S
C406 H419 0.962 . S
C406 H420 0.960 . S
C407 C404 1.511 . S
C407 H421 0.961 . S
C407 H422 0.961 . S
C407 H423 0.961 . S
C408 C409 1.370 . S
C408 C410 1.363 . S
C408 H424 0.931 . S
C409 C408 1.370 . S
C409 C413 1.408 . S
C410 C408 1.363 . S
C410 C411 1.370 . S
C410 C414 1.524 . S
C411 C403 1.503 . S
C411 C410 1.370 . S
C411 C412 1.403 . S
C412 C411 1.403 . S
C412 C413 1.404 . S
C412 C415 1.539 . S
C413 C409 1.408 . S
C413 C412 1.404 . S
C413 H425 0.930 . S
C414 C410 1.524 . S
C414 H426 0.956 . S
C414 H427 0.961 . S
C414 H428 0.961 . S
C415 C412 1.539 . S
C415 H429 0.958 . S
C415 H430 0.961 . S
C415 H431 0.960 . S
H416 C400 0.931 . S
H417 C405 0.929 . S
H418 C406 0.960 . S
H419 C406 0.962 . S
H420 C406 0.960 . S
H421 C407 0.961 . S
H422 C407 0.961 . S
H423 C407 0.961 . S
H424 C408 0.931 . S
H425 C413 0.930 . S
H426 C414 0.956 . S
H427 C414 0.961 . S
H428 C414 0.961 . S
H429 C415 0.958 . S
H430 C415 0.961 . S
H431 C415 0.960 . S
C432 C433 1.391 . S
C432 C434 1.394 . S
C432 H448 0.931 . S
C433 C432 1.391 . S
C433 C437 1.376 . S
C434 C432 1.394 . S
C434 C435 1.369 . S
C434 C438 1.531 . S
C435 C434 1.369 . S
C435 C436 1.410 . S
C435 C443 1.503 . S
C436 C435 1.410 . S
C436 C437 1.392 . S
C436 C439 1.511 . S
C437 C433 1.376 . S
C437 C436 1.392 . S
C437 H449 0.929 . S
C438 C434 1.531 . S
C438 H450 0.960 . S
C438 H451 0.962 . S
C438 H452 0.960 . S
C439 C436 1.511 . S
C439 H453 0.961 . S
C439 H454 0.961 . S
C439 H455 0.961 . S
C440 C441 1.370 . S
C440 C442 1.363 . S
C440 H456 0.931 . S
C441 C440 1.370 . S
C441 C445 1.408 . S
C442 C440 1.363 . S
C442 C443 1.370 . S
C442 C446 1.524 . S
C443 C435 1.503 . S
C443 C442 1.370 . S
C443 C444 1.403 . S
C444 C443 1.403 . S
C444 C445 1.404 . S
C444 C447 1.539 . S
C445 C441 1.408 . S
C445 C444 1.404 . S
C445 H457 0.930 . S
C446 C442 1.524 . S
C446 H458 0.956 . S
C446 H459 0.961 . S
C446 H460 0.961 . S
C447 C444 1.539 . S
C447 H461 0.958 . S
C447 H462 0.961 . S
C447 H463 0.960 . S
H448 C432 0.931 . S
H449 C437 0.929 . S
H450 C438 0.960 . S
H451 C438 0.962 . S
H452 C438 0.960 . S
H453 C439 0.961 . S
H454 C439 0.961 . S
H455 C439 0.961 . S
H456 C440 0.931 . S
H457 C445 0.930 . S
H458 C446 0.956 . S
H459 C446 0.961 . S
H460 C446 0.961 . S
H461 C447 0.958 . S
H462 C447 0.961 . S
H463 C447 0.960 . S
C464 C465 1.391 . S
C464 C466 1.394 . S
C464 H480 0.931 . S
C465 C464 1.391 . S
C465 C469 1.376 . S
C466 C464 1.394 . S
C466 C467 1.369 . S
C466 C470 1.531 . S
C467 C466 1.369 . S
C467 C468 1.410 . S
C467 C475 1.503 . S
C468 C467 1.410 . S
C468 C469 1.392 . S
C468 C471 1.511 . S
C469 C465 1.376 . S
C469 C468 1.392 . S
C469 H481 0.929 . S
C470 C466 1.531 . S
C470 H482 0.960 . S
C470 H483 0.962 . S
C470 H484 0.960 . S
C471 C468 1.511 . S
C471 H485 0.961 . S
C471 H486 0.961 . S
C471 H487 0.961 . S
C472 C473 1.370 . S
C472 C474 1.363 . S
C472 H488 0.931 . S
C473 C472 1.370 . S
C473 C477 1.408 . S
C474 C472 1.363 . S
C474 C475 1.370 . S
C474 C478 1.524 . S
C475 C467 1.503 . S
C475 C474 1.370 . S
C475 C476 1.403 . S
C476 C475 1.403 . S
C476 C477 1.404 . S
C476 C479 1.539 . S
C477 C473 1.408 . S
C477 C476 1.404 . S
C477 H489 0.930 . S
C478 C474 1.524 . S
C478 H490 0.956 . S
C478 H491 0.961 . S
C478 H492 0.961 . S
C479 C476 1.539 . S
C479 H493 0.958 . S
C479 H494 0.961 . S
C479 H495 0.960 . S
H480 C464 0.931 . S
H481 C469 0.929 . S
H482 C470 0.960 . S
H483 C470 0.962 . S
H484 C470 0.960 . S
H485 C471 0.961 . S
H486 C471 0.961 . S
H487 C471 0.961 . S
H488 C472 0.931 . S
H489 C477 0.930 . S
H490 C478 0.956 . S
H491 C478 0.961 . S
H492 C478 0.961 . S
H493 C479 0.958 . S
H494 C479 0.961 . S
H495 C479 0.960 . S
C496 C497 1.391 . S
C496 C498 1.394 . S
C496 H512 0.931 . S
C497 C496 1.391 . S
C497 C501 1.376 . S
C498 C496 1.394 . S
C498 C499 1.369 . S
C498 C502 1.531 . S
C499 C498 1.369 . S
C499 C500 1.410 . S
C499 C507 1.503 . S
C500 C499 1.410 . S
C500 C501 1.392 . S
C500 C503 1.511 . S
C501 C497 1.376 . S
C501 C500 1.392 . S
C501 H513 0.929 . S
C502 C498 1.531 . S
C502 H514 0.960 . S
C502 H515 0.962 . S
C502 H516 0.960 . S
C503 C500 1.511 . S
C503 H517 0.961 . S
C503 H518 0.961 . S
C503 H519 0.961 . S
C504 C505 1.370 . S
C504 C506 1.363 . S
C504 H520 0.931 . S
C505 C504 1.370 . S
C505 C509 1.408 . S
C506 C504 1.363 . S
C506 C507 1.370 . S
C506 C510 1.524 . S
C507 C499 1.503 . S
C507 C506 1.370 . S
C507 C508 1.403 . S
C508 C507 1.403 . S
C508 C509 1.404 . S
C508 C511 1.539 . S
C509 C505 1.408 . S
C509 C508 1.404 . S
C509 H521 0.930 . S
C510 C506 1.524 . S
C510 H522 0.956 . S
C510 H523 0.961 . S
C510 H524 0.961 . S
C511 C508 1.539 . S
C511 H525 0.958 . S
C511 H526 0.961 . S
C511 H527 0.960 . S
H512 C496 0.931 . S
H513 C501 0.929 . S
H514 C502 0.960 . S
H515 C502 0.962 . S
H516 C502 0.960 . S
H517 C503 0.961 . S
H518 C503 0.961 . S
H519 C503 0.961 . S
H520 C504 0.931 . S
H521 C509 0.930 . S
H522 C510 0.956 . S
H523 C510 0.961 . S
H524 C510 0.961 . S
H525 C511 0.958 . S
H526 C511 0.961 . S
H527 C511 0.960 . S
C528 C529 1.391 . S
C528 C530 1.394 . S
C528 H544 0.931 . S
C529 C528 1.391 . S
C529 C533 1.376 . S
C530 C528 1.394 . S
C530 C531 1.369 . S
C530 C534 1.531 . S
C531 C530 1.369 . S
C531 C532 1.410 . S
C531 C539 1.503 . S
C532 C531 1.410 . S
C532 C533 1.392 . S
C532 C535 1.511 . S
C533 C529 1.376 . S
C533 C532 1.392 . S
C533 H545 0.929 . S
C534 C530 1.531 . S
C534 H546 0.960 . S
C534 H547 0.962 . S
C534 H548 0.960 . S
C535 C532 1.511 . S
C535 H549 0.961 . S
C535 H550 0.961 . S
C535 H551 0.961 . S
C536 C537 1.370 . S
C536 C538 1.363 . S
C536 H552 0.931 . S
C537 C536 1.370 . S
C537 C541 1.408 . S
C538 C536 1.363 . S
C538 C539 1.370 . S
C538 C542 1.524 . S
C539 C531 1.503 . S
C539 C538 1.370 . S
C539 C540 1.403 . S
C540 C539 1.403 . S
C540 C541 1.404 . S
C540 C543 1.539 . S
C541 C537 1.408 . S
C541 C540 1.404 . S
C541 H553 0.930 . S
C542 C538 1.524 . S
C542 H554 0.956 . S
C542 H555 0.961 . S
C542 H556 0.961 . S
C543 C540 1.539 . S
C543 H557 0.958 . S
C543 H558 0.961 . S
C543 H559 0.960 . S
H544 C528 0.931 . S
H545 C533 0.929 . S
H546 C534 0.960 . S
H547 C534 0.962 . S
H548 C534 0.960 . S
H549 C535 0.961 . S
H550 C535 0.961 . S
H551 C535 0.961 . S
H552 C536 0.931 . S
H553 C541 0.930 . S
H554 C542 0.956 . S
H555 C542 0.961 . S
H556 C542 0.961 . S
H557 C543 0.958 . S
H558 C543 0.961 . S
H559 C543 0.960 . S
C560 C561 1.391 . S
C560 C562 1.394 . S
C560 H576 0.931 . S
C561 C560 1.391 . S
C561 C565 1.376 . S
C562 C560 1.394 . S
C562 C563 1.369 . S
C562 C566 1.531 . S
C563 C562 1.369 . S
C563 C564 1.410 . S
C563 C571 1.503 . S
C564 C563 1.410 . S
C564 C565 1.392 . S
C564 C567 1.511 . S
C565 C561 1.376 . S
C565 C564 1.392 . S
C565 H577 0.929 . S
C566 C562 1.531 . S
C566 H578 0.960 . S
C566 H579 0.962 . S
C566 H580 0.960 . S
C567 C564 1.511 . S
C567 H581 0.961 . S
C567 H582 0.961 . S
C567 H583 0.961 . S
C568 C569 1.370 . S
C568 C570 1.363 . S
C568 H584 0.931 . S
C569 C568 1.370 . S
C569 C573 1.408 . S
C570 C568 1.363 . S
C570 C571 1.370 . S
C570 C574 1.524 . S
C571 C563 1.503 . S
C571 C570 1.370 . S
C571 C572 1.403 . S
C572 C571 1.403 . S
C572 C573 1.404 . S
C572 C575 1.539 . S
C573 C569 1.408 . S
C573 C572 1.404 . S
C573 H585 0.930 . S
C574 C570 1.524 . S
C574 H586 0.956 . S
C574 H587 0.961 . S
C574 H588 0.961 . S
C575 C572 1.539 . S
C575 H589 0.958 . S
C575 H590 0.961 . S
C575 H591 0.960 . S
H576 C560 0.931 . S
H577 C565 0.929 . S
H578 C566 0.960 . S
H579 C566 0.962 . S
H580 C566 0.960 . S
H581 C567 0.961 . S
H582 C567 0.961 . S
H583 C567 0.961 . S
H584 C568 0.931 . S
H585 C573 0.930 . S
H586 C574 0.956 . S
H587 C574 0.961 . S
H588 C574 0.961 . S
H589 C575 0.958 . S
H590 C575 0.961 . S
H591 C575 0.960 . S
C592 C593 1.391 . S
C592 C594 1.394 . S
C592 H608 0.931 . S
C593 C592 1.391 . S
C593 C597 1.376 . S
C594 C592 1.394 . S
C594 C595 1.369 . S
C594 C598 1.531 . S
C595 C594 1.369 . S
C595 C596 1.410 . S
C595 C603 1.503 . S
C596 C595 1.410 . S
C596 C597 1.392 . S
C596 C599 1.511 . S
C597 C593 1.376 . S
C597 C596 1.392 . S
C597 H609 0.929 . S
C598 C594 1.531 . S
C598 H610 0.960 . S
C598 H611 0.962 . S
C598 H612 0.960 . S
C599 C596 1.511 . S
C599 H613 0.961 . S
C599 H614 0.961 . S
C599 H615 0.961 . S
C600 C601 1.370 . S
C600 C602 1.363 . S
C600 H616 0.931 . S
C601 C600 1.370 . S
C601 C605 1.408 . S
C602 C600 1.363 . S
C602 C603 1.370 . S
C602 C606 1.524 . S
C603 C595 1.503 . S
C603 C602 1.370 . S
C603 C604 1.403 . S
C604 C603 1.403 . S
C604 C605 1.404 . S
C604 C607 1.539 . S
C605 C601 1.408 . S
C605 C604 1.404 . S
C605 H617 0.930 . S
C606 C602 1.524 . S
C606 H618 0.956 . S
C606 H619 0.961 . S
C606 H620 0.961 . S
C607 C604 1.539 . S
C607 H621 0.958 . S
C607 H622 0.961 . S
C607 H623 0.960 . S
H608 C592 0.931 . S
H609 C597 0.929 . S
H610 C598 0.960 . S
H611 C598 0.962 . S
H612 C598 0.960 . S
H613 C599 0.961 . S
H614 C599 0.961 . S
H615 C599 0.961 . S
H616 C600 0.931 . S
H617 C605 0.930 . S
H618 C606 0.956 . S
H619 C606 0.961 . S
H620 C606 0.961 . S
H621 C607 0.958 . S
H622 C607 0.961 . S
H623 C607 0.960 . S
C624 C625 1.391 . S
C624 C626 1.394 . S
C624 H640 0.931 . S
C625 C624 1.391 . S
C625 C629 1.376 . S
C626 C624 1.394 . S
C626 C627 1.369 . S
C626 C630 1.531 . S
C627 C626 1.369 . S
C627 C628 1.410 . S
C627 C635 1.503 . S
C628 C627 1.410 . S
C628 C629 1.392 . S
C628 C631 1.511 . S
C629 C625 1.376 . S
C629 C628 1.392 . S
C629 H641 0.929 . S
C630 C626 1.531 . S
C630 H642 0.960 . S
C630 H643 0.962 . S
C630 H644 0.960 . S
C631 C628 1.511 . S
C631 H645 0.961 . S
C631 H646 0.961 . S
C631 H647 0.961 . S
C632 C633 1.370 . S
C632 C634 1.363 . S
C632 H648 0.931 . S
C633 C632 1.370 . S
C633 C637 1.408 . S
C634 C632 1.363 . S
C634 C635 1.370 . S
C634 C638 1.524 . S
C635 C627 1.503 . S
C635 C634 1.370 . S
C635 C636 1.403 . S
C636 C635 1.403 . S
C636 C637 1.404 . S
C636 C639 1.539 . S
C637 C633 1.408 . S
C637 C636 1.404 . S
C637 H649 0.930 . S
C638 C634 1.524 . S
C638 H650 0.956 . S
C638 H651 0.961 . S
C638 H652 0.961 . S
C639 C636 1.539 . S
C639 H653 0.958 . S
C639 H654 0.961 . S
C639 H655 0.960 . S
H640 C624 0.931 . S
H641 C629 0.929 . S
H642 C630 0.960 . S
H643 C630 0.962 . S
H644 C630 0.960 . S
H645 C631 0.961 . S
H646 C631 0.961 . S
H647 C631 0.961 . S
H648 C632 0.931 . S
H649 C637 0.930 . S
H650 C638 0.956 . S
H651 C638 0.961 . S
H652 C638 0.961 . S
H653 C639 0.958 . S
H654 C639 0.961 . S
H655 C639 0.960 . S
C656 C657 1.391 . S
C656 C658 1.394 . S
C656 H672 0.931 . S
C657 C656 1.391 . S
C657 C661 1.376 . S
C658 C656 1.394 . S
C658 C659 1.369 . S
C658 C662 1.531 . S
C659 C658 1.369 . S
C659 C660 1.410 . S
C659 C667 1.503 . S
C660 C659 1.410 . S
C660 C661 1.392 . S
C660 C663 1.511 . S
C661 C657 1.376 . S
C661 C660 1.392 . S
C661 H673 0.929 . S
C662 C658 1.531 . S
C662 H674 0.960 . S
C662 H675 0.962 . S
C662 H676 0.960 . S
C663 C660 1.511 . S
C663 H677 0.961 . S
C663 H678 0.961 . S
C663 H679 0.961 . S
C664 C665 1.370 . S
C664 C666 1.363 . S
C664 H680 0.931 . S
C665 C664 1.370 . S
C665 C669 1.408 . S
C666 C664 1.363 . S
C666 C667 1.370 . S
C666 C670 1.524 . S
C667 C659 1.503 . S
C667 C666 1.370 . S
C667 C668 1.403 . S
C668 C667 1.403 . S
C668 C669 1.404 . S
C668 C671 1.539 . S
C669 C665 1.408 . S
C669 C668 1.404 . S
C669 H681 0.930 . S
C670 C666 1.524 . S
C670 H682 0.956 . S
C670 H683 0.961 . S
C670 H684 0.961 . S
C671 C668 1.539 . S
C671 H685 0.958 . S
C671 H686 0.961 . S
C671 H687 0.960 . S
H672 C656 0.931 . S
H673 C661 0.929 . S
H674 C662 0.960 . S
H675 C662 0.962 . S
H676 C662 0.960 . S
H677 C663 0.961 . S
H678 C663 0.961 . S
H679 C663 0.961 . S
H680 C664 0.931 . S
H681 C669 0.930 . S
H682 C670 0.956 . S
H683 C670 0.961 . S
H684 C670 0.961 . S
H685 C671 0.958 . S
H686 C671 0.961 . S
H687 C671 0.960 . S
C688 C689 1.391 . S
C688 C690 1.394 . S
C688 H704 0.931 . S
C689 C688 1.391 . S
C689 C693 1.376 . S
C690 C688 1.394 . S
C690 C691 1.369 . S
C690 C694 1.531 . S
C691 C690 1.369 . S
C691 C692 1.410 . S
C691 C699 1.503 . S
C692 C691 1.410 . S
C692 C693 1.392 . S
C692 C695 1.511 . S
C693 C689 1.376 . S
C693 C692 1.392 . S
C693 H705 0.929 . S
C694 C690 1.531 . S
C694 H706 0.960 . S
C694 H707 0.962 . S
C694 H708 0.960 . S
C695 C692 1.511 . S
C695 H709 0.961 . S
C695 H710 0.961 . S
C695 H711 0.961 . S
C696 C697 1.370 . S
C696 C698 1.363 . S
C696 H712 0.931 . S
C697 C696 1.370 . S
C697 C701 1.408 . S
C698 C696 1.363 . S
C698 C699 1.370 . S
C698 C702 1.524 . S
C699 C691 1.503 . S
C699 C698 1.370 . S
C699 C700 1.403 . S
C700 C699 1.403 . S
C700 C701 1.404 . S
C700 C703 1.539 . S
C701 C697 1.408 . S
C701 C700 1.404 . S
C701 H713 0.930 . S
C702 C698 1.524 . S
C702 H714 0.956 . S
C702 H715 0.961 . S
C702 H716 0.961 . S
C703 C700 1.539 . S
C703 H717 0.958 . S
C703 H718 0.961 . S
C703 H719 0.960 . S
H704 C688 0.931 . S
H705 C693 0.929 . S
H706 C694 0.960 . S
H707 C694 0.962 . S
H708 C694 0.960 . S
H709 C695 0.961 . S
H710 C695 0.961 . S
H711 C695 0.961 . S
H712 C696 0.931 . S
H713 C701 0.930 . S
H714 C702 0.956 . S
H715 C702 0.961 . S
H716 C702 0.961 . S
H717 C703 0.958 . S
H718 C703 0.961 . S
H719 C703 0.960 . S
C720 C721 1.391 . S
C720 C722 1.394 . S
C720 H736 0.931 . S
C721 C720 1.391 . S
C721 C725 1.376 . S
C722 C720 1.394 . S
C722 C723 1.369 . S
C722 C726 1.531 . S
C723 C722 1.369 . S
C723 C724 1.410 . S
C723 C731 1.503 . S
C724 C723 1.410 . S
C724 C725 1.392 . S
C724 C727 1.511 . S
C725 C721 1.376 . S
C725 C724 1.392 . S
C725 H737 0.929 . S
C726 C722 1.531 . S
C726 H738 0.960 . S
C726 H739 0.962 . S
C726 H740 0.960 . S
C727 C724 1.511 . S
C727 H741 0.961 . S
C727 H742 0.961 . S
C727 H743 0.961 . S
C728 C729 1.370 . S
C728 C730 1.363 . S
C728 H744 0.931 . S
C729 C728 1.370 . S
C729 C733 1.408 . S
C730 C728 1.363 . S
C730 C731 1.370 . S
C730 C734 1.524 . S
C731 C723 1.503 . S
C731 C730 1.370 . S
C731 C732 1.403 . S
C732 C731 1.403 . S
C732 C733 1.404 . S
C732 C735 1.539 . S
C733 C729 1.408 . S
C733 C732 1.404 . S
C733 H745 0.930 . S
C734 C730 1.524 . S
C734 H746 0.956 . S
C734 H747 0.961 . S
C734 H748 0.961 . S
C735 C732 1.539 . S
C735 H749 0.958 . S
C735 H750 0.961 . S
C735 H751 0.960 . S
H736 C720 0.931 . S
H737 C725 0.929 . S
H738 C726 0.960 . S
H739 C726 0.962 . S
H740 C726 0.960 . S
H741 C727 0.961 . S
H742 C727 0.961 . S
H743 C727 0.961 . S
H744 C728 0.931 . S
H745 C733 0.930 . S
H746 C734 0.956 . S
H747 C734 0.961 . S
H748 C734 0.961 . S
H749 C735 0.958 . S
H750 C735 0.961 . S
H751 C735 0.960 . S
C752 C753 1.391 . S
C752 C754 1.394 . S
C752 H768 0.931 . S
C753 C752 1.391 . S
C753 C757 1.376 . S
C754 C752 1.394 . S
C754 C755 1.369 . S
C754 C758 1.531 . S
C755 C754 1.369 . S
C755 C756 1.410 . S
C755 C763 1.503 . S
C756 C755 1.410 . S
C756 C757 1.392 . S
C756 C759 1.511 . S
C757 C753 1.376 . S
C757 C756 1.392 . S
C757 H769 0.929 . S
C758 C754 1.531 . S
C758 H770 0.960 . S
C758 H771 0.962 . S
C758 H772 0.960 . S
C759 C756 1.511 . S
C759 H773 0.961 . S
C759 H774 0.961 . S
C759 H775 0.961 . S
C760 C761 1.370 . S
C760 C762 1.363 . S
C760 H776 0.931 . S
C761 C760 1.370 . S
C761 C765 1.408 . S
C762 C760 1.363 . S
C762 C763 1.370 . S
C762 C766 1.524 . S
C763 C755 1.503 . S
C763 C762 1.370 . S
C763 C764 1.403 . S
C764 C763 1.403 . S
C764 C765 1.404 . S
C764 C767 1.539 . S
C765 C761 1.408 . S
C765 C764 1.404 . S
C765 H777 0.930 . S
C766 C762 1.524 . S
C766 H778 0.956 . S
C766 H779 0.961 . S
C766 H780 0.961 . S
C767 C764 1.539 . S
C767 H781 0.958 . S
C767 H782 0.961 . S
C767 H783 0.960 . S
H768 C752 0.931 . S
H769 C757 0.929 . S
H770 C758 0.960 . S
H771 C758 0.962 . S
H772 C758 0.960 . S
H773 C759 0.961 . S
H774 C759 0.961 . S
H775 C759 0.961 . S
H776 C760 0.931 . S
H777 C765 0.930 . S
H778 C766 0.956 . S
H779 C766 0.961 . S
H780 C766 0.961 . S
H781 C767 0.958 . S
H782 C767 0.961 . S
H783 C767 0.960 . S
C784 C785 1.391 . S
C784 C786 1.394 . S
C784 H800 0.931 . S
C785 C784 1.391 . S
C785 C789 1.376 . S
C786 C784 1.394 . S
C786 C787 1.369 . S
C786 C790 1.531 . S
C787 C786 1.369 . S
C787 C788 1.410 . S
C787 C795 1.503 . S
C788 C787 1.410 . S
C788 C789 1.392 . S
C788 C791 1.511 . S
C789 C785 1.376 . S
C789 C788 1.392 . S
C789 H801 0.929 . S
C790 C786 1.531 . S
C790 H802 0.960 . S
C790 H803 0.962 . S
C790 H804 0.960 . S
C791 C788 1.511 . S
C791 H805 0.961 . S
C791 H806 0.961 . S
C791 H807 0.961 . S
C792 C793 1.370 . S
C792 C794 1.363 . S
C792 H808 0.931 . S
C793 C792 1.370 . S
C793 C797 1.408 . S
C794 C792 1.363 . S
C794 C795 1.370 . S
C794 C798 1.524 . S
C795 C787 1.503 . S
C795 C794 1.370 . S
C795 C796 1.403 . S
C796 C795 1.403 . S
C796 C797 1.404 . S
C796 C799 1.539 . S
C797 C793 1.408 . S
C797 C796 1.404 . S
C797 H809 0.930 . S
C798 C794 1.524 . S
C798 H810 0.956 . S
C798 H811 0.961 . S
C798 H812 0.961 . S
C799 C796 1.539 . S
C799 H813 0.958 . S
C799 H814 0.961 . S
C799 H815 0.960 . S
H800 C784 0.931 . S
H801 C789 0.929 . S
H802 C790 0.960 . S
H803 C790 0.962 . S
H804 C790 0.960 . S
H805 C791 0.961 . S
H806 C791 0.961 . S
H807 C791 0.961 . S
H808 C792 0.931 . S
H809 C797 0.930 . S
H810 C798 0.956 . S
H811 C798 0.961 . S
H812 C798 0.961 . S
H813 C799 0.958 . S
H814 C799 0.961 . S
H815 C799 0.960 . S
C816 C817 1.391 . S
C816 C818 1.394 . S
C816 H832 0.931 . S
C817 C816 1.391 . S
C817 C821 1.376 . S
C818 C816 1.394 . S
C818 C819 1.369 . S
C818 C822 1.531 . S
C819 C818 1.369 . S
C819 C820 1.410 . S
C819 C827 1.503 . S
C820 C819 1.410 . S
C820 C821 1.392 . S
C820 C823 1.511 . S
C821 C817 1.376 . S
C821 C820 1.392 . S
C821 H833 0.929 . S
C822 C818 1.531 . S
C822 H834 0.960 . S
C822 H835 0.962 . S
C822 H836 0.960 . S
C823 C820 1.511 . S
C823 H837 0.961 . S
C823 H838 0.961 . S
C823 H839 0.961 . S
C824 C825 1.370 . S
C824 C826 1.363 . S
C824 H840 0.931 . S
C825 C824 1.370 . S
C825 C829 1.408 . S
C826 C824 1.363 . S
C826 C827 1.370 . S
C826 C830 1.524 . S
C827 C819 1.503 . S
C827 C826 1.370 . S
C827 C828 1.403 . S
C828 C827 1.403 . S
C828 C829 1.404 . S
C828 C831 1.539 . S
C829 C825 1.408 . S
C829 C828 1.404 . S
C829 H841 0.930 . S
C830 C826 1.524 . S
C830 H842 0.956 . S
C830 H843 0.961 . S
C830 H844 0.961 . S
C831 C828 1.539 . S
C831 H845 0.958 . S
C831 H846 0.961 . S
C831 H847 0.960 . S
H832 C816 0.931 . S
H833 C821 0.929 . S
H834 C822 0.960 . S
H835 C822 0.962 . S
H836 C822 0.960 . S
H837 C823 0.961 . S
H838 C823 0.961 . S
H839 C823 0.961 . S
H840 C824 0.931 . S
H841 C829 0.930 . S
H842 C830 0.956 . S
H843 C830 0.961 . S
H844 C830 0.961 . S
H845 C831 0.958 . S
H846 C831 0.961 . S
H847 C831 0.960 . S
C848 C849 1.391 . S
C848 C850 1.394 . S
C848 H864 0.931 . S
C849 C848 1.391 . S
C849 C853 1.376 . S
C850 C848 1.394 . S
C850 C851 1.369 . S
C850 C854 1.531 . S
C851 C850 1.369 . S
C851 C852 1.410 . S
C851 C859 1.503 . S
C852 C851 1.410 . S
C852 C853 1.392 . S
C852 C855 1.511 . S
C853 C849 1.376 . S
C853 C852 1.392 . S
C853 H865 0.929 . S
C854 C850 1.531 . S
C854 H866 0.960 . S
C854 H867 0.962 . S
C854 H868 0.960 . S
C855 C852 1.511 . S
C855 H869 0.961 . S
C855 H870 0.961 . S
C855 H871 0.961 . S
C856 C857 1.370 . S
C856 C858 1.363 . S
C856 H872 0.931 . S
C857 C856 1.370 . S
C857 C861 1.408 . S
C858 C856 1.363 . S
C858 C859 1.370 . S
C858 C862 1.524 . S
C859 C851 1.503 . S
C859 C858 1.370 . S
C859 C860 1.403 . S
C860 C859 1.403 . S
C860 C861 1.404 . S
C860 C863 1.539 . S
C861 C857 1.408 . S
C861 C860 1.404 . S
C861 H873 0.930 . S
C862 C858 1.524 . S
C862 H874 0.956 . S
C862 H875 0.961 . S
C862 H876 0.961 . S
C863 C860 1.539 . S
C863 H877 0.958 . S
C863 H878 0.961 . S
C863 H879 0.960 . S
H864 C848 0.931 . S
H865 C853 0.929 . S
H866 C854 0.960 . S
H867 C854 0.962 . S
H868 C854 0.960 . S
H869 C855 0.961 . S
H870 C855 0.961 . S
H871 C855 0.961 . S
H872 C856 0.931 . S
H873 C861 0.930 . S
H874 C862 0.956 . S
H875 C862 0.961 . S
H876 C862 0.961 . S
H877 C863 0.958 . S
H878 C863 0.961 . S
H879 C863 0.960 . S
C880 C881 1.391 . S
C880 C882 1.394 . S
C880 H896 0.931 . S
C881 C880 1.391 . S
C881 C885 1.376 . S
C882 C880 1.394 . S
C882 C883 1.369 . S
C882 C886 1.531 . S
C883 C882 1.369 . S
C883 C884 1.410 . S
C883 C891 1.503 . S
C884 C883 1.410 . S
C884 C885 1.392 . S
C884 C887 1.511 . S
C885 C881 1.376 . S
C885 C884 1.392 . S
C885 H897 0.929 . S
C886 C882 1.531 . S
C886 H898 0.960 . S
C886 H899 0.962 . S
C886 H900 0.960 . S
C887 C884 1.511 . S
C887 H901 0.961 . S
C887 H902 0.961 . S
C887 H903 0.961 . S
C888 C889 1.370 . S
C888 C890 1.363 . S
C888 H904 0.931 . S
C889 C888 1.370 . S
C889 C893 1.408 . S
C890 C888 1.363 . S
C890 C891 1.370 . S
C890 C894 1.524 . S
C891 C883 1.503 . S
C891 C890 1.370 . S
C891 C892 1.403 . S
C892 C891 1.403 . S
C892 C893 1.404 . S
C892 C895 1.539 . S
C893 C889 1.408 . S
C893 C892 1.404 . S
C893 H905 0.930 . S
C894 C890 1.524 . S
C894 H906 0.956 . S
C894 H907 0.961 . S
C894 H908 0.961 . S
C895 C892 1.539 . S
C895 H909 0.958 . S
C895 H910 0.961 . S
C895 H911 0.960 . S
H896 C880 0.931 . S
H897 C885 0.929 . S
H898 C886 0.960 . S
H899 C886 0.962 . S
H900 C886 0.960 . S
H901 C887 0.961 . S
H902 C887 0.961 . S
H903 C887 0.961 . S
H904 C888 0.931 . S
H905 C893 0.930 . S
H906 C894 0.956 . S
H907 C894 0.961 . S
H908 C894 0.961 . S
H909 C895 0.958 . S
H910 C895 0.961 . S
H911 C895 0.960 . S
C912 C913 1.391 . S
C912 C914 1.394 . S
C912 H928 0.931 . S
C913 C912 1.391 . S
C913 C917 1.376 . S
C914 C912 1.394 . S
C914 C915 1.369 . S
C914 C918 1.531 . S
C915 C914 1.369 . S
C915 C916 1.410 . S
C915 C923 1.503 . S
C916 C915 1.410 . S
C916 C917 1.392 . S
C916 C919 1.511 . S
C917 C913 1.376 . S
C917 C916 1.392 . S
C917 H929 0.929 . S
C918 C914 1.531 . S
C918 H930 0.960 . S
C918 H931 0.962 . S
C918 H932 0.960 . S
C919 C916 1.511 . S
C919 H933 0.961 . S
C919 H934 0.961 . S
C919 H935 0.961 . S
C920 C921 1.370 . S
C920 C922 1.363 . S
C920 H936 0.931 . S
C921 C920 1.370 . S
C921 C925 1.408 . S
C922 C920 1.363 . S
C922 C923 1.370 . S
C922 C926 1.524 . S
C923 C915 1.503 . S
C923 C922 1.370 . S
C923 C924 1.403 . S
C924 C923 1.403 . S
C924 C925 1.404 . S
C924 C927 1.539 . S
C925 C921 1.408 . S
C925 C924 1.404 . S
C925 H937 0.930 . S
C926 C922 1.524 . S
C926 H938 0.956 . S
C926 H939 0.961 . S
C926 H940 0.961 . S
C927 C924 1.539 . S
C927 H941 0.958 . S
C927 H942 0.961 . S
C927 H943 0.960 . S
H928 C912 0.931 . S
H929 C917 0.929 . S
H930 C918 0.960 . S
H931 C918 0.962 . S
H932 C918 0.960 . S
H933 C919 0.961 . S
H934 C919 0.961 . S
H935 C919 0.961 . S
H936 C920 0.931 . S
H937 C925 0.930 . S
H938 C926 0.956 . S
H939 C926 0.961 . S
H940 C926 0.961 . S
H941 C927 0.958 . S
H942 C927 0.961 . S
H943 C927 0.960 . S
C944 C945 1.391 . S
C944 C946 1.394 . S
C944 H960 0.931 . S
C945 C944 1.391 . S
C945 C949 1.376 . S
C946 C944 1.394 . S
C946 C947 1.369 . S
C946 C950 1.531 . S
C947 C946 1.369 . S
C947 C948 1.410 . S
C947 C955 1.503 . S
C948 C947 1.410 . S
C948 C949 1.392 . S
C948 C951 1.511 . S
C949 C945 1.376 . S
C949 C948 1.392 . S
C949 H961 0.929 . S
C950 C946 1.531 . S
C950 H962 0.960 . S
C950 H963 0.962 . S
C950 H964 0.960 . S
C951 C948 1.511 . S
C951 H965 0.961 . S
C951 H966 0.961 . S
C951 H967 0.961 . S
C952 C953 1.370 . S
C952 C954 1.363 . S
C952 H968 0.931 . S
C953 C952 1.370 . S
C953 C957 1.408 . S
C954 C952 1.363 . S
C954 C955 1.370 . S
C954 C958 1.524 . S
C955 C947 1.503 . S
C955 C954 1.370 . S
C955 C956 1.403 . S
C956 C955 1.403 . S
C956 C957 1.404 . S
C956 C959 1.539 . S
C957 C953 1.408 . S
C957 C956 1.404 . S
C957 H969 0.930 . S
C958 C954 1.524 . S
C958 H970 0.956 . S
C958 H971 0.961 . S
C958 H972 0.961 . S
C959 C956 1.539 . S
C959 H973 0.958 . S
C959 H974 0.961 . S
C959 H975 0.960 . S
H960 C944 0.931 . S
H961 C949 0.929 . S
H962 C950 0.960 . S
H963 C950 0.962 . S
H964 C950 0.960 . S
H965 C951 0.961 . S
H966 C951 0.961 . S
H967 C951 0.961 . S
H968 C952 0.931 . S
H969 C957 0.930 . S
H970 C958 0.956 . S
H971 C958 0.961 . S
H972 C958 0.961 . S
H973 C959 0.958 . S
H974 C959 0.961 . S
H975 C959 0.960 . S
C976 C977 1.391 . S
C976 C978 1.394 . S
C976 H992 0.931 . S
C977 C976 1.391 . S
C977 C981 1.376 . S
C978 C976 1.394 . S
C978 C979 1.369 . S
C978 C982 1.531 . S
C979 C978 1.369 . S
C979 C980 1.410 . S
C979 C987 1.503 1_554 S
C980 C979 1.410 . S
C980 C981 1.392 . S
C980 C983 1.511 . S
C981 C977 1.376 . S
C981 C980 1.392 . S
C981 H993 0.929 . S
C982 C978 1.531 . S
C982 H994 0.960 1_554 S
C982 H995 0.962 1_554 S
C982 H996 0.960 . S
C983 C980 1.511 . S
C983 H997 0.961 . S
C983 H998 0.961 . S
C983 H999 0.961 . S
C984 C985 1.370 . S
C984 C986 1.363 . S
C984 H1000 0.931 . S
C985 C984 1.370 . S
C985 C989 1.408 . S
C986 C984 1.363 . S
C986 C987 1.370 . S
C986 C990 1.524 . S
C987 C979 1.503 1_556 S
C987 C986 1.370 . S
C987 C988 1.403 . S
C988 C987 1.403 . S
C988 C989 1.404 . S
C988 C991 1.539 . S
C989 C985 1.408 . S
C989 C988 1.404 . S
C989 H1001 0.930 . S
C990 C986 1.524 . S
C990 H1002 0.956 . S
C990 H1003 0.961 1_556 S
C990 H1004 0.961 . S
C991 C988 1.539 . S
C991 H1005 0.958 . S
C991 H1006 0.961 . S
C991 H1007 0.968 . S
H992 C976 0.931 . S
H993 C981 0.929 . S
H994 C982 0.960 1_556 S
H995 C982 0.962 1_556 S
H996 C982 0.960 . S
H997 C983 0.961 . S
H998 C983 0.961 . S
H999 C983 0.961 . S
H1000 C984 0.931 . S
H1001 C989 0.930 . S
H1002 C990 0.956 . S
H1003 C990 0.961 1_554 S
H1004 C990 0.961 . S
H1005 C991 0.958 . S
H1006 C991 0.961 . S
H1007 C991 0.968 . S
C1008 C1009 1.391 . S
C1008 C1010 1.394 . S
C1008 H1024 0.931 . S
C1009 C1008 1.391 . S
C1009 C1013 1.376 . S
C1010 C1008 1.394 . S
C1010 C1011 1.369 . S
C1010 C1014 1.531 . S
C1011 C1010 1.369 . S
C1011 C1012 1.410 . S
C1011 C1019 1.503 . S
C1012 C1011 1.410 . S
C1012 C1013 1.392 . S
C1012 C1015 1.511 . S
C1013 C1009 1.376 . S
C1013 C1012 1.392 . S
C1013 H1025 0.929 . S
C1014 C1010 1.531 . S
C1014 H1026 0.960 . S
C1014 H1027 0.962 . S
C1014 H1028 0.960 . S
C1015 C1012 1.511 . S
C1015 H1029 0.961 . S
C1015 H1030 0.961 . S
C1015 H1031 0.961 . S
C1016 C1017 1.370 . S
C1016 C1018 1.363 . S
C1016 H1032 0.931 . S
C1017 C1016 1.370 . S
C1017 C1021 1.408 . S
C1018 C1016 1.363 . S
C1018 C1019 1.370 . S
C1018 C1022 1.524 . S
C1019 C1011 1.503 . S
C1019 C1018 1.370 . S
C1019 C1020 1.403 . S
C1020 C1019 1.403 . S
C1020 C1021 1.404 . S
C1020 C1023 1.539 . S
C1021 C1017 1.408 . S
C1021 C1020 1.404 . S
C1021 H1033 0.930 . S
C1022 C1018 1.524 . S
C1022 H1034 0.956 . S
C1022 H1035 0.961 . S
C1022 H1036 0.961 . S
C1023 C1020 1.539 . S
C1023 H1037 0.958 . S
C1023 H1038 0.961 . S
C1023 H1039 0.960 . S
H1024 C1008 0.931 . S
H1025 C1013 0.929 . S
H1026 C1014 0.960 . S
H1027 C1014 0.962 . S
H1028 C1014 0.960 . S
H1029 C1015 0.961 . S
H1030 C1015 0.961 . S
H1031 C1015 0.961 . S
H1032 C1016 0.931 . S
H1033 C1021 0.930 . S
H1034 C1022 0.956 . S
H1035 C1022 0.961 . S
H1036 C1022 0.961 . S
H1037 C1023 0.958 . S
H1038 C1023 0.961 . S
H1039 C1023 0.960 . S
C1040 C1041 1.391 1_455 S
C1040 C1042 1.394 . S
C1040 H1056 0.931 . S
C1041 C1040 1.391 1_655 S
C1041 C1045 1.376 . S
C1042 C1040 1.394 . S
C1042 C1043 1.369 1_455 S
C1042 C1046 1.531 . S
C1043 C1042 1.369 1_655 S
C1043 C1044 1.410 . S
C1043 C1051 1.503 1_554 S
C1044 C1043 1.410 . S
C1044 C1045 1.392 . S
C1044 C1047 1.511 . S
C1045 C1041 1.376 . S
C1045 C1044 1.392 . S
C1045 H1057 0.929 . S
C1046 C1042 1.531 . S
C1046 H1058 0.960 . S
C1046 H1059 0.962 . S
C1046 H1060 0.960 . S
C1047 C1044 1.511 . S
C1047 H1061 0.961 . S
C1047 H1062 0.961 1_554 S
C1047 H1063 0.961 . S
C1048 C1049 1.370 1_455 S
C1048 C1050 1.363 . S
C1048 H1064 0.931 . S
C1049 C1048 1.370 1_655 S
C1049 C1053 1.408 . S
C1050 C1048 1.363 . S
C1050 C1051 1.370 1_455 S
C1050 C1054 1.524 . S
C1051 C1043 1.503 1_556 S
C1051 C1050 1.370 1_655 S
C1051 C1052 1.403 . S
C1052 C1051 1.403 . S
C1052 C1053 1.404 . S
C1052 C1055 1.539 . S
C1053 C1049 1.408 . S
C1053 C1052 1.404 . S
C1053 H1065 0.930 . S
C1054 C1050 1.524 . S
C1054 H1066 0.956 . S
C1054 H1067 0.961 . S
C1054 H1068 0.961 . S
C1055 C1052 1.539 . S
C1055 H1069 0.958 . S
C1055 H1070 0.961 . S
C1055 H1071 0.960 1_556 S
H1056 C1040 0.931 . S
H1057 C1045 0.929 . S
H1058 C1046 0.960 . S
H1059 C1046 0.962 . S
H1060 C1046 0.960 . S
H1061 C1047 0.961 . S
H1062 C1047 0.961 1_556 S
H1063 C1047 0.961 . S
H1064 C1048 0.931 . S
H1065 C1053 0.930 . S
H1066 C1054 0.956 . S
H1067 C1054 0.961 . S
H1068 C1054 0.961 . S
H1069 C1055 0.958 . S
H1070 C1055 0.961 . S
H1071 C1055 0.960 1_554 S
C1072 C1073 1.391 1_545 S
C1072 C1074 1.394 . S
C1072 H1088 0.931 . S
C1073 C1072 1.391 1_565 S
C1073 C1077 1.376 . S
C1074 C1072 1.394 . S
C1074 C1075 1.369 1_545 S
C1074 C1078 1.531 . S
C1075 C1074 1.369 1_565 S
C1075 C1076 1.410 . S
C1075 C1083 1.503 . S
C1076 C1075 1.410 . S
C1076 C1077 1.392 . S
C1076 C1079 1.511 . S
C1077 C1073 1.376 . S
C1077 C1076 1.392 . S
C1077 H1089 0.929 . S
C1078 C1074 1.531 . S
C1078 H1090 0.960 . S
C1078 H1091 0.962 . S
C1078 H1092 0.960 . S
C1079 C1076 1.511 . S
C1079 H1093 0.961 . S
C1079 H1094 0.961 . S
C1079 H1095 0.961 . S
C1080 C1081 1.370 1_545 S
C1080 C1082 1.363 . S
C1080 H1096 0.931 . S
C1081 C1080 1.370 1_565 S
C1081 C1085 1.408 . S
C1082 C1080 1.363 . S
C1082 C1083 1.370 1_545 S
C1082 C1086 1.524 . S
C1083 C1075 1.503 . S
C1083 C1082 1.370 1_565 S
C1083 C1084 1.403 . S
C1084 C1083 1.403 . S
C1084 C1085 1.404 . S
C1084 C1087 1.539 . S
C1085 C1081 1.408 . S
C1085 C1084 1.404 . S
C1085 H1097 0.930 . S
C1086 C1082 1.524 . S
C1086 H1098 0.956 . S
C1086 H1099 0.961 . S
C1086 H1100 0.961 . S
C1087 C1084 1.539 . S
C1087 H1101 0.958 . S
C1087 H1102 0.961 . S
C1087 H1103 0.960 . S
H1088 C1072 0.931 . S
H1089 C1077 0.929 . S
H1090 C1078 0.960 . S
H1091 C1078 0.962 . S
H1092 C1078 0.960 . S
H1093 C1079 0.961 . S
H1094 C1079 0.961 . S
H1095 C1079 0.961 . S
H1096 C1080 0.931 . S
H1097 C1085 0.930 . S
H1098 C1086 0.956 . S
H1099 C1086 0.961 . S
H1100 C1086 0.961 . S
H1101 C1087 0.958 . S
H1102 C1087 0.961 . S
H1103 C1087 0.960 . S
C1104 C1105 1.391 . S
C1104 C1106 1.394 . S
C1104 H1120 0.931 . S
C1105 C1104 1.391 . S
C1105 C1109 1.376 . S
C1106 C1104 1.394 . S
C1106 C1107 1.369 . S
C1106 C1110 1.531 . S
C1107 C1106 1.369 . S
C1107 C1108 1.410 . S
C1107 C1115 1.503 1_556 S
C1108 C1107 1.410 . S
C1108 C1109 1.392 . S
C1108 C1111 1.511 . S
C1109 C1105 1.376 . S
C1109 C1108 1.392 . S
C1109 H1121 0.929 . S
C1110 C1106 1.531 . S
C1110 H1122 0.960 1_556 S
C1110 H1123 0.962 . S
C1110 H1124 0.960 . S
C1111 C1108 1.511 . S
C1111 H1125 0.961 . S
C1111 H1126 0.961 . S
C1111 H1127 0.961 . S
C1112 C1113 1.370 . S
C1112 C1114 1.363 . S
C1112 H1128 0.931 . S
C1113 C1112 1.370 . S
C1113 C1117 1.408 . S
C1114 C1112 1.363 . S
C1114 C1115 1.370 . S
C1114 C1118 1.524 . S
C1115 C1107 1.503 1_554 S
C1115 C1114 1.370 . S
C1115 C1116 1.403 . S
C1116 C1115 1.403 . S
C1116 C1117 1.404 . S
C1116 C1119 1.539 . S
C1117 C1113 1.408 . S
C1117 C1116 1.404 . S
C1117 H1129 0.930 . S
C1118 C1114 1.524 . S
C1118 H1130 0.956 1_554 S
C1118 H1131 0.961 1_554 S
C1118 H1132 0.961 . S
C1119 C1116 1.539 . S
C1119 H1133 0.958 . S
C1119 H1134 0.961 . S
C1119 H1135 0.960 . S
H1120 C1104 0.931 . S
H1121 C1109 0.929 . S
H1122 C1110 0.960 1_554 S
H1123 C1110 0.962 . S
H1124 C1110 0.960 . S
H1125 C1111 0.961 . S
H1126 C1111 0.961 . S
H1127 C1111 0.961 . S
H1128 C1112 0.931 . S
H1129 C1117 0.930 . S
H1130 C1118 0.956 1_556 S
H1131 C1118 0.961 1_556 S
H1132 C1118 0.961 . S
H1133 C1119 0.958 . S
H1134 C1119 0.961 . S
H1135 C1119 0.960 . S
C1136 C1137 1.391 . S
C1136 C1138 1.394 . S
C1136 H1152 0.931 . S
C1137 C1136 1.391 . S
C1137 C1141 1.376 . S
C1138 C1136 1.394 . S
C1138 C1139 1.369 . S
C1138 C1142 1.531 . S
C1139 C1138 1.369 . S
C1139 C1140 1.410 . S
C1139 C1147 1.503 . S
C1140 C1139 1.410 . S
C1140 C1141 1.392 . S
C1140 C1143 1.511 . S
C1141 C1137 1.376 . S
C1141 C1140 1.392 . S
C1141 H1153 0.929 . S
C1142 C1138 1.531 . S
C1142 H1154 0.960 . S
C1142 H1155 0.962 . S
C1142 H1156 0.960 . S
C1143 C1140 1.511 . S
C1143 H1157 0.961 . S
C1143 H1158 0.961 . S
C1143 H1159 0.961 . S
C1144 C1145 1.370 . S
C1144 C1146 1.363 . S
C1144 H1160 0.931 . S
C1145 C1144 1.370 . S
C1145 C1149 1.408 . S
C1146 C1144 1.363 . S
C1146 C1147 1.370 . S
C1146 C1150 1.524 . S
C1147 C1139 1.503 . S
C1147 C1146 1.370 . S
C1147 C1148 1.403 . S
C1148 C1147 1.403 . S
C1148 C1149 1.404 . S
C1148 C1151 1.539 . S
C1149 C1145 1.408 . S
C1149 C1148 1.404 . S
C1149 H1161 0.930 . S
C1150 C1146 1.524 . S
C1150 H1162 0.956 . S
C1150 H1163 0.961 . S
C1150 H1164 0.961 . S
C1151 C1148 1.539 . S
C1151 H1165 0.958 . S
C1151 H1166 0.961 . S
C1151 H1167 0.960 . S
H1152 C1136 0.931 . S
H1153 C1141 0.929 . S
H1154 C1142 0.960 . S
H1155 C1142 0.962 . S
H1156 C1142 0.960 . S
H1157 C1143 0.961 . S
H1158 C1143 0.961 . S
H1159 C1143 0.961 . S
H1160 C1144 0.931 . S
H1161 C1149 0.930 . S
H1162 C1150 0.956 . S
H1163 C1150 0.961 . S
H1164 C1150 0.961 . S
H1165 C1151 0.958 . S
H1166 C1151 0.961 . S
H1167 C1151 0.960 . S
C1168 C1169 1.391 . S
C1168 C1170 1.394 . S
C1168 H1184 0.931 . S
C1169 C1168 1.391 . S
C1169 C1173 1.376 1_455 S
C1170 C1168 1.394 . S
C1170 C1171 1.369 . S
C1170 C1174 1.531 . S
C1171 C1170 1.369 . S
C1171 C1172 1.410 1_455 S
C1171 C1179 1.503 1_554 S
C1172 C1171 1.410 1_655 S
C1172 C1173 1.392 . S
C1172 C1175 1.511 . S
C1173 C1169 1.376 1_655 S
C1173 C1172 1.392 . S
C1173 H1185 0.929 . S
C1174 C1170 1.531 . S
C1174 H1186 0.969 . S
C1174 H1187 0.962 . S
C1174 H1188 0.960 . S
C1175 C1172 1.511 . S
C1175 H1189 0.961 . S
C1175 H1190 0.961 1_554 S
C1175 H1191 0.961 . S
C1176 C1177 1.370 . S
C1176 C1178 1.363 . S
C1176 H1192 0.931 . S
C1177 C1176 1.370 . S
C1177 C1181 1.408 . S
C1178 C1176 1.363 . S
C1178 C1179 1.370 . S
C1178 C1182 1.524 . S
C1179 C1171 1.503 1_556 S
C1179 C1178 1.370 . S
C1179 C1180 1.403 . S
C1180 C1179 1.403 . S
C1180 C1181 1.404 . S
C1180 C1183 1.539 . S
C1181 C1177 1.408 . S
C1181 C1180 1.404 . S
C1181 H1193 0.930 . S
C1182 C1178 1.524 . S
C1182 H1194 0.956 . S
C1182 H1195 0.961 1_455 S
C1182 H1196 0.961 1_455 S
C1183 C1180 1.539 . S
C1183 H1197 0.958 . S
C1183 H1198 0.961 . S
C1183 H1199 0.960 1_556 S
H1184 C1168 0.931 . S
H1185 C1173 0.929 . S
H1186 C1174 0.969 . S
H1187 C1174 0.962 . S
H1188 C1174 0.960 . S
H1189 C1175 0.961 . S
H1190 C1175 0.961 1_556 S
H1191 C1175 0.961 . S
H1192 C1176 0.931 . S
H1193 C1181 0.930 . S
H1194 C1182 0.956 . S
H1195 C1182 0.961 1_655 S
H1196 C1182 0.961 1_655 S
H1197 C1183 0.958 . S
H1198 C1183 0.961 . S
H1199 C1183 0.960 1_554 S
C1200 C1201 1.391 . S
C1200 C1202 1.394 . S
C1200 H1216 0.931 . S
C1201 C1200 1.391 . S
C1201 C1205 1.376 1_545 S
C1202 C1200 1.394 . S
C1202 C1203 1.369 . S
C1202 C1206 1.531 . S
C1203 C1202 1.369 . S
C1203 C1204 1.410 1_545 S
C1203 C1211 1.503 . S
C1204 C1203 1.410 1_565 S
C1204 C1205 1.392 . S
C1204 C1207 1.511 . S
C1205 C1201 1.376 1_565 S
C1205 C1204 1.392 . S
C1205 H1217 0.929 . S
C1206 C1202 1.531 . S
C1206 H1218 0.960 . S
C1206 H1219 0.962 . S
C1206 H1220 0.960 . S
C1207 C1204 1.511 . S
C1207 H1221 0.961 . S
C1207 H1222 0.961 . S
C1207 H1223 0.961 1_565 S
C1208 C1209 1.370 1_565 S
C1208 C1210 1.363 . S
C1208 H1224 0.931 . S
C1209 C1208 1.370 1_545 S
C1209 C1213 1.408 . S
C1210 C1208 1.363 . S
C1210 C1211 1.370 1_565 S
C1210 C1214 1.524 . S
C1211 C1203 1.503 . S
C1211 C1210 1.370 1_545 S
C1211 C1212 1.403 . S
C1212 C1211 1.403 . S
C1212 C1213 1.404 . S
C1212 C1215 1.539 . S
C1213 C1209 1.408 . S
C1213 C1212 1.404 . S
C1213 H1225 0.930 . S
C1214 C1210 1.524 . S
C1214 H1226 0.956 . S
C1214 H1227 0.961 . S
C1214 H1228 0.961 . S
C1215 C1212 1.539 . S
C1215 H1229 0.958 . S
C1215 H1230 0.961 . S
C1215 H1231 0.960 . S
H1216 C1200 0.931 . S
H1217 C1205 0.929 . S
H1218 C1206 0.960 . S
H1219 C1206 0.962 . S
H1220 C1206 0.960 . S
H1221 C1207 0.961 . S
H1222 C1207 0.961 . S
H1223 C1207 0.961 1_545 S
H1224 C1208 0.931 . S
H1225 C1213 0.930 . S
H1226 C1214 0.956 . S
H1227 C1214 0.961 . S
H1228 C1214 0.961 . S
H1229 C1215 0.958 . S
H1230 C1215 0.961 . S
H1231 C1215 0.960 . S
C209 C4 1.251 . S
C217 C95 1.251 . S
C241 C23 1.241 . S
C249 C56 1.253 . S
C273 C36 1.258 . S
C281 C75 1.259 . S
C305 C49 1.262 . S
C313 C82 1.257 . S
C337 C114 1.257 . S
C345 C205 1.258 . S
C369 C160 1.247 . S
C377 C121 1.255 . S
C401 C134 1.249 . S
C409 C179 1.251 . S
C433 C153 1.259 . S
C441 C186 1.255 . S
C465 C5 1.590 . S
C473 C127 1.603 . S
C497 C16 1.585 . S
C505 C140 1.609 . S
C529 C147 1.598 . S
C537 C29 1.592 . S
C561 C42 1.578 . S
C569 C108 1.605 . S
C593 C57 1.596 . S
C601 C199 1.611 . S
C625 C166 1.596 . S
C633 C68 1.601 . S
C657 C173 1.597 . S
C665 C83 1.601 . S
C689 C192 1.593 . S
C697 C96 1.597 . S
C721 C17 1.593 . S
C729 C107 1.593 . S
C753 C30 1.606 . S
C761 C122 1.604 . S
C785 C135 1.581 . S
C793 C43 1.603 . S
C817 C10 1.613 . S
C825 C146 1.603 . S
C849 C161 1.592 . S
C857 C101 1.609 . S
C881 C172 1.583 . S
C889 C62 1.607 . S
C913 C69 1.592 . S
C921 C187 1.593 . S
C945 C88 1.593 . S
C953 C198 1.596 . S
C977 C3 1.635 . S
C985 C55 1.634 . S
C1009 C70 1.637 . S
C1017 C18 1.631 . S
C1041 C31 1.623 . S
C1049 C81 1.624 . S
C1073 C94 1.625 . S
C1081 C44 1.625 . S
C1105 C109 1.613 . S
C1113 C159 1.627 . S
C1137 C174 1.618 . S
C1145 C120 1.624 . S
C1169 C185 1.630 . S
C1177 C133 1.627 . S
C1201 C200 1.619 . S
C1209 C148 1.624 . S
