# Generated by pormake.
# Topology wfa, (4)-cn, num edge types: 1
# Building blocks:
#     Node 0, Type 0, BuildingBlock: QUQFOY_clean_sbu_1, # of connection points: 4
#     Node 1, Type 0, BuildingBlock: QUQFOY_clean_sbu_1, # of connection points: 4
#     Node 2, Type 0, BuildingBlock: QUQFOY_clean_sbu_1, # of connection points: 4
#     Node 3, Type 0, BuildingBlock: QUQFOY_clean_sbu_1, # of connection points: 4
#     Node 4, Type 0, BuildingBlock: QUQFOY_clean_sbu_1, # of connection points: 4
#     Node 5, Type 0, BuildingBlock: QUQFOY_clean_sbu_1, # of connection points: 4
#     Node 6, Type 0, BuildingBlock: QUQFOY_clean_sbu_1, # of connection points: 4
#     Node 7, Type 0, BuildingBlock: QUQFOY_clean_sbu_1, # of connection points: 4
#     Node 8, Type 0, BuildingBlock: QUQFOY_clean_sbu_1, # of connection points: 4
#     Node 9, Type 0, BuildingBlock: QUQFOY_clean_sbu_1, # of connection points: 4
#     Node 10, Type 0, BuildingBlock: QUQFOY_clean_sbu_1, # of connection points: 4
#     Node 11, Type 0, BuildingBlock: QUQFOY_clean_sbu_1, # of connection points: 4
#     Node 12, Type 0, BuildingBlock: QUQFOY_clean_sbu_1, # of connection points: 4
#     Node 13, Type 0, BuildingBlock: QUQFOY_clean_sbu_1, # of connection points: 4
#     Node 14, Type 0, BuildingBlock: QUQFOY_clean_sbu_1, # of connection points: 4
#     Node 15, Type 0, BuildingBlock: QUQFOY_clean_sbu_1, # of connection points: 4
#     Edge 16, Type (0, 0), BuildingBlock: AJUNOK_clean_linker_0, # of connection points: 2
#     Edge 17, Type (0, 0), BuildingBlock: AJUNOK_clean_linker_0, # of connection points: 2
#     Edge 18, Type (0, 0), BuildingBlock: AJUNOK_clean_linker_0, # of connection points: 2
#     Edge 19, Type (0, 0), BuildingBlock: AJUNOK_clean_linker_0, # of connection points: 2
#     Edge 20, Type (0, 0), BuildingBlock: AJUNOK_clean_linker_0, # of connection points: 2
#     Edge 21, Type (0, 0), BuildingBlock: AJUNOK_clean_linker_0, # of connection points: 2
#     Edge 22, Type (0, 0), BuildingBlock: AJUNOK_clean_linker_0, # of connection points: 2
#     Edge 23, Type (0, 0), BuildingBlock: AJUNOK_clean_linker_0, # of connection points: 2
#     Edge 24, Type (0, 0), BuildingBlock: AJUNOK_clean_linker_0, # of connection points: 2
#     Edge 25, Type (0, 0), BuildingBlock: AJUNOK_clean_linker_0, # of connection points: 2
#     Edge 26, Type (0, 0), BuildingBlock: AJUNOK_clean_linker_0, # of connection points: 2
#     Edge 27, Type (0, 0), BuildingBlock: AJUNOK_clean_linker_0, # of connection points: 2
#     Edge 28, Type (0, 0), BuildingBlock: AJUNOK_clean_linker_0, # of connection points: 2
#     Edge 29, Type (0, 0), BuildingBlock: AJUNOK_clean_linker_0, # of connection points: 2
#     Edge 30, Type (0, 0), BuildingBlock: AJUNOK_clean_linker_0, # of connection points: 2
#     Edge 31, Type (0, 0), BuildingBlock: AJUNOK_clean_linker_0, # of connection points: 2
#     Edge 32, Type (0, 0), BuildingBlock: AJUNOK_clean_linker_0, # of connection points: 2
#     Edge 33, Type (0, 0), BuildingBlock: AJUNOK_clean_linker_0, # of connection points: 2
#     Edge 34, Type (0, 0), BuildingBlock: AJUNOK_clean_linker_0, # of connection points: 2
#     Edge 35, Type (0, 0), BuildingBlock: AJUNOK_clean_linker_0, # of connection points: 2
#     Edge 36, Type (0, 0), BuildingBlock: AJUNOK_clean_linker_0, # of connection points: 2
#     Edge 37, Type (0, 0), BuildingBlock: AJUNOK_clean_linker_0, # of connection points: 2
#     Edge 38, Type (0, 0), BuildingBlock: AJUNOK_clean_linker_0, # of connection points: 2
#     Edge 39, Type (0, 0), BuildingBlock: AJUNOK_clean_linker_0, # of connection points: 2
#     Edge 40, Type (0, 0), BuildingBlock: AJUNOK_clean_linker_0, # of connection points: 2
#     Edge 41, Type (0, 0), BuildingBlock: AJUNOK_clean_linker_0, # of connection points: 2
#     Edge 42, Type (0, 0), BuildingBlock: AJUNOK_clean_linker_0, # of connection points: 2
#     Edge 43, Type (0, 0), BuildingBlock: AJUNOK_clean_linker_0, # of connection points: 2
#     Edge 44, Type (0, 0), BuildingBlock: AJUNOK_clean_linker_0, # of connection points: 2
#     Edge 45, Type (0, 0), BuildingBlock: AJUNOK_clean_linker_0, # of connection points: 2
#     Edge 46, Type (0, 0), BuildingBlock: AJUNOK_clean_linker_0, # of connection points: 2
#     Edge 47, Type (0, 0), BuildingBlock: AJUNOK_clean_linker_0, # of connection points: 2
# Relax obj value: 0.073
# Max RMSD: 0.139
# Mean RMSD: 0.139
data_MOF--net-wfa--node1-QUQFOY_clean_sbu_1--edge1-AJUNOK_clean_linker_0
_symmetry_space_group_name_H-M    P1
_symmetry_Int_Tables_number       1
_symmetry_cell_setting            triclinic
loop_
_symmetry_equiv_pos_as_xyz
'x, y, z'
_cell_length_a     36.816796
_cell_length_b     37.073629
_cell_length_c     18.122779
_cell_angle_alpha  89.771701
_cell_angle_beta   90.021321
_cell_angle_gamma 89.888498
loop_
_atom_site_label
_atom_site_type_symbol
_atom_site_fract_x
_atom_site_fract_y
_atom_site_fract_z
_atom_type_partial_charge
O0 O 0.7323 0.03461 0.14064 0.0
Cd1 Cd 0.73787 0.07505 0.06537 0.0
Cd2 Cd 0.66308 0.08322 0.09649 0.0
O3 O 0.68438 0.05931 0.19189 0.0
O4 O 0.78868 0.06873 0.0276 0.0
O5 O 0.74001 0.06385 0.95714 0.0
C6 C 0.77491 0.06171 0.96391 0.0
C7 C 0.60557 0.06897 0.04498 0.0
C8 C 0.71332 0.04055 0.19771 0.0
C9 C 0.70831 0.1459 0.11992 0.0
O10 O 0.67853 0.13647 0.0902 0.0
O11 O 0.73559 0.12487 0.11679 0.0
O12 O 0.60856 0.08517 0.10747 0.0
O13 O 0.63539 0.05948 0.01274 0.0
O14 O 0.52929 0.73789 0.18738 0.0
Cd15 Cd 0.49881 0.72713 0.09687 0.0
Cd16 Cd 0.51734 0.65591 0.14669 0.0
O17 O 0.54668 0.68399 0.22652 0.0
O18 O 0.49559 0.77627 0.05135 0.0
O19 O 0.52223 0.73036 0.99643 0.0
C20 C 0.51434 0.76434 0.99668 0.0
C21 C 0.53601 0.59973 0.09689 0.0
C22 C 0.54605 0.71821 0.23354 0.0
C23 C 0.43839 0.68288 0.15541 0.0
O24 O 0.46249 0.65882 0.16573 0.0
O25 O 0.44612 0.71281 0.12473 0.0
O26 O 0.52683 0.60311 0.16504 0.0
O27 O 0.53676 0.6288 0.05741 0.0
O28 O 0.82777 0.54035 0.16699 0.0
Cd29 Cd 0.82324 0.50029 0.09138 0.0
Cd30 Cd 0.89801 0.49581 0.11478 0.0
O31 O 0.87723 0.51627 0.21321 0.0
O32 O 0.77227 0.50407 0.05394 0.0
O33 O 0.8207 0.5122 0.98367 0.0
C34 C 0.78572 0.51221 0.99037 0.0
C35 C 0.95432 0.51421 0.06405 0.0
C36 C 0.8479 0.53397 0.22233 0.0
C37 C 0.85745 0.43006 0.13623 0.0
O38 O 0.88565 0.44198 0.10397 0.0
O39 O 0.82929 0.44986 0.13994 0.0
O40 O 0.95248 0.4959 0.1245 0.0
O41 O 0.92394 0.5234 0.03352 0.0
O42 O 0.06377 0.81756 0.17746 0.0
Cd43 Cd 0.08979 0.80916 0.07839 0.0
Cd44 Cd 0.07995 0.90331 0.12893 0.0
O45 O 0.05871 0.87446 0.21888 0.0
O46 O 0.08104 0.75961 0.04083 0.0
O47 O 0.06026 0.80938 0.9866 0.0
C48 C 0.0623 0.77451 0.98849 0.0
C49 C 0.06061 0.95947 0.08319 0.0
C50 C 0.05388 0.84033 0.22622 0.0
C51 C 0.14175 0.85828 0.08877 0.0
O52 O 0.11275 0.87258 0.06465 0.0
O53 O 0.14388 0.82444 0.08202 0.0
O54 O 0.0877 0.9572 0.12863 0.0
O55 O 0.04373 0.92995 0.06711 0.0
O56 O 0.24134 0.0397 0.30409 0.0
Cd57 Cd 0.2263 1.00923 0.39172 0.0
Cd58 Cd 0.1585 1.02831 0.33608 0.0
O59 O 0.18858 0.05811 0.25969 0.0
O60 O 0.27401 1.00511 0.44395 0.0
O61 O 0.22627 0.03184 0.49283 0.0
C62 C 0.26035 1.02375 0.49696 0.0
C63 C 0.10297 0.04605 0.3907 0.0
C64 C 0.22316 0.05664 0.25578 0.0
C65 C 0.18391 0.95065 0.32119 0.0
O66 O 0.16012 0.97481 0.30956 0.0
O67 O 0.2125 0.95751 0.35808 0.0
O68 O 0.1057 0.04001 0.32097 0.0
O69 O 0.13252 0.04451 0.42911 0.0
O70 O 0.53881 0.23647 0.35973 0.0
Cd71 Cd 0.57817 0.23254 0.43758 0.0
Cd72 Cd 0.57495 0.15988 0.40004 0.0
O73 O 0.54666 0.18265 0.31125 0.0
O74 O 0.57764 0.28279 0.47794 0.0
O75 O 0.56429 0.23492 0.54503 0.0
C76 C 0.56667 0.2696 0.53976 0.0
C77 C 0.55816 0.10461 0.45697 0.0
C78 C 0.53443 0.21479 0.30663 0.0
C79 C 0.64496 0.19741 0.37347 0.0
O80 O 0.62984 0.16734 0.38722 0.0
O81 O 0.62896 0.22685 0.38916 0.0
O82 O 0.57004 0.106 0.3902 0.0
O83 O 0.55421 0.13494 0.49091 0.0
O84 O 0.32597 0.50156 0.33951 0.0
Cd85 Cd 0.32429 0.54304 0.41236 0.0
Cd86 Cd 0.39942 0.54307 0.38211 0.0
O87 O 0.37636 0.52045 0.28774 0.0
O88 O 0.27317 0.54199 0.4498 0.0
O89 O 0.3211 0.53214 0.52059 0.0
C90 C 0.28618 0.53359 0.51358 0.0
C91 C 0.45711 0.52512 0.42742 0.0
C92 C 0.34613 0.50394 0.28307 0.0
C93 C 0.36046 0.61124 0.36286 0.0
O94 O 0.38929 0.59751 0.38943 0.0
O95 O 0.33126 0.59303 0.36227 0.0
O96 O 0.45346 0.54181 0.36543 0.0
O97 O 0.4277 0.51707 0.46263 0.0
O98 O 1.02587 0.31502 0.33523 0.0
Cd99 Cd 0.99468 0.32571 0.4241 0.0
Cd100 Cd 1.01002 0.39571 0.37834 0.0
O101 O 0.03978 0.36977 0.2963 0.0
O102 O 0.99384 0.27734 0.47288 0.0
O103 O 1.01847 0.32539 0.52399 0.0
C104 C 1.01246 0.29106 0.52594 0.0
C105 C 1.02895 0.44963 0.43583 0.0
C106 C 0.04106 0.33562 0.28878 0.0
C107 C 0.93264 0.36759 0.3639 0.0
O108 O 0.95538 0.39312 0.35749 0.0
O109 O 0.94178 0.3376 0.39291 0.0
O110 O 1.01985 0.44875 0.36724 0.0
O111 O 1.02905 0.41937 0.47141 0.0
O112 O 0.32831 0.03504 0.80617 0.0
Cd113 Cd 0.34193 1.00863 0.89999 0.0
Cd114 Cd 0.41076 1.02213 0.84557 0.0
O115 O 0.38227 0.04687 0.75888 0.0
O116 O 0.29431 1.00959 0.95235 0.0
O117 O 0.34346 0.03591 0.99606 0.0
C118 C 0.30905 1.02973 0.00167 0.0
C119 C 0.46485 0.04329 0.90144 0.0
C120 C 0.34767 0.04744 0.75429 0.0
C121 C 0.38338 0.94477 0.84922 0.0
O122 O 0.40861 0.9672 0.83608 0.0
O123 O 0.35368 0.95488 0.8785 0.0
O124 O 0.46422 0.03238 0.83399 0.0
O125 O 0.43416 0.04443 0.93597 0.0
O126 O 0.53124 0.33553 0.85701 0.0
Cd127 Cd 0.56899 0.33045 0.93831 0.0
Cd128 Cd 0.57988 0.40287 0.90801 0.0
O129 O 0.55841 0.38289 0.80979 0.0
O130 O 0.56059 0.28076 0.97832 0.0
O131 O 0.55386 0.33022 0.04464 0.0
C132 C 0.55143 0.29553 0.03981 0.0
C133 C 0.56346 0.45869 0.96139 0.0
C134 C 0.53927 0.35463 0.80115 0.0
C135 C 0.64292 0.3571 0.89232 0.0
O136 O 0.63322 0.38728 0.919 0.0
O137 O 0.62097 0.33068 0.89423 0.0
O138 O 0.58135 0.45709 0.90033 0.0
O139 O 0.55353 0.42845 0.99074 0.0
O140 O 0.22117 0.50612 0.83484 0.0
Cd141 Cd 0.22895 0.54328 0.91556 0.0
Cd142 Cd 0.15586 0.55724 0.88829 0.0
O143 O 0.17492 0.53617 0.78916 0.0
O144 O 0.27911 0.53294 0.95241 0.0
O145 O 0.23007 0.52881 0.02214 0.0
C146 C 0.26485 0.5252 0.01539 0.0
C147 C 0.09748 0.54317 0.93471 0.0
C148 C 0.20193 0.51521 0.77971 0.0
C149 C 0.20442 0.61819 0.8763 0.0
O150 O 0.17414 0.60908 0.90437 0.0
O151 O 0.23001 0.5952 0.87317 0.0
O152 O 0.10179 0.5628 0.87657 0.0
O153 O 0.12649 0.5306 0.96579 0.0
O154 O 0.04634 0.22574 0.83792 0.0
Cd155 Cd 1.00907 0.22278 0.91974 0.0
Cd156 Cd 1.00694 0.1524 0.88388 0.0
O157 O 1.03019 0.17429 0.78839 0.0
O158 O 1.0138 0.27148 0.96484 0.0
O159 O 1.02573 0.22095 0.02511 0.0
C160 C 1.02541 0.25579 0.02382 0.0
C161 C 1.02568 0.09739 0.93918 0.0
C162 C 0.04476 0.20533 0.78224 0.0
C163 C 0.93798 0.19192 0.86844 0.0
O164 O 0.95178 0.16127 0.88315 0.0
O165 O 0.95651 0.22039 0.87846 0.0
O166 O 1.01017 0.09852 0.87549 0.0
O167 O 1.03242 0.12788 0.97055 0.0
O168 O 0.8375 0.03492 0.64063 0.0
Cd169 Cd 0.83291 0.07614 0.56678 0.0
Cd170 Cd 0.90688 0.0824 0.59458 0.0
O171 O 0.88656 0.05803 0.69018 0.0
O172 O 0.78274 0.07133 0.52522 0.0
O173 O 0.83262 0.06523 0.4584 0.0
C174 C 0.7976 0.06373 0.46276 0.0
C175 C 0.96243 0.0672 0.53715 0.0
C176 C 0.85748 0.03971 0.69679 0.0
C177 C 0.86388 0.14579 0.62278 0.0
O178 O 0.89275 0.13601 0.59006 0.0
O179 O 0.8362 0.12536 0.62081 0.0
O180 O 0.9615 0.08255 0.60085 0.0
O181 O 0.93165 0.05882 0.50754 0.0
O182 O 0.55873 0.8348 0.68694 0.0
Cd183 Cd 0.52098 0.8313 0.60559 0.0
Cd184 Cd 0.51402 0.90507 0.63405 0.0
O185 O 0.53126 0.88197 0.7337 0.0
O186 O 0.52764 0.78243 0.56177 0.0
O187 O 0.53573 0.83319 0.49937 0.0
C188 C 0.53691 0.79832 0.5012 0.0
C189 C 0.53166 0.9629 0.5918 0.0
C190 C 0.54966 0.85313 0.74292 0.0
C191 C 0.44861 0.86305 0.64018 0.0
O192 O 0.46149 0.89086 0.60866 0.0
O193 O 0.46872 0.83541 0.6478 0.0
O194 O 0.51122 0.95882 0.64891 0.0
O195 O 0.54362 0.93395 0.56049 0.0
O196 O 0.72622 0.5269 0.66566 0.0
Cd197 Cd 0.72826 0.48815 0.58678 0.0
Cd198 Cd 0.65541 0.48212 0.61848 0.0
O199 O 0.67487 0.50757 0.71303 0.0
O200 O 0.77882 0.49378 0.54798 0.0
O201 O 0.72995 0.50236 0.47956 0.0
C202 C 0.76491 0.50316 0.48562 0.0
C203 C 0.59947 0.49754 0.56207 0.0
C204 C 0.70472 0.52454 0.72008 0.0
C205 C 0.69905 0.41704 0.64155 0.0
O206 O 0.66815 0.42821 0.62004 0.0
O207 O 0.72682 0.43702 0.63371 0.0
O208 O 0.60088 0.48238 0.6261 0.0
O209 O 0.63005 0.50526 0.53088 0.0
O210 O 1.03088 0.71941 0.67242 0.0
Cd211 Cd 0.07079 0.72078 0.59508 0.0
Cd212 Cd 0.07251 0.64659 0.6224 0.0
O213 O 0.04806 0.66694 0.71742 0.0
O214 O 0.06838 0.77118 0.55539 0.0
O215 O 0.05806 0.72282 0.48766 0.0
C216 C 0.0592 0.75756 0.49284 0.0
C217 C 0.0563 0.58971 0.57369 0.0
C218 C 1.03204 0.69717 0.72567 0.0
C219 C 0.14068 0.68621 0.64334 0.0
O220 O 0.12725 0.65701 0.61918 0.0
O221 O 0.12202 0.71506 0.64131 0.0
O222 O 0.07214 0.59277 0.63663 0.0
O223 O 0.04819 0.61921 0.53925 0.0
C224 C 0.70028 0.17001 0.31845 0.0
C225 C 0.67352 0.19707 0.31615 0.0
C226 C 0.71652 0.1574 0.25341 0.0
C227 C 0.70552 0.17056 0.18372 0.0
H228 H 0.70585 0.15588 0.3697 0.0
H229 H 0.73409 0.13399 0.25746 0.0
S230 S 0.64224 0.24647 0.14924 0.0
N231 N 0.64194 0.24125 0.23979 0.0
N232 N 0.67107 0.21609 0.11743 0.0
C233 C 0.68228 0.20056 0.18157 0.0
C234 C 0.66662 0.21421 0.24798 0.0
C235 C 0.38838 0.66979 0.32866 0.0
C236 C 0.36534 0.64113 0.30976 0.0
C237 C 0.4076 0.68871 0.27414 0.0
C238 C 0.40516 0.67879 0.19942 0.0
H239 H 0.39469 0.6749 0.38608 0.0
H240 H 0.42823 0.70767 0.29164 0.0
S241 S 0.34299 0.61102 0.12019 0.0
N242 N 0.33587 0.60853 0.21006 0.0
N243 N 0.37377 0.64288 0.10823 0.0
C244 C 0.37888 0.65347 0.17914 0.0
C245 C 0.35841 0.63493 0.23438 0.0
C246 C 0.85565 0.41232 0.26804 0.0
C247 C 0.86337 0.40263 0.19444 0.0
C248 C 0.87472 0.39666 0.32717 0.0
C249 C 0.90096 0.36988 0.31469 0.0
H250 H 0.83845 0.43539 0.27958 0.0
H251 H 0.87175 0.40823 0.38163 0.0
S252 S 0.9257 0.33001 0.13435 0.0
N253 N 0.89527 0.36129 0.11372 0.0
N254 N 0.92958 0.33045 0.22515 0.0
C255 C 0.90498 0.35644 0.24268 0.0
C256 C 0.88654 0.37318 0.18229 0.0
C257 C 0.14882 0.86846 0.22408 0.0
C258 C 0.16038 0.87546 0.15133 0.0
C259 C 0.15938 0.89093 0.28259 0.0
C260 C 0.18307 0.91995 0.27025 0.0
H261 H 0.12959 0.84709 0.23491 0.0
H262 H 0.1472 0.887 0.33643 0.0
S263 S 0.22429 0.94665 0.09166 0.0
N264 N 0.19853 0.91163 0.07127 0.0
N265 N 0.22012 0.95258 0.18156 0.0
C266 C 0.19725 0.92508 0.19894 0.0
C267 C 0.18551 0.90308 0.13927 0.0
C268 C 0.41224 0.88564 0.82543 0.0
C269 C 0.38537 0.91102 0.80716 0.0
C270 C 0.42881 0.86468 0.7705 0.0
C271 C 0.41986 0.86959 0.69539 0.0
H272 H 0.42338 0.88497 0.88074 0.0
H273 H 0.45212 0.84842 0.78599 0.0
S274 S 0.34662 0.92793 0.62151 0.0
N275 N 0.34611 0.93527 0.71136 0.0
N276 N 0.37865 0.89743 0.6076 0.0
C277 C 0.39 0.89154 0.67799 0.0
C278 C 0.37234 0.9119 0.73421 0.0
C279 C 0.67279 0.36148 0.69684 0.0
C280 C 0.69896 0.38898 0.69998 0.0
C281 C 0.65878 0.34606 0.76161 0.0
C282 C 0.66981 0.3584 0.83167 0.0
H283 H 0.66004 0.35487 0.64472 0.0
H284 H 0.63569 0.32816 0.75638 0.0
S285 S 0.74456 0.42233 0.86925 0.0
N286 N 0.74136 0.42161 0.77837 0.0
N287 N 0.71361 0.3938 0.89994 0.0
C288 C 0.69963 0.38179 0.83515 0.0
C289 C 0.71464 0.39677 0.76916 0.0
C290 C 0.19643 0.65497 0.68657 0.0
C291 C 0.17074 0.68257 0.69709 0.0
C292 C 0.21286 0.63776 0.74699 0.0
C293 C 0.20334 0.64705 0.81985 0.0
H294 H 0.20049 0.64367 0.63211 0.0
H295 H 0.22896 0.61383 0.73631 0.0
S296 S 0.14622 0.7244 0.87608 0.0
N297 N 0.14375 0.72427 0.78508 0.0
N298 N 0.17338 0.69059 0.89862 0.0
C299 C 0.18225 0.6781 0.83058 0.0
C300 C 0.1663 0.69631 0.76897 0.0
C301 C 0.88067 0.16508 0.82099 0.0
C302 C 0.90693 0.19247 0.81636 0.0
C303 C 0.8616 0.15381 0.75815 0.0
C304 C 0.8689 0.16897 0.68822 0.0
H305 H 0.87764 0.14973 0.87159 0.0
H306 H 0.84474 0.12998 0.76299 0.0
S307 S 0.92816 0.24732 0.65005 0.0
N308 N 0.93334 0.23956 0.73925 0.0
N309 N 0.8987 0.21704 0.62072 0.0
C310 C 0.8913 0.19945 0.68486 0.0
C311 C 0.90998 0.21162 0.74923 0.0
C312 C 0.78222 0.03577 0.83777 0.0
C313 C 0.79822 0.05117 0.90056 0.0
C314 C 0.80271 1.02819 0.77463 0.0
C315 C 0.84009 0.03635 0.77076 0.0
H316 H 0.7533 1.03042 0.83639 0.0
H317 H 0.78839 1.0181 0.72678 0.0
S318 S 0.89638 0.0712 0.92485 0.0
N319 N 0.85476 0.06981 0.95875 0.0
N320 N 0.89319 0.05623 0.83943 0.0
C321 C 0.85705 0.04902 0.83535 0.0
C322 C 0.83615 0.05641 0.9002 0.0
C323 C 0.55853 0.79745 0.81941 0.0
C324 C 0.5482 0.8341 0.81548 0.0
C325 C 0.54802 0.7754 0.87865 0.0
C326 C 0.52701 0.789 0.93703 0.0
H327 H 0.57306 0.78495 0.7743 0.0
H328 H 0.55558 0.74714 0.87732 0.0
S329 S 0.4984 0.88452 0.96053 0.0
N330 N 0.51968 0.884 0.88041 0.0
N331 N 0.50021 0.8427 0.99194 0.0
C332 C 0.51893 0.82623 0.93689 0.0
C333 C 0.5296 0.84872 0.87634 0.0
C334 C 0.77682 0.53818 0.86441 0.0
C335 C 0.76192 0.52113 0.92673 0.0
C336 C 0.75635 0.54334 0.80016 0.0
C337 C 0.72024 0.53091 0.79476 0.0
H338 H 0.80501 0.54653 0.86414 0.0
H339 H 0.76995 0.5548 0.75261 0.0
S340 S 0.66661 0.48993 0.94703 0.0
N341 N 0.70728 0.49641 0.98298 0.0
N342 N 0.66899 0.50517 0.86144 0.0
C343 C 0.70398 0.51677 0.85902 0.0
C344 C 0.7248 0.51196 0.92504 0.0
C345 C 0.05486 0.71544 0.92364 0.0
C346 C 0.04564 0.75219 0.92969 0.0
C347 C 0.04584 0.69564 0.86048 0.0
C348 C 1.02714 0.71188 0.80116 0.0
H349 H 0.07154 0.7025 0.9653 0.0
H350 H 0.05669 0.66857 0.85551 0.0
S351 S 0.98706 0.80389 0.80017 0.0
N352 N 1.00982 0.80153 0.87855 0.0
N353 N 0.9924 0.76423 0.76047 0.0
C354 C 1.01329 0.74696 0.81147 0.0
C355 C 1.0228 0.76723 0.87542 0.0
C356 C 0.32112 1.02775 0.55911 0.0
C357 C 0.28364 0.03582 0.55927 0.0
C358 C 0.34337 0.03604 0.61963 0.0
C359 C 0.32894 0.05257 0.68282 0.0
H360 H 0.33322 1.01349 0.5132 0.0
H361 H 0.37124 1.0266 0.61931 0.0
S362 S 0.23414 0.08448 0.70711 0.0
N363 N 0.23431 0.06546 0.62488 0.0
N364 N 0.27605 0.08061 0.73865 0.0
C365 C 0.29229 0.06344 0.68128 0.0
C366 C 0.26963 0.05508 0.61968 0.0
C367 C 0.53693 0.27905 0.66216 0.0
C368 C 0.55605 0.29348 0.60185 0.0
C369 C 0.52803 0.30029 0.72331 0.0
C370 C 0.53841 0.33685 0.72756 0.0
H371 H 0.52941 0.25081 0.66313 0.0
H372 H 0.51483 0.28715 0.76951 0.0
S373 S 0.58428 0.3891 0.57924 0.0
N374 N 0.58142 0.34777 0.54619 0.0
N375 N 0.56523 0.38756 0.66163 0.0
C376 C 0.55527 0.3523 0.66523 0.0
C377 C 0.5641 0.33065 0.6025 0.0
C378 C 0.27551 0.5051 0.63655 0.0
C379 C 0.2619 0.52503 0.57652 0.0
C380 C 0.25425 0.49852 0.69915 0.0
C381 C 0.21862 0.51225 0.70518 0.0
H382 H 0.3032 0.49515 0.63609 0.0
H383 H 0.26688 0.48449 0.74503 0.0
S384 S 0.16845 0.56209 0.5588 0.0
N385 N 0.20915 0.55508 0.52323 0.0
N386 N 0.16931 0.54331 0.64151 0.0
C387 C 0.20374 0.53 0.64319 0.0
C388 C 0.22538 0.53639 0.57891 0.0
C389 C 1.01657 0.23109 0.58974 0.0
C390 C 1.02671 0.2677 0.58622 0.0
C391 C 1.02645 0.20922 0.64981 0.0
C392 C 0.04707 0.22303 0.70867 0.0
H393 H 0.99918 0.21961 0.54776 0.0
H394 H 1.01529 0.18223 0.65267 0.0
S395 S 0.08783 0.31453 0.71745 0.0
N396 N 0.0637 0.31494 0.64067 0.0
N397 N 0.08277 0.27376 0.75287 0.0
C398 C 0.06076 0.25839 0.70165 0.0
C399 C 0.05033 0.28079 0.64087 0.0
C400 C 0.22674 0.05119 0.11994 0.0
C401 C 0.24236 0.06379 0.18569 0.0
C402 C 0.24852 0.0418 0.05949 0.0
C403 C 0.28667 0.04495 0.06228 0.0
H404 H 0.19801 0.04498 0.1176 0.0
H405 H 0.23539 1.03014 0.01172 0.0
S406 S 0.33984 0.08388 0.2165 0.0
N407 N 0.29744 0.08428 0.24614 0.0
N408 N 0.33838 0.06709 0.13228 0.0
C409 C 0.30214 0.06128 0.1247 0.0
C410 C 0.27994 0.07072 0.18631 0.0
C411 C 0.54196 0.21547 0.16969 0.0
C412 C 0.52672 0.23112 0.23328 0.0
C413 C 0.5481 0.23607 0.10575 0.0
C414 C 0.53948 0.27309 0.10325 0.0
H415 H 0.55222 0.18807 0.17117 0.0
H416 H 0.56194 0.22341 0.05989 0.0
S417 S 0.49063 0.32447 0.24786 0.0
N418 N 0.4966 0.28397 0.28416 0.0
N419 N 0.50884 0.32273 0.16472 0.0
C420 C 0.52068 0.28798 0.16333 0.0
C421 C 0.51394 0.26692 0.22796 0.0
C422 C 0.29083 0.49318 0.2069 0.0
C423 C 0.32863 0.49926 0.20974 0.0
C424 C 0.27076 0.5004 0.143 0.0
C425 C 0.2876 0.51329 0.07861 0.0
H426 H 0.27598 0.48534 0.25593 0.0
H427 H 0.24152 0.49716 0.14523 0.0
S428 S 0.38687 0.52565 0.0514 0.0
N429 N 0.38286 0.51342 0.1387 0.0
N430 N 0.34518 0.52613 0.01774 0.0
C431 C 0.32583 0.51574 0.07801 0.0
C432 C 0.34632 0.50879 0.14366 0.0
C433 C 1.03092 0.31498 0.08881 0.0
C434 C 0.0373 0.27747 0.08801 0.0
C435 C 0.03732 0.33546 0.15236 0.0
C436 C 0.05026 0.31909 0.21732 0.0
H437 H 1.01882 0.32836 0.04157 0.0
H438 H 1.02868 0.36342 0.1526 0.0
S439 S 0.07877 0.22365 0.23933 0.0
N440 N 0.063 0.22615 0.15415 0.0
N441 N 0.07482 0.26468 0.27353 0.0
C442 C 0.06043 0.28253 0.21467 0.0
C443 C 0.05383 0.26164 0.15017 0.0
C444 C 0.71718 0.05672 0.33181 0.0
C445 C 0.73166 0.03794 0.27096 0.0
C446 C 0.73837 0.06407 0.3944 0.0
C447 C 0.77497 0.05323 0.39854 0.0
H448 H 0.68998 0.06785 0.32949 0.0
H449 H 0.72641 0.07983 0.43839 0.0
S450 S 0.82413 0.99765 0.26101 0.0
N451 N 0.78361 1.00418 0.22424 0.0
N452 N 0.82337 1.01871 0.34106 0.0
C453 C 0.78902 0.03221 0.34081 0.0
C454 C 0.76734 1.02424 0.27751 0.0
C455 C 0.54247 0.73916 0.43541 0.0
C456 C 0.54729 0.7769 0.43533 0.0
C457 C 0.54688 0.71888 0.37075 0.0
C458 C 0.55623 0.73566 0.30375 0.0
H459 H 0.53311 0.72537 0.48462 0.0
H460 H 0.53967 0.69056 0.37198 0.0
S461 S 0.57958 0.83213 0.27721 0.0
N462 N 0.56775 0.82908 0.36487 0.0
N463 N 0.57585 0.79097 0.24366 0.0
C464 C 0.56481 0.77262 0.30474 0.0
C465 C 0.56026 0.79328 0.37036 0.0
C466 C 0.77276 0.53409 0.36393 0.0
C467 C 0.78825 0.51514 0.42343 0.0
C468 C 0.79348 0.54377 0.30218 0.0
C469 C 0.83052 0.53433 0.29654 0.0
H470 H 0.7441 0.54078 0.36404 0.0
H471 H 0.77958 0.55675 0.25654 0.0
S472 S 0.88531 0.489 0.44219 0.0
N473 N 0.84388 0.49082 0.4768 0.0
N474 N 0.88273 0.50849 0.36031 0.0
C475 C 0.84699 0.51772 0.35818 0.0
C476 C 0.82587 0.50811 0.42149 0.0
C477 C 0.0611 0.83825 0.36288 0.0
C478 C 0.0447 0.82454 0.29882 0.0
C479 C 0.06415 0.81695 0.4269 0.0
C480 C 0.05115 0.78121 0.42871 0.0
H481 H 0.07438 0.8643 0.36171 0.0
H482 H 0.07878 0.82785 0.47362 0.0
S483 S 0.99947 0.73569 0.28014 0.0
N484 N 1.01033 0.77535 0.24484 0.0
N485 N 1.01633 0.7353 0.36457 0.0
C486 C 1.0318 0.76853 0.36726 0.0
C487 C 1.0284 0.79028 0.30258 0.0
C488 C 0.53322 0.04413 0.90267 0.0
C489 C 0.50012 0.05163 0.93876 0.0
C490 C 0.56692 0.04943 0.93756 0.0
C491 C 0.56923 0.06272 0.01012 0.0
H492 H 0.53322 0.03355 0.84704 0.0
H493 H 0.59139 0.04313 0.90703 0.0
S494 S 0.49079 0.08744 0.129 0.0
N495 N 0.472 0.07352 0.05146 0.0
N496 N 0.53506 0.08378 0.11664 0.0
C497 C 0.53636 0.07071 0.04672 0.0
C498 C 0.50198 0.06512 0.01124 0.0
C499 C 0.56492 0.52663 0.96073 0.0
C500 C 0.55581 0.49419 0.99721 0.0
C501 C 0.55875 0.56047 0.99339 0.0
C502 C 0.54356 0.56346 0.06441 0.0
H503 H 0.57689 0.52599 0.90616 0.0
H504 H 0.56604 0.58448 0.96259 0.0
S505 S 0.51485 0.48693 0.18403 0.0
N506 N 0.53071 0.46747 0.10884 0.0
N507 N 0.51934 0.53072 0.17013 0.0
C508 C 0.53449 0.53124 0.10175 0.0
C509 C 0.54052 0.49678 0.06824 0.0
C510 C 1.02251 0.51051 0.06401 0.0
C511 C 0.99029 0.52289 0.03014 0.0
C512 C 0.0568 0.51695 0.0326 0.0
C513 C 0.06056 0.53614 0.96585 0.0
H514 H 1.02136 0.49545 0.11529 0.0
H515 H 0.08057 0.50681 0.06123 0.0
S516 S 0.98491 0.57464 0.85447 0.0
N517 N 0.96456 0.55544 0.92562 0.0
N518 N 1.02878 0.56762 0.86681 0.0
C519 C 1.02859 0.54881 0.93135 0.0
C520 C 0.9936 0.5422 0.96337 0.0
C521 C 0.058 0.06028 0.03645 0.0
C522 C 1.03409 0.06214 0.97578 0.0
C523 C 0.06614 1.02718 0.07132 0.0
C524 C 0.05034 0.99456 0.04772 0.0
H525 H 0.07088 0.08454 0.05675 0.0
H526 H 0.08507 1.02722 0.11709 0.0
S527 S 0.98449 0.98488 0.89345 0.0
N528 N 0.99385 1.02836 0.89514 0.0
N529 N 1.00875 0.96667 0.96055 0.0
C530 C 1.02586 0.99621 0.98794 0.0
C531 C 1.01788 1.02978 0.95205 0.0
C532 C 0.06455 0.06245 0.50066 0.0
C533 C 0.06681 0.05228 0.42602 0.0
C534 C 1.03082 0.06691 0.53599 0.0
C535 C 0.99777 0.061 0.49857 0.0
H536 H 0.08905 0.06703 0.53233 0.0
H537 H 1.03075 0.07498 0.59336 0.0
S538 S 0.98842 0.03373 0.30243 0.0
N539 N 1.03268 0.03639 0.31574 0.0
N540 N 0.96964 0.04443 0.38211 0.0
C541 C 0.99961 0.0507 0.42393 0.0
C542 C 1.03396 0.04648 0.38773 0.0
C543 C 0.55482 1.0029 0.4899 0.0
C544 C 0.53931 0.99949 0.56057 0.0
C545 C 0.56036 0.03685 0.45705 0.0
C546 C 0.5509 0.06908 0.49344 0.0
H547 H 0.56234 0.9791 0.45893 0.0
H548 H 0.57233 0.0377 0.40248 0.0
S549 S 0.51021 0.07535 0.68053 0.0
N550 N 0.51501 1.03162 0.6666 0.0
N551 N 0.52569 0.09524 0.6052 0.0
C552 C 0.53571 0.06615 0.56457 0.0
C553 C 0.52986 1.03148 0.59795 0.0
C554 C 0.53125 0.49463 0.56122 0.0
C555 C 0.56375 0.50477 0.52563 0.0
C556 C 0.49713 0.50071 0.52861 0.0
C557 C 0.49384 0.51718 0.45878 0.0
H558 H 0.53204 0.48188 0.61507 0.0
H559 H 0.47311 0.49266 0.55893 0.0
S560 S 0.57049 0.54812 0.34096 0.0
N561 N 0.59032 0.53157 0.41549 0.0
N562 N 0.52645 0.54303 0.35436 0.0
C563 C 0.52615 0.52711 0.42206 0.0
C564 C 0.56095 0.52092 0.45536 0.0
C565 C 0.03546 0.55095 0.46848 0.0
C566 C 0.04913 0.55356 0.54079 0.0
C567 C 1.02963 0.51734 0.43506 0.0
C568 C 0.037 0.48471 0.47249 0.0
H569 H 1.02935 0.57509 0.43696 0.0
H570 H 1.01889 0.51705 0.37941 0.0
S571 S 0.07352 0.47636 0.66285 0.0
N572 N 0.07024 0.52026 0.64876 0.0
N573 N 0.05901 0.45729 0.58616 0.0
C574 C 0.05069 0.48685 0.54489 0.0
C575 C 0.05682 0.52115 0.5789 0.0
loop_
_geom_bond_atom_site_label_1
_geom_bond_atom_site_label_2
_geom_bond_distance
_geom_bond_site_symmetry_2
_ccdc_geom_bond_type
O0 Cd1 2.223 . S
O0 C8 1.315 . S
Cd1 O0 2.223 . S
Cd1 O4 2.297 1_554 S
Cd1 O5 2.439 1_554 S
Cd1 O11 2.240 . S
Cd2 O3 2.240 . S
Cd2 O10 2.223 . S
Cd2 O12 2.297 1_545 S
Cd2 O13 2.444 . S
O3 Cd2 2.240 . S
O3 C8 1.279 . S
O4 Cd1 2.297 1_556 S
O4 C6 1.247 . S
O5 Cd1 2.439 1_556 S
O5 C6 1.208 . S
C6 O4 1.247 . S
C6 O5 1.208 . S
C7 O12 1.247 . S
C7 O13 1.211 1_565 S
C8 O0 1.315 . S
C8 O3 1.279 . S
C9 O10 1.315 . S
C9 O11 1.279 . S
O10 Cd2 2.223 . S
O10 C9 1.315 . S
O11 Cd1 2.240 . S
O11 C9 1.279 . S
O12 Cd2 2.297 1_565 S
O12 C7 1.247 . S
O13 Cd2 2.444 . S
O13 C7 1.211 1_545 S
O14 Cd15 2.223 . S
O14 C22 1.315 . S
Cd15 O14 2.223 . S
Cd15 O18 2.297 1_554 S
Cd15 O19 2.439 1_554 S
Cd15 O25 2.240 . S
Cd16 O17 2.240 . S
Cd16 O24 2.223 . S
Cd16 O26 2.297 . S
Cd16 O27 2.445 . S
O17 Cd16 2.240 . S
O17 C22 1.279 . S
O18 Cd15 2.297 1_556 S
O18 C20 1.247 . S
O19 Cd15 2.439 1_556 S
O19 C20 1.208 . S
C20 O18 1.247 . S
C20 O19 1.208 . S
C21 O26 1.247 . S
C21 O27 1.211 . S
C22 O14 1.315 . S
C22 O17 1.279 . S
C23 O24 1.315 . S
C23 O25 1.279 . S
O24 Cd16 2.223 . S
O24 C23 1.315 . S
O25 Cd15 2.240 . S
O25 C23 1.279 . S
O26 Cd16 2.297 . S
O26 C21 1.247 . S
O27 Cd16 2.445 . S
O27 C21 1.211 . S
O28 Cd29 2.223 . S
O28 C36 1.315 . S
Cd29 O28 2.223 . S
Cd29 O32 2.297 1_554 S
Cd29 O33 2.439 1_554 S
Cd29 O39 2.240 . S
Cd30 O31 2.240 . S
Cd30 O38 2.223 . S
Cd30 O40 2.297 . S
Cd30 O41 2.444 . S
O31 Cd30 2.240 . S
O31 C36 1.279 . S
O32 Cd29 2.297 1_556 S
O32 C34 1.247 . S
O33 Cd29 2.439 1_556 S
O33 C34 1.208 . S
C34 O32 1.247 . S
C34 O33 1.208 . S
C35 O40 1.247 . S
C35 O41 1.211 . S
C36 O28 1.315 . S
C36 O31 1.279 . S
C37 O38 1.315 . S
C37 O39 1.279 . S
O38 Cd30 2.223 . S
O38 C37 1.315 . S
O39 Cd29 2.240 . S
O39 C37 1.279 . S
O40 Cd30 2.297 . S
O40 C35 1.247 . S
O41 Cd30 2.444 . S
O41 C35 1.211 . S
O42 Cd43 2.223 . S
O42 C50 1.315 . S
Cd43 O42 2.223 . S
Cd43 O46 2.297 1_554 S
Cd43 O47 2.439 1_554 S
Cd43 O53 2.240 . S
Cd44 O45 2.240 . S
Cd44 O52 2.223 . S
Cd44 O54 2.297 1_455 S
Cd44 O55 2.445 . S
O45 Cd44 2.240 . S
O45 C50 1.279 . S
O46 Cd43 2.297 1_556 S
O46 C48 1.247 . S
O47 Cd43 2.439 1_556 S
O47 C48 1.208 . S
C48 O46 1.247 . S
C48 O47 1.208 . S
C49 O54 1.247 . S
C49 O55 1.211 1_655 S
C50 O42 1.315 . S
C50 O45 1.279 . S
C51 O52 1.315 . S
C51 O53 1.279 . S
O52 Cd44 2.223 . S
O52 C51 1.315 . S
O53 Cd43 2.240 . S
O53 C51 1.279 . S
O54 Cd44 2.297 1_655 S
O54 C49 1.247 . S
O55 Cd44 2.445 . S
O55 C49 1.211 1_455 S
O56 Cd57 2.223 . S
O56 C64 1.315 . S
Cd57 O56 2.223 . S
Cd57 O60 2.297 . S
Cd57 O61 2.439 . S
Cd57 O67 2.240 . S
Cd58 O59 2.240 . S
Cd58 O66 2.223 . S
Cd58 O68 2.297 1_565 S
Cd58 O69 2.439 . S
O59 Cd58 2.240 . S
O59 C64 1.279 . S
O60 Cd57 2.297 . S
O60 C62 1.247 . S
O61 Cd57 2.439 . S
O61 C62 1.208 . S
C62 O60 1.247 . S
C62 O61 1.208 . S
C63 O68 1.247 . S
C63 O69 1.208 1_545 S
C64 O56 1.315 . S
C64 O59 1.279 . S
C65 O66 1.315 . S
C65 O67 1.279 . S
O66 Cd58 2.223 . S
O66 C65 1.315 . S
O67 Cd57 2.240 . S
O67 C65 1.279 . S
O68 Cd58 2.297 1_545 S
O68 C63 1.247 . S
O69 Cd58 2.439 . S
O69 C63 1.208 1_565 S
O70 Cd71 2.223 . S
O70 C78 1.315 . S
Cd71 O70 2.223 . S
Cd71 O74 2.297 . S
Cd71 O75 2.439 . S
Cd71 O81 2.240 . S
Cd72 O73 2.240 . S
Cd72 O80 2.223 . S
Cd72 O82 2.297 . S
Cd72 O83 2.439 . S
O73 Cd72 2.240 . S
O73 C78 1.279 . S
O74 Cd71 2.297 . S
O74 C76 1.247 . S
O75 Cd71 2.439 . S
O75 C76 1.208 . S
C76 O74 1.247 . S
C76 O75 1.208 . S
C77 O82 1.247 . S
C77 O83 1.208 . S
C78 O70 1.315 . S
C78 O73 1.279 . S
C79 O80 1.315 . S
C79 O81 1.279 . S
O80 Cd72 2.223 . S
O80 C79 1.315 . S
O81 Cd71 2.240 . S
O81 C79 1.279 . S
O82 Cd72 2.297 . S
O82 C77 1.247 . S
O83 Cd72 2.439 . S
O83 C77 1.208 . S
O84 Cd85 2.223 . S
O84 C92 1.315 . S
Cd85 O84 2.223 . S
Cd85 O88 2.297 . S
Cd85 O89 2.439 . S
Cd85 O95 2.240 . S
Cd86 O87 2.240 . S
Cd86 O94 2.223 . S
Cd86 O96 2.297 . S
Cd86 O97 2.439 . S
O87 Cd86 2.240 . S
O87 C92 1.279 . S
O88 Cd85 2.297 . S
O88 C90 1.247 . S
O89 Cd85 2.439 . S
O89 C90 1.208 . S
C90 O88 1.247 . S
C90 O89 1.208 . S
C91 O96 1.247 . S
C91 O97 1.208 . S
C92 O84 1.315 . S
C92 O87 1.279 . S
C93 O94 1.315 . S
C93 O95 1.279 . S
O94 Cd86 2.223 . S
O94 C93 1.315 . S
O95 Cd85 2.240 . S
O95 C93 1.279 . S
O96 Cd86 2.297 . S
O96 C91 1.247 . S
O97 Cd86 2.439 . S
O97 C91 1.208 . S
O98 Cd99 2.223 . S
O98 C106 1.315 . S
Cd99 O98 2.223 . S
Cd99 O102 2.297 . S
Cd99 O103 2.439 . S
Cd99 O109 2.240 . S
Cd100 O101 2.240 . S
Cd100 O108 2.223 . S
Cd100 O110 2.297 1_655 S
Cd100 O111 2.439 . S
O101 Cd100 2.240 . S
O101 C106 1.279 . S
O102 Cd99 2.297 . S
O102 C104 1.247 . S
O103 Cd99 2.439 . S
O103 C104 1.208 . S
C104 O102 1.247 . S
C104 O103 1.208 . S
C105 O110 1.247 . S
C105 O111 1.208 1_455 S
C106 O98 1.315 . S
C106 O101 1.279 . S
C107 O108 1.315 . S
C107 O109 1.279 . S
O108 Cd100 2.223 . S
O108 C107 1.315 . S
O109 Cd99 2.240 . S
O109 C107 1.279 . S
O110 Cd100 2.297 1_455 S
O110 C105 1.247 . S
O111 Cd100 2.439 . S
O111 C105 1.208 1_655 S
O112 Cd113 2.223 . S
O112 C120 1.315 . S
Cd113 O112 2.223 . S
Cd113 O116 2.297 1_556 S
Cd113 O117 2.439 1_556 S
Cd113 O123 2.240 . S
Cd114 O115 2.240 . S
Cd114 O122 2.223 . S
Cd114 O124 2.297 1_565 S
Cd114 O125 2.444 . S
O115 Cd114 2.240 . S
O115 C120 1.279 . S
O116 Cd113 2.297 1_554 S
O116 C118 1.247 . S
O117 Cd113 2.439 1_554 S
O117 C118 1.208 . S
C118 O116 1.247 . S
C118 O117 1.208 . S
C119 O124 1.247 . S
C119 O125 1.211 1_545 S
C120 O112 1.315 . S
C120 O115 1.279 . S
C121 O122 1.315 . S
C121 O123 1.279 . S
O122 Cd114 2.223 . S
O122 C121 1.315 . S
O123 Cd113 2.240 . S
O123 C121 1.279 . S
O124 Cd114 2.297 1_545 S
O124 C119 1.247 . S
O125 Cd114 2.444 . S
O125 C119 1.211 1_565 S
O126 Cd127 2.223 . S
O126 C134 1.315 . S
Cd127 O126 2.223 . S
Cd127 O130 2.297 1_556 S
Cd127 O131 2.439 1_556 S
Cd127 O137 2.240 . S
Cd128 O129 2.240 . S
Cd128 O136 2.223 . S
Cd128 O138 2.297 . S
Cd128 O139 2.445 . S
O129 Cd128 2.240 . S
O129 C134 1.279 . S
O130 Cd127 2.297 1_554 S
O130 C132 1.247 . S
O131 Cd127 2.439 1_554 S
O131 C132 1.208 . S
C132 O130 1.247 . S
C132 O131 1.208 . S
C133 O138 1.247 . S
C133 O139 1.211 . S
C134 O126 1.315 . S
C134 O129 1.279 . S
C135 O136 1.315 . S
C135 O137 1.279 . S
O136 Cd128 2.223 . S
O136 C135 1.315 . S
O137 Cd127 2.240 . S
O137 C135 1.279 . S
O138 Cd128 2.297 . S
O138 C133 1.247 . S
O139 Cd128 2.445 . S
O139 C133 1.211 . S
O140 Cd141 2.223 . S
O140 C148 1.315 . S
Cd141 O140 2.223 . S
Cd141 O144 2.297 1_556 S
Cd141 O145 2.439 1_556 S
Cd141 O151 2.240 . S
Cd142 O143 2.240 . S
Cd142 O150 2.223 . S
Cd142 O152 2.297 . S
Cd142 O153 2.444 . S
O143 Cd142 2.240 . S
O143 C148 1.279 . S
O144 Cd141 2.297 1_554 S
O144 C146 1.247 . S
O145 Cd141 2.439 1_554 S
O145 C146 1.208 . S
C146 O144 1.247 . S
C146 O145 1.208 . S
C147 O152 1.247 . S
C147 O153 1.211 . S
C148 O140 1.315 . S
C148 O143 1.279 . S
C149 O150 1.315 . S
C149 O151 1.279 . S
O150 Cd142 2.223 . S
O150 C149 1.315 . S
O151 Cd141 2.240 . S
O151 C149 1.279 . S
O152 Cd142 2.297 . S
O152 C147 1.247 . S
O153 Cd142 2.444 . S
O153 C147 1.211 . S
O154 Cd155 2.223 . S
O154 C162 1.315 . S
Cd155 O154 2.223 . S
Cd155 O158 2.297 1_556 S
Cd155 O159 2.439 1_556 S
Cd155 O165 2.240 . S
Cd156 O157 2.240 . S
Cd156 O164 2.223 . S
Cd156 O166 2.297 1_655 S
Cd156 O167 2.445 . S
O157 Cd156 2.240 . S
O157 C162 1.279 . S
O158 Cd155 2.297 1_554 S
O158 C160 1.247 . S
O159 Cd155 2.439 1_554 S
O159 C160 1.208 . S
C160 O158 1.247 . S
C160 O159 1.208 . S
C161 O166 1.247 . S
C161 O167 1.211 1_455 S
C162 O154 1.315 . S
C162 O157 1.279 . S
C163 O164 1.315 . S
C163 O165 1.279 . S
O164 Cd156 2.223 . S
O164 C163 1.315 . S
O165 Cd155 2.240 . S
O165 C163 1.279 . S
O166 Cd156 2.297 1_455 S
O166 C161 1.247 . S
O167 Cd156 2.445 . S
O167 C161 1.211 1_655 S
O168 Cd169 2.223 . S
O168 C176 1.315 . S
Cd169 O168 2.223 . S
Cd169 O172 2.297 . S
Cd169 O173 2.439 . S
Cd169 O179 2.240 . S
Cd170 O171 2.240 . S
Cd170 O178 2.223 . S
Cd170 O180 2.297 1_545 S
Cd170 O181 2.439 . S
O171 Cd170 2.240 . S
O171 C176 1.279 . S
O172 Cd169 2.297 . S
O172 C174 1.247 . S
O173 Cd169 2.439 . S
O173 C174 1.208 . S
C174 O172 1.247 . S
C174 O173 1.208 . S
C175 O180 1.247 . S
C175 O181 1.208 1_565 S
C176 O168 1.315 . S
C176 O171 1.279 . S
C177 O178 1.315 . S
C177 O179 1.279 . S
O178 Cd170 2.223 . S
O178 C177 1.315 . S
O179 Cd169 2.240 . S
O179 C177 1.279 . S
O180 Cd170 2.297 1_565 S
O180 C175 1.247 . S
O181 Cd170 2.439 . S
O181 C175 1.208 1_545 S
O182 Cd183 2.223 . S
O182 C190 1.315 . S
Cd183 O182 2.223 . S
Cd183 O186 2.297 . S
Cd183 O187 2.439 . S
Cd183 O193 2.240 . S
Cd184 O185 2.240 . S
Cd184 O192 2.223 . S
Cd184 O194 2.297 . S
Cd184 O195 2.439 . S
O185 Cd184 2.240 . S
O185 C190 1.279 . S
O186 Cd183 2.297 . S
O186 C188 1.247 . S
O187 Cd183 2.439 . S
O187 C188 1.208 . S
C188 O186 1.247 . S
C188 O187 1.208 . S
C189 O194 1.247 . S
C189 O195 1.208 . S
C190 O182 1.315 . S
C190 O185 1.279 . S
C191 O192 1.315 . S
C191 O193 1.279 . S
O192 Cd184 2.223 . S
O192 C191 1.315 . S
O193 Cd183 2.240 . S
O193 C191 1.279 . S
O194 Cd184 2.297 . S
O194 C189 1.247 . S
O195 Cd184 2.439 . S
O195 C189 1.208 . S
O196 Cd197 2.223 . S
O196 C204 1.315 . S
Cd197 O196 2.223 . S
Cd197 O200 2.297 . S
Cd197 O201 2.439 . S
Cd197 O207 2.240 . S
Cd198 O199 2.240 . S
Cd198 O206 2.223 . S
Cd198 O208 2.297 . S
Cd198 O209 2.439 . S
O199 Cd198 2.240 . S
O199 C204 1.279 . S
O200 Cd197 2.297 . S
O200 C202 1.247 . S
O201 Cd197 2.439 . S
O201 C202 1.208 . S
C202 O200 1.247 . S
C202 O201 1.208 . S
C203 O208 1.247 . S
C203 O209 1.208 . S
C204 O196 1.315 . S
C204 O199 1.279 . S
C205 O206 1.315 . S
C205 O207 1.279 . S
O206 Cd198 2.223 . S
O206 C205 1.315 . S
O207 Cd197 2.240 . S
O207 C205 1.279 . S
O208 Cd198 2.297 . S
O208 C203 1.247 . S
O209 Cd198 2.439 . S
O209 C203 1.208 . S
O210 Cd211 2.223 . S
O210 C218 1.315 . S
Cd211 O210 2.223 . S
Cd211 O214 2.297 . S
Cd211 O215 2.439 . S
Cd211 O221 2.240 . S
Cd212 O213 2.240 . S
Cd212 O220 2.223 . S
Cd212 O222 2.297 1_455 S
Cd212 O223 2.439 . S
O213 Cd212 2.240 . S
O213 C218 1.279 . S
O214 Cd211 2.297 . S
O214 C216 1.247 . S
O215 Cd211 2.439 . S
O215 C216 1.208 . S
C216 O214 1.247 . S
C216 O215 1.208 . S
C217 O222 1.247 . S
C217 O223 1.208 1_655 S
C218 O210 1.315 . S
C218 O213 1.279 . S
C219 O220 1.315 . S
C219 O221 1.279 . S
O220 Cd212 2.223 . S
O220 C219 1.315 . S
O221 Cd211 2.240 . S
O221 C219 1.279 . S
O222 Cd212 2.297 1_655 S
O222 C217 1.247 . S
O223 Cd212 2.439 . S
O223 C217 1.208 1_455 S
C224 C225 1.369 . S
C224 C226 1.419 . S
C224 H228 0.930 . S
C225 C224 1.369 . S
C225 C234 1.429 . S
C226 C224 1.419 . S
C226 C227 1.363 . S
C226 H229 0.929 . S
C227 C226 1.363 . S
C227 C233 1.428 . S
H228 C224 0.930 . S
H229 C226 0.929 . S
S230 N231 1.613 . S
S230 N232 1.610 . S
N231 S230 1.613 . S
N231 C234 1.350 . S
N232 S230 1.610 . S
N232 C233 1.351 . S
C233 C227 1.428 . S
C233 N232 1.351 . S
C233 C234 1.434 . S
C234 C225 1.429 . S
C234 N231 1.350 . S
C234 C233 1.434 . S
C235 C236 1.369 . S
C235 C237 1.419 . S
C235 H239 0.930 . S
C236 C235 1.369 . S
C236 C245 1.429 . S
C237 C235 1.419 . S
C237 C238 1.363 . S
C237 H240 0.929 . S
C238 C237 1.363 . S
C238 C244 1.428 . S
H239 C235 0.930 . S
H240 C237 0.929 . S
S241 N242 1.613 . S
S241 N243 1.610 . S
N242 S241 1.613 . S
N242 C245 1.350 . S
N243 S241 1.610 . S
N243 C244 1.351 . S
C244 C238 1.428 . S
C244 N243 1.351 . S
C244 C245 1.434 . S
C245 C236 1.429 . S
C245 N242 1.350 . S
C245 C244 1.434 . S
C246 C247 1.369 . S
C246 C248 1.419 . S
C246 H250 0.930 . S
C247 C246 1.369 . S
C247 C256 1.429 . S
C248 C246 1.419 . S
C248 C249 1.363 . S
C248 H251 0.929 . S
C249 C248 1.363 . S
C249 C255 1.428 . S
H250 C246 0.930 . S
H251 C248 0.929 . S
S252 N253 1.613 . S
S252 N254 1.610 . S
N253 S252 1.613 . S
N253 C256 1.350 . S
N254 S252 1.610 . S
N254 C255 1.351 . S
C255 C249 1.428 . S
C255 N254 1.351 . S
C255 C256 1.434 . S
C256 C247 1.429 . S
C256 N253 1.350 . S
C256 C255 1.434 . S
C257 C258 1.369 . S
C257 C259 1.419 . S
C257 H261 0.930 . S
C258 C257 1.369 . S
C258 C267 1.429 . S
C259 C257 1.419 . S
C259 C260 1.363 . S
C259 H262 0.929 . S
C260 C259 1.363 . S
C260 C266 1.428 . S
H261 C257 0.930 . S
H262 C259 0.929 . S
S263 N264 1.613 . S
S263 N265 1.610 . S
N264 S263 1.613 . S
N264 C267 1.350 . S
N265 S263 1.610 . S
N265 C266 1.351 . S
C266 C260 1.428 . S
C266 N265 1.351 . S
C266 C267 1.434 . S
C267 C258 1.429 . S
C267 N264 1.350 . S
C267 C266 1.434 . S
C268 C269 1.369 . S
C268 C270 1.419 . S
C268 H272 0.930 . S
C269 C268 1.369 . S
C269 C278 1.429 . S
C270 C268 1.419 . S
C270 C271 1.363 . S
C270 H273 0.929 . S
C271 C270 1.363 . S
C271 C277 1.428 . S
H272 C268 0.930 . S
H273 C270 0.929 . S
S274 N275 1.613 . S
S274 N276 1.610 . S
N275 S274 1.613 . S
N275 C278 1.350 . S
N276 S274 1.610 . S
N276 C277 1.351 . S
C277 C271 1.428 . S
C277 N276 1.351 . S
C277 C278 1.434 . S
C278 C269 1.429 . S
C278 N275 1.350 . S
C278 C277 1.434 . S
C279 C280 1.369 . S
C279 C281 1.419 . S
C279 H283 0.930 . S
C280 C279 1.369 . S
C280 C289 1.429 . S
C281 C279 1.419 . S
C281 C282 1.363 . S
C281 H284 0.929 . S
C282 C281 1.363 . S
C282 C288 1.428 . S
H283 C279 0.930 . S
H284 C281 0.929 . S
S285 N286 1.613 . S
S285 N287 1.610 . S
N286 S285 1.613 . S
N286 C289 1.350 . S
N287 S285 1.610 . S
N287 C288 1.351 . S
C288 C282 1.428 . S
C288 N287 1.351 . S
C288 C289 1.434 . S
C289 C280 1.429 . S
C289 N286 1.350 . S
C289 C288 1.434 . S
C290 C291 1.369 . S
C290 C292 1.419 . S
C290 H294 0.930 . S
C291 C290 1.369 . S
C291 C300 1.429 . S
C292 C290 1.419 . S
C292 C293 1.363 . S
C292 H295 0.929 . S
C293 C292 1.363 . S
C293 C299 1.428 . S
H294 C290 0.930 . S
H295 C292 0.929 . S
S296 N297 1.613 . S
S296 N298 1.610 . S
N297 S296 1.613 . S
N297 C300 1.350 . S
N298 S296 1.610 . S
N298 C299 1.351 . S
C299 C293 1.428 . S
C299 N298 1.351 . S
C299 C300 1.434 . S
C300 C291 1.429 . S
C300 N297 1.350 . S
C300 C299 1.434 . S
C301 C302 1.369 . S
C301 C303 1.419 . S
C301 H305 0.930 . S
C302 C301 1.369 . S
C302 C311 1.429 . S
C303 C301 1.419 . S
C303 C304 1.363 . S
C303 H306 0.929 . S
C304 C303 1.363 . S
C304 C310 1.428 . S
H305 C301 0.930 . S
H306 C303 0.929 . S
S307 N308 1.613 . S
S307 N309 1.610 . S
N308 S307 1.613 . S
N308 C311 1.350 . S
N309 S307 1.610 . S
N309 C310 1.351 . S
C310 C304 1.428 . S
C310 N309 1.351 . S
C310 C311 1.434 . S
C311 C302 1.429 . S
C311 N308 1.350 . S
C311 C310 1.434 . S
C312 C313 1.369 . S
C312 C314 1.419 . S
C312 H316 0.930 . S
C313 C312 1.369 . S
C313 C322 1.429 . S
C314 C312 1.419 . S
C314 C315 1.363 . S
C314 H317 0.929 . S
C315 C314 1.363 . S
C315 C321 1.428 . S
H316 C312 0.930 . S
H317 C314 0.929 . S
S318 N319 1.613 . S
S318 N320 1.610 . S
N319 S318 1.613 . S
N319 C322 1.350 . S
N320 S318 1.610 . S
N320 C321 1.351 . S
C321 C315 1.428 . S
C321 N320 1.351 . S
C321 C322 1.434 . S
C322 C313 1.429 . S
C322 N319 1.350 . S
C322 C321 1.434 . S
C323 C324 1.369 . S
C323 C325 1.419 . S
C323 H327 0.930 . S
C324 C323 1.369 . S
C324 C333 1.429 . S
C325 C323 1.419 . S
C325 C326 1.363 . S
C325 H328 0.929 . S
C326 C325 1.363 . S
C326 C332 1.428 . S
H327 C323 0.930 . S
H328 C325 0.929 . S
S329 N330 1.613 . S
S329 N331 1.610 . S
N330 S329 1.613 . S
N330 C333 1.350 . S
N331 S329 1.610 . S
N331 C332 1.351 . S
C332 C326 1.428 . S
C332 N331 1.351 . S
C332 C333 1.434 . S
C333 C324 1.429 . S
C333 N330 1.350 . S
C333 C332 1.434 . S
C334 C335 1.369 . S
C334 C336 1.419 . S
C334 H338 0.930 . S
C335 C334 1.369 . S
C335 C344 1.429 . S
C336 C334 1.419 . S
C336 C337 1.363 . S
C336 H339 0.929 . S
C337 C336 1.363 . S
C337 C343 1.428 . S
H338 C334 0.930 . S
H339 C336 0.929 . S
S340 N341 1.613 . S
S340 N342 1.610 . S
N341 S340 1.613 . S
N341 C344 1.350 . S
N342 S340 1.610 . S
N342 C343 1.351 . S
C343 C337 1.428 . S
C343 N342 1.351 . S
C343 C344 1.434 . S
C344 C335 1.429 . S
C344 N341 1.350 . S
C344 C343 1.434 . S
C345 C346 1.369 . S
C345 C347 1.419 . S
C345 H349 0.930 . S
C346 C345 1.369 . S
C346 C355 1.429 . S
C347 C345 1.419 . S
C347 C348 1.363 . S
C347 H350 0.929 . S
C348 C347 1.363 . S
C348 C354 1.428 . S
H349 C345 0.930 . S
H350 C347 0.929 . S
S351 N352 1.613 . S
S351 N353 1.610 . S
N352 S351 1.613 . S
N352 C355 1.350 . S
N353 S351 1.610 . S
N353 C354 1.351 . S
C354 C348 1.428 . S
C354 N353 1.351 . S
C354 C355 1.434 . S
C355 C346 1.429 . S
C355 N352 1.350 . S
C355 C354 1.434 . S
C356 C357 1.369 . S
C356 C358 1.419 . S
C356 H360 0.930 . S
C357 C356 1.369 . S
C357 C366 1.429 . S
C358 C356 1.419 . S
C358 C359 1.363 . S
C358 H361 0.929 . S
C359 C358 1.363 . S
C359 C365 1.428 . S
H360 C356 0.930 . S
H361 C358 0.929 . S
S362 N363 1.613 . S
S362 N364 1.610 . S
N363 S362 1.613 . S
N363 C366 1.350 1_545 S
N364 S362 1.610 . S
N364 C365 1.351 1_545 S
C365 C359 1.428 . S
C365 N364 1.351 1_565 S
C365 C366 1.434 . S
C366 C357 1.429 . S
C366 N363 1.350 1_565 S
C366 C365 1.434 . S
C367 C368 1.369 . S
C367 C369 1.419 . S
C367 H371 0.930 . S
C368 C367 1.369 . S
C368 C377 1.429 . S
C369 C367 1.419 . S
C369 C370 1.363 . S
C369 H372 0.929 . S
C370 C369 1.363 . S
C370 C376 1.428 . S
H371 C367 0.930 . S
H372 C369 0.929 . S
S373 N374 1.613 . S
S373 N375 1.610 . S
N374 S373 1.613 . S
N374 C377 1.350 . S
N375 S373 1.610 . S
N375 C376 1.351 . S
C376 C370 1.428 . S
C376 N375 1.351 . S
C376 C377 1.434 . S
C377 C368 1.429 . S
C377 N374 1.350 . S
C377 C376 1.434 . S
C378 C379 1.369 . S
C378 C380 1.419 . S
C378 H382 0.930 . S
C379 C378 1.369 . S
C379 C388 1.429 . S
C380 C378 1.419 . S
C380 C381 1.363 . S
C380 H383 0.929 . S
C381 C380 1.363 . S
C381 C387 1.428 . S
H382 C378 0.930 . S
H383 C380 0.929 . S
S384 N385 1.613 . S
S384 N386 1.610 . S
N385 S384 1.613 . S
N385 C388 1.350 . S
N386 S384 1.610 . S
N386 C387 1.351 . S
C387 C381 1.428 . S
C387 N386 1.351 . S
C387 C388 1.434 . S
C388 C379 1.429 . S
C388 N385 1.350 . S
C388 C387 1.434 . S
C389 C390 1.369 . S
C389 C391 1.419 . S
C389 H393 0.930 . S
C390 C389 1.369 . S
C390 C399 1.429 . S
C391 C389 1.419 . S
C391 C392 1.363 . S
C391 H394 0.929 . S
C392 C391 1.363 . S
C392 C398 1.428 . S
H393 C389 0.930 . S
H394 C391 0.929 . S
S395 N396 1.613 . S
S395 N397 1.610 . S
N396 S395 1.613 . S
N396 C399 1.350 . S
N397 S395 1.610 . S
N397 C398 1.351 . S
C398 C392 1.428 . S
C398 N397 1.351 . S
C398 C399 1.434 . S
C399 C390 1.429 . S
C399 N396 1.350 . S
C399 C398 1.434 . S
C400 C401 1.369 . S
C400 C402 1.419 . S
C400 H404 0.930 . S
C401 C400 1.369 . S
C401 C410 1.429 . S
C402 C400 1.419 . S
C402 C403 1.363 . S
C402 H405 0.929 . S
C403 C402 1.363 . S
C403 C409 1.428 . S
H404 C400 0.930 . S
H405 C402 0.929 . S
S406 N407 1.613 . S
S406 N408 1.610 . S
N407 S406 1.613 . S
N407 C410 1.350 . S
N408 S406 1.610 . S
N408 C409 1.351 . S
C409 C403 1.428 . S
C409 N408 1.351 . S
C409 C410 1.434 . S
C410 C401 1.429 . S
C410 N407 1.350 . S
C410 C409 1.434 . S
C411 C412 1.369 . S
C411 C413 1.419 . S
C411 H415 0.930 . S
C412 C411 1.369 . S
C412 C421 1.429 . S
C413 C411 1.419 . S
C413 C414 1.363 . S
C413 H416 0.929 . S
C414 C413 1.363 . S
C414 C420 1.428 . S
H415 C411 0.930 . S
H416 C413 0.929 . S
S417 N418 1.613 . S
S417 N419 1.610 . S
N418 S417 1.613 . S
N418 C421 1.350 . S
N419 S417 1.610 . S
N419 C420 1.351 . S
C420 C414 1.428 . S
C420 N419 1.351 . S
C420 C421 1.434 . S
C421 C412 1.429 . S
C421 N418 1.350 . S
C421 C420 1.434 . S
C422 C423 1.369 . S
C422 C424 1.419 . S
C422 H426 0.930 . S
C423 C422 1.369 . S
C423 C432 1.429 . S
C424 C422 1.419 . S
C424 C425 1.363 . S
C424 H427 0.929 . S
C425 C424 1.363 . S
C425 C431 1.428 . S
H426 C422 0.930 . S
H427 C424 0.929 . S
S428 N429 1.613 . S
S428 N430 1.610 . S
N429 S428 1.613 . S
N429 C432 1.350 . S
N430 S428 1.610 . S
N430 C431 1.351 . S
C431 C425 1.428 . S
C431 N430 1.351 . S
C431 C432 1.434 . S
C432 C423 1.429 . S
C432 N429 1.350 . S
C432 C431 1.434 . S
C433 C434 1.369 . S
C433 C435 1.419 . S
C433 H437 0.930 1_655 S
C434 C433 1.369 . S
C434 C443 1.429 . S
C435 C433 1.419 . S
C435 C436 1.363 . S
C435 H438 0.929 1_655 S
C436 C435 1.363 . S
C436 C442 1.428 . S
H437 C433 0.930 1_455 S
H438 C435 0.929 1_455 S
S439 N440 1.613 . S
S439 N441 1.610 . S
N440 S439 1.613 . S
N440 C443 1.350 . S
N441 S439 1.610 . S
N441 C442 1.351 . S
C442 C436 1.428 . S
C442 N441 1.351 . S
C442 C443 1.434 . S
C443 C434 1.429 . S
C443 N440 1.350 . S
C443 C442 1.434 . S
C444 C445 1.369 . S
C444 C446 1.419 . S
C444 H448 0.930 . S
C445 C444 1.369 . S
C445 C454 1.451 . S
C446 C444 1.419 . S
C446 C447 1.363 . S
C446 H449 0.929 . S
C447 C446 1.363 . S
C447 C453 1.428 . S
H448 C444 0.930 . S
H449 C446 0.929 . S
S450 N451 1.613 . S
S450 N452 1.610 . S
N451 S450 1.613 . S
N451 C454 1.322 1_565 S
N452 S450 1.610 . S
N452 C453 1.351 1_565 S
C453 C447 1.428 . S
C453 N452 1.351 1_545 S
C453 C454 1.439 . S
C454 C445 1.451 . S
C454 N451 1.322 1_545 S
C454 C453 1.439 . S
C455 C456 1.369 . S
C455 C457 1.419 . S
C455 H459 0.930 . S
C456 C455 1.369 . S
C456 C465 1.429 . S
C457 C455 1.419 . S
C457 C458 1.363 . S
C457 H460 0.929 . S
C458 C457 1.363 . S
C458 C464 1.428 . S
H459 C455 0.930 . S
H460 C457 0.929 . S
S461 N462 1.613 . S
S461 N463 1.610 . S
N462 S461 1.613 . S
N462 C465 1.350 . S
N463 S461 1.610 . S
N463 C464 1.351 . S
C464 C458 1.428 . S
C464 N463 1.351 . S
C464 C465 1.434 . S
C465 C456 1.429 . S
C465 N462 1.350 . S
C465 C464 1.434 . S
C466 C467 1.369 . S
C466 C468 1.419 . S
C466 H470 0.930 . S
C467 C466 1.369 . S
C467 C476 1.429 . S
C468 C466 1.419 . S
C468 C469 1.363 . S
C468 H471 0.929 . S
C469 C468 1.363 . S
C469 C475 1.428 . S
H470 C466 0.930 . S
H471 C468 0.929 . S
S472 N473 1.613 . S
S472 N474 1.610 . S
N473 S472 1.613 . S
N473 C476 1.350 . S
N474 S472 1.610 . S
N474 C475 1.351 . S
C475 C469 1.428 . S
C475 N474 1.351 . S
C475 C476 1.434 . S
C476 C467 1.429 . S
C476 N473 1.350 . S
C476 C475 1.434 . S
C477 C478 1.369 . S
C477 C479 1.419 . S
C477 H481 0.930 . S
C478 C477 1.369 . S
C478 C487 1.429 . S
C479 C477 1.419 . S
C479 C480 1.363 . S
C479 H482 0.929 . S
C480 C479 1.363 . S
C480 C486 1.428 . S
H481 C477 0.930 . S
H482 C479 0.929 . S
S483 N484 1.613 . S
S483 N485 1.610 . S
N484 S483 1.613 . S
N484 C487 1.350 1_655 S
N485 S483 1.610 . S
N485 C486 1.351 1_655 S
C486 C480 1.428 . S
C486 N485 1.351 1_455 S
C486 C487 1.434 . S
C487 C478 1.429 . S
C487 N484 1.350 1_455 S
C487 C486 1.434 . S
C488 C489 1.369 . S
C488 C490 1.419 . S
C488 H492 0.930 . S
C489 C488 1.369 . S
C489 C498 1.429 1_546 S
C490 C488 1.419 . S
C490 C491 1.363 1_546 S
C490 H493 0.929 . S
C491 C490 1.363 1_564 S
C491 C497 1.428 . S
H492 C488 0.930 . S
H493 C490 0.929 . S
S494 N495 1.613 . S
S494 N496 1.610 . S
N495 S494 1.613 . S
N495 C498 1.350 . S
N496 S494 1.610 . S
N496 C497 1.351 . S
C497 C491 1.428 . S
C497 N496 1.351 . S
C497 C498 1.434 . S
C498 C489 1.429 1_564 S
C498 N495 1.350 . S
C498 C497 1.434 . S
C499 C500 1.369 . S
C499 C501 1.419 . S
C499 H503 0.930 . S
C500 C499 1.369 . S
C500 C509 1.429 1_556 S
C501 C499 1.419 . S
C501 C502 1.363 1_556 S
C501 H504 0.929 . S
C502 C501 1.363 1_554 S
C502 C508 1.428 . S
H503 C499 0.930 . S
H504 C501 0.929 . S
S505 N506 1.613 . S
S505 N507 1.610 . S
N506 S505 1.613 . S
N506 C509 1.350 . S
N507 S505 1.610 . S
N507 C508 1.351 . S
C508 C502 1.428 . S
C508 N507 1.351 . S
C508 C509 1.434 . S
C509 C500 1.429 1_554 S
C509 N506 1.350 . S
C509 C508 1.434 . S
C510 C511 1.369 . S
C510 C512 1.419 1_655 S
C510 H514 0.930 . S
C511 C510 1.369 . S
C511 C520 1.429 1_554 S
C512 C510 1.419 1_455 S
C512 C513 1.363 1_554 S
C512 H515 0.929 . S
C513 C512 1.363 1_556 S
C513 C519 1.428 . S
H514 C510 0.930 . S
H515 C512 0.929 . S
S516 N517 1.613 . S
S516 N518 1.610 1_655 S
N517 S516 1.613 . S
N517 C520 1.350 . S
N518 S516 1.610 1_455 S
N518 C519 1.351 . S
C519 C513 1.428 . S
C519 N518 1.351 . S
C519 C520 1.434 1_455 S
C520 C511 1.429 1_556 S
C520 N517 1.350 . S
C520 C519 1.434 1_655 S
C521 C522 1.369 1_654 S
C521 C523 1.419 1_545 S
C521 H525 0.930 . S
C522 C521 1.369 1_456 S
C522 C531 1.429 . S
C523 C521 1.419 1_565 S
C523 C524 1.363 . S
C523 H526 0.929 . S
C524 C523 1.363 . S
C524 C530 1.428 1_654 S
H525 C521 0.930 . S
H526 C523 0.929 . S
S527 N528 1.613 1_565 S
S527 N529 1.610 . S
N528 S527 1.613 1_545 S
N528 C531 1.350 . S
N529 S527 1.610 . S
N529 C530 1.351 . S
C530 C524 1.428 1_456 S
C530 N529 1.351 . S
C530 C531 1.434 1_565 S
C531 C522 1.429 . S
C531 N528 1.350 . S
C531 C530 1.434 1_545 S
C532 C533 1.369 1_565 S
C532 C534 1.419 1_455 S
C532 H536 0.930 . S
C533 C532 1.369 1_545 S
C533 C542 1.429 . S
C534 C532 1.419 1_655 S
C534 C535 1.363 . S
C534 H537 0.929 . S
C535 C534 1.363 . S
C535 C541 1.428 1_565 S
H536 C532 0.930 . S
H537 C534 0.929 . S
S538 N539 1.613 1_655 S
S538 N540 1.610 . S
N539 S538 1.613 1_455 S
N539 C542 1.350 . S
N540 S538 1.610 . S
N540 C541 1.351 . S
C541 C535 1.428 1_545 S
C541 N540 1.351 . S
C541 C542 1.434 1_655 S
C542 C533 1.429 . S
C542 N539 1.350 . S
C542 C541 1.434 1_455 S
C543 C544 1.369 . S
C543 C545 1.419 1_565 S
C543 H547 0.930 . S
C544 C543 1.369 . S
C544 C553 1.429 . S
C545 C543 1.419 1_545 S
C545 C546 1.363 . S
C545 H548 0.929 . S
C546 C545 1.363 . S
C546 C552 1.428 . S
H547 C543 0.930 . S
H548 C545 0.929 . S
S549 N550 1.613 1_545 S
S549 N551 1.610 . S
N550 S549 1.613 1_565 S
N550 C553 1.350 . S
N551 S549 1.610 . S
N551 C552 1.351 . S
C552 C546 1.428 . S
C552 N551 1.351 . S
C552 C553 1.434 1_545 S
C553 C544 1.429 . S
C553 N550 1.350 . S
C553 C552 1.434 1_565 S
C554 C555 1.369 . S
C554 C556 1.419 . S
C554 H558 0.930 . S
C555 C554 1.369 . S
C555 C564 1.429 . S
C556 C554 1.419 . S
C556 C557 1.363 . S
C556 H559 0.929 . S
C557 C556 1.363 . S
C557 C563 1.428 . S
H558 C554 0.930 . S
H559 C556 0.929 . S
S560 N561 1.613 . S
S560 N562 1.610 . S
N561 S560 1.613 . S
N561 C564 1.350 . S
N562 S560 1.610 . S
N562 C563 1.351 . S
C563 C557 1.428 . S
C563 N562 1.351 . S
C563 C564 1.434 . S
C564 C555 1.429 . S
C564 N561 1.350 . S
C564 C563 1.434 . S
C565 C566 1.369 1_455 S
C565 C567 1.419 . S
C565 H569 0.930 . S
C566 C565 1.369 1_655 S
C566 C575 1.429 . S
C567 C565 1.419 . S
C567 C568 1.363 . S
C567 H570 0.929 . S
C568 C567 1.363 . S
C568 C574 1.428 1_455 S
H569 C565 0.930 . S
H570 C567 0.929 . S
S571 N572 1.613 . S
S571 N573 1.610 . S
N572 S571 1.613 . S
N572 C575 1.350 . S
N573 S571 1.610 . S
N573 C574 1.351 . S
C574 C568 1.428 1_655 S
C574 N573 1.351 . S
C574 C575 1.434 . S
C575 C566 1.429 . S
C575 N572 1.350 . S
C575 C574 1.434 . S
C225 C79 0.761 . S
C227 C9 0.767 . S
C236 C93 0.763 . S
C238 C23 0.762 . S
C247 C37 0.777 . S
C249 C107 0.766 . S
C258 C51 0.765 . S
C260 C65 0.762 . S
C269 C121 0.776 . S
C271 C191 0.778 . S
C280 C205 0.771 . S
C282 C135 0.777 . S
C291 C219 0.778 . S
C293 C149 0.778 . S
C302 C163 0.759 . S
C304 C177 0.765 . S
C313 C6 1.579 . S
C315 C176 1.518 . S
C324 C190 1.523 . S
C326 C20 1.579 . S
C335 C34 1.579 . S
C337 C204 1.520 . S
C346 C48 1.580 . S
C348 C218 1.517 . S
C357 C62 1.580 . S
C359 C120 1.521 . S
C368 C76 1.580 . S
C370 C134 1.521 . S
C379 C90 1.577 . S
C381 C148 1.518 . S
C390 C104 1.581 . S
C392 C162 1.518 . S
C401 C64 1.520 . S
C403 C118 1.581 . S
C412 C78 1.514 . S
C414 C132 1.578 . S
C423 C92 1.514 . S
C425 C146 1.579 . S
C434 C160 1.577 . S
C436 C106 1.515 . S
C445 C8 1.523 . S
C447 C174 1.579 . S
C456 C188 1.581 . S
C458 C22 1.519 . S
C467 C202 1.579 . S
C469 C36 1.521 . S
C478 C50 1.522 . S
C480 C216 1.581 . S
C489 C119 1.589 . S
C491 C7 1.583 . S
C500 C133 1.591 . S
C502 C21 1.587 . S
C511 C35 1.588 . S
C513 C147 1.584 . S
C522 C161 1.585 . S
C524 C49 1.591 . S
C533 C63 1.590 . S
C535 C175 1.587 . S
C544 C189 1.581 . S
C546 C77 1.589 . S
C555 C203 1.588 . S
C557 C91 1.589 . S
C566 C217 1.581 . S
C568 C105 1.590 . S
