# Generated by pormake.
# Topology msp, (4)-cn, num edge types: 1
# Building blocks:
#     Node 0, Type 0, BuildingBlock: CEKHIL_clean_sbu_0, # of connection points: 4
#     Node 1, Type 0, BuildingBlock: CEKHIL_clean_sbu_0, # of connection points: 4
#     Node 2, Type 0, BuildingBlock: CEKHIL_clean_sbu_0, # of connection points: 4
#     Node 3, Type 0, BuildingBlock: CEKHIL_clean_sbu_0, # of connection points: 4
#     Node 4, Type 0, BuildingBlock: CEKHIL_clean_sbu_0, # of connection points: 4
#     Node 5, Type 0, BuildingBlock: CEKHIL_clean_sbu_0, # of connection points: 4
#     Node 6, Type 0, BuildingBlock: CEKHIL_clean_sbu_0, # of connection points: 4
#     Node 7, Type 0, BuildingBlock: CEKHIL_clean_sbu_0, # of connection points: 4
#     Edge 8, Type (0, 0), BuildingBlock: KIFKEQ_clean_linker_1, # of connection points: 2
#     Edge 9, Type (0, 0), BuildingBlock: KIFKEQ_clean_linker_1, # of connection points: 2
#     Edge 10, Type (0, 0), BuildingBlock: KIFKEQ_clean_linker_1, # of connection points: 2
#     Edge 11, Type (0, 0), BuildingBlock: KIFKEQ_clean_linker_1, # of connection points: 2
#     Edge 12, Type (0, 0), BuildingBlock: KIFKEQ_clean_linker_1, # of connection points: 2
#     Edge 13, Type (0, 0), BuildingBlock: KIFKEQ_clean_linker_1, # of connection points: 2
#     Edge 14, Type (0, 0), BuildingBlock: KIFKEQ_clean_linker_1, # of connection points: 2
#     Edge 15, Type (0, 0), BuildingBlock: KIFKEQ_clean_linker_1, # of connection points: 2
#     Edge 16, Type (0, 0), BuildingBlock: KIFKEQ_clean_linker_1, # of connection points: 2
#     Edge 17, Type (0, 0), BuildingBlock: KIFKEQ_clean_linker_1, # of connection points: 2
#     Edge 18, Type (0, 0), BuildingBlock: KIFKEQ_clean_linker_1, # of connection points: 2
#     Edge 19, Type (0, 0), BuildingBlock: KIFKEQ_clean_linker_1, # of connection points: 2
#     Edge 20, Type (0, 0), BuildingBlock: KIFKEQ_clean_linker_1, # of connection points: 2
#     Edge 21, Type (0, 0), BuildingBlock: KIFKEQ_clean_linker_1, # of connection points: 2
#     Edge 22, Type (0, 0), BuildingBlock: KIFKEQ_clean_linker_1, # of connection points: 2
#     Edge 23, Type (0, 0), BuildingBlock: KIFKEQ_clean_linker_1, # of connection points: 2
# Relax obj value: 0.161
# Max RMSD: 0.205
# Mean RMSD: 0.205
data_MOF--net-msp--node1-CEKHIL_clean_sbu_0--edge1-KIFKEQ_clean_linker_1
_symmetry_space_group_name_H-M    P1
_symmetry_Int_Tables_number       1
_symmetry_cell_setting            triclinic
loop_
_symmetry_equiv_pos_as_xyz
'x, y, z'
_cell_length_a     23.826542
_cell_length_b     23.352574
_cell_length_c     39.936044
_cell_angle_alpha  89.948062
_cell_angle_beta   99.045698
_cell_angle_gamma 90.024094
loop_
_atom_site_label
_atom_site_type_symbol
_atom_site_fract_x
_atom_site_fract_y
_atom_site_fract_z
_atom_type_partial_charge
Co0 Co 0.01382 0.30324 0.3492 0.0
O1 O 0.95623 0.32683 0.31286 0.0
O2 O 0.97078 0.23724 0.33064 0.0
C3 C 0.99633 0.37062 0.38606 0.0
O4 O 0.06831 0.26389 0.38664 0.0
Co5 Co 0.11292 0.38692 0.37587 0.0
O6 O 0.12183 0.33322 0.41494 0.0
C7 C 0.1164 0.31991 0.31344 0.0
C8 C 0.94062 0.27362 0.31062 0.0
C9 C 0.10374 0.28179 0.41212 0.0
O10 O 0.07033 0.29357 0.3172 0.0
O11 O 0.13767 0.36099 0.33259 0.0
O12 O 0.96573 0.32441 0.38223 0.0
O13 O 0.03184 0.37735 0.36509 0.0
Co14 Co 0.48317 0.31847 0.63452 0.0
O15 O 0.53972 0.35023 0.66876 0.0
O16 O 0.52639 0.25738 0.65933 0.0
C17 C 0.50192 0.37669 0.59285 0.0
O18 O 0.42976 0.27113 0.60033 0.0
Co19 Co 0.38449 0.39609 0.59955 0.0
O20 O 0.37903 0.33421 0.56516 0.0
C21 C 0.37724 0.34281 0.66613 0.0
C22 C 0.55596 0.29814 0.67599 0.0
C23 C 0.39622 0.28349 0.57279 0.0
O24 O 0.42535 0.3175 0.66635 0.0
O25 O 0.35581 0.37788 0.6429 0.0
O26 O 0.53239 0.33107 0.60043 0.0
O27 O 0.46532 0.38812 0.61249 0.0
Co28 Co 0.98236 0.67461 0.63351 0.0
O29 O 0.03571 0.64434 0.67018 0.0
O30 O 0.02463 0.73657 0.65798 0.0
C31 C 0.00385 0.6121 0.59462 0.0
O32 O 0.93212 0.72069 0.59699 0.0
Co33 Co 0.88488 0.59691 0.59659 0.0
O34 O 0.88257 0.65741 0.56149 0.0
C35 C 0.87194 0.65494 0.66099 0.0
C36 C 0.05223 0.69663 0.67653 0.0
C37 C 0.89951 0.7082 0.56911 0.0
O38 O 0.92084 0.67941 0.6627 0.0
O39 O 0.85262 0.61844 0.63813 0.0
O40 O 0.0351 0.65735 0.60183 0.0
O41 O 0.96469 0.60409 0.61296 0.0
Co42 Co 0.51334 0.68616 0.34993 0.0
O43 O 0.4614 0.66525 0.31003 0.0
O44 O 0.46954 0.75226 0.33233 0.0
C45 C 0.4931 0.61179 0.38186 0.0
O46 O 0.56119 0.72293 0.39112 0.0
Co47 Co 0.61347 0.60451 0.37831 0.0
O48 O 0.61611 0.65411 0.41889 0.0
C49 C 0.62434 0.6825 0.32127 0.0
C50 C 0.44323 0.71763 0.30957 0.0
C51 C 0.59583 0.70471 0.4169 0.0
O52 O 0.57521 0.70455 0.32264 0.0
O53 O 0.64483 0.63978 0.33931 0.0
O54 O 0.46052 0.6566 0.37834 0.0
O55 O 0.53293 0.611 0.36339 0.0
Co56 Co 0.51481 0.80808 0.84758 0.0
O57 O 0.45079 0.83169 0.81545 0.0
O58 O 0.46955 0.74179 0.8312 0.0
C59 C 0.50582 0.87339 0.88737 0.0
O60 O 0.57693 0.76958 0.88113 0.0
Co61 Co 0.61422 0.89633 0.86382 0.0
O62 O 0.64611 0.83529 0.89574 0.0
C63 C 0.60306 0.8293 0.80112 0.0
C64 C 0.43595 0.77831 0.8133 0.0
C65 C 0.62515 0.78536 0.89788 0.0
O66 O 0.56261 0.79993 0.81057 0.0
O67 O 0.62495 0.8735 0.81701 0.0
O68 O 0.47536 0.82706 0.88512 0.0
O69 O 0.53438 0.88215 0.86295 0.0
Co70 Co 0.97815 0.82743 0.13919 0.0
O71 O 0.04354 0.85634 0.16813 0.0
O72 O 0.02251 0.76433 0.16144 0.0
C73 C 0.98816 0.88161 0.09397 0.0
O74 O 0.9144 0.78349 0.10988 0.0
Co75 Co 0.88089 0.91539 0.11529 0.0
O76 O 0.84706 0.84815 0.0894 0.0
C77 C 0.89074 0.86488 0.18335 0.0
C78 C 0.05768 0.80367 0.17511 0.0
C79 C 0.86648 0.79715 0.09193 0.0
O80 O 0.93113 0.83191 0.177 0.0
O81 O 0.86956 0.90495 0.1634 0.0
O82 O 0.01699 0.83453 0.0998 0.0
O83 O 0.96013 0.8973 0.11749 0.0
Co84 Co 0.48472 0.18386 0.13113 0.0
O85 O 0.53805 0.15163 0.167 0.0
O86 O 0.5279 0.24448 0.1563 0.0
C87 C 0.50541 0.12292 0.09132 0.0
O88 O 0.43456 0.23172 0.09548 0.0
Co89 Co 0.38594 0.10868 0.09381 0.0
O90 O 0.38509 0.1697 0.05914 0.0
C91 C 0.37527 0.1632 0.15956 0.0
C92 C 0.55527 0.20349 0.17405 0.0
C93 C 0.40237 0.22017 0.06731 0.0
O94 O 0.42416 0.1875 0.16098 0.0
O95 O 0.35467 0.12826 0.13609 0.0
O96 O 0.53683 0.1679 0.09901 0.0
O97 O 0.46619 0.11425 0.10958 0.0
Co98 Co 0.01232 0.19385 0.85229 0.0
O99 O 0.95783 0.17116 0.81406 0.0
O100 O 0.96961 0.2599 0.83363 0.0
C101 C 0.99161 0.12336 0.88673 0.0
O102 O 0.06336 0.23258 0.89154 0.0
Co103 Co 0.11126 0.11171 0.88103 0.0
O104 O 0.11677 0.16401 0.92057 0.0
C105 C 0.11965 0.18207 0.82032 0.0
C106 C 0.94129 0.22411 0.81237 0.0
C107 C 0.09804 0.21516 0.91751 0.0
O108 O 0.07206 0.20666 0.82265 0.0
O109 O 0.14027 0.14077 0.83957 0.0
O110 O 0.96077 0.16936 0.88278 0.0
O111 O 0.03034 0.11923 0.86757 0.0
H112 H 0.03082 0.48159 0.39362 0.0
H113 H 0.96916 0.33953 0.44677 0.0
H114 H 0.03536 0.54081 0.44442 0.0
H115 H 0.97688 0.39685 0.49795 0.0
H116 H 0.93083 0.52785 0.57018 0.0
H117 H 0.92985 0.47212 0.51935 0.0
H118 H 0.08327 0.55709 0.50052 0.0
H119 H 0.08194 0.61628 0.55096 0.0
C120 C 0.01853 0.46313 0.41629 0.0
C121 C -0.00138 0.4066 0.41629 0.0
C122 C 0.02169 0.49671 0.44545 0.0
C123 C 0.00605 0.47378 0.47523 0.0
C124 C 0.98771 0.4165 0.47524 0.0
C125 C 0.98335 0.38352 0.44595 0.0
C126 C 0.96433 0.53501 0.55523 0.0
C127 C 0.00637 0.57663 0.56448 0.0
C128 C 0.96412 0.50245 0.52615 0.0
C129 C 0.0068 0.50958 0.50594 0.0
C130 C 0.04938 0.55095 0.51533 0.0
C131 C 0.04897 0.58448 0.54432 0.0
H132 H 0.57181 0.53032 0.40529 0.0
H133 H 0.40987 0.59991 0.4207 0.0
H134 H 0.57439 0.47134 0.45574 0.0
H135 H 0.41076 0.53867 0.47009 0.0
H136 H 0.46296 0.48411 0.57884 0.0
H137 H 0.45959 0.53681 0.52609 0.0
H138 H 0.53572 0.39271 0.48209 0.0
H139 H 0.54147 0.34109 0.53577 0.0
C140 C 0.53631 0.5323 0.41915 0.0
C141 C 0.49111 0.57043 0.40947 0.0
C142 C 0.53759 0.49816 0.44797 0.0
C143 C 0.4932 0.50089 0.46732 0.0
C144 C 0.44646 0.53672 0.45636 0.0
C145 C 0.44565 0.57146 0.42789 0.0
C146 C 0.47925 0.46392 0.55792 0.0
C147 C 0.50263 0.40877 0.56129 0.0
C148 C 0.47678 0.4938 0.52755 0.0
C149 C 0.4967 0.46874 0.49964 0.0
C150 C 0.52052 0.41351 0.50316 0.0
C151 C 0.5238 0.38391 0.53384 0.0
H152 H 0.58715 0.12587 0.05011 0.0
H153 H 0.43333 0.03866 0.06572 0.0
H154 H 0.59332 0.06421 0.00122 0.0
H155 H 0.43785 0.97961 0.01659 0.0
H156 H 0.48424 0.84331 0.94944 0.0
H157 H 0.49127 0.90287 -0.00029 0.0
H158 H 0.54715 0.04522 0.94388 0.0
H159 H 0.54273 0.98409 0.89377 0.0
C160 C 0.55461 0.0938 0.04298 0.0
C161 C 0.5099 0.08686 0.06172 0.0
C162 C 0.55794 0.05878 0.01496 0.0
C163 C 0.51635 0.01666 0.00522 0.0
C164 C 0.4714 0.01058 0.02386 0.0
C165 C 0.46849 0.04489 0.05191 0.0
C166 C 0.49813 0.88729 0.94795 0.0
C167 C 0.512 0.90959 0.91771 0.0
C168 C 0.50203 0.9215 0.97669 0.0
C169 C 0.51871 0.97912 0.97561 0.0
C170 C 0.53442 0.00093 0.94557 0.0
C171 C 0.53146 0.9662 0.91686 0.0
H172 H 0.94641 0.98863 0.08031 0.0
H173 H 0.02277 0.84593 0.03552 0.0
H174 H 0.9442 0.04301 0.02821 0.0
H175 H 0.01832 0.89933 0.98263 0.0
H176 H 0.06688 0.03971 0.91136 0.0
H177 H 0.06303 0.97814 0.96014 0.0
H178 H 0.89992 0.05059 0.97126 0.0
H179 H 0.90537 0.1141 0.92351 0.0
C180 C 0.96214 0.96871 0.05912 0.0
C181 C 0.98518 0.91337 0.06196 0.0
C182 C 0.96043 0.99964 0.02912 0.0
C183 C 0.981 0.97554 0.00114 0.0
C184 C 0.00299 0.91954 0.00385 0.0
C185 C 0.00535 0.88886 0.03406 0.0
C186 C 0.03013 0.04223 0.92416 0.0
C187 C 0.9868 0.08217 0.91402 0.0
C188 C 0.02767 0.00663 0.95198 0.0
C189 C 0.98139 0.00976 0.96986 0.0
C190 C 0.93684 0.04803 0.95861 0.0
C191 C 0.93975 0.08417 0.93113 0.0
H192 H 0.604 0.3062 0.1955 0.0
H193 H 0.62656 0.12317 0.20621 0.0
H194 H 0.69733 0.32098 0.22953 0.0
H195 H 0.72033 0.13757 0.2385 0.0
H196 H 0.87101 0.1838 0.31908 0.0
H197 H 0.77487 0.16775 0.28923 0.0
H198 H 0.79369 0.31166 0.22359 0.0
H199 H 0.88841 0.3291 0.25463 0.0
C200 C 0.6287 0.26922 0.20531 0.0
C201 C 0.60803 0.21362 0.19809 0.0
C202 C 0.68249 0.27754 0.22446 0.0
C203 C 0.71693 0.23041 0.23637 0.0
C204 C 0.69506 0.17492 0.23011 0.0
C205 C 0.64117 0.16667 0.21141 0.0
C206 C 0.85474 0.21132 0.29792 0.0
C207 C 0.88699 0.25761 0.2891 0.0
C208 C 0.79958 0.20232 0.28083 0.0
C209 C 0.77602 0.23892 0.25422 0.0
C210 C 0.80963 0.28365 0.24455 0.0
C211 C 0.86427 0.29317 0.26199 0.0
H212 H 0.60367 0.19479 0.69739 0.0
H213 H 0.63022 0.37754 0.70624 0.0
H214 H 0.69744 0.17884 0.73076 0.0
H215 H 0.72423 0.36191 0.73788 0.0
H216 H 0.87269 0.31518 0.81954 0.0
H217 H 0.77721 0.33203 0.78916 0.0
H218 H 0.7945 0.1859 0.72507 0.0
H219 H 0.88879 0.16772 0.75663 0.0
C220 C 0.62936 0.23146 0.70661 0.0
C221 C 0.60957 0.28732 0.69918 0.0
C222 C 0.68338 0.22244 0.72539 0.0
C223 C 0.71886 0.26912 0.73674 0.0
C224 C 0.69809 0.3249 0.73 0.0
C225 C 0.64405 0.33386 0.71166 0.0
C226 C 0.85633 0.2873 0.7986 0.0
C227 C 0.88808 0.24024 0.79039 0.0
C228 C 0.80151 0.2968 0.78119 0.0
C229 C 0.77769 0.25992 0.75484 0.0
C230 C 0.81071 0.21427 0.74578 0.0
C231 C 0.86511 0.2043 0.76353 0.0
H232 H 0.09617 0.80078 0.69906 0.0
H233 H 0.12677 0.61875 0.70849 0.0
H234 H 0.18793 0.8189 0.73413 0.0
H235 H 0.21918 0.63655 0.7418 0.0
H236 H 0.36908 0.68583 0.82203 0.0
H237 H 0.27289 0.66703 0.79268 0.0
H238 H 0.28433 0.81526 0.72903 0.0
H239 H 0.3787 0.83524 0.75951 0.0
C240 C 0.12234 0.7647 0.70878 0.0
C241 C 0.10431 0.70844 0.70091 0.0
C242 C 0.17526 0.77497 0.72858 0.0
C243 C 0.21164 0.72919 0.74046 0.0
C244 C 0.1924 0.67292 0.73352 0.0
C245 C 0.13929 0.66271 0.71419 0.0
C246 C 0.35101 0.71387 0.80151 0.0
C247 C 0.3812 0.76191 0.79301 0.0
C248 C 0.29586 0.70326 0.78468 0.0
C249 C 0.27027 0.74002 0.75864 0.0
C250 C 0.30168 0.78694 0.74954 0.0
C251 C 0.35619 0.798 0.76671 0.0
H252 H 0.37838 0.81291 0.31372 0.0
H253 H 0.38776 0.65843 0.25549 0.0
H254 H 0.28434 0.83249 0.2822 0.0
H255 H 0.29456 0.67896 0.22302 0.0
H256 H 0.10155 0.69872 0.1972 0.0
H257 H 0.19615 0.6793 0.22897 0.0
H258 H 0.23488 0.86019 0.22896 0.0
H259 H 0.14057 0.87949 0.19877 0.0
C260 C 0.36088 0.78383 0.29364 0.0
C261 C 0.39046 0.7342 0.28707 0.0
C262 C 0.30687 0.79496 0.27554 0.0
C263 C 0.28148 0.75703 0.25018 0.0
C264 C 0.31215 0.70843 0.24285 0.0
C265 C 0.36591 0.69704 0.26118 0.0
C266 C 0.13022 0.7342 0.20433 0.0
C267 C 0.11343 0.79057 0.19564 0.0
C268 C 0.18461 0.72313 0.22224 0.0
C269 C 0.22333 0.76822 0.23153 0.0
C270 C 0.20609 0.82449 0.22283 0.0
C271 C 0.15187 0.83551 0.20531 0.0
H272 H 0.26242 0.14006 0.15681 0.0
H273 H 0.40345 0.22694 0.21744 0.0
H274 H 0.19827 0.17869 0.19245 0.0
H275 H 0.33915 0.26393 0.25406 0.0
H276 H 0.20236 0.37397 0.28807 0.0
H277 H 0.26492 0.33346 0.25163 0.0
H278 H 0.17103 0.17441 0.2469 0.0
H279 H 0.10727 0.2156 0.28227 0.0
C280 C 0.28005 0.16648 0.17818 0.0
C281 C 0.33819 0.18056 0.18418 0.0
C282 C 0.2431 0.18858 0.19869 0.0
C283 C 0.26342 0.22481 0.22595 0.0
C284 C 0.32192 0.23716 0.23278 0.0
C285 C 0.35889 0.21547 0.21202 0.0
C286 C 0.19466 0.33059 0.27889 0.0
C287 C 0.14984 0.29802 0.28805 0.0
C288 C 0.23092 0.30714 0.25833 0.0
C289 C 0.22351 0.25041 0.24674 0.0
C290 C 0.17769 0.2184 0.25513 0.0
C291 C 0.14104 0.24207 0.2754 0.0
H292 H 0.4077 0.27875 0.72384 0.0
H293 H 0.26532 0.36766 0.66588 0.0
H294 H 0.34519 0.24191 0.76167 0.0
H295 H 0.20288 0.32907 0.70255 0.0
H296 H 0.11181 0.28792 0.79094 0.0
H297 H 0.17627 0.33106 0.75666 0.0
H298 H 0.27164 0.17301 0.76081 0.0
H299 H 0.20848 0.1307 0.79635 0.0
C300 C 0.36324 0.29076 0.71928 0.0
C301 C 0.34164 0.32612 0.69178 0.0
C302 C 0.32724 0.26915 0.74075 0.0
C303 C 0.26877 0.28193 0.73495 0.0
C304 C 0.24769 0.3188 0.7081 0.0
C305 C 0.28368 0.34089 0.68694 0.0
C306 C 0.14619 0.26216 0.78426 0.0
C307 C 0.15494 0.20582 0.79632 0.0
C308 C 0.18325 0.28694 0.76458 0.0
C309 C 0.22949 0.2557 0.7561 0.0
C310 C 0.23732 0.19882 0.76749 0.0
C311 C 0.20069 0.1743 0.78754 0.0
H312 H 0.6773 0.88408 0.76628 0.0
H313 H 0.59715 0.72019 0.77653 0.0
H314 H 0.74129 0.83952 0.73212 0.0
H315 H 0.66229 0.67544 0.74349 0.0
H316 H 0.76164 0.62244 0.66005 0.0
H317 H 0.69189 0.66639 0.68983 0.0
H318 H 0.82191 0.77648 0.74327 0.0
H319 H 0.8918 0.73399 0.71233 0.0
C320 C 0.6728 0.83873 0.76084 0.0
C321 C 0.63248 0.80561 0.77436 0.0
C322 C 0.70996 0.81306 0.74166 0.0
C323 C 0.70783 0.75371 0.73582 0.0
C324 C 0.66507 0.72129 0.74747 0.0
C325 C 0.62753 0.74704 0.76636 0.0
C326 C 0.77578 0.65556 0.67843 0.0
C327 C 0.83247 0.67488 0.68362 0.0
C328 C 0.73556 0.68077 0.69554 0.0
C329 C 0.75109 0.7255 0.71856 0.0
C330 C 0.80828 0.74307 0.725 0.0
C331 C 0.84854 0.71815 0.70763 0.0
H332 H 0.91955 0.78405 0.23316 0.0
H333 H 0.79106 0.90981 0.19687 0.0
H334 H 0.8572 0.74397 0.27003 0.0
H335 H 0.72803 0.86797 0.23175 0.0
H336 H 0.62928 0.7966 0.30904 0.0
H337 H 0.70047 0.84745 0.28309 0.0
H338 H 0.77653 0.6857 0.2622 0.0
H339 H 0.70727 0.63544 0.29019 0.0
C340 C 0.87845 0.80372 0.2334 0.0
C341 C 0.86007 0.84954 0.21159 0.0
C342 C 0.8423 0.78022 0.25418 0.0
C343 C 0.78677 0.80155 0.25321 0.0
C344 C 0.77035 0.85027 0.23341 0.0
C345 C 0.80673 0.8743 0.21316 0.0
C346 C 0.66084 0.77199 0.29848 0.0
C347 C 0.66242 0.71207 0.30122 0.0
C348 C 0.70188 0.80113 0.28369 0.0
C349 C 0.7447 0.77089 0.2706 0.0
C350 C 0.74528 0.71069 0.27275 0.0
C351 C 0.705 0.68169 0.28825 0.0
H352 H 0.39907 0.26527 0.50635 0.0
H353 H 0.32443 0.2039 0.59116 0.0
H354 H 0.32044 0.22494 0.46734 0.0
H355 H 0.24435 0.16449 0.55207 0.0
H356 H 0.10589 0.28442 0.47983 0.0
H357 H 0.1808 0.24381 0.52144 0.0
H358 H 0.24515 0.15107 0.44198 0.0
H359 H 0.16853 0.19093 0.40035 0.0
C360 C 0.36747 0.24 0.51652 0.0
C361 C 0.3673 0.23785 0.55155 0.0
C362 C 0.3223 0.21676 0.4942 0.0
C363 C 0.27564 0.19254 0.50672 0.0
C364 C 0.27966 0.18316 0.5418 0.0
C365 C 0.32558 0.20547 0.56415 0.0
C366 C 0.13402 0.25269 0.47164 0.0
C367 C 0.13194 0.24085 0.4371 0.0
C368 C 0.17691 0.22915 0.49544 0.0
C369 C 0.21932 0.19476 0.48486 0.0
C370 C 0.21301 0.17742 0.45077 0.0
C371 C 0.16917 0.20009 0.427 0.0
H372 H 0.89492 0.72684 0.50181 0.0
H373 H 0.82998 0.78689 0.59028 0.0
H374 H 0.81175 0.76534 0.46566 0.0
H375 H 0.74528 0.82376 0.55414 0.0
H376 H 0.65291 0.80062 0.40468 0.0
H377 H 0.73185 0.84116 0.44424 0.0
H378 H 0.68239 0.73908 0.52494 0.0
H379 H 0.60533 0.6973 0.48522 0.0
C380 C 0.86448 0.75149 0.51332 0.0
C381 C 0.86847 0.75374 0.54868 0.0
C382 C 0.81667 0.77357 0.49266 0.0
C383 C 0.77156 0.79661 0.50719 0.0
C384 C 0.77942 0.80614 0.54235 0.0
C385 C 0.82805 0.78529 0.563 0.0
C386 C 0.6571 0.78946 0.4313 0.0
C387 C 0.62353 0.74573 0.44206 0.0
C388 C 0.70235 0.81252 0.45387 0.0
C389 C 0.71353 0.79292 0.48754 0.0
C390 C 0.67459 0.75544 0.49923 0.0
C391 C 0.63043 0.73133 0.47652 0.0
H392 H 0.75348 0.78197 0.08696 0.0
H393 H 0.90124 0.71659 0.04978 0.0
H394 H 0.69243 0.74101 0.03892 0.0
H395 H 0.83976 0.67362 0.00138 0.0
H396 H 0.7381 0.76797 0.9056 0.0
H397 H 0.79729 0.73262 0.95604 0.0
H398 H 0.64734 0.67851 -0.00388 0.0
H399 H 0.58772 0.71571 0.94511 0.0
C400 C 0.77263 0.75631 0.06917 0.0
C401 C 0.83192 0.75368 0.07143 0.0
C402 C 0.73753 0.73223 0.04159 0.0
C403 C 0.76115 0.70553 0.01549 0.0
C404 C 0.82026 0.69528 0.02059 0.0
C405 C 0.85555 0.71946 0.04841 0.0
C406 C 0.71789 0.74653 0.92465 0.0
C407 C 0.65851 0.74588 0.92202 0.0
C408 C 0.75192 0.72557 0.9536 0.0
C409 C 0.72718 0.70406 0.98079 0.0
C410 C 0.66773 0.69606 0.97598 0.0
C411 C 0.63352 0.717 0.94673 0.0
H412 H 0.39841 0.23914 0.00012 0.0
H413 H 0.33427 0.30027 0.08861 0.0
H414 H 0.31552 0.27805 0.96401 0.0
H415 H 0.24991 0.33784 0.05251 0.0
H416 H 0.10879 0.21126 0.98592 0.0
H417 H 0.18634 0.2543 0.0246 0.0
H418 H 0.23552 0.35146 0.94185 0.0
H419 H 0.15612 0.30947 0.90326 0.0
C420 C 0.36824 0.26416 0.01164 0.0
C421 C 0.37224 0.26638 0.047 0.0
C422 C 0.32058 0.28651 0.99098 0.0
C423 C 0.27565 0.30988 0.00555 0.0
C424 C 0.28383 0.31981 0.04069 0.0
C425 C 0.33228 0.29856 0.06133 0.0
C426 C 0.13404 0.24445 0.97648 0.0
C427 C 0.12691 0.25696 0.94176 0.0
C428 C 0.17846 0.26934 -0.00139 0.0
C429 C 0.21744 0.30578 0.98612 0.0
C430 C 0.20604 0.32361 0.9521 0.0
C431 C 0.16055 0.2997 0.93008 0.0
loop_
_geom_bond_atom_site_label_1
_geom_bond_atom_site_label_2
_geom_bond_distance
_geom_bond_site_symmetry_2
_ccdc_geom_bond_type
Co0 O1 2.216 1_455 S
Co0 O2 2.091 1_455 S
Co0 O4 2.004 . S
Co0 O10 2.021 . S
Co0 O12 2.137 1_455 S
Co0 O13 2.244 . S
O1 Co0 2.216 1_655 S
O1 C8 1.247 . S
O2 Co0 2.091 1_655 S
O2 C8 1.261 . S
C3 O12 1.247 1_455 S
C3 O13 1.272 . S
O4 Co0 2.004 . S
O4 C9 1.259 . S
Co5 O6 2.061 . S
Co5 O11 2.052 . S
Co5 O13 2.135 . S
O6 Co5 2.061 . S
O6 C9 1.235 . S
C7 O10 1.238 . S
C7 O11 1.241 . S
C8 O1 1.247 . S
C8 O2 1.261 . S
C9 O4 1.259 . S
C9 O6 1.235 . S
O10 Co0 2.021 . S
O10 C7 1.238 . S
O11 Co5 2.052 . S
O11 C7 1.241 . S
O12 Co0 2.137 1_655 S
O12 C3 1.247 1_655 S
O13 Co0 2.244 . S
O13 C3 1.272 . S
O13 Co5 2.135 . S
Co14 O15 2.216 . S
Co14 O16 2.091 . S
Co14 O18 2.004 . S
Co14 O24 2.021 . S
Co14 O26 2.137 . S
Co14 O27 2.244 . S
O15 Co14 2.216 . S
O15 C22 1.247 . S
O16 Co14 2.091 . S
O16 C22 1.261 . S
C17 O26 1.247 . S
C17 O27 1.272 . S
O18 Co14 2.004 . S
O18 C23 1.259 . S
Co19 O20 2.061 . S
Co19 O25 2.052 . S
Co19 O27 2.135 . S
O20 Co19 2.061 . S
O20 C23 1.235 . S
C21 O24 1.238 . S
C21 O25 1.241 . S
C22 O15 1.247 . S
C22 O16 1.261 . S
C23 O18 1.259 . S
C23 O20 1.235 . S
O24 Co14 2.021 . S
O24 C21 1.238 . S
O25 Co19 2.052 . S
O25 C21 1.241 . S
O26 Co14 2.137 . S
O26 C17 1.247 . S
O27 Co14 2.244 . S
O27 C17 1.272 . S
O27 Co19 2.135 . S
Co28 O29 2.216 1_655 S
Co28 O30 2.091 1_655 S
Co28 O32 2.004 . S
Co28 O38 2.021 . S
Co28 O40 2.137 1_655 S
Co28 O41 2.244 . S
O29 Co28 2.216 1_455 S
O29 C36 1.247 . S
O30 Co28 2.091 1_455 S
O30 C36 1.261 . S
C31 O40 1.247 1_655 S
C31 O41 1.272 . S
O32 Co28 2.004 . S
O32 C37 1.259 . S
Co33 O34 2.061 . S
Co33 O39 2.052 . S
Co33 O41 2.135 . S
O34 Co33 2.061 . S
O34 C37 1.235 . S
C35 O38 1.238 . S
C35 O39 1.241 . S
C36 O29 1.247 . S
C36 O30 1.261 . S
C37 O32 1.259 . S
C37 O34 1.235 . S
O38 Co28 2.021 . S
O38 C35 1.238 . S
O39 Co33 2.052 . S
O39 C35 1.241 . S
O40 Co28 2.137 1_455 S
O40 C31 1.247 1_455 S
O41 Co28 2.244 . S
O41 C31 1.272 . S
O41 Co33 2.135 . S
Co42 O43 2.216 . S
Co42 O44 2.091 . S
Co42 O46 2.004 . S
Co42 O52 2.021 . S
Co42 O54 2.137 . S
Co42 O55 2.244 . S
O43 Co42 2.216 . S
O43 C50 1.247 . S
O44 Co42 2.091 . S
O44 C50 1.261 . S
C45 O54 1.247 . S
C45 O55 1.272 . S
O46 Co42 2.004 . S
O46 C51 1.259 . S
Co47 O48 2.061 . S
Co47 O53 2.052 . S
Co47 O55 2.135 . S
O48 Co47 2.061 . S
O48 C51 1.235 . S
C49 O52 1.238 . S
C49 O53 1.241 . S
C50 O43 1.247 . S
C50 O44 1.261 . S
C51 O46 1.259 . S
C51 O48 1.235 . S
O52 Co42 2.021 . S
O52 C49 1.238 . S
O53 Co47 2.052 . S
O53 C49 1.241 . S
O54 Co42 2.137 . S
O54 C45 1.247 . S
O55 Co42 2.244 . S
O55 C45 1.272 . S
O55 Co47 2.135 . S
Co56 O57 2.216 . S
Co56 O58 2.091 . S
Co56 O60 2.004 . S
Co56 O66 2.021 . S
Co56 O68 2.137 . S
Co56 O69 2.244 . S
O57 Co56 2.216 . S
O57 C64 1.247 . S
O58 Co56 2.091 . S
O58 C64 1.261 . S
C59 O68 1.247 . S
C59 O69 1.272 . S
O60 Co56 2.004 . S
O60 C65 1.259 . S
Co61 O62 2.061 . S
Co61 O67 2.052 . S
Co61 O69 2.135 . S
O62 Co61 2.061 . S
O62 C65 1.235 . S
C63 O66 1.238 . S
C63 O67 1.241 . S
C64 O57 1.247 . S
C64 O58 1.261 . S
C65 O60 1.259 . S
C65 O62 1.235 . S
O66 Co56 2.021 . S
O66 C63 1.238 . S
O67 Co61 2.052 . S
O67 C63 1.241 . S
O68 Co56 2.137 . S
O68 C59 1.247 . S
O69 Co56 2.244 . S
O69 C59 1.272 . S
O69 Co61 2.135 . S
Co70 O71 2.216 1_655 S
Co70 O72 2.091 1_655 S
Co70 O74 2.004 . S
Co70 O80 2.021 . S
Co70 O82 2.137 1_655 S
Co70 O83 2.244 . S
O71 Co70 2.216 1_455 S
O71 C78 1.247 . S
O72 Co70 2.091 1_455 S
O72 C78 1.261 . S
C73 O82 1.247 1_655 S
C73 O83 1.272 . S
O74 Co70 2.004 . S
O74 C79 1.259 . S
Co75 O76 2.061 . S
Co75 O81 2.052 . S
Co75 O83 2.135 . S
O76 Co75 2.061 . S
O76 C79 1.235 . S
C77 O80 1.238 . S
C77 O81 1.241 . S
C78 O71 1.247 . S
C78 O72 1.261 . S
C79 O74 1.259 . S
C79 O76 1.235 . S
O80 Co70 2.021 . S
O80 C77 1.238 . S
O81 Co75 2.052 . S
O81 C77 1.241 . S
O82 Co70 2.137 1_455 S
O82 C73 1.247 1_455 S
O83 Co70 2.244 . S
O83 C73 1.272 . S
O83 Co75 2.135 . S
Co84 O85 2.216 . S
Co84 O86 2.091 . S
Co84 O88 2.004 . S
Co84 O94 2.021 . S
Co84 O96 2.137 . S
Co84 O97 2.244 . S
O85 Co84 2.216 . S
O85 C92 1.247 . S
O86 Co84 2.091 . S
O86 C92 1.261 . S
C87 O96 1.247 . S
C87 O97 1.272 . S
O88 Co84 2.004 . S
O88 C93 1.259 . S
Co89 O90 2.061 . S
Co89 O95 2.052 . S
Co89 O97 2.135 . S
O90 Co89 2.061 . S
O90 C93 1.235 . S
C91 O94 1.238 . S
C91 O95 1.241 . S
C92 O85 1.247 . S
C92 O86 1.261 . S
C93 O88 1.259 . S
C93 O90 1.235 . S
O94 Co84 2.021 . S
O94 C91 1.238 . S
O95 Co89 2.052 . S
O95 C91 1.241 . S
O96 Co84 2.137 . S
O96 C87 1.247 . S
O97 Co84 2.244 . S
O97 C87 1.272 . S
O97 Co89 2.135 . S
Co98 O99 2.216 1_455 S
Co98 O100 2.091 1_455 S
Co98 O102 2.004 . S
Co98 O108 2.021 . S
Co98 O110 2.137 1_455 S
Co98 O111 2.244 . S
O99 Co98 2.216 1_655 S
O99 C106 1.247 . S
O100 Co98 2.091 1_655 S
O100 C106 1.261 . S
C101 O110 1.247 1_455 S
C101 O111 1.272 . S
O102 Co98 2.004 . S
O102 C107 1.259 . S
Co103 O104 2.061 . S
Co103 O109 2.052 . S
Co103 O111 2.135 . S
O104 Co103 2.061 . S
O104 C107 1.235 . S
C105 O108 1.238 . S
C105 O109 1.241 . S
C106 O99 1.247 . S
C106 O100 1.261 . S
C107 O102 1.259 . S
C107 O104 1.235 . S
O108 Co98 2.021 . S
O108 C105 1.238 . S
O109 Co103 2.052 . S
O109 C105 1.241 . S
O110 Co98 2.137 1_655 S
O110 C101 1.247 1_655 S
O111 Co98 2.244 . S
O111 C101 1.272 . S
O111 Co103 2.135 . S
H112 C120 0.950 . S
H113 C125 0.950 . S
H114 C122 0.950 . S
H115 C124 0.950 . S
H116 C126 0.950 . S
H117 C128 0.950 . S
H118 C130 0.950 . S
H119 C131 0.950 . S
C120 H112 0.950 . S
C120 C121 1.386 1_655 S
C120 C122 1.391 . S
C121 C120 1.386 1_455 S
C121 C125 1.393 . S
C122 H114 0.950 . S
C122 C120 1.391 . S
C122 C123 1.399 1_655 S
C123 C122 1.399 1_455 S
C123 C124 1.401 . S
C123 C129 1.489 1_455 S
C124 H115 0.950 . S
C124 C123 1.401 . S
C124 C125 1.391 . S
C125 H113 0.950 . S
C125 C121 1.393 . S
C125 C124 1.391 . S
C126 H116 0.950 . S
C126 C127 1.386 1_455 S
C126 C128 1.391 . S
C127 C126 1.386 1_655 S
C127 C131 1.393 . S
C128 H117 0.950 . S
C128 C126 1.391 . S
C128 C129 1.399 1_455 S
C129 C123 1.489 1_655 S
C129 C128 1.399 1_655 S
C129 C130 1.401 . S
C130 H118 0.950 . S
C130 C129 1.401 . S
C130 C131 1.391 . S
C131 H119 0.950 . S
C131 C127 1.393 . S
C131 C130 1.391 . S
H132 C140 0.950 . S
H133 C145 0.950 . S
H134 C142 0.950 . S
H135 C144 0.950 . S
H136 C146 0.950 . S
H137 C148 0.950 . S
H138 C150 0.950 . S
H139 C151 0.950 . S
C140 H132 0.950 . S
C140 C141 1.386 . S
C140 C142 1.391 . S
C141 C140 1.386 . S
C141 C145 1.393 . S
C142 H134 0.950 . S
C142 C140 1.391 . S
C142 C143 1.400 . S
C143 C142 1.400 . S
C143 C144 1.398 . S
C143 C149 1.491 . S
C144 H135 0.950 . S
C144 C143 1.398 . S
C144 C145 1.391 . S
C145 H133 0.950 . S
C145 C141 1.393 . S
C145 C144 1.391 . S
C146 H136 0.950 . S
C146 C147 1.386 . S
C146 C148 1.391 . S
C147 C146 1.386 . S
C147 C151 1.393 . S
C148 H137 0.950 . S
C148 C146 1.391 . S
C148 C149 1.400 . S
C149 C143 1.491 . S
C149 C148 1.400 . S
C149 C150 1.398 . S
C150 H138 0.950 . S
C150 C149 1.398 . S
C150 C151 1.391 . S
C151 H139 0.950 . S
C151 C147 1.393 . S
C151 C150 1.391 . S
H152 C160 0.950 . S
H153 C165 0.950 . S
H154 C162 0.950 1_556 S
H155 C164 0.950 1_565 S
H156 C166 0.950 . S
H157 C168 0.950 1_554 S
H158 C170 0.950 1_545 S
H159 C171 0.950 . S
C160 H152 0.950 . S
C160 C161 1.386 . S
C160 C162 1.391 . S
C161 C160 1.386 . S
C161 C165 1.393 . S
C162 H154 0.950 1_554 S
C162 C160 1.391 . S
C162 C163 1.400 . S
C163 C162 1.400 . S
C163 C164 1.398 . S
C163 C169 1.491 1_544 S
C164 H155 0.950 1_545 S
C164 C163 1.398 . S
C164 C165 1.391 . S
C165 H153 0.950 . S
C165 C161 1.393 . S
C165 C164 1.391 . S
C166 H156 0.950 . S
C166 C167 1.386 . S
C166 C168 1.391 . S
C167 C166 1.386 . S
C167 C171 1.393 . S
C168 H157 0.950 1_556 S
C168 C166 1.391 . S
C168 C169 1.400 . S
C169 C163 1.491 1_566 S
C169 C168 1.400 . S
C169 C170 1.398 . S
C170 H158 0.950 1_565 S
C170 C169 1.398 . S
C170 C171 1.391 . S
C171 H159 0.950 . S
C171 C167 1.393 . S
C171 C170 1.391 . S
H172 C180 0.950 . S
H173 C185 0.950 . S
H174 C182 0.950 . S
H175 C184 0.950 . S
H176 C186 0.950 . S
H177 C188 0.950 . S
H178 C190 0.950 . S
H179 C191 0.950 . S
C180 H172 0.950 . S
C180 C181 1.386 . S
C180 C182 1.391 . S
C181 C180 1.386 . S
C181 C185 1.393 1_655 S
C182 H174 0.950 . S
C182 C180 1.391 . S
C182 C183 1.417 . S
C183 C182 1.417 . S
C183 C184 1.384 1_655 S
C183 C189 1.486 1_664 S
C184 H175 0.950 . S
C184 C183 1.384 1_455 S
C184 C185 1.391 . S
C185 H173 0.950 . S
C185 C181 1.393 1_455 S
C185 C184 1.391 . S
C186 H176 0.950 . S
C186 C187 1.386 . S
C186 C188 1.391 . S
C187 C186 1.386 . S
C187 C191 1.393 1_455 S
C188 H177 0.950 . S
C188 C186 1.391 . S
C188 C189 1.417 . S
C189 C183 1.486 1_446 S
C189 C188 1.417 . S
C189 C190 1.384 1_455 S
C190 H178 0.950 . S
C190 C189 1.384 1_655 S
C190 C191 1.391 . S
C191 H179 0.950 . S
C191 C187 1.393 1_655 S
C191 C190 1.391 . S
H192 C200 0.950 . S
H193 C205 0.950 . S
H194 C202 0.950 . S
H195 C204 0.950 . S
H196 C206 0.950 . S
H197 C208 0.950 . S
H198 C210 0.950 . S
H199 C211 0.950 . S
C200 H192 0.950 . S
C200 C201 1.386 . S
C200 C202 1.391 . S
C201 C200 1.386 . S
C201 C205 1.393 . S
C202 H194 0.950 . S
C202 C200 1.391 . S
C202 C203 1.400 . S
C203 C202 1.400 . S
C203 C204 1.398 . S
C203 C209 1.491 . S
C204 H195 0.950 . S
C204 C203 1.398 . S
C204 C205 1.391 . S
C205 H193 0.950 . S
C205 C201 1.393 . S
C205 C204 1.391 . S
C206 H196 0.950 . S
C206 C207 1.386 . S
C206 C208 1.391 . S
C207 C206 1.386 . S
C207 C211 1.393 . S
C208 H197 0.950 . S
C208 C206 1.391 . S
C208 C209 1.400 . S
C209 C203 1.491 . S
C209 C208 1.400 . S
C209 C210 1.398 . S
C210 H198 0.950 . S
C210 C209 1.398 . S
C210 C211 1.391 . S
C211 H199 0.950 . S
C211 C207 1.393 . S
C211 C210 1.391 . S
H212 C220 0.950 . S
H213 C225 0.950 . S
H214 C222 0.950 . S
H215 C224 0.950 . S
H216 C226 0.950 . S
H217 C228 0.950 . S
H218 C230 0.950 . S
H219 C231 0.950 . S
C220 H212 0.950 . S
C220 C221 1.386 . S
C220 C222 1.391 . S
C221 C220 1.386 . S
C221 C225 1.393 . S
C222 H214 0.950 . S
C222 C220 1.391 . S
C222 C223 1.400 . S
C223 C222 1.400 . S
C223 C224 1.398 . S
C223 C229 1.491 . S
C224 H215 0.950 . S
C224 C223 1.398 . S
C224 C225 1.391 . S
C225 H213 0.950 . S
C225 C221 1.393 . S
C225 C224 1.391 . S
C226 H216 0.950 . S
C226 C227 1.386 . S
C226 C228 1.391 . S
C227 C226 1.386 . S
C227 C231 1.393 . S
C228 H217 0.950 . S
C228 C226 1.391 . S
C228 C229 1.400 . S
C229 C223 1.491 . S
C229 C228 1.400 . S
C229 C230 1.398 . S
C230 H218 0.950 . S
C230 C229 1.398 . S
C230 C231 1.391 . S
C231 H219 0.950 . S
C231 C227 1.393 . S
C231 C230 1.391 . S
H232 C240 0.950 . S
H233 C245 0.950 . S
H234 C242 0.950 . S
H235 C244 0.950 . S
H236 C246 0.950 . S
H237 C248 0.950 . S
H238 C250 0.950 . S
H239 C251 0.950 . S
C240 H232 0.950 . S
C240 C241 1.386 . S
C240 C242 1.391 . S
C241 C240 1.386 . S
C241 C245 1.393 . S
C242 H234 0.950 . S
C242 C240 1.391 . S
C242 C243 1.400 . S
C243 C242 1.400 . S
C243 C244 1.398 . S
C243 C249 1.491 . S
C244 H235 0.950 . S
C244 C243 1.398 . S
C244 C245 1.391 . S
C245 H233 0.950 . S
C245 C241 1.393 . S
C245 C244 1.391 . S
C246 H236 0.950 . S
C246 C247 1.386 . S
C246 C248 1.391 . S
C247 C246 1.386 . S
C247 C251 1.393 . S
C248 H237 0.950 . S
C248 C246 1.391 . S
C248 C249 1.400 . S
C249 C243 1.491 . S
C249 C248 1.400 . S
C249 C250 1.398 . S
C250 H238 0.950 . S
C250 C249 1.398 . S
C250 C251 1.391 . S
C251 H239 0.950 . S
C251 C247 1.393 . S
C251 C250 1.391 . S
H252 C260 0.950 . S
H253 C265 0.950 . S
H254 C262 0.950 . S
H255 C264 0.950 . S
H256 C266 0.950 . S
H257 C268 0.950 . S
H258 C270 0.950 . S
H259 C271 0.950 . S
C260 H252 0.950 . S
C260 C261 1.386 . S
C260 C262 1.391 . S
C261 C260 1.386 . S
C261 C265 1.393 . S
C262 H254 0.950 . S
C262 C260 1.391 . S
C262 C263 1.400 . S
C263 C262 1.400 . S
C263 C264 1.398 . S
C263 C269 1.491 . S
C264 H255 0.950 . S
C264 C263 1.398 . S
C264 C265 1.391 . S
C265 H253 0.950 . S
C265 C261 1.393 . S
C265 C264 1.391 . S
C266 H256 0.950 . S
C266 C267 1.386 . S
C266 C268 1.391 . S
C267 C266 1.386 . S
C267 C271 1.393 . S
C268 H257 0.950 . S
C268 C266 1.391 . S
C268 C269 1.400 . S
C269 C263 1.491 . S
C269 C268 1.400 . S
C269 C270 1.398 . S
C270 H258 0.950 . S
C270 C269 1.398 . S
C270 C271 1.391 . S
C271 H259 0.950 . S
C271 C267 1.393 . S
C271 C270 1.391 . S
H272 C280 0.950 . S
H273 C285 0.950 . S
H274 C282 0.950 . S
H275 C284 0.950 . S
H276 C286 0.950 . S
H277 C288 0.950 . S
H278 C290 0.950 . S
H279 C291 0.950 . S
C280 H272 0.950 . S
C280 C281 1.386 . S
C280 C282 1.391 . S
C281 C280 1.386 . S
C281 C285 1.393 . S
C282 H274 0.950 . S
C282 C280 1.391 . S
C282 C283 1.400 . S
C283 C282 1.400 . S
C283 C284 1.398 . S
C283 C289 1.491 . S
C284 H275 0.950 . S
C284 C283 1.398 . S
C284 C285 1.391 . S
C285 H273 0.950 . S
C285 C281 1.393 . S
C285 C284 1.391 . S
C286 H276 0.950 . S
C286 C287 1.386 . S
C286 C288 1.391 . S
C287 C286 1.386 . S
C287 C291 1.393 . S
C288 H277 0.950 . S
C288 C286 1.391 . S
C288 C289 1.400 . S
C289 C283 1.491 . S
C289 C288 1.400 . S
C289 C290 1.398 . S
C290 H278 0.950 . S
C290 C289 1.398 . S
C290 C291 1.391 . S
C291 H279 0.950 . S
C291 C287 1.393 . S
C291 C290 1.391 . S
H292 C300 0.950 . S
H293 C305 0.950 . S
H294 C302 0.950 . S
H295 C304 0.950 . S
H296 C306 0.950 . S
H297 C308 0.950 . S
H298 C310 0.950 . S
H299 C311 0.950 . S
C300 H292 0.950 . S
C300 C301 1.386 . S
C300 C302 1.391 . S
C301 C300 1.386 . S
C301 C305 1.393 . S
C302 H294 0.950 . S
C302 C300 1.391 . S
C302 C303 1.400 . S
C303 C302 1.400 . S
C303 C304 1.398 . S
C303 C309 1.491 . S
C304 H295 0.950 . S
C304 C303 1.398 . S
C304 C305 1.391 . S
C305 H293 0.950 . S
C305 C301 1.393 . S
C305 C304 1.391 . S
C306 H296 0.950 . S
C306 C307 1.386 . S
C306 C308 1.391 . S
C307 C306 1.386 . S
C307 C311 1.393 . S
C308 H297 0.950 . S
C308 C306 1.391 . S
C308 C309 1.400 . S
C309 C303 1.491 . S
C309 C308 1.400 . S
C309 C310 1.398 . S
C310 H298 0.950 . S
C310 C309 1.398 . S
C310 C311 1.391 . S
C311 H299 0.950 . S
C311 C307 1.393 . S
C311 C310 1.391 . S
H312 C320 0.950 . S
H313 C325 0.950 . S
H314 C322 0.950 . S
H315 C324 0.950 . S
H316 C326 0.950 . S
H317 C328 0.950 . S
H318 C330 0.950 . S
H319 C331 0.950 . S
C320 H312 0.950 . S
C320 C321 1.386 . S
C320 C322 1.391 . S
C321 C320 1.386 . S
C321 C325 1.393 . S
C322 H314 0.950 . S
C322 C320 1.391 . S
C322 C323 1.400 . S
C323 C322 1.400 . S
C323 C324 1.398 . S
C323 C329 1.491 . S
C324 H315 0.950 . S
C324 C323 1.398 . S
C324 C325 1.391 . S
C325 H313 0.950 . S
C325 C321 1.393 . S
C325 C324 1.391 . S
C326 H316 0.950 . S
C326 C327 1.386 . S
C326 C328 1.391 . S
C327 C326 1.386 . S
C327 C331 1.393 . S
C328 H317 0.950 . S
C328 C326 1.391 . S
C328 C329 1.400 . S
C329 C323 1.491 . S
C329 C328 1.400 . S
C329 C330 1.398 . S
C330 H318 0.950 . S
C330 C329 1.398 . S
C330 C331 1.391 . S
C331 H319 0.950 . S
C331 C327 1.393 . S
C331 C330 1.391 . S
H332 C340 0.950 . S
H333 C345 0.950 . S
H334 C342 0.950 . S
H335 C344 0.950 . S
H336 C346 0.950 . S
H337 C348 0.950 . S
H338 C350 0.950 . S
H339 C351 0.950 . S
C340 H332 0.950 . S
C340 C341 1.386 . S
C340 C342 1.391 . S
C341 C340 1.386 . S
C341 C345 1.393 . S
C342 H334 0.950 . S
C342 C340 1.391 . S
C342 C343 1.400 . S
C343 C342 1.400 . S
C343 C344 1.398 . S
C343 C349 1.491 . S
C344 H335 0.950 . S
C344 C343 1.398 . S
C344 C345 1.391 . S
C345 H333 0.950 . S
C345 C341 1.393 . S
C345 C344 1.391 . S
C346 H336 0.950 . S
C346 C347 1.386 . S
C346 C348 1.391 . S
C347 C346 1.386 . S
C347 C351 1.393 . S
C348 H337 0.950 . S
C348 C346 1.391 . S
C348 C349 1.400 . S
C349 C343 1.491 . S
C349 C348 1.400 . S
C349 C350 1.398 . S
C350 H338 0.950 . S
C350 C349 1.398 . S
C350 C351 1.391 . S
C351 H339 0.950 . S
C351 C347 1.393 . S
C351 C350 1.391 . S
H352 C360 0.950 . S
H353 C365 0.950 . S
H354 C362 0.950 . S
H355 C364 0.950 . S
H356 C366 0.950 . S
H357 C368 0.950 . S
H358 C370 0.950 . S
H359 C371 0.950 . S
C360 H352 0.950 . S
C360 C361 1.386 . S
C360 C362 1.391 . S
C361 C360 1.386 . S
C361 C365 1.393 . S
C362 H354 0.950 . S
C362 C360 1.391 . S
C362 C363 1.400 . S
C363 C362 1.400 . S
C363 C364 1.398 . S
C363 C369 1.491 . S
C364 H355 0.950 . S
C364 C363 1.398 . S
C364 C365 1.391 . S
C365 H353 0.950 . S
C365 C361 1.393 . S
C365 C364 1.391 . S
C366 H356 0.950 . S
C366 C367 1.386 . S
C366 C368 1.391 . S
C367 C366 1.386 . S
C367 C371 1.393 . S
C368 H357 0.950 . S
C368 C366 1.391 . S
C368 C369 1.400 . S
C369 C363 1.491 . S
C369 C368 1.400 . S
C369 C370 1.398 . S
C370 H358 0.950 . S
C370 C369 1.398 . S
C370 C371 1.391 . S
C371 H359 0.950 . S
C371 C367 1.393 . S
C371 C370 1.391 . S
H372 C380 0.950 . S
H373 C385 0.950 . S
H374 C382 0.950 . S
H375 C384 0.950 . S
H376 C386 0.950 . S
H377 C388 0.950 . S
H378 C390 0.950 . S
H379 C391 0.950 . S
C380 H372 0.950 . S
C380 C381 1.386 . S
C380 C382 1.391 . S
C381 C380 1.386 . S
C381 C385 1.393 . S
C382 H374 0.950 . S
C382 C380 1.391 . S
C382 C383 1.400 . S
C383 C382 1.400 . S
C383 C384 1.398 . S
C383 C389 1.491 . S
C384 H375 0.950 . S
C384 C383 1.398 . S
C384 C385 1.391 . S
C385 H373 0.950 . S
C385 C381 1.393 . S
C385 C384 1.391 . S
C386 H376 0.950 . S
C386 C387 1.386 . S
C386 C388 1.391 . S
C387 C386 1.386 . S
C387 C391 1.393 . S
C388 H377 0.950 . S
C388 C386 1.391 . S
C388 C389 1.400 . S
C389 C383 1.491 . S
C389 C388 1.400 . S
C389 C390 1.398 . S
C390 H378 0.950 . S
C390 C389 1.398 . S
C390 C391 1.391 . S
C391 H379 0.950 . S
C391 C387 1.393 . S
C391 C390 1.391 . S
H392 C400 0.950 . S
H393 C405 0.950 . S
H394 C402 0.950 . S
H395 C404 0.950 1_556 S
H396 C406 0.950 . S
H397 C408 0.950 . S
H398 C410 0.950 1_554 S
H399 C411 0.950 . S
C400 H392 0.950 . S
C400 C401 1.386 . S
C400 C402 1.391 . S
C401 C400 1.386 . S
C401 C405 1.393 . S
C402 H394 0.950 . S
C402 C400 1.391 . S
C402 C403 1.400 . S
C403 C402 1.400 . S
C403 C404 1.398 . S
C403 C409 1.491 1_554 S
C404 H395 0.950 1_554 S
C404 C403 1.398 . S
C404 C405 1.391 . S
C405 H393 0.950 . S
C405 C401 1.393 . S
C405 C404 1.391 . S
C406 H396 0.950 . S
C406 C407 1.386 . S
C406 C408 1.391 . S
C407 C406 1.386 . S
C407 C411 1.393 . S
C408 H397 0.950 . S
C408 C406 1.391 . S
C408 C409 1.400 . S
C409 C403 1.491 1_556 S
C409 C408 1.400 . S
C409 C410 1.398 . S
C410 H398 0.950 1_556 S
C410 C409 1.398 . S
C410 C411 1.391 . S
C411 H399 0.950 . S
C411 C407 1.393 . S
C411 C410 1.391 . S
H412 C420 0.950 . S
H413 C425 0.950 . S
H414 C422 0.950 1_556 S
H415 C424 0.950 . S
H416 C426 0.950 . S
H417 C428 0.950 1_554 S
H418 C430 0.950 . S
H419 C431 0.950 . S
C420 H412 0.950 . S
C420 C421 1.386 . S
C420 C422 1.391 . S
C421 C420 1.386 . S
C421 C425 1.393 . S
C422 H414 0.950 1_554 S
C422 C420 1.391 . S
C422 C423 1.400 . S
C423 C422 1.400 . S
C423 C424 1.398 . S
C423 C429 1.491 1_554 S
C424 H415 0.950 . S
C424 C423 1.398 . S
C424 C425 1.391 . S
C425 H413 0.950 . S
C425 C421 1.393 . S
C425 C424 1.391 . S
C426 H416 0.950 . S
C426 C427 1.386 . S
C426 C428 1.391 . S
C427 C426 1.386 . S
C427 C431 1.393 . S
C428 H417 0.950 1_556 S
C428 C426 1.391 . S
C428 C429 1.400 . S
C429 C423 1.491 1_556 S
C429 C428 1.400 . S
C429 C430 1.398 . S
C430 H418 0.950 . S
C430 C429 1.398 . S
C430 C431 1.391 . S
C431 H419 0.950 . S
C431 C427 1.393 . S
C431 C430 1.391 . S
C121 C3 1.555 . S
C127 C31 1.555 . S
C141 C45 1.550 . S
C147 C17 1.550 . S
C161 C87 1.556 . S
C167 C59 1.556 . S
C181 C73 1.563 . S
C187 C101 1.563 . S
C201 C92 1.795 . S
C207 C8 1.795 . S
C221 C22 1.786 . S
C227 C106 1.786 . S
C241 C36 1.801 . S
C247 C64 1.801 . S
C261 C50 1.800 . S
C267 C78 1.800 . S
C281 C91 1.510 . S
C287 C7 1.510 . S
C301 C21 1.517 . S
C307 C105 1.517 . S
C321 C63 1.497 . S
C327 C35 1.497 . S
C341 C77 1.521 . S
C347 C49 1.521 . S
C361 C23 0.584 . S
C367 C9 0.512 . S
C381 C37 0.560 . S
C387 C51 0.525 . S
C401 C79 0.556 . S
C407 C65 0.595 . S
C421 C93 0.526 . S
C427 C107 0.605 . S
