# Generated by pormake.
# Topology vbb, (4)-cn, num edge types: 1
# Building blocks:
#     Node 0, Type 0, BuildingBlock: QUQFOY_clean_sbu_1, # of connection points: 4
#     Node 1, Type 0, BuildingBlock: QUQFOY_clean_sbu_1, # of connection points: 4
#     Node 2, Type 0, BuildingBlock: QUQFOY_clean_sbu_1, # of connection points: 4
#     Node 3, Type 0, BuildingBlock: QUQFOY_clean_sbu_1, # of connection points: 4
#     Node 4, Type 0, BuildingBlock: QUQFOY_clean_sbu_1, # of connection points: 4
#     Node 5, Type 0, BuildingBlock: QUQFOY_clean_sbu_1, # of connection points: 4
#     Node 6, Type 0, BuildingBlock: QUQFOY_clean_sbu_1, # of connection points: 4
#     Node 7, Type 0, BuildingBlock: QUQFOY_clean_sbu_1, # of connection points: 4
#     Node 8, Type 0, BuildingBlock: QUQFOY_clean_sbu_1, # of connection points: 4
#     Node 9, Type 0, BuildingBlock: QUQFOY_clean_sbu_1, # of connection points: 4
#     Node 10, Type 0, BuildingBlock: QUQFOY_clean_sbu_1, # of connection points: 4
#     Node 11, Type 0, BuildingBlock: QUQFOY_clean_sbu_1, # of connection points: 4
#     Node 12, Type 0, BuildingBlock: QUQFOY_clean_sbu_1, # of connection points: 4
#     Node 13, Type 0, BuildingBlock: QUQFOY_clean_sbu_1, # of connection points: 4
#     Node 14, Type 0, BuildingBlock: QUQFOY_clean_sbu_1, # of connection points: 4
#     Node 15, Type 0, BuildingBlock: QUQFOY_clean_sbu_1, # of connection points: 4
#     Node 16, Type 0, BuildingBlock: QUQFOY_clean_sbu_1, # of connection points: 4
#     Node 17, Type 0, BuildingBlock: QUQFOY_clean_sbu_1, # of connection points: 4
#     Node 18, Type 0, BuildingBlock: QUQFOY_clean_sbu_1, # of connection points: 4
#     Node 19, Type 0, BuildingBlock: QUQFOY_clean_sbu_1, # of connection points: 4
#     Node 20, Type 0, BuildingBlock: QUQFOY_clean_sbu_1, # of connection points: 4
#     Node 21, Type 0, BuildingBlock: QUQFOY_clean_sbu_1, # of connection points: 4
#     Node 22, Type 0, BuildingBlock: QUQFOY_clean_sbu_1, # of connection points: 4
#     Node 23, Type 0, BuildingBlock: QUQFOY_clean_sbu_1, # of connection points: 4
#     Node 24, Type 0, BuildingBlock: QUQFOY_clean_sbu_1, # of connection points: 4
#     Node 25, Type 0, BuildingBlock: QUQFOY_clean_sbu_1, # of connection points: 4
#     Node 26, Type 0, BuildingBlock: QUQFOY_clean_sbu_1, # of connection points: 4
#     Node 27, Type 0, BuildingBlock: QUQFOY_clean_sbu_1, # of connection points: 4
#     Node 28, Type 0, BuildingBlock: QUQFOY_clean_sbu_1, # of connection points: 4
#     Node 29, Type 0, BuildingBlock: QUQFOY_clean_sbu_1, # of connection points: 4
#     Node 30, Type 0, BuildingBlock: QUQFOY_clean_sbu_1, # of connection points: 4
#     Node 31, Type 0, BuildingBlock: QUQFOY_clean_sbu_1, # of connection points: 4
#     Edge 32, Type (0, 0), BuildingBlock: TEMPAE_clean_linker_10, # of connection points: 2
#     Edge 33, Type (0, 0), BuildingBlock: TEMPAE_clean_linker_10, # of connection points: 2
#     Edge 34, Type (0, 0), BuildingBlock: TEMPAE_clean_linker_10, # of connection points: 2
#     Edge 35, Type (0, 0), BuildingBlock: TEMPAE_clean_linker_10, # of connection points: 2
#     Edge 36, Type (0, 0), BuildingBlock: TEMPAE_clean_linker_10, # of connection points: 2
#     Edge 37, Type (0, 0), BuildingBlock: TEMPAE_clean_linker_10, # of connection points: 2
#     Edge 38, Type (0, 0), BuildingBlock: TEMPAE_clean_linker_10, # of connection points: 2
#     Edge 39, Type (0, 0), BuildingBlock: TEMPAE_clean_linker_10, # of connection points: 2
#     Edge 40, Type (0, 0), BuildingBlock: TEMPAE_clean_linker_10, # of connection points: 2
#     Edge 41, Type (0, 0), BuildingBlock: TEMPAE_clean_linker_10, # of connection points: 2
#     Edge 42, Type (0, 0), BuildingBlock: TEMPAE_clean_linker_10, # of connection points: 2
#     Edge 43, Type (0, 0), BuildingBlock: TEMPAE_clean_linker_10, # of connection points: 2
#     Edge 44, Type (0, 0), BuildingBlock: TEMPAE_clean_linker_10, # of connection points: 2
#     Edge 45, Type (0, 0), BuildingBlock: TEMPAE_clean_linker_10, # of connection points: 2
#     Edge 46, Type (0, 0), BuildingBlock: TEMPAE_clean_linker_10, # of connection points: 2
#     Edge 47, Type (0, 0), BuildingBlock: TEMPAE_clean_linker_10, # of connection points: 2
#     Edge 48, Type (0, 0), BuildingBlock: TEMPAE_clean_linker_10, # of connection points: 2
#     Edge 49, Type (0, 0), BuildingBlock: TEMPAE_clean_linker_10, # of connection points: 2
#     Edge 50, Type (0, 0), BuildingBlock: TEMPAE_clean_linker_10, # of connection points: 2
#     Edge 51, Type (0, 0), BuildingBlock: TEMPAE_clean_linker_10, # of connection points: 2
#     Edge 52, Type (0, 0), BuildingBlock: TEMPAE_clean_linker_10, # of connection points: 2
#     Edge 53, Type (0, 0), BuildingBlock: TEMPAE_clean_linker_10, # of connection points: 2
#     Edge 54, Type (0, 0), BuildingBlock: TEMPAE_clean_linker_10, # of connection points: 2
#     Edge 55, Type (0, 0), BuildingBlock: TEMPAE_clean_linker_10, # of connection points: 2
#     Edge 56, Type (0, 0), BuildingBlock: TEMPAE_clean_linker_10, # of connection points: 2
#     Edge 57, Type (0, 0), BuildingBlock: TEMPAE_clean_linker_10, # of connection points: 2
#     Edge 58, Type (0, 0), BuildingBlock: TEMPAE_clean_linker_10, # of connection points: 2
#     Edge 59, Type (0, 0), BuildingBlock: TEMPAE_clean_linker_10, # of connection points: 2
#     Edge 60, Type (0, 0), BuildingBlock: TEMPAE_clean_linker_10, # of connection points: 2
#     Edge 61, Type (0, 0), BuildingBlock: TEMPAE_clean_linker_10, # of connection points: 2
#     Edge 62, Type (0, 0), BuildingBlock: TEMPAE_clean_linker_10, # of connection points: 2
#     Edge 63, Type (0, 0), BuildingBlock: TEMPAE_clean_linker_10, # of connection points: 2
#     Edge 64, Type (0, 0), BuildingBlock: TEMPAE_clean_linker_10, # of connection points: 2
#     Edge 65, Type (0, 0), BuildingBlock: TEMPAE_clean_linker_10, # of connection points: 2
#     Edge 66, Type (0, 0), BuildingBlock: TEMPAE_clean_linker_10, # of connection points: 2
#     Edge 67, Type (0, 0), BuildingBlock: TEMPAE_clean_linker_10, # of connection points: 2
#     Edge 68, Type (0, 0), BuildingBlock: TEMPAE_clean_linker_10, # of connection points: 2
#     Edge 69, Type (0, 0), BuildingBlock: TEMPAE_clean_linker_10, # of connection points: 2
#     Edge 70, Type (0, 0), BuildingBlock: TEMPAE_clean_linker_10, # of connection points: 2
#     Edge 71, Type (0, 0), BuildingBlock: TEMPAE_clean_linker_10, # of connection points: 2
#     Edge 72, Type (0, 0), BuildingBlock: TEMPAE_clean_linker_10, # of connection points: 2
#     Edge 73, Type (0, 0), BuildingBlock: TEMPAE_clean_linker_10, # of connection points: 2
#     Edge 74, Type (0, 0), BuildingBlock: TEMPAE_clean_linker_10, # of connection points: 2
#     Edge 75, Type (0, 0), BuildingBlock: TEMPAE_clean_linker_10, # of connection points: 2
#     Edge 76, Type (0, 0), BuildingBlock: TEMPAE_clean_linker_10, # of connection points: 2
#     Edge 77, Type (0, 0), BuildingBlock: TEMPAE_clean_linker_10, # of connection points: 2
#     Edge 78, Type (0, 0), BuildingBlock: TEMPAE_clean_linker_10, # of connection points: 2
#     Edge 79, Type (0, 0), BuildingBlock: TEMPAE_clean_linker_10, # of connection points: 2
#     Edge 80, Type (0, 0), BuildingBlock: TEMPAE_clean_linker_10, # of connection points: 2
#     Edge 81, Type (0, 0), BuildingBlock: TEMPAE_clean_linker_10, # of connection points: 2
#     Edge 82, Type (0, 0), BuildingBlock: TEMPAE_clean_linker_10, # of connection points: 2
#     Edge 83, Type (0, 0), BuildingBlock: TEMPAE_clean_linker_10, # of connection points: 2
#     Edge 84, Type (0, 0), BuildingBlock: TEMPAE_clean_linker_10, # of connection points: 2
#     Edge 85, Type (0, 0), BuildingBlock: TEMPAE_clean_linker_10, # of connection points: 2
#     Edge 86, Type (0, 0), BuildingBlock: TEMPAE_clean_linker_10, # of connection points: 2
#     Edge 87, Type (0, 0), BuildingBlock: TEMPAE_clean_linker_10, # of connection points: 2
#     Edge 88, Type (0, 0), BuildingBlock: TEMPAE_clean_linker_10, # of connection points: 2
#     Edge 89, Type (0, 0), BuildingBlock: TEMPAE_clean_linker_10, # of connection points: 2
#     Edge 90, Type (0, 0), BuildingBlock: TEMPAE_clean_linker_10, # of connection points: 2
#     Edge 91, Type (0, 0), BuildingBlock: TEMPAE_clean_linker_10, # of connection points: 2
#     Edge 92, Type (0, 0), BuildingBlock: TEMPAE_clean_linker_10, # of connection points: 2
#     Edge 93, Type (0, 0), BuildingBlock: TEMPAE_clean_linker_10, # of connection points: 2
#     Edge 94, Type (0, 0), BuildingBlock: TEMPAE_clean_linker_10, # of connection points: 2
#     Edge 95, Type (0, 0), BuildingBlock: TEMPAE_clean_linker_10, # of connection points: 2
# Relax obj value: 0.072
# Max RMSD: 0.229
# Mean RMSD: 0.229
data_MOF--net-vbb--node1-QUQFOY_clean_sbu_1--edge1-TEMPAE_clean_linker_10
_symmetry_space_group_name_H-M    P1
_symmetry_Int_Tables_number       1
_symmetry_cell_setting            triclinic
loop_
_symmetry_equiv_pos_as_xyz
'x, y, z'
_cell_length_a     44.831929
_cell_length_b     39.012486
_cell_length_c     110.36168
_cell_angle_alpha  89.926286
_cell_angle_beta   89.984407
_cell_angle_gamma 89.949712
loop_
_atom_site_label
_atom_site_type_symbol
_atom_site_fract_x
_atom_site_fract_y
_atom_site_fract_z
_atom_type_partial_charge
O0 O 0.50213 0.99802 0.0701 0.0
Cd1 Cd 0.49806 0.9955 0.08888 0.0
Cd2 Cd 0.49058 0.06173 0.08476 0.0
O3 O 0.48216 0.04899 0.06684 0.0
O4 O 0.48627 0.9467 0.09271 0.0
O5 O 0.45627 0.99101 0.09538 0.0
C6 C 0.46028 0.95832 0.09566 0.0
C7 C 0.46398 0.08851 0.10014 0.0
C8 C 0.49263 0.02083 0.06278 0.0
C9 C 0.54632 0.04255 0.09662 0.0
O10 O 0.53457 0.06255 0.08895 0.0
O11 O 0.53341 0.01461 0.09956 0.0
O12 O 0.47548 0.10633 0.09141 0.0
O13 O 0.46428 0.05556 0.09919 0.0
O14 O 0.7348 0.25772 0.073 0.0
Cd15 Cd 0.74563 0.25873 0.09123 0.0
Cd16 Cd 0.7608 0.19732 0.08613 0.0
O17 O 0.76804 0.21767 0.06877 0.0
O18 O 0.75817 0.30597 0.097 0.0
O19 O 0.78986 0.26397 0.09313 0.0
C20 C 0.78546 0.29542 0.09618 0.0
C21 C 0.78843 0.17168 0.10158 0.0
C22 C 0.74977 0.24079 0.06521 0.0
C23 C 0.70562 0.20352 0.09881 0.0
O24 O 0.71709 0.18897 0.08969 0.0
O25 O 0.71708 0.23107 0.10292 0.0
O26 O 0.78088 0.15425 0.09208 0.0
O27 O 0.78371 0.20427 0.10148 0.0
O28 O 0.52529 0.2696 0.21026 0.0
Cd29 Cd 0.51265 0.26746 0.19221 0.0
Cd30 Cd 0.50033 0.20591 0.19872 0.0
O31 O 0.49399 0.22865 0.21568 0.0
O32 O 0.49811 0.31306 0.18554 0.0
O33 O 0.46815 0.27099 0.19114 0.0
C34 C 0.47128 0.30177 0.18713 0.0
C35 C 0.47067 0.17835 0.18437 0.0
C36 C 0.51156 0.25314 0.21855 0.0
C37 C 0.55334 0.21251 0.18471 0.0
O38 O 0.54387 0.19891 0.19439 0.0
O39 O 0.54013 0.23876 0.18037 0.0
O40 O 0.48006 0.16186 0.19383 0.0
O41 O 0.47529 0.21088 0.18387 0.0
O42 O 0.73133 0.98466 0.21201 0.0
Cd43 Cd 0.74397 0.98662 0.19389 0.0
Cd44 Cd 0.75398 0.04833 0.20028 0.0
O45 O 0.7611 0.02701 0.21742 0.0
O46 O 0.759 0.94089 0.18757 0.0
O47 O 0.78853 0.98395 0.19248 0.0
C48 C 0.78573 0.9528 0.18883 0.0
C49 C 0.78189 0.07692 0.18554 0.0
C50 C 0.74414 1.00196 0.22031 0.0
C51 C 0.70114 0.03907 0.18646 0.0
O52 O 0.71004 0.0526 0.19622 0.0
O53 O 0.71561 0.01399 0.18195 0.0
O54 O 0.77195 0.0933 0.19491 0.0
O55 O 0.77894 0.04409 0.18533 0.0
O56 O 0.49943 0.98814 0.96603 0.0
Cd57 Cd 0.50709 0.98961 0.94795 0.0
Cd58 Cd 0.53704 0.93521 0.95108 0.0
O59 O 0.54185 0.96001 0.96823 0.0
O60 O 0.51308 0.03743 0.94095 0.0
O61 O 0.55007 1.00327 0.94649 0.0
C62 C 0.54141 0.03263 0.94251 0.0
C63 C 0.56392 0.92731 0.93294 0.0
C64 C 0.52005 0.97687 0.97286 0.0
C65 C 0.47842 0.92247 0.9422 0.0
O66 O 0.49753 0.91051 0.94959 0.0
O67 O 0.4811 0.95331 0.93836 0.0
O68 O 0.57032 0.9091 0.94242 0.0
O69 O 0.54477 0.95163 0.93419 0.0
O70 O 0.23356 0.75392 0.96927 0.0
Cd71 Cd 0.23643 0.74999 0.95071 0.0
Cd72 Cd 0.21967 0.81631 0.95281 0.0
O73 O 0.20755 0.80199 0.97048 0.0
O74 O 0.23085 0.69947 0.94702 0.0
O75 O 0.19777 0.73924 0.94232 0.0
C76 C 0.20484 0.70732 0.9428 0.0
C77 C 0.19501 0.83176 0.9349 0.0
C78 C 0.2194 0.77583 0.97556 0.0
C79 C 0.28223 0.80392 0.94577 0.0
O80 O 0.26426 0.82378 0.95125 0.0
O81 O 0.27422 0.77358 0.94282 0.0
O82 O 0.19733 0.85372 0.94364 0.0
O83 O 0.20381 0.80087 0.93695 0.0
O84 O 0.52364 0.76804 0.81637 0.0
Cd85 Cd 0.521 0.76483 0.83496 0.0
Cd86 Cd 0.54442 0.82996 0.83213 0.0
O87 O 0.55105 0.81483 0.81411 0.0
O88 O 0.52297 0.7139 0.83866 0.0
O89 O 0.55851 0.75048 0.84349 0.0
C90 C 0.5494 0.71929 0.84293 0.0
C91 C 0.5753 0.84382 0.84848 0.0
C92 C 0.53764 0.78891 0.80959 0.0
C93 C 0.48148 0.82443 0.8412 0.0
O94 O 0.50138 0.84235 0.83599 0.0
O95 O 0.48564 0.79235 0.84299 0.0
O96 O 0.57072 0.86611 0.83997 0.0
O97 O 0.56541 0.81323 0.84678 0.0
O98 O 0.23538 0.99271 0.81531 0.0
Cd99 Cd 0.23789 0.99473 0.83392 0.0
Cd100 Cd 0.21975 0.92937 0.83093 0.0
O101 O 0.20772 0.94609 0.81352 0.0
O102 O 0.2346 0.04525 0.83803 0.0
O103 O 0.19939 0.00751 0.84215 0.0
C104 C 0.20802 0.03893 0.84197 0.0
C105 C 0.19533 0.91523 0.84901 0.0
C106 C 0.22044 0.97217 0.80877 0.0
C107 C 0.28204 0.93827 0.83825 0.0
O108 O 0.26409 0.91981 0.83221 0.0
O109 O 0.27445 0.96834 0.84174 0.0
O110 O 0.19602 0.89333 0.8402 0.0
O111 O 0.2056 0.94548 0.84696 0.0
O112 O 0.51346 0.49305 0.57146 0.0
Cd113 Cd 0.50493 0.49735 0.58959 0.0
Cd114 Cd 0.48717 0.55743 0.584 0.0
O115 O 0.47939 0.53233 0.56737 0.0
O116 O 0.49204 0.45252 0.5974 0.0
O117 O 0.46057 0.49263 0.59129 0.0
C118 C 0.4648 0.46252 0.59575 0.0
C119 C 0.46153 0.57673 0.60124 0.0
C120 C 0.49706 0.50855 0.5638 0.0
C121 C 0.54443 0.55732 0.59441 0.0
O122 O 0.53043 0.57064 0.58559 0.0
O123 O 0.53468 0.52978 0.59932 0.0
O124 O 0.46035 0.59432 0.59128 0.0
O125 O 0.47424 0.54719 0.60093 0.0
O126 O 0.73618 0.76645 0.57535 0.0
Cd127 Cd 0.74666 0.76929 0.59347 0.0
Cd128 Cd 0.77095 0.70818 0.58879 0.0
O129 O 0.77066 0.72767 0.57089 0.0
O130 O 0.75985 0.81656 0.5991 0.0
O131 O 0.79056 0.77364 0.5952 0.0
C132 C 0.78689 0.80522 0.59819 0.0
C133 C 0.8055 0.68167 0.60168 0.0
C134 C 0.75093 0.7495 0.56751 0.0
C135 C 0.7142 0.7093 0.60268 0.0
O136 O 0.73017 0.69381 0.59495 0.0
O137 O 0.71892 0.74081 0.60503 0.0
O138 O 0.79459 0.66534 0.5925 0.0
O139 O 0.80028 0.71404 0.60241 0.0
O140 O 0.50838 0.76077 0.71325 0.0
Cd141 Cd 0.50067 0.76166 0.6949 0.0
Cd142 Cd 0.48248 0.69902 0.7004 0.0
O143 O 0.47513 0.72089 0.71759 0.0
O144 O 0.4938 0.81102 0.6896 0.0
O145 O 0.45824 0.7719 0.69027 0.0
C146 C 0.466 0.80308 0.68826 0.0
C147 C 0.45435 0.68044 0.68378 0.0
C148 C 0.49332 0.74415 0.72106 0.0
C149 C 0.54007 0.70328 0.68878 0.0
O150 O 0.52611 0.68824 0.69726 0.0
O151 O 0.53076 0.73192 0.68459 0.0
O152 O 0.45728 0.66072 0.69317 0.0
O153 O 0.46427 0.71127 0.68463 0.0
O154 O 0.74306 0.49575 0.71214 0.0
Cd155 Cd 0.74895 0.4941 0.6936 0.0
Cd156 Cd 0.76645 0.56018 0.69741 0.0
O157 O 0.76683 0.54456 0.71569 0.0
O158 O 0.76228 0.44693 0.68805 0.0
O159 O 0.79204 0.49192 0.68924 0.0
C160 C 0.78881 0.45967 0.68717 0.0
C161 C 0.80032 0.58802 0.68462 0.0
C162 C 0.75342 0.51771 0.71957 0.0
C163 C 0.70895 0.54883 0.68417 0.0
O164 O 0.72508 0.56852 0.6905 0.0
O165 O 0.71543 0.51716 0.68306 0.0
O166 O 0.7867 0.6047 0.6931 0.0
O167 O 0.79796 0.55513 0.6846 0.0
O168 O 0.50885 0.48239 0.46884 0.0
Cd169 Cd 0.50801 0.49186 0.45065 0.0
Cd170 Cd 0.53805 0.43075 0.45059 0.0
O171 O 0.54595 0.44486 0.46883 0.0
O172 O 0.5094 0.54349 0.448 0.0
O173 O 0.5465 0.50835 0.44367 0.0
C174 C 0.53653 0.53918 0.4443 0.0
C175 C 0.56873 0.42145 0.43369 0.0
C176 C 0.52775 0.46429 0.47455 0.0
C177 C 0.47443 0.43048 0.44229 0.0
O178 O 0.4958 0.4135 0.44694 0.0
O179 O 0.47581 0.46313 0.44142 0.0
O180 O 0.56729 0.39857 0.44217 0.0
O181 O 0.55561 0.45028 0.43557 0.0
O182 O 0.23235 0.26203 0.46722 0.0
Cd183 Cd 0.23592 0.25368 0.44884 0.0
Cd184 Cd 0.22442 0.32172 0.44886 0.0
O185 O 0.21613 0.31561 0.46744 0.0
O186 O 0.22621 0.20369 0.44671 0.0
O187 O 0.19776 0.24547 0.43969 0.0
C188 C 0.2017 0.21313 0.44153 0.0
C189 C 0.19621 0.34409 0.43288 0.0
C190 C 0.22333 0.28816 0.47305 0.0
C191 C 0.28562 0.29914 0.44104 0.0
O192 O 0.26866 0.32314 0.44457 0.0
O193 O 0.27671 0.26809 0.44104 0.0
O194 O 0.20839 0.36412 0.44079 0.0
O195 O 0.19702 0.31153 0.43492 0.0
O196 O 0.5302 0.27794 0.31343 0.0
Cd197 Cd 0.52353 0.27339 0.33183 0.0
Cd198 Cd 0.54882 0.33822 0.33058 0.0
O199 O 0.55885 0.32414 0.31273 0.0
O200 O 0.52251 0.22206 0.335 0.0
O201 O 0.55872 0.25587 0.34125 0.0
C202 C 0.54832 0.22537 0.34008 0.0
C203 C 0.57702 0.34733 0.34806 0.0
C204 C 0.54613 0.29896 0.30746 0.0
C205 C 0.48454 0.33453 0.33767 0.0
O206 O 0.50559 0.35243 0.33325 0.0
O207 O 0.48777 0.30215 0.33911 0.0
O208 O 0.57575 0.37094 0.33982 0.0
O209 O 0.56524 0.31807 0.3456 0.0
O210 O 0.2322 0.4941 0.31302 0.0
Cd211 Cd 0.23592 0.49832 0.33167 0.0
Cd212 Cd 0.22179 0.43184 0.32921 0.0
O213 O 0.21073 0.4433 0.31131 0.0
O214 O 0.22924 0.54868 0.33497 0.0
O215 O 0.19807 0.50825 0.34089 0.0
C216 C 0.20405 0.54041 0.33984 0.0
C217 C 0.19494 0.41027 0.34572 0.0
C218 C 0.22044 0.47089 0.30648 0.0
C219 C 0.28427 0.44828 0.33661 0.0
O220 O 0.26666 0.4273 0.33156 0.0
O221 O 0.27561 0.47859 0.33922 0.0
O222 O 0.2043 0.39 0.33726 0.0
O223 O 0.19817 0.44281 0.34412 0.0
O224 O 0.01331 1.00129 0.5725 0.0
Cd225 Cd 0.00488 0.99824 0.5908 0.0
Cd226 Cd 0.97929 0.05978 0.58665 0.0
O227 O 0.97878 0.04063 0.56869 0.0
O228 O 0.99245 0.95085 0.59665 0.0
O229 O 0.9613 0.99381 0.59343 0.0
C230 C 0.96533 0.96219 0.59631 0.0
C231 C 0.94413 0.08569 0.59946 0.0
C232 C 0.99791 0.01858 0.56495 0.0
C233 C 0.03733 0.05847 0.60001 0.0
O234 O 0.02013 0.07449 0.59285 0.0
O235 O 0.03362 0.02653 0.60193 0.0
O236 O 0.9553 0.10237 0.5904 0.0
O237 O 0.94962 0.05338 0.60016 0.0
O238 O 0.24337 0.26573 0.57057 0.0
Cd239 Cd 0.25217 0.26341 0.58893 0.0
Cd240 Cd 0.26751 0.20246 0.58283 0.0
O241 O 0.2761 0.22546 0.56596 0.0
O242 O 0.26428 0.30957 0.59588 0.0
O243 O 0.29612 0.26811 0.59155 0.0
C244 C 0.29159 0.29899 0.59519 0.0
C245 C 0.29477 0.17598 0.59837 0.0
C246 C 0.25855 0.24963 0.56264 0.0
C247 C 0.21029 0.20803 0.59434 0.0
O248 O 0.22332 0.19445 0.58537 0.0
O249 O 0.22165 0.2344 0.59938 0.0
O250 O 0.28788 0.15908 0.58867 0.0
O251 O 0.28888 0.20826 0.59863 0.0
O252 O 0.01374 0.25822 0.70935 0.0
Cd253 Cd 0.00401 0.26147 0.69118 0.0
Cd254 Cd 0.97803 0.20127 0.69559 0.0
O255 O 0.97793 0.22082 0.71347 0.0
O256 O 0.99268 0.30939 0.68546 0.0
O257 O 0.9603 0.2681 0.68929 0.0
C258 C 0.96523 0.29946 0.68631 0.0
C259 C 0.94287 0.17701 0.68247 0.0
C260 C 0.99802 0.24189 0.71705 0.0
C261 C 0.03522 0.20017 0.68207 0.0
O262 O 0.01858 0.18502 0.68966 0.0
O263 O 0.03136 0.23192 0.67978 0.0
O264 O 0.9528 0.15989 0.69167 0.0
O265 O 0.94955 0.20903 0.68178 0.0
O266 O 0.24394 0.99945 0.71212 0.0
Cd267 Cd 0.25063 0.99698 0.69359 0.0
Cd268 Cd 0.26587 0.06008 0.69833 0.0
O269 O 0.27436 0.04256 0.71598 0.0
O270 O 0.26081 0.94779 0.68941 0.0
O271 O 0.29296 0.99055 0.68816 0.0
C272 C 0.28766 0.95825 0.68728 0.0
C273 C 0.2936 0.08622 0.68289 0.0
C274 C 0.25779 0.01808 0.71973 0.0
C275 C 0.20714 0.04919 0.68709 0.0
O276 O 0.22145 0.06595 0.69502 0.0
O277 O 0.21754 0.02097 0.68305 0.0
O278 O 0.2842 0.10398 0.69203 0.0
O279 O 0.2902 0.05347 0.68329 0.0
O280 O 0.01344 0.99574 0.46922 0.0
Cd281 Cd 0.00736 0.99863 0.45076 0.0
Cd282 Cd 0.03266 0.93437 0.45264 0.0
O283 O 0.04311 0.95043 0.47032 0.0
O284 O 0.0076 0.04956 0.44683 0.0
O285 O 0.04328 0.01384 0.44135 0.0
C286 C 0.03353 0.04478 0.44198 0.0
C287 C 0.05981 0.92175 0.43506 0.0
C288 C 0.02979 0.97561 0.4754 0.0
C289 C 0.96825 0.93739 0.4459 0.0
O290 O 0.98932 0.92012 0.45063 0.0
O291 O 0.97161 0.96944 0.44376 0.0
O292 O 0.05888 0.89972 0.44383 0.0
O293 O 0.04835 0.95152 0.43696 0.0
O294 O 0.72174 0.76792 0.47229 0.0
Cd295 Cd 0.725 0.76469 0.45374 0.0
Cd296 Cd 0.7057 0.83026 0.45613 0.0
O297 O 0.69391 0.81459 0.47369 0.0
O298 O 0.72234 0.7138 0.45 0.0
O299 O 0.68701 0.75089 0.44532 0.0
C300 C 0.6959 0.71958 0.4458 0.0
C301 C 0.6808 0.84275 0.438 0.0
C302 C 0.70669 0.78886 0.47865 0.0
C303 C 0.76862 0.8217 0.44921 0.0
O304 O 0.74993 0.84042 0.45479 0.0
O305 O 0.76177 0.7911 0.44606 0.0
O306 O 0.68139 0.86531 0.4466 0.0
O307 O 0.69155 0.81284 0.4403 0.0
O308 O 0.01638 0.76378 0.31549 0.0
Cd309 Cd 0.01188 0.76034 0.334 0.0
Cd310 Cd 0.03419 0.82481 0.33188 0.0
O311 O 0.04551 0.80939 0.31427 0.0
O312 O 0.01305 0.70927 0.33754 0.0
O313 O 0.04871 0.74507 0.34292 0.0
C314 C 0.03927 0.71404 0.34211 0.0
C315 C 0.06015 0.83779 0.34968 0.0
C316 C 0.03217 0.78423 0.30922 0.0
C317 C 0.97022 0.81918 0.33844 0.0
O318 O 0.99031 0.83716 0.33338 0.0
O319 O 0.97534 0.78786 0.34126 0.0
O320 O 0.05924 0.8599 0.34093 0.0
O321 O 0.04919 0.80782 0.34769 0.0
O322 O 0.72002 0.9833 0.31491 0.0
Cd323 Cd 0.72615 0.98888 0.33328 0.0
Cd324 Cd 0.70294 0.92438 0.33266 0.0
O325 O 0.69077 0.93762 0.31488 0.0
O326 O 0.726 0.04028 0.33611 0.0
O327 O 0.69014 0.00583 0.34234 0.0
C328 C 0.70002 0.03654 0.34102 0.0
C329 C 0.67789 0.9146 0.35096 0.0
C330 C 0.70365 0.96212 0.30924 0.0
C331 C 0.76735 0.92979 0.33847 0.0
O332 O 0.74669 0.91138 0.33404 0.0
O333 O 0.76284 0.96166 0.34059 0.0
O334 O 0.67797 0.89119 0.34265 0.0
O335 O 0.68911 0.944 0.34826 0.0
O336 O 0.00204 0.49869 0.06879 0.0
Cd337 Cd 0.99406 0.50151 0.08703 0.0
Cd338 Cd 0.97584 0.5626 0.08182 0.0
O339 O 0.96876 0.53904 0.06485 0.0
O340 O 0.98334 0.45528 0.09444 0.0
O341 O 0.94999 0.4943 0.0892 0.0
C342 C 0.95564 0.46404 0.09325 0.0
C343 C 0.94939 0.57964 0.0992 0.0
C344 C 0.98618 0.51514 0.06118 0.0
C345 C 0.03355 0.5615 0.09226 0.0
O346 O 0.01901 0.57576 0.08379 0.0
O347 O 0.02424 0.53332 0.09687 0.0
O348 O 0.9489 0.59868 0.08957 0.0
O349 O 0.96189 0.55004 0.09838 0.0
O350 O 0.24003 0.76083 0.07253 0.0
Cd351 Cd 0.24416 0.76654 0.091 0.0
Cd352 Cd 0.27166 0.70542 0.08811 0.0
O353 O 0.2735 0.7199 0.06969 0.0
O354 O 0.25254 0.81635 0.09471 0.0
O355 O 0.28524 0.77448 0.0973 0.0
C356 C 0.27928 0.80677 0.09754 0.0
C357 C 0.30676 0.68035 0.10116 0.0
C358 C 0.2552 0.74201 0.06542 0.0
C359 C 0.21026 0.70813 0.10008 0.0
O360 O 0.23021 0.69167 0.09434 0.0
O361 O 0.21207 0.74059 0.10115 0.0
O362 O 0.29474 0.66283 0.09252 0.0
O363 O 0.30212 0.71293 0.10128 0.0
O364 O 0.014 0.75751 0.2121 0.0
Cd365 Cd 0.00294 0.75638 0.19422 0.0
Cd366 Cd 0.98025 0.69883 0.19919 0.0
O367 O 0.97517 0.72458 0.21608 0.0
O368 O 0.99031 0.80223 0.18693 0.0
O369 O 0.95855 0.76373 0.19394 0.0
C370 C 0.96306 0.79359 0.18934 0.0
C371 C 0.95333 0.68388 0.18161 0.0
C372 C 0.99614 0.74438 0.21977 0.0
C373 C 0.03765 0.69342 0.18876 0.0
O374 O 0.02228 0.681 0.19737 0.0
O375 O 0.03008 0.7221 0.18401 0.0
O376 O 0.95048 0.66579 0.19141 0.0
O377 O 0.96847 0.71178 0.1823 0.0
O378 O 0.24381 0.49584 0.20947 0.0
Cd379 Cd 0.2525 0.49381 0.19117 0.0
Cd380 Cd 0.27678 0.55515 0.19587 0.0
O381 O 0.27763 0.53546 0.2137 0.0
O382 O 0.26537 0.44662 0.18539 0.0
O383 O 0.2961 0.49005 0.18837 0.0
C384 C 0.29237 0.45827 0.18567 0.0
C385 C 0.31122 0.58351 0.1834 0.0
C386 C 0.2587 0.51294 0.21722 0.0
C387 C 0.21855 0.5533 0.18253 0.0
O388 O 0.23548 0.56895 0.18988 0.0
O389 O 0.22312 0.52175 0.18017 0.0
O390 O 0.29937 0.59893 0.19258 0.0
O391 O 0.30686 0.55103 0.18239 0.0
O392 O 0.00162 0.4883 0.96562 0.0
Cd393 Cd 0.00407 0.49517 0.94732 0.0
Cd394 Cd 0.03151 0.43518 0.94881 0.0
O395 O 0.04038 0.45336 0.96658 0.0
O396 O 0.00799 0.54601 0.94345 0.0
O397 O 0.0448 0.50864 0.94174 0.0
C398 C 0.03572 0.53981 0.94103 0.0
C399 C 0.05889 0.42287 0.93117 0.0
C400 C 0.02091 0.47224 0.97184 0.0
C401 C 0.96919 0.4338 0.94053 0.0
O402 O 0.98892 0.41814 0.94671 0.0
O403 O 0.97291 0.46537 0.93776 0.0
O404 O 0.05999 0.40208 0.94032 0.0
O405 O 0.04507 0.45146 0.93263 0.0
O406 O 0.73028 0.26226 0.96931 0.0
Cd407 Cd 0.72884 0.2613 0.95074 0.0
Cd408 Cd 0.70977 0.32463 0.9535 0.0
O409 O 0.69901 0.30597 0.97089 0.0
O410 O 0.72246 0.21271 0.94465 0.0
O411 O 0.68677 0.25167 0.94562 0.0
C412 C 0.69459 0.22056 0.94342 0.0
C413 C 0.68519 0.33847 0.93535 0.0
C414 C 0.71386 0.28154 0.97578 0.0
C415 C 0.77083 0.31935 0.94561 0.0
O416 O 0.75344 0.33672 0.9523 0.0
O417 O 0.76299 0.2896 0.9419 0.0
O418 O 0.68427 0.35953 0.94442 0.0
O419 O 0.69734 0.30899 0.93712 0.0
O420 O 0.02165 0.26194 0.81276 0.0
Cd421 Cd 0.01727 0.25912 0.83133 0.0
Cd422 Cd 0.03858 0.32467 0.82872 0.0
O423 O 0.0491 0.30884 0.81109 0.0
O424 O 0.01903 0.20828 0.8353 0.0
O425 O 0.05417 0.24505 0.8404 0.0
C426 C 0.04504 0.21387 0.83993 0.0
C427 C 0.06555 0.33804 0.84623 0.0
C428 C 0.03652 0.28281 0.80628 0.0
C429 C 0.97516 0.31757 0.83612 0.0
O430 O 0.99463 0.33594 0.83084 0.0
O431 O 0.9808 0.28628 0.83878 0.0
O432 O 0.06354 0.36034 0.83756 0.0
O433 O 0.05516 0.30782 0.84424 0.0
O434 O 0.74141 0.49243 0.81593 0.0
Cd435 Cd 0.74017 0.49623 0.83435 0.0
Cd436 Cd 0.71276 0.43686 0.83186 0.0
O437 O 0.70258 0.4579 0.81458 0.0
O438 O 0.7383 0.54664 0.83906 0.0
O439 O 0.70022 0.51103 0.84062 0.0
C440 C 0.71051 0.5416 0.84169 0.0
C441 C 0.68758 0.42445 0.85007 0.0
C442 C 0.72185 0.47748 0.80952 0.0
C443 C 0.77545 0.43338 0.83919 0.0
O444 O 0.75534 0.41906 0.83284 0.0
O445 O 0.77173 0.46416 0.84292 0.0
O446 O 0.68456 0.40431 0.84083 0.0
O447 O 0.70215 0.45245 0.84846 0.0
C448 C 0.47293 0.13272 0.11597 0.0
C449 C 0.45637 0.10451 0.11192 0.0
C450 C 0.47146 0.14356 0.12809 0.0
C451 C 0.45215 0.12652 0.1363 0.0
C452 C 0.43394 0.09941 0.13205 0.0
C453 C 0.43668 0.08829 0.11997 0.0
C454 C 0.49201 0.17183 0.13228 0.0
C455 C 0.41246 0.08122 0.14039 0.0
C456 C 0.47585 0.13121 0.16938 0.0
C457 C 0.46043 0.16038 0.17334 0.0
C458 C 0.47256 0.11912 0.15745 0.0
C459 C 0.45259 0.13591 0.14943 0.0
C460 C 0.43527 0.16376 0.15373 0.0
C461 C 0.43984 0.17609 0.16555 0.0
C462 C 0.49215 0.09002 0.15318 0.0
C463 C 0.41317 0.18181 0.14561 0.0
H464 H 0.48869 0.14486 0.10987 0.0
H465 H 0.42402 0.06628 0.1169 0.0
H466 H 0.47904 0.19248 0.13674 0.0
H467 H 0.50792 0.16155 0.13908 0.0
H468 H 0.50499 0.18319 0.12469 0.0
H469 H 0.39733 0.06371 0.13539 0.0
H470 H 0.4251 0.06596 0.14715 0.0
H471 H 0.39879 0.10011 0.14546 0.0
H472 H 0.49233 0.11954 0.17528 0.0
H473 H 0.42813 0.19888 0.16856 0.0
H474 H 0.50744 0.09935 0.14598 0.0
H475 H 0.47835 0.06938 0.14917 0.0
H476 H 0.50578 0.07896 0.16063 0.0
H477 H 0.42533 0.19693 0.13867 0.0
H478 H 0.39846 0.19949 0.15077 0.0
H479 H 0.3991 0.16289 0.14076 0.0
C480 C 0.81253 0.08065 0.16664 0.0
C481 C 0.79097 0.09498 0.17432 0.0
C482 C 0.81687 0.09332 0.15482 0.0
C483 C 0.79831 0.11997 0.15039 0.0
C484 C 0.77699 0.13508 0.15826 0.0
C485 C 0.77397 0.12279 0.17019 0.0
C486 C 0.84039 0.07714 0.14689 0.0
C487 C 0.75597 0.16266 0.15384 0.0
C488 C 0.81427 0.17136 0.12169 0.0
C489 C 0.79624 0.15464 0.11316 0.0
C490 C 0.81659 0.15918 0.13367 0.0
C491 C 0.79952 0.13042 0.13734 0.0
C492 C 0.78193 0.11291 0.12865 0.0
C493 C 0.78094 0.12488 0.11662 0.0
C494 C 0.83624 0.17804 0.14253 0.0
C495 C 0.76262 0.08283 0.13221 0.0
H496 H 0.82545 0.05886 0.16977 0.0
H497 H 0.75672 0.1333 0.17599 0.0
H498 H 0.82954 0.06186 0.13966 0.0
H499 H 0.85399 0.09722 0.14238 0.0
H500 H 0.85546 0.05999 0.15211 0.0
H501 H 0.74127 0.17246 0.16117 0.0
H502 H 0.76874 0.18444 0.14999 0.0
H503 H 0.7417 0.15231 0.14649 0.0
H504 H 0.82586 0.1946 0.11907 0.0
H505 H 0.76637 0.11239 0.11015 0.0
H506 H 0.85043 0.15966 0.14762 0.0
H507 H 0.82218 0.19174 0.14923 0.0
H508 H 0.85085 0.19704 0.13794 0.0
H509 H 0.77645 0.06242 0.1364 0.0
H510 H 0.75048 0.07178 0.12436 0.0
H511 H 0.74602 0.09104 0.13909 0.0
C512 C 0.59884 0.88624 0.86285 0.0
C513 C 0.58601 0.85402 0.86071 0.0
C514 C 0.60286 0.89844 0.87477 0.0
C515 C 0.59257 0.87864 0.88472 0.0
C516 C 0.58158 0.84517 0.88261 0.0
C517 C 0.57901 0.83308 0.87068 0.0
C518 C 0.61638 0.93341 0.87666 0.0
C519 C 0.56973 0.82329 0.89283 0.0
C520 C 0.60069 0.90007 0.9184 0.0
C521 C 0.57405 0.91791 0.92056 0.0
C522 C 0.60829 0.88918 0.90659 0.0
C523 C 0.58803 0.89474 0.89689 0.0
C524 C 0.56136 0.9132 0.89907 0.0
C525 C 0.55508 0.92509 0.91077 0.0
C526 C 0.63756 0.87095 0.90463 0.0
C527 C 0.53846 0.91879 0.8892 0.0
H528 H 0.60466 0.90246 0.85523 0.0
H529 H 0.56915 0.80808 0.86918 0.0
H530 H 0.59843 0.95235 0.8784 0.0
H531 H 0.6314 0.9333 0.88466 0.0
H532 H 0.62917 0.942 0.86858 0.0
H533 H 0.56362 0.79709 0.88978 0.0
H534 H 0.58651 0.82106 0.90016 0.0
H535 H 0.54961 0.83561 0.89676 0.0
H536 H 0.61551 0.89457 0.92592 0.0
H537 H 0.53427 0.93855 0.91236 0.0
H538 H 0.64706 0.87695 0.89558 0.0
H539 H 0.634 0.84286 0.90515 0.0
H540 H 0.6541 0.87799 0.9117 0.0
H541 H 0.54851 0.93308 0.88154 0.0
H542 H 0.51869 0.9333 0.89245 0.0
H543 H 0.53079 0.89369 0.88565 0.0
C544 C 0.20375 0.92006 0.87119 0.0
C545 C 0.18786 0.905 0.86163 0.0
C546 C 0.20075 0.90826 0.88315 0.0
C547 C 0.18032 0.8816 0.88579 0.0
C548 C 0.16276 0.86772 0.87627 0.0
C549 C 0.16729 0.87897 0.86424 0.0
C550 C 0.2209 0.92293 0.89281 0.0
C551 C 0.13978 0.84038 0.87875 0.0
C552 C 0.20174 0.82576 0.91266 0.0
C553 C 0.1874 0.84228 0.92233 0.0
C554 C 0.19886 0.83767 0.90071 0.0
C555 C 0.18009 0.86603 0.89821 0.0
C556 C 0.16395 0.88145 0.90784 0.0
C557 C 0.16839 0.86997 0.91985 0.0
C558 C 0.21753 0.82123 0.8909 0.0
C559 C 0.14267 0.9107 0.90552 0.0
H560 H 0.21996 0.93992 0.86923 0.0
H561 H 0.15486 0.86734 0.8569 0.0
H562 H 0.20749 0.93315 0.90043 0.0
H563 H 0.23541 0.90237 0.89652 0.0
H564 H 0.23535 0.94383 0.8893 0.0
H565 H 0.12432 0.83698 0.87098 0.0
H566 H 0.15107 0.81557 0.8805 0.0
H567 H 0.12658 0.84687 0.88695 0.0
H568 H 0.21676 0.80459 0.91451 0.0
H569 H 0.15715 0.88273 0.92728 0.0
H570 H 0.23324 0.84041 0.88709 0.0
H571 H 0.20314 0.81233 0.88337 0.0
H572 H 0.23064 0.79904 0.8943 0.0
H573 H 0.15544 0.93446 0.90367 0.0
H574 H 0.12783 0.91544 0.91341 0.0
H575 H 0.12872 0.90536 0.89743 0.0
C576 C 0.47552 0.58881 0.62244 0.0
C577 C 0.45432 0.59187 0.61317 0.0
C578 C 0.47091 0.60366 0.63385 0.0
C579 C 0.44377 0.62096 0.63627 0.0
C580 C 0.4218 0.62331 0.62703 0.0
C581 C 0.42762 0.60937 0.61546 0.0
C582 C 0.49558 0.60166 0.64316 0.0
C583 C 0.39225 0.6406 0.62937 0.0
C584 C 0.43388 0.63387 0.67025 0.0
C585 C 0.445 0.6672 0.67172 0.0
C586 C 0.43071 0.61942 0.65861 0.0
C587 C 0.43977 0.63832 0.64825 0.0
C588 C 0.44936 0.67263 0.64967 0.0
C589 C 0.45136 0.68675 0.66133 0.0
C590 C 0.41936 0.58318 0.65746 0.0
C591 C 0.46019 0.69352 0.639 0.0
H592 H 0.49637 0.57564 0.62063 0.0
H593 H 0.41119 0.61161 0.6083 0.0
H594 H 0.50228 0.62786 0.64597 0.0
H595 H 0.48757 0.58809 0.65138 0.0
H596 H 0.51565 0.58811 0.6397 0.0
H597 H 0.37652 0.63745 0.62168 0.0
H598 H 0.38186 0.62991 0.63769 0.0
H599 H 0.39572 0.66837 0.63094 0.0
H600 H 0.42875 0.6186 0.67819 0.0
H601 H 0.46001 0.71254 0.6623 0.0
H602 H 0.43834 0.56567 0.65563 0.0
H603 H 0.40357 0.58103 0.64975 0.0
H604 H 0.40802 0.57443 0.66586 0.0
H605 H 0.48148 0.68258 0.63563 0.0
H606 H 0.46404 0.72079 0.64143 0.0
H607 H 0.44394 0.69252 0.63145 0.0
C608 C 0.79709 0.63491 0.66937 0.0
C609 C 0.81195 0.60571 0.67369 0.0
C610 C 0.80142 0.64668 0.65745 0.0
C611 C 0.82201 0.62964 0.64977 0.0
C612 C 0.83904 0.60202 0.65446 0.0
C613 C 0.83333 0.58989 0.66627 0.0
C614 C 0.78212 0.67559 0.6528 0.0
C615 C 0.86211 0.58406 0.6468 0.0
C616 C 0.8016 0.63351 0.61633 0.0
C617 C 0.81643 0.66331 0.61258 0.0
C618 C 0.80427 0.62135 0.62829 0.0
C619 C 0.82318 0.63863 0.63658 0.0
C620 C 0.84041 0.66678 0.63246 0.0
C621 C 0.8363 0.67928 0.6206 0.0
C622 C 0.78477 0.5919 0.6323 0.0
C623 C 0.86178 0.68505 0.6408 0.0
H624 H 0.78014 0.64687 0.67496 0.0
H625 H 0.84479 0.5672 0.66953 0.0
H626 H 0.79612 0.69608 0.6488 0.0
H627 H 0.76726 0.66589 0.64553 0.0
H628 H 0.76805 0.68701 0.66004 0.0
H629 H 0.87715 0.56776 0.65236 0.0
H630 H 0.85083 0.56748 0.64006 0.0
H631 H 0.87577 0.60297 0.64172 0.0
H632 H 0.78572 0.62149 0.61027 0.0
H633 H 0.84765 0.70249 0.61776 0.0
H634 H 0.76827 0.6012 0.63905 0.0
H635 H 0.79836 0.57181 0.63678 0.0
H636 H 0.77248 0.58011 0.62463 0.0
H637 H 0.84907 0.7014 0.64719 0.0
H638 H 0.87752 0.70165 0.6357 0.0
H639 H 0.87476 0.66634 0.64625 0.0
C640 C 0.60112 0.38767 0.41924 0.0
C641 C 0.5798 0.41328 0.42135 0.0
C642 C 0.60815 0.37736 0.40731 0.0
C643 C 0.59224 0.39163 0.39739 0.0
C644 C 0.57143 0.41827 0.39953 0.0
C645 C 0.56604 0.42924 0.41142 0.0
C646 C 0.6317 0.35026 0.40542 0.0
C647 C 0.55301 0.43346 0.38938 0.0
C648 C 0.60581 0.38178 0.36349 0.0
C649 C 0.58621 0.35495 0.36069 0.0
C650 C 0.61047 0.39186 0.37561 0.0
C651 C 0.59387 0.37602 0.38503 0.0
C652 C 0.57506 0.34798 0.38224 0.0
C653 C 0.57205 0.33735 0.37018 0.0
C654 C 0.63211 0.42046 0.37826 0.0
C655 C 0.55606 0.33097 0.39183 0.0
H656 H 0.61198 0.37539 0.42687 0.0
H657 H 0.54934 0.44887 0.41297 0.0
H658 H 0.62093 0.32477 0.40466 0.0
H659 H 0.64442 0.35499 0.39696 0.0
H660 H 0.64753 0.34929 0.41316 0.0
H661 H 0.5379 0.45415 0.39257 0.0
H662 H 0.56772 0.44414 0.38225 0.0
H663 H 0.53926 0.4131 0.38513 0.0
H664 H 0.61702 0.3953 0.35621 0.0
H665 H 0.55671 0.3167 0.3681 0.0
H666 H 0.6444 0.41547 0.38682 0.0
H667 H 0.61975 0.44489 0.37935 0.0
H668 H 0.64845 0.42378 0.37078 0.0
H669 H 0.57021 0.32148 0.39935 0.0
H670 H 0.54301 0.30908 0.3882 0.0
H671 H 0.54026 0.34996 0.3957 0.0
C672 C 0.16632 0.41575 0.36517 0.0
C673 C 0.18579 0.39697 0.35776 0.0
C674 C 0.16207 0.40687 0.37744 0.0
C675 C 0.17881 0.37962 0.38256 0.0
C676 C 0.19764 0.35981 0.37496 0.0
C677 C 0.20042 0.36832 0.36263 0.0
C678 C 0.14071 0.42767 0.38502 0.0
C679 C 0.21665 0.33123 0.38004 0.0
C680 C 0.20265 0.38463 0.41562 0.0
C681 C 0.18697 0.35721 0.42081 0.0
C682 C 0.19952 0.3928 0.40328 0.0
C683 C 0.17928 0.37398 0.39599 0.0
C684 C 0.16166 0.34799 0.40143 0.0
C685 C 0.16623 0.33935 0.4137 0.0
C686 C 0.21948 0.41998 0.39786 0.0
C687 C 0.13886 0.32835 0.39418 0.0
H688 H 0.15498 0.43796 0.36146 0.0
H689 H 0.21587 0.35405 0.35699 0.0
H690 H 0.12709 0.41066 0.39089 0.0
H691 H 0.15343 0.44511 0.39103 0.0
H692 H 0.12554 0.44345 0.37933 0.0
H693 H 0.22929 0.31747 0.37288 0.0
H694 H 0.2328 0.34192 0.38666 0.0
H695 H 0.20261 0.31243 0.38496 0.0
H696 H 0.21906 0.39818 0.42101 0.0
H697 H 0.15409 0.31807 0.41765 0.0
H698 H 0.20594 0.43978 0.3932 0.0
H699 H 0.23431 0.40821 0.39097 0.0
H700 H 0.23357 0.43277 0.40479 0.0
H701 H 0.1256 0.34604 0.38842 0.0
H702 H 0.12342 0.31366 0.40011 0.0
H703 H 0.15033 0.31002 0.38808 0.0
C704 C 0.9115 0.08773 0.61787 0.0
C705 C 0.93244 0.10365 0.61028 0.0
C706 C 0.90625 0.09988 0.6297 0.0
C707 C 0.92346 0.12748 0.63425 0.0
C708 C 0.9436 0.14462 0.62639 0.0
C709 C 0.94734 0.13293 0.61444 0.0
C710 C 0.88356 0.08188 0.63754 0.0
C711 C 0.96318 0.1734 0.63089 0.0
C712 C 0.91126 0.17616 0.66375 0.0
C713 C 0.93136 0.15951 0.67153 0.0
C714 C 0.9064 0.16421 0.65188 0.0
C715 C 0.9232 0.13605 0.64747 0.0
C716 C 0.94248 0.11824 0.65551 0.0
C717 C 0.9458 0.12976 0.66749 0.0
C718 C 0.88459 0.18297 0.64384 0.0
C719 C 0.96164 0.08884 0.65117 0.0
H720 H 0.9001 0.06491 0.61473 0.0
H721 H 0.96404 0.14485 0.60871 0.0
H722 H 0.89516 0.06487 0.64408 0.0
H723 H 0.87037 0.10073 0.64284 0.0
H724 H 0.86806 0.06598 0.63207 0.0
H725 H 0.97686 0.18488 0.62354 0.0
H726 H 0.94943 0.19388 0.63504 0.0
H727 H 0.97843 0.16354 0.63801 0.0
H728 H 0.90024 0.19935 0.6668 0.0
H729 H 0.96188 0.11728 0.67337 0.0
H730 H 0.87128 0.16458 0.63841 0.0
H731 H 0.89694 0.19963 0.63742 0.0
H732 H 0.86915 0.19934 0.64918 0.0
H733 H 0.94765 0.0688 0.6469 0.0
H734 H 0.97466 0.07693 0.65864 0.0
H735 H 0.97748 0.0982 0.64418 0.0
C736 C 0.32362 0.17461 0.61777 0.0
C737 C 0.30381 0.1586 0.60974 0.0
C738 C 0.32731 0.16252 0.6297 0.0
C739 C 0.30967 0.1348 0.6339 0.0
C740 C 0.29037 0.11784 0.62566 0.0
C741 C 0.28812 0.12956 0.61363 0.0
C742 C 0.34902 0.18048 0.63798 0.0
C743 C 0.27038 0.08895 0.62979 0.0
C744 C 0.32262 0.08619 0.66348 0.0
C745 C 0.30263 0.10266 0.67133 0.0
C746 C 0.32665 0.09774 0.65148 0.0
C747 C 0.30925 0.12542 0.64707 0.0
C748 C 0.28969 0.14274 0.65511 0.0
C749 C 0.28707 0.13156 0.66719 0.0
C750 C 0.34862 0.0794 0.64341 0.0
C751 C 0.26996 0.17164 0.65075 0.0
H752 H 0.33558 0.19728 0.61481 0.0
H753 H 0.27226 0.11764 0.60754 0.0
H754 H 0.33658 0.19614 0.64468 0.0
H755 H 0.36248 0.1615 0.64311 0.0
H756 H 0.36433 0.19765 0.6329 0.0
H757 H 0.25762 0.07749 0.62218 0.0
H758 H 0.28369 0.0685 0.6342 0.0
H759 H 0.2543 0.0987 0.63662 0.0
H760 H 0.33454 0.06367 0.66662 0.0
H761 H 0.2711 0.1439 0.67314 0.0
H762 H 0.36256 0.09817 0.6384 0.0
H763 H 0.33641 0.06395 0.6366 0.0
H764 H 0.36347 0.06199 0.64862 0.0
H765 H 0.28362 0.19216 0.64657 0.0
H766 H 0.25653 0.18302 0.6582 0.0
H767 H 0.25451 0.16198 0.64368 0.0
C768 C 0.08904 0.87397 0.36461 0.0
C769 C 0.06855 0.8477 0.36222 0.0
C770 C 0.09399 0.88546 0.37657 0.0
C771 C 0.0769 0.87161 0.38624 0.0
C772 C 0.05675 0.84451 0.38384 0.0
C773 C 0.05337 0.83245 0.37195 0.0
C774 C 0.11678 0.91317 0.37878 0.0
C775 C 0.03713 0.82975 0.39369 0.0
C776 C 0.08833 0.88472 0.42023 0.0
C777 C 0.06864 0.91189 0.42255 0.0
C778 C 0.0933 0.87312 0.40828 0.0
C779 C 0.07703 0.88783 0.39854 0.0
C780 C 0.0578 0.9159 0.40085 0.0
C781 C 0.0544 0.92798 0.41274 0.0
C782 C 0.11515 0.84432 0.40616 0.0
C783 C 0.03907 0.93167 0.39092 0.0
H784 H 0.10096 0.88574 0.35714 0.0
H785 H 0.03725 0.81237 0.37017 0.0
H786 H 0.10532 0.93811 0.38005 0.0
H787 H 0.12971 0.90775 0.38715 0.0
H788 H 0.1325 0.91574 0.37106 0.0
H789 H 0.02292 0.80843 0.39036 0.0
H790 H 0.05093 0.82008 0.40129 0.0
H791 H 0.02241 0.85014 0.39736 0.0
H792 H 0.09954 0.87229 0.42775 0.0
H793 H 0.03891 0.94878 0.41444 0.0
H794 H 0.12859 0.84922 0.39789 0.0
H795 H 0.10285 0.82 0.40477 0.0
H796 H 0.13047 0.84086 0.41398 0.0
H797 H 0.05344 0.94056 0.38338 0.0
H798 H 0.02562 0.95375 0.39418 0.0
H799 H 0.02366 0.91209 0.38718 0.0
C800 C 0.6523 0.87794 0.42259 0.0
C801 C 0.67269 0.8518 0.42534 0.0
C802 C 0.64717 0.88801 0.41046 0.0
C803 C 0.66395 0.87279 0.40097 0.0
C804 C 0.68417 0.846 0.40375 0.0
C805 C 0.68778 0.83542 0.41582 0.0
C806 C 0.62441 0.91555 0.40786 0.0
C807 C 0.70347 0.82984 0.39408 0.0
C808 C 0.65046 0.88022 0.36688 0.0
C809 C 0.67002 0.90684 0.36377 0.0
C810 C 0.64625 0.87066 0.37911 0.0
C811 C 0.66312 0.88694 0.38834 0.0
C812 C 0.68223 0.91446 0.38522 0.0
C813 C 0.68493 0.92446 0.37304 0.0
C814 C 0.62459 0.84232 0.38209 0.0
C815 C 0.70158 0.93179 0.39459 0.0
H816 H 0.64047 0.89058 0.4299 0.0
H817 H 0.70384 0.81544 0.41786 0.0
H818 H 0.63593 0.93997 0.40574 0.0
H819 H 0.61072 0.90858 0.39986 0.0
H820 H 0.60939 0.91995 0.41572 0.0
H821 H 0.71793 0.80912 0.39773 0.0
H822 H 0.68939 0.81895 0.38679 0.0
H823 H 0.71792 0.84968 0.38989 0.0
H824 H 0.63875 0.86661 0.35978 0.0
H825 H 0.70033 0.94485 0.37072 0.0
H826 H 0.61135 0.8489 0.39027 0.0
H827 H 0.63703 0.8184 0.3841 0.0
H828 H 0.60908 0.83718 0.37446 0.0
H829 H 0.68774 0.94164 0.40214 0.0
H830 H 0.71459 0.95344 0.39074 0.0
H831 H 0.71743 0.91287 0.39849 0.0
C832 C 0.96025 0.6823 0.15929 0.0
C833 C 0.94421 0.67107 0.16948 0.0
C834 C 0.95595 0.66757 0.14784 0.0
C835 C 0.93415 0.6417 0.14633 0.0
C836 C 0.9164 0.6318 0.15641 0.0
C837 C 0.9221 0.64604 0.16794 0.0
C838 C 0.97628 0.67815 0.13756 0.0
C839 C 0.89212 0.60534 0.15509 0.0
C840 C 0.92204 0.62128 0.11285 0.0
C841 C 0.94071 0.59272 0.11136 0.0
C842 C 0.91748 0.63584 0.12442 0.0
C843 C 0.93299 0.62246 0.1346 0.0
C844 C 0.95098 0.59291 0.13316 0.0
C845 C 0.95412 0.57813 0.12165 0.0
C846 C 0.8971 0.66641 0.12565 0.0
C847 C 0.96889 0.57836 0.14357 0.0
H848 H 0.97762 0.70137 0.16037 0.0
H849 H 0.90954 0.63733 0.17575 0.0
H850 H 0.98994 0.65587 0.13466 0.0
H851 H 0.96298 0.68655 0.12963 0.0
H852 H 0.99158 0.69929 0.14015 0.0
H853 H 0.87662 0.60557 0.16295 0.0
H854 H 0.87916 0.60981 0.14667 0.0
H855 H 0.90222 0.57945 0.15445 0.0
H856 H 0.91147 0.63261 0.10498 0.0
H857 H 0.9688 0.55622 0.12062 0.0
H858 H 0.9106 0.69007 0.12652 0.0
H859 H 0.88317 0.66412 0.13393 0.0
H860 H 0.88225 0.66929 0.11765 0.0
H861 H 0.98569 0.59746 0.14655 0.0
H862 H 0.98072 0.55435 0.14108 0.0
H863 H 0.95421 0.57296 0.15142 0.0
C864 C 0.30683 0.6323 0.16907 0.0
C865 C 0.32238 0.60293 0.17279 0.0
C866 C 0.31001 0.64533 0.15725 0.0
C867 C 0.33023 0.6295 0.1491 0.0
C868 C 0.34823 0.602 0.15325 0.0
C869 C 0.34353 0.58845 0.16494 0.0
C870 C 0.28964 0.67398 0.15319 0.0
C871 C 0.37114 0.58548 0.14512 0.0
C872 C 0.3057 0.63273 0.11614 0.0
C873 C 0.31893 0.66323 0.11211 0.0
C874 C 0.31016 0.62074 0.12801 0.0
C875 C 0.3294 0.63887 0.13594 0.0
C876 C 0.34503 0.66789 0.13152 0.0
C877 C 0.33903 0.68026 0.11977 0.0
C878 C 0.29228 0.5903 0.13236 0.0
C879 C 0.36686 0.687 0.13941 0.0
H880 H 0.29003 0.64319 0.175 0.0
H881 H 0.3555 0.56563 0.16775 0.0
H882 H 0.30275 0.6951 0.14909 0.0
H883 H 0.27419 0.66429 0.14612 0.0
H884 H 0.27617 0.68457 0.16076 0.0
H885 H 0.38754 0.57017 0.15039 0.0
H886 H 0.35985 0.56811 0.13864 0.0
H887 H 0.38328 0.60515 0.13978 0.0
H888 H 0.28975 0.61977 0.11035 0.0
H889 H 0.34926 0.70392 0.11672 0.0
H890 H 0.27689 0.59848 0.13969 0.0
H891 H 0.30725 0.57045 0.1362 0.0
H892 H 0.2789 0.57851 0.12499 0.0
H893 H 0.35451 0.70334 0.14592 0.0
H894 H 0.38175 0.70377 0.13396 0.0
H895 H 0.38076 0.66886 0.14473 0.0
C896 C 0.09222 0.37653 0.86111 0.0
C897 C 0.07434 0.34784 0.85874 0.0
C898 C 0.09658 0.38817 0.87309 0.0
C899 C 0.08148 0.3718 0.88281 0.0
C900 C 0.06442 0.34201 0.88045 0.0
C901 C 0.06164 0.33005 0.86853 0.0
C902 C 0.11628 0.41887 0.87526 0.0
C903 C 0.04701 0.3243 0.89037 0.0
C904 C 0.09089 0.38836 0.91674 0.0
C905 C 0.06835 0.4126 0.9188 0.0
C906 C 0.09721 0.37675 0.90489 0.0
C907 C 0.07951 0.38831 0.89502 0.0
C908 C 0.05718 0.41331 0.8971 0.0
C909 C 0.05238 0.4256 0.90887 0.0
C910 C 0.12218 0.35137 0.90302 0.0
C911 C 0.0369 0.42552 0.88704 0.0
H912 H 0.10231 0.39025 0.85361 0.0
H913 H 0.04762 0.30796 0.86679 0.0
H914 H 0.10226 0.44198 0.87662 0.0
H915 H 0.1299 0.41522 0.88356 0.0
H916 H 0.1314 0.42373 0.86747 0.0
H917 H 0.03565 0.30075 0.88712 0.0
H918 H 0.06194 0.31723 0.89797 0.0
H919 H 0.02986 0.34207 0.89401 0.0
H920 H 0.10342 0.37835 0.92436 0.0
H921 H 0.0347 0.4441 0.91038 0.0
H922 H 0.13442 0.35686 0.89449 0.0
H923 H 0.11285 0.32514 0.90233 0.0
H924 H 0.13822 0.35172 0.91069 0.0
H925 H 0.0502 0.43665 0.87954 0.0
H926 H 0.02065 0.44513 0.89017 0.0
H927 H 0.02429 0.40348 0.88328 0.0
C928 C 0.65752 0.37632 0.92048 0.0
C929 C 0.677 0.34896 0.92282 0.0
C930 C 0.65289 0.38821 0.90853 0.0
C931 C 0.66916 0.37342 0.89881 0.0
C932 C 0.68814 0.34514 0.90114 0.0
C933 C 0.69134 0.33293 0.91303 0.0
C934 C 0.63144 0.41739 0.90638 0.0
C935 C 0.70682 0.32923 0.89123 0.0
C936 C 0.65777 0.38851 0.86488 0.0
C937 C 0.67891 0.4142 0.86258 0.0
C938 C 0.65251 0.37675 0.8768 0.0
C939 C 0.66974 0.3899 0.88654 0.0
C940 C 0.69046 0.4165 0.88425 0.0
C941 C 0.69431 0.42869 0.87239 0.0
C942 C 0.62928 0.34945 0.87891 0.0
C943 C 0.71013 0.4306 0.89418 0.0
H944 H 0.64622 0.3887 0.92797 0.0
H945 H 0.70664 0.31194 0.91474 0.0
H946 H 0.64409 0.44145 0.90489 0.0
H947 H 0.61785 0.41265 0.89814 0.0
H948 H 0.61626 0.42126 0.91422 0.0
H949 H 0.71971 0.30667 0.89446 0.0
H950 H 0.69248 0.32103 0.88358 0.0
H951 H 0.72274 0.34852 0.88764 0.0
H952 H 0.64564 0.37733 0.85737 0.0
H953 H 0.71087 0.44839 0.87073 0.0
H954 H 0.61603 0.35525 0.88716 0.0
H955 H 0.64037 0.32437 0.88036 0.0
H956 H 0.61389 0.34699 0.87107 0.0
H957 H 0.69636 0.44016 0.9018 0.0
H958 H 0.7246 0.45185 0.89096 0.0
H959 H 0.72461 0.40987 0.89779 0.0
C960 C 0.32703 0.82364 0.1076 0.0
C961 C 0.30348 0.8318 0.09975 0.0
C962 C 0.35228 0.84489 0.10849 0.0
C963 C 0.3546 0.8742 0.10095 0.0
C964 C 0.3305 0.88294 0.09321 0.0
C965 C 0.305 0.86196 0.09287 0.0
C966 C 0.37685 0.83535 0.11721 0.0
C967 C 0.33235 0.91331 0.08475 0.0
C968 C 0.41188 0.94502 0.10599 0.0
C969 C 0.43492 0.93503 0.09816 0.0
C970 C 0.38621 0.92467 0.10745 0.0
C971 C 0.38294 0.89437 0.1005 0.0
C972 C 0.40637 0.88403 0.09268 0.0
C973 C 0.43229 0.90416 0.09178 0.0
C974 C 0.36237 0.93592 0.11625 0.0
C975 C 0.40353 0.85252 0.08483 0.0
H976 H 0.3259 0.8003 0.11293 0.0
H977 H 0.28702 0.86804 0.08666 0.0
H978 H 0.39672 0.82656 0.11209 0.0
H979 H 0.38365 0.85802 0.1226 0.0
H980 H 0.36998 0.81456 0.12351 0.0
H981 H 0.31141 0.91721 0.07954 0.0
H982 H 0.33722 0.93702 0.0899 0.0
H983 H 0.35094 0.90946 0.07825 0.0
H984 H 0.41388 0.96888 0.11095 0.0
H985 H 0.44988 0.89661 0.08558 0.0
H986 H 0.35617 0.91435 0.12232 0.0
H987 H 0.342 0.94353 0.11122 0.0
H988 H 0.36967 0.95793 0.12189 0.0
H989 H 0.39966 0.82955 0.09054 0.0
H990 H 0.42369 0.84804 0.0792 0.0
H991 H 0.38397 0.85526 0.07874 0.0
C992 C 0.80925 0.34833 0.10495 0.0
C993 C 0.81117 0.31898 0.09767 0.0
C994 C 0.83334 0.3714 0.10579 0.0
C995 C 0.85947 0.36566 0.09882 0.0
C996 C 0.86154 0.33582 0.09157 0.0
C997 C 0.83762 0.31263 0.09125 0.0
C998 C 0.83061 0.40227 0.11394 0.0
C999 C 0.88843 0.32917 0.08366 0.0
C1000 C 0.90461 0.44286 0.08854 0.0
C1001 C 0.93081 0.43965 0.0954 0.0
C1002 C 0.88123 0.41919 0.08967 0.0
C1003 C 0.88353 0.39214 0.09819 0.0
C1004 C 0.90951 0.38946 0.10548 0.0
C1005 C 0.93313 0.41288 0.10383 0.0
C1006 C 0.85451 0.42245 0.08141 0.0
C1007 C 0.91242 0.36172 0.11494 0.0
H1008 H 0.78894 0.35321 0.10999 0.0
H1009 H 0.83916 0.29013 0.08553 0.0
H1010 H 0.85078 0.40475 0.1197 0.0
H1011 H 0.82898 0.42588 0.10837 0.0
H1012 H 0.81064 0.40081 0.11988 0.0
H1013 H 0.88693 0.30432 0.0788 0.0
H1014 H 0.89063 0.35001 0.07686 0.0
H1015 H 0.90907 0.32918 0.08919 0.0
H1016 H 0.9028 0.46332 0.08192 0.0
H1017 H 0.95327 0.41045 0.1092 0.0
H1018 H 0.83381 0.42499 0.08683 0.0
H1019 H 0.85228 0.39894 0.07583 0.0
H1020 H 0.85621 0.4449 0.07524 0.0
H1021 H 0.89242 0.3615 0.12087 0.0
H1022 H 0.93257 0.36513 0.12067 0.0
H1023 H 0.91373 0.33629 0.11049 0.0
C1024 C 0.4193 0.31842 0.19246 0.0
C1025 C 0.4447 0.32377 0.18529 0.0
C1026 C 0.39431 0.33995 0.19154 0.0
C1027 C 0.39421 0.36686 0.18291 0.0
C1028 C 0.41935 0.37152 0.17528 0.0
C1029 C 0.44457 0.35031 0.17672 0.0
C1030 C 0.36853 0.33474 0.20017 0.0
C1031 C 0.41973 0.39916 0.1657 0.0
C1032 C 0.31744 0.40594 0.17699 0.0
C1033 C 0.31869 0.4357 0.18407 0.0
C1034 C 0.3424 0.38411 0.176 0.0
C1035 C 0.36872 0.39157 0.18263 0.0
C1036 C 0.37001 0.42172 0.18973 0.0
C1037 C 0.34523 0.44365 0.19018 0.0
C1038 C 0.34049 0.35284 0.168 0.0
C1039 C 0.39713 0.43015 0.19729 0.0
H1040 H 0.41939 0.29808 0.19916 0.0
H1041 H 0.46408 0.35432 0.17109 0.0
H1042 H 0.36553 0.358 0.20582 0.0
H1043 H 0.34755 0.33084 0.19504 0.0
H1044 H 0.37197 0.31239 0.20626 0.0
H1045 H 0.43943 0.39702 0.15964 0.0
H1046 H 0.39917 0.39781 0.16012 0.0
H1047 H 0.4201 0.42474 0.17007 0.0
H1048 H 0.29703 0.39983 0.17219 0.0
H1049 H 0.34624 0.46647 0.19577 0.0
H1050 H 0.34079 0.32933 0.17366 0.0
H1051 H 0.36012 0.35164 0.16189 0.0
H1052 H 0.31986 0.3527 0.16243 0.0
H1053 H 0.4011 0.40938 0.20398 0.0
H1054 H 0.39465 0.45474 0.20225 0.0
H1055 H 0.41723 0.43178 0.19146 0.0
C1056 C 0.81158 0.90148 0.1798 0.0
C1057 C 0.81257 0.93108 0.18698 0.0
C1058 C 0.83674 0.88003 0.17867 0.0
C1059 C 0.86315 0.88778 0.18519 0.0
C1060 C 0.86434 0.91799 0.19227 0.0
C1061 C 0.83924 0.93946 0.19294 0.0
C1062 C 0.83481 0.84861 0.17075 0.0
C1063 C 0.89162 0.92679 0.19967 0.0
C1064 C 0.91237 0.81363 0.19519 0.0
C1065 C 0.93754 0.81742 0.18775 0.0
C1066 C 0.88809 0.8362 0.19437 0.0
C1067 C 0.88843 0.86279 0.18563 0.0
C1068 C 0.91345 0.86625 0.17784 0.0
C1069 C 0.93798 0.84385 0.17913 0.0
C1070 C 0.8624 0.83209 0.20312 0.0
C1071 C 0.9143 0.89365 0.16819 0.0
H1072 H 0.79112 0.89502 0.1751 0.0
H1073 H 0.84014 0.9622 0.19856 0.0
H1074 H 0.85453 0.84709 0.1647 0.0
H1075 H 0.83485 0.82525 0.17649 0.0
H1076 H 0.81427 0.8485 0.16512 0.0
H1077 H 0.88949 0.95199 0.20427 0.0
H1078 H 0.89527 0.90675 0.20667 0.0
H1079 H 0.91173 0.92732 0.19383 0.0
H1080 H 0.91198 0.79343 0.20194 0.0
H1081 H 0.9573 0.84674 0.17331 0.0
H1082 H 0.84132 0.82797 0.19807 0.0
H1083 H 0.85965 0.85587 0.20852 0.0
H1084 H 0.86569 0.81025 0.20945 0.0
H1085 H 0.894 0.8921 0.16246 0.0
H1086 H 0.93428 0.89137 0.16228 0.0
H1087 H 0.91441 0.91936 0.17246 0.0
C1088 C 0.67819 0.16418 0.93456 0.0
C1089 C 0.67151 0.19435 0.94088 0.0
C1090 C 0.65648 0.13843 0.93303 0.0
C1091 C 0.62792 0.1424 0.9384 0.0
C1092 C 0.62101 0.17316 0.94459 0.0
C1093 C 0.64267 0.19893 0.94556 0.0
C1094 C 0.6644 0.10655 0.926 0.0
C1095 C 0.59133 0.17808 0.95085 0.0
C1096 C 0.56108 0.08477 0.93164 0.0
C1097 C 0.56355 0.06037 0.94091 0.0
C1098 C 0.58267 0.1108 0.93032 0.0
C1099 C 0.60643 0.11318 0.93878 0.0
C1100 C 0.60871 0.08864 0.94819 0.0
C1101 C 0.58762 0.06224 0.94899 0.0
C1102 C 0.58007 0.13573 0.91991 0.0
C1103 C 0.63292 0.09082 0.95769 0.0
H1104 H 0.70037 0.16066 0.93085 0.0
H1105 H 0.63744 0.22208 0.95055 0.0
H1106 H 0.66687 0.08459 0.93231 0.0
H1107 H 0.6463 0.10006 0.91954 0.0
H1108 H 0.68558 0.10958 0.92088 0.0
H1109 H 0.58897 0.20409 0.95482 0.0
H1110 H 0.57274 0.17388 0.9444 0.0
H1111 H 0.58894 0.15888 0.95821 0.0
H1112 H 0.54262 0.08315 0.92533 0.0
H1113 H 0.58943 0.04355 0.95624 0.0
H1114 H 0.60149 0.137 0.91489 0.0
H1115 H 0.57539 0.16181 0.92341 0.0
H1116 H 0.56203 0.12852 0.9135 0.0
H1117 H 0.65519 0.08941 0.95335 0.0
H1118 H 0.63127 0.06999 0.96453 0.0
H1119 H 0.63153 0.11583 0.96245 0.0
C1120 C 0.15913 0.68826 0.93173 0.0
C1121 C 0.18215 0.68096 0.93995 0.0
C1122 C 0.13483 0.66584 0.93031 0.0
C1123 C 0.13298 0.63602 0.9376 0.0
C1124 C 0.15659 0.62812 0.94569 0.0
C1125 C 0.18112 0.65042 0.94662 0.0
C1126 C 0.11075 0.6746 0.92126 0.0
C1127 C 0.15528 0.59697 0.95381 0.0
C1128 C 0.05697 0.59782 0.94519 0.0
C1129 C 0.05761 0.56728 0.93854 0.0
C1130 C 0.08107 0.62091 0.94474 0.0
C1131 C 0.1059 0.61373 0.93718 0.0
C1132 C 0.10559 0.58401 0.92983 0.0
C1133 C 0.08173 0.56085 0.93077 0.0
C1134 C 0.08074 0.65189 0.95292 0.0
C1135 C 0.13101 0.57597 0.92131 0.0
H1136 H 0.15986 0.71188 0.92655 0.0
H1137 H 0.19864 0.64495 0.95311 0.0
H1138 H 0.10586 0.65212 0.91544 0.0
H1139 H 0.08987 0.68127 0.9261 0.0
H1140 H 0.11708 0.69655 0.91538 0.0
H1141 H 0.17557 0.59422 0.9595 0.0
H1142 H 0.13555 0.59879 0.95985 0.0
H1143 H 0.15264 0.57342 0.9483 0.0
H1144 H 0.03856 0.60257 0.95133 0.0
H1145 H 0.08223 0.5372 0.92562 0.0
H1146 H 0.08465 0.67556 0.94758 0.0
H1147 H 0.09909 0.6498 0.95963 0.0
H1148 H 0.05931 0.6546 0.95789 0.0
H1149 H 0.13671 0.59884 0.91579 0.0
H1150 H 0.12563 0.5544 0.91513 0.0
H1151 H 0.15114 0.56899 0.92661 0.0
C1152 C 0.56978 0.66103 0.83855 0.0
C1153 C 0.57044 0.69095 0.84555 0.0
C1154 C 0.59317 0.63703 0.83913 0.0
C1155 C 0.61735 0.64255 0.84718 0.0
C1156 C 0.61709 0.67165 0.85484 0.0
C1157 C 0.59393 0.69581 0.85377 0.0
C1158 C 0.59281 0.60674 0.83062 0.0
C1159 C 0.64176 0.67788 0.86387 0.0
C1160 C 0.66576 0.56381 0.85257 0.0
C1161 C 0.68982 0.56988 0.84473 0.0
C1162 C 0.64289 0.58814 0.85401 0.0
C1163 C 0.6435 0.61872 0.8471 0.0
C1164 C 0.6683 0.62545 0.83946 0.0
C1165 C 0.69142 0.60115 0.83852 0.0
C1166 C 0.61752 0.58047 0.86259 0.0
C1167 C 0.66957 0.65735 0.83173 0.0
H1168 H 0.55193 0.65744 0.83205 0.0
H1169 H 0.59452 0.71896 0.8592 0.0
H1170 H 0.61229 0.60814 0.82443 0.0
H1171 H 0.59475 0.58248 0.8358 0.0
H1172 H 0.57214 0.60574 0.82508 0.0
H1173 H 0.63646 0.69931 0.87013 0.0
H1174 H 0.64599 0.6544 0.86929 0.0
H1175 H 0.66271 0.68414 0.859 0.0
H1176 H 0.66449 0.53961 0.85738 0.0
H1177 H 0.70977 0.60565 0.83232 0.0
H1178 H 0.59694 0.57515 0.85735 0.0
H1179 H 0.61292 0.60296 0.86845 0.0
H1180 H 0.6223 0.55794 0.86845 0.0
H1181 H 0.65082 0.65718 0.82516 0.0
H1182 H 0.69084 0.65941 0.82661 0.0
H1183 H 0.66697 0.68054 0.83743 0.0
C1184 C 0.08837 0.19119 0.85173 0.0
C1185 C 0.06569 0.18567 0.8432 0.0
C1186 C 0.11142 0.16716 0.85338 0.0
C1187 C 0.11239 0.13748 0.84602 0.0
C1188 C 0.08889 0.13119 0.83771 0.0
C1189 C 0.06558 0.15513 0.83653 0.0
C1190 C 0.13537 0.17428 0.86265 0.0
C1191 C 0.08929 0.10022 0.82952 0.0
C1192 C 0.18757 0.09757 0.83825 0.0
C1193 C 0.18641 0.06663 0.84469 0.0
C1194 C 0.16393 0.12124 0.83883 0.0
C1195 C 0.13893 0.11426 0.84632 0.0
C1196 C 0.13865 0.0841 0.85348 0.0
C1197 C 0.16214 0.06037 0.85242 0.0
C1198 C 0.16493 0.15274 0.83088 0.0
C1199 C 0.11303 0.07625 0.8619 0.0
H1200 H 0.08851 0.21479 0.85691 0.0
H1201 H 0.04831 0.15098 0.82982 0.0
H1202 H 0.13967 0.15112 0.86823 0.0
H1203 H 0.15651 0.1809 0.85798 0.0
H1204 H 0.12926 0.19582 0.86874 0.0
H1205 H 0.06881 0.09832 0.82389 0.0
H1206 H 0.10891 0.10161 0.8234 0.0
H1207 H 0.09151 0.07642 0.83494 0.0
H1208 H 0.20607 0.1023 0.83215 0.0
H1209 H 0.16118 0.03647 0.85743 0.0
H1210 H 0.1618 0.17617 0.83641 0.0
H1211 H 0.14639 0.15182 0.82422 0.0
H1212 H 0.18631 0.15498 0.82585 0.0
H1213 H 0.10766 0.09897 0.86754 0.0
H1214 H 0.11799 0.05423 0.86798 0.0
H1215 H 0.09284 0.07004 0.85653 0.0
C1216 C 0.41314 0.44414 0.59078 0.0
C1217 C 0.43896 0.43952 0.59778 0.0
C1218 C 0.38905 0.42136 0.59161 0.0
C1219 C 0.39027 0.39379 0.59994 0.0
C1220 C 0.41573 0.38988 0.60746 0.0
C1221 C 0.44007 0.41243 0.60612 0.0
C1222 C 0.36289 0.42593 0.58312 0.0
C1223 C 0.41746 0.36151 0.61674 0.0
C1224 C 0.31499 0.35056 0.60507 0.0
C1225 C 0.3173 0.32199 0.59744 0.0
C1226 C 0.33925 0.37312 0.60658 0.0
C1227 C 0.36594 0.36765 0.59995 0.0
C1228 C 0.3684 0.33853 0.59237 0.0
C1229 C 0.34428 0.31583 0.59138 0.0
C1230 C 0.3361 0.40321 0.61507 0.0
C1231 C 0.39596 0.3322 0.58481 0.0
H1232 H 0.41224 0.46486 0.58423 0.0
H1233 H 0.4599 0.40892 0.6116 0.0
H1234 H 0.36083 0.40309 0.57719 0.0
H1235 H 0.34186 0.42811 0.58835 0.0
H1236 H 0.36519 0.44902 0.57729 0.0
H1237 H 0.43693 0.36451 0.62287 0.0
H1238 H 0.39679 0.36092 0.62227 0.0
H1239 H 0.41932 0.3364 0.6121 0.0
H1240 H 0.29426 0.35527 0.60985 0.0
H1241 H 0.34615 0.29391 0.58539 0.0
H1242 H 0.33503 0.42735 0.60977 0.0
H1243 H 0.35583 0.40494 0.6211 0.0
H1244 H 0.31567 0.40136 0.62073 0.0
H1245 H 0.39907 0.35367 0.57832 0.0
H1246 H 0.39463 0.30789 0.57961 0.0
H1247 H 0.41604 0.33127 0.59066 0.0
C1248 C 0.83876 0.82108 0.59255 0.0
C1249 C 0.81323 0.82782 0.59949 0.0
C1250 C 0.86366 0.84279 0.59294 0.0
C1251 C 0.86356 0.87141 0.60081 0.0
C1252 C 0.83825 0.87764 0.60822 0.0
C1253 C 0.81309 0.85614 0.60729 0.0
C1254 C 0.88959 0.83583 0.58454 0.0
C1255 C 0.83765 0.90719 0.61702 0.0
C1256 C 0.9403 0.91123 0.60596 0.0
C1257 C 0.9392 0.93958 0.59816 0.0
C1258 C 0.91528 0.88974 0.60742 0.0
C1259 C 0.88908 0.896 0.60054 0.0
C1260 C 0.88801 0.92464 0.59266 0.0
C1261 C 0.91283 0.94636 0.59175 0.0
C1262 C 0.91695 0.86017 0.61622 0.0
C1263 C 0.86108 0.93164 0.58481 0.0
H1264 H 0.83887 0.79936 0.58642 0.0
H1265 H 0.79347 0.86125 0.61274 0.0
H1266 H 0.89275 0.85793 0.57833 0.0
H1267 H 0.91047 0.83283 0.58981 0.0
H1268 H 0.88622 0.81238 0.57901 0.0
H1269 H 0.81777 0.9064 0.62303 0.0
H1270 H 0.85805 0.90691 0.62272 0.0
H1271 H 0.83748 0.9318 0.61198 0.0
H1272 H 0.96056 0.9061 0.611 0.0
H1273 H 0.91197 0.9681 0.58562 0.0
H1274 H 0.9165 0.83557 0.6112 0.0
H1275 H 0.89728 0.86044 0.62233 0.0
H1276 H 0.93755 0.86093 0.6218 0.0
H1277 H 0.85715 0.90955 0.57868 0.0
H1278 H 0.86376 0.9551 0.5792 0.0
H1279 H 0.84088 0.93463 0.59051 0.0
C1280 C 0.44131 0.85928 0.6922 0.0
C1281 C 0.44283 0.82888 0.68551 0.0
C1282 C 0.4161 0.88071 0.69147 0.0
C1283 C 0.3924 0.87212 0.68352 0.0
C1284 C 0.39488 0.84257 0.67614 0.0
C1285 C 0.41974 0.82088 0.67744 0.0
C1286 C 0.41403 0.91137 0.69977 0.0
C1287 C 0.37081 0.83318 0.66718 0.0
C1288 C 0.31432 0.9034 0.69159 0.0
C1289 C 0.31252 0.9341 0.68504 0.0
C1290 C 0.34012 0.88291 0.69111 0.0
C1291 C 0.36425 0.89271 0.68355 0.0
C1292 C 0.36178 0.92277 0.6764 0.0
C1293 C 0.33622 0.94351 0.67744 0.0
C1294 C 0.34211 0.85164 0.69915 0.0
C1295 C 0.38637 0.93341 0.66784 0.0
H1296 H 0.45893 0.86511 0.6986 0.0
H1297 H 0.4209 0.79727 0.67228 0.0
H1298 H 0.40964 0.93497 0.69446 0.0
H1299 H 0.39504 0.90795 0.70611 0.0
H1300 H 0.43471 0.91515 0.70515 0.0
H1301 H 0.37794 0.81224 0.66101 0.0
H1302 H 0.35056 0.82466 0.67211 0.0
H1303 H 0.3645 0.85584 0.66166 0.0
H1304 H 0.29621 0.89639 0.69761 0.0
H1305 H 0.33485 0.96729 0.67237 0.0
H1306 H 0.36124 0.85432 0.70546 0.0
H1307 H 0.34618 0.82842 0.69361 0.0
H1308 H 0.3215 0.84763 0.70456 0.0
H1309 H 0.40639 0.941 0.67308 0.0
H1310 H 0.37966 0.95528 0.66199 0.0
H1311 H 0.39287 0.91155 0.66198 0.0
C1312 C 0.84242 0.44628 0.69066 0.0
C1313 C 0.81534 0.43777 0.68507 0.0
C1314 C 0.8673 0.4245 0.68993 0.0
C1315 C 0.86551 0.39399 0.68303 0.0
C1316 C 0.83865 0.38615 0.67683 0.0
C1317 C 0.81365 0.40777 0.67813 0.0
C1318 C 0.89496 0.43327 0.6971 0.0
C1319 C 0.83613 0.35456 0.66902 0.0
C1320 C 0.94004 0.35006 0.67645 0.0
C1321 C 0.93982 0.32345 0.68499 0.0
C1322 C 0.91545 0.37244 0.67533 0.0
C1323 C 0.89076 0.36894 0.68329 0.0
C1324 C 0.89075 0.34226 0.692 0.0
C1325 C 0.91496 0.31951 0.69257 0.0
C1326 C 0.91585 0.39974 0.66564 0.0
C1327 C 0.86555 0.33828 0.70099 0.0
H1328 H 0.84375 0.4693 0.69613 0.0
H1329 H 0.79281 0.40123 0.67373 0.0
H1330 H 0.899 0.41319 0.70405 0.0
H1331 H 0.91476 0.43385 0.69109 0.0
H1332 H 0.89308 0.45845 0.70173 0.0
H1333 H 0.81536 0.35454 0.66354 0.0
H1334 H 0.85558 0.35269 0.66283 0.0
H1335 H 0.83623 0.33133 0.67482 0.0
H1336 H 0.95915 0.35297 0.67052 0.0
H1337 H 0.91485 0.29912 0.69926 0.0
H1338 H 0.9163 0.4255 0.66987 0.0
H1339 H 0.89522 0.39822 0.66011 0.0
H1340 H 0.93547 0.3973 0.65955 0.0
H1341 H 0.86294 0.36223 0.70631 0.0
H1342 H 0.86931 0.31668 0.70738 0.0
H1343 H 0.84424 0.33381 0.69615 0.0
C1344 C 0.5553 0.59811 0.44896 0.0
C1345 C 0.55703 0.56823 0.44197 0.0
C1346 C 0.57806 0.62294 0.44848 0.0
C1347 C 0.60267 0.6182 0.44056 0.0
C1348 C 0.60345 0.58908 0.43293 0.0
C1349 C 0.58091 0.56419 0.43387 0.0
C1350 C 0.57658 0.65326 0.45694 0.0
C1351 C 0.62865 0.58355 0.42407 0.0
C1352 C 0.65076 0.69724 0.43508 0.0
C1353 C 0.67475 0.69149 0.443 0.0
C1354 C 0.62783 0.67294 0.43376 0.0
C1355 C 0.62837 0.64262 0.44083 0.0
C1356 C 0.653 0.63626 0.44859 0.0
C1357 C 0.6761 0.66055 0.44944 0.0
C1358 C 0.60259 0.68021 0.42508 0.0
C1359 C 0.65425 0.6046 0.45645 0.0
H1360 H 0.5371 0.6011 0.45534 0.0
H1361 H 0.58229 0.54111 0.42843 0.0
H1362 H 0.5956 0.65223 0.46337 0.0
H1363 H 0.57857 0.67753 0.45177 0.0
H1364 H 0.55549 0.6539 0.46223 0.0
H1365 H 0.62417 0.56189 0.4178 0.0
H1366 H 0.63249 0.60709 0.41863 0.0
H1367 H 0.64955 0.57802 0.42908 0.0
H1368 H 0.64963 0.72114 0.43007 0.0
H1369 H 0.69435 0.65619 0.45569 0.0
H1370 H 0.58173 0.68483 0.43023 0.0
H1371 H 0.59867 0.65774 0.41913 0.0
H1372 H 0.60709 0.70298 0.41931 0.0
H1373 H 0.63503 0.60451 0.46279 0.0
H1374 H 0.67517 0.6031 0.46182 0.0
H1375 H 0.65249 0.58123 0.45079 0.0
C1376 C 0.0765 0.06867 0.4303 0.0
C1377 C 0.05361 0.07357 0.43879 0.0
C1378 C 0.09954 0.09281 0.42893 0.0
C1379 C 0.10025 0.12204 0.43652 0.0
C1380 C 0.07632 0.12798 0.44467 0.0
C1381 C 0.05308 0.10388 0.44559 0.0
C1382 C 0.12399 0.08599 0.41984 0.0
C1383 C 0.07639 0.15844 0.45309 0.0
C1384 C 0.17632 0.15719 0.44546 0.0
C1385 C 0.17744 0.18822 0.43905 0.0
C1386 C 0.15148 0.13539 0.44461 0.0
C1387 C 0.12739 0.14429 0.4369 0.0
C1388 C 0.12902 0.1748 0.42995 0.0
C1389 C 0.15382 0.19665 0.43124 0.0
C1390 C 0.15054 0.10343 0.45234 0.0
C1391 C 0.10432 0.18471 0.42134 0.0
H1392 H 0.07697 0.04529 0.42499 0.0
H1393 H 0.03564 0.1076 0.45227 0.0
H1394 H 0.12919 0.10957 0.41463 0.0
H1395 H 0.14461 0.07818 0.42467 0.0
H1396 H 0.11786 0.0653 0.4134 0.0
H1397 H 0.05511 0.16095 0.45818 0.0
H1398 H 0.09488 0.1557 0.45971 0.0
H1399 H 0.08032 0.18245 0.44795 0.0
H1400 H 0.19431 0.15065 0.45161 0.0
H1401 H 0.15454 0.22057 0.42624 0.0
H1402 H 0.14778 0.08046 0.44654 0.0
H1403 H 0.13103 0.10451 0.45853 0.0
H1404 H 0.17104 0.10015 0.45788 0.0
H1405 H 0.09905 0.16301 0.41521 0.0
H1406 H 0.11021 0.20744 0.41577 0.0
H1407 H 0.08376 0.19063 0.42653 0.0
C1408 C 0.68291 0.09653 0.33696 0.0
C1409 C 0.68026 0.06614 0.34366 0.0
C1410 C 0.66092 0.12223 0.33763 0.0
C1411 C 0.63605 0.11782 0.34543 0.0
C1412 C 0.63428 0.0881 0.35278 0.0
C1413 C 0.65616 0.06243 0.35168 0.0
C1414 C 0.66352 0.15325 0.32951 0.0
C1415 C 0.6087 0.08283 0.36148 0.0
C1416 C 0.59103 0.19897 0.35131 0.0
C1417 C 0.56746 0.19547 0.34303 0.0
C1418 C 0.61265 0.1731 0.35267 0.0
C1419 C 0.61118 0.14341 0.34533 0.0
C1420 C 0.58675 0.13917 0.3373 0.0
C1421 C 0.56499 0.16506 0.33636 0.0
C1422 C 0.63772 0.17821 0.36161 0.0
C1423 C 0.5845 0.10817 0.32917 0.0
H1424 H 0.70127 0.09939 0.33064 0.0
H1425 H 0.65401 0.039 0.3569 0.0
H1426 H 0.64457 0.15372 0.32304 0.0
H1427 H 0.66228 0.17708 0.33495 0.0
H1428 H 0.68468 0.15343 0.32427 0.0
H1429 H 0.61238 0.06045 0.36753 0.0
H1430 H 0.60541 0.10602 0.36713 0.0
H1431 H 0.58779 0.07861 0.35632 0.0
H1432 H 0.59303 0.22242 0.35651 0.0
H1433 H 0.54705 0.16238 0.32985 0.0
H1434 H 0.65892 0.18253 0.35666 0.0
H1435 H 0.6407 0.15492 0.36727 0.0
H1436 H 0.63369 0.20048 0.36766 0.0
H1437 H 0.60369 0.10777 0.32282 0.0
H1438 H 0.56354 0.10799 0.32381 0.0
H1439 H 0.58557 0.08431 0.33463 0.0
C1440 C 0.15767 0.55902 0.35077 0.0
C1441 C 0.18116 0.56663 0.3428 0.0
C1442 C 0.13378 0.58202 0.35242 0.0
C1443 C 0.13284 0.61287 0.34564 0.0
C1444 C 0.15688 0.62098 0.33779 0.0
C1445 C 0.18091 0.59803 0.33661 0.0
C1446 C 0.10918 0.57289 0.36119 0.0
C1447 C 0.15661 0.65322 0.3302 0.0
C1448 C 0.05867 0.65521 0.33778 0.0
C1449 C 0.05982 0.68517 0.34476 0.0
C1450 C 0.08179 0.63082 0.33829 0.0
C1451 C 0.10625 0.63603 0.34623 0.0
C1452 C 0.10633 0.66501 0.35395 0.0
C1453 C 0.0834 0.68951 0.35297 0.0
C1454 C 0.08102 0.6007 0.32972 0.0
C1455 C 0.13135 0.67101 0.36284 0.0
H1456 H 0.15774 0.5348 0.3556 0.0
H1457 H 0.19879 0.60392 0.33033 0.0
H1458 H 0.10463 0.59473 0.36735 0.0
H1459 H 0.08832 0.56761 0.35613 0.0
H1460 H 0.11478 0.54996 0.36672 0.0
H1461 H 0.17711 0.65597 0.32462 0.0
H1462 H 0.13699 0.65299 0.32407 0.0
H1463 H 0.15448 0.67609 0.33609 0.0
H1464 H 0.04071 0.65193 0.33131 0.0
H1465 H 0.08437 0.71262 0.35841 0.0
H1466 H 0.08426 0.57638 0.33475 0.0
H1467 H 0.09961 0.60293 0.32312 0.0
H1468 H 0.05969 0.5992 0.32462 0.0
H1469 H 0.13626 0.64721 0.36799 0.0
H1470 H 0.12599 0.6918 0.36936 0.0
H1471 H 0.15192 0.6782 0.35787 0.0
C1472 C 0.49861 0.04227 0.04139 0.0
C1473 C 0.49574 0.0148 0.04952 0.0
C1474 C 0.50418 0.03654 0.02898 0.0
C1475 C 0.50625 1.00252 0.02453 0.0
C1476 C 0.50284 0.97473 0.03269 0.0
C1477 C 0.49798 0.9812 0.04506 0.0
C1478 C 0.5081 0.0669 0.02065 0.0
C1479 C 0.50403 0.93808 0.02832 0.0
C1480 C 0.48894 0.98798 0.99119 0.0
C1481 C 0.51736 0.98272 0.98614 0.0
C1482 C 0.48511 0.99414 1.00361 0.0
C1483 C 0.51036 0.99591 1.01127 0.0
C1484 C 0.5392 0.99079 1.00626 0.0
C1485 C 0.54235 0.98382 0.99377 0.0
C1486 C 0.4539 0.99852 1.00856 0.0
C1487 C 0.56673 0.99305 1.01408 0.0
H1488 H 0.49732 0.0683 0.04478 0.0
H1489 H 0.49575 0.9598 0.05128 0.0
H1490 H 0.52979 0.065 1.01584 0.0
H1491 H 0.49034 0.06693 1.01365 0.0
H1492 H 0.50728 0.09168 0.02559 0.0
H1493 H 0.50095 0.91935 0.03581 0.0
H1494 H 0.48639 0.93374 0.02144 0.0
H1495 H 0.52578 0.93294 0.02388 0.0
H1496 H 0.46943 0.98683 0.9854 0.0
H1497 H 0.56436 0.97998 0.98993 0.0
H1498 H 0.45149 0.02422 1.01274 0.0
H1499 H 0.44966 0.97926 1.01576 0.0
H1500 H 0.43657 0.99568 1.00144 0.0
H1501 H 0.56761 0.01844 0.01859 0.0
H1502 H 0.58756 0.98936 1.00878 0.0
H1503 H 0.56584 0.97335 0.02132 0.0
C1504 C 0.76677 0.24434 0.04347 0.0
C1505 C 0.74398 0.24681 0.05212 0.0
C1506 C 0.7611 0.25115 0.03112 0.0
C1507 C 0.73172 0.25938 0.02727 0.0
C1508 C 0.70857 0.26115 0.03598 0.0
C1509 C 0.71508 0.25546 0.04828 0.0
C1510 C 0.78661 0.24992 0.02221 0.0
C1511 C 0.67677 0.26854 0.03228 0.0
C1512 C 0.71926 0.30441 0.99687 0.0
C1513 C 0.7144 0.27659 0.9891 0.0
C1514 C 0.72508 0.29923 1.0093 0.0
C1515 C 0.72503 0.2655 1.01413 0.0
C1516 C 0.71873 0.2375 1.00638 0.0
C1517 C 0.7141 0.24333 0.99394 0.0
C1518 C 0.73248 0.32972 0.01714 0.0
C1519 C 0.7173 0.20128 1.01118 0.0
H1520 H 0.78916 0.23789 0.0464 0.0
H1521 H 0.69728 0.25706 0.05491 0.0
H1522 H 0.78264 0.22948 1.01543 0.0
H1523 H 0.78805 0.27456 0.01721 0.0
H1524 H 0.80836 0.24496 0.02671 0.0
H1525 H 0.66119 0.26807 0.04011 0.0
H1526 H 0.67533 0.29405 0.02788 0.0
H1527 H 0.66925 0.24931 0.02554 0.0
H1528 H 0.72012 0.33008 0.99311 0.0
H1529 H 0.7105 0.22176 0.98793 0.0
H1530 H 0.7552 0.32661 0.02098 0.0
H1531 H 0.71675 0.33129 0.02488 0.0
H1532 H 0.73157 0.35424 1.01203 0.0
H1533 H 0.7396 0.19329 1.01449 0.0
H1534 H 0.70987 0.18274 1.00417 0.0
H1535 H 0.70173 0.1999 0.01898 0.0
C1536 C 0.54574 0.27418 0.23483 0.0
C1537 C 0.51767 0.26141 0.23146 0.0
C1538 C 0.5526 0.2813 0.247 0.0
C1539 C 0.53055 0.27661 0.25604 0.0
C1540 C 0.50191 0.26443 0.25265 0.0
C1541 C 0.49599 0.25642 0.24043 0.0
C1542 C 0.58367 0.29306 0.25022 0.0
C1543 C 0.4775 0.25991 0.26193 0.0
C1544 C 0.55123 0.26215 0.28914 0.0
C1545 C 0.54719 0.29486 0.29413 0.0
C1546 C 0.54719 0.25624 0.27669 0.0
C1547 C 0.53768 0.28341 0.26908 0.0
C1548 C 0.53417 0.31671 0.27404 0.0
C1549 C 0.53941 0.32214 0.28649 0.0
C1550 C 0.55227 0.22063 0.27175 0.0
C1551 C 0.52333 0.34621 0.26635 0.0
H1552 H 0.56273 0.27778 0.22795 0.0
H1553 H 0.47422 0.24676 0.23788 0.0
H1554 H 0.58276 0.31832 0.25481 0.0
H1555 H 0.59396 0.27468 0.25667 0.0
H1556 H 0.59833 0.29529 0.24214 0.0
H1557 H 0.45595 0.2524 0.25774 0.0
H1558 H 0.484 0.23992 0.26858 0.0
H1559 H 0.47419 0.28412 0.26704 0.0
H1560 H 0.55703 0.24097 0.29507 0.0
H1561 H 0.53563 0.34728 0.29038 0.0
H1562 H 0.56708 0.22167 0.2637 0.0
H1563 H 0.53074 0.20946 0.26879 0.0
H1564 H 0.56241 0.20323 0.27859 0.0
H1565 H 0.53788 0.34948 0.25831 0.0
H1566 H 0.52274 0.37074 0.27145 0.0
H1567 H 0.50053 0.34058 0.26298 0.0
C1568 C 0.70924 0.98052 0.23633 0.0
C1569 C 0.73717 0.99429 0.23323 0.0
C1570 C 0.70142 0.97415 0.24847 0.0
C1571 C 0.72236 0.98063 0.2578 0.0
C1572 C 0.75088 0.99381 0.2547 0.0
C1573 C 0.75775 1.00104 0.24248 0.0
C1574 C 0.67047 0.96125 0.25134 0.0
C1575 C 0.77417 1.00026 0.26429 0.0
C1576 C 0.69807 0.99688 0.29042 0.0
C1577 C 0.7028 0.96484 0.29586 0.0
C1578 C 0.703 1.00191 0.27795 0.0
C1579 C 0.71415 0.97458 0.2708 0.0
C1580 C 0.71831 0.9419 0.27622 0.0
C1581 C 0.71216 0.93731 0.28865 0.0
C1582 C 0.69719 0.03682 0.27252 0.0
C1583 C 0.73086 0.9123 0.26905 0.0
H1584 H 0.69306 0.97558 0.22925 0.0
H1585 H 0.7794 0.01151 0.24015 0.0
H1586 H 0.67176 0.93648 0.25625 0.0
H1587 H 0.65893 0.97971 0.25739 0.0
H1588 H 0.65672 0.95764 0.24307 0.0
H1589 H 0.79586 0.00838 0.26036 0.0
H1590 H 0.76634 0.02053 0.27058 0.0
H1591 H 0.77777 0.97669 0.26975 0.0
H1592 H 0.69117 0.0183 0.29601 0.0
H1593 H 0.71656 0.91275 0.2929 0.0
H1594 H 0.68334 0.03443 0.26424 0.0
H1595 H 0.71861 0.0488 0.26982 0.0
H1596 H 0.68569 0.05423 0.27898 0.0
H1597 H 0.71732 0.90779 0.2608 0.0
H1598 H 0.73164 0.88822 0.27443 0.0
H1599 H 0.75382 0.91861 0.26602 0.0
C1600 C 0.22564 0.79971 0.99652 0.0
C1601 C 0.21981 0.7717 0.98894 0.0
C1602 C 0.2317 0.79492 1.00895 0.0
C1603 C 0.2311 0.76143 1.01399 0.0
C1604 C 0.22388 0.73329 1.00644 0.0
C1605 C 0.21883 0.7387 0.994 0.0
C1606 C 0.23984 0.82556 1.0166 0.0
C1607 C 0.22191 0.69734 1.01145 0.0
C1608 C 0.27242 0.74165 0.0436 0.0
C1609 C 0.24959 0.74535 0.05218 0.0
C1610 C 0.26688 0.74731 0.03116 0.0
C1611 C 0.23764 0.75578 0.02717 0.0
C1612 C 0.21442 0.75852 0.03581 0.0
C1613 C 0.22077 0.75378 0.04816 0.0
C1614 C 0.2924 0.74483 0.02229 0.0
C1615 C 0.18277 0.76631 0.032 0.0
H1616 H 0.22704 0.82516 0.9926 0.0
H1617 H 0.21448 0.71694 0.98816 0.0
H1618 H 0.22416 0.82798 0.02432 0.0
H1619 H 0.2625 0.82197 0.02045 0.0
H1620 H 0.23947 0.84985 1.01133 0.0
H1621 H 0.2143 0.67858 1.00455 0.0
H1622 H 0.24407 0.68911 1.01486 0.0
H1623 H 0.20625 0.69662 0.01924 0.0
H1624 H 0.29475 0.73539 0.04665 0.0
H1625 H 0.20292 0.75636 0.05473 0.0
H1626 H 0.29467 0.76935 0.01726 0.0
H1627 H 0.28781 0.72453 1.01552 0.0
H1628 H 0.31393 0.739 0.02683 0.0
H1629 H 0.18175 0.79175 0.02753 0.0
H1630 H 0.16706 0.76632 0.03979 0.0
H1631 H 0.17509 0.74706 0.0253 0.0
C1632 C 0.52872 0.75989 0.73753 0.0
C1633 C 0.49971 0.75038 0.73409 0.0
C1634 C 0.53607 0.76636 0.74967 0.0
C1635 C 0.51368 0.76433 0.75868 0.0
C1636 C 0.4842 0.75504 0.75528 0.0
C1637 C 0.47766 0.74761 0.74304 0.0
C1638 C 0.56795 0.77496 0.75288 0.0
C1639 C 0.45952 0.75332 0.76456 0.0
C1640 C 0.53617 0.75023 0.79163 0.0
C1641 C 0.53561 0.78364 0.79631 0.0
C1642 C 0.52971 0.74371 0.77938 0.0
C1643 C 0.52144 0.77115 0.77166 0.0
C1644 C 0.52118 0.80506 0.77631 0.0
C1645 C 0.52868 0.81096 0.78854 0.0
C1646 C 0.53138 0.70735 0.77476 0.0
C1647 C 0.51193 0.83497 0.76847 0.0
H1648 H 0.546 0.76169 0.73068 0.0
H1649 H 0.45521 0.74047 0.74044 0.0
H1650 H 0.56906 0.80069 0.75712 0.0
H1651 H 0.57657 0.75626 0.75961 0.0
H1652 H 0.58287 0.77472 0.74484 0.0
H1653 H 0.43759 0.74723 0.76041 0.0
H1654 H 0.46474 0.73347 0.77144 0.0
H1655 H 0.45773 0.77818 0.76938 0.0
H1656 H 0.54134 0.72901 0.79764 0.0
H1657 H 0.5276 0.83672 0.79219 0.0
H1658 H 0.54629 0.70604 0.76674 0.0
H1659 H 0.50896 0.69875 0.7718 0.0
H1660 H 0.53975 0.68922 0.78174 0.0
H1661 H 0.52676 0.8369 0.76046 0.0
H1662 H 0.5126 0.85968 0.77345 0.0
H1663 H 0.48893 0.83083 0.76506 0.0
C1664 C 0.22336 1.00187 0.73651 0.0
C1665 C 0.25193 0.01239 0.73284 0.0
C1666 C 0.2167 0.99544 0.74875 0.0
C1667 C 0.23939 0.99847 0.75759 0.0
C1668 C 0.26841 0.0089 0.75394 0.0
C1669 C 0.27421 0.01631 0.74163 0.0
C1670 C 0.18523 0.98565 0.75221 0.0
C1671 C 0.29344 0.01168 0.76302 0.0
C1672 C 0.21885 0.01117 0.79084 0.0
C1673 C 0.22085 0.97774 0.79547 0.0
C1674 C 0.22402 0.0181 0.77851 0.0
C1675 C 0.23253 0.99114 0.77064 0.0
C1676 C 0.2342 0.95719 0.77525 0.0
C1677 C 0.2279 0.95083 0.78757 0.0
C1678 C 0.22082 0.05442 0.77395 0.0
C1679 C 0.24381 0.92779 0.76727 0.0
H1680 H 0.20591 0.99914 0.72978 0.0
H1681 H 0.29635 0.02421 0.73884 0.0
H1682 H 0.18503 0.95977 0.75637 0.0
H1683 H 0.17649 0.00383 0.75908 0.0
H1684 H 0.16989 0.98562 0.7443 0.0
H1685 H 0.31494 0.01884 0.75871 0.0
H1686 H 0.28785 0.03117 0.76997 0.0
H1687 H 0.29634 0.98685 0.7678 0.0
H1688 H 0.21362 0.03207 0.79696 0.0
H1689 H 0.23013 0.92508 0.79117 0.0
H1690 H 0.20556 0.05516 0.76604 0.0
H1691 H 0.24278 0.06415 0.77086 0.0
H1692 H 0.21207 0.072 0.78102 0.0
H1693 H 0.22858 0.92545 0.7594 0.0
H1694 H 0.24414 0.90297 0.77221 0.0
H1695 H 0.26648 0.93286 0.76364 0.0
C1696 C 0.49832 0.45771 0.49338 0.0
C1697 C 0.52594 0.4645 0.48792 0.0
C1698 C 0.4938 0.46296 0.50582 0.0
C1699 C 0.51726 0.47628 0.51299 0.0
C1700 C 0.54551 0.48243 0.50756 0.0
C1701 C 0.5496 0.47616 0.49508 0.0
C1702 C 0.46358 0.45519 0.51122 0.0
C1703 C 0.57097 0.49707 0.51484 0.0
C1704 C 0.49394 0.52403 0.54169 0.0
C1705 C 0.50023 0.49984 0.55074 0.0
C1706 C 0.49987 0.51694 0.5294 0.0
C1707 C 0.51178 0.48459 0.52604 0.0
C1708 C 0.51747 0.4598 0.53513 0.0
C1709 C 0.51193 0.46784 0.54734 0.0
C1710 C 0.49378 0.54425 0.52002 0.0
C1711 C 0.52937 0.42472 0.53196 0.0
H1712 H 0.47994 0.44893 0.4878 0.0
H1713 H 0.57077 0.48204 0.4908 0.0
H1714 H 0.46602 0.43833 0.51926 0.0
H1715 H 0.45291 0.4793 0.51432 0.0
H1716 H 0.44846 0.44252 0.50463 0.0
H1717 H 0.5918 0.49915 0.50943 0.0
H1718 H 0.56483 0.52296 0.51817 0.0
H1719 H 0.57539 0.48086 0.5229 0.0
H1720 H 0.48524 0.54893 0.54424 0.0
H1721 H 0.51679 0.44892 0.55428 0.0
H1722 H 0.47697 0.53494 0.51343 0.0
H1723 H 0.51447 0.54988 0.51487 0.0
H1724 H 0.48547 0.56843 0.52412 0.0
H1725 H 0.51393 0.41179 0.52558 0.0
H1726 H 0.53226 0.40816 0.54007 0.0
H1727 H 0.5512 0.42714 0.52731 0.0
C1728 C 0.71435 0.76373 0.55118 0.0
C1729 C 0.74358 0.75467 0.55448 0.0
C1730 C 0.70643 0.7694 0.53902 0.0
C1731 C 0.72845 0.767 0.52986 0.0
C1732 C 0.75812 0.7581 0.53313 0.0
C1733 C 0.76523 0.75151 0.54538 0.0
C1734 C 0.67438 0.77764 0.53596 0.0
C1735 C 0.78243 0.75599 0.52371 0.0
C1736 C 0.70642 0.75123 0.49695 0.0
C1737 C 0.70733 0.78436 0.49201 0.0
C1738 C 0.71225 0.7454 0.50931 0.0
C1739 C 0.72027 0.77323 0.51687 0.0
C1740 C 0.72064 0.80689 0.51196 0.0
C1741 C 0.71375 0.8121 0.49963 0.0
C1742 C 0.71051 0.70929 0.51419 0.0
C1743 C 0.72964 0.83721 0.51961 0.0
H1744 H 0.69739 0.76589 0.55814 0.0
H1745 H 0.78787 0.74475 0.54787 0.0
H1746 H 0.67295 0.80317 0.53157 0.0
H1747 H 0.66564 0.7586 0.5294 0.0
H1748 H 0.65977 0.77764 0.54409 0.0
H1749 H 0.80456 0.75015 0.52775 0.0
H1750 H 0.77701 0.7358 0.517 0.0
H1751 H 0.78396 0.78062 0.5187 0.0
H1752 H 0.70166 0.72968 0.49107 0.0
H1753 H 0.71512 0.83764 0.49578 0.0
H1754 H 0.69597 0.7085 0.52233 0.0
H1755 H 0.73301 0.70058 0.51703 0.0
H1756 H 0.7017 0.69095 0.50739 0.0
H1757 H 0.71508 0.83911 0.52771 0.0
H1758 H 0.72841 0.86175 0.51452 0.0
H1759 H 0.75283 0.83361 0.5229 0.0
C1760 C 0.75278 0.48368 0.79096 0.0
C1761 C 0.72424 0.48115 0.79614 0.0
C1762 C 0.75672 0.48922 0.7785 0.0
C1763 C 0.7315 0.49327 0.77093 0.0
C1764 C 0.7025 0.49057 0.77607 0.0
C1765 C 0.69919 0.48406 0.78861 0.0
C1766 C 0.78803 0.4908 0.77345 0.0
C1767 C 0.67504 0.49533 0.76836 0.0
C1768 C 0.74715 0.53929 0.74096 0.0
C1769 C 0.7486 0.51186 0.73278 0.0
C1770 C 0.74049 0.53376 0.75331 0.0
C1771 C 0.73586 0.49992 0.75766 0.0
C1772 C 0.73761 0.47215 0.74944 0.0
C1773 C 0.74361 0.47848 0.73712 0.0
C1774 C 0.73841 0.56416 0.76171 0.0
C1775 C 0.73375 0.43561 0.75368 0.0
H1776 H 0.77227 0.48112 0.79671 0.0
H1777 H 0.67712 0.48241 0.79257 0.0
H1778 H 0.79071 0.47166 0.7661 0.0
H1779 H 0.79221 0.51644 0.76944 0.0
H1780 H 0.80524 0.48582 0.78047 0.0
H1781 H 0.65413 0.49269 0.77368 0.0
H1782 H 0.67542 0.5211 0.76409 0.0
H1783 H 0.6748 0.47622 0.76092 0.0
H1784 H 0.75056 0.56518 0.73767 0.0
H1785 H 0.74473 0.45708 0.73089 0.0
H1786 H 0.75631 0.5627 0.76863 0.0
H1787 H 0.71678 0.56377 0.7666 0.0
H1788 H 0.74048 0.58893 0.75681 0.0
H1789 H 0.75123 0.42923 0.76044 0.0
H1790 H 0.73516 0.41692 0.74612 0.0
H1791 H 0.71186 0.43252 0.75824 0.0
C1792 C 0.21667 0.25561 0.49233 0.0
C1793 C 0.22403 0.28642 0.48649 0.0
C1794 C 0.22165 0.25105 0.5048 0.0
C1795 C 0.23526 0.27755 0.5116 0.0
C1796 C 0.24223 0.30903 0.50579 0.0
C1797 C 0.23616 0.31326 0.49333 0.0
C1798 C 0.21293 0.21749 0.51065 0.0
C1799 C 0.25726 0.33771 0.51262 0.0
C1800 C 0.22739 0.27459 0.54599 0.0
C1801 C 0.25373 0.25784 0.54958 0.0
C1802 C 0.22127 0.28142 0.53372 0.0
C1803 C 0.24227 0.27203 0.52475 0.0
C1804 C 0.26929 0.25589 0.52832 0.0
C1805 C 0.27452 0.24858 0.54067 0.0
C1806 C 0.19187 0.29779 0.53036 0.0
C1807 C 0.29256 0.24607 0.51907 0.0
H1808 H 0.20741 0.23474 0.48706 0.0
H1809 H 0.24245 0.33686 0.48881 0.0
H1810 H 0.23317 0.20388 0.51386 0.0
H1811 H 0.19862 0.22228 0.51867 0.0
H1812 H 0.20074 0.20042 0.50431 0.0
H1813 H 0.26056 0.36086 0.50691 0.0
H1814 H 0.24386 0.3449 0.52068 0.0
H1815 H 0.27934 0.32889 0.51595 0.0
H1816 H 0.21099 0.28162 0.55277 0.0
H1817 H 0.29496 0.2358 0.54334 0.0
H1818 H 0.17894 0.28014 0.52449 0.0
H1819 H 0.19573 0.3216 0.52509 0.0
H1820 H 0.17814 0.30416 0.53843 0.0
H1821 H 0.28351 0.22616 0.51292 0.0
H1822 H 0.31322 0.236 0.52335 0.0
H1823 H 0.29841 0.26861 0.51341 0.0
C1824 C 0.21839 0.50842 0.28814 0.0
C1825 C 0.22126 0.47547 0.29312 0.0
C1826 C 0.22351 0.51451 0.27575 0.0
C1827 C 0.23271 0.48719 0.26816 0.0
C1828 C 0.23517 0.4537 0.27311 0.0
C1829 C 0.22901 0.44816 0.28549 0.0
C1830 C 0.21958 0.55036 0.27082 0.0
C1831 C 0.24546 0.42397 0.26543 0.0
C1832 C 0.22408 0.49594 0.23393 0.0
C1833 C 0.25254 0.50704 0.23031 0.0
C1834 C 0.21731 0.48974 0.24618 0.0
C1835 C 0.23973 0.49376 0.25508 0.0
C1836 C 0.26863 0.50468 0.25149 0.0
C1837 C 0.27457 0.5117 0.23917 0.0
C1838 C 0.18598 0.47924 0.24958 0.0
C1839 C 0.29337 0.5086 0.26065 0.0
H1840 H 0.2125 0.52965 0.29401 0.0
H1841 H 0.23182 0.42278 0.28934 0.0
H1842 H 0.24136 0.56045 0.26767 0.0
H1843 H 0.20438 0.55004 0.26289 0.0
H1844 H 0.2104 0.56824 0.27771 0.0
H1845 H 0.24605 0.39951 0.27059 0.0
H1846 H 0.23049 0.42076 0.25752 0.0
H1847 H 0.26814 0.42927 0.26186 0.0
H1848 H 0.20681 0.4926 0.22716 0.0
H1849 H 0.29662 0.52005 0.23644 0.0
H1850 H 0.17658 0.49776 0.25619 0.0
H1851 H 0.18627 0.45377 0.25405 0.0
H1852 H 0.17092 0.47798 0.24161 0.0
H1853 H 0.2873 0.52847 0.26739 0.0
H1854 H 0.31488 0.5159 0.25636 0.0
H1855 H 0.29653 0.48419 0.26566 0.0
C1856 C 0.03208 0.01414 0.4934 0.0
C1857 C 0.0307 0.98077 0.48872 0.0
C1858 C 0.02805 0.02053 0.50584 0.0
C1859 C 0.02133 0.99303 0.51378 0.0
C1860 C 0.0204 0.95914 0.50911 0.0
C1861 C 0.02553 0.95337 0.49667 0.0
C1862 C 0.03036 0.05688 0.51043 0.0
C1863 C 0.01267 0.92915 0.51717 0.0
C1864 C 0.03222 0.0041 0.54784 0.0
C1865 C 0.00349 0.0132 0.55178 0.0
C1866 C 0.03837 0.99794 0.53554 0.0
C1867 C 0.01505 0.99985 0.52692 0.0
C1868 C 0.98589 0.00881 0.53085 0.0
C1869 C 0.98056 0.01592 0.5432 0.0
C1870 C 0.06995 0.98969 0.53176 0.0
C1871 C 0.96023 0.01038 0.52202 0.0
H1872 H 0.03589 0.03542 0.48727 0.0
H1873 H 0.0238 0.92763 0.49304 0.0
H1874 H 0.00829 0.06562 0.51376 0.0
H1875 H 0.0461 0.05812 0.51817 0.0
H1876 H 0.03804 0.07493 0.50329 0.0
H1877 H 0.01319 0.90438 0.51222 0.0
H1878 H 0.02846 0.92764 0.52489 0.0
H1879 H 0.99003 0.93284 0.52103 0.0
H1880 H 0.05014 1.00223 0.5544 0.0
H1881 H 0.95829 0.02267 0.5462 0.0
H1882 H 0.07761 0.00839 0.52484 0.0
H1883 H 0.07085 0.96392 0.52755 0.0
H1884 H 0.08574 0.99022 0.53951 0.0
H1885 H 0.96458 0.03024 0.51505 0.0
H1886 H 0.93872 0.01635 0.52656 0.0
H1887 H 0.95805 0.98549 0.51724 0.0
C1888 C 0.03355 0.25521 0.73384 0.0
C1889 C 0.00442 0.24705 0.73016 0.0
C1890 C 0.04053 0.26101 0.74608 0.0
C1891 C 0.01767 0.25965 0.75492 0.0
C1892 C 0.98811 0.25164 0.75126 0.0
C1893 C 0.98192 0.2449 0.73895 0.0
C1894 C 0.07248 0.26828 0.74957 0.0
C1895 C 0.96295 0.25066 0.76033 0.0
C1896 C 0.03661 0.2444 0.7882 0.0
C1897 C 0.03617 0.27774 0.79295 0.0
C1898 C 0.03156 0.23829 0.77581 0.0
C1899 C 0.02485 0.26609 0.76799 0.0
C1900 C 0.02488 0.29992 0.77271 0.0
C1901 C 0.03097 0.30538 0.7851 0.0
C1902 C 0.03284 0.20196 0.77114 0.0
C1903 C 0.01725 0.33023 0.76478 0.0
H1904 H 0.05114 0.25661 0.72711 0.0
H1905 H 0.95935 0.23886 0.73616 0.0
H1906 H 0.07414 0.29394 0.75383 0.0
H1907 H 0.08016 0.24924 0.75636 0.0
H1908 H 0.0878 0.26745 0.74166 0.0
H1909 H 0.94107 0.24534 0.756 0.0
H1910 H 0.96732 0.23059 0.76724 0.0
H1911 H 0.96154 0.27553 0.76517 0.0
H1912 H 0.0405 0.22294 0.79425 0.0
H1913 H 0.03 0.33112 0.78877 0.0
H1914 H 0.04815 0.20036 0.76325 0.0
H1915 H 0.01043 0.19394 0.76798 0.0
H1916 H 0.0405 0.18356 0.77817 0.0
H1917 H 0.03262 0.33145 0.75692 0.0
H1918 H 0.01849 0.3549 0.76977 0.0
H1919 H 0.99433 0.32719 0.76113 0.0
C1920 C 0.97852 0.74985 0.24145 0.0
C1921 C 0.00158 0.75079 0.23288 0.0
C1922 C 0.98422 0.75671 0.2538 0.0
C1923 C 0.01379 0.76364 0.25771 0.0
C1924 C 0.03714 0.76408 0.24908 0.0
C1925 C 0.0307 0.75813 0.23681 0.0
C1926 C 0.95857 0.75671 0.26265 0.0
C1927 C 0.06909 0.77024 0.25284 0.0
C1928 C 0.0277 0.80784 0.28813 0.0
C1929 C 0.03202 0.77974 0.29587 0.0
C1930 C 0.0216 0.80304 0.27571 0.0
C1931 C 0.0206 0.76939 0.27085 0.0
C1932 C 0.02636 0.74108 0.27856 0.0
C1933 C 0.0315 0.74657 0.29097 0.0
C1934 C 0.01505 0.83389 0.26789 0.0
C1935 C 0.02657 0.70487 0.27374 0.0
H1936 H 0.95599 0.74438 0.23848 0.0
H1937 H 0.04876 0.75854 0.23028 0.0
H1938 H 0.96182 0.73617 0.26949 0.0
H1939 H 0.95787 0.78144 0.26761 0.0
H1940 H 0.93675 0.75267 0.25812 0.0
H1941 H 0.08472 0.76942 0.24504 0.0
H1942 H 0.07114 0.79557 0.25731 0.0
H1943 H 0.07605 0.75056 0.25954 0.0
H1944 H 0.02745 0.83346 0.29192 0.0
H1945 H 0.03466 0.72475 0.29694 0.0
H1946 H 0.99214 0.83187 0.26414 0.0
H1947 H 0.03063 0.83477 0.26009 0.0
H1948 H 0.0169 0.85833 0.27299 0.0
H1949 H 0.00404 0.69801 0.27038 0.0
H1950 H 0.03326 0.68589 0.28075 0.0
H1951 H 0.04217 0.70282 0.26597 0.0
C1952 C 0.98956 0.46981 0.99033 0.0
C1953 C 0.01799 0.47381 0.98521 0.0
C1954 C 0.98452 0.47511 1.00274 0.0
C1955 C 0.00836 0.48569 1.01025 0.0
C1956 C 0.03734 0.48924 1.00518 0.0
C1957 C 0.04191 0.48284 0.99271 0.0
C1958 C 0.95348 0.46999 1.00775 0.0
C1959 C 0.06326 0.50102 1.01282 0.0
C1960 C 0.98591 0.53282 0.03923 0.0
C1961 C 0.98981 0.50734 0.04806 0.0
C1962 C 0.99253 0.52638 0.02695 0.0
C1963 C 0.0026 0.49341 0.02335 0.0
C1964 C 0.00586 0.4674 0.03221 0.0
C1965 C 0.9998 0.47479 0.04444 0.0
C1966 C 0.98913 0.555 0.01784 0.0
C1967 C 0.01562 0.43166 0.02877 0.0
H1968 H 0.97101 0.46281 0.98453 0.0
H1969 H 0.0638 0.48643 0.98874 0.0
H1970 H 0.95411 0.45217 1.01559 0.0
H1971 H 0.9445 0.49477 1.01106 0.0
H1972 H 0.93785 0.45957 1.00086 0.0
H1973 H 0.08446 0.50185 1.00762 0.0
H1974 H 0.05858 0.527 1.01644 0.0
H1975 H 0.06621 0.4837 0.02071 0.0
H1976 H 0.97862 0.55815 0.04197 0.0
H1977 H 0.00284 0.45492 0.0512 0.0
H1978 H 0.97216 0.54796 1.01097 0.0
H1979 H 0.01051 0.55903 1.01297 0.0
H1980 H 0.98233 0.57952 0.02214 0.0
H1981 H 0.99983 0.42069 0.02208 0.0
H1982 H 0.0168 0.41421 0.03672 0.0
H1983 H 0.03789 0.4325 0.0244 0.0
C1984 C 0.60006 0.05531 0.09611 0.0
C1985 C 0.57338 0.05502 0.10267 0.0
C1986 C 0.62263 0.07903 0.0988 0.0
C1987 C 0.61815 0.10333 0.10819 0.0
C1988 C 0.59239 0.10091 0.11557 0.0
C1989 C 0.57022 0.07674 0.11269 0.0
C1990 C 0.6497 0.08056 0.09067 0.0
C1991 C 0.58683 0.12606 0.12569 0.0
C1992 C 0.68621 0.15963 0.11293 0.0
C1993 C 0.6804 0.18608 0.10465 0.0
C1994 C 0.66499 0.13376 0.11509 0.0
C1995 C 0.63762 0.13433 0.10868 0.0
C1996 C 0.6308 0.16275 0.10112 0.0
C1997 C 0.65238 0.1882 0.09917 0.0
C1998 C 0.67301 0.10427 0.12332 0.0
C1999 C 0.60196 0.16452 0.09408 0.0
H2000 H 0.60211 0.03912 0.08817 0.0
H2001 H 0.54918 0.07711 0.11756 0.0
H2002 H 0.64805 0.10337 0.08468 0.0
H2003 H 0.67037 0.08322 0.0961 0.0
H2004 H 0.65172 0.05739 0.08488 0.0
H2005 H 0.56738 0.11853 0.13133 0.0
H2006 H 0.60685 0.12819 0.13155 0.0
H2007 H 0.58241 0.15186 0.12185 0.0
H2008 H 0.70825 0.15758 0.11693 0.0
H2009 H 0.64828 0.2082 0.09254 0.0
H2010 H 0.67747 0.08106 0.11782 0.0
H2011 H 0.65418 0.09822 0.12949 0.0
H2012 H 0.6932 0.10985 0.12881 0.0
H2013 H 0.60209 0.14464 0.08689 0.0
H2014 H 0.59867 0.18994 0.08972 0.0
H2015 H 0.58264 0.15928 0.10007 0.0
C2016 C 0.60604 0.19508 0.18347 0.0
C2017 C 0.57755 0.19466 0.17833 0.0
C2018 C 0.62656 0.16876 0.18108 0.0
C2019 C 0.61812 0.14108 0.17348 0.0
C2020 C 0.59042 0.14244 0.16732 0.0
C2021 C 0.57034 0.16926 0.16986 0.0
C2022 C 0.65578 0.16854 0.18789 0.0
C2023 C 0.58057 0.11375 0.15911 0.0
C2024 C 0.68121 0.0766 0.17014 0.0
C2025 C 0.67596 0.05579 0.18028 0.0
C2026 C 0.66105 0.10291 0.16699 0.0
C2027 C 0.63533 0.10835 0.17423 0.0
C2028 C 0.62871 0.08509 0.18374 0.0
C2029 C 0.6492 0.05923 0.18667 0.0
C2030 C 0.66863 0.12669 0.15666 0.0
C2031 C 0.60166 0.08974 0.19174 0.0
H2032 H 0.61128 0.21435 0.19022 0.0
H2033 H 0.54798 0.16852 0.16611 0.0
H2034 H 0.65481 0.14904 0.19521 0.0
H2035 H 0.67449 0.16155 0.1818 0.0
H2036 H 0.6607 0.19382 0.19206 0.0
H2037 H 0.56152 0.12163 0.1533 0.0
H2038 H 0.59926 0.10504 0.15328 0.0
H2039 H 0.57333 0.09155 0.16466 0.0
H2040 H 0.70228 0.0744 0.16537 0.0
H2041 H 0.64549 0.04347 0.19463 0.0
H2042 H 0.6749 0.15221 0.16027 0.0
H2043 H 0.64891 0.1304 0.15072 0.0
H2044 H 0.68751 0.11685 0.15115 0.0
H2045 H 0.60459 0.11296 0.19742 0.0
H2046 H 0.59804 0.06744 0.19784 0.0
H2047 H 0.5813 0.09353 0.1862 0.0
C2048 C 0.4277 0.91482 0.93274 0.0
C2049 C 0.45216 0.90106 0.93901 0.0
C2050 C 0.40102 0.8961 0.93156 0.0
C2051 C 0.39873 0.86306 0.93686 0.0
C2052 C 0.42415 0.84806 0.9423 0.0
C2053 C 0.45052 0.86715 0.94326 0.0
C2054 C 0.37459 0.91275 0.92547 0.0
C2055 C 0.4228 0.81303 0.94812 0.0
C2056 C 0.32474 0.8411 0.95143 0.0
C2057 C 0.31271 0.8169 0.94342 0.0
C2058 C 0.35258 0.85608 0.94933 0.0
C2059 C 0.36889 0.84713 0.93882 0.0
C2060 C 0.35704 0.82256 0.93067 0.0
C2061 C 0.3291 0.8074 0.93313 0.0
C2062 C 0.36453 0.88154 0.95844 0.0
C2063 C 0.37361 0.81281 0.91929 0.0
H2064 H 0.42883 0.9408 0.92929 0.0
H2065 H 0.46942 0.85596 0.94794 0.0
H2066 H 0.36281 0.89413 0.91958 0.0
H2067 H 0.35854 0.92152 0.93247 0.0
H2068 H 0.38128 0.93526 0.91992 0.0
H2069 H 0.44535 0.80291 0.95029 0.0
H2070 H 0.40981 0.81464 0.95666 0.0
H2071 H 0.41129 0.79448 0.94212 0.0
H2072 H 0.31228 0.84834 0.95945 0.0
H2073 H 0.31972 0.78897 0.92686 0.0
H2074 H 0.36825 0.9067 0.954 0.0
H2075 H 0.38636 0.87262 0.96199 0.0
H2076 H 0.34916 0.88535 0.96622 0.0
H2077 H 0.37643 0.83576 0.91345 0.0
H2078 H 0.36177 0.79272 0.91403 0.0
H2079 H 0.39627 0.80336 0.92157 0.0
C2080 C 0.45043 0.87733 0.84275 0.0
C2081 C 0.4529 0.84168 0.84436 0.0
C2082 C 0.42294 0.89416 0.84373 0.0
C2083 C 0.3971 0.87507 0.8466 0.0
C2084 C 0.39974 0.83958 0.84923 0.0
C2085 C 0.42762 0.82319 0.84801 0.0
C2086 C 0.42126 0.9319 0.84069 0.0
C2087 C 0.37279 0.81851 0.85261 0.0
C2088 C 0.32588 0.92688 0.85193 0.0
C2089 C 0.31211 0.92424 0.84058 0.0
C2090 C 0.35319 0.91009 0.85423 0.0
C2091 C 0.36721 0.89115 0.84485 0.0
C2092 C 0.3535 0.88915 0.83332 0.0
C2093 C 0.32603 0.90531 0.83139 0.0
C2094 C 0.36681 0.91212 0.86671 0.0
C2095 C 0.36796 0.87017 0.82292 0.0
H2096 H 0.46984 0.89214 0.84013 0.0
H2097 H 0.42931 0.79576 0.84942 0.0
H2098 H 0.4097 0.93525 0.83187 0.0
H2099 H 0.40814 0.94592 0.84761 0.0
H2100 H 0.44369 0.94382 0.84001 0.0
H2101 H 0.37915 0.79319 0.85644 0.0
H2102 H 0.3588 0.83235 0.85931 0.0
H2103 H 0.35892 0.81413 0.84444 0.0
H2104 H 0.31484 0.94104 0.85909 0.0
H2105 H 0.31538 0.9033 0.8226 0.0
H2106 H 0.38927 0.92392 0.8662 0.0
H2107 H 0.36972 0.88591 0.87045 0.0
H2108 H 0.35288 0.92729 0.87308 0.0
H2109 H 0.39027 0.88124 0.821 0.0
H2110 H 0.35443 0.87133 0.8145 0.0
H2111 H 0.37131 0.84287 0.82539 0.0
C2112 C 0.69417 0.65496 0.61078 0.0
C2113 C 0.68944 0.68971 0.60812 0.0
C2114 C 0.67021 0.63215 0.61187 0.0
C2115 C 0.64082 0.64444 0.61017 0.0
C2116 C 0.63581 0.68025 0.60912 0.0
C2117 C 0.66032 0.70263 0.60808 0.0
C2118 C 0.67666 0.59439 0.61331 0.0
C2119 C 0.60472 0.69447 0.60773 0.0
C2120 C 0.59043 0.59021 0.59045 0.0
C2121 C 0.57108 0.57537 0.5989 0.0
C2122 C 0.61347 0.61203 0.59411 0.0
C2123 C 0.61697 0.61986 0.60656 0.0
C2124 C 0.59794 0.60419 0.61521 0.0
C2125 C 0.5752 0.58189 0.61127 0.0
C2126 C 0.63366 0.62731 0.58455 0.0
C2127 C 0.60055 0.61212 0.62852 0.0
H2128 H 0.71679 0.64504 0.61099 0.0
H2129 H 0.65663 0.72951 0.60606 0.0
H2130 H 0.6604 0.5822 0.61954 0.0
H2131 H 0.6746 0.58164 0.60437 0.0
H2132 H 0.69956 0.58977 0.61682 0.0
H2133 H 0.60405 0.72256 0.60936 0.0
H2134 H 0.5967 0.68954 0.59838 0.0
H2135 H 0.58912 0.68162 0.61408 0.0
H2136 H 0.58715 0.58518 0.58088 0.0
H2137 H 0.55978 0.57095 0.61778 0.0
H2138 H 0.65731 0.62136 0.58665 0.0
H2139 H 0.63126 0.65562 0.58447 0.0
H2140 H 0.62859 0.61755 0.57532 0.0
H2141 H 0.6242 0.61378 0.6314 0.0
H2142 H 0.58906 0.59249 0.63413 0.0
H2143 H 0.59003 0.63736 0.63033 0.0
C2144 C 0.56436 0.66631 0.67334 0.0
C2145 C 0.56656 0.68596 0.68391 0.0
C2146 C 0.58646 0.64205 0.67039 0.0
C2147 C 0.61113 0.63739 0.67826 0.0
C2148 C 0.61403 0.65861 0.68863 0.0
C2149 C 0.59157 0.68241 0.69136 0.0
C2150 C 0.58224 0.62 0.65933 0.0
C2151 C 0.64001 0.65482 0.69724 0.0
C2152 C 0.65387 0.5549 0.68342 0.0
C2153 C 0.68186 0.564 0.67886 0.0
C2154 C 0.62943 0.57733 0.68225 0.0
C2155 C 0.63325 0.6093 0.6763 0.0
C2156 C 0.66057 0.61648 0.67041 0.0
C2157 C 0.68471 0.59394 0.67191 0.0
C2158 C 0.60051 0.56841 0.68849 0.0
C2159 C 0.66525 0.64954 0.66356 0.0
H2160 H 0.54447 0.66837 0.66779 0.0
H2161 H 0.59279 0.69711 0.69968 0.0
H2162 H 0.60392 0.61392 0.655 0.0
H2163 H 0.57166 0.59547 0.66204 0.0
H2164 H 0.56747 0.63264 0.65259 0.0
H2165 H 0.63963 0.67434 0.70456 0.0
H2166 H 0.63952 0.62899 0.70147 0.0
H2167 H 0.66139 0.65715 0.69225 0.0
H2168 H 0.6518 0.53199 0.68894 0.0
H2169 H 0.70649 0.60103 0.66843 0.0
H2170 H 0.58126 0.57409 0.68251 0.0
H2171 H 0.59807 0.58434 0.69676 0.0
H2172 H 0.59965 0.54098 0.69119 0.0
H2173 H 0.64575 0.6552 0.6577 0.0
H2174 H 0.68566 0.64867 0.65785 0.0
H2175 H 0.66753 0.67098 0.6701 0.0
C2176 C 0.41892 0.42433 0.44144 0.0
C2177 C 0.44729 0.41148 0.4387 0.0
C2178 C 0.39344 0.40357 0.44023 0.0
C2179 C 0.39638 0.36953 0.43585 0.0
C2180 C 0.42478 0.35741 0.43224 0.0
C2181 C 0.44994 0.37832 0.4339 0.0
C2182 C 0.36365 0.41736 0.44436 0.0
C2183 C 0.4288 0.32183 0.42714 0.0
C2184 C 0.33789 0.30707 0.44742 0.0
C2185 C 0.3166 0.30842 0.43818 0.0
C2186 C 0.36459 0.32574 0.44655 0.0
C2187 C 0.37023 0.34585 0.43608 0.0
C2188 C 0.34967 0.3452 0.42633 0.0
C2189 C 0.32279 0.32697 0.4276 0.0
C2190 C 0.38565 0.326 0.45723 0.0
C2191 C 0.35516 0.36542 0.41488 0.0
H2192 H 0.41687 0.44981 0.44526 0.0
H2193 H 0.47188 0.3684 0.4317 0.0
H2194 H 0.34683 0.41455 0.43706 0.0
H2195 H 0.35565 0.40232 0.45226 0.0
H2196 H 0.36484 0.44479 0.447 0.0
H2197 H 0.45141 0.31805 0.42323 0.0
H2198 H 0.42541 0.30258 0.43441 0.0
H2199 H 0.41194 0.31676 0.42 0.0
H2200 H 0.33262 0.29353 0.45574 0.0
H2201 H 0.30591 0.32866 0.42058 0.0
H2202 H 0.38628 0.35208 0.46122 0.0
H2203 H 0.40862 0.31964 0.45426 0.0
H2204 H 0.37887 0.30754 0.46439 0.0
H2205 H 0.35201 0.39313 0.41672 0.0
H2206 H 0.33967 0.35786 0.4075 0.0
H2207 H 0.37845 0.36183 0.41171 0.0
C2208 C 0.45439 0.38818 0.33967 0.0
C2209 C 0.45594 0.35224 0.34055 0.0
C2210 C 0.42723 0.40573 0.34077 0.0
C2211 C 0.40073 0.38707 0.34291 0.0
C2212 C 0.40232 0.35104 0.34463 0.0
C2213 C 0.42991 0.334 0.34339 0.0
C2214 C 0.42668 0.44405 0.33879 0.0
C2215 C 0.37461 0.33027 0.34711 0.0
C2216 C 0.32914 0.43705 0.34972 0.0
C2217 C 0.31541 0.43698 0.33833 0.0
C2218 C 0.35692 0.42068 0.35146 0.0
C2219 C 0.37127 0.40453 0.34151 0.0
C2220 C 0.35775 0.40559 0.32993 0.0
C2221 C 0.32994 0.42144 0.32853 0.0
C2222 C 0.37043 0.41968 0.36397 0.0
C2223 C 0.37245 0.38952 0.31899 0.0
H2224 H 0.47437 0.40275 0.33765 0.0
H2225 H 0.43085 0.30633 0.34421 0.0
H2226 H 0.41571 0.44981 0.33001 0.0
H2227 H 0.41351 0.45689 0.34599 0.0
H2228 H 0.44944 0.45529 0.33865 0.0
H2229 H 0.37999 0.30364 0.34995 0.0
H2230 H 0.36096 0.3426 0.35427 0.0
H2231 H 0.36077 0.32912 0.33879 0.0
H2232 H 0.31758 0.44847 0.35735 0.0
H2233 H 0.31918 0.42125 0.31972 0.0
H2234 H 0.39352 0.42984 0.36376 0.0
H2235 H 0.37176 0.39273 0.36715 0.0
H2236 H 0.35722 0.43472 0.37063 0.0
H2237 H 0.395 0.4006 0.31764 0.0
H2238 H 0.35932 0.39341 0.31057 0.0
H2239 H 0.37529 0.36158 0.32048 0.0
C2240 C 0.05764 0.11228 0.60857 0.0
C2241 C 0.06236 0.07793 0.60533 0.0
C2242 C 0.08163 0.13487 0.61013 0.0
C2243 C 0.11103 0.12293 0.60818 0.0
C2244 C 0.11603 0.08737 0.60633 0.0
C2245 C 0.09152 0.06515 0.60494 0.0
C2246 C 0.07524 0.17224 0.6125 0.0
C2247 C 0.1471 0.07347 0.6045 0.0
C2248 C 0.16223 0.18016 0.58987 0.0
C2249 C 0.18246 0.19187 0.59859 0.0
C2250 C 0.13851 0.15865 0.59302 0.0
C2251 C 0.13502 0.14809 0.60523 0.0
C2252 C 0.15464 0.16107 0.6142 0.0
C2253 C 0.17822 0.18297 0.61077 0.0
C2254 C 0.11785 0.14619 0.58314 0.0
C2255 C 0.15193 0.15036 0.62727 0.0
H2256 H 0.03501 0.12209 0.60905 0.0
H2257 H 0.09522 0.03859 0.60247 0.0
H2258 H 0.09155 0.18304 0.61902 0.0
H2259 H 0.07733 0.18683 0.6039 0.0
H2260 H 0.05235 0.17618 0.61611 0.0
H2261 H 0.14775 0.04508 0.60526 0.0
H2262 H 0.15517 0.0808 0.59535 0.0
H2263 H 0.1627 0.08459 0.61123 0.0
H2264 H 0.1656 0.18701 0.58044 0.0
H2265 H 0.19424 0.19148 0.61748 0.0
H2266 H 0.09438 0.15241 0.58545 0.0
H2267 H 0.11956 0.11791 0.5823 0.0
H2268 H 0.12307 0.15779 0.57419 0.0
H2269 H 0.12824 0.14835 0.6301 0.0
H2270 H 0.16358 0.16853 0.6334 0.0
H2271 H 0.16227 0.12471 0.6284 0.0
C2272 C 0.17392 0.07266 0.67083 0.0
C2273 C 0.17855 0.06374 0.68298 0.0
C2274 C 0.15013 0.09446 0.66753 0.0
C2275 C 0.13078 0.10739 0.67662 0.0
C2276 C 0.13453 0.09657 0.68878 0.0
C2277 C 0.15844 0.07513 0.6918 0.0
C2278 C 0.14705 0.10534 0.65449 0.0
C2279 C 0.11417 0.10903 0.69878 0.0
C2280 C 0.08911 0.19174 0.67704 0.0
C2281 C 0.05967 0.17995 0.67666 0.0
C2282 C 0.11307 0.16868 0.67567 0.0
C2283 C 0.10722 0.13329 0.67383 0.0
C2284 C 0.07754 0.12232 0.67193 0.0
C2285 C 0.0541 0.14574 0.67348 0.0
C2286 C 0.14446 0.18155 0.6775 0.0
C2287 C 0.07025 0.08517 0.66958 0.0
H2288 H 0.18991 0.06447 0.66405 0.0
H2289 H 0.16226 0.06839 0.70122 0.0
H2290 H 0.12329 0.10711 0.65176 0.0
H2291 H 0.15708 0.13113 0.65338 0.0
H2292 H 0.15876 0.0874 0.64829 0.0
H2293 H 0.11935 0.09693 0.70765 0.0
H2294 H 0.11632 0.13723 0.69975 0.0
H2295 H 0.09058 0.10343 0.69649 0.0
H2296 H 0.09344 0.21816 0.67951 0.0
H2297 H 0.03124 0.13669 0.67305 0.0
H2298 H 0.15976 0.17013 0.67072 0.0
H2299 H 0.15243 0.17372 0.68662 0.0
H2300 H 0.14575 0.20993 0.67684 0.0
H2301 H 0.08631 0.07378 0.66308 0.0
H2302 H 0.04728 0.082 0.66597 0.0
H2303 H 0.07196 0.07057 0.67819 0.0
C2304 C 0.93693 0.88449 0.44651 0.0
C2305 C 0.93952 0.91945 0.44354 0.0
C2306 C 0.90959 0.86728 0.44574 0.0
C2307 C 0.88399 0.88519 0.44174 0.0
C2308 C 0.88671 0.91985 0.43798 0.0
C2309 C 0.91443 0.93669 0.439 0.0
C2310 C 0.90777 0.83053 0.45002 0.0
C2311 C 0.86002 0.93963 0.43344 0.0
C2312 C 0.81423 0.83101 0.43625 0.0
C2313 C 0.79871 0.83606 0.44712 0.0
C2314 C 0.84167 0.8477 0.43413 0.0
C2315 C 0.85404 0.86906 0.44324 0.0
C2316 C 0.83856 0.87355 0.4543 0.0
C2317 C 0.81104 0.85737 0.45603 0.0
C2318 C 0.85724 0.84287 0.42214 0.0
C2319 C 0.85122 0.89518 0.46442 0.0
H2320 H 0.95615 0.87061 0.44991 0.0
H2321 H 0.91619 0.96353 0.43656 0.0
H2322 H 0.89474 0.82936 0.45857 0.0
H2323 H 0.89602 0.81446 0.44326 0.0
H2324 H 0.93014 0.81924 0.45172 0.0
H2325 H 0.86655 0.96426 0.42913 0.0
H2326 H 0.84728 0.92415 0.42679 0.0
H2327 H 0.84486 0.9453 0.44113 0.0
H2328 H 0.80451 0.81493 0.42929 0.0
H2329 H 0.79912 0.86121 0.46447 0.0
H2330 H 0.87951 0.83114 0.42357 0.0
H2331 H 0.8609 0.86815 0.41776 0.0
H2332 H 0.84429 0.82635 0.41586 0.0
H2333 H 0.87323 0.88488 0.46726 0.0
H2334 H 0.83637 0.89593 0.47248 0.0
H2335 H 0.85481 0.92182 0.46122 0.0
C2336 C 0.93236 0.8631 0.33291 0.0
C2337 C 0.94052 0.83524 0.34027 0.0
C2338 C 0.90448 0.87897 0.33404 0.0
C2339 C 0.88421 0.86725 0.34294 0.0
C2340 C 0.89255 0.8398 0.35069 0.0
C2341 C 0.92052 0.82375 0.34916 0.0
C2342 C 0.89633 0.90743 0.32534 0.0
C2343 C 0.87176 0.8271 0.36046 0.0
C2344 C 0.81871 0.92821 0.34795 0.0
C2345 C 0.7969 0.91344 0.34049 0.0
C2346 C 0.84678 0.91239 0.34946 0.0
C2347 C 0.85335 0.88162 0.34314 0.0
C2348 C 0.83117 0.8664 0.3358 0.0
C2349 C 0.80329 0.88227 0.33467 0.0
C2350 C 0.86967 0.92901 0.35756 0.0
C2351 C 0.83732 0.83415 0.32864 0.0
H2352 H 0.94757 0.87206 0.32596 0.0
H2353 H 0.92681 0.80249 0.35496 0.0
H2354 H 0.87704 0.89944 0.31972 0.0
H2355 H 0.88951 0.93068 0.33041 0.0
H2356 H 0.91505 0.91433 0.31921 0.0
H2357 H 0.88272 0.80825 0.36656 0.0
H2358 H 0.86349 0.84893 0.36596 0.0
H2359 H 0.85203 0.81474 0.35627 0.0
H2360 H 0.81388 0.95207 0.35257 0.0
H2361 H 0.7867 0.8706 0.32885 0.0
H2362 H 0.8881 0.93951 0.35197 0.0
H2363 H 0.87952 0.90973 0.36379 0.0
H2364 H 0.85999 0.9502 0.36301 0.0
H2365 H 0.85497 0.83924 0.32182 0.0
H2366 H 0.81719 0.8246 0.32385 0.0
H2367 H 0.84566 0.81357 0.3347 0.0
C2368 C 0.18757 0.65334 0.10693 0.0
C2369 C 0.18413 0.68845 0.10448 0.0
C2370 C 0.16283 0.63158 0.1079 0.0
C2371 C 0.13385 0.64522 0.10635 0.0
C2372 C 0.13011 0.68124 0.10527 0.0
C2373 C 0.15538 0.70254 0.10434 0.0
C2374 C 0.16798 0.59352 0.10925 0.0
C2375 C 0.09953 0.69691 0.10388 0.0
C2376 C 0.0803 0.59211 0.08763 0.0
C2377 C 0.06107 0.57857 0.0964 0.0
C2378 C 0.10423 0.61321 0.09084 0.0
C2379 C 0.10882 0.62167 0.10318 0.0
C2380 C 0.08985 0.60741 0.11217 0.0
C2381 C 0.06619 0.58574 0.10866 0.0
C2382 C 0.12421 0.62706 0.08095 0.0
C2383 C 0.0937 0.61621 0.12538 0.0
H2384 H 0.2098 0.64239 0.10729 0.0
H2385 H 0.15257 0.72967 0.10252 0.0
H2386 H 0.15165 0.58206 0.11562 0.0
H2387 H 0.1649 0.58095 0.10032 0.0
H2388 H 0.19087 0.58772 0.11252 0.0
H2389 H 0.09988 0.72504 0.10544 0.0
H2390 H 0.09124 0.69215 0.09456 0.0
H2391 H 0.08353 0.68497 0.11028 0.0
H2392 H 0.07621 0.58663 0.07814 0.0
H2393 H 0.05088 0.57583 0.11542 0.0
H2394 H 0.14776 0.62005 0.0828 0.0
H2395 H 0.12286 0.65545 0.08073 0.0
H2396 H 0.11808 0.61714 0.07185 0.0
H2397 H 0.1174 0.61378 0.12813 0.0
H2398 H 0.07986 0.59965 0.13134 0.0
H2399 H 0.08706 0.64328 0.12685 0.0
C2400 C 0.08085 0.6565 0.19364 0.0
C2401 C 0.06451 0.67441 0.18486 0.0
C2402 C 0.10544 0.63632 0.19048 0.0
C2403 C 0.11368 0.63321 0.17814 0.0
C2404 C 0.09714 0.65104 0.16915 0.0
C2405 C 0.07285 0.67188 0.17265 0.0
C2406 C 0.12275 0.61856 0.20043 0.0
C2407 C 0.1048 0.64764 0.1559 0.0
C2408 C 0.1946 0.60838 0.1769 0.0
C2409 C 0.1927 0.57252 0.17763 0.0
C2410 C 0.16901 0.62868 0.17566 0.0
C2411 C 0.14074 0.61272 0.17505 0.0
C2412 C 0.13903 0.57645 0.17427 0.0
C2413 C 0.16514 0.55664 0.17561 0.0
C2414 C 0.17212 0.66714 0.1765 0.0
C2415 C 0.10938 0.55847 0.17326 0.0
H2416 H 0.07448 0.65851 0.20309 0.0
H2417 H 0.0599 0.6853 0.16584 0.0
H2418 H 0.12249 0.59043 0.19899 0.0
H2419 H 0.14639 0.62697 0.20024 0.0
H2420 H 0.11354 0.62397 0.20958 0.0
H2421 H 0.08959 0.66285 0.15004 0.0
H2422 H 0.12804 0.65614 0.15425 0.0
H2423 H 0.10349 0.62031 0.15318 0.0
H2424 H 0.21601 0.62079 0.17819 0.0
H2425 H 0.16357 0.52894 0.17606 0.0
H2426 H 0.16586 0.67556 0.18576 0.0
H2427 H 0.157 0.68023 0.17003 0.0
H2428 H 0.19536 0.67563 0.17469 0.0
H2429 H 0.09851 0.55784 0.18229 0.0
H2430 H 0.11203 0.53165 0.17005 0.0
H2431 H 0.0943 0.57238 0.16698 0.0
C2432 C 0.81502 0.32757 0.93175 0.0
C2433 C 0.80041 0.33409 0.94275 0.0
C2434 C 0.84243 0.3436 0.92904 0.0
C2435 C 0.8557 0.36579 0.93767 0.0
C2436 C 0.84104 0.37203 0.94881 0.0
C2437 C 0.81355 0.35643 0.95113 0.0
C2438 C 0.85712 0.33697 0.91697 0.0
C2439 C 0.85462 0.39475 0.95843 0.0
C2440 C 0.93859 0.3804 0.94067 0.0
C2441 C 0.94121 0.41521 0.93753 0.0
C2442 C 0.91126 0.3632 0.93986 0.0
C2443 C 0.8858 0.381 0.93565 0.0
C2444 C 0.88876 0.41525 0.93149 0.0
C2445 C 0.91644 0.43208 0.93255 0.0
C2446 C 0.90919 0.32684 0.94452 0.0
C2447 C 0.86226 0.43486 0.92669 0.0
H2448 H 0.80473 0.31064 0.9252 0.0
H2449 H 0.80243 0.36139 0.95968 0.0
H2450 H 0.86127 0.36162 0.91223 0.0
H2451 H 0.8791 0.3245 0.91835 0.0
H2452 H 0.84332 0.32035 0.91104 0.0
H2453 H 0.84027 0.39695 0.96659 0.0
H2454 H 0.87661 0.38434 0.96124 0.0
H2455 H 0.85846 0.42083 0.95473 0.0
H2456 H 0.95765 0.36682 0.94435 0.0
H2457 H 0.91828 0.45881 0.92996 0.0
H2458 H 0.89663 0.31048 0.9381 0.0
H2459 H 0.89689 0.32668 0.95325 0.0
H2460 H 0.93152 0.31524 0.94604 0.0
H2461 H 0.84886 0.4186 0.9205 0.0
H2462 H 0.86913 0.45845 0.92178 0.0
H2463 H 0.84764 0.44243 0.93434 0.0
C2464 C 0.926 0.32007 0.84734 0.0
C2465 C 0.94563 0.33335 0.83862 0.0
C2466 C 0.89816 0.33582 0.84952 0.0
C2467 C 0.8896 0.36493 0.84262 0.0
C2468 C 0.90953 0.3785 0.83392 0.0
C2469 C 0.93724 0.36278 0.83212 0.0
C2470 C 0.87773 0.32106 0.85905 0.0
C2471 C 0.90118 0.40898 0.82614 0.0
C2472 C 0.80906 0.38386 0.83492 0.0
C2473 C 0.80366 0.41427 0.84138 0.0
C2474 C 0.83636 0.36657 0.83578 0.0
C2475 C 0.8589 0.37951 0.84347 0.0
C2476 C 0.85307 0.40903 0.85059 0.0
C2477 C 0.8256 0.42632 0.84937 0.0
C2478 C 0.8417 0.33566 0.82782 0.0
C2479 C 0.87631 0.42314 0.85911 0.0
H2480 H 0.93244 0.29758 0.85249 0.0
H2481 H 0.95214 0.37323 0.82531 0.0
H2482 H 0.86981 0.34163 0.86521 0.0
H2483 H 0.85777 0.30977 0.85467 0.0
H2484 H 0.88887 0.30086 0.86453 0.0
H2485 H 0.9196 0.41702 0.82004 0.0
H2486 H 0.88147 0.40257 0.8205 0.0
H2487 H 0.89495 0.43106 0.83193 0.0
H2488 H 0.79231 0.37413 0.82874 0.0
H2489 H 0.82153 0.44952 0.8545 0.0
H2490 H 0.85035 0.31391 0.83326 0.0
H2491 H 0.85883 0.34194 0.8209 0.0
H2492 H 0.82113 0.32723 0.82307 0.0
H2493 H 0.88648 0.40219 0.86453 0.0
H2494 H 0.86683 0.44257 0.86538 0.0
H2495 H 0.89443 0.43537 0.8538 0.0
loop_
_geom_bond_atom_site_label_1
_geom_bond_atom_site_label_2
_geom_bond_distance
_geom_bond_site_symmetry_2
_ccdc_geom_bond_type
O0 Cd1 2.223 . S
O0 C8 1.315 . S
Cd1 O0 2.223 . S
Cd1 O4 2.297 1_545 S
Cd1 O5 2.439 1_545 S
Cd1 O11 2.240 . S
Cd2 O3 2.240 . S
Cd2 O10 2.223 . S
Cd2 O12 2.297 . S
Cd2 O13 2.439 . S
O3 Cd2 2.240 . S
O3 C8 1.279 . S
O4 Cd1 2.297 1_565 S
O4 C6 1.247 . S
O5 Cd1 2.439 1_565 S
O5 C6 1.208 . S
C6 O4 1.247 . S
C6 O5 1.208 . S
C7 O12 1.247 . S
C7 O13 1.208 . S
C8 O0 1.315 . S
C8 O3 1.279 . S
C9 O10 1.315 . S
C9 O11 1.279 . S
O10 Cd2 2.223 . S
O10 C9 1.315 . S
O11 Cd1 2.240 . S
O11 C9 1.279 . S
O12 Cd2 2.297 . S
O12 C7 1.247 . S
O13 Cd2 2.439 . S
O13 C7 1.208 . S
O14 Cd15 2.223 . S
O14 C22 1.315 . S
Cd15 O14 2.223 . S
Cd15 O18 2.297 . S
Cd15 O19 2.439 . S
Cd15 O25 2.240 . S
Cd16 O17 2.240 . S
Cd16 O24 2.223 . S
Cd16 O26 2.297 . S
Cd16 O27 2.439 . S
O17 Cd16 2.240 . S
O17 C22 1.279 . S
O18 Cd15 2.297 . S
O18 C20 1.247 . S
O19 Cd15 2.439 . S
O19 C20 1.208 . S
C20 O18 1.247 . S
C20 O19 1.208 . S
C21 O26 1.247 . S
C21 O27 1.208 . S
C22 O14 1.315 . S
C22 O17 1.279 . S
C23 O24 1.315 . S
C23 O25 1.279 . S
O24 Cd16 2.223 . S
O24 C23 1.315 . S
O25 Cd15 2.240 . S
O25 C23 1.279 . S
O26 Cd16 2.297 . S
O26 C21 1.247 . S
O27 Cd16 2.439 . S
O27 C21 1.208 . S
O28 Cd29 2.223 . S
O28 C36 1.315 . S
Cd29 O28 2.223 . S
Cd29 O32 2.297 . S
Cd29 O33 2.439 . S
Cd29 O39 2.240 . S
Cd30 O31 2.240 . S
Cd30 O38 2.223 . S
Cd30 O40 2.297 . S
Cd30 O41 2.439 . S
O31 Cd30 2.240 . S
O31 C36 1.279 . S
O32 Cd29 2.297 . S
O32 C34 1.247 . S
O33 Cd29 2.439 . S
O33 C34 1.208 . S
C34 O32 1.247 . S
C34 O33 1.208 . S
C35 O40 1.247 . S
C35 O41 1.208 . S
C36 O28 1.315 . S
C36 O31 1.279 . S
C37 O38 1.315 . S
C37 O39 1.279 . S
O38 Cd30 2.223 . S
O38 C37 1.315 . S
O39 Cd29 2.240 . S
O39 C37 1.279 . S
O40 Cd30 2.297 . S
O40 C35 1.247 . S
O41 Cd30 2.439 . S
O41 C35 1.208 . S
O42 Cd43 2.223 . S
O42 C50 1.315 . S
Cd43 O42 2.223 . S
Cd43 O46 2.297 1_545 S
Cd43 O47 2.439 1_545 S
Cd43 O53 2.240 . S
Cd44 O45 2.240 . S
Cd44 O52 2.223 . S
Cd44 O54 2.297 . S
Cd44 O55 2.439 . S
O45 Cd44 2.240 . S
O45 C50 1.279 . S
O46 Cd43 2.297 1_565 S
O46 C48 1.247 . S
O47 Cd43 2.439 1_565 S
O47 C48 1.208 . S
C48 O46 1.247 . S
C48 O47 1.208 . S
C49 O54 1.247 . S
C49 O55 1.208 . S
C50 O42 1.315 . S
C50 O45 1.279 . S
C51 O52 1.315 . S
C51 O53 1.279 . S
O52 Cd44 2.223 . S
O52 C51 1.315 . S
O53 Cd43 2.240 . S
O53 C51 1.279 . S
O54 Cd44 2.297 . S
O54 C49 1.247 . S
O55 Cd44 2.439 . S
O55 C49 1.208 . S
O56 Cd57 2.223 . S
O56 C64 1.315 . S
Cd57 O56 2.223 . S
Cd57 O60 2.297 1_565 S
Cd57 O61 2.439 1_565 S
Cd57 O67 2.240 . S
Cd58 O59 2.240 . S
Cd58 O66 2.223 . S
Cd58 O68 2.297 . S
Cd58 O69 2.439 . S
O59 Cd58 2.240 . S
O59 C64 1.279 . S
O60 Cd57 2.297 1_545 S
O60 C62 1.247 . S
O61 Cd57 2.439 1_545 S
O61 C62 1.208 . S
C62 O60 1.247 . S
C62 O61 1.208 . S
C63 O68 1.247 . S
C63 O69 1.208 . S
C64 O56 1.315 . S
C64 O59 1.279 . S
C65 O66 1.315 . S
C65 O67 1.279 . S
O66 Cd58 2.223 . S
O66 C65 1.315 . S
O67 Cd57 2.240 . S
O67 C65 1.279 . S
O68 Cd58 2.297 . S
O68 C63 1.247 . S
O69 Cd58 2.439 . S
O69 C63 1.208 . S
O70 Cd71 2.223 . S
O70 C78 1.315 . S
Cd71 O70 2.223 . S
Cd71 O74 2.297 . S
Cd71 O75 2.439 . S
Cd71 O81 2.240 . S
Cd72 O73 2.240 . S
Cd72 O80 2.223 . S
Cd72 O82 2.297 . S
Cd72 O83 2.439 . S
O73 Cd72 2.240 . S
O73 C78 1.279 . S
O74 Cd71 2.297 . S
O74 C76 1.247 . S
O75 Cd71 2.439 . S
O75 C76 1.208 . S
C76 O74 1.247 . S
C76 O75 1.208 . S
C77 O82 1.247 . S
C77 O83 1.208 . S
C78 O70 1.315 . S
C78 O73 1.279 . S
C79 O80 1.315 . S
C79 O81 1.279 . S
O80 Cd72 2.223 . S
O80 C79 1.315 . S
O81 Cd71 2.240 . S
O81 C79 1.279 . S
O82 Cd72 2.297 . S
O82 C77 1.247 . S
O83 Cd72 2.439 . S
O83 C77 1.208 . S
O84 Cd85 2.223 . S
O84 C92 1.315 . S
Cd85 O84 2.223 . S
Cd85 O88 2.297 . S
Cd85 O89 2.439 . S
Cd85 O95 2.240 . S
Cd86 O87 2.240 . S
Cd86 O94 2.223 . S
Cd86 O96 2.297 . S
Cd86 O97 2.439 . S
O87 Cd86 2.240 . S
O87 C92 1.279 . S
O88 Cd85 2.297 . S
O88 C90 1.247 . S
O89 Cd85 2.439 . S
O89 C90 1.208 . S
C90 O88 1.247 . S
C90 O89 1.208 . S
C91 O96 1.247 . S
C91 O97 1.208 . S
C92 O84 1.315 . S
C92 O87 1.279 . S
C93 O94 1.315 . S
C93 O95 1.279 . S
O94 Cd86 2.223 . S
O94 C93 1.315 . S
O95 Cd85 2.240 . S
O95 C93 1.279 . S
O96 Cd86 2.297 . S
O96 C91 1.247 . S
O97 Cd86 2.439 . S
O97 C91 1.208 . S
O98 Cd99 2.223 . S
O98 C106 1.315 . S
Cd99 O98 2.223 . S
Cd99 O102 2.297 1_565 S
Cd99 O103 2.439 1_565 S
Cd99 O109 2.240 . S
Cd100 O101 2.240 . S
Cd100 O108 2.223 . S
Cd100 O110 2.297 . S
Cd100 O111 2.439 . S
O101 Cd100 2.240 . S
O101 C106 1.279 . S
O102 Cd99 2.297 1_545 S
O102 C104 1.247 . S
O103 Cd99 2.439 1_545 S
O103 C104 1.208 . S
C104 O102 1.247 . S
C104 O103 1.208 . S
C105 O110 1.247 . S
C105 O111 1.208 . S
C106 O98 1.315 . S
C106 O101 1.279 . S
C107 O108 1.315 . S
C107 O109 1.279 . S
O108 Cd100 2.223 . S
O108 C107 1.315 . S
O109 Cd99 2.240 . S
O109 C107 1.279 . S
O110 Cd100 2.297 . S
O110 C105 1.247 . S
O111 Cd100 2.439 . S
O111 C105 1.208 . S
O112 Cd113 2.223 . S
O112 C120 1.315 . S
Cd113 O112 2.223 . S
Cd113 O116 2.297 . S
Cd113 O117 2.439 . S
Cd113 O123 2.240 . S
Cd114 O115 2.240 . S
Cd114 O122 2.223 . S
Cd114 O124 2.297 . S
Cd114 O125 2.439 . S
O115 Cd114 2.240 . S
O115 C120 1.279 . S
O116 Cd113 2.297 . S
O116 C118 1.247 . S
O117 Cd113 2.439 . S
O117 C118 1.208 . S
C118 O116 1.247 . S
C118 O117 1.208 . S
C119 O124 1.247 . S
C119 O125 1.208 . S
C120 O112 1.315 . S
C120 O115 1.279 . S
C121 O122 1.315 . S
C121 O123 1.279 . S
O122 Cd114 2.223 . S
O122 C121 1.315 . S
O123 Cd113 2.240 . S
O123 C121 1.279 . S
O124 Cd114 2.297 . S
O124 C119 1.247 . S
O125 Cd114 2.439 . S
O125 C119 1.208 . S
O126 Cd127 2.223 . S
O126 C134 1.315 . S
Cd127 O126 2.223 . S
Cd127 O130 2.297 . S
Cd127 O131 2.439 . S
Cd127 O137 2.240 . S
Cd128 O129 2.240 . S
Cd128 O136 2.223 . S
Cd128 O138 2.297 . S
Cd128 O139 2.439 . S
O129 Cd128 2.240 . S
O129 C134 1.279 . S
O130 Cd127 2.297 . S
O130 C132 1.247 . S
O131 Cd127 2.439 . S
O131 C132 1.208 . S
C132 O130 1.247 . S
C132 O131 1.208 . S
C133 O138 1.247 . S
C133 O139 1.208 . S
C134 O126 1.315 . S
C134 O129 1.279 . S
C135 O136 1.315 . S
C135 O137 1.279 . S
O136 Cd128 2.223 . S
O136 C135 1.315 . S
O137 Cd127 2.240 . S
O137 C135 1.279 . S
O138 Cd128 2.297 . S
O138 C133 1.247 . S
O139 Cd128 2.439 . S
O139 C133 1.208 . S
O140 Cd141 2.223 . S
O140 C148 1.315 . S
Cd141 O140 2.223 . S
Cd141 O144 2.297 . S
Cd141 O145 2.439 . S
Cd141 O151 2.240 . S
Cd142 O143 2.240 . S
Cd142 O150 2.223 . S
Cd142 O152 2.297 . S
Cd142 O153 2.439 . S
O143 Cd142 2.240 . S
O143 C148 1.279 . S
O144 Cd141 2.297 . S
O144 C146 1.247 . S
O145 Cd141 2.439 . S
O145 C146 1.208 . S
C146 O144 1.247 . S
C146 O145 1.208 . S
C147 O152 1.247 . S
C147 O153 1.208 . S
C148 O140 1.315 . S
C148 O143 1.279 . S
C149 O150 1.315 . S
C149 O151 1.279 . S
O150 Cd142 2.223 . S
O150 C149 1.315 . S
O151 Cd141 2.240 . S
O151 C149 1.279 . S
O152 Cd142 2.297 . S
O152 C147 1.247 . S
O153 Cd142 2.439 . S
O153 C147 1.208 . S
O154 Cd155 2.223 . S
O154 C162 1.315 . S
Cd155 O154 2.223 . S
Cd155 O158 2.297 . S
Cd155 O159 2.439 . S
Cd155 O165 2.240 . S
Cd156 O157 2.240 . S
Cd156 O164 2.223 . S
Cd156 O166 2.297 . S
Cd156 O167 2.439 . S
O157 Cd156 2.240 . S
O157 C162 1.279 . S
O158 Cd155 2.297 . S
O158 C160 1.247 . S
O159 Cd155 2.439 . S
O159 C160 1.208 . S
C160 O158 1.247 . S
C160 O159 1.208 . S
C161 O166 1.247 . S
C161 O167 1.208 . S
C162 O154 1.315 . S
C162 O157 1.279 . S
C163 O164 1.315 . S
C163 O165 1.279 . S
O164 Cd156 2.223 . S
O164 C163 1.315 . S
O165 Cd155 2.240 . S
O165 C163 1.279 . S
O166 Cd156 2.297 . S
O166 C161 1.247 . S
O167 Cd156 2.439 . S
O167 C161 1.208 . S
O168 Cd169 2.223 . S
O168 C176 1.315 . S
Cd169 O168 2.223 . S
Cd169 O172 2.297 . S
Cd169 O173 2.439 . S
Cd169 O179 2.240 . S
Cd170 O171 2.240 . S
Cd170 O178 2.223 . S
Cd170 O180 2.297 . S
Cd170 O181 2.439 . S
O171 Cd170 2.240 . S
O171 C176 1.279 . S
O172 Cd169 2.297 . S
O172 C174 1.247 . S
O173 Cd169 2.439 . S
O173 C174 1.208 . S
C174 O172 1.247 . S
C174 O173 1.208 . S
C175 O180 1.247 . S
C175 O181 1.208 . S
C176 O168 1.315 . S
C176 O171 1.279 . S
C177 O178 1.315 . S
C177 O179 1.279 . S
O178 Cd170 2.223 . S
O178 C177 1.315 . S
O179 Cd169 2.240 . S
O179 C177 1.279 . S
O180 Cd170 2.297 . S
O180 C175 1.247 . S
O181 Cd170 2.439 . S
O181 C175 1.208 . S
O182 Cd183 2.223 . S
O182 C190 1.315 . S
Cd183 O182 2.223 . S
Cd183 O186 2.297 . S
Cd183 O187 2.439 . S
Cd183 O193 2.240 . S
Cd184 O185 2.240 . S
Cd184 O192 2.223 . S
Cd184 O194 2.297 . S
Cd184 O195 2.439 . S
O185 Cd184 2.240 . S
O185 C190 1.279 . S
O186 Cd183 2.297 . S
O186 C188 1.247 . S
O187 Cd183 2.439 . S
O187 C188 1.208 . S
C188 O186 1.247 . S
C188 O187 1.208 . S
C189 O194 1.247 . S
C189 O195 1.208 . S
C190 O182 1.315 . S
C190 O185 1.279 . S
C191 O192 1.315 . S
C191 O193 1.279 . S
O192 Cd184 2.223 . S
O192 C191 1.315 . S
O193 Cd183 2.240 . S
O193 C191 1.279 . S
O194 Cd184 2.297 . S
O194 C189 1.247 . S
O195 Cd184 2.439 . S
O195 C189 1.208 . S
O196 Cd197 2.223 . S
O196 C204 1.315 . S
Cd197 O196 2.223 . S
Cd197 O200 2.297 . S
Cd197 O201 2.439 . S
Cd197 O207 2.240 . S
Cd198 O199 2.240 . S
Cd198 O206 2.223 . S
Cd198 O208 2.297 . S
Cd198 O209 2.439 . S
O199 Cd198 2.240 . S
O199 C204 1.279 . S
O200 Cd197 2.297 . S
O200 C202 1.247 . S
O201 Cd197 2.439 . S
O201 C202 1.208 . S
C202 O200 1.247 . S
C202 O201 1.208 . S
C203 O208 1.247 . S
C203 O209 1.208 . S
C204 O196 1.315 . S
C204 O199 1.279 . S
C205 O206 1.315 . S
C205 O207 1.279 . S
O206 Cd198 2.223 . S
O206 C205 1.315 . S
O207 Cd197 2.240 . S
O207 C205 1.279 . S
O208 Cd198 2.297 . S
O208 C203 1.247 . S
O209 Cd198 2.439 . S
O209 C203 1.208 . S
O210 Cd211 2.223 . S
O210 C218 1.315 . S
Cd211 O210 2.223 . S
Cd211 O214 2.297 . S
Cd211 O215 2.439 . S
Cd211 O221 2.240 . S
Cd212 O213 2.240 . S
Cd212 O220 2.223 . S
Cd212 O222 2.297 . S
Cd212 O223 2.439 . S
O213 Cd212 2.240 . S
O213 C218 1.279 . S
O214 Cd211 2.297 . S
O214 C216 1.247 . S
O215 Cd211 2.439 . S
O215 C216 1.208 . S
C216 O214 1.247 . S
C216 O215 1.208 . S
C217 O222 1.247 . S
C217 O223 1.208 . S
C218 O210 1.315 . S
C218 O213 1.279 . S
C219 O220 1.315 . S
C219 O221 1.279 . S
O220 Cd212 2.223 . S
O220 C219 1.315 . S
O221 Cd211 2.240 . S
O221 C219 1.279 . S
O222 Cd212 2.297 . S
O222 C217 1.247 . S
O223 Cd212 2.439 . S
O223 C217 1.208 . S
O224 Cd225 2.223 . S
O224 C232 1.315 . S
Cd225 O224 2.223 . S
Cd225 O228 2.297 1_545 S
Cd225 O229 2.439 1_545 S
Cd225 O235 2.240 1_655 S
Cd226 O227 2.240 . S
Cd226 O234 2.223 1_655 S
Cd226 O236 2.297 . S
Cd226 O237 2.439 . S
O227 Cd226 2.240 . S
O227 C232 1.279 . S
O228 Cd225 2.297 1_565 S
O228 C230 1.247 . S
O229 Cd225 2.439 1_565 S
O229 C230 1.208 . S
C230 O228 1.247 . S
C230 O229 1.208 . S
C231 O236 1.247 . S
C231 O237 1.208 . S
C232 O224 1.315 . S
C232 O227 1.279 . S
C233 O234 1.315 . S
C233 O235 1.279 . S
O234 Cd226 2.223 1_455 S
O234 C233 1.315 . S
O235 Cd225 2.240 1_455 S
O235 C233 1.279 . S
O236 Cd226 2.297 . S
O236 C231 1.247 . S
O237 Cd226 2.439 . S
O237 C231 1.208 . S
O238 Cd239 2.223 . S
O238 C246 1.315 . S
Cd239 O238 2.223 . S
Cd239 O242 2.297 . S
Cd239 O243 2.439 . S
Cd239 O249 2.240 . S
Cd240 O241 2.240 . S
Cd240 O248 2.223 . S
Cd240 O250 2.297 . S
Cd240 O251 2.439 . S
O241 Cd240 2.240 . S
O241 C246 1.279 . S
O242 Cd239 2.297 . S
O242 C244 1.247 . S
O243 Cd239 2.439 . S
O243 C244 1.208 . S
C244 O242 1.247 . S
C244 O243 1.208 . S
C245 O250 1.247 . S
C245 O251 1.208 . S
C246 O238 1.315 . S
C246 O241 1.279 . S
C247 O248 1.315 . S
C247 O249 1.279 . S
O248 Cd240 2.223 . S
O248 C247 1.315 . S
O249 Cd239 2.240 . S
O249 C247 1.279 . S
O250 Cd240 2.297 . S
O250 C245 1.247 . S
O251 Cd240 2.439 . S
O251 C245 1.208 . S
O252 Cd253 2.223 . S
O252 C260 1.315 . S
Cd253 O252 2.223 . S
Cd253 O256 2.297 . S
Cd253 O257 2.439 . S
Cd253 O263 2.240 1_655 S
Cd254 O255 2.240 . S
Cd254 O262 2.223 1_655 S
Cd254 O264 2.297 . S
Cd254 O265 2.439 . S
O255 Cd254 2.240 . S
O255 C260 1.279 . S
O256 Cd253 2.297 . S
O256 C258 1.247 . S
O257 Cd253 2.439 . S
O257 C258 1.208 . S
C258 O256 1.247 . S
C258 O257 1.208 . S
C259 O264 1.247 . S
C259 O265 1.208 . S
C260 O252 1.315 . S
C260 O255 1.279 . S
C261 O262 1.315 . S
C261 O263 1.279 . S
O262 Cd254 2.223 1_455 S
O262 C261 1.315 . S
O263 Cd253 2.240 1_455 S
O263 C261 1.279 . S
O264 Cd254 2.297 . S
O264 C259 1.247 . S
O265 Cd254 2.439 . S
O265 C259 1.208 . S
O266 Cd267 2.223 . S
O266 C274 1.315 . S
Cd267 O266 2.223 . S
Cd267 O270 2.297 1_545 S
Cd267 O271 2.439 1_545 S
Cd267 O277 2.240 . S
Cd268 O269 2.240 . S
Cd268 O276 2.223 . S
Cd268 O278 2.297 . S
Cd268 O279 2.439 . S
O269 Cd268 2.240 . S
O269 C274 1.279 . S
O270 Cd267 2.297 1_565 S
O270 C272 1.247 . S
O271 Cd267 2.439 1_565 S
O271 C272 1.208 . S
C272 O270 1.247 . S
C272 O271 1.208 . S
C273 O278 1.247 . S
C273 O279 1.208 . S
C274 O266 1.315 . S
C274 O269 1.279 . S
C275 O276 1.315 . S
C275 O277 1.279 . S
O276 Cd268 2.223 . S
O276 C275 1.315 . S
O277 Cd267 2.240 . S
O277 C275 1.279 . S
O278 Cd268 2.297 . S
O278 C273 1.247 . S
O279 Cd268 2.439 . S
O279 C273 1.208 . S
O280 Cd281 2.223 . S
O280 C288 1.315 . S
Cd281 O280 2.223 . S
Cd281 O284 2.297 1_565 S
Cd281 O285 2.439 1_565 S
Cd281 O291 2.240 1_455 S
Cd282 O283 2.240 . S
Cd282 O290 2.223 1_455 S
Cd282 O292 2.297 . S
Cd282 O293 2.439 . S
O283 Cd282 2.240 . S
O283 C288 1.279 . S
O284 Cd281 2.297 1_545 S
O284 C286 1.247 . S
O285 Cd281 2.439 1_545 S
O285 C286 1.208 . S
C286 O284 1.247 . S
C286 O285 1.208 . S
C287 O292 1.247 . S
C287 O293 1.208 . S
C288 O280 1.315 . S
C288 O283 1.279 . S
C289 O290 1.315 . S
C289 O291 1.279 . S
O290 Cd282 2.223 1_655 S
O290 C289 1.315 . S
O291 Cd281 2.240 1_655 S
O291 C289 1.279 . S
O292 Cd282 2.297 . S
O292 C287 1.247 . S
O293 Cd282 2.439 . S
O293 C287 1.208 . S
O294 Cd295 2.223 . S
O294 C302 1.315 . S
Cd295 O294 2.223 . S
Cd295 O298 2.297 . S
Cd295 O299 2.439 . S
Cd295 O305 2.240 . S
Cd296 O297 2.240 . S
Cd296 O304 2.223 . S
Cd296 O306 2.297 . S
Cd296 O307 2.439 . S
O297 Cd296 2.240 . S
O297 C302 1.279 . S
O298 Cd295 2.297 . S
O298 C300 1.247 . S
O299 Cd295 2.439 . S
O299 C300 1.208 . S
C300 O298 1.247 . S
C300 O299 1.208 . S
C301 O306 1.247 . S
C301 O307 1.208 . S
C302 O294 1.315 . S
C302 O297 1.279 . S
C303 O304 1.315 . S
C303 O305 1.279 . S
O304 Cd296 2.223 . S
O304 C303 1.315 . S
O305 Cd295 2.240 . S
O305 C303 1.279 . S
O306 Cd296 2.297 . S
O306 C301 1.247 . S
O307 Cd296 2.439 . S
O307 C301 1.208 . S
O308 Cd309 2.223 . S
O308 C316 1.315 . S
Cd309 O308 2.223 . S
Cd309 O312 2.297 . S
Cd309 O313 2.439 . S
Cd309 O319 2.240 1_455 S
Cd310 O311 2.240 . S
Cd310 O318 2.223 1_455 S
Cd310 O320 2.297 . S
Cd310 O321 2.439 . S
O311 Cd310 2.240 . S
O311 C316 1.279 . S
O312 Cd309 2.297 . S
O312 C314 1.247 . S
O313 Cd309 2.439 . S
O313 C314 1.208 . S
C314 O312 1.247 . S
C314 O313 1.208 . S
C315 O320 1.247 . S
C315 O321 1.208 . S
C316 O308 1.315 . S
C316 O311 1.279 . S
C317 O318 1.315 . S
C317 O319 1.279 . S
O318 Cd310 2.223 1_655 S
O318 C317 1.315 . S
O319 Cd309 2.240 1_655 S
O319 C317 1.279 . S
O320 Cd310 2.297 . S
O320 C315 1.247 . S
O321 Cd310 2.439 . S
O321 C315 1.208 . S
O322 Cd323 2.223 . S
O322 C330 1.315 . S
Cd323 O322 2.223 . S
Cd323 O326 2.297 1_565 S
Cd323 O327 2.439 1_565 S
Cd323 O333 2.240 . S
Cd324 O325 2.240 . S
Cd324 O332 2.223 . S
Cd324 O334 2.297 . S
Cd324 O335 2.439 . S
O325 Cd324 2.240 . S
O325 C330 1.279 . S
O326 Cd323 2.297 1_545 S
O326 C328 1.247 . S
O327 Cd323 2.439 1_545 S
O327 C328 1.208 . S
C328 O326 1.247 . S
C328 O327 1.208 . S
C329 O334 1.247 . S
C329 O335 1.208 . S
C330 O322 1.315 . S
C330 O325 1.279 . S
C331 O332 1.315 . S
C331 O333 1.279 . S
O332 Cd324 2.223 . S
O332 C331 1.315 . S
O333 Cd323 2.240 . S
O333 C331 1.279 . S
O334 Cd324 2.297 . S
O334 C329 1.247 . S
O335 Cd324 2.439 . S
O335 C329 1.208 . S
O336 Cd337 2.223 . S
O336 C344 1.315 . S
Cd337 O336 2.223 . S
Cd337 O340 2.297 . S
Cd337 O341 2.439 . S
Cd337 O347 2.240 1_655 S
Cd338 O339 2.240 . S
Cd338 O346 2.223 1_655 S
Cd338 O348 2.297 . S
Cd338 O349 2.439 . S
O339 Cd338 2.240 . S
O339 C344 1.279 . S
O340 Cd337 2.297 . S
O340 C342 1.247 . S
O341 Cd337 2.439 . S
O341 C342 1.208 . S
C342 O340 1.247 . S
C342 O341 1.208 . S
C343 O348 1.247 . S
C343 O349 1.208 . S
C344 O336 1.315 . S
C344 O339 1.279 . S
C345 O346 1.315 . S
C345 O347 1.279 . S
O346 Cd338 2.223 1_455 S
O346 C345 1.315 . S
O347 Cd337 2.240 1_455 S
O347 C345 1.279 . S
O348 Cd338 2.297 . S
O348 C343 1.247 . S
O349 Cd338 2.439 . S
O349 C343 1.208 . S
O350 Cd351 2.223 . S
O350 C358 1.315 . S
Cd351 O350 2.223 . S
Cd351 O354 2.297 . S
Cd351 O355 2.439 . S
Cd351 O361 2.240 . S
Cd352 O353 2.240 . S
Cd352 O360 2.223 . S
Cd352 O362 2.297 . S
Cd352 O363 2.439 . S
O353 Cd352 2.240 . S
O353 C358 1.279 . S
O354 Cd351 2.297 . S
O354 C356 1.247 . S
O355 Cd351 2.439 . S
O355 C356 1.208 . S
C356 O354 1.247 . S
C356 O355 1.208 . S
C357 O362 1.247 . S
C357 O363 1.208 . S
C358 O350 1.315 . S
C358 O353 1.279 . S
C359 O360 1.315 . S
C359 O361 1.279 . S
O360 Cd352 2.223 . S
O360 C359 1.315 . S
O361 Cd351 2.240 . S
O361 C359 1.279 . S
O362 Cd352 2.297 . S
O362 C357 1.247 . S
O363 Cd352 2.439 . S
O363 C357 1.208 . S
O364 Cd365 2.223 . S
O364 C372 1.315 . S
Cd365 O364 2.223 . S
Cd365 O368 2.297 . S
Cd365 O369 2.439 . S
Cd365 O375 2.240 1_655 S
Cd366 O367 2.240 . S
Cd366 O374 2.223 1_655 S
Cd366 O376 2.297 . S
Cd366 O377 2.439 . S
O367 Cd366 2.240 . S
O367 C372 1.279 . S
O368 Cd365 2.297 . S
O368 C370 1.247 . S
O369 Cd365 2.439 . S
O369 C370 1.208 . S
C370 O368 1.247 . S
C370 O369 1.208 . S
C371 O376 1.247 . S
C371 O377 1.208 . S
C372 O364 1.315 . S
C372 O367 1.279 . S
C373 O374 1.315 . S
C373 O375 1.279 . S
O374 Cd366 2.223 1_455 S
O374 C373 1.315 . S
O375 Cd365 2.240 1_455 S
O375 C373 1.279 . S
O376 Cd366 2.297 . S
O376 C371 1.247 . S
O377 Cd366 2.439 . S
O377 C371 1.208 . S
O378 Cd379 2.223 . S
O378 C386 1.315 . S
Cd379 O378 2.223 . S
Cd379 O382 2.297 . S
Cd379 O383 2.439 . S
Cd379 O389 2.240 . S
Cd380 O381 2.240 . S
Cd380 O388 2.223 . S
Cd380 O390 2.297 . S
Cd380 O391 2.439 . S
O381 Cd380 2.240 . S
O381 C386 1.279 . S
O382 Cd379 2.297 . S
O382 C384 1.247 . S
O383 Cd379 2.439 . S
O383 C384 1.208 . S
C384 O382 1.247 . S
C384 O383 1.208 . S
C385 O390 1.247 . S
C385 O391 1.208 . S
C386 O378 1.315 . S
C386 O381 1.279 . S
C387 O388 1.315 . S
C387 O389 1.279 . S
O388 Cd380 2.223 . S
O388 C387 1.315 . S
O389 Cd379 2.240 . S
O389 C387 1.279 . S
O390 Cd380 2.297 . S
O390 C385 1.247 . S
O391 Cd380 2.439 . S
O391 C385 1.208 . S
O392 Cd393 2.223 . S
O392 C400 1.315 . S
Cd393 O392 2.223 . S
Cd393 O396 2.297 . S
Cd393 O397 2.439 . S
Cd393 O403 2.240 1_455 S
Cd394 O395 2.240 . S
Cd394 O402 2.223 1_455 S
Cd394 O404 2.297 . S
Cd394 O405 2.439 . S
O395 Cd394 2.240 . S
O395 C400 1.279 . S
O396 Cd393 2.297 . S
O396 C398 1.247 . S
O397 Cd393 2.439 . S
O397 C398 1.208 . S
C398 O396 1.247 . S
C398 O397 1.208 . S
C399 O404 1.247 . S
C399 O405 1.208 . S
C400 O392 1.315 . S
C400 O395 1.279 . S
C401 O402 1.315 . S
C401 O403 1.279 . S
O402 Cd394 2.223 1_655 S
O402 C401 1.315 . S
O403 Cd393 2.240 1_655 S
O403 C401 1.279 . S
O404 Cd394 2.297 . S
O404 C399 1.247 . S
O405 Cd394 2.439 . S
O405 C399 1.208 . S
O406 Cd407 2.223 . S
O406 C414 1.315 . S
Cd407 O406 2.223 . S
Cd407 O410 2.297 . S
Cd407 O411 2.439 . S
Cd407 O417 2.240 . S
Cd408 O409 2.240 . S
Cd408 O416 2.223 . S
Cd408 O418 2.297 . S
Cd408 O419 2.439 . S
O409 Cd408 2.240 . S
O409 C414 1.279 . S
O410 Cd407 2.297 . S
O410 C412 1.247 . S
O411 Cd407 2.439 . S
O411 C412 1.208 . S
C412 O410 1.247 . S
C412 O411 1.208 . S
C413 O418 1.247 . S
C413 O419 1.208 . S
C414 O406 1.315 . S
C414 O409 1.279 . S
C415 O416 1.315 . S
C415 O417 1.279 . S
O416 Cd408 2.223 . S
O416 C415 1.315 . S
O417 Cd407 2.240 . S
O417 C415 1.279 . S
O418 Cd408 2.297 . S
O418 C413 1.247 . S
O419 Cd408 2.439 . S
O419 C413 1.208 . S
O420 Cd421 2.223 . S
O420 C428 1.315 . S
Cd421 O420 2.223 . S
Cd421 O424 2.297 . S
Cd421 O425 2.439 . S
Cd421 O431 2.240 1_455 S
Cd422 O423 2.240 . S
Cd422 O430 2.223 1_455 S
Cd422 O432 2.297 . S
Cd422 O433 2.439 . S
O423 Cd422 2.240 . S
O423 C428 1.279 . S
O424 Cd421 2.297 . S
O424 C426 1.247 . S
O425 Cd421 2.439 . S
O425 C426 1.208 . S
C426 O424 1.247 . S
C426 O425 1.208 . S
C427 O432 1.247 . S
C427 O433 1.208 . S
C428 O420 1.315 . S
C428 O423 1.279 . S
C429 O430 1.315 . S
C429 O431 1.279 . S
O430 Cd422 2.223 1_655 S
O430 C429 1.315 . S
O431 Cd421 2.240 1_655 S
O431 C429 1.279 . S
O432 Cd422 2.297 . S
O432 C427 1.247 . S
O433 Cd422 2.439 . S
O433 C427 1.208 . S
O434 Cd435 2.223 . S
O434 C442 1.315 . S
Cd435 O434 2.223 . S
Cd435 O438 2.297 . S
Cd435 O439 2.439 . S
Cd435 O445 2.240 . S
Cd436 O437 2.240 . S
Cd436 O444 2.223 . S
Cd436 O446 2.297 . S
Cd436 O447 2.439 . S
O437 Cd436 2.240 . S
O437 C442 1.279 . S
O438 Cd435 2.297 . S
O438 C440 1.247 . S
O439 Cd435 2.439 . S
O439 C440 1.208 . S
C440 O438 1.247 . S
C440 O439 1.208 . S
C441 O446 1.247 . S
C441 O447 1.208 . S
C442 O434 1.315 . S
C442 O437 1.279 . S
C443 O444 1.315 . S
C443 O445 1.279 . S
O444 Cd436 2.223 . S
O444 C443 1.315 . S
O445 Cd435 2.240 . S
O445 C443 1.279 . S
O446 Cd436 2.297 . S
O446 C441 1.247 . S
O447 Cd436 2.439 . S
O447 C441 1.208 . S
C448 C449 1.391 . S
C448 C450 1.394 . S
C448 H464 0.931 . S
C449 C448 1.391 . S
C449 C453 1.376 . S
C450 C448 1.394 . S
C450 C451 1.369 . S
C450 C454 1.531 . S
C451 C450 1.369 . S
C451 C452 1.410 . S
C451 C459 1.503 . S
C452 C451 1.410 . S
C452 C453 1.392 . S
C452 C455 1.511 . S
C453 C449 1.376 . S
C453 C452 1.392 . S
C453 H465 0.929 . S
C454 C450 1.531 . S
C454 H466 0.960 . S
C454 H467 0.962 . S
C454 H468 0.960 . S
C455 C452 1.511 . S
C455 H469 0.961 . S
C455 H470 0.961 . S
C455 H471 0.961 . S
C456 C457 1.370 . S
C456 C458 1.363 . S
C456 H472 0.931 . S
C457 C456 1.370 . S
C457 C461 1.408 . S
C458 C456 1.363 . S
C458 C459 1.370 . S
C458 C462 1.524 . S
C459 C451 1.503 . S
C459 C458 1.370 . S
C459 C460 1.403 . S
C460 C459 1.403 . S
C460 C461 1.404 . S
C460 C463 1.539 . S
C461 C457 1.408 . S
C461 C460 1.404 . S
C461 H473 0.930 . S
C462 C458 1.524 . S
C462 H474 0.956 . S
C462 H475 0.961 . S
C462 H476 0.961 . S
C463 C460 1.539 . S
C463 H477 0.958 . S
C463 H478 0.961 . S
C463 H479 0.960 . S
H464 C448 0.931 . S
H465 C453 0.929 . S
H466 C454 0.960 . S
H467 C454 0.962 . S
H468 C454 0.960 . S
H469 C455 0.961 . S
H470 C455 0.961 . S
H471 C455 0.961 . S
H472 C456 0.931 . S
H473 C461 0.930 . S
H474 C462 0.956 . S
H475 C462 0.961 . S
H476 C462 0.961 . S
H477 C463 0.958 . S
H478 C463 0.961 . S
H479 C463 0.960 . S
C480 C481 1.391 . S
C480 C482 1.394 . S
C480 H496 0.931 . S
C481 C480 1.391 . S
C481 C485 1.376 . S
C482 C480 1.394 . S
C482 C483 1.369 . S
C482 C486 1.531 . S
C483 C482 1.369 . S
C483 C484 1.410 . S
C483 C491 1.503 . S
C484 C483 1.410 . S
C484 C485 1.392 . S
C484 C487 1.511 . S
C485 C481 1.376 . S
C485 C484 1.392 . S
C485 H497 0.929 . S
C486 C482 1.531 . S
C486 H498 0.960 . S
C486 H499 0.962 . S
C486 H500 0.960 . S
C487 C484 1.511 . S
C487 H501 0.961 . S
C487 H502 0.961 . S
C487 H503 0.961 . S
C488 C489 1.370 . S
C488 C490 1.363 . S
C488 H504 0.931 . S
C489 C488 1.370 . S
C489 C493 1.408 . S
C490 C488 1.363 . S
C490 C491 1.370 . S
C490 C494 1.524 . S
C491 C483 1.503 . S
C491 C490 1.370 . S
C491 C492 1.403 . S
C492 C491 1.403 . S
C492 C493 1.404 . S
C492 C495 1.539 . S
C493 C489 1.408 . S
C493 C492 1.404 . S
C493 H505 0.930 . S
C494 C490 1.524 . S
C494 H506 0.956 . S
C494 H507 0.961 . S
C494 H508 0.961 . S
C495 C492 1.539 . S
C495 H509 0.958 . S
C495 H510 0.961 . S
C495 H511 0.960 . S
H496 C480 0.931 . S
H497 C485 0.929 . S
H498 C486 0.960 . S
H499 C486 0.962 . S
H500 C486 0.960 . S
H501 C487 0.961 . S
H502 C487 0.961 . S
H503 C487 0.961 . S
H504 C488 0.931 . S
H505 C493 0.930 . S
H506 C494 0.956 . S
H507 C494 0.961 . S
H508 C494 0.961 . S
H509 C495 0.958 . S
H510 C495 0.961 . S
H511 C495 0.960 . S
C512 C513 1.391 . S
C512 C514 1.394 . S
C512 H528 0.931 . S
C513 C512 1.391 . S
C513 C517 1.376 . S
C514 C512 1.394 . S
C514 C515 1.369 . S
C514 C518 1.531 . S
C515 C514 1.369 . S
C515 C516 1.410 . S
C515 C523 1.503 . S
C516 C515 1.410 . S
C516 C517 1.392 . S
C516 C519 1.511 . S
C517 C513 1.376 . S
C517 C516 1.392 . S
C517 H529 0.929 . S
C518 C514 1.531 . S
C518 H530 0.960 . S
C518 H531 0.962 . S
C518 H532 0.960 . S
C519 C516 1.511 . S
C519 H533 0.961 . S
C519 H534 0.961 . S
C519 H535 0.961 . S
C520 C521 1.370 . S
C520 C522 1.363 . S
C520 H536 0.931 . S
C521 C520 1.370 . S
C521 C525 1.408 . S
C522 C520 1.363 . S
C522 C523 1.370 . S
C522 C526 1.524 . S
C523 C515 1.503 . S
C523 C522 1.370 . S
C523 C524 1.403 . S
C524 C523 1.403 . S
C524 C525 1.404 . S
C524 C527 1.539 . S
C525 C521 1.408 . S
C525 C524 1.404 . S
C525 H537 0.930 . S
C526 C522 1.524 . S
C526 H538 0.956 . S
C526 H539 0.961 . S
C526 H540 0.961 . S
C527 C524 1.539 . S
C527 H541 0.958 . S
C527 H542 0.961 . S
C527 H543 0.960 . S
H528 C512 0.931 . S
H529 C517 0.929 . S
H530 C518 0.960 . S
H531 C518 0.962 . S
H532 C518 0.960 . S
H533 C519 0.961 . S
H534 C519 0.961 . S
H535 C519 0.961 . S
H536 C520 0.931 . S
H537 C525 0.930 . S
H538 C526 0.956 . S
H539 C526 0.961 . S
H540 C526 0.961 . S
H541 C527 0.958 . S
H542 C527 0.961 . S
H543 C527 0.960 . S
C544 C545 1.391 . S
C544 C546 1.394 . S
C544 H560 0.931 . S
C545 C544 1.391 . S
C545 C549 1.376 . S
C546 C544 1.394 . S
C546 C547 1.369 . S
C546 C550 1.531 . S
C547 C546 1.369 . S
C547 C548 1.410 . S
C547 C555 1.503 . S
C548 C547 1.410 . S
C548 C549 1.392 . S
C548 C551 1.511 . S
C549 C545 1.376 . S
C549 C548 1.392 . S
C549 H561 0.929 . S
C550 C546 1.531 . S
C550 H562 0.960 . S
C550 H563 0.962 . S
C550 H564 0.960 . S
C551 C548 1.511 . S
C551 H565 0.961 . S
C551 H566 0.961 . S
C551 H567 0.961 . S
C552 C553 1.370 . S
C552 C554 1.363 . S
C552 H568 0.931 . S
C553 C552 1.370 . S
C553 C557 1.408 . S
C554 C552 1.363 . S
C554 C555 1.370 . S
C554 C558 1.524 . S
C555 C547 1.503 . S
C555 C554 1.370 . S
C555 C556 1.403 . S
C556 C555 1.403 . S
C556 C557 1.404 . S
C556 C559 1.539 . S
C557 C553 1.408 . S
C557 C556 1.404 . S
C557 H569 0.930 . S
C558 C554 1.524 . S
C558 H570 0.956 . S
C558 H571 0.961 . S
C558 H572 0.961 . S
C559 C556 1.539 . S
C559 H573 0.958 . S
C559 H574 0.961 . S
C559 H575 0.960 . S
H560 C544 0.931 . S
H561 C549 0.929 . S
H562 C550 0.960 . S
H563 C550 0.962 . S
H564 C550 0.960 . S
H565 C551 0.961 . S
H566 C551 0.961 . S
H567 C551 0.961 . S
H568 C552 0.931 . S
H569 C557 0.930 . S
H570 C558 0.956 . S
H571 C558 0.961 . S
H572 C558 0.961 . S
H573 C559 0.958 . S
H574 C559 0.961 . S
H575 C559 0.960 . S
C576 C577 1.391 . S
C576 C578 1.394 . S
C576 H592 0.931 . S
C577 C576 1.391 . S
C577 C581 1.376 . S
C578 C576 1.394 . S
C578 C579 1.369 . S
C578 C582 1.531 . S
C579 C578 1.369 . S
C579 C580 1.410 . S
C579 C587 1.503 . S
C580 C579 1.410 . S
C580 C581 1.392 . S
C580 C583 1.511 . S
C581 C577 1.376 . S
C581 C580 1.392 . S
C581 H593 0.929 . S
C582 C578 1.531 . S
C582 H594 0.960 . S
C582 H595 0.962 . S
C582 H596 0.960 . S
C583 C580 1.511 . S
C583 H597 0.961 . S
C583 H598 0.961 . S
C583 H599 0.961 . S
C584 C585 1.370 . S
C584 C586 1.363 . S
C584 H600 0.931 . S
C585 C584 1.370 . S
C585 C589 1.408 . S
C586 C584 1.363 . S
C586 C587 1.370 . S
C586 C590 1.524 . S
C587 C579 1.503 . S
C587 C586 1.370 . S
C587 C588 1.403 . S
C588 C587 1.403 . S
C588 C589 1.404 . S
C588 C591 1.539 . S
C589 C585 1.408 . S
C589 C588 1.404 . S
C589 H601 0.930 . S
C590 C586 1.524 . S
C590 H602 0.956 . S
C590 H603 0.961 . S
C590 H604 0.961 . S
C591 C588 1.539 . S
C591 H605 0.958 . S
C591 H606 0.961 . S
C591 H607 0.960 . S
H592 C576 0.931 . S
H593 C581 0.929 . S
H594 C582 0.960 . S
H595 C582 0.962 . S
H596 C582 0.960 . S
H597 C583 0.961 . S
H598 C583 0.961 . S
H599 C583 0.961 . S
H600 C584 0.931 . S
H601 C589 0.930 . S
H602 C590 0.956 . S
H603 C590 0.961 . S
H604 C590 0.961 . S
H605 C591 0.958 . S
H606 C591 0.961 . S
H607 C591 0.960 . S
C608 C609 1.391 . S
C608 C610 1.394 . S
C608 H624 0.931 . S
C609 C608 1.391 . S
C609 C613 1.376 . S
C610 C608 1.394 . S
C610 C611 1.369 . S
C610 C614 1.531 . S
C611 C610 1.369 . S
C611 C612 1.410 . S
C611 C619 1.503 . S
C612 C611 1.410 . S
C612 C613 1.392 . S
C612 C615 1.511 . S
C613 C609 1.376 . S
C613 C612 1.392 . S
C613 H625 0.929 . S
C614 C610 1.531 . S
C614 H626 0.960 . S
C614 H627 0.962 . S
C614 H628 0.960 . S
C615 C612 1.511 . S
C615 H629 0.961 . S
C615 H630 0.961 . S
C615 H631 0.961 . S
C616 C617 1.370 . S
C616 C618 1.363 . S
C616 H632 0.931 . S
C617 C616 1.370 . S
C617 C621 1.408 . S
C618 C616 1.363 . S
C618 C619 1.370 . S
C618 C622 1.524 . S
C619 C611 1.503 . S
C619 C618 1.370 . S
C619 C620 1.403 . S
C620 C619 1.403 . S
C620 C621 1.404 . S
C620 C623 1.539 . S
C621 C617 1.408 . S
C621 C620 1.404 . S
C621 H633 0.930 . S
C622 C618 1.524 . S
C622 H634 0.956 . S
C622 H635 0.961 . S
C622 H636 0.961 . S
C623 C620 1.539 . S
C623 H637 0.958 . S
C623 H638 0.961 . S
C623 H639 0.960 . S
H624 C608 0.931 . S
H625 C613 0.929 . S
H626 C614 0.960 . S
H627 C614 0.962 . S
H628 C614 0.960 . S
H629 C615 0.961 . S
H630 C615 0.961 . S
H631 C615 0.961 . S
H632 C616 0.931 . S
H633 C621 0.930 . S
H634 C622 0.956 . S
H635 C622 0.961 . S
H636 C622 0.961 . S
H637 C623 0.958 . S
H638 C623 0.961 . S
H639 C623 0.960 . S
C640 C641 1.391 . S
C640 C642 1.394 . S
C640 H656 0.931 . S
C641 C640 1.391 . S
C641 C645 1.376 . S
C642 C640 1.394 . S
C642 C643 1.369 . S
C642 C646 1.531 . S
C643 C642 1.369 . S
C643 C644 1.410 . S
C643 C651 1.503 . S
C644 C643 1.410 . S
C644 C645 1.392 . S
C644 C647 1.511 . S
C645 C641 1.376 . S
C645 C644 1.392 . S
C645 H657 0.929 . S
C646 C642 1.531 . S
C646 H658 0.960 . S
C646 H659 0.962 . S
C646 H660 0.960 . S
C647 C644 1.511 . S
C647 H661 0.961 . S
C647 H662 0.961 . S
C647 H663 0.961 . S
C648 C649 1.370 . S
C648 C650 1.363 . S
C648 H664 0.931 . S
C649 C648 1.370 . S
C649 C653 1.408 . S
C650 C648 1.363 . S
C650 C651 1.370 . S
C650 C654 1.524 . S
C651 C643 1.503 . S
C651 C650 1.370 . S
C651 C652 1.403 . S
C652 C651 1.403 . S
C652 C653 1.404 . S
C652 C655 1.539 . S
C653 C649 1.408 . S
C653 C652 1.404 . S
C653 H665 0.930 . S
C654 C650 1.524 . S
C654 H666 0.956 . S
C654 H667 0.961 . S
C654 H668 0.961 . S
C655 C652 1.539 . S
C655 H669 0.958 . S
C655 H670 0.961 . S
C655 H671 0.960 . S
H656 C640 0.931 . S
H657 C645 0.929 . S
H658 C646 0.960 . S
H659 C646 0.962 . S
H660 C646 0.960 . S
H661 C647 0.961 . S
H662 C647 0.961 . S
H663 C647 0.961 . S
H664 C648 0.931 . S
H665 C653 0.930 . S
H666 C654 0.956 . S
H667 C654 0.961 . S
H668 C654 0.961 . S
H669 C655 0.958 . S
H670 C655 0.961 . S
H671 C655 0.960 . S
C672 C673 1.391 . S
C672 C674 1.394 . S
C672 H688 0.931 . S
C673 C672 1.391 . S
C673 C677 1.376 . S
C674 C672 1.394 . S
C674 C675 1.369 . S
C674 C678 1.531 . S
C675 C674 1.369 . S
C675 C676 1.410 . S
C675 C683 1.503 . S
C676 C675 1.410 . S
C676 C677 1.392 . S
C676 C679 1.511 . S
C677 C673 1.376 . S
C677 C676 1.392 . S
C677 H689 0.929 . S
C678 C674 1.531 . S
C678 H690 0.960 . S
C678 H691 0.962 . S
C678 H692 0.960 . S
C679 C676 1.511 . S
C679 H693 0.961 . S
C679 H694 0.961 . S
C679 H695 0.961 . S
C680 C681 1.370 . S
C680 C682 1.363 . S
C680 H696 0.931 . S
C681 C680 1.370 . S
C681 C685 1.408 . S
C682 C680 1.363 . S
C682 C683 1.370 . S
C682 C686 1.524 . S
C683 C675 1.503 . S
C683 C682 1.370 . S
C683 C684 1.403 . S
C684 C683 1.403 . S
C684 C685 1.404 . S
C684 C687 1.539 . S
C685 C681 1.408 . S
C685 C684 1.404 . S
C685 H697 0.930 . S
C686 C682 1.524 . S
C686 H698 0.956 . S
C686 H699 0.961 . S
C686 H700 0.961 . S
C687 C684 1.539 . S
C687 H701 0.958 . S
C687 H702 0.961 . S
C687 H703 0.960 . S
H688 C672 0.931 . S
H689 C677 0.929 . S
H690 C678 0.960 . S
H691 C678 0.962 . S
H692 C678 0.960 . S
H693 C679 0.961 . S
H694 C679 0.961 . S
H695 C679 0.961 . S
H696 C680 0.931 . S
H697 C685 0.930 . S
H698 C686 0.956 . S
H699 C686 0.961 . S
H700 C686 0.961 . S
H701 C687 0.958 . S
H702 C687 0.961 . S
H703 C687 0.960 . S
C704 C705 1.391 . S
C704 C706 1.394 . S
C704 H720 0.931 . S
C705 C704 1.391 . S
C705 C709 1.376 . S
C706 C704 1.394 . S
C706 C707 1.369 . S
C706 C710 1.531 . S
C707 C706 1.369 . S
C707 C708 1.410 . S
C707 C715 1.503 . S
C708 C707 1.410 . S
C708 C709 1.392 . S
C708 C711 1.511 1_655 S
C709 C705 1.376 . S
C709 C708 1.392 . S
C709 H721 0.929 . S
C710 C706 1.531 . S
C710 H722 0.960 . S
C710 H723 0.962 . S
C710 H724 0.960 . S
C711 C708 1.511 1_455 S
C711 H725 0.961 . S
C711 H726 0.961 1_455 S
C711 H727 0.961 . S
C712 C713 1.370 . S
C712 C714 1.363 . S
C712 H728 0.931 . S
C713 C712 1.370 . S
C713 C717 1.408 . S
C714 C712 1.363 . S
C714 C715 1.370 . S
C714 C718 1.524 . S
C715 C707 1.503 . S
C715 C714 1.370 . S
C715 C716 1.403 . S
C716 C715 1.403 . S
C716 C717 1.404 . S
C716 C719 1.539 . S
C717 C713 1.408 . S
C717 C716 1.404 . S
C717 H729 0.930 . S
C718 C714 1.524 . S
C718 H730 0.956 . S
C718 H731 0.961 . S
C718 H732 0.961 . S
C719 C716 1.539 . S
C719 H733 0.958 . S
C719 H734 0.961 . S
C719 H735 0.960 . S
H720 C704 0.931 . S
H721 C709 0.929 . S
H722 C710 0.960 . S
H723 C710 0.962 . S
H724 C710 0.960 . S
H725 C711 0.961 . S
H726 C711 0.961 1_655 S
H727 C711 0.961 . S
H728 C712 0.931 . S
H729 C717 0.930 . S
H730 C718 0.956 . S
H731 C718 0.961 . S
H732 C718 0.961 . S
H733 C719 0.958 . S
H734 C719 0.961 . S
H735 C719 0.960 . S
C736 C737 1.391 . S
C736 C738 1.394 . S
C736 H752 0.931 . S
C737 C736 1.391 . S
C737 C741 1.376 . S
C738 C736 1.394 . S
C738 C739 1.369 . S
C738 C742 1.531 . S
C739 C738 1.369 . S
C739 C740 1.410 . S
C739 C747 1.503 . S
C740 C739 1.410 . S
C740 C741 1.392 . S
C740 C743 1.511 . S
C741 C737 1.376 . S
C741 C740 1.392 . S
C741 H753 0.929 . S
C742 C738 1.531 . S
C742 H754 0.960 . S
C742 H755 0.962 . S
C742 H756 0.960 . S
C743 C740 1.511 . S
C743 H757 0.961 . S
C743 H758 0.961 . S
C743 H759 0.961 . S
C744 C745 1.370 . S
C744 C746 1.363 . S
C744 H760 0.931 . S
C745 C744 1.370 . S
C745 C749 1.408 . S
C746 C744 1.363 . S
C746 C747 1.370 . S
C746 C750 1.524 . S
C747 C739 1.503 . S
C747 C746 1.370 . S
C747 C748 1.403 . S
C748 C747 1.403 . S
C748 C749 1.404 . S
C748 C751 1.539 . S
C749 C745 1.408 . S
C749 C748 1.404 . S
C749 H761 0.930 . S
C750 C746 1.524 . S
C750 H762 0.956 . S
C750 H763 0.961 . S
C750 H764 0.961 . S
C751 C748 1.539 . S
C751 H765 0.958 . S
C751 H766 0.961 . S
C751 H767 0.960 . S
H752 C736 0.931 . S
H753 C741 0.929 . S
H754 C742 0.960 . S
H755 C742 0.962 . S
H756 C742 0.960 . S
H757 C743 0.961 . S
H758 C743 0.961 . S
H759 C743 0.961 . S
H760 C744 0.931 . S
H761 C749 0.930 . S
H762 C750 0.956 . S
H763 C750 0.961 . S
H764 C750 0.961 . S
H765 C751 0.958 . S
H766 C751 0.961 . S
H767 C751 0.960 . S
C768 C769 1.391 . S
C768 C770 1.394 . S
C768 H784 0.931 . S
C769 C768 1.391 . S
C769 C773 1.376 . S
C770 C768 1.394 . S
C770 C771 1.369 . S
C770 C774 1.531 . S
C771 C770 1.369 . S
C771 C772 1.410 . S
C771 C779 1.503 . S
C772 C771 1.410 . S
C772 C773 1.392 . S
C772 C775 1.511 . S
C773 C769 1.376 . S
C773 C772 1.392 . S
C773 H785 0.929 . S
C774 C770 1.531 . S
C774 H786 0.960 . S
C774 H787 0.962 . S
C774 H788 0.960 . S
C775 C772 1.511 . S
C775 H789 0.961 . S
C775 H790 0.961 . S
C775 H791 0.961 . S
C776 C777 1.370 . S
C776 C778 1.363 . S
C776 H792 0.931 . S
C777 C776 1.370 . S
C777 C781 1.408 . S
C778 C776 1.363 . S
C778 C779 1.370 . S
C778 C782 1.524 . S
C779 C771 1.503 . S
C779 C778 1.370 . S
C779 C780 1.403 . S
C780 C779 1.403 . S
C780 C781 1.404 . S
C780 C783 1.539 1_455 S
C781 C777 1.408 . S
C781 C780 1.404 . S
C781 H793 0.930 . S
C782 C778 1.524 . S
C782 H794 0.956 . S
C782 H795 0.961 . S
C782 H796 0.961 . S
C783 C780 1.539 1_655 S
C783 H797 0.958 . S
C783 H798 0.961 . S
C783 H799 0.960 . S
H784 C768 0.931 . S
H785 C773 0.929 . S
H786 C774 0.960 . S
H787 C774 0.962 . S
H788 C774 0.960 . S
H789 C775 0.961 . S
H790 C775 0.961 . S
H791 C775 0.961 . S
H792 C776 0.931 . S
H793 C781 0.930 . S
H794 C782 0.956 . S
H795 C782 0.961 . S
H796 C782 0.961 . S
H797 C783 0.958 . S
H798 C783 0.961 . S
H799 C783 0.960 . S
C800 C801 1.391 . S
C800 C802 1.394 . S
C800 H816 0.931 . S
C801 C800 1.391 . S
C801 C805 1.376 . S
C802 C800 1.394 . S
C802 C803 1.369 . S
C802 C806 1.531 . S
C803 C802 1.369 . S
C803 C804 1.410 . S
C803 C811 1.503 . S
C804 C803 1.410 . S
C804 C805 1.392 . S
C804 C807 1.511 . S
C805 C801 1.376 . S
C805 C804 1.392 . S
C805 H817 0.929 . S
C806 C802 1.531 . S
C806 H818 0.960 . S
C806 H819 0.962 . S
C806 H820 0.960 . S
C807 C804 1.511 . S
C807 H821 0.961 . S
C807 H822 0.961 . S
C807 H823 0.961 . S
C808 C809 1.370 . S
C808 C810 1.363 . S
C808 H824 0.931 . S
C809 C808 1.370 . S
C809 C813 1.408 . S
C810 C808 1.363 . S
C810 C811 1.370 . S
C810 C814 1.524 . S
C811 C803 1.503 . S
C811 C810 1.370 . S
C811 C812 1.403 . S
C812 C811 1.403 . S
C812 C813 1.404 . S
C812 C815 1.539 . S
C813 C809 1.408 . S
C813 C812 1.404 . S
C813 H825 0.930 . S
C814 C810 1.524 . S
C814 H826 0.956 . S
C814 H827 0.961 . S
C814 H828 0.961 . S
C815 C812 1.539 . S
C815 H829 0.958 . S
C815 H830 0.961 . S
C815 H831 0.960 . S
H816 C800 0.931 . S
H817 C805 0.929 . S
H818 C806 0.960 . S
H819 C806 0.962 . S
H820 C806 0.960 . S
H821 C807 0.961 . S
H822 C807 0.961 . S
H823 C807 0.961 . S
H824 C808 0.931 . S
H825 C813 0.930 . S
H826 C814 0.956 . S
H827 C814 0.961 . S
H828 C814 0.961 . S
H829 C815 0.958 . S
H830 C815 0.961 . S
H831 C815 0.960 . S
C832 C833 1.391 . S
C832 C834 1.394 . S
C832 H848 0.931 . S
C833 C832 1.391 . S
C833 C837 1.376 . S
C834 C832 1.394 . S
C834 C835 1.369 . S
C834 C838 1.531 1_655 S
C835 C834 1.369 . S
C835 C836 1.410 . S
C835 C843 1.503 . S
C836 C835 1.410 . S
C836 C837 1.392 . S
C836 C839 1.511 . S
C837 C833 1.376 . S
C837 C836 1.392 . S
C837 H849 0.929 . S
C838 C834 1.531 1_455 S
C838 H850 0.960 . S
C838 H851 0.962 . S
C838 H852 0.960 . S
C839 C836 1.511 . S
C839 H853 0.961 . S
C839 H854 0.961 . S
C839 H855 0.961 . S
C840 C841 1.370 . S
C840 C842 1.363 . S
C840 H856 0.931 . S
C841 C840 1.370 . S
C841 C845 1.408 . S
C842 C840 1.363 . S
C842 C843 1.370 . S
C842 C846 1.524 . S
C843 C835 1.503 . S
C843 C842 1.370 . S
C843 C844 1.403 . S
C844 C843 1.403 . S
C844 C845 1.404 . S
C844 C847 1.539 . S
C845 C841 1.408 . S
C845 C844 1.404 . S
C845 H857 0.930 . S
C846 C842 1.524 . S
C846 H858 0.956 . S
C846 H859 0.961 . S
C846 H860 0.961 . S
C847 C844 1.539 . S
C847 H861 0.958 . S
C847 H862 0.961 . S
C847 H863 0.960 . S
H848 C832 0.931 . S
H849 C837 0.929 . S
H850 C838 0.960 . S
H851 C838 0.962 . S
H852 C838 0.960 . S
H853 C839 0.961 . S
H854 C839 0.961 . S
H855 C839 0.961 . S
H856 C840 0.931 . S
H857 C845 0.930 . S
H858 C846 0.956 . S
H859 C846 0.961 . S
H860 C846 0.961 . S
H861 C847 0.958 . S
H862 C847 0.961 . S
H863 C847 0.960 . S
C864 C865 1.391 . S
C864 C866 1.394 . S
C864 H880 0.931 . S
C865 C864 1.391 . S
C865 C869 1.376 . S
C866 C864 1.394 . S
C866 C867 1.369 . S
C866 C870 1.531 . S
C867 C866 1.369 . S
C867 C868 1.410 . S
C867 C875 1.503 . S
C868 C867 1.410 . S
C868 C869 1.392 . S
C868 C871 1.511 . S
C869 C865 1.376 . S
C869 C868 1.392 . S
C869 H881 0.929 . S
C870 C866 1.531 . S
C870 H882 0.960 . S
C870 H883 0.962 . S
C870 H884 0.960 . S
C871 C868 1.511 . S
C871 H885 0.961 . S
C871 H886 0.961 . S
C871 H887 0.961 . S
C872 C873 1.370 . S
C872 C874 1.363 . S
C872 H888 0.931 . S
C873 C872 1.370 . S
C873 C877 1.408 . S
C874 C872 1.363 . S
C874 C875 1.370 . S
C874 C878 1.524 . S
C875 C867 1.503 . S
C875 C874 1.370 . S
C875 C876 1.403 . S
C876 C875 1.403 . S
C876 C877 1.404 . S
C876 C879 1.539 . S
C877 C873 1.408 . S
C877 C876 1.404 . S
C877 H889 0.930 . S
C878 C874 1.524 . S
C878 H890 0.956 . S
C878 H891 0.961 . S
C878 H892 0.961 . S
C879 C876 1.539 . S
C879 H893 0.958 . S
C879 H894 0.961 . S
C879 H895 0.960 . S
H880 C864 0.931 . S
H881 C869 0.929 . S
H882 C870 0.960 . S
H883 C870 0.962 . S
H884 C870 0.960 . S
H885 C871 0.961 . S
H886 C871 0.961 . S
H887 C871 0.961 . S
H888 C872 0.931 . S
H889 C877 0.930 . S
H890 C878 0.956 . S
H891 C878 0.961 . S
H892 C878 0.961 . S
H893 C879 0.958 . S
H894 C879 0.961 . S
H895 C879 0.960 . S
C896 C897 1.391 . S
C896 C898 1.394 . S
C896 H912 0.931 . S
C897 C896 1.391 . S
C897 C901 1.376 . S
C898 C896 1.394 . S
C898 C899 1.369 . S
C898 C902 1.531 . S
C899 C898 1.369 . S
C899 C900 1.410 . S
C899 C907 1.503 . S
C900 C899 1.410 . S
C900 C901 1.392 . S
C900 C903 1.515 . S
C901 C897 1.376 . S
C901 C900 1.392 . S
C901 H913 0.929 . S
C902 C898 1.531 . S
C902 H914 0.960 . S
C902 H915 0.962 . S
C902 H916 0.960 . S
C903 C900 1.515 . S
C903 H917 0.959 1_455 S
C903 H918 0.962 . S
C903 H919 0.957 1_455 S
C904 C905 1.370 . S
C904 C906 1.363 . S
C904 H920 0.931 . S
C905 C904 1.370 . S
C905 C909 1.408 . S
C906 C904 1.363 . S
C906 C907 1.370 . S
C906 C910 1.524 . S
C907 C899 1.503 . S
C907 C906 1.370 . S
C907 C908 1.403 . S
C908 C907 1.403 . S
C908 C909 1.404 . S
C908 C911 1.539 . S
C909 C905 1.408 . S
C909 C908 1.404 . S
C909 H921 0.930 . S
C910 C906 1.524 . S
C910 H922 0.956 . S
C910 H923 0.961 . S
C910 H924 0.961 . S
C911 C908 1.539 . S
C911 H925 0.958 . S
C911 H926 0.961 . S
C911 H927 0.960 . S
H912 C896 0.931 . S
H913 C901 0.929 . S
H914 C902 0.960 . S
H915 C902 0.962 . S
H916 C902 0.960 . S
H917 C903 0.959 1_655 S
H918 C903 0.962 . S
H919 C903 0.957 1_655 S
H920 C904 0.931 . S
H921 C909 0.930 . S
H922 C910 0.956 . S
H923 C910 0.961 . S
H924 C910 0.961 . S
H925 C911 0.958 . S
H926 C911 0.961 . S
H927 C911 0.960 . S
C928 C929 1.391 . S
C928 C930 1.394 . S
C928 H944 0.931 . S
C929 C928 1.391 . S
C929 C933 1.376 . S
C930 C928 1.394 . S
C930 C931 1.369 . S
C930 C934 1.531 . S
C931 C930 1.369 . S
C931 C932 1.410 . S
C931 C939 1.503 . S
C932 C931 1.410 . S
C932 C933 1.392 . S
C932 C935 1.511 . S
C933 C929 1.376 . S
C933 C932 1.392 . S
C933 H945 0.929 . S
C934 C930 1.531 . S
C934 H946 0.960 . S
C934 H947 0.962 . S
C934 H948 0.960 . S
C935 C932 1.511 . S
C935 H949 0.961 . S
C935 H950 0.961 . S
C935 H951 0.961 . S
C936 C937 1.370 . S
C936 C938 1.363 . S
C936 H952 0.931 . S
C937 C936 1.370 . S
C937 C941 1.408 . S
C938 C936 1.363 . S
C938 C939 1.370 . S
C938 C942 1.524 . S
C939 C931 1.503 . S
C939 C938 1.370 . S
C939 C940 1.403 . S
C940 C939 1.403 . S
C940 C941 1.404 . S
C940 C943 1.539 . S
C941 C937 1.408 . S
C941 C940 1.404 . S
C941 H953 0.930 . S
C942 C938 1.524 . S
C942 H954 0.956 . S
C942 H955 0.961 . S
C942 H956 0.961 . S
C943 C940 1.539 . S
C943 H957 0.958 . S
C943 H958 0.961 . S
C943 H959 0.960 . S
H944 C928 0.931 . S
H945 C933 0.929 . S
H946 C934 0.960 . S
H947 C934 0.962 . S
H948 C934 0.960 . S
H949 C935 0.961 . S
H950 C935 0.961 . S
H951 C935 0.961 . S
H952 C936 0.931 . S
H953 C941 0.930 . S
H954 C942 0.956 . S
H955 C942 0.961 . S
H956 C942 0.961 . S
H957 C943 0.958 . S
H958 C943 0.961 . S
H959 C943 0.960 . S
C960 C961 1.391 . S
C960 C962 1.394 . S
C960 H976 0.931 . S
C961 C960 1.391 . S
C961 C965 1.376 . S
C962 C960 1.394 . S
C962 C963 1.369 . S
C962 C966 1.531 . S
C963 C962 1.369 . S
C963 C964 1.410 . S
C963 C971 1.503 . S
C964 C963 1.410 . S
C964 C965 1.392 . S
C964 C967 1.511 . S
C965 C961 1.376 . S
C965 C964 1.392 . S
C965 H977 0.929 . S
C966 C962 1.531 . S
C966 H978 0.960 . S
C966 H979 0.962 . S
C966 H980 0.960 . S
C967 C964 1.511 . S
C967 H981 0.961 . S
C967 H982 0.961 . S
C967 H983 0.961 . S
C968 C969 1.370 . S
C968 C970 1.363 . S
C968 H984 0.931 . S
C969 C968 1.370 . S
C969 C973 1.408 . S
C970 C968 1.363 . S
C970 C971 1.370 . S
C970 C974 1.524 . S
C971 C963 1.503 . S
C971 C970 1.370 . S
C971 C972 1.403 . S
C972 C971 1.403 . S
C972 C973 1.404 . S
C972 C975 1.539 . S
C973 C969 1.408 . S
C973 C972 1.404 . S
C973 H985 0.930 . S
C974 C970 1.524 . S
C974 H986 0.956 . S
C974 H987 0.961 . S
C974 H988 0.961 . S
C975 C972 1.539 . S
C975 H989 0.958 . S
C975 H990 0.961 . S
C975 H991 0.960 . S
H976 C960 0.931 . S
H977 C965 0.929 . S
H978 C966 0.960 . S
H979 C966 0.962 . S
H980 C966 0.960 . S
H981 C967 0.961 . S
H982 C967 0.961 . S
H983 C967 0.961 . S
H984 C968 0.931 . S
H985 C973 0.930 . S
H986 C974 0.956 . S
H987 C974 0.961 . S
H988 C974 0.961 . S
H989 C975 0.958 . S
H990 C975 0.961 . S
H991 C975 0.960 . S
C992 C993 1.391 . S
C992 C994 1.394 . S
C992 H1008 0.931 . S
C993 C992 1.391 . S
C993 C997 1.376 . S
C994 C992 1.394 . S
C994 C995 1.369 . S
C994 C998 1.531 . S
C995 C994 1.369 . S
C995 C996 1.410 . S
C995 C1003 1.503 . S
C996 C995 1.410 . S
C996 C997 1.392 . S
C996 C999 1.511 . S
C997 C993 1.376 . S
C997 C996 1.392 . S
C997 H1009 0.929 . S
C998 C994 1.531 . S
C998 H1010 0.960 . S
C998 H1011 0.962 . S
C998 H1012 0.960 . S
C999 C996 1.511 . S
C999 H1013 0.961 . S
C999 H1014 0.961 . S
C999 H1015 0.961 . S
C1000 C1001 1.370 . S
C1000 C1002 1.363 . S
C1000 H1016 0.931 . S
C1001 C1000 1.370 . S
C1001 C1005 1.408 . S
C1002 C1000 1.363 . S
C1002 C1003 1.370 . S
C1002 C1006 1.524 . S
C1003 C995 1.503 . S
C1003 C1002 1.370 . S
C1003 C1004 1.403 . S
C1004 C1003 1.403 . S
C1004 C1005 1.404 . S
C1004 C1007 1.539 . S
C1005 C1001 1.408 . S
C1005 C1004 1.404 . S
C1005 H1017 0.930 . S
C1006 C1002 1.524 . S
C1006 H1018 0.956 . S
C1006 H1019 0.961 . S
C1006 H1020 0.961 . S
C1007 C1004 1.539 . S
C1007 H1021 0.958 . S
C1007 H1022 0.961 . S
C1007 H1023 0.960 . S
H1008 C992 0.931 . S
H1009 C997 0.929 . S
H1010 C998 0.960 . S
H1011 C998 0.962 . S
H1012 C998 0.960 . S
H1013 C999 0.961 . S
H1014 C999 0.961 . S
H1015 C999 0.961 . S
H1016 C1000 0.931 . S
H1017 C1005 0.930 . S
H1018 C1006 0.956 . S
H1019 C1006 0.961 . S
H1020 C1006 0.961 . S
H1021 C1007 0.958 . S
H1022 C1007 0.961 . S
H1023 C1007 0.960 . S
C1024 C1025 1.391 . S
C1024 C1026 1.394 . S
C1024 H1040 0.931 . S
C1025 C1024 1.391 . S
C1025 C1029 1.376 . S
C1026 C1024 1.394 . S
C1026 C1027 1.369 . S
C1026 C1030 1.531 . S
C1027 C1026 1.369 . S
C1027 C1028 1.410 . S
C1027 C1035 1.503 . S
C1028 C1027 1.410 . S
C1028 C1029 1.392 . S
C1028 C1031 1.511 . S
C1029 C1025 1.376 . S
C1029 C1028 1.392 . S
C1029 H1041 0.929 . S
C1030 C1026 1.531 . S
C1030 H1042 0.960 . S
C1030 H1043 0.962 . S
C1030 H1044 0.960 . S
C1031 C1028 1.511 . S
C1031 H1045 0.961 . S
C1031 H1046 0.961 . S
C1031 H1047 0.961 . S
C1032 C1033 1.370 . S
C1032 C1034 1.363 . S
C1032 H1048 0.931 . S
C1033 C1032 1.370 . S
C1033 C1037 1.408 . S
C1034 C1032 1.363 . S
C1034 C1035 1.370 . S
C1034 C1038 1.524 . S
C1035 C1027 1.503 . S
C1035 C1034 1.370 . S
C1035 C1036 1.403 . S
C1036 C1035 1.403 . S
C1036 C1037 1.404 . S
C1036 C1039 1.539 . S
C1037 C1033 1.408 . S
C1037 C1036 1.404 . S
C1037 H1049 0.930 . S
C1038 C1034 1.524 . S
C1038 H1050 0.956 . S
C1038 H1051 0.961 . S
C1038 H1052 0.961 . S
C1039 C1036 1.539 . S
C1039 H1053 0.958 . S
C1039 H1054 0.961 . S
C1039 H1055 0.960 . S
H1040 C1024 0.931 . S
H1041 C1029 0.929 . S
H1042 C1030 0.960 . S
H1043 C1030 0.962 . S
H1044 C1030 0.960 . S
H1045 C1031 0.961 . S
H1046 C1031 0.961 . S
H1047 C1031 0.961 . S
H1048 C1032 0.931 . S
H1049 C1037 0.930 . S
H1050 C1038 0.956 . S
H1051 C1038 0.961 . S
H1052 C1038 0.961 . S
H1053 C1039 0.958 . S
H1054 C1039 0.961 . S
H1055 C1039 0.960 . S
C1056 C1057 1.391 . S
C1056 C1058 1.394 . S
C1056 H1072 0.931 . S
C1057 C1056 1.391 . S
C1057 C1061 1.376 . S
C1058 C1056 1.394 . S
C1058 C1059 1.369 . S
C1058 C1062 1.531 . S
C1059 C1058 1.369 . S
C1059 C1060 1.410 . S
C1059 C1067 1.503 . S
C1060 C1059 1.410 . S
C1060 C1061 1.392 . S
C1060 C1063 1.511 . S
C1061 C1057 1.376 . S
C1061 C1060 1.392 . S
C1061 H1073 0.929 . S
C1062 C1058 1.531 . S
C1062 H1074 0.960 . S
C1062 H1075 0.962 . S
C1062 H1076 0.960 . S
C1063 C1060 1.511 . S
C1063 H1077 0.961 . S
C1063 H1078 0.961 . S
C1063 H1079 0.961 . S
C1064 C1065 1.370 . S
C1064 C1066 1.363 . S
C1064 H1080 0.931 . S
C1065 C1064 1.370 . S
C1065 C1069 1.408 . S
C1066 C1064 1.363 . S
C1066 C1067 1.370 . S
C1066 C1070 1.524 . S
C1067 C1059 1.503 . S
C1067 C1066 1.370 . S
C1067 C1068 1.403 . S
C1068 C1067 1.403 . S
C1068 C1069 1.404 . S
C1068 C1071 1.539 . S
C1069 C1065 1.408 . S
C1069 C1068 1.404 . S
C1069 H1081 0.930 . S
C1070 C1066 1.524 . S
C1070 H1082 0.956 . S
C1070 H1083 0.961 . S
C1070 H1084 0.961 . S
C1071 C1068 1.539 . S
C1071 H1085 0.958 . S
C1071 H1086 0.961 . S
C1071 H1087 0.960 . S
H1072 C1056 0.931 . S
H1073 C1061 0.929 . S
H1074 C1062 0.960 . S
H1075 C1062 0.962 . S
H1076 C1062 0.960 . S
H1077 C1063 0.961 . S
H1078 C1063 0.961 . S
H1079 C1063 0.961 . S
H1080 C1064 0.931 . S
H1081 C1069 0.930 . S
H1082 C1070 0.956 . S
H1083 C1070 0.961 . S
H1084 C1070 0.961 . S
H1085 C1071 0.958 . S
H1086 C1071 0.961 . S
H1087 C1071 0.960 . S
C1088 C1089 1.391 . S
C1088 C1090 1.394 . S
C1088 H1104 0.931 . S
C1089 C1088 1.391 . S
C1089 C1093 1.376 . S
C1090 C1088 1.394 . S
C1090 C1091 1.369 . S
C1090 C1094 1.531 . S
C1091 C1090 1.369 . S
C1091 C1092 1.410 . S
C1091 C1099 1.503 . S
C1092 C1091 1.410 . S
C1092 C1093 1.392 . S
C1092 C1095 1.511 . S
C1093 C1089 1.376 . S
C1093 C1092 1.392 . S
C1093 H1105 0.929 . S
C1094 C1090 1.531 . S
C1094 H1106 0.960 . S
C1094 H1107 0.962 . S
C1094 H1108 0.960 . S
C1095 C1092 1.511 . S
C1095 H1109 0.961 . S
C1095 H1110 0.961 . S
C1095 H1111 0.961 . S
C1096 C1097 1.370 . S
C1096 C1098 1.363 . S
C1096 H1112 0.931 . S
C1097 C1096 1.370 . S
C1097 C1101 1.408 . S
C1098 C1096 1.363 . S
C1098 C1099 1.370 . S
C1098 C1102 1.524 . S
C1099 C1091 1.503 . S
C1099 C1098 1.370 . S
C1099 C1100 1.403 . S
C1100 C1099 1.403 . S
C1100 C1101 1.404 . S
C1100 C1103 1.539 . S
C1101 C1097 1.408 . S
C1101 C1100 1.404 . S
C1101 H1113 0.930 . S
C1102 C1098 1.524 . S
C1102 H1114 0.956 . S
C1102 H1115 0.961 . S
C1102 H1116 0.961 . S
C1103 C1100 1.539 . S
C1103 H1117 0.958 . S
C1103 H1118 0.961 . S
C1103 H1119 0.960 . S
H1104 C1088 0.931 . S
H1105 C1093 0.929 . S
H1106 C1094 0.960 . S
H1107 C1094 0.962 . S
H1108 C1094 0.960 . S
H1109 C1095 0.961 . S
H1110 C1095 0.961 . S
H1111 C1095 0.961 . S
H1112 C1096 0.931 . S
H1113 C1101 0.930 . S
H1114 C1102 0.956 . S
H1115 C1102 0.961 . S
H1116 C1102 0.961 . S
H1117 C1103 0.958 . S
H1118 C1103 0.961 . S
H1119 C1103 0.960 . S
C1120 C1121 1.391 . S
C1120 C1122 1.394 . S
C1120 H1136 0.931 . S
C1121 C1120 1.391 . S
C1121 C1125 1.376 . S
C1122 C1120 1.394 . S
C1122 C1123 1.369 . S
C1122 C1126 1.531 . S
C1123 C1122 1.369 . S
C1123 C1124 1.410 . S
C1123 C1131 1.503 . S
C1124 C1123 1.410 . S
C1124 C1125 1.392 . S
C1124 C1127 1.511 . S
C1125 C1121 1.376 . S
C1125 C1124 1.392 . S
C1125 H1137 0.929 . S
C1126 C1122 1.531 . S
C1126 H1138 0.960 . S
C1126 H1139 0.962 . S
C1126 H1140 0.960 . S
C1127 C1124 1.511 . S
C1127 H1141 0.961 . S
C1127 H1142 0.961 . S
C1127 H1143 0.961 . S
C1128 C1129 1.370 . S
C1128 C1130 1.363 . S
C1128 H1144 0.931 . S
C1129 C1128 1.370 . S
C1129 C1133 1.408 . S
C1130 C1128 1.363 . S
C1130 C1131 1.370 . S
C1130 C1134 1.524 . S
C1131 C1123 1.503 . S
C1131 C1130 1.370 . S
C1131 C1132 1.403 . S
C1132 C1131 1.403 . S
C1132 C1133 1.404 . S
C1132 C1135 1.539 . S
C1133 C1129 1.408 . S
C1133 C1132 1.404 . S
C1133 H1145 0.930 . S
C1134 C1130 1.524 . S
C1134 H1146 0.956 . S
C1134 H1147 0.961 . S
C1134 H1148 0.961 . S
C1135 C1132 1.539 . S
C1135 H1149 0.958 . S
C1135 H1150 0.961 . S
C1135 H1151 0.960 . S
H1136 C1120 0.931 . S
H1137 C1125 0.929 . S
H1138 C1126 0.960 . S
H1139 C1126 0.962 . S
H1140 C1126 0.960 . S
H1141 C1127 0.961 . S
H1142 C1127 0.961 . S
H1143 C1127 0.961 . S
H1144 C1128 0.931 . S
H1145 C1133 0.930 . S
H1146 C1134 0.956 . S
H1147 C1134 0.961 . S
H1148 C1134 0.961 . S
H1149 C1135 0.958 . S
H1150 C1135 0.961 . S
H1151 C1135 0.960 . S
C1152 C1153 1.391 . S
C1152 C1154 1.394 . S
C1152 H1168 0.931 . S
C1153 C1152 1.391 . S
C1153 C1157 1.376 . S
C1154 C1152 1.394 . S
C1154 C1155 1.369 . S
C1154 C1158 1.531 . S
C1155 C1154 1.369 . S
C1155 C1156 1.410 . S
C1155 C1163 1.503 . S
C1156 C1155 1.410 . S
C1156 C1157 1.392 . S
C1156 C1159 1.511 . S
C1157 C1153 1.376 . S
C1157 C1156 1.392 . S
C1157 H1169 0.929 . S
C1158 C1154 1.531 . S
C1158 H1170 0.960 . S
C1158 H1171 0.962 . S
C1158 H1172 0.960 . S
C1159 C1156 1.511 . S
C1159 H1173 0.961 . S
C1159 H1174 0.961 . S
C1159 H1175 0.961 . S
C1160 C1161 1.370 . S
C1160 C1162 1.363 . S
C1160 H1176 0.931 . S
C1161 C1160 1.370 . S
C1161 C1165 1.408 . S
C1162 C1160 1.363 . S
C1162 C1163 1.370 . S
C1162 C1166 1.524 . S
C1163 C1155 1.503 . S
C1163 C1162 1.370 . S
C1163 C1164 1.403 . S
C1164 C1163 1.403 . S
C1164 C1165 1.404 . S
C1164 C1167 1.539 . S
C1165 C1161 1.408 . S
C1165 C1164 1.404 . S
C1165 H1177 0.930 . S
C1166 C1162 1.524 . S
C1166 H1178 0.956 . S
C1166 H1179 0.961 . S
C1166 H1180 0.961 . S
C1167 C1164 1.539 . S
C1167 H1181 0.958 . S
C1167 H1182 0.961 . S
C1167 H1183 0.960 . S
H1168 C1152 0.931 . S
H1169 C1157 0.929 . S
H1170 C1158 0.960 . S
H1171 C1158 0.962 . S
H1172 C1158 0.960 . S
H1173 C1159 0.961 . S
H1174 C1159 0.961 . S
H1175 C1159 0.961 . S
H1176 C1160 0.931 . S
H1177 C1165 0.930 . S
H1178 C1166 0.956 . S
H1179 C1166 0.961 . S
H1180 C1166 0.961 . S
H1181 C1167 0.958 . S
H1182 C1167 0.961 . S
H1183 C1167 0.960 . S
C1184 C1185 1.391 . S
C1184 C1186 1.394 . S
C1184 H1200 0.931 . S
C1185 C1184 1.391 . S
C1185 C1189 1.376 . S
C1186 C1184 1.394 . S
C1186 C1187 1.369 . S
C1186 C1190 1.531 . S
C1187 C1186 1.369 . S
C1187 C1188 1.410 . S
C1187 C1195 1.503 . S
C1188 C1187 1.410 . S
C1188 C1189 1.392 . S
C1188 C1191 1.511 . S
C1189 C1185 1.376 . S
C1189 C1188 1.392 . S
C1189 H1201 0.929 . S
C1190 C1186 1.531 . S
C1190 H1202 0.960 . S
C1190 H1203 0.962 . S
C1190 H1204 0.960 . S
C1191 C1188 1.511 . S
C1191 H1205 0.961 . S
C1191 H1206 0.961 . S
C1191 H1207 0.961 . S
C1192 C1193 1.370 . S
C1192 C1194 1.363 . S
C1192 H1208 0.931 . S
C1193 C1192 1.370 . S
C1193 C1197 1.408 . S
C1194 C1192 1.363 . S
C1194 C1195 1.370 . S
C1194 C1198 1.524 . S
C1195 C1187 1.503 . S
C1195 C1194 1.370 . S
C1195 C1196 1.403 . S
C1196 C1195 1.403 . S
C1196 C1197 1.404 . S
C1196 C1199 1.539 . S
C1197 C1193 1.408 . S
C1197 C1196 1.404 . S
C1197 H1209 0.930 . S
C1198 C1194 1.524 . S
C1198 H1210 0.956 . S
C1198 H1211 0.961 . S
C1198 H1212 0.961 . S
C1199 C1196 1.539 . S
C1199 H1213 0.958 . S
C1199 H1214 0.961 . S
C1199 H1215 0.960 . S
H1200 C1184 0.931 . S
H1201 C1189 0.929 . S
H1202 C1190 0.960 . S
H1203 C1190 0.962 . S
H1204 C1190 0.960 . S
H1205 C1191 0.961 . S
H1206 C1191 0.961 . S
H1207 C1191 0.961 . S
H1208 C1192 0.931 . S
H1209 C1197 0.930 . S
H1210 C1198 0.956 . S
H1211 C1198 0.961 . S
H1212 C1198 0.961 . S
H1213 C1199 0.958 . S
H1214 C1199 0.961 . S
H1215 C1199 0.960 . S
C1216 C1217 1.391 . S
C1216 C1218 1.394 . S
C1216 H1232 0.931 . S
C1217 C1216 1.391 . S
C1217 C1221 1.376 . S
C1218 C1216 1.394 . S
C1218 C1219 1.369 . S
C1218 C1222 1.531 . S
C1219 C1218 1.369 . S
C1219 C1220 1.410 . S
C1219 C1227 1.503 . S
C1220 C1219 1.410 . S
C1220 C1221 1.392 . S
C1220 C1223 1.511 . S
C1221 C1217 1.376 . S
C1221 C1220 1.392 . S
C1221 H1233 0.929 . S
C1222 C1218 1.531 . S
C1222 H1234 0.960 . S
C1222 H1235 0.962 . S
C1222 H1236 0.960 . S
C1223 C1220 1.511 . S
C1223 H1237 0.961 . S
C1223 H1238 0.961 . S
C1223 H1239 0.961 . S
C1224 C1225 1.370 . S
C1224 C1226 1.363 . S
C1224 H1240 0.931 . S
C1225 C1224 1.370 . S
C1225 C1229 1.408 . S
C1226 C1224 1.363 . S
C1226 C1227 1.370 . S
C1226 C1230 1.524 . S
C1227 C1219 1.503 . S
C1227 C1226 1.370 . S
C1227 C1228 1.403 . S
C1228 C1227 1.403 . S
C1228 C1229 1.404 . S
C1228 C1231 1.539 . S
C1229 C1225 1.408 . S
C1229 C1228 1.404 . S
C1229 H1241 0.930 . S
C1230 C1226 1.524 . S
C1230 H1242 0.956 . S
C1230 H1243 0.961 . S
C1230 H1244 0.961 . S
C1231 C1228 1.539 . S
C1231 H1245 0.958 . S
C1231 H1246 0.961 . S
C1231 H1247 0.960 . S
H1232 C1216 0.931 . S
H1233 C1221 0.929 . S
H1234 C1222 0.960 . S
H1235 C1222 0.962 . S
H1236 C1222 0.960 . S
H1237 C1223 0.961 . S
H1238 C1223 0.961 . S
H1239 C1223 0.961 . S
H1240 C1224 0.931 . S
H1241 C1229 0.930 . S
H1242 C1230 0.956 . S
H1243 C1230 0.961 . S
H1244 C1230 0.961 . S
H1245 C1231 0.958 . S
H1246 C1231 0.961 . S
H1247 C1231 0.960 . S
C1248 C1249 1.391 . S
C1248 C1250 1.394 . S
C1248 H1264 0.931 . S
C1249 C1248 1.391 . S
C1249 C1253 1.376 . S
C1250 C1248 1.394 . S
C1250 C1251 1.369 . S
C1250 C1254 1.531 . S
C1251 C1250 1.369 . S
C1251 C1252 1.410 . S
C1251 C1259 1.503 . S
C1252 C1251 1.410 . S
C1252 C1253 1.392 . S
C1252 C1255 1.511 . S
C1253 C1249 1.376 . S
C1253 C1252 1.392 . S
C1253 H1265 0.929 . S
C1254 C1250 1.531 . S
C1254 H1266 0.960 . S
C1254 H1267 0.962 . S
C1254 H1268 0.960 . S
C1255 C1252 1.511 . S
C1255 H1269 0.961 . S
C1255 H1270 0.961 . S
C1255 H1271 0.961 . S
C1256 C1257 1.370 . S
C1256 C1258 1.363 . S
C1256 H1272 0.931 . S
C1257 C1256 1.370 . S
C1257 C1261 1.408 . S
C1258 C1256 1.363 . S
C1258 C1259 1.370 . S
C1258 C1262 1.524 . S
C1259 C1251 1.503 . S
C1259 C1258 1.370 . S
C1259 C1260 1.403 . S
C1260 C1259 1.403 . S
C1260 C1261 1.404 . S
C1260 C1263 1.539 . S
C1261 C1257 1.408 . S
C1261 C1260 1.404 . S
C1261 H1273 0.930 . S
C1262 C1258 1.524 . S
C1262 H1274 0.956 . S
C1262 H1275 0.961 . S
C1262 H1276 0.961 . S
C1263 C1260 1.539 . S
C1263 H1277 0.958 . S
C1263 H1278 0.961 . S
C1263 H1279 0.960 . S
H1264 C1248 0.931 . S
H1265 C1253 0.929 . S
H1266 C1254 0.960 . S
H1267 C1254 0.962 . S
H1268 C1254 0.960 . S
H1269 C1255 0.961 . S
H1270 C1255 0.961 . S
H1271 C1255 0.961 . S
H1272 C1256 0.931 . S
H1273 C1261 0.930 . S
H1274 C1262 0.956 . S
H1275 C1262 0.961 . S
H1276 C1262 0.961 . S
H1277 C1263 0.958 . S
H1278 C1263 0.961 . S
H1279 C1263 0.960 . S
C1280 C1281 1.391 . S
C1280 C1282 1.394 . S
C1280 H1296 0.931 . S
C1281 C1280 1.391 . S
C1281 C1285 1.376 . S
C1282 C1280 1.394 . S
C1282 C1283 1.369 . S
C1282 C1286 1.531 . S
C1283 C1282 1.369 . S
C1283 C1284 1.410 . S
C1283 C1291 1.503 . S
C1284 C1283 1.410 . S
C1284 C1285 1.392 . S
C1284 C1287 1.511 . S
C1285 C1281 1.376 . S
C1285 C1284 1.392 . S
C1285 H1297 0.929 . S
C1286 C1282 1.531 . S
C1286 H1298 0.960 . S
C1286 H1299 0.962 . S
C1286 H1300 0.960 . S
C1287 C1284 1.511 . S
C1287 H1301 0.961 . S
C1287 H1302 0.961 . S
C1287 H1303 0.961 . S
C1288 C1289 1.370 . S
C1288 C1290 1.363 . S
C1288 H1304 0.931 . S
C1289 C1288 1.370 . S
C1289 C1293 1.408 . S
C1290 C1288 1.363 . S
C1290 C1291 1.370 . S
C1290 C1294 1.524 . S
C1291 C1283 1.503 . S
C1291 C1290 1.370 . S
C1291 C1292 1.403 . S
C1292 C1291 1.403 . S
C1292 C1293 1.404 . S
C1292 C1295 1.539 . S
C1293 C1289 1.408 . S
C1293 C1292 1.404 . S
C1293 H1305 0.930 . S
C1294 C1290 1.524 . S
C1294 H1306 0.956 . S
C1294 H1307 0.961 . S
C1294 H1308 0.961 . S
C1295 C1292 1.539 . S
C1295 H1309 0.958 . S
C1295 H1310 0.961 . S
C1295 H1311 0.960 . S
H1296 C1280 0.931 . S
H1297 C1285 0.929 . S
H1298 C1286 0.960 . S
H1299 C1286 0.962 . S
H1300 C1286 0.960 . S
H1301 C1287 0.961 . S
H1302 C1287 0.961 . S
H1303 C1287 0.961 . S
H1304 C1288 0.931 . S
H1305 C1293 0.930 . S
H1306 C1294 0.956 . S
H1307 C1294 0.961 . S
H1308 C1294 0.961 . S
H1309 C1295 0.958 . S
H1310 C1295 0.961 . S
H1311 C1295 0.960 . S
C1312 C1313 1.391 . S
C1312 C1314 1.394 . S
C1312 H1328 0.931 . S
C1313 C1312 1.391 . S
C1313 C1317 1.376 . S
C1314 C1312 1.394 . S
C1314 C1315 1.369 . S
C1314 C1318 1.531 . S
C1315 C1314 1.369 . S
C1315 C1316 1.410 . S
C1315 C1323 1.503 . S
C1316 C1315 1.410 . S
C1316 C1317 1.392 . S
C1316 C1319 1.511 . S
C1317 C1313 1.376 . S
C1317 C1316 1.392 . S
C1317 H1329 0.929 . S
C1318 C1314 1.531 . S
C1318 H1330 0.960 . S
C1318 H1331 0.962 . S
C1318 H1332 0.960 . S
C1319 C1316 1.511 . S
C1319 H1333 0.961 . S
C1319 H1334 0.961 . S
C1319 H1335 0.961 . S
C1320 C1321 1.370 . S
C1320 C1322 1.363 . S
C1320 H1336 0.931 . S
C1321 C1320 1.370 . S
C1321 C1325 1.408 . S
C1322 C1320 1.363 . S
C1322 C1323 1.370 . S
C1322 C1326 1.524 . S
C1323 C1315 1.503 . S
C1323 C1322 1.370 . S
C1323 C1324 1.403 . S
C1324 C1323 1.403 . S
C1324 C1325 1.404 . S
C1324 C1327 1.539 . S
C1325 C1321 1.408 . S
C1325 C1324 1.404 . S
C1325 H1337 0.930 . S
C1326 C1322 1.524 . S
C1326 H1338 0.956 . S
C1326 H1339 0.961 . S
C1326 H1340 0.961 . S
C1327 C1324 1.539 . S
C1327 H1341 0.958 . S
C1327 H1342 0.961 . S
C1327 H1343 0.960 . S
H1328 C1312 0.931 . S
H1329 C1317 0.929 . S
H1330 C1318 0.960 . S
H1331 C1318 0.962 . S
H1332 C1318 0.960 . S
H1333 C1319 0.961 . S
H1334 C1319 0.961 . S
H1335 C1319 0.961 . S
H1336 C1320 0.931 . S
H1337 C1325 0.930 . S
H1338 C1326 0.956 . S
H1339 C1326 0.961 . S
H1340 C1326 0.961 . S
H1341 C1327 0.958 . S
H1342 C1327 0.961 . S
H1343 C1327 0.960 . S
C1344 C1345 1.391 . S
C1344 C1346 1.394 . S
C1344 H1360 0.931 . S
C1345 C1344 1.391 . S
C1345 C1349 1.376 . S
C1346 C1344 1.394 . S
C1346 C1347 1.369 . S
C1346 C1350 1.531 . S
C1347 C1346 1.369 . S
C1347 C1348 1.410 . S
C1347 C1355 1.503 . S
C1348 C1347 1.410 . S
C1348 C1349 1.392 . S
C1348 C1351 1.511 . S
C1349 C1345 1.376 . S
C1349 C1348 1.392 . S
C1349 H1361 0.929 . S
C1350 C1346 1.531 . S
C1350 H1362 0.960 . S
C1350 H1363 0.962 . S
C1350 H1364 0.960 . S
C1351 C1348 1.511 . S
C1351 H1365 0.961 . S
C1351 H1366 0.961 . S
C1351 H1367 0.961 . S
C1352 C1353 1.370 . S
C1352 C1354 1.363 . S
C1352 H1368 0.931 . S
C1353 C1352 1.370 . S
C1353 C1357 1.408 . S
C1354 C1352 1.363 . S
C1354 C1355 1.370 . S
C1354 C1358 1.524 . S
C1355 C1347 1.503 . S
C1355 C1354 1.370 . S
C1355 C1356 1.403 . S
C1356 C1355 1.403 . S
C1356 C1357 1.404 . S
C1356 C1359 1.539 . S
C1357 C1353 1.408 . S
C1357 C1356 1.404 . S
C1357 H1369 0.930 . S
C1358 C1354 1.524 . S
C1358 H1370 0.956 . S
C1358 H1371 0.961 . S
C1358 H1372 0.961 . S
C1359 C1356 1.539 . S
C1359 H1373 0.958 . S
C1359 H1374 0.961 . S
C1359 H1375 0.960 . S
H1360 C1344 0.931 . S
H1361 C1349 0.929 . S
H1362 C1350 0.960 . S
H1363 C1350 0.962 . S
H1364 C1350 0.960 . S
H1365 C1351 0.961 . S
H1366 C1351 0.961 . S
H1367 C1351 0.961 . S
H1368 C1352 0.931 . S
H1369 C1357 0.930 . S
H1370 C1358 0.956 . S
H1371 C1358 0.961 . S
H1372 C1358 0.961 . S
H1373 C1359 0.958 . S
H1374 C1359 0.961 . S
H1375 C1359 0.960 . S
C1376 C1377 1.391 . S
C1376 C1378 1.394 . S
C1376 H1392 0.931 . S
C1377 C1376 1.391 . S
C1377 C1381 1.376 . S
C1378 C1376 1.394 . S
C1378 C1379 1.369 . S
C1378 C1382 1.531 . S
C1379 C1378 1.369 . S
C1379 C1380 1.410 . S
C1379 C1387 1.503 . S
C1380 C1379 1.410 . S
C1380 C1381 1.392 . S
C1380 C1383 1.511 . S
C1381 C1377 1.376 . S
C1381 C1380 1.392 . S
C1381 H1393 0.929 . S
C1382 C1378 1.531 . S
C1382 H1394 0.960 . S
C1382 H1395 0.962 . S
C1382 H1396 0.960 . S
C1383 C1380 1.511 . S
C1383 H1397 0.961 . S
C1383 H1398 0.961 . S
C1383 H1399 0.961 . S
C1384 C1385 1.370 . S
C1384 C1386 1.363 . S
C1384 H1400 0.931 . S
C1385 C1384 1.370 . S
C1385 C1389 1.408 . S
C1386 C1384 1.363 . S
C1386 C1387 1.370 . S
C1386 C1390 1.524 . S
C1387 C1379 1.503 . S
C1387 C1386 1.370 . S
C1387 C1388 1.403 . S
C1388 C1387 1.403 . S
C1388 C1389 1.404 . S
C1388 C1391 1.539 . S
C1389 C1385 1.408 . S
C1389 C1388 1.404 . S
C1389 H1401 0.930 . S
C1390 C1386 1.524 . S
C1390 H1402 0.956 . S
C1390 H1403 0.961 . S
C1390 H1404 0.961 . S
C1391 C1388 1.539 . S
C1391 H1405 0.958 . S
C1391 H1406 0.961 . S
C1391 H1407 0.960 . S
H1392 C1376 0.931 . S
H1393 C1381 0.929 . S
H1394 C1382 0.960 . S
H1395 C1382 0.962 . S
H1396 C1382 0.960 . S
H1397 C1383 0.961 . S
H1398 C1383 0.961 . S
H1399 C1383 0.961 . S
H1400 C1384 0.931 . S
H1401 C1389 0.930 . S
H1402 C1390 0.956 . S
H1403 C1390 0.961 . S
H1404 C1390 0.961 . S
H1405 C1391 0.958 . S
H1406 C1391 0.961 . S
H1407 C1391 0.960 . S
C1408 C1409 1.391 . S
C1408 C1410 1.394 . S
C1408 H1424 0.931 . S
C1409 C1408 1.391 . S
C1409 C1413 1.376 . S
C1410 C1408 1.394 . S
C1410 C1411 1.369 . S
C1410 C1414 1.531 . S
C1411 C1410 1.369 . S
C1411 C1412 1.410 . S
C1411 C1419 1.503 . S
C1412 C1411 1.410 . S
C1412 C1413 1.392 . S
C1412 C1415 1.511 . S
C1413 C1409 1.376 . S
C1413 C1412 1.392 . S
C1413 H1425 0.929 . S
C1414 C1410 1.531 . S
C1414 H1426 0.960 . S
C1414 H1427 0.962 . S
C1414 H1428 0.960 . S
C1415 C1412 1.511 . S
C1415 H1429 0.961 . S
C1415 H1430 0.961 . S
C1415 H1431 0.961 . S
C1416 C1417 1.370 . S
C1416 C1418 1.363 . S
C1416 H1432 0.931 . S
C1417 C1416 1.370 . S
C1417 C1421 1.408 . S
C1418 C1416 1.363 . S
C1418 C1419 1.370 . S
C1418 C1422 1.524 . S
C1419 C1411 1.503 . S
C1419 C1418 1.370 . S
C1419 C1420 1.403 . S
C1420 C1419 1.403 . S
C1420 C1421 1.404 . S
C1420 C1423 1.539 . S
C1421 C1417 1.408 . S
C1421 C1420 1.404 . S
C1421 H1433 0.930 . S
C1422 C1418 1.524 . S
C1422 H1434 0.956 . S
C1422 H1435 0.961 . S
C1422 H1436 0.961 . S
C1423 C1420 1.539 . S
C1423 H1437 0.958 . S
C1423 H1438 0.961 . S
C1423 H1439 0.960 . S
H1424 C1408 0.931 . S
H1425 C1413 0.929 . S
H1426 C1414 0.960 . S
H1427 C1414 0.962 . S
H1428 C1414 0.960 . S
H1429 C1415 0.961 . S
H1430 C1415 0.961 . S
H1431 C1415 0.961 . S
H1432 C1416 0.931 . S
H1433 C1421 0.930 . S
H1434 C1422 0.956 . S
H1435 C1422 0.961 . S
H1436 C1422 0.961 . S
H1437 C1423 0.958 . S
H1438 C1423 0.961 . S
H1439 C1423 0.960 . S
C1440 C1441 1.391 . S
C1440 C1442 1.394 . S
C1440 H1456 0.931 . S
C1441 C1440 1.391 . S
C1441 C1445 1.376 . S
C1442 C1440 1.394 . S
C1442 C1443 1.369 . S
C1442 C1446 1.531 . S
C1443 C1442 1.369 . S
C1443 C1444 1.410 . S
C1443 C1451 1.503 . S
C1444 C1443 1.410 . S
C1444 C1445 1.392 . S
C1444 C1447 1.511 . S
C1445 C1441 1.376 . S
C1445 C1444 1.392 . S
C1445 H1457 0.929 . S
C1446 C1442 1.531 . S
C1446 H1458 0.960 . S
C1446 H1459 0.962 . S
C1446 H1460 0.960 . S
C1447 C1444 1.511 . S
C1447 H1461 0.961 . S
C1447 H1462 0.961 . S
C1447 H1463 0.961 . S
C1448 C1449 1.370 . S
C1448 C1450 1.363 . S
C1448 H1464 0.931 . S
C1449 C1448 1.370 . S
C1449 C1453 1.408 . S
C1450 C1448 1.363 . S
C1450 C1451 1.370 . S
C1450 C1454 1.524 . S
C1451 C1443 1.503 . S
C1451 C1450 1.370 . S
C1451 C1452 1.403 . S
C1452 C1451 1.403 . S
C1452 C1453 1.404 . S
C1452 C1455 1.539 . S
C1453 C1449 1.408 . S
C1453 C1452 1.404 . S
C1453 H1465 0.930 . S
C1454 C1450 1.524 . S
C1454 H1466 0.956 . S
C1454 H1467 0.961 . S
C1454 H1468 0.961 . S
C1455 C1452 1.539 . S
C1455 H1469 0.958 . S
C1455 H1470 0.961 . S
C1455 H1471 0.960 . S
H1456 C1440 0.931 . S
H1457 C1445 0.929 . S
H1458 C1446 0.960 . S
H1459 C1446 0.962 . S
H1460 C1446 0.960 . S
H1461 C1447 0.961 . S
H1462 C1447 0.961 . S
H1463 C1447 0.961 . S
H1464 C1448 0.931 . S
H1465 C1453 0.930 . S
H1466 C1454 0.956 . S
H1467 C1454 0.961 . S
H1468 C1454 0.961 . S
H1469 C1455 0.958 . S
H1470 C1455 0.961 . S
H1471 C1455 0.960 . S
C1472 C1473 1.391 . S
C1472 C1474 1.394 . S
C1472 H1488 0.931 . S
C1473 C1472 1.391 . S
C1473 C1477 1.376 . S
C1474 C1472 1.394 . S
C1474 C1475 1.369 . S
C1474 C1478 1.531 1_554 S
C1475 C1474 1.369 . S
C1475 C1476 1.410 1_545 S
C1475 C1483 1.503 1_544 S
C1476 C1475 1.410 1_565 S
C1476 C1477 1.392 1_565 S
C1476 C1479 1.511 . S
C1477 C1473 1.376 . S
C1477 C1476 1.392 1_545 S
C1477 H1489 0.929 . S
C1478 C1474 1.531 1_556 S
C1478 H1490 0.960 . S
C1478 H1491 0.962 . S
C1478 H1492 0.960 . S
C1479 C1476 1.511 . S
C1479 H1493 0.961 . S
C1479 H1494 0.961 . S
C1479 H1495 0.961 . S
C1480 C1481 1.370 . S
C1480 C1482 1.363 . S
C1480 H1496 0.931 . S
C1481 C1480 1.370 . S
C1481 C1485 1.408 . S
C1482 C1480 1.363 . S
C1482 C1483 1.370 . S
C1482 C1486 1.524 . S
C1483 C1475 1.503 1_566 S
C1483 C1482 1.370 . S
C1483 C1484 1.403 . S
C1484 C1483 1.403 . S
C1484 C1485 1.404 . S
C1484 C1487 1.539 1_556 S
C1485 C1481 1.408 . S
C1485 C1484 1.404 . S
C1485 H1497 0.930 . S
C1486 C1482 1.524 . S
C1486 H1498 0.956 1_565 S
C1486 H1499 0.961 . S
C1486 H1500 0.961 . S
C1487 C1484 1.539 1_554 S
C1487 H1501 0.985 1_565 S
C1487 H1502 0.961 . S
C1487 H1503 0.960 . S
H1488 C1472 0.931 . S
H1489 C1477 0.929 . S
H1490 C1478 0.960 . S
H1491 C1478 0.962 . S
H1492 C1478 0.960 . S
H1493 C1479 0.961 . S
H1494 C1479 0.961 . S
H1495 C1479 0.961 . S
H1496 C1480 0.931 . S
H1497 C1485 0.930 . S
H1498 C1486 0.956 1_545 S
H1499 C1486 0.961 . S
H1500 C1486 0.961 . S
H1501 C1487 0.985 1_545 S
H1502 C1487 0.961 . S
H1503 C1487 0.960 . S
C1504 C1505 1.391 . S
C1504 C1506 1.394 . S
C1504 H1520 0.931 . S
C1505 C1504 1.391 . S
C1505 C1509 1.376 . S
C1506 C1504 1.394 . S
C1506 C1507 1.369 . S
C1506 C1510 1.531 1_554 S
C1507 C1506 1.369 . S
C1507 C1508 1.410 . S
C1507 C1515 1.503 1_554 S
C1508 C1507 1.410 . S
C1508 C1509 1.392 . S
C1508 C1511 1.511 . S
C1509 C1505 1.376 . S
C1509 C1508 1.392 . S
C1509 H1521 0.929 . S
C1510 C1506 1.531 1_556 S
C1510 H1522 0.960 . S
C1510 H1523 0.962 . S
C1510 H1524 0.960 . S
C1511 C1508 1.511 . S
C1511 H1525 0.961 . S
C1511 H1526 0.961 . S
C1511 H1527 0.961 . S
C1512 C1513 1.370 . S
C1512 C1514 1.363 . S
C1512 H1528 0.931 . S
C1513 C1512 1.370 . S
C1513 C1517 1.408 . S
C1514 C1512 1.363 . S
C1514 C1515 1.370 . S
C1514 C1518 1.524 1_556 S
C1515 C1507 1.503 1_556 S
C1515 C1514 1.370 . S
C1515 C1516 1.403 . S
C1516 C1515 1.403 . S
C1516 C1517 1.404 . S
C1516 C1519 1.539 . S
C1517 C1513 1.408 . S
C1517 C1516 1.404 . S
C1517 H1529 0.930 . S
C1518 C1514 1.524 1_554 S
C1518 H1530 0.960 . S
C1518 H1531 0.961 . S
C1518 H1532 0.946 1_554 S
C1519 C1516 1.539 . S
C1519 H1533 0.958 . S
C1519 H1534 0.961 . S
C1519 H1535 0.960 . S
H1520 C1504 0.931 . S
H1521 C1509 0.929 . S
H1522 C1510 0.960 . S
H1523 C1510 0.962 . S
H1524 C1510 0.960 . S
H1525 C1511 0.961 . S
H1526 C1511 0.961 . S
H1527 C1511 0.961 . S
H1528 C1512 0.931 . S
H1529 C1517 0.930 . S
H1530 C1518 0.960 . S
H1531 C1518 0.961 . S
H1532 C1518 0.946 1_556 S
H1533 C1519 0.958 . S
H1534 C1519 0.961 . S
H1535 C1519 0.960 . S
C1536 C1537 1.391 . S
C1536 C1538 1.394 . S
C1536 H1552 0.931 . S
C1537 C1536 1.391 . S
C1537 C1541 1.376 . S
C1538 C1536 1.394 . S
C1538 C1539 1.369 . S
C1538 C1542 1.531 . S
C1539 C1538 1.369 . S
C1539 C1540 1.410 . S
C1539 C1547 1.503 . S
C1540 C1539 1.410 . S
C1540 C1541 1.392 . S
C1540 C1543 1.511 . S
C1541 C1537 1.376 . S
C1541 C1540 1.392 . S
C1541 H1553 0.929 . S
C1542 C1538 1.531 . S
C1542 H1554 0.960 . S
C1542 H1555 0.962 . S
C1542 H1556 0.960 . S
C1543 C1540 1.511 . S
C1543 H1557 0.961 . S
C1543 H1558 0.961 . S
C1543 H1559 0.961 . S
C1544 C1545 1.370 . S
C1544 C1546 1.363 . S
C1544 H1560 0.931 . S
C1545 C1544 1.370 . S
C1545 C1549 1.408 . S
C1546 C1544 1.363 . S
C1546 C1547 1.370 . S
C1546 C1550 1.524 . S
C1547 C1539 1.503 . S
C1547 C1546 1.370 . S
C1547 C1548 1.403 . S
C1548 C1547 1.403 . S
C1548 C1549 1.404 . S
C1548 C1551 1.539 . S
C1549 C1545 1.408 . S
C1549 C1548 1.404 . S
C1549 H1561 0.930 . S
C1550 C1546 1.524 . S
C1550 H1562 0.956 . S
C1550 H1563 0.961 . S
C1550 H1564 0.961 . S
C1551 C1548 1.539 . S
C1551 H1565 0.958 . S
C1551 H1566 0.961 . S
C1551 H1567 0.960 . S
H1552 C1536 0.931 . S
H1553 C1541 0.929 . S
H1554 C1542 0.960 . S
H1555 C1542 0.962 . S
H1556 C1542 0.960 . S
H1557 C1543 0.961 . S
H1558 C1543 0.961 . S
H1559 C1543 0.961 . S
H1560 C1544 0.931 . S
H1561 C1549 0.930 . S
H1562 C1550 0.956 . S
H1563 C1550 0.961 . S
H1564 C1550 0.961 . S
H1565 C1551 0.958 . S
H1566 C1551 0.961 . S
H1567 C1551 0.960 . S
C1568 C1569 1.391 . S
C1568 C1570 1.394 . S
C1568 H1584 0.931 . S
C1569 C1568 1.391 . S
C1569 C1573 1.376 . S
C1570 C1568 1.394 . S
C1570 C1571 1.369 . S
C1570 C1574 1.531 1_545 S
C1571 C1570 1.369 . S
C1571 C1572 1.410 . S
C1571 C1579 1.503 1_545 S
C1572 C1571 1.410 . S
C1572 C1573 1.392 . S
C1572 C1575 1.511 . S
C1573 C1569 1.376 . S
C1573 C1572 1.392 . S
C1573 H1585 0.929 . S
C1574 C1570 1.531 1_565 S
C1574 H1586 0.960 . S
C1574 H1587 0.962 1_565 S
C1574 H1588 0.960 . S
C1575 C1572 1.511 . S
C1575 H1589 0.961 . S
C1575 H1590 0.961 . S
C1575 H1591 0.961 1_545 S
C1576 C1577 1.370 . S
C1576 C1578 1.363 1_565 S
C1576 H1592 0.931 . S
C1577 C1576 1.370 . S
C1577 C1581 1.408 . S
C1578 C1576 1.363 1_545 S
C1578 C1579 1.370 1_545 S
C1578 C1582 1.524 . S
C1579 C1571 1.503 1_565 S
C1579 C1578 1.370 1_565 S
C1579 C1580 1.403 . S
C1580 C1579 1.403 . S
C1580 C1581 1.404 . S
C1580 C1583 1.539 . S
C1581 C1577 1.408 . S
C1581 C1580 1.404 . S
C1581 H1593 0.930 . S
C1582 C1578 1.524 . S
C1582 H1594 0.956 . S
C1582 H1595 0.961 . S
C1582 H1596 0.961 . S
C1583 C1580 1.539 . S
C1583 H1597 0.958 . S
C1583 H1598 0.961 . S
C1583 H1599 0.960 . S
H1584 C1568 0.931 . S
H1585 C1573 0.929 . S
H1586 C1574 0.960 . S
H1587 C1574 0.962 1_545 S
H1588 C1574 0.960 . S
H1589 C1575 0.961 . S
H1590 C1575 0.961 . S
H1591 C1575 0.961 1_565 S
H1592 C1576 0.931 . S
H1593 C1581 0.930 . S
H1594 C1582 0.956 . S
H1595 C1582 0.961 . S
H1596 C1582 0.961 . S
H1597 C1583 0.958 . S
H1598 C1583 0.961 . S
H1599 C1583 0.960 . S
C1600 C1601 1.391 . S
C1600 C1602 1.394 . S
C1600 H1616 0.931 . S
C1601 C1600 1.391 . S
C1601 C1605 1.376 . S
C1602 C1600 1.394 . S
C1602 C1603 1.369 . S
C1602 C1606 1.571 . S
C1603 C1602 1.369 . S
C1603 C1604 1.410 . S
C1603 C1611 1.503 1_556 S
C1604 C1603 1.410 . S
C1604 C1605 1.392 . S
C1604 C1607 1.511 . S
C1605 C1601 1.376 . S
C1605 C1604 1.392 . S
C1605 H1617 0.929 . S
C1606 C1602 1.571 . S
C1606 H1618 0.885 1_556 S
C1606 H1619 0.993 . S
C1606 H1620 0.972 . S
C1607 C1604 1.511 . S
C1607 H1621 0.961 . S
C1607 H1622 0.961 . S
C1607 H1623 0.918 1_556 S
C1608 C1609 1.370 . S
C1608 C1610 1.363 . S
C1608 H1624 0.931 . S
C1609 C1608 1.370 . S
C1609 C1613 1.408 . S
C1610 C1608 1.363 . S
C1610 C1611 1.370 . S
C1610 C1614 1.524 1_554 S
C1611 C1603 1.503 1_554 S
C1611 C1610 1.370 . S
C1611 C1612 1.403 . S
C1612 C1611 1.403 . S
C1612 C1613 1.404 . S
C1612 C1615 1.539 . S
C1613 C1609 1.408 . S
C1613 C1612 1.404 . S
C1613 H1625 0.930 . S
C1614 C1610 1.524 1_556 S
C1614 H1626 0.956 . S
C1614 H1627 0.961 . S
C1614 H1628 0.961 . S
C1615 C1612 1.539 . S
C1615 H1629 0.958 . S
C1615 H1630 0.961 . S
C1615 H1631 0.960 . S
H1616 C1600 0.931 . S
H1617 C1605 0.929 . S
H1618 C1606 0.885 1_554 S
H1619 C1606 0.993 . S
H1620 C1606 0.972 . S
H1621 C1607 0.961 . S
H1622 C1607 0.961 . S
H1623 C1607 0.918 1_554 S
H1624 C1608 0.931 . S
H1625 C1613 0.930 . S
H1626 C1614 0.956 . S
H1627 C1614 0.961 . S
H1628 C1614 0.961 . S
H1629 C1615 0.958 . S
H1630 C1615 0.961 . S
H1631 C1615 0.960 . S
C1632 C1633 1.391 . S
C1632 C1634 1.394 . S
C1632 H1648 0.931 . S
C1633 C1632 1.391 . S
C1633 C1637 1.376 . S
C1634 C1632 1.394 . S
C1634 C1635 1.369 . S
C1634 C1638 1.531 . S
C1635 C1634 1.369 . S
C1635 C1636 1.410 . S
C1635 C1643 1.503 . S
C1636 C1635 1.410 . S
C1636 C1637 1.392 . S
C1636 C1639 1.511 . S
C1637 C1633 1.376 . S
C1637 C1636 1.392 . S
C1637 H1649 0.929 . S
C1638 C1634 1.531 . S
C1638 H1650 0.960 . S
C1638 H1651 0.962 . S
C1638 H1652 0.960 . S
C1639 C1636 1.511 . S
C1639 H1653 0.961 . S
C1639 H1654 0.961 . S
C1639 H1655 0.961 . S
C1640 C1641 1.370 . S
C1640 C1642 1.363 . S
C1640 H1656 0.931 . S
C1641 C1640 1.370 . S
C1641 C1645 1.408 . S
C1642 C1640 1.363 . S
C1642 C1643 1.370 . S
C1642 C1646 1.524 . S
C1643 C1635 1.503 . S
C1643 C1642 1.370 . S
C1643 C1644 1.403 . S
C1644 C1643 1.403 . S
C1644 C1645 1.404 . S
C1644 C1647 1.539 . S
C1645 C1641 1.408 . S
C1645 C1644 1.404 . S
C1645 H1657 0.930 . S
C1646 C1642 1.524 . S
C1646 H1658 0.956 . S
C1646 H1659 0.961 . S
C1646 H1660 0.961 . S
C1647 C1644 1.539 . S
C1647 H1661 0.958 . S
C1647 H1662 0.961 . S
C1647 H1663 0.960 . S
H1648 C1632 0.931 . S
H1649 C1637 0.929 . S
H1650 C1638 0.960 . S
H1651 C1638 0.962 . S
H1652 C1638 0.960 . S
H1653 C1639 0.961 . S
H1654 C1639 0.961 . S
H1655 C1639 0.961 . S
H1656 C1640 0.931 . S
H1657 C1645 0.930 . S
H1658 C1646 0.956 . S
H1659 C1646 0.961 . S
H1660 C1646 0.961 . S
H1661 C1647 0.958 . S
H1662 C1647 0.961 . S
H1663 C1647 0.960 . S
C1664 C1665 1.391 . S
C1664 C1666 1.393 . S
C1664 H1680 0.931 . S
C1665 C1664 1.391 . S
C1665 C1669 1.376 . S
C1666 C1664 1.393 . S
C1666 C1667 1.369 . S
C1666 C1670 1.531 1_545 S
C1667 C1666 1.369 . S
C1667 C1668 1.410 . S
C1667 C1675 1.503 1_545 S
C1668 C1667 1.410 . S
C1668 C1669 1.392 . S
C1668 C1671 1.511 . S
C1669 C1665 1.376 . S
C1669 C1668 1.392 . S
C1669 H1681 0.929 . S
C1670 C1666 1.531 1_565 S
C1670 H1682 0.960 . S
C1670 H1683 0.962 . S
C1670 H1684 0.960 . S
C1671 C1668 1.511 . S
C1671 H1685 0.961 . S
C1671 H1686 0.961 . S
C1671 H1687 0.961 . S
C1672 C1673 1.370 . S
C1672 C1674 1.372 . S
C1672 H1688 0.931 . S
C1673 C1672 1.370 . S
C1673 C1677 1.408 . S
C1674 C1672 1.372 . S
C1674 C1675 1.378 . S
C1674 C1678 1.509 1_565 S
C1675 C1667 1.503 1_565 S
C1675 C1674 1.378 . S
C1675 C1676 1.403 . S
C1676 C1675 1.403 . S
C1676 C1677 1.404 . S
C1676 C1679 1.539 . S
C1677 C1673 1.408 . S
C1677 C1676 1.404 . S
C1677 H1689 0.930 . S
C1678 C1674 1.509 1_545 S
C1678 H1690 0.956 . S
C1678 H1691 0.961 . S
C1678 H1692 0.961 . S
C1679 C1676 1.539 . S
C1679 H1693 0.958 . S
C1679 H1694 0.961 . S
C1679 H1695 0.960 . S
H1680 C1664 0.931 . S
H1681 C1669 0.929 . S
H1682 C1670 0.960 . S
H1683 C1670 0.962 . S
H1684 C1670 0.960 . S
H1685 C1671 0.961 . S
H1686 C1671 0.961 . S
H1687 C1671 0.961 . S
H1688 C1672 0.931 . S
H1689 C1677 0.930 . S
H1690 C1678 0.956 . S
H1691 C1678 0.961 . S
H1692 C1678 0.961 . S
H1693 C1679 0.958 . S
H1694 C1679 0.961 . S
H1695 C1679 0.960 . S
C1696 C1697 1.391 . S
C1696 C1698 1.394 . S
C1696 H1712 0.931 . S
C1697 C1696 1.391 . S
C1697 C1701 1.376 . S
C1698 C1696 1.394 . S
C1698 C1699 1.369 . S
C1698 C1702 1.531 . S
C1699 C1698 1.369 . S
C1699 C1700 1.410 . S
C1699 C1707 1.503 . S
C1700 C1699 1.410 . S
C1700 C1701 1.392 . S
C1700 C1703 1.511 . S
C1701 C1697 1.376 . S
C1701 C1700 1.392 . S
C1701 H1713 0.929 . S
C1702 C1698 1.531 . S
C1702 H1714 0.960 . S
C1702 H1715 0.962 . S
C1702 H1716 0.960 . S
C1703 C1700 1.511 . S
C1703 H1717 0.961 . S
C1703 H1718 0.961 . S
C1703 H1719 0.961 . S
C1704 C1705 1.370 . S
C1704 C1706 1.363 . S
C1704 H1720 0.931 . S
C1705 C1704 1.370 . S
C1705 C1709 1.408 . S
C1706 C1704 1.363 . S
C1706 C1707 1.370 . S
C1706 C1710 1.524 . S
C1707 C1699 1.503 . S
C1707 C1706 1.370 . S
C1707 C1708 1.403 . S
C1708 C1707 1.403 . S
C1708 C1709 1.404 . S
C1708 C1711 1.539 . S
C1709 C1705 1.408 . S
C1709 C1708 1.404 . S
C1709 H1721 0.930 . S
C1710 C1706 1.524 . S
C1710 H1722 0.956 . S
C1710 H1723 0.961 . S
C1710 H1724 0.961 . S
C1711 C1708 1.539 . S
C1711 H1725 0.958 . S
C1711 H1726 0.961 . S
C1711 H1727 0.960 . S
H1712 C1696 0.931 . S
H1713 C1701 0.929 . S
H1714 C1702 0.960 . S
H1715 C1702 0.962 . S
H1716 C1702 0.960 . S
H1717 C1703 0.961 . S
H1718 C1703 0.961 . S
H1719 C1703 0.961 . S
H1720 C1704 0.931 . S
H1721 C1709 0.930 . S
H1722 C1710 0.956 . S
H1723 C1710 0.961 . S
H1724 C1710 0.961 . S
H1725 C1711 0.958 . S
H1726 C1711 0.961 . S
H1727 C1711 0.960 . S
C1728 C1729 1.391 . S
C1728 C1730 1.394 . S
C1728 H1744 0.931 . S
C1729 C1728 1.391 . S
C1729 C1733 1.376 . S
C1730 C1728 1.394 . S
C1730 C1731 1.369 . S
C1730 C1734 1.531 . S
C1731 C1730 1.369 . S
C1731 C1732 1.410 . S
C1731 C1739 1.503 . S
C1732 C1731 1.410 . S
C1732 C1733 1.392 . S
C1732 C1735 1.511 . S
C1733 C1729 1.376 . S
C1733 C1732 1.392 . S
C1733 H1745 0.929 . S
C1734 C1730 1.531 . S
C1734 H1746 0.960 . S
C1734 H1747 0.962 . S
C1734 H1748 0.960 . S
C1735 C1732 1.511 . S
C1735 H1749 0.961 . S
C1735 H1750 0.961 . S
C1735 H1751 0.961 . S
C1736 C1737 1.370 . S
C1736 C1738 1.363 . S
C1736 H1752 0.931 . S
C1737 C1736 1.370 . S
C1737 C1741 1.408 . S
C1738 C1736 1.363 . S
C1738 C1739 1.370 . S
C1738 C1742 1.524 . S
C1739 C1731 1.503 . S
C1739 C1738 1.370 . S
C1739 C1740 1.403 . S
C1740 C1739 1.403 . S
C1740 C1741 1.404 . S
C1740 C1743 1.539 . S
C1741 C1737 1.408 . S
C1741 C1740 1.404 . S
C1741 H1753 0.930 . S
C1742 C1738 1.524 . S
C1742 H1754 0.956 . S
C1742 H1755 0.961 . S
C1742 H1756 0.961 . S
C1743 C1740 1.539 . S
C1743 H1757 0.958 . S
C1743 H1758 0.961 . S
C1743 H1759 0.960 . S
H1744 C1728 0.931 . S
H1745 C1733 0.929 . S
H1746 C1734 0.960 . S
H1747 C1734 0.962 . S
H1748 C1734 0.960 . S
H1749 C1735 0.961 . S
H1750 C1735 0.961 . S
H1751 C1735 0.961 . S
H1752 C1736 0.931 . S
H1753 C1741 0.930 . S
H1754 C1742 0.956 . S
H1755 C1742 0.961 . S
H1756 C1742 0.961 . S
H1757 C1743 0.958 . S
H1758 C1743 0.961 . S
H1759 C1743 0.960 . S
C1760 C1761 1.391 . S
C1760 C1762 1.394 . S
C1760 H1776 0.931 . S
C1761 C1760 1.391 . S
C1761 C1765 1.376 . S
C1762 C1760 1.394 . S
C1762 C1763 1.369 . S
C1762 C1766 1.531 . S
C1763 C1762 1.369 . S
C1763 C1764 1.410 . S
C1763 C1771 1.503 . S
C1764 C1763 1.410 . S
C1764 C1765 1.392 . S
C1764 C1767 1.511 . S
C1765 C1761 1.376 . S
C1765 C1764 1.392 . S
C1765 H1777 0.929 . S
C1766 C1762 1.531 . S
C1766 H1778 0.960 . S
C1766 H1779 0.962 . S
C1766 H1780 0.960 . S
C1767 C1764 1.511 . S
C1767 H1781 0.961 . S
C1767 H1782 0.961 . S
C1767 H1783 0.961 . S
C1768 C1769 1.370 . S
C1768 C1770 1.363 . S
C1768 H1784 0.931 . S
C1769 C1768 1.370 . S
C1769 C1773 1.408 . S
C1770 C1768 1.363 . S
C1770 C1771 1.370 . S
C1770 C1774 1.524 . S
C1771 C1763 1.503 . S
C1771 C1770 1.370 . S
C1771 C1772 1.403 . S
C1772 C1771 1.403 . S
C1772 C1773 1.404 . S
C1772 C1775 1.539 . S
C1773 C1769 1.408 . S
C1773 C1772 1.404 . S
C1773 H1785 0.930 . S
C1774 C1770 1.524 . S
C1774 H1786 0.956 . S
C1774 H1787 0.961 . S
C1774 H1788 0.961 . S
C1775 C1772 1.539 . S
C1775 H1789 0.958 . S
C1775 H1790 0.961 . S
C1775 H1791 0.960 . S
H1776 C1760 0.931 . S
H1777 C1765 0.929 . S
H1778 C1766 0.960 . S
H1779 C1766 0.962 . S
H1780 C1766 0.960 . S
H1781 C1767 0.961 . S
H1782 C1767 0.961 . S
H1783 C1767 0.961 . S
H1784 C1768 0.931 . S
H1785 C1773 0.930 . S
H1786 C1774 0.956 . S
H1787 C1774 0.961 . S
H1788 C1774 0.961 . S
H1789 C1775 0.958 . S
H1790 C1775 0.961 . S
H1791 C1775 0.960 . S
C1792 C1793 1.391 . S
C1792 C1794 1.394 . S
C1792 H1808 0.931 . S
C1793 C1792 1.391 . S
C1793 C1797 1.376 . S
C1794 C1792 1.394 . S
C1794 C1795 1.369 . S
C1794 C1798 1.531 . S
C1795 C1794 1.369 . S
C1795 C1796 1.410 . S
C1795 C1803 1.503 . S
C1796 C1795 1.410 . S
C1796 C1797 1.392 . S
C1796 C1799 1.511 . S
C1797 C1793 1.376 . S
C1797 C1796 1.392 . S
C1797 H1809 0.929 . S
C1798 C1794 1.531 . S
C1798 H1810 0.960 . S
C1798 H1811 0.962 . S
C1798 H1812 0.960 . S
C1799 C1796 1.511 . S
C1799 H1813 0.961 . S
C1799 H1814 0.961 . S
C1799 H1815 0.961 . S
C1800 C1801 1.370 . S
C1800 C1802 1.363 . S
C1800 H1816 0.931 . S
C1801 C1800 1.370 . S
C1801 C1805 1.408 . S
C1802 C1800 1.363 . S
C1802 C1803 1.370 . S
C1802 C1806 1.524 . S
C1803 C1795 1.503 . S
C1803 C1802 1.370 . S
C1803 C1804 1.403 . S
C1804 C1803 1.403 . S
C1804 C1805 1.404 . S
C1804 C1807 1.539 . S
C1805 C1801 1.408 . S
C1805 C1804 1.404 . S
C1805 H1817 0.930 . S
C1806 C1802 1.524 . S
C1806 H1818 0.956 . S
C1806 H1819 0.961 . S
C1806 H1820 0.961 . S
C1807 C1804 1.539 . S
C1807 H1821 0.958 . S
C1807 H1822 0.961 . S
C1807 H1823 0.960 . S
H1808 C1792 0.931 . S
H1809 C1797 0.929 . S
H1810 C1798 0.960 . S
H1811 C1798 0.962 . S
H1812 C1798 0.960 . S
H1813 C1799 0.961 . S
H1814 C1799 0.961 . S
H1815 C1799 0.961 . S
H1816 C1800 0.931 . S
H1817 C1805 0.930 . S
H1818 C1806 0.956 . S
H1819 C1806 0.961 . S
H1820 C1806 0.961 . S
H1821 C1807 0.958 . S
H1822 C1807 0.961 . S
H1823 C1807 0.960 . S
C1824 C1825 1.391 . S
C1824 C1826 1.394 . S
C1824 H1840 0.931 . S
C1825 C1824 1.391 . S
C1825 C1829 1.376 . S
C1826 C1824 1.394 . S
C1826 C1827 1.369 . S
C1826 C1830 1.531 . S
C1827 C1826 1.369 . S
C1827 C1828 1.410 . S
C1827 C1835 1.503 . S
C1828 C1827 1.410 . S
C1828 C1829 1.392 . S
C1828 C1831 1.511 . S
C1829 C1825 1.376 . S
C1829 C1828 1.392 . S
C1829 H1841 0.929 . S
C1830 C1826 1.531 . S
C1830 H1842 0.960 . S
C1830 H1843 0.962 . S
C1830 H1844 0.960 . S
C1831 C1828 1.511 . S
C1831 H1845 0.961 . S
C1831 H1846 0.961 . S
C1831 H1847 0.961 . S
C1832 C1833 1.370 . S
C1832 C1834 1.363 . S
C1832 H1848 0.931 . S
C1833 C1832 1.370 . S
C1833 C1837 1.408 . S
C1834 C1832 1.363 . S
C1834 C1835 1.370 . S
C1834 C1838 1.524 . S
C1835 C1827 1.503 . S
C1835 C1834 1.370 . S
C1835 C1836 1.403 . S
C1836 C1835 1.403 . S
C1836 C1837 1.404 . S
C1836 C1839 1.539 . S
C1837 C1833 1.408 . S
C1837 C1836 1.404 . S
C1837 H1849 0.930 . S
C1838 C1834 1.524 . S
C1838 H1850 0.956 . S
C1838 H1851 0.961 . S
C1838 H1852 0.961 . S
C1839 C1836 1.539 . S
C1839 H1853 0.958 . S
C1839 H1854 0.961 . S
C1839 H1855 0.960 . S
H1840 C1824 0.931 . S
H1841 C1829 0.929 . S
H1842 C1830 0.960 . S
H1843 C1830 0.962 . S
H1844 C1830 0.960 . S
H1845 C1831 0.961 . S
H1846 C1831 0.961 . S
H1847 C1831 0.961 . S
H1848 C1832 0.931 . S
H1849 C1837 0.930 . S
H1850 C1838 0.956 . S
H1851 C1838 0.961 . S
H1852 C1838 0.961 . S
H1853 C1839 0.958 . S
H1854 C1839 0.961 . S
H1855 C1839 0.960 . S
C1856 C1857 1.391 . S
C1856 C1858 1.394 1_565 S
C1856 H1872 0.943 . S
C1857 C1856 1.391 . S
C1857 C1861 1.376 . S
C1858 C1856 1.394 1_545 S
C1858 C1859 1.358 1_445 S
C1858 C1862 1.531 . S
C1859 C1858 1.358 1_665 S
C1859 C1860 1.411 . S
C1859 C1867 1.511 1_565 S
C1860 C1859 1.411 . S
C1860 C1861 1.392 1_655 S
C1860 C1863 1.511 . S
C1861 C1857 1.376 . S
C1861 C1860 1.392 1_455 S
C1861 H1873 0.929 . S
C1862 C1858 1.531 . S
C1862 H1874 0.960 1_455 S
C1862 H1875 0.962 . S
C1862 H1876 0.960 . S
C1863 C1860 1.511 . S
C1863 H1877 0.961 . S
C1863 H1878 0.961 . S
C1863 H1879 0.961 . S
C1864 C1865 1.370 1_455 S
C1864 C1866 1.363 . S
C1864 H1880 0.931 . S
C1865 C1864 1.370 1_655 S
C1865 C1869 1.408 . S
C1866 C1864 1.363 . S
C1866 C1867 1.370 1_455 S
C1866 C1870 1.524 . S
C1867 C1859 1.511 1_545 S
C1867 C1866 1.370 1_655 S
C1867 C1868 1.403 . S
C1868 C1867 1.403 . S
C1868 C1869 1.404 . S
C1868 C1871 1.539 . S
C1869 C1865 1.408 . S
C1869 C1868 1.404 . S
C1869 H1881 0.930 . S
C1870 C1866 1.524 . S
C1870 H1882 0.956 . S
C1870 H1883 0.961 1_545 S
C1870 H1884 0.961 . S
C1871 C1868 1.539 . S
C1871 H1885 0.958 . S
C1871 H1886 0.961 . S
C1871 H1887 0.960 1_545 S
H1872 C1856 0.943 . S
H1873 C1861 0.929 . S
H1874 C1862 0.960 1_655 S
H1875 C1862 0.962 . S
H1876 C1862 0.960 . S
H1877 C1863 0.961 . S
H1878 C1863 0.961 . S
H1879 C1863 0.961 . S
H1880 C1864 0.931 . S
H1881 C1869 0.930 . S
H1882 C1870 0.956 . S
H1883 C1870 0.961 1_565 S
H1884 C1870 0.961 . S
H1885 C1871 0.958 . S
H1886 C1871 0.961 . S
H1887 C1871 0.960 1_565 S
C1888 C1889 1.391 . S
C1888 C1890 1.394 1_655 S
C1888 H1904 0.931 1_655 S
C1889 C1888 1.391 . S
C1889 C1893 1.376 . S
C1890 C1888 1.394 1_455 S
C1890 C1891 1.369 1_455 S
C1890 C1894 1.531 . S
C1891 C1890 1.369 1_655 S
C1891 C1892 1.410 . S
C1891 C1899 1.503 1_655 S
C1892 C1891 1.410 . S
C1892 C1893 1.392 . S
C1892 C1895 1.511 . S
C1893 C1889 1.376 . S
C1893 C1892 1.392 . S
C1893 H1905 0.929 . S
C1894 C1890 1.531 . S
C1894 H1906 0.960 . S
C1894 H1907 0.962 . S
C1894 H1908 0.960 . S
C1895 C1892 1.511 . S
C1895 H1909 0.961 . S
C1895 H1910 0.961 . S
C1895 H1911 0.961 . S
C1896 C1897 1.370 . S
C1896 C1898 1.363 . S
C1896 H1912 0.931 . S
C1897 C1896 1.370 . S
C1897 C1901 1.408 . S
C1898 C1896 1.363 . S
C1898 C1899 1.370 . S
C1898 C1902 1.524 . S
C1899 C1891 1.503 1_455 S
C1899 C1898 1.370 . S
C1899 C1900 1.403 1_455 S
C1900 C1899 1.403 1_655 S
C1900 C1901 1.404 1_655 S
C1900 C1903 1.539 . S
C1901 C1897 1.408 . S
C1901 C1900 1.404 1_455 S
C1901 H1913 0.930 . S
C1902 C1898 1.524 . S
C1902 H1914 0.956 . S
C1902 H1915 0.961 . S
C1902 H1916 0.961 . S
C1903 C1900 1.539 . S
C1903 H1917 0.958 . S
C1903 H1918 0.961 . S
C1903 H1919 0.960 . S
H1904 C1888 0.931 1_455 S
H1905 C1893 0.929 . S
H1906 C1894 0.960 . S
H1907 C1894 0.962 . S
H1908 C1894 0.960 . S
H1909 C1895 0.961 . S
H1910 C1895 0.961 . S
H1911 C1895 0.961 . S
H1912 C1896 0.931 . S
H1913 C1901 0.930 . S
H1914 C1902 0.956 . S
H1915 C1902 0.961 . S
H1916 C1902 0.961 . S
H1917 C1903 0.958 . S
H1918 C1903 0.961 . S
H1919 C1903 0.960 . S
C1920 C1921 1.391 . S
C1920 C1922 1.394 . S
C1920 H1936 0.931 . S
C1921 C1920 1.391 . S
C1921 C1925 1.376 1_655 S
C1922 C1920 1.394 . S
C1922 C1923 1.369 . S
C1922 C1926 1.531 . S
C1923 C1922 1.369 . S
C1923 C1924 1.410 1_655 S
C1923 C1931 1.503 1_655 S
C1924 C1923 1.410 1_455 S
C1924 C1925 1.392 . S
C1924 C1927 1.511 . S
C1925 C1921 1.376 1_455 S
C1925 C1924 1.392 . S
C1925 H1937 0.929 . S
C1926 C1922 1.531 . S
C1926 H1938 0.960 . S
C1926 H1939 0.962 . S
C1926 H1940 0.960 . S
C1927 C1924 1.511 . S
C1927 H1941 0.961 . S
C1927 H1942 0.961 . S
C1927 H1943 0.961 . S
C1928 C1929 1.370 . S
C1928 C1930 1.363 . S
C1928 H1944 0.931 . S
C1929 C1928 1.370 . S
C1929 C1933 1.408 . S
C1930 C1928 1.363 . S
C1930 C1931 1.370 . S
C1930 C1934 1.524 1_455 S
C1931 C1923 1.503 1_455 S
C1931 C1930 1.370 . S
C1931 C1932 1.403 . S
C1932 C1931 1.403 . S
C1932 C1933 1.404 . S
C1932 C1935 1.539 . S
C1933 C1929 1.408 . S
C1933 C1932 1.404 . S
C1933 H1945 0.930 . S
C1934 C1930 1.524 1_655 S
C1934 H1946 0.956 . S
C1934 H1947 0.961 1_655 S
C1934 H1948 0.968 . S
C1935 C1932 1.539 . S
C1935 H1949 0.972 . S
C1935 H1950 0.961 . S
C1935 H1951 0.960 . S
H1936 C1920 0.931 . S
H1937 C1925 0.929 . S
H1938 C1926 0.960 . S
H1939 C1926 0.962 . S
H1940 C1926 0.960 . S
H1941 C1927 0.961 . S
H1942 C1927 0.961 . S
H1943 C1927 0.961 . S
H1944 C1928 0.931 . S
H1945 C1933 0.930 . S
H1946 C1934 0.956 . S
H1947 C1934 0.961 1_455 S
H1948 C1934 0.968 . S
H1949 C1935 0.972 . S
H1950 C1935 0.961 . S
H1951 C1935 0.960 . S
C1952 C1953 1.391 1_655 S
C1952 C1954 1.394 . S
C1952 H1968 0.931 . S
C1953 C1952 1.391 1_455 S
C1953 C1957 1.376 . S
C1954 C1952 1.394 . S
C1954 C1955 1.369 1_655 S
C1954 C1958 1.531 . S
C1955 C1954 1.369 1_455 S
C1955 C1956 1.410 . S
C1955 C1963 1.503 1_456 S
C1956 C1955 1.410 . S
C1956 C1957 1.392 . S
C1956 C1959 1.511 1_556 S
C1957 C1953 1.376 . S
C1957 C1956 1.392 . S
C1957 H1969 0.929 . S
C1958 C1954 1.531 . S
C1958 H1970 0.960 . S
C1958 H1971 0.962 . S
C1958 H1972 0.960 . S
C1959 C1956 1.511 1_554 S
C1959 H1973 0.961 . S
C1959 H1974 0.961 . S
C1959 H1975 0.961 . S
C1960 C1961 1.370 . S
C1960 C1962 1.363 . S
C1960 H1976 0.931 . S
C1961 C1960 1.370 . S
C1961 C1965 1.408 . S
C1962 C1960 1.363 . S
C1962 C1963 1.370 . S
C1962 C1966 1.524 1_654 S
C1963 C1955 1.503 1_654 S
C1963 C1962 1.370 . S
C1963 C1964 1.403 . S
C1964 C1963 1.403 . S
C1964 C1965 1.404 . S
C1964 C1967 1.539 . S
C1965 C1961 1.408 . S
C1965 C1964 1.404 . S
C1965 H1977 0.930 . S
C1966 C1962 1.524 1_456 S
C1966 H1978 0.956 1_455 S
C1966 H1979 0.961 . S
C1966 H1980 0.961 . S
C1967 C1964 1.539 . S
C1967 H1981 0.958 . S
C1967 H1982 0.961 . S
C1967 H1983 0.960 1_655 S
H1968 C1952 0.931 . S
H1969 C1957 0.929 . S
H1970 C1958 0.960 . S
H1971 C1958 0.962 . S
H1972 C1958 0.960 . S
H1973 C1959 0.961 . S
H1974 C1959 0.961 . S
H1975 C1959 0.961 . S
H1976 C1960 0.931 . S
H1977 C1965 0.930 . S
H1978 C1966 0.956 1_655 S
H1979 C1966 0.961 . S
H1980 C1966 0.961 . S
H1981 C1967 0.958 . S
H1982 C1967 0.961 . S
H1983 C1967 0.960 1_455 S
C1984 C1985 1.391 . S
C1984 C1986 1.394 . S
C1984 H2000 0.931 . S
C1985 C1984 1.391 . S
C1985 C1989 1.376 . S
C1986 C1984 1.394 . S
C1986 C1987 1.369 . S
C1986 C1990 1.531 . S
C1987 C1986 1.369 . S
C1987 C1988 1.410 . S
C1987 C1995 1.503 . S
C1988 C1987 1.410 . S
C1988 C1989 1.392 . S
C1988 C1991 1.511 . S
C1989 C1985 1.376 . S
C1989 C1988 1.392 . S
C1989 H2001 0.929 . S
C1990 C1986 1.531 . S
C1990 H2002 0.960 . S
C1990 H2003 0.962 . S
C1990 H2004 0.960 . S
C1991 C1988 1.511 . S
C1991 H2005 0.961 . S
C1991 H2006 0.961 . S
C1991 H2007 0.961 . S
C1992 C1993 1.370 . S
C1992 C1994 1.363 . S
C1992 H2008 0.931 . S
C1993 C1992 1.370 . S
C1993 C1997 1.408 . S
C1994 C1992 1.363 . S
C1994 C1995 1.370 . S
C1994 C1998 1.524 . S
C1995 C1987 1.503 . S
C1995 C1994 1.370 . S
C1995 C1996 1.403 . S
C1996 C1995 1.403 . S
C1996 C1997 1.404 . S
C1996 C1999 1.539 . S
C1997 C1993 1.408 . S
C1997 C1996 1.404 . S
C1997 H2009 0.930 . S
C1998 C1994 1.524 . S
C1998 H2010 0.956 . S
C1998 H2011 0.961 . S
C1998 H2012 0.961 . S
C1999 C1996 1.539 . S
C1999 H2013 0.958 . S
C1999 H2014 0.961 . S
C1999 H2015 0.960 . S
H2000 C1984 0.931 . S
H2001 C1989 0.929 . S
H2002 C1990 0.960 . S
H2003 C1990 0.962 . S
H2004 C1990 0.960 . S
H2005 C1991 0.961 . S
H2006 C1991 0.961 . S
H2007 C1991 0.961 . S
H2008 C1992 0.931 . S
H2009 C1997 0.930 . S
H2010 C1998 0.956 . S
H2011 C1998 0.961 . S
H2012 C1998 0.961 . S
H2013 C1999 0.958 . S
H2014 C1999 0.961 . S
H2015 C1999 0.960 . S
C2016 C2017 1.391 . S
C2016 C2018 1.394 . S
C2016 H2032 0.931 . S
C2017 C2016 1.391 . S
C2017 C2021 1.376 . S
C2018 C2016 1.394 . S
C2018 C2019 1.369 . S
C2018 C2022 1.531 . S
C2019 C2018 1.369 . S
C2019 C2020 1.410 . S
C2019 C2027 1.503 . S
C2020 C2019 1.410 . S
C2020 C2021 1.392 . S
C2020 C2023 1.511 . S
C2021 C2017 1.376 . S
C2021 C2020 1.392 . S
C2021 H2033 0.929 . S
C2022 C2018 1.531 . S
C2022 H2034 0.960 . S
C2022 H2035 0.962 . S
C2022 H2036 0.960 . S
C2023 C2020 1.511 . S
C2023 H2037 0.961 . S
C2023 H2038 0.961 . S
C2023 H2039 0.961 . S
C2024 C2025 1.370 . S
C2024 C2026 1.363 . S
C2024 H2040 0.931 . S
C2025 C2024 1.370 . S
C2025 C2029 1.408 . S
C2026 C2024 1.363 . S
C2026 C2027 1.370 . S
C2026 C2030 1.524 . S
C2027 C2019 1.503 . S
C2027 C2026 1.370 . S
C2027 C2028 1.403 . S
C2028 C2027 1.403 . S
C2028 C2029 1.404 . S
C2028 C2031 1.539 . S
C2029 C2025 1.408 . S
C2029 C2028 1.404 . S
C2029 H2041 0.930 . S
C2030 C2026 1.524 . S
C2030 H2042 0.956 . S
C2030 H2043 0.961 . S
C2030 H2044 0.961 . S
C2031 C2028 1.539 . S
C2031 H2045 0.958 . S
C2031 H2046 0.961 . S
C2031 H2047 0.960 . S
H2032 C2016 0.931 . S
H2033 C2021 0.929 . S
H2034 C2022 0.960 . S
H2035 C2022 0.962 . S
H2036 C2022 0.960 . S
H2037 C2023 0.961 . S
H2038 C2023 0.961 . S
H2039 C2023 0.961 . S
H2040 C2024 0.931 . S
H2041 C2029 0.930 . S
H2042 C2030 0.956 . S
H2043 C2030 0.961 . S
H2044 C2030 0.961 . S
H2045 C2031 0.958 . S
H2046 C2031 0.961 . S
H2047 C2031 0.960 . S
C2048 C2049 1.391 . S
C2048 C2050 1.394 . S
C2048 H2064 0.931 . S
C2049 C2048 1.391 . S
C2049 C2053 1.376 . S
C2050 C2048 1.394 . S
C2050 C2051 1.369 . S
C2050 C2054 1.531 . S
C2051 C2050 1.369 . S
C2051 C2052 1.410 . S
C2051 C2059 1.503 . S
C2052 C2051 1.410 . S
C2052 C2053 1.392 . S
C2052 C2055 1.511 . S
C2053 C2049 1.376 . S
C2053 C2052 1.392 . S
C2053 H2065 0.929 . S
C2054 C2050 1.531 . S
C2054 H2066 0.960 . S
C2054 H2067 0.962 . S
C2054 H2068 0.960 . S
C2055 C2052 1.511 . S
C2055 H2069 0.961 . S
C2055 H2070 0.961 . S
C2055 H2071 0.961 . S
C2056 C2057 1.370 . S
C2056 C2058 1.363 . S
C2056 H2072 0.931 . S
C2057 C2056 1.370 . S
C2057 C2061 1.408 . S
C2058 C2056 1.363 . S
C2058 C2059 1.370 . S
C2058 C2062 1.524 . S
C2059 C2051 1.503 . S
C2059 C2058 1.370 . S
C2059 C2060 1.403 . S
C2060 C2059 1.403 . S
C2060 C2061 1.404 . S
C2060 C2063 1.539 . S
C2061 C2057 1.408 . S
C2061 C2060 1.404 . S
C2061 H2073 0.930 . S
C2062 C2058 1.524 . S
C2062 H2074 0.956 . S
C2062 H2075 0.961 . S
C2062 H2076 0.961 . S
C2063 C2060 1.539 . S
C2063 H2077 0.958 . S
C2063 H2078 0.961 . S
C2063 H2079 0.960 . S
H2064 C2048 0.931 . S
H2065 C2053 0.929 . S
H2066 C2054 0.960 . S
H2067 C2054 0.962 . S
H2068 C2054 0.960 . S
H2069 C2055 0.961 . S
H2070 C2055 0.961 . S
H2071 C2055 0.961 . S
H2072 C2056 0.931 . S
H2073 C2061 0.930 . S
H2074 C2062 0.956 . S
H2075 C2062 0.961 . S
H2076 C2062 0.961 . S
H2077 C2063 0.958 . S
H2078 C2063 0.961 . S
H2079 C2063 0.960 . S
C2080 C2081 1.391 . S
C2080 C2082 1.394 . S
C2080 H2096 0.931 . S
C2081 C2080 1.391 . S
C2081 C2085 1.376 . S
C2082 C2080 1.394 . S
C2082 C2083 1.369 . S
C2082 C2086 1.531 . S
C2083 C2082 1.369 . S
C2083 C2084 1.410 . S
C2083 C2091 1.503 . S
C2084 C2083 1.410 . S
C2084 C2085 1.392 . S
C2084 C2087 1.511 . S
C2085 C2081 1.376 . S
C2085 C2084 1.392 . S
C2085 H2097 0.929 . S
C2086 C2082 1.531 . S
C2086 H2098 0.960 . S
C2086 H2099 0.962 . S
C2086 H2100 0.960 . S
C2087 C2084 1.511 . S
C2087 H2101 0.961 . S
C2087 H2102 0.961 . S
C2087 H2103 0.961 . S
C2088 C2089 1.370 . S
C2088 C2090 1.363 . S
C2088 H2104 0.931 . S
C2089 C2088 1.370 . S
C2089 C2093 1.408 . S
C2090 C2088 1.363 . S
C2090 C2091 1.370 . S
C2090 C2094 1.524 . S
C2091 C2083 1.503 . S
C2091 C2090 1.370 . S
C2091 C2092 1.403 . S
C2092 C2091 1.403 . S
C2092 C2093 1.404 . S
C2092 C2095 1.539 . S
C2093 C2089 1.408 . S
C2093 C2092 1.404 . S
C2093 H2105 0.930 . S
C2094 C2090 1.524 . S
C2094 H2106 0.956 . S
C2094 H2107 0.961 . S
C2094 H2108 0.961 . S
C2095 C2092 1.539 . S
C2095 H2109 0.958 . S
C2095 H2110 0.961 . S
C2095 H2111 0.960 . S
H2096 C2080 0.931 . S
H2097 C2085 0.929 . S
H2098 C2086 0.960 . S
H2099 C2086 0.962 . S
H2100 C2086 0.960 . S
H2101 C2087 0.961 . S
H2102 C2087 0.961 . S
H2103 C2087 0.961 . S
H2104 C2088 0.931 . S
H2105 C2093 0.930 . S
H2106 C2094 0.956 . S
H2107 C2094 0.961 . S
H2108 C2094 0.961 . S
H2109 C2095 0.958 . S
H2110 C2095 0.961 . S
H2111 C2095 0.960 . S
C2112 C2113 1.391 . S
C2112 C2114 1.394 . S
C2112 H2128 0.931 . S
C2113 C2112 1.391 . S
C2113 C2117 1.376 . S
C2114 C2112 1.394 . S
C2114 C2115 1.369 . S
C2114 C2118 1.531 . S
C2115 C2114 1.369 . S
C2115 C2116 1.410 . S
C2115 C2123 1.503 . S
C2116 C2115 1.410 . S
C2116 C2117 1.392 . S
C2116 C2119 1.511 . S
C2117 C2113 1.376 . S
C2117 C2116 1.392 . S
C2117 H2129 0.929 . S
C2118 C2114 1.531 . S
C2118 H2130 0.960 . S
C2118 H2131 0.962 . S
C2118 H2132 0.960 . S
C2119 C2116 1.511 . S
C2119 H2133 0.961 . S
C2119 H2134 0.961 . S
C2119 H2135 0.961 . S
C2120 C2121 1.370 . S
C2120 C2122 1.363 . S
C2120 H2136 0.931 . S
C2121 C2120 1.370 . S
C2121 C2125 1.408 . S
C2122 C2120 1.363 . S
C2122 C2123 1.370 . S
C2122 C2126 1.524 . S
C2123 C2115 1.503 . S
C2123 C2122 1.370 . S
C2123 C2124 1.403 . S
C2124 C2123 1.403 . S
C2124 C2125 1.404 . S
C2124 C2127 1.539 . S
C2125 C2121 1.408 . S
C2125 C2124 1.404 . S
C2125 H2137 0.930 . S
C2126 C2122 1.524 . S
C2126 H2138 0.956 . S
C2126 H2139 0.961 . S
C2126 H2140 0.961 . S
C2127 C2124 1.539 . S
C2127 H2141 0.958 . S
C2127 H2142 0.961 . S
C2127 H2143 0.960 . S
H2128 C2112 0.931 . S
H2129 C2117 0.929 . S
H2130 C2118 0.960 . S
H2131 C2118 0.962 . S
H2132 C2118 0.960 . S
H2133 C2119 0.961 . S
H2134 C2119 0.961 . S
H2135 C2119 0.961 . S
H2136 C2120 0.931 . S
H2137 C2125 0.930 . S
H2138 C2126 0.956 . S
H2139 C2126 0.961 . S
H2140 C2126 0.961 . S
H2141 C2127 0.958 . S
H2142 C2127 0.961 . S
H2143 C2127 0.960 . S
C2144 C2145 1.391 . S
C2144 C2146 1.394 . S
C2144 H2160 0.931 . S
C2145 C2144 1.391 . S
C2145 C2149 1.376 . S
C2146 C2144 1.394 . S
C2146 C2147 1.369 . S
C2146 C2150 1.531 . S
C2147 C2146 1.369 . S
C2147 C2148 1.410 . S
C2147 C2155 1.503 . S
C2148 C2147 1.410 . S
C2148 C2149 1.392 . S
C2148 C2151 1.511 . S
C2149 C2145 1.376 . S
C2149 C2148 1.392 . S
C2149 H2161 0.929 . S
C2150 C2146 1.531 . S
C2150 H2162 0.960 . S
C2150 H2163 0.962 . S
C2150 H2164 0.960 . S
C2151 C2148 1.511 . S
C2151 H2165 0.961 . S
C2151 H2166 0.961 . S
C2151 H2167 0.961 . S
C2152 C2153 1.370 . S
C2152 C2154 1.363 . S
C2152 H2168 0.931 . S
C2153 C2152 1.370 . S
C2153 C2157 1.408 . S
C2154 C2152 1.363 . S
C2154 C2155 1.370 . S
C2154 C2158 1.524 . S
C2155 C2147 1.503 . S
C2155 C2154 1.370 . S
C2155 C2156 1.403 . S
C2156 C2155 1.403 . S
C2156 C2157 1.404 . S
C2156 C2159 1.539 . S
C2157 C2153 1.408 . S
C2157 C2156 1.404 . S
C2157 H2169 0.930 . S
C2158 C2154 1.524 . S
C2158 H2170 0.956 . S
C2158 H2171 0.961 . S
C2158 H2172 0.961 . S
C2159 C2156 1.539 . S
C2159 H2173 0.958 . S
C2159 H2174 0.961 . S
C2159 H2175 0.960 . S
H2160 C2144 0.931 . S
H2161 C2149 0.929 . S
H2162 C2150 0.960 . S
H2163 C2150 0.962 . S
H2164 C2150 0.960 . S
H2165 C2151 0.961 . S
H2166 C2151 0.961 . S
H2167 C2151 0.961 . S
H2168 C2152 0.931 . S
H2169 C2157 0.930 . S
H2170 C2158 0.956 . S
H2171 C2158 0.961 . S
H2172 C2158 0.961 . S
H2173 C2159 0.958 . S
H2174 C2159 0.961 . S
H2175 C2159 0.960 . S
C2176 C2177 1.391 . S
C2176 C2178 1.394 . S
C2176 H2192 0.931 . S
C2177 C2176 1.391 . S
C2177 C2181 1.376 . S
C2178 C2176 1.394 . S
C2178 C2179 1.369 . S
C2178 C2182 1.531 . S
C2179 C2178 1.369 . S
C2179 C2180 1.410 . S
C2179 C2187 1.503 . S
C2180 C2179 1.410 . S
C2180 C2181 1.392 . S
C2180 C2183 1.511 . S
C2181 C2177 1.376 . S
C2181 C2180 1.392 . S
C2181 H2193 0.929 . S
C2182 C2178 1.531 . S
C2182 H2194 0.960 . S
C2182 H2195 0.962 . S
C2182 H2196 0.960 . S
C2183 C2180 1.511 . S
C2183 H2197 0.961 . S
C2183 H2198 0.961 . S
C2183 H2199 0.961 . S
C2184 C2185 1.370 . S
C2184 C2186 1.363 . S
C2184 H2200 0.931 . S
C2185 C2184 1.370 . S
C2185 C2189 1.408 . S
C2186 C2184 1.363 . S
C2186 C2187 1.370 . S
C2186 C2190 1.524 . S
C2187 C2179 1.503 . S
C2187 C2186 1.370 . S
C2187 C2188 1.403 . S
C2188 C2187 1.403 . S
C2188 C2189 1.404 . S
C2188 C2191 1.539 . S
C2189 C2185 1.408 . S
C2189 C2188 1.404 . S
C2189 H2201 0.930 . S
C2190 C2186 1.524 . S
C2190 H2202 0.956 . S
C2190 H2203 0.961 . S
C2190 H2204 0.961 . S
C2191 C2188 1.539 . S
C2191 H2205 0.958 . S
C2191 H2206 0.961 . S
C2191 H2207 0.960 . S
H2192 C2176 0.931 . S
H2193 C2181 0.929 . S
H2194 C2182 0.960 . S
H2195 C2182 0.962 . S
H2196 C2182 0.960 . S
H2197 C2183 0.961 . S
H2198 C2183 0.961 . S
H2199 C2183 0.961 . S
H2200 C2184 0.931 . S
H2201 C2189 0.930 . S
H2202 C2190 0.956 . S
H2203 C2190 0.961 . S
H2204 C2190 0.961 . S
H2205 C2191 0.958 . S
H2206 C2191 0.961 . S
H2207 C2191 0.960 . S
C2208 C2209 1.391 . S
C2208 C2210 1.394 . S
C2208 H2224 0.931 . S
C2209 C2208 1.391 . S
C2209 C2213 1.376 . S
C2210 C2208 1.394 . S
C2210 C2211 1.369 . S
C2210 C2214 1.531 . S
C2211 C2210 1.369 . S
C2211 C2212 1.410 . S
C2211 C2219 1.503 . S
C2212 C2211 1.410 . S
C2212 C2213 1.392 . S
C2212 C2215 1.511 . S
C2213 C2209 1.376 . S
C2213 C2212 1.392 . S
C2213 H2225 0.929 . S
C2214 C2210 1.531 . S
C2214 H2226 0.960 . S
C2214 H2227 0.962 . S
C2214 H2228 0.960 . S
C2215 C2212 1.511 . S
C2215 H2229 0.961 . S
C2215 H2230 0.961 . S
C2215 H2231 0.961 . S
C2216 C2217 1.370 . S
C2216 C2218 1.363 . S
C2216 H2232 0.931 . S
C2217 C2216 1.370 . S
C2217 C2221 1.408 . S
C2218 C2216 1.363 . S
C2218 C2219 1.370 . S
C2218 C2222 1.524 . S
C2219 C2211 1.503 . S
C2219 C2218 1.370 . S
C2219 C2220 1.403 . S
C2220 C2219 1.403 . S
C2220 C2221 1.404 . S
C2220 C2223 1.539 . S
C2221 C2217 1.408 . S
C2221 C2220 1.404 . S
C2221 H2233 0.930 . S
C2222 C2218 1.524 . S
C2222 H2234 0.956 . S
C2222 H2235 0.961 . S
C2222 H2236 0.961 . S
C2223 C2220 1.539 . S
C2223 H2237 0.958 . S
C2223 H2238 0.961 . S
C2223 H2239 0.960 . S
H2224 C2208 0.931 . S
H2225 C2213 0.929 . S
H2226 C2214 0.960 . S
H2227 C2214 0.962 . S
H2228 C2214 0.960 . S
H2229 C2215 0.961 . S
H2230 C2215 0.961 . S
H2231 C2215 0.961 . S
H2232 C2216 0.931 . S
H2233 C2221 0.930 . S
H2234 C2222 0.956 . S
H2235 C2222 0.961 . S
H2236 C2222 0.961 . S
H2237 C2223 0.958 . S
H2238 C2223 0.961 . S
H2239 C2223 0.960 . S
C2240 C2241 1.391 . S
C2240 C2242 1.394 . S
C2240 H2256 0.931 . S
C2241 C2240 1.391 . S
C2241 C2245 1.376 . S
C2242 C2240 1.394 . S
C2242 C2243 1.369 . S
C2242 C2246 1.531 . S
C2243 C2242 1.369 . S
C2243 C2244 1.410 . S
C2243 C2251 1.503 . S
C2244 C2243 1.410 . S
C2244 C2245 1.392 . S
C2244 C2247 1.511 . S
C2245 C2241 1.376 . S
C2245 C2244 1.392 . S
C2245 H2257 0.929 . S
C2246 C2242 1.531 . S
C2246 H2258 0.960 . S
C2246 H2259 0.962 . S
C2246 H2260 0.960 . S
C2247 C2244 1.511 . S
C2247 H2261 0.961 . S
C2247 H2262 0.961 . S
C2247 H2263 0.961 . S
C2248 C2249 1.370 . S
C2248 C2250 1.363 . S
C2248 H2264 0.931 . S
C2249 C2248 1.370 . S
C2249 C2253 1.408 . S
C2250 C2248 1.363 . S
C2250 C2251 1.370 . S
C2250 C2254 1.524 . S
C2251 C2243 1.503 . S
C2251 C2250 1.370 . S
C2251 C2252 1.403 . S
C2252 C2251 1.403 . S
C2252 C2253 1.404 . S
C2252 C2255 1.539 . S
C2253 C2249 1.408 . S
C2253 C2252 1.404 . S
C2253 H2265 0.930 . S
C2254 C2250 1.524 . S
C2254 H2266 0.956 . S
C2254 H2267 0.961 . S
C2254 H2268 0.961 . S
C2255 C2252 1.539 . S
C2255 H2269 0.958 . S
C2255 H2270 0.961 . S
C2255 H2271 0.960 . S
H2256 C2240 0.931 . S
H2257 C2245 0.929 . S
H2258 C2246 0.960 . S
H2259 C2246 0.962 . S
H2260 C2246 0.960 . S
H2261 C2247 0.961 . S
H2262 C2247 0.961 . S
H2263 C2247 0.961 . S
H2264 C2248 0.931 . S
H2265 C2253 0.930 . S
H2266 C2254 0.956 . S
H2267 C2254 0.961 . S
H2268 C2254 0.961 . S
H2269 C2255 0.958 . S
H2270 C2255 0.961 . S
H2271 C2255 0.960 . S
C2272 C2273 1.391 . S
C2272 C2274 1.394 . S
C2272 H2288 0.931 . S
C2273 C2272 1.391 . S
C2273 C2277 1.376 . S
C2274 C2272 1.394 . S
C2274 C2275 1.369 . S
C2274 C2278 1.531 . S
C2275 C2274 1.369 . S
C2275 C2276 1.410 . S
C2275 C2283 1.503 . S
C2276 C2275 1.410 . S
C2276 C2277 1.392 . S
C2276 C2279 1.511 . S
C2277 C2273 1.376 . S
C2277 C2276 1.392 . S
C2277 H2289 0.929 . S
C2278 C2274 1.531 . S
C2278 H2290 0.960 . S
C2278 H2291 0.962 . S
C2278 H2292 0.960 . S
C2279 C2276 1.511 . S
C2279 H2293 0.961 . S
C2279 H2294 0.961 . S
C2279 H2295 0.961 . S
C2280 C2281 1.370 . S
C2280 C2282 1.363 . S
C2280 H2296 0.931 . S
C2281 C2280 1.370 . S
C2281 C2285 1.408 . S
C2282 C2280 1.363 . S
C2282 C2283 1.370 . S
C2282 C2286 1.524 . S
C2283 C2275 1.503 . S
C2283 C2282 1.370 . S
C2283 C2284 1.403 . S
C2284 C2283 1.403 . S
C2284 C2285 1.404 . S
C2284 C2287 1.539 . S
C2285 C2281 1.408 . S
C2285 C2284 1.404 . S
C2285 H2297 0.930 . S
C2286 C2282 1.524 . S
C2286 H2298 0.956 . S
C2286 H2299 0.961 . S
C2286 H2300 0.961 . S
C2287 C2284 1.539 . S
C2287 H2301 0.958 . S
C2287 H2302 0.961 . S
C2287 H2303 0.960 . S
H2288 C2272 0.931 . S
H2289 C2277 0.929 . S
H2290 C2278 0.960 . S
H2291 C2278 0.962 . S
H2292 C2278 0.960 . S
H2293 C2279 0.961 . S
H2294 C2279 0.961 . S
H2295 C2279 0.961 . S
H2296 C2280 0.931 . S
H2297 C2285 0.930 . S
H2298 C2286 0.956 . S
H2299 C2286 0.961 . S
H2300 C2286 0.961 . S
H2301 C2287 0.958 . S
H2302 C2287 0.961 . S
H2303 C2287 0.960 . S
C2304 C2305 1.391 . S
C2304 C2306 1.394 . S
C2304 H2320 0.931 . S
C2305 C2304 1.391 . S
C2305 C2309 1.376 . S
C2306 C2304 1.394 . S
C2306 C2307 1.369 . S
C2306 C2310 1.531 . S
C2307 C2306 1.369 . S
C2307 C2308 1.410 . S
C2307 C2315 1.503 . S
C2308 C2307 1.410 . S
C2308 C2309 1.392 . S
C2308 C2311 1.511 . S
C2309 C2305 1.376 . S
C2309 C2308 1.392 . S
C2309 H2321 0.929 . S
C2310 C2306 1.531 . S
C2310 H2322 0.960 . S
C2310 H2323 0.962 . S
C2310 H2324 0.960 . S
C2311 C2308 1.511 . S
C2311 H2325 0.961 . S
C2311 H2326 0.961 . S
C2311 H2327 0.961 . S
C2312 C2313 1.370 . S
C2312 C2314 1.363 . S
C2312 H2328 0.931 . S
C2313 C2312 1.370 . S
C2313 C2317 1.408 . S
C2314 C2312 1.363 . S
C2314 C2315 1.370 . S
C2314 C2318 1.524 . S
C2315 C2307 1.503 . S
C2315 C2314 1.370 . S
C2315 C2316 1.403 . S
C2316 C2315 1.403 . S
C2316 C2317 1.404 . S
C2316 C2319 1.539 . S
C2317 C2313 1.408 . S
C2317 C2316 1.404 . S
C2317 H2329 0.930 . S
C2318 C2314 1.524 . S
C2318 H2330 0.956 . S
C2318 H2331 0.961 . S
C2318 H2332 0.961 . S
C2319 C2316 1.539 . S
C2319 H2333 0.958 . S
C2319 H2334 0.961 . S
C2319 H2335 0.960 . S
H2320 C2304 0.931 . S
H2321 C2309 0.929 . S
H2322 C2310 0.960 . S
H2323 C2310 0.962 . S
H2324 C2310 0.960 . S
H2325 C2311 0.961 . S
H2326 C2311 0.961 . S
H2327 C2311 0.961 . S
H2328 C2312 0.931 . S
H2329 C2317 0.930 . S
H2330 C2318 0.956 . S
H2331 C2318 0.961 . S
H2332 C2318 0.961 . S
H2333 C2319 0.958 . S
H2334 C2319 0.961 . S
H2335 C2319 0.960 . S
C2336 C2337 1.391 . S
C2336 C2338 1.394 . S
C2336 H2352 0.931 . S
C2337 C2336 1.391 . S
C2337 C2341 1.376 . S
C2338 C2336 1.394 . S
C2338 C2339 1.369 . S
C2338 C2342 1.531 . S
C2339 C2338 1.369 . S
C2339 C2340 1.410 . S
C2339 C2347 1.503 . S
C2340 C2339 1.410 . S
C2340 C2341 1.392 . S
C2340 C2343 1.511 . S
C2341 C2337 1.376 . S
C2341 C2340 1.392 . S
C2341 H2353 0.929 . S
C2342 C2338 1.531 . S
C2342 H2354 0.960 . S
C2342 H2355 0.962 . S
C2342 H2356 0.960 . S
C2343 C2340 1.511 . S
C2343 H2357 0.961 . S
C2343 H2358 0.961 . S
C2343 H2359 0.961 . S
C2344 C2345 1.370 . S
C2344 C2346 1.363 . S
C2344 H2360 0.931 . S
C2345 C2344 1.370 . S
C2345 C2349 1.408 . S
C2346 C2344 1.363 . S
C2346 C2347 1.370 . S
C2346 C2350 1.524 . S
C2347 C2339 1.503 . S
C2347 C2346 1.370 . S
C2347 C2348 1.403 . S
C2348 C2347 1.403 . S
C2348 C2349 1.404 . S
C2348 C2351 1.539 . S
C2349 C2345 1.408 . S
C2349 C2348 1.404 . S
C2349 H2361 0.930 . S
C2350 C2346 1.524 . S
C2350 H2362 0.956 . S
C2350 H2363 0.961 . S
C2350 H2364 0.961 . S
C2351 C2348 1.539 . S
C2351 H2365 0.958 . S
C2351 H2366 0.961 . S
C2351 H2367 0.960 . S
H2352 C2336 0.931 . S
H2353 C2341 0.929 . S
H2354 C2342 0.960 . S
H2355 C2342 0.962 . S
H2356 C2342 0.960 . S
H2357 C2343 0.961 . S
H2358 C2343 0.961 . S
H2359 C2343 0.961 . S
H2360 C2344 0.931 . S
H2361 C2349 0.930 . S
H2362 C2350 0.956 . S
H2363 C2350 0.961 . S
H2364 C2350 0.961 . S
H2365 C2351 0.958 . S
H2366 C2351 0.961 . S
H2367 C2351 0.960 . S
C2368 C2369 1.391 . S
C2368 C2370 1.394 . S
C2368 H2384 0.931 . S
C2369 C2368 1.391 . S
C2369 C2373 1.376 . S
C2370 C2368 1.394 . S
C2370 C2371 1.369 . S
C2370 C2374 1.531 . S
C2371 C2370 1.369 . S
C2371 C2372 1.410 . S
C2371 C2379 1.503 . S
C2372 C2371 1.410 . S
C2372 C2373 1.392 . S
C2372 C2375 1.511 . S
C2373 C2369 1.376 . S
C2373 C2372 1.392 . S
C2373 H2385 0.929 . S
C2374 C2370 1.531 . S
C2374 H2386 0.960 . S
C2374 H2387 0.962 . S
C2374 H2388 0.960 . S
C2375 C2372 1.511 . S
C2375 H2389 0.961 . S
C2375 H2390 0.961 . S
C2375 H2391 0.961 . S
C2376 C2377 1.370 . S
C2376 C2378 1.363 . S
C2376 H2392 0.931 . S
C2377 C2376 1.370 . S
C2377 C2381 1.408 . S
C2378 C2376 1.363 . S
C2378 C2379 1.370 . S
C2378 C2382 1.524 . S
C2379 C2371 1.503 . S
C2379 C2378 1.370 . S
C2379 C2380 1.403 . S
C2380 C2379 1.403 . S
C2380 C2381 1.404 . S
C2380 C2383 1.539 . S
C2381 C2377 1.408 . S
C2381 C2380 1.404 . S
C2381 H2393 0.930 . S
C2382 C2378 1.524 . S
C2382 H2394 0.956 . S
C2382 H2395 0.961 . S
C2382 H2396 0.961 . S
C2383 C2380 1.539 . S
C2383 H2397 0.958 . S
C2383 H2398 0.961 . S
C2383 H2399 0.960 . S
H2384 C2368 0.931 . S
H2385 C2373 0.929 . S
H2386 C2374 0.960 . S
H2387 C2374 0.962 . S
H2388 C2374 0.960 . S
H2389 C2375 0.961 . S
H2390 C2375 0.961 . S
H2391 C2375 0.961 . S
H2392 C2376 0.931 . S
H2393 C2381 0.930 . S
H2394 C2382 0.956 . S
H2395 C2382 0.961 . S
H2396 C2382 0.961 . S
H2397 C2383 0.958 . S
H2398 C2383 0.961 . S
H2399 C2383 0.960 . S
C2400 C2401 1.391 . S
C2400 C2402 1.394 . S
C2400 H2416 0.931 . S
C2401 C2400 1.391 . S
C2401 C2405 1.376 . S
C2402 C2400 1.394 . S
C2402 C2403 1.369 . S
C2402 C2406 1.531 . S
C2403 C2402 1.369 . S
C2403 C2404 1.410 . S
C2403 C2411 1.503 . S
C2404 C2403 1.410 . S
C2404 C2405 1.392 . S
C2404 C2407 1.511 . S
C2405 C2401 1.376 . S
C2405 C2404 1.392 . S
C2405 H2417 0.929 . S
C2406 C2402 1.531 . S
C2406 H2418 0.960 . S
C2406 H2419 0.962 . S
C2406 H2420 0.960 . S
C2407 C2404 1.511 . S
C2407 H2421 0.961 . S
C2407 H2422 0.961 . S
C2407 H2423 0.961 . S
C2408 C2409 1.370 . S
C2408 C2410 1.363 . S
C2408 H2424 0.931 . S
C2409 C2408 1.370 . S
C2409 C2413 1.408 . S
C2410 C2408 1.363 . S
C2410 C2411 1.370 . S
C2410 C2414 1.524 . S
C2411 C2403 1.503 . S
C2411 C2410 1.370 . S
C2411 C2412 1.403 . S
C2412 C2411 1.403 . S
C2412 C2413 1.404 . S
C2412 C2415 1.539 . S
C2413 C2409 1.408 . S
C2413 C2412 1.404 . S
C2413 H2425 0.930 . S
C2414 C2410 1.524 . S
C2414 H2426 0.956 . S
C2414 H2427 0.961 . S
C2414 H2428 0.961 . S
C2415 C2412 1.539 . S
C2415 H2429 0.958 . S
C2415 H2430 0.961 . S
C2415 H2431 0.960 . S
H2416 C2400 0.931 . S
H2417 C2405 0.929 . S
H2418 C2406 0.960 . S
H2419 C2406 0.962 . S
H2420 C2406 0.960 . S
H2421 C2407 0.961 . S
H2422 C2407 0.961 . S
H2423 C2407 0.961 . S
H2424 C2408 0.931 . S
H2425 C2413 0.930 . S
H2426 C2414 0.956 . S
H2427 C2414 0.961 . S
H2428 C2414 0.961 . S
H2429 C2415 0.958 . S
H2430 C2415 0.961 . S
H2431 C2415 0.960 . S
C2432 C2433 1.391 . S
C2432 C2434 1.394 . S
C2432 H2448 0.931 . S
C2433 C2432 1.391 . S
C2433 C2437 1.376 . S
C2434 C2432 1.394 . S
C2434 C2435 1.369 . S
C2434 C2438 1.531 . S
C2435 C2434 1.369 . S
C2435 C2436 1.410 . S
C2435 C2443 1.503 . S
C2436 C2435 1.410 . S
C2436 C2437 1.392 . S
C2436 C2439 1.511 . S
C2437 C2433 1.376 . S
C2437 C2436 1.392 . S
C2437 H2449 0.929 . S
C2438 C2434 1.531 . S
C2438 H2450 0.960 . S
C2438 H2451 0.962 . S
C2438 H2452 0.960 . S
C2439 C2436 1.511 . S
C2439 H2453 0.961 . S
C2439 H2454 0.961 . S
C2439 H2455 0.961 . S
C2440 C2441 1.370 . S
C2440 C2442 1.363 . S
C2440 H2456 0.931 . S
C2441 C2440 1.370 . S
C2441 C2445 1.408 . S
C2442 C2440 1.363 . S
C2442 C2443 1.370 . S
C2442 C2446 1.524 . S
C2443 C2435 1.503 . S
C2443 C2442 1.370 . S
C2443 C2444 1.403 . S
C2444 C2443 1.403 . S
C2444 C2445 1.404 . S
C2444 C2447 1.539 . S
C2445 C2441 1.408 . S
C2445 C2444 1.404 . S
C2445 H2457 0.930 . S
C2446 C2442 1.524 . S
C2446 H2458 0.956 . S
C2446 H2459 0.961 . S
C2446 H2460 0.961 . S
C2447 C2444 1.539 . S
C2447 H2461 0.958 . S
C2447 H2462 0.961 . S
C2447 H2463 0.960 . S
H2448 C2432 0.931 . S
H2449 C2437 0.929 . S
H2450 C2438 0.960 . S
H2451 C2438 0.962 . S
H2452 C2438 0.960 . S
H2453 C2439 0.961 . S
H2454 C2439 0.961 . S
H2455 C2439 0.961 . S
H2456 C2440 0.931 . S
H2457 C2445 0.930 . S
H2458 C2446 0.956 . S
H2459 C2446 0.961 . S
H2460 C2446 0.961 . S
H2461 C2447 0.958 . S
H2462 C2447 0.961 . S
H2463 C2447 0.960 . S
C2464 C2465 1.391 . S
C2464 C2466 1.394 . S
C2464 H2480 0.931 . S
C2465 C2464 1.391 . S
C2465 C2469 1.376 . S
C2466 C2464 1.394 . S
C2466 C2467 1.369 . S
C2466 C2470 1.531 . S
C2467 C2466 1.369 . S
C2467 C2468 1.410 . S
C2467 C2475 1.503 . S
C2468 C2467 1.410 . S
C2468 C2469 1.392 . S
C2468 C2471 1.511 . S
C2469 C2465 1.376 . S
C2469 C2468 1.392 . S
C2469 H2481 0.929 . S
C2470 C2466 1.531 . S
C2470 H2482 0.960 . S
C2470 H2483 0.962 . S
C2470 H2484 0.960 . S
C2471 C2468 1.511 . S
C2471 H2485 0.961 . S
C2471 H2486 0.961 . S
C2471 H2487 0.961 . S
C2472 C2473 1.370 . S
C2472 C2474 1.363 . S
C2472 H2488 0.931 . S
C2473 C2472 1.370 . S
C2473 C2477 1.408 . S
C2474 C2472 1.363 . S
C2474 C2475 1.370 . S
C2474 C2478 1.524 . S
C2475 C2467 1.503 . S
C2475 C2474 1.370 . S
C2475 C2476 1.403 . S
C2476 C2475 1.403 . S
C2476 C2477 1.404 . S
C2476 C2479 1.539 . S
C2477 C2473 1.408 . S
C2477 C2476 1.404 . S
C2477 H2489 0.930 . S
C2478 C2474 1.524 . S
C2478 H2490 0.956 . S
C2478 H2491 0.961 . S
C2478 H2492 0.961 . S
C2479 C2476 1.539 . S
C2479 H2493 0.958 . S
C2479 H2494 0.961 . S
C2479 H2495 0.960 . S
H2480 C2464 0.931 . S
H2481 C2469 0.929 . S
H2482 C2470 0.960 . S
H2483 C2470 0.962 . S
H2484 C2470 0.960 . S
H2485 C2471 0.961 . S
H2486 C2471 0.961 . S
H2487 C2471 0.961 . S
H2488 C2472 0.931 . S
H2489 C2477 0.930 . S
H2490 C2478 0.956 . S
H2491 C2478 0.961 . S
H2492 C2478 0.961 . S
H2493 C2479 0.958 . S
H2494 C2479 0.961 . S
H2495 C2479 0.960 . S
C449 C7 1.671 . S
C457 C35 1.662 . S
C481 C49 1.642 . S
C489 C21 1.659 . S
C513 C91 1.652 . S
C521 C63 1.654 . S
C545 C105 1.667 . S
C553 C77 1.666 . S
C577 C119 1.661 . S
C585 C147 1.656 . S
C609 C161 1.671 . S
C617 C133 1.662 . S
C641 C175 1.654 . S
C649 C203 1.654 . S
C673 C217 1.669 . S
C681 C189 1.658 . S
C705 C231 1.644 . S
C713 C259 1.661 . S
C737 C245 1.642 . S
C745 C273 1.660 . S
C769 C315 1.646 . S
C777 C287 1.656 . S
C801 C301 1.653 . S
C809 C329 1.654 . S
C833 C371 1.662 . S
C841 C343 1.657 . S
C865 C385 1.670 . S
C873 C357 1.661 . S
C897 C427 1.657 . S
C905 C399 1.655 . S
C929 C413 1.655 . S
C937 C441 1.654 . S
C961 C356 1.225 . S
C969 C6 1.200 . S
C993 C20 1.224 . S
C1001 C342 1.210 . S
C1025 C34 1.191 . S
C1033 C384 1.208 . S
C1057 C48 1.226 . S
C1065 C370 1.209 . S
C1089 C412 1.185 . S
C1097 C62 1.209 . S
C1121 C76 1.194 . S
C1129 C398 1.219 . S
C1153 C90 1.217 . S
C1161 C440 1.200 . S
C1185 C426 1.204 . S
C1193 C104 1.219 . S
C1217 C118 1.187 . S
C1225 C244 1.211 . S
C1249 C132 1.189 . S
C1257 C230 1.209 . S
C1281 C146 1.188 . S
C1289 C272 1.219 . S
C1313 C160 1.188 . S
C1321 C258 1.210 . S
C1345 C174 1.219 . S
C1353 C300 1.200 . S
C1377 C286 1.203 . S
C1385 C188 1.219 . S
C1409 C328 1.203 . S
C1417 C202 1.201 . S
C1441 C216 1.193 . S
C1449 C314 1.219 . S
C1473 C8 1.321 . S
C1481 C64 1.365 . S
C1505 C22 1.378 . S
C1513 C414 1.343 . S
C1537 C36 1.317 . S
C1545 C204 1.361 . S
C1569 C50 1.301 . S
C1577 C330 1.367 . S
C1601 C78 1.404 . S
C1609 C358 1.329 . S
C1633 C148 1.300 . S
C1641 C92 1.369 . S
C1665 C274 1.324 . S
C1673 C106 1.357 . S
C1697 C176 1.396 . S
C1705 C120 1.329 . S
C1729 C134 1.289 . S
C1737 C302 1.375 . S
C1761 C442 1.385 . S
C1769 C162 1.333 . S
C1793 C190 1.289 . S
C1801 C246 1.375 . S
C1825 C218 1.290 . S
C1833 C386 1.373 . S
C1857 C288 1.315 . S
C1865 C232 1.361 . S
C1889 C260 1.311 . S
C1897 C428 1.363 . S
C1921 C372 1.399 . S
C1929 C316 1.332 . S
C1953 C400 1.400 . S
C1961 C344 1.327 . S
C1985 C9 1.541 . S
C1993 C23 1.578 . S
C2017 C37 1.548 . S
C2025 C51 1.577 . S
C2049 C65 1.548 . S
C2057 C79 1.571 . S
C2081 C93 1.569 . S
C2089 C107 1.567 . S
C2113 C135 1.558 . S
C2121 C121 1.564 . S
C2145 C149 1.580 . S
C2153 C163 1.557 . S
C2177 C177 1.576 . S
C2185 C191 1.560 . S
C2209 C205 1.574 . S
C2217 C219 1.565 . S
C2241 C233 1.553 . S
C2249 C247 1.566 . S
C2273 C275 1.587 . S
C2281 C261 1.556 . S
C2305 C289 1.555 . S
C2313 C303 1.573 . S
C2337 C317 1.589 . S
C2345 C331 1.558 . S
C2369 C359 1.546 . S
C2377 C345 1.569 . S
C2401 C373 1.538 . S
C2409 C387 1.578 . S
C2433 C415 1.543 . S
C2441 C401 1.577 . S
C2465 C429 1.552 . S
C2473 C443 1.570 . S
