# Generated by pormake.
# Topology vch, (7)-cn, num edge types: 1
# Building blocks:
#     Node 0, Type 0, BuildingBlock: NUHQUE_clean_sbu_2, # of connection points: 7
#     Node 1, Type 0, BuildingBlock: NUHQUE_clean_sbu_2, # of connection points: 7
#     Node 2, Type 0, BuildingBlock: NUHQUE_clean_sbu_2, # of connection points: 7
#     Node 3, Type 0, BuildingBlock: NUHQUE_clean_sbu_2, # of connection points: 7
#     Node 4, Type 0, BuildingBlock: NUHQUE_clean_sbu_2, # of connection points: 7
#     Node 5, Type 0, BuildingBlock: NUHQUE_clean_sbu_2, # of connection points: 7
#     Node 6, Type 0, BuildingBlock: NUHQUE_clean_sbu_2, # of connection points: 7
#     Node 7, Type 0, BuildingBlock: NUHQUE_clean_sbu_2, # of connection points: 7
#     Node 8, Type 0, BuildingBlock: NUHQUE_clean_sbu_2, # of connection points: 7
#     Node 9, Type 0, BuildingBlock: NUHQUE_clean_sbu_2, # of connection points: 7
#     Node 10, Type 0, BuildingBlock: NUHQUE_clean_sbu_2, # of connection points: 7
#     Node 11, Type 0, BuildingBlock: NUHQUE_clean_sbu_2, # of connection points: 7
#     Node 12, Type 0, BuildingBlock: NUHQUE_clean_sbu_2, # of connection points: 7
#     Node 13, Type 0, BuildingBlock: NUHQUE_clean_sbu_2, # of connection points: 7
#     Node 14, Type 0, BuildingBlock: NUHQUE_clean_sbu_2, # of connection points: 7
#     Node 15, Type 0, BuildingBlock: NUHQUE_clean_sbu_2, # of connection points: 7
#     Edge 16, Type (0, 0), BuildingBlock: CIFDUS_clean_linker_0, # of connection points: 2
#     Edge 17, Type (0, 0), BuildingBlock: CIFDUS_clean_linker_0, # of connection points: 2
#     Edge 18, Type (0, 0), BuildingBlock: CIFDUS_clean_linker_0, # of connection points: 2
#     Edge 19, Type (0, 0), BuildingBlock: CIFDUS_clean_linker_0, # of connection points: 2
#     Edge 20, Type (0, 0), BuildingBlock: CIFDUS_clean_linker_0, # of connection points: 2
#     Edge 21, Type (0, 0), BuildingBlock: CIFDUS_clean_linker_0, # of connection points: 2
#     Edge 22, Type (0, 0), BuildingBlock: CIFDUS_clean_linker_0, # of connection points: 2
#     Edge 23, Type (0, 0), BuildingBlock: CIFDUS_clean_linker_0, # of connection points: 2
#     Edge 24, Type (0, 0), BuildingBlock: CIFDUS_clean_linker_0, # of connection points: 2
#     Edge 25, Type (0, 0), BuildingBlock: CIFDUS_clean_linker_0, # of connection points: 2
#     Edge 26, Type (0, 0), BuildingBlock: CIFDUS_clean_linker_0, # of connection points: 2
#     Edge 27, Type (0, 0), BuildingBlock: CIFDUS_clean_linker_0, # of connection points: 2
#     Edge 28, Type (0, 0), BuildingBlock: CIFDUS_clean_linker_0, # of connection points: 2
#     Edge 29, Type (0, 0), BuildingBlock: CIFDUS_clean_linker_0, # of connection points: 2
#     Edge 30, Type (0, 0), BuildingBlock: CIFDUS_clean_linker_0, # of connection points: 2
#     Edge 31, Type (0, 0), BuildingBlock: CIFDUS_clean_linker_0, # of connection points: 2
#     Edge 32, Type (0, 0), BuildingBlock: CIFDUS_clean_linker_0, # of connection points: 2
#     Edge 33, Type (0, 0), BuildingBlock: CIFDUS_clean_linker_0, # of connection points: 2
#     Edge 34, Type (0, 0), BuildingBlock: CIFDUS_clean_linker_0, # of connection points: 2
#     Edge 35, Type (0, 0), BuildingBlock: CIFDUS_clean_linker_0, # of connection points: 2
#     Edge 36, Type (0, 0), BuildingBlock: CIFDUS_clean_linker_0, # of connection points: 2
#     Edge 37, Type (0, 0), BuildingBlock: CIFDUS_clean_linker_0, # of connection points: 2
#     Edge 38, Type (0, 0), BuildingBlock: CIFDUS_clean_linker_0, # of connection points: 2
#     Edge 39, Type (0, 0), BuildingBlock: CIFDUS_clean_linker_0, # of connection points: 2
#     Edge 40, Type (0, 0), BuildingBlock: CIFDUS_clean_linker_0, # of connection points: 2
#     Edge 41, Type (0, 0), BuildingBlock: CIFDUS_clean_linker_0, # of connection points: 2
#     Edge 42, Type (0, 0), BuildingBlock: CIFDUS_clean_linker_0, # of connection points: 2
#     Edge 43, Type (0, 0), BuildingBlock: CIFDUS_clean_linker_0, # of connection points: 2
#     Edge 44, Type (0, 0), BuildingBlock: CIFDUS_clean_linker_0, # of connection points: 2
#     Edge 45, Type (0, 0), BuildingBlock: CIFDUS_clean_linker_0, # of connection points: 2
#     Edge 46, Type (0, 0), BuildingBlock: CIFDUS_clean_linker_0, # of connection points: 2
#     Edge 47, Type (0, 0), BuildingBlock: CIFDUS_clean_linker_0, # of connection points: 2
#     Edge 48, Type (0, 0), BuildingBlock: CIFDUS_clean_linker_0, # of connection points: 2
#     Edge 49, Type (0, 0), BuildingBlock: CIFDUS_clean_linker_0, # of connection points: 2
#     Edge 50, Type (0, 0), BuildingBlock: CIFDUS_clean_linker_0, # of connection points: 2
#     Edge 51, Type (0, 0), BuildingBlock: CIFDUS_clean_linker_0, # of connection points: 2
#     Edge 52, Type (0, 0), BuildingBlock: CIFDUS_clean_linker_0, # of connection points: 2
#     Edge 53, Type (0, 0), BuildingBlock: CIFDUS_clean_linker_0, # of connection points: 2
#     Edge 54, Type (0, 0), BuildingBlock: CIFDUS_clean_linker_0, # of connection points: 2
#     Edge 55, Type (0, 0), BuildingBlock: CIFDUS_clean_linker_0, # of connection points: 2
#     Edge 56, Type (0, 0), BuildingBlock: CIFDUS_clean_linker_0, # of connection points: 2
#     Edge 57, Type (0, 0), BuildingBlock: CIFDUS_clean_linker_0, # of connection points: 2
#     Edge 58, Type (0, 0), BuildingBlock: CIFDUS_clean_linker_0, # of connection points: 2
#     Edge 59, Type (0, 0), BuildingBlock: CIFDUS_clean_linker_0, # of connection points: 2
#     Edge 60, Type (0, 0), BuildingBlock: CIFDUS_clean_linker_0, # of connection points: 2
#     Edge 61, Type (0, 0), BuildingBlock: CIFDUS_clean_linker_0, # of connection points: 2
#     Edge 62, Type (0, 0), BuildingBlock: CIFDUS_clean_linker_0, # of connection points: 2
#     Edge 63, Type (0, 0), BuildingBlock: CIFDUS_clean_linker_0, # of connection points: 2
#     Edge 64, Type (0, 0), BuildingBlock: CIFDUS_clean_linker_0, # of connection points: 2
#     Edge 65, Type (0, 0), BuildingBlock: CIFDUS_clean_linker_0, # of connection points: 2
#     Edge 66, Type (0, 0), BuildingBlock: CIFDUS_clean_linker_0, # of connection points: 2
#     Edge 67, Type (0, 0), BuildingBlock: CIFDUS_clean_linker_0, # of connection points: 2
#     Edge 68, Type (0, 0), BuildingBlock: CIFDUS_clean_linker_0, # of connection points: 2
#     Edge 69, Type (0, 0), BuildingBlock: CIFDUS_clean_linker_0, # of connection points: 2
#     Edge 70, Type (0, 0), BuildingBlock: CIFDUS_clean_linker_0, # of connection points: 2
#     Edge 71, Type (0, 0), BuildingBlock: CIFDUS_clean_linker_0, # of connection points: 2
# Relax obj value: 0.140
# Max RMSD: 0.213
# Mean RMSD: 0.213
data_MOF--net-vch--node1-NUHQUE_clean_sbu_2--edge1-CIFDUS_clean_linker_0
_symmetry_space_group_name_H-M    P1
_symmetry_Int_Tables_number       1
_symmetry_cell_setting            triclinic
loop_
_symmetry_equiv_pos_as_xyz
'x, y, z'
_cell_length_a     19.490286
_cell_length_b     44.58684
_cell_length_c     60.371381
_cell_angle_alpha  89.878374
_cell_angle_beta   89.932647
_cell_angle_gamma 90.147332
loop_
_atom_site_label
_atom_site_type_symbol
_atom_site_fract_x
_atom_site_fract_y
_atom_site_fract_z
_atom_type_partial_charge
O0 O 0.16974 0.13531 0.09074 0.0
Tb1 Tb 0.1835 0.14543 0.12588 0.0
Eu2 Eu 0.00881 0.11791 0.13619 0.0
C3 C 0.21986 0.12265 0.07937 0.0
O4 O 0.27467 0.11348 0.09004 0.0
C5 C 0.14372 0.07836 0.13179 0.0
O6 O 0.03573 0.11775 0.17276 0.0
C7 C 0.88189 0.10183 0.13011 0.0
C8 C 0.01333 0.13893 0.18616 0.0
O9 O 0.97905 0.16156 0.17772 0.0
C10 C 0.0541 0.18436 0.12827 0.0
C11 C 0.82157 0.1117 0.11704 0.0
C12 C 0.82075 0.10914 0.09376 0.0
C13 C 0.76234 0.11736 0.08158 0.0
C14 C 0.70494 0.12841 0.09284 0.0
C15 C 0.70436 0.13108 0.11598 0.0
C16 C 0.7628 0.12249 0.12804 0.0
O17 O 0.17784 0.10092 0.14042 0.0
O18 O 0.08026 0.08142 0.12482 0.0
O19 O 0.28013 0.14529 0.14437 0.0
O20 O 0.27294 0.17154 0.11524 0.0
C21 C 0.31339 0.16321 0.13119 0.0
O22 O 0.02116 0.16214 0.11884 0.0
O23 O 0.11356 0.17969 0.13793 0.0
O24 O 0.90138 0.11927 0.14645 0.0
O25 O 0.93371 0.0903 0.11914 0.0
H26 H 0.86513 0.10052 0.08505 0.0
H27 H 0.6587 0.13339 0.08358 0.0
H28 H 0.76232 0.12396 0.14597 0.0
O29 O 0.36292 0.87787 0.08488 0.0
Tb30 Tb 0.33721 0.86655 0.11901 0.0
Eu31 Eu 0.51466 0.89292 0.12362 0.0
C32 C 0.31944 0.89423 0.07332 0.0
O33 O 0.26746 0.90662 0.0837 0.0
C34 C 0.37789 0.93202 0.1277 0.0
O35 O 0.52517 0.89961 0.16076 0.0
C36 C 0.62842 0.90969 0.10438 0.0
C37 C 0.48755 0.88631 0.1761 0.0
O38 O 0.43809 0.868 0.17016 0.0
C39 C 0.46105 0.8242 0.12712 0.0
C40 C 0.69105 0.90016 0.09211 0.0
C41 C 0.69308 0.90272 0.06882 0.0
C42 C 0.75434 0.8979 0.05693 0.0
C43 C 0.81357 0.88992 0.06877 0.0
C44 C 0.81272 0.8865 0.09188 0.0
C45 C 0.75146 0.89205 0.10352 0.0
O46 O 0.34666 0.90874 0.13638 0.0
O47 O 0.4367 0.92927 0.11727 0.0
O48 O 0.23281 0.87196 0.13206 0.0
O49 O 0.24923 0.84161 0.1058 0.0
C50 C 0.20296 0.85342 0.11859 0.0
O51 O 0.50046 0.84357 0.11653 0.0
O52 O 0.39857 0.83107 0.13374 0.0
O53 O 0.62384 0.90344 0.12561 0.0
O54 O 0.56903 0.90823 0.09411 0.0
H55 H 0.64698 0.90905 0.06 0.0
H56 H 0.86196 0.88761 0.06011 0.0
H57 H 0.75126 0.89047 0.12144 0.0
O58 O 0.70845 0.90896 0.44232 0.0
Tb59 Tb 0.70213 0.89948 0.40694 0.0
Eu60 Eu 0.52019 0.90124 0.35985 0.0
C61 C 0.75643 0.92632 0.45083 0.0
O62 O 0.79849 0.94087 0.43762 0.0
C63 C 0.63262 0.94291 0.37232 0.0
O64 O 0.49438 0.88712 0.32471 0.0
C65 C 0.41444 0.91072 0.38536 0.0
C66 C 0.52917 0.89929 0.3082 0.0
O67 O 0.57864 0.91827 0.31294 0.0
C68 C 0.5943 0.85045 0.39039 0.0
C69 C 0.35191 0.90046 0.39735 0.0
C70 C 0.3548 0.89633 0.42052 0.0
C71 C 0.29461 0.89203 0.43313 0.0
C72 C 0.23148 0.89059 0.42201 0.0
C73 C 0.22735 0.89449 0.39902 0.0
C74 C 0.28744 0.89978 0.38673 0.0
O75 O 0.62582 0.92184 0.38731 0.0
O76 O 0.58548 0.9427 0.357 0.0
O77 O 0.79801 0.91592 0.39219 0.0
O78 O 0.78365 0.86901 0.39688 0.0
C79 C 0.82631 0.8896 0.39007 0.0
O80 O 0.59292 0.86372 0.37073 0.0
O81 O 0.63688 0.85957 0.40622 0.0
O82 O 0.41265 0.91364 0.3637 0.0
O83 O 0.47496 0.90276 0.39289 0.0
H84 H 0.40389 0.89776 0.42885 0.0
H85 H 0.1842 0.88852 0.43137 0.0
H86 H 0.28351 0.90423 0.36913 0.0
O87 O 0.82593 0.11408 0.44687 0.0
Tb88 Tb 0.84364 0.11016 0.41141 0.0
Eu89 Eu 0.03675 0.10883 0.36459 0.0
C90 C 0.85862 0.09639 0.4607 0.0
O91 O 0.9061 0.07842 0.45289 0.0
C92 C 0.93055 0.06422 0.38562 0.0
O93 O 0.02361 0.11832 0.32789 0.0
C94 C 0.1647 0.09868 0.37352 0.0
C95 C 0.01226 0.14497 0.31923 0.0
O96 O 0.00492 0.16817 0.33239 0.0
C97 C 0.93962 0.15682 0.3898 0.0
C98 C 0.21641 0.0929 0.39071 0.0
C99 C 0.20226 0.09529 0.41359 0.0
C100 C 0.25384 0.08848 0.42923 0.0
C101 C 0.31874 0.07956 0.42154 0.0
C102 C 0.33304 0.07728 0.39893 0.0
C103 C 0.28187 0.08415 0.38356 0.0
O104 O 0.93305 0.0852 0.40074 0.0
O105 O 0.97259 0.06655 0.36864 0.0
O106 O 0.76022 0.0788 0.40416 0.0
O107 O 0.75981 0.12176 0.38905 0.0
C108 C 0.72707 0.09645 0.39078 0.0
O109 O 0.9849 0.13518 0.39207 0.0
O110 O 0.87988 0.1538 0.39991 0.0
O111 O 0.13916 0.1259 0.37188 0.0
O112 O 0.11986 0.07728 0.36974 0.0
H113 H 0.15177 0.10217 0.41909 0.0
H114 H 0.35999 0.0757 0.43324 0.0
H115 H 0.29308 0.08267 0.36599 0.0
O116 O 0.86689 0.88668 0.91425 0.0
Tb117 Tb 0.84557 0.87672 0.87976 0.0
Eu118 Eu 0.01717 0.90264 0.88037 0.0
C119 C 0.82199 0.90197 0.92595 0.0
O120 O 0.77001 0.91456 0.91571 0.0
C121 C 0.88436 0.9422 0.87692 0.0
O122 O 1.00167 0.90568 0.84311 0.0
C123 C 0.13853 0.91977 0.89357 0.0
C124 C 0.03007 0.88625 0.82946 0.0
O125 O 0.06852 0.86482 0.83773 0.0
C126 C 0.9686 0.83444 0.87988 0.0
C127 C 0.20024 0.90976 0.9062 0.0
C128 C 0.20047 0.9097 0.92963 0.0
C129 C 0.26092 0.90352 0.94168 0.0
C130 C 0.32103 0.89686 0.9298 0.0
C131 C 0.32187 0.89605 0.90655 0.0
C132 C 0.26149 0.90292 0.89485 0.0
O133 O 0.86148 0.92022 0.86459 0.0
O134 O 0.93881 0.93793 0.88933 0.0
O135 O 0.74304 0.88068 0.86486 0.0
O136 O 0.75645 0.85229 0.89259 0.0
C137 C 0.71175 0.86296 0.87874 0.0
O138 O 1.00126 0.85489 0.89156 0.0
O139 O 0.91331 0.84135 0.8684 0.0
O140 O 0.12716 0.90795 0.87397 0.0
O141 O 0.0818 0.9246 0.90479 0.0
H142 H 0.15365 0.91482 0.93849 0.0
H143 H 0.36873 0.89348 0.93863 0.0
H144 H 0.26239 0.9032 0.8769 0.0
O145 O 0.65543 0.12845 0.93894 0.0
Tb146 Tb 0.65614 0.11795 0.90385 0.0
Eu147 Eu 0.47038 0.1098 0.87214 0.0
C148 C 0.66777 0.10691 0.95332 0.0
O149 O 0.67375 0.07923 0.94616 0.0
C150 C 0.59118 0.06658 0.87932 0.0
O151 O 0.44574 0.11504 0.83561 0.0
C152 C 0.36602 0.08941 0.89476 0.0
C153 C 0.48207 0.13294 0.8227 0.0
O154 O 0.53062 0.14946 0.8316 0.0
C155 C 0.55666 0.1725 0.88776 0.0
C156 C 0.30744 0.09559 0.91006 0.0
C157 C 0.31727 0.10086 0.93299 0.0
C158 C 0.26052 0.10264 0.94762 0.0
C159 C 0.19435 0.09859 0.93891 0.0
C160 C 0.18344 0.09346 0.91631 0.0
C161 C 0.23991 0.09236 0.90191 0.0
O162 O 0.58754 0.08106 0.89805 0.0
O163 O 0.54661 0.0737 0.86412 0.0
O164 O 0.74416 0.1221 0.88095 0.0
O165 O 0.75599 0.09817 0.911 0.0
C166 C 0.78712 0.10702 0.89317 0.0
O167 O 0.50039 0.15685 0.88298 0.0
O168 O 0.61825 0.16134 0.89232 0.0
O169 O 0.36144 0.09911 0.87422 0.0
O170 O 0.42924 0.08973 0.90248 0.0
H171 H 0.3688 0.10314 0.93946 0.0
H172 H 0.15031 0.09844 0.94988 0.0
H173 H 0.23135 0.08743 0.88455 0.0
O174 O 0.28716 0.12049 0.56949 0.0
Tb175 Tb 0.30216 0.12695 0.60493 0.0
Eu176 Eu 0.49602 0.10988 0.64421 0.0
C177 C 0.32627 0.10189 0.55833 0.0
O178 O 0.37782 0.08888 0.56851 0.0
C179 C 0.37653 0.07282 0.62937 0.0
O180 O 0.47482 0.12021 0.68038 0.0
C181 C 0.62311 0.09682 0.63648 0.0
C182 C 0.50161 0.1439 0.69012 0.0
O183 O 0.53701 0.16305 0.67808 0.0
C184 C 0.42422 0.1675 0.62102 0.0
C185 C 0.6794 0.10715 0.62193 0.0
C186 C 0.67682 0.10478 0.59855 0.0
C187 C 0.73336 0.11409 0.58567 0.0
C188 C 0.79026 0.12689 0.5962 0.0
C189 C 0.79338 0.12896 0.61924 0.0
C190 C 0.73851 0.11879 0.63207 0.0
O191 O 0.38036 0.09798 0.61812 0.0
O192 O 0.42737 0.06896 0.64314 0.0
O193 O 0.2112 0.1502 0.61676 0.0
O194 O 0.2236 0.10394 0.62441 0.0
C195 C 0.18422 0.1272 0.62682 0.0
O196 O 0.46197 0.1434 0.6178 0.0
O197 O 0.35955 0.16733 0.61426 0.0
O198 O 0.60385 0.11581 0.65189 0.0
O199 O 0.57176 0.08215 0.62743 0.0
H200 H 0.63253 0.09494 0.5905 0.0
H201 H 0.83419 0.13396 0.5864 0.0
H202 H 0.74224 0.11964 0.64999 0.0
O203 O 0.16708 0.88486 0.57479 0.0
Tb204 Tb 0.16278 0.89031 0.61063 0.0
Eu205 Eu 0.97189 0.90585 0.65032 0.0
C206 C 0.22025 0.89523 0.56361 0.0
O207 O 0.26852 0.90981 0.5743 0.0
C208 C 0.09565 0.94224 0.63734 0.0
O209 O 0.97485 0.89598 0.68724 0.0
C210 C 0.85471 0.9256 0.63648 0.0
C211 C 0.02544 0.88075 0.69629 0.0
O212 O 0.07321 0.86959 0.68335 0.0
C213 C 0.04937 0.84788 0.63064 0.0
C214 C 0.80213 0.9178 0.61984 0.0
C215 C 0.81589 0.91602 0.59681 0.0
C216 C 0.76378 0.90677 0.58207 0.0
C217 C 0.69874 0.89961 0.59055 0.0
C218 C 0.68484 0.902 0.61316 0.0
C219 C 0.73602 0.91135 0.62767 0.0
O220 O 0.08651 0.92206 0.62174 0.0
O221 O 0.04902 0.94298 0.65282 0.0
O222 O 0.25769 0.87352 0.62514 0.0
O223 O 0.24667 0.9203 0.61962 0.0
C224 C 0.28723 0.89955 0.62703 0.0
O225 O 0.00765 0.87021 0.626 0.0
O226 O 0.115 0.85029 0.62524 0.0
O227 O 0.86104 0.90662 0.65308 0.0
O228 O 0.91358 0.93647 0.62944 0.0
H229 H 0.8666 0.92115 0.59047 0.0
H230 H 0.65789 0.89284 0.57942 0.0
H231 H 0.72449 0.91315 0.64521 0.0
O232 O 0.60703 0.60619 0.06919 0.0
Tb233 Tb 0.61792 0.59888 0.10437 0.0
Eu234 Eu 0.44016 0.60296 0.15134 0.0
C235 C 0.65924 0.618 0.05846 0.0
O236 O 0.7137 0.62631 0.06972 0.0
C237 C 0.55203 0.55839 0.1393 0.0
O238 O 0.45162 0.62257 0.18538 0.0
C239 C 0.31627 0.58511 0.14349 0.0
C240 C 0.51102 0.63243 0.19268 0.0
O241 O 0.56421 0.63255 0.17928 0.0
C242 C 0.53189 0.64874 0.12388 0.0
C243 C 0.26486 0.58261 0.12589 0.0
C244 C 0.28153 0.58548 0.10324 0.0
C245 C 0.22924 0.584 0.08715 0.0
C246 C 0.16139 0.57882 0.09407 0.0
C247 C 0.14466 0.5763 0.11657 0.0
C248 C 0.19667 0.57822 0.13239 0.0
O249 O 0.53918 0.57298 0.12088 0.0
O250 O 0.51332 0.56459 0.15642 0.0
O251 O 0.7014 0.56788 0.09793 0.0
O252 O 0.71487 0.6019 0.12233 0.0
C253 C 0.74345 0.57924 0.11236 0.0
O254 O 0.48602 0.62724 0.12205 0.0
O255 O 0.59323 0.64391 0.11545 0.0
O256 O 0.33099 0.61238 0.1503 0.0
O257 O 0.36966 0.56724 0.14232 0.0
H258 H 0.3342 0.58958 0.09828 0.0
H259 H 0.12077 0.57756 0.08186 0.0
H260 H 0.18396 0.57648 0.14985 0.0
O261 O 0.78714 0.398 0.08164 0.0
Tb262 Tb 0.81219 0.39701 0.11667 0.0
Eu263 Eu 0.01673 0.42859 0.14195 0.0
C264 C 0.8242 0.41244 0.06687 0.0
O265 O 0.88085 0.42607 0.07306 0.0
C266 C 0.88572 0.45622 0.13059 0.0
O267 O 0.03067 0.42306 0.17883 0.0
C268 C 0.12993 0.44017 0.12065 0.0
C269 C 0.98596 0.40693 0.19012 0.0
O270 O 0.9338 0.39493 0.17956 0.0
C271 C 0.94443 0.35713 0.13109 0.0
C272 C 0.19184 0.42505 0.11151 0.0
C273 C 0.19836 0.42117 0.08835 0.0
C274 C 0.25795 0.40838 0.07915 0.0
C275 C 0.30995 0.39865 0.09345 0.0
C276 C 0.3056 0.40307 0.11634 0.0
C277 C 0.24683 0.4165 0.12538 0.0
O278 O 0.89136 0.42845 0.12399 0.0
O279 O 0.94041 0.46634 0.14024 0.0
O280 O 0.72022 0.37521 0.13015 0.0
O281 O 0.73667 0.42127 0.13655 0.0
C282 C 0.69435 0.39903 0.13936 0.0
O283 O 0.98738 0.37949 0.13599 0.0
O284 O 0.87881 0.35947 0.1251 0.0
O285 O 0.12411 0.44224 0.14232 0.0
O286 O 0.07104 0.43483 0.11072 0.0
H287 H 0.15804 0.42905 0.07747 0.0
H288 H 0.3557 0.38832 0.08666 0.0
H289 H 0.24442 0.42037 0.14307 0.0
O290 O 0.18446 0.36526 0.4344 0.0
Tb291 Tb 0.18973 0.3708 0.39861 0.0
Eu292 Eu 0.01424 0.38788 0.36811 0.0
C293 C 0.21964 0.38435 0.44658 0.0
O294 O 0.25414 0.40574 0.43647 0.0
C295 C 0.13657 0.43014 0.38164 0.0
O296 O 0.01263 0.38579 0.33079 0.0
C297 C 0.90224 0.41085 0.38426 0.0
C298 C 0.97014 0.36863 0.31961 0.0
O299 O 0.9281 0.35073 0.33041 0.0
C300 C 0.08194 0.32337 0.38035 0.0
C301 C 0.84307 0.40291 0.39881 0.0
C302 C 0.84925 0.40426 0.42211 0.0
C303 C 0.79296 0.39755 0.4359 0.0
C304 C 0.73071 0.38898 0.42618 0.0
C305 C 0.72287 0.38804 0.40318 0.0
C306 C 0.77882 0.3953 0.38946 0.0
O307 O 0.13734 0.41364 0.39959 0.0
O308 O 0.09891 0.42188 0.36479 0.0
O309 O 0.27277 0.39333 0.38026 0.0
O310 O 0.29707 0.35743 0.40197 0.0
C311 C 0.32239 0.37713 0.38831 0.0
O312 O 0.02814 0.34114 0.38186 0.0
O313 O 0.14577 0.33336 0.37998 0.0
O314 O 0.90527 0.39776 0.36478 0.0
O315 O 0.96293 0.41399 0.39362 0.0
H316 H 0.89742 0.411 0.42954 0.0
H317 H 0.68748 0.38283 0.43658 0.0
H318 H 0.77244 0.39471 0.37164 0.0
O319 O 0.30899 0.65538 0.43249 0.0
Tb320 Tb 0.30801 0.6463 0.39725 0.0
Eu321 Eu 0.48095 0.62023 0.37377 0.0
C322 C 0.26644 0.63895 0.44435 0.0
O323 O 0.22749 0.61942 0.43396 0.0
C324 C 0.35424 0.58135 0.39014 0.0
O325 O 0.46522 0.62698 0.33716 0.0
C326 C 0.59693 0.595 0.38397 0.0
C327 C 0.50714 0.64245 0.3244 0.0
O328 O 0.56121 0.65557 0.33306 0.0
C329 C 0.4307 0.68594 0.38381 0.0
C330 C 0.66033 0.60056 0.39703 0.0
C331 C 0.65858 0.6009 0.42042 0.0
C332 C 0.7191 0.60473 0.43282 0.0
C333 C 0.78144 0.60847 0.4215 0.0
C334 C 0.78429 0.60853 0.39834 0.0
C335 C 0.72389 0.60417 0.3861 0.0
O336 O 0.3466 0.60194 0.40534 0.0
O337 O 0.39564 0.58591 0.37333 0.0
O338 O 0.20726 0.66702 0.39874 0.0
O339 O 0.21917 0.62737 0.37957 0.0
C340 C 0.17564 0.64765 0.3863 0.0
O341 O 0.47486 0.66552 0.3903 0.0
O342 O 0.36809 0.67836 0.37806 0.0
O343 O 0.58822 0.61095 0.36584 0.0
O344 O 0.53953 0.59054 0.39506 0.0
H345 H 0.61014 0.59826 0.42902 0.0
H346 H 0.82889 0.61074 0.43071 0.0
H347 H 0.72637 0.60377 0.36816 0.0
O348 O 0.33714 0.38897 0.93957 0.0
Tb349 Tb 0.34466 0.3941 0.90376 0.0
Eu350 Eu 0.52533 0.41027 0.8745 0.0
C351 C 0.38551 0.39845 0.95302 0.0
O352 O 0.44352 0.40839 0.94464 0.0
C353 C 0.40363 0.45212 0.88669 0.0
O354 O 0.53437 0.40262 0.83772 0.0
C355 C 0.63595 0.43472 0.89038 0.0
C356 C 0.48201 0.39269 0.8261 0.0
O357 O 0.42503 0.38528 0.83642 0.0
C358 C 0.45463 0.34669 0.88806 0.0
C359 C 0.69969 0.42833 0.90299 0.0
C360 C 0.70242 0.43333 0.92609 0.0
C361 C 0.76462 0.43017 0.93759 0.0
C362 C 0.82354 0.42149 0.92611 0.0
C363 C 0.8217 0.41613 0.90336 0.0
C364 C 0.76012 0.41972 0.89172 0.0
O365 O 0.40482 0.43495 0.90427 0.0
O366 O 0.44282 0.44477 0.87 0.0
O367 O 0.23709 0.38027 0.90312 0.0
O368 O 0.26774 0.41773 0.88381 0.0
C369 C 0.21616 0.40086 0.88949 0.0
O370 O 0.50966 0.36396 0.88936 0.0
O371 O 0.39219 0.35747 0.88551 0.0
O372 O 0.63149 0.42384 0.8702 0.0
O373 O 0.57713 0.43424 0.90116 0.0
H374 H 0.65702 0.44043 0.93502 0.0
H375 H 0.87146 0.41862 0.93501 0.0
H376 H 0.75973 0.41609 0.87398 0.0
O377 O 0.14944 0.61365 0.94494 0.0
Tb378 Tb 0.14518 0.6128 0.90896 0.0
Eu379 Eu 0.95814 0.58853 0.86947 0.0
C380 C 0.20133 0.60212 0.95601 0.0
O381 O 0.25132 0.58902 0.94513 0.0
C382 C 0.07421 0.5569 0.88879 0.0
O383 O 0.96431 0.58632 0.83242 0.0
C384 C 0.83526 0.57886 0.88435 0.0
C385 C 0.00797 0.6035 0.82167 0.0
O386 O 0.04767 0.62182 0.8329 0.0
C387 C 0.0321 0.65725 0.88611 0.0
C388 C 0.77911 0.59578 0.89514 0.0
C389 C 0.78297 0.60334 0.91777 0.0
C390 C 0.72813 0.61786 0.92831 0.0
C391 C 0.67076 0.62611 0.9158 0.0
C392 C 0.66484 0.61787 0.89355 0.0
C393 C 0.71881 0.60248 0.88324 0.0
O394 O 0.0666 0.5838 0.89695 0.0
O395 O 0.02752 0.54931 0.87464 0.0
O396 O 0.23024 0.58603 0.8963 0.0
O397 O 0.2377 0.63343 0.89484 0.0
C398 C 0.26885 0.60838 0.89033 0.0
O399 O 0.99033 0.63668 0.87744 0.0
O400 O 0.08975 0.65235 0.89742 0.0
O401 O 0.8482 0.58528 0.86348 0.0
O402 O 0.89105 0.57408 0.89612 0.0
H403 H 0.82709 0.59667 0.92748 0.0
H404 H 0.62816 0.63736 0.92382 0.0
H405 H 0.71328 0.59529 0.86619 0.0
O406 O 0.82929 0.6291 0.57446 0.0
Tb407 Tb 0.82586 0.63191 0.61033 0.0
Eu408 Eu 0.01385 0.60057 0.6434 0.0
C409 C 0.78296 0.61343 0.56362 0.0
O410 O 0.73746 0.59777 0.57483 0.0
C411 C 0.88319 0.57266 0.63302 0.0
O412 O 0.02282 0.59986 0.68042 0.0
C413 C 0.12489 0.58472 0.62312 0.0
C414 C 0.05615 0.62105 0.69102 0.0
O415 O 0.08638 0.64251 0.67965 0.0
C416 C 0.95216 0.67262 0.62958 0.0
C417 C 0.18203 0.59802 0.61027 0.0
C418 C 0.17379 0.60545 0.58776 0.0
C419 C 0.22986 0.61528 0.57493 0.0
C420 C 0.29384 0.61896 0.58524 0.0
C421 C 0.30261 0.61184 0.60769 0.0
C422 C 0.24697 0.60102 0.62005 0.0
O423 O 0.89036 0.60048 0.62648 0.0
O424 O 0.93714 0.56287 0.64303 0.0
O425 O 0.72982 0.61152 0.62116 0.0
O426 O 0.73758 0.65907 0.61975 0.0
C427 C 0.69719 0.63657 0.62423 0.0
O428 O 0.99285 0.6505 0.63664 0.0
O429 O 0.89 0.66976 0.62059 0.0
O430 O 0.12292 0.59058 0.64447 0.0
O431 O 0.06392 0.58436 0.61372 0.0
H432 H 0.12401 0.60287 0.58003 0.0
H433 H 0.33825 0.62558 0.57556 0.0
H434 H 0.25463 0.5946 0.63721 0.0
O435 O 0.67625 0.39412 0.57739 0.0
Tb436 Tb 0.67144 0.38225 0.61232 0.0
Eu437 Eu 0.47993 0.40961 0.64713 0.0
C438 C 0.73495 0.39234 0.56664 0.0
O439 O 0.79009 0.38376 0.57738 0.0
C440 C 0.60839 0.44025 0.63567 0.0
O441 O 0.47498 0.40662 0.68442 0.0
C442 C 0.36728 0.42557 0.62761 0.0
C443 C 0.43516 0.38698 0.69447 0.0
O444 O 0.3959 0.36931 0.68252 0.0
C445 C 0.54244 0.34 0.62764 0.0
C446 C 0.31025 0.41301 0.61424 0.0
C447 C 0.31708 0.4088 0.59118 0.0
C448 C 0.26075 0.39957 0.5782 0.0
C449 C 0.19789 0.39374 0.5888 0.0
C450 C 0.19028 0.39796 0.61169 0.0
C451 C 0.24629 0.40778 0.62428 0.0
O452 O 0.60576 0.41199 0.6298 0.0
O453 O 0.55404 0.44819 0.64648 0.0
O454 O 0.75761 0.3522 0.61823 0.0
O455 O 0.76363 0.39704 0.62985 0.0
C456 C 0.79629 0.3717 0.62828 0.0
O457 O 0.50406 0.36133 0.63687 0.0
O458 O 0.60354 0.34366 0.618 0.0
O459 O 0.37003 0.41811 0.6487 0.0
O460 O 0.42804 0.42726 0.61815 0.0
H461 H 0.36587 0.41332 0.58323 0.0
H462 H 0.15325 0.38771 0.57907 0.0
H463 H 0.23953 0.41183 0.64185 0.0
H464 H 0.62148 0.17738 0.10479 0.0
H465 H 0.64092 0.10462 0.1515 0.0
H466 H 0.52197 0.11185 0.16328 0.0
H467 H 0.40763 0.13296 0.15549 0.0
H468 H 0.38684 0.20246 0.10618 0.0
H469 H 0.51086 0.2025 0.1002 0.0
C470 C 0.59994 0.16346 0.11783 0.0
C471 C 0.63954 0.14021 0.12702 0.0
C472 C 0.53088 0.16689 0.12379 0.0
C473 C 0.61159 0.1227 0.14419 0.0
C474 C 0.5433 0.12661 0.15075 0.0
C475 C 0.43059 0.14861 0.14385 0.0
C476 C 0.38839 0.16751 0.13114 0.0
C477 C 0.50168 0.14775 0.13996 0.0
C478 C 0.41845 0.18761 0.11605 0.0
C479 C 0.48926 0.18756 0.11258 0.0
H480 H 0.1021 0.88593 0.13846 0.0
H481 H 0.13622 0.81634 0.0902 0.0
H482 H 0.01534 0.81793 0.0796 0.0
H483 H 0.90346 0.84288 0.08114 0.0
H484 H 0.86946 0.91402 0.1281 0.0
H485 H 0.98603 0.90764 0.14249 0.0
C486 C 0.08266 0.87072 0.12594 0.0
C487 C 0.12804 0.85113 0.11503 0.0
C488 C 0.01317 0.87217 0.11963 0.0
C489 C 0.10233 0.83164 0.09879 0.0
C490 C 0.03326 0.83262 0.09267 0.0
C491 C 0.92133 0.85672 0.09473 0.0
C492 C 0.8781 0.87908 0.1034 0.0
C493 C 0.98875 0.85338 0.10252 0.0
C494 C 0.90154 0.89657 0.12121 0.0
C495 C 0.96844 0.89309 0.12929 0.0
H496 H 0.92433 0.93053 0.37842 0.0
H497 H 0.8936 0.83661 0.39272 0.0
H498 H 0.01737 0.82876 0.3935 0.0
H499 H 0.13364 0.85009 0.39573 0.0
H500 H 0.16587 0.94368 0.38139 0.0
H501 H 0.04272 0.95018 0.37461 0.0
C502 C 0.94487 0.90824 0.38117 0.0
C503 C 0.89998 0.88426 0.3858 0.0
C504 C 0.01643 0.9039 0.38173 0.0
C505 C 0.92711 0.85547 0.38925 0.0
C506 C 0.99795 0.85096 0.38979 0.0
C507 C 0.11373 0.87163 0.39039 0.0
C508 C 0.15828 0.89636 0.38897 0.0
C509 C 0.04301 0.8752 0.38685 0.0
C510 C 0.13234 0.9243 0.3823 0.0
C511 C 0.06191 0.92805 0.37868 0.0
H512 H 0.64524 0.04893 0.39997 0.0
H513 H 0.65017 0.13337 0.36503 0.0
H514 H 0.52572 0.13158 0.36039 0.0
H515 H 0.41495 0.11102 0.37274 0.0
H516 H 0.40988 0.02888 0.41042 0.0
H517 H 0.5346 0.02434 0.40725 0.0
C518 C 0.61911 0.06653 0.39087 0.0
C519 C 0.65621 0.09152 0.38323 0.0
C520 C 0.54737 0.06589 0.38901 0.0
C521 C 0.62227 0.11408 0.37127 0.0
C522 C 0.55112 0.11314 0.36871 0.0
C523 C 0.44112 0.09166 0.37957 0.0
C524 C 0.40393 0.07044 0.39193 0.0
C525 C 0.51292 0.08991 0.37846 0.0
C526 C 0.43802 0.04554 0.40096 0.0
C527 C 0.50919 0.04305 0.39925 0.0
H528 H 0.41183 0.8514 0.91566 0.0
H529 H 0.38044 0.92643 0.87171 0.0
H530 H 0.49673 0.92039 0.85694 0.0
H531 H 0.61208 0.89747 0.85986 0.0
H532 H 0.64345 0.82409 0.90537 0.0
H533 H 0.52271 0.82567 0.91611 0.0
C534 C 0.43024 0.86625 0.90268 0.0
C535 C 0.38777 0.88953 0.89498 0.0
C536 C 0.49748 0.86304 0.89466 0.0
C537 C 0.41191 0.90827 0.87789 0.0
C538 C 0.47865 0.90496 0.86956 0.0
C539 C 0.59199 0.88142 0.87175 0.0
C540 C 0.63661 0.86073 0.88187 0.0
C541 C 0.52258 0.88295 0.87826 0.0
C542 C 0.61013 0.84023 0.89739 0.0
C543 C 0.54115 0.84121 0.9036 0.0
H544 H 0.10704 0.12459 0.88592 0.0
H545 H 0.1002 0.04888 0.9304 0.0
H546 H 0.97666 0.04411 0.92482 0.0
H547 H 0.86917 0.06585 0.91173 0.0
H548 H 0.87248 0.14165 0.86743 0.0
H549 H 0.99853 0.14197 0.86824 0.0
C550 C 0.07854 0.10663 0.89387 0.0
C551 C 0.11234 0.08727 0.90872 0.0
C552 C 0.00685 0.10435 0.89088 0.0
C553 C 0.07501 0.06414 0.91905 0.0
C554 C 0.0044 0.06148 0.91594 0.0
C555 C 0.89755 0.08201 0.90186 0.0
C556 C 0.86186 0.10385 0.88972 0.0
C557 C 0.9695 0.08214 0.90259 0.0
C558 C 0.89903 0.1246 0.8769 0.0
C559 C 0.97105 0.12489 0.8775 0.0
H560 H 0.87921 0.09293 0.64123 0.0
H561 H 0.85445 0.18366 0.61808 0.0
H562 H 0.97704 0.19322 0.62341 0.0
H563 H 0.0924 0.17219 0.6266 0.0
H564 H 0.11817 0.07951 0.64535 0.0
H565 H 0.9942 0.07421 0.65029 0.0
C566 C 0.90055 0.1151 0.63829 0.0
C567 C 0.85885 0.13764 0.62936 0.0
C568 C 0.97137 0.11976 0.64015 0.0
C569 C 0.88629 0.16618 0.6251 0.0
C570 C 0.95626 0.17148 0.62793 0.0
C571 C 0.0709 0.15109 0.63235 0.0
C572 C 0.1136 0.12611 0.63521 0.0
C573 C 0.99968 0.14792 0.6342 0.0
C574 C 0.08576 0.09893 0.64283 0.0
C575 C 0.01498 0.09587 0.64556 0.0
H576 H 0.3851 0.85721 0.62851 0.0
H577 H 0.35221 0.9524 0.6349 0.0
H578 H 0.47613 0.96116 0.63473 0.0
H579 H 0.59227 0.94223 0.62702 0.0
H580 H 0.62317 0.84777 0.61636 0.0
H581 H 0.50169 0.83791 0.62406 0.0
C582 C 0.40527 0.87976 0.63041 0.0
C583 C 0.36025 0.90417 0.63163 0.0
C584 C 0.47611 0.88467 0.62922 0.0
C585 C 0.38641 0.93334 0.63392 0.0
C586 C 0.45708 0.93834 0.63368 0.0
C587 C 0.57223 0.9195 0.62693 0.0
C588 C 0.61543 0.89567 0.62125 0.0
C589 C 0.5022 0.91429 0.63048 0.0
C590 C 0.58995 0.86627 0.62078 0.0
C591 C 0.5208 0.86071 0.6251 0.0
H592 H 0.83836 0.60277 0.14004 0.0
H593 H 0.80829 0.5347 0.09031 0.0
H594 H 0.93082 0.52375 0.09029 0.0
H595 H 0.04765 0.53901 0.10013 0.0
H596 H 0.07888 0.60967 0.14776 0.0
H597 H 0.95503 0.61381 0.15325 0.0
C598 C 0.85872 0.58526 0.12948 0.0
C599 C 0.815 0.56982 0.115 0.0
C600 C 0.92948 0.57976 0.12905 0.0
C601 C 0.84137 0.54699 0.1015 0.0
C602 C 0.91138 0.5408 0.10141 0.0
C603 C 0.02717 0.55498 0.11194 0.0
C604 C 0.07186 0.57432 0.12326 0.0
C605 C 0.95613 0.55789 0.11445 0.0
C606 C 0.04525 0.59453 0.13887 0.0
C607 C 0.97449 0.5971 0.14185 0.0
H608 H 0.39085 0.44194 0.13694 0.0
H609 H 0.3593 0.34801 0.12391 0.0
H610 H 0.4779 0.33728 0.1344 0.0
H611 H 0.59523 0.3562 0.13968 0.0
H612 H 0.62864 0.45069 0.15043 0.0
H613 H 0.50516 0.45966 0.14886 0.0
C614 C 0.40937 0.41901 0.13735 0.0
C615 C 0.36674 0.39574 0.12978 0.0
C616 C 0.4785 0.41325 0.14253 0.0
C617 C 0.39134 0.36616 0.12989 0.0
C618 C 0.45931 0.36011 0.13563 0.0
C619 C 0.57525 0.37859 0.14238 0.0
C620 C 0.62091 0.40279 0.14484 0.0
C621 C 0.50424 0.38368 0.14086 0.0
C622 C 0.59447 0.43169 0.14838 0.0
C623 C 0.52381 0.43687 0.14734 0.0
H624 H 0.62799 0.4233 0.38281 0.0
H625 H 0.66476 0.33321 0.40569 0.0
H626 H 0.54327 0.32093 0.40123 0.0
H627 H 0.42483 0.33783 0.39578 0.0
H628 H 0.38588 0.42786 0.37306 0.0
H629 H 0.50955 0.43826 0.37235 0.0
C630 C 0.6095 0.40074 0.38602 0.0
C631 C 0.655 0.37906 0.39438 0.0
C632 C 0.53902 0.39407 0.38391 0.0
C633 C 0.63054 0.35006 0.399 0.0
C634 C 0.56104 0.34316 0.39668 0.0
C635 C 0.44357 0.35957 0.39033 0.0
C636 C 0.39658 0.38215 0.38471 0.0
C637 C 0.51449 0.36529 0.38995 0.0
C638 C 0.42128 0.41014 0.37749 0.0
C639 C 0.49194 0.4161 0.37716 0.0
H640 H 0.09471 0.60145 0.37143 0.0
H641 H 0.08748 0.69224 0.39589 0.0
H642 H 0.96293 0.68955 0.39842 0.0
H643 H 0.85806 0.65931 0.39875 0.0
H644 H 0.86269 0.56808 0.37575 0.0
H645 H 0.98554 0.57299 0.36717 0.0
C646 C 0.06555 0.6208 0.3768 0.0
C647 C 0.10024 0.64692 0.38366 0.0
C648 C 0.99345 0.61893 0.3786 0.0
C649 C 0.062 0.67182 0.39068 0.0
C650 C 0.99072 0.6703 0.39218 0.0
C651 C 0.88573 0.64086 0.39121 0.0
C652 C 0.85185 0.61348 0.38773 0.0
C653 C 0.95618 0.64369 0.3869 0.0
C654 C 0.88788 0.58948 0.37826 0.0
C655 C 0.95818 0.59223 0.3736 0.0
H656 H 0.11094 0.36161 0.8919 0.0
H657 H 0.15933 0.45346 0.87595 0.0
H658 H 0.03702 0.46575 0.87481 0.0
H659 H 0.91765 0.45162 0.88438 0.0
H660 H 0.87045 0.35978 0.90057 0.0
H661 H 0.99051 0.34578 0.89495 0.0
C662 C 0.09446 0.38414 0.88769 0.0
C663 C 0.14359 0.40677 0.88438 0.0
C664 C 0.02423 0.3909 0.88705 0.0
C665 C 0.12211 0.43579 0.87869 0.0
C666 C 0.05224 0.44281 0.8781 0.0
C667 C 0.9335 0.42838 0.88571 0.0
C668 C 0.88583 0.4066 0.89262 0.0
C669 C 0.00293 0.42075 0.88303 0.0
C670 C 0.90652 0.37666 0.89489 0.0
C671 C 0.97519 0.36879 0.89197 0.0
H672 H 0.36017 0.65321 0.88256 0.0
H673 H 0.33922 0.55692 0.88279 0.0
H674 H 0.46306 0.55141 0.87841 0.0
H675 H 0.57798 0.57396 0.88147 0.0
H676 H 0.59916 0.67002 0.88419 0.0
H677 H 0.47509 0.67585 0.87977 0.0
C678 C 0.38271 0.63108 0.88112 0.0
C679 C 0.34102 0.60551 0.88333 0.0
C680 C 0.4542 0.62811 0.87915 0.0
C681 C 0.37051 0.57693 0.88135 0.0
C682 C 0.44136 0.57377 0.87888 0.0
C683 C 0.55549 0.59613 0.8801 0.0
C684 C 0.59712 0.62155 0.883 0.0
C685 C 0.48392 0.59918 0.87869 0.0
C686 C 0.56773 0.65022 0.88175 0.0
C687 C 0.49682 0.65351 0.87953 0.0
H688 H 0.609 0.59175 0.63446 0.0
H689 H 0.61836 0.68628 0.61937 0.0
H690 H 0.49372 0.68772 0.61528 0.0
H691 H 0.3848 0.66042 0.61066 0.0
H692 H 0.37501 0.56605 0.62583 0.0
H693 H 0.49707 0.56613 0.63547 0.0
C694 C 0.58344 0.61277 0.63078 0.0
C695 C 0.62244 0.63876 0.62688 0.0
C696 C 0.51195 0.61333 0.62822 0.0
C697 C 0.58913 0.66596 0.62233 0.0
C698 C 0.51799 0.66675 0.61984 0.0
C699 C 0.40939 0.64009 0.61653 0.0
C700 C 0.37189 0.61323 0.61739 0.0
C701 C 0.4793 0.64035 0.62191 0.0
C702 C 0.40339 0.58696 0.62512 0.0
C703 C 0.47306 0.58698 0.63049 0.0
H704 H 0.10694 0.34943 0.61043 0.0
H705 H 0.12007 0.43985 0.63514 0.0
H706 H 0.99904 0.43812 0.64596 0.0
H707 H 0.88634 0.41336 0.64327 0.0
H708 H 0.87347 0.32301 0.61818 0.0
H709 H 0.99772 0.32189 0.6131 0.0
C710 C 0.08336 0.36847 0.61858 0.0
C711 C 0.1216 0.39481 0.62181 0.0
C712 C 0.01388 0.36735 0.62459 0.0
C713 C 0.09127 0.41934 0.63255 0.0
C714 C 0.02211 0.41841 0.63861 0.0
C715 C 0.91106 0.39317 0.63727 0.0
C716 C 0.87101 0.36846 0.63082 0.0
C717 C 0.98239 0.39289 0.63401 0.0
C718 C 0.90339 0.34237 0.62314 0.0
C719 C 0.97435 0.34178 0.62008 0.0
H720 H 0.31256 0.0963 0.05144 0.0
H721 H 0.12417 0.14703 0.0516 0.0
H722 H 0.12429 0.14771 0.01116 0.0
H723 H 0.17716 0.13399 0.97583 0.0
H724 H 0.36087 0.08007 0.97523 0.0
H725 H 0.36489 0.08182 0.01569 0.0
C726 C 0.27132 0.10742 0.04265 0.0
C727 C 0.2182 0.12151 0.05469 0.0
C728 C 0.27151 0.10763 0.01928 0.0
C729 C 0.16542 0.13584 0.0429 0.0
C730 C 0.16566 0.13639 0.01972 0.0
C731 C 0.21791 0.12229 0.98444 0.0
C732 C 0.26828 0.10663 0.97221 0.0
C733 C 0.21836 0.12234 0.00775 0.0
C734 C 0.32172 0.09258 0.98394 0.0
C735 C 0.32356 0.09324 0.00717 0.0
H736 H 0.24311 0.92847 0.04517 0.0
H737 H 0.39895 0.85987 0.04598 0.0
H738 H 0.39224 0.85584 1.0057 0.0
H739 H 0.33855 0.86999 0.97053 0.0
H740 H 0.18885 0.94134 0.96931 0.0
H741 H 0.19489 0.94508 0.00951 0.0
C742 C 0.27613 0.91282 0.03654 0.0
C743 C 0.32142 0.89446 0.04869 0.0
C744 C 0.27207 0.91061 0.0133 0.0
C745 C 0.36387 0.87439 0.03714 0.0
C746 C 0.3597 0.87191 0.01407 0.0
C747 C 0.3079 0.88679 0.97886 0.0
C748 C 0.26305 0.90526 0.96653 0.0
C749 C 0.31345 0.88967 1.00201 0.0
C750 C 0.22275 0.92626 0.97809 0.0
C751 C 0.2268 0.92872 1.00117 0.0
H752 H 0.7324 0.88175 0.48026 0.0
H753 H 0.80596 0.97277 0.47577 0.0
H754 H 0.82206 0.97416 0.51607 0.0
H755 H 0.80834 0.95002 0.55305 0.0
H756 H 0.73906 0.85822 0.55651 0.0
H757 H 0.72981 0.85631 0.51625 0.0
C758 C 0.7518 0.90191 0.48812 0.0
C759 C 0.76673 0.9273 0.47515 0.0
C760 C 0.76251 0.90225 0.51114 0.0
C761 C 0.7935 0.95302 0.48547 0.0
C762 C 0.80289 0.95378 0.5085 0.0
C763 C 0.79302 0.92942 0.54488 0.0
C764 C 0.77416 0.90432 0.55773 0.0
C765 C 0.78705 0.92857 0.52157 0.0
C766 C 0.75364 0.87784 0.54696 0.0
C767 C 0.74784 0.87679 0.52395 0.0
H768 H 0.74598 0.12044 0.48126 0.0
H769 H 0.93095 0.0701 0.49388 0.0
H770 H 0.90386 0.06847 0.53325 0.0
H771 H 0.83155 0.08342 0.56437 0.0
H772 H 0.64694 0.13394 0.55285 0.0
H773 H 0.66876 0.13277 0.51271 0.0
C774 C 0.78036 0.10917 0.49265 0.0
C775 C 0.84093 0.09573 0.48461 0.0
C776 C 0.76413 0.10808 0.51541 0.0
C777 C 0.88431 0.0808 0.49956 0.0
C778 C 0.86879 0.07977 0.52211 0.0
C779 C 0.79562 0.09383 0.553 0.0
C780 C 0.73793 0.10886 0.56145 0.0
C781 C 0.80932 0.09354 0.53021 0.0
C782 C 0.69141 0.12208 0.54666 0.0
C783 C 0.70437 0.12167 0.52378 0.0
H784 H 0.74398 0.93378 0.95512 0.0
H785 H 0.89986 0.86529 0.9519 0.0
H786 H 0.89018 0.85718 0.99173 0.0
H787 H 0.83353 0.86747 0.02698 0.0
H788 H 0.68462 0.93892 0.03115 0.0
H789 H 0.69352 0.9469 0.9913 0.0
C790 C 0.77634 0.91729 0.96317 0.0
C791 C 0.82238 0.9001 0.95047 0.0
C792 C 0.77068 0.91275 0.98618 0.0
C793 C 0.86415 0.87894 0.96121 0.0
C794 C 0.85829 0.8741 0.98401 0.0
C795 C 0.80376 0.88523 0.0194 0.0
C796 C 0.75823 0.90243 0.03236 0.0
C797 C 0.81113 0.8906 0.99659 0.0
C798 C 0.71898 0.92474 0.02177 0.0
C799 C 0.72469 0.92965 0.99893 0.0
H800 H 0.73062 0.07127 0.9835 0.0
H801 H 0.63885 0.15864 0.97562 0.0
H802 H 0.66477 0.17042 0.01428 0.0
H803 H 0.71091 0.15534 0.05049 0.0
H804 H 0.80226 0.06791 0.05829 0.0
H805 H 0.78093 0.05704 0.01923 0.0
C806 C 0.71596 0.09285 0.99026 0.0
C807 C 0.6821 0.11394 0.97679 0.0
C808 C 0.73182 0.09959 0.01236 0.0
C809 C 0.66458 0.14197 0.98568 0.0
C810 C 0.67955 0.14874 0.00776 0.0
C811 C 0.72639 0.13395 0.0436 0.0
C812 C 0.7579 0.11242 0.05729 0.0
C813 C 0.71289 0.12767 0.02125 0.0
C814 C 0.77863 0.08499 0.04807 0.0
C815 C 0.76574 0.07863 0.0258 0.0
H816 H 0.29788 0.05102 0.46159 0.0
H817 H 0.18951 0.13418 0.4518 0.0
H818 H 0.19744 0.14477 0.49157 0.0
H819 H 0.24805 0.13309 0.5284 0.0
H820 H 0.36704 0.0522 0.53618 0.0
H821 H 0.34397 0.03855 0.49788 0.0
C822 C 0.27566 0.07146 0.46813 0.0
C823 C 0.24419 0.09201 0.45362 0.0
C824 C 0.28388 0.07816 0.49065 0.0
C825 C 0.2139 0.11791 0.46254 0.0
C826 C 0.21931 0.12417 0.48526 0.0
C827 C 0.26858 0.11243 0.52169 0.0
C828 C 0.30994 0.09387 0.53509 0.0
C829 C 0.25632 0.10494 0.49934 0.0
C830 C 0.33601 0.06713 0.52619 0.0
C831 C 0.32249 0.05918 0.5043 0.0
H832 H 0.2127 0.86065 0.46213 0.0
H833 H 0.37794 0.92544 0.4603 0.0
H834 H 0.37141 0.93083 0.50033 0.0
H835 H 0.31392 0.92003 0.53561 0.0
H836 H 0.14253 0.85857 0.53725 0.0
H837 H 0.15495 0.84989 0.49746 0.0
C838 C 0.24717 0.8761 0.47039 0.0
C839 C 0.29574 0.89259 0.45793 0.0
C840 C 0.24128 0.88013 0.49341 0.0
C841 C 0.34086 0.91193 0.46924 0.0
C842 C 0.33657 0.91539 0.4922 0.0
C843 C 0.27927 0.90467 0.52731 0.0
C844 C 0.22717 0.89006 0.53943 0.0
C845 C 0.28622 0.90003 0.50439 0.0
C846 C 0.18277 0.87028 0.52833 0.0
C847 C 0.19003 0.86521 0.50558 0.0
H848 H 0.76506 0.63431 0.03155 0.0
H849 H 0.55472 0.60354 0.03049 0.0
H850 H 0.55785 0.60145 0.99016 0.0
H851 H 0.62144 0.6059 0.95555 0.0
H852 H 0.83142 0.63683 0.95593 0.0
H853 H 0.82772 0.64076 0.99641 0.0
C854 C 0.7197 0.6274 0.02249 0.0
C855 C 0.65976 0.61902 0.03402 0.0
C856 C 0.72203 0.62597 0.99928 0.0
C857 C 0.60152 0.61004 0.02204 0.0
C858 C 0.60329 0.60878 0.99898 0.0
C859 C 0.6661 0.61408 0.96441 0.0
C860 C 0.72644 0.62136 0.95274 0.0
C861 C 0.66343 0.61638 0.98749 0.0
C862 C 0.78446 0.631 0.96456 0.0
C863 C 0.78223 0.63336 0.98765 0.0
H864 H 0.6995 0.40029 0.97069 0.0
H865 H 0.84632 0.47067 0.95803 0.0
H866 H 0.87667 0.47217 0.9973 0.0
H867 H 0.8692 0.45019 0.03451 0.0
H868 H 0.72367 0.3791 0.04727 0.0
H869 H 0.68527 0.38104 0.00882 0.0
C870 C 0.73668 0.41646 0.97673 0.0
C871 C 0.7705 0.43543 0.96167 0.0
C872 C 0.7552 0.41661 0.99925 0.0
C873 C 0.81953 0.45598 0.96948 0.0
C874 C 0.83728 0.45666 0.99185 0.0
C875 C 0.82905 0.43514 0.02888 0.0
C876 C 0.80011 0.41425 0.04366 0.0
C877 C 0.80695 0.43646 1.00677 0.0
C878 C 0.74727 0.39526 0.0362 0.0
C879 C 0.72511 0.39638 0.0142 0.0
H880 H 0.28938 0.42029 0.47498 0.0
H881 H 0.15574 0.34299 0.4734 0.0
H882 H 0.16002 0.33973 0.51388 0.0
H883 H 0.20022 0.3595 0.54974 0.0
H884 H 0.32987 0.43823 0.55078 0.0
H885 H 0.33014 0.43961 0.51048 0.0
C886 C 0.26115 0.40266 0.48342 0.0
C887 C 0.22206 0.38197 0.47111 0.0
C888 C 0.26372 0.40097 0.50664 0.0
C889 C 0.18607 0.35927 0.48243 0.0
C890 C 0.18859 0.35737 0.50559 0.0
C891 C 0.22841 0.37704 0.54119 0.0
C892 C 0.26514 0.39867 0.55348 0.0
C893 C 0.22699 0.37822 0.51788 0.0
C894 C 0.30219 0.4209 0.54195 0.0
C895 C 0.30176 0.42195 0.51882 0.0
H896 H 0.29252 0.65671 0.54786 0.0
H897 H 0.15441 0.5807 0.54663 0.0
H898 H 0.15031 0.58306 0.50649 0.0
H899 H 0.19119 0.60409 0.47173 0.0
H900 H 0.3355 0.67767 0.4719 0.0
H901 H 0.33294 0.67841 0.5125 0.0
C902 C 0.26165 0.64059 0.53883 0.0
C903 C 0.22357 0.61866 0.55044 0.0
C904 C 0.26121 0.64138 0.51555 0.0
C905 C 0.18308 0.59829 0.53835 0.0
C906 C 0.18129 0.59935 0.5153 0.0
C907 C 0.22194 0.62046 0.48057 0.0
C908 C 0.26366 0.64075 0.4688 0.0
C909 C 0.22088 0.62047 0.50375 0.0
C910 C 0.30309 0.66175 0.48058 0.0
C911 C 0.30161 0.66217 0.50378 0.0
H912 H 0.37497 0.42022 0.05619 0.0
H913 H 0.16515 0.39181 0.04701 0.0
H914 H 0.18618 0.38574 0.00723 0.0
H915 H 0.26537 0.38754 0.9752 0.0
H916 H 0.47579 0.41486 0.98529 0.0
H917 H 0.45365 0.42142 0.02472 0.0
C918 C 0.33385 0.41234 0.04559 0.0
C919 C 0.26868 0.40616 0.05471 0.0
C920 C 0.34665 0.4084 0.0229 0.0
C921 C 0.21566 0.39688 0.04049 0.0
C922 C 0.22786 0.39318 0.01776 0.0
C923 C 0.30654 0.39472 0.98604 0.0
C924 C 0.37232 0.40058 0.97721 0.0
C925 C 0.29335 0.39865 0.0088 0.0
C926 C 0.42479 0.4101 0.99154 0.0
C927 C 0.41213 0.41396 0.01412 0.0
H928 H 0.29263 0.57586 0.98458 0.0
H929 H 0.11369 0.6328 0.9827 0.0
H930 H 0.11219 0.63485 0.02298 0.0
H931 H 0.15694 0.61847 0.05867 0.0
H932 H 0.33145 0.55938 0.06152 0.0
H933 H 0.341 0.56104 0.02097 0.0
C934 C 0.25352 0.58883 0.99299 0.0
C935 C 0.20293 0.60394 0.98055 0.0
C936 C 0.25245 0.58971 0.01633 0.0
C937 C 0.15285 0.62073 0.99176 0.0
C938 C 0.15202 0.622 0.01484 0.0
C939 C 0.19719 0.60594 0.05044 0.0
C940 C 0.24275 0.58843 0.06307 0.0
C941 C 0.20086 0.60625 0.02726 0.0
C942 C 0.29576 0.57303 0.05219 0.0
C943 C 0.30076 0.57376 0.029 0.0
H944 H 0.69923 0.58151 0.53617 0.0
H945 H 0.85726 0.64958 0.53603 0.0
H946 H 0.84799 0.65414 0.49589 0.0
H947 H 0.79517 0.63909 0.46095 0.0
H948 H 0.64228 0.56883 0.46046 0.0
H949 H 0.6477 0.56567 0.50082 0.0
C950 C 0.73178 0.59729 0.52736 0.0
C951 C 0.77898 0.61514 0.53914 0.0
C952 C 0.72646 0.59973 0.5042 0.0
C953 C 0.82073 0.63546 0.52743 0.0
C954 C 0.81528 0.63819 0.50446 0.0
C955 C 0.76345 0.62281 0.46958 0.0
C956 C 0.71863 0.60413 0.45753 0.0
C957 C 0.76839 0.62043 0.49269 0.0
C958 C 0.67664 0.5838 0.4692 0.0
C959 C 0.68024 0.58174 0.49231 0.0
H960 H 0.84111 0.38066 0.53863 0.0
H961 H 0.63673 0.41772 0.54049 0.0
H962 H 0.63993 0.42531 0.50043 0.0
H963 H 0.69801 0.41905 0.46481 0.0
H964 H 0.89904 0.37879 0.46241 0.0
H965 H 0.90081 0.37575 0.50286 0.0
C966 C 0.79742 0.3906 0.53031 0.0
C967 C 0.73854 0.39844 0.54255 0.0
C968 C 0.79917 0.39446 0.5072 0.0
C969 C 0.68244 0.41128 0.53148 0.0
C970 C 0.68428 0.41567 0.50857 0.0
C971 C 0.74221 0.40948 0.4731 0.0
C972 C 0.79797 0.39882 0.46051 0.0
C973 C 0.7419 0.40691 0.49625 0.0
C974 C 0.85558 0.38732 0.47162 0.0
C975 C 0.85633 0.38531 0.49476 0.0
H976 H 0.27975 0.06663 0.13064 0.0
H977 H 0.08151 0.02333 0.1312 0.0
H978 H 0.13682 0.97412 0.13077 0.0
H979 H 0.24164 0.9435 0.13019 0.0
H980 H 0.43949 0.98694 0.12721 0.0
H981 H 0.38422 0.03611 0.12869 0.0
C982 C 0.24867 0.04641 0.13077 0.0
C983 C 0.17669 0.04857 0.13116 0.0
C984 C 0.28076 0.01829 0.1301 0.0
C985 C 0.13702 0.02223 0.13091 0.0
C986 C 0.16861 0.99411 0.13071 0.0
C987 C 0.27261 0.96375 0.13003 0.0
C988 C 0.34453 0.96167 0.12883 0.0
C989 C 0.24043 0.99189 0.13035 0.0
C990 C 0.38404 0.98803 0.12816 0.0
C991 C 0.35249 0.01611 0.12902 0.0
H992 H 0.86563 0.03713 0.3512 0.0
H993 H 0.87919 0.03751 0.42243 0.0
H994 H 0.78929 0.99938 0.42482 0.0
H995 H 0.70463 0.96645 0.40655 0.0
H996 H 0.68979 0.96683 0.33534 0.0
H997 H 0.78242 1.00375 0.33296 0.0
C998 C 0.84914 0.02863 0.3672 0.0
C999 C 0.87805 0.04037 0.38663 0.0
C1000 C 0.79738 0.00668 0.36843 0.0
C1001 C 0.85669 0.02913 0.40728 0.0
C1002 C 0.80558 0.0072 0.40864 0.0
C1003 C 0.72253 0.97438 0.39056 0.0
C1004 C 0.69138 0.96372 0.37115 0.0
C1005 C 0.77525 0.9959 0.38933 0.0
C1006 C 0.71352 0.97462 0.3505 0.0
C1007 C 0.76642 0.99572 0.34912 0.0
H1008 H 0.79325 0.96489 0.84762 0.0
H1009 H 0.87671 0.97921 0.91289 0.0
H1010 H 0.79336 0.01919 0.91942 0.0
H1011 H 0.69169 0.04761 0.90739 0.0
H1012 H 0.61284 0.03507 0.8413 0.0
H1013 H 0.69884 0.99654 0.83439 0.0
C1014 C 0.79373 0.97704 0.86317 0.0
C1015 C 0.8408 0.96903 0.87978 0.0
C1016 C 0.74612 1.00012 0.86673 0.0
C1017 C 0.84125 0.98507 0.89979 0.0
C1018 C 0.7933 0.0078 0.90358 0.0
C1019 C 0.69431 0.03698 0.89131 0.0
C1020 C 0.64617 0.04448 0.87486 0.0
C1021 C 0.74486 0.01521 0.88728 0.0
C1022 C 0.64928 0.02985 0.85427 0.0
C1023 C 0.69852 0.0078 0.85028 0.0
H1024 H 0.1409 0.98005 0.60523 0.0
H1025 H 0.17998 0.95173 0.67228 0.0
H1026 H 0.27078 0.98953 0.67573 0.0
H1027 H 0.33671 0.03169 0.66003 0.0
H1028 H 0.2911 0.0629 0.59413 0.0
H1029 H 0.20507 0.0234 0.58985 0.0
C1030 C 0.17016 0.98198 0.62044 0.0
C1031 C 0.15501 0.96284 0.63834 0.0
C1032 C 0.22037 1.00461 0.62259 0.0
C1033 C 0.19158 0.96602 0.65822 0.0
C1034 C 0.24313 0.98772 0.66022 0.0
C1035 C 0.30769 0.02994 0.64476 0.0
C1036 C 0.32025 0.0504 0.62741 0.0
C1037 C 0.25746 0.00738 0.64261 0.0
C1038 C 0.28236 0.04767 0.60774 0.0
C1039 C 0.2332 0.02496 0.60529 0.0
H1040 H 0.83388 0.49507 0.1609 0.0
H1041 H 0.79533 0.45724 0.09657 0.0
H1042 H 0.68709 0.48431 0.09405 0.0
H1043 H 0.60354 0.5192 0.11005 0.0
H1044 H 0.64094 0.55779 0.17427 0.0
H1045 H 0.74897 0.52991 0.17718 0.0
C1046 C 0.80167 0.49288 0.14636 0.0
C1047 C 0.82181 0.47378 0.12904 0.0
C1048 C 0.73918 0.50854 0.14513 0.0
C1049 C 0.78019 0.47131 0.1102 0.0
C1050 C 0.71827 0.4868 0.10879 0.0
C1051 C 0.63543 0.52137 0.12469 0.0
C1052 C 0.61524 0.54068 0.14178 0.0
C1053 C 0.69719 0.5054 0.12616 0.0
C1054 C 0.65599 0.54309 0.16086 0.0
C1055 C 0.71776 0.52728 0.16247 0.0
H1056 H 0.1841 0.4653 0.41498 0.0
H1057 H 0.1885 0.4549 0.34398 0.0
H1058 H 0.26027 0.49964 0.34045 0.0
H1059 H 0.3184 0.54282 0.35741 0.0
H1060 H 0.30605 0.55564 0.4281 0.0
H1061 H 0.24102 0.50897 0.43192 0.0
C1062 C 0.20111 0.4728 0.39877 0.0
C1063 C 0.18106 0.45689 0.37978 0.0
C1064 C 0.24083 0.49904 0.39681 0.0
C1065 C 0.20289 0.46693 0.35884 0.0
C1066 C 0.24406 0.49247 0.35681 0.0
C1067 C 0.30195 0.53523 0.37365 0.0
C1068 C 0.31732 0.55252 0.39244 0.0
C1069 C 0.26286 0.50885 0.37566 0.0
C1070 C 0.29479 0.5427 0.41337 0.0
C1071 C 0.25762 0.51602 0.41558 0.0
H1072 H 0.32624 0.47853 0.91848 0.0
H1073 H 0.35341 0.47363 0.84761 0.0
H1074 H 0.25263 0.50511 0.8421 0.0
H1075 H 0.15402 0.53248 0.85734 0.0
H1076 H 0.13077 0.54061 0.92803 0.0
H1077 H 0.23235 0.50911 0.9338 0.0
C1078 C 0.31027 0.48455 0.90185 0.0
C1079 C 0.3468 0.47356 0.88349 0.0
C1080 C 0.25265 0.50292 0.89879 0.0
C1081 C 0.32618 0.4818 0.86203 0.0
C1082 C 0.26834 0.49967 0.85884 0.0
C1083 C 0.17143 0.52725 0.87397 0.0
C1084 C 0.13541 0.53845 0.89227 0.0
C1085 C 0.23073 0.51002 0.87708 0.0
C1086 C 0.15818 0.53201 0.91378 0.0
C1087 C 0.21611 0.51412 0.91704 0.0
H1088 H 0.86171 0.52267 0.6085 0.0
H1089 H 0.76853 0.57953 0.65756 0.0
H1090 H 0.67476 0.54348 0.66229 0.0
H1091 H 0.62452 0.49434 0.65464 0.0
H1092 H 0.71402 0.43725 0.60497 0.0
H1093 H 0.80505 0.47435 0.59857 0.0
C1094 C 0.81965 0.52743 0.61972 0.0
C1095 C 0.82025 0.55426 0.63203 0.0
C1096 C 0.76675 0.50613 0.62272 0.0
C1097 C 0.76738 0.55967 0.64725 0.0
C1098 C 0.71443 0.53884 0.65018 0.0
C1099 C 0.66383 0.4899 0.64236 0.0
C1100 C 0.66399 0.46234 0.63094 0.0
C1101 C 0.7144 0.51176 0.63835 0.0
C1102 C 0.71453 0.45747 0.61477 0.0
C1103 C 0.76595 0.47898 0.61087 0.0
H1104 H 0.11071 0.23657 0.14306 0.0
H1105 H 0.92862 0.20044 0.11224 0.0
H1106 H 0.87817 0.25034 0.11083 0.0
H1107 H 0.8861 0.30434 0.11775 0.0
H1108 H 0.06872 0.34054 0.14838 0.0
H1109 H 0.11805 0.29058 0.15039 0.0
C1110 C 0.05996 0.23959 0.13606 0.0
C1111 C 0.02377 0.21477 0.12771 0.0
C1112 C 0.03113 0.26842 0.13521 0.0
C1113 C 0.95796 0.21913 0.11871 0.0
C1114 C 0.92889 0.24769 0.11791 0.0
C1115 C 0.93656 0.30139 0.12497 0.0
C1116 C 0.97336 0.3264 0.13283 0.0
C1117 C 0.96509 0.27252 0.12604 0.0
C1118 C 0.03894 0.3219 0.14205 0.0
C1119 C 0.06741 0.29325 0.14326 0.0
H1120 H 0.38774 0.77368 0.13814 0.0
H1121 H 0.59156 0.80439 0.12117 0.0
H1122 H 0.63288 0.75299 0.12119 0.0
H1123 H 0.60971 0.69922 0.12273 0.0
H1124 H 0.40594 0.66759 0.13843 0.0
H1125 H 0.36664 0.71931 0.14262 0.0
C1126 C 0.44133 0.76915 0.13469 0.0
C1127 C 0.4861 0.79294 0.12934 0.0
C1128 C 0.46491 0.73931 0.13445 0.0
C1129 C 0.55553 0.78658 0.12501 0.0
C1130 C 0.57941 0.75714 0.12506 0.0
C1131 C 0.55688 0.70356 0.12737 0.0
C1132 C 0.5107 0.67954 0.12998 0.0
C1133 C 0.5343 0.7333 0.12926 0.0
C1134 C 0.44254 0.68565 0.13615 0.0
C1135 C 0.41991 0.71526 0.13846 0.0
H1136 H 0.5331 0.71298 0.40668 0.0
H1137 H 0.37534 0.73049 0.35837 0.0
H1138 H 0.41166 0.78299 0.356 0.0
H1139 H 0.48975 0.82399 0.36745 0.0
H1140 H 0.64284 0.80615 0.41741 0.0
H1141 H 0.60661 0.75405 0.41938 0.0
C1142 C 0.50677 0.72827 0.39559 0.0
C1143 C 0.45201 0.71781 0.38261 0.0
C1144 C 0.527 0.7585 0.39464 0.0
C1145 C 0.4177 0.738 0.36856 0.0
C1146 C 0.4385 0.76803 0.36717 0.0
C1147 C 0.51503 0.80867 0.37876 0.0
C1148 C 0.56918 0.81907 0.39212 0.0
C1149 C 0.49328 0.77855 0.3801 0.0
C1150 C 0.60089 0.79897 0.40692 0.0
C1151 C 0.58041 0.76901 0.40804 0.0
H1152 H 0.96212 0.29472 0.37108 0.0
H1153 H 0.17428 0.2779 0.38719 0.0
H1154 H 0.15118 0.224 0.38866 0.0
H1155 H 0.06784 0.18202 0.38898 0.0
H1156 H 0.85555 0.19981 0.37382 0.0
H1157 H 0.88189 0.25275 0.36798 0.0
C1158 C 0.00353 0.27932 0.37481 0.0
C1159 C 0.06962 0.29049 0.37934 0.0
C1160 C 0.98986 0.2484 0.37574 0.0
C1161 C 0.12278 0.27003 0.38374 0.0
C1162 C 0.1096 0.23914 0.38462 0.0
C1163 C 0.02777 0.19739 0.3839 0.0
C1164 C 0.95973 0.18706 0.38198 0.0
C1165 C 0.04299 0.2281 0.38111 0.0
C1166 C 0.90823 0.20727 0.37554 0.0
C1167 C 0.92317 0.23758 0.3723 0.0
H1168 H 0.90285 0.78424 0.86489 0.0
H1169 H 0.08607 0.81355 0.89878 0.0
H1170 H 0.12216 0.76168 0.90344 0.0
H1171 H 0.10085 0.70797 0.8988 0.0
H1172 H 0.91702 0.67847 0.86516 0.0
H1173 H 0.88262 0.73031 0.85959 0.0
C1174 C 0.95085 0.77931 0.87318 0.0
C1175 C 0.99139 0.80283 0.88154 0.0
C1176 C 0.97131 0.74931 0.87598 0.0
C1177 C 0.05347 0.79594 0.89227 0.0
C1178 C 0.07429 0.76624 0.89497 0.0
C1179 C 0.05324 0.71274 0.89023 0.0
C1180 C 0.01179 0.68906 0.88253 0.0
C1181 C 0.03336 0.74272 0.88706 0.0
C1182 C 0.95032 0.69601 0.87137 0.0
C1183 C 0.93037 0.72577 0.86813 0.0
H1184 H 0.43978 0.20543 0.88283 0.0
H1185 H 0.65804 0.21486 0.89336 0.0
H1186 H 0.64599 0.26927 0.89432 0.0
H1187 H 0.57341 0.31438 0.89241 0.0
H1188 H 0.35515 0.30421 0.88222 0.0
H1189 H 0.36784 0.25003 0.88091 0.0
C1190 C 0.485 0.21924 0.88527 0.0
C1191 C 0.54975 0.20577 0.88799 0.0
C1192 C 0.47782 0.25056 0.88591 0.0
C1193 C 0.6074 0.22437 0.89123 0.0
C1194 C 0.60063 0.2556 0.89178 0.0
C1195 C 0.52858 0.30035 0.88988 0.0
C1196 C 0.46345 0.31359 0.88739 0.0
C1197 C 0.53604 0.26896 0.88919 0.0
C1198 C 0.40602 0.29487 0.88419 0.0
C1199 C 0.41313 0.26376 0.88342 0.0
H1200 H 0.36316 0.22148 0.6276 0.0
H1201 H 0.56249 0.18042 0.62142 0.0
H1202 H 0.61701 0.22988 0.62279 0.0
H1203 H 0.60765 0.28538 0.62423 0.0
H1204 H 0.40713 0.32536 0.63121 0.0
H1205 H 0.35416 0.27597 0.6309 0.0
C1206 C 0.4186 0.22325 0.62664 0.0
C1207 C 0.45837 0.19716 0.62414 0.0
C1208 C 0.44966 0.25175 0.62742 0.0
C1209 C 0.5303 0.20003 0.62324 0.0
C1210 C 0.56161 0.22839 0.62394 0.0
C1211 C 0.55239 0.28328 0.62566 0.0
C1212 C 0.51173 0.30929 0.62765 0.0
C1213 C 0.52175 0.25451 0.62571 0.0
C1214 C 0.44012 0.30594 0.62974 0.0
C1215 C 0.4095 0.27761 0.62954 0.0
H1216 H 0.88167 0.72591 0.62936 0.0
H1217 H 0.08617 0.68961 0.63495 0.0
H1218 H 0.13352 0.74014 0.63717 0.0
H1219 H 0.11812 0.79484 0.63584 0.0
H1220 H 0.91373 0.83134 0.63093 0.0
H1221 H 0.86567 0.78076 0.63044 0.0
C1222 C 0.93661 0.72899 0.63107 0.0
C1223 C 0.98005 0.70373 0.63179 0.0
C1224 C 0.96383 0.75829 0.63252 0.0
C1225 C 0.05112 0.70841 0.63435 0.0
C1226 C 0.07847 0.73741 0.63559 0.0
C1227 C 0.06299 0.79181 0.63483 0.0
C1228 C 0.01993 0.81709 0.63314 0.0
C1229 C 0.03545 0.76254 0.63448 0.0
C1230 C 0.94848 0.81249 0.63211 0.0
C1231 C 0.9208 0.78347 0.63174 0.0
H1232 H 0.05127 0.10494 0.28745 0.0
H1233 H 0.96673 0.19357 0.29573 0.0
H1234 H 0.96109 0.19976 0.25553 0.0
H1235 H 0.97859 0.1798 0.21792 0.0
H1236 H 0.06568 0.09162 0.20965 0.0
H1237 H 0.07232 0.08564 0.24983 0.0
C1238 C 0.03147 0.12561 0.28049 0.0
C1239 C 0.00909 0.14869 0.29471 0.0
C1240 C 0.02907 0.12918 0.25729 0.0
C1241 C 0.98428 0.17541 0.28528 0.0
C1242 C 0.98102 0.17898 0.26225 0.0
C1243 C 0.99934 0.1593 0.22487 0.0
C1244 C 0.02143 0.13617 0.21065 0.0
C1245 C 0.00314 0.156 0.24807 0.0
C1246 C 0.04836 0.10984 0.22008 0.0
C1247 C 0.05199 0.10635 0.24311 0.0
H1248 H 0.42455 0.86137 0.21256 0.0
H1249 H 0.58442 0.9236 0.19355 0.0
H1250 H 0.61117 0.93258 0.23236 0.0
H1251 H 0.59001 0.92307 0.27165 0.0
H1252 H 0.43064 0.86122 0.29145 0.0
H1253 H 0.40319 0.8518 0.25246 0.0
C1254 C 0.46518 0.87694 0.21689 0.0
C1255 C 0.50231 0.89177 0.19999 0.0
C1256 C 0.4806 0.88205 0.23943 0.0
C1257 C 0.55485 0.91182 0.20605 0.0
C1258 C 0.57032 0.917 0.22831 0.0
C1259 C 0.54926 0.90745 0.26753 0.0
C1260 C 0.51253 0.89287 0.28458 0.0
C1261 C 0.53366 0.90224 0.24512 0.0
C1262 C 0.45986 0.87277 0.27875 0.0
C1263 C 0.44409 0.86739 0.25642 0.0
H1264 H 0.95599 0.9115 0.72862 0.0
H1265 H 0.10789 0.84241 0.71924 0.0
H1266 H 0.12155 0.83768 0.75925 0.0
H1267 H 0.09264 0.85371 0.79701 0.0
H1268 H 0.94361 0.92385 0.80679 0.0
H1269 H 0.92682 0.92759 0.76671 0.0
C1270 C 0.99175 0.89527 0.73533 0.0
C1271 C 0.03074 0.8773 0.72081 0.0
C1272 C 1.00021 0.89293 0.75851 0.0
C1273 C 0.07726 0.85659 0.7299 0.0
C1274 C 0.08517 0.85385 0.75284 0.0
C1275 C 0.05632 0.8698 0.79043 0.0
C1276 C 0.0195 0.88847 0.80502 0.0
C1277 C 0.04731 0.87202 0.76732 0.0
C1278 C 0.97286 0.90923 0.79605 0.0
C1279 C 0.96313 0.91136 0.77308 0.0
H1280 H 0.53768 0.17126 0.79228 0.0
H1281 H 0.40525 0.09392 0.79786 0.0
H1282 H 0.39709 0.09108 0.7575 0.0
H1283 H 0.43241 0.10907 0.72039 0.0
H1284 H 0.5637 0.18692 0.71523 0.0
H1285 H 0.56698 0.19104 0.75546 0.0
C1286 C 0.50665 0.15387 0.78471 0.0
C1287 C 0.47251 0.13273 0.7982 0.0
C1288 C 0.5021 0.15237 0.76145 0.0
C1289 C 0.43214 0.11051 0.78798 0.0
C1290 C 0.4276 0.10881 0.76484 0.0
C1291 C 0.46132 0.12708 0.72805 0.0
C1292 C 0.4981 0.14752 0.71465 0.0
C1293 C 0.46307 0.12939 0.75137 0.0
C1294 C 0.53498 0.17078 0.72498 0.0
C1295 C 0.53706 0.17315 0.74807 0.0
H1296 H 0.41593 0.62644 0.22519 0.0
H1297 H 0.62467 0.65504 0.21361 0.0
H1298 H 0.64056 0.66291 0.25337 0.0
H1299 H 0.59729 0.65831 0.29169 0.0
H1300 H 0.38984 0.62749 0.30275 0.0
H1301 H 0.37141 0.62399 0.26294 0.0
C1302 C 0.46478 0.63469 0.23128 0.0
C1303 C 0.51911 0.63999 0.21642 0.0
C1304 C 0.47394 0.63861 0.25413 0.0
C1305 C 0.58202 0.65065 0.22468 0.0
C1306 C 0.5912 0.65512 0.24743 0.0
C1307 C 0.54784 0.65116 0.28537 0.0
C1308 C 0.49517 0.64302 0.3002 0.0
C1309 C 0.53785 0.64867 0.26236 0.0
C1310 C 0.43146 0.63368 0.29173 0.0
C1311 C 0.4208 0.63167 0.26894 0.0
H1312 H 0.9102 0.37032 0.21675 0.0
H1313 H 0.07946 0.43293 0.21793 0.0
H1314 H 0.09064 0.42592 0.25792 0.0
H1315 H 0.05076 0.40289 0.29266 0.0
H1316 H 0.88188 0.34005 0.29139 0.0
H1317 H 0.87253 0.34619 0.2513 0.0
C1318 C 0.9496 0.38245 0.22572 0.0
C1319 C 0.9937 0.40226 0.21432 0.0
C1320 C 0.95589 0.37824 0.24872 0.0
C1321 C 0.04474 0.41759 0.22625 0.0
C1322 C 0.05116 0.4136 0.24914 0.0
C1323 C 0.01204 0.39041 0.28363 0.0
C1324 C 0.96693 0.3711 0.2951 0.0
C1325 C 0.0068 0.3941 0.26056 0.0
C1326 C 0.91727 0.35508 0.28306 0.0
C1327 C 0.91177 0.35862 0.2601 0.0
H1328 H 0.52964 0.40936 0.72322 0.0
H1329 H 0.3404 0.35904 0.7208 0.0
H1330 H 0.33888 0.35572 0.7612 0.0
H1331 H 0.39006 0.36804 0.79733 0.0
H1332 H 0.58132 0.41697 0.79959 0.0
H1333 H 0.58344 0.41967 0.75922 0.0
C1334 C 0.48799 0.39771 0.73153 0.0
C1335 C 0.43493 0.38468 0.71898 0.0
C1336 C 0.48788 0.39554 0.75477 0.0
C1337 C 0.38184 0.36932 0.73002 0.0
C1338 C 0.3809 0.36742 0.75315 0.0
C1339 C 0.43237 0.37918 0.789 0.0
C1340 C 0.48526 0.39239 0.80153 0.0
C1341 C 0.4335 0.38056 0.76571 0.0
C1342 C 0.53993 0.40656 0.79041 0.0
C1343 C 0.5411 0.40823 0.76729 0.0
H1344 H 0.98771 0.58343 0.71863 0.0
H1345 H 0.12609 0.65919 0.71842 0.0
H1346 H 0.12451 0.66007 0.7589 0.0
H1347 H 0.08209 0.63983 0.7943 0.0
H1348 H 0.9418 0.56469 0.79413 0.0
H1349 H 0.94601 0.56311 0.75379 0.0
C1350 C 0.01781 0.60009 0.7274 0.0
C1351 C 0.05699 0.6212 0.7155 0.0
C1352 C 0.0162 0.60063 0.75061 0.0
C1353 C 0.09543 0.64269 0.72717 0.0
C1354 C 0.09454 0.64322 0.75032 0.0
C1355 C 0.05259 0.62305 0.78544 0.0
C1356 C 0.01166 0.60243 0.79723 0.0
C1357 C 0.05484 0.62238 0.7622 0.0
C1358 C 0.9736 0.58089 0.78549 0.0
C1359 C 0.97599 0.57994 0.7624 0.0
loop_
_geom_bond_atom_site_label_1
_geom_bond_atom_site_label_2
_geom_bond_distance
_geom_bond_site_symmetry_2
_ccdc_geom_bond_type
O0 Tb1 2.292 . S
O0 C3 1.255 . S
Tb1 O0 2.292 . S
Tb1 O17 2.326 . S
Tb1 O19 2.500 . S
Tb1 O20 2.473 . S
Tb1 O23 2.324 . S
Eu2 O6 2.292 1_455 S
Eu2 C7 2.852 1_455 S
Eu2 O18 2.324 . S
Eu2 O22 2.326 . S
Eu2 O24 2.500 1_455 S
Eu2 O25 2.473 1_455 S
C3 O0 1.255 . S
C3 O4 1.247 . S
O4 C3 1.247 . S
C5 O17 1.242 . S
C5 O18 1.258 . S
O6 Eu2 2.292 1_655 S
O6 C8 1.258 . S
C7 Eu2 2.852 1_655 S
C7 C11 1.503 . S
C7 O24 1.273 . S
C7 O25 1.257 . S
C8 O6 1.258 . S
C8 O9 1.239 1_655 S
O9 C8 1.239 1_455 S
C10 O22 1.242 . S
C10 O23 1.258 . S
C11 C7 1.503 . S
C11 C12 1.379 . S
C11 C16 1.392 . S
C12 C11 1.379 . S
C12 C13 1.404 . S
C12 H26 0.929 . S
C13 C12 1.404 . S
C13 C14 1.389 . S
C14 C13 1.389 . S
C14 C15 1.399 . S
C14 H27 0.931 . S
C15 C14 1.399 . S
C15 C16 1.390 . S
C16 C11 1.392 . S
C16 C15 1.390 . S
C16 H28 0.929 . S
O17 Tb1 2.326 . S
O17 C5 1.242 . S
O18 Eu2 2.324 . S
O18 C5 1.258 . S
O19 Tb1 2.500 . S
O19 C21 1.273 . S
O20 Tb1 2.473 . S
O20 C21 1.257 . S
C21 O19 1.273 . S
C21 O20 1.257 . S
O22 Eu2 2.326 . S
O22 C10 1.242 . S
O23 Tb1 2.324 . S
O23 C10 1.258 . S
O24 Eu2 2.500 1_655 S
O24 C7 1.273 . S
O25 Eu2 2.473 1_655 S
O25 C7 1.257 . S
H26 C12 0.929 . S
H27 C14 0.931 . S
H28 C16 0.929 . S
O29 Tb30 2.292 . S
O29 C32 1.255 . S
Tb30 O29 2.292 . S
Tb30 O46 2.326 . S
Tb30 O48 2.500 . S
Tb30 O49 2.473 . S
Tb30 O52 2.324 . S
Eu31 O35 2.292 . S
Eu31 C36 2.852 . S
Eu31 O47 2.324 . S
Eu31 O51 2.326 . S
Eu31 O53 2.500 . S
Eu31 O54 2.473 . S
C32 O29 1.255 . S
C32 O33 1.247 . S
O33 C32 1.247 . S
C34 O46 1.242 . S
C34 O47 1.258 . S
O35 Eu31 2.292 . S
O35 C37 1.255 . S
C36 Eu31 2.852 . S
C36 C40 1.503 . S
C36 O53 1.273 . S
C36 O54 1.257 . S
C37 O35 1.255 . S
C37 O38 1.247 . S
O38 C37 1.247 . S
C39 O51 1.242 . S
C39 O52 1.258 . S
C40 C36 1.503 . S
C40 C41 1.379 . S
C40 C45 1.392 . S
C41 C40 1.379 . S
C41 C42 1.404 . S
C41 H55 0.929 . S
C42 C41 1.404 . S
C42 C43 1.389 . S
C43 C42 1.389 . S
C43 C44 1.399 . S
C43 H56 0.931 . S
C44 C43 1.399 . S
C44 C45 1.390 . S
C45 C40 1.392 . S
C45 C44 1.390 . S
C45 H57 0.929 . S
O46 Tb30 2.326 . S
O46 C34 1.242 . S
O47 Eu31 2.324 . S
O47 C34 1.258 . S
O48 Tb30 2.500 . S
O48 C50 1.273 . S
O49 Tb30 2.473 . S
O49 C50 1.257 . S
C50 O48 1.273 . S
C50 O49 1.257 . S
O51 Eu31 2.326 . S
O51 C39 1.242 . S
O52 Tb30 2.324 . S
O52 C39 1.258 . S
O53 Eu31 2.500 . S
O53 C36 1.273 . S
O54 Eu31 2.473 . S
O54 C36 1.257 . S
H55 C41 0.929 . S
H56 C43 0.931 . S
H57 C45 0.929 . S
O58 Tb59 2.292 . S
O58 C61 1.255 . S
Tb59 O58 2.292 . S
Tb59 O75 2.326 . S
Tb59 O77 2.500 . S
Tb59 O78 2.473 . S
Tb59 O81 2.324 . S
Eu60 O64 2.292 . S
Eu60 C65 2.852 . S
Eu60 O76 2.324 . S
Eu60 O80 2.326 . S
Eu60 O82 2.500 . S
Eu60 O83 2.473 . S
C61 O58 1.255 . S
C61 O62 1.247 . S
O62 C61 1.247 . S
C63 O75 1.242 . S
C63 O76 1.258 . S
O64 Eu60 2.292 . S
O64 C66 1.255 . S
C65 Eu60 2.852 . S
C65 C69 1.503 . S
C65 O82 1.273 . S
C65 O83 1.257 . S
C66 O64 1.255 . S
C66 O67 1.247 . S
O67 C66 1.247 . S
C68 O80 1.242 . S
C68 O81 1.258 . S
C69 C65 1.503 . S
C69 C70 1.379 . S
C69 C74 1.392 . S
C70 C69 1.379 . S
C70 C71 1.404 . S
C70 H84 0.929 . S
C71 C70 1.404 . S
C71 C72 1.389 . S
C72 C71 1.389 . S
C72 C73 1.399 . S
C72 H85 0.931 . S
C73 C72 1.399 . S
C73 C74 1.390 . S
C74 C69 1.392 . S
C74 C73 1.390 . S
C74 H86 0.929 . S
O75 Tb59 2.326 . S
O75 C63 1.242 . S
O76 Eu60 2.324 . S
O76 C63 1.258 . S
O77 Tb59 2.500 . S
O77 C79 1.273 . S
O78 Tb59 2.473 . S
O78 C79 1.257 . S
C79 O77 1.273 . S
C79 O78 1.257 . S
O80 Eu60 2.326 . S
O80 C68 1.242 . S
O81 Tb59 2.324 . S
O81 C68 1.258 . S
O82 Eu60 2.500 . S
O82 C65 1.273 . S
O83 Eu60 2.473 . S
O83 C65 1.257 . S
H84 C70 0.929 . S
H85 C72 0.931 . S
H86 C74 0.929 . S
O87 Tb88 2.292 . S
O87 C90 1.255 . S
Tb88 O87 2.292 . S
Tb88 O104 2.326 . S
Tb88 O106 2.500 . S
Tb88 O107 2.473 . S
Tb88 O110 2.324 . S
Eu89 O93 2.292 1_655 S
Eu89 C94 2.852 1_655 S
Eu89 O105 2.324 . S
Eu89 O109 2.326 . S
Eu89 O111 2.500 1_655 S
Eu89 O112 2.473 1_655 S
C90 O87 1.255 . S
C90 O91 1.247 . S
O91 C90 1.247 . S
C92 O104 1.242 . S
C92 O105 1.258 . S
O93 Eu89 2.292 1_455 S
O93 C95 1.258 . S
C94 Eu89 2.852 1_455 S
C94 C98 1.503 . S
C94 O111 1.273 . S
C94 O112 1.257 . S
C95 O93 1.258 . S
C95 O96 1.239 1_455 S
O96 C95 1.239 1_655 S
C97 O109 1.242 . S
C97 O110 1.258 . S
C98 C94 1.503 . S
C98 C99 1.379 . S
C98 C103 1.392 . S
C99 C98 1.379 . S
C99 C100 1.404 . S
C99 H113 0.929 . S
C100 C99 1.404 . S
C100 C101 1.389 . S
C101 C100 1.389 . S
C101 C102 1.399 . S
C101 H114 0.931 . S
C102 C101 1.399 . S
C102 C103 1.390 . S
C103 C98 1.392 . S
C103 C102 1.390 . S
C103 H115 0.929 . S
O104 Tb88 2.326 . S
O104 C92 1.242 . S
O105 Eu89 2.324 . S
O105 C92 1.258 . S
O106 Tb88 2.500 . S
O106 C108 1.273 . S
O107 Tb88 2.473 . S
O107 C108 1.257 . S
C108 O106 1.273 . S
C108 O107 1.257 . S
O109 Eu89 2.326 . S
O109 C97 1.242 . S
O110 Tb88 2.324 . S
O110 C97 1.258 . S
O111 Eu89 2.500 1_455 S
O111 C94 1.273 . S
O112 Eu89 2.473 1_455 S
O112 C94 1.257 . S
H113 C99 0.929 . S
H114 C101 0.931 . S
H115 C103 0.929 . S
O116 Tb117 2.292 . S
O116 C119 1.255 . S
Tb117 O116 2.292 . S
Tb117 O133 2.326 . S
Tb117 O135 2.500 . S
Tb117 O136 2.473 . S
Tb117 O139 2.324 . S
Eu118 O122 2.292 1_655 S
Eu118 C123 2.852 1_655 S
Eu118 O134 2.324 . S
Eu118 O138 2.326 . S
Eu118 O140 2.500 1_655 S
Eu118 O141 2.473 1_655 S
C119 O116 1.255 . S
C119 O120 1.247 . S
O120 C119 1.247 . S
C121 O133 1.242 . S
C121 O134 1.258 . S
O122 Eu118 2.292 1_455 S
O122 C124 1.258 . S
C123 Eu118 2.852 1_455 S
C123 C127 1.503 . S
C123 O140 1.273 . S
C123 O141 1.257 . S
C124 O122 1.258 . S
C124 O125 1.239 1_455 S
O125 C124 1.239 1_655 S
C126 O138 1.242 . S
C126 O139 1.258 . S
C127 C123 1.503 . S
C127 C128 1.379 . S
C127 C132 1.392 . S
C128 C127 1.379 . S
C128 C129 1.404 . S
C128 H142 0.929 . S
C129 C128 1.404 . S
C129 C130 1.389 . S
C130 C129 1.389 . S
C130 C131 1.399 . S
C130 H143 0.931 . S
C131 C130 1.399 . S
C131 C132 1.390 . S
C132 C127 1.392 . S
C132 C131 1.390 . S
C132 H144 0.929 . S
O133 Tb117 2.326 . S
O133 C121 1.242 . S
O134 Eu118 2.324 . S
O134 C121 1.258 . S
O135 Tb117 2.500 . S
O135 C137 1.273 . S
O136 Tb117 2.473 . S
O136 C137 1.257 . S
C137 O135 1.273 . S
C137 O136 1.257 . S
O138 Eu118 2.326 . S
O138 C126 1.242 . S
O139 Tb117 2.324 . S
O139 C126 1.258 . S
O140 Eu118 2.500 1_455 S
O140 C123 1.273 . S
O141 Eu118 2.473 1_455 S
O141 C123 1.257 . S
H142 C128 0.929 . S
H143 C130 0.931 . S
H144 C132 0.929 . S
O145 Tb146 2.292 . S
O145 C148 1.255 . S
Tb146 O145 2.292 . S
Tb146 O162 2.326 . S
Tb146 O164 2.500 . S
Tb146 O165 2.473 . S
Tb146 O168 2.324 . S
Eu147 O151 2.292 . S
Eu147 C152 2.852 . S
Eu147 O163 2.324 . S
Eu147 O167 2.326 . S
Eu147 O169 2.500 . S
Eu147 O170 2.473 . S
C148 O145 1.255 . S
C148 O149 1.247 . S
O149 C148 1.247 . S
C150 O162 1.242 . S
C150 O163 1.258 . S
O151 Eu147 2.292 . S
O151 C153 1.255 . S
C152 Eu147 2.852 . S
C152 C156 1.503 . S
C152 O169 1.273 . S
C152 O170 1.257 . S
C153 O151 1.255 . S
C153 O154 1.247 . S
O154 C153 1.247 . S
C155 O167 1.242 . S
C155 O168 1.258 . S
C156 C152 1.503 . S
C156 C157 1.379 . S
C156 C161 1.392 . S
C157 C156 1.379 . S
C157 C158 1.404 . S
C157 H171 0.929 . S
C158 C157 1.404 . S
C158 C159 1.389 . S
C159 C158 1.389 . S
C159 C160 1.399 . S
C159 H172 0.931 . S
C160 C159 1.399 . S
C160 C161 1.390 . S
C161 C156 1.392 . S
C161 C160 1.390 . S
C161 H173 0.929 . S
O162 Tb146 2.326 . S
O162 C150 1.242 . S
O163 Eu147 2.324 . S
O163 C150 1.258 . S
O164 Tb146 2.500 . S
O164 C166 1.273 . S
O165 Tb146 2.473 . S
O165 C166 1.257 . S
C166 O164 1.273 . S
C166 O165 1.257 . S
O167 Eu147 2.326 . S
O167 C155 1.242 . S
O168 Tb146 2.324 . S
O168 C155 1.258 . S
O169 Eu147 2.500 . S
O169 C152 1.273 . S
O170 Eu147 2.473 . S
O170 C152 1.257 . S
H171 C157 0.929 . S
H172 C159 0.931 . S
H173 C161 0.929 . S
O174 Tb175 2.292 . S
O174 C177 1.255 . S
Tb175 O174 2.292 . S
Tb175 O191 2.326 . S
Tb175 O193 2.500 . S
Tb175 O194 2.473 . S
Tb175 O197 2.324 . S
Eu176 O180 2.292 . S
Eu176 C181 2.852 . S
Eu176 O192 2.324 . S
Eu176 O196 2.326 . S
Eu176 O198 2.500 . S
Eu176 O199 2.473 . S
C177 O174 1.255 . S
C177 O178 1.247 . S
O178 C177 1.247 . S
C179 O191 1.242 . S
C179 O192 1.258 . S
O180 Eu176 2.292 . S
O180 C182 1.255 . S
C181 Eu176 2.852 . S
C181 C185 1.503 . S
C181 O198 1.273 . S
C181 O199 1.257 . S
C182 O180 1.255 . S
C182 O183 1.247 . S
O183 C182 1.247 . S
C184 O196 1.242 . S
C184 O197 1.258 . S
C185 C181 1.503 . S
C185 C186 1.379 . S
C185 C190 1.392 . S
C186 C185 1.379 . S
C186 C187 1.404 . S
C186 H200 0.929 . S
C187 C186 1.404 . S
C187 C188 1.389 . S
C188 C187 1.389 . S
C188 C189 1.399 . S
C188 H201 0.931 . S
C189 C188 1.399 . S
C189 C190 1.390 . S
C190 C185 1.392 . S
C190 C189 1.390 . S
C190 H202 0.929 . S
O191 Tb175 2.326 . S
O191 C179 1.242 . S
O192 Eu176 2.324 . S
O192 C179 1.258 . S
O193 Tb175 2.500 . S
O193 C195 1.273 . S
O194 Tb175 2.473 . S
O194 C195 1.257 . S
C195 O193 1.273 . S
C195 O194 1.257 . S
O196 Eu176 2.326 . S
O196 C184 1.242 . S
O197 Tb175 2.324 . S
O197 C184 1.258 . S
O198 Eu176 2.500 . S
O198 C181 1.273 . S
O199 Eu176 2.473 . S
O199 C181 1.257 . S
H200 C186 0.929 . S
H201 C188 0.931 . S
H202 C190 0.929 . S
O203 Tb204 2.292 . S
O203 C206 1.255 . S
Tb204 O203 2.292 . S
Tb204 O220 2.326 . S
Tb204 O222 2.500 . S
Tb204 O223 2.473 . S
Tb204 O226 2.324 . S
Eu205 O209 2.292 1_455 S
Eu205 C210 2.852 1_455 S
Eu205 O221 2.324 . S
Eu205 O225 2.326 . S
Eu205 O227 2.500 1_455 S
Eu205 O228 2.473 1_455 S
C206 O203 1.255 . S
C206 O207 1.247 . S
O207 C206 1.247 . S
C208 O220 1.242 . S
C208 O221 1.258 . S
O209 Eu205 2.292 1_655 S
O209 C211 1.258 . S
C210 Eu205 2.852 1_655 S
C210 C214 1.503 . S
C210 O227 1.273 . S
C210 O228 1.257 . S
C211 O209 1.258 . S
C211 O212 1.239 1_655 S
O212 C211 1.239 1_455 S
C213 O225 1.242 . S
C213 O226 1.258 . S
C214 C210 1.503 . S
C214 C215 1.379 . S
C214 C219 1.392 . S
C215 C214 1.379 . S
C215 C216 1.404 . S
C215 H229 0.929 . S
C216 C215 1.404 . S
C216 C217 1.389 . S
C217 C216 1.389 . S
C217 C218 1.399 . S
C217 H230 0.931 . S
C218 C217 1.399 . S
C218 C219 1.390 . S
C219 C214 1.392 . S
C219 C218 1.390 . S
C219 H231 0.929 . S
O220 Tb204 2.326 . S
O220 C208 1.242 . S
O221 Eu205 2.324 . S
O221 C208 1.258 . S
O222 Tb204 2.500 . S
O222 C224 1.273 . S
O223 Tb204 2.473 . S
O223 C224 1.257 . S
C224 O222 1.273 . S
C224 O223 1.257 . S
O225 Eu205 2.326 . S
O225 C213 1.242 . S
O226 Tb204 2.324 . S
O226 C213 1.258 . S
O227 Eu205 2.500 1_655 S
O227 C210 1.273 . S
O228 Eu205 2.473 1_655 S
O228 C210 1.257 . S
H229 C215 0.929 . S
H230 C217 0.931 . S
H231 C219 0.929 . S
O232 Tb233 2.292 . S
O232 C235 1.255 . S
Tb233 O232 2.292 . S
Tb233 O249 2.326 . S
Tb233 O251 2.500 . S
Tb233 O252 2.473 . S
Tb233 O255 2.324 . S
Eu234 O238 2.292 . S
Eu234 C239 2.852 . S
Eu234 O250 2.324 . S
Eu234 O254 2.326 . S
Eu234 O256 2.500 . S
Eu234 O257 2.473 . S
C235 O232 1.255 . S
C235 O236 1.247 . S
O236 C235 1.247 . S
C237 O249 1.242 . S
C237 O250 1.258 . S
O238 Eu234 2.292 . S
O238 C240 1.255 . S
C239 Eu234 2.852 . S
C239 C243 1.503 . S
C239 O256 1.273 . S
C239 O257 1.257 . S
C240 O238 1.255 . S
C240 O241 1.247 . S
O241 C240 1.247 . S
C242 O254 1.242 . S
C242 O255 1.258 . S
C243 C239 1.503 . S
C243 C244 1.379 . S
C243 C248 1.392 . S
C244 C243 1.379 . S
C244 C245 1.404 . S
C244 H258 0.929 . S
C245 C244 1.404 . S
C245 C246 1.389 . S
C246 C245 1.389 . S
C246 C247 1.399 . S
C246 H259 0.931 . S
C247 C246 1.399 . S
C247 C248 1.390 . S
C248 C243 1.392 . S
C248 C247 1.390 . S
C248 H260 0.929 . S
O249 Tb233 2.326 . S
O249 C237 1.242 . S
O250 Eu234 2.324 . S
O250 C237 1.258 . S
O251 Tb233 2.500 . S
O251 C253 1.273 . S
O252 Tb233 2.473 . S
O252 C253 1.257 . S
C253 O251 1.273 . S
C253 O252 1.257 . S
O254 Eu234 2.326 . S
O254 C242 1.242 . S
O255 Tb233 2.324 . S
O255 C242 1.258 . S
O256 Eu234 2.500 . S
O256 C239 1.273 . S
O257 Eu234 2.473 . S
O257 C239 1.257 . S
H258 C244 0.929 . S
H259 C246 0.931 . S
H260 C248 0.929 . S
O261 Tb262 2.292 . S
O261 C264 1.255 . S
Tb262 O261 2.292 . S
Tb262 O278 2.326 . S
Tb262 O280 2.500 . S
Tb262 O281 2.473 . S
Tb262 O284 2.324 . S
Eu263 O267 2.292 1_655 S
Eu263 C268 2.852 1_655 S
Eu263 O279 2.324 . S
Eu263 O283 2.326 . S
Eu263 O285 2.500 1_655 S
Eu263 O286 2.473 1_655 S
C264 O261 1.255 . S
C264 O265 1.247 . S
O265 C264 1.247 . S
C266 O278 1.242 . S
C266 O279 1.258 . S
O267 Eu263 2.292 1_455 S
O267 C269 1.258 . S
C268 Eu263 2.852 1_455 S
C268 C272 1.503 . S
C268 O285 1.273 . S
C268 O286 1.257 . S
C269 O267 1.258 . S
C269 O270 1.239 1_455 S
O270 C269 1.239 1_655 S
C271 O283 1.242 . S
C271 O284 1.258 . S
C272 C268 1.503 . S
C272 C273 1.379 . S
C272 C277 1.392 . S
C273 C272 1.379 . S
C273 C274 1.404 . S
C273 H287 0.929 . S
C274 C273 1.404 . S
C274 C275 1.389 . S
C275 C274 1.389 . S
C275 C276 1.399 . S
C275 H288 0.931 . S
C276 C275 1.399 . S
C276 C277 1.390 . S
C277 C272 1.392 . S
C277 C276 1.390 . S
C277 H289 0.929 . S
O278 Tb262 2.326 . S
O278 C266 1.242 . S
O279 Eu263 2.324 . S
O279 C266 1.258 . S
O280 Tb262 2.500 . S
O280 C282 1.273 . S
O281 Tb262 2.473 . S
O281 C282 1.257 . S
C282 O280 1.273 . S
C282 O281 1.257 . S
O283 Eu263 2.326 . S
O283 C271 1.242 . S
O284 Tb262 2.324 . S
O284 C271 1.258 . S
O285 Eu263 2.500 1_455 S
O285 C268 1.273 . S
O286 Eu263 2.473 1_455 S
O286 C268 1.257 . S
H287 C273 0.929 . S
H288 C275 0.931 . S
H289 C277 0.929 . S
O290 Tb291 2.292 . S
O290 C293 1.255 . S
Tb291 O290 2.292 . S
Tb291 O307 2.326 . S
Tb291 O309 2.500 . S
Tb291 O310 2.473 . S
Tb291 O313 2.324 . S
Eu292 O296 2.292 1_455 S
Eu292 C297 2.852 1_455 S
Eu292 O308 2.324 . S
Eu292 O312 2.326 . S
Eu292 O314 2.500 1_455 S
Eu292 O315 2.473 1_455 S
C293 O290 1.255 . S
C293 O294 1.247 . S
O294 C293 1.247 . S
C295 O307 1.242 . S
C295 O308 1.258 . S
O296 Eu292 2.292 1_655 S
O296 C298 1.258 . S
C297 Eu292 2.852 1_655 S
C297 C301 1.503 . S
C297 O314 1.273 . S
C297 O315 1.257 . S
C298 O296 1.258 . S
C298 O299 1.239 1_655 S
O299 C298 1.239 1_455 S
C300 O312 1.242 . S
C300 O313 1.258 . S
C301 C297 1.503 . S
C301 C302 1.379 . S
C301 C306 1.392 . S
C302 C301 1.379 . S
C302 C303 1.404 . S
C302 H316 0.929 . S
C303 C302 1.404 . S
C303 C304 1.389 . S
C304 C303 1.389 . S
C304 C305 1.399 . S
C304 H317 0.931 . S
C305 C304 1.399 . S
C305 C306 1.390 . S
C306 C301 1.392 . S
C306 C305 1.390 . S
C306 H318 0.929 . S
O307 Tb291 2.326 . S
O307 C295 1.242 . S
O308 Eu292 2.324 . S
O308 C295 1.258 . S
O309 Tb291 2.500 . S
O309 C311 1.273 . S
O310 Tb291 2.473 . S
O310 C311 1.257 . S
C311 O309 1.273 . S
C311 O310 1.257 . S
O312 Eu292 2.326 . S
O312 C300 1.242 . S
O313 Tb291 2.324 . S
O313 C300 1.258 . S
O314 Eu292 2.500 1_655 S
O314 C297 1.273 . S
O315 Eu292 2.473 1_655 S
O315 C297 1.257 . S
H316 C302 0.929 . S
H317 C304 0.931 . S
H318 C306 0.929 . S
O319 Tb320 2.292 . S
O319 C322 1.255 . S
Tb320 O319 2.292 . S
Tb320 O336 2.326 . S
Tb320 O338 2.500 . S
Tb320 O339 2.473 . S
Tb320 O342 2.324 . S
Eu321 O325 2.292 . S
Eu321 C326 2.852 . S
Eu321 O337 2.324 . S
Eu321 O341 2.326 . S
Eu321 O343 2.500 . S
Eu321 O344 2.473 . S
C322 O319 1.255 . S
C322 O323 1.247 . S
O323 C322 1.247 . S
C324 O336 1.242 . S
C324 O337 1.258 . S
O325 Eu321 2.292 . S
O325 C327 1.255 . S
C326 Eu321 2.852 . S
C326 C330 1.503 . S
C326 O343 1.273 . S
C326 O344 1.257 . S
C327 O325 1.255 . S
C327 O328 1.247 . S
O328 C327 1.247 . S
C329 O341 1.242 . S
C329 O342 1.258 . S
C330 C326 1.503 . S
C330 C331 1.379 . S
C330 C335 1.392 . S
C331 C330 1.379 . S
C331 C332 1.404 . S
C331 H345 0.929 . S
C332 C331 1.404 . S
C332 C333 1.389 . S
C333 C332 1.389 . S
C333 C334 1.399 . S
C333 H346 0.931 . S
C334 C333 1.399 . S
C334 C335 1.390 . S
C335 C330 1.392 . S
C335 C334 1.390 . S
C335 H347 0.929 . S
O336 Tb320 2.326 . S
O336 C324 1.242 . S
O337 Eu321 2.324 . S
O337 C324 1.258 . S
O338 Tb320 2.500 . S
O338 C340 1.273 . S
O339 Tb320 2.473 . S
O339 C340 1.257 . S
C340 O338 1.273 . S
C340 O339 1.257 . S
O341 Eu321 2.326 . S
O341 C329 1.242 . S
O342 Tb320 2.324 . S
O342 C329 1.258 . S
O343 Eu321 2.500 . S
O343 C326 1.273 . S
O344 Eu321 2.473 . S
O344 C326 1.257 . S
H345 C331 0.929 . S
H346 C333 0.931 . S
H347 C335 0.929 . S
O348 Tb349 2.292 . S
O348 C351 1.255 . S
Tb349 O348 2.292 . S
Tb349 O365 2.326 . S
Tb349 O367 2.500 . S
Tb349 O368 2.473 . S
Tb349 O371 2.324 . S
Eu350 O354 2.292 . S
Eu350 C355 2.852 . S
Eu350 O366 2.324 . S
Eu350 O370 2.326 . S
Eu350 O372 2.500 . S
Eu350 O373 2.473 . S
C351 O348 1.255 . S
C351 O352 1.247 . S
O352 C351 1.247 . S
C353 O365 1.242 . S
C353 O366 1.258 . S
O354 Eu350 2.292 . S
O354 C356 1.255 . S
C355 Eu350 2.852 . S
C355 C359 1.503 . S
C355 O372 1.273 . S
C355 O373 1.257 . S
C356 O354 1.255 . S
C356 O357 1.247 . S
O357 C356 1.247 . S
C358 O370 1.242 . S
C358 O371 1.258 . S
C359 C355 1.503 . S
C359 C360 1.379 . S
C359 C364 1.392 . S
C360 C359 1.379 . S
C360 C361 1.404 . S
C360 H374 0.929 . S
C361 C360 1.404 . S
C361 C362 1.389 . S
C362 C361 1.389 . S
C362 C363 1.399 . S
C362 H375 0.931 . S
C363 C362 1.399 . S
C363 C364 1.390 . S
C364 C359 1.392 . S
C364 C363 1.390 . S
C364 H376 0.929 . S
O365 Tb349 2.326 . S
O365 C353 1.242 . S
O366 Eu350 2.324 . S
O366 C353 1.258 . S
O367 Tb349 2.500 . S
O367 C369 1.273 . S
O368 Tb349 2.473 . S
O368 C369 1.257 . S
C369 O367 1.273 . S
C369 O368 1.257 . S
O370 Eu350 2.326 . S
O370 C358 1.242 . S
O371 Tb349 2.324 . S
O371 C358 1.258 . S
O372 Eu350 2.500 . S
O372 C355 1.273 . S
O373 Eu350 2.473 . S
O373 C355 1.257 . S
H374 C360 0.929 . S
H375 C362 0.931 . S
H376 C364 0.929 . S
O377 Tb378 2.292 . S
O377 C380 1.255 . S
Tb378 O377 2.292 . S
Tb378 O394 2.326 . S
Tb378 O396 2.500 . S
Tb378 O397 2.473 . S
Tb378 O400 2.324 . S
Eu379 O383 2.292 1_455 S
Eu379 C384 2.852 1_455 S
Eu379 O395 2.324 . S
Eu379 O399 2.326 . S
Eu379 O401 2.500 1_455 S
Eu379 O402 2.473 1_455 S
C380 O377 1.255 . S
C380 O381 1.247 . S
O381 C380 1.247 . S
C382 O394 1.242 . S
C382 O395 1.258 . S
O383 Eu379 2.292 1_655 S
O383 C385 1.258 . S
C384 Eu379 2.852 1_655 S
C384 C388 1.503 . S
C384 O401 1.273 . S
C384 O402 1.257 . S
C385 O383 1.258 . S
C385 O386 1.239 1_655 S
O386 C385 1.239 1_455 S
C387 O399 1.242 . S
C387 O400 1.258 . S
C388 C384 1.503 . S
C388 C389 1.379 . S
C388 C393 1.392 . S
C389 C388 1.379 . S
C389 C390 1.404 . S
C389 H403 0.929 . S
C390 C389 1.404 . S
C390 C391 1.389 . S
C391 C390 1.389 . S
C391 C392 1.399 . S
C391 H404 0.931 . S
C392 C391 1.399 . S
C392 C393 1.390 . S
C393 C388 1.392 . S
C393 C392 1.390 . S
C393 H405 0.929 . S
O394 Tb378 2.326 . S
O394 C382 1.242 . S
O395 Eu379 2.324 . S
O395 C382 1.258 . S
O396 Tb378 2.500 . S
O396 C398 1.273 . S
O397 Tb378 2.473 . S
O397 C398 1.257 . S
C398 O396 1.273 . S
C398 O397 1.257 . S
O399 Eu379 2.326 . S
O399 C387 1.242 . S
O400 Tb378 2.324 . S
O400 C387 1.258 . S
O401 Eu379 2.500 1_655 S
O401 C384 1.273 . S
O402 Eu379 2.473 1_655 S
O402 C384 1.257 . S
H403 C389 0.929 . S
H404 C391 0.931 . S
H405 C393 0.929 . S
O406 Tb407 2.292 . S
O406 C409 1.255 . S
Tb407 O406 2.292 . S
Tb407 O423 2.326 . S
Tb407 O425 2.500 . S
Tb407 O426 2.473 . S
Tb407 O429 2.324 . S
Eu408 O412 2.292 1_655 S
Eu408 C413 2.852 1_655 S
Eu408 O424 2.324 . S
Eu408 O428 2.326 . S
Eu408 O430 2.500 1_655 S
Eu408 O431 2.473 1_655 S
C409 O406 1.255 . S
C409 O410 1.247 . S
O410 C409 1.247 . S
C411 O423 1.242 . S
C411 O424 1.258 . S
O412 Eu408 2.292 1_455 S
O412 C414 1.258 . S
C413 Eu408 2.852 1_455 S
C413 C417 1.503 . S
C413 O430 1.273 . S
C413 O431 1.257 . S
C414 O412 1.258 . S
C414 O415 1.239 1_455 S
O415 C414 1.239 1_655 S
C416 O428 1.242 . S
C416 O429 1.258 . S
C417 C413 1.503 . S
C417 C418 1.379 . S
C417 C422 1.392 . S
C418 C417 1.379 . S
C418 C419 1.404 . S
C418 H432 0.929 . S
C419 C418 1.404 . S
C419 C420 1.389 . S
C420 C419 1.389 . S
C420 C421 1.399 . S
C420 H433 0.931 . S
C421 C420 1.399 . S
C421 C422 1.390 . S
C422 C417 1.392 . S
C422 C421 1.390 . S
C422 H434 0.929 . S
O423 Tb407 2.326 . S
O423 C411 1.242 . S
O424 Eu408 2.324 . S
O424 C411 1.258 . S
O425 Tb407 2.500 . S
O425 C427 1.273 . S
O426 Tb407 2.473 . S
O426 C427 1.257 . S
C427 O425 1.273 . S
C427 O426 1.257 . S
O428 Eu408 2.326 . S
O428 C416 1.242 . S
O429 Tb407 2.324 . S
O429 C416 1.258 . S
O430 Eu408 2.500 1_455 S
O430 C413 1.273 . S
O431 Eu408 2.473 1_455 S
O431 C413 1.257 . S
H432 C418 0.929 . S
H433 C420 0.931 . S
H434 C422 0.929 . S
O435 Tb436 2.292 . S
O435 C438 1.255 . S
Tb436 O435 2.292 . S
Tb436 O452 2.326 . S
Tb436 O454 2.500 . S
Tb436 O455 2.473 . S
Tb436 O458 2.324 . S
Eu437 O441 2.292 . S
Eu437 C442 2.852 . S
Eu437 O453 2.324 . S
Eu437 O457 2.326 . S
Eu437 O459 2.500 . S
Eu437 O460 2.473 . S
C438 O435 1.255 . S
C438 O439 1.247 . S
O439 C438 1.247 . S
C440 O452 1.242 . S
C440 O453 1.258 . S
O441 Eu437 2.292 . S
O441 C443 1.255 . S
C442 Eu437 2.852 . S
C442 C446 1.503 . S
C442 O459 1.273 . S
C442 O460 1.257 . S
C443 O441 1.255 . S
C443 O444 1.247 . S
O444 C443 1.247 . S
C445 O457 1.242 . S
C445 O458 1.258 . S
C446 C442 1.503 . S
C446 C447 1.379 . S
C446 C451 1.392 . S
C447 C446 1.379 . S
C447 C448 1.404 . S
C447 H461 0.929 . S
C448 C447 1.404 . S
C448 C449 1.389 . S
C449 C448 1.389 . S
C449 C450 1.399 . S
C449 H462 0.931 . S
C450 C449 1.399 . S
C450 C451 1.390 . S
C451 C446 1.392 . S
C451 C450 1.390 . S
C451 H463 0.929 . S
O452 Tb436 2.326 . S
O452 C440 1.242 . S
O453 Eu437 2.324 . S
O453 C440 1.258 . S
O454 Tb436 2.500 . S
O454 C456 1.273 . S
O455 Tb436 2.473 . S
O455 C456 1.257 . S
C456 O454 1.273 . S
C456 O455 1.257 . S
O457 Eu437 2.326 . S
O457 C445 1.242 . S
O458 Tb436 2.324 . S
O458 C445 1.258 . S
O459 Eu437 2.500 . S
O459 C442 1.273 . S
O460 Eu437 2.473 . S
O460 C442 1.257 . S
H461 C447 0.929 . S
H462 C449 0.931 . S
H463 C451 0.929 . S
H464 C470 0.930 . S
H465 C473 0.930 . S
H466 C474 0.930 . S
H467 C475 0.930 . S
H468 C478 0.930 . S
H469 C479 0.930 . S
C470 H464 0.930 . S
C470 C471 1.355 . S
C470 C472 1.415 . S
C471 C470 1.355 . S
C471 C473 1.419 . S
C472 C470 1.415 . S
C472 C477 1.425 . S
C472 C479 1.409 . S
C473 H465 0.930 . S
C473 C471 1.419 . S
C473 C474 1.362 . S
C474 H466 0.930 . S
C474 C473 1.362 . S
C474 C477 1.409 . S
C475 H467 0.930 . S
C475 C476 1.355 . S
C475 C477 1.415 . S
C476 C475 1.355 . S
C476 C478 1.419 . S
C477 C472 1.425 . S
C477 C474 1.409 . S
C477 C475 1.415 . S
C478 H468 0.930 . S
C478 C476 1.419 . S
C478 C479 1.362 . S
C479 H469 0.930 . S
C479 C472 1.409 . S
C479 C478 1.362 . S
H480 C486 0.930 . S
H481 C489 0.930 . S
H482 C490 0.930 . S
H483 C491 0.930 . S
H484 C494 0.930 . S
H485 C495 0.930 . S
C486 H480 0.930 . S
C486 C487 1.355 . S
C486 C488 1.415 . S
C487 C486 1.355 . S
C487 C489 1.419 . S
C488 C486 1.415 . S
C488 C493 1.425 . S
C488 C495 1.409 1_455 S
C489 H481 0.930 . S
C489 C487 1.419 . S
C489 C490 1.362 . S
C490 H482 0.930 . S
C490 C489 1.362 . S
C490 C493 1.409 . S
C491 H483 0.930 . S
C491 C492 1.355 . S
C491 C493 1.415 1_655 S
C492 C491 1.355 . S
C492 C494 1.419 . S
C493 C488 1.425 . S
C493 C490 1.409 . S
C493 C491 1.415 1_455 S
C494 H484 0.930 . S
C494 C492 1.419 . S
C494 C495 1.362 . S
C495 H485 0.930 . S
C495 C488 1.409 1_655 S
C495 C494 1.362 . S
H496 C502 0.930 . S
H497 C505 0.930 . S
H498 C506 0.930 . S
H499 C507 0.930 . S
H500 C510 0.930 . S
H501 C511 0.930 . S
C502 H496 0.930 . S
C502 C503 1.355 . S
C502 C504 1.415 . S
C503 C502 1.355 . S
C503 C505 1.419 . S
C504 C502 1.415 . S
C504 C509 1.425 . S
C504 C511 1.409 1_655 S
C505 H497 0.930 . S
C505 C503 1.419 . S
C505 C506 1.362 . S
C506 H498 0.930 . S
C506 C505 1.362 . S
C506 C509 1.409 . S
C507 H499 0.930 . S
C507 C508 1.355 . S
C507 C509 1.415 1_455 S
C508 C507 1.355 . S
C508 C510 1.419 . S
C509 C504 1.425 . S
C509 C506 1.409 . S
C509 C507 1.415 1_655 S
C510 H500 0.930 . S
C510 C508 1.419 . S
C510 C511 1.362 . S
C511 H501 0.930 . S
C511 C504 1.409 1_455 S
C511 C510 1.362 . S
H512 C518 0.930 . S
H513 C521 0.930 . S
H514 C522 0.930 . S
H515 C523 0.930 . S
H516 C526 0.930 . S
H517 C527 0.930 . S
C518 H512 0.930 . S
C518 C519 1.355 . S
C518 C520 1.415 . S
C519 C518 1.355 . S
C519 C521 1.419 . S
C520 C518 1.415 . S
C520 C525 1.425 . S
C520 C527 1.409 . S
C521 H513 0.930 . S
C521 C519 1.419 . S
C521 C522 1.362 . S
C522 H514 0.930 . S
C522 C521 1.362 . S
C522 C525 1.409 . S
C523 H515 0.930 . S
C523 C524 1.355 . S
C523 C525 1.415 . S
C524 C523 1.355 . S
C524 C526 1.419 . S
C525 C520 1.425 . S
C525 C522 1.409 . S
C525 C523 1.415 . S
C526 H516 0.930 . S
C526 C524 1.419 . S
C526 C527 1.362 . S
C527 H517 0.930 . S
C527 C520 1.409 . S
C527 C526 1.362 . S
H528 C534 0.930 . S
H529 C537 0.930 . S
H530 C538 0.930 . S
H531 C539 0.930 . S
H532 C542 0.930 . S
H533 C543 0.930 . S
C534 H528 0.930 . S
C534 C535 1.355 . S
C534 C536 1.415 . S
C535 C534 1.355 . S
C535 C537 1.419 . S
C536 C534 1.415 . S
C536 C541 1.425 . S
C536 C543 1.409 . S
C537 H529 0.930 . S
C537 C535 1.419 . S
C537 C538 1.362 . S
C538 H530 0.930 . S
C538 C537 1.362 . S
C538 C541 1.409 . S
C539 H531 0.930 . S
C539 C540 1.355 . S
C539 C541 1.415 . S
C540 C539 1.355 . S
C540 C542 1.419 . S
C541 C536 1.425 . S
C541 C538 1.409 . S
C541 C539 1.415 . S
C542 H532 0.930 . S
C542 C540 1.419 . S
C542 C543 1.362 . S
C543 H533 0.930 . S
C543 C536 1.409 . S
C543 C542 1.362 . S
H544 C550 0.930 . S
H545 C553 0.930 . S
H546 C554 0.930 1_655 S
H547 C555 0.930 . S
H548 C558 0.930 . S
H549 C559 0.930 . S
C550 H544 0.930 . S
C550 C551 1.355 . S
C550 C552 1.415 . S
C551 C550 1.355 . S
C551 C553 1.419 . S
C552 C550 1.415 . S
C552 C557 1.425 1_455 S
C552 C559 1.409 1_455 S
C553 H545 0.930 . S
C553 C551 1.419 . S
C553 C554 1.362 . S
C554 H546 0.930 1_455 S
C554 C553 1.362 . S
C554 C557 1.409 1_455 S
C555 H547 0.930 . S
C555 C556 1.355 . S
C555 C557 1.415 . S
C556 C555 1.355 . S
C556 C558 1.419 . S
C557 C552 1.425 1_655 S
C557 C554 1.409 1_655 S
C557 C555 1.415 . S
C558 H548 0.930 . S
C558 C556 1.419 . S
C558 C559 1.362 . S
C559 H549 0.930 . S
C559 C552 1.409 1_655 S
C559 C558 1.362 . S
H560 C566 0.930 . S
H561 C569 0.930 . S
H562 C570 0.930 . S
H563 C571 0.930 . S
H564 C574 0.930 . S
H565 C575 0.930 . S
C566 H560 0.930 . S
C566 C567 1.355 . S
C566 C568 1.415 1_655 S
C567 C566 1.355 . S
C567 C569 1.419 . S
C568 C566 1.415 1_455 S
C568 C573 1.425 . S
C568 C575 1.409 . S
C569 H561 0.930 . S
C569 C567 1.419 . S
C569 C570 1.362 . S
C570 H562 0.930 . S
C570 C569 1.362 . S
C570 C573 1.409 1_655 S
C571 H563 0.930 . S
C571 C572 1.355 . S
C571 C573 1.415 . S
C572 C571 1.355 . S
C572 C574 1.419 . S
C573 C568 1.425 . S
C573 C570 1.409 1_455 S
C573 C571 1.415 . S
C574 H564 0.930 . S
C574 C572 1.419 . S
C574 C575 1.362 . S
C575 H565 0.930 . S
C575 C568 1.409 . S
C575 C574 1.362 . S
H576 C582 0.930 . S
H577 C585 0.930 . S
H578 C586 0.930 . S
H579 C587 0.930 . S
H580 C590 0.930 . S
H581 C591 0.930 . S
C582 H576 0.930 . S
C582 C583 1.355 . S
C582 C584 1.415 . S
C583 C582 1.355 . S
C583 C585 1.419 . S
C584 C582 1.415 . S
C584 C589 1.425 . S
C584 C591 1.409 . S
C585 H577 0.930 . S
C585 C583 1.419 . S
C585 C586 1.362 . S
C586 H578 0.930 . S
C586 C585 1.362 . S
C586 C589 1.409 . S
C587 H579 0.930 . S
C587 C588 1.355 . S
C587 C589 1.415 . S
C588 C587 1.355 . S
C588 C590 1.419 . S
C589 C584 1.425 . S
C589 C586 1.409 . S
C589 C587 1.415 . S
C590 H580 0.930 . S
C590 C588 1.419 . S
C590 C591 1.362 . S
C591 H581 0.930 . S
C591 C584 1.409 . S
C591 C590 1.362 . S
H592 C598 0.930 . S
H593 C601 0.930 . S
H594 C602 0.930 . S
H595 C603 0.930 . S
H596 C606 0.930 . S
H597 C607 0.930 . S
C598 H592 0.930 . S
C598 C599 1.355 . S
C598 C600 1.415 . S
C599 C598 1.355 . S
C599 C601 1.419 . S
C600 C598 1.415 . S
C600 C605 1.425 . S
C600 C607 1.409 1_655 S
C601 H593 0.930 . S
C601 C599 1.419 . S
C601 C602 1.362 . S
C602 H594 0.930 . S
C602 C601 1.362 . S
C602 C605 1.409 . S
C603 H595 0.930 . S
C603 C604 1.355 . S
C603 C605 1.415 1_455 S
C604 C603 1.355 . S
C604 C606 1.419 . S
C605 C600 1.425 . S
C605 C602 1.409 . S
C605 C603 1.415 1_655 S
C606 H596 0.930 . S
C606 C604 1.419 . S
C606 C607 1.362 . S
C607 H597 0.930 . S
C607 C600 1.409 1_455 S
C607 C606 1.362 . S
H608 C614 0.930 . S
H609 C617 0.930 . S
H610 C618 0.930 . S
H611 C619 0.930 . S
H612 C622 0.930 . S
H613 C623 0.930 . S
C614 H608 0.930 . S
C614 C615 1.355 . S
C614 C616 1.415 . S
C615 C614 1.355 . S
C615 C617 1.419 . S
C616 C614 1.415 . S
C616 C621 1.425 . S
C616 C623 1.409 . S
C617 H609 0.930 . S
C617 C615 1.419 . S
C617 C618 1.362 . S
C618 H610 0.930 . S
C618 C617 1.362 . S
C618 C621 1.409 . S
C619 H611 0.930 . S
C619 C620 1.355 . S
C619 C621 1.415 . S
C620 C619 1.355 . S
C620 C622 1.419 . S
C621 C616 1.425 . S
C621 C618 1.409 . S
C621 C619 1.415 . S
C622 H612 0.930 . S
C622 C620 1.419 . S
C622 C623 1.362 . S
C623 H613 0.930 . S
C623 C616 1.409 . S
C623 C622 1.362 . S
H624 C630 0.930 . S
H625 C633 0.930 . S
H626 C634 0.930 . S
H627 C635 0.930 . S
H628 C638 0.930 . S
H629 C639 0.930 . S
C630 H624 0.930 . S
C630 C631 1.355 . S
C630 C632 1.415 . S
C631 C630 1.355 . S
C631 C633 1.419 . S
C632 C630 1.415 . S
C632 C637 1.425 . S
C632 C639 1.409 . S
C633 H625 0.930 . S
C633 C631 1.419 . S
C633 C634 1.362 . S
C634 H626 0.930 . S
C634 C633 1.362 . S
C634 C637 1.409 . S
C635 H627 0.930 . S
C635 C636 1.355 . S
C635 C637 1.415 . S
C636 C635 1.355 . S
C636 C638 1.419 . S
C637 C632 1.425 . S
C637 C634 1.409 . S
C637 C635 1.415 . S
C638 H628 0.930 . S
C638 C636 1.419 . S
C638 C639 1.362 . S
C639 H629 0.930 . S
C639 C632 1.409 . S
C639 C638 1.362 . S
H640 C646 0.930 . S
H641 C649 0.930 . S
H642 C650 0.930 . S
H643 C651 0.930 . S
H644 C654 0.930 . S
H645 C655 0.930 1_455 S
C646 H640 0.930 . S
C646 C647 1.355 . S
C646 C648 1.415 . S
C647 C646 1.355 . S
C647 C649 1.419 . S
C648 C646 1.415 . S
C648 C653 1.425 1_455 S
C648 C655 1.409 1_455 S
C649 H641 0.930 . S
C649 C647 1.419 . S
C649 C650 1.362 . S
C650 H642 0.930 . S
C650 C649 1.362 . S
C650 C653 1.409 1_455 S
C651 H643 0.930 . S
C651 C652 1.355 . S
C651 C653 1.415 . S
C652 C651 1.355 . S
C652 C654 1.419 . S
C653 C648 1.425 1_655 S
C653 C650 1.409 1_655 S
C653 C651 1.415 . S
C654 H644 0.930 . S
C654 C652 1.419 . S
C654 C655 1.362 . S
C655 H645 0.930 1_655 S
C655 C648 1.409 1_655 S
C655 C654 1.362 . S
H656 C662 0.930 . S
H657 C665 0.930 . S
H658 C666 0.930 . S
H659 C667 0.930 . S
H660 C670 0.930 . S
H661 C671 0.930 . S
C662 H656 0.930 . S
C662 C663 1.355 . S
C662 C664 1.415 . S
C663 C662 1.355 . S
C663 C665 1.419 . S
C664 C662 1.415 . S
C664 C669 1.425 . S
C664 C671 1.409 1_455 S
C665 H657 0.930 . S
C665 C663 1.419 . S
C665 C666 1.362 . S
C666 H658 0.930 . S
C666 C665 1.362 . S
C666 C669 1.409 . S
C667 H659 0.930 . S
C667 C668 1.355 . S
C667 C669 1.415 1_655 S
C668 C667 1.355 . S
C668 C670 1.419 . S
C669 C664 1.425 . S
C669 C666 1.409 . S
C669 C667 1.415 1_455 S
C670 H660 0.930 . S
C670 C668 1.419 . S
C670 C671 1.362 . S
C671 H661 0.930 . S
C671 C664 1.409 1_655 S
C671 C670 1.362 . S
H672 C678 0.930 . S
H673 C681 0.930 . S
H674 C682 0.930 . S
H675 C683 0.930 . S
H676 C686 0.930 . S
H677 C687 0.930 . S
C678 H672 0.930 . S
C678 C679 1.355 . S
C678 C680 1.415 . S
C679 C678 1.355 . S
C679 C681 1.419 . S
C680 C678 1.415 . S
C680 C685 1.425 . S
C680 C687 1.409 . S
C681 H673 0.930 . S
C681 C679 1.419 . S
C681 C682 1.362 . S
C682 H674 0.930 . S
C682 C681 1.362 . S
C682 C685 1.409 . S
C683 H675 0.930 . S
C683 C684 1.355 . S
C683 C685 1.415 . S
C684 C683 1.355 . S
C684 C686 1.419 . S
C685 C680 1.425 . S
C685 C682 1.409 . S
C685 C683 1.415 . S
C686 H676 0.930 . S
C686 C684 1.419 . S
C686 C687 1.362 . S
C687 H677 0.930 . S
C687 C680 1.409 . S
C687 C686 1.362 . S
H688 C694 0.930 . S
H689 C697 0.930 . S
H690 C698 0.930 . S
H691 C699 0.930 . S
H692 C702 0.930 . S
H693 C703 0.930 . S
C694 H688 0.930 . S
C694 C695 1.355 . S
C694 C696 1.415 . S
C695 C694 1.355 . S
C695 C697 1.419 . S
C696 C694 1.415 . S
C696 C701 1.425 . S
C696 C703 1.409 . S
C697 H689 0.930 . S
C697 C695 1.419 . S
C697 C698 1.362 . S
C698 H690 0.930 . S
C698 C697 1.362 . S
C698 C701 1.409 . S
C699 H691 0.930 . S
C699 C700 1.355 . S
C699 C701 1.415 . S
C700 C699 1.355 . S
C700 C702 1.419 . S
C701 C696 1.425 . S
C701 C698 1.409 . S
C701 C699 1.415 . S
C702 H692 0.930 . S
C702 C700 1.419 . S
C702 C703 1.362 . S
C703 H693 0.930 . S
C703 C696 1.409 . S
C703 C702 1.362 . S
H704 C710 0.930 . S
H705 C713 0.930 . S
H706 C714 0.930 . S
H707 C715 0.930 . S
H708 C718 0.930 . S
H709 C719 0.930 . S
C710 H704 0.930 . S
C710 C711 1.355 . S
C710 C712 1.415 1_455 S
C711 C710 1.355 . S
C711 C713 1.419 . S
C712 C710 1.415 1_655 S
C712 C717 1.425 . S
C712 C719 1.409 . S
C713 H705 0.930 . S
C713 C711 1.419 . S
C713 C714 1.362 . S
C714 H706 0.930 . S
C714 C713 1.362 . S
C714 C717 1.409 1_455 S
C715 H707 0.930 . S
C715 C716 1.355 . S
C715 C717 1.415 . S
C716 C715 1.355 . S
C716 C718 1.419 . S
C717 C712 1.425 . S
C717 C714 1.409 1_655 S
C717 C715 1.415 . S
C718 H708 0.930 . S
C718 C716 1.419 . S
C718 C719 1.362 . S
C719 H709 0.930 . S
C719 C712 1.409 . S
C719 C718 1.362 . S
H720 C726 0.930 . S
H721 C729 0.930 . S
H722 C730 0.930 . S
H723 C731 0.930 . S
H724 C734 0.930 . S
H725 C735 0.930 . S
C726 H720 0.930 . S
C726 C727 1.355 . S
C726 C728 1.415 1_554 S
C727 C726 1.355 . S
C727 C729 1.419 . S
C728 C726 1.415 1_556 S
C728 C733 1.425 . S
C728 C735 1.409 . S
C729 H721 0.930 . S
C729 C727 1.419 . S
C729 C730 1.362 . S
C730 H722 0.930 . S
C730 C729 1.362 . S
C730 C733 1.409 1_554 S
C731 H723 0.930 . S
C731 C732 1.355 . S
C731 C733 1.415 . S
C732 C731 1.355 . S
C732 C734 1.419 . S
C733 C728 1.425 . S
C733 C730 1.409 1_556 S
C733 C731 1.415 . S
C734 H724 0.930 . S
C734 C732 1.419 . S
C734 C735 1.362 . S
C735 H725 0.930 . S
C735 C728 1.409 . S
C735 C734 1.362 . S
H736 C742 0.930 . S
H737 C745 0.930 . S
H738 C746 0.930 . S
H739 C747 0.930 . S
H740 C750 0.930 . S
H741 C751 0.930 . S
C742 H736 0.930 . S
C742 C743 1.355 . S
C742 C744 1.415 1_554 S
C743 C742 1.355 . S
C743 C745 1.419 . S
C744 C742 1.415 1_556 S
C744 C749 1.425 . S
C744 C751 1.409 . S
C745 H737 0.930 . S
C745 C743 1.419 . S
C745 C746 1.362 1_554 S
C746 H738 0.930 . S
C746 C745 1.362 1_556 S
C746 C749 1.409 . S
C747 H739 0.930 . S
C747 C748 1.355 . S
C747 C749 1.415 . S
C748 C747 1.355 . S
C748 C750 1.419 . S
C749 C744 1.425 . S
C749 C746 1.409 . S
C749 C747 1.415 . S
C750 H740 0.930 . S
C750 C748 1.419 . S
C750 C751 1.362 . S
C751 H741 0.930 . S
C751 C744 1.409 . S
C751 C750 1.362 . S
H752 C758 0.930 . S
H753 C761 0.930 . S
H754 C762 0.930 . S
H755 C763 0.930 . S
H756 C766 0.930 . S
H757 C767 0.930 . S
C758 H752 0.930 . S
C758 C759 1.355 . S
C758 C760 1.415 . S
C759 C758 1.355 . S
C759 C761 1.419 . S
C760 C758 1.415 . S
C760 C765 1.425 . S
C760 C767 1.409 . S
C761 H753 0.930 . S
C761 C759 1.419 . S
C761 C762 1.362 . S
C762 H754 0.930 . S
C762 C761 1.362 . S
C762 C765 1.409 . S
C763 H755 0.930 . S
C763 C764 1.355 . S
C763 C765 1.415 . S
C764 C763 1.355 . S
C764 C766 1.419 . S
C765 C760 1.425 . S
C765 C762 1.409 . S
C765 C763 1.415 . S
C766 H756 0.930 . S
C766 C764 1.419 . S
C766 C767 1.362 . S
C767 H757 0.930 . S
C767 C760 1.409 . S
C767 C766 1.362 . S
H768 C774 0.930 . S
H769 C777 0.930 . S
H770 C778 0.930 . S
H771 C779 0.930 . S
H772 C782 0.930 . S
H773 C783 0.930 . S
C774 H768 0.930 . S
C774 C775 1.355 . S
C774 C776 1.415 . S
C775 C774 1.355 . S
C775 C777 1.419 . S
C776 C774 1.415 . S
C776 C781 1.425 . S
C776 C783 1.409 . S
C777 H769 0.930 . S
C777 C775 1.419 . S
C777 C778 1.362 . S
C778 H770 0.930 . S
C778 C777 1.362 . S
C778 C781 1.409 . S
C779 H771 0.930 . S
C779 C780 1.355 . S
C779 C781 1.415 . S
C780 C779 1.355 . S
C780 C782 1.419 . S
C781 C776 1.425 . S
C781 C778 1.409 . S
C781 C779 1.415 . S
C782 H772 0.930 . S
C782 C780 1.419 . S
C782 C783 1.362 . S
C783 H773 0.930 . S
C783 C776 1.409 . S
C783 C782 1.362 . S
H784 C790 0.930 . S
H785 C793 0.930 . S
H786 C794 0.916 1_554 S
H787 C795 0.930 . S
H788 C798 0.930 . S
H789 C799 0.930 . S
C790 H784 0.930 . S
C790 C791 1.355 . S
C790 C792 1.415 1_556 S
C791 C790 1.355 . S
C791 C793 1.419 . S
C792 C790 1.415 1_554 S
C792 C797 1.425 . S
C792 C799 1.409 . S
C793 H785 0.930 . S
C793 C791 1.419 . S
C793 C794 1.406 . S
C794 H786 0.916 1_556 S
C794 C793 1.406 . S
C794 C797 1.382 1_556 S
C795 H787 0.930 . S
C795 C796 1.355 . S
C795 C797 1.415 . S
C796 C795 1.355 . S
C796 C798 1.419 . S
C797 C792 1.425 . S
C797 C794 1.382 1_554 S
C797 C795 1.415 . S
C798 H788 0.930 . S
C798 C796 1.419 . S
C798 C799 1.362 . S
C799 H789 0.930 . S
C799 C792 1.409 . S
C799 C798 1.362 . S
H800 C806 0.930 . S
H801 C809 0.930 . S
H802 C810 0.930 . S
H803 C811 0.930 . S
H804 C814 0.930 . S
H805 C815 0.930 . S
C806 H800 0.930 . S
C806 C807 1.355 . S
C806 C808 1.415 1_556 S
C807 C806 1.355 . S
C807 C809 1.419 . S
C808 C806 1.415 1_554 S
C808 C813 1.425 . S
C808 C815 1.409 . S
C809 H801 0.930 . S
C809 C807 1.419 . S
C809 C810 1.362 . S
C810 H802 0.930 . S
C810 C809 1.362 . S
C810 C813 1.409 1_556 S
C811 H803 0.930 . S
C811 C812 1.355 . S
C811 C813 1.415 . S
C812 C811 1.355 . S
C812 C814 1.419 . S
C813 C808 1.425 . S
C813 C810 1.409 1_554 S
C813 C811 1.415 . S
C814 H804 0.930 . S
C814 C812 1.419 . S
C814 C815 1.362 . S
C815 H805 0.930 . S
C815 C808 1.409 . S
C815 C814 1.362 . S
H816 C822 0.930 . S
H817 C825 0.930 . S
H818 C826 0.930 . S
H819 C827 0.930 . S
H820 C830 0.930 . S
H821 C831 0.930 . S
C822 H816 0.930 . S
C822 C823 1.355 . S
C822 C824 1.415 . S
C823 C822 1.355 . S
C823 C825 1.419 . S
C824 C822 1.415 . S
C824 C829 1.425 . S
C824 C831 1.409 . S
C825 H817 0.930 . S
C825 C823 1.419 . S
C825 C826 1.362 . S
C826 H818 0.930 . S
C826 C825 1.362 . S
C826 C829 1.409 . S
C827 H819 0.930 . S
C827 C828 1.355 . S
C827 C829 1.415 . S
C828 C827 1.355 . S
C828 C830 1.419 . S
C829 C824 1.425 . S
C829 C826 1.409 . S
C829 C827 1.415 . S
C830 H820 0.930 . S
C830 C828 1.419 . S
C830 C831 1.362 . S
C831 H821 0.930 . S
C831 C824 1.409 . S
C831 C830 1.362 . S
H832 C838 0.930 . S
H833 C841 0.930 . S
H834 C842 0.930 . S
H835 C843 0.930 . S
H836 C846 0.930 . S
H837 C847 0.930 . S
C838 H832 0.930 . S
C838 C839 1.355 . S
C838 C840 1.415 . S
C839 C838 1.355 . S
C839 C841 1.419 . S
C840 C838 1.415 . S
C840 C845 1.425 . S
C840 C847 1.409 . S
C841 H833 0.930 . S
C841 C839 1.419 . S
C841 C842 1.362 . S
C842 H834 0.930 . S
C842 C841 1.362 . S
C842 C845 1.409 . S
C843 H835 0.930 . S
C843 C844 1.355 . S
C843 C845 1.415 . S
C844 C843 1.355 . S
C844 C846 1.419 . S
C845 C840 1.425 . S
C845 C842 1.409 . S
C845 C843 1.415 . S
C846 H836 0.930 . S
C846 C844 1.419 . S
C846 C847 1.362 . S
C847 H837 0.930 . S
C847 C840 1.409 . S
C847 C846 1.362 . S
H848 C854 0.930 . S
H849 C857 0.930 . S
H850 C858 0.930 . S
H851 C859 0.930 . S
H852 C862 0.930 . S
H853 C863 0.952 . S
C854 H848 0.930 . S
C854 C855 1.355 . S
C854 C856 1.415 1_554 S
C855 C854 1.355 . S
C855 C857 1.419 . S
C856 C854 1.415 1_556 S
C856 C861 1.425 . S
C856 C863 1.409 . S
C857 H849 0.930 . S
C857 C855 1.419 . S
C857 C858 1.362 1_554 S
C858 H850 0.930 . S
C858 C857 1.362 1_556 S
C858 C861 1.409 . S
C859 H851 0.930 . S
C859 C860 1.355 . S
C859 C861 1.415 . S
C860 C859 1.355 . S
C860 C862 1.419 . S
C861 C856 1.425 . S
C861 C858 1.409 . S
C861 C859 1.415 . S
C862 H852 0.930 . S
C862 C860 1.419 . S
C862 C863 1.362 . S
C863 H853 0.952 . S
C863 C856 1.409 . S
C863 C862 1.362 . S
H864 C870 0.930 . S
H865 C873 0.930 . S
H866 C874 0.930 . S
H867 C875 0.930 . S
H868 C878 0.930 . S
H869 C879 0.930 . S
C870 H864 0.930 . S
C870 C871 1.355 . S
C870 C872 1.415 . S
C871 C870 1.355 . S
C871 C873 1.419 . S
C872 C870 1.415 . S
C872 C877 1.425 . S
C872 C879 1.409 1_556 S
C873 H865 0.930 . S
C873 C871 1.419 . S
C873 C874 1.362 . S
C874 H866 0.930 . S
C874 C873 1.362 . S
C874 C877 1.409 . S
C875 H867 0.930 . S
C875 C876 1.355 . S
C875 C877 1.415 1_554 S
C876 C875 1.355 . S
C876 C878 1.419 . S
C877 C872 1.425 . S
C877 C874 1.409 . S
C877 C875 1.415 1_556 S
C878 H868 0.930 . S
C878 C876 1.419 . S
C878 C879 1.362 . S
C879 H869 0.930 . S
C879 C872 1.409 1_554 S
C879 C878 1.362 . S
H880 C886 0.930 . S
H881 C889 0.930 . S
H882 C890 0.930 . S
H883 C891 0.930 . S
H884 C894 0.930 . S
H885 C895 0.930 . S
C886 H880 0.930 . S
C886 C887 1.355 . S
C886 C888 1.415 . S
C887 C886 1.355 . S
C887 C889 1.419 . S
C888 C886 1.415 . S
C888 C893 1.425 . S
C888 C895 1.409 . S
C889 H881 0.930 . S
C889 C887 1.419 . S
C889 C890 1.362 . S
C890 H882 0.930 . S
C890 C889 1.362 . S
C890 C893 1.409 . S
C891 H883 0.930 . S
C891 C892 1.355 . S
C891 C893 1.415 . S
C892 C891 1.355 . S
C892 C894 1.419 . S
C893 C888 1.425 . S
C893 C890 1.409 . S
C893 C891 1.415 . S
C894 H884 0.930 . S
C894 C892 1.419 . S
C894 C895 1.362 . S
C895 H885 0.930 . S
C895 C888 1.409 . S
C895 C894 1.362 . S
H896 C902 0.930 . S
H897 C905 0.930 . S
H898 C906 0.930 . S
H899 C907 0.930 . S
H900 C910 0.930 . S
H901 C911 0.930 . S
C902 H896 0.930 . S
C902 C903 1.355 . S
C902 C904 1.415 . S
C903 C902 1.355 . S
C903 C905 1.419 . S
C904 C902 1.415 . S
C904 C909 1.425 . S
C904 C911 1.409 . S
C905 H897 0.930 . S
C905 C903 1.419 . S
C905 C906 1.362 . S
C906 H898 0.930 . S
C906 C905 1.362 . S
C906 C909 1.409 . S
C907 H899 0.930 . S
C907 C908 1.355 . S
C907 C909 1.415 . S
C908 C907 1.355 . S
C908 C910 1.419 . S
C909 C904 1.425 . S
C909 C906 1.409 . S
C909 C907 1.415 . S
C910 H900 0.930 . S
C910 C908 1.419 . S
C910 C911 1.362 . S
C911 H901 0.930 . S
C911 C904 1.409 . S
C911 C910 1.362 . S
H912 C918 0.930 . S
H913 C921 0.930 . S
H914 C922 0.930 . S
H915 C923 0.930 . S
H916 C926 0.930 . S
H917 C927 0.930 . S
C918 H912 0.930 . S
C918 C919 1.355 . S
C918 C920 1.415 . S
C919 C918 1.355 . S
C919 C921 1.419 . S
C920 C918 1.415 . S
C920 C925 1.425 . S
C920 C927 1.409 . S
C921 H913 0.930 . S
C921 C919 1.419 . S
C921 C922 1.362 . S
C922 H914 0.930 . S
C922 C921 1.362 . S
C922 C925 1.409 . S
C923 H915 0.930 . S
C923 C924 1.355 . S
C923 C925 1.415 1_556 S
C924 C923 1.355 . S
C924 C926 1.419 . S
C925 C920 1.425 . S
C925 C922 1.409 . S
C925 C923 1.415 1_554 S
C926 H916 0.930 . S
C926 C924 1.419 . S
C926 C927 1.362 1_556 S
C927 H917 0.930 . S
C927 C920 1.409 . S
C927 C926 1.362 1_554 S
H928 C934 0.930 . S
H929 C937 0.930 . S
H930 C938 0.923 1_554 S
H931 C939 0.930 . S
H932 C942 0.930 . S
H933 C943 0.930 . S
C934 H928 0.930 . S
C934 C935 1.355 . S
C934 C936 1.415 1_556 S
C935 C934 1.355 . S
C935 C937 1.419 . S
C936 C934 1.415 1_554 S
C936 C941 1.425 . S
C936 C943 1.409 . S
C937 H929 0.930 . S
C937 C935 1.419 . S
C937 C938 1.362 . S
C938 H930 0.923 1_556 S
C938 C937 1.362 . S
C938 C941 1.409 1_556 S
C939 H931 0.930 . S
C939 C940 1.355 . S
C939 C941 1.415 . S
C940 C939 1.355 . S
C940 C942 1.419 . S
C941 C936 1.425 . S
C941 C938 1.409 1_554 S
C941 C939 1.415 . S
C942 H932 0.930 . S
C942 C940 1.419 . S
C942 C943 1.362 . S
C943 H933 0.930 . S
C943 C936 1.409 . S
C943 C942 1.362 . S
H944 C950 0.930 . S
H945 C953 0.930 . S
H946 C954 0.930 . S
H947 C955 0.930 . S
H948 C958 0.930 . S
H949 C959 0.930 . S
C950 H944 0.930 . S
C950 C951 1.355 . S
C950 C952 1.415 . S
C951 C950 1.355 . S
C951 C953 1.419 . S
C952 C950 1.415 . S
C952 C957 1.425 . S
C952 C959 1.409 . S
C953 H945 0.930 . S
C953 C951 1.419 . S
C953 C954 1.362 . S
C954 H946 0.930 . S
C954 C953 1.362 . S
C954 C957 1.409 . S
C955 H947 0.930 . S
C955 C956 1.355 . S
C955 C957 1.415 . S
C956 C955 1.355 . S
C956 C958 1.419 . S
C957 C952 1.425 . S
C957 C954 1.409 . S
C957 C955 1.415 . S
C958 H948 0.930 . S
C958 C956 1.419 . S
C958 C959 1.362 . S
C959 H949 0.930 . S
C959 C952 1.409 . S
C959 C958 1.362 . S
H960 C966 0.930 . S
H961 C969 0.930 . S
H962 C970 0.930 . S
H963 C971 0.930 . S
H964 C974 0.930 . S
H965 C975 0.930 . S
C966 H960 0.930 . S
C966 C967 1.355 . S
C966 C968 1.415 . S
C967 C966 1.355 . S
C967 C969 1.419 . S
C968 C966 1.415 . S
C968 C973 1.425 . S
C968 C975 1.409 . S
C969 H961 0.930 . S
C969 C967 1.419 . S
C969 C970 1.362 . S
C970 H962 0.930 . S
C970 C969 1.362 . S
C970 C973 1.409 . S
C971 H963 0.930 . S
C971 C972 1.355 . S
C971 C973 1.415 . S
C972 C971 1.355 . S
C972 C974 1.419 . S
C973 C968 1.425 . S
C973 C970 1.409 . S
C973 C971 1.415 . S
C974 H964 0.930 . S
C974 C972 1.419 . S
C974 C975 1.362 . S
C975 H965 0.930 . S
C975 C968 1.409 . S
C975 C974 1.362 . S
H976 C982 0.930 . S
H977 C985 0.930 . S
H978 C986 0.930 . S
H979 C987 0.930 . S
H980 C990 0.930 . S
H981 C991 0.930 . S
C982 H976 0.930 . S
C982 C983 1.355 . S
C982 C984 1.415 . S
C983 C982 1.355 . S
C983 C985 1.419 . S
C984 C982 1.415 . S
C984 C989 1.425 1_545 S
C984 C991 1.409 . S
C985 H977 0.930 . S
C985 C983 1.419 . S
C985 C986 1.362 1_545 S
C986 H978 0.930 . S
C986 C985 1.362 1_565 S
C986 C989 1.409 . S
C987 H979 0.930 . S
C987 C988 1.355 . S
C987 C989 1.415 . S
C988 C987 1.355 . S
C988 C990 1.419 . S
C989 C984 1.425 1_565 S
C989 C986 1.409 . S
C989 C987 1.415 . S
C990 H980 0.930 . S
C990 C988 1.419 . S
C990 C991 1.362 1_565 S
C991 H981 0.930 . S
C991 C984 1.409 . S
C991 C990 1.362 1_545 S
H992 C998 0.930 . S
H993 C1001 0.930 . S
H994 C1002 0.930 . S
H995 C1003 0.930 . S
H996 C1006 0.930 . S
H997 C1007 0.930 . S
C998 H992 0.930 . S
C998 C999 1.355 . S
C998 C1000 1.415 . S
C999 C998 1.355 . S
C999 C1001 1.419 . S
C1000 C998 1.415 . S
C1000 C1005 1.425 1_545 S
C1000 C1007 1.409 . S
C1001 H993 0.930 . S
C1001 C999 1.419 . S
C1001 C1002 1.362 1_545 S
C1002 H994 0.930 . S
C1002 C1001 1.362 1_565 S
C1002 C1005 1.409 . S
C1003 H995 0.930 . S
C1003 C1004 1.355 . S
C1003 C1005 1.415 . S
C1004 C1003 1.355 . S
C1004 C1006 1.419 . S
C1005 C1000 1.425 1_565 S
C1005 C1002 1.409 . S
C1005 C1003 1.415 . S
C1006 H996 0.930 . S
C1006 C1004 1.419 . S
C1006 C1007 1.362 1_565 S
C1007 H997 0.930 . S
C1007 C1000 1.409 . S
C1007 C1006 1.362 1_545 S
H1008 C1014 0.930 . S
H1009 C1017 0.930 . S
H1010 C1018 0.930 1_545 S
H1011 C1019 0.930 . S
H1012 C1022 0.930 . S
H1013 C1023 0.930 1_565 S
C1014 H1008 0.930 . S
C1014 C1015 1.355 . S
C1014 C1016 1.415 . S
C1015 C1014 1.355 . S
C1015 C1017 1.419 . S
C1016 C1014 1.415 . S
C1016 C1021 1.425 1_565 S
C1016 C1023 1.409 1_565 S
C1017 H1009 0.930 . S
C1017 C1015 1.419 . S
C1017 C1018 1.362 . S
C1018 H1010 0.930 1_565 S
C1018 C1017 1.362 . S
C1018 C1021 1.409 1_565 S
C1019 H1011 0.930 . S
C1019 C1020 1.355 . S
C1019 C1021 1.415 . S
C1020 C1019 1.355 . S
C1020 C1022 1.419 . S
C1021 C1016 1.425 1_545 S
C1021 C1018 1.409 1_545 S
C1021 C1019 1.415 . S
C1022 H1012 0.930 . S
C1022 C1020 1.419 . S
C1022 C1023 1.362 . S
C1023 H1013 0.930 1_545 S
C1023 C1016 1.409 1_545 S
C1023 C1022 1.362 . S
H1024 C1030 0.930 . S
H1025 C1033 0.930 . S
H1026 C1034 0.930 . S
H1027 C1035 0.930 . S
H1028 C1038 0.930 . S
H1029 C1039 0.930 . S
C1030 H1024 0.930 . S
C1030 C1031 1.355 . S
C1030 C1032 1.415 . S
C1031 C1030 1.355 . S
C1031 C1033 1.419 . S
C1032 C1030 1.415 . S
C1032 C1037 1.425 1_565 S
C1032 C1039 1.409 1_565 S
C1033 H1025 0.930 . S
C1033 C1031 1.419 . S
C1033 C1034 1.362 . S
C1034 H1026 0.930 . S
C1034 C1033 1.362 . S
C1034 C1037 1.409 1_565 S
C1035 H1027 0.930 . S
C1035 C1036 1.355 . S
C1035 C1037 1.415 . S
C1036 C1035 1.355 . S
C1036 C1038 1.419 . S
C1037 C1032 1.425 1_545 S
C1037 C1034 1.409 1_545 S
C1037 C1035 1.415 . S
C1038 H1028 0.930 . S
C1038 C1036 1.419 . S
C1038 C1039 1.362 . S
C1039 H1029 0.930 . S
C1039 C1032 1.409 1_545 S
C1039 C1038 1.362 . S
H1040 C1046 0.930 . S
H1041 C1049 0.930 . S
H1042 C1050 0.930 . S
H1043 C1051 0.930 . S
H1044 C1054 0.930 . S
H1045 C1055 0.930 . S
C1046 H1040 0.930 . S
C1046 C1047 1.355 . S
C1046 C1048 1.415 . S
C1047 C1046 1.355 . S
C1047 C1049 1.419 . S
C1048 C1046 1.415 . S
C1048 C1053 1.425 . S
C1048 C1055 1.409 . S
C1049 H1041 0.930 . S
C1049 C1047 1.419 . S
C1049 C1050 1.362 . S
C1050 H1042 0.930 . S
C1050 C1049 1.362 . S
C1050 C1053 1.409 . S
C1051 H1043 0.930 . S
C1051 C1052 1.355 . S
C1051 C1053 1.415 . S
C1052 C1051 1.355 . S
C1052 C1054 1.419 . S
C1053 C1048 1.425 . S
C1053 C1050 1.409 . S
C1053 C1051 1.415 . S
C1054 H1044 0.930 . S
C1054 C1052 1.419 . S
C1054 C1055 1.362 . S
C1055 H1045 0.930 . S
C1055 C1048 1.409 . S
C1055 C1054 1.362 . S
H1056 C1062 0.930 . S
H1057 C1065 0.930 . S
H1058 C1066 0.930 . S
H1059 C1067 0.930 . S
H1060 C1070 0.930 . S
H1061 C1071 0.930 . S
C1062 H1056 0.930 . S
C1062 C1063 1.355 . S
C1062 C1064 1.415 . S
C1063 C1062 1.355 . S
C1063 C1065 1.419 . S
C1064 C1062 1.415 . S
C1064 C1069 1.425 . S
C1064 C1071 1.409 . S
C1065 H1057 0.930 . S
C1065 C1063 1.419 . S
C1065 C1066 1.362 . S
C1066 H1058 0.930 . S
C1066 C1065 1.362 . S
C1066 C1069 1.409 . S
C1067 H1059 0.930 . S
C1067 C1068 1.355 . S
C1067 C1069 1.415 . S
C1068 C1067 1.355 . S
C1068 C1070 1.419 . S
C1069 C1064 1.425 . S
C1069 C1066 1.409 . S
C1069 C1067 1.415 . S
C1070 H1060 0.930 . S
C1070 C1068 1.419 . S
C1070 C1071 1.362 . S
C1071 H1061 0.930 . S
C1071 C1064 1.409 . S
C1071 C1070 1.362 . S
H1072 C1078 0.930 . S
H1073 C1081 0.930 . S
H1074 C1082 0.930 . S
H1075 C1083 0.930 . S
H1076 C1086 0.930 . S
H1077 C1087 0.930 . S
C1078 H1072 0.930 . S
C1078 C1079 1.355 . S
C1078 C1080 1.415 . S
C1079 C1078 1.355 . S
C1079 C1081 1.419 . S
C1080 C1078 1.415 . S
C1080 C1085 1.425 . S
C1080 C1087 1.409 . S
C1081 H1073 0.930 . S
C1081 C1079 1.419 . S
C1081 C1082 1.362 . S
C1082 H1074 0.930 . S
C1082 C1081 1.362 . S
C1082 C1085 1.409 . S
C1083 H1075 0.930 . S
C1083 C1084 1.355 . S
C1083 C1085 1.415 . S
C1084 C1083 1.355 . S
C1084 C1086 1.419 . S
C1085 C1080 1.425 . S
C1085 C1082 1.409 . S
C1085 C1083 1.415 . S
C1086 H1076 0.930 . S
C1086 C1084 1.419 . S
C1086 C1087 1.362 . S
C1087 H1077 0.930 . S
C1087 C1080 1.409 . S
C1087 C1086 1.362 . S
H1088 C1094 0.930 . S
H1089 C1097 0.930 . S
H1090 C1098 0.930 . S
H1091 C1099 0.930 . S
H1092 C1102 0.930 . S
H1093 C1103 0.930 . S
C1094 H1088 0.930 . S
C1094 C1095 1.355 . S
C1094 C1096 1.415 . S
C1095 C1094 1.355 . S
C1095 C1097 1.419 . S
C1096 C1094 1.415 . S
C1096 C1101 1.425 . S
C1096 C1103 1.409 . S
C1097 H1089 0.930 . S
C1097 C1095 1.419 . S
C1097 C1098 1.362 . S
C1098 H1090 0.930 . S
C1098 C1097 1.362 . S
C1098 C1101 1.409 . S
C1099 H1091 0.930 . S
C1099 C1100 1.355 . S
C1099 C1101 1.415 . S
C1100 C1099 1.355 . S
C1100 C1102 1.419 . S
C1101 C1096 1.425 . S
C1101 C1098 1.409 . S
C1101 C1099 1.415 . S
C1102 H1092 0.930 . S
C1102 C1100 1.419 . S
C1102 C1103 1.362 . S
C1103 H1093 0.930 . S
C1103 C1096 1.409 . S
C1103 C1102 1.362 . S
H1104 C1110 0.930 . S
H1105 C1113 0.930 . S
H1106 C1114 0.930 . S
H1107 C1115 0.930 . S
H1108 C1118 0.930 . S
H1109 C1119 0.930 . S
C1110 H1104 0.930 . S
C1110 C1111 1.364 . S
C1110 C1112 1.415 . S
C1111 C1110 1.364 . S
C1111 C1113 1.406 1_455 S
C1112 C1110 1.415 . S
C1112 C1117 1.425 1_455 S
C1112 C1119 1.409 . S
C1113 H1105 0.930 . S
C1113 C1111 1.406 1_655 S
C1113 C1114 1.362 . S
C1114 H1106 0.930 . S
C1114 C1113 1.362 . S
C1114 C1117 1.409 . S
C1115 H1107 0.930 . S
C1115 C1116 1.364 . S
C1115 C1117 1.415 . S
C1116 C1115 1.364 . S
C1116 C1118 1.406 1_655 S
C1117 C1112 1.425 1_655 S
C1117 C1114 1.409 . S
C1117 C1115 1.415 . S
C1118 H1108 0.930 . S
C1118 C1116 1.406 1_455 S
C1118 C1119 1.362 . S
C1119 H1109 0.930 . S
C1119 C1112 1.409 . S
C1119 C1118 1.362 . S
H1120 C1126 0.930 . S
H1121 C1129 0.930 . S
H1122 C1130 0.930 . S
H1123 C1131 0.930 . S
H1124 C1134 0.930 . S
H1125 C1135 0.930 . S
C1126 H1120 0.930 . S
C1126 C1127 1.355 . S
C1126 C1128 1.415 . S
C1127 C1126 1.355 . S
C1127 C1129 1.419 . S
C1128 C1126 1.415 . S
C1128 C1133 1.425 . S
C1128 C1135 1.409 . S
C1129 H1121 0.930 . S
C1129 C1127 1.419 . S
C1129 C1130 1.362 . S
C1130 H1122 0.930 . S
C1130 C1129 1.362 . S
C1130 C1133 1.409 . S
C1131 H1123 0.930 . S
C1131 C1132 1.355 . S
C1131 C1133 1.415 . S
C1132 C1131 1.355 . S
C1132 C1134 1.419 . S
C1133 C1128 1.425 . S
C1133 C1130 1.409 . S
C1133 C1131 1.415 . S
C1134 H1124 0.930 . S
C1134 C1132 1.419 . S
C1134 C1135 1.362 . S
C1135 H1125 0.930 . S
C1135 C1128 1.409 . S
C1135 C1134 1.362 . S
H1136 C1142 0.930 . S
H1137 C1145 0.930 . S
H1138 C1146 0.930 . S
H1139 C1147 0.930 . S
H1140 C1150 0.930 . S
H1141 C1151 0.930 . S
C1142 H1136 0.930 . S
C1142 C1143 1.355 . S
C1142 C1144 1.415 . S
C1143 C1142 1.355 . S
C1143 C1145 1.419 . S
C1144 C1142 1.415 . S
C1144 C1149 1.425 . S
C1144 C1151 1.409 . S
C1145 H1137 0.930 . S
C1145 C1143 1.419 . S
C1145 C1146 1.362 . S
C1146 H1138 0.930 . S
C1146 C1145 1.362 . S
C1146 C1149 1.409 . S
C1147 H1139 0.930 . S
C1147 C1148 1.355 . S
C1147 C1149 1.415 . S
C1148 C1147 1.355 . S
C1148 C1150 1.419 . S
C1149 C1144 1.425 . S
C1149 C1146 1.409 . S
C1149 C1147 1.415 . S
C1150 H1140 0.930 . S
C1150 C1148 1.419 . S
C1150 C1151 1.362 . S
C1151 H1141 0.930 . S
C1151 C1144 1.409 . S
C1151 C1150 1.362 . S
H1152 C1158 0.930 . S
H1153 C1161 0.930 . S
H1154 C1162 0.930 . S
H1155 C1163 0.930 . S
H1156 C1166 0.930 . S
H1157 C1167 0.930 . S
C1158 H1152 0.930 . S
C1158 C1159 1.355 1_655 S
C1158 C1160 1.415 . S
C1159 C1158 1.355 1_455 S
C1159 C1161 1.419 . S
C1160 C1158 1.415 . S
C1160 C1165 1.425 1_655 S
C1160 C1167 1.409 . S
C1161 H1153 0.930 . S
C1161 C1159 1.419 . S
C1161 C1162 1.362 . S
C1162 H1154 0.930 . S
C1162 C1161 1.362 . S
C1162 C1165 1.409 . S
C1163 H1155 0.930 . S
C1163 C1164 1.355 1_455 S
C1163 C1165 1.415 . S
C1164 C1163 1.355 1_655 S
C1164 C1166 1.419 . S
C1165 C1160 1.425 1_455 S
C1165 C1162 1.409 . S
C1165 C1163 1.415 . S
C1166 H1156 0.930 . S
C1166 C1164 1.419 . S
C1166 C1167 1.362 . S
C1167 H1157 0.930 . S
C1167 C1160 1.409 . S
C1167 C1166 1.362 . S
H1168 C1174 0.930 . S
H1169 C1177 0.930 . S
H1170 C1178 0.930 . S
H1171 C1179 0.930 . S
H1172 C1182 0.930 . S
H1173 C1183 0.930 . S
C1174 H1168 0.930 . S
C1174 C1175 1.355 . S
C1174 C1176 1.415 . S
C1175 C1174 1.355 . S
C1175 C1177 1.419 1_655 S
C1176 C1174 1.415 . S
C1176 C1181 1.425 1_655 S
C1176 C1183 1.409 . S
C1177 H1169 0.930 . S
C1177 C1175 1.419 1_455 S
C1177 C1178 1.362 . S
C1178 H1170 0.930 . S
C1178 C1177 1.362 . S
C1178 C1181 1.409 . S
C1179 H1171 0.930 . S
C1179 C1180 1.355 . S
C1179 C1181 1.415 . S
C1180 C1179 1.355 . S
C1180 C1182 1.419 1_455 S
C1181 C1176 1.425 1_455 S
C1181 C1178 1.409 . S
C1181 C1179 1.415 . S
C1182 H1172 0.930 . S
C1182 C1180 1.419 1_655 S
C1182 C1183 1.362 . S
C1183 H1173 0.930 . S
C1183 C1176 1.409 . S
C1183 C1182 1.362 . S
H1184 C1190 0.930 . S
H1185 C1193 0.930 . S
H1186 C1194 0.930 . S
H1187 C1195 0.930 . S
H1188 C1198 0.930 . S
H1189 C1199 0.930 . S
C1190 H1184 0.930 . S
C1190 C1191 1.355 . S
C1190 C1192 1.415 . S
C1191 C1190 1.355 . S
C1191 C1193 1.419 . S
C1192 C1190 1.415 . S
C1192 C1197 1.425 . S
C1192 C1199 1.409 . S
C1193 H1185 0.930 . S
C1193 C1191 1.419 . S
C1193 C1194 1.362 . S
C1194 H1186 0.930 . S
C1194 C1193 1.362 . S
C1194 C1197 1.409 . S
C1195 H1187 0.930 . S
C1195 C1196 1.355 . S
C1195 C1197 1.415 . S
C1196 C1195 1.355 . S
C1196 C1198 1.419 . S
C1197 C1192 1.425 . S
C1197 C1194 1.409 . S
C1197 C1195 1.415 . S
C1198 H1188 0.930 . S
C1198 C1196 1.419 . S
C1198 C1199 1.362 . S
C1199 H1189 0.930 . S
C1199 C1192 1.409 . S
C1199 C1198 1.362 . S
H1200 C1206 0.930 . S
H1201 C1209 0.930 . S
H1202 C1210 0.930 . S
H1203 C1211 0.930 . S
H1204 C1214 0.930 . S
H1205 C1215 0.930 . S
C1206 H1200 0.930 . S
C1206 C1207 1.355 . S
C1206 C1208 1.415 . S
C1207 C1206 1.355 . S
C1207 C1209 1.419 . S
C1208 C1206 1.415 . S
C1208 C1213 1.425 . S
C1208 C1215 1.409 . S
C1209 H1201 0.930 . S
C1209 C1207 1.419 . S
C1209 C1210 1.362 . S
C1210 H1202 0.930 . S
C1210 C1209 1.362 . S
C1210 C1213 1.409 . S
C1211 H1203 0.930 . S
C1211 C1212 1.355 . S
C1211 C1213 1.415 . S
C1212 C1211 1.355 . S
C1212 C1214 1.419 . S
C1213 C1208 1.425 . S
C1213 C1210 1.409 . S
C1213 C1211 1.415 . S
C1214 H1204 0.930 . S
C1214 C1212 1.419 . S
C1214 C1215 1.362 . S
C1215 H1205 0.930 . S
C1215 C1208 1.409 . S
C1215 C1214 1.362 . S
H1216 C1222 0.930 . S
H1217 C1225 0.930 . S
H1218 C1226 0.930 . S
H1219 C1227 0.930 . S
H1220 C1230 0.930 . S
H1221 C1231 0.930 . S
C1222 H1216 0.930 . S
C1222 C1223 1.351 1_655 S
C1222 C1224 1.415 . S
C1223 C1222 1.351 1_455 S
C1223 C1225 1.424 . S
C1224 C1222 1.415 . S
C1224 C1229 1.425 1_655 S
C1224 C1231 1.409 . S
C1225 H1217 0.930 . S
C1225 C1223 1.424 . S
C1225 C1226 1.362 . S
C1226 H1218 0.930 . S
C1226 C1225 1.362 . S
C1226 C1229 1.409 . S
C1227 H1219 0.930 . S
C1227 C1228 1.351 1_455 S
C1227 C1229 1.415 . S
C1228 C1227 1.351 1_655 S
C1228 C1230 1.424 . S
C1229 C1224 1.425 1_455 S
C1229 C1226 1.409 . S
C1229 C1227 1.415 . S
C1230 H1220 0.930 . S
C1230 C1228 1.424 . S
C1230 C1231 1.362 . S
C1231 H1221 0.930 . S
C1231 C1224 1.409 . S
C1231 C1230 1.362 . S
H1232 C1238 0.930 . S
H1233 C1241 0.930 . S
H1234 C1242 0.930 . S
H1235 C1243 0.930 . S
H1236 C1246 0.930 . S
H1237 C1247 0.930 . S
C1238 H1232 0.930 . S
C1238 C1239 1.355 . S
C1238 C1240 1.415 . S
C1239 C1238 1.355 . S
C1239 C1241 1.419 1_455 S
C1240 C1238 1.415 . S
C1240 C1245 1.425 1_455 S
C1240 C1247 1.409 . S
C1241 H1233 0.930 . S
C1241 C1239 1.419 1_655 S
C1241 C1242 1.362 . S
C1242 H1234 0.930 . S
C1242 C1241 1.362 . S
C1242 C1245 1.409 . S
C1243 H1235 0.930 . S
C1243 C1244 1.355 . S
C1243 C1245 1.415 . S
C1244 C1243 1.355 . S
C1244 C1246 1.419 1_655 S
C1245 C1240 1.425 1_655 S
C1245 C1242 1.409 . S
C1245 C1243 1.415 . S
C1246 H1236 0.930 . S
C1246 C1244 1.419 1_455 S
C1246 C1247 1.362 . S
C1247 H1237 0.930 . S
C1247 C1240 1.409 . S
C1247 C1246 1.362 . S
H1248 C1254 0.930 . S
H1249 C1257 0.930 . S
H1250 C1258 0.930 . S
H1251 C1259 0.930 . S
H1252 C1262 0.930 . S
H1253 C1263 0.930 . S
C1254 H1248 0.930 . S
C1254 C1255 1.355 . S
C1254 C1256 1.415 . S
C1255 C1254 1.355 . S
C1255 C1257 1.419 . S
C1256 C1254 1.415 . S
C1256 C1261 1.425 . S
C1256 C1263 1.409 . S
C1257 H1249 0.930 . S
C1257 C1255 1.419 . S
C1257 C1258 1.362 . S
C1258 H1250 0.930 . S
C1258 C1257 1.362 . S
C1258 C1261 1.409 . S
C1259 H1251 0.930 . S
C1259 C1260 1.355 . S
C1259 C1261 1.415 . S
C1260 C1259 1.355 . S
C1260 C1262 1.419 . S
C1261 C1256 1.425 . S
C1261 C1258 1.409 . S
C1261 C1259 1.415 . S
C1262 H1252 0.930 . S
C1262 C1260 1.419 . S
C1262 C1263 1.362 . S
C1263 H1253 0.930 . S
C1263 C1256 1.409 . S
C1263 C1262 1.362 . S
H1264 C1270 0.930 . S
H1265 C1273 0.930 . S
H1266 C1274 0.930 . S
H1267 C1275 0.930 . S
H1268 C1278 0.930 . S
H1269 C1279 0.930 . S
C1270 H1264 0.930 . S
C1270 C1271 1.355 . S
C1270 C1272 1.415 . S
C1271 C1270 1.355 . S
C1271 C1273 1.419 1_655 S
C1272 C1270 1.415 . S
C1272 C1277 1.425 1_655 S
C1272 C1279 1.409 . S
C1273 H1265 0.930 . S
C1273 C1271 1.419 1_455 S
C1273 C1274 1.362 . S
C1274 H1266 0.930 . S
C1274 C1273 1.362 . S
C1274 C1277 1.409 . S
C1275 H1267 0.930 . S
C1275 C1276 1.355 . S
C1275 C1277 1.415 . S
C1276 C1275 1.355 . S
C1276 C1278 1.419 1_455 S
C1277 C1272 1.425 1_455 S
C1277 C1274 1.409 . S
C1277 C1275 1.415 . S
C1278 H1268 0.930 . S
C1278 C1276 1.419 1_655 S
C1278 C1279 1.362 . S
C1279 H1269 0.930 . S
C1279 C1272 1.409 . S
C1279 C1278 1.362 . S
H1280 C1286 0.930 . S
H1281 C1289 0.930 . S
H1282 C1290 0.930 . S
H1283 C1291 0.930 . S
H1284 C1294 0.930 . S
H1285 C1295 0.930 . S
C1286 H1280 0.930 . S
C1286 C1287 1.355 . S
C1286 C1288 1.415 . S
C1287 C1286 1.355 . S
C1287 C1289 1.419 . S
C1288 C1286 1.415 . S
C1288 C1293 1.425 . S
C1288 C1295 1.409 . S
C1289 H1281 0.930 . S
C1289 C1287 1.419 . S
C1289 C1290 1.362 . S
C1290 H1282 0.930 . S
C1290 C1289 1.362 . S
C1290 C1293 1.409 . S
C1291 H1283 0.930 . S
C1291 C1292 1.355 . S
C1291 C1293 1.415 . S
C1292 C1291 1.355 . S
C1292 C1294 1.419 . S
C1293 C1288 1.425 . S
C1293 C1290 1.409 . S
C1293 C1291 1.415 . S
C1294 H1284 0.930 . S
C1294 C1292 1.419 . S
C1294 C1295 1.362 . S
C1295 H1285 0.930 . S
C1295 C1288 1.409 . S
C1295 C1294 1.362 . S
H1296 C1302 0.930 . S
H1297 C1305 0.930 . S
H1298 C1306 0.930 . S
H1299 C1307 0.930 . S
H1300 C1310 0.930 . S
H1301 C1311 0.930 . S
C1302 H1296 0.930 . S
C1302 C1303 1.355 . S
C1302 C1304 1.415 . S
C1303 C1302 1.355 . S
C1303 C1305 1.419 . S
C1304 C1302 1.415 . S
C1304 C1309 1.425 . S
C1304 C1311 1.409 . S
C1305 H1297 0.930 . S
C1305 C1303 1.419 . S
C1305 C1306 1.362 . S
C1306 H1298 0.930 . S
C1306 C1305 1.362 . S
C1306 C1309 1.409 . S
C1307 H1299 0.930 . S
C1307 C1308 1.355 . S
C1307 C1309 1.415 . S
C1308 C1307 1.355 . S
C1308 C1310 1.419 . S
C1309 C1304 1.425 . S
C1309 C1306 1.409 . S
C1309 C1307 1.415 . S
C1310 H1300 0.930 . S
C1310 C1308 1.419 . S
C1310 C1311 1.362 . S
C1311 H1301 0.930 . S
C1311 C1304 1.409 . S
C1311 C1310 1.362 . S
H1312 C1318 0.930 . S
H1313 C1321 0.930 . S
H1314 C1322 0.930 . S
H1315 C1323 0.930 . S
H1316 C1326 0.930 . S
H1317 C1327 0.930 . S
C1318 H1312 0.930 . S
C1318 C1319 1.355 1_655 S
C1318 C1320 1.415 . S
C1319 C1318 1.355 1_455 S
C1319 C1321 1.419 . S
C1320 C1318 1.415 . S
C1320 C1325 1.425 1_655 S
C1320 C1327 1.409 . S
C1321 H1313 0.930 . S
C1321 C1319 1.419 . S
C1321 C1322 1.362 . S
C1322 H1314 0.930 . S
C1322 C1321 1.362 . S
C1322 C1325 1.409 . S
C1323 H1315 0.930 . S
C1323 C1324 1.355 1_455 S
C1323 C1325 1.415 . S
C1324 C1323 1.355 1_655 S
C1324 C1326 1.419 . S
C1325 C1320 1.425 1_455 S
C1325 C1322 1.409 . S
C1325 C1323 1.415 . S
C1326 H1316 0.930 . S
C1326 C1324 1.419 . S
C1326 C1327 1.362 . S
C1327 H1317 0.930 . S
C1327 C1320 1.409 . S
C1327 C1326 1.362 . S
H1328 C1334 0.930 . S
H1329 C1337 0.930 . S
H1330 C1338 0.930 . S
H1331 C1339 0.930 . S
H1332 C1342 0.930 . S
H1333 C1343 0.930 . S
C1334 H1328 0.930 . S
C1334 C1335 1.355 . S
C1334 C1336 1.415 . S
C1335 C1334 1.355 . S
C1335 C1337 1.419 . S
C1336 C1334 1.415 . S
C1336 C1341 1.425 . S
C1336 C1343 1.409 . S
C1337 H1329 0.930 . S
C1337 C1335 1.419 . S
C1337 C1338 1.362 . S
C1338 H1330 0.930 . S
C1338 C1337 1.362 . S
C1338 C1341 1.409 . S
C1339 H1331 0.930 . S
C1339 C1340 1.355 . S
C1339 C1341 1.415 . S
C1340 C1339 1.355 . S
C1340 C1342 1.419 . S
C1341 C1336 1.425 . S
C1341 C1338 1.409 . S
C1341 C1339 1.415 . S
C1342 H1332 0.930 . S
C1342 C1340 1.419 . S
C1342 C1343 1.362 . S
C1343 H1333 0.930 . S
C1343 C1336 1.409 . S
C1343 C1342 1.362 . S
H1344 C1350 0.930 . S
H1345 C1353 0.930 . S
H1346 C1354 0.930 . S
H1347 C1355 0.930 . S
H1348 C1358 0.930 . S
H1349 C1359 0.930 . S
C1350 H1344 0.930 . S
C1350 C1351 1.355 1_655 S
C1350 C1352 1.415 . S
C1351 C1350 1.355 1_455 S
C1351 C1353 1.419 . S
C1352 C1350 1.415 . S
C1352 C1357 1.425 1_655 S
C1352 C1359 1.409 . S
C1353 H1345 0.930 . S
C1353 C1351 1.419 . S
C1353 C1354 1.362 . S
C1354 H1346 0.930 . S
C1354 C1353 1.362 . S
C1354 C1357 1.409 . S
C1355 H1347 0.930 . S
C1355 C1356 1.355 1_455 S
C1355 C1357 1.415 . S
C1356 C1355 1.355 1_655 S
C1356 C1358 1.419 . S
C1357 C1352 1.425 1_455 S
C1357 C1354 1.409 . S
C1357 C1355 1.415 . S
C1358 H1348 0.930 . S
C1358 C1356 1.419 . S
C1358 C1359 1.362 . S
C1359 H1349 0.930 . S
C1359 C1352 1.409 . S
C1359 C1358 1.362 . S
C471 C15 2.040 . S
C476 C21 1.951 . S
C487 C50 1.877 . S
C492 C44 2.056 . S
C503 C79 1.880 . S
C508 C73 2.052 . S
C519 C108 1.947 . S
C524 C102 2.038 . S
C535 C131 2.054 . S
C540 C137 1.879 . S
C551 C160 2.048 . S
C556 C166 1.957 . S
C567 C189 2.066 . S
C572 C195 1.878 . S
C583 C224 1.889 . S
C588 C218 2.072 . S
C599 C253 1.876 . S
C604 C247 2.059 . S
C615 C276 2.043 . S
C620 C282 1.955 . S
C631 C305 2.073 . S
C636 C311 1.893 . S
C647 C340 1.957 . S
C652 C334 2.048 . S
C663 C369 1.910 . S
C668 C363 2.074 . S
C679 C398 1.879 . S
C684 C392 2.067 . S
C695 C427 1.924 . S
C700 C421 2.035 . S
C711 C450 2.056 . S
C716 C456 1.877 . S
C727 C3 1.105 . S
C732 C158 1.083 . S
C743 C32 1.066 . S
C748 C129 1.123 . S
C759 C61 1.153 . S
C764 C216 1.105 . S
C775 C90 1.075 . S
C780 C187 1.158 . S
C791 C119 1.061 . S
C796 C42 1.139 . S
C807 C148 1.129 . S
C812 C13 1.073 . S
C823 C100 1.158 . S
C828 C177 1.082 . S
C839 C71 1.081 . S
C844 C206 1.153 . S
C855 C235 1.064 . S
C860 C390 1.150 . S
C871 C361 1.074 . S
C876 C264 1.123 . S
C887 C293 1.078 . S
C892 C448 1.106 . S
C903 C419 1.101 . S
C908 C322 1.082 . S
C919 C274 1.149 . S
C924 C351 1.113 . S
C935 C380 1.063 . S
C940 C245 1.130 . S
C951 C409 1.084 . S
C956 C332 1.099 . S
C967 C438 1.084 . S
C972 C303 1.158 . S
C983 C5 1.356 . S
C988 C34 1.322 . S
C999 C92 1.365 . S
C1004 C63 1.309 . S
C1015 C121 1.363 . S
C1020 C150 1.313 . S
C1031 C208 1.306 . S
C1036 C179 1.357 . S
C1047 C266 1.323 . S
C1052 C237 1.336 . S
C1063 C295 1.313 . S
C1068 C324 1.347 . S
C1079 C353 1.306 . S
C1084 C382 1.365 . S
C1095 C411 1.336 . S
C1100 C440 1.323 . S
C1111 C10 1.624 . S
C1116 C271 1.595 . S
C1127 C39 1.610 . S
C1132 C242 1.560 . S
C1143 C329 1.589 . S
C1148 C68 1.542 . S
C1159 C300 1.547 . S
C1164 C97 1.598 . S
C1175 C126 1.560 . S
C1180 C387 1.610 . S
C1191 C155 1.567 . S
C1196 C358 1.538 . S
C1207 C184 1.560 . S
C1212 C445 1.610 . S
C1223 C416 1.610 1_455 S
C1228 C213 1.606 1_655 S
C1239 C95 1.374 . S
C1244 C8 1.330 . S
C1255 C37 1.394 . S
C1260 C66 1.418 . S
C1271 C211 1.344 . S
C1276 C124 1.309 . S
C1287 C153 1.391 . S
C1292 C182 1.417 . S
C1303 C240 1.372 . S
C1308 C327 1.328 . S
C1319 C269 1.353 . S
C1324 C298 1.397 . S
C1335 C443 1.394 . S
C1340 C356 1.350 . S
C1351 C414 1.397 . S
C1356 C385 1.353 . S
