# Generated by pormake.
# Topology ghw, (5)-cn, num edge types: 1
# Building blocks:
#     Node 0, Type 0, BuildingBlock: XOMCOT_clean_sbu_0, # of connection points: 5
#     Node 1, Type 0, BuildingBlock: XOMCOT_clean_sbu_0, # of connection points: 5
#     Node 2, Type 0, BuildingBlock: XOMCOT_clean_sbu_0, # of connection points: 5
#     Node 3, Type 0, BuildingBlock: XOMCOT_clean_sbu_0, # of connection points: 5
#     Node 4, Type 0, BuildingBlock: XOMCOT_clean_sbu_0, # of connection points: 5
#     Node 5, Type 0, BuildingBlock: XOMCOT_clean_sbu_0, # of connection points: 5
#     Node 6, Type 0, BuildingBlock: XOMCOT_clean_sbu_0, # of connection points: 5
#     Node 7, Type 0, BuildingBlock: XOMCOT_clean_sbu_0, # of connection points: 5
#     Node 8, Type 0, BuildingBlock: XOMCOT_clean_sbu_0, # of connection points: 5
#     Node 9, Type 0, BuildingBlock: XOMCOT_clean_sbu_0, # of connection points: 5
#     Node 10, Type 0, BuildingBlock: XOMCOT_clean_sbu_0, # of connection points: 5
#     Node 11, Type 0, BuildingBlock: XOMCOT_clean_sbu_0, # of connection points: 5
#     Node 12, Type 0, BuildingBlock: XOMCOT_clean_sbu_0, # of connection points: 5
#     Node 13, Type 0, BuildingBlock: XOMCOT_clean_sbu_0, # of connection points: 5
#     Node 14, Type 0, BuildingBlock: XOMCOT_clean_sbu_0, # of connection points: 5
#     Node 15, Type 0, BuildingBlock: XOMCOT_clean_sbu_0, # of connection points: 5
#     Edge 16, Type (0, 0), BuildingBlock: AJUNOK_clean_linker_0, # of connection points: 2
#     Edge 17, Type (0, 0), BuildingBlock: AJUNOK_clean_linker_0, # of connection points: 2
#     Edge 18, Type (0, 0), BuildingBlock: AJUNOK_clean_linker_0, # of connection points: 2
#     Edge 19, Type (0, 0), BuildingBlock: AJUNOK_clean_linker_0, # of connection points: 2
#     Edge 20, Type (0, 0), BuildingBlock: AJUNOK_clean_linker_0, # of connection points: 2
#     Edge 21, Type (0, 0), BuildingBlock: AJUNOK_clean_linker_0, # of connection points: 2
#     Edge 22, Type (0, 0), BuildingBlock: AJUNOK_clean_linker_0, # of connection points: 2
#     Edge 23, Type (0, 0), BuildingBlock: AJUNOK_clean_linker_0, # of connection points: 2
#     Edge 24, Type (0, 0), BuildingBlock: AJUNOK_clean_linker_0, # of connection points: 2
#     Edge 25, Type (0, 0), BuildingBlock: AJUNOK_clean_linker_0, # of connection points: 2
#     Edge 26, Type (0, 0), BuildingBlock: AJUNOK_clean_linker_0, # of connection points: 2
#     Edge 27, Type (0, 0), BuildingBlock: AJUNOK_clean_linker_0, # of connection points: 2
#     Edge 28, Type (0, 0), BuildingBlock: AJUNOK_clean_linker_0, # of connection points: 2
#     Edge 29, Type (0, 0), BuildingBlock: AJUNOK_clean_linker_0, # of connection points: 2
#     Edge 30, Type (0, 0), BuildingBlock: AJUNOK_clean_linker_0, # of connection points: 2
#     Edge 31, Type (0, 0), BuildingBlock: AJUNOK_clean_linker_0, # of connection points: 2
#     Edge 32, Type (0, 0), BuildingBlock: AJUNOK_clean_linker_0, # of connection points: 2
#     Edge 33, Type (0, 0), BuildingBlock: AJUNOK_clean_linker_0, # of connection points: 2
#     Edge 34, Type (0, 0), BuildingBlock: AJUNOK_clean_linker_0, # of connection points: 2
#     Edge 35, Type (0, 0), BuildingBlock: AJUNOK_clean_linker_0, # of connection points: 2
#     Edge 36, Type (0, 0), BuildingBlock: AJUNOK_clean_linker_0, # of connection points: 2
#     Edge 37, Type (0, 0), BuildingBlock: AJUNOK_clean_linker_0, # of connection points: 2
#     Edge 38, Type (0, 0), BuildingBlock: AJUNOK_clean_linker_0, # of connection points: 2
#     Edge 39, Type (0, 0), BuildingBlock: AJUNOK_clean_linker_0, # of connection points: 2
#     Edge 40, Type (0, 0), BuildingBlock: AJUNOK_clean_linker_0, # of connection points: 2
#     Edge 41, Type (0, 0), BuildingBlock: AJUNOK_clean_linker_0, # of connection points: 2
#     Edge 42, Type (0, 0), BuildingBlock: AJUNOK_clean_linker_0, # of connection points: 2
#     Edge 43, Type (0, 0), BuildingBlock: AJUNOK_clean_linker_0, # of connection points: 2
#     Edge 44, Type (0, 0), BuildingBlock: AJUNOK_clean_linker_0, # of connection points: 2
#     Edge 45, Type (0, 0), BuildingBlock: AJUNOK_clean_linker_0, # of connection points: 2
#     Edge 46, Type (0, 0), BuildingBlock: AJUNOK_clean_linker_0, # of connection points: 2
#     Edge 47, Type (0, 0), BuildingBlock: AJUNOK_clean_linker_0, # of connection points: 2
#     Edge 48, Type (0, 0), BuildingBlock: AJUNOK_clean_linker_0, # of connection points: 2
#     Edge 49, Type (0, 0), BuildingBlock: AJUNOK_clean_linker_0, # of connection points: 2
#     Edge 50, Type (0, 0), BuildingBlock: AJUNOK_clean_linker_0, # of connection points: 2
#     Edge 51, Type (0, 0), BuildingBlock: AJUNOK_clean_linker_0, # of connection points: 2
#     Edge 52, Type (0, 0), BuildingBlock: AJUNOK_clean_linker_0, # of connection points: 2
#     Edge 53, Type (0, 0), BuildingBlock: AJUNOK_clean_linker_0, # of connection points: 2
#     Edge 54, Type (0, 0), BuildingBlock: AJUNOK_clean_linker_0, # of connection points: 2
#     Edge 55, Type (0, 0), BuildingBlock: AJUNOK_clean_linker_0, # of connection points: 2
# Relax obj value: 0.182
# Max RMSD: 0.214
# Mean RMSD: 0.214
data_MOF--net-ghw--node1-XOMCOT_clean_sbu_0--edge1-AJUNOK_clean_linker_0
_symmetry_space_group_name_H-M    P1
_symmetry_Int_Tables_number       1
_symmetry_cell_setting            triclinic
loop_
_symmetry_equiv_pos_as_xyz
'x, y, z'
_cell_length_a     25.363138
_cell_length_b     29.091461
_cell_length_c     26.611964
_cell_angle_alpha  90.088374
_cell_angle_beta   90.672841
_cell_angle_gamma 89.873326
loop_
_atom_site_label
_atom_site_type_symbol
_atom_site_fract_x
_atom_site_fract_y
_atom_site_fract_z
_atom_type_partial_charge
Co0 Co 0.14195 0.15247 0.42934 0.0
C1 C 0.24623 0.10746 0.41627 0.0
C2 C 0.21051 0.08675 0.48501 0.0
C3 C 0.25905 0.06553 0.48144 0.0
N4 N 0.20185 0.11221 0.44341 0.0
N5 N 0.28164 0.07885 0.43814 0.0
H6 H 0.2543 0.12653 0.38262 0.0
H7 H 0.18364 0.08411 0.51612 0.0
C8 C 0.09249 0.06176 0.45788 0.0
O9 O 0.12653 0.03916 0.4303 0.0
N10 N 0.08249 0.19279 0.41449 0.0
C11 C 0.0827 0.2275 0.38092 0.0
C12 C 0.03152 0.24147 0.37164 0.0
C13 C 0.03096 0.1863 0.4253 0.0
N14 N 0.9991 0.21533 0.39931 0.0
C15 C 0.17211 0.14694 0.3267 0.0
C16 C 0.09575 0.08658 0.29298 0.0
C17 C 0.13434 0.10157 0.25938 0.0
C18 C 0.17201 0.13295 0.27676 0.0
C19 C 0.09734 0.10155 0.34321 0.0
N20 N 0.13695 0.12966 0.3602 0.0
H21 H 0.20064 0.17239 0.338 0.0
H22 H 0.06585 0.09142 0.36762 0.0
H23 H 0.11738 0.24002 0.3621 0.0
H24 H 0.01647 0.15917 0.44917 0.0
O25 O 0.191 0.20277 0.41979 0.0
O26 O 0.15579 0.18408 0.49229 0.0
O27 O 0.0919 0.10561 0.45769 0.0
C28 C 0.18828 0.21007 0.46785 0.0
H29 H 0.27607 0.04237 0.5089 0.0
H30 H 0.01897 0.26781 0.34538 0.0
H31 H 0.06429 0.0641 0.28041 0.0
H32 H 0.20038 0.14797 0.25151 0.0
Co33 Co 0.13596 0.14432 0.87235 0.0
C34 C 0.03496 0.0978 0.88719 0.0
C35 C 0.06528 0.08374 0.81404 0.0
C36 C 0.01578 0.0649 0.81719 0.0
N37 N 0.07794 0.10309 0.85852 0.0
N38 N 0.99598 0.07455 0.86303 0.0
H39 H 0.03107 0.11381 0.92365 0.0
H40 H 0.08987 0.0843 0.7811 0.0
C41 C 0.18862 0.05612 0.83392 0.0
O42 O 0.14848 0.03024 0.84634 0.0
N43 N 0.19368 0.18643 0.88657 0.0
C44 C 0.19205 0.23229 0.89412 0.0
C45 C 0.24243 0.24768 0.90462 0.0
C46 C 0.24481 0.17471 0.89323 0.0
N47 N 0.27553 0.21131 0.90428 0.0
C48 C 0.12427 0.15505 0.9771 0.0
C49 C 0.15335 0.06786 1.0078 0.0
C50 C 0.13536 0.09944 0.04356 0.0
C51 C 0.12116 0.14355 0.0277 0.0
C52 C 0.15525 0.08066 0.95701 0.0
N53 N 0.13996 0.12368 0.94205 0.0
H54 H 0.11376 0.18957 0.96612 0.0
H55 H 0.16904 0.05581 0.93052 0.0
H56 H 0.15694 0.25337 0.89241 0.0
H57 H 0.25948 0.14009 0.8892 0.0
O58 O 0.0842 0.19279 0.88038 0.0
O59 O 0.12215 0.17422 0.80879 0.0
O60 O 0.18984 0.09862 0.84624 0.0
C61 C 0.08784 0.19941 0.83227 0.0
H62 H 0.99648 0.04606 0.7873 0.0
H63 H 0.25376 0.28291 0.9121 0.0
H64 H 0.16537 0.03358 1.01894 0.0
H65 H 0.10841 0.16931 0.05443 0.0
Co66 Co 0.88998 0.88324 0.62328 0.0
C67 C 0.77949 0.91694 0.61829 0.0
C68 C 0.83026 0.96595 0.58406 0.0
C69 C 0.77951 0.98341 0.58387 0.0
N70 N 0.83074 0.9247 0.60749 0.0
N71 N 0.74808 0.95247 0.60589 0.0
H72 H 0.76517 0.88675 0.63744 0.0
H73 H 0.86384 0.983 0.56827 0.0
C74 C 0.95805 0.96752 0.60219 0.0
O75 O 0.93979 0.99015 0.64107 0.0
N76 N 0.94784 0.84114 0.63774 0.0
C77 C 0.94813 0.80762 0.67267 0.0
C78 C 0.99874 0.7907 0.67781 0.0
C79 C 0.99812 0.8437 0.62174 0.0
N80 N 0.03014 0.81361 0.64588 0.0
C81 C 0.853 0.91445 0.71948 0.0
C82 C 0.94992 0.91866 0.76714 0.0
C83 C 0.90414 0.92268 0.79627 0.0
C84 C 0.85561 0.92357 0.77067 0.0
C85 C 0.94561 0.91307 0.71471 0.0
N86 N 0.89733 0.90874 0.69155 0.0
H87 H 0.81463 0.90887 0.70398 0.0
H88 H 0.98129 0.90913 0.6934 0.0
H89 H 0.91472 0.79829 0.69536 0.0
H90 H 1.01194 0.86868 0.59505 0.0
O91 O 0.84034 0.83439 0.63687 0.0
O92 O 0.8742 0.85003 0.56248 0.0
O93 O 0.94149 0.92715 0.59246 0.0
C94 C 0.84229 0.82518 0.58896 0.0
H95 H 0.76725 0.0169 0.57061 0.0
H96 H 1.01197 0.76594 0.70556 0.0
H97 H 0.98868 0.91703 0.78435 0.0
H98 H 0.81893 0.92815 0.7905 0.0
Co99 Co 0.89761 0.87849 0.18999 0.0
C100 C 0.99915 0.92391 0.16954 0.0
C101 C 0.96939 0.94247 0.24174 0.0
C102 C 0.01859 0.96145 0.23678 0.0
N103 N 0.95642 0.92022 0.19892 0.0
N104 N 0.0379 0.94904 0.19166 0.0
H105 H 1.00317 0.90568 0.1343 0.0
H106 H 0.94518 0.9438 0.27492 0.0
C107 C 0.84639 0.96929 0.22218 0.0
O108 O 0.88638 0.99422 0.20762 0.0
N109 N 0.83841 0.8363 0.18251 0.0
C110 C 0.83724 0.79018 0.18792 0.0
C111 C 0.78646 0.77504 0.17903 0.0
C112 C 0.7884 0.84831 0.17027 0.0
N113 N 0.75578 0.81165 0.16775 0.0
C114 C 0.88967 0.85817 0.08656 0.0
C115 C 0.89677 0.94624 0.04868 0.0
C116 C 0.896 0.90891 1.01531 0.0
C117 C 0.89173 0.86455 0.03483 0.0
C118 C 0.89384 0.93831 0.10061 0.0
N119 N 0.8905 0.89458 0.11905 0.0
H120 H 0.8892 0.82341 0.10069 0.0
H121 H 0.89669 0.96723 0.12539 0.0
H122 H 0.87068 0.76868 0.1974 0.0
H123 H 0.77602 0.88345 0.16423 0.0
O124 O 0.94795 0.82969 0.1815 0.0
O125 O 0.91558 0.85175 0.25466 0.0
O126 O 0.84493 0.92598 0.21412 0.0
C127 C 0.94825 0.82554 0.2301 0.0
H128 H 0.03853 0.9819 0.26501 0.0
H129 H 0.77325 0.73971 0.18043 0.0
H130 H 0.89991 0.9811 0.0348 0.0
H131 H 0.89151 0.83479 1.01028 0.0
Co132 Co 0.1458 0.64361 0.93386 0.0
C133 C 0.24939 0.59854 0.92204 0.0
C134 C 0.21419 0.58002 0.99174 0.0
C135 C 0.26436 0.56168 0.99051 0.0
N136 N 0.20443 0.60241 0.94825 0.0
N137 N 0.28662 0.57378 0.94667 0.0
H138 H 0.25666 0.61662 0.88749 0.0
H139 H 0.18749 0.57869 1.0231 0.0
C140 C 0.09492 0.55414 0.96463 0.0
O141 O 0.13077 0.53035 0.94056 0.0
N142 N 0.0874 0.68538 0.91988 0.0
C143 C 0.08985 0.73025 0.90723 0.0
C144 C 0.03935 0.74681 0.90015 0.0
C145 C 0.03536 0.67533 0.91968 0.0
N146 N 1.00514 0.71232 0.90835 0.0
C147 C 0.17458 0.63995 0.83093 0.0
C148 C 0.10191 0.57638 0.79712 0.0
C149 C 0.13919 0.59347 0.76335 0.0
C150 C 0.17477 0.62658 0.78087 0.0
C151 C 0.10288 0.59101 0.84756 0.0
N152 N 0.14054 0.6211 0.86452 0.0
H153 H 0.20242 0.66594 0.84213 0.0
H154 H 0.07252 0.57879 0.87208 0.0
H155 H 0.12563 0.7499 0.90308 0.0
H156 H 0.01975 0.64135 0.92609 0.0
O157 O 0.19617 0.69216 0.92381 0.0
O158 O 0.16085 0.67511 0.99681 0.0
O159 O 0.09427 0.59792 0.96183 0.0
C160 C 0.194 0.69997 0.97169 0.0
H161 H 0.28311 0.54217 1.02027 0.0
H162 H 0.02862 0.78166 0.89003 0.0
H163 H 0.072 0.55243 0.78461 0.0
H164 H 0.20204 0.64324 0.75575 0.0
Co165 Co 0.13949 0.64716 0.3762 0.0
C166 C 0.03602 0.60347 0.38516 0.0
C167 C 0.07024 0.58728 0.31422 0.0
C168 C 0.01938 0.57046 0.31466 0.0
N169 N 0.08096 0.60713 0.35903 0.0
N170 N 0.99775 0.58124 0.35929 0.0
H171 H 0.02963 0.62027 0.4207 0.0
H172 H 0.09682 0.58666 0.28273 0.0
C173 C 0.18943 0.55673 0.34496 0.0
O174 O 0.14926 0.53361 0.36255 0.0
N175 N 0.19655 0.68855 0.39386 0.0
C176 C 0.19306 0.72445 0.42571 0.0
C177 C 0.24268 0.74212 0.43394 0.0
C178 C 0.24827 0.68512 0.38286 0.0
N179 N 0.27745 0.71728 0.40713 0.0
C180 C 0.10812 0.64585 0.47913 0.0
C181 C 0.17355 0.57629 0.51233 0.0
C182 C 0.13945 0.59703 0.54682 0.0
C183 C 0.10674 0.63255 0.52938 0.0
C184 C 0.17443 0.59122 0.46236 0.0
N185 N 0.14057 0.6246 0.44559 0.0
H186 H 0.08276 0.67373 0.46757 0.0
H187 H 0.20349 0.57634 0.43821 0.0
H188 H 0.15723 0.7359 0.4435 0.0
H189 H 0.26458 0.6585 0.35958 0.0
O190 O 0.0891 0.69682 0.38311 0.0
O191 O 0.12925 0.67836 0.31271 0.0
O192 O 0.19262 0.60026 0.35129 0.0
C193 C 0.09493 0.7041 0.33539 0.0
H194 H 0.99982 0.55279 0.28394 0.0
H195 H 0.25261 0.7702 0.45904 0.0
H196 H 0.19989 0.54905 0.52363 0.0
H197 H 0.08098 0.65096 0.55465 0.0
Co198 Co 0.88272 0.37705 0.11657 0.0
C199 C 0.78315 0.42262 0.14393 0.0
C200 C 0.80986 0.44481 0.07185 0.0
C201 C 0.76054 0.46301 0.07969 0.0
N202 N 0.82461 0.42037 0.11266 0.0
N203 N 0.7436 0.44891 0.12501 0.0
H204 H 0.78025 0.40202 0.1776 0.0
H205 H 0.8324 0.44739 0.03772 0.0
C206 C 0.93673 0.46848 0.09186 0.0
O207 O 0.89677 0.49371 0.10645 0.0
N208 N 0.9411 0.33348 0.11993 0.0
C209 C 0.94324 0.28925 0.10467 0.0
C210 C 0.99414 0.27328 0.11117 0.0
C211 C 0.99053 0.3434 0.13601 0.0
N212 N 0.02381 0.30739 0.13091 0.0
C213 C 0.88428 0.3478 0.2168 0.0
C214 C 0.88685 0.43253 0.26369 0.0
C215 C 0.87969 0.3928 0.29284 0.0
C216 C 0.87902 0.35012 0.2686 0.0
C217 C 0.89154 0.42866 0.21132 0.0
N218 N 0.88955 0.38658 0.18857 0.0
H219 H 0.88213 0.31449 0.1989 0.0
H220 H 0.89479 0.45947 0.1894 0.0
H221 H 0.9107 0.26982 0.08905 0.0
H222 H 1.0023 0.377 0.14939 0.0
O223 O 0.83145 0.32864 0.11909 0.0
O224 O 0.86519 0.3568 0.04912 0.0
O225 O 0.93656 0.42497 0.09795 0.0
C226 C 0.83207 0.32883 0.07029 0.0
H227 H 0.73794 0.48335 0.05306 0.0
H228 H 1.00835 0.2393 0.10157 0.0
H229 H 0.88856 0.46619 0.28107 0.0
H230 H 0.87316 0.31861 0.28939 0.0
Co231 Co 0.89063 0.37605 0.68933 0.0
C232 C 0.99343 0.42346 0.67201 0.0
C233 C 0.95915 0.44304 0.74174 0.0
C234 C 1.00821 0.4633 0.73848 0.0
N235 N 0.94944 0.41845 0.69955 0.0
N236 N 0.0292 0.45133 0.69411 0.0
H237 H 1.00207 0.40457 0.63856 0.0
H238 H 0.9333 0.4445 0.77375 0.0
C239 C 0.83902 0.4676 0.71033 0.0
O240 O 0.87303 0.48893 0.68177 0.0
N241 N 0.83143 0.33405 0.68063 0.0
C242 C 0.83263 0.28851 0.67097 0.0
C243 C 0.78163 0.273 0.66435 0.0
C244 C 0.7796 0.34533 0.67975 0.0
N245 N 0.74839 0.30894 0.66942 0.0
C246 C 0.92127 0.37641 0.58731 0.0
C247 C 0.83199 0.41436 0.54481 0.0
C248 C 0.87245 0.3989 0.51278 0.0
C249 C 0.91856 0.38223 0.53585 0.0
C250 C 0.83877 0.41209 0.59752 0.0
N251 N 0.88318 0.39281 0.61831 0.0
H252 H 0.95398 0.35667 0.6015 0.0
H253 H 0.80693 0.42336 0.62108 0.0
H254 H 0.86791 0.26781 0.6681 0.0
H255 H 0.76461 0.37981 0.68451 0.0
O256 O 0.94033 0.32666 0.68134 0.0
O257 O 0.908 0.34863 0.75418 0.0
O258 O 0.8401 0.42395 0.71409 0.0
C259 C 0.94011 0.32194 0.7297 0.0
H260 H 0.02761 0.48364 0.76719 0.0
H261 H 0.7701 0.23792 0.6564 0.0
H262 H 0.79454 0.4263 0.53019 0.0
H263 H 0.95237 0.37131 0.51445 0.0
Co264 Co 0.646 0.14676 0.92679 0.0
C265 C 0.74887 0.10055 0.91413 0.0
C266 C 0.71727 0.08714 0.98685 0.0
C267 C 0.7663 0.06661 0.98394 0.0
N268 N 0.70606 0.10773 0.94257 0.0
N269 N 0.7857 0.07483 0.93787 0.0
H270 H 0.75514 0.11663 0.87833 0.0
H271 H 0.69215 0.08804 1.0194 0.0
C272 C 0.5988 0.05611 0.95791 0.0
O273 O 0.63628 0.03322 0.93506 0.0
N274 N 0.58638 0.18589 0.91125 0.0
C275 C 0.58168 0.21447 0.87173 0.0
C276 C 0.53004 0.2289 0.86796 0.0
C277 C 0.53795 0.184 0.93155 0.0
N278 N 0.50228 0.20926 0.90522 0.0
C279 C 0.67519 0.14143 0.82392 0.0
C280 C 0.60326 0.07617 0.79269 0.0
C281 C 0.63816 0.09454 0.75746 0.0
C282 C 0.67409 0.12789 0.77392 0.0
C283 C 0.60475 0.09171 0.84252 0.0
N284 N 0.64203 0.12259 0.85827 0.0
H285 H 0.70281 0.16787 0.83453 0.0
H286 H 0.5747 0.07967 0.8674 0.0
H287 H 0.61286 0.22223 0.84573 0.0
H288 H 0.52907 0.16373 0.96429 0.0
O289 O 0.6936 0.19729 0.91578 0.0
O290 O 0.6583 0.17969 0.98881 0.0
O291 O 0.59643 0.09981 0.95483 0.0
C292 C 0.68998 0.20577 0.96348 0.0
H293 H 0.78672 0.04833 1.01377 0.0
H294 H 0.51361 0.25 0.83816 0.0
H295 H 0.57439 0.05066 0.78203 0.0
H296 H 0.70042 0.14473 0.74803 0.0
Co297 Co 0.63171 0.14453 0.37078 0.0
C298 C 0.52985 0.09774 0.3859 0.0
C299 C 0.56034 0.08232 0.31321 0.0
C300 C 0.51081 0.06292 0.31709 0.0
N301 N 0.57268 0.10347 0.35695 0.0
N302 N 0.49199 0.07246 0.36317 0.0
H303 H 0.5239 0.11517 0.421 0.0
H304 H 0.58477 0.08246 0.28017 0.0
C305 C 0.68271 0.05356 0.34271 0.0
O306 O 0.64277 0.03001 0.36006 0.0
N307 N 0.68959 0.18631 0.3854 0.0
C308 C 0.68983 0.21831 0.42206 0.0
C309 C 0.74052 0.23424 0.42895 0.0
C310 C 0.74005 0.18408 0.36961 0.0
N311 N 0.77214 0.21259 0.39608 0.0
C312 C 0.60104 0.1439 0.47351 0.0
C313 C 0.67129 0.07859 0.50825 0.0
C314 C 0.63374 0.09643 0.54135 0.0
C315 C 0.59904 0.13015 0.52337 0.0
C316 C 0.67162 0.09306 0.45811 0.0
N317 N 0.63507 0.12392 0.4406 0.0
H318 H 0.57435 0.17067 0.4615 0.0
H319 H 0.70228 0.08008 0.43438 0.0
H320 H 0.65601 0.2276 0.44422 0.0
H321 H 0.75354 0.16054 0.34117 0.0
O322 O 0.58157 0.19438 0.37726 0.0
O323 O 0.6195 0.17364 0.30644 0.0
O324 O 0.6843 0.0973 0.34693 0.0
C325 C 0.58584 0.20007 0.32909 0.0
H326 H 0.48957 0.04477 0.2877 0.0
H327 H 0.75353 0.25855 0.45731 0.0
H328 H 0.70046 0.05394 0.52092 0.0
H329 H 0.57162 0.14734 0.54803 0.0
Co330 Co 0.38823 0.87847 0.11381 0.0
C331 C 0.28835 0.92512 0.13526 0.0
C332 C 0.3124 0.93792 0.05968 0.0
C333 C 0.26291 0.95635 0.06604 0.0
N334 N 0.32887 0.91941 0.10357 0.0
N335 N 0.24763 0.94808 0.11359 0.0
H336 H 0.28697 0.90887 0.17171 0.0
H337 H 0.33404 0.93644 1.02492 0.0
C338 C 0.43677 0.96782 0.0765 0.0
O339 O 0.39583 0.9928 0.08913 0.0
N340 N 0.44756 0.83683 0.12404 0.0
C341 C 0.44785 0.79042 0.12505 0.0
C342 C 0.49899 0.77534 0.13235 0.0
C343 C 0.49845 0.84913 0.13132 0.0
N344 N 0.53076 0.81233 0.13575 0.0
C345 C 0.38169 0.86513 0.21875 0.0
C346 C 0.40613 0.95328 0.25002 0.0
C347 C 0.39089 0.92073 0.28563 0.0
C348 C 0.37906 0.87613 0.26961 0.0
C349 C 0.40752 0.94098 0.19911 0.0
N350 N 0.39454 0.89749 0.18389 0.0
H351 H 0.3727 0.8304 0.20727 0.0
H352 H 0.41861 0.96677 0.17268 0.0
H353 H 0.41359 0.7687 0.1207 0.0
H354 H 0.51158 0.88437 0.13432 0.0
O355 O 0.33794 0.82921 0.12186 0.0
O356 O 0.37275 0.85037 0.04963 0.0
O357 O 0.43992 0.92536 0.08826 0.0
C358 C 0.33988 0.82412 0.07334 0.0
H359 H 0.23914 0.97271 0.03713 0.0
H360 H 0.51193 0.73988 0.13422 0.0
H361 H 0.41614 0.98798 0.26136 0.0
H362 H 0.36829 0.8498 0.29634 0.0
Co363 Co 0.39741 0.88193 0.67404 0.0
C364 C 0.49827 0.92905 0.65547 0.0
C365 C 0.4695 0.94431 0.72898 0.0
C366 C 0.51895 0.96329 0.72425 0.0
N367 N 0.45624 0.92332 0.68546 0.0
N368 N 0.53683 0.95386 0.67779 0.0
H369 H 0.50303 0.9118 0.62 0.0
H370 H 0.446 0.94382 0.76263 0.0
C371 C 0.34758 0.97318 0.70388 0.0
O372 O 0.38529 0.99685 0.68264 0.0
N373 N 0.33928 0.83995 0.66174 0.0
C374 C 0.34134 0.80022 0.63562 0.0
C375 C 0.29077 0.78396 0.62844 0.0
C376 C 0.28742 0.8474 0.66963 0.0
N377 N 0.25696 0.81373 0.64992 0.0
C378 C 0.42428 0.87815 0.57052 0.0
C379 C 0.35451 0.94366 0.53482 0.0
C380 C 0.3898 0.92304 0.50144 0.0
C381 C 0.42426 0.88936 0.51978 0.0
C382 C 0.35631 0.93182 0.58592 0.0
N383 N 0.39236 0.90053 0.6036 0.0
H384 H 0.45095 0.8516 0.5831 0.0
H385 H 0.3278 0.9472 0.61042 0.0
H386 H 0.37682 0.78521 0.62048 0.0
H387 H 0.27172 0.87744 0.68797 0.0
O388 O 0.44787 0.83175 0.66876 0.0
O389 O 0.41073 0.85455 0.73908 0.0
O390 O 0.34572 0.92953 0.69881 0.0
C391 C 0.44398 0.82732 0.71717 0.0
H392 H 0.54111 0.98043 0.75365 0.0
H393 H 0.27971 0.75397 0.60667 0.0
H394 H 0.32576 0.96849 0.52151 0.0
H395 H 0.4504 0.87096 0.49483 0.0
Co396 Co 0.64437 0.65344 0.44011 0.0
C397 C 0.74473 0.60984 0.41272 0.0
C398 C 0.71939 0.58832 0.4855 0.0
C399 C 0.76947 0.57187 0.47801 0.0
N400 N 0.70325 0.6111 0.44402 0.0
N401 N 0.78566 0.5856 0.43227 0.0
H402 H 0.74641 0.62987 0.37857 0.0
H403 H 0.69725 0.58589 0.51989 0.0
C404 C 0.59237 0.56195 0.46901 0.0
O405 O 0.63323 0.53707 0.45606 0.0
N406 N 0.5856 0.69659 0.43727 0.0
C407 C 0.58231 0.73918 0.4574 0.0
C408 C 0.53128 0.75488 0.45224 0.0
C409 C 0.53654 0.68745 0.41953 0.0
N410 N 0.50278 0.7224 0.42831 0.0
C411 C 0.63321 0.67796 0.33727 0.0
C412 C 0.63395 0.59046 0.29655 0.0
C413 C 0.63224 0.62841 0.26417 0.0
C414 C 0.63109 0.67252 0.28519 0.0
C415 C 0.63497 0.59741 0.34874 0.0
N416 N 0.63489 0.64081 0.36853 0.0
H417 H 0.63455 0.71234 0.35269 0.0
H418 H 0.6379 0.5679 0.37274 0.0
H419 H 0.61384 0.75734 0.47635 0.0
H420 H 0.52512 0.65491 0.40293 0.0
O421 O 0.69509 0.70259 0.43517 0.0
O422 O 0.66357 0.67538 0.50649 0.0
O423 O 0.59151 0.60534 0.46137 0.0
C424 C 0.69594 0.70315 0.48414 0.0
H425 H 0.79282 0.55267 0.50507 0.0
H426 H 0.51583 0.78707 0.46637 0.0
H427 H 0.63483 0.5558 0.28165 0.0
H428 H 0.63021 0.70272 0.2615 0.0
Co429 Co 0.63705 0.65296 0.86984 0.0
C430 C 0.53765 0.60567 0.89569 0.0
C431 C 0.56358 0.58854 0.8216 0.0
C432 C 0.51529 0.56859 0.82888 0.0
N433 N 0.57836 0.61071 0.86395 0.0
N434 N 0.49866 0.57957 0.87538 0.0
H435 H 0.53495 0.6239 0.93103 0.0
H436 H 0.58578 0.58815 0.78713 0.0
C437 C 0.68771 0.56145 0.83913 0.0
O438 O 0.64773 0.5371 0.85496 0.0
N439 N 0.69613 0.69532 0.87476 0.0
C440 C 0.69842 0.74054 0.86367 0.0
C441 C 0.74974 0.75533 0.87002 0.0
C442 C 0.74589 0.68357 0.88816 0.0
N443 N 0.77944 0.71944 0.88555 0.0
C444 C 0.64197 0.67669 0.97251 0.0
C445 C 0.65016 0.58987 1.01379 0.0
C446 C 0.64428 0.62784 0.04589 0.0
C447 C 0.64102 0.67167 1.02454 0.0
C448 C 0.65068 0.59645 0.96145 0.0
N449 N 0.64586 0.63951 0.94137 0.0
H450 H 0.63822 0.71084 0.95698 0.0
H451 H 0.65317 0.56678 0.93772 0.0
H452 H 0.66563 0.76152 0.85116 0.0
H453 H 0.75763 0.64894 0.89801 0.0
O454 O 0.58654 0.70223 0.87632 0.0
O455 O 0.61813 0.67723 0.80411 0.0
O456 O 0.6894 0.60486 0.84654 0.0
C457 C 0.58606 0.70476 0.82756 0.0
H458 H 0.49321 0.54904 0.80118 0.0
H459 H 0.76419 0.78976 0.8634 0.0
H460 H 0.65244 0.55534 0.02886 0.0
H461 H 0.63707 0.70198 0.04794 0.0
Co462 Co 0.38144 0.38376 0.62194 0.0
C463 C 0.27974 0.42928 0.6421 0.0
C464 C 0.30873 0.44572 0.56904 0.0
C465 C 0.25903 0.46373 0.5735 0.0
N466 N 0.32238 0.42512 0.6125 0.0
N467 N 0.24005 0.45279 0.61921 0.0
H468 H 0.27637 0.41219 0.67798 0.0
H469 H 0.33271 0.44625 0.53569 0.0
C470 C 0.42988 0.47519 0.59054 0.0
O471 O 0.3894 0.49861 0.60725 0.0
N472 N 0.44035 0.3414 0.63134 0.0
C473 C 0.43969 0.29505 0.62875 0.0
C474 C 0.49034 0.27869 0.63512 0.0
C475 C 0.4915 0.3524 0.64021 0.0
N476 N 0.52287 0.31477 0.64199 0.0
C477 C 0.36823 0.36842 0.72643 0.0
C478 C 0.40324 0.45236 0.76202 0.0
C479 C 0.38268 0.42061 0.79609 0.0
C480 C 0.36557 0.37802 0.77773 0.0
C481 C 0.40508 0.44139 0.71074 0.0
N482 N 0.38646 0.40021 0.69318 0.0
H483 H 0.35522 0.33514 0.71347 0.0
H484 H 0.42172 0.46629 0.68607 0.0
H485 H 0.40511 0.27414 0.62235 0.0
H486 H 0.50582 0.38723 0.64431 0.0
O487 O 0.33046 0.33418 0.62622 0.0
O488 O 0.36674 0.35801 0.55596 0.0
O489 O 0.43374 0.43193 0.59887 0.0
C490 C 0.33301 0.33107 0.57753 0.0
H491 H 0.23869 0.48219 0.54415 0.0
H492 H 0.5023 0.24294 0.63494 0.0
H493 H 0.41737 0.48554 0.77479 0.0
H494 H 0.35075 0.35199 0.80296 0.0
Co495 Co 0.39037 0.37669 0.1843 0.0
C496 C 0.49432 0.42149 0.17219 0.0
C497 C 0.45895 0.44034 0.24183 0.0
C498 C 0.50891 0.45891 0.24047 0.0
N499 N 0.4493 0.41768 0.1984 0.0
N500 N 0.53128 0.44656 0.19671 0.0
H501 H 0.50188 0.40346 0.13764 0.0
H502 H 0.43216 0.44197 0.27311 0.0
C503 C 0.3401 0.46694 0.21387 0.0
O504 O 0.37685 0.4902 0.19067 0.0
N505 N 0.33177 0.33518 0.17064 0.0
C506 C 0.33398 0.2907 0.15627 0.0
C507 C 0.28336 0.27472 0.14853 0.0
C508 C 0.27975 0.34557 0.17091 0.0
N509 N 0.24933 0.30922 0.15809 0.0
C510 C 0.42004 0.38022 0.08151 0.0
C511 C 0.34327 0.43977 0.0465 0.0
C512 C 0.38118 0.42318 1.01297 0.0
C513 C 0.4193 0.39255 0.03111 0.0
C514 C 0.34576 0.42681 0.09739 0.0
N515 N 0.38506 0.39844 0.11478 0.0
H516 H 0.44908 0.35533 0.09324 0.0
H517 H 0.31509 0.43864 0.12192 0.0
H518 H 0.36972 0.27107 0.151 0.0
H519 H 0.26424 0.37945 0.17833 0.0
O520 O 0.44073 0.32758 0.17496 0.0
O521 O 0.40521 0.34592 0.2476 0.0
O522 O 0.33876 0.42317 0.21149 0.0
C523 C 0.43855 0.32062 0.22301 0.0
H524 H 0.52741 0.47907 0.26992 0.0
H525 H 0.27241 0.24039 0.13669 0.0
H526 H 0.31175 0.46201 0.0334 0.0
H527 H 0.44758 0.37686 1.0061 0.0
C528 C 0.34395 0.07026 0.3678 0.0
C529 C 0.33412 0.06918 0.41986 0.0
C530 C 0.39545 0.06848 0.34911 0.0
C531 C 0.43928 0.06551 0.38176 0.0
H532 H 0.31161 0.07408 0.34122 0.0
H533 H 0.40099 0.07198 0.30904 0.0
S534 S 0.43526 0.05285 0.5204 0.0
N535 N 0.37296 0.05943 0.50328 0.0
N536 N 0.46926 0.0545 0.46797 0.0
C537 C 0.4299 0.06051 0.43351 0.0
C538 C 0.37749 0.06258 0.45261 0.0
C539 C 0.91332 0.21476 0.44239 0.0
C540 C 0.94216 0.21519 0.39765 0.0
C541 C 0.85788 0.21468 0.44153 0.0
C542 C 0.82914 0.214 0.39585 0.0
H543 H 0.93388 0.21492 0.47828 0.0
H544 H 0.83729 0.21425 0.47693 0.0
S545 S 0.88615 0.21356 0.26823 0.0
N546 N 0.938 0.21442 0.30638 0.0
N547 N 0.83394 0.21357 0.3048 0.0
C548 C 0.85757 0.21405 0.35085 0.0
C549 C 0.91401 0.21491 0.35173 0.0
C550 C 0.41681 0.24929 0.89349 0.0
C551 C 0.44549 0.21066 0.91046 0.0
C552 C 0.36149 0.24987 0.89313 0.0
C553 C 0.33234 0.21187 0.90992 0.0
H554 H 0.43729 0.27916 0.87946 0.0
H555 H 0.34149 0.27975 0.8779 0.0
S556 S 0.38774 0.10372 0.96278 0.0
N557 N 0.43982 0.13387 0.94651 0.0
N558 N 0.33634 0.13629 0.94874 0.0
C559 C 0.36038 0.17391 0.9294 0.0
C560 C 0.41675 0.173 0.92909 0.0
C561 C 0.9332 0.06991 0.93355 0.0
C562 C 0.94301 0.06714 0.88149 0.0
C563 C 0.88182 0.06947 0.95231 0.0
C564 C 0.83806 0.06578 0.91983 0.0
H565 H 0.96536 0.07372 0.96025 0.0
H566 H 0.87632 0.07451 0.99221 0.0
S567 S 0.84083 0.0477 0.78198 0.0
N568 N 0.9032 0.05453 0.79852 0.0
N569 N 0.80739 0.05132 0.8346 0.0
C570 C 0.8471 0.05849 0.86847 0.0
C571 C 0.89932 0.05967 0.84906 0.0
C572 C 0.68483 0.95578 0.6749 0.0
C573 C 0.6952 0.95889 0.62327 0.0
C574 C 0.6331 0.95652 0.69274 0.0
C575 C 0.58974 0.95978 0.65944 0.0
H576 H 0.71712 0.95161 0.70151 0.0
H577 H 0.62707 0.95232 0.73265 0.0
S578 S 0.59667 0.97284 0.52088 0.0
N579 N 0.65888 0.96797 0.53931 0.0
N580 N 0.56122 0.97016 0.57248 0.0
C581 C 0.59989 0.96497 0.60776 0.0
C582 C 0.65274 0.96438 0.58975 0.0
C583 C 0.1158 0.85364 0.64011 0.0
C584 C 0.08707 0.81253 0.6448 0.0
C585 C 0.17111 0.85374 0.64182 0.0
C586 C 0.20002 0.8127 0.64786 0.0
H587 H 0.09538 0.88618 0.63625 0.0
H588 H 0.19142 0.88622 0.63808 0.0
S589 S 0.1438 0.69593 0.6608 0.0
N590 N 0.09173 0.72965 0.65453 0.0
N591 N 0.19571 0.72991 0.65848 0.0
C592 C 0.17184 0.77133 0.65198 0.0
C593 C 0.11544 0.77124 0.65041 0.0
C594 C 0.66688 0.77895 0.1811 0.0
C595 C 0.69951 0.81162 0.1579 0.0
C596 C 0.61198 0.77922 0.17348 0.0
C597 C 0.58738 0.81229 0.14256 0.0
H598 H 0.68377 0.75352 0.20618 0.0
H599 H 0.58843 0.75393 0.19275 0.0
S600 S 0.65515 0.90177 0.06812 0.0
N601 N 0.70321 0.8753 0.0989 0.0
N602 N 0.60024 0.87621 0.0854 0.0
C603 C 0.61956 0.84438 0.1181 0.0
C604 C 0.67549 0.84394 0.12554 0.0
C605 C 0.09977 0.95395 0.12098 0.0
C606 C 0.09081 0.95505 0.17306 0.0
C607 C 0.15091 0.95341 0.10176 0.0
C608 C 0.19546 0.95429 0.13379 0.0
H609 H 0.06691 0.9523 0.09473 0.0
H610 H 0.1553 0.95035 0.06152 0.0
S611 S 0.19436 0.96449 0.27283 0.0
N612 N 0.1316 0.96109 0.25631 0.0
N613 N 0.22734 0.96229 0.21984 0.0
C614 C 0.18723 0.95853 0.18577 0.0
C615 C 0.13508 0.95859 0.20549 0.0
C616 C 0.35135 0.56685 0.8789 0.0
C617 C 0.34047 0.56795 0.93059 0.0
C618 C 0.40297 0.56917 0.86133 0.0
C619 C 0.44631 0.57227 0.89469 0.0
H620 H 0.31943 0.5657 0.85156 0.0
H621 H 0.40852 0.57052 0.82113 0.0
S622 S 0.44043 0.56794 0.03384 0.0
N623 N 0.3781 0.5673 1.01526 0.0
N624 N 0.47543 0.56975 0.98198 0.0
C625 C 0.43644 0.56993 0.94654 0.0
C626 C 0.38355 0.56795 0.96457 0.0
C627 C 0.86898 0.74456 0.86214 0.0
C628 C 0.83591 0.71855 0.89324 0.0
C629 C 0.92407 0.74256 0.86748 0.0
C630 C 0.94832 0.7145 0.90416 0.0
H631 H 0.85219 0.76581 0.83264 0.0
H632 H 0.9479 0.76241 0.84198 0.0
S633 S 0.87924 0.64422 0.99918 0.0
N634 N 0.83131 0.66692 0.96474 0.0
N635 N 0.93466 0.66329 0.97491 0.0
C636 C 0.91564 0.6894 0.93648 0.0
C637 C 0.85954 0.69141 0.931 0.0
C638 C 0.41366 0.73348 0.46185 0.0
C639 C 0.44645 0.72209 0.42152 0.0
C640 C 0.35866 0.73217 0.45667 0.0
C641 C 0.33426 0.71997 0.41071 0.0
H642 H 0.43078 0.7424 0.49803 0.0
H643 H 0.33511 0.73983 0.4893 0.0
S644 S 0.40331 0.69341 0.29189 0.0
N645 N 0.45137 0.70157 0.33339 0.0
N646 N 0.34774 0.70047 0.32284 0.0
C647 C 0.36682 0.70995 0.36959 0.0
C648 C 0.42296 0.7107 0.37519 0.0
C649 C 0.88173 0.57646 0.44521 0.0
C650 C 0.8382 0.5808 0.41231 0.0
C651 C 0.9332 0.57416 0.42721 0.0
C652 C 0.9438 0.57661 0.3755 0.0
H653 H 0.87643 0.57627 0.48547 0.0
H654 H 0.96522 0.57151 0.45433 0.0
S655 S 0.84337 0.582 0.27292 0.0
N656 N 0.80867 0.58202 0.32499 0.0
N657 N 0.90575 0.58003 0.29114 0.0
C658 C 0.90056 0.57873 0.34184 0.0
C659 C 0.84779 0.58055 0.36026 0.0
C660 C 0.59563 0.45576 0.12878 0.0
C661 C 0.58492 0.4532 0.18046 0.0
C662 C 0.64739 0.45595 0.1111 0.0
C663 C 0.69085 0.45363 0.14437 0.0
H664 H 0.56358 0.45649 0.10155 0.0
H665 H 0.65315 0.45603 0.07089 0.0
S666 S 0.68493 0.45249 0.28358 0.0
N667 N 0.62259 0.45182 0.26503 0.0
N668 N 0.71993 0.45395 0.23171 0.0
C669 C 0.68093 0.45384 0.19628 0.0
C670 C 0.62803 0.45337 0.21437 0.0
C671 C 0.16851 0.28252 0.114 0.0
C672 C 0.19254 0.3081 0.15291 0.0
C673 C 0.11349 0.28199 0.10747 0.0
C674 C 0.0802 0.30691 0.13966 0.0
H675 H 0.1925 0.26358 0.08767 0.0
H676 H 0.09699 0.26276 0.0762 0.0
S677 S 0.12299 0.37484 0.25099 0.0
N678 N 0.17851 0.35598 0.22648 0.0
N679 N 0.07527 0.35483 0.21438 0.0
C680 C 0.10365 0.33156 0.17958 0.0
C681 C 0.1597 0.33218 0.18616 0.0
C682 C 0.60496 0.34104 0.68438 0.0
C683 C 0.57951 0.31325 0.64827 0.0
C684 C 0.66001 0.33919 0.69143 0.0
C685 C 0.69171 0.30966 0.66243 0.0
H686 H 0.58201 0.36381 0.70781 0.0
H687 H 0.67787 0.36072 0.72012 0.0
S688 S 0.64485 0.23473 0.55846 0.0
N689 N 0.59051 0.25817 0.58058 0.0
N690 N 0.69367 0.25526 0.5932 0.0
C691 C 0.66673 0.28266 0.62535 0.0
C692 C 0.61077 0.28434 0.61841 0.0
C693 C 0.12553 0.45795 0.70856 0.0
C694 C 0.08165 0.4597 0.67592 0.0
C695 C 0.1771 0.45754 0.68978 0.0
C696 C 0.18681 0.45864 0.63765 0.0
H697 H 0.11998 0.45473 0.74867 0.0
H698 H 0.20959 0.45536 0.71639 0.0
S699 S 0.08407 0.4702 0.5372 0.0
N700 N 0.05075 0.46902 0.58999 0.0
N701 N 0.14657 0.46525 0.55412 0.0
C702 C 0.14284 0.46309 0.60491 0.0
C703 C 0.09062 0.46436 0.62423 0.0
C704 C 0.08599 0.0957 0.17705 0.0
C705 C 0.13282 0.08944 0.20505 0.0
C706 C 0.0864 0.09554 0.12434 0.0
C707 C 0.13343 0.08843 0.09785 0.0
H708 H 0.04956 0.1042 0.19581 0.0
H709 H 0.0502 0.10354 0.10412 0.0
S710 S 0.26512 0.06404 0.15337 0.0
N711 N 0.22637 0.07089 0.20229 0.0
N712 N 0.22683 0.07057 0.10324 0.0
C713 C 0.17956 0.07833 0.12526 0.0
C714 C 0.17932 0.07886 0.17889 0.0
C715 C 0.86025 0.89504 0.92928 0.0
C716 C 0.89891 0.91521 0.96013 0.0
C717 C 0.86322 0.89734 0.87701 0.0
C718 C 0.90456 0.92071 0.8527 0.0
H719 H 0.82757 0.87671 0.94576 0.0
H720 H 0.83293 0.87958 0.85563 0.0
S721 S 0.01999 0.97382 0.9177 0.0
N722 N 0.98267 0.95519 0.96379 0.0
N723 N 0.98784 0.96125 0.86509 0.0
C724 C 0.94448 0.94012 0.88348 0.0
C725 C 0.94152 0.9373 0.93717 0.0
C726 C 0.09195 0.58465 0.62816 0.0
C727 C 0.13968 0.58481 0.60138 0.0
C728 C 0.09149 0.58322 0.68089 0.0
C729 C 0.13878 0.58138 0.70888 0.0
H730 H 0.05462 0.58813 0.60833 0.0
H731 H 0.0541 0.58697 0.69972 0.0
S732 S 0.2736 0.57022 0.65739 0.0
N733 N 0.23516 0.57659 0.60741 0.0
N734 N 0.23378 0.57058 0.70597 0.0
C735 C 0.18625 0.57598 0.68252 0.0
C736 C 0.18689 0.57848 0.62894 0.0
C737 C 0.89737 0.36273 0.43037 0.0
C738 C 0.86813 0.3967 0.45621 0.0
C739 C 0.90161 0.36259 0.37821 0.0
C740 C 0.87439 0.39473 0.34842 0.0
H741 H 0.9179 0.33556 0.45028 0.0
H742 H 0.92675 0.3369 0.36116 0.0
S743 S 0.77773 0.48028 0.39377 0.0
N744 N 0.80349 0.45833 0.44572 0.0
N745 N 0.80792 0.45467 0.34686 0.0
C746 C 0.84066 0.42589 0.37256 0.0
C747 C 0.8378 0.42733 0.4264 0.0
C748 C 0.68172 0.08248 0.62264 0.0
C749 C 0.63385 0.08438 0.59564 0.0
C750 C 0.68251 0.08113 0.67518 0.0
C751 C 0.63552 0.08302 0.70292 0.0
H752 H 0.71895 0.08514 0.60341 0.0
H753 H 0.72047 0.08148 0.69426 0.0
S754 S 0.49969 0.07793 0.64946 0.0
N755 N 0.53835 0.07859 0.60003 0.0
N756 N 0.53957 0.0801 0.69884 0.0
C757 C 0.58734 0.0806 0.67626 0.0
C758 C 0.58662 0.0806 0.62264 0.0
C759 C 0.34205 0.92584 0.36635 0.0
C760 C 0.38923 0.9317 0.33984 0.0
C761 C 0.34164 0.92694 0.41906 0.0
C762 C 0.38861 0.93302 0.44682 0.0
H763 H 0.30572 0.91824 0.34621 0.0
H764 H 0.30505 0.91983 0.43813 0.0
S765 S 0.52131 0.95477 0.39486 0.0
N766 N 0.48292 0.94806 0.34483 0.0
N767 N 0.48252 0.94924 0.4439 0.0
C768 C 0.43536 0.94177 0.42058 0.0
C769 C 0.43558 0.94137 0.36701 0.0
C770 C 0.59768 0.64487 0.1262 0.0
C771 C 0.63937 0.62271 0.10131 0.0
C772 C 0.59467 0.64504 0.17876 0.0
C773 C 0.63308 0.62289 0.20862 0.0
H774 H 0.56762 0.66306 0.10482 0.0
H775 H 0.56252 0.66344 0.19627 0.0
S776 S 0.75127 0.56154 0.16236 0.0
N777 N 0.72036 0.57868 0.11068 0.0
N778 N 0.71448 0.57873 0.20966 0.0
C779 C 0.6743 0.59965 0.18433 0.0
C780 C 0.67749 0.59959 0.13065 0.0
C781 C 0.33393 0.42185 0.87754 0.0
C782 C 0.3806 0.43035 0.85092 0.0
C783 C 0.33311 0.42351 0.93026 0.0
C784 C 0.37912 0.43323 0.95823 0.0
H785 H 0.29828 0.412 0.85749 0.0
H786 H 0.29717 0.41409 0.94924 0.0
S787 S 0.51015 0.46231 0.90663 0.0
N788 N 0.47288 0.4523 0.85651 0.0
N789 N 0.47129 0.45568 0.95544 0.0
C790 C 0.42509 0.4448 0.93196 0.0
C791 C 0.42586 0.44331 0.87835 0.0
C792 C 0.2588 0.27438 0.5735 0.0
C793 C 0.29708 0.30039 0.54835 0.0
C794 C 0.22311 0.24624 0.54708 0.0
C795 C 0.2241 0.24283 0.49431 0.0
H796 H 0.25619 0.27572 0.61407 0.0
H797 H 0.19486 0.22663 0.56841 0.0
S798 S 0.31609 0.30434 0.4102 0.0
N799 N 0.33334 0.32128 0.46729 0.0
N800 N 0.2665 0.26844 0.41773 0.0
C801 C 0.26192 0.26892 0.46857 0.0
C802 C 0.29832 0.29762 0.49552 0.0
C803 C 1.00532 0.03746 0.57036 0.0
C804 C 0.99309 0.99053 0.56518 0.0
C805 C 0.03655 0.06022 0.535 0.0
C806 C 0.05749 0.03697 0.49316 0.0
H807 H 0.99042 0.05704 0.60182 0.0
H808 H 0.04495 0.09632 0.54105 0.0
S809 S 0.03658 0.91424 0.4609 0.0
N810 N 1.00376 0.92183 0.51344 0.0
N811 N 0.06306 0.96456 0.44806 0.0
C812 C 0.04568 0.99012 0.48737 0.0
C813 C 1.01339 0.96696 0.52302 0.0
C814 C 0.26768 0.9696 0.75836 0.0
C815 C 0.30767 0.99613 0.73629 0.0
C816 C 0.23039 0.98917 0.7904 0.0
C817 C 0.23129 0.03626 0.80238 0.0
H818 H 0.26498 0.93309 0.75121 0.0
H819 H 0.2004 0.96693 0.80572 0.0
S820 S 0.32889 0.12119 0.75635 0.0
N821 N 0.34666 0.07223 0.72997 0.0
N822 N 0.27657 0.10912 0.79014 0.0
C823 C 0.27147 0.06333 0.7812 0.0
C824 C 0.30953 0.0433 0.74824 0.0
C825 C 0.97791 0.28585 0.80774 0.0
C826 C 0.97738 0.28995 0.75511 0.0
C827 C 1.01437 0.25709 0.8324 0.0
C828 C 0.05182 0.23145 0.80541 0.0
H829 H 0.95006 0.30503 0.83016 0.0
H830 H 1.0129 0.25482 0.87299 0.0
S831 S 0.0674 0.23023 0.66685 0.0
N832 N 0.01793 0.26591 0.67669 0.0
N833 N 0.08619 0.21225 0.72304 0.0
C834 C 0.05188 0.2354 0.75277 0.0
C835 C 1.0147 0.26449 0.72764 0.0
C836 C 0.80685 0.78703 0.51164 0.0
C837 C 0.80626 0.7917 0.56429 0.0
C838 C 0.7709 0.75854 0.48633 0.0
C839 C 0.73285 0.7333 0.51253 0.0
H840 H 0.83489 0.80605 0.48944 0.0
H841 H 0.77309 0.7564 0.44577 0.0
S842 S 0.71513 0.73235 0.6509 0.0
N843 N 0.76474 0.76797 0.64201 0.0
N844 N 0.69728 0.71414 0.59443 0.0
C845 C 0.73215 0.73704 0.5653 0.0
C846 C 0.76881 0.76627 0.59116 0.0
C847 C 0.71442 0.99227 0.28411 0.0
C848 C 0.72565 0.02994 0.31566 0.0
C849 C 0.75361 0.97277 0.2538 0.0
C850 C 0.8052 0.99057 0.25368 0.0
H851 H 0.67477 0.9786 0.28173 0.0
H852 H 0.74317 0.94413 0.22962 0.0
S853 S 0.85658 0.08408 0.33566 0.0
N854 N 0.79351 0.08035 0.34962 0.0
N855 N 0.86653 0.04505 0.29167 0.0
C856 C 0.81728 0.02714 0.28647 0.0
C857 C 0.77766 0.04644 0.31774 0.0
C858 C 0.98543 0.79015 0.30859 0.0
C859 C 0.98602 0.79435 0.25598 0.0
C860 C 0.02165 0.76177 0.33396 0.0
C861 C 0.06007 0.73656 0.30777 0.0
H862 H 0.95667 0.80882 0.33048 0.0
H863 H 0.01906 0.75926 0.37447 0.0
S864 S 0.07954 0.7365 0.16969 0.0
N865 N 0.02918 0.77148 0.17848 0.0
N866 N 0.09711 0.71836 0.22618 0.0
C867 C 0.06159 0.74089 0.25518 0.0
C868 C 0.02459 0.76966 0.2293 0.0
C869 C 0.26597 0.7674 0.0735 0.0
C870 C 0.30398 0.79212 0.0465 0.0
C871 C 0.22991 0.73835 0.04897 0.0
C872 C 0.23043 0.73289 0.99648 0.0
H873 H 0.26377 0.77061 0.11398 0.0
H874 H 0.20168 0.71983 0.07146 0.0
S875 S 0.32203 0.78994 0.90825 0.0
N876 N 0.3399 0.80919 0.96424 0.0
N877 N 0.27227 0.75479 0.91814 0.0
C878 C 0.26818 0.7575 0.96897 0.0
C879 C 0.30493 0.78702 0.99397 0.0
C880 C 1.01322 0.55648 1.01657 0.0
C881 C 0.0556 0.53096 0.99697 0.0
C882 C 0.97607 0.53636 0.04825 0.0
C883 C 0.97962 0.48976 0.06202 0.0
H884 H 1.00833 0.59245 1.00723 0.0
H885 H 0.94387 0.55755 0.06137 0.0
S886 S 0.08506 0.40821 1.02361 0.0
N887 N 0.10022 0.45687 0.9955 0.0
N888 N 0.03064 0.41896 0.05494 0.0
C889 C 0.02247 0.46395 0.04351 0.0
C890 C 0.06028 0.48451 1.01101 0.0
C891 C 0.21358 0.49695 0.28157 0.0
C892 C 0.22926 0.53285 0.31394 0.0
C893 C 0.24951 0.47616 0.24878 0.0
C894 C 0.30227 0.49081 0.24682 0.0
H895 H 0.17298 0.48544 0.28078 0.0
H896 H 0.23569 0.44882 0.22434 0.0
S897 S 0.3652 0.57784 0.32963 0.0
N898 N 0.30265 0.57807 0.34615 0.0
N899 N 0.36971 0.53993 0.28362 0.0
C900 C 0.31882 0.52566 0.27996 0.0
C901 C 0.28243 0.54643 0.31376 0.0
C902 C 0.75723 0.27379 0.06687 0.0
C903 C 0.79569 0.29911 0.0412 0.0
C904 C 0.72217 0.24491 0.04115 0.0
C905 C 0.72418 0.24004 0.98869 0.0
H906 H 0.75417 0.27598 0.10737 0.0
H907 H 0.69391 0.22565 0.06285 0.0
S908 S 0.81643 0.29994 0.90341 0.0
N909 N 0.83287 0.31847 0.96012 0.0
N910 N 0.76698 0.26399 0.91153 0.0
C911 C 0.76178 0.26584 0.96228 0.0
C912 C 0.79755 0.2954 0.9886 0.0
C913 C 0.75974 0.46943 0.76517 0.0
C914 C 0.80089 0.49346 0.74178 0.0
C915 C 0.72441 0.49155 0.7972 0.0
C916 C 0.7285 0.53884 0.80764 0.0
H917 H 0.75449 0.43294 0.75879 0.0
H918 H 0.69334 0.47118 0.81358 0.0
S919 S 0.83034 0.6177 0.75741 0.0
N920 N 0.84445 0.5673 0.73222 0.0
N921 N 0.77801 0.60909 0.79244 0.0
C922 C 0.76977 0.56344 0.78487 0.0
C923 C 0.80581 0.54078 0.75192 0.0
C924 C 0.48723 0.03659 0.04903 0.0
C925 C 0.4795 0.98887 0.04712 0.0
C926 C 0.52596 0.05769 1.02013 0.0
C927 C 0.55835 0.032 0.98774 0.0
H928 H 0.46327 0.05793 0.07319 0.0
H929 H 0.53051 0.09457 1.02349 0.0
S930 S 0.55104 0.90609 0.96603 0.0
N931 N 0.50565 0.91648 1.00856 0.0
N932 N 0.57845 0.95626 0.95401 0.0
C933 C 0.55076 0.98418 0.98512 0.0
C934 C 0.51136 0.9626 1.01484 0.0
C935 C 0.47412 0.28377 0.30134 0.0
C936 C 0.47562 0.28869 0.24882 0.0
C937 C 0.5106 0.25581 0.32696 0.0
C938 C 0.55014 0.23165 0.30113 0.0
H939 H 0.44468 0.30181 0.32304 0.0
H940 H 0.5074 0.2529 0.36739 0.0
S941 S 0.57167 0.23313 0.16335 0.0
N942 N 0.52037 0.26715 0.17174 0.0
N943 N 0.58877 0.21476 0.21989 0.0
C944 C 0.55224 0.23635 0.24858 0.0
C945 C 0.51502 0.26476 0.22245 0.0
C946 C 0.51275 0.7653 0.72092 0.0
C947 C 0.4786 0.7955 0.74619 0.0
C948 C 0.54761 0.73637 0.74744 0.0
C949 C 0.54986 0.73657 0.80031 0.0
H950 H 0.51277 0.76403 0.68024 0.0
H951 H 0.57291 0.71364 0.72622 0.0
S952 S 0.46968 0.81012 0.88458 0.0
N953 N 0.44985 0.82424 0.82737 0.0
N954 N 0.51521 0.77019 0.87703 0.0
C955 C 0.51604 0.76674 0.82608 0.0
C956 C 0.48045 0.79607 0.7991 0.0
C957 C 0.55498 0.49499 0.51594 0.0
C958 C 0.54908 0.54025 0.49793 0.0
C959 C 0.51673 0.47462 0.54631 0.0
C960 C 0.47078 0.49855 0.56011 0.0
H961 H 0.58985 0.47511 0.50718 0.0
H962 H 0.52348 0.43975 0.5591 0.0
S963 S 0.43463 0.61727 0.52087 0.0
N964 N 0.49244 0.60792 0.49494 0.0
N965 N 0.4207 0.56975 0.55174 0.0
C966 C 0.46395 0.54369 0.54187 0.0
C967 C 0.50294 0.56444 0.51087 0.0
loop_
_geom_bond_atom_site_label_1
_geom_bond_atom_site_label_2
_geom_bond_distance
_geom_bond_site_symmetry_2
_ccdc_geom_bond_type
Co0 N4 2.148 . S
Co0 N10 2.128 . S
Co0 N20 2.194 . S
Co0 O25 2.351 . S
Co0 O26 2.155 . S
Co0 O27 2.096 . S
C1 N4 1.301 . S
C1 N5 1.328 . S
C1 H6 0.930 . S
C2 C3 1.333 . S
C2 N4 1.317 . S
C2 H7 0.930 . S
C3 C2 1.333 . S
C3 N5 1.350 . S
C3 H29 0.931 . S
N4 Co0 2.148 . S
N4 C1 1.301 . S
N4 C2 1.317 . S
N5 C1 1.328 . S
N5 C3 1.350 . S
H6 C1 0.930 . S
H7 C2 0.930 . S
C8 O9 1.224 . S
C8 O27 1.247 . S
O9 C8 1.224 . S
N10 Co0 2.128 . S
N10 C11 1.355 . S
N10 C13 1.311 . S
C11 N10 1.355 . S
C11 C12 1.363 1_455 S
C11 H23 0.929 . S
C12 C11 1.363 1_655 S
C12 N14 1.375 . S
C12 H30 0.931 . S
C13 N10 1.311 . S
C13 N14 1.347 1_455 S
C13 H24 0.929 . S
N14 C12 1.375 . S
N14 C13 1.347 1_655 S
C15 C18 1.365 . S
C15 N20 1.328 . S
C15 H21 0.929 . S
C16 C17 1.362 . S
C16 C19 1.378 . S
C16 H31 0.929 . S
C17 C16 1.362 . S
C17 C18 1.366 . S
C18 C15 1.365 . S
C18 C17 1.366 . S
C18 H32 0.930 . S
C19 C16 1.378 . S
C19 N20 1.315 . S
C19 H22 0.930 . S
N20 Co0 2.194 . S
N20 C15 1.328 . S
N20 C19 1.315 . S
H21 C15 0.929 . S
H22 C19 0.930 . S
H23 C11 0.929 . S
H24 C13 0.929 . S
O25 Co0 2.351 . S
O25 C28 1.244 . S
O26 Co0 2.155 . S
O26 C28 1.240 . S
O27 Co0 2.096 . S
O27 C8 1.247 . S
C28 O25 1.244 . S
C28 O26 1.240 . S
H29 C3 0.931 . S
H30 C12 0.931 . S
H31 C16 0.929 . S
H32 C18 0.930 . S
Co33 N37 2.148 . S
Co33 N43 2.128 . S
Co33 N53 2.194 . S
Co33 O58 2.351 . S
Co33 O59 2.155 . S
Co33 O60 2.096 . S
C34 N37 1.301 . S
C34 N38 1.328 1_455 S
C34 H39 0.930 . S
C35 C36 1.333 1_455 S
C35 N37 1.317 . S
C35 H40 0.930 . S
C36 C35 1.333 1_655 S
C36 N38 1.350 . S
C36 H62 0.931 . S
N37 Co33 2.148 . S
N37 C34 1.301 . S
N37 C35 1.317 . S
N38 C34 1.328 1_655 S
N38 C36 1.350 . S
H39 C34 0.930 . S
H40 C35 0.930 . S
C41 O42 1.224 . S
C41 O60 1.247 . S
O42 C41 1.224 . S
N43 Co33 2.128 . S
N43 C44 1.355 . S
N43 C46 1.311 . S
C44 N43 1.355 . S
C44 C45 1.363 . S
C44 H56 0.929 . S
C45 C44 1.363 . S
C45 N47 1.375 . S
C45 H63 0.931 . S
C46 N43 1.311 . S
C46 N47 1.347 . S
C46 H57 0.929 . S
N47 C45 1.375 . S
N47 C46 1.347 . S
C48 C51 1.365 1_556 S
C48 N53 1.328 . S
C48 H54 0.929 . S
C49 C50 1.362 . S
C49 C52 1.378 1_554 S
C49 H64 0.929 . S
C50 C49 1.362 . S
C50 C51 1.366 . S
C51 C48 1.365 1_554 S
C51 C50 1.366 . S
C51 H65 0.930 . S
C52 C49 1.378 1_556 S
C52 N53 1.315 . S
C52 H55 0.930 . S
N53 Co33 2.194 . S
N53 C48 1.328 . S
N53 C52 1.315 . S
H54 C48 0.929 . S
H55 C52 0.930 . S
H56 C44 0.929 . S
H57 C46 0.929 . S
O58 Co33 2.351 . S
O58 C61 1.244 . S
O59 Co33 2.155 . S
O59 C61 1.240 . S
O60 Co33 2.096 . S
O60 C41 1.247 . S
C61 O58 1.244 . S
C61 O59 1.240 . S
H62 C36 0.931 . S
H63 C45 0.931 . S
H64 C49 0.929 . S
H65 C51 0.930 . S
Co66 N70 2.148 . S
Co66 N76 2.128 . S
Co66 N86 2.194 . S
Co66 O91 2.351 . S
Co66 O92 2.155 . S
Co66 O93 2.096 . S
C67 N70 1.301 . S
C67 N71 1.328 . S
C67 H72 0.930 . S
C68 C69 1.333 . S
C68 N70 1.317 . S
C68 H73 0.930 . S
C69 C68 1.333 . S
C69 N71 1.350 . S
C69 H95 0.931 . S
N70 Co66 2.148 . S
N70 C67 1.301 . S
N70 C68 1.317 . S
N71 C67 1.328 . S
N71 C69 1.350 . S
H72 C67 0.930 . S
H73 C68 0.930 . S
C74 O75 1.224 . S
C74 O93 1.247 . S
O75 C74 1.224 . S
N76 Co66 2.128 . S
N76 C77 1.355 . S
N76 C79 1.311 . S
C77 N76 1.355 . S
C77 C78 1.363 1_655 S
C77 H89 0.929 . S
C78 C77 1.363 1_455 S
C78 N80 1.375 . S
C78 H96 0.931 . S
C79 N76 1.311 . S
C79 N80 1.347 1_655 S
C79 H90 0.929 . S
N80 C78 1.375 . S
N80 C79 1.347 1_455 S
C81 C84 1.365 . S
C81 N86 1.328 . S
C81 H87 0.929 . S
C82 C83 1.362 . S
C82 C85 1.378 . S
C82 H97 0.929 . S
C83 C82 1.362 . S
C83 C84 1.366 . S
C84 C81 1.365 . S
C84 C83 1.366 . S
C84 H98 0.930 . S
C85 C82 1.378 . S
C85 N86 1.315 . S
C85 H88 0.930 . S
N86 Co66 2.194 . S
N86 C81 1.328 . S
N86 C85 1.315 . S
H87 C81 0.929 . S
H88 C85 0.930 . S
H89 C77 0.929 . S
H90 C79 0.929 . S
O91 Co66 2.351 . S
O91 C94 1.244 . S
O92 Co66 2.155 . S
O92 C94 1.240 . S
O93 Co66 2.096 . S
O93 C74 1.247 . S
C94 O91 1.244 . S
C94 O92 1.240 . S
H95 C69 0.931 . S
H96 C78 0.931 . S
H97 C82 0.929 . S
H98 C84 0.930 . S
Co99 N103 2.148 . S
Co99 N109 2.128 . S
Co99 N119 2.194 . S
Co99 O124 2.351 . S
Co99 O125 2.155 . S
Co99 O126 2.096 . S
C100 N103 1.301 . S
C100 N104 1.328 1_655 S
C100 H105 0.930 . S
C101 C102 1.333 1_655 S
C101 N103 1.317 . S
C101 H106 0.930 . S
C102 C101 1.333 1_455 S
C102 N104 1.350 . S
C102 H128 0.931 . S
N103 Co99 2.148 . S
N103 C100 1.301 . S
N103 C101 1.317 . S
N104 C100 1.328 1_455 S
N104 C102 1.350 . S
H105 C100 0.930 . S
H106 C101 0.930 . S
C107 O108 1.224 . S
C107 O126 1.247 . S
O108 C107 1.224 . S
N109 Co99 2.128 . S
N109 C110 1.355 . S
N109 C112 1.311 . S
C110 N109 1.355 . S
C110 C111 1.363 . S
C110 H122 0.929 . S
C111 C110 1.363 . S
C111 N113 1.375 . S
C111 H129 0.931 . S
C112 N109 1.311 . S
C112 N113 1.347 . S
C112 H123 0.929 . S
N113 C111 1.375 . S
N113 C112 1.347 . S
C114 C117 1.365 1_554 S
C114 N119 1.328 . S
C114 H120 0.929 . S
C115 C116 1.362 . S
C115 C118 1.378 1_556 S
C115 H130 0.929 . S
C116 C115 1.362 . S
C116 C117 1.366 . S
C117 C114 1.365 1_556 S
C117 C116 1.366 . S
C117 H131 0.930 . S
C118 C115 1.378 1_554 S
C118 N119 1.315 . S
C118 H121 0.930 . S
N119 Co99 2.194 . S
N119 C114 1.328 . S
N119 C118 1.315 . S
H120 C114 0.929 . S
H121 C118 0.930 . S
H122 C110 0.929 . S
H123 C112 0.929 . S
O124 Co99 2.351 . S
O124 C127 1.244 . S
O125 Co99 2.155 . S
O125 C127 1.240 . S
O126 Co99 2.096 . S
O126 C107 1.247 . S
C127 O124 1.244 . S
C127 O125 1.240 . S
H128 C102 0.931 . S
H129 C111 0.931 . S
H130 C115 0.929 . S
H131 C117 0.930 . S
Co132 N136 2.148 . S
Co132 N142 2.128 . S
Co132 N152 2.194 . S
Co132 O157 2.351 . S
Co132 O158 2.155 . S
Co132 O159 2.096 . S
C133 N136 1.301 . S
C133 N137 1.328 . S
C133 H138 0.930 . S
C134 C135 1.333 . S
C134 N136 1.317 . S
C134 H139 0.930 . S
C135 C134 1.333 . S
C135 N137 1.350 . S
C135 H161 0.931 . S
N136 Co132 2.148 . S
N136 C133 1.301 . S
N136 C134 1.317 . S
N137 C133 1.328 . S
N137 C135 1.350 . S
H138 C133 0.930 . S
H139 C134 0.930 . S
C140 O141 1.224 . S
C140 O159 1.247 . S
O141 C140 1.224 . S
N142 Co132 2.128 . S
N142 C143 1.355 . S
N142 C145 1.311 . S
C143 N142 1.355 . S
C143 C144 1.363 1_455 S
C143 H155 0.929 . S
C144 C143 1.363 1_655 S
C144 N146 1.375 . S
C144 H162 0.931 . S
C145 N142 1.311 . S
C145 N146 1.347 1_455 S
C145 H156 0.929 . S
N146 C144 1.375 . S
N146 C145 1.347 1_655 S
C147 C150 1.365 . S
C147 N152 1.328 . S
C147 H153 0.929 . S
C148 C149 1.362 . S
C148 C151 1.378 . S
C148 H163 0.929 . S
C149 C148 1.362 . S
C149 C150 1.366 . S
C150 C147 1.365 . S
C150 C149 1.366 . S
C150 H164 0.930 . S
C151 C148 1.378 . S
C151 N152 1.315 . S
C151 H154 0.930 . S
N152 Co132 2.194 . S
N152 C147 1.328 . S
N152 C151 1.315 . S
H153 C147 0.929 . S
H154 C151 0.930 . S
H155 C143 0.929 . S
H156 C145 0.929 . S
O157 Co132 2.351 . S
O157 C160 1.244 . S
O158 Co132 2.155 . S
O158 C160 1.240 . S
O159 Co132 2.096 . S
O159 C140 1.247 . S
C160 O157 1.244 . S
C160 O158 1.240 . S
H161 C135 0.931 . S
H162 C144 0.931 . S
H163 C148 0.929 . S
H164 C150 0.930 . S
Co165 N169 2.148 . S
Co165 N175 2.128 . S
Co165 N185 2.194 . S
Co165 O190 2.351 . S
Co165 O191 2.155 . S
Co165 O192 2.096 . S
C166 N169 1.301 . S
C166 N170 1.328 1_455 S
C166 H171 0.930 . S
C167 C168 1.333 1_455 S
C167 N169 1.317 . S
C167 H172 0.930 . S
C168 C167 1.333 1_655 S
C168 N170 1.350 . S
C168 H194 0.931 . S
N169 Co165 2.148 . S
N169 C166 1.301 . S
N169 C167 1.317 . S
N170 C166 1.328 1_655 S
N170 C168 1.350 . S
H171 C166 0.930 . S
H172 C167 0.930 . S
C173 O174 1.224 . S
C173 O192 1.247 . S
O174 C173 1.224 . S
N175 Co165 2.128 . S
N175 C176 1.355 . S
N175 C178 1.311 . S
C176 N175 1.355 . S
C176 C177 1.363 . S
C176 H188 0.929 . S
C177 C176 1.363 . S
C177 N179 1.375 . S
C177 H195 0.931 . S
C178 N175 1.311 . S
C178 N179 1.347 . S
C178 H189 0.929 . S
N179 C177 1.375 . S
N179 C178 1.347 . S
C180 C183 1.365 . S
C180 N185 1.328 . S
C180 H186 0.929 . S
C181 C182 1.362 . S
C181 C184 1.378 . S
C181 H196 0.929 . S
C182 C181 1.362 . S
C182 C183 1.366 . S
C183 C180 1.365 . S
C183 C182 1.366 . S
C183 H197 0.930 . S
C184 C181 1.378 . S
C184 N185 1.315 . S
C184 H187 0.930 . S
N185 Co165 2.194 . S
N185 C180 1.328 . S
N185 C184 1.315 . S
H186 C180 0.929 . S
H187 C184 0.930 . S
H188 C176 0.929 . S
H189 C178 0.929 . S
O190 Co165 2.351 . S
O190 C193 1.244 . S
O191 Co165 2.155 . S
O191 C193 1.240 . S
O192 Co165 2.096 . S
O192 C173 1.247 . S
C193 O190 1.244 . S
C193 O191 1.240 . S
H194 C168 0.931 . S
H195 C177 0.931 . S
H196 C181 0.929 . S
H197 C183 0.930 . S
Co198 N202 2.148 . S
Co198 N208 2.128 . S
Co198 N218 2.194 . S
Co198 O223 2.351 . S
Co198 O224 2.155 . S
Co198 O225 2.096 . S
C199 N202 1.301 . S
C199 N203 1.328 . S
C199 H204 0.930 . S
C200 C201 1.333 . S
C200 N202 1.317 . S
C200 H205 0.930 . S
C201 C200 1.333 . S
C201 N203 1.350 . S
C201 H227 0.931 . S
N202 Co198 2.148 . S
N202 C199 1.301 . S
N202 C200 1.317 . S
N203 C199 1.328 . S
N203 C201 1.350 . S
H204 C199 0.930 . S
H205 C200 0.930 . S
C206 O207 1.224 . S
C206 O225 1.247 . S
O207 C206 1.224 . S
N208 Co198 2.128 . S
N208 C209 1.355 . S
N208 C211 1.311 . S
C209 N208 1.355 . S
C209 C210 1.363 1_655 S
C209 H221 0.929 . S
C210 C209 1.363 1_455 S
C210 N212 1.375 . S
C210 H228 0.931 . S
C211 N208 1.311 . S
C211 N212 1.347 1_655 S
C211 H222 0.929 . S
N212 C210 1.375 . S
N212 C211 1.347 1_455 S
C213 C216 1.365 . S
C213 N218 1.328 . S
C213 H219 0.929 . S
C214 C215 1.362 . S
C214 C217 1.378 . S
C214 H229 0.929 . S
C215 C214 1.362 . S
C215 C216 1.366 . S
C216 C213 1.365 . S
C216 C215 1.366 . S
C216 H230 0.930 . S
C217 C214 1.378 . S
C217 N218 1.315 . S
C217 H220 0.930 . S
N218 Co198 2.194 . S
N218 C213 1.328 . S
N218 C217 1.315 . S
H219 C213 0.929 . S
H220 C217 0.930 . S
H221 C209 0.929 . S
H222 C211 0.929 . S
O223 Co198 2.351 . S
O223 C226 1.244 . S
O224 Co198 2.155 . S
O224 C226 1.240 . S
O225 Co198 2.096 . S
O225 C206 1.247 . S
C226 O223 1.244 . S
C226 O224 1.240 . S
H227 C201 0.931 . S
H228 C210 0.931 . S
H229 C214 0.929 . S
H230 C216 0.930 . S
Co231 N235 2.148 . S
Co231 N241 2.128 . S
Co231 N251 2.194 . S
Co231 O256 2.351 . S
Co231 O257 2.155 . S
Co231 O258 2.096 . S
C232 N235 1.301 . S
C232 N236 1.328 1_655 S
C232 H237 0.930 . S
C233 C234 1.333 1_655 S
C233 N235 1.317 . S
C233 H238 0.930 . S
C234 C233 1.333 1_455 S
C234 N236 1.350 . S
C234 H260 0.931 . S
N235 Co231 2.148 . S
N235 C232 1.301 . S
N235 C233 1.317 . S
N236 C232 1.328 1_455 S
N236 C234 1.350 . S
H237 C232 0.930 . S
H238 C233 0.930 . S
C239 O240 1.224 . S
C239 O258 1.247 . S
O240 C239 1.224 . S
N241 Co231 2.128 . S
N241 C242 1.355 . S
N241 C244 1.311 . S
C242 N241 1.355 . S
C242 C243 1.363 . S
C242 H254 0.929 . S
C243 C242 1.363 . S
C243 N245 1.375 . S
C243 H261 0.931 . S
C244 N241 1.311 . S
C244 N245 1.347 . S
C244 H255 0.929 . S
N245 C243 1.375 . S
N245 C244 1.347 . S
C246 C249 1.365 . S
C246 N251 1.328 . S
C246 H252 0.929 . S
C247 C248 1.362 . S
C247 C250 1.378 . S
C247 H262 0.929 . S
C248 C247 1.362 . S
C248 C249 1.366 . S
C249 C246 1.365 . S
C249 C248 1.366 . S
C249 H263 0.930 . S
C250 C247 1.378 . S
C250 N251 1.315 . S
C250 H253 0.930 . S
N251 Co231 2.194 . S
N251 C246 1.328 . S
N251 C250 1.315 . S
H252 C246 0.929 . S
H253 C250 0.930 . S
H254 C242 0.929 . S
H255 C244 0.929 . S
O256 Co231 2.351 . S
O256 C259 1.244 . S
O257 Co231 2.155 . S
O257 C259 1.240 . S
O258 Co231 2.096 . S
O258 C239 1.247 . S
C259 O256 1.244 . S
C259 O257 1.240 . S
H260 C234 0.931 . S
H261 C243 0.931 . S
H262 C247 0.929 . S
H263 C249 0.930 . S
Co264 N268 2.148 . S
Co264 N274 2.128 . S
Co264 N284 2.194 . S
Co264 O289 2.351 . S
Co264 O290 2.155 . S
Co264 O291 2.096 . S
C265 N268 1.301 . S
C265 N269 1.328 . S
C265 H270 0.930 . S
C266 C267 1.333 . S
C266 N268 1.317 . S
C266 H271 0.930 . S
C267 C266 1.333 . S
C267 N269 1.350 . S
C267 H293 0.931 . S
N268 Co264 2.148 . S
N268 C265 1.301 . S
N268 C266 1.317 . S
N269 C265 1.328 . S
N269 C267 1.350 . S
H270 C265 0.930 . S
H271 C266 0.930 . S
C272 O273 1.224 . S
C272 O291 1.247 . S
O273 C272 1.224 . S
N274 Co264 2.128 . S
N274 C275 1.355 . S
N274 C277 1.311 . S
C275 N274 1.355 . S
C275 C276 1.363 . S
C275 H287 0.929 . S
C276 C275 1.363 . S
C276 N278 1.375 . S
C276 H294 0.931 . S
C277 N274 1.311 . S
C277 N278 1.347 . S
C277 H288 0.929 . S
N278 C276 1.375 . S
N278 C277 1.347 . S
C279 C282 1.365 . S
C279 N284 1.328 . S
C279 H285 0.929 . S
C280 C281 1.362 . S
C280 C283 1.378 . S
C280 H295 0.929 . S
C281 C280 1.362 . S
C281 C282 1.366 . S
C282 C279 1.365 . S
C282 C281 1.366 . S
C282 H296 0.930 . S
C283 C280 1.378 . S
C283 N284 1.315 . S
C283 H286 0.930 . S
N284 Co264 2.194 . S
N284 C279 1.328 . S
N284 C283 1.315 . S
H285 C279 0.929 . S
H286 C283 0.930 . S
H287 C275 0.929 . S
H288 C277 0.929 . S
O289 Co264 2.351 . S
O289 C292 1.244 . S
O290 Co264 2.155 . S
O290 C292 1.240 . S
O291 Co264 2.096 . S
O291 C272 1.247 . S
C292 O289 1.244 . S
C292 O290 1.240 . S
H293 C267 0.931 . S
H294 C276 0.931 . S
H295 C280 0.929 . S
H296 C282 0.930 . S
Co297 N301 2.148 . S
Co297 N307 2.128 . S
Co297 N317 2.194 . S
Co297 O322 2.351 . S
Co297 O323 2.155 . S
Co297 O324 2.096 . S
C298 N301 1.301 . S
C298 N302 1.328 . S
C298 H303 0.930 . S
C299 C300 1.333 . S
C299 N301 1.317 . S
C299 H304 0.930 . S
C300 C299 1.333 . S
C300 N302 1.350 . S
C300 H326 0.931 . S
N301 Co297 2.148 . S
N301 C298 1.301 . S
N301 C299 1.317 . S
N302 C298 1.328 . S
N302 C300 1.350 . S
H303 C298 0.930 . S
H304 C299 0.930 . S
C305 O306 1.224 . S
C305 O324 1.247 . S
O306 C305 1.224 . S
N307 Co297 2.128 . S
N307 C308 1.355 . S
N307 C310 1.311 . S
C308 N307 1.355 . S
C308 C309 1.363 . S
C308 H320 0.929 . S
C309 C308 1.363 . S
C309 N311 1.375 . S
C309 H327 0.931 . S
C310 N307 1.311 . S
C310 N311 1.347 . S
C310 H321 0.929 . S
N311 C309 1.375 . S
N311 C310 1.347 . S
C312 C315 1.365 . S
C312 N317 1.328 . S
C312 H318 0.929 . S
C313 C314 1.362 . S
C313 C316 1.378 . S
C313 H328 0.929 . S
C314 C313 1.362 . S
C314 C315 1.366 . S
C315 C312 1.365 . S
C315 C314 1.366 . S
C315 H329 0.930 . S
C316 C313 1.378 . S
C316 N317 1.315 . S
C316 H319 0.930 . S
N317 Co297 2.194 . S
N317 C312 1.328 . S
N317 C316 1.315 . S
H318 C312 0.929 . S
H319 C316 0.930 . S
H320 C308 0.929 . S
H321 C310 0.929 . S
O322 Co297 2.351 . S
O322 C325 1.244 . S
O323 Co297 2.155 . S
O323 C325 1.240 . S
O324 Co297 2.096 . S
O324 C305 1.247 . S
C325 O322 1.244 . S
C325 O323 1.240 . S
H326 C300 0.931 . S
H327 C309 0.931 . S
H328 C313 0.929 . S
H329 C315 0.930 . S
Co330 N334 2.148 . S
Co330 N340 2.128 . S
Co330 N350 2.194 . S
Co330 O355 2.351 . S
Co330 O356 2.155 . S
Co330 O357 2.096 . S
C331 N334 1.301 . S
C331 N335 1.328 . S
C331 H336 0.930 . S
C332 C333 1.333 . S
C332 N334 1.317 . S
C332 H337 0.930 . S
C333 C332 1.333 . S
C333 N335 1.350 . S
C333 H359 0.931 . S
N334 Co330 2.148 . S
N334 C331 1.301 . S
N334 C332 1.317 . S
N335 C331 1.328 . S
N335 C333 1.350 . S
H336 C331 0.930 . S
H337 C332 0.930 . S
C338 O339 1.224 . S
C338 O357 1.247 . S
O339 C338 1.224 . S
N340 Co330 2.128 . S
N340 C341 1.355 . S
N340 C343 1.311 . S
C341 N340 1.355 . S
C341 C342 1.363 . S
C341 H353 0.929 . S
C342 C341 1.363 . S
C342 N344 1.375 . S
C342 H360 0.931 . S
C343 N340 1.311 . S
C343 N344 1.347 . S
C343 H354 0.929 . S
N344 C342 1.375 . S
N344 C343 1.347 . S
C345 C348 1.365 . S
C345 N350 1.328 . S
C345 H351 0.929 . S
C346 C347 1.362 . S
C346 C349 1.378 . S
C346 H361 0.929 . S
C347 C346 1.362 . S
C347 C348 1.366 . S
C348 C345 1.365 . S
C348 C347 1.366 . S
C348 H362 0.930 . S
C349 C346 1.378 . S
C349 N350 1.315 . S
C349 H352 0.930 . S
N350 Co330 2.194 . S
N350 C345 1.328 . S
N350 C349 1.315 . S
H351 C345 0.929 . S
H352 C349 0.930 . S
H353 C341 0.929 . S
H354 C343 0.929 . S
O355 Co330 2.351 . S
O355 C358 1.244 . S
O356 Co330 2.155 . S
O356 C358 1.240 . S
O357 Co330 2.096 . S
O357 C338 1.247 . S
C358 O355 1.244 . S
C358 O356 1.240 . S
H359 C333 0.931 . S
H360 C342 0.931 . S
H361 C346 0.929 . S
H362 C348 0.930 . S
Co363 N367 2.148 . S
Co363 N373 2.128 . S
Co363 N383 2.194 . S
Co363 O388 2.351 . S
Co363 O389 2.155 . S
Co363 O390 2.096 . S
C364 N367 1.301 . S
C364 N368 1.328 . S
C364 H369 0.930 . S
C365 C366 1.333 . S
C365 N367 1.317 . S
C365 H370 0.930 . S
C366 C365 1.333 . S
C366 N368 1.350 . S
C366 H392 0.931 . S
N367 Co363 2.148 . S
N367 C364 1.301 . S
N367 C365 1.317 . S
N368 C364 1.328 . S
N368 C366 1.350 . S
H369 C364 0.930 . S
H370 C365 0.930 . S
C371 O372 1.224 . S
C371 O390 1.247 . S
O372 C371 1.224 . S
N373 Co363 2.128 . S
N373 C374 1.355 . S
N373 C376 1.311 . S
C374 N373 1.355 . S
C374 C375 1.363 . S
C374 H386 0.929 . S
C375 C374 1.363 . S
C375 N377 1.375 . S
C375 H393 0.931 . S
C376 N373 1.311 . S
C376 N377 1.347 . S
C376 H387 0.929 . S
N377 C375 1.375 . S
N377 C376 1.347 . S
C378 C381 1.365 . S
C378 N383 1.328 . S
C378 H384 0.929 . S
C379 C380 1.362 . S
C379 C382 1.378 . S
C379 H394 0.929 . S
C380 C379 1.362 . S
C380 C381 1.366 . S
C381 C378 1.365 . S
C381 C380 1.366 . S
C381 H395 0.930 . S
C382 C379 1.378 . S
C382 N383 1.315 . S
C382 H385 0.930 . S
N383 Co363 2.194 . S
N383 C378 1.328 . S
N383 C382 1.315 . S
H384 C378 0.929 . S
H385 C382 0.930 . S
H386 C374 0.929 . S
H387 C376 0.929 . S
O388 Co363 2.351 . S
O388 C391 1.244 . S
O389 Co363 2.155 . S
O389 C391 1.240 . S
O390 Co363 2.096 . S
O390 C371 1.247 . S
C391 O388 1.244 . S
C391 O389 1.240 . S
H392 C366 0.931 . S
H393 C375 0.931 . S
H394 C379 0.929 . S
H395 C381 0.930 . S
Co396 N400 2.148 . S
Co396 N406 2.128 . S
Co396 N416 2.194 . S
Co396 O421 2.351 . S
Co396 O422 2.155 . S
Co396 O423 2.096 . S
C397 N400 1.301 . S
C397 N401 1.328 . S
C397 H402 0.930 . S
C398 C399 1.333 . S
C398 N400 1.317 . S
C398 H403 0.930 . S
C399 C398 1.333 . S
C399 N401 1.350 . S
C399 H425 0.931 . S
N400 Co396 2.148 . S
N400 C397 1.301 . S
N400 C398 1.317 . S
N401 C397 1.328 . S
N401 C399 1.350 . S
H402 C397 0.930 . S
H403 C398 0.930 . S
C404 O405 1.224 . S
C404 O423 1.247 . S
O405 C404 1.224 . S
N406 Co396 2.128 . S
N406 C407 1.355 . S
N406 C409 1.311 . S
C407 N406 1.355 . S
C407 C408 1.363 . S
C407 H419 0.929 . S
C408 C407 1.363 . S
C408 N410 1.375 . S
C408 H426 0.931 . S
C409 N406 1.311 . S
C409 N410 1.347 . S
C409 H420 0.929 . S
N410 C408 1.375 . S
N410 C409 1.347 . S
C411 C414 1.365 . S
C411 N416 1.328 . S
C411 H417 0.929 . S
C412 C413 1.362 . S
C412 C415 1.378 . S
C412 H427 0.929 . S
C413 C412 1.362 . S
C413 C414 1.366 . S
C414 C411 1.365 . S
C414 C413 1.366 . S
C414 H428 0.930 . S
C415 C412 1.378 . S
C415 N416 1.315 . S
C415 H418 0.930 . S
N416 Co396 2.194 . S
N416 C411 1.328 . S
N416 C415 1.315 . S
H417 C411 0.929 . S
H418 C415 0.930 . S
H419 C407 0.929 . S
H420 C409 0.929 . S
O421 Co396 2.351 . S
O421 C424 1.244 . S
O422 Co396 2.155 . S
O422 C424 1.240 . S
O423 Co396 2.096 . S
O423 C404 1.247 . S
C424 O421 1.244 . S
C424 O422 1.240 . S
H425 C399 0.931 . S
H426 C408 0.931 . S
H427 C412 0.929 . S
H428 C414 0.930 . S
Co429 N433 2.148 . S
Co429 N439 2.128 . S
Co429 N449 2.194 . S
Co429 O454 2.351 . S
Co429 O455 2.155 . S
Co429 O456 2.096 . S
C430 N433 1.301 . S
C430 N434 1.328 . S
C430 H435 0.930 . S
C431 C432 1.333 . S
C431 N433 1.317 . S
C431 H436 0.930 . S
C432 C431 1.333 . S
C432 N434 1.350 . S
C432 H458 0.931 . S
N433 Co429 2.148 . S
N433 C430 1.301 . S
N433 C431 1.317 . S
N434 C430 1.328 . S
N434 C432 1.350 . S
H435 C430 0.930 . S
H436 C431 0.930 . S
C437 O438 1.224 . S
C437 O456 1.247 . S
O438 C437 1.224 . S
N439 Co429 2.128 . S
N439 C440 1.355 . S
N439 C442 1.311 . S
C440 N439 1.355 . S
C440 C441 1.363 . S
C440 H452 0.929 . S
C441 C440 1.363 . S
C441 N443 1.375 . S
C441 H459 0.931 . S
C442 N439 1.311 . S
C442 N443 1.347 . S
C442 H453 0.929 . S
N443 C441 1.375 . S
N443 C442 1.347 . S
C444 C447 1.365 1_556 S
C444 N449 1.328 . S
C444 H450 0.929 . S
C445 C446 1.362 . S
C445 C448 1.378 1_554 S
C445 H460 0.929 . S
C446 C445 1.362 . S
C446 C447 1.366 . S
C447 C444 1.365 1_554 S
C447 C446 1.366 . S
C447 H461 0.930 . S
C448 C445 1.378 1_556 S
C448 N449 1.315 . S
C448 H451 0.930 . S
N449 Co429 2.194 . S
N449 C444 1.328 . S
N449 C448 1.315 . S
H450 C444 0.929 . S
H451 C448 0.930 . S
H452 C440 0.929 . S
H453 C442 0.929 . S
O454 Co429 2.351 . S
O454 C457 1.244 . S
O455 Co429 2.155 . S
O455 C457 1.240 . S
O456 Co429 2.096 . S
O456 C437 1.247 . S
C457 O454 1.244 . S
C457 O455 1.240 . S
H458 C432 0.931 . S
H459 C441 0.931 . S
H460 C445 0.929 . S
H461 C447 0.930 . S
Co462 N466 2.148 . S
Co462 N472 2.128 . S
Co462 N482 2.194 . S
Co462 O487 2.351 . S
Co462 O488 2.155 . S
Co462 O489 2.096 . S
C463 N466 1.301 . S
C463 N467 1.328 . S
C463 H468 0.930 . S
C464 C465 1.333 . S
C464 N466 1.317 . S
C464 H469 0.930 . S
C465 C464 1.333 . S
C465 N467 1.350 . S
C465 H491 0.931 . S
N466 Co462 2.148 . S
N466 C463 1.301 . S
N466 C464 1.317 . S
N467 C463 1.328 . S
N467 C465 1.350 . S
H468 C463 0.930 . S
H469 C464 0.930 . S
C470 O471 1.224 . S
C470 O489 1.247 . S
O471 C470 1.224 . S
N472 Co462 2.128 . S
N472 C473 1.355 . S
N472 C475 1.311 . S
C473 N472 1.355 . S
C473 C474 1.363 . S
C473 H485 0.929 . S
C474 C473 1.363 . S
C474 N476 1.375 . S
C474 H492 0.931 . S
C475 N472 1.311 . S
C475 N476 1.347 . S
C475 H486 0.929 . S
N476 C474 1.375 . S
N476 C475 1.347 . S
C477 C480 1.365 . S
C477 N482 1.328 . S
C477 H483 0.929 . S
C478 C479 1.362 . S
C478 C481 1.378 . S
C478 H493 0.929 . S
C479 C478 1.362 . S
C479 C480 1.366 . S
C480 C477 1.365 . S
C480 C479 1.366 . S
C480 H494 0.930 . S
C481 C478 1.378 . S
C481 N482 1.315 . S
C481 H484 0.930 . S
N482 Co462 2.194 . S
N482 C477 1.328 . S
N482 C481 1.315 . S
H483 C477 0.929 . S
H484 C481 0.930 . S
H485 C473 0.929 . S
H486 C475 0.929 . S
O487 Co462 2.351 . S
O487 C490 1.244 . S
O488 Co462 2.155 . S
O488 C490 1.240 . S
O489 Co462 2.096 . S
O489 C470 1.247 . S
C490 O487 1.244 . S
C490 O488 1.240 . S
H491 C465 0.931 . S
H492 C474 0.931 . S
H493 C478 0.929 . S
H494 C480 0.930 . S
Co495 N499 2.148 . S
Co495 N505 2.128 . S
Co495 N515 2.194 . S
Co495 O520 2.351 . S
Co495 O521 2.155 . S
Co495 O522 2.096 . S
C496 N499 1.301 . S
C496 N500 1.328 . S
C496 H501 0.930 . S
C497 C498 1.333 . S
C497 N499 1.317 . S
C497 H502 0.930 . S
C498 C497 1.333 . S
C498 N500 1.350 . S
C498 H524 0.931 . S
N499 Co495 2.148 . S
N499 C496 1.301 . S
N499 C497 1.317 . S
N500 C496 1.328 . S
N500 C498 1.350 . S
H501 C496 0.930 . S
H502 C497 0.930 . S
C503 O504 1.224 . S
C503 O522 1.247 . S
O504 C503 1.224 . S
N505 Co495 2.128 . S
N505 C506 1.355 . S
N505 C508 1.311 . S
C506 N505 1.355 . S
C506 C507 1.363 . S
C506 H518 0.929 . S
C507 C506 1.363 . S
C507 N509 1.375 . S
C507 H525 0.931 . S
C508 N505 1.311 . S
C508 N509 1.347 . S
C508 H519 0.929 . S
N509 C507 1.375 . S
N509 C508 1.347 . S
C510 C513 1.365 1_554 S
C510 N515 1.328 . S
C510 H516 0.929 . S
C511 C512 1.362 . S
C511 C514 1.378 1_556 S
C511 H526 0.929 . S
C512 C511 1.362 . S
C512 C513 1.366 . S
C513 C510 1.365 1_556 S
C513 C512 1.366 . S
C513 H527 0.930 . S
C514 C511 1.378 1_554 S
C514 N515 1.315 . S
C514 H517 0.930 . S
N515 Co495 2.194 . S
N515 C510 1.328 . S
N515 C514 1.315 . S
H516 C510 0.929 . S
H517 C514 0.930 . S
H518 C506 0.929 . S
H519 C508 0.929 . S
O520 Co495 2.351 . S
O520 C523 1.244 . S
O521 Co495 2.155 . S
O521 C523 1.240 . S
O522 Co495 2.096 . S
O522 C503 1.247 . S
C523 O520 1.244 . S
C523 O521 1.240 . S
H524 C498 0.931 . S
H525 C507 0.931 . S
H526 C511 0.929 . S
H527 C513 0.930 . S
C528 C529 1.369 . S
C528 C530 1.419 . S
C528 H532 0.930 . S
C529 C528 1.369 . S
C529 C538 1.429 . S
C530 C528 1.419 . S
C530 C531 1.363 . S
C530 H533 0.929 . S
C531 C530 1.363 . S
C531 C537 1.428 . S
H532 C528 0.930 . S
H533 C530 0.929 . S
S534 N535 1.613 . S
S534 N536 1.610 . S
N535 S534 1.613 . S
N535 C538 1.350 . S
N536 S534 1.610 . S
N536 C537 1.351 . S
C537 C531 1.428 . S
C537 N536 1.351 . S
C537 C538 1.434 . S
C538 C529 1.429 . S
C538 N535 1.350 . S
C538 C537 1.434 . S
C539 C540 1.369 . S
C539 C541 1.419 . S
C539 H543 0.930 . S
C540 C539 1.369 . S
C540 C549 1.429 . S
C541 C539 1.419 . S
C541 C542 1.363 . S
C541 H544 0.929 . S
C542 C541 1.363 . S
C542 C548 1.428 . S
H543 C539 0.930 . S
H544 C541 0.929 . S
S545 N546 1.613 . S
S545 N547 1.610 . S
N546 S545 1.613 . S
N546 C549 1.350 . S
N547 S545 1.610 . S
N547 C548 1.351 . S
C548 C542 1.428 . S
C548 N547 1.351 . S
C548 C549 1.434 . S
C549 C540 1.429 . S
C549 N546 1.350 . S
C549 C548 1.434 . S
C550 C551 1.369 . S
C550 C552 1.419 . S
C550 H554 0.930 . S
C551 C550 1.369 . S
C551 C560 1.429 . S
C552 C550 1.419 . S
C552 C553 1.363 . S
C552 H555 0.929 . S
C553 C552 1.363 . S
C553 C559 1.428 . S
H554 C550 0.930 . S
H555 C552 0.929 . S
S556 N557 1.613 . S
S556 N558 1.610 . S
N557 S556 1.613 . S
N557 C560 1.350 . S
N558 S556 1.610 . S
N558 C559 1.351 . S
C559 C553 1.428 . S
C559 N558 1.351 . S
C559 C560 1.434 . S
C560 C551 1.429 . S
C560 N557 1.350 . S
C560 C559 1.434 . S
C561 C562 1.369 . S
C561 C563 1.419 . S
C561 H565 0.930 . S
C562 C561 1.369 . S
C562 C571 1.429 . S
C563 C561 1.419 . S
C563 C564 1.363 . S
C563 H566 0.929 . S
C564 C563 1.363 . S
C564 C570 1.428 . S
H565 C561 0.930 . S
H566 C563 0.929 . S
S567 N568 1.613 . S
S567 N569 1.610 . S
N568 S567 1.613 . S
N568 C571 1.350 . S
N569 S567 1.610 . S
N569 C570 1.351 . S
C570 C564 1.428 . S
C570 N569 1.351 . S
C570 C571 1.434 . S
C571 C562 1.429 . S
C571 N568 1.350 . S
C571 C570 1.434 . S
C572 C573 1.369 . S
C572 C574 1.419 . S
C572 H576 0.930 . S
C573 C572 1.369 . S
C573 C582 1.429 . S
C574 C572 1.419 . S
C574 C575 1.363 . S
C574 H577 0.929 . S
C575 C574 1.363 . S
C575 C581 1.428 . S
H576 C572 0.930 . S
H577 C574 0.929 . S
S578 N579 1.613 . S
S578 N580 1.610 . S
N579 S578 1.613 . S
N579 C582 1.350 . S
N580 S578 1.610 . S
N580 C581 1.351 . S
C581 C575 1.428 . S
C581 N580 1.351 . S
C581 C582 1.434 . S
C582 C573 1.429 . S
C582 N579 1.350 . S
C582 C581 1.434 . S
C583 C584 1.369 . S
C583 C585 1.419 . S
C583 H587 0.930 . S
C584 C583 1.369 . S
C584 C593 1.429 . S
C585 C583 1.419 . S
C585 C586 1.363 . S
C585 H588 0.929 . S
C586 C585 1.363 . S
C586 C592 1.428 . S
H587 C583 0.930 . S
H588 C585 0.929 . S
S589 N590 1.613 . S
S589 N591 1.610 . S
N590 S589 1.613 . S
N590 C593 1.350 . S
N591 S589 1.610 . S
N591 C592 1.351 . S
C592 C586 1.428 . S
C592 N591 1.351 . S
C592 C593 1.434 . S
C593 C584 1.429 . S
C593 N590 1.350 . S
C593 C592 1.434 . S
C594 C595 1.369 . S
C594 C596 1.419 . S
C594 H598 0.930 . S
C595 C594 1.369 . S
C595 C604 1.429 . S
C596 C594 1.419 . S
C596 C597 1.363 . S
C596 H599 0.929 . S
C597 C596 1.363 . S
C597 C603 1.428 . S
H598 C594 0.930 . S
H599 C596 0.929 . S
S600 N601 1.613 . S
S600 N602 1.610 . S
N601 S600 1.613 . S
N601 C604 1.350 . S
N602 S600 1.610 . S
N602 C603 1.351 . S
C603 C597 1.428 . S
C603 N602 1.351 . S
C603 C604 1.434 . S
C604 C595 1.429 . S
C604 N601 1.350 . S
C604 C603 1.434 . S
C605 C606 1.369 . S
C605 C607 1.419 . S
C605 H609 0.930 . S
C606 C605 1.369 . S
C606 C615 1.429 . S
C607 C605 1.419 . S
C607 C608 1.363 . S
C607 H610 0.929 . S
C608 C607 1.363 . S
C608 C614 1.428 . S
H609 C605 0.930 . S
H610 C607 0.929 . S
S611 N612 1.613 . S
S611 N613 1.610 . S
N612 S611 1.613 . S
N612 C615 1.350 . S
N613 S611 1.610 . S
N613 C614 1.351 . S
C614 C608 1.428 . S
C614 N613 1.351 . S
C614 C615 1.434 . S
C615 C606 1.429 . S
C615 N612 1.350 . S
C615 C614 1.434 . S
C616 C617 1.369 . S
C616 C618 1.419 . S
C616 H620 0.930 . S
C617 C616 1.369 . S
C617 C626 1.429 . S
C618 C616 1.419 . S
C618 C619 1.363 . S
C618 H621 0.929 . S
C619 C618 1.363 . S
C619 C625 1.428 . S
H620 C616 0.930 . S
H621 C618 0.929 . S
S622 N623 1.613 . S
S622 N624 1.610 . S
N623 S622 1.613 . S
N623 C626 1.350 . S
N624 S622 1.610 . S
N624 C625 1.351 . S
C625 C619 1.428 . S
C625 N624 1.351 . S
C625 C626 1.434 . S
C626 C617 1.429 . S
C626 N623 1.350 . S
C626 C625 1.434 . S
C627 C628 1.369 . S
C627 C629 1.419 . S
C627 H631 0.930 . S
C628 C627 1.369 . S
C628 C637 1.429 . S
C629 C627 1.419 . S
C629 C630 1.363 . S
C629 H632 0.929 . S
C630 C629 1.363 . S
C630 C636 1.428 . S
H631 C627 0.930 . S
H632 C629 0.929 . S
S633 N634 1.613 . S
S633 N635 1.610 . S
N634 S633 1.613 . S
N634 C637 1.350 . S
N635 S633 1.610 . S
N635 C636 1.351 . S
C636 C630 1.428 . S
C636 N635 1.351 . S
C636 C637 1.434 . S
C637 C628 1.429 . S
C637 N634 1.350 . S
C637 C636 1.434 . S
C638 C639 1.369 . S
C638 C640 1.419 . S
C638 H642 0.930 . S
C639 C638 1.369 . S
C639 C648 1.429 . S
C640 C638 1.419 . S
C640 C641 1.363 . S
C640 H643 0.929 . S
C641 C640 1.363 . S
C641 C647 1.428 . S
H642 C638 0.930 . S
H643 C640 0.929 . S
S644 N645 1.613 . S
S644 N646 1.610 . S
N645 S644 1.613 . S
N645 C648 1.350 . S
N646 S644 1.610 . S
N646 C647 1.351 . S
C647 C641 1.428 . S
C647 N646 1.351 . S
C647 C648 1.434 . S
C648 C639 1.429 . S
C648 N645 1.350 . S
C648 C647 1.434 . S
C649 C650 1.369 . S
C649 C651 1.419 . S
C649 H653 0.930 . S
C650 C649 1.369 . S
C650 C659 1.429 . S
C651 C649 1.419 . S
C651 C652 1.363 . S
C651 H654 0.929 . S
C652 C651 1.363 . S
C652 C658 1.428 . S
H653 C649 0.930 . S
H654 C651 0.929 . S
S655 N656 1.613 . S
S655 N657 1.610 . S
N656 S655 1.613 . S
N656 C659 1.350 . S
N657 S655 1.610 . S
N657 C658 1.351 . S
C658 C652 1.428 . S
C658 N657 1.351 . S
C658 C659 1.434 . S
C659 C650 1.429 . S
C659 N656 1.350 . S
C659 C658 1.434 . S
C660 C661 1.369 . S
C660 C662 1.419 . S
C660 H664 0.930 . S
C661 C660 1.369 . S
C661 C670 1.429 . S
C662 C660 1.419 . S
C662 C663 1.363 . S
C662 H665 0.929 . S
C663 C662 1.363 . S
C663 C669 1.428 . S
H664 C660 0.930 . S
H665 C662 0.929 . S
S666 N667 1.613 . S
S666 N668 1.610 . S
N667 S666 1.613 . S
N667 C670 1.350 . S
N668 S666 1.610 . S
N668 C669 1.351 . S
C669 C663 1.428 . S
C669 N668 1.351 . S
C669 C670 1.434 . S
C670 C661 1.429 . S
C670 N667 1.350 . S
C670 C669 1.434 . S
C671 C672 1.369 . S
C671 C673 1.419 . S
C671 H675 0.930 . S
C672 C671 1.369 . S
C672 C681 1.429 . S
C673 C671 1.419 . S
C673 C674 1.363 . S
C673 H676 0.929 . S
C674 C673 1.363 . S
C674 C680 1.428 . S
H675 C671 0.930 . S
H676 C673 0.929 . S
S677 N678 1.613 . S
S677 N679 1.610 . S
N678 S677 1.613 . S
N678 C681 1.350 . S
N679 S677 1.610 . S
N679 C680 1.351 . S
C680 C674 1.428 . S
C680 N679 1.351 . S
C680 C681 1.434 . S
C681 C672 1.429 . S
C681 N678 1.350 . S
C681 C680 1.434 . S
C682 C683 1.369 . S
C682 C684 1.419 . S
C682 H686 0.930 . S
C683 C682 1.369 . S
C683 C692 1.429 . S
C684 C682 1.419 . S
C684 C685 1.363 . S
C684 H687 0.929 . S
C685 C684 1.363 . S
C685 C691 1.428 . S
H686 C682 0.930 . S
H687 C684 0.929 . S
S688 N689 1.613 . S
S688 N690 1.610 . S
N689 S688 1.613 . S
N689 C692 1.350 . S
N690 S688 1.610 . S
N690 C691 1.351 . S
C691 C685 1.428 . S
C691 N690 1.351 . S
C691 C692 1.434 . S
C692 C683 1.429 . S
C692 N689 1.350 . S
C692 C691 1.434 . S
C693 C694 1.369 . S
C693 C695 1.419 . S
C693 H697 0.930 . S
C694 C693 1.369 . S
C694 C703 1.429 . S
C695 C693 1.419 . S
C695 C696 1.363 . S
C695 H698 0.929 . S
C696 C695 1.363 . S
C696 C702 1.428 . S
H697 C693 0.930 . S
H698 C695 0.929 . S
S699 N700 1.613 . S
S699 N701 1.610 . S
N700 S699 1.613 . S
N700 C703 1.350 . S
N701 S699 1.610 . S
N701 C702 1.351 . S
C702 C696 1.428 . S
C702 N701 1.351 . S
C702 C703 1.434 . S
C703 C694 1.429 . S
C703 N700 1.350 . S
C703 C702 1.434 . S
C704 C705 1.369 . S
C704 C706 1.419 . S
C704 H708 0.930 . S
C705 C704 1.369 . S
C705 C714 1.429 . S
C706 C704 1.419 . S
C706 C707 1.363 . S
C706 H709 0.929 . S
C707 C706 1.363 . S
C707 C713 1.428 . S
H708 C704 0.930 . S
H709 C706 0.929 . S
S710 N711 1.613 . S
S710 N712 1.610 . S
N711 S710 1.613 . S
N711 C714 1.350 . S
N712 S710 1.610 . S
N712 C713 1.351 . S
C713 C707 1.428 . S
C713 N712 1.351 . S
C713 C714 1.434 . S
C714 C705 1.429 . S
C714 N711 1.350 . S
C714 C713 1.434 . S
C715 C716 1.369 . S
C715 C717 1.419 . S
C715 H719 0.930 . S
C716 C715 1.369 . S
C716 C725 1.429 . S
C717 C715 1.419 . S
C717 C718 1.363 . S
C717 H720 0.929 . S
C718 C717 1.363 . S
C718 C724 1.428 . S
H719 C715 0.930 . S
H720 C717 0.929 . S
S721 N722 1.625 . S
S721 N723 1.622 . S
N722 S721 1.625 . S
N722 C725 1.350 . S
N723 S721 1.622 . S
N723 C724 1.351 . S
C724 C718 1.428 . S
C724 N723 1.351 . S
C724 C725 1.434 . S
C725 C716 1.429 . S
C725 N722 1.350 . S
C725 C724 1.434 . S
C726 C727 1.369 . S
C726 C728 1.419 . S
C726 H730 0.930 . S
C727 C726 1.369 . S
C727 C736 1.429 . S
C728 C726 1.419 . S
C728 C729 1.363 . S
C728 H731 0.929 . S
C729 C728 1.363 . S
C729 C735 1.428 . S
H730 C726 0.930 . S
H731 C728 0.929 . S
S732 N733 1.613 . S
S732 N734 1.610 . S
N733 S732 1.613 . S
N733 C736 1.350 . S
N734 S732 1.610 . S
N734 C735 1.351 . S
C735 C729 1.428 . S
C735 N734 1.351 . S
C735 C736 1.434 . S
C736 C727 1.429 . S
C736 N733 1.350 . S
C736 C735 1.434 . S
C737 C738 1.369 . S
C737 C739 1.419 . S
C737 H741 0.930 . S
C738 C737 1.369 . S
C738 C747 1.429 . S
C739 C737 1.419 . S
C739 C740 1.363 . S
C739 H742 0.929 . S
C740 C739 1.363 . S
C740 C746 1.428 . S
H741 C737 0.930 . S
H742 C739 0.929 . S
S743 N744 1.613 . S
S743 N745 1.610 . S
N744 S743 1.613 . S
N744 C747 1.350 . S
N745 S743 1.610 . S
N745 C746 1.351 . S
C746 C740 1.428 . S
C746 N745 1.351 . S
C746 C747 1.434 . S
C747 C738 1.429 . S
C747 N744 1.350 . S
C747 C746 1.434 . S
C748 C749 1.369 . S
C748 C750 1.419 . S
C748 H752 0.930 . S
C749 C748 1.369 . S
C749 C758 1.429 . S
C750 C748 1.419 . S
C750 C751 1.363 . S
C750 H753 0.929 . S
C751 C750 1.363 . S
C751 C757 1.428 . S
H752 C748 0.930 . S
H753 C750 0.929 . S
S754 N755 1.613 . S
S754 N756 1.610 . S
N755 S754 1.613 . S
N755 C758 1.350 . S
N756 S754 1.610 . S
N756 C757 1.351 . S
C757 C751 1.428 . S
C757 N756 1.351 . S
C757 C758 1.434 . S
C758 C749 1.429 . S
C758 N755 1.350 . S
C758 C757 1.434 . S
C759 C760 1.369 . S
C759 C761 1.419 . S
C759 H763 0.930 . S
C760 C759 1.369 . S
C760 C769 1.429 . S
C761 C759 1.419 . S
C761 C762 1.363 . S
C761 H764 0.929 . S
C762 C761 1.363 . S
C762 C768 1.428 . S
H763 C759 0.930 . S
H764 C761 0.929 . S
S765 N766 1.613 . S
S765 N767 1.610 . S
N766 S765 1.613 . S
N766 C769 1.350 . S
N767 S765 1.610 . S
N767 C768 1.351 . S
C768 C762 1.428 . S
C768 N767 1.351 . S
C768 C769 1.434 . S
C769 C760 1.429 . S
C769 N766 1.350 . S
C769 C768 1.434 . S
C770 C771 1.369 . S
C770 C772 1.419 . S
C770 H774 0.930 . S
C771 C770 1.369 . S
C771 C780 1.429 . S
C772 C770 1.419 . S
C772 C773 1.363 . S
C772 H775 0.929 . S
C773 C772 1.363 . S
C773 C779 1.428 . S
H774 C770 0.930 . S
H775 C772 0.929 . S
S776 N777 1.613 . S
S776 N778 1.610 . S
N777 S776 1.613 . S
N777 C780 1.350 . S
N778 S776 1.610 . S
N778 C779 1.351 . S
C779 C773 1.428 . S
C779 N778 1.351 . S
C779 C780 1.434 . S
C780 C771 1.429 . S
C780 N777 1.350 . S
C780 C779 1.434 . S
C781 C782 1.369 . S
C781 C783 1.419 . S
C781 H785 0.930 . S
C782 C781 1.369 . S
C782 C791 1.429 . S
C783 C781 1.419 . S
C783 C784 1.363 . S
C783 H786 0.929 . S
C784 C783 1.363 . S
C784 C790 1.428 . S
H785 C781 0.930 . S
H786 C783 0.929 . S
S787 N788 1.613 . S
S787 N789 1.610 . S
N788 S787 1.613 . S
N788 C791 1.350 . S
N789 S787 1.610 . S
N789 C790 1.351 . S
C790 C784 1.428 . S
C790 N789 1.351 . S
C790 C791 1.434 . S
C791 C782 1.429 . S
C791 N788 1.350 . S
C791 C790 1.434 . S
C792 C793 1.369 . S
C792 C794 1.419 . S
C792 H796 0.930 . S
C793 C792 1.369 . S
C793 C802 1.429 . S
C794 C792 1.419 . S
C794 C795 1.363 . S
C794 H797 0.929 . S
C795 C794 1.363 . S
C795 C801 1.428 . S
H796 C792 0.930 . S
H797 C794 0.929 . S
S798 N799 1.613 . S
S798 N800 1.610 . S
N799 S798 1.613 . S
N799 C802 1.350 . S
N800 S798 1.610 . S
N800 C801 1.351 . S
C801 C795 1.428 . S
C801 N800 1.351 . S
C801 C802 1.434 . S
C802 C793 1.429 . S
C802 N799 1.350 . S
C802 C801 1.434 . S
C803 C804 1.369 1_545 S
C803 C805 1.419 1_655 S
C803 H807 0.930 . S
C804 C803 1.369 1_565 S
C804 C813 1.429 . S
C805 C803 1.419 1_455 S
C805 C806 1.363 . S
C805 H808 0.929 . S
C806 C805 1.363 . S
C806 C812 1.428 1_545 S
H807 C803 0.930 . S
H808 C805 0.929 . S
S809 N810 1.613 1_455 S
S809 N811 1.610 . S
N810 S809 1.613 1_655 S
N810 C813 1.350 . S
N811 S809 1.610 . S
N811 C812 1.351 . S
C812 C806 1.428 1_565 S
C812 N811 1.351 . S
C812 C813 1.434 1_455 S
C813 C804 1.429 . S
C813 N810 1.350 . S
C813 C812 1.434 1_655 S
C814 C815 1.369 . S
C814 C816 1.419 1_565 S
C814 H818 0.930 . S
C815 C814 1.369 . S
C815 C824 1.429 . S
C816 C814 1.419 1_545 S
C816 C817 1.363 . S
C816 H819 0.929 . S
C817 C816 1.363 . S
C817 C823 1.428 . S
H818 C814 0.930 . S
H819 C816 0.929 . S
S820 N821 1.618 . S
S820 N822 1.606 1_565 S
N821 S820 1.618 . S
N821 C824 1.350 . S
N822 S820 1.606 1_545 S
N822 C823 1.351 . S
C823 C817 1.428 . S
C823 N822 1.351 . S
C823 C824 1.434 1_545 S
C824 C815 1.429 . S
C824 N821 1.350 . S
C824 C823 1.434 1_565 S
C825 C826 1.369 . S
C825 C827 1.419 1_655 S
C825 H829 0.930 . S
C826 C825 1.369 . S
C826 C835 1.429 . S
C827 C825 1.419 1_455 S
C827 C828 1.363 . S
C827 H830 0.929 . S
C828 C827 1.363 . S
C828 C834 1.428 . S
H829 C825 0.930 . S
H830 C827 0.929 . S
S831 N832 1.613 1_455 S
S831 N833 1.610 . S
N832 S831 1.613 1_655 S
N832 C835 1.350 . S
N833 S831 1.610 . S
N833 C834 1.351 . S
C834 C828 1.428 . S
C834 N833 1.351 . S
C834 C835 1.434 1_455 S
C835 C826 1.429 . S
C835 N832 1.350 . S
C835 C834 1.434 1_655 S
C836 C837 1.369 . S
C836 C838 1.419 . S
C836 H840 0.930 . S
C837 C836 1.369 . S
C837 C846 1.429 . S
C838 C836 1.419 . S
C838 C839 1.363 . S
C838 H841 0.929 . S
C839 C838 1.363 . S
C839 C845 1.428 . S
H840 C836 0.930 . S
H841 C838 0.929 . S
S842 N843 1.613 . S
S842 N844 1.610 . S
N843 S842 1.613 . S
N843 C846 1.350 . S
N844 S842 1.610 . S
N844 C845 1.351 . S
C845 C839 1.428 . S
C845 N844 1.351 . S
C845 C846 1.434 . S
C846 C837 1.429 . S
C846 N843 1.350 . S
C846 C845 1.434 . S
C847 C848 1.369 1_565 S
C847 C849 1.419 . S
C847 H851 0.930 . S
C848 C847 1.369 1_545 S
C848 C857 1.429 . S
C849 C847 1.419 . S
C849 C850 1.363 . S
C849 H852 0.929 . S
C850 C849 1.363 . S
C850 C856 1.428 1_565 S
H851 C847 0.930 . S
H852 C849 0.929 . S
S853 N854 1.613 . S
S853 N855 1.610 . S
N854 S853 1.613 . S
N854 C857 1.350 . S
N855 S853 1.610 . S
N855 C856 1.351 . S
C856 C850 1.428 1_545 S
C856 N855 1.351 . S
C856 C857 1.434 . S
C857 C848 1.429 . S
C857 N854 1.350 . S
C857 C856 1.434 . S
C858 C859 1.369 . S
C858 C860 1.419 1_655 S
C858 H862 0.930 . S
C859 C858 1.369 . S
C859 C868 1.429 . S
C860 C858 1.419 1_455 S
C860 C861 1.363 . S
C860 H863 0.929 . S
C861 C860 1.363 . S
C861 C867 1.428 . S
H862 C858 0.930 . S
H863 C860 0.929 . S
S864 N865 1.613 . S
S864 N866 1.610 1_655 S
N865 S864 1.613 . S
N865 C868 1.350 . S
N866 S864 1.610 1_455 S
N866 C867 1.351 . S
C867 C861 1.428 . S
C867 N866 1.351 . S
C867 C868 1.434 1_455 S
C868 C859 1.429 . S
C868 N865 1.350 . S
C868 C867 1.434 1_655 S
C869 C870 1.369 . S
C869 C871 1.419 1_554 S
C869 H873 0.930 . S
C870 C869 1.369 . S
C870 C879 1.429 . S
C871 C869 1.419 1_556 S
C871 C872 1.363 . S
C871 H874 0.929 . S
C872 C871 1.363 . S
C872 C878 1.428 . S
H873 C869 0.930 . S
H874 C871 0.929 . S
S875 N876 1.613 . S
S875 N877 1.610 . S
N876 S875 1.613 . S
N876 C879 1.350 1_556 S
N877 S875 1.610 . S
N877 C878 1.351 . S
C878 C872 1.428 . S
C878 N877 1.351 . S
C878 C879 1.434 1_556 S
C879 C870 1.429 . S
C879 N876 1.350 1_554 S
C879 C878 1.434 1_554 S
C880 C881 1.369 1_655 S
C880 C882 1.419 . S
C880 H884 0.930 . S
C881 C880 1.369 1_455 S
C881 C890 1.429 1_556 S
C882 C880 1.419 . S
C882 C883 1.363 1_556 S
C882 H885 0.929 . S
C883 C882 1.363 1_554 S
C883 C889 1.428 1_655 S
H884 C880 0.930 . S
H885 C882 0.929 . S
S886 N887 1.613 . S
S886 N888 1.610 . S
N887 S886 1.613 . S
N887 C890 1.350 . S
N888 S886 1.610 . S
N888 C889 1.351 . S
C889 C883 1.428 1_455 S
C889 N888 1.351 . S
C889 C890 1.434 . S
C890 C881 1.429 1_554 S
C890 N887 1.350 . S
C890 C889 1.434 . S
C891 C892 1.369 . S
C891 C893 1.419 . S
C891 H895 0.930 . S
C892 C891 1.369 . S
C892 C901 1.429 . S
C893 C891 1.419 . S
C893 C894 1.363 . S
C893 H896 0.929 . S
C894 C893 1.363 . S
C894 C900 1.428 . S
H895 C891 0.930 . S
H896 C893 0.929 . S
S897 N898 1.613 . S
S897 N899 1.610 . S
N898 S897 1.613 . S
N898 C901 1.350 . S
N899 S897 1.610 . S
N899 C900 1.351 . S
C900 C894 1.428 . S
C900 N899 1.351 . S
C900 C901 1.434 . S
C901 C892 1.429 . S
C901 N898 1.350 . S
C901 C900 1.434 . S
C902 C903 1.369 . S
C902 C904 1.419 . S
C902 H906 0.930 . S
C903 C902 1.369 . S
C903 C912 1.429 1_554 S
C904 C902 1.419 . S
C904 C905 1.363 1_554 S
C904 H907 0.929 . S
C905 C904 1.363 1_556 S
C905 C911 1.428 . S
H906 C902 0.930 . S
H907 C904 0.929 . S
S908 N909 1.613 . S
S908 N910 1.610 . S
N909 S908 1.613 . S
N909 C912 1.350 . S
N910 S908 1.610 . S
N910 C911 1.351 . S
C911 C905 1.428 . S
C911 N910 1.351 . S
C911 C912 1.434 . S
C912 C903 1.429 1_556 S
C912 N909 1.350 . S
C912 C911 1.434 . S
C913 C914 1.369 . S
C913 C915 1.419 . S
C913 H917 0.930 . S
C914 C913 1.369 . S
C914 C923 1.429 . S
C915 C913 1.419 . S
C915 C916 1.363 . S
C915 H918 0.929 . S
C916 C915 1.363 . S
C916 C922 1.428 . S
H917 C913 0.930 . S
H918 C915 0.929 . S
S919 N920 1.613 . S
S919 N921 1.610 . S
N920 S919 1.613 . S
N920 C923 1.350 . S
N921 S919 1.610 . S
N921 C922 1.351 . S
C922 C916 1.428 . S
C922 N921 1.351 . S
C922 C923 1.434 . S
C923 C914 1.429 . S
C923 N920 1.350 . S
C923 C922 1.434 . S
C924 C925 1.369 1_545 S
C924 C926 1.419 1_554 S
C924 H928 0.930 . S
C925 C924 1.369 1_565 S
C925 C934 1.429 . S
C926 C924 1.419 1_556 S
C926 C927 1.363 . S
C926 H929 0.929 . S
C927 C926 1.363 . S
C927 C933 1.428 1_545 S
H928 C924 0.930 . S
H929 C926 0.929 . S
S930 N931 1.613 1_556 S
S930 N932 1.610 . S
N931 S930 1.613 1_554 S
N931 C934 1.350 . S
N932 S930 1.610 . S
N932 C933 1.351 . S
C933 C927 1.428 1_565 S
C933 N932 1.351 . S
C933 C934 1.434 1_556 S
C934 C925 1.429 . S
C934 N931 1.350 . S
C934 C933 1.434 1_554 S
C935 C936 1.369 . S
C935 C937 1.419 . S
C935 H939 0.930 . S
C936 C935 1.369 . S
C936 C945 1.429 . S
C937 C935 1.419 . S
C937 C938 1.363 . S
C937 H940 0.929 . S
C938 C937 1.363 . S
C938 C944 1.428 . S
H939 C935 0.930 . S
H940 C937 0.929 . S
S941 N942 1.613 . S
S941 N943 1.610 . S
N942 S941 1.613 . S
N942 C945 1.350 . S
N943 S941 1.610 . S
N943 C944 1.351 . S
C944 C938 1.428 . S
C944 N943 1.351 . S
C944 C945 1.434 . S
C945 C936 1.429 . S
C945 N942 1.350 . S
C945 C944 1.434 . S
C946 C947 1.369 . S
C946 C948 1.419 . S
C946 H950 0.930 . S
C947 C946 1.369 . S
C947 C956 1.429 . S
C948 C946 1.419 . S
C948 C949 1.363 . S
C948 H951 0.929 . S
C949 C948 1.363 . S
C949 C955 1.428 . S
H950 C946 0.930 . S
H951 C948 0.929 . S
S952 N953 1.613 . S
S952 N954 1.610 . S
N953 S952 1.613 . S
N953 C956 1.350 . S
N954 S952 1.610 . S
N954 C955 1.351 . S
C955 C949 1.428 . S
C955 N954 1.351 . S
C955 C956 1.434 . S
C956 C947 1.429 . S
C956 N953 1.350 . S
C956 C955 1.434 . S
C957 C958 1.369 . S
C957 C959 1.419 . S
C957 H961 0.930 . S
C958 C957 1.369 . S
C958 C967 1.429 . S
C959 C957 1.419 . S
C959 C960 1.363 . S
C959 H962 0.929 . S
C960 C959 1.363 . S
C960 C966 1.428 . S
H961 C957 0.930 . S
H962 C959 0.929 . S
S963 N964 1.613 . S
S963 N965 1.610 . S
N964 S963 1.613 . S
N964 C967 1.350 . S
N965 S963 1.610 . S
N965 C966 1.351 . S
C966 C960 1.428 . S
C966 N965 1.351 . S
C966 C967 1.434 . S
C967 C958 1.429 . S
C967 N964 1.350 . S
C967 C966 1.434 . S
C529 N5 1.006 . S
C531 N302 1.003 . S
C540 N14 1.043 . S
C542 N311 1.054 . S
C551 N278 1.051 . S
C553 N47 1.050 . S
C562 N38 1.006 . S
C564 N269 1.003 . S
C573 N71 1.006 . S
C575 N368 1.003 . S
C584 N80 1.045 . S
C586 N377 1.049 . S
C595 N113 1.042 . S
C597 N344 1.053 . S
C606 N104 1.003 . S
C608 N335 1.002 . S
C617 N137 1.005 . S
C619 N434 1.002 . S
C628 N443 1.044 . S
C630 N146 1.051 . S
C639 N410 1.042 . S
C641 N179 1.053 . S
C650 N401 1.001 . S
C652 N170 1.004 . S
C661 N500 1.005 . S
C663 N203 1.002 . S
C672 N509 1.055 . S
C674 N212 1.044 . S
C683 N476 1.050 . S
C685 N245 1.045 . S
C694 N236 1.001 . S
C696 N467 1.004 . S
C705 C17 1.237 . S
C707 C50 1.240 . S
C716 C116 1.239 . S
C718 C83 1.238 . S
C727 C182 1.239 . S
C729 C149 1.238 . S
C738 C248 1.239 . S
C740 C215 1.238 . S
C749 C314 1.238 . S
C751 C281 1.239 . S
C760 C347 1.239 . S
C762 C380 1.238 . S
C771 C446 1.239 . S
C773 C413 1.238 . S
C782 C479 1.240 . S
C784 C512 1.238 . S
C793 C490 1.833 . S
C795 C28 1.830 . S
C804 C74 1.848 . S
C806 C8 1.856 . S
C815 C371 1.853 . S
C817 C41 1.853 . S
C826 C259 1.835 . S
C828 C61 1.829 . S
C837 C94 1.832 . S
C839 C424 1.831 . S
C848 C305 1.849 . S
C850 C107 1.855 . S
C859 C127 1.835 . S
C861 C193 1.829 . S
C870 C358 1.834 . S
C872 C160 1.829 . S
C881 C140 1.856 . S
C883 C206 1.850 . S
C892 C173 1.849 . S
C894 C503 1.855 . S
C903 C226 1.828 . S
C905 C292 1.834 . S
C914 C239 1.856 . S
C916 C437 1.850 . S
C925 C338 1.849 . S
C927 C272 1.856 . S
C936 C523 1.835 . S
C938 C325 1.829 . S
C947 C391 1.828 . S
C949 C457 1.834 . S
C958 C404 1.848 . S
C960 C470 1.856 . S
