# Generated by pormake.
# Topology uoc, (4)-cn, num edge types: 1
# Building blocks:
#     Node 0, Type 0, BuildingBlock: ESEHIV_clean_sbu_0, # of connection points: 4
#     Node 1, Type 0, BuildingBlock: ESEHIV_clean_sbu_0, # of connection points: 4
#     Node 2, Type 0, BuildingBlock: ESEHIV_clean_sbu_0, # of connection points: 4
#     Node 3, Type 0, BuildingBlock: ESEHIV_clean_sbu_0, # of connection points: 4
#     Node 4, Type 0, BuildingBlock: ESEHIV_clean_sbu_0, # of connection points: 4
#     Node 5, Type 0, BuildingBlock: ESEHIV_clean_sbu_0, # of connection points: 4
#     Node 6, Type 0, BuildingBlock: ESEHIV_clean_sbu_0, # of connection points: 4
#     Node 7, Type 0, BuildingBlock: ESEHIV_clean_sbu_0, # of connection points: 4
#     Edge 8, Type (0, 0), BuildingBlock: EZIPEK_clean_linker_0, # of connection points: 2
#     Edge 9, Type (0, 0), BuildingBlock: EZIPEK_clean_linker_0, # of connection points: 2
#     Edge 10, Type (0, 0), BuildingBlock: EZIPEK_clean_linker_0, # of connection points: 2
#     Edge 11, Type (0, 0), BuildingBlock: EZIPEK_clean_linker_0, # of connection points: 2
#     Edge 12, Type (0, 0), BuildingBlock: EZIPEK_clean_linker_0, # of connection points: 2
#     Edge 13, Type (0, 0), BuildingBlock: EZIPEK_clean_linker_0, # of connection points: 2
#     Edge 14, Type (0, 0), BuildingBlock: EZIPEK_clean_linker_0, # of connection points: 2
#     Edge 15, Type (0, 0), BuildingBlock: EZIPEK_clean_linker_0, # of connection points: 2
#     Edge 16, Type (0, 0), BuildingBlock: EZIPEK_clean_linker_0, # of connection points: 2
#     Edge 17, Type (0, 0), BuildingBlock: EZIPEK_clean_linker_0, # of connection points: 2
#     Edge 18, Type (0, 0), BuildingBlock: EZIPEK_clean_linker_0, # of connection points: 2
#     Edge 19, Type (0, 0), BuildingBlock: EZIPEK_clean_linker_0, # of connection points: 2
#     Edge 20, Type (0, 0), BuildingBlock: EZIPEK_clean_linker_0, # of connection points: 2
#     Edge 21, Type (0, 0), BuildingBlock: EZIPEK_clean_linker_0, # of connection points: 2
#     Edge 22, Type (0, 0), BuildingBlock: EZIPEK_clean_linker_0, # of connection points: 2
#     Edge 23, Type (0, 0), BuildingBlock: EZIPEK_clean_linker_0, # of connection points: 2
# Relax obj value: 0.063
# Max RMSD: 0.277
# Mean RMSD: 0.277
data_MOF--net-uoc--node1-ESEHIV_clean_sbu_0--edge1-EZIPEK_clean_linker_0
_symmetry_space_group_name_H-M    P1
_symmetry_Int_Tables_number       1
_symmetry_cell_setting            triclinic
loop_
_symmetry_equiv_pos_as_xyz
'x, y, z'
_cell_length_a     25.234154
_cell_length_b     25.288467
_cell_length_c     36.986326
_cell_angle_alpha  90.177679
_cell_angle_beta   89.559972
_cell_angle_gamma 90.812573
loop_
_atom_site_label
_atom_site_type_symbol
_atom_site_fract_x
_atom_site_fract_y
_atom_site_fract_z
_atom_type_partial_charge
Cu0 Cu 0.10406 0.26411 0.16064 0.0
N1 N 0.05643 0.20812 0.16674 0.0
N2 N 0.02234 0.12665 0.16907 0.0
C3 C 0.06595 0.15632 0.1621 0.0
C4 C 0.98395 0.16062 0.17843 0.0
C5 C 1.00519 0.21112 0.17692 0.0
O6 O 0.15573 0.24371 0.12398 0.0
C7 C 0.17403 0.31136 0.21274 0.0
O8 O 0.19946 0.33215 0.185 0.0
H9 H 0.10398 0.14065 0.15406 0.0
H10 H 0.98489 0.24753 0.18293 0.0
N11 N 0.06659 0.32146 0.14352 0.0
N12 N 0.03509 0.40253 0.13683 0.0
C13 C 0.06032 0.3692 0.15903 0.0
C14 C 0.04353 0.32444 0.11093 0.0
C15 C 0.02421 0.37463 0.10663 0.0
C16 C 0.17803 0.27667 0.10255 0.0
O17 O 0.17128 0.32762 0.10737 0.0
H18 H 0.07522 0.37984 0.18543 0.0
H19 H 0.04235 0.29267 0.09129 0.0
O20 O 0.1343 0.28085 0.20758 0.0
H21 H 0.94379 0.14953 0.18597 0.0
H22 H 1.00478 0.38998 0.08295 0.0
Cu23 Cu 0.7728 0.60234 0.42303 0.0
N24 N 0.71786 0.55336 0.41757 0.0
N25 N 0.63646 0.51896 0.41397 0.0
C26 C 0.66565 0.56338 0.41874 0.0
C27 C 0.6712 0.47946 0.40961 0.0
C28 C 0.72167 0.50091 0.41189 0.0
O29 O 0.74944 0.65421 0.45844 0.0
C30 C 0.82155 0.67003 0.36999 0.0
O31 O 0.84468 0.69398 0.39731 0.0
H32 H 0.64936 0.60232 0.42293 0.0
H33 H 0.75858 0.47987 0.40957 0.0
N34 N 0.83139 0.56762 0.44113 0.0
N35 N 0.91314 0.53734 0.44775 0.0
C36 C 0.87855 0.55955 0.42491 0.0
C37 C 0.83604 0.54878 0.47493 0.0
C38 C 0.88665 0.53026 0.47917 0.0
C39 C 0.78053 0.67949 0.47948 0.0
O40 O 0.83207 0.67579 0.47519 0.0
H41 H 0.88784 0.57091 0.39741 0.0
H42 H 0.80511 0.54986 0.49531 0.0
O43 O 0.78914 0.63195 0.37573 0.0
H44 H 0.6607 0.43834 0.40505 0.0
H45 H 0.9032 0.51387 0.50354 0.0
Cu46 Cu 0.43219 0.26812 0.65748 0.0
N47 N 0.48048 0.32369 0.66268 0.0
N48 N 0.51392 0.40537 0.66602 0.0
C49 C 0.46993 0.37561 0.66092 0.0
C50 C 0.55368 0.3713 0.67121 0.0
C51 C 0.53281 0.32065 0.6691 0.0
O52 O 0.38025 0.28981 0.62205 0.0
C53 C 0.36264 0.22275 0.71121 0.0
O54 O 0.33561 0.20266 0.68413 0.0
H55 H 0.43091 0.3913 0.65616 0.0
H56 H 0.55415 0.28415 0.67211 0.0
N57 N 0.46803 0.20997 0.63922 0.0
N58 N 0.49736 0.12813 0.6313 0.0
C59 C 0.47335 0.16192 0.65423 0.0
C60 C 0.4903 0.20662 0.60613 0.0
C61 C 0.50831 0.15598 0.60109 0.0
C62 C 0.3563 0.25766 0.601 0.0
O63 O 0.36096 0.20647 0.60569 0.0
H64 H 0.45862 0.15143 0.68081 0.0
H65 H 0.49178 0.23846 0.58667 0.0
O66 O 0.403 0.2521 0.70507 0.0
H67 H 0.59455 0.38239 0.67627 0.0
H68 H 0.52689 0.14032 0.57693 0.0
Cu69 Cu 0.77063 0.93501 0.91447 0.0
N70 N 0.82657 0.98253 0.9082 0.0
N71 N 0.90859 1.01549 0.90569 0.0
C72 C 0.87834 0.97221 0.912 0.0
C73 C 0.875 0.05457 0.89758 0.0
C74 C 0.8241 0.03399 0.89918 0.0
O75 O 0.79187 0.88647 0.95217 0.0
C76 C 0.7188 0.87191 0.86021 0.0
O77 O 0.68467 0.85818 0.88559 0.0
H78 H 0.89356 0.93386 0.91919 0.0
H79 H 0.78783 0.05493 0.89413 0.0
N80 N 0.71229 0.97321 0.93046 0.0
N81 N 0.63101 1.00477 0.93799 0.0
C82 C 0.66308 0.97566 0.91672 0.0
C83 C 0.71134 1.00269 0.96081 0.0
C84 C 0.6611 0.02201 0.96566 0.0
C85 C 0.76074 0.86818 0.97647 0.0
O86 O 0.70949 0.87579 0.97425 0.0
H87 H 0.65047 0.9557 0.8923 0.0
H88 H 0.74479 1.00869 0.97854 0.0
O89 O 0.75813 0.90173 0.86788 0.0
H90 H 0.8866 0.09477 0.89094 0.0
H91 H 0.64733 0.04613 0.98797 0.0
Cu92 Cu 0.60295 0.76942 0.65946 0.0
N93 N 0.55641 0.71251 0.66544 0.0
N94 N 0.52498 0.63002 0.6682 0.0
C95 C 0.56813 0.66092 0.66259 0.0
C96 C 0.48459 0.663 0.67486 0.0
C97 C 0.5042 0.71414 0.67311 0.0
O98 O 0.6556 0.74864 0.62368 0.0
C99 C 0.67365 0.81535 0.71138 0.0
O100 O 0.70101 0.83314 0.68351 0.0
H101 H 0.60734 0.64631 0.65652 0.0
H102 H 0.48205 0.75004 0.67707 0.0
N103 N 0.56514 0.8262 0.64165 0.0
N104 N 0.53477 0.90741 0.63323 0.0
C105 C 0.5617 0.8754 0.65541 0.0
C106 C 0.53881 0.82705 0.61016 0.0
C107 C 0.52009 0.87729 0.60482 0.0
C108 C 0.67639 0.78047 0.60086 0.0
O109 O 0.66731 0.83137 0.60338 0.0
H110 H 0.57974 0.88793 0.68048 0.0
H111 H 0.53494 0.79374 0.59191 0.0
O112 O 0.63229 0.78708 0.70643 0.0
H113 H 0.44409 0.65083 0.68057 0.0
H114 H 0.49847 0.89111 0.5816 0.0
Cu115 Cu 0.26964 0.11138 0.91821 0.0
N116 N 0.21476 0.06234 0.91354 0.0
N117 N 0.13336 0.02817 0.91006 0.0
C118 C 0.16263 0.07249 0.91485 0.0
C119 C 0.16795 0.98858 0.90555 0.0
C120 C 0.21846 1.0099 0.90773 0.0
O121 O 0.24771 0.16174 0.95502 0.0
C122 C 0.32103 0.1711 0.86163 0.0
O123 O 0.35629 0.18512 0.88591 0.0
H124 H 0.14647 0.1115 0.91895 0.0
H125 H 0.25531 0.98885 0.90509 0.0
N126 N 0.32891 0.07574 0.93457 0.0
N127 N 0.41056 0.04508 0.94103 0.0
C128 C 0.37693 0.07016 0.91894 0.0
C129 C 0.33219 0.05237 0.9671 0.0
C130 C 0.38268 0.03361 0.97126 0.0
C131 C 0.27956 0.18475 0.97669 0.0
O132 O 0.33095 0.18029 0.97194 0.0
H133 H 0.38765 0.0853 0.89253 0.0
H134 H 0.30026 0.05034 0.98675 0.0
O135 O 0.28141 0.1424 0.87074 0.0
H136 H 0.1573 0.94754 0.90079 0.0
H137 H 0.39816 1.01397 0.99482 0.0
Cu138 Cu 0.92741 0.76321 0.1612 0.0
N139 N 0.97486 0.82017 0.16276 0.0
N140 N 1.00731 0.90233 0.16436 0.0
C141 C 0.96311 0.87191 0.16338 0.0
C142 C 0.04838 0.86893 0.16452 0.0
C143 C 0.02815 0.81802 0.16353 0.0
O144 O 0.87127 0.77845 0.12708 0.0
C145 C 0.86958 0.7148 0.21942 0.0
O146 O 0.85075 0.68217 0.19482 0.0
H147 H 0.92316 0.88696 0.16304 0.0
H148 H 0.05062 0.78191 0.16342 0.0
N149 N 0.96358 0.7039 0.14456 0.0
N150 N 0.99366 0.62201 0.13789 0.0
C151 C 0.96627 0.65532 0.15932 0.0
C152 C 0.99091 0.70102 0.11321 0.0
C153 C 1.00943 0.65049 0.10898 0.0
C154 C 0.88362 0.80008 0.09705 0.0
O155 O 0.93337 0.81218 0.09002 0.0
H156 H 0.94782 0.6441 0.18468 0.0
H157 H 0.9966 0.73332 0.09447 0.0
O158 O 0.90086 0.75227 0.2101 0.0
H159 H 0.08978 0.88066 0.16537 0.0
H160 H 0.03213 0.63547 0.08631 0.0
Cu161 Cu 0.27238 0.42549 0.41737 0.0
N162 N 0.32914 0.47259 0.41237 0.0
N163 N 0.41149 0.50502 0.41044 0.0
C164 C 0.38085 0.46178 0.41619 0.0
C165 C 0.37822 0.54451 0.4027 0.0
C166 C 0.32717 0.52429 0.40393 0.0
O167 O 0.29204 0.37439 0.45389 0.0
C168 C 0.22052 0.36449 0.36204 0.0
O169 O 0.18713 0.34902 0.38742 0.0
H170 H 0.39577 0.4231 0.42282 0.0
H171 H 0.29111 0.54561 0.39891 0.0
N172 N 0.21426 0.46346 0.43412 0.0
N173 N 0.1331 0.495 0.44243 0.0
C174 C 0.16485 0.46623 0.42071 0.0
C175 C 0.21362 0.49204 0.46488 0.0
C176 C 0.16348 0.5115 0.47014 0.0
C177 C 0.25934 0.3541 0.47646 0.0
O178 O 0.20834 0.36229 0.47301 0.0
H179 H 0.15187 0.44667 0.39623 0.0
H180 H 0.24713 0.4972 0.48267 0.0
O181 O 0.25944 0.39469 0.36999 0.0
H182 H 0.39013 0.58476 0.39643 0.0
H183 H 0.14994 0.535 0.49282 0.0
C184 C 0.19171 0.27162 1.03499 0.0
C185 C 0.20764 0.25713 0.07038 0.0
C186 C 0.27147 0.1951 0.04439 0.0
C187 C 0.2581 0.21232 1.00907 0.0
N188 N 0.21462 0.27559 0.97129 0.0
N189 N 0.27091 0.21442 0.10863 0.0
C190 C 0.22102 0.2533 1.00456 0.0
C191 C 0.25008 0.2217 0.07503 0.0
N192 N 0.14681 0.3003 1.03014 0.0
N193 N 0.30214 0.15151 0.04888 0.0
H194 H 0.2568 0.23387 0.13161 0.0
H195 H 0.30539 0.19334 0.11312 0.0
H196 H 0.31806 0.13008 1.02743 0.0
H197 H 0.30788 0.13369 0.07387 0.0
H198 H 0.13018 0.30672 1.00487 0.0
H199 H 0.12314 0.31355 0.05139 0.0
H200 H 0.19223 0.30928 0.96707 0.0
H201 H 0.23601 0.26368 0.94849 0.0
C202 C 0.79419 0.70324 0.30911 0.0
C203 C 0.83484 0.6853 0.33218 0.0
C204 C 0.89936 0.69213 0.28219 0.0
C205 C 0.8577 0.70561 0.25836 0.0
N206 N 0.76489 0.7208 0.248 0.0
N207 N 0.92492 0.65704 0.34034 0.0
C208 C 0.80489 0.71006 0.2715 0.0
C209 C 0.88727 0.67882 0.31875 0.0
N210 N 0.74596 0.71607 0.32356 0.0
N211 N 0.95062 0.69163 0.26987 0.0
H212 H 0.91842 0.6478 0.36744 0.0
H213 H 0.9617 0.64459 0.33099 0.0
H214 H 0.96118 0.69611 0.24276 0.0
H215 H 0.98332 0.68961 0.28677 0.0
H216 H 0.71621 0.73453 0.30916 0.0
H217 H 0.73708 0.7125 0.35105 0.0
H218 H 0.72486 0.71793 0.25479 0.0
H219 H 0.77147 0.72997 0.22085 0.0
C220 C 0.28796 0.31707 0.57437 0.0
C221 C 0.32746 0.27838 0.56922 0.0
C222 C 0.31338 0.28202 0.50362 0.0
C223 C 0.27967 0.32585 0.50855 0.0
N224 N 0.24182 0.3911 0.54874 0.0
N225 N 0.38453 0.23047 0.52806 0.0
C226 C 0.26845 0.34485 0.54398 0.0
C227 C 0.34178 0.26219 0.53361 0.0
N228 N 0.2681 0.32645 0.60824 0.0
N229 N 0.31745 0.25859 0.47038 0.0
H230 H 0.40781 0.21622 0.5489 0.0
H231 H 0.40013 0.22245 0.5025 0.0
H232 H 0.29668 0.27165 0.44789 0.0
H233 H 0.33712 0.22317 0.466 0.0
H234 H 0.23551 0.35035 0.61314 0.0
H235 H 0.2807 0.30613 0.63106 0.0
H236 H 0.23788 0.40971 0.57377 0.0
H237 H 0.22796 0.41373 0.52741 0.0
C238 C 0.70952 0.80357 0.81092 0.0
C239 C 0.7087 0.85746 0.82186 0.0
C240 C 0.68588 0.88403 0.76 0.0
C241 C 0.68886 0.83038 0.74879 0.0
N242 N 0.71183 0.74024 0.76139 0.0
N243 N 0.70094 0.94993 0.80666 0.0
C244 C 0.70278 0.79041 0.77372 0.0
C245 C 0.69867 0.89796 0.79627 0.0
N246 N 0.7167 0.76495 0.83616 0.0
N247 N 0.66793 0.92133 0.73651 0.0
H248 H 0.70458 0.96219 0.83345 0.0
H249 H 0.70177 0.98136 0.78856 0.0
H250 H 0.65951 0.91337 0.7095 0.0
H251 H 0.65792 0.95959 0.74409 0.0
H252 H 0.71121 0.72478 0.83098 0.0
H253 H 0.72549 0.77305 0.86313 0.0
H254 H 0.72735 0.7103 0.77717 0.0
H255 H 0.70801 0.72945 0.73427 0.0
C256 C 0.21249 0.29758 0.31175 0.0
C257 C 0.21018 0.35101 0.32354 0.0
C258 C 0.18462 0.37872 0.26246 0.0
C259 C 0.1893 0.32563 0.2503 0.0
N260 N 0.21614 0.2361 0.26119 0.0
N261 N 0.19931 0.44361 0.30983 0.0
C262 C 0.20537 0.28542 0.27441 0.0
C263 C 0.19817 0.39194 0.29872 0.0
N264 N 0.22146 0.2584 0.33627 0.0
N265 N 0.16434 0.41607 0.23993 0.0
H266 H 0.20383 0.45516 0.3367 0.0
H267 H 0.19852 0.47555 0.29217 0.0
H268 H 0.15498 0.40867 0.213 0.0
H269 H 0.15318 0.45362 0.24836 0.0
H270 H 0.21709 0.21828 0.33049 0.0
H271 H 0.23054 0.26588 0.36328 0.0
H272 H 0.23325 0.20633 0.27633 0.0
H273 H 0.2122 0.22608 0.23395 0.0
C274 C 0.75097 0.7267 0.57573 0.0
C275 C 0.70663 0.75914 0.56958 0.0
C276 C 0.7189 0.74803 0.50409 0.0
C277 C 0.7581 0.7096 0.51047 0.0
N278 N 0.80558 0.65592 0.55318 0.0
N279 N 0.64265 0.79387 0.5278 0.0
C280 C 0.77297 0.69743 0.5465 0.0
C281 C 0.68919 0.76837 0.53371 0.0
N282 N 0.77283 0.72468 0.6094 0.0
N283 N 0.71088 0.76609 0.4698 0.0
H284 H 0.61869 0.8083 0.54855 0.0
H285 H 0.6252 0.7963 0.50244 0.0
H286 H 0.73267 0.75289 0.44753 0.0
H287 H 0.6866 0.79791 0.46402 0.0
H288 H 0.8085 0.70605 0.61466 0.0
H289 H 0.75815 0.74613 0.63135 0.0
H290 H 0.81271 0.64171 0.57907 0.0
H291 H 0.82168 0.63229 0.53291 0.0
C292 C 0.33471 0.24966 0.77388 0.0
C293 C 0.34842 0.20895 0.74914 0.0
C294 C 0.33941 0.14293 0.79753 0.0
C295 C 0.32995 0.18424 0.82288 0.0
N296 N 0.32245 0.27721 0.83631 0.0
N297 N 0.37018 0.11774 0.73773 0.0
C298 C 0.32892 0.23774 0.81137 0.0
C299 C 0.35192 0.15572 0.76095 0.0
N300 N 0.32493 0.29931 0.76119 0.0
N301 N 0.3368 0.09128 0.80842 0.0
H302 H 0.37884 0.12487 0.7106 0.0
H303 H 0.38047 0.07986 0.74573 0.0
H304 H 0.33282 0.07982 0.83534 0.0
H305 H 0.33573 0.05938 0.79057 0.0
H306 H 0.30948 0.32962 0.77698 0.0
H307 H 0.32794 0.3092 0.73388 0.0
H308 H 0.32786 0.31718 0.83053 0.0
H309 H 0.31444 0.27002 0.86357 0.0
C310 C 0.8077 0.85244 0.07364 0.0
C311 C 0.84338 0.81016 0.06901 0.0
C312 C 0.81327 0.79768 1.00649 0.0
C313 C 0.7837 0.84474 1.0095 0.0
N314 N 0.75477 0.91944 0.04508 0.0
N315 N 0.88029 0.74109 1.03199 0.0
C316 C 0.78056 0.8723 0.04304 0.0
C317 C 0.84587 0.78207 1.03574 0.0
N318 N 0.80039 0.87417 0.10718 0.0
N319 N 0.80913 0.76746 0.97589 0.0
H320 H 0.90176 0.72611 0.05358 0.0
H321 H 0.88922 0.72313 1.00738 0.0
H322 H 0.78511 0.77779 0.95424 0.0
H323 H 0.82567 0.73022 0.97299 0.0
H324 H 0.77074 0.90107 0.11323 0.0
H325 H 0.8212 0.86217 0.12989 0.0
H326 H 0.75691 0.94484 0.06723 0.0
H327 H 0.73391 0.93538 1.02364 0.0
C328 C 1.00753 0.04438 0.13456 0.0
C329 C 1.01808 0.07 0.16786 0.0
C330 C 1.01761 0.98486 0.19917 0.0
C331 C 1.01022 0.95904 0.16556 0.0
N332 N 1.00282 0.96165 0.10094 0.0
N333 N 0.03863 0.06661 0.23105 0.0
C334 C 1.00633 0.98817 0.13309 0.0
C335 C 0.02457 0.04072 0.20002 0.0
N336 N 0.99775 0.07423 0.10469 0.0
N337 N 1.01664 0.95569 0.2302 0.0
H338 H 0.04321 0.10764 0.23229 0.0
H339 H 0.04893 0.04764 0.25485 0.0
H340 H 1.01196 0.91463 0.23005 0.0
H341 H 1.01695 0.97202 0.25605 0.0
H342 H 0.98523 0.05868 0.08007 0.0
H343 H 0.99926 0.11548 0.10522 0.0
H344 H 1.0045 0.97987 0.07577 0.0
H345 H 1.00129 0.92044 0.09943 0.0
C346 C 0.04023 0.46254 0.44456 0.0
C347 C 0.07731 0.50424 0.43862 0.0
C348 C 1.00541 0.56812 0.43672 0.0
C349 C 0.96817 0.52613 0.44133 0.0
N350 N 0.94842 0.43302 0.4415 0.0
N351 N 0.09578 0.59395 0.42121 0.0
C352 C 0.98519 0.4731 0.44261 0.0
C353 C 0.05991 0.55624 0.43209 0.0
N354 N 0.05764 0.41363 0.454 0.0
N355 N 0.9891 0.6193 0.43893 0.0
H356 H 0.13588 0.58574 0.41749 0.0
H357 H 0.08518 0.63157 0.41276 0.0
H358 H 0.94969 0.62942 0.44338 0.0
H359 H 1.01507 0.65165 0.43937 0.0
H360 H 0.03247 0.38297 0.46233 0.0
H361 H 0.09771 0.40489 0.45627 0.0
H362 H 0.95822 0.39329 0.43911 0.0
H363 H 0.90789 0.44007 0.43958 0.0
C364 C 0.52067 0.49008 0.63351 0.0
C365 C 0.51738 0.46209 0.66655 0.0
C366 C 0.5228 0.54511 0.70061 0.0
C367 C 0.52265 0.57325 0.6676 0.0
N368 N 0.51611 0.57483 0.60291 0.0
N369 N 0.50921 0.46108 0.73123 0.0
C370 C 0.52023 0.5463 0.63404 0.0
C371 C 0.51685 0.48915 0.70009 0.0
N372 N 0.52535 0.46251 0.60186 0.0
N373 N 0.53006 0.57218 0.73224 0.0
H374 H 0.50526 0.41996 0.73142 0.0
H375 H 0.50331 0.47839 0.75648 0.0
H376 H 0.53423 0.61327 0.73317 0.0
H377 H 0.53558 0.55407 0.75713 0.0
H378 H 0.53267 0.48003 0.57686 0.0
H379 H 0.52523 0.42126 0.60098 0.0
H380 H 0.50943 0.55805 0.5776 0.0
H381 H 0.51604 0.61609 0.60279 0.0
C382 C 0.53826 0.97159 0.93717 0.0
C383 C 0.57528 1.01397 0.9337 0.0
C384 C 0.503 0.07744 0.93348 0.0
C385 C 0.46591 0.0349 0.93517 0.0
N386 N 0.44707 0.94187 0.93016 0.0
N387 N 0.59343 0.10522 0.92009 0.0
C388 C 0.48332 0.98198 0.93423 0.0
C389 C 0.55767 0.06635 0.92907 0.0
N390 N 0.55538 0.92211 0.94541 0.0
N391 N 0.48637 0.12815 0.93826 0.0
H392 H 0.63362 0.09762 0.91619 0.0
H393 H 0.58259 0.14344 0.91314 0.0
H394 H 0.4468 0.1376 0.94276 0.0
H395 H 0.51225 0.16035 0.94093 0.0
H396 H 0.52984 0.89077 0.95186 0.0
H397 H 0.59524 0.91343 0.94894 0.0
H398 H 0.45749 0.90259 0.92604 0.0
H399 H 0.40663 0.94884 0.92744 0.0
C400 C 0.9607 0.52952 0.14047 0.0
C401 C 1.00303 0.56666 0.1433 0.0
C402 C 0.06705 0.49493 0.14401 0.0
C403 C 0.02459 0.4577 0.14251 0.0
N404 N 0.93147 0.43832 0.14779 0.0
N405 N 0.09437 0.5856 0.15622 0.0
C406 C 0.97144 0.47476 0.14353 0.0
C407 C 0.05562 0.54947 0.14791 0.0
N408 N 0.9109 0.54643 0.13279 0.0
N409 N 0.11801 0.47852 0.13949 0.0
H410 H 0.08649 0.62575 0.15951 0.0
H411 H 0.13277 0.57525 0.16316 0.0
H412 H 0.12774 0.43905 0.13535 0.0
H413 H 0.15023 0.50441 0.13673 0.0
H414 H 0.87947 0.52088 0.12669 0.0
H415 H 0.90191 0.58623 0.12963 0.0
H416 H 0.89202 0.4484 0.15197 0.0
H417 H 0.93872 0.39801 0.15058 0.0
C418 C 0.49426 0.51311 0.44506 0.0
C419 C 0.46834 0.50806 0.4114 0.0
C420 C 0.55357 0.51274 0.37941 0.0
C421 C 0.57966 0.51482 0.41313 0.0
N422 N 0.57729 0.51126 0.47795 0.0
N423 N 0.47152 0.49637 0.347 0.0
C424 C 0.5506 0.51344 0.44601 0.0
C425 C 0.49757 0.50604 0.37863 0.0
N426 N 0.46464 0.51888 0.47585 0.0
N427 N 0.58256 0.51868 0.34831 0.0
H428 H 0.43042 0.4917 0.34587 0.0
H429 H 0.49051 0.4894 0.32241 0.0
H430 H 0.62371 0.52325 0.34833 0.0
H431 H 0.56592 0.52262 0.32283 0.0
H432 H 0.48055 0.52751 0.50109 0.0
H433 H 0.42328 0.51829 0.47566 0.0
H434 H 0.55902 0.50548 0.50297 0.0
H435 H 0.6186 0.51187 0.47912 0.0
C436 C 0.46352 0.03632 0.63808 0.0
C437 C 0.50674 0.07268 0.63644 0.0
C438 C 0.56915 0.9995 0.63407 0.0
C439 C 0.52608 0.96322 0.63729 0.0
N440 N 0.4341 0.94628 0.65029 0.0
N441 N 0.60018 0.09023 0.64093 0.0
C442 C 0.47374 0.98152 0.64188 0.0
C443 C 0.5595 0.05455 0.63704 0.0
N444 N 0.413 0.05385 0.63393 0.0
N445 N 0.61868 0.98145 0.6262 0.0
H446 H 0.59377 0.13074 0.64362 0.0
H447 H 0.63938 0.07942 0.64486 0.0
H448 H 0.62683 0.94142 0.62298 0.0
H449 H 0.65072 1.00624 0.61992 0.0
H450 H 0.38023 0.02868 0.63128 0.0
H451 H 0.40422 0.09356 0.63005 0.0
H452 H 0.39581 0.95749 0.65729 0.0
H453 H 0.441 0.90598 0.6535 0.0
C454 C 0.99104 0.0232 0.9406 0.0
C455 C 0.96537 1.01885 0.90681 0.0
C456 C 0.0508 0.02321 0.87515 0.0
C457 C 0.0766 0.0244 0.90898 0.0
N458 N 0.07374 0.0199 0.97376 0.0
N459 N 0.96895 1.00792 0.84235 0.0
C460 C 0.04732 0.02285 0.94175 0.0
C461 C 0.9948 1.01704 0.87412 0.0
N462 N 0.96124 0.02895 0.97131 0.0
N463 N 0.08008 0.02942 0.8442 0.0
H464 H 0.92784 1.00354 0.84102 0.0
H465 H 0.98812 1.00107 0.8178 0.0
H466 H 0.12128 0.03352 0.84439 0.0
H467 H 0.06366 0.03406 0.81871 0.0
H468 H 0.97705 0.03698 0.99667 0.0
H469 H 0.91989 0.02907 0.97096 0.0
H470 H 0.05521 1.01391 0.99867 0.0
H471 H 0.11503 0.02006 0.97507 0.0
loop_
_geom_bond_atom_site_label_1
_geom_bond_atom_site_label_2
_geom_bond_distance
_geom_bond_site_symmetry_2
_ccdc_geom_bond_type
Cu0 N1 1.999 . S
Cu0 O6 1.974 . S
Cu0 N11 1.985 . S
Cu0 O20 1.959 . S
N1 Cu0 1.999 . S
N1 C3 1.263 . S
N1 C5 1.389 . S
N2 C3 1.358 . S
N2 C4 1.400 . S
C3 N1 1.263 . S
C3 N2 1.358 . S
C3 H9 0.930 . S
C4 N2 1.400 . S
C4 C5 1.351 . S
C4 H21 0.930 . S
C5 N1 1.389 . S
C5 C4 1.351 . S
C5 H10 0.930 . S
O6 Cu0 1.974 . S
O6 C16 1.282 . S
C7 O8 1.261 . S
C7 O20 1.251 . S
O8 C7 1.261 . S
H9 C3 0.930 . S
H10 C5 0.930 . S
N11 Cu0 1.985 . S
N11 C13 1.335 . S
N11 C14 1.390 . S
N12 C13 1.345 . S
N12 C15 1.336 . S
C13 N11 1.335 . S
C13 N12 1.345 . S
C13 H18 0.930 . S
C14 N11 1.390 . S
C14 C15 1.346 . S
C14 H19 0.930 . S
C15 N12 1.336 . S
C15 C14 1.346 . S
C15 H22 0.929 . S
C16 O6 1.282 . S
C16 O17 1.216 . S
O17 C16 1.216 . S
H18 C13 0.930 . S
H19 C14 0.930 . S
O20 Cu0 1.959 . S
O20 C7 1.251 . S
H21 C4 0.930 . S
H22 C15 0.929 . S
Cu23 N24 1.999 . S
Cu23 O29 1.974 . S
Cu23 N34 1.985 . S
Cu23 O43 1.959 . S
N24 Cu23 1.999 . S
N24 C26 1.263 . S
N24 C28 1.389 . S
N25 C26 1.358 . S
N25 C27 1.400 . S
C26 N24 1.263 . S
C26 N25 1.358 . S
C26 H32 0.930 . S
C27 N25 1.400 . S
C27 C28 1.351 . S
C27 H44 0.930 . S
C28 N24 1.389 . S
C28 C27 1.351 . S
C28 H33 0.930 . S
O29 Cu23 1.974 . S
O29 C39 1.282 . S
C30 O31 1.261 . S
C30 O43 1.251 . S
O31 C30 1.261 . S
H32 C26 0.930 . S
H33 C28 0.930 . S
N34 Cu23 1.985 . S
N34 C36 1.335 . S
N34 C37 1.390 . S
N35 C36 1.345 . S
N35 C38 1.336 . S
C36 N34 1.335 . S
C36 N35 1.345 . S
C36 H41 0.930 . S
C37 N34 1.390 . S
C37 C38 1.346 . S
C37 H42 0.930 . S
C38 N35 1.336 . S
C38 C37 1.346 . S
C38 H45 0.929 . S
C39 O29 1.282 . S
C39 O40 1.216 . S
O40 C39 1.216 . S
H41 C36 0.930 . S
H42 C37 0.930 . S
O43 Cu23 1.959 . S
O43 C30 1.251 . S
H44 C27 0.930 . S
H45 C38 0.929 . S
Cu46 N47 1.999 . S
Cu46 O52 1.974 . S
Cu46 N57 1.985 . S
Cu46 O66 1.959 . S
N47 Cu46 1.999 . S
N47 C49 1.263 . S
N47 C51 1.389 . S
N48 C49 1.358 . S
N48 C50 1.400 . S
C49 N47 1.263 . S
C49 N48 1.358 . S
C49 H55 0.930 . S
C50 N48 1.400 . S
C50 C51 1.351 . S
C50 H67 0.930 . S
C51 N47 1.389 . S
C51 C50 1.351 . S
C51 H56 0.930 . S
O52 Cu46 1.974 . S
O52 C62 1.282 . S
C53 O54 1.261 . S
C53 O66 1.251 . S
O54 C53 1.261 . S
H55 C49 0.930 . S
H56 C51 0.930 . S
N57 Cu46 1.985 . S
N57 C59 1.335 . S
N57 C60 1.390 . S
N58 C59 1.345 . S
N58 C61 1.336 . S
C59 N57 1.335 . S
C59 N58 1.345 . S
C59 H64 0.930 . S
C60 N57 1.390 . S
C60 C61 1.346 . S
C60 H65 0.930 . S
C61 N58 1.336 . S
C61 C60 1.346 . S
C61 H68 0.929 . S
C62 O52 1.282 . S
C62 O63 1.216 . S
O63 C62 1.216 . S
H64 C59 0.930 . S
H65 C60 0.930 . S
O66 Cu46 1.959 . S
O66 C53 1.251 . S
H67 C50 0.930 . S
H68 C61 0.929 . S
Cu69 N70 1.999 . S
Cu69 O75 1.974 . S
Cu69 N80 1.985 . S
Cu69 O89 1.959 . S
N70 Cu69 1.999 . S
N70 C72 1.263 . S
N70 C74 1.389 . S
N71 C72 1.358 . S
N71 C73 1.400 . S
C72 N70 1.263 . S
C72 N71 1.358 . S
C72 H78 0.930 . S
C73 N71 1.400 . S
C73 C74 1.351 . S
C73 H90 0.930 . S
C74 N70 1.389 . S
C74 C73 1.351 . S
C74 H79 0.930 . S
O75 Cu69 1.974 . S
O75 C85 1.282 . S
C76 O77 1.261 . S
C76 O89 1.251 . S
O77 C76 1.261 . S
H78 C72 0.930 . S
H79 C74 0.930 . S
N80 Cu69 1.985 . S
N80 C82 1.335 . S
N80 C83 1.390 . S
N81 C82 1.345 . S
N81 C84 1.336 . S
C82 N80 1.335 . S
C82 N81 1.345 . S
C82 H87 0.930 . S
C83 N80 1.390 . S
C83 C84 1.346 . S
C83 H88 0.930 . S
C84 N81 1.336 . S
C84 C83 1.346 . S
C84 H91 0.929 . S
C85 O75 1.282 . S
C85 O86 1.216 . S
O86 C85 1.216 . S
H87 C82 0.930 . S
H88 C83 0.930 . S
O89 Cu69 1.959 . S
O89 C76 1.251 . S
H90 C73 0.930 . S
H91 C84 0.929 . S
Cu92 N93 1.999 . S
Cu92 O98 1.974 . S
Cu92 N103 1.985 . S
Cu92 O112 1.959 . S
N93 Cu92 1.999 . S
N93 C95 1.263 . S
N93 C97 1.389 . S
N94 C95 1.358 . S
N94 C96 1.400 . S
C95 N93 1.263 . S
C95 N94 1.358 . S
C95 H101 0.930 . S
C96 N94 1.400 . S
C96 C97 1.351 . S
C96 H113 0.930 . S
C97 N93 1.389 . S
C97 C96 1.351 . S
C97 H102 0.930 . S
O98 Cu92 1.974 . S
O98 C108 1.282 . S
C99 O100 1.261 . S
C99 O112 1.251 . S
O100 C99 1.261 . S
H101 C95 0.930 . S
H102 C97 0.930 . S
N103 Cu92 1.985 . S
N103 C105 1.335 . S
N103 C106 1.390 . S
N104 C105 1.345 . S
N104 C107 1.336 . S
C105 N103 1.335 . S
C105 N104 1.345 . S
C105 H110 0.930 . S
C106 N103 1.390 . S
C106 C107 1.346 . S
C106 H111 0.930 . S
C107 N104 1.336 . S
C107 C106 1.346 . S
C107 H114 0.929 . S
C108 O98 1.282 . S
C108 O109 1.216 . S
O109 C108 1.216 . S
H110 C105 0.930 . S
H111 C106 0.930 . S
O112 Cu92 1.959 . S
O112 C99 1.251 . S
H113 C96 0.930 . S
H114 C107 0.929 . S
Cu115 N116 1.999 . S
Cu115 O121 1.974 . S
Cu115 N126 1.985 . S
Cu115 O135 1.959 . S
N116 Cu115 1.999 . S
N116 C118 1.263 . S
N116 C120 1.389 . S
N117 C118 1.358 . S
N117 C119 1.400 . S
C118 N116 1.263 . S
C118 N117 1.358 . S
C118 H124 0.930 . S
C119 N117 1.400 . S
C119 C120 1.351 . S
C119 H136 0.930 . S
C120 N116 1.389 . S
C120 C119 1.351 . S
C120 H125 0.930 . S
O121 Cu115 1.974 . S
O121 C131 1.282 . S
C122 O123 1.261 . S
C122 O135 1.251 . S
O123 C122 1.261 . S
H124 C118 0.930 . S
H125 C120 0.930 . S
N126 Cu115 1.985 . S
N126 C128 1.335 . S
N126 C129 1.390 . S
N127 C128 1.345 . S
N127 C130 1.336 . S
C128 N126 1.335 . S
C128 N127 1.345 . S
C128 H133 0.930 . S
C129 N126 1.390 . S
C129 C130 1.346 . S
C129 H134 0.930 . S
C130 N127 1.336 . S
C130 C129 1.346 . S
C130 H137 0.929 . S
C131 O121 1.282 . S
C131 O132 1.216 . S
O132 C131 1.216 . S
H133 C128 0.930 . S
H134 C129 0.930 . S
O135 Cu115 1.959 . S
O135 C122 1.251 . S
H136 C119 0.930 . S
H137 C130 0.929 . S
Cu138 N139 1.999 . S
Cu138 O144 1.974 . S
Cu138 N149 1.985 . S
Cu138 O158 1.959 . S
N139 Cu138 1.999 . S
N139 C141 1.263 . S
N139 C143 1.389 . S
N140 C141 1.358 . S
N140 C142 1.400 . S
C141 N139 1.263 . S
C141 N140 1.358 . S
C141 H147 0.930 . S
C142 N140 1.400 . S
C142 C143 1.351 . S
C142 H159 0.930 . S
C143 N139 1.389 . S
C143 C142 1.351 . S
C143 H148 0.930 . S
O144 Cu138 1.974 . S
O144 C154 1.282 . S
C145 O146 1.261 . S
C145 O158 1.251 . S
O146 C145 1.261 . S
H147 C141 0.930 . S
H148 C143 0.930 . S
N149 Cu138 1.985 . S
N149 C151 1.335 . S
N149 C152 1.390 . S
N150 C151 1.345 . S
N150 C153 1.336 . S
C151 N149 1.335 . S
C151 N150 1.345 . S
C151 H156 0.930 . S
C152 N149 1.390 . S
C152 C153 1.346 . S
C152 H157 0.930 . S
C153 N150 1.336 . S
C153 C152 1.346 . S
C153 H160 0.929 . S
C154 O144 1.282 . S
C154 O155 1.216 . S
O155 C154 1.216 . S
H156 C151 0.930 . S
H157 C152 0.930 . S
O158 Cu138 1.959 . S
O158 C145 1.251 . S
H159 C142 0.930 . S
H160 C153 0.929 . S
Cu161 N162 1.999 . S
Cu161 O167 1.974 . S
Cu161 N172 1.985 . S
Cu161 O181 1.959 . S
N162 Cu161 1.999 . S
N162 C164 1.263 . S
N162 C166 1.389 . S
N163 C164 1.358 . S
N163 C165 1.400 . S
C164 N162 1.263 . S
C164 N163 1.358 . S
C164 H170 0.930 . S
C165 N163 1.400 . S
C165 C166 1.351 . S
C165 H182 0.930 . S
C166 N162 1.389 . S
C166 C165 1.351 . S
C166 H171 0.930 . S
O167 Cu161 1.974 . S
O167 C177 1.282 . S
C168 O169 1.261 . S
C168 O181 1.251 . S
O169 C168 1.261 . S
H170 C164 0.930 . S
H171 C166 0.930 . S
N172 Cu161 1.985 . S
N172 C174 1.335 . S
N172 C175 1.390 . S
N173 C174 1.345 . S
N173 C176 1.336 . S
C174 N172 1.335 . S
C174 N173 1.345 . S
C174 H179 0.930 . S
C175 N172 1.390 . S
C175 C176 1.346 . S
C175 H180 0.930 . S
C176 N173 1.336 . S
C176 C175 1.346 . S
C176 H183 0.929 . S
C177 O167 1.282 . S
C177 O178 1.216 . S
O178 C177 1.216 . S
H179 C174 0.930 . S
H180 C175 0.930 . S
O181 Cu161 1.959 . S
O181 C168 1.251 . S
H182 C165 0.930 . S
H183 C176 0.929 . S
C184 C185 1.363 1_556 S
C184 C190 1.379 . S
C184 N192 1.356 . S
C185 C184 1.363 1_554 S
C185 C191 1.363 . S
C186 C187 1.363 1_554 S
C186 C191 1.379 . S
C186 N193 1.356 . S
C187 C186 1.363 1_556 S
C187 C190 1.363 . S
N188 C190 1.356 . S
N188 H200 0.984 . S
N188 H201 0.985 . S
N189 C191 1.356 . S
N189 H194 0.984 . S
N189 H195 0.985 . S
C190 C184 1.379 . S
C190 C187 1.363 . S
C190 N188 1.356 . S
C191 C185 1.363 . S
C191 C186 1.379 . S
C191 N189 1.356 . S
N192 C184 1.356 . S
N192 H198 0.984 . S
N192 H199 0.984 1_556 S
N193 C186 1.356 . S
N193 H196 0.984 1_554 S
N193 H197 0.985 . S
H194 N189 0.984 . S
H195 N189 0.985 . S
H196 N193 0.984 1_556 S
H197 N193 0.985 . S
H198 N192 0.984 . S
H199 N192 0.984 1_554 S
H200 N188 0.984 . S
H201 N188 0.985 . S
C202 C203 1.363 . S
C202 C208 1.379 . S
C202 N210 1.356 . S
C203 C202 1.363 . S
C203 C209 1.363 . S
C204 C205 1.363 . S
C204 C209 1.379 . S
C204 N211 1.356 . S
C205 C204 1.363 . S
C205 C208 1.363 . S
N206 C208 1.356 . S
N206 H218 0.984 . S
N206 H219 0.985 . S
N207 C209 1.356 . S
N207 H212 0.984 . S
N207 H213 0.985 . S
C208 C202 1.379 . S
C208 C205 1.363 . S
C208 N206 1.356 . S
C209 C203 1.363 . S
C209 C204 1.379 . S
C209 N207 1.356 . S
N210 C202 1.356 . S
N210 H216 0.984 . S
N210 H217 0.984 . S
N211 C204 1.356 . S
N211 H214 0.984 . S
N211 H215 0.985 . S
H212 N207 0.984 . S
H213 N207 0.985 . S
H214 N211 0.984 . S
H215 N211 0.985 . S
H216 N210 0.984 . S
H217 N210 0.984 . S
H218 N206 0.984 . S
H219 N206 0.985 . S
C220 C221 1.363 . S
C220 C226 1.379 . S
C220 N228 1.356 . S
C221 C220 1.363 . S
C221 C227 1.363 . S
C222 C223 1.363 . S
C222 C227 1.379 . S
C222 N229 1.356 . S
C223 C222 1.363 . S
C223 C226 1.363 . S
N224 C226 1.356 . S
N224 H236 0.984 . S
N224 H237 0.985 . S
N225 C227 1.356 . S
N225 H230 0.984 . S
N225 H231 0.985 . S
C226 C220 1.379 . S
C226 C223 1.363 . S
C226 N224 1.356 . S
C227 C221 1.363 . S
C227 C222 1.379 . S
C227 N225 1.356 . S
N228 C220 1.356 . S
N228 H234 0.984 . S
N228 H235 0.984 . S
N229 C222 1.356 . S
N229 H232 0.984 . S
N229 H233 0.985 . S
H230 N225 0.984 . S
H231 N225 0.985 . S
H232 N229 0.984 . S
H233 N229 0.985 . S
H234 N228 0.984 . S
H235 N228 0.984 . S
H236 N224 0.984 . S
H237 N224 0.985 . S
C238 C239 1.363 . S
C238 C244 1.379 . S
C238 N246 1.356 . S
C239 C238 1.363 . S
C239 C245 1.363 . S
C240 C241 1.363 . S
C240 C245 1.379 . S
C240 N247 1.356 . S
C241 C240 1.363 . S
C241 C244 1.363 . S
N242 C244 1.356 . S
N242 H254 0.984 . S
N242 H255 0.985 . S
N243 C245 1.356 . S
N243 H248 0.984 . S
N243 H249 0.985 . S
C244 C238 1.379 . S
C244 C241 1.363 . S
C244 N242 1.356 . S
C245 C239 1.363 . S
C245 C240 1.379 . S
C245 N243 1.356 . S
N246 C238 1.356 . S
N246 H252 0.984 . S
N246 H253 0.984 . S
N247 C240 1.356 . S
N247 H250 0.984 . S
N247 H251 0.985 . S
H248 N243 0.984 . S
H249 N243 0.985 . S
H250 N247 0.984 . S
H251 N247 0.985 . S
H252 N246 0.984 . S
H253 N246 0.984 . S
H254 N242 0.984 . S
H255 N242 0.985 . S
C256 C257 1.363 . S
C256 C262 1.379 . S
C256 N264 1.356 . S
C257 C256 1.363 . S
C257 C263 1.363 . S
C258 C259 1.363 . S
C258 C263 1.379 . S
C258 N265 1.356 . S
C259 C258 1.363 . S
C259 C262 1.363 . S
N260 C262 1.356 . S
N260 H272 0.984 . S
N260 H273 0.985 . S
N261 C263 1.356 . S
N261 H266 0.984 . S
N261 H267 0.985 . S
C262 C256 1.379 . S
C262 C259 1.363 . S
C262 N260 1.356 . S
C263 C257 1.363 . S
C263 C258 1.379 . S
C263 N261 1.356 . S
N264 C256 1.356 . S
N264 H270 0.984 . S
N264 H271 0.984 . S
N265 C258 1.356 . S
N265 H268 0.984 . S
N265 H269 0.985 . S
H266 N261 0.984 . S
H267 N261 0.985 . S
H268 N265 0.984 . S
H269 N265 0.985 . S
H270 N264 0.984 . S
H271 N264 0.984 . S
H272 N260 0.984 . S
H273 N260 0.985 . S
C274 C275 1.363 . S
C274 C280 1.379 . S
C274 N282 1.356 . S
C275 C274 1.363 . S
C275 C281 1.363 . S
C276 C277 1.363 . S
C276 C281 1.379 . S
C276 N283 1.356 . S
C277 C276 1.363 . S
C277 C280 1.363 . S
N278 C280 1.356 . S
N278 H290 0.984 . S
N278 H291 0.985 . S
N279 C281 1.356 . S
N279 H284 0.984 . S
N279 H285 0.985 . S
C280 C274 1.379 . S
C280 C277 1.363 . S
C280 N278 1.356 . S
C281 C275 1.363 . S
C281 C276 1.379 . S
C281 N279 1.356 . S
N282 C274 1.356 . S
N282 H288 0.984 . S
N282 H289 0.984 . S
N283 C276 1.356 . S
N283 H286 0.984 . S
N283 H287 0.985 . S
H284 N279 0.984 . S
H285 N279 0.985 . S
H286 N283 0.984 . S
H287 N283 0.985 . S
H288 N282 0.984 . S
H289 N282 0.984 . S
H290 N278 0.984 . S
H291 N278 0.985 . S
C292 C293 1.363 . S
C292 C298 1.379 . S
C292 N300 1.356 . S
C293 C292 1.363 . S
C293 C299 1.363 . S
C294 C295 1.363 . S
C294 C299 1.379 . S
C294 N301 1.356 . S
C295 C294 1.363 . S
C295 C298 1.363 . S
N296 C298 1.356 . S
N296 H308 0.984 . S
N296 H309 0.985 . S
N297 C299 1.356 . S
N297 H302 0.984 . S
N297 H303 0.985 . S
C298 C292 1.379 . S
C298 C295 1.363 . S
C298 N296 1.356 . S
C299 C293 1.363 . S
C299 C294 1.379 . S
C299 N297 1.356 . S
N300 C292 1.356 . S
N300 H306 0.984 . S
N300 H307 0.984 . S
N301 C294 1.356 . S
N301 H304 0.984 . S
N301 H305 0.985 . S
H302 N297 0.984 . S
H303 N297 0.985 . S
H304 N301 0.984 . S
H305 N301 0.985 . S
H306 N300 0.984 . S
H307 N300 0.984 . S
H308 N296 0.984 . S
H309 N296 0.985 . S
C310 C311 1.363 . S
C310 C316 1.357 1_554 S
C310 N318 1.356 . S
C311 C310 1.363 . S
C311 C317 1.385 . S
C312 C313 1.363 . S
C312 C317 1.357 1_556 S
C312 N319 1.356 . S
C313 C312 1.363 . S
C313 C316 1.385 . S
N314 C316 1.365 . S
N314 H326 0.984 1_556 S
N314 H327 0.985 . S
N315 C317 1.365 . S
N315 H320 0.984 . S
N315 H321 0.985 1_554 S
C316 C310 1.357 1_556 S
C316 C313 1.385 . S
C316 N314 1.365 . S
C317 C311 1.385 . S
C317 C312 1.357 1_554 S
C317 N315 1.365 . S
N318 C310 1.356 . S
N318 H324 0.984 . S
N318 H325 0.984 . S
N319 C312 1.356 . S
N319 H322 0.984 . S
N319 H323 0.985 . S
H320 N315 0.984 . S
H321 N315 0.985 1_556 S
H322 N319 0.984 . S
H323 N319 0.985 . S
H324 N318 0.984 . S
H325 N318 0.984 . S
H326 N314 0.984 1_554 S
H327 N314 0.985 . S
C328 C329 1.363 . S
C328 C334 1.379 1_455 S
C328 N336 1.356 . S
C329 C328 1.363 . S
C329 C335 1.363 1_545 S
C330 C331 1.363 . S
C330 C335 1.379 1_655 S
C330 N337 1.356 . S
C331 C330 1.363 . S
C331 C334 1.363 1_565 S
N332 C334 1.356 1_565 S
N332 H344 0.984 1_565 S
N332 H345 0.985 . S
N333 C335 1.356 1_545 S
N333 H338 0.984 . S
N333 H339 0.985 1_545 S
C334 C328 1.379 1_655 S
C334 C331 1.363 1_545 S
C334 N332 1.356 1_545 S
C335 C329 1.363 1_565 S
C335 C330 1.379 1_455 S
C335 N333 1.356 1_565 S
N336 C328 1.356 . S
N336 H342 0.984 1_455 S
N336 H343 0.984 . S
N337 C330 1.356 . S
N337 H340 0.984 . S
N337 H341 0.985 1_655 S
H338 N333 0.984 . S
H339 N333 0.985 1_565 S
H340 N337 0.984 . S
H341 N337 0.985 1_455 S
H342 N336 0.984 1_655 S
H343 N336 0.984 . S
H344 N332 0.984 1_545 S
H345 N332 0.985 . S
C346 C347 1.363 1_655 S
C346 C352 1.379 . S
C346 N354 1.356 1_655 S
C347 C346 1.363 1_455 S
C347 C353 1.363 . S
C348 C349 1.363 1_455 S
C348 C353 1.379 . S
C348 N355 1.356 1_455 S
C349 C348 1.363 1_655 S
C349 C352 1.363 . S
N350 C352 1.356 . S
N350 H362 0.984 . S
N350 H363 0.985 . S
N351 C353 1.356 . S
N351 H356 0.984 . S
N351 H357 0.985 . S
C352 C346 1.379 . S
C352 C349 1.363 . S
C352 N350 1.356 . S
C353 C347 1.363 . S
C353 C348 1.379 . S
C353 N351 1.356 . S
N354 C346 1.356 1_455 S
N354 H360 0.984 1_455 S
N354 H361 0.984 . S
N355 C348 1.356 1_655 S
N355 H358 0.984 . S
N355 H359 0.985 1_655 S
H356 N351 0.984 . S
H357 N351 0.985 . S
H358 N355 0.984 . S
H359 N355 0.985 1_455 S
H360 N354 0.984 1_655 S
H361 N354 0.984 . S
H362 N350 0.984 . S
H363 N350 0.985 . S
C364 C365 1.363 . S
C364 C370 1.379 . S
C364 N372 1.356 . S
C365 C364 1.363 . S
C365 C371 1.363 . S
C366 C367 1.363 . S
C366 C371 1.379 . S
C366 N373 1.356 . S
C367 C366 1.363 . S
C367 C370 1.363 . S
N368 C370 1.356 . S
N368 H380 0.984 . S
N368 H381 0.985 . S
N369 C371 1.356 . S
N369 H374 0.984 . S
N369 H375 0.985 . S
C370 C364 1.379 . S
C370 C367 1.363 . S
C370 N368 1.356 . S
C371 C365 1.363 . S
C371 C366 1.379 . S
C371 N369 1.356 . S
N372 C364 1.356 . S
N372 H378 0.984 . S
N372 H379 0.984 . S
N373 C366 1.356 . S
N373 H376 0.984 . S
N373 H377 0.985 . S
H374 N369 0.984 . S
H375 N369 0.985 . S
H376 N373 0.984 . S
H377 N373 0.985 . S
H378 N372 0.984 . S
H379 N372 0.984 . S
H380 N368 0.984 . S
H381 N368 0.985 . S
C382 C383 1.363 . S
C382 C388 1.379 1_565 S
C382 N390 1.356 . S
C383 C382 1.363 . S
C383 C389 1.363 . S
C384 C385 1.363 . S
C384 C389 1.379 1_545 S
C384 N391 1.356 . S
C385 C384 1.363 . S
C385 C388 1.363 . S
N386 C388 1.356 . S
N386 H398 0.984 1_545 S
N386 H399 0.985 . S
N387 C389 1.356 . S
N387 H392 0.984 . S
N387 H393 0.985 1_565 S
C388 C382 1.379 1_545 S
C388 C385 1.363 . S
C388 N386 1.356 . S
C389 C383 1.363 . S
C389 C384 1.379 1_565 S
C389 N387 1.356 . S
N390 C382 1.356 . S
N390 H396 0.984 . S
N390 H397 0.984 . S
N391 C384 1.356 . S
N391 H394 0.984 . S
N391 H395 0.985 . S
H392 N387 0.984 . S
H393 N387 0.985 1_545 S
H394 N391 0.984 . S
H395 N391 0.985 . S
H396 N390 0.984 . S
H397 N390 0.984 . S
H398 N386 0.984 1_565 S
H399 N386 0.985 . S
C400 C401 1.363 . S
C400 C406 1.379 1_655 S
C400 N408 1.356 . S
C401 C400 1.363 . S
C401 C407 1.363 . S
C402 C403 1.363 . S
C402 C407 1.379 1_455 S
C402 N409 1.356 . S
C403 C402 1.363 . S
C403 C406 1.363 . S
N404 C406 1.356 . S
N404 H416 0.984 1_455 S
N404 H417 0.985 . S
N405 C407 1.356 . S
N405 H410 0.984 . S
N405 H411 0.985 1_655 S
C406 C400 1.379 1_455 S
C406 C403 1.363 . S
C406 N404 1.356 . S
C407 C401 1.363 . S
C407 C402 1.379 1_655 S
C407 N405 1.356 . S
N408 C400 1.356 . S
N408 H414 0.984 . S
N408 H415 0.984 . S
N409 C402 1.356 . S
N409 H412 0.984 . S
N409 H413 0.985 . S
H410 N405 0.984 . S
H411 N405 0.985 1_455 S
H412 N409 0.984 . S
H413 N409 0.985 . S
H414 N408 0.984 . S
H415 N408 0.984 . S
H416 N404 0.984 1_655 S
H417 N404 0.985 . S
C418 C419 1.363 . S
C418 C424 1.379 . S
C418 N426 1.356 . S
C419 C418 1.363 . S
C419 C425 1.363 . S
C420 C421 1.363 . S
C420 C425 1.379 . S
C420 N427 1.356 . S
C421 C420 1.363 . S
C421 C424 1.363 . S
N422 C424 1.356 . S
N422 H434 0.984 . S
N422 H435 0.985 . S
N423 C425 1.356 . S
N423 H428 0.984 . S
N423 H429 0.985 . S
C424 C418 1.379 . S
C424 C421 1.363 . S
C424 N422 1.356 . S
C425 C419 1.363 . S
C425 C420 1.379 . S
C425 N423 1.356 . S
N426 C418 1.356 . S
N426 H432 0.984 . S
N426 H433 0.984 . S
N427 C420 1.356 . S
N427 H430 0.984 . S
N427 H431 0.985 . S
H428 N423 0.984 . S
H429 N423 0.985 . S
H430 N427 0.984 . S
H431 N427 0.985 . S
H432 N426 0.984 . S
H433 N426 0.984 . S
H434 N422 0.984 . S
H435 N422 0.985 . S
C436 C437 1.363 1_565 S
C436 C442 1.379 . S
C436 N444 1.356 1_565 S
C437 C436 1.363 1_545 S
C437 C443 1.363 . S
C438 C439 1.363 1_545 S
C438 C443 1.379 . S
C438 N445 1.356 1_545 S
C439 C438 1.363 1_565 S
C439 C442 1.363 . S
N440 C442 1.356 . S
N440 H452 0.984 . S
N440 H453 0.985 . S
N441 C443 1.356 . S
N441 H446 0.984 . S
N441 H447 0.985 . S
C442 C436 1.379 . S
C442 C439 1.363 . S
C442 N440 1.356 . S
C443 C437 1.363 . S
C443 C438 1.379 . S
C443 N441 1.356 . S
N444 C436 1.356 1_545 S
N444 H450 0.984 1_545 S
N444 H451 0.984 . S
N445 C438 1.356 1_565 S
N445 H448 0.984 . S
N445 H449 0.985 1_565 S
H446 N441 0.984 . S
H447 N441 0.985 . S
H448 N445 0.984 . S
H449 N445 0.985 1_545 S
H450 N444 0.984 1_565 S
H451 N444 0.984 . S
H452 N440 0.984 . S
H453 N440 0.985 . S
C454 C455 1.363 . S
C454 C460 1.379 1_565 S
C454 N462 1.356 . S
C455 C454 1.363 . S
C455 C461 1.363 1_655 S
C456 C457 1.363 . S
C456 C461 1.379 1_545 S
C456 N463 1.356 . S
C457 C456 1.363 . S
C457 C460 1.363 1_455 S
N458 C460 1.356 1_455 S
N458 H470 0.984 1_455 S
N458 H471 0.985 . S
N459 C461 1.356 1_655 S
N459 H464 0.984 . S
N459 H465 0.985 1_655 S
C460 C454 1.379 1_545 S
C460 C457 1.363 1_655 S
C460 N458 1.356 1_655 S
C461 C455 1.363 1_455 S
C461 C456 1.379 1_565 S
C461 N459 1.356 1_455 S
N462 C454 1.356 . S
N462 H468 0.984 1_565 S
N462 H469 0.984 . S
N463 C456 1.356 . S
N463 H466 0.984 . S
N463 H467 0.985 1_545 S
H464 N459 0.984 . S
H465 N459 0.985 1_455 S
H466 N463 0.984 . S
H467 N463 0.985 1_565 S
H468 N462 0.984 1_545 S
H469 N462 0.984 . S
H470 N458 0.984 1_655 S
H471 N458 0.985 . S
C185 C16 1.825 . S
C187 C131 1.825 . S
C203 C30 1.883 . S
C205 C145 1.883 . S
C221 C62 1.825 . S
C223 C177 1.825 . S
C239 C76 1.883 . S
C241 C99 1.883 . S
C257 C168 1.883 . S
C259 C7 1.883 . S
C275 C108 1.825 . S
C277 C39 1.825 . S
C293 C53 1.883 . S
C295 C122 1.883 . S
C311 C154 1.825 . S
C313 C85 1.825 . S
C329 N2 1.732 . S
C331 N140 1.732 . S
C347 N173 1.926 . S
C349 N35 1.926 . S
C365 N48 1.732 . S
C367 N94 1.732 . S
C383 N81 1.926 . S
C385 N127 1.926 . S
C401 N150 1.926 . S
C403 N12 1.926 . S
C419 N163 1.732 . S
C421 N25 1.732 . S
C437 N58 1.926 . S
C439 N104 1.926 . S
C455 N71 1.732 . S
C457 N117 1.732 . S
