# Generated by pormake.
# Topology fnj, (5)-cn, num edge types: 1
# Building blocks:
#     Node 0, Type 0, BuildingBlock: BEQFEK_clean_sbu_0, # of connection points: 5
#     Node 1, Type 0, BuildingBlock: BEQFEK_clean_sbu_0, # of connection points: 5
#     Node 2, Type 0, BuildingBlock: BEQFEK_clean_sbu_0, # of connection points: 5
#     Node 3, Type 0, BuildingBlock: BEQFEK_clean_sbu_0, # of connection points: 5
#     Node 4, Type 0, BuildingBlock: BEQFEK_clean_sbu_0, # of connection points: 5
#     Node 5, Type 0, BuildingBlock: BEQFEK_clean_sbu_0, # of connection points: 5
#     Node 6, Type 0, BuildingBlock: BEQFEK_clean_sbu_0, # of connection points: 5
#     Node 7, Type 0, BuildingBlock: BEQFEK_clean_sbu_0, # of connection points: 5
#     Node 8, Type 0, BuildingBlock: BEQFEK_clean_sbu_0, # of connection points: 5
#     Node 9, Type 0, BuildingBlock: BEQFEK_clean_sbu_0, # of connection points: 5
#     Node 10, Type 0, BuildingBlock: BEQFEK_clean_sbu_0, # of connection points: 5
#     Node 11, Type 0, BuildingBlock: BEQFEK_clean_sbu_0, # of connection points: 5
#     Node 12, Type 0, BuildingBlock: BEQFEK_clean_sbu_0, # of connection points: 5
#     Node 13, Type 0, BuildingBlock: BEQFEK_clean_sbu_0, # of connection points: 5
#     Node 14, Type 0, BuildingBlock: BEQFEK_clean_sbu_0, # of connection points: 5
#     Node 15, Type 0, BuildingBlock: BEQFEK_clean_sbu_0, # of connection points: 5
#     Edge 16, Type (0, 0), BuildingBlock: KIFKEQ_clean_linker_1, # of connection points: 2
#     Edge 17, Type (0, 0), BuildingBlock: KIFKEQ_clean_linker_1, # of connection points: 2
#     Edge 18, Type (0, 0), BuildingBlock: KIFKEQ_clean_linker_1, # of connection points: 2
#     Edge 19, Type (0, 0), BuildingBlock: KIFKEQ_clean_linker_1, # of connection points: 2
#     Edge 20, Type (0, 0), BuildingBlock: KIFKEQ_clean_linker_1, # of connection points: 2
#     Edge 21, Type (0, 0), BuildingBlock: KIFKEQ_clean_linker_1, # of connection points: 2
#     Edge 22, Type (0, 0), BuildingBlock: KIFKEQ_clean_linker_1, # of connection points: 2
#     Edge 23, Type (0, 0), BuildingBlock: KIFKEQ_clean_linker_1, # of connection points: 2
#     Edge 24, Type (0, 0), BuildingBlock: KIFKEQ_clean_linker_1, # of connection points: 2
#     Edge 25, Type (0, 0), BuildingBlock: KIFKEQ_clean_linker_1, # of connection points: 2
#     Edge 26, Type (0, 0), BuildingBlock: KIFKEQ_clean_linker_1, # of connection points: 2
#     Edge 27, Type (0, 0), BuildingBlock: KIFKEQ_clean_linker_1, # of connection points: 2
#     Edge 28, Type (0, 0), BuildingBlock: KIFKEQ_clean_linker_1, # of connection points: 2
#     Edge 29, Type (0, 0), BuildingBlock: KIFKEQ_clean_linker_1, # of connection points: 2
#     Edge 30, Type (0, 0), BuildingBlock: KIFKEQ_clean_linker_1, # of connection points: 2
#     Edge 31, Type (0, 0), BuildingBlock: KIFKEQ_clean_linker_1, # of connection points: 2
#     Edge 32, Type (0, 0), BuildingBlock: KIFKEQ_clean_linker_1, # of connection points: 2
#     Edge 33, Type (0, 0), BuildingBlock: KIFKEQ_clean_linker_1, # of connection points: 2
#     Edge 34, Type (0, 0), BuildingBlock: KIFKEQ_clean_linker_1, # of connection points: 2
#     Edge 35, Type (0, 0), BuildingBlock: KIFKEQ_clean_linker_1, # of connection points: 2
#     Edge 36, Type (0, 0), BuildingBlock: KIFKEQ_clean_linker_1, # of connection points: 2
#     Edge 37, Type (0, 0), BuildingBlock: KIFKEQ_clean_linker_1, # of connection points: 2
#     Edge 38, Type (0, 0), BuildingBlock: KIFKEQ_clean_linker_1, # of connection points: 2
#     Edge 39, Type (0, 0), BuildingBlock: KIFKEQ_clean_linker_1, # of connection points: 2
#     Edge 40, Type (0, 0), BuildingBlock: KIFKEQ_clean_linker_1, # of connection points: 2
#     Edge 41, Type (0, 0), BuildingBlock: KIFKEQ_clean_linker_1, # of connection points: 2
#     Edge 42, Type (0, 0), BuildingBlock: KIFKEQ_clean_linker_1, # of connection points: 2
#     Edge 43, Type (0, 0), BuildingBlock: KIFKEQ_clean_linker_1, # of connection points: 2
#     Edge 44, Type (0, 0), BuildingBlock: KIFKEQ_clean_linker_1, # of connection points: 2
#     Edge 45, Type (0, 0), BuildingBlock: KIFKEQ_clean_linker_1, # of connection points: 2
#     Edge 46, Type (0, 0), BuildingBlock: KIFKEQ_clean_linker_1, # of connection points: 2
#     Edge 47, Type (0, 0), BuildingBlock: KIFKEQ_clean_linker_1, # of connection points: 2
#     Edge 48, Type (0, 0), BuildingBlock: KIFKEQ_clean_linker_1, # of connection points: 2
#     Edge 49, Type (0, 0), BuildingBlock: KIFKEQ_clean_linker_1, # of connection points: 2
#     Edge 50, Type (0, 0), BuildingBlock: KIFKEQ_clean_linker_1, # of connection points: 2
#     Edge 51, Type (0, 0), BuildingBlock: KIFKEQ_clean_linker_1, # of connection points: 2
#     Edge 52, Type (0, 0), BuildingBlock: KIFKEQ_clean_linker_1, # of connection points: 2
#     Edge 53, Type (0, 0), BuildingBlock: KIFKEQ_clean_linker_1, # of connection points: 2
#     Edge 54, Type (0, 0), BuildingBlock: KIFKEQ_clean_linker_1, # of connection points: 2
#     Edge 55, Type (0, 0), BuildingBlock: KIFKEQ_clean_linker_1, # of connection points: 2
# Relax obj value: 0.138
# Max RMSD: 0.161
# Mean RMSD: 0.161
data_MOF--net-fnj--node1-BEQFEK_clean_sbu_0--edge1-KIFKEQ_clean_linker_1
_symmetry_space_group_name_H-M    P1
_symmetry_Int_Tables_number       1
_symmetry_cell_setting            triclinic
loop_
_symmetry_equiv_pos_as_xyz
'x, y, z'
_cell_length_a     75.395409
_cell_length_b     75.435168
_cell_length_c     19.216691
_cell_angle_alpha  89.979945
_cell_angle_beta   89.979049
_cell_angle_gamma 100.62004
loop_
_atom_site_label
_atom_site_type_symbol
_atom_site_fract_x
_atom_site_fract_y
_atom_site_fract_z
_atom_type_partial_charge
Co0 Co 0.39089 0.04696 0.97714 0.0
Co1 Co 0.38938 0.03243 0.13031 0.0
C2 C 0.37562 0.06644 0.08889 0.0
O3 O 0.38067 0.06621 0.02562 0.0
O4 O 0.37799 0.05408 0.13104 0.0
C5 C 0.40191 0.0652 0.8411 0.0
O6 O 0.41172 0.07903 0.87281 0.0
C7 C 0.39691 0.03893 0.27723 0.0
C8 C 0.39299 0.01163 0.32276 0.0
C9 C 0.39718 0.02979 0.33953 0.0
N10 N 0.39262 0.02682 0.22588 0.0
N11 N 0.39033 0.01049 0.25335 0.0
C12 C 0.40172 0.05887 0.26593 0.0
H13 H 0.40714 0.06183 0.21262 0.0
H14 H 0.41183 0.06515 0.30486 0.0
H15 H 0.38946 0.06487 0.27207 0.0
C16 C 0.42956 0.04308 0.99386 0.0
N17 N 0.41274 0.04276 0.01863 0.0
N18 N 0.41201 0.03704 0.08355 0.0
C19 C 0.42839 0.03395 0.10249 0.0
C20 C 0.44003 0.0377 0.04641 0.0
C21 C 0.43538 0.04795 0.92082 0.0
H22 H 0.42505 0.04115 0.88381 0.0
H23 H 0.43679 0.06273 0.91421 0.0
H24 H 0.44857 0.04419 0.90851 0.0
O25 O 0.37305 0.02426 0.97902 0.0
O26 O 0.37264 0.01223 0.08444 0.0
H27 H 0.42239 0.01345 0.18031 0.0
H28 H 0.44613 0.0228 0.17225 0.0
C29 C 0.43235 0.02599 0.17081 0.0
H30 H 0.43103 0.03566 0.21307 0.0
H31 H 0.3868 0.99858 0.22486 0.0
O32 O 0.39339 0.05204 0.87603 0.0
C33 C 0.36719 0.01159 0.02151 0.0
Co34 Co 0.27355 0.16339 0.36939 0.0
Co35 Co 0.25881 0.16126 0.21647 0.0
C36 C 0.29305 0.14797 0.25799 0.0
O37 O 0.29288 0.15324 0.32098 0.0
O38 O 0.28057 0.15006 0.21596 0.0
C39 C 0.29154 0.17523 0.50533 0.0
O40 O 0.30486 0.18585 0.47363 0.0
C41 C 0.26513 0.16847 0.06921 0.0
C42 C 0.23775 0.16453 0.02425 0.0
C43 C 0.2559 0.16872 0.00709 0.0
N44 N 0.25307 0.16421 0.12083 0.0
N45 N 0.23669 0.16188 0.0937 0.0
C46 C 0.28508 0.17343 0.08013 0.0
H47 H 0.28806 0.17888 0.13336 0.0
H48 H 0.29126 0.18356 0.04107 0.0
H49 H 0.29117 0.16124 0.07393 0.0
C50 C 0.26922 0.20191 0.35087 0.0
N51 N 0.26906 0.18504 0.32705 0.0
N52 N 0.26337 0.18406 0.26205 0.0
C53 C 0.26024 0.20034 0.24213 0.0
C54 C 0.2639 0.21215 0.29755 0.0
C55 C 0.27328 0.20793 0.42422 0.0
H56 H 0.2881 0.21078 0.43176 0.0
H57 H 0.26807 0.22043 0.43599 0.0
H58 H 0.26719 0.19716 0.46085 0.0
O59 O 0.251 0.14539 0.36844 0.0
O60 O 0.23872 0.14452 0.2634 0.0
H61 H 0.24976 0.21812 0.17061 0.0
H62 H 0.26216 0.20239 0.13142 0.0
C63 C 0.25251 0.20418 0.17323 0.0
H64 H 0.23978 0.19447 0.16417 0.0
H65 H 0.22482 0.1584 0.12247 0.0
O66 O 0.27875 0.16607 0.47039 0.0
C67 C 0.23828 0.13927 0.32659 0.0
Co68 Co 0.11596 0.00617 0.48442 0.0
Co69 Co 0.11926 0.02274 0.63397 0.0
C70 C 0.13221 0.98781 0.5953 0.0
O71 O 0.12647 0.98724 0.53282 0.0
O72 O 0.13048 1.00082 0.6354 0.0
C73 C 0.10533 0.9879 0.3458 0.0
O74 O 0.097 0.97274 0.37362 0.0
C75 C 0.11032 0.01797 0.78121 0.0
C76 C 0.12089 0.04488 0.82491 0.0
C77 C 0.11269 0.02749 0.84379 0.0
N78 N 0.11691 0.02918 0.72908 0.0
N79 N 0.12303 0.0453 0.7554 0.0
C80 C 0.10267 0.99841 0.77001 0.0
H81 H 0.1092 0.98995 0.80554 0.0
H82 H 0.10441 0.99442 0.71541 0.0
H83 H 0.08796 0.99594 0.78058 0.0
C84 C 0.07733 0.00922 0.50733 0.0
N85 N 0.09457 0.01062 0.52868 0.0
N86 N 0.09628 0.01829 0.59041 0.0
C87 C 0.08033 0.02239 0.60964 0.0
C88 C 0.06769 0.01669 0.5579 0.0
C89 C 0.07024 1.00043 0.44068 0.0
H90 H 0.07393 0.98692 0.43773 0.0
H91 H 0.05536 0.99876 0.43692 0.0
H92 H 0.07661 0.00857 0.39612 0.0
O93 O 0.13405 0.02893 0.48151 0.0
O94 O 0.13562 0.0423 0.58456 0.0
H95 H 0.06609 0.04018 0.66692 0.0
H96 H 0.07572 0.02441 0.71881 0.0
C97 C 0.07785 0.03337 0.67262 0.0
H98 H 0.09009 0.04377 0.68137 0.0
H99 H 0.12913 0.05643 0.72618 0.0
O100 O 0.11255 1.00102 0.38385 0.0
C101 C 0.14043 0.0421 0.52106 0.0
Co102 Co 0.2325 0.89001 0.88372 0.0
Co103 Co 0.24755 0.89173 0.73182 0.0
C104 C 0.21358 0.90575 0.77174 0.0
O105 O 0.21347 0.90041 0.83468 0.0
O106 O 0.22615 0.90354 0.73032 0.0
C107 C 0.21409 0.87876 0.01982 0.0
O108 O 0.20055 0.8682 0.98922 0.0
C109 C 0.24246 0.88287 0.58414 0.0
C110 C 0.26984 0.89179 0.54155 0.0
C111 C 0.25222 0.88464 0.52216 0.0
N112 N 0.25379 0.88875 0.6368 0.0
N113 N 0.27017 0.89388 0.6111 0.0
C114 C 0.22259 0.87653 0.59369 0.0
H115 H 0.21494 0.88349 0.55643 0.0
H116 H 0.21837 0.87878 0.64756 0.0
H117 H 0.21919 0.86181 0.58401 0.0
C118 C 0.23649 0.85134 0.86693 0.0
N119 N 0.23674 0.86816 0.84231 0.0
N120 N 0.24265 0.86899 0.77761 0.0
C121 C 0.24597 0.8527 0.75877 0.0
C122 C 0.24207 0.841 0.81449 0.0
C123 C 0.23197 0.84549 0.94018 0.0
H124 H 0.21713 0.84322 0.94697 0.0
H125 H 0.23659 0.83272 0.95263 0.0
H126 H 0.23828 0.85614 0.97685 0.0
O127 O 0.25532 0.90774 0.88388 0.0
O128 O 0.26772 0.90808 0.77917 0.0
H129 H 0.26636 0.85948 0.68066 0.0
H130 H 0.25862 0.83551 0.69184 0.0
C131 C 0.25442 0.84886 0.69127 0.0
H132 H 0.24455 0.849 0.64863 0.0
H133 H 0.28146 0.89931 0.64076 0.0
O134 O 0.22697 0.88749 0.98412 0.0
C135 C 0.2682 0.91348 0.84212 0.0
Co136 Co 0.61555 0.00773 0.11188 0.0
Co137 Co 0.62063 0.02341 0.96205 0.0
C138 C 0.63273 0.98848 0.00695 0.0
O139 O 0.62648 0.98837 0.06866 0.0
O140 O 0.63141 1.00122 0.96481 0.0
C141 C 0.6097 0.99056 0.25221 0.0
O142 O 0.6149 0.97583 0.23038 0.0
C143 C 0.61515 0.01785 0.81438 0.0
C144 C 0.61938 0.04546 0.77138 0.0
C145 C 0.61514 0.02741 0.7531 0.0
N146 N 0.61931 0.02964 0.86677 0.0
N147 N 0.62188 0.04615 0.84089 0.0
C148 C 0.60965 0.99791 0.82398 0.0
H149 H 0.604 0.9948 0.87685 0.0
H150 H 0.59952 0.99213 0.78432 0.0
H151 H 0.62166 0.99151 0.81767 0.0
C152 C 0.57754 0.01035 0.08226 0.0
N153 N 0.59493 0.01183 0.06295 0.0
N154 N 0.5971 0.01914 0.00072 0.0
C155 C 0.58118 0.02278 0.97868 0.0
C156 C 0.56825 0.01729 0.02955 0.0
C157 C 0.57049 0.00399 0.1525 0.0
H158 H 0.57449 0.99089 0.16447 0.0
H159 H 0.5556 0.00252 0.1556 0.0
H160 H 0.57667 0.01387 0.19234 0.0
O161 O 0.63382 0.03024 0.11693 0.0
O162 O 0.63662 0.04306 0.01278 0.0
H163 H 0.58821 0.04453 0.90646 0.0
H164 H 0.56455 0.03414 0.9049 0.0
C165 C 0.5785 0.0316 0.91069 0.0
H166 H 0.58124 0.02273 0.86758 0.0
H167 H 0.62515 0.05786 0.87069 0.0
O168 O 0.60908 0.00337 0.21009 0.0
C169 C 0.64077 0.04313 0.07704 0.0
Co170 Co 0.73427 0.88962 0.73784 0.0
Co171 Co 0.74854 0.89137 0.89099 0.0
C172 C 0.71463 0.90499 0.84972 0.0
O173 O 0.71501 0.89971 0.78683 0.0
O174 O 0.72697 0.90289 0.89242 0.0
C175 C 0.71631 0.87719 0.60286 0.0
O176 O 0.70417 0.86517 0.63461 0.0
C177 C 0.74359 0.88397 0.03969 0.0
C178 C 0.77156 0.88895 0.07945 0.0
C179 C 0.75369 0.88414 0.10021 0.0
N180 N 0.75498 0.88831 0.98586 0.0
N181 N 0.77168 0.89114 0.00986 0.0
C182 C 0.72348 0.88134 0.0329 0.0
H183 H 0.71903 0.8941 0.04685 0.0
H184 H 0.7193 0.87761 0.97876 0.0
H185 H 0.71653 0.87069 0.06797 0.0
C186 C 0.73934 0.85125 0.75403 0.0
N187 N 0.73888 0.86789 0.77904 0.0
N188 N 0.74386 0.86857 0.84483 0.0
C189 C 0.74688 0.85222 0.86446 0.0
C190 C 0.74424 0.84069 0.80748 0.0
C191 C 0.73771 0.84624 0.67864 0.0
H192 H 0.74259 0.8582 0.64575 0.0
H193 H 0.72337 0.84084 0.66631 0.0
H194 H 0.74568 0.83566 0.66625 0.0
O195 O 0.75674 0.90758 0.73834 0.0
O196 O 0.76871 0.90812 0.84381 0.0
H197 H 0.7655 0.85511 0.94951 0.0
H198 H 0.75128 0.83301 0.94408 0.0
C199 C 0.75178 0.84767 0.93697 0.0
H200 H 0.74211 0.85189 0.974 0.0
H201 H 0.78314 0.89493 0.97895 0.0
O202 O 0.72856 0.88722 0.63749 0.0
C203 C 0.76936 0.91353 0.78079 0.0
Co204 Co 0.8916 0.04725 0.62977 0.0
Co205 Co 0.88743 0.03227 0.47908 0.0
C206 C 0.87471 0.06673 0.52409 0.0
O207 O 0.88023 0.0664 0.58671 0.0
O208 O 0.87657 0.05439 0.48097 0.0
C209 C 0.89871 0.06483 0.76948 0.0
O210 O 0.89531 0.08034 0.74737 0.0
C211 C 0.89539 0.03699 0.33169 0.0
C212 C 0.88422 0.01012 0.28868 0.0
C213 C 0.8926 0.02741 0.2697 0.0
N214 N 0.88893 0.02589 0.38418 0.0
N215 N 0.88243 0.00979 0.35833 0.0
C216 C 0.90317 0.05659 0.34149 0.0
H217 H 0.90108 0.061 0.39524 0.0
H218 H 0.91794 0.05887 0.33257 0.0
H219 H 0.89709 0.06489 0.30381 0.0
C220 C 0.92979 0.04465 0.60257 0.0
N221 N 0.91254 0.04348 0.58179 0.0
N222 N 0.91078 0.03669 0.51863 0.0
C223 C 0.92686 0.03328 0.49723 0.0
C224 C 0.93942 0.03833 0.54954 0.0
C225 C 0.93666 0.05081 0.67315 0.0
H226 H 0.93248 0.0638 0.68573 0.0
H227 H 0.95158 0.0525 0.67599 0.0
H228 H 0.93057 0.04073 0.71247 0.0
O229 O 0.87374 0.02453 0.63452 0.0
O230 O 0.87143 0.0124 0.52924 0.0
H231 H 0.94256 0.01846 0.43247 0.0
H232 H 0.93053 0.03344 0.38708 0.0
C233 C 0.9298 0.02381 0.43097 0.0
H234 H 0.91833 0.01256 0.42157 0.0
H235 H 0.87636 0.99874 0.38803 0.0
O236 O 0.89779 0.05167 0.72781 0.0
C237 C 0.86712 0.01182 0.59342 0.0
Co238 Co 0.77347 0.16459 0.24057 0.0
Co239 Co 0.75828 0.16047 0.39135 0.0
C240 C 0.79333 0.14849 0.3469 0.0
O241 O 0.7927 0.15354 0.28377 0.0
O242 O 0.78109 0.15046 0.39049 0.0
C243 C 0.79067 0.17286 0.09997 0.0
O244 O 0.80693 0.17205 0.12266 0.0
C245 C 0.76359 0.16855 0.53742 0.0
C246 C 0.73633 0.16071 0.58254 0.0
C247 C 0.75415 0.1676 0.59931 0.0
N248 N 0.75201 0.16236 0.48625 0.0
N249 N 0.73569 0.1577 0.51334 0.0
C250 C 0.78311 0.17627 0.52619 0.0
H251 H 0.78565 0.1804 0.47112 0.0
H252 H 0.78743 0.18802 0.56099 0.0
H253 H 0.79124 0.1659 0.53915 0.0
C254 C 0.77116 0.2028 0.26758 0.0
N255 N 0.76955 0.18551 0.2881 0.0
N256 N 0.762 0.18365 0.34992 0.0
C257 C 0.75815 0.19962 0.37024 0.0
C258 C 0.76388 0.21239 0.31876 0.0
C259 C 0.77979 0.20993 0.20061 0.0
H260 H 0.79169 0.20364 0.19002 0.0
H261 H 0.78414 0.2248 0.20232 0.0
H262 H 0.77 0.20634 0.15749 0.0
O263 O 0.75092 0.14645 0.23744 0.0
O264 O 0.73873 0.14373 0.34262 0.0
H265 H 0.73702 0.18994 0.44306 0.0
H266 H 0.74094 0.21399 0.42995 0.0
C267 C 0.74754 0.20207 0.43428 0.0
H268 H 0.75673 0.20385 0.47985 0.0
H269 H 0.72416 0.15247 0.48467 0.0
O270 O 0.77738 0.17035 0.14158 0.0
C271 C 0.73831 0.13946 0.27845 0.0
Co272 Co 0.89256 0.54591 0.48007 0.0
Co273 Co 0.88794 0.53017 0.62984 0.0
C274 C 0.87494 0.56467 0.58527 0.0
O275 O 0.88118 0.56497 0.5235 0.0
O276 O 0.87662 0.552 0.62725 0.0
C277 C 0.89678 0.56282 0.33969 0.0
O278 O 0.88962 0.57645 0.36129 0.0
C279 C 0.89318 0.53575 0.77756 0.0
C280 C 0.88979 0.50814 0.82027 0.0
C281 C 0.89342 0.52621 0.83873 0.0
N282 N 0.88947 0.52395 0.725 0.0
N283 N 0.88741 0.50744 0.7507 0.0
C284 C 0.89789 0.55576 0.7684 0.0
H285 H 0.90375 0.55914 0.71601 0.0
H286 H 0.90761 0.5619 0.8089 0.0
H287 H 0.88548 0.56156 0.77363 0.0
C288 C 0.93079 0.54404 0.50919 0.0
N289 N 0.91339 0.54229 0.52878 0.0
N290 N 0.9114 0.5349 0.5909 0.0
C291 C 0.92742 0.53142 0.61243 0.0
C292 C 0.94024 0.53716 0.56149 0.0
C293 C 0.93778 0.55064 0.43918 0.0
H294 H 0.93217 0.54052 0.39925 0.0
H295 H 0.93316 0.56341 0.42672 0.0
H296 H 0.95273 0.55282 0.43702 0.0
O297 O 0.87467 0.52305 0.4749 0.0
O298 O 0.87232 0.51034 0.57929 0.0
H299 H 0.92062 0.50921 0.68268 0.0
H300 H 0.94426 0.51969 0.68409 0.0
C301 C 0.93026 0.5222 0.67937 0.0
H302 H 0.92754 0.53077 0.72351 0.0
H303 H 0.88454 0.49572 0.72074 0.0
O304 O 0.89903 0.55054 0.38205 0.0
C305 C 0.86805 0.5101 0.51512 0.0
Co306 Co 0.77411 0.66356 0.85969 0.0
Co307 Co 0.75837 0.66054 0.70874 0.0
C308 C 0.79298 0.64751 0.7491 0.0
O309 O 0.79315 0.65318 0.81157 0.0
O310 O 0.78021 0.64924 0.70784 0.0
C311 C 0.79225 0.67528 0.99659 0.0
O312 O 0.8059 0.6859 0.96688 0.0
C313 C 0.76328 0.66918 0.56093 0.0
C314 C 0.73608 0.65944 0.51812 0.0
C315 C 0.75359 0.66709 0.49883 0.0
N316 N 0.75203 0.66302 0.61353 0.0
N317 N 0.73575 0.65738 0.58769 0.0
C318 C 0.78304 0.67615 0.57075 0.0
H319 H 0.79102 0.66957 0.53347 0.0
H320 H 0.78731 0.674 0.62462 0.0
H321 H 0.78594 0.69091 0.56137 0.0
C322 C 0.77046 0.70218 0.8381 0.0
N323 N 0.76967 0.68506 0.81606 0.0
N324 N 0.76275 0.68351 0.75289 0.0
C325 C 0.7588 0.6995 0.73322 0.0
C326 C 0.76374 0.71185 0.78616 0.0
C327 C 0.77591 0.70883 0.90964 0.0
H328 H 0.76991 0.69868 0.94876 0.0
H329 H 0.79081 0.71094 0.91386 0.0
H330 H 0.77155 0.72181 0.92081 0.0
O331 O 0.75143 0.64553 0.86129 0.0
O332 O 0.73858 0.64404 0.75727 0.0
H333 H 0.73794 0.69178 0.65759 0.0
H334 H 0.74535 0.71592 0.66582 0.0
C335 C 0.74977 0.70269 0.66622 0.0
H336 H 0.75938 0.70246 0.62275 0.0
H337 H 0.72454 0.65167 0.61731 0.0
O338 O 0.77956 0.66651 0.96011 0.0
C339 C 0.73849 0.63915 0.82077 0.0
Co340 Co 0.61563 0.50733 0.98704 0.0
Co341 Co 0.62035 0.52341 0.13626 0.0
C342 C 0.6326 0.48834 0.09289 0.0
O343 O 0.62651 0.48803 0.0309 0.0
O344 O 0.63112 0.5012 0.13425 0.0
C345 C 0.60888 0.49013 0.84624 0.0
O346 O 0.6123 0.47462 0.86831 0.0
C347 C 0.61369 0.51756 0.28302 0.0
C348 C 0.61954 0.54495 0.32802 0.0
C349 C 0.61409 0.5269 0.34499 0.0
N350 N 0.61877 0.52945 0.23161 0.0
N351 N 0.6223 0.54583 0.25867 0.0
C352 C 0.60745 0.49777 0.27184 0.0
H353 H 0.60182 0.49519 0.21867 0.0
H354 H 0.59711 0.49213 0.31104 0.0
H355 H 0.61911 0.49081 0.2774 0.0
C356 C 0.57746 0.50948 0.01603 0.0
N357 N 0.59487 0.51137 0.03532 0.0
N358 N 0.59695 0.51912 0.09669 0.0
C359 C 0.58099 0.52282 0.11797 0.0
C360 C 0.568 0.51678 0.06759 0.0
C361 C 0.57012 0.50061 0.94978 0.0
H362 H 0.5768 0.48901 0.93827 0.0
H363 H 0.55532 0.49582 0.95311 0.0
H364 H 0.5731 0.51043 0.9064 0.0
O365 O 0.63389 0.52994 0.98246 0.0
O366 O 0.63643 0.54302 0.08608 0.0
H367 H 0.59069 0.54448 0.18828 0.0
H368 H 0.56652 0.53976 0.17875 0.0
C369 C 0.57875 0.53359 0.18175 0.0
H370 H 0.57773 0.52466 0.228 0.0
H371 H 0.62647 0.55758 0.22981 0.0
O372 O 0.6095 0.50319 0.88831 0.0
C373 C 0.64073 0.54295 0.02199 0.0
Co374 Co 0.73338 0.38985 0.37055 0.0
Co375 Co 0.74809 0.39142 0.21826 0.0
C376 C 0.71408 0.40526 0.25881 0.0
O377 O 0.71422 0.40002 0.32181 0.0
O378 O 0.72656 0.4031 0.21683 0.0
C379 C 0.71498 0.3787 0.50636 0.0
O380 O 0.70147 0.36818 0.47541 0.0
C381 C 0.74303 0.38245 0.07064 0.0
C382 C 0.77044 0.39133 0.02825 0.0
C383 C 0.75283 0.3842 0.00875 0.0
N384 N 0.75433 0.38834 0.12336 0.0
N385 N 0.77073 0.39343 0.09778 0.0
C386 C 0.72314 0.37616 0.08 0.0
H387 H 0.71553 0.38314 0.04268 0.0
H388 H 0.7189 0.37839 0.13384 0.0
H389 H 0.71972 0.36144 0.07026 0.0
C390 C 0.73751 0.35124 0.35456 0.0
N391 N 0.73766 0.368 0.32954 0.0
N392 N 0.74342 0.36873 0.26466 0.0
C393 C 0.74673 0.35241 0.24608 0.0
C394 C 0.743 0.34081 0.30221 0.0
C395 C 0.73314 0.34551 0.42806 0.0
H396 H 0.73947 0.35625 0.46434 0.0
H397 H 0.71831 0.34319 0.43523 0.0
H398 H 0.73785 0.3328 0.44075 0.0
O399 O 0.75608 0.40769 0.3698 0.0
O400 O 0.76827 0.40801 0.26476 0.0
H401 H 0.76692 0.35899 0.16711 0.0
H402 H 0.75906 0.33505 0.17881 0.0
C403 C 0.75495 0.34844 0.17828 0.0
H404 H 0.74498 0.34862 0.13604 0.0
H405 H 0.782 0.39886 0.12751 0.0
O406 O 0.72793 0.38742 0.47098 0.0
C407 C 0.76883 0.41349 0.3276 0.0
Co408 Co 0.11632 0.5071 0.62127 0.0
Co409 Co 0.12005 0.5224 0.47082 0.0
C410 C 0.13272 0.4877 0.5144 0.0
O411 O 0.12694 0.48764 0.5768 0.0
O412 O 0.131 0.50035 0.47247 0.0
C413 C 0.10877 0.4896 0.76143 0.0
O414 O 0.11014 0.47355 0.73808 0.0
C415 C 0.11301 0.51636 0.32452 0.0
C416 C 0.11811 0.54376 0.27944 0.0
C417 C 0.113 0.52567 0.2626 0.0
N418 N 0.11799 0.52831 0.37572 0.0
N419 N 0.12106 0.5447 0.34864 0.0
C420 C 0.10707 0.49653 0.33605 0.0
H421 H 0.10163 0.4939 0.38949 0.0
H422 H 0.09666 0.49074 0.29741 0.0
H423 H 0.11884 0.48975 0.32993 0.0
C424 C 0.0781 0.50998 0.59692 0.0
N425 N 0.09527 0.51119 0.5752 0.0
N426 N 0.09683 0.51799 0.51205 0.0
C427 C 0.08066 0.5213 0.49138 0.0
C428 C 0.06825 0.51633 0.54454 0.0
C429 C 0.0714 0.50309 0.66693 0.0
H430 H 0.07625 0.49038 0.67838 0.0
H431 H 0.05644 0.50059 0.66959 0.0
H432 H 0.07696 0.51314 0.70715 0.0
O433 O 0.13455 0.52964 0.62374 0.0
O434 O 0.13633 0.54228 0.51932 0.0
H435 H 0.08845 0.54248 0.41719 0.0
H436 H 0.06434 0.53498 0.42435 0.0
C437 C 0.07758 0.53056 0.42476 0.0
H438 H 0.07808 0.52116 0.38073 0.0
H439 H 0.12506 0.5565 0.37738 0.0
O440 O 0.11079 0.50297 0.72029 0.0
C441 C 0.14106 0.54249 0.58299 0.0
Co442 Co 0.23298 0.38901 0.23514 0.0
Co443 Co 0.24895 0.39191 0.38556 0.0
C444 C 0.21421 0.40496 0.34591 0.0
O445 O 0.21395 0.39941 0.28323 0.0
O446 O 0.22703 0.40313 0.38682 0.0
C447 C 0.21459 0.37855 0.09731 0.0
O448 O 0.19954 0.3702 0.126 0.0
C449 C 0.2441 0.38293 0.5328 0.0
C450 C 0.27113 0.39316 0.57623 0.0
C451 C 0.25369 0.38517 0.59524 0.0
N452 N 0.25534 0.3894 0.48058 0.0
N453 N 0.27152 0.39532 0.50673 0.0
C454 C 0.22447 0.37552 0.5219 0.0
H455 H 0.22043 0.37734 0.46742 0.0
H456 H 0.22183 0.36081 0.53236 0.0
H457 H 0.21615 0.38214 0.55772 0.0
C458 C 0.23603 0.35035 0.25678 0.0
N459 N 0.2373 0.36752 0.27883 0.0
N460 N 0.24457 0.36901 0.3413 0.0
C461 C 0.24844 0.35297 0.36052 0.0
C462 C 0.24305 0.34053 0.30785 0.0
C463 C 0.22783 0.34352 0.18883 0.0
H464 H 0.21404 0.34654 0.18564 0.0
H465 H 0.22687 0.32876 0.1831 0.0
H466 H 0.23592 0.35062 0.14549 0.0
O467 O 0.25574 0.40709 0.23328 0.0
O468 O 0.26864 0.40839 0.33717 0.0
H469 H 0.26527 0.33812 0.42003 0.0
H470 H 0.24957 0.34835 0.46998 0.0
C471 C 0.25885 0.35016 0.42468 0.0
H472 H 0.26951 0.36214 0.43415 0.0
H473 H 0.28269 0.40128 0.47741 0.0
O474 O 0.22786 0.38578 0.13462 0.0
C475 C 0.26873 0.41337 0.27381 0.0
Co476 Co 0.39048 0.54717 0.12889 0.0
Co477 Co 0.38851 0.53232 0.97681 0.0
C478 C 0.37513 0.56657 0.01732 0.0
O479 O 0.38045 0.56644 0.08021 0.0
O480 O 0.3771 0.55401 0.9755 0.0
C481 C 0.40188 0.56548 0.26472 0.0
O482 O 0.41248 0.57896 0.23386 0.0
C483 C 0.39744 0.53731 0.82909 0.0
C484 C 0.38821 0.50999 0.78667 0.0
C485 C 0.39556 0.52754 0.76719 0.0
N486 N 0.39142 0.52605 0.88181 0.0
N487 N 0.3861 0.5097 0.85621 0.0
C488 C 0.404 0.55714 0.83849 0.0
H489 H 0.39715 0.56488 0.80121 0.0
H490 H 0.40182 0.56141 0.89235 0.0
H491 H 0.41874 0.56037 0.82875 0.0
C492 C 0.42901 0.54275 0.11181 0.0
N493 N 0.4122 0.54263 0.08738 0.0
N494 N 0.41129 0.53678 0.02263 0.0
C495 C 0.42754 0.53336 0.00356 0.0
C496 C 0.43928 0.53713 0.0592 0.0
C497 C 0.43496 0.54732 0.18488 0.0
H498 H 0.43731 0.56216 0.19139 0.0
H499 H 0.44772 0.54265 0.19722 0.0
H500 H 0.42432 0.54111 0.22183 0.0
O501 O 0.37241 0.52461 0.12874 0.0
O502 O 0.37179 0.51232 0.02384 0.0
H503 H 0.4206 0.51324 0.92466 0.0
H504 H 0.44461 0.5207 0.93617 0.0
C505 C 0.43133 0.52505 0.93574 0.0
H506 H 0.43133 0.53506 0.89349 0.0
H507 H 0.38054 0.49846 0.88595 0.0
O508 O 0.39306 0.55261 0.22926 0.0
C509 C 0.36641 0.51187 0.08682 0.0
Co510 Co 0.2734 0.66519 0.74498 0.0
Co511 Co 0.25744 0.66065 0.89446 0.0
C512 C 0.29253 0.64843 0.85107 0.0
O513 O 0.29278 0.65442 0.78893 0.0
O514 O 0.2797 0.64995 0.89253 0.0
C515 C 0.29067 0.67243 0.60419 0.0
O516 O 0.30649 0.66994 0.62655 0.0
C517 C 0.26335 0.6676 0.04093 0.0
C518 C 0.23599 0.66153 0.08633 0.0
C519 C 0.25404 0.66718 0.10302 0.0
N520 N 0.25144 0.66234 0.98977 0.0
N521 N 0.23508 0.65868 0.01706 0.0
C522 C 0.28312 0.67401 0.02933 0.0
H523 H 0.28559 0.67956 0.97599 0.0
H524 H 0.2887 0.68443 0.06821 0.0
H525 H 0.29021 0.66245 0.03503 0.0
C526 C 0.27109 0.70336 0.77307 0.0
N527 N 0.26933 0.68599 0.7928 0.0
N528 N 0.26163 0.68397 0.85431 0.0
C529 C 0.25783 0.69991 0.87525 0.0
C530 C 0.26376 0.71283 0.82451 0.0
C531 C 0.27984 0.71064 0.7065 0.0
H532 H 0.29156 0.70412 0.6952 0.0
H533 H 0.28445 0.72546 0.70924 0.0
H534 H 0.27002 0.70743 0.66328 0.0
O535 O 0.2508 0.64688 0.74105 0.0
O536 O 0.23782 0.64448 0.84491 0.0
H537 H 0.24077 0.71431 0.93572 0.0
H538 H 0.25601 0.70332 0.9852 0.0
C539 C 0.24705 0.70215 0.93901 0.0
H540 H 0.23623 0.69017 0.94591 0.0
H541 H 0.22333 0.65435 0.98842 0.0
O542 O 0.27748 0.67115 0.64607 0.0
C543 C 0.23784 0.64009 0.78094 0.0
H544 H 0.37341 0.05187 0.75934 0.0
H545 H 0.43032 0.0744 0.7517 0.0
H546 H 0.37359 0.0457 0.63439 0.0
H547 H 0.4306 0.06758 0.62642 0.0
H548 H 0.41834 0.02068 0.44355 0.0
H549 H 0.42086 0.03238 0.56326 0.0
H550 H 0.38304 0.0671 0.51481 0.0
H551 H 0.38081 0.05575 0.39516 0.0
C552 C 0.38589 0.0557 0.73058 0.0
C553 C 0.40182 0.06371 0.7647 0.0
C554 C 0.38598 0.05218 0.65933 0.0
C555 C 0.40211 0.05616 0.62132 0.0
C556 C 0.41803 0.06443 0.65499 0.0
C557 C 0.41783 0.06843 0.72618 0.0
C558 C 0.41081 0.031 0.45844 0.0
C559 C 0.39956 0.03749 0.41024 0.0
C560 C 0.41233 0.03775 0.52645 0.0
C561 C 0.40225 0.05071 0.54757 0.0
C562 C 0.39106 0.05723 0.4993 0.0
C563 C 0.38985 0.0508 0.43099 0.0
H564 H 0.28211 0.15282 0.95053 0.0
H565 H 0.24645 0.18989 0.90379 0.0
H566 H 0.2935 0.15554 0.83094 0.0
H567 H 0.25816 0.19288 0.78413 0.0
H568 H 0.29944 0.20368 0.59517 0.0
H569 H 0.29251 0.20349 0.72043 0.0
H570 H 0.27319 0.14602 0.71166 0.0
H571 H 0.27949 0.14629 0.58676 0.0
C572 C 0.27701 0.16185 0.91506 0.0
C573 C 0.26353 0.1713 0.93628 0.0
C574 C 0.28347 0.16334 0.84677 0.0
C575 C 0.2768 0.17454 0.79895 0.0
C576 C 0.26365 0.18435 0.82055 0.0
C577 C 0.25689 0.18255 0.88854 0.0
C578 C 0.29402 0.191 0.62051 0.0
C579 C 0.29004 0.17498 0.58175 0.0
C580 C 0.28995 0.19092 0.6917 0.0
C581 C 0.28235 0.17473 0.72518 0.0
C582 C 0.27914 0.15863 0.68692 0.0
C583 C 0.28273 0.15879 0.61568 0.0
H584 H 0.13442 0.00294 0.27096 0.0
H585 H 0.07807 0.97928 0.25103 0.0
H586 H 0.13561 0.01116 0.14863 0.0
H587 H 0.07875 0.98858 0.12881 0.0
H588 H 0.0893 0.99731 0.89682 0.0
H589 H 0.08816 0.98575 0.01422 0.0
H590 H 0.12664 0.03267 0.07829 0.0
H591 H 0.12919 0.0433 0.9595 0.0
C592 C 0.12228 0.99946 0.23989 0.0
C593 C 0.10617 0.99049 0.26996 0.0
C594 C 0.12286 0.00439 0.16995 0.0
C595 C 0.10717 1.00097 0.12874 0.0
C596 C 0.09114 0.99136 0.15852 0.0
C597 C 0.0907 0.98601 0.22848 0.0
C598 C 0.09805 0.00492 0.93478 0.0
C599 C 0.11001 0.02089 0.91692 0.0
C600 C 0.09703 0.99843 0.0032 0.0
C601 C 0.10761 0.008 0.05603 0.0
C602 C 0.11877 0.0245 0.03886 0.0
C603 C 0.12004 0.03077 0.97043 0.0
H604 H 0.26741 0.90258 0.40832 0.0
H605 H 0.2227 0.8609 0.46838 0.0
H606 H 0.25666 0.90052 0.28943 0.0
H607 H 0.21101 0.86002 0.35076 0.0
H608 H 0.2064 0.8508 0.11205 0.0
H609 H 0.21505 0.85132 0.23492 0.0
H610 H 0.23409 0.90894 0.22113 0.0
H611 H 0.22643 0.90805 0.09821 0.0
C612 C 0.25514 0.89311 0.39661 0.0
C613 C 0.24562 0.8824 0.44917 0.0
C614 C 0.2488 0.89211 0.3283 0.0
C615 C 0.23263 0.88048 0.3105 0.0
C616 C 0.22342 0.86927 0.36245 0.0
C617 C 0.22995 0.87008 0.43077 0.0
C618 C 0.21214 0.86356 0.13604 0.0
C619 C 0.21585 0.87937 0.09603 0.0
C620 C 0.21713 0.8639 0.20635 0.0
C621 C 0.22564 0.88013 0.23788 0.0
C622 C 0.22816 0.89609 0.19831 0.0
C623 C 0.22356 0.89566 0.12806 0.0
H624 H 0.63026 1.00145 0.69125 0.0
H625 H 0.59245 0.03702 0.65654 0.0
H626 H 0.62612 0.9906 0.57195 0.0
H627 H 0.58731 0.02548 0.53826 0.0
H628 H 0.60312 0.02134 0.31162 0.0
H629 H 0.6024 0.02853 0.43348 0.0
H630 H 0.60813 0.97409 0.48596 0.0
H631 H 0.60992 0.96715 0.36214 0.0
C632 C 0.62075 0.00663 0.65822 0.0
C633 C 0.61171 0.02009 0.68246 0.0
C634 C 0.61824 1.00032 0.58998 0.0
C635 C 0.60641 0.00717 0.54494 0.0
C636 C 0.59685 0.02017 0.57068 0.0
C637 C 0.5997 0.02676 0.63843 0.0
C638 C 0.60409 0.01078 0.34888 0.0
C639 C 0.60681 0.9937 0.327 0.0
C640 C 0.60348 0.01489 0.41928 0.0
C641 C 0.60524 1.00194 0.47012 0.0
C642 C 0.60707 0.98453 0.44831 0.0
C643 C 0.60795 0.98047 0.37737 0.0
H644 H 0.71221 0.84868 0.51318 0.0
H645 H 0.72457 0.90677 0.52179 0.0
H646 H 0.72078 0.84964 0.39038 0.0
H647 H 0.73201 0.90798 0.39855 0.0
H648 H 0.76635 0.90527 0.20965 0.0
H649 H 0.75573 0.90294 0.3293 0.0
H650 H 0.71563 0.85628 0.27448 0.0
H651 H 0.72763 0.85766 0.15657 0.0
C652 C 0.7162 0.86166 0.48799 0.0
C653 C 0.7178 0.87765 0.52655 0.0
C654 C 0.72114 0.86226 0.41762 0.0
C655 C 0.72745 0.8789 0.38443 0.0
C656 C 0.72783 0.89489 0.42258 0.0
C657 C 0.72332 0.89425 0.493 0.0
C658 C 0.75532 0.89448 0.22339 0.0
C659 C 0.74728 0.88214 0.17302 0.0
C660 C 0.74901 0.89327 0.29184 0.0
C661 C 0.7344 0.87973 0.31158 0.0
C662 C 0.72678 0.86699 0.26141 0.0
C663 C 0.73334 0.86804 0.19313 0.0
H664 H 0.91916 0.05458 0.21703 0.0
H665 H 0.87291 0.01466 0.15659 0.0
H666 H 0.92214 0.06577 0.09782 0.0
H667 H 0.87671 0.02527 0.03685 0.0
H668 H 0.90545 0.03389 0.82705 0.0
H669 H 0.90549 0.02609 0.94945 0.0
H670 H 0.89861 0.07981 0.00479 0.0
H671 H 0.89816 0.0878 0.88078 0.0
C672 C 0.90938 0.04842 0.1792 0.0
C673 C 0.89541 0.03405 0.19722 0.0
C674 C 0.91127 0.05474 0.1107 0.0
C675 C 0.89956 0.04645 0.05889 0.0
C676 C 0.88588 0.03187 0.0763 0.0
C677 C 0.88379 0.02577 0.14474 0.0
C678 C 0.9041 0.0442 0.8649 0.0
C679 C 0.90147 0.06142 0.84406 0.0
C680 C 0.90414 0.03966 0.93497 0.0
C681 C 0.90184 0.05229 0.98586 0.0
C682 C 0.90038 0.06988 0.96592 0.0
C683 C 0.9001 0.07441 0.89524 0.0
H684 H 0.78323 0.15681 0.65771 0.0
H685 H 0.74118 0.18714 0.69938 0.0
H686 H 0.7938 0.16129 0.77715 0.0
H687 H 0.75213 0.19239 0.81854 0.0
H688 H 0.75812 0.17328 0.04048 0.0
H689 H 0.751 0.1747 0.9187 0.0
H690 H 0.80764 0.18071 0.86717 0.0
H691 H 0.81479 0.17845 0.99079 0.0
C692 C 0.77659 0.1649 0.69209 0.0
C693 C 0.76145 0.1717 0.66966 0.0
C694 C 0.78268 0.16753 0.76055 0.0
C695 C 0.7738 0.17715 0.80779 0.0
C696 C 0.75908 0.1846 0.78405 0.0
C697 C 0.75282 0.18168 0.71589 0.0
C698 C 0.76916 0.17503 0.00353 0.0
C699 C 0.78705 0.17556 0.02546 0.0
C700 C 0.76506 0.17605 0.93331 0.0
C701 C 0.77872 0.17786 0.88278 0.0
C702 C 0.79675 0.17907 0.9047 0.0
C703 C 0.80087 0.17787 0.97546 0.0
H704 H 0.8943 0.58568 0.22983 0.0
H705 H 0.90608 0.53321 0.28018 0.0
H706 H 0.89646 0.57897 0.10601 0.0
H707 H 0.90713 0.52612 0.15834 0.0
H708 H 0.91715 0.51836 0.93479 0.0
H709 H 0.92164 0.5301 0.05302 0.0
H710 H 0.87967 0.56143 0.02036 0.0
H711 H 0.87623 0.55052 0.90097 0.0
C712 C 0.89743 0.57279 0.21454 0.0
C713 C 0.89988 0.55996 0.26487 0.0
C714 C 0.89852 0.56885 0.14359 0.0
C715 C 0.90184 0.55191 0.12172 0.0
C716 C 0.90489 0.53942 0.17252 0.0
C717 C 0.9041 0.54345 0.24294 0.0
C718 C 0.90906 0.52788 0.95317 0.0
C719 C 0.89636 0.53356 0.90945 0.0
C720 C 0.91153 0.53458 0.0209 0.0
C721 C 0.9009 0.54664 0.04693 0.0
C722 C 0.88836 0.55247 0.00216 0.0
C723 C 0.88624 0.54611 0.93391 0.0
H724 H 0.73882 0.64913 0.38444 0.0
H725 H 0.78266 0.69159 0.44561 0.0
H726 H 0.74956 0.65178 0.26552 0.0
H727 H 0.79439 0.69304 0.32806 0.0
H728 H 0.79923 0.70298 0.09015 0.0
H729 H 0.79036 0.70191 0.21285 0.0
H730 H 0.77226 0.64419 0.19624 0.0
H731 H 0.78011 0.64564 0.07346 0.0
C732 C 0.7509 0.65889 0.37298 0.0
C733 C 0.76019 0.66965 0.42587 0.0
C734 C 0.75725 0.66023 0.30464 0.0
C735 C 0.7732 0.67227 0.28712 0.0
C736 C 0.78216 0.6835 0.33945 0.0
C737 C 0.77561 0.68235 0.40778 0.0
C738 C 0.79363 0.69009 0.11348 0.0
C739 C 0.79025 0.67441 0.07272 0.0
C740 C 0.78852 0.68942 0.18371 0.0
C741 C 0.78023 0.673 0.21444 0.0
C742 C 0.77801 0.65719 0.17408 0.0
C743 C 0.78272 0.65794 0.1039 0.0
H744 H 0.60643 0.46627 0.73653 0.0
H745 H 0.60538 0.52193 0.78669 0.0
H746 H 0.60446 0.47328 0.61274 0.0
H747 H 0.60439 0.52905 0.6648 0.0
H748 H 0.593 0.53812 0.44388 0.0
H749 H 0.58795 0.52686 0.56261 0.0
H750 H 0.62292 0.48842 0.52389 0.0
H751 H 0.62704 0.49913 0.40433 0.0
C752 C 0.6057 0.47994 0.72125 0.0
C753 C 0.60617 0.49353 0.7715 0.0
C754 C 0.6047 0.48401 0.65033 0.0
C755 C 0.60432 0.50177 0.62842 0.0
C756 C 0.60428 0.51516 0.67919 0.0
C757 C 0.60505 0.51107 0.74956 0.0
C758 C 0.59939 0.52713 0.4609 0.0
C759 C 0.61035 0.51945 0.41538 0.0
C760 C 0.5966 0.5207 0.52891 0.0
C761 C 0.60518 0.50681 0.5534 0.0
C762 C 0.61583 0.49889 0.50685 0.0
C763 C 0.61829 0.50508 0.43838 0.0
H764 H 0.72705 0.40795 0.58527 0.0
H765 H 0.70733 0.35063 0.59806 0.0
H766 H 0.73461 0.40875 0.7083 0.0
H767 H 0.71588 0.35106 0.72102 0.0
H768 H 0.72338 0.36043 0.95469 0.0
H769 H 0.71171 0.35963 0.83703 0.0
H770 H 0.75726 0.40033 0.77632 0.0
H771 H 0.76799 0.40229 0.89525 0.0
C772 C 0.72422 0.39553 0.61492 0.0
C773 C 0.71664 0.37924 0.58258 0.0
C774 C 0.72877 0.3959 0.68522 0.0
C775 C 0.7263 0.3799 0.7245 0.0
C776 C 0.7179 0.36367 0.69267 0.0
C777 C 0.71298 0.36339 0.62231 0.0
C778 C 0.73062 0.36966 0.91719 0.0
C779 C 0.74625 0.38201 0.93575 0.0
C780 C 0.72409 0.3689 0.84887 0.0
C781 C 0.73328 0.3802 0.79711 0.0
C782 C 0.74942 0.39186 0.81507 0.0
C783 C 0.75575 0.3928 0.88337 0.0
H784 H 0.10488 0.46535 0.87025 0.0
H785 H 0.10653 0.52161 0.82176 0.0
H786 H 0.10256 0.47215 0.99418 0.0
H787 H 0.10504 0.52844 0.94378 0.0
H788 H 0.09222 0.53716 0.16331 0.0
H789 H 0.08737 0.52606 0.04429 0.0
H790 H 0.12154 0.48696 0.08406 0.0
H791 H 0.12562 0.49762 0.20365 0.0
C792 C 0.10466 0.4791 0.8859 0.0
C793 C 0.10602 0.49293 0.83615 0.0
C794 C 0.10344 0.48303 0.95684 0.0
C795 C 0.10363 0.50086 0.97914 0.0
C796 C 0.10449 0.5145 0.92888 0.0
C797 C 0.10555 0.51058 0.85852 0.0
C798 C 0.09847 0.52605 0.14651 0.0
C799 C 0.10921 0.51819 0.19231 0.0
C800 C 0.09577 0.51971 0.0784 0.0
C801 C 0.1042 0.5057 0.05421 0.0
C802 C 0.11458 0.49754 0.10102 0.0
C803 C 0.117 0.50369 0.16951 0.0
H804 H 0.20588 0.35111 0.00344 0.0
H805 H 0.22914 0.40758 0.02143 0.0
H806 H 0.21498 0.35163 0.88098 0.0
H807 H 0.23717 0.4086 0.8989 0.0
H808 H 0.2695 0.40186 0.7105 0.0
H809 H 0.25885 0.39951 0.82931 0.0
H810 H 0.21195 0.36087 0.76599 0.0
H811 H 0.22353 0.36184 0.64855 0.0
C812 C 0.21247 0.36373 0.9804 0.0
C813 C 0.21691 0.37929 0.02139 0.0
C814 C 0.2177 0.36408 0.91033 0.0
C815 C 0.22717 0.38009 0.88001 0.0
C816 C 0.23051 0.39586 0.92069 0.0
C817 C 0.22569 0.39539 0.99073 0.0
C818 C 0.25697 0.39272 0.72163 0.0
C819 C 0.2471 0.3826 0.66835 0.0
C820 C 0.25069 0.39157 0.79003 0.0
C821 C 0.23419 0.38042 0.80736 0.0
C822 C 0.22463 0.36975 0.75478 0.0
C823 C 0.23112 0.37065 0.68638 0.0
H824 H 0.41968 0.55677 0.71322 0.0
H825 H 0.37743 0.51256 0.65353 0.0
H826 H 0.4207 0.56846 0.59554 0.0
H827 H 0.37962 0.5233 0.53459 0.0
H828 H 0.37249 0.55365 0.34336 0.0
H829 H 0.37152 0.54606 0.46638 0.0
H830 H 0.4293 0.56424 0.47964 0.0
H831 H 0.42992 0.57283 0.35667 0.0
C832 C 0.41041 0.54963 0.67567 0.0
C833 C 0.39789 0.53411 0.69418 0.0
C834 C 0.4113 0.55616 0.60733 0.0
C835 C 0.39997 0.54709 0.55549 0.0
C836 C 0.38813 0.53106 0.5734 0.0
C837 C 0.38705 0.52472 0.64172 0.0
C838 C 0.38491 0.55635 0.37313 0.0
C839 C 0.40127 0.5638 0.34094 0.0
C840 C 0.38442 0.55179 0.44342 0.0
C841 C 0.4004 0.55408 0.48286 0.0
C842 C 0.41671 0.56234 0.45117 0.0
C843 C 0.41711 0.5673 0.3808 0.0
H844 H 0.28234 0.65497 0.16182 0.0
H845 H 0.24228 0.68776 0.20237 0.0
H846 H 0.293 0.65917 0.28138 0.0
H847 H 0.25343 0.69283 0.3212 0.0
H848 H 0.25857 0.67477 0.54446 0.0
H849 H 0.25151 0.67586 0.42256 0.0
H850 H 0.30769 0.67794 0.37087 0.0
H851 H 0.3147 0.67592 0.49468 0.0
C852 C 0.27615 0.66348 0.19605 0.0
C853 C 0.2615 0.67105 0.17332 0.0
C854 C 0.2823 0.66597 0.26453 0.0
C855 C 0.27404 0.67626 0.31139 0.0
C856 C 0.25987 0.68448 0.28719 0.0
C857 C 0.2535 0.68167 0.21914 0.0
C858 C 0.26953 0.67559 0.50743 0.0
C859 C 0.28721 0.67508 0.52946 0.0
C860 C 0.26547 0.67642 0.43707 0.0
C861 C 0.279 0.67703 0.38643 0.0
C862 C 0.29687 0.67721 0.40841 0.0
C863 C 0.30093 0.67617 0.47932 0.0
H864 H 0.36758 0.09553 0.01701 0.0
H865 H 0.36165 0.06957 0.21845 0.0
H866 H 0.34995 0.11761 0.0582 0.0
H867 H 0.34413 0.09143 0.25899 0.0
H868 H 0.32242 0.14047 0.32966 0.0
H869 H 0.34475 0.12311 0.28858 0.0
H870 H 0.31825 0.11647 0.08857 0.0
H871 H 0.29615 0.13372 0.12899 0.0
C872 C 0.3627 0.09461 0.07014 0.0
C873 C 0.36608 0.08075 0.11429 0.0
C874 C 0.35256 0.10723 0.0937 0.0
C875 C 0.34563 0.10629 0.16195 0.0
C876 C 0.34948 0.09275 0.20655 0.0
C877 C 0.35952 0.08014 0.18302 0.0
C878 C 0.32148 0.13546 0.27672 0.0
C879 C 0.30747 0.13854 0.23274 0.0
C880 C 0.33424 0.12547 0.25323 0.0
C881 C 0.3333 0.11841 0.18522 0.0
C882 C 0.31958 0.12195 0.1408 0.0
C883 C 0.30683 0.13182 0.16427 0.0
H884 H 0.1545 0.04509 0.38959 0.0
H885 H 0.15633 0.07353 0.5855 0.0
H886 H 0.17699 0.06926 0.3418 0.0
H887 H 0.17858 0.098 0.53681 0.0
H888 H 0.23413 0.12523 0.45749 0.0
H889 H 0.20973 0.10279 0.50283 0.0
H890 H 0.18275 0.10041 0.30383 0.0
H891 H 0.2076 0.12279 0.25734 0.0
C892 C 0.15958 0.05657 0.42242 0.0
C893 C 0.15368 0.05727 0.49173 0.0
C894 C 0.17239 0.07053 0.39465 0.0
C895 C 0.17964 0.08559 0.43538 0.0
C896 C 0.17347 0.08647 0.50427 0.0
C897 C 0.16066 0.07247 0.53217 0.0
C898 C 0.22301 0.12002 0.4231 0.0
C899 C 0.2229 0.12582 0.35348 0.0
C900 C 0.2089 0.10721 0.4495 0.0
C901 C 0.19421 0.09983 0.40722 0.0
C902 C 0.19396 0.10571 0.33767 0.0
C903 C 0.20816 0.11858 0.31106 0.0
H904 H 0.20967 0.91799 0.63998 0.0
H905 H 0.18522 0.91519 0.84414 0.0
H906 H 0.18819 0.93585 0.5985 0.0
H907 H 0.16324 0.93273 0.80171 0.0
H908 H 0.14568 0.98502 0.72593 0.0
H909 H 0.16329 0.96338 0.7682 0.0
H910 H 0.15738 0.93624 0.56928 0.0
H911 H 0.14011 0.95833 0.52599 0.0
C912 C 0.19956 0.92099 0.67596 0.0
C913 C 0.19933 0.91529 0.74576 0.0
C914 C 0.18709 0.93113 0.65184 0.0
C915 C 0.17398 0.93581 0.6967 0.0
C916 C 0.17333 0.9296 0.76596 0.0
C917 C 0.18587 0.91945 0.79024 0.0
C918 C 0.14802 0.9744 0.6911 0.0
C919 C 0.14162 0.97357 0.62215 0.0
C920 C 0.15802 0.96185 0.71571 0.0
C921 C 0.16185 0.94806 0.67219 0.0
C922 C 0.15493 0.94685 0.60392 0.0
C923 C 0.14494 0.95946 0.57917 0.0
H924 H 0.35259 0.00692 0.89152 0.0
H925 H 0.35131 0.98108 0.0928 0.0
H926 H 0.32989 0.98235 0.84893 0.0
H927 H 0.32872 0.95608 0.04916 0.0
H928 H 0.27264 0.92819 0.97209 0.0
H929 H 0.2974 0.95064 0.01536 0.0
H930 H 0.32428 0.95101 0.81662 0.0
H931 H 0.29914 0.92873 0.77234 0.0
C932 C 0.34759 0.99591 0.9267 0.0
C933 C 0.35375 0.99607 0.99591 0.0
C934 C 0.33463 0.9817 0.90189 0.0
C935 C 0.32747 0.96719 0.94544 0.0
C936 C 0.33381 0.96716 0.01441 0.0
C937 C 0.3468 0.98145 0.0394 0.0
C938 C 0.28383 0.93297 0.93742 0.0
C939 C 0.2838 0.92671 0.8684 0.0
C940 C 0.29814 0.94578 0.96262 0.0
C941 C 0.31286 0.95266 0.91961 0.0
C942 C 0.31303 0.94616 0.85091 0.0
C943 C 0.29866 0.93334 0.82556 0.0
H944 H 0.68615 0.91325 0.77482 0.0
H945 H 0.7106 0.91878 0.97897 0.0
H946 H 0.66405 0.93117 0.8131 0.0
H947 H 0.68874 0.93669 0.01661 0.0
H948 H 0.63944 0.9591 0.08053 0.0
H949 H 0.65691 0.93658 0.04245 0.0
H950 H 0.66543 0.96294 0.84248 0.0
H951 H 0.64804 0.98523 0.87992 0.0
C952 C 0.68673 0.91811 0.82794 0.0
C953 C 0.70021 0.91458 0.87366 0.0
C954 C 0.67411 0.92844 0.84982 0.0
C955 C 0.67465 0.9354 0.91791 0.0
C956 C 0.68775 0.93134 0.96417 0.0
C957 C 0.70037 0.9211 0.94232 0.0
C958 C 0.64489 0.95998 0.02824 0.0
C959 C 0.64231 0.97401 0.98341 0.0
C960 C 0.65495 0.9471 0.00648 0.0
C961 C 0.66256 0.94795 0.93936 0.0
C962 C 0.65954 0.96169 0.89407 0.0
C963 C 0.6496 0.97457 0.91583 0.0
H964 H 0.80013 0.92938 0.85095 0.0
H965 H 0.77361 0.9283 0.65113 0.0
H966 H 0.82511 0.95188 0.80603 0.0
H967 H 0.79809 0.95088 0.60741 0.0
H968 H 0.85118 0.98085 0.52596 0.0
H969 H 0.82907 0.95597 0.57281 0.0
H970 H 0.83113 0.98314 0.77135 0.0
H971 H 0.85351 0.00767 0.72541 0.0
C972 C 0.7996 0.93392 0.79764 0.0
C973 C 0.78482 0.92702 0.75486 0.0
C974 C 0.81387 0.94686 0.77192 0.0
C975 C 0.81365 0.95317 0.70294 0.0
C976 C 0.79892 0.94612 0.66028 0.0
C977 C 0.78476 0.93323 0.68577 0.0
C978 C 0.84698 0.98147 0.57968 0.0
C979 C 0.85406 0.99634 0.62165 0.0
C980 C 0.83426 0.96723 0.60654 0.0
C981 C 0.82824 0.96757 0.67587 0.0
C982 C 0.83561 0.98228 0.71811 0.0
C983 C 0.84836 0.99645 0.69141 0.0
H984 H 0.87546 0.08122 0.39446 0.0
H985 H 0.85289 0.08479 0.59913 0.0
H986 H 0.8584 0.10326 0.35106 0.0
H987 H 0.8347 0.10589 0.55517 0.0
H988 H 0.81024 0.15126 0.47249 0.0
H989 H 0.83215 0.13393 0.51539 0.0
H990 H 0.83003 0.1062 0.3175 0.0
H991 H 0.80905 0.12454 0.27395 0.0
C992 C 0.86678 0.08675 0.43016 0.0
C993 C 0.86546 0.08128 0.50014 0.0
C994 C 0.85681 0.09928 0.40513 0.0
C995 C 0.84485 0.10633 0.44899 0.0
C996 C 0.84391 0.10111 0.51966 0.0
C997 C 0.85427 0.0889 0.54508 0.0
C998 C 0.81467 0.14159 0.43814 0.0
C999 C 0.80792 0.13919 0.37009 0.0
C1000 C 0.82714 0.13149 0.46283 0.0
C1001 C 0.83284 0.11836 0.42058 0.0
C1002 C 0.82633 0.11633 0.35163 0.0
C1003 C 0.81419 0.12678 0.32648 0.0
H1004 H 0.73483 0.12594 0.14653 0.0
H1005 H 0.70735 0.1228 0.34488 0.0
H1006 H 0.71059 0.10365 0.09882 0.0
H1007 H 0.68268 0.10072 0.29613 0.0
H1008 H 0.65423 0.04605 0.20927 0.0
H1009 H 0.67681 0.06993 0.25792 0.0
H1010 H 0.67972 0.09863 0.06239 0.0
H1011 H 0.65739 0.07437 0.01275 0.0
C1012 C 0.72353 0.12061 0.17996 0.0
C1013 C 0.72311 0.12614 0.24981 0.0
C1014 C 0.70951 0.1079 0.15225 0.0
C1015 C 0.69462 0.10039 0.19343 0.0
C1016 C 0.69406 0.10606 0.26313 0.0
C1017 C 0.70816 0.11877 0.29105 0.0
C1018 C 0.65961 0.05746 0.17649 0.0
C1019 C 0.65405 0.05821 0.1068 0.0
C1020 C 0.67249 0.07126 0.20474 0.0
C1021 C 0.68013 0.08623 0.16421 0.0
C1022 C 0.67432 0.08717 0.09484 0.0
C1023 C 0.66146 0.07329 0.06641 0.0
H1024 H 0.82074 0.63778 0.82371 0.0
H1025 H 0.79776 0.63572 0.61714 0.0
H1026 H 0.84267 0.61995 0.78347 0.0
H1027 H 0.81937 0.61764 0.5776 0.0
H1028 H 0.85854 0.56672 0.71082 0.0
H1029 H 0.84099 0.58872 0.74943 0.0
H1030 H 0.85099 0.61688 0.55349 0.0
H1031 H 0.86859 0.59459 0.5141 0.0
C1032 C 0.82043 0.63366 0.76968 0.0
C1033 C 0.80735 0.63804 0.72395 0.0
C1034 C 0.83295 0.62335 0.74667 0.0
C1035 C 0.83269 0.61724 0.6774 0.0
C1036 C 0.82007 0.62225 0.63107 0.0
C1037 C 0.80756 0.63251 0.65403 0.0
C1038 C 0.85726 0.5777 0.67603 0.0
C1039 C 0.86505 0.57885 0.60923 0.0
C1040 C 0.84722 0.59041 0.69848 0.0
C1041 C 0.84461 0.60463 0.65475 0.0
C1042 C 0.85262 0.606 0.58827 0.0
C1043 C 0.86276 0.59326 0.56578 0.0
H1044 H 0.73519 0.62508 0.95189 0.0
H1045 H 0.70723 0.62304 0.75483 0.0
H1046 H 0.71087 0.60284 -0.0006 0.0
H1047 H 0.68251 0.60095 0.80341 0.0
H1048 H 0.65761 0.57402 0.08644 0.0
H1049 H 0.67998 0.59824 0.03676 0.0
H1050 H 0.67655 0.56989 0.84048 0.0
H1051 H 0.65393 0.54601 0.88927 0.0
C1052 C 0.72377 0.62 0.91869 0.0
C1053 C 0.72324 0.62584 0.84927 0.0
C1054 C 0.70972 0.60731 0.94631 0.0
C1055 C 0.69467 0.60012 0.90544 0.0
C1056 C 0.694 0.60606 0.83614 0.0
C1057 C 0.70814 0.61878 0.80833 0.0
C1058 C 0.66156 0.573 0.03261 0.0
C1059 C 0.65401 0.558 0.99208 0.0
C1060 C 0.67445 0.58685 0.00416 0.0
C1061 C 0.68013 0.586 0.9346 0.0
C1062 C 0.67234 0.57114 0.89387 0.0
C1063 C 0.65944 0.55735 0.92217 0.0
H1064 H 0.63916 0.45848 0.02207 0.0
H1065 H 0.64799 0.48582 0.22018 0.0
H1066 H 0.65651 0.43609 0.06235 0.0
H1067 H 0.66545 0.46379 0.25952 0.0
H1068 H 0.68633 0.41505 0.33355 0.0
H1069 H 0.66438 0.43284 0.29323 0.0
H1070 H 0.68776 0.43518 0.08738 0.0
H1071 H 0.70931 0.41708 0.12692 0.0
C1072 C 0.64468 0.45968 0.07423 0.0
C1073 C 0.64218 0.474 0.1177 0.0
C1074 C 0.6547 0.44689 0.09724 0.0
C1075 C 0.6624 0.44813 0.16423 0.0
C1076 C 0.65949 0.46221 0.20811 0.0
C1077 C 0.64953 0.47495 0.1852 0.0
C1078 C 0.68665 0.41918 0.27951 0.0
C1079 C 0.69972 0.41477 0.23376 0.0
C1080 C 0.67412 0.42947 0.25645 0.0
C1081 C 0.67437 0.43557 0.18713 0.0
C1082 C 0.68702 0.43057 0.14086 0.0
C1083 C 0.69951 0.42029 0.16383 0.0
H1084 H 0.77323 0.42838 0.45706 0.0
H1085 H 0.79974 0.42881 0.25735 0.0
H1086 H 0.79809 0.45059 0.50055 0.0
H1087 H 0.82505 0.45092 0.30196 0.0
H1088 H 0.85455 0.50637 0.38285 0.0
H1089 H 0.8317 0.48227 0.33669 0.0
H1090 H 0.82918 0.45474 0.53466 0.0
H1091 H 0.85175 0.47915 0.58165 0.0
C1092 C 0.78444 0.4331 0.42241 0.0
C1093 C 0.78442 0.42681 0.35346 0.0
C1094 C 0.79882 0.44577 0.44773 0.0
C1095 C 0.81364 0.4525 0.40499 0.0
C1096 C 0.81375 0.44614 0.3361 0.0
C1097 C 0.79928 0.43342 0.31058 0.0
C1098 C 0.84921 0.49515 0.41661 0.0
C1099 C 0.8549 0.4948 0.48629 0.0
C1100 C 0.83618 0.48123 0.38983 0.0
C1101 C 0.82853 0.46658 0.43194 0.0
C1102 C 0.83458 0.46598 0.50108 0.0
C1103 C 0.84758 0.47994 0.52799 0.0
H1104 H 0.1474 0.4847 0.38613 0.0
H1105 H 0.13996 0.45826 0.58643 0.0
H1106 H 0.16484 0.4627 0.34662 0.0
H1107 H 0.15734 0.43589 0.54602 0.0
H1108 H 0.18575 0.41398 0.27338 0.0
H1109 H 0.16377 0.43161 0.31483 0.0
H1110 H 0.18858 0.43523 0.51822 0.0
H1111 H 0.21018 0.41731 0.47758 0.0
C1112 C 0.14923 0.47403 0.42157 0.0
C1113 C 0.14227 0.47332 0.48969 0.0
C1114 C 0.15919 0.4613 0.39859 0.0
C1115 C 0.1625 0.44748 0.443 0.0
C1116 C 0.1552 0.44648 0.51067 0.0
C1117 C 0.14517 0.45925 0.53376 0.0
C1118 C 0.18638 0.41836 0.32714 0.0
C1119 C 0.19987 0.41437 0.37184 0.0
C1120 C 0.17384 0.42855 0.35084 0.0
C1121 C 0.17448 0.43497 0.41977 0.0
C1122 C 0.18754 0.43038 0.46508 0.0
C1123 C 0.20006 0.42021 0.44146 0.0
H1124 H 0.29977 0.4293 0.34088 0.0
H1125 H 0.27231 0.42772 0.14289 0.0
H1126 H 0.32438 0.4518 0.29442 0.0
H1127 H 0.2966 0.45044 0.09734 0.0
H1128 H 0.35036 0.48124 0.01675 0.0
H1129 H 0.32789 0.45629 0.06174 0.0
H1130 H 0.32932 0.48303 0.261 0.0
H1131 H 0.35189 0.50756 0.21707 0.0
C1132 C 0.29896 0.43375 0.28756 0.0
C1133 C 0.284 0.42675 0.24586 0.0
C1134 C 0.31304 0.4467 0.26096 0.0
C1135 C 0.31246 0.45299 0.19212 0.0
C1136 C 0.29764 0.44575 0.15019 0.0
C1137 C 0.28361 0.4328 0.17666 0.0
C1138 C 0.34592 0.48173 0.07021 0.0
C1139 C 0.35293 0.49645 0.1131 0.0
C1140 C 0.33299 0.46747 0.09596 0.0
C1141 C 0.3268 0.46763 0.16511 0.0
C1142 C 0.33397 0.48228 0.20794 0.0
C1143 C 0.34685 0.49646 0.18238 0.0
H1144 H 0.32226 0.64162 0.77985 0.0
H1145 H 0.29525 0.6334 0.9789 0.0
H1146 H 0.34462 0.62423 0.82018 0.0
H1147 H 0.31723 0.61588 0.01828 0.0
H1148 H 0.36323 0.57131 0.88557 0.0
H1149 H 0.34534 0.59302 0.84594 0.0
H1150 H 0.34817 0.61669 0.05126 0.0
H1151 H 0.36576 0.59457 0.09171 0.0
C1152 C 0.32113 0.63622 0.83223 0.0
C1153 C 0.3069 0.6389 0.87594 0.0
C1154 C 0.3339 0.62619 0.85527 0.0
C1155 C 0.33273 0.61862 0.92252 0.0
C1156 C 0.31876 0.62172 0.96665 0.0
C1157 C 0.30604 0.63171 0.94372 0.0
C1158 C 0.36017 0.58121 0.92235 0.0
C1159 C 0.36577 0.58103 0.99219 0.0
C1160 C 0.35002 0.59379 0.89931 0.0
C1161 C 0.34521 0.60657 0.94542 0.0
C1162 C 0.3514 0.60685 0.01462 0.0
C1163 C 0.36157 0.59423 0.03775 0.0
H1164 H 0.15743 0.57349 0.51614 0.0
H1165 H 0.15495 0.54601 0.71436 0.0
H1166 H 0.17968 0.59814 0.56399 0.0
H1167 H 0.17738 0.57026 0.76118 0.0
H1168 H 0.2067 0.62357 0.84602 0.0
H1169 H 0.18233 0.60122 0.79723 0.0
H1170 H 0.21072 0.60386 0.60103 0.0
H1171 H 0.23475 0.62646 0.64891 0.0
C1172 C 0.16163 0.57267 0.56976 0.0
C1173 C 0.15441 0.55773 0.61123 0.0
C1174 C 0.17444 0.58677 0.59715 0.0
C1175 C 0.18034 0.5862 0.66653 0.0
C1176 C 0.17296 0.57132 0.70797 0.0
C1177 C 0.16017 0.55731 0.68077 0.0
C1178 C 0.20769 0.61944 0.7924 0.0
C1179 C 0.22274 0.62678 0.7516 0.0
C1180 C 0.19376 0.60657 0.76446 0.0
C1181 C 0.19457 0.60069 0.69518 0.0
C1182 C 0.2095 0.60824 0.6542 0.0
C1183 C 0.22337 0.62113 0.68198 0.0
H1184 H 0.45345 0.01383 0.96498 0.0
H1185 H 0.46869 0.05514 0.11991 0.0
H1186 H 0.48465 0.0088 0.9602 0.0
H1187 H 0.49992 0.05018 0.11556 0.0
H1188 H 0.55681 0.04933 0.02661 0.0
H1189 H 0.52564 0.05442 0.02983 0.0
H1190 H 0.50637 0.99687 0.03973 0.0
H1191 H 0.53762 0.9919 0.03635 0.0
C1192 C 0.46357 0.02188 0.99762 0.0
C1193 C 0.45888 0.03497 0.04229 0.0
C1194 C 0.48134 0.01893 0.99535 0.0
C1195 C 0.49471 0.02912 0.03743 0.0
C1196 C 0.48994 0.04227 0.082 0.0
C1197 C 0.47213 0.04507 0.08472 0.0
C1198 C 0.54585 0.03783 0.0293 0.0
C1199 C 0.54945 0.02025 0.03108 0.0
C1200 C 0.52807 0.04071 0.03156 0.0
C1201 C 0.51358 0.02604 0.03502 0.0
C1202 C 0.51726 0.00842 0.03642 0.0
C1203 C 0.53507 0.00556 0.03486 0.0
H1204 H 0.23437 0.31488 0.40798 0.0
H1205 H 0.25774 0.32351 0.20313 0.0
H1206 H 0.23988 0.28402 0.40734 0.0
H1207 H 0.26216 0.2923 0.19987 0.0
H1208 H 0.28509 0.24175 0.24281 0.0
H1209 H 0.28012 0.27287 0.24611 0.0
H1210 H 0.23032 0.25523 0.3591 0.0
H1211 H 0.23598 0.22433 0.35818 0.0
C1212 C 0.24052 0.31006 0.36249 0.0
C1213 C 0.24552 0.3215 0.30545 0.0
C1214 C 0.24352 0.29231 0.36171 0.0
C1215 C 0.25144 0.28555 0.30346 0.0
C1216 C 0.25627 0.29705 0.24608 0.0
C1217 C 0.25348 0.31486 0.24735 0.0
C1218 C 0.27319 0.2447 0.26868 0.0
C1219 C 0.26097 0.23089 0.30072 0.0
C1220 C 0.27021 0.26245 0.27008 0.0
C1221 C 0.25476 0.26665 0.30272 0.0
C1222 C 0.24251 0.25263 0.33456 0.0
C1223 C 0.24565 0.23493 0.3338 0.0
H1224 H 0.05008 0.02968 0.45047 0.0
H1225 H 0.04258 0.00992 0.66105 0.0
H1226 H 0.01891 0.03411 0.44732 0.0
H1227 H 0.01189 0.01579 0.66069 0.0
H1228 H 0.95209 0.01215 0.61972 0.0
H1229 H 0.98284 0.00615 0.61981 0.0
H1230 H 0.99955 0.05249 0.48638 0.0
H1231 H 0.96847 0.05755 0.48345 0.0
C1232 C 0.0417 0.02622 0.49605 0.0
C1233 C 0.04867 0.01926 0.55571 0.0
C1234 C 0.0239 0.02908 0.49483 0.0
C1235 C 0.01274 0.02541 0.55387 0.0
C1236 C 0.01986 0.01851 0.61372 0.0
C1237 C 0.03755 0.01534 0.61437 0.0
C1238 C 0.96245 0.02096 0.59055 0.0
C1239 C 0.95814 0.03528 0.55172 0.0
C1240 C 0.9801 0.01766 0.59085 0.0
C1241 C 0.99385 0.02884 0.55319 0.0
C1242 C 0.98936 0.04334 0.51491 0.0
C1243 C 0.97163 0.0464 0.51367 0.0
H1244 H 0.27007 0.73766 0.92905 0.0
H1245 H 0.2516 0.73085 0.71662 0.0
H1246 H 0.26426 0.76841 0.92886 0.0
H1247 H 0.24711 0.76197 0.71409 0.0
H1248 H 0.22276 0.81172 0.75061 0.0
H1249 H 0.22794 0.78071 0.75433 0.0
H1250 H 0.27427 0.79772 0.88734 0.0
H1251 H 0.26828 0.82849 0.88593 0.0
C1252 C 0.2649 0.74283 0.88212 0.0
C1253 C 0.26127 0.73187 0.82293 0.0
C1254 C 0.26177 0.76054 0.88161 0.0
C1255 C 0.25517 0.76779 0.82146 0.0
C1256 C 0.25188 0.75683 0.76183 0.0
C1257 C 0.25475 0.73906 0.76278 0.0
C1258 C 0.23391 0.80866 0.78103 0.0
C1259 C 0.24503 0.82226 0.81854 0.0
C1260 C 0.23704 0.79097 0.78269 0.0
C1261 C 0.2516 0.7866 0.82094 0.0
C1262 C 0.26275 0.80042 0.85834 0.0
C1263 C 0.25942 0.81805 0.85738 0.0
H1264 H 0.73199 0.72358 0.79828 0.0
H1265 H 0.78936 0.74215 0.78086 0.0
H1266 H 0.72732 0.75476 0.80402 0.0
H1267 H 0.78489 0.77343 0.78258 0.0
H1268 H 0.77308 0.82717 0.85596 0.0
H1269 H 0.77754 0.79603 0.85311 0.0
H1270 H 0.72756 0.78095 0.73907 0.0
H1271 H 0.72254 0.8119 0.74727 0.0
C1272 C 0.74356 0.73446 0.79508 0.0
C1273 C 0.76099 0.73067 0.78909 0.0
C1274 C 0.74093 0.75232 0.79772 0.0
C1275 C 0.75571 0.76675 0.79346 0.0
C1276 C 0.77319 0.76277 0.78723 0.0
C1277 C 0.7758 0.74489 0.7857 0.0
C1278 C 0.76291 0.8171 0.83142 0.0
C1279 C 0.74731 0.82186 0.80297 0.0
C1280 C 0.7656 0.79927 0.82867 0.0
C1281 C 0.7529 0.78582 0.79596 0.0
C1282 C 0.73747 0.79077 0.76599 0.0
C1283 C 0.73467 0.80857 0.76981 0.0
H1284 H 0.75141 0.22999 0.21038 0.0
H1285 H 0.77033 0.23759 0.42201 0.0
H1286 H 0.7471 0.26114 0.20607 0.0
H1287 H 0.76472 0.26841 0.42008 0.0
H1288 H 0.76931 0.32836 0.37317 0.0
H1289 H 0.77498 0.29747 0.3763 0.0
H1290 H 0.72826 0.28033 0.2454 0.0
H1291 H 0.72339 0.31144 0.23995 0.0
C1292 C 0.75469 0.23837 0.25599 0.0
C1293 C 0.76132 0.23141 0.31638 0.0
C1294 C 0.75192 0.25618 0.25403 0.0
C1295 C 0.75543 0.26739 0.31288 0.0
C1296 C 0.76208 0.26033 0.37337 0.0
C1297 C 0.76509 0.24259 0.37489 0.0
C1298 C 0.76031 0.31787 0.34537 0.0
C1299 C 0.7459 0.32206 0.30665 0.0
C1300 C 0.76345 0.30017 0.34736 0.0
C1301 C 0.75208 0.28628 0.31114 0.0
C1302 C 0.73752 0.29064 0.27289 0.0
C1303 C 0.73458 0.30839 0.2702 0.0
H1304 H 0.95141 0.50517 0.54925 0.0
H1305 H 0.97096 0.56238 0.56767 0.0
H1306 H 0.98257 0.49996 0.54461 0.0
H1307 H 1.0022 0.55726 0.56402 0.0
H1308 H 0.05346 0.53614 0.63887 0.0
H1309 H 0.02231 0.54135 0.64266 0.0
H1310 H 0.00961 0.50797 0.46037 0.0
H1311 H 0.04085 0.50294 0.45646 0.0
C1312 C 0.96245 0.51658 0.55239 0.0
C1313 C 0.95899 0.53414 0.5589 0.0
C1314 C 0.98021 0.51364 0.54946 0.0
C1315 C 0.99476 0.52821 0.55402 0.0
C1316 C 0.99122 0.54579 0.56092 0.0
C1317 C 0.97344 0.54874 0.56276 0.0
C1318 C 0.04394 0.5299 0.59991 0.0
C1319 C 0.04939 0.51911 0.54753 0.0
C1320 C 0.02621 0.53296 0.60175 0.0
C1321 C 0.01359 0.52506 0.55179 0.0
C1322 C 0.01905 0.51411 0.49976 0.0
C1323 C 0.03686 0.51129 0.49733 0.0
H1324 H 0.46834 0.55652 0.99406 0.0
H1325 H 0.45217 0.51119 0.13094 0.0
H1326 H 0.49949 0.5517 0.99749 0.0
H1327 H 0.48309 0.50556 0.13208 0.0
H1328 H 0.5433 0.51045 0.17277 0.0
H1329 H 0.51241 0.51592 0.17288 0.0
H1330 H 0.51847 0.53277 0.95764 0.0
H1331 H 0.54971 0.52863 0.95984 0.0
C1332 C 0.47156 0.54547 0.0247 0.0
C1333 C 0.45809 0.53431 0.06274 0.0
C1334 C 0.48933 0.54255 0.02623 0.0
C1335 C 0.49391 0.52816 0.06486 0.0
C1336 C 0.48022 0.51696 0.10275 0.0
C1337 C 0.4625 0.52008 0.10194 0.0
C1338 C 0.53802 0.51549 0.12581 0.0
C1339 C 0.5489 0.51913 0.06637 0.0
C1340 C 0.52023 0.51841 0.12547 0.0
C1341 C 0.51283 0.52483 0.06526 0.0
C1342 C 0.52372 0.52815 0.00542 0.0
C1343 C 0.54157 0.52547 0.00619 0.0
loop_
_geom_bond_atom_site_label_1
_geom_bond_atom_site_label_2
_geom_bond_distance
_geom_bond_site_symmetry_2
_ccdc_geom_bond_type
Co0 O3 1.970 1_556 S
Co0 N17 1.989 1_556 S
Co0 O25 1.967 1_556 S
Co0 O32 1.920 . S
Co1 O4 1.966 . S
Co1 N10 2.022 . S
Co1 N18 1.993 . S
Co1 O26 1.941 . S
C2 O3 1.258 . S
C2 O4 1.263 . S
O3 Co0 1.970 1_554 S
O3 C2 1.258 . S
O4 Co1 1.966 . S
O4 C2 1.263 . S
C5 O6 1.235 . S
C5 O32 1.289 . S
O6 C5 1.235 . S
C7 C9 1.400 . S
C7 N10 1.351 . S
C7 C12 1.501 . S
C8 C9 1.387 . S
C8 N11 1.341 . S
C9 C7 1.400 . S
C9 C8 1.387 . S
N10 Co1 2.022 . S
N10 C7 1.351 . S
N10 N11 1.365 . S
N11 C8 1.341 . S
N11 N10 1.365 . S
N11 H31 0.862 . S
C12 C7 1.501 . S
C12 H13 0.961 . S
C12 H14 0.961 . S
C12 H15 0.960 . S
H13 C12 0.961 . S
H14 C12 0.961 . S
H15 C12 0.960 . S
C16 N17 1.342 . S
C16 C20 1.401 . S
C16 C21 1.499 1_554 S
N17 Co0 1.989 1_554 S
N17 C16 1.342 . S
N17 N18 1.388 . S
N18 Co1 1.993 . S
N18 N17 1.388 . S
N18 C19 1.346 . S
C19 N18 1.346 . S
C19 C20 1.396 . S
C19 C29 1.510 . S
C20 C16 1.401 . S
C20 C19 1.396 . S
C21 C16 1.499 1_556 S
C21 H22 0.959 . S
C21 H23 0.960 . S
C21 H24 0.961 . S
H22 C21 0.959 . S
H23 C21 0.960 . S
H24 C21 0.961 . S
O25 Co0 1.967 1_554 S
O25 C33 1.258 . S
O26 Co1 1.941 . S
O26 C33 1.266 . S
H27 C29 0.959 . S
H28 C29 0.961 . S
C29 C19 1.510 . S
C29 H27 0.959 . S
C29 H28 0.961 . S
C29 H30 0.960 . S
H30 C29 0.960 . S
H31 N11 0.862 . S
O32 Co0 1.920 . S
O32 C5 1.289 . S
C33 O25 1.258 . S
C33 O26 1.266 . S
Co34 O37 1.970 . S
Co34 N51 1.989 . S
Co34 O59 1.967 . S
Co34 O66 1.920 . S
Co35 O38 1.966 . S
Co35 N44 2.022 . S
Co35 N52 1.993 . S
Co35 O60 1.941 . S
C36 O37 1.258 . S
C36 O38 1.263 . S
O37 Co34 1.970 . S
O37 C36 1.258 . S
O38 Co35 1.966 . S
O38 C36 1.263 . S
C39 O40 1.235 . S
C39 O66 1.289 . S
O40 C39 1.235 . S
C41 C43 1.400 1_554 S
C41 N44 1.351 . S
C41 C46 1.501 . S
C42 C43 1.387 1_554 S
C42 N45 1.341 . S
C43 C41 1.400 1_556 S
C43 C42 1.387 1_556 S
N44 Co35 2.022 . S
N44 C41 1.351 . S
N44 N45 1.365 . S
N45 C42 1.341 . S
N45 N44 1.365 . S
N45 H65 0.862 . S
C46 C41 1.501 . S
C46 H47 0.961 . S
C46 H48 0.961 . S
C46 H49 0.960 . S
H47 C46 0.961 . S
H48 C46 0.961 . S
H49 C46 0.960 . S
C50 N51 1.342 . S
C50 C54 1.401 . S
C50 C55 1.499 . S
N51 Co34 1.989 . S
N51 C50 1.342 . S
N51 N52 1.388 . S
N52 Co35 1.993 . S
N52 N51 1.388 . S
N52 C53 1.346 . S
C53 N52 1.346 . S
C53 C54 1.396 . S
C53 C63 1.510 . S
C54 C50 1.401 . S
C54 C53 1.396 . S
C55 C50 1.499 . S
C55 H56 0.959 . S
C55 H57 0.960 . S
C55 H58 0.961 . S
H56 C55 0.959 . S
H57 C55 0.960 . S
H58 C55 0.961 . S
O59 Co34 1.967 . S
O59 C67 1.258 . S
O60 Co35 1.941 . S
O60 C67 1.266 . S
H61 C63 0.959 . S
H62 C63 0.961 . S
C63 C53 1.510 . S
C63 H61 0.959 . S
C63 H62 0.961 . S
C63 H64 0.960 . S
H64 C63 0.960 . S
H65 N45 0.862 . S
O66 Co34 1.920 . S
O66 C39 1.289 . S
C67 O59 1.258 . S
C67 O60 1.266 . S
Co68 O71 1.970 1_545 S
Co68 N85 1.989 . S
Co68 O93 1.967 . S
Co68 O100 1.920 . S
Co69 O72 1.966 1_545 S
Co69 N78 2.022 . S
Co69 N86 1.993 . S
Co69 O94 1.941 . S
C70 O71 1.258 . S
C70 O72 1.263 . S
O71 Co68 1.970 1_565 S
O71 C70 1.258 . S
O72 Co69 1.966 1_565 S
O72 C70 1.263 . S
C73 O74 1.235 . S
C73 O100 1.289 1_565 S
O74 C73 1.235 . S
C75 C77 1.400 . S
C75 N78 1.351 . S
C75 C80 1.501 1_545 S
C76 C77 1.387 . S
C76 N79 1.341 . S
C77 C75 1.400 . S
C77 C76 1.387 . S
N78 Co69 2.022 . S
N78 C75 1.351 . S
N78 N79 1.365 . S
N79 C76 1.341 . S
N79 N78 1.365 . S
N79 H99 0.862 . S
C80 C75 1.501 1_565 S
C80 H81 0.961 . S
C80 H82 0.961 . S
C80 H83 0.960 . S
H81 C80 0.961 . S
H82 C80 0.961 . S
H83 C80 0.960 . S
C84 N85 1.342 . S
C84 C88 1.401 . S
C84 C89 1.499 . S
N85 Co68 1.989 . S
N85 C84 1.342 . S
N85 N86 1.388 . S
N86 Co69 1.993 . S
N86 N85 1.388 . S
N86 C87 1.346 . S
C87 N86 1.346 . S
C87 C88 1.396 . S
C87 C97 1.510 . S
C88 C84 1.401 . S
C88 C87 1.396 . S
C89 C84 1.499 . S
C89 H90 0.959 . S
C89 H91 0.960 . S
C89 H92 0.961 . S
H90 C89 0.959 . S
H91 C89 0.960 . S
H92 C89 0.961 . S
O93 Co68 1.967 . S
O93 C101 1.258 . S
O94 Co69 1.941 . S
O94 C101 1.266 . S
H95 C97 0.959 . S
H96 C97 0.961 . S
C97 C87 1.510 . S
C97 H95 0.959 . S
C97 H96 0.961 . S
C97 H98 0.960 . S
H98 C97 0.960 . S
H99 N79 0.862 . S
O100 Co68 1.920 . S
O100 C73 1.289 1_545 S
C101 O93 1.258 . S
C101 O94 1.266 . S
Co102 O105 1.970 . S
Co102 N119 1.989 . S
Co102 O127 1.967 . S
Co102 O134 1.920 . S
Co103 O106 1.966 . S
Co103 N112 2.022 . S
Co103 N120 1.993 . S
Co103 O128 1.941 . S
C104 O105 1.258 . S
C104 O106 1.263 . S
O105 Co102 1.970 . S
O105 C104 1.258 . S
O106 Co103 1.966 . S
O106 C104 1.263 . S
C107 O108 1.235 1_554 S
C107 O134 1.289 1_554 S
O108 C107 1.235 1_556 S
C109 C111 1.400 . S
C109 N112 1.351 . S
C109 C114 1.501 . S
C110 C111 1.387 . S
C110 N113 1.341 . S
C111 C109 1.400 . S
C111 C110 1.387 . S
N112 Co103 2.022 . S
N112 C109 1.351 . S
N112 N113 1.365 . S
N113 C110 1.341 . S
N113 N112 1.365 . S
N113 H133 0.862 . S
C114 C109 1.501 . S
C114 H115 0.961 . S
C114 H116 0.961 . S
C114 H117 0.960 . S
H115 C114 0.961 . S
H116 C114 0.961 . S
H117 C114 0.960 . S
C118 N119 1.342 . S
C118 C122 1.401 . S
C118 C123 1.499 . S
N119 Co102 1.989 . S
N119 C118 1.342 . S
N119 N120 1.388 . S
N120 Co103 1.993 . S
N120 N119 1.388 . S
N120 C121 1.346 . S
C121 N120 1.346 . S
C121 C122 1.396 . S
C121 C131 1.510 . S
C122 C118 1.401 . S
C122 C121 1.396 . S
C123 C118 1.499 . S
C123 H124 0.959 . S
C123 H125 0.960 . S
C123 H126 0.961 . S
H124 C123 0.959 . S
H125 C123 0.960 . S
H126 C123 0.961 . S
O127 Co102 1.967 . S
O127 C135 1.258 . S
O128 Co103 1.941 . S
O128 C135 1.266 . S
H129 C131 0.959 . S
H130 C131 0.961 . S
C131 C121 1.510 . S
C131 H129 0.959 . S
C131 H130 0.961 . S
C131 H132 0.960 . S
H132 C131 0.960 . S
H133 N113 0.862 . S
O134 Co102 1.920 . S
O134 C107 1.289 1_556 S
C135 O127 1.258 . S
C135 O128 1.266 . S
Co136 O139 1.970 1_545 S
Co136 N153 1.989 . S
Co136 O161 1.967 . S
Co136 O168 1.920 . S
Co137 O140 1.966 1_545 S
Co137 N146 2.022 . S
Co137 N154 1.993 1_556 S
Co137 O162 1.941 . S
C138 O139 1.258 . S
C138 O140 1.263 1_554 S
O139 Co136 1.970 1_565 S
O139 C138 1.258 . S
O140 Co137 1.966 1_565 S
O140 C138 1.263 1_556 S
C141 O142 1.235 . S
C141 O168 1.289 1_565 S
O142 C141 1.235 . S
C143 C145 1.400 . S
C143 N146 1.351 . S
C143 C148 1.501 1_545 S
C144 C145 1.387 . S
C144 N147 1.341 . S
C145 C143 1.400 . S
C145 C144 1.387 . S
N146 Co137 2.022 . S
N146 C143 1.351 . S
N146 N147 1.365 . S
N147 C144 1.341 . S
N147 N146 1.365 . S
N147 H167 0.862 . S
C148 C143 1.501 1_565 S
C148 H149 0.961 . S
C148 H150 0.961 . S
C148 H151 0.960 . S
H149 C148 0.961 . S
H150 C148 0.961 . S
H151 C148 0.960 . S
C152 N153 1.342 . S
C152 C156 1.401 . S
C152 C157 1.499 . S
N153 Co136 1.989 . S
N153 C152 1.342 . S
N153 N154 1.388 . S
N154 Co137 1.993 1_554 S
N154 N153 1.388 . S
N154 C155 1.346 1_554 S
C155 N154 1.346 1_556 S
C155 C156 1.396 1_556 S
C155 C165 1.510 . S
C156 C152 1.401 . S
C156 C155 1.396 1_554 S
C157 C152 1.499 . S
C157 H158 0.959 . S
C157 H159 0.960 . S
C157 H160 0.961 . S
H158 C157 0.959 . S
H159 C157 0.960 . S
H160 C157 0.961 . S
O161 Co136 1.967 . S
O161 C169 1.258 . S
O162 Co137 1.941 . S
O162 C169 1.266 1_556 S
H163 C165 0.959 . S
H164 C165 0.961 . S
C165 C155 1.510 . S
C165 H163 0.959 . S
C165 H164 0.961 . S
C165 H166 0.960 . S
H166 C165 0.960 . S
H167 N147 0.862 . S
O168 Co136 1.920 . S
O168 C141 1.289 1_545 S
C169 O161 1.258 . S
C169 O162 1.266 1_554 S
Co170 O173 1.970 . S
Co170 N187 1.989 . S
Co170 O195 1.967 . S
Co170 O202 1.920 . S
Co171 O174 1.966 . S
Co171 N180 2.022 1_556 S
Co171 N188 1.993 . S
Co171 O196 1.941 . S
C172 O173 1.258 . S
C172 O174 1.263 . S
O173 Co170 1.970 . S
O173 C172 1.258 . S
O174 Co171 1.966 . S
O174 C172 1.263 . S
C175 O176 1.235 . S
C175 O202 1.289 . S
O176 C175 1.235 . S
C177 C179 1.400 . S
C177 N180 1.351 . S
C177 C182 1.501 . S
C178 C179 1.387 . S
C178 N181 1.341 . S
C179 C177 1.400 . S
C179 C178 1.387 . S
N180 Co171 2.022 1_554 S
N180 C177 1.351 . S
N180 N181 1.365 . S
N181 C178 1.341 . S
N181 N180 1.365 . S
N181 H201 0.862 . S
C182 C177 1.501 . S
C182 H183 0.961 . S
C182 H184 0.961 . S
C182 H185 0.960 . S
H183 C182 0.961 . S
H184 C182 0.961 . S
H185 C182 0.960 . S
C186 N187 1.342 . S
C186 C190 1.401 . S
C186 C191 1.499 . S
N187 Co170 1.989 . S
N187 C186 1.342 . S
N187 N188 1.388 . S
N188 Co171 1.993 . S
N188 N187 1.388 . S
N188 C189 1.346 . S
C189 N188 1.346 . S
C189 C190 1.396 . S
C189 C199 1.510 . S
C190 C186 1.401 . S
C190 C189 1.396 . S
C191 C186 1.499 . S
C191 H192 0.959 . S
C191 H193 0.960 . S
C191 H194 0.961 . S
H192 C191 0.959 . S
H193 C191 0.960 . S
H194 C191 0.961 . S
O195 Co170 1.967 . S
O195 C203 1.258 . S
O196 Co171 1.941 . S
O196 C203 1.266 . S
H197 C199 0.959 . S
H198 C199 0.961 . S
C199 C189 1.510 . S
C199 H197 0.959 . S
C199 H198 0.961 . S
C199 H200 0.960 . S
H200 C199 0.960 . S
H201 N181 0.862 . S
O202 Co170 1.920 . S
O202 C175 1.289 . S
C203 O195 1.258 . S
C203 O196 1.266 . S
Co204 O207 1.970 . S
Co204 N221 1.989 . S
Co204 O229 1.967 . S
Co204 O236 1.920 . S
Co205 O208 1.966 . S
Co205 N214 2.022 . S
Co205 N222 1.993 . S
Co205 O230 1.941 . S
C206 O207 1.258 . S
C206 O208 1.263 . S
O207 Co204 1.970 . S
O207 C206 1.258 . S
O208 Co205 1.966 . S
O208 C206 1.263 . S
C209 O210 1.235 . S
C209 O236 1.289 . S
O210 C209 1.235 . S
C211 C213 1.400 . S
C211 N214 1.351 . S
C211 C216 1.501 . S
C212 C213 1.387 . S
C212 N215 1.341 . S
C213 C211 1.400 . S
C213 C212 1.387 . S
N214 Co205 2.022 . S
N214 C211 1.351 . S
N214 N215 1.365 . S
N215 C212 1.341 . S
N215 N214 1.365 . S
N215 H235 0.862 . S
C216 C211 1.501 . S
C216 H217 0.961 . S
C216 H218 0.961 . S
C216 H219 0.960 . S
H217 C216 0.961 . S
H218 C216 0.961 . S
H219 C216 0.960 . S
C220 N221 1.342 . S
C220 C224 1.401 . S
C220 C225 1.499 . S
N221 Co204 1.989 . S
N221 C220 1.342 . S
N221 N222 1.388 . S
N222 Co205 1.993 . S
N222 N221 1.388 . S
N222 C223 1.346 . S
C223 N222 1.346 . S
C223 C224 1.396 . S
C223 C233 1.510 . S
C224 C220 1.401 . S
C224 C223 1.396 . S
C225 C220 1.499 . S
C225 H226 0.959 . S
C225 H227 0.960 . S
C225 H228 0.961 . S
H226 C225 0.959 . S
H227 C225 0.960 . S
H228 C225 0.961 . S
O229 Co204 1.967 . S
O229 C237 1.258 . S
O230 Co205 1.941 . S
O230 C237 1.266 . S
H231 C233 0.959 . S
H232 C233 0.961 . S
C233 C223 1.510 . S
C233 H231 0.959 . S
C233 H232 0.961 . S
C233 H234 0.960 . S
H234 C233 0.960 . S
H235 N215 0.862 . S
O236 Co204 1.920 . S
O236 C209 1.289 . S
C237 O229 1.258 . S
C237 O230 1.266 . S
Co238 O241 1.970 . S
Co238 N255 1.989 . S
Co238 O263 1.967 . S
Co238 O270 1.920 . S
Co239 O242 1.966 . S
Co239 N248 2.022 . S
Co239 N256 1.993 . S
Co239 O264 1.941 . S
C240 O241 1.258 . S
C240 O242 1.263 . S
O241 Co238 1.970 . S
O241 C240 1.258 . S
O242 Co239 1.966 . S
O242 C240 1.263 . S
C243 O244 1.235 . S
C243 O270 1.289 . S
O244 C243 1.235 . S
C245 C247 1.400 . S
C245 N248 1.351 . S
C245 C250 1.501 . S
C246 C247 1.387 . S
C246 N249 1.341 . S
C247 C245 1.400 . S
C247 C246 1.387 . S
N248 Co239 2.022 . S
N248 C245 1.351 . S
N248 N249 1.365 . S
N249 C246 1.341 . S
N249 N248 1.365 . S
N249 H269 0.862 . S
C250 C245 1.501 . S
C250 H251 0.961 . S
C250 H252 0.961 . S
C250 H253 0.960 . S
H251 C250 0.961 . S
H252 C250 0.961 . S
H253 C250 0.960 . S
C254 N255 1.342 . S
C254 C258 1.401 . S
C254 C259 1.499 . S
N255 Co238 1.989 . S
N255 C254 1.342 . S
N255 N256 1.388 . S
N256 Co239 1.993 . S
N256 N255 1.388 . S
N256 C257 1.346 . S
C257 N256 1.346 . S
C257 C258 1.396 . S
C257 C267 1.510 . S
C258 C254 1.401 . S
C258 C257 1.396 . S
C259 C254 1.499 . S
C259 H260 0.959 . S
C259 H261 0.960 . S
C259 H262 0.961 . S
H260 C259 0.959 . S
H261 C259 0.960 . S
H262 C259 0.961 . S
O263 Co238 1.967 . S
O263 C271 1.258 . S
O264 Co239 1.941 . S
O264 C271 1.266 . S
H265 C267 0.959 . S
H266 C267 0.961 . S
C267 C257 1.510 . S
C267 H265 0.959 . S
C267 H266 0.961 . S
C267 H268 0.960 . S
H268 C267 0.960 . S
H269 N249 0.862 . S
O270 Co238 1.920 . S
O270 C243 1.289 . S
C271 O263 1.258 . S
C271 O264 1.266 . S
Co272 O275 1.970 . S
Co272 N289 1.989 . S
Co272 O297 1.967 . S
Co272 O304 1.920 . S
Co273 O276 1.966 . S
Co273 N282 2.022 . S
Co273 N290 1.993 . S
Co273 O298 1.941 . S
C274 O275 1.258 . S
C274 O276 1.263 . S
O275 Co272 1.970 . S
O275 C274 1.258 . S
O276 Co273 1.966 . S
O276 C274 1.263 . S
C277 O278 1.235 . S
C277 O304 1.289 . S
O278 C277 1.235 . S
C279 C281 1.400 . S
C279 N282 1.351 . S
C279 C284 1.501 . S
C280 C281 1.387 . S
C280 N283 1.341 . S
C281 C279 1.400 . S
C281 C280 1.387 . S
N282 Co273 2.022 . S
N282 C279 1.351 . S
N282 N283 1.365 . S
N283 C280 1.341 . S
N283 N282 1.365 . S
N283 H303 0.862 . S
C284 C279 1.501 . S
C284 H285 0.961 . S
C284 H286 0.961 . S
C284 H287 0.960 . S
H285 C284 0.961 . S
H286 C284 0.961 . S
H287 C284 0.960 . S
C288 N289 1.342 . S
C288 C292 1.401 . S
C288 C293 1.499 . S
N289 Co272 1.989 . S
N289 C288 1.342 . S
N289 N290 1.388 . S
N290 Co273 1.993 . S
N290 N289 1.388 . S
N290 C291 1.346 . S
C291 N290 1.346 . S
C291 C292 1.396 . S
C291 C301 1.510 . S
C292 C288 1.401 . S
C292 C291 1.396 . S
C293 C288 1.499 . S
C293 H294 0.959 . S
C293 H295 0.960 . S
C293 H296 0.961 . S
H294 C293 0.959 . S
H295 C293 0.960 . S
H296 C293 0.961 . S
O297 Co272 1.967 . S
O297 C305 1.258 . S
O298 Co273 1.941 . S
O298 C305 1.266 . S
H299 C301 0.959 . S
H300 C301 0.961 . S
C301 C291 1.510 . S
C301 H299 0.959 . S
C301 H300 0.961 . S
C301 H302 0.960 . S
H302 C301 0.960 . S
H303 N283 0.862 . S
O304 Co272 1.920 . S
O304 C277 1.289 . S
C305 O297 1.258 . S
C305 O298 1.266 . S
Co306 O309 1.970 . S
Co306 N323 1.989 . S
Co306 O331 1.967 . S
Co306 O338 1.920 . S
Co307 O310 1.966 . S
Co307 N316 2.022 . S
Co307 N324 1.993 . S
Co307 O332 1.941 . S
C308 O309 1.258 . S
C308 O310 1.263 . S
O309 Co306 1.970 . S
O309 C308 1.258 . S
O310 Co307 1.966 . S
O310 C308 1.263 . S
C311 O312 1.235 1_554 S
C311 O338 1.289 1_554 S
O312 C311 1.235 1_556 S
C313 C315 1.400 . S
C313 N316 1.351 . S
C313 C318 1.501 . S
C314 C315 1.387 . S
C314 N317 1.341 . S
C315 C313 1.400 . S
C315 C314 1.387 . S
N316 Co307 2.022 . S
N316 C313 1.351 . S
N316 N317 1.365 . S
N317 C314 1.341 . S
N317 N316 1.365 . S
N317 H337 0.862 . S
C318 C313 1.501 . S
C318 H319 0.961 . S
C318 H320 0.961 . S
C318 H321 0.960 . S
H319 C318 0.961 . S
H320 C318 0.961 . S
H321 C318 0.960 . S
C322 N323 1.342 . S
C322 C326 1.401 . S
C322 C327 1.499 . S
N323 Co306 1.989 . S
N323 C322 1.342 . S
N323 N324 1.388 . S
N324 Co307 1.993 . S
N324 N323 1.388 . S
N324 C325 1.346 . S
C325 N324 1.346 . S
C325 C326 1.396 . S
C325 C335 1.510 . S
C326 C322 1.401 . S
C326 C325 1.396 . S
C327 C322 1.499 . S
C327 H328 0.959 . S
C327 H329 0.960 . S
C327 H330 0.961 . S
H328 C327 0.959 . S
H329 C327 0.960 . S
H330 C327 0.961 . S
O331 Co306 1.967 . S
O331 C339 1.258 . S
O332 Co307 1.941 . S
O332 C339 1.266 . S
H333 C335 0.959 . S
H334 C335 0.961 . S
C335 C325 1.510 . S
C335 H333 0.959 . S
C335 H334 0.961 . S
C335 H336 0.960 . S
H336 C335 0.960 . S
H337 N317 0.862 . S
O338 Co306 1.920 . S
O338 C311 1.289 1_556 S
C339 O331 1.258 . S
C339 O332 1.266 . S
Co340 O343 1.970 1_556 S
Co340 N357 1.989 1_556 S
Co340 O365 1.967 1_556 S
Co340 O372 1.920 . S
Co341 O344 1.966 . S
Co341 N350 2.022 . S
Co341 N358 1.993 . S
Co341 O366 1.941 . S
C342 O343 1.258 . S
C342 O344 1.263 . S
O343 Co340 1.970 1_554 S
O343 C342 1.258 . S
O344 Co341 1.966 . S
O344 C342 1.263 . S
C345 O346 1.235 . S
C345 O372 1.289 . S
O346 C345 1.235 . S
C347 C349 1.400 . S
C347 N350 1.351 . S
C347 C352 1.501 . S
C348 C349 1.387 . S
C348 N351 1.341 . S
C349 C347 1.400 . S
C349 C348 1.387 . S
N350 Co341 2.022 . S
N350 C347 1.351 . S
N350 N351 1.365 . S
N351 C348 1.341 . S
N351 N350 1.365 . S
N351 H371 0.862 . S
C352 C347 1.501 . S
C352 H353 0.961 . S
C352 H354 0.961 . S
C352 H355 0.960 . S
H353 C352 0.961 . S
H354 C352 0.961 . S
H355 C352 0.960 . S
C356 N357 1.342 . S
C356 C360 1.401 . S
C356 C361 1.499 1_554 S
N357 Co340 1.989 1_554 S
N357 C356 1.342 . S
N357 N358 1.388 . S
N358 Co341 1.993 . S
N358 N357 1.388 . S
N358 C359 1.346 . S
C359 N358 1.346 . S
C359 C360 1.396 . S
C359 C369 1.510 . S
C360 C356 1.401 . S
C360 C359 1.396 . S
C361 C356 1.499 1_556 S
C361 H362 0.959 . S
C361 H363 0.960 . S
C361 H364 0.961 . S
H362 C361 0.959 . S
H363 C361 0.960 . S
H364 C361 0.961 . S
O365 Co340 1.967 1_554 S
O365 C373 1.258 . S
O366 Co341 1.941 . S
O366 C373 1.266 . S
H367 C369 0.959 . S
H368 C369 0.961 . S
C369 C359 1.510 . S
C369 H367 0.959 . S
C369 H368 0.961 . S
C369 H370 0.960 . S
H370 C369 0.960 . S
H371 N351 0.862 . S
O372 Co340 1.920 . S
O372 C345 1.289 . S
C373 O365 1.258 . S
C373 O366 1.266 . S
Co374 O377 1.970 . S
Co374 N391 1.989 . S
Co374 O399 1.967 . S
Co374 O406 1.920 . S
Co375 O378 1.966 . S
Co375 N384 2.022 . S
Co375 N392 1.993 . S
Co375 O400 1.941 . S
C376 O377 1.258 . S
C376 O378 1.263 . S
O377 Co374 1.970 . S
O377 C376 1.258 . S
O378 Co375 1.966 . S
O378 C376 1.263 . S
C379 O380 1.235 . S
C379 O406 1.289 . S
O380 C379 1.235 . S
C381 C383 1.400 1_554 S
C381 N384 1.351 . S
C381 C386 1.501 . S
C382 C383 1.387 1_554 S
C382 N385 1.341 . S
C383 C381 1.400 1_556 S
C383 C382 1.387 1_556 S
N384 Co375 2.022 . S
N384 C381 1.351 . S
N384 N385 1.365 . S
N385 C382 1.341 . S
N385 N384 1.365 . S
N385 H405 0.862 . S
C386 C381 1.501 . S
C386 H387 0.961 . S
C386 H388 0.961 . S
C386 H389 0.960 . S
H387 C386 0.961 . S
H388 C386 0.961 . S
H389 C386 0.960 . S
C390 N391 1.342 . S
C390 C394 1.401 . S
C390 C395 1.499 . S
N391 Co374 1.989 . S
N391 C390 1.342 . S
N391 N392 1.388 . S
N392 Co375 1.993 . S
N392 N391 1.388 . S
N392 C393 1.346 . S
C393 N392 1.346 . S
C393 C394 1.396 . S
C393 C403 1.510 . S
C394 C390 1.401 . S
C394 C393 1.396 . S
C395 C390 1.499 . S
C395 H396 0.959 . S
C395 H397 0.960 . S
C395 H398 0.961 . S
H396 C395 0.959 . S
H397 C395 0.960 . S
H398 C395 0.961 . S
O399 Co374 1.967 . S
O399 C407 1.258 . S
O400 Co375 1.941 . S
O400 C407 1.266 . S
H401 C403 0.959 . S
H402 C403 0.961 . S
C403 C393 1.510 . S
C403 H401 0.959 . S
C403 H402 0.961 . S
C403 H404 0.960 . S
H404 C403 0.960 . S
H405 N385 0.862 . S
O406 Co374 1.920 . S
O406 C379 1.289 . S
C407 O399 1.258 . S
C407 O400 1.266 . S
Co408 O411 1.970 . S
Co408 N425 1.989 . S
Co408 O433 1.967 . S
Co408 O440 1.920 . S
Co409 O412 1.966 . S
Co409 N418 2.022 . S
Co409 N426 1.993 . S
Co409 O434 1.941 . S
C410 O411 1.258 . S
C410 O412 1.263 . S
O411 Co408 1.970 . S
O411 C410 1.258 . S
O412 Co409 1.966 . S
O412 C410 1.263 . S
C413 O414 1.235 . S
C413 O440 1.289 . S
O414 C413 1.235 . S
C415 C417 1.400 . S
C415 N418 1.351 . S
C415 C420 1.501 . S
C416 C417 1.387 . S
C416 N419 1.341 . S
C417 C415 1.400 . S
C417 C416 1.387 . S
N418 Co409 2.022 . S
N418 C415 1.351 . S
N418 N419 1.365 . S
N419 C416 1.341 . S
N419 N418 1.365 . S
N419 H439 0.862 . S
C420 C415 1.501 . S
C420 H421 0.961 . S
C420 H422 0.961 . S
C420 H423 0.960 . S
H421 C420 0.961 . S
H422 C420 0.961 . S
H423 C420 0.960 . S
C424 N425 1.342 . S
C424 C428 1.401 . S
C424 C429 1.499 . S
N425 Co408 1.989 . S
N425 C424 1.342 . S
N425 N426 1.388 . S
N426 Co409 1.993 . S
N426 N425 1.388 . S
N426 C427 1.346 . S
C427 N426 1.346 . S
C427 C428 1.396 . S
C427 C437 1.510 . S
C428 C424 1.401 . S
C428 C427 1.396 . S
C429 C424 1.499 . S
C429 H430 0.959 . S
C429 H431 0.960 . S
C429 H432 0.961 . S
H430 C429 0.959 . S
H431 C429 0.960 . S
H432 C429 0.961 . S
O433 Co408 1.967 . S
O433 C441 1.258 . S
O434 Co409 1.941 . S
O434 C441 1.266 . S
H435 C437 0.959 . S
H436 C437 0.961 . S
C437 C427 1.510 . S
C437 H435 0.959 . S
C437 H436 0.961 . S
C437 H438 0.960 . S
H438 C437 0.960 . S
H439 N419 0.862 . S
O440 Co408 1.920 . S
O440 C413 1.289 . S
C441 O433 1.258 . S
C441 O434 1.266 . S
Co442 O445 1.970 . S
Co442 N459 1.989 . S
Co442 O467 1.967 . S
Co442 O474 1.920 . S
Co443 O446 1.966 . S
Co443 N452 2.022 . S
Co443 N460 1.993 . S
Co443 O468 1.941 . S
C444 O445 1.258 . S
C444 O446 1.263 . S
O445 Co442 1.970 . S
O445 C444 1.258 . S
O446 Co443 1.966 . S
O446 C444 1.263 . S
C447 O448 1.235 . S
C447 O474 1.289 . S
O448 C447 1.235 . S
C449 C451 1.400 . S
C449 N452 1.351 . S
C449 C454 1.501 . S
C450 C451 1.387 . S
C450 N453 1.341 . S
C451 C449 1.400 . S
C451 C450 1.387 . S
N452 Co443 2.022 . S
N452 C449 1.351 . S
N452 N453 1.365 . S
N453 C450 1.341 . S
N453 N452 1.365 . S
N453 H473 0.862 . S
C454 C449 1.501 . S
C454 H455 0.961 . S
C454 H456 0.961 . S
C454 H457 0.960 . S
H455 C454 0.961 . S
H456 C454 0.961 . S
H457 C454 0.960 . S
C458 N459 1.342 . S
C458 C462 1.401 . S
C458 C463 1.499 . S
N459 Co442 1.989 . S
N459 C458 1.342 . S
N459 N460 1.388 . S
N460 Co443 1.993 . S
N460 N459 1.388 . S
N460 C461 1.346 . S
C461 N460 1.346 . S
C461 C462 1.396 . S
C461 C471 1.510 . S
C462 C458 1.401 . S
C462 C461 1.396 . S
C463 C458 1.499 . S
C463 H464 0.959 . S
C463 H465 0.960 . S
C463 H466 0.961 . S
H464 C463 0.959 . S
H465 C463 0.960 . S
H466 C463 0.961 . S
O467 Co442 1.967 . S
O467 C475 1.258 . S
O468 Co443 1.941 . S
O468 C475 1.266 . S
H469 C471 0.959 . S
H470 C471 0.961 . S
C471 C461 1.510 . S
C471 H469 0.959 . S
C471 H470 0.961 . S
C471 H472 0.960 . S
H472 C471 0.960 . S
H473 N453 0.862 . S
O474 Co442 1.920 . S
O474 C447 1.289 . S
C475 O467 1.258 . S
C475 O468 1.266 . S
Co476 O479 1.970 . S
Co476 N493 1.989 . S
Co476 O501 1.967 . S
Co476 O508 1.920 . S
Co477 O480 1.966 . S
Co477 N486 2.022 . S
Co477 N494 1.993 1_556 S
Co477 O502 1.941 . S
C478 O479 1.258 . S
C478 O480 1.263 1_554 S
O479 Co476 1.970 . S
O479 C478 1.258 . S
O480 Co477 1.966 . S
O480 C478 1.263 1_556 S
C481 O482 1.235 . S
C481 O508 1.289 . S
O482 C481 1.235 . S
C483 C485 1.400 . S
C483 N486 1.351 . S
C483 C488 1.501 . S
C484 C485 1.387 . S
C484 N487 1.341 . S
C485 C483 1.400 . S
C485 C484 1.387 . S
N486 Co477 2.022 . S
N486 C483 1.351 . S
N486 N487 1.365 . S
N487 C484 1.341 . S
N487 N486 1.365 . S
N487 H507 0.862 . S
C488 C483 1.501 . S
C488 H489 0.961 . S
C488 H490 0.961 . S
C488 H491 0.960 . S
H489 C488 0.961 . S
H490 C488 0.961 . S
H491 C488 0.960 . S
C492 N493 1.342 . S
C492 C496 1.401 . S
C492 C497 1.499 . S
N493 Co476 1.989 . S
N493 C492 1.342 . S
N493 N494 1.388 . S
N494 Co477 1.993 1_554 S
N494 N493 1.388 . S
N494 C495 1.346 1_554 S
C495 N494 1.346 1_556 S
C495 C496 1.396 1_556 S
C495 C505 1.510 . S
C496 C492 1.401 . S
C496 C495 1.396 1_554 S
C497 C492 1.499 . S
C497 H498 0.959 . S
C497 H499 0.960 . S
C497 H500 0.961 . S
H498 C497 0.959 . S
H499 C497 0.960 . S
H500 C497 0.961 . S
O501 Co476 1.967 . S
O501 C509 1.258 . S
O502 Co477 1.941 . S
O502 C509 1.266 1_556 S
H503 C505 0.959 . S
H504 C505 0.961 . S
C505 C495 1.510 . S
C505 H503 0.959 . S
C505 H504 0.961 . S
C505 H506 0.960 . S
H506 C505 0.960 . S
H507 N487 0.862 . S
O508 Co476 1.920 . S
O508 C481 1.289 . S
C509 O501 1.258 . S
C509 O502 1.266 1_554 S
Co510 O513 1.970 . S
Co510 N527 1.989 . S
Co510 O535 1.967 . S
Co510 O542 1.920 . S
Co511 O514 1.966 . S
Co511 N520 2.022 1_556 S
Co511 N528 1.993 . S
Co511 O536 1.941 . S
C512 O513 1.258 . S
C512 O514 1.263 . S
O513 Co510 1.970 . S
O513 C512 1.258 . S
O514 Co511 1.966 . S
O514 C512 1.263 . S
C515 O516 1.235 . S
C515 O542 1.289 . S
O516 C515 1.235 . S
C517 C519 1.400 . S
C517 N520 1.351 . S
C517 C522 1.501 . S
C518 C519 1.387 . S
C518 N521 1.341 . S
C519 C517 1.400 . S
C519 C518 1.387 . S
N520 Co511 2.022 1_554 S
N520 C517 1.351 . S
N520 N521 1.365 . S
N521 C518 1.341 . S
N521 N520 1.365 . S
N521 H541 0.862 . S
C522 C517 1.501 . S
C522 H523 0.961 . S
C522 H524 0.961 . S
C522 H525 0.960 . S
H523 C522 0.961 . S
H524 C522 0.961 . S
H525 C522 0.960 . S
C526 N527 1.342 . S
C526 C530 1.401 . S
C526 C531 1.499 . S
N527 Co510 1.989 . S
N527 C526 1.342 . S
N527 N528 1.388 . S
N528 Co511 1.993 . S
N528 N527 1.388 . S
N528 C529 1.346 . S
C529 N528 1.346 . S
C529 C530 1.396 . S
C529 C539 1.510 . S
C530 C526 1.401 . S
C530 C529 1.396 . S
C531 C526 1.499 . S
C531 H532 0.959 . S
C531 H533 0.960 . S
C531 H534 0.961 . S
H532 C531 0.959 . S
H533 C531 0.960 . S
H534 C531 0.961 . S
O535 Co510 1.967 . S
O535 C543 1.258 . S
O536 Co511 1.941 . S
O536 C543 1.266 . S
H537 C539 0.959 . S
H538 C539 0.961 . S
C539 C529 1.510 . S
C539 H537 0.959 . S
C539 H538 0.961 . S
C539 H540 0.960 . S
H540 C539 0.960 . S
H541 N521 0.862 . S
O542 Co510 1.920 . S
O542 C515 1.289 . S
C543 O535 1.258 . S
C543 O536 1.266 . S
H544 C552 0.950 . S
H545 C557 0.950 . S
H546 C554 0.950 . S
H547 C556 0.950 . S
H548 C558 0.950 . S
H549 C560 0.950 . S
H550 C562 0.950 . S
H551 C563 0.950 . S
C552 H544 0.950 . S
C552 C553 1.386 . S
C552 C554 1.391 . S
C553 C552 1.386 . S
C553 C557 1.393 . S
C554 H546 0.950 . S
C554 C552 1.391 . S
C554 C555 1.400 . S
C555 C554 1.400 . S
C555 C556 1.398 . S
C555 C561 1.491 . S
C556 H547 0.950 . S
C556 C555 1.398 . S
C556 C557 1.391 . S
C557 H545 0.950 . S
C557 C553 1.393 . S
C557 C556 1.391 . S
C558 H548 0.950 . S
C558 C559 1.386 . S
C558 C560 1.391 . S
C559 C558 1.386 . S
C559 C563 1.393 . S
C560 H549 0.950 . S
C560 C558 1.391 . S
C560 C561 1.400 . S
C561 C555 1.491 . S
C561 C560 1.400 . S
C561 C562 1.398 . S
C562 H550 0.950 . S
C562 C561 1.398 . S
C562 C563 1.391 . S
C563 H551 0.950 . S
C563 C559 1.393 . S
C563 C562 1.391 . S
H564 C572 0.950 . S
H565 C577 0.950 . S
H566 C574 0.950 . S
H567 C576 0.950 . S
H568 C578 0.950 . S
H569 C580 0.950 . S
H570 C582 0.950 . S
H571 C583 0.950 . S
C572 H564 0.950 . S
C572 C573 1.386 . S
C572 C574 1.391 . S
C573 C572 1.386 . S
C573 C577 1.393 . S
C574 H566 0.950 . S
C574 C572 1.391 . S
C574 C575 1.400 . S
C575 C574 1.400 . S
C575 C576 1.398 . S
C575 C581 1.491 . S
C576 H567 0.950 . S
C576 C575 1.398 . S
C576 C577 1.391 . S
C577 H565 0.950 . S
C577 C573 1.393 . S
C577 C576 1.391 . S
C578 H568 0.950 . S
C578 C579 1.386 . S
C578 C580 1.391 . S
C579 C578 1.386 . S
C579 C583 1.393 . S
C580 H569 0.950 . S
C580 C578 1.391 . S
C580 C581 1.400 . S
C581 C575 1.491 . S
C581 C580 1.400 . S
C581 C582 1.398 . S
C582 H570 0.950 . S
C582 C581 1.398 . S
C582 C583 1.391 . S
C583 H571 0.950 . S
C583 C579 1.393 . S
C583 C582 1.391 . S
H584 C592 0.950 . S
H585 C597 0.950 . S
H586 C594 0.950 . S
H587 C596 0.950 . S
H588 C598 0.950 . S
H589 C600 0.950 . S
H590 C602 0.950 . S
H591 C603 0.950 . S
C592 H584 0.950 . S
C592 C593 1.386 1_545 S
C592 C594 1.391 . S
C593 C592 1.386 1_565 S
C593 C597 1.393 . S
C594 H586 0.950 . S
C594 C592 1.391 . S
C594 C595 1.400 . S
C595 C594 1.400 . S
C595 C596 1.398 1_545 S
C595 C601 1.491 . S
C596 H587 0.950 . S
C596 C595 1.398 1_565 S
C596 C597 1.391 . S
C597 H585 0.950 . S
C597 C593 1.393 . S
C597 C596 1.391 . S
C598 H588 0.950 . S
C598 C599 1.386 1_565 S
C598 C600 1.391 1_556 S
C599 C598 1.386 1_545 S
C599 C603 1.393 . S
C600 H589 0.950 . S
C600 C598 1.391 1_554 S
C600 C601 1.400 1_565 S
C601 C595 1.491 . S
C601 C600 1.400 1_545 S
C601 C602 1.398 . S
C602 H590 0.950 . S
C602 C601 1.398 . S
C602 C603 1.391 1_554 S
C603 H591 0.950 . S
C603 C599 1.393 . S
C603 C602 1.391 1_556 S
H604 C612 0.950 . S
H605 C617 0.950 . S
H606 C614 0.950 . S
H607 C616 0.950 . S
H608 C618 0.950 . S
H609 C620 0.950 . S
H610 C622 0.950 . S
H611 C623 0.950 . S
C612 H604 0.950 . S
C612 C613 1.386 . S
C612 C614 1.391 . S
C613 C612 1.386 . S
C613 C617 1.393 . S
C614 H606 0.950 . S
C614 C612 1.391 . S
C614 C615 1.400 . S
C615 C614 1.400 . S
C615 C616 1.398 . S
C615 C621 1.491 . S
C616 H607 0.950 . S
C616 C615 1.398 . S
C616 C617 1.391 . S
C617 H605 0.950 . S
C617 C613 1.393 . S
C617 C616 1.391 . S
C618 H608 0.950 . S
C618 C619 1.386 . S
C618 C620 1.391 . S
C619 C618 1.386 . S
C619 C623 1.393 . S
C620 H609 0.950 . S
C620 C618 1.391 . S
C620 C621 1.400 . S
C621 C615 1.491 . S
C621 C620 1.400 . S
C621 C622 1.398 . S
C622 H610 0.950 . S
C622 C621 1.398 . S
C622 C623 1.391 . S
C623 H611 0.950 . S
C623 C619 1.393 . S
C623 C622 1.391 . S
H624 C632 0.950 . S
H625 C637 0.950 . S
H626 C634 0.950 . S
H627 C636 0.950 . S
H628 C638 0.950 . S
H629 C640 0.950 . S
H630 C642 0.950 . S
H631 C643 0.950 . S
C632 H624 0.950 . S
C632 C633 1.386 1_565 S
C632 C634 1.391 . S
C633 C632 1.386 1_545 S
C633 C637 1.393 . S
C634 H626 0.950 . S
C634 C632 1.391 . S
C634 C635 1.400 1_565 S
C635 C634 1.400 1_545 S
C635 C636 1.398 . S
C635 C641 1.491 . S
C636 H627 0.950 . S
C636 C635 1.398 . S
C636 C637 1.391 . S
C637 H625 0.950 . S
C637 C633 1.393 . S
C637 C636 1.391 . S
C638 H628 0.950 . S
C638 C639 1.386 1_545 S
C638 C640 1.391 . S
C639 C638 1.386 1_565 S
C639 C643 1.393 . S
C640 H629 0.950 . S
C640 C638 1.391 . S
C640 C641 1.400 . S
C641 C635 1.491 . S
C641 C640 1.400 . S
C641 C642 1.398 1_545 S
C642 H630 0.950 . S
C642 C641 1.398 1_565 S
C642 C643 1.391 . S
C643 H631 0.950 . S
C643 C639 1.393 . S
C643 C642 1.391 . S
H644 C652 0.950 . S
H645 C657 0.950 . S
H646 C654 0.950 . S
H647 C656 0.950 . S
H648 C658 0.950 . S
H649 C660 0.950 . S
H650 C662 0.950 . S
H651 C663 0.950 . S
C652 H644 0.950 . S
C652 C653 1.386 . S
C652 C654 1.391 . S
C653 C652 1.386 . S
C653 C657 1.393 . S
C654 H646 0.950 . S
C654 C652 1.391 . S
C654 C655 1.400 . S
C655 C654 1.400 . S
C655 C656 1.398 . S
C655 C661 1.491 . S
C656 H647 0.950 . S
C656 C655 1.398 . S
C656 C657 1.391 . S
C657 H645 0.950 . S
C657 C653 1.393 . S
C657 C656 1.391 . S
C658 H648 0.950 . S
C658 C659 1.386 . S
C658 C660 1.391 . S
C659 C658 1.386 . S
C659 C663 1.393 . S
C660 H649 0.950 . S
C660 C658 1.391 . S
C660 C661 1.400 . S
C661 C655 1.491 . S
C661 C660 1.400 . S
C661 C662 1.398 . S
C662 H650 0.950 . S
C662 C661 1.398 . S
C662 C663 1.391 . S
C663 H651 0.950 . S
C663 C659 1.393 . S
C663 C662 1.391 . S
H664 C672 0.950 . S
H665 C677 0.950 . S
H666 C674 0.950 . S
H667 C676 0.950 . S
H668 C678 0.950 . S
H669 C680 0.950 . S
H670 C682 0.950 . S
H671 C683 0.950 . S
C672 H664 0.950 . S
C672 C673 1.386 . S
C672 C674 1.391 . S
C673 C672 1.386 . S
C673 C677 1.393 . S
C674 H666 0.950 . S
C674 C672 1.391 . S
C674 C675 1.400 . S
C675 C674 1.400 . S
C675 C676 1.398 . S
C675 C681 1.491 1_554 S
C676 H667 0.950 . S
C676 C675 1.398 . S
C676 C677 1.391 . S
C677 H665 0.950 . S
C677 C673 1.393 . S
C677 C676 1.391 . S
C678 H668 0.950 . S
C678 C679 1.386 . S
C678 C680 1.391 . S
C679 C678 1.386 . S
C679 C683 1.393 . S
C680 H669 0.950 . S
C680 C678 1.391 . S
C680 C681 1.400 . S
C681 C675 1.491 1_556 S
C681 C680 1.400 . S
C681 C682 1.398 . S
C682 H670 0.950 . S
C682 C681 1.398 . S
C682 C683 1.391 . S
C683 H671 0.950 . S
C683 C679 1.393 . S
C683 C682 1.391 . S
H684 C692 0.950 . S
H685 C697 0.950 . S
H686 C694 0.950 . S
H687 C696 0.950 . S
H688 C698 0.950 . S
H689 C700 0.950 . S
H690 C702 0.950 . S
H691 C703 0.950 1_554 S
C692 H684 0.950 . S
C692 C693 1.386 . S
C692 C694 1.391 . S
C693 C692 1.386 . S
C693 C697 1.393 . S
C694 H686 0.950 . S
C694 C692 1.391 . S
C694 C695 1.400 . S
C695 C694 1.400 . S
C695 C696 1.398 . S
C695 C701 1.491 . S
C696 H687 0.950 . S
C696 C695 1.398 . S
C696 C697 1.391 . S
C697 H685 0.950 . S
C697 C693 1.393 . S
C697 C696 1.391 . S
C698 H688 0.950 . S
C698 C699 1.386 . S
C698 C700 1.391 1_554 S
C699 C698 1.386 . S
C699 C703 1.393 1_554 S
C700 H689 0.950 . S
C700 C698 1.391 1_556 S
C700 C701 1.400 . S
C701 C695 1.491 . S
C701 C700 1.400 . S
C701 C702 1.398 . S
C702 H690 0.950 . S
C702 C701 1.398 . S
C702 C703 1.391 . S
C703 H691 0.950 1_556 S
C703 C699 1.393 1_556 S
C703 C702 1.391 . S
H704 C712 0.950 . S
H705 C717 0.950 . S
H706 C714 0.950 . S
H707 C716 0.950 . S
H708 C718 0.950 . S
H709 C720 0.950 . S
H710 C722 0.950 . S
H711 C723 0.950 . S
C712 H704 0.950 . S
C712 C713 1.386 . S
C712 C714 1.391 . S
C713 C712 1.386 . S
C713 C717 1.393 . S
C714 H706 0.950 . S
C714 C712 1.391 . S
C714 C715 1.400 . S
C715 C714 1.400 . S
C715 C716 1.398 . S
C715 C721 1.491 . S
C716 H707 0.950 . S
C716 C715 1.398 . S
C716 C717 1.391 . S
C717 H705 0.950 . S
C717 C713 1.393 . S
C717 C716 1.391 . S
C718 H708 0.950 . S
C718 C719 1.386 . S
C718 C720 1.391 1_556 S
C719 C718 1.386 . S
C719 C723 1.393 . S
C720 H709 0.950 . S
C720 C718 1.391 1_554 S
C720 C721 1.400 . S
C721 C715 1.491 . S
C721 C720 1.400 . S
C721 C722 1.398 . S
C722 H710 0.950 . S
C722 C721 1.398 . S
C722 C723 1.391 1_554 S
C723 H711 0.950 . S
C723 C719 1.393 . S
C723 C722 1.391 1_556 S
H724 C732 0.950 . S
H725 C737 0.950 . S
H726 C734 0.950 . S
H727 C736 0.950 . S
H728 C738 0.950 . S
H729 C740 0.950 . S
H730 C742 0.950 . S
H731 C743 0.950 . S
C732 H724 0.950 . S
C732 C733 1.386 . S
C732 C734 1.391 . S
C733 C732 1.386 . S
C733 C737 1.393 . S
C734 H726 0.950 . S
C734 C732 1.391 . S
C734 C735 1.400 . S
C735 C734 1.400 . S
C735 C736 1.398 . S
C735 C741 1.491 . S
C736 H727 0.950 . S
C736 C735 1.398 . S
C736 C737 1.391 . S
C737 H725 0.950 . S
C737 C733 1.393 . S
C737 C736 1.391 . S
C738 H728 0.950 . S
C738 C739 1.386 . S
C738 C740 1.391 . S
C739 C738 1.386 . S
C739 C743 1.393 . S
C740 H729 0.950 . S
C740 C738 1.391 . S
C740 C741 1.400 . S
C741 C735 1.491 . S
C741 C740 1.400 . S
C741 C742 1.398 . S
C742 H730 0.950 . S
C742 C741 1.398 . S
C742 C743 1.391 . S
C743 H731 0.950 . S
C743 C739 1.393 . S
C743 C742 1.391 . S
H744 C752 0.950 . S
H745 C757 0.950 . S
H746 C754 0.950 . S
H747 C756 0.950 . S
H748 C758 0.950 . S
H749 C760 0.950 . S
H750 C762 0.950 . S
H751 C763 0.950 . S
C752 H744 0.950 . S
C752 C753 1.386 . S
C752 C754 1.391 . S
C753 C752 1.386 . S
C753 C757 1.393 . S
C754 H746 0.950 . S
C754 C752 1.391 . S
C754 C755 1.400 . S
C755 C754 1.400 . S
C755 C756 1.398 . S
C755 C761 1.491 . S
C756 H747 0.950 . S
C756 C755 1.398 . S
C756 C757 1.391 . S
C757 H745 0.950 . S
C757 C753 1.393 . S
C757 C756 1.391 . S
C758 H748 0.950 . S
C758 C759 1.386 . S
C758 C760 1.391 . S
C759 C758 1.386 . S
C759 C763 1.393 . S
C760 H749 0.950 . S
C760 C758 1.391 . S
C760 C761 1.400 . S
C761 C755 1.491 . S
C761 C760 1.400 . S
C761 C762 1.398 . S
C762 H750 0.950 . S
C762 C761 1.398 . S
C762 C763 1.391 . S
C763 H751 0.950 . S
C763 C759 1.393 . S
C763 C762 1.391 . S
H764 C772 0.950 . S
H765 C777 0.950 . S
H766 C774 0.950 . S
H767 C776 0.950 . S
H768 C778 0.950 . S
H769 C780 0.950 . S
H770 C782 0.950 . S
H771 C783 0.950 . S
C772 H764 0.950 . S
C772 C773 1.386 . S
C772 C774 1.391 . S
C773 C772 1.386 . S
C773 C777 1.393 . S
C774 H766 0.950 . S
C774 C772 1.391 . S
C774 C775 1.400 . S
C775 C774 1.400 . S
C775 C776 1.398 . S
C775 C781 1.491 . S
C776 H767 0.950 . S
C776 C775 1.398 . S
C776 C777 1.391 . S
C777 H765 0.950 . S
C777 C773 1.393 . S
C777 C776 1.391 . S
C778 H768 0.950 . S
C778 C779 1.386 . S
C778 C780 1.391 . S
C779 C778 1.386 . S
C779 C783 1.393 . S
C780 H769 0.950 . S
C780 C778 1.391 . S
C780 C781 1.400 . S
C781 C775 1.491 . S
C781 C780 1.400 . S
C781 C782 1.398 . S
C782 H770 0.950 . S
C782 C781 1.398 . S
C782 C783 1.391 . S
C783 H771 0.950 . S
C783 C779 1.393 . S
C783 C782 1.391 . S
H784 C792 0.950 . S
H785 C797 0.950 . S
H786 C794 0.950 . S
H787 C796 0.950 . S
H788 C798 0.950 . S
H789 C800 0.950 . S
H790 C802 0.950 . S
H791 C803 0.950 . S
C792 H784 0.950 . S
C792 C793 1.386 . S
C792 C794 1.391 . S
C793 C792 1.386 . S
C793 C797 1.393 . S
C794 H786 0.950 . S
C794 C792 1.391 . S
C794 C795 1.400 . S
C795 C794 1.400 . S
C795 C796 1.398 . S
C795 C801 1.491 1_556 S
C796 H787 0.950 . S
C796 C795 1.398 . S
C796 C797 1.391 . S
C797 H785 0.950 . S
C797 C793 1.393 . S
C797 C796 1.391 . S
C798 H788 0.950 . S
C798 C799 1.386 . S
C798 C800 1.391 . S
C799 C798 1.386 . S
C799 C803 1.393 . S
C800 H789 0.950 . S
C800 C798 1.391 . S
C800 C801 1.400 . S
C801 C795 1.491 1_554 S
C801 C800 1.400 . S
C801 C802 1.398 . S
C802 H790 0.950 . S
C802 C801 1.398 . S
C802 C803 1.391 . S
C803 H791 0.950 . S
C803 C799 1.393 . S
C803 C802 1.391 . S
H804 C812 0.950 . S
H805 C817 0.950 . S
H806 C814 0.950 . S
H807 C816 0.950 . S
H808 C818 0.950 . S
H809 C820 0.950 . S
H810 C822 0.950 . S
H811 C823 0.950 . S
C812 H804 0.950 . S
C812 C813 1.386 . S
C812 C814 1.391 1_554 S
C813 C812 1.386 . S
C813 C817 1.393 . S
C814 H806 0.950 . S
C814 C812 1.391 1_556 S
C814 C815 1.400 . S
C815 C814 1.400 . S
C815 C816 1.398 . S
C815 C821 1.491 . S
C816 H807 0.950 . S
C816 C815 1.398 . S
C816 C817 1.391 1_556 S
C817 H805 0.950 . S
C817 C813 1.393 . S
C817 C816 1.391 1_554 S
C818 H808 0.950 . S
C818 C819 1.386 . S
C818 C820 1.391 . S
C819 C818 1.386 . S
C819 C823 1.393 . S
C820 H809 0.950 . S
C820 C818 1.391 . S
C820 C821 1.400 . S
C821 C815 1.491 . S
C821 C820 1.400 . S
C821 C822 1.398 . S
C822 H810 0.950 . S
C822 C821 1.398 . S
C822 C823 1.391 . S
C823 H811 0.950 . S
C823 C819 1.393 . S
C823 C822 1.391 . S
H824 C832 0.950 . S
H825 C837 0.950 . S
H826 C834 0.950 . S
H827 C836 0.950 . S
H828 C838 0.950 . S
H829 C840 0.950 . S
H830 C842 0.950 . S
H831 C843 0.950 . S
C832 H824 0.950 . S
C832 C833 1.386 . S
C832 C834 1.391 . S
C833 C832 1.386 . S
C833 C837 1.393 . S
C834 H826 0.950 . S
C834 C832 1.391 . S
C834 C835 1.400 . S
C835 C834 1.400 . S
C835 C836 1.398 . S
C835 C841 1.491 . S
C836 H827 0.950 . S
C836 C835 1.398 . S
C836 C837 1.391 . S
C837 H825 0.950 . S
C837 C833 1.393 . S
C837 C836 1.391 . S
C838 H828 0.950 . S
C838 C839 1.386 . S
C838 C840 1.391 . S
C839 C838 1.386 . S
C839 C843 1.393 . S
C840 H829 0.950 . S
C840 C838 1.391 . S
C840 C841 1.400 . S
C841 C835 1.491 . S
C841 C840 1.400 . S
C841 C842 1.398 . S
C842 H830 0.950 . S
C842 C841 1.398 . S
C842 C843 1.391 . S
C843 H831 0.950 . S
C843 C839 1.393 . S
C843 C842 1.391 . S
H844 C852 0.950 . S
H845 C857 0.950 . S
H846 C854 0.950 . S
H847 C856 0.950 . S
H848 C858 0.950 . S
H849 C860 0.950 . S
H850 C862 0.950 . S
H851 C863 0.950 . S
C852 H844 0.950 . S
C852 C853 1.386 . S
C852 C854 1.391 . S
C853 C852 1.386 . S
C853 C857 1.393 . S
C854 H846 0.950 . S
C854 C852 1.391 . S
C854 C855 1.400 . S
C855 C854 1.400 . S
C855 C856 1.398 . S
C855 C861 1.491 . S
C856 H847 0.950 . S
C856 C855 1.398 . S
C856 C857 1.391 . S
C857 H845 0.950 . S
C857 C853 1.393 . S
C857 C856 1.391 . S
C858 H848 0.950 . S
C858 C859 1.386 . S
C858 C860 1.391 . S
C859 C858 1.386 . S
C859 C863 1.393 . S
C860 H849 0.950 . S
C860 C858 1.391 . S
C860 C861 1.400 . S
C861 C855 1.491 . S
C861 C860 1.400 . S
C861 C862 1.398 . S
C862 H850 0.950 . S
C862 C861 1.398 . S
C862 C863 1.391 . S
C863 H851 0.950 . S
C863 C859 1.393 . S
C863 C862 1.391 . S
H864 C872 0.950 . S
H865 C877 0.950 . S
H866 C874 0.950 . S
H867 C876 0.950 . S
H868 C878 0.950 . S
H869 C880 0.950 . S
H870 C882 0.950 . S
H871 C883 0.950 . S
C872 H864 0.950 . S
C872 C873 1.386 . S
C872 C874 1.391 . S
C873 C872 1.386 . S
C873 C877 1.393 . S
C874 H866 0.950 . S
C874 C872 1.391 . S
C874 C875 1.400 . S
C875 C874 1.400 . S
C875 C876 1.398 . S
C875 C881 1.491 . S
C876 H867 0.950 . S
C876 C875 1.398 . S
C876 C877 1.391 . S
C877 H865 0.950 . S
C877 C873 1.393 . S
C877 C876 1.391 . S
C878 H868 0.950 . S
C878 C879 1.386 . S
C878 C880 1.391 . S
C879 C878 1.386 . S
C879 C883 1.393 . S
C880 H869 0.950 . S
C880 C878 1.391 . S
C880 C881 1.400 . S
C881 C875 1.491 . S
C881 C880 1.400 . S
C881 C882 1.398 . S
C882 H870 0.950 . S
C882 C881 1.398 . S
C882 C883 1.391 . S
C883 H871 0.950 . S
C883 C879 1.393 . S
C883 C882 1.391 . S
H884 C892 0.950 . S
H885 C897 0.950 . S
H886 C894 0.950 . S
H887 C896 0.950 . S
H888 C898 0.950 . S
H889 C900 0.950 . S
H890 C902 0.950 . S
H891 C903 0.950 . S
C892 H884 0.950 . S
C892 C893 1.386 . S
C892 C894 1.391 . S
C893 C892 1.386 . S
C893 C897 1.393 . S
C894 H886 0.950 . S
C894 C892 1.391 . S
C894 C895 1.400 . S
C895 C894 1.400 . S
C895 C896 1.398 . S
C895 C901 1.491 . S
C896 H887 0.950 . S
C896 C895 1.398 . S
C896 C897 1.391 . S
C897 H885 0.950 . S
C897 C893 1.393 . S
C897 C896 1.391 . S
C898 H888 0.950 . S
C898 C899 1.386 . S
C898 C900 1.391 . S
C899 C898 1.386 . S
C899 C903 1.393 . S
C900 H889 0.950 . S
C900 C898 1.391 . S
C900 C901 1.400 . S
C901 C895 1.491 . S
C901 C900 1.400 . S
C901 C902 1.398 . S
C902 H890 0.950 . S
C902 C901 1.398 . S
C902 C903 1.391 . S
C903 H891 0.950 . S
C903 C899 1.393 . S
C903 C902 1.391 . S
H904 C912 0.950 . S
H905 C917 0.950 . S
H906 C914 0.950 . S
H907 C916 0.950 . S
H908 C918 0.950 . S
H909 C920 0.950 . S
H910 C922 0.950 . S
H911 C923 0.950 . S
C912 H904 0.950 . S
C912 C913 1.386 . S
C912 C914 1.391 . S
C913 C912 1.386 . S
C913 C917 1.393 . S
C914 H906 0.950 . S
C914 C912 1.391 . S
C914 C915 1.400 . S
C915 C914 1.400 . S
C915 C916 1.398 . S
C915 C921 1.491 . S
C916 H907 0.950 . S
C916 C915 1.398 . S
C916 C917 1.391 . S
C917 H905 0.950 . S
C917 C913 1.393 . S
C917 C916 1.391 . S
C918 H908 0.950 . S
C918 C919 1.386 . S
C918 C920 1.391 . S
C919 C918 1.386 . S
C919 C923 1.393 . S
C920 H909 0.950 . S
C920 C918 1.391 . S
C920 C921 1.400 . S
C921 C915 1.491 . S
C921 C920 1.400 . S
C921 C922 1.398 . S
C922 H910 0.950 . S
C922 C921 1.398 . S
C922 C923 1.391 . S
C923 H911 0.950 . S
C923 C919 1.393 . S
C923 C922 1.391 . S
H924 C932 0.940 1_545 S
H925 C937 0.950 . S
H926 C934 0.950 . S
H927 C936 0.950 . S
H928 C938 0.950 . S
H929 C940 0.950 . S
H930 C942 0.950 . S
H931 C943 0.950 . S
C932 H924 0.940 1_565 S
C932 C933 1.386 1_556 S
C932 C934 1.391 . S
C933 C932 1.386 1_554 S
C933 C937 1.393 . S
C934 H926 0.950 . S
C934 C932 1.391 . S
C934 C935 1.400 . S
C935 C934 1.400 . S
C935 C936 1.398 1_556 S
C935 C941 1.491 . S
C936 H927 0.950 . S
C936 C935 1.398 1_554 S
C936 C937 1.391 . S
C937 H925 0.950 . S
C937 C933 1.393 . S
C937 C936 1.391 . S
C938 H928 0.950 . S
C938 C939 1.386 . S
C938 C940 1.391 . S
C939 C938 1.386 . S
C939 C943 1.393 . S
C940 H929 0.950 . S
C940 C938 1.391 . S
C940 C941 1.400 . S
C941 C935 1.491 . S
C941 C940 1.400 . S
C941 C942 1.398 . S
C942 H930 0.950 . S
C942 C941 1.398 . S
C942 C943 1.391 . S
C943 H931 0.950 . S
C943 C939 1.393 . S
C943 C942 1.391 . S
H944 C952 0.950 . S
H945 C957 0.950 . S
H946 C954 0.950 . S
H947 C956 0.950 . S
H948 C958 0.950 . S
H949 C960 0.950 1_554 S
H950 C962 0.950 . S
H951 C963 0.950 . S
C952 H944 0.950 . S
C952 C953 1.386 . S
C952 C954 1.391 . S
C953 C952 1.386 . S
C953 C957 1.393 . S
C954 H946 0.950 . S
C954 C952 1.391 . S
C954 C955 1.400 . S
C955 C954 1.400 . S
C955 C956 1.398 . S
C955 C961 1.491 . S
C956 H947 0.950 . S
C956 C955 1.398 . S
C956 C957 1.391 . S
C957 H945 0.950 . S
C957 C953 1.393 . S
C957 C956 1.391 . S
C958 H948 0.950 . S
C958 C959 1.386 . S
C958 C960 1.391 1_554 S
C959 C958 1.386 . S
C959 C963 1.393 1_554 S
C960 H949 0.950 1_556 S
C960 C958 1.391 1_556 S
C960 C961 1.400 . S
C961 C955 1.491 . S
C961 C960 1.400 . S
C961 C962 1.398 . S
C962 H950 0.950 . S
C962 C961 1.398 . S
C962 C963 1.391 . S
C963 H951 0.950 . S
C963 C959 1.393 1_556 S
C963 C962 1.391 . S
H964 C972 0.950 . S
H965 C977 0.950 . S
H966 C974 0.950 . S
H967 C976 0.950 . S
H968 C978 0.950 . S
H969 C980 0.950 . S
H970 C982 0.950 . S
H971 C983 0.950 . S
C972 H964 0.950 . S
C972 C973 1.386 . S
C972 C974 1.391 . S
C973 C972 1.386 . S
C973 C977 1.393 . S
C974 H966 0.950 . S
C974 C972 1.391 . S
C974 C975 1.400 . S
C975 C974 1.400 . S
C975 C976 1.398 . S
C975 C981 1.491 . S
C976 H967 0.950 . S
C976 C975 1.398 . S
C976 C977 1.391 . S
C977 H965 0.950 . S
C977 C973 1.393 . S
C977 C976 1.391 . S
C978 H968 0.950 . S
C978 C979 1.386 . S
C978 C980 1.391 . S
C979 C978 1.386 . S
C979 C983 1.393 . S
C980 H969 0.950 . S
C980 C978 1.391 . S
C980 C981 1.400 . S
C981 C975 1.491 . S
C981 C980 1.400 . S
C981 C982 1.398 . S
C982 H970 0.950 . S
C982 C981 1.398 . S
C982 C983 1.391 . S
C983 H971 0.950 . S
C983 C979 1.393 . S
C983 C982 1.391 . S
H984 C992 0.950 . S
H985 C997 0.950 . S
H986 C994 0.950 . S
H987 C996 0.950 . S
H988 C998 0.950 . S
H989 C1000 0.950 . S
H990 C1002 0.950 . S
H991 C1003 0.950 . S
C992 H984 0.950 . S
C992 C993 1.386 . S
C992 C994 1.391 . S
C993 C992 1.386 . S
C993 C997 1.393 . S
C994 H986 0.950 . S
C994 C992 1.391 . S
C994 C995 1.400 . S
C995 C994 1.400 . S
C995 C996 1.398 . S
C995 C1001 1.491 . S
C996 H987 0.950 . S
C996 C995 1.398 . S
C996 C997 1.391 . S
C997 H985 0.950 . S
C997 C993 1.393 . S
C997 C996 1.391 . S
C998 H988 0.950 . S
C998 C999 1.386 . S
C998 C1000 1.391 . S
C999 C998 1.386 . S
C999 C1003 1.393 . S
C1000 H989 0.950 . S
C1000 C998 1.391 . S
C1000 C1001 1.400 . S
C1001 C995 1.491 . S
C1001 C1000 1.400 . S
C1001 C1002 1.398 . S
C1002 H990 0.950 . S
C1002 C1001 1.398 . S
C1002 C1003 1.391 . S
C1003 H991 0.950 . S
C1003 C999 1.393 . S
C1003 C1002 1.391 . S
H1004 C1012 0.950 . S
H1005 C1017 0.950 . S
H1006 C1014 0.950 . S
H1007 C1016 0.950 . S
H1008 C1018 0.950 . S
H1009 C1020 0.950 . S
H1010 C1022 0.950 . S
H1011 C1023 0.950 . S
C1012 H1004 0.950 . S
C1012 C1013 1.386 . S
C1012 C1014 1.391 . S
C1013 C1012 1.386 . S
C1013 C1017 1.393 . S
C1014 H1006 0.950 . S
C1014 C1012 1.391 . S
C1014 C1015 1.400 . S
C1015 C1014 1.400 . S
C1015 C1016 1.398 . S
C1015 C1021 1.491 . S
C1016 H1007 0.950 . S
C1016 C1015 1.398 . S
C1016 C1017 1.391 . S
C1017 H1005 0.950 . S
C1017 C1013 1.393 . S
C1017 C1016 1.391 . S
C1018 H1008 0.950 . S
C1018 C1019 1.386 . S
C1018 C1020 1.391 . S
C1019 C1018 1.386 . S
C1019 C1023 1.393 . S
C1020 H1009 0.950 . S
C1020 C1018 1.391 . S
C1020 C1021 1.400 . S
C1021 C1015 1.491 . S
C1021 C1020 1.400 . S
C1021 C1022 1.398 . S
C1022 H1010 0.950 . S
C1022 C1021 1.398 . S
C1022 C1023 1.391 . S
C1023 H1011 0.950 . S
C1023 C1019 1.393 . S
C1023 C1022 1.391 . S
H1024 C1032 0.950 . S
H1025 C1037 0.950 . S
H1026 C1034 0.950 . S
H1027 C1036 0.950 . S
H1028 C1038 0.950 . S
H1029 C1040 0.950 . S
H1030 C1042 0.950 . S
H1031 C1043 0.950 . S
C1032 H1024 0.950 . S
C1032 C1033 1.386 . S
C1032 C1034 1.391 . S
C1033 C1032 1.386 . S
C1033 C1037 1.393 . S
C1034 H1026 0.950 . S
C1034 C1032 1.391 . S
C1034 C1035 1.400 . S
C1035 C1034 1.400 . S
C1035 C1036 1.398 . S
C1035 C1041 1.491 . S
C1036 H1027 0.950 . S
C1036 C1035 1.398 . S
C1036 C1037 1.391 . S
C1037 H1025 0.950 . S
C1037 C1033 1.393 . S
C1037 C1036 1.391 . S
C1038 H1028 0.950 . S
C1038 C1039 1.386 . S
C1038 C1040 1.391 . S
C1039 C1038 1.386 . S
C1039 C1043 1.393 . S
C1040 H1029 0.950 . S
C1040 C1038 1.391 . S
C1040 C1041 1.400 . S
C1041 C1035 1.491 . S
C1041 C1040 1.400 . S
C1041 C1042 1.398 . S
C1042 H1030 0.950 . S
C1042 C1041 1.398 . S
C1042 C1043 1.391 . S
C1043 H1031 0.950 . S
C1043 C1039 1.393 . S
C1043 C1042 1.391 . S
H1044 C1052 0.950 . S
H1045 C1057 0.950 . S
H1046 C1054 0.950 . S
H1047 C1056 0.950 . S
H1048 C1058 0.953 . S
H1049 C1060 0.950 . S
H1050 C1062 0.950 . S
H1051 C1063 0.950 . S
C1052 H1044 0.950 . S
C1052 C1053 1.386 . S
C1052 C1054 1.391 . S
C1053 C1052 1.386 . S
C1053 C1057 1.393 . S
C1054 H1046 0.950 . S
C1054 C1052 1.391 . S
C1054 C1055 1.400 . S
C1055 C1054 1.400 . S
C1055 C1056 1.398 . S
C1055 C1061 1.491 . S
C1056 H1047 0.950 . S
C1056 C1055 1.398 . S
C1056 C1057 1.391 . S
C1057 H1045 0.950 . S
C1057 C1053 1.393 . S
C1057 C1056 1.391 . S
C1058 H1048 0.953 . S
C1058 C1059 1.389 . S
C1058 C1060 1.385 1_554 S
C1059 C1058 1.389 . S
C1059 C1063 1.393 . S
C1060 H1049 0.950 . S
C1060 C1058 1.385 1_556 S
C1060 C1061 1.400 . S
C1061 C1055 1.491 . S
C1061 C1060 1.400 . S
C1061 C1062 1.398 . S
C1062 H1050 0.950 . S
C1062 C1061 1.398 . S
C1062 C1063 1.391 1_556 S
C1063 H1051 0.950 . S
C1063 C1059 1.393 . S
C1063 C1062 1.391 1_554 S
H1064 C1072 0.950 . S
H1065 C1077 0.950 . S
H1066 C1074 0.950 . S
H1067 C1076 0.950 . S
H1068 C1078 0.950 . S
H1069 C1080 0.950 . S
H1070 C1082 0.950 . S
H1071 C1083 0.950 . S
C1072 H1064 0.950 . S
C1072 C1073 1.386 . S
C1072 C1074 1.391 . S
C1073 C1072 1.386 . S
C1073 C1077 1.393 . S
C1074 H1066 0.950 . S
C1074 C1072 1.391 . S
C1074 C1075 1.400 . S
C1075 C1074 1.400 . S
C1075 C1076 1.398 . S
C1075 C1081 1.491 . S
C1076 H1067 0.950 . S
C1076 C1075 1.398 . S
C1076 C1077 1.391 . S
C1077 H1065 0.950 . S
C1077 C1073 1.393 . S
C1077 C1076 1.391 . S
C1078 H1068 0.950 . S
C1078 C1079 1.386 . S
C1078 C1080 1.391 . S
C1079 C1078 1.386 . S
C1079 C1083 1.393 . S
C1080 H1069 0.950 . S
C1080 C1078 1.391 . S
C1080 C1081 1.400 . S
C1081 C1075 1.491 . S
C1081 C1080 1.400 . S
C1081 C1082 1.398 . S
C1082 H1070 0.950 . S
C1082 C1081 1.398 . S
C1082 C1083 1.391 . S
C1083 H1071 0.950 . S
C1083 C1079 1.393 . S
C1083 C1082 1.391 . S
H1084 C1092 0.950 . S
H1085 C1097 0.950 . S
H1086 C1094 0.950 . S
H1087 C1096 0.950 . S
H1088 C1098 0.950 . S
H1089 C1100 0.950 . S
H1090 C1102 0.950 . S
H1091 C1103 0.950 . S
C1092 H1084 0.950 . S
C1092 C1093 1.386 . S
C1092 C1094 1.391 . S
C1093 C1092 1.386 . S
C1093 C1097 1.393 . S
C1094 H1086 0.950 . S
C1094 C1092 1.391 . S
C1094 C1095 1.400 . S
C1095 C1094 1.400 . S
C1095 C1096 1.398 . S
C1095 C1101 1.491 . S
C1096 H1087 0.950 . S
C1096 C1095 1.398 . S
C1096 C1097 1.391 . S
C1097 H1085 0.950 . S
C1097 C1093 1.393 . S
C1097 C1096 1.391 . S
C1098 H1088 0.950 . S
C1098 C1099 1.386 . S
C1098 C1100 1.391 . S
C1099 C1098 1.386 . S
C1099 C1103 1.393 . S
C1100 H1089 0.950 . S
C1100 C1098 1.391 . S
C1100 C1101 1.400 . S
C1101 C1095 1.491 . S
C1101 C1100 1.400 . S
C1101 C1102 1.398 . S
C1102 H1090 0.950 . S
C1102 C1101 1.398 . S
C1102 C1103 1.391 . S
C1103 H1091 0.950 . S
C1103 C1099 1.393 . S
C1103 C1102 1.391 . S
H1104 C1112 0.950 . S
H1105 C1117 0.950 . S
H1106 C1114 0.950 . S
H1107 C1116 0.950 . S
H1108 C1118 0.950 . S
H1109 C1120 0.950 . S
H1110 C1122 0.950 . S
H1111 C1123 0.950 . S
C1112 H1104 0.950 . S
C1112 C1113 1.386 . S
C1112 C1114 1.391 . S
C1113 C1112 1.386 . S
C1113 C1117 1.393 . S
C1114 H1106 0.950 . S
C1114 C1112 1.391 . S
C1114 C1115 1.400 . S
C1115 C1114 1.400 . S
C1115 C1116 1.398 . S
C1115 C1121 1.491 . S
C1116 H1107 0.950 . S
C1116 C1115 1.398 . S
C1116 C1117 1.391 . S
C1117 H1105 0.950 . S
C1117 C1113 1.393 . S
C1117 C1116 1.391 . S
C1118 H1108 0.950 . S
C1118 C1119 1.386 . S
C1118 C1120 1.391 . S
C1119 C1118 1.386 . S
C1119 C1123 1.393 . S
C1120 H1109 0.950 . S
C1120 C1118 1.391 . S
C1120 C1121 1.400 . S
C1121 C1115 1.491 . S
C1121 C1120 1.400 . S
C1121 C1122 1.398 . S
C1122 H1110 0.950 . S
C1122 C1121 1.398 . S
C1122 C1123 1.391 . S
C1123 H1111 0.950 . S
C1123 C1119 1.393 . S
C1123 C1122 1.391 . S
H1124 C1132 0.950 . S
H1125 C1137 0.950 . S
H1126 C1134 0.950 . S
H1127 C1136 0.950 . S
H1128 C1138 0.950 . S
H1129 C1140 0.950 . S
H1130 C1142 0.950 . S
H1131 C1143 0.950 . S
C1132 H1124 0.950 . S
C1132 C1133 1.386 . S
C1132 C1134 1.391 . S
C1133 C1132 1.386 . S
C1133 C1137 1.393 . S
C1134 H1126 0.950 . S
C1134 C1132 1.391 . S
C1134 C1135 1.400 . S
C1135 C1134 1.400 . S
C1135 C1136 1.398 . S
C1135 C1141 1.491 . S
C1136 H1127 0.950 . S
C1136 C1135 1.398 . S
C1136 C1137 1.391 . S
C1137 H1125 0.950 . S
C1137 C1133 1.393 . S
C1137 C1136 1.391 . S
C1138 H1128 0.950 . S
C1138 C1139 1.386 . S
C1138 C1140 1.391 . S
C1139 C1138 1.386 . S
C1139 C1143 1.393 . S
C1140 H1129 0.950 . S
C1140 C1138 1.391 . S
C1140 C1141 1.400 . S
C1141 C1135 1.491 . S
C1141 C1140 1.400 . S
C1141 C1142 1.398 . S
C1142 H1130 0.950 . S
C1142 C1141 1.398 . S
C1142 C1143 1.391 . S
C1143 H1131 0.950 . S
C1143 C1139 1.393 . S
C1143 C1142 1.391 . S
H1144 C1152 0.950 . S
H1145 C1157 0.950 . S
H1146 C1154 0.950 . S
H1147 C1156 0.950 . S
H1148 C1158 0.950 . S
H1149 C1160 0.950 . S
H1150 C1162 0.950 . S
H1151 C1163 0.950 . S
C1152 H1144 0.950 . S
C1152 C1153 1.386 . S
C1152 C1154 1.391 . S
C1153 C1152 1.386 . S
C1153 C1157 1.393 . S
C1154 H1146 0.950 . S
C1154 C1152 1.391 . S
C1154 C1155 1.400 . S
C1155 C1154 1.400 . S
C1155 C1156 1.398 . S
C1155 C1161 1.491 . S
C1156 H1147 0.950 . S
C1156 C1155 1.398 . S
C1156 C1157 1.391 . S
C1157 H1145 0.950 . S
C1157 C1153 1.393 . S
C1157 C1156 1.391 . S
C1158 H1148 0.950 . S
C1158 C1159 1.386 . S
C1158 C1160 1.391 . S
C1159 C1158 1.386 . S
C1159 C1163 1.393 1_556 S
C1160 H1149 0.950 . S
C1160 C1158 1.391 . S
C1160 C1161 1.400 . S
C1161 C1155 1.491 . S
C1161 C1160 1.400 . S
C1161 C1162 1.398 . S
C1162 H1150 0.950 . S
C1162 C1161 1.398 . S
C1162 C1163 1.391 1_556 S
C1163 H1151 0.950 . S
C1163 C1159 1.393 1_554 S
C1163 C1162 1.391 1_554 S
H1164 C1172 0.950 . S
H1165 C1177 0.950 . S
H1166 C1174 0.950 . S
H1167 C1176 0.950 . S
H1168 C1178 0.950 . S
H1169 C1180 0.950 . S
H1170 C1182 0.950 . S
H1171 C1183 0.950 . S
C1172 H1164 0.950 . S
C1172 C1173 1.386 . S
C1172 C1174 1.391 . S
C1173 C1172 1.386 . S
C1173 C1177 1.393 . S
C1174 H1166 0.950 . S
C1174 C1172 1.391 . S
C1174 C1175 1.400 . S
C1175 C1174 1.400 . S
C1175 C1176 1.398 . S
C1175 C1181 1.491 . S
C1176 H1167 0.950 . S
C1176 C1175 1.398 . S
C1176 C1177 1.391 . S
C1177 H1165 0.950 . S
C1177 C1173 1.393 . S
C1177 C1176 1.391 . S
C1178 H1168 0.950 . S
C1178 C1179 1.386 . S
C1178 C1180 1.391 . S
C1179 C1178 1.386 . S
C1179 C1183 1.393 . S
C1180 H1169 0.950 . S
C1180 C1178 1.391 . S
C1180 C1181 1.400 . S
C1181 C1175 1.491 . S
C1181 C1180 1.400 . S
C1181 C1182 1.398 . S
C1182 H1170 0.950 . S
C1182 C1181 1.398 . S
C1182 C1183 1.391 . S
C1183 H1171 0.950 . S
C1183 C1179 1.393 . S
C1183 C1182 1.391 . S
H1184 C1192 0.950 . S
H1185 C1197 0.950 . S
H1186 C1194 0.947 1_565 S
H1187 C1196 0.950 . S
H1188 C1198 0.950 . S
H1189 C1200 0.950 . S
H1190 C1202 0.950 1_565 S
H1191 C1203 0.950 1_565 S
C1192 H1184 0.950 . S
C1192 C1193 1.386 . S
C1192 C1194 1.391 . S
C1193 C1192 1.386 . S
C1193 C1197 1.393 . S
C1194 H1186 0.947 1_545 S
C1194 C1192 1.391 . S
C1194 C1195 1.400 . S
C1195 C1194 1.400 . S
C1195 C1196 1.398 . S
C1195 C1201 1.491 . S
C1196 H1187 0.950 . S
C1196 C1195 1.398 . S
C1196 C1197 1.391 . S
C1197 H1185 0.950 . S
C1197 C1193 1.393 . S
C1197 C1196 1.391 . S
C1198 H1188 0.950 . S
C1198 C1199 1.386 . S
C1198 C1200 1.391 . S
C1199 C1198 1.386 . S
C1199 C1203 1.393 . S
C1200 H1189 0.950 . S
C1200 C1198 1.391 . S
C1200 C1201 1.400 . S
C1201 C1195 1.491 . S
C1201 C1200 1.400 . S
C1201 C1202 1.398 . S
C1202 H1190 0.950 1_545 S
C1202 C1201 1.398 . S
C1202 C1203 1.391 . S
C1203 H1191 0.950 1_545 S
C1203 C1199 1.393 . S
C1203 C1202 1.391 . S
H1204 C1212 0.950 . S
H1205 C1217 0.950 . S
H1206 C1214 0.950 . S
H1207 C1216 0.950 . S
H1208 C1218 0.950 . S
H1209 C1220 0.950 . S
H1210 C1222 0.950 . S
H1211 C1223 0.950 . S
C1212 H1204 0.950 . S
C1212 C1213 1.386 . S
C1212 C1214 1.391 . S
C1213 C1212 1.386 . S
C1213 C1217 1.393 . S
C1214 H1206 0.950 . S
C1214 C1212 1.391 . S
C1214 C1215 1.400 . S
C1215 C1214 1.400 . S
C1215 C1216 1.398 . S
C1215 C1221 1.491 . S
C1216 H1207 0.950 . S
C1216 C1215 1.398 . S
C1216 C1217 1.391 . S
C1217 H1205 0.950 . S
C1217 C1213 1.393 . S
C1217 C1216 1.391 . S
C1218 H1208 0.950 . S
C1218 C1219 1.386 . S
C1218 C1220 1.391 . S
C1219 C1218 1.386 . S
C1219 C1223 1.393 . S
C1220 H1209 0.950 . S
C1220 C1218 1.391 . S
C1220 C1221 1.400 . S
C1221 C1215 1.491 . S
C1221 C1220 1.400 . S
C1221 C1222 1.398 . S
C1222 H1210 0.950 . S
C1222 C1221 1.398 . S
C1222 C1223 1.391 . S
C1223 H1211 0.950 . S
C1223 C1219 1.393 . S
C1223 C1222 1.391 . S
H1224 C1232 0.950 . S
H1225 C1237 0.950 . S
H1226 C1234 0.950 . S
H1227 C1236 0.950 . S
H1228 C1238 0.950 . S
H1229 C1240 0.950 . S
H1230 C1242 0.950 . S
H1231 C1243 0.950 . S
C1232 H1224 0.950 . S
C1232 C1233 1.386 . S
C1232 C1234 1.391 . S
C1233 C1232 1.386 . S
C1233 C1237 1.393 . S
C1234 H1226 0.950 . S
C1234 C1232 1.391 . S
C1234 C1235 1.400 . S
C1235 C1234 1.400 . S
C1235 C1236 1.398 . S
C1235 C1241 1.491 1_455 S
C1236 H1227 0.950 . S
C1236 C1235 1.398 . S
C1236 C1237 1.391 . S
C1237 H1225 0.950 . S
C1237 C1233 1.393 . S
C1237 C1236 1.391 . S
C1238 H1228 0.950 . S
C1238 C1239 1.386 . S
C1238 C1240 1.391 . S
C1239 C1238 1.386 . S
C1239 C1243 1.393 . S
C1240 H1229 0.950 . S
C1240 C1238 1.391 . S
C1240 C1241 1.400 . S
C1241 C1235 1.491 1_655 S
C1241 C1240 1.400 . S
C1241 C1242 1.398 . S
C1242 H1230 0.950 . S
C1242 C1241 1.398 . S
C1242 C1243 1.391 . S
C1243 H1231 0.950 . S
C1243 C1239 1.393 . S
C1243 C1242 1.391 . S
H1244 C1252 0.950 . S
H1245 C1257 0.950 . S
H1246 C1254 0.950 . S
H1247 C1256 0.950 . S
H1248 C1258 0.950 . S
H1249 C1260 0.950 . S
H1250 C1262 0.950 . S
H1251 C1263 0.950 . S
C1252 H1244 0.950 . S
C1252 C1253 1.386 . S
C1252 C1254 1.391 . S
C1253 C1252 1.386 . S
C1253 C1257 1.393 . S
C1254 H1246 0.950 . S
C1254 C1252 1.391 . S
C1254 C1255 1.400 . S
C1255 C1254 1.400 . S
C1255 C1256 1.398 . S
C1255 C1261 1.491 . S
C1256 H1247 0.950 . S
C1256 C1255 1.398 . S
C1256 C1257 1.391 . S
C1257 H1245 0.950 . S
C1257 C1253 1.393 . S
C1257 C1256 1.391 . S
C1258 H1248 0.950 . S
C1258 C1259 1.386 . S
C1258 C1260 1.391 . S
C1259 C1258 1.386 . S
C1259 C1263 1.393 . S
C1260 H1249 0.950 . S
C1260 C1258 1.391 . S
C1260 C1261 1.400 . S
C1261 C1255 1.491 . S
C1261 C1260 1.400 . S
C1261 C1262 1.398 . S
C1262 H1250 0.950 . S
C1262 C1261 1.398 . S
C1262 C1263 1.391 . S
C1263 H1251 0.950 . S
C1263 C1259 1.393 . S
C1263 C1262 1.391 . S
H1264 C1272 0.950 . S
H1265 C1277 0.950 . S
H1266 C1274 0.950 . S
H1267 C1276 0.950 . S
H1268 C1278 0.950 . S
H1269 C1280 0.950 . S
H1270 C1282 0.950 . S
H1271 C1283 0.950 . S
C1272 H1264 0.950 . S
C1272 C1273 1.386 . S
C1272 C1274 1.391 . S
C1273 C1272 1.386 . S
C1273 C1277 1.393 . S
C1274 H1266 0.950 . S
C1274 C1272 1.391 . S
C1274 C1275 1.400 . S
C1275 C1274 1.400 . S
C1275 C1276 1.398 . S
C1275 C1281 1.491 . S
C1276 H1267 0.950 . S
C1276 C1275 1.398 . S
C1276 C1277 1.391 . S
C1277 H1265 0.950 . S
C1277 C1273 1.393 . S
C1277 C1276 1.391 . S
C1278 H1268 0.950 . S
C1278 C1279 1.386 . S
C1278 C1280 1.391 . S
C1279 C1278 1.386 . S
C1279 C1283 1.393 . S
C1280 H1269 0.950 . S
C1280 C1278 1.391 . S
C1280 C1281 1.400 . S
C1281 C1275 1.491 . S
C1281 C1280 1.400 . S
C1281 C1282 1.398 . S
C1282 H1270 0.950 . S
C1282 C1281 1.398 . S
C1282 C1283 1.391 . S
C1283 H1271 0.950 . S
C1283 C1279 1.393 . S
C1283 C1282 1.391 . S
H1284 C1292 0.950 . S
H1285 C1297 0.950 . S
H1286 C1294 0.950 . S
H1287 C1296 0.950 . S
H1288 C1298 0.950 . S
H1289 C1300 0.950 . S
H1290 C1302 0.950 . S
H1291 C1303 0.950 . S
C1292 H1284 0.950 . S
C1292 C1293 1.386 . S
C1292 C1294 1.391 . S
C1293 C1292 1.386 . S
C1293 C1297 1.393 . S
C1294 H1286 0.950 . S
C1294 C1292 1.391 . S
C1294 C1295 1.400 . S
C1295 C1294 1.400 . S
C1295 C1296 1.398 . S
C1295 C1301 1.491 . S
C1296 H1287 0.950 . S
C1296 C1295 1.398 . S
C1296 C1297 1.391 . S
C1297 H1285 0.950 . S
C1297 C1293 1.393 . S
C1297 C1296 1.391 . S
C1298 H1288 0.950 . S
C1298 C1299 1.386 . S
C1298 C1300 1.391 . S
C1299 C1298 1.386 . S
C1299 C1303 1.393 . S
C1300 H1289 0.950 . S
C1300 C1298 1.391 . S
C1300 C1301 1.400 . S
C1301 C1295 1.491 . S
C1301 C1300 1.400 . S
C1301 C1302 1.398 . S
C1302 H1290 0.950 . S
C1302 C1301 1.398 . S
C1302 C1303 1.391 . S
C1303 H1291 0.950 . S
C1303 C1299 1.393 . S
C1303 C1302 1.391 . S
H1304 C1312 0.950 . S
H1305 C1317 0.950 . S
H1306 C1314 0.950 . S
H1307 C1316 0.950 . S
H1308 C1318 0.950 . S
H1309 C1320 0.950 . S
H1310 C1322 0.950 . S
H1311 C1323 0.950 . S
C1312 H1304 0.950 . S
C1312 C1313 1.386 . S
C1312 C1314 1.391 . S
C1313 C1312 1.386 . S
C1313 C1317 1.393 . S
C1314 H1306 0.950 . S
C1314 C1312 1.391 . S
C1314 C1315 1.400 . S
C1315 C1314 1.400 . S
C1315 C1316 1.398 . S
C1315 C1321 1.491 1_655 S
C1316 H1307 0.950 . S
C1316 C1315 1.398 . S
C1316 C1317 1.391 . S
C1317 H1305 0.950 . S
C1317 C1313 1.393 . S
C1317 C1316 1.391 . S
C1318 H1308 0.950 . S
C1318 C1319 1.386 . S
C1318 C1320 1.391 . S
C1319 C1318 1.386 . S
C1319 C1323 1.393 . S
C1320 H1309 0.950 . S
C1320 C1318 1.391 . S
C1320 C1321 1.400 . S
C1321 C1315 1.491 1_455 S
C1321 C1320 1.400 . S
C1321 C1322 1.398 . S
C1322 H1310 0.950 . S
C1322 C1321 1.398 . S
C1322 C1323 1.391 . S
C1323 H1311 0.950 . S
C1323 C1319 1.393 . S
C1323 C1322 1.391 . S
H1324 C1332 0.950 1_556 S
H1325 C1337 0.950 . S
H1326 C1334 0.950 1_556 S
H1327 C1336 0.950 . S
H1328 C1338 0.950 . S
H1329 C1340 0.950 . S
H1330 C1342 0.950 1_556 S
H1331 C1343 0.950 1_556 S
C1332 H1324 0.950 1_554 S
C1332 C1333 1.386 . S
C1332 C1334 1.391 . S
C1333 C1332 1.386 . S
C1333 C1337 1.393 . S
C1334 H1326 0.950 1_554 S
C1334 C1332 1.391 . S
C1334 C1335 1.400 . S
C1335 C1334 1.400 . S
C1335 C1336 1.398 . S
C1335 C1341 1.491 . S
C1336 H1327 0.950 . S
C1336 C1335 1.398 . S
C1336 C1337 1.391 . S
C1337 H1325 0.950 . S
C1337 C1333 1.393 . S
C1337 C1336 1.391 . S
C1338 H1328 0.950 . S
C1338 C1339 1.386 . S
C1338 C1340 1.391 . S
C1339 C1338 1.386 . S
C1339 C1343 1.393 . S
C1340 H1329 0.950 . S
C1340 C1338 1.391 . S
C1340 C1341 1.400 . S
C1341 C1335 1.491 . S
C1341 C1340 1.400 . S
C1341 C1342 1.398 . S
C1342 H1330 0.950 1_554 S
C1342 C1341 1.398 . S
C1342 C1343 1.391 . S
C1343 H1331 0.950 1_554 S
C1343 C1339 1.393 . S
C1343 C1342 1.391 . S
C553 C5 1.261 . S
C559 C9 1.225 . S
C573 C43 1.227 . S
C579 C39 1.262 . S
C593 C73 1.261 . S
C599 C77 1.238 . S
C613 C111 1.239 . S
C619 C107 1.260 . S
C633 C145 1.247 . S
C639 C141 1.256 . S
C653 C175 1.260 . S
C659 C179 1.239 . S
C673 C213 1.226 . S
C679 C209 1.262 . S
C693 C247 1.244 . S
C699 C243 1.258 . S
C713 C277 1.259 . S
C719 C281 1.224 . S
C733 C315 1.243 . S
C739 C311 1.258 . S
C753 C345 1.257 . S
C759 C349 1.225 . S
C773 C379 1.260 . S
C779 C383 1.240 . S
C793 C413 1.257 . S
C799 C417 1.246 . S
C813 C447 1.261 . S
C819 C451 1.234 . S
C833 C485 1.241 . S
C839 C481 1.259 . S
C853 C519 1.244 . S
C859 C515 1.258 . S
C873 C2 1.615 . S
C879 C36 1.617 . S
C893 C101 1.578 . S
C899 C67 1.575 . S
C913 C104 1.617 . S
C919 C70 1.616 . S
C933 C33 1.575 1_565 S
C939 C135 1.572 . S
C953 C172 1.617 . S
C959 C138 1.615 . S
C973 C203 1.570 . S
C979 C237 1.567 1_565 S
C993 C206 1.615 . S
C999 C240 1.617 . S
C1013 C271 1.575 . S
C1019 C169 1.578 . S
C1033 C308 1.618 . S
C1039 C274 1.618 . S
C1053 C339 1.568 . S
C1059 C373 1.567 . S
C1073 C342 1.615 . S
C1079 C376 1.617 . S
C1093 C407 1.573 . S
C1099 C305 1.569 . S
C1113 C410 1.618 . S
C1119 C444 1.617 . S
C1133 C475 1.578 . S
C1139 C509 1.574 . S
C1153 C512 1.608 . S
C1159 C478 1.610 1_556 S
C1173 C441 1.572 . S
C1179 C543 1.569 . S
C1193 C20 1.513 . S
C1199 C156 1.513 . S
C1213 C462 1.512 . S
C1219 C54 1.512 . S
C1233 C88 1.513 . S
C1239 C224 1.513 . S
C1253 C530 1.512 . S
C1259 C122 1.512 . S
C1273 C326 1.514 . S
C1279 C190 1.514 . S
C1293 C258 1.519 . S
C1299 C394 1.519 . S
C1313 C292 1.513 . S
C1319 C428 1.513 . S
C1333 C496 1.513 . S
C1339 C360 1.513 . S
