# Generated by pormake.
# Topology vbm, (6)-cn, num edge types: 1
# Building blocks:
#     Node 0, Type 0, BuildingBlock: CUWYAW_clean_sbu_0, # of connection points: 6
#     Node 1, Type 0, BuildingBlock: CUWYAW_clean_sbu_0, # of connection points: 6
#     Node 2, Type 0, BuildingBlock: CUWYAW_clean_sbu_0, # of connection points: 6
#     Node 3, Type 0, BuildingBlock: CUWYAW_clean_sbu_0, # of connection points: 6
#     Node 4, Type 0, BuildingBlock: CUWYAW_clean_sbu_0, # of connection points: 6
#     Node 5, Type 0, BuildingBlock: CUWYAW_clean_sbu_0, # of connection points: 6
#     Node 6, Type 0, BuildingBlock: CUWYAW_clean_sbu_0, # of connection points: 6
#     Node 7, Type 0, BuildingBlock: CUWYAW_clean_sbu_0, # of connection points: 6
#     Node 8, Type 0, BuildingBlock: CUWYAW_clean_sbu_0, # of connection points: 6
#     Node 9, Type 0, BuildingBlock: CUWYAW_clean_sbu_0, # of connection points: 6
#     Node 10, Type 0, BuildingBlock: CUWYAW_clean_sbu_0, # of connection points: 6
#     Node 11, Type 0, BuildingBlock: CUWYAW_clean_sbu_0, # of connection points: 6
#     Node 12, Type 0, BuildingBlock: CUWYAW_clean_sbu_0, # of connection points: 6
#     Node 13, Type 0, BuildingBlock: CUWYAW_clean_sbu_0, # of connection points: 6
#     Node 14, Type 0, BuildingBlock: CUWYAW_clean_sbu_0, # of connection points: 6
#     Node 15, Type 0, BuildingBlock: CUWYAW_clean_sbu_0, # of connection points: 6
#     Edge 16, Type (0, 0), BuildingBlock: EZIPEK_clean_linker_0, # of connection points: 2
#     Edge 17, Type (0, 0), BuildingBlock: EZIPEK_clean_linker_0, # of connection points: 2
#     Edge 18, Type (0, 0), BuildingBlock: EZIPEK_clean_linker_0, # of connection points: 2
#     Edge 19, Type (0, 0), BuildingBlock: EZIPEK_clean_linker_0, # of connection points: 2
#     Edge 20, Type (0, 0), BuildingBlock: EZIPEK_clean_linker_0, # of connection points: 2
#     Edge 21, Type (0, 0), BuildingBlock: EZIPEK_clean_linker_0, # of connection points: 2
#     Edge 22, Type (0, 0), BuildingBlock: EZIPEK_clean_linker_0, # of connection points: 2
#     Edge 23, Type (0, 0), BuildingBlock: EZIPEK_clean_linker_0, # of connection points: 2
#     Edge 24, Type (0, 0), BuildingBlock: EZIPEK_clean_linker_0, # of connection points: 2
#     Edge 25, Type (0, 0), BuildingBlock: EZIPEK_clean_linker_0, # of connection points: 2
#     Edge 26, Type (0, 0), BuildingBlock: EZIPEK_clean_linker_0, # of connection points: 2
#     Edge 27, Type (0, 0), BuildingBlock: EZIPEK_clean_linker_0, # of connection points: 2
#     Edge 28, Type (0, 0), BuildingBlock: EZIPEK_clean_linker_0, # of connection points: 2
#     Edge 29, Type (0, 0), BuildingBlock: EZIPEK_clean_linker_0, # of connection points: 2
#     Edge 30, Type (0, 0), BuildingBlock: EZIPEK_clean_linker_0, # of connection points: 2
#     Edge 31, Type (0, 0), BuildingBlock: EZIPEK_clean_linker_0, # of connection points: 2
#     Edge 32, Type (0, 0), BuildingBlock: EZIPEK_clean_linker_0, # of connection points: 2
#     Edge 33, Type (0, 0), BuildingBlock: EZIPEK_clean_linker_0, # of connection points: 2
#     Edge 34, Type (0, 0), BuildingBlock: EZIPEK_clean_linker_0, # of connection points: 2
#     Edge 35, Type (0, 0), BuildingBlock: EZIPEK_clean_linker_0, # of connection points: 2
#     Edge 36, Type (0, 0), BuildingBlock: EZIPEK_clean_linker_0, # of connection points: 2
#     Edge 37, Type (0, 0), BuildingBlock: EZIPEK_clean_linker_0, # of connection points: 2
#     Edge 38, Type (0, 0), BuildingBlock: EZIPEK_clean_linker_0, # of connection points: 2
#     Edge 39, Type (0, 0), BuildingBlock: EZIPEK_clean_linker_0, # of connection points: 2
#     Edge 40, Type (0, 0), BuildingBlock: EZIPEK_clean_linker_0, # of connection points: 2
#     Edge 41, Type (0, 0), BuildingBlock: EZIPEK_clean_linker_0, # of connection points: 2
#     Edge 42, Type (0, 0), BuildingBlock: EZIPEK_clean_linker_0, # of connection points: 2
#     Edge 43, Type (0, 0), BuildingBlock: EZIPEK_clean_linker_0, # of connection points: 2
#     Edge 44, Type (0, 0), BuildingBlock: EZIPEK_clean_linker_0, # of connection points: 2
#     Edge 45, Type (0, 0), BuildingBlock: EZIPEK_clean_linker_0, # of connection points: 2
#     Edge 46, Type (0, 0), BuildingBlock: EZIPEK_clean_linker_0, # of connection points: 2
#     Edge 47, Type (0, 0), BuildingBlock: EZIPEK_clean_linker_0, # of connection points: 2
#     Edge 48, Type (0, 0), BuildingBlock: EZIPEK_clean_linker_0, # of connection points: 2
#     Edge 49, Type (0, 0), BuildingBlock: EZIPEK_clean_linker_0, # of connection points: 2
#     Edge 50, Type (0, 0), BuildingBlock: EZIPEK_clean_linker_0, # of connection points: 2
#     Edge 51, Type (0, 0), BuildingBlock: EZIPEK_clean_linker_0, # of connection points: 2
#     Edge 52, Type (0, 0), BuildingBlock: EZIPEK_clean_linker_0, # of connection points: 2
#     Edge 53, Type (0, 0), BuildingBlock: EZIPEK_clean_linker_0, # of connection points: 2
#     Edge 54, Type (0, 0), BuildingBlock: EZIPEK_clean_linker_0, # of connection points: 2
#     Edge 55, Type (0, 0), BuildingBlock: EZIPEK_clean_linker_0, # of connection points: 2
#     Edge 56, Type (0, 0), BuildingBlock: EZIPEK_clean_linker_0, # of connection points: 2
#     Edge 57, Type (0, 0), BuildingBlock: EZIPEK_clean_linker_0, # of connection points: 2
#     Edge 58, Type (0, 0), BuildingBlock: EZIPEK_clean_linker_0, # of connection points: 2
#     Edge 59, Type (0, 0), BuildingBlock: EZIPEK_clean_linker_0, # of connection points: 2
#     Edge 60, Type (0, 0), BuildingBlock: EZIPEK_clean_linker_0, # of connection points: 2
#     Edge 61, Type (0, 0), BuildingBlock: EZIPEK_clean_linker_0, # of connection points: 2
#     Edge 62, Type (0, 0), BuildingBlock: EZIPEK_clean_linker_0, # of connection points: 2
#     Edge 63, Type (0, 0), BuildingBlock: EZIPEK_clean_linker_0, # of connection points: 2
# Relax obj value: 0.061
# Max RMSD: 0.150
# Mean RMSD: 0.150
data_MOF--net-vbm--node1-CUWYAW_clean_sbu_0--edge1-EZIPEK_clean_linker_0
_symmetry_space_group_name_H-M    P1
_symmetry_Int_Tables_number       1
_symmetry_cell_setting            triclinic
loop_
_symmetry_equiv_pos_as_xyz
'x, y, z'
_cell_length_a     39.174607
_cell_length_b     21.678493
_cell_length_c     40.909401
_cell_angle_alpha  89.711231
_cell_angle_beta   90.035244
_cell_angle_gamma 89.942423
loop_
_atom_site_label
_atom_site_type_symbol
_atom_site_fract_x
_atom_site_fract_y
_atom_site_fract_z
_atom_type_partial_charge
C0 C 0.08479 0.30704 0.15179 0.0
Eu1 Eu 0.10596 0.19221 0.14958 0.0
C2 C 0.09689 0.3721 0.14989 0.0
C3 C 0.09274 0.41083 0.1771 0.0
C4 C 0.10103 0.47365 0.1752 0.0
C5 C 0.11348 0.49927 0.14598 0.0
C6 C 0.11827 0.46064 0.11887 0.0
C7 C 0.11007 0.39765 0.12078 0.0
C8 C 0.11605 0.12292 0.20577 0.0
C9 C 0.18698 0.19155 0.14327 0.0
C10 C 0.16311 0.95871 0.13985 0.0
Eu11 Eu 0.14059 0.07299 0.13837 0.0
C12 C 0.15296 0.89274 0.13871 0.0
C13 C 0.17261 0.85151 0.12012 0.0
C14 C 0.16567 0.78808 0.1206 0.0
C15 C 0.13897 0.76444 0.1398 0.0
C16 C 0.11887 0.80565 0.15803 0.0
C17 C 0.12578 0.86925 0.1575 0.0
C18 C 0.1297 0.13841 0.08153 0.0
C19 C 0.05725 0.08051 0.14153 0.0
O20 O 0.08518 0.27393 0.12516 0.0
O21 O 0.09324 0.27486 0.17763 0.0
O22 O 0.0885 0.15256 0.19805 0.0
O23 O 0.13742 0.13055 0.18281 0.0
O24 O 0.15883 0.22196 0.13712 0.0
O25 O 0.18696 0.1317 0.14935 0.0
O26 O 0.15496 0.99033 0.16579 0.0
O27 O 0.16053 0.99139 0.11308 0.0
O28 O 0.15723 0.10778 0.0885 0.0
O29 O 0.10874 0.13271 0.10501 0.0
O30 O 0.08479 0.04631 0.14661 0.0
O31 O 0.05916 0.14031 0.13687 0.0
H32 H 0.08237 0.39273 0.19973 0.0
H33 H 0.09711 0.50259 0.19638 0.0
H34 H 0.12787 0.47949 0.0961 0.0
H35 H 0.11347 0.36934 0.09929 0.0
H36 H 0.19385 0.86831 0.10565 0.0
H37 H 0.18148 0.75724 0.10635 0.0
H38 H 0.09812 0.78843 0.17298 0.0
H39 H 0.11025 0.89983 0.17217 0.0
C40 C 0.89459 0.75035 0.1484 0.0
Eu41 Eu 0.87448 0.86576 0.14463 0.0
C42 C 0.88246 0.68551 0.14479 0.0
C43 C 0.88249 0.6462 0.17228 0.0
C44 C 0.87388 0.58371 0.16939 0.0
C45 C 0.8652 0.55882 0.13889 0.0
C46 C 0.86454 0.59803 0.11139 0.0
C47 C 0.87311 0.66077 0.11428 0.0
C48 C 0.86611 0.93466 0.20088 0.0
C49 C 0.79408 0.86376 0.13916 0.0
C50 C 0.81647 0.09847 0.13919 0.0
Eu51 Eu 0.8385 0.98421 0.13449 0.0
C52 C 0.82639 0.16455 0.13572 0.0
C53 C 0.80682 0.20392 0.11567 0.0
C54 C 0.8133 0.26759 0.1146 0.0
C55 C 0.83933 0.29345 0.13381 0.0
C56 C 0.85933 0.25409 0.15344 0.0
C57 C 0.85298 0.19035 0.15439 0.0
C58 C 0.84694 0.92192 0.07704 0.0
C59 C 0.92249 0.9773 0.13416 0.0
O60 O 0.89803 0.78465 0.12218 0.0
O61 O 0.88287 0.7816 0.1732 0.0
O62 O 0.894 0.9071 0.19207 0.0
O63 O 0.8439 0.92594 0.1788 0.0
O64 O 0.82226 0.83608 0.13061 0.0
O65 O 0.79366 0.92261 0.14728 0.0
O66 O 0.8298 0.06698 0.16331 0.0
O67 O 0.81318 0.06533 0.11279 0.0
O68 O 0.82014 0.95355 0.08501 0.0
O69 O 0.86913 0.92566 0.09975 0.0
O70 O 0.89467 1.01165 0.13708 0.0
O71 O 0.92135 0.91699 0.13242 0.0
H72 H 0.88983 0.66363 0.19604 0.0
H73 H 0.87458 0.55441 0.19091 0.0
H74 H 0.85789 0.57982 0.08762 0.0
H75 H 0.87293 0.68953 0.09256 0.0
H76 H 0.78593 0.18557 0.10134 0.0
H77 H 0.79756 0.29693 0.09926 0.0
H78 H 0.87957 0.27291 0.16843 0.0
H79 H 0.86844 0.16157 0.17028 0.0
C80 C 0.09199 0.75662 0.36523 0.0
Eu81 Eu 0.11008 0.87231 0.37172 0.0
C82 C 0.10342 0.69203 0.37093 0.0
C83 C 0.09701 0.64792 0.34665 0.0
C84 C 0.10622 0.58603 0.35129 0.0
C85 C 0.12198 0.56668 0.3804 0.0
C86 C 0.12888 0.61078 0.40468 0.0
C87 C 0.1197 0.67302 0.39999 0.0
C88 C 0.11351 0.95202 0.31858 0.0
C89 C 0.19077 0.8764 0.38052 0.0
C90 C 0.16842 0.10639 0.37995 0.0
Eu91 Eu 0.14113 0.99645 0.38493 0.0
C92 C 0.16023 0.17278 0.38497 0.0
C93 C 0.18431 0.21162 0.3999 0.0
C94 C 0.1787 0.27554 0.4017 0.0
C95 C 0.149 0.30206 0.38831 0.0
C96 C 0.12452 0.2631 0.3741 0.0
C97 C 0.13001 0.19919 0.3725 0.0
C98 C 0.11905 0.94083 0.4414 0.0
C99 C 0.0592 0.97829 0.38683 0.0
O100 O 0.08378 0.79046 0.39051 0.0
O101 O 0.10809 0.78806 0.34269 0.0
O102 O 0.08817 0.91562 0.32471 0.0
O103 O 0.13609 0.94285 0.34 0.0
O104 O 0.16337 0.84236 0.37847 0.0
O105 O 0.18968 0.93753 0.38223 0.0
O106 O 0.15236 0.07846 0.35618 0.0
O107 O 0.17241 0.07091 0.4057 0.0
O108 O 0.11709 0.9992 0.43468 0.0
O109 O 0.13356 0.91332 0.41759 0.0
O110 O 0.08418 1.01613 0.37788 0.0
O111 O 0.06488 0.91958 0.39239 0.0
H112 H 0.08453 0.66132 0.32405 0.0
H113 H 0.10073 0.55298 0.33222 0.0
H114 H 0.14116 0.59691 0.42728 0.0
H115 H 0.12512 0.70604 0.41907 0.0
H116 H 0.20791 0.19268 0.40948 0.0
H117 H 0.1979 0.30456 0.41286 0.0
H118 H 0.10139 0.28237 0.3637 0.0
H119 H 0.11093 0.17068 0.36079 0.0
C120 C 0.89646 0.29242 0.36322 0.0
Eu121 Eu 0.8758 0.1775 0.36819 0.0
C122 C 0.88472 0.35756 0.36779 0.0
C123 C 0.86119 0.38544 0.34616 0.0
C124 C 0.85326 0.44851 0.34859 0.0
C125 C 0.8686 0.48536 0.37266 0.0
C126 C 0.89142 0.45737 0.39477 0.0
C127 C 0.89948 0.39436 0.39228 0.0
C128 C 0.86974 0.10104 0.31483 0.0
C129 C 0.79471 0.18404 0.37245 0.0
C130 C 0.81552 0.94605 0.374 0.0
Eu131 Eu 0.8369 0.06039 0.38 0.0
C132 C 0.82693 0.88014 0.37516 0.0
C133 C 0.82679 0.84616 0.40463 0.0
C134 C 0.83432 0.7827 0.40491 0.0
C135 C 0.84185 0.7515 0.37572 0.0
C136 C 0.84239 0.78539 0.34634 0.0
C137 C 0.83501 0.84879 0.34605 0.0
C138 C 0.8434 0.12649 0.43618 0.0
C139 C 0.92115 0.06461 0.38825 0.0
O140 O 0.90154 0.25814 0.38923 0.0
O141 O 0.88325 0.26103 0.33912 0.0
O142 O 0.89696 0.13229 0.32194 0.0
O143 O 0.84667 0.11397 0.33534 0.0
O144 O 0.82351 0.21077 0.3801 0.0
O145 O 0.79297 0.12419 0.36645 0.0
O146 O 0.82618 0.98012 0.3496 0.0
O147 O 0.81377 0.9772 0.40126 0.0
O148 O 0.81651 0.09504 0.4279 0.0
O149 O 0.86636 0.12133 0.41421 0.0
O150 O 0.89285 0.03193 0.38463 0.0
O151 O 0.92117 0.12489 0.38448 0.0
H152 H 0.84946 0.35897 0.32681 0.0
H153 H 0.83559 0.46889 0.33124 0.0
H154 H 0.90362 0.48469 0.41354 0.0
H155 H 0.91794 0.3747 0.40908 0.0
H156 H 0.82025 0.86832 0.42745 0.0
H157 H 0.83375 0.75766 0.42788 0.0
H158 H 0.84811 0.7625 0.32351 0.0
H159 H 0.83493 0.87303 0.32282 0.0
C160 C 0.81189 0.09493 0.87185 0.0
Eu161 Eu 0.83367 0.98097 0.87919 0.0
C162 C 0.82312 0.16085 0.8734 0.0
C163 C 0.82856 0.19113 0.90337 0.0
C164 C 0.83637 0.25449 0.90418 0.0
C165 C 0.83873 0.28917 0.87509 0.0
C166 C 0.8337 0.25888 0.84518 0.0
C167 C 0.82597 0.19566 0.84435 0.0
C168 C 0.84424 0.91723 0.93593 0.0
C169 C 0.91814 0.97996 0.88138 0.0
C170 C 0.89509 0.74791 0.86537 0.0
Eu171 Eu 0.87356 0.86255 0.8678 0.0
C172 C 0.88337 0.68287 0.87033 0.0
C173 C 0.8556 0.65831 0.85272 0.0
C174 C 0.84759 0.59518 0.85477 0.0
C175 C 0.86696 0.55506 0.87459 0.0
C176 C 0.89397 0.57991 0.89298 0.0
C177 C 0.90215 0.64293 0.89076 0.0
C178 C 0.86489 0.93656 0.81332 0.0
C179 C 0.79245 0.85538 0.87514 0.0
O180 O 0.82389 0.06133 0.84799 0.0
O181 O 0.80888 0.06339 0.89907 0.0
O182 O 0.81693 0.94876 0.92881 0.0
O183 O 0.86579 0.922 0.91261 0.0
O184 O 0.88909 1.01107 0.88235 0.0
O185 O 0.91922 0.91951 0.8783 0.0
O186 O 0.89905 0.78309 0.89106 0.0
O187 O 0.88254 0.77825 0.8404 0.0
O188 O 0.89131 0.90197 0.81884 0.0
O189 O 0.84303 0.92536 0.83545 0.0
O190 O 0.82178 0.82907 0.88135 0.0
O191 O 0.78981 0.91514 0.86862 0.0
H192 H 0.82634 0.16617 0.92626 0.0
H193 H 0.8402 0.27668 0.92755 0.0
H194 H 0.83538 0.28444 0.82242 0.0
H195 H 0.8216 0.17414 0.82087 0.0
H196 H 0.84052 0.68752 0.83672 0.0
H197 H 0.8266 0.57736 0.8404 0.0
H198 H 0.90927 0.55013 0.90849 0.0
H199 H 0.92378 0.6602 0.90443 0.0
C200 C 0.15935 0.96022 0.88627 0.0
Eu201 Eu 0.13679 0.07443 0.88558 0.0
C202 C 0.14949 0.8942 0.88415 0.0
C203 C 0.16634 0.8512 0.90431 0.0
C204 C 0.15905 0.78808 0.9022 0.0
C205 C 0.13477 0.76639 0.87977 0.0
C206 C 0.11765 0.80933 0.85965 0.0
C207 C 0.12492 0.87275 0.86182 0.0
C208 C 0.12894 0.14351 0.94083 0.0
C209 C 0.05321 0.08511 0.88511 0.0
C210 C 0.08111 0.30853 0.86362 0.0
Eu211 Eu 0.10178 0.19396 0.87115 0.0
C212 C 0.09226 0.37399 0.86697 0.0
C213 C 0.09264 0.41235 0.83912 0.0
C214 C 0.10055 0.47523 0.84162 0.0
C215 C 0.10812 0.50143 0.87207 0.0
C216 C 0.10826 0.46321 0.89997 0.0
C217 C 0.10041 0.4001 0.89748 0.0
C218 C 0.10962 0.11522 0.81807 0.0
C219 C 0.18192 0.19608 0.87964 0.0
O220 O 0.15733 0.9943 0.85987 0.0
O221 O 0.1504 0.99027 0.91247 0.0
O222 O 0.15572 0.11115 0.93364 0.0
O223 O 0.10693 0.13854 0.91798 0.0
O224 O 0.08017 0.05028 0.87825 0.0
O225 O 0.05635 0.14458 0.88984 0.0
O226 O 0.07579 0.27584 0.89009 0.0
O227 O 0.09518 0.27607 0.84045 0.0
O228 O 0.08326 0.14987 0.82332 0.0
O229 O 0.13127 0.12681 0.84014 0.0
O230 O 0.15347 0.2253 0.8856 0.0
O231 O 0.18256 0.13593 0.87398 0.0
H232 H 0.18553 0.86648 0.92155 0.0
H233 H 0.17256 0.75597 0.91794 0.0
H234 H 0.09882 0.79367 0.84217 0.0
H235 H 0.11158 0.90482 0.84592 0.0
H236 H 0.08621 0.39382 0.81535 0.0
H237 H 0.10025 0.50375 0.8198 0.0
H238 H 0.11406 0.48243 0.92372 0.0
H239 H 0.10026 0.37207 0.91946 0.0
C240 C 0.81306 0.94769 0.63682 0.0
Eu241 Eu 0.83641 0.06158 0.63434 0.0
C242 C 0.82374 0.88135 0.63637 0.0
C243 C 0.8168 0.84464 0.60884 0.0
C244 C 0.82389 0.78105 0.60906 0.0
C245 C 0.83788 0.75238 0.63692 0.0
C246 C 0.84507 0.78891 0.66439 0.0
C247 C 0.83806 0.85253 0.66416 0.0
C248 C 0.84551 0.12661 0.5773 0.0
C249 C 0.92024 0.06312 0.63626 0.0
C250 C 0.89504 0.29367 0.64683 0.0
Eu251 Eu 0.87415 0.17854 0.64441 0.0
C252 C 0.88239 0.35864 0.6435 0.0
C253 C 0.86436 0.3876 0.66903 0.0
C254 C 0.85588 0.45054 0.66721 0.0
C255 C 0.86515 0.48625 0.63984 0.0
C256 C 0.88237 0.4572 0.61397 0.0
C257 C 0.89102 0.39431 0.61584 0.0
C258 C 0.86406 0.11006 0.70098 0.0
C259 C 0.79347 0.18451 0.63957 0.0
O260 O 0.8207 0.98049 0.66248 0.0
O261 O 0.81557 0.97984 0.60984 0.0
O262 O 0.8179 0.09731 0.58549 0.0
O263 O 0.86777 0.11967 0.59972 0.0
O264 O 0.89191 0.03078 0.64032 0.0
O265 O 0.92011 0.12335 0.63285 0.0
O266 O 0.89703 0.25964 0.62056 0.0
O267 O 0.88508 0.26182 0.67227 0.0
O268 O 0.89215 0.13753 0.69258 0.0
O269 O 0.84238 0.11954 0.67846 0.0
O270 O 0.8221 0.21096 0.63115 0.0
O271 O 0.79204 0.12501 0.64679 0.0
H272 H 0.80529 0.86493 0.58723 0.0
H273 H 0.81807 0.75399 0.58758 0.0
H274 H 0.8558 0.76796 0.68619 0.0
H275 H 0.84336 0.87887 0.68601 0.0
H276 H 0.85746 0.36207 0.69086 0.0
H277 H 0.84262 0.47174 0.68749 0.0
H278 H 0.88984 0.48363 0.59261 0.0
H279 H 0.90521 0.3739 0.59591 0.0
C280 C 0.16868 0.10262 0.64671 0.0
Eu281 Eu 0.14061 0.99363 0.63965 0.0
C282 C 0.16135 0.16994 0.64344 0.0
C283 C 0.15641 0.19912 0.61295 0.0
C284 C 0.15007 0.263 0.61111 0.0
C285 C 0.14862 0.29884 0.63967 0.0
C286 C 0.15375 0.26979 0.67001 0.0
C287 C 0.16016 0.20627 0.67185 0.0
C288 C 0.1184 0.94262 0.58212 0.0
C289 C 0.05876 0.98056 0.63858 0.0
C290 C 0.08973 0.75431 0.65416 0.0
Eu291 Eu 0.10815 0.87036 0.65011 0.0
C292 C 0.10234 0.69026 0.64819 0.0
C293 C 0.12745 0.66302 0.66835 0.0
C294 C 0.13607 0.60046 0.66506 0.0
C295 C 0.11988 0.56361 0.64153 0.0
C296 C 0.0956 0.59106 0.62071 0.0
C297 C 0.08683 0.65356 0.6241 0.0
C298 C 0.11289 0.94319 0.70566 0.0
C299 C 0.18924 0.87275 0.64194 0.0
O300 O 0.15197 0.07346 0.66968 0.0
O301 O 0.1725 0.06897 0.62041 0.0
O302 O 0.11642 1.00059 0.5897 0.0
O303 O 0.13254 0.91353 0.60559 0.0
O304 O 0.08452 1.01612 0.64753 0.0
O305 O 0.06306 0.92202 0.63171 0.0
O306 O 0.08272 0.78957 0.6289 0.0
O307 O 0.10365 0.78511 0.67812 0.0
O308 O 0.08603 0.91279 0.6966 0.0
O309 O 0.13531 0.93528 0.68391 0.0
O310 O 0.16151 0.83951 0.64412 0.0
O311 O 0.18876 0.93392 0.64078 0.0
H312 H 0.15736 0.17272 0.59057 0.0
H313 H 0.14613 0.28445 0.58744 0.0
H314 H 0.15275 0.29639 0.69234 0.0
H315 H 0.16418 0.18539 0.69568 0.0
H316 H 0.13987 0.68951 0.68731 0.0
H317 H 0.15483 0.58039 0.68142 0.0
H318 H 0.08273 0.56361 0.60241 0.0
H319 H 0.06718 0.67279 0.60843 0.0
C320 C 0.58932 0.8058 0.15331 0.0
Eu321 Eu 0.60746 0.68961 0.1497 0.0
C322 C 0.60179 0.86975 0.14682 0.0
C323 C 0.62731 0.8968 0.16638 0.0
C324 C 0.63571 0.95938 0.16278 0.0
C325 C 0.6189 0.99642 0.13952 0.0
C326 C 0.59428 0.96912 0.1192 0.0
C327 C 0.58572 0.90659 0.12291 0.0
C328 C 0.61188 0.61681 0.20577 0.0
C329 C 0.68834 0.68554 0.14299 0.0
C330 C 0.66672 0.45638 0.14772 0.0
Eu331 Eu 0.63906 0.56575 0.14034 0.0
C332 C 0.65962 0.38938 0.14371 0.0
C333 C 0.65265 0.36266 0.11311 0.0
C334 C 0.6464 0.29894 0.1106 0.0
C335 C 0.647 0.26095 0.13859 0.0
C336 C 0.65409 0.2876 0.16902 0.0
C337 C 0.66043 0.35096 0.17152 0.0
C338 C 0.61805 0.61726 0.08217 0.0
C339 C 0.55725 0.58189 0.13841 0.0
O340 O 0.5819 0.77059 0.12834 0.0
O341 O 0.60362 0.77497 0.17722 0.0
O342 O 0.58535 0.64795 0.19662 0.0
O343 O 0.63427 0.62402 0.18397 0.0
O344 O 0.66082 0.7196 0.14307 0.0
O345 O 0.68747 0.62439 0.14324 0.0
O346 O 0.64915 0.48457 0.17032 0.0
O347 O 0.67146 0.491 0.12176 0.0
O348 O 0.61572 0.55945 0.0901 0.0
O349 O 0.63218 0.64595 0.10561 0.0
O350 O 0.58249 0.54618 0.1489 0.0
O351 O 0.5625 0.63956 0.13015 0.0
H352 H 0.64018 0.87015 0.18516 0.0
H353 H 0.65476 0.97937 0.17873 0.0
H354 H 0.58096 0.99675 0.10111 0.0
H355 H 0.56577 0.88746 0.10769 0.0
H356 H 0.65191 0.39087 0.0912 0.0
H357 H 0.64087 0.2793 0.08689 0.0
H358 H 0.65462 0.25926 0.1909 0.0
H359 H 0.66593 0.3701 0.19537 0.0
C360 C 0.39261 0.25919 0.15111 0.0
Eu361 Eu 0.37223 0.37448 0.14666 0.0
C362 C 0.38233 0.19425 0.1451 0.0
C363 C 0.40781 0.14884 0.14274 0.0
C364 C 0.39921 0.08629 0.13996 0.0
C365 C 0.36488 0.06765 0.13946 0.0
C366 C 0.33925 0.11317 0.14109 0.0
C367 C 0.34788 0.17595 0.14394 0.0
C368 C 0.36395 0.4437 0.20281 0.0
C369 C 0.29217 0.37225 0.13971 0.0
C370 C 0.31476 0.60739 0.14176 0.0
Eu371 Eu 0.33647 0.49296 0.13652 0.0
C372 C 0.32455 0.67347 0.13782 0.0
C373 C 0.30228 0.71416 0.12147 0.0
C374 C 0.30886 0.77782 0.12048 0.0
C375 C 0.33784 0.80229 0.13596 0.0
C376 C 0.36053 0.76165 0.15179 0.0
C377 C 0.354 0.6979 0.15271 0.0
C378 C 0.34624 0.43199 0.0787 0.0
C379 C 0.42052 0.48598 0.13623 0.0
O380 O 0.39901 0.29464 0.12588 0.0
O381 O 0.37666 0.28861 0.17434 0.0
O382 O 0.39178 0.41605 0.19397 0.0
O383 O 0.3417 0.43476 0.18081 0.0
O384 O 0.3205 0.34597 0.13029 0.0
O385 O 0.2916 0.43073 0.14864 0.0
O386 O 0.32912 0.57609 0.1654 0.0
O387 O 0.31032 0.57404 0.11558 0.0
O388 O 0.31913 0.46304 0.0865 0.0
O389 O 0.36775 0.43519 0.10199 0.0
O390 O 0.39271 0.52046 0.13877 0.0
O391 O 0.41933 0.42558 0.13505 0.0
H392 H 0.43451 0.16167 0.14375 0.0
H393 H 0.4194 0.05221 0.13873 0.0
H394 H 0.31259 0.09996 0.14069 0.0
H395 H 0.32772 0.20999 0.14582 0.0
H396 H 0.27923 0.69685 0.11012 0.0
H397 H 0.29096 0.80821 0.1082 0.0
H398 H 0.38303 0.77944 0.16391 0.0
H399 H 0.37162 0.66799 0.16568 0.0
C400 C 0.58825 0.24547 0.36623 0.0
Eu401 Eu 0.60686 0.36129 0.36997 0.0
C402 C 0.60086 0.18139 0.37231 0.0
C403 C 0.62537 0.15393 0.35175 0.0
C404 C 0.63393 0.09135 0.35524 0.0
C405 C 0.61829 0.05473 0.37937 0.0
C406 C 0.59468 0.08242 0.40062 0.0
C407 C 0.58594 0.14494 0.39702 0.0
C408 C 0.6086 0.44029 0.31653 0.0
C409 C 0.6882 0.36353 0.37546 0.0
C410 C 0.66767 0.59442 0.37329 0.0
Eu411 Eu 0.63996 0.48541 0.38112 0.0
C412 C 0.65977 0.66144 0.37662 0.0
C413 C 0.65641 0.69018 0.40728 0.0
C414 C 0.64988 0.75389 0.40934 0.0
C415 C 0.64669 0.79004 0.38085 0.0
C416 C 0.65012 0.76144 0.35033 0.0
C417 C 0.65668 0.69804 0.34825 0.0
C418 C 0.61978 0.4312 0.43848 0.0
C419 C 0.5579 0.46951 0.38625 0.0
O420 O 0.58152 0.28043 0.39147 0.0
O421 O 0.60198 0.27648 0.34208 0.0
O422 O 0.5834 0.40401 0.32344 0.0
O423 O 0.63194 0.43065 0.33713 0.0
O424 O 0.66041 0.33042 0.37352 0.0
O425 O 0.6878 0.42465 0.37783 0.0
O426 O 0.65125 0.56496 0.35029 0.0
O427 O 0.67184 0.5607 0.3997 0.0
O428 O 0.61845 0.48971 0.43185 0.0
O429 O 0.63291 0.40299 0.41421 0.0
O430 O 0.5829 0.50637 0.37624 0.0
O431 O 0.56324 0.41088 0.39235 0.0
H432 H 0.63732 0.18025 0.33233 0.0
H433 H 0.65219 0.07107 0.33857 0.0
H434 H 0.58226 0.05512 0.4194 0.0
H435 H 0.56678 0.16437 0.41304 0.0
H436 H 0.65884 0.66359 0.42964 0.0
H437 H 0.64726 0.77499 0.43315 0.0
H438 H 0.64774 0.78833 0.32804 0.0
H439 H 0.65945 0.67755 0.32429 0.0
C440 C 0.39907 0.8038 0.36453 0.0
Eu441 Eu 0.378 0.68902 0.36837 0.0
C442 C 0.38712 0.86886 0.36929 0.0
C443 C 0.36343 0.89666 0.34778 0.0
C444 C 0.3553 0.95967 0.35031 0.0
C445 C 0.37057 0.99661 0.3744 0.0
C446 C 0.39353 0.96866 0.39642 0.0
C447 C 0.4018 0.90571 0.3938 0.0
C448 C 0.3694 0.61356 0.31519 0.0
C449 C 0.29656 0.6966 0.37469 0.0
C450 C 0.31648 0.45766 0.37523 0.0
Eu451 Eu 0.33787 0.57193 0.3816 0.0
C452 C 0.32784 0.39162 0.37668 0.0
C453 C 0.32676 0.35744 0.40607 0.0
C454 C 0.33435 0.29395 0.40649 0.0
C455 C 0.34288 0.26285 0.3775 0.0
C456 C 0.34432 0.29696 0.34822 0.0
C457 C 0.33688 0.36037 0.34779 0.0
C458 C 0.34719 0.63896 0.43698 0.0
C459 C 0.42241 0.57224 0.38518 0.0
O460 O 0.40378 0.76881 0.39038 0.0
O461 O 0.38627 0.77303 0.33999 0.0
O462 O 0.3964 0.6466 0.32057 0.0
O463 O 0.34726 0.62584 0.33682 0.0
O464 O 0.32591 0.72311 0.3805 0.0
O465 O 0.29394 0.63654 0.36957 0.0
O466 O 0.32786 0.49161 0.35107 0.0
O467 O 0.3139 0.48899 0.40241 0.0
O468 O 0.31985 0.60744 0.43013 0.0
O469 O 0.3693 0.63252 0.41428 0.0
O470 O 0.39316 0.54207 0.38719 0.0
O471 O 0.42372 0.63206 0.37946 0.0
H472 H 0.35169 0.87017 0.32844 0.0
H473 H 0.33753 0.97992 0.33302 0.0
H474 H 0.40567 0.99599 0.41522 0.0
H475 H 0.42037 0.88614 0.41054 0.0
H476 H 0.31947 0.37948 0.42872 0.0
H477 H 0.33308 0.26881 0.4294 0.0
H478 H 0.35081 0.27423 0.32553 0.0
H479 H 0.33757 0.3847 0.32461 0.0
C480 C 0.30892 0.6117 0.86231 0.0
Eu481 Eu 0.33236 0.50287 0.87851 0.0
C482 C 0.31422 0.67832 0.86796 0.0
C483 C 0.32684 0.70117 0.89772 0.0
C484 C 0.33289 0.76463 0.90148 0.0
C485 C 0.3266 0.80586 0.8755 0.0
C486 C 0.31377 0.78292 0.84595 0.0
C487 C 0.30759 0.71978 0.84225 0.0
C488 C 0.34799 0.45755 0.93963 0.0
C489 C 0.4156 0.48705 0.88251 0.0
C490 C 0.38948 0.25813 0.87148 0.0
Eu491 Eu 0.36883 0.37288 0.87063 0.0
C492 C 0.37634 0.1944 0.87595 0.0
C493 C 0.34881 0.17181 0.85736 0.0
C494 C 0.33946 0.10946 0.85928 0.0
C495 C 0.35725 0.06863 0.87994 0.0
C496 C 0.38383 0.09165 0.89945 0.0
C497 C 0.39335 0.15386 0.89737 0.0
C498 C 0.36216 0.44644 0.81523 0.0
C499 C 0.28723 0.37714 0.87648 0.0
O500 O 0.33318 0.58323 0.84637 0.0
O501 O 0.29609 0.5782 0.88612 0.0
O502 O 0.33407 0.51096 0.934 0.0
O503 O 0.35368 0.43205 0.91229 0.0
O504 O 0.38953 0.52229 0.87314 0.0
O505 O 0.41193 0.42832 0.8899 0.0
O506 O 0.39063 0.29393 0.89715 0.0
O507 O 0.38027 0.28774 0.84495 0.0
O508 O 0.38755 0.40946 0.82114 0.0
O509 O 0.34068 0.4389 0.838 0.0
O510 O 0.31533 0.3448 0.87969 0.0
O511 O 0.28675 0.43804 0.87231 0.0
H512 H 0.33242 0.66999 0.91779 0.0
H513 H 0.34301 0.78147 0.9244 0.0
H514 H 0.30893 0.81389 0.82559 0.0
H515 H 0.29804 0.7031 0.81905 0.0
H516 H 0.33509 0.20188 0.8407 0.0
H517 H 0.31886 0.09268 0.84405 0.0
H518 H 0.39789 0.06097 0.91555 0.0
H519 H 0.41467 0.16996 0.91187 0.0
C520 C 0.66341 0.44483 0.88552 0.0
Eu521 Eu 0.63612 0.55557 0.88669 0.0
C522 C 0.65332 0.37831 0.88412 0.0
C523 C 0.64498 0.34501 0.91272 0.0
C524 C 0.63761 0.28163 0.91141 0.0
C525 C 0.63857 0.24985 0.88156 0.0
C526 C 0.64678 0.28287 0.85298 0.0
C527 C 0.65415 0.34623 0.85425 0.0
C528 C 0.61798 0.61715 0.94199 0.0
C529 C 0.555 0.5727 0.88412 0.0
C530 C 0.58408 0.79155 0.86484 0.0
Eu531 Eu 0.60938 0.6799 0.87103 0.0
C532 C 0.59448 0.85715 0.86979 0.0
C533 C 0.62279 0.88283 0.85338 0.0
C534 C 0.63044 0.94591 0.85615 0.0
C535 C 0.61012 0.98482 0.8755 0.0
C536 C 0.58235 0.95901 0.89249 0.0
C537 C 0.57455 0.896 0.88956 0.0
C538 C 0.62395 0.60498 0.81777 0.0
C539 C 0.68727 0.67471 0.88029 0.0
O540 O 0.65828 0.4787 0.85941 0.0
O541 O 0.65722 0.47529 0.91238 0.0
O542 O 0.61245 0.55923 0.93637 0.0
O543 O 0.63333 0.6413 0.9175 0.0
O544 O 0.5803 0.53254 0.88187 0.0
O545 O 0.56023 0.63263 0.88353 0.0
O546 O 0.57929 0.75696 0.89074 0.0
O547 O 0.59892 0.76135 0.84122 0.0
O548 O 0.63118 0.66322 0.8193 0.0
O549 O 0.60885 0.59034 0.84366 0.0
O550 O 0.6606 0.70885 0.88595 0.0
O551 O 0.68439 0.61422 0.87588 0.0
H552 H 0.64451 0.36772 0.93623 0.0
H553 H 0.6314 0.25719 0.93379 0.0
H554 H 0.64777 0.25941 0.82969 0.0
H555 H 0.66091 0.36998 0.83181 0.0
H556 H 0.63877 0.85447 0.83793 0.0
H557 H 0.652 0.96459 0.84284 0.0
H558 H 0.56631 0.98795 0.90759 0.0
H559 H 0.55252 0.8778 0.90235 0.0
C560 C 0.31968 0.46119 0.63195 0.0
Eu561 Eu 0.3421 0.57534 0.6324 0.0
C562 C 0.32983 0.39514 0.63214 0.0
C563 C 0.31381 0.35455 0.61028 0.0
C564 C 0.32054 0.29107 0.61147 0.0
C565 C 0.34333 0.26672 0.63471 0.0
C566 C 0.35982 0.30728 0.65631 0.0
C567 C 0.35316 0.37095 0.65504 0.0
C568 C 0.35004 0.64612 0.57742 0.0
C569 C 0.42597 0.58787 0.63383 0.0
C570 C 0.39399 0.80918 0.65672 0.0
Eu571 Eu 0.37539 0.69427 0.64764 0.0
C572 C 0.38297 0.87431 0.65181 0.0
C573 C 0.37952 0.91272 0.67922 0.0
C574 C 0.37181 0.97549 0.67552 0.0
C575 C 0.36747 1.0014 0.64429 0.0
C576 C 0.37025 0.96304 0.61679 0.0
C577 C 0.37796 0.90005 0.62048 0.0
C578 C 0.36679 0.61534 0.70061 0.0
C579 C 0.29613 0.69524 0.63791 0.0
O580 O 0.32457 0.49322 0.65853 0.0
O581 O 0.32548 0.4934 0.60549 0.0
O582 O 0.32331 0.61327 0.58432 0.0
O583 O 0.37185 0.64068 0.6004 0.0
O584 O 0.39908 0.55124 0.638 0.0
O585 O 0.42268 0.64791 0.63167 0.0
O586 O 0.40285 0.77669 0.63123 0.0
O587 O 0.37723 0.77653 0.67826 0.0
O588 O 0.39332 0.64935 0.69532 0.0
O589 O 0.34528 0.62653 0.67833 0.0
O590 O 0.3243 0.72423 0.63068 0.0
O591 O 0.29608 0.63546 0.64464 0.0
H592 H 0.29551 0.37189 0.59261 0.0
H593 H 0.30756 0.26074 0.59458 0.0
H594 H 0.37752 0.28949 0.6744 0.0
H595 H 0.36583 0.401 0.67229 0.0
H596 H 0.38346 0.89435 0.70362 0.0
H597 H 0.36979 1.00417 0.69704 0.0
H598 H 0.36694 0.98211 0.59247 0.0
H599 H 0.38049 0.87186 0.59884 0.0
C600 C 0.67457 0.60347 0.63915 0.0
Eu601 Eu 0.64569 0.49481 0.63344 0.0
C602 C 0.6661 0.67044 0.63519 0.0
C603 C 0.69102 0.71193 0.62369 0.0
C604 C 0.68466 0.77586 0.62272 0.0
C605 C 0.65319 0.79998 0.63329 0.0
C606 C 0.62797 0.75842 0.64412 0.0
C607 C 0.63432 0.6945 0.64506 0.0
C608 C 0.62185 0.43889 0.57797 0.0
C609 C 0.56308 0.48844 0.63293 0.0
C610 C 0.58999 0.25539 0.65015 0.0
Eu611 Eu 0.60937 0.37129 0.64696 0.0
C612 C 0.60217 0.19053 0.64602 0.0
C613 C 0.5903 0.14492 0.66777 0.0
C614 C 0.60032 0.08304 0.66452 0.0
C615 C 0.62247 0.06492 0.63934 0.0
C616 C 0.63476 0.1105 0.61765 0.0
C617 C 0.62476 0.17275 0.62097 0.0
C618 C 0.61235 0.45074 0.69942 0.0
C619 C 0.69137 0.37102 0.64111 0.0
O620 O 0.65937 0.57409 0.66312 0.0
O621 O 0.67737 0.56944 0.61286 0.0
O622 O 0.62177 0.49789 0.5834 0.0
O623 O 0.63526 0.41148 0.60241 0.0
O624 O 0.59062 0.52239 0.63712 0.0
O625 O 0.56453 0.42773 0.63052 0.0
O626 O 0.58603 0.29027 0.62411 0.0
O627 O 0.60214 0.28609 0.67499 0.0
O628 O 0.58763 0.41241 0.69382 0.0
O629 O 0.63543 0.44121 0.67834 0.0
O630 O 0.6632 0.34036 0.64681 0.0
O631 O 0.69215 0.43126 0.63516 0.0
H632 H 0.71574 0.69496 0.61601 0.0
H633 H 0.70453 0.80668 0.61417 0.0
H634 H 0.60347 0.7756 0.65233 0.0
H635 H 0.61454 0.664 0.65408 0.0
H636 H 0.57295 0.15716 0.68732 0.0
H637 H 0.59053 0.04904 0.68159 0.0
H638 H 0.65199 0.09784 0.5981 0.0
H639 H 0.63456 0.2068 0.60394 0.0
C640 C 0.23487 0.24287 0.11524 0.0
C641 C 0.21813 0.229 0.14488 0.0
C642 C 0.24859 0.31323 0.17198 0.0
C643 C 0.26205 0.33163 0.14122 0.0
N644 N 0.26274 0.32132 0.08263 0.0
N645 N 0.20596 0.25337 0.20108 0.0
C646 C 0.25359 0.29848 0.11255 0.0
C647 C 0.22415 0.26486 0.17321 0.0
N648 N 0.23309 0.2024 0.08984 0.0
N649 N 0.26028 0.33966 0.20009 0.0
H650 H 0.18951 0.21577 0.20342 0.0
H651 H 0.20597 0.28266 0.22118 0.0
H652 H 0.27781 0.37573 0.20028 0.0
H653 H 0.25436 0.32305 0.22334 0.0
H654 H 0.24719 0.20737 0.06841 0.0
H655 H 0.21999 0.16064 0.0917 0.0
H656 H 0.25485 0.30198 0.06063 0.0
H657 H 0.27529 0.36347 0.07992 0.0
C658 C 0.75951 0.78873 0.17086 0.0
C659 C 0.76401 0.82378 0.14179 0.0
C660 C 0.7272 0.75273 0.11186 0.0
C661 C 0.72033 0.72077 0.14143 0.0
N662 N 0.72706 0.71028 0.19965 0.0
N663 N 0.74949 0.84512 0.0858 0.0
C664 C 0.73594 0.73899 0.17109 0.0
C665 C 0.74704 0.80741 0.11258 0.0
N666 N 0.77853 0.80209 0.19796 0.0
N667 N 0.71459 0.73028 0.08314 0.0
H668 H 0.76327 0.88625 0.08615 0.0
H669 H 0.7357 0.83885 0.06433 0.0
H670 H 0.7 0.69015 0.08222 0.0
H671 H 0.72081 0.74788 0.0602 0.0
H672 H 0.77976 0.77375 0.21855 0.0
H673 H 0.79445 0.84056 0.1993 0.0
H674 H 0.73399 0.72617 0.22269 0.0
H675 H 0.71133 0.67155 0.20025 0.0
C676 C 0.26623 0.78613 0.34969 0.0
C677 C 0.267 0.73882 0.37396 0.0
C678 C 0.22622 0.79675 0.40701 0.0
C679 C 0.22283 0.84079 0.38143 0.0
N680 N 0.2371 0.87577 0.32724 0.0
N681 N 0.24456 0.69434 0.42347 0.0
C682 C 0.24246 0.83546 0.35254 0.0
C683 C 0.24598 0.7427 0.40196 0.0
N684 N 0.28859 0.78405 0.32405 0.0
N685 N 0.21046 0.80729 0.43626 0.0
H686 H 0.2584 0.65381 0.42012 0.0
H687 H 0.22746 0.69185 0.44289 0.0
H688 H 0.19595 0.84682 0.44047 0.0
H689 H 0.21424 0.78032 0.45708 0.0
H690 H 0.29245 0.82059 0.30786 0.0
H691 H 0.30454 0.74638 0.31976 0.0
H692 H 0.24721 0.86993 0.30393 0.0
H693 H 0.22111 0.91408 0.32921 0.0
C694 C 0.76473 0.27303 0.34636 0.0
C695 C 0.76487 0.22555 0.37055 0.0
C696 C 0.72249 0.28233 0.40223 0.0
C697 C 0.71988 0.32673 0.37671 0.0
N698 N 0.73565 0.36189 0.32293 0.0
N699 N 0.74025 0.17958 0.41867 0.0
C700 C 0.74045 0.32177 0.34841 0.0
C701 C 0.74256 0.22854 0.39762 0.0
N702 N 0.78816 0.27173 0.32161 0.0
N703 N 0.70583 0.29233 0.43108 0.0
H704 H 0.75433 0.13923 0.41558 0.0
H705 H 0.7222 0.17648 0.43728 0.0
H706 H 0.69115 0.33171 0.43512 0.0
H707 H 0.70911 0.26503 0.45186 0.0
H708 H 0.79227 0.3084 0.30557 0.0
H709 H 0.80469 0.23462 0.31798 0.0
H710 H 0.74668 0.35629 0.29999 0.0
H711 H 0.71915 0.39959 0.32429 0.0
C712 C 0.73224 0.72886 0.84804 0.0
C713 C 0.71982 0.70876 0.87884 0.0
C714 C 0.74918 0.79465 0.9056 0.0
C715 C 0.763 0.813 0.87507 0.0
N716 N 0.77357 0.79027 0.81829 0.0
N717 N 0.72169 0.71394 0.9374 0.0
C718 C 0.75626 0.7779 0.84657 0.0
C719 C 0.73021 0.73897 0.9078 0.0
N720 N 0.71982 0.70313 0.82007 0.0
N721 N 0.75373 0.83126 0.93233 0.0
H722 H 0.7081 0.67273 0.93932 0.0
H723 H 0.73069 0.73034 0.95967 0.0
H724 H 0.76673 0.87311 0.93108 0.0
H725 H 0.74209 0.82334 0.95483 0.0
H726 H 0.72446 0.721 0.79681 0.0
H727 H 0.70322 0.66568 0.82036 0.0
H728 H 0.77284 0.7617 0.79791 0.0
H729 H 0.79049 0.82708 0.81597 0.0
C730 C 0.24251 0.31725 0.84696 0.0
C731 C 0.25585 0.3397 0.87683 0.0
C732 C 0.22819 0.25494 0.90637 0.0
C733 C 0.21226 0.23593 0.87707 0.0
N734 N 0.19851 0.25732 0.82057 0.0
N735 N 0.25549 0.33862 0.93552 0.0
C736 C 0.2178 0.26944 0.84762 0.0
C737 C 0.24675 0.31114 0.90675 0.0
N738 N 0.25432 0.33996 0.81792 0.0
N739 N 0.22586 0.21879 0.93369 0.0
H740 H 0.26817 0.38095 0.93616 0.0
H741 H 0.24723 0.32293 0.95828 0.0
H742 H 0.21304 0.17663 0.93365 0.0
H743 H 0.2392 0.2276 0.9552 0.0
H744 H 0.24856 0.32022 0.79541 0.0
H745 H 0.27171 0.37614 0.81659 0.0
H746 H 0.19877 0.28493 0.79965 0.0
H747 H 0.18029 0.22242 0.82002 0.0
C748 C 0.72174 0.28704 0.61317 0.0
C749 C 0.72185 0.33161 0.63849 0.0
C750 C 0.76638 0.2737 0.66725 0.0
C751 C 0.76425 0.22676 0.6431 0.0
N752 N 0.73639 0.18315 0.59628 0.0
N753 N 0.7417 0.36623 0.69086 0.0
C754 C 0.74073 0.23169 0.61705 0.0
C755 C 0.74368 0.3249 0.66581 0.0
N756 N 0.7037 0.29858 0.58517 0.0
N757 N 0.79061 0.26954 0.69125 0.0
H758 H 0.72668 0.40595 0.68951 0.0
H759 H 0.75374 0.36019 0.71333 0.0
H760 H 0.80576 0.23039 0.69462 0.0
H761 H 0.7966 0.30546 0.70703 0.0
H762 H 0.7047 0.27073 0.56454 0.0
H763 H 0.69021 0.33957 0.58151 0.0
H764 H 0.71742 0.18145 0.57848 0.0
H765 H 0.74998 0.142 0.59881 0.0
C766 C 0.24156 0.82745 0.66708 0.0
C767 C 0.22088 0.83643 0.63909 0.0
C768 C 0.24374 0.742 0.61449 0.0
C769 C 0.2659 0.73496 0.6415 0.0
N770 N 0.28911 0.77339 0.69212 0.0
N771 N 0.20639 0.81025 0.58373 0.0
C772 C 0.26567 0.77843 0.66745 0.0
C773 C 0.22335 0.79602 0.612 0.0
N774 N 0.23711 0.8642 0.69378 0.0
N775 N 0.24204 0.69665 0.59147 0.0
H776 H 0.19183 0.85035 0.58121 0.0
H777 H 0.20922 0.7859 0.56204 0.0
H778 H 0.25658 0.65639 0.59306 0.0
H779 H 0.22432 0.69624 0.5725 0.0
H780 H 0.24811 0.85536 0.7165 0.0
H781 H 0.22105 0.90255 0.69352 0.0
H782 H 0.29342 0.80768 0.70936 0.0
H783 H 0.30551 0.73569 0.69449 0.0
C784 C 0.0899 0.04302 0.2856 0.0
C785 C 0.11577 0.99766 0.29037 0.0
C786 C 0.14736 0.0433 0.24331 0.0
C787 C 0.12009 0.08568 0.23745 0.0
N788 N 0.07675 0.14483 0.26507 0.0
N789 N 0.16734 0.94988 0.27068 0.0
C790 C 0.09448 0.09083 0.26195 0.0
C791 C 0.14426 0.9971 0.26861 0.0
N792 N 0.06031 0.04058 0.30314 0.0
N793 N 0.17746 0.05039 0.22693 0.0
H794 H 0.16573 0.91481 0.28813 0.0
H795 H 0.18621 0.94186 0.25331 0.0
H796 H 0.18225 0.0874 0.21138 0.0
H797 H 0.19937 1.02491 0.23198 0.0
H798 H 0.03911 0.06785 0.29766 0.0
H799 H 0.05545 1.00769 0.32101 0.0
H800 H 0.05995 0.15347 0.28425 0.0
H801 H 0.08304 0.1846 0.252 0.0
C802 C 0.83907 0.05872 0.26427 0.0
C803 C 0.86667 0.05508 0.287 0.0
C804 C 0.88723 0.96206 0.25802 0.0
C805 C 0.86225 0.97011 0.23303 0.0
N806 N 0.80527 1.00797 0.22261 0.0
N807 N 0.91927 1.00481 0.30306 0.0
C808 C 0.83548 1.01331 0.23897 0.0
C809 C 0.89136 1.00729 0.28308 0.0
N810 N 0.81735 0.10804 0.26538 0.0
N811 N 0.90451 0.90734 0.26016 0.0
H812 H 0.92256 0.03314 0.32319 0.0
H813 H 0.94046 0.97718 0.29832 0.0
H814 H 0.89856 0.86949 0.24563 0.0
H815 H 0.92066 0.89576 0.27947 0.0
H816 H 0.79961 0.11794 0.24712 0.0
H817 H 0.81923 0.14272 0.28282 0.0
H818 H 0.78371 0.03415 0.22799 0.0
H819 H 0.79992 0.9717 0.20694 0.0
C820 C 0.88679 0.07342 0.75596 0.0
C821 C 0.85957 0.07371 0.73302 0.0
C822 C 0.83161 0.99277 0.76731 0.0
C823 C 0.86232 0.98451 0.7859 0.0
N824 N 0.9217 1.01491 0.79304 0.0
N825 N 0.80167 0.04228 0.72194 0.0
C826 C 0.89064 1.02371 0.77855 0.0
C827 C 0.83057 0.03606 0.74029 0.0
N828 N 0.90748 0.12389 0.75856 0.0
N829 N 0.80334 0.95903 0.77526 0.0
H830 H 0.79697 0.08061 0.70728 0.0
H831 H 0.78187 1.01036 0.7216 0.0
H832 H 0.80371 0.92281 0.79197 0.0
H833 H 0.77901 0.96758 0.76612 0.0
H834 H 0.92608 0.1282 0.77665 0.0
H835 H 0.9023 0.16535 0.74653 0.0
H836 H 0.94376 0.03681 0.78468 0.0
H837 H 0.92631 0.98469 0.81226 0.0
C838 C 0.14355 0.05972 0.77259 0.0
C839 C 0.11269 0.06714 0.79091 0.0
C840 C 0.08879 0.9785 0.76042 0.0
C841 C 0.1162 0.97956 0.73768 0.0
N842 N 0.17407 1.01292 0.72727 0.0
N843 N 0.05432 0.03297 0.79936 0.0
C844 C 0.14495 1.01752 0.7454 0.0
C845 C 0.08485 1.02685 0.78369 0.0
N846 N 0.17187 0.09263 0.78117 0.0
N847 N 0.0682 0.92773 0.76238 0.0
H848 H 0.05053 0.06141 0.81924 0.0
H849 H 0.03207 1.01141 0.79133 0.0
H850 H 0.07357 0.8869 0.75009 0.0
H851 H 0.04952 0.92205 0.78026 0.0
H852 H 0.19634 0.08366 0.77255 0.0
H853 H 0.17156 0.12786 0.79821 0.0
H854 H 0.19326 0.04606 0.72693 0.0
H855 H 0.1795 0.97537 0.71253 0.0
C856 C 0.58338 0.53052 0.28368 0.0
C857 C 0.61005 0.48662 0.2886 0.0
C858 C 0.6422 0.5366 0.24339 0.0
C859 C 0.61425 0.57727 0.23685 0.0
N860 N 0.56767 0.63105 0.26275 0.0
N861 N 0.66226 0.44157 0.26866 0.0
C862 C 0.5873 0.5791 0.26021 0.0
C863 C 0.63889 0.48844 0.26742 0.0
N864 N 0.55377 0.5261 0.3011 0.0
N865 N 0.67314 0.547 0.22903 0.0
H866 H 0.66047 0.40459 0.28494 0.0
H867 H 0.68138 0.43564 0.25127 0.0
H868 H 0.67816 0.58502 0.21431 0.0
H869 H 0.69526 0.52304 0.23527 0.0
H870 H 0.53183 0.55105 0.29528 0.0
H871 H 0.54991 0.49406 0.3196 0.0
H872 H 0.54965 0.63767 0.28111 0.0
H873 H 0.57322 0.67179 0.25026 0.0
C874 C 0.39146 0.52164 0.28243 0.0
C875 C 0.36575 0.5671 0.28769 0.0
C876 C 0.33338 0.52287 0.24094 0.0
C877 C 0.3605 0.48046 0.23455 0.0
N878 N 0.40438 0.42062 0.26126 0.0
N879 N 0.31415 0.61596 0.26852 0.0
C880 C 0.38653 0.47465 0.25863 0.0
C881 C 0.33696 0.56839 0.26629 0.0
N882 N 0.42131 0.52316 0.29964 0.0
N883 N 0.30303 0.51686 0.22485 0.0
H884 H 0.316 0.65052 0.28603 0.0
H885 H 0.29529 0.62479 0.25118 0.0
H886 H 0.29801 0.48139 0.20863 0.0
H887 H 0.28119 0.54191 0.2306 0.0
H888 H 0.44256 0.4968 0.2933 0.0
H889 H 0.42603 0.55328 0.31874 0.0
H890 H 0.42139 0.41129 0.28025 0.0
H891 H 0.39809 0.38141 0.2479 0.0
C892 C 0.39274 0.51252 0.77281 0.0
C893 C 0.36137 0.49373 0.78729 0.0
C894 C 0.33218 0.56162 0.74664 0.0
C895 C 0.36337 0.5706 0.72924 0.0
N896 N 0.42147 0.53536 0.72232 0.0
N897 N 0.29958 0.49713 0.78377 0.0
C898 C 0.39301 0.54023 0.74129 0.0
C899 C 0.33056 0.51735 0.77302 0.0
N900 N 0.42256 0.5079 0.78984 0.0
N901 N 0.30438 0.59714 0.73935 0.0
H902 H 0.29661 0.46686 0.80324 0.0
H903 H 0.27681 0.507 0.77162 0.0
H904 H 0.30441 0.63085 0.72116 0.0
H905 H 0.28235 0.59747 0.75362 0.0
H906 H 0.44569 0.52495 0.78099 0.0
H907 H 0.42307 0.49664 0.81451 0.0
H908 H 0.44279 0.50964 0.72935 0.0
H909 H 0.42185 0.5494 0.69803 0.0
C910 C 0.5901 0.56395 0.76971 0.0
C911 C 0.62161 0.56785 0.7867 0.0
C912 C 0.6469 0.49359 0.74764 0.0
C913 C 0.61544 0.49054 0.72993 0.0
N914 N 0.55469 0.51273 0.72977 0.0
N915 N 0.6811 0.5419 0.79019 0.0
C916 C 0.58641 0.52285 0.74259 0.0
C917 C 0.6503 0.53439 0.77504 0.0
N918 N 0.56393 0.60235 0.77843 0.0
N919 N 0.67246 0.4527 0.7406 0.0
H920 H 0.6839 0.56723 0.81158 0.0
H921 H 0.70418 0.52646 0.78067 0.0
H922 H 0.67011 0.41783 0.72337 0.0
H923 H 0.69469 0.44798 0.7543 0.0
H924 H 0.54188 0.60849 0.76457 0.0
H925 H 0.56536 0.63246 0.79819 0.0
H926 H 0.53218 0.52611 0.74127 0.0
H927 H 0.55014 0.48854 0.70838 0.0
C928 C 0.14171 0.19789 0.99378 0.0
C929 C 0.12104 0.15541 0.97639 0.0
C930 C 0.09539 0.12306 0.02899 0.0
C931 C 0.12125 0.15505 0.04644 0.0
N932 N 0.16719 0.22845 0.04547 0.0
N933 N 0.07924 0.07354 0.97843 0.0
C934 C 0.14369 0.1945 0.02873 0.0
C935 C 0.09773 0.11763 0.99421 0.0
N936 N 0.15904 0.24222 0.97673 0.0
N937 N 0.06829 0.09831 0.04535 0.0
H938 H 0.07965 0.06808 0.95325 0.0
H939 H 0.06547 0.0393 0.99055 0.0
H940 H 0.06453 0.10435 0.07025 0.0
H941 H 0.04726 0.07899 0.03364 0.0
H942 H 0.17262 0.27786 0.98762 0.0
H943 H 0.15708 0.2466 0.95139 0.0
H944 H 0.18727 0.252 0.0344 0.0
H945 H 0.16695 0.23161 0.0709 0.0
C946 C 0.84158 0.85911 0.98949 0.0
C947 C 0.85384 0.91058 0.97142 0.0
C948 C 0.87158 0.95965 0.02323 0.0
C949 C 0.85485 0.91236 0.04137 0.0
N950 N 0.82376 0.81674 0.042 0.0
N951 N 0.87913 1.01198 0.9711 0.0
C952 C 0.84017 0.8616 0.02449 0.0
C953 C 0.86911 0.96086 0.98829 0.0
N954 N 0.83134 0.80769 0.97297 0.0
N955 N 0.88935 1.00436 0.0394 0.0
H956 H 0.87852 1.01455 0.94571 0.0
H957 H 0.88607 0.05348 0.98189 0.0
H958 H 0.89013 1.00754 0.06476 0.0
H959 H 0.90557 0.03559 0.02785 0.0
H960 H 0.82464 0.76633 0.98426 0.0
H961 H 0.83233 0.80485 0.94753 0.0
H962 H 0.80872 0.78255 0.03156 0.0
H963 H 0.82408 0.81524 0.06748 0.0
C964 C 0.09419 0.89948 0.49448 0.0
C965 C 0.12274 0.92268 0.47685 0.0
C966 C 0.15182 0.94506 0.52913 0.0
C967 C 0.1224 0.92531 0.54669 0.0
N968 N 0.06939 0.87001 0.547 0.0
N969 N 0.18146 0.95526 0.47707 0.0
C970 C 0.09484 0.89785 0.52956 0.0
C971 C 0.15252 0.94104 0.49419 0.0
N972 N 0.06589 0.88135 0.47758 0.0
N973 N 0.17856 0.97029 0.54589 0.0
H974 H 0.18253 0.95465 0.45162 0.0
H975 H 0.20513 0.96308 0.48779 0.0
H976 H 0.1799 0.97039 0.57135 0.0
H977 H 0.19892 0.99309 0.53491 0.0
H978 H 0.04255 0.87104 0.48842 0.0
H979 H 0.06559 0.87843 0.45215 0.0
H980 H 0.04966 0.84482 0.53653 0.0
H981 H 0.06964 0.86797 0.57248 0.0
C982 C 0.87963 0.11971 0.52417 0.0
C983 C 0.85173 0.14445 0.54192 0.0
C984 C 0.8262 0.17701 0.48917 0.0
C985 C 0.84982 0.13941 0.47192 0.0
N986 N 0.89612 0.06541 0.47532 0.0
N987 N 0.79956 0.2031 0.54099 0.0
C988 C 0.87612 0.10887 0.48991 0.0
C989 C 0.82546 0.17543 0.5242 0.0
N990 N 0.9097 0.10718 0.5396 0.0
N991 N 0.80474 0.2149 0.47198 0.0
H992 H 0.80023 0.20849 0.56629 0.0
H993 H 0.77722 0.21919 0.53008 0.0
H994 H 0.80526 0.21792 0.44653 0.0
H995 H 0.78877 0.24732 0.48278 0.0
H996 H 0.93156 0.09335 0.52708 0.0
H997 H 0.91418 0.11921 0.5638 0.0
H998 H 0.91324 0.03778 0.48831 0.0
H999 H 0.89309 0.05197 0.45115 0.0
C1000 C 0.5965 0.66494 0.02909 0.0
C1001 C 0.62275 0.63389 0.04669 0.0
C1002 C 0.65114 0.60807 0.99465 0.0
C1003 C 0.6237 0.63547 0.97696 0.0
N1004 N 0.57456 0.70137 0.97649 0.0
N1005 N 0.6789 0.58857 0.0469 0.0
C1006 C 0.59786 0.668 0.99403 0.0
C1007 C 0.65141 0.60993 0.02958 0.0
N1008 N 0.5696 0.6892 0.04593 0.0
N1009 N 0.67603 0.57714 0.97795 0.0
H1010 H 0.6796 0.58772 0.07237 0.0
H1011 H 0.70209 0.57636 0.03637 0.0
H1012 H 0.67772 0.57771 0.95251 0.0
H1013 H 0.69425 0.54891 0.98895 0.0
H1014 H 0.54764 0.70673 0.03501 0.0
H1015 H 0.56895 0.69021 0.0714 0.0
H1016 H 0.55612 0.72975 0.98683 0.0
H1017 H 0.57542 0.70404 0.95103 0.0
C1018 C 0.34371 0.38412 0.98873 0.0
C1019 C 0.35816 0.43711 0.9736 0.0
C1020 C 0.37251 0.47906 0.02777 0.0
C1021 C 0.35604 0.42828 0.0432 0.0
N1022 N 0.33413 0.3252 0.03898 0.0
N1023 N 0.39776 0.52063 0.97821 0.0
C1024 C 0.34438 0.37824 0.02377 0.0
C1025 C 0.37628 0.47984 0.99312 0.0
N1026 N 0.32841 0.3407 0.9697 0.0
N1027 N 0.38289 0.52843 0.04588 0.0
H1028 H 0.40197 0.5191 0.95309 0.0
H1029 H 0.41417 0.5499 0.99079 0.0
H1030 H 0.38123 0.52985 0.07127 0.0
H1031 H 0.39115 0.56982 0.03556 0.0
H1032 H 0.31406 0.30414 0.97884 0.0
H1033 H 0.32961 0.34233 0.94427 0.0
H1034 H 0.32729 0.28514 0.02673 0.0
H1035 H 0.3352 0.31986 0.06433 0.0
C1036 C 0.59654 0.38925 0.49201 0.0
C1037 C 0.62453 0.41261 0.47366 0.0
C1038 C 0.65497 0.43574 0.52501 0.0
C1039 C 0.62573 0.41747 0.54325 0.0
N1040 N 0.57318 0.36105 0.54531 0.0
N1041 N 0.6834 0.44401 0.47224 0.0
C1042 C 0.59799 0.38881 0.52704 0.0
C1043 C 0.65484 0.43081 0.49014 0.0
N1044 N 0.56804 0.36989 0.47584 0.0
N1045 N 0.68233 0.46037 0.5411 0.0
H1046 H 0.68385 0.44215 0.44679 0.0
H1047 H 0.70734 0.45222 0.48232 0.0
H1048 H 0.6842 0.46068 0.56653 0.0
H1049 H 0.70276 0.48203 0.52962 0.0
H1050 H 0.54504 0.35926 0.48723 0.0
H1051 H 0.56734 0.36592 0.45046 0.0
H1052 H 0.55331 0.33522 0.53554 0.0
H1053 H 0.57418 0.35995 0.57078 0.0
C1054 C 0.33253 0.69578 0.52399 0.0
C1055 C 0.35737 0.66188 0.54206 0.0
C1056 C 0.37999 0.62041 0.49041 0.0
C1057 C 0.35496 0.65385 0.4722 0.0
N1058 N 0.31316 0.7352 0.47132 0.0
N1059 N 0.41252 0.61215 0.54064 0.0
C1060 C 0.33316 0.69552 0.48898 0.0
C1061 C 0.38376 0.63117 0.52469 0.0
N1062 N 0.30776 0.72729 0.54045 0.0
N1063 N 0.39843 0.57464 0.47588 0.0
H1064 H 0.41723 0.62234 0.56501 0.0
H1065 H 0.43366 0.59389 0.52862 0.0
H1066 H 0.39578 0.56278 0.45144 0.0
H1067 H 0.41401 0.54424 0.4889 0.0
H1068 H 0.28617 0.746 0.52932 0.0
H1069 H 0.30838 0.73289 0.56575 0.0
H1070 H 0.29871 0.77034 0.48168 0.0
H1071 H 0.31349 0.73657 0.44583 0.0
C1072 C 0.96554 0.04181 0.16288 0.0
C1073 C 0.95629 1.00625 0.13532 0.0
C1074 C 0.01495 1.0105 0.11497 0.0
C1075 C 0.02322 0.05181 0.14058 0.0
N1076 N 0.00494 0.11412 0.1864 0.0
N1077 N 0.97006 0.96545 0.08217 0.0
C1078 C -0.00195 0.06994 0.16365 0.0
C1079 C 0.98043 0.99281 0.11055 0.0
N1080 N 0.94423 0.04583 0.1893 0.0
N1081 N 0.03986 0.9881 0.09485 0.0
H1082 H 0.94482 0.95271 0.07781 0.0
H1083 H 0.98569 0.96073 0.06175 0.0
H1084 H 0.06533 1.00158 0.09617 0.0
H1085 H 0.03577 0.95251 0.0783 0.0
H1086 H 0.95162 0.06452 0.21162 0.0
H1087 H 0.92023 1.02541 0.1903 0.0
H1088 H 0.98615 0.13488 0.20064 0.0
H1089 H 0.02893 0.13324 0.18968 0.0
C1090 C 0.96281 0.9775 0.38077 0.0
C1091 C 0.95427 0.03397 0.39586 0.0
C1092 C 0.01456 0.0485 0.41084 0.0
C1093 C 0.02342 0.9999 0.38927 0.0
N1094 N 0.00519 0.92309 0.34998 0.0
N1095 N 0.97067 0.11665 0.43182 0.0
C1096 C -0.00267 0.96571 0.37328 0.0
C1097 C 0.97984 0.06743 0.41299 0.0
N1098 N 0.93865 0.9334 0.37502 0.0
N1099 N 0.03892 0.07461 0.43028 0.0
H1100 H 0.94537 0.12541 0.43824 0.0
H1101 H 0.98783 0.14892 0.44091 0.0
H1102 H 0.0646 0.06283 0.42914 0.0
H1103 H 0.03367 0.10522 0.44912 0.0
H1104 H 0.94456 0.88988 0.3659 0.0
H1105 H 0.91402 0.93535 0.38438 0.0
H1106 H 0.98685 0.90296 0.33496 0.0
H1107 H 0.02999 0.91234 0.34324 0.0
C1108 C -0.00766 0.08888 0.86595 0.0
C1109 C 0.0182 0.0592 0.88502 0.0
C1110 C 0.97576 0.98694 0.90667 0.0
C1111 C 0.95088 1.01287 0.88547 0.0
N1112 N 0.93293 0.09927 0.85155 0.0
N1113 N 0.03524 0.975 0.92069 0.0
C1114 C 0.95827 0.06712 0.86723 0.0
C1115 C 0.01015 1.00682 0.90456 0.0
N1116 N 0.00068 0.13452 0.84412 0.0
N1117 N 0.96581 0.9467 0.93074 0.0
H1118 H 0.0606 0.98882 0.92158 0.0
H1119 H 0.0314 0.93185 0.93136 0.0
H1120 H 0.94034 0.93476 0.93469 0.0
H1121 H 0.98191 0.93111 0.94929 0.0
H1122 H 0.98445 0.15015 0.8257 0.0
H1123 H 0.0248 0.15357 0.84185 0.0
H1124 H 0.93562 0.14483 0.84379 0.0
H1125 H 0.90839 0.08312 0.8475 0.0
C1126 C 0.97147 0.03106 0.66765 0.0
C1127 C 0.95363 0.03234 0.63762 0.0
C1128 C 0.00506 1.00245 0.60802 0.0
C1129 C 0.02356 1.00449 0.63789 0.0
N1130 N 0.02581 1.02678 0.69575 0.0
N1131 N 0.94969 1.00433 0.58114 0.0
C1132 C 0.0072 1.02059 0.66766 0.0
C1133 C 0.96936 1.01371 0.60827 0.0
N1134 N 0.95365 0.03621 0.69622 0.0
N1135 N 0.02206 0.99283 0.57929 0.0
H1136 H 0.92321 1.00955 0.58152 0.0
H1137 H 0.95874 0.98602 0.55935 0.0
H1138 H 0.04841 0.98669 0.57819 0.0
H1139 H 0.01084 0.99598 0.5563 0.0
H1140 H 0.96427 0.03088 0.71938 0.0
H1141 H 0.92711 0.03878 0.69665 0.0
H1142 H 0.0161 0.04471 0.71738 0.0
H1143 H 0.0519 1.01845 0.6971 0.0
C1144 C 0.47761 0.49809 0.11045 0.0
C1145 C 0.45433 0.51506 0.13534 0.0
C1146 C 0.49705 0.58283 0.15923 0.0
C1147 C 0.52192 0.5585 0.13746 0.0
N1148 N 0.53666 0.48663 0.0947 0.0
N1149 N 0.4441 0.56344 0.18758 0.0
C1150 C 0.51249 0.51398 0.11384 0.0
C1151 C 0.46451 0.55486 0.16085 0.0
N1152 N 0.46615 0.46888 0.08301 0.0
N1153 N 0.50403 0.63298 0.17816 0.0
H1154 H 0.42035 0.54254 0.19046 0.0
H1155 H 0.45227 0.58638 0.2085 0.0
H1156 H 0.52725 0.6559 0.17782 0.0
H1157 H 0.48544 0.65581 0.19174 0.0
H1158 H 0.48144 0.46085 0.06263 0.0
H1159 H 0.44046 0.45856 0.07914 0.0
H1160 H 0.53149 0.4492 0.07962 0.0
H1161 H 0.56243 0.49782 0.09586 0.0
C1162 C 0.46182 0.48247 0.3741 0.0
C1163 C 0.45503 0.53884 0.39053 0.0
C1164 C 0.51454 0.54235 0.40972 0.0
C1165 C 0.52238 0.49252 0.38868 0.0
N1166 N 0.50361 0.41678 0.3491 0.0
N1167 N 0.47308 0.61728 0.42851 0.0
C1168 C 0.49602 0.46242 0.3709 0.0
C1169 C 0.48092 0.56716 0.40974 0.0
N1170 N 0.43607 0.44689 0.36165 0.0
N1171 N 0.53878 0.5638 0.43086 0.0
H1172 H 0.44804 0.63064 0.43347 0.0
H1173 H 0.49117 0.64618 0.439 0.0
H1174 H 0.56346 0.54623 0.43181 0.0
H1175 H 0.53411 0.59565 0.44925 0.0
H1176 H 0.4396 0.4011 0.35479 0.0
H1177 H 0.41064 0.45963 0.35988 0.0
H1178 H 0.48657 0.4014 0.33136 0.0
H1179 H 0.52754 0.39704 0.34665 0.0
C1180 C 0.47625 0.48101 0.86256 0.0
C1181 C 0.45086 0.51155 0.88161 0.0
C1182 C 0.49521 0.57634 0.90558 0.0
C1183 C 0.51946 0.55074 0.88379 0.0
N1184 N 0.52978 0.49294 0.83434 0.0
N1185 N 0.43583 0.59944 0.9152 0.0
C1186 C 0.50917 0.50702 0.86025 0.0
C1187 C 0.46011 0.56303 0.90106 0.0
N1188 N 0.46943 0.42749 0.84631 0.0
N1189 N 0.50573 0.61089 0.93156 0.0
H1190 H 0.40973 0.59195 0.9128 0.0
H1191 H 0.44168 0.64072 0.92688 0.0
H1192 H 0.5314 0.61876 0.9368 0.0
H1193 H 0.48922 0.62564 0.94991 0.0
H1194 H 0.48856 0.40042 0.83596 0.0
H1195 H 0.44542 0.4077 0.84455 0.0
H1196 H 0.52159 0.4664 0.81466 0.0
H1197 H 0.55343 0.51348 0.83033 0.0
C1198 C 0.48584 0.58647 0.65526 0.0
C1199 C 0.46113 0.56271 0.63312 0.0
C1200 C 0.5052 0.49905 0.60733 0.0
C1201 C 0.52917 0.51908 0.63115 0.0
N1202 N 0.54436 0.59635 0.67174 0.0
N1203 N 0.44641 0.49406 0.58901 0.0
C1204 C 0.52024 0.56704 0.65322 0.0
C1205 C 0.47052 0.51813 0.60949 0.0
N1206 N 0.47614 0.62435 0.68024 0.0
N1207 N 0.51646 0.46682 0.58077 0.0
H1208 H 0.42143 0.51034 0.58765 0.0
H1209 H 0.45057 0.4555 0.57448 0.0
H1210 H 0.54226 0.45823 0.57657 0.0
H1211 H 0.50123 0.45532 0.56087 0.0
H1212 H 0.49131 0.63346 0.70057 0.0
H1213 H 0.45196 0.64299 0.68253 0.0
H1214 H 0.54035 0.63944 0.68225 0.0
H1215 H 0.56892 0.58061 0.67614 0.0
C1216 C 0.15541 0.65698 0.15845 0.0
C1217 C 0.1325 0.69632 0.14118 0.0
C1218 C 0.09621 0.60688 0.12856 0.0
C1219 C 0.12045 0.56706 0.14364 0.0
N1220 N 0.17569 0.55261 0.16841 0.0
N1221 N 0.08417 0.70776 0.10517 0.0
C1222 C 0.15082 0.59172 0.15729 0.0
C1223 C 0.10372 0.67096 0.12495 0.0
N1224 N 0.18088 0.68215 0.17694 0.0
N1225 N 0.0655 0.58376 0.11854 0.0
H1226 H 0.08879 0.75478 0.10198 0.0
H1227 H 0.06517 0.69091 0.08982 0.0
H1228 H 0.05922 0.53711 0.12032 0.0
H1229 H 0.04521 0.6113 0.11084 0.0
H1230 H 0.19613 0.6566 0.19287 0.0
H1231 H 0.18501 0.72957 0.17849 0.0
H1232 H 0.19997 0.56716 0.17529 0.0
H1233 H 0.17307 0.50472 0.16824 0.0
C1234 C 0.87523 0.38671 0.11931 0.0
C1235 C 0.84529 0.36188 0.13389 0.0
C1236 C 0.8262 0.46717 0.1473 0.0
C1237 C 0.85777 0.49119 0.13588 0.0
N1238 N 0.91447 0.47297 0.11514 0.0
N1239 N 0.79444 0.37766 0.16604 0.0
C1240 C 0.88285 0.45069 0.12293 0.0
C1241 C 0.82127 0.40197 0.14895 0.0
N1242 N 0.8959 0.34943 0.10111 0.0
N1243 N 0.8006 0.50681 0.15588 0.0
H1244 H 0.79004 0.33036 0.16806 0.0
H1245 H 0.77817 0.40393 0.18051 0.0
H1246 H 0.80337 0.55466 0.15512 0.0
H1247 H 0.77578 0.49261 0.161 0.0
H1248 H 0.91605 0.36588 0.08695 0.0
H1249 H 0.89111 0.30255 0.09778 0.0
H1250 H 0.93508 0.44481 0.10922 0.0
H1251 H 0.92098 0.51944 0.11713 0.0
C1252 C 0.11774 0.39722 0.40796 0.0
C1253 C 0.14376 0.37073 0.3883 0.0
C1254 C 0.15945 0.47456 0.36865 0.0
C1255 C 0.13083 0.49989 0.38513 0.0
N1256 N 0.08025 0.48449 0.41767 0.0
N1257 N 0.18661 0.38334 0.34643 0.0
C1258 C 0.10937 0.461 0.40416 0.0
C1259 C 0.16404 0.40926 0.36784 0.0
N1260 N 0.10164 0.36174 0.43094 0.0
N1261 N 0.18263 0.51314 0.35424 0.0
H1262 H 0.19054 0.33588 0.34475 0.0
H1263 H 0.19936 0.40833 0.32839 0.0
H1264 H 0.17998 0.56105 0.35428 0.0
H1265 H 0.20592 0.49821 0.3449 0.0
H1266 H 0.085 0.37955 0.44836 0.0
H1267 H 0.10725 0.31514 0.43456 0.0
H1268 H 0.06148 0.45726 0.4285 0.0
H1269 H 0.07354 0.53097 0.41594 0.0
C1270 C 0.88778 0.59628 0.36509 0.0
C1271 C 0.86174 0.55367 0.37395 0.0
C1272 C 0.82187 0.64054 0.38161 0.0
C1273 C 0.84878 0.6832 0.3757 0.0
N1274 N 0.90886 0.70143 0.36754 0.0
N1275 N 0.80554 0.53579 0.39597 0.0
C1276 C 0.88218 0.66092 0.36907 0.0
C1277 C 0.82919 0.57602 0.38371 0.0
N1278 N 0.91748 0.57517 0.35161 0.0
N1279 N 0.78903 0.66143 0.384 0.0
H1280 H 0.80997 0.48846 0.39801 0.0
H1281 H 0.78276 0.5498 0.40676 0.0
H1282 H 0.78258 0.70804 0.38245 0.0
H1283 H 0.76788 0.63237 0.38468 0.0
H1284 H 0.93583 0.60407 0.34134 0.0
H1285 H 0.92247 0.52846 0.34792 0.0
H1286 H 0.93429 0.68761 0.36634 0.0
H1287 H 0.90586 0.7489 0.37048 0.0
C1288 C 0.82098 0.3997 0.88677 0.0
C1289 C 0.84618 0.3573 0.87578 0.0
C1290 C 0.88359 0.4447 0.86135 0.0
C1291 C 0.85977 0.48675 0.87518 0.0
N1292 N 0.80821 0.50293 0.90612 0.0
N1293 N 0.90393 0.33909 0.85797 0.0
C1294 C 0.82911 0.46381 0.8893 0.0
C1295 C 0.8782 0.37979 0.8646 0.0
N1296 N 0.78881 0.3791 0.89369 0.0
N1297 N 0.91072 0.46674 0.84385 0.0
H1298 H 0.90105 0.29141 0.86015 0.0
H1299 H 0.92894 0.35264 0.8532 0.0
H1300 H 0.91533 0.51369 0.84041 0.0
H1301 H 0.92685 0.43866 0.83021 0.0
H1302 H 0.76829 0.40841 0.89824 0.0
H1303 H 0.78183 0.3328 0.89209 0.0
H1304 H 0.78743 0.48804 0.91991 0.0
H1305 H 0.81336 0.54985 0.90872 0.0
C1306 C 0.14723 0.59325 0.86463 0.0
C1307 C 0.11513 0.56928 0.87463 0.0
C1308 C 0.09671 0.6739 0.89007 0.0
C1309 C 0.12764 0.69851 0.87741 0.0
N1310 N 0.18024 0.68284 0.84802 0.0
N1311 N 0.05732 0.58757 0.89228 0.0
C1312 C 0.15235 0.65843 0.86343 0.0
C1313 C 0.08931 0.60988 0.8861 0.0
N1314 N 0.17318 0.55354 0.85712 0.0
N1315 N 0.07491 0.7113 0.90696 0.0
H1316 H 0.051 0.54105 0.89007 0.0
H1317 H 0.03636 0.61568 0.89706 0.0
H1318 H 0.07933 0.75828 0.91031 0.0
H1319 H 0.0539 0.69498 0.91995 0.0
H1320 H 0.19825 0.56761 0.85316 0.0
H1321 H 0.1703 0.5057 0.85753 0.0
H1322 H 0.19734 0.65676 0.83435 0.0
H1323 H 0.18479 0.73017 0.8465 0.0
C1324 C 0.87892 0.66182 0.63708 0.0
C1325 C 0.84478 0.68405 0.63743 0.0
C1326 C 0.82395 0.57667 0.63613 0.0
C1327 C 0.85803 0.55453 0.63887 0.0
N1328 N 0.91758 0.57672 0.64813 0.0
N1329 N 0.78469 0.6624 0.64298 0.0
C1330 C 0.88542 0.59737 0.64102 0.0
C1331 C 0.81725 0.64134 0.6385 0.0
N1332 N 0.90521 0.70213 0.63192 0.0
N1333 N 0.79803 0.53606 0.63018 0.0
H1334 H 0.77874 0.70915 0.64493 0.0
H1335 H 0.76402 0.6335 0.64763 0.0
H1336 H 0.80191 0.48863 0.62813 0.0
H1337 H 0.77324 0.54975 0.62445 0.0
H1338 H 0.93027 0.6881 0.62779 0.0
H1339 H 0.90155 0.74946 0.62883 0.0
H1340 H 0.93784 0.60598 0.65357 0.0
H1341 H 0.92339 0.53019 0.6516 0.0
C1342 C 0.10793 0.38811 0.64692 0.0
C1343 C 0.14096 0.36664 0.63826 0.0
C1344 C 0.15909 0.47394 0.62817 0.0
C1345 C 0.12709 0.4956 0.63988 0.0
N1346 N 0.07309 0.4734 0.66571 0.0
N1347 N 0.19955 0.38911 0.62483 0.0
C1348 C 0.10201 0.45264 0.65061 0.0
C1349 C 0.16698 0.40961 0.62996 0.0
N1350 N 0.08193 0.34675 0.65094 0.0
N1351 N 0.18157 0.51471 0.61445 0.0
H1352 H 0.20615 0.34248 0.62544 0.0
H1353 H 0.22048 0.41833 0.62242 0.0
H1354 H 0.17666 0.56192 0.61269 0.0
H1355 H 0.20376 0.50134 0.60241 0.0
H1356 H 0.05648 0.35967 0.65368 0.0
H1357 H 0.08529 0.29922 0.64864 0.0
H1358 H 0.05569 0.44441 0.67734 0.0
H1359 H 0.06789 0.52007 0.66926 0.0
C1360 C 0.65743 0.08663 0.12546 0.0
C1361 C 0.62577 0.06446 0.13776 0.0
C1362 C 0.60652 0.17155 0.14569 0.0
C1363 C 0.63933 0.19337 0.13656 0.0
N1364 N 0.69758 0.17177 0.12154 0.0
N1365 N 0.5722 0.08549 0.16461 0.0
C1366 C 0.66523 0.15089 0.1274 0.0
C1367 C 0.60078 0.1069 0.14911 0.0
N1368 N 0.67967 0.04643 0.11108 0.0
N1369 N 0.58057 0.21274 0.15052 0.0
H1370 H 0.56714 0.03868 0.168 0.0
H1371 H 0.55494 0.11397 0.17667 0.0
H1372 H 0.58387 0.26037 0.14855 0.0
H1373 H 0.5552 0.19972 0.15364 0.0
H1374 H 0.70156 0.06029 0.09864 0.0
H1375 H 0.67479 0.99928 0.10918 0.0
H1376 H 0.71853 0.14277 0.11851 0.0
H1377 H 0.70404 0.21844 0.12205 0.0
C1378 C 0.33563 0.90512 0.16491 0.0
C1379 C 0.34382 0.87071 0.13648 0.0
C1380 C 0.36114 0.96681 0.10863 0.0
C1381 C 0.35617 1.00019 0.13808 0.0
N1382 N 0.34322 0.99958 0.1957 0.0
N1383 N 0.3683 0.86715 0.08253 0.0
C1384 C 0.34452 0.96892 0.1666 0.0
C1385 C 0.3576 0.90119 0.10864 0.0
N1386 N 0.31854 0.87712 0.19004 0.0
N1387 N 0.36832 0.99815 0.08038 0.0
H1388 H 0.36573 0.8193 0.0815 0.0
H1389 H 0.38206 0.8855 0.06303 0.0
H1390 H 0.37102 0.046 0.07947 0.0
H1391 H 0.36871 0.97763 0.05744 0.0
H1392 H 0.30838 0.90099 0.20981 0.0
H1393 H 0.31196 0.8305 0.18989 0.0
H1394 H 0.33877 0.97787 0.21805 0.0
H1395 H 0.34931 0.04618 0.19798 0.0
C1396 C 0.65766 0.96481 0.39206 0.0
C1397 C 0.62533 0.9867 0.38121 0.0
C1398 C 0.60579 0.87942 0.37503 0.0
C1399 C 0.63911 0.85777 0.38258 0.0
N1400 N 0.69816 0.87991 0.39419 0.0
N1401 N 0.5704 0.96499 0.35715 0.0
C1402 C 0.66544 0.90052 0.39007 0.0
C1403 C 0.59982 0.94399 0.37139 0.0
N1404 N 0.68059 1.0053 0.40513 0.0
N1405 N 0.5796 0.8382 0.37204 0.0
H1406 H 0.56513 1.01172 0.35364 0.0
H1407 H 0.55256 0.93617 0.34617 0.0
H1408 H 0.58299 0.79065 0.37442 0.0
H1409 H 0.55408 0.85127 0.37014 0.0
H1410 H 0.70313 0.99166 0.41657 0.0
H1411 H 0.67575 0.05248 0.40704 0.0
H1412 H 0.71917 0.90909 0.39596 0.0
H1413 H 0.70474 0.8333 0.39336 0.0
C1414 C 0.38948 0.10795 0.36734 0.0
C1415 C 0.36347 0.06495 0.37578 0.0
C1416 C 0.32319 0.15147 0.38304 0.0
C1417 C 0.35004 0.1945 0.37758 0.0
N1418 N 0.41021 0.21326 0.3704 0.0
N1419 N 0.30703 0.04646 0.39709 0.0
C1420 C 0.38361 0.17253 0.3714 0.0
C1421 C 0.33071 0.08697 0.38516 0.0
N1422 N 0.4194 0.0873 0.35412 0.0
N1423 N 0.29024 0.17194 0.38496 0.0
H1424 H 0.3116 0.99919 0.39917 0.0
H1425 H 0.28405 0.06021 0.40758 0.0
H1426 H 0.28364 0.21848 0.38334 0.0
H1427 H 0.26921 0.14261 0.38528 0.0
H1428 H 0.43777 0.11652 0.34415 0.0
H1429 H 0.42457 0.0407 0.35031 0.0
H1430 H 0.43569 0.19964 0.36954 0.0
H1431 H 0.40705 0.26067 0.37347 0.0
C1432 C 0.31025 0.91477 0.8908 0.0
C1433 C 0.33488 0.87285 0.87839 0.0
C1434 C 0.37291 0.95945 0.86501 0.0
C1435 C 0.34947 1.00105 0.87969 0.0
N1436 N 0.29819 1.01776 0.91096 0.0
N1437 N 0.39178 0.85358 0.85853 0.0
C1438 C 0.31874 0.97852 0.89381 0.0
C1439 C 0.36688 0.89476 0.867 0.0
N1440 N 0.27844 0.89383 0.89894 0.0
N1441 N 0.40017 0.9819 0.84782 0.0
H1442 H 0.38812 0.80592 0.85902 0.0
H1443 H 0.4169 0.86627 0.85363 0.0
H1444 H 0.40532 1.02888 0.84538 0.0
H1445 H 0.41601 0.95446 0.83352 0.0
H1446 H 0.25805 0.92278 0.90449 0.0
H1447 H 0.27169 0.84733 0.89795 0.0
H1448 H 0.2773 1.00324 0.92469 0.0
H1449 H 0.3036 0.06457 0.91366 0.0
C1450 C 0.65555 0.13863 0.89227 0.0
C1451 C 0.63123 0.18186 0.88022 0.0
C1452 C 0.59467 0.09589 0.86242 0.0
C1453 C 0.61741 0.05286 0.87725 0.0
N1454 N 0.66683 0.03412 0.91104 0.0
N1455 N 0.575 0.20193 0.8587 0.0
C1456 C 0.64716 0.07453 0.89348 0.0
C1457 C 0.60002 0.1605 0.86666 0.0
N1458 N 0.68717 0.15859 0.90158 0.0
N1459 N 0.56863 0.07509 0.84315 0.0
H1460 H 0.57794 0.24946 0.86138 0.0
H1461 H 0.55033 0.18905 0.85217 0.0
H1462 H 0.56404 1.02837 0.83909 0.0
H1463 H 0.55349 0.10403 0.82881 0.0
H1464 H 0.7073 0.12889 0.90709 0.0
H1465 H 0.69426 0.20495 0.90109 0.0
H1466 H 0.6867 0.04789 0.92625 0.0
H1467 H 0.66144 0.9871 0.9127 0.0
C1468 C 0.3877 0.10922 0.63062 0.0
C1469 C 0.36092 0.06917 0.64061 0.0
C1470 C 0.3235 0.15893 0.64911 0.0
C1471 C 0.3494 0.19852 0.6367 0.0
N1472 N 0.40399 0.21036 0.61025 0.0
N1473 N 0.30162 0.0545 0.65412 0.0
C1474 C 0.38092 0.17334 0.62594 0.0
C1475 C 0.32829 0.09369 0.64833 0.0
N1476 N 0.41997 0.08636 0.62669 0.0
N1477 N 0.29478 0.18377 0.66277 0.0
H1478 H 0.30421 1.00659 0.65386 0.0
H1479 H 0.27641 0.06912 0.65638 0.0
H1480 H 0.2904 0.23117 0.66397 0.0
H1481 H 0.27665 0.15787 0.67537 0.0
H1482 H 0.44133 0.11414 0.62313 0.0
H1483 H 0.42595 0.03977 0.62962 0.0
H1484 H 0.42572 0.19363 0.59862 0.0
H1485 H 0.39997 0.25741 0.60638 0.0
C1486 C 0.6631 0.90674 0.65714 0.0
C1487 C 0.64674 0.8687 0.63358 0.0
C1488 C 0.61451 0.95941 0.61358 0.0
C1489 C 0.63226 0.99795 0.6359 0.0
N1490 N 0.67781 1.01036 0.6748 0.0
N1491 N 0.61161 0.861 0.58545 0.0
C1492 C 0.6579 0.97212 0.65641 0.0
C1493 C 0.62378 0.89577 0.61067 0.0
N1494 N 0.68249 0.88012 0.68117 0.0
N1495 N 0.58797 0.98321 0.59583 0.0
H1496 H 0.61784 0.81457 0.5825 0.0
H1497 H 0.59777 0.87922 0.56592 0.0
H1498 H 0.58098 0.02962 0.59666 0.0
H1499 H 0.57134 0.95633 0.58208 0.0
H1500 H 0.69199 0.90417 0.70116 0.0
H1501 H 0.68684 0.83272 0.68266 0.0
H1502 H 0.69937 0.99557 0.68752 0.0
H1503 H 0.67451 0.05812 0.6751 0.0
loop_
_geom_bond_atom_site_label_1
_geom_bond_atom_site_label_2
_geom_bond_distance
_geom_bond_site_symmetry_2
_ccdc_geom_bond_type
C0 Eu1 2.835 . S
C0 C2 1.500 . S
C0 O20 1.257 . S
C0 O21 1.260 . S
Eu1 C0 2.835 . S
Eu1 O20 2.473 . S
Eu1 O21 2.480 . S
Eu1 O22 2.430 . S
Eu1 O23 2.670 . S
Eu1 O24 2.394 . S
Eu1 O29 2.355 . S
Eu1 O31 2.374 . S
C2 C0 1.500 . S
C2 C3 1.377 . S
C2 C7 1.377 . S
C3 C2 1.377 . S
C3 C4 1.395 . S
C3 H32 0.931 . S
C4 C3 1.395 . S
C4 C5 1.383 . S
C4 H33 0.931 . S
C5 C4 1.383 . S
C5 C6 1.394 . S
C6 C5 1.394 . S
C6 C7 1.378 . S
C6 H34 0.931 . S
C7 C2 1.377 . S
C7 C6 1.378 . S
C7 H35 0.931 . S
C8 O22 1.259 . S
C8 O23 1.270 . S
C9 O24 1.251 . S
C9 O25 1.251 . S
C10 Eu11 2.835 1_565 S
C10 C12 1.500 . S
C10 O26 1.257 . S
C10 O27 1.260 . S
Eu11 C10 2.835 1_545 S
Eu11 O23 2.355 . S
Eu11 O25 2.374 . S
Eu11 O26 2.473 1_545 S
Eu11 O27 2.480 1_545 S
Eu11 O28 2.430 . S
Eu11 O29 2.670 . S
Eu11 O30 2.394 . S
C12 C10 1.500 . S
C12 C13 1.377 . S
C12 C17 1.377 . S
C13 C12 1.377 . S
C13 C14 1.395 . S
C13 H36 0.931 . S
C14 C13 1.395 . S
C14 C15 1.383 . S
C14 H37 0.931 . S
C15 C14 1.383 . S
C15 C16 1.394 . S
C16 C15 1.394 . S
C16 C17 1.378 . S
C16 H38 0.931 . S
C17 C12 1.377 . S
C17 C16 1.378 . S
C17 H39 0.931 . S
C18 O28 1.259 . S
C18 O29 1.270 . S
C19 O30 1.251 . S
C19 O31 1.251 . S
O20 C0 1.257 . S
O20 Eu1 2.473 . S
O21 C0 1.260 . S
O21 Eu1 2.480 . S
O22 Eu1 2.430 . S
O22 C8 1.259 . S
O23 Eu1 2.670 . S
O23 C8 1.270 . S
O23 Eu11 2.355 . S
O24 Eu1 2.394 . S
O24 C9 1.251 . S
O25 C9 1.251 . S
O25 Eu11 2.374 . S
O26 C10 1.257 . S
O26 Eu11 2.473 1_565 S
O27 C10 1.260 . S
O27 Eu11 2.480 1_565 S
O28 Eu11 2.430 . S
O28 C18 1.259 . S
O29 Eu1 2.355 . S
O29 Eu11 2.670 . S
O29 C18 1.270 . S
O30 Eu11 2.394 . S
O30 C19 1.251 . S
O31 Eu1 2.374 . S
O31 C19 1.251 . S
H32 C3 0.931 . S
H33 C4 0.931 . S
H34 C6 0.931 . S
H35 C7 0.931 . S
H36 C13 0.931 . S
H37 C14 0.931 . S
H38 C16 0.931 . S
H39 C17 0.931 . S
C40 Eu41 2.835 . S
C40 C42 1.500 . S
C40 O60 1.257 . S
C40 O61 1.260 . S
Eu41 C40 2.835 . S
Eu41 O60 2.473 . S
Eu41 O61 2.480 . S
Eu41 O62 2.430 . S
Eu41 O63 2.670 . S
Eu41 O64 2.394 . S
Eu41 O69 2.355 . S
Eu41 O71 2.374 . S
C42 C40 1.500 . S
C42 C43 1.377 . S
C42 C47 1.377 . S
C43 C42 1.377 . S
C43 C44 1.395 . S
C43 H72 0.931 . S
C44 C43 1.395 . S
C44 C45 1.383 . S
C44 H73 0.931 . S
C45 C44 1.383 . S
C45 C46 1.394 . S
C46 C45 1.394 . S
C46 C47 1.378 . S
C46 H74 0.931 . S
C47 C42 1.377 . S
C47 C46 1.378 . S
C47 H75 0.931 . S
C48 O62 1.259 . S
C48 O63 1.270 . S
C49 O64 1.251 . S
C49 O65 1.251 . S
C50 Eu51 2.835 1_545 S
C50 C52 1.500 . S
C50 O66 1.257 . S
C50 O67 1.260 . S
Eu51 C50 2.835 1_565 S
Eu51 O63 2.355 . S
Eu51 O65 2.374 . S
Eu51 O66 2.473 1_565 S
Eu51 O67 2.480 1_565 S
Eu51 O68 2.430 . S
Eu51 O69 2.670 . S
Eu51 O70 2.394 . S
C52 C50 1.500 . S
C52 C53 1.377 . S
C52 C57 1.377 . S
C53 C52 1.377 . S
C53 C54 1.395 . S
C53 H76 0.931 . S
C54 C53 1.395 . S
C54 C55 1.383 . S
C54 H77 0.931 . S
C55 C54 1.383 . S
C55 C56 1.394 . S
C56 C55 1.394 . S
C56 C57 1.378 . S
C56 H78 0.931 . S
C57 C52 1.377 . S
C57 C56 1.378 . S
C57 H79 0.931 . S
C58 O68 1.259 . S
C58 O69 1.270 . S
C59 O70 1.251 . S
C59 O71 1.251 . S
O60 C40 1.257 . S
O60 Eu41 2.473 . S
O61 C40 1.260 . S
O61 Eu41 2.480 . S
O62 Eu41 2.430 . S
O62 C48 1.259 . S
O63 Eu41 2.670 . S
O63 C48 1.270 . S
O63 Eu51 2.355 . S
O64 Eu41 2.394 . S
O64 C49 1.251 . S
O65 C49 1.251 . S
O65 Eu51 2.374 . S
O66 C50 1.257 . S
O66 Eu51 2.473 1_545 S
O67 C50 1.260 . S
O67 Eu51 2.480 1_545 S
O68 Eu51 2.430 . S
O68 C58 1.259 . S
O69 Eu41 2.355 . S
O69 Eu51 2.670 . S
O69 C58 1.270 . S
O70 Eu51 2.394 . S
O70 C59 1.251 . S
O71 Eu41 2.374 . S
O71 C59 1.251 . S
H72 C43 0.931 . S
H73 C44 0.931 . S
H74 C46 0.931 . S
H75 C47 0.931 . S
H76 C53 0.931 . S
H77 C54 0.931 . S
H78 C56 0.931 . S
H79 C57 0.931 . S
C80 Eu81 2.835 . S
C80 C82 1.500 . S
C80 O100 1.257 . S
C80 O101 1.260 . S
Eu81 C80 2.835 . S
Eu81 O100 2.473 . S
Eu81 O101 2.480 . S
Eu81 O102 2.430 . S
Eu81 O103 2.670 . S
Eu81 O104 2.394 . S
Eu81 O109 2.355 . S
Eu81 O111 2.374 . S
C82 C80 1.500 . S
C82 C83 1.377 . S
C82 C87 1.377 . S
C83 C82 1.377 . S
C83 C84 1.395 . S
C83 H112 0.931 . S
C84 C83 1.395 . S
C84 C85 1.383 . S
C84 H113 0.931 . S
C85 C84 1.383 . S
C85 C86 1.394 . S
C86 C85 1.394 . S
C86 C87 1.378 . S
C86 H114 0.931 . S
C87 C82 1.377 . S
C87 C86 1.378 . S
C87 H115 0.931 . S
C88 O102 1.259 . S
C88 O103 1.270 . S
C89 O104 1.251 . S
C89 O105 1.251 . S
C90 Eu91 2.835 1_545 S
C90 C92 1.500 . S
C90 O106 1.257 . S
C90 O107 1.260 . S
Eu91 C90 2.835 1_565 S
Eu91 O103 2.355 . S
Eu91 O105 2.374 . S
Eu91 O106 2.473 1_565 S
Eu91 O107 2.480 1_565 S
Eu91 O108 2.430 . S
Eu91 O109 2.670 . S
Eu91 O110 2.394 . S
C92 C90 1.500 . S
C92 C93 1.377 . S
C92 C97 1.377 . S
C93 C92 1.377 . S
C93 C94 1.395 . S
C93 H116 0.931 . S
C94 C93 1.395 . S
C94 C95 1.383 . S
C94 H117 0.931 . S
C95 C94 1.383 . S
C95 C96 1.394 . S
C96 C95 1.394 . S
C96 C97 1.378 . S
C96 H118 0.931 . S
C97 C92 1.377 . S
C97 C96 1.378 . S
C97 H119 0.931 . S
C98 O108 1.259 . S
C98 O109 1.270 . S
C99 O110 1.251 . S
C99 O111 1.251 . S
O100 C80 1.257 . S
O100 Eu81 2.473 . S
O101 C80 1.260 . S
O101 Eu81 2.480 . S
O102 Eu81 2.430 . S
O102 C88 1.259 . S
O103 Eu81 2.670 . S
O103 C88 1.270 . S
O103 Eu91 2.355 . S
O104 Eu81 2.394 . S
O104 C89 1.251 . S
O105 C89 1.251 . S
O105 Eu91 2.374 . S
O106 C90 1.257 . S
O106 Eu91 2.473 1_545 S
O107 C90 1.260 . S
O107 Eu91 2.480 1_545 S
O108 Eu91 2.430 . S
O108 C98 1.259 . S
O109 Eu81 2.355 . S
O109 Eu91 2.670 . S
O109 C98 1.270 . S
O110 Eu91 2.394 . S
O110 C99 1.251 . S
O111 Eu81 2.374 . S
O111 C99 1.251 . S
H112 C83 0.931 . S
H113 C84 0.931 . S
H114 C86 0.931 . S
H115 C87 0.931 . S
H116 C93 0.931 . S
H117 C94 0.931 . S
H118 C96 0.931 . S
H119 C97 0.931 . S
C120 Eu121 2.835 . S
C120 C122 1.500 . S
C120 O140 1.257 . S
C120 O141 1.260 . S
Eu121 C120 2.835 . S
Eu121 O140 2.473 . S
Eu121 O141 2.480 . S
Eu121 O142 2.430 . S
Eu121 O143 2.670 . S
Eu121 O144 2.394 . S
Eu121 O149 2.355 . S
Eu121 O151 2.374 . S
C122 C120 1.500 . S
C122 C123 1.377 . S
C122 C127 1.377 . S
C123 C122 1.377 . S
C123 C124 1.395 . S
C123 H152 0.931 . S
C124 C123 1.395 . S
C124 C125 1.383 . S
C124 H153 0.931 . S
C125 C124 1.383 . S
C125 C126 1.394 . S
C126 C125 1.394 . S
C126 C127 1.378 . S
C126 H154 0.931 . S
C127 C122 1.377 . S
C127 C126 1.378 . S
C127 H155 0.931 . S
C128 O142 1.259 . S
C128 O143 1.270 . S
C129 O144 1.251 . S
C129 O145 1.251 . S
C130 Eu131 2.835 1_565 S
C130 C132 1.500 . S
C130 O146 1.257 . S
C130 O147 1.260 . S
Eu131 C130 2.835 1_545 S
Eu131 O143 2.355 . S
Eu131 O145 2.374 . S
Eu131 O146 2.473 1_545 S
Eu131 O147 2.480 1_545 S
Eu131 O148 2.430 . S
Eu131 O149 2.670 . S
Eu131 O150 2.394 . S
C132 C130 1.500 . S
C132 C133 1.377 . S
C132 C137 1.377 . S
C133 C132 1.377 . S
C133 C134 1.395 . S
C133 H156 0.931 . S
C134 C133 1.395 . S
C134 C135 1.383 . S
C134 H157 0.931 . S
C135 C134 1.383 . S
C135 C136 1.394 . S
C136 C135 1.394 . S
C136 C137 1.378 . S
C136 H158 0.931 . S
C137 C132 1.377 . S
C137 C136 1.378 . S
C137 H159 0.931 . S
C138 O148 1.259 . S
C138 O149 1.270 . S
C139 O150 1.251 . S
C139 O151 1.251 . S
O140 C120 1.257 . S
O140 Eu121 2.473 . S
O141 C120 1.260 . S
O141 Eu121 2.480 . S
O142 Eu121 2.430 . S
O142 C128 1.259 . S
O143 Eu121 2.670 . S
O143 C128 1.270 . S
O143 Eu131 2.355 . S
O144 Eu121 2.394 . S
O144 C129 1.251 . S
O145 C129 1.251 . S
O145 Eu131 2.374 . S
O146 C130 1.257 . S
O146 Eu131 2.473 1_565 S
O147 C130 1.260 . S
O147 Eu131 2.480 1_565 S
O148 Eu131 2.430 . S
O148 C138 1.259 . S
O149 Eu121 2.355 . S
O149 Eu131 2.670 . S
O149 C138 1.270 . S
O150 Eu131 2.394 . S
O150 C139 1.251 . S
O151 Eu121 2.374 . S
O151 C139 1.251 . S
H152 C123 0.931 . S
H153 C124 0.931 . S
H154 C126 0.931 . S
H155 C127 0.931 . S
H156 C133 0.931 . S
H157 C134 0.931 . S
H158 C136 0.931 . S
H159 C137 0.931 . S
C160 Eu161 2.835 1_545 S
C160 C162 1.500 . S
C160 O180 1.257 . S
C160 O181 1.260 . S
Eu161 C160 2.835 1_565 S
Eu161 O180 2.473 1_565 S
Eu161 O181 2.480 1_565 S
Eu161 O182 2.430 . S
Eu161 O183 2.670 . S
Eu161 O184 2.394 . S
Eu161 O189 2.355 . S
Eu161 O191 2.374 . S
C162 C160 1.500 . S
C162 C163 1.377 . S
C162 C167 1.377 . S
C163 C162 1.377 . S
C163 C164 1.395 . S
C163 H192 0.931 . S
C164 C163 1.395 . S
C164 C165 1.383 . S
C164 H193 0.931 . S
C165 C164 1.383 . S
C165 C166 1.394 . S
C166 C165 1.394 . S
C166 C167 1.378 . S
C166 H194 0.931 . S
C167 C162 1.377 . S
C167 C166 1.378 . S
C167 H195 0.931 . S
C168 O182 1.259 . S
C168 O183 1.270 . S
C169 O184 1.251 . S
C169 O185 1.251 . S
C170 Eu171 2.835 . S
C170 C172 1.500 . S
C170 O186 1.257 . S
C170 O187 1.260 . S
Eu171 C170 2.835 . S
Eu171 O183 2.355 . S
Eu171 O185 2.374 . S
Eu171 O186 2.473 . S
Eu171 O187 2.480 . S
Eu171 O188 2.430 . S
Eu171 O189 2.670 . S
Eu171 O190 2.394 . S
C172 C170 1.500 . S
C172 C173 1.377 . S
C172 C177 1.377 . S
C173 C172 1.377 . S
C173 C174 1.395 . S
C173 H196 0.931 . S
C174 C173 1.395 . S
C174 C175 1.383 . S
C174 H197 0.931 . S
C175 C174 1.383 . S
C175 C176 1.394 . S
C176 C175 1.394 . S
C176 C177 1.378 . S
C176 H198 0.931 . S
C177 C172 1.377 . S
C177 C176 1.378 . S
C177 H199 0.931 . S
C178 O188 1.259 . S
C178 O189 1.270 . S
C179 O190 1.251 . S
C179 O191 1.251 . S
O180 C160 1.257 . S
O180 Eu161 2.473 1_545 S
O181 C160 1.260 . S
O181 Eu161 2.480 1_545 S
O182 Eu161 2.430 . S
O182 C168 1.259 . S
O183 Eu161 2.670 . S
O183 C168 1.270 . S
O183 Eu171 2.355 . S
O184 Eu161 2.394 . S
O184 C169 1.251 . S
O185 C169 1.251 . S
O185 Eu171 2.374 . S
O186 C170 1.257 . S
O186 Eu171 2.473 . S
O187 C170 1.260 . S
O187 Eu171 2.480 . S
O188 Eu171 2.430 . S
O188 C178 1.259 . S
O189 Eu161 2.355 . S
O189 Eu171 2.670 . S
O189 C178 1.270 . S
O190 Eu171 2.394 . S
O190 C179 1.251 . S
O191 Eu161 2.374 . S
O191 C179 1.251 . S
H192 C163 0.931 . S
H193 C164 0.931 . S
H194 C166 0.931 . S
H195 C167 0.931 . S
H196 C173 0.931 . S
H197 C174 0.931 . S
H198 C176 0.931 . S
H199 C177 0.931 . S
C200 Eu201 2.835 1_565 S
C200 C202 1.500 . S
C200 O220 1.257 . S
C200 O221 1.260 . S
Eu201 C200 2.835 1_545 S
Eu201 O220 2.473 1_545 S
Eu201 O221 2.480 1_545 S
Eu201 O222 2.430 . S
Eu201 O223 2.670 . S
Eu201 O224 2.394 . S
Eu201 O229 2.355 . S
Eu201 O231 2.374 . S
C202 C200 1.500 . S
C202 C203 1.377 . S
C202 C207 1.377 . S
C203 C202 1.377 . S
C203 C204 1.395 . S
C203 H232 0.931 . S
C204 C203 1.395 . S
C204 C205 1.383 . S
C204 H233 0.931 . S
C205 C204 1.383 . S
C205 C206 1.394 . S
C206 C205 1.394 . S
C206 C207 1.378 . S
C206 H234 0.931 . S
C207 C202 1.377 . S
C207 C206 1.378 . S
C207 H235 0.931 . S
C208 O222 1.259 . S
C208 O223 1.270 . S
C209 O224 1.251 . S
C209 O225 1.251 . S
C210 Eu211 2.835 . S
C210 C212 1.500 . S
C210 O226 1.257 . S
C210 O227 1.260 . S
Eu211 C210 2.835 . S
Eu211 O223 2.355 . S
Eu211 O225 2.374 . S
Eu211 O226 2.473 . S
Eu211 O227 2.480 . S
Eu211 O228 2.430 . S
Eu211 O229 2.670 . S
Eu211 O230 2.394 . S
C212 C210 1.500 . S
C212 C213 1.377 . S
C212 C217 1.377 . S
C213 C212 1.377 . S
C213 C214 1.395 . S
C213 H236 0.931 . S
C214 C213 1.395 . S
C214 C215 1.383 . S
C214 H237 0.931 . S
C215 C214 1.383 . S
C215 C216 1.394 . S
C216 C215 1.394 . S
C216 C217 1.378 . S
C216 H238 0.931 . S
C217 C212 1.377 . S
C217 C216 1.378 . S
C217 H239 0.931 . S
C218 O228 1.259 . S
C218 O229 1.270 . S
C219 O230 1.251 . S
C219 O231 1.251 . S
O220 C200 1.257 . S
O220 Eu201 2.473 1_565 S
O221 C200 1.260 . S
O221 Eu201 2.480 1_565 S
O222 Eu201 2.430 . S
O222 C208 1.259 . S
O223 Eu201 2.670 . S
O223 C208 1.270 . S
O223 Eu211 2.355 . S
O224 Eu201 2.394 . S
O224 C209 1.251 . S
O225 C209 1.251 . S
O225 Eu211 2.374 . S
O226 C210 1.257 . S
O226 Eu211 2.473 . S
O227 C210 1.260 . S
O227 Eu211 2.480 . S
O228 Eu211 2.430 . S
O228 C218 1.259 . S
O229 Eu201 2.355 . S
O229 Eu211 2.670 . S
O229 C218 1.270 . S
O230 Eu211 2.394 . S
O230 C219 1.251 . S
O231 Eu201 2.374 . S
O231 C219 1.251 . S
H232 C203 0.931 . S
H233 C204 0.931 . S
H234 C206 0.931 . S
H235 C207 0.931 . S
H236 C213 0.931 . S
H237 C214 0.931 . S
H238 C216 0.931 . S
H239 C217 0.931 . S
C240 Eu241 2.835 1_565 S
C240 C242 1.500 . S
C240 O260 1.257 . S
C240 O261 1.260 . S
Eu241 C240 2.835 1_545 S
Eu241 O260 2.473 1_545 S
Eu241 O261 2.480 1_545 S
Eu241 O262 2.430 . S
Eu241 O263 2.670 . S
Eu241 O264 2.394 . S
Eu241 O269 2.355 . S
Eu241 O271 2.374 . S
C242 C240 1.500 . S
C242 C243 1.377 . S
C242 C247 1.377 . S
C243 C242 1.377 . S
C243 C244 1.395 . S
C243 H272 0.931 . S
C244 C243 1.395 . S
C244 C245 1.383 . S
C244 H273 0.931 . S
C245 C244 1.383 . S
C245 C246 1.394 . S
C246 C245 1.394 . S
C246 C247 1.378 . S
C246 H274 0.931 . S
C247 C242 1.377 . S
C247 C246 1.378 . S
C247 H275 0.931 . S
C248 O262 1.259 . S
C248 O263 1.270 . S
C249 O264 1.251 . S
C249 O265 1.251 . S
C250 Eu251 2.835 . S
C250 C252 1.500 . S
C250 O266 1.257 . S
C250 O267 1.260 . S
Eu251 C250 2.835 . S
Eu251 O263 2.355 . S
Eu251 O265 2.374 . S
Eu251 O266 2.473 . S
Eu251 O267 2.480 . S
Eu251 O268 2.430 . S
Eu251 O269 2.670 . S
Eu251 O270 2.394 . S
C252 C250 1.500 . S
C252 C253 1.377 . S
C252 C257 1.377 . S
C253 C252 1.377 . S
C253 C254 1.395 . S
C253 H276 0.931 . S
C254 C253 1.395 . S
C254 C255 1.383 . S
C254 H277 0.931 . S
C255 C254 1.383 . S
C255 C256 1.394 . S
C256 C255 1.394 . S
C256 C257 1.378 . S
C256 H278 0.931 . S
C257 C252 1.377 . S
C257 C256 1.378 . S
C257 H279 0.931 . S
C258 O268 1.259 . S
C258 O269 1.270 . S
C259 O270 1.251 . S
C259 O271 1.251 . S
O260 C240 1.257 . S
O260 Eu241 2.473 1_565 S
O261 C240 1.260 . S
O261 Eu241 2.480 1_565 S
O262 Eu241 2.430 . S
O262 C248 1.259 . S
O263 Eu241 2.670 . S
O263 C248 1.270 . S
O263 Eu251 2.355 . S
O264 Eu241 2.394 . S
O264 C249 1.251 . S
O265 C249 1.251 . S
O265 Eu251 2.374 . S
O266 C250 1.257 . S
O266 Eu251 2.473 . S
O267 C250 1.260 . S
O267 Eu251 2.480 . S
O268 Eu251 2.430 . S
O268 C258 1.259 . S
O269 Eu241 2.355 . S
O269 Eu251 2.670 . S
O269 C258 1.270 . S
O270 Eu251 2.394 . S
O270 C259 1.251 . S
O271 Eu241 2.374 . S
O271 C259 1.251 . S
H272 C243 0.931 . S
H273 C244 0.931 . S
H274 C246 0.931 . S
H275 C247 0.931 . S
H276 C253 0.931 . S
H277 C254 0.931 . S
H278 C256 0.931 . S
H279 C257 0.931 . S
C280 Eu281 2.835 1_545 S
C280 C282 1.500 . S
C280 O300 1.257 . S
C280 O301 1.260 . S
Eu281 C280 2.835 1_565 S
Eu281 O300 2.473 1_565 S
Eu281 O301 2.480 1_565 S
Eu281 O302 2.430 . S
Eu281 O303 2.670 . S
Eu281 O304 2.394 . S
Eu281 O309 2.355 . S
Eu281 O311 2.374 . S
C282 C280 1.500 . S
C282 C283 1.377 . S
C282 C287 1.377 . S
C283 C282 1.377 . S
C283 C284 1.395 . S
C283 H312 0.931 . S
C284 C283 1.395 . S
C284 C285 1.383 . S
C284 H313 0.931 . S
C285 C284 1.383 . S
C285 C286 1.394 . S
C286 C285 1.394 . S
C286 C287 1.378 . S
C286 H314 0.931 . S
C287 C282 1.377 . S
C287 C286 1.378 . S
C287 H315 0.931 . S
C288 O302 1.259 . S
C288 O303 1.270 . S
C289 O304 1.251 . S
C289 O305 1.251 . S
C290 Eu291 2.835 . S
C290 C292 1.500 . S
C290 O306 1.257 . S
C290 O307 1.260 . S
Eu291 C290 2.835 . S
Eu291 O303 2.355 . S
Eu291 O305 2.374 . S
Eu291 O306 2.473 . S
Eu291 O307 2.480 . S
Eu291 O308 2.430 . S
Eu291 O309 2.670 . S
Eu291 O310 2.394 . S
C292 C290 1.500 . S
C292 C293 1.377 . S
C292 C297 1.377 . S
C293 C292 1.377 . S
C293 C294 1.395 . S
C293 H316 0.931 . S
C294 C293 1.395 . S
C294 C295 1.383 . S
C294 H317 0.931 . S
C295 C294 1.383 . S
C295 C296 1.394 . S
C296 C295 1.394 . S
C296 C297 1.378 . S
C296 H318 0.931 . S
C297 C292 1.377 . S
C297 C296 1.378 . S
C297 H319 0.931 . S
C298 O308 1.259 . S
C298 O309 1.270 . S
C299 O310 1.251 . S
C299 O311 1.251 . S
O300 C280 1.257 . S
O300 Eu281 2.473 1_545 S
O301 C280 1.260 . S
O301 Eu281 2.480 1_545 S
O302 Eu281 2.430 . S
O302 C288 1.259 . S
O303 Eu281 2.670 . S
O303 C288 1.270 . S
O303 Eu291 2.355 . S
O304 Eu281 2.394 . S
O304 C289 1.251 . S
O305 C289 1.251 . S
O305 Eu291 2.374 . S
O306 C290 1.257 . S
O306 Eu291 2.473 . S
O307 C290 1.260 . S
O307 Eu291 2.480 . S
O308 Eu291 2.430 . S
O308 C298 1.259 . S
O309 Eu281 2.355 . S
O309 Eu291 2.670 . S
O309 C298 1.270 . S
O310 Eu291 2.394 . S
O310 C299 1.251 . S
O311 Eu281 2.374 . S
O311 C299 1.251 . S
H312 C283 0.931 . S
H313 C284 0.931 . S
H314 C286 0.931 . S
H315 C287 0.931 . S
H316 C293 0.931 . S
H317 C294 0.931 . S
H318 C296 0.931 . S
H319 C297 0.931 . S
C320 Eu321 2.835 . S
C320 C322 1.500 . S
C320 O340 1.257 . S
C320 O341 1.260 . S
Eu321 C320 2.835 . S
Eu321 O340 2.473 . S
Eu321 O341 2.480 . S
Eu321 O342 2.430 . S
Eu321 O343 2.670 . S
Eu321 O344 2.394 . S
Eu321 O349 2.355 . S
Eu321 O351 2.374 . S
C322 C320 1.500 . S
C322 C323 1.377 . S
C322 C327 1.377 . S
C323 C322 1.377 . S
C323 C324 1.395 . S
C323 H352 0.931 . S
C324 C323 1.395 . S
C324 C325 1.383 . S
C324 H353 0.931 . S
C325 C324 1.383 . S
C325 C326 1.394 . S
C326 C325 1.394 . S
C326 C327 1.378 . S
C326 H354 0.931 . S
C327 C322 1.377 . S
C327 C326 1.378 . S
C327 H355 0.931 . S
C328 O342 1.259 . S
C328 O343 1.270 . S
C329 O344 1.251 . S
C329 O345 1.251 . S
C330 Eu331 2.835 . S
C330 C332 1.500 . S
C330 O346 1.257 . S
C330 O347 1.260 . S
Eu331 C330 2.835 . S
Eu331 O343 2.355 . S
Eu331 O345 2.374 . S
Eu331 O346 2.473 . S
Eu331 O347 2.480 . S
Eu331 O348 2.430 . S
Eu331 O349 2.670 . S
Eu331 O350 2.394 . S
C332 C330 1.500 . S
C332 C333 1.377 . S
C332 C337 1.377 . S
C333 C332 1.377 . S
C333 C334 1.395 . S
C333 H356 0.931 . S
C334 C333 1.395 . S
C334 C335 1.383 . S
C334 H357 0.931 . S
C335 C334 1.383 . S
C335 C336 1.394 . S
C336 C335 1.394 . S
C336 C337 1.378 . S
C336 H358 0.931 . S
C337 C332 1.377 . S
C337 C336 1.378 . S
C337 H359 0.931 . S
C338 O348 1.259 . S
C338 O349 1.270 . S
C339 O350 1.251 . S
C339 O351 1.251 . S
O340 C320 1.257 . S
O340 Eu321 2.473 . S
O341 C320 1.260 . S
O341 Eu321 2.480 . S
O342 Eu321 2.430 . S
O342 C328 1.259 . S
O343 Eu321 2.670 . S
O343 C328 1.270 . S
O343 Eu331 2.355 . S
O344 Eu321 2.394 . S
O344 C329 1.251 . S
O345 C329 1.251 . S
O345 Eu331 2.374 . S
O346 C330 1.257 . S
O346 Eu331 2.473 . S
O347 C330 1.260 . S
O347 Eu331 2.480 . S
O348 Eu331 2.430 . S
O348 C338 1.259 . S
O349 Eu321 2.355 . S
O349 Eu331 2.670 . S
O349 C338 1.270 . S
O350 Eu331 2.394 . S
O350 C339 1.251 . S
O351 Eu321 2.374 . S
O351 C339 1.251 . S
H352 C323 0.931 . S
H353 C324 0.931 . S
H354 C326 0.931 . S
H355 C327 0.931 . S
H356 C333 0.931 . S
H357 C334 0.931 . S
H358 C336 0.931 . S
H359 C337 0.931 . S
C360 Eu361 2.835 . S
C360 C362 1.500 . S
C360 O380 1.257 . S
C360 O381 1.260 . S
Eu361 C360 2.835 . S
Eu361 O380 2.473 . S
Eu361 O381 2.480 . S
Eu361 O382 2.430 . S
Eu361 O383 2.670 . S
Eu361 O384 2.394 . S
Eu361 O389 2.355 . S
Eu361 O391 2.374 . S
C362 C360 1.500 . S
C362 C363 1.377 . S
C362 C367 1.377 . S
C363 C362 1.377 . S
C363 C364 1.395 . S
C363 H392 0.931 . S
C364 C363 1.395 . S
C364 C365 1.383 . S
C364 H393 0.931 . S
C365 C364 1.383 . S
C365 C366 1.394 . S
C366 C365 1.394 . S
C366 C367 1.378 . S
C366 H394 0.931 . S
C367 C362 1.377 . S
C367 C366 1.378 . S
C367 H395 0.931 . S
C368 O382 1.259 . S
C368 O383 1.270 . S
C369 O384 1.251 . S
C369 O385 1.251 . S
C370 Eu371 2.835 . S
C370 C372 1.500 . S
C370 O386 1.257 . S
C370 O387 1.260 . S
Eu371 C370 2.835 . S
Eu371 O383 2.355 . S
Eu371 O385 2.374 . S
Eu371 O386 2.473 . S
Eu371 O387 2.480 . S
Eu371 O388 2.430 . S
Eu371 O389 2.670 . S
Eu371 O390 2.394 . S
C372 C370 1.500 . S
C372 C373 1.377 . S
C372 C377 1.377 . S
C373 C372 1.377 . S
C373 C374 1.395 . S
C373 H396 0.931 . S
C374 C373 1.395 . S
C374 C375 1.383 . S
C374 H397 0.931 . S
C375 C374 1.383 . S
C375 C376 1.394 . S
C376 C375 1.394 . S
C376 C377 1.378 . S
C376 H398 0.931 . S
C377 C372 1.377 . S
C377 C376 1.378 . S
C377 H399 0.931 . S
C378 O388 1.259 . S
C378 O389 1.270 . S
C379 O390 1.251 . S
C379 O391 1.251 . S
O380 C360 1.257 . S
O380 Eu361 2.473 . S
O381 C360 1.260 . S
O381 Eu361 2.480 . S
O382 Eu361 2.430 . S
O382 C368 1.259 . S
O383 Eu361 2.670 . S
O383 C368 1.270 . S
O383 Eu371 2.355 . S
O384 Eu361 2.394 . S
O384 C369 1.251 . S
O385 C369 1.251 . S
O385 Eu371 2.374 . S
O386 C370 1.257 . S
O386 Eu371 2.473 . S
O387 C370 1.260 . S
O387 Eu371 2.480 . S
O388 Eu371 2.430 . S
O388 C378 1.259 . S
O389 Eu361 2.355 . S
O389 Eu371 2.670 . S
O389 C378 1.270 . S
O390 Eu371 2.394 . S
O390 C379 1.251 . S
O391 Eu361 2.374 . S
O391 C379 1.251 . S
H392 C363 0.931 . S
H393 C364 0.931 . S
H394 C366 0.931 . S
H395 C367 0.931 . S
H396 C373 0.931 . S
H397 C374 0.931 . S
H398 C376 0.931 . S
H399 C377 0.931 . S
C400 Eu401 2.835 . S
C400 C402 1.500 . S
C400 O420 1.257 . S
C400 O421 1.260 . S
Eu401 C400 2.835 . S
Eu401 O420 2.473 . S
Eu401 O421 2.480 . S
Eu401 O422 2.430 . S
Eu401 O423 2.670 . S
Eu401 O424 2.394 . S
Eu401 O429 2.355 . S
Eu401 O431 2.374 . S
C402 C400 1.500 . S
C402 C403 1.377 . S
C402 C407 1.377 . S
C403 C402 1.377 . S
C403 C404 1.395 . S
C403 H432 0.931 . S
C404 C403 1.395 . S
C404 C405 1.383 . S
C404 H433 0.931 . S
C405 C404 1.383 . S
C405 C406 1.394 . S
C406 C405 1.394 . S
C406 C407 1.378 . S
C406 H434 0.931 . S
C407 C402 1.377 . S
C407 C406 1.378 . S
C407 H435 0.931 . S
C408 O422 1.259 . S
C408 O423 1.270 . S
C409 O424 1.251 . S
C409 O425 1.251 . S
C410 Eu411 2.835 . S
C410 C412 1.500 . S
C410 O426 1.257 . S
C410 O427 1.260 . S
Eu411 C410 2.835 . S
Eu411 O423 2.355 . S
Eu411 O425 2.374 . S
Eu411 O426 2.473 . S
Eu411 O427 2.480 . S
Eu411 O428 2.430 . S
Eu411 O429 2.670 . S
Eu411 O430 2.394 . S
C412 C410 1.500 . S
C412 C413 1.377 . S
C412 C417 1.377 . S
C413 C412 1.377 . S
C413 C414 1.395 . S
C413 H436 0.931 . S
C414 C413 1.395 . S
C414 C415 1.383 . S
C414 H437 0.931 . S
C415 C414 1.383 . S
C415 C416 1.394 . S
C416 C415 1.394 . S
C416 C417 1.378 . S
C416 H438 0.931 . S
C417 C412 1.377 . S
C417 C416 1.378 . S
C417 H439 0.931 . S
C418 O428 1.259 . S
C418 O429 1.270 . S
C419 O430 1.251 . S
C419 O431 1.251 . S
O420 C400 1.257 . S
O420 Eu401 2.473 . S
O421 C400 1.260 . S
O421 Eu401 2.480 . S
O422 Eu401 2.430 . S
O422 C408 1.259 . S
O423 Eu401 2.670 . S
O423 C408 1.270 . S
O423 Eu411 2.355 . S
O424 Eu401 2.394 . S
O424 C409 1.251 . S
O425 C409 1.251 . S
O425 Eu411 2.374 . S
O426 C410 1.257 . S
O426 Eu411 2.473 . S
O427 C410 1.260 . S
O427 Eu411 2.480 . S
O428 Eu411 2.430 . S
O428 C418 1.259 . S
O429 Eu401 2.355 . S
O429 Eu411 2.670 . S
O429 C418 1.270 . S
O430 Eu411 2.394 . S
O430 C419 1.251 . S
O431 Eu401 2.374 . S
O431 C419 1.251 . S
H432 C403 0.931 . S
H433 C404 0.931 . S
H434 C406 0.931 . S
H435 C407 0.931 . S
H436 C413 0.931 . S
H437 C414 0.931 . S
H438 C416 0.931 . S
H439 C417 0.931 . S
C440 Eu441 2.835 . S
C440 C442 1.500 . S
C440 O460 1.257 . S
C440 O461 1.260 . S
Eu441 C440 2.835 . S
Eu441 O460 2.473 . S
Eu441 O461 2.480 . S
Eu441 O462 2.430 . S
Eu441 O463 2.670 . S
Eu441 O464 2.394 . S
Eu441 O469 2.355 . S
Eu441 O471 2.374 . S
C442 C440 1.500 . S
C442 C443 1.377 . S
C442 C447 1.377 . S
C443 C442 1.377 . S
C443 C444 1.395 . S
C443 H472 0.931 . S
C444 C443 1.395 . S
C444 C445 1.383 . S
C444 H473 0.931 . S
C445 C444 1.383 . S
C445 C446 1.394 . S
C446 C445 1.394 . S
C446 C447 1.378 . S
C446 H474 0.931 . S
C447 C442 1.377 . S
C447 C446 1.378 . S
C447 H475 0.931 . S
C448 O462 1.259 . S
C448 O463 1.270 . S
C449 O464 1.251 . S
C449 O465 1.251 . S
C450 Eu451 2.835 . S
C450 C452 1.500 . S
C450 O466 1.257 . S
C450 O467 1.260 . S
Eu451 C450 2.835 . S
Eu451 O463 2.355 . S
Eu451 O465 2.374 . S
Eu451 O466 2.473 . S
Eu451 O467 2.480 . S
Eu451 O468 2.430 . S
Eu451 O469 2.670 . S
Eu451 O470 2.394 . S
C452 C450 1.500 . S
C452 C453 1.377 . S
C452 C457 1.377 . S
C453 C452 1.377 . S
C453 C454 1.395 . S
C453 H476 0.931 . S
C454 C453 1.395 . S
C454 C455 1.383 . S
C454 H477 0.931 . S
C455 C454 1.383 . S
C455 C456 1.394 . S
C456 C455 1.394 . S
C456 C457 1.378 . S
C456 H478 0.931 . S
C457 C452 1.377 . S
C457 C456 1.378 . S
C457 H479 0.931 . S
C458 O468 1.259 . S
C458 O469 1.270 . S
C459 O470 1.251 . S
C459 O471 1.251 . S
O460 C440 1.257 . S
O460 Eu441 2.473 . S
O461 C440 1.260 . S
O461 Eu441 2.480 . S
O462 Eu441 2.430 . S
O462 C448 1.259 . S
O463 Eu441 2.670 . S
O463 C448 1.270 . S
O463 Eu451 2.355 . S
O464 Eu441 2.394 . S
O464 C449 1.251 . S
O465 C449 1.251 . S
O465 Eu451 2.374 . S
O466 C450 1.257 . S
O466 Eu451 2.473 . S
O467 C450 1.260 . S
O467 Eu451 2.480 . S
O468 Eu451 2.430 . S
O468 C458 1.259 . S
O469 Eu441 2.355 . S
O469 Eu451 2.670 . S
O469 C458 1.270 . S
O470 Eu451 2.394 . S
O470 C459 1.251 . S
O471 Eu441 2.374 . S
O471 C459 1.251 . S
H472 C443 0.931 . S
H473 C444 0.931 . S
H474 C446 0.931 . S
H475 C447 0.931 . S
H476 C453 0.931 . S
H477 C454 0.931 . S
H478 C456 0.931 . S
H479 C457 0.931 . S
C480 Eu481 2.835 . S
C480 C482 1.500 . S
C480 O500 1.257 . S
C480 O501 1.260 . S
Eu481 C480 2.835 . S
Eu481 O500 2.473 . S
Eu481 O501 2.480 . S
Eu481 O502 2.430 . S
Eu481 O503 2.670 . S
Eu481 O504 2.394 . S
Eu481 O509 2.355 . S
Eu481 O511 2.374 . S
C482 C480 1.500 . S
C482 C483 1.377 . S
C482 C487 1.377 . S
C483 C482 1.377 . S
C483 C484 1.395 . S
C483 H512 0.931 . S
C484 C483 1.395 . S
C484 C485 1.383 . S
C484 H513 0.931 . S
C485 C484 1.383 . S
C485 C486 1.394 . S
C486 C485 1.394 . S
C486 C487 1.378 . S
C486 H514 0.931 . S
C487 C482 1.377 . S
C487 C486 1.378 . S
C487 H515 0.931 . S
C488 O502 1.259 . S
C488 O503 1.270 . S
C489 O504 1.251 . S
C489 O505 1.251 . S
C490 Eu491 2.835 . S
C490 C492 1.500 . S
C490 O506 1.257 . S
C490 O507 1.260 . S
Eu491 C490 2.835 . S
Eu491 O503 2.355 . S
Eu491 O505 2.374 . S
Eu491 O506 2.473 . S
Eu491 O507 2.480 . S
Eu491 O508 2.430 . S
Eu491 O509 2.670 . S
Eu491 O510 2.394 . S
C492 C490 1.500 . S
C492 C493 1.377 . S
C492 C497 1.377 . S
C493 C492 1.377 . S
C493 C494 1.395 . S
C493 H516 0.931 . S
C494 C493 1.395 . S
C494 C495 1.383 . S
C494 H517 0.931 . S
C495 C494 1.383 . S
C495 C496 1.394 . S
C496 C495 1.394 . S
C496 C497 1.378 . S
C496 H518 0.931 . S
C497 C492 1.377 . S
C497 C496 1.378 . S
C497 H519 0.931 . S
C498 O508 1.259 . S
C498 O509 1.270 . S
C499 O510 1.251 . S
C499 O511 1.251 . S
O500 C480 1.257 . S
O500 Eu481 2.473 . S
O501 C480 1.260 . S
O501 Eu481 2.480 . S
O502 Eu481 2.430 . S
O502 C488 1.259 . S
O503 Eu481 2.670 . S
O503 C488 1.270 . S
O503 Eu491 2.355 . S
O504 Eu481 2.394 . S
O504 C489 1.251 . S
O505 C489 1.251 . S
O505 Eu491 2.374 . S
O506 C490 1.257 . S
O506 Eu491 2.473 . S
O507 C490 1.260 . S
O507 Eu491 2.480 . S
O508 Eu491 2.430 . S
O508 C498 1.259 . S
O509 Eu481 2.355 . S
O509 Eu491 2.670 . S
O509 C498 1.270 . S
O510 Eu491 2.394 . S
O510 C499 1.251 . S
O511 Eu481 2.374 . S
O511 C499 1.251 . S
H512 C483 0.931 . S
H513 C484 0.931 . S
H514 C486 0.931 . S
H515 C487 0.931 . S
H516 C493 0.931 . S
H517 C494 0.931 . S
H518 C496 0.931 . S
H519 C497 0.931 . S
C520 Eu521 2.835 . S
C520 C522 1.500 . S
C520 O540 1.257 . S
C520 O541 1.260 . S
Eu521 C520 2.835 . S
Eu521 O540 2.473 . S
Eu521 O541 2.480 . S
Eu521 O542 2.430 . S
Eu521 O543 2.670 . S
Eu521 O544 2.394 . S
Eu521 O549 2.355 . S
Eu521 O551 2.374 . S
C522 C520 1.500 . S
C522 C523 1.377 . S
C522 C527 1.377 . S
C523 C522 1.377 . S
C523 C524 1.395 . S
C523 H552 0.931 . S
C524 C523 1.395 . S
C524 C525 1.383 . S
C524 H553 0.931 . S
C525 C524 1.383 . S
C525 C526 1.394 . S
C526 C525 1.394 . S
C526 C527 1.378 . S
C526 H554 0.931 . S
C527 C522 1.377 . S
C527 C526 1.378 . S
C527 H555 0.931 . S
C528 O542 1.259 . S
C528 O543 1.270 . S
C529 O544 1.251 . S
C529 O545 1.251 . S
C530 Eu531 2.835 . S
C530 C532 1.500 . S
C530 O546 1.257 . S
C530 O547 1.260 . S
Eu531 C530 2.835 . S
Eu531 O543 2.355 . S
Eu531 O545 2.374 . S
Eu531 O546 2.473 . S
Eu531 O547 2.480 . S
Eu531 O548 2.430 . S
Eu531 O549 2.670 . S
Eu531 O550 2.394 . S
C532 C530 1.500 . S
C532 C533 1.377 . S
C532 C537 1.377 . S
C533 C532 1.377 . S
C533 C534 1.395 . S
C533 H556 0.931 . S
C534 C533 1.395 . S
C534 C535 1.383 . S
C534 H557 0.931 . S
C535 C534 1.383 . S
C535 C536 1.394 . S
C536 C535 1.394 . S
C536 C537 1.378 . S
C536 H558 0.931 . S
C537 C532 1.377 . S
C537 C536 1.378 . S
C537 H559 0.931 . S
C538 O548 1.259 . S
C538 O549 1.270 . S
C539 O550 1.251 . S
C539 O551 1.251 . S
O540 C520 1.257 . S
O540 Eu521 2.473 . S
O541 C520 1.260 . S
O541 Eu521 2.480 . S
O542 Eu521 2.430 . S
O542 C528 1.259 . S
O543 Eu521 2.670 . S
O543 C528 1.270 . S
O543 Eu531 2.355 . S
O544 Eu521 2.394 . S
O544 C529 1.251 . S
O545 C529 1.251 . S
O545 Eu531 2.374 . S
O546 C530 1.257 . S
O546 Eu531 2.473 . S
O547 C530 1.260 . S
O547 Eu531 2.480 . S
O548 Eu531 2.430 . S
O548 C538 1.259 . S
O549 Eu521 2.355 . S
O549 Eu531 2.670 . S
O549 C538 1.270 . S
O550 Eu531 2.394 . S
O550 C539 1.251 . S
O551 Eu521 2.374 . S
O551 C539 1.251 . S
H552 C523 0.931 . S
H553 C524 0.931 . S
H554 C526 0.931 . S
H555 C527 0.931 . S
H556 C533 0.931 . S
H557 C534 0.931 . S
H558 C536 0.931 . S
H559 C537 0.931 . S
C560 Eu561 2.835 . S
C560 C562 1.500 . S
C560 O580 1.257 . S
C560 O581 1.260 . S
Eu561 C560 2.835 . S
Eu561 O580 2.473 . S
Eu561 O581 2.480 . S
Eu561 O582 2.430 . S
Eu561 O583 2.670 . S
Eu561 O584 2.394 . S
Eu561 O589 2.355 . S
Eu561 O591 2.374 . S
C562 C560 1.500 . S
C562 C563 1.377 . S
C562 C567 1.377 . S
C563 C562 1.377 . S
C563 C564 1.395 . S
C563 H592 0.931 . S
C564 C563 1.395 . S
C564 C565 1.383 . S
C564 H593 0.931 . S
C565 C564 1.383 . S
C565 C566 1.394 . S
C566 C565 1.394 . S
C566 C567 1.378 . S
C566 H594 0.931 . S
C567 C562 1.377 . S
C567 C566 1.378 . S
C567 H595 0.931 . S
C568 O582 1.259 . S
C568 O583 1.270 . S
C569 O584 1.251 . S
C569 O585 1.251 . S
C570 Eu571 2.835 . S
C570 C572 1.500 . S
C570 O586 1.257 . S
C570 O587 1.260 . S
Eu571 C570 2.835 . S
Eu571 O583 2.355 . S
Eu571 O585 2.374 . S
Eu571 O586 2.473 . S
Eu571 O587 2.480 . S
Eu571 O588 2.430 . S
Eu571 O589 2.670 . S
Eu571 O590 2.394 . S
C572 C570 1.500 . S
C572 C573 1.377 . S
C572 C577 1.377 . S
C573 C572 1.377 . S
C573 C574 1.395 . S
C573 H596 0.931 . S
C574 C573 1.395 . S
C574 C575 1.383 . S
C574 H597 0.931 . S
C575 C574 1.383 . S
C575 C576 1.394 . S
C576 C575 1.394 . S
C576 C577 1.378 . S
C576 H598 0.931 . S
C577 C572 1.377 . S
C577 C576 1.378 . S
C577 H599 0.931 . S
C578 O588 1.259 . S
C578 O589 1.270 . S
C579 O590 1.251 . S
C579 O591 1.251 . S
O580 C560 1.257 . S
O580 Eu561 2.473 . S
O581 C560 1.260 . S
O581 Eu561 2.480 . S
O582 Eu561 2.430 . S
O582 C568 1.259 . S
O583 Eu561 2.670 . S
O583 C568 1.270 . S
O583 Eu571 2.355 . S
O584 Eu561 2.394 . S
O584 C569 1.251 . S
O585 C569 1.251 . S
O585 Eu571 2.374 . S
O586 C570 1.257 . S
O586 Eu571 2.473 . S
O587 C570 1.260 . S
O587 Eu571 2.480 . S
O588 Eu571 2.430 . S
O588 C578 1.259 . S
O589 Eu561 2.355 . S
O589 Eu571 2.670 . S
O589 C578 1.270 . S
O590 Eu571 2.394 . S
O590 C579 1.251 . S
O591 Eu561 2.374 . S
O591 C579 1.251 . S
H592 C563 0.931 . S
H593 C564 0.931 . S
H594 C566 0.931 . S
H595 C567 0.931 . S
H596 C573 0.931 . S
H597 C574 0.931 . S
H598 C576 0.931 . S
H599 C577 0.931 . S
C600 Eu601 2.835 . S
C600 C602 1.500 . S
C600 O620 1.257 . S
C600 O621 1.260 . S
Eu601 C600 2.835 . S
Eu601 O620 2.473 . S
Eu601 O621 2.480 . S
Eu601 O622 2.430 . S
Eu601 O623 2.670 . S
Eu601 O624 2.394 . S
Eu601 O629 2.355 . S
Eu601 O631 2.374 . S
C602 C600 1.500 . S
C602 C603 1.377 . S
C602 C607 1.377 . S
C603 C602 1.377 . S
C603 C604 1.395 . S
C603 H632 0.931 . S
C604 C603 1.395 . S
C604 C605 1.383 . S
C604 H633 0.931 . S
C605 C604 1.383 . S
C605 C606 1.394 . S
C606 C605 1.394 . S
C606 C607 1.378 . S
C606 H634 0.931 . S
C607 C602 1.377 . S
C607 C606 1.378 . S
C607 H635 0.931 . S
C608 O622 1.259 . S
C608 O623 1.270 . S
C609 O624 1.251 . S
C609 O625 1.251 . S
C610 Eu611 2.835 . S
C610 C612 1.500 . S
C610 O626 1.257 . S
C610 O627 1.260 . S
Eu611 C610 2.835 . S
Eu611 O623 2.355 . S
Eu611 O625 2.374 . S
Eu611 O626 2.473 . S
Eu611 O627 2.480 . S
Eu611 O628 2.430 . S
Eu611 O629 2.670 . S
Eu611 O630 2.394 . S
C612 C610 1.500 . S
C612 C613 1.377 . S
C612 C617 1.377 . S
C613 C612 1.377 . S
C613 C614 1.395 . S
C613 H636 0.931 . S
C614 C613 1.395 . S
C614 C615 1.383 . S
C614 H637 0.931 . S
C615 C614 1.383 . S
C615 C616 1.394 . S
C616 C615 1.394 . S
C616 C617 1.378 . S
C616 H638 0.931 . S
C617 C612 1.377 . S
C617 C616 1.378 . S
C617 H639 0.931 . S
C618 O628 1.259 . S
C618 O629 1.270 . S
C619 O630 1.251 . S
C619 O631 1.251 . S
O620 C600 1.257 . S
O620 Eu601 2.473 . S
O621 C600 1.260 . S
O621 Eu601 2.480 . S
O622 Eu601 2.430 . S
O622 C608 1.259 . S
O623 Eu601 2.670 . S
O623 C608 1.270 . S
O623 Eu611 2.355 . S
O624 Eu601 2.394 . S
O624 C609 1.251 . S
O625 C609 1.251 . S
O625 Eu611 2.374 . S
O626 C610 1.257 . S
O626 Eu611 2.473 . S
O627 C610 1.260 . S
O627 Eu611 2.480 . S
O628 Eu611 2.430 . S
O628 C618 1.259 . S
O629 Eu601 2.355 . S
O629 Eu611 2.670 . S
O629 C618 1.270 . S
O630 Eu611 2.394 . S
O630 C619 1.251 . S
O631 Eu601 2.374 . S
O631 C619 1.251 . S
H632 C603 0.931 . S
H633 C604 0.931 . S
H634 C606 0.931 . S
H635 C607 0.931 . S
H636 C613 0.931 . S
H637 C614 0.931 . S
H638 C616 0.931 . S
H639 C617 0.931 . S
C640 C641 1.363 . S
C640 C646 1.379 . S
C640 N648 1.356 . S
C641 C640 1.363 . S
C641 C647 1.363 . S
C642 C643 1.363 . S
C642 C647 1.379 . S
C642 N649 1.356 . S
C643 C642 1.363 . S
C643 C646 1.363 . S
N644 C646 1.356 . S
N644 H656 0.984 . S
N644 H657 0.985 . S
N645 C647 1.356 . S
N645 H650 0.984 . S
N645 H651 0.985 . S
C646 C640 1.379 . S
C646 C643 1.363 . S
C646 N644 1.356 . S
C647 C641 1.363 . S
C647 C642 1.379 . S
C647 N645 1.356 . S
N648 C640 1.356 . S
N648 H654 0.984 . S
N648 H655 0.984 . S
N649 C642 1.356 . S
N649 H652 0.984 . S
N649 H653 0.985 . S
H650 N645 0.984 . S
H651 N645 0.985 . S
H652 N649 0.984 . S
H653 N649 0.985 . S
H654 N648 0.984 . S
H655 N648 0.984 . S
H656 N644 0.984 . S
H657 N644 0.985 . S
C658 C659 1.363 . S
C658 C664 1.379 . S
C658 N666 1.356 . S
C659 C658 1.363 . S
C659 C665 1.363 . S
C660 C661 1.363 . S
C660 C665 1.379 . S
C660 N667 1.356 . S
C661 C660 1.363 . S
C661 C664 1.363 . S
N662 C664 1.356 . S
N662 H674 0.984 . S
N662 H675 0.985 . S
N663 C665 1.356 . S
N663 H668 0.984 . S
N663 H669 0.985 . S
C664 C658 1.379 . S
C664 C661 1.363 . S
C664 N662 1.356 . S
C665 C659 1.363 . S
C665 C660 1.379 . S
C665 N663 1.356 . S
N666 C658 1.356 . S
N666 H672 0.984 . S
N666 H673 0.984 . S
N667 C660 1.356 . S
N667 H670 0.984 . S
N667 H671 0.985 . S
H668 N663 0.984 . S
H669 N663 0.985 . S
H670 N667 0.984 . S
H671 N667 0.985 . S
H672 N666 0.984 . S
H673 N666 0.984 . S
H674 N662 0.984 . S
H675 N662 0.985 . S
C676 C677 1.363 . S
C676 C682 1.379 . S
C676 N684 1.356 . S
C677 C676 1.363 . S
C677 C683 1.363 . S
C678 C679 1.363 . S
C678 C683 1.379 . S
C678 N685 1.356 . S
C679 C678 1.363 . S
C679 C682 1.363 . S
N680 C682 1.356 . S
N680 H692 0.984 . S
N680 H693 0.985 . S
N681 C683 1.356 . S
N681 H686 0.984 . S
N681 H687 0.985 . S
C682 C676 1.379 . S
C682 C679 1.363 . S
C682 N680 1.356 . S
C683 C677 1.363 . S
C683 C678 1.379 . S
C683 N681 1.356 . S
N684 C676 1.356 . S
N684 H690 0.984 . S
N684 H691 0.984 . S
N685 C678 1.356 . S
N685 H688 0.984 . S
N685 H689 0.985 . S
H686 N681 0.984 . S
H687 N681 0.985 . S
H688 N685 0.984 . S
H689 N685 0.985 . S
H690 N684 0.984 . S
H691 N684 0.984 . S
H692 N680 0.984 . S
H693 N680 0.985 . S
C694 C695 1.363 . S
C694 C700 1.379 . S
C694 N702 1.356 . S
C695 C694 1.363 . S
C695 C701 1.363 . S
C696 C697 1.363 . S
C696 C701 1.379 . S
C696 N703 1.356 . S
C697 C696 1.363 . S
C697 C700 1.363 . S
N698 C700 1.356 . S
N698 H710 0.984 . S
N698 H711 0.985 . S
N699 C701 1.356 . S
N699 H704 0.984 . S
N699 H705 0.985 . S
C700 C694 1.379 . S
C700 C697 1.363 . S
C700 N698 1.356 . S
C701 C695 1.363 . S
C701 C696 1.379 . S
C701 N699 1.356 . S
N702 C694 1.356 . S
N702 H708 0.984 . S
N702 H709 0.984 . S
N703 C696 1.356 . S
N703 H706 0.984 . S
N703 H707 0.985 . S
H704 N699 0.984 . S
H705 N699 0.985 . S
H706 N703 0.984 . S
H707 N703 0.985 . S
H708 N702 0.984 . S
H709 N702 0.984 . S
H710 N698 0.984 . S
H711 N698 0.985 . S
C712 C713 1.363 . S
C712 C718 1.379 . S
C712 N720 1.356 . S
C713 C712 1.363 . S
C713 C719 1.363 . S
C714 C715 1.363 . S
C714 C719 1.379 . S
C714 N721 1.356 . S
C715 C714 1.363 . S
C715 C718 1.363 . S
N716 C718 1.356 . S
N716 H728 0.984 . S
N716 H729 0.985 . S
N717 C719 1.356 . S
N717 H722 0.984 . S
N717 H723 0.985 . S
C718 C712 1.379 . S
C718 C715 1.363 . S
C718 N716 1.356 . S
C719 C713 1.363 . S
C719 C714 1.379 . S
C719 N717 1.356 . S
N720 C712 1.356 . S
N720 H726 0.984 . S
N720 H727 0.984 . S
N721 C714 1.356 . S
N721 H724 0.984 . S
N721 H725 0.985 . S
H722 N717 0.984 . S
H723 N717 0.985 . S
H724 N721 0.984 . S
H725 N721 0.985 . S
H726 N720 0.984 . S
H727 N720 0.984 . S
H728 N716 0.984 . S
H729 N716 0.985 . S
C730 C731 1.363 . S
C730 C736 1.379 . S
C730 N738 1.356 . S
C731 C730 1.363 . S
C731 C737 1.363 . S
C732 C733 1.363 . S
C732 C737 1.379 . S
C732 N739 1.356 . S
C733 C732 1.363 . S
C733 C736 1.363 . S
N734 C736 1.356 . S
N734 H746 0.984 . S
N734 H747 0.985 . S
N735 C737 1.356 . S
N735 H740 0.984 . S
N735 H741 0.985 . S
C736 C730 1.379 . S
C736 C733 1.363 . S
C736 N734 1.356 . S
C737 C731 1.363 . S
C737 C732 1.379 . S
C737 N735 1.356 . S
N738 C730 1.356 . S
N738 H744 0.984 . S
N738 H745 0.984 . S
N739 C732 1.356 . S
N739 H742 0.984 . S
N739 H743 0.985 . S
H740 N735 0.984 . S
H741 N735 0.985 . S
H742 N739 0.984 . S
H743 N739 0.985 . S
H744 N738 0.984 . S
H745 N738 0.984 . S
H746 N734 0.984 . S
H747 N734 0.985 . S
C748 C749 1.363 . S
C748 C754 1.379 . S
C748 N756 1.356 . S
C749 C748 1.363 . S
C749 C755 1.363 . S
C750 C751 1.363 . S
C750 C755 1.379 . S
C750 N757 1.356 . S
C751 C750 1.363 . S
C751 C754 1.363 . S
N752 C754 1.356 . S
N752 H764 0.984 . S
N752 H765 0.985 . S
N753 C755 1.356 . S
N753 H758 0.984 . S
N753 H759 0.985 . S
C754 C748 1.379 . S
C754 C751 1.363 . S
C754 N752 1.356 . S
C755 C749 1.363 . S
C755 C750 1.379 . S
C755 N753 1.356 . S
N756 C748 1.356 . S
N756 H762 0.984 . S
N756 H763 0.984 . S
N757 C750 1.356 . S
N757 H760 0.984 . S
N757 H761 0.985 . S
H758 N753 0.984 . S
H759 N753 0.985 . S
H760 N757 0.984 . S
H761 N757 0.985 . S
H762 N756 0.984 . S
H763 N756 0.984 . S
H764 N752 0.984 . S
H765 N752 0.985 . S
C766 C767 1.363 . S
C766 C772 1.379 . S
C766 N774 1.356 . S
C767 C766 1.363 . S
C767 C773 1.363 . S
C768 C769 1.363 . S
C768 C773 1.379 . S
C768 N775 1.356 . S
C769 C768 1.363 . S
C769 C772 1.363 . S
N770 C772 1.356 . S
N770 H782 0.984 . S
N770 H783 0.985 . S
N771 C773 1.356 . S
N771 H776 0.984 . S
N771 H777 0.985 . S
C772 C766 1.379 . S
C772 C769 1.363 . S
C772 N770 1.356 . S
C773 C767 1.363 . S
C773 C768 1.379 . S
C773 N771 1.356 . S
N774 C766 1.356 . S
N774 H780 0.984 . S
N774 H781 0.984 . S
N775 C768 1.356 . S
N775 H778 0.984 . S
N775 H779 0.985 . S
H776 N771 0.984 . S
H777 N771 0.985 . S
H778 N775 0.984 . S
H779 N775 0.985 . S
H780 N774 0.984 . S
H781 N774 0.984 . S
H782 N770 0.984 . S
H783 N770 0.985 . S
C784 C785 1.363 1_545 S
C784 C790 1.379 . S
C784 N792 1.356 . S
C785 C784 1.363 1_565 S
C785 C791 1.363 . S
C786 C787 1.363 1_565 S
C786 C791 1.379 . S
C786 N793 1.356 . S
C787 C786 1.363 1_545 S
C787 C790 1.363 . S
N788 C790 1.356 . S
N788 H800 0.984 . S
N788 H801 0.985 . S
N789 C791 1.356 . S
N789 H794 0.984 . S
N789 H795 0.985 . S
C790 C784 1.379 . S
C790 C787 1.363 . S
C790 N788 1.356 . S
C791 C785 1.363 . S
C791 C786 1.379 . S
C791 N789 1.356 . S
N792 C784 1.356 . S
N792 H798 0.984 . S
N792 H799 0.984 1_545 S
N793 C786 1.356 . S
N793 H796 0.984 1_565 S
N793 H797 0.985 . S
H794 N789 0.984 . S
H795 N789 0.985 . S
H796 N793 0.984 1_545 S
H797 N793 0.985 . S
H798 N792 0.984 . S
H799 N792 0.984 1_565 S
H800 N788 0.984 . S
H801 N788 0.985 . S
C802 C803 1.363 . S
C802 C808 1.379 . S
C802 N810 1.356 . S
C803 C802 1.363 . S
C803 C809 1.363 1_545 S
C804 C805 1.363 . S
C804 C809 1.379 . S
C804 N811 1.356 . S
C805 C804 1.363 . S
C805 C808 1.363 1_565 S
N806 C808 1.356 . S
N806 H818 0.984 . S
N806 H819 0.985 1_545 S
N807 C809 1.356 . S
N807 H812 0.984 1_565 S
N807 H813 0.985 . S
C808 C802 1.379 . S
C808 C805 1.363 1_545 S
C808 N806 1.356 . S
C809 C803 1.363 1_565 S
C809 C804 1.379 . S
C809 N807 1.356 . S
N810 C802 1.356 . S
N810 H816 0.984 . S
N810 H817 0.984 . S
N811 C804 1.356 . S
N811 H814 0.984 . S
N811 H815 0.985 . S
H812 N807 0.984 1_545 S
H813 N807 0.985 . S
H814 N811 0.984 . S
H815 N811 0.985 . S
H816 N810 0.984 . S
H817 N810 0.984 . S
H818 N806 0.984 . S
H819 N806 0.985 1_565 S
C820 C821 1.363 . S
C820 C826 1.379 1_545 S
C820 N828 1.356 . S
C821 C820 1.363 . S
C821 C827 1.363 . S
C822 C823 1.363 . S
C822 C827 1.379 1_565 S
C822 N829 1.356 . S
C823 C822 1.363 . S
C823 C826 1.363 . S
N824 C826 1.356 . S
N824 H836 0.984 1_565 S
N824 H837 0.985 . S
N825 C827 1.356 . S
N825 H830 0.984 . S
N825 H831 0.985 1_545 S
C826 C820 1.379 1_565 S
C826 C823 1.363 . S
C826 N824 1.356 . S
C827 C821 1.363 . S
C827 C822 1.379 1_545 S
C827 N825 1.356 . S
N828 C820 1.356 . S
N828 H834 0.984 . S
N828 H835 0.984 . S
N829 C822 1.356 . S
N829 H832 0.984 . S
N829 H833 0.985 . S
H830 N825 0.984 . S
H831 N825 0.985 1_565 S
H832 N829 0.984 . S
H833 N829 0.985 . S
H834 N828 0.984 . S
H835 N828 0.984 . S
H836 N824 0.984 1_545 S
H837 N824 0.985 . S
C838 C839 1.363 . S
C838 C844 1.379 1_545 S
C838 N846 1.356 . S
C839 C838 1.363 . S
C839 C845 1.363 . S
C840 C841 1.363 . S
C840 C845 1.379 1_565 S
C840 N847 1.356 . S
C841 C840 1.363 . S
C841 C844 1.363 . S
N842 C844 1.356 . S
N842 H854 0.984 . S
N842 H855 0.985 . S
N843 C845 1.356 . S
N843 H848 0.984 . S
N843 H849 0.985 . S
C844 C838 1.379 1_565 S
C844 C841 1.363 . S
C844 N842 1.356 . S
C845 C839 1.363 . S
C845 C840 1.379 1_545 S
C845 N843 1.356 . S
N846 C838 1.356 . S
N846 H852 0.984 . S
N846 H853 0.984 . S
N847 C840 1.356 . S
N847 H850 0.984 . S
N847 H851 0.985 . S
H848 N843 0.984 . S
H849 N843 0.985 . S
H850 N847 0.984 . S
H851 N847 0.985 . S
H852 N846 0.984 . S
H853 N846 0.984 . S
H854 N842 0.984 . S
H855 N842 0.985 . S
C856 C857 1.363 . S
C856 C862 1.379 . S
C856 N864 1.356 . S
C857 C856 1.363 . S
C857 C863 1.363 . S
C858 C859 1.363 . S
C858 C863 1.379 . S
C858 N865 1.356 . S
C859 C858 1.363 . S
C859 C862 1.363 . S
N860 C862 1.356 . S
N860 H872 0.984 . S
N860 H873 0.985 . S
N861 C863 1.356 . S
N861 H866 0.984 . S
N861 H867 0.985 . S
C862 C856 1.379 . S
C862 C859 1.363 . S
C862 N860 1.356 . S
C863 C857 1.363 . S
C863 C858 1.379 . S
C863 N861 1.356 . S
N864 C856 1.356 . S
N864 H870 0.984 . S
N864 H871 0.984 . S
N865 C858 1.356 . S
N865 H868 0.984 . S
N865 H869 0.985 . S
H866 N861 0.984 . S
H867 N861 0.985 . S
H868 N865 0.984 . S
H869 N865 0.985 . S
H870 N864 0.984 . S
H871 N864 0.984 . S
H872 N860 0.984 . S
H873 N860 0.985 . S
C874 C875 1.363 . S
C874 C880 1.379 . S
C874 N882 1.356 . S
C875 C874 1.363 . S
C875 C881 1.363 . S
C876 C877 1.363 . S
C876 C881 1.379 . S
C876 N883 1.356 . S
C877 C876 1.363 . S
C877 C880 1.363 . S
N878 C880 1.356 . S
N878 H890 0.984 . S
N878 H891 0.985 . S
N879 C881 1.356 . S
N879 H884 0.984 . S
N879 H885 0.985 . S
C880 C874 1.379 . S
C880 C877 1.363 . S
C880 N878 1.356 . S
C881 C875 1.363 . S
C881 C876 1.379 . S
C881 N879 1.356 . S
N882 C874 1.356 . S
N882 H888 0.984 . S
N882 H889 0.984 . S
N883 C876 1.356 . S
N883 H886 0.984 . S
N883 H887 0.985 . S
H884 N879 0.984 . S
H885 N879 0.985 . S
H886 N883 0.984 . S
H887 N883 0.985 . S
H888 N882 0.984 . S
H889 N882 0.984 . S
H890 N878 0.984 . S
H891 N878 0.985 . S
C892 C893 1.363 . S
C892 C898 1.379 . S
C892 N900 1.356 . S
C893 C892 1.363 . S
C893 C899 1.363 . S
C894 C895 1.363 . S
C894 C899 1.379 . S
C894 N901 1.356 . S
C895 C894 1.363 . S
C895 C898 1.363 . S
N896 C898 1.356 . S
N896 H908 0.984 . S
N896 H909 0.985 . S
N897 C899 1.356 . S
N897 H902 0.984 . S
N897 H903 0.985 . S
C898 C892 1.379 . S
C898 C895 1.363 . S
C898 N896 1.356 . S
C899 C893 1.363 . S
C899 C894 1.379 . S
C899 N897 1.356 . S
N900 C892 1.356 . S
N900 H906 0.984 . S
N900 H907 0.984 . S
N901 C894 1.356 . S
N901 H904 0.984 . S
N901 H905 0.985 . S
H902 N897 0.984 . S
H903 N897 0.985 . S
H904 N901 0.984 . S
H905 N901 0.985 . S
H906 N900 0.984 . S
H907 N900 0.984 . S
H908 N896 0.984 . S
H909 N896 0.985 . S
C910 C911 1.363 . S
C910 C916 1.379 . S
C910 N918 1.356 . S
C911 C910 1.363 . S
C911 C917 1.363 . S
C912 C913 1.363 . S
C912 C917 1.379 . S
C912 N919 1.356 . S
C913 C912 1.363 . S
C913 C916 1.363 . S
N914 C916 1.356 . S
N914 H926 0.984 . S
N914 H927 0.985 . S
N915 C917 1.356 . S
N915 H920 0.984 . S
N915 H921 0.985 . S
C916 C910 1.379 . S
C916 C913 1.363 . S
C916 N914 1.356 . S
C917 C911 1.363 . S
C917 C912 1.379 . S
C917 N915 1.356 . S
N918 C910 1.356 . S
N918 H924 0.984 . S
N918 H925 0.984 . S
N919 C912 1.356 . S
N919 H922 0.984 . S
N919 H923 0.985 . S
H920 N915 0.984 . S
H921 N915 0.985 . S
H922 N919 0.984 . S
H923 N919 0.985 . S
H924 N918 0.984 . S
H925 N918 0.984 . S
H926 N914 0.984 . S
H927 N914 0.985 . S
C928 C929 1.363 . S
C928 C934 1.379 1_556 S
C928 N936 1.356 . S
C929 C928 1.363 . S
C929 C935 1.363 . S
C930 C931 1.363 . S
C930 C935 1.379 1_554 S
C930 N937 1.356 . S
C931 C930 1.363 . S
C931 C934 1.363 . S
N932 C934 1.356 . S
N932 H944 0.984 . S
N932 H945 0.985 . S
N933 C935 1.356 . S
N933 H938 0.984 . S
N933 H939 0.985 . S
C934 C928 1.379 1_554 S
C934 C931 1.363 . S
C934 N932 1.356 . S
C935 C929 1.363 . S
C935 C930 1.379 1_556 S
C935 N933 1.356 . S
N936 C928 1.356 . S
N936 H942 0.984 . S
N936 H943 0.984 . S
N937 C930 1.356 . S
N937 H940 0.984 . S
N937 H941 0.985 . S
H938 N933 0.984 . S
H939 N933 0.985 . S
H940 N937 0.984 . S
H941 N937 0.985 . S
H942 N936 0.984 . S
H943 N936 0.984 . S
H944 N932 0.984 . S
H945 N932 0.985 . S
C946 C947 1.363 . S
C946 C952 1.379 1_556 S
C946 N954 1.356 . S
C947 C946 1.363 . S
C947 C953 1.363 . S
C948 C949 1.363 . S
C948 C953 1.379 1_554 S
C948 N955 1.356 . S
C949 C948 1.363 . S
C949 C952 1.363 . S
N950 C952 1.356 . S
N950 H962 0.984 . S
N950 H963 0.985 . S
N951 C953 1.356 . S
N951 H956 0.984 . S
N951 H957 0.985 . S
C952 C946 1.379 1_554 S
C952 C949 1.363 . S
C952 N950 1.356 . S
C953 C947 1.363 . S
C953 C948 1.379 1_556 S
C953 N951 1.356 . S
N954 C946 1.356 . S
N954 H960 0.984 . S
N954 H961 0.984 . S
N955 C948 1.356 . S
N955 H958 0.984 . S
N955 H959 0.985 . S
H956 N951 0.984 . S
H957 N951 0.985 . S
H958 N955 0.984 . S
H959 N955 0.985 . S
H960 N954 0.984 . S
H961 N954 0.984 . S
H962 N950 0.984 . S
H963 N950 0.985 . S
C964 C965 1.363 . S
C964 C970 1.379 . S
C964 N972 1.356 . S
C965 C964 1.363 . S
C965 C971 1.363 . S
C966 C967 1.363 . S
C966 C971 1.379 . S
C966 N973 1.356 . S
C967 C966 1.363 . S
C967 C970 1.363 . S
N968 C970 1.356 . S
N968 H980 0.984 . S
N968 H981 0.985 . S
N969 C971 1.356 . S
N969 H974 0.984 . S
N969 H975 0.985 . S
C970 C964 1.379 . S
C970 C967 1.363 . S
C970 N968 1.356 . S
C971 C965 1.363 . S
C971 C966 1.379 . S
C971 N969 1.356 . S
N972 C964 1.356 . S
N972 H978 0.984 . S
N972 H979 0.984 . S
N973 C966 1.356 . S
N973 H976 0.984 . S
N973 H977 0.985 . S
H974 N969 0.984 . S
H975 N969 0.985 . S
H976 N973 0.984 . S
H977 N973 0.985 . S
H978 N972 0.984 . S
H979 N972 0.984 . S
H980 N968 0.984 . S
H981 N968 0.985 . S
C982 C983 1.363 . S
C982 C988 1.379 . S
C982 N990 1.356 . S
C983 C982 1.363 . S
C983 C989 1.363 . S
C984 C985 1.363 . S
C984 C989 1.379 . S
C984 N991 1.356 . S
C985 C984 1.363 . S
C985 C988 1.363 . S
N986 C988 1.356 . S
N986 H998 0.984 . S
N986 H999 0.985 . S
N987 C989 1.356 . S
N987 H992 0.984 . S
N987 H993 0.985 . S
C988 C982 1.379 . S
C988 C985 1.363 . S
C988 N986 1.356 . S
C989 C983 1.363 . S
C989 C984 1.379 . S
C989 N987 1.356 . S
N990 C982 1.356 . S
N990 H996 0.984 . S
N990 H997 0.984 . S
N991 C984 1.356 . S
N991 H994 0.984 . S
N991 H995 0.985 . S
H992 N987 0.984 . S
H993 N987 0.985 . S
H994 N991 0.984 . S
H995 N991 0.985 . S
H996 N990 0.984 . S
H997 N990 0.984 . S
H998 N986 0.984 . S
H999 N986 0.985 . S
C1000 C1001 1.363 . S
C1000 C1006 1.379 1_554 S
C1000 N1008 1.356 . S
C1001 C1000 1.363 . S
C1001 C1007 1.363 . S
C1002 C1003 1.363 . S
C1002 C1007 1.379 1_556 S
C1002 N1009 1.356 . S
C1003 C1002 1.363 . S
C1003 C1006 1.363 . S
N1004 C1006 1.356 . S
N1004 H1016 0.984 . S
N1004 H1017 0.985 . S
N1005 C1007 1.356 . S
N1005 H1010 0.984 . S
N1005 H1011 0.985 . S
C1006 C1000 1.379 1_556 S
C1006 C1003 1.363 . S
C1006 N1004 1.356 . S
C1007 C1001 1.363 . S
C1007 C1002 1.379 1_554 S
C1007 N1005 1.356 . S
N1008 C1000 1.356 . S
N1008 H1014 0.984 . S
N1008 H1015 0.984 . S
N1009 C1002 1.356 . S
N1009 H1012 0.984 . S
N1009 H1013 0.985 . S
H1010 N1005 0.984 . S
H1011 N1005 0.985 . S
H1012 N1009 0.984 . S
H1013 N1009 0.985 . S
H1014 N1008 0.984 . S
H1015 N1008 0.984 . S
H1016 N1004 0.984 . S
H1017 N1004 0.985 . S
C1018 C1019 1.363 . S
C1018 C1024 1.379 1_556 S
C1018 N1026 1.356 . S
C1019 C1018 1.363 . S
C1019 C1025 1.363 . S
C1020 C1021 1.363 . S
C1020 C1025 1.379 1_554 S
C1020 N1027 1.356 . S
C1021 C1020 1.363 . S
C1021 C1024 1.363 . S
N1022 C1024 1.356 . S
N1022 H1034 0.984 . S
N1022 H1035 0.985 . S
N1023 C1025 1.356 . S
N1023 H1028 0.984 . S
N1023 H1029 0.985 . S
C1024 C1018 1.379 1_554 S
C1024 C1021 1.363 . S
C1024 N1022 1.356 . S
C1025 C1019 1.363 . S
C1025 C1020 1.379 1_556 S
C1025 N1023 1.356 . S
N1026 C1018 1.356 . S
N1026 H1032 0.984 . S
N1026 H1033 0.984 . S
N1027 C1020 1.356 . S
N1027 H1030 0.984 . S
N1027 H1031 0.985 . S
H1028 N1023 0.984 . S
H1029 N1023 0.985 . S
H1030 N1027 0.984 . S
H1031 N1027 0.985 . S
H1032 N1026 0.984 . S
H1033 N1026 0.984 . S
H1034 N1022 0.984 . S
H1035 N1022 0.985 . S
C1036 C1037 1.363 . S
C1036 C1042 1.379 . S
C1036 N1044 1.356 . S
C1037 C1036 1.363 . S
C1037 C1043 1.363 . S
C1038 C1039 1.363 . S
C1038 C1043 1.379 . S
C1038 N1045 1.356 . S
C1039 C1038 1.363 . S
C1039 C1042 1.363 . S
N1040 C1042 1.356 . S
N1040 H1052 0.984 . S
N1040 H1053 0.985 . S
N1041 C1043 1.356 . S
N1041 H1046 0.984 . S
N1041 H1047 0.985 . S
C1042 C1036 1.379 . S
C1042 C1039 1.363 . S
C1042 N1040 1.356 . S
C1043 C1037 1.363 . S
C1043 C1038 1.379 . S
C1043 N1041 1.356 . S
N1044 C1036 1.356 . S
N1044 H1050 0.984 . S
N1044 H1051 0.984 . S
N1045 C1038 1.356 . S
N1045 H1048 0.984 . S
N1045 H1049 0.985 . S
H1046 N1041 0.984 . S
H1047 N1041 0.985 . S
H1048 N1045 0.984 . S
H1049 N1045 0.985 . S
H1050 N1044 0.984 . S
H1051 N1044 0.984 . S
H1052 N1040 0.984 . S
H1053 N1040 0.985 . S
C1054 C1055 1.363 . S
C1054 C1060 1.379 . S
C1054 N1062 1.356 . S
C1055 C1054 1.363 . S
C1055 C1061 1.363 . S
C1056 C1057 1.363 . S
C1056 C1061 1.379 . S
C1056 N1063 1.356 . S
C1057 C1056 1.363 . S
C1057 C1060 1.363 . S
N1058 C1060 1.356 . S
N1058 H1070 0.984 . S
N1058 H1071 0.985 . S
N1059 C1061 1.356 . S
N1059 H1064 0.984 . S
N1059 H1065 0.985 . S
C1060 C1054 1.379 . S
C1060 C1057 1.363 . S
C1060 N1058 1.356 . S
C1061 C1055 1.363 . S
C1061 C1056 1.379 . S
C1061 N1059 1.356 . S
N1062 C1054 1.356 . S
N1062 H1068 0.984 . S
N1062 H1069 0.984 . S
N1063 C1056 1.356 . S
N1063 H1066 0.984 . S
N1063 H1067 0.985 . S
H1064 N1059 0.984 . S
H1065 N1059 0.985 . S
H1066 N1063 0.984 . S
H1067 N1063 0.985 . S
H1068 N1062 0.984 . S
H1069 N1062 0.984 . S
H1070 N1058 0.984 . S
H1071 N1058 0.985 . S
C1072 C1073 1.363 1_545 S
C1072 C1078 1.379 1_655 S
C1072 N1080 1.356 . S
C1073 C1072 1.363 1_565 S
C1073 C1079 1.363 . S
C1074 C1075 1.363 1_565 S
C1074 C1079 1.379 1_455 S
C1074 N1081 1.356 . S
C1075 C1074 1.363 1_545 S
C1075 C1078 1.363 . S
N1076 C1078 1.356 . S
N1076 H1088 0.984 . S
N1076 H1089 0.985 . S
N1077 C1079 1.356 . S
N1077 H1082 0.984 . S
N1077 H1083 0.985 . S
C1078 C1072 1.379 1_455 S
C1078 C1075 1.363 . S
C1078 N1076 1.356 . S
C1079 C1073 1.363 . S
C1079 C1074 1.379 1_655 S
C1079 N1077 1.356 . S
N1080 C1072 1.356 . S
N1080 H1086 0.984 . S
N1080 H1087 0.984 . S
N1081 C1074 1.356 . S
N1081 H1084 0.984 . S
N1081 H1085 0.985 . S
H1082 N1077 0.984 . S
H1083 N1077 0.985 . S
H1084 N1081 0.984 . S
H1085 N1081 0.985 . S
H1086 N1080 0.984 . S
H1087 N1080 0.984 . S
H1088 N1076 0.984 . S
H1089 N1076 0.985 . S
C1090 C1091 1.363 1_565 S
C1090 C1096 1.379 1_655 S
C1090 N1098 1.356 . S
C1091 C1090 1.363 1_545 S
C1091 C1097 1.363 . S
C1092 C1093 1.363 1_545 S
C1092 C1097 1.379 1_455 S
C1092 N1099 1.356 . S
C1093 C1092 1.363 1_565 S
C1093 C1096 1.363 . S
N1094 C1096 1.356 . S
N1094 H1106 0.984 . S
N1094 H1107 0.985 . S
N1095 C1097 1.356 . S
N1095 H1100 0.984 . S
N1095 H1101 0.985 . S
C1096 C1090 1.379 1_455 S
C1096 C1093 1.363 . S
C1096 N1094 1.356 . S
C1097 C1091 1.363 . S
C1097 C1092 1.379 1_655 S
C1097 N1095 1.356 . S
N1098 C1090 1.356 . S
N1098 H1104 0.984 . S
N1098 H1105 0.984 . S
N1099 C1092 1.356 . S
N1099 H1102 0.984 . S
N1099 H1103 0.985 . S
H1100 N1095 0.984 . S
H1101 N1095 0.985 . S
H1102 N1099 0.984 . S
H1103 N1099 0.985 . S
H1104 N1098 0.984 . S
H1105 N1098 0.984 . S
H1106 N1094 0.984 . S
H1107 N1094 0.985 . S
C1108 C1109 1.363 . S
C1108 C1114 1.379 1_455 S
C1108 N1116 1.356 . S
C1109 C1108 1.363 . S
C1109 C1115 1.363 1_545 S
C1110 C1111 1.363 . S
C1110 C1115 1.379 1_655 S
C1110 N1117 1.356 . S
C1111 C1110 1.363 . S
C1111 C1114 1.363 1_565 S
N1112 C1114 1.356 . S
N1112 H1124 0.984 . S
N1112 H1125 0.985 . S
N1113 C1115 1.356 . S
N1113 H1118 0.984 . S
N1113 H1119 0.985 . S
C1114 C1108 1.379 1_655 S
C1114 C1111 1.363 1_545 S
C1114 N1112 1.356 . S
C1115 C1109 1.363 1_565 S
C1115 C1110 1.379 1_455 S
C1115 N1113 1.356 . S
N1116 C1108 1.356 . S
N1116 H1122 0.984 . S
N1116 H1123 0.984 . S
N1117 C1110 1.356 . S
N1117 H1120 0.984 . S
N1117 H1121 0.985 . S
H1118 N1113 0.984 . S
H1119 N1113 0.985 . S
H1120 N1117 0.984 . S
H1121 N1117 0.985 . S
H1122 N1116 0.984 . S
H1123 N1116 0.984 . S
H1124 N1112 0.984 . S
H1125 N1112 0.985 . S
C1126 C1127 1.363 . S
C1126 C1132 1.379 1_655 S
C1126 N1134 1.356 . S
C1127 C1126 1.363 . S
C1127 C1133 1.363 1_545 S
C1128 C1129 1.363 . S
C1128 C1133 1.379 1_455 S
C1128 N1135 1.356 . S
C1129 C1128 1.363 . S
C1129 C1132 1.363 1_565 S
N1130 C1132 1.356 . S
N1130 H1142 0.984 . S
N1130 H1143 0.985 . S
N1131 C1133 1.356 . S
N1131 H1136 0.984 . S
N1131 H1137 0.985 . S
C1132 C1126 1.379 1_455 S
C1132 C1129 1.363 1_545 S
C1132 N1130 1.356 . S
C1133 C1127 1.363 1_565 S
C1133 C1128 1.379 1_655 S
C1133 N1131 1.356 . S
N1134 C1126 1.356 . S
N1134 H1140 0.984 . S
N1134 H1141 0.984 . S
N1135 C1128 1.356 . S
N1135 H1138 0.984 . S
N1135 H1139 0.985 . S
H1136 N1131 0.984 . S
H1137 N1131 0.985 . S
H1138 N1135 0.984 . S
H1139 N1135 0.985 . S
H1140 N1134 0.984 . S
H1141 N1134 0.984 . S
H1142 N1130 0.984 . S
H1143 N1130 0.985 . S
C1144 C1145 1.363 . S
C1144 C1150 1.379 . S
C1144 N1152 1.356 . S
C1145 C1144 1.363 . S
C1145 C1151 1.363 . S
C1146 C1147 1.363 . S
C1146 C1151 1.379 . S
C1146 N1153 1.356 . S
C1147 C1146 1.363 . S
C1147 C1150 1.363 . S
N1148 C1150 1.356 . S
N1148 H1160 0.984 . S
N1148 H1161 0.985 . S
N1149 C1151 1.356 . S
N1149 H1154 0.984 . S
N1149 H1155 0.985 . S
C1150 C1144 1.379 . S
C1150 C1147 1.363 . S
C1150 N1148 1.356 . S
C1151 C1145 1.363 . S
C1151 C1146 1.379 . S
C1151 N1149 1.356 . S
N1152 C1144 1.356 . S
N1152 H1158 0.984 . S
N1152 H1159 0.984 . S
N1153 C1146 1.356 . S
N1153 H1156 0.984 . S
N1153 H1157 0.985 . S
H1154 N1149 0.984 . S
H1155 N1149 0.985 . S
H1156 N1153 0.984 . S
H1157 N1153 0.985 . S
H1158 N1152 0.984 . S
H1159 N1152 0.984 . S
H1160 N1148 0.984 . S
H1161 N1148 0.985 . S
C1162 C1163 1.363 . S
C1162 C1168 1.379 . S
C1162 N1170 1.356 . S
C1163 C1162 1.363 . S
C1163 C1169 1.363 . S
C1164 C1165 1.363 . S
C1164 C1169 1.379 . S
C1164 N1171 1.356 . S
C1165 C1164 1.363 . S
C1165 C1168 1.363 . S
N1166 C1168 1.356 . S
N1166 H1178 0.984 . S
N1166 H1179 0.985 . S
N1167 C1169 1.356 . S
N1167 H1172 0.984 . S
N1167 H1173 0.985 . S
C1168 C1162 1.379 . S
C1168 C1165 1.363 . S
C1168 N1166 1.356 . S
C1169 C1163 1.363 . S
C1169 C1164 1.379 . S
C1169 N1167 1.356 . S
N1170 C1162 1.356 . S
N1170 H1176 0.984 . S
N1170 H1177 0.984 . S
N1171 C1164 1.356 . S
N1171 H1174 0.984 . S
N1171 H1175 0.985 . S
H1172 N1167 0.984 . S
H1173 N1167 0.985 . S
H1174 N1171 0.984 . S
H1175 N1171 0.985 . S
H1176 N1170 0.984 . S
H1177 N1170 0.984 . S
H1178 N1166 0.984 . S
H1179 N1166 0.985 . S
C1180 C1181 1.363 . S
C1180 C1186 1.379 . S
C1180 N1188 1.356 . S
C1181 C1180 1.363 . S
C1181 C1187 1.363 . S
C1182 C1183 1.363 . S
C1182 C1187 1.379 . S
C1182 N1189 1.356 . S
C1183 C1182 1.363 . S
C1183 C1186 1.363 . S
N1184 C1186 1.356 . S
N1184 H1196 0.984 . S
N1184 H1197 0.985 . S
N1185 C1187 1.356 . S
N1185 H1190 0.984 . S
N1185 H1191 0.985 . S
C1186 C1180 1.379 . S
C1186 C1183 1.363 . S
C1186 N1184 1.356 . S
C1187 C1181 1.363 . S
C1187 C1182 1.379 . S
C1187 N1185 1.356 . S
N1188 C1180 1.356 . S
N1188 H1194 0.984 . S
N1188 H1195 0.984 . S
N1189 C1182 1.356 . S
N1189 H1192 0.984 . S
N1189 H1193 0.985 . S
H1190 N1185 0.984 . S
H1191 N1185 0.985 . S
H1192 N1189 0.984 . S
H1193 N1189 0.985 . S
H1194 N1188 0.984 . S
H1195 N1188 0.984 . S
H1196 N1184 0.984 . S
H1197 N1184 0.985 . S
C1198 C1199 1.363 . S
C1198 C1204 1.379 . S
C1198 N1206 1.356 . S
C1199 C1198 1.363 . S
C1199 C1205 1.363 . S
C1200 C1201 1.363 . S
C1200 C1205 1.379 . S
C1200 N1207 1.356 . S
C1201 C1200 1.363 . S
C1201 C1204 1.363 . S
N1202 C1204 1.356 . S
N1202 H1214 0.984 . S
N1202 H1215 0.985 . S
N1203 C1205 1.356 . S
N1203 H1208 0.984 . S
N1203 H1209 0.985 . S
C1204 C1198 1.379 . S
C1204 C1201 1.363 . S
C1204 N1202 1.356 . S
C1205 C1199 1.363 . S
C1205 C1200 1.379 . S
C1205 N1203 1.356 . S
N1206 C1198 1.356 . S
N1206 H1212 0.984 . S
N1206 H1213 0.984 . S
N1207 C1200 1.356 . S
N1207 H1210 0.984 . S
N1207 H1211 0.985 . S
H1208 N1203 0.984 . S
H1209 N1203 0.985 . S
H1210 N1207 0.984 . S
H1211 N1207 0.985 . S
H1212 N1206 0.984 . S
H1213 N1206 0.984 . S
H1214 N1202 0.984 . S
H1215 N1202 0.985 . S
C1216 C1217 1.363 . S
C1216 C1222 1.379 . S
C1216 N1224 1.356 . S
C1217 C1216 1.363 . S
C1217 C1223 1.363 . S
C1218 C1219 1.363 . S
C1218 C1223 1.379 . S
C1218 N1225 1.356 . S
C1219 C1218 1.363 . S
C1219 C1222 1.363 . S
N1220 C1222 1.356 . S
N1220 H1232 0.984 . S
N1220 H1233 0.985 . S
N1221 C1223 1.356 . S
N1221 H1226 0.984 . S
N1221 H1227 0.985 . S
C1222 C1216 1.379 . S
C1222 C1219 1.363 . S
C1222 N1220 1.356 . S
C1223 C1217 1.363 . S
C1223 C1218 1.379 . S
C1223 N1221 1.356 . S
N1224 C1216 1.356 . S
N1224 H1230 0.984 . S
N1224 H1231 0.984 . S
N1225 C1218 1.356 . S
N1225 H1228 0.984 . S
N1225 H1229 0.985 . S
H1226 N1221 0.984 . S
H1227 N1221 0.985 . S
H1228 N1225 0.984 . S
H1229 N1225 0.985 . S
H1230 N1224 0.984 . S
H1231 N1224 0.984 . S
H1232 N1220 0.984 . S
H1233 N1220 0.985 . S
C1234 C1235 1.363 . S
C1234 C1240 1.379 . S
C1234 N1242 1.356 . S
C1235 C1234 1.363 . S
C1235 C1241 1.363 . S
C1236 C1237 1.363 . S
C1236 C1241 1.379 . S
C1236 N1243 1.356 . S
C1237 C1236 1.363 . S
C1237 C1240 1.363 . S
N1238 C1240 1.356 . S
N1238 H1250 0.984 . S
N1238 H1251 0.985 . S
N1239 C1241 1.356 . S
N1239 H1244 0.984 . S
N1239 H1245 0.985 . S
C1240 C1234 1.379 . S
C1240 C1237 1.363 . S
C1240 N1238 1.356 . S
C1241 C1235 1.363 . S
C1241 C1236 1.379 . S
C1241 N1239 1.356 . S
N1242 C1234 1.356 . S
N1242 H1248 0.984 . S
N1242 H1249 0.984 . S
N1243 C1236 1.356 . S
N1243 H1246 0.984 . S
N1243 H1247 0.985 . S
H1244 N1239 0.984 . S
H1245 N1239 0.985 . S
H1246 N1243 0.984 . S
H1247 N1243 0.985 . S
H1248 N1242 0.984 . S
H1249 N1242 0.984 . S
H1250 N1238 0.984 . S
H1251 N1238 0.985 . S
C1252 C1253 1.363 . S
C1252 C1258 1.379 . S
C1252 N1260 1.356 . S
C1253 C1252 1.363 . S
C1253 C1259 1.363 . S
C1254 C1255 1.363 . S
C1254 C1259 1.379 . S
C1254 N1261 1.356 . S
C1255 C1254 1.363 . S
C1255 C1258 1.363 . S
N1256 C1258 1.356 . S
N1256 H1268 0.984 . S
N1256 H1269 0.985 . S
N1257 C1259 1.356 . S
N1257 H1262 0.984 . S
N1257 H1263 0.985 . S
C1258 C1252 1.379 . S
C1258 C1255 1.363 . S
C1258 N1256 1.356 . S
C1259 C1253 1.363 . S
C1259 C1254 1.379 . S
C1259 N1257 1.356 . S
N1260 C1252 1.356 . S
N1260 H1266 0.984 . S
N1260 H1267 0.984 . S
N1261 C1254 1.356 . S
N1261 H1264 0.984 . S
N1261 H1265 0.985 . S
H1262 N1257 0.984 . S
H1263 N1257 0.985 . S
H1264 N1261 0.984 . S
H1265 N1261 0.985 . S
H1266 N1260 0.984 . S
H1267 N1260 0.984 . S
H1268 N1256 0.984 . S
H1269 N1256 0.985 . S
C1270 C1271 1.363 . S
C1270 C1276 1.379 . S
C1270 N1278 1.356 . S
C1271 C1270 1.363 . S
C1271 C1277 1.363 . S
C1272 C1273 1.363 . S
C1272 C1277 1.379 . S
C1272 N1279 1.356 . S
C1273 C1272 1.363 . S
C1273 C1276 1.363 . S
N1274 C1276 1.356 . S
N1274 H1286 0.984 . S
N1274 H1287 0.985 . S
N1275 C1277 1.356 . S
N1275 H1280 0.984 . S
N1275 H1281 0.985 . S
C1276 C1270 1.379 . S
C1276 C1273 1.363 . S
C1276 N1274 1.356 . S
C1277 C1271 1.363 . S
C1277 C1272 1.379 . S
C1277 N1275 1.356 . S
N1278 C1270 1.356 . S
N1278 H1284 0.984 . S
N1278 H1285 0.984 . S
N1279 C1272 1.356 . S
N1279 H1282 0.984 . S
N1279 H1283 0.985 . S
H1280 N1275 0.984 . S
H1281 N1275 0.985 . S
H1282 N1279 0.984 . S
H1283 N1279 0.985 . S
H1284 N1278 0.984 . S
H1285 N1278 0.984 . S
H1286 N1274 0.984 . S
H1287 N1274 0.985 . S
C1288 C1289 1.363 . S
C1288 C1294 1.379 . S
C1288 N1296 1.356 . S
C1289 C1288 1.363 . S
C1289 C1295 1.363 . S
C1290 C1291 1.363 . S
C1290 C1295 1.379 . S
C1290 N1297 1.356 . S
C1291 C1290 1.363 . S
C1291 C1294 1.363 . S
N1292 C1294 1.356 . S
N1292 H1304 0.984 . S
N1292 H1305 0.985 . S
N1293 C1295 1.356 . S
N1293 H1298 0.984 . S
N1293 H1299 0.985 . S
C1294 C1288 1.379 . S
C1294 C1291 1.363 . S
C1294 N1292 1.356 . S
C1295 C1289 1.363 . S
C1295 C1290 1.379 . S
C1295 N1293 1.356 . S
N1296 C1288 1.356 . S
N1296 H1302 0.984 . S
N1296 H1303 0.984 . S
N1297 C1290 1.356 . S
N1297 H1300 0.984 . S
N1297 H1301 0.985 . S
H1298 N1293 0.984 . S
H1299 N1293 0.985 . S
H1300 N1297 0.984 . S
H1301 N1297 0.985 . S
H1302 N1296 0.984 . S
H1303 N1296 0.984 . S
H1304 N1292 0.984 . S
H1305 N1292 0.985 . S
C1306 C1307 1.363 . S
C1306 C1312 1.379 . S
C1306 N1314 1.356 . S
C1307 C1306 1.363 . S
C1307 C1313 1.363 . S
C1308 C1309 1.363 . S
C1308 C1313 1.379 . S
C1308 N1315 1.356 . S
C1309 C1308 1.363 . S
C1309 C1312 1.363 . S
N1310 C1312 1.356 . S
N1310 H1322 0.984 . S
N1310 H1323 0.985 . S
N1311 C1313 1.356 . S
N1311 H1316 0.984 . S
N1311 H1317 0.985 . S
C1312 C1306 1.379 . S
C1312 C1309 1.363 . S
C1312 N1310 1.356 . S
C1313 C1307 1.363 . S
C1313 C1308 1.379 . S
C1313 N1311 1.356 . S
N1314 C1306 1.356 . S
N1314 H1320 0.984 . S
N1314 H1321 0.984 . S
N1315 C1308 1.356 . S
N1315 H1318 0.984 . S
N1315 H1319 0.985 . S
H1316 N1311 0.984 . S
H1317 N1311 0.985 . S
H1318 N1315 0.984 . S
H1319 N1315 0.985 . S
H1320 N1314 0.984 . S
H1321 N1314 0.984 . S
H1322 N1310 0.984 . S
H1323 N1310 0.985 . S
C1324 C1325 1.363 . S
C1324 C1330 1.379 . S
C1324 N1332 1.356 . S
C1325 C1324 1.363 . S
C1325 C1331 1.363 . S
C1326 C1327 1.363 . S
C1326 C1331 1.379 . S
C1326 N1333 1.356 . S
C1327 C1326 1.363 . S
C1327 C1330 1.363 . S
N1328 C1330 1.356 . S
N1328 H1340 0.984 . S
N1328 H1341 0.985 . S
N1329 C1331 1.356 . S
N1329 H1334 0.984 . S
N1329 H1335 0.985 . S
C1330 C1324 1.379 . S
C1330 C1327 1.363 . S
C1330 N1328 1.356 . S
C1331 C1325 1.363 . S
C1331 C1326 1.379 . S
C1331 N1329 1.356 . S
N1332 C1324 1.356 . S
N1332 H1338 0.984 . S
N1332 H1339 0.984 . S
N1333 C1326 1.356 . S
N1333 H1336 0.984 . S
N1333 H1337 0.985 . S
H1334 N1329 0.984 . S
H1335 N1329 0.985 . S
H1336 N1333 0.984 . S
H1337 N1333 0.985 . S
H1338 N1332 0.984 . S
H1339 N1332 0.984 . S
H1340 N1328 0.984 . S
H1341 N1328 0.985 . S
C1342 C1343 1.363 . S
C1342 C1348 1.379 . S
C1342 N1350 1.356 . S
C1343 C1342 1.363 . S
C1343 C1349 1.363 . S
C1344 C1345 1.363 . S
C1344 C1349 1.379 . S
C1344 N1351 1.356 . S
C1345 C1344 1.363 . S
C1345 C1348 1.363 . S
N1346 C1348 1.356 . S
N1346 H1358 0.984 . S
N1346 H1359 0.985 . S
N1347 C1349 1.356 . S
N1347 H1352 0.984 . S
N1347 H1353 0.985 . S
C1348 C1342 1.379 . S
C1348 C1345 1.363 . S
C1348 N1346 1.356 . S
C1349 C1343 1.363 . S
C1349 C1344 1.379 . S
C1349 N1347 1.356 . S
N1350 C1342 1.356 . S
N1350 H1356 0.984 . S
N1350 H1357 0.984 . S
N1351 C1344 1.356 . S
N1351 H1354 0.984 . S
N1351 H1355 0.985 . S
H1352 N1347 0.984 . S
H1353 N1347 0.985 . S
H1354 N1351 0.984 . S
H1355 N1351 0.985 . S
H1356 N1350 0.984 . S
H1357 N1350 0.984 . S
H1358 N1346 0.984 . S
H1359 N1346 0.985 . S
C1360 C1361 1.363 . S
C1360 C1366 1.379 . S
C1360 N1368 1.356 . S
C1361 C1360 1.363 . S
C1361 C1367 1.363 . S
C1362 C1363 1.363 . S
C1362 C1367 1.379 . S
C1362 N1369 1.356 . S
C1363 C1362 1.363 . S
C1363 C1366 1.363 . S
N1364 C1366 1.356 . S
N1364 H1376 0.984 . S
N1364 H1377 0.985 . S
N1365 C1367 1.356 . S
N1365 H1370 0.984 1_545 S
N1365 H1371 0.985 . S
C1366 C1360 1.379 . S
C1366 C1363 1.363 . S
C1366 N1364 1.356 . S
C1367 C1361 1.363 . S
C1367 C1362 1.379 . S
C1367 N1365 1.356 . S
N1368 C1360 1.356 . S
N1368 H1374 0.984 . S
N1368 H1375 0.984 1_545 S
N1369 C1362 1.356 . S
N1369 H1372 0.984 . S
N1369 H1373 0.985 . S
H1370 N1365 0.984 1_565 S
H1371 N1365 0.985 . S
H1372 N1369 0.984 . S
H1373 N1369 0.985 . S
H1374 N1368 0.984 . S
H1375 N1368 0.984 1_565 S
H1376 N1364 0.984 . S
H1377 N1364 0.985 . S
C1378 C1379 1.363 . S
C1378 C1384 1.379 . S
C1378 N1386 1.356 . S
C1379 C1378 1.363 . S
C1379 C1385 1.363 . S
C1380 C1381 1.363 . S
C1380 C1385 1.379 . S
C1380 N1387 1.356 . S
C1381 C1380 1.363 . S
C1381 C1384 1.363 . S
N1382 C1384 1.356 . S
N1382 H1394 0.984 . S
N1382 H1395 0.985 1_565 S
N1383 C1385 1.356 . S
N1383 H1388 0.984 . S
N1383 H1389 0.985 . S
C1384 C1378 1.379 . S
C1384 C1381 1.363 . S
C1384 N1382 1.356 . S
C1385 C1379 1.363 . S
C1385 C1380 1.379 . S
C1385 N1383 1.356 . S
N1386 C1378 1.356 . S
N1386 H1392 0.984 . S
N1386 H1393 0.984 . S
N1387 C1380 1.356 . S
N1387 H1390 0.984 1_565 S
N1387 H1391 0.985 . S
H1388 N1383 0.984 . S
H1389 N1383 0.985 . S
H1390 N1387 0.984 1_545 S
H1391 N1387 0.985 . S
H1392 N1386 0.984 . S
H1393 N1386 0.984 . S
H1394 N1382 0.984 . S
H1395 N1382 0.985 1_545 S
C1396 C1397 1.363 . S
C1396 C1402 1.379 . S
C1396 N1404 1.356 . S
C1397 C1396 1.363 . S
C1397 C1403 1.363 . S
C1398 C1399 1.363 . S
C1398 C1403 1.379 . S
C1398 N1405 1.356 . S
C1399 C1398 1.363 . S
C1399 C1402 1.363 . S
N1400 C1402 1.356 . S
N1400 H1412 0.984 . S
N1400 H1413 0.985 . S
N1401 C1403 1.356 . S
N1401 H1406 0.984 1_565 S
N1401 H1407 0.985 . S
C1402 C1396 1.379 . S
C1402 C1399 1.363 . S
C1402 N1400 1.356 . S
C1403 C1397 1.363 . S
C1403 C1398 1.379 . S
C1403 N1401 1.356 . S
N1404 C1396 1.356 . S
N1404 H1410 0.984 . S
N1404 H1411 0.984 1_565 S
N1405 C1398 1.356 . S
N1405 H1408 0.984 . S
N1405 H1409 0.985 . S
H1406 N1401 0.984 1_545 S
H1407 N1401 0.985 . S
H1408 N1405 0.984 . S
H1409 N1405 0.985 . S
H1410 N1404 0.984 . S
H1411 N1404 0.984 1_545 S
H1412 N1400 0.984 . S
H1413 N1400 0.985 . S
C1414 C1415 1.363 . S
C1414 C1420 1.379 . S
C1414 N1422 1.356 . S
C1415 C1414 1.363 . S
C1415 C1421 1.363 . S
C1416 C1417 1.363 . S
C1416 C1421 1.379 . S
C1416 N1423 1.356 . S
C1417 C1416 1.363 . S
C1417 C1420 1.363 . S
N1418 C1420 1.356 . S
N1418 H1430 0.984 . S
N1418 H1431 0.985 . S
N1419 C1421 1.356 . S
N1419 H1424 0.984 1_545 S
N1419 H1425 0.985 . S
C1420 C1414 1.379 . S
C1420 C1417 1.363 . S
C1420 N1418 1.356 . S
C1421 C1415 1.363 . S
C1421 C1416 1.379 . S
C1421 N1419 1.356 . S
N1422 C1414 1.356 . S
N1422 H1428 0.984 . S
N1422 H1429 0.984 1_545 S
N1423 C1416 1.356 . S
N1423 H1426 0.984 . S
N1423 H1427 0.985 . S
H1424 N1419 0.984 1_565 S
H1425 N1419 0.985 . S
H1426 N1423 0.984 . S
H1427 N1423 0.985 . S
H1428 N1422 0.984 . S
H1429 N1422 0.984 1_565 S
H1430 N1418 0.984 . S
H1431 N1418 0.985 . S
C1432 C1433 1.363 . S
C1432 C1438 1.379 . S
C1432 N1440 1.356 . S
C1433 C1432 1.363 . S
C1433 C1439 1.363 . S
C1434 C1435 1.363 . S
C1434 C1439 1.379 . S
C1434 N1441 1.356 . S
C1435 C1434 1.363 . S
C1435 C1438 1.363 . S
N1436 C1438 1.356 . S
N1436 H1448 0.984 . S
N1436 H1449 0.985 1_565 S
N1437 C1439 1.356 . S
N1437 H1442 0.984 . S
N1437 H1443 0.985 . S
C1438 C1432 1.379 . S
C1438 C1435 1.363 . S
C1438 N1436 1.356 . S
C1439 C1433 1.363 . S
C1439 C1434 1.379 . S
C1439 N1437 1.356 . S
N1440 C1432 1.356 . S
N1440 H1446 0.984 . S
N1440 H1447 0.984 . S
N1441 C1434 1.356 . S
N1441 H1444 0.984 1_565 S
N1441 H1445 0.985 . S
H1442 N1437 0.984 . S
H1443 N1437 0.985 . S
H1444 N1441 0.984 1_545 S
H1445 N1441 0.985 . S
H1446 N1440 0.984 . S
H1447 N1440 0.984 . S
H1448 N1436 0.984 . S
H1449 N1436 0.985 1_545 S
C1450 C1451 1.363 . S
C1450 C1456 1.379 . S
C1450 N1458 1.356 . S
C1451 C1450 1.363 . S
C1451 C1457 1.363 . S
C1452 C1453 1.363 . S
C1452 C1457 1.379 . S
C1452 N1459 1.356 . S
C1453 C1452 1.363 . S
C1453 C1456 1.363 . S
N1454 C1456 1.356 . S
N1454 H1466 0.984 . S
N1454 H1467 0.985 1_545 S
N1455 C1457 1.356 . S
N1455 H1460 0.984 . S
N1455 H1461 0.985 . S
C1456 C1450 1.379 . S
C1456 C1453 1.363 . S
C1456 N1454 1.356 . S
C1457 C1451 1.363 . S
C1457 C1452 1.379 . S
C1457 N1455 1.356 . S
N1458 C1450 1.356 . S
N1458 H1464 0.984 . S
N1458 H1465 0.984 . S
N1459 C1452 1.356 . S
N1459 H1462 0.984 1_545 S
N1459 H1463 0.985 . S
H1460 N1455 0.984 . S
H1461 N1455 0.985 . S
H1462 N1459 0.984 1_565 S
H1463 N1459 0.985 . S
H1464 N1458 0.984 . S
H1465 N1458 0.984 . S
H1466 N1454 0.984 . S
H1467 N1454 0.985 1_565 S
C1468 C1469 1.363 . S
C1468 C1474 1.379 . S
C1468 N1476 1.356 . S
C1469 C1468 1.363 . S
C1469 C1475 1.363 . S
C1470 C1471 1.363 . S
C1470 C1475 1.379 . S
C1470 N1477 1.356 . S
C1471 C1470 1.363 . S
C1471 C1474 1.363 . S
N1472 C1474 1.356 . S
N1472 H1484 0.984 . S
N1472 H1485 0.985 . S
N1473 C1475 1.356 . S
N1473 H1478 0.984 1_545 S
N1473 H1479 0.985 . S
C1474 C1468 1.379 . S
C1474 C1471 1.363 . S
C1474 N1472 1.356 . S
C1475 C1469 1.363 . S
C1475 C1470 1.379 . S
C1475 N1473 1.356 . S
N1476 C1468 1.356 . S
N1476 H1482 0.984 . S
N1476 H1483 0.984 1_545 S
N1477 C1470 1.356 . S
N1477 H1480 0.984 . S
N1477 H1481 0.985 . S
H1478 N1473 0.984 1_565 S
H1479 N1473 0.985 . S
H1480 N1477 0.984 . S
H1481 N1477 0.985 . S
H1482 N1476 0.984 . S
H1483 N1476 0.984 1_565 S
H1484 N1472 0.984 . S
H1485 N1472 0.985 . S
C1486 C1487 1.363 . S
C1486 C1492 1.379 . S
C1486 N1494 1.356 . S
C1487 C1486 1.363 . S
C1487 C1493 1.363 . S
C1488 C1489 1.363 . S
C1488 C1493 1.379 . S
C1488 N1495 1.356 . S
C1489 C1488 1.363 . S
C1489 C1492 1.363 . S
N1490 C1492 1.356 . S
N1490 H1502 0.984 . S
N1490 H1503 0.985 1_565 S
N1491 C1493 1.356 . S
N1491 H1496 0.984 . S
N1491 H1497 0.985 . S
C1492 C1486 1.379 . S
C1492 C1489 1.363 . S
C1492 N1490 1.356 . S
C1493 C1487 1.363 . S
C1493 C1488 1.379 . S
C1493 N1491 1.356 . S
N1494 C1486 1.356 . S
N1494 H1500 0.984 . S
N1494 H1501 0.984 . S
N1495 C1488 1.356 . S
N1495 H1498 0.984 1_565 S
N1495 H1499 0.985 . S
H1496 N1491 0.984 . S
H1497 N1491 0.985 . S
H1498 N1495 0.984 1_545 S
H1499 N1495 0.985 . S
H1500 N1494 0.984 . S
H1501 N1494 0.984 . S
H1502 N1490 0.984 . S
H1503 N1490 0.985 1_545 S
C641 C9 1.625 . S
C643 C369 1.625 . S
C659 C49 1.625 . S
C661 C329 1.625 . S
C677 C449 1.625 . S
C679 C89 1.625 . S
C695 C129 1.625 . S
C697 C409 1.625 . S
C713 C539 1.625 . S
C715 C179 1.625 . S
C731 C499 1.625 . S
C733 C219 1.625 . S
C749 C619 1.625 . S
C751 C259 1.625 . S
C767 C299 1.625 . S
C769 C579 1.625 . S
C785 C88 1.769 . S
C787 C8 1.769 . S
C803 C128 1.769 . S
C805 C48 1.769 . S
C821 C258 1.769 . S
C823 C178 1.769 . S
C839 C218 1.769 . S
C841 C298 1.769 . S
C857 C408 1.769 . S
C859 C328 1.769 . S
C875 C448 1.769 . S
C877 C368 1.769 . S
C893 C498 1.769 . S
C895 C578 1.769 . S
C911 C538 1.769 . S
C913 C618 1.769 . S
C929 C208 1.523 . S
C931 C18 1.523 . S
C947 C168 1.523 . S
C949 C58 1.523 . S
C965 C98 1.523 . S
C967 C288 1.523 . S
C983 C248 1.523 . S
C985 C138 1.523 . S
C1001 C338 1.523 . S
C1003 C528 1.523 . S
C1019 C488 1.523 . S
C1021 C378 1.523 . S
C1037 C418 1.523 . S
C1039 C608 1.523 . S
C1055 C568 1.523 . S
C1057 C458 1.523 . S
C1073 C59 1.606 . S
C1075 C19 1.606 . S
C1091 C139 1.606 . S
C1093 C99 1.606 . S
C1109 C209 1.606 . S
C1111 C169 1.606 . S
C1127 C249 1.606 . S
C1129 C289 1.606 . S
C1145 C379 1.606 . S
C1147 C339 1.606 . S
C1163 C459 1.606 . S
C1165 C419 1.606 . S
C1181 C489 1.606 . S
C1183 C529 1.606 . S
C1199 C569 1.606 . S
C1201 C609 1.606 . S
C1217 C15 1.444 . S
C1219 C5 1.444 . S
C1235 C55 1.444 . S
C1237 C45 1.444 . S
C1253 C95 1.444 . S
C1255 C85 1.444 . S
C1271 C125 1.444 . S
C1273 C135 1.444 . S
C1289 C165 1.444 . S
C1291 C175 1.444 . S
C1307 C215 1.444 . S
C1309 C205 1.444 . S
C1325 C245 1.444 . S
C1327 C255 1.444 . S
C1343 C285 1.444 . S
C1345 C295 1.444 . S
C1361 C325 1.444 1_545 S
C1363 C335 1.444 . S
C1379 C375 1.444 . S
C1381 C365 1.444 1_565 S
C1397 C405 1.444 1_565 S
C1399 C415 1.444 . S
C1415 C445 1.444 1_545 S
C1417 C455 1.444 . S
C1433 C485 1.444 . S
C1435 C495 1.444 1_565 S
C1451 C525 1.444 . S
C1453 C535 1.444 1_545 S
C1469 C575 1.444 1_545 S
C1471 C565 1.444 . S
C1487 C605 1.444 . S
C1489 C615 1.444 1_565 S
