# Generated by pormake.
# Topology umx, (4)-cn, num edge types: 1
# Building blocks:
#     Node 0, Type 0, BuildingBlock: CEKHIL_clean_sbu_0, # of connection points: 4
#     Node 1, Type 0, BuildingBlock: CEKHIL_clean_sbu_0, # of connection points: 4
#     Node 2, Type 0, BuildingBlock: CEKHIL_clean_sbu_0, # of connection points: 4
#     Node 3, Type 0, BuildingBlock: CEKHIL_clean_sbu_0, # of connection points: 4
#     Node 4, Type 0, BuildingBlock: CEKHIL_clean_sbu_0, # of connection points: 4
#     Node 5, Type 0, BuildingBlock: CEKHIL_clean_sbu_0, # of connection points: 4
#     Node 6, Type 0, BuildingBlock: CEKHIL_clean_sbu_0, # of connection points: 4
#     Node 7, Type 0, BuildingBlock: CEKHIL_clean_sbu_0, # of connection points: 4
#     Edge 8, Type (0, 0), BuildingBlock: AJUNOK_clean_linker_0, # of connection points: 2
#     Edge 9, Type (0, 0), BuildingBlock: AJUNOK_clean_linker_0, # of connection points: 2
#     Edge 10, Type (0, 0), BuildingBlock: AJUNOK_clean_linker_0, # of connection points: 2
#     Edge 11, Type (0, 0), BuildingBlock: AJUNOK_clean_linker_0, # of connection points: 2
#     Edge 12, Type (0, 0), BuildingBlock: AJUNOK_clean_linker_0, # of connection points: 2
#     Edge 13, Type (0, 0), BuildingBlock: AJUNOK_clean_linker_0, # of connection points: 2
#     Edge 14, Type (0, 0), BuildingBlock: AJUNOK_clean_linker_0, # of connection points: 2
#     Edge 15, Type (0, 0), BuildingBlock: AJUNOK_clean_linker_0, # of connection points: 2
#     Edge 16, Type (0, 0), BuildingBlock: AJUNOK_clean_linker_0, # of connection points: 2
#     Edge 17, Type (0, 0), BuildingBlock: AJUNOK_clean_linker_0, # of connection points: 2
#     Edge 18, Type (0, 0), BuildingBlock: AJUNOK_clean_linker_0, # of connection points: 2
#     Edge 19, Type (0, 0), BuildingBlock: AJUNOK_clean_linker_0, # of connection points: 2
#     Edge 20, Type (0, 0), BuildingBlock: AJUNOK_clean_linker_0, # of connection points: 2
#     Edge 21, Type (0, 0), BuildingBlock: AJUNOK_clean_linker_0, # of connection points: 2
#     Edge 22, Type (0, 0), BuildingBlock: AJUNOK_clean_linker_0, # of connection points: 2
#     Edge 23, Type (0, 0), BuildingBlock: AJUNOK_clean_linker_0, # of connection points: 2
# Relax obj value: 0.075
# Max RMSD: 0.186
# Mean RMSD: 0.186
data_MOF--net-umx--node1-CEKHIL_clean_sbu_0--edge1-AJUNOK_clean_linker_0
_symmetry_space_group_name_H-M    P1
_symmetry_Int_Tables_number       1
_symmetry_cell_setting            triclinic
loop_
_symmetry_equiv_pos_as_xyz
'x, y, z'
_cell_length_a     28.962431
_cell_length_b     28.960016
_cell_length_c     20.179526
_cell_angle_alpha  89.941437
_cell_angle_beta   89.984785
_cell_angle_gamma 90.043478
loop_
_atom_site_label
_atom_site_type_symbol
_atom_site_fract_x
_atom_site_fract_y
_atom_site_fract_z
_atom_type_partial_charge
Co0 Co 0.19487 0.4357 0.99868 0.0
O1 O 0.25206 0.40244 0.99352 0.0
O2 O 0.18675 0.3724 0.03074 0.0
C3 C 0.19915 0.4642 0.89525 0.0
O4 O 0.12882 0.46134 0.007 0.0
Co5 Co 0.19918 0.542 0.99143 0.0
O6 O 0.13156 0.53673 0.98023 0.0
C7 C 0.21988 0.49684 0.11844 0.0
C8 C 0.23013 0.36676 0.01554 0.0
C9 C 0.10882 0.50041 0.99447 0.0
O10 O 0.21027 0.45784 0.09112 0.0
O11 O 0.22026 0.53484 0.08592 0.0
O12 O 0.18337 0.42303 0.90611 0.0
O13 O 0.21612 0.48535 0.94638 0.0
Co14 Co 0.57335 0.18657 0.4944 0.0
O15 O 0.60488 0.24465 0.49188 0.0
O16 O 0.63683 0.17903 0.52493 0.0
C17 C 0.54335 0.19221 0.39177 0.0
O18 O 0.55015 0.11975 0.50012 0.0
Co19 Co 0.46687 0.18668 0.489 0.0
O20 O 0.47431 0.11938 0.476 0.0
C21 C 0.51238 0.20925 0.61501 0.0
C22 C 0.64113 0.22298 0.51257 0.0
C23 C 0.51194 0.09821 0.48806 0.0
O24 O 0.55149 0.19955 0.58796 0.0
O25 O 0.47443 0.20925 0.58249 0.0
O26 O 0.58524 0.17775 0.40066 0.0
O27 O 0.52255 0.20722 0.44438 0.0
Co28 Co 0.81553 0.56618 0.99757 0.0
O29 O 0.75563 0.59265 0.98731 0.0
O30 O 0.81584 0.6314 0.02454 0.0
C31 C 0.81641 0.53458 0.89562 0.0
O32 O 0.88357 0.54743 0.00967 0.0
Co33 Co 0.82068 0.45971 0.9963 0.0
O34 O 0.88776 0.47102 0.98872 0.0
C35 C 0.79195 0.50606 0.11902 0.0
C36 C 0.77273 0.63174 0.00567 0.0
C37 C 0.9069 0.50978 1.00051 0.0
O38 O 0.80001 0.54525 0.09093 0.0
O39 O 0.79498 0.46767 0.08796 0.0
O40 O 0.82797 0.5773 0.90456 0.0
O41 O 0.80029 0.51352 0.94741 0.0
Co42 Co 0.4344 0.81106 0.48805 0.0
O43 O 0.40027 0.75459 0.48252 0.0
O44 O 0.37178 0.82019 0.52138 0.0
C45 C 0.46194 0.8067 0.38406 0.0
O46 O 0.46074 0.87663 0.49673 0.0
Co47 Co 0.5406 0.80602 0.47836 0.0
O48 O 0.53583 0.87377 0.46838 0.0
C49 C 0.49637 0.78484 0.6061 0.0
C50 C 0.36522 0.77711 0.50529 0.0
C51 C 0.49981 0.89645 0.48402 0.0
O52 O 0.45704 0.7947 0.57994 0.0
O53 O 0.53404 0.78478 0.57286 0.0
O54 O 0.4212 0.82325 0.39567 0.0
O55 O 0.48326 0.78943 0.43484 0.0
Co56 Co 0.19341 0.56903 0.52551 0.0
O57 O 0.25032 0.60243 0.53212 0.0
O58 O 0.18517 0.63209 0.49346 0.0
C59 C 0.19744 0.53988 0.62904 0.0
O60 O 0.12743 0.54399 0.51579 0.0
Co61 Co 0.19507 0.46257 0.5345 0.0
O62 O 0.12728 0.46859 0.54258 0.0
C63 C 0.21912 0.50724 0.40764 0.0
C64 C 0.22825 0.63803 0.51003 0.0
C65 C 0.10602 0.5056 0.52737 0.0
O66 O 0.20948 0.54693 0.43298 0.0
O67 O 0.21882 0.46997 0.44175 0.0
O68 O 0.18156 0.5811 0.61877 0.0
O69 O 0.21403 0.51918 0.57744 0.0
Co70 Co 0.43826 0.19062 0.02219 0.0
O71 O 0.40874 0.24952 0.02916 0.0
O72 O 0.37428 0.18685 0.99098 0.0
C73 C 0.46675 0.19274 0.12605 0.0
O74 O 0.45951 0.1232 0.01262 0.0
Co75 Co 0.54464 0.18728 0.0315 0.0
O76 O 0.5345 0.12011 0.0415 0.0
C77 C 0.50166 0.21245 0.90394 0.0
C78 C 0.37124 0.23002 0.00876 0.0
C79 C 0.49678 0.10028 0.02577 0.0
O80 O 0.46154 0.20554 0.92989 0.0
O81 O 0.53904 0.20979 0.93758 0.0
O82 O 0.42491 0.1791 0.11486 0.0
O83 O 0.48897 0.20837 0.07498 0.0
Co84 Co 0.81621 0.43297 0.52444 0.0
O85 O 0.75771 0.40344 0.53394 0.0
O86 O 0.81922 0.3691 0.49221 0.0
C87 C 0.81655 0.46047 0.62883 0.0
O88 O 0.8831 0.45523 0.51212 0.0
Co89 Co 0.81637 0.53944 0.53453 0.0
O90 O 0.88395 0.5308 0.53917 0.0
C91 C 0.79015 0.4966 0.4078 0.0
C92 C 0.77644 0.36604 0.51208 0.0
C93 C 0.90465 0.4937 0.52293 0.0
O94 O 0.79893 0.45669 0.43322 0.0
O95 O 0.79205 0.53392 0.4416 0.0
O96 O 0.8302 0.41889 0.61614 0.0
O97 O 0.79914 0.48279 0.57906 0.0
Co98 Co 0.56698 0.81046 0.01477 0.0
O99 O 0.59794 0.75215 0.01754 0.0
O100 O 0.63079 0.8172 0.98421 0.0
C101 C 0.53736 0.80522 0.1178 0.0
O102 O 0.54361 0.87742 0.00869 0.0
Co103 Co 0.46032 0.80901 0.02121 0.0
O104 O 0.46734 0.87658 0.03094 0.0
C105 C 0.50563 0.78656 0.89495 0.0
C106 C 0.63454 0.77321 0.99684 0.0
C107 C 0.50469 0.89826 0.0188 0.0
O108 O 0.54478 0.7972 0.92129 0.0
O109 O 0.46804 0.78563 0.92827 0.0
O110 O 0.57923 0.8196 0.10846 0.0
O111 O 0.51645 0.78997 0.06547 0.0
C112 C 0.22816 0.54122 0.22527 0.0
C113 C 0.22657 0.49844 0.19194 0.0
C114 C 0.22792 0.54379 0.29484 0.0
C115 C 0.2264 0.5037 0.33441 0.0
H116 H 0.22776 0.57327 0.19757 0.0
H117 H 0.22744 0.57765 0.3176 0.0
S118 S 0.2264 0.3828 0.27216 0.0
N119 N 0.22673 0.41486 0.20459 0.0
N120 N 0.22684 0.41954 0.33447 0.0
C121 C 0.22743 0.46062 0.30174 0.0
C122 C 0.22734 0.45803 0.23094 0.0
C123 C 0.46768 0.21427 0.72156 0.0
C124 C 0.51037 0.21685 0.68817 0.0
C125 C 0.46505 0.21526 0.79099 0.0
C126 C 0.50499 0.21902 0.83052 0.0
H127 H 0.43591 0.20953 0.69408 0.0
H128 H 0.43139 0.21125 0.81369 0.0
S129 S 0.62487 0.23387 0.76747 0.0
N130 N 0.59316 0.22834 0.70002 0.0
N131 N 0.58841 0.2304 0.83016 0.0
C132 C 0.54771 0.22458 0.79765 0.0
C133 C 0.55036 0.22341 0.72678 0.0
C134 C 0.78498 0.45963 0.29538 0.0
C135 C 0.78243 0.49977 0.33458 0.0
C136 C 0.78548 0.46194 0.22594 0.0
C137 C 0.78357 0.50454 0.19212 0.0
H138 H 0.78855 0.42598 0.31832 0.0
H139 H 0.78947 0.42995 0.19883 0.0
S140 S 0.76932 0.61965 0.27066 0.0
N141 N 0.77256 0.58337 0.33363 0.0
N142 N 0.77362 0.58759 0.2034 0.0
C143 C 0.77785 0.54478 0.23045 0.0
C144 C 0.77721 0.54245 0.3014 0.0
C145 C 0.54313 0.78532 0.78242 0.0
C146 C 0.50334 0.77903 0.82166 0.0
C147 C 0.54094 0.78469 0.71292 0.0
C148 C 0.49883 0.77793 0.6793 0.0
H149 H 0.57617 0.79251 0.80534 0.0
H150 H 0.57233 0.79167 0.68547 0.0
S151 S 0.38558 0.75291 0.75796 0.0
N152 N 0.42115 0.76066 0.82088 0.0
N153 N 0.41723 0.75976 0.69066 0.0
C154 C 0.45926 0.7688 0.71771 0.0
C155 C 0.46146 0.76924 0.7886 0.0
C156 C 0.81658 0.52627 0.70841 0.0
C157 C 0.81672 0.47852 0.69712 0.0
C158 C 0.81708 0.54386 0.773 0.0
C159 C 0.81677 0.51432 0.82859 0.0
H160 H 0.81659 0.55022 0.66713 0.0
H161 H 0.81709 0.581 0.7793 0.0
S162 S 0.81615 0.38644 0.82558 0.0
N163 N 0.81639 0.40175 0.74675 0.0
N164 N 0.81629 0.43512 0.86807 0.0
C165 C 0.81647 0.46652 0.818 0.0
C166 C 0.81677 0.44854 0.75224 0.0
C167 C 0.54618 0.80613 0.24064 0.0
C168 C 0.51692 0.80435 0.18486 0.0
C169 C 0.52829 0.80588 0.30516 0.0
C170 C 0.48049 0.80489 0.31609 0.0
H171 H 0.58332 0.80748 0.23451 0.0
H172 H 0.55199 0.80743 0.34663 0.0
S173 S 0.38904 0.79894 0.18737 0.0
N174 N 0.43785 0.80022 0.14513 0.0
N175 N 0.40405 0.80092 0.26623 0.0
C176 C 0.45081 0.80288 0.26088 0.0
C177 C 0.46908 0.80226 0.19526 0.0
C178 C 0.19632 0.53089 0.81666 0.0
C179 C 0.2005 0.48323 0.82753 0.0
C180 C 0.19496 0.54879 0.75207 0.0
C181 C 0.19876 0.51972 0.69632 0.0
H182 H 0.19305 0.55435 0.85818 0.0
H183 H 0.19119 0.58575 0.74587 0.0
S184 S 0.21281 0.39247 0.69891 0.0
N185 N 0.20968 0.4073 0.77773 0.0
N186 N 0.2083 0.44109 0.65669 0.0
C187 C 0.20403 0.47211 0.70678 0.0
C188 C 0.20457 0.45382 0.77235 0.0
C189 C 0.55147 0.18918 0.26881 0.0
C190 C 0.52264 0.19324 0.32483 0.0
C191 C 0.53333 0.18985 0.20444 0.0
C192 C 0.48563 0.19364 0.19389 0.0
H193 H 0.58849 0.18572 0.27457 0.0
H194 H 0.55671 0.18655 0.16281 0.0
S195 S 0.39531 0.20649 0.32324 0.0
N196 N 0.44411 0.20255 0.36511 0.0
N197 N 0.40982 0.20277 0.24432 0.0
C198 C 0.45638 0.19791 0.24931 0.0
C199 C 0.47494 0.19802 0.31478 0.0
C200 C 0.98199 0.46839 0.01678 0.0
C201 C 0.95828 0.50989 0.00301 0.0
C202 C 0.03033 0.4657 0.01439 0.0
C203 C 0.05735 0.50434 0.99773 0.0
H204 H 0.96301 0.43732 0.02923 0.0
H205 H 0.04649 0.43283 0.02521 0.0
S206 S 0.0121 0.62156 0.9572 0.0
N207 N 0.96546 0.5906 0.97251 0.0
N208 N 0.05611 0.58612 0.9676 0.0
C209 C 0.034 0.5464 0.98455 0.0
C210 C 0.98465 0.54906 0.98743 0.0
C211 C 0.46411 0.97547 0.4858 0.0
C212 C 0.50384 0.94772 0.48757 0.0
C213 C 0.46728 0.0238 0.48626 0.0
C214 C 0.51034 0.04671 0.48903 0.0
H215 H 0.43018 0.95983 0.48293 0.0
H216 H 0.43541 0.04328 0.48427 0.0
S217 S 0.62508 0.99002 0.49784 0.0
N218 N 0.58792 0.94686 0.49471 0.0
N219 N 0.59363 0.03747 0.49547 0.0
C220 C 0.55038 0.01938 0.4921 0.0
C221 C 0.5472 0.97007 0.49135 0.0
C222 C 0.03149 0.46114 0.53585 0.0
C223 C 0.05462 0.50317 0.52234 0.0
C224 C 0.98315 0.45766 0.53339 0.0
C225 C 0.95579 0.49612 0.51783 0.0
H226 H 0.05075 0.43052 0.54942 0.0
H227 H 0.96711 0.42498 0.54592 0.0
S228 S 0.99854 0.61303 0.47212 0.0
N229 N 0.04579 0.5833 0.48835 0.0
N230 N 0.95527 0.57683 0.48381 0.0
C231 C 0.97834 0.53795 0.50204 0.0
C232 C 0.02755 0.54147 0.5043 0.0
C233 C 0.54177 0.97637 0.02903 0.0
C234 C 0.50222 0.94965 0.01695 0.0
C235 C 0.53942 0.02473 0.03156 0.0
C236 C 0.49746 0.04875 0.02159 0.0
H237 H 0.57471 0.95983 0.03805 0.0
H238 H 0.57107 0.04333 0.04185 0.0
S239 S 0.38423 0.9949 0.9834 0.0
N240 N 0.41994 0.95087 0.99148 0.0
N241 N 0.41572 0.04154 0.99626 0.0
C242 C 0.4578 0.02243 0.00787 0.0
C243 C 0.46014 0.97308 0.00556 0.0
C244 C 0.26231 0.29571 0.96337 0.0
C245 C 0.25492 0.32243 0.02081 0.0
C246 C 0.29767 0.26226 0.96074 0.0
C247 C 0.32717 0.25546 0.01514 0.0
H248 H 0.24279 0.30298 0.91877 0.0
H249 H 0.30419 0.24442 0.91452 0.0
S250 S 0.31966 0.31383 0.17836 0.0
N251 N 0.27787 0.33736 0.1341 0.0
N252 N 0.34407 0.27512 0.12965 0.0
C253 C 0.3181 0.27993 0.07393 0.0
C254 C 0.28208 0.31339 0.07663 0.0
C255 C 0.7175 0.31866 0.56928 0.0
C256 C 0.75 0.32238 0.51751 0.0
C257 C 0.68515 0.28286 0.57109 0.0
C258 C 0.68425 0.24904 0.52162 0.0
H259 H 0.71544 0.34505 0.60721 0.0
H260 H 0.65869 0.28342 0.60908 0.0
S261 S 0.76416 0.24009 0.37872 0.0
N262 N 0.78163 0.28686 0.41846 0.0
N263 N 0.72019 0.21924 0.42168 0.0
C264 C 0.71842 0.25022 0.47207 0.0
C265 C 0.75166 0.28693 0.47019 0.0
C266 C 0.70818 0.67267 0.95056 0.0
C267 C 0.74408 0.67392 0.99771 0.0
C268 C 0.67541 0.70789 0.94627 0.0
C269 C 0.67727 0.74626 0.98835 0.0
H270 H 0.70406 0.64313 0.91815 0.0
H271 H 0.64672 0.70372 0.91228 0.0
S272 S 0.766 0.76874 0.11672 0.0
N273 N 0.78142 0.71865 0.08429 0.0
N274 N 0.71916 0.78526 0.0763 0.0
C275 C 0.71449 0.74977 0.03291 0.0
C276 C 0.74819 0.71354 0.03744 0.0
C277 C 0.30433 0.73523 0.56773 0.0
C278 C 0.32006 0.75391 0.5077 0.0
C279 C 0.27088 0.7001 0.56821 0.0
C280 C 0.25176 0.68312 0.50883 0.0
H281 H 0.32075 0.74489 0.61393 0.0
H282 H 0.26217 0.68394 0.61504 0.0
S283 S 0.27919 0.72324 0.33929 0.0
N284 N 0.31244 0.75496 0.38785 0.0
N285 N 0.24876 0.68964 0.38915 0.0
C286 C 0.26471 0.70393 0.44902 0.0
C287 C 0.29919 0.7392 0.44841 0.0
loop_
_geom_bond_atom_site_label_1
_geom_bond_atom_site_label_2
_geom_bond_distance
_geom_bond_site_symmetry_2
_ccdc_geom_bond_type
Co0 O1 2.217 . S
Co0 O2 2.092 . S
Co0 O4 2.004 1_554 S
Co0 O10 2.032 . S
Co0 O12 2.126 1_554 S
Co0 O13 2.239 1_554 S
O1 Co0 2.217 . S
O1 C8 1.247 . S
O2 Co0 2.092 . S
O2 C8 1.261 . S
C3 O12 1.247 . S
C3 O13 1.272 . S
O4 Co0 2.004 1_556 S
O4 C9 1.259 1_556 S
Co5 O6 2.061 . S
Co5 O11 2.052 . S
Co5 O13 2.135 1_554 S
O6 Co5 2.061 . S
O6 C9 1.235 . S
C7 O10 1.238 . S
C7 O11 1.241 . S
C8 O1 1.247 . S
C8 O2 1.261 . S
C9 O4 1.259 1_554 S
C9 O6 1.235 . S
O10 Co0 2.032 . S
O10 C7 1.238 . S
O11 Co5 2.052 . S
O11 C7 1.241 . S
O12 Co0 2.126 1_556 S
O12 C3 1.247 . S
O13 Co0 2.239 1_556 S
O13 C3 1.272 . S
O13 Co5 2.135 1_556 S
Co14 O15 2.216 . S
Co14 O16 2.091 . S
Co14 O18 2.004 . S
Co14 O24 2.021 . S
Co14 O26 2.137 . S
Co14 O27 2.244 . S
O15 Co14 2.216 . S
O15 C22 1.247 . S
O16 Co14 2.091 . S
O16 C22 1.261 . S
C17 O26 1.247 . S
C17 O27 1.272 . S
O18 Co14 2.004 . S
O18 C23 1.259 . S
Co19 O20 2.061 . S
Co19 O25 2.052 . S
Co19 O27 2.135 . S
O20 Co19 2.061 . S
O20 C23 1.235 . S
C21 O24 1.238 . S
C21 O25 1.241 . S
C22 O15 1.247 . S
C22 O16 1.261 . S
C23 O18 1.259 . S
C23 O20 1.235 . S
O24 Co14 2.021 . S
O24 C21 1.238 . S
O25 Co19 2.052 . S
O25 C21 1.241 . S
O26 Co14 2.137 . S
O26 C17 1.247 . S
O27 Co14 2.244 . S
O27 C17 1.272 . S
O27 Co19 2.135 . S
Co28 O29 2.217 . S
Co28 O30 2.092 . S
Co28 O32 2.004 1_554 S
Co28 O38 2.032 . S
Co28 O40 2.126 1_554 S
Co28 O41 2.239 1_554 S
O29 Co28 2.217 . S
O29 C36 1.247 . S
O30 Co28 2.092 . S
O30 C36 1.261 . S
C31 O40 1.247 . S
C31 O41 1.272 . S
O32 Co28 2.004 1_556 S
O32 C37 1.259 1_556 S
Co33 O34 2.061 . S
Co33 O39 2.052 . S
Co33 O41 2.135 1_554 S
O34 Co33 2.061 . S
O34 C37 1.235 . S
C35 O38 1.238 . S
C35 O39 1.241 . S
C36 O29 1.247 . S
C36 O30 1.261 . S
C37 O32 1.259 1_554 S
C37 O34 1.235 . S
O38 Co28 2.032 . S
O38 C35 1.238 . S
O39 Co33 2.052 . S
O39 C35 1.241 . S
O40 Co28 2.126 1_556 S
O40 C31 1.247 . S
O41 Co28 2.239 1_556 S
O41 C31 1.272 . S
O41 Co33 2.135 1_556 S
Co42 O43 2.216 . S
Co42 O44 2.091 . S
Co42 O46 2.004 . S
Co42 O52 2.021 . S
Co42 O54 2.137 . S
Co42 O55 2.244 . S
O43 Co42 2.216 . S
O43 C50 1.247 . S
O44 Co42 2.091 . S
O44 C50 1.261 . S
C45 O54 1.247 . S
C45 O55 1.272 . S
O46 Co42 2.004 . S
O46 C51 1.259 . S
Co47 O48 2.061 . S
Co47 O53 2.052 . S
Co47 O55 2.135 . S
O48 Co47 2.061 . S
O48 C51 1.235 . S
C49 O52 1.238 . S
C49 O53 1.241 . S
C50 O43 1.247 . S
C50 O44 1.261 . S
C51 O46 1.259 . S
C51 O48 1.235 . S
O52 Co42 2.021 . S
O52 C49 1.238 . S
O53 Co47 2.052 . S
O53 C49 1.241 . S
O54 Co42 2.137 . S
O54 C45 1.247 . S
O55 Co42 2.244 . S
O55 C45 1.272 . S
O55 Co47 2.135 . S
Co56 O57 2.216 . S
Co56 O58 2.091 . S
Co56 O60 2.004 . S
Co56 O66 2.021 . S
Co56 O68 2.137 . S
Co56 O69 2.244 . S
O57 Co56 2.216 . S
O57 C64 1.247 . S
O58 Co56 2.091 . S
O58 C64 1.261 . S
C59 O68 1.247 . S
C59 O69 1.272 . S
O60 Co56 2.004 . S
O60 C65 1.259 . S
Co61 O62 2.061 . S
Co61 O67 2.052 . S
Co61 O69 2.135 . S
O62 Co61 2.061 . S
O62 C65 1.235 . S
C63 O66 1.238 . S
C63 O67 1.241 . S
C64 O57 1.247 . S
C64 O58 1.261 . S
C65 O60 1.259 . S
C65 O62 1.235 . S
O66 Co56 2.021 . S
O66 C63 1.238 . S
O67 Co61 2.052 . S
O67 C63 1.241 . S
O68 Co56 2.137 . S
O68 C59 1.247 . S
O69 Co56 2.244 . S
O69 C59 1.272 . S
O69 Co61 2.135 . S
Co70 O71 2.216 . S
Co70 O72 2.091 . S
Co70 O74 2.004 . S
Co70 O80 2.021 1_554 S
Co70 O82 2.137 . S
Co70 O83 2.244 . S
O71 Co70 2.216 . S
O71 C78 1.247 . S
O72 Co70 2.091 . S
O72 C78 1.261 . S
C73 O82 1.247 . S
C73 O83 1.272 . S
O74 Co70 2.004 . S
O74 C79 1.259 . S
Co75 O76 2.061 . S
Co75 O81 2.052 1_554 S
Co75 O83 2.135 . S
O76 Co75 2.061 . S
O76 C79 1.235 . S
C77 O80 1.238 . S
C77 O81 1.241 . S
C78 O71 1.247 . S
C78 O72 1.261 . S
C79 O74 1.259 . S
C79 O76 1.235 . S
O80 Co70 2.021 1_556 S
O80 C77 1.238 . S
O81 Co75 2.052 1_556 S
O81 C77 1.241 . S
O82 Co70 2.137 . S
O82 C73 1.247 . S
O83 Co70 2.244 . S
O83 C73 1.272 . S
O83 Co75 2.135 . S
Co84 O85 2.216 . S
Co84 O86 2.091 . S
Co84 O88 2.004 . S
Co84 O94 2.021 . S
Co84 O96 2.137 . S
Co84 O97 2.244 . S
O85 Co84 2.216 . S
O85 C92 1.247 . S
O86 Co84 2.091 . S
O86 C92 1.261 . S
C87 O96 1.247 . S
C87 O97 1.272 . S
O88 Co84 2.004 . S
O88 C93 1.259 . S
Co89 O90 2.061 . S
Co89 O95 2.052 . S
Co89 O97 2.135 . S
O90 Co89 2.061 . S
O90 C93 1.235 . S
C91 O94 1.238 . S
C91 O95 1.241 . S
C92 O85 1.247 . S
C92 O86 1.261 . S
C93 O88 1.259 . S
C93 O90 1.235 . S
O94 Co84 2.021 . S
O94 C91 1.238 . S
O95 Co89 2.052 . S
O95 C91 1.241 . S
O96 Co84 2.137 . S
O96 C87 1.247 . S
O97 Co84 2.244 . S
O97 C87 1.272 . S
O97 Co89 2.135 . S
Co98 O99 2.216 . S
Co98 O100 2.091 . S
Co98 O102 2.004 . S
Co98 O108 2.021 1_554 S
Co98 O110 2.137 . S
Co98 O111 2.244 . S
O99 Co98 2.216 . S
O99 C106 1.247 . S
O100 Co98 2.091 . S
O100 C106 1.261 . S
C101 O110 1.247 . S
C101 O111 1.272 . S
O102 Co98 2.004 . S
O102 C107 1.259 . S
Co103 O104 2.061 . S
Co103 O109 2.052 1_554 S
Co103 O111 2.135 . S
O104 Co103 2.061 . S
O104 C107 1.235 . S
C105 O108 1.238 . S
C105 O109 1.241 . S
C106 O99 1.247 . S
C106 O100 1.261 . S
C107 O102 1.259 . S
C107 O104 1.235 . S
O108 Co98 2.021 1_556 S
O108 C105 1.238 . S
O109 Co103 2.052 1_556 S
O109 C105 1.241 . S
O110 Co98 2.137 . S
O110 C101 1.247 . S
O111 Co98 2.244 . S
O111 C101 1.272 . S
O111 Co103 2.135 . S
C112 C113 1.369 . S
C112 C114 1.419 . S
C112 H116 0.930 . S
C113 C112 1.369 . S
C113 C122 1.429 . S
C114 C112 1.419 . S
C114 C115 1.363 . S
C114 H117 0.929 . S
C115 C114 1.363 . S
C115 C121 1.428 . S
H116 C112 0.930 . S
H117 C114 0.929 . S
S118 N119 1.613 . S
S118 N120 1.610 . S
N119 S118 1.613 . S
N119 C122 1.350 . S
N120 S118 1.610 . S
N120 C121 1.351 . S
C121 C115 1.428 . S
C121 N120 1.351 . S
C121 C122 1.434 . S
C122 C113 1.429 . S
C122 N119 1.350 . S
C122 C121 1.434 . S
C123 C124 1.369 . S
C123 C125 1.419 . S
C123 H127 0.930 . S
C124 C123 1.369 . S
C124 C133 1.429 . S
C125 C123 1.419 . S
C125 C126 1.363 . S
C125 H128 0.929 . S
C126 C125 1.363 . S
C126 C132 1.428 . S
H127 C123 0.930 . S
H128 C125 0.929 . S
S129 N130 1.613 . S
S129 N131 1.610 . S
N130 S129 1.613 . S
N130 C133 1.350 . S
N131 S129 1.610 . S
N131 C132 1.351 . S
C132 C126 1.428 . S
C132 N131 1.351 . S
C132 C133 1.434 . S
C133 C124 1.429 . S
C133 N130 1.350 . S
C133 C132 1.434 . S
C134 C135 1.369 . S
C134 C136 1.419 . S
C134 H138 0.930 . S
C135 C134 1.369 . S
C135 C144 1.429 . S
C136 C134 1.419 . S
C136 C137 1.363 . S
C136 H139 0.929 . S
C137 C136 1.363 . S
C137 C143 1.428 . S
H138 C134 0.930 . S
H139 C136 0.929 . S
S140 N141 1.613 . S
S140 N142 1.610 . S
N141 S140 1.613 . S
N141 C144 1.350 . S
N142 S140 1.610 . S
N142 C143 1.351 . S
C143 C137 1.428 . S
C143 N142 1.351 . S
C143 C144 1.434 . S
C144 C135 1.429 . S
C144 N141 1.350 . S
C144 C143 1.434 . S
C145 C146 1.369 . S
C145 C147 1.419 . S
C145 H149 0.930 . S
C146 C145 1.369 . S
C146 C155 1.429 . S
C147 C145 1.419 . S
C147 C148 1.363 . S
C147 H150 0.929 . S
C148 C147 1.363 . S
C148 C154 1.428 . S
H149 C145 0.930 . S
H150 C147 0.929 . S
S151 N152 1.613 . S
S151 N153 1.610 . S
N152 S151 1.613 . S
N152 C155 1.350 . S
N153 S151 1.610 . S
N153 C154 1.351 . S
C154 C148 1.428 . S
C154 N153 1.351 . S
C154 C155 1.434 . S
C155 C146 1.429 . S
C155 N152 1.350 . S
C155 C154 1.434 . S
C156 C157 1.369 . S
C156 C158 1.419 . S
C156 H160 0.930 . S
C157 C156 1.369 . S
C157 C166 1.429 . S
C158 C156 1.419 . S
C158 C159 1.363 . S
C158 H161 0.929 . S
C159 C158 1.363 . S
C159 C165 1.428 . S
H160 C156 0.930 . S
H161 C158 0.929 . S
S162 N163 1.613 . S
S162 N164 1.610 . S
N163 S162 1.613 . S
N163 C166 1.350 . S
N164 S162 1.610 . S
N164 C165 1.351 . S
C165 C159 1.428 . S
C165 N164 1.351 . S
C165 C166 1.434 . S
C166 C157 1.429 . S
C166 N163 1.350 . S
C166 C165 1.434 . S
C167 C168 1.369 . S
C167 C169 1.419 . S
C167 H171 0.930 . S
C168 C167 1.369 . S
C168 C177 1.429 . S
C169 C167 1.419 . S
C169 C170 1.363 . S
C169 H172 0.929 . S
C170 C169 1.363 . S
C170 C176 1.428 . S
H171 C167 0.930 . S
H172 C169 0.929 . S
S173 N174 1.613 . S
S173 N175 1.610 . S
N174 S173 1.613 . S
N174 C177 1.350 . S
N175 S173 1.610 . S
N175 C176 1.351 . S
C176 C170 1.428 . S
C176 N175 1.351 . S
C176 C177 1.434 . S
C177 C168 1.429 . S
C177 N174 1.350 . S
C177 C176 1.434 . S
C178 C179 1.369 . S
C178 C180 1.419 . S
C178 H182 0.930 . S
C179 C178 1.369 . S
C179 C188 1.429 . S
C180 C178 1.419 . S
C180 C181 1.363 . S
C180 H183 0.929 . S
C181 C180 1.363 . S
C181 C187 1.428 . S
H182 C178 0.930 . S
H183 C180 0.929 . S
S184 N185 1.613 . S
S184 N186 1.610 . S
N185 S184 1.613 . S
N185 C188 1.350 . S
N186 S184 1.610 . S
N186 C187 1.351 . S
C187 C181 1.428 . S
C187 N186 1.351 . S
C187 C188 1.434 . S
C188 C179 1.429 . S
C188 N185 1.350 . S
C188 C187 1.434 . S
C189 C190 1.369 . S
C189 C191 1.419 . S
C189 H193 0.930 . S
C190 C189 1.369 . S
C190 C199 1.429 . S
C191 C189 1.419 . S
C191 C192 1.363 . S
C191 H194 0.929 . S
C192 C191 1.363 . S
C192 C198 1.428 . S
H193 C189 0.930 . S
H194 C191 0.929 . S
S195 N196 1.613 . S
S195 N197 1.610 . S
N196 S195 1.613 . S
N196 C199 1.350 . S
N197 S195 1.610 . S
N197 C198 1.351 . S
C198 C192 1.428 . S
C198 N197 1.351 . S
C198 C199 1.434 . S
C199 C190 1.429 . S
C199 N196 1.350 . S
C199 C198 1.434 . S
C200 C201 1.369 . S
C200 C202 1.419 1_655 S
C200 H204 0.930 . S
C201 C200 1.369 . S
C201 C210 1.429 1_554 S
C202 C200 1.419 1_455 S
C202 C203 1.363 . S
C202 H205 0.929 . S
C203 C202 1.363 . S
C203 C209 1.428 1_554 S
H204 C200 0.930 . S
H205 C202 0.929 . S
S206 N207 1.613 . S
S206 N208 1.610 1_655 S
N207 S206 1.613 . S
N207 C210 1.350 . S
N208 S206 1.610 1_455 S
N208 C209 1.351 . S
C209 C203 1.428 1_556 S
C209 N208 1.351 . S
C209 C210 1.434 1_455 S
C210 C201 1.429 1_556 S
C210 N207 1.350 . S
C210 C209 1.434 1_655 S
C211 C212 1.369 . S
C211 C213 1.419 1_565 S
C211 H215 0.930 . S
C212 C211 1.369 . S
C212 C221 1.429 . S
C213 C211 1.419 1_545 S
C213 C214 1.363 . S
C213 H216 0.929 . S
C214 C213 1.363 . S
C214 C220 1.428 . S
H215 C211 0.930 . S
H216 C213 0.929 . S
S217 N218 1.613 . S
S217 N219 1.610 1_565 S
N218 S217 1.613 . S
N218 C221 1.350 . S
N219 S217 1.610 1_545 S
N219 C220 1.351 . S
C220 C214 1.428 . S
C220 N219 1.351 . S
C220 C221 1.434 1_545 S
C221 C212 1.429 . S
C221 N218 1.350 . S
C221 C220 1.434 1_565 S
C222 C223 1.369 . S
C222 C224 1.419 1_455 S
C222 H226 0.930 . S
C223 C222 1.369 . S
C223 C232 1.429 . S
C224 C222 1.419 1_655 S
C224 C225 1.363 . S
C224 H227 0.929 . S
C225 C224 1.363 . S
C225 C231 1.428 . S
H226 C222 0.930 . S
H227 C224 0.929 . S
S228 N229 1.613 1_655 S
S228 N230 1.610 . S
N229 S228 1.613 1_455 S
N229 C232 1.350 . S
N230 S228 1.610 . S
N230 C231 1.351 . S
C231 C225 1.428 . S
C231 N230 1.351 . S
C231 C232 1.434 1_655 S
C232 C223 1.429 . S
C232 N229 1.350 . S
C232 C231 1.434 1_455 S
C233 C234 1.369 . S
C233 C235 1.419 1_565 S
C233 H237 0.930 . S
C234 C233 1.369 . S
C234 C243 1.429 1_554 S
C235 C233 1.419 1_545 S
C235 C236 1.363 . S
C235 H238 0.929 . S
C236 C235 1.363 . S
C236 C242 1.428 1_554 S
H237 C233 0.930 . S
H238 C235 0.929 . S
S239 N240 1.613 . S
S239 N241 1.610 1_565 S
N240 S239 1.613 . S
N240 C243 1.350 . S
N241 S239 1.610 1_545 S
N241 C242 1.351 . S
C242 C236 1.428 1_556 S
C242 N241 1.351 . S
C242 C243 1.434 1_545 S
C243 C234 1.429 1_556 S
C243 N240 1.350 . S
C243 C242 1.434 1_565 S
C244 C245 1.369 1_556 S
C244 C246 1.419 . S
C244 H248 0.930 . S
C245 C244 1.369 1_554 S
C245 C254 1.429 . S
C246 C244 1.419 . S
C246 C247 1.363 1_556 S
C246 H249 0.929 . S
C247 C246 1.363 1_554 S
C247 C253 1.428 . S
H248 C244 0.930 . S
H249 C246 0.929 . S
S250 N251 1.613 . S
S250 N252 1.610 . S
N251 S250 1.613 . S
N251 C254 1.350 . S
N252 S250 1.610 . S
N252 C253 1.351 . S
C253 C247 1.428 . S
C253 N252 1.351 . S
C253 C254 1.434 . S
C254 C245 1.429 . S
C254 N251 1.350 . S
C254 C253 1.434 . S
C255 C256 1.369 . S
C255 C257 1.419 . S
C255 H259 0.930 . S
C256 C255 1.369 . S
C256 C265 1.429 . S
C257 C255 1.419 . S
C257 C258 1.363 . S
C257 H260 0.929 . S
C258 C257 1.363 . S
C258 C264 1.428 . S
H259 C255 0.930 . S
H260 C257 0.929 . S
S261 N262 1.613 . S
S261 N263 1.610 . S
N262 S261 1.613 . S
N262 C265 1.350 . S
N263 S261 1.610 . S
N263 C264 1.351 . S
C264 C258 1.428 . S
C264 N263 1.351 . S
C264 C265 1.434 . S
C265 C256 1.429 . S
C265 N262 1.350 . S
C265 C264 1.434 . S
C266 C267 1.369 1_556 S
C266 C268 1.419 . S
C266 H270 0.930 . S
C267 C266 1.369 1_554 S
C267 C276 1.429 . S
C268 C266 1.419 . S
C268 C269 1.363 1_556 S
C268 H271 0.929 . S
C269 C268 1.363 1_554 S
C269 C275 1.428 . S
H270 C266 0.930 . S
H271 C268 0.929 . S
S272 N273 1.613 . S
S272 N274 1.610 . S
N273 S272 1.613 . S
N273 C276 1.350 . S
N274 S272 1.610 . S
N274 C275 1.351 . S
C275 C269 1.428 . S
C275 N274 1.351 . S
C275 C276 1.434 . S
C276 C267 1.429 . S
C276 N273 1.350 . S
C276 C275 1.434 . S
C277 C278 1.369 . S
C277 C279 1.419 . S
C277 H281 0.930 . S
C278 C277 1.369 . S
C278 C287 1.429 . S
C279 C277 1.419 . S
C279 C280 1.363 . S
C279 H282 0.929 . S
C280 C279 1.363 . S
C280 C286 1.428 . S
H281 C277 0.930 . S
H282 C279 0.929 . S
S283 N284 1.613 . S
S283 N285 1.610 . S
N284 S283 1.613 . S
N284 C287 1.350 . S
N285 S283 1.610 . S
N285 C286 1.351 . S
C286 C280 1.428 . S
C286 N285 1.351 . S
C286 C287 1.434 . S
C287 C278 1.429 . S
C287 N284 1.350 . S
C287 C286 1.434 . S
C113 C7 1.440 . S
C115 C63 1.442 . S
C124 C21 1.441 . S
C126 C77 1.441 . S
C135 C91 1.444 . S
C137 C35 1.442 . S
C146 C105 1.447 . S
C148 C49 1.445 . S
C157 C87 1.328 . S
C159 C31 1.338 . S
C168 C101 1.333 . S
C170 C45 1.332 . S
C179 C3 1.331 . S
C181 C59 1.339 . S
C190 C17 1.340 . S
C192 C73 1.331 . S
C201 C37 1.389 . S
C203 C9 1.393 . S
C212 C51 1.386 . S
C214 C23 1.396 . S
C223 C65 1.396 . S
C225 C93 1.389 . S
C234 C107 1.392 . S
C236 C79 1.392 . S
C245 C8 1.400 . S
C247 C78 1.400 . S
C256 C92 1.401 . S
C258 C22 1.400 . S
C267 C36 1.401 . S
C269 C106 1.400 . S
C278 C50 1.400 . S
C280 C64 1.401 . S
