# Generated by pormake.
# Topology smu, (6)-cn, num edge types: 1
# Building blocks:
#     Node 0, Type 0, BuildingBlock: BETFAJ_clean_sbu_0, # of connection points: 6
#     Node 1, Type 0, BuildingBlock: BETFAJ_clean_sbu_0, # of connection points: 6
#     Node 2, Type 0, BuildingBlock: BETFAJ_clean_sbu_0, # of connection points: 6
#     Node 3, Type 0, BuildingBlock: BETFAJ_clean_sbu_0, # of connection points: 6
#     Node 4, Type 0, BuildingBlock: BETFAJ_clean_sbu_0, # of connection points: 6
#     Node 5, Type 0, BuildingBlock: BETFAJ_clean_sbu_0, # of connection points: 6
#     Edge 6, Type (0, 0), BuildingBlock: TEMPAE_clean_linker_10, # of connection points: 2
#     Edge 7, Type (0, 0), BuildingBlock: TEMPAE_clean_linker_10, # of connection points: 2
#     Edge 8, Type (0, 0), BuildingBlock: TEMPAE_clean_linker_10, # of connection points: 2
#     Edge 9, Type (0, 0), BuildingBlock: TEMPAE_clean_linker_10, # of connection points: 2
#     Edge 10, Type (0, 0), BuildingBlock: TEMPAE_clean_linker_10, # of connection points: 2
#     Edge 11, Type (0, 0), BuildingBlock: TEMPAE_clean_linker_10, # of connection points: 2
#     Edge 12, Type (0, 0), BuildingBlock: TEMPAE_clean_linker_10, # of connection points: 2
#     Edge 13, Type (0, 0), BuildingBlock: TEMPAE_clean_linker_10, # of connection points: 2
#     Edge 14, Type (0, 0), BuildingBlock: TEMPAE_clean_linker_10, # of connection points: 2
#     Edge 15, Type (0, 0), BuildingBlock: TEMPAE_clean_linker_10, # of connection points: 2
#     Edge 16, Type (0, 0), BuildingBlock: TEMPAE_clean_linker_10, # of connection points: 2
#     Edge 17, Type (0, 0), BuildingBlock: TEMPAE_clean_linker_10, # of connection points: 2
#     Edge 18, Type (0, 0), BuildingBlock: TEMPAE_clean_linker_10, # of connection points: 2
#     Edge 19, Type (0, 0), BuildingBlock: TEMPAE_clean_linker_10, # of connection points: 2
#     Edge 20, Type (0, 0), BuildingBlock: TEMPAE_clean_linker_10, # of connection points: 2
#     Edge 21, Type (0, 0), BuildingBlock: TEMPAE_clean_linker_10, # of connection points: 2
#     Edge 22, Type (0, 0), BuildingBlock: TEMPAE_clean_linker_10, # of connection points: 2
#     Edge 23, Type (0, 0), BuildingBlock: TEMPAE_clean_linker_10, # of connection points: 2
# Relax obj value: 0.219
# Max RMSD: 0.311
# Mean RMSD: 0.311
data_MOF--net-smu--node1-BETFAJ_clean_sbu_0--edge1-TEMPAE_clean_linker_10
_symmetry_space_group_name_H-M    P1
_symmetry_Int_Tables_number       1
_symmetry_cell_setting            triclinic
loop_
_symmetry_equiv_pos_as_xyz
'x, y, z'
_cell_length_a     39.965105
_cell_length_b     39.822345
_cell_length_c     26.978337
_cell_angle_alpha  90.065874
_cell_angle_beta   89.740318
_cell_angle_gamma 119.97456
loop_
_atom_site_label
_atom_site_type_symbol
_atom_site_fract_x
_atom_site_fract_y
_atom_site_fract_z
_atom_type_partial_charge
Sm0 Sm 0.3821 0.08456 0.28235 0.0
Sm1 Sm 0.32725 0.1155 0.29283 0.0
C2 C 0.44003 0.07045 0.26721 0.0
C3 C 0.48304 0.09068 0.26349 0.0
C4 C 0.50477 0.12316 0.23288 0.0
C5 C 0.54551 0.142 0.23244 0.0
C6 C 0.56543 0.12906 0.26301 0.0
C7 C 0.54338 0.09639 0.29316 0.0
C8 C 0.50293 0.07752 0.29328 0.0
C9 C 0.34776 0.07007 0.37441 0.0
C10 C 0.41925 0.17936 0.2948 0.0
C11 C 0.28872 0.15246 0.31326 0.0
C12 C 0.25869 0.16303 0.30151 0.0
C13 C 0.22619 0.15073 0.33243 0.0
C14 C 0.20154 0.16615 0.32702 0.0
C15 C 0.20907 0.19469 0.29096 0.0
C16 C 0.24081 0.20596 0.25898 0.0
C17 C 0.26522 0.19035 0.2641 0.0
C18 C 0.32999 0.09087 0.19708 0.0
C19 C 0.28925 0.02357 0.28206 0.0
O20 O 0.41977 0.07328 0.23099 0.0
O21 O 0.42618 0.07128 0.31078 0.0
O22 O 0.36049 0.10239 0.35168 0.0
O23 O 0.35315 0.04567 0.34889 0.0
O24 O 0.42629 0.15092 0.28545 0.0
O25 O 0.3839 0.17225 0.30239 0.0
O26 O 0.27937 0.11873 0.33293 0.0
O27 O 0.3189 0.16584 0.2841 0.0
O28 O 0.35895 0.10904 0.22529 0.0
O29 O 0.29981 0.08913 0.21753 0.0
O30 O 0.28605 0.05093 0.30561 0.0
O31 O 0.32257 0.03041 0.26172 0.0
H32 H 0.49037 0.13425 0.20975 0.0
H33 H 0.56144 0.16717 0.20894 0.0
H34 H 0.55742 0.08509 0.31658 0.0
H35 H 0.48703 0.05257 0.3172 0.0
H36 H 0.22067 0.1303 0.36215 0.0
H37 H 0.17752 0.15696 0.35255 0.0
H38 H 0.2472 0.22743 0.23037 0.0
H39 H 0.2901 0.20091 0.23979 0.0
Sm40 Sm 0.7273 0.65577 0.28744 0.0
Sm41 Sm 0.81187 0.71171 0.30317 0.0
C42 C 0.65867 0.59598 0.26316 0.0
C43 C 0.63979 0.55264 0.26461 0.0
C44 C 0.63661 0.53107 0.22172 0.0
C45 C 0.61782 0.49029 0.2233 0.0
C46 C 0.60164 0.46989 0.26783 0.0
C47 C 0.60498 0.49161 0.31062 0.0
C48 C 0.62362 0.5322 0.30903 0.0
C49 C 0.74214 0.68519 0.38183 0.0
C50 C 0.78504 0.61958 0.30398 0.0
C51 C 0.8861 0.7515 0.3281 0.0
C52 C 0.92599 0.78335 0.31766 0.0
C53 C 0.94928 0.80573 0.3571 0.0
C54 C 0.989 0.83093 0.35019 0.0
C55 C 1.00647 0.83417 0.30363 0.0
C56 C 0.98276 0.81287 0.26367 0.0
C57 C 0.94302 0.78781 0.27057 0.0
C58 C 0.78764 0.71246 0.20696 0.0
C59 C 0.75689 0.74821 0.29294 0.0
O60 O 0.68609 0.61514 0.23052 0.0
O61 O 0.66623 0.61368 0.30584 0.0
O62 O 0.7637 0.67491 0.3589 0.0
O63 O 0.7128 0.67954 0.35542 0.0
O64 O 0.74913 0.61188 0.29813 0.0
O65 O 0.8135 0.65541 0.30735 0.0
O66 O 0.86029 0.75899 0.34718 0.0
O67 O 0.87138 0.72233 0.29727 0.0
O68 O 0.77705 0.68251 0.2334 0.0
O69 O 0.81439 0.7425 0.22967 0.0
O70 O 0.78581 0.75007 0.31869 0.0
O71 O 0.73223 0.71581 0.2691 0.0
H72 H 0.64846 0.54569 0.18679 0.0
H73 H 0.61615 0.47475 0.1896 0.0
H74 H 0.59233 0.47721 0.34541 0.0
H75 H 0.62495 0.54751 0.34283 0.0
H76 H 0.93706 0.80246 0.39392 0.0
H77 H 1.00629 0.8466 0.38191 0.0
H78 H 0.99505 0.81512 0.22713 0.0
H79 H 0.92591 0.77088 0.23938 0.0
Sm80 Sm 0.9502 0.30713 0.28386 0.0
Sm81 Sm 0.92968 0.22278 0.28252 0.0
C82 C 0.95461 0.37433 0.26177 0.0
C83 C 0.93079 0.39352 0.26759 0.0
C84 C 0.90782 0.39381 0.22835 0.0
C85 C 0.88682 0.41332 0.23282 0.0
C86 C 0.88824 0.43331 0.27662 0.0
C87 C 0.91099 0.43273 0.31599 0.0
C88 C 0.93201 0.41325 0.31151 0.0
C89 C 0.95413 0.28289 0.3767 0.0
C90 C 0.85685 0.23657 0.27691 0.0
C91 C 0.91965 0.15229 0.29833 0.0
C92 C 0.89582 0.11077 0.28535 0.0
C93 C 0.91257 0.0872 0.28803 0.0
C94 C 0.89054 0.04732 0.27929 0.0
C95 C 0.85104 0.02984 0.26739 0.0
C96 C 0.83437 0.05373 0.264 0.0
C97 C 0.85656 0.09382 0.27286 0.0
C98 C 0.94698 0.25903 0.18926 0.0
C99 C 1.01963 0.28788 0.2933 0.0
O100 O 0.94252 0.34541 0.23044 0.0
O101 O 0.96962 0.36873 0.30179 0.0
O102 O 0.92814 0.26127 0.34531 0.0
O103 O 0.97468 0.31831 0.36126 0.0
O104 O 0.88268 0.27407 0.27781 0.0
O105 O 0.86749 0.21025 0.27928 0.0
O106 O 0.94291 0.17589 0.2644 0.0
O107 O 0.90359 0.16773 0.32533 0.0
O108 O 0.96314 0.2728 0.22978 0.0
O109 O 0.91989 0.22331 0.19655 0.0
O110 O 0.99227 0.25408 0.30975 0.0
O111 O 1.01071 0.31238 0.27166 0.0
H112 H 0.90633 0.3792 0.19384 0.0
H113 H 0.86939 0.41269 0.20183 0.0
H114 H 0.91344 0.44824 0.35001 0.0
H115 H 0.94966 0.41415 0.34239 0.0
H116 H 0.94271 0.09957 0.29797 0.0
H117 H 0.90436 0.03003 0.28334 0.0
H118 H 0.80419 0.04146 0.25456 0.0
H119 H 0.84297 0.11146 0.27055 0.0
Sm120 Sm 0.11987 0.3109 0.79019 0.0
Sm121 Sm 0.10002 0.37435 0.77461 0.0
C122 C 0.14375 0.26296 0.82038 0.0
C123 C 0.16978 0.24809 0.80612 0.0
C124 C 0.19465 0.24677 0.84164 0.0
C125 C 0.21599 0.22843 0.83104 0.0
C126 C 0.21266 0.21075 0.78474 0.0
C127 C 0.18899 0.21356 0.74846 0.0
C128 C 0.16786 0.23212 0.75896 0.0
C129 C 0.09508 0.31102 0.69525 0.0
C130 C 0.03102 0.28568 0.79343 0.0
C131 C 0.08206 0.42794 0.74845 0.0
C132 C 0.10098 0.47073 0.7545 0.0
C133 C 0.13973 0.4927 0.76946 0.0
C134 C 0.15755 0.53318 0.77447 0.0
C135 C 0.13708 0.55282 0.7647 0.0
C136 C 0.09814 0.53048 0.75 0.0
C137 C 0.08038 0.49002 0.74497 0.0
C138 C 0.10811 0.36063 0.87489 0.0
C139 C 0.19203 0.40064 0.77559 0.0
O140 O 0.11313 0.25233 0.79307 0.0
O141 O 0.15944 0.29893 0.83555 0.0
O142 O 0.11667 0.34159 0.71997 0.0
O143 O 0.09129 0.28073 0.71798 0.0
O144 O 0.05786 0.28314 0.81879 0.0
O145 O 0.04056 0.31677 0.76568 0.0
O146 O 0.09941 0.41529 0.71898 0.0
O147 O 0.06894 0.40703 0.78871 0.0
O148 O 0.09329 0.33612 0.84088 0.0
O149 O 0.12028 0.39464 0.85545 0.0
O150 O 0.16653 0.41173 0.7666 0.0
O151 O 0.18094 0.36437 0.78689 0.0
H152 H 0.19652 0.25872 0.8783 0.0
H153 H 0.23361 0.22644 0.85999 0.0
H154 H 0.18613 0.2006 0.71228 0.0
H155 H 0.14912 0.23288 0.73065 0.0
H156 H 0.15632 0.47855 0.77704 0.0
H157 H 0.18761 0.54914 0.78528 0.0
H158 H 0.0811 0.5442 0.74289 0.0
H159 H 0.05044 0.47376 0.73359 0.0
Sm160 Sm 0.22143 0.90917 0.79769 0.0
Sm161 Sm 0.30593 0.93655 0.78204 0.0
C162 C 0.14757 0.87271 0.825 0.0
C163 C 0.10732 0.86203 0.81428 0.0
C164 C 0.07915 0.84162 0.85055 0.0
C165 C 0.04002 0.82667 0.84021 0.0
C166 C 0.02811 0.83187 0.79328 0.0
C167 C 0.05652 0.85335 0.75725 0.0
C168 C 0.09586 0.86809 0.76756 0.0
C169 C 0.24467 0.93268 0.70154 0.0
C170 C 0.27737 1.00092 0.79015 0.0
C171 C 0.37826 0.95766 0.75643 0.0
C172 C 0.40105 0.93761 0.76035 0.0
C173 C 0.3829 0.89797 0.77228 0.0
C174 C 0.40441 0.87903 0.77648 0.0
C175 C 0.44475 0.89925 0.76908 0.0
C176 C 0.46278 0.93905 0.75715 0.0
C177 C 0.44118 0.95796 0.75284 0.0
C178 C 0.28508 0.93202 0.88268 0.0
C179 C 0.24894 0.84506 0.79689 0.0
O180 O 0.17214 0.90815 0.83887 0.0
O181 O 0.16302 0.85743 0.79665 0.0
O182 O 0.25617 0.91386 0.72777 0.0
O183 O 0.2165 0.93397 0.72359 0.0
O184 O 0.24611 0.97355 0.81261 0.0
O185 O 0.30302 0.99328 0.76903 0.0
O186 O 0.3494 0.94271 0.72539 0.0
O187 O 0.36911 0.96774 0.79817 0.0
O188 O 0.27317 0.94319 0.84685 0.0
O189 O 0.30727 0.91971 0.86485 0.0
O190 O 0.2798 0.87049 0.77243 0.0
O191 O 0.22757 0.85662 0.82028 0.0
H192 H 0.08739 0.83641 0.88671 0.0
H193 H 1.019 0.81093 0.86907 0.0
H194 H 0.04825 0.85783 0.72076 0.0
H195 H 0.11719 0.88341 0.73887 0.0
H196 H 0.352 0.88159 0.77838 0.0
H197 H 0.38926 0.84835 0.78504 0.0
H198 H 0.49377 0.95586 0.7519 0.0
H199 H 0.45588 0.98857 0.7439 0.0
Sm200 Sm 0.71185 0.81553 0.804 0.0
Sm201 Sm 0.65754 0.72926 0.78922 0.0
C202 C 0.74561 0.88951 0.83065 0.0
C203 C 0.77452 0.9304 0.82116 0.0
C204 C 0.78023 0.9578 0.85764 0.0
C205 C 0.80387 0.99738 0.84833 0.0
C206 C 0.82247 1.0105 0.80223 0.0
C207 C 0.8175 0.98286 0.76599 0.0
C208 C 0.79347 0.94307 0.77528 0.0
C209 C 0.71136 0.79216 0.70782 0.0
C210 C 0.75211 0.76376 0.79454 0.0
C211 C 0.60886 0.65612 0.76295 0.0
C212 C 0.56602 0.63168 0.76331 0.0
C213 C 0.54291 0.64461 0.78644 0.0
C214 C 0.50243 0.62144 0.78675 0.0
C215 C 0.48394 0.58472 0.76377 0.0
C216 C 0.50735 0.57206 0.74041 0.0
C217 C 0.54783 0.59524 0.74023 0.0
C218 C 0.67413 0.75119 0.88915 0.0
C219 C 0.61995 0.78337 0.80521 0.0
O220 O 0.75692 0.86584 0.84698 0.0
O221 O 0.71653 0.87316 0.80002 0.0
O222 O 0.68161 0.77957 0.7355 0.0
O223 O 0.74056 0.82141 0.72856 0.0
O224 O 0.75483 0.79489 0.81599 0.0
O225 O 0.7189 0.73603 0.77558 0.0
O226 O 0.62368 0.685 0.73159 0.0
O227 O 0.62568 0.66598 0.80615 0.0
O228 O 0.69681 0.76382 0.85275 0.0
O229 O 0.63984 0.72707 0.87258 0.0
O230 O 0.61576 0.75317 0.78011 0.0
O231 O 0.65232 0.80523 0.82899 0.0
H232 H 0.76563 0.9486 0.89316 0.0
H233 H 0.80762 0.01779 0.87734 0.0
H234 H 0.83139 0.99204 0.7301 0.0
H235 H 0.78905 0.92232 0.74643 0.0
H236 H 0.55619 0.67272 0.80427 0.0
H237 H 0.48561 0.63255 0.80453 0.0
H238 H 0.49441 0.54388 0.72286 0.0
H239 H 0.56497 0.5846 0.72215 0.0
C240 C 0.29554 0.93803 0.97593 0.0
C241 C 0.29492 0.9544 0.93018 0.0
C242 C 0.30384 0.95975 1.02041 0.0
C243 C 0.31282 0.99912 1.01902 0.0
C244 C 0.31355 0.01598 0.97252 0.0
C245 C 0.30428 0.99347 0.92915 0.0
C246 C 0.30171 0.9402 0.06909 0.0
C247 C 0.32343 0.05778 0.96848 0.0
C248 C 0.2912 0.04657 0.12823 0.0
C249 C 0.32736 0.06857 0.15104 0.0
C250 C 0.28599 0.02282 0.087 0.0
C251 C 0.31804 0.02188 0.06598 0.0
C252 C 0.35498 0.0447 0.08805 0.0
C253 C 0.35914 0.06745 0.13058 0.0
C254 C 0.24594 0.99882 0.06575 0.0
C255 C 0.39021 0.04558 0.06622 0.0
H256 H 0.28852 0.908 0.9771 0.0
H257 H 0.30467 1.00678 0.89399 0.0
H258 H 0.32902 0.95715 0.08989 0.0
H259 H 0.27817 0.93914 0.09224 0.0
H260 H 0.29623 0.91018 0.06401 0.0
H261 H 0.32631 0.06758 0.92935 0.0
H262 H 0.30053 0.06153 0.98655 0.0
H263 H 0.35089 0.07689 0.98803 0.0
H264 H 0.26651 0.04771 0.14281 0.0
H265 H 0.38725 0.08453 0.14749 0.0
H266 H 0.23843 0.96805 0.06259 0.0
H267 H 0.24503 1.00917 1.0279 0.0
H268 H 0.22356 1.00024 0.08878 0.0
H269 H 0.38563 0.01577 0.06392 0.0
H270 H 0.41661 0.06375 0.08832 0.0
H271 H 0.39504 0.0572 1.02787 0.0
C272 C 0.75425 0.784 0.64734 0.0
C273 C 0.71651 0.77283 0.66324 0.0
C274 C 0.76132 0.76798 0.60484 0.0
C275 C 0.72993 0.74012 0.57657 0.0
C276 C 0.69164 0.72763 0.59331 0.0
C277 C 0.68537 0.74404 0.6365 0.0
C278 C 0.80258 0.7821 0.58921 0.0
C279 C 0.65725 0.69773 0.56471 0.0
C280 C 0.74331 0.73525 0.43718 0.0
C281 C 0.74762 0.70256 0.43204 0.0
C282 C 0.7389 0.74831 0.48382 0.0
C283 C 0.73727 0.72739 0.52705 0.0
C284 C 0.74258 0.69476 0.5224 0.0
C285 C 0.74793 0.68283 0.4749 0.0
C286 C 0.73459 0.78386 0.48647 0.0
C287 C 0.74069 0.67133 0.5673 0.0
H288 H 0.77867 0.80574 0.6681 0.0
H289 H 0.65619 0.73504 0.64858 0.0
H290 H 0.80706 0.75723 0.58176 0.0
H291 H 0.80887 0.79894 0.55429 0.0
H292 H 0.82364 0.80081 0.61776 0.0
H293 H 0.62964 0.68825 0.58485 0.0
H294 H 0.65585 0.70997 0.52837 0.0
H295 H 0.66031 0.67199 0.55719 0.0
H296 H 0.74187 0.7499 0.40416 0.0
H297 H 0.74991 0.65678 0.47111 0.0
H298 H 0.75577 0.80514 0.51291 0.0
H299 H 0.70531 0.77567 0.50036 0.0
H300 H 0.73893 0.79822 0.44982 0.0
H301 H 0.76033 0.69049 0.59664 0.0
H302 H 0.74847 0.64885 0.55828 0.0
H303 H 0.71096 0.65683 0.58284 0.0
C304 C 0.95611 0.25465 0.09656 0.0
C305 C 0.96812 0.2751 0.14141 0.0
C306 C 0.9788 0.26907 0.05295 0.0
C307 C 1.01471 0.3044 0.05439 0.0
C308 C 0.02659 0.32519 0.09951 0.0
C309 C 1.00304 0.31067 0.1419 0.0
C310 C 0.96455 0.24633 1.00542 0.0
C311 C 0.06478 0.36248 0.10346 0.0
C312 C 0.09107 0.3234 0.9548 0.0
C313 C 0.08872 0.35056 0.92419 0.0
C314 C 0.0677 0.30862 0.99762 0.0
C315 C 0.04002 0.31996 1.00904 0.0
C316 C 0.03746 0.34725 0.97789 0.0
C317 C 0.06208 0.36251 0.93634 0.0
C318 C 0.0724 0.2806 1.03043 0.0
C319 C 1.00787 0.3595 0.98761 0.0
H320 H 0.92929 0.22718 0.09567 0.0
H321 H 1.01268 0.32699 0.17607 0.0
H322 H 0.96379 0.26511 0.97559 0.0
H323 H 0.98475 0.23645 0.99318 0.0
H324 H 0.93527 0.22057 1.00959 0.0
H325 H 0.07021 0.37482 0.14146 0.0
H326 H 0.08869 0.35725 0.09298 0.0
H327 H 0.06559 0.38434 0.07731 0.0
H328 H 0.11091 0.31335 0.94485 0.0
H329 H 0.05916 0.38247 0.91186 0.0
H330 H 0.0453 0.25217 1.0308 0.0
H331 H 0.07805 0.29145 0.06914 0.0
H332 H 0.09642 0.27614 1.01792 0.0
H333 H 0.97846 0.33365 0.9879 0.0
H334 H 1.00887 0.38023 0.95931 0.0
H335 H 1.01264 0.37326 1.02462 0.0
C336 C 0.35401 0.07675 0.46732 0.0
C337 C 0.33125 0.05961 0.42527 0.0
C338 C 0.34233 0.05899 0.51457 0.0
C339 C 0.30726 0.02311 0.51979 0.0
C340 C 0.28353 1.00686 0.47758 0.0
C341 C 0.29589 0.02517 0.43118 0.0
C342 C 0.3684 0.07767 0.55845 0.0
C343 C 0.24571 0.96911 0.48085 0.0
C344 C 0.28911 0.95143 0.62612 0.0
C345 C 0.26369 0.95686 0.65657 0.0
C346 C 0.30457 0.97362 0.58228 0.0
C347 C 0.29488 1.00231 0.56895 0.0
C348 C 0.27061 1.0089 0.60096 0.0
C349 C 0.25522 0.98606 0.64379 0.0
C350 C 0.33036 0.96557 0.54941 0.0
C351 C 0.25985 0.03938 0.58928 0.0
H352 H 0.38194 0.10269 0.46282 0.0
H353 H 0.2785 1.01153 0.39872 0.0
H354 H 0.35182 0.08014 0.58995 0.0
H355 H 0.38027 0.05919 0.57096 0.0
H356 H 0.39286 0.10696 0.54945 0.0
H357 H 0.22979 0.96127 0.44517 0.0
H358 H 0.25119 0.94541 0.4916 0.0
H359 H 0.22696 0.97098 0.50989 0.0
H360 H 0.29605 0.9292 0.63577 0.0
H361 H 0.23616 0.99113 0.66741 0.0
H362 H 0.3577 0.99286 0.54161 0.0
H363 H 0.31593 0.95392 0.51335 0.0
H364 H 0.33734 0.94438 0.5663 0.0
H365 H 0.28617 0.06768 0.5819 0.0
H366 H 0.24335 0.04316 0.61991 0.0
H367 H 0.24199 0.03111 0.55525 0.0
C368 C 0.66549 0.73541 0.98123 0.0
C369 C 0.6881 0.74518 0.93798 0.0
C370 C 0.67902 0.72873 1.02659 0.0
C371 C 0.71547 0.73057 1.02846 0.0
C372 C 0.73793 0.73974 0.98456 0.0
C373 C 0.72432 0.74742 0.94045 0.0
C374 C 0.65459 0.72024 0.07268 0.0
C375 C 0.77657 0.74144 0.984 0.0
C376 C 0.77443 0.75249 0.14733 0.0
C377 C 0.76763 0.71575 0.16207 0.0
C378 C 0.75643 0.75737 0.10543 0.0
C379 C 0.73131 0.72482 0.07636 0.0
C380 C 0.72396 0.68748 0.09128 0.0
C381 C 0.74188 0.68334 0.1342 0.0
C382 C 0.76488 0.79765 0.09184 0.0
C383 C 0.6981 0.65203 0.06103 0.0
H384 H 0.63748 0.73347 0.97975 0.0
H385 H 0.74193 0.75434 0.9073 0.0
H386 H 0.64795 0.69185 0.08846 0.0
H387 H 0.67086 0.74257 0.10124 0.0
H388 H 0.62701 0.71972 0.06532 0.0
H389 H 0.78919 0.74609 0.94615 0.0
H390 H 0.7972 0.76541 1.00809 0.0
H391 H 0.77349 0.71412 0.99907 0.0
H392 H 0.79388 0.77774 0.16889 0.0
H393 H 0.73639 0.65488 0.14528 0.0
H394 H 0.73748 0.79812 0.08806 0.0
H395 H 0.77991 0.80622 0.05549 0.0
H396 H 0.78325 0.81959 0.1198 0.0
H397 H 0.66956 0.64978 0.05562 0.0
H398 H 0.69367 0.62491 0.0787 0.0
H399 H 0.71103 0.65465 1.02374 0.0
C400 C 0.95279 0.28876 0.46827 0.0
C401 C 0.96119 0.27272 0.427 0.0
C402 C 0.97196 0.2939 0.51389 0.0
C403 C 1.00157 0.2843 0.51797 0.0
C404 C 1.00893 0.26647 0.47705 0.0
C405 C 0.98836 0.26049 0.43251 0.0
C406 C 0.96188 0.31148 0.55692 0.0
C407 C 0.04038 0.25602 0.47911 0.0
C408 C 0.08123 0.33618 0.61569 0.0
C409 C 0.07086 0.30689 0.65115 0.0
C410 C 0.05891 0.3294 0.57224 0.0
C411 C 0.02493 0.29287 0.56475 0.0
C412 C 1.01384 0.26388 0.60149 0.0
C413 C 0.03698 0.2711 0.64364 0.0
C414 C 0.07232 0.36088 0.53358 0.0
C415 C 0.97759 0.22494 0.59615 0.0
H416 H 0.9328 0.29949 0.46398 0.0
H417 H 0.99582 0.2489 0.40082 0.0
H418 H 0.95715 0.29405 0.59101 0.0
H419 H 0.98624 0.34107 0.56427 0.0
H420 H 0.93556 0.31344 0.54968 0.0
H421 H 0.04143 0.24081 0.44509 0.0
H422 H 0.06878 0.28279 0.48369 0.0
H423 H 0.03611 0.23721 0.51157 0.0
H424 H 0.10737 0.3638 0.62105 0.0
H425 H 0.02837 0.24831 0.67105 0.0
H426 H 0.04941 0.36823 0.52655 0.0
H427 H 0.07788 0.35035 0.49809 0.0
H428 H 0.09908 0.38764 0.5448 0.0
H429 H 0.95209 0.22896 0.59394 0.0
H430 H 0.97344 0.2052 0.62755 0.0
H431 H 0.97861 0.21069 0.56128 0.0
C432 C 0.63081 0.16104 0.22004 0.0
C433 C 0.60887 0.14914 0.26399 0.0
C434 C 0.67139 0.17736 0.22063 0.0
C435 C 0.69088 0.1824 0.26629 0.0
C436 C 0.669 0.17159 0.31084 0.0
C437 C 0.62851 0.15508 0.30914 0.0
C438 C 0.6933 0.18815 0.17215 0.0
C439 C 0.68828 0.1767 0.36046 0.0
C440 C 0.7873 0.18358 0.26875 0.0
C441 C 0.81452 0.22327 0.27328 0.0
C442 C 0.74736 0.17015 0.26572 0.0
C443 C 0.73371 0.19685 0.26747 0.0
C444 C 0.76097 0.23701 0.27172 0.0
C445 C 0.80089 0.24971 0.27443 0.0
C446 C 0.71968 0.12715 0.26102 0.0
C447 C 0.74791 0.26658 0.27399 0.0
H448 H 0.6161 0.15642 0.1849 0.0
H449 H 0.61211 0.14668 0.34345 0.0
H450 H 0.71717 0.21868 0.17326 0.0
H451 H 0.70652 0.1697 0.16615 0.0
H452 H 0.67444 0.18453 0.14009 0.0
H453 H 0.66764 0.16898 0.39188 0.0
H454 H 0.70171 0.15818 0.36234 0.0
H455 H 0.71172 0.20719 0.36504 0.0
H456 H 0.79715 0.1627 0.26758 0.0
H457 H 0.82141 0.28041 0.27787 0.0
H458 H 0.70163 0.12121 0.22746 0.0
H459 H 0.69987 0.11669 0.29345 0.0
H460 H 0.73483 0.11019 0.25865 0.0
H461 H 0.73048 0.26399 0.24082 0.0
H462 H 0.77258 0.29673 0.27609 0.0
H463 H 0.7291 0.261 0.30691 0.0
C464 C 0.58312 0.40658 0.3114 0.0
C465 C 0.58025 0.42626 0.2698 0.0
C466 C 0.56072 0.36589 0.31575 0.0
C467 C 0.53462 0.34389 0.2776 0.0
C468 C 0.53272 0.36337 0.23462 0.0
C469 C 0.55543 0.40411 0.23125 0.0
C470 C 0.56396 0.3466 0.36217 0.0
C471 C 0.5054 0.34131 0.19296 0.0
C472 C 0.48739 0.23277 0.27381 0.0
C473 C 0.45078 0.22097 0.29432 0.0
C474 C 0.5153 0.27255 0.26881 0.0
C475 C 0.50653 0.30132 0.28478 0.0
C476 C 0.47007 0.28943 0.30687 0.0
C477 C 0.44288 0.24973 0.3113 0.0
C478 C 0.55378 0.2838 0.24519 0.0
C479 C 0.45931 0.31874 0.3249 0.0
H480 H 0.60267 0.42308 0.34106 0.0
H481 H 0.55255 0.41873 0.19908 0.0
H482 H 0.53661 0.33452 0.38364 0.0
H483 H 0.56847 0.32206 0.3525 0.0
H484 H 0.58803 0.36707 0.38628 0.0
H485 H 0.50981 0.35997 0.16019 0.0
H486 H 0.50915 0.31666 0.18131 0.0
H487 H 0.47514 0.32905 0.20602 0.0
H488 H 0.49388 0.21098 0.26032 0.0
H489 H 0.4149 0.24126 0.32752 0.0
H490 H 0.57766 0.30418 0.26952 0.0
H491 H 0.55667 0.29909 0.2097 0.0
H492 H 0.55723 0.25826 0.23767 0.0
H493 H 0.48089 0.33862 0.35208 0.0
H494 H 0.43029 0.30486 0.34262 0.0
H495 H 0.45949 0.33666 0.29333 0.0
C496 C 0.86624 0.4776 0.24044 0.0
C497 C 0.8673 0.45579 0.28072 0.0
C498 C 0.84893 0.50085 0.24465 0.0
C499 C 0.8321 0.50258 0.29029 0.0
C500 C 0.83188 0.47964 0.33058 0.0
C501 C 0.84943 0.45666 0.32536 0.0
C502 C 0.85007 0.52483 0.2007 0.0
C503 C 0.81418 0.48035 0.37984 0.0
C504 C 0.83292 0.59711 0.31643 0.0
C505 C 0.79506 0.58803 0.3046 0.0
C506 C 0.84484 0.56943 0.3129 0.0
C507 C 0.8184 0.53127 0.29715 0.0
C508 C 0.77976 0.5214 0.28656 0.0
C509 C 0.76853 0.54984 0.29041 0.0
C510 C 0.88624 0.58146 0.32487 0.0
C511 C 0.75055 0.48106 0.26985 0.0
H512 H 0.88021 0.47765 0.20591 0.0
H513 H 0.84937 0.43949 0.35653 0.0
H514 H 0.82078 0.52014 0.19308 0.0
H515 H 0.86896 0.55607 0.20915 0.0
H516 H 0.86117 0.51786 0.1667 0.0
H517 H 0.81319 0.45838 0.40607 0.0
H518 H 0.83128 0.50943 0.3969 0.0
H519 H 0.78441 0.47503 0.37453 0.0
H520 H 0.85378 0.62633 0.32776 0.0
H521 H 0.73928 0.54241 0.28103 0.0
H522 H 0.90082 0.5786 0.29136 0.0
H523 H 0.88716 0.56211 0.35371 0.0
H524 H 0.90289 0.61185 0.33823 0.0
H525 H 0.75935 0.4751 0.23334 0.0
H526 H 0.7211 0.47713 0.26644 0.0
H527 H 0.74948 0.45926 0.29635 0.0
C528 C 0.14793 0.61817 0.73623 0.0
C529 C 0.15612 0.59623 0.76976 0.0
C530 C 0.16487 0.65873 0.74102 0.0
C531 C 0.19091 0.67835 0.7803 0.0
C532 C 0.19975 0.65655 0.8139 0.0
C533 C 0.18234 0.61597 0.80828 0.0
C534 C 0.15456 0.68057 0.70418 0.0
C535 C 0.2272 0.67603 0.85638 0.0
C536 C 0.25659 0.78862 0.76828 0.0
C537 C 0.23627 0.8027 0.79585 0.0
C538 C 0.24271 0.74842 0.76373 0.0
C539 C 0.20756 0.72136 0.7872 0.0
C540 C 0.18751 0.73548 0.81609 0.0
C541 C 0.20202 0.77572 0.82005 0.0
C542 C 0.26524 0.73486 0.73278 0.0
C543 C 0.15006 0.70799 0.84194 0.0
H544 H 0.12837 0.60365 0.70578 0.0
H545 H 0.1887 0.59958 0.83487 0.0
H546 H 0.14061 0.69496 0.72368 0.0
H547 H 0.18111 0.70366 0.6861 0.0
H548 H 0.13463 0.66136 0.67501 0.0
H549 H 0.23251 0.65544 0.878 0.0
H550 H 0.25525 0.69968 0.84225 0.0
H551 H 0.21523 0.68942 0.88171 0.0
H552 H 0.28302 0.809 0.74935 0.0
H553 H 0.18591 0.78598 0.84147 0.0
H554 H 0.24777 0.71834 0.70034 0.0
H555 H 0.27133 0.71497 0.75467 0.0
H556 H 0.29303 0.75936 0.7192 0.0
H557 H 0.12795 0.68999 0.81408 0.0
H558 H 0.13873 0.72345 0.86465 0.0
H559 H 0.1542 0.68797 0.86635 0.0
C560 C 0.49919 0.88804 0.7423 0.0
C561 C 0.46788 0.87905 0.77416 0.0
C562 C 0.5217 0.87003 0.7474 0.0
C563 C 0.51286 0.8421 0.78524 0.0
C564 C 0.48092 0.83235 0.81698 0.0
C565 C 0.45896 0.85091 0.81116 0.0
C566 C 0.5554 0.88138 0.71262 0.0
C567 C 0.47039 0.80286 0.85787 0.0
C568 C 0.55713 0.77626 0.7737 0.0
C569 C 0.59003 0.79548 0.80375 0.0
C570 C 0.53126 0.79047 0.76819 0.0
C571 C 0.53836 0.82479 0.79319 0.0
C572 C 0.57086 0.84356 0.82471 0.0
C573 C 0.59611 0.82874 0.82961 0.0
C574 C 0.49688 0.76933 0.7345 0.0
C575 C 0.57968 0.8801 0.85225 0.0
H576 H 0.50609 0.90913 0.71301 0.0
H577 H 0.43525 0.84392 0.83649 0.0
H578 H 0.58269 0.89441 0.734 0.0
H579 H 0.55249 0.8553 0.69371 0.0
H580 H 0.55773 0.90252 0.68405 0.0
H581 H 0.44341 0.7967 0.87749 0.0
H582 H 0.46665 0.77533 0.84255 0.0
H583 H 0.49416 0.81359 0.88526 0.0
H584 H 0.55207 0.75063 0.75345 0.0
H585 H 0.62131 0.84397 0.85299 0.0
H586 H 0.49979 0.7881 0.70251 0.0
H587 H 0.46995 0.76276 0.75449 0.0
H588 H 0.49392 0.7418 0.72022 0.0
H589 H 0.58545 0.90347 0.82536 0.0
H590 H 0.60511 0.89034 0.87693 0.0
H591 H 0.5544 0.87514 0.87497 0.0
C592 C 0.24867 0.46785 0.75816 0.0
C593 C 0.23453 0.42927 0.77323 0.0
C594 C 0.28878 0.49457 0.7558 0.0
C595 C 0.31567 0.48272 0.76907 0.0
C596 C 0.30152 0.44391 0.78455 0.0
C597 C 0.26143 0.41783 0.7863 0.0
C598 C 0.30241 0.53553 0.73892 0.0
C599 C 0.32882 0.42982 0.79936 0.0
C600 C 0.42053 0.5377 0.7228 0.0
C601 C 0.44058 0.55966 0.7645 0.0
C602 C 0.38001 0.51339 0.72339 0.0
C603 C 0.35858 0.51058 0.76678 0.0
C604 C 0.37853 0.53303 0.80878 0.0
C605 C 0.41906 0.5572 0.80712 0.0
C606 C 0.36015 0.49028 0.67761 0.0
C607 C 0.35713 0.53088 0.85599 0.0
H608 H 0.22839 0.4772 0.74795 0.0
H609 H 0.25118 0.38827 0.7982 0.0
H610 H 0.32025 0.5563 0.76821 0.0
H611 H 0.32099 0.54219 0.70553 0.0
H612 H 0.27803 0.54037 0.73003 0.0
H613 H 0.31334 0.39892 0.81102 0.0
H614 H 0.34822 0.43321 0.76786 0.0
H615 H 0.34735 0.44762 0.83038 0.0
H616 H 0.43653 0.53968 0.68935 0.0
H617 H 0.43401 0.57353 0.83983 0.0
H618 H 0.33715 0.49641 0.66595 0.0
H619 H 0.34604 0.45883 0.68597 0.0
H620 H 0.38055 0.49683 0.64616 0.0
H621 H 0.33373 0.53739 0.84822 0.0
H622 H 0.37644 0.55138 0.88464 0.0
H623 H 0.34334 0.50103 0.87129 0.0
C624 C 0.14461 0.19198 0.29161 0.0
C625 C 0.18501 0.21384 0.28804 0.0
C626 C 0.1218 0.20982 0.29003 0.0
C627 C 0.13971 0.25071 0.28536 0.0
C628 C 0.18048 0.27294 0.28153 0.0
C629 C 0.20256 0.25429 0.28267 0.0
C630 C 0.07843 0.18486 0.29381 0.0
C631 C 0.20083 0.31655 0.27749 0.0
C632 C 0.07193 0.28701 0.24449 0.0
C633 C 0.05853 0.29233 0.29026 0.0
C634 C 0.10014 0.27566 0.24202 0.0
C635 C 0.11558 0.26994 0.28643 0.0
C636 C 0.10458 0.27882 0.33247 0.0
C637 C 0.07581 0.28933 0.33382 0.0
C638 C 0.11074 0.26644 0.1921 0.0
C639 C 0.12068 0.27411 0.38079 0.0
H640 H 0.13073 0.16074 0.29529 0.0
H641 H 0.23378 0.27156 0.2806 0.0
H642 H 0.06795 0.1924 0.32786 0.0
H643 H 0.06457 0.19043 0.26175 0.0
H644 H 0.06882 0.15344 0.29493 0.0
H645 H 0.23258 0.32962 0.27299 0.0
H646 H 0.1895 0.32524 0.2455 0.0
H647 H 0.19504 0.32878 0.31129 0.0
H648 H 0.05781 0.2882 0.21082 0.0
H649 H 0.06501 0.29277 0.36929 0.0
H650 H 0.0974 0.23455 0.18825 0.0
H651 H 0.14246 0.27911 0.18874 0.0
H652 H 0.10055 0.27737 0.16111 0.0
H653 H 0.10586 0.24294 0.39094 0.0
H654 H 0.11621 0.29018 0.41136 0.0
H655 H 0.15202 0.28442 0.37747 0.0
C656 C 0.06983 0.8951 0.31986 0.0
C657 C 0.04934 0.85857 0.29726 0.0
C658 C 0.11018 0.91813 0.3147 0.0
C659 C 0.13087 0.90439 0.28636 0.0
C660 C 0.11045 0.86745 0.26374 0.0
C661 C 0.07003 0.84507 0.26935 0.0
C662 C 0.13065 0.95747 0.33916 0.0
C663 C 0.13133 0.85159 0.23353 0.0
C664 C 0.22732 0.98516 0.23846 0.0
C665 C 0.25291 0.98666 0.27479 0.0
C666 C 0.18797 0.95683 0.2398 0.0
C667 C 0.1736 0.92959 0.27914 0.0
C668 C 0.19988 0.92944 0.31425 0.0
C669 C 0.23927 0.95808 0.31169 0.0
C670 C 0.16133 0.9582 0.20138 0.0
C671 C 0.186 0.90092 0.35668 0.0
H672 H 0.05419 0.90601 0.34108 0.0
H673 H 0.05465 0.81665 0.25239 0.0
H674 H 0.15334 0.95937 0.36445 0.0
H675 H 0.1452 0.98038 0.3106 0.0
H676 H 0.11058 0.96363 0.36073 0.0
H677 H 0.11146 0.82202 0.21921 0.0
H678 H 0.14625 0.87104 0.20165 0.0
H679 H 0.15382 0.85061 0.25641 0.0
H680 H 0.23751 1.00794 0.21098 0.0
H681 H 0.25888 0.95959 0.34036 0.0
H682 H 0.14294 0.96854 0.21886 0.0
H683 H 0.14184 0.92883 0.18635 0.0
H684 H 0.1775 0.97791 0.17012 0.0
H685 H 0.16967 0.90849 0.38347 0.0
H686 H 0.21033 0.90103 0.37659 0.0
H687 H 0.1661 0.87115 0.34317 0.0
C688 C 0.78997 0.96535 0.28064 0.0
C689 C 0.82752 0.98672 0.26087 0.0
C690 C 0.76994 0.92446 0.28086 0.0
C691 C 0.78798 0.90432 0.26149 0.0
C692 C 0.82467 0.92568 0.23837 0.0
C693 C 0.84377 0.96642 0.23807 0.0
C694 C 0.73059 0.90302 0.30498 0.0
C695 C 0.84514 0.90565 0.21713 0.0
C696 C 0.77568 0.81389 0.32442 0.0
C697 C 0.75608 0.78506 0.28856 0.0
C698 C 0.78407 0.85213 0.31717 0.0
C699 C 0.77236 0.86224 0.27292 0.0
C700 C 0.74971 0.8327 0.23824 0.0
C701 C 0.74189 0.79433 0.24637 0.0
C702 C 0.8081 0.88227 0.35549 0.0
C703 C 0.73537 0.84202 0.19157 0.0
H704 H 0.77693 0.98047 0.29837 0.0
H705 H 0.87222 0.98246 0.22135 0.0
H706 H 0.71118 0.87619 0.28425 0.0
H707 H 0.73349 0.89441 0.34312 0.0
H708 H 0.7169 0.92133 0.30745 0.0
H709 H 0.87152 0.92585 0.19591 0.0
H710 H 0.85368 0.8929 0.24774 0.0
H711 H 0.82561 0.88157 0.19238 0.0
H712 H 0.78653 0.8071 0.35741 0.0
H713 H 0.72668 0.7723 0.21848 0.0
H714 H 0.79417 0.89928 0.36631 0.0
H715 H 0.83684 0.90281 0.33951 0.0
H716 H 0.81248 0.86919 0.38945 0.0
H717 H 0.72082 0.85881 0.20061 0.0
H718 H 0.71488 0.81546 0.17101 0.0
H719 H 0.76016 0.86043 0.16694 0.0
C720 C 0.26866 0.19868 0.79198 0.0
C721 C 0.23084 0.18639 0.77621 0.0
C722 C 0.2841 0.17375 0.78959 0.0
C723 C 0.26092 0.13541 0.77186 0.0
C724 C 0.22349 0.12361 0.75349 0.0
C725 C 0.20901 0.14925 0.7557 0.0
C726 C 0.32441 0.18776 0.80853 0.0
C727 C 0.19757 0.08291 0.7347 0.0
C728 C 0.29504 0.06307 0.74579 0.0
C729 C 0.28184 0.04004 0.78855 0.0
C730 C 0.2907 0.09594 0.74069 0.0
C731 C 0.27292 0.10577 0.77933 0.0
C732 C 0.26236 0.08413 0.82396 0.0
C733 C 0.26694 0.05161 0.82793 0.0
C734 C 0.3029 0.11859 0.69285 0.0
C735 C 0.24348 0.09346 0.86631 0.0
H736 H 0.2859 0.22754 0.80724 0.0
H737 H 0.17966 0.13936 0.74386 0.0
H738 H 0.32281 0.17433 0.84511 0.0
H739 H 0.34051 0.17896 0.78302 0.0
H740 H 0.34091 0.21977 0.81294 0.0
H741 H 0.17087 0.07944 0.71734 0.0
H742 H 0.21308 0.07494 0.70713 0.0
H743 H 0.18915 0.06214 0.76601 0.0
H744 H 0.30641 0.05406 0.71519 0.0
H745 H 0.25709 0.03403 0.86127 0.0
H746 H 0.31886 0.15019 0.70042 0.0
H747 H 0.27691 0.11224 0.67109 0.0
H748 H 0.32136 0.11109 0.66983 0.0
H749 H 0.26074 0.12455 0.8763 0.0
H750 H 0.24001 0.07584 0.89988 0.0
H751 H 0.2145 0.0878 0.85475 0.0
C752 C 0.97225 0.83749 0.7606 0.0
C753 C 0.98611 0.81503 0.78283 0.0
C754 C 0.93234 0.82356 0.75663 0.0
C755 C 0.9056 0.78614 0.77496 0.0
C756 C 0.91948 0.76234 0.79417 0.0
C757 C 0.9595 0.77712 0.79812 0.0
C758 C 0.91886 0.84999 0.736 0.0
C759 C 0.8921 0.7221 0.81338 0.0
C760 C 0.81495 0.77884 0.83038 0.0
C761 C 0.78811 0.76185 0.79198 0.0
C762 C 0.85262 0.78532 0.82585 0.0
C763 C 0.86409 0.77475 0.78154 0.0
C764 C 0.83651 0.7556 0.7435 0.0
C765 C 0.79864 0.74928 0.74922 0.0
C766 C 0.88071 0.8055 0.86765 0.0
C767 C 0.84744 0.74362 0.69583 0.0
H768 H 0.99259 0.86678 0.74872 0.0
H769 H 0.97001 0.75927 0.81442 0.0
H770 H 0.89551 0.83436 0.70859 0.0
H771 H 0.9068 0.85954 0.76649 0.0
H772 H 0.94271 0.87613 0.71796 0.0
H773 H 0.90694 0.70523 0.81998 0.0
H774 H 0.8791 0.72416 0.84887 0.0
H775 H 0.86815 0.70599 0.78686 0.0
H776 H 0.80689 0.78858 0.86354 0.0
H777 H 0.77811 0.7366 0.7192 0.0
H778 H 0.90415 0.8342 0.85481 0.0
H779 H 0.89431 0.78838 0.87918 0.0
H780 H 0.8666 0.80997 0.90059 0.0
H781 H 0.8662 0.76979 0.67341 0.0
H782 H 0.82168 0.72411 0.6734 0.0
H783 H 0.86411 0.72878 0.70354 0.0
C784 C 0.98096 0.22665 0.8359 0.0
C785 C 0.99157 0.25155 0.79484 0.0
C786 C 0.949 0.18913 0.83427 0.0
C787 C 0.92666 0.17609 0.79056 0.0
C788 C 0.93498 0.20233 0.75063 0.0
C789 C 0.96756 0.23991 0.75315 0.0
C790 C 0.94105 0.16254 0.87811 0.0
C791 C 0.91082 0.18996 0.70428 0.0
C792 C 0.88403 0.06776 0.77162 0.0
C793 C 0.84723 0.0529 0.79284 0.0
C794 C 0.90935 0.10796 0.76793 0.0
C795 C 0.89752 0.13402 0.78552 0.0
C796 C 0.85952 0.11918 0.80409 0.0
C797 C 0.83494 0.07884 0.80779 0.0
C798 C 0.94965 0.12251 0.74794 0.0
C799 C 0.84543 0.14577 0.82254 0.0
H800 H 0.99909 0.23576 0.86859 0.0
H801 H 0.97555 0.25908 0.72138 0.0
H802 H 0.91019 0.14848 0.88908 0.0
H803 H 0.94724 0.13921 0.86769 0.0
H804 H 0.95898 0.17814 0.91076 0.0
H805 H 0.91791 0.21489 0.67944 0.0
H806 H 0.9157 0.16861 0.68379 0.0
H807 H 0.87966 0.17544 0.71389 0.0
H808 H 0.89377 0.04796 0.7601 0.0
H809 H 0.80624 0.06757 0.82337 0.0
H810 H 0.97089 0.1364 0.77826 0.0
H811 H 0.95658 0.14482 0.71895 0.0
H812 H 0.95331 0.09883 0.73191 0.0
H813 H 0.85833 0.15754 0.85928 0.0
H814 H 0.81349 0.13038 0.82656 0.0
H815 H 0.85451 0.17073 0.79708 0.0
loop_
_geom_bond_atom_site_label_1
_geom_bond_atom_site_label_2
_geom_bond_distance
_geom_bond_site_symmetry_2
_ccdc_geom_bond_type
Sm0 C2 2.846 . S
Sm0 O20 2.543 . S
Sm0 O21 2.450 . S
Sm0 O22 2.681 . S
Sm0 O23 2.464 . S
Sm0 O24 2.396 . S
Sm0 O28 2.386 . S
Sm0 O31 2.408 . S
Sm1 C11 2.846 . S
Sm1 O22 2.386 . S
Sm1 O25 2.408 . S
Sm1 O26 2.543 . S
Sm1 O27 2.450 . S
Sm1 O28 2.681 . S
Sm1 O29 2.464 . S
Sm1 O30 2.396 . S
C2 Sm0 2.846 . S
C2 C3 1.506 . S
C2 O20 1.261 . S
C2 O21 1.242 . S
C3 C2 1.506 . S
C3 C4 1.358 . S
C3 C8 1.382 . S
C4 C3 1.358 . S
C4 C5 1.385 . S
C4 H32 0.930 . S
C5 C4 1.385 . S
C5 C6 1.395 . S
C5 H33 0.929 . S
C6 C5 1.395 . S
C6 C7 1.335 . S
C7 C6 1.335 . S
C7 C8 1.398 . S
C7 H34 0.930 . S
C8 C3 1.382 . S
C8 C7 1.398 . S
C8 H35 0.929 . S
C9 O22 1.271 . S
C9 O23 1.251 . S
C10 O24 1.252 . S
C10 O25 1.272 . S
C11 Sm1 2.846 . S
C11 C12 1.506 . S
C11 O26 1.261 . S
C11 O27 1.242 . S
C12 C11 1.506 . S
C12 C13 1.358 . S
C12 C17 1.382 . S
C13 C12 1.358 . S
C13 C14 1.385 . S
C13 H36 0.930 . S
C14 C13 1.385 . S
C14 C15 1.395 . S
C14 H37 0.929 . S
C15 C14 1.395 . S
C15 C16 1.335 . S
C16 C15 1.335 . S
C16 C17 1.398 . S
C16 H38 0.930 . S
C17 C12 1.382 . S
C17 C16 1.398 . S
C17 H39 0.929 . S
C18 O28 1.271 . S
C18 O29 1.251 . S
C19 O30 1.252 . S
C19 O31 1.272 . S
O20 Sm0 2.543 . S
O20 C2 1.261 . S
O21 Sm0 2.450 . S
O21 C2 1.242 . S
O22 Sm0 2.681 . S
O22 Sm1 2.386 . S
O22 C9 1.271 . S
O23 Sm0 2.464 . S
O23 C9 1.251 . S
O24 Sm0 2.396 . S
O24 C10 1.252 . S
O25 Sm1 2.408 . S
O25 C10 1.272 . S
O26 Sm1 2.543 . S
O26 C11 1.261 . S
O27 Sm1 2.450 . S
O27 C11 1.242 . S
O28 Sm0 2.386 . S
O28 Sm1 2.681 . S
O28 C18 1.271 . S
O29 Sm1 2.464 . S
O29 C18 1.251 . S
O30 Sm1 2.396 . S
O30 C19 1.252 . S
O31 Sm0 2.408 . S
O31 C19 1.272 . S
H32 C4 0.930 . S
H33 C5 0.929 . S
H34 C7 0.930 . S
H35 C8 0.929 . S
H36 C13 0.930 . S
H37 C14 0.929 . S
H38 C16 0.930 . S
H39 C17 0.929 . S
Sm40 C42 2.846 . S
Sm40 O60 2.543 . S
Sm40 O61 2.450 . S
Sm40 O62 2.681 . S
Sm40 O63 2.464 . S
Sm40 O64 2.396 . S
Sm40 O68 2.386 . S
Sm40 O71 2.408 . S
Sm41 C51 2.846 . S
Sm41 O62 2.386 . S
Sm41 O65 2.408 . S
Sm41 O66 2.543 . S
Sm41 O67 2.450 . S
Sm41 O68 2.681 . S
Sm41 O69 2.464 . S
Sm41 O70 2.396 . S
C42 Sm40 2.846 . S
C42 C43 1.506 . S
C42 O60 1.261 . S
C42 O61 1.242 . S
C43 C42 1.506 . S
C43 C44 1.358 . S
C43 C48 1.382 . S
C44 C43 1.358 . S
C44 C45 1.385 . S
C44 H72 0.930 . S
C45 C44 1.385 . S
C45 C46 1.395 . S
C45 H73 0.929 . S
C46 C45 1.395 . S
C46 C47 1.335 . S
C47 C46 1.335 . S
C47 C48 1.398 . S
C47 H74 0.930 . S
C48 C43 1.382 . S
C48 C47 1.398 . S
C48 H75 0.929 . S
C49 O62 1.271 . S
C49 O63 1.251 . S
C50 O64 1.252 . S
C50 O65 1.272 . S
C51 Sm41 2.846 . S
C51 C52 1.506 . S
C51 O66 1.261 . S
C51 O67 1.242 . S
C52 C51 1.506 . S
C52 C53 1.358 . S
C52 C57 1.382 . S
C53 C52 1.358 . S
C53 C54 1.385 . S
C53 H76 0.930 . S
C54 C53 1.385 . S
C54 C55 1.395 . S
C54 H77 0.929 . S
C55 C54 1.395 . S
C55 C56 1.335 . S
C56 C55 1.335 . S
C56 C57 1.398 . S
C56 H78 0.917 1_655 S
C57 C52 1.382 . S
C57 C56 1.398 . S
C57 H79 0.929 . S
C58 O68 1.271 . S
C58 O69 1.251 . S
C59 O70 1.252 . S
C59 O71 1.272 . S
O60 Sm40 2.543 . S
O60 C42 1.261 . S
O61 Sm40 2.450 . S
O61 C42 1.242 . S
O62 Sm40 2.681 . S
O62 Sm41 2.386 . S
O62 C49 1.271 . S
O63 Sm40 2.464 . S
O63 C49 1.251 . S
O64 Sm40 2.396 . S
O64 C50 1.252 . S
O65 Sm41 2.408 . S
O65 C50 1.272 . S
O66 Sm41 2.543 . S
O66 C51 1.261 . S
O67 Sm41 2.450 . S
O67 C51 1.242 . S
O68 Sm40 2.386 . S
O68 Sm41 2.681 . S
O68 C58 1.271 . S
O69 Sm41 2.464 . S
O69 C58 1.251 . S
O70 Sm41 2.396 . S
O70 C59 1.252 . S
O71 Sm40 2.408 . S
O71 C59 1.272 . S
H72 C44 0.930 . S
H73 C45 0.929 . S
H74 C47 0.930 . S
H75 C48 0.929 . S
H76 C53 0.930 . S
H77 C54 0.929 . S
H78 C56 0.917 1_455 S
H79 C57 0.929 . S
Sm80 C82 2.846 . S
Sm80 O100 2.543 . S
Sm80 O101 2.450 . S
Sm80 O102 2.681 . S
Sm80 O103 2.464 . S
Sm80 O104 2.396 . S
Sm80 O108 2.386 . S
Sm80 O111 2.408 . S
Sm81 C91 2.846 . S
Sm81 O102 2.386 . S
Sm81 O105 2.408 . S
Sm81 O106 2.543 . S
Sm81 O107 2.450 . S
Sm81 O108 2.681 . S
Sm81 O109 2.464 . S
Sm81 O110 2.396 . S
C82 Sm80 2.846 . S
C82 C83 1.506 . S
C82 O100 1.261 . S
C82 O101 1.242 . S
C83 C82 1.506 . S
C83 C84 1.358 . S
C83 C88 1.382 . S
C84 C83 1.358 . S
C84 C85 1.385 . S
C84 H112 0.930 . S
C85 C84 1.385 . S
C85 C86 1.395 . S
C85 H113 0.929 . S
C86 C85 1.395 . S
C86 C87 1.335 . S
C87 C86 1.335 . S
C87 C88 1.398 . S
C87 H114 0.930 . S
C88 C83 1.382 . S
C88 C87 1.398 . S
C88 H115 0.929 . S
C89 O102 1.271 . S
C89 O103 1.251 . S
C90 O104 1.252 . S
C90 O105 1.272 . S
C91 Sm81 2.846 . S
C91 C92 1.506 . S
C91 O106 1.261 . S
C91 O107 1.242 . S
C92 C91 1.506 . S
C92 C93 1.358 . S
C92 C97 1.382 . S
C93 C92 1.358 . S
C93 C94 1.385 . S
C93 H116 0.930 . S
C94 C93 1.385 . S
C94 C95 1.395 . S
C94 H117 0.929 . S
C95 C94 1.395 . S
C95 C96 1.335 . S
C96 C95 1.335 . S
C96 C97 1.398 . S
C96 H118 0.915 1_545 S
C97 C92 1.382 . S
C97 C96 1.398 . S
C97 H119 0.929 . S
C98 O108 1.271 . S
C98 O109 1.251 . S
C99 O110 1.252 . S
C99 O111 1.272 . S
O100 Sm80 2.543 . S
O100 C82 1.261 . S
O101 Sm80 2.450 . S
O101 C82 1.242 . S
O102 Sm80 2.681 . S
O102 Sm81 2.386 . S
O102 C89 1.271 . S
O103 Sm80 2.464 . S
O103 C89 1.251 . S
O104 Sm80 2.396 . S
O104 C90 1.252 . S
O105 Sm81 2.408 . S
O105 C90 1.272 . S
O106 Sm81 2.543 . S
O106 C91 1.261 . S
O107 Sm81 2.450 . S
O107 C91 1.242 . S
O108 Sm80 2.386 . S
O108 Sm81 2.681 . S
O108 C98 1.271 . S
O109 Sm81 2.464 . S
O109 C98 1.251 . S
O110 Sm81 2.396 . S
O110 C99 1.252 . S
O111 Sm80 2.408 . S
O111 C99 1.272 . S
H112 C84 0.930 . S
H113 C85 0.929 . S
H114 C87 0.930 . S
H115 C88 0.929 . S
H116 C93 0.930 . S
H117 C94 0.929 . S
H118 C96 0.915 1_565 S
H119 C97 0.929 . S
Sm120 C122 2.846 . S
Sm120 O140 2.543 . S
Sm120 O141 2.450 . S
Sm120 O142 2.681 . S
Sm120 O143 2.464 . S
Sm120 O144 2.396 . S
Sm120 O148 2.386 . S
Sm120 O151 2.408 . S
Sm121 C131 2.846 . S
Sm121 O142 2.386 . S
Sm121 O145 2.408 . S
Sm121 O146 2.543 . S
Sm121 O147 2.450 . S
Sm121 O148 2.681 . S
Sm121 O149 2.464 . S
Sm121 O150 2.396 . S
C122 Sm120 2.846 . S
C122 C123 1.506 . S
C122 O140 1.261 . S
C122 O141 1.242 . S
C123 C122 1.506 . S
C123 C124 1.358 . S
C123 C128 1.382 . S
C124 C123 1.358 . S
C124 C125 1.385 . S
C124 H152 0.930 . S
C125 C124 1.385 . S
C125 C126 1.395 . S
C125 H153 0.929 . S
C126 C125 1.395 . S
C126 C127 1.335 . S
C127 C126 1.335 . S
C127 C128 1.398 . S
C127 H154 0.930 . S
C128 C123 1.382 . S
C128 C127 1.398 . S
C128 H155 0.929 . S
C129 O142 1.271 . S
C129 O143 1.251 . S
C130 O144 1.252 . S
C130 O145 1.272 . S
C131 Sm121 2.846 . S
C131 C132 1.506 . S
C131 O146 1.261 . S
C131 O147 1.242 . S
C132 C131 1.506 . S
C132 C133 1.358 . S
C132 C137 1.382 . S
C133 C132 1.358 . S
C133 C134 1.385 . S
C133 H156 0.930 . S
C134 C133 1.385 . S
C134 C135 1.395 . S
C134 H157 0.929 . S
C135 C134 1.395 . S
C135 C136 1.335 . S
C136 C135 1.335 . S
C136 C137 1.398 . S
C136 H158 0.930 . S
C137 C132 1.382 . S
C137 C136 1.398 . S
C137 H159 0.929 . S
C138 O148 1.271 . S
C138 O149 1.251 . S
C139 O150 1.252 . S
C139 O151 1.272 . S
O140 Sm120 2.543 . S
O140 C122 1.261 . S
O141 Sm120 2.450 . S
O141 C122 1.242 . S
O142 Sm120 2.681 . S
O142 Sm121 2.386 . S
O142 C129 1.271 . S
O143 Sm120 2.464 . S
O143 C129 1.251 . S
O144 Sm120 2.396 . S
O144 C130 1.252 . S
O145 Sm121 2.408 . S
O145 C130 1.272 . S
O146 Sm121 2.543 . S
O146 C131 1.261 . S
O147 Sm121 2.450 . S
O147 C131 1.242 . S
O148 Sm120 2.386 . S
O148 Sm121 2.681 . S
O148 C138 1.271 . S
O149 Sm121 2.464 . S
O149 C138 1.251 . S
O150 Sm121 2.396 . S
O150 C139 1.252 . S
O151 Sm120 2.408 . S
O151 C139 1.272 . S
H152 C124 0.930 . S
H153 C125 0.929 . S
H154 C127 0.930 . S
H155 C128 0.929 . S
H156 C133 0.930 . S
H157 C134 0.929 . S
H158 C136 0.930 . S
H159 C137 0.929 . S
Sm160 C162 2.846 . S
Sm160 O180 2.543 . S
Sm160 O181 2.450 . S
Sm160 O182 2.681 . S
Sm160 O183 2.464 . S
Sm160 O184 2.396 . S
Sm160 O188 2.386 . S
Sm160 O191 2.408 . S
Sm161 C171 2.846 . S
Sm161 O182 2.386 . S
Sm161 O185 2.408 . S
Sm161 O186 2.543 . S
Sm161 O187 2.450 . S
Sm161 O188 2.681 . S
Sm161 O189 2.464 . S
Sm161 O190 2.396 . S
C162 Sm160 2.846 . S
C162 C163 1.506 . S
C162 O180 1.261 . S
C162 O181 1.242 . S
C163 C162 1.506 . S
C163 C164 1.358 . S
C163 C168 1.382 . S
C164 C163 1.358 . S
C164 C165 1.385 . S
C164 H192 0.930 . S
C165 C164 1.385 . S
C165 C166 1.395 . S
C165 H193 0.929 . S
C166 C165 1.395 . S
C166 C167 1.335 . S
C167 C166 1.335 . S
C167 C168 1.398 . S
C167 H194 0.915 1_455 S
C168 C163 1.382 . S
C168 C167 1.398 . S
C168 H195 0.929 . S
C169 O182 1.271 . S
C169 O183 1.251 . S
C170 O184 1.252 . S
C170 O185 1.272 . S
C171 Sm161 2.846 . S
C171 C172 1.506 . S
C171 O186 1.261 . S
C171 O187 1.242 . S
C172 C171 1.506 . S
C172 C173 1.358 . S
C172 C177 1.382 . S
C173 C172 1.358 . S
C173 C174 1.385 . S
C173 H196 0.930 . S
C174 C173 1.385 . S
C174 C175 1.395 . S
C174 H197 0.929 . S
C175 C174 1.395 . S
C175 C176 1.335 . S
C176 C175 1.335 . S
C176 C177 1.398 . S
C176 H198 0.930 . S
C177 C172 1.382 . S
C177 C176 1.398 . S
C177 H199 0.929 . S
C178 O188 1.271 . S
C178 O189 1.251 . S
C179 O190 1.252 . S
C179 O191 1.272 . S
O180 Sm160 2.543 . S
O180 C162 1.261 . S
O181 Sm160 2.450 . S
O181 C162 1.242 . S
O182 Sm160 2.681 . S
O182 Sm161 2.386 . S
O182 C169 1.271 . S
O183 Sm160 2.464 . S
O183 C169 1.251 . S
O184 Sm160 2.396 . S
O184 C170 1.252 . S
O185 Sm161 2.408 . S
O185 C170 1.272 . S
O186 Sm161 2.543 . S
O186 C171 1.261 . S
O187 Sm161 2.450 . S
O187 C171 1.242 . S
O188 Sm160 2.386 . S
O188 Sm161 2.681 . S
O188 C178 1.271 . S
O189 Sm161 2.464 . S
O189 C178 1.251 . S
O190 Sm161 2.396 . S
O190 C179 1.252 . S
O191 Sm160 2.408 . S
O191 C179 1.272 . S
H192 C164 0.930 . S
H193 C165 0.929 . S
H194 C167 0.915 1_655 S
H195 C168 0.929 . S
H196 C173 0.930 . S
H197 C174 0.929 . S
H198 C176 0.930 . S
H199 C177 0.929 . S
Sm200 C202 2.846 . S
Sm200 O220 2.543 . S
Sm200 O221 2.450 . S
Sm200 O222 2.681 . S
Sm200 O223 2.464 . S
Sm200 O224 2.396 . S
Sm200 O228 2.386 . S
Sm200 O231 2.408 . S
Sm201 C211 2.846 . S
Sm201 O222 2.386 . S
Sm201 O225 2.408 . S
Sm201 O226 2.543 . S
Sm201 O227 2.450 . S
Sm201 O228 2.681 . S
Sm201 O229 2.464 . S
Sm201 O230 2.396 . S
C202 Sm200 2.846 . S
C202 C203 1.506 . S
C202 O220 1.261 . S
C202 O221 1.242 . S
C203 C202 1.506 . S
C203 C204 1.358 . S
C203 C208 1.382 . S
C204 C203 1.358 . S
C204 C205 1.385 . S
C204 H232 0.930 . S
C205 C204 1.385 . S
C205 C206 1.395 . S
C205 H233 0.929 . S
C206 C205 1.395 . S
C206 C207 1.335 . S
C207 C206 1.335 . S
C207 C208 1.398 . S
C207 H234 0.917 1_565 S
C208 C203 1.382 . S
C208 C207 1.398 . S
C208 H235 0.929 . S
C209 O222 1.271 . S
C209 O223 1.251 . S
C210 O224 1.252 . S
C210 O225 1.272 . S
C211 Sm201 2.846 . S
C211 C212 1.506 . S
C211 O226 1.261 . S
C211 O227 1.242 . S
C212 C211 1.506 . S
C212 C213 1.358 . S
C212 C217 1.382 . S
C213 C212 1.358 . S
C213 C214 1.385 . S
C213 H236 0.930 . S
C214 C213 1.385 . S
C214 C215 1.395 . S
C214 H237 0.929 . S
C215 C214 1.395 . S
C215 C216 1.335 . S
C216 C215 1.335 . S
C216 C217 1.398 . S
C216 H238 0.930 . S
C217 C212 1.382 . S
C217 C216 1.398 . S
C217 H239 0.929 . S
C218 O228 1.271 . S
C218 O229 1.251 . S
C219 O230 1.252 . S
C219 O231 1.272 . S
O220 Sm200 2.543 . S
O220 C202 1.261 . S
O221 Sm200 2.450 . S
O221 C202 1.242 . S
O222 Sm200 2.681 . S
O222 Sm201 2.386 . S
O222 C209 1.271 . S
O223 Sm200 2.464 . S
O223 C209 1.251 . S
O224 Sm200 2.396 . S
O224 C210 1.252 . S
O225 Sm201 2.408 . S
O225 C210 1.272 . S
O226 Sm201 2.543 . S
O226 C211 1.261 . S
O227 Sm201 2.450 . S
O227 C211 1.242 . S
O228 Sm200 2.386 . S
O228 Sm201 2.681 . S
O228 C218 1.271 . S
O229 Sm201 2.464 . S
O229 C218 1.251 . S
O230 Sm201 2.396 . S
O230 C219 1.252 . S
O231 Sm200 2.408 . S
O231 C219 1.272 . S
H232 C204 0.930 . S
H233 C205 0.929 . S
H234 C207 0.917 1_545 S
H235 C208 0.929 . S
H236 C213 0.930 . S
H237 C214 0.929 . S
H238 C216 0.930 . S
H239 C217 0.929 . S
C240 C241 1.391 . S
C240 C242 1.394 . S
C240 H256 0.931 . S
C241 C240 1.391 . S
C241 C245 1.376 . S
C242 C240 1.394 . S
C242 C243 1.369 . S
C242 C246 1.531 1_556 S
C243 C242 1.369 . S
C243 C244 1.410 . S
C243 C251 1.503 1_566 S
C244 C243 1.410 . S
C244 C245 1.392 . S
C244 C247 1.511 1_565 S
C245 C241 1.376 . S
C245 C244 1.392 . S
C245 H257 0.929 . S
C246 C242 1.531 1_554 S
C246 H258 0.960 . S
C246 H259 0.962 . S
C246 H260 0.960 . S
C247 C244 1.511 1_545 S
C247 H261 0.961 . S
C247 H262 0.961 . S
C247 H263 0.961 1_545 S
C248 C249 1.370 . S
C248 C250 1.363 . S
C248 H264 0.931 . S
C249 C248 1.370 . S
C249 C253 1.408 . S
C250 C248 1.363 . S
C250 C251 1.370 . S
C250 C254 1.524 1_554 S
C251 C243 1.503 1_544 S
C251 C250 1.370 . S
C251 C252 1.403 . S
C252 C251 1.403 . S
C252 C253 1.404 . S
C252 C255 1.539 1_545 S
C253 C249 1.408 . S
C253 C252 1.404 . S
C253 H265 0.930 . S
C254 C250 1.524 1_556 S
C254 H266 0.956 . S
C254 H267 0.961 . S
C254 H268 0.961 . S
C255 C252 1.539 1_565 S
C255 H269 0.958 . S
C255 H270 0.961 . S
C255 H271 0.960 . S
H256 C240 0.931 . S
H257 C245 0.929 . S
H258 C246 0.960 . S
H259 C246 0.962 . S
H260 C246 0.960 . S
H261 C247 0.961 . S
H262 C247 0.961 . S
H263 C247 0.961 1_565 S
H264 C248 0.931 . S
H265 C253 0.930 . S
H266 C254 0.956 . S
H267 C254 0.961 . S
H268 C254 0.961 . S
H269 C255 0.958 . S
H270 C255 0.961 . S
H271 C255 0.960 . S
C272 C273 1.391 . S
C272 C274 1.394 . S
C272 H288 0.931 . S
C273 C272 1.391 . S
C273 C277 1.376 . S
C274 C272 1.394 . S
C274 C275 1.369 . S
C274 C278 1.531 . S
C275 C274 1.369 . S
C275 C276 1.410 . S
C275 C283 1.503 . S
C276 C275 1.410 . S
C276 C277 1.392 . S
C276 C279 1.511 . S
C277 C273 1.376 . S
C277 C276 1.392 . S
C277 H289 0.929 . S
C278 C274 1.531 . S
C278 H290 0.960 . S
C278 H291 0.962 . S
C278 H292 0.960 . S
C279 C276 1.511 . S
C279 H293 0.961 . S
C279 H294 0.961 . S
C279 H295 0.961 . S
C280 C281 1.370 . S
C280 C282 1.363 . S
C280 H296 0.931 . S
C281 C280 1.370 . S
C281 C285 1.408 . S
C282 C280 1.363 . S
C282 C283 1.370 . S
C282 C286 1.524 . S
C283 C275 1.503 . S
C283 C282 1.370 . S
C283 C284 1.403 . S
C284 C283 1.403 . S
C284 C285 1.404 . S
C284 C287 1.539 . S
C285 C281 1.408 . S
C285 C284 1.404 . S
C285 H297 0.930 . S
C286 C282 1.524 . S
C286 H298 0.956 . S
C286 H299 0.961 . S
C286 H300 0.961 . S
C287 C284 1.539 . S
C287 H301 0.958 . S
C287 H302 0.961 . S
C287 H303 0.960 . S
H288 C272 0.931 . S
H289 C277 0.929 . S
H290 C278 0.960 . S
H291 C278 0.962 . S
H292 C278 0.960 . S
H293 C279 0.961 . S
H294 C279 0.961 . S
H295 C279 0.961 . S
H296 C280 0.931 . S
H297 C285 0.930 . S
H298 C286 0.956 . S
H299 C286 0.961 . S
H300 C286 0.961 . S
H301 C287 0.958 . S
H302 C287 0.961 . S
H303 C287 0.960 . S
C304 C305 1.391 . S
C304 C306 1.394 . S
C304 H320 0.931 . S
C305 C304 1.391 . S
C305 C309 1.376 . S
C306 C304 1.394 . S
C306 C307 1.369 . S
C306 C310 1.531 . S
C307 C306 1.369 . S
C307 C308 1.410 . S
C307 C315 1.503 1_654 S
C308 C307 1.410 . S
C308 C309 1.392 . S
C308 C311 1.511 1_554 S
C309 C305 1.376 . S
C309 C308 1.392 . S
C309 H321 0.929 . S
C310 C306 1.531 . S
C310 H322 0.960 1_554 S
C310 H323 0.962 1_655 S
C310 H324 0.960 . S
C311 C308 1.511 1_556 S
C311 H325 0.961 1_556 S
C311 H326 0.961 . S
C311 H327 0.961 . S
C312 C313 1.370 . S
C312 C314 1.363 . S
C312 H328 0.931 . S
C313 C312 1.370 . S
C313 C317 1.408 . S
C314 C312 1.363 . S
C314 C315 1.370 . S
C314 C318 1.524 1_556 S
C315 C307 1.503 1_456 S
C315 C314 1.370 . S
C315 C316 1.403 1_455 S
C316 C315 1.403 1_655 S
C316 C317 1.404 1_655 S
C316 C319 1.539 . S
C317 C313 1.408 . S
C317 C316 1.404 1_455 S
C317 H329 0.930 . S
C318 C314 1.524 1_554 S
C318 H330 0.956 . S
C318 H331 0.961 . S
C318 H332 0.961 . S
C319 C316 1.539 . S
C319 H333 0.958 . S
C319 H334 0.961 . S
C319 H335 0.960 . S
H320 C304 0.931 . S
H321 C309 0.929 . S
H322 C310 0.960 1_556 S
H323 C310 0.962 1_455 S
H324 C310 0.960 . S
H325 C311 0.961 1_554 S
H326 C311 0.961 . S
H327 C311 0.961 . S
H328 C312 0.931 . S
H329 C317 0.930 . S
H330 C318 0.956 . S
H331 C318 0.961 . S
H332 C318 0.961 . S
H333 C319 0.958 . S
H334 C319 0.961 . S
H335 C319 0.960 . S
C336 C337 1.391 . S
C336 C338 1.394 . S
C336 H352 0.931 . S
C337 C336 1.391 . S
C337 C341 1.376 . S
C338 C336 1.394 . S
C338 C339 1.369 . S
C338 C342 1.531 . S
C339 C338 1.369 . S
C339 C340 1.410 . S
C339 C347 1.503 1_545 S
C340 C339 1.410 . S
C340 C341 1.392 . S
C340 C343 1.511 1_545 S
C341 C337 1.376 . S
C341 C340 1.392 . S
C341 H353 0.929 . S
C342 C338 1.531 . S
C342 H354 0.960 . S
C342 H355 0.962 . S
C342 H356 0.960 . S
C343 C340 1.511 1_565 S
C343 H357 0.961 . S
C343 H358 0.961 . S
C343 H359 0.961 . S
C344 C345 1.370 . S
C344 C346 1.363 . S
C344 H360 0.931 . S
C345 C344 1.370 . S
C345 C349 1.408 . S
C346 C344 1.363 . S
C346 C347 1.370 . S
C346 C350 1.524 . S
C347 C339 1.503 1_565 S
C347 C346 1.370 . S
C347 C348 1.403 . S
C348 C347 1.403 . S
C348 C349 1.404 . S
C348 C351 1.539 1_565 S
C349 C345 1.408 . S
C349 C348 1.404 . S
C349 H361 0.930 . S
C350 C346 1.524 . S
C350 H362 0.956 . S
C350 H363 0.961 . S
C350 H364 0.961 . S
C351 C348 1.539 1_545 S
C351 H365 0.958 . S
C351 H366 0.961 . S
C351 H367 0.960 . S
H352 C336 0.931 . S
H353 C341 0.929 . S
H354 C342 0.960 . S
H355 C342 0.962 . S
H356 C342 0.960 . S
H357 C343 0.961 . S
H358 C343 0.961 . S
H359 C343 0.961 . S
H360 C344 0.931 . S
H361 C349 0.930 . S
H362 C350 0.956 . S
H363 C350 0.961 . S
H364 C350 0.961 . S
H365 C351 0.958 . S
H366 C351 0.961 . S
H367 C351 0.960 . S
C368 C369 1.391 . S
C368 C370 1.394 . S
C368 H384 0.931 . S
C369 C368 1.391 . S
C369 C373 1.376 . S
C370 C368 1.394 . S
C370 C371 1.369 . S
C370 C374 1.531 1_556 S
C371 C370 1.369 . S
C371 C372 1.410 . S
C371 C379 1.503 1_556 S
C372 C371 1.410 . S
C372 C373 1.392 . S
C372 C375 1.511 . S
C373 C369 1.376 . S
C373 C372 1.392 . S
C373 H385 0.929 . S
C374 C370 1.531 1_554 S
C374 H386 0.960 . S
C374 H387 0.962 . S
C374 H388 0.960 . S
C375 C372 1.511 . S
C375 H389 0.961 . S
C375 H390 0.961 . S
C375 H391 0.961 . S
C376 C377 1.370 . S
C376 C378 1.363 . S
C376 H392 0.931 . S
C377 C376 1.370 . S
C377 C381 1.408 . S
C378 C376 1.363 . S
C378 C379 1.370 . S
C378 C382 1.524 . S
C379 C371 1.503 1_554 S
C379 C378 1.370 . S
C379 C380 1.403 . S
C380 C379 1.403 . S
C380 C381 1.404 . S
C380 C383 1.529 1_554 S
C381 C377 1.408 . S
C381 C380 1.404 . S
C381 H393 0.930 . S
C382 C378 1.524 . S
C382 H394 0.956 . S
C382 H395 0.939 1_554 S
C382 H396 0.961 . S
C383 C380 1.529 1_556 S
C383 H397 0.950 1_556 S
C383 H398 0.962 . S
C383 H399 0.977 . S
H384 C368 0.931 . S
H385 C373 0.929 . S
H386 C374 0.960 . S
H387 C374 0.962 . S
H388 C374 0.960 . S
H389 C375 0.961 . S
H390 C375 0.961 . S
H391 C375 0.961 . S
H392 C376 0.931 . S
H393 C381 0.930 . S
H394 C382 0.956 . S
H395 C382 0.939 1_556 S
H396 C382 0.961 . S
H397 C383 0.950 1_554 S
H398 C383 0.962 . S
H399 C383 0.977 . S
C400 C401 1.391 . S
C400 C402 1.394 . S
C400 H416 0.931 . S
C401 C400 1.391 . S
C401 C405 1.376 . S
C402 C400 1.394 . S
C402 C403 1.369 . S
C402 C406 1.531 . S
C403 C402 1.369 . S
C403 C404 1.410 . S
C403 C411 1.503 1_655 S
C404 C403 1.410 . S
C404 C405 1.392 . S
C404 C407 1.511 . S
C405 C401 1.376 . S
C405 C404 1.392 . S
C405 H417 0.929 . S
C406 C402 1.531 . S
C406 H418 0.960 . S
C406 H419 0.962 . S
C406 H420 0.960 . S
C407 C404 1.511 . S
C407 H421 0.961 . S
C407 H422 0.961 1_655 S
C407 H423 0.961 . S
C408 C409 1.370 . S
C408 C410 1.363 . S
C408 H424 0.931 . S
C409 C408 1.370 . S
C409 C413 1.408 . S
C410 C408 1.363 . S
C410 C411 1.370 . S
C410 C414 1.524 . S
C411 C403 1.503 1_455 S
C411 C410 1.370 . S
C411 C412 1.403 . S
C412 C411 1.403 . S
C412 C413 1.404 . S
C412 C415 1.539 1_455 S
C413 C409 1.408 . S
C413 C412 1.404 . S
C413 H425 0.930 . S
C414 C410 1.524 . S
C414 H426 0.956 . S
C414 H427 0.961 . S
C414 H428 0.961 . S
C415 C412 1.539 1_655 S
C415 H429 0.958 . S
C415 H430 0.961 . S
C415 H431 0.960 . S
H416 C400 0.931 . S
H417 C405 0.929 . S
H418 C406 0.960 . S
H419 C406 0.962 . S
H420 C406 0.960 . S
H421 C407 0.961 . S
H422 C407 0.961 1_455 S
H423 C407 0.961 . S
H424 C408 0.931 . S
H425 C413 0.930 . S
H426 C414 0.956 . S
H427 C414 0.961 . S
H428 C414 0.961 . S
H429 C415 0.958 . S
H430 C415 0.961 . S
H431 C415 0.960 . S
C432 C433 1.391 . S
C432 C434 1.394 . S
C432 H448 0.931 . S
C433 C432 1.391 . S
C433 C437 1.376 . S
C434 C432 1.394 . S
C434 C435 1.369 . S
C434 C438 1.531 . S
C435 C434 1.369 . S
C435 C436 1.410 . S
C435 C443 1.503 . S
C436 C435 1.410 . S
C436 C437 1.392 . S
C436 C439 1.511 . S
C437 C433 1.376 . S
C437 C436 1.392 . S
C437 H449 0.929 . S
C438 C434 1.531 . S
C438 H450 0.960 . S
C438 H451 0.962 . S
C438 H452 0.960 . S
C439 C436 1.511 . S
C439 H453 0.961 . S
C439 H454 0.961 . S
C439 H455 0.961 . S
C440 C441 1.370 . S
C440 C442 1.363 . S
C440 H456 0.931 . S
C441 C440 1.370 . S
C441 C445 1.408 . S
C442 C440 1.363 . S
C442 C443 1.370 . S
C442 C446 1.524 . S
C443 C435 1.503 . S
C443 C442 1.370 . S
C443 C444 1.403 . S
C444 C443 1.403 . S
C444 C445 1.404 . S
C444 C447 1.539 . S
C445 C441 1.408 . S
C445 C444 1.404 . S
C445 H457 0.930 . S
C446 C442 1.524 . S
C446 H458 0.956 . S
C446 H459 0.961 . S
C446 H460 0.961 . S
C447 C444 1.539 . S
C447 H461 0.958 . S
C447 H462 0.961 . S
C447 H463 0.960 . S
H448 C432 0.931 . S
H449 C437 0.929 . S
H450 C438 0.960 . S
H451 C438 0.962 . S
H452 C438 0.960 . S
H453 C439 0.961 . S
H454 C439 0.961 . S
H455 C439 0.961 . S
H456 C440 0.931 . S
H457 C445 0.930 . S
H458 C446 0.956 . S
H459 C446 0.961 . S
H460 C446 0.961 . S
H461 C447 0.958 . S
H462 C447 0.961 . S
H463 C447 0.960 . S
C464 C465 1.391 . S
C464 C466 1.394 . S
C464 H480 0.931 . S
C465 C464 1.391 . S
C465 C469 1.376 . S
C466 C464 1.394 . S
C466 C467 1.369 . S
C466 C470 1.531 . S
C467 C466 1.369 . S
C467 C468 1.410 . S
C467 C475 1.503 . S
C468 C467 1.410 . S
C468 C469 1.392 . S
C468 C471 1.511 . S
C469 C465 1.376 . S
C469 C468 1.392 . S
C469 H481 0.929 . S
C470 C466 1.531 . S
C470 H482 0.960 . S
C470 H483 0.962 . S
C470 H484 0.960 . S
C471 C468 1.511 . S
C471 H485 0.961 . S
C471 H486 0.961 . S
C471 H487 0.961 . S
C472 C473 1.370 . S
C472 C474 1.363 . S
C472 H488 0.931 . S
C473 C472 1.370 . S
C473 C477 1.408 . S
C474 C472 1.363 . S
C474 C475 1.370 . S
C474 C478 1.524 . S
C475 C467 1.503 . S
C475 C474 1.370 . S
C475 C476 1.403 . S
C476 C475 1.403 . S
C476 C477 1.404 . S
C476 C479 1.539 . S
C477 C473 1.408 . S
C477 C476 1.404 . S
C477 H489 0.930 . S
C478 C474 1.524 . S
C478 H490 0.956 . S
C478 H491 0.961 . S
C478 H492 0.961 . S
C479 C476 1.539 . S
C479 H493 0.958 . S
C479 H494 0.961 . S
C479 H495 0.960 . S
H480 C464 0.931 . S
H481 C469 0.929 . S
H482 C470 0.960 . S
H483 C470 0.962 . S
H484 C470 0.960 . S
H485 C471 0.961 . S
H486 C471 0.961 . S
H487 C471 0.961 . S
H488 C472 0.931 . S
H489 C477 0.930 . S
H490 C478 0.956 . S
H491 C478 0.961 . S
H492 C478 0.961 . S
H493 C479 0.958 . S
H494 C479 0.961 . S
H495 C479 0.960 . S
C496 C497 1.391 . S
C496 C498 1.394 . S
C496 H512 0.931 . S
C497 C496 1.391 . S
C497 C501 1.376 . S
C498 C496 1.394 . S
C498 C499 1.369 . S
C498 C502 1.531 . S
C499 C498 1.369 . S
C499 C500 1.410 . S
C499 C507 1.503 . S
C500 C499 1.410 . S
C500 C501 1.392 . S
C500 C503 1.511 . S
C501 C497 1.376 . S
C501 C500 1.392 . S
C501 H513 0.929 . S
C502 C498 1.531 . S
C502 H514 0.960 . S
C502 H515 0.962 . S
C502 H516 0.960 . S
C503 C500 1.511 . S
C503 H517 0.961 . S
C503 H518 0.961 . S
C503 H519 0.961 . S
C504 C505 1.370 . S
C504 C506 1.363 . S
C504 H520 0.931 . S
C505 C504 1.370 . S
C505 C509 1.408 . S
C506 C504 1.363 . S
C506 C507 1.370 . S
C506 C510 1.524 . S
C507 C499 1.503 . S
C507 C506 1.370 . S
C507 C508 1.403 . S
C508 C507 1.403 . S
C508 C509 1.404 . S
C508 C511 1.539 . S
C509 C505 1.408 . S
C509 C508 1.404 . S
C509 H521 0.930 . S
C510 C506 1.524 . S
C510 H522 0.956 . S
C510 H523 0.961 . S
C510 H524 0.961 . S
C511 C508 1.539 . S
C511 H525 0.958 . S
C511 H526 0.961 . S
C511 H527 0.960 . S
H512 C496 0.931 . S
H513 C501 0.929 . S
H514 C502 0.960 . S
H515 C502 0.962 . S
H516 C502 0.960 . S
H517 C503 0.961 . S
H518 C503 0.961 . S
H519 C503 0.961 . S
H520 C504 0.931 . S
H521 C509 0.930 . S
H522 C510 0.956 . S
H523 C510 0.961 . S
H524 C510 0.961 . S
H525 C511 0.958 . S
H526 C511 0.961 . S
H527 C511 0.960 . S
C528 C529 1.391 . S
C528 C530 1.394 . S
C528 H544 0.931 . S
C529 C528 1.391 . S
C529 C533 1.376 . S
C530 C528 1.394 . S
C530 C531 1.369 . S
C530 C534 1.531 . S
C531 C530 1.369 . S
C531 C532 1.410 . S
C531 C539 1.503 . S
C532 C531 1.410 . S
C532 C533 1.392 . S
C532 C535 1.511 . S
C533 C529 1.376 . S
C533 C532 1.392 . S
C533 H545 0.929 . S
C534 C530 1.531 . S
C534 H546 0.960 . S
C534 H547 0.962 . S
C534 H548 0.960 . S
C535 C532 1.511 . S
C535 H549 0.961 . S
C535 H550 0.961 . S
C535 H551 0.961 . S
C536 C537 1.370 . S
C536 C538 1.363 . S
C536 H552 0.931 . S
C537 C536 1.370 . S
C537 C541 1.408 . S
C538 C536 1.363 . S
C538 C539 1.370 . S
C538 C542 1.524 . S
C539 C531 1.503 . S
C539 C538 1.370 . S
C539 C540 1.403 . S
C540 C539 1.403 . S
C540 C541 1.404 . S
C540 C543 1.539 . S
C541 C537 1.408 . S
C541 C540 1.404 . S
C541 H553 0.930 . S
C542 C538 1.524 . S
C542 H554 0.956 . S
C542 H555 0.961 . S
C542 H556 0.961 . S
C543 C540 1.539 . S
C543 H557 0.958 . S
C543 H558 0.961 . S
C543 H559 0.960 . S
H544 C528 0.931 . S
H545 C533 0.929 . S
H546 C534 0.960 . S
H547 C534 0.962 . S
H548 C534 0.960 . S
H549 C535 0.961 . S
H550 C535 0.961 . S
H551 C535 0.961 . S
H552 C536 0.931 . S
H553 C541 0.930 . S
H554 C542 0.956 . S
H555 C542 0.961 . S
H556 C542 0.961 . S
H557 C543 0.958 . S
H558 C543 0.961 . S
H559 C543 0.960 . S
C560 C561 1.391 . S
C560 C562 1.394 . S
C560 H576 0.931 . S
C561 C560 1.391 . S
C561 C565 1.376 . S
C562 C560 1.394 . S
C562 C563 1.369 . S
C562 C566 1.531 . S
C563 C562 1.369 . S
C563 C564 1.410 . S
C563 C571 1.503 . S
C564 C563 1.410 . S
C564 C565 1.392 . S
C564 C567 1.511 . S
C565 C561 1.376 . S
C565 C564 1.392 . S
C565 H577 0.929 . S
C566 C562 1.531 . S
C566 H578 0.960 . S
C566 H579 0.962 . S
C566 H580 0.960 . S
C567 C564 1.511 . S
C567 H581 0.961 . S
C567 H582 0.961 . S
C567 H583 0.961 . S
C568 C569 1.370 . S
C568 C570 1.363 . S
C568 H584 0.931 . S
C569 C568 1.370 . S
C569 C573 1.408 . S
C570 C568 1.363 . S
C570 C571 1.370 . S
C570 C574 1.524 . S
C571 C563 1.503 . S
C571 C570 1.370 . S
C571 C572 1.403 . S
C572 C571 1.403 . S
C572 C573 1.404 . S
C572 C575 1.539 . S
C573 C569 1.408 . S
C573 C572 1.404 . S
C573 H585 0.930 . S
C574 C570 1.524 . S
C574 H586 0.956 . S
C574 H587 0.961 . S
C574 H588 0.961 . S
C575 C572 1.539 . S
C575 H589 0.958 . S
C575 H590 0.961 . S
C575 H591 0.960 . S
H576 C560 0.931 . S
H577 C565 0.929 . S
H578 C566 0.960 . S
H579 C566 0.962 . S
H580 C566 0.960 . S
H581 C567 0.961 . S
H582 C567 0.961 . S
H583 C567 0.961 . S
H584 C568 0.931 . S
H585 C573 0.930 . S
H586 C574 0.956 . S
H587 C574 0.961 . S
H588 C574 0.961 . S
H589 C575 0.958 . S
H590 C575 0.961 . S
H591 C575 0.960 . S
C592 C593 1.391 . S
C592 C594 1.394 . S
C592 H608 0.931 . S
C593 C592 1.391 . S
C593 C597 1.376 . S
C594 C592 1.394 . S
C594 C595 1.369 . S
C594 C598 1.531 . S
C595 C594 1.369 . S
C595 C596 1.410 . S
C595 C603 1.503 . S
C596 C595 1.410 . S
C596 C597 1.392 . S
C596 C599 1.511 . S
C597 C593 1.376 . S
C597 C596 1.392 . S
C597 H609 0.929 . S
C598 C594 1.531 . S
C598 H610 0.960 . S
C598 H611 0.962 . S
C598 H612 0.960 . S
C599 C596 1.511 . S
C599 H613 0.961 . S
C599 H614 0.961 . S
C599 H615 0.961 . S
C600 C601 1.370 . S
C600 C602 1.363 . S
C600 H616 0.931 . S
C601 C600 1.370 . S
C601 C605 1.408 . S
C602 C600 1.363 . S
C602 C603 1.370 . S
C602 C606 1.524 . S
C603 C595 1.503 . S
C603 C602 1.370 . S
C603 C604 1.403 . S
C604 C603 1.403 . S
C604 C605 1.404 . S
C604 C607 1.539 . S
C605 C601 1.408 . S
C605 C604 1.404 . S
C605 H617 0.930 . S
C606 C602 1.524 . S
C606 H618 0.956 . S
C606 H619 0.961 . S
C606 H620 0.961 . S
C607 C604 1.539 . S
C607 H621 0.958 . S
C607 H622 0.961 . S
C607 H623 0.960 . S
H608 C592 0.931 . S
H609 C597 0.929 . S
H610 C598 0.960 . S
H611 C598 0.962 . S
H612 C598 0.960 . S
H613 C599 0.961 . S
H614 C599 0.961 . S
H615 C599 0.961 . S
H616 C600 0.931 . S
H617 C605 0.930 . S
H618 C606 0.956 . S
H619 C606 0.961 . S
H620 C606 0.961 . S
H621 C607 0.958 . S
H622 C607 0.961 . S
H623 C607 0.960 . S
C624 C625 1.391 . S
C624 C626 1.394 . S
C624 H640 0.931 . S
C625 C624 1.391 . S
C625 C629 1.376 . S
C626 C624 1.394 . S
C626 C627 1.369 . S
C626 C630 1.531 1_455 S
C627 C626 1.369 . S
C627 C628 1.410 . S
C627 C635 1.503 . S
C628 C627 1.410 . S
C628 C629 1.392 . S
C628 C631 1.511 . S
C629 C625 1.376 . S
C629 C628 1.392 . S
C629 H641 0.929 . S
C630 C626 1.531 1_655 S
C630 H642 0.960 . S
C630 H643 0.962 . S
C630 H644 0.960 . S
C631 C628 1.511 . S
C631 H645 0.961 . S
C631 H646 0.961 . S
C631 H647 0.961 . S
C632 C633 1.370 . S
C632 C634 1.363 1_655 S
C632 H648 0.931 . S
C633 C632 1.370 . S
C633 C637 1.408 1_655 S
C634 C632 1.363 1_455 S
C634 C635 1.370 . S
C634 C638 1.524 . S
C635 C627 1.503 . S
C635 C634 1.370 . S
C635 C636 1.403 . S
C636 C635 1.403 . S
C636 C637 1.404 . S
C636 C639 1.539 . S
C637 C633 1.408 1_455 S
C637 C636 1.404 . S
C637 H649 0.930 . S
C638 C634 1.524 . S
C638 H650 0.956 1_455 S
C638 H651 0.961 . S
C638 H652 0.961 1_455 S
C639 C636 1.539 . S
C639 H653 0.958 . S
C639 H654 0.961 . S
C639 H655 0.960 . S
H640 C624 0.931 . S
H641 C629 0.929 . S
H642 C630 0.960 . S
H643 C630 0.962 . S
H644 C630 0.960 . S
H645 C631 0.961 . S
H646 C631 0.961 . S
H647 C631 0.961 . S
H648 C632 0.931 . S
H649 C637 0.930 . S
H650 C638 0.956 1_655 S
H651 C638 0.961 . S
H652 C638 0.961 1_655 S
H653 C639 0.958 . S
H654 C639 0.961 . S
H655 C639 0.960 . S
C656 C657 1.391 . S
C656 C658 1.394 . S
C656 H672 0.931 . S
C657 C656 1.391 . S
C657 C661 1.376 . S
C658 C656 1.394 . S
C658 C659 1.369 . S
C658 C662 1.531 1_565 S
C659 C658 1.369 . S
C659 C660 1.410 . S
C659 C667 1.503 . S
C660 C659 1.410 . S
C660 C661 1.392 . S
C660 C663 1.511 . S
C661 C657 1.376 . S
C661 C660 1.392 . S
C661 H673 0.929 . S
C662 C658 1.531 1_545 S
C662 H674 0.960 . S
C662 H675 0.962 . S
C662 H676 0.960 . S
C663 C660 1.511 . S
C663 H677 0.961 . S
C663 H678 0.961 . S
C663 H679 0.961 . S
C664 C665 1.370 . S
C664 C666 1.363 1_545 S
C664 H680 0.931 . S
C665 C664 1.370 . S
C665 C669 1.408 . S
C666 C664 1.363 1_565 S
C666 C667 1.370 . S
C666 C670 1.524 . S
C667 C659 1.503 . S
C667 C666 1.370 . S
C667 C668 1.403 . S
C668 C667 1.403 . S
C668 C669 1.404 1_565 S
C668 C671 1.539 . S
C669 C665 1.408 . S
C669 C668 1.404 1_545 S
C669 H681 0.930 . S
C670 C666 1.524 . S
C670 H682 0.956 . S
C670 H683 0.961 . S
C670 H684 0.961 . S
C671 C668 1.539 . S
C671 H685 0.958 . S
C671 H686 0.961 . S
C671 H687 0.960 . S
H672 C656 0.931 . S
H673 C661 0.929 . S
H674 C662 0.960 . S
H675 C662 0.962 . S
H676 C662 0.960 . S
H677 C663 0.961 . S
H678 C663 0.961 . S
H679 C663 0.961 . S
H680 C664 0.931 . S
H681 C669 0.930 . S
H682 C670 0.956 . S
H683 C670 0.961 . S
H684 C670 0.961 . S
H685 C671 0.958 . S
H686 C671 0.961 . S
H687 C671 0.960 . S
C688 C689 1.391 . S
C688 C690 1.394 . S
C688 H704 0.931 . S
C689 C688 1.391 . S
C689 C693 1.376 . S
C690 C688 1.394 . S
C690 C691 1.369 . S
C690 C694 1.531 . S
C691 C690 1.369 . S
C691 C692 1.410 . S
C691 C699 1.503 . S
C692 C691 1.410 . S
C692 C693 1.392 . S
C692 C695 1.511 . S
C693 C689 1.376 . S
C693 C692 1.392 . S
C693 H705 0.929 . S
C694 C690 1.531 . S
C694 H706 0.960 . S
C694 H707 0.962 . S
C694 H708 0.960 . S
C695 C692 1.511 . S
C695 H709 0.961 . S
C695 H710 0.961 . S
C695 H711 0.961 . S
C696 C697 1.370 . S
C696 C698 1.363 . S
C696 H712 0.931 . S
C697 C696 1.370 . S
C697 C701 1.408 . S
C698 C696 1.363 . S
C698 C699 1.370 . S
C698 C702 1.524 . S
C699 C691 1.503 . S
C699 C698 1.370 . S
C699 C700 1.403 . S
C700 C699 1.403 . S
C700 C701 1.404 . S
C700 C703 1.539 . S
C701 C697 1.408 . S
C701 C700 1.404 . S
C701 H713 0.930 . S
C702 C698 1.524 . S
C702 H714 0.956 . S
C702 H715 0.961 . S
C702 H716 0.961 . S
C703 C700 1.539 . S
C703 H717 0.958 . S
C703 H718 0.961 . S
C703 H719 0.960 . S
H704 C688 0.931 . S
H705 C693 0.929 . S
H706 C694 0.960 . S
H707 C694 0.962 . S
H708 C694 0.960 . S
H709 C695 0.961 . S
H710 C695 0.961 . S
H711 C695 0.961 . S
H712 C696 0.931 . S
H713 C701 0.930 . S
H714 C702 0.956 . S
H715 C702 0.961 . S
H716 C702 0.961 . S
H717 C703 0.958 . S
H718 C703 0.961 . S
H719 C703 0.960 . S
C720 C721 1.391 . S
C720 C722 1.394 . S
C720 H736 0.931 . S
C721 C720 1.391 . S
C721 C725 1.376 . S
C722 C720 1.394 . S
C722 C723 1.369 . S
C722 C726 1.531 . S
C723 C722 1.369 . S
C723 C724 1.410 . S
C723 C731 1.503 . S
C724 C723 1.410 . S
C724 C725 1.392 . S
C724 C727 1.511 1_545 S
C725 C721 1.376 . S
C725 C724 1.392 . S
C725 H737 0.929 . S
C726 C722 1.531 . S
C726 H738 0.960 . S
C726 H739 0.962 . S
C726 H740 0.960 . S
C727 C724 1.511 1_565 S
C727 H741 0.961 . S
C727 H742 0.961 . S
C727 H743 0.961 . S
C728 C729 1.370 1_545 S
C728 C730 1.363 . S
C728 H744 0.931 . S
C729 C728 1.370 1_565 S
C729 C733 1.408 . S
C730 C728 1.363 . S
C730 C731 1.370 . S
C730 C734 1.524 . S
C731 C723 1.503 . S
C731 C730 1.370 . S
C731 C732 1.403 1_545 S
C732 C731 1.403 1_565 S
C732 C733 1.404 . S
C732 C735 1.539 . S
C733 C729 1.408 . S
C733 C732 1.404 . S
C733 H745 0.930 . S
C734 C730 1.524 . S
C734 H746 0.956 . S
C734 H747 0.961 . S
C734 H748 0.961 . S
C735 C732 1.539 . S
C735 H749 0.958 1_565 S
C735 H750 0.961 . S
C735 H751 0.960 . S
H736 C720 0.931 . S
H737 C725 0.929 . S
H738 C726 0.960 . S
H739 C726 0.962 . S
H740 C726 0.960 . S
H741 C727 0.961 . S
H742 C727 0.961 . S
H743 C727 0.961 . S
H744 C728 0.931 . S
H745 C733 0.930 . S
H746 C734 0.956 . S
H747 C734 0.961 . S
H748 C734 0.961 . S
H749 C735 0.958 1_545 S
H750 C735 0.961 . S
H751 C735 0.960 . S
C752 C753 1.391 . S
C752 C754 1.394 . S
C752 H768 0.931 . S
C753 C752 1.391 . S
C753 C757 1.376 . S
C754 C752 1.394 . S
C754 C755 1.369 . S
C754 C758 1.531 . S
C755 C754 1.369 . S
C755 C756 1.410 . S
C755 C763 1.503 . S
C756 C755 1.410 . S
C756 C757 1.392 . S
C756 C759 1.511 . S
C757 C753 1.376 . S
C757 C756 1.392 . S
C757 H769 0.929 . S
C758 C754 1.531 . S
C758 H770 0.960 . S
C758 H771 0.962 . S
C758 H772 0.960 . S
C759 C756 1.511 . S
C759 H773 0.961 . S
C759 H774 0.961 . S
C759 H775 0.961 . S
C760 C761 1.370 . S
C760 C762 1.363 . S
C760 H776 0.931 . S
C761 C760 1.370 . S
C761 C765 1.408 . S
C762 C760 1.363 . S
C762 C763 1.370 . S
C762 C766 1.524 . S
C763 C755 1.503 . S
C763 C762 1.370 . S
C763 C764 1.403 . S
C764 C763 1.403 . S
C764 C765 1.404 . S
C764 C767 1.539 . S
C765 C761 1.408 . S
C765 C764 1.404 . S
C765 H777 0.930 . S
C766 C762 1.524 . S
C766 H778 0.956 . S
C766 H779 0.961 . S
C766 H780 0.961 . S
C767 C764 1.539 . S
C767 H781 0.958 . S
C767 H782 0.961 . S
C767 H783 0.960 . S
H768 C752 0.931 . S
H769 C757 0.929 . S
H770 C758 0.960 . S
H771 C758 0.962 . S
H772 C758 0.960 . S
H773 C759 0.961 . S
H774 C759 0.961 . S
H775 C759 0.961 . S
H776 C760 0.931 . S
H777 C765 0.930 . S
H778 C766 0.956 . S
H779 C766 0.961 . S
H780 C766 0.961 . S
H781 C767 0.958 . S
H782 C767 0.961 . S
H783 C767 0.960 . S
C784 C785 1.391 . S
C784 C786 1.394 . S
C784 H800 0.931 . S
C785 C784 1.391 . S
C785 C789 1.376 1_455 S
C786 C784 1.394 . S
C786 C787 1.369 1_455 S
C786 C790 1.531 . S
C787 C786 1.369 1_655 S
C787 C788 1.410 . S
C787 C795 1.503 . S
C788 C787 1.410 . S
C788 C789 1.392 . S
C788 C791 1.511 . S
C789 C785 1.376 1_655 S
C789 C788 1.392 . S
C789 H801 0.929 . S
C790 C786 1.531 . S
C790 H802 0.960 . S
C790 H803 0.962 . S
C790 H804 0.960 . S
C791 C788 1.511 . S
C791 H805 0.961 . S
C791 H806 0.961 . S
C791 H807 0.961 . S
C792 C793 1.370 . S
C792 C794 1.363 . S
C792 H808 0.931 . S
C793 C792 1.370 . S
C793 C797 1.408 . S
C794 C792 1.363 . S
C794 C795 1.370 . S
C794 C798 1.524 . S
C795 C787 1.503 . S
C795 C794 1.370 . S
C795 C796 1.403 . S
C796 C795 1.403 . S
C796 C797 1.404 . S
C796 C799 1.539 . S
C797 C793 1.408 . S
C797 C796 1.404 . S
C797 H809 0.930 . S
C798 C794 1.524 . S
C798 H810 0.981 . S
C798 H811 0.961 . S
C798 H812 0.961 . S
C799 C796 1.539 . S
C799 H813 0.958 . S
C799 H814 0.961 . S
C799 H815 0.960 . S
H800 C784 0.931 . S
H801 C789 0.929 . S
H802 C790 0.960 . S
H803 C790 0.962 . S
H804 C790 0.960 . S
H805 C791 0.961 . S
H806 C791 0.961 . S
H807 C791 0.961 . S
H808 C792 0.931 . S
H809 C797 0.930 . S
H810 C798 0.981 . S
H811 C798 0.961 . S
H812 C798 0.961 . S
H813 C799 0.958 . S
H814 C799 0.961 . S
H815 C799 0.960 . S
C241 C178 2.321 . S
C249 C18 2.502 . S
C273 C209 2.503 . S
C281 C49 2.309 . S
C305 C98 2.507 . S
C313 C138 2.299 . S
C337 C9 2.340 . S
C345 C169 2.492 . S
C369 C218 2.280 . S
C377 C58 2.510 . S
C401 C89 2.337 . S
C409 C129 2.494 . S
C433 C6 1.882 . S
C441 C90 1.852 . S
C465 C46 1.905 . S
C473 C10 1.830 . S
C497 C86 1.888 . S
C505 C50 1.853 . S
C529 C135 1.890 . S
C537 C179 1.840 . S
C561 C175 1.890 . S
C569 C219 1.840 . S
C593 C139 1.858 . S
C601 C215 1.894 . S
C625 C15 1.186 . S
C633 C99 1.250 . S
C657 C55 1.198 1_455 S
C665 C19 1.248 . S
C689 C95 1.207 1_565 S
C697 C59 1.228 . S
C721 C126 1.226 . S
C729 C170 1.237 . S
C753 C166 1.160 1_655 S
C761 C210 1.245 . S
C785 C130 1.256 . S
C793 C206 1.196 1_545 S
