# Generated by pormake.
# Topology loh, (5)-cn, num edge types: 1
# Building blocks:
#     Node 0, Type 0, BuildingBlock: XOMCOT_clean_sbu_0, # of connection points: 5
#     Node 1, Type 0, BuildingBlock: XOMCOT_clean_sbu_0, # of connection points: 5
#     Node 2, Type 0, BuildingBlock: XOMCOT_clean_sbu_0, # of connection points: 5
#     Node 3, Type 0, BuildingBlock: XOMCOT_clean_sbu_0, # of connection points: 5
#     Node 4, Type 0, BuildingBlock: XOMCOT_clean_sbu_0, # of connection points: 5
#     Node 5, Type 0, BuildingBlock: XOMCOT_clean_sbu_0, # of connection points: 5
#     Node 6, Type 0, BuildingBlock: XOMCOT_clean_sbu_0, # of connection points: 5
#     Node 7, Type 0, BuildingBlock: XOMCOT_clean_sbu_0, # of connection points: 5
#     Edge 8, Type (0, 0), BuildingBlock: AJUNOK_clean_linker_0, # of connection points: 2
#     Edge 9, Type (0, 0), BuildingBlock: AJUNOK_clean_linker_0, # of connection points: 2
#     Edge 10, Type (0, 0), BuildingBlock: AJUNOK_clean_linker_0, # of connection points: 2
#     Edge 11, Type (0, 0), BuildingBlock: AJUNOK_clean_linker_0, # of connection points: 2
#     Edge 12, Type (0, 0), BuildingBlock: AJUNOK_clean_linker_0, # of connection points: 2
#     Edge 13, Type (0, 0), BuildingBlock: AJUNOK_clean_linker_0, # of connection points: 2
#     Edge 14, Type (0, 0), BuildingBlock: AJUNOK_clean_linker_0, # of connection points: 2
#     Edge 15, Type (0, 0), BuildingBlock: AJUNOK_clean_linker_0, # of connection points: 2
#     Edge 16, Type (0, 0), BuildingBlock: AJUNOK_clean_linker_0, # of connection points: 2
#     Edge 17, Type (0, 0), BuildingBlock: AJUNOK_clean_linker_0, # of connection points: 2
#     Edge 18, Type (0, 0), BuildingBlock: AJUNOK_clean_linker_0, # of connection points: 2
#     Edge 19, Type (0, 0), BuildingBlock: AJUNOK_clean_linker_0, # of connection points: 2
#     Edge 20, Type (0, 0), BuildingBlock: AJUNOK_clean_linker_0, # of connection points: 2
#     Edge 21, Type (0, 0), BuildingBlock: AJUNOK_clean_linker_0, # of connection points: 2
#     Edge 22, Type (0, 0), BuildingBlock: AJUNOK_clean_linker_0, # of connection points: 2
#     Edge 23, Type (0, 0), BuildingBlock: AJUNOK_clean_linker_0, # of connection points: 2
#     Edge 24, Type (0, 0), BuildingBlock: AJUNOK_clean_linker_0, # of connection points: 2
#     Edge 25, Type (0, 0), BuildingBlock: AJUNOK_clean_linker_0, # of connection points: 2
#     Edge 26, Type (0, 0), BuildingBlock: AJUNOK_clean_linker_0, # of connection points: 2
#     Edge 27, Type (0, 0), BuildingBlock: AJUNOK_clean_linker_0, # of connection points: 2
# Relax obj value: 0.202
# Max RMSD: 0.133
# Mean RMSD: 0.133
data_MOF--net-loh--node1-XOMCOT_clean_sbu_0--edge1-AJUNOK_clean_linker_0
_symmetry_space_group_name_H-M    P1
_symmetry_Int_Tables_number       1
_symmetry_cell_setting            triclinic
loop_
_symmetry_equiv_pos_as_xyz
'x, y, z'
_cell_length_a     19.318792
_cell_length_b     18.230234
_cell_length_c     32.008031
_cell_angle_alpha  90.87597
_cell_angle_beta   89.777731
_cell_angle_gamma 90.250067
loop_
_atom_site_label
_atom_site_type_symbol
_atom_site_fract_x
_atom_site_fract_y
_atom_site_fract_z
_atom_type_partial_charge
Co0 Co 0.08819 0.26888 0.16561 0.0
C1 C 0.10225 0.12408 0.20878 0.0
C2 C 1.03109 0.11798 0.15763 0.0
C3 C 1.03362 0.05042 0.17587 0.0
N4 N 1.07377 0.16496 0.17819 0.0
N5 N 1.07833 0.05393 0.20796 0.0
H6 H 0.13818 0.14538 0.23183 0.0
H7 H 1.00026 0.1307 0.13067 0.0
C8 C 0.171 0.19449 0.09446 0.0
O9 O 0.1238 0.14397 0.0872 0.0
N10 N 0.10198 0.37172 0.15251 0.0
C11 C 1.06508 0.42914 0.16758 0.0
C12 C 1.07546 0.4883 0.14214 0.0
C13 C 0.13506 0.39766 0.11858 0.0
N14 N 0.11849 0.46777 0.11097 0.0
C15 C 0.94548 0.26783 0.14033 0.0
C16 C 0.96824 0.29869 0.05717 0.0
C17 C 0.90008 0.30122 0.0724 0.0
C18 C 0.88904 0.28338 0.11446 0.0
C19 C 1.023 0.28213 0.08388 0.0
N20 N 1.01181 0.26816 0.12522 0.0
H21 H 0.93591 0.25695 0.17292 0.0
H22 H 1.07458 0.28489 0.07133 0.0
H23 H 1.02732 0.4267 0.19252 0.0
H24 H 0.16409 0.36418 0.09667 0.0
O25 O 1.03725 0.29797 0.21545 0.0
O26 O 0.15045 0.28229 0.21241 0.0
O27 O 0.16179 0.24286 0.12313 0.0
C28 C 0.09711 0.30545 0.23366 0.0
H29 H 1.00467 1.00209 0.16623 0.0
H30 H 1.0466 0.53908 0.14338 0.0
H31 H 0.97979 0.31229 1.02506 0.0
H32 H 0.83729 0.28203 0.12752 0.0
Co33 Co 0.62778 0.78396 0.663 0.0
C34 C 0.62326 0.93186 0.7073 0.0
C35 C 0.56628 0.92932 0.64995 0.0
C36 C 0.56097 0.99827 0.66731 0.0
N37 N 0.60495 0.88682 0.67487 0.0
N38 N 0.5966 1.00042 0.70336 0.0
H39 H 0.65402 0.91461 0.73354 0.0
H40 H 0.54315 0.91247 0.62071 0.0
C41 C 0.57325 0.7574 0.57385 0.0
O42 O 0.63258 0.72773 0.56276 0.0
N43 N 0.64907 0.68151 0.65153 0.0
C44 C 0.70757 0.64369 0.65847 0.0
C45 C 0.70239 0.57674 0.6384 0.0
C46 C 0.60718 0.634 0.63138 0.0
N47 N 0.64023 0.57229 0.61932 0.0
C48 C 0.77417 0.80037 0.65016 0.0
C49 C 0.76877 0.85007 0.56933 0.0
C50 C 0.83174 0.82242 0.58417 0.0
C51 C 0.8347 0.80176 0.6261 0.0
C52 C 0.70937 0.84784 0.59475 0.0
N53 N 0.71136 0.81541 0.63294 0.0
H54 H 0.77753 0.78262 0.68204 0.0
H55 H 0.66136 0.86861 0.58266 0.0
H56 H 0.75248 0.6636 0.67501 0.0
H57 H 0.55566 0.64798 0.62163 0.0
O58 O 0.66665 0.77058 0.71828 0.0
O59 O 0.55746 0.75007 0.70149 0.0
O60 O 0.56606 0.78524 0.61079 0.0
C61 C 0.60677 0.74316 0.72873 0.0
H62 H 0.53296 0.04379 0.65425 0.0
H63 H 0.7442 0.53787 0.63438 0.0
H64 H 0.76499 0.8713 0.53801 0.0
H65 H 0.88263 0.783 0.63966 0.0
Co66 Co 0.0886 0.78794 0.88561 0.0
C67 C 1.06739 0.94321 0.85564 0.0
C68 C 0.17116 0.90293 0.84927 0.0
C69 C 0.16964 0.97314 0.8348 0.0
N70 N 0.10756 0.884 0.86283 0.0
N71 N 0.10471 0.99899 0.83901 0.0
H72 H 1.01239 0.9455 0.86169 0.0
H73 H 0.21577 0.86728 0.84942 0.0
C74 C 0.19569 0.85375 0.94343 0.0
O75 O 0.16051 0.9152 0.94586 0.0
N76 N 1.07261 0.6918 0.90808 0.0
C77 C 1.01186 0.6551 0.90864 0.0
C78 C 1.0165 0.59944 0.93707 0.0
C79 C 0.11358 0.65727 0.93537 0.0
N80 N 1.08009 0.60207 0.95416 0.0
C81 C 0.95836 0.83859 0.91781 0.0
C82 C 0.98728 0.80508 0.99989 0.0
C83 C 0.91802 0.81204 0.98816 0.0
C84 C 0.90399 0.83195 0.94683 0.0
C85 C 1.03979 0.81163 0.97003 0.0
N86 N 1.02534 0.8253 0.92898 0.0
H87 H 0.94547 0.8467 0.88543 0.0
H88 H 0.09075 0.79599 0.97958 0.0
H89 H 0.96549 0.67172 0.89258 0.0
H90 H 0.16496 0.6753 0.94406 0.0
O91 O 1.02249 0.76601 0.8416 0.0
O92 O 0.13458 0.74244 0.83827 0.0
O93 O 0.17276 0.79948 0.92197 0.0
C94 C 1.07378 0.73587 0.82128 0.0
H95 H 0.21247 1.0017 0.82029 0.0
H96 H 0.97445 0.56454 0.94734 0.0
H97 H 1.00077 0.7878 0.03104 0.0
H98 H 0.85109 0.83798 0.93637 0.0
Co99 Co 0.54958 0.28439 0.39034 0.0
C100 C 0.55467 0.13649 0.34868 0.0
C101 C 0.45989 0.15433 0.38247 0.0
C102 C 0.45879 0.08457 0.36555 0.0
N103 N 0.51999 0.18701 0.37211 0.0
N104 N 0.51823 0.07284 0.34413 0.0
H105 H 0.60464 0.14702 0.33465 0.0
H106 H 0.41926 0.1792 0.4011 0.0
C107 C 0.48776 0.28654 0.48063 0.0
O108 O 0.54754 0.30062 0.4985 0.0
N109 N 0.57951 0.38253 0.40792 0.0
C110 C 0.63483 0.42055 0.39386 0.0
C111 C 0.64646 0.47944 0.42014 0.0
C112 C 0.55508 0.42341 0.43994 0.0
N113 N 0.59748 0.47942 0.45028 0.0
C114 C 0.69303 0.26395 0.40629 0.0
C115 C 0.67755 0.19919 0.48303 0.0
C116 C 0.73966 0.23648 0.47405 0.0
C117 C 0.74882 0.2634 0.4337 0.0
C118 C 0.62302 0.20047 0.45401 0.0
N119 N 0.62886 0.24198 0.41905 0.0
H120 H 0.70031 0.28839 0.37618 0.0
H121 H 0.57412 0.17509 0.46187 0.0
H122 H 0.66742 0.40478 0.36779 0.0
H123 H 0.5088 0.41113 0.45686 0.0
O124 O 0.59241 0.30175 0.3365 0.0
O125 O 0.48481 0.3309 0.35338 0.0
O126 O 0.48365 0.27772 0.44076 0.0
C127 C 0.5359 0.33623 0.32696 0.0
H128 H 0.41699 0.04536 0.36896 0.0
H129 H 0.69117 0.51536 0.41932 0.0
H130 H 0.66891 0.17487 0.51326 0.0
H131 H 0.79729 0.28856 0.42439 0.0
Co132 Co 0.58748 0.78513 0.16371 0.0
C133 C 0.58012 0.64585 0.21449 0.0
C134 C 0.5559 0.62805 0.14992 0.0
C135 C 0.55047 0.56229 0.16966 0.0
N136 N 0.57579 0.68107 0.17745 0.0
N137 N 0.56524 0.57318 0.21017 0.0
H138 H 0.59303 0.67246 0.2439 0.0
H139 H 0.54241 0.63611 0.11769 0.0
C140 C 0.69 0.72223 0.09772 0.0
O141 O 0.64482 0.67511 0.08266 0.0
N142 N 0.59768 0.88762 0.14894 0.0
C143 C 0.54658 0.93775 0.15036 0.0
C144 C 0.56392 0.99468 0.12462 0.0
C145 C 0.64611 0.9162 0.12328 0.0
N146 N 0.62577 0.98005 0.10677 0.0
C147 C 0.45602 0.75923 0.12658 0.0
C148 C 0.49051 0.80462 0.04712 0.0
C149 C 0.42084 0.79292 0.05717 0.0
C150 C 0.40378 0.76862 0.09716 0.0
C151 C 0.54101 0.79551 0.07769 0.0
N152 N 0.52361 0.77398 0.11703 0.0
H153 H 0.44185 0.74292 0.15779 0.0
H154 H 0.59338 0.80978 0.07029 0.0
H155 H 0.49664 0.92973 0.165 0.0
H156 H 0.69218 0.88799 0.11335 0.0
O157 O 0.52004 0.81331 0.20556 0.0
O158 O 0.6325 0.80871 0.21677 0.0
O159 O 0.67438 0.76288 0.12932 0.0
C160 C 0.57143 0.82845 0.2303 0.0
H161 H 0.53396 0.51066 0.15569 0.0
H162 H 0.52972 0.03864 0.11572 0.0
H163 H 0.50545 0.8243 1.0166 0.0
H164 H 0.35034 0.75874 0.10589 0.0
Co165 Co 1.04764 0.28297 0.66731 0.0
C166 C 1.04746 0.43855 0.69692 0.0
C167 C 0.94557 0.39158 0.69604 0.0
C168 C 0.94162 0.46137 0.71297 0.0
N169 N 1.01186 0.37743 0.68567 0.0
N170 N 1.00576 0.49109 0.71344 0.0
H171 H 0.10298 0.44372 0.69476 0.0
H172 H 0.90344 0.35257 0.69317 0.0
C173 C 0.94435 0.32343 0.60014 0.0
O174 O 0.96226 0.3929 0.60337 0.0
N175 N 1.08474 0.18921 0.64952 0.0
C176 C 0.14508 0.16048 0.66278 0.0
C177 C 0.16736 0.10897 0.63406 0.0
C178 C 1.07089 0.15379 0.61324 0.0
N179 N 0.1206 0.10544 0.60314 0.0
C180 C 0.18035 0.34685 0.64904 0.0
C181 C 0.17404 0.32406 0.56365 0.0
C182 C 0.23869 0.3395 0.58155 0.0
C183 C 0.24075 0.35348 0.6248 0.0
C184 C 0.11501 0.31845 0.58883 0.0
N185 N 0.11841 0.32758 0.63133 0.0
H186 H 0.18493 0.35154 0.68257 0.0
H187 H 1.06878 0.29877 0.57384 0.0
H188 H 0.17508 0.18077 0.68896 0.0
H189 H 1.03055 0.16895 0.59184 0.0
O190 O 0.09853 0.2753 0.71941 0.0
O191 O 0.99223 0.2344 0.70895 0.0
O192 O 0.97557 0.27567 0.62175 0.0
C193 C 1.04542 0.23873 0.7335 0.0
H194 H 0.89573 0.48608 0.7265 0.0
H195 H 0.21681 0.08123 0.6339 0.0
H196 H 0.16956 0.30997 0.53079 0.0
H197 H 0.28934 0.36572 0.64021 0.0
Co198 Co 0.59009 0.28912 0.88801 0.0
C199 C 0.59471 0.43264 0.84148 0.0
C200 C 0.52994 0.438 0.89588 0.0
C201 C 0.52857 0.50501 0.87708 0.0
N202 N 0.57065 0.39148 0.87358 0.0
N203 N 0.5693 0.50213 0.84299 0.0
H204 H 0.62935 0.41228 0.81737 0.0
H205 H 0.50347 0.42562 0.92468 0.0
C206 C 0.66943 0.36625 0.95989 0.0
O207 O 0.61714 0.40835 0.97055 0.0
N208 N 0.60911 0.18864 0.90329 0.0
C209 C 0.56836 0.1298 0.89536 0.0
C210 C 0.58697 0.07419 0.92156 0.0
C211 C 0.65267 0.1671 0.93351 0.0
N212 N 0.6392 0.0985 0.94596 0.0
C213 C 0.44894 0.2905 0.91521 0.0
C214 C 0.47264 0.25475 0.99748 0.0
C215 C 0.40431 0.25485 0.98287 0.0
C216 C 0.39277 0.27439 0.9413 0.0
C217 C 0.52736 0.27104 0.97033 0.0
N218 N 0.51547 0.2886 0.92962 0.0
H219 H 0.43904 0.30326 0.88293 0.0
H220 H 0.57928 0.26583 0.98179 0.0
H221 H 0.5233 0.12967 0.87544 0.0
H222 H 0.68794 0.20289 0.95004 0.0
O223 O 0.53703 0.2529 0.84083 0.0
O224 O 0.6496 0.27404 0.83946 0.0
O225 O 0.66455 0.32262 0.92843 0.0
C226 C 0.59547 0.24578 0.82095 0.0
H227 H 0.50066 0.55298 0.8881 0.0
H228 H 0.55846 1.02363 0.92606 0.0
H229 H 0.484 0.23946 0.0293 0.0
H230 H 0.34075 0.27663 0.92889 0.0
Co231 Co 0.13686 0.76605 0.38954 0.0
C232 C 0.13314 0.61236 0.35388 0.0
C233 C 1.03274 0.65918 0.36454 0.0
C234 C 1.02428 0.59004 0.3478 0.0
N235 N 0.10073 0.67351 0.36831 0.0
N236 N 0.0872 0.55995 0.34098 0.0
H237 H 0.18878 0.60663 0.35319 0.0
H238 H 0.99191 0.69723 0.37269 0.0
C239 C 1.07733 0.78009 0.47803 0.0
O240 O 0.13666 0.80597 0.49196 0.0
N241 N 0.17086 0.8599 0.41002 0.0
C242 C 0.23613 0.88604 0.411 0.0
C243 C 0.23702 0.94968 0.43431 0.0
C244 C 0.13233 0.91182 0.42908 0.0
N245 N 0.17165 0.96539 0.44653 0.0
C246 C 0.27902 0.72205 0.39818 0.0
C247 C 0.26831 0.67869 0.48009 0.0
C248 C 0.33344 0.70089 0.46505 0.0
C249 C 0.33905 0.71666 0.4224 0.0
C250 C 0.20973 0.68469 0.45453 0.0
N251 N 0.21498 0.71581 0.41609 0.0
H252 H 0.28416 0.74053 0.36643 0.0
H253 H 0.16004 0.66882 0.46695 0.0
H254 H 0.28104 0.86051 0.39729 0.0
H255 H 1.07692 0.90693 0.43297 0.0
O256 O 0.17797 0.78938 0.33551 0.0
O257 O 1.07184 0.81838 0.35555 0.0
O258 O 1.07253 0.75661 0.44013 0.0
C259 C 0.1205 0.82375 0.32769 0.0
H260 H 0.97509 0.56496 0.3399 0.0
H261 H 0.28361 0.97745 0.44455 0.0
H262 H 0.26212 0.66036 0.51192 0.0
H263 H 0.3885 0.73104 0.40866 0.0
C264 C 0.34074 0.26837 0.05092 0.0
C265 C 0.34562 0.23532 1.01109 0.0
C266 C 0.28516 0.25308 0.07774 0.0
C267 C 0.23197 0.20357 0.06615 0.0
H268 H 0.37949 0.30778 0.06116 0.0
H269 H 0.28363 0.28134 0.10775 0.0
S270 S 0.22337 0.09788 0.96612 0.0
N271 N 0.29472 0.14756 0.96203 0.0
N272 N 0.19002 0.11878 1.01237 0.0
C273 C 0.2373 0.16833 1.02678 0.0
C274 C 0.29395 0.18437 0.99927 0.0
C275 C 0.51805 0.70593 0.50826 0.0
C276 C 0.5115 0.74622 0.54612 0.0
C277 C 0.46054 0.69035 0.48268 0.0
C278 C 0.39353 0.71379 0.49384 0.0
H279 H 0.56806 0.68533 0.4983 0.0
H280 H 0.46861 0.65904 0.45405 0.0
S281 S 0.34779 0.82477 0.58821 0.0
N282 N 0.43188 0.81127 0.59251 0.0
N283 N 0.32456 0.78272 0.5444 0.0
C284 C 0.38618 0.75476 0.53131 0.0
C285 C 0.44478 0.77083 0.55734 0.0
C286 C 0.31501 0.86233 0.03723 0.0
C287 C 0.3657 0.80985 1.02691 0.0
C288 C 0.26165 0.87872 1.0093 0.0
C289 C 0.2565 0.84207 0.97045 0.0
H290 H 0.31664 0.89084 0.06717 0.0
H291 H 0.22303 0.9186 1.01879 0.0
S292 S 0.37772 0.70136 0.92841 0.0
N293 N 0.40891 0.72302 0.97498 0.0
N294 N 0.30808 0.75242 0.92265 0.0
C295 C 0.30758 0.79015 0.95961 0.0
C296 C 0.36238 0.77442 0.98779 0.0
C297 C 0.41999 0.27894 0.54753 0.0
C298 C 0.42361 0.29991 0.50547 0.0
C299 C 0.36109 0.29387 0.57218 0.0
C300 C 0.30377 0.33188 0.5561 0.0
H301 H 0.46259 0.24951 0.56131 0.0
H302 H 0.35979 0.27346 0.60377 0.0
S303 S 0.29244 0.40938 0.44965 0.0
N304 N 0.36747 0.36641 0.44984 0.0
N305 N 0.2585 0.39728 0.49648 0.0
C306 C 0.30838 0.35628 0.51458 0.0
C307 C 0.36771 0.33964 0.48924 0.0
C308 C 0.75776 0.71483 0.03051 0.0
C309 C 0.75282 0.74037 0.07224 0.0
C310 C 0.81069 0.73892 1.0037 0.0
C311 C 0.86132 0.78954 1.01731 0.0
H312 H 0.7192 0.67749 1.01783 0.0
H313 H 0.81186 0.71764 0.97192 0.0
S314 S 0.87637 0.86874 0.12442 0.0
N315 N 0.80743 0.81505 0.12668 0.0
N316 N 0.9053 0.86176 0.07592 0.0
C317 C 0.85869 0.81363 0.05928 0.0
C318 C 0.805 0.78873 0.08676 0.0
C319 C 0.8634 0.35016 0.54116 0.0
C320 C 0.89112 0.29922 0.56905 0.0
C321 C 0.81472 0.32892 0.51088 0.0
C322 C 0.79131 0.25576 0.50702 0.0
H323 H 0.87958 0.40711 0.54245 0.0
H324 H 0.79476 0.37058 0.49041 0.0
S325 S 0.84557 0.1007 0.57274 0.0
N326 N 0.88937 0.17184 0.59144 0.0
N327 N 0.79882 0.13235 0.53393 0.0
C328 C 0.81755 0.20429 0.53496 0.0
C329 C 0.86726 0.22584 0.56598 0.0
C330 C 0.83967 0.29446 1.00287 0.0
C331 C 0.84161 0.32193 0.04419 0.0
C332 C 0.7857 0.31206 0.97563 0.0
C333 C 0.73018 0.35733 0.98835 0.0
H334 H 0.87963 0.25764 0.99153 0.0
H335 H 0.78706 0.28835 0.9444 0.0
S336 S 0.71349 0.44973 0.09219 0.0
N337 N 0.78581 0.40221 0.09547 0.0
N338 N 0.68318 0.43323 0.04478 0.0
C339 C 0.73241 0.38722 0.02923 0.0
C340 C 0.788 0.36974 0.05699 0.0
C341 C 0.9598 0.83308 0.56981 0.0
C342 C 0.8933 0.81212 0.55619 0.0
C343 C 1.01876 0.8205 0.5449 0.0
C344 C 1.01411 0.78653 0.50507 0.0
H345 H 0.96638 0.86007 0.59993 0.0
H346 H 1.06836 0.83887 0.55685 0.0
S347 S 0.85231 0.7157 0.45624 0.0
N348 N 0.82666 0.75148 0.50136 0.0
N349 N 0.93684 0.72897 0.45426 0.0
C350 C 0.94789 0.76404 0.49141 0.0
C351 C 0.8878 0.77676 0.5169 0.0
C352 C 1.04933 0.37137 0.29641 0.0
C353 C 0.10506 0.35882 0.269 0.0
C354 C 1.04686 0.43432 0.3222 0.0
C355 C 0.09898 0.48893 0.32089 0.0
H356 H 1.0055 0.33409 0.29642 0.0
H357 H 1.00178 0.44177 0.34195 0.0
S358 S 0.2597 0.47872 0.25695 0.0
N359 N 0.21732 0.40251 0.24496 0.0
N360 N 0.21119 0.52216 0.29184 0.0
C361 C 0.15741 0.47449 0.29563 0.0
C362 C 0.16068 0.40926 0.27004 0.0
C363 C 0.53373 0.66691 0.77657 0.0
C364 C 0.59995 0.68796 0.76255 0.0
C365 C 0.52439 0.60621 0.80262 0.0
C366 C 0.58057 0.56257 0.81493 0.0
H367 H 0.48843 0.69673 0.76665 0.0
H368 H 0.47241 0.59222 0.81257 0.0
S369 S 0.76482 0.59435 0.78822 0.0
N370 N 0.72332 0.66083 0.76449 0.0
N371 N 0.70488 0.546 0.81251 0.0
C372 C 0.64707 0.5832 0.80169 0.0
C373 C 0.65696 0.64609 0.77588 0.0
C374 C 0.09023 0.56226 0.75582 0.0
C375 C 1.0267 0.55846 0.73447 0.0
C376 C 0.10733 0.62289 0.78131 0.0
C377 C 1.06136 0.68201 0.78685 0.0
H378 H 0.12554 0.51636 0.75478 0.0
H379 H 0.15511 0.62103 0.79886 0.0
S380 S 0.89495 0.70597 0.73159 0.0
N381 N 0.92263 0.62467 0.71551 0.0
N382 N 0.95383 0.73745 0.76464 0.0
C383 C 0.99991 0.68138 0.76351 0.0
C384 C 0.9828 0.61994 0.73708 0.0
C385 C 0.58499 0.39066 0.26174 0.0
C386 C 0.53798 0.39518 0.29535 0.0
C387 C 0.59495 0.44992 0.23477 0.0
C388 C 0.56017 0.51689 0.24115 0.0
H389 H 0.61452 0.34101 0.25633 0.0
H390 H 0.63029 0.44362 0.20862 0.0
S391 S 0.43254 0.55841 0.32466 0.0
N392 N 0.4562 0.47303 0.3334 0.0
N393 N 0.47658 0.58434 0.28303 0.0
C394 C 0.51354 0.5226 0.27467 0.0
C395 C 0.502 0.46177 0.30164 0.0
C396 C 0.49323 0.90379 0.27597 0.0
C397 C 0.56109 0.88206 0.26561 0.0
C398 C 0.48024 0.96489 0.30193 0.0
C399 C 0.53436 1.00761 0.31919 0.0
H400 H 0.44918 0.87534 0.26241 0.0
H401 H 0.42686 0.98023 0.30709 0.0
S402 S 0.72201 0.96938 0.30604 0.0
N403 N 0.68363 0.90522 0.27731 0.0
N404 N 0.65917 1.01899 0.32706 0.0
C405 C 0.6027 0.9844 0.31091 0.0
C406 C 0.61602 0.92188 0.28414 0.0
C407 C 1.01956 0.06923 0.7986 0.0
C408 C 1.08078 0.06728 0.82207 0.0
C409 C 1.00497 0.129 0.77293 0.0
C410 C 1.05135 0.18874 0.76957 0.0
H411 H 0.98551 1.02192 0.79749 0.0
H412 H 0.95967 0.12538 0.75315 0.0
S413 S 0.21006 0.21756 0.83264 0.0
N414 N 0.18106 0.13615 0.84663 0.0
N415 N 0.15477 0.24744 0.7976 0.0
C416 C 0.10894 0.19071 0.79624 0.0
C417 C 0.12337 0.13022 0.82266 0.0
C418 C 0.5405 0.10747 0.73753 0.0
C419 C 0.59951 0.06315 0.73174 0.0
C420 C 0.54116 0.16914 0.76435 0.0
C421 C 0.60118 0.19032 0.78628 0.0
H422 H 0.49254 0.09315 0.72197 0.0
H423 H 0.49344 0.1993 0.76887 0.0
S424 S 0.77105 0.09554 0.78033 0.0
N425 N 0.72065 0.04669 0.74883 0.0
N426 N 0.72238 0.16268 0.79923 0.0
C427 C 0.6614 0.14789 0.77979 0.0
C428 C 0.66038 0.08425 0.75273 0.0
C429 C 1.03626 0.95087 0.25043 0.0
C430 C 0.09146 0.99524 0.23674 0.0
C431 C 1.04682 0.89348 0.27838 0.0
C432 C 0.1133 0.87676 0.29316 0.0
H433 H 0.984 0.9619 0.24025 0.0
H434 H 1.00222 0.86268 0.28907 0.0
S435 S 0.27596 0.97399 0.26539 0.0
N436 N 0.21543 1.01716 0.23908 0.0
N437 N 0.23571 0.90851 0.29124 0.0
C438 C 0.16941 0.91927 0.27882 0.0
C439 C 0.15838 0.9788 0.25083 0.0
C440 C 0.08922 0.49223 0.99672 0.0
C441 C 0.09991 0.56767 0.99218 0.0
C442 C 0.09994 0.459 0.03515 0.0
C443 C 0.12014 0.50053 0.07055 0.0
H444 H 1.07071 0.45929 0.97059 0.0
H445 H 0.08883 0.40115 0.03763 0.0
S446 S 0.15809 0.69949 0.07451 0.0
N447 N 0.13529 0.6827 1.02561 0.0
N448 N 0.1537 0.6198 0.09831 0.0
C449 C 0.1332 0.57552 0.06611 0.0
C450 C 0.12356 0.60927 1.02677 0.0
C451 C 0.68405 0.52769 0.5514 0.0
C452 C 0.62807 0.53807 0.57912 0.0
C453 C 0.67342 0.51178 0.50921 0.0
C454 C 0.60636 0.50604 0.49252 0.0
H455 H 0.7369 0.53479 0.56176 0.0
H456 H 0.71862 0.50277 0.48977 0.0
S457 S 0.44173 0.52446 0.55201 0.0
N458 N 0.50285 0.5362 0.58743 0.0
N459 N 0.4827 0.51108 0.50721 0.0
C460 C 0.54966 0.51513 0.51988 0.0
C461 C 0.56058 0.52961 0.56328 0.0
C462 C 0.6452 0.11654 1.02221 0.0
C463 C 0.65415 0.07108 0.98666 0.0
C464 C 0.64214 0.08692 0.0622 0.0
C465 C 0.64922 1.01121 0.06809 0.0
H466 H 0.63518 0.17443 1.01898 0.0
H467 H 0.62966 0.12268 0.08847 0.0
S468 S 0.68768 0.87209 0.98501 0.0
N469 N 0.67928 0.94966 0.95974 0.0
N470 N 0.67698 0.89334 0.03492 0.0
C471 C 0.66606 0.96662 0.03301 0.0
C472 C 0.66746 0.99679 0.99223 0.0
C473 C 0.09561 0.98991 0.50748 0.0
C474 C 0.15237 1.0104 0.48214 0.0
C475 C 1.08505 1.02187 0.54689 0.0
C476 C 0.13107 0.07477 0.56242 0.0
H477 H 1.06056 0.94662 0.498 0.0
H478 H 1.04207 1.00358 0.56597 0.0
S479 S 0.27703 0.16048 0.5059 0.0
N480 N 0.24669 0.09779 0.47299 0.0
N481 N 0.2286 0.15483 0.54837 0.0
C482 C 0.18464 0.09998 0.53672 0.0
C483 C 0.19465 0.06871 0.49617 0.0
loop_
_geom_bond_atom_site_label_1
_geom_bond_atom_site_label_2
_geom_bond_distance
_geom_bond_site_symmetry_2
_ccdc_geom_bond_type
Co0 N4 2.148 . S
Co0 N10 2.128 . S
Co0 N20 2.194 1_455 S
Co0 O25 2.351 1_455 S
Co0 O26 2.155 . S
Co0 O27 2.096 . S
C1 N4 1.301 . S
C1 N5 1.328 . S
C1 H6 0.930 1_455 S
C2 C3 1.333 . S
C2 N4 1.317 . S
C2 H7 0.930 . S
C3 C2 1.333 . S
C3 N5 1.350 . S
C3 H29 0.931 . S
N4 Co0 2.148 . S
N4 C1 1.301 . S
N4 C2 1.317 . S
N5 C1 1.328 . S
N5 C3 1.350 . S
H6 C1 0.930 1_655 S
H7 C2 0.930 . S
C8 O9 1.224 . S
C8 O27 1.247 . S
O9 C8 1.224 . S
N10 Co0 2.128 . S
N10 C11 1.355 1_455 S
N10 C13 1.311 . S
C11 N10 1.355 1_655 S
C11 C12 1.363 . S
C11 H23 0.929 . S
C12 C11 1.363 . S
C12 N14 1.375 1_655 S
C12 H30 0.931 . S
C13 N10 1.311 . S
C13 N14 1.347 . S
C13 H24 0.929 . S
N14 C12 1.375 1_455 S
N14 C13 1.347 . S
C15 C18 1.365 . S
C15 N20 1.328 . S
C15 H21 0.929 . S
C16 C17 1.362 . S
C16 C19 1.378 . S
C16 H31 0.929 . S
C17 C16 1.362 . S
C17 C18 1.366 . S
C18 C15 1.365 . S
C18 C17 1.366 . S
C18 H32 0.930 . S
C19 C16 1.378 . S
C19 N20 1.315 . S
C19 H22 0.930 . S
N20 Co0 2.194 1_655 S
N20 C15 1.328 . S
N20 C19 1.315 . S
H21 C15 0.929 . S
H22 C19 0.930 . S
H23 C11 0.929 . S
H24 C13 0.929 . S
O25 Co0 2.351 1_655 S
O25 C28 1.244 1_655 S
O26 Co0 2.155 . S
O26 C28 1.240 . S
O27 Co0 2.096 . S
O27 C8 1.247 . S
C28 O25 1.244 1_455 S
C28 O26 1.240 . S
H29 C3 0.931 . S
H30 C12 0.931 . S
H31 C16 0.929 . S
H32 C18 0.930 . S
Co33 N37 2.148 . S
Co33 N43 2.128 . S
Co33 N53 2.194 . S
Co33 O58 2.351 . S
Co33 O59 2.155 . S
Co33 O60 2.096 . S
C34 N37 1.301 . S
C34 N38 1.328 . S
C34 H39 0.930 . S
C35 C36 1.333 . S
C35 N37 1.317 . S
C35 H40 0.930 . S
C36 C35 1.333 . S
C36 N38 1.350 . S
C36 H62 0.931 . S
N37 Co33 2.148 . S
N37 C34 1.301 . S
N37 C35 1.317 . S
N38 C34 1.328 . S
N38 C36 1.350 . S
H39 C34 0.930 . S
H40 C35 0.930 . S
C41 O42 1.224 . S
C41 O60 1.247 . S
O42 C41 1.224 . S
N43 Co33 2.128 . S
N43 C44 1.355 . S
N43 C46 1.311 . S
C44 N43 1.355 . S
C44 C45 1.363 . S
C44 H56 0.929 . S
C45 C44 1.363 . S
C45 N47 1.375 . S
C45 H63 0.931 . S
C46 N43 1.311 . S
C46 N47 1.347 . S
C46 H57 0.929 . S
N47 C45 1.375 . S
N47 C46 1.347 . S
C48 C51 1.365 . S
C48 N53 1.328 . S
C48 H54 0.929 . S
C49 C50 1.362 . S
C49 C52 1.378 . S
C49 H64 0.929 . S
C50 C49 1.362 . S
C50 C51 1.366 . S
C51 C48 1.365 . S
C51 C50 1.366 . S
C51 H65 0.930 . S
C52 C49 1.378 . S
C52 N53 1.315 . S
C52 H55 0.930 . S
N53 Co33 2.194 . S
N53 C48 1.328 . S
N53 C52 1.315 . S
H54 C48 0.929 . S
H55 C52 0.930 . S
H56 C44 0.929 . S
H57 C46 0.929 . S
O58 Co33 2.351 . S
O58 C61 1.244 . S
O59 Co33 2.155 . S
O59 C61 1.240 . S
O60 Co33 2.096 . S
O60 C41 1.247 . S
C61 O58 1.244 . S
C61 O59 1.240 . S
H62 C36 0.931 . S
H63 C45 0.931 . S
H64 C49 0.929 . S
H65 C51 0.930 . S
Co66 N70 2.148 . S
Co66 N76 2.128 . S
Co66 N86 2.194 1_455 S
Co66 O91 2.351 1_455 S
Co66 O92 2.155 . S
Co66 O93 2.096 . S
C67 N70 1.301 . S
C67 N71 1.328 . S
C67 H72 0.930 1_455 S
C68 C69 1.333 . S
C68 N70 1.317 . S
C68 H73 0.930 . S
C69 C68 1.333 . S
C69 N71 1.350 . S
C69 H95 0.931 . S
N70 Co66 2.148 . S
N70 C67 1.301 . S
N70 C68 1.317 . S
N71 C67 1.328 . S
N71 C69 1.350 . S
H72 C67 0.930 1_655 S
H73 C68 0.930 . S
C74 O75 1.224 . S
C74 O93 1.247 . S
O75 C74 1.224 . S
N76 Co66 2.128 . S
N76 C77 1.355 1_455 S
N76 C79 1.311 . S
C77 N76 1.355 1_655 S
C77 C78 1.363 . S
C77 H89 0.929 . S
C78 C77 1.363 . S
C78 N80 1.375 1_655 S
C78 H96 0.931 . S
C79 N76 1.311 . S
C79 N80 1.347 . S
C79 H90 0.929 . S
N80 C78 1.375 1_455 S
N80 C79 1.347 . S
C81 C84 1.365 . S
C81 N86 1.328 . S
C81 H87 0.929 . S
C82 C83 1.362 . S
C82 C85 1.378 . S
C82 H97 0.929 . S
C83 C82 1.362 . S
C83 C84 1.366 . S
C84 C81 1.365 . S
C84 C83 1.366 . S
C84 H98 0.930 . S
C85 C82 1.378 . S
C85 N86 1.315 . S
C85 H88 0.930 . S
N86 Co66 2.194 1_655 S
N86 C81 1.328 . S
N86 C85 1.315 . S
H87 C81 0.929 . S
H88 C85 0.930 . S
H89 C77 0.929 . S
H90 C79 0.929 . S
O91 Co66 2.351 1_655 S
O91 C94 1.244 1_655 S
O92 Co66 2.155 . S
O92 C94 1.240 . S
O93 Co66 2.096 . S
O93 C74 1.247 . S
C94 O91 1.244 1_455 S
C94 O92 1.240 . S
H95 C69 0.931 . S
H96 C78 0.931 . S
H97 C82 0.929 . S
H98 C84 0.930 . S
Co99 N103 2.148 . S
Co99 N109 2.128 . S
Co99 N119 2.194 . S
Co99 O124 2.351 . S
Co99 O125 2.155 . S
Co99 O126 2.096 . S
C100 N103 1.301 . S
C100 N104 1.328 . S
C100 H105 0.930 . S
C101 C102 1.333 . S
C101 N103 1.317 . S
C101 H106 0.930 . S
C102 C101 1.333 . S
C102 N104 1.350 . S
C102 H128 0.931 . S
N103 Co99 2.148 . S
N103 C100 1.301 . S
N103 C101 1.317 . S
N104 C100 1.328 . S
N104 C102 1.350 . S
H105 C100 0.930 . S
H106 C101 0.930 . S
C107 O108 1.224 . S
C107 O126 1.247 . S
O108 C107 1.224 . S
N109 Co99 2.128 . S
N109 C110 1.355 . S
N109 C112 1.311 . S
C110 N109 1.355 . S
C110 C111 1.363 . S
C110 H122 0.929 . S
C111 C110 1.363 . S
C111 N113 1.375 . S
C111 H129 0.931 . S
C112 N109 1.311 . S
C112 N113 1.347 . S
C112 H123 0.929 . S
N113 C111 1.375 . S
N113 C112 1.347 . S
C114 C117 1.365 . S
C114 N119 1.328 . S
C114 H120 0.929 . S
C115 C116 1.362 . S
C115 C118 1.378 . S
C115 H130 0.929 . S
C116 C115 1.362 . S
C116 C117 1.366 . S
C117 C114 1.365 . S
C117 C116 1.366 . S
C117 H131 0.930 . S
C118 C115 1.378 . S
C118 N119 1.315 . S
C118 H121 0.930 . S
N119 Co99 2.194 . S
N119 C114 1.328 . S
N119 C118 1.315 . S
H120 C114 0.929 . S
H121 C118 0.930 . S
H122 C110 0.929 . S
H123 C112 0.929 . S
O124 Co99 2.351 . S
O124 C127 1.244 . S
O125 Co99 2.155 . S
O125 C127 1.240 . S
O126 Co99 2.096 . S
O126 C107 1.247 . S
C127 O124 1.244 . S
C127 O125 1.240 . S
H128 C102 0.931 . S
H129 C111 0.931 . S
H130 C115 0.929 . S
H131 C117 0.930 . S
Co132 N136 2.148 . S
Co132 N142 2.128 . S
Co132 N152 2.194 . S
Co132 O157 2.351 . S
Co132 O158 2.155 . S
Co132 O159 2.096 . S
C133 N136 1.301 . S
C133 N137 1.328 . S
C133 H138 0.930 . S
C134 C135 1.333 . S
C134 N136 1.317 . S
C134 H139 0.930 . S
C135 C134 1.333 . S
C135 N137 1.350 . S
C135 H161 0.931 . S
N136 Co132 2.148 . S
N136 C133 1.301 . S
N136 C134 1.317 . S
N137 C133 1.328 . S
N137 C135 1.350 . S
H138 C133 0.930 . S
H139 C134 0.930 . S
C140 O141 1.224 . S
C140 O159 1.247 . S
O141 C140 1.224 . S
N142 Co132 2.128 . S
N142 C143 1.355 . S
N142 C145 1.311 . S
C143 N142 1.355 . S
C143 C144 1.363 . S
C143 H155 0.929 . S
C144 C143 1.363 . S
C144 N146 1.375 . S
C144 H162 0.931 . S
C145 N142 1.311 . S
C145 N146 1.347 . S
C145 H156 0.929 . S
N146 C144 1.375 . S
N146 C145 1.347 . S
C147 C150 1.365 . S
C147 N152 1.328 . S
C147 H153 0.929 . S
C148 C149 1.362 . S
C148 C151 1.378 . S
C148 H163 0.929 . S
C149 C148 1.362 . S
C149 C150 1.366 . S
C150 C147 1.365 . S
C150 C149 1.366 . S
C150 H164 0.930 . S
C151 C148 1.378 . S
C151 N152 1.315 . S
C151 H154 0.930 . S
N152 Co132 2.194 . S
N152 C147 1.328 . S
N152 C151 1.315 . S
H153 C147 0.929 . S
H154 C151 0.930 . S
H155 C143 0.929 . S
H156 C145 0.929 . S
O157 Co132 2.351 . S
O157 C160 1.244 . S
O158 Co132 2.155 . S
O158 C160 1.240 . S
O159 Co132 2.096 . S
O159 C140 1.247 . S
C160 O157 1.244 . S
C160 O158 1.240 . S
H161 C135 0.931 . S
H162 C144 0.931 . S
H163 C148 0.929 . S
H164 C150 0.930 . S
Co165 N169 2.148 . S
Co165 N175 2.128 1_655 S
Co165 N185 2.194 1_655 S
Co165 O190 2.351 1_655 S
Co165 O191 2.155 . S
Co165 O192 2.096 . S
C166 N169 1.301 1_455 S
C166 N170 1.328 1_455 S
C166 H171 0.930 . S
C167 C168 1.333 . S
C167 N169 1.317 . S
C167 H172 0.930 . S
C168 C167 1.333 . S
C168 N170 1.350 . S
C168 H194 0.931 . S
N169 Co165 2.148 . S
N169 C166 1.301 1_655 S
N169 C167 1.317 . S
N170 C166 1.328 1_655 S
N170 C168 1.350 . S
H171 C166 0.930 . S
H172 C167 0.930 . S
C173 O174 1.224 . S
C173 O192 1.247 . S
O174 C173 1.224 . S
N175 Co165 2.128 1_455 S
N175 C176 1.355 . S
N175 C178 1.311 1_455 S
C176 N175 1.355 . S
C176 C177 1.363 . S
C176 H188 0.929 . S
C177 C176 1.363 . S
C177 N179 1.375 1_455 S
C177 H195 0.931 . S
C178 N175 1.311 1_655 S
C178 N179 1.347 . S
C178 H189 0.929 . S
N179 C177 1.375 1_655 S
N179 C178 1.347 . S
C180 C183 1.365 . S
C180 N185 1.328 . S
C180 H186 0.929 . S
C181 C182 1.362 . S
C181 C184 1.378 . S
C181 H196 0.929 . S
C182 C181 1.362 . S
C182 C183 1.366 . S
C183 C180 1.365 . S
C183 C182 1.366 . S
C183 H197 0.930 . S
C184 C181 1.378 . S
C184 N185 1.315 . S
C184 H187 0.930 . S
N185 Co165 2.194 1_455 S
N185 C180 1.328 . S
N185 C184 1.315 . S
H186 C180 0.929 . S
H187 C184 0.930 . S
H188 C176 0.929 . S
H189 C178 0.929 . S
O190 Co165 2.351 1_455 S
O190 C193 1.244 . S
O191 Co165 2.155 . S
O191 C193 1.240 1_655 S
O192 Co165 2.096 . S
O192 C173 1.247 . S
C193 O190 1.244 . S
C193 O191 1.240 1_455 S
H194 C168 0.931 . S
H195 C177 0.931 . S
H196 C181 0.929 . S
H197 C183 0.930 . S
Co198 N202 2.148 . S
Co198 N208 2.128 . S
Co198 N218 2.194 . S
Co198 O223 2.351 . S
Co198 O224 2.155 . S
Co198 O225 2.096 . S
C199 N202 1.301 . S
C199 N203 1.328 . S
C199 H204 0.930 . S
C200 C201 1.333 . S
C200 N202 1.317 . S
C200 H205 0.930 . S
C201 C200 1.333 . S
C201 N203 1.350 . S
C201 H227 0.931 . S
N202 Co198 2.148 . S
N202 C199 1.301 . S
N202 C200 1.317 . S
N203 C199 1.328 . S
N203 C201 1.350 . S
H204 C199 0.930 . S
H205 C200 0.930 . S
C206 O207 1.224 . S
C206 O225 1.247 . S
O207 C206 1.224 . S
N208 Co198 2.128 . S
N208 C209 1.355 . S
N208 C211 1.311 . S
C209 N208 1.355 . S
C209 C210 1.363 . S
C209 H221 0.929 . S
C210 C209 1.363 . S
C210 N212 1.375 . S
C210 H228 0.931 . S
C211 N208 1.311 . S
C211 N212 1.347 . S
C211 H222 0.929 . S
N212 C210 1.375 . S
N212 C211 1.347 . S
C213 C216 1.365 . S
C213 N218 1.328 . S
C213 H219 0.929 . S
C214 C215 1.362 . S
C214 C217 1.378 . S
C214 H229 0.929 . S
C215 C214 1.362 . S
C215 C216 1.366 . S
C216 C213 1.365 . S
C216 C215 1.366 . S
C216 H230 0.930 . S
C217 C214 1.378 . S
C217 N218 1.315 . S
C217 H220 0.930 . S
N218 Co198 2.194 . S
N218 C213 1.328 . S
N218 C217 1.315 . S
H219 C213 0.929 . S
H220 C217 0.930 . S
H221 C209 0.929 . S
H222 C211 0.929 . S
O223 Co198 2.351 . S
O223 C226 1.244 . S
O224 Co198 2.155 . S
O224 C226 1.240 . S
O225 Co198 2.096 . S
O225 C206 1.247 . S
C226 O223 1.244 . S
C226 O224 1.240 . S
H227 C201 0.931 . S
H228 C210 0.931 . S
H229 C214 0.929 . S
H230 C216 0.930 . S
Co231 N235 2.148 . S
Co231 N241 2.128 1_655 S
Co231 N251 2.194 1_655 S
Co231 O256 2.351 1_655 S
Co231 O257 2.155 . S
Co231 O258 2.096 . S
C232 N235 1.301 1_455 S
C232 N236 1.328 1_455 S
C232 H237 0.930 . S
C233 C234 1.333 . S
C233 N235 1.317 . S
C233 H238 0.930 . S
C234 C233 1.333 . S
C234 N236 1.350 . S
C234 H260 0.931 . S
N235 Co231 2.148 . S
N235 C232 1.301 1_655 S
N235 C233 1.317 . S
N236 C232 1.328 1_655 S
N236 C234 1.350 . S
H237 C232 0.930 . S
H238 C233 0.930 . S
C239 O240 1.224 . S
C239 O258 1.247 . S
O240 C239 1.224 . S
N241 Co231 2.128 1_455 S
N241 C242 1.355 . S
N241 C244 1.311 1_455 S
C242 N241 1.355 . S
C242 C243 1.363 . S
C242 H254 0.929 . S
C243 C242 1.363 . S
C243 N245 1.375 1_455 S
C243 H261 0.931 . S
C244 N241 1.311 1_655 S
C244 N245 1.347 . S
C244 H255 0.929 . S
N245 C243 1.375 1_655 S
N245 C244 1.347 . S
C246 C249 1.365 . S
C246 N251 1.328 . S
C246 H252 0.929 . S
C247 C248 1.362 . S
C247 C250 1.378 . S
C247 H262 0.929 . S
C248 C247 1.362 . S
C248 C249 1.366 . S
C249 C246 1.365 . S
C249 C248 1.366 . S
C249 H263 0.930 . S
C250 C247 1.378 . S
C250 N251 1.315 . S
C250 H253 0.930 . S
N251 Co231 2.194 1_455 S
N251 C246 1.328 . S
N251 C250 1.315 . S
H252 C246 0.929 . S
H253 C250 0.930 . S
H254 C242 0.929 . S
H255 C244 0.929 . S
O256 Co231 2.351 1_455 S
O256 C259 1.244 . S
O257 Co231 2.155 . S
O257 C259 1.240 1_655 S
O258 Co231 2.096 . S
O258 C239 1.247 . S
C259 O256 1.244 . S
C259 O257 1.240 1_455 S
H260 C234 0.931 . S
H261 C243 0.931 . S
H262 C247 0.929 . S
H263 C249 0.930 . S
C264 C265 1.369 1_554 S
C264 C266 1.419 . S
C264 H268 0.930 . S
C265 C264 1.369 1_556 S
C265 C274 1.429 . S
C266 C264 1.419 . S
C266 C267 1.363 . S
C266 H269 0.929 . S
C267 C266 1.363 . S
C267 C273 1.428 1_554 S
H268 C264 0.930 . S
H269 C266 0.929 . S
S270 N271 1.613 . S
S270 N272 1.610 . S
N271 S270 1.613 . S
N271 C274 1.350 . S
N272 S270 1.610 . S
N272 C273 1.351 . S
C273 C267 1.428 1_556 S
C273 N272 1.351 . S
C273 C274 1.434 . S
C274 C265 1.429 . S
C274 N271 1.350 . S
C274 C273 1.434 . S
C275 C276 1.369 . S
C275 C277 1.419 . S
C275 H279 0.930 . S
C276 C275 1.369 . S
C276 C285 1.429 . S
C277 C275 1.419 . S
C277 C278 1.363 . S
C277 H280 0.929 . S
C278 C277 1.363 . S
C278 C284 1.428 . S
H279 C275 0.930 . S
H280 C277 0.929 . S
S281 N282 1.613 . S
S281 N283 1.610 . S
N282 S281 1.613 . S
N282 C285 1.350 . S
N283 S281 1.610 . S
N283 C284 1.351 . S
C284 C278 1.428 . S
C284 N283 1.351 . S
C284 C285 1.434 . S
C285 C276 1.429 . S
C285 N282 1.350 . S
C285 C284 1.434 . S
C286 C287 1.369 . S
C286 C288 1.419 . S
C286 H290 0.930 . S
C287 C286 1.369 . S
C287 C296 1.429 1_554 S
C288 C286 1.419 . S
C288 C289 1.363 1_554 S
C288 H291 0.929 . S
C289 C288 1.363 1_556 S
C289 C295 1.428 . S
H290 C286 0.930 . S
H291 C288 0.929 . S
S292 N293 1.613 . S
S292 N294 1.610 . S
N293 S292 1.613 . S
N293 C296 1.350 . S
N294 S292 1.610 . S
N294 C295 1.351 . S
C295 C289 1.428 . S
C295 N294 1.351 . S
C295 C296 1.434 . S
C296 C287 1.429 1_556 S
C296 N293 1.350 . S
C296 C295 1.434 . S
C297 C298 1.369 . S
C297 C299 1.419 . S
C297 H301 0.930 . S
C298 C297 1.369 . S
C298 C307 1.429 . S
C299 C297 1.419 . S
C299 C300 1.363 . S
C299 H302 0.929 . S
C300 C299 1.363 . S
C300 C306 1.428 . S
H301 C297 0.930 . S
H302 C299 0.929 . S
S303 N304 1.613 . S
S303 N305 1.610 . S
N304 S303 1.613 . S
N304 C307 1.350 . S
N305 S303 1.610 . S
N305 C306 1.351 . S
C306 C300 1.428 . S
C306 N305 1.351 . S
C306 C307 1.434 . S
C307 C298 1.429 . S
C307 N304 1.350 . S
C307 C306 1.434 . S
C308 C309 1.369 . S
C308 C310 1.419 1_554 S
C308 H312 0.930 . S
C309 C308 1.369 . S
C309 C318 1.429 . S
C310 C308 1.419 1_556 S
C310 C311 1.363 . S
C310 H313 0.929 . S
C311 C310 1.363 . S
C311 C317 1.428 . S
H312 C308 0.930 . S
H313 C310 0.929 . S
S314 N315 1.613 . S
S314 N316 1.610 1_554 S
N315 S314 1.613 . S
N315 C318 1.350 . S
N316 S314 1.610 1_556 S
N316 C317 1.351 . S
C317 C311 1.428 . S
C317 N316 1.351 . S
C317 C318 1.434 1_556 S
C318 C309 1.429 . S
C318 N315 1.350 . S
C318 C317 1.434 1_554 S
C319 C320 1.369 . S
C319 C321 1.419 . S
C319 H323 0.930 . S
C320 C319 1.369 . S
C320 C329 1.429 . S
C321 C319 1.419 . S
C321 C322 1.363 . S
C321 H324 0.929 . S
C322 C321 1.363 . S
C322 C328 1.428 . S
H323 C319 0.930 . S
H324 C321 0.929 . S
S325 N326 1.613 . S
S325 N327 1.610 . S
N326 S325 1.613 . S
N326 C329 1.350 . S
N327 S325 1.610 . S
N327 C328 1.351 . S
C328 C322 1.428 . S
C328 N327 1.351 . S
C328 C329 1.434 . S
C329 C320 1.429 . S
C329 N326 1.350 . S
C329 C328 1.434 . S
C330 C331 1.369 1_556 S
C330 C332 1.419 . S
C330 H334 0.930 . S
C331 C330 1.369 1_554 S
C331 C340 1.429 . S
C332 C330 1.419 . S
C332 C333 1.363 . S
C332 H335 0.929 . S
C333 C332 1.363 . S
C333 C339 1.428 . S
H334 C330 0.930 . S
H335 C332 0.929 . S
S336 N337 1.613 . S
S336 N338 1.610 1_554 S
N337 S336 1.613 . S
N337 C340 1.350 . S
N338 S336 1.610 1_556 S
N338 C339 1.351 . S
C339 C333 1.428 . S
C339 N338 1.351 . S
C339 C340 1.434 1_556 S
C340 C331 1.429 . S
C340 N337 1.350 . S
C340 C339 1.434 1_554 S
C341 C342 1.369 . S
C341 C343 1.419 . S
C341 H345 0.930 . S
C342 C341 1.369 . S
C342 C351 1.429 . S
C343 C341 1.419 . S
C343 C344 1.363 . S
C343 H346 0.929 . S
C344 C343 1.363 . S
C344 C350 1.428 . S
H345 C341 0.930 . S
H346 C343 0.929 . S
S347 N348 1.613 . S
S347 N349 1.610 . S
N348 S347 1.613 . S
N348 C351 1.350 . S
N349 S347 1.610 . S
N349 C350 1.351 . S
C350 C344 1.428 . S
C350 N349 1.351 . S
C350 C351 1.434 . S
C351 C342 1.429 . S
C351 N348 1.350 . S
C351 C350 1.434 . S
C352 C353 1.369 1_655 S
C352 C354 1.419 . S
C352 H356 0.930 . S
C353 C352 1.369 1_455 S
C353 C362 1.429 . S
C354 C352 1.419 . S
C354 C355 1.363 1_655 S
C354 H357 0.929 . S
C355 C354 1.363 1_455 S
C355 C361 1.428 . S
H356 C352 0.930 . S
H357 C354 0.929 . S
S358 N359 1.613 . S
S358 N360 1.610 . S
N359 S358 1.613 . S
N359 C362 1.350 . S
N360 S358 1.610 . S
N360 C361 1.351 . S
C361 C355 1.428 . S
C361 N360 1.351 . S
C361 C362 1.434 . S
C362 C353 1.429 . S
C362 N359 1.350 . S
C362 C361 1.434 . S
C363 C364 1.369 . S
C363 C365 1.419 . S
C363 H367 0.930 . S
C364 C363 1.369 . S
C364 C373 1.429 . S
C365 C363 1.419 . S
C365 C366 1.363 . S
C365 H368 0.929 . S
C366 C365 1.363 . S
C366 C372 1.428 . S
H367 C363 0.930 . S
H368 C365 0.929 . S
S369 N370 1.613 . S
S369 N371 1.610 . S
N370 S369 1.613 . S
N370 C373 1.350 . S
N371 S369 1.610 . S
N371 C372 1.351 . S
C372 C366 1.428 . S
C372 N371 1.351 . S
C372 C373 1.434 . S
C373 C364 1.429 . S
C373 N370 1.350 . S
C373 C372 1.434 . S
C374 C375 1.369 . S
C374 C376 1.419 . S
C374 H378 0.930 . S
C375 C374 1.369 . S
C375 C384 1.429 1_455 S
C376 C374 1.419 . S
C376 C377 1.363 . S
C376 H379 0.929 . S
C377 C376 1.363 . S
C377 C383 1.428 1_455 S
H378 C374 0.930 . S
H379 C376 0.929 . S
S380 N381 1.613 . S
S380 N382 1.610 . S
N381 S380 1.613 . S
N381 C384 1.350 . S
N382 S380 1.610 . S
N382 C383 1.351 . S
C383 C377 1.428 1_655 S
C383 N382 1.351 . S
C383 C384 1.434 . S
C384 C375 1.429 1_655 S
C384 N381 1.350 . S
C384 C383 1.434 . S
C385 C386 1.369 . S
C385 C387 1.419 . S
C385 H389 0.930 . S
C386 C385 1.369 . S
C386 C395 1.429 . S
C387 C385 1.419 . S
C387 C388 1.363 . S
C387 H390 0.929 . S
C388 C387 1.363 . S
C388 C394 1.428 . S
H389 C385 0.930 . S
H390 C387 0.929 . S
S391 N392 1.613 . S
S391 N393 1.610 . S
N392 S391 1.613 . S
N392 C395 1.350 . S
N393 S391 1.610 . S
N393 C394 1.351 . S
C394 C388 1.428 . S
C394 N393 1.351 . S
C394 C395 1.434 . S
C395 C386 1.429 . S
C395 N392 1.350 . S
C395 C394 1.434 . S
C396 C397 1.369 . S
C396 C398 1.419 1_565 S
C396 H400 0.930 . S
C397 C396 1.369 . S
C397 C406 1.429 . S
C398 C396 1.419 1_545 S
C398 C399 1.363 . S
C398 H401 0.929 . S
C399 C398 1.363 . S
C399 C405 1.428 1_545 S
H400 C396 0.930 . S
H401 C398 0.929 . S
S402 N403 1.613 . S
S402 N404 1.610 . S
N403 S402 1.613 . S
N403 C406 1.350 . S
N404 S402 1.610 . S
N404 C405 1.351 . S
C405 C399 1.428 1_565 S
C405 N404 1.351 . S
C405 C406 1.434 . S
C406 C397 1.429 . S
C406 N403 1.350 . S
C406 C405 1.434 . S
C407 C408 1.369 1_655 S
C407 C409 1.419 1_565 S
C407 H411 0.930 . S
C408 C407 1.369 1_455 S
C408 C417 1.429 1_565 S
C409 C407 1.419 1_545 S
C409 C410 1.363 1_655 S
C409 H412 0.929 . S
C410 C409 1.363 1_455 S
C410 C416 1.428 . S
H411 C407 0.930 . S
H412 C409 0.929 . S
S413 N414 1.613 . S
S413 N415 1.610 . S
N414 S413 1.613 . S
N414 C417 1.350 . S
N415 S413 1.610 . S
N415 C416 1.351 . S
C416 C410 1.428 . S
C416 N415 1.351 . S
C416 C417 1.434 . S
C417 C408 1.429 1_545 S
C417 N414 1.350 . S
C417 C416 1.434 . S
C418 C419 1.369 . S
C418 C420 1.419 1_565 S
C418 H422 0.930 . S
C419 C418 1.369 . S
C419 C428 1.429 1_565 S
C420 C418 1.419 1_545 S
C420 C421 1.363 . S
C420 H423 0.929 . S
C421 C420 1.363 . S
C421 C427 1.428 . S
H422 C418 0.930 . S
H423 C420 0.929 . S
S424 N425 1.613 . S
S424 N426 1.610 . S
N425 S424 1.613 . S
N425 C428 1.350 . S
N426 S424 1.610 . S
N426 C427 1.351 . S
C427 C421 1.428 . S
C427 N426 1.351 . S
C427 C428 1.434 . S
C428 C419 1.429 1_545 S
C428 N425 1.350 . S
C428 C427 1.434 . S
C429 C430 1.369 1_665 S
C429 C431 1.419 . S
C429 H433 0.930 1_565 S
C430 C429 1.369 1_445 S
C430 C439 1.429 . S
C431 C429 1.419 . S
C431 C432 1.363 1_655 S
C431 H434 0.929 . S
C432 C431 1.363 1_455 S
C432 C438 1.428 . S
H433 C429 0.930 1_545 S
H434 C431 0.929 . S
S435 N436 1.613 . S
S435 N437 1.610 1_545 S
N436 S435 1.613 . S
N436 C439 1.350 . S
N437 S435 1.610 1_565 S
N437 C438 1.351 . S
C438 C432 1.428 . S
C438 N437 1.351 . S
C438 C439 1.434 1_565 S
C439 C430 1.429 . S
C439 N436 1.350 . S
C439 C438 1.434 1_545 S
C440 C441 1.369 . S
C440 C442 1.419 1_556 S
C440 H444 0.930 . S
C441 C440 1.369 . S
C441 C450 1.428 1_456 S
C442 C440 1.419 1_554 S
C442 C443 1.363 . S
C442 H445 0.929 . S
C443 C442 1.363 . S
C443 C449 1.428 1_455 S
H444 C440 0.930 . S
H445 C442 0.929 . S
S446 N447 1.613 . S
S446 N448 1.610 . S
N447 S446 1.613 . S
N447 C450 1.350 . S
N448 S446 1.610 . S
N448 C449 1.351 . S
C449 C443 1.428 1_655 S
C449 N448 1.351 . S
C449 C450 1.434 . S
C450 C441 1.428 1_654 S
C450 N447 1.350 . S
C450 C449 1.434 . S
C451 C452 1.369 . S
C451 C453 1.419 . S
C451 H455 0.930 . S
C452 C451 1.369 . S
C452 C461 1.429 . S
C453 C451 1.419 . S
C453 C454 1.363 . S
C453 H456 0.929 . S
C454 C453 1.363 . S
C454 C460 1.428 . S
H455 C451 0.930 . S
H456 C453 0.929 . S
S457 N458 1.613 . S
S457 N459 1.610 . S
N458 S457 1.613 . S
N458 C461 1.350 . S
N459 S457 1.610 . S
N459 C460 1.351 . S
C460 C454 1.428 . S
C460 N459 1.351 . S
C460 C461 1.434 . S
C461 C452 1.429 . S
C461 N458 1.350 . S
C461 C460 1.434 . S
C462 C463 1.369 1_554 S
C462 C464 1.419 1_545 S
C462 H466 0.930 . S
C463 C462 1.369 1_556 S
C463 C472 1.429 . S
C464 C462 1.419 1_565 S
C464 C465 1.363 . S
C464 H467 0.929 . S
C465 C464 1.363 . S
C465 C471 1.428 1_554 S
H466 C462 0.930 . S
H467 C464 0.929 . S
S468 N469 1.613 1_565 S
S468 N470 1.610 . S
N469 S468 1.613 1_545 S
N469 C472 1.350 . S
N470 S468 1.610 . S
N470 C471 1.351 . S
C471 C465 1.428 1_556 S
C471 N470 1.351 . S
C471 C472 1.434 1_565 S
C472 C463 1.429 . S
C472 N469 1.350 . S
C472 C471 1.434 1_545 S
C473 C474 1.369 . S
C473 C475 1.432 . S
C473 H477 0.930 . S
C474 C473 1.369 . S
C474 C483 1.429 1_565 S
C475 C473 1.432 . S
C475 C476 1.348 1_565 S
C475 H478 0.933 . S
C476 C475 1.348 1_545 S
C476 C482 1.428 . S
H477 C473 0.930 . S
H478 C475 0.933 . S
S479 N480 1.613 . S
S479 N481 1.610 . S
N480 S479 1.613 . S
N480 C483 1.350 . S
N481 S479 1.610 . S
N481 C482 1.351 . S
C482 C476 1.428 . S
C482 N481 1.351 . S
C482 C483 1.434 . S
C483 C474 1.429 1_545 S
C483 N480 1.350 . S
C483 C482 1.434 . S
C265 C215 1.850 . S
C267 C8 1.849 . S
C276 C41 1.854 . S
C278 C248 1.846 . S
C287 C149 1.847 . S
C289 C74 1.851 . S
C298 C107 1.848 . S
C300 C182 1.851 . S
C309 C140 1.847 . S
C311 C83 1.852 . S
C320 C173 1.848 . S
C322 C116 1.851 . S
C331 C17 1.852 . S
C333 C206 1.848 . S
C342 C50 1.845 . S
C344 C239 1.853 . S
C353 C28 1.869 . S
C355 N236 1.867 1_455 S
C364 C61 1.868 . S
C366 N203 1.867 . S
C375 N170 1.862 1_455 S
C377 C94 1.873 . S
C386 C127 1.874 . S
C388 N137 1.864 . S
C397 C160 1.874 . S
C399 N104 1.864 . S
C408 N71 1.862 . S
C410 C193 1.873 . S
C419 N38 1.865 . S
C421 C226 1.873 . S
C430 N5 1.863 . S
C432 C259 1.871 . S
C441 N80 0.401 . S
C443 N14 0.390 . S
C452 N47 0.388 . S
C454 N113 0.407 . S
C463 N212 0.403 . S
C465 N146 0.416 . S
C474 N245 0.391 . S
C476 N179 0.410 . S
