# Generated by pormake.
# Topology wmb, (6)-cn, num edge types: 1
# Building blocks:
#     Node 0, Type 0, BuildingBlock: IZENUY_clean_sbu_0, # of connection points: 6
#     Node 1, Type 0, BuildingBlock: IZENUY_clean_sbu_0, # of connection points: 6
#     Node 2, Type 0, BuildingBlock: IZENUY_clean_sbu_0, # of connection points: 6
#     Node 3, Type 0, BuildingBlock: IZENUY_clean_sbu_0, # of connection points: 6
#     Node 4, Type 0, BuildingBlock: IZENUY_clean_sbu_0, # of connection points: 6
#     Node 5, Type 0, BuildingBlock: IZENUY_clean_sbu_0, # of connection points: 6
#     Edge 6, Type (0, 0), BuildingBlock: KIFKEQ_clean_linker_1, # of connection points: 2
#     Edge 7, Type (0, 0), BuildingBlock: KIFKEQ_clean_linker_1, # of connection points: 2
#     Edge 8, Type (0, 0), BuildingBlock: KIFKEQ_clean_linker_1, # of connection points: 2
#     Edge 9, Type (0, 0), BuildingBlock: KIFKEQ_clean_linker_1, # of connection points: 2
#     Edge 10, Type (0, 0), BuildingBlock: KIFKEQ_clean_linker_1, # of connection points: 2
#     Edge 11, Type (0, 0), BuildingBlock: KIFKEQ_clean_linker_1, # of connection points: 2
#     Edge 12, Type (0, 0), BuildingBlock: KIFKEQ_clean_linker_1, # of connection points: 2
#     Edge 13, Type (0, 0), BuildingBlock: KIFKEQ_clean_linker_1, # of connection points: 2
#     Edge 14, Type (0, 0), BuildingBlock: KIFKEQ_clean_linker_1, # of connection points: 2
#     Edge 15, Type (0, 0), BuildingBlock: KIFKEQ_clean_linker_1, # of connection points: 2
#     Edge 16, Type (0, 0), BuildingBlock: KIFKEQ_clean_linker_1, # of connection points: 2
#     Edge 17, Type (0, 0), BuildingBlock: KIFKEQ_clean_linker_1, # of connection points: 2
#     Edge 18, Type (0, 0), BuildingBlock: KIFKEQ_clean_linker_1, # of connection points: 2
#     Edge 19, Type (0, 0), BuildingBlock: KIFKEQ_clean_linker_1, # of connection points: 2
#     Edge 20, Type (0, 0), BuildingBlock: KIFKEQ_clean_linker_1, # of connection points: 2
#     Edge 21, Type (0, 0), BuildingBlock: KIFKEQ_clean_linker_1, # of connection points: 2
#     Edge 22, Type (0, 0), BuildingBlock: KIFKEQ_clean_linker_1, # of connection points: 2
#     Edge 23, Type (0, 0), BuildingBlock: KIFKEQ_clean_linker_1, # of connection points: 2
# Relax obj value: 0.258
# Max RMSD: 0.258
# Mean RMSD: 0.258
data_MOF--net-wmb--node1-IZENUY_clean_sbu_0--edge1-KIFKEQ_clean_linker_1
_symmetry_space_group_name_H-M    P1
_symmetry_Int_Tables_number       1
_symmetry_cell_setting            triclinic
loop_
_symmetry_equiv_pos_as_xyz
'x, y, z'
_cell_length_a     27.16126
_cell_length_b     27.190866
_cell_length_c     42.944459
_cell_angle_alpha  90.168533
_cell_angle_beta   89.627514
_cell_angle_gamma 120.44487
loop_
_atom_site_label
_atom_site_type_symbol
_atom_site_fract_x
_atom_site_fract_y
_atom_site_fract_z
_atom_type_partial_charge
Fe0 Fe 0.50454 0.19177 0.0482 0.0
Fe1 Fe 0.5847 0.16524 0.01047 0.0
O2 O 0.56342 0.214 0.02256 0.0
Fe3 Fe 0.60155 0.28553 0.00948 0.0
O4 O 0.62103 0.31147 0.04922 0.0
O5 O 0.53359 0.26111 0.0676 0.0
O6 O 0.53936 0.17333 0.07797 0.0
C7 C 0.55742 0.13913 0.07443 0.0
C8 C 0.48605 0.25969 0.00962 0.0
O9 O 0.56527 0.12524 0.04743 0.0
C10 C 0.59611 0.22915 0.95578 0.0
O11 O 0.46499 0.1178 0.03379 0.0
O12 O 0.5154 0.11784 0.9937 0.0
O13 O 0.5393 0.29501 0.01031 0.0
O14 O 0.46612 0.20979 0.02022 0.0
C15 C 0.68965 0.2598 0.01787 0.0
O16 O 0.60737 0.19656 0.97144 0.0
O17 O 0.58466 0.26364 0.96917 0.0
C18 C 0.46922 0.09518 0.00884 0.0
O19 O 0.65603 0.20911 0.02626 0.0
O20 O 0.67064 0.28924 0.00584 0.0
C21 C 0.58489 0.30086 0.07064 0.0
Fe22 Fe 0.87805 0.42993 0.67546 0.0
Fe23 Fe 0.7569 0.32643 0.67574 0.0
O24 O 0.82924 0.35929 0.68719 0.0
Fe25 Fe 0.85222 0.32156 0.71068 0.0
O26 O 0.87447 0.37448 0.74124 0.0
O27 O 0.92166 0.44927 0.71092 0.0
O28 O 0.83648 0.45702 0.69434 0.0
C29 C 0.78586 0.44109 0.6867 0.0
C30 C 0.9464 0.38446 0.66919 0.0
O31 O 0.7551 0.39308 0.67382 0.0
C32 C 0.77928 0.23485 0.67329 0.0
O33 O 0.8435 0.42271 0.63786 0.0
O34 O 0.77653 0.33213 0.63475 0.0
O35 O 0.92508 0.35592 0.69398 0.0
O36 O 0.92266 0.40798 0.65574 0.0
C37 C 0.74576 0.29456 0.73678 0.0
O38 O 0.74505 0.25346 0.6757 0.0
O39 O 0.83052 0.26527 0.68177 0.0
C40 C 0.81025 0.37931 0.62176 0.0
O41 O 0.73388 0.31984 0.71611 0.0
O42 O 0.78416 0.28189 0.73198 0.0
C43 C 0.90966 0.42681 0.73771 0.0
Fe44 Fe 0.70838 0.54833 0.37678 0.0
Fe45 Fe 0.60294 0.46118 0.34051 0.0
O46 O 0.6733 0.48481 0.35413 0.0
Fe47 Fe 0.70667 0.44435 0.34563 0.0
O48 O 0.73959 0.45477 0.38399 0.0
O49 O 0.71581 0.5106 0.40931 0.0
O50 O 0.6427 0.53676 0.39549 0.0
C51 C 0.59658 0.49052 0.40068 0.0
C52 C 0.80101 0.55326 0.34211 0.0
O53 O 0.57562 0.45146 0.38038 0.0
C54 C 0.65443 0.44758 0.28868 0.0
O55 O 0.70302 0.59152 0.34583 0.0
O56 O 0.61196 0.53196 0.33809 0.0
O57 O 0.77069 0.50522 0.3294 0.0
O58 O 0.78059 0.57064 0.36303 0.0
C59 C 0.59567 0.35625 0.35336 0.0
O60 O 0.62696 0.46941 0.3004 0.0
O61 O 0.67853 0.42778 0.30573 0.0
C62 C 0.65586 0.58021 0.3341 0.0
O63 O 0.57867 0.3854 0.33944 0.0
O64 O 0.64708 0.37863 0.36143 0.0
C65 C 0.73351 0.47573 0.40909 0.0
Fe66 Fe 0.30013 0.58878 0.98975 0.0
Fe67 Fe 0.20707 0.49203 0.95105 0.0
O68 O 0.22839 0.54957 0.97729 0.0
Fe69 Fe 0.17839 0.56847 0.99052 0.0
O70 O 0.22028 0.64036 0.97476 0.0
O71 O 0.30169 0.6566 0.99423 0.0
O72 O 0.32497 0.61012 0.94995 0.0
C73 C 0.31467 0.5754 0.92795 0.0
C74 C 0.24457 0.58106 0.04417 0.0
O75 O 0.27631 0.52347 0.93084 0.0
C76 C 0.1109 0.45305 0.99166 0.0
O77 O 0.31163 0.52776 0.98782 0.0
O78 O 0.22695 0.45384 0.97809 0.0
O79 O 0.21069 0.59124 0.02912 0.0
O80 O 0.27933 0.57054 0.03021 0.0
C81 C 0.15061 0.54214 0.92688 0.0
O82 O 0.13338 0.45044 0.96619 0.0
O83 O 0.13331 0.49848 0.00729 0.0
C84 C 0.27719 0.47429 0.98813 0.0
O85 O 0.18668 0.52678 0.92224 0.0
O86 O 0.13688 0.54829 0.95424 0.0
C87 C 0.27104 0.67469 0.98276 0.0
Fe88 Fe 0.4615 0.71476 0.6519 0.0
Fe89 Fe 0.55917 0.70979 0.61766 0.0
O90 O 0.49894 0.67859 0.64301 0.0
Fe91 Fe 0.47556 0.61014 0.65905 0.0
O92 O 0.39993 0.58815 0.66128 0.0
O93 O 0.39436 0.6562 0.63751 0.0
O94 O 0.47155 0.74723 0.61307 0.0
C95 C 0.48583 0.73498 0.58732 0.0
C96 C 0.46562 0.66539 0.70973 0.0
O97 O 0.5169 0.71291 0.58632 0.0
C98 C 0.5959 0.66266 0.66088 0.0
O99 O 0.52511 0.77657 0.66678 0.0
O100 O 0.58379 0.78393 0.62919 0.0
O101 O 0.48783 0.63837 0.69818 0.0
O102 O 0.44506 0.68829 0.69237 0.0
C103 C 0.4986 0.5944 0.59915 0.0
O104 O 0.6059 0.70792 0.64726 0.0
O105 O 0.54668 0.61874 0.6603 0.0
C106 C 0.57117 0.8055 0.65184 0.0
O107 O 0.54499 0.64157 0.60101 0.0
O108 O 0.46166 0.57777 0.62059 0.0
C109 C 0.37116 0.60539 0.64691 0.0
Fe110 Fe 0.32531 0.75213 0.31866 0.0
Fe111 Fe 0.32684 0.85467 0.28688 0.0
O112 O 0.36021 0.82654 0.31057 0.0
Fe113 Fe 0.42969 0.87334 0.32538 0.0
O114 O 0.45342 0.82156 0.32524 0.0
O115 O 0.38439 0.74587 0.30267 0.0
O116 O 0.29156 0.72979 0.28037 0.0
C117 C 0.30313 0.75696 0.25497 0.0
C118 C 0.37809 0.80531 0.37614 0.0
O119 O 0.32354 0.81023 0.25445 0.0
C120 C 0.37539 0.93837 0.33089 0.0
O121 O 0.26247 0.75062 0.33508 0.0
O122 O 0.25367 0.8029 0.2991 0.0
O123 O 0.40436 0.8554 0.36524 0.0
O124 O 0.35355 0.76221 0.35834 0.0
C125 C 0.44055 0.91343 0.26587 0.0
O126 O 0.3294 0.90252 0.31769 0.0
O127 O 0.41956 0.9343 0.32877 0.0
C128 C 0.23265 0.76724 0.32115 0.0
O129 O 0.39319 0.91087 0.26972 0.0
O130 O 0.45971 0.8941 0.28619 0.0
C131 C 0.43594 0.77528 0.31082 0.0
H132 H 0.38085 0.50386 0.01238 0.0
H133 H 0.22605 0.35832 0.97809 0.0
H134 H 0.42512 0.4458 0.01601 0.0
H135 H 0.27113 0.29992 0.98171 0.0
H136 H 0.37189 0.2131 0.02446 0.0
H137 H 0.31532 0.26015 0.02025 0.0
H138 H 0.45727 0.40349 0.9745 0.0
H139 H 0.51346 0.35723 0.97871 0.0
C140 C 0.35599 0.45931 0.00584 0.0
C141 C 0.30012 0.43606 0.99451 0.0
C142 C 0.38156 0.42609 0.00777 0.0
C143 C 0.35202 0.36864 0.99849 0.0
C144 C 0.29497 0.34417 0.98889 0.0
C145 C 0.26923 0.37765 0.98684 0.0
C146 C 0.39052 0.25414 0.01296 0.0
C147 C 0.44751 0.28182 0.00235 0.0
C148 C 0.35816 0.28107 0.01062 0.0
C149 C 0.3824 0.33605 0.99772 0.0
C150 C 0.43795 0.36178 0.98531 0.0
C151 C 0.47004 0.33505 0.98758 0.0
H152 H 0.70727 0.15662 0.71421 0.0
H153 H 0.79618 0.17347 0.62788 0.0
H154 H 0.66285 0.0535 0.71166 0.0
H155 H 0.74866 0.06925 0.62379 0.0
H156 H 0.68246 0.87915 0.63447 0.0
H157 H 0.7372 0.98262 0.64103 0.0
H158 H 0.59156 0.97612 0.68668 0.0
H159 H 0.53882 0.87331 0.68173 0.0
C160 C 0.71679 0.13782 0.69447 0.0
C161 C 0.75464 0.17261 0.67112 0.0
C162 C 0.69094 0.07856 0.69279 0.0
C163 C 0.70101 0.05223 0.66721 0.0
C164 C 0.74004 0.08755 0.64403 0.0
C165 C 0.76704 0.14726 0.64615 0.0
C166 C 0.66261 0.89997 0.64631 0.0
C167 C 0.60638 0.86782 0.65777 0.0
C168 C 0.6938 0.95948 0.6498 0.0
C169 C 0.66919 0.98846 0.66441 0.0
C170 C 0.61295 0.95586 0.67599 0.0
C171 C 0.58231 0.89651 0.67302 0.0
H172 H 0.16191 0.66265 0.34807 0.0
H173 H 0.16092 0.80652 0.30646 0.0
H174 H 0.05746 0.61177 0.35154 0.0
H175 H 0.05687 0.75588 0.31013 0.0
H176 H 0.87455 0.66625 0.35421 0.0
H177 H 0.97863 0.71875 0.35041 0.0
H178 H 0.97434 0.56888 0.31346 0.0
H179 H 0.86994 0.51622 0.31705 0.0
C180 C 0.13957 0.6838 0.34011 0.0
C181 C 0.16996 0.73879 0.32704 0.0
C182 C 0.07965 0.65436 0.34176 0.0
C183 C 0.04873 0.67955 0.33087 0.0
C184 C 0.07928 0.73526 0.31881 0.0
C185 C 0.139 0.76429 0.31671 0.0
C186 C 0.89566 0.64461 0.34487 0.0
C187 C 0.86366 0.58696 0.33584 0.0
C188 C 0.9554 0.67477 0.34271 0.0
C189 C 0.98492 0.64791 0.33192 0.0
C190 C 0.95296 0.59062 0.32227 0.0
C191 C 0.89306 0.56064 0.32397 0.0
H192 H 0.39773 0.8951 0.20832 0.0
H193 H 0.55399 0.99592 0.25926 0.0
H194 H 0.44315 0.9486 0.16117 0.0
H195 H 0.59926 0.05247 0.21179 0.0
H196 H 0.5742 0.17486 0.13486 0.0
H197 H 0.56219 0.11764 0.1812 0.0
H198 H 0.53277 0.97595 0.12286 0.0
H199 H 0.54582 0.03332 0.07641 0.0
C200 C 0.44243 0.92779 0.20913 0.0
C201 C 0.47265 0.94094 0.2372 0.0
C202 C 0.4684 0.95846 0.18216 0.0
C203 C 0.52472 1.00432 0.18286 0.0
C204 C 0.55587 1.01683 0.21072 0.0
C205 C 0.53019 0.98457 0.23771 0.0
C206 C 0.56664 0.13198 0.13193 0.0
C207 C 0.56017 0.10826 0.10204 0.0
C208 C 0.5604 0.09953 0.15844 0.0
C209 C 0.54667 0.04256 0.1555 0.0
C210 C 0.54369 0.01996 0.12565 0.0
C211 C 0.55101 0.05274 0.09912 0.0
H212 H 1.02449 0.47925 0.74087 0.0
H213 H 0.87487 0.44292 0.79421 0.0
H214 H 0.08301 0.51659 0.78708 0.0
H215 H 0.93363 0.4854 0.84023 0.0
H216 H 0.03552 0.48259 0.92366 0.0
H217 H 0.9775 0.46408 0.8776 0.0
H218 H 0.12888 0.58099 0.82498 0.0
H219 H 0.18697 0.59457 0.87081 0.0
C220 C 1.00467 0.48131 0.76245 0.0
C221 C 0.94552 0.45834 0.76426 0.0
C222 C 0.03821 0.50313 0.78905 0.0
C223 C 1.01345 0.50392 0.8179 0.0
C224 C 0.95436 0.48408 0.8189 0.0
C225 C 0.92059 0.4604 0.79249 0.0
C226 C 0.05596 0.50485 0.90226 0.0
C227 C 0.11542 0.5398 0.90054 0.0
C228 C 1.0227 0.49464 0.87573 0.0
C229 C 0.04809 0.52054 0.84705 0.0
C230 C 0.1076 0.55868 0.84616 0.0
C231 C 0.14102 0.56723 0.87248 0.0
H232 H 0.64777 0.51655 0.45624 0.0
H233 H 0.48324 0.453 0.41337 0.0
H234 H 0.60894 0.52316 0.506 0.0
H235 H 0.44357 0.46018 0.46387 0.0
H236 H 0.45218 0.59077 0.54312 0.0
H237 H 0.46255 0.54681 0.49556 0.0
H238 H 0.54206 0.47138 0.54878 0.0
H239 H 0.53252 0.51654 0.59608 0.0
C240 C 0.60278 0.50286 0.45771 0.0
C241 C 0.5685 0.48454 0.43104 0.0
C242 C 0.58034 0.50621 0.48632 0.0
C243 C 0.52309 0.4921 0.48896 0.0
C244 C 0.48788 0.47137 0.46249 0.0
C245 C 0.51035 0.46698 0.43372 0.0
C246 C 0.47008 0.56318 0.54464 0.0
C247 C 0.49147 0.55665 0.57298 0.0
C248 C 0.4758 0.5378 0.51751 0.0
C249 C 0.50353 0.50597 0.51837 0.0
C250 C 0.52095 0.49607 0.54735 0.0
C251 C 0.51527 0.52152 0.57441 0.0
H252 H 0.4543 0.03814 0.95383 0.0
H253 H 0.38592 1.01691 0.04719 0.0
H254 H 0.39576 0.93506 0.94547 0.0
H255 H 0.32845 0.91415 0.03881 0.0
H256 H 0.34292 0.74896 0.02559 0.0
H257 H 0.37855 0.85082 0.02962 0.0
H258 H 0.28342 0.84315 0.94785 0.0
H259 H 0.24592 0.73958 0.94417 0.0
C260 C 0.42579 1.01174 0.97226 0.0
C261 C 0.42525 0.03564 0.0013 0.0
C262 C 0.39216 0.95286 0.96739 0.0
C263 C 0.3581 0.91694 0.9916 0.0
C264 C 0.35458 0.94114 0.01984 0.0
C265 C 0.3874 0.99999 0.02456 0.0
C266 C 0.3294 0.76879 0.00844 0.0
C267 C 0.29187 0.73644 0.98445 0.0
C268 C 0.34942 0.82698 0.01095 0.0
C269 C 0.3333 0.85451 0.9892 0.0
C270 C 0.29612 0.82258 0.96497 0.0
C271 C 0.27479 0.76363 0.96288 0.0
H272 H 0.29094 0.63145 0.62739 0.0
H273 H 0.3093 0.49213 0.66135 0.0
H274 H 0.18735 0.56982 0.62866 0.0
H275 H 0.20599 0.43035 0.66195 0.0
H276 H 1.02567 0.37352 0.70278 0.0
H277 H 0.12814 0.42216 0.69331 0.0
H278 H 0.10551 0.48707 0.60616 0.0
H279 H 1.003 0.43927 0.6159 0.0
C280 C 0.27296 0.5875 0.63468 0.0
C281 C 0.30847 0.56701 0.64462 0.0
C282 C 0.21353 0.55199 0.63523 0.0
C283 C 0.18829 0.49513 0.64558 0.0
C284 C 0.22394 0.47412 0.65434 0.0
C285 C 0.28324 0.50959 0.65388 0.0
C286 C 0.04228 0.39695 0.68122 0.0
C287 C 1.00611 0.4029 0.66026 0.0
C288 C 0.10118 0.42494 0.67577 0.0
C289 C 0.1252 0.45925 0.64916 0.0
C290 C 0.08855 0.46202 0.6272 0.0
C291 C 0.0297 0.43417 0.63268 0.0
H292 H 0.55134 0.83375 0.31905 0.0
H293 H 0.41121 0.66737 0.29419 0.0
H294 H 0.61633 0.79686 0.3181 0.0
H295 H 0.47609 0.63005 0.29395 0.0
H296 H 0.60195 0.57564 0.28091 0.0
H297 H 0.55532 0.62995 0.26922 0.0
H298 H 0.63442 0.73538 0.35007 0.0
H299 H 0.68238 0.68177 0.361 0.0
C300 C 0.53436 0.78926 0.3132 0.0
C301 C 0.47579 0.75334 0.30697 0.0
C302 C 0.57175 0.76811 0.31278 0.0
C303 C 0.55163 0.71043 0.30615 0.0
C304 C 0.49341 0.67496 0.29874 0.0
C305 C 0.45598 0.69621 0.29904 0.0
C306 C 0.61123 0.61209 0.29535 0.0
C307 C 0.64604 0.62492 0.32169 0.0
C308 C 0.58376 0.64258 0.28899 0.0
C309 C 0.58987 0.68615 0.30911 0.0
C310 C 0.62881 0.70225 0.33396 0.0
C311 C 0.65679 0.67191 0.34015 0.0
H312 H 0.05458 0.43279 0.04747 0.0
H313 H 0.03123 0.37607 0.95174 0.0
H314 H 0.95109 0.37658 0.05587 0.0
H315 H 0.92816 0.32104 0.96018 0.0
H316 H 0.76653 0.33942 0.97818 0.0
H317 H 0.86831 0.37404 0.97386 0.0
H318 H 0.85642 0.2658 0.05025 0.0
H319 H 0.75304 0.22942 0.05424 0.0
C320 C 0.02757 0.40716 0.0285 0.0
C321 C 0.05105 0.40923 0.99888 0.0
C322 C 0.96847 0.37496 0.03337 0.0
C323 C 0.93198 0.34508 0.00858 0.0
C324 C 0.95562 0.34396 0.9796 0.0
C325 C 1.01464 0.37527 0.97486 0.0
C326 C 0.78539 0.32294 0.99417 0.0
C327 C 0.75181 0.2818 0.01664 0.0
C328 C 0.84356 0.34242 0.99147 0.0
C329 C 0.86982 0.32208 0.01151 0.0
C330 C 0.83682 0.28176 0.03445 0.0
C331 C 0.77796 0.26112 0.03671 0.0
H332 H 0.69035 0.68479 0.6276 0.0
H333 H 0.60371 0.61716 0.71519 0.0
H334 H 0.74838 0.64048 0.63651 0.0
H335 H 0.66299 0.57453 0.72455 0.0
H336 H 0.81309 0.5295 0.72724 0.0
H337 H 0.78111 0.59963 0.72473 0.0
H338 H 0.68693 0.51906 0.6412 0.0
H339 H 0.71677 0.44843 0.64415 0.0
C340 C 0.68594 0.66311 0.64947 0.0
C341 C 0.64296 0.65451 0.67082 0.0
C342 C 0.71877 0.63751 0.65446 0.0
C343 C 0.70989 0.60423 0.68119 0.0
C344 C 0.67092 0.60051 0.70396 0.0
C345 C 0.63718 0.62491 0.69863 0.0
C346 C 0.78547 0.52693 0.70844 0.0
C347 C 0.76685 0.48324 0.6861 0.0
C348 C 0.76753 0.56702 0.70695 0.0
C349 C 0.73242 0.56496 0.68251 0.0
C350 C 0.7147 0.5219 0.65999 0.0
C351 C 0.73122 0.48115 0.66193 0.0
H352 H 0.48069 0.29829 0.34344 0.0
H353 H 0.61903 0.27305 0.37106 0.0
H354 H 0.41515 0.19573 0.34438 0.0
H355 H 0.55356 0.17014 0.37134 0.0
H356 H 0.42617 0.98909 0.38474 0.0
H357 H 0.47269 0.09088 0.39594 0.0
H358 H 0.39804 0.115 0.313 0.0
H359 H 0.35026 1.01263 0.3025 0.0
C360 C 0.49716 0.27087 0.34988 0.0
C361 C 0.55541 0.294 0.35691 0.0
C362 C 0.45945 0.21194 0.35031 0.0
C363 C 0.4789 0.17445 0.35777 0.0
C364 C 0.53676 0.19768 0.3659 0.0
C365 C 0.57453 0.25676 0.36556 0.0
C366 C 0.41778 1.01594 0.36971 0.0
C367 C 0.3844 0.99311 0.34288 0.0
C368 C 0.44521 0.07439 0.3758 0.0
C369 C 0.4404 0.11147 0.35497 0.0
C370 C 0.40265 0.08777 0.32964 0.0
C371 C 0.37475 0.02898 0.32368 0.0
H372 H 0.51372 0.30908 0.11233 0.0
H373 H 0.69223 0.3699 0.09431 0.0
H374 H 0.53757 0.35545 0.16283 0.0
H375 H 0.7163 0.41713 0.14524 0.0
H376 H 0.59642 0.47164 0.24503 0.0
H377 H 0.58653 0.4482 0.18972 0.0
H378 H 0.69888 0.38022 0.1997 0.0
H379 H 0.70944 0.40415 0.25487 0.0
C380 C 0.55825 0.33312 0.11897 0.0
C381 C 0.60108 0.33548 0.0994 0.0
C382 C 0.57195 0.36013 0.14787 0.0
C383 C 0.6288 0.38989 0.15805 0.0
C384 C 0.67204 0.39411 0.13806 0.0
C385 C 0.65833 0.36741 0.10887 0.0
C386 C 0.6196 0.45233 0.23539 0.0
C387 C 0.65301 0.43895 0.25453 0.0
C388 C 0.61383 0.43884 0.2037 0.0
C389 C 0.64157 0.41198 0.19042 0.0
C390 C 0.67733 0.40132 0.20918 0.0
C391 C 0.68293 0.41459 0.24089 0.0
H392 H 0.61183 0.31488 0.91609 0.0
H393 H 0.60093 0.15079 0.91829 0.0
H394 H 0.63987 0.32545 0.86132 0.0
H395 H 0.6271 0.16047 0.86343 0.0
H396 H 0.75934 0.23766 0.78495 0.0
H397 H 0.71449 0.21763 0.83586 0.0
H398 H 0.61491 0.29327 0.80794 0.0
H399 H 0.66135 0.31497 0.7568 0.0
C400 C 0.61427 0.28056 0.90472 0.0
C401 C 0.60509 0.23242 0.92165 0.0
C402 C 0.63008 0.28648 0.87327 0.0
C403 C 0.63655 0.24416 0.85807 0.0
C404 C 0.6239 0.19451 0.8746 0.0
C405 C 0.60865 0.18884 0.90603 0.0
C406 C 0.72751 0.24964 0.78943 0.0
C407 C 0.71408 0.27806 0.76674 0.0
C408 C 0.70139 0.23772 0.81867 0.0
C409 C 0.66086 0.25362 0.82603 0.0
C410 C 0.64634 0.28092 0.80312 0.0
C411 C 0.67268 0.29301 0.77376 0.0
H412 H 0.74538 0.38343 0.42123 0.0
H413 H 0.7536 0.53105 0.46468 0.0
H414 H 0.76674 0.35579 0.47139 0.0
H415 H 0.77512 0.50352 0.51439 0.0
H416 H 0.8757 0.4753 0.5878 0.0
H417 H 0.85948 0.49582 0.53514 0.0
H418 H 0.71622 0.32448 0.52647 0.0
H419 H 0.73197 0.30343 0.57978 0.0
C420 C 0.75214 0.41015 0.44138 0.0
C421 C 0.74812 0.45961 0.43898 0.0
C422 C 0.76393 0.39406 0.47004 0.0
C423 C 0.77282 0.42771 0.4966 0.0
C424 C 0.76905 0.47719 0.49414 0.0
C425 C 0.75651 0.4928 0.46571 0.0
C426 C 0.84095 0.44159 0.57472 0.0
C427 C 0.80449 0.38792 0.58825 0.0
C428 C 0.83171 0.45353 0.54455 0.0
C429 C 0.78617 0.41202 0.52701 0.0
C430 C 0.75165 0.3572 0.53963 0.0
C431 C 0.76062 0.34525 0.5701 0.0
H432 H 0.37824 0.68449 0.90545 0.0
H433 H 0.32497 0.50925 0.88371 0.0
H434 H 0.42445 0.71387 0.85423 0.0
H435 H 0.37082 0.53851 0.83292 0.0
H436 H 0.41475 0.71332 0.74379 0.0
H437 H 0.38764 0.69762 0.79878 0.0
H438 H 0.4668 0.59512 0.80791 0.0
H439 H 0.49378 0.61041 0.7531 0.0
C440 C 0.37716 0.65244 0.88997 0.0
C441 C 0.34789 0.59455 0.89858 0.0
C442 C 0.40325 0.6692 0.86062 0.0
C443 C 0.40125 0.62849 0.8396 0.0
C444 C 0.37369 0.57097 0.84873 0.0
C445 C 0.3471 0.55417 0.87779 0.0
C446 C 0.4271 0.68811 0.75761 0.0
C447 C 0.4557 0.66244 0.74386 0.0
C448 C 0.41185 0.67941 0.78916 0.0
C449 C 0.42463 0.64468 0.80753 0.0
C450 C 0.4557 0.62143 0.79419 0.0
C451 C 0.47125 0.63037 0.76277 0.0
H452 H 0.49089 0.69623 0.52964 0.0
H453 H 0.43796 0.80186 0.57778 0.0
H454 H 0.45814 0.71395 0.48073 0.0
H455 H 0.4055 0.82004 0.52821 0.0
H456 H 0.43124 0.88584 0.42203 0.0
H457 H 0.45284 0.8697 0.475 0.0
H458 H 0.36068 0.68809 0.45862 0.0
H459 H 0.33886 0.70365 0.40602 0.0
C460 C 0.47236 0.72335 0.52981 0.0
C461 C 0.46694 0.74754 0.55766 0.0
C462 C 0.45328 0.73318 0.50178 0.0
C463 C 0.42886 0.76793 0.50078 0.0
C464 C 0.42419 0.79306 0.52843 0.0
C465 C 0.44261 0.78253 0.55672 0.0
C466 C 0.41479 0.84242 0.4299 0.0
C467 C 0.38406 0.79609 0.40958 0.0
C468 C 0.42701 0.83326 0.46024 0.0
C469 C 0.40908 0.77773 0.47064 0.0
C470 C 0.37573 0.73139 0.45097 0.0
C471 C 0.36312 0.74041 0.42085 0.0
H472 H 0.16265 0.57148 0.08448 0.0
H473 H 0.34049 0.6197 0.07955 0.0
H474 H 0.17624 0.60782 0.13776 0.0
H475 H 0.35412 0.65679 0.13275 0.0
H476 H 0.36178 0.79663 0.20064 0.0
H477 H 0.34704 0.74483 0.15188 0.0
H478 H 0.20719 0.59413 0.19375 0.0
H479 H 0.22232 0.64606 0.24289 0.0
C480 C 0.20435 0.58884 0.09503 0.0
C481 C 0.2506 0.5931 0.07788 0.0
C482 C 0.21202 0.60942 0.1255 0.0
C483 C 0.2663 0.63548 0.13912 0.0
C484 C 0.31194 0.63718 0.12258 0.0
C485 C 0.30403 0.61563 0.09228 0.0
C486 C 0.32762 0.75267 0.19938 0.0
C487 C 0.29272 0.72562 0.22537 0.0
C488 C 0.31974 0.7228 0.17165 0.0
C489 C 0.27626 0.66547 0.16923 0.0
C490 C 0.24105 0.63832 0.19513 0.0
C491 C 0.24967 0.66798 0.22313 0.0
loop_
_geom_bond_atom_site_label_1
_geom_bond_atom_site_label_2
_geom_bond_distance
_geom_bond_site_symmetry_2
_ccdc_geom_bond_type
Fe0 O2 1.918 . S
Fe0 O5 1.997 . S
Fe0 O6 2.002 . S
Fe0 O11 1.976 . S
Fe0 O14 1.996 . S
Fe1 O2 1.918 . S
Fe1 O9 1.997 . S
Fe1 O12 2.003 . S
Fe1 O16 1.976 1_554 S
Fe1 O19 2.002 . S
O2 Fe0 1.918 . S
O2 Fe1 1.918 . S
O2 Fe3 1.918 . S
Fe3 O2 1.918 . S
Fe3 O4 2.002 . S
Fe3 O13 1.976 . S
Fe3 O17 1.996 1_554 S
Fe3 O20 1.997 . S
O4 Fe3 2.002 . S
O4 C21 1.295 . S
O5 Fe0 1.997 . S
O5 C21 1.235 . S
O6 Fe0 2.002 . S
O6 C7 1.295 . S
C7 O6 1.295 . S
C7 O9 1.235 . S
C8 O13 1.287 . S
C8 O14 1.255 . S
O9 Fe1 1.997 . S
O9 C7 1.235 . S
C10 O16 1.287 . S
C10 O17 1.255 . S
O11 Fe0 1.976 . S
O11 C18 1.287 . S
O12 Fe1 2.003 . S
O12 C18 1.262 . S
O13 Fe3 1.976 . S
O13 C8 1.287 . S
O14 Fe0 1.996 . S
O14 C8 1.255 . S
C15 O19 1.295 . S
C15 O20 1.235 . S
O16 Fe1 1.976 1_556 S
O16 C10 1.287 . S
O17 Fe3 1.996 1_556 S
O17 C10 1.255 . S
C18 O11 1.287 . S
C18 O12 1.262 . S
O19 Fe1 2.002 . S
O19 C15 1.295 . S
O20 Fe3 1.997 . S
O20 C15 1.235 . S
C21 O4 1.295 . S
C21 O5 1.235 . S
Fe22 O24 1.918 . S
Fe22 O27 1.997 . S
Fe22 O28 2.002 . S
Fe22 O33 1.976 . S
Fe22 O36 1.996 . S
Fe23 O24 1.918 . S
Fe23 O31 1.997 . S
Fe23 O34 1.996 . S
Fe23 O38 1.976 . S
Fe23 O41 2.002 . S
O24 Fe22 1.918 . S
O24 Fe23 1.918 . S
O24 Fe25 1.918 . S
Fe25 O24 1.918 . S
Fe25 O26 2.002 . S
Fe25 O35 1.976 . S
Fe25 O39 1.996 . S
Fe25 O42 1.997 . S
O26 Fe25 2.002 . S
O26 C43 1.295 . S
O27 Fe22 1.997 . S
O27 C43 1.235 . S
O28 Fe22 2.002 . S
O28 C29 1.295 . S
C29 O28 1.295 . S
C29 O31 1.235 . S
C30 O35 1.287 . S
C30 O36 1.255 . S
O31 Fe23 1.997 . S
O31 C29 1.235 . S
C32 O38 1.287 . S
C32 O39 1.255 . S
O33 Fe22 1.976 . S
O33 C40 1.287 . S
O34 Fe23 1.996 . S
O34 C40 1.255 . S
O35 Fe25 1.976 . S
O35 C30 1.287 . S
O36 Fe22 1.996 . S
O36 C30 1.255 . S
C37 O41 1.295 . S
C37 O42 1.235 . S
O38 Fe23 1.976 . S
O38 C32 1.287 . S
O39 Fe25 1.996 . S
O39 C32 1.255 . S
C40 O33 1.287 . S
C40 O34 1.255 . S
O41 Fe23 2.002 . S
O41 C37 1.295 . S
O42 Fe25 1.997 . S
O42 C37 1.235 . S
C43 O26 1.295 . S
C43 O27 1.235 . S
Fe44 O46 1.918 . S
Fe44 O49 1.997 . S
Fe44 O50 2.002 . S
Fe44 O55 1.976 . S
Fe44 O58 1.996 . S
Fe45 O46 1.918 . S
Fe45 O53 1.997 . S
Fe45 O56 1.996 . S
Fe45 O60 1.976 . S
Fe45 O63 2.002 . S
O46 Fe44 1.918 . S
O46 Fe45 1.918 . S
O46 Fe47 1.918 . S
Fe47 O46 1.918 . S
Fe47 O48 2.002 . S
Fe47 O57 1.976 . S
Fe47 O61 1.996 . S
Fe47 O64 1.997 . S
O48 Fe47 2.002 . S
O48 C65 1.295 . S
O49 Fe44 1.997 . S
O49 C65 1.235 . S
O50 Fe44 2.002 . S
O50 C51 1.295 . S
C51 O50 1.295 . S
C51 O53 1.235 . S
C52 O57 1.287 . S
C52 O58 1.255 . S
O53 Fe45 1.997 . S
O53 C51 1.235 . S
C54 O60 1.287 . S
C54 O61 1.255 . S
O55 Fe44 1.976 . S
O55 C62 1.287 . S
O56 Fe45 1.996 . S
O56 C62 1.255 . S
O57 Fe47 1.976 . S
O57 C52 1.287 . S
O58 Fe44 1.996 . S
O58 C52 1.255 . S
C59 O63 1.295 . S
C59 O64 1.235 . S
O60 Fe45 1.976 . S
O60 C54 1.287 . S
O61 Fe47 1.996 . S
O61 C54 1.255 . S
C62 O55 1.287 . S
C62 O56 1.255 . S
O63 Fe45 2.002 . S
O63 C59 1.295 . S
O64 Fe47 1.997 . S
O64 C59 1.235 . S
C65 O48 1.295 . S
C65 O49 1.235 . S
Fe66 O68 1.918 . S
Fe66 O71 1.997 . S
Fe66 O72 2.002 . S
Fe66 O77 1.976 . S
Fe66 O80 1.996 1_556 S
Fe67 O68 1.918 . S
Fe67 O75 1.997 . S
Fe67 O78 1.996 . S
Fe67 O82 1.976 . S
Fe67 O85 2.002 . S
O68 Fe66 1.918 . S
O68 Fe67 1.918 . S
O68 Fe69 1.918 . S
Fe69 O68 1.918 . S
Fe69 O70 2.002 . S
Fe69 O79 1.976 1_556 S
Fe69 O83 2.003 . S
Fe69 O86 1.997 . S
O70 Fe69 2.002 . S
O70 C87 1.295 . S
O71 Fe66 1.997 . S
O71 C87 1.235 . S
O72 Fe66 2.002 . S
O72 C73 1.295 . S
C73 O72 1.295 . S
C73 O75 1.235 . S
C74 O79 1.287 . S
C74 O80 1.255 . S
O75 Fe67 1.997 . S
O75 C73 1.235 . S
C76 O82 1.287 . S
C76 O83 1.262 . S
O77 Fe66 1.976 . S
O77 C84 1.287 . S
O78 Fe67 1.996 . S
O78 C84 1.255 . S
O79 Fe69 1.976 1_554 S
O79 C74 1.287 . S
O80 Fe66 1.996 1_554 S
O80 C74 1.255 . S
C81 O85 1.295 . S
C81 O86 1.235 . S
O82 Fe67 1.976 . S
O82 C76 1.287 . S
O83 Fe69 2.003 . S
O83 C76 1.262 . S
C84 O77 1.287 . S
C84 O78 1.255 . S
O85 Fe67 2.002 . S
O85 C81 1.295 . S
O86 Fe69 1.997 . S
O86 C81 1.235 . S
C87 O70 1.295 . S
C87 O71 1.235 . S
Fe88 O90 1.918 . S
Fe88 O93 1.997 . S
Fe88 O94 2.002 . S
Fe88 O99 1.976 . S
Fe88 O102 1.996 . S
Fe89 O90 1.918 . S
Fe89 O97 1.997 . S
Fe89 O100 1.996 . S
Fe89 O104 1.976 . S
Fe89 O107 2.002 . S
O90 Fe88 1.918 . S
O90 Fe89 1.918 . S
O90 Fe91 1.918 . S
Fe91 O90 1.918 . S
Fe91 O92 2.002 . S
Fe91 O101 1.976 . S
Fe91 O105 1.996 . S
Fe91 O108 1.997 . S
O92 Fe91 2.002 . S
O92 C109 1.295 . S
O93 Fe88 1.997 . S
O93 C109 1.235 . S
O94 Fe88 2.002 . S
O94 C95 1.295 . S
C95 O94 1.295 . S
C95 O97 1.235 . S
C96 O101 1.287 . S
C96 O102 1.255 . S
O97 Fe89 1.997 . S
O97 C95 1.235 . S
C98 O104 1.287 . S
C98 O105 1.255 . S
O99 Fe88 1.976 . S
O99 C106 1.287 . S
O100 Fe89 1.996 . S
O100 C106 1.255 . S
O101 Fe91 1.976 . S
O101 C96 1.287 . S
O102 Fe88 1.996 . S
O102 C96 1.255 . S
C103 O107 1.295 . S
C103 O108 1.235 . S
O104 Fe89 1.976 . S
O104 C98 1.287 . S
O105 Fe91 1.996 . S
O105 C98 1.255 . S
C106 O99 1.287 . S
C106 O100 1.255 . S
O107 Fe89 2.002 . S
O107 C103 1.295 . S
O108 Fe91 1.997 . S
O108 C103 1.235 . S
C109 O92 1.295 . S
C109 O93 1.235 . S
Fe110 O112 1.918 . S
Fe110 O115 1.997 . S
Fe110 O116 2.002 . S
Fe110 O121 1.976 . S
Fe110 O124 1.996 . S
Fe111 O112 1.918 . S
Fe111 O119 1.997 . S
Fe111 O122 1.996 . S
Fe111 O126 1.976 . S
Fe111 O129 2.002 . S
O112 Fe110 1.918 . S
O112 Fe111 1.918 . S
O112 Fe113 1.918 . S
Fe113 O112 1.918 . S
Fe113 O114 2.002 . S
Fe113 O123 1.976 . S
Fe113 O127 1.996 . S
Fe113 O130 1.997 . S
O114 Fe113 2.002 . S
O114 C131 1.295 . S
O115 Fe110 1.997 . S
O115 C131 1.235 . S
O116 Fe110 2.002 . S
O116 C117 1.295 . S
C117 O116 1.295 . S
C117 O119 1.235 . S
C118 O123 1.287 . S
C118 O124 1.255 . S
O119 Fe111 1.997 . S
O119 C117 1.235 . S
C120 O126 1.287 . S
C120 O127 1.255 . S
O121 Fe110 1.976 . S
O121 C128 1.287 . S
O122 Fe111 1.996 . S
O122 C128 1.255 . S
O123 Fe113 1.976 . S
O123 C118 1.287 . S
O124 Fe110 1.996 . S
O124 C118 1.255 . S
C125 O129 1.295 . S
C125 O130 1.235 . S
O126 Fe111 1.976 . S
O126 C120 1.287 . S
O127 Fe113 1.996 . S
O127 C120 1.255 . S
C128 O121 1.287 . S
C128 O122 1.255 . S
O129 Fe111 2.002 . S
O129 C125 1.295 . S
O130 Fe113 1.997 . S
O130 C125 1.235 . S
C131 O114 1.295 . S
C131 O115 1.235 . S
H132 C140 0.950 . S
H133 C145 0.950 . S
H134 C142 0.950 . S
H135 C144 0.950 . S
H136 C146 0.950 . S
H137 C148 0.950 . S
H138 C150 0.950 . S
H139 C151 0.950 . S
C140 H132 0.950 . S
C140 C141 1.386 . S
C140 C142 1.391 . S
C141 C140 1.386 . S
C141 C145 1.393 1_556 S
C142 H134 0.950 . S
C142 C140 1.391 . S
C142 C143 1.400 . S
C143 C142 1.400 . S
C143 C144 1.398 1_556 S
C143 C149 1.491 1_556 S
C144 H135 0.950 . S
C144 C143 1.398 1_554 S
C144 C145 1.391 . S
C145 H133 0.950 . S
C145 C141 1.393 1_554 S
C145 C144 1.391 . S
C146 H136 0.950 . S
C146 C147 1.386 . S
C146 C148 1.391 . S
C147 C146 1.386 . S
C147 C151 1.393 1_554 S
C148 H137 0.950 . S
C148 C146 1.391 . S
C148 C149 1.400 . S
C149 C143 1.491 1_554 S
C149 C148 1.400 . S
C149 C150 1.398 1_554 S
C150 H138 0.950 . S
C150 C149 1.398 1_556 S
C150 C151 1.391 . S
C151 H139 0.950 . S
C151 C147 1.393 1_556 S
C151 C150 1.391 . S
H152 C160 0.950 . S
H153 C165 0.950 . S
H154 C162 0.950 . S
H155 C164 0.950 . S
H156 C166 0.950 . S
H157 C168 0.950 . S
H158 C170 0.950 . S
H159 C171 0.950 . S
C160 H152 0.950 . S
C160 C161 1.386 . S
C160 C162 1.391 . S
C161 C160 1.386 . S
C161 C165 1.393 . S
C162 H154 0.950 . S
C162 C160 1.391 . S
C162 C163 1.400 . S
C163 C162 1.400 . S
C163 C164 1.398 . S
C163 C169 1.491 1_545 S
C164 H155 0.950 . S
C164 C163 1.398 . S
C164 C165 1.391 . S
C165 H153 0.950 . S
C165 C161 1.393 . S
C165 C164 1.391 . S
C166 H156 0.950 . S
C166 C167 1.386 . S
C166 C168 1.391 . S
C167 C166 1.386 . S
C167 C171 1.393 . S
C168 H157 0.950 . S
C168 C166 1.391 . S
C168 C169 1.400 . S
C169 C163 1.491 1_565 S
C169 C168 1.400 . S
C169 C170 1.398 . S
C170 H158 0.950 . S
C170 C169 1.398 . S
C170 C171 1.391 . S
C171 H159 0.950 . S
C171 C167 1.393 . S
C171 C170 1.391 . S
H172 C180 0.950 . S
H173 C185 0.950 . S
H174 C182 0.950 . S
H175 C184 0.950 . S
H176 C186 0.950 . S
H177 C188 0.950 . S
H178 C190 0.950 . S
H179 C191 0.950 . S
C180 H172 0.950 . S
C180 C181 1.386 . S
C180 C182 1.391 . S
C181 C180 1.386 . S
C181 C185 1.393 . S
C182 H174 0.950 . S
C182 C180 1.391 . S
C182 C183 1.400 . S
C183 C182 1.400 . S
C183 C184 1.398 . S
C183 C189 1.491 1_455 S
C184 H175 0.950 . S
C184 C183 1.398 . S
C184 C185 1.391 . S
C185 H173 0.950 . S
C185 C181 1.393 . S
C185 C184 1.391 . S
C186 H176 0.950 . S
C186 C187 1.386 . S
C186 C188 1.391 . S
C187 C186 1.386 . S
C187 C191 1.393 . S
C188 H177 0.950 . S
C188 C186 1.391 . S
C188 C189 1.400 . S
C189 C183 1.491 1_655 S
C189 C188 1.400 . S
C189 C190 1.398 . S
C190 H178 0.950 . S
C190 C189 1.398 . S
C190 C191 1.391 . S
C191 H179 0.950 . S
C191 C187 1.393 . S
C191 C190 1.391 . S
H192 C200 0.950 . S
H193 C205 0.950 . S
H194 C202 0.950 . S
H195 C204 0.950 1_545 S
H196 C206 0.950 . S
H197 C208 0.950 . S
H198 C210 0.950 1_565 S
H199 C211 0.950 . S
C200 H192 0.950 . S
C200 C201 1.386 . S
C200 C202 1.391 . S
C201 C200 1.386 . S
C201 C205 1.393 . S
C202 H194 0.950 . S
C202 C200 1.391 . S
C202 C203 1.400 . S
C203 C202 1.400 . S
C203 C204 1.398 . S
C203 C209 1.491 1_565 S
C204 H195 0.950 1_565 S
C204 C203 1.398 . S
C204 C205 1.391 . S
C205 H193 0.950 . S
C205 C201 1.393 . S
C205 C204 1.391 . S
C206 H196 0.950 . S
C206 C207 1.386 . S
C206 C208 1.391 . S
C207 C206 1.386 . S
C207 C211 1.393 . S
C208 H197 0.950 . S
C208 C206 1.391 . S
C208 C209 1.400 . S
C209 C203 1.491 1_545 S
C209 C208 1.400 . S
C209 C210 1.398 . S
C210 H198 0.950 1_545 S
C210 C209 1.398 . S
C210 C211 1.391 . S
C211 H199 0.950 . S
C211 C207 1.393 . S
C211 C210 1.391 . S
H212 C220 0.950 . S
H213 C225 0.950 . S
H214 C222 0.950 . S
H215 C224 0.950 . S
H216 C226 0.950 . S
H217 C228 0.950 . S
H218 C230 0.950 . S
H219 C231 0.950 . S
C220 H212 0.950 . S
C220 C221 1.386 . S
C220 C222 1.391 1_655 S
C221 C220 1.386 . S
C221 C225 1.393 . S
C222 H214 0.950 . S
C222 C220 1.391 1_455 S
C222 C223 1.400 1_455 S
C223 C222 1.400 1_655 S
C223 C224 1.398 . S
C223 C229 1.491 1_655 S
C224 H215 0.950 . S
C224 C223 1.398 . S
C224 C225 1.391 . S
C225 H213 0.950 . S
C225 C221 1.393 . S
C225 C224 1.391 . S
C226 H216 0.950 . S
C226 C227 1.386 . S
C226 C228 1.391 1_455 S
C227 C226 1.386 . S
C227 C231 1.393 . S
C228 H217 0.950 . S
C228 C226 1.391 1_655 S
C228 C229 1.400 1_655 S
C229 C223 1.491 1_455 S
C229 C228 1.400 1_455 S
C229 C230 1.398 . S
C230 H218 0.950 . S
C230 C229 1.398 . S
C230 C231 1.391 . S
C231 H219 0.950 . S
C231 C227 1.393 . S
C231 C230 1.391 . S
H232 C240 0.950 . S
H233 C245 0.950 . S
H234 C242 0.950 . S
H235 C244 0.950 . S
H236 C246 0.950 . S
H237 C248 0.950 . S
H238 C250 0.950 . S
H239 C251 0.950 . S
C240 H232 0.950 . S
C240 C241 1.386 . S
C240 C242 1.391 . S
C241 C240 1.386 . S
C241 C245 1.393 . S
C242 H234 0.950 . S
C242 C240 1.391 . S
C242 C243 1.400 . S
C243 C242 1.400 . S
C243 C244 1.398 . S
C243 C249 1.491 . S
C244 H235 0.950 . S
C244 C243 1.398 . S
C244 C245 1.391 . S
C245 H233 0.950 . S
C245 C241 1.393 . S
C245 C244 1.391 . S
C246 H236 0.950 . S
C246 C247 1.386 . S
C246 C248 1.391 . S
C247 C246 1.386 . S
C247 C251 1.393 . S
C248 H237 0.950 . S
C248 C246 1.391 . S
C248 C249 1.400 . S
C249 C243 1.491 . S
C249 C248 1.400 . S
C249 C250 1.398 . S
C250 H238 0.950 . S
C250 C249 1.398 . S
C250 C251 1.391 . S
C251 H239 0.950 . S
C251 C247 1.393 . S
C251 C250 1.391 . S
H252 C260 0.950 . S
H253 C265 0.950 1_545 S
H254 C262 0.950 . S
H255 C264 0.950 . S
H256 C266 0.950 . S
H257 C268 0.950 . S
H258 C270 0.950 1_554 S
H259 C271 0.950 . S
C260 H252 0.950 . S
C260 C261 1.383 1_564 S
C260 C262 1.391 . S
C261 C260 1.383 1_546 S
C261 C265 1.397 1_545 S
C262 H254 0.950 . S
C262 C260 1.391 . S
C262 C263 1.400 1_554 S
C263 C262 1.400 1_556 S
C263 C264 1.398 . S
C263 C269 1.491 . S
C264 H255 0.950 . S
C264 C263 1.398 . S
C264 C265 1.391 . S
C265 H253 0.950 1_565 S
C265 C261 1.397 1_565 S
C265 C264 1.391 . S
C266 H256 0.950 . S
C266 C267 1.386 . S
C266 C268 1.391 . S
C267 C266 1.386 . S
C267 C271 1.393 . S
C268 H257 0.950 . S
C268 C266 1.391 . S
C268 C269 1.400 . S
C269 C263 1.491 . S
C269 C268 1.400 . S
C269 C270 1.398 . S
C270 H258 0.950 1_556 S
C270 C269 1.398 . S
C270 C271 1.391 . S
C271 H259 0.950 . S
C271 C267 1.393 . S
C271 C270 1.391 . S
H272 C280 0.950 . S
H273 C285 0.950 . S
H274 C282 0.950 . S
H275 C284 0.950 . S
H276 C286 0.950 . S
H277 C288 0.950 . S
H278 C290 0.950 . S
H279 C291 0.950 1_655 S
C280 H272 0.950 . S
C280 C281 1.386 . S
C280 C282 1.391 . S
C281 C280 1.386 . S
C281 C285 1.393 . S
C282 H274 0.950 . S
C282 C280 1.391 . S
C282 C283 1.400 . S
C283 C282 1.400 . S
C283 C284 1.398 . S
C283 C289 1.491 . S
C284 H275 0.950 . S
C284 C283 1.398 . S
C284 C285 1.391 . S
C285 H273 0.950 . S
C285 C281 1.393 . S
C285 C284 1.391 . S
C286 H276 0.950 . S
C286 C287 1.386 1_455 S
C286 C288 1.391 . S
C287 C286 1.386 1_655 S
C287 C291 1.393 1_655 S
C288 H277 0.950 . S
C288 C286 1.391 . S
C288 C289 1.400 . S
C289 C283 1.491 . S
C289 C288 1.400 . S
C289 C290 1.398 . S
C290 H278 0.950 . S
C290 C289 1.398 . S
C290 C291 1.391 . S
C291 H279 0.950 1_455 S
C291 C287 1.393 1_455 S
C291 C290 1.391 . S
H292 C300 0.950 . S
H293 C305 0.950 . S
H294 C302 0.950 . S
H295 C304 0.950 . S
H296 C306 0.950 . S
H297 C308 0.950 . S
H298 C310 0.950 . S
H299 C311 0.950 . S
C300 H292 0.950 . S
C300 C301 1.386 . S
C300 C302 1.391 . S
C301 C300 1.386 . S
C301 C305 1.393 . S
C302 H294 0.950 . S
C302 C300 1.391 . S
C302 C303 1.400 . S
C303 C302 1.400 . S
C303 C304 1.398 . S
C303 C309 1.491 . S
C304 H295 0.950 . S
C304 C303 1.398 . S
C304 C305 1.391 . S
C305 H293 0.950 . S
C305 C301 1.393 . S
C305 C304 1.391 . S
C306 H296 0.950 . S
C306 C307 1.386 . S
C306 C308 1.391 . S
C307 C306 1.386 . S
C307 C311 1.393 . S
C308 H297 0.950 . S
C308 C306 1.391 . S
C308 C309 1.400 . S
C309 C303 1.491 . S
C309 C308 1.400 . S
C309 C310 1.398 . S
C310 H298 0.950 . S
C310 C309 1.398 . S
C310 C311 1.391 . S
C311 H299 0.950 . S
C311 C307 1.393 . S
C311 C310 1.391 . S
H312 C320 0.950 1_455 S
H313 C325 0.950 . S
H314 C322 0.950 . S
H315 C324 0.950 . S
H316 C326 0.950 1_556 S
H317 C328 0.950 . S
H318 C330 0.950 . S
H319 C331 0.950 . S
C320 H312 0.950 1_655 S
C320 C321 1.418 1_655 S
C320 C322 1.391 . S
C321 C320 1.418 1_455 S
C321 C325 1.367 1_454 S
C322 H314 0.950 . S
C322 C320 1.391 . S
C322 C323 1.400 . S
C323 C322 1.400 . S
C323 C324 1.398 1_554 S
C323 C329 1.491 . S
C324 H315 0.950 . S
C324 C323 1.398 1_556 S
C324 C325 1.391 . S
C325 H313 0.950 . S
C325 C321 1.367 1_656 S
C325 C324 1.391 . S
C326 H316 0.950 1_554 S
C326 C327 1.386 . S
C326 C328 1.391 1_554 S
C327 C326 1.386 . S
C327 C331 1.393 . S
C328 H317 0.950 . S
C328 C326 1.391 1_556 S
C328 C329 1.400 1_556 S
C329 C323 1.491 . S
C329 C328 1.400 1_554 S
C329 C330 1.398 . S
C330 H318 0.950 . S
C330 C329 1.398 . S
C330 C331 1.391 . S
C331 H319 0.950 . S
C331 C327 1.393 . S
C331 C330 1.391 . S
H332 C340 0.950 . S
H333 C345 0.950 . S
H334 C342 0.950 . S
H335 C344 0.950 . S
H336 C346 0.950 . S
H337 C348 0.950 . S
H338 C350 0.950 . S
H339 C351 0.950 . S
C340 H332 0.950 . S
C340 C341 1.386 . S
C340 C342 1.391 . S
C341 C340 1.386 . S
C341 C345 1.393 . S
C342 H334 0.950 . S
C342 C340 1.391 . S
C342 C343 1.400 . S
C343 C342 1.400 . S
C343 C344 1.398 . S
C343 C349 1.491 . S
C344 H335 0.950 . S
C344 C343 1.398 . S
C344 C345 1.391 . S
C345 H333 0.950 . S
C345 C341 1.393 . S
C345 C344 1.391 . S
C346 H336 0.950 . S
C346 C347 1.386 . S
C346 C348 1.391 . S
C347 C346 1.386 . S
C347 C351 1.393 . S
C348 H337 0.950 . S
C348 C346 1.391 . S
C348 C349 1.400 . S
C349 C343 1.491 . S
C349 C348 1.400 . S
C349 C350 1.398 . S
C350 H338 0.950 . S
C350 C349 1.398 . S
C350 C351 1.391 . S
C351 H339 0.950 . S
C351 C347 1.393 . S
C351 C350 1.391 . S
H352 C360 0.950 . S
H353 C365 0.950 . S
H354 C362 0.950 . S
H355 C364 0.950 . S
H356 C366 0.950 1_565 S
H357 C368 0.950 . S
H358 C370 0.950 . S
H359 C371 0.950 . S
C360 H352 0.950 . S
C360 C361 1.386 . S
C360 C362 1.391 . S
C361 C360 1.386 . S
C361 C365 1.393 . S
C362 H354 0.950 . S
C362 C360 1.391 . S
C362 C363 1.400 . S
C363 C362 1.400 . S
C363 C364 1.398 . S
C363 C369 1.491 . S
C364 H355 0.950 . S
C364 C363 1.398 . S
C364 C365 1.391 . S
C365 H353 0.950 . S
C365 C361 1.393 . S
C365 C364 1.391 . S
C366 H356 0.950 1_545 S
C366 C367 1.386 1_545 S
C366 C368 1.391 . S
C367 C366 1.386 1_565 S
C367 C371 1.393 1_565 S
C368 H357 0.950 . S
C368 C366 1.391 . S
C368 C369 1.400 . S
C369 C363 1.491 . S
C369 C368 1.400 . S
C369 C370 1.398 . S
C370 H358 0.950 . S
C370 C369 1.398 . S
C370 C371 1.391 . S
C371 H359 0.950 . S
C371 C367 1.393 1_545 S
C371 C370 1.391 . S
H372 C380 0.950 . S
H373 C385 0.950 . S
H374 C382 0.950 . S
H375 C384 0.950 . S
H376 C386 0.950 . S
H377 C388 0.950 . S
H378 C390 0.950 . S
H379 C391 0.950 . S
C380 H372 0.950 . S
C380 C381 1.386 . S
C380 C382 1.391 . S
C381 C380 1.386 . S
C381 C385 1.393 . S
C382 H374 0.950 . S
C382 C380 1.391 . S
C382 C383 1.400 . S
C383 C382 1.400 . S
C383 C384 1.398 . S
C383 C389 1.491 . S
C384 H375 0.950 . S
C384 C383 1.398 . S
C384 C385 1.391 . S
C385 H373 0.950 . S
C385 C381 1.393 . S
C385 C384 1.391 . S
C386 H376 0.950 . S
C386 C387 1.386 . S
C386 C388 1.391 . S
C387 C386 1.386 . S
C387 C391 1.393 . S
C388 H377 0.950 . S
C388 C386 1.391 . S
C388 C389 1.400 . S
C389 C383 1.491 . S
C389 C388 1.400 . S
C389 C390 1.398 . S
C390 H378 0.950 . S
C390 C389 1.398 . S
C390 C391 1.391 . S
C391 H379 0.950 . S
C391 C387 1.393 . S
C391 C390 1.391 . S
H392 C400 0.950 . S
H393 C405 0.950 . S
H394 C402 0.950 . S
H395 C404 0.950 . S
H396 C406 0.950 . S
H397 C408 0.950 . S
H398 C410 0.950 . S
H399 C411 0.950 . S
C400 H392 0.950 . S
C400 C401 1.386 . S
C400 C402 1.391 . S
C401 C400 1.386 . S
C401 C405 1.393 . S
C402 H394 0.950 . S
C402 C400 1.391 . S
C402 C403 1.400 . S
C403 C402 1.400 . S
C403 C404 1.398 . S
C403 C409 1.491 . S
C404 H395 0.950 . S
C404 C403 1.398 . S
C404 C405 1.391 . S
C405 H393 0.950 . S
C405 C401 1.393 . S
C405 C404 1.391 . S
C406 H396 0.950 . S
C406 C407 1.386 . S
C406 C408 1.391 . S
C407 C406 1.386 . S
C407 C411 1.393 . S
C408 H397 0.950 . S
C408 C406 1.391 . S
C408 C409 1.400 . S
C409 C403 1.491 . S
C409 C408 1.400 . S
C409 C410 1.398 . S
C410 H398 0.950 . S
C410 C409 1.398 . S
C410 C411 1.391 . S
C411 H399 0.950 . S
C411 C407 1.393 . S
C411 C410 1.391 . S
H412 C420 0.950 . S
H413 C425 0.950 . S
H414 C422 0.950 . S
H415 C424 0.950 . S
H416 C426 0.950 . S
H417 C428 0.950 . S
H418 C430 0.950 . S
H419 C431 0.950 . S
C420 H412 0.950 . S
C420 C421 1.386 . S
C420 C422 1.391 . S
C421 C420 1.386 . S
C421 C425 1.393 . S
C422 H414 0.950 . S
C422 C420 1.391 . S
C422 C423 1.400 . S
C423 C422 1.400 . S
C423 C424 1.398 . S
C423 C429 1.491 . S
C424 H415 0.950 . S
C424 C423 1.398 . S
C424 C425 1.391 . S
C425 H413 0.950 . S
C425 C421 1.393 . S
C425 C424 1.391 . S
C426 H416 0.950 . S
C426 C427 1.386 . S
C426 C428 1.391 . S
C427 C426 1.386 . S
C427 C431 1.393 . S
C428 H417 0.950 . S
C428 C426 1.391 . S
C428 C429 1.400 . S
C429 C423 1.491 . S
C429 C428 1.400 . S
C429 C430 1.398 . S
C430 H418 0.950 . S
C430 C429 1.398 . S
C430 C431 1.391 . S
C431 H419 0.950 . S
C431 C427 1.393 . S
C431 C430 1.391 . S
H432 C440 0.950 . S
H433 C445 0.950 . S
H434 C442 0.950 . S
H435 C444 0.950 . S
H436 C446 0.950 . S
H437 C448 0.950 . S
H438 C450 0.950 . S
H439 C451 0.950 . S
C440 H432 0.950 . S
C440 C441 1.386 . S
C440 C442 1.391 . S
C441 C440 1.386 . S
C441 C445 1.393 . S
C442 H434 0.950 . S
C442 C440 1.391 . S
C442 C443 1.400 . S
C443 C442 1.400 . S
C443 C444 1.398 . S
C443 C449 1.491 . S
C444 H435 0.950 . S
C444 C443 1.398 . S
C444 C445 1.391 . S
C445 H433 0.950 . S
C445 C441 1.393 . S
C445 C444 1.391 . S
C446 H436 0.950 . S
C446 C447 1.386 . S
C446 C448 1.391 . S
C447 C446 1.386 . S
C447 C451 1.393 . S
C448 H437 0.950 . S
C448 C446 1.391 . S
C448 C449 1.400 . S
C449 C443 1.491 . S
C449 C448 1.400 . S
C449 C450 1.398 . S
C450 H438 0.950 . S
C450 C449 1.398 . S
C450 C451 1.391 . S
C451 H439 0.950 . S
C451 C447 1.393 . S
C451 C450 1.391 . S
H452 C460 0.950 . S
H453 C465 0.950 . S
H454 C462 0.950 . S
H455 C464 0.950 . S
H456 C466 0.950 . S
H457 C468 0.950 . S
H458 C470 0.950 . S
H459 C471 0.950 . S
C460 H452 0.950 . S
C460 C461 1.386 . S
C460 C462 1.391 . S
C461 C460 1.386 . S
C461 C465 1.393 . S
C462 H454 0.950 . S
C462 C460 1.391 . S
C462 C463 1.400 . S
C463 C462 1.400 . S
C463 C464 1.398 . S
C463 C469 1.491 . S
C464 H455 0.950 . S
C464 C463 1.398 . S
C464 C465 1.391 . S
C465 H453 0.950 . S
C465 C461 1.393 . S
C465 C464 1.391 . S
C466 H456 0.950 . S
C466 C467 1.386 . S
C466 C468 1.391 . S
C467 C466 1.386 . S
C467 C471 1.393 . S
C468 H457 0.950 . S
C468 C466 1.391 . S
C468 C469 1.400 . S
C469 C463 1.491 . S
C469 C468 1.400 . S
C469 C470 1.398 . S
C470 H458 0.950 . S
C470 C469 1.398 . S
C470 C471 1.391 . S
C471 H459 0.950 . S
C471 C467 1.393 . S
C471 C470 1.391 . S
H472 C480 0.950 . S
H473 C485 0.950 . S
H474 C482 0.950 . S
H475 C484 0.950 . S
H476 C486 0.950 . S
H477 C488 0.950 . S
H478 C490 0.950 . S
H479 C491 0.950 . S
C480 H472 0.950 . S
C480 C481 1.386 . S
C480 C482 1.391 . S
C481 C480 1.386 . S
C481 C485 1.393 . S
C482 H474 0.950 . S
C482 C480 1.391 . S
C482 C483 1.400 . S
C483 C482 1.400 . S
C483 C484 1.398 . S
C483 C489 1.491 . S
C484 H475 0.950 . S
C484 C483 1.398 . S
C484 C485 1.391 . S
C485 H473 0.950 . S
C485 C481 1.393 . S
C485 C484 1.391 . S
C486 H476 0.950 . S
C486 C487 1.386 . S
C486 C488 1.391 . S
C487 C486 1.386 . S
C487 C491 1.393 . S
C488 H477 0.950 . S
C488 C486 1.391 . S
C488 C489 1.400 . S
C489 C483 1.491 . S
C489 C488 1.400 . S
C489 C490 1.398 . S
C490 H478 0.950 . S
C490 C489 1.398 . S
C490 C491 1.391 . S
C491 H479 0.950 . S
C491 C487 1.393 . S
C491 C490 1.391 . S
C141 C84 1.812 . S
C147 C8 1.816 . S
C161 C32 1.811 . S
C167 C106 1.816 . S
C181 C128 1.816 . S
C187 C52 1.812 . S
C201 C125 0.860 . S
C207 C7 0.867 . S
C221 C43 0.883 . S
C227 C81 0.845 . S
C241 C51 0.850 . S
C247 C103 0.877 . S
C261 C18 1.388 1_556 S
C267 C87 1.396 . S
C281 C109 1.395 . S
C287 C30 1.373 . S
C301 C131 1.379 . S
C307 C62 1.398 . S
C321 C76 1.364 1_554 S
C327 C15 1.392 . S
C341 C98 1.383 . S
C347 C29 1.400 . S
C361 C59 1.377 . S
C367 C120 1.395 . S
C381 C21 1.285 . S
C387 C54 1.277 . S
C401 C10 1.274 . S
C407 C37 1.288 . S
C421 C65 1.289 . S
C427 C40 1.273 . S
C441 C73 1.286 . S
C447 C96 1.285 . S
C461 C95 1.284 . S
C467 C118 1.280 . S
C481 C74 1.285 . S
C487 C117 1.286 . S
