# Generated by pormake.
# Topology ana, (4)-cn, num edge types: 1
# Building blocks:
#     Node 0, Type 0, BuildingBlock: AZAVOO_clean_sbu_0, # of connection points: 4
#     Node 1, Type 0, BuildingBlock: AZAVOO_clean_sbu_0, # of connection points: 4
#     Node 2, Type 0, BuildingBlock: AZAVOO_clean_sbu_0, # of connection points: 4
#     Node 3, Type 0, BuildingBlock: AZAVOO_clean_sbu_0, # of connection points: 4
#     Node 4, Type 0, BuildingBlock: AZAVOO_clean_sbu_0, # of connection points: 4
#     Node 5, Type 0, BuildingBlock: AZAVOO_clean_sbu_0, # of connection points: 4
#     Node 6, Type 0, BuildingBlock: AZAVOO_clean_sbu_0, # of connection points: 4
#     Node 7, Type 0, BuildingBlock: AZAVOO_clean_sbu_0, # of connection points: 4
#     Node 8, Type 0, BuildingBlock: AZAVOO_clean_sbu_0, # of connection points: 4
#     Node 9, Type 0, BuildingBlock: AZAVOO_clean_sbu_0, # of connection points: 4
#     Node 10, Type 0, BuildingBlock: AZAVOO_clean_sbu_0, # of connection points: 4
#     Node 11, Type 0, BuildingBlock: AZAVOO_clean_sbu_0, # of connection points: 4
#     Node 12, Type 0, BuildingBlock: AZAVOO_clean_sbu_0, # of connection points: 4
#     Node 13, Type 0, BuildingBlock: AZAVOO_clean_sbu_0, # of connection points: 4
#     Node 14, Type 0, BuildingBlock: AZAVOO_clean_sbu_0, # of connection points: 4
#     Node 15, Type 0, BuildingBlock: AZAVOO_clean_sbu_0, # of connection points: 4
#     Node 16, Type 0, BuildingBlock: AZAVOO_clean_sbu_0, # of connection points: 4
#     Node 17, Type 0, BuildingBlock: AZAVOO_clean_sbu_0, # of connection points: 4
#     Node 18, Type 0, BuildingBlock: AZAVOO_clean_sbu_0, # of connection points: 4
#     Node 19, Type 0, BuildingBlock: AZAVOO_clean_sbu_0, # of connection points: 4
#     Node 20, Type 0, BuildingBlock: AZAVOO_clean_sbu_0, # of connection points: 4
#     Node 21, Type 0, BuildingBlock: AZAVOO_clean_sbu_0, # of connection points: 4
#     Node 22, Type 0, BuildingBlock: AZAVOO_clean_sbu_0, # of connection points: 4
#     Node 23, Type 0, BuildingBlock: AZAVOO_clean_sbu_0, # of connection points: 4
#     Node 24, Type 0, BuildingBlock: AZAVOO_clean_sbu_0, # of connection points: 4
#     Node 25, Type 0, BuildingBlock: AZAVOO_clean_sbu_0, # of connection points: 4
#     Node 26, Type 0, BuildingBlock: AZAVOO_clean_sbu_0, # of connection points: 4
#     Node 27, Type 0, BuildingBlock: AZAVOO_clean_sbu_0, # of connection points: 4
#     Node 28, Type 0, BuildingBlock: AZAVOO_clean_sbu_0, # of connection points: 4
#     Node 29, Type 0, BuildingBlock: AZAVOO_clean_sbu_0, # of connection points: 4
#     Node 30, Type 0, BuildingBlock: AZAVOO_clean_sbu_0, # of connection points: 4
#     Node 31, Type 0, BuildingBlock: AZAVOO_clean_sbu_0, # of connection points: 4
#     Node 32, Type 0, BuildingBlock: AZAVOO_clean_sbu_0, # of connection points: 4
#     Node 33, Type 0, BuildingBlock: AZAVOO_clean_sbu_0, # of connection points: 4
#     Node 34, Type 0, BuildingBlock: AZAVOO_clean_sbu_0, # of connection points: 4
#     Node 35, Type 0, BuildingBlock: AZAVOO_clean_sbu_0, # of connection points: 4
#     Node 36, Type 0, BuildingBlock: AZAVOO_clean_sbu_0, # of connection points: 4
#     Node 37, Type 0, BuildingBlock: AZAVOO_clean_sbu_0, # of connection points: 4
#     Node 38, Type 0, BuildingBlock: AZAVOO_clean_sbu_0, # of connection points: 4
#     Node 39, Type 0, BuildingBlock: AZAVOO_clean_sbu_0, # of connection points: 4
#     Node 40, Type 0, BuildingBlock: AZAVOO_clean_sbu_0, # of connection points: 4
#     Node 41, Type 0, BuildingBlock: AZAVOO_clean_sbu_0, # of connection points: 4
#     Node 42, Type 0, BuildingBlock: AZAVOO_clean_sbu_0, # of connection points: 4
#     Node 43, Type 0, BuildingBlock: AZAVOO_clean_sbu_0, # of connection points: 4
#     Node 44, Type 0, BuildingBlock: AZAVOO_clean_sbu_0, # of connection points: 4
#     Node 45, Type 0, BuildingBlock: AZAVOO_clean_sbu_0, # of connection points: 4
#     Node 46, Type 0, BuildingBlock: AZAVOO_clean_sbu_0, # of connection points: 4
#     Node 47, Type 0, BuildingBlock: AZAVOO_clean_sbu_0, # of connection points: 4
#     Edge 48, Type (0, 0), BuildingBlock: XIVTED_clean_linker_0, # of connection points: 2
#     Edge 49, Type (0, 0), BuildingBlock: XIVTED_clean_linker_0, # of connection points: 2
#     Edge 50, Type (0, 0), BuildingBlock: XIVTED_clean_linker_0, # of connection points: 2
#     Edge 51, Type (0, 0), BuildingBlock: XIVTED_clean_linker_0, # of connection points: 2
#     Edge 52, Type (0, 0), BuildingBlock: XIVTED_clean_linker_0, # of connection points: 2
#     Edge 53, Type (0, 0), BuildingBlock: XIVTED_clean_linker_0, # of connection points: 2
#     Edge 54, Type (0, 0), BuildingBlock: XIVTED_clean_linker_0, # of connection points: 2
#     Edge 55, Type (0, 0), BuildingBlock: XIVTED_clean_linker_0, # of connection points: 2
#     Edge 56, Type (0, 0), BuildingBlock: XIVTED_clean_linker_0, # of connection points: 2
#     Edge 57, Type (0, 0), BuildingBlock: XIVTED_clean_linker_0, # of connection points: 2
#     Edge 58, Type (0, 0), BuildingBlock: XIVTED_clean_linker_0, # of connection points: 2
#     Edge 59, Type (0, 0), BuildingBlock: XIVTED_clean_linker_0, # of connection points: 2
#     Edge 60, Type (0, 0), BuildingBlock: XIVTED_clean_linker_0, # of connection points: 2
#     Edge 61, Type (0, 0), BuildingBlock: XIVTED_clean_linker_0, # of connection points: 2
#     Edge 62, Type (0, 0), BuildingBlock: XIVTED_clean_linker_0, # of connection points: 2
#     Edge 63, Type (0, 0), BuildingBlock: XIVTED_clean_linker_0, # of connection points: 2
#     Edge 64, Type (0, 0), BuildingBlock: XIVTED_clean_linker_0, # of connection points: 2
#     Edge 65, Type (0, 0), BuildingBlock: XIVTED_clean_linker_0, # of connection points: 2
#     Edge 66, Type (0, 0), BuildingBlock: XIVTED_clean_linker_0, # of connection points: 2
#     Edge 67, Type (0, 0), BuildingBlock: XIVTED_clean_linker_0, # of connection points: 2
#     Edge 68, Type (0, 0), BuildingBlock: XIVTED_clean_linker_0, # of connection points: 2
#     Edge 69, Type (0, 0), BuildingBlock: XIVTED_clean_linker_0, # of connection points: 2
#     Edge 70, Type (0, 0), BuildingBlock: XIVTED_clean_linker_0, # of connection points: 2
#     Edge 71, Type (0, 0), BuildingBlock: XIVTED_clean_linker_0, # of connection points: 2
#     Edge 72, Type (0, 0), BuildingBlock: XIVTED_clean_linker_0, # of connection points: 2
#     Edge 73, Type (0, 0), BuildingBlock: XIVTED_clean_linker_0, # of connection points: 2
#     Edge 74, Type (0, 0), BuildingBlock: XIVTED_clean_linker_0, # of connection points: 2
#     Edge 75, Type (0, 0), BuildingBlock: XIVTED_clean_linker_0, # of connection points: 2
#     Edge 76, Type (0, 0), BuildingBlock: XIVTED_clean_linker_0, # of connection points: 2
#     Edge 77, Type (0, 0), BuildingBlock: XIVTED_clean_linker_0, # of connection points: 2
#     Edge 78, Type (0, 0), BuildingBlock: XIVTED_clean_linker_0, # of connection points: 2
#     Edge 79, Type (0, 0), BuildingBlock: XIVTED_clean_linker_0, # of connection points: 2
#     Edge 80, Type (0, 0), BuildingBlock: XIVTED_clean_linker_0, # of connection points: 2
#     Edge 81, Type (0, 0), BuildingBlock: XIVTED_clean_linker_0, # of connection points: 2
#     Edge 82, Type (0, 0), BuildingBlock: XIVTED_clean_linker_0, # of connection points: 2
#     Edge 83, Type (0, 0), BuildingBlock: XIVTED_clean_linker_0, # of connection points: 2
#     Edge 84, Type (0, 0), BuildingBlock: XIVTED_clean_linker_0, # of connection points: 2
#     Edge 85, Type (0, 0), BuildingBlock: XIVTED_clean_linker_0, # of connection points: 2
#     Edge 86, Type (0, 0), BuildingBlock: XIVTED_clean_linker_0, # of connection points: 2
#     Edge 87, Type (0, 0), BuildingBlock: XIVTED_clean_linker_0, # of connection points: 2
#     Edge 88, Type (0, 0), BuildingBlock: XIVTED_clean_linker_0, # of connection points: 2
#     Edge 89, Type (0, 0), BuildingBlock: XIVTED_clean_linker_0, # of connection points: 2
#     Edge 90, Type (0, 0), BuildingBlock: XIVTED_clean_linker_0, # of connection points: 2
#     Edge 91, Type (0, 0), BuildingBlock: XIVTED_clean_linker_0, # of connection points: 2
#     Edge 92, Type (0, 0), BuildingBlock: XIVTED_clean_linker_0, # of connection points: 2
#     Edge 93, Type (0, 0), BuildingBlock: XIVTED_clean_linker_0, # of connection points: 2
#     Edge 94, Type (0, 0), BuildingBlock: XIVTED_clean_linker_0, # of connection points: 2
#     Edge 95, Type (0, 0), BuildingBlock: XIVTED_clean_linker_0, # of connection points: 2
#     Edge 96, Type (0, 0), BuildingBlock: XIVTED_clean_linker_0, # of connection points: 2
#     Edge 97, Type (0, 0), BuildingBlock: XIVTED_clean_linker_0, # of connection points: 2
#     Edge 98, Type (0, 0), BuildingBlock: XIVTED_clean_linker_0, # of connection points: 2
#     Edge 99, Type (0, 0), BuildingBlock: XIVTED_clean_linker_0, # of connection points: 2
#     Edge 100, Type (0, 0), BuildingBlock: XIVTED_clean_linker_0, # of connection points: 2
#     Edge 101, Type (0, 0), BuildingBlock: XIVTED_clean_linker_0, # of connection points: 2
#     Edge 102, Type (0, 0), BuildingBlock: XIVTED_clean_linker_0, # of connection points: 2
#     Edge 103, Type (0, 0), BuildingBlock: XIVTED_clean_linker_0, # of connection points: 2
#     Edge 104, Type (0, 0), BuildingBlock: XIVTED_clean_linker_0, # of connection points: 2
#     Edge 105, Type (0, 0), BuildingBlock: XIVTED_clean_linker_0, # of connection points: 2
#     Edge 106, Type (0, 0), BuildingBlock: XIVTED_clean_linker_0, # of connection points: 2
#     Edge 107, Type (0, 0), BuildingBlock: XIVTED_clean_linker_0, # of connection points: 2
#     Edge 108, Type (0, 0), BuildingBlock: XIVTED_clean_linker_0, # of connection points: 2
#     Edge 109, Type (0, 0), BuildingBlock: XIVTED_clean_linker_0, # of connection points: 2
#     Edge 110, Type (0, 0), BuildingBlock: XIVTED_clean_linker_0, # of connection points: 2
#     Edge 111, Type (0, 0), BuildingBlock: XIVTED_clean_linker_0, # of connection points: 2
#     Edge 112, Type (0, 0), BuildingBlock: XIVTED_clean_linker_0, # of connection points: 2
#     Edge 113, Type (0, 0), BuildingBlock: XIVTED_clean_linker_0, # of connection points: 2
#     Edge 114, Type (0, 0), BuildingBlock: XIVTED_clean_linker_0, # of connection points: 2
#     Edge 115, Type (0, 0), BuildingBlock: XIVTED_clean_linker_0, # of connection points: 2
#     Edge 116, Type (0, 0), BuildingBlock: XIVTED_clean_linker_0, # of connection points: 2
#     Edge 117, Type (0, 0), BuildingBlock: XIVTED_clean_linker_0, # of connection points: 2
#     Edge 118, Type (0, 0), BuildingBlock: XIVTED_clean_linker_0, # of connection points: 2
#     Edge 119, Type (0, 0), BuildingBlock: XIVTED_clean_linker_0, # of connection points: 2
#     Edge 120, Type (0, 0), BuildingBlock: XIVTED_clean_linker_0, # of connection points: 2
#     Edge 121, Type (0, 0), BuildingBlock: XIVTED_clean_linker_0, # of connection points: 2
#     Edge 122, Type (0, 0), BuildingBlock: XIVTED_clean_linker_0, # of connection points: 2
#     Edge 123, Type (0, 0), BuildingBlock: XIVTED_clean_linker_0, # of connection points: 2
#     Edge 124, Type (0, 0), BuildingBlock: XIVTED_clean_linker_0, # of connection points: 2
#     Edge 125, Type (0, 0), BuildingBlock: XIVTED_clean_linker_0, # of connection points: 2
#     Edge 126, Type (0, 0), BuildingBlock: XIVTED_clean_linker_0, # of connection points: 2
#     Edge 127, Type (0, 0), BuildingBlock: XIVTED_clean_linker_0, # of connection points: 2
#     Edge 128, Type (0, 0), BuildingBlock: XIVTED_clean_linker_0, # of connection points: 2
#     Edge 129, Type (0, 0), BuildingBlock: XIVTED_clean_linker_0, # of connection points: 2
#     Edge 130, Type (0, 0), BuildingBlock: XIVTED_clean_linker_0, # of connection points: 2
#     Edge 131, Type (0, 0), BuildingBlock: XIVTED_clean_linker_0, # of connection points: 2
#     Edge 132, Type (0, 0), BuildingBlock: XIVTED_clean_linker_0, # of connection points: 2
#     Edge 133, Type (0, 0), BuildingBlock: XIVTED_clean_linker_0, # of connection points: 2
#     Edge 134, Type (0, 0), BuildingBlock: XIVTED_clean_linker_0, # of connection points: 2
#     Edge 135, Type (0, 0), BuildingBlock: XIVTED_clean_linker_0, # of connection points: 2
#     Edge 136, Type (0, 0), BuildingBlock: XIVTED_clean_linker_0, # of connection points: 2
#     Edge 137, Type (0, 0), BuildingBlock: XIVTED_clean_linker_0, # of connection points: 2
#     Edge 138, Type (0, 0), BuildingBlock: XIVTED_clean_linker_0, # of connection points: 2
#     Edge 139, Type (0, 0), BuildingBlock: XIVTED_clean_linker_0, # of connection points: 2
#     Edge 140, Type (0, 0), BuildingBlock: XIVTED_clean_linker_0, # of connection points: 2
#     Edge 141, Type (0, 0), BuildingBlock: XIVTED_clean_linker_0, # of connection points: 2
#     Edge 142, Type (0, 0), BuildingBlock: XIVTED_clean_linker_0, # of connection points: 2
#     Edge 143, Type (0, 0), BuildingBlock: XIVTED_clean_linker_0, # of connection points: 2
# Relax obj value: 0.253
# Max RMSD: 0.250
# Mean RMSD: 0.230
data_MOF--net-ana--node1-AZAVOO_clean_sbu_0--edge1-XIVTED_clean_linker_0
_symmetry_space_group_name_H-M    P1
_symmetry_Int_Tables_number       1
_symmetry_cell_setting            triclinic
loop_
_symmetry_equiv_pos_as_xyz
'x, y, z'
_cell_length_a     64.719347
_cell_length_b     62.220194
_cell_length_c     62.222695
_cell_angle_alpha  90.222129
_cell_angle_beta   90.745543
_cell_angle_gamma 92.371928
loop_
_atom_site_label
_atom_site_type_symbol
_atom_site_fract_x
_atom_site_fract_y
_atom_site_fract_z
_atom_type_partial_charge
Mg0 Mg 0.13581 0.14906 0.44515 0.0
O1 O 0.1053 0.13391 0.43249 0.0
O2 O 0.10682 0.09817 0.43287 0.0
Mg3 Mg 0.13848 0.09046 0.44693 0.0
C4 C 0.09719 0.1152 0.42884 0.0
C5 C 0.14012 0.19452 0.42519 0.0
O6 O 0.1596 0.18937 0.42578 0.0
O7 O 0.15198 0.14074 0.41405 0.0
O8 O 0.15413 0.10505 0.41711 0.0
O9 O 0.12465 0.14777 0.47901 0.0
O10 O 0.14138 0.12204 0.46306 0.0
C11 C 0.15778 0.12266 0.40706 0.0
C12 C 0.13251 0.12897 0.47994 0.0
O13 O 0.12641 0.18122 0.43214 0.0
Mg14 Mg 0.05271 0.88868 0.6454 0.0
O15 O 0.07769 0.91415 0.63835 0.0
O16 O 0.07658 0.92238 0.6035 0.0
Mg17 Mg 0.04796 0.90417 0.58909 0.0
C18 C 0.0849 0.9243 0.62217 0.0
C19 C 0.05855 0.87494 0.69275 0.0
O20 O 0.03833 0.87295 0.69065 0.0
O21 O 0.07076 0.86437 0.62725 0.0
O22 O 0.0645 0.87221 0.59275 0.0
O23 O 0.02992 0.91318 0.65375 0.0
O24 O 0.03397 0.90004 0.62114 0.0
C25 C 0.07232 0.86035 0.60723 0.0
C26 C 0.02434 0.91263 0.63367 0.0
O27 O 0.06919 0.88103 0.6767 0.0
Mg28 Mg 0.35143 0.79164 0.93051 0.0
O29 O 0.38074 0.80912 0.91807 0.0
O30 O 0.37855 0.84447 0.92298 0.0
Mg31 Mg 0.34725 0.84981 0.93833 0.0
C32 C 0.38833 0.8283 0.91657 0.0
C33 C 0.34914 0.74807 0.90424 0.0
O34 O 0.32937 0.75207 0.90353 0.0
O35 O 0.33242 0.80195 0.9012 0.0
O36 O 0.33028 0.83718 0.90804 0.0
O37 O 0.36503 0.79125 0.9641 0.0
O38 O 0.346 0.81691 0.95114 0.0
C39 C 0.32602 0.82054 0.89645 0.0
C40 C 0.35651 0.80951 0.96687 0.0
O41 O 0.36165 0.76112 0.91403 0.0
Mg42 Mg 0.4301 0.12848 0.1482 0.0
O43 O 0.41529 0.09649 0.13697 0.0
O44 O 0.42326 0.09118 0.10257 0.0
Mg45 Mg 0.44505 0.11929 0.09263 0.0
C46 C 0.41413 0.08528 0.11976 0.0
C47 C 0.41915 0.13336 0.19509 0.0
O48 O 0.43871 0.13984 0.19429 0.0
O49 O 0.40703 0.14703 0.12853 0.0
O50 O 0.41875 0.14309 0.09518 0.0
O51 O 0.45784 0.11179 0.15922 0.0
O52 O 0.4541 0.12516 0.1266 0.0
C53 C 0.40631 0.15123 0.10847 0.0
C54 C 0.46509 0.11468 0.14011 0.0
O55 O 0.4098 0.12792 0.17771 0.0
Mg56 Mg 0.09614 0.80697 0.08234 0.0
O57 O 0.12619 0.81791 0.09981 0.0
O58 O 0.12303 0.81043 0.13473 0.0
Mg59 Mg 0.09068 0.7955 0.13976 0.0
C60 C 0.13348 0.81791 0.11898 0.0
C61 C 0.09332 0.83156 0.03935 0.0
O62 O 0.07365 0.82889 0.04406 0.0
O63 O 0.08021 0.83639 0.09533 0.0
O64 O 0.07733 0.8277 0.13007 0.0
O65 O 0.10795 0.77387 0.07872 0.0
O66 O 0.08962 0.78465 0.10617 0.0
C67 C 0.07452 0.84056 0.11444 0.0
C68 C 0.09984 0.76981 0.09726 0.0
O69 O 0.10681 0.82468 0.05232 0.0
Mg70 Mg 0.37993 0.84524 0.34697 0.0
O71 O 0.36943 0.81471 0.36425 0.0
O72 O 0.33526 0.80997 0.36015 0.0
Mg73 Mg 0.32408 0.83784 0.33957 0.0
C74 C 0.35259 0.80391 0.36745 0.0
C75 C 0.42298 0.82947 0.36081 0.0
O76 O 0.41613 0.81301 0.34908 0.0
O77 O 0.36684 0.86652 0.3726 0.0
O78 O 0.33297 0.86378 0.36518 0.0
O79 O 0.38421 0.82648 0.31715 0.0
O80 O 0.35511 0.8418 0.32533 0.0
C81 C 0.3484 0.87223 0.3757 0.0
C82 C 0.36519 0.83019 0.31221 0.0
O83 O 0.41123 0.84502 0.3639 0.0
Mg84 Mg 0.40905 0.20199 0.55879 0.0
O85 O 0.37879 0.19416 0.5762 0.0
O86 O 0.38031 0.20922 0.60884 0.0
Mg87 Mg 0.41221 0.22603 0.61273 0.0
C88 C 0.37077 0.1979 0.59439 0.0
C89 C 0.38268 0.17862 0.52217 0.0
O90 O 0.36994 0.19382 0.52684 0.0
O91 O 0.42414 0.17617 0.57917 0.0
O92 O 0.42518 0.19244 0.61137 0.0
O93 O 0.39728 0.23392 0.54792 0.0
O94 O 0.41504 0.22876 0.57788 0.0
C95 C 0.42852 0.17634 0.59928 0.0
C96 C 0.4054 0.24159 0.56561 0.0
O97 O 0.39964 0.17769 0.53259 0.0
Mg98 Mg 0.13683 0.12818 0.83172 0.0
O99 O 0.14244 0.15771 0.85289 0.0
O100 O 0.17665 0.16302 0.85669 0.0
Mg101 Mg 0.1927 0.13773 0.83686 0.0
C102 C 0.15818 0.16827 0.86053 0.0
C103 C 0.09029 0.13913 0.83659 0.0
O104 O 0.0966 0.15647 0.82617 0.0
O105 O 0.14645 0.10611 0.85856 0.0
O106 O 0.18089 0.11029 0.85898 0.0
O107 O 0.1368 0.14899 0.80292 0.0
O108 O 0.16469 0.1344 0.81637 0.0
C109 C 0.16418 0.101 0.8656 0.0
C110 C 0.15658 0.14669 0.80223 0.0
O111 O 0.10329 0.12522 0.84172 0.0
Mg112 Mg 0.12072 0.38064 0.12795 0.0
O113 O 0.10354 0.36643 0.09887 0.0
O114 O 0.07125 0.37788 0.0976 0.0
Mg115 Mg 0.06736 0.39817 0.12778 0.0
C116 C 0.08578 0.36716 0.0898 0.0
C117 C 0.15933 0.3537 0.13773 0.0
O118 O 0.15427 0.35865 0.15746 0.0
O119 O 0.10428 0.35667 0.1497 0.0
O120 O 0.07244 0.36924 0.15005 0.0
O121 O 0.1297 0.40948 0.10912 0.0
O122 O 0.10091 0.40626 0.12786 0.0
C123 C 0.08571 0.35589 0.15638 0.0
C124 C 0.11238 0.41735 0.11479 0.0
O125 O 0.14768 0.35911 0.12226 0.0
Mg126 Mg 0.6755 0.08063 0.89934 0.0
O127 O 0.6603 0.09365 0.86922 0.0
O128 O 0.67044 0.12794 0.86417 0.0
Mg129 Mg 0.69365 0.13631 0.89149 0.0
C130 C 0.65992 0.11103 0.85848 0.0
C131 C 0.66033 0.03368 0.90117 0.0
O132 O 0.68006 0.03295 0.90623 0.0
O133 O 0.65533 0.09968 0.9213 0.0
O134 O 0.66834 0.13328 0.91723 0.0
O135 O 0.70149 0.07023 0.87956 0.0
O136 O 0.70085 0.10197 0.89571 0.0
C137 C 0.65592 0.11964 0.92619 0.0
C138 C 0.71031 0.08892 0.88346 0.0
O139 O 0.65266 0.0519 0.89816 0.0
Mg140 Mg 0.81334 0.91197 0.37 0.0
O141 O 0.82943 0.89259 0.34458 0.0
O142 O 0.81408 0.85993 0.34088 0.0
Mg143 Mg 0.78907 0.85774 0.36672 0.0
C144 C 0.82778 0.87419 0.33554 0.0
C145 C 0.84113 0.94562 0.34895 0.0
O146 O 0.83092 0.93581 0.33312 0.0
O147 O 0.82998 0.89394 0.39599 0.0
O148 O 0.81311 0.86182 0.39449 0.0
O149 O 0.7904 0.9224 0.34591 0.0
O150 O 0.78619 0.89288 0.36525 0.0
C151 C 0.82665 0.8749 0.40305 0.0
C152 C 0.7795 0.90511 0.35023 0.0
O153 O 0.83859 0.93865 0.36795 0.0
Mg154 Mg 0.85777 0.1488 0.09296 0.0
O155 O 0.87699 0.16249 0.12103 0.0
O156 O 0.87663 0.19842 0.12014 0.0
Mg157 Mg 0.85815 0.20708 0.08985 0.0
C158 C 0.88224 0.18097 0.12874 0.0
C159 C 0.8581 0.10037 0.0918 0.0
O160 O 0.84031 0.10487 0.08283 0.0
O161 O 0.88399 0.15756 0.07149 0.0
O162 O 0.88354 0.19323 0.0678 0.0
O163 O 0.83007 0.14853 0.1126 0.0
O164 O 0.83994 0.17604 0.09195 0.0
C165 C 0.89125 0.17508 0.06364 0.0
C166 C 0.82726 0.1679 0.10594 0.0
O167 O 0.87015 0.11574 0.09829 0.0
Mg168 Mg 0.32316 0.63399 0.60666 0.0
O169 O 0.34439 0.64067 0.63519 0.0
O170 O 0.35244 0.67572 0.63843 0.0
Mg171 Mg 0.33449 0.69152 0.61085 0.0
C172 C 0.35402 0.65633 0.64467 0.0
C173 C 0.33845 0.58867 0.59243 0.0
O174 O 0.34232 0.59885 0.57438 0.0
O175 O 0.35007 0.64091 0.58574 0.0
O176 O 0.35654 0.67641 0.58591 0.0
O177 O 0.29644 0.63651 0.62717 0.0
O178 O 0.31064 0.66424 0.60944 0.0
C179 C 0.36048 0.65744 0.57959 0.0
C180 C 0.29689 0.65686 0.62277 0.0
O181 O 0.33062 0.5986 0.60806 0.0
Mg182 Mg 0.19752 0.57016 0.39674 0.0
O183 O 0.18187 0.58314 0.36682 0.0
O184 O 0.19315 0.61717 0.36164 0.0
Mg185 Mg 0.21802 0.62487 0.38752 0.0
C186 C 0.18177 0.6007 0.35631 0.0
C187 C 0.17867 0.52516 0.40654 0.0
O188 O 0.19755 0.52398 0.41437 0.0
O189 O 0.17836 0.59102 0.41775 0.0
O190 O 0.19327 0.62383 0.414 0.0
O191 O 0.22212 0.55744 0.37657 0.0
O192 O 0.22342 0.59013 0.39079 0.0
C193 C 0.17996 0.61093 0.42266 0.0
C194 C 0.23155 0.57614 0.37846 0.0
O195 O 0.1733 0.54272 0.39823 0.0
Mg196 Mg 0.35807 0.36955 0.84332 0.0
O197 O 0.36318 0.37177 0.88024 0.0
O198 O 0.39619 0.38288 0.88663 0.0
Mg199 Mg 0.41392 0.38198 0.85518 0.0
C200 C 0.37793 0.37786 0.89312 0.0
C201 C 0.31294 0.36142 0.83238 0.0
O202 O 0.32019 0.37266 0.8161 0.0
O203 O 0.37207 0.33661 0.84282 0.0
O204 O 0.40237 0.34677 0.85413 0.0
O205 O 0.3531 0.40422 0.84304 0.0
O206 O 0.38426 0.39129 0.83982 0.0
C207 C 0.3909 0.34064 0.8384 0.0
C208 C 0.37293 0.4077 0.8423 0.0
O209 O 0.32548 0.35568 0.84697 0.0
Mg210 Mg 0.85947 0.84888 0.60412 0.0
O211 O 0.86211 0.85184 0.56757 0.0
O212 O 0.89512 0.84968 0.55784 0.0
Mg213 Mg 0.91354 0.84342 0.58855 0.0
C214 C 0.87607 0.85196 0.55324 0.0
C215 C 0.81336 0.83071 0.60901 0.0
O216 O 0.82213 0.81667 0.62152 0.0
O217 O 0.86263 0.81276 0.60072 0.0
O218 O 0.89569 0.81075 0.59102 0.0
O219 O 0.86661 0.88436 0.60825 0.0
O220 O 0.89005 0.85945 0.60729 0.0
C221 C 0.87805 0.80189 0.59533 0.0
C222 C 0.88584 0.87945 0.60793 0.0
O223 O 0.82448 0.84545 0.60024 0.0
Mg224 Mg 0.93861 0.12518 0.30401 0.0
O225 O 0.92015 0.15053 0.3215 0.0
O226 O 0.89002 0.15337 0.30398 0.0
Mg227 Mg 0.88939 0.13064 0.27501 0.0
C228 C 0.90252 0.15883 0.31928 0.0
C229 C 0.96916 0.10634 0.33759 0.0
O230 O 0.96387 0.08862 0.32697 0.0
O231 O 0.91775 0.09813 0.31762 0.0
O232 O 0.88932 0.10139 0.29732 0.0
O233 O 0.9526 0.15046 0.28228 0.0
O234 O 0.92319 0.13209 0.27574 0.0
C235 C 0.8996 0.09159 0.31167 0.0
C236 C 0.93625 0.14714 0.27035 0.0
O237 O 0.96104 0.12382 0.33229 0.0
Mg238 Mg 0.63413 0.17754 0.12119 0.0
O239 O 0.63047 0.1706 0.085 0.0
O240 O 0.59744 0.17453 0.07511 0.0
Mg241 Mg 0.57985 0.18303 0.10529 0.0
C242 C 0.61604 0.17027 0.07076 0.0
C243 C 0.68051 0.18618 0.13367 0.0
O244 O 0.6721 0.18833 0.15262 0.0
O245 O 0.63133 0.21349 0.1158 0.0
O246 O 0.59797 0.21544 0.10643 0.0
O247 O 0.62675 0.14255 0.12753 0.0
O248 O 0.6036 0.16773 0.125 0.0
C249 C 0.61583 0.22426 0.11019 0.0
C250 C 0.60759 0.14773 0.12672 0.0
O251 O 0.669 0.18125 0.11755 0.0
Mg252 Mg 0.55289 0.8774 0.81007 0.0
O253 O 0.57322 0.84981 0.82121 0.0
O254 O 0.60283 0.85235 0.8031 0.0
Mg255 Mg 0.60203 0.88169 0.78142 0.0
C256 C 0.59108 0.84302 0.81683 0.0
C257 C 0.5222 0.85189 0.83927 0.0
O258 O 0.52854 0.83648 0.82678 0.0
O259 O 0.57261 0.90104 0.83049 0.0
O260 O 0.60191 0.90289 0.81177 0.0
O261 O 0.53984 0.85735 0.78311 0.0
O262 O 0.56809 0.87832 0.78068 0.0
C263 C 0.59109 0.90841 0.82776 0.0
C264 C 0.55546 0.86421 0.77191 0.0
O265 O 0.53013 0.8708 0.83721 0.0
Mg266 Mg 0.8991 0.10814 0.88475 0.0
O267 O 0.88721 0.14238 0.88479 0.0
O268 O 0.86356 0.14387 0.91079 0.0
Mg269 Mg 0.85901 0.11046 0.92546 0.0
C270 C 0.87438 0.15265 0.89594 0.0
C271 C 0.9411 0.10416 0.86673 0.0
O272 O 0.93621 0.08563 0.8758 0.0
O273 O 0.91682 0.11688 0.91571 0.0
O274 O 0.89142 0.11595 0.93974 0.0
O275 O 0.87457 0.09836 0.86046 0.0
O276 O 0.87065 0.0968 0.89563 0.0
C277 C 0.91046 0.11837 0.93492 0.0
C278 C 0.86247 0.0953 0.87668 0.0
O279 O 0.92769 0.1185 0.86625 0.0
Mg280 Mg 0.56818 0.07518 0.68544 0.0
O281 O 0.58077 0.10125 0.66306 0.0
O282 O 0.61515 0.10215 0.66243 0.0
Mg283 Mg 0.62459 0.0761 0.68649 0.0
C284 C 0.59786 0.10921 0.65616 0.0
C285 C 0.52074 0.0829 0.67878 0.0
O286 O 0.52105 0.08363 0.69989 0.0
O287 O 0.57594 0.04852 0.6623 0.0
O288 O 0.6104 0.04863 0.66539 0.0
O289 O 0.56996 0.09841 0.71318 0.0
O290 O 0.59502 0.07728 0.70405 0.0
C291 C 0.59327 0.04057 0.65793 0.0
C292 C 0.58845 0.09184 0.71666 0.0
O293 O 0.53719 0.07892 0.66892 0.0
Mg294 Mg 0.60992 0.90196 0.37723 0.0
O295 O 0.62608 0.87054 0.38448 0.0
O296 O 0.66009 0.87744 0.3887 0.0
Mg297 Mg 0.66481 0.91404 0.38785 0.0
C298 C 0.64441 0.86429 0.38783 0.0
C299 C 0.57296 0.867 0.3736 0.0
O300 O 0.58618 0.85647 0.36216 0.0
O301 O 0.61157 0.90952 0.41278 0.0
O302 O 0.64553 0.91488 0.41865 0.0
O303 O 0.61772 0.89756 0.34276 0.0
O304 O 0.63743 0.91569 0.36663 0.0
C305 C 0.62698 0.91321 0.42544 0.0
C306 C 0.63513 0.90748 0.34769 0.0
O307 O 0.57841 0.88525 0.3815 0.0
Mg308 Mg 0.91551 0.92369 0.17042 0.0
O309 O 0.90445 0.89609 0.14848 0.0
O310 O 0.87019 0.89097 0.15014 0.0
Mg311 Mg 0.85938 0.91574 0.17449 0.0
C312 C 0.88768 0.88611 0.14268 0.0
C313 C 0.96311 0.92786 0.16374 0.0
O314 O 0.9623 0.93306 0.1842 0.0
O315 O 0.90278 0.94789 0.14733 0.0
O316 O 0.86864 0.94364 0.15177 0.0
O317 O 0.91943 0.90097 0.19741 0.0
O318 O 0.89034 0.91722 0.19029 0.0
C319 C 0.88434 0.95324 0.14325 0.0
C320 C 0.90017 0.90358 0.20169 0.0
O321 O 0.94632 0.92413 0.15336 0.0
Mg322 Mg 0.82558 0.55743 0.86755 0.0
O323 O 0.84082 0.57675 0.89548 0.0
O324 O 0.87344 0.56668 0.89884 0.0
Mg325 Mg 0.87901 0.54102 0.87349 0.0
C326 C 0.85855 0.57808 0.90476 0.0
C327 C 0.78179 0.57337 0.85815 0.0
O328 O 0.78048 0.55399 0.84965 0.0
O329 O 0.84331 0.57788 0.84321 0.0
O330 O 0.87532 0.56602 0.84667 0.0
O331 O 0.81583 0.53085 0.88981 0.0
O332 O 0.84561 0.5326 0.87287 0.0
C333 C 0.86222 0.57801 0.83762 0.0
C334 C 0.83361 0.52277 0.88631 0.0
O335 O 0.79877 0.57999 0.86683 0.0
Mg336 Mg 0.31675 0.90961 0.14147 0.0
O337 O 0.33152 0.89304 0.1131 0.0
O338 O 0.3659 0.89467 0.11713 0.0
Mg339 Mg 0.37301 0.91342 0.14825 0.0
C340 C 0.34954 0.8888 0.10664 0.0
C341 C 0.27354 0.8882 0.1475 0.0
O342 O 0.27959 0.89177 0.16748 0.0
O343 O 0.32392 0.88148 0.163 0.0
O344 O 0.3582 0.88537 0.1675 0.0
O345 O 0.31868 0.9409 0.12415 0.0
O346 O 0.34311 0.92923 0.14583 0.0
C347 C 0.34089 0.87552 0.17122 0.0
C348 C 0.3369 0.94374 0.13284 0.0
O349 O 0.28551 0.89397 0.13236 0.0
Mg350 Mg 0.22277 0.06275 0.64703 0.0
O351 O 0.19854 0.07181 0.62189 0.0
O352 O 0.1668 0.06297 0.63374 0.0
Mg353 Mg 0.17093 0.04957 0.66743 0.0
C354 C 0.1789 0.07058 0.61938 0.0
C355 C 0.25984 0.09375 0.64235 0.0
O356 O 0.25855 0.0906 0.66316 0.0
O357 O 0.21525 0.09185 0.66722 0.0
O358 O 0.18324 0.08304 0.6781 0.0
O359 O 0.22192 0.02994 0.63212 0.0
O360 O 0.20214 0.03967 0.65896 0.0
C361 C 0.19885 0.09622 0.67713 0.0
C362 C 0.20657 0.02556 0.64478 0.0
O363 O 0.24734 0.0833 0.62987 0.0
Mg364 Mg 0.16736 0.91193 0.86173 0.0
O365 O 0.1499 0.89851 0.89125 0.0
O366 O 0.12097 0.91686 0.89352 0.0
Mg367 Mg 0.12007 0.94191 0.86703 0.0
C368 C 0.13284 0.90242 0.90038 0.0
C369 C 0.20227 0.88442 0.84644 0.0
O370 O 0.20202 0.90018 0.83245 0.0
O371 O 0.14431 0.89478 0.83877 0.0
O372 O 0.11669 0.91495 0.84187 0.0
O373 O 0.1841 0.93698 0.88212 0.0
O374 O 0.15391 0.94131 0.86613 0.0
C375 C 0.12588 0.89928 0.83344 0.0
C376 C 0.16842 0.94884 0.87871 0.0
O377 O 0.18884 0.88379 0.86119 0.0
Mg378 Mg 0.66602 0.45287 0.38334 0.0
O379 O 0.6496 0.43249 0.40936 0.0
O380 O 0.61941 0.44747 0.41527 0.0
Mg381 Mg 0.61759 0.4783 0.39542 0.0
C382 C 0.6322 0.43275 0.41881 0.0
C383 C 0.70299 0.43067 0.36413 0.0
O384 O 0.7037 0.44947 0.35455 0.0
O385 O 0.64345 0.4396 0.35764 0.0
O386 O 0.6154 0.45822 0.36426 0.0
O387 O 0.68202 0.47462 0.40781 0.0
O388 O 0.65148 0.48029 0.39337 0.0
C389 C 0.62512 0.44495 0.35281 0.0
C390 C 0.66612 0.48653 0.40642 0.0
O391 O 0.68844 0.42639 0.37716 0.0
Mg392 Mg 0.78817 0.4069 0.64621 0.0
O393 O 0.80958 0.39508 0.6202 0.0
O394 O 0.84166 0.40906 0.6254 0.0
Mg395 Mg 0.84117 0.42752 0.65714 0.0
C396 C 0.82846 0.39743 0.61469 0.0
C397 C 0.75152 0.37315 0.64754 0.0
O398 O 0.75514 0.37607 0.6682 0.0
O399 O 0.80103 0.38186 0.66874 0.0
O400 O 0.83334 0.39541 0.67376 0.0
O401 O 0.78383 0.43758 0.628 0.0
O402 O 0.80813 0.43297 0.65267 0.0
C403 C 0.81919 0.38084 0.67682 0.0
C404 C 0.79989 0.44514 0.63861 0.0
O405 O 0.7627 0.38347 0.63412 0.0
Mg406 Mg 0.69588 0.59661 0.15458 0.0
O407 O 0.67713 0.61396 0.12876 0.0
O408 O 0.64342 0.60762 0.13501 0.0
Mg409 Mg 0.64061 0.58798 0.16571 0.0
C410 C 0.65806 0.61603 0.12389 0.0
C411 C 0.73145 0.61741 0.1258 0.0
O412 O 0.72076 0.608 0.11005 0.0
O413 O 0.68918 0.62266 0.17864 0.0
O414 O 0.65552 0.61645 0.18492 0.0
O415 O 0.69431 0.56614 0.13515 0.0
O416 O 0.67097 0.57523 0.15886 0.0
C417 C 0.67256 0.6272 0.18811 0.0
C418 C 0.67668 0.56217 0.14424 0.0
O419 O 0.72525 0.61526 0.14499 0.0
Mg420 Mg 0.64427 0.68635 0.94064 0.0
O421 O 0.61282 0.67065 0.93151 0.0
O422 O 0.61094 0.63662 0.94269 0.0
Mg423 Mg 0.64141 0.63071 0.96032 0.0
C424 C 0.60308 0.6525 0.93312 0.0
C425 C 0.64641 0.72102 0.90239 0.0
O426 O 0.6639 0.71244 0.89726 0.0
O427 O 0.65986 0.6673 0.91426 0.0
O428 O 0.65854 0.6342 0.92839 0.0
O429 O 0.63288 0.69661 0.9728 0.0
O430 O 0.64678 0.66539 0.96628 0.0
C431 C 0.66395 0.64737 0.91358 0.0
C432 C 0.63815 0.67795 0.97958 0.0
O433 O 0.63641 0.71392 0.91848 0.0
Mg434 Mg 0.55297 0.40002 0.16122 0.0
O435 O 0.5719 0.4291 0.14892 0.0
O436 O 0.56631 0.43248 0.11357 0.0
Mg437 Mg 0.54373 0.40502 0.10316 0.0
C438 C 0.57514 0.43867 0.13111 0.0
C439 C 0.56641 0.41843 0.20502 0.0
O440 O 0.55372 0.43257 0.19744 0.0
O441 O 0.57629 0.37807 0.14647 0.0
O442 O 0.56822 0.38043 0.1115 0.0
O443 O 0.52467 0.41904 0.16619 0.0
O444 O 0.53168 0.40247 0.13596 0.0
C445 C 0.57873 0.37252 0.1269 0.0
C446 C 0.51947 0.41425 0.14656 0.0
O447 O 0.57043 0.40233 0.19339 0.0
Mg448 Mg 0.8431 0.31748 0.43667 0.0
O449 O 0.8744 0.33434 0.42889 0.0
O450 O 0.87409 0.36837 0.44049 0.0
Mg451 Mg 0.84292 0.37339 0.45596 0.0
C452 C 0.88316 0.35297 0.43146 0.0
C453 C 0.86702 0.27975 0.41771 0.0
O454 O 0.87943 0.28589 0.43366 0.0
O455 O 0.82676 0.33523 0.40963 0.0
O456 O 0.82657 0.36855 0.42333 0.0
O457 O 0.85496 0.3082 0.46924 0.0
O458 O 0.83991 0.33867 0.46197 0.0
C459 C 0.82189 0.35489 0.4085 0.0
C460 C 0.8493 0.32689 0.47556 0.0
O461 O 0.85047 0.28967 0.41452 0.0
Mg462 Mg 0.91534 0.61606 0.64624 0.0
O463 O 0.89229 0.58934 0.63614 0.0
O464 O 0.89463 0.5832 0.60093 0.0
Mg465 Mg 0.92098 0.60575 0.58887 0.0
C466 C 0.88638 0.5793 0.6191 0.0
C467 C 0.91041 0.62424 0.69425 0.0
O468 O 0.93025 0.62828 0.69128 0.0
O469 O 0.89566 0.64089 0.6303 0.0
O470 O 0.9022 0.63579 0.59549 0.0
O471 O 0.93945 0.59243 0.65286 0.0
O472 O 0.93495 0.60812 0.62146 0.0
C473 C 0.89385 0.64625 0.61061 0.0
C474 C 0.94499 0.59485 0.63306 0.0
O475 O 0.89898 0.61918 0.6781 0.0
Mg476 Mg 0.58755 0.28499 0.56042 0.0
O477 O 0.61614 0.29375 0.58126 0.0
O478 O 0.61024 0.28332 0.61503 0.0
Mg479 Mg 0.57715 0.2691 0.6161 0.0
C480 C 0.62197 0.29191 0.60083 0.0
C481 C 0.58744 0.31707 0.52287 0.0
O482 O 0.56772 0.31435 0.52734 0.0
O483 O 0.57126 0.31362 0.57465 0.0
O484 O 0.56587 0.3028 0.60844 0.0
O485 O 0.59919 0.25153 0.55566 0.0
O486 O 0.57864 0.26089 0.5818 0.0
C487 C 0.56458 0.31681 0.59357 0.0
C488 C 0.58933 0.24639 0.57301 0.0
O489 O 0.60048 0.30642 0.53343 0.0
Mg490 Mg 0.89 0.35013 0.84367 0.0
O491 O 0.87962 0.31828 0.85938 0.0
O492 O 0.84525 0.31499 0.85491 0.0
Mg493 Mg 0.83357 0.34476 0.83825 0.0
C494 C 0.86239 0.30779 0.86147 0.0
C495 C 0.93203 0.36665 0.86136 0.0
O496 O 0.92237 0.38445 0.85759 0.0
O497 O 0.87845 0.36973 0.87167 0.0
O498 O 0.84431 0.36757 0.8658 0.0
O499 O 0.89235 0.33346 0.81211 0.0
O500 O 0.86412 0.34848 0.82344 0.0
C501 C 0.86017 0.37502 0.87628 0.0
C502 C 0.87308 0.33748 0.80897 0.0
O503 O 0.92236 0.3487 0.85826 0.0
Mg504 Mg 0.9062 0.70415 0.0664 0.0
O505 O 0.87468 0.69592 0.08109 0.0
O506 O 0.87376 0.70986 0.11415 0.0
Mg507 Mg 0.90522 0.72691 0.12078 0.0
C508 C 0.86528 0.69913 0.09863 0.0
C509 C 0.8822 0.68093 0.02832 0.0
O510 O 0.86895 0.6957 0.03277 0.0
O511 O 0.92063 0.67844 0.08736 0.0
O512 O 0.91985 0.69403 0.11983 0.0
O513 O 0.89498 0.73605 0.05498 0.0
O514 O 0.9105 0.73064 0.08622 0.0
C515 C 0.92434 0.67839 0.10761 0.0
C516 C 0.90173 0.74357 0.07331 0.0
O517 O 0.89882 0.68019 0.03936 0.0
Mg518 Mg 0.6355 0.66418 0.36444 0.0
O519 O 0.64604 0.6959 0.37984 0.0
O520 O 0.68037 0.6994 0.37794 0.0
Mg521 Mg 0.69153 0.66921 0.36085 0.0
C522 C 0.66296 0.70661 0.38327 0.0
C523 C 0.59225 0.68183 0.37257 0.0
O524 O 0.5996 0.69621 0.35895 0.0
O525 O 0.64674 0.64472 0.3926 0.0
O526 O 0.68081 0.64528 0.38741 0.0
O527 O 0.63283 0.68057 0.33327 0.0
O528 O 0.66114 0.66495 0.34427 0.0
C529 C 0.6647 0.6383 0.39733 0.0
C530 C 0.65183 0.67595 0.32982 0.0
O531 O 0.60376 0.66698 0.37891 0.0
Mg532 Mg 0.6189 0.84781 0.62094 0.0
O533 O 0.61229 0.8608 0.58662 0.0
O534 O 0.58217 0.87759 0.58604 0.0
Mg535 Mg 0.56579 0.86861 0.61691 0.0
C536 C 0.59893 0.87229 0.57714 0.0
C537 C 0.66088 0.84386 0.59961 0.0
O538 O 0.65523 0.86301 0.59368 0.0
O539 O 0.59883 0.81738 0.61485 0.0
O540 O 0.57196 0.83449 0.60606 0.0
O541 O 0.63075 0.88008 0.62953 0.0
O542 O 0.59747 0.87071 0.63202 0.0
C543 C 0.58066 0.82247 0.61952 0.0
C544 C 0.61194 0.8857 0.63222 0.0
O545 O 0.64838 0.83205 0.61044 0.0
Mg546 Mg 0.35291 0.34473 0.0994 0.0
O547 O 0.35679 0.35283 0.06318 0.0
O548 O 0.39053 0.34938 0.05684 0.0
Mg549 Mg 0.40744 0.33791 0.08652 0.0
C550 C 0.37235 0.35399 0.05067 0.0
C551 C 0.30898 0.33388 0.11271 0.0
O552 O 0.32059 0.32653 0.1283 0.0
O553 O 0.35448 0.30885 0.09196 0.0
O554 O 0.38804 0.30626 0.08462 0.0
O555 O 0.36149 0.37912 0.10865 0.0
O556 O 0.38368 0.35338 0.10482 0.0
C557 C 0.36984 0.29784 0.08666 0.0
C558 C 0.38046 0.37335 0.1081 0.0
O559 O 0.31776 0.34276 0.09668 0.0
Mg560 Mg 0.44812 0.59876 0.8086 0.0
O561 O 0.42489 0.6199 0.82543 0.0
O562 O 0.39373 0.6139 0.81022 0.0
Mg563 Mg 0.3967 0.58783 0.78462 0.0
C564 C 0.40569 0.62371 0.82384 0.0
C565 C 0.47765 0.62578 0.83981 0.0
O566 O 0.46948 0.64174 0.82939 0.0
O567 O 0.43606 0.56868 0.82637 0.0
O568 O 0.40496 0.56356 0.81052 0.0
O569 O 0.45237 0.62433 0.78307 0.0
O570 O 0.42961 0.59693 0.78142 0.0
C571 C 0.4188 0.55814 0.82404 0.0
C572 C 0.43724 0.61422 0.77299 0.0
O573 O 0.4719 0.60657 0.83502 0.0
Mg574 Mg 0.10792 0.66096 0.60643 0.0
O575 O 0.11345 0.65398 0.57089 0.0
O576 O 0.08334 0.65411 0.55281 0.0
Mg577 Mg 0.05861 0.66254 0.57694 0.0
C578 C 0.10287 0.65196 0.55349 0.0
C579 C 0.15049 0.67286 0.6295 0.0
O580 O 0.13879 0.67376 0.64655 0.0
O581 O 0.10466 0.69598 0.59833 0.0
O582 O 0.07432 0.69625 0.5808 0.0
O583 O 0.10095 0.62586 0.61295 0.0
O584 O 0.07787 0.64909 0.60264 0.0
C585 C 0.09059 0.70594 0.58848 0.0
C586 C 0.08219 0.62958 0.60698 0.0
O587 O 0.14241 0.66737 0.61149 0.0
Mg588 Mg 0.06024 0.36449 0.34205 0.0
O589 O 0.0786 0.33663 0.35579 0.0
O590 O 0.10873 0.33663 0.3385 0.0
Mg591 Mg 0.10984 0.36394 0.31431 0.0
C592 C 0.09627 0.32883 0.35247 0.0
C593 C 0.02505 0.37684 0.372 0.0
O594 O 0.02863 0.39496 0.36167 0.0
O595 O 0.08079 0.38882 0.36102 0.0
O596 O 0.11022 0.38761 0.34263 0.0
O597 O 0.04645 0.34298 0.31648 0.0
O598 O 0.07594 0.36189 0.31335 0.0
C599 C 0.09957 0.395 0.35792 0.0
C600 C 0.06277 0.34782 0.30542 0.0
O601 O 0.03666 0.36124 0.36865 0.0
Mg602 Mg 0.40599 0.61074 0.39074 0.0
O603 O 0.38945 0.64238 0.39258 0.0
O604 O 0.35674 0.63616 0.40282 0.0
Mg605 Mg 0.35343 0.60001 0.40992 0.0
C606 C 0.37157 0.64896 0.39704 0.0
C607 C 0.44171 0.64612 0.37881 0.0
O608 O 0.42746 0.65619 0.36807 0.0
O609 O 0.40946 0.61278 0.42694 0.0
O610 O 0.37695 0.60584 0.43753 0.0
O611 O 0.39326 0.60597 0.35728 0.0
O612 O 0.37795 0.59421 0.38688 0.0
C613 C 0.39603 0.61036 0.44161 0.0
C614 C 0.37723 0.59712 0.36647 0.0
O615 O 0.43707 0.62847 0.38811 0.0
Mg616 Mg 0.07736 0.58637 0.18659 0.0
O617 O 0.09076 0.61734 0.17234 0.0
O618 O 0.12519 0.61695 0.17137 0.0
Mg619 Mg 0.13378 0.58512 0.18693 0.0
C620 C 0.10825 0.62611 0.16764 0.0
C621 C 0.02954 0.59531 0.18235 0.0
O622 O 0.0295 0.59167 0.20313 0.0
O623 O 0.0848 0.56812 0.15642 0.0
O624 O 0.11919 0.56628 0.15821 0.0
O625 O 0.0795 0.60113 0.2194 0.0
O626 O 0.10415 0.58279 0.20445 0.0
C627 C 0.10177 0.56177 0.14896 0.0
C628 C 0.09797 0.59387 0.22045 0.0
O629 O 0.04629 0.59425 0.17211 0.0
Mg630 Mg 0.13088 0.36837 0.89172 0.0
O631 O 0.1375 0.33231 0.89456 0.0
O632 O 0.16712 0.33011 0.91343 0.0
Mg633 Mg 0.17821 0.36369 0.924 0.0
C634 C 0.15179 0.32135 0.90307 0.0
C635 C 0.08581 0.3767 0.88478 0.0
O636 O 0.09404 0.3945 0.89326 0.0
O637 O 0.11966 0.36707 0.92613 0.0
O638 O 0.14919 0.36271 0.94419 0.0
O639 O 0.14998 0.37036 0.86194 0.0
O640 O 0.16249 0.37493 0.89494 0.0
C641 C 0.12958 0.36392 0.94355 0.0
C642 C 0.16588 0.37232 0.87475 0.0
O643 O 0.09755 0.36133 0.88082 0.0
Mg644 Mg 0.42685 0.42503 0.65921 0.0
O645 O 0.41484 0.39447 0.64233 0.0
O646 O 0.3826 0.38558 0.65202 0.0
Mg647 Mg 0.37427 0.41093 0.67701 0.0
C648 C 0.39863 0.38219 0.64101 0.0
C649 C 0.47169 0.42643 0.64422 0.0
O650 O 0.47365 0.4311 0.66478 0.0
O651 O 0.40664 0.4451 0.63756 0.0
O652 O 0.37542 0.43708 0.65109 0.0
O653 O 0.43861 0.40591 0.68652 0.0
O654 O 0.40719 0.41851 0.68508 0.0
C655 C 0.38716 0.44762 0.63814 0.0
C656 C 0.42059 0.40733 0.69507 0.0
O657 O 0.45365 0.42538 0.63588 0.0
Mg658 Mg 0.3226 0.05837 0.3598 0.0
O659 O 0.33774 0.07655 0.38858 0.0
O660 O 0.36946 0.06425 0.39304 0.0
Mg661 Mg 0.37447 0.03846 0.36764 0.0
C662 C 0.35515 0.0766 0.39853 0.0
C663 C 0.28282 0.07888 0.34405 0.0
O664 O 0.28413 0.06253 0.33076 0.0
O665 O 0.3423 0.078 0.33656 0.0
O666 O 0.3734 0.06418 0.34106 0.0
O667 O 0.3103 0.03239 0.38129 0.0
O668 O 0.34075 0.03213 0.36569 0.0
C669 C 0.36134 0.07709 0.33173 0.0
C670 C 0.32757 0.02304 0.37848 0.0
O671 O 0.29706 0.08227 0.35806 0.0
H672 H 0.07275 0.30322 0.37947 0.0
H673 H 0.16502 0.22525 0.40606 0.0
H674 H 0.13431 0.31134 0.35389 0.0
H675 H 0.10153 0.21099 0.42336 0.0
H676 H 0.15456 0.25883 0.38985 0.0
H677 H 0.08359 0.27125 0.39867 0.0
C678 C 0.08855 0.29837 0.37795 0.0
C679 C 0.10259 0.30993 0.36493 0.0
C680 C 0.14292 0.24838 0.39723 0.0
C681 C 0.11507 0.27343 0.38686 0.0
C682 C 0.14889 0.22921 0.40652 0.0
C683 C 0.13411 0.21524 0.41598 0.0
C684 C 0.12203 0.25366 0.39745 0.0
C685 C 0.11343 0.22123 0.41614 0.0
C686 C 0.09471 0.28009 0.38888 0.0
C687 C 0.12288 0.30288 0.3636 0.0
N688 N 0.10799 0.23999 0.40697 0.0
N689 N 0.12848 0.28509 0.37439 0.0
H690 H 0.99513 0.93145 0.65821 0.0
H691 H 0.91277 0.88624 0.57557 0.0
H692 H 0.00838 0.91394 0.59281 0.0
H693 H 0.89758 0.90894 0.63864 0.0
H694 H 0.946 0.90612 0.57812 0.0
H695 H 0.9587 0.93386 0.64824 0.0
C696 C 0.99052 0.92881 0.64158 0.0
C697 C 0.00469 0.92173 0.62647 0.0
C698 C 0.93528 0.90728 0.59125 0.0
C699 C 0.96299 0.92405 0.61508 0.0
C700 C 0.91631 0.89593 0.58975 0.0
C701 C 0.9027 0.89586 0.60702 0.0
C702 C 0.94093 0.918 0.61051 0.0
C703 C 0.90782 0.90865 0.62502 0.0
C704 C 0.96965 0.93008 0.63591 0.0
C705 C 0.99788 0.91885 0.60513 0.0
N706 N 0.92681 0.91881 0.62656 0.0
N707 N 0.97743 0.91948 0.60018 0.0
H708 H 0.32717 0.71773 0.88022 0.0
H709 H 0.42646 0.65032 0.85289 0.0
H710 H 0.38886 0.73445 0.90364 0.0
H711 H 0.36559 0.63626 0.82579 0.0
H712 H 0.4125 0.67976 0.87348 0.0
H713 H 0.34056 0.68649 0.8619 0.0
C714 C 0.34352 0.71482 0.88157 0.0
C715 C 0.35691 0.72879 0.89344 0.0
C716 C 0.40219 0.67018 0.86309 0.0
C717 C 0.37236 0.69302 0.87251 0.0
C718 C 0.41014 0.65331 0.85134 0.0
C719 C 0.39722 0.64078 0.83747 0.0
C720 C 0.38114 0.6746 0.86101 0.0
C721 C 0.37618 0.64548 0.83618 0.0
C722 C 0.35116 0.69697 0.87109 0.0
C723 C 0.37796 0.72417 0.89463 0.0
N724 N 0.36884 0.66203 0.84774 0.0
N725 N 0.38502 0.70671 0.88427 0.0
H726 H 0.4932 0.09607 0.16661 0.0
H727 H 0.58434 0.13689 0.09168 0.0
H728 H 0.48543 0.11974 0.10202 0.0
H729 H 0.5916 0.12322 0.15905 0.0
H730 H 0.55002 0.11898 0.09193 0.0
H731 H 0.53033 0.09441 0.16066 0.0
C732 C 0.49921 0.10045 0.151 0.0
C733 C 0.48628 0.10861 0.13496 0.0
C734 C 0.55928 0.11937 0.10657 0.0
C735 C 0.52873 0.10685 0.12813 0.0
C736 C 0.57887 0.12951 0.10638 0.0
C737 C 0.59054 0.13158 0.1254 0.0
C738 C 0.55122 0.1117 0.12607 0.0
C739 C 0.58293 0.12183 0.14407 0.0
C740 C 0.52043 0.09952 0.14763 0.0
C741 C 0.49488 0.11375 0.11497 0.0
N742 N 0.56349 0.11264 0.14407 0.0
N743 N 0.51563 0.11316 0.11225 0.0
H744 H 0.13933 0.64628 0.14448 0.0
H745 H 0.07867 0.75455 0.13176 0.0
H746 H 0.07783 0.655 0.16825 0.0
H747 H 0.12682 0.7381 0.08799 0.0
H748 H 0.082 0.7201 0.14955 0.0
H749 H 0.13855 0.68189 0.12755 0.0
C750 C 0.12574 0.6557 0.14622 0.0
C751 C 0.10859 0.64765 0.15772 0.0
C752 C 0.09188 0.72401 0.13608 0.0
C753 C 0.10771 0.68819 0.13866 0.0
C754 C 0.09007 0.74374 0.12597 0.0
C755 C 0.10248 0.74918 0.10834 0.0
C756 C 0.10632 0.7096 0.12867 0.0
C757 C 0.11689 0.73445 0.10147 0.0
C758 C 0.12528 0.67591 0.1365 0.0
C759 C 0.09135 0.66047 0.15942 0.0
N760 N 0.11846 0.71526 0.1117 0.0
N761 N 0.09139 0.6801 0.15008 0.0
H762 H 0.45402 0.80252 0.35111 0.0
H763 H 0.54225 0.88464 0.39672 0.0
H764 H 0.44218 0.86108 0.38547 0.0
H765 H 0.55443 0.83044 0.3559 0.0
H766 H 0.50594 0.87275 0.39772 0.0
H767 H 0.49105 0.80901 0.35786 0.0
C768 C 0.45916 0.81659 0.36033 0.0
C769 C 0.44499 0.83145 0.36747 0.0
C770 C 0.51656 0.86335 0.38867 0.0
C771 C 0.48734 0.839 0.37515 0.0
C772 C 0.53733 0.87013 0.38807 0.0
C773 C 0.55137 0.85868 0.37594 0.0
C774 C 0.5097 0.84501 0.37701 0.0
C775 C 0.54411 0.83988 0.36529 0.0
C776 C 0.48032 0.82031 0.36411 0.0
C777 C 0.45255 0.84932 0.37944 0.0
N778 N 0.52371 0.83373 0.3659 0.0
N779 N 0.47322 0.85269 0.38272 0.0
H780 H 0.37199 0.26754 0.56181 0.0
H781 H 0.43199 0.36603 0.62115 0.0
H782 H 0.43487 0.26632 0.58542 0.0
H783 H 0.36604 0.35505 0.62793 0.0
H784 H 0.43296 0.3336 0.59926 0.0
H785 H 0.3694 0.3038 0.57776 0.0
C786 C 0.38529 0.27508 0.57 0.0
C787 C 0.40364 0.26407 0.57244 0.0
C788 C 0.41825 0.33837 0.60544 0.0
C789 C 0.40091 0.30506 0.59026 0.0
C790 C 0.41765 0.35691 0.61793 0.0
C791 C 0.39892 0.36316 0.62666 0.0
C792 C 0.4 0.32601 0.60139 0.0
C793 C 0.38085 0.35067 0.62176 0.0
C794 C 0.38377 0.29557 0.57917 0.0
C795 C 0.42041 0.27429 0.58333 0.0
N796 N 0.38183 0.33259 0.60946 0.0
N797 N 0.41867 0.2942 0.59178 0.0
H798 H 0.05792 0.16523 0.82836 0.0
H799 H 0.97305 0.07702 0.86693 0.0
H800 H 0.07203 0.10312 0.85419 0.0
H801 H 0.95811 0.14213 0.85108 0.0
H802 H 0.00912 0.08572 0.85898 0.0
H803 H 0.02109 0.15672 0.83405 0.0
C804 C 0.0533 0.14986 0.83529 0.0
C805 C 0.06809 0.13487 0.84082 0.0
C806 C 0.99798 0.09812 0.85716 0.0
C807 C 0.02606 0.125 0.84716 0.0
C808 C 0.97732 0.09313 0.86162 0.0
C809 C 0.96254 0.10891 0.8598 0.0
C810 C 0.00399 0.11905 0.85081 0.0
C811 C 0.96902 0.12949 0.85275 0.0
C812 C 0.03229 0.14501 0.8385 0.0
C813 C 0.06121 0.1152 0.84971 0.0
N814 N 0.98932 0.13401 0.84859 0.0
N815 N 0.04073 0.11083 0.85254 0.0
H816 H 0.37845 0.12237 0.20314 0.0
H817 H 0.40165 0.08827 0.32304 0.0
H818 H 0.43724 0.13615 0.23493 0.0
H819 H 0.33943 0.09524 0.29898 0.0
H820 H 0.41493 0.10604 0.29083 0.0
H821 H 0.36352 0.11266 0.23792 0.0
C822 C 0.38815 0.12358 0.21745 0.0
C823 C 0.40917 0.12987 0.2161 0.0
C824 C 0.39836 0.10393 0.29271 0.0
C825 C 0.39227 0.11859 0.25581 0.0
C826 C 0.39077 0.09373 0.31107 0.0
C827 C 0.36941 0.09012 0.31362 0.0
C828 C 0.38451 0.11022 0.27658 0.0
C829 C 0.35602 0.09768 0.29766 0.0
C830 C 0.37961 0.11808 0.23729 0.0
C831 C 0.42099 0.13126 0.23517 0.0
N832 N 0.36381 0.10709 0.27965 0.0
N833 N 0.41245 0.12538 0.25418 0.0
H834 H 0.11619 0.13876 0.51924 0.0
H835 H 0.19695 0.07033 0.58021 0.0
H836 H 0.15259 0.09207 0.487 0.0
H837 H 0.14058 0.08635 0.61177 0.0
H838 H 0.1821 0.08166 0.54603 0.0
H839 H 0.12508 0.12226 0.55379 0.0
C840 C 0.12567 0.12482 0.51937 0.0
C841 C 0.13385 0.11693 0.50025 0.0
C842 C 0.17293 0.08257 0.56042 0.0
C843 C 0.14435 0.09848 0.53945 0.0
C844 C 0.18146 0.0763 0.57993 0.0
C845 C 0.16998 0.0775 0.59879 0.0
C846 C 0.15296 0.09054 0.55984 0.0
C847 C 0.14988 0.08516 0.59752 0.0
C848 C 0.13073 0.11546 0.53904 0.0
C849 C 0.14604 0.09881 0.50132 0.0
N850 N 0.14205 0.09169 0.57834 0.0
N851 N 0.15122 0.09046 0.52062 0.0
H852 H 0.08444 0.89395 0.82566 0.0
H853 H 0.09999 0.87378 0.70203 0.0
H854 H 0.14365 0.87945 0.79935 0.0
H855 H 0.04007 0.86975 0.73178 0.0
H856 H 0.11631 0.87323 0.73766 0.0
H857 H 0.06772 0.88211 0.79205 0.0
C858 C 0.09388 0.88789 0.81292 0.0
C859 C 0.11547 0.88792 0.81518 0.0
C860 C 0.0996 0.87214 0.73638 0.0
C861 C 0.0965 0.87478 0.77648 0.0
C862 C 0.09026 0.87256 0.71604 0.0
C863 C 0.06863 0.87213 0.71395 0.0
C864 C 0.0872 0.87161 0.75475 0.0
C865 C 0.0568 0.87031 0.73264 0.0
C866 C 0.08433 0.88113 0.79372 0.0
C867 C 0.12695 0.87974 0.79824 0.0
N868 N 0.06624 0.87045 0.75227 0.0
N869 N 0.11736 0.8739 0.77941 0.0
H870 H 0.38153 0.80277 0.00238 0.0
H871 H 0.32052 0.8837 0.07475 0.0
H872 H 0.33418 0.84354 0.97816 0.0
H873 H 0.38266 0.8669 0.0919 0.0
H874 H 0.32355 0.86451 0.04086 0.0
H875 H 0.38096 0.82226 0.03694 0.0
C876 C 0.37117 0.81586 0.00426 0.0
C877 C 0.35792 0.82156 0.98737 0.0
C878 C 0.33656 0.86505 0.05201 0.0
C879 C 0.35695 0.84347 0.02661 0.0
C880 C 0.33481 0.87592 0.07142 0.0
C881 C 0.35139 0.87698 0.08616 0.0
C882 C 0.35493 0.85486 0.04732 0.0
C883 C 0.36956 0.8666 0.0809 0.0
C884 C 0.37087 0.82695 0.0239 0.0
C885 C 0.34477 0.83862 0.99063 0.0
N886 N 0.37083 0.85583 0.0619 0.0
N887 N 0.34451 0.8488 0.00988 0.0
H888 H 0.38447 0.8101 0.27937 0.0
H889 H 0.30794 0.86117 0.19521 0.0
H890 H 0.32686 0.83831 0.29566 0.0
H891 H 0.37269 0.85124 0.18492 0.0
H892 H 0.30968 0.83967 0.22798 0.0
H893 H 0.37458 0.81145 0.24143 0.0
C894 C 0.36947 0.81602 0.27504 0.0
C895 C 0.35675 0.82477 0.29063 0.0
C896 C 0.32335 0.84177 0.21823 0.0
C897 C 0.34548 0.82648 0.2473 0.0
C898 C 0.32238 0.85399 0.1995 0.0
C899 C 0.34037 0.85847 0.18767 0.0
C900 C 0.34238 0.83391 0.225 0.0
C901 C 0.35859 0.84861 0.19388 0.0
C902 C 0.36388 0.81683 0.25336 0.0
C903 C 0.33736 0.83187 0.28411 0.0
N904 N 0.35922 0.83707 0.21232 0.0
N905 N 0.33249 0.83303 0.26286 0.0
H906 H 0.3479 0.17584 0.49642 0.0
H907 H 0.3895 0.08008 0.42468 0.0
H908 H 0.40628 0.1463 0.50746 0.0
H909 H 0.3296 0.10684 0.41477 0.0
H910 H 0.39573 0.10442 0.455 0.0
H911 H 0.34071 0.15083 0.46655 0.0
C912 C 0.35919 0.16408 0.49262 0.0
C913 C 0.37775 0.16322 0.50446 0.0
C914 C 0.38121 0.10498 0.44623 0.0
C915 C 0.36963 0.13458 0.47025 0.0
C916 C 0.37762 0.09106 0.42885 0.0
C917 C 0.35898 0.09136 0.41707 0.0
C918 C 0.36609 0.11942 0.45196 0.0
C919 C 0.3442 0.106 0.42335 0.0
C920 C 0.35506 0.14981 0.47555 0.0
C921 C 0.39178 0.14761 0.49879 0.0
N922 N 0.34809 0.11946 0.44034 0.0
N923 N 0.38745 0.13397 0.48209 0.0
H924 H 0.14278 0.16885 0.76737 0.0
H925 H 0.22986 0.11554 0.70141 0.0
H926 H 0.19774 0.14205 0.79444 0.0
H927 H 0.1663 0.12187 0.68171 0.0
H928 H 0.22498 0.14177 0.73029 0.0
H929 H 0.15892 0.16925 0.73215 0.0
C930 C 0.15851 0.16372 0.76608 0.0
C931 C 0.16859 0.15445 0.78362 0.0
C932 C 0.21235 0.13798 0.71914 0.0
C933 C 0.18695 0.1547 0.74346 0.0
C934 C 0.21512 0.12307 0.70269 0.0
C935 C 0.19823 0.11618 0.68973 0.0
C936 C 0.19263 0.14599 0.72235 0.0
C937 C 0.17951 0.12642 0.69184 0.0
C938 C 0.1677 0.16396 0.74595 0.0
C939 C 0.18913 0.14861 0.78114 0.0
N940 N 0.17709 0.14057 0.70813 0.0
N941 N 0.19745 0.14823 0.76123 0.0
H942 H 0.1322 0.83549 0.02235 0.0
H943 H 0.09515 0.90104 0.91965 0.0
H944 H 0.0687 0.85052 0.0095 0.0
H945 H 0.15654 0.87692 0.92608 0.0
H946 H 0.08565 0.88343 0.95314 0.0
H947 H 0.14193 0.85166 0.98795 0.0
C948 C 0.12031 0.84223 0.01233 0.0
C949 C 0.09959 0.84167 0.01883 0.0
C950 C 0.10118 0.88188 0.94722 0.0
C951 C 0.11063 0.86015 0.97947 0.0
C952 C 0.10665 0.89197 0.92806 0.0
C953 C 0.12673 0.89054 0.92003 0.0
C954 C 0.1159 0.87035 0.95863 0.0
C955 C 0.14088 0.87844 0.93164 0.0
C956 C 0.12587 0.85137 0.99266 0.0
C957 C 0.08485 0.85057 0.00516 0.0
N958 N 0.13523 0.86891 0.95045 0.0
N959 N 0.09066 0.85948 0.98618 0.0
H960 H 0.27982 0.34562 0.08298 0.0
H961 H 0.18769 0.33887 0.16653 0.0
H962 H 0.28623 0.32045 0.14718 0.0
H963 H 0.17833 0.35046 0.09881 0.0
H964 H 0.22356 0.33065 0.15944 0.0
H965 H 0.24241 0.34651 0.08803 0.0
C966 C 0.27336 0.34015 0.09807 0.0
C967 C 0.2862 0.33312 0.11474 0.0
C968 C 0.2136 0.33474 0.14609 0.0
C969 C 0.24346 0.33419 0.12067 0.0
C970 C 0.19309 0.33942 0.15013 0.0
C971 C 0.18002 0.34556 0.13328 0.0
C972 C 0.22117 0.33647 0.12507 0.0
C973 C 0.18786 0.3459 0.11232 0.0
C974 C 0.252 0.34061 0.10093 0.0
C975 C 0.27696 0.32611 0.13392 0.0
N976 N 0.208 0.34172 0.10885 0.0
N977 N 0.2562 0.32702 0.13642 0.0
H978 H 0.73718 0.11985 0.89964 0.0
H979 H 0.83921 0.09804 0.83937 0.0
H980 H 0.73236 0.06869 0.85252 0.0
H981 H 0.83374 0.08791 0.90772 0.0
H982 H 0.80114 0.09879 0.83665 0.0
H983 H 0.77462 0.12221 0.89446 0.0
C984 C 0.74389 0.10956 0.88775 0.0
C985 C 0.73174 0.09383 0.87671 0.0
C986 C 0.80852 0.09651 0.85215 0.0
C987 C 0.77428 0.09673 0.87062 0.0
C988 C 0.8301 0.09598 0.85376 0.0
C989 C 0.83974 0.09347 0.87393 0.0
C990 C 0.7968 0.09503 0.8709 0.0
C991 C 0.82717 0.0907 0.89199 0.0
C992 C 0.76519 0.11088 0.88491 0.0
C993 C 0.74128 0.08086 0.86152 0.0
N994 N 0.80639 0.09191 0.8901 0.0
N995 N 0.76215 0.08244 0.85903 0.0
H996 H 0.07563 0.437 0.11996 0.0
H997 H 0.13394 0.54686 0.1257 0.0
H998 H 0.13699 0.44754 0.09471 0.0
H999 H 0.06774 0.5394 0.1326 0.0
H1000 H 0.13359 0.5129 0.10606 0.0
H1001 H 0.07012 0.4753 0.11675 0.0
C1002 C 0.0878 0.44729 0.11331 0.0
C1003 C 0.10701 0.43917 0.1082 0.0
C1004 C 0.11904 0.51894 0.11136 0.0
C1005 C 0.10099 0.48315 0.10486 0.0
C1006 C 0.11925 0.53836 0.12261 0.0
C1007 C 0.10096 0.54555 0.13154 0.0
C1008 C 0.1005 0.50648 0.10947 0.0
C1009 C 0.08232 0.53417 0.12655 0.0
C1010 C 0.08463 0.46922 0.11139 0.0
C1011 C 0.12208 0.45322 0.09928 0.0
N1012 N 0.08264 0.51484 0.1164 0.0
N1013 N 0.11896 0.47464 0.09844 0.0
H1014 H 0.66043 0.93907 0.33191 0.0
H1015 H 0.75262 0.87026 0.35533 0.0
H1016 H 0.65241 0.8702 0.3365 0.0
H1017 H 0.75997 0.93031 0.32121 0.0
H1018 H 0.71635 0.86774 0.34395 0.0
H1019 H 0.69658 0.93507 0.3225 0.0
C1020 C 0.66616 0.92306 0.33003 0.0
C1021 C 0.65361 0.90494 0.33482 0.0
C1022 C 0.72604 0.88117 0.33846 0.0
C1023 C 0.69504 0.90019 0.3253 0.0
C1024 C 0.74676 0.88266 0.34503 0.0
C1025 C 0.75919 0.90079 0.33966 0.0
C1026 C 0.7177 0.89816 0.32683 0.0
C1027 C 0.75082 0.91625 0.32609 0.0
C1028 C 0.6868 0.92073 0.32478 0.0
C1029 C 0.6617 0.88452 0.33266 0.0
N1030 N 0.73045 0.91486 0.32058 0.0
N1031 N 0.68216 0.88268 0.32867 0.0
H1032 H 0.84793 0.96739 0.1266 0.0
H1033 H 0.89499 0.085 0.10572 0.0
H1034 H 0.9134 0.98368 0.13062 0.0
H1035 H 0.83309 0.06432 0.08601 0.0
H1036 H 0.90237 0.04768 0.11388 0.0
H1037 H 0.84239 0.0023 0.11021 0.0
C1038 C 0.86118 0.97817 0.12378 0.0
C1039 C 0.88113 0.97268 0.13024 0.0
C1040 C 0.88724 0.05128 0.10756 0.0
C1041 C 0.87485 0.01278 0.11176 0.0
C1042 C 0.883 0.0726 0.10299 0.0
C1043 C 0.86334 0.07779 0.09538 0.0
C1044 C 0.87163 0.03511 0.10475 0.0
C1045 C 0.84843 0.06105 0.09196 0.0
C1046 C 0.858 -0.00189 0.11441 0.0
C1047 C 0.89773 0.98726 0.12602 0.0
N1048 N 0.85281 0.04049 0.0969 0.0
N1049 N 0.89418 0.00677 0.11734 0.0
H1050 H 0.17654 0.68471 0.59719 0.0
H1051 H 0.27501 0.65298 0.6596 0.0
H1052 H 0.1755 0.67258 0.6654 0.0
H1053 H 0.27824 0.68843 0.60028 0.0
H1054 H 0.23967 0.66428 0.66438 0.0
H1055 H 0.21411 0.68958 0.59924 0.0
C1056 C 0.18424 0.68323 0.61265 0.0
C1057 C 0.17296 0.67784 0.63109 0.0
C1058 C 0.24827 0.67015 0.65063 0.0
C1059 C 0.21598 0.68332 0.63355 0.0
C1060 C 0.26847 0.66377 0.64795 0.0
C1061 C 0.27936 0.66955 0.62937 0.0
C1062 C 0.23878 0.68187 0.63428 0.0
C1063 C 0.27029 0.68356 0.61478 0.0
C1064 C 0.20568 0.68622 0.61385 0.0
C1065 C 0.18366 0.6765 0.65076 0.0
N1066 N 0.25025 0.68876 0.61722 0.0
N1067 N 0.20465 0.67879 0.65141 0.0
H1068 H 0.13963 0.39836 0.37124 0.0
H1069 H 0.13767 0.52225 0.39458 0.0
H1070 H 0.08206 0.43062 0.37479 0.0
H1071 H 0.18814 0.48368 0.41522 0.0
H1072 H 0.11648 0.48925 0.38817 0.0
H1073 H 0.15736 0.42938 0.3884 0.0
C1074 C 0.13069 0.41191 0.37596 0.0
C1075 C 0.10942 0.41206 0.37151 0.0
C1076 C 0.13208 0.48807 0.39444 0.0
C1077 C 0.12966 0.44782 0.3907 0.0
C1078 C 0.14422 0.50687 0.39801 0.0
C1079 C 0.16481 0.5057 0.40516 0.0
C1080 C 0.14074 0.468 0.39771 0.0
C1081 C 0.17242 0.48536 0.40952 0.0
C1082 C 0.1408 0.42959 0.38579 0.0
C1083 C 0.0985 0.42993 0.37801 0.0
N1084 N 0.1605 0.46731 0.4054 0.0
N1085 N 0.10883 0.44734 0.38692 0.0
H1086 H 0.44623 0.52662 0.83199 0.0
H1087 H 0.3532 0.44246 0.85677 0.0
H1088 H 0.38264 0.5426 0.84035 0.0
H1089 H 0.41289 0.4231 0.83552 0.0
H1090 H 0.36657 0.47944 0.85922 0.0
H1091 H 0.43702 0.48921 0.84185 0.0
C1092 C 0.43049 0.52239 0.83659 0.0
C1093 C 0.41509 0.53757 0.83524 0.0
C1094 C 0.37685 0.46714 0.85415 0.0
C1095 C 0.40448 0.4951 0.84621 0.0
C1096 C 0.3692 0.44598 0.85269 0.0
C1097 C 0.38185 0.42972 0.84555 0.0
C1098 C 0.39731 0.47227 0.84824 0.0
C1099 C 0.40257 0.43521 0.84089 0.0
C1100 C 0.42522 0.50105 0.84197 0.0
C1101 C 0.39491 0.5313 0.84105 0.0
N1102 N 0.40962 0.45614 0.84204 0.0
N1103 N 0.39016 0.51052 0.84608 0.0
H1104 H 0.87109 0.6716 0.63683 0.0
H1105 H 0.89936 0.7748 0.57029 0.0
H1106 H 0.8959 0.66853 0.57283 0.0
H1107 H 0.8517 0.77521 0.61813 0.0
H1108 H 0.89787 0.73557 0.571 0.0
H1109 H 0.86259 0.709 0.63037 0.0
C1110 C 0.87439 0.67862 0.62128 0.0
C1111 C 0.88456 0.66699 0.60548 0.0
C1112 C 0.88752 0.7442 0.58115 0.0
C1113 C 0.87518 0.7098 0.59818 0.0
C1114 C 0.88847 0.76659 0.58085 0.0
C1115 C 0.87579 0.77822 0.59434 0.0
C1116 C 0.87413 0.73334 0.59539 0.0
C1117 C 0.86179 0.76679 0.60753 0.0
C1118 C 0.86951 0.69997 0.61761 0.0
C1119 C 0.88827 0.67689 0.58558 0.0
N1120 N 0.86159 0.74492 0.60803 0.0
N1121 N 0.88397 0.69785 0.58266 0.0
H1122 H 0.99141 0.0724 0.35158 0.0
H1123 H 0.07068 0.14743 0.42055 0.0
H1124 H 0.98493 0.14055 0.36119 0.0
H1125 H 0.07628 0.07881 0.41364 0.0
H1126 H 0.03777 0.14458 0.40109 0.0
H1127 H 0.02096 0.07377 0.3765 0.0
C1128 C 0.99608 0.08761 0.35906 0.0
C1129 C 0.98579 0.10643 0.35412 0.0
C1130 C 0.04611 0.13011 0.40395 0.0
C1131 C 0.01965 0.10812 0.38258 0.0
C1132 C 0.06495 0.13172 0.41507 0.0
C1133 C 0.0764 0.11335 0.4186 0.0
C1134 C 0.03866 0.11001 0.39614 0.0
C1135 C 0.06806 0.09342 0.41122 0.0
C1136 C 0.01296 0.08838 0.37328 0.0
C1137 C 0.99247 0.12566 0.36438 0.0
N1138 N 0.04977 0.09231 0.40018 0.0
N1139 N 0.00906 0.12603 0.37798 0.0
H1140 H 0.63846 0.25155 0.13686 0.0
H1141 H 0.58555 0.35432 0.08765 0.0
H1142 H 0.59733 0.25047 0.08174 0.0
H1143 H 0.60228 0.34918 0.15484 0.0
H1144 H 0.60127 0.32009 0.08087 0.0
H1145 H 0.636 0.29088 0.13887 0.0
C1146 C 0.62938 0.25967 0.12487 0.0
C1147 C 0.61787 0.24787 0.10926 0.0
C1148 C 0.60181 0.32667 0.09702 0.0
C1149 C 0.61519 0.29244 0.11134 0.0
C1150 C 0.59286 0.34624 0.10095 0.0
C1151 C 0.59209 0.35441 0.12199 0.0
C1152 C 0.61014 0.31519 0.11419 0.0
C1153 C 0.60216 0.34331 0.13844 0.0
C1154 C 0.6279 0.282 0.1261 0.0
C1155 C 0.60622 0.25903 0.09417 0.0
N1156 N 0.61051 0.32405 0.13425 0.0
N1157 N 0.60508 0.28069 0.09565 0.0
H1158 H 0.41069 0.86646 0.91192 0.0
H1159 H 0.50216 0.81335 0.8478 0.0
H1160 H 0.41339 0.79831 0.89943 0.0
H1161 H 0.50129 0.88106 0.86298 0.0
H1162 H 0.47056 0.80733 0.86829 0.0
H1163 H 0.4445 0.87197 0.89538 0.0
C1164 C 0.41838 0.85263 0.90575 0.0
C1165 C 0.40906 0.83188 0.907 0.0
C1166 C 0.47734 0.82349 0.86728 0.0
C1167 C 0.44788 0.83812 0.88802 0.0
C1168 C 0.49543 0.82694 0.85559 0.0
C1169 C 0.50434 0.84777 0.85353 0.0
C1170 C 0.46798 0.84101 0.87691 0.0
C1171 C 0.49494 0.86474 0.86407 0.0
C1172 C 0.43773 0.8558 0.89634 0.0
C1173 C 0.41988 0.8146 0.89878 0.0
N1174 N 0.47719 0.86101 0.87516 0.0
N1175 N 0.43864 0.81813 0.88958 0.0
H1176 H 0.87355 0.18475 0.92563 0.0
H1177 H 0.83757 0.2743 0.8475 0.0
H1178 H 0.87064 0.17266 0.85735 0.0
H1179 H 0.88796 0.29023 0.89162 0.0
H1180 H 0.84041 0.23625 0.85656 0.0
H1181 H 0.87033 0.22342 0.91865 0.0
C1182 C 0.87211 0.19028 0.90921 0.0
C1183 C 0.87234 0.1757 0.89198 0.0
C1184 C 0.85065 0.24817 0.86438 0.0
C1185 C 0.86819 0.21929 0.88409 0.0
C1186 C 0.84896 0.26982 0.85941 0.0
C1187 C 0.86255 0.28536 0.8689 0.0
C1188 C 0.86562 0.24213 0.87935 0.0
C1189 C 0.87724 0.27867 0.88397 0.0
C1190 C 0.87039 0.2122 0.90529 0.0
C1191 C 0.87059 0.18351 0.87099 0.0
N1192 N 0.87831 0.25746 0.88891 0.0
N1193 N 0.86829 0.20484 0.8676 0.0
H1194 H 0.45072 0.14473 0.58027 0.0
H1195 H 0.48464 0.09799 0.6943 0.0
H1196 H 0.42749 0.1652 0.64143 0.0
H1197 H 0.51588 0.08486 0.63506 0.0
H1198 H 0.45808 0.11603 0.67377 0.0
H1199 H 0.46941 0.11652 0.59883 0.0
C1200 C 0.44932 0.1431 0.59752 0.0
C1201 C 0.4379 0.15757 0.60938 0.0
C1202 C 0.47062 0.10896 0.66523 0.0
C1203 C 0.45903 0.12546 0.63062 0.0
C1204 C 0.48576 0.0986 0.67696 0.0
C1205 C 0.50273 0.0903 0.66644 0.0
C1206 C 0.47251 0.1111 0.64285 0.0
C1207 C 0.50323 0.09135 0.64388 0.0
C1208 C 0.46 0.12706 0.6081 0.0
C1209 C 0.43649 0.15469 0.63169 0.0
N1210 N 0.48851 0.10186 0.63286 0.0
N1211 N 0.44706 0.1391 0.64158 0.0
H1212 H 0.61489 0.83199 0.39305 0.0
H1213 H 0.69437 0.73775 0.38608 0.0
H1214 H 0.68103 0.8435 0.38942 0.0
H1215 H 0.6288 0.72744 0.39619 0.0
H1216 H 0.69049 0.7764 0.39072 0.0
H1217 H 0.6202 0.79364 0.39677 0.0
C1218 C 0.63056 0.82648 0.39307 0.0
C1219 C 0.64753 0.84103 0.39075 0.0
C1220 C 0.67701 0.76563 0.39221 0.0
C1221 C 0.65373 0.79698 0.39504 0.0
C1222 C 0.67923 0.74352 0.38969 0.0
C1223 C 0.66184 0.72928 0.39043 0.0
C1224 C 0.65726 0.77356 0.39541 0.0
C1225 C 0.64263 0.73776 0.3952 0.0
C1226 C 0.63358 0.80454 0.39531 0.0
C1227 C 0.66747 0.83289 0.3911 0.0
N1228 N 0.64083 0.75933 0.39722 0.0
N1229 N 0.67001 0.81139 0.39303 0.0
H1230 H 0.05019 0.86287 0.08656 0.0
H1231 H 0.00136 0.92794 0.18306 0.0
H1232 H 0.07212 0.86222 0.15233 0.0
H1233 H 0.97019 0.91547 0.12224 0.0
H1234 H 0.03247 0.91265 0.16863 0.0
H1235 H 0.02604 0.89061 0.09631 0.0
C1236 C 0.05025 0.86891 0.10291 0.0
C1237 C 0.06288 0.86 0.11876 0.0
C1238 C 0.01891 0.91356 0.15834 0.0
C1239 C 0.03544 0.89156 0.12997 0.0
C1240 C 0.00115 0.92234 0.16655 0.0
C1241 C 0.983 0.92256 0.15399 0.0
C1242 C 0.01852 0.90494 0.13744 0.0
C1243 C 0.98373 0.91528 0.13262 0.0
C1244 C 0.03642 0.88464 0.10848 0.0
C1245 C 0.06237 0.86839 0.1397 0.0
N1246 N 0.00112 0.90648 0.1251 0.0
N1247 N 0.04873 0.88353 0.14474 0.0
H1248 H 0.54361 0.83096 0.63681 0.0
H1249 H 0.52885 0.83891 0.74736 0.0
H1250 H 0.60762 0.82319 0.65438 0.0
H1251 H 0.58949 0.87051 0.7464 0.0
H1252 H 0.53386 0.8266 0.71047 0.0
H1253 H 0.53625 0.83922 0.67434 0.0
C1254 C 0.55608 0.83089 0.64859 0.0
C1255 C 0.57626 0.82656 0.64241 0.0
C1256 C 0.546 0.83631 0.71837 0.0
C1257 C 0.56793 0.83574 0.68533 0.0
C1258 C 0.54325 0.84321 0.73946 0.0
C1259 C 0.55876 0.85585 0.75001 0.0
C1260 C 0.56448 0.84195 0.70784 0.0
C1261 C 0.57711 0.86085 0.73898 0.0
C1262 C 0.55183 0.8354 0.67 0.0
C1263 C 0.59184 0.82652 0.65836 0.0
N1264 N 0.57951 0.85379 0.71851 0.0
N1265 N 0.58739 0.83139 0.67906 0.0
H1266 H 0.83822 0.84215 0.53519 0.0
H1267 H 0.86173 0.89322 0.42187 0.0
H1268 H 0.89965 0.86639 0.51955 0.0
H1269 H 0.81466 0.8429 0.4307 0.0
H1270 H 0.87527 0.88605 0.45799 0.0
H1271 H 0.82805 0.84537 0.49743 0.0
C1272 C 0.84955 0.84822 0.52381 0.0
C1273 C 0.86979 0.85408 0.53049 0.0
C1274 C 0.86215 0.87642 0.45184 0.0
C1275 C 0.85823 0.85784 0.48734 0.0
C1276 C 0.85441 0.8805 0.43127 0.0
C1277 C 0.83696 0.86873 0.42331 0.0
C1278 C 0.85208 0.86081 0.46464 0.0
C1279 C 0.82814 0.85238 0.43616 0.0
C1280 C 0.84379 0.84987 0.50226 0.0
C1281 C 0.88389 0.86166 0.51503 0.0
N1282 N 0.8356 0.84913 0.45633 0.0
N1283 N 0.87779 0.86354 0.49415 0.0
H1284 H 0.914 0.15584 0.13962 0.0
H1285 H 0.90193 0.16905 0.26101 0.0
H1286 H 0.87825 0.20769 0.16325 0.0
H1287 H 0.96118 0.15323 0.23594 0.0
H1288 H 0.89234 0.18343 0.2258 0.0
H1289 H 0.93137 0.15398 0.17472 0.0
C1290 C 0.91005 0.16702 0.15216 0.0
C1291 C 0.89464 0.18184 0.14871 0.0
C1292 C 0.90764 0.17732 0.22816 0.0
C1293 C 0.91405 0.17952 0.18881 0.0
C1294 C 0.91305 0.16908 0.24815 0.0
C1295 C 0.93229 0.15997 0.25115 0.0
C1296 C 0.92131 0.17567 0.21097 0.0
C1297 C 0.94623 0.16027 0.23413 0.0
C1298 C 0.92004 0.16606 0.17208 0.0
C1299 C 0.89009 0.19606 0.16536 0.0
N1300 N 0.94027 0.1675 0.21451 0.0
N1301 N 0.89942 0.19422 0.18495 0.0
H1302 H 0.64253 0.15985 0.93553 0.0
H1303 H 0.64307 0.14024 0.05892 0.0
H1304 H 0.64481 0.09549 0.96087 0.0
H1305 H 0.59916 0.18383 0.03285 0.0
H1306 H 0.6492 0.12699 0.02251 0.0
H1307 H 0.63042 0.17225 0.97058 0.0
C1308 C 0.6401 0.14828 0.94832 0.0
C1309 C 0.64469 0.12662 0.94533 0.0
C1310 C 0.63822 0.13945 0.02483 0.0
C1311 C 0.63166 0.1408 0.98532 0.0
C1312 C 0.63489 0.14715 0.04549 0.0
C1313 C 0.62066 0.16317 0.04879 0.0
C1314 C 0.62767 0.14824 0.00733 0.0
C1315 C 0.61025 0.17143 0.03089 0.0
C1316 C 0.63324 0.15537 0.96823 0.0
C1317 C 0.64136 0.1123 0.96243 0.0
N1318 N 0.61415 0.16405 0.0108 0.0
N1319 N 0.63547 0.11973 0.98186 0.0
H1320 H 0.64356 0.14482 0.83625 0.0
H1321 H 0.62456 0.07564 0.73057 0.0
H1322 H 0.65103 0.07625 0.83313 0.0
H1323 H 0.58057 0.12337 0.74648 0.0
H1324 H 0.64213 0.08251 0.76487 0.0
H1325 H 0.62667 0.14302 0.80043 0.0
C1326 C 0.6416 0.12944 0.8281 0.0
C1327 C 0.64862 0.11063 0.83768 0.0
C1328 C 0.62876 0.09164 0.76072 0.0
C1329 C 0.63009 0.10868 0.79689 0.0
C1330 C 0.61878 0.08786 0.74108 0.0
C1331 C 0.60091 0.09879 0.73572 0.0
C1332 C 0.62107 0.10667 0.77505 0.0
C1333 C 0.59421 0.11449 0.75008 0.0
C1334 C 0.63199 0.12847 0.80778 0.0
C1335 C 0.64572 0.09112 0.82646 0.0
N1336 N 0.60428 0.11794 0.76924 0.0
N1337 N 0.63691 0.09071 0.80659 0.0
H1338 H 0.65599 0.91043 0.45764 0.0
H1339 H 0.57236 0.89194 0.54968 0.0
H1340 H 0.59014 0.91361 0.44666 0.0
H1341 H 0.63518 0.87138 0.55474 0.0
H1342 H 0.57965 0.90567 0.51381 0.0
H1343 H 0.64956 0.90271 0.49545 0.0
C1344 C 0.6402 0.9099 0.46322 0.0
C1345 C 0.62355 0.91246 0.44887 0.0
C1346 C 0.59183 0.89819 0.5228 0.0
C1347 C 0.61615 0.90343 0.49209 0.0
C1348 C 0.58771 0.89031 0.54329 0.0
C1349 C 0.60316 0.88035 0.55525 0.0
C1350 C 0.6116 0.89628 0.51422 0.0
C1351 C 0.62276 0.87879 0.54609 0.0
C1352 C 0.63656 0.90531 0.48478 0.0
C1353 C 0.60343 0.91156 0.45708 0.0
N1354 N 0.62642 0.88668 0.52611 0.0
N1355 N 0.60029 0.90697 0.47813 0.0
H1356 H 0.86814 0.8867 0.33059 0.0
H1357 H 0.85892 0.8937 0.20731 0.0
H1358 H 0.81653 0.85458 0.29764 0.0
H1359 H 0.9188 0.88808 0.23755 0.0
H1360 H 0.84266 0.87966 0.23994 0.0
H1361 H 0.88728 0.8875 0.29691 0.0
C1362 C 0.86106 0.87938 0.31632 0.0
C1363 C 0.84078 0.87059 0.31677 0.0
C1364 C 0.85938 0.88112 0.23924 0.0
C1365 C 0.86222 0.87206 0.27823 0.0
C1366 C 0.86865 0.88929 0.2207 0.0
C1367 C 0.89021 0.8923 0.21985 0.0
C1368 C 0.87175 0.87654 0.2572 0.0
C1369 C 0.9021 0.88606 0.2376 0.0
C1370 C 0.87196 0.87981 0.29716 0.0
C1371 C 0.8322 0.86139 0.2979 0.0
N1372 N 0.8927 0.87891 0.25576 0.0
N1373 N 0.84279 0.86284 0.27919 0.0
H1374 H 0.92472 0.09856 0.9706 0.0
H1375 H 0.89884 0.2007 0.02848 0.0
H1376 H 0.925 0.15949 0.93806 0.0
H1377 H 0.92044 0.14502 0.06166 0.0
H1378 H 0.91732 0.18969 -0.00352 0.0
H1379 H 0.93306 0.11725 0.00432 0.0
C1380 C 0.92755 0.11585 0.97046 0.0
C1381 C 0.92416 0.12758 0.95173 0.0
C1382 C 0.91862 0.18025 0.01098 0.0
C1383 C 0.93222 0.14925 0.99032 0.0
C1384 C 0.90809 0.1866 0.02928 0.0
C1385 C 0.90752 0.1733 0.0474 0.0
C1386 C 0.9283 0.16038 0.01089 0.0
C1387 C 0.91992 0.15532 0.04768 0.0
C1388 C 0.93212 0.12662 0.98973 0.0
C1389 C 0.92759 0.14996 0.95231 0.0
N1390 N 0.92935 0.14906 0.02951 0.0
N1391 N 0.93073 0.1602 0.97148 0.0
H1392 H 0.74163 0.56076 0.84903 0.0
H1393 H 0.69612 0.66928 0.89422 0.0
H1394 H 0.77961 0.61563 0.87031 0.0
H1395 H 0.66393 0.60723 0.89604 0.0
H1396 H 0.72416 0.65306 0.87443 0.0
H1397 H 0.71078 0.58108 0.8556 0.0
C1398 C 0.74352 0.57718 0.85479 0.0
C1399 C 0.76323 0.58639 0.85949 0.0
C1400 C 0.71071 0.64315 0.87875 0.0
C1401 C 0.72799 0.60973 0.86687 0.0
C1402 C 0.69464 0.65241 0.88984 0.0
C1403 C 0.67785 0.63948 0.89696 0.0
C1404 C 0.70974 0.62092 0.87456 0.0
C1405 C 0.67676 0.61768 0.89104 0.0
C1406 C 0.7259 0.58874 0.85854 0.0
C1407 C 0.7647 0.60779 0.86678 0.0
N1408 N 0.69259 0.60903 0.88037 0.0
N1409 N 0.7473 0.61869 0.87043 0.0
H1410 H 0.25539 0.87979 0.10811 0.0
H1411 H 0.15381 0.82259 0.15773 0.0
H1412 H 0.24532 0.87207 0.17616 0.0
H1413 H 0.1612 0.83488 0.08992 0.0
H1414 H 0.18806 0.83917 0.16452 0.0
H1415 H 0.2216 0.86201 0.1009 0.0
C1416 C 0.24608 0.87436 0.12154 0.0
C1417 C 0.25318 0.87747 0.14278 0.0
C1418 C 0.18221 0.83822 0.14815 0.0
C1419 C 0.21453 0.85708 0.13463 0.0
C1420 C 0.16263 0.82871 0.14423 0.0
C1421 C 0.15453 0.82735 0.12321 0.0
C1422 C 0.19385 0.84645 0.13092 0.0
C1423 C 0.16675 0.83559 0.10639 0.0
C1424 C 0.22679 0.86422 0.1174 0.0
C1425 C 0.24047 0.87008 0.15953 0.0
N1426 N 0.18579 0.8448 0.11063 0.0
N1427 N 0.22178 0.86023 0.15509 0.0
H1428 H 0.87207 0.50623 0.89002 0.0
H1429 H 0.82422 0.38923 0.89317 0.0
H1430 H 0.80786 0.49173 0.90376 0.0
H1431 H 0.88991 0.40418 0.89135 0.0
H1432 H 0.8188 0.42579 0.90548 0.0
H1433 H 0.87986 0.46923 0.89826 0.0
C1434 C 0.85964 0.49537 0.89512 0.0
C1435 C 0.8392 0.50198 0.89571 0.0
C1436 C 0.83446 0.42094 0.90293 0.0
C1437 C 0.84796 0.45932 0.90487 0.0
C1438 C 0.83758 0.39999 0.89595 0.0
C1439 C 0.85749 0.39379 0.89055 0.0
C1440 C 0.85133 0.43586 0.9042 0.0
C1441 C 0.87422 0.40833 0.89486 0.0
C1442 C 0.86411 0.47418 0.89992 0.0
C1443 C 0.82381 0.48724 0.90283 0.0
N1444 N 0.87071 0.42887 0.90086 0.0
N1445 N 0.82841 0.46645 0.90665 0.0
H1446 H 0.26959 0.1025 0.60028 0.0
H1447 H 0.35023 0.19863 0.6326 0.0
H1448 H 0.28352 0.12302 0.66543 0.0
H1449 H 0.34659 0.17043 0.56903 0.0
H1450 H 0.32136 0.17489 0.64338 0.0
H1451 H 0.2941 0.13052 0.58732 0.0
C1452 C 0.27778 0.11288 0.61184 0.0
C1453 C 0.27464 0.1103 0.63398 0.0
C1454 C 0.32677 0.17402 0.62702 0.0
C1455 C 0.30239 0.14246 0.61928 0.0
C1456 C 0.3432 0.18768 0.62079 0.0
C1457 C 0.35109 0.18637 0.59994 0.0
C1458 C 0.31809 0.1589 0.61232 0.0
C1459 C 0.34118 0.1719 0.58534 0.0
C1460 C 0.29171 0.12887 0.60444 0.0
C1461 C 0.28557 0.12426 0.64823 0.0
N1462 N 0.32532 0.15857 0.59187 0.0
N1463 N 0.29894 0.13971 0.64064 0.0
H1464 H 0.13438 0.97164 0.88787 0.0
H1465 H 0.19904 0.08101 0.87931 0.0
H1466 H 0.20103 0.97623 0.88943 0.0
H1467 H 0.13236 0.07579 0.88182 0.0
H1468 H 0.20044 0.04405 0.892 0.0
H1469 H 0.13364 0.01017 0.89445 0.0
C1470 C 0.14887 0.98073 0.88984 0.0
C1471 C 0.16778 0.97085 0.88747 0.0
C1472 C 0.18552 0.05114 0.89022 0.0
C1473 C 0.16712 0.01511 0.89481 0.0
C1474 C 0.18469 0.07231 0.88301 0.0
C1475 C 0.16551 0.08134 0.87882 0.0
C1476 C 0.16705 0.03889 0.8931 0.0
C1477 C 0.14749 0.06935 0.88428 0.0
C1478 C 0.14846 0.00277 0.89372 0.0
C1479 C 0.1861 0.9833 0.89087 0.0
N1480 N 0.14869 0.04861 0.89068 0.0
N1481 N 0.18534 0.00492 0.89387 0.0
H1482 H 0.7883 0.33227 0.392 0.0
H1483 H 0.74079 0.4395 0.34637 0.0
H1484 H 0.8219 0.39339 0.38792 0.0
H1485 H 0.70495 0.38886 0.37756 0.0
H1486 H 0.77122 0.41756 0.34875 0.0
H1487 H 0.75884 0.34797 0.37345 0.0
C1488 C 0.78978 0.34873 0.38642 0.0
C1489 C 0.8074 0.36168 0.39165 0.0
C1490 C 0.75658 0.41113 0.35468 0.0
C1491 C 0.77394 0.37963 0.37069 0.0
C1492 C 0.7392 0.42361 0.35334 0.0
C1493 C 0.7204 0.41616 0.3622 0.0
C1494 C 0.7551 0.39099 0.36474 0.0
C1495 C 0.71923 0.39536 0.37088 0.0
C1496 C 0.77292 0.35771 0.37606 0.0
C1497 C 0.80847 0.38297 0.38433 0.0
N1498 N 0.73643 0.38357 0.37215 0.0
N1499 N 0.79185 0.39138 0.37443 0.0
H1500 H 0.79972 0.46887 0.60122 0.0
H1501 H 0.8667 0.56574 0.65543 0.0
H1502 H 0.82181 0.47007 0.66695 0.0
H1503 H 0.86905 0.5531 0.58718 0.0
H1504 H 0.8427 0.53498 0.65926 0.0
H1505 H 0.8183 0.50378 0.59533 0.0
C1506 C 0.80826 0.47659 0.61441 0.0
C1507 C 0.80941 0.46661 0.63455 0.0
C1508 C 0.84837 0.539 0.64342 0.0
C1509 C 0.83019 0.50622 0.62808 0.0
C1510 C 0.86208 0.55661 0.64117 0.0
C1511 C 0.87021 0.56187 0.62097 0.0
C1512 C 0.84259 0.52649 0.62536 0.0
C1513 C 0.86336 0.54949 0.60309 0.0
C1514 C 0.81888 0.49636 0.61103 0.0
C1515 C 0.8207 0.47714 0.65112 0.0
N1516 N 0.85001 0.53222 0.60572 0.0
N1517 N 0.8306 0.49635 0.64753 0.0
H1518 H 0.68646 0.52016 0.14179 0.0
H1519 H 0.5748 0.47457 0.10586 0.0
H1520 H 0.63607 0.56252 0.13269 0.0
H1521 H 0.61046 0.44372 0.15507 0.0
H1522 H 0.6007 0.50468 0.10585 0.0
H1523 H 0.66207 0.4891 0.13632 0.0
C1524 C 0.67035 0.52286 0.13821 0.0
C1525 C 0.66309 0.54374 0.13783 0.0
C1526 C 0.60281 0.49121 0.11652 0.0
C1527 C 0.63549 0.50873 0.13136 0.0
C1528 C 0.58812 0.47411 0.11654 0.0
C1529 C 0.59046 0.45684 0.13065 0.0
C1530 C 0.62017 0.49059 0.1302 0.0
C1531 C 0.608 0.45692 0.14416 0.0
C1532 C 0.6565 0.50525 0.13526 0.0
C1533 C 0.64211 0.54657 0.13333 0.0
N1534 N 0.62229 0.47349 0.14351 0.0
N1535 N 0.62898 0.52922 0.1302 0.0
H1536 H 0.6097 0.74048 0.90767 0.0
H1537 H 0.62758 0.82313 0.81093 0.0
H1538 H 0.66369 0.74164 0.86757 0.0
H1539 H 0.57241 0.81988 0.84931 0.0
H1540 H 0.64086 0.7931 0.83118 0.0
H1541 H 0.59579 0.76941 0.88632 0.0
C1542 C 0.61868 0.74682 0.89438 0.0
C1543 C 0.63796 0.73863 0.88945 0.0
C1544 C 0.62582 0.79891 0.83514 0.0
C1545 C 0.62202 0.77184 0.86486 0.0
C1546 C 0.61819 0.81608 0.82357 0.0
C1547 C 0.59883 0.82416 0.82844 0.0
C1548 C 0.61407 0.78969 0.85179 0.0
C1549 C 0.5874 0.81426 0.84498 0.0
C1550 C 0.61067 0.76335 0.88216 0.0
C1551 C 0.6488 0.74747 0.87198 0.0
N1552 N 0.59524 0.79761 0.8561 0.0
N1553 N 0.64068 0.76363 0.86034 0.0
H1554 H 0.50617 0.41136 0.10471 0.0
H1555 H 0.38861 0.40313 0.13986 0.0
H1556 H 0.48571 0.4277 0.16821 0.0
H1557 H 0.41252 0.37838 0.08084 0.0
H1558 H 0.42209 0.4223 0.14671 0.0
H1559 H 0.47041 0.4101 0.0921 0.0
C1560 C 0.49421 0.41514 0.11593 0.0
C1561 C 0.49891 0.41913 0.13767 0.0
C1562 C 0.41983 0.41306 0.13203 0.0
C1563 C 0.45777 0.41722 0.12342 0.0
C1564 C 0.40073 0.40225 0.12809 0.0
C1565 C 0.3981 0.38889 0.11 0.0
C1566 C 0.43615 0.41049 0.11764 0.0
C1567 C 0.41418 0.38813 0.09523 0.0
C1568 C 0.47372 0.41436 0.10872 0.0
C1569 C 0.48273 0.42425 0.15136 0.0
N1570 N 0.43258 0.39856 0.09948 0.0
N1571 N 0.46279 0.42266 0.14413 0.0
H1572 H 0.8668 0.18103 0.31939 0.0
H1573 H 0.90147 0.25571 0.41967 0.0
H1574 H 0.92476 0.17564 0.35378 0.0
H1575 H 0.84448 0.26222 0.3839 0.0
H1576 H 0.90985 0.2257 0.39637 0.0
H1577 H 0.8579 0.20998 0.34365 0.0
C1578 C 0.87765 0.18585 0.33208 0.0
C1579 C 0.89661 0.17586 0.33447 0.0
C1580 C 0.8955 0.23367 0.39363 0.0
C1581 C 0.88647 0.20915 0.36234 0.0
C1582 C 0.8907 0.25083 0.40693 0.0
C1583 C 0.87224 0.26153 0.40373 0.0
C1584 C 0.88175 0.22713 0.37699 0.0
C1585 C 0.85889 0.25447 0.38695 0.0
C1586 C 0.87255 0.20244 0.34593 0.0
C1587 C 0.90999 0.18286 0.35127 0.0
N1588 N 0.86391 0.23773 0.37422 0.0
N1589 N 0.90468 0.1991 0.36452 0.0
H1590 H 0.97395 0.5735 0.6562 0.0
H1591 H 0.07498 0.59653 0.6351 0.0
H1592 H 0.96098 0.5972 0.5926 0.0
H1593 H 0.05203 0.62387 0.57644 0.0
H1594 H 0.04243 0.57569 0.63857 0.0
H1595 H 0.00996 0.57066 0.64678 0.0
C1596 C 0.97859 0.57751 0.63999 0.0
C1597 C 0.96458 0.58635 0.62542 0.0
C1598 C 0.04438 0.58605 0.6248 0.0
C1599 C 0.00611 0.58348 0.61441 0.0
C1600 C 0.06318 0.59775 0.6227 0.0
C1601 C 0.06575 0.61254 0.60594 0.0
C1602 C 0.02812 0.58945 0.61004 0.0
C1603 C 0.05024 0.61335 0.59013 0.0
C1604 C -0.00064 0.57598 0.63456 0.0
C1605 C 0.97136 0.59088 0.60457 0.0
N1606 N 0.03197 0.60231 0.59278 0.0
N1607 N 0.99172 0.58987 0.59987 0.0
H1608 H 0.56229 0.22803 0.60096 0.0
H1609 H 0.63013 0.12985 0.63469 0.0
H1610 H 0.61949 0.21646 0.56886 0.0
H1611 H 0.56421 0.13151 0.64413 0.0
H1612 H 0.62838 0.16239 0.61251 0.0
H1613 H 0.56461 0.19379 0.61937 0.0
C1614 C 0.57538 0.21824 0.59777 0.0
C1615 C 0.59075 0.22513 0.58337 0.0
C1616 C 0.61433 0.15544 0.61933 0.0
C1617 C 0.59357 0.18576 0.60461 0.0
C1618 C 0.6153 0.13693 0.63203 0.0
C1619 C 0.59731 0.12794 0.64145 0.0
C1620 C 0.5953 0.16516 0.61634 0.0
C1621 C 0.57853 0.1378 0.63734 0.0
C1622 C 0.57664 0.19861 0.60823 0.0
C1623 C 0.60728 0.21168 0.57979 0.0
N1624 N 0.57808 0.15591 0.62531 0.0
N1625 N 0.60839 0.19266 0.59052 0.0
H1626 H 0.06246 0.34078 0.8721 0.0
H1627 H 0.95614 0.40216 0.87223 0.0
H1628 H 0.05752 0.40759 0.8895 0.0
H1629 H 0.95889 0.33359 0.86262 0.0
H1630 H 0.99346 0.40426 0.87822 0.0
H1631 H 0.02476 0.33769 0.86762 0.0
C1632 C 0.05348 0.35481 0.87489 0.0
C1633 C 0.06318 0.37449 0.88116 0.0
C1634 C 0.98592 0.38872 0.87492 0.0
C1635 C 0.0201 0.37104 0.87615 0.0
C1636 C 0.96458 0.3875 0.87151 0.0
C1637 C 0.95436 0.36768 0.86685 0.0
C1638 C 0.99725 0.37 0.87352 0.0
C1639 C 0.96613 0.34921 0.86619 0.0
C1640 C 0.03196 0.35301 0.87243 0.0
C1641 C 0.05075 0.3921 0.88465 0.0
N1642 N 0.98698 0.35084 0.86934 0.0
N1643 N 0.02991 0.38996 0.88208 0.0
H1644 H 0.92861 0.76715 0.09788 0.0
H1645 H 0.85587 0.86103 0.12445 0.0
H1646 H 0.87037 0.77098 0.0639 0.0
H1647 H 0.92253 0.86832 0.12764 0.0
H1648 H 0.85912 0.82764 0.10378 0.0
H1649 H 0.92512 0.80362 0.11114 0.0
C1650 C 0.91509 0.77578 0.09314 0.0
C1651 C 0.89972 0.76612 0.07985 0.0
C1652 C 0.87295 0.83681 0.10877 0.0
C1653 C 0.89548 0.80782 0.09522 0.0
C1654 C 0.87115 0.85579 0.12063 0.0
C1655 C 0.88896 0.86737 0.12808 0.0
C1656 C 0.89267 0.8293 0.1047 0.0
C1657 C 0.90834 0.85988 0.12249 0.0
C1658 C 0.91316 0.79663 0.10062 0.0
C1659 C 0.88256 0.77801 0.07409 0.0
N1660 N 0.90966 0.8412 0.11143 0.0
N1661 N 0.8807 0.79825 0.08211 0.0
H1662 H 0.45965 0.68052 0.35724 0.0
H1663 H 0.57253 0.65616 0.40203 0.0
H1664 H 0.47285 0.63168 0.404 0.0
H1665 H 0.5613 0.70483 0.3545 0.0
H1666 H 0.53535 0.65057 0.4063 0.0
H1667 H 0.49615 0.69287 0.35887 0.0
C1668 C 0.47016 0.6725 0.36792 0.0
C1669 C 0.46326 0.65486 0.38027 0.0
C1670 C 0.54097 0.66263 0.39507 0.0
C1671 C 0.50484 0.6689 0.38229 0.0
C1672 C 0.56224 0.66585 0.39266 0.0
C1673 C 0.57002 0.68075 0.37767 0.0
C1674 C 0.52735 0.67425 0.38224 0.0
C1675 C 0.55595 0.69304 0.36613 0.0
C1676 C 0.49096 0.67956 0.36887 0.0
C1677 C 0.4775 0.64515 0.39395 0.0
N1678 N 0.53526 0.68931 0.36844 0.0
N1679 N 0.49759 0.65221 0.39449 0.0
H1680 H 0.90165 0.59033 0.82647 0.0
H1681 H 0.8701 0.61709 0.70644 0.0
H1682 H 0.83806 0.59434 0.80556 0.0
H1683 H 0.93186 0.6284 0.73225 0.0
H1684 H 0.85762 0.61079 0.74291 0.0
H1685 H 0.91275 0.60643 0.79264 0.0
C1686 C 0.89 0.59485 0.81486 0.0
C1687 C 0.8689 0.59076 0.81876 0.0
C1688 C 0.87385 0.61494 0.74061 0.0
C1689 C 0.88152 0.60895 0.77981 0.0
C1690 C 0.881 0.6185 0.71979 0.0
C1691 C 0.90211 0.62301 0.71626 0.0
C1692 C 0.88796 0.61566 0.75797 0.0
C1693 C 0.91549 0.62477 0.73417 0.0
C1694 C 0.89635 0.60408 0.79554 0.0
C1695 C 0.8545 0.59714 0.80321 0.0
N1696 N 0.90824 0.62082 0.75421 0.0
N1697 N 0.86109 0.6056 0.78425 0.0
H1698 H 0.68045 0.64851 0.10432 0.0
H1699 H 0.622 0.63992 0.9945 0.0
H1700 H 0.62356 0.61007 0.09861 0.0
H1701 H 0.6495 0.70088 0.01531 0.0
H1702 H 0.62415 0.62683 0.03156 0.0
H1703 H 0.67185 0.66637 0.07045 0.0
C1704 C 0.66612 0.64393 0.09599 0.0
C1705 C 0.6527 0.62778 0.1042 0.0
C1706 C 0.62936 0.64319 0.02806 0.0
C1707 C 0.643 0.64783 0.06555 0.0
C1708 C 0.62819 0.65062 0.00699 0.0
C1709 C 0.63561 0.67144 0.00204 0.0
C1710 C 0.63866 0.65648 0.04401 0.0
C1711 C 0.64348 0.68476 0.01867 0.0
C1712 C 0.66117 0.6542 0.07682 0.0
C1713 C 0.63429 0.62249 0.09285 0.0
N1714 N 0.64523 0.6769 0.03894 0.0
N1715 N 0.63013 0.63225 0.07389 0.0
H1716 H 0.55469 0.44653 0.23569 0.0
H1717 H 0.64091 0.41814 0.32222 0.0
H1718 H 0.59706 0.3959 0.22489 0.0
H1719 H 0.58736 0.4547 0.33624 0.0
H1720 H 0.62618 0.40988 0.28648 0.0
H1721 H 0.56797 0.45055 0.27225 0.0
C1722 C 0.56685 0.43626 0.24099 0.0
C1723 C 0.5748 0.42088 0.22716 0.0
C1724 C 0.61761 0.41952 0.29752 0.0
C1725 C 0.59014 0.42541 0.26925 0.0
C1726 C 0.62598 0.42422 0.31794 0.0
C1727 C 0.61547 0.43732 0.33226 0.0
C1728 C 0.59873 0.42815 0.29135 0.0
C1729 C 0.59615 0.44469 0.32578 0.0
C1730 C 0.57436 0.43848 0.26197 0.0
C1731 C 0.59049 0.40796 0.23503 0.0
N1732 N 0.58855 0.44018 0.30577 0.0
N1733 N 0.59776 0.4106 0.25556 0.0
H1734 H 0.8606 0.4082 0.58808 0.0
H1735 H 0.84162 0.30497 0.51248 0.0
H1736 H 0.81208 0.35975 0.59824 0.0
H1737 H 0.86431 0.36633 0.48859 0.0
H1738 H 0.84013 0.32069 0.54871 0.0
H1739 H 0.87067 0.38879 0.55566 0.0
C1740 C 0.8522 0.39341 0.58358 0.0
C1741 C 0.83531 0.38569 0.59562 0.0
C1742 C 0.84577 0.33056 0.53555 0.0
C1743 C 0.84701 0.36333 0.55911 0.0
C1744 C 0.84679 0.32158 0.51502 0.0
C1745 C 0.85278 0.33455 0.49767 0.0
C1746 C 0.85115 0.35247 0.53862 0.0
C1747 C 0.8592 0.356 0.50159 0.0
C1748 C 0.85796 0.38238 0.56517 0.0
C1749 C 0.82498 0.36642 0.58918 0.0
N1750 N 0.85811 0.36438 0.5217 0.0
N1751 N 0.831 0.35587 0.57134 0.0
H1752 H 0.88991 0.3224 0.77205 0.0
H1753 H 0.79303 0.35981 0.70468 0.0
H1754 H 0.83186 0.33992 0.79913 0.0
H1755 H 0.85617 0.36259 0.68316 0.0
H1756 H 0.80362 0.33811 0.73545 0.0
H1757 H 0.87381 0.3224 0.73629 0.0
C1758 C 0.87364 0.32567 0.77057 0.0
C1759 C 0.86237 0.33183 0.78852 0.0
C1760 C 0.81501 0.34299 0.72364 0.0
C1761 C 0.84396 0.33188 0.74778 0.0
C1762 C 0.80898 0.35528 0.70608 0.0
C1763 C 0.8239 0.36342 0.69179 0.0
C1764 C 0.83602 0.33877 0.72666 0.0
C1765 C 0.84432 0.35704 0.6942 0.0
C1766 C 0.86448 0.32569 0.75016 0.0
C1767 C 0.84128 0.33562 0.7857 0.0
N1768 N 0.84986 0.34537 0.71153 0.0
N1769 N 0.83284 0.33599 0.76564 0.0
H1770 H 0.89335 0.5838 0.93002 0.0
H1771 H 0.84775 0.67699 0.00225 0.0
H1772 H 0.83173 0.60681 0.92137 0.0
H1773 H 0.9073 0.64997 0.01342 0.0
H1774 H 0.84167 0.65193 0.97223 0.0
H1775 H 0.89883 0.60855 0.96016 0.0
C1776 C 0.88094 0.59406 0.93442 0.0
C1777 C 0.86203 0.59317 0.92307 0.0
C1778 C 0.85605 0.65147 0.98128 0.0
C1779 C 0.86827 0.62166 0.95773 0.0
C1780 C 0.85954 0.66579 -0.00158 0.0
C1781 C 0.87808 0.66561 0.01037 0.0
C1782 C 0.87124 0.63693 0.976 0.0
C1783 C 0.89278 0.6507 0.00468 0.0
C1784 C 0.8841 0.60819 0.9517 0.0
C1785 C 0.84656 0.60689 0.92962 0.0
N1786 N 0.88906 0.63701 0.98789 0.0
N1787 N 0.85004 0.62058 0.94649 0.0
H1788 H 0.6893 0.66351 0.31508 0.0
H1789 H 0.64134 0.65194 0.20137 0.0
H1790 H 0.63476 0.69647 0.29569 0.0
H1791 H 0.70555 0.63979 0.21371 0.0
H1792 H 0.64089 0.67344 0.23419 0.0
H1793 H 0.69864 0.66022 0.27734 0.0
C1794 C 0.6796 0.6706 0.30294 0.0
C1795 C 0.66089 0.67966 0.30846 0.0
C1796 C 0.65524 0.66651 0.22952 0.0
C1797 C 0.67125 0.67563 0.26533 0.0
C1798 C 0.65545 0.65416 0.21082 0.0
C1799 C 0.67338 0.64377 0.2051 0.0
C1800 C 0.67291 0.66794 0.24291 0.0
C1801 C 0.69134 0.64739 0.2177 0.0
C1802 C 0.68492 0.66871 0.28137 0.0
C1803 C 0.64905 0.68885 0.2921 0.0
N1804 N 0.69052 0.65873 0.23636 0.0
N1805 N 0.65415 0.6861 0.27123 0.0
H1806 H 0.56342 0.34465 0.5007 0.0
H1807 H 0.65618 0.40058 0.43452 0.0
H1808 H 0.6268 0.32661 0.50826 0.0
H1809 H 0.59476 0.4249 0.43785 0.0
H1810 H 0.64566 0.3718 0.45939 0.0
H1811 H 0.57454 0.37228 0.47527 0.0
C1812 C 0.5797 0.34642 0.49696 0.0
C1813 C 0.5942 0.33327 0.5067 0.0
C1814 C 0.63453 0.38348 0.45467 0.0
C1815 C 0.60709 0.36509 0.47746 0.0
C1816 C 0.64051 0.39991 0.44045 0.0
C1817 C 0.62636 0.41527 0.43406 0.0
C1818 C 0.61422 0.38228 0.46241 0.0
C1819 C 0.60626 0.41354 0.44232 0.0
C1820 C 0.58606 0.3623 0.48245 0.0
C1821 C 0.61509 0.3364 0.50117 0.0
N1822 N 0.60082 0.39735 0.45597 0.0
N1823 N 0.62092 0.352 0.4869 0.0
H1824 H 0.68967 0.86325 0.57379 0.0
H1825 H 0.78425 0.80316 0.62703 0.0
H1826 H 0.68164 0.8115 0.6193 0.0
H1827 H 0.79082 0.85594 0.58247 0.0
H1828 H 0.74668 0.80314 0.62172 0.0
H1829 H 0.72666 0.85753 0.57356 0.0
C1830 C 0.69567 0.85049 0.58355 0.0
C1831 C 0.68258 0.838 0.59678 0.0
C1832 C 0.75638 0.81462 0.61301 0.0
C1833 C 0.72507 0.83153 0.59683 0.0
C1834 C 0.77782 0.81467 0.61606 0.0
C1835 C 0.7907 0.82972 0.60535 0.0
C1836 C 0.74779 0.82972 0.59914 0.0
C1837 C 0.78152 0.84417 0.59123 0.0
C1838 C 0.71683 0.84725 0.58346 0.0
C1839 C 0.69119 0.82156 0.60893 0.0
N1840 N 0.76066 0.84387 0.58864 0.0
N1841 N 0.71197 0.81897 0.60888 0.0
H1842 H 0.25405 0.54833 0.35521 0.0
H1843 H 0.35297 0.62891 0.3529 0.0
H1844 H 0.2545 0.61426 0.37717 0.0
H1845 H 0.35543 0.56005 0.35783 0.0
H1846 H 0.31529 0.62513 0.34778 0.0
H1847 H 0.2894 0.55436 0.34259 0.0
C1848 C 0.26141 0.5642 0.35703 0.0
C1849 C 0.25144 0.58072 0.36766 0.0
C1850 C 0.32419 0.61082 0.3492 0.0
C1851 C 0.29179 0.58768 0.35309 0.0
C1852 C 0.34565 0.61296 0.35183 0.0
C1853 C 0.35712 0.59471 0.35556 0.0
C1854 C 0.31438 0.5903 0.35023 0.0
C1855 C 0.347 0.57443 0.35476 0.0
C1856 C 0.28157 0.5676 0.3498 0.0
C1857 C 0.26169 0.60099 0.36935 0.0
N1858 N 0.32612 0.57274 0.35239 0.0
N1859 N 0.28143 0.60384 0.36239 0.0
H1860 H 0.56112 0.01071 0.65261 0.0
H1861 H 0.63882 0.91907 0.62378 0.0
H1862 H 0.62601 0.02172 0.63939 0.0
H1863 H 0.5752 0.90507 0.6407 0.0
H1864 H 0.63252 0.95714 0.6245 0.0
H1865 H 0.56401 0.97285 0.64264 0.0
C1866 C 0.57585 0.00532 0.6471 0.0
C1867 C 0.59345 0.01936 0.64712 0.0
C1868 C 0.61985 0.94584 0.62801 0.0
C1869 C 0.59686 0.97607 0.63601 0.0
C1870 C 0.62346 0.924 0.62772 0.0
C1871 C 0.60756 0.90882 0.63249 0.0
C1872 C 0.60021 0.95278 0.63332 0.0
C1873 C 0.58792 0.91626 0.6371 0.0
C1874 C 0.57751 0.98365 0.6416 0.0
C1875 C 0.61211 0.01145 0.6399 0.0
N1876 N 0.58482 0.93779 0.6376 0.0
N1877 N 0.61336 0.99032 0.63488 0.0
H1878 H 0.19717 0.35284 0.89591 0.0
H1879 H 0.28183 0.37587 0.80656 0.0
H1880 H 0.18232 0.38213 0.83531 0.0
H1881 H 0.29262 0.34149 0.86553 0.0
H1882 H 0.24502 0.37628 0.815 0.0
H1883 H 0.23169 0.34721 0.88372 0.0
C1884 C 0.2012 0.35849 0.88016 0.0
C1885 C 0.18692 0.36863 0.86695 0.0
C1886 C 0.25542 0.36844 0.82594 0.0
C1887 C 0.22679 0.36165 0.8524 0.0
C1888 C 0.27643 0.36813 0.82113 0.0
C1889 C 0.29038 0.35886 0.83552 0.0
C1890 C 0.24837 0.35946 0.84529 0.0
C1891 C 0.2825 0.349 0.85407 0.0
C1892 C 0.221 0.35493 0.873 0.0
C1893 C 0.19298 0.3745 0.84613 0.0
N1894 N 0.26208 0.34976 0.8585 0.0
N1895 N 0.21259 0.37115 0.83954 0.0
H1896 H 0.34683 0.45901 0.63709 0.0
H1897 H 0.36746 0.56688 0.57046 0.0
H1898 H 0.40663 0.4763 0.61063 0.0
H1899 H 0.32191 0.55918 0.6202 0.0
H1900 H 0.37791 0.52994 0.57705 0.0
H1901 H 0.3333 0.49166 0.62198 0.0
C1902 C 0.35708 0.46946 0.62782 0.0
C1903 C 0.37806 0.46508 0.62552 0.0
C1904 C 0.36551 0.53634 0.58632 0.0
C1905 C 0.36252 0.50254 0.6082 0.0
C1906 C 0.3595 0.55733 0.58256 0.0
C1907 C 0.34392 0.56608 0.59496 0.0
C1908 C 0.35554 0.52403 0.60225 0.0
C1909 C 0.33414 0.5531 0.61045 0.0
C1910 C 0.34931 0.48815 0.61927 0.0
C1911 C 0.39044 0.47917 0.61306 0.0
N1912 N 0.34011 0.53271 0.61366 0.0
N1913 N 0.38253 0.49745 0.60503 0.0
H1914 H 0.80399 0.1952 0.08236 0.0
H1915 H 0.71045 0.18689 0.16516 0.0
H1916 H 0.80772 0.16438 0.14416 0.0
H1917 H 0.70206 0.19202 0.09646 0.0
H1918 H 0.74798 0.18893 0.16029 0.0
H1919 H 0.76852 0.20504 0.09047 0.0
C1920 C 0.79757 0.19112 0.09789 0.0
C1921 C 0.80861 0.1788 0.11256 0.0
C1922 C 0.73788 0.18985 0.14633 0.0
C1923 C 0.76832 0.18981 0.12182 0.0
C1924 C 0.71649 0.18867 0.14908 0.0
C1925 C 0.70314 0.18895 0.13115 0.0
C1926 C 0.74594 0.19161 0.12555 0.0
C1927 C 0.71181 0.1914 0.1107 0.0
C1928 C 0.77732 0.19653 0.10241 0.0
C1929 C 0.79958 0.17372 0.13236 0.0
N1930 N 0.73268 0.19255 0.10843 0.0
N1931 N 0.77988 0.17908 0.13636 0.0
H1932 H 0.61893 0.02874 0.89106 0.0
H1933 H 0.63183 0.91515 0.83789 0.0
H1934 H 0.67429 0.99296 0.89871 0.0
H1935 H 0.57148 0.93807 0.85214 0.0
H1936 H 0.64753 0.94387 0.86019 0.0
H1937 H 0.60077 0.99612 0.87719 0.0
C1938 C 0.62718 0.01398 0.89011 0.0
C1939 C 0.64824 0.01364 0.8958 0.0
C1940 C 0.63083 0.9425 0.85869 0.0
C1941 C 0.62766 0.97647 0.87975 0.0
C1942 C 0.62187 0.92616 0.84587 0.0
C1943 C 0.60035 0.92435 0.84306 0.0
C1944 C 0.61822 0.95746 0.8684 0.0
C1945 C 0.58815 0.93893 0.85392 0.0
C1946 C 0.6168 0.99538 0.88224 0.0
C1947 C 0.65812 0.99405 0.89435 0.0
N1948 N 0.59729 0.95515 0.86587 0.0
N1949 N 0.64784 0.97635 0.88616 0.0
H1950 H 0.8643 0.07017 0.29795 0.0
H1951 H 0.86476 0.97121 0.37711 0.0
H1952 H 0.91464 0.06563 0.34383 0.0
H1953 H 0.84316 0.96721 0.31118 0.0
H1954 H 0.87984 0.00746 0.36976 0.0
H1955 H 0.85162 0.03448 0.30818 0.0
C1956 C 0.87263 0.0618 0.31035 0.0
C1957 C 0.89072 0.07092 0.31989 0.0
C1958 C 0.87193 -0.00157 0.35697 0.0
C1959 C 0.87614 0.0298 0.33164 0.0
C1960 C 0.86336 0.97782 0.36111 0.0
C1961 C 0.85254 0.96623 0.34478 0.0
C1962 C 0.86921 0.00748 0.33656 0.0
C1963 C 0.85122 0.97552 0.32433 0.0
C1964 C 0.86541 0.04132 0.31607 0.0
C1965 C 0.9007 0.05916 0.33596 0.0
N1966 N 0.8592 0.99565 0.3209 0.0
N1967 N 0.89327 0.0391 0.34137 0.0
H1968 H 0.34433 0.2703 0.10938 0.0
H1969 H 0.40431 0.16884 0.06823 0.0
H1970 H 0.39008 0.27187 0.05957 0.0
H1971 H 0.37779 0.17321 0.13137 0.0
H1972 H 0.3885 0.20241 0.05852 0.0
H1973 H 0.34639 0.23097 0.11093 0.0
C1974 C 0.35435 0.2623 0.09837 0.0
C1975 C 0.36731 0.27427 0.08456 0.0
C1976 C 0.38583 0.19578 0.07436 0.0
C1977 C 0.36965 0.22961 0.08618 0.0
C1978 C 0.3948 0.17656 0.07993 0.0
C1979 C 0.39286 0.16844 0.10088 0.0
C1980 C 0.37476 0.20694 0.08977 0.0
C1981 C 0.38007 0.17908 0.11519 0.0
C1982 C 0.3556 0.23993 0.09934 0.0
C1983 C 0.38008 0.2632 0.07067 0.0
N1984 N 0.37178 0.198 0.10949 0.0
N1985 N 0.38107 0.24151 0.07197 0.0
H1986 H 0.58057 0.68276 0.91242 0.0
H1987 H 0.49681 0.59657 0.86521 0.0
H1988 H 0.57893 0.61534 0.92893 0.0
H1989 H 0.4963 0.66452 0.85151 0.0
H1990 H 0.52561 0.6035 0.89032 0.0
H1991 H 0.54846 0.67679 0.89191 0.0
C1992 C 0.5734 0.66671 0.91189 0.0
C1993 C 0.58261 0.64948 0.92232 0.0
C1994 C 0.51913 0.61692 0.88193 0.0
C1995 C 0.54581 0.64254 0.89868 0.0
C1996 C 0.50268 0.61297 0.86756 0.0
C1997 C 0.49422 0.62997 0.85609 0.0
C1998 C 0.52729 0.63802 0.88482 0.0
C1999 C 0.50239 0.6509 0.85991 0.0
C2000 C 0.55503 0.66333 0.90015 0.0
C2001 C 0.57249 0.6291 0.92111 0.0
N2002 N 0.51857 0.65431 0.87384 0.0
N2003 N 0.55473 0.62617 0.90936 0.0
H2004 H 0.06899 0.73238 0.5622 0.0
H2005 H 0.09803 0.83555 0.63085 0.0
H2006 H 0.1167 0.7334 0.61141 0.0
H2007 H 0.06685 0.83849 0.56922 0.0
H2008 H 0.10724 0.79879 0.62271 0.0
H2009 H 0.06968 0.77161 0.56306 0.0
C2010 C 0.07975 0.74086 0.57304 0.0
C2011 C 0.09257 0.7296 0.587 0.0
C2012 C 0.09872 0.80761 0.61079 0.0
C2013 C 0.09335 0.77446 0.58815 0.0
C2014 C 0.09341 0.82858 0.61545 0.0
C2015 C 0.08137 0.83995 0.60083 0.0
C2016 C 0.09158 0.79783 0.59157 0.0
C2017 C 0.07602 0.83024 0.58103 0.0
C2018 C 0.08022 0.76327 0.57343 0.0
C2019 C 0.10642 0.74143 0.6005 0.0
N2020 N 0.08081 0.80956 0.57715 0.0
N2021 N 0.10619 0.76323 0.601 0.0
H2022 H 0.00854 0.33907 0.38814 0.0
H2023 H 0.90509 0.39145 0.42861 0.0
H2024 H 0.99757 0.4069 0.38374 0.0
H2025 H 0.91045 0.32328 0.41791 0.0
H2026 H 0.94067 0.39747 0.4168 0.0
H2027 H 0.97456 0.33323 0.40429 0.0
C2028 C -0.00088 0.35278 0.39082 0.0
C2029 C 0.00585 0.3735 0.38441 0.0
C2030 C 0.93406 0.3812 0.41706 0.0
C2031 C 0.9669 0.36687 0.40277 0.0
C2032 C 0.91373 0.37772 0.42381 0.0
C2033 C 0.90469 0.35681 0.42416 0.0
C2034 C 0.94554 0.36364 0.41078 0.0
C2035 C 0.9167 0.33968 0.41777 0.0
C2036 C 0.97966 0.3494 0.39991 0.0
C2037 C 0.99295 0.39064 0.38829 0.0
N2038 N 0.93652 0.34348 0.41136 0.0
N2039 N 0.97406 0.38693 0.39713 0.0
H2040 H 0.32128 0.7732 0.37296 0.0
H2041 H 0.4009 0.68167 0.39565 0.0
H2042 H 0.38676 0.78529 0.3842 0.0
H2043 H 0.33473 0.66947 0.39587 0.0
H2044 H 0.39549 0.71999 0.39275 0.0
H2045 H 0.32517 0.7357 0.38341 0.0
C2046 C 0.3364 0.76811 0.37796 0.0
C2047 C 0.35377 0.7824 0.37739 0.0
C2048 C 0.38211 0.70899 0.39355 0.0
C2049 C 0.35833 0.73947 0.38907 0.0
C2050 C 0.38519 0.68704 0.39506 0.0
C2051 C 0.36823 0.67229 0.3958 0.0
C2052 C 0.36191 0.71635 0.39253 0.0
C2053 C 0.34825 0.68028 0.39529 0.0
C2054 C 0.33861 0.74666 0.38385 0.0
C2055 C 0.37295 0.77486 0.38412 0.0
N2056 N 0.34563 0.70179 0.39348 0.0
N2057 N 0.37474 0.75388 0.3894 0.0
H2058 H 0.99277 0.60658 0.19975 0.0
H2059 H 0.94871 0.64933 0.08774 0.0
H2060 H 0.02358 0.59994 0.13909 0.0
H2061 H 0.92569 0.66711 0.14987 0.0
H2062 H 0.9715 0.62417 0.10548 0.0
H2063 H 0.96355 0.62194 0.18076 0.0
C2064 C 0.99329 0.60812 0.18243 0.0
C2065 C 0.01078 0.60231 0.17103 0.0
C2066 C 0.96125 0.63339 0.11517 0.0
C2067 C 0.97744 0.61982 0.14923 0.0
C2068 C 0.94817 0.64766 0.10505 0.0
C2069 C 0.93557 0.6606 0.11738 0.0
C2070 C 0.96157 0.632 0.13772 0.0
C2071 C 0.93545 0.65774 0.13976 0.0
C2072 C 0.97663 0.6169 0.1716 0.0
C2073 C 0.01054 0.60451 0.14857 0.0
N2074 N 0.9484 0.64391 0.14922 0.0
N2075 N 0.99423 0.61327 0.13842 0.0
H2076 H 0.18028 0.29321 0.91712 0.0
H2077 H 0.12252 0.19031 0.86336 0.0
H2078 H 0.12153 0.29544 0.88355 0.0
H2079 H 0.18668 0.19289 0.8836 0.0
H2080 H 0.11916 0.22672 0.87734 0.0
H2081 H 0.17997 0.25455 0.91121 0.0
C2082 C 0.16722 0.28559 0.90859 0.0
C2083 C 0.151 0.29769 0.90058 0.0
C2084 C 0.13389 0.21919 0.87892 0.0
C2085 C 0.15061 0.25328 0.89381 0.0
C2086 C 0.13582 0.19836 0.87106 0.0
C2087 C 0.15502 0.18864 0.87204 0.0
C2088 C 0.15124 0.23029 0.88793 0.0
C2089 C 0.17167 0.19985 0.88224 0.0
C2090 C 0.16709 0.26347 0.90524 0.0
C2091 C 0.13446 0.28681 0.88981 0.0
N2092 N 0.16943 0.22015 0.88963 0.0
N2093 N 0.13476 0.2652 0.88662 0.0
H2094 H 0.56426 0.33713 0.63225 0.0
H2095 H 0.47218 0.41014 0.60305 0.0
H2096 H 0.5426 0.34274 0.56673 0.0
H2097 H 0.51078 0.42054 0.65957 0.0
H2098 H 0.49835 0.3872 0.58817 0.0
H2099 H 0.5453 0.36872 0.64186 0.0
C2100 C 0.5556 0.34514 0.61984 0.0
C2101 C 0.55479 0.33719 0.59873 0.0
C2102 C 0.50126 0.39488 0.60362 0.0
C2103 C 0.53282 0.3733 0.60966 0.0
C2104 C 0.48634 0.40802 0.61213 0.0
C2105 C 0.4891 0.41697 0.63279 0.0
C2106 C 0.51887 0.39048 0.61599 0.0
C2107 C 0.50781 0.41374 0.64374 0.0
C2108 C 0.54487 0.36327 0.6253 0.0
C2109 C 0.54354 0.34835 0.58322 0.0
N2110 N 0.52178 0.40044 0.63539 0.0
N2111 N 0.53265 0.36565 0.58908 0.0
H2112 H 0.09919 0.33956 0.28583 0.0
H2113 H 0.04746 0.34653 0.17323 0.0
H2114 H 0.03307 0.33437 0.27639 0.0
H2115 H 0.11217 0.33443 0.1826 0.0
H2116 H 0.04086 0.33443 0.2098 0.0
H2117 H 0.10375 0.33069 0.24809 0.0
C2118 C 0.08563 0.33636 0.27583 0.0
C2119 C 0.06575 0.33836 0.28402 0.0
C2120 C 0.05642 0.33387 0.20369 0.0
C2121 C 0.07076 0.32829 0.24074 0.0
C2122 C 0.06021 0.34078 0.18276 0.0
C2123 C 0.08052 0.3422 0.17508 0.0
C2124 C 0.07313 0.32875 0.21709 0.0
C2125 C 0.09632 0.33409 0.188 0.0
C2126 C 0.08821 0.33107 0.25429 0.0
C2127 C 0.04869 0.33329 0.27056 0.0
N2128 N 0.09239 0.32829 0.2086 0.0
N2129 N 0.05157 0.32901 0.2494 0.0
H2130 H 0.40243 0.39711 0.92416 0.0
H2131 H 0.33831 0.34914 0.02353 0.0
H2132 H 0.34505 0.35994 0.9156 0.0
H2133 H 0.40105 0.37537 0.02681 0.0
H2134 H 0.33705 0.35828 0.98501 0.0
H2135 H 0.39842 0.39492 0.96283 0.0
C2136 C 0.3889 0.38853 0.9304 0.0
C2137 C 0.37424 0.37837 0.91656 0.0
C2138 C 0.35098 0.36218 0.99429 0.0
C2139 C 0.3696 0.37568 0.96112 0.0
C2140 C 0.35167 0.35706 0.01623 0.0
C2141 C 0.36991 0.36125 0.02824 0.0
C2142 C 0.36855 0.37178 0.98459 0.0
C2143 C 0.38679 0.37152 0.01807 0.0
C2144 C 0.38661 0.3873 0.95256 0.0
C2145 C 0.35683 0.36785 0.92568 0.0
N2146 N 0.38571 0.37633 -0.00311 0.0
N2147 N 0.35509 0.36655 0.94745 0.0
H2148 H 0.3648 0.61672 0.65778 0.0
H2149 H 0.43692 0.65581 0.7571 0.0
H2150 H 0.37536 0.68418 0.6728 0.0
H2151 H 0.41609 0.59035 0.7434 0.0
H2152 H 0.41804 0.66745 0.72467 0.0
H2153 H 0.38718 0.60771 0.6874 0.0
C2154 C 0.37176 0.62973 0.66738 0.0
C2155 C 0.36794 0.65128 0.66287 0.0
C2156 C 0.41777 0.65056 0.72882 0.0
C2157 C 0.39388 0.64092 0.69726 0.0
C2158 C 0.42859 0.64393 0.74718 0.0
C2159 C 0.42787 0.62213 0.75298 0.0
C2160 C 0.40652 0.63516 0.71626 0.0
C2161 C 0.41685 0.60735 0.73971 0.0
C2162 C 0.38466 0.62453 0.68437 0.0
C2163 C 0.37777 0.66734 0.67581 0.0
N2164 N 0.40664 0.61414 0.72209 0.0
N2165 N 0.39025 0.66183 0.69256 0.0
H2166 H 0.14358 0.66028 0.54447 0.0
H2167 H 0.14268 0.59397 0.43601 0.0
H2168 H 0.08679 0.63306 0.5168 0.0
H2169 H 0.18766 0.64574 0.44893 0.0
H2170 H 0.12292 0.6054 0.46703 0.0
H2171 H 0.16137 0.65213 0.51114 0.0
C2172 C 0.13487 0.65256 0.53139 0.0
C2173 C 0.1137 0.64726 0.53339 0.0
C2174 C 0.137 0.61436 0.4629 0.0
C2175 C 0.13396 0.63783 0.49539 0.0
C2176 C 0.14831 0.60784 0.44528 0.0
C2177 C 0.16686 0.6189 0.43996 0.0
C2178 C 0.14456 0.63176 0.47553 0.0
C2179 C 0.17341 0.63681 0.45244 0.0
C2180 C 0.14499 0.64806 0.51236 0.0
C2181 C 0.10312 0.63744 0.51589 0.0
N2182 N 0.1624 0.64251 0.46985 0.0
N2183 N 0.11342 0.63282 0.49766 0.0
H2184 H 0.13202 0.572 0.23105 0.0
H2185 H 0.16481 0.63573 0.3371 0.0
H2186 H 0.09437 0.62298 0.25352 0.0
H2187 H 0.16993 0.56707 0.33042 0.0
H2188 H 0.14442 0.6358 0.30336 0.0
H2189 H 0.15252 0.57498 0.26415 0.0
C2190 C 0.12821 0.58402 0.24284 0.0
C2191 C 0.11139 0.59719 0.23961 0.0
C2192 C 0.15001 0.62079 0.30944 0.0
C2193 C 0.1349 0.60069 0.27743 0.0
C2194 C 0.16164 0.62072 0.32855 0.0
C2195 C 0.16899 0.60135 0.33654 0.0
C2196 C 0.14631 0.60146 0.29809 0.0
C2197 C 0.16444 0.58234 0.32492 0.0
C2198 C 0.13984 0.58559 0.26176 0.0
C2199 C 0.10715 0.61243 0.2555 0.0
N2200 N 0.15359 0.58291 0.30617 0.0
N2201 N 0.1189 0.61383 0.27381 0.0
H2202 H 0.06091 0.38091 0.05716 0.0
H2203 H 0.14081 0.33737 0.97544 0.0
H2204 H 0.10626 0.33417 0.07231 0.0
H2205 H 0.09223 0.37901 0.9563 0.0
H2206 H 0.12353 0.33069 0.00923 0.0
H2207 H 0.06634 0.37447 0.01889 0.0
C2208 C 0.07147 0.36874 0.05244 0.0
C2209 C 0.08361 0.35847 0.06784 0.0
C2210 C 0.11646 0.34118 -0.00232 0.0
C2211 C 0.09011 0.35134 0.02431 0.0
C2212 C 0.12646 0.34518 0.97844 0.0
C2213 C 0.1182 0.35925 0.96339 0.0
C2214 C 0.09826 0.35174 0.00222 0.0
C2215 C 0.09924 0.36836 0.96774 0.0
C2216 C 0.07467 0.36519 0.03059 0.0
C2217 C 0.09698 0.34282 0.0609 0.0
N2218 N 0.09007 0.3648 0.98704 0.0
N2219 N 0.10017 0.34004 0.03963 0.0
H2220 H 0.4284 0.35421 0.82279 0.0
H2221 H 0.38313 0.40371 0.71512 0.0
H2222 H 0.36352 0.34914 0.8055 0.0
H2223 H 0.44692 0.38692 0.72213 0.0
H2224 H 0.37579 0.38719 0.74986 0.0
H2225 H 0.43569 0.36997 0.78758 0.0
C2226 C 0.41568 0.35655 0.81168 0.0
C2227 C 0.3953 0.35061 0.81727 0.0
C2228 C 0.39136 0.38701 0.7437 0.0
C2229 C 0.40356 0.36848 0.77696 0.0
C2230 C 0.39557 0.39641 0.72384 0.0
C2231 C 0.41564 0.39656 0.71559 0.0
C2232 C 0.40741 0.37802 0.75558 0.0
C2233 C 0.43119 0.38706 0.7278 0.0
C2234 C 0.41987 0.36541 0.79156 0.0
C2235 C 0.37945 0.35367 0.80205 0.0
N2236 N 0.42677 0.37829 0.74726 0.0
N2237 N 0.38391 0.36253 0.78266 0.0
H2238 H 0.41425 0.6481 0.45519 0.0
H2239 H 0.38341 0.62227 0.57588 0.0
H2240 H 0.3891 0.58726 0.47792 0.0
H2241 H 0.37361 0.6838 0.54651 0.0
H2242 H 0.40152 0.61111 0.54387 0.0
H2243 H 0.4144 0.66204 0.49227 0.0
C2244 C 0.40957 0.63745 0.46814 0.0
C2245 C 0.40164 0.61655 0.46372 0.0
C2246 C 0.39591 0.62726 0.54468 0.0
C2247 C 0.40192 0.63221 0.50568 0.0
C2248 C 0.38557 0.63367 0.56289 0.0
C2249 C 0.3765 0.65377 0.56351 0.0
C2250 C 0.39719 0.64103 0.52698 0.0
C2251 C 0.38015 0.66806 0.54649 0.0
C2252 C 0.40952 0.64545 0.48915 0.0
C2253 C 0.39533 0.60345 0.48081 0.0
N2254 N 0.38987 0.66122 0.52858 0.0
N2255 N 0.3955 0.61154 0.50109 0.0
H2256 H 0.18695 0.15332 0.39556 0.0
H2257 H 0.24547 0.06839 0.32489 0.0
H2258 H 0.1617 0.09039 0.37784 0.0
H2259 H 0.27621 0.1163 0.36578 0.0
H2260 H 0.21237 0.08418 0.3326 0.0
H2261 H 0.21678 0.14739 0.37269 0.0
C2262 C 0.18731 0.13859 0.38626 0.0
C2263 C 0.17207 0.12213 0.38883 0.0
C2264 C 0.22644 0.09148 0.33949 0.0
C2265 C 0.20597 0.11532 0.36284 0.0
C2266 C 0.24534 0.08251 0.33511 0.0
C2267 C 0.26356 0.09075 0.34513 0.0
C2268 C 0.22581 0.1089 0.35381 0.0
C2269 C 0.26246 0.10919 0.35807 0.0
C2270 C 0.20439 0.13517 0.37337 0.0
C2271 C 0.17332 0.10332 0.37651 0.0
N2272 N 0.24384 0.1175 0.36227 0.0
N2273 N 0.19015 0.1003 0.36425 0.0
H2274 H 0.73853 0.36498 0.6061 0.0
H2275 H 0.63961 0.29266 0.64118 0.0
H2276 H 0.7246 0.34885 0.67191 0.0
H2277 H 0.65133 0.31222 0.57577 0.0
H2278 H 0.67241 0.3103 0.65226 0.0
H2279 H 0.70834 0.34296 0.5943 0.0
C2280 C 0.72919 0.35672 0.61807 0.0
C2281 C 0.73401 0.3589 0.64005 0.0
C2282 C 0.66786 0.31063 0.63547 0.0
C2283 C 0.69941 0.33368 0.62664 0.0
C2284 C 0.64912 0.30052 0.62909 0.0
C2285 C 0.64257 0.30107 0.60751 0.0
C2286 C 0.68018 0.3214 0.62017 0.0
C2287 C 0.65564 0.31147 0.5926 0.0
C2288 C 0.71194 0.34416 0.61132 0.0
C2289 C 0.7214 0.34775 0.65482 0.0
N2290 N 0.67376 0.32131 0.59924 0.0
N2291 N 0.70463 0.3357 0.64785 0.0
H2292 H 0.37809 0.90001 0.39326 0.0
H2293 H 0.29927 0.99483 0.39639 0.0
H2294 H 0.31187 0.89066 0.38587 0.0
H2295 H 0.36418 0.00261 0.38197 0.0
H2296 H 0.30443 0.95712 0.40541 0.0
H2297 H 0.37339 0.93753 0.4028 0.0
C2298 C 0.36251 0.90561 0.39423 0.0
C2299 C 0.34538 0.89226 0.38808 0.0
C2300 C 0.3176 0.96725 0.4007 0.0
C2301 C 0.33999 0.93529 0.39886 0.0
C2302 C 0.3147 0.98878 0.3956 0.0
C2303 C 0.33126 0.00179 0.38801 0.0
C2304 C 0.33722 0.95879 0.3984 0.0
C2305 C 0.35091 0.99311 0.38737 0.0
C2306 C 0.35987 0.92711 0.39957 0.0
C2307 C 0.32557 0.90046 0.38998 0.0
N2308 N 0.3533 0.97209 0.39225 0.0
N2309 N 0.32344 0.92158 0.39478 0.0
H2310 H 0.84146 0.67602 0.0691 0.0
H2311 H 0.75507 0.64152 0.15437 0.0
H2312 H 0.84145 0.69886 0.13476 0.0
H2313 H 0.75119 0.62342 0.08733 0.0
H2314 H 0.78662 0.66284 0.14719 0.0
H2315 H 0.80819 0.65719 0.0751 0.0
C2316 C 0.83444 0.67722 0.08475 0.0
C2317 C 0.84438 0.689 0.10149 0.0
C2318 C 0.77887 0.65427 0.13402 0.0
C2319 C 0.8063 0.66731 0.10846 0.0
C2320 C 0.76085 0.64202 0.13811 0.0
C2321 C 0.75049 0.63057 0.12144 0.0
C2322 C 0.78672 0.65505 0.1131 0.0
C2323 C 0.75868 0.63194 0.10068 0.0
C2324 C 0.81542 0.66643 0.08814 0.0
C2325 C 0.83444 0.68997 0.12138 0.0
N2326 N 0.77637 0.64389 0.09711 0.0
N2327 N 0.81603 0.67916 0.12433 0.0
H2328 H 0.63336 0.61601 0.41801 0.0
H2329 H 0.69925 0.51098 0.4218 0.0
H2330 H 0.69916 0.61568 0.40741 0.0
H2331 H 0.63299 0.51146 0.41359 0.0
H2332 H 0.69984 0.54964 0.42958 0.0
H2333 H 0.63406 0.57876 0.42992 0.0
C2334 C 0.64808 0.60837 0.41873 0.0
C2335 C 0.66613 0.61888 0.41102 0.0
C2336 C 0.68513 0.54114 0.42658 0.0
C2337 C 0.66693 0.57606 0.4245 0.0
C2338 C 0.68475 0.51905 0.42225 0.0
C2339 C 0.66607 0.50806 0.4166 0.0
C2340 C 0.66667 0.55222 0.42542 0.0
C2341 C 0.64778 0.51935 0.41745 0.0
C2342 C 0.64842 0.58701 0.42545 0.0
C2343 C 0.68477 0.60813 0.41274 0.0
N2344 N 0.64856 0.54086 0.42145 0.0
N2345 N 0.68461 0.58715 0.41885 0.0
H2346 H 0.23789 0.88759 0.82335 0.0
H2347 H 0.29156 0.7948 0.88927 0.0
H2348 H 0.20637 0.84773 0.8703 0.0
H2349 H 0.32359 0.85237 0.86684 0.0
H2350 H 0.26004 0.80591 0.87072 0.0
H2351 H 0.26867 0.86656 0.8282 0.0
C2352 C 0.23728 0.87417 0.83439 0.0
C2353 C 0.21964 0.86967 0.84677 0.0
C2354 C 0.27417 0.81572 0.86932 0.0
C2355 C 0.25477 0.84545 0.85215 0.0
C2356 C 0.29219 0.80928 0.87964 0.0
C2357 C 0.31008 0.82279 0.87962 0.0
C2358 C 0.27427 0.8356 0.85869 0.0
C2359 C 0.31003 0.84158 0.86726 0.0
C2360 C 0.25487 0.8622 0.83713 0.0
C2361 C 0.21974 0.85197 0.8607 0.0
N2362 N 0.29231 0.84757 0.85748 0.0
N2363 N 0.23713 0.84062 0.86318 0.0
H2364 H 0.37055 0.95849 0.15594 0.0
H2365 H 0.39621 0.06249 0.08598 0.0
H2366 H 0.33256 0.97372 0.10096 0.0
H2367 H 0.40639 0.06011 0.15463 0.0
H2368 H 0.37803 0.02702 0.08762 0.0
H2369 H 0.38988 0.99269 0.15163 0.0
C2370 C 0.36643 0.96891 0.14279 0.0
C2371 C 0.34985 0.96334 0.12885 0.0
C2372 C 0.38426 0.03438 0.10226 0.0
C2373 C 0.37195 0.00242 0.12386 0.0
C2374 C 0.39464 0.05451 0.10135 0.0
C2375 C 0.40273 0.06425 0.12022 0.0
C2376 C 0.38249 0.02381 0.12207 0.0
C2377 C 0.40025 0.05327 0.13972 0.0
C2378 C 0.37738 0.98846 0.14045 0.0
C2379 C 0.34517 0.9775 0.11213 0.0
N2380 N 0.3905 0.03356 0.14011 0.0
N2381 N 0.3562 0.99646 0.11006 0.0
H2382 H 0.10465 0.93479 0.66001 0.0
H2383 H 0.19719 0.00437 0.60685 0.0
H2384 H 0.10898 0.9446 0.59149 0.0
H2385 H 0.18251 0.00531 0.67425 0.0
H2386 H 0.16847 0.97782 0.60072 0.0
H2387 H 0.13642 0.95645 0.66519 0.0
C2388 C 0.11224 0.94153 0.646 0.0
C2389 C 0.10398 0.93797 0.62526 0.0
C2390 C 0.17174 0.98369 0.61686 0.0
C2391 C 0.14064 0.96281 0.63116 0.0
C2392 C 0.18822 -0.00138 0.62039 0.0
C2393 C 0.19211 0.00701 0.64107 0.0
C2394 C 0.15936 0.97705 0.63421 0.0
C2395 C 0.17992 -0.0007 0.65804 0.0
C2396 C 0.13046 0.95389 0.649 0.0
C2397 C 0.11467 0.94708 0.60777 0.0
N2398 N 0.16406 0.98484 0.65422 0.0
N2399 N 0.13248 0.95912 0.61112 0.0
loop_
_geom_bond_atom_site_label_1
_geom_bond_atom_site_label_2
_geom_bond_distance
_geom_bond_site_symmetry_2
_ccdc_geom_bond_type
Mg0 O1 2.028 . S
Mg0 O7 1.986 . S
Mg0 O9 2.114 . S
Mg0 O10 2.251 . S
Mg0 O13 2.010 . S
O1 Mg0 2.028 . S
O1 C4 1.250 . S
O2 Mg3 2.028 . S
O2 C4 1.248 . S
Mg3 O2 2.028 . S
Mg3 O8 2.032 . S
Mg3 O10 2.079 . S
C4 O1 1.250 . S
C4 O2 1.248 . S
C5 O6 1.264 . S
C5 O13 1.249 . S
O6 C5 1.264 . S
O7 Mg0 1.986 . S
O7 C11 1.246 . S
O8 Mg3 2.032 . S
O8 C11 1.259 . S
O9 Mg0 2.114 . S
O9 C12 1.252 . S
O10 Mg0 2.251 . S
O10 Mg3 2.079 . S
O10 C12 1.273 . S
C11 O7 1.246 . S
C11 O8 1.259 . S
C12 O9 1.252 . S
C12 O10 1.273 . S
O13 Mg0 2.010 . S
O13 C5 1.249 . S
Mg14 O15 2.028 . S
Mg14 O21 1.986 . S
Mg14 O23 2.114 . S
Mg14 O24 2.251 . S
Mg14 O27 2.010 . S
O15 Mg14 2.028 . S
O15 C18 1.250 . S
O16 Mg17 2.028 . S
O16 C18 1.248 . S
Mg17 O16 2.028 . S
Mg17 O22 2.032 . S
Mg17 O24 2.079 . S
C18 O15 1.250 . S
C18 O16 1.248 . S
C19 O20 1.264 . S
C19 O27 1.249 . S
O20 C19 1.264 . S
O21 Mg14 1.986 . S
O21 C25 1.246 . S
O22 Mg17 2.032 . S
O22 C25 1.259 . S
O23 Mg14 2.114 . S
O23 C26 1.252 . S
O24 Mg14 2.251 . S
O24 Mg17 2.079 . S
O24 C26 1.273 . S
C25 O21 1.246 . S
C25 O22 1.259 . S
C26 O23 1.252 . S
C26 O24 1.273 . S
O27 Mg14 2.010 . S
O27 C19 1.249 . S
Mg28 O29 2.028 . S
Mg28 O35 1.986 . S
Mg28 O37 2.114 . S
Mg28 O38 2.251 . S
Mg28 O41 2.010 . S
O29 Mg28 2.028 . S
O29 C32 1.250 . S
O30 Mg31 2.028 . S
O30 C32 1.248 . S
Mg31 O30 2.028 . S
Mg31 O36 2.032 . S
Mg31 O38 2.079 . S
C32 O29 1.250 . S
C32 O30 1.248 . S
C33 O34 1.264 . S
C33 O41 1.249 . S
O34 C33 1.264 . S
O35 Mg28 1.986 . S
O35 C39 1.246 . S
O36 Mg31 2.032 . S
O36 C39 1.259 . S
O37 Mg28 2.114 . S
O37 C40 1.252 . S
O38 Mg28 2.251 . S
O38 Mg31 2.079 . S
O38 C40 1.273 . S
C39 O35 1.246 . S
C39 O36 1.259 . S
C40 O37 1.252 . S
C40 O38 1.273 . S
O41 Mg28 2.010 . S
O41 C33 1.249 . S
Mg42 O43 2.028 . S
Mg42 O49 1.986 . S
Mg42 O51 2.114 . S
Mg42 O52 2.251 . S
Mg42 O55 2.010 . S
O43 Mg42 2.028 . S
O43 C46 1.250 . S
O44 Mg45 2.028 . S
O44 C46 1.248 . S
Mg45 O44 2.028 . S
Mg45 O50 2.032 . S
Mg45 O52 2.079 . S
C46 O43 1.250 . S
C46 O44 1.248 . S
C47 O48 1.264 . S
C47 O55 1.249 . S
O48 C47 1.264 . S
O49 Mg42 1.986 . S
O49 C53 1.246 . S
O50 Mg45 2.032 . S
O50 C53 1.259 . S
O51 Mg42 2.114 . S
O51 C54 1.252 . S
O52 Mg42 2.251 . S
O52 Mg45 2.079 . S
O52 C54 1.273 . S
C53 O49 1.246 . S
C53 O50 1.259 . S
C54 O51 1.252 . S
C54 O52 1.273 . S
O55 Mg42 2.010 . S
O55 C47 1.249 . S
Mg56 O57 2.028 . S
Mg56 O63 1.986 . S
Mg56 O65 2.114 . S
Mg56 O66 2.251 . S
Mg56 O69 2.010 . S
O57 Mg56 2.028 . S
O57 C60 1.250 . S
O58 Mg59 2.028 . S
O58 C60 1.248 . S
Mg59 O58 2.028 . S
Mg59 O64 2.032 . S
Mg59 O66 2.079 . S
C60 O57 1.250 . S
C60 O58 1.248 . S
C61 O62 1.264 . S
C61 O69 1.249 . S
O62 C61 1.264 . S
O63 Mg56 1.986 . S
O63 C67 1.246 . S
O64 Mg59 2.032 . S
O64 C67 1.259 . S
O65 Mg56 2.114 . S
O65 C68 1.252 . S
O66 Mg56 2.251 . S
O66 Mg59 2.079 . S
O66 C68 1.273 . S
C67 O63 1.246 . S
C67 O64 1.259 . S
C68 O65 1.252 . S
C68 O66 1.273 . S
O69 Mg56 2.010 . S
O69 C61 1.249 . S
Mg70 O71 2.028 . S
Mg70 O77 1.986 . S
Mg70 O79 2.114 . S
Mg70 O80 2.251 . S
Mg70 O83 2.010 . S
O71 Mg70 2.028 . S
O71 C74 1.250 . S
O72 Mg73 2.028 . S
O72 C74 1.248 . S
Mg73 O72 2.028 . S
Mg73 O78 2.032 . S
Mg73 O80 2.079 . S
C74 O71 1.250 . S
C74 O72 1.248 . S
C75 O76 1.264 . S
C75 O83 1.249 . S
O76 C75 1.264 . S
O77 Mg70 1.986 . S
O77 C81 1.246 . S
O78 Mg73 2.032 . S
O78 C81 1.259 . S
O79 Mg70 2.114 . S
O79 C82 1.252 . S
O80 Mg70 2.251 . S
O80 Mg73 2.079 . S
O80 C82 1.273 . S
C81 O77 1.246 . S
C81 O78 1.259 . S
C82 O79 1.252 . S
C82 O80 1.273 . S
O83 Mg70 2.010 . S
O83 C75 1.249 . S
Mg84 O85 2.028 . S
Mg84 O91 1.986 . S
Mg84 O93 2.114 . S
Mg84 O94 2.251 . S
Mg84 O97 2.010 . S
O85 Mg84 2.028 . S
O85 C88 1.250 . S
O86 Mg87 2.028 . S
O86 C88 1.248 . S
Mg87 O86 2.028 . S
Mg87 O92 2.032 . S
Mg87 O94 2.079 . S
C88 O85 1.250 . S
C88 O86 1.248 . S
C89 O90 1.264 . S
C89 O97 1.249 . S
O90 C89 1.264 . S
O91 Mg84 1.986 . S
O91 C95 1.246 . S
O92 Mg87 2.032 . S
O92 C95 1.259 . S
O93 Mg84 2.114 . S
O93 C96 1.252 . S
O94 Mg84 2.251 . S
O94 Mg87 2.079 . S
O94 C96 1.273 . S
C95 O91 1.246 . S
C95 O92 1.259 . S
C96 O93 1.252 . S
C96 O94 1.273 . S
O97 Mg84 2.010 . S
O97 C89 1.249 . S
Mg98 O99 2.028 . S
Mg98 O105 1.986 . S
Mg98 O107 2.114 . S
Mg98 O108 2.251 . S
Mg98 O111 2.010 . S
O99 Mg98 2.028 . S
O99 C102 1.250 . S
O100 Mg101 2.028 . S
O100 C102 1.248 . S
Mg101 O100 2.028 . S
Mg101 O106 2.032 . S
Mg101 O108 2.079 . S
C102 O99 1.250 . S
C102 O100 1.248 . S
C103 O104 1.264 . S
C103 O111 1.249 . S
O104 C103 1.264 . S
O105 Mg98 1.986 . S
O105 C109 1.246 . S
O106 Mg101 2.032 . S
O106 C109 1.259 . S
O107 Mg98 2.114 . S
O107 C110 1.252 . S
O108 Mg98 2.251 . S
O108 Mg101 2.079 . S
O108 C110 1.273 . S
C109 O105 1.246 . S
C109 O106 1.259 . S
C110 O107 1.252 . S
C110 O108 1.273 . S
O111 Mg98 2.010 . S
O111 C103 1.249 . S
Mg112 O113 2.028 . S
Mg112 O119 1.986 . S
Mg112 O121 2.114 . S
Mg112 O122 2.251 . S
Mg112 O125 2.010 . S
O113 Mg112 2.028 . S
O113 C116 1.250 . S
O114 Mg115 2.028 . S
O114 C116 1.248 . S
Mg115 O114 2.028 . S
Mg115 O120 2.032 . S
Mg115 O122 2.079 . S
C116 O113 1.250 . S
C116 O114 1.248 . S
C117 O118 1.264 . S
C117 O125 1.249 . S
O118 C117 1.264 . S
O119 Mg112 1.986 . S
O119 C123 1.246 . S
O120 Mg115 2.032 . S
O120 C123 1.259 . S
O121 Mg112 2.114 . S
O121 C124 1.252 . S
O122 Mg112 2.251 . S
O122 Mg115 2.079 . S
O122 C124 1.273 . S
C123 O119 1.246 . S
C123 O120 1.259 . S
C124 O121 1.252 . S
C124 O122 1.273 . S
O125 Mg112 2.010 . S
O125 C117 1.249 . S
Mg126 O127 2.028 . S
Mg126 O133 1.986 . S
Mg126 O135 2.114 . S
Mg126 O136 2.251 . S
Mg126 O139 2.010 . S
O127 Mg126 2.028 . S
O127 C130 1.250 . S
O128 Mg129 2.028 . S
O128 C130 1.248 . S
Mg129 O128 2.028 . S
Mg129 O134 2.032 . S
Mg129 O136 2.079 . S
C130 O127 1.250 . S
C130 O128 1.248 . S
C131 O132 1.264 . S
C131 O139 1.249 . S
O132 C131 1.264 . S
O133 Mg126 1.986 . S
O133 C137 1.246 . S
O134 Mg129 2.032 . S
O134 C137 1.259 . S
O135 Mg126 2.114 . S
O135 C138 1.252 . S
O136 Mg126 2.251 . S
O136 Mg129 2.079 . S
O136 C138 1.273 . S
C137 O133 1.246 . S
C137 O134 1.259 . S
C138 O135 1.252 . S
C138 O136 1.273 . S
O139 Mg126 2.010 . S
O139 C131 1.249 . S
Mg140 O141 2.028 . S
Mg140 O147 1.986 . S
Mg140 O149 2.114 . S
Mg140 O150 2.251 . S
Mg140 O153 2.010 . S
O141 Mg140 2.028 . S
O141 C144 1.250 . S
O142 Mg143 2.028 . S
O142 C144 1.248 . S
Mg143 O142 2.028 . S
Mg143 O148 2.032 . S
Mg143 O150 2.079 . S
C144 O141 1.250 . S
C144 O142 1.248 . S
C145 O146 1.264 . S
C145 O153 1.249 . S
O146 C145 1.264 . S
O147 Mg140 1.986 . S
O147 C151 1.246 . S
O148 Mg143 2.032 . S
O148 C151 1.259 . S
O149 Mg140 2.114 . S
O149 C152 1.252 . S
O150 Mg140 2.251 . S
O150 Mg143 2.079 . S
O150 C152 1.273 . S
C151 O147 1.246 . S
C151 O148 1.259 . S
C152 O149 1.252 . S
C152 O150 1.273 . S
O153 Mg140 2.010 . S
O153 C145 1.249 . S
Mg154 O155 2.028 . S
Mg154 O161 1.986 . S
Mg154 O163 2.114 . S
Mg154 O164 2.251 . S
Mg154 O167 2.010 . S
O155 Mg154 2.028 . S
O155 C158 1.250 . S
O156 Mg157 2.028 . S
O156 C158 1.248 . S
Mg157 O156 2.028 . S
Mg157 O162 2.032 . S
Mg157 O164 2.079 . S
C158 O155 1.250 . S
C158 O156 1.248 . S
C159 O160 1.264 . S
C159 O167 1.249 . S
O160 C159 1.264 . S
O161 Mg154 1.986 . S
O161 C165 1.246 . S
O162 Mg157 2.032 . S
O162 C165 1.259 . S
O163 Mg154 2.114 . S
O163 C166 1.252 . S
O164 Mg154 2.251 . S
O164 Mg157 2.079 . S
O164 C166 1.273 . S
C165 O161 1.246 . S
C165 O162 1.259 . S
C166 O163 1.252 . S
C166 O164 1.273 . S
O167 Mg154 2.010 . S
O167 C159 1.249 . S
Mg168 O169 2.028 . S
Mg168 O175 1.986 . S
Mg168 O177 2.114 . S
Mg168 O178 2.251 . S
Mg168 O181 2.010 . S
O169 Mg168 2.028 . S
O169 C172 1.250 . S
O170 Mg171 2.028 . S
O170 C172 1.248 . S
Mg171 O170 2.028 . S
Mg171 O176 2.032 . S
Mg171 O178 2.079 . S
C172 O169 1.250 . S
C172 O170 1.248 . S
C173 O174 1.264 . S
C173 O181 1.249 . S
O174 C173 1.264 . S
O175 Mg168 1.986 . S
O175 C179 1.246 . S
O176 Mg171 2.032 . S
O176 C179 1.259 . S
O177 Mg168 2.114 . S
O177 C180 1.252 . S
O178 Mg168 2.251 . S
O178 Mg171 2.079 . S
O178 C180 1.273 . S
C179 O175 1.246 . S
C179 O176 1.259 . S
C180 O177 1.252 . S
C180 O178 1.273 . S
O181 Mg168 2.010 . S
O181 C173 1.249 . S
Mg182 O183 2.028 . S
Mg182 O189 1.986 . S
Mg182 O191 2.114 . S
Mg182 O192 2.251 . S
Mg182 O195 2.010 . S
O183 Mg182 2.028 . S
O183 C186 1.250 . S
O184 Mg185 2.028 . S
O184 C186 1.248 . S
Mg185 O184 2.028 . S
Mg185 O190 2.032 . S
Mg185 O192 2.079 . S
C186 O183 1.250 . S
C186 O184 1.248 . S
C187 O188 1.264 . S
C187 O195 1.249 . S
O188 C187 1.264 . S
O189 Mg182 1.986 . S
O189 C193 1.246 . S
O190 Mg185 2.032 . S
O190 C193 1.259 . S
O191 Mg182 2.114 . S
O191 C194 1.252 . S
O192 Mg182 2.251 . S
O192 Mg185 2.079 . S
O192 C194 1.273 . S
C193 O189 1.246 . S
C193 O190 1.259 . S
C194 O191 1.252 . S
C194 O192 1.273 . S
O195 Mg182 2.010 . S
O195 C187 1.249 . S
Mg196 O197 2.028 . S
Mg196 O203 1.986 . S
Mg196 O205 2.114 . S
Mg196 O206 2.251 . S
Mg196 O209 2.010 . S
O197 Mg196 2.028 . S
O197 C200 1.250 . S
O198 Mg199 2.028 . S
O198 C200 1.248 . S
Mg199 O198 2.028 . S
Mg199 O204 2.032 . S
Mg199 O206 2.079 . S
C200 O197 1.250 . S
C200 O198 1.248 . S
C201 O202 1.264 . S
C201 O209 1.249 . S
O202 C201 1.264 . S
O203 Mg196 1.986 . S
O203 C207 1.246 . S
O204 Mg199 2.032 . S
O204 C207 1.259 . S
O205 Mg196 2.114 . S
O205 C208 1.252 . S
O206 Mg196 2.251 . S
O206 Mg199 2.079 . S
O206 C208 1.273 . S
C207 O203 1.246 . S
C207 O204 1.259 . S
C208 O205 1.252 . S
C208 O206 1.273 . S
O209 Mg196 2.010 . S
O209 C201 1.249 . S
Mg210 O211 2.028 . S
Mg210 O217 1.986 . S
Mg210 O219 2.114 . S
Mg210 O220 2.251 . S
Mg210 O223 2.010 . S
O211 Mg210 2.028 . S
O211 C214 1.250 . S
O212 Mg213 2.028 . S
O212 C214 1.248 . S
Mg213 O212 2.028 . S
Mg213 O218 2.032 . S
Mg213 O220 2.079 . S
C214 O211 1.250 . S
C214 O212 1.248 . S
C215 O216 1.264 . S
C215 O223 1.249 . S
O216 C215 1.264 . S
O217 Mg210 1.986 . S
O217 C221 1.246 . S
O218 Mg213 2.032 . S
O218 C221 1.259 . S
O219 Mg210 2.114 . S
O219 C222 1.252 . S
O220 Mg210 2.251 . S
O220 Mg213 2.079 . S
O220 C222 1.273 . S
C221 O217 1.246 . S
C221 O218 1.259 . S
C222 O219 1.252 . S
C222 O220 1.273 . S
O223 Mg210 2.010 . S
O223 C215 1.249 . S
Mg224 O225 2.028 . S
Mg224 O231 1.986 . S
Mg224 O233 2.114 . S
Mg224 O234 2.251 . S
Mg224 O237 2.010 . S
O225 Mg224 2.028 . S
O225 C228 1.250 . S
O226 Mg227 2.028 . S
O226 C228 1.248 . S
Mg227 O226 2.028 . S
Mg227 O232 2.032 . S
Mg227 O234 2.079 . S
C228 O225 1.250 . S
C228 O226 1.248 . S
C229 O230 1.264 . S
C229 O237 1.249 . S
O230 C229 1.264 . S
O231 Mg224 1.986 . S
O231 C235 1.246 . S
O232 Mg227 2.032 . S
O232 C235 1.259 . S
O233 Mg224 2.114 . S
O233 C236 1.252 . S
O234 Mg224 2.251 . S
O234 Mg227 2.079 . S
O234 C236 1.273 . S
C235 O231 1.246 . S
C235 O232 1.259 . S
C236 O233 1.252 . S
C236 O234 1.273 . S
O237 Mg224 2.010 . S
O237 C229 1.249 . S
Mg238 O239 2.028 . S
Mg238 O245 1.986 . S
Mg238 O247 2.114 . S
Mg238 O248 2.251 . S
Mg238 O251 2.010 . S
O239 Mg238 2.028 . S
O239 C242 1.250 . S
O240 Mg241 2.028 . S
O240 C242 1.248 . S
Mg241 O240 2.028 . S
Mg241 O246 2.032 . S
Mg241 O248 2.079 . S
C242 O239 1.250 . S
C242 O240 1.248 . S
C243 O244 1.264 . S
C243 O251 1.249 . S
O244 C243 1.264 . S
O245 Mg238 1.986 . S
O245 C249 1.246 . S
O246 Mg241 2.032 . S
O246 C249 1.259 . S
O247 Mg238 2.114 . S
O247 C250 1.252 . S
O248 Mg238 2.251 . S
O248 Mg241 2.079 . S
O248 C250 1.273 . S
C249 O245 1.246 . S
C249 O246 1.259 . S
C250 O247 1.252 . S
C250 O248 1.273 . S
O251 Mg238 2.010 . S
O251 C243 1.249 . S
Mg252 O253 2.028 . S
Mg252 O259 1.986 . S
Mg252 O261 2.114 . S
Mg252 O262 2.251 . S
Mg252 O265 2.010 . S
O253 Mg252 2.028 . S
O253 C256 1.250 . S
O254 Mg255 2.028 . S
O254 C256 1.248 . S
Mg255 O254 2.028 . S
Mg255 O260 2.032 . S
Mg255 O262 2.079 . S
C256 O253 1.250 . S
C256 O254 1.248 . S
C257 O258 1.264 . S
C257 O265 1.249 . S
O258 C257 1.264 . S
O259 Mg252 1.986 . S
O259 C263 1.246 . S
O260 Mg255 2.032 . S
O260 C263 1.259 . S
O261 Mg252 2.114 . S
O261 C264 1.252 . S
O262 Mg252 2.251 . S
O262 Mg255 2.079 . S
O262 C264 1.273 . S
C263 O259 1.246 . S
C263 O260 1.259 . S
C264 O261 1.252 . S
C264 O262 1.273 . S
O265 Mg252 2.010 . S
O265 C257 1.249 . S
Mg266 O267 2.028 . S
Mg266 O273 1.986 . S
Mg266 O275 2.114 . S
Mg266 O276 2.251 . S
Mg266 O279 2.010 . S
O267 Mg266 2.028 . S
O267 C270 1.250 . S
O268 Mg269 2.028 . S
O268 C270 1.248 . S
Mg269 O268 2.028 . S
Mg269 O274 2.032 . S
Mg269 O276 2.079 . S
C270 O267 1.250 . S
C270 O268 1.248 . S
C271 O272 1.264 . S
C271 O279 1.249 . S
O272 C271 1.264 . S
O273 Mg266 1.986 . S
O273 C277 1.246 . S
O274 Mg269 2.032 . S
O274 C277 1.259 . S
O275 Mg266 2.114 . S
O275 C278 1.252 . S
O276 Mg266 2.251 . S
O276 Mg269 2.079 . S
O276 C278 1.273 . S
C277 O273 1.246 . S
C277 O274 1.259 . S
C278 O275 1.252 . S
C278 O276 1.273 . S
O279 Mg266 2.010 . S
O279 C271 1.249 . S
Mg280 O281 2.028 . S
Mg280 O287 1.986 . S
Mg280 O289 2.114 . S
Mg280 O290 2.251 . S
Mg280 O293 2.010 . S
O281 Mg280 2.028 . S
O281 C284 1.250 . S
O282 Mg283 2.028 . S
O282 C284 1.248 . S
Mg283 O282 2.028 . S
Mg283 O288 2.032 . S
Mg283 O290 2.079 . S
C284 O281 1.250 . S
C284 O282 1.248 . S
C285 O286 1.264 . S
C285 O293 1.249 . S
O286 C285 1.264 . S
O287 Mg280 1.986 . S
O287 C291 1.246 . S
O288 Mg283 2.032 . S
O288 C291 1.259 . S
O289 Mg280 2.114 . S
O289 C292 1.252 . S
O290 Mg280 2.251 . S
O290 Mg283 2.079 . S
O290 C292 1.273 . S
C291 O287 1.246 . S
C291 O288 1.259 . S
C292 O289 1.252 . S
C292 O290 1.273 . S
O293 Mg280 2.010 . S
O293 C285 1.249 . S
Mg294 O295 2.028 . S
Mg294 O301 1.986 . S
Mg294 O303 2.114 . S
Mg294 O304 2.251 . S
Mg294 O307 2.010 . S
O295 Mg294 2.028 . S
O295 C298 1.250 . S
O296 Mg297 2.028 . S
O296 C298 1.248 . S
Mg297 O296 2.028 . S
Mg297 O302 2.032 . S
Mg297 O304 2.079 . S
C298 O295 1.250 . S
C298 O296 1.248 . S
C299 O300 1.264 . S
C299 O307 1.249 . S
O300 C299 1.264 . S
O301 Mg294 1.986 . S
O301 C305 1.246 . S
O302 Mg297 2.032 . S
O302 C305 1.259 . S
O303 Mg294 2.114 . S
O303 C306 1.252 . S
O304 Mg294 2.251 . S
O304 Mg297 2.079 . S
O304 C306 1.273 . S
C305 O301 1.246 . S
C305 O302 1.259 . S
C306 O303 1.252 . S
C306 O304 1.273 . S
O307 Mg294 2.010 . S
O307 C299 1.249 . S
Mg308 O309 2.028 . S
Mg308 O315 1.986 . S
Mg308 O317 2.114 . S
Mg308 O318 2.251 . S
Mg308 O321 2.010 . S
O309 Mg308 2.028 . S
O309 C312 1.250 . S
O310 Mg311 2.028 . S
O310 C312 1.248 . S
Mg311 O310 2.028 . S
Mg311 O316 2.032 . S
Mg311 O318 2.079 . S
C312 O309 1.250 . S
C312 O310 1.248 . S
C313 O314 1.264 . S
C313 O321 1.249 . S
O314 C313 1.264 . S
O315 Mg308 1.986 . S
O315 C319 1.246 . S
O316 Mg311 2.032 . S
O316 C319 1.259 . S
O317 Mg308 2.114 . S
O317 C320 1.252 . S
O318 Mg308 2.251 . S
O318 Mg311 2.079 . S
O318 C320 1.273 . S
C319 O315 1.246 . S
C319 O316 1.259 . S
C320 O317 1.252 . S
C320 O318 1.273 . S
O321 Mg308 2.010 . S
O321 C313 1.249 . S
Mg322 O323 2.028 . S
Mg322 O329 1.986 . S
Mg322 O331 2.114 . S
Mg322 O332 2.251 . S
Mg322 O335 2.010 . S
O323 Mg322 2.028 . S
O323 C326 1.250 . S
O324 Mg325 2.028 . S
O324 C326 1.248 . S
Mg325 O324 2.028 . S
Mg325 O330 2.032 . S
Mg325 O332 2.079 . S
C326 O323 1.250 . S
C326 O324 1.248 . S
C327 O328 1.264 . S
C327 O335 1.249 . S
O328 C327 1.264 . S
O329 Mg322 1.986 . S
O329 C333 1.246 . S
O330 Mg325 2.032 . S
O330 C333 1.259 . S
O331 Mg322 2.114 . S
O331 C334 1.252 . S
O332 Mg322 2.251 . S
O332 Mg325 2.079 . S
O332 C334 1.273 . S
C333 O329 1.246 . S
C333 O330 1.259 . S
C334 O331 1.252 . S
C334 O332 1.273 . S
O335 Mg322 2.010 . S
O335 C327 1.249 . S
Mg336 O337 2.028 . S
Mg336 O343 1.986 . S
Mg336 O345 2.114 . S
Mg336 O346 2.251 . S
Mg336 O349 2.010 . S
O337 Mg336 2.028 . S
O337 C340 1.250 . S
O338 Mg339 2.028 . S
O338 C340 1.248 . S
Mg339 O338 2.028 . S
Mg339 O344 2.032 . S
Mg339 O346 2.079 . S
C340 O337 1.250 . S
C340 O338 1.248 . S
C341 O342 1.264 . S
C341 O349 1.249 . S
O342 C341 1.264 . S
O343 Mg336 1.986 . S
O343 C347 1.246 . S
O344 Mg339 2.032 . S
O344 C347 1.259 . S
O345 Mg336 2.114 . S
O345 C348 1.252 . S
O346 Mg336 2.251 . S
O346 Mg339 2.079 . S
O346 C348 1.273 . S
C347 O343 1.246 . S
C347 O344 1.259 . S
C348 O345 1.252 . S
C348 O346 1.273 . S
O349 Mg336 2.010 . S
O349 C341 1.249 . S
Mg350 O351 2.028 . S
Mg350 O357 1.986 . S
Mg350 O359 2.114 . S
Mg350 O360 2.251 . S
Mg350 O363 2.010 . S
O351 Mg350 2.028 . S
O351 C354 1.250 . S
O352 Mg353 2.028 . S
O352 C354 1.248 . S
Mg353 O352 2.028 . S
Mg353 O358 2.032 . S
Mg353 O360 2.079 . S
C354 O351 1.250 . S
C354 O352 1.248 . S
C355 O356 1.264 . S
C355 O363 1.249 . S
O356 C355 1.264 . S
O357 Mg350 1.986 . S
O357 C361 1.246 . S
O358 Mg353 2.032 . S
O358 C361 1.259 . S
O359 Mg350 2.114 . S
O359 C362 1.252 . S
O360 Mg350 2.251 . S
O360 Mg353 2.079 . S
O360 C362 1.273 . S
C361 O357 1.246 . S
C361 O358 1.259 . S
C362 O359 1.252 . S
C362 O360 1.273 . S
O363 Mg350 2.010 . S
O363 C355 1.249 . S
Mg364 O365 2.028 . S
Mg364 O371 1.986 . S
Mg364 O373 2.114 . S
Mg364 O374 2.251 . S
Mg364 O377 2.010 . S
O365 Mg364 2.028 . S
O365 C368 1.250 . S
O366 Mg367 2.028 . S
O366 C368 1.248 . S
Mg367 O366 2.028 . S
Mg367 O372 2.032 . S
Mg367 O374 2.079 . S
C368 O365 1.250 . S
C368 O366 1.248 . S
C369 O370 1.264 . S
C369 O377 1.249 . S
O370 C369 1.264 . S
O371 Mg364 1.986 . S
O371 C375 1.246 . S
O372 Mg367 2.032 . S
O372 C375 1.259 . S
O373 Mg364 2.114 . S
O373 C376 1.252 . S
O374 Mg364 2.251 . S
O374 Mg367 2.079 . S
O374 C376 1.273 . S
C375 O371 1.246 . S
C375 O372 1.259 . S
C376 O373 1.252 . S
C376 O374 1.273 . S
O377 Mg364 2.010 . S
O377 C369 1.249 . S
Mg378 O379 2.028 . S
Mg378 O385 1.986 . S
Mg378 O387 2.114 . S
Mg378 O388 2.251 . S
Mg378 O391 2.010 . S
O379 Mg378 2.028 . S
O379 C382 1.250 . S
O380 Mg381 2.028 . S
O380 C382 1.248 . S
Mg381 O380 2.028 . S
Mg381 O386 2.032 . S
Mg381 O388 2.079 . S
C382 O379 1.250 . S
C382 O380 1.248 . S
C383 O384 1.264 . S
C383 O391 1.249 . S
O384 C383 1.264 . S
O385 Mg378 1.986 . S
O385 C389 1.246 . S
O386 Mg381 2.032 . S
O386 C389 1.259 . S
O387 Mg378 2.114 . S
O387 C390 1.252 . S
O388 Mg378 2.251 . S
O388 Mg381 2.079 . S
O388 C390 1.273 . S
C389 O385 1.246 . S
C389 O386 1.259 . S
C390 O387 1.252 . S
C390 O388 1.273 . S
O391 Mg378 2.010 . S
O391 C383 1.249 . S
Mg392 O393 2.028 . S
Mg392 O399 1.986 . S
Mg392 O401 2.114 . S
Mg392 O402 2.251 . S
Mg392 O405 2.010 . S
O393 Mg392 2.028 . S
O393 C396 1.250 . S
O394 Mg395 2.028 . S
O394 C396 1.248 . S
Mg395 O394 2.028 . S
Mg395 O400 2.032 . S
Mg395 O402 2.079 . S
C396 O393 1.250 . S
C396 O394 1.248 . S
C397 O398 1.264 . S
C397 O405 1.249 . S
O398 C397 1.264 . S
O399 Mg392 1.986 . S
O399 C403 1.246 . S
O400 Mg395 2.032 . S
O400 C403 1.259 . S
O401 Mg392 2.114 . S
O401 C404 1.252 . S
O402 Mg392 2.251 . S
O402 Mg395 2.079 . S
O402 C404 1.273 . S
C403 O399 1.246 . S
C403 O400 1.259 . S
C404 O401 1.252 . S
C404 O402 1.273 . S
O405 Mg392 2.010 . S
O405 C397 1.249 . S
Mg406 O407 2.028 . S
Mg406 O413 1.986 . S
Mg406 O415 2.114 . S
Mg406 O416 2.251 . S
Mg406 O419 2.010 . S
O407 Mg406 2.028 . S
O407 C410 1.250 . S
O408 Mg409 2.028 . S
O408 C410 1.248 . S
Mg409 O408 2.028 . S
Mg409 O414 2.032 . S
Mg409 O416 2.079 . S
C410 O407 1.250 . S
C410 O408 1.248 . S
C411 O412 1.264 . S
C411 O419 1.249 . S
O412 C411 1.264 . S
O413 Mg406 1.986 . S
O413 C417 1.246 . S
O414 Mg409 2.032 . S
O414 C417 1.259 . S
O415 Mg406 2.114 . S
O415 C418 1.252 . S
O416 Mg406 2.251 . S
O416 Mg409 2.079 . S
O416 C418 1.273 . S
C417 O413 1.246 . S
C417 O414 1.259 . S
C418 O415 1.252 . S
C418 O416 1.273 . S
O419 Mg406 2.010 . S
O419 C411 1.249 . S
Mg420 O421 2.028 . S
Mg420 O427 1.986 . S
Mg420 O429 2.114 . S
Mg420 O430 2.251 . S
Mg420 O433 2.010 . S
O421 Mg420 2.028 . S
O421 C424 1.250 . S
O422 Mg423 2.028 . S
O422 C424 1.248 . S
Mg423 O422 2.028 . S
Mg423 O428 2.032 . S
Mg423 O430 2.079 . S
C424 O421 1.250 . S
C424 O422 1.248 . S
C425 O426 1.264 . S
C425 O433 1.249 . S
O426 C425 1.264 . S
O427 Mg420 1.986 . S
O427 C431 1.246 . S
O428 Mg423 2.032 . S
O428 C431 1.259 . S
O429 Mg420 2.114 . S
O429 C432 1.252 . S
O430 Mg420 2.251 . S
O430 Mg423 2.079 . S
O430 C432 1.273 . S
C431 O427 1.246 . S
C431 O428 1.259 . S
C432 O429 1.252 . S
C432 O430 1.273 . S
O433 Mg420 2.010 . S
O433 C425 1.249 . S
Mg434 O435 2.028 . S
Mg434 O441 1.986 . S
Mg434 O443 2.114 . S
Mg434 O444 2.251 . S
Mg434 O447 2.010 . S
O435 Mg434 2.028 . S
O435 C438 1.250 . S
O436 Mg437 2.028 . S
O436 C438 1.248 . S
Mg437 O436 2.028 . S
Mg437 O442 2.032 . S
Mg437 O444 2.079 . S
C438 O435 1.250 . S
C438 O436 1.248 . S
C439 O440 1.264 . S
C439 O447 1.249 . S
O440 C439 1.264 . S
O441 Mg434 1.986 . S
O441 C445 1.246 . S
O442 Mg437 2.032 . S
O442 C445 1.259 . S
O443 Mg434 2.114 . S
O443 C446 1.252 . S
O444 Mg434 2.251 . S
O444 Mg437 2.079 . S
O444 C446 1.273 . S
C445 O441 1.246 . S
C445 O442 1.259 . S
C446 O443 1.252 . S
C446 O444 1.273 . S
O447 Mg434 2.010 . S
O447 C439 1.249 . S
Mg448 O449 2.028 . S
Mg448 O455 1.986 . S
Mg448 O457 2.114 . S
Mg448 O458 2.251 . S
Mg448 O461 2.010 . S
O449 Mg448 2.028 . S
O449 C452 1.250 . S
O450 Mg451 2.028 . S
O450 C452 1.248 . S
Mg451 O450 2.028 . S
Mg451 O456 2.032 . S
Mg451 O458 2.079 . S
C452 O449 1.250 . S
C452 O450 1.248 . S
C453 O454 1.264 . S
C453 O461 1.249 . S
O454 C453 1.264 . S
O455 Mg448 1.986 . S
O455 C459 1.246 . S
O456 Mg451 2.032 . S
O456 C459 1.259 . S
O457 Mg448 2.114 . S
O457 C460 1.252 . S
O458 Mg448 2.251 . S
O458 Mg451 2.079 . S
O458 C460 1.273 . S
C459 O455 1.246 . S
C459 O456 1.259 . S
C460 O457 1.252 . S
C460 O458 1.273 . S
O461 Mg448 2.010 . S
O461 C453 1.249 . S
Mg462 O463 2.028 . S
Mg462 O469 1.986 . S
Mg462 O471 2.114 . S
Mg462 O472 2.251 . S
Mg462 O475 2.010 . S
O463 Mg462 2.028 . S
O463 C466 1.250 . S
O464 Mg465 2.028 . S
O464 C466 1.248 . S
Mg465 O464 2.028 . S
Mg465 O470 2.032 . S
Mg465 O472 2.079 . S
C466 O463 1.250 . S
C466 O464 1.248 . S
C467 O468 1.264 . S
C467 O475 1.249 . S
O468 C467 1.264 . S
O469 Mg462 1.986 . S
O469 C473 1.246 . S
O470 Mg465 2.032 . S
O470 C473 1.259 . S
O471 Mg462 2.114 . S
O471 C474 1.252 . S
O472 Mg462 2.251 . S
O472 Mg465 2.079 . S
O472 C474 1.273 . S
C473 O469 1.246 . S
C473 O470 1.259 . S
C474 O471 1.252 . S
C474 O472 1.273 . S
O475 Mg462 2.010 . S
O475 C467 1.249 . S
Mg476 O477 2.028 . S
Mg476 O483 1.986 . S
Mg476 O485 2.114 . S
Mg476 O486 2.251 . S
Mg476 O489 2.010 . S
O477 Mg476 2.028 . S
O477 C480 1.250 . S
O478 Mg479 2.028 . S
O478 C480 1.248 . S
Mg479 O478 2.028 . S
Mg479 O484 2.032 . S
Mg479 O486 2.079 . S
C480 O477 1.250 . S
C480 O478 1.248 . S
C481 O482 1.264 . S
C481 O489 1.249 . S
O482 C481 1.264 . S
O483 Mg476 1.986 . S
O483 C487 1.246 . S
O484 Mg479 2.032 . S
O484 C487 1.259 . S
O485 Mg476 2.114 . S
O485 C488 1.252 . S
O486 Mg476 2.251 . S
O486 Mg479 2.079 . S
O486 C488 1.273 . S
C487 O483 1.246 . S
C487 O484 1.259 . S
C488 O485 1.252 . S
C488 O486 1.273 . S
O489 Mg476 2.010 . S
O489 C481 1.249 . S
Mg490 O491 2.028 . S
Mg490 O497 1.986 . S
Mg490 O499 2.114 . S
Mg490 O500 2.251 . S
Mg490 O503 2.010 . S
O491 Mg490 2.028 . S
O491 C494 1.250 . S
O492 Mg493 2.028 . S
O492 C494 1.248 . S
Mg493 O492 2.028 . S
Mg493 O498 2.032 . S
Mg493 O500 2.079 . S
C494 O491 1.250 . S
C494 O492 1.248 . S
C495 O496 1.264 . S
C495 O503 1.249 . S
O496 C495 1.264 . S
O497 Mg490 1.986 . S
O497 C501 1.246 . S
O498 Mg493 2.032 . S
O498 C501 1.259 . S
O499 Mg490 2.114 . S
O499 C502 1.252 . S
O500 Mg490 2.251 . S
O500 Mg493 2.079 . S
O500 C502 1.273 . S
C501 O497 1.246 . S
C501 O498 1.259 . S
C502 O499 1.252 . S
C502 O500 1.273 . S
O503 Mg490 2.010 . S
O503 C495 1.249 . S
Mg504 O505 2.028 . S
Mg504 O511 1.986 . S
Mg504 O513 2.114 . S
Mg504 O514 2.251 . S
Mg504 O517 2.010 . S
O505 Mg504 2.028 . S
O505 C508 1.250 . S
O506 Mg507 2.028 . S
O506 C508 1.248 . S
Mg507 O506 2.028 . S
Mg507 O512 2.032 . S
Mg507 O514 2.079 . S
C508 O505 1.250 . S
C508 O506 1.248 . S
C509 O510 1.264 . S
C509 O517 1.249 . S
O510 C509 1.264 . S
O511 Mg504 1.986 . S
O511 C515 1.246 . S
O512 Mg507 2.032 . S
O512 C515 1.259 . S
O513 Mg504 2.114 . S
O513 C516 1.252 . S
O514 Mg504 2.251 . S
O514 Mg507 2.079 . S
O514 C516 1.273 . S
C515 O511 1.246 . S
C515 O512 1.259 . S
C516 O513 1.252 . S
C516 O514 1.273 . S
O517 Mg504 2.010 . S
O517 C509 1.249 . S
Mg518 O519 2.028 . S
Mg518 O525 1.986 . S
Mg518 O527 2.114 . S
Mg518 O528 2.251 . S
Mg518 O531 2.010 . S
O519 Mg518 2.028 . S
O519 C522 1.250 . S
O520 Mg521 2.028 . S
O520 C522 1.248 . S
Mg521 O520 2.028 . S
Mg521 O526 2.032 . S
Mg521 O528 2.079 . S
C522 O519 1.250 . S
C522 O520 1.248 . S
C523 O524 1.264 . S
C523 O531 1.249 . S
O524 C523 1.264 . S
O525 Mg518 1.986 . S
O525 C529 1.246 . S
O526 Mg521 2.032 . S
O526 C529 1.259 . S
O527 Mg518 2.114 . S
O527 C530 1.252 . S
O528 Mg518 2.251 . S
O528 Mg521 2.079 . S
O528 C530 1.273 . S
C529 O525 1.246 . S
C529 O526 1.259 . S
C530 O527 1.252 . S
C530 O528 1.273 . S
O531 Mg518 2.010 . S
O531 C523 1.249 . S
Mg532 O533 2.028 . S
Mg532 O539 1.986 . S
Mg532 O541 2.114 . S
Mg532 O542 2.251 . S
Mg532 O545 2.010 . S
O533 Mg532 2.028 . S
O533 C536 1.250 . S
O534 Mg535 2.028 . S
O534 C536 1.248 . S
Mg535 O534 2.028 . S
Mg535 O540 2.032 . S
Mg535 O542 2.079 . S
C536 O533 1.250 . S
C536 O534 1.248 . S
C537 O538 1.264 . S
C537 O545 1.249 . S
O538 C537 1.264 . S
O539 Mg532 1.986 . S
O539 C543 1.246 . S
O540 Mg535 2.032 . S
O540 C543 1.259 . S
O541 Mg532 2.114 . S
O541 C544 1.252 . S
O542 Mg532 2.251 . S
O542 Mg535 2.079 . S
O542 C544 1.273 . S
C543 O539 1.246 . S
C543 O540 1.259 . S
C544 O541 1.252 . S
C544 O542 1.273 . S
O545 Mg532 2.010 . S
O545 C537 1.249 . S
Mg546 O547 2.028 . S
Mg546 O553 1.986 . S
Mg546 O555 2.114 . S
Mg546 O556 2.251 . S
Mg546 O559 2.010 . S
O547 Mg546 2.028 . S
O547 C550 1.250 . S
O548 Mg549 2.028 . S
O548 C550 1.248 . S
Mg549 O548 2.028 . S
Mg549 O554 2.032 . S
Mg549 O556 2.079 . S
C550 O547 1.250 . S
C550 O548 1.248 . S
C551 O552 1.264 . S
C551 O559 1.249 . S
O552 C551 1.264 . S
O553 Mg546 1.986 . S
O553 C557 1.246 . S
O554 Mg549 2.032 . S
O554 C557 1.259 . S
O555 Mg546 2.114 . S
O555 C558 1.252 . S
O556 Mg546 2.251 . S
O556 Mg549 2.079 . S
O556 C558 1.273 . S
C557 O553 1.246 . S
C557 O554 1.259 . S
C558 O555 1.252 . S
C558 O556 1.273 . S
O559 Mg546 2.010 . S
O559 C551 1.249 . S
Mg560 O561 2.028 . S
Mg560 O567 1.986 . S
Mg560 O569 2.114 . S
Mg560 O570 2.251 . S
Mg560 O573 2.010 . S
O561 Mg560 2.028 . S
O561 C564 1.250 . S
O562 Mg563 2.028 . S
O562 C564 1.248 . S
Mg563 O562 2.028 . S
Mg563 O568 2.032 . S
Mg563 O570 2.079 . S
C564 O561 1.250 . S
C564 O562 1.248 . S
C565 O566 1.264 . S
C565 O573 1.249 . S
O566 C565 1.264 . S
O567 Mg560 1.986 . S
O567 C571 1.246 . S
O568 Mg563 2.032 . S
O568 C571 1.259 . S
O569 Mg560 2.114 . S
O569 C572 1.252 . S
O570 Mg560 2.251 . S
O570 Mg563 2.079 . S
O570 C572 1.273 . S
C571 O567 1.246 . S
C571 O568 1.259 . S
C572 O569 1.252 . S
C572 O570 1.273 . S
O573 Mg560 2.010 . S
O573 C565 1.249 . S
Mg574 O575 2.028 . S
Mg574 O581 1.986 . S
Mg574 O583 2.114 . S
Mg574 O584 2.251 . S
Mg574 O587 2.010 . S
O575 Mg574 2.028 . S
O575 C578 1.250 . S
O576 Mg577 2.028 . S
O576 C578 1.248 . S
Mg577 O576 2.028 . S
Mg577 O582 2.032 . S
Mg577 O584 2.079 . S
C578 O575 1.250 . S
C578 O576 1.248 . S
C579 O580 1.264 . S
C579 O587 1.249 . S
O580 C579 1.264 . S
O581 Mg574 1.986 . S
O581 C585 1.246 . S
O582 Mg577 2.032 . S
O582 C585 1.259 . S
O583 Mg574 2.114 . S
O583 C586 1.252 . S
O584 Mg574 2.251 . S
O584 Mg577 2.079 . S
O584 C586 1.273 . S
C585 O581 1.246 . S
C585 O582 1.259 . S
C586 O583 1.252 . S
C586 O584 1.273 . S
O587 Mg574 2.010 . S
O587 C579 1.249 . S
Mg588 O589 2.028 . S
Mg588 O595 1.986 . S
Mg588 O597 2.114 . S
Mg588 O598 2.251 . S
Mg588 O601 2.010 . S
O589 Mg588 2.028 . S
O589 C592 1.250 . S
O590 Mg591 2.028 . S
O590 C592 1.248 . S
Mg591 O590 2.028 . S
Mg591 O596 2.032 . S
Mg591 O598 2.079 . S
C592 O589 1.250 . S
C592 O590 1.248 . S
C593 O594 1.264 . S
C593 O601 1.249 . S
O594 C593 1.264 . S
O595 Mg588 1.986 . S
O595 C599 1.246 . S
O596 Mg591 2.032 . S
O596 C599 1.259 . S
O597 Mg588 2.114 . S
O597 C600 1.252 . S
O598 Mg588 2.251 . S
O598 Mg591 2.079 . S
O598 C600 1.273 . S
C599 O595 1.246 . S
C599 O596 1.259 . S
C600 O597 1.252 . S
C600 O598 1.273 . S
O601 Mg588 2.010 . S
O601 C593 1.249 . S
Mg602 O603 2.028 . S
Mg602 O609 1.986 . S
Mg602 O611 2.114 . S
Mg602 O612 2.251 . S
Mg602 O615 2.010 . S
O603 Mg602 2.028 . S
O603 C606 1.250 . S
O604 Mg605 2.028 . S
O604 C606 1.248 . S
Mg605 O604 2.028 . S
Mg605 O610 2.032 . S
Mg605 O612 2.079 . S
C606 O603 1.250 . S
C606 O604 1.248 . S
C607 O608 1.264 . S
C607 O615 1.249 . S
O608 C607 1.264 . S
O609 Mg602 1.986 . S
O609 C613 1.246 . S
O610 Mg605 2.032 . S
O610 C613 1.259 . S
O611 Mg602 2.114 . S
O611 C614 1.252 . S
O612 Mg602 2.251 . S
O612 Mg605 2.079 . S
O612 C614 1.273 . S
C613 O609 1.246 . S
C613 O610 1.259 . S
C614 O611 1.252 . S
C614 O612 1.273 . S
O615 Mg602 2.010 . S
O615 C607 1.249 . S
Mg616 O617 2.028 . S
Mg616 O623 1.986 . S
Mg616 O625 2.114 . S
Mg616 O626 2.251 . S
Mg616 O629 2.010 . S
O617 Mg616 2.028 . S
O617 C620 1.250 . S
O618 Mg619 2.028 . S
O618 C620 1.248 . S
Mg619 O618 2.028 . S
Mg619 O624 2.032 . S
Mg619 O626 2.079 . S
C620 O617 1.250 . S
C620 O618 1.248 . S
C621 O622 1.264 . S
C621 O629 1.249 . S
O622 C621 1.264 . S
O623 Mg616 1.986 . S
O623 C627 1.246 . S
O624 Mg619 2.032 . S
O624 C627 1.259 . S
O625 Mg616 2.114 . S
O625 C628 1.252 . S
O626 Mg616 2.251 . S
O626 Mg619 2.079 . S
O626 C628 1.273 . S
C627 O623 1.246 . S
C627 O624 1.259 . S
C628 O625 1.252 . S
C628 O626 1.273 . S
O629 Mg616 2.010 . S
O629 C621 1.249 . S
Mg630 O631 2.028 . S
Mg630 O637 1.986 . S
Mg630 O639 2.114 . S
Mg630 O640 2.251 . S
Mg630 O643 2.010 . S
O631 Mg630 2.028 . S
O631 C634 1.250 . S
O632 Mg633 2.028 . S
O632 C634 1.248 . S
Mg633 O632 2.028 . S
Mg633 O638 2.032 . S
Mg633 O640 2.079 . S
C634 O631 1.250 . S
C634 O632 1.248 . S
C635 O636 1.264 . S
C635 O643 1.249 . S
O636 C635 1.264 . S
O637 Mg630 1.986 . S
O637 C641 1.246 . S
O638 Mg633 2.032 . S
O638 C641 1.259 . S
O639 Mg630 2.114 . S
O639 C642 1.252 . S
O640 Mg630 2.251 . S
O640 Mg633 2.079 . S
O640 C642 1.273 . S
C641 O637 1.246 . S
C641 O638 1.259 . S
C642 O639 1.252 . S
C642 O640 1.273 . S
O643 Mg630 2.010 . S
O643 C635 1.249 . S
Mg644 O645 2.028 . S
Mg644 O651 1.986 . S
Mg644 O653 2.114 . S
Mg644 O654 2.251 . S
Mg644 O657 2.010 . S
O645 Mg644 2.028 . S
O645 C648 1.250 . S
O646 Mg647 2.028 . S
O646 C648 1.248 . S
Mg647 O646 2.028 . S
Mg647 O652 2.032 . S
Mg647 O654 2.079 . S
C648 O645 1.250 . S
C648 O646 1.248 . S
C649 O650 1.264 . S
C649 O657 1.249 . S
O650 C649 1.264 . S
O651 Mg644 1.986 . S
O651 C655 1.246 . S
O652 Mg647 2.032 . S
O652 C655 1.259 . S
O653 Mg644 2.114 . S
O653 C656 1.252 . S
O654 Mg644 2.251 . S
O654 Mg647 2.079 . S
O654 C656 1.273 . S
C655 O651 1.246 . S
C655 O652 1.259 . S
C656 O653 1.252 . S
C656 O654 1.273 . S
O657 Mg644 2.010 . S
O657 C649 1.249 . S
Mg658 O659 2.028 . S
Mg658 O665 1.986 . S
Mg658 O667 2.114 . S
Mg658 O668 2.251 . S
Mg658 O671 2.010 . S
O659 Mg658 2.028 . S
O659 C662 1.250 . S
O660 Mg661 2.028 . S
O660 C662 1.248 . S
Mg661 O660 2.028 . S
Mg661 O666 2.032 . S
Mg661 O668 2.079 . S
C662 O659 1.250 . S
C662 O660 1.248 . S
C663 O664 1.264 . S
C663 O671 1.249 . S
O664 C663 1.264 . S
O665 Mg658 1.986 . S
O665 C669 1.246 . S
O666 Mg661 2.032 . S
O666 C669 1.259 . S
O667 Mg658 2.114 . S
O667 C670 1.252 . S
O668 Mg658 2.251 . S
O668 Mg661 2.079 . S
O668 C670 1.273 . S
C669 O665 1.246 . S
C669 O666 1.259 . S
C670 O667 1.252 . S
C670 O668 1.273 . S
O671 Mg658 2.010 . S
O671 C663 1.249 . S
H672 C678 0.930 . S
H673 C682 0.930 . S
H674 C687 0.929 . S
H675 C685 0.929 . S
H676 C680 0.929 . S
H677 C686 0.929 . S
C678 H672 0.930 . S
C678 C679 1.367 . S
C678 C686 1.378 . S
C679 C678 1.367 . S
C679 C687 1.433 . S
C680 H676 0.929 . S
C680 C682 1.378 . S
C680 C684 1.350 . S
C681 C684 1.463 . S
C681 C686 1.350 . S
C681 N689 1.427 . S
C682 H673 0.930 . S
C682 C680 1.378 . S
C682 C683 1.367 . S
C683 C682 1.367 . S
C683 C685 1.433 . S
C684 C680 1.350 . S
C684 C681 1.463 . S
C684 N688 1.427 . S
C685 H675 0.929 . S
C685 C683 1.433 . S
C685 N688 1.384 . S
C686 H677 0.929 . S
C686 C678 1.378 . S
C686 C681 1.350 . S
C687 H674 0.929 . S
C687 C679 1.433 . S
C687 N689 1.384 . S
N688 C684 1.427 . S
N688 C685 1.384 . S
N689 C681 1.427 . S
N689 C687 1.384 . S
H690 C696 0.930 . S
H691 C700 0.930 . S
H692 C705 0.929 . S
H693 C703 0.929 . S
H694 C698 0.929 . S
H695 C704 0.900 1_655 S
C696 H690 0.930 . S
C696 C697 1.367 . S
C696 C704 1.418 . S
C697 C696 1.367 . S
C697 C705 1.433 . S
C698 H694 0.929 . S
C698 C700 1.378 . S
C698 C702 1.350 . S
C699 C702 1.463 . S
C699 C704 1.340 1_655 S
C699 N707 1.427 1_655 S
C700 H691 0.930 . S
C700 C698 1.378 . S
C700 C701 1.367 . S
C701 C700 1.367 . S
C701 C703 1.433 . S
C702 C698 1.350 . S
C702 C699 1.463 . S
C702 N706 1.427 . S
C703 H693 0.929 . S
C703 C701 1.433 . S
C703 N706 1.384 . S
C704 H695 0.900 1_455 S
C704 C696 1.418 . S
C704 C699 1.340 1_455 S
C705 H692 0.929 . S
C705 C697 1.433 . S
C705 N707 1.384 . S
N706 C702 1.427 . S
N706 C703 1.384 . S
N707 C699 1.427 1_455 S
N707 C705 1.384 . S
H708 C714 0.930 . S
H709 C718 0.930 . S
H710 C723 0.929 . S
H711 C721 0.929 . S
H712 C716 0.929 . S
H713 C722 0.929 . S
C714 H708 0.930 . S
C714 C715 1.367 . S
C714 C722 1.378 . S
C715 C714 1.367 . S
C715 C723 1.433 . S
C716 H712 0.929 . S
C716 C718 1.378 . S
C716 C720 1.350 . S
C717 C720 1.463 . S
C717 C722 1.350 . S
C717 N725 1.427 . S
C718 H709 0.930 . S
C718 C716 1.378 . S
C718 C719 1.367 . S
C719 C718 1.367 . S
C719 C721 1.433 . S
C720 C716 1.350 . S
C720 C717 1.463 . S
C720 N724 1.427 . S
C721 H711 0.929 . S
C721 C719 1.433 . S
C721 N724 1.384 . S
C722 H713 0.929 . S
C722 C714 1.378 . S
C722 C717 1.350 . S
C723 H710 0.929 . S
C723 C715 1.433 . S
C723 N725 1.384 . S
N724 C720 1.427 . S
N724 C721 1.384 . S
N725 C717 1.427 . S
N725 C723 1.384 . S
H726 C732 0.930 . S
H727 C736 0.930 . S
H728 C741 0.929 . S
H729 C739 0.929 . S
H730 C734 0.929 . S
H731 C740 0.929 . S
C732 H726 0.930 . S
C732 C733 1.367 . S
C732 C740 1.378 . S
C733 C732 1.367 . S
C733 C741 1.433 . S
C734 H730 0.929 . S
C734 C736 1.378 . S
C734 C738 1.350 . S
C735 C738 1.463 . S
C735 C740 1.350 . S
C735 N743 1.427 . S
C736 H727 0.930 . S
C736 C734 1.378 . S
C736 C737 1.367 . S
C737 C736 1.367 . S
C737 C739 1.433 . S
C738 C734 1.350 . S
C738 C735 1.463 . S
C738 N742 1.427 . S
C739 H729 0.929 . S
C739 C737 1.433 . S
C739 N742 1.384 . S
C740 H731 0.929 . S
C740 C732 1.378 . S
C740 C735 1.350 . S
C741 H728 0.929 . S
C741 C733 1.433 . S
C741 N743 1.384 . S
N742 C738 1.427 . S
N742 C739 1.384 . S
N743 C735 1.427 . S
N743 C741 1.384 . S
H744 C750 0.930 . S
H745 C754 0.930 . S
H746 C759 0.929 . S
H747 C757 0.929 . S
H748 C752 0.929 . S
H749 C758 0.929 . S
C750 H744 0.930 . S
C750 C751 1.367 . S
C750 C758 1.378 . S
C751 C750 1.367 . S
C751 C759 1.433 . S
C752 H748 0.929 . S
C752 C754 1.378 . S
C752 C756 1.350 . S
C753 C756 1.463 . S
C753 C758 1.350 . S
C753 N761 1.427 . S
C754 H745 0.930 . S
C754 C752 1.378 . S
C754 C755 1.367 . S
C755 C754 1.367 . S
C755 C757 1.433 . S
C756 C752 1.350 . S
C756 C753 1.463 . S
C756 N760 1.427 . S
C757 H747 0.929 . S
C757 C755 1.433 . S
C757 N760 1.384 . S
C758 H749 0.929 . S
C758 C750 1.378 . S
C758 C753 1.350 . S
C759 H746 0.929 . S
C759 C751 1.433 . S
C759 N761 1.384 . S
N760 C756 1.427 . S
N760 C757 1.384 . S
N761 C753 1.427 . S
N761 C759 1.384 . S
H762 C768 0.930 . S
H763 C772 0.930 . S
H764 C777 0.929 . S
H765 C775 0.929 . S
H766 C770 0.929 . S
H767 C776 0.929 . S
C768 H762 0.930 . S
C768 C769 1.367 . S
C768 C776 1.378 . S
C769 C768 1.367 . S
C769 C777 1.433 . S
C770 H766 0.929 . S
C770 C772 1.378 . S
C770 C774 1.350 . S
C771 C774 1.463 . S
C771 C776 1.350 . S
C771 N779 1.427 . S
C772 H763 0.930 . S
C772 C770 1.378 . S
C772 C773 1.367 . S
C773 C772 1.367 . S
C773 C775 1.433 . S
C774 C770 1.350 . S
C774 C771 1.463 . S
C774 N778 1.427 . S
C775 H765 0.929 . S
C775 C773 1.433 . S
C775 N778 1.384 . S
C776 H767 0.929 . S
C776 C768 1.378 . S
C776 C771 1.350 . S
C777 H764 0.929 . S
C777 C769 1.433 . S
C777 N779 1.384 . S
N778 C774 1.427 . S
N778 C775 1.384 . S
N779 C771 1.427 . S
N779 C777 1.384 . S
H780 C786 0.930 . S
H781 C790 0.930 . S
H782 C795 0.929 . S
H783 C793 0.929 . S
H784 C788 0.929 . S
H785 C794 0.929 . S
C786 H780 0.930 . S
C786 C787 1.367 . S
C786 C794 1.378 . S
C787 C786 1.367 . S
C787 C795 1.433 . S
C788 H784 0.929 . S
C788 C790 1.378 . S
C788 C792 1.350 . S
C789 C792 1.463 . S
C789 C794 1.350 . S
C789 N797 1.427 . S
C790 H781 0.930 . S
C790 C788 1.378 . S
C790 C791 1.367 . S
C791 C790 1.367 . S
C791 C793 1.433 . S
C792 C788 1.350 . S
C792 C789 1.463 . S
C792 N796 1.427 . S
C793 H783 0.929 . S
C793 C791 1.433 . S
C793 N796 1.384 . S
C794 H785 0.929 . S
C794 C786 1.378 . S
C794 C789 1.350 . S
C795 H782 0.929 . S
C795 C787 1.433 . S
C795 N797 1.384 . S
N796 C792 1.427 . S
N796 C793 1.384 . S
N797 C789 1.427 . S
N797 C795 1.384 . S
H798 C804 0.930 . S
H799 C808 0.930 . S
H800 C813 0.929 . S
H801 C811 0.929 . S
H802 C806 0.929 . S
H803 C812 0.929 1_655 S
C804 H798 0.930 . S
C804 C805 1.367 . S
C804 C812 1.378 . S
C805 C804 1.367 . S
C805 C813 1.433 . S
C806 H802 0.929 . S
C806 C808 1.378 . S
C806 C810 1.350 . S
C807 C810 1.463 . S
C807 C812 1.350 1_655 S
C807 N815 1.453 . S
C808 H799 0.930 . S
C808 C806 1.378 . S
C808 C809 1.367 . S
C809 C808 1.367 . S
C809 C811 1.433 . S
C810 C806 1.350 . S
C810 C807 1.463 . S
C810 N814 1.427 . S
C811 H801 0.929 . S
C811 C809 1.433 . S
C811 N814 1.384 . S
C812 H803 0.929 1_455 S
C812 C804 1.378 . S
C812 C807 1.350 1_455 S
C813 H800 0.929 . S
C813 C805 1.433 . S
C813 N815 1.328 1_455 S
N814 C810 1.427 . S
N814 C811 1.384 . S
N815 C807 1.453 . S
N815 C813 1.328 1_655 S
H816 C822 0.930 . S
H817 C826 0.930 . S
H818 C831 0.929 . S
H819 C829 0.929 . S
H820 C824 0.929 . S
H821 C830 0.929 . S
C822 H816 0.930 . S
C822 C823 1.367 . S
C822 C830 1.378 . S
C823 C822 1.367 . S
C823 C831 1.433 . S
C824 H820 0.929 . S
C824 C826 1.378 . S
C824 C828 1.350 . S
C825 C828 1.463 . S
C825 C830 1.350 . S
C825 N833 1.427 . S
C826 H817 0.930 . S
C826 C824 1.378 . S
C826 C827 1.367 . S
C827 C826 1.367 . S
C827 C829 1.433 . S
C828 C824 1.350 . S
C828 C825 1.463 . S
C828 N832 1.427 . S
C829 H819 0.929 . S
C829 C827 1.433 . S
C829 N832 1.384 . S
C830 H821 0.929 . S
C830 C822 1.378 . S
C830 C825 1.350 . S
C831 H818 0.929 . S
C831 C823 1.433 . S
C831 N833 1.384 . S
N832 C828 1.427 . S
N832 C829 1.384 . S
N833 C825 1.427 . S
N833 C831 1.384 . S
H834 C840 0.930 . S
H835 C844 0.930 . S
H836 C849 0.929 . S
H837 C847 0.929 . S
H838 C842 0.929 . S
H839 C848 0.929 . S
C840 H834 0.930 . S
C840 C841 1.367 . S
C840 C848 1.378 . S
C841 C840 1.367 . S
C841 C849 1.433 . S
C842 H838 0.929 . S
C842 C844 1.378 . S
C842 C846 1.350 . S
C843 C846 1.463 . S
C843 C848 1.350 . S
C843 N851 1.427 . S
C844 H835 0.930 . S
C844 C842 1.378 . S
C844 C845 1.367 . S
C845 C844 1.367 . S
C845 C847 1.433 . S
C846 C842 1.350 . S
C846 C843 1.463 . S
C846 N850 1.427 . S
C847 H837 0.929 . S
C847 C845 1.433 . S
C847 N850 1.384 . S
C848 H839 0.929 . S
C848 C840 1.378 . S
C848 C843 1.350 . S
C849 H836 0.929 . S
C849 C841 1.433 . S
C849 N851 1.384 . S
N850 C846 1.427 . S
N850 C847 1.384 . S
N851 C843 1.427 . S
N851 C849 1.384 . S
H852 C858 0.930 . S
H853 C862 0.930 . S
H854 C867 0.929 . S
H855 C865 0.929 . S
H856 C860 0.929 . S
H857 C866 0.929 . S
C858 H852 0.930 . S
C858 C859 1.367 . S
C858 C866 1.378 . S
C859 C858 1.367 . S
C859 C867 1.433 . S
C860 H856 0.929 . S
C860 C862 1.378 . S
C860 C864 1.350 . S
C861 C864 1.463 . S
C861 C866 1.350 . S
C861 N869 1.427 . S
C862 H853 0.930 . S
C862 C860 1.378 . S
C862 C863 1.367 . S
C863 C862 1.367 . S
C863 C865 1.433 . S
C864 C860 1.350 . S
C864 C861 1.463 . S
C864 N868 1.427 . S
C865 H855 0.929 . S
C865 C863 1.433 . S
C865 N868 1.384 . S
C866 H857 0.929 . S
C866 C858 1.378 . S
C866 C861 1.350 . S
C867 H854 0.929 . S
C867 C859 1.433 . S
C867 N869 1.384 . S
N868 C864 1.427 . S
N868 C865 1.384 . S
N869 C861 1.427 . S
N869 C867 1.384 . S
H870 C876 0.930 . S
H871 C880 0.930 . S
H872 C885 0.929 . S
H873 C883 0.929 . S
H874 C878 0.929 . S
H875 C884 0.929 . S
C876 H870 0.930 . S
C876 C877 1.367 . S
C876 C884 1.378 1_556 S
C877 C876 1.367 . S
C877 C885 1.433 . S
C878 H874 0.929 . S
C878 C880 1.378 . S
C878 C882 1.350 . S
C879 C882 1.463 . S
C879 C884 1.350 . S
C879 N887 1.427 . S
C880 H871 0.930 . S
C880 C878 1.378 . S
C880 C881 1.367 . S
C881 C880 1.367 . S
C881 C883 1.433 . S
C882 C878 1.350 . S
C882 C879 1.463 . S
C882 N886 1.427 . S
C883 H873 0.929 . S
C883 C881 1.433 . S
C883 N886 1.384 . S
C884 H875 0.929 . S
C884 C876 1.378 1_554 S
C884 C879 1.350 . S
C885 H872 0.929 . S
C885 C877 1.433 . S
C885 N887 1.384 1_556 S
N886 C882 1.427 . S
N886 C883 1.384 . S
N887 C879 1.427 . S
N887 C885 1.384 1_554 S
H888 C894 0.930 . S
H889 C898 0.930 . S
H890 C903 0.929 . S
H891 C901 0.929 . S
H892 C896 0.929 . S
H893 C902 0.929 . S
C894 H888 0.930 . S
C894 C895 1.367 . S
C894 C902 1.378 . S
C895 C894 1.367 . S
C895 C903 1.433 . S
C896 H892 0.929 . S
C896 C898 1.378 . S
C896 C900 1.350 . S
C897 C900 1.463 . S
C897 C902 1.350 . S
C897 N905 1.427 . S
C898 H889 0.930 . S
C898 C896 1.378 . S
C898 C899 1.367 . S
C899 C898 1.367 . S
C899 C901 1.433 . S
C900 C896 1.350 . S
C900 C897 1.463 . S
C900 N904 1.427 . S
C901 H891 0.929 . S
C901 C899 1.433 . S
C901 N904 1.384 . S
C902 H893 0.929 . S
C902 C894 1.378 . S
C902 C897 1.350 . S
C903 H890 0.929 . S
C903 C895 1.433 . S
C903 N905 1.384 . S
N904 C900 1.427 . S
N904 C901 1.384 . S
N905 C897 1.427 . S
N905 C903 1.384 . S
H906 C912 0.930 . S
H907 C916 0.930 . S
H908 C921 0.929 . S
H909 C919 0.929 . S
H910 C914 0.929 . S
H911 C920 0.929 . S
C912 H906 0.930 . S
C912 C913 1.367 . S
C912 C920 1.378 . S
C913 C912 1.367 . S
C913 C921 1.433 . S
C914 H910 0.929 . S
C914 C916 1.378 . S
C914 C918 1.350 . S
C915 C918 1.463 . S
C915 C920 1.350 . S
C915 N923 1.427 . S
C916 H907 0.930 . S
C916 C914 1.378 . S
C916 C917 1.367 . S
C917 C916 1.367 . S
C917 C919 1.433 . S
C918 C914 1.350 . S
C918 C915 1.463 . S
C918 N922 1.427 . S
C919 H909 0.929 . S
C919 C917 1.433 . S
C919 N922 1.384 . S
C920 H911 0.929 . S
C920 C912 1.378 . S
C920 C915 1.350 . S
C921 H908 0.929 . S
C921 C913 1.433 . S
C921 N923 1.384 . S
N922 C918 1.427 . S
N922 C919 1.384 . S
N923 C915 1.427 . S
N923 C921 1.384 . S
H924 C930 0.930 . S
H925 C934 0.930 . S
H926 C939 0.929 . S
H927 C937 0.929 . S
H928 C932 0.929 . S
H929 C938 0.929 . S
C930 H924 0.930 . S
C930 C931 1.367 . S
C930 C938 1.378 . S
C931 C930 1.367 . S
C931 C939 1.433 . S
C932 H928 0.929 . S
C932 C934 1.378 . S
C932 C936 1.350 . S
C933 C936 1.463 . S
C933 C938 1.350 . S
C933 N941 1.427 . S
C934 H925 0.930 . S
C934 C932 1.378 . S
C934 C935 1.367 . S
C935 C934 1.367 . S
C935 C937 1.433 . S
C936 C932 1.350 . S
C936 C933 1.463 . S
C936 N940 1.427 . S
C937 H927 0.929 . S
C937 C935 1.433 . S
C937 N940 1.384 . S
C938 H929 0.929 . S
C938 C930 1.378 . S
C938 C933 1.350 . S
C939 H926 0.929 . S
C939 C931 1.433 . S
C939 N941 1.384 . S
N940 C936 1.427 . S
N940 C937 1.384 . S
N941 C933 1.427 . S
N941 C939 1.384 . S
H942 C948 0.930 . S
H943 C952 0.930 . S
H944 C957 0.929 . S
H945 C955 0.929 . S
H946 C950 0.929 . S
H947 C956 0.942 . S
C948 H942 0.930 . S
C948 C949 1.367 . S
C948 C956 1.327 1_554 S
C949 C948 1.367 . S
C949 C957 1.433 . S
C950 H946 0.929 . S
C950 C952 1.378 . S
C950 C954 1.350 . S
C951 C954 1.463 . S
C951 C956 1.389 . S
C951 N959 1.427 . S
C952 H943 0.930 . S
C952 C950 1.378 . S
C952 C953 1.367 . S
C953 C952 1.367 . S
C953 C955 1.433 . S
C954 C950 1.350 . S
C954 C951 1.463 . S
C954 N958 1.427 . S
C955 H945 0.929 . S
C955 C953 1.433 . S
C955 N958 1.384 . S
C956 H947 0.942 . S
C956 C948 1.327 1_556 S
C956 C951 1.389 . S
C957 H944 0.929 . S
C957 C949 1.433 . S
C957 N959 1.384 1_554 S
N958 C954 1.427 . S
N958 C955 1.384 . S
N959 C951 1.427 . S
N959 C957 1.384 1_556 S
H960 C966 0.930 . S
H961 C970 0.930 . S
H962 C975 0.929 . S
H963 C973 0.929 . S
H964 C968 0.929 . S
H965 C974 0.929 . S
C966 H960 0.930 . S
C966 C967 1.367 . S
C966 C974 1.378 . S
C967 C966 1.367 . S
C967 C975 1.433 . S
C968 H964 0.929 . S
C968 C970 1.378 . S
C968 C972 1.350 . S
C969 C972 1.463 . S
C969 C974 1.350 . S
C969 N977 1.427 . S
C970 H961 0.930 . S
C970 C968 1.378 . S
C970 C971 1.367 . S
C971 C970 1.367 . S
C971 C973 1.433 . S
C972 C968 1.350 . S
C972 C969 1.463 . S
C972 N976 1.427 . S
C973 H963 0.929 . S
C973 C971 1.433 . S
C973 N976 1.384 . S
C974 H965 0.929 . S
C974 C966 1.378 . S
C974 C969 1.350 . S
C975 H962 0.929 . S
C975 C967 1.433 . S
C975 N977 1.384 . S
N976 C972 1.427 . S
N976 C973 1.384 . S
N977 C969 1.427 . S
N977 C975 1.384 . S
H978 C984 0.930 . S
H979 C988 0.930 . S
H980 C993 0.929 . S
H981 C991 0.929 . S
H982 C986 0.929 . S
H983 C992 0.929 . S
C984 H978 0.930 . S
C984 C985 1.367 . S
C984 C992 1.378 . S
C985 C984 1.367 . S
C985 C993 1.433 . S
C986 H982 0.929 . S
C986 C988 1.378 . S
C986 C990 1.350 . S
C987 C990 1.463 . S
C987 C992 1.350 . S
C987 N995 1.427 . S
C988 H979 0.930 . S
C988 C986 1.378 . S
C988 C989 1.367 . S
C989 C988 1.367 . S
C989 C991 1.433 . S
C990 C986 1.350 . S
C990 C987 1.463 . S
C990 N994 1.427 . S
C991 H981 0.929 . S
C991 C989 1.433 . S
C991 N994 1.384 . S
C992 H983 0.929 . S
C992 C984 1.378 . S
C992 C987 1.350 . S
C993 H980 0.929 . S
C993 C985 1.433 . S
C993 N995 1.384 . S
N994 C990 1.427 . S
N994 C991 1.384 . S
N995 C987 1.427 . S
N995 C993 1.384 . S
H996 C1002 0.930 . S
H997 C1006 0.930 . S
H998 C1011 0.929 . S
H999 C1009 0.929 . S
H1000 C1004 0.929 . S
H1001 C1010 0.929 . S
C1002 H996 0.930 . S
C1002 C1003 1.367 . S
C1002 C1010 1.378 . S
C1003 C1002 1.367 . S
C1003 C1011 1.433 . S
C1004 H1000 0.929 . S
C1004 C1006 1.378 . S
C1004 C1008 1.350 . S
C1005 C1008 1.463 . S
C1005 C1010 1.350 . S
C1005 N1013 1.427 . S
C1006 H997 0.930 . S
C1006 C1004 1.378 . S
C1006 C1007 1.367 . S
C1007 C1006 1.367 . S
C1007 C1009 1.433 . S
C1008 C1004 1.350 . S
C1008 C1005 1.463 . S
C1008 N1012 1.427 . S
C1009 H999 0.929 . S
C1009 C1007 1.433 . S
C1009 N1012 1.384 . S
C1010 H1001 0.929 . S
C1010 C1002 1.378 . S
C1010 C1005 1.350 . S
C1011 H998 0.929 . S
C1011 C1003 1.433 . S
C1011 N1013 1.384 . S
N1012 C1008 1.427 . S
N1012 C1009 1.384 . S
N1013 C1005 1.427 . S
N1013 C1011 1.384 . S
H1014 C1020 0.930 . S
H1015 C1024 0.930 . S
H1016 C1029 0.929 . S
H1017 C1027 0.929 . S
H1018 C1022 0.929 . S
H1019 C1028 0.929 . S
C1020 H1014 0.930 . S
C1020 C1021 1.367 . S
C1020 C1028 1.378 . S
C1021 C1020 1.367 . S
C1021 C1029 1.433 . S
C1022 H1018 0.929 . S
C1022 C1024 1.378 . S
C1022 C1026 1.350 . S
C1023 C1026 1.463 . S
C1023 C1028 1.350 . S
C1023 N1031 1.427 . S
C1024 H1015 0.930 . S
C1024 C1022 1.378 . S
C1024 C1025 1.367 . S
C1025 C1024 1.367 . S
C1025 C1027 1.433 . S
C1026 C1022 1.350 . S
C1026 C1023 1.463 . S
C1026 N1030 1.427 . S
C1027 H1017 0.929 . S
C1027 C1025 1.433 . S
C1027 N1030 1.384 . S
C1028 H1019 0.929 . S
C1028 C1020 1.378 . S
C1028 C1023 1.350 . S
C1029 H1016 0.929 . S
C1029 C1021 1.433 . S
C1029 N1031 1.384 . S
N1030 C1026 1.427 . S
N1030 C1027 1.384 . S
N1031 C1023 1.427 . S
N1031 C1029 1.384 . S
H1032 C1038 0.930 . S
H1033 C1042 0.930 . S
H1034 C1047 0.929 . S
H1035 C1045 0.929 . S
H1036 C1040 0.929 1_565 S
H1037 C1046 0.929 . S
C1038 H1032 0.930 . S
C1038 C1039 1.367 . S
C1038 C1046 1.378 . S
C1039 C1038 1.367 . S
C1039 C1047 1.433 . S
C1040 H1036 0.929 1_545 S
C1040 C1042 1.378 . S
C1040 C1044 1.350 1_545 S
C1041 C1044 1.463 . S
C1041 C1046 1.350 . S
C1041 N1049 1.427 . S
C1042 H1033 0.930 . S
C1042 C1040 1.378 . S
C1042 C1043 1.367 . S
C1043 C1042 1.367 . S
C1043 C1045 1.433 . S
C1044 C1040 1.350 1_565 S
C1044 C1041 1.463 . S
C1044 N1048 1.427 . S
C1045 H1035 0.929 . S
C1045 C1043 1.433 . S
C1045 N1048 1.384 1_545 S
C1046 H1037 0.929 . S
C1046 C1038 1.378 . S
C1046 C1041 1.350 . S
C1047 H1034 0.929 . S
C1047 C1039 1.433 . S
C1047 N1049 1.384 . S
N1048 C1044 1.427 . S
N1048 C1045 1.384 1_565 S
N1049 C1041 1.427 . S
N1049 C1047 1.384 . S
H1050 C1056 0.930 . S
H1051 C1060 0.930 . S
H1052 C1065 0.929 . S
H1053 C1063 0.929 . S
H1054 C1058 0.929 . S
H1055 C1064 0.929 . S
C1056 H1050 0.930 . S
C1056 C1057 1.367 . S
C1056 C1064 1.378 . S
C1057 C1056 1.367 . S
C1057 C1065 1.433 . S
C1058 H1054 0.929 . S
C1058 C1060 1.378 . S
C1058 C1062 1.350 . S
C1059 C1062 1.463 . S
C1059 C1064 1.350 . S
C1059 N1067 1.427 . S
C1060 H1051 0.930 . S
C1060 C1058 1.378 . S
C1060 C1061 1.367 . S
C1061 C1060 1.367 . S
C1061 C1063 1.433 . S
C1062 C1058 1.350 . S
C1062 C1059 1.463 . S
C1062 N1066 1.427 . S
C1063 H1053 0.929 . S
C1063 C1061 1.433 . S
C1063 N1066 1.384 . S
C1064 H1055 0.929 . S
C1064 C1056 1.378 . S
C1064 C1059 1.350 . S
C1065 H1052 0.929 . S
C1065 C1057 1.433 . S
C1065 N1067 1.384 . S
N1066 C1062 1.427 . S
N1066 C1063 1.384 . S
N1067 C1059 1.427 . S
N1067 C1065 1.384 . S
H1068 C1074 0.930 . S
H1069 C1078 0.930 . S
H1070 C1083 0.929 . S
H1071 C1081 0.929 . S
H1072 C1076 0.929 . S
H1073 C1082 0.929 . S
C1074 H1068 0.930 . S
C1074 C1075 1.367 . S
C1074 C1082 1.378 . S
C1075 C1074 1.367 . S
C1075 C1083 1.433 . S
C1076 H1072 0.929 . S
C1076 C1078 1.378 . S
C1076 C1080 1.350 . S
C1077 C1080 1.463 . S
C1077 C1082 1.350 . S
C1077 N1085 1.427 . S
C1078 H1069 0.930 . S
C1078 C1076 1.378 . S
C1078 C1079 1.367 . S
C1079 C1078 1.367 . S
C1079 C1081 1.433 . S
C1080 C1076 1.350 . S
C1080 C1077 1.463 . S
C1080 N1084 1.427 . S
C1081 H1071 0.929 . S
C1081 C1079 1.433 . S
C1081 N1084 1.384 . S
C1082 H1073 0.929 . S
C1082 C1074 1.378 . S
C1082 C1077 1.350 . S
C1083 H1070 0.929 . S
C1083 C1075 1.433 . S
C1083 N1085 1.384 . S
N1084 C1080 1.427 . S
N1084 C1081 1.384 . S
N1085 C1077 1.427 . S
N1085 C1083 1.384 . S
H1086 C1092 0.930 . S
H1087 C1096 0.930 . S
H1088 C1101 0.929 . S
H1089 C1099 0.929 . S
H1090 C1094 0.929 . S
H1091 C1100 0.929 . S
C1092 H1086 0.930 . S
C1092 C1093 1.367 . S
C1092 C1100 1.378 . S
C1093 C1092 1.367 . S
C1093 C1101 1.433 . S
C1094 H1090 0.929 . S
C1094 C1096 1.378 . S
C1094 C1098 1.350 . S
C1095 C1098 1.463 . S
C1095 C1100 1.350 . S
C1095 N1103 1.427 . S
C1096 H1087 0.930 . S
C1096 C1094 1.378 . S
C1096 C1097 1.367 . S
C1097 C1096 1.367 . S
C1097 C1099 1.433 . S
C1098 C1094 1.350 . S
C1098 C1095 1.463 . S
C1098 N1102 1.427 . S
C1099 H1089 0.929 . S
C1099 C1097 1.433 . S
C1099 N1102 1.384 . S
C1100 H1091 0.929 . S
C1100 C1092 1.378 . S
C1100 C1095 1.350 . S
C1101 H1088 0.929 . S
C1101 C1093 1.433 . S
C1101 N1103 1.384 . S
N1102 C1098 1.427 . S
N1102 C1099 1.384 . S
N1103 C1095 1.427 . S
N1103 C1101 1.384 . S
H1104 C1110 0.930 . S
H1105 C1114 0.930 . S
H1106 C1119 0.929 . S
H1107 C1117 0.929 . S
H1108 C1112 0.929 . S
H1109 C1118 0.929 . S
C1110 H1104 0.930 . S
C1110 C1111 1.367 . S
C1110 C1118 1.378 . S
C1111 C1110 1.367 . S
C1111 C1119 1.433 . S
C1112 H1108 0.929 . S
C1112 C1114 1.378 . S
C1112 C1116 1.350 . S
C1113 C1116 1.463 . S
C1113 C1118 1.350 . S
C1113 N1121 1.427 . S
C1114 H1105 0.930 . S
C1114 C1112 1.378 . S
C1114 C1115 1.367 . S
C1115 C1114 1.367 . S
C1115 C1117 1.433 . S
C1116 C1112 1.350 . S
C1116 C1113 1.463 . S
C1116 N1120 1.427 . S
C1117 H1107 0.929 . S
C1117 C1115 1.433 . S
C1117 N1120 1.384 . S
C1118 H1109 0.929 . S
C1118 C1110 1.378 . S
C1118 C1113 1.350 . S
C1119 H1106 0.929 . S
C1119 C1111 1.433 . S
C1119 N1121 1.384 . S
N1120 C1116 1.427 . S
N1120 C1117 1.384 . S
N1121 C1113 1.427 . S
N1121 C1119 1.384 . S
H1122 C1128 0.930 . S
H1123 C1132 0.930 . S
H1124 C1137 0.929 . S
H1125 C1135 0.929 . S
H1126 C1130 0.929 . S
H1127 C1136 0.929 . S
C1128 H1122 0.930 . S
C1128 C1129 1.367 . S
C1128 C1136 1.378 1_655 S
C1129 C1128 1.367 . S
C1129 C1137 1.433 . S
C1130 H1126 0.929 . S
C1130 C1132 1.378 . S
C1130 C1134 1.350 . S
C1131 C1134 1.463 . S
C1131 C1136 1.350 . S
C1131 N1139 1.427 . S
C1132 H1123 0.930 . S
C1132 C1130 1.378 . S
C1132 C1133 1.367 . S
C1133 C1132 1.367 . S
C1133 C1135 1.433 . S
C1134 C1130 1.350 . S
C1134 C1131 1.463 . S
C1134 N1138 1.427 . S
C1135 H1125 0.929 . S
C1135 C1133 1.433 . S
C1135 N1138 1.384 . S
C1136 H1127 0.929 . S
C1136 C1128 1.378 1_455 S
C1136 C1131 1.350 . S
C1137 H1124 0.929 . S
C1137 C1129 1.433 . S
C1137 N1139 1.384 1_655 S
N1138 C1134 1.427 . S
N1138 C1135 1.384 . S
N1139 C1131 1.427 . S
N1139 C1137 1.384 1_455 S
H1140 C1146 0.930 . S
H1141 C1150 0.930 . S
H1142 C1155 0.929 . S
H1143 C1153 0.929 . S
H1144 C1148 0.929 . S
H1145 C1154 0.929 . S
C1146 H1140 0.930 . S
C1146 C1147 1.367 . S
C1146 C1154 1.378 . S
C1147 C1146 1.367 . S
C1147 C1155 1.433 . S
C1148 H1144 0.929 . S
C1148 C1150 1.378 . S
C1148 C1152 1.350 . S
C1149 C1152 1.463 . S
C1149 C1154 1.350 . S
C1149 N1157 1.427 . S
C1150 H1141 0.930 . S
C1150 C1148 1.378 . S
C1150 C1151 1.367 . S
C1151 C1150 1.367 . S
C1151 C1153 1.433 . S
C1152 C1148 1.350 . S
C1152 C1149 1.463 . S
C1152 N1156 1.427 . S
C1153 H1143 0.929 . S
C1153 C1151 1.433 . S
C1153 N1156 1.384 . S
C1154 H1145 0.929 . S
C1154 C1146 1.378 . S
C1154 C1149 1.350 . S
C1155 H1142 0.929 . S
C1155 C1147 1.433 . S
C1155 N1157 1.384 . S
N1156 C1152 1.427 . S
N1156 C1153 1.384 . S
N1157 C1149 1.427 . S
N1157 C1155 1.384 . S
H1158 C1164 0.930 . S
H1159 C1168 0.930 . S
H1160 C1173 0.929 . S
H1161 C1171 0.929 . S
H1162 C1166 0.929 . S
H1163 C1172 0.929 . S
C1164 H1158 0.930 . S
C1164 C1165 1.367 . S
C1164 C1172 1.378 . S
C1165 C1164 1.367 . S
C1165 C1173 1.433 . S
C1166 H1162 0.929 . S
C1166 C1168 1.378 . S
C1166 C1170 1.350 . S
C1167 C1170 1.463 . S
C1167 C1172 1.350 . S
C1167 N1175 1.427 . S
C1168 H1159 0.930 . S
C1168 C1166 1.378 . S
C1168 C1169 1.367 . S
C1169 C1168 1.367 . S
C1169 C1171 1.433 . S
C1170 C1166 1.350 . S
C1170 C1167 1.463 . S
C1170 N1174 1.427 . S
C1171 H1161 0.929 . S
C1171 C1169 1.433 . S
C1171 N1174 1.384 . S
C1172 H1163 0.929 . S
C1172 C1164 1.378 . S
C1172 C1167 1.350 . S
C1173 H1160 0.929 . S
C1173 C1165 1.433 . S
C1173 N1175 1.384 . S
N1174 C1170 1.427 . S
N1174 C1171 1.384 . S
N1175 C1167 1.427 . S
N1175 C1173 1.384 . S
H1176 C1182 0.930 . S
H1177 C1186 0.930 . S
H1178 C1191 0.929 . S
H1179 C1189 0.929 . S
H1180 C1184 0.929 . S
H1181 C1190 0.929 . S
C1182 H1176 0.930 . S
C1182 C1183 1.367 . S
C1182 C1190 1.378 . S
C1183 C1182 1.367 . S
C1183 C1191 1.433 . S
C1184 H1180 0.929 . S
C1184 C1186 1.378 . S
C1184 C1188 1.350 . S
C1185 C1188 1.463 . S
C1185 C1190 1.350 . S
C1185 N1193 1.427 . S
C1186 H1177 0.930 . S
C1186 C1184 1.378 . S
C1186 C1187 1.367 . S
C1187 C1186 1.367 . S
C1187 C1189 1.433 . S
C1188 C1184 1.350 . S
C1188 C1185 1.463 . S
C1188 N1192 1.427 . S
C1189 H1179 0.929 . S
C1189 C1187 1.433 . S
C1189 N1192 1.384 . S
C1190 H1181 0.929 . S
C1190 C1182 1.378 . S
C1190 C1185 1.350 . S
C1191 H1178 0.929 . S
C1191 C1183 1.433 . S
C1191 N1193 1.384 . S
N1192 C1188 1.427 . S
N1192 C1189 1.384 . S
N1193 C1185 1.427 . S
N1193 C1191 1.384 . S
H1194 C1200 0.930 . S
H1195 C1204 0.930 . S
H1196 C1209 0.929 . S
H1197 C1207 0.929 . S
H1198 C1202 0.929 . S
H1199 C1208 0.929 . S
C1200 H1194 0.930 . S
C1200 C1201 1.367 . S
C1200 C1208 1.378 . S
C1201 C1200 1.367 . S
C1201 C1209 1.433 . S
C1202 H1198 0.929 . S
C1202 C1204 1.378 . S
C1202 C1206 1.350 . S
C1203 C1206 1.463 . S
C1203 C1208 1.350 . S
C1203 N1211 1.427 . S
C1204 H1195 0.930 . S
C1204 C1202 1.378 . S
C1204 C1205 1.367 . S
C1205 C1204 1.367 . S
C1205 C1207 1.433 . S
C1206 C1202 1.350 . S
C1206 C1203 1.463 . S
C1206 N1210 1.427 . S
C1207 H1197 0.929 . S
C1207 C1205 1.433 . S
C1207 N1210 1.384 . S
C1208 H1199 0.929 . S
C1208 C1200 1.378 . S
C1208 C1203 1.350 . S
C1209 H1196 0.929 . S
C1209 C1201 1.433 . S
C1209 N1211 1.384 . S
N1210 C1206 1.427 . S
N1210 C1207 1.384 . S
N1211 C1203 1.427 . S
N1211 C1209 1.384 . S
H1212 C1218 0.930 . S
H1213 C1222 0.930 . S
H1214 C1227 0.929 . S
H1215 C1225 0.929 . S
H1216 C1220 0.929 . S
H1217 C1226 0.929 . S
C1218 H1212 0.930 . S
C1218 C1219 1.367 . S
C1218 C1226 1.378 . S
C1219 C1218 1.367 . S
C1219 C1227 1.433 . S
C1220 H1216 0.929 . S
C1220 C1222 1.378 . S
C1220 C1224 1.350 . S
C1221 C1224 1.463 . S
C1221 C1226 1.350 . S
C1221 N1229 1.427 . S
C1222 H1213 0.930 . S
C1222 C1220 1.378 . S
C1222 C1223 1.367 . S
C1223 C1222 1.367 . S
C1223 C1225 1.433 . S
C1224 C1220 1.350 . S
C1224 C1221 1.463 . S
C1224 N1228 1.427 . S
C1225 H1215 0.929 . S
C1225 C1223 1.433 . S
C1225 N1228 1.384 . S
C1226 H1217 0.929 . S
C1226 C1218 1.378 . S
C1226 C1221 1.350 . S
C1227 H1214 0.929 . S
C1227 C1219 1.433 . S
C1227 N1229 1.384 . S
N1228 C1224 1.427 . S
N1228 C1225 1.384 . S
N1229 C1221 1.427 . S
N1229 C1227 1.384 . S
H1230 C1236 0.930 . S
H1231 C1240 0.930 . S
H1232 C1245 0.929 . S
H1233 C1243 0.929 . S
H1234 C1238 0.929 . S
H1235 C1244 0.929 . S
C1236 H1230 0.930 . S
C1236 C1237 1.367 . S
C1236 C1244 1.378 . S
C1237 C1236 1.367 . S
C1237 C1245 1.433 . S
C1238 H1234 0.929 . S
C1238 C1240 1.378 1_455 S
C1238 C1242 1.350 . S
C1239 C1242 1.463 . S
C1239 C1244 1.350 . S
C1239 N1247 1.427 . S
C1240 H1231 0.930 . S
C1240 C1238 1.378 1_655 S
C1240 C1241 1.367 . S
C1241 C1240 1.367 . S
C1241 C1243 1.433 . S
C1242 C1238 1.350 . S
C1242 C1239 1.463 . S
C1242 N1246 1.427 1_455 S
C1243 H1233 0.929 . S
C1243 C1241 1.433 . S
C1243 N1246 1.384 . S
C1244 H1235 0.929 . S
C1244 C1236 1.378 . S
C1244 C1239 1.350 . S
C1245 H1232 0.929 . S
C1245 C1237 1.433 . S
C1245 N1247 1.384 . S
N1246 C1242 1.427 1_655 S
N1246 C1243 1.384 . S
N1247 C1239 1.427 . S
N1247 C1245 1.384 . S
H1248 C1254 0.930 . S
H1249 C1258 0.930 . S
H1250 C1263 0.929 . S
H1251 C1261 0.929 . S
H1252 C1256 0.929 . S
H1253 C1262 0.929 . S
C1254 H1248 0.930 . S
C1254 C1255 1.367 . S
C1254 C1262 1.378 . S
C1255 C1254 1.367 . S
C1255 C1263 1.433 . S
C1256 H1252 0.929 . S
C1256 C1258 1.378 . S
C1256 C1260 1.350 . S
C1257 C1260 1.463 . S
C1257 C1262 1.350 . S
C1257 N1265 1.427 . S
C1258 H1249 0.930 . S
C1258 C1256 1.378 . S
C1258 C1259 1.367 . S
C1259 C1258 1.367 . S
C1259 C1261 1.433 . S
C1260 C1256 1.350 . S
C1260 C1257 1.463 . S
C1260 N1264 1.427 . S
C1261 H1251 0.929 . S
C1261 C1259 1.433 . S
C1261 N1264 1.384 . S
C1262 H1253 0.929 . S
C1262 C1254 1.378 . S
C1262 C1257 1.350 . S
C1263 H1250 0.929 . S
C1263 C1255 1.433 . S
C1263 N1265 1.384 . S
N1264 C1260 1.427 . S
N1264 C1261 1.384 . S
N1265 C1257 1.427 . S
N1265 C1263 1.384 . S
H1266 C1272 0.930 . S
H1267 C1276 0.930 . S
H1268 C1281 0.929 . S
H1269 C1279 0.929 . S
H1270 C1274 0.929 . S
H1271 C1280 0.929 . S
C1272 H1266 0.930 . S
C1272 C1273 1.367 . S
C1272 C1280 1.378 . S
C1273 C1272 1.367 . S
C1273 C1281 1.433 . S
C1274 H1270 0.929 . S
C1274 C1276 1.378 . S
C1274 C1278 1.350 . S
C1275 C1278 1.463 . S
C1275 C1280 1.350 . S
C1275 N1283 1.427 . S
C1276 H1267 0.930 . S
C1276 C1274 1.378 . S
C1276 C1277 1.367 . S
C1277 C1276 1.367 . S
C1277 C1279 1.433 . S
C1278 C1274 1.350 . S
C1278 C1275 1.463 . S
C1278 N1282 1.427 . S
C1279 H1269 0.929 . S
C1279 C1277 1.433 . S
C1279 N1282 1.384 . S
C1280 H1271 0.929 . S
C1280 C1272 1.378 . S
C1280 C1275 1.350 . S
C1281 H1268 0.929 . S
C1281 C1273 1.433 . S
C1281 N1283 1.384 . S
N1282 C1278 1.427 . S
N1282 C1279 1.384 . S
N1283 C1275 1.427 . S
N1283 C1281 1.384 . S
H1284 C1290 0.930 . S
H1285 C1294 0.930 . S
H1286 C1299 0.929 . S
H1287 C1297 0.929 . S
H1288 C1292 0.929 . S
H1289 C1298 0.929 . S
C1290 H1284 0.930 . S
C1290 C1291 1.367 . S
C1290 C1298 1.378 . S
C1291 C1290 1.367 . S
C1291 C1299 1.433 . S
C1292 H1288 0.929 . S
C1292 C1294 1.378 . S
C1292 C1296 1.350 . S
C1293 C1296 1.463 . S
C1293 C1298 1.350 . S
C1293 N1301 1.427 . S
C1294 H1285 0.930 . S
C1294 C1292 1.378 . S
C1294 C1295 1.367 . S
C1295 C1294 1.367 . S
C1295 C1297 1.433 . S
C1296 C1292 1.350 . S
C1296 C1293 1.463 . S
C1296 N1300 1.427 . S
C1297 H1287 0.929 . S
C1297 C1295 1.433 . S
C1297 N1300 1.384 . S
C1298 H1289 0.929 . S
C1298 C1290 1.378 . S
C1298 C1293 1.350 . S
C1299 H1286 0.929 . S
C1299 C1291 1.433 . S
C1299 N1301 1.384 . S
N1300 C1296 1.427 . S
N1300 C1297 1.384 . S
N1301 C1293 1.427 . S
N1301 C1299 1.384 . S
H1302 C1308 0.930 . S
H1303 C1312 0.930 . S
H1304 C1317 0.929 . S
H1305 C1315 0.929 . S
H1306 C1310 0.929 . S
H1307 C1316 0.929 . S
C1308 H1302 0.930 . S
C1308 C1309 1.367 . S
C1308 C1316 1.378 . S
C1309 C1308 1.367 . S
C1309 C1317 1.433 . S
C1310 H1306 0.929 . S
C1310 C1312 1.378 . S
C1310 C1314 1.346 1_554 S
C1311 C1314 1.470 . S
C1311 C1316 1.350 . S
C1311 N1319 1.427 . S
C1312 H1303 0.930 . S
C1312 C1310 1.378 . S
C1312 C1313 1.367 . S
C1313 C1312 1.367 . S
C1313 C1315 1.433 . S
C1314 C1310 1.346 1_556 S
C1314 C1311 1.470 . S
C1314 N1318 1.424 1_556 S
C1315 H1305 0.929 . S
C1315 C1313 1.433 . S
C1315 N1318 1.384 . S
C1316 H1307 0.929 . S
C1316 C1308 1.378 . S
C1316 C1311 1.350 . S
C1317 H1304 0.929 . S
C1317 C1309 1.433 . S
C1317 N1319 1.384 . S
N1318 C1314 1.424 1_554 S
N1318 C1315 1.384 . S
N1319 C1311 1.427 . S
N1319 C1317 1.384 . S
H1320 C1326 0.930 . S
H1321 C1330 0.930 . S
H1322 C1335 0.929 . S
H1323 C1333 0.929 . S
H1324 C1328 0.929 . S
H1325 C1334 0.929 . S
C1326 H1320 0.930 . S
C1326 C1327 1.367 . S
C1326 C1334 1.378 . S
C1327 C1326 1.367 . S
C1327 C1335 1.433 . S
C1328 H1324 0.929 . S
C1328 C1330 1.378 . S
C1328 C1332 1.350 . S
C1329 C1332 1.463 . S
C1329 C1334 1.350 . S
C1329 N1337 1.427 . S
C1330 H1321 0.930 . S
C1330 C1328 1.378 . S
C1330 C1331 1.367 . S
C1331 C1330 1.367 . S
C1331 C1333 1.433 . S
C1332 C1328 1.350 . S
C1332 C1329 1.463 . S
C1332 N1336 1.427 . S
C1333 H1323 0.929 . S
C1333 C1331 1.433 . S
C1333 N1336 1.384 . S
C1334 H1325 0.929 . S
C1334 C1326 1.378 . S
C1334 C1329 1.350 . S
C1335 H1322 0.929 . S
C1335 C1327 1.433 . S
C1335 N1337 1.384 . S
N1336 C1332 1.427 . S
N1336 C1333 1.384 . S
N1337 C1329 1.427 . S
N1337 C1335 1.384 . S
H1338 C1344 0.930 . S
H1339 C1348 0.930 . S
H1340 C1353 0.929 . S
H1341 C1351 0.929 . S
H1342 C1346 0.929 . S
H1343 C1352 0.929 . S
C1344 H1338 0.930 . S
C1344 C1345 1.367 . S
C1344 C1352 1.378 . S
C1345 C1344 1.367 . S
C1345 C1353 1.433 . S
C1346 H1342 0.929 . S
C1346 C1348 1.378 . S
C1346 C1350 1.350 . S
C1347 C1350 1.463 . S
C1347 C1352 1.350 . S
C1347 N1355 1.427 . S
C1348 H1339 0.930 . S
C1348 C1346 1.378 . S
C1348 C1349 1.367 . S
C1349 C1348 1.367 . S
C1349 C1351 1.433 . S
C1350 C1346 1.350 . S
C1350 C1347 1.463 . S
C1350 N1354 1.427 . S
C1351 H1341 0.929 . S
C1351 C1349 1.433 . S
C1351 N1354 1.384 . S
C1352 H1343 0.929 . S
C1352 C1344 1.378 . S
C1352 C1347 1.350 . S
C1353 H1340 0.929 . S
C1353 C1345 1.433 . S
C1353 N1355 1.384 . S
N1354 C1350 1.427 . S
N1354 C1351 1.384 . S
N1355 C1347 1.427 . S
N1355 C1353 1.384 . S
H1356 C1362 0.930 . S
H1357 C1366 0.930 . S
H1358 C1371 0.929 . S
H1359 C1369 0.929 . S
H1360 C1364 0.929 . S
H1361 C1370 0.929 . S
C1362 H1356 0.930 . S
C1362 C1363 1.367 . S
C1362 C1370 1.378 . S
C1363 C1362 1.367 . S
C1363 C1371 1.433 . S
C1364 H1360 0.929 . S
C1364 C1366 1.378 . S
C1364 C1368 1.350 . S
C1365 C1368 1.463 . S
C1365 C1370 1.350 . S
C1365 N1373 1.427 . S
C1366 H1357 0.930 . S
C1366 C1364 1.378 . S
C1366 C1367 1.367 . S
C1367 C1366 1.367 . S
C1367 C1369 1.433 . S
C1368 C1364 1.350 . S
C1368 C1365 1.463 . S
C1368 N1372 1.427 . S
C1369 H1359 0.929 . S
C1369 C1367 1.433 . S
C1369 N1372 1.384 . S
C1370 H1361 0.929 . S
C1370 C1362 1.378 . S
C1370 C1365 1.350 . S
C1371 H1358 0.929 . S
C1371 C1363 1.433 . S
C1371 N1373 1.384 . S
N1372 C1368 1.427 . S
N1372 C1369 1.384 . S
N1373 C1365 1.427 . S
N1373 C1371 1.384 . S
H1374 C1380 0.930 . S
H1375 C1384 0.930 . S
H1376 C1389 0.929 . S
H1377 C1387 0.929 . S
H1378 C1382 0.929 . S
H1379 C1388 0.929 1_554 S
C1380 H1374 0.930 . S
C1380 C1381 1.367 . S
C1380 C1388 1.378 . S
C1381 C1380 1.367 . S
C1381 C1389 1.433 . S
C1382 H1378 0.929 . S
C1382 C1384 1.378 . S
C1382 C1386 1.350 . S
C1383 C1386 1.463 . S
C1383 C1388 1.350 1_554 S
C1383 N1391 1.415 1_554 S
C1384 H1375 0.930 . S
C1384 C1382 1.378 . S
C1384 C1385 1.367 . S
C1385 C1384 1.367 . S
C1385 C1387 1.433 . S
C1386 C1382 1.350 . S
C1386 C1383 1.463 . S
C1386 N1390 1.427 . S
C1387 H1377 0.929 . S
C1387 C1385 1.433 . S
C1387 N1390 1.384 . S
C1388 H1379 0.929 1_556 S
C1388 C1380 1.378 . S
C1388 C1383 1.350 1_556 S
C1389 H1376 0.929 . S
C1389 C1381 1.433 . S
C1389 N1391 1.417 . S
N1390 C1386 1.427 . S
N1390 C1387 1.384 . S
N1391 C1383 1.415 1_556 S
N1391 C1389 1.417 . S
H1392 C1398 0.930 . S
H1393 C1402 0.930 . S
H1394 C1407 0.929 . S
H1395 C1405 0.929 . S
H1396 C1400 0.929 . S
H1397 C1406 0.929 . S
C1398 H1392 0.930 . S
C1398 C1399 1.367 . S
C1398 C1406 1.378 . S
C1399 C1398 1.367 . S
C1399 C1407 1.433 . S
C1400 H1396 0.929 . S
C1400 C1402 1.378 . S
C1400 C1404 1.350 . S
C1401 C1404 1.463 . S
C1401 C1406 1.350 . S
C1401 N1409 1.427 . S
C1402 H1393 0.930 . S
C1402 C1400 1.378 . S
C1402 C1403 1.367 . S
C1403 C1402 1.367 . S
C1403 C1405 1.433 . S
C1404 C1400 1.350 . S
C1404 C1401 1.463 . S
C1404 N1408 1.427 . S
C1405 H1395 0.929 . S
C1405 C1403 1.433 . S
C1405 N1408 1.384 . S
C1406 H1397 0.929 . S
C1406 C1398 1.378 . S
C1406 C1401 1.350 . S
C1407 H1394 0.929 . S
C1407 C1399 1.433 . S
C1407 N1409 1.384 . S
N1408 C1404 1.427 . S
N1408 C1405 1.384 . S
N1409 C1401 1.427 . S
N1409 C1407 1.384 . S
H1410 C1416 0.930 . S
H1411 C1420 0.930 . S
H1412 C1425 0.929 . S
H1413 C1423 0.929 . S
H1414 C1418 0.929 . S
H1415 C1424 0.929 . S
C1416 H1410 0.930 . S
C1416 C1417 1.367 . S
C1416 C1424 1.378 . S
C1417 C1416 1.367 . S
C1417 C1425 1.433 . S
C1418 H1414 0.929 . S
C1418 C1420 1.378 . S
C1418 C1422 1.350 . S
C1419 C1422 1.463 . S
C1419 C1424 1.350 . S
C1419 N1427 1.427 . S
C1420 H1411 0.930 . S
C1420 C1418 1.378 . S
C1420 C1421 1.367 . S
C1421 C1420 1.367 . S
C1421 C1423 1.433 . S
C1422 C1418 1.350 . S
C1422 C1419 1.463 . S
C1422 N1426 1.427 . S
C1423 H1413 0.929 . S
C1423 C1421 1.433 . S
C1423 N1426 1.384 . S
C1424 H1415 0.929 . S
C1424 C1416 1.378 . S
C1424 C1419 1.350 . S
C1425 H1412 0.929 . S
C1425 C1417 1.433 . S
C1425 N1427 1.384 . S
N1426 C1422 1.427 . S
N1426 C1423 1.384 . S
N1427 C1419 1.427 . S
N1427 C1425 1.384 . S
H1428 C1434 0.930 . S
H1429 C1438 0.930 . S
H1430 C1443 0.929 . S
H1431 C1441 0.929 . S
H1432 C1436 0.929 . S
H1433 C1442 0.929 . S
C1434 H1428 0.930 . S
C1434 C1435 1.367 . S
C1434 C1442 1.378 . S
C1435 C1434 1.367 . S
C1435 C1443 1.433 . S
C1436 H1432 0.929 . S
C1436 C1438 1.378 . S
C1436 C1440 1.350 . S
C1437 C1440 1.463 . S
C1437 C1442 1.350 . S
C1437 N1445 1.427 . S
C1438 H1429 0.930 . S
C1438 C1436 1.378 . S
C1438 C1439 1.367 . S
C1439 C1438 1.367 . S
C1439 C1441 1.433 . S
C1440 C1436 1.350 . S
C1440 C1437 1.463 . S
C1440 N1444 1.427 . S
C1441 H1431 0.929 . S
C1441 C1439 1.433 . S
C1441 N1444 1.384 . S
C1442 H1433 0.929 . S
C1442 C1434 1.378 . S
C1442 C1437 1.350 . S
C1443 H1430 0.929 . S
C1443 C1435 1.433 . S
C1443 N1445 1.384 . S
N1444 C1440 1.427 . S
N1444 C1441 1.384 . S
N1445 C1437 1.427 . S
N1445 C1443 1.384 . S
H1446 C1452 0.930 . S
H1447 C1456 0.930 . S
H1448 C1461 0.929 . S
H1449 C1459 0.929 . S
H1450 C1454 0.929 . S
H1451 C1460 0.929 . S
C1452 H1446 0.930 . S
C1452 C1453 1.367 . S
C1452 C1460 1.378 . S
C1453 C1452 1.367 . S
C1453 C1461 1.433 . S
C1454 H1450 0.929 . S
C1454 C1456 1.378 . S
C1454 C1458 1.350 . S
C1455 C1458 1.463 . S
C1455 C1460 1.350 . S
C1455 N1463 1.427 . S
C1456 H1447 0.930 . S
C1456 C1454 1.378 . S
C1456 C1457 1.367 . S
C1457 C1456 1.367 . S
C1457 C1459 1.433 . S
C1458 C1454 1.350 . S
C1458 C1455 1.463 . S
C1458 N1462 1.427 . S
C1459 H1449 0.929 . S
C1459 C1457 1.433 . S
C1459 N1462 1.384 . S
C1460 H1451 0.929 . S
C1460 C1452 1.378 . S
C1460 C1455 1.350 . S
C1461 H1448 0.929 . S
C1461 C1453 1.433 . S
C1461 N1463 1.384 . S
N1462 C1458 1.427 . S
N1462 C1459 1.384 . S
N1463 C1455 1.427 . S
N1463 C1461 1.384 . S
H1464 C1470 0.930 . S
H1465 C1474 0.930 . S
H1466 C1479 0.929 . S
H1467 C1477 0.929 . S
H1468 C1472 0.929 . S
H1469 C1478 0.929 . S
C1470 H1464 0.930 . S
C1470 C1471 1.367 . S
C1470 C1478 1.378 1_565 S
C1471 C1470 1.367 . S
C1471 C1479 1.433 . S
C1472 H1468 0.929 . S
C1472 C1474 1.378 . S
C1472 C1476 1.350 . S
C1473 C1476 1.463 . S
C1473 C1478 1.350 . S
C1473 N1481 1.427 . S
C1474 H1465 0.930 . S
C1474 C1472 1.378 . S
C1474 C1475 1.367 . S
C1475 C1474 1.367 . S
C1475 C1477 1.433 . S
C1476 C1472 1.350 . S
C1476 C1473 1.463 . S
C1476 N1480 1.427 . S
C1477 H1467 0.929 . S
C1477 C1475 1.433 . S
C1477 N1480 1.384 . S
C1478 H1469 0.929 . S
C1478 C1470 1.378 1_545 S
C1478 C1473 1.350 . S
C1479 H1466 0.929 . S
C1479 C1471 1.433 . S
C1479 N1481 1.384 1_565 S
N1480 C1476 1.427 . S
N1480 C1477 1.384 . S
N1481 C1473 1.427 . S
N1481 C1479 1.384 1_545 S
H1482 C1488 0.930 . S
H1483 C1492 0.930 . S
H1484 C1497 0.929 . S
H1485 C1495 0.929 . S
H1486 C1490 0.929 . S
H1487 C1496 0.929 . S
C1488 H1482 0.930 . S
C1488 C1489 1.367 . S
C1488 C1496 1.378 . S
C1489 C1488 1.367 . S
C1489 C1497 1.433 . S
C1490 H1486 0.929 . S
C1490 C1492 1.378 . S
C1490 C1494 1.350 . S
C1491 C1494 1.463 . S
C1491 C1496 1.350 . S
C1491 N1499 1.427 . S
C1492 H1483 0.930 . S
C1492 C1490 1.378 . S
C1492 C1493 1.367 . S
C1493 C1492 1.367 . S
C1493 C1495 1.433 . S
C1494 C1490 1.350 . S
C1494 C1491 1.463 . S
C1494 N1498 1.427 . S
C1495 H1485 0.929 . S
C1495 C1493 1.433 . S
C1495 N1498 1.384 . S
C1496 H1487 0.929 . S
C1496 C1488 1.378 . S
C1496 C1491 1.350 . S
C1497 H1484 0.929 . S
C1497 C1489 1.433 . S
C1497 N1499 1.384 . S
N1498 C1494 1.427 . S
N1498 C1495 1.384 . S
N1499 C1491 1.427 . S
N1499 C1497 1.384 . S
H1500 C1506 0.930 . S
H1501 C1510 0.930 . S
H1502 C1515 0.929 . S
H1503 C1513 0.929 . S
H1504 C1508 0.929 . S
H1505 C1514 0.929 . S
C1506 H1500 0.930 . S
C1506 C1507 1.367 . S
C1506 C1514 1.378 . S
C1507 C1506 1.367 . S
C1507 C1515 1.433 . S
C1508 H1504 0.929 . S
C1508 C1510 1.378 . S
C1508 C1512 1.350 . S
C1509 C1512 1.463 . S
C1509 C1514 1.350 . S
C1509 N1517 1.427 . S
C1510 H1501 0.930 . S
C1510 C1508 1.378 . S
C1510 C1511 1.367 . S
C1511 C1510 1.367 . S
C1511 C1513 1.433 . S
C1512 C1508 1.350 . S
C1512 C1509 1.463 . S
C1512 N1516 1.427 . S
C1513 H1503 0.929 . S
C1513 C1511 1.433 . S
C1513 N1516 1.384 . S
C1514 H1505 0.929 . S
C1514 C1506 1.378 . S
C1514 C1509 1.350 . S
C1515 H1502 0.929 . S
C1515 C1507 1.433 . S
C1515 N1517 1.384 . S
N1516 C1512 1.427 . S
N1516 C1513 1.384 . S
N1517 C1509 1.427 . S
N1517 C1515 1.384 . S
H1518 C1524 0.930 . S
H1519 C1528 0.930 . S
H1520 C1533 0.929 . S
H1521 C1531 0.929 . S
H1522 C1526 0.929 . S
H1523 C1532 0.929 . S
C1524 H1518 0.930 . S
C1524 C1525 1.367 . S
C1524 C1532 1.378 . S
C1525 C1524 1.367 . S
C1525 C1533 1.433 . S
C1526 H1522 0.929 . S
C1526 C1528 1.378 . S
C1526 C1530 1.350 . S
C1527 C1530 1.463 . S
C1527 C1532 1.350 . S
C1527 N1535 1.427 . S
C1528 H1519 0.930 . S
C1528 C1526 1.378 . S
C1528 C1529 1.367 . S
C1529 C1528 1.367 . S
C1529 C1531 1.433 . S
C1530 C1526 1.350 . S
C1530 C1527 1.463 . S
C1530 N1534 1.427 . S
C1531 H1521 0.929 . S
C1531 C1529 1.433 . S
C1531 N1534 1.384 . S
C1532 H1523 0.929 . S
C1532 C1524 1.378 . S
C1532 C1527 1.350 . S
C1533 H1520 0.929 . S
C1533 C1525 1.433 . S
C1533 N1535 1.384 . S
N1534 C1530 1.427 . S
N1534 C1531 1.384 . S
N1535 C1527 1.427 . S
N1535 C1533 1.384 . S
H1536 C1542 0.930 . S
H1537 C1546 0.930 . S
H1538 C1551 0.929 . S
H1539 C1549 0.929 . S
H1540 C1544 0.929 . S
H1541 C1550 0.929 . S
C1542 H1536 0.930 . S
C1542 C1543 1.367 . S
C1542 C1550 1.378 . S
C1543 C1542 1.367 . S
C1543 C1551 1.433 . S
C1544 H1540 0.929 . S
C1544 C1546 1.378 . S
C1544 C1548 1.350 . S
C1545 C1548 1.463 . S
C1545 C1550 1.350 . S
C1545 N1553 1.427 . S
C1546 H1537 0.930 . S
C1546 C1544 1.378 . S
C1546 C1547 1.367 . S
C1547 C1546 1.367 . S
C1547 C1549 1.433 . S
C1548 C1544 1.350 . S
C1548 C1545 1.463 . S
C1548 N1552 1.427 . S
C1549 H1539 0.929 . S
C1549 C1547 1.433 . S
C1549 N1552 1.384 . S
C1550 H1541 0.929 . S
C1550 C1542 1.378 . S
C1550 C1545 1.350 . S
C1551 H1538 0.929 . S
C1551 C1543 1.433 . S
C1551 N1553 1.384 . S
N1552 C1548 1.427 . S
N1552 C1549 1.384 . S
N1553 C1545 1.427 . S
N1553 C1551 1.384 . S
H1554 C1560 0.930 . S
H1555 C1564 0.930 . S
H1556 C1569 0.929 . S
H1557 C1567 0.929 . S
H1558 C1562 0.929 . S
H1559 C1568 0.929 . S
C1560 H1554 0.930 . S
C1560 C1561 1.367 . S
C1560 C1568 1.378 . S
C1561 C1560 1.367 . S
C1561 C1569 1.433 . S
C1562 H1558 0.929 . S
C1562 C1564 1.378 . S
C1562 C1566 1.350 . S
C1563 C1566 1.463 . S
C1563 C1568 1.350 . S
C1563 N1571 1.427 . S
C1564 H1555 0.930 . S
C1564 C1562 1.378 . S
C1564 C1565 1.367 . S
C1565 C1564 1.367 . S
C1565 C1567 1.433 . S
C1566 C1562 1.350 . S
C1566 C1563 1.463 . S
C1566 N1570 1.427 . S
C1567 H1557 0.929 . S
C1567 C1565 1.433 . S
C1567 N1570 1.384 . S
C1568 H1559 0.929 . S
C1568 C1560 1.378 . S
C1568 C1563 1.350 . S
C1569 H1556 0.929 . S
C1569 C1561 1.433 . S
C1569 N1571 1.384 . S
N1570 C1566 1.427 . S
N1570 C1567 1.384 . S
N1571 C1563 1.427 . S
N1571 C1569 1.384 . S
H1572 C1578 0.930 . S
H1573 C1582 0.930 . S
H1574 C1587 0.929 . S
H1575 C1585 0.929 . S
H1576 C1580 0.929 . S
H1577 C1586 0.929 . S
C1578 H1572 0.930 . S
C1578 C1579 1.367 . S
C1578 C1586 1.378 . S
C1579 C1578 1.367 . S
C1579 C1587 1.433 . S
C1580 H1576 0.929 . S
C1580 C1582 1.378 . S
C1580 C1584 1.350 . S
C1581 C1584 1.463 . S
C1581 C1586 1.350 . S
C1581 N1589 1.427 . S
C1582 H1573 0.930 . S
C1582 C1580 1.378 . S
C1582 C1583 1.367 . S
C1583 C1582 1.367 . S
C1583 C1585 1.433 . S
C1584 C1580 1.350 . S
C1584 C1581 1.463 . S
C1584 N1588 1.427 . S
C1585 H1575 0.929 . S
C1585 C1583 1.433 . S
C1585 N1588 1.384 . S
C1586 H1577 0.929 . S
C1586 C1578 1.378 . S
C1586 C1581 1.350 . S
C1587 H1574 0.929 . S
C1587 C1579 1.433 . S
C1587 N1589 1.384 . S
N1588 C1584 1.427 . S
N1588 C1585 1.384 . S
N1589 C1581 1.427 . S
N1589 C1587 1.384 . S
H1590 C1596 0.930 . S
H1591 C1600 0.930 . S
H1592 C1605 0.929 . S
H1593 C1603 0.929 . S
H1594 C1598 0.929 . S
H1595 C1604 0.929 . S
C1596 H1590 0.930 . S
C1596 C1597 1.367 . S
C1596 C1604 1.378 1_655 S
C1597 C1596 1.367 . S
C1597 C1605 1.433 . S
C1598 H1594 0.929 . S
C1598 C1600 1.378 . S
C1598 C1602 1.350 . S
C1599 C1602 1.463 . S
C1599 C1604 1.350 . S
C1599 N1607 1.427 . S
C1600 H1591 0.930 . S
C1600 C1598 1.378 . S
C1600 C1601 1.367 . S
C1601 C1600 1.367 . S
C1601 C1603 1.433 . S
C1602 C1598 1.350 . S
C1602 C1599 1.463 . S
C1602 N1606 1.427 . S
C1603 H1593 0.929 . S
C1603 C1601 1.433 . S
C1603 N1606 1.384 . S
C1604 H1595 0.929 . S
C1604 C1596 1.378 1_455 S
C1604 C1599 1.350 . S
C1605 H1592 0.929 . S
C1605 C1597 1.433 . S
C1605 N1607 1.384 1_655 S
N1606 C1602 1.427 . S
N1606 C1603 1.384 . S
N1607 C1599 1.427 . S
N1607 C1605 1.384 1_455 S
H1608 C1614 0.930 . S
H1609 C1618 0.930 . S
H1610 C1623 0.929 . S
H1611 C1621 0.929 . S
H1612 C1616 0.929 . S
H1613 C1622 0.929 . S
C1614 H1608 0.930 . S
C1614 C1615 1.367 . S
C1614 C1622 1.378 . S
C1615 C1614 1.367 . S
C1615 C1623 1.433 . S
C1616 H1612 0.929 . S
C1616 C1618 1.378 . S
C1616 C1620 1.350 . S
C1617 C1620 1.463 . S
C1617 C1622 1.350 . S
C1617 N1625 1.427 . S
C1618 H1609 0.930 . S
C1618 C1616 1.378 . S
C1618 C1619 1.367 . S
C1619 C1618 1.367 . S
C1619 C1621 1.433 . S
C1620 C1616 1.350 . S
C1620 C1617 1.463 . S
C1620 N1624 1.427 . S
C1621 H1611 0.929 . S
C1621 C1619 1.433 . S
C1621 N1624 1.384 . S
C1622 H1613 0.929 . S
C1622 C1614 1.378 . S
C1622 C1617 1.350 . S
C1623 H1610 0.929 . S
C1623 C1615 1.433 . S
C1623 N1625 1.384 . S
N1624 C1620 1.427 . S
N1624 C1621 1.384 . S
N1625 C1617 1.427 . S
N1625 C1623 1.384 . S
H1626 C1632 0.930 . S
H1627 C1636 0.930 . S
H1628 C1641 0.929 . S
H1629 C1639 0.929 . S
H1630 C1634 0.929 1_455 S
H1631 C1640 0.929 . S
C1632 H1626 0.930 . S
C1632 C1633 1.367 . S
C1632 C1640 1.378 . S
C1633 C1632 1.367 . S
C1633 C1641 1.433 . S
C1634 H1630 0.929 1_655 S
C1634 C1636 1.378 . S
C1634 C1638 1.350 1_655 S
C1635 C1638 1.463 . S
C1635 C1640 1.350 . S
C1635 N1643 1.427 . S
C1636 H1627 0.930 . S
C1636 C1634 1.378 . S
C1636 C1637 1.367 . S
C1637 C1636 1.367 . S
C1637 C1639 1.433 . S
C1638 C1634 1.350 1_455 S
C1638 C1635 1.463 . S
C1638 N1642 1.427 1_455 S
C1639 H1629 0.929 . S
C1639 C1637 1.433 . S
C1639 N1642 1.384 . S
C1640 H1631 0.929 . S
C1640 C1632 1.378 . S
C1640 C1635 1.350 . S
C1641 H1628 0.929 . S
C1641 C1633 1.433 . S
C1641 N1643 1.384 . S
N1642 C1638 1.427 1_655 S
N1642 C1639 1.384 . S
N1643 C1635 1.427 . S
N1643 C1641 1.384 . S
H1644 C1650 0.930 . S
H1645 C1654 0.930 . S
H1646 C1659 0.929 . S
H1647 C1657 0.929 . S
H1648 C1652 0.929 . S
H1649 C1658 0.929 . S
C1650 H1644 0.930 . S
C1650 C1651 1.367 . S
C1650 C1658 1.378 . S
C1651 C1650 1.367 . S
C1651 C1659 1.433 . S
C1652 H1648 0.929 . S
C1652 C1654 1.378 . S
C1652 C1656 1.350 . S
C1653 C1656 1.463 . S
C1653 C1658 1.350 . S
C1653 N1661 1.427 . S
C1654 H1645 0.930 . S
C1654 C1652 1.378 . S
C1654 C1655 1.367 . S
C1655 C1654 1.367 . S
C1655 C1657 1.433 . S
C1656 C1652 1.350 . S
C1656 C1653 1.463 . S
C1656 N1660 1.427 . S
C1657 H1647 0.929 . S
C1657 C1655 1.433 . S
C1657 N1660 1.384 . S
C1658 H1649 0.929 . S
C1658 C1650 1.378 . S
C1658 C1653 1.350 . S
C1659 H1646 0.929 . S
C1659 C1651 1.433 . S
C1659 N1661 1.384 . S
N1660 C1656 1.427 . S
N1660 C1657 1.384 . S
N1661 C1653 1.427 . S
N1661 C1659 1.384 . S
H1662 C1668 0.930 . S
H1663 C1672 0.930 . S
H1664 C1677 0.929 . S
H1665 C1675 0.929 . S
H1666 C1670 0.929 . S
H1667 C1676 0.929 . S
C1668 H1662 0.930 . S
C1668 C1669 1.367 . S
C1668 C1676 1.378 . S
C1669 C1668 1.367 . S
C1669 C1677 1.433 . S
C1670 H1666 0.929 . S
C1670 C1672 1.378 . S
C1670 C1674 1.350 . S
C1671 C1674 1.463 . S
C1671 C1676 1.350 . S
C1671 N1679 1.427 . S
C1672 H1663 0.930 . S
C1672 C1670 1.378 . S
C1672 C1673 1.367 . S
C1673 C1672 1.367 . S
C1673 C1675 1.433 . S
C1674 C1670 1.350 . S
C1674 C1671 1.463 . S
C1674 N1678 1.427 . S
C1675 H1665 0.929 . S
C1675 C1673 1.433 . S
C1675 N1678 1.384 . S
C1676 H1667 0.929 . S
C1676 C1668 1.378 . S
C1676 C1671 1.350 . S
C1677 H1664 0.929 . S
C1677 C1669 1.433 . S
C1677 N1679 1.384 . S
N1678 C1674 1.427 . S
N1678 C1675 1.384 . S
N1679 C1671 1.427 . S
N1679 C1677 1.384 . S
H1680 C1686 0.930 . S
H1681 C1690 0.930 . S
H1682 C1695 0.929 . S
H1683 C1693 0.929 . S
H1684 C1688 0.929 . S
H1685 C1694 0.929 . S
C1686 H1680 0.930 . S
C1686 C1687 1.367 . S
C1686 C1694 1.378 . S
C1687 C1686 1.367 . S
C1687 C1695 1.433 . S
C1688 H1684 0.929 . S
C1688 C1690 1.378 . S
C1688 C1692 1.350 . S
C1689 C1692 1.463 . S
C1689 C1694 1.350 . S
C1689 N1697 1.427 . S
C1690 H1681 0.930 . S
C1690 C1688 1.378 . S
C1690 C1691 1.367 . S
C1691 C1690 1.367 . S
C1691 C1693 1.433 . S
C1692 C1688 1.350 . S
C1692 C1689 1.463 . S
C1692 N1696 1.427 . S
C1693 H1683 0.929 . S
C1693 C1691 1.433 . S
C1693 N1696 1.384 . S
C1694 H1685 0.929 . S
C1694 C1686 1.378 . S
C1694 C1689 1.350 . S
C1695 H1682 0.929 . S
C1695 C1687 1.433 . S
C1695 N1697 1.384 . S
N1696 C1692 1.427 . S
N1696 C1693 1.384 . S
N1697 C1689 1.427 . S
N1697 C1695 1.384 . S
H1698 C1704 0.930 . S
H1699 C1708 0.930 . S
H1700 C1713 0.929 . S
H1701 C1711 0.929 . S
H1702 C1706 0.929 . S
H1703 C1712 0.929 . S
C1704 H1698 0.930 . S
C1704 C1705 1.367 . S
C1704 C1712 1.378 . S
C1705 C1704 1.367 . S
C1705 C1713 1.433 . S
C1706 H1702 0.929 . S
C1706 C1708 1.378 1_554 S
C1706 C1710 1.350 . S
C1707 C1710 1.463 . S
C1707 C1712 1.350 . S
C1707 N1715 1.427 . S
C1708 H1699 0.930 . S
C1708 C1706 1.378 1_556 S
C1708 C1709 1.367 . S
C1709 C1708 1.367 . S
C1709 C1711 1.433 . S
C1710 C1706 1.350 . S
C1710 C1707 1.463 . S
C1710 N1714 1.427 . S
C1711 H1701 0.929 . S
C1711 C1709 1.433 . S
C1711 N1714 1.384 1_556 S
C1712 H1703 0.929 . S
C1712 C1704 1.378 . S
C1712 C1707 1.350 . S
C1713 H1700 0.929 . S
C1713 C1705 1.433 . S
C1713 N1715 1.384 . S
N1714 C1710 1.427 . S
N1714 C1711 1.384 1_554 S
N1715 C1707 1.427 . S
N1715 C1713 1.384 . S
H1716 C1722 0.930 . S
H1717 C1726 0.930 . S
H1718 C1731 0.929 . S
H1719 C1729 0.929 . S
H1720 C1724 0.929 . S
H1721 C1730 0.929 . S
C1722 H1716 0.930 . S
C1722 C1723 1.367 . S
C1722 C1730 1.378 . S
C1723 C1722 1.367 . S
C1723 C1731 1.433 . S
C1724 H1720 0.929 . S
C1724 C1726 1.378 . S
C1724 C1728 1.350 . S
C1725 C1728 1.463 . S
C1725 C1730 1.350 . S
C1725 N1733 1.427 . S
C1726 H1717 0.930 . S
C1726 C1724 1.378 . S
C1726 C1727 1.367 . S
C1727 C1726 1.367 . S
C1727 C1729 1.433 . S
C1728 C1724 1.350 . S
C1728 C1725 1.463 . S
C1728 N1732 1.427 . S
C1729 H1719 0.929 . S
C1729 C1727 1.433 . S
C1729 N1732 1.384 . S
C1730 H1721 0.929 . S
C1730 C1722 1.378 . S
C1730 C1725 1.350 . S
C1731 H1718 0.929 . S
C1731 C1723 1.433 . S
C1731 N1733 1.384 . S
N1732 C1728 1.427 . S
N1732 C1729 1.384 . S
N1733 C1725 1.427 . S
N1733 C1731 1.384 . S
H1734 C1740 0.930 . S
H1735 C1744 0.930 . S
H1736 C1749 0.929 . S
H1737 C1747 0.929 . S
H1738 C1742 0.929 . S
H1739 C1748 0.929 . S
C1740 H1734 0.930 . S
C1740 C1741 1.367 . S
C1740 C1748 1.378 . S
C1741 C1740 1.367 . S
C1741 C1749 1.433 . S
C1742 H1738 0.929 . S
C1742 C1744 1.378 . S
C1742 C1746 1.350 . S
C1743 C1746 1.463 . S
C1743 C1748 1.350 . S
C1743 N1751 1.427 . S
C1744 H1735 0.930 . S
C1744 C1742 1.378 . S
C1744 C1745 1.367 . S
C1745 C1744 1.367 . S
C1745 C1747 1.433 . S
C1746 C1742 1.350 . S
C1746 C1743 1.463 . S
C1746 N1750 1.427 . S
C1747 H1737 0.929 . S
C1747 C1745 1.433 . S
C1747 N1750 1.384 . S
C1748 H1739 0.929 . S
C1748 C1740 1.378 . S
C1748 C1743 1.350 . S
C1749 H1736 0.929 . S
C1749 C1741 1.433 . S
C1749 N1751 1.384 . S
N1750 C1746 1.427 . S
N1750 C1747 1.384 . S
N1751 C1743 1.427 . S
N1751 C1749 1.384 . S
H1752 C1758 0.930 . S
H1753 C1762 0.930 . S
H1754 C1767 0.929 . S
H1755 C1765 0.929 . S
H1756 C1760 0.929 . S
H1757 C1766 0.929 . S
C1758 H1752 0.930 . S
C1758 C1759 1.367 . S
C1758 C1766 1.378 . S
C1759 C1758 1.367 . S
C1759 C1767 1.433 . S
C1760 H1756 0.929 . S
C1760 C1762 1.378 . S
C1760 C1764 1.350 . S
C1761 C1764 1.463 . S
C1761 C1766 1.350 . S
C1761 N1769 1.427 . S
C1762 H1753 0.930 . S
C1762 C1760 1.378 . S
C1762 C1763 1.367 . S
C1763 C1762 1.367 . S
C1763 C1765 1.433 . S
C1764 C1760 1.350 . S
C1764 C1761 1.463 . S
C1764 N1768 1.427 . S
C1765 H1755 0.929 . S
C1765 C1763 1.433 . S
C1765 N1768 1.384 . S
C1766 H1757 0.929 . S
C1766 C1758 1.378 . S
C1766 C1761 1.350 . S
C1767 H1754 0.929 . S
C1767 C1759 1.433 . S
C1767 N1769 1.384 . S
N1768 C1764 1.427 . S
N1768 C1765 1.384 . S
N1769 C1761 1.427 . S
N1769 C1767 1.384 . S
H1770 C1776 0.930 . S
H1771 C1780 0.930 . S
H1772 C1785 0.929 . S
H1773 C1783 0.929 . S
H1774 C1778 0.929 . S
H1775 C1784 0.929 . S
C1776 H1770 0.930 . S
C1776 C1777 1.367 . S
C1776 C1784 1.378 . S
C1777 C1776 1.367 . S
C1777 C1785 1.433 . S
C1778 H1774 0.929 . S
C1778 C1780 1.378 1_556 S
C1778 C1782 1.350 . S
C1779 C1782 1.463 . S
C1779 C1784 1.350 . S
C1779 N1787 1.427 . S
C1780 H1771 0.930 . S
C1780 C1778 1.378 1_554 S
C1780 C1781 1.367 . S
C1781 C1780 1.367 . S
C1781 C1783 1.433 . S
C1782 C1778 1.350 . S
C1782 C1779 1.463 . S
C1782 N1786 1.427 . S
C1783 H1773 0.929 . S
C1783 C1781 1.433 . S
C1783 N1786 1.384 1_554 S
C1784 H1775 0.929 . S
C1784 C1776 1.378 . S
C1784 C1779 1.350 . S
C1785 H1772 0.929 . S
C1785 C1777 1.433 . S
C1785 N1787 1.384 . S
N1786 C1782 1.427 . S
N1786 C1783 1.384 1_556 S
N1787 C1779 1.427 . S
N1787 C1785 1.384 . S
H1788 C1794 0.930 . S
H1789 C1798 0.930 . S
H1790 C1803 0.929 . S
H1791 C1801 0.929 . S
H1792 C1796 0.929 . S
H1793 C1802 0.929 . S
C1794 H1788 0.930 . S
C1794 C1795 1.367 . S
C1794 C1802 1.378 . S
C1795 C1794 1.367 . S
C1795 C1803 1.433 . S
C1796 H1792 0.929 . S
C1796 C1798 1.378 . S
C1796 C1800 1.350 . S
C1797 C1800 1.463 . S
C1797 C1802 1.350 . S
C1797 N1805 1.427 . S
C1798 H1789 0.930 . S
C1798 C1796 1.378 . S
C1798 C1799 1.367 . S
C1799 C1798 1.367 . S
C1799 C1801 1.433 . S
C1800 C1796 1.350 . S
C1800 C1797 1.463 . S
C1800 N1804 1.427 . S
C1801 H1791 0.929 . S
C1801 C1799 1.433 . S
C1801 N1804 1.384 . S
C1802 H1793 0.929 . S
C1802 C1794 1.378 . S
C1802 C1797 1.350 . S
C1803 H1790 0.929 . S
C1803 C1795 1.433 . S
C1803 N1805 1.384 . S
N1804 C1800 1.427 . S
N1804 C1801 1.384 . S
N1805 C1797 1.427 . S
N1805 C1803 1.384 . S
H1806 C1812 0.930 . S
H1807 C1816 0.930 . S
H1808 C1821 0.929 . S
H1809 C1819 0.929 . S
H1810 C1814 0.929 . S
H1811 C1820 0.929 . S
C1812 H1806 0.930 . S
C1812 C1813 1.367 . S
C1812 C1820 1.378 . S
C1813 C1812 1.367 . S
C1813 C1821 1.433 . S
C1814 H1810 0.929 . S
C1814 C1816 1.378 . S
C1814 C1818 1.350 . S
C1815 C1818 1.463 . S
C1815 C1820 1.350 . S
C1815 N1823 1.427 . S
C1816 H1807 0.930 . S
C1816 C1814 1.378 . S
C1816 C1817 1.367 . S
C1817 C1816 1.367 . S
C1817 C1819 1.433 . S
C1818 C1814 1.350 . S
C1818 C1815 1.463 . S
C1818 N1822 1.427 . S
C1819 H1809 0.929 . S
C1819 C1817 1.433 . S
C1819 N1822 1.384 . S
C1820 H1811 0.929 . S
C1820 C1812 1.378 . S
C1820 C1815 1.350 . S
C1821 H1808 0.929 . S
C1821 C1813 1.433 . S
C1821 N1823 1.384 . S
N1822 C1818 1.427 . S
N1822 C1819 1.384 . S
N1823 C1815 1.427 . S
N1823 C1821 1.384 . S
H1824 C1830 0.930 . S
H1825 C1834 0.930 . S
H1826 C1839 0.929 . S
H1827 C1837 0.929 . S
H1828 C1832 0.929 . S
H1829 C1838 0.929 . S
C1830 H1824 0.930 . S
C1830 C1831 1.367 . S
C1830 C1838 1.378 . S
C1831 C1830 1.367 . S
C1831 C1839 1.433 . S
C1832 H1828 0.929 . S
C1832 C1834 1.378 . S
C1832 C1836 1.350 . S
C1833 C1836 1.463 . S
C1833 C1838 1.350 . S
C1833 N1841 1.427 . S
C1834 H1825 0.930 . S
C1834 C1832 1.378 . S
C1834 C1835 1.367 . S
C1835 C1834 1.367 . S
C1835 C1837 1.433 . S
C1836 C1832 1.350 . S
C1836 C1833 1.463 . S
C1836 N1840 1.427 . S
C1837 H1827 0.929 . S
C1837 C1835 1.433 . S
C1837 N1840 1.384 . S
C1838 H1829 0.929 . S
C1838 C1830 1.378 . S
C1838 C1833 1.350 . S
C1839 H1826 0.929 . S
C1839 C1831 1.433 . S
C1839 N1841 1.384 . S
N1840 C1836 1.427 . S
N1840 C1837 1.384 . S
N1841 C1833 1.427 . S
N1841 C1839 1.384 . S
H1842 C1848 0.930 . S
H1843 C1852 0.930 . S
H1844 C1857 0.929 . S
H1845 C1855 0.929 . S
H1846 C1850 0.929 . S
H1847 C1856 0.929 . S
C1848 H1842 0.930 . S
C1848 C1849 1.367 . S
C1848 C1856 1.378 . S
C1849 C1848 1.367 . S
C1849 C1857 1.433 . S
C1850 H1846 0.929 . S
C1850 C1852 1.378 . S
C1850 C1854 1.350 . S
C1851 C1854 1.463 . S
C1851 C1856 1.350 . S
C1851 N1859 1.427 . S
C1852 H1843 0.930 . S
C1852 C1850 1.378 . S
C1852 C1853 1.367 . S
C1853 C1852 1.367 . S
C1853 C1855 1.433 . S
C1854 C1850 1.350 . S
C1854 C1851 1.463 . S
C1854 N1858 1.427 . S
C1855 H1845 0.929 . S
C1855 C1853 1.433 . S
C1855 N1858 1.384 . S
C1856 H1847 0.929 . S
C1856 C1848 1.378 . S
C1856 C1851 1.350 . S
C1857 H1844 0.929 . S
C1857 C1849 1.433 . S
C1857 N1859 1.384 . S
N1858 C1854 1.427 . S
N1858 C1855 1.384 . S
N1859 C1851 1.427 . S
N1859 C1857 1.384 . S
H1860 C1866 0.930 . S
H1861 C1870 0.930 . S
H1862 C1875 0.929 . S
H1863 C1873 0.929 . S
H1864 C1868 0.929 1_545 S
H1865 C1874 0.929 . S
C1866 H1860 0.930 . S
C1866 C1867 1.367 . S
C1866 C1874 1.378 . S
C1867 C1866 1.367 . S
C1867 C1875 1.433 . S
C1868 H1864 0.929 1_565 S
C1868 C1870 1.378 . S
C1868 C1872 1.350 1_565 S
C1869 C1872 1.463 . S
C1869 C1874 1.350 . S
C1869 N1877 1.427 . S
C1870 H1861 0.930 . S
C1870 C1868 1.378 . S
C1870 C1871 1.367 . S
C1871 C1870 1.367 . S
C1871 C1873 1.433 . S
C1872 C1868 1.350 1_545 S
C1872 C1869 1.463 . S
C1872 N1876 1.427 1_545 S
C1873 H1863 0.929 . S
C1873 C1871 1.433 . S
C1873 N1876 1.384 . S
C1874 H1865 0.929 . S
C1874 C1866 1.378 . S
C1874 C1869 1.350 . S
C1875 H1862 0.929 . S
C1875 C1867 1.433 . S
C1875 N1877 1.384 . S
N1876 C1872 1.427 1_565 S
N1876 C1873 1.384 . S
N1877 C1869 1.427 . S
N1877 C1875 1.384 . S
H1878 C1884 0.930 . S
H1879 C1888 0.930 . S
H1880 C1893 0.929 . S
H1881 C1891 0.929 . S
H1882 C1886 0.929 . S
H1883 C1892 0.929 . S
C1884 H1878 0.930 . S
C1884 C1885 1.367 . S
C1884 C1892 1.378 . S
C1885 C1884 1.367 . S
C1885 C1893 1.433 . S
C1886 H1882 0.929 . S
C1886 C1888 1.378 . S
C1886 C1890 1.350 . S
C1887 C1890 1.463 . S
C1887 C1892 1.350 . S
C1887 N1895 1.427 . S
C1888 H1879 0.930 . S
C1888 C1886 1.378 . S
C1888 C1889 1.367 . S
C1889 C1888 1.367 . S
C1889 C1891 1.433 . S
C1890 C1886 1.350 . S
C1890 C1887 1.463 . S
C1890 N1894 1.427 . S
C1891 H1881 0.929 . S
C1891 C1889 1.433 . S
C1891 N1894 1.384 . S
C1892 H1883 0.929 . S
C1892 C1884 1.378 . S
C1892 C1887 1.350 . S
C1893 H1880 0.929 . S
C1893 C1885 1.433 . S
C1893 N1895 1.384 . S
N1894 C1890 1.427 . S
N1894 C1891 1.384 . S
N1895 C1887 1.427 . S
N1895 C1893 1.384 . S
H1896 C1902 0.930 . S
H1897 C1906 0.930 . S
H1898 C1911 0.929 . S
H1899 C1909 0.929 . S
H1900 C1904 0.929 . S
H1901 C1910 0.929 . S
C1902 H1896 0.930 . S
C1902 C1903 1.367 . S
C1902 C1910 1.378 . S
C1903 C1902 1.367 . S
C1903 C1911 1.433 . S
C1904 H1900 0.929 . S
C1904 C1906 1.378 . S
C1904 C1908 1.350 . S
C1905 C1908 1.463 . S
C1905 C1910 1.350 . S
C1905 N1913 1.427 . S
C1906 H1897 0.930 . S
C1906 C1904 1.378 . S
C1906 C1907 1.367 . S
C1907 C1906 1.367 . S
C1907 C1909 1.433 . S
C1908 C1904 1.350 . S
C1908 C1905 1.463 . S
C1908 N1912 1.427 . S
C1909 H1899 0.929 . S
C1909 C1907 1.433 . S
C1909 N1912 1.384 . S
C1910 H1901 0.929 . S
C1910 C1902 1.378 . S
C1910 C1905 1.350 . S
C1911 H1898 0.929 . S
C1911 C1903 1.433 . S
C1911 N1913 1.384 . S
N1912 C1908 1.427 . S
N1912 C1909 1.384 . S
N1913 C1905 1.427 . S
N1913 C1911 1.384 . S
H1914 C1920 0.930 . S
H1915 C1924 0.930 . S
H1916 C1929 0.929 . S
H1917 C1927 0.929 . S
H1918 C1922 0.929 . S
H1919 C1928 0.929 . S
C1920 H1914 0.930 . S
C1920 C1921 1.367 . S
C1920 C1928 1.378 . S
C1921 C1920 1.367 . S
C1921 C1929 1.433 . S
C1922 H1918 0.929 . S
C1922 C1924 1.378 . S
C1922 C1926 1.350 . S
C1923 C1926 1.463 . S
C1923 C1928 1.350 . S
C1923 N1931 1.427 . S
C1924 H1915 0.930 . S
C1924 C1922 1.378 . S
C1924 C1925 1.367 . S
C1925 C1924 1.367 . S
C1925 C1927 1.433 . S
C1926 C1922 1.350 . S
C1926 C1923 1.463 . S
C1926 N1930 1.427 . S
C1927 H1917 0.929 . S
C1927 C1925 1.433 . S
C1927 N1930 1.384 . S
C1928 H1919 0.929 . S
C1928 C1920 1.378 . S
C1928 C1923 1.350 . S
C1929 H1916 0.929 . S
C1929 C1921 1.433 . S
C1929 N1931 1.384 . S
N1930 C1926 1.427 . S
N1930 C1927 1.384 . S
N1931 C1923 1.427 . S
N1931 C1929 1.384 . S
H1932 C1938 0.930 . S
H1933 C1942 0.930 . S
H1934 C1947 0.929 . S
H1935 C1945 0.929 . S
H1936 C1940 0.929 . S
H1937 C1946 0.929 . S
C1938 H1932 0.930 . S
C1938 C1939 1.367 . S
C1938 C1946 1.378 . S
C1939 C1938 1.367 . S
C1939 C1947 1.433 . S
C1940 H1936 0.929 . S
C1940 C1942 1.378 . S
C1940 C1944 1.350 . S
C1941 C1944 1.463 1_545 S
C1941 C1946 1.350 . S
C1941 N1949 1.427 . S
C1942 H1933 0.930 . S
C1942 C1940 1.378 . S
C1942 C1943 1.367 . S
C1943 C1942 1.367 . S
C1943 C1945 1.433 . S
C1944 C1940 1.350 . S
C1944 C1941 1.463 1_565 S
C1944 N1948 1.427 . S
C1945 H1935 0.929 . S
C1945 C1943 1.433 . S
C1945 N1948 1.384 . S
C1946 H1937 0.929 . S
C1946 C1938 1.378 . S
C1946 C1941 1.350 . S
C1947 H1934 0.929 . S
C1947 C1939 1.433 . S
C1947 N1949 1.384 . S
N1948 C1944 1.427 . S
N1948 C1945 1.384 . S
N1949 C1941 1.427 . S
N1949 C1947 1.384 . S
H1950 C1956 0.930 . S
H1951 C1960 0.930 . S
H1952 C1965 0.929 . S
H1953 C1963 0.929 . S
H1954 C1958 0.929 . S
H1955 C1964 0.929 . S
C1956 H1950 0.930 . S
C1956 C1957 1.367 . S
C1956 C1964 1.378 . S
C1957 C1956 1.367 . S
C1957 C1965 1.433 . S
C1958 H1954 0.929 . S
C1958 C1960 1.378 . S
C1958 C1962 1.374 . S
C1959 C1962 1.419 1_545 S
C1959 C1964 1.350 . S
C1959 N1967 1.427 . S
C1960 H1951 0.930 . S
C1960 C1958 1.378 . S
C1960 C1961 1.367 . S
C1961 C1960 1.367 . S
C1961 C1963 1.433 . S
C1962 C1958 1.374 . S
C1962 C1959 1.419 1_565 S
C1962 N1966 1.446 . S
C1963 H1953 0.929 . S
C1963 C1961 1.433 . S
C1963 N1966 1.384 . S
C1964 H1955 0.929 . S
C1964 C1956 1.378 . S
C1964 C1959 1.350 . S
C1965 H1952 0.929 . S
C1965 C1957 1.433 . S
C1965 N1967 1.384 . S
N1966 C1962 1.446 . S
N1966 C1963 1.384 . S
N1967 C1959 1.427 . S
N1967 C1965 1.384 . S
H1968 C1974 0.930 . S
H1969 C1978 0.930 . S
H1970 C1983 0.929 . S
H1971 C1981 0.929 . S
H1972 C1976 0.929 . S
H1973 C1982 0.929 . S
C1974 H1968 0.930 . S
C1974 C1975 1.367 . S
C1974 C1982 1.378 . S
C1975 C1974 1.367 . S
C1975 C1983 1.433 . S
C1976 H1972 0.929 . S
C1976 C1978 1.378 . S
C1976 C1980 1.350 . S
C1977 C1980 1.463 . S
C1977 C1982 1.350 . S
C1977 N1985 1.427 . S
C1978 H1969 0.930 . S
C1978 C1976 1.378 . S
C1978 C1979 1.367 . S
C1979 C1978 1.367 . S
C1979 C1981 1.433 . S
C1980 C1976 1.350 . S
C1980 C1977 1.463 . S
C1980 N1984 1.427 . S
C1981 H1971 0.929 . S
C1981 C1979 1.433 . S
C1981 N1984 1.384 . S
C1982 H1973 0.929 . S
C1982 C1974 1.378 . S
C1982 C1977 1.350 . S
C1983 H1970 0.929 . S
C1983 C1975 1.433 . S
C1983 N1985 1.384 . S
N1984 C1980 1.427 . S
N1984 C1981 1.384 . S
N1985 C1977 1.427 . S
N1985 C1983 1.384 . S
H1986 C1992 0.930 . S
H1987 C1996 0.930 . S
H1988 C2001 0.929 . S
H1989 C1999 0.929 . S
H1990 C1994 0.929 . S
H1991 C2000 0.929 . S
C1992 H1986 0.930 . S
C1992 C1993 1.367 . S
C1992 C2000 1.378 . S
C1993 C1992 1.367 . S
C1993 C2001 1.433 . S
C1994 H1990 0.929 . S
C1994 C1996 1.378 . S
C1994 C1998 1.350 . S
C1995 C1998 1.463 . S
C1995 C2000 1.350 . S
C1995 N2003 1.427 . S
C1996 H1987 0.930 . S
C1996 C1994 1.378 . S
C1996 C1997 1.367 . S
C1997 C1996 1.367 . S
C1997 C1999 1.433 . S
C1998 C1994 1.350 . S
C1998 C1995 1.463 . S
C1998 N2002 1.427 . S
C1999 H1989 0.929 . S
C1999 C1997 1.433 . S
C1999 N2002 1.384 . S
C2000 H1991 0.929 . S
C2000 C1992 1.378 . S
C2000 C1995 1.350 . S
C2001 H1988 0.929 . S
C2001 C1993 1.433 . S
C2001 N2003 1.384 . S
N2002 C1998 1.427 . S
N2002 C1999 1.384 . S
N2003 C1995 1.427 . S
N2003 C2001 1.384 . S
H2004 C2010 0.930 . S
H2005 C2014 0.930 . S
H2006 C2019 0.929 . S
H2007 C2017 0.929 . S
H2008 C2012 0.929 . S
H2009 C2018 0.929 . S
C2010 H2004 0.930 . S
C2010 C2011 1.367 . S
C2010 C2018 1.378 . S
C2011 C2010 1.367 . S
C2011 C2019 1.433 . S
C2012 H2008 0.929 . S
C2012 C2014 1.378 . S
C2012 C2016 1.350 . S
C2013 C2016 1.463 . S
C2013 C2018 1.350 . S
C2013 N2021 1.427 . S
C2014 H2005 0.930 . S
C2014 C2012 1.378 . S
C2014 C2015 1.367 . S
C2015 C2014 1.367 . S
C2015 C2017 1.433 . S
C2016 C2012 1.350 . S
C2016 C2013 1.463 . S
C2016 N2020 1.427 . S
C2017 H2007 0.929 . S
C2017 C2015 1.433 . S
C2017 N2020 1.384 . S
C2018 H2009 0.929 . S
C2018 C2010 1.378 . S
C2018 C2013 1.350 . S
C2019 H2006 0.929 . S
C2019 C2011 1.433 . S
C2019 N2021 1.384 . S
N2020 C2016 1.427 . S
N2020 C2017 1.384 . S
N2021 C2013 1.427 . S
N2021 C2019 1.384 . S
H2022 C2028 0.930 . S
H2023 C2032 0.930 . S
H2024 C2037 0.929 . S
H2025 C2035 0.929 . S
H2026 C2030 0.929 . S
H2027 C2036 0.929 . S
C2028 H2022 0.930 . S
C2028 C2029 1.367 . S
C2028 C2036 1.378 1_455 S
C2029 C2028 1.367 . S
C2029 C2037 1.433 . S
C2030 H2026 0.929 . S
C2030 C2032 1.378 . S
C2030 C2034 1.350 . S
C2031 C2034 1.463 . S
C2031 C2036 1.350 . S
C2031 N2039 1.427 . S
C2032 H2023 0.930 . S
C2032 C2030 1.378 . S
C2032 C2033 1.367 . S
C2033 C2032 1.367 . S
C2033 C2035 1.433 . S
C2034 C2030 1.350 . S
C2034 C2031 1.463 . S
C2034 N2038 1.427 . S
C2035 H2025 0.929 . S
C2035 C2033 1.433 . S
C2035 N2038 1.384 . S
C2036 H2027 0.929 . S
C2036 C2028 1.378 1_655 S
C2036 C2031 1.350 . S
C2037 H2024 0.929 . S
C2037 C2029 1.433 . S
C2037 N2039 1.384 1_455 S
N2038 C2034 1.427 . S
N2038 C2035 1.384 . S
N2039 C2031 1.427 . S
N2039 C2037 1.384 1_655 S
H2040 C2046 0.930 . S
H2041 C2050 0.930 . S
H2042 C2055 0.929 . S
H2043 C2053 0.929 . S
H2044 C2048 0.929 . S
H2045 C2054 0.929 . S
C2046 H2040 0.930 . S
C2046 C2047 1.367 . S
C2046 C2054 1.378 . S
C2047 C2046 1.367 . S
C2047 C2055 1.433 . S
C2048 H2044 0.929 . S
C2048 C2050 1.378 . S
C2048 C2052 1.350 . S
C2049 C2052 1.463 . S
C2049 C2054 1.350 . S
C2049 N2057 1.427 . S
C2050 H2041 0.930 . S
C2050 C2048 1.378 . S
C2050 C2051 1.367 . S
C2051 C2050 1.367 . S
C2051 C2053 1.433 . S
C2052 C2048 1.350 . S
C2052 C2049 1.463 . S
C2052 N2056 1.427 . S
C2053 H2043 0.929 . S
C2053 C2051 1.433 . S
C2053 N2056 1.384 . S
C2054 H2045 0.929 . S
C2054 C2046 1.378 . S
C2054 C2049 1.350 . S
C2055 H2042 0.929 . S
C2055 C2047 1.433 . S
C2055 N2057 1.384 . S
N2056 C2052 1.427 . S
N2056 C2053 1.384 . S
N2057 C2049 1.427 . S
N2057 C2055 1.384 . S
H2058 C2064 0.930 . S
H2059 C2068 0.930 . S
H2060 C2073 0.929 . S
H2061 C2071 0.929 . S
H2062 C2066 0.929 . S
H2063 C2072 0.929 . S
C2064 H2058 0.930 . S
C2064 C2065 1.367 . S
C2064 C2072 1.378 1_455 S
C2065 C2064 1.367 . S
C2065 C2073 1.433 . S
C2066 H2062 0.929 . S
C2066 C2068 1.378 . S
C2066 C2070 1.350 . S
C2067 C2070 1.463 . S
C2067 C2072 1.350 . S
C2067 N2075 1.427 1_655 S
C2068 H2059 0.930 . S
C2068 C2066 1.378 . S
C2068 C2069 1.367 . S
C2069 C2068 1.367 . S
C2069 C2071 1.433 . S
C2070 C2066 1.350 . S
C2070 C2067 1.463 . S
C2070 N2074 1.427 . S
C2071 H2061 0.929 . S
C2071 C2069 1.433 . S
C2071 N2074 1.384 . S
C2072 H2063 0.929 . S
C2072 C2064 1.378 1_655 S
C2072 C2067 1.350 . S
C2073 H2060 0.929 . S
C2073 C2065 1.433 . S
C2073 N2075 1.384 . S
N2074 C2070 1.427 . S
N2074 C2071 1.384 . S
N2075 C2067 1.427 1_455 S
N2075 C2073 1.384 . S
H2076 C2082 0.930 . S
H2077 C2086 0.930 . S
H2078 C2091 0.929 . S
H2079 C2089 0.929 . S
H2080 C2084 0.929 . S
H2081 C2090 0.929 . S
C2082 H2076 0.930 . S
C2082 C2083 1.367 . S
C2082 C2090 1.378 . S
C2083 C2082 1.367 . S
C2083 C2091 1.433 . S
C2084 H2080 0.929 . S
C2084 C2086 1.378 . S
C2084 C2088 1.350 . S
C2085 C2088 1.463 . S
C2085 C2090 1.350 . S
C2085 N2093 1.427 . S
C2086 H2077 0.930 . S
C2086 C2084 1.378 . S
C2086 C2087 1.367 . S
C2087 C2086 1.367 . S
C2087 C2089 1.433 . S
C2088 C2084 1.350 . S
C2088 C2085 1.463 . S
C2088 N2092 1.427 . S
C2089 H2079 0.929 . S
C2089 C2087 1.433 . S
C2089 N2092 1.384 . S
C2090 H2081 0.929 . S
C2090 C2082 1.378 . S
C2090 C2085 1.350 . S
C2091 H2078 0.929 . S
C2091 C2083 1.433 . S
C2091 N2093 1.384 . S
N2092 C2088 1.427 . S
N2092 C2089 1.384 . S
N2093 C2085 1.427 . S
N2093 C2091 1.384 . S
H2094 C2100 0.930 . S
H2095 C2104 0.930 . S
H2096 C2109 0.929 . S
H2097 C2107 0.929 . S
H2098 C2102 0.929 . S
H2099 C2108 0.929 . S
C2100 H2094 0.930 . S
C2100 C2101 1.367 . S
C2100 C2108 1.378 . S
C2101 C2100 1.367 . S
C2101 C2109 1.433 . S
C2102 H2098 0.929 . S
C2102 C2104 1.378 . S
C2102 C2106 1.350 . S
C2103 C2106 1.463 . S
C2103 C2108 1.350 . S
C2103 N2111 1.427 . S
C2104 H2095 0.930 . S
C2104 C2102 1.378 . S
C2104 C2105 1.367 . S
C2105 C2104 1.367 . S
C2105 C2107 1.433 . S
C2106 C2102 1.350 . S
C2106 C2103 1.463 . S
C2106 N2110 1.427 . S
C2107 H2097 0.929 . S
C2107 C2105 1.433 . S
C2107 N2110 1.384 . S
C2108 H2099 0.929 . S
C2108 C2100 1.378 . S
C2108 C2103 1.350 . S
C2109 H2096 0.929 . S
C2109 C2101 1.433 . S
C2109 N2111 1.384 . S
N2110 C2106 1.427 . S
N2110 C2107 1.384 . S
N2111 C2103 1.427 . S
N2111 C2109 1.384 . S
H2112 C2118 0.930 . S
H2113 C2122 0.930 . S
H2114 C2127 0.929 . S
H2115 C2125 0.929 . S
H2116 C2120 0.929 . S
H2117 C2126 0.929 . S
C2118 H2112 0.930 . S
C2118 C2119 1.367 . S
C2118 C2126 1.378 . S
C2119 C2118 1.367 . S
C2119 C2127 1.433 . S
C2120 H2116 0.929 . S
C2120 C2122 1.378 . S
C2120 C2124 1.350 . S
C2121 C2124 1.463 . S
C2121 C2126 1.350 . S
C2121 N2129 1.427 . S
C2122 H2113 0.930 . S
C2122 C2120 1.378 . S
C2122 C2123 1.367 . S
C2123 C2122 1.367 . S
C2123 C2125 1.433 . S
C2124 C2120 1.350 . S
C2124 C2121 1.463 . S
C2124 N2128 1.427 . S
C2125 H2115 0.929 . S
C2125 C2123 1.433 . S
C2125 N2128 1.384 . S
C2126 H2117 0.929 . S
C2126 C2118 1.378 . S
C2126 C2121 1.350 . S
C2127 H2114 0.929 . S
C2127 C2119 1.433 . S
C2127 N2129 1.384 . S
N2128 C2124 1.427 . S
N2128 C2125 1.384 . S
N2129 C2121 1.427 . S
N2129 C2127 1.384 . S
H2130 C2136 0.930 . S
H2131 C2140 0.930 . S
H2132 C2145 0.929 . S
H2133 C2143 0.929 . S
H2134 C2138 0.929 . S
H2135 C2144 0.929 . S
C2136 H2130 0.930 . S
C2136 C2137 1.367 . S
C2136 C2144 1.378 . S
C2137 C2136 1.367 . S
C2137 C2145 1.433 . S
C2138 H2134 0.929 . S
C2138 C2140 1.378 1_556 S
C2138 C2142 1.350 . S
C2139 C2142 1.463 . S
C2139 C2144 1.350 . S
C2139 N2147 1.427 . S
C2140 H2131 0.930 . S
C2140 C2138 1.378 1_554 S
C2140 C2141 1.367 . S
C2141 C2140 1.367 . S
C2141 C2143 1.433 . S
C2142 C2138 1.350 . S
C2142 C2139 1.463 . S
C2142 N2146 1.427 1_556 S
C2143 H2133 0.929 . S
C2143 C2141 1.433 . S
C2143 N2146 1.384 . S
C2144 H2135 0.929 . S
C2144 C2136 1.378 . S
C2144 C2139 1.350 . S
C2145 H2132 0.929 . S
C2145 C2137 1.433 . S
C2145 N2147 1.384 . S
N2146 C2142 1.427 1_554 S
N2146 C2143 1.384 . S
N2147 C2139 1.427 . S
N2147 C2145 1.384 . S
H2148 C2154 0.930 . S
H2149 C2158 0.930 . S
H2150 C2163 0.929 . S
H2151 C2161 0.929 . S
H2152 C2156 0.929 . S
H2153 C2162 0.929 . S
C2154 H2148 0.930 . S
C2154 C2155 1.367 . S
C2154 C2162 1.378 . S
C2155 C2154 1.367 . S
C2155 C2163 1.433 . S
C2156 H2152 0.929 . S
C2156 C2158 1.378 . S
C2156 C2160 1.350 . S
C2157 C2160 1.463 . S
C2157 C2162 1.350 . S
C2157 N2165 1.427 . S
C2158 H2149 0.930 . S
C2158 C2156 1.378 . S
C2158 C2159 1.367 . S
C2159 C2158 1.367 . S
C2159 C2161 1.433 . S
C2160 C2156 1.350 . S
C2160 C2157 1.463 . S
C2160 N2164 1.427 . S
C2161 H2151 0.929 . S
C2161 C2159 1.433 . S
C2161 N2164 1.384 . S
C2162 H2153 0.929 . S
C2162 C2154 1.378 . S
C2162 C2157 1.350 . S
C2163 H2150 0.929 . S
C2163 C2155 1.433 . S
C2163 N2165 1.384 . S
N2164 C2160 1.427 . S
N2164 C2161 1.384 . S
N2165 C2157 1.427 . S
N2165 C2163 1.384 . S
H2166 C2172 0.930 . S
H2167 C2176 0.930 . S
H2168 C2181 0.929 . S
H2169 C2179 0.929 . S
H2170 C2174 0.929 . S
H2171 C2180 0.929 . S
C2172 H2166 0.930 . S
C2172 C2173 1.367 . S
C2172 C2180 1.378 . S
C2173 C2172 1.367 . S
C2173 C2181 1.433 . S
C2174 H2170 0.929 . S
C2174 C2176 1.378 . S
C2174 C2178 1.350 . S
C2175 C2178 1.463 . S
C2175 C2180 1.350 . S
C2175 N2183 1.427 . S
C2176 H2167 0.930 . S
C2176 C2174 1.378 . S
C2176 C2177 1.367 . S
C2177 C2176 1.367 . S
C2177 C2179 1.433 . S
C2178 C2174 1.350 . S
C2178 C2175 1.463 . S
C2178 N2182 1.427 . S
C2179 H2169 0.929 . S
C2179 C2177 1.433 . S
C2179 N2182 1.384 . S
C2180 H2171 0.929 . S
C2180 C2172 1.378 . S
C2180 C2175 1.350 . S
C2181 H2168 0.929 . S
C2181 C2173 1.433 . S
C2181 N2183 1.384 . S
N2182 C2178 1.427 . S
N2182 C2179 1.384 . S
N2183 C2175 1.427 . S
N2183 C2181 1.384 . S
H2184 C2190 0.930 . S
H2185 C2194 0.930 . S
H2186 C2199 0.929 . S
H2187 C2197 0.929 . S
H2188 C2192 0.929 . S
H2189 C2198 0.929 . S
C2190 H2184 0.930 . S
C2190 C2191 1.367 . S
C2190 C2198 1.378 . S
C2191 C2190 1.367 . S
C2191 C2199 1.433 . S
C2192 H2188 0.929 . S
C2192 C2194 1.378 . S
C2192 C2196 1.350 . S
C2193 C2196 1.463 . S
C2193 C2198 1.350 . S
C2193 N2201 1.427 . S
C2194 H2185 0.930 . S
C2194 C2192 1.378 . S
C2194 C2195 1.367 . S
C2195 C2194 1.367 . S
C2195 C2197 1.433 . S
C2196 C2192 1.350 . S
C2196 C2193 1.463 . S
C2196 N2200 1.427 . S
C2197 H2187 0.929 . S
C2197 C2195 1.433 . S
C2197 N2200 1.384 . S
C2198 H2189 0.929 . S
C2198 C2190 1.378 . S
C2198 C2193 1.350 . S
C2199 H2186 0.929 . S
C2199 C2191 1.433 . S
C2199 N2201 1.384 . S
N2200 C2196 1.427 . S
N2200 C2197 1.384 . S
N2201 C2193 1.427 . S
N2201 C2199 1.384 . S
H2202 C2208 0.930 . S
H2203 C2212 0.930 . S
H2204 C2217 0.929 . S
H2205 C2215 0.929 . S
H2206 C2210 0.929 . S
H2207 C2216 0.929 . S
C2208 H2202 0.930 . S
C2208 C2209 1.367 . S
C2208 C2216 1.378 . S
C2209 C2208 1.367 . S
C2209 C2217 1.433 . S
C2210 H2206 0.929 . S
C2210 C2212 1.378 1_554 S
C2210 C2214 1.350 . S
C2211 C2214 1.463 . S
C2211 C2216 1.350 . S
C2211 N2219 1.427 . S
C2212 H2203 0.930 . S
C2212 C2210 1.378 1_556 S
C2212 C2213 1.367 . S
C2213 C2212 1.367 . S
C2213 C2215 1.433 . S
C2214 C2210 1.350 . S
C2214 C2211 1.463 . S
C2214 N2218 1.427 . S
C2215 H2205 0.929 . S
C2215 C2213 1.433 . S
C2215 N2218 1.384 1_556 S
C2216 H2207 0.929 . S
C2216 C2208 1.378 . S
C2216 C2211 1.350 . S
C2217 H2204 0.929 . S
C2217 C2209 1.433 . S
C2217 N2219 1.384 . S
N2218 C2214 1.427 . S
N2218 C2215 1.384 1_554 S
N2219 C2211 1.427 . S
N2219 C2217 1.384 . S
H2220 C2226 0.930 . S
H2221 C2230 0.930 . S
H2222 C2235 0.929 . S
H2223 C2233 0.929 . S
H2224 C2228 0.929 . S
H2225 C2234 0.929 . S
C2226 H2220 0.930 . S
C2226 C2227 1.367 . S
C2226 C2234 1.378 . S
C2227 C2226 1.367 . S
C2227 C2235 1.433 . S
C2228 H2224 0.929 . S
C2228 C2230 1.378 . S
C2228 C2232 1.350 . S
C2229 C2232 1.463 . S
C2229 C2234 1.350 . S
C2229 N2237 1.427 . S
C2230 H2221 0.930 . S
C2230 C2228 1.378 . S
C2230 C2231 1.367 . S
C2231 C2230 1.367 . S
C2231 C2233 1.433 . S
C2232 C2228 1.350 . S
C2232 C2229 1.463 . S
C2232 N2236 1.427 . S
C2233 H2223 0.929 . S
C2233 C2231 1.433 . S
C2233 N2236 1.384 . S
C2234 H2225 0.929 . S
C2234 C2226 1.378 . S
C2234 C2229 1.350 . S
C2235 H2222 0.929 . S
C2235 C2227 1.433 . S
C2235 N2237 1.384 . S
N2236 C2232 1.427 . S
N2236 C2233 1.384 . S
N2237 C2229 1.427 . S
N2237 C2235 1.384 . S
H2238 C2244 0.930 . S
H2239 C2248 0.930 . S
H2240 C2253 0.929 . S
H2241 C2251 0.929 . S
H2242 C2246 0.929 . S
H2243 C2252 0.929 . S
C2244 H2238 0.930 . S
C2244 C2245 1.367 . S
C2244 C2252 1.378 . S
C2245 C2244 1.367 . S
C2245 C2253 1.433 . S
C2246 H2242 0.929 . S
C2246 C2248 1.378 . S
C2246 C2250 1.350 . S
C2247 C2250 1.463 . S
C2247 C2252 1.350 . S
C2247 N2255 1.427 . S
C2248 H2239 0.930 . S
C2248 C2246 1.378 . S
C2248 C2249 1.367 . S
C2249 C2248 1.367 . S
C2249 C2251 1.433 . S
C2250 C2246 1.350 . S
C2250 C2247 1.463 . S
C2250 N2254 1.427 . S
C2251 H2241 0.929 . S
C2251 C2249 1.433 . S
C2251 N2254 1.384 . S
C2252 H2243 0.929 . S
C2252 C2244 1.378 . S
C2252 C2247 1.350 . S
C2253 H2240 0.929 . S
C2253 C2245 1.433 . S
C2253 N2255 1.384 . S
N2254 C2250 1.427 . S
N2254 C2251 1.384 . S
N2255 C2247 1.427 . S
N2255 C2253 1.384 . S
H2256 C2262 0.930 . S
H2257 C2266 0.930 . S
H2258 C2271 0.929 . S
H2259 C2269 0.929 . S
H2260 C2264 0.929 . S
H2261 C2270 0.929 . S
C2262 H2256 0.930 . S
C2262 C2263 1.367 . S
C2262 C2270 1.378 . S
C2263 C2262 1.367 . S
C2263 C2271 1.433 . S
C2264 H2260 0.929 . S
C2264 C2266 1.378 . S
C2264 C2268 1.350 . S
C2265 C2268 1.463 . S
C2265 C2270 1.350 . S
C2265 N2273 1.427 . S
C2266 H2257 0.930 . S
C2266 C2264 1.378 . S
C2266 C2267 1.367 . S
C2267 C2266 1.367 . S
C2267 C2269 1.433 . S
C2268 C2264 1.350 . S
C2268 C2265 1.463 . S
C2268 N2272 1.427 . S
C2269 H2259 0.929 . S
C2269 C2267 1.433 . S
C2269 N2272 1.384 . S
C2270 H2261 0.929 . S
C2270 C2262 1.378 . S
C2270 C2265 1.350 . S
C2271 H2258 0.929 . S
C2271 C2263 1.433 . S
C2271 N2273 1.384 . S
N2272 C2268 1.427 . S
N2272 C2269 1.384 . S
N2273 C2265 1.427 . S
N2273 C2271 1.384 . S
H2274 C2280 0.930 . S
H2275 C2284 0.930 . S
H2276 C2289 0.929 . S
H2277 C2287 0.929 . S
H2278 C2282 0.929 . S
H2279 C2288 0.929 . S
C2280 H2274 0.930 . S
C2280 C2281 1.367 . S
C2280 C2288 1.378 . S
C2281 C2280 1.367 . S
C2281 C2289 1.433 . S
C2282 H2278 0.929 . S
C2282 C2284 1.378 . S
C2282 C2286 1.350 . S
C2283 C2286 1.463 . S
C2283 C2288 1.350 . S
C2283 N2291 1.427 . S
C2284 H2275 0.930 . S
C2284 C2282 1.378 . S
C2284 C2285 1.367 . S
C2285 C2284 1.367 . S
C2285 C2287 1.433 . S
C2286 C2282 1.350 . S
C2286 C2283 1.463 . S
C2286 N2290 1.427 . S
C2287 H2277 0.929 . S
C2287 C2285 1.433 . S
C2287 N2290 1.384 . S
C2288 H2279 0.929 . S
C2288 C2280 1.378 . S
C2288 C2283 1.350 . S
C2289 H2276 0.929 . S
C2289 C2281 1.433 . S
C2289 N2291 1.384 . S
N2290 C2286 1.427 . S
N2290 C2287 1.384 . S
N2291 C2283 1.427 . S
N2291 C2289 1.384 . S
H2292 C2298 0.930 . S
H2293 C2302 0.930 . S
H2294 C2307 0.929 . S
H2295 C2305 0.929 . S
H2296 C2300 0.929 . S
H2297 C2306 0.929 . S
C2298 H2292 0.930 . S
C2298 C2299 1.367 . S
C2298 C2306 1.378 . S
C2299 C2298 1.367 . S
C2299 C2307 1.433 . S
C2300 H2296 0.929 . S
C2300 C2302 1.378 1_565 S
C2300 C2304 1.350 . S
C2301 C2304 1.463 . S
C2301 C2306 1.350 . S
C2301 N2309 1.427 . S
C2302 H2293 0.930 . S
C2302 C2300 1.378 1_545 S
C2302 C2303 1.367 . S
C2303 C2302 1.367 . S
C2303 C2305 1.433 . S
C2304 C2300 1.350 . S
C2304 C2301 1.463 . S
C2304 N2308 1.427 1_565 S
C2305 H2295 0.929 . S
C2305 C2303 1.433 . S
C2305 N2308 1.384 . S
C2306 H2297 0.929 . S
C2306 C2298 1.378 . S
C2306 C2301 1.350 . S
C2307 H2294 0.929 . S
C2307 C2299 1.433 . S
C2307 N2309 1.384 . S
N2308 C2304 1.427 1_545 S
N2308 C2305 1.384 . S
N2309 C2301 1.427 . S
N2309 C2307 1.384 . S
H2310 C2316 0.930 . S
H2311 C2320 0.930 . S
H2312 C2325 0.929 . S
H2313 C2323 0.929 . S
H2314 C2318 0.929 . S
H2315 C2324 0.929 . S
C2316 H2310 0.930 . S
C2316 C2317 1.367 . S
C2316 C2324 1.378 . S
C2317 C2316 1.367 . S
C2317 C2325 1.433 . S
C2318 H2314 0.929 . S
C2318 C2320 1.378 . S
C2318 C2322 1.350 . S
C2319 C2322 1.463 . S
C2319 C2324 1.350 . S
C2319 N2327 1.427 . S
C2320 H2311 0.930 . S
C2320 C2318 1.378 . S
C2320 C2321 1.367 . S
C2321 C2320 1.367 . S
C2321 C2323 1.433 . S
C2322 C2318 1.350 . S
C2322 C2319 1.463 . S
C2322 N2326 1.427 . S
C2323 H2313 0.929 . S
C2323 C2321 1.433 . S
C2323 N2326 1.384 . S
C2324 H2315 0.929 . S
C2324 C2316 1.378 . S
C2324 C2319 1.350 . S
C2325 H2312 0.929 . S
C2325 C2317 1.433 . S
C2325 N2327 1.384 . S
N2326 C2322 1.427 . S
N2326 C2323 1.384 . S
N2327 C2319 1.427 . S
N2327 C2325 1.384 . S
H2328 C2334 0.930 . S
H2329 C2338 0.930 . S
H2330 C2343 0.929 . S
H2331 C2341 0.929 . S
H2332 C2336 0.929 . S
H2333 C2342 0.929 . S
C2334 H2328 0.930 . S
C2334 C2335 1.367 . S
C2334 C2342 1.378 . S
C2335 C2334 1.367 . S
C2335 C2343 1.433 . S
C2336 H2332 0.929 . S
C2336 C2338 1.378 . S
C2336 C2340 1.350 . S
C2337 C2340 1.463 . S
C2337 C2342 1.350 . S
C2337 N2345 1.427 . S
C2338 H2329 0.930 . S
C2338 C2336 1.378 . S
C2338 C2339 1.367 . S
C2339 C2338 1.367 . S
C2339 C2341 1.433 . S
C2340 C2336 1.350 . S
C2340 C2337 1.463 . S
C2340 N2344 1.427 . S
C2341 H2331 0.929 . S
C2341 C2339 1.433 . S
C2341 N2344 1.384 . S
C2342 H2333 0.929 . S
C2342 C2334 1.378 . S
C2342 C2337 1.350 . S
C2343 H2330 0.929 . S
C2343 C2335 1.433 . S
C2343 N2345 1.384 . S
N2344 C2340 1.427 . S
N2344 C2341 1.384 . S
N2345 C2337 1.427 . S
N2345 C2343 1.384 . S
H2346 C2352 0.930 . S
H2347 C2356 0.930 . S
H2348 C2361 0.929 . S
H2349 C2359 0.929 . S
H2350 C2354 0.929 . S
H2351 C2360 0.929 . S
C2352 H2346 0.930 . S
C2352 C2353 1.367 . S
C2352 C2360 1.378 . S
C2353 C2352 1.367 . S
C2353 C2361 1.433 . S
C2354 H2350 0.929 . S
C2354 C2356 1.378 . S
C2354 C2358 1.350 . S
C2355 C2358 1.463 . S
C2355 C2360 1.350 . S
C2355 N2363 1.427 . S
C2356 H2347 0.930 . S
C2356 C2354 1.378 . S
C2356 C2357 1.367 . S
C2357 C2356 1.367 . S
C2357 C2359 1.433 . S
C2358 C2354 1.350 . S
C2358 C2355 1.463 . S
C2358 N2362 1.427 . S
C2359 H2349 0.929 . S
C2359 C2357 1.433 . S
C2359 N2362 1.384 . S
C2360 H2351 0.929 . S
C2360 C2352 1.378 . S
C2360 C2355 1.350 . S
C2361 H2348 0.929 . S
C2361 C2353 1.433 . S
C2361 N2363 1.384 . S
N2362 C2358 1.427 . S
N2362 C2359 1.384 . S
N2363 C2355 1.427 . S
N2363 C2361 1.384 . S
H2364 C2370 0.930 . S
H2365 C2374 0.930 . S
H2366 C2379 0.929 . S
H2367 C2377 0.929 . S
H2368 C2372 0.929 . S
H2369 C2378 0.929 . S
C2370 H2364 0.930 . S
C2370 C2371 1.367 . S
C2370 C2378 1.378 . S
C2371 C2370 1.367 . S
C2371 C2379 1.433 . S
C2372 H2368 0.929 . S
C2372 C2374 1.378 . S
C2372 C2376 1.350 . S
C2373 C2376 1.463 . S
C2373 C2378 1.350 1_545 S
C2373 N2381 1.427 1_545 S
C2374 H2365 0.930 . S
C2374 C2372 1.378 . S
C2374 C2375 1.367 . S
C2375 C2374 1.367 . S
C2375 C2377 1.433 . S
C2376 C2372 1.350 . S
C2376 C2373 1.463 . S
C2376 N2380 1.427 . S
C2377 H2367 0.929 . S
C2377 C2375 1.433 . S
C2377 N2380 1.384 . S
C2378 H2369 0.929 . S
C2378 C2370 1.378 . S
C2378 C2373 1.350 1_565 S
C2379 H2366 0.929 . S
C2379 C2371 1.433 . S
C2379 N2381 1.384 . S
N2380 C2376 1.427 . S
N2380 C2377 1.384 . S
N2381 C2373 1.427 1_565 S
N2381 C2379 1.384 . S
H2382 C2388 0.930 . S
H2383 C2392 0.930 . S
H2384 C2397 0.929 . S
H2385 C2395 0.929 . S
H2386 C2390 0.929 1_565 S
H2387 C2396 0.929 . S
C2388 H2382 0.930 . S
C2388 C2389 1.367 . S
C2388 C2396 1.378 . S
C2389 C2388 1.367 . S
C2389 C2397 1.433 . S
C2390 H2386 0.929 1_545 S
C2390 C2392 1.378 . S
C2390 C2394 1.350 1_545 S
C2391 C2394 1.463 . S
C2391 C2396 1.350 . S
C2391 N2399 1.427 . S
C2392 H2383 0.930 . S
C2392 C2390 1.378 . S
C2392 C2393 1.367 . S
C2393 C2392 1.367 . S
C2393 C2395 1.433 . S
C2394 C2390 1.350 1_565 S
C2394 C2391 1.463 . S
C2394 N2398 1.427 1_565 S
C2395 H2385 0.929 . S
C2395 C2393 1.433 . S
C2395 N2398 1.384 . S
C2396 H2387 0.929 . S
C2396 C2388 1.378 . S
C2396 C2391 1.350 . S
C2397 H2384 0.929 . S
C2397 C2389 1.433 . S
C2397 N2399 1.384 . S
N2398 C2394 1.427 1_545 S
N2398 C2395 1.384 . S
N2399 C2391 1.427 . S
N2399 C2397 1.384 . S
C679 C592 1.115 . S
C683 C5 0.970 . S
C697 C26 1.202 . S
C701 C222 1.182 . S
C715 C33 1.008 . S
C719 C564 1.164 . S
C733 C54 1.243 . S
C737 C250 1.218 . S
C751 C620 1.187 . S
C755 C68 1.190 . S
C769 C75 1.031 . S
C773 C299 1.108 . S
C787 C96 1.141 . S
C791 C648 1.129 . S
C805 C103 1.046 . S
C809 C271 1.099 . S
C823 C47 1.016 . S
C827 C669 1.145 . S
C841 C12 1.233 . S
C845 C354 1.220 . S
C859 C375 1.102 . S
C863 C19 0.973 . S
C877 C40 1.175 . S
C881 C340 1.161 . S
C895 C82 1.188 . S
C899 C347 1.169 . S
C913 C89 0.991 . S
C917 C662 1.128 . S
C931 C110 1.252 . S
C935 C361 1.231 . S
C949 C61 1.027 . S
C953 C368 1.154 . S
C967 C551 1.061 . S
C971 C117 1.003 . S
C985 C138 1.270 . S
C989 C278 1.245 . S
C1003 C124 1.212 . S
C1007 C627 1.172 . S
C1021 C306 1.256 . S
C1025 C152 1.272 . S
C1039 C319 1.149 . S
C1043 C159 1.019 . S
C1057 C579 1.117 . S
C1061 C180 1.215 . S
C1075 C599 1.124 . S
C1079 C187 0.972 . S
C1093 C571 1.190 . S
C1097 C208 1.230 . S
C1111 C473 1.117 . S
C1115 C221 1.136 . S
C1129 C229 1.054 . S
C1133 C4 1.227 . S
C1147 C249 1.161 . S
C1151 C445 1.147 . S
C1165 C32 1.165 . S
C1169 C257 1.041 . S
C1183 C270 1.081 . S
C1187 C494 1.085 . S
C1201 C95 1.255 . S
C1205 C285 1.091 . S
C1219 C298 1.177 . S
C1223 C522 1.182 . S
C1237 C67 1.257 . S
C1241 C313 1.096 . S
C1255 C543 1.133 . S
C1259 C264 1.188 . S
C1273 C214 1.101 . S
C1277 C151 1.100 . S
C1291 C158 1.247 . S
C1295 C236 1.250 . S
C1309 C137 1.249 . S
C1313 C242 1.254 . S
C1327 C130 1.340 . S
C1331 C292 1.357 . S
C1345 C305 1.187 . S
C1349 C536 1.192 . S
C1363 C144 1.229 . S
C1367 C320 1.232 . S
C1381 C277 1.134 . S
C1385 C165 1.096 . S
C1399 C327 0.989 . S
C1403 C431 1.105 . S
C1417 C341 1.119 . S
C1421 C60 1.300 . S
C1435 C334 1.171 . S
C1439 C501 1.125 . S
C1453 C355 1.147 . S
C1457 C88 1.324 . S
C1471 C376 1.183 . S
C1475 C109 1.147 . S
C1489 C459 1.090 . S
C1493 C383 0.988 . S
C1507 C404 1.341 . S
C1511 C466 1.329 . S
C1525 C418 1.327 . S
C1529 C438 1.313 . S
C1543 C425 1.026 . S
C1547 C256 1.143 . S
C1561 C446 1.222 . S
C1565 C558 1.206 . S
C1579 C228 1.152 . S
C1583 C453 1.015 . S
C1597 C474 1.259 . S
C1601 C586 1.235 . S
C1615 C488 1.209 . S
C1619 C284 1.208 . S
C1633 C635 1.084 . S
C1637 C495 1.022 . S
C1651 C516 1.161 . S
C1655 C312 1.163 . S
C1669 C607 1.126 . S
C1673 C523 1.048 . S
C1687 C333 1.137 . S
C1691 C467 0.985 . S
C1705 C410 1.186 . S
C1709 C432 1.190 . S
C1723 C439 0.986 . S
C1727 C389 1.129 . S
C1741 C396 1.164 . S
C1745 C460 1.180 . S
C1759 C502 1.211 . S
C1763 C403 1.188 . S
C1777 C326 1.160 . S
C1781 C509 1.032 . S
C1795 C530 1.220 . S
C1799 C417 1.184 . S
C1813 C481 0.995 . S
C1817 C382 1.155 . S
C1831 C537 1.022 . S
C1835 C215 1.043 . S
C1849 C194 1.282 . S
C1853 C614 1.258 . S
C1867 C291 1.202 . S
C1871 C544 1.239 . S
C1885 C642 1.200 . S
C1889 C201 1.016 . S
C1903 C655 1.136 . S
C1907 C173 0.987 . S
C1921 C166 1.185 . S
C1925 C243 1.076 . S
C1939 C131 1.020 . S
C1943 C263 1.159 . S
C1957 C235 1.143 . S
C1961 C145 0.991 . S
C1975 C557 1.212 . S
C1979 C53 1.203 . S
C1993 C424 1.240 . S
C1997 C565 1.062 . S
C2011 C585 1.142 . S
C2015 C25 1.149 . S
C2029 C593 1.029 . S
C2033 C452 1.151 . S
C2047 C74 1.112 . S
C2051 C606 1.104 . S
C2065 C621 1.079 . S
C2069 C515 1.253 . S
C2083 C634 1.151 . S
C2087 C102 1.164 . S
C2101 C487 1.186 . S
C2105 C649 1.058 . S
C2119 C600 1.172 . S
C2123 C123 1.138 . S
C2137 C200 1.159 . S
C2141 C550 1.156 . S
C2155 C172 1.356 . S
C2159 C572 1.364 . S
C2173 C578 1.229 . S
C2177 C193 1.230 . S
C2191 C628 1.375 . S
C2195 C186 1.361 . S
C2209 C116 1.088 . S
C2213 C641 1.078 . S
C2227 C207 1.123 . S
C2231 C656 1.180 . S
C2245 C613 1.137 . S
C2249 C179 1.120 . S
C2263 C11 1.104 . S
C2267 C663 0.987 . S
C2281 C397 1.112 . S
C2285 C480 1.289 . S
C2299 C81 1.133 . S
C2303 C670 1.178 . S
C2317 C508 1.291 . S
C2321 C411 1.098 . S
C2335 C529 1.145 . S
C2339 C390 1.194 . S
C2353 C369 0.967 . S
C2357 C39 1.084 . S
C2371 C348 1.356 . S
C2375 C46 1.350 . S
C2389 C18 1.347 . S
C2393 C362 1.360 . S
