# Generated by pormake.
# Topology wib, (6)-cn, num edge types: 1
# Building blocks:
#     Node 0, Type 0, BuildingBlock: OJICUG_clean_sbu_0, # of connection points: 6
#     Node 1, Type 0, BuildingBlock: OJICUG_clean_sbu_0, # of connection points: 6
#     Node 2, Type 0, BuildingBlock: OJICUG_clean_sbu_0, # of connection points: 6
#     Node 3, Type 0, BuildingBlock: OJICUG_clean_sbu_0, # of connection points: 6
#     Node 4, Type 0, BuildingBlock: OJICUG_clean_sbu_0, # of connection points: 6
#     Node 5, Type 0, BuildingBlock: OJICUG_clean_sbu_0, # of connection points: 6
#     Node 6, Type 0, BuildingBlock: OJICUG_clean_sbu_0, # of connection points: 6
#     Node 7, Type 0, BuildingBlock: OJICUG_clean_sbu_0, # of connection points: 6
#     Node 8, Type 0, BuildingBlock: OJICUG_clean_sbu_0, # of connection points: 6
#     Node 9, Type 0, BuildingBlock: OJICUG_clean_sbu_0, # of connection points: 6
#     Node 10, Type 0, BuildingBlock: OJICUG_clean_sbu_0, # of connection points: 6
#     Node 11, Type 0, BuildingBlock: OJICUG_clean_sbu_0, # of connection points: 6
#     Node 12, Type 0, BuildingBlock: OJICUG_clean_sbu_0, # of connection points: 6
#     Node 13, Type 0, BuildingBlock: OJICUG_clean_sbu_0, # of connection points: 6
#     Node 14, Type 0, BuildingBlock: OJICUG_clean_sbu_0, # of connection points: 6
#     Node 15, Type 0, BuildingBlock: OJICUG_clean_sbu_0, # of connection points: 6
#     Edge 16, Type (0, 0), BuildingBlock: CIFDUS_clean_linker_0, # of connection points: 2
#     Edge 17, Type (0, 0), BuildingBlock: CIFDUS_clean_linker_0, # of connection points: 2
#     Edge 18, Type (0, 0), BuildingBlock: CIFDUS_clean_linker_0, # of connection points: 2
#     Edge 19, Type (0, 0), BuildingBlock: CIFDUS_clean_linker_0, # of connection points: 2
#     Edge 20, Type (0, 0), BuildingBlock: CIFDUS_clean_linker_0, # of connection points: 2
#     Edge 21, Type (0, 0), BuildingBlock: CIFDUS_clean_linker_0, # of connection points: 2
#     Edge 22, Type (0, 0), BuildingBlock: CIFDUS_clean_linker_0, # of connection points: 2
#     Edge 23, Type (0, 0), BuildingBlock: CIFDUS_clean_linker_0, # of connection points: 2
#     Edge 24, Type (0, 0), BuildingBlock: CIFDUS_clean_linker_0, # of connection points: 2
#     Edge 25, Type (0, 0), BuildingBlock: CIFDUS_clean_linker_0, # of connection points: 2
#     Edge 26, Type (0, 0), BuildingBlock: CIFDUS_clean_linker_0, # of connection points: 2
#     Edge 27, Type (0, 0), BuildingBlock: CIFDUS_clean_linker_0, # of connection points: 2
#     Edge 28, Type (0, 0), BuildingBlock: CIFDUS_clean_linker_0, # of connection points: 2
#     Edge 29, Type (0, 0), BuildingBlock: CIFDUS_clean_linker_0, # of connection points: 2
#     Edge 30, Type (0, 0), BuildingBlock: CIFDUS_clean_linker_0, # of connection points: 2
#     Edge 31, Type (0, 0), BuildingBlock: CIFDUS_clean_linker_0, # of connection points: 2
#     Edge 32, Type (0, 0), BuildingBlock: CIFDUS_clean_linker_0, # of connection points: 2
#     Edge 33, Type (0, 0), BuildingBlock: CIFDUS_clean_linker_0, # of connection points: 2
#     Edge 34, Type (0, 0), BuildingBlock: CIFDUS_clean_linker_0, # of connection points: 2
#     Edge 35, Type (0, 0), BuildingBlock: CIFDUS_clean_linker_0, # of connection points: 2
#     Edge 36, Type (0, 0), BuildingBlock: CIFDUS_clean_linker_0, # of connection points: 2
#     Edge 37, Type (0, 0), BuildingBlock: CIFDUS_clean_linker_0, # of connection points: 2
#     Edge 38, Type (0, 0), BuildingBlock: CIFDUS_clean_linker_0, # of connection points: 2
#     Edge 39, Type (0, 0), BuildingBlock: CIFDUS_clean_linker_0, # of connection points: 2
#     Edge 40, Type (0, 0), BuildingBlock: CIFDUS_clean_linker_0, # of connection points: 2
#     Edge 41, Type (0, 0), BuildingBlock: CIFDUS_clean_linker_0, # of connection points: 2
#     Edge 42, Type (0, 0), BuildingBlock: CIFDUS_clean_linker_0, # of connection points: 2
#     Edge 43, Type (0, 0), BuildingBlock: CIFDUS_clean_linker_0, # of connection points: 2
#     Edge 44, Type (0, 0), BuildingBlock: CIFDUS_clean_linker_0, # of connection points: 2
#     Edge 45, Type (0, 0), BuildingBlock: CIFDUS_clean_linker_0, # of connection points: 2
#     Edge 46, Type (0, 0), BuildingBlock: CIFDUS_clean_linker_0, # of connection points: 2
#     Edge 47, Type (0, 0), BuildingBlock: CIFDUS_clean_linker_0, # of connection points: 2
#     Edge 48, Type (0, 0), BuildingBlock: CIFDUS_clean_linker_0, # of connection points: 2
#     Edge 49, Type (0, 0), BuildingBlock: CIFDUS_clean_linker_0, # of connection points: 2
#     Edge 50, Type (0, 0), BuildingBlock: CIFDUS_clean_linker_0, # of connection points: 2
#     Edge 51, Type (0, 0), BuildingBlock: CIFDUS_clean_linker_0, # of connection points: 2
#     Edge 52, Type (0, 0), BuildingBlock: CIFDUS_clean_linker_0, # of connection points: 2
#     Edge 53, Type (0, 0), BuildingBlock: CIFDUS_clean_linker_0, # of connection points: 2
#     Edge 54, Type (0, 0), BuildingBlock: CIFDUS_clean_linker_0, # of connection points: 2
#     Edge 55, Type (0, 0), BuildingBlock: CIFDUS_clean_linker_0, # of connection points: 2
#     Edge 56, Type (0, 0), BuildingBlock: CIFDUS_clean_linker_0, # of connection points: 2
#     Edge 57, Type (0, 0), BuildingBlock: CIFDUS_clean_linker_0, # of connection points: 2
#     Edge 58, Type (0, 0), BuildingBlock: CIFDUS_clean_linker_0, # of connection points: 2
#     Edge 59, Type (0, 0), BuildingBlock: CIFDUS_clean_linker_0, # of connection points: 2
#     Edge 60, Type (0, 0), BuildingBlock: CIFDUS_clean_linker_0, # of connection points: 2
#     Edge 61, Type (0, 0), BuildingBlock: CIFDUS_clean_linker_0, # of connection points: 2
#     Edge 62, Type (0, 0), BuildingBlock: CIFDUS_clean_linker_0, # of connection points: 2
#     Edge 63, Type (0, 0), BuildingBlock: CIFDUS_clean_linker_0, # of connection points: 2
# Relax obj value: 0.382
# Max RMSD: 0.261
# Mean RMSD: 0.261
data_MOF--net-wib--node1-OJICUG_clean_sbu_0--edge1-CIFDUS_clean_linker_0
_symmetry_space_group_name_H-M    P1
_symmetry_Int_Tables_number       1
_symmetry_cell_setting            triclinic
loop_
_symmetry_equiv_pos_as_xyz
'x, y, z'
_cell_length_a     27.78734
_cell_length_b     27.734553
_cell_length_c     50.835279
_cell_angle_alpha  90.044119
_cell_angle_beta   90.413149
_cell_angle_gamma 89.906067
loop_
_atom_site_label
_atom_site_type_symbol
_atom_site_fract_x
_atom_site_fract_y
_atom_site_fract_z
_atom_type_partial_charge
Sc0 Sc 0.1195 0.48351 0.29204 0.0
Sc1 Sc 0.15252 0.57687 0.33503 0.0
Sc2 Sc 0.06518 0.59817 0.28705 0.0
O3 O 0.11182 0.55236 0.30483 0.0
C4 C 0.11038 0.54393 0.23805 0.0
C5 C 0.22786 0.50708 0.30622 0.0
C6 C 0.15877 0.66276 0.29582 0.0
C7 C 0.12682 0.47467 0.35567 0.0
C8 C 0.00597 0.49919 0.28631 0.0
C9 C 0.05451 0.63594 0.34429 0.0
O10 O 0.1187 0.50516 0.25086 0.0
O11 O 0.2149 0.53505 0.32465 0.0
O12 O 0.11539 0.65761 0.28811 0.0
O13 O 0.12473 0.45613 0.33258 0.0
O14 O 0.01011 0.54444 0.28345 0.0
O15 O 0.09806 0.62588 0.34987 0.0
O16 O 0.04163 0.47133 0.29112 0.0
O17 O 0.12885 0.51987 0.35993 0.0
O18 O 0.03373 0.61985 0.32377 0.0
O19 O 0.19772 0.48852 0.29021 0.0
O20 O 0.09264 0.58135 0.2487 0.0
O21 O 0.17972 0.63333 0.3112 0.0
Sc22 Sc 0.28372 0.36461 0.54326 0.0
Sc23 Sc 0.19446 0.39606 0.58876 0.0
Sc24 Sc 0.16827 0.31268 0.5393 0.0
O25 O 0.21597 0.35721 0.55729 0.0
C26 C 0.21858 0.36036 0.4904 0.0
C27 C 0.25926 0.47399 0.55787 0.0
C28 C 0.10436 0.40521 0.55207 0.0
C29 C 0.29912 0.37107 0.60672 0.0
C30 C 0.2657 0.25085 0.53561 0.0
C31 C 0.13803 0.29583 0.59754 0.0
O32 O 0.25894 0.36551 0.5023 0.0
O33 O 0.23324 0.45996 0.57691 0.0
O34 O 0.10903 0.3628 0.5429 0.0
O35 O 0.31519 0.3692 0.58316 0.0
O36 O 0.2208 0.25732 0.53247 0.0
O37 O 0.14879 0.33881 0.60429 0.0
O38 O 0.29441 0.2851 0.54226 0.0
O39 O 0.25451 0.37286 0.61207 0.0
O40 O 0.15041 0.27788 0.57561 0.0
O41 O 0.27828 0.44398 0.5419 0.0
O42 O 0.18149 0.34393 0.50167 0.0
O43 O 0.13487 0.42424 0.56748 0.0
Sc44 Sc 0.44937 0.41102 0.79315 0.0
Sc45 Sc 0.35698 0.43827 0.83527 0.0
Sc46 Sc 0.40008 0.52686 0.79337 0.0
O47 O 0.40266 0.45901 0.80725 0.0
C48 C 0.51155 0.50866 0.79535 0.0
C49 C 0.45133 0.37663 0.85022 0.0
C50 C 0.37759 0.53777 0.85596 0.0
C51 C 0.35237 0.35094 0.79831 0.0
C52 C 0.41494 0.46218 0.74125 0.0
C53 C 0.29127 0.50477 0.79887 0.0
O54 O 0.50508 0.46418 0.79028 0.0
O55 O 0.40649 0.38528 0.85251 0.0
O56 O 0.3801 0.55624 0.83281 0.0
O57 O 0.39765 0.35255 0.79448 0.0
O58 O 0.41241 0.5035 0.7525 0.0
O59 O 0.29842 0.48497 0.8212 0.0
O60 O 0.42516 0.42396 0.75382 0.0
O61 O 0.3295 0.38377 0.81035 0.0
O62 O 0.32547 0.51774 0.78414 0.0
O63 O 0.47587 0.39493 0.83184 0.0
O64 O 0.47699 0.53785 0.80009 0.0
O65 O 0.38521 0.49326 0.85993 0.0
Sc66 Sc 0.23174 0.64295 0.03871 0.0
Sc67 Sc 0.32653 0.60222 0.07943 0.0
Sc68 Sc 0.34366 0.70115 0.03818 0.0
O69 O 0.30014 0.64925 0.05263 0.0
C70 C 0.28892 0.66841 0.98644 0.0
C71 C 0.26497 0.53248 0.04222 0.0
C72 C 0.41102 0.61094 0.03799 0.0
C73 C 0.21861 0.61892 0.09955 0.0
C74 C 0.24768 0.75789 0.04568 0.0
C75 C 0.38224 0.69455 0.09797 0.0
O76 O 0.25762 0.64312 0.99834 0.0
O77 O 0.30098 0.54181 0.05686 0.0
O78 O 0.39618 0.64872 1.02635 0.0
O79 O 0.20209 0.63829 0.07848 0.0
O80 O 0.29294 0.75518 0.0491 0.0
O81 O 0.35913 0.65681 0.10441 0.0
O82 O 0.22153 0.72175 0.03919 0.0
O83 O 0.26174 0.60405 0.10196 0.0
O84 O 0.38069 0.71199 0.07491 0.0
O85 O 0.2341 0.56429 0.03555 0.0
O86 O 0.31561 0.6982 0.99858 0.0
O87 O 0.39245 0.59451 0.05887 0.0
Sc88 Sc 0.94926 0.41175 0.76892 0.0
Sc89 Sc 0.85229 0.43484 0.72681 0.0
Sc90 Sc 0.89827 0.52722 0.76709 0.0
O91 O 0.90065 0.4584 0.75365 0.0
C92 C 0.91823 0.46941 0.81974 0.0
C93 C 0.85527 0.34945 0.76836 0.0
C94 C 0.78679 0.50132 0.76277 0.0
C95 C 0.94103 0.3737 0.70914 0.0
C96 C 0.01248 0.50316 0.76471 0.0
C97 C 0.87609 0.54183 0.70627 0.0
O98 O 0.94703 0.44094 0.80824 0.0
O99 O 0.8405 0.3689 0.7472 0.0
O100 O 0.81994 0.53129 0.76833 0.0
O101 O 0.95824 0.37397 0.73235 0.0
O102 O 0.97708 0.53114 0.76983 0.0
O103 O 0.85751 0.50005 0.70435 0.0
O104 O 0.00709 0.45889 0.75889 0.0
O105 O 0.9051 0.39943 0.70227 0.0
O106 O 0.89809 0.55666 0.727 0.0
O107 O 0.8934 0.36246 0.78038 0.0
O108 O 0.89412 0.50128 0.8073 0.0
O109 O 0.79406 0.46348 0.74935 0.0
Sc110 Sc 0.85114 0.69916 0.51903 0.0
Sc111 Sc 0.82307 0.61121 0.47208 0.0
Sc112 Sc 0.73371 0.6517 0.51576 0.0
O113 O 0.80218 0.6547 0.50199 0.0
C114 C 0.79779 0.65761 0.56902 0.0
C115 C 0.91238 0.60347 0.50978 0.0
C116 C 0.75387 0.5411 0.50496 0.0
C117 C 0.88253 0.70855 0.46004 0.0
C118 C 0.75522 0.76361 0.52079 0.0
C119 C 0.71927 0.63934 0.45258 0.0
O120 O 0.83541 0.6729 0.55773 0.0
O121 O 0.88214 0.58429 0.49428 0.0
O122 O 0.73505 0.57432 0.51866 0.0
O123 O 0.87224 0.72862 0.48178 0.0
O124 O 0.72544 0.72971 0.5161 0.0
O125 O 0.76363 0.63241 0.44784 0.0
O126 O 0.80029 0.75705 0.52302 0.0
O127 O 0.8696 0.66562 0.45437 0.0
O128 O 0.70277 0.64648 0.47575 0.0
O129 O 0.90842 0.6465 0.51811 0.0
O130 O 0.75784 0.65199 0.55678 0.0
O131 O 0.78282 0.5498 0.48627 0.0
Sc132 Sc 0.61389 0.48038 0.26624 0.0
Sc133 Sc 0.66647 0.56632 0.22545 0.0
Sc134 Sc 0.57184 0.5995 0.26566 0.0
O135 O 0.61664 0.54809 0.2522 0.0
C136 C 0.50299 0.50677 0.26548 0.0
C137 C 0.63284 0.4677 0.20335 0.0
C138 C 0.5767 0.63422 0.20884 0.0
C139 C 0.72638 0.49218 0.26066 0.0
C140 C 0.60393 0.54753 0.31813 0.0
C141 C 0.67209 0.65402 0.2622 0.0
O142 O 0.53584 0.47564 0.26109 0.0
O143 O 0.64113 0.51216 0.19924 0.0
O144 O 0.54898 0.61751 0.22638 0.0
O145 O 0.69046 0.47937 0.27426 0.0
O146 O 0.59327 0.58554 0.30543 0.0
O147 O 0.69434 0.61952 0.2513 0.0
O148 O 0.60726 0.50608 0.30706 0.0
O149 O 0.72187 0.51758 0.23999 0.0
O150 O 0.62658 0.65469 0.26478 0.0
O151 O 0.62466 0.45011 0.22629 0.0
O152 O 0.51179 0.5512 0.26912 0.0
O153 O 0.62065 0.62126 0.20738 0.0
Sc154 Sc 0.77677 0.37085 1.01235 0.0
Sc155 Sc 0.69166 0.39735 0.96469 0.0
Sc156 Sc 0.66192 0.31863 1.01427 0.0
O157 O 0.7099 0.36215 0.99754 0.0
C158 C 0.76055 0.25832 1.01863 0.0
C159 C 0.7914 0.37445 0.94929 0.0
C160 C 0.62897 0.30176 0.95714 0.0
C161 C 0.75146 0.47595 0.99605 0.0
C162 C 0.71148 0.36349 0.06443 0.0
C163 C 0.60214 0.41364 0.99849 0.0
O164 O 0.78915 0.29253 1.01208 0.0
O165 O 0.74859 0.36015 0.94587 0.0
O166 O 0.64544 0.28218 0.97788 0.0
O167 O 0.76478 0.4484 1.0148 0.0
O168 O 0.67361 0.35069 0.05218 0.0
O169 O 0.63472 0.43237 0.98439 0.0
O170 O 0.75235 0.36677 0.05316 0.0
O171 O 0.73728 0.45881 0.97406 0.0
O172 O 0.60478 0.37092 1.00785 0.0
O173 O 0.80804 0.38167 0.97256 0.0
O174 O 0.71555 0.26422 1.022 0.0
O175 O 0.64008 0.34458 0.95089 0.0
Sc176 Sc 0.61376 0.98091 0.7855 0.0
Sc177 Sc 0.64303 0.06304 0.83531 0.0
Sc178 Sc 0.56237 0.09669 0.78627 0.0
O179 O 0.60598 0.04654 0.8023 0.0
C180 C 0.60948 0.05254 0.73528 0.0
C181 C 0.72079 1.00058 0.80344 0.0
C182 C 0.65598 0.15676 0.80324 0.0
C183 C 0.61347 0.95864 0.84829 0.0
C184 C 0.50141 0.99963 0.77771 0.0
C185 C 0.54473 0.12145 0.8448 0.0
O186 O 0.61437 0.01068 0.74555 0.0
O187 O 0.70582 0.02135 0.8242 0.0
O188 O 0.61338 0.15435 0.79381 0.0
O189 O 0.61716 0.94494 0.82428 0.0
O190 O 0.50732 0.04502 0.77659 0.0
O191 O 0.58785 0.11072 0.8511 0.0
O192 O 0.53557 0.97013 0.78306 0.0
O193 O 0.61318 1.00265 0.85521 0.0
O194 O 0.52636 0.10911 0.8229 0.0
O195 O 0.69198 0.98718 0.78526 0.0
O196 O 0.59429 0.08858 0.74824 0.0
O197 O 0.675 0.12314 0.81664 0.0
Sc198 Sc 0.76338 0.86492 0.03752 0.0
Sc199 Sc 0.68284 0.91873 0.081 0.0
Sc200 Sc 0.64343 0.82748 0.03967 0.0
O201 O 0.69704 0.86991 0.05289 0.0
C202 C 0.69229 0.85706 0.98683 0.0
C203 C 0.75428 0.97788 0.04383 0.0
C204 C 0.5892 0.92753 0.04955 0.0
C205 C 0.78338 0.88479 0.09985 0.0
C206 C 0.73433 0.75544 0.03673 0.0
C207 C 0.61667 0.82809 0.09789 0.0
O208 O 0.73445 0.85652 0.99729 0.0
O209 O 0.7305 0.97375 0.06505 0.0
O210 O 0.58818 0.88256 0.04457 0.0
O211 O 0.79826 0.87674 0.07638 0.0
O212 O 0.69042 0.76662 0.0328 0.0
O213 O 0.63008 0.87196 0.1001 0.0
O214 O 0.76611 0.7867 0.04303 0.0
O215 O 0.73938 0.89188 0.10529 0.0
O216 O 0.63017 0.80171 0.07883 0.0
O217 O 0.76508 0.94167 0.02964 0.0
O218 O 0.6542 0.85181 1.00025 0.0
O219 O 0.62649 0.94888 0.058 0.0
Sc220 Sc 0.94975 0.92559 0.28402 0.0
Sc221 Sc 0.86546 0.95206 0.33202 0.0
Sc222 Sc 0.89639 0.04055 0.28641 0.0
O223 O 0.90423 0.97312 0.3008 0.0
C224 C 0.00989 0.02363 0.28086 0.0
C225 C 0.96404 0.89379 0.34181 0.0
C226 C 0.89326 0.05502 0.34975 0.0
C227 C 0.85713 0.86214 0.29642 0.0
C228 C 0.90235 0.9744 0.23398 0.0
C229 C 0.78828 0.01852 0.30143 0.0
O230 O 1.00443 0.97866 0.27733 0.0
O231 O 0.92045 0.90344 0.34724 0.0
O232 O 0.8914 0.07165 0.32625 0.0
O233 O 0.90028 0.86625 0.28852 0.0
O234 O 0.89682 0.01506 0.24553 0.0
O235 O 0.80271 0.99406 0.32115 0.0
O236 O 0.91882 0.93746 0.24578 0.0
O237 O 0.83612 0.89408 0.31004 0.0
O238 O 0.81764 0.03465 0.28438 0.0
O239 O 0.98397 0.90932 0.32107 0.0
O240 O 0.97504 0.05188 0.28672 0.0
O241 O 0.89261 0.01027 0.3551 0.0
Sc242 Sc 0.74119 0.15449 0.53858 0.0
Sc243 Sc 0.81773 0.106 0.5867 0.0
Sc244 Sc 0.86178 0.18569 0.54058 0.0
O245 O 0.80659 0.14913 0.55542 0.0
C246 C 0.81261 0.15292 0.48864 0.0
C247 C 0.74907 0.04371 0.54929 0.0
C248 C 0.9091 0.08418 0.55528 0.0
C249 C 0.7183 0.14543 0.601 0.0
C250 C 0.7741 0.26046 0.53305 0.0
C251 C 0.88627 0.19695 0.59924 0.0
O252 O 0.77055 0.15832 0.49842 0.0
O253 O 0.76807 0.05048 0.57197 0.0
O254 O 0.91294 0.128 0.54807 0.0
O255 O 0.70447 0.14698 0.57689 0.0
O256 O 0.81732 0.24638 0.53003 0.0
O257 O 0.87227 0.15407 0.60425 0.0
O258 O 0.7408 0.23276 0.54125 0.0
O259 O 0.76216 0.14158 0.60774 0.0
O260 O 0.87529 0.21828 0.57796 0.0
O261 O 0.74034 0.07803 0.53344 0.0
O262 O 0.85057 0.15534 0.50259 0.0
O263 O 0.87274 0.06797 0.56716 0.0
Sc264 Sc 0.44592 0.91738 0.25847 0.0
Sc265 Sc 0.35707 0.94741 0.21335 0.0
Sc266 Sc 0.39638 0.03424 0.25818 0.0
O267 O 0.40032 0.96686 0.24337 0.0
C268 C 0.40618 0.96701 0.31003 0.0
C269 C 0.34779 0.85948 0.25003 0.0
C270 C 0.28669 0.01908 0.24437 0.0
C271 C 0.44992 0.88146 0.2018 0.0
C272 C 0.50994 0.01335 0.26134 0.0
C273 C 0.38604 0.0485 0.19469 0.0
O274 O 0.42075 0.93025 0.29748 0.0
O275 O 0.32644 0.89247 0.23709 0.0
O276 O 0.31766 0.03177 0.26167 0.0
O277 O 0.47447 0.89978 0.2204 0.0
O278 O 0.4754 0.04295 0.25676 0.0
O279 O 0.38589 1.00354 0.18947 0.0
O280 O 0.50348 0.96825 0.26384 0.0
O281 O 0.4063 0.89357 0.19787 0.0
O282 O 0.38785 0.06512 0.21828 0.0
O283 O 0.3926 0.86075 0.25555 0.0
O284 O 0.39972 0.00809 0.29901 0.0
O285 O 0.29857 0.99443 0.22435 0.0
Sc286 Sc 0.33679 0.18946 1.0202 0.0
Sc287 Sc 0.31827 0.0807 0.97718 0.0
Sc288 Sc 0.2224 0.14087 1.00989 0.0
O289 O 0.294 0.13582 1.00231 0.0
C290 C 0.26862 0.16063 0.06541 0.0
C291 C 0.36775 0.10057 0.02991 0.0
C292 C 0.23429 0.0252 1.00559 0.0
C293 C 0.39205 0.16664 0.96568 0.0
C294 C 0.25256 0.25383 1.00525 0.0
C295 C 0.22115 0.11772 0.94839 0.0
O296 O 0.29369 0.19422 0.05547 0.0
O297 O 0.33215 0.10706 1.01463 0.0
O298 O 0.21079 0.06309 1.01146 0.0
O299 O 0.38551 0.18884 0.98733 0.0
O300 O 0.22231 0.22097 1.0114 0.0
O301 O 0.26127 0.09521 0.9493 0.0
O302 O 0.29609 0.24367 1.00058 0.0
O303 O 0.36811 0.1297 0.95839 0.0
O304 O 0.20348 0.14082 0.96798 0.0
O305 O 0.38065 0.1383 0.04133 0.0
O306 O 0.24002 0.13569 0.05127 0.0
O307 O 0.27473 0.02596 0.99429 0.0
Sc308 Sc 0.10793 0.9764 0.75837 0.0
Sc309 Sc 0.15754 0.06368 0.71723 0.0
Sc310 Sc 0.06619 0.09545 0.75984 0.0
O311 O 0.10982 0.04452 0.74487 0.0
C312 C 0.99716 1.00273 0.76097 0.0
C313 C 0.12435 0.96488 0.69535 0.0
C314 C 0.06547 0.13063 0.70306 0.0
C315 C 0.2204 0.98948 0.7511 0.0
C316 C 0.10264 0.042 0.8108 0.0
C317 C 0.16507 0.15139 0.75374 0.0
O318 O 0.02922 0.9719 0.75449 0.0
O319 O 0.1312 0.00957 0.69127 0.0
O320 O 0.03943 0.11359 0.72129 0.0
O321 O 0.1852 0.97547 0.76501 0.0
O322 O 0.09222 0.08081 0.79875 0.0
O323 O 0.1869 0.11703 0.7425 0.0
O324 O 0.10328 1.00082 0.79935 0.0
O325 O 0.21444 0.01564 0.73079 0.0
O326 O 0.11984 0.15146 0.75734 0.0
O327 O 0.11736 0.9469 0.71828 0.0
O328 O 0.00689 0.0468 0.76519 0.0
O329 O 0.10936 0.11799 0.7004 0.0
Sc330 Sc 0.28202 0.86456 0.50726 0.0
Sc331 Sc 0.19936 0.89946 0.45885 0.0
Sc332 Sc 0.16425 0.81997 0.50775 0.0
O333 O 0.21544 0.86098 0.49136 0.0
C334 C 0.25813 0.75254 0.51378 0.0
C335 C 0.3011 0.86811 0.44418 0.0
C336 C 0.13472 0.80461 0.44967 0.0
C337 C 0.26618 0.97363 0.49146 0.0
C338 C 0.21357 0.86196 0.55846 0.0
C339 C 0.10918 0.91777 0.49242 0.0
O340 O 0.2888 0.78487 0.50716 0.0
O341 O 0.2568 0.86636 0.43795 0.0
O342 O 0.14838 0.78521 0.47102 0.0
O343 O 0.27839 0.94359 0.50935 0.0
O344 O 0.17589 0.85069 0.54569 0.0
O345 O 0.14275 0.93466 0.47849 0.0
O346 O 0.25512 0.86373 0.5478 0.0
O347 O 0.24527 0.95981 0.4703 0.0
O348 O 0.10934 0.87492 0.50158 0.0
O349 O 0.31582 0.87043 0.46812 0.0
O350 O 0.21355 0.76181 0.51655 0.0
O351 O 0.14705 0.84732 0.44342 0.0
H352 H 0.27813 0.47454 0.26273 0.0
H353 H 0.29692 0.52095 0.34333 0.0
H354 H 0.3836 0.51968 0.33829 0.0
H355 H 0.45408 0.51419 0.31014 0.0
H356 H 0.4389 0.4681 0.22969 0.0
H357 H 0.35135 0.45976 0.23552 0.0
C358 C 0.30124 0.48351 0.27929 0.0
C359 C 0.2806 0.4986 0.30327 0.0
C360 C 0.35187 0.48301 0.27626 0.0
C361 C 0.31137 0.51 0.3245 0.0
C362 C 0.36118 0.50925 0.3217 0.0
C363 C 0.43163 0.50122 0.29407 0.0
C364 C 0.45264 0.49153 0.26961 0.0
C365 C 0.38175 0.49713 0.29754 0.0
C366 C 0.42342 0.47515 0.24881 0.0
C367 C 0.37337 0.47085 0.25212 0.0
H368 H 0.23509 0.70117 0.5566 0.0
H369 H 0.31232 0.68901 0.48385 0.0
H370 H 0.32199 0.60159 0.49108 0.0
H371 H 0.30185 0.52678 0.51696 0.0
H372 H 0.22635 0.54408 0.59049 0.0
H373 H 0.22305 0.63027 0.58405 0.0
C374 C 0.25487 0.67956 0.54252 0.0
C375 C 0.27302 0.70178 0.51976 0.0
C376 C 0.26016 0.62963 0.54683 0.0
C377 C 0.29848 0.67311 0.50172 0.0
C378 C 0.30357 0.62293 0.50577 0.0
C379 C 0.28527 0.54942 0.53173 0.0
C380 C 0.26384 0.5278 0.55408 0.0
C381 C 0.28362 0.6004 0.52807 0.0
C382 C 0.24277 0.55855 0.57293 0.0
C383 C 0.24078 0.60837 0.56933 0.0
H384 H 0.21108 0.54771 0.81944 0.0
H385 H 0.26206 0.46554 0.75323 0.0
H386 H 0.1806 0.46202 0.73491 0.0
H387 H 0.09397 0.47668 0.73955 0.0
H388 H 0.04254 0.56309 0.80403 0.0
H389 H 0.1249 0.57198 0.82076 0.0
C390 C 0.20412 0.52943 0.80094 0.0
C391 C 0.24209 0.50636 0.78781 0.0
C392 C 0.15726 0.52874 0.79009 0.0
C393 C 0.23314 0.48337 0.76365 0.0
C394 C 0.18665 0.48137 0.75317 0.0
C395 C 0.10099 0.49847 0.75689 0.0
C396 C 0.06226 0.51911 0.77054 0.0
C397 C 0.14833 0.5033 0.7664 0.0
C398 C 0.0718 0.54731 0.79297 0.0
C399 C 0.11885 0.55184 0.80276 0.0
H400 H 0.30938 0.32988 0.99321 0.0
H401 H 0.16937 0.29626 1.02438 0.0
H402 H 0.15808 0.3813 0.03639 0.0
H403 H 0.19255 0.46414 0.04246 0.0
H404 H 0.33591 0.49234 1.01445 0.0
H405 H 0.34139 0.41072 0.997 0.0
C406 C 0.27595 0.34089 1.00233 0.0
C407 C 0.24045 0.30619 1.008 0.0
C408 C 0.27062 0.38917 1.01011 0.0
C409 C 0.19738 0.32189 1.01968 0.0
C410 C 0.19109 0.37057 0.02677 0.0
C411 C 0.22453 0.45238 0.03217 0.0
C412 C 0.26386 0.48416 0.02974 0.0
C413 C 0.22809 0.40438 1.02278 0.0
C414 C 0.30535 0.46846 1.01664 0.0
C415 C 0.30849 0.42179 1.00664 0.0
H416 H 0.58784 0.4611 0.81428 0.0
H417 H 0.54869 0.59164 0.77357 0.0
H418 H 0.63355 0.60504 0.76214 0.0
H419 H 0.71718 0.57186 0.75814 0.0
H420 H 0.75164 0.43767 0.79678 0.0
H421 H 0.67067 0.43335 0.81467 0.0
C422 C 0.59805 0.49315 0.80343 0.0
C423 C 0.56218 0.52516 0.79461 0.0
C424 C 0.64614 0.49941 0.7962 0.0
C425 C 0.57578 0.56667 0.78073 0.0
C426 C 0.62421 0.57393 0.77392 0.0
C427 C 0.70695 0.5424 0.77093 0.0
C428 C 0.73998 0.50494 0.7761 0.0
C429 C 0.65949 0.53945 0.78066 0.0
C430 C 0.72655 0.46665 0.79249 0.0
C431 C 0.68032 0.46416 0.80271 0.0
H432 H 0.72798 0.33582 0.55761 0.0
H433 H 0.79648 0.29341 0.48534 0.0
H434 H 0.79207 0.37585 0.46907 0.0
H435 H 0.77679 0.46096 0.477 0.0
H436 H 0.71097 0.50611 0.54962 0.0
H437 H 0.70581 0.42213 0.56392 0.0
C438 C 0.74086 0.34471 0.53812 0.0
C439 C 0.76268 0.30884 0.5227 0.0
C440 C 0.73928 0.39282 0.52904 0.0
C441 C 0.77978 0.32066 0.49758 0.0
C442 C 0.77741 0.36778 0.48827 0.0
C443 C 0.76083 0.45256 0.49586 0.0
C444 C 0.74484 0.49001 0.51226 0.0
C445 C 0.75856 0.40437 0.50412 0.0
C446 C 0.72375 0.47812 0.53653 0.0
C447 C 0.72093 0.43002 0.54481 0.0
H448 H 0.80616 0.46848 0.23246 0.0
H449 H 0.75737 0.49475 0.31149 0.0
H450 H 0.84051 0.49282 0.32766 0.0
H451 H 0.92792 0.49445 0.31817 0.0
H452 H 0.9763 0.46417 0.23961 0.0
H453 H 0.8929 0.45585 0.22447 0.0
C454 C 0.81376 0.47281 0.25329 0.0
C455 C 0.77573 0.48223 0.27071 0.0
C456 C 0.86169 0.47088 0.26253 0.0
C457 C 0.786 0.48734 0.29769 0.0
C458 C 0.83359 0.48649 0.30694 0.0
C459 C 0.92006 0.48409 0.29801 0.0
C460 C 0.95806 0.47913 0.28008 0.0
C461 C 0.87186 0.47961 0.28944 0.0
C462 C 0.94758 0.46703 0.25384 0.0
C463 C 0.89987 0.46294 0.24512 0.0
H464 H 0.79588 0.53403 0.03375 0.0
H465 H 0.69907 0.53872 0.96686 0.0
H466 H 0.68672 0.62434 0.97338 0.0
H467 H 0.69992 0.69773 0.99862 0.0
H468 H 0.79919 0.69801 0.06406 0.0
H469 H 0.81437 0.6113 0.05745 0.0
C470 C 0.77245 0.55392 1.0205 0.0
C471 C 0.74851 0.52939 0.9998 0.0
C472 C 0.76577 0.60423 1.02411 0.0
C473 C 0.71839 0.55613 0.98282 0.0
C474 C 0.711 0.60535 0.98657 0.0
C475 C 0.72507 0.67891 1.01143 0.0
C476 C 0.74796 0.7042 0.03199 0.0
C477 C 0.73402 0.62964 1.00724 0.0
C478 C 0.78109 0.67942 0.04808 0.0
C479 C 0.78957 0.62977 0.04435 0.0
H480 H 0.77249 0.96295 0.7614 0.0
H481 H 0.79042 0.02732 0.83836 0.0
H482 H 0.87676 0.02946 0.83254 0.0
H483 H 0.94718 0.02008 0.80468 0.0
H484 H 0.93345 0.95444 0.72827 0.0
H485 H 0.84616 0.94514 0.7349 0.0
C486 C 0.79531 0.97684 0.77703 0.0
C487 C 0.77418 0.99549 0.8002 0.0
C488 C 0.84596 0.9779 0.77366 0.0
C489 C 0.80487 0.01306 0.82021 0.0
C490 C 0.85461 0.01438 0.81694 0.0
C491 C 0.92518 1.00291 0.78965 0.0
C492 C 0.94666 0.98799 0.76604 0.0
C493 C 0.87544 0.99791 0.79362 0.0
C494 C 0.91782 0.96577 0.74673 0.0
C495 C 0.86784 0.9609 0.75047 0.0
H496 H 0.77826 0.05753 0.07282 0.0
H497 H 0.75572 0.00921 0.99306 0.0
H498 H 0.76298 0.09209 0.97718 0.0
H499 H 0.76542 0.17976 0.98673 0.0
H500 H 0.79089 0.22762 0.06617 0.0
H501 H 0.79397 0.14392 0.08134 0.0
C502 C 0.77572 0.06511 0.05193 0.0
C503 C 0.76588 0.02722 0.03421 0.0
C504 C 0.78071 0.11293 0.04285 0.0
C505 C 0.76327 0.03759 1.00715 0.0
C506 C 0.76725 0.08509 0.99804 0.0
C507 C 0.77374 0.17165 1.00714 0.0
C508 C 0.779 0.20974 1.02524 0.0
C509 C 0.77481 0.12325 1.01576 0.0
C510 C 0.78807 0.19887 0.05179 0.0
C511 C 0.78907 0.15098 0.06053 0.0
H512 H 0.56136 0.00587 0.30593 0.0
H513 H 0.57195 0.05537 0.22603 0.0
H514 H 0.65962 0.06485 0.23142 0.0
H515 H 0.73475 0.05053 0.25805 0.0
H516 H 0.72021 1.00157 0.33831 0.0
H517 H 0.63347 1.00087 0.3336 0.0
C518 C 0.58273 0.02002 0.28991 0.0
C519 C 0.56011 0.03047 0.26574 0.0
C520 C 0.63289 0.02478 0.29312 0.0
C521 C 0.58833 0.04799 0.245 0.0
C522 C 0.6386 0.05284 0.24803 0.0
C523 C 0.71259 0.04048 0.27462 0.0
C524 C 0.73482 0.02539 0.29842 0.0
C525 C 0.66161 0.04013 0.27187 0.0
C526 C 0.70492 0.01267 0.31961 0.0
C527 C 0.65491 0.01229 0.317 0.0
H528 H 0.75886 0.84381 0.49072 0.0
H529 H 0.71663 0.79176 0.56684 0.0
H530 H 0.7089 0.87475 0.58294 0.0
H531 H 0.72334 0.96224 0.57651 0.0
H532 H 0.76146 0.01343 0.49929 0.0
H533 H 0.76131 0.93122 0.48247 0.0
C534 C 0.74633 0.85088 0.51052 0.0
C535 C 0.73761 0.81211 0.5275 0.0
C536 C 0.74209 0.89861 0.51959 0.0
C537 C 0.72249 0.82133 0.55332 0.0
C538 C 0.71869 0.86872 0.56261 0.0
C539 C 0.73093 0.95529 0.55595 0.0
C540 C 0.74277 0.99388 0.53927 0.0
C541 C 0.72986 0.90769 0.54615 0.0
C542 C 0.75207 0.98444 0.51257 0.0
C543 C 0.75218 0.93736 0.5029 0.0
H544 H 0.06026 0.02753 0.23608 0.0
H545 H 0.07247 0.05479 0.31914 0.0
H546 H 0.16051 0.06011 0.31536 0.0
H547 H 0.23496 0.04613 0.28885 0.0
H548 H 0.21936 0.01869 0.20555 0.0
H549 H 0.13263 0.02479 0.20899 0.0
C550 C 0.08214 0.03641 0.25318 0.0
C551 C 0.05982 0.04168 0.27774 0.0
C552 C 0.13259 0.03838 0.25089 0.0
C553 C 0.08867 0.05184 0.29989 0.0
C554 C 0.13914 0.05416 0.29775 0.0
C555 C 0.21263 0.04243 0.2714 0.0
C556 C 0.23425 0.03099 0.24705 0.0
C557 C 0.16176 0.04589 0.27344 0.0
C558 C 0.20428 0.02652 0.22468 0.0
C559 C 0.15434 0.03013 0.22655 0.0
H560 H 0.23753 0.98082 0.05269 0.0
H561 H 0.19217 0.96199 0.97223 0.0
H562 H 0.1813 0.8754 0.97955 0.0
H563 H 0.20001 0.80378 1.00648 0.0
H564 H 0.2541 0.82248 0.08541 0.0
H565 H 0.24507 0.90991 0.08157 0.0
C566 C 0.22348 0.95785 0.03715 0.0
C567 C 0.21498 0.97739 1.0121 0.0
C568 C 0.21941 0.90785 0.04126 0.0
C569 C 0.19818 0.94747 0.99177 0.0
C570 C 0.19239 0.89798 0.99591 0.0
C571 C 0.20777 0.82702 1.02315 0.0
C572 C 0.22722 0.80695 0.04627 0.0
C573 C 0.20492 0.87745 1.02025 0.0
C574 C 0.2386 0.83732 0.06754 0.0
C575 C 0.23392 0.8873 0.06524 0.0
H576 H 0.42332 0.97996 0.80824 0.0
H577 H 0.47152 0.98481 0.72799 0.0
H578 H 0.38839 0.97856 0.71219 0.0
H579 H 0.30145 0.98184 0.72126 0.0
H580 H 0.25251 0.97527 0.80148 0.0
H581 H 0.33587 0.97148 0.81718 0.0
C582 C 0.41557 0.97782 0.78733 0.0
C583 C 0.45351 0.98191 0.76926 0.0
C584 C 0.36735 0.9748 0.77837 0.0
C585 C 0.44297 0.98061 0.74221 0.0
C586 C 0.39537 0.97762 0.73319 0.0
C587 C 0.309 0.97878 0.74216 0.0
C588 C 0.27062 0.97928 0.76014 0.0
C589 C 0.35715 0.97627 0.75107 0.0
C590 C 0.28118 0.97484 0.78715 0.0
C591 C 0.32897 0.97292 0.79618 0.0
H592 H 0.25656 0.20201 0.4902 0.0
H593 H 0.3093 0.18598 0.56946 0.0
H594 H 0.31701 0.09832 0.56281 0.0
H595 H 0.3002 0.02472 0.53535 0.0
H596 H 0.24805 0.04463 0.45577 0.0
H597 H 0.24901 0.13128 0.46165 0.0
C598 C 0.27115 0.1795 0.50579 0.0
C599 C 0.28304 0.20079 0.53016 0.0
C600 C 0.27479 0.12924 0.50188 0.0
C601 C 0.30095 0.17088 0.55032 0.0
C602 C 0.30471 0.12054 0.54657 0.0
C603 C 0.28974 0.04798 0.51917 0.0
C604 C 0.27346 0.02716 0.49518 0.0
C605 C 0.29047 0.09898 0.52259 0.0
C606 C 0.26027 0.05863 0.47455 0.0
C607 C 0.2608 0.10865 0.47785 0.0
H608 H 0.25483 0.67544 0.3001 0.0
H609 H 0.12571 0.74163 0.26878 0.0
H610 H 0.17337 0.80808 0.25134 0.0
H611 H 0.25132 0.84696 0.24519 0.0
H612 H 0.38018 0.77999 0.27646 0.0
H613 H 0.33246 0.71377 0.29371 0.0
C614 C 0.23692 0.70449 0.2896 0.0
C615 C 0.1868 0.70371 0.28583 0.0
C616 C 0.26439 0.74218 0.27953 0.0
C617 C 0.1643 0.7414 0.27194 0.0
C618 C 0.19148 0.77935 0.26196 0.0
C619 C 0.26909 0.81783 0.25568 0.0
C620 C 0.31924 0.81847 0.25954 0.0
C621 C 0.24153 0.77998 0.26561 0.0
C622 C 0.34162 0.78044 0.27322 0.0
C623 C 0.3144 0.74259 0.28313 0.0
H624 H 0.09119 0.50044 0.5611 0.0
H625 H 0.02607 0.37718 0.52289 0.0
H626 H 0.96132 0.42843 0.50611 0.0
H627 H 0.92443 0.50777 0.50182 0.0
H628 H 0.98973 0.63113 0.53985 0.0
H629 H 0.05392 0.57969 0.55712 0.0
C630 C 0.06269 0.48454 0.54927 0.0
C631 C 0.06343 0.43502 0.54327 0.0
C632 C 0.02604 0.51414 0.5395 0.0
C633 C 0.02636 0.4152 0.52778 0.0
C634 C 0.98943 0.44446 0.51813 0.0
C635 C 0.95279 0.52364 0.51377 0.0
C636 C 0.9524 0.57329 0.51944 0.0
C637 C 0.98922 0.49397 0.52372 0.0
C638 C 0.98924 0.59303 0.53514 0.0
C639 C 0.02585 0.56367 0.54506 0.0
H640 H 0.25583 0.34242 0.79685 0.0
H641 H 0.38707 0.26658 0.77774 0.0
H642 H 0.34004 0.19798 0.76188 0.0
H643 H 0.26209 0.15988 0.75407 0.0
H644 H 0.13128 0.23629 0.77353 0.0
H645 H 0.1784 0.30487 0.78886 0.0
C646 C 0.27435 0.31087 0.78933 0.0
C647 C 0.32483 0.30942 0.78858 0.0
C648 C 0.24733 0.27189 0.78036 0.0
C649 C 0.34817 0.2685 0.77851 0.0
C650 C 0.32137 0.22932 0.76948 0.0
C651 C 0.2438 0.19156 0.76159 0.0
C652 C 0.19331 0.193 0.76271 0.0
C653 C 0.27097 0.2307 0.77039 0.0
C654 C 0.17016 0.23423 0.77257 0.0
C655 C 0.197 0.27344 0.7813 0.0
H656 H 0.58898 0.50845 0.98741 0.0
H657 H 0.52107 0.3856 1.0241 0.0
H658 H 0.45458 0.43651 0.03803 0.0
H659 H 0.41882 0.51557 0.04212 0.0
H660 H 0.48565 0.63956 1.00648 0.0
H661 H 0.55002 0.58777 0.98933 0.0
C662 C 0.55948 0.49265 0.99827 0.0
C663 C 0.5602 0.44342 1.005 0.0
C664 C 0.52166 0.52213 1.00645 0.0
C665 C 0.5216 0.42348 1.01893 0.0
C666 C 0.48361 0.45249 0.02689 0.0
C667 C 0.44761 0.53143 0.0307 0.0
C668 C 0.44849 0.58126 1.02602 0.0
C669 C 0.48392 0.50185 1.0212 0.0
C670 C 0.48485 0.60122 1.01048 0.0
C671 C 0.52147 0.57172 1.00078 0.0
H672 H 0.76025 0.34052 0.76073 0.0
H673 H 0.88049 0.27593 0.80192 0.0
H674 H 0.82769 0.21178 0.81807 0.0
H675 H 0.74896 0.17209 0.81775 0.0
H676 H 0.62971 0.23713 0.77557 0.0
H677 H 0.68117 0.30384 0.76252 0.0
C678 C 0.7751 0.31229 0.77316 0.0
C679 C 0.82431 0.31213 0.7797 0.0
C680 C 0.74487 0.27592 0.78212 0.0
C681 C 0.84273 0.27635 0.79647 0.0
C682 C 0.81263 0.23979 0.80562 0.0
C683 C 0.734 0.20098 0.80586 0.0
C684 C 0.68565 0.19932 0.79738 0.0
C685 C 0.76385 0.23889 0.79817 0.0
C686 C 0.66686 0.23729 0.78218 0.0
C687 C 0.69623 0.2754 0.77468 0.0
H688 H 0.76232 0.84658 0.30393 0.0
H689 H 0.89094 0.78022 0.27296 0.0
H690 H 0.84468 0.70912 0.26034 0.0
H691 H 0.76798 0.66723 0.25726 0.0
H692 H 0.63918 0.73422 0.28766 0.0
H693 H 0.68594 0.80414 0.30155 0.0
C694 C 0.78041 0.81654 0.29454 0.0
C695 C 0.82992 0.81868 0.28932 0.0
C696 C 0.75373 0.77613 0.28723 0.0
C697 C 0.85275 0.77951 0.27706 0.0
C698 C 0.8264 0.73887 0.26988 0.0
C699 C 0.75001 0.69701 0.26699 0.0
C700 C 0.70017 0.69565 0.27132 0.0
C701 C 0.77688 0.73704 0.27473 0.0
C702 C 0.67753 0.73449 0.28399 0.0
C703 C 0.70417 0.77444 0.29195 0.0
H704 H 0.51889 0.93462 1.01178 0.0
H705 H 0.55922 0.98088 0.08993 0.0
H706 H 0.48955 0.03393 0.09175 0.0
H707 H 0.42308 0.07346 0.0697 0.0
H708 H 0.38337 0.03296 0.99063 0.0
H709 H 0.44614 0.97086 0.99059 0.0
C710 C 0.51177 0.956 0.0292 0.0
C711 C 0.54418 0.95484 0.0505 0.0
C712 C 0.47209 0.98752 0.02987 0.0
C713 C 0.53499 0.98223 0.07313 0.0
C714 C 0.4952 0.01237 0.07424 0.0
C715 C 0.42788 0.05068 0.05253 0.0
C716 C 0.3993 0.05808 0.03012 0.0
C717 C 0.46449 0.01634 0.05247 0.0
C718 C 0.405 0.02795 1.00815 0.0
C719 C 0.44115 0.99266 1.00806 0.0
H720 H 0.05024 0.91171 0.53448 0.0
H721 H 0.08203 0.999 0.46646 0.0
H722 H 0.02455 0.05972 0.48084 0.0
H723 H 0.96674 0.0888 0.51308 0.0
H724 H 0.93359 1.00147 0.58076 0.0
H725 H 0.99086 0.94014 0.56635 0.0
C726 C 0.04403 0.94369 0.52264 0.0
C727 C 0.07025 0.95097 0.49953 0.0
C728 C 0.01146 0.97877 0.53116 0.0
C729 C 0.06232 0.99277 0.48445 0.0
C730 C 0.02967 0.02759 0.49267 0.0
C731 C 0.9726 0.05663 0.52482 0.0
C732 C 0.9466 0.04967 0.54798 0.0
C733 C 1.00461 0.02126 0.51617 0.0
C734 C 0.95355 0.00747 0.56283 0.0
C735 C 0.98602 0.97238 0.55457 0.0
H736 H 0.20528 0.48108 0.38582 0.0
H737 H 0.0753 0.39846 0.37584 0.0
H738 H 0.09451 0.35254 0.41604 0.0
H739 H 0.14582 0.34067 0.45552 0.0
H740 H 0.277 0.42281 0.46407 0.0
H741 H 0.26025 0.46363 0.42251 0.0
C742 C 0.18128 0.4528 0.39244 0.0
C743 C 0.13854 0.44352 0.37834 0.0
C744 C 0.19294 0.42652 0.41516 0.0
C745 C 0.10816 0.40628 0.38659 0.0
C746 C 0.11919 0.38022 0.40953 0.0
C747 C 0.17111 0.36706 0.44815 0.0
C748 C 0.2125 0.3789 0.46313 0.0
C749 C 0.16112 0.39064 0.42421 0.0
C750 C 0.24503 0.41282 0.45305 0.0
C751 C 0.23528 0.43649 0.42935 0.0
H752 H 0.42811 0.38403 0.70909 0.0
H753 H 0.36586 0.52683 0.71026 0.0
H754 H 0.32769 0.51168 0.66763 0.0
H755 H 0.30492 0.45505 0.63234 0.0
H756 H 0.36645 0.31249 0.63067 0.0
H757 H 0.41213 0.33026 0.6712 0.0
C758 C 0.40686 0.41225 0.69987 0.0
C759 C 0.39974 0.45656 0.71316 0.0
C760 C 0.38447 0.40305 0.67539 0.0
C761 C 0.37227 0.49257 0.70064 0.0
C762 C 0.35005 0.48377 0.6763 0.0
C763 C 0.329 0.42817 0.6407 0.0
C764 C 0.33237 0.38248 0.62872 0.0
C765 C 0.35485 0.43875 0.66388 0.0
C766 C 0.36354 0.34789 0.63954 0.0
C767 C 0.38939 0.35808 0.66274 0.0
H768 H 0.39164 0.62901 0.8776 0.0
H769 H 0.30292 0.50186 0.88232 0.0
H770 H 0.26283 0.53363 0.92091 0.0
H771 H 0.2585 0.59276 0.95631 0.0
H772 H 0.34795 0.71959 0.95352 0.0
H773 H 0.38104 0.69339 0.91149 0.0
C774 C 0.36307 0.60881 0.8869 0.0
C775 C 0.35099 0.56275 0.87731 0.0
C776 C 0.34017 0.62711 0.90969 0.0
C777 C 0.31366 0.53702 0.88958 0.0
C778 C 0.29048 0.55518 0.91167 0.0
C779 C 0.28436 0.61536 0.94628 0.0
C780 C 0.3007 0.65796 0.95836 0.0
C781 C 0.30424 0.59954 0.92236 0.0
C782 C 0.33462 0.68644 0.94489 0.0
C783 C 0.35391 0.67135 0.92082 0.0
H784 H 0.21793 0.53958 0.12955 0.0
H785 H 0.14845 0.67768 0.12058 0.0
H786 H 0.10532 0.6649 0.16211 0.0
H787 H 0.09369 0.61719 0.2028 0.0
H788 H 0.16384 0.47863 0.21049 0.0
H789 H 0.20003 0.48877 0.16741 0.0
C790 C 0.19299 0.56677 0.13657 0.0
C791 C 0.18684 0.60984 0.12228 0.0
C792 C 0.16865 0.55912 0.16025 0.0
C793 C 0.15378 0.64431 0.13128 0.0
C794 C 0.12941 0.63705 0.15507 0.0
C795 C 0.1164 0.58888 0.19495 0.0
C796 C 0.12634 0.54735 0.21019 0.0
C797 C 0.13746 0.59501 0.17003 0.0
C798 C 0.15553 0.51098 0.19943 0.0
C799 C 0.17648 0.51682 0.17477 0.0
H800 H 0.87462 0.66847 0.60287 0.0
H801 H 0.73143 0.60832 0.59791 0.0
H802 H 0.74263 0.57058 0.64075 0.0
H803 H 0.795 0.5485 0.67762 0.0
H804 H 0.93782 0.60797 0.68384 0.0
H805 H 0.92468 0.6526 0.64256 0.0
C806 C 0.84555 0.64764 0.61127 0.0
C807 C 0.80228 0.64101 0.59685 0.0
C808 C 0.85232 0.62562 0.63604 0.0
C809 C 0.76506 0.61415 0.60833 0.0
C810 C 0.77152 0.59228 0.63285 0.0
C811 C 0.82323 0.57155 0.67006 0.0
C812 C 0.86764 0.5744 0.68353 0.0
C813 C 0.81532 0.59681 0.64652 0.0
C814 C 0.90343 0.60512 0.67381 0.0
C815 C 0.89592 0.63037 0.65015 0.0
H816 H 0.5909 0.62635 0.34992 0.0
H817 H 0.6522 0.48308 0.34954 0.0
H818 H 0.68991 0.4985 0.39221 0.0
H819 H 0.71271 0.5553 0.42724 0.0
H820 H 0.65216 0.69831 0.42841 0.0
H821 H 0.60669 0.68043 0.38779 0.0
C822 C 0.61185 0.59811 0.35932 0.0
C823 C 0.61889 0.55358 0.34622 0.0
C824 C 0.63398 0.60744 0.38386 0.0
C825 C 0.64592 0.51752 0.35898 0.0
C826 C 0.66786 0.52647 0.38336 0.0
C827 C 0.68896 0.58232 0.41875 0.0
C828 C 0.68591 0.62818 0.43057 0.0
C829 C 0.66323 0.57167 0.39557 0.0
C830 C 0.65491 0.66281 0.41964 0.0
C831 C 0.62919 0.65257 0.39639 0.0
H832 H 0.63488 0.3496 0.09737 0.0
H833 H 0.77737 0.41156 0.09479 0.0
H834 H 0.76643 0.44491 0.13871 0.0
H835 H 0.71408 0.46307 0.17598 0.0
H836 H 0.57189 0.40204 0.17959 0.0
H837 H 0.58514 0.3611 0.13722 0.0
C838 C 0.6638 0.36997 0.10649 0.0
C839 C 0.70681 0.37842 0.09249 0.0
C840 C 0.65722 0.38928 0.13189 0.0
C841 C 0.74393 0.40447 0.10489 0.0
C842 C 0.73765 0.42375 0.13004 0.0
C843 C 0.68628 0.4401 0.16765 0.0
C844 C 0.642 0.43559 0.18069 0.0
C845 C 0.69414 0.41729 0.14341 0.0
C846 C 0.60629 0.40571 0.16992 0.0
C847 C 0.61383 0.38272 0.14564 0.0
H848 H 0.83523 0.48834 0.84532 0.0
H849 H 0.97532 0.42425 0.85648 0.0
H850 H 0.95043 0.39181 0.89904 0.0
H851 H 0.88524 0.3743 0.93116 0.0
H852 H 0.74427 0.43484 0.91698 0.0
H853 H 0.77299 0.47568 0.87796 0.0
C854 C 0.8608 0.46839 0.85734 0.0
C855 C 0.90707 0.45896 0.84771 0.0
C856 C 0.84569 0.44821 0.88124 0.0
C857 C 0.93939 0.43216 0.86343 0.0
C858 C 0.92509 0.41327 0.88773 0.0
C859 C 0.86117 0.39678 0.91959 0.0
C860 C 0.81253 0.40074 0.92675 0.0
C861 C 0.87775 0.41977 0.89652 0.0
C862 C 0.78168 0.43026 0.91162 0.0
C863 C 0.79808 0.45397 0.88932 0.0
H864 H 0.69734 0.92962 0.86901 0.0
H865 H 0.54403 0.91504 0.8774 0.0
H866 H 0.55569 0.8772 0.92062 0.0
H867 H 0.60893 0.85837 0.95799 0.0
H868 H 0.76241 0.87845 0.95076 0.0
H869 H 0.75137 0.90378 0.90508 0.0
C870 C 0.66668 0.91644 0.87997 0.0
C871 C 0.61993 0.92381 0.8699 0.0
C872 C 0.67373 0.89676 0.90522 0.0
C873 C 0.58028 0.90844 0.88454 0.0
C874 C 0.58702 0.88747 0.90936 0.0
C875 C 0.64019 0.86769 0.94642 0.0
C876 C 0.68651 0.8669 0.9581 0.0
C877 C 0.6335 0.88301 0.92026 0.0
C878 C 0.72636 0.87887 0.94252 0.0
C879 C 0.72006 0.89344 0.91634 0.0
H880 H 0.78831 0.96765 0.12632 0.0
H881 H 0.85429 0.82731 0.12185 0.0
H882 H 0.9005 0.84447 0.16233 0.0
H883 H 0.91558 0.89689 0.20108 0.0
H884 H 0.84848 0.03743 0.20458 0.0
H885 H 0.80967 0.02287 0.16218 0.0
C886 C 0.81343 0.94108 0.13403 0.0
C887 C 0.81783 0.89617 0.12132 0.0
C888 C 0.83934 0.9512 0.15719 0.0
C889 C 0.85056 0.86214 0.13127 0.0
C890 C 0.87662 0.87192 0.15449 0.0
C891 C 0.89297 0.92467 0.19246 0.0
C892 C 0.88473 0.96816 0.20635 0.0
C893 C 0.87037 0.91594 0.16796 0.0
C894 C 0.85559 1.0037 0.19457 0.0
C895 C 0.83314 0.99531 0.1703 0.0
H896 H 0.89613 0.15071 0.46095 0.0
H897 H 0.74275 0.13069 0.45196 0.0
H898 H 0.75438 0.10552 0.40629 0.0
H899 H 0.80897 0.08101 0.37053 0.0
H900 H 0.96211 0.09681 0.38057 0.0
H901 H 0.94982 0.13267 0.42418 0.0
C902 C 0.86502 0.14127 0.44902 0.0
C903 C 0.81854 0.14214 0.46012 0.0
C904 C 0.87205 0.12633 0.42291 0.0
C905 C 0.77887 0.13021 0.4441 0.0
C906 C 0.78553 0.11574 0.41796 0.0
C907 C 0.83944 0.09387 0.38201 0.0
C908 C 0.88633 0.0875 0.3723 0.0
C909 C 0.83201 0.11273 0.40735 0.0
C910 C 0.92577 0.10259 0.3875 0.0
C911 C 0.91868 0.12248 0.4125 0.0
H912 H 0.70154 0.05927 0.62201 0.0
H913 H 0.66134 0.20876 0.62833 0.0
H914 H 0.62028 0.19198 0.67005 0.0
H915 H 0.60408 0.13627 0.70678 0.0
H916 H 0.64835 0.98723 0.70085 0.0
H917 H 0.67945 1.00228 0.65686 0.0
C918 C 0.6825 0.08784 0.63222 0.0
C919 C 0.68357 0.135 0.62204 0.0
C920 C 0.66056 0.07809 0.65645 0.0
C921 C 0.65997 0.17207 0.63558 0.0
C922 C 0.63709 0.16248 0.65955 0.0
C923 C 0.62006 0.10683 0.69583 0.0
C924 C 0.62418 0.06063 0.70743 0.0
C925 C 0.63842 0.11587 0.67054 0.0
C926 C 0.64482 0.02312 0.69267 0.0
C927 C 0.66267 0.03171 0.66745 0.0
H928 H 0.34548 0.18467 0.09715 0.0
H929 H 0.21663 0.09771 0.09493 0.0
H930 H 0.24142 0.05755 0.13539 0.0
H931 H 0.30274 0.04134 0.16895 0.0
H932 H 0.4317 0.12701 0.17248 0.0
H933 H 0.40393 0.17361 0.13394 0.0
C934 C 0.32222 0.15777 0.10583 0.0
C935 C 0.27914 0.14425 0.09279 0.0
C936 C 0.33716 0.13402 0.12907 0.0
C937 C 0.24986 0.10893 0.10435 0.0
C938 C 0.26417 0.08565 0.12746 0.0
C939 C 0.32463 0.0705 0.16134 0.0
C940 C 0.36946 0.08044 0.17315 0.0
C941 C 0.30828 0.09693 0.13952 0.0
C942 C 0.39721 0.11866 0.16354 0.0
C943 C 0.38128 0.14514 0.14153 0.0
H944 H 0.21616 0.0378 0.91851 0.0
H945 H 0.15966 0.18229 0.92408 0.0
H946 H 0.11477 0.17026 0.88273 0.0
H947 H 0.09558 0.11974 0.84389 0.0
H948 H 0.15108 0.97431 0.83983 0.0
H949 H 0.19172 0.98547 0.88205 0.0
C950 C 0.19413 0.06682 0.91065 0.0
C951 C 0.19204 0.11131 0.92403 0.0
C952 C 0.16799 0.05927 0.88728 0.0
C953 C 0.16222 0.14795 0.91402 0.0
C954 C 0.1366 0.141 0.89041 0.0
C955 C 0.11602 0.09019 0.85237 0.0
C956 C 0.12032 0.04621 0.83846 0.0
C957 C 0.13967 0.09694 0.87671 0.0
C958 C 0.1468 0.00839 0.84997 0.0
C959 C 0.17045 0.01488 0.87407 0.0
H960 H 0.20766 0.96123 0.66994 0.0
H961 H 0.06575 0.89903 0.6702 0.0
H962 H 0.08275 0.85807 0.62826 0.0
H963 H 0.13557 0.84691 0.58982 0.0
H964 H 0.27753 0.91027 0.59012 0.0
H965 H 0.26315 0.94348 0.63387 0.0
C966 C 0.18076 0.938 0.66096 0.0
C967 C 0.13547 0.93312 0.6729 0.0
C968 C 0.19076 0.91522 0.63698 0.0
C969 C 0.10087 0.90296 0.66135 0.0
C970 C 0.11056 0.87994 0.63734 0.0
C971 C 0.16365 0.86756 0.59953 0.0
C972 C 0.2075 0.87651 0.58644 0.0
C973 C 0.15499 0.88684 0.62468 0.0
C974 C 0.24353 0.90283 0.59957 0.0
C975 C 0.23523 0.92203 0.62458 0.0
H976 H 0.42134 0.8871 0.3405 0.0
H977 H 0.35854 0.02966 0.34274 0.0
H978 H 0.32521 0.01255 0.38608 0.0
H979 H 0.30656 0.95425 0.42108 0.0
H980 H 0.36656 0.81111 0.41842 0.0
H981 H 0.40877 0.8313 0.37751 0.0
C982 C 0.4009 0.91481 0.35054 0.0
C983 C 0.39219 0.95963 0.33806 0.0
C984 C 0.38118 0.90443 0.37534 0.0
C985 C 0.36588 0.99495 0.35166 0.0
C986 C 0.34658 0.98508 0.37645 0.0
C987 C 0.32981 0.92789 0.41177 0.0
C988 C 0.33395 0.8814 0.42269 0.0
C989 C 0.35299 0.93959 0.38814 0.0
C990 C 0.36348 0.84722 0.41047 0.0
C991 C 0.3872 0.85874 0.38702 0.0
H992 H 0.09743 0.71856 0.35928 0.0
H993 H 0.95977 0.64726 0.35715 0.0
H994 H 0.91904 0.72447 0.36419 0.0
H995 H 0.92228 0.81234 0.35932 0.0
H996 H 0.05969 0.88328 0.35348 0.0
H997 H 0.10095 0.80673 0.36187 0.0
C998 C 0.05862 0.71971 0.36141 0.0
C999 C 0.03154 0.67739 0.35756 0.0
C1000 C 0.03543 0.76461 0.36344 0.0
C1001 C 0.98127 0.67943 0.35999 0.0
C1002 C 0.95803 0.72364 0.36375 0.0
C1003 C 0.96123 0.81136 0.36092 0.0
C1004 C 0.98799 0.85328 0.35561 0.0
C1005 C 0.9846 0.76667 0.36377 0.0
C1006 C 0.03841 0.85141 0.3574 0.0
C1007 C 0.06195 0.80756 0.36194 0.0
H1008 H 0.05636 0.33353 0.61726 0.0
H1009 H 0.13271 0.19939 0.60782 0.0
H1010 H 0.05851 0.15441 0.61563 0.0
H1011 H 0.96999 0.15451 0.61335 0.0
H1012 H 0.89335 0.28947 0.61639 0.0
H1013 H 0.96889 0.33274 0.62346 0.0
C1014 C 0.05712 0.29444 0.61803 0.0
C1015 C 0.09987 0.26977 0.61187 0.0
C1016 C 0.01368 0.26897 0.62069 0.0
C1017 C 0.1002 0.21912 0.61252 0.0
C1018 C 0.05763 0.19343 0.61668 0.0
C1019 C 0.96973 0.19311 0.61686 0.0
C1020 C 0.92625 0.21883 0.61436 0.0
C1021 C 0.01369 0.21803 0.61911 0.0
C1022 C 0.92641 0.26897 0.61832 0.0
C1023 C 0.96971 0.29377 0.62196 0.0
H1024 H 0.40757 0.29251 0.86222 0.0
H1025 H 0.5441 0.36562 0.86706 0.0
H1026 H 0.58528 0.2886 0.87367 0.0
H1027 H 0.58398 0.20122 0.86641 0.0
H1028 H 0.44844 0.12894 0.85437 0.0
H1029 H 0.40525 0.20408 0.86318 0.0
C1030 C 0.44608 0.29174 0.86589 0.0
C1031 C 0.47284 0.33462 0.86392 0.0
C1032 C 0.4698 0.24702 0.86791 0.0
C1033 C 0.52281 0.33303 0.86834 0.0
C1034 C 0.5464 0.28891 0.87183 0.0
C1035 C 0.54495 0.2015 0.86683 0.0
C1036 C 0.51938 0.15975 0.85954 0.0
C1037 C 0.52058 0.24559 0.86996 0.0
C1038 C 0.46884 0.16072 0.85984 0.0
C1039 C 0.44419 0.20382 0.8646 0.0
H1040 H 0.59408 0.73725 0.1147 0.0
H1041 H 0.54047 0.8832 0.1122 0.0
H1042 H 0.45873 0.8543 0.11882 0.0
H1043 H 0.40204 0.7865 0.113 0.0
H1044 H 0.4551 0.64079 0.11764 0.0
H1045 H 0.53721 0.67051 0.12335 0.0
C1046 C 0.56473 0.76279 0.11669 0.0
C1047 C 0.57324 0.81215 0.11228 0.0
C1048 C 0.51749 0.74589 0.12039 0.0
C1049 C 0.535 0.84497 0.11534 0.0
C1050 C 0.48799 0.82841 0.11881 0.0
C1051 C 0.43129 0.76139 0.1167 0.0
C1052 C 0.42269 0.71158 0.11452 0.0
C1053 C 0.47857 0.77879 0.11961 0.0
C1054 C 0.46079 0.67931 0.11934 0.0
C1055 C 0.50796 0.69632 0.12208 0.0
H1056 H 0.9738 0.15906 0.69026 0.0
H1057 H 0.12159 0.20648 0.68927 0.0
H1058 H 0.09543 0.28991 0.68524 0.0
H1059 H 0.03083 0.34938 0.69304 0.0
H1060 H 0.88311 0.30282 0.6914 0.0
H1061 H 0.90879 0.21944 0.68471 0.0
C1062 C 1.00022 0.18752 0.68819 0.0
C1063 C 0.0495 0.17654 0.69078 0.0
C1064 C 0.98495 0.23579 0.68587 0.0
C1065 C 0.08337 0.21375 0.68758 0.0
C1066 C 0.06847 0.26173 0.68558 0.0
C1067 C 1.00431 0.32127 0.68985 0.0
C1068 C 0.95525 0.33206 0.69289 0.0
C1069 C 0.01939 0.27329 0.68628 0.0
C1070 C 0.9211 0.29541 0.68889 0.0
C1071 C 0.93582 0.24752 0.68557 0.0
H1072 H 0.96214 0.66797 0.43916 0.0
H1073 H 0.88809 0.80374 0.44699 0.0
H1074 H 0.96182 0.84702 0.43594 0.0
H1075 H 0.05025 0.84611 0.43619 0.0
H1076 H 0.12552 0.71027 0.4354 0.0
H1077 H 0.04916 0.66725 0.43072 0.0
C1078 C 0.9617 0.70694 0.43731 0.0
C1079 C 0.91982 0.73267 0.44404 0.0
C1080 C 0.00511 0.73164 0.43276 0.0
C1081 C 0.91992 0.78319 0.44195 0.0
C1082 C 0.96225 0.80795 0.43591 0.0
C1083 C 0.04999 0.80724 0.43376 0.0
C1084 C 0.0934 0.78134 0.43622 0.0
C1085 C 0.00569 0.78264 0.43304 0.0
C1086 C 0.09255 0.73093 0.43353 0.0
C1087 C 0.04879 0.70632 0.43121 0.0
H1088 H 0.48617 0.66178 0.19373 0.0
H1089 H 0.63379 0.70964 0.19521 0.0
H1090 H 0.60777 0.79262 0.18831 0.0
H1091 H 0.54234 0.85274 0.19186 0.0
H1092 H 0.39492 0.80452 0.18791 0.0
H1093 H 0.42164 0.72107 0.18518 0.0
C1094 C 0.51268 0.69018 0.19168 0.0
C1095 C 0.56172 0.67957 0.19561 0.0
C1096 C 0.4975 0.7381 0.1878 0.0
C1097 C 0.59573 0.71666 0.19241 0.0
C1098 C 0.58087 0.76438 0.18876 0.0
C1099 C 0.51616 0.82406 0.1895 0.0
C1100 C 0.46676 0.8349 0.19074 0.0
C1101 C 0.53173 0.7758 0.18793 0.0
C1102 C 0.43323 0.79737 0.18721 0.0
C1103 C 0.44844 0.74939 0.18596 0.0
H1104 H 0.41438 0.25291 0.9441 0.0
H1105 H 0.46861 0.10925 0.95684 0.0
H1106 H 0.5509 0.13728 0.94978 0.0
H1107 H 0.60701 0.20635 0.95113 0.0
H1108 H 0.55203 0.34962 0.9369 0.0
H1109 H 0.47076 0.31799 0.93259 0.0
C1110 C 0.44411 0.22751 0.94413 0.0
C1111 C 0.43588 0.17939 0.95124 0.0
C1112 C 0.4913 0.244 0.94031 0.0
C1113 C 0.47435 0.1465 0.95126 0.0
C1114 C 0.52145 0.16265 0.94756 0.0
C1115 C 0.57746 0.2303 0.94607 0.0
C1116 C 0.58541 0.2803 0.94502 0.0
C1117 C 0.53048 0.21189 0.94373 0.0
C1118 C 0.54694 0.31096 0.93809 0.0
C1119 C 0.50021 0.293 0.93589 0.0
loop_
_geom_bond_atom_site_label_1
_geom_bond_atom_site_label_2
_geom_bond_distance
_geom_bond_site_symmetry_2
_ccdc_geom_bond_type
Sc0 O3 2.025 . S
Sc0 O10 2.105 . S
Sc0 O13 2.105 . S
Sc0 O16 2.105 . S
Sc0 O19 2.105 . S
Sc1 O3 2.025 . S
Sc1 O11 2.105 . S
Sc1 O15 2.105 . S
Sc1 O17 2.105 . S
Sc1 O21 2.105 . S
Sc2 O3 2.025 . S
Sc2 O12 2.105 . S
Sc2 O14 2.105 . S
Sc2 O18 2.105 . S
Sc2 O20 2.105 . S
O3 Sc0 2.025 . S
O3 Sc1 2.025 . S
O3 Sc2 2.025 . S
C4 O10 1.268 . S
C4 O20 1.268 . S
C5 O11 1.268 . S
C5 O19 1.268 . S
C6 O12 1.268 . S
C6 O21 1.268 . S
C7 O13 1.268 . S
C7 O17 1.268 . S
C8 O14 1.268 . S
C8 O16 1.268 . S
C9 O15 1.268 . S
C9 O18 1.268 . S
O10 Sc0 2.105 . S
O10 C4 1.268 . S
O11 Sc1 2.105 . S
O11 C5 1.268 . S
O12 Sc2 2.105 . S
O12 C6 1.268 . S
O13 Sc0 2.105 . S
O13 C7 1.268 . S
O14 Sc2 2.105 . S
O14 C8 1.268 . S
O15 Sc1 2.105 . S
O15 C9 1.268 . S
O16 Sc0 2.105 . S
O16 C8 1.268 . S
O17 Sc1 2.105 . S
O17 C7 1.268 . S
O18 Sc2 2.105 . S
O18 C9 1.268 . S
O19 Sc0 2.105 . S
O19 C5 1.268 . S
O20 Sc2 2.105 . S
O20 C4 1.268 . S
O21 Sc1 2.105 . S
O21 C6 1.268 . S
Sc22 O25 2.025 . S
Sc22 O32 2.105 . S
Sc22 O35 2.105 . S
Sc22 O38 2.105 . S
Sc22 O41 2.105 . S
Sc23 O25 2.025 . S
Sc23 O33 2.105 . S
Sc23 O37 2.105 . S
Sc23 O39 2.105 . S
Sc23 O43 2.105 . S
Sc24 O25 2.025 . S
Sc24 O34 2.105 . S
Sc24 O36 2.105 . S
Sc24 O40 2.105 . S
Sc24 O42 2.105 . S
O25 Sc22 2.025 . S
O25 Sc23 2.025 . S
O25 Sc24 2.025 . S
C26 O32 1.268 . S
C26 O42 1.268 . S
C27 O33 1.268 . S
C27 O41 1.268 . S
C28 O34 1.268 . S
C28 O43 1.268 . S
C29 O35 1.268 . S
C29 O39 1.268 . S
C30 O36 1.268 . S
C30 O38 1.268 . S
C31 O37 1.268 . S
C31 O40 1.268 . S
O32 Sc22 2.105 . S
O32 C26 1.268 . S
O33 Sc23 2.105 . S
O33 C27 1.268 . S
O34 Sc24 2.105 . S
O34 C28 1.268 . S
O35 Sc22 2.105 . S
O35 C29 1.268 . S
O36 Sc24 2.105 . S
O36 C30 1.268 . S
O37 Sc23 2.105 . S
O37 C31 1.268 . S
O38 Sc22 2.105 . S
O38 C30 1.268 . S
O39 Sc23 2.105 . S
O39 C29 1.268 . S
O40 Sc24 2.105 . S
O40 C31 1.268 . S
O41 Sc22 2.105 . S
O41 C27 1.268 . S
O42 Sc24 2.105 . S
O42 C26 1.268 . S
O43 Sc23 2.105 . S
O43 C28 1.268 . S
Sc44 O47 2.025 . S
Sc44 O54 2.105 . S
Sc44 O57 2.105 . S
Sc44 O60 2.105 . S
Sc44 O63 2.105 . S
Sc45 O47 2.025 . S
Sc45 O55 2.105 . S
Sc45 O59 2.105 . S
Sc45 O61 2.105 . S
Sc45 O65 2.105 . S
Sc46 O47 2.025 . S
Sc46 O56 2.105 . S
Sc46 O58 2.105 . S
Sc46 O62 2.105 . S
Sc46 O64 2.105 . S
O47 Sc44 2.025 . S
O47 Sc45 2.025 . S
O47 Sc46 2.025 . S
C48 O54 1.268 . S
C48 O64 1.268 . S
C49 O55 1.268 . S
C49 O63 1.268 . S
C50 O56 1.268 . S
C50 O65 1.268 . S
C51 O57 1.268 . S
C51 O61 1.268 . S
C52 O58 1.268 . S
C52 O60 1.268 . S
C53 O59 1.268 . S
C53 O62 1.268 . S
O54 Sc44 2.105 . S
O54 C48 1.268 . S
O55 Sc45 2.105 . S
O55 C49 1.268 . S
O56 Sc46 2.105 . S
O56 C50 1.268 . S
O57 Sc44 2.105 . S
O57 C51 1.268 . S
O58 Sc46 2.105 . S
O58 C52 1.268 . S
O59 Sc45 2.105 . S
O59 C53 1.268 . S
O60 Sc44 2.105 . S
O60 C52 1.268 . S
O61 Sc45 2.105 . S
O61 C51 1.268 . S
O62 Sc46 2.105 . S
O62 C53 1.268 . S
O63 Sc44 2.105 . S
O63 C49 1.268 . S
O64 Sc46 2.105 . S
O64 C48 1.268 . S
O65 Sc45 2.105 . S
O65 C50 1.268 . S
Sc66 O69 2.025 . S
Sc66 O76 2.105 1_554 S
Sc66 O79 2.105 . S
Sc66 O82 2.105 . S
Sc66 O85 2.105 . S
Sc67 O69 2.025 . S
Sc67 O77 2.105 . S
Sc67 O81 2.105 . S
Sc67 O83 2.105 . S
Sc67 O87 2.105 . S
Sc68 O69 2.025 1_556 S
Sc68 O78 2.105 . S
Sc68 O80 2.105 . S
Sc68 O84 2.105 1_556 S
Sc68 O86 2.105 . S
O69 Sc66 2.025 . S
O69 Sc67 2.025 . S
O69 Sc68 2.025 1_554 S
C70 O76 1.268 . S
C70 O86 1.268 . S
C71 O77 1.268 . S
C71 O85 1.268 . S
C72 O78 1.268 . S
C72 O87 1.268 1_556 S
C73 O79 1.268 . S
C73 O83 1.268 . S
C74 O80 1.268 . S
C74 O82 1.268 1_556 S
C75 O81 1.268 . S
C75 O84 1.268 . S
O76 Sc66 2.105 1_556 S
O76 C70 1.268 . S
O77 Sc67 2.105 . S
O77 C71 1.268 . S
O78 Sc68 2.105 . S
O78 C72 1.268 . S
O79 Sc66 2.105 . S
O79 C73 1.268 . S
O80 Sc68 2.105 . S
O80 C74 1.268 . S
O81 Sc67 2.105 . S
O81 C75 1.268 . S
O82 Sc66 2.105 . S
O82 C74 1.268 1_554 S
O83 Sc67 2.105 . S
O83 C73 1.268 . S
O84 Sc68 2.105 1_554 S
O84 C75 1.268 . S
O85 Sc66 2.105 . S
O85 C71 1.268 . S
O86 Sc68 2.105 . S
O86 C70 1.268 . S
O87 Sc67 2.105 . S
O87 C72 1.268 1_554 S
Sc88 O91 2.025 . S
Sc88 O98 2.105 . S
Sc88 O101 2.105 . S
Sc88 O104 2.105 . S
Sc88 O107 2.105 . S
Sc89 O91 2.025 . S
Sc89 O99 2.105 . S
Sc89 O103 2.105 . S
Sc89 O105 2.105 . S
Sc89 O109 2.105 . S
Sc90 O91 2.025 . S
Sc90 O100 2.105 . S
Sc90 O102 2.105 . S
Sc90 O106 2.105 . S
Sc90 O108 2.105 . S
O91 Sc88 2.025 . S
O91 Sc89 2.025 . S
O91 Sc90 2.025 . S
C92 O98 1.268 . S
C92 O108 1.268 . S
C93 O99 1.268 . S
C93 O107 1.268 . S
C94 O100 1.268 . S
C94 O109 1.268 . S
C95 O101 1.268 . S
C95 O105 1.268 . S
C96 O102 1.268 . S
C96 O104 1.268 . S
C97 O103 1.268 . S
C97 O106 1.268 . S
O98 Sc88 2.105 . S
O98 C92 1.268 . S
O99 Sc89 2.105 . S
O99 C93 1.268 . S
O100 Sc90 2.105 . S
O100 C94 1.268 . S
O101 Sc88 2.105 . S
O101 C95 1.268 . S
O102 Sc90 2.105 . S
O102 C96 1.268 . S
O103 Sc89 2.105 . S
O103 C97 1.268 . S
O104 Sc88 2.105 . S
O104 C96 1.268 . S
O105 Sc89 2.105 . S
O105 C95 1.268 . S
O106 Sc90 2.105 . S
O106 C97 1.268 . S
O107 Sc88 2.105 . S
O107 C93 1.268 . S
O108 Sc90 2.105 . S
O108 C92 1.268 . S
O109 Sc89 2.105 . S
O109 C94 1.268 . S
Sc110 O113 2.025 . S
Sc110 O120 2.105 . S
Sc110 O123 2.105 . S
Sc110 O126 2.105 . S
Sc110 O129 2.105 . S
Sc111 O113 2.025 . S
Sc111 O121 2.105 . S
Sc111 O125 2.105 . S
Sc111 O127 2.105 . S
Sc111 O131 2.105 . S
Sc112 O113 2.025 . S
Sc112 O122 2.105 . S
Sc112 O124 2.105 . S
Sc112 O128 2.105 . S
Sc112 O130 2.105 . S
O113 Sc110 2.025 . S
O113 Sc111 2.025 . S
O113 Sc112 2.025 . S
C114 O120 1.268 . S
C114 O130 1.268 . S
C115 O121 1.268 . S
C115 O129 1.268 . S
C116 O122 1.268 . S
C116 O131 1.268 . S
C117 O123 1.268 . S
C117 O127 1.268 . S
C118 O124 1.268 . S
C118 O126 1.268 . S
C119 O125 1.268 . S
C119 O128 1.268 . S
O120 Sc110 2.105 . S
O120 C114 1.268 . S
O121 Sc111 2.105 . S
O121 C115 1.268 . S
O122 Sc112 2.105 . S
O122 C116 1.268 . S
O123 Sc110 2.105 . S
O123 C117 1.268 . S
O124 Sc112 2.105 . S
O124 C118 1.268 . S
O125 Sc111 2.105 . S
O125 C119 1.268 . S
O126 Sc110 2.105 . S
O126 C118 1.268 . S
O127 Sc111 2.105 . S
O127 C117 1.268 . S
O128 Sc112 2.105 . S
O128 C119 1.268 . S
O129 Sc110 2.105 . S
O129 C115 1.268 . S
O130 Sc112 2.105 . S
O130 C114 1.268 . S
O131 Sc111 2.105 . S
O131 C116 1.268 . S
Sc132 O135 2.025 . S
Sc132 O142 2.105 . S
Sc132 O145 2.105 . S
Sc132 O148 2.105 . S
Sc132 O151 2.105 . S
Sc133 O135 2.025 . S
Sc133 O143 2.105 . S
Sc133 O147 2.105 . S
Sc133 O149 2.105 . S
Sc133 O153 2.105 . S
Sc134 O135 2.025 . S
Sc134 O144 2.105 . S
Sc134 O146 2.105 . S
Sc134 O150 2.105 . S
Sc134 O152 2.105 . S
O135 Sc132 2.025 . S
O135 Sc133 2.025 . S
O135 Sc134 2.025 . S
C136 O142 1.268 . S
C136 O152 1.268 . S
C137 O143 1.268 . S
C137 O151 1.268 . S
C138 O144 1.268 . S
C138 O153 1.268 . S
C139 O145 1.268 . S
C139 O149 1.268 . S
C140 O146 1.268 . S
C140 O148 1.268 . S
C141 O147 1.268 . S
C141 O150 1.268 . S
O142 Sc132 2.105 . S
O142 C136 1.268 . S
O143 Sc133 2.105 . S
O143 C137 1.268 . S
O144 Sc134 2.105 . S
O144 C138 1.268 . S
O145 Sc132 2.105 . S
O145 C139 1.268 . S
O146 Sc134 2.105 . S
O146 C140 1.268 . S
O147 Sc133 2.105 . S
O147 C141 1.268 . S
O148 Sc132 2.105 . S
O148 C140 1.268 . S
O149 Sc133 2.105 . S
O149 C139 1.268 . S
O150 Sc134 2.105 . S
O150 C141 1.268 . S
O151 Sc132 2.105 . S
O151 C137 1.268 . S
O152 Sc134 2.105 . S
O152 C136 1.268 . S
O153 Sc133 2.105 . S
O153 C138 1.268 . S
Sc154 O157 2.025 . S
Sc154 O164 2.105 . S
Sc154 O167 2.105 . S
Sc154 O170 2.105 1_556 S
Sc154 O173 2.105 . S
Sc155 O157 2.025 . S
Sc155 O165 2.105 . S
Sc155 O169 2.105 . S
Sc155 O171 2.105 . S
Sc155 O175 2.105 . S
Sc156 O157 2.025 1_554 S
Sc156 O166 2.105 1_554 S
Sc156 O168 2.105 . S
Sc156 O172 2.105 . S
Sc156 O174 2.105 . S
O157 Sc154 2.025 . S
O157 Sc155 2.025 . S
O157 Sc156 2.025 1_556 S
C158 O164 1.268 1_554 S
C158 O174 1.268 . S
C159 O165 1.268 . S
C159 O173 1.268 . S
C160 O166 1.268 . S
C160 O175 1.268 . S
C161 O167 1.268 . S
C161 O171 1.268 . S
C162 O168 1.268 . S
C162 O170 1.268 . S
C163 O169 1.268 1_554 S
C163 O172 1.268 . S
O164 Sc154 2.105 . S
O164 C158 1.268 1_556 S
O165 Sc155 2.105 . S
O165 C159 1.268 . S
O166 Sc156 2.105 1_556 S
O166 C160 1.268 . S
O167 Sc154 2.105 . S
O167 C161 1.268 . S
O168 Sc156 2.105 . S
O168 C162 1.268 . S
O169 Sc155 2.105 . S
O169 C163 1.268 1_556 S
O170 Sc154 2.105 1_554 S
O170 C162 1.268 . S
O171 Sc155 2.105 . S
O171 C161 1.268 . S
O172 Sc156 2.105 . S
O172 C163 1.268 . S
O173 Sc154 2.105 . S
O173 C159 1.268 . S
O174 Sc156 2.105 . S
O174 C158 1.268 . S
O175 Sc155 2.105 . S
O175 C160 1.268 . S
Sc176 O179 2.025 1_565 S
Sc176 O186 2.105 . S
Sc176 O189 2.105 . S
Sc176 O192 2.105 . S
Sc176 O195 2.105 . S
Sc177 O179 2.025 . S
Sc177 O187 2.105 . S
Sc177 O191 2.105 . S
Sc177 O193 2.105 . S
Sc177 O197 2.105 . S
Sc178 O179 2.025 . S
Sc178 O188 2.105 . S
Sc178 O190 2.105 . S
Sc178 O194 2.105 . S
Sc178 O196 2.105 . S
O179 Sc176 2.025 1_545 S
O179 Sc177 2.025 . S
O179 Sc178 2.025 . S
C180 O186 1.269 1_545 S
C180 O196 1.268 . S
C181 O187 1.268 . S
C181 O195 1.268 1_545 S
C182 O188 1.268 . S
C182 O197 1.268 . S
C183 O189 1.268 1_545 S
C183 O193 1.268 . S
C184 O190 1.268 . S
C184 O192 1.268 1_545 S
C185 O191 1.268 . S
C185 O194 1.268 . S
O186 Sc176 2.105 . S
O186 C180 1.269 1_565 S
O187 Sc177 2.105 . S
O187 C181 1.268 . S
O188 Sc178 2.105 . S
O188 C182 1.268 . S
O189 Sc176 2.105 . S
O189 C183 1.268 1_565 S
O190 Sc178 2.105 . S
O190 C184 1.268 . S
O191 Sc177 2.105 . S
O191 C185 1.268 . S
O192 Sc176 2.105 . S
O192 C184 1.268 1_565 S
O193 Sc177 2.105 . S
O193 C183 1.268 . S
O194 Sc178 2.105 . S
O194 C185 1.268 . S
O195 Sc176 2.105 . S
O195 C181 1.268 1_565 S
O196 Sc178 2.105 . S
O196 C180 1.268 . S
O197 Sc177 2.105 . S
O197 C182 1.268 . S
Sc198 O201 2.025 . S
Sc198 O208 2.105 1_554 S
Sc198 O211 2.105 . S
Sc198 O214 2.105 . S
Sc198 O217 2.105 . S
Sc199 O201 2.025 . S
Sc199 O209 2.105 1_565 S
Sc199 O213 2.105 . S
Sc199 O215 2.105 . S
Sc199 O219 2.105 . S
Sc200 O201 2.025 1_556 S
Sc200 O210 2.105 . S
Sc200 O212 2.105 . S
Sc200 O216 2.105 1_556 S
Sc200 O218 2.105 . S
O201 Sc198 2.025 . S
O201 Sc199 2.025 . S
O201 Sc200 2.025 1_554 S
C202 O208 1.268 . S
C202 O218 1.268 . S
C203 O209 1.268 . S
C203 O217 1.268 1_545 S
C204 O210 1.268 . S
C204 O219 1.268 1_556 S
C205 O211 1.268 . S
C205 O215 1.268 . S
C206 O212 1.268 . S
C206 O214 1.268 1_556 S
C207 O213 1.268 . S
C207 O216 1.268 . S
O208 Sc198 2.105 1_556 S
O208 C202 1.268 . S
O209 Sc199 2.105 1_545 S
O209 C203 1.268 . S
O210 Sc200 2.105 . S
O210 C204 1.268 . S
O211 Sc198 2.105 . S
O211 C205 1.268 . S
O212 Sc200 2.105 . S
O212 C206 1.268 . S
O213 Sc199 2.105 . S
O213 C207 1.268 . S
O214 Sc198 2.105 . S
O214 C206 1.268 1_554 S
O215 Sc199 2.105 . S
O215 C205 1.268 . S
O216 Sc200 2.105 1_554 S
O216 C207 1.268 . S
O217 Sc198 2.105 . S
O217 C203 1.268 1_565 S
O218 Sc200 2.105 . S
O218 C202 1.268 . S
O219 Sc199 2.105 . S
O219 C204 1.268 1_554 S
Sc220 O223 2.025 . S
Sc220 O230 2.105 . S
Sc220 O233 2.105 . S
Sc220 O236 2.105 . S
Sc220 O239 2.105 . S
Sc221 O223 2.025 . S
Sc221 O231 2.105 . S
Sc221 O235 2.105 . S
Sc221 O237 2.105 . S
Sc221 O241 2.105 . S
Sc222 O223 2.025 1_545 S
Sc222 O232 2.105 . S
Sc222 O234 2.105 . S
Sc222 O238 2.105 . S
Sc222 O240 2.105 . S
O223 Sc220 2.025 . S
O223 Sc221 2.025 . S
O223 Sc222 2.025 1_565 S
C224 O230 1.268 . S
C224 O240 1.268 1_565 S
C225 O231 1.268 . S
C225 O239 1.268 . S
C226 O232 1.268 1_565 S
C226 O241 1.268 . S
C227 O233 1.268 . S
C227 O237 1.268 . S
C228 O234 1.269 1_565 S
C228 O236 1.268 . S
C229 O235 1.268 . S
C229 O238 1.268 1_565 S
O230 Sc220 2.105 . S
O230 C224 1.268 . S
O231 Sc221 2.105 . S
O231 C225 1.268 . S
O232 Sc222 2.105 . S
O232 C226 1.268 1_545 S
O233 Sc220 2.105 . S
O233 C227 1.268 . S
O234 Sc222 2.105 . S
O234 C228 1.269 1_545 S
O235 Sc221 2.105 . S
O235 C229 1.268 . S
O236 Sc220 2.105 . S
O236 C228 1.268 . S
O237 Sc221 2.105 . S
O237 C227 1.268 . S
O238 Sc222 2.105 . S
O238 C229 1.268 1_545 S
O239 Sc220 2.105 . S
O239 C225 1.268 . S
O240 Sc222 2.105 . S
O240 C224 1.268 1_545 S
O241 Sc221 2.105 . S
O241 C226 1.268 . S
Sc242 O245 2.025 . S
Sc242 O252 2.105 . S
Sc242 O255 2.105 . S
Sc242 O258 2.105 . S
Sc242 O261 2.105 . S
Sc243 O245 2.025 . S
Sc243 O253 2.105 1_545 S
Sc243 O257 2.105 . S
Sc243 O259 2.105 . S
Sc243 O263 2.105 . S
Sc244 O245 2.025 . S
Sc244 O254 2.105 . S
Sc244 O256 2.105 . S
Sc244 O260 2.105 . S
Sc244 O262 2.105 . S
O245 Sc242 2.025 . S
O245 Sc243 2.025 . S
O245 Sc244 2.025 . S
C246 O252 1.268 . S
C246 O262 1.268 . S
C247 O253 1.268 . S
C247 O261 1.268 1_565 S
C248 O254 1.268 . S
C248 O263 1.268 . S
C249 O255 1.268 . S
C249 O259 1.268 . S
C250 O256 1.268 . S
C250 O258 1.268 . S
C251 O257 1.268 . S
C251 O260 1.268 . S
O252 Sc242 2.105 . S
O252 C246 1.268 . S
O253 Sc243 2.105 1_565 S
O253 C247 1.268 . S
O254 Sc244 2.105 . S
O254 C248 1.268 . S
O255 Sc242 2.105 . S
O255 C249 1.268 . S
O256 Sc244 2.105 . S
O256 C250 1.268 . S
O257 Sc243 2.105 . S
O257 C251 1.268 . S
O258 Sc242 2.105 . S
O258 C250 1.268 . S
O259 Sc243 2.105 . S
O259 C249 1.268 . S
O260 Sc244 2.105 . S
O260 C251 1.268 . S
O261 Sc242 2.105 . S
O261 C247 1.268 1_545 S
O262 Sc244 2.105 . S
O262 C246 1.268 . S
O263 Sc243 2.105 . S
O263 C248 1.268 . S
Sc264 O267 2.025 . S
Sc264 O274 2.105 . S
Sc264 O277 2.105 . S
Sc264 O280 2.105 . S
Sc264 O283 2.105 . S
Sc265 O267 2.025 . S
Sc265 O275 2.105 . S
Sc265 O279 2.105 . S
Sc265 O281 2.105 . S
Sc265 O285 2.105 . S
Sc266 O267 2.025 1_545 S
Sc266 O276 2.105 . S
Sc266 O278 2.105 . S
Sc266 O282 2.105 . S
Sc266 O284 2.105 . S
O267 Sc264 2.025 . S
O267 Sc265 2.025 . S
O267 Sc266 2.025 1_565 S
C268 O274 1.268 . S
C268 O284 1.269 1_565 S
C269 O275 1.268 . S
C269 O283 1.268 . S
C270 O276 1.268 1_565 S
C270 O285 1.268 . S
C271 O277 1.268 . S
C271 O281 1.268 . S
C272 O278 1.268 1_565 S
C272 O280 1.268 . S
C273 O279 1.268 . S
C273 O282 1.268 1_565 S
O274 Sc264 2.105 . S
O274 C268 1.268 . S
O275 Sc265 2.105 . S
O275 C269 1.268 . S
O276 Sc266 2.105 . S
O276 C270 1.268 1_545 S
O277 Sc264 2.105 . S
O277 C271 1.268 . S
O278 Sc266 2.105 . S
O278 C272 1.268 1_545 S
O279 Sc265 2.105 . S
O279 C273 1.268 . S
O280 Sc264 2.105 . S
O280 C272 1.268 . S
O281 Sc265 2.105 . S
O281 C271 1.268 . S
O282 Sc266 2.105 . S
O282 C273 1.268 1_545 S
O283 Sc264 2.105 . S
O283 C269 1.268 . S
O284 Sc266 2.105 . S
O284 C268 1.269 1_545 S
O285 Sc265 2.105 . S
O285 C270 1.268 . S
Sc286 O289 2.025 1_554 S
Sc286 O296 2.105 . S
Sc286 O299 2.105 1_554 S
Sc286 O302 2.105 . S
Sc286 O305 2.105 . S
Sc287 O289 2.025 . S
Sc287 O297 2.105 . S
Sc287 O301 2.105 . S
Sc287 O303 2.105 . S
Sc287 O307 2.105 1_545 S
Sc288 O289 2.025 . S
Sc288 O298 2.105 . S
Sc288 O300 2.105 . S
Sc288 O304 2.105 . S
Sc288 O306 2.105 1_556 S
O289 Sc286 2.025 1_556 S
O289 Sc287 2.025 . S
O289 Sc288 2.025 . S
C290 O296 1.268 . S
C290 O306 1.268 . S
C291 O297 1.268 1_554 S
C291 O305 1.268 . S
C292 O298 1.268 1_565 S
C292 O307 1.268 . S
C293 O299 1.268 . S
C293 O303 1.268 . S
C294 O300 1.268 1_554 S
C294 O302 1.268 . S
C295 O301 1.268 . S
C295 O304 1.268 . S
O296 Sc286 2.105 . S
O296 C290 1.268 . S
O297 Sc287 2.105 . S
O297 C291 1.268 1_556 S
O298 Sc288 2.105 . S
O298 C292 1.268 1_545 S
O299 Sc286 2.105 1_556 S
O299 C293 1.268 . S
O300 Sc288 2.105 . S
O300 C294 1.268 1_556 S
O301 Sc287 2.105 . S
O301 C295 1.268 . S
O302 Sc286 2.105 . S
O302 C294 1.268 . S
O303 Sc287 2.105 . S
O303 C293 1.268 . S
O304 Sc288 2.105 . S
O304 C295 1.268 . S
O305 Sc286 2.105 . S
O305 C291 1.268 . S
O306 Sc288 2.105 1_554 S
O306 C290 1.268 . S
O307 Sc287 2.105 1_565 S
O307 C292 1.268 . S
Sc308 O311 2.025 1_565 S
Sc308 O318 2.105 . S
Sc308 O321 2.105 . S
Sc308 O324 2.105 . S
Sc308 O327 2.105 . S
Sc309 O311 2.025 . S
Sc309 O319 2.105 . S
Sc309 O323 2.105 . S
Sc309 O325 2.105 . S
Sc309 O329 2.105 . S
Sc310 O311 2.025 . S
Sc310 O320 2.105 . S
Sc310 O322 2.105 . S
Sc310 O326 2.105 . S
Sc310 O328 2.105 . S
O311 Sc308 2.025 1_545 S
O311 Sc309 2.025 . S
O311 Sc310 2.025 . S
C312 O318 1.268 1_545 S
C312 O328 1.268 . S
C313 O319 1.268 . S
C313 O327 1.268 1_545 S
C314 O320 1.268 . S
C314 O329 1.268 . S
C315 O321 1.268 1_545 S
C315 O325 1.268 . S
C316 O322 1.268 . S
C316 O324 1.269 1_545 S
C317 O323 1.268 . S
C317 O326 1.268 . S
O318 Sc308 2.105 . S
O318 C312 1.268 1_565 S
O319 Sc309 2.105 . S
O319 C313 1.268 . S
O320 Sc310 2.105 . S
O320 C314 1.268 . S
O321 Sc308 2.105 . S
O321 C315 1.268 1_565 S
O322 Sc310 2.105 . S
O322 C316 1.268 . S
O323 Sc309 2.105 . S
O323 C317 1.268 . S
O324 Sc308 2.105 . S
O324 C316 1.269 1_565 S
O325 Sc309 2.105 . S
O325 C315 1.268 . S
O326 Sc310 2.105 . S
O326 C317 1.268 . S
O327 Sc308 2.105 . S
O327 C313 1.268 1_565 S
O328 Sc310 2.105 . S
O328 C312 1.268 . S
O329 Sc309 2.105 . S
O329 C314 1.268 . S
Sc330 O333 2.025 . S
Sc330 O340 2.105 . S
Sc330 O343 2.105 . S
Sc330 O346 2.105 . S
Sc330 O349 2.105 . S
Sc331 O333 2.025 . S
Sc331 O341 2.105 . S
Sc331 O345 2.105 . S
Sc331 O347 2.105 1_565 S
Sc331 O351 2.105 . S
Sc332 O333 2.025 . S
Sc332 O342 2.105 . S
Sc332 O344 2.105 . S
Sc332 O348 2.105 . S
Sc332 O350 2.105 . S
O333 Sc330 2.025 . S
O333 Sc331 2.025 . S
O333 Sc332 2.025 . S
C334 O340 1.268 . S
C334 O350 1.268 . S
C335 O341 1.268 . S
C335 O349 1.268 . S
C336 O342 1.268 . S
C336 O351 1.268 . S
C337 O343 1.268 1_545 S
C337 O347 1.268 . S
C338 O344 1.268 . S
C338 O346 1.268 . S
C339 O345 1.268 . S
C339 O348 1.268 . S
O340 Sc330 2.105 . S
O340 C334 1.268 . S
O341 Sc331 2.105 . S
O341 C335 1.268 . S
O342 Sc332 2.105 . S
O342 C336 1.268 . S
O343 Sc330 2.105 . S
O343 C337 1.268 1_565 S
O344 Sc332 2.105 . S
O344 C338 1.268 . S
O345 Sc331 2.105 . S
O345 C339 1.268 . S
O346 Sc330 2.105 . S
O346 C338 1.268 . S
O347 Sc331 2.105 1_545 S
O347 C337 1.268 . S
O348 Sc332 2.105 . S
O348 C339 1.268 . S
O349 Sc330 2.105 . S
O349 C335 1.268 . S
O350 Sc332 2.105 . S
O350 C334 1.268 . S
O351 Sc331 2.105 . S
O351 C336 1.268 . S
H352 C358 0.930 . S
H353 C361 0.930 . S
H354 C362 0.930 . S
H355 C363 0.930 . S
H356 C366 0.930 . S
H357 C367 0.930 . S
C358 H352 0.930 . S
C358 C359 1.355 . S
C358 C360 1.415 . S
C359 C358 1.355 . S
C359 C361 1.419 . S
C360 C358 1.415 . S
C360 C365 1.425 . S
C360 C367 1.409 . S
C361 H353 0.930 . S
C361 C359 1.419 . S
C361 C362 1.362 . S
C362 H354 0.930 . S
C362 C361 1.362 . S
C362 C365 1.409 . S
C363 H355 0.930 . S
C363 C364 1.355 . S
C363 C365 1.415 . S
C364 C363 1.355 . S
C364 C366 1.419 . S
C365 C360 1.425 . S
C365 C362 1.409 . S
C365 C363 1.415 . S
C366 H356 0.930 . S
C366 C364 1.419 . S
C366 C367 1.362 . S
C367 H357 0.930 . S
C367 C360 1.409 . S
C367 C366 1.362 . S
H368 C374 0.930 . S
H369 C377 0.930 . S
H370 C378 0.930 . S
H371 C379 0.930 . S
H372 C382 0.930 . S
H373 C383 0.930 . S
C374 H368 0.930 . S
C374 C375 1.355 . S
C374 C376 1.415 . S
C375 C374 1.355 . S
C375 C377 1.419 . S
C376 C374 1.415 . S
C376 C381 1.425 . S
C376 C383 1.409 . S
C377 H369 0.930 . S
C377 C375 1.419 . S
C377 C378 1.362 . S
C378 H370 0.930 . S
C378 C377 1.362 . S
C378 C381 1.409 . S
C379 H371 0.930 . S
C379 C380 1.355 . S
C379 C381 1.415 . S
C380 C379 1.355 . S
C380 C382 1.419 . S
C381 C376 1.425 . S
C381 C378 1.409 . S
C381 C379 1.415 . S
C382 H372 0.930 . S
C382 C380 1.419 . S
C382 C383 1.362 . S
C383 H373 0.930 . S
C383 C376 1.409 . S
C383 C382 1.362 . S
H384 C390 0.930 . S
H385 C393 0.930 . S
H386 C394 0.930 . S
H387 C395 0.930 . S
H388 C398 0.930 1_655 S
H389 C399 0.930 . S
C390 H384 0.930 . S
C390 C391 1.355 . S
C390 C392 1.415 . S
C391 C390 1.355 . S
C391 C393 1.419 . S
C392 C390 1.415 . S
C392 C397 1.425 . S
C392 C399 1.409 . S
C393 H385 0.930 . S
C393 C391 1.419 . S
C393 C394 1.362 . S
C394 H386 0.930 . S
C394 C393 1.362 . S
C394 C397 1.409 . S
C395 H387 0.930 . S
C395 C396 1.355 1_455 S
C395 C397 1.415 . S
C396 C395 1.355 1_655 S
C396 C398 1.419 1_655 S
C397 C392 1.425 . S
C397 C394 1.409 . S
C397 C395 1.415 . S
C398 H388 0.930 1_455 S
C398 C396 1.419 1_455 S
C398 C399 1.362 . S
C399 H389 0.930 . S
C399 C392 1.409 . S
C399 C398 1.362 . S
H400 C406 0.930 . S
H401 C409 0.930 . S
H402 C410 0.930 . S
H403 C411 0.930 . S
H404 C414 0.930 . S
H405 C415 0.930 . S
C406 H400 0.930 . S
C406 C407 1.355 1_556 S
C406 C408 1.409 1_556 S
C407 C406 1.355 1_554 S
C407 C409 1.419 . S
C408 C406 1.409 1_554 S
C408 C413 1.441 . S
C408 C415 1.399 1_554 S
C409 H401 0.930 . S
C409 C407 1.419 . S
C409 C410 1.362 . S
C410 H402 0.930 . S
C410 C409 1.362 . S
C410 C413 1.409 . S
C411 H403 0.930 . S
C411 C412 1.355 . S
C411 C413 1.415 . S
C412 C411 1.355 . S
C412 C414 1.419 1_554 S
C413 C408 1.441 . S
C413 C410 1.409 . S
C413 C411 1.415 . S
C414 H404 0.930 . S
C414 C412 1.419 1_556 S
C414 C415 1.362 . S
C415 H405 0.930 . S
C415 C408 1.399 1_556 S
C415 C414 1.362 . S
H416 C422 0.930 . S
H417 C425 0.930 . S
H418 C426 0.930 . S
H419 C427 0.930 . S
H420 C430 0.930 . S
H421 C431 0.930 . S
C422 H416 0.930 . S
C422 C423 1.355 . S
C422 C424 1.415 . S
C423 C422 1.355 . S
C423 C425 1.419 . S
C424 C422 1.415 . S
C424 C429 1.425 . S
C424 C431 1.409 . S
C425 H417 0.930 . S
C425 C423 1.419 . S
C425 C426 1.362 . S
C426 H418 0.930 . S
C426 C425 1.362 . S
C426 C429 1.409 . S
C427 H419 0.930 . S
C427 C428 1.355 . S
C427 C429 1.415 . S
C428 C427 1.355 . S
C428 C430 1.419 . S
C429 C424 1.425 . S
C429 C426 1.409 . S
C429 C427 1.415 . S
C430 H420 0.930 . S
C430 C428 1.419 . S
C430 C431 1.362 . S
C431 H421 0.930 . S
C431 C424 1.409 . S
C431 C430 1.362 . S
H432 C438 0.930 . S
H433 C441 0.930 . S
H434 C442 0.930 . S
H435 C443 0.930 . S
H436 C446 0.930 . S
H437 C447 0.930 . S
C438 H432 0.930 . S
C438 C439 1.355 . S
C438 C440 1.415 . S
C439 C438 1.355 . S
C439 C441 1.419 . S
C440 C438 1.415 . S
C440 C445 1.425 . S
C440 C447 1.409 . S
C441 H433 0.930 . S
C441 C439 1.419 . S
C441 C442 1.362 . S
C442 H434 0.930 . S
C442 C441 1.362 . S
C442 C445 1.409 . S
C443 H435 0.930 . S
C443 C444 1.355 . S
C443 C445 1.415 . S
C444 C443 1.355 . S
C444 C446 1.419 . S
C445 C440 1.425 . S
C445 C442 1.409 . S
C445 C443 1.415 . S
C446 H436 0.930 . S
C446 C444 1.419 . S
C446 C447 1.362 . S
C447 H437 0.930 . S
C447 C440 1.409 . S
C447 C446 1.362 . S
H448 C454 0.930 . S
H449 C457 0.930 . S
H450 C458 0.930 . S
H451 C459 0.930 . S
H452 C462 0.925 1_455 S
H453 C463 0.930 . S
C454 H448 0.930 . S
C454 C455 1.355 . S
C454 C456 1.415 . S
C455 C454 1.355 . S
C455 C457 1.419 . S
C456 C454 1.415 . S
C456 C461 1.425 . S
C456 C463 1.409 . S
C457 H449 0.930 . S
C457 C455 1.419 . S
C457 C458 1.362 . S
C458 H450 0.930 . S
C458 C457 1.362 . S
C458 C461 1.409 . S
C459 H451 0.930 . S
C459 C460 1.355 1_655 S
C459 C461 1.415 . S
C460 C459 1.355 1_455 S
C460 C462 1.418 1_455 S
C461 C456 1.425 . S
C461 C458 1.409 . S
C461 C459 1.415 . S
C462 H452 0.925 1_655 S
C462 C460 1.418 1_655 S
C462 C463 1.368 . S
C463 H453 0.930 . S
C463 C456 1.409 . S
C463 C462 1.368 . S
H464 C470 0.930 . S
H465 C473 0.930 . S
H466 C474 0.930 . S
H467 C475 0.930 . S
H468 C478 0.930 . S
H469 C479 0.930 . S
C470 H464 0.930 . S
C470 C471 1.355 . S
C470 C472 1.415 . S
C471 C470 1.355 . S
C471 C473 1.419 . S
C472 C470 1.415 . S
C472 C477 1.425 . S
C472 C479 1.409 1_556 S
C473 H465 0.930 . S
C473 C471 1.419 . S
C473 C474 1.362 . S
C474 H466 0.930 . S
C474 C473 1.362 . S
C474 C477 1.409 . S
C475 H467 0.930 . S
C475 C476 1.355 . S
C475 C477 1.415 . S
C476 C475 1.355 . S
C476 C478 1.419 1_556 S
C477 C472 1.425 . S
C477 C474 1.409 . S
C477 C475 1.415 . S
C478 H468 0.930 . S
C478 C476 1.419 1_554 S
C478 C479 1.362 . S
C479 H469 0.930 . S
C479 C472 1.409 1_554 S
C479 C478 1.362 . S
H480 C486 0.930 . S
H481 C489 0.926 1_565 S
H482 C490 0.930 . S
H483 C491 0.930 . S
H484 C494 0.929 1_455 S
H485 C495 0.930 . S
C486 H480 0.930 . S
C486 C487 1.355 . S
C486 C488 1.415 . S
C487 C486 1.355 . S
C487 C489 1.426 . S
C488 C486 1.415 . S
C488 C493 1.425 . S
C488 C495 1.409 . S
C489 H481 0.926 1_545 S
C489 C487 1.426 . S
C489 C490 1.359 1_545 S
C490 H482 0.930 . S
C490 C489 1.359 1_565 S
C490 C493 1.409 1_565 S
C491 H483 0.930 . S
C491 C492 1.355 1_665 S
C491 C493 1.415 1_565 S
C492 C491 1.355 1_445 S
C492 C494 1.419 1_455 S
C493 C488 1.425 . S
C493 C490 1.409 1_545 S
C493 C491 1.415 1_545 S
C494 H484 0.929 1_655 S
C494 C492 1.419 1_655 S
C494 C495 1.362 . S
C495 H485 0.930 . S
C495 C488 1.409 . S
C495 C494 1.362 . S
H496 C502 0.930 . S
H497 C505 0.930 . S
H498 C506 0.930 . S
H499 C507 0.930 . S
H500 C510 0.930 . S
H501 C511 0.930 . S
C502 H496 0.930 . S
C502 C503 1.355 . S
C502 C504 1.415 . S
C503 C502 1.355 . S
C503 C505 1.419 1_554 S
C504 C502 1.415 . S
C504 C509 1.446 . S
C504 C511 1.409 . S
C505 H497 0.930 . S
C505 C503 1.419 1_556 S
C505 C506 1.362 . S
C506 H498 0.930 . S
C506 C505 1.362 . S
C506 C509 1.397 1_556 S
C507 H499 0.930 . S
C507 C508 1.355 1_556 S
C507 C509 1.408 1_556 S
C508 C507 1.355 1_554 S
C508 C510 1.419 . S
C509 C504 1.446 . S
C509 C506 1.397 1_554 S
C509 C507 1.408 1_554 S
C510 H500 0.930 . S
C510 C508 1.419 . S
C510 C511 1.362 . S
C511 H501 0.930 . S
C511 C504 1.409 . S
C511 C510 1.362 . S
H512 C518 0.930 . S
H513 C521 0.930 . S
H514 C522 0.930 . S
H515 C523 0.930 . S
H516 C526 0.930 . S
H517 C527 0.930 . S
C518 H512 0.930 . S
C518 C519 1.355 1_545 S
C518 C520 1.415 . S
C519 C518 1.355 1_565 S
C519 C521 1.419 . S
C520 C518 1.415 . S
C520 C525 1.425 1_545 S
C520 C527 1.409 . S
C521 H513 0.930 . S
C521 C519 1.419 . S
C521 C522 1.362 . S
C522 H514 0.930 . S
C522 C521 1.362 . S
C522 C525 1.409 . S
C523 H515 0.930 . S
C523 C524 1.355 . S
C523 C525 1.415 . S
C524 C523 1.355 . S
C524 C526 1.419 1_565 S
C525 C520 1.425 1_565 S
C525 C522 1.409 . S
C525 C523 1.415 . S
C526 H516 0.930 . S
C526 C524 1.419 1_545 S
C526 C527 1.362 . S
C527 H517 0.930 . S
C527 C520 1.409 . S
C527 C526 1.362 . S
H528 C534 0.930 . S
H529 C537 0.930 . S
H530 C538 0.930 . S
H531 C539 0.930 . S
H532 C542 0.930 . S
H533 C543 0.930 . S
C534 H528 0.930 . S
C534 C535 1.355 . S
C534 C536 1.415 . S
C535 C534 1.355 . S
C535 C537 1.419 . S
C536 C534 1.415 . S
C536 C541 1.425 . S
C536 C543 1.409 . S
C537 H529 0.930 . S
C537 C535 1.419 . S
C537 C538 1.362 . S
C538 H530 0.930 . S
C538 C537 1.362 . S
C538 C541 1.409 . S
C539 H531 0.930 . S
C539 C540 1.355 . S
C539 C541 1.415 . S
C540 C539 1.355 . S
C540 C542 1.419 . S
C541 C536 1.425 . S
C541 C538 1.409 . S
C541 C539 1.415 . S
C542 H532 0.930 . S
C542 C540 1.419 . S
C542 C543 1.362 . S
C543 H533 0.930 . S
C543 C536 1.409 . S
C543 C542 1.362 . S
H544 C550 0.930 . S
H545 C553 0.930 1_545 S
H546 C554 0.930 . S
H547 C555 0.930 . S
H548 C558 0.930 . S
H549 C559 0.930 . S
C550 H544 0.930 . S
C550 C551 1.355 1_455 S
C550 C552 1.415 . S
C551 C550 1.355 1_655 S
C551 C553 1.419 1_655 S
C552 C550 1.415 . S
C552 C557 1.425 . S
C552 C559 1.409 . S
C553 H545 0.930 1_565 S
C553 C551 1.419 1_455 S
C553 C554 1.362 . S
C554 H546 0.930 . S
C554 C553 1.362 . S
C554 C557 1.409 . S
C555 H547 0.930 . S
C555 C556 1.355 . S
C555 C557 1.415 . S
C556 C555 1.355 . S
C556 C558 1.419 . S
C557 C552 1.425 . S
C557 C554 1.409 . S
C557 C555 1.415 . S
C558 H548 0.930 . S
C558 C556 1.419 . S
C558 C559 1.362 . S
C559 H549 0.930 . S
C559 C552 1.409 . S
C559 C558 1.362 . S
H560 C566 0.930 . S
H561 C569 0.930 . S
H562 C570 0.930 . S
H563 C571 0.930 . S
H564 C574 0.929 1_554 S
H565 C575 0.935 . S
C566 H560 0.930 . S
C566 C567 1.355 . S
C566 C568 1.415 . S
C567 C566 1.355 . S
C567 C569 1.419 . S
C568 C566 1.415 . S
C568 C573 1.425 . S
C568 C575 1.409 . S
C569 H561 0.930 . S
C569 C567 1.419 . S
C569 C570 1.362 . S
C570 H562 0.930 . S
C570 C569 1.362 . S
C570 C573 1.409 . S
C571 H563 0.930 . S
C571 C572 1.355 . S
C571 C573 1.415 . S
C572 C571 1.355 . S
C572 C574 1.420 . S
C573 C568 1.425 . S
C573 C570 1.409 . S
C573 C571 1.415 . S
C574 H564 0.929 1_556 S
C574 C572 1.420 . S
C574 C575 1.363 . S
C575 H565 0.935 . S
C575 C568 1.409 . S
C575 C574 1.363 . S
H576 C582 0.930 . S
H577 C585 0.930 . S
H578 C586 0.930 . S
H579 C587 0.930 . S
H580 C590 0.930 . S
H581 C591 0.930 . S
C582 H576 0.930 . S
C582 C583 1.355 1_565 S
C582 C584 1.415 . S
C583 C582 1.355 1_545 S
C583 C585 1.419 . S
C584 C582 1.415 . S
C584 C589 1.425 1_565 S
C584 C591 1.409 . S
C585 H577 0.930 . S
C585 C583 1.419 . S
C585 C586 1.362 . S
C586 H578 0.930 . S
C586 C585 1.362 . S
C586 C589 1.409 . S
C587 H579 0.930 . S
C587 C588 1.355 . S
C587 C589 1.415 . S
C588 C587 1.355 . S
C588 C590 1.419 1_545 S
C589 C584 1.425 1_545 S
C589 C586 1.409 . S
C589 C587 1.415 . S
C590 H580 0.930 . S
C590 C588 1.419 1_565 S
C590 C591 1.362 . S
C591 H581 0.930 . S
C591 C584 1.409 . S
C591 C590 1.362 . S
H592 C598 0.930 . S
H593 C601 0.930 . S
H594 C602 0.930 . S
H595 C603 0.930 . S
H596 C606 0.930 . S
H597 C607 0.930 . S
C598 H592 0.930 . S
C598 C599 1.355 . S
C598 C600 1.415 . S
C599 C598 1.355 . S
C599 C601 1.419 . S
C600 C598 1.415 . S
C600 C605 1.425 . S
C600 C607 1.409 . S
C601 H593 0.930 . S
C601 C599 1.419 . S
C601 C602 1.362 . S
C602 H594 0.930 . S
C602 C601 1.362 . S
C602 C605 1.409 . S
C603 H595 0.930 . S
C603 C604 1.355 . S
C603 C605 1.415 . S
C604 C603 1.355 . S
C604 C606 1.419 . S
C605 C600 1.425 . S
C605 C602 1.409 . S
C605 C603 1.415 . S
C606 H596 0.930 . S
C606 C604 1.419 . S
C606 C607 1.362 . S
C607 H597 0.930 . S
C607 C600 1.409 . S
C607 C606 1.362 . S
H608 C614 0.930 . S
H609 C617 0.930 . S
H610 C618 0.930 . S
H611 C619 0.930 . S
H612 C622 0.930 . S
H613 C623 0.930 . S
C614 H608 0.930 . S
C614 C615 1.355 . S
C614 C616 1.415 . S
C615 C614 1.355 . S
C615 C617 1.419 . S
C616 C614 1.415 . S
C616 C621 1.425 . S
C616 C623 1.409 . S
C617 H609 0.930 . S
C617 C615 1.419 . S
C617 C618 1.362 . S
C618 H610 0.930 . S
C618 C617 1.362 . S
C618 C621 1.409 . S
C619 H611 0.930 . S
C619 C620 1.355 . S
C619 C621 1.415 . S
C620 C619 1.355 . S
C620 C622 1.419 . S
C621 C616 1.425 . S
C621 C618 1.409 . S
C621 C619 1.415 . S
C622 H612 0.930 . S
C622 C620 1.419 . S
C622 C623 1.362 . S
C623 H613 0.930 . S
C623 C616 1.409 . S
C623 C622 1.362 . S
H624 C630 0.930 . S
H625 C633 0.930 . S
H626 C634 0.930 . S
H627 C635 0.930 . S
H628 C638 0.930 . S
H629 C639 0.930 . S
C630 H624 0.930 . S
C630 C631 1.355 . S
C630 C632 1.415 . S
C631 C630 1.355 . S
C631 C633 1.419 . S
C632 C630 1.415 . S
C632 C637 1.425 1_455 S
C632 C639 1.409 1_455 S
C633 H625 0.930 . S
C633 C631 1.419 . S
C633 C634 1.362 . S
C634 H626 0.930 . S
C634 C633 1.362 . S
C634 C637 1.409 1_455 S
C635 H627 0.930 . S
C635 C636 1.355 . S
C635 C637 1.415 . S
C636 C635 1.355 . S
C636 C638 1.419 . S
C637 C632 1.425 1_655 S
C637 C634 1.409 1_655 S
C637 C635 1.415 . S
C638 H628 0.930 . S
C638 C636 1.419 . S
C638 C639 1.362 . S
C639 H629 0.930 . S
C639 C632 1.409 1_655 S
C639 C638 1.362 . S
H640 C646 0.930 . S
H641 C649 0.930 . S
H642 C650 0.930 . S
H643 C651 0.930 . S
H644 C654 0.930 . S
H645 C655 0.930 . S
C646 H640 0.930 . S
C646 C647 1.355 . S
C646 C648 1.415 . S
C647 C646 1.355 . S
C647 C649 1.419 . S
C648 C646 1.415 . S
C648 C653 1.425 . S
C648 C655 1.409 . S
C649 H641 0.930 . S
C649 C647 1.419 . S
C649 C650 1.362 . S
C650 H642 0.930 . S
C650 C649 1.362 . S
C650 C653 1.409 . S
C651 H643 0.930 . S
C651 C652 1.355 . S
C651 C653 1.415 . S
C652 C651 1.355 . S
C652 C654 1.419 . S
C653 C648 1.425 . S
C653 C650 1.409 . S
C653 C651 1.415 . S
C654 H644 0.930 . S
C654 C652 1.419 . S
C654 C655 1.362 . S
C655 H645 0.930 . S
C655 C648 1.409 . S
C655 C654 1.362 . S
H656 C662 0.930 . S
H657 C665 0.930 . S
H658 C666 0.930 . S
H659 C667 0.930 . S
H660 C670 0.930 . S
H661 C671 0.930 . S
C662 H656 0.930 . S
C662 C663 1.355 . S
C662 C664 1.415 . S
C663 C662 1.355 . S
C663 C665 1.419 1_554 S
C664 C662 1.415 . S
C664 C669 1.425 1_554 S
C664 C671 1.409 . S
C665 H657 0.930 . S
C665 C663 1.419 1_556 S
C665 C666 1.362 . S
C666 H658 0.930 . S
C666 C665 1.362 . S
C666 C669 1.409 . S
C667 H659 0.930 . S
C667 C668 1.355 . S
C667 C669 1.415 . S
C668 C667 1.355 . S
C668 C670 1.419 1_556 S
C669 C664 1.425 1_556 S
C669 C666 1.409 . S
C669 C667 1.415 . S
C670 H660 0.930 . S
C670 C668 1.419 1_554 S
C670 C671 1.362 . S
C671 H661 0.930 . S
C671 C664 1.409 . S
C671 C670 1.362 . S
H672 C678 0.930 . S
H673 C681 0.930 . S
H674 C682 0.930 . S
H675 C683 0.930 . S
H676 C686 0.930 . S
H677 C687 0.930 . S
C678 H672 0.930 . S
C678 C679 1.355 . S
C678 C680 1.415 . S
C679 C678 1.355 . S
C679 C681 1.419 . S
C680 C678 1.415 . S
C680 C685 1.425 . S
C680 C687 1.409 . S
C681 H673 0.930 . S
C681 C679 1.419 . S
C681 C682 1.362 . S
C682 H674 0.930 . S
C682 C681 1.362 . S
C682 C685 1.409 . S
C683 H675 0.930 . S
C683 C684 1.355 . S
C683 C685 1.415 . S
C684 C683 1.355 . S
C684 C686 1.419 . S
C685 C680 1.425 . S
C685 C682 1.409 . S
C685 C683 1.415 . S
C686 H676 0.930 . S
C686 C684 1.419 . S
C686 C687 1.362 . S
C687 H677 0.930 . S
C687 C680 1.409 . S
C687 C686 1.362 . S
H688 C694 0.930 . S
H689 C697 0.930 . S
H690 C698 0.930 . S
H691 C699 0.930 . S
H692 C702 0.930 . S
H693 C703 0.930 . S
C694 H688 0.930 . S
C694 C695 1.355 . S
C694 C696 1.415 . S
C695 C694 1.355 . S
C695 C697 1.419 . S
C696 C694 1.415 . S
C696 C701 1.425 . S
C696 C703 1.409 . S
C697 H689 0.930 . S
C697 C695 1.419 . S
C697 C698 1.362 . S
C698 H690 0.930 . S
C698 C697 1.362 . S
C698 C701 1.409 . S
C699 H691 0.930 . S
C699 C700 1.355 . S
C699 C701 1.415 . S
C700 C699 1.355 . S
C700 C702 1.419 . S
C701 C696 1.425 . S
C701 C698 1.409 . S
C701 C699 1.415 . S
C702 H692 0.930 . S
C702 C700 1.419 . S
C702 C703 1.362 . S
C703 H693 0.930 . S
C703 C696 1.409 . S
C703 C702 1.362 . S
H704 C710 0.930 . S
H705 C713 0.930 . S
H706 C714 0.930 . S
H707 C715 0.930 . S
H708 C718 0.930 . S
H709 C719 0.930 . S
C710 H704 0.930 . S
C710 C711 1.355 . S
C710 C712 1.415 1_565 S
C711 C710 1.355 . S
C711 C713 1.419 1_556 S
C712 C710 1.415 1_545 S
C712 C717 1.425 1_546 S
C712 C719 1.409 . S
C713 H705 0.930 . S
C713 C711 1.419 1_554 S
C713 C714 1.362 . S
C714 H706 0.930 . S
C714 C713 1.362 . S
C714 C717 1.409 . S
C715 H707 0.930 . S
C715 C716 1.355 . S
C715 C717 1.415 1_545 S
C716 C715 1.355 . S
C716 C718 1.419 1_554 S
C717 C712 1.425 1_564 S
C717 C714 1.409 . S
C717 C715 1.415 1_565 S
C718 H708 0.930 . S
C718 C716 1.419 1_556 S
C718 C719 1.362 . S
C719 H709 0.930 . S
C719 C712 1.409 . S
C719 C718 1.362 . S
H720 C726 0.930 . S
H721 C729 0.930 . S
H722 C730 0.930 . S
H723 C731 0.930 . S
H724 C734 0.930 . S
H725 C735 0.930 . S
C726 H720 0.930 . S
C726 C727 1.355 . S
C726 C728 1.415 . S
C727 C726 1.355 . S
C727 C729 1.419 . S
C728 C726 1.415 . S
C728 C733 1.425 1_465 S
C728 C735 1.409 1_465 S
C729 H721 0.930 . S
C729 C727 1.419 . S
C729 C730 1.362 . S
C730 H722 0.930 . S
C730 C729 1.362 . S
C730 C733 1.409 1_465 S
C731 H723 0.930 . S
C731 C732 1.355 . S
C731 C733 1.415 . S
C732 C731 1.355 . S
C732 C734 1.419 . S
C733 C728 1.425 1_645 S
C733 C730 1.409 1_645 S
C733 C731 1.415 . S
C734 H724 0.930 . S
C734 C732 1.419 . S
C734 C735 1.362 . S
C735 H725 0.930 . S
C735 C728 1.409 1_645 S
C735 C734 1.362 . S
H736 C742 0.930 . S
H737 C745 0.930 . S
H738 C746 0.930 . S
H739 C747 0.930 . S
H740 C750 0.930 . S
H741 C751 0.930 . S
C742 H736 0.930 . S
C742 C743 1.355 . S
C742 C744 1.415 . S
C743 C742 1.355 . S
C743 C745 1.419 . S
C744 C742 1.415 . S
C744 C749 1.425 . S
C744 C751 1.409 . S
C745 H737 0.930 . S
C745 C743 1.419 . S
C745 C746 1.362 . S
C746 H738 0.930 . S
C746 C745 1.362 . S
C746 C749 1.409 . S
C747 H739 0.930 . S
C747 C748 1.355 . S
C747 C749 1.415 . S
C748 C747 1.355 . S
C748 C750 1.419 . S
C749 C744 1.425 . S
C749 C746 1.409 . S
C749 C747 1.415 . S
C750 H740 0.930 . S
C750 C748 1.419 . S
C750 C751 1.362 . S
C751 H741 0.930 . S
C751 C744 1.409 . S
C751 C750 1.362 . S
H752 C758 0.930 . S
H753 C761 0.930 . S
H754 C762 0.930 . S
H755 C763 0.930 . S
H756 C766 0.930 . S
H757 C767 0.930 . S
C758 H752 0.930 . S
C758 C759 1.355 . S
C758 C760 1.415 . S
C759 C758 1.355 . S
C759 C761 1.419 . S
C760 C758 1.415 . S
C760 C765 1.425 . S
C760 C767 1.409 . S
C761 H753 0.930 . S
C761 C759 1.419 . S
C761 C762 1.362 . S
C762 H754 0.930 . S
C762 C761 1.362 . S
C762 C765 1.409 . S
C763 H755 0.930 . S
C763 C764 1.355 . S
C763 C765 1.415 . S
C764 C763 1.355 . S
C764 C766 1.419 . S
C765 C760 1.425 . S
C765 C762 1.409 . S
C765 C763 1.415 . S
C766 H756 0.930 . S
C766 C764 1.419 . S
C766 C767 1.362 . S
C767 H757 0.930 . S
C767 C760 1.409 . S
C767 C766 1.362 . S
H768 C774 0.930 . S
H769 C777 0.930 . S
H770 C778 0.930 . S
H771 C779 0.930 . S
H772 C782 0.930 . S
H773 C783 0.930 . S
C774 H768 0.930 . S
C774 C775 1.355 . S
C774 C776 1.415 . S
C775 C774 1.355 . S
C775 C777 1.419 . S
C776 C774 1.415 . S
C776 C781 1.425 . S
C776 C783 1.409 . S
C777 H769 0.930 . S
C777 C775 1.419 . S
C777 C778 1.362 . S
C778 H770 0.930 . S
C778 C777 1.362 . S
C778 C781 1.409 . S
C779 H771 0.930 . S
C779 C780 1.355 . S
C779 C781 1.415 . S
C780 C779 1.355 . S
C780 C782 1.419 . S
C781 C776 1.425 . S
C781 C778 1.409 . S
C781 C779 1.415 . S
C782 H772 0.930 . S
C782 C780 1.419 . S
C782 C783 1.362 . S
C783 H773 0.930 . S
C783 C776 1.409 . S
C783 C782 1.362 . S
H784 C790 0.930 . S
H785 C793 0.930 . S
H786 C794 0.930 . S
H787 C795 0.930 . S
H788 C798 0.930 . S
H789 C799 0.930 . S
C790 H784 0.930 . S
C790 C791 1.355 . S
C790 C792 1.415 . S
C791 C790 1.355 . S
C791 C793 1.419 . S
C792 C790 1.415 . S
C792 C797 1.425 . S
C792 C799 1.409 . S
C793 H785 0.930 . S
C793 C791 1.419 . S
C793 C794 1.362 . S
C794 H786 0.930 . S
C794 C793 1.362 . S
C794 C797 1.409 . S
C795 H787 0.930 . S
C795 C796 1.355 . S
C795 C797 1.415 . S
C796 C795 1.355 . S
C796 C798 1.419 . S
C797 C792 1.425 . S
C797 C794 1.409 . S
C797 C795 1.415 . S
C798 H788 0.930 . S
C798 C796 1.419 . S
C798 C799 1.362 . S
C799 H789 0.930 . S
C799 C792 1.409 . S
C799 C798 1.362 . S
H800 C806 0.930 . S
H801 C809 0.930 . S
H802 C810 0.930 . S
H803 C811 0.930 . S
H804 C814 0.930 . S
H805 C815 0.930 . S
C806 H800 0.930 . S
C806 C807 1.355 . S
C806 C808 1.415 . S
C807 C806 1.355 . S
C807 C809 1.419 . S
C808 C806 1.415 . S
C808 C813 1.425 . S
C808 C815 1.409 . S
C809 H801 0.930 . S
C809 C807 1.419 . S
C809 C810 1.362 . S
C810 H802 0.930 . S
C810 C809 1.362 . S
C810 C813 1.409 . S
C811 H803 0.930 . S
C811 C812 1.355 . S
C811 C813 1.415 . S
C812 C811 1.355 . S
C812 C814 1.419 . S
C813 C808 1.425 . S
C813 C810 1.409 . S
C813 C811 1.415 . S
C814 H804 0.930 . S
C814 C812 1.419 . S
C814 C815 1.362 . S
C815 H805 0.930 . S
C815 C808 1.409 . S
C815 C814 1.362 . S
H816 C822 0.930 . S
H817 C825 0.930 . S
H818 C826 0.930 . S
H819 C827 0.930 . S
H820 C830 0.930 . S
H821 C831 0.930 . S
C822 H816 0.930 . S
C822 C823 1.355 . S
C822 C824 1.415 . S
C823 C822 1.355 . S
C823 C825 1.419 . S
C824 C822 1.415 . S
C824 C829 1.425 . S
C824 C831 1.409 . S
C825 H817 0.930 . S
C825 C823 1.419 . S
C825 C826 1.362 . S
C826 H818 0.930 . S
C826 C825 1.362 . S
C826 C829 1.409 . S
C827 H819 0.930 . S
C827 C828 1.355 . S
C827 C829 1.415 . S
C828 C827 1.355 . S
C828 C830 1.419 . S
C829 C824 1.425 . S
C829 C826 1.409 . S
C829 C827 1.415 . S
C830 H820 0.930 . S
C830 C828 1.419 . S
C830 C831 1.362 . S
C831 H821 0.930 . S
C831 C824 1.409 . S
C831 C830 1.362 . S
H832 C838 0.930 . S
H833 C841 0.930 . S
H834 C842 0.930 . S
H835 C843 0.930 . S
H836 C846 0.930 . S
H837 C847 0.930 . S
C838 H832 0.930 . S
C838 C839 1.355 . S
C838 C840 1.415 . S
C839 C838 1.355 . S
C839 C841 1.419 . S
C840 C838 1.415 . S
C840 C845 1.425 . S
C840 C847 1.409 . S
C841 H833 0.930 . S
C841 C839 1.419 . S
C841 C842 1.362 . S
C842 H834 0.930 . S
C842 C841 1.362 . S
C842 C845 1.409 . S
C843 H835 0.930 . S
C843 C844 1.355 . S
C843 C845 1.415 . S
C844 C843 1.355 . S
C844 C846 1.419 . S
C845 C840 1.425 . S
C845 C842 1.409 . S
C845 C843 1.415 . S
C846 H836 0.930 . S
C846 C844 1.419 . S
C846 C847 1.362 . S
C847 H837 0.930 . S
C847 C840 1.409 . S
C847 C846 1.362 . S
H848 C854 0.930 . S
H849 C857 0.930 . S
H850 C858 0.930 . S
H851 C859 0.930 . S
H852 C862 0.930 . S
H853 C863 0.930 . S
C854 H848 0.930 . S
C854 C855 1.355 . S
C854 C856 1.415 . S
C855 C854 1.355 . S
C855 C857 1.419 . S
C856 C854 1.415 . S
C856 C861 1.425 . S
C856 C863 1.409 . S
C857 H849 0.930 . S
C857 C855 1.419 . S
C857 C858 1.362 . S
C858 H850 0.930 . S
C858 C857 1.362 . S
C858 C861 1.409 . S
C859 H851 0.930 . S
C859 C860 1.355 . S
C859 C861 1.415 . S
C860 C859 1.355 . S
C860 C862 1.419 . S
C861 C856 1.425 . S
C861 C858 1.409 . S
C861 C859 1.415 . S
C862 H852 0.930 . S
C862 C860 1.419 . S
C862 C863 1.362 . S
C863 H853 0.930 . S
C863 C856 1.409 . S
C863 C862 1.362 . S
H864 C870 0.930 . S
H865 C873 0.930 . S
H866 C874 0.930 . S
H867 C875 0.930 1_545 S
H868 C878 0.930 . S
H869 C879 0.930 . S
C870 H864 0.930 . S
C870 C871 1.355 . S
C870 C872 1.415 . S
C871 C870 1.355 . S
C871 C873 1.419 1_565 S
C872 C870 1.415 . S
C872 C877 1.425 . S
C872 C879 1.409 . S
C873 H865 0.930 . S
C873 C871 1.419 1_545 S
C873 C874 1.362 . S
C874 H866 0.930 . S
C874 C873 1.362 . S
C874 C877 1.409 1_545 S
C875 H867 0.930 1_565 S
C875 C876 1.355 . S
C875 C877 1.415 . S
C876 C875 1.355 . S
C876 C878 1.419 . S
C877 C872 1.425 . S
C877 C874 1.409 1_565 S
C877 C875 1.415 . S
C878 H868 0.930 . S
C878 C876 1.419 . S
C878 C879 1.362 . S
C879 H869 0.930 . S
C879 C872 1.409 . S
C879 C878 1.362 . S
H880 C886 0.930 . S
H881 C889 0.930 . S
H882 C890 0.930 . S
H883 C891 0.930 . S
H884 C894 0.930 1_545 S
H885 C895 0.930 . S
C886 H880 0.930 . S
C886 C887 1.355 . S
C886 C888 1.415 . S
C887 C886 1.355 . S
C887 C889 1.419 . S
C888 C886 1.415 . S
C888 C893 1.425 . S
C888 C895 1.409 . S
C889 H881 0.930 . S
C889 C887 1.419 . S
C889 C890 1.362 . S
C890 H882 0.930 . S
C890 C889 1.362 . S
C890 C893 1.409 . S
C891 H883 0.930 . S
C891 C892 1.355 . S
C891 C893 1.415 . S
C892 C891 1.355 . S
C892 C894 1.419 . S
C893 C888 1.425 . S
C893 C890 1.409 . S
C893 C891 1.415 . S
C894 H884 0.930 1_565 S
C894 C892 1.419 . S
C894 C895 1.362 . S
C895 H885 0.930 . S
C895 C888 1.409 . S
C895 C894 1.362 . S
H896 C902 0.934 . S
H897 C905 0.930 . S
H898 C906 0.930 . S
H899 C907 0.930 . S
H900 C910 0.930 . S
H901 C911 0.930 . S
C902 H896 0.934 . S
C902 C903 1.355 . S
C902 C904 1.415 . S
C903 C902 1.355 . S
C903 C905 1.419 . S
C904 C902 1.415 . S
C904 C909 1.425 . S
C904 C911 1.409 1_545 S
C905 H897 0.930 . S
C905 C903 1.419 . S
C905 C906 1.362 . S
C906 H898 0.930 . S
C906 C905 1.362 . S
C906 C909 1.409 . S
C907 H899 0.930 . S
C907 C908 1.355 . S
C907 C909 1.415 . S
C908 C907 1.355 . S
C908 C910 1.419 1_545 S
C909 C904 1.425 . S
C909 C906 1.409 . S
C909 C907 1.415 . S
C910 H900 0.930 . S
C910 C908 1.419 1_565 S
C910 C911 1.362 . S
C911 H901 0.930 . S
C911 C904 1.409 1_565 S
C911 C910 1.362 . S
H912 C918 0.930 . S
H913 C921 0.930 . S
H914 C922 0.930 . S
H915 C923 0.930 . S
H916 C926 0.930 . S
H917 C927 0.930 1_565 S
C918 H912 0.930 . S
C918 C919 1.355 . S
C918 C920 1.415 . S
C919 C918 1.355 . S
C919 C921 1.419 . S
C920 C918 1.415 . S
C920 C925 1.425 . S
C920 C927 1.409 . S
C921 H913 0.930 . S
C921 C919 1.419 . S
C921 C922 1.362 . S
C922 H914 0.930 . S
C922 C921 1.362 . S
C922 C925 1.409 . S
C923 H915 0.930 . S
C923 C924 1.355 . S
C923 C925 1.415 . S
C924 C923 1.355 . S
C924 C926 1.419 1_545 S
C925 C920 1.425 . S
C925 C922 1.409 . S
C925 C923 1.415 . S
C926 H916 0.930 . S
C926 C924 1.419 1_565 S
C926 C927 1.362 1_565 S
C927 H917 0.930 1_545 S
C927 C920 1.409 . S
C927 C926 1.362 1_545 S
H928 C934 0.930 . S
H929 C937 0.930 . S
H930 C938 0.930 . S
H931 C939 0.930 . S
H932 C942 0.930 . S
H933 C943 0.930 . S
C934 H928 0.930 . S
C934 C935 1.355 . S
C934 C936 1.415 . S
C935 C934 1.355 . S
C935 C937 1.419 . S
C936 C934 1.415 . S
C936 C941 1.425 . S
C936 C943 1.409 . S
C937 H929 0.930 . S
C937 C935 1.419 . S
C937 C938 1.362 . S
C938 H930 0.930 . S
C938 C937 1.362 . S
C938 C941 1.409 . S
C939 H931 0.930 . S
C939 C940 1.355 . S
C939 C941 1.415 . S
C940 C939 1.355 . S
C940 C942 1.419 . S
C941 C936 1.425 . S
C941 C938 1.409 . S
C941 C939 1.415 . S
C942 H932 0.930 . S
C942 C940 1.419 . S
C942 C943 1.362 . S
C943 H933 0.930 . S
C943 C936 1.409 . S
C943 C942 1.362 . S
H944 C950 0.930 . S
H945 C953 0.930 . S
H946 C954 0.930 . S
H947 C955 0.930 . S
H948 C958 0.930 . S
H949 C959 0.930 . S
C950 H944 0.930 . S
C950 C951 1.355 . S
C950 C952 1.415 . S
C951 C950 1.355 . S
C951 C953 1.419 . S
C952 C950 1.415 . S
C952 C957 1.425 . S
C952 C959 1.409 . S
C953 H945 0.930 . S
C953 C951 1.419 . S
C953 C954 1.362 . S
C954 H946 0.930 . S
C954 C953 1.362 . S
C954 C957 1.409 . S
C955 H947 0.930 . S
C955 C956 1.355 . S
C955 C957 1.415 . S
C956 C955 1.355 . S
C956 C958 1.419 . S
C957 C952 1.425 . S
C957 C954 1.409 . S
C957 C955 1.415 . S
C958 H948 0.930 . S
C958 C956 1.419 . S
C958 C959 1.362 . S
C959 H949 0.930 . S
C959 C952 1.409 . S
C959 C958 1.362 . S
H960 C966 0.930 . S
H961 C969 0.930 . S
H962 C970 0.930 . S
H963 C971 0.930 . S
H964 C974 0.936 . S
H965 C975 0.930 . S
C966 H960 0.930 . S
C966 C967 1.355 1_545 S
C966 C968 1.415 1_545 S
C967 C966 1.355 1_565 S
C967 C969 1.419 . S
C968 C966 1.415 1_565 S
C968 C973 1.425 . S
C968 C975 1.409 1_565 S
C969 H961 0.930 . S
C969 C967 1.419 . S
C969 C970 1.362 . S
C970 H962 0.930 . S
C970 C969 1.362 . S
C970 C973 1.409 . S
C971 H963 0.930 . S
C971 C972 1.355 . S
C971 C973 1.415 . S
C972 C971 1.355 . S
C972 C974 1.408 1_565 S
C973 C968 1.425 . S
C973 C970 1.409 . S
C973 C971 1.415 . S
C974 H964 0.936 . S
C974 C972 1.408 1_545 S
C974 C975 1.367 . S
C975 H965 0.930 . S
C975 C968 1.409 1_545 S
C975 C974 1.367 . S
H976 C982 0.930 . S
H977 C985 0.930 . S
H978 C986 0.930 . S
H979 C987 0.930 . S
H980 C990 0.930 . S
H981 C991 0.930 . S
C982 H976 0.930 . S
C982 C983 1.355 . S
C982 C984 1.415 . S
C983 C982 1.355 . S
C983 C985 1.419 . S
C984 C982 1.415 . S
C984 C989 1.425 . S
C984 C991 1.409 . S
C985 H977 0.930 . S
C985 C983 1.419 . S
C985 C986 1.362 . S
C986 H978 0.930 . S
C986 C985 1.362 . S
C986 C989 1.409 . S
C987 H979 0.930 . S
C987 C988 1.355 . S
C987 C989 1.415 . S
C988 C987 1.355 . S
C988 C990 1.419 . S
C989 C984 1.425 . S
C989 C986 1.409 . S
C989 C987 1.415 . S
C990 H980 0.930 . S
C990 C988 1.419 . S
C990 C991 1.362 . S
C991 H981 0.930 . S
C991 C984 1.409 . S
C991 C990 1.362 . S
H992 C998 0.930 . S
H993 C1001 0.930 . S
H994 C1002 0.930 1_655 S
H995 C1003 0.930 . S
H996 C1006 0.930 . S
H997 C1007 0.930 1_455 S
C998 H992 0.930 . S
C998 C999 1.355 . S
C998 C1000 1.415 . S
C999 C998 1.355 . S
C999 C1001 1.419 . S
C1000 C998 1.415 . S
C1000 C1005 1.425 1_455 S
C1000 C1007 1.409 1_455 S
C1001 H993 0.930 . S
C1001 C999 1.419 . S
C1001 C1002 1.362 . S
C1002 H994 0.930 1_455 S
C1002 C1001 1.362 . S
C1002 C1005 1.409 1_455 S
C1003 H995 0.930 . S
C1003 C1004 1.355 . S
C1003 C1005 1.415 . S
C1004 C1003 1.355 . S
C1004 C1006 1.419 . S
C1005 C1000 1.425 1_655 S
C1005 C1002 1.409 1_655 S
C1005 C1003 1.415 . S
C1006 H996 0.930 . S
C1006 C1004 1.419 . S
C1006 C1007 1.362 . S
C1007 H997 0.930 1_655 S
C1007 C1000 1.409 1_655 S
C1007 C1006 1.362 . S
H1008 C1014 0.930 . S
H1009 C1017 0.930 . S
H1010 C1018 0.930 . S
H1011 C1019 0.930 . S
H1012 C1022 0.930 . S
H1013 C1023 0.930 . S
C1014 H1008 0.930 . S
C1014 C1015 1.355 . S
C1014 C1016 1.415 1_455 S
C1015 C1014 1.355 . S
C1015 C1017 1.419 . S
C1016 C1014 1.415 1_655 S
C1016 C1021 1.425 1_655 S
C1016 C1023 1.409 . S
C1017 H1009 0.930 . S
C1017 C1015 1.419 . S
C1017 C1018 1.362 . S
C1018 H1010 0.930 . S
C1018 C1017 1.362 . S
C1018 C1021 1.409 . S
C1019 H1011 0.930 . S
C1019 C1020 1.355 . S
C1019 C1021 1.415 1_655 S
C1020 C1019 1.355 . S
C1020 C1022 1.419 . S
C1021 C1016 1.425 1_455 S
C1021 C1018 1.409 . S
C1021 C1019 1.415 1_455 S
C1022 H1012 0.930 . S
C1022 C1020 1.419 . S
C1022 C1023 1.362 . S
C1023 H1013 0.930 . S
C1023 C1016 1.409 . S
C1023 C1022 1.362 . S
H1024 C1030 0.930 . S
H1025 C1033 0.930 . S
H1026 C1034 0.930 . S
H1027 C1035 0.930 . S
H1028 C1038 0.930 . S
H1029 C1039 0.930 . S
C1030 H1024 0.930 . S
C1030 C1031 1.355 . S
C1030 C1032 1.415 . S
C1031 C1030 1.355 . S
C1031 C1033 1.419 . S
C1032 C1030 1.415 . S
C1032 C1037 1.425 . S
C1032 C1039 1.409 . S
C1033 H1025 0.930 . S
C1033 C1031 1.419 . S
C1033 C1034 1.362 . S
C1034 H1026 0.930 . S
C1034 C1033 1.362 . S
C1034 C1037 1.409 . S
C1035 H1027 0.930 . S
C1035 C1036 1.355 . S
C1035 C1037 1.415 . S
C1036 C1035 1.355 . S
C1036 C1038 1.419 . S
C1037 C1032 1.425 . S
C1037 C1034 1.409 . S
C1037 C1035 1.415 . S
C1038 H1028 0.930 . S
C1038 C1036 1.419 . S
C1038 C1039 1.362 . S
C1039 H1029 0.930 . S
C1039 C1032 1.409 . S
C1039 C1038 1.362 . S
H1040 C1046 0.930 . S
H1041 C1049 0.930 . S
H1042 C1050 0.930 . S
H1043 C1051 0.930 . S
H1044 C1054 0.930 . S
H1045 C1055 0.930 . S
C1046 H1040 0.930 . S
C1046 C1047 1.355 . S
C1046 C1048 1.415 . S
C1047 C1046 1.355 . S
C1047 C1049 1.419 . S
C1048 C1046 1.415 . S
C1048 C1053 1.425 . S
C1048 C1055 1.409 . S
C1049 H1041 0.930 . S
C1049 C1047 1.419 . S
C1049 C1050 1.362 . S
C1050 H1042 0.930 . S
C1050 C1049 1.362 . S
C1050 C1053 1.409 . S
C1051 H1043 0.930 . S
C1051 C1052 1.355 . S
C1051 C1053 1.415 . S
C1052 C1051 1.355 . S
C1052 C1054 1.419 . S
C1053 C1048 1.425 . S
C1053 C1050 1.409 . S
C1053 C1051 1.415 . S
C1054 H1044 0.930 . S
C1054 C1052 1.419 . S
C1054 C1055 1.362 . S
C1055 H1045 0.930 . S
C1055 C1048 1.409 . S
C1055 C1054 1.362 . S
H1056 C1062 0.930 . S
H1057 C1065 0.930 . S
H1058 C1066 0.930 . S
H1059 C1067 0.930 . S
H1060 C1070 0.930 . S
H1061 C1071 0.930 . S
C1062 H1056 0.930 . S
C1062 C1063 1.355 . S
C1062 C1064 1.415 1_455 S
C1063 C1062 1.355 . S
C1063 C1065 1.419 . S
C1064 C1062 1.415 1_655 S
C1064 C1069 1.425 1_655 S
C1064 C1071 1.409 . S
C1065 H1057 0.930 . S
C1065 C1063 1.419 . S
C1065 C1066 1.362 . S
C1066 H1058 0.930 . S
C1066 C1065 1.362 . S
C1066 C1069 1.409 . S
C1067 H1059 0.930 . S
C1067 C1068 1.355 . S
C1067 C1069 1.415 1_655 S
C1068 C1067 1.355 . S
C1068 C1070 1.419 . S
C1069 C1064 1.425 1_455 S
C1069 C1066 1.409 . S
C1069 C1067 1.415 1_455 S
C1070 H1060 0.930 . S
C1070 C1068 1.419 . S
C1070 C1071 1.362 . S
C1071 H1061 0.930 . S
C1071 C1064 1.409 . S
C1071 C1070 1.362 . S
H1072 C1078 0.930 . S
H1073 C1081 0.930 . S
H1074 C1082 0.930 . S
H1075 C1083 0.930 . S
H1076 C1086 0.930 . S
H1077 C1087 0.930 . S
C1078 H1072 0.930 . S
C1078 C1079 1.355 . S
C1078 C1080 1.415 1_655 S
C1079 C1078 1.355 . S
C1079 C1081 1.419 . S
C1080 C1078 1.415 1_455 S
C1080 C1085 1.425 1_455 S
C1080 C1087 1.409 . S
C1081 H1073 0.930 . S
C1081 C1079 1.419 . S
C1081 C1082 1.362 . S
C1082 H1074 0.930 . S
C1082 C1081 1.362 . S
C1082 C1085 1.409 . S
C1083 H1075 0.930 . S
C1083 C1084 1.355 . S
C1083 C1085 1.415 1_455 S
C1084 C1083 1.355 . S
C1084 C1086 1.419 . S
C1085 C1080 1.425 1_655 S
C1085 C1082 1.409 . S
C1085 C1083 1.415 1_655 S
C1086 H1076 0.930 . S
C1086 C1084 1.419 . S
C1086 C1087 1.362 . S
C1087 H1077 0.930 . S
C1087 C1080 1.409 . S
C1087 C1086 1.362 . S
H1088 C1094 0.930 . S
H1089 C1097 0.930 . S
H1090 C1098 0.930 . S
H1091 C1099 0.930 . S
H1092 C1102 0.930 . S
H1093 C1103 0.930 . S
C1094 H1088 0.930 . S
C1094 C1095 1.355 . S
C1094 C1096 1.415 . S
C1095 C1094 1.355 . S
C1095 C1097 1.419 . S
C1096 C1094 1.415 . S
C1096 C1101 1.425 . S
C1096 C1103 1.409 . S
C1097 H1089 0.930 . S
C1097 C1095 1.419 . S
C1097 C1098 1.362 . S
C1098 H1090 0.930 . S
C1098 C1097 1.362 . S
C1098 C1101 1.409 . S
C1099 H1091 0.930 . S
C1099 C1100 1.355 . S
C1099 C1101 1.415 . S
C1100 C1099 1.355 . S
C1100 C1102 1.419 . S
C1101 C1096 1.425 . S
C1101 C1098 1.409 . S
C1101 C1099 1.415 . S
C1102 H1092 0.930 . S
C1102 C1100 1.419 . S
C1102 C1103 1.362 . S
C1103 H1093 0.930 . S
C1103 C1096 1.409 . S
C1103 C1102 1.362 . S
H1104 C1110 0.930 . S
H1105 C1113 0.930 . S
H1106 C1114 0.930 . S
H1107 C1115 0.930 . S
H1108 C1118 0.930 . S
H1109 C1119 0.930 . S
C1110 H1104 0.930 . S
C1110 C1111 1.355 . S
C1110 C1112 1.415 . S
C1111 C1110 1.355 . S
C1111 C1113 1.419 . S
C1112 C1110 1.415 . S
C1112 C1117 1.425 . S
C1112 C1119 1.409 . S
C1113 H1105 0.930 . S
C1113 C1111 1.419 . S
C1113 C1114 1.362 . S
C1114 H1106 0.930 . S
C1114 C1113 1.362 . S
C1114 C1117 1.409 . S
C1115 H1107 0.930 . S
C1115 C1116 1.355 . S
C1115 C1117 1.415 . S
C1116 C1115 1.355 . S
C1116 C1118 1.419 . S
C1117 C1112 1.425 . S
C1117 C1114 1.409 . S
C1117 C1115 1.415 . S
C1118 H1108 0.930 . S
C1118 C1116 1.419 . S
C1118 C1119 1.362 . S
C1119 H1109 0.930 . S
C1119 C1112 1.409 . S
C1119 C1118 1.362 . S
C359 C5 1.673 . S
C364 C136 1.635 . S
C375 C334 1.606 . S
C380 C27 1.675 . S
C391 C53 1.673 . S
C396 C96 1.582 . S
C407 C294 1.596 . S
C412 C71 1.670 . S
C423 C48 1.636 . S
C428 C94 1.669 . S
C439 C250 1.585 . S
C444 C116 1.674 . S
C455 C139 1.673 . S
C460 C8 1.582 . S
C471 C161 1.675 . S
C476 C206 1.607 . S
C487 C181 1.675 . S
C492 C312 1.609 . S
C503 C203 1.670 . S
C508 C158 1.599 . S
C519 C272 1.610 . S
C524 C229 1.675 . S
C535 C118 1.629 . S
C540 C247 1.669 . S
C551 C224 1.624 . S
C556 C270 1.674 . S
C567 C292 1.669 . S
C572 C74 1.640 . S
C583 C184 1.583 . S
C588 C315 1.672 . S
C599 C30 1.638 . S
C604 C337 1.669 . S
C615 C6 0.654 . S
C620 C269 0.654 . S
C631 C28 0.673 . S
C636 C115 0.673 . S
C647 C51 0.421 . S
C652 C317 0.421 . S
C663 C163 0.487 . S
C668 C72 0.487 . S
C679 C93 0.628 . S
C684 C182 0.628 . S
C695 C227 0.529 . S
C700 C141 0.529 . S
C711 C204 0.464 . S
C716 C291 0.464 . S
C727 C339 0.424 . S
C732 C248 0.424 . S
C743 C7 1.423 . S
C748 C26 1.520 . S
C759 C52 1.510 . S
C764 C29 1.441 . S
C775 C50 1.398 . S
C780 C70 1.493 . S
C791 C73 1.404 . S
C796 C4 1.493 . S
C807 C114 1.559 . S
C812 C97 1.500 . S
C823 C140 1.493 . S
C828 C119 1.397 . S
C839 C162 1.557 . S
C844 C137 1.500 . S
C855 C92 1.493 . S
C860 C159 1.402 . S
C871 C183 1.427 1_565 S
C876 C202 1.502 . S
C887 C205 1.480 . S
C892 C228 1.536 . S
C903 C246 1.494 . S
C908 C226 1.397 1_545 S
C919 C249 1.500 . S
C924 C180 1.558 . S
C935 C290 1.495 . S
C940 C273 1.397 1_545 S
C951 C295 1.414 . S
C956 C316 1.497 . S
C967 C313 1.494 1_565 S
C972 C338 1.560 . S
C983 C268 1.526 . S
C988 C335 1.466 . S
C999 C9 1.459 . S
C1004 C225 1.384 . S
C1015 C31 1.463 . S
C1020 C251 1.435 . S
C1031 C49 1.456 . S
C1036 C185 1.446 . S
C1047 C207 1.378 . S
C1052 C75 1.438 . S
C1063 C314 1.440 . S
C1068 C95 1.378 . S
C1079 C117 1.452 . S
C1084 C336 1.450 . S
C1095 C138 1.378 . S
C1100 C271 1.444 . S
C1111 C293 1.383 . S
C1116 C160 1.421 . S
