# Generated by pormake.
# Topology gis, (4)-cn, num edge types: 1
# Building blocks:
#     Node 0, Type 0, BuildingBlock: ICAMEG_clean_sbu_1, # of connection points: 4
#     Node 1, Type 0, BuildingBlock: ICAMEG_clean_sbu_1, # of connection points: 4
#     Node 2, Type 0, BuildingBlock: ICAMEG_clean_sbu_1, # of connection points: 4
#     Node 3, Type 0, BuildingBlock: ICAMEG_clean_sbu_1, # of connection points: 4
#     Node 4, Type 0, BuildingBlock: ICAMEG_clean_sbu_1, # of connection points: 4
#     Node 5, Type 0, BuildingBlock: ICAMEG_clean_sbu_1, # of connection points: 4
#     Node 6, Type 0, BuildingBlock: ICAMEG_clean_sbu_1, # of connection points: 4
#     Node 7, Type 0, BuildingBlock: ICAMEG_clean_sbu_1, # of connection points: 4
#     Node 8, Type 0, BuildingBlock: ICAMEG_clean_sbu_1, # of connection points: 4
#     Node 9, Type 0, BuildingBlock: ICAMEG_clean_sbu_1, # of connection points: 4
#     Node 10, Type 0, BuildingBlock: ICAMEG_clean_sbu_1, # of connection points: 4
#     Node 11, Type 0, BuildingBlock: ICAMEG_clean_sbu_1, # of connection points: 4
#     Node 12, Type 0, BuildingBlock: ICAMEG_clean_sbu_1, # of connection points: 4
#     Node 13, Type 0, BuildingBlock: ICAMEG_clean_sbu_1, # of connection points: 4
#     Node 14, Type 0, BuildingBlock: ICAMEG_clean_sbu_1, # of connection points: 4
#     Node 15, Type 0, BuildingBlock: ICAMEG_clean_sbu_1, # of connection points: 4
#     Edge 16, Type (0, 0), BuildingBlock: EZIPEK_clean_linker_0, # of connection points: 2
#     Edge 17, Type (0, 0), BuildingBlock: EZIPEK_clean_linker_0, # of connection points: 2
#     Edge 18, Type (0, 0), BuildingBlock: EZIPEK_clean_linker_0, # of connection points: 2
#     Edge 19, Type (0, 0), BuildingBlock: EZIPEK_clean_linker_0, # of connection points: 2
#     Edge 20, Type (0, 0), BuildingBlock: EZIPEK_clean_linker_0, # of connection points: 2
#     Edge 21, Type (0, 0), BuildingBlock: EZIPEK_clean_linker_0, # of connection points: 2
#     Edge 22, Type (0, 0), BuildingBlock: EZIPEK_clean_linker_0, # of connection points: 2
#     Edge 23, Type (0, 0), BuildingBlock: EZIPEK_clean_linker_0, # of connection points: 2
#     Edge 24, Type (0, 0), BuildingBlock: EZIPEK_clean_linker_0, # of connection points: 2
#     Edge 25, Type (0, 0), BuildingBlock: EZIPEK_clean_linker_0, # of connection points: 2
#     Edge 26, Type (0, 0), BuildingBlock: EZIPEK_clean_linker_0, # of connection points: 2
#     Edge 27, Type (0, 0), BuildingBlock: EZIPEK_clean_linker_0, # of connection points: 2
#     Edge 28, Type (0, 0), BuildingBlock: EZIPEK_clean_linker_0, # of connection points: 2
#     Edge 29, Type (0, 0), BuildingBlock: EZIPEK_clean_linker_0, # of connection points: 2
#     Edge 30, Type (0, 0), BuildingBlock: EZIPEK_clean_linker_0, # of connection points: 2
#     Edge 31, Type (0, 0), BuildingBlock: EZIPEK_clean_linker_0, # of connection points: 2
#     Edge 32, Type (0, 0), BuildingBlock: EZIPEK_clean_linker_0, # of connection points: 2
#     Edge 33, Type (0, 0), BuildingBlock: EZIPEK_clean_linker_0, # of connection points: 2
#     Edge 34, Type (0, 0), BuildingBlock: EZIPEK_clean_linker_0, # of connection points: 2
#     Edge 35, Type (0, 0), BuildingBlock: EZIPEK_clean_linker_0, # of connection points: 2
#     Edge 36, Type (0, 0), BuildingBlock: EZIPEK_clean_linker_0, # of connection points: 2
#     Edge 37, Type (0, 0), BuildingBlock: EZIPEK_clean_linker_0, # of connection points: 2
#     Edge 38, Type (0, 0), BuildingBlock: EZIPEK_clean_linker_0, # of connection points: 2
#     Edge 39, Type (0, 0), BuildingBlock: EZIPEK_clean_linker_0, # of connection points: 2
#     Edge 40, Type (0, 0), BuildingBlock: EZIPEK_clean_linker_0, # of connection points: 2
#     Edge 41, Type (0, 0), BuildingBlock: EZIPEK_clean_linker_0, # of connection points: 2
#     Edge 42, Type (0, 0), BuildingBlock: EZIPEK_clean_linker_0, # of connection points: 2
#     Edge 43, Type (0, 0), BuildingBlock: EZIPEK_clean_linker_0, # of connection points: 2
#     Edge 44, Type (0, 0), BuildingBlock: EZIPEK_clean_linker_0, # of connection points: 2
#     Edge 45, Type (0, 0), BuildingBlock: EZIPEK_clean_linker_0, # of connection points: 2
#     Edge 46, Type (0, 0), BuildingBlock: EZIPEK_clean_linker_0, # of connection points: 2
#     Edge 47, Type (0, 0), BuildingBlock: EZIPEK_clean_linker_0, # of connection points: 2
# Relax obj value: 0.027
# Max RMSD: 0.087
# Mean RMSD: 0.087
data_MOF--net-gis--node1-ICAMEG_clean_sbu_1--edge1-EZIPEK_clean_linker_0
_symmetry_space_group_name_H-M    P1
_symmetry_Int_Tables_number       1
_symmetry_cell_setting            triclinic
loop_
_symmetry_equiv_pos_as_xyz
'x, y, z'
_cell_length_a     43.347833
_cell_length_b     43.337001
_cell_length_c     26.990191
_cell_angle_alpha  90.051889
_cell_angle_beta   90.051842
_cell_angle_gamma 89.980559
loop_
_atom_site_label
_atom_site_type_symbol
_atom_site_fract_x
_atom_site_fract_y
_atom_site_fract_z
_atom_type_partial_charge
Co0 Co 0.12639 0.62313 0.05837 0.0
Co1 Co 0.12803 0.62827 0.18706 0.0
O2 O 0.14195 0.61089 0.12372 0.0
C3 C 0.11907 0.55519 0.06074 0.0
O4 O 0.11197 0.55743 0.10773 0.0
C5 C 0.19768 0.6229 0.19408 0.0
O6 O 0.19917 0.61237 0.14866 0.0
O7 O 0.13349 0.67098 0.16129 0.0
O8 O 0.12619 0.66779 0.07871 0.0
H9 H 0.06864 0.70198 0.29514 0.0
H10 H 0.18168 0.58259 0.05936 0.0
O11 O 0.12611 0.57901 0.03569 0.0
H12 H 0.21644 0.68002 0.98366 0.0
H13 H 0.12604 0.62097 0.87179 0.0
H14 H 0.07316 0.66003 0.02038 0.0
H15 H 0.16236 0.67353 0.00953 0.0
H16 H 0.14492 0.60745 0.95503 0.0
O17 O 0.17173 0.62965 0.21371 0.0
H18 H 0.08591 0.6793 0.21623 0.0
H19 H 0.14229 0.61533 0.29328 0.0
H20 H 0.05375 0.67457 0.93808 0.0
H21 H 0.23579 0.58785 0.03282 0.0
H22 H 0.08029 0.65503 0.86281 0.0
H23 H 0.25359 0.63696 0.99509 0.0
O24 O 0.08283 0.61844 0.08144 0.0
H25 H 0.15671 0.51663 0.21311 0.0
H26 H 0.0776 0.59643 0.24143 0.0
H27 H 0.06851 0.54347 0.27105 0.0
H28 H 0.10832 0.50314 0.25725 0.0
H29 H 0.16463 0.56964 0.18354 0.0
H30 H 0.12604 0.63751 0.37318 0.0
H31 H 0.08876 0.68106 0.37451 0.0
O32 O 0.0842 0.62823 0.16348 0.0
C33 C 0.13041 0.68327 0.11856 0.0
C34 C 0.0847 0.68284 0.2951 0.0
C35 C 0.11695 0.64673 0.33888 0.0
N36 N 0.11459 0.64559 0.24994 0.0
C37 C 0.09438 0.66977 0.25043 0.0
C38 C 0.12612 0.63427 0.29346 0.0
C39 C 0.09604 0.67115 0.3396 0.0
C40 C 0.18907 0.60386 0.04229 0.0
N41 N 0.16883 0.62774 0.03634 0.0
C42 C 0.21983 0.60678 0.02762 0.0
C43 C 0.22981 0.63436 0.00656 0.0
C44 C 0.209 0.65855 1.00024 0.0
C45 C 0.17842 0.6548 0.01535 0.0
C46 C 0.1146 0.63011 0.90427 0.0
C47 C 0.0855 0.65235 0.98817 0.0
C48 C 0.12531 0.62271 0.95161 0.0
N49 N 0.11122 0.63438 0.99293 0.0
C50 C 0.0741 0.66024 0.94145 0.0
C51 C 0.08891 0.64917 0.89925 0.0
C52 C 0.06968 0.62303 0.12315 0.0
C53 C 0.13934 0.53408 0.21991 0.0
C54 C 0.09514 0.5791 0.23542 0.0
C55 C 0.08983 0.54911 0.25227 0.0
C56 C 0.11215 0.5265 0.24451 0.0
N57 N 0.12207 0.58653 0.21189 0.0
C58 C 0.14385 0.56431 0.2036 0.0
Co59 Co 0.62855 0.87786 0.445 0.0
Co60 Co 0.62622 0.87227 0.31657 0.0
O61 O 0.64159 0.89114 0.37843 0.0
C62 C 0.63123 0.94762 0.44918 0.0
O63 O 0.64042 0.9492 0.40304 0.0
C64 C 0.69458 0.88212 0.30201 0.0
O65 O 0.69724 0.89332 0.34684 0.0
O66 O 0.63651 0.8305 0.34163 0.0
O67 O 0.62942 0.83357 0.4235 0.0
H68 H 0.56586 0.79428 0.21856 0.0
H69 H 0.68507 0.91724 0.43508 0.0
O70 O 0.62665 0.92165 0.47006 0.0
H71 H 0.71988 0.82267 0.51917 0.0
H72 H 0.62877 0.87826 0.63178 0.0
H73 H 0.57986 0.83566 0.48159 0.0
H74 H 0.66536 0.8293 0.49632 0.0
H75 H 0.647 0.89346 0.54883 0.0
O76 O 0.66842 0.87382 0.28498 0.0
H77 H 0.58522 0.81929 0.29458 0.0
H78 H 0.6352 0.88423 0.20856 0.0
H79 H 0.56087 0.81981 0.56379 0.0
H80 H 0.73964 0.91183 0.45798 0.0
H81 H 0.58547 0.84106 0.63967 0.0
H82 H 0.75753 0.86418 0.50019 0.0
O83 O 0.58458 0.88194 0.42547 0.0
H84 H 0.64542 0.98497 0.28183 0.0
H85 H 0.57047 0.89981 0.26965 0.0
H86 H 0.55578 0.95161 0.24068 0.0
H87 H 0.59341 0.99468 0.2465 0.0
H88 H 0.65895 0.93301 0.31108 0.0
H89 H 0.61661 0.85979 0.13158 0.0
H90 H 0.58157 0.81454 0.1363 0.0
O91 O 0.58383 0.8691 0.34479 0.0
C92 C 0.63548 0.81816 0.38444 0.0
C93 C 0.58103 0.81405 0.21601 0.0
C94 C 0.60955 0.85079 0.1672 0.0
N95 N 0.61111 0.85335 0.25603 0.0
C96 C 0.59199 0.82836 0.25894 0.0
C97 C 0.62006 0.8645 0.21092 0.0
C98 C 0.58988 0.82541 0.16987 0.0
C99 C 0.69235 0.89664 0.45397 0.0
N100 N 0.67169 0.8738 0.46453 0.0
C101 C 0.72345 0.89361 0.46664 0.0
C102 C 0.73349 0.86686 0.49022 0.0
C103 C 0.71239 0.84357 0.50083 0.0
C104 C 0.68148 0.84744 0.48758 0.0
C105 C 0.618 0.86867 0.59901 0.0
C106 C 0.59076 0.84493 0.51442 0.0
C107 C 0.62827 0.87716 0.55192 0.0
N108 N 0.61496 0.86496 0.51035 0.0
C109 C 0.57989 0.83589 0.56088 0.0
C110 C 0.59368 0.84783 0.60341 0.0
C111 C 0.57044 0.8755 0.38546 0.0
C112 C 0.62886 0.96637 0.27884 0.0
C113 C 0.58703 0.91836 0.27247 0.0
C114 C 0.57856 0.94768 0.25587 0.0
C115 C 0.59967 0.97182 0.25912 0.0
N116 N 0.61577 0.91312 0.29173 0.0
C117 C 0.63651 0.93674 0.2951 0.0
Co118 Co 0.37893 0.37423 0.69309 0.0
Co119 Co 0.37558 0.37073 0.56417 0.0
O120 O 0.36321 0.38767 0.62847 0.0
C121 C 0.3106 0.36718 0.70076 0.0
O122 O 0.31071 0.3578 0.65457 0.0
C123 C 0.38893 0.43778 0.55634 0.0
O124 O 0.4009 0.43631 0.60077 0.0
O125 O 0.4204 0.3733 0.58259 0.0
O126 O 0.42227 0.37326 0.66627 0.0
H127 H 0.42948 0.29718 0.44821 0.0
H128 H 0.34356 0.43198 0.67615 0.0
O129 O 0.33577 0.37527 0.72155 0.0
H130 H 0.4361 0.46381 0.76912 0.0
H131 H 0.38102 0.37241 0.87979 0.0
H132 H 0.42768 0.33074 0.7275 0.0
H133 H 0.42818 0.4093 0.74643 0.0
H134 H 0.36297 0.38974 0.79789 0.0
O135 O 0.37756 0.41382 0.53599 0.0
H136 H 0.41372 0.31756 0.52936 0.0
H137 H 0.36145 0.38805 0.45964 0.0
H138 H 0.44658 0.3129 0.80852 0.0
H139 H 0.35051 0.48673 0.69801 0.0
H140 H 0.42318 0.33375 0.88556 0.0
H141 H 0.39709 0.503 0.7449 0.0
O142 O 0.37304 0.32986 0.67485 0.0
H143 H 0.26708 0.41064 0.5492 0.0
H144 H 0.336 0.32214 0.51853 0.0
H145 H 0.28092 0.31815 0.49656 0.0
H146 H 0.24603 0.36263 0.51189 0.0
H147 H 0.32226 0.41345 0.57098 0.0
H148 H 0.37667 0.36848 0.37759 0.0
H149 H 0.41096 0.32272 0.3714 0.0
O150 O 0.37334 0.32758 0.59128 0.0
C151 C 0.43524 0.37348 0.62365 0.0
C152 C 0.41478 0.31733 0.4504 0.0
C153 C 0.38516 0.35733 0.41079 0.0
N154 N 0.3874 0.35452 0.49966 0.0
C155 C 0.40595 0.32912 0.49643 0.0
C156 C 0.37682 0.36847 0.45748 0.0
C157 C 0.40435 0.33164 0.40733 0.0
C158 C 0.36354 0.43873 0.6974 0.0
N159 N 0.3849 0.41724 0.71126 0.0
C160 C 0.3675 0.46984 0.70932 0.0
C161 C 0.39366 0.47896 0.73553 0.0
C162 C 0.41552 0.45698 0.7492 0.0
C163 C 0.41078 0.42608 0.73655 0.0
C164 C 0.39129 0.36301 0.84649 0.0
C165 C 0.41724 0.33978 0.76059 0.0
C166 C 0.38101 0.37257 0.79991 0.0
N167 N 0.39395 0.36093 0.75761 0.0
C168 C 0.4281 0.32966 0.80652 0.0
C169 C 0.41497 0.34136 0.84972 0.0
C170 C 0.37188 0.31494 0.63401 0.0
C171 C 0.28205 0.39113 0.54222 0.0
C172 C 0.32098 0.34161 0.52527 0.0
C173 C 0.28981 0.33922 0.51272 0.0
C174 C 0.27025 0.36418 0.52134 0.0
N175 N 0.33236 0.36808 0.54592 0.0
C176 C 0.31335 0.39266 0.5543 0.0
Co177 Co 0.87532 0.1289 0.81096 0.0
Co178 Co 0.87091 0.13213 0.9397 0.0
O179 O 0.85869 0.11569 0.87497 0.0
C180 C 0.80774 0.13886 0.80437 0.0
O181 O 0.80856 0.14872 0.85024 0.0
C182 C 0.8823 0.06476 0.94554 0.0
O183 O 0.89231 0.06592 0.89982 0.0
O184 O 0.91571 0.12896 0.9222 0.0
O185 O 0.91845 0.12749 0.83857 0.0
H186 H 0.92309 0.20545 0.05855 0.0
H187 H 0.83395 0.07458 0.81801 0.0
O188 O 0.83235 0.13023 0.78262 0.0
H189 H 0.92893 0.03603 0.739 0.0
H190 H 0.87872 0.13116 0.62445 0.0
H191 H 0.92603 0.17041 0.77805 0.0
H192 H 0.92409 0.09082 0.76263 0.0
H193 H 0.8593 0.11452 0.7059 0.0
O194 O 0.87259 0.089 0.96718 0.0
H195 H 0.90764 0.18612 0.97674 0.0
H196 H 0.85681 0.11356 0.04363 0.0
H197 H 0.94635 0.1875 0.6975 0.0
H198 H 0.83772 0.01964 0.79502 0.0
H199 H 0.92262 0.16786 0.61983 0.0
H200 H 0.88556 1.0 0.75533 0.0
O201 O 0.87186 0.17334 0.82966 0.0
H202 H 0.7623 0.09267 0.95375 0.0
H203 H 0.83123 0.1813 0.98341 0.0
H204 H 0.77599 0.18569 0.00403 0.0
H205 H 0.7411 0.14115 0.9892 0.0
H206 H 0.81763 0.08942 0.93323 0.0
H207 H 0.87172 0.13218 0.12632 0.0
H208 H 0.90519 0.17841 0.13433 0.0
O209 O 0.86953 0.1754 0.91309 0.0
C210 C 0.93093 0.12757 0.88162 0.0
C211 C 0.90886 0.18501 0.05557 0.0
C212 C 0.88004 0.14392 0.09358 0.0
N213 N 0.88238 0.14791 0.0048 0.0
C214 C 0.90028 0.17372 0.00907 0.0
C215 C 0.87193 0.13329 0.04646 0.0
C216 C 0.89877 0.16988 0.09806 0.0
C217 C 0.85474 0.06625 0.80055 0.0
N218 N 0.87879 0.08586 0.79184 0.0
C219 C 0.85678 0.0351 0.78766 0.0
C220 C 0.88363 0.0241 0.76544 0.0
C221 C 0.90796 0.04429 0.75626 0.0
C222 C 0.90509 0.07529 0.7697 0.0
C223 C 0.88918 0.13998 0.65803 0.0
C224 C 0.91551 0.16184 0.74463 0.0
C225 C 0.87816 0.13078 0.70432 0.0
N226 N 0.89132 0.14171 0.74694 0.0
C227 C 0.92715 0.17156 0.69901 0.0
C228 C 0.91383 0.16054 0.65545 0.0
C229 C 0.87011 0.18817 0.87045 0.0
C230 C 0.77727 0.11221 0.96051 0.0
C231 C 0.81619 0.16183 0.97681 0.0
C232 C 0.78494 0.16444 0.98863 0.0
C233 C 0.76539 0.13944 0.98032 0.0
N234 N 0.82763 0.1351 0.95715 0.0
C235 C 0.80865 0.11045 0.94914 0.0
Co236 Co 0.12724 0.37199 0.93948 0.0
Co237 Co 0.12712 0.37988 0.81101 0.0
O238 O 0.14254 0.38965 0.87737 0.0
C239 C 0.12072 0.43979 0.95236 0.0
O240 O 0.11212 0.44102 0.90582 0.0
C241 C 0.19389 0.36482 0.80624 0.0
O242 O 0.19083 0.35098 0.84897 0.0
O243 O 0.12856 0.33444 0.82539 0.0
O244 O 0.12651 0.32978 0.90876 0.0
H245 H 0.05476 0.33377 0.68437 0.0
H246 H 0.18608 0.40661 0.92816 0.0
O247 O 0.12804 0.414 0.97174 0.0
H248 H 0.2139 0.31159 0.0178 0.0
H249 H 0.1201 0.36325 0.12537 0.0
H250 H 0.08168 0.3234 0.96589 0.0
H251 H 0.16019 0.32097 0.99207 0.0
H252 H 0.14009 0.38388 0.04668 0.0
O253 O 0.17091 0.37802 0.78581 0.0
H254 H 0.0727 0.34629 0.76825 0.0
H255 H 0.14849 0.39616 0.70929 0.0
H256 H 0.06128 0.3019 0.04359 0.0
H257 H 0.24006 0.3981 0.95293 0.0
H258 H 0.08048 0.32186 0.1242 0.0
H259 H 0.25432 0.3503 0.99824 0.0
O260 O 0.08349 0.37899 0.9189 0.0
H261 H 0.16897 0.48802 0.80873 0.0
H262 H 0.0802 0.42188 0.76656 0.0
H263 H 0.07754 0.47771 0.74968 0.0
H264 H 0.12217 0.51121 0.77077 0.0
H265 H 0.17043 0.4321 0.8254 0.0
H266 H 0.1313 0.3842 0.62462 0.0
H267 H 0.08416 0.35268 0.61157 0.0
O268 O 0.08333 0.3818 0.83541 0.0
C269 C 0.12758 0.31827 0.8651 0.0
C270 C 0.07562 0.34711 0.68955 0.0
C271 C 0.11855 0.3754 0.65603 0.0
N272 N 0.11246 0.37076 0.74428 0.0
C273 C 0.08613 0.35399 0.73723 0.0
C274 C 0.12836 0.38181 0.70426 0.0
C275 C 0.09207 0.35778 0.64873 0.0
C276 C 0.19189 0.38603 0.94861 0.0
N277 N 0.16968 0.36484 0.95997 0.0
C278 C 0.22261 0.38121 0.96223 0.0
C279 C 0.2306 0.35438 0.98756 0.0
C280 C 0.20792 0.3327 0.99864 0.0
C281 C 0.17746 0.33828 0.98432 0.0
C282 C 0.11147 0.35442 0.09048 0.0
C283 C 0.09015 0.33224 0.00061 0.0
C284 C 0.12256 0.36616 0.04573 0.0
N285 N 0.11193 0.355 0.00146 0.0
C286 C 0.07851 0.31996 0.04461 0.0
C287 C 0.08928 0.33118 0.08981 0.0
C288 C 0.06964 0.38173 0.87733 0.0
C289 C 0.14941 0.47367 0.79922 0.0
C290 C 0.09973 0.43628 0.7758 0.0
C291 C 0.09809 0.46789 0.76614 0.0
C292 C 0.12313 0.48666 0.77798 0.0
N293 N 0.12555 0.42371 0.79675 0.0
C294 C 0.1502 0.44196 0.80836 0.0
Co295 Co 0.88111 0.88002 0.06342 0.0
Co296 Co 0.87558 0.87975 0.19171 0.0
O297 O 0.86331 0.89488 0.12601 0.0
C298 C 0.87563 0.94955 0.05416 0.0
O299 O 0.86539 0.95146 0.09967 0.0
C300 C 0.80759 0.87385 0.18983 0.0
O301 O 0.80931 0.86626 0.14291 0.0
O302 O 0.87009 0.83617 0.17001 0.0
O303 O 0.88098 0.83647 0.08858 0.0
H304 H 0.92808 0.80719 0.31007 0.0
H305 H 0.82249 0.91653 0.06398 0.0
O306 O 0.88242 0.9234 0.03511 0.0
H307 H 0.79723 0.81902 0.97934 0.0
H308 H 0.89355 0.87513 0.87793 0.0
H309 H 0.93087 0.83579 0.03852 0.0
H310 H 0.84988 0.82861 0.01009 0.0
H311 H 0.8703 0.89318 0.95609 0.0
O312 O 0.83173 0.88028 0.21451 0.0
H313 H 0.91443 0.82806 0.22799 0.0
H314 H 0.85957 0.89758 0.29539 0.0
H315 H 0.9546 0.81685 0.96126 0.0
H316 H 0.76979 0.90809 0.03325 0.0
H317 H 0.93594 0.83656 0.88019 0.0
H318 H 0.75675 0.85899 0.99057 0.0
O319 O 0.92358 0.88638 0.08945 0.0
H320 H 0.84193 0.98984 0.21519 0.0
H321 H 0.92613 0.91512 0.24142 0.0
H322 H 0.93326 0.9692 0.2671 0.0
H323 H 0.89095 0.00701 0.25414 0.0
H324 H 0.83601 0.93568 0.18903 0.0
H325 H 0.87268 0.87751 0.37822 0.0
H326 H 0.90728 0.83207 0.38598 0.0
O327 O 0.92009 0.87905 0.17135 0.0
C328 C 0.87469 0.82248 0.1289 0.0
C329 C 0.91321 0.82719 0.30722 0.0
C330 C 0.88215 0.86667 0.34546 0.0
N331 N 0.88699 0.86459 0.25687 0.0
C332 C 0.90546 0.83916 0.26083 0.0
C333 C 0.87494 0.87802 0.29843 0.0
C334 C 0.90152 0.84113 0.34978 0.0
C335 C 0.81736 0.89541 0.04461 0.0
N336 N 0.83963 0.87349 0.03783 0.0
C337 C 0.78729 0.89062 0.02762 0.0
C338 C 0.77998 0.86304 0.00382 0.0
C339 C 0.80267 0.84062 0.99751 0.0
C340 C 0.83248 0.84622 0.01501 0.0
C341 C 0.90185 0.86632 0.91301 0.0
C342 C 0.92248 0.84431 0.0034 0.0
C343 C 0.88882 0.87654 0.95741 0.0
N344 N 0.89904 0.86538 0.00184 0.0
C345 C 0.93607 0.83358 0.95977 0.0
C346 C 0.92562 0.84467 0.91431 0.0
C347 C 0.93583 0.88424 0.13232 0.0
C348 C 0.86054 0.9736 0.22102 0.0
C349 C 0.90774 0.93145 0.23499 0.0
C350 C 0.91184 0.96204 0.24996 0.0
C351 C 0.88807 0.98322 0.24278 0.0
N352 N 0.88075 0.92222 0.21329 0.0
C353 C 0.85726 0.94282 0.20653 0.0
Co354 Co 0.37876 0.62225 0.31512 0.0
Co355 Co 0.37435 0.62258 0.44408 0.0
O356 O 0.36198 0.60766 0.37832 0.0
C357 C 0.31147 0.63209 0.3061 0.0
O358 O 0.31158 0.64188 0.35199 0.0
C359 C 0.38289 0.55408 0.44945 0.0
O360 O 0.39204 0.55471 0.40317 0.0
O361 O 0.41921 0.61819 0.42677 0.0
O362 O 0.42147 0.62153 0.34329 0.0
H363 H 0.42989 0.69129 0.56594 0.0
H364 H 0.33815 0.56722 0.31698 0.0
O365 O 0.33626 0.62304 0.28558 0.0
H366 H 0.43635 0.53125 0.24516 0.0
H367 H 0.38346 0.62671 0.12881 0.0
H368 H 0.4292 0.66489 0.2842 0.0
H369 H 0.42971 0.58567 0.26974 0.0
H370 H 0.36391 0.60872 0.20937 0.0
O371 O 0.37429 0.57892 0.47073 0.0
H372 H 0.41397 0.67363 0.48331 0.0
H373 H 0.35846 0.6036 0.54728 0.0
H374 H 0.44958 0.68342 0.20459 0.0
H375 H 0.34366 0.51265 0.29247 0.0
H376 H 0.42663 0.66434 0.12598 0.0
H377 H 0.39311 0.49432 0.25647 0.0
O378 O 0.37387 0.66641 0.33569 0.0
H379 H 0.26289 0.5905 0.44669 0.0
H380 H 0.33725 0.67119 0.49487 0.0
H381 H 0.28225 0.67777 0.51535 0.0
H382 H 0.24463 0.63715 0.49146 0.0
H383 H 0.31808 0.58522 0.42624 0.0
H384 H 0.37378 0.62049 0.63076 0.0
H385 H 0.40981 0.66462 0.64064 0.0
O386 O 0.37441 0.6663 0.41934 0.0
C387 C 0.43413 0.6191 0.38585 0.0
C388 C 0.41448 0.67178 0.56214 0.0
C389 C 0.38302 0.63206 0.5985 0.0
N390 N 0.38619 0.63687 0.50989 0.0
C391 C 0.40561 0.66147 0.5152 0.0
C392 C 0.37467 0.6224 0.55096 0.0
C393 C 0.40317 0.65685 0.60403 0.0
C394 C 0.35961 0.55947 0.3009 0.0
N395 N 0.38355 0.5796 0.29474 0.0
C396 C 0.36265 0.52852 0.28727 0.0
C397 C 0.39041 0.51825 0.26712 0.0
C398 C 0.41468 0.53895 0.26076 0.0
C399 C 0.41079 0.56973 0.27481 0.0
C400 C 0.39352 0.63537 0.1628 0.0
C401 C 0.4189 0.6567 0.25045 0.0
C402 C 0.38241 0.62542 0.20864 0.0
N403 N 0.395 0.6362 0.25181 0.0
C404 C 0.43062 0.66717 0.20531 0.0
C405 C 0.41776 0.65645 0.16123 0.0
C406 C 0.37329 0.68018 0.3776 0.0
C407 C 0.2791 0.60816 0.45797 0.0
C408 C 0.32111 0.65322 0.48487 0.0
C409 C 0.28995 0.65715 0.49638 0.0
C410 C 0.26886 0.63438 0.48293 0.0
N411 N 0.33106 0.62724 0.46093 0.0
C412 C 0.31044 0.60506 0.44704 0.0
Co413 Co 0.62133 0.12731 0.69669 0.0
Co414 Co 0.61776 0.12708 0.56791 0.0
O415 O 0.63491 0.11278 0.63121 0.0
C416 C 0.69138 0.12501 0.69982 0.0
O417 O 0.69228 0.11522 0.65394 0.0
C418 C 0.61347 0.05918 0.56314 0.0
O419 O 0.60577 0.05915 0.61005 0.0
O420 O 0.57493 0.11955 0.59204 0.0
O421 O 0.57704 0.12576 0.67492 0.0
H422 H 0.54261 0.18393 0.45915 0.0
H423 H 0.66062 0.07071 0.68696 0.0
O424 O 0.66557 0.13001 0.72134 0.0
H425 H 0.56729 0.03717 0.77571 0.0
H426 H 0.62268 0.13159 0.88325 0.0
H427 H 0.57605 0.17391 0.73122 0.0
H428 H 0.57343 0.0914 0.75039 0.0
H429 H 0.63871 0.11257 0.80112 0.0
O430 O 0.61911 0.08426 0.54064 0.0
H431 H 0.56465 0.16621 0.53835 0.0
H432 H 0.63328 0.11522 0.46189 0.0
H433 H 0.55901 0.1934 0.81254 0.0
H434 H 0.65563 0.01649 0.7121 0.0
H435 H 0.58242 0.17222 0.88936 0.0
H436 H 0.60865 0.99928 0.75682 0.0
O437 O 0.62462 0.17108 0.67491 0.0
H438 H 0.72816 0.09801 0.53443 0.0
H439 H 0.65041 0.1807 0.52198 0.0
H440 H 0.70361 0.19066 0.4944 0.0
H441 H 0.74294 0.14914 0.50043 0.0
H442 H 0.67486 0.08923 0.56271 0.0
H443 H 0.61178 0.13195 0.3817 0.0
H444 H 0.56625 0.16676 0.37996 0.0
O445 O 0.61631 0.17046 0.59265 0.0
C446 C 0.56226 0.12133 0.6346 0.0
C447 C 0.5627 0.16908 0.45939 0.0
C448 C 0.60148 0.13987 0.41594 0.0
N449 N 0.60085 0.14062 0.50493 0.0
C450 C 0.57546 0.15926 0.50421 0.0
C451 C 0.6136 0.13054 0.4615 0.0
C452 C 0.57592 0.15938 0.41499 0.0
C453 C 0.64042 0.06375 0.7072 0.0
N454 N 0.61776 0.08459 0.71815 0.0
C455 C 0.63758 0.03284 0.72104 0.0
C456 C 0.61119 0.02318 0.74599 0.0
C457 C 0.588 0.04442 0.7566 0.0
C458 C 0.59164 0.07515 0.74218 0.0
C459 C 0.61224 0.14095 0.85007 0.0
C460 C 0.5861 0.16437 0.76441 0.0
C461 C 0.62129 0.13032 0.80343 0.0
N462 N 0.60809 0.14188 0.76134 0.0
C463 C 0.57647 0.17559 0.81039 0.0
C464 C 0.58964 0.16373 0.85347 0.0
C465 C 0.62121 0.18465 0.63334 0.0
C466 C 0.71123 0.11629 0.53162 0.0
C467 C 0.66741 0.16258 0.52539 0.0
C468 C 0.69749 0.16832 0.50935 0.0
C469 C 0.71953 0.145 0.51264 0.0
N470 N 0.6595 0.13443 0.54441 0.0
C471 C 0.68093 0.11139 0.54731 0.0
Co472 Co 0.87626 0.37807 0.93712 0.0
Co473 Co 0.87922 0.38175 0.80797 0.0
O474 O 0.86301 0.39441 0.87274 0.0
C475 C 0.88479 0.44614 0.94582 0.0
O476 O 0.8946 0.44586 0.8999 0.0
C477 C 0.81118 0.37286 0.79971 0.0
O478 O 0.81161 0.3636 0.84588 0.0
O479 O 0.87462 0.33708 0.82587 0.0
O480 O 0.87601 0.33501 0.90958 0.0
H481 H 0.95018 0.32528 0.69085 0.0
H482 H 0.8189 0.4145 0.92073 0.0
O483 O 0.87625 0.42105 0.96624 0.0
H484 H 0.78604 0.32214 0.01294 0.0
H485 H 0.87896 0.37575 0.12382 0.0
H486 H 0.91752 0.32708 0.97114 0.0
H487 H 0.84048 0.32915 0.98952 0.0
H488 H 0.86193 0.39446 0.04221 0.0
O489 O 0.83616 0.38147 0.77906 0.0
H490 H 0.93092 0.34178 0.77223 0.0
H491 H 0.86224 0.39693 0.70352 0.0
H492 H 0.93505 0.30755 0.05183 0.0
H493 H 0.76427 0.40863 0.94387 0.0
H494 H 0.91578 0.33196 0.12912 0.0
H495 H 0.74747 0.36212 0.9903 0.0
O496 O 0.92077 0.38292 0.91858 0.0
H497 H 0.84669 0.49311 0.80241 0.0
H498 H 0.92824 0.41874 0.75818 0.0
H499 H 0.93479 0.47364 0.73693 0.0
H500 H 0.89377 0.51127 0.7589 0.0
H501 H 0.8413 0.43804 0.82345 0.0
H502 H 0.88073 0.38098 0.62126 0.0
H503 H 0.925 0.34486 0.61441 0.0
O504 O 0.9224 0.38195 0.83495 0.0
C505 C 0.87452 0.32224 0.86689 0.0
C506 C 0.93063 0.34075 0.69333 0.0
C507 C 0.89167 0.37199 0.65429 0.0
N508 N 0.89478 0.36948 0.74316 0.0
C509 C 0.91944 0.34998 0.73953 0.0
C510 C 0.8811 0.38069 0.70114 0.0
C511 C 0.91654 0.35177 0.65046 0.0
C512 C 0.812 0.39468 0.9422 0.0
N513 N 0.83319 0.37288 0.95548 0.0
C514 C 0.78092 0.39127 0.95465 0.0
C515 C 0.77149 0.36513 0.98056 0.0
C516 C 0.79313 0.34273 0.99335 0.0
C517 C 0.824 0.34696 0.98027 0.0
C518 C 0.88776 0.3651 0.09041 0.0
C519 C 0.90932 0.33812 0.00424 0.0
C520 C 0.87841 0.37578 0.04394 0.0
N521 N 0.88932 0.36241 0.00146 0.0
C522 C 0.9192 0.32682 0.05003 0.0
C523 C 0.90837 0.3405 0.09337 0.0
C524 C 0.93541 0.38314 0.87743 0.0
C525 C 0.86456 0.4769 0.79205 0.0
C526 C 0.91009 0.43487 0.76729 0.0
C527 C 0.91401 0.46597 0.75537 0.0
C528 C 0.89101 0.48707 0.76777 0.0
N529 N 0.88391 0.42498 0.79062 0.0
C530 C 0.86146 0.44561 0.80339 0.0
Co531 Co 0.37234 0.12654 0.56069 0.0
Co532 Co 0.37034 0.11931 0.68929 0.0
O533 O 0.35643 0.10881 0.62228 0.0
C534 C 0.38076 0.05879 0.54822 0.0
O535 O 0.3894 0.05819 0.59473 0.0
C536 C 0.30249 0.13018 0.6918 0.0
O537 O 0.30478 0.14182 0.64716 0.0
O538 O 0.367 0.16463 0.67445 0.0
O539 O 0.37199 0.1689 0.5913 0.0
H540 H 0.4388 0.16862 0.81868 0.0
H541 H 0.31419 0.09045 0.56795 0.0
O542 O 0.37268 0.0843 0.52854 0.0
H543 H 0.28569 0.18662 0.4821 0.0
H544 H 0.38104 0.13493 0.37503 0.0
H545 H 0.41724 0.17604 0.53495 0.0
H546 H 0.3392 0.1778 0.50952 0.0
H547 H 0.36073 0.11421 0.45342 0.0
O548 O 0.32628 0.11923 0.71328 0.0
H549 H 0.42294 0.15492 0.73432 0.0
H550 H 0.34796 0.10262 0.79048 0.0
H551 H 0.438 0.19761 0.45758 0.0
H552 H 0.26048 0.09811 0.5407 0.0
H553 H 0.41991 0.17701 0.37672 0.0
H554 H 0.24588 0.14655 0.49748 0.0
O555 O 0.41591 0.12025 0.58309 0.0
H556 H 0.3372 0.00812 0.68279 0.0
H557 H 0.41723 0.08044 0.74075 0.0
H558 H 0.42268 0.02497 0.75849 0.0
H559 H 0.38238 0.98835 0.72973 0.0
H560 H 0.33308 0.06374 0.66504 0.0
H561 H 0.36312 0.11572 0.87563 0.0
H562 H 0.40878 0.14906 0.89037 0.0
O563 O 0.4143 0.1194 0.66669 0.0
C564 C 0.36907 0.18062 0.63462 0.0
C565 C 0.41851 0.15454 0.81274 0.0
C566 C 0.37607 0.12486 0.84468 0.0
N567 N 0.38352 0.12931 0.75664 0.0
C568 C 0.40912 0.14703 0.76471 0.0
C569 C 0.36737 0.11785 0.79612 0.0
C570 C 0.40172 0.1435 0.85295 0.0
C571 C 0.30825 0.11117 0.54795 0.0
N572 N 0.33013 0.13308 0.53874 0.0
C573 C 0.27769 0.11557 0.53313 0.0
C574 C 0.2695 0.14278 0.50902 0.0
C575 C 0.29183 0.16524 0.50031 0.0
C576 C 0.32216 0.16002 0.51567 0.0
C577 C 0.38922 0.144 0.41002 0.0
C578 C 0.40935 0.16684 0.50017 0.0
C579 C 0.37796 0.13221 0.45463 0.0
N580 N 0.38806 0.14363 0.49904 0.0
C581 C 0.42115 0.1792 0.45633 0.0
C582 C 0.411 0.16763 0.41099 0.0
C583 C 0.42885 0.11893 0.62561 0.0
C584 C 0.35465 0.02389 0.69629 0.0
C585 C 0.39934 0.06477 0.7287 0.0
C586 C 0.40266 0.03333 0.73864 0.0
C587 C 0.38006 0.0128 0.72245 0.0
N588 N 0.37409 0.07556 0.70371 0.0
C589 C 0.35214 0.05549 0.68703 0.0
Co590 Co 0.62372 0.62853 0.30569 0.0
Co591 Co 0.62536 0.6263 0.43503 0.0
O592 O 0.63962 0.61241 0.36927 0.0
C593 C 0.69334 0.62467 0.2944 0.0
O594 O 0.69602 0.61415 0.33961 0.0
C595 C 0.63106 0.55677 0.44342 0.0
O596 O 0.63887 0.55431 0.3967 0.0
O597 O 0.58163 0.61971 0.41461 0.0
O598 O 0.58053 0.62761 0.33209 0.0
H599 H 0.55451 0.68268 0.55175 0.0
H600 H 0.66225 0.57102 0.30601 0.0
O601 O 0.66678 0.63065 0.27611 0.0
H602 H 0.56359 0.54138 0.22897 0.0
H603 H 0.61679 0.63643 0.11973 0.0
H604 H 0.57789 0.67646 0.27886 0.0
H605 H 0.57232 0.5948 0.25666 0.0
H606 H 0.63615 0.61554 0.19879 0.0
O607 O 0.62566 0.58306 0.46271 0.0
H608 H 0.57317 0.66495 0.47047 0.0
H609 H 0.64516 0.61445 0.53939 0.0
H610 H 0.55762 0.69784 0.2007 0.0
H611 H 0.65471 0.51758 0.27813 0.0
H612 H 0.57712 0.67781 0.12035 0.0
H613 H 0.60501 0.5023 0.23944 0.0
O614 O 0.62909 0.67186 0.3288 0.0
H615 H 0.73775 0.59796 0.45184 0.0
H616 H 0.6595 0.67824 0.48251 0.0
H617 H 0.71361 0.68809 0.50517 0.0
H618 H 0.75321 0.64775 0.49009 0.0
H619 H 0.68355 0.58933 0.42878 0.0
H620 H 0.627 0.63109 0.62164 0.0
H621 H 0.58152 0.66574 0.62824 0.0
O622 O 0.62411 0.67003 0.41157 0.0
C623 C 0.56735 0.6225 0.37351 0.0
C624 C 0.57464 0.66798 0.54937 0.0
C625 C 0.61526 0.63897 0.58858 0.0
N626 N 0.61101 0.63977 0.4998 0.0
C627 C 0.58555 0.6582 0.50328 0.0
C628 C 0.62549 0.62968 0.54183 0.0
C629 C 0.58974 0.65839 0.59226 0.0
C630 C 0.64079 0.5649 0.28852 0.0
N631 N 0.61802 0.58635 0.28246 0.0
C632 C 0.63654 0.53443 0.27306 0.0
C633 C 0.60864 0.52586 0.25146 0.0
C634 C 0.58542 0.54776 0.24558 0.0
C635 C 0.59052 0.57802 0.26142 0.0
C636 C 0.60807 0.64532 0.15449 0.0
C637 C 0.5863 0.66747 0.24409 0.0
C638 C 0.61902 0.63363 0.19939 0.0
N639 N 0.608 0.6446 0.24345 0.0
C640 C 0.57482 0.67974 0.19993 0.0
C641 C 0.5858 0.66852 0.15486 0.0
C642 C 0.62761 0.68485 0.37113 0.0
C643 C 0.72069 0.61567 0.45887 0.0
C644 C 0.67653 0.66055 0.47551 0.0
C645 C 0.70717 0.66626 0.48863 0.0
C646 C 0.72937 0.64362 0.48021 0.0
N647 N 0.6681 0.63299 0.4547 0.0
C648 C 0.68982 0.61079 0.44621 0.0
Co649 Co 0.12735 0.87246 0.18807 0.0
Co650 Co 0.12738 0.87708 0.05892 0.0
O651 O 0.14193 0.89002 0.12506 0.0
C652 C 0.19677 0.87874 0.1991 0.0
O653 O 0.19898 0.89054 0.15463 0.0
C654 C 0.12935 0.94715 0.05647 0.0
O655 O 0.13665 0.94809 0.10351 0.0
O656 O 0.08351 0.88125 0.08017 0.0
O657 O 0.08389 0.87229 0.16232 0.0
H658 H 0.06017 0.81838 0.93941 0.0
H659 H 0.16403 0.93124 0.19132 0.0
O660 O 0.17052 0.8714 0.217 0.0
H661 H 0.06399 0.95631 0.26762 0.0
H662 H 0.12044 0.86435 0.37403 0.0
H663 H 0.08764 0.81921 0.21505 0.0
H664 H 0.07458 0.90374 0.23758 0.0
H665 H 0.13815 0.88659 0.29506 0.0
O666 O 0.12595 0.92131 0.03431 0.0
H667 H 0.07879 0.83447 0.0217 0.0
H668 H 0.14448 0.89405 0.95551 0.0
H669 H 0.06884 0.79648 0.29295 0.0
H670 H 0.15469 0.98378 0.22193 0.0
H671 H 0.08526 0.81911 0.37335 0.0
H672 H 0.10426 0.99679 0.26019 0.0
O673 O 0.13428 0.82984 0.16263 0.0
H674 H 0.23849 0.90973 0.04314 0.0
H675 H 0.16289 0.82774 0.00742 0.0
H676 H 0.21721 0.82042 0.98342 0.0
H677 H 0.25547 0.86165 0.00108 0.0
H678 H 0.1841 0.91581 0.0673 0.0
H679 H 0.12638 0.87897 0.87236 0.0
H680 H 0.08404 0.84071 0.86387 0.0
O681 O 0.12748 0.83275 0.08002 0.0
C682 C 0.06976 0.8776 0.12159 0.0
C683 C 0.07882 0.83488 0.94258 0.0
C684 C 0.11592 0.86892 0.90496 0.0
N685 N 0.11313 0.86463 0.9936 0.0
C686 C 0.08959 0.84389 0.98918 0.0
C687 C 0.12607 0.87738 0.95219 0.0
C688 C 0.09217 0.84746 0.90023 0.0
C689 C 0.14231 0.9363 0.20874 0.0
N690 N 0.12016 0.91407 0.21307 0.0
C691 C 0.13701 0.96631 0.22568 0.0
C692 C 0.1087 0.97361 0.24702 0.0
C693 C 0.0861 0.95093 0.25114 0.0
C694 C 0.09224 0.92118 0.23383 0.0
C695 C 0.11284 0.85448 0.33926 0.0
C696 C 0.09424 0.82963 0.24965 0.0
C697 C 0.12277 0.86701 0.29436 0.0
N698 N 0.11305 0.85489 0.25023 0.0
C699 C 0.08382 0.81646 0.29377 0.0
C700 C 0.09312 0.8291 0.33885 0.0
C701 C 0.1317 0.81751 0.11991 0.0
C702 C 0.22202 0.89166 0.03494 0.0
C703 C 0.17935 0.84581 0.01537 0.0
C704 C 0.2101 0.84153 0.00157 0.0
C705 C 0.23154 0.86466 0.01146 0.0
N706 N 0.17011 0.87244 0.03824 0.0
C707 C 0.19107 0.8951 0.04823 0.0
Co708 Co 0.87959 0.631 0.05539 0.0
Co709 Co 0.87597 0.63024 0.18391 0.0
O710 O 0.86274 0.61622 0.11834 0.0
C711 C 0.88551 0.5629 0.05187 0.0
O712 O 0.89129 0.56351 0.09951 0.0
C713 C 0.80741 0.63631 0.18362 0.0
O714 O 0.8085 0.64306 0.13636 0.0
O715 O 0.87182 0.67433 0.16314 0.0
O716 O 0.88024 0.67471 0.08061 0.0
H717 H 0.93202 0.69818 0.30581 0.0
H718 H 0.82349 0.59183 0.0529 0.0
O719 O 0.87965 0.58769 0.02837 0.0
H720 H 0.79184 0.69144 0.98086 0.0
H721 H 0.88562 0.63443 0.86923 0.0
H722 H 0.93053 0.67287 0.02514 0.0
H723 H 0.84548 0.68317 0.00831 0.0
H724 H 0.86479 0.6176 0.94975 0.0
O725 O 0.83201 0.63058 0.20776 0.0
H726 H 0.91623 0.68041 0.22299 0.0
H727 H 0.85986 0.6111 0.2867 0.0
H728 H 0.95192 0.69064 0.94561 0.0
H729 H 0.76977 0.59892 0.02516 0.0
H730 H 0.9294 0.67136 0.86679 0.0
H731 H 0.75359 0.6491 0.98907 0.0
O732 O 0.9227 0.62492 0.07941 0.0
H733 H 0.84 0.52047 0.20053 0.0
H734 H 0.92551 0.59291 0.23221 0.0
H735 H 0.93136 0.53816 0.25516 0.0
H736 H 0.88837 0.50154 0.23948 0.0
H737 H 0.83533 0.57527 0.17741 0.0
H738 H 0.87458 0.62836 0.37044 0.0
H739 H 0.91114 0.67205 0.38046 0.0
O740 O 0.92046 0.63012 0.16248 0.0
C741 C 0.87603 0.6884 0.12208 0.0
C742 C 0.91645 0.6788 0.30197 0.0
C743 C 0.88417 0.63968 0.33822 0.0
N744 N 0.88822 0.64393 0.24968 0.0
C745 C 0.90776 0.6684 0.25499 0.0
C746 C 0.87602 0.62994 0.29064 0.0
C747 C 0.90465 0.6642 0.34382 0.0
C748 C 0.81677 0.61355 0.03653 0.0
N749 N 0.83765 0.637 0.03208 0.0
C750 C 0.78626 0.61751 0.02118 0.0
C751 C 0.77717 0.64569 0.00106 0.0
C752 C 0.79862 0.66947 0.9965 0.0
C753 C 0.82893 0.66469 0.01231 0.0
C754 C 0.89547 0.6432 0.9033 0.0
C755 C 0.92027 0.66487 0.99118 0.0
C756 C 0.88374 0.63379 0.94905 0.0
N757 N 0.89593 0.64491 0.99227 0.0
C758 C 0.93263 0.67479 0.94616 0.0
C759 C 0.92004 0.66391 0.90196 0.0
C760 C 0.93546 0.62668 0.12199 0.0
C761 C 0.85884 0.53623 0.20777 0.0
C762 C 0.90676 0.57709 0.22495 0.0
C763 C 0.91016 0.54614 0.23823 0.0
C764 C 0.88602 0.52561 0.2295 0.0
N765 N 0.88004 0.58735 0.20364 0.0
C766 C 0.85624 0.56735 0.19506 0.0
Co767 Co 0.12614 0.12897 0.93564 0.0
Co768 Co 0.11941 0.12368 0.80732 0.0
O769 O 0.13698 0.11129 0.87116 0.0
C770 C 0.11499 0.06173 0.94686 0.0
O771 O 0.10251 0.06181 0.90264 0.0
C772 C 0.18639 0.13457 0.79815 0.0
O773 O 0.18561 0.14526 0.84343 0.0
O774 O 0.12362 0.16853 0.82392 0.0
O775 O 0.12703 0.17176 0.90719 0.0
H776 H 0.04557 0.17856 0.69296 0.0
H777 H 0.17954 0.08665 0.92571 0.0
O778 O 0.12559 0.08652 0.96551 0.0
H779 H 0.22207 0.18278 0.99579 0.0
H780 H 0.13002 0.13394 0.12204 0.0
H781 H 0.08726 0.18137 0.9712 0.0
H782 H 0.16643 0.17818 0.978 0.0
H783 H 0.14365 0.11364 0.03973 0.0
O784 O 0.16201 0.12433 0.77754 0.0
H785 H 0.06678 0.16307 0.77367 0.0
H786 H 0.13459 0.10803 0.7026 0.0
H787 H 0.07312 0.20251 0.05263 0.0
H788 H 0.2353 0.09023 0.94297 0.0
H789 H 0.09451 0.17872 0.12897 0.0
H790 H 0.25693 0.13861 0.97815 0.0
O791 O 0.08098 0.12571 0.92018 0.0
H792 H 0.15592 0.01406 0.7903 0.0
H793 H 0.06849 0.08528 0.76611 0.0
H794 H 0.06238 0.03028 0.74481 0.0
H795 H 0.10634 0.99425 0.75679 0.0
H796 H 0.16072 0.06915 0.81194 0.0
H797 H 0.11416 0.12296 0.62094 0.0
H798 H 0.06933 0.15851 0.61566 0.0
O799 O 0.07691 0.12329 0.8367 0.0
C800 C 0.12602 0.18397 0.86413 0.0
C801 C 0.06531 0.16329 0.69473 0.0
C802 C 0.10379 0.13211 0.65434 0.0
N803 N 0.10246 0.13534 0.74322 0.0
C804 C 0.07757 0.1546 0.74052 0.0
C805 C 0.11542 0.12393 0.70079 0.0
C806 C 0.07861 0.152 0.65139 0.0
C807 C 0.18874 0.10769 0.94135 0.0
N808 N 0.16976 0.13218 0.95084 0.0
C809 C 0.22035 0.10962 0.95092 0.0
C810 C 0.23247 0.13678 0.97061 0.0
C811 C 0.21293 0.16157 0.98052 0.0
C812 C 0.18145 0.15882 0.97039 0.0
C813 C 0.12035 0.14437 0.08907 0.0
C814 C 0.09642 0.17066 0.00396 0.0
C815 C 0.12781 0.13283 0.04225 0.0
N816 N 0.11574 0.14587 1.00035 0.0
C817 C 0.08845 0.18284 0.05014 0.0
C818 C 0.10047 0.16951 0.09294 0.0
C819 C 0.06516 0.12407 0.88014 0.0
C820 C 0.13661 0.02953 0.78483 0.0
C821 C 0.08769 0.06973 0.77163 0.0
C822 C 0.08411 0.03862 0.75939 0.0
C823 C 0.10878 0.01842 0.76609 0.0
N824 N 0.115 0.08042 0.79027 0.0
C825 C 0.13927 0.06077 0.79685 0.0
Co826 Co 0.62649 0.37256 0.68883 0.0
Co827 Co 0.62735 0.37775 0.56101 0.0
O828 O 0.64137 0.39072 0.6268 0.0
C829 C 0.69438 0.36712 0.69422 0.0
O830 O 0.6939 0.35891 0.64745 0.0
C831 C 0.61904 0.44552 0.5601 0.0
O832 O 0.6087 0.4441 0.60564 0.0
O833 O 0.58335 0.38251 0.58146 0.0
O834 O 0.58314 0.37094 0.66283 0.0
H835 H 0.55725 0.32404 0.43998 0.0
H836 H 0.66288 0.43041 0.6915 0.0
O837 O 0.66948 0.37388 0.71676 0.0
H838 H 0.56291 0.45641 0.76797 0.0
H839 H 0.62222 0.3608 0.87428 0.0
H840 H 0.58343 0.32192 0.71414 0.0
H841 H 0.57343 0.40351 0.73879 0.0
H842 H 0.63956 0.38418 0.79578 0.0
O843 O 0.62788 0.42138 0.53754 0.0
H844 H 0.57674 0.33809 0.52276 0.0
H845 H 0.6465 0.39364 0.45798 0.0
H846 H 0.5653 0.29801 0.79175 0.0
H847 H 0.65345 0.48356 0.72056 0.0
H848 H 0.58474 0.31746 0.87255 0.0
H849 H 0.6031 0.49687 0.75896 0.0
O850 O 0.63434 0.33005 0.66361 0.0
H851 H 0.73769 0.412 0.54691 0.0
H852 H 0.66401 0.32819 0.51118 0.0
H853 H 0.71875 0.32173 0.48871 0.0
H854 H 0.75601 0.36386 0.50648 0.0
H855 H 0.68283 0.41734 0.56933 0.0
H856 H 0.62783 0.38016 0.37445 0.0
H857 H 0.58296 0.345 0.365 0.0
O858 O 0.6269 0.33337 0.58173 0.0
C859 C 0.56943 0.37689 0.6221 0.0
C860 C 0.577 0.33915 0.44356 0.0
C861 C 0.61663 0.37061 0.4068 0.0
N862 N 0.61331 0.36591 0.49532 0.0
C863 C 0.58819 0.34713 0.49039 0.0
C864 C 0.62719 0.37804 0.45424 0.0
C865 C 0.59142 0.35094 0.40153 0.0
C866 C 0.64106 0.43595 0.70867 0.0
N867 N 0.61879 0.41387 0.71361 0.0
C868 C 0.63579 0.46611 0.72487 0.0
C869 C 0.60752 0.47357 0.74633 0.0
C870 C 0.58496 0.45089 0.75139 0.0
C871 C 0.59104 0.42098 0.73473 0.0
C872 C 0.61353 0.35217 0.83931 0.0
C873 C 0.59181 0.33065 0.74919 0.0
C874 C 0.6233 0.36529 0.79475 0.0
N875 N 0.6123 0.3546 0.75048 0.0
C876 C 0.58155 0.31696 0.79299 0.0
C877 C 0.59249 0.32786 0.83831 0.0
C878 C 0.63227 0.31772 0.62079 0.0
C879 C 0.72166 0.39353 0.5388 0.0
C880 C 0.68009 0.34657 0.51929 0.0
C881 C 0.71105 0.34282 0.5063 0.0
C882 C 0.73193 0.36648 0.51622 0.0
N883 N 0.67019 0.37316 0.54144 0.0
C884 C 0.69053 0.39648 0.55118 0.0
Co885 Co 0.37955 0.87341 0.4437 0.0
Co886 Co 0.37795 0.86976 0.31533 0.0
O887 O 0.3642 0.88675 0.37888 0.0
C888 C 0.38592 0.94187 0.4429 0.0
O889 O 0.39187 0.94036 0.3954 0.0
C890 C 0.3097 0.86517 0.31234 0.0
O891 O 0.31017 0.85748 0.35927 0.0
O892 O 0.37093 0.82676 0.33967 0.0
O893 O 0.37906 0.82903 0.42212 0.0
H894 H 0.43116 0.79384 0.20278 0.0
H895 H 0.32426 0.91364 0.43929 0.0
O896 O 0.3803 0.91749 0.46767 0.0
H897 H 0.28938 0.81795 0.52039 0.0
H898 H 0.38437 0.87548 0.63007 0.0
H899 H 0.42735 0.82935 0.4781 0.0
H900 H 0.34361 0.82403 0.49474 0.0
H901 H 0.36481 0.89092 0.54791 0.0
O902 O 0.33462 0.871 0.28934 0.0
H903 H 0.41503 0.81547 0.28299 0.0
H904 H 0.36534 0.88649 0.21012 0.0
H905 H 0.44743 0.81299 0.55944 0.0
H906 H 0.26993 0.90875 0.465 0.0
H907 H 0.4259 0.83615 0.63621 0.0
H908 H 0.25213 0.86054 0.50566 0.0
O909 O 0.42318 0.87756 0.42103 0.0
H910 H 0.34786 0.98032 0.28646 0.0
H911 H 0.43039 0.9029 0.26698 0.0
H912 H 0.43943 0.95639 0.23963 0.0
H913 H 0.39796 0.9955 0.24912 0.0
H914 H 0.33999 0.92674 0.31421 0.0
H915 H 0.38047 0.86541 0.12891 0.0
H916 H 0.41386 0.81889 0.12481 0.0
O917 O 0.42208 0.8683 0.33887 0.0
C918 C 0.37396 0.8141 0.38212 0.0
C919 C 0.41707 0.81446 0.20404 0.0
C920 C 0.38857 0.85456 0.1626 0.0
N921 N 0.39056 0.85311 0.25157 0.0
C922 C 0.40825 0.82706 0.24952 0.0
C923 C 0.38022 0.86649 0.20877 0.0
C924 C 0.40727 0.82845 0.16032 0.0
C925 C 0.31681 0.89281 0.45761 0.0
N926 N 0.33715 0.86925 0.46571 0.0
C927 C 0.28597 0.89008 0.47183 0.0
C928 C 0.27598 0.863 0.49453 0.0
C929 C 0.29686 0.83909 0.50277 0.0
C930 C 0.32753 0.84263 0.48802 0.0
C931 C 0.39386 0.86513 0.5969 0.0
C932 C 0.41766 0.83926 0.51129 0.0
C933 C 0.38289 0.8738 0.55027 0.0
N934 N 0.39466 0.86071 0.50822 0.0
C935 C 0.42921 0.83003 0.55727 0.0
C936 C 0.41715 0.84306 0.60032 0.0
C937 C 0.43659 0.87311 0.37949 0.0
C938 C 0.36607 0.96346 0.28193 0.0
C939 C 0.4123 0.91982 0.27167 0.0
C940 C 0.41751 0.95005 0.25585 0.0
C941 C 0.39421 0.97198 0.26111 0.0
N942 N 0.38465 0.91164 0.29212 0.0
C943 C 0.36167 0.93301 0.29726 0.0
C944 C 0.10573 0.76721 0.09985 0.0
C945 C 0.13229 0.78323 0.11661 0.0
C946 C 0.15819 0.73377 0.13328 0.0
C947 C 0.13177 0.7177 0.11534 0.0
N948 N 0.08238 0.71953 0.07363 0.0
N949 N 0.18573 0.78245 0.14064 0.0
C950 C 0.10631 0.73457 0.0959 0.0
C951 C 0.15905 0.76667 0.13114 0.0
N952 N 0.0791 0.78306 0.09047 0.0
N953 N 0.18262 0.71756 0.15201 0.0
H954 H 0.18713 0.80641 0.13859 0.0
H955 H 0.20703 0.77199 0.14652 0.0
H956 H 0.18439 0.69364 0.14951 0.0
H957 H 0.20069 0.72757 0.17168 0.0
H958 H 0.05772 0.77261 0.0853 0.0
H959 H 0.0777 0.80695 0.09177 0.0
H960 H 0.06584 0.73046 0.0518 0.0
H961 H 0.07979 0.69583 0.07463 0.0
C962 C 0.48859 0.84761 0.3661 0.0
C963 C 0.47111 0.87434 0.37852 0.0
C964 C 0.51957 0.90279 0.39247 0.0
C965 C 0.53635 0.87506 0.38567 0.0
N966 N 0.53672 0.81985 0.37571 0.0
N967 N 0.47027 0.92747 0.40576 0.0
C968 C 0.52083 0.84714 0.37515 0.0
C969 C 0.48674 0.9019 0.39272 0.0
N970 N 0.47473 0.82279 0.34452 0.0
N971 N 0.535 0.93022 0.3961 0.0
H972 H 0.44657 0.92897 0.40108 0.0
H973 H 0.47991 0.94668 0.42304 0.0
H974 H 0.55899 0.93171 0.3959 0.0
H975 H 0.52422 0.95169 0.39529 0.0
H976 H 0.48688 0.80428 0.32945 0.0
H977 H 0.45128 0.8219 0.33762 0.0
H978 H 0.52603 0.79835 0.37373 0.0
H979 H 0.5603 0.81849 0.38322 0.0
C980 C 0.39634 0.26369 0.65292 0.0
C981 C 0.3703 0.28061 0.6363 0.0
C982 C 0.34284 0.23193 0.61976 0.0
C983 C 0.3685 0.21506 0.63837 0.0
N984 N 0.41762 0.21511 0.68025 0.0
N985 N 0.31712 0.28142 0.61056 0.0
C986 C 0.39451 0.23108 0.65752 0.0
C987 C 0.34309 0.26486 0.6214 0.0
N988 N 0.42355 0.27866 0.66164 0.0
N989 N 0.3182 0.21642 0.60041 0.0
H990 H 0.31659 0.30542 0.61124 0.0
H991 H 0.29551 0.27164 0.60464 0.0
H992 H 0.31598 0.19257 0.60277 0.0
H993 H 0.30059 0.22686 0.58025 0.0
H994 H 0.44447 0.26747 0.66771 0.0
H995 H 0.42585 0.30245 0.65847 0.0
H996 H 0.43512 0.22543 0.70088 0.0
H997 H 0.41821 0.19122 0.68101 0.0
C998 C 0.01525 0.15111 0.89993 0.0
C999 C 0.03086 0.1241 0.88385 0.0
C1000 C 0.98099 0.09905 0.86716 0.0
C1001 C 0.96534 0.12583 0.88445 0.0
N1002 N 0.96752 0.17575 0.92388 0.0
N1003 N 0.02901 0.07073 0.85923 0.0
C1004 C 0.98251 0.15125 0.90315 0.0
C1005 C 0.01381 0.09765 0.8692 0.0
N1006 N 0.03166 0.17738 0.90932 0.0
N1007 N 0.96441 0.07479 0.84887 0.0
H1008 H 0.05291 0.06896 0.85992 0.0
H1009 H 0.01821 0.04956 0.85379 0.0
H1010 H 0.94058 0.07341 0.85198 0.0
H1011 H 0.97396 0.05658 0.82894 0.0
H1012 H 0.02175 0.19899 0.91481 0.0
H1013 H 0.05558 0.17819 0.9076 0.0
H1014 H 0.97841 0.19284 0.94463 0.0
H1015 H 0.94376 0.17819 0.92261 0.0
C1016 C 0.10273 0.26783 0.8401 0.0
C1017 C 0.12824 0.28389 0.86085 0.0
C1018 C 0.1541 0.23429 0.87683 0.0
C1019 C 0.12728 0.21831 0.86091 0.0
N1020 N 0.07456 0.21989 0.83268 0.0
N1021 N 0.17784 0.28235 0.90141 0.0
C1022 C 0.10133 0.23509 0.8434 0.0
C1023 C 0.15378 0.26705 0.87995 0.0
N1024 N 0.07958 0.28384 0.81751 0.0
N1025 N 0.18047 0.21821 0.88685 0.0
H1026 H 0.18007 0.30616 0.90006 0.0
H1027 H 0.19478 0.27167 0.92272 0.0
H1028 H 0.18158 0.19432 0.88522 0.0
H1029 H 0.2019 0.22841 0.8927 0.0
H1030 H 0.0626 0.27365 0.79564 0.0
H1031 H 0.07834 0.30772 0.81826 0.0
H1032 H 0.05358 0.23081 0.82591 0.0
H1033 H 0.0726 0.19606 0.8347 0.0
C1034 C 0.9868 0.90749 0.10425 0.0
C1035 C 0.97039 0.88689 0.13588 0.0
C1036 C 0.01823 0.85905 0.15245 0.0
C1037 C 0.03534 0.8803 0.12351 0.0
N1038 N 0.03613 0.92956 0.08128 0.0
N1039 N 0.97578 0.85439 0.20852 0.0
C1040 C 0.0197 0.90585 0.10169 0.0
C1041 C 0.98751 0.86601 0.1656 0.0
N1042 N 0.97116 0.92948 0.07811 0.0
N1043 N 0.03086 0.83167 0.16677 0.0
H1044 H 0.95682 0.86416 0.22588 0.0
H1045 H 0.98833 0.83992 0.2319 0.0
H1046 H 0.05277 0.82489 0.1559 0.0
H1047 H 0.01813 0.81438 0.1842 0.0
H1048 H 0.98085 0.94181 0.04889 0.0
H1049 H 0.94823 0.93514 0.0853 0.0
H1050 H 0.02625 0.95027 0.0699 0.0
H1051 H 0.06008 0.92995 0.07973 0.0
C1052 C 0.34471 0.73078 0.38672 0.0
C1053 C 0.37271 0.71453 0.37828 0.0
C1054 C 0.40122 0.76316 0.38385 0.0
C1055 C 0.37316 0.77982 0.38469 0.0
N1056 N 0.31762 0.77983 0.38556 0.0
N1057 N 0.42704 0.71633 0.35947 0.0
C1058 C 0.34467 0.7637 0.38556 0.0
C1059 C 0.40077 0.73107 0.37395 0.0
N1060 N 0.31835 0.71484 0.39717 0.0
N1061 N 0.42829 0.77764 0.39485 0.0
H1062 H 0.42761 0.6928 0.35221 0.0
H1063 H 0.44737 0.72791 0.35059 0.0
H1064 H 0.4292 0.80077 0.40509 0.0
H1065 H 0.44912 0.76594 0.3994 0.0
H1066 H 0.29796 0.72525 0.40884 0.0
H1067 H 0.31757 0.69087 0.39797 0.0
H1068 H 0.29612 0.7697 0.37998 0.0
H1069 H 0.3169 0.80373 0.38904 0.0
C1070 C 0.51117 0.14808 0.63619 0.0
C1071 C 0.52806 0.12013 0.6368 0.0
C1072 C 0.47946 0.09098 0.63597 0.0
C1073 C 0.46305 0.11892 0.62806 0.0
N1074 N 0.46373 0.17392 0.61446 0.0
N1075 N 0.52885 0.0646 0.63705 0.0
C1076 C 0.47907 0.14742 0.62626 0.0
C1077 C 0.51234 0.09142 0.63657 0.0
N1078 N 0.52555 0.17523 0.64734 0.0
N1079 N 0.46362 0.06424 0.64432 0.0
H1080 H 0.55263 0.0642 0.64235 0.0
H1081 H 0.51923 0.04297 0.63048 0.0
H1082 H 0.43965 0.06308 0.64343 0.0
H1083 H 0.47399 0.04373 0.65552 0.0
H1084 H 0.51389 0.19602 0.65228 0.0
H1085 H 0.54875 0.17626 0.65714 0.0
H1086 H 0.47478 0.19473 0.6069 0.0
H1087 H 0.44003 0.17453 0.60857 0.0
C1088 C 0.84392 0.23978 0.88027 0.0
C1089 C 0.87071 0.22248 0.86826 0.0
C1090 C 0.89883 0.27044 0.85033 0.0
C1091 C 0.87272 0.28788 0.86535 0.0
N1092 N 0.82085 0.28969 0.89725 0.0
N1093 N 0.92479 0.22097 0.84786 0.0
C1094 C 0.8454 0.27265 0.88115 0.0
C1095 C 0.89839 0.23773 0.85447 0.0
N1096 N 0.81675 0.22476 0.88901 0.0
N1097 N 0.92422 0.28521 0.83214 0.0
H1098 H 0.92534 0.19702 0.85009 0.0
H1099 H 0.94663 0.23061 0.84393 0.0
H1100 H 0.92647 0.30904 0.83278 0.0
H1101 H 0.94233 0.27412 0.81414 0.0
H1102 H 0.7955 0.2357 0.89242 0.0
H1103 H 0.81502 0.20083 0.88967 0.0
H1104 H 0.80183 0.28047 0.91547 0.0
H1105 H 0.82004 0.3136 0.89426 0.0
C1106 C 0.61218 0.73605 0.40752 0.0
C1107 C 0.63119 0.7191 0.37452 0.0
C1108 C 0.65786 0.76744 0.35298 0.0
C1109 C 0.63916 0.78372 0.38773 0.0
N1110 N 0.61216 0.77762 0.4658 0.0
N1111 N 0.67827 0.71805 0.32631 0.0
C1112 C 0.62039 0.76643 0.4205 0.0
C1113 C 0.65578 0.7346 0.34987 0.0
N1114 N 0.58572 0.72365 0.42594 0.0
N1115 N 0.67853 0.78313 0.32435 0.0
H1116 H 0.67858 0.69407 0.32498 0.0
H1117 H 0.69836 0.72786 0.31227 0.0
H1118 H 0.68478 0.80592 0.33146 0.0
H1119 H 0.68923 0.77356 0.29339 0.0
H1120 H 0.56992 0.73637 0.44676 0.0
H1121 H 0.57795 0.70204 0.41538 0.0
H1122 H 0.59936 0.76481 0.49121 0.0
H1123 H 0.62321 0.79636 0.48184 0.0
C1124 C 0.90288 0.73985 0.11313 0.0
C1125 C 0.87545 0.72284 0.12259 0.0
C1126 C 0.8472 0.77135 0.13679 0.0
C1127 C 0.87482 0.78818 0.12823 0.0
N1128 N 0.9301 0.78859 0.11928 0.0
N1129 N 0.82046 0.72214 0.13478 0.0
C1130 C 0.90294 0.77247 0.11905 0.0
C1131 C 0.84736 0.73855 0.13267 0.0
N1132 N 0.92876 0.72492 0.09712 0.0
N1133 N 0.82088 0.78677 0.14957 0.0
H1134 H 0.81967 0.69838 0.12989 0.0
H1135 H 0.7986 0.73189 0.13722 0.0
H1136 H 0.8194 0.81067 0.14982 0.0
H1137 H 0.80093 0.77623 0.16261 0.0
H1138 H 0.9482 0.73612 0.08345 0.0
H1139 H 0.93002 0.7011 0.09384 0.0
H1140 H 0.95178 0.77826 0.11868 0.0
H1141 H 0.93126 0.81238 0.12492 0.0
C1142 C 0.65401 0.26616 0.64961 0.0
C1143 C 0.63431 0.28315 0.6173 0.0
C1144 C 0.60492 0.23639 0.60052 0.0
C1145 C 0.62507 0.21879 0.63076 0.0
N1146 N 0.67453 0.21617 0.67238 0.0
N1147 N 0.60335 0.27825 0.54287 0.0
C1148 C 0.65123 0.23343 0.6524 0.0
C1149 C 0.61335 0.26661 0.58692 0.0
N1150 N 0.6764 0.28101 0.67591 0.0
N1151 N 0.57741 0.22464 0.585 0.0
H1152 H 0.61464 0.29636 0.52549 0.0
H1153 H 0.58874 0.26612 0.51911 0.0
H1154 H 0.56971 0.20303 0.59582 0.0
H1155 H 0.56098 0.23785 0.56632 0.0
H1156 H 0.68814 0.27096 0.7055 0.0
H1157 H 0.68307 0.3035 0.66801 0.0
H1158 H 0.69555 0.2254 0.68379 0.0
H1159 H 0.67446 0.19218 0.673 0.0
C1160 C 0.01869 0.35504 0.88801 0.0
C1161 C 0.03528 0.38252 0.8776 0.0
C1162 C 0.98635 0.41041 0.86543 0.0
C1163 C 0.96982 0.38332 0.87869 0.0
N1164 N 0.96985 0.33042 0.906 0.0
N1165 N 0.03563 0.43699 0.86024 0.0
C1166 C 0.98594 0.35587 0.89117 0.0
C1167 C 0.01928 0.41037 0.86709 0.0
N1168 N 0.03426 0.32773 0.89236 0.0
N1169 N 0.97047 0.43611 0.85087 0.0
H1170 H 0.05963 0.4376 0.86015 0.0
H1171 H 0.02574 0.45881 0.8578 0.0
H1172 H 0.94653 0.43762 0.85259 0.0
H1173 H 0.98066 0.45543 0.83496 0.0
H1174 H 0.02368 0.30621 0.89387 0.0
H1175 H 0.05818 0.32625 0.89062 0.0
H1176 H 0.9799 0.31108 0.92219 0.0
H1177 H 0.94595 0.3292 0.90427 0.0
C1178 C 0.51771 0.59224 0.37044 0.0
C1179 C 0.53319 0.62096 0.37424 0.0
C1180 C 0.48467 0.64656 0.39438 0.0
C1181 C 0.46844 0.61857 0.38686 0.0
N1182 N 0.46896 0.5653 0.36093 0.0
N1183 N 0.52959 0.67628 0.37227 0.0
C1184 C 0.48483 0.59147 0.37294 0.0
C1185 C 0.51619 0.64838 0.3813 0.0
N1186 N 0.53444 0.56586 0.36402 0.0
N1187 N 0.47013 0.6715 0.41431 0.0
H1188 H 0.55176 0.67805 0.35772 0.0
H1189 H 0.51747 0.69705 0.37281 0.0
H1190 H 0.44691 0.67112 0.42353 0.0
H1191 H 0.48172 0.69145 0.42528 0.0
H1192 H 0.52513 0.54378 0.36666 0.0
H1193 H 0.55818 0.56621 0.35797 0.0
H1194 H 0.47913 0.54583 0.34529 0.0
H1195 H 0.44509 0.56371 0.36402 0.0
C1196 C 0.5183 0.40322 0.63382 0.0
C1197 C 0.5352 0.37621 0.62191 0.0
C1198 C 0.48684 0.34815 0.60708 0.0
C1199 C 0.46973 0.3746 0.62203 0.0
N1200 N 0.46923 0.4265 0.65448 0.0
N1201 N 0.53623 0.32165 0.60506 0.0
C1202 C 0.48553 0.40188 0.63683 0.0
C1203 C 0.51965 0.34831 0.61058 0.0
N1204 N 0.53362 0.43038 0.6413 0.0
N1205 N 0.47175 0.32284 0.58925 0.0
H1206 H 0.56025 0.32091 0.60715 0.0
H1207 H 0.52629 0.29985 0.60231 0.0
H1208 H 0.44787 0.32117 0.58899 0.0
H1209 H 0.48269 0.30436 0.57198 0.0
H1210 H 0.52285 0.45179 0.64385 0.0
H1211 H 0.55756 0.43184 0.64202 0.0
H1212 H 0.47918 0.44541 0.6721 0.0
H1213 H 0.44532 0.42728 0.6542 0.0
C1214 C 0.01838 0.59666 0.11225 0.0
C1215 C 0.03537 0.62348 0.1248 0.0
C1216 C 0.98697 0.65096 0.14207 0.0
C1217 C 0.96987 0.62521 0.12432 0.0
N1218 N 0.96969 0.57411 0.08842 0.0
N1219 N 0.03589 0.67755 0.14598 0.0
C1220 C 0.98574 0.59832 0.10793 0.0
C1221 C 0.01967 0.65092 0.13861 0.0
N1222 N 0.03328 0.56905 0.10739 0.0
N1223 N 0.97205 0.6757 0.1622 0.0
H1224 H 0.05981 0.67849 0.1447 0.0
H1225 H 0.02574 0.69923 0.14939 0.0
H1226 H 0.94829 0.67816 0.16127 0.0
H1227 H 0.98309 0.69298 0.18235 0.0
H1228 H 0.02207 0.54794 0.10357 0.0
H1229 H 0.05692 0.56681 0.11238 0.0
H1230 H 0.97999 0.55593 0.06932 0.0
H1231 H 0.94582 0.57299 0.08887 0.0
C1232 C 0.14382 0.50436 0.04221 0.0
C1233 C 0.1186 0.52475 0.03609 0.0
C1234 C 0.09261 0.48675 0.98336 0.0
C1235 C 0.11973 0.46831 0.98333 0.0
N1236 N 0.17302 0.46198 0.00796 0.0
N1237 N 0.07009 0.53724 0.99713 0.0
C1238 C 0.14577 0.47757 0.01191 0.0
C1239 C 0.09334 0.51655 0.00541 0.0
N1240 N 0.16598 0.51059 0.07689 0.0
N1241 N 0.06564 0.47511 0.96487 0.0
H1242 H 0.06915 0.55882 0.0142 0.0
H1243 H 0.05291 0.53385 0.97067 0.0
H1244 H 0.06366 0.45258 0.95167 0.0
H1245 H 0.0445 0.48639 0.96786 0.0
H1246 H 0.18302 0.49485 0.08702 0.0
H1247 H 0.16587 0.53049 0.09866 0.0
H1248 H 0.19364 0.46968 0.02344 0.0
H1249 H 0.17579 0.44286 0.9853 0.0
C1250 C 0.74638 0.85827 0.28673 0.0
C1251 C 0.72258 0.87863 0.27107 0.0
C1252 C 0.75444 0.89554 0.20095 0.0
C1253 C 0.7775 0.87417 0.21541 0.0
N1254 N 0.79322 0.83076 0.26518 0.0
N1255 N 0.70178 0.91335 0.20942 0.0
C1256 C 0.77286 0.85428 0.25642 0.0
C1257 C 0.72583 0.89604 0.22673 0.0
N1258 N 0.74385 0.84287 0.33078 0.0
N1259 N 0.76055 0.91664 0.16456 0.0
H1260 H 0.68126 0.91632 0.22877 0.0
H1261 H 0.70133 0.92325 0.17429 0.0
H1262 H 0.78126 0.9172 0.14497 0.0
H1263 H 0.7462 0.9352 0.15631 0.0
H1264 H 0.76204 0.83098 0.34723 0.0
H1265 H 0.7241 0.84338 0.35275 0.0
H1266 H 0.78946 0.81339 0.29108 0.0
H1267 H 0.81269 0.82685 0.24336 0.0
C1268 C 0.36198 0.48743 0.53658 0.0
C1269 C 0.38779 0.46782 0.53022 0.0
C1270 C 0.41233 0.50696 0.47787 0.0
C1271 C 0.38463 0.5246 0.4782 0.0
N1272 N 0.33098 0.52833 0.502 0.0
N1273 N 0.43634 0.45698 0.49046 0.0
C1274 C 0.3589 0.51404 0.50622 0.0
C1275 C 0.41258 0.47696 0.49937 0.0
N1276 N 0.3406 0.48099 0.57228 0.0
N1277 N 0.43896 0.51958 0.45994 0.0
H1278 H 0.43777 0.43523 0.50687 0.0
H1279 H 0.45333 0.46107 0.46399 0.0
H1280 H 0.44032 0.54233 0.44765 0.0
H1281 H 0.4604 0.50887 0.46271 0.0
H1282 H 0.32308 0.49623 0.58226 0.0
H1283 H 0.34215 0.46175 0.5953 0.0
H1284 H 0.31074 0.51965 0.5174 0.0
H1285 H 0.32736 0.54704 0.47883 0.0
C1286 C 0.74361 0.15005 0.70936 0.0
C1287 C 0.72092 0.12911 0.72744 0.0
C1288 C 0.756 0.11367 0.79482 0.0
C1289 C 0.77769 0.13594 0.77851 0.0
N1290 N 0.79081 0.17859 0.72553 0.0
N1291 N 0.70448 0.09244 0.78951 0.0
C1292 C 0.77118 0.15494 0.73708 0.0
C1293 C 0.72673 0.11157 0.77106 0.0
N1294 N 0.739 0.16516 0.66549 0.0
N1295 N 0.76408 0.09328 0.83129 0.0
H1296 H 0.68426 0.08719 0.77059 0.0
H1297 H 0.70535 0.08272 0.82473 0.0
H1298 H 0.78524 0.094 0.84958 0.0
H1299 H 0.751 0.0741 0.84106 0.0
H1300 H 0.75617 0.17742 0.64715 0.0
H1301 H 0.71849 0.16411 0.64544 0.0
H1302 H 0.78582 0.19559 0.69952 0.0
H1303 H 0.81121 0.18282 0.74492 0.0
C1304 C 0.85913 0.48492 0.00334 0.0
C1305 C 0.88515 0.47563 0.97471 0.0
C1306 C 0.91015 0.52521 0.99335 0.0
C1307 C 0.88541 0.53301 0.02534 0.0
N1308 N 0.83882 0.51813 0.06782 0.0
N1309 N 0.93884 0.48389 0.95447 0.0
C1310 C 0.86081 0.51206 0.03282 0.0
C1311 C 0.91163 0.49498 0.97289 0.0
N1312 N 0.83202 0.46907 1.0001 0.0
N1313 N 0.9323 0.54658 0.98245 0.0
H1314 H 0.94164 0.46116 0.94262 0.0
H1315 H 0.95956 0.49601 0.95646 0.0
H1316 H 0.93256 0.5687 0.99771 0.0
H1317 H 0.94898 0.54319 0.95521 0.0
H1318 H 0.81142 0.47672 0.01571 0.0
H1319 H 0.82921 0.45001 0.97744 0.0
H1320 H 0.82258 0.5019 0.0792 0.0
H1321 H 0.83814 0.53854 0.08828 0.0
C1322 C 0.23501 0.10727 0.77481 0.0
C1323 C 0.21608 0.13375 0.7714 0.0
C1324 C 0.25553 0.15949 0.7213 0.0
C1325 C 0.27246 0.13137 0.71873 0.0
N1326 N 0.27408 0.07653 0.73497 0.0
N1327 N 0.20618 0.18408 0.73698 0.0
C1328 C 0.2611 0.10471 0.74345 0.0
C1329 C 0.22563 0.15954 0.74308 0.0
N1330 N 0.2285 0.08481 0.80873 0.0
N1331 N 0.26867 0.18651 0.70592 0.0
H1332 H 0.18454 0.18532 0.75378 0.0
H1333 H 0.21056 0.20204 0.71234 0.0
H1334 H 0.29124 0.18797 0.69286 0.0
H1335 H 0.25848 0.20803 0.71125 0.0
H1336 H 0.24336 0.06647 0.81616 0.0
H1337 H 0.20991 0.08624 0.8331 0.0
H1338 H 0.26489 0.05598 0.74845 0.0
H1339 H 0.29174 0.07332 0.7096 0.0
C1340 C 0.60508 0.50612 0.461 0.0
C1341 C 0.62762 0.52852 0.47424 0.0
C1342 C 0.64217 0.49779 0.54738 0.0
C1343 C 0.62012 0.47525 0.53339 0.0
N1344 N 0.58152 0.45623 0.4768 0.0
N1345 N 0.66543 0.54774 0.5324 0.0
C1346 C 0.60176 0.47902 0.49024 0.0
C1347 C 0.64541 0.525 0.5183 0.0
N1348 N 0.58563 0.51168 0.42206 0.0
N1349 N 0.66151 0.49209 0.58649 0.0
H1350 H 0.67101 0.56636 0.50994 0.0
H1351 H 0.67572 0.54904 0.56717 0.0
H1352 H 0.65975 0.47259 0.60888 0.0
H1353 H 0.6806 0.50551 0.59541 0.0
H1354 H 0.56638 0.49838 0.41356 0.0
H1355 H 0.58744 0.531 0.39946 0.0
H1356 H 0.57058 0.45504 0.44255 0.0
H1357 H 0.57635 0.43744 0.49946 0.0
C1358 C 0.25761 0.88941 0.30035 0.0
C1359 C 0.28001 0.86747 0.28538 0.0
C1360 C 0.24878 0.85425 0.2125 0.0
C1361 C 0.2252 0.87456 0.22933 0.0
N1362 N 0.20554 0.90888 0.2926 0.0
N1363 N 0.29457 0.82474 0.2332 0.0
C1364 C 0.22902 0.89112 0.27452 0.0
C1365 C 0.27497 0.84873 0.24304 0.0
N1366 N 0.26439 0.90996 0.33732 0.0
N1367 N 0.2464 0.84038 0.16713 0.0
H1368 H 0.31369 0.81961 0.25522 0.0
H1369 H 0.29036 0.80813 0.20614 0.0
H1370 H 0.2271 0.84241 0.14438 0.0
H1371 H 0.26448 0.82853 0.15032 0.0
H1372 H 0.25057 0.92882 0.34615 0.0
H1373 H 0.28524 0.90989 0.3566 0.0
H1374 H 0.20532 0.91797 0.32832 0.0
H1375 H 0.18532 0.91317 0.27309 0.0
C1376 C 0.59758 0.02372 0.49489 0.0
C1377 C 0.61703 0.02987 0.53595 0.0
C1378 C 0.64477 0.98143 0.52191 0.0
C1379 C 0.62691 0.97635 0.47835 0.0
N1380 N 0.58874 0.99448 0.41973 0.0
N1381 N 0.66202 0.01761 0.58465 0.0
C1382 C 0.60411 0.99811 0.46364 0.0
C1383 C 0.64125 0.00943 0.54873 0.0
N1384 N 0.57207 0.04169 0.48705 0.0
N1385 N 0.66541 0.95967 0.53755 0.0
H1386 H 0.66033 0.03793 0.60515 0.0
H1387 H 0.68236 0.0056 0.59164 0.0
H1388 H 0.67133 0.94044 0.51663 0.0
H1389 H 0.67562 0.95986 0.57247 0.0
H1390 H 0.55501 0.03652 0.46119 0.0
H1391 H 0.5664 0.06045 0.50954 0.0
H1392 H 0.57473 0.01142 0.40419 0.0
H1393 H 0.59149 0.9754 0.39671 0.0
C1394 C 0.27104 0.39259 0.75679 0.0
C1395 C 0.28129 0.36625 0.72987 0.0
C1396 C 0.23332 0.33925 0.75188 0.0
C1397 C 0.2243 0.36483 0.78126 0.0
N1398 N 0.23799 0.41238 0.82186 0.0
N1399 N 0.27565 0.31173 0.71347 0.0
C1400 C 0.24423 0.39044 0.78688 0.0
C1401 C 0.26335 0.33876 0.73055 0.0
N1402 N 0.28587 0.42017 0.7518 0.0
N1403 N 0.21311 0.31555 0.74394 0.0
H1404 H 0.29829 0.30995 0.70077 0.0
H1405 H 0.26475 0.29044 0.71711 0.0
H1406 H 0.19128 0.3147 0.76016 0.0
H1407 H 0.2171 0.29795 0.71842 0.0
H1408 H 0.27746 0.44081 0.76631 0.0
H1409 H 0.30488 0.42307 0.72897 0.0
H1410 H 0.25335 0.42994 0.83117 0.0
H1411 H 0.21888 0.41116 0.84519 0.0
C1412 C 0.86079 0.01153 0.95624 0.0
C1413 C 0.88154 0.03484 0.97197 0.0
C1414 C 0.89838 0.00241 0.0415 0.0
C1415 C 0.87868 0.97835 0.02444 0.0
N1416 N 0.84373 0.95853 0.96214 0.0
N1417 N 0.92367 0.05121 0.02388 0.0
C1418 C 0.86087 0.98239 0.98054 0.0
C1419 C 0.90127 0.02998 0.01315 0.0
N1420 N 0.83974 0.01788 0.9198 0.0
N1421 N 0.9143 0.99901 0.08495 0.0
H1422 H 0.92647 0.07163 0.00394 0.0
H1423 H 0.9411 0.04764 0.04978 0.0
H1424 H 0.91497 0.97847 0.10495 0.0
H1425 H 0.92566 0.01703 0.1028 0.0
H1426 H 0.8215 0.00338 0.91051 0.0
H1427 H 0.83888 0.03893 0.90118 0.0
H1428 H 0.83385 0.95855 0.92697 0.0
H1429 H 0.8407 0.93777 0.98067 0.0
C1430 C 0.2305 0.6082 0.26765 0.0
C1431 C 0.22656 0.62583 0.22358 0.0
C1432 C 0.27741 0.6497 0.23664 0.0
C1433 C 0.28211 0.63035 0.27828 0.0
N1434 N 0.26588 0.58762 0.3289 0.0
N1435 N 0.24765 0.66097 0.1628 0.0
C1436 C 0.25931 0.6088 0.29283 0.0
C1437 C 0.25049 0.6458 0.207 0.0
N1438 N 0.20688 0.59052 0.28536 0.0
N1439 N 0.29813 0.67268 0.22663 0.0
H1440 H 0.22771 0.66047 0.14126 0.0
H1441 H 0.26574 0.67261 0.14573 0.0
H1442 H 0.3181 0.67621 0.24751 0.0
H1443 H 0.29444 0.68985 0.20036 0.0
H1444 H 0.20672 0.58086 0.32067 0.0
H1445 H 0.18653 0.58675 0.26601 0.0
H1446 H 0.25176 0.56893 0.33735 0.0
H1447 H 0.28686 0.58701 0.34771 0.0
C1448 C 0.4097 0.01147 0.52029 0.0
C1449 C 0.38257 0.02988 0.51794 0.0
C1450 C 0.35992 0.99254 0.4595 0.0
C1451 C 0.38508 0.97232 0.46789 0.0
N1452 N 0.43247 0.96072 0.51096 0.0
N1453 N 0.32976 0.03529 0.49022 0.0
C1454 C 0.40947 0.98119 0.49991 0.0
C1455 C 0.35719 0.01988 0.48845 0.0
N1456 N 0.43631 0.02359 0.53933 0.0
N1457 N 0.33845 0.98563 0.42402 0.0
H1458 H 0.32641 0.05489 0.51154 0.0
H1459 H 0.30949 0.02705 0.47425 0.0
H1460 H 0.33875 0.96521 0.40356 0.0
H1461 H 0.32173 0.00122 0.4121 0.0
H1462 H 0.45749 0.01227 0.53798 0.0
H1463 H 0.43808 0.04645 0.55108 0.0
H1464 H 0.44893 0.96474 0.53836 0.0
H1465 H 0.43376 0.93871 0.49546 0.0
C1466 C 0.7716 0.65456 0.25031 0.0
C1467 C 0.77728 0.63474 0.20951 0.0
C1468 C 0.72615 0.61123 0.22008 0.0
C1469 C 0.72172 0.6289 0.26402 0.0
N1470 N 0.74182 0.66507 0.32428 0.0
N1471 N 0.76217 0.59133 0.1591 0.0
C1472 C 0.74495 0.64985 0.28015 0.0
C1473 C 0.75502 0.61251 0.19495 0.0
N1474 N 0.79107 0.67878 0.25929 0.0
N1475 N 0.70302 0.59276 0.20262 0.0
H1476 H 0.78304 0.59127 0.13997 0.0
H1477 H 0.74856 0.57221 0.15092 0.0
H1478 H 0.6827 0.5887 0.22192 0.0
H1479 H 0.70318 0.58277 0.16753 0.0
H1480 H 0.78648 0.69613 0.28495 0.0
H1481 H 0.81055 0.68326 0.23778 0.0
H1482 H 0.75963 0.67742 0.34096 0.0
H1483 H 0.7221 0.66385 0.3462 0.0
C1484 C 0.10482 0.99961 0.04572 0.0
C1485 C 0.12567 0.97659 0.02837 0.0
C1486 C 0.13789 0.00884 0.9559 0.0
C1487 C 0.11832 0.03236 0.97461 0.0
N1488 N 0.08568 0.05213 0.03962 0.0
N1489 N 0.16616 0.96174 0.97171 0.0
C1490 C 0.10264 0.02835 0.02031 0.0
C1491 C 0.14308 0.98173 0.98445 0.0
N1492 N 0.08596 0.9935 0.08513 0.0
N1493 N 0.15204 0.01263 0.91105 0.0
H1494 H 0.17138 0.94207 0.99195 0.0
H1495 H 0.18211 0.96588 0.9437 0.0
H1496 H 0.15197 0.03343 0.89178 0.0
H1497 H 0.16269 0.99479 0.89169 0.0
H1498 H 0.06758 0.00751 0.09557 0.0
H1499 H 0.08698 0.97321 0.10565 0.0
H1500 H 0.07729 0.05243 0.07574 0.0
H1501 H 0.08135 0.07258 0.02053 0.0
C1502 C 0.74472 0.39349 0.71138 0.0
C1503 C 0.72417 0.3688 0.72092 0.0
C1504 C 0.76275 0.34469 0.77473 0.0
C1505 C 0.78177 0.37131 0.77075 0.0
N1506 N 0.78762 0.42373 0.74121 0.0
N1507 N 0.71114 0.3237 0.7689 0.0
C1508 C 0.77203 0.39639 0.74033 0.0
C1509 C 0.73235 0.34535 0.75503 0.0
N1510 N 0.73809 0.41439 0.67497 0.0
N1511 N 0.7743 0.31804 0.79447 0.0
H1512 H 0.68868 0.32321 0.75506 0.0
H1513 H 0.71502 0.308 0.79745 0.0
H1514 H 0.79726 0.31566 0.80533 0.0
H1515 H 0.76228 0.29722 0.79424 0.0
H1516 H 0.75395 0.43058 0.66219 0.0
H1517 H 0.71749 0.41418 0.65498 0.0
H1518 H 0.77963 0.44375 0.72417 0.0
H1519 H 0.80693 0.42744 0.76307 0.0
loop_
_geom_bond_atom_site_label_1
_geom_bond_atom_site_label_2
_geom_bond_distance
_geom_bond_site_symmetry_2
_ccdc_geom_bond_type
Co0 O2 2.143 . S
Co0 O8 2.074 . S
Co0 O11 2.093 . S
Co0 O24 2.097 . S
Co0 N41 2.151 . S
Co0 N49 2.214 1_554 S
Co1 O2 2.160 . S
Co1 O7 2.058 . S
Co1 O17 2.057 . S
Co1 O32 2.037 . S
Co1 N36 2.145 . S
Co1 N57 2.257 . S
O2 Co0 2.143 . S
O2 Co1 2.160 . S
C3 O4 1.278 . S
C3 O11 1.224 . S
O4 C3 1.278 . S
C5 O6 1.245 . S
C5 O17 1.232 . S
O6 C5 1.245 . S
O7 Co1 2.058 . S
O7 C33 1.269 . S
O8 Co0 2.074 . S
O8 C33 1.257 . S
H9 C34 0.930 . S
H10 C40 0.930 . S
O11 Co0 2.093 . S
O11 C3 1.224 . S
H12 C44 0.929 . S
H13 C46 0.930 . S
H14 C47 0.944 . S
H15 C45 0.929 . S
H16 C48 0.928 . S
O17 Co1 2.057 . S
O17 C5 1.232 . S
H18 C37 0.929 . S
H19 C38 0.929 . S
H20 C50 0.931 . S
H21 C42 0.929 . S
H22 C51 0.930 . S
H23 C43 0.931 . S
O24 Co0 2.097 . S
O24 C52 1.214 . S
H25 C53 0.929 . S
H26 C54 0.929 . S
H27 C55 0.930 . S
H28 C56 0.929 . S
H29 C58 0.930 . S
H30 C35 0.930 . S
H31 C39 0.930 . S
O32 Co1 2.037 . S
O32 C52 1.234 . S
C33 O7 1.269 . S
C33 O8 1.257 . S
C34 H9 0.930 . S
C34 C37 1.388 . S
C34 C39 1.418 . S
C35 H30 0.930 . S
C35 C38 1.404 . S
C35 C39 1.353 . S
N36 Co1 2.145 . S
N36 C37 1.397 . S
N36 C38 1.334 . S
C37 H18 0.929 . S
C37 C34 1.388 . S
C37 N36 1.397 . S
C38 H19 0.929 . S
C38 C35 1.404 . S
C38 N36 1.334 . S
C39 H31 0.930 . S
C39 C34 1.418 . S
C39 C35 1.353 . S
C40 H10 0.930 . S
C40 N41 1.330 . S
C40 C42 1.446 1_554 S
N41 Co0 2.151 . S
N41 C40 1.330 . S
N41 C45 1.418 1_554 S
C42 H21 0.929 . S
C42 C40 1.446 1_556 S
C42 C43 1.332 . S
C43 H23 0.931 . S
C43 C42 1.332 . S
C43 C44 1.267 . S
C44 H12 0.929 . S
C44 C43 1.267 . S
C44 C45 1.251 . S
C45 H15 0.929 . S
C45 N41 1.418 1_556 S
C45 C44 1.251 . S
C46 H13 0.930 . S
C46 C48 1.406 . S
C46 C51 1.261 . S
C47 H14 0.944 . S
C47 N49 1.323 1_554 S
C47 C50 1.346 1_554 S
C48 H16 0.928 . S
C48 C46 1.406 . S
C48 N49 1.261 . S
N49 Co0 2.214 1_556 S
N49 C47 1.323 1_556 S
N49 C48 1.261 . S
C50 H20 0.931 . S
C50 C47 1.346 1_556 S
C50 C51 1.312 . S
C51 H22 0.930 . S
C51 C46 1.261 . S
C51 C50 1.312 . S
C52 O24 1.214 . S
C52 O32 1.234 . S
C53 H25 0.929 . S
C53 C56 1.391 . S
C53 C58 1.391 . S
C54 H26 0.929 . S
C54 C55 1.390 . S
C54 N57 1.391 . S
C55 H27 0.930 . S
C55 C54 1.390 . S
C55 C56 1.392 . S
C56 H28 0.929 . S
C56 C53 1.391 . S
C56 C55 1.392 . S
N57 Co1 2.257 . S
N57 C54 1.391 . S
N57 C58 1.388 . S
C58 H29 0.930 . S
C58 C53 1.391 . S
C58 N57 1.388 . S
Co59 O61 2.143 . S
Co59 O67 2.074 . S
Co59 O70 2.093 . S
Co59 O83 2.097 . S
Co59 N100 2.151 . S
Co59 N108 2.214 . S
Co60 O61 2.160 . S
Co60 O66 2.058 . S
Co60 O76 2.057 . S
Co60 O91 2.037 . S
Co60 N95 2.145 . S
Co60 N116 2.257 . S
O61 Co59 2.143 . S
O61 Co60 2.160 . S
C62 O63 1.278 . S
C62 O70 1.224 . S
O63 C62 1.278 . S
C64 O65 1.245 . S
C64 O76 1.232 . S
O65 C64 1.245 . S
O66 Co60 2.058 . S
O66 C92 1.269 . S
O67 Co59 2.074 . S
O67 C92 1.257 . S
H68 C93 0.930 . S
H69 C99 0.930 . S
O70 Co59 2.093 . S
O70 C62 1.224 . S
H71 C103 0.929 . S
H72 C105 0.930 . S
H73 C106 0.930 . S
H74 C104 0.929 . S
H75 C107 0.928 . S
O76 Co60 2.057 . S
O76 C64 1.232 . S
H77 C96 0.929 . S
H78 C97 0.929 . S
H79 C109 0.931 . S
H80 C101 0.929 . S
H81 C110 0.930 . S
H82 C102 0.931 . S
O83 Co59 2.097 . S
O83 C111 1.214 . S
H84 C112 0.929 . S
H85 C113 0.929 . S
H86 C114 0.930 . S
H87 C115 0.929 . S
H88 C117 0.930 . S
H89 C94 0.930 . S
H90 C98 0.930 . S
O91 Co60 2.037 . S
O91 C111 1.234 . S
C92 O66 1.269 . S
C92 O67 1.257 . S
C93 H68 0.930 . S
C93 C96 1.388 . S
C93 C98 1.418 . S
C94 H89 0.930 . S
C94 C97 1.404 . S
C94 C98 1.353 . S
N95 Co60 2.145 . S
N95 C96 1.397 . S
N95 C97 1.334 . S
C96 H77 0.929 . S
C96 C93 1.388 . S
C96 N95 1.397 . S
C97 H78 0.929 . S
C97 C94 1.404 . S
C97 N95 1.334 . S
C98 H90 0.930 . S
C98 C93 1.418 . S
C98 C94 1.353 . S
C99 H69 0.930 . S
C99 N100 1.330 . S
C99 C101 1.446 . S
N100 Co59 2.151 . S
N100 C99 1.330 . S
N100 C104 1.418 . S
C101 H80 0.929 . S
C101 C99 1.446 . S
C101 C102 1.332 . S
C102 H82 0.931 . S
C102 C101 1.332 . S
C102 C103 1.267 . S
C103 H71 0.929 . S
C103 C102 1.267 . S
C103 C104 1.251 . S
C104 H74 0.929 . S
C104 N100 1.418 . S
C104 C103 1.251 . S
C105 H72 0.930 . S
C105 C107 1.406 . S
C105 C110 1.261 . S
C106 H73 0.930 . S
C106 N108 1.325 . S
C106 C109 1.357 . S
C107 H75 0.928 . S
C107 C105 1.406 . S
C107 N108 1.261 . S
N108 Co59 2.214 . S
N108 C106 1.325 . S
N108 C107 1.261 . S
C109 H79 0.931 . S
C109 C106 1.357 . S
C109 C110 1.312 . S
C110 H81 0.930 . S
C110 C105 1.261 . S
C110 C109 1.312 . S
C111 O83 1.214 . S
C111 O91 1.234 . S
C112 H84 0.929 . S
C112 C115 1.391 . S
C112 C117 1.391 . S
C113 H85 0.929 . S
C113 C114 1.390 . S
C113 N116 1.391 . S
C114 H86 0.930 . S
C114 C113 1.390 . S
C114 C115 1.392 . S
C115 H87 0.929 . S
C115 C112 1.391 . S
C115 C114 1.392 . S
N116 Co60 2.257 . S
N116 C113 1.391 . S
N116 C117 1.388 . S
C117 H88 0.930 . S
C117 C112 1.391 . S
C117 N116 1.388 . S
Co118 O120 2.143 . S
Co118 O126 2.074 . S
Co118 O129 2.093 . S
Co118 O142 2.097 . S
Co118 N159 2.151 . S
Co118 N167 2.214 . S
Co119 O120 2.160 . S
Co119 O125 2.058 . S
Co119 O135 2.057 . S
Co119 O150 2.037 . S
Co119 N154 2.145 . S
Co119 N175 2.257 . S
O120 Co118 2.143 . S
O120 Co119 2.160 . S
C121 O122 1.278 . S
C121 O129 1.224 . S
O122 C121 1.278 . S
C123 O124 1.245 . S
C123 O135 1.232 . S
O124 C123 1.245 . S
O125 Co119 2.058 . S
O125 C151 1.269 . S
O126 Co118 2.074 . S
O126 C151 1.257 . S
H127 C152 0.930 . S
H128 C158 0.930 . S
O129 Co118 2.093 . S
O129 C121 1.224 . S
H130 C162 0.929 . S
H131 C164 0.930 . S
H132 C165 0.930 . S
H133 C163 0.929 . S
H134 C166 0.928 . S
O135 Co119 2.057 . S
O135 C123 1.232 . S
H136 C155 0.929 . S
H137 C156 0.929 . S
H138 C168 0.931 . S
H139 C160 0.929 . S
H140 C169 0.930 . S
H141 C161 0.931 . S
O142 Co118 2.097 . S
O142 C170 1.214 . S
H143 C171 0.929 . S
H144 C172 0.929 . S
H145 C173 0.930 . S
H146 C174 0.929 . S
H147 C176 0.930 . S
H148 C153 0.930 . S
H149 C157 0.930 . S
O150 Co119 2.037 . S
O150 C170 1.234 . S
C151 O125 1.269 . S
C151 O126 1.257 . S
C152 H127 0.930 . S
C152 C155 1.388 . S
C152 C157 1.418 . S
C153 H148 0.930 . S
C153 C156 1.404 . S
C153 C157 1.353 . S
N154 Co119 2.145 . S
N154 C155 1.397 . S
N154 C156 1.334 . S
C155 H136 0.929 . S
C155 C152 1.388 . S
C155 N154 1.397 . S
C156 H137 0.929 . S
C156 C153 1.404 . S
C156 N154 1.334 . S
C157 H149 0.930 . S
C157 C152 1.418 . S
C157 C153 1.353 . S
C158 H128 0.930 . S
C158 N159 1.330 . S
C158 C160 1.446 . S
N159 Co118 2.151 . S
N159 C158 1.330 . S
N159 C163 1.418 . S
C160 H139 0.929 . S
C160 C158 1.446 . S
C160 C161 1.332 . S
C161 H141 0.931 . S
C161 C160 1.332 . S
C161 C162 1.267 . S
C162 H130 0.929 . S
C162 C161 1.267 . S
C162 C163 1.251 . S
C163 H133 0.929 . S
C163 N159 1.418 . S
C163 C162 1.251 . S
C164 H131 0.930 . S
C164 C166 1.406 . S
C164 C169 1.261 . S
C165 H132 0.930 . S
C165 N167 1.325 . S
C165 C168 1.357 . S
C166 H134 0.928 . S
C166 C164 1.406 . S
C166 N167 1.261 . S
N167 Co118 2.214 . S
N167 C165 1.325 . S
N167 C166 1.261 . S
C168 H138 0.931 . S
C168 C165 1.357 . S
C168 C169 1.312 . S
C169 H140 0.930 . S
C169 C164 1.261 . S
C169 C168 1.312 . S
C170 O142 1.214 . S
C170 O150 1.234 . S
C171 H143 0.929 . S
C171 C174 1.391 . S
C171 C176 1.391 . S
C172 H144 0.929 . S
C172 C173 1.390 . S
C172 N175 1.391 . S
C173 H145 0.930 . S
C173 C172 1.390 . S
C173 C174 1.392 . S
C174 H146 0.929 . S
C174 C171 1.391 . S
C174 C173 1.392 . S
N175 Co119 2.257 . S
N175 C172 1.391 . S
N175 C176 1.388 . S
C176 H147 0.930 . S
C176 C171 1.391 . S
C176 N175 1.388 . S
Co177 O179 2.143 . S
Co177 O185 2.074 . S
Co177 O188 2.093 . S
Co177 O201 2.097 . S
Co177 N218 2.151 . S
Co177 N226 2.214 . S
Co178 O179 2.160 . S
Co178 O184 2.058 . S
Co178 O194 2.057 . S
Co178 O209 2.037 . S
Co178 N213 2.145 1_556 S
Co178 N234 2.257 . S
O179 Co177 2.143 . S
O179 Co178 2.160 . S
C180 O181 1.278 . S
C180 O188 1.224 . S
O181 C180 1.278 . S
C182 O183 1.245 . S
C182 O194 1.232 . S
O183 C182 1.245 . S
O184 Co178 2.058 . S
O184 C210 1.269 . S
O185 Co177 2.074 . S
O185 C210 1.257 . S
H186 C211 0.930 . S
H187 C217 0.930 . S
O188 Co177 2.093 . S
O188 C180 1.224 . S
H189 C221 0.929 . S
H190 C223 0.930 . S
H191 C224 0.930 . S
H192 C222 0.929 . S
H193 C225 0.928 . S
O194 Co178 2.057 . S
O194 C182 1.232 . S
H195 C214 0.929 1_556 S
H196 C215 0.929 . S
H197 C227 0.931 . S
H198 C219 0.929 . S
H199 C228 0.930 . S
H200 C220 0.931 . S
O201 Co177 2.097 . S
O201 C229 1.214 . S
H202 C230 0.929 . S
H203 C231 0.929 . S
H204 C232 0.930 . S
H205 C233 0.929 . S
H206 C235 0.930 . S
H207 C212 0.930 . S
H208 C216 0.930 . S
O209 Co178 2.037 . S
O209 C229 1.234 . S
C210 O184 1.269 . S
C210 O185 1.257 . S
C211 H186 0.930 . S
C211 C214 1.388 . S
C211 C216 1.418 . S
C212 H207 0.930 . S
C212 C215 1.404 . S
C212 C216 1.353 . S
N213 Co178 2.145 1_554 S
N213 C214 1.397 . S
N213 C215 1.334 . S
C214 H195 0.929 1_554 S
C214 C211 1.388 . S
C214 N213 1.397 . S
C215 H196 0.929 . S
C215 C212 1.404 . S
C215 N213 1.334 . S
C216 H208 0.930 . S
C216 C211 1.418 . S
C216 C212 1.353 . S
C217 H187 0.930 . S
C217 N218 1.330 . S
C217 C219 1.446 . S
N218 Co177 2.151 . S
N218 C217 1.330 . S
N218 C222 1.418 . S
C219 H198 0.929 . S
C219 C217 1.446 . S
C219 C220 1.332 . S
C220 H200 0.931 . S
C220 C219 1.332 . S
C220 C221 1.267 . S
C221 H189 0.929 . S
C221 C220 1.267 . S
C221 C222 1.251 . S
C222 H192 0.929 . S
C222 N218 1.418 . S
C222 C221 1.251 . S
C223 H190 0.930 . S
C223 C225 1.406 . S
C223 C228 1.261 . S
C224 H191 0.930 . S
C224 N226 1.325 . S
C224 C227 1.357 . S
C225 H193 0.928 . S
C225 C223 1.406 . S
C225 N226 1.261 . S
N226 Co177 2.214 . S
N226 C224 1.325 . S
N226 C225 1.261 . S
C227 H197 0.931 . S
C227 C224 1.357 . S
C227 C228 1.312 . S
C228 H199 0.930 . S
C228 C223 1.261 . S
C228 C227 1.312 . S
C229 O201 1.214 . S
C229 O209 1.234 . S
C230 H202 0.929 . S
C230 C233 1.391 1_556 S
C230 C235 1.391 . S
C231 H203 0.929 . S
C231 C232 1.390 1_556 S
C231 N234 1.391 . S
C232 H204 0.930 . S
C232 C231 1.390 1_554 S
C232 C233 1.392 . S
C233 H205 0.929 . S
C233 C230 1.391 1_554 S
C233 C232 1.392 . S
N234 Co178 2.257 . S
N234 C231 1.391 . S
N234 C235 1.388 . S
C235 H206 0.930 . S
C235 C230 1.391 . S
C235 N234 1.388 . S
Co236 O238 2.143 . S
Co236 O244 2.074 . S
Co236 O247 2.093 . S
Co236 O260 2.097 . S
Co236 N277 2.151 . S
Co236 N285 2.214 1_556 S
Co237 O238 2.160 . S
Co237 O243 2.058 . S
Co237 O253 2.057 . S
Co237 O268 2.037 . S
Co237 N272 2.145 . S
Co237 N293 2.257 . S
O238 Co236 2.143 . S
O238 Co237 2.160 . S
C239 O240 1.278 . S
C239 O247 1.224 . S
O240 C239 1.278 . S
C241 O242 1.245 . S
C241 O253 1.232 . S
O242 C241 1.245 . S
O243 Co237 2.058 . S
O243 C269 1.269 . S
O244 Co236 2.074 . S
O244 C269 1.257 . S
H245 C270 0.930 . S
H246 C276 0.930 . S
O247 Co236 2.093 . S
O247 C239 1.224 . S
H248 C280 0.929 . S
H249 C282 0.930 . S
H250 C283 0.946 . S
H251 C281 0.929 . S
H252 C284 0.928 . S
O253 Co237 2.057 . S
O253 C241 1.232 . S
H254 C273 0.929 . S
H255 C274 0.929 . S
H256 C286 0.931 . S
H257 C278 0.929 . S
H258 C287 0.930 . S
H259 C279 0.931 . S
O260 Co236 2.097 . S
O260 C288 1.214 . S
H261 C289 0.929 . S
H262 C290 0.929 . S
H263 C291 0.930 . S
H264 C292 0.929 . S
H265 C294 0.930 . S
H266 C271 0.930 . S
H267 C275 0.930 . S
O268 Co237 2.037 . S
O268 C288 1.234 . S
C269 O243 1.269 . S
C269 O244 1.257 . S
C270 H245 0.930 . S
C270 C273 1.388 . S
C270 C275 1.418 . S
C271 H266 0.930 . S
C271 C274 1.404 . S
C271 C275 1.353 . S
N272 Co237 2.145 . S
N272 C273 1.397 . S
N272 C274 1.334 . S
C273 H254 0.929 . S
C273 C270 1.388 . S
C273 N272 1.397 . S
C274 H255 0.929 . S
C274 C271 1.404 . S
C274 N272 1.334 . S
C275 H267 0.930 . S
C275 C270 1.418 . S
C275 C271 1.353 . S
C276 H246 0.930 . S
C276 N277 1.330 . S
C276 C278 1.446 1_556 S
N277 Co236 2.151 . S
N277 C276 1.330 . S
N277 C281 1.418 1_556 S
C278 H257 0.929 . S
C278 C276 1.446 1_554 S
C278 C279 1.332 . S
C279 H259 0.931 . S
C279 C278 1.332 . S
C279 C280 1.267 . S
C280 H248 0.929 . S
C280 C279 1.267 . S
C280 C281 1.251 . S
C281 H251 0.929 . S
C281 N277 1.418 1_554 S
C281 C280 1.251 . S
C282 H249 0.930 . S
C282 C284 1.406 . S
C282 C287 1.261 . S
C283 H250 0.946 . S
C283 N285 1.322 1_556 S
C283 C286 1.345 1_556 S
C284 H252 0.928 . S
C284 C282 1.406 . S
C284 N285 1.261 . S
N285 Co236 2.214 1_554 S
N285 C283 1.322 1_554 S
N285 C284 1.261 . S
C286 H256 0.931 . S
C286 C283 1.345 1_554 S
C286 C287 1.312 . S
C287 H258 0.930 . S
C287 C282 1.261 . S
C287 C286 1.312 . S
C288 O260 1.214 . S
C288 O268 1.234 . S
C289 H261 0.929 . S
C289 C292 1.391 . S
C289 C294 1.391 . S
C290 H262 0.929 . S
C290 C291 1.390 . S
C290 N293 1.391 . S
C291 H263 0.930 . S
C291 C290 1.390 . S
C291 C292 1.392 . S
C292 H264 0.929 . S
C292 C289 1.391 . S
C292 C291 1.392 . S
N293 Co237 2.257 . S
N293 C290 1.391 . S
N293 C294 1.388 . S
C294 H265 0.930 . S
C294 C289 1.391 . S
C294 N293 1.388 . S
Co295 O297 2.143 . S
Co295 O303 2.074 . S
Co295 O306 2.093 . S
Co295 O319 2.097 . S
Co295 N336 2.151 . S
Co295 N344 2.214 1_554 S
Co296 O297 2.160 . S
Co296 O302 2.058 . S
Co296 O312 2.057 . S
Co296 O327 2.037 . S
Co296 N331 2.145 . S
Co296 N352 2.257 . S
O297 Co295 2.143 . S
O297 Co296 2.160 . S
C298 O299 1.278 . S
C298 O306 1.224 . S
O299 C298 1.278 . S
C300 O301 1.245 . S
C300 O312 1.232 . S
O301 C300 1.245 . S
O302 Co296 2.058 . S
O302 C328 1.269 . S
O303 Co295 2.074 . S
O303 C328 1.257 . S
H304 C329 0.930 . S
H305 C335 0.930 . S
O306 Co295 2.093 . S
O306 C298 1.224 . S
H307 C339 0.929 . S
H308 C341 0.930 . S
H309 C342 0.939 . S
H310 C340 0.929 . S
H311 C343 0.928 . S
O312 Co296 2.057 . S
O312 C300 1.232 . S
H313 C332 0.929 . S
H314 C333 0.929 . S
H315 C345 0.931 . S
H316 C337 0.929 . S
H317 C346 0.930 . S
H318 C338 0.931 . S
O319 Co295 2.097 . S
O319 C347 1.214 . S
H320 C348 0.929 . S
H321 C349 0.929 . S
H322 C350 0.930 . S
H323 C351 0.929 . S
H324 C353 0.930 . S
H325 C330 0.930 . S
H326 C334 0.930 . S
O327 Co296 2.037 . S
O327 C347 1.234 . S
C328 O302 1.269 . S
C328 O303 1.257 . S
C329 H304 0.930 . S
C329 C332 1.388 . S
C329 C334 1.418 . S
C330 H325 0.930 . S
C330 C333 1.404 . S
C330 C334 1.353 . S
N331 Co296 2.145 . S
N331 C332 1.397 . S
N331 C333 1.334 . S
C332 H313 0.929 . S
C332 C329 1.388 . S
C332 N331 1.397 . S
C333 H314 0.929 . S
C333 C330 1.404 . S
C333 N331 1.334 . S
C334 H326 0.930 . S
C334 C329 1.418 . S
C334 C330 1.353 . S
C335 H305 0.930 . S
C335 N336 1.330 . S
C335 C337 1.446 1_554 S
N336 Co295 2.151 . S
N336 C335 1.330 . S
N336 C340 1.418 1_554 S
C337 H316 0.929 . S
C337 C335 1.446 1_556 S
C337 C338 1.332 . S
C338 H318 0.931 . S
C338 C337 1.332 . S
C338 C339 1.267 . S
C339 H307 0.929 . S
C339 C338 1.267 . S
C339 C340 1.251 . S
C340 H310 0.929 . S
C340 N336 1.418 1_556 S
C340 C339 1.251 . S
C341 H308 0.930 . S
C341 C343 1.406 . S
C341 C346 1.261 . S
C342 H309 0.939 . S
C342 N344 1.324 1_554 S
C342 C345 1.350 1_554 S
C343 H311 0.928 . S
C343 C341 1.406 . S
C343 N344 1.261 . S
N344 Co295 2.214 1_556 S
N344 C342 1.324 1_556 S
N344 C343 1.261 . S
C345 H315 0.931 . S
C345 C342 1.350 1_556 S
C345 C346 1.312 . S
C346 H317 0.930 . S
C346 C341 1.261 . S
C346 C345 1.312 . S
C347 O319 1.214 . S
C347 O327 1.234 . S
C348 H320 0.929 . S
C348 C351 1.391 . S
C348 C353 1.391 . S
C349 H321 0.929 . S
C349 C350 1.390 . S
C349 N352 1.391 . S
C350 H322 0.930 . S
C350 C349 1.390 . S
C350 C351 1.392 . S
C351 H323 0.929 . S
C351 C348 1.391 . S
C351 C350 1.392 . S
N352 Co296 2.257 . S
N352 C349 1.391 . S
N352 C353 1.388 . S
C353 H324 0.930 . S
C353 C348 1.391 . S
C353 N352 1.388 . S
Co354 O356 2.143 . S
Co354 O362 2.074 . S
Co354 O365 2.093 . S
Co354 O378 2.097 . S
Co354 N395 2.151 . S
Co354 N403 2.214 . S
Co355 O356 2.160 . S
Co355 O361 2.058 . S
Co355 O371 2.057 . S
Co355 O386 2.037 . S
Co355 N390 2.145 . S
Co355 N411 2.257 . S
O356 Co354 2.143 . S
O356 Co355 2.160 . S
C357 O358 1.278 . S
C357 O365 1.224 . S
O358 C357 1.278 . S
C359 O360 1.245 . S
C359 O371 1.232 . S
O360 C359 1.245 . S
O361 Co355 2.058 . S
O361 C387 1.269 . S
O362 Co354 2.074 . S
O362 C387 1.257 . S
H363 C388 0.930 . S
H364 C394 0.930 . S
O365 Co354 2.093 . S
O365 C357 1.224 . S
H366 C398 0.929 . S
H367 C400 0.930 . S
H368 C401 0.930 . S
H369 C399 0.929 . S
H370 C402 0.928 . S
O371 Co355 2.057 . S
O371 C359 1.232 . S
H372 C391 0.929 . S
H373 C392 0.929 . S
H374 C404 0.931 . S
H375 C396 0.929 . S
H376 C405 0.930 . S
H377 C397 0.931 . S
O378 Co354 2.097 . S
O378 C406 1.214 . S
H379 C407 0.929 . S
H380 C408 0.929 . S
H381 C409 0.930 . S
H382 C410 0.929 . S
H383 C412 0.930 . S
H384 C389 0.930 . S
H385 C393 0.930 . S
O386 Co355 2.037 . S
O386 C406 1.234 . S
C387 O361 1.269 . S
C387 O362 1.257 . S
C388 H363 0.930 . S
C388 C391 1.388 . S
C388 C393 1.418 . S
C389 H384 0.930 . S
C389 C392 1.404 . S
C389 C393 1.353 . S
N390 Co355 2.145 . S
N390 C391 1.397 . S
N390 C392 1.334 . S
C391 H372 0.929 . S
C391 C388 1.388 . S
C391 N390 1.397 . S
C392 H373 0.929 . S
C392 C389 1.404 . S
C392 N390 1.334 . S
C393 H385 0.930 . S
C393 C388 1.418 . S
C393 C389 1.353 . S
C394 H364 0.930 . S
C394 N395 1.330 . S
C394 C396 1.446 . S
N395 Co354 2.151 . S
N395 C394 1.330 . S
N395 C399 1.418 . S
C396 H375 0.929 . S
C396 C394 1.446 . S
C396 C397 1.332 . S
C397 H377 0.931 . S
C397 C396 1.332 . S
C397 C398 1.267 . S
C398 H366 0.929 . S
C398 C397 1.267 . S
C398 C399 1.251 . S
C399 H369 0.929 . S
C399 N395 1.418 . S
C399 C398 1.251 . S
C400 H367 0.930 . S
C400 C402 1.406 . S
C400 C405 1.261 . S
C401 H368 0.930 . S
C401 N403 1.325 . S
C401 C404 1.357 . S
C402 H370 0.928 . S
C402 C400 1.406 . S
C402 N403 1.261 . S
N403 Co354 2.214 . S
N403 C401 1.325 . S
N403 C402 1.261 . S
C404 H374 0.931 . S
C404 C401 1.357 . S
C404 C405 1.312 . S
C405 H376 0.930 . S
C405 C400 1.261 . S
C405 C404 1.312 . S
C406 O378 1.214 . S
C406 O386 1.234 . S
C407 H379 0.929 . S
C407 C410 1.391 . S
C407 C412 1.391 . S
C408 H380 0.929 . S
C408 C409 1.390 . S
C408 N411 1.391 . S
C409 H381 0.930 . S
C409 C408 1.390 . S
C409 C410 1.392 . S
C410 H382 0.929 . S
C410 C407 1.391 . S
C410 C409 1.392 . S
N411 Co355 2.257 . S
N411 C408 1.391 . S
N411 C412 1.388 . S
C412 H383 0.930 . S
C412 C407 1.391 . S
C412 N411 1.388 . S
Co413 O415 2.143 . S
Co413 O421 2.074 . S
Co413 O424 2.093 . S
Co413 O437 2.097 . S
Co413 N454 2.151 . S
Co413 N462 2.214 . S
Co414 O415 2.160 . S
Co414 O420 2.058 . S
Co414 O430 2.057 . S
Co414 O445 2.037 . S
Co414 N449 2.145 . S
Co414 N470 2.257 . S
O415 Co413 2.143 . S
O415 Co414 2.160 . S
C416 O417 1.278 . S
C416 O424 1.224 . S
O417 C416 1.278 . S
C418 O419 1.245 . S
C418 O430 1.232 . S
O419 C418 1.245 . S
O420 Co414 2.058 . S
O420 C446 1.269 . S
O421 Co413 2.074 . S
O421 C446 1.257 . S
H422 C447 0.930 . S
H423 C453 0.930 . S
O424 Co413 2.093 . S
O424 C416 1.224 . S
H425 C457 0.929 . S
H426 C459 0.930 . S
H427 C460 0.930 . S
H428 C458 0.929 . S
H429 C461 0.928 . S
O430 Co414 2.057 . S
O430 C418 1.232 . S
H431 C450 0.929 . S
H432 C451 0.929 . S
H433 C463 0.931 . S
H434 C455 0.929 . S
H435 C464 0.930 . S
H436 C456 0.931 . S
O437 Co413 2.097 . S
O437 C465 1.214 . S
H438 C466 0.929 . S
H439 C467 0.929 . S
H440 C468 0.930 . S
H441 C469 0.929 . S
H442 C471 0.930 . S
H443 C448 0.930 . S
H444 C452 0.930 . S
O445 Co414 2.037 . S
O445 C465 1.234 . S
C446 O420 1.269 . S
C446 O421 1.257 . S
C447 H422 0.930 . S
C447 C450 1.388 . S
C447 C452 1.418 . S
C448 H443 0.930 . S
C448 C451 1.404 . S
C448 C452 1.353 . S
N449 Co414 2.145 . S
N449 C450 1.397 . S
N449 C451 1.334 . S
C450 H431 0.929 . S
C450 C447 1.388 . S
C450 N449 1.397 . S
C451 H432 0.929 . S
C451 C448 1.404 . S
C451 N449 1.334 . S
C452 H444 0.930 . S
C452 C447 1.418 . S
C452 C448 1.353 . S
C453 H423 0.930 . S
C453 N454 1.330 . S
C453 C455 1.446 . S
N454 Co413 2.151 . S
N454 C453 1.330 . S
N454 C458 1.418 . S
C455 H434 0.929 . S
C455 C453 1.446 . S
C455 C456 1.332 . S
C456 H436 0.931 . S
C456 C455 1.332 . S
C456 C457 1.267 . S
C457 H425 0.929 . S
C457 C456 1.267 . S
C457 C458 1.251 . S
C458 H428 0.929 . S
C458 N454 1.418 . S
C458 C457 1.251 . S
C459 H426 0.930 . S
C459 C461 1.406 . S
C459 C464 1.261 . S
C460 H427 0.930 . S
C460 N462 1.325 . S
C460 C463 1.357 . S
C461 H429 0.928 . S
C461 C459 1.406 . S
C461 N462 1.261 . S
N462 Co413 2.214 . S
N462 C460 1.325 . S
N462 C461 1.261 . S
C463 H433 0.931 . S
C463 C460 1.357 . S
C463 C464 1.312 . S
C464 H435 0.930 . S
C464 C459 1.261 . S
C464 C463 1.312 . S
C465 O437 1.214 . S
C465 O445 1.234 . S
C466 H438 0.929 . S
C466 C469 1.391 . S
C466 C471 1.391 . S
C467 H439 0.929 . S
C467 C468 1.390 . S
C467 N470 1.391 . S
C468 H440 0.930 . S
C468 C467 1.390 . S
C468 C469 1.392 . S
C469 H441 0.929 . S
C469 C466 1.391 . S
C469 C468 1.392 . S
N470 Co414 2.257 . S
N470 C467 1.391 . S
N470 C471 1.388 . S
C471 H442 0.930 . S
C471 C466 1.391 . S
C471 N470 1.388 . S
Co472 O474 2.143 . S
Co472 O480 2.074 . S
Co472 O483 2.093 . S
Co472 O496 2.097 . S
Co472 N513 2.151 . S
Co472 N521 2.214 1_556 S
Co473 O474 2.160 . S
Co473 O479 2.058 . S
Co473 O489 2.057 . S
Co473 O504 2.037 . S
Co473 N508 2.145 . S
Co473 N529 2.257 . S
O474 Co472 2.143 . S
O474 Co473 2.160 . S
C475 O476 1.278 . S
C475 O483 1.224 . S
O476 C475 1.278 . S
C477 O478 1.245 . S
C477 O489 1.232 . S
O478 C477 1.245 . S
O479 Co473 2.058 . S
O479 C505 1.269 . S
O480 Co472 2.074 . S
O480 C505 1.257 . S
H481 C506 0.930 . S
H482 C512 0.930 . S
O483 Co472 2.093 . S
O483 C475 1.224 . S
H484 C516 0.929 . S
H485 C518 0.930 . S
H486 C519 0.946 . S
H487 C517 0.929 . S
H488 C520 0.928 . S
O489 Co473 2.057 . S
O489 C477 1.232 . S
H490 C509 0.929 . S
H491 C510 0.929 . S
H492 C522 0.931 . S
H493 C514 0.929 . S
H494 C523 0.930 . S
H495 C515 0.931 . S
O496 Co472 2.097 . S
O496 C524 1.214 . S
H497 C525 0.929 . S
H498 C526 0.929 . S
H499 C527 0.930 . S
H500 C528 0.929 . S
H501 C530 0.930 . S
H502 C507 0.930 . S
H503 C511 0.930 . S
O504 Co473 2.037 . S
O504 C524 1.234 . S
C505 O479 1.269 . S
C505 O480 1.257 . S
C506 H481 0.930 . S
C506 C509 1.388 . S
C506 C511 1.418 . S
C507 H502 0.930 . S
C507 C510 1.404 . S
C507 C511 1.353 . S
N508 Co473 2.145 . S
N508 C509 1.397 . S
N508 C510 1.334 . S
C509 H490 0.929 . S
C509 C506 1.388 . S
C509 N508 1.397 . S
C510 H491 0.929 . S
C510 C507 1.404 . S
C510 N508 1.334 . S
C511 H503 0.930 . S
C511 C506 1.418 . S
C511 C507 1.353 . S
C512 H482 0.930 . S
C512 N513 1.330 . S
C512 C514 1.446 1_556 S
N513 Co472 2.151 . S
N513 C512 1.330 . S
N513 C517 1.418 1_556 S
C514 H493 0.929 . S
C514 C512 1.446 1_554 S
C514 C515 1.332 . S
C515 H495 0.931 . S
C515 C514 1.332 . S
C515 C516 1.267 . S
C516 H484 0.929 . S
C516 C515 1.267 . S
C516 C517 1.251 . S
C517 H487 0.929 . S
C517 N513 1.418 1_554 S
C517 C516 1.251 . S
C518 H485 0.930 . S
C518 C520 1.406 . S
C518 C523 1.261 . S
C519 H486 0.946 . S
C519 N521 1.322 1_556 S
C519 C522 1.345 1_556 S
C520 H488 0.928 . S
C520 C518 1.406 . S
C520 N521 1.261 . S
N521 Co472 2.214 1_554 S
N521 C519 1.322 1_554 S
N521 C520 1.261 . S
C522 H492 0.931 . S
C522 C519 1.345 1_554 S
C522 C523 1.312 . S
C523 H494 0.930 . S
C523 C518 1.261 . S
C523 C522 1.312 . S
C524 O496 1.214 . S
C524 O504 1.234 . S
C525 H497 0.929 . S
C525 C528 1.391 . S
C525 C530 1.391 . S
C526 H498 0.929 . S
C526 C527 1.390 . S
C526 N529 1.391 . S
C527 H499 0.930 . S
C527 C526 1.390 . S
C527 C528 1.392 . S
C528 H500 0.929 . S
C528 C525 1.391 . S
C528 C527 1.392 . S
N529 Co473 2.257 . S
N529 C526 1.391 . S
N529 C530 1.388 . S
C530 H501 0.930 . S
C530 C525 1.391 . S
C530 N529 1.388 . S
Co531 O533 2.143 . S
Co531 O539 2.074 . S
Co531 O542 2.093 . S
Co531 O555 2.097 . S
Co531 N572 2.151 . S
Co531 N580 2.214 . S
Co532 O533 2.160 . S
Co532 O538 2.058 . S
Co532 O548 2.057 . S
Co532 O563 2.037 . S
Co532 N567 2.145 . S
Co532 N588 2.257 . S
O533 Co531 2.143 . S
O533 Co532 2.160 . S
C534 O535 1.278 . S
C534 O542 1.224 . S
O535 C534 1.278 . S
C536 O537 1.245 . S
C536 O548 1.232 . S
O537 C536 1.245 . S
O538 Co532 2.058 . S
O538 C564 1.269 . S
O539 Co531 2.074 . S
O539 C564 1.257 . S
H540 C565 0.930 . S
H541 C571 0.930 . S
O542 Co531 2.093 . S
O542 C534 1.224 . S
H543 C575 0.929 . S
H544 C577 0.930 . S
H545 C578 0.930 . S
H546 C576 0.929 . S
H547 C579 0.928 . S
O548 Co532 2.057 . S
O548 C536 1.232 . S
H549 C568 0.929 . S
H550 C569 0.929 . S
H551 C581 0.931 . S
H552 C573 0.929 . S
H553 C582 0.930 . S
H554 C574 0.931 . S
O555 Co531 2.097 . S
O555 C583 1.214 . S
H556 C584 0.929 . S
H557 C585 0.929 . S
H558 C586 0.930 . S
H559 C587 0.929 . S
H560 C589 0.930 . S
H561 C566 0.930 . S
H562 C570 0.930 . S
O563 Co532 2.037 . S
O563 C583 1.234 . S
C564 O538 1.269 . S
C564 O539 1.257 . S
C565 H540 0.930 . S
C565 C568 1.388 . S
C565 C570 1.418 . S
C566 H561 0.930 . S
C566 C569 1.404 . S
C566 C570 1.353 . S
N567 Co532 2.145 . S
N567 C568 1.397 . S
N567 C569 1.334 . S
C568 H549 0.929 . S
C568 C565 1.388 . S
C568 N567 1.397 . S
C569 H550 0.929 . S
C569 C566 1.404 . S
C569 N567 1.334 . S
C570 H562 0.930 . S
C570 C565 1.418 . S
C570 C566 1.353 . S
C571 H541 0.930 . S
C571 N572 1.330 . S
C571 C573 1.446 . S
N572 Co531 2.151 . S
N572 C571 1.330 . S
N572 C576 1.418 . S
C573 H552 0.929 . S
C573 C571 1.446 . S
C573 C574 1.332 . S
C574 H554 0.931 . S
C574 C573 1.332 . S
C574 C575 1.267 . S
C575 H543 0.929 . S
C575 C574 1.267 . S
C575 C576 1.251 . S
C576 H546 0.929 . S
C576 N572 1.418 . S
C576 C575 1.251 . S
C577 H544 0.930 . S
C577 C579 1.406 . S
C577 C582 1.261 . S
C578 H545 0.930 . S
C578 N580 1.325 . S
C578 C581 1.357 . S
C579 H547 0.928 . S
C579 C577 1.406 . S
C579 N580 1.261 . S
N580 Co531 2.214 . S
N580 C578 1.325 . S
N580 C579 1.261 . S
C581 H551 0.931 . S
C581 C578 1.357 . S
C581 C582 1.312 . S
C582 H553 0.930 . S
C582 C577 1.261 . S
C582 C581 1.312 . S
C583 O555 1.214 . S
C583 O563 1.234 . S
C584 H556 0.929 . S
C584 C587 1.391 . S
C584 C589 1.391 . S
C585 H557 0.929 . S
C585 C586 1.390 . S
C585 N588 1.391 . S
C586 H558 0.930 . S
C586 C585 1.390 . S
C586 C587 1.392 . S
C587 H559 0.929 . S
C587 C584 1.391 . S
C587 C586 1.392 . S
N588 Co532 2.257 . S
N588 C585 1.391 . S
N588 C589 1.388 . S
C589 H560 0.930 . S
C589 C584 1.391 . S
C589 N588 1.388 . S
Co590 O592 2.143 . S
Co590 O598 2.074 . S
Co590 O601 2.093 . S
Co590 O614 2.097 . S
Co590 N631 2.151 . S
Co590 N639 2.214 . S
Co591 O592 2.160 . S
Co591 O597 2.058 . S
Co591 O607 2.057 . S
Co591 O622 2.037 . S
Co591 N626 2.145 . S
Co591 N647 2.257 . S
O592 Co590 2.143 . S
O592 Co591 2.160 . S
C593 O594 1.278 . S
C593 O601 1.224 . S
O594 C593 1.278 . S
C595 O596 1.245 . S
C595 O607 1.232 . S
O596 C595 1.245 . S
O597 Co591 2.058 . S
O597 C623 1.269 . S
O598 Co590 2.074 . S
O598 C623 1.257 . S
H599 C624 0.930 . S
H600 C630 0.930 . S
O601 Co590 2.093 . S
O601 C593 1.224 . S
H602 C634 0.929 . S
H603 C636 0.930 . S
H604 C637 0.930 . S
H605 C635 0.929 . S
H606 C638 0.928 . S
O607 Co591 2.057 . S
O607 C595 1.232 . S
H608 C627 0.929 . S
H609 C628 0.929 . S
H610 C640 0.931 . S
H611 C632 0.929 . S
H612 C641 0.930 . S
H613 C633 0.931 . S
O614 Co590 2.097 . S
O614 C642 1.214 . S
H615 C643 0.929 . S
H616 C644 0.929 . S
H617 C645 0.930 . S
H618 C646 0.929 . S
H619 C648 0.930 . S
H620 C625 0.930 . S
H621 C629 0.930 . S
O622 Co591 2.037 . S
O622 C642 1.234 . S
C623 O597 1.269 . S
C623 O598 1.257 . S
C624 H599 0.930 . S
C624 C627 1.388 . S
C624 C629 1.418 . S
C625 H620 0.930 . S
C625 C628 1.404 . S
C625 C629 1.353 . S
N626 Co591 2.145 . S
N626 C627 1.397 . S
N626 C628 1.334 . S
C627 H608 0.929 . S
C627 C624 1.388 . S
C627 N626 1.397 . S
C628 H609 0.929 . S
C628 C625 1.404 . S
C628 N626 1.334 . S
C629 H621 0.930 . S
C629 C624 1.418 . S
C629 C625 1.353 . S
C630 H600 0.930 . S
C630 N631 1.330 . S
C630 C632 1.446 . S
N631 Co590 2.151 . S
N631 C630 1.330 . S
N631 C635 1.418 . S
C632 H611 0.929 . S
C632 C630 1.446 . S
C632 C633 1.332 . S
C633 H613 0.931 . S
C633 C632 1.332 . S
C633 C634 1.267 . S
C634 H602 0.929 . S
C634 C633 1.267 . S
C634 C635 1.251 . S
C635 H605 0.929 . S
C635 N631 1.418 . S
C635 C634 1.251 . S
C636 H603 0.930 . S
C636 C638 1.406 . S
C636 C641 1.261 . S
C637 H604 0.930 . S
C637 N639 1.325 . S
C637 C640 1.357 . S
C638 H606 0.928 . S
C638 C636 1.406 . S
C638 N639 1.261 . S
N639 Co590 2.214 . S
N639 C637 1.325 . S
N639 C638 1.261 . S
C640 H610 0.931 . S
C640 C637 1.357 . S
C640 C641 1.312 . S
C641 H612 0.930 . S
C641 C636 1.261 . S
C641 C640 1.312 . S
C642 O614 1.214 . S
C642 O622 1.234 . S
C643 H615 0.929 . S
C643 C646 1.391 . S
C643 C648 1.391 . S
C644 H616 0.929 . S
C644 C645 1.390 . S
C644 N647 1.391 . S
C645 H617 0.930 . S
C645 C644 1.390 . S
C645 C646 1.392 . S
C646 H618 0.929 . S
C646 C643 1.391 . S
C646 C645 1.392 . S
N647 Co591 2.257 . S
N647 C644 1.391 . S
N647 C648 1.388 . S
C648 H619 0.930 . S
C648 C643 1.391 . S
C648 N647 1.388 . S
Co649 O651 2.143 . S
Co649 O657 2.074 . S
Co649 O660 2.093 . S
Co649 O673 2.097 . S
Co649 N690 2.151 . S
Co649 N698 2.214 . S
Co650 O651 2.160 . S
Co650 O656 2.058 . S
Co650 O666 2.057 . S
Co650 O681 2.037 . S
Co650 N685 2.145 1_554 S
Co650 N706 2.257 . S
O651 Co649 2.143 . S
O651 Co650 2.160 . S
C652 O653 1.278 . S
C652 O660 1.224 . S
O653 C652 1.278 . S
C654 O655 1.245 . S
C654 O666 1.232 . S
O655 C654 1.245 . S
O656 Co650 2.058 . S
O656 C682 1.269 . S
O657 Co649 2.074 . S
O657 C682 1.257 . S
H658 C683 0.930 . S
H659 C689 0.930 . S
O660 Co649 2.093 . S
O660 C652 1.224 . S
H661 C693 0.929 . S
H662 C695 0.930 . S
H663 C696 0.930 . S
H664 C694 0.929 . S
H665 C697 0.928 . S
O666 Co650 2.057 . S
O666 C654 1.232 . S
H667 C686 0.929 1_554 S
H668 C687 0.929 . S
H669 C699 0.931 . S
H670 C691 0.929 . S
H671 C700 0.930 . S
H672 C692 0.931 . S
O673 Co649 2.097 . S
O673 C701 1.214 . S
H674 C702 0.929 . S
H675 C703 0.929 . S
H676 C704 0.930 . S
H677 C705 0.929 . S
H678 C707 0.930 . S
H679 C684 0.930 . S
H680 C688 0.930 . S
O681 Co650 2.037 . S
O681 C701 1.234 . S
C682 O656 1.269 . S
C682 O657 1.257 . S
C683 H658 0.930 . S
C683 C686 1.388 . S
C683 C688 1.418 . S
C684 H679 0.930 . S
C684 C687 1.404 . S
C684 C688 1.353 . S
N685 Co650 2.145 1_556 S
N685 C686 1.397 . S
N685 C687 1.334 . S
C686 H667 0.929 1_556 S
C686 C683 1.388 . S
C686 N685 1.397 . S
C687 H668 0.929 . S
C687 C684 1.404 . S
C687 N685 1.334 . S
C688 H680 0.930 . S
C688 C683 1.418 . S
C688 C684 1.353 . S
C689 H659 0.930 . S
C689 N690 1.330 . S
C689 C691 1.446 . S
N690 Co649 2.151 . S
N690 C689 1.330 . S
N690 C694 1.418 . S
C691 H670 0.929 . S
C691 C689 1.446 . S
C691 C692 1.332 . S
C692 H672 0.931 . S
C692 C691 1.332 . S
C692 C693 1.267 . S
C693 H661 0.929 . S
C693 C692 1.267 . S
C693 C694 1.251 . S
C694 H664 0.929 . S
C694 N690 1.418 . S
C694 C693 1.251 . S
C695 H662 0.930 . S
C695 C697 1.406 . S
C695 C700 1.261 . S
C696 H663 0.930 . S
C696 N698 1.325 . S
C696 C699 1.357 . S
C697 H665 0.928 . S
C697 C695 1.406 . S
C697 N698 1.261 . S
N698 Co649 2.214 . S
N698 C696 1.325 . S
N698 C697 1.261 . S
C699 H669 0.931 . S
C699 C696 1.357 . S
C699 C700 1.312 . S
C700 H671 0.930 . S
C700 C695 1.261 . S
C700 C699 1.312 . S
C701 O673 1.214 . S
C701 O681 1.234 . S
C702 H674 0.929 . S
C702 C705 1.391 1_554 S
C702 C707 1.391 . S
C703 H675 0.929 . S
C703 C704 1.390 1_554 S
C703 N706 1.391 . S
C704 H676 0.930 . S
C704 C703 1.390 1_556 S
C704 C705 1.392 . S
C705 H677 0.929 . S
C705 C702 1.391 1_556 S
C705 C704 1.392 . S
N706 Co650 2.257 . S
N706 C703 1.391 . S
N706 C707 1.388 . S
C707 H678 0.930 . S
C707 C702 1.391 . S
C707 N706 1.388 . S
Co708 O710 2.143 . S
Co708 O716 2.074 . S
Co708 O719 2.093 . S
Co708 O732 2.097 . S
Co708 N749 2.151 . S
Co708 N757 2.214 1_554 S
Co709 O710 2.160 . S
Co709 O715 2.058 . S
Co709 O725 2.057 . S
Co709 O740 2.037 . S
Co709 N744 2.145 . S
Co709 N765 2.257 . S
O710 Co708 2.143 . S
O710 Co709 2.160 . S
C711 O712 1.278 . S
C711 O719 1.224 . S
O712 C711 1.278 . S
C713 O714 1.245 . S
C713 O725 1.232 . S
O714 C713 1.245 . S
O715 Co709 2.058 . S
O715 C741 1.269 . S
O716 Co708 2.074 . S
O716 C741 1.257 . S
H717 C742 0.930 . S
H718 C748 0.930 . S
O719 Co708 2.093 . S
O719 C711 1.224 . S
H720 C752 0.929 . S
H721 C754 0.930 . S
H722 C755 0.946 . S
H723 C753 0.929 . S
H724 C756 0.928 . S
O725 Co709 2.057 . S
O725 C713 1.232 . S
H726 C745 0.929 . S
H727 C746 0.929 . S
H728 C758 0.931 . S
H729 C750 0.929 . S
H730 C759 0.930 . S
H731 C751 0.931 . S
O732 Co708 2.097 . S
O732 C760 1.214 . S
H733 C761 0.929 . S
H734 C762 0.929 . S
H735 C763 0.930 . S
H736 C764 0.929 . S
H737 C766 0.930 . S
H738 C743 0.930 . S
H739 C747 0.930 . S
O740 Co709 2.037 . S
O740 C760 1.234 . S
C741 O715 1.269 . S
C741 O716 1.257 . S
C742 H717 0.930 . S
C742 C745 1.388 . S
C742 C747 1.418 . S
C743 H738 0.930 . S
C743 C746 1.404 . S
C743 C747 1.353 . S
N744 Co709 2.145 . S
N744 C745 1.397 . S
N744 C746 1.334 . S
C745 H726 0.929 . S
C745 C742 1.388 . S
C745 N744 1.397 . S
C746 H727 0.929 . S
C746 C743 1.404 . S
C746 N744 1.334 . S
C747 H739 0.930 . S
C747 C742 1.418 . S
C747 C743 1.353 . S
C748 H718 0.930 . S
C748 N749 1.330 . S
C748 C750 1.446 1_554 S
N749 Co708 2.151 . S
N749 C748 1.330 . S
N749 C753 1.418 1_554 S
C750 H729 0.929 . S
C750 C748 1.446 1_556 S
C750 C751 1.332 . S
C751 H731 0.931 . S
C751 C750 1.332 . S
C751 C752 1.267 . S
C752 H720 0.929 . S
C752 C751 1.267 . S
C752 C753 1.251 . S
C753 H723 0.929 . S
C753 N749 1.418 1_556 S
C753 C752 1.251 . S
C754 H721 0.930 . S
C754 C756 1.406 . S
C754 C759 1.261 . S
C755 H722 0.946 . S
C755 N757 1.323 1_554 S
C755 C758 1.346 1_554 S
C756 H724 0.928 . S
C756 C754 1.406 . S
C756 N757 1.261 . S
N757 Co708 2.214 1_556 S
N757 C755 1.323 1_556 S
N757 C756 1.261 . S
C758 H728 0.931 . S
C758 C755 1.346 1_556 S
C758 C759 1.312 . S
C759 H730 0.930 . S
C759 C754 1.261 . S
C759 C758 1.312 . S
C760 O732 1.214 . S
C760 O740 1.234 . S
C761 H733 0.929 . S
C761 C764 1.391 . S
C761 C766 1.391 . S
C762 H734 0.929 . S
C762 C763 1.390 . S
C762 N765 1.391 . S
C763 H735 0.930 . S
C763 C762 1.390 . S
C763 C764 1.392 . S
C764 H736 0.929 . S
C764 C761 1.391 . S
C764 C763 1.392 . S
N765 Co709 2.257 . S
N765 C762 1.391 . S
N765 C766 1.388 . S
C766 H737 0.930 . S
C766 C761 1.391 . S
C766 N765 1.388 . S
Co767 O769 2.143 . S
Co767 O775 2.074 . S
Co767 O778 2.093 . S
Co767 O791 2.097 . S
Co767 N808 2.151 . S
Co767 N816 2.214 1_556 S
Co768 O769 2.160 . S
Co768 O774 2.058 . S
Co768 O784 2.057 . S
Co768 O799 2.037 . S
Co768 N803 2.145 . S
Co768 N824 2.257 . S
O769 Co767 2.143 . S
O769 Co768 2.160 . S
C770 O771 1.278 . S
C770 O778 1.224 . S
O771 C770 1.278 . S
C772 O773 1.245 . S
C772 O784 1.232 . S
O773 C772 1.245 . S
O774 Co768 2.058 . S
O774 C800 1.269 . S
O775 Co767 2.074 . S
O775 C800 1.257 . S
H776 C801 0.930 . S
H777 C807 0.930 . S
O778 Co767 2.093 . S
O778 C770 1.224 . S
H779 C811 0.929 . S
H780 C813 0.930 . S
H781 C814 0.949 . S
H782 C812 0.929 . S
H783 C815 0.928 . S
O784 Co768 2.057 . S
O784 C772 1.232 . S
H785 C804 0.929 . S
H786 C805 0.929 . S
H787 C817 0.931 . S
H788 C809 0.929 . S
H789 C818 0.930 . S
H790 C810 0.931 . S
O791 Co767 2.097 . S
O791 C819 1.214 . S
H792 C820 0.929 . S
H793 C821 0.929 . S
H794 C822 0.930 . S
H795 C823 0.929 . S
H796 C825 0.930 . S
H797 C802 0.930 . S
H798 C806 0.930 . S
O799 Co768 2.037 . S
O799 C819 1.234 . S
C800 O774 1.269 . S
C800 O775 1.257 . S
C801 H776 0.930 . S
C801 C804 1.388 . S
C801 C806 1.418 . S
C802 H797 0.930 . S
C802 C805 1.404 . S
C802 C806 1.353 . S
N803 Co768 2.145 . S
N803 C804 1.397 . S
N803 C805 1.334 . S
C804 H785 0.929 . S
C804 C801 1.388 . S
C804 N803 1.397 . S
C805 H786 0.929 . S
C805 C802 1.404 . S
C805 N803 1.334 . S
C806 H798 0.930 . S
C806 C801 1.418 . S
C806 C802 1.353 . S
C807 H777 0.930 . S
C807 N808 1.330 . S
C807 C809 1.446 1_556 S
N808 Co767 2.151 . S
N808 C807 1.330 . S
N808 C812 1.418 1_556 S
C809 H788 0.929 . S
C809 C807 1.446 1_554 S
C809 C810 1.332 . S
C810 H790 0.931 . S
C810 C809 1.332 . S
C810 C811 1.267 . S
C811 H779 0.929 . S
C811 C810 1.267 . S
C811 C812 1.251 . S
C812 H782 0.929 . S
C812 N808 1.418 1_554 S
C812 C811 1.251 . S
C813 H780 0.930 . S
C813 C815 1.406 . S
C813 C818 1.261 . S
C814 H781 0.949 . S
C814 N816 1.322 1_556 S
C814 C817 1.343 1_556 S
C815 H783 0.928 . S
C815 C813 1.406 . S
C815 N816 1.261 . S
N816 Co767 2.214 1_554 S
N816 C814 1.322 1_554 S
N816 C815 1.261 . S
C817 H787 0.931 . S
C817 C814 1.343 1_554 S
C817 C818 1.312 . S
C818 H789 0.930 . S
C818 C813 1.261 . S
C818 C817 1.312 . S
C819 O791 1.214 . S
C819 O799 1.234 . S
C820 H792 0.929 . S
C820 C823 1.391 . S
C820 C825 1.391 . S
C821 H793 0.929 . S
C821 C822 1.390 . S
C821 N824 1.391 . S
C822 H794 0.930 . S
C822 C821 1.390 . S
C822 C823 1.392 . S
C823 H795 0.929 . S
C823 C820 1.391 . S
C823 C822 1.392 . S
N824 Co768 2.257 . S
N824 C821 1.391 . S
N824 C825 1.388 . S
C825 H796 0.930 . S
C825 C820 1.391 . S
C825 N824 1.388 . S
Co826 O828 2.143 . S
Co826 O834 2.074 . S
Co826 O837 2.093 . S
Co826 O850 2.097 . S
Co826 N867 2.151 . S
Co826 N875 2.214 . S
Co827 O828 2.160 . S
Co827 O833 2.058 . S
Co827 O843 2.057 . S
Co827 O858 2.037 . S
Co827 N862 2.145 . S
Co827 N883 2.257 . S
O828 Co826 2.143 . S
O828 Co827 2.160 . S
C829 O830 1.278 . S
C829 O837 1.224 . S
O830 C829 1.278 . S
C831 O832 1.245 . S
C831 O843 1.232 . S
O832 C831 1.245 . S
O833 Co827 2.058 . S
O833 C859 1.269 . S
O834 Co826 2.074 . S
O834 C859 1.257 . S
H835 C860 0.930 . S
H836 C866 0.930 . S
O837 Co826 2.093 . S
O837 C829 1.224 . S
H838 C870 0.929 . S
H839 C872 0.930 . S
H840 C873 0.930 . S
H841 C871 0.929 . S
H842 C874 0.928 . S
O843 Co827 2.057 . S
O843 C831 1.232 . S
H844 C863 0.929 . S
H845 C864 0.929 . S
H846 C876 0.931 . S
H847 C868 0.929 . S
H848 C877 0.930 . S
H849 C869 0.931 . S
O850 Co826 2.097 . S
O850 C878 1.214 . S
H851 C879 0.929 . S
H852 C880 0.929 . S
H853 C881 0.930 . S
H854 C882 0.929 . S
H855 C884 0.930 . S
H856 C861 0.930 . S
H857 C865 0.930 . S
O858 Co827 2.037 . S
O858 C878 1.234 . S
C859 O833 1.269 . S
C859 O834 1.257 . S
C860 H835 0.930 . S
C860 C863 1.388 . S
C860 C865 1.418 . S
C861 H856 0.930 . S
C861 C864 1.404 . S
C861 C865 1.353 . S
N862 Co827 2.145 . S
N862 C863 1.397 . S
N862 C864 1.334 . S
C863 H844 0.929 . S
C863 C860 1.388 . S
C863 N862 1.397 . S
C864 H845 0.929 . S
C864 C861 1.404 . S
C864 N862 1.334 . S
C865 H857 0.930 . S
C865 C860 1.418 . S
C865 C861 1.353 . S
C866 H836 0.930 . S
C866 N867 1.330 . S
C866 C868 1.446 . S
N867 Co826 2.151 . S
N867 C866 1.330 . S
N867 C871 1.418 . S
C868 H847 0.929 . S
C868 C866 1.446 . S
C868 C869 1.332 . S
C869 H849 0.931 . S
C869 C868 1.332 . S
C869 C870 1.267 . S
C870 H838 0.929 . S
C870 C869 1.267 . S
C870 C871 1.251 . S
C871 H841 0.929 . S
C871 N867 1.418 . S
C871 C870 1.251 . S
C872 H839 0.930 . S
C872 C874 1.406 . S
C872 C877 1.261 . S
C873 H840 0.930 . S
C873 N875 1.325 . S
C873 C876 1.357 . S
C874 H842 0.928 . S
C874 C872 1.406 . S
C874 N875 1.261 . S
N875 Co826 2.214 . S
N875 C873 1.325 . S
N875 C874 1.261 . S
C876 H846 0.931 . S
C876 C873 1.357 . S
C876 C877 1.312 . S
C877 H848 0.930 . S
C877 C872 1.261 . S
C877 C876 1.312 . S
C878 O850 1.214 . S
C878 O858 1.234 . S
C879 H851 0.929 . S
C879 C882 1.391 . S
C879 C884 1.391 . S
C880 H852 0.929 . S
C880 C881 1.390 . S
C880 N883 1.391 . S
C881 H853 0.930 . S
C881 C880 1.390 . S
C881 C882 1.392 . S
C882 H854 0.929 . S
C882 C879 1.391 . S
C882 C881 1.392 . S
N883 Co827 2.257 . S
N883 C880 1.391 . S
N883 C884 1.388 . S
C884 H855 0.930 . S
C884 C879 1.391 . S
C884 N883 1.388 . S
Co885 O887 2.143 . S
Co885 O893 2.074 . S
Co885 O896 2.093 . S
Co885 O909 2.097 . S
Co885 N926 2.151 . S
Co885 N934 2.214 . S
Co886 O887 2.160 . S
Co886 O892 2.058 . S
Co886 O902 2.057 . S
Co886 O917 2.037 . S
Co886 N921 2.145 . S
Co886 N942 2.257 . S
O887 Co885 2.143 . S
O887 Co886 2.160 . S
C888 O889 1.278 . S
C888 O896 1.224 . S
O889 C888 1.278 . S
C890 O891 1.245 . S
C890 O902 1.232 . S
O891 C890 1.245 . S
O892 Co886 2.058 . S
O892 C918 1.269 . S
O893 Co885 2.074 . S
O893 C918 1.257 . S
H894 C919 0.930 . S
H895 C925 0.930 . S
O896 Co885 2.093 . S
O896 C888 1.224 . S
H897 C929 0.929 . S
H898 C931 0.930 . S
H899 C932 0.930 . S
H900 C930 0.929 . S
H901 C933 0.928 . S
O902 Co886 2.057 . S
O902 C890 1.232 . S
H903 C922 0.929 . S
H904 C923 0.929 . S
H905 C935 0.931 . S
H906 C927 0.929 . S
H907 C936 0.930 . S
H908 C928 0.931 . S
O909 Co885 2.097 . S
O909 C937 1.214 . S
H910 C938 0.929 . S
H911 C939 0.929 . S
H912 C940 0.930 . S
H913 C941 0.929 . S
H914 C943 0.930 . S
H915 C920 0.930 . S
H916 C924 0.930 . S
O917 Co886 2.037 . S
O917 C937 1.234 . S
C918 O892 1.269 . S
C918 O893 1.257 . S
C919 H894 0.930 . S
C919 C922 1.388 . S
C919 C924 1.418 . S
C920 H915 0.930 . S
C920 C923 1.404 . S
C920 C924 1.353 . S
N921 Co886 2.145 . S
N921 C922 1.397 . S
N921 C923 1.334 . S
C922 H903 0.929 . S
C922 C919 1.388 . S
C922 N921 1.397 . S
C923 H904 0.929 . S
C923 C920 1.404 . S
C923 N921 1.334 . S
C924 H916 0.930 . S
C924 C919 1.418 . S
C924 C920 1.353 . S
C925 H895 0.930 . S
C925 N926 1.330 . S
C925 C927 1.446 . S
N926 Co885 2.151 . S
N926 C925 1.330 . S
N926 C930 1.418 . S
C927 H906 0.929 . S
C927 C925 1.446 . S
C927 C928 1.332 . S
C928 H908 0.931 . S
C928 C927 1.332 . S
C928 C929 1.267 . S
C929 H897 0.929 . S
C929 C928 1.267 . S
C929 C930 1.251 . S
C930 H900 0.929 . S
C930 N926 1.418 . S
C930 C929 1.251 . S
C931 H898 0.930 . S
C931 C933 1.406 . S
C931 C936 1.261 . S
C932 H899 0.930 . S
C932 N934 1.325 . S
C932 C935 1.357 . S
C933 H901 0.928 . S
C933 C931 1.406 . S
C933 N934 1.261 . S
N934 Co885 2.214 . S
N934 C932 1.325 . S
N934 C933 1.261 . S
C935 H905 0.931 . S
C935 C932 1.357 . S
C935 C936 1.312 . S
C936 H907 0.930 . S
C936 C931 1.261 . S
C936 C935 1.312 . S
C937 O909 1.214 . S
C937 O917 1.234 . S
C938 H910 0.929 . S
C938 C941 1.391 . S
C938 C943 1.391 . S
C939 H911 0.929 . S
C939 C940 1.390 . S
C939 N942 1.391 . S
C940 H912 0.930 . S
C940 C939 1.390 . S
C940 C941 1.392 . S
C941 H913 0.929 . S
C941 C938 1.391 . S
C941 C940 1.392 . S
N942 Co886 2.257 . S
N942 C939 1.391 . S
N942 C943 1.388 . S
C943 H914 0.930 . S
C943 C938 1.391 . S
C943 N942 1.388 . S
C944 C945 1.363 . S
C944 C950 1.379 . S
C944 N952 1.356 . S
C945 C944 1.363 . S
C945 C951 1.363 . S
C946 C947 1.363 . S
C946 C951 1.379 . S
C946 N953 1.356 . S
C947 C946 1.363 . S
C947 C950 1.363 . S
N948 C950 1.356 . S
N948 H960 0.984 . S
N948 H961 0.985 . S
N949 C951 1.356 . S
N949 H954 0.984 . S
N949 H955 0.985 . S
C950 C944 1.379 . S
C950 C947 1.363 . S
C950 N948 1.356 . S
C951 C945 1.363 . S
C951 C946 1.379 . S
C951 N949 1.356 . S
N952 C944 1.356 . S
N952 H958 0.984 . S
N952 H959 0.984 . S
N953 C946 1.356 . S
N953 H956 0.984 . S
N953 H957 0.985 . S
H954 N949 0.984 . S
H955 N949 0.985 . S
H956 N953 0.984 . S
H957 N953 0.985 . S
H958 N952 0.984 . S
H959 N952 0.984 . S
H960 N948 0.984 . S
H961 N948 0.985 . S
C962 C963 1.363 . S
C962 C968 1.379 . S
C962 N970 1.356 . S
C963 C962 1.363 . S
C963 C969 1.363 . S
C964 C965 1.363 . S
C964 C969 1.379 . S
C964 N971 1.356 . S
C965 C964 1.363 . S
C965 C968 1.363 . S
N966 C968 1.356 . S
N966 H978 0.984 . S
N966 H979 0.985 . S
N967 C969 1.356 . S
N967 H972 0.984 . S
N967 H973 0.985 . S
C968 C962 1.379 . S
C968 C965 1.363 . S
C968 N966 1.356 . S
C969 C963 1.363 . S
C969 C964 1.379 . S
C969 N967 1.356 . S
N970 C962 1.356 . S
N970 H976 0.984 . S
N970 H977 0.984 . S
N971 C964 1.356 . S
N971 H974 0.984 . S
N971 H975 0.985 . S
H972 N967 0.984 . S
H973 N967 0.985 . S
H974 N971 0.984 . S
H975 N971 0.985 . S
H976 N970 0.984 . S
H977 N970 0.984 . S
H978 N966 0.984 . S
H979 N966 0.985 . S
C980 C981 1.363 . S
C980 C986 1.379 . S
C980 N988 1.356 . S
C981 C980 1.363 . S
C981 C987 1.363 . S
C982 C983 1.363 . S
C982 C987 1.379 . S
C982 N989 1.356 . S
C983 C982 1.363 . S
C983 C986 1.363 . S
N984 C986 1.356 . S
N984 H996 0.984 . S
N984 H997 0.985 . S
N985 C987 1.356 . S
N985 H990 0.984 . S
N985 H991 0.985 . S
C986 C980 1.379 . S
C986 C983 1.363 . S
C986 N984 1.356 . S
C987 C981 1.363 . S
C987 C982 1.379 . S
C987 N985 1.356 . S
N988 C980 1.356 . S
N988 H994 0.984 . S
N988 H995 0.984 . S
N989 C982 1.356 . S
N989 H992 0.984 . S
N989 H993 0.985 . S
H990 N985 0.984 . S
H991 N985 0.985 . S
H992 N989 0.984 . S
H993 N989 0.985 . S
H994 N988 0.984 . S
H995 N988 0.984 . S
H996 N984 0.984 . S
H997 N984 0.985 . S
C998 C999 1.363 . S
C998 C1004 1.379 1_455 S
C998 N1006 1.356 . S
C999 C998 1.363 . S
C999 C1005 1.363 . S
C1000 C1001 1.363 . S
C1000 C1005 1.379 1_655 S
C1000 N1007 1.356 . S
C1001 C1000 1.363 . S
C1001 C1004 1.363 . S
N1002 C1004 1.356 . S
N1002 H1014 0.984 . S
N1002 H1015 0.985 . S
N1003 C1005 1.356 . S
N1003 H1008 0.984 . S
N1003 H1009 0.985 . S
C1004 C998 1.379 1_655 S
C1004 C1001 1.363 . S
C1004 N1002 1.356 . S
C1005 C999 1.363 . S
C1005 C1000 1.379 1_455 S
C1005 N1003 1.356 . S
N1006 C998 1.356 . S
N1006 H1012 0.984 . S
N1006 H1013 0.984 . S
N1007 C1000 1.356 . S
N1007 H1010 0.984 . S
N1007 H1011 0.985 . S
H1008 N1003 0.984 . S
H1009 N1003 0.985 . S
H1010 N1007 0.984 . S
H1011 N1007 0.985 . S
H1012 N1006 0.984 . S
H1013 N1006 0.984 . S
H1014 N1002 0.984 . S
H1015 N1002 0.985 . S
C1016 C1017 1.363 . S
C1016 C1022 1.379 . S
C1016 N1024 1.356 . S
C1017 C1016 1.363 . S
C1017 C1023 1.363 . S
C1018 C1019 1.363 . S
C1018 C1023 1.379 . S
C1018 N1025 1.356 . S
C1019 C1018 1.363 . S
C1019 C1022 1.363 . S
N1020 C1022 1.356 . S
N1020 H1032 0.984 . S
N1020 H1033 0.985 . S
N1021 C1023 1.356 . S
N1021 H1026 0.984 . S
N1021 H1027 0.985 . S
C1022 C1016 1.379 . S
C1022 C1019 1.363 . S
C1022 N1020 1.356 . S
C1023 C1017 1.363 . S
C1023 C1018 1.379 . S
C1023 N1021 1.356 . S
N1024 C1016 1.356 . S
N1024 H1030 0.984 . S
N1024 H1031 0.984 . S
N1025 C1018 1.356 . S
N1025 H1028 0.984 . S
N1025 H1029 0.985 . S
H1026 N1021 0.984 . S
H1027 N1021 0.985 . S
H1028 N1025 0.984 . S
H1029 N1025 0.985 . S
H1030 N1024 0.984 . S
H1031 N1024 0.984 . S
H1032 N1020 0.984 . S
H1033 N1020 0.985 . S
C1034 C1035 1.363 . S
C1034 C1040 1.379 1_655 S
C1034 N1042 1.356 . S
C1035 C1034 1.363 . S
C1035 C1041 1.363 . S
C1036 C1037 1.363 . S
C1036 C1041 1.379 1_455 S
C1036 N1043 1.356 . S
C1037 C1036 1.363 . S
C1037 C1040 1.363 . S
N1038 C1040 1.356 . S
N1038 H1050 0.984 . S
N1038 H1051 0.985 . S
N1039 C1041 1.356 . S
N1039 H1044 0.984 . S
N1039 H1045 0.985 . S
C1040 C1034 1.379 1_455 S
C1040 C1037 1.363 . S
C1040 N1038 1.356 . S
C1041 C1035 1.363 . S
C1041 C1036 1.379 1_655 S
C1041 N1039 1.356 . S
N1042 C1034 1.356 . S
N1042 H1048 0.984 . S
N1042 H1049 0.984 . S
N1043 C1036 1.356 . S
N1043 H1046 0.984 . S
N1043 H1047 0.985 . S
H1044 N1039 0.984 . S
H1045 N1039 0.985 . S
H1046 N1043 0.984 . S
H1047 N1043 0.985 . S
H1048 N1042 0.984 . S
H1049 N1042 0.984 . S
H1050 N1038 0.984 . S
H1051 N1038 0.985 . S
C1052 C1053 1.363 . S
C1052 C1058 1.379 . S
C1052 N1060 1.356 . S
C1053 C1052 1.363 . S
C1053 C1059 1.363 . S
C1054 C1055 1.363 . S
C1054 C1059 1.379 . S
C1054 N1061 1.356 . S
C1055 C1054 1.363 . S
C1055 C1058 1.363 . S
N1056 C1058 1.356 . S
N1056 H1068 0.984 . S
N1056 H1069 0.985 . S
N1057 C1059 1.356 . S
N1057 H1062 0.984 . S
N1057 H1063 0.985 . S
C1058 C1052 1.379 . S
C1058 C1055 1.363 . S
C1058 N1056 1.356 . S
C1059 C1053 1.363 . S
C1059 C1054 1.379 . S
C1059 N1057 1.356 . S
N1060 C1052 1.356 . S
N1060 H1066 0.984 . S
N1060 H1067 0.984 . S
N1061 C1054 1.356 . S
N1061 H1064 0.984 . S
N1061 H1065 0.985 . S
H1062 N1057 0.984 . S
H1063 N1057 0.985 . S
H1064 N1061 0.984 . S
H1065 N1061 0.985 . S
H1066 N1060 0.984 . S
H1067 N1060 0.984 . S
H1068 N1056 0.984 . S
H1069 N1056 0.985 . S
C1070 C1071 1.363 . S
C1070 C1076 1.379 . S
C1070 N1078 1.356 . S
C1071 C1070 1.363 . S
C1071 C1077 1.363 . S
C1072 C1073 1.363 . S
C1072 C1077 1.379 . S
C1072 N1079 1.356 . S
C1073 C1072 1.363 . S
C1073 C1076 1.363 . S
N1074 C1076 1.356 . S
N1074 H1086 0.984 . S
N1074 H1087 0.985 . S
N1075 C1077 1.356 . S
N1075 H1080 0.984 . S
N1075 H1081 0.985 . S
C1076 C1070 1.379 . S
C1076 C1073 1.363 . S
C1076 N1074 1.356 . S
C1077 C1071 1.363 . S
C1077 C1072 1.379 . S
C1077 N1075 1.356 . S
N1078 C1070 1.356 . S
N1078 H1084 0.984 . S
N1078 H1085 0.984 . S
N1079 C1072 1.356 . S
N1079 H1082 0.984 . S
N1079 H1083 0.985 . S
H1080 N1075 0.984 . S
H1081 N1075 0.985 . S
H1082 N1079 0.984 . S
H1083 N1079 0.985 . S
H1084 N1078 0.984 . S
H1085 N1078 0.984 . S
H1086 N1074 0.984 . S
H1087 N1074 0.985 . S
C1088 C1089 1.363 . S
C1088 C1094 1.379 . S
C1088 N1096 1.356 . S
C1089 C1088 1.363 . S
C1089 C1095 1.363 . S
C1090 C1091 1.363 . S
C1090 C1095 1.379 . S
C1090 N1097 1.356 . S
C1091 C1090 1.363 . S
C1091 C1094 1.363 . S
N1092 C1094 1.356 . S
N1092 H1104 0.984 . S
N1092 H1105 0.985 . S
N1093 C1095 1.356 . S
N1093 H1098 0.984 . S
N1093 H1099 0.985 . S
C1094 C1088 1.379 . S
C1094 C1091 1.363 . S
C1094 N1092 1.356 . S
C1095 C1089 1.363 . S
C1095 C1090 1.379 . S
C1095 N1093 1.356 . S
N1096 C1088 1.356 . S
N1096 H1102 0.984 . S
N1096 H1103 0.984 . S
N1097 C1090 1.356 . S
N1097 H1100 0.984 . S
N1097 H1101 0.985 . S
H1098 N1093 0.984 . S
H1099 N1093 0.985 . S
H1100 N1097 0.984 . S
H1101 N1097 0.985 . S
H1102 N1096 0.984 . S
H1103 N1096 0.984 . S
H1104 N1092 0.984 . S
H1105 N1092 0.985 . S
C1106 C1107 1.363 . S
C1106 C1112 1.379 . S
C1106 N1114 1.356 . S
C1107 C1106 1.363 . S
C1107 C1113 1.363 . S
C1108 C1109 1.363 . S
C1108 C1113 1.379 . S
C1108 N1115 1.356 . S
C1109 C1108 1.363 . S
C1109 C1112 1.363 . S
N1110 C1112 1.356 . S
N1110 H1122 0.984 . S
N1110 H1123 0.985 . S
N1111 C1113 1.356 . S
N1111 H1116 0.984 . S
N1111 H1117 0.985 . S
C1112 C1106 1.379 . S
C1112 C1109 1.363 . S
C1112 N1110 1.356 . S
C1113 C1107 1.363 . S
C1113 C1108 1.379 . S
C1113 N1111 1.356 . S
N1114 C1106 1.356 . S
N1114 H1120 0.984 . S
N1114 H1121 0.984 . S
N1115 C1108 1.356 . S
N1115 H1118 0.984 . S
N1115 H1119 0.985 . S
H1116 N1111 0.984 . S
H1117 N1111 0.985 . S
H1118 N1115 0.984 . S
H1119 N1115 0.985 . S
H1120 N1114 0.984 . S
H1121 N1114 0.984 . S
H1122 N1110 0.984 . S
H1123 N1110 0.985 . S
C1124 C1125 1.363 . S
C1124 C1130 1.379 . S
C1124 N1132 1.356 . S
C1125 C1124 1.363 . S
C1125 C1131 1.363 . S
C1126 C1127 1.363 . S
C1126 C1131 1.379 . S
C1126 N1133 1.356 . S
C1127 C1126 1.363 . S
C1127 C1130 1.363 . S
N1128 C1130 1.356 . S
N1128 H1140 0.984 . S
N1128 H1141 0.985 . S
N1129 C1131 1.356 . S
N1129 H1134 0.984 . S
N1129 H1135 0.985 . S
C1130 C1124 1.379 . S
C1130 C1127 1.363 . S
C1130 N1128 1.356 . S
C1131 C1125 1.363 . S
C1131 C1126 1.379 . S
C1131 N1129 1.356 . S
N1132 C1124 1.356 . S
N1132 H1138 0.984 . S
N1132 H1139 0.984 . S
N1133 C1126 1.356 . S
N1133 H1136 0.984 . S
N1133 H1137 0.985 . S
H1134 N1129 0.984 . S
H1135 N1129 0.985 . S
H1136 N1133 0.984 . S
H1137 N1133 0.985 . S
H1138 N1132 0.984 . S
H1139 N1132 0.984 . S
H1140 N1128 0.984 . S
H1141 N1128 0.985 . S
C1142 C1143 1.363 . S
C1142 C1148 1.379 . S
C1142 N1150 1.356 . S
C1143 C1142 1.363 . S
C1143 C1149 1.363 . S
C1144 C1145 1.363 . S
C1144 C1149 1.379 . S
C1144 N1151 1.356 . S
C1145 C1144 1.363 . S
C1145 C1148 1.363 . S
N1146 C1148 1.356 . S
N1146 H1158 0.984 . S
N1146 H1159 0.985 . S
N1147 C1149 1.356 . S
N1147 H1152 0.984 . S
N1147 H1153 0.985 . S
C1148 C1142 1.379 . S
C1148 C1145 1.363 . S
C1148 N1146 1.356 . S
C1149 C1143 1.363 . S
C1149 C1144 1.379 . S
C1149 N1147 1.356 . S
N1150 C1142 1.356 . S
N1150 H1156 0.984 . S
N1150 H1157 0.984 . S
N1151 C1144 1.356 . S
N1151 H1154 0.984 . S
N1151 H1155 0.985 . S
H1152 N1147 0.984 . S
H1153 N1147 0.985 . S
H1154 N1151 0.984 . S
H1155 N1151 0.985 . S
H1156 N1150 0.984 . S
H1157 N1150 0.984 . S
H1158 N1146 0.984 . S
H1159 N1146 0.985 . S
C1160 C1161 1.363 . S
C1160 C1166 1.379 1_455 S
C1160 N1168 1.356 . S
C1161 C1160 1.363 . S
C1161 C1167 1.363 . S
C1162 C1163 1.363 . S
C1162 C1167 1.379 1_655 S
C1162 N1169 1.356 . S
C1163 C1162 1.363 . S
C1163 C1166 1.363 . S
N1164 C1166 1.356 . S
N1164 H1176 0.984 . S
N1164 H1177 0.985 . S
N1165 C1167 1.356 . S
N1165 H1170 0.984 . S
N1165 H1171 0.985 . S
C1166 C1160 1.379 1_655 S
C1166 C1163 1.363 . S
C1166 N1164 1.356 . S
C1167 C1161 1.363 . S
C1167 C1162 1.379 1_455 S
C1167 N1165 1.356 . S
N1168 C1160 1.356 . S
N1168 H1174 0.984 . S
N1168 H1175 0.984 . S
N1169 C1162 1.356 . S
N1169 H1172 0.984 . S
N1169 H1173 0.985 . S
H1170 N1165 0.984 . S
H1171 N1165 0.985 . S
H1172 N1169 0.984 . S
H1173 N1169 0.985 . S
H1174 N1168 0.984 . S
H1175 N1168 0.984 . S
H1176 N1164 0.984 . S
H1177 N1164 0.985 . S
C1178 C1179 1.363 . S
C1178 C1184 1.379 . S
C1178 N1186 1.356 . S
C1179 C1178 1.363 . S
C1179 C1185 1.363 . S
C1180 C1181 1.363 . S
C1180 C1185 1.379 . S
C1180 N1187 1.356 . S
C1181 C1180 1.363 . S
C1181 C1184 1.363 . S
N1182 C1184 1.356 . S
N1182 H1194 0.984 . S
N1182 H1195 0.985 . S
N1183 C1185 1.356 . S
N1183 H1188 0.984 . S
N1183 H1189 0.985 . S
C1184 C1178 1.379 . S
C1184 C1181 1.363 . S
C1184 N1182 1.356 . S
C1185 C1179 1.363 . S
C1185 C1180 1.379 . S
C1185 N1183 1.356 . S
N1186 C1178 1.356 . S
N1186 H1192 0.984 . S
N1186 H1193 0.984 . S
N1187 C1180 1.356 . S
N1187 H1190 0.984 . S
N1187 H1191 0.985 . S
H1188 N1183 0.984 . S
H1189 N1183 0.985 . S
H1190 N1187 0.984 . S
H1191 N1187 0.985 . S
H1192 N1186 0.984 . S
H1193 N1186 0.984 . S
H1194 N1182 0.984 . S
H1195 N1182 0.985 . S
C1196 C1197 1.363 . S
C1196 C1202 1.379 . S
C1196 N1204 1.356 . S
C1197 C1196 1.363 . S
C1197 C1203 1.363 . S
C1198 C1199 1.363 . S
C1198 C1203 1.379 . S
C1198 N1205 1.356 . S
C1199 C1198 1.363 . S
C1199 C1202 1.363 . S
N1200 C1202 1.356 . S
N1200 H1212 0.984 . S
N1200 H1213 0.985 . S
N1201 C1203 1.356 . S
N1201 H1206 0.984 . S
N1201 H1207 0.985 . S
C1202 C1196 1.379 . S
C1202 C1199 1.363 . S
C1202 N1200 1.356 . S
C1203 C1197 1.363 . S
C1203 C1198 1.379 . S
C1203 N1201 1.356 . S
N1204 C1196 1.356 . S
N1204 H1210 0.984 . S
N1204 H1211 0.984 . S
N1205 C1198 1.356 . S
N1205 H1208 0.984 . S
N1205 H1209 0.985 . S
H1206 N1201 0.984 . S
H1207 N1201 0.985 . S
H1208 N1205 0.984 . S
H1209 N1205 0.985 . S
H1210 N1204 0.984 . S
H1211 N1204 0.984 . S
H1212 N1200 0.984 . S
H1213 N1200 0.985 . S
C1214 C1215 1.363 . S
C1214 C1220 1.379 1_455 S
C1214 N1222 1.356 . S
C1215 C1214 1.363 . S
C1215 C1221 1.363 . S
C1216 C1217 1.363 . S
C1216 C1221 1.379 1_655 S
C1216 N1223 1.356 . S
C1217 C1216 1.363 . S
C1217 C1220 1.363 . S
N1218 C1220 1.356 . S
N1218 H1230 0.984 . S
N1218 H1231 0.985 . S
N1219 C1221 1.356 . S
N1219 H1224 0.984 . S
N1219 H1225 0.985 . S
C1220 C1214 1.379 1_655 S
C1220 C1217 1.363 . S
C1220 N1218 1.356 . S
C1221 C1215 1.363 . S
C1221 C1216 1.379 1_455 S
C1221 N1219 1.356 . S
N1222 C1214 1.356 . S
N1222 H1228 0.984 . S
N1222 H1229 0.984 . S
N1223 C1216 1.356 . S
N1223 H1226 0.984 . S
N1223 H1227 0.985 . S
H1224 N1219 0.984 . S
H1225 N1219 0.985 . S
H1226 N1223 0.984 . S
H1227 N1223 0.985 . S
H1228 N1222 0.984 . S
H1229 N1222 0.984 . S
H1230 N1218 0.984 . S
H1231 N1218 0.985 . S
C1232 C1233 1.363 . S
C1232 C1238 1.379 . S
C1232 N1240 1.356 . S
C1233 C1232 1.363 . S
C1233 C1239 1.363 1_554 S
C1234 C1235 1.363 . S
C1234 C1239 1.379 . S
C1234 N1241 1.356 . S
C1235 C1234 1.363 . S
C1235 C1238 1.363 1_556 S
N1236 C1238 1.356 . S
N1236 H1248 0.984 . S
N1236 H1249 0.985 1_554 S
N1237 C1239 1.356 . S
N1237 H1242 0.984 1_556 S
N1237 H1243 0.985 . S
C1238 C1232 1.379 . S
C1238 C1235 1.363 1_554 S
C1238 N1236 1.356 . S
C1239 C1233 1.363 1_556 S
C1239 C1234 1.379 . S
C1239 N1237 1.356 . S
N1240 C1232 1.356 . S
N1240 H1246 0.984 . S
N1240 H1247 0.984 . S
N1241 C1234 1.356 . S
N1241 H1244 0.984 . S
N1241 H1245 0.985 . S
H1242 N1237 0.984 1_554 S
H1243 N1237 0.985 . S
H1244 N1241 0.984 . S
H1245 N1241 0.985 . S
H1246 N1240 0.984 . S
H1247 N1240 0.984 . S
H1248 N1236 0.984 . S
H1249 N1236 0.985 1_556 S
C1250 C1251 1.363 . S
C1250 C1256 1.379 . S
C1250 N1258 1.356 . S
C1251 C1250 1.363 . S
C1251 C1257 1.363 . S
C1252 C1253 1.363 . S
C1252 C1257 1.379 . S
C1252 N1259 1.356 . S
C1253 C1252 1.363 . S
C1253 C1256 1.363 . S
N1254 C1256 1.356 . S
N1254 H1266 0.984 . S
N1254 H1267 0.985 . S
N1255 C1257 1.356 . S
N1255 H1260 0.984 . S
N1255 H1261 0.985 . S
C1256 C1250 1.379 . S
C1256 C1253 1.363 . S
C1256 N1254 1.356 . S
C1257 C1251 1.363 . S
C1257 C1252 1.379 . S
C1257 N1255 1.356 . S
N1258 C1250 1.356 . S
N1258 H1264 0.984 . S
N1258 H1265 0.984 . S
N1259 C1252 1.356 . S
N1259 H1262 0.984 . S
N1259 H1263 0.985 . S
H1260 N1255 0.984 . S
H1261 N1255 0.985 . S
H1262 N1259 0.984 . S
H1263 N1259 0.985 . S
H1264 N1258 0.984 . S
H1265 N1258 0.984 . S
H1266 N1254 0.984 . S
H1267 N1254 0.985 . S
C1268 C1269 1.363 . S
C1268 C1274 1.379 . S
C1268 N1276 1.356 . S
C1269 C1268 1.363 . S
C1269 C1275 1.363 . S
C1270 C1271 1.363 . S
C1270 C1275 1.379 . S
C1270 N1277 1.356 . S
C1271 C1270 1.363 . S
C1271 C1274 1.363 . S
N1272 C1274 1.356 . S
N1272 H1284 0.984 . S
N1272 H1285 0.985 . S
N1273 C1275 1.356 . S
N1273 H1278 0.984 . S
N1273 H1279 0.985 . S
C1274 C1268 1.379 . S
C1274 C1271 1.363 . S
C1274 N1272 1.356 . S
C1275 C1269 1.363 . S
C1275 C1270 1.379 . S
C1275 N1273 1.356 . S
N1276 C1268 1.356 . S
N1276 H1282 0.984 . S
N1276 H1283 0.984 . S
N1277 C1270 1.356 . S
N1277 H1280 0.984 . S
N1277 H1281 0.985 . S
H1278 N1273 0.984 . S
H1279 N1273 0.985 . S
H1280 N1277 0.984 . S
H1281 N1277 0.985 . S
H1282 N1276 0.984 . S
H1283 N1276 0.984 . S
H1284 N1272 0.984 . S
H1285 N1272 0.985 . S
C1286 C1287 1.363 . S
C1286 C1292 1.379 . S
C1286 N1294 1.356 . S
C1287 C1286 1.363 . S
C1287 C1293 1.363 . S
C1288 C1289 1.363 . S
C1288 C1293 1.379 . S
C1288 N1295 1.356 . S
C1289 C1288 1.363 . S
C1289 C1292 1.363 . S
N1290 C1292 1.356 . S
N1290 H1302 0.984 . S
N1290 H1303 0.985 . S
N1291 C1293 1.356 . S
N1291 H1296 0.984 . S
N1291 H1297 0.985 . S
C1292 C1286 1.379 . S
C1292 C1289 1.363 . S
C1292 N1290 1.356 . S
C1293 C1287 1.363 . S
C1293 C1288 1.379 . S
C1293 N1291 1.356 . S
N1294 C1286 1.356 . S
N1294 H1300 0.984 . S
N1294 H1301 0.984 . S
N1295 C1288 1.356 . S
N1295 H1298 0.984 . S
N1295 H1299 0.985 . S
H1296 N1291 0.984 . S
H1297 N1291 0.985 . S
H1298 N1295 0.984 . S
H1299 N1295 0.985 . S
H1300 N1294 0.984 . S
H1301 N1294 0.984 . S
H1302 N1290 0.984 . S
H1303 N1290 0.985 . S
C1304 C1305 1.363 1_554 S
C1304 C1310 1.379 . S
C1304 N1312 1.356 . S
C1305 C1304 1.363 1_556 S
C1305 C1311 1.363 . S
C1306 C1307 1.363 1_556 S
C1306 C1311 1.379 . S
C1306 N1313 1.356 . S
C1307 C1306 1.363 1_554 S
C1307 C1310 1.363 . S
N1308 C1310 1.356 . S
N1308 H1320 0.984 . S
N1308 H1321 0.985 . S
N1309 C1311 1.356 . S
N1309 H1314 0.984 . S
N1309 H1315 0.985 . S
C1310 C1304 1.379 . S
C1310 C1307 1.363 . S
C1310 N1308 1.356 . S
C1311 C1305 1.363 . S
C1311 C1306 1.379 . S
C1311 N1309 1.356 . S
N1312 C1304 1.356 . S
N1312 H1318 0.984 . S
N1312 H1319 0.984 1_554 S
N1313 C1306 1.356 . S
N1313 H1316 0.984 1_556 S
N1313 H1317 0.985 . S
H1314 N1309 0.984 . S
H1315 N1309 0.985 . S
H1316 N1313 0.984 1_554 S
H1317 N1313 0.985 . S
H1318 N1312 0.984 . S
H1319 N1312 0.984 1_556 S
H1320 N1308 0.984 . S
H1321 N1308 0.985 . S
C1322 C1323 1.363 . S
C1322 C1328 1.379 . S
C1322 N1330 1.356 . S
C1323 C1322 1.363 . S
C1323 C1329 1.363 . S
C1324 C1325 1.363 . S
C1324 C1329 1.379 . S
C1324 N1331 1.356 . S
C1325 C1324 1.363 . S
C1325 C1328 1.363 . S
N1326 C1328 1.356 . S
N1326 H1338 0.984 . S
N1326 H1339 0.985 . S
N1327 C1329 1.356 . S
N1327 H1332 0.984 . S
N1327 H1333 0.985 . S
C1328 C1322 1.379 . S
C1328 C1325 1.363 . S
C1328 N1326 1.356 . S
C1329 C1323 1.363 . S
C1329 C1324 1.379 . S
C1329 N1327 1.356 . S
N1330 C1322 1.356 . S
N1330 H1336 0.984 . S
N1330 H1337 0.984 . S
N1331 C1324 1.356 . S
N1331 H1334 0.984 . S
N1331 H1335 0.985 . S
H1332 N1327 0.984 . S
H1333 N1327 0.985 . S
H1334 N1331 0.984 . S
H1335 N1331 0.985 . S
H1336 N1330 0.984 . S
H1337 N1330 0.984 . S
H1338 N1326 0.984 . S
H1339 N1326 0.985 . S
C1340 C1341 1.363 . S
C1340 C1346 1.379 . S
C1340 N1348 1.356 . S
C1341 C1340 1.363 . S
C1341 C1347 1.363 . S
C1342 C1343 1.363 . S
C1342 C1347 1.379 . S
C1342 N1349 1.356 . S
C1343 C1342 1.363 . S
C1343 C1346 1.363 . S
N1344 C1346 1.356 . S
N1344 H1356 0.984 . S
N1344 H1357 0.985 . S
N1345 C1347 1.356 . S
N1345 H1350 0.984 . S
N1345 H1351 0.985 . S
C1346 C1340 1.379 . S
C1346 C1343 1.363 . S
C1346 N1344 1.356 . S
C1347 C1341 1.363 . S
C1347 C1342 1.379 . S
C1347 N1345 1.356 . S
N1348 C1340 1.356 . S
N1348 H1354 0.984 . S
N1348 H1355 0.984 . S
N1349 C1342 1.356 . S
N1349 H1352 0.984 . S
N1349 H1353 0.985 . S
H1350 N1345 0.984 . S
H1351 N1345 0.985 . S
H1352 N1349 0.984 . S
H1353 N1349 0.985 . S
H1354 N1348 0.984 . S
H1355 N1348 0.984 . S
H1356 N1344 0.984 . S
H1357 N1344 0.985 . S
C1358 C1359 1.363 . S
C1358 C1364 1.379 . S
C1358 N1366 1.356 . S
C1359 C1358 1.363 . S
C1359 C1365 1.363 . S
C1360 C1361 1.363 . S
C1360 C1365 1.379 . S
C1360 N1367 1.356 . S
C1361 C1360 1.363 . S
C1361 C1364 1.363 . S
N1362 C1364 1.356 . S
N1362 H1374 0.984 . S
N1362 H1375 0.985 . S
N1363 C1365 1.356 . S
N1363 H1368 0.984 . S
N1363 H1369 0.985 . S
C1364 C1358 1.379 . S
C1364 C1361 1.363 . S
C1364 N1362 1.356 . S
C1365 C1359 1.363 . S
C1365 C1360 1.379 . S
C1365 N1363 1.356 . S
N1366 C1358 1.356 . S
N1366 H1372 0.984 . S
N1366 H1373 0.984 . S
N1367 C1360 1.356 . S
N1367 H1370 0.984 . S
N1367 H1371 0.985 . S
H1368 N1363 0.984 . S
H1369 N1363 0.985 . S
H1370 N1367 0.984 . S
H1371 N1367 0.985 . S
H1372 N1366 0.984 . S
H1373 N1366 0.984 . S
H1374 N1362 0.984 . S
H1375 N1362 0.985 . S
C1376 C1377 1.363 . S
C1376 C1382 1.379 1_545 S
C1376 N1384 1.356 . S
C1377 C1376 1.363 . S
C1377 C1383 1.363 . S
C1378 C1379 1.363 . S
C1378 C1383 1.379 1_565 S
C1378 N1385 1.356 . S
C1379 C1378 1.363 . S
C1379 C1382 1.363 . S
N1380 C1382 1.356 . S
N1380 H1392 0.984 . S
N1380 H1393 0.985 . S
N1381 C1383 1.356 . S
N1381 H1386 0.984 . S
N1381 H1387 0.985 . S
C1382 C1376 1.379 1_565 S
C1382 C1379 1.363 . S
C1382 N1380 1.356 . S
C1383 C1377 1.363 . S
C1383 C1378 1.379 1_545 S
C1383 N1381 1.356 . S
N1384 C1376 1.356 . S
N1384 H1390 0.984 . S
N1384 H1391 0.984 . S
N1385 C1378 1.356 . S
N1385 H1388 0.984 . S
N1385 H1389 0.985 . S
H1386 N1381 0.984 . S
H1387 N1381 0.985 . S
H1388 N1385 0.984 . S
H1389 N1385 0.985 . S
H1390 N1384 0.984 . S
H1391 N1384 0.984 . S
H1392 N1380 0.984 . S
H1393 N1380 0.985 . S
C1394 C1395 1.363 . S
C1394 C1400 1.379 . S
C1394 N1402 1.356 . S
C1395 C1394 1.363 . S
C1395 C1401 1.363 . S
C1396 C1397 1.363 . S
C1396 C1401 1.379 . S
C1396 N1403 1.356 . S
C1397 C1396 1.363 . S
C1397 C1400 1.363 . S
N1398 C1400 1.356 . S
N1398 H1410 0.984 . S
N1398 H1411 0.985 . S
N1399 C1401 1.356 . S
N1399 H1404 0.984 . S
N1399 H1405 0.985 . S
C1400 C1394 1.379 . S
C1400 C1397 1.363 . S
C1400 N1398 1.356 . S
C1401 C1395 1.363 . S
C1401 C1396 1.379 . S
C1401 N1399 1.356 . S
N1402 C1394 1.356 . S
N1402 H1408 0.984 . S
N1402 H1409 0.984 . S
N1403 C1396 1.356 . S
N1403 H1406 0.984 . S
N1403 H1407 0.985 . S
H1404 N1399 0.984 . S
H1405 N1399 0.985 . S
H1406 N1403 0.984 . S
H1407 N1403 0.985 . S
H1408 N1402 0.984 . S
H1409 N1402 0.984 . S
H1410 N1398 0.984 . S
H1411 N1398 0.985 . S
C1412 C1413 1.363 . S
C1412 C1418 1.379 1_545 S
C1412 N1420 1.356 . S
C1413 C1412 1.363 . S
C1413 C1419 1.363 1_556 S
C1414 C1415 1.363 . S
C1414 C1419 1.379 1_565 S
C1414 N1421 1.356 . S
C1415 C1414 1.363 . S
C1415 C1418 1.363 1_554 S
N1416 C1418 1.356 . S
N1416 H1428 0.984 . S
N1416 H1429 0.985 1_556 S
N1417 C1419 1.356 . S
N1417 H1422 0.984 1_554 S
N1417 H1423 0.985 . S
C1418 C1412 1.379 1_565 S
C1418 C1415 1.363 1_556 S
C1418 N1416 1.356 . S
C1419 C1413 1.363 1_554 S
C1419 C1414 1.379 1_545 S
C1419 N1417 1.356 . S
N1420 C1412 1.356 . S
N1420 H1426 0.984 . S
N1420 H1427 0.984 . S
N1421 C1414 1.356 . S
N1421 H1424 0.984 . S
N1421 H1425 0.985 . S
H1422 N1417 0.984 1_556 S
H1423 N1417 0.985 . S
H1424 N1421 0.984 . S
H1425 N1421 0.985 . S
H1426 N1420 0.984 . S
H1427 N1420 0.984 . S
H1428 N1416 0.984 . S
H1429 N1416 0.985 1_554 S
C1430 C1431 1.363 . S
C1430 C1436 1.379 . S
C1430 N1438 1.356 . S
C1431 C1430 1.363 . S
C1431 C1437 1.363 . S
C1432 C1433 1.363 . S
C1432 C1437 1.379 . S
C1432 N1439 1.356 . S
C1433 C1432 1.363 . S
C1433 C1436 1.363 . S
N1434 C1436 1.356 . S
N1434 H1446 0.984 . S
N1434 H1447 0.985 . S
N1435 C1437 1.356 . S
N1435 H1440 0.984 . S
N1435 H1441 0.985 . S
C1436 C1430 1.379 . S
C1436 C1433 1.363 . S
C1436 N1434 1.356 . S
C1437 C1431 1.363 . S
C1437 C1432 1.379 . S
C1437 N1435 1.356 . S
N1438 C1430 1.356 . S
N1438 H1444 0.984 . S
N1438 H1445 0.984 . S
N1439 C1432 1.356 . S
N1439 H1442 0.984 . S
N1439 H1443 0.985 . S
H1440 N1435 0.984 . S
H1441 N1435 0.985 . S
H1442 N1439 0.984 . S
H1443 N1439 0.985 . S
H1444 N1438 0.984 . S
H1445 N1438 0.984 . S
H1446 N1434 0.984 . S
H1447 N1434 0.985 . S
C1448 C1449 1.363 . S
C1448 C1454 1.379 1_545 S
C1448 N1456 1.356 . S
C1449 C1448 1.363 . S
C1449 C1455 1.363 . S
C1450 C1451 1.363 . S
C1450 C1455 1.379 1_565 S
C1450 N1457 1.356 . S
C1451 C1450 1.363 . S
C1451 C1454 1.363 . S
N1452 C1454 1.356 . S
N1452 H1464 0.984 . S
N1452 H1465 0.985 . S
N1453 C1455 1.356 . S
N1453 H1458 0.984 . S
N1453 H1459 0.985 . S
C1454 C1448 1.379 1_565 S
C1454 C1451 1.363 . S
C1454 N1452 1.356 . S
C1455 C1449 1.363 . S
C1455 C1450 1.379 1_545 S
C1455 N1453 1.356 . S
N1456 C1448 1.356 . S
N1456 H1462 0.984 . S
N1456 H1463 0.984 . S
N1457 C1450 1.356 . S
N1457 H1460 0.984 . S
N1457 H1461 0.985 . S
H1458 N1453 0.984 . S
H1459 N1453 0.985 . S
H1460 N1457 0.984 . S
H1461 N1457 0.985 . S
H1462 N1456 0.984 . S
H1463 N1456 0.984 . S
H1464 N1452 0.984 . S
H1465 N1452 0.985 . S
C1466 C1467 1.363 . S
C1466 C1472 1.379 . S
C1466 N1474 1.356 . S
C1467 C1466 1.363 . S
C1467 C1473 1.363 . S
C1468 C1469 1.363 . S
C1468 C1473 1.379 . S
C1468 N1475 1.356 . S
C1469 C1468 1.363 . S
C1469 C1472 1.363 . S
N1470 C1472 1.356 . S
N1470 H1482 0.984 . S
N1470 H1483 0.985 . S
N1471 C1473 1.356 . S
N1471 H1476 0.984 . S
N1471 H1477 0.985 . S
C1472 C1466 1.379 . S
C1472 C1469 1.363 . S
C1472 N1470 1.356 . S
C1473 C1467 1.363 . S
C1473 C1468 1.379 . S
C1473 N1471 1.356 . S
N1474 C1466 1.356 . S
N1474 H1480 0.984 . S
N1474 H1481 0.984 . S
N1475 C1468 1.356 . S
N1475 H1478 0.984 . S
N1475 H1479 0.985 . S
H1476 N1471 0.984 . S
H1477 N1471 0.985 . S
H1478 N1475 0.984 . S
H1479 N1475 0.985 . S
H1480 N1474 0.984 . S
H1481 N1474 0.984 . S
H1482 N1470 0.984 . S
H1483 N1470 0.985 . S
C1484 C1485 1.363 . S
C1484 C1490 1.379 1_565 S
C1484 N1492 1.356 . S
C1485 C1484 1.363 . S
C1485 C1491 1.363 1_554 S
C1486 C1487 1.363 . S
C1486 C1491 1.379 1_545 S
C1486 N1493 1.356 . S
C1487 C1486 1.363 . S
C1487 C1490 1.363 1_556 S
N1488 C1490 1.356 . S
N1488 H1500 0.984 . S
N1488 H1501 0.985 . S
N1489 C1491 1.356 . S
N1489 H1494 0.984 . S
N1489 H1495 0.985 . S
C1490 C1484 1.379 1_545 S
C1490 C1487 1.363 1_554 S
C1490 N1488 1.356 . S
C1491 C1485 1.363 1_556 S
C1491 C1486 1.379 1_565 S
C1491 N1489 1.356 . S
N1492 C1484 1.356 . S
N1492 H1498 0.984 . S
N1492 H1499 0.984 . S
N1493 C1486 1.356 . S
N1493 H1496 0.984 . S
N1493 H1497 0.985 . S
H1494 N1489 0.984 . S
H1495 N1489 0.985 . S
H1496 N1493 0.984 . S
H1497 N1493 0.985 . S
H1498 N1492 0.984 . S
H1499 N1492 0.984 . S
H1500 N1488 0.984 . S
H1501 N1488 0.985 . S
C1502 C1503 1.363 . S
C1502 C1508 1.379 . S
C1502 N1510 1.356 . S
C1503 C1502 1.363 . S
C1503 C1509 1.363 . S
C1504 C1505 1.363 . S
C1504 C1509 1.379 . S
C1504 N1511 1.356 . S
C1505 C1504 1.363 . S
C1505 C1508 1.363 . S
N1506 C1508 1.356 . S
N1506 H1518 0.984 . S
N1506 H1519 0.985 . S
N1507 C1509 1.356 . S
N1507 H1512 0.984 . S
N1507 H1513 0.985 . S
C1508 C1502 1.379 . S
C1508 C1505 1.363 . S
C1508 N1506 1.356 . S
C1509 C1503 1.363 . S
C1509 C1504 1.379 . S
C1509 N1507 1.356 . S
N1510 C1502 1.356 . S
N1510 H1516 0.984 . S
N1510 H1517 0.984 . S
N1511 C1504 1.356 . S
N1511 H1514 0.984 . S
N1511 H1515 0.985 . S
H1512 N1507 0.984 . S
H1513 N1507 0.985 . S
H1514 N1511 0.984 . S
H1515 N1511 0.985 . S
H1516 N1510 0.984 . S
H1517 N1510 0.984 . S
H1518 N1506 0.984 . S
H1519 N1506 0.985 . S
C945 C701 1.435 . S
C947 C33 1.436 . S
C963 C937 1.433 . S
C965 C111 1.433 . S
C981 C170 1.434 . S
C983 C564 1.434 . S
C999 C819 1.434 . S
C1001 C210 1.434 . S
C1017 C269 1.435 . S
C1019 C800 1.435 . S
C1035 C347 1.432 . S
C1037 C682 1.433 . S
C1053 C406 1.433 . S
C1055 C918 1.434 . S
C1071 C446 1.434 . S
C1073 C583 1.433 . S
C1089 C229 1.435 . S
C1091 C505 1.435 . S
C1107 C642 1.432 . S
C1109 C92 1.432 . S
C1125 C741 1.435 . S
C1127 C328 1.434 . S
C1143 C878 1.433 . S
C1145 C465 1.433 . S
C1161 C288 1.435 . S
C1163 C524 1.435 . S
C1179 C623 1.434 . S
C1181 C387 1.434 . S
C1197 C859 1.434 . S
C1199 C151 1.434 . S
C1215 C52 1.435 . S
C1217 C760 1.435 . S
C1233 C3 1.427 . S
C1235 C239 1.426 . S
C1251 C64 1.431 . S
C1253 C300 1.431 . S
C1269 C123 1.435 . S
C1271 C359 1.435 . S
C1287 C416 1.428 . S
C1289 C180 1.428 . S
C1305 C475 1.426 . S
C1307 C711 1.426 . S
C1323 C772 1.433 . S
C1325 C536 1.433 . S
C1341 C595 1.434 . S
C1343 C831 1.434 . S
C1359 C890 1.435 . S
C1361 C652 1.426 . S
C1377 C418 1.431 . S
C1379 C62 1.422 . S
C1395 C121 1.429 . S
C1397 C241 1.438 . S
C1413 C182 1.436 . S
C1415 C298 1.427 . S
C1431 C5 1.434 . S
C1433 C357 1.425 . S
C1449 C534 1.427 . S
C1451 C888 1.427 . S
C1467 C713 1.438 . S
C1469 C593 1.429 . S
C1485 C654 1.435 . S
C1487 C770 1.426 . S
C1503 C829 1.423 . S
C1505 C477 1.432 . S
