# Generated by pormake.
# Topology crs, (6)-cn, num edge types: 1
# Building blocks:
#     Node 0, Type 0, BuildingBlock: PAMTUU_clean_sbu_0, # of connection points: 6
#     Node 1, Type 0, BuildingBlock: PAMTUU_clean_sbu_0, # of connection points: 6
#     Node 2, Type 0, BuildingBlock: PAMTUU_clean_sbu_0, # of connection points: 6
#     Node 3, Type 0, BuildingBlock: PAMTUU_clean_sbu_0, # of connection points: 6
#     Node 4, Type 0, BuildingBlock: PAMTUU_clean_sbu_0, # of connection points: 6
#     Node 5, Type 0, BuildingBlock: PAMTUU_clean_sbu_0, # of connection points: 6
#     Node 6, Type 0, BuildingBlock: PAMTUU_clean_sbu_0, # of connection points: 6
#     Node 7, Type 0, BuildingBlock: PAMTUU_clean_sbu_0, # of connection points: 6
#     Node 8, Type 0, BuildingBlock: PAMTUU_clean_sbu_0, # of connection points: 6
#     Node 9, Type 0, BuildingBlock: PAMTUU_clean_sbu_0, # of connection points: 6
#     Node 10, Type 0, BuildingBlock: PAMTUU_clean_sbu_0, # of connection points: 6
#     Node 11, Type 0, BuildingBlock: PAMTUU_clean_sbu_0, # of connection points: 6
#     Node 12, Type 0, BuildingBlock: PAMTUU_clean_sbu_0, # of connection points: 6
#     Node 13, Type 0, BuildingBlock: PAMTUU_clean_sbu_0, # of connection points: 6
#     Node 14, Type 0, BuildingBlock: PAMTUU_clean_sbu_0, # of connection points: 6
#     Node 15, Type 0, BuildingBlock: PAMTUU_clean_sbu_0, # of connection points: 6
#     Edge 16, Type (0, 0), BuildingBlock: CIFDUS_clean_linker_0, # of connection points: 2
#     Edge 17, Type (0, 0), BuildingBlock: CIFDUS_clean_linker_0, # of connection points: 2
#     Edge 18, Type (0, 0), BuildingBlock: CIFDUS_clean_linker_0, # of connection points: 2
#     Edge 19, Type (0, 0), BuildingBlock: CIFDUS_clean_linker_0, # of connection points: 2
#     Edge 20, Type (0, 0), BuildingBlock: CIFDUS_clean_linker_0, # of connection points: 2
#     Edge 21, Type (0, 0), BuildingBlock: CIFDUS_clean_linker_0, # of connection points: 2
#     Edge 22, Type (0, 0), BuildingBlock: CIFDUS_clean_linker_0, # of connection points: 2
#     Edge 23, Type (0, 0), BuildingBlock: CIFDUS_clean_linker_0, # of connection points: 2
#     Edge 24, Type (0, 0), BuildingBlock: CIFDUS_clean_linker_0, # of connection points: 2
#     Edge 25, Type (0, 0), BuildingBlock: CIFDUS_clean_linker_0, # of connection points: 2
#     Edge 26, Type (0, 0), BuildingBlock: CIFDUS_clean_linker_0, # of connection points: 2
#     Edge 27, Type (0, 0), BuildingBlock: CIFDUS_clean_linker_0, # of connection points: 2
#     Edge 28, Type (0, 0), BuildingBlock: CIFDUS_clean_linker_0, # of connection points: 2
#     Edge 29, Type (0, 0), BuildingBlock: CIFDUS_clean_linker_0, # of connection points: 2
#     Edge 30, Type (0, 0), BuildingBlock: CIFDUS_clean_linker_0, # of connection points: 2
#     Edge 31, Type (0, 0), BuildingBlock: CIFDUS_clean_linker_0, # of connection points: 2
#     Edge 32, Type (0, 0), BuildingBlock: CIFDUS_clean_linker_0, # of connection points: 2
#     Edge 33, Type (0, 0), BuildingBlock: CIFDUS_clean_linker_0, # of connection points: 2
#     Edge 34, Type (0, 0), BuildingBlock: CIFDUS_clean_linker_0, # of connection points: 2
#     Edge 35, Type (0, 0), BuildingBlock: CIFDUS_clean_linker_0, # of connection points: 2
#     Edge 36, Type (0, 0), BuildingBlock: CIFDUS_clean_linker_0, # of connection points: 2
#     Edge 37, Type (0, 0), BuildingBlock: CIFDUS_clean_linker_0, # of connection points: 2
#     Edge 38, Type (0, 0), BuildingBlock: CIFDUS_clean_linker_0, # of connection points: 2
#     Edge 39, Type (0, 0), BuildingBlock: CIFDUS_clean_linker_0, # of connection points: 2
#     Edge 40, Type (0, 0), BuildingBlock: CIFDUS_clean_linker_0, # of connection points: 2
#     Edge 41, Type (0, 0), BuildingBlock: CIFDUS_clean_linker_0, # of connection points: 2
#     Edge 42, Type (0, 0), BuildingBlock: CIFDUS_clean_linker_0, # of connection points: 2
#     Edge 43, Type (0, 0), BuildingBlock: CIFDUS_clean_linker_0, # of connection points: 2
#     Edge 44, Type (0, 0), BuildingBlock: CIFDUS_clean_linker_0, # of connection points: 2
#     Edge 45, Type (0, 0), BuildingBlock: CIFDUS_clean_linker_0, # of connection points: 2
#     Edge 46, Type (0, 0), BuildingBlock: CIFDUS_clean_linker_0, # of connection points: 2
#     Edge 47, Type (0, 0), BuildingBlock: CIFDUS_clean_linker_0, # of connection points: 2
#     Edge 48, Type (0, 0), BuildingBlock: CIFDUS_clean_linker_0, # of connection points: 2
#     Edge 49, Type (0, 0), BuildingBlock: CIFDUS_clean_linker_0, # of connection points: 2
#     Edge 50, Type (0, 0), BuildingBlock: CIFDUS_clean_linker_0, # of connection points: 2
#     Edge 51, Type (0, 0), BuildingBlock: CIFDUS_clean_linker_0, # of connection points: 2
#     Edge 52, Type (0, 0), BuildingBlock: CIFDUS_clean_linker_0, # of connection points: 2
#     Edge 53, Type (0, 0), BuildingBlock: CIFDUS_clean_linker_0, # of connection points: 2
#     Edge 54, Type (0, 0), BuildingBlock: CIFDUS_clean_linker_0, # of connection points: 2
#     Edge 55, Type (0, 0), BuildingBlock: CIFDUS_clean_linker_0, # of connection points: 2
#     Edge 56, Type (0, 0), BuildingBlock: CIFDUS_clean_linker_0, # of connection points: 2
#     Edge 57, Type (0, 0), BuildingBlock: CIFDUS_clean_linker_0, # of connection points: 2
#     Edge 58, Type (0, 0), BuildingBlock: CIFDUS_clean_linker_0, # of connection points: 2
#     Edge 59, Type (0, 0), BuildingBlock: CIFDUS_clean_linker_0, # of connection points: 2
#     Edge 60, Type (0, 0), BuildingBlock: CIFDUS_clean_linker_0, # of connection points: 2
#     Edge 61, Type (0, 0), BuildingBlock: CIFDUS_clean_linker_0, # of connection points: 2
#     Edge 62, Type (0, 0), BuildingBlock: CIFDUS_clean_linker_0, # of connection points: 2
#     Edge 63, Type (0, 0), BuildingBlock: CIFDUS_clean_linker_0, # of connection points: 2
# Relax obj value: 0.420
# Max RMSD: 0.359
# Mean RMSD: 0.273
data_MOF--net-crs--node1-PAMTUU_clean_sbu_0--edge1-CIFDUS_clean_linker_0
_symmetry_space_group_name_H-M    P1
_symmetry_Int_Tables_number       1
_symmetry_cell_setting            triclinic
loop_
_symmetry_equiv_pos_as_xyz
'x, y, z'
_cell_length_a     49.827552
_cell_length_b     50.82388
_cell_length_c     39.754439
_cell_angle_alpha  72.392723
_cell_angle_beta   72.827986
_cell_angle_gamma 63.361897
loop_
_atom_site_label
_atom_site_type_symbol
_atom_site_fract_x
_atom_site_fract_y
_atom_site_fract_z
_atom_type_partial_charge
Tb0 Tb 0.02102 0.00806 0.98307 0.0
Tb1 Tb 0.99107 0.97657 0.06076 0.0
C2 C 0.95686 0.00725 0.99643 0.0
C3 C 0.0556 0.05678 0.91946 0.0
C4 C 0.08394 0.09533 0.91262 0.0
C5 C 0.08588 0.0851 0.88249 0.0
C6 C 0.07182 0.06573 0.88597 0.0
C7 C 0.0528 0.06783 0.94917 0.0
C8 C 0.06676 0.08701 0.94576 0.0
C9 C 0.04316 0.03442 0.92483 0.0
O10 O 0.99377 0.04325 1.01469 0.0
O11 O 0.99422 0.01415 0.07144 0.0
O12 O 0.03938 0.96129 0.06196 0.0
O13 O 0.04992 0.99947 0.01968 0.0
O14 O 0.95627 0.98103 0.1065 0.0
O15 O 0.99202 0.93765 0.09956 0.0
O16 O 0.00026 0.94938 0.02268 0.0
O17 O 0.03956 0.96025 0.98317 0.0
O18 O 0.98297 1.00317 0.97416 0.0
O19 O 0.95439 0.00591 0.03061 0.0
C20 C 0.99112 0.04003 0.0495 0.0
O21 O 0.05876 0.00787 0.94188 0.0
O22 O 0.01391 0.04305 0.93785 0.0
C23 C 0.05637 0.97707 0.04717 0.0
C24 C 0.94218 0.94032 0.12059 0.0
C25 C 0.90268 0.91397 0.12249 0.0
C26 C 0.91642 0.90661 0.15217 0.0
C27 C 0.93619 0.91969 0.15116 0.0
C28 C 0.92781 0.94827 0.09143 0.0
C29 C 0.90813 0.93537 0.09244 0.0
C30 C 0.96509 0.95198 0.11724 0.0
C31 C 0.02383 0.94325 0.99631 0.0
H32 H 0.09911 0.09121 0.85672 0.0
H33 H 0.07423 0.05719 0.86289 0.0
H34 H 0.04041 0.06101 0.97527 0.0
H35 H 0.06454 0.09497 0.96924 0.0
H36 H 0.91277 0.89001 0.17555 0.0
H37 H 0.94736 0.91315 0.17373 0.0
H38 H 0.93236 0.96399 0.06745 0.0
H39 H 0.89751 0.94183 0.06941 0.0
Tb40 Tb 0.9807 0.24151 0.24879 0.0
Tb41 Tb 0.00818 0.26813 0.29137 0.0
C42 C 0.95125 0.3113 0.25336 0.0
C43 C 0.96314 0.19818 0.20041 0.0
C44 C 0.97317 0.15394 0.16389 0.0
C45 C 0.95112 0.15838 0.19551 0.0
C46 C 0.94615 0.18026 0.21346 0.0
C47 C 0.98499 0.19425 0.16849 0.0
C48 C 0.98987 0.1723 0.15023 0.0
C49 C 0.95663 0.22087 0.22082 0.0
O50 O 0.01585 0.25334 0.20688 0.0
O51 O 0.0406 0.26198 0.24061 0.0
O52 O 0.02915 0.21903 0.30478 0.0
O53 O 0.02463 0.20578 0.25708 0.0
O54 O 0.03199 0.29362 0.29036 0.0
O55 O 0.01911 0.2656 0.33976 0.0
O56 O 0.96367 0.27122 0.32429 0.0
O57 O 0.95947 0.23485 0.306 0.0
O58 O 0.94917 0.28801 0.24806 0.0
O59 O 0.97377 0.3089 0.26658 0.0
C60 C 0.03859 0.25857 0.21002 0.0
O61 O 0.96216 0.21059 0.25337 0.0
O62 O 0.96401 0.24383 0.20459 0.0
C63 C 0.03799 0.19966 0.28399 0.0
C64 C 0.02549 0.30816 0.34428 0.0
C65 C 0.01666 0.35189 0.38088 0.0
C66 C 0.04233 0.34295 0.35365 0.0
C67 C 0.04669 0.32132 0.33563 0.0
C68 C -0.00014 0.31671 0.37175 0.0
C69 C -0.00445 0.33839 0.39004 0.0
C70 C 0.03179 0.28495 0.32479 0.0
C71 C 0.95059 0.25268 0.32876 0.0
H72 H 0.93759 0.14489 0.20637 0.0
H73 H 0.92895 0.18316 0.23779 0.0
H74 H -0.00167 0.20792 0.15785 0.0
H75 H 0.00708 0.16924 0.12597 0.0
H76 H 0.05921 0.35264 0.34635 0.0
H77 H 0.06679 0.31478 0.31485 0.0
H78 H 0.98322 0.30676 0.37898 0.0
H79 H 0.97547 0.34502 0.4108 0.0
Tb80 Tb 0.75418 0.26633 0.54425 0.0
Tb81 Tb 0.73319 0.24406 0.49166 0.0
C82 C 0.75252 0.19985 0.56427 0.0
C83 C 0.78854 0.29264 0.59315 0.0
C84 C 0.82821 0.31477 0.601 0.0
C85 C 0.81409 0.29933 0.63108 0.0
C86 C 0.79435 0.28839 0.62714 0.0
C87 C 0.8031 0.30732 0.56281 0.0
C88 C 0.82282 0.31841 0.56674 0.0
C89 C 0.76766 0.28092 0.59022 0.0
O90 O 0.79666 0.25187 0.50507 0.0
O91 O 0.77972 0.24009 0.4658 0.0
O92 O 0.72102 0.29275 0.47242 0.0
O93 O 0.75288 0.30115 0.49539 0.0
O94 O 0.74396 0.21683 0.4553 0.0
O95 O 0.6997 0.25348 0.46292 0.0
O96 O 0.69718 0.2475 0.5397 0.0
O97 O 0.70436 0.28167 0.55854 0.0
O98 O 0.75447 0.22197 0.57274 0.0
O99 O 0.74688 0.20265 0.53269 0.0
C100 C 0.80109 0.24359 0.47486 0.0
O101 O 0.74614 0.29916 0.57185 0.0
O102 O 0.78048 0.25407 0.5831 0.0
C103 C 0.73545 0.30928 0.4718 0.0
C104 C 0.70269 0.21253 0.44404 0.0
C105 C 0.67541 0.17715 0.43731 0.0
C106 C 0.68465 0.19625 0.407 0.0
C107 C 0.69819 0.21381 0.41039 0.0
C108 C 0.69383 0.19336 0.47443 0.0
C109 C 0.68025 0.17571 0.47107 0.0
C110 C 0.71707 0.23115 0.44643 0.0
C111 C 0.68802 0.2666 0.56082 0.0
H112 H 0.81819 0.29586 0.65768 0.0
H113 H 0.78349 0.2767 0.6507 0.0
H114 H 0.79895 0.31045 0.53632 0.0
H115 H 0.83318 0.3305 0.54315 0.0
H116 H 0.68152 0.19751 0.38064 0.0
H117 H 0.70517 0.22843 0.3867 0.0
H118 H 0.69729 0.19219 0.5006 0.0
H119 H 0.67304 0.16139 0.49491 0.0
Tb120 Tb 0.75743 0.01566 0.79076 0.0
Tb121 Tb 0.73081 0.99203 0.74477 0.0
C122 C 0.68823 0.04683 0.78233 0.0
C123 C 0.80022 0.02306 0.84901 0.0
C124 C 0.84489 0.00668 0.8901 0.0
C125 C 0.81406 0.01344 0.90667 0.0
C126 C 0.79195 0.02168 0.88628 0.0
C127 C 0.83112 0.01553 0.83256 0.0
C128 C 0.85317 0.0075 0.85286 0.0
C129 C 0.77619 0.03448 0.82752 0.0
O130 O 0.75837 0.97185 0.82295 0.0
O131 O 0.72353 0.96728 0.80042 0.0
O132 O 0.7765 0.95846 0.74948 0.0
O133 O 0.79875 0.98339 0.76431 0.0
O134 O 0.69596 0.98276 0.73789 0.0
O135 O 0.7399 0.97155 0.70183 0.0
O136 O 0.74705 0.02489 0.70464 0.0
O137 O 0.74952 0.05049 0.74163 0.0
O138 O 0.70773 0.03658 0.80398 0.0
O139 O 0.69465 0.03518 0.7542 0.0
C140 C 0.74034 0.95854 0.82504 0.0
O141 O 0.78488 0.03633 0.79285 0.0
O142 O 0.75443 0.02455 0.84037 0.0
C143 C 0.80071 0.96063 0.75318 0.0
C144 C 0.69748 0.98186 0.67788 0.0
C145 C 0.66618 0.99476 0.62269 0.0
C146 C 0.69295 0.9687 0.62665 0.0
C147 C 0.7084 0.9623 0.65405 0.0
C148 C 0.67182 0.00887 0.67275 0.0
C149 C 0.65626 0.01529 0.64526 0.0
C150 C 0.71235 0.97232 0.70886 0.0
C151 C 0.74931 0.04832 0.70949 0.0
H152 H 0.80694 0.01267 0.93533 0.0
H153 H 0.76825 0.02754 0.89959 0.0
H154 H 0.83826 0.01655 0.80385 0.0
H155 H 0.87658 1.00294 0.83906 0.0
H156 H 0.7013 0.95268 0.60937 0.0
H157 H 0.72833 0.94147 0.65744 0.0
H158 H 0.66317 0.02442 0.6907 0.0
H159 H 0.63556 0.03545 0.64297 0.0
Tb160 Tb 0.48541 0.74827 0.24352 0.0
Tb161 Tb 0.51228 0.76844 0.294 0.0
C162 C 0.45558 0.8141 0.25929 0.0
C163 C 0.46922 0.71632 0.17995 0.0
C164 C 0.47523 0.67816 0.1369 0.0
C165 C 0.45738 0.70912 0.12916 0.0
C166 C 0.45438 0.72796 0.15053 0.0
C167 C 0.48807 0.68562 0.18703 0.0
C168 C 0.49101 0.66669 0.16569 0.0
C169 C 0.46225 0.73623 0.20439 0.0
O170 O 0.53033 0.74694 0.21228 0.0
O171 O 0.53315 0.78008 0.23795 0.0
O172 O 0.54437 0.7229 0.28866 0.0
O173 O 0.51896 0.70561 0.26604 0.0
O174 O 0.52774 0.79932 0.29805 0.0
O175 O 0.53122 0.75931 0.33911 0.0
O176 O 0.47755 0.75417 0.33254 0.0
O177 O 0.45204 0.75169 0.2944 0.0
O178 O 0.46508 0.7973 0.23525 0.0
O179 O 0.46809 0.80485 0.28775 0.0
C180 C 0.54315 0.76461 0.2124 0.0
O181 O 0.46266 0.72406 0.23829 0.0
O182 O 0.47407 0.75632 0.19326 0.0
C183 C 0.54177 0.70114 0.28024 0.0
C184 C 0.52898 0.80131 0.35595 0.0
C185 C 0.51712 0.83817 0.4035 0.0
C186 C 0.547 0.82397 0.38542 0.0
C187 C 0.55284 0.80571 0.36192 0.0
C188 C 0.49913 0.81466 0.37462 0.0
C189 C 0.49326 0.8329 0.39848 0.0
C190 C 0.53607 0.78397 0.32868 0.0
C191 C 0.45424 0.75151 0.32676 0.0
H192 H 0.4447 0.71863 0.10745 0.0
H193 H 0.4396 0.75156 0.14477 0.0
H194 H 0.49985 0.67615 0.20955 0.0
H195 H 0.50531 0.64301 0.172 0.0
H196 H 0.56586 0.82734 0.38911 0.0
H197 H 0.57601 0.7955 0.34775 0.0
H198 H 0.48043 0.8115 0.37016 0.0
H199 H 0.47 0.84372 0.41197 0.0
Tb200 Tb 0.25909 0.76404 0.54288 0.0
Tb201 Tb 0.23771 0.74196 0.49035 0.0
C202 C 0.25734 0.69862 0.5626 0.0
C203 C 0.28845 0.79681 0.58994 0.0
C204 C 0.31579 0.83244 0.59579 0.0
C205 C 0.29926 0.81996 0.62643 0.0
C206 C 0.28574 0.80222 0.62348 0.0
C207 C 0.30434 0.80962 0.55908 0.0
C208 C 0.31801 0.82734 0.562 0.0
C209 C 0.27439 0.77775 0.58805 0.0
O210 O 0.29522 0.7614 0.49532 0.0
O211 O 0.28734 0.72903 0.4738 0.0
O212 O 0.23544 0.78699 0.46204 0.0
O213 O 0.24505 0.8053 0.50162 0.0
O214 O 0.25074 0.70988 0.45959 0.0
O215 O 0.20885 0.74973 0.45601 0.0
O216 O 0.19529 0.75593 0.53026 0.0
O217 O 0.21309 0.76712 0.56909 0.0
O218 O 0.27142 0.71535 0.56238 0.0
O219 O 0.24032 0.70649 0.53866 0.0
C220 C 0.30377 0.74371 0.47266 0.0
O221 O 0.24758 0.79176 0.57896 0.0
O222 O 0.29203 0.75513 0.57208 0.0
C223 C 0.23839 0.80864 0.47042 0.0
C224 C 0.21103 0.70598 0.44458 0.0
C225 C 0.18535 0.66805 0.44115 0.0
C226 C 0.19805 0.68343 0.4095 0.0
C227 C 0.21079 0.70227 0.41125 0.0
C228 C 0.19832 0.69086 0.47634 0.0
C229 C 0.18552 0.67196 0.47464 0.0
C230 C 0.22625 0.72435 0.44545 0.0
C231 C 0.19139 0.76378 0.56063 0.0
H232 H 0.29677 0.82392 0.65268 0.0
H233 H 0.27325 0.7926 0.64745 0.0
H234 H 0.30642 0.80567 0.53295 0.0
H235 H 0.33085 0.83648 0.53801 0.0
H236 H 0.19857 0.68053 0.38338 0.0
H237 H 0.22085 0.71365 0.38656 0.0
H238 H 0.19857 0.69349 0.50229 0.0
H239 H 0.17556 0.66061 0.49941 0.0
Tb240 Tb 0.2574 0.51777 0.79291 0.0
Tb241 Tb 0.2329 0.49204 0.74659 0.0
C242 C 0.18906 0.54714 0.78197 0.0
C243 C 0.28804 0.53049 0.86033 0.0
C244 C 0.3213 0.51712 0.9138 0.0
C245 C 0.29173 0.53986 0.91477 0.0
C246 C 0.27533 0.5465 0.88822 0.0
C247 C 0.31699 0.50685 0.86001 0.0
C248 C 0.33353 0.50023 0.88657 0.0
C249 C 0.2707 0.53972 0.83172 0.0
O250 O 0.26088 0.47344 0.82489 0.0
O251 O 0.22685 0.46731 0.80281 0.0
O252 O 0.2804 0.46171 0.74574 0.0
O253 O 0.29967 0.48331 0.77122 0.0
O254 O 0.19968 0.47839 0.74435 0.0
O255 O 0.23973 0.47389 0.70226 0.0
O256 O 0.24498 0.52763 0.70651 0.0
O257 O 0.25381 0.55053 0.7418 0.0
O258 O 0.20748 0.53656 0.80492 0.0
O259 O 0.1967 0.53544 0.75369 0.0
C260 C 0.24383 0.45911 0.82714 0.0
O261 O 0.286 0.53539 0.79961 0.0
O262 O 0.2468 0.53314 0.84045 0.0
C263 C 0.30318 0.46264 0.75487 0.0
C264 C 0.19445 0.48128 0.68552 0.0
C265 C 0.15819 0.49096 0.63685 0.0
C266 C 0.19017 0.47868 0.62723 0.0
C267 C 0.20816 0.47368 0.65151 0.0
C268 C 0.16244 0.49519 0.6942 0.0
C269 C 0.14452 0.49994 0.6701 0.0
C270 C 0.21344 0.47138 0.71289 0.0
C271 C 0.25043 0.54956 0.71057 0.0
H272 H 0.28151 0.55294 0.93568 0.0
H273 H 0.25286 0.56463 0.88906 0.0
H274 H 0.32709 0.49402 0.83885 0.0
H275 H 0.35636 0.48274 0.88493 0.0
H276 H 0.2012 0.47143 0.60183 0.0
H277 H 0.23278 0.46269 0.64426 0.0
H278 H 0.15111 0.50134 0.72015 0.0
H279 H 0.11986 0.50974 0.67795 0.0
Tb280 Tb -0.0009 0.5274 0.4855 0.0
Tb281 Tb 0.96304 0.50079 0.56233 0.0
C282 C 0.93182 0.53377 0.49552 0.0
C283 C 0.05011 0.56055 0.42296 0.0
C284 C 0.09037 0.5876 0.41509 0.0
C285 C 0.08298 0.58564 0.38462 0.0
C286 C 0.06286 0.57218 0.38858 0.0
C287 C 0.05801 0.56178 0.45329 0.0
C288 C 0.07788 0.57526 0.44943 0.0
C289 C 0.02743 0.54832 0.42801 0.0
O290 O 0.99137 0.55493 0.52234 0.0
O291 O 0.94919 0.54836 0.5601 0.0
O292 O 0.00311 0.49944 0.57425 0.0
O293 O 0.03397 0.49905 0.51839 0.0
O294 O 0.92268 0.50604 0.60068 0.0
O295 O 0.96477 0.46772 0.60939 0.0
O296 O 0.98786 0.46362 0.5335 0.0
O297 O 0.99383 0.49057 0.47593 0.0
O298 O 0.9508 0.54742 0.48262 0.0
O299 O 0.93595 0.5112 0.523 0.0
C300 C 0.96699 0.5633 0.54719 0.0
O301 O 0.03594 0.51971 0.44204 0.0
O302 O 0.00017 0.56399 0.44375 0.0
C303 C 0.03004 0.49457 0.55353 0.0
C304 C 0.92022 0.45917 0.62545 0.0
C305 C 0.8954 0.41736 0.63374 0.0
C306 C 0.89968 0.42282 0.66402 0.0
C307 C 0.91217 0.44364 0.65985 0.0
C308 C 0.91558 0.45401 0.59536 0.0
C309 C 0.90312 0.43345 0.59946 0.0
C310 C 0.93521 0.47944 0.61995 0.0
C311 C 0.9936 0.46577 0.49848 0.0
H312 H 0.09248 0.59476 0.35784 0.0
H313 H 0.05689 0.5713 0.36496 0.0
H314 H 0.04815 0.55298 0.48006 0.0
H315 H 0.08257 0.57692 0.47347 0.0
H316 H 0.89393 0.41063 0.6907 0.0
H317 H 0.91594 0.44728 0.68325 0.0
H318 H 0.92191 0.46568 0.56856 0.0
H319 H 0.89944 0.43022 0.57572 0.0
Tb320 Tb 0.25671 0.26291 0.04538 0.0
Tb321 Tb 0.23101 0.24852 0.98998 0.0
C322 C 0.25236 0.19878 0.05892 0.0
C323 C 0.2953 0.28462 0.09522 0.0
C324 C 0.33435 0.30643 0.10591 0.0
C325 C 0.32619 0.28438 0.13243 0.0
C326 C 0.30679 0.27363 0.12711 0.0
C327 C 0.30388 0.30609 0.06821 0.0
C328 C 0.32324 0.31698 0.07357 0.0
C329 C 0.27382 0.27375 0.09157 0.0
O330 O 0.29834 0.24631 1.00545 0.0
O331 O 0.27545 0.24934 0.96131 0.0
O332 O 0.21744 0.29725 0.97802 0.0
O333 O 0.25402 0.3003 0.99843 0.0
O334 O 0.2404 0.22499 0.95 0.0
O335 O 0.19597 0.26018 0.96258 0.0
O336 O 0.19617 0.24928 0.03875 0.0
O337 O 0.20696 0.27771 0.06367 0.0
O338 O 0.25418 0.21898 0.07157 0.0
O339 O 0.24759 0.20466 0.02602 0.0
C340 C 0.29962 0.24579 0.97208 0.0
O341 O 0.25121 0.29314 0.07537 0.0
O342 O 0.28581 0.24779 0.08214 0.0
C343 C 0.23408 0.31168 0.97692 0.0
C344 C 0.1982 0.21983 0.94318 0.0
C345 C 0.17269 0.18147 0.94048 0.0
C346 C 0.18754 0.19482 0.90882 0.0
C347 C 0.20016 0.21391 0.9102 0.0
C348 C 0.18359 0.20652 0.97492 0.0
C349 C 0.17078 0.18754 0.97357 0.0
C350 C 0.21252 0.23905 0.94403 0.0
C351 C 0.18902 0.26514 0.0631 0.0
H352 H 0.33475 0.27547 0.15735 0.0
H353 H 0.30048 0.25689 0.14812 0.0
H354 H 0.29526 0.31475 0.04333 0.0
H355 H 0.32886 0.3342 0.05278 0.0
H356 H 0.18979 0.19018 0.88304 0.0
H357 H 0.2117 0.22385 0.88555 0.0
H358 H 0.18215 0.21078 1.00065 0.0
H359 H 0.15917 0.17786 0.99834 0.0
Tb360 Tb 0.25318 0.02241 0.30188 0.0
Tb361 Tb 0.24283 0.99333 0.24603 0.0
C362 C 0.18905 0.04822 0.27803 0.0
C363 C 0.27455 0.03756 0.37509 0.0
C364 C 0.30549 0.0257 0.43015 0.0
C365 C 0.27976 0.05258 0.42434 0.0
C366 C 0.26448 0.05847 0.39694 0.0
C367 C 0.29888 0.0098 0.38229 0.0
C368 C 0.31428 0.00392 0.40967 0.0
C369 C 0.26108 0.04631 0.34325 0.0
O370 O 0.2376 0.98762 0.33753 0.0
O371 O 0.24532 0.95985 0.29686 0.0
O372 O 0.29207 0.97481 0.24432 0.0
O373 O 0.29265 0.98016 0.29923 0.0
O374 O 0.2234 0.96745 0.23758 0.0
O375 O 0.25466 0.98297 0.19482 0.0
O376 O 0.24128 0.0379 0.21485 0.0
O377 O 0.26779 0.04471 0.2475 0.0
O378 O 0.20874 0.05291 0.28875 0.0
O379 O 0.19675 0.0243 0.2651 0.0
C380 C 0.2399 0.96295 0.3303 0.0
O381 O 0.28012 0.03902 0.31377 0.0
O382 O 0.23644 0.0417 0.34769 0.0
C383 C 0.30588 0.967 0.27146 0.0
C384 C 0.21763 0.97438 0.17868 0.0
C385 C 0.17828 0.98209 0.13506 0.0
C386 C 0.20354 0.95482 0.14099 0.0
C387 C 0.22303 0.95104 0.1626 0.0
C388 C 0.19294 1.00197 0.17222 0.0
C389 C 0.17343 0.00584 0.15039 0.0
C390 C 0.23682 0.96847 0.20398 0.0
C391 C 0.25584 0.05272 0.21866 0.0
H392 H 0.2722 0.06956 0.44007 0.0
H393 H 0.24557 0.0799 0.39185 0.0
H394 H 0.30682 0.99331 0.36574 0.0
H395 H 0.33414 0.98309 0.41334 0.0
H396 H 0.20807 0.93629 0.12915 0.0
H397 H 0.24201 0.9296 0.16741 0.0
H398 H 0.18839 0.02014 0.18471 0.0
H399 H 0.154 0.02702 0.14647 0.0
Tb400 Tb 0.47876 0.25056 0.74709 0.0
Tb401 Tb 0.51394 0.26297 0.79529 0.0
C402 C 0.45715 0.31453 0.76447 0.0
C403 C 0.45741 0.22108 0.68784 0.0
C404 C 0.46827 0.17878 0.64814 0.0
C405 C 0.43857 0.20011 0.65711 0.0
C406 C 0.43322 0.22108 0.6768 0.0
C407 C 0.4872 0.20017 0.67861 0.0
C408 C 0.49263 0.17921 0.65874 0.0
C409 C 0.45079 0.24209 0.71041 0.0
O410 O 0.52358 0.24497 0.71387 0.0
O411 O 0.53515 0.27306 0.73841 0.0
O412 O 0.5424 0.21717 0.78815 0.0
O413 O 0.51105 0.20576 0.76722 0.0
O414 O 0.53744 0.28799 0.79589 0.0
O415 O 0.53131 0.25394 0.84186 0.0
O416 O 0.47912 0.24885 0.83539 0.0
O417 O 0.44769 0.25538 0.79863 0.0
O418 O 0.46241 0.29933 0.74002 0.0
O419 O 0.47172 0.30246 0.79145 0.0
C420 C 0.54035 0.25926 0.71249 0.0
O421 O 0.45101 0.23044 0.74443 0.0
O422 O 0.46475 0.26048 0.69821 0.0
C423 C 0.53618 0.19795 0.77913 0.0
C424 C 0.53212 0.29703 0.85283 0.0
C425 C 0.52201 0.3375 0.89495 0.0
C426 C 0.53795 0.30649 0.90612 0.0
C427 C 0.54314 0.28644 0.88507 0.0
C428 C 0.51512 0.32796 0.84238 0.0
C429 C 0.51031 0.348 0.86314 0.0
C430 C 0.54049 0.27599 0.8292 0.0
C431 C 0.45315 0.25055 0.8308 0.0
H432 H 0.41945 0.20058 0.6489 0.0
H433 H 0.41009 0.23709 0.6838 0.0
H434 H 0.5061 0.19979 0.68722 0.0
H435 H 0.5157 0.16288 0.65244 0.0
H436 H 0.54727 0.29786 0.9305 0.0
H437 H 0.55638 0.26273 0.89356 0.0
H438 H 0.50611 0.3368 0.81777 0.0
H439 H 0.49757 0.37177 0.85424 0.0
Tb440 Tb 0.9784 0.74878 0.7427 0.0
Tb441 Tb 0.01348 0.76209 0.79009 0.0
C442 C 0.95605 0.814 0.75881 0.0
C443 C 0.95659 0.72217 0.68042 0.0
C444 C 0.96612 0.68707 0.63193 0.0
C445 C 0.93761 0.71052 0.6396 0.0
C446 C 0.9329 0.72787 0.66372 0.0
C447 C 0.98555 0.69981 0.6716 0.0
C448 C 0.99029 0.68236 0.64748 0.0
C449 C 0.94991 0.73821 0.70883 0.0
O450 O 0.01362 0.76138 0.70192 0.0
O451 O 0.04392 0.75907 0.73769 0.0
O452 O 0.03186 0.71327 0.79521 0.0
O453 O 0.02141 0.71012 0.74449 0.0
O454 O 0.03987 0.78307 0.79434 0.0
O455 O 0.02804 0.75083 0.83895 0.0
O456 O 0.9687 0.7664 0.82352 0.0
O457 O 0.95923 0.73648 0.7996 0.0
O458 O 0.94977 0.79402 0.75162 0.0
O459 O 0.98137 0.8069 0.76979 0.0
C460 C 0.03892 0.76152 0.70591 0.0
O461 O 0.95849 0.7215 0.73896 0.0
O462 O 0.95589 0.7622 0.69943 0.0
C463 C 0.03703 0.69832 0.77053 0.0
C464 C 0.03467 0.78936 0.85244 0.0
C465 C 0.02467 0.82762 0.89737 0.0
C466 C 0.0528 0.80312 0.89216 0.0
C467 C 0.05773 0.78419 0.86987 0.0
C468 C 0.00631 0.81337 0.85797 0.0
C469 C 0.00132 0.83237 0.88034 0.0
C470 C 0.04112 0.76993 0.82786 0.0
C471 C 0.95306 0.75081 0.82529 0.0
H472 H 0.91873 0.71498 0.62759 0.0
H473 H 0.91046 0.74517 0.67017 0.0
H474 H 0.00411 0.69519 0.6843 0.0
H475 H 0.01243 0.66433 0.6423 0.0
H476 H 0.07104 0.79858 0.90532 0.0
H477 H 0.07971 0.76565 0.86594 0.0
H478 H 0.98828 0.81764 0.8446 0.0
H479 H 0.9795 0.85119 0.88359 0.0
Tb480 Tb 0.74948 0.51968 0.28916 0.0
Tb481 Tb 0.73537 0.48673 0.24104 0.0
C482 C 0.68431 0.54321 0.27025 0.0
C483 C 0.77655 0.5406 0.35263 0.0
C484 C 0.81201 0.53543 0.39961 0.0
C485 C 0.78123 0.53954 0.41221 0.0
C486 C 0.7636 0.5423 0.38882 0.0
C487 C 0.8076 0.53565 0.34028 0.0
C488 C 0.82514 0.53315 0.36358 0.0
C489 C 0.75683 0.54636 0.32776 0.0
O490 O 0.75523 0.47499 0.32211 0.0
O491 O 0.72535 0.46507 0.29776 0.0
O492 O 0.78235 0.45919 0.24799 0.0
O493 O 0.79517 0.48839 0.26979 0.0
O494 O 0.70749 0.46745 0.23689 0.0
O495 O 0.74891 0.46504 0.19773 0.0
O496 O 0.74677 0.52264 0.20058 0.0
O497 O 0.7466 0.55056 0.23691 0.0
O498 O 0.69997 0.53628 0.29529 0.0
O499 O 0.6956 0.52886 0.24359 0.0
C500 C 0.74023 0.45885 0.32349 0.0
O501 O 0.76935 0.54664 0.2939 0.0
O502 O 0.73798 0.53284 0.33855 0.0
C503 C 0.80256 0.4645 0.25694 0.0
C504 C 0.70931 0.46253 0.17911 0.0
C505 C 0.67506 0.46558 0.13209 0.0
C506 C 0.70089 0.43949 0.1401 0.0
C507 C 0.71786 0.43801 0.16343 0.0
C508 C 0.68447 0.4892 0.16989 0.0
C509 C 0.66746 0.49074 0.14644 0.0
C510 C 0.7249 0.45846 0.20743 0.0
C511 C 0.74791 0.54688 0.20498 0.0
H512 H 0.77058 0.54153 0.43984 0.0
H513 H 0.73963 0.54641 0.39885 0.0
H514 H 0.81828 0.53425 0.31252 0.0
H515 H 0.84897 0.52957 0.35338 0.0
H516 H 0.70751 0.41994 0.12906 0.0
H517 H 0.73704 0.41728 0.17028 0.0
H518 H 0.67757 0.50835 0.18185 0.0
H519 H 0.64753 0.51106 0.14094 0.0
Tb520 Tb 0.75524 0.76179 0.03909 0.0
Tb521 Tb 0.73941 0.73764 0.98332 0.0
C522 C 0.75498 0.6959 0.05768 0.0
C523 C 0.78508 0.79488 0.08464 0.0
C524 C 0.81705 0.82799 0.08611 0.0
C525 C 0.81172 0.8066 0.11635 0.0
C526 C 0.79581 0.79024 0.1156 0.0
C527 C 0.79022 0.81616 0.05432 0.0
C528 C 0.80604 0.83269 0.05509 0.0
C529 C 0.76947 0.77657 0.08434 0.0
O530 O 0.79266 0.75925 0.99248 0.0
O531 O 0.78896 0.72389 0.97202 0.0
O532 O 0.73748 0.78271 0.95518 0.0
O533 O 0.74052 0.8028 0.99798 0.0
O534 O 0.7517 0.70344 0.95576 0.0
O535 O 0.71499 0.74662 0.94361 0.0
O536 O 0.69561 0.7522 0.02027 0.0
O537 O 0.70927 0.76279 0.06368 0.0
O538 O 0.76809 0.71309 0.05871 0.0
O539 O 0.73947 0.70315 0.03234 0.0
C540 C 0.80386 0.73988 0.97123 0.0
O541 O 0.74325 0.79092 0.07371 0.0
O542 O 0.78662 0.75264 0.07066 0.0
C543 C 0.73683 0.80537 0.96546 0.0
C544 C 0.7103 0.70455 0.93811 0.0
C545 C 0.67136 0.6785 0.93768 0.0
C546 C 0.69057 0.6858 0.90582 0.0
C547 C 0.70991 0.69877 0.90607 0.0
C548 C 0.69152 0.69701 0.97009 0.0
C549 C 0.67216 0.68403 0.96989 0.0
C550 C 0.72961 0.71935 0.93767 0.0
C551 C 0.68932 0.75915 0.05187 0.0
H552 H 0.82038 0.80205 0.14039 0.0
H553 H 0.7922 0.77367 0.13909 0.0
H554 H 0.78213 0.81985 0.03013 0.0
H555 H 0.80956 0.8492 0.03149 0.0
H556 H 0.69068 0.68142 0.88074 0.0
H557 H 0.72437 0.70452 0.88121 0.0
H558 H 0.69158 0.70153 0.99502 0.0
H559 H 0.65737 0.67893 0.99474 0.0
Tb560 Tb 0.49343 0.03236 0.48934 0.0
Tb561 Tb 0.47689 0.9895 0.56666 0.0
C562 C 0.43095 0.02546 0.51467 0.0
C563 C 0.52642 0.08225 0.42605 0.0
C564 C 0.56632 0.11042 0.41545 0.0
C565 C 0.55378 0.11272 0.38672 0.0
C566 C 0.5339 0.09862 0.39203 0.0
C567 C 0.53891 0.07997 0.4546 0.0
C568 C 0.55848 0.09403 0.44945 0.0
C569 C 0.5061 0.0669 0.43264 0.0
O570 O 0.49246 0.05192 0.53116 0.0
O571 O 0.45894 0.03523 0.57518 0.0
O572 O 0.51977 0.98976 0.56784 0.0
O573 O 0.53672 0.0059 0.50772 0.0
O574 O 0.44393 0.98509 0.61264 0.0
O575 O 0.48964 0.95064 0.60665 0.0
O576 O 0.49927 0.95978 0.52801 0.0
O577 O 0.49433 0.99439 0.47453 0.0
O578 O 0.4443 0.04455 0.50185 0.0
O579 O 0.44344 0.99954 0.53536 0.0
C580 C 0.47299 0.05371 0.56162 0.0
O581 O 0.51971 0.0377 0.43765 0.0
O582 O 0.48163 0.07559 0.45707 0.0
C583 C 0.54124 0.99362 0.54084 0.0
C584 C 0.44874 0.93558 0.62911 0.0
C585 C 0.41652 0.90118 0.63345 0.0
C586 C 0.41573 0.90967 0.66439 0.0
C587 C 0.43172 0.92701 0.66215 0.0
C588 C 0.45058 0.92591 0.59874 0.0
C589 C 0.43476 0.90874 0.60089 0.0
C590 C 0.4616 0.95749 0.62442 0.0
C591 C 0.50052 0.96683 0.49303 0.0
H592 H 0.55955 0.12513 0.36021 0.0
H593 H 0.52448 0.10042 0.36972 0.0
H594 H 0.53343 0.06732 0.48102 0.0
H595 H 0.56714 0.09238 0.47234 0.0
H596 H 0.4017 0.9041 0.68974 0.0
H597 H 0.42986 0.93464 0.68572 0.0
H598 H 0.4633 0.93268 0.57297 0.0
H599 H 0.43607 0.9021 0.57679 0.0
Tb600 Tb 0.49728 0.53408 0.97813 0.0
Tb601 Tb 0.48672 0.48627 0.05358 0.0
C602 C 0.43607 0.52446 1.0062 0.0
C603 C 0.51766 0.59406 0.91637 0.0
C604 C 0.55004 0.62872 0.91075 0.0
C605 C 0.55102 0.61943 0.88034 0.0
C606 C 0.53494 0.60203 0.88321 0.0
C607 C 0.51521 0.60494 0.94606 0.0
C608 C 0.53107 0.6223 0.94325 0.0
C609 C 0.50625 0.57084 0.92182 0.0
O610 O 0.47569 0.56016 0.02086 0.0
O611 O 0.48517 0.52297 0.07173 0.0
O612 O 0.53501 0.47864 0.04049 0.0
O613 O 0.53272 0.52459 1.00604 0.0
O614 O 0.4614 0.4752 0.10427 0.0
O615 O 0.50354 0.44192 0.0823 0.0
O616 O 0.48915 0.46794 1.00992 0.0
O617 O 0.51838 0.48951 0.96505 0.0
O618 O 0.45644 0.52923 0.97834 0.0
O619 O 0.4419 0.51291 0.03884 0.0
C620 C 0.47743 0.55124 0.05527 0.0
O621 O 0.52615 0.54352 0.93005 0.0
O622 O 0.47955 0.57501 0.9427 0.0
C623 C 0.54661 0.49916 0.02669 0.0
C624 C 0.46234 0.42802 0.10762 0.0
C625 C 0.437 0.38994 0.10341 0.0
C626 C 0.45153 0.38316 0.1322 0.0
C627 C 0.46445 0.40204 0.13411 0.0
C628 C 0.447 0.43514 0.07961 0.0
C629 C 0.43457 0.41625 0.0774 0.0
C630 C 0.47836 0.44657 0.1062 0.0
C631 C 0.50744 0.46854 0.97871 0.0
H632 H 0.56566 0.62397 0.85506 0.0
H633 H 0.53733 0.59346 0.86016 0.0
H634 H 0.50236 0.5986 0.97194 0.0
H635 H 0.52967 0.62949 0.96697 0.0
H636 H 0.45357 0.36296 0.15259 0.0
H637 H 0.4765 0.3961 0.1557 0.0
H638 H 0.44518 0.45508 0.05893 0.0
H639 H 0.42303 0.42225 0.0553 0.0
H640 H 0.98918 0.03882 0.11858 0.0
H641 H 0.98512 0.09763 1.01421 0.0
H642 H 0.98073 0.13791 0.03988 0.0
H643 H 0.97717 0.15655 0.09279 0.0
H644 H 0.98194 0.09634 0.19615 0.0
H645 H 0.98719 0.05638 0.16988 0.0
C646 C 0.9872 0.06045 0.10127 0.0
C647 C 0.98718 0.06521 0.06454 0.0
C648 C 0.98497 0.08325 0.11606 0.0
C649 C 0.9849 0.09339 0.04266 0.0
C650 C 0.98253 0.1164 0.0573 0.0
C651 C 0.97971 0.13456 0.10935 0.0
C652 C 0.97893 0.12945 0.14641 0.0
C653 C 0.98251 0.11158 0.09404 0.0
C654 C 0.98206 0.10092 0.16767 0.0
C655 C 0.98509 0.07806 0.15268 0.0
H656 H 0.84262 0.26846 0.46599 0.0
H657 H 0.82545 0.21045 0.42257 0.0
H658 H 0.87016 0.20722 0.37496 0.0
H659 H 0.9131 0.22249 0.34344 0.0
H660 H 0.92967 0.28192 0.38509 0.0
H661 H 0.88673 0.28285 0.43497 0.0
C662 C 0.84891 0.25476 0.44643 0.0
C663 C 0.83049 0.23963 0.44824 0.0
C664 C 0.87461 0.25341 0.41832 0.0
C665 C 0.83896 0.2224 0.4221 0.0
C666 C 0.86462 0.22055 0.39467 0.0
C667 C 0.90754 0.23552 0.36351 0.0
C668 C 0.92492 0.25209 0.36015 0.0
C669 C 0.88244 0.23625 0.39215 0.0
C670 C 0.91692 0.26892 0.38661 0.0
C671 C 0.89224 0.26948 0.41532 0.0
H672 H 0.76098 0.09731 0.70595 0.0
H673 H 0.73969 0.05726 0.64128 0.0
H674 H 0.73939 0.0993 0.59075 0.0
H675 H 0.74397 0.14886 0.56465 0.0
H676 H 0.76629 0.1874 0.63035 0.0
H677 H 0.7674 0.14506 0.67966 0.0
C678 C 0.75634 0.0976 0.68083 0.0
C679 C 0.75032 0.07378 0.67794 0.0
C680 C 0.75635 0.12193 0.65154 0.0
C681 C 0.74451 0.07495 0.64473 0.0
C682 C 0.74427 0.09918 0.61562 0.0
C683 C 0.74933 0.14793 0.58961 0.0
C684 C 0.75496 0.17186 0.59316 0.0
C685 C 0.75004 0.123 0.61862 0.0
C686 C 0.76173 0.1698 0.62618 0.0
C687 C 0.76238 0.1454 0.65477 0.0
H688 H 0.96118 0.97575 0.95058 0.0
H689 H 0.89578 0.04125 1.01408 0.0
H690 H 0.85451 0.04564 0.98815 0.0
H691 H 0.83832 0.03348 0.94383 0.0
H692 H 0.904 0.96549 0.88336 0.0
H693 H 0.94409 0.95942 0.91183 0.0
C694 C 0.93785 0.99099 0.95872 0.0
C695 C 0.93141 0.00873 0.98342 0.0
C696 C 0.91448 0.99298 0.94419 0.0
C697 C 0.90112 0.02768 0.99473 0.0
C698 C 0.87765 0.03017 0.9799 0.0
C699 C 0.86123 0.01689 0.93737 0.0
C700 C 0.8682 1.00037 0.91093 0.0
C701 C 0.88419 0.01328 0.95413 0.0
C702 C 0.89814 0.97909 0.90285 0.0
C703 C 0.92107 0.97549 0.91923 0.0
H704 H 0.08414 0.01483 0.03717 0.0
H705 H 0.08386 0.9284 0.09682 0.0
H706 H 0.12225 0.9221 0.12851 0.0
H707 H 0.15421 0.9421 0.14095 0.0
H708 H 0.15325 0.02911 0.08255 0.0
H709 H 0.11663 0.03439 0.04883 0.0
C710 C 0.09269 0.99441 0.0568 0.0
C711 C 0.08123 0.97202 0.0645 0.0
C712 C 0.11427 0.99122 0.07536 0.0
C713 C 0.09231 0.94595 0.09037 0.0
C714 C 0.11421 0.94237 0.10854 0.0
C715 C 0.14624 0.96206 0.12054 0.0
C716 C 0.15647 0.98516 0.11415 0.0
C717 C 0.1251 0.96499 0.10149 0.0
C718 C 0.14552 0.01115 0.08813 0.0
C719 C 0.12472 0.0141 0.06876 0.0
H720 H 0.00817 0.46301 0.4283 0.0
H721 H 0.9873 0.41244 0.53406 0.0
H722 H 0.99152 0.37291 0.5071 0.0
H723 H 0.00138 0.35283 0.45281 0.0
H724 H 0.02129 0.40512 0.348 0.0
H725 H 0.01691 0.44404 0.37541 0.0
C726 C 0.00456 0.44337 0.44569 0.0
C727 C -0.00244 0.44071 0.48322 0.0
C728 C 0.00671 0.42108 0.4301 0.0
C729 C 0.99299 0.415 0.50509 0.0
C730 C -0.00477 0.39246 0.48967 0.0
C731 C 0.00446 0.3729 0.4361 0.0
C732 C 0.01187 0.376 0.39843 0.0
C733 C 0.00202 0.39531 0.45212 0.0
C734 C 0.016 0.40202 0.37704 0.0
C735 C 0.01344 0.42431 0.39267 0.0
H736 H 0.64789 0.23913 0.57556 0.0
H737 H 0.66415 0.30207 0.61112 0.0
H738 H 0.62041 0.30572 0.66032 0.0
H739 H 0.57799 0.29001 0.69498 0.0
H740 H 0.56147 0.22752 0.65885 0.0
H741 H 0.60435 0.22492 0.6088 0.0
C742 C 0.64177 0.25387 0.59384 0.0
C743 C 0.65961 0.2703 0.58923 0.0
C744 C 0.61637 0.2559 0.62243 0.0
C745 C 0.65107 0.28915 0.61357 0.0
C746 C 0.62597 0.29122 0.64197 0.0
C747 C 0.58364 0.2759 0.67612 0.0
C748 C 0.56621 0.25899 0.68111 0.0
C749 C 0.60853 0.27453 0.64694 0.0
C750 C 0.57415 0.24091 0.65604 0.0
C751 C 0.59885 0.23934 0.62723 0.0
H752 H 0.71771 0.91602 0.83192 0.0
H753 H 0.76262 0.94099 0.88726 0.0
H754 H 0.76415 0.89757 0.93592 0.0
H755 H 0.75422 0.85096 0.96269 0.0
H756 H 0.71152 0.82501 0.90557 0.0
H757 H 0.70764 0.8698 0.85861 0.0
C758 C 0.72765 0.91217 0.85471 0.0
C759 C 0.73992 0.93222 0.85553 0.0
C760 C 0.72895 0.88661 0.88268 0.0
C761 C 0.75296 0.92626 0.88545 0.0
C762 C 0.75386 0.90127 0.91351 0.0
C763 C 0.74377 0.85523 0.94018 0.0
C764 C 0.73306 0.83432 0.93816 0.0
C765 C 0.7421 0.88108 0.91245 0.0
C766 C 0.72003 0.84037 0.90821 0.0
C767 C 0.71778 0.86614 0.88113 0.0
H768 H 0.14287 0.24685 0.06902 0.0
H769 H 0.17155 0.28939 0.12271 0.0
H770 H 0.12809 0.29139 0.17181 0.0
H771 H 0.08253 0.27992 0.20102 0.0
H772 H 0.05241 0.23874 0.14729 0.0
H773 H 0.0954 0.23755 0.09718 0.0
C774 C 0.13955 0.25676 0.09132 0.0
C775 C 0.16084 0.26794 0.09179 0.0
C776 C 0.11411 0.25803 0.1198 0.0
C777 C 0.1558 0.28067 0.12116 0.0
C778 C 0.13086 0.28176 0.14951 0.0
C779 C 0.08521 0.27073 0.17834 0.0
C780 C 0.06402 0.25933 0.17833 0.0
C781 C 0.10997 0.27032 0.14933 0.0
C782 C 0.06808 0.24778 0.14831 0.0
C783 C 0.09282 0.247 0.11955 0.0
H784 H 0.71152 0.41977 0.33792 0.0
H785 H 0.77107 0.43791 0.37932 0.0
H786 H 0.77449 0.39453 0.4284 0.0
H787 H 0.76162 0.35019 0.45966 0.0
H788 H 0.70181 0.33229 0.41838 0.0
H789 H 0.69758 0.37626 0.37006 0.0
C790 C 0.72516 0.4144 0.35772 0.0
C791 C 0.74097 0.43255 0.35444 0.0
C792 C 0.72709 0.38911 0.38631 0.0
C793 C 0.75851 0.42477 0.38072 0.0
C794 C 0.76056 0.39975 0.409 0.0
C795 C 0.74748 0.35593 0.44028 0.0
C796 C 0.73204 0.33752 0.4432 0.0
C797 C 0.74508 0.38158 0.4121 0.0
C798 C 0.71398 0.3457 0.41736 0.0
C799 C 0.71155 0.371 0.38944 0.0
H800 H 0.5677 0.03252 0.52874 0.0
H801 H 0.57817 0.94081 0.57471 0.0
H802 H 0.62098 0.93218 0.60058 0.0
H803 H 0.65045 0.95249 0.61649 0.0
H804 H 0.63736 0.04543 0.57562 0.0
H805 H 0.60031 0.05209 0.54139 0.0
C806 C 0.58007 0.01048 0.54353 0.0
C807 C 0.5704 0.98712 0.54957 0.0
C808 C 0.60364 0.00617 0.55974 0.0
C809 C 0.5857 0.95887 0.56959 0.0
C810 C 0.60993 0.95404 0.58453 0.0
C811 C 0.64009 0.97402 0.59938 0.0
C812 C 0.64665 0.99841 0.59845 0.0
C813 C 0.61841 0.97778 0.58072 0.0
C814 C 0.63248 0.02638 0.57687 0.0
C815 C 0.61139 0.03016 0.5573 0.0
H816 H 0.98554 0.91735 1.00011 0.0
H817 H 0.07539 0.91651 0.94969 0.0
H818 H 0.08366 0.8802 0.91517 0.0
H819 H 0.06459 0.85035 0.89762 0.0
H820 H 0.97439 0.85197 0.94711 0.0
H821 H 0.96683 0.88682 0.98334 0.0
C822 C 0.00712 0.90894 0.98193 0.0
C823 C 0.02992 0.91947 0.97764 0.0
C824 C 0.01148 0.88855 0.9617 0.0
C825 C 0.05751 0.90872 0.95352 0.0
C826 C 0.06222 0.88802 0.93372 0.0
C827 C 0.04343 0.85802 0.91667 0.0
C828 C 0.02013 0.8485 0.91974 0.0
C829 C 0.03925 0.87801 0.93736 0.0
C830 C 0.99258 0.85916 0.944 0.0
C831 C 0.98831 0.87894 0.96487 0.0
H832 H 0.11986 0.08558 0.95771 0.0
H833 H 0.08585 0.14538 0.86268 0.0
H834 H 0.11118 0.17716 0.86239 0.0
H835 H 0.14045 0.1891 0.89137 0.0
H836 H 0.17472 0.1286 0.98617 0.0
H837 H 0.15099 0.09617 0.98493 0.0
C838 C 0.11796 0.10564 0.93699 0.0
C839 C 0.10083 0.11346 0.9105 0.0
C840 C 0.13225 0.12373 0.93724 0.0
C841 C 0.09902 0.13902 0.88329 0.0
C842 C 0.11331 0.15721 0.88327 0.0
C843 C 0.14309 0.16861 0.91146 0.0
C844 C 0.15914 0.16135 0.93895 0.0
C845 C 0.12966 0.14994 0.91039 0.0
C846 C 0.16201 0.13495 0.9651 0.0
C847 C 0.14866 0.11629 0.96428 0.0
H848 H 0.65917 0.58435 0.31326 0.0
H849 H 0.64184 0.56142 0.22798 0.0
H850 H 0.59491 0.60703 0.22525 0.0
H851 H 0.56035 0.65541 0.24453 0.0
H852 H 0.58004 0.67869 0.32773 0.0
H853 H 0.62414 0.6311 0.33386 0.0
C854 C 0.64499 0.58903 0.29435 0.0
C855 C 0.65417 0.56929 0.27092 0.0
C856 C 0.61838 0.61563 0.29237 0.0
C857 C 0.63546 0.57609 0.2464 0.0
C858 C 0.60859 0.60227 0.24475 0.0
C859 C 0.57407 0.64986 0.26431 0.0
C860 C 0.56682 0.67075 0.28558 0.0
C861 C 0.60003 0.6225 0.26724 0.0
C862 C 0.58511 0.66324 0.31082 0.0
C863 C 0.6104 0.63596 0.31439 0.0
H864 H 0.3485 0.8191 0.64668 0.0
H865 H 0.31814 0.88488 0.5528 0.0
H866 H 0.34573 0.91267 0.55743 0.0
H867 H 0.37942 0.91736 0.58713 0.0
H868 H 0.40995 0.85185 0.68093 0.0
H869 H 0.38032 0.82516 0.67815 0.0
C870 C 0.34755 0.83976 0.62755 0.0
C871 C 0.33144 0.84991 0.59936 0.0
C872 C 0.36329 0.85561 0.63049 0.0
C873 C 0.33078 0.87643 0.57441 0.0
C874 C 0.34636 0.89239 0.57717 0.0
C875 C 0.37959 0.89719 0.60691 0.0
C876 C 0.39701 0.88623 0.63392 0.0
C877 C 0.3629 0.88198 0.60487 0.0
C878 C 0.39661 0.86057 0.65994 0.0
C879 C 0.37987 0.84529 0.65821 0.0
H880 H 0.07686 0.66648 0.81759 0.0
H881 H 0.05457 0.66169 0.72313 0.0
H882 H 0.09837 0.61409 0.71945 0.0
H883 H 0.14476 0.57497 0.74082 0.0
H884 H 0.16743 0.57957 0.83508 0.0
H885 H 0.12182 0.62569 0.84103 0.0
C886 C 0.08137 0.65492 0.79638 0.0
C887 C 0.06232 0.66795 0.77062 0.0
C888 C 0.10687 0.62741 0.79422 0.0
C889 C 0.06871 0.65245 0.74336 0.0
C890 C 0.09388 0.62513 0.74114 0.0
C891 C 0.13964 0.58586 0.76289 0.0
C892 C 0.15974 0.57369 0.78736 0.0
C893 C 0.11338 0.61258 0.7661 0.0
C894 C 0.15252 0.58827 0.81578 0.0
C895 C 0.12641 0.61478 0.81919 0.0
H896 H 0.81528 0.34614 0.65183 0.0
H897 H 0.88308 0.31447 0.56038 0.0
H898 H 0.91181 0.34111 0.5652 0.0
H899 H 0.91549 0.37606 0.59272 0.0
H900 H 0.84645 0.40961 0.68238 0.0
H901 H 0.82096 0.37829 0.68205 0.0
C902 C 0.83667 0.34458 0.63341 0.0
C903 C 0.84703 0.32856 0.60568 0.0
C904 C 0.85283 0.36008 0.63617 0.0
C905 C 0.8745 0.32706 0.58163 0.0
C906 C 0.89096 0.34212 0.58447 0.0
C907 C 0.8949 0.37642 0.61226 0.0
C908 C 0.88254 0.39537 0.63719 0.0
C909 C 0.87997 0.35917 0.61117 0.0
C910 C 0.85637 0.39512 0.66298 0.0
C911 C 0.84167 0.37746 0.66258 0.0
H912 H 0.33854 0.93078 0.22209 0.0
H913 H 0.34133 0.94449 0.32282 0.0
H914 H 0.38836 0.89946 0.32717 0.0
H915 H 0.42739 0.85449 0.30416 0.0
H916 H 0.42415 0.84058 0.20376 0.0
H917 H 0.37892 0.88722 0.19764 0.0
C918 C 0.34955 0.92416 0.24484 0.0
C919 C 0.33616 0.94117 0.27209 0.0
C920 C 0.37658 0.89796 0.24742 0.0
C921 C 0.35092 0.93199 0.30138 0.0
C922 C 0.37788 0.90611 0.30398 0.0
C923 C 0.417 0.86174 0.28076 0.0
C924 C 0.42931 0.84378 0.25455 0.0
C925 C 0.39071 0.88865 0.27743 0.0
C926 C 0.41532 0.85373 0.22446 0.0
C927 C 0.38934 0.88048 0.22091 0.0
H928 H 0.3507 0.43964 0.79099 0.0
H929 H 0.32357 0.4288 0.70415 0.0
H930 H 0.3698 0.38349 0.69752 0.0
H931 H 0.41586 0.34446 0.71941 0.0
H932 H 0.44262 0.35395 0.80751 0.0
H933 H 0.39906 0.40199 0.81032 0.0
C934 C 0.35521 0.42765 0.77021 0.0
C935 C 0.33353 0.43764 0.74824 0.0
C936 C 0.38175 0.40105 0.76692 0.0
C937 C 0.33967 0.42158 0.72166 0.0
C938 C 0.36615 0.39558 0.71783 0.0
C939 C 0.41246 0.35717 0.73894 0.0
C940 C 0.43254 0.34532 0.76331 0.0
C941 C 0.38703 0.38469 0.74081 0.0
C942 C 0.42754 0.36227 0.78847 0.0
C943 C 0.40254 0.38984 0.79016 0.0
H944 H 0.14049 0.75323 0.56196 0.0
H945 H 0.1769 0.78248 0.62337 0.0
H946 H 0.13376 0.78468 0.67215 0.0
H947 H 0.08651 0.77668 0.69958 0.0
H948 H 0.04769 0.74916 0.63951 0.0
H949 H 0.09031 0.74818 0.58874 0.0
C950 C 0.13884 0.76038 0.58583 0.0
C951 C 0.16251 0.76745 0.5885 0.0
C952 C 0.11337 0.76183 0.61452 0.0
C953 C 0.15956 0.77665 0.62001 0.0
C954 C 0.13471 0.77794 0.64828 0.0
C955 C 0.08719 0.77056 0.67537 0.0
C956 C 0.06376 0.76287 0.67374 0.0
C957 C 0.11167 0.77026 0.64613 0.0
C958 C 0.06519 0.7553 0.64176 0.0
C959 C 0.08973 0.75463 0.61263 0.0
H960 H 0.23386 0.91174 0.32935 0.0
H961 H 0.24277 0.95516 0.40094 0.0
H962 H 0.24273 0.91248 0.45027 0.0
H963 H 0.24138 0.86151 0.47354 0.0
H964 H 0.23078 0.81952 0.40146 0.0
H965 H 0.23019 0.86238 0.35298 0.0
C966 C 0.23568 0.91203 0.35574 0.0
C967 C 0.23834 0.93703 0.36093 0.0
C968 C 0.23536 0.8873 0.38442 0.0
C969 C 0.24054 0.93659 0.3957 0.0
C970 C 0.24061 0.91199 0.42414 0.0
C971 C 0.23872 0.86176 0.44734 0.0
C972 C 0.23614 0.83677 0.44179 0.0
C973 C 0.23817 0.88702 0.41892 0.0
C974 C 0.23276 0.83801 0.40723 0.0
C975 C 0.23248 0.86269 0.37911 0.0
H976 H 0.92655 0.66265 0.63631 0.0
H977 H 0.01436 0.6641 0.57931 0.0
H978 H 0.02163 0.62695 0.54655 0.0
H979 H 0.0039 0.59264 0.5362 0.0
H980 H 0.91632 0.59081 0.59427 0.0
H981 H 0.90785 0.6301 0.62407 0.0
C982 C 0.94704 0.65527 0.61624 0.0
C983 C 0.96985 0.66617 0.61016 0.0
C984 C 0.95111 0.63385 0.59777 0.0
C985 C -0.00342 0.65587 0.58465 0.0
C986 C 0.00069 0.63472 0.56586 0.0
C987 C 0.9828 0.60102 0.5551 0.0
C988 C 0.9608 0.58872 0.56306 0.0
C989 C 0.97825 0.62332 0.57252 0.0
C990 C 0.93368 0.59978 0.58774 0.0
C991 C 0.92882 0.62223 0.60483 0.0
H992 H 0.35011 0.7613 0.46744 0.0
H993 H 0.32059 0.72076 0.41211 0.0
H994 H 0.36373 0.7196 0.36262 0.0
H995 H 0.40954 0.73128 0.3336 0.0
H996 H 0.44045 0.76959 0.3902 0.0
H997 H 0.39757 0.77031 0.43998 0.0
C998 C 0.35318 0.75201 0.4447 0.0
C999 C 0.33182 0.74113 0.44387 0.0
C1000 C 0.37847 0.75107 0.41616 0.0
C1001 C 0.33652 0.72914 0.41395 0.0
C1002 C 0.36124 0.72858 0.38537 0.0
C1003 C 0.40699 0.7397 0.35685 0.0
C1004 C 0.42845 0.75042 0.35778 0.0
C1005 C 0.38231 0.73967 0.38596 0.0
C1006 C 0.42462 0.76102 0.3885 0.0
C1007 C 0.39992 0.76155 0.4171 0.0
H1008 H 0.24127 0.07489 0.14998 0.0
H1009 H 0.2755 0.09307 0.22465 0.0
H1010 H 0.27792 0.13844 0.18276 0.0
H1011 H 0.26944 0.17438 0.12529 0.0
H1012 H 0.2368 0.15628 0.04912 0.0
H1013 H 0.23491 0.11016 0.09062 0.0
C1014 C 0.2494 0.08866 0.15708 0.0
C1015 C 0.25816 0.08004 0.19095 0.0
C1016 C 0.25108 0.11513 0.13234 0.0
C1017 C 0.26866 0.09856 0.19911 0.0
C1018 C 0.27002 0.12481 0.17503 0.0
C1019 C 0.26207 0.16034 0.11752 0.0
C1020 C 0.25332 0.16924 0.08368 0.0
C1021 C 0.26118 0.13349 0.1416 0.0
C1022 C 0.2439 0.15031 0.0746 0.0
C1023 C 0.24268 0.1238 0.09854 0.0
H1024 H 0.84159 0.76991 0.95843 0.0
H1025 H 0.83197 0.70312 0.92228 0.0
H1026 H 0.87685 0.70013 0.87515 0.0
H1027 H 0.91822 0.71752 0.84219 0.0
H1028 H 0.92863 0.78378 0.87837 0.0
H1029 H 0.88463 0.7857 0.92694 0.0
C1030 C 0.84943 0.75449 0.94049 0.0
C1031 C 0.83304 0.7368 0.94429 0.0
C1032 C 0.87558 0.7528 0.91303 0.0
C1033 C 0.84381 0.71706 0.92042 0.0
C1034 C 0.8696 0.71534 0.8932 0.0
C1035 C 0.91104 0.7323 0.86076 0.0
C1036 C 0.92701 0.7505 0.85623 0.0
C1037 C 0.88556 0.73329 0.88894 0.0
C1038 C 0.91709 0.7694 0.88091 0.0
C1039 C 0.89174 0.77059 0.90881 0.0
H1040 H 0.27189 0.59326 0.70214 0.0
H1041 H 0.23034 0.56407 0.64735 0.0
H1042 H 0.22899 0.60654 0.59727 0.0
H1043 H 0.23841 0.65325 0.56893 0.0
H1044 H 0.28178 0.68108 0.62303 0.0
H1045 H 0.2836 0.63834 0.67259 0.0
C1046 C 0.26261 0.59603 0.67923 0.0
C1047 C 0.25118 0.57511 0.67903 0.0
C1048 C 0.26218 0.62058 0.64998 0.0
C1049 C 0.23946 0.57941 0.64865 0.0
C1050 C 0.23858 0.60391 0.61983 0.0
C1051 C 0.24847 0.64993 0.59141 0.0
C1052 C 0.25995 0.6708 0.59174 0.0
C1053 C 0.24973 0.62481 0.62016 0.0
C1054 C 0.27286 0.66568 0.62146 0.0
C1055 C 0.27383 0.64112 0.65011 0.0
H1056 H 0.32315 0.06742 0.43444 0.0
H1057 H 0.33294 0.97556 0.47856 0.0
H1058 H 0.37086 0.96826 0.51175 0.0
H1059 H 0.40426 0.98685 0.52362 0.0
H1060 H 0.3953 0.07839 0.47739 0.0
H1061 H 0.35336 0.08714 0.45018 0.0
C1062 C 0.33299 0.04601 0.45202 0.0
C1063 C 0.32528 0.02206 0.45407 0.0
C1064 C 0.355 0.04189 0.47043 0.0
C1065 C 0.33873 0.99425 0.47634 0.0
C1066 C 0.36035 0.9901 0.49531 0.0
C1067 C 0.39284 0.00887 0.50805 0.0
C1068 C 0.40307 0.03188 0.50229 0.0
C1069 C 0.36917 0.01358 0.49185 0.0
C1070 C 0.38804 0.06024 0.48202 0.0
C1071 C 0.36409 0.06526 0.4664 0.0
H1072 H 0.81293 0.85195 0.14095 0.0
H1073 H 0.86101 0.84131 0.03291 0.0
H1074 H 0.89138 0.86728 0.03473 0.0
H1075 H 0.90535 0.89146 0.06754 0.0
H1076 H 0.85818 0.90153 0.1759 0.0
H1077 H 0.82697 0.87629 0.17388 0.0
C1078 C 0.83021 0.85512 0.11789 0.0
C1079 C 0.83469 0.84471 0.08684 0.0
C1080 C 0.84791 0.86963 0.11933 0.0
C1081 C 0.85679 0.84947 0.05695 0.0
C1082 C 0.87434 0.86408 0.05807 0.0
C1083 C 0.888 0.88843 0.0906 0.0
C1084 C 0.88389 0.89848 0.12175 0.0
C1085 C 0.87017 0.87411 0.08915 0.0
C1086 C 0.86185 0.89379 0.15171 0.0
C1087 C 0.84392 0.87955 0.15048 0.0
H1088 H 0.6304 0.19654 0.39987 0.0
H1089 H 0.68578 0.11831 0.46694 0.0
H1090 H 0.65856 0.08982 0.46306 0.0
H1091 H 0.61776 0.088 0.44282 0.0
H1092 H 0.56068 0.16696 0.37819 0.0
H1093 H 0.59092 0.19403 0.37744 0.0
C1094 C 0.6368 0.17312 0.41318 0.0
C1095 C 0.65993 0.15951 0.43376 0.0
C1096 C 0.62101 0.15702 0.41097 0.0
C1097 C 0.66774 0.12932 0.45134 0.0
C1098 C 0.65235 0.11301 0.44895 0.0
C1099 C 0.61192 0.11116 0.42857 0.0
C1100 C 0.58684 0.12558 0.41092 0.0
C1101 C 0.62871 0.12679 0.42924 0.0
C1102 C 0.58 0.15531 0.39179 0.0
C1103 C 0.59708 0.17087 0.39167 0.0
H1104 H 0.82877 0.41974 0.21943 0.0
H1105 H 0.84751 0.45552 0.29135 0.0
H1106 H 0.8967 0.41246 0.29449 0.0
H1107 H 0.93245 0.36203 0.28075 0.0
H1108 H 0.91176 0.32727 0.20927 0.0
H1109 H 0.8656 0.37243 0.20204 0.0
C1110 C 0.84366 0.41836 0.23559 0.0
C1111 C 0.8342 0.44081 0.25536 0.0
C1112 C 0.87166 0.39347 0.23756 0.0
C1113 C 0.85412 0.43866 0.27578 0.0
C1114 C 0.88223 0.4139 0.27774 0.0
C1115 C 0.91809 0.36459 0.26314 0.0
C1116 C 0.92558 0.34098 0.24589 0.0
C1117 C 0.89101 0.39078 0.25931 0.0
C1118 C 0.90654 0.34476 0.22328 0.0
C1119 C 0.88003 0.37066 0.21906 0.0
H1120 H 0.13428 0.57195 0.45306 0.0
H1121 H 0.08853 0.64065 0.36989 0.0
H1122 H 0.11519 0.67096 0.36956 0.0
H1123 H 0.14801 0.67974 0.39637 0.0
H1124 H 0.19218 0.6121 0.48122 0.0
H1125 H 0.16861 0.57993 0.47838 0.0
C1126 C 0.13015 0.59356 0.43486 0.0
C1127 C 0.10934 0.60412 0.4117 0.0
C1128 C 0.14477 0.61125 0.4356 0.0
C1129 C 0.1047 0.63185 0.38771 0.0
C1130 C 0.11966 0.64935 0.38778 0.0
C1131 C 0.15279 0.65778 0.4139 0.0
C1132 C 0.17168 0.64829 0.43903 0.0
C1133 C 0.13924 0.63951 0.4121 0.0
C1134 C 0.17735 0.62001 0.462 0.0
C1135 C 0.16408 0.60157 0.46021 0.0
H1136 H 0.63824 0.07168 0.74961 0.0
H1137 H 0.67319 0.08275 0.8295 0.0
H1138 H 0.62872 0.12919 0.83688 0.0
H1139 H 0.58143 0.16851 0.81833 0.0
H1140 H 0.54505 0.15774 0.7398 0.0
H1141 H 0.58815 0.10943 0.73463 0.0
C1142 C 0.636 0.0841 0.76887 0.0
C1143 C 0.65934 0.07361 0.78876 0.0
C1144 C 0.61004 0.111 0.77325 0.0
C1145 C 0.65578 0.09005 0.81375 0.0
C1146 C 0.63031 0.11678 0.81798 0.0
C1147 C 0.58273 0.15549 0.80032 0.0
C1148 C 0.56004 0.1669 0.77938 0.0
C1149 C 0.60754 0.12772 0.79752 0.0
C1150 C 0.56204 0.1495 0.75642 0.0
C1151 C 0.58683 0.12192 0.75327 0.0
H1152 H 0.76492 0.5929 0.19895 0.0
H1153 H 0.73362 0.5579 0.13875 0.0
H1154 H 0.73301 0.60012 0.08826 0.0
H1155 H 0.74019 0.64827 0.06121 0.0
H1156 H 0.77376 0.68132 0.1213 0.0
H1157 H 0.77464 0.639 0.17105 0.0
C1158 C 0.75804 0.59434 0.17478 0.0
C1159 C 0.74923 0.57195 0.1731 0.0
C1160 C 0.7581 0.61863 0.14546 0.0
C1161 C 0.74066 0.57447 0.14113 0.0
C1162 C 0.7402 0.5988 0.11213 0.0
C1163 C 0.74788 0.64617 0.08507 0.0
C1164 C 0.75691 0.66838 0.08703 0.0
C1165 C 0.74872 0.62121 0.11395 0.0
C1166 C 0.76682 0.66485 0.11847 0.0
C1167 C 0.76724 0.64054 0.14723 0.0
H1168 H 0.88888 0.51033 0.5144 0.0
H1169 H 0.92048 0.57373 0.43228 0.0
H1170 H 0.88503 0.58071 0.39604 0.0
H1171 H 0.84781 0.56608 0.38581 0.0
H1172 H 0.81688 0.50219 0.46736 0.0
H1173 H 0.84937 0.49818 0.50589 0.0
C1174 C 0.88784 0.52594 0.48875 0.0
C1175 C 0.90753 0.54127 0.47594 0.0
C1176 C 0.86775 0.52954 0.46785 0.0
C1177 C 0.90565 0.56158 0.44277 0.0
C1178 C 0.8855 0.56548 0.42193 0.0
C1179 C 0.84826 0.55127 0.41202 0.0
C1180 C 0.83036 0.53417 0.42367 0.0
C1181 C 0.86697 0.54907 0.43386 0.0
C1182 C 0.83052 0.51555 0.45793 0.0
C1183 C 0.84912 0.5132 0.47986 0.0
H1184 H 0.11536 0.46812 0.6582 0.0
H1185 H 0.1587 0.51461 0.56483 0.0
H1186 H 0.12467 0.51717 0.52895 0.0
H1187 H 0.07994 0.50909 0.52588 0.0
H1188 H 0.03694 0.4632 0.62072 0.0
H1189 H 0.07378 0.45708 0.65423 0.0
C1190 C 0.11729 0.47886 0.62999 0.0
C1191 C 0.13897 0.49165 0.61423 0.0
C1192 C 0.09785 0.48015 0.60982 0.0
C1193 C 0.14192 0.50481 0.57749 0.0
C1194 C 0.12251 0.50626 0.55706 0.0
C1195 C 0.07911 0.49724 0.55364 0.0
C1196 C 0.05571 0.48673 0.5709 0.0
C1197 C 0.10007 0.49434 0.5731 0.0
C1198 C 0.05465 0.47165 0.60697 0.0
C1199 C 0.07562 0.46821 0.62619 0.0
H1200 H 0.56641 0.74552 0.1472 0.0
H1201 H 0.58156 0.78898 0.2137 0.0
H1202 H 0.62672 0.79188 0.17035 0.0
H1203 H 0.66332 0.7811 0.11422 0.0
H1204 H 0.64817 0.73919 0.04602 0.0
H1205 H 0.60208 0.73701 0.08878 0.0
C1206 C 0.5795 0.75573 0.15216 0.0
C1207 C 0.57022 0.76695 0.18408 0.0
C1208 C 0.60572 0.75771 0.1266 0.0
C1209 C 0.5877 0.7802 0.18961 0.0
C1210 C 0.61377 0.78185 0.16473 0.0
C1211 C 0.64988 0.77167 0.10845 0.0
C1212 C 0.65954 0.76036 0.07662 0.0
C1213 C 0.62316 0.77057 0.1332 0.0
C1214 C 0.64148 0.74831 0.06997 0.0
C1215 C 0.61505 0.74689 0.09463 0.0
H1216 H 0.6488 0.50954 0.07828 0.0
H1217 H 0.65531 0.42168 0.1401 0.0
H1218 H 0.61833 0.42298 0.11022 0.0
H1219 H 0.58106 0.45072 0.07036 0.0
H1220 H 0.57363 0.53913 1.00925 0.0
H1221 H 0.6141 0.53583 0.03484 0.0
C1222 C 0.64217 0.49067 0.08504 0.0
C1223 C 0.65467 0.46563 0.11142 0.0
C1224 C 0.62066 0.49166 0.068 0.0
C1225 C 0.64624 0.44112 0.11962 0.0
C1226 C 0.62494 0.44191 0.10272 0.0
C1227 C 0.58853 0.46913 0.06225 0.0
C1228 C 0.57407 0.49521 0.03818 0.0
C1229 C 0.6116 0.46728 0.07736 0.0
C1230 C 0.58423 0.51877 0.02784 0.0
C1231 C 0.60732 0.517 0.04257 0.0
H1232 H 0.39808 0.36815 0.1543 0.0
H1233 H 0.44625 0.36813 0.04465 0.0
H1234 H 0.41994 0.34062 0.03626 0.0
H1235 H 0.38093 0.31947 0.05898 0.0
H1236 H 0.33071 0.32183 0.16775 0.0
H1237 H 0.36048 0.34498 0.17786 0.0
C1238 C 0.40314 0.3616 0.12884 0.0
C1239 C 0.42391 0.37012 0.10011 0.0
C1240 C 0.38745 0.34637 0.124 0.0
C1241 C 0.43013 0.3619 0.06704 0.0
C1242 C 0.41509 0.34624 0.06222 0.0
C1243 C 0.37645 0.32514 0.08485 0.0
C1244 C 0.35356 0.31907 0.11247 0.0
C1245 C 0.39324 0.33894 0.09029 0.0
C1246 C 0.34841 0.326 0.1461 0.0
C1247 C 0.36529 0.33941 0.15187 0.0
H1248 H 0.06101 0.15181 0.25054 0.0
H1249 H 0.07581 0.18234 0.3312 0.0
H1250 H 0.12253 0.13748 0.33778 0.0
H1251 H 0.16096 0.09126 0.31825 0.0
H1252 H 0.14687 0.05969 0.23822 0.0
H1253 H 0.09802 0.10303 0.23416 0.0
C1254 C 0.07428 0.14855 0.26981 0.0
C1255 C 0.06481 0.17072 0.29016 0.0
C1256 C 0.10137 0.12251 0.27354 0.0
C1257 C 0.08236 0.16586 0.31511 0.0
C1258 C 0.10922 0.14017 0.31886 0.0
C1259 C 0.14714 0.09367 0.30006 0.0
C1260 C 0.15776 0.0723 0.27836 0.0
C1261 C 0.1192 0.11862 0.29783 0.0
C1262 C 0.13928 0.07569 0.25531 0.0
C1263 C 0.1114 0.1006 0.25284 0.0
H1264 H 0.2668 0.34769 0.96047 0.0
H1265 H 0.19457 0.34065 0.92958 0.0
H1266 H 0.19094 0.38465 0.88164 0.0
H1267 H 0.20885 0.42511 0.84654 0.0
H1268 H 0.28064 0.43271 0.87764 0.0
H1269 H 0.28359 0.3893 0.9265 0.0
C1270 C 0.25005 0.35588 0.94352 0.0
C1271 C 0.23098 0.34041 0.94922 0.0
C1272 C 0.24799 0.3816 0.91544 0.0
C1273 C 0.20962 0.3517 0.9264 0.0
C1274 C 0.20751 0.37704 0.89865 0.0
C1275 C 0.2251 0.41741 0.86402 0.0
C1276 C 0.24447 0.43263 0.85787 0.0
C1277 C 0.2267 0.39214 0.89261 0.0
C1278 C 0.26528 0.42189 0.88126 0.0
C1279 C 0.26707 0.39684 0.90944 0.0
H1280 H 0.35323 0.24915 0.9756 0.0
H1281 H 0.31068 0.23702 0.90434 0.0
H1282 H 0.35374 0.23694 0.85591 0.0
H1283 H 0.4026 0.24201 0.83207 0.0
H1284 H 0.44717 0.25342 0.90135 0.0
H1285 H 0.40471 0.25187 0.95165 0.0
C1286 C 0.35351 0.24618 0.9496 0.0
C1287 C 0.32822 0.24325 0.94407 0.0
C1288 C 0.37882 0.24616 0.92112 0.0
C1289 C 0.32933 0.23954 0.90987 0.0
C1290 C 0.35412 0.23948 0.88185 0.0
C1291 C 0.40324 0.24412 0.85813 0.0
C1292 C 0.42826 0.24802 0.86252 0.0
C1293 C 0.37881 0.24312 0.88695 0.0
C1294 C 0.42842 0.25037 0.89688 0.0
C1295 C 0.404 0.24956 0.92575 0.0
H1296 H 0.42062 0.48039 1.0059 0.0
H1297 H 0.38973 0.57657 0.98669 0.0
H1298 H 0.34853 0.58274 0.95957 0.0
H1299 H 0.3264 0.56066 0.93407 0.0
H1300 H 0.35925 0.46432 0.94957 0.0
H1301 H 0.39487 0.45811 0.98538 0.0
C1302 C 0.40407 0.50261 0.99698 0.0
C1303 C 0.40745 0.52806 0.99885 0.0
C1304 C 0.38142 0.50585 0.98005 0.0
C1305 C 0.3869 0.55682 0.98601 0.0
C1306 C 0.36365 0.56028 0.97023 0.0
C1307 C 0.34077 0.53828 0.94604 0.0
C1308 C 0.34027 0.51298 0.93906 0.0
C1309 C 0.36139 0.53495 0.96602 0.0
C1310 C 0.35951 0.48414 0.95418 0.0
C1311 C 0.37976 0.48058 0.97474 0.0
H1312 H 0.63546 0.69621 0.88865 0.0
H1313 H 0.65982 0.63197 0.98583 0.0
H1314 H 0.62397 0.61134 0.98602 0.0
H1315 H 0.58621 0.61136 0.95851 0.0
H1316 H 0.56197 0.67478 0.86095 0.0
H1317 H 0.59795 0.69568 0.86046 0.0
C1318 C 0.63313 0.67749 0.90964 0.0
C1319 C 0.65017 0.66563 0.93723 0.0
C1320 C 0.61263 0.66566 0.90947 0.0
C1321 C 0.64663 0.64169 0.96457 0.0
C1322 C 0.62629 0.62981 0.96461 0.0
C1323 C 0.58854 0.63002 0.93737 0.0
C1324 C 0.57128 0.64187 0.91006 0.0
C1325 C 0.60913 0.64172 0.93729 0.0
C1326 C 0.57507 0.66542 0.88225 0.0
C1327 C 0.59552 0.67735 0.88204 0.0
H1328 H 0.90951 0.83936 0.72243 0.0
H1329 H 0.94825 0.85854 0.7913 0.0
H1330 H 0.90471 0.90713 0.79354 0.0
H1331 H 0.85306 0.94238 0.77974 0.0
H1332 H 0.81545 0.92097 0.71157 0.0
H1333 H 0.86102 0.87531 0.70527 0.0
C1334 C 0.90866 0.85419 0.73778 0.0
C1335 C 0.93206 0.8451 0.75692 0.0
C1336 C 0.88351 0.88179 0.73925 0.0
C1337 C 0.93062 0.86492 0.77623 0.0
C1338 C 0.9056 0.89268 0.77768 0.0
C1339 C 0.8551 0.92794 0.76308 0.0
C1340 C 0.83059 0.93508 0.74645 0.0
C1341 C 0.88154 0.90114 0.75983 0.0
C1342 C 0.83366 0.91598 0.72506 0.0
C1343 C 0.85978 0.88977 0.72137 0.0
H1344 H 0.43493 0.1456 0.66097 0.0
H1345 H 0.51366 0.16046 0.59122 0.0
H1346 H 0.52193 0.1231 0.55822 0.0
H1347 H 0.50648 0.08673 0.54898 0.0
H1348 H 0.42798 0.07144 0.61916 0.0
H1349 H 0.41974 0.1088 0.65206 0.0
C1350 C 0.45375 0.14082 0.63836 0.0
C1351 C 0.47357 0.15586 0.62841 0.0
C1352 C 0.45834 0.11936 0.61959 0.0
C1353 C 0.49822 0.14902 0.59952 0.0
C1354 C 0.50286 0.1278 0.58056 0.0
C1355 C 0.48745 0.09163 0.57136 0.0
C1356 C 0.46774 0.07643 0.58147 0.0
C1357 C 0.483 0.11291 0.59031 0.0
C1358 C 0.44346 0.08282 0.61081 0.0
C1359 C 0.43873 0.10419 0.62963 0.0
H1360 H 0.53466 0.38736 0.86987 0.0
H1361 H 0.50133 0.33537 0.96687 0.0
H1362 H 0.49475 0.37105 1.00143 0.0
H1363 H 0.49743 0.4173 1.00372 0.0
H1364 H 0.53188 0.46901 0.90713 0.0
H1365 H 0.5392 0.43298 0.87264 0.0
C1366 C 0.52582 0.384 0.89855 0.0
C1367 C 0.51827 0.35897 0.91585 0.0
C1368 C 0.52238 0.40441 0.91823 0.0
C1369 C 0.50734 0.35447 0.95308 0.0
C1370 C 0.5035 0.37487 0.97278 0.0
C1371 C 0.50664 0.42072 0.97512 0.0
C1372 C 0.51399 0.44591 0.95797 0.0
C1373 C 0.51085 0.39994 0.95559 0.0
C1374 C 0.52614 0.44978 0.92099 0.0
C1375 C 0.53019 0.42926 0.90124 0.0
H1376 H 0.53661 0.88316 0.38469 0.0
H1377 H 0.48374 0.84159 0.47181 0.0
H1378 H 0.47528 0.87674 0.50847 0.0
H1379 H 0.48287 0.91971 0.51514 0.0
H1380 H 0.53371 0.96227 0.42617 0.0
H1381 H 0.54354 0.92595 0.39092 0.0
C1382 C 0.52343 0.88165 0.41182 0.0
C1383 C 0.51105 0.8597 0.42571 0.0
C1384 C 0.51853 0.90196 0.4324 0.0
C1385 C 0.49343 0.85839 0.46057 0.0
C1386 C 0.48875 0.87835 0.48154 0.0
C1387 C 0.49642 0.9207 0.48825 0.0
C1388 C 0.50786 0.94337 0.47335 0.0
C1389 C 0.50127 0.90021 0.46773 0.0
C1390 C 0.52477 0.94493 0.43816 0.0
C1391 C 0.53035 0.92424 0.41799 0.0
H1392 H 0.47679 0.60779 0.02904 0.0
H1393 H 0.46972 0.54374 0.12788 0.0
H1394 H 0.46873 0.57712 0.16156 0.0
H1395 H 0.47123 0.62382 0.16301 0.0
H1396 H 0.4804 0.68711 0.06413 0.0
H1397 H 0.47948 0.65458 0.03041 0.0
C1398 C 0.47489 0.60116 0.05791 0.0
C1399 C 0.4735 0.57316 0.07573 0.0
C1400 C 0.475 0.62021 0.07714 0.0
C1401 C 0.47094 0.56507 0.11332 0.0
C1402 C 0.47048 0.58411 0.13267 0.0
C1403 C 0.47339 0.63035 0.13403 0.0
C1404 C 0.47601 0.65781 0.11614 0.0
C1405 C 0.47291 0.61154 0.11482 0.0
C1406 C 0.47815 0.66619 0.07863 0.0
C1407 C 0.47766 0.64759 0.05931 0.0
loop_
_geom_bond_atom_site_label_1
_geom_bond_atom_site_label_2
_geom_bond_distance
_geom_bond_site_symmetry_2
_ccdc_geom_bond_type
Tb0 C9 2.764 . S
Tb0 O10 2.325 1_456 S
Tb0 O13 2.303 1_546 S
Tb0 O17 2.322 1_545 S
Tb0 O18 2.349 1_455 S
Tb0 O21 2.415 . S
Tb0 O22 2.399 . S
Tb1 O11 2.322 1_565 S
Tb1 O12 2.349 1_655 S
Tb1 O14 2.415 . S
Tb1 O15 2.399 . S
Tb1 O16 2.325 1_654 S
Tb1 O19 2.303 1_564 S
Tb1 C30 2.764 . S
C2 O18 1.261 . S
C2 O19 1.257 . S
C3 C6 1.358 . S
C3 C7 1.332 . S
C3 C9 1.504 . S
C4 C5 1.373 . S
C4 C8 1.308 . S
C5 C4 1.373 . S
C5 C6 1.429 . S
C5 H32 0.932 . S
C6 C3 1.358 . S
C6 C5 1.429 . S
C6 H33 0.930 . S
C7 C3 1.332 . S
C7 C8 1.394 . S
C7 H34 0.932 . S
C8 C4 1.308 . S
C8 C7 1.394 . S
C8 H35 0.929 . S
C9 Tb0 2.764 . S
C9 C3 1.504 . S
C9 O21 1.239 . S
C9 O22 1.263 . S
O10 Tb0 2.325 1_654 S
O10 C20 1.236 . S
O11 Tb1 2.322 1_545 S
O11 C20 1.257 . S
O12 Tb1 2.349 1_455 S
O12 C23 1.261 . S
O13 Tb0 2.303 1_564 S
O13 C23 1.257 . S
O14 Tb1 2.415 . S
O14 C30 1.239 . S
O15 Tb1 2.399 . S
O15 C30 1.263 . S
O16 Tb1 2.325 1_456 S
O16 C31 1.236 . S
O17 Tb0 2.322 1_565 S
O17 C31 1.257 . S
O18 Tb0 2.349 1_655 S
O18 C2 1.261 . S
O19 Tb1 2.303 1_546 S
O19 C2 1.257 . S
C20 O10 1.236 . S
C20 O11 1.257 . S
O21 Tb0 2.415 . S
O21 C9 1.239 . S
O22 Tb0 2.399 . S
O22 C9 1.263 . S
C23 O12 1.261 . S
C23 O13 1.257 . S
C24 C27 1.358 . S
C24 C28 1.332 . S
C24 C30 1.504 . S
C25 C26 1.373 . S
C25 C29 1.308 . S
C26 C25 1.373 . S
C26 C27 1.429 . S
C26 H36 0.932 . S
C27 C24 1.358 . S
C27 C26 1.429 . S
C27 H37 0.930 . S
C28 C24 1.332 . S
C28 C29 1.394 . S
C28 H38 0.932 . S
C29 C25 1.308 . S
C29 C28 1.394 . S
C29 H39 0.929 . S
C30 Tb1 2.764 . S
C30 O14 1.239 . S
C30 O15 1.263 . S
C30 C24 1.504 . S
C31 O16 1.236 . S
C31 O17 1.257 . S
H32 C5 0.932 . S
H33 C6 0.930 . S
H34 C7 0.932 . S
H35 C8 0.929 . S
H36 C26 0.932 . S
H37 C27 0.930 . S
H38 C28 0.932 . S
H39 C29 0.929 . S
Tb40 C49 2.764 . S
Tb40 O50 2.325 1_655 S
Tb40 O53 2.303 1_655 S
Tb40 O57 2.322 . S
Tb40 O58 2.349 . S
Tb40 O61 2.415 1_655 S
Tb40 O62 2.399 . S
Tb41 O51 2.322 . S
Tb41 O52 2.349 . S
Tb41 O54 2.415 1_455 S
Tb41 O55 2.399 . S
Tb41 O56 2.325 1_455 S
Tb41 O59 2.303 1_455 S
Tb41 C70 2.764 . S
C42 O58 1.261 . S
C42 O59 1.257 . S
C43 C46 1.358 1_455 S
C43 C47 1.332 . S
C43 C49 1.504 1_455 S
C44 C45 1.373 1_455 S
C44 C48 1.308 . S
C45 C44 1.373 1_655 S
C45 C46 1.429 . S
C45 H72 0.932 . S
C46 C43 1.358 1_655 S
C46 C45 1.429 . S
C46 H73 0.930 . S
C47 C43 1.332 . S
C47 C48 1.394 . S
C47 H74 0.932 . S
C48 C44 1.308 . S
C48 C47 1.394 . S
C48 H75 0.929 . S
C49 Tb40 2.764 . S
C49 C43 1.504 1_655 S
C49 O61 1.239 1_655 S
C49 O62 1.263 . S
O50 Tb40 2.325 1_455 S
O50 C60 1.236 . S
O51 Tb41 2.322 . S
O51 C60 1.257 . S
O52 Tb41 2.349 . S
O52 C63 1.261 . S
O53 Tb40 2.303 1_455 S
O53 C63 1.257 . S
O54 Tb41 2.415 1_655 S
O54 C70 1.239 1_655 S
O55 Tb41 2.399 . S
O55 C70 1.263 . S
O56 Tb41 2.325 1_655 S
O56 C71 1.236 . S
O57 Tb40 2.322 . S
O57 C71 1.257 . S
O58 Tb40 2.349 . S
O58 C42 1.261 . S
O59 Tb41 2.303 1_655 S
O59 C42 1.257 . S
C60 O50 1.236 . S
C60 O51 1.257 . S
O61 Tb40 2.415 1_455 S
O61 C49 1.239 1_455 S
O62 Tb40 2.399 . S
O62 C49 1.263 . S
C63 O52 1.261 . S
C63 O53 1.257 . S
C64 C67 1.358 1_655 S
C64 C68 1.332 . S
C64 C70 1.504 1_655 S
C65 C66 1.373 1_655 S
C65 C69 1.308 . S
C66 C65 1.373 1_455 S
C66 C67 1.429 . S
C66 H76 0.932 . S
C67 C64 1.358 1_455 S
C67 C66 1.429 . S
C67 H77 0.930 . S
C68 C64 1.332 . S
C68 C69 1.394 . S
C68 H78 0.932 . S
C69 C65 1.308 . S
C69 C68 1.394 . S
C69 H79 0.929 . S
C70 Tb41 2.764 . S
C70 O54 1.239 1_455 S
C70 O55 1.263 . S
C70 C64 1.504 1_455 S
C71 O56 1.236 . S
C71 O57 1.257 . S
H72 C45 0.932 . S
H73 C46 0.930 . S
H74 C47 0.932 . S
H75 C48 0.929 . S
H76 C66 0.932 . S
H77 C67 0.930 . S
H78 C68 0.932 . S
H79 C69 0.929 . S
Tb80 C89 2.764 . S
Tb80 O90 2.325 . S
Tb80 O93 2.303 . S
Tb80 O97 2.322 . S
Tb80 O98 2.349 . S
Tb80 O101 2.415 . S
Tb80 O102 2.399 . S
Tb81 O91 2.322 . S
Tb81 O92 2.349 . S
Tb81 O94 2.415 . S
Tb81 O95 2.399 . S
Tb81 O96 2.325 . S
Tb81 O99 2.303 . S
Tb81 C110 2.764 . S
C82 O98 1.261 . S
C82 O99 1.257 . S
C83 C86 1.358 . S
C83 C87 1.332 . S
C83 C89 1.504 . S
C84 C85 1.373 . S
C84 C88 1.308 . S
C85 C84 1.373 . S
C85 C86 1.429 . S
C85 H112 0.932 . S
C86 C83 1.358 . S
C86 C85 1.429 . S
C86 H113 0.930 . S
C87 C83 1.332 . S
C87 C88 1.394 . S
C87 H114 0.932 . S
C88 C84 1.308 . S
C88 C87 1.394 . S
C88 H115 0.929 . S
C89 Tb80 2.764 . S
C89 C83 1.504 . S
C89 O101 1.239 . S
C89 O102 1.263 . S
O90 Tb80 2.325 . S
O90 C100 1.236 . S
O91 Tb81 2.322 . S
O91 C100 1.257 . S
O92 Tb81 2.349 . S
O92 C103 1.261 . S
O93 Tb80 2.303 . S
O93 C103 1.257 . S
O94 Tb81 2.415 . S
O94 C110 1.239 . S
O95 Tb81 2.399 . S
O95 C110 1.263 . S
O96 Tb81 2.325 . S
O96 C111 1.236 . S
O97 Tb80 2.322 . S
O97 C111 1.257 . S
O98 Tb80 2.349 . S
O98 C82 1.261 . S
O99 Tb81 2.303 . S
O99 C82 1.257 . S
C100 O90 1.236 . S
C100 O91 1.257 . S
O101 Tb80 2.415 . S
O101 C89 1.239 . S
O102 Tb80 2.399 . S
O102 C89 1.263 . S
C103 O92 1.261 . S
C103 O93 1.257 . S
C104 C107 1.358 . S
C104 C108 1.332 . S
C104 C110 1.504 . S
C105 C106 1.373 . S
C105 C109 1.308 . S
C106 C105 1.373 . S
C106 C107 1.429 . S
C106 H116 0.932 . S
C107 C104 1.358 . S
C107 C106 1.429 . S
C107 H117 0.930 . S
C108 C104 1.332 . S
C108 C109 1.394 . S
C108 H118 0.932 . S
C109 C105 1.308 . S
C109 C108 1.394 . S
C109 H119 0.929 . S
C110 Tb81 2.764 . S
C110 O94 1.239 . S
C110 O95 1.263 . S
C110 C104 1.504 . S
C111 O96 1.236 . S
C111 O97 1.257 . S
H112 C85 0.932 . S
H113 C86 0.930 . S
H114 C87 0.932 . S
H115 C88 0.929 . S
H116 C106 0.932 . S
H117 C107 0.930 . S
H118 C108 0.932 . S
H119 C109 0.929 . S
Tb120 C129 2.764 . S
Tb120 O130 2.325 1_545 S
Tb120 O133 2.303 1_545 S
Tb120 O137 2.322 . S
Tb120 O138 2.349 . S
Tb120 O141 2.415 1_545 S
Tb120 O142 2.399 . S
Tb121 O131 2.322 . S
Tb121 O132 2.349 . S
Tb121 O134 2.415 1_565 S
Tb121 O135 2.399 . S
Tb121 O136 2.325 1_565 S
Tb121 O139 2.303 1_565 S
Tb121 C150 2.764 . S
C122 O138 1.261 . S
C122 O139 1.257 . S
C123 C126 1.358 1_565 S
C123 C127 1.332 . S
C123 C129 1.504 1_565 S
C124 C125 1.373 1_565 S
C124 C128 1.308 . S
C125 C124 1.373 1_545 S
C125 C126 1.429 . S
C125 H152 0.932 . S
C126 C123 1.358 1_545 S
C126 C125 1.429 . S
C126 H153 0.930 . S
C127 C123 1.332 . S
C127 C128 1.394 . S
C127 H154 0.932 . S
C128 C124 1.308 . S
C128 C127 1.394 . S
C128 H155 0.929 . S
C129 Tb120 2.764 . S
C129 C123 1.504 1_545 S
C129 O141 1.239 1_545 S
C129 O142 1.263 . S
O130 Tb120 2.325 1_565 S
O130 C140 1.236 . S
O131 Tb121 2.322 . S
O131 C140 1.257 . S
O132 Tb121 2.349 . S
O132 C143 1.261 . S
O133 Tb120 2.303 1_565 S
O133 C143 1.257 . S
O134 Tb121 2.415 1_545 S
O134 C150 1.239 1_545 S
O135 Tb121 2.399 . S
O135 C150 1.263 . S
O136 Tb121 2.325 1_545 S
O136 C151 1.236 . S
O137 Tb120 2.322 . S
O137 C151 1.257 . S
O138 Tb120 2.349 . S
O138 C122 1.261 . S
O139 Tb121 2.303 1_545 S
O139 C122 1.257 . S
C140 O130 1.236 . S
C140 O131 1.257 . S
O141 Tb120 2.415 1_565 S
O141 C129 1.239 1_565 S
O142 Tb120 2.399 . S
O142 C129 1.263 . S
C143 O132 1.261 . S
C143 O133 1.257 . S
C144 C147 1.358 1_545 S
C144 C148 1.332 . S
C144 C150 1.504 1_545 S
C145 C146 1.373 1_545 S
C145 C149 1.308 . S
C146 C145 1.373 1_565 S
C146 C147 1.429 . S
C146 H156 0.932 . S
C147 C144 1.358 1_565 S
C147 C146 1.429 . S
C147 H157 0.930 . S
C148 C144 1.332 . S
C148 C149 1.394 . S
C148 H158 0.932 . S
C149 C145 1.308 . S
C149 C148 1.394 . S
C149 H159 0.929 . S
C150 Tb121 2.764 . S
C150 O134 1.239 1_565 S
C150 O135 1.263 . S
C150 C144 1.504 1_565 S
C151 O136 1.236 . S
C151 O137 1.257 . S
H152 C125 0.932 . S
H153 C126 0.930 . S
H154 C127 0.932 . S
H155 C128 0.929 . S
H156 C146 0.932 . S
H157 C147 0.930 . S
H158 C148 0.932 . S
H159 C149 0.929 . S
Tb160 C169 2.764 . S
Tb160 O170 2.325 . S
Tb160 O173 2.303 . S
Tb160 O177 2.322 . S
Tb160 O178 2.349 . S
Tb160 O181 2.415 . S
Tb160 O182 2.399 . S
Tb161 O171 2.322 . S
Tb161 O172 2.349 . S
Tb161 O174 2.415 . S
Tb161 O175 2.399 . S
Tb161 O176 2.325 . S
Tb161 O179 2.303 . S
Tb161 C190 2.764 . S
C162 O178 1.261 . S
C162 O179 1.257 . S
C163 C166 1.358 . S
C163 C167 1.332 . S
C163 C169 1.504 . S
C164 C165 1.373 . S
C164 C168 1.308 . S
C165 C164 1.373 . S
C165 C166 1.429 . S
C165 H192 0.932 . S
C166 C163 1.358 . S
C166 C165 1.429 . S
C166 H193 0.930 . S
C167 C163 1.332 . S
C167 C168 1.394 . S
C167 H194 0.932 . S
C168 C164 1.308 . S
C168 C167 1.394 . S
C168 H195 0.929 . S
C169 Tb160 2.764 . S
C169 C163 1.504 . S
C169 O181 1.239 . S
C169 O182 1.263 . S
O170 Tb160 2.325 . S
O170 C180 1.236 . S
O171 Tb161 2.322 . S
O171 C180 1.257 . S
O172 Tb161 2.349 . S
O172 C183 1.261 . S
O173 Tb160 2.303 . S
O173 C183 1.257 . S
O174 Tb161 2.415 . S
O174 C190 1.239 . S
O175 Tb161 2.399 . S
O175 C190 1.263 . S
O176 Tb161 2.325 . S
O176 C191 1.236 . S
O177 Tb160 2.322 . S
O177 C191 1.257 . S
O178 Tb160 2.349 . S
O178 C162 1.261 . S
O179 Tb161 2.303 . S
O179 C162 1.257 . S
C180 O170 1.236 . S
C180 O171 1.257 . S
O181 Tb160 2.415 . S
O181 C169 1.239 . S
O182 Tb160 2.399 . S
O182 C169 1.263 . S
C183 O172 1.261 . S
C183 O173 1.257 . S
C184 C187 1.358 . S
C184 C188 1.332 . S
C184 C190 1.504 . S
C185 C186 1.373 . S
C185 C189 1.308 . S
C186 C185 1.373 . S
C186 C187 1.429 . S
C186 H196 0.932 . S
C187 C184 1.358 . S
C187 C186 1.429 . S
C187 H197 0.930 . S
C188 C184 1.332 . S
C188 C189 1.394 . S
C188 H198 0.932 . S
C189 C185 1.308 . S
C189 C188 1.394 . S
C189 H199 0.929 . S
C190 Tb161 2.764 . S
C190 O174 1.239 . S
C190 O175 1.263 . S
C190 C184 1.504 . S
C191 O176 1.236 . S
C191 O177 1.257 . S
H192 C165 0.932 . S
H193 C166 0.930 . S
H194 C167 0.932 . S
H195 C168 0.929 . S
H196 C186 0.932 . S
H197 C187 0.930 . S
H198 C188 0.932 . S
H199 C189 0.929 . S
Tb200 C209 2.764 . S
Tb200 O210 2.325 . S
Tb200 O213 2.303 . S
Tb200 O217 2.322 . S
Tb200 O218 2.349 . S
Tb200 O221 2.415 . S
Tb200 O222 2.399 . S
Tb201 O211 2.322 . S
Tb201 O212 2.349 . S
Tb201 O214 2.415 . S
Tb201 O215 2.399 . S
Tb201 O216 2.325 . S
Tb201 O219 2.303 . S
Tb201 C230 2.764 . S
C202 O218 1.261 . S
C202 O219 1.257 . S
C203 C206 1.358 . S
C203 C207 1.332 . S
C203 C209 1.504 . S
C204 C205 1.373 . S
C204 C208 1.308 . S
C205 C204 1.373 . S
C205 C206 1.429 . S
C205 H232 0.932 . S
C206 C203 1.358 . S
C206 C205 1.429 . S
C206 H233 0.930 . S
C207 C203 1.332 . S
C207 C208 1.394 . S
C207 H234 0.932 . S
C208 C204 1.308 . S
C208 C207 1.394 . S
C208 H235 0.929 . S
C209 Tb200 2.764 . S
C209 C203 1.504 . S
C209 O221 1.239 . S
C209 O222 1.263 . S
O210 Tb200 2.325 . S
O210 C220 1.236 . S
O211 Tb201 2.322 . S
O211 C220 1.257 . S
O212 Tb201 2.349 . S
O212 C223 1.261 . S
O213 Tb200 2.303 . S
O213 C223 1.257 . S
O214 Tb201 2.415 . S
O214 C230 1.239 . S
O215 Tb201 2.399 . S
O215 C230 1.263 . S
O216 Tb201 2.325 . S
O216 C231 1.236 . S
O217 Tb200 2.322 . S
O217 C231 1.257 . S
O218 Tb200 2.349 . S
O218 C202 1.261 . S
O219 Tb201 2.303 . S
O219 C202 1.257 . S
C220 O210 1.236 . S
C220 O211 1.257 . S
O221 Tb200 2.415 . S
O221 C209 1.239 . S
O222 Tb200 2.399 . S
O222 C209 1.263 . S
C223 O212 1.261 . S
C223 O213 1.257 . S
C224 C227 1.358 . S
C224 C228 1.332 . S
C224 C230 1.504 . S
C225 C226 1.373 . S
C225 C229 1.308 . S
C226 C225 1.373 . S
C226 C227 1.429 . S
C226 H236 0.932 . S
C227 C224 1.358 . S
C227 C226 1.429 . S
C227 H237 0.930 . S
C228 C224 1.332 . S
C228 C229 1.394 . S
C228 H238 0.932 . S
C229 C225 1.308 . S
C229 C228 1.394 . S
C229 H239 0.929 . S
C230 Tb201 2.764 . S
C230 O214 1.239 . S
C230 O215 1.263 . S
C230 C224 1.504 . S
C231 O216 1.236 . S
C231 O217 1.257 . S
H232 C205 0.932 . S
H233 C206 0.930 . S
H234 C207 0.932 . S
H235 C208 0.929 . S
H236 C226 0.932 . S
H237 C227 0.930 . S
H238 C228 0.932 . S
H239 C229 0.929 . S
Tb240 C249 2.764 . S
Tb240 O250 2.325 . S
Tb240 O253 2.303 . S
Tb240 O257 2.322 . S
Tb240 O258 2.349 . S
Tb240 O261 2.415 . S
Tb240 O262 2.399 . S
Tb241 O251 2.322 . S
Tb241 O252 2.349 . S
Tb241 O254 2.415 . S
Tb241 O255 2.399 . S
Tb241 O256 2.325 . S
Tb241 O259 2.303 . S
Tb241 C270 2.764 . S
C242 O258 1.261 . S
C242 O259 1.257 . S
C243 C246 1.358 . S
C243 C247 1.332 . S
C243 C249 1.504 . S
C244 C245 1.373 . S
C244 C248 1.308 . S
C245 C244 1.373 . S
C245 C246 1.429 . S
C245 H272 0.932 . S
C246 C243 1.358 . S
C246 C245 1.429 . S
C246 H273 0.930 . S
C247 C243 1.332 . S
C247 C248 1.394 . S
C247 H274 0.932 . S
C248 C244 1.308 . S
C248 C247 1.394 . S
C248 H275 0.929 . S
C249 Tb240 2.764 . S
C249 C243 1.504 . S
C249 O261 1.239 . S
C249 O262 1.263 . S
O250 Tb240 2.325 . S
O250 C260 1.236 . S
O251 Tb241 2.322 . S
O251 C260 1.257 . S
O252 Tb241 2.349 . S
O252 C263 1.261 . S
O253 Tb240 2.303 . S
O253 C263 1.257 . S
O254 Tb241 2.415 . S
O254 C270 1.239 . S
O255 Tb241 2.399 . S
O255 C270 1.263 . S
O256 Tb241 2.325 . S
O256 C271 1.236 . S
O257 Tb240 2.322 . S
O257 C271 1.257 . S
O258 Tb240 2.349 . S
O258 C242 1.261 . S
O259 Tb241 2.303 . S
O259 C242 1.257 . S
C260 O250 1.236 . S
C260 O251 1.257 . S
O261 Tb240 2.415 . S
O261 C249 1.239 . S
O262 Tb240 2.399 . S
O262 C249 1.263 . S
C263 O252 1.261 . S
C263 O253 1.257 . S
C264 C267 1.358 . S
C264 C268 1.332 . S
C264 C270 1.504 . S
C265 C266 1.373 . S
C265 C269 1.308 . S
C266 C265 1.373 . S
C266 C267 1.429 . S
C266 H276 0.932 . S
C267 C264 1.358 . S
C267 C266 1.429 . S
C267 H277 0.930 . S
C268 C264 1.332 . S
C268 C269 1.394 . S
C268 H278 0.932 . S
C269 C265 1.308 . S
C269 C268 1.394 . S
C269 H279 0.929 . S
C270 Tb241 2.764 . S
C270 O254 1.239 . S
C270 O255 1.263 . S
C270 C264 1.504 . S
C271 O256 1.236 . S
C271 O257 1.257 . S
H272 C245 0.932 . S
H273 C246 0.930 . S
H274 C247 0.932 . S
H275 C248 0.929 . S
H276 C266 0.932 . S
H277 C267 0.930 . S
H278 C268 0.932 . S
H279 C269 0.929 . S
Tb280 C289 2.764 . S
Tb280 O290 2.325 1_455 S
Tb280 O293 2.303 . S
Tb280 O297 2.322 . S
Tb280 O298 2.349 1_455 S
Tb280 O301 2.415 . S
Tb280 O302 2.399 . S
Tb281 O291 2.322 . S
Tb281 O292 2.349 1_655 S
Tb281 O294 2.415 . S
Tb281 O295 2.399 . S
Tb281 O296 2.325 1_655 S
Tb281 O299 2.303 . S
Tb281 C310 2.764 . S
C282 O298 1.261 . S
C282 O299 1.257 . S
C283 C286 1.358 . S
C283 C287 1.332 . S
C283 C289 1.504 . S
C284 C285 1.373 . S
C284 C288 1.308 . S
C285 C284 1.373 . S
C285 C286 1.429 . S
C285 H312 0.932 . S
C286 C283 1.358 . S
C286 C285 1.429 . S
C286 H313 0.930 . S
C287 C283 1.332 . S
C287 C288 1.394 . S
C287 H314 0.932 . S
C288 C284 1.308 . S
C288 C287 1.394 . S
C288 H315 0.929 . S
C289 Tb280 2.764 . S
C289 C283 1.504 . S
C289 O301 1.239 . S
C289 O302 1.263 . S
O290 Tb280 2.325 1_655 S
O290 C300 1.236 . S
O291 Tb281 2.322 . S
O291 C300 1.257 . S
O292 Tb281 2.349 1_455 S
O292 C303 1.261 . S
O293 Tb280 2.303 . S
O293 C303 1.257 . S
O294 Tb281 2.415 . S
O294 C310 1.239 . S
O295 Tb281 2.399 . S
O295 C310 1.263 . S
O296 Tb281 2.325 1_455 S
O296 C311 1.236 . S
O297 Tb280 2.322 . S
O297 C311 1.257 . S
O298 Tb280 2.349 1_655 S
O298 C282 1.261 . S
O299 Tb281 2.303 . S
O299 C282 1.257 . S
C300 O290 1.236 . S
C300 O291 1.257 . S
O301 Tb280 2.415 . S
O301 C289 1.239 . S
O302 Tb280 2.399 . S
O302 C289 1.263 . S
C303 O292 1.261 . S
C303 O293 1.257 . S
C304 C307 1.358 . S
C304 C308 1.332 . S
C304 C310 1.504 . S
C305 C306 1.373 . S
C305 C309 1.308 . S
C306 C305 1.373 . S
C306 C307 1.429 . S
C306 H316 0.932 . S
C307 C304 1.358 . S
C307 C306 1.429 . S
C307 H317 0.930 . S
C308 C304 1.332 . S
C308 C309 1.394 . S
C308 H318 0.932 . S
C309 C305 1.308 . S
C309 C308 1.394 . S
C309 H319 0.929 . S
C310 Tb281 2.764 . S
C310 O294 1.239 . S
C310 O295 1.263 . S
C310 C304 1.504 . S
C311 O296 1.236 . S
C311 O297 1.257 . S
H312 C285 0.932 . S
H313 C286 0.930 . S
H314 C287 0.932 . S
H315 C288 0.929 . S
H316 C306 0.932 . S
H317 C307 0.930 . S
H318 C308 0.932 . S
H319 C309 0.929 . S
Tb320 C329 2.764 . S
Tb320 O330 2.325 1_554 S
Tb320 O333 2.303 1_554 S
Tb320 O337 2.322 . S
Tb320 O338 2.349 . S
Tb320 O341 2.415 . S
Tb320 O342 2.399 . S
Tb321 O331 2.322 . S
Tb321 O332 2.349 . S
Tb321 O334 2.415 . S
Tb321 O335 2.399 . S
Tb321 O336 2.325 1_556 S
Tb321 O339 2.303 1_556 S
Tb321 C350 2.764 . S
C322 O338 1.261 . S
C322 O339 1.257 . S
C323 C326 1.358 . S
C323 C327 1.332 . S
C323 C329 1.504 . S
C324 C325 1.373 . S
C324 C328 1.308 . S
C325 C324 1.373 . S
C325 C326 1.429 . S
C325 H352 0.932 . S
C326 C323 1.358 . S
C326 C325 1.429 . S
C326 H353 0.930 . S
C327 C323 1.332 . S
C327 C328 1.394 . S
C327 H354 0.932 1_554 S
C328 C324 1.308 . S
C328 C327 1.394 . S
C328 H355 0.929 1_554 S
C329 Tb320 2.764 . S
C329 C323 1.504 . S
C329 O341 1.239 . S
C329 O342 1.263 . S
O330 Tb320 2.325 1_556 S
O330 C340 1.236 . S
O331 Tb321 2.322 . S
O331 C340 1.257 . S
O332 Tb321 2.349 . S
O332 C343 1.261 . S
O333 Tb320 2.303 1_556 S
O333 C343 1.257 . S
O334 Tb321 2.415 . S
O334 C350 1.239 . S
O335 Tb321 2.399 . S
O335 C350 1.263 . S
O336 Tb321 2.325 1_554 S
O336 C351 1.236 . S
O337 Tb320 2.322 . S
O337 C351 1.257 . S
O338 Tb320 2.349 . S
O338 C322 1.261 . S
O339 Tb321 2.303 1_554 S
O339 C322 1.257 . S
C340 O330 1.236 . S
C340 O331 1.257 . S
O341 Tb320 2.415 . S
O341 C329 1.239 . S
O342 Tb320 2.399 . S
O342 C329 1.263 . S
C343 O332 1.261 . S
C343 O333 1.257 . S
C344 C347 1.358 . S
C344 C348 1.349 . S
C344 C350 1.504 . S
C345 C346 1.373 . S
C345 C349 1.308 . S
C346 C345 1.373 . S
C346 C347 1.429 . S
C346 H356 0.932 . S
C347 C344 1.358 . S
C347 C346 1.429 . S
C347 H357 0.930 . S
C348 C344 1.349 . S
C348 C349 1.402 . S
C348 H358 0.907 1_556 S
C349 C345 1.308 . S
C349 C348 1.402 . S
C349 H359 0.929 1_556 S
C350 Tb321 2.764 . S
C350 O334 1.239 . S
C350 O335 1.263 . S
C350 C344 1.504 . S
C351 O336 1.236 . S
C351 O337 1.257 . S
H352 C325 0.932 . S
H353 C326 0.930 . S
H354 C327 0.932 1_556 S
H355 C328 0.929 1_556 S
H356 C346 0.932 . S
H357 C347 0.930 . S
H358 C348 0.907 1_554 S
H359 C349 0.929 1_554 S
Tb360 C369 2.764 . S
Tb360 O370 2.325 1_545 S
Tb360 O373 2.303 1_545 S
Tb360 O377 2.322 . S
Tb360 O378 2.349 . S
Tb360 O381 2.415 1_545 S
Tb360 O382 2.399 . S
Tb361 O371 2.322 . S
Tb361 O372 2.349 . S
Tb361 O374 2.415 1_565 S
Tb361 O375 2.399 . S
Tb361 O376 2.325 1_565 S
Tb361 O379 2.303 1_565 S
Tb361 C390 2.764 . S
C362 O378 1.261 . S
C362 O379 1.257 . S
C363 C366 1.358 1_565 S
C363 C367 1.332 . S
C363 C369 1.504 1_565 S
C364 C365 1.373 1_565 S
C364 C368 1.308 . S
C365 C364 1.373 1_545 S
C365 C366 1.429 . S
C365 H392 0.932 . S
C366 C363 1.358 1_545 S
C366 C365 1.429 . S
C366 H393 0.930 . S
C367 C363 1.332 . S
C367 C368 1.394 . S
C367 H394 0.932 . S
C368 C364 1.308 . S
C368 C367 1.394 . S
C368 H395 0.929 . S
C369 Tb360 2.764 . S
C369 C363 1.504 1_545 S
C369 O381 1.239 1_545 S
C369 O382 1.263 . S
O370 Tb360 2.325 1_565 S
O370 C380 1.236 . S
O371 Tb361 2.322 . S
O371 C380 1.257 . S
O372 Tb361 2.349 . S
O372 C383 1.261 . S
O373 Tb360 2.303 1_565 S
O373 C383 1.257 . S
O374 Tb361 2.415 1_545 S
O374 C390 1.239 1_545 S
O375 Tb361 2.399 . S
O375 C390 1.263 . S
O376 Tb361 2.325 1_545 S
O376 C391 1.236 . S
O377 Tb360 2.322 . S
O377 C391 1.257 . S
O378 Tb360 2.349 . S
O378 C362 1.261 . S
O379 Tb361 2.303 1_545 S
O379 C362 1.257 . S
C380 O370 1.236 . S
C380 O371 1.257 . S
O381 Tb360 2.415 1_565 S
O381 C369 1.239 1_565 S
O382 Tb360 2.399 . S
O382 C369 1.263 . S
C383 O372 1.261 . S
C383 O373 1.257 . S
C384 C387 1.358 1_545 S
C384 C388 1.332 . S
C384 C390 1.504 1_545 S
C385 C386 1.373 1_545 S
C385 C389 1.308 . S
C386 C385 1.373 1_565 S
C386 C387 1.429 . S
C386 H396 0.932 . S
C387 C384 1.358 1_565 S
C387 C386 1.429 . S
C387 H397 0.930 . S
C388 C384 1.332 . S
C388 C389 1.394 . S
C388 H398 0.932 . S
C389 C385 1.308 . S
C389 C388 1.394 . S
C389 H399 0.929 . S
C390 Tb361 2.764 . S
C390 O374 1.239 1_565 S
C390 O375 1.263 . S
C390 C384 1.504 1_565 S
C391 O376 1.236 . S
C391 O377 1.257 . S
H392 C365 0.932 . S
H393 C366 0.930 . S
H394 C367 0.932 . S
H395 C368 0.929 . S
H396 C386 0.932 . S
H397 C387 0.930 . S
H398 C388 0.932 . S
H399 C389 0.929 . S
Tb400 C409 2.764 . S
Tb400 O410 2.325 . S
Tb400 O413 2.303 . S
Tb400 O417 2.322 . S
Tb400 O418 2.349 . S
Tb400 O421 2.415 . S
Tb400 O422 2.399 . S
Tb401 O411 2.322 . S
Tb401 O412 2.349 . S
Tb401 O414 2.415 . S
Tb401 O415 2.399 . S
Tb401 O416 2.325 . S
Tb401 O419 2.303 . S
Tb401 C430 2.764 . S
C402 O418 1.261 . S
C402 O419 1.257 . S
C403 C406 1.358 . S
C403 C407 1.332 . S
C403 C409 1.504 . S
C404 C405 1.373 . S
C404 C408 1.308 . S
C405 C404 1.373 . S
C405 C406 1.429 . S
C405 H432 0.932 . S
C406 C403 1.358 . S
C406 C405 1.429 . S
C406 H433 0.930 . S
C407 C403 1.332 . S
C407 C408 1.394 . S
C407 H434 0.932 . S
C408 C404 1.308 . S
C408 C407 1.394 . S
C408 H435 0.929 . S
C409 Tb400 2.764 . S
C409 C403 1.504 . S
C409 O421 1.239 . S
C409 O422 1.263 . S
O410 Tb400 2.325 . S
O410 C420 1.236 . S
O411 Tb401 2.322 . S
O411 C420 1.257 . S
O412 Tb401 2.349 . S
O412 C423 1.261 . S
O413 Tb400 2.303 . S
O413 C423 1.257 . S
O414 Tb401 2.415 . S
O414 C430 1.239 . S
O415 Tb401 2.399 . S
O415 C430 1.263 . S
O416 Tb401 2.325 . S
O416 C431 1.236 . S
O417 Tb400 2.322 . S
O417 C431 1.257 . S
O418 Tb400 2.349 . S
O418 C402 1.261 . S
O419 Tb401 2.303 . S
O419 C402 1.257 . S
C420 O410 1.236 . S
C420 O411 1.257 . S
O421 Tb400 2.415 . S
O421 C409 1.239 . S
O422 Tb400 2.399 . S
O422 C409 1.263 . S
C423 O412 1.261 . S
C423 O413 1.257 . S
C424 C427 1.358 . S
C424 C428 1.332 . S
C424 C430 1.504 . S
C425 C426 1.373 . S
C425 C429 1.308 . S
C426 C425 1.373 . S
C426 C427 1.429 . S
C426 H436 0.932 . S
C427 C424 1.358 . S
C427 C426 1.429 . S
C427 H437 0.930 . S
C428 C424 1.332 . S
C428 C429 1.394 . S
C428 H438 0.932 . S
C429 C425 1.308 . S
C429 C428 1.394 . S
C429 H439 0.929 . S
C430 Tb401 2.764 . S
C430 O414 1.239 . S
C430 O415 1.263 . S
C430 C424 1.504 . S
C431 O416 1.236 . S
C431 O417 1.257 . S
H432 C405 0.932 . S
H433 C406 0.930 . S
H434 C407 0.932 . S
H435 C408 0.929 . S
H436 C426 0.932 . S
H437 C427 0.930 . S
H438 C428 0.932 . S
H439 C429 0.929 . S
Tb440 C449 2.764 . S
Tb440 O450 2.325 1_655 S
Tb440 O453 2.303 1_655 S
Tb440 O457 2.322 . S
Tb440 O458 2.349 . S
Tb440 O461 2.415 1_655 S
Tb440 O462 2.399 . S
Tb441 O451 2.322 . S
Tb441 O452 2.349 . S
Tb441 O454 2.415 1_455 S
Tb441 O455 2.399 . S
Tb441 O456 2.325 1_455 S
Tb441 O459 2.303 1_455 S
Tb441 C470 2.764 . S
C442 O458 1.261 . S
C442 O459 1.257 . S
C443 C446 1.358 1_455 S
C443 C447 1.332 . S
C443 C449 1.504 1_455 S
C444 C445 1.373 1_455 S
C444 C448 1.308 . S
C445 C444 1.373 1_655 S
C445 C446 1.429 . S
C445 H472 0.932 . S
C446 C443 1.358 1_655 S
C446 C445 1.429 . S
C446 H473 0.930 . S
C447 C443 1.332 . S
C447 C448 1.394 . S
C447 H474 0.932 . S
C448 C444 1.308 . S
C448 C447 1.394 . S
C448 H475 0.929 . S
C449 Tb440 2.764 . S
C449 C443 1.504 1_655 S
C449 O461 1.239 1_655 S
C449 O462 1.263 . S
O450 Tb440 2.325 1_455 S
O450 C460 1.236 . S
O451 Tb441 2.322 . S
O451 C460 1.257 . S
O452 Tb441 2.349 . S
O452 C463 1.261 . S
O453 Tb440 2.303 1_455 S
O453 C463 1.257 . S
O454 Tb441 2.415 1_655 S
O454 C470 1.239 1_655 S
O455 Tb441 2.399 . S
O455 C470 1.263 . S
O456 Tb441 2.325 1_655 S
O456 C471 1.236 . S
O457 Tb440 2.322 . S
O457 C471 1.257 . S
O458 Tb440 2.349 . S
O458 C442 1.261 . S
O459 Tb441 2.303 1_655 S
O459 C442 1.257 . S
C460 O450 1.236 . S
C460 O451 1.257 . S
O461 Tb440 2.415 1_455 S
O461 C449 1.239 1_455 S
O462 Tb440 2.399 . S
O462 C449 1.263 . S
C463 O452 1.261 . S
C463 O453 1.257 . S
C464 C467 1.358 1_655 S
C464 C468 1.332 . S
C464 C470 1.504 1_655 S
C465 C466 1.373 1_655 S
C465 C469 1.308 . S
C466 C465 1.373 1_455 S
C466 C467 1.429 . S
C466 H476 0.932 . S
C467 C464 1.358 1_455 S
C467 C466 1.429 . S
C467 H477 0.930 . S
C468 C464 1.332 . S
C468 C469 1.394 . S
C468 H478 0.932 . S
C469 C465 1.308 . S
C469 C468 1.394 . S
C469 H479 0.929 . S
C470 Tb441 2.764 . S
C470 O454 1.239 1_455 S
C470 O455 1.263 . S
C470 C464 1.504 1_455 S
C471 O456 1.236 . S
C471 O457 1.257 . S
H472 C445 0.932 . S
H473 C446 0.930 . S
H474 C447 0.932 . S
H475 C448 0.929 . S
H476 C466 0.932 . S
H477 C467 0.930 . S
H478 C468 0.932 . S
H479 C469 0.929 . S
Tb480 C489 2.764 . S
Tb480 O490 2.325 . S
Tb480 O493 2.303 . S
Tb480 O497 2.322 . S
Tb480 O498 2.349 . S
Tb480 O501 2.415 . S
Tb480 O502 2.399 . S
Tb481 O491 2.322 . S
Tb481 O492 2.349 . S
Tb481 O494 2.415 . S
Tb481 O495 2.399 . S
Tb481 O496 2.325 . S
Tb481 O499 2.303 . S
Tb481 C510 2.764 . S
C482 O498 1.261 . S
C482 O499 1.257 . S
C483 C486 1.358 . S
C483 C487 1.332 . S
C483 C489 1.504 . S
C484 C485 1.373 . S
C484 C488 1.308 . S
C485 C484 1.373 . S
C485 C486 1.429 . S
C485 H512 0.932 . S
C486 C483 1.358 . S
C486 C485 1.429 . S
C486 H513 0.930 . S
C487 C483 1.332 . S
C487 C488 1.394 . S
C487 H514 0.932 . S
C488 C484 1.308 . S
C488 C487 1.394 . S
C488 H515 0.929 . S
C489 Tb480 2.764 . S
C489 C483 1.504 . S
C489 O501 1.239 . S
C489 O502 1.263 . S
O490 Tb480 2.325 . S
O490 C500 1.236 . S
O491 Tb481 2.322 . S
O491 C500 1.257 . S
O492 Tb481 2.349 . S
O492 C503 1.261 . S
O493 Tb480 2.303 . S
O493 C503 1.257 . S
O494 Tb481 2.415 . S
O494 C510 1.239 . S
O495 Tb481 2.399 . S
O495 C510 1.263 . S
O496 Tb481 2.325 . S
O496 C511 1.236 . S
O497 Tb480 2.322 . S
O497 C511 1.257 . S
O498 Tb480 2.349 . S
O498 C482 1.261 . S
O499 Tb481 2.303 . S
O499 C482 1.257 . S
C500 O490 1.236 . S
C500 O491 1.257 . S
O501 Tb480 2.415 . S
O501 C489 1.239 . S
O502 Tb480 2.399 . S
O502 C489 1.263 . S
C503 O492 1.261 . S
C503 O493 1.257 . S
C504 C507 1.358 . S
C504 C508 1.332 . S
C504 C510 1.504 . S
C505 C506 1.373 . S
C505 C509 1.308 . S
C506 C505 1.373 . S
C506 C507 1.429 . S
C506 H516 0.932 . S
C507 C504 1.358 . S
C507 C506 1.429 . S
C507 H517 0.930 . S
C508 C504 1.332 . S
C508 C509 1.394 . S
C508 H518 0.932 . S
C509 C505 1.308 . S
C509 C508 1.394 . S
C509 H519 0.929 . S
C510 Tb481 2.764 . S
C510 O494 1.239 . S
C510 O495 1.263 . S
C510 C504 1.504 . S
C511 O496 1.236 . S
C511 O497 1.257 . S
H512 C485 0.932 . S
H513 C486 0.930 . S
H514 C487 0.932 . S
H515 C488 0.929 . S
H516 C506 0.932 . S
H517 C507 0.930 . S
H518 C508 0.932 . S
H519 C509 0.929 . S
Tb520 C529 2.764 . S
Tb520 O530 2.325 1_554 S
Tb520 O533 2.303 1_554 S
Tb520 O537 2.322 . S
Tb520 O538 2.349 . S
Tb520 O541 2.415 . S
Tb520 O542 2.399 . S
Tb521 O531 2.322 . S
Tb521 O532 2.349 . S
Tb521 O534 2.415 . S
Tb521 O535 2.399 . S
Tb521 O536 2.325 1_556 S
Tb521 O539 2.303 1_556 S
Tb521 C550 2.764 . S
C522 O538 1.261 . S
C522 O539 1.257 . S
C523 C526 1.358 . S
C523 C527 1.332 . S
C523 C529 1.504 . S
C524 C525 1.373 . S
C524 C528 1.308 . S
C525 C524 1.373 . S
C525 C526 1.429 . S
C525 H552 0.932 . S
C526 C523 1.358 . S
C526 C525 1.429 . S
C526 H553 0.930 . S
C527 C523 1.332 . S
C527 C528 1.394 . S
C527 H554 0.932 1_554 S
C528 C524 1.308 . S
C528 C527 1.394 . S
C528 H555 0.929 1_554 S
C529 Tb520 2.764 . S
C529 C523 1.504 . S
C529 O541 1.239 . S
C529 O542 1.263 . S
O530 Tb520 2.325 1_556 S
O530 C540 1.236 . S
O531 Tb521 2.322 . S
O531 C540 1.257 . S
O532 Tb521 2.349 . S
O532 C543 1.261 . S
O533 Tb520 2.303 1_556 S
O533 C543 1.257 . S
O534 Tb521 2.415 . S
O534 C550 1.239 . S
O535 Tb521 2.399 . S
O535 C550 1.263 . S
O536 Tb521 2.325 1_554 S
O536 C551 1.236 . S
O537 Tb520 2.322 . S
O537 C551 1.257 . S
O538 Tb520 2.349 . S
O538 C522 1.261 . S
O539 Tb521 2.303 1_554 S
O539 C522 1.257 . S
C540 O530 1.236 . S
C540 O531 1.257 . S
O541 Tb520 2.415 . S
O541 C529 1.239 . S
O542 Tb520 2.399 . S
O542 C529 1.263 . S
C543 O532 1.261 . S
C543 O533 1.257 . S
C544 C547 1.358 . S
C544 C548 1.348 . S
C544 C550 1.504 . S
C545 C546 1.373 . S
C545 C549 1.308 . S
C546 C545 1.373 . S
C546 C547 1.429 . S
C546 H556 0.932 . S
C547 C544 1.358 . S
C547 C546 1.429 . S
C547 H557 0.930 . S
C548 C544 1.348 . S
C548 C549 1.402 . S
C548 H558 0.907 1_556 S
C549 C545 1.308 . S
C549 C548 1.402 . S
C549 H559 0.929 1_556 S
C550 Tb521 2.764 . S
C550 O534 1.239 . S
C550 O535 1.263 . S
C550 C544 1.504 . S
C551 O536 1.236 . S
C551 O537 1.257 . S
H552 C525 0.932 . S
H553 C526 0.930 . S
H554 C527 0.932 1_556 S
H555 C528 0.929 1_556 S
H556 C546 0.932 . S
H557 C547 0.930 . S
H558 C548 0.907 1_554 S
H559 C549 0.929 1_554 S
Tb560 C569 2.764 . S
Tb560 O570 2.325 . S
Tb560 O573 2.303 1_545 S
Tb560 O577 2.322 1_545 S
Tb560 O578 2.349 . S
Tb560 O581 2.415 . S
Tb560 O582 2.399 . S
Tb561 O571 2.322 1_565 S
Tb561 O572 2.349 . S
Tb561 O574 2.415 . S
Tb561 O575 2.399 . S
Tb561 O576 2.325 . S
Tb561 O579 2.303 1_565 S
Tb561 C590 2.764 . S
C562 O578 1.261 . S
C562 O579 1.257 . S
C563 C566 1.358 . S
C563 C567 1.332 . S
C563 C569 1.504 . S
C564 C565 1.373 . S
C564 C568 1.308 . S
C565 C564 1.373 . S
C565 C566 1.429 . S
C565 H592 0.932 . S
C566 C563 1.358 . S
C566 C565 1.429 . S
C566 H593 0.930 . S
C567 C563 1.332 . S
C567 C568 1.394 . S
C567 H594 0.932 . S
C568 C564 1.308 . S
C568 C567 1.394 . S
C568 H595 0.929 . S
C569 Tb560 2.764 . S
C569 C563 1.504 . S
C569 O581 1.239 . S
C569 O582 1.263 . S
O570 Tb560 2.325 . S
O570 C580 1.236 . S
O571 Tb561 2.322 1_545 S
O571 C580 1.257 . S
O572 Tb561 2.349 . S
O572 C583 1.261 . S
O573 Tb560 2.303 1_565 S
O573 C583 1.257 . S
O574 Tb561 2.415 . S
O574 C590 1.239 . S
O575 Tb561 2.399 . S
O575 C590 1.263 . S
O576 Tb561 2.325 . S
O576 C591 1.236 . S
O577 Tb560 2.322 1_565 S
O577 C591 1.257 . S
O578 Tb560 2.349 . S
O578 C562 1.261 . S
O579 Tb561 2.303 1_545 S
O579 C562 1.257 . S
C580 O570 1.236 . S
C580 O571 1.257 . S
O581 Tb560 2.415 . S
O581 C569 1.239 . S
O582 Tb560 2.399 . S
O582 C569 1.263 . S
C583 O572 1.261 . S
C583 O573 1.257 . S
C584 C587 1.358 . S
C584 C588 1.332 . S
C584 C590 1.504 . S
C585 C586 1.373 . S
C585 C589 1.308 . S
C586 C585 1.373 . S
C586 C587 1.429 . S
C586 H596 0.932 . S
C587 C584 1.358 . S
C587 C586 1.429 . S
C587 H597 0.930 . S
C588 C584 1.332 . S
C588 C589 1.394 . S
C588 H598 0.932 . S
C589 C585 1.308 . S
C589 C588 1.394 . S
C589 H599 0.929 . S
C590 Tb561 2.764 . S
C590 O574 1.239 . S
C590 O575 1.263 . S
C590 C584 1.504 . S
C591 O576 1.236 . S
C591 O577 1.257 . S
H592 C565 0.932 . S
H593 C566 0.930 . S
H594 C567 0.932 . S
H595 C568 0.929 . S
H596 C586 0.932 . S
H597 C587 0.930 . S
H598 C588 0.932 . S
H599 C589 0.929 . S
Tb600 C609 2.764 . S
Tb600 O610 2.325 1_556 S
Tb600 O613 2.303 1_556 S
Tb600 O617 2.322 . S
Tb600 O618 2.349 . S
Tb600 O621 2.415 . S
Tb600 O622 2.399 . S
Tb601 O611 2.322 . S
Tb601 O612 2.349 . S
Tb601 O614 2.415 . S
Tb601 O615 2.399 . S
Tb601 O616 2.325 1_554 S
Tb601 O619 2.303 1_554 S
Tb601 C630 2.764 . S
C602 O618 1.261 . S
C602 O619 1.257 . S
C603 C606 1.358 . S
C603 C607 1.332 . S
C603 C609 1.504 . S
C604 C605 1.373 . S
C604 C608 1.308 . S
C605 C604 1.373 . S
C605 C606 1.429 . S
C605 H632 0.932 . S
C606 C603 1.358 . S
C606 C605 1.429 . S
C606 H633 0.930 . S
C607 C603 1.332 . S
C607 C608 1.394 . S
C607 H634 0.932 . S
C608 C604 1.308 . S
C608 C607 1.394 . S
C608 H635 0.929 . S
C609 Tb600 2.764 . S
C609 C603 1.504 . S
C609 O621 1.239 . S
C609 O622 1.263 . S
O610 Tb600 2.325 1_554 S
O610 C620 1.236 . S
O611 Tb601 2.322 . S
O611 C620 1.257 . S
O612 Tb601 2.349 . S
O612 C623 1.261 . S
O613 Tb600 2.303 1_554 S
O613 C623 1.257 . S
O614 Tb601 2.415 . S
O614 C630 1.239 . S
O615 Tb601 2.399 . S
O615 C630 1.263 . S
O616 Tb601 2.325 1_556 S
O616 C631 1.236 . S
O617 Tb600 2.322 . S
O617 C631 1.257 . S
O618 Tb600 2.349 . S
O618 C602 1.261 . S
O619 Tb601 2.303 1_556 S
O619 C602 1.257 . S
C620 O610 1.236 . S
C620 O611 1.257 . S
O621 Tb600 2.415 . S
O621 C609 1.239 . S
O622 Tb600 2.399 . S
O622 C609 1.263 . S
C623 O612 1.261 . S
C623 O613 1.257 . S
C624 C627 1.358 . S
C624 C628 1.332 . S
C624 C630 1.504 . S
C625 C626 1.373 . S
C625 C629 1.308 . S
C626 C625 1.373 . S
C626 C627 1.429 . S
C626 H636 0.932 . S
C627 C624 1.358 . S
C627 C626 1.429 . S
C627 H637 0.930 . S
C628 C624 1.332 . S
C628 C629 1.394 . S
C628 H638 0.932 . S
C629 C625 1.308 . S
C629 C628 1.394 . S
C629 H639 0.929 . S
C630 Tb601 2.764 . S
C630 O614 1.239 . S
C630 O615 1.263 . S
C630 C624 1.504 . S
C631 O616 1.236 . S
C631 O617 1.257 . S
H632 C605 0.932 . S
H633 C606 0.930 . S
H634 C607 0.932 . S
H635 C608 0.929 . S
H636 C626 0.932 . S
H637 C627 0.930 . S
H638 C628 0.932 . S
H639 C629 0.929 . S
H640 C646 0.930 . S
H641 C649 0.930 . S
H642 C650 0.930 . S
H643 C651 0.930 . S
H644 C654 0.930 . S
H645 C655 0.930 . S
C646 H640 0.930 . S
C646 C647 1.355 . S
C646 C648 1.415 . S
C647 C646 1.355 . S
C647 C649 1.419 1_655 S
C648 C646 1.415 . S
C648 C653 1.425 1_655 S
C648 C655 1.409 . S
C649 H641 0.930 . S
C649 C647 1.419 1_455 S
C649 C650 1.362 . S
C650 H642 0.930 . S
C650 C649 1.362 . S
C650 C653 1.409 . S
C651 H643 0.930 . S
C651 C652 1.355 . S
C651 C653 1.415 . S
C652 C651 1.355 . S
C652 C654 1.419 1_455 S
C653 C648 1.425 1_455 S
C653 C650 1.409 . S
C653 C651 1.415 . S
C654 H644 0.930 . S
C654 C652 1.419 1_655 S
C654 C655 1.362 . S
C655 H645 0.930 . S
C655 C648 1.409 . S
C655 C654 1.362 . S
H656 C662 0.930 . S
H657 C665 0.930 . S
H658 C666 0.930 . S
H659 C667 0.930 . S
H660 C670 0.930 . S
H661 C671 0.930 . S
C662 H656 0.930 . S
C662 C663 1.355 . S
C662 C664 1.415 . S
C663 C662 1.355 . S
C663 C665 1.419 . S
C664 C662 1.415 . S
C664 C669 1.425 . S
C664 C671 1.409 . S
C665 H657 0.930 . S
C665 C663 1.419 . S
C665 C666 1.362 . S
C666 H658 0.930 . S
C666 C665 1.362 . S
C666 C669 1.409 . S
C667 H659 0.930 . S
C667 C668 1.355 . S
C667 C669 1.415 . S
C668 C667 1.355 . S
C668 C670 1.419 . S
C669 C664 1.425 . S
C669 C666 1.409 . S
C669 C667 1.415 . S
C670 H660 0.930 . S
C670 C668 1.419 . S
C670 C671 1.362 . S
C671 H661 0.930 . S
C671 C664 1.409 . S
C671 C670 1.362 . S
H672 C678 0.930 . S
H673 C681 0.930 . S
H674 C682 0.930 . S
H675 C683 0.930 . S
H676 C686 0.930 . S
H677 C687 0.930 . S
C678 H672 0.930 . S
C678 C679 1.355 . S
C678 C680 1.415 . S
C679 C678 1.355 . S
C679 C681 1.419 . S
C680 C678 1.415 . S
C680 C685 1.425 . S
C680 C687 1.409 . S
C681 H673 0.930 . S
C681 C679 1.419 . S
C681 C682 1.362 . S
C682 H674 0.930 . S
C682 C681 1.362 . S
C682 C685 1.409 . S
C683 H675 0.930 . S
C683 C684 1.355 . S
C683 C685 1.415 . S
C684 C683 1.355 . S
C684 C686 1.419 . S
C685 C680 1.425 . S
C685 C682 1.409 . S
C685 C683 1.415 . S
C686 H676 0.930 . S
C686 C684 1.419 . S
C686 C687 1.362 . S
C687 H677 0.930 . S
C687 C680 1.409 . S
C687 C686 1.362 . S
H688 C694 0.930 1_565 S
H689 C697 0.930 . S
H690 C698 0.930 . S
H691 C699 0.930 . S
H692 C702 0.930 . S
H693 C703 0.930 . S
C694 H688 0.930 1_545 S
C694 C695 1.355 . S
C694 C696 1.415 1_545 S
C695 C694 1.355 . S
C695 C697 1.419 . S
C696 C694 1.415 1_565 S
C696 C701 1.425 1_565 S
C696 C703 1.409 . S
C697 H689 0.930 . S
C697 C695 1.419 . S
C697 C698 1.362 . S
C698 H690 0.930 . S
C698 C697 1.362 . S
C698 C701 1.409 . S
C699 H691 0.930 . S
C699 C700 1.355 1_545 S
C699 C701 1.415 . S
C700 C699 1.355 1_565 S
C700 C702 1.419 . S
C701 C696 1.425 1_545 S
C701 C698 1.409 . S
C701 C699 1.415 . S
C702 H692 0.930 . S
C702 C700 1.419 . S
C702 C703 1.362 . S
C703 H693 0.930 . S
C703 C696 1.409 . S
C703 C702 1.362 . S
H704 C710 0.930 1_545 S
H705 C713 0.930 . S
H706 C714 0.930 . S
H707 C715 0.930 . S
H708 C718 0.930 . S
H709 C719 0.930 . S
C710 H704 0.930 1_565 S
C710 C711 1.355 . S
C710 C712 1.415 1_565 S
C711 C710 1.355 . S
C711 C713 1.419 . S
C712 C710 1.415 1_545 S
C712 C717 1.425 1_545 S
C712 C719 1.409 . S
C713 H705 0.930 . S
C713 C711 1.419 . S
C713 C714 1.362 . S
C714 H706 0.930 . S
C714 C713 1.362 . S
C714 C717 1.409 . S
C715 H707 0.930 . S
C715 C716 1.355 1_565 S
C715 C717 1.415 . S
C716 C715 1.355 1_545 S
C716 C718 1.419 . S
C717 C712 1.425 1_565 S
C717 C714 1.409 . S
C717 C715 1.415 . S
C718 H708 0.930 . S
C718 C716 1.419 . S
C718 C719 1.362 . S
C719 H709 0.930 . S
C719 C712 1.409 . S
C719 C718 1.362 . S
H720 C726 0.930 . S
H721 C729 0.930 . S
H722 C730 0.930 . S
H723 C731 0.930 . S
H724 C734 0.930 . S
H725 C735 0.930 . S
C726 H720 0.930 . S
C726 C727 1.355 . S
C726 C728 1.415 . S
C727 C726 1.355 . S
C727 C729 1.419 1_455 S
C728 C726 1.415 . S
C728 C733 1.425 1_455 S
C728 C735 1.409 . S
C729 H721 0.930 . S
C729 C727 1.419 1_655 S
C729 C730 1.362 . S
C730 H722 0.930 . S
C730 C729 1.362 . S
C730 C733 1.409 . S
C731 H723 0.930 . S
C731 C732 1.355 . S
C731 C733 1.415 . S
C732 C731 1.355 . S
C732 C734 1.419 1_655 S
C733 C728 1.425 1_655 S
C733 C730 1.409 . S
C733 C731 1.415 . S
C734 H724 0.930 . S
C734 C732 1.419 1_455 S
C734 C735 1.362 . S
C735 H725 0.930 . S
C735 C728 1.409 . S
C735 C734 1.362 . S
H736 C742 0.930 . S
H737 C745 0.930 . S
H738 C746 0.930 . S
H739 C747 0.930 . S
H740 C750 0.930 . S
H741 C751 0.930 . S
C742 H736 0.930 . S
C742 C743 1.355 . S
C742 C744 1.415 . S
C743 C742 1.355 . S
C743 C745 1.419 . S
C744 C742 1.415 . S
C744 C749 1.425 . S
C744 C751 1.409 . S
C745 H737 0.930 . S
C745 C743 1.419 . S
C745 C746 1.362 . S
C746 H738 0.930 . S
C746 C745 1.362 . S
C746 C749 1.409 . S
C747 H739 0.930 . S
C747 C748 1.355 . S
C747 C749 1.415 . S
C748 C747 1.355 . S
C748 C750 1.419 . S
C749 C744 1.425 . S
C749 C746 1.409 . S
C749 C747 1.415 . S
C750 H740 0.930 . S
C750 C748 1.419 . S
C750 C751 1.362 . S
C751 H741 0.930 . S
C751 C744 1.409 . S
C751 C750 1.362 . S
H752 C758 0.930 . S
H753 C761 0.930 . S
H754 C762 0.930 . S
H755 C763 0.930 . S
H756 C766 0.930 . S
H757 C767 0.930 . S
C758 H752 0.930 . S
C758 C759 1.355 . S
C758 C760 1.415 . S
C759 C758 1.355 . S
C759 C761 1.419 . S
C760 C758 1.415 . S
C760 C765 1.425 . S
C760 C767 1.409 . S
C761 H753 0.930 . S
C761 C759 1.419 . S
C761 C762 1.362 . S
C762 H754 0.930 . S
C762 C761 1.362 . S
C762 C765 1.409 . S
C763 H755 0.930 . S
C763 C764 1.355 . S
C763 C765 1.415 . S
C764 C763 1.355 . S
C764 C766 1.419 . S
C765 C760 1.425 . S
C765 C762 1.409 . S
C765 C763 1.415 . S
C766 H756 0.930 . S
C766 C764 1.419 . S
C766 C767 1.362 . S
C767 H757 0.930 . S
C767 C760 1.409 . S
C767 C766 1.362 . S
H768 C774 0.930 . S
H769 C777 0.930 . S
H770 C778 0.930 . S
H771 C779 0.930 . S
H772 C782 0.930 . S
H773 C783 0.930 . S
C774 H768 0.930 . S
C774 C775 1.355 . S
C774 C776 1.415 . S
C775 C774 1.355 . S
C775 C777 1.419 . S
C776 C774 1.415 . S
C776 C781 1.425 . S
C776 C783 1.409 . S
C777 H769 0.930 . S
C777 C775 1.419 . S
C777 C778 1.362 . S
C778 H770 0.930 . S
C778 C777 1.362 . S
C778 C781 1.409 . S
C779 H771 0.930 . S
C779 C780 1.355 . S
C779 C781 1.415 . S
C780 C779 1.355 . S
C780 C782 1.419 . S
C781 C776 1.425 . S
C781 C778 1.409 . S
C781 C779 1.415 . S
C782 H772 0.930 . S
C782 C780 1.419 . S
C782 C783 1.362 . S
C783 H773 0.930 . S
C783 C776 1.409 . S
C783 C782 1.362 . S
H784 C790 0.930 . S
H785 C793 0.930 . S
H786 C794 0.930 . S
H787 C795 0.930 . S
H788 C798 0.930 . S
H789 C799 0.930 . S
C790 H784 0.930 . S
C790 C791 1.355 . S
C790 C792 1.415 . S
C791 C790 1.355 . S
C791 C793 1.419 . S
C792 C790 1.415 . S
C792 C797 1.425 . S
C792 C799 1.409 . S
C793 H785 0.930 . S
C793 C791 1.419 . S
C793 C794 1.362 . S
C794 H786 0.930 . S
C794 C793 1.362 . S
C794 C797 1.409 . S
C795 H787 0.930 . S
C795 C796 1.355 . S
C795 C797 1.415 . S
C796 C795 1.355 . S
C796 C798 1.419 . S
C797 C792 1.425 . S
C797 C794 1.409 . S
C797 C795 1.415 . S
C798 H788 0.930 . S
C798 C796 1.419 . S
C798 C799 1.362 . S
C799 H789 0.930 . S
C799 C792 1.409 . S
C799 C798 1.362 . S
H800 C806 0.930 1_545 S
H801 C809 0.930 . S
H802 C810 0.930 . S
H803 C811 0.930 . S
H804 C814 0.930 . S
H805 C815 0.930 . S
C806 H800 0.930 1_565 S
C806 C807 1.355 . S
C806 C808 1.415 1_565 S
C807 C806 1.355 . S
C807 C809 1.419 . S
C808 C806 1.415 1_545 S
C808 C813 1.425 1_545 S
C808 C815 1.409 . S
C809 H801 0.930 . S
C809 C807 1.419 . S
C809 C810 1.362 . S
C810 H802 0.930 . S
C810 C809 1.362 . S
C810 C813 1.409 . S
C811 H803 0.930 . S
C811 C812 1.355 1_565 S
C811 C813 1.415 . S
C812 C811 1.355 1_545 S
C812 C814 1.419 . S
C813 C808 1.425 1_565 S
C813 C810 1.409 . S
C813 C811 1.415 . S
C814 H804 0.930 . S
C814 C812 1.419 . S
C814 C815 1.362 . S
C815 H805 0.930 . S
C815 C808 1.409 . S
C815 C814 1.362 . S
H816 C822 0.930 . S
H817 C825 0.930 . S
H818 C826 0.930 . S
H819 C827 0.930 . S
H820 C830 0.930 . S
H821 C831 0.930 . S
C822 H816 0.930 . S
C822 C823 1.355 1_655 S
C822 C824 1.415 . S
C823 C822 1.355 1_455 S
C823 C825 1.419 . S
C824 C822 1.415 . S
C824 C829 1.425 1_655 S
C824 C831 1.409 . S
C825 H817 0.930 . S
C825 C823 1.419 . S
C825 C826 1.362 . S
C826 H818 0.930 . S
C826 C825 1.362 . S
C826 C829 1.409 . S
C827 H819 0.930 . S
C827 C828 1.355 1_455 S
C827 C829 1.415 . S
C828 C827 1.355 1_655 S
C828 C830 1.419 . S
C829 C824 1.425 1_455 S
C829 C826 1.409 . S
C829 C827 1.415 . S
C830 H820 0.930 . S
C830 C828 1.419 . S
C830 C831 1.362 . S
C831 H821 0.930 . S
C831 C824 1.409 . S
C831 C830 1.362 . S
H832 C838 0.930 . S
H833 C841 0.930 . S
H834 C842 0.930 . S
H835 C843 0.930 . S
H836 C846 0.930 . S
H837 C847 0.930 . S
C838 H832 0.930 . S
C838 C839 1.355 . S
C838 C840 1.415 . S
C839 C838 1.355 . S
C839 C841 1.419 . S
C840 C838 1.415 . S
C840 C845 1.425 . S
C840 C847 1.409 . S
C841 H833 0.930 . S
C841 C839 1.419 . S
C841 C842 1.362 . S
C842 H834 0.930 . S
C842 C841 1.362 . S
C842 C845 1.409 . S
C843 H835 0.930 . S
C843 C844 1.355 . S
C843 C845 1.415 . S
C844 C843 1.355 . S
C844 C846 1.419 . S
C845 C840 1.425 . S
C845 C842 1.409 . S
C845 C843 1.415 . S
C846 H836 0.930 . S
C846 C844 1.419 . S
C846 C847 1.362 . S
C847 H837 0.930 . S
C847 C840 1.409 . S
C847 C846 1.362 . S
H848 C854 0.930 . S
H849 C857 0.930 . S
H850 C858 0.930 . S
H851 C859 0.930 . S
H852 C862 0.930 . S
H853 C863 0.930 . S
C854 H848 0.930 . S
C854 C855 1.355 . S
C854 C856 1.415 . S
C855 C854 1.355 . S
C855 C857 1.419 . S
C856 C854 1.415 . S
C856 C861 1.425 . S
C856 C863 1.409 . S
C857 H849 0.930 . S
C857 C855 1.419 . S
C857 C858 1.362 . S
C858 H850 0.930 . S
C858 C857 1.362 . S
C858 C861 1.409 . S
C859 H851 0.930 . S
C859 C860 1.355 . S
C859 C861 1.415 . S
C860 C859 1.355 . S
C860 C862 1.419 . S
C861 C856 1.425 . S
C861 C858 1.409 . S
C861 C859 1.415 . S
C862 H852 0.930 . S
C862 C860 1.419 . S
C862 C863 1.362 . S
C863 H853 0.930 . S
C863 C856 1.409 . S
C863 C862 1.362 . S
H864 C870 0.930 . S
H865 C873 0.930 . S
H866 C874 0.930 . S
H867 C875 0.930 . S
H868 C878 0.930 . S
H869 C879 0.930 . S
C870 H864 0.930 . S
C870 C871 1.355 . S
C870 C872 1.415 . S
C871 C870 1.355 . S
C871 C873 1.419 . S
C872 C870 1.415 . S
C872 C877 1.425 . S
C872 C879 1.409 . S
C873 H865 0.930 . S
C873 C871 1.419 . S
C873 C874 1.362 . S
C874 H866 0.930 . S
C874 C873 1.362 . S
C874 C877 1.409 . S
C875 H867 0.930 . S
C875 C876 1.355 . S
C875 C877 1.415 . S
C876 C875 1.355 . S
C876 C878 1.419 . S
C877 C872 1.425 . S
C877 C874 1.409 . S
C877 C875 1.415 . S
C878 H868 0.930 . S
C878 C876 1.419 . S
C878 C879 1.362 . S
C879 H869 0.930 . S
C879 C872 1.409 . S
C879 C878 1.362 . S
H880 C886 0.930 . S
H881 C889 0.930 . S
H882 C890 0.930 . S
H883 C891 0.930 . S
H884 C894 0.930 . S
H885 C895 0.930 . S
C886 H880 0.930 . S
C886 C887 1.355 . S
C886 C888 1.415 . S
C887 C886 1.355 . S
C887 C889 1.419 . S
C888 C886 1.415 . S
C888 C893 1.425 . S
C888 C895 1.409 . S
C889 H881 0.930 . S
C889 C887 1.419 . S
C889 C890 1.362 . S
C890 H882 0.930 . S
C890 C889 1.362 . S
C890 C893 1.409 . S
C891 H883 0.930 . S
C891 C892 1.355 . S
C891 C893 1.415 . S
C892 C891 1.355 . S
C892 C894 1.419 . S
C893 C888 1.425 . S
C893 C890 1.409 . S
C893 C891 1.415 . S
C894 H884 0.930 . S
C894 C892 1.419 . S
C894 C895 1.362 . S
C895 H885 0.930 . S
C895 C888 1.409 . S
C895 C894 1.362 . S
H896 C902 0.930 . S
H897 C905 0.930 . S
H898 C906 0.930 . S
H899 C907 0.930 . S
H900 C910 0.930 . S
H901 C911 0.930 . S
C902 H896 0.930 . S
C902 C903 1.355 . S
C902 C904 1.415 . S
C903 C902 1.355 . S
C903 C905 1.419 . S
C904 C902 1.415 . S
C904 C909 1.425 . S
C904 C911 1.409 . S
C905 H897 0.930 . S
C905 C903 1.419 . S
C905 C906 1.362 . S
C906 H898 0.930 . S
C906 C905 1.362 . S
C906 C909 1.409 . S
C907 H899 0.930 . S
C907 C908 1.355 . S
C907 C909 1.415 . S
C908 C907 1.355 . S
C908 C910 1.419 . S
C909 C904 1.425 . S
C909 C906 1.409 . S
C909 C907 1.415 . S
C910 H900 0.930 . S
C910 C908 1.419 . S
C910 C911 1.362 . S
C911 H901 0.930 . S
C911 C904 1.409 . S
C911 C910 1.362 . S
H912 C918 0.930 . S
H913 C921 0.930 . S
H914 C922 0.930 . S
H915 C923 0.930 . S
H916 C926 0.930 . S
H917 C927 0.930 . S
C918 H912 0.930 . S
C918 C919 1.355 . S
C918 C920 1.415 . S
C919 C918 1.355 . S
C919 C921 1.419 . S
C920 C918 1.415 . S
C920 C925 1.425 . S
C920 C927 1.409 . S
C921 H913 0.930 . S
C921 C919 1.419 . S
C921 C922 1.362 . S
C922 H914 0.930 . S
C922 C921 1.362 . S
C922 C925 1.409 . S
C923 H915 0.930 . S
C923 C924 1.355 . S
C923 C925 1.415 . S
C924 C923 1.355 . S
C924 C926 1.419 . S
C925 C920 1.425 . S
C925 C922 1.409 . S
C925 C923 1.415 . S
C926 H916 0.930 . S
C926 C924 1.419 . S
C926 C927 1.362 . S
C927 H917 0.930 . S
C927 C920 1.409 . S
C927 C926 1.362 . S
H928 C934 0.930 . S
H929 C937 0.930 . S
H930 C938 0.930 . S
H931 C939 0.930 . S
H932 C942 0.930 . S
H933 C943 0.930 . S
C934 H928 0.930 . S
C934 C935 1.355 . S
C934 C936 1.415 . S
C935 C934 1.355 . S
C935 C937 1.419 . S
C936 C934 1.415 . S
C936 C941 1.425 . S
C936 C943 1.409 . S
C937 H929 0.930 . S
C937 C935 1.419 . S
C937 C938 1.362 . S
C938 H930 0.930 . S
C938 C937 1.362 . S
C938 C941 1.409 . S
C939 H931 0.930 . S
C939 C940 1.355 . S
C939 C941 1.415 . S
C940 C939 1.355 . S
C940 C942 1.419 . S
C941 C936 1.425 . S
C941 C938 1.409 . S
C941 C939 1.415 . S
C942 H932 0.930 . S
C942 C940 1.419 . S
C942 C943 1.362 . S
C943 H933 0.930 . S
C943 C936 1.409 . S
C943 C942 1.362 . S
H944 C950 0.930 . S
H945 C953 0.930 . S
H946 C954 0.930 . S
H947 C955 0.930 . S
H948 C958 0.930 . S
H949 C959 0.930 . S
C950 H944 0.930 . S
C950 C951 1.355 . S
C950 C952 1.415 . S
C951 C950 1.355 . S
C951 C953 1.419 . S
C952 C950 1.415 . S
C952 C957 1.425 . S
C952 C959 1.409 . S
C953 H945 0.930 . S
C953 C951 1.419 . S
C953 C954 1.362 . S
C954 H946 0.930 . S
C954 C953 1.362 . S
C954 C957 1.409 . S
C955 H947 0.930 . S
C955 C956 1.355 . S
C955 C957 1.415 . S
C956 C955 1.355 . S
C956 C958 1.419 . S
C957 C952 1.425 . S
C957 C954 1.409 . S
C957 C955 1.415 . S
C958 H948 0.930 . S
C958 C956 1.419 . S
C958 C959 1.362 . S
C959 H949 0.930 . S
C959 C952 1.409 . S
C959 C958 1.362 . S
H960 C966 0.930 . S
H961 C969 0.930 . S
H962 C970 0.930 . S
H963 C971 0.930 . S
H964 C974 0.930 . S
H965 C975 0.930 . S
C966 H960 0.930 . S
C966 C967 1.355 . S
C966 C968 1.415 . S
C967 C966 1.355 . S
C967 C969 1.419 . S
C968 C966 1.415 . S
C968 C973 1.425 . S
C968 C975 1.409 . S
C969 H961 0.930 . S
C969 C967 1.419 . S
C969 C970 1.362 . S
C970 H962 0.930 . S
C970 C969 1.362 . S
C970 C973 1.409 . S
C971 H963 0.930 . S
C971 C972 1.355 . S
C971 C973 1.415 . S
C972 C971 1.355 . S
C972 C974 1.419 . S
C973 C968 1.425 . S
C973 C970 1.409 . S
C973 C971 1.415 . S
C974 H964 0.930 . S
C974 C972 1.419 . S
C974 C975 1.362 . S
C975 H965 0.930 . S
C975 C968 1.409 . S
C975 C974 1.362 . S
H976 C982 0.930 . S
H977 C985 0.930 . S
H978 C986 0.930 . S
H979 C987 0.930 . S
H980 C990 0.930 . S
H981 C991 0.930 . S
C982 H976 0.930 . S
C982 C983 1.355 1_655 S
C982 C984 1.415 . S
C983 C982 1.355 1_455 S
C983 C985 1.419 . S
C984 C982 1.415 . S
C984 C989 1.425 1_655 S
C984 C991 1.409 . S
C985 H977 0.930 . S
C985 C983 1.419 . S
C985 C986 1.362 . S
C986 H978 0.930 . S
C986 C985 1.362 . S
C986 C989 1.409 . S
C987 H979 0.930 . S
C987 C988 1.355 1_455 S
C987 C989 1.415 . S
C988 C987 1.355 1_655 S
C988 C990 1.419 . S
C989 C984 1.425 1_455 S
C989 C986 1.409 . S
C989 C987 1.415 . S
C990 H980 0.930 . S
C990 C988 1.419 . S
C990 C991 1.362 . S
C991 H981 0.930 . S
C991 C984 1.409 . S
C991 C990 1.362 . S
H992 C998 0.930 . S
H993 C1001 0.930 . S
H994 C1002 0.930 . S
H995 C1003 0.930 . S
H996 C1006 0.930 . S
H997 C1007 0.930 . S
C998 H992 0.930 . S
C998 C999 1.355 . S
C998 C1000 1.415 . S
C999 C998 1.355 . S
C999 C1001 1.419 . S
C1000 C998 1.415 . S
C1000 C1005 1.425 . S
C1000 C1007 1.409 . S
C1001 H993 0.930 . S
C1001 C999 1.419 . S
C1001 C1002 1.362 . S
C1002 H994 0.930 . S
C1002 C1001 1.362 . S
C1002 C1005 1.409 . S
C1003 H995 0.930 . S
C1003 C1004 1.355 . S
C1003 C1005 1.415 . S
C1004 C1003 1.355 . S
C1004 C1006 1.419 . S
C1005 C1000 1.425 . S
C1005 C1002 1.409 . S
C1005 C1003 1.415 . S
C1006 H996 0.930 . S
C1006 C1004 1.419 . S
C1006 C1007 1.362 . S
C1007 H997 0.930 . S
C1007 C1000 1.409 . S
C1007 C1006 1.362 . S
H1008 C1014 0.930 . S
H1009 C1017 0.930 . S
H1010 C1018 0.930 . S
H1011 C1019 0.930 . S
H1012 C1022 0.930 . S
H1013 C1023 0.930 . S
C1014 H1008 0.930 . S
C1014 C1015 1.355 . S
C1014 C1016 1.415 . S
C1015 C1014 1.355 . S
C1015 C1017 1.419 . S
C1016 C1014 1.415 . S
C1016 C1021 1.425 . S
C1016 C1023 1.409 . S
C1017 H1009 0.930 . S
C1017 C1015 1.419 . S
C1017 C1018 1.362 . S
C1018 H1010 0.930 . S
C1018 C1017 1.362 . S
C1018 C1021 1.409 . S
C1019 H1011 0.930 . S
C1019 C1020 1.355 . S
C1019 C1021 1.415 . S
C1020 C1019 1.355 . S
C1020 C1022 1.419 . S
C1021 C1016 1.425 . S
C1021 C1018 1.409 . S
C1021 C1019 1.415 . S
C1022 H1012 0.930 . S
C1022 C1020 1.419 . S
C1022 C1023 1.362 . S
C1023 H1013 0.930 . S
C1023 C1016 1.409 . S
C1023 C1022 1.362 . S
H1024 C1030 0.930 . S
H1025 C1033 0.930 . S
H1026 C1034 0.930 . S
H1027 C1035 0.930 . S
H1028 C1038 0.930 . S
H1029 C1039 0.930 . S
C1030 H1024 0.930 . S
C1030 C1031 1.355 . S
C1030 C1032 1.415 . S
C1031 C1030 1.355 . S
C1031 C1033 1.419 . S
C1032 C1030 1.415 . S
C1032 C1037 1.425 . S
C1032 C1039 1.409 . S
C1033 H1025 0.930 . S
C1033 C1031 1.419 . S
C1033 C1034 1.362 . S
C1034 H1026 0.930 . S
C1034 C1033 1.362 . S
C1034 C1037 1.409 . S
C1035 H1027 0.930 . S
C1035 C1036 1.355 . S
C1035 C1037 1.415 . S
C1036 C1035 1.355 . S
C1036 C1038 1.419 . S
C1037 C1032 1.425 . S
C1037 C1034 1.409 . S
C1037 C1035 1.415 . S
C1038 H1028 0.930 . S
C1038 C1036 1.419 . S
C1038 C1039 1.362 . S
C1039 H1029 0.930 . S
C1039 C1032 1.409 . S
C1039 C1038 1.362 . S
H1040 C1046 0.930 . S
H1041 C1049 0.930 . S
H1042 C1050 0.930 . S
H1043 C1051 0.930 . S
H1044 C1054 0.930 . S
H1045 C1055 0.930 . S
C1046 H1040 0.930 . S
C1046 C1047 1.355 . S
C1046 C1048 1.415 . S
C1047 C1046 1.355 . S
C1047 C1049 1.419 . S
C1048 C1046 1.415 . S
C1048 C1053 1.425 . S
C1048 C1055 1.409 . S
C1049 H1041 0.930 . S
C1049 C1047 1.419 . S
C1049 C1050 1.362 . S
C1050 H1042 0.930 . S
C1050 C1049 1.362 . S
C1050 C1053 1.409 . S
C1051 H1043 0.930 . S
C1051 C1052 1.355 . S
C1051 C1053 1.415 . S
C1052 C1051 1.355 . S
C1052 C1054 1.419 . S
C1053 C1048 1.425 . S
C1053 C1050 1.409 . S
C1053 C1051 1.415 . S
C1054 H1044 0.930 . S
C1054 C1052 1.419 . S
C1054 C1055 1.362 . S
C1055 H1045 0.930 . S
C1055 C1048 1.409 . S
C1055 C1054 1.362 . S
H1056 C1062 0.930 . S
H1057 C1065 0.930 . S
H1058 C1066 0.930 . S
H1059 C1067 0.930 1_565 S
H1060 C1070 0.930 . S
H1061 C1071 0.930 . S
C1062 H1056 0.930 . S
C1062 C1063 1.355 1_545 S
C1062 C1064 1.415 . S
C1063 C1062 1.355 1_565 S
C1063 C1065 1.419 . S
C1064 C1062 1.415 . S
C1064 C1069 1.425 1_545 S
C1064 C1071 1.409 . S
C1065 H1057 0.930 . S
C1065 C1063 1.419 . S
C1065 C1066 1.362 . S
C1066 H1058 0.930 . S
C1066 C1065 1.362 . S
C1066 C1069 1.409 . S
C1067 H1059 0.930 1_545 S
C1067 C1068 1.355 . S
C1067 C1069 1.415 1_545 S
C1068 C1067 1.355 . S
C1068 C1070 1.419 . S
C1069 C1064 1.425 1_565 S
C1069 C1066 1.409 . S
C1069 C1067 1.415 1_565 S
C1070 H1060 0.930 . S
C1070 C1068 1.419 . S
C1070 C1071 1.362 . S
C1071 H1061 0.930 . S
C1071 C1064 1.409 . S
C1071 C1070 1.362 . S
H1072 C1078 0.930 . S
H1073 C1081 0.930 . S
H1074 C1082 0.930 1_556 S
H1075 C1083 0.930 . S
H1076 C1086 0.930 . S
H1077 C1087 0.930 . S
C1078 H1072 0.930 . S
C1078 C1079 1.355 . S
C1078 C1080 1.415 . S
C1079 C1078 1.355 . S
C1079 C1081 1.419 1_554 S
C1080 C1078 1.415 . S
C1080 C1085 1.425 . S
C1080 C1087 1.409 . S
C1081 H1073 0.930 . S
C1081 C1079 1.419 1_556 S
C1081 C1082 1.362 1_556 S
C1082 H1074 0.930 1_554 S
C1082 C1081 1.362 1_554 S
C1082 C1085 1.409 . S
C1083 H1075 0.930 . S
C1083 C1084 1.355 . S
C1083 C1085 1.415 . S
C1084 C1083 1.355 . S
C1084 C1086 1.419 . S
C1085 C1080 1.425 . S
C1085 C1082 1.409 . S
C1085 C1083 1.415 . S
C1086 H1076 0.930 . S
C1086 C1084 1.419 . S
C1086 C1087 1.362 . S
C1087 H1077 0.930 . S
C1087 C1080 1.409 . S
C1087 C1086 1.362 . S
H1088 C1094 0.930 . S
H1089 C1097 0.930 . S
H1090 C1098 0.930 . S
H1091 C1099 0.930 . S
H1092 C1102 0.930 . S
H1093 C1103 0.930 . S
C1094 H1088 0.930 . S
C1094 C1095 1.355 . S
C1094 C1096 1.415 . S
C1095 C1094 1.355 . S
C1095 C1097 1.419 . S
C1096 C1094 1.415 . S
C1096 C1101 1.425 . S
C1096 C1103 1.409 . S
C1097 H1089 0.930 . S
C1097 C1095 1.419 . S
C1097 C1098 1.362 . S
C1098 H1090 0.930 . S
C1098 C1097 1.362 . S
C1098 C1101 1.409 . S
C1099 H1091 0.930 . S
C1099 C1100 1.355 . S
C1099 C1101 1.415 . S
C1100 C1099 1.355 . S
C1100 C1102 1.419 . S
C1101 C1096 1.425 . S
C1101 C1098 1.409 . S
C1101 C1099 1.415 . S
C1102 H1092 0.930 . S
C1102 C1100 1.419 . S
C1102 C1103 1.362 . S
C1103 H1093 0.930 . S
C1103 C1096 1.409 . S
C1103 C1102 1.362 . S
H1104 C1110 0.930 . S
H1105 C1113 0.930 . S
H1106 C1114 0.930 . S
H1107 C1115 0.930 . S
H1108 C1118 0.930 . S
H1109 C1119 0.930 . S
C1110 H1104 0.930 . S
C1110 C1111 1.355 . S
C1110 C1112 1.415 . S
C1111 C1110 1.355 . S
C1111 C1113 1.419 . S
C1112 C1110 1.415 . S
C1112 C1117 1.425 . S
C1112 C1119 1.409 . S
C1113 H1105 0.930 . S
C1113 C1111 1.419 . S
C1113 C1114 1.362 . S
C1114 H1106 0.930 . S
C1114 C1113 1.362 . S
C1114 C1117 1.409 . S
C1115 H1107 0.930 . S
C1115 C1116 1.355 . S
C1115 C1117 1.415 . S
C1116 C1115 1.355 . S
C1116 C1118 1.419 . S
C1117 C1112 1.425 . S
C1117 C1114 1.409 . S
C1117 C1115 1.415 . S
C1118 H1108 0.930 . S
C1118 C1116 1.419 . S
C1118 C1119 1.362 . S
C1119 H1109 0.930 . S
C1119 C1112 1.409 . S
C1119 C1118 1.362 . S
H1120 C1126 0.930 . S
H1121 C1129 0.930 . S
H1122 C1130 0.930 . S
H1123 C1131 0.930 . S
H1124 C1134 0.930 . S
H1125 C1135 0.930 . S
C1126 H1120 0.930 . S
C1126 C1127 1.355 . S
C1126 C1128 1.415 . S
C1127 C1126 1.355 . S
C1127 C1129 1.419 . S
C1128 C1126 1.415 . S
C1128 C1133 1.425 . S
C1128 C1135 1.409 . S
C1129 H1121 0.930 . S
C1129 C1127 1.419 . S
C1129 C1130 1.362 . S
C1130 H1122 0.930 . S
C1130 C1129 1.362 . S
C1130 C1133 1.409 . S
C1131 H1123 0.930 . S
C1131 C1132 1.355 . S
C1131 C1133 1.415 . S
C1132 C1131 1.355 . S
C1132 C1134 1.419 . S
C1133 C1128 1.425 . S
C1133 C1130 1.409 . S
C1133 C1131 1.415 . S
C1134 H1124 0.930 . S
C1134 C1132 1.419 . S
C1134 C1135 1.362 . S
C1135 H1125 0.930 . S
C1135 C1128 1.409 . S
C1135 C1134 1.362 . S
H1136 C1142 0.930 . S
H1137 C1145 0.930 . S
H1138 C1146 0.930 . S
H1139 C1147 0.930 . S
H1140 C1150 0.930 . S
H1141 C1151 0.930 . S
C1142 H1136 0.930 . S
C1142 C1143 1.355 . S
C1142 C1144 1.415 . S
C1143 C1142 1.355 . S
C1143 C1145 1.419 . S
C1144 C1142 1.415 . S
C1144 C1149 1.425 . S
C1144 C1151 1.409 . S
C1145 H1137 0.930 . S
C1145 C1143 1.419 . S
C1145 C1146 1.362 . S
C1146 H1138 0.930 . S
C1146 C1145 1.362 . S
C1146 C1149 1.409 . S
C1147 H1139 0.930 . S
C1147 C1148 1.355 . S
C1147 C1149 1.415 . S
C1148 C1147 1.355 . S
C1148 C1150 1.419 . S
C1149 C1144 1.425 . S
C1149 C1146 1.409 . S
C1149 C1147 1.415 . S
C1150 H1140 0.930 . S
C1150 C1148 1.419 . S
C1150 C1151 1.362 . S
C1151 H1141 0.930 . S
C1151 C1144 1.409 . S
C1151 C1150 1.362 . S
H1152 C1158 0.930 . S
H1153 C1161 0.930 . S
H1154 C1162 0.930 . S
H1155 C1163 0.930 . S
H1156 C1166 0.930 . S
H1157 C1167 0.930 . S
C1158 H1152 0.930 . S
C1158 C1159 1.355 . S
C1158 C1160 1.415 . S
C1159 C1158 1.355 . S
C1159 C1161 1.419 . S
C1160 C1158 1.415 . S
C1160 C1165 1.425 . S
C1160 C1167 1.409 . S
C1161 H1153 0.930 . S
C1161 C1159 1.419 . S
C1161 C1162 1.362 . S
C1162 H1154 0.930 . S
C1162 C1161 1.362 . S
C1162 C1165 1.409 . S
C1163 H1155 0.930 . S
C1163 C1164 1.355 . S
C1163 C1165 1.415 . S
C1164 C1163 1.355 . S
C1164 C1166 1.419 . S
C1165 C1160 1.425 . S
C1165 C1162 1.409 . S
C1165 C1163 1.415 . S
C1166 H1156 0.930 . S
C1166 C1164 1.419 . S
C1166 C1167 1.362 . S
C1167 H1157 0.930 . S
C1167 C1160 1.409 . S
C1167 C1166 1.362 . S
H1168 C1174 0.930 . S
H1169 C1177 0.930 . S
H1170 C1178 0.930 . S
H1171 C1179 0.930 . S
H1172 C1182 0.930 . S
H1173 C1183 0.930 . S
C1174 H1168 0.930 . S
C1174 C1175 1.355 . S
C1174 C1176 1.415 . S
C1175 C1174 1.355 . S
C1175 C1177 1.419 . S
C1176 C1174 1.415 . S
C1176 C1181 1.425 . S
C1176 C1183 1.409 . S
C1177 H1169 0.930 . S
C1177 C1175 1.419 . S
C1177 C1178 1.362 . S
C1178 H1170 0.930 . S
C1178 C1177 1.362 . S
C1178 C1181 1.409 . S
C1179 H1171 0.930 . S
C1179 C1180 1.355 . S
C1179 C1181 1.415 . S
C1180 C1179 1.355 . S
C1180 C1182 1.419 . S
C1181 C1176 1.425 . S
C1181 C1178 1.409 . S
C1181 C1179 1.415 . S
C1182 H1172 0.930 . S
C1182 C1180 1.419 . S
C1182 C1183 1.362 . S
C1183 H1173 0.930 . S
C1183 C1176 1.409 . S
C1183 C1182 1.362 . S
H1184 C1190 0.930 . S
H1185 C1193 0.930 . S
H1186 C1194 0.930 . S
H1187 C1195 0.930 . S
H1188 C1198 0.930 . S
H1189 C1199 0.930 . S
C1190 H1184 0.930 . S
C1190 C1191 1.355 . S
C1190 C1192 1.415 . S
C1191 C1190 1.355 . S
C1191 C1193 1.419 . S
C1192 C1190 1.415 . S
C1192 C1197 1.425 . S
C1192 C1199 1.409 . S
C1193 H1185 0.930 . S
C1193 C1191 1.419 . S
C1193 C1194 1.362 . S
C1194 H1186 0.930 . S
C1194 C1193 1.362 . S
C1194 C1197 1.409 . S
C1195 H1187 0.930 . S
C1195 C1196 1.355 . S
C1195 C1197 1.415 . S
C1196 C1195 1.355 . S
C1196 C1198 1.419 . S
C1197 C1192 1.425 . S
C1197 C1194 1.409 . S
C1197 C1195 1.415 . S
C1198 H1188 0.930 . S
C1198 C1196 1.419 . S
C1198 C1199 1.362 . S
C1199 H1189 0.930 . S
C1199 C1192 1.409 . S
C1199 C1198 1.362 . S
H1200 C1206 0.930 . S
H1201 C1209 0.930 . S
H1202 C1210 0.930 . S
H1203 C1211 0.930 . S
H1204 C1214 0.930 . S
H1205 C1215 0.930 . S
C1206 H1200 0.930 . S
C1206 C1207 1.355 . S
C1206 C1208 1.415 . S
C1207 C1206 1.355 . S
C1207 C1209 1.419 . S
C1208 C1206 1.415 . S
C1208 C1213 1.425 . S
C1208 C1215 1.409 . S
C1209 H1201 0.930 . S
C1209 C1207 1.419 . S
C1209 C1210 1.362 . S
C1210 H1202 0.930 . S
C1210 C1209 1.362 . S
C1210 C1213 1.409 . S
C1211 H1203 0.930 . S
C1211 C1212 1.355 . S
C1211 C1213 1.415 . S
C1212 C1211 1.355 . S
C1212 C1214 1.419 . S
C1213 C1208 1.425 . S
C1213 C1210 1.409 . S
C1213 C1211 1.415 . S
C1214 H1204 0.930 . S
C1214 C1212 1.419 . S
C1214 C1215 1.362 . S
C1215 H1205 0.930 . S
C1215 C1208 1.409 . S
C1215 C1214 1.362 . S
H1216 C1222 0.930 . S
H1217 C1225 0.930 . S
H1218 C1226 0.930 . S
H1219 C1227 0.930 . S
H1220 C1230 0.930 . S
H1221 C1231 0.930 . S
C1222 H1216 0.930 . S
C1222 C1223 1.355 . S
C1222 C1224 1.415 . S
C1223 C1222 1.355 . S
C1223 C1225 1.419 . S
C1224 C1222 1.415 . S
C1224 C1229 1.425 . S
C1224 C1231 1.409 . S
C1225 H1217 0.930 . S
C1225 C1223 1.419 . S
C1225 C1226 1.362 . S
C1226 H1218 0.930 . S
C1226 C1225 1.362 . S
C1226 C1229 1.409 . S
C1227 H1219 0.930 . S
C1227 C1228 1.355 . S
C1227 C1229 1.415 . S
C1228 C1227 1.355 . S
C1228 C1230 1.419 . S
C1229 C1224 1.425 . S
C1229 C1226 1.409 . S
C1229 C1227 1.415 . S
C1230 H1220 0.930 . S
C1230 C1228 1.419 . S
C1230 C1231 1.362 . S
C1231 H1221 0.930 . S
C1231 C1224 1.409 . S
C1231 C1230 1.362 . S
H1232 C1238 0.930 . S
H1233 C1241 0.930 . S
H1234 C1242 0.930 1_556 S
H1235 C1243 0.930 1_556 S
H1236 C1246 0.930 . S
H1237 C1247 0.930 . S
C1238 H1232 0.930 . S
C1238 C1239 1.355 . S
C1238 C1240 1.415 . S
C1239 C1238 1.355 . S
C1239 C1241 1.419 . S
C1240 C1238 1.415 . S
C1240 C1245 1.425 . S
C1240 C1247 1.409 . S
C1241 H1233 0.930 . S
C1241 C1239 1.419 . S
C1241 C1242 1.362 . S
C1242 H1234 0.930 1_554 S
C1242 C1241 1.362 . S
C1242 C1245 1.409 . S
C1243 H1235 0.930 1_554 S
C1243 C1244 1.355 . S
C1243 C1245 1.415 . S
C1244 C1243 1.355 . S
C1244 C1246 1.419 . S
C1245 C1240 1.425 . S
C1245 C1242 1.409 . S
C1245 C1243 1.415 . S
C1246 H1236 0.930 . S
C1246 C1244 1.419 . S
C1246 C1247 1.362 . S
C1247 H1237 0.930 . S
C1247 C1240 1.409 . S
C1247 C1246 1.362 . S
H1248 C1254 0.930 . S
H1249 C1257 0.930 . S
H1250 C1258 0.930 . S
H1251 C1259 0.930 . S
H1252 C1262 0.930 . S
H1253 C1263 0.930 . S
C1254 H1248 0.930 . S
C1254 C1255 1.355 . S
C1254 C1256 1.415 . S
C1255 C1254 1.355 . S
C1255 C1257 1.419 . S
C1256 C1254 1.415 . S
C1256 C1261 1.425 . S
C1256 C1263 1.409 . S
C1257 H1249 0.930 . S
C1257 C1255 1.419 . S
C1257 C1258 1.362 . S
C1258 H1250 0.930 . S
C1258 C1257 1.362 . S
C1258 C1261 1.409 . S
C1259 H1251 0.930 . S
C1259 C1260 1.355 . S
C1259 C1261 1.415 . S
C1260 C1259 1.355 . S
C1260 C1262 1.419 . S
C1261 C1256 1.425 . S
C1261 C1258 1.409 . S
C1261 C1259 1.415 . S
C1262 H1252 0.930 . S
C1262 C1260 1.419 . S
C1262 C1263 1.362 . S
C1263 H1253 0.930 . S
C1263 C1256 1.409 . S
C1263 C1262 1.362 . S
H1264 C1270 0.930 . S
H1265 C1273 0.930 . S
H1266 C1274 0.930 . S
H1267 C1275 0.930 . S
H1268 C1278 0.930 . S
H1269 C1279 0.930 . S
C1270 H1264 0.930 . S
C1270 C1271 1.355 . S
C1270 C1272 1.415 . S
C1271 C1270 1.355 . S
C1271 C1273 1.419 . S
C1272 C1270 1.415 . S
C1272 C1277 1.425 . S
C1272 C1279 1.409 . S
C1273 H1265 0.930 . S
C1273 C1271 1.419 . S
C1273 C1274 1.362 . S
C1274 H1266 0.930 . S
C1274 C1273 1.362 . S
C1274 C1277 1.409 . S
C1275 H1267 0.930 . S
C1275 C1276 1.355 . S
C1275 C1277 1.415 . S
C1276 C1275 1.355 . S
C1276 C1278 1.419 . S
C1277 C1272 1.425 . S
C1277 C1274 1.409 . S
C1277 C1275 1.415 . S
C1278 H1268 0.930 . S
C1278 C1276 1.419 . S
C1278 C1279 1.362 . S
C1279 H1269 0.930 . S
C1279 C1272 1.409 . S
C1279 C1278 1.362 . S
H1280 C1286 0.930 . S
H1281 C1289 0.930 . S
H1282 C1290 0.930 . S
H1283 C1291 0.930 . S
H1284 C1294 0.930 . S
H1285 C1295 0.930 . S
C1286 H1280 0.930 . S
C1286 C1287 1.355 . S
C1286 C1288 1.415 . S
C1287 C1286 1.355 . S
C1287 C1289 1.419 . S
C1288 C1286 1.415 . S
C1288 C1293 1.425 . S
C1288 C1295 1.409 . S
C1289 H1281 0.930 . S
C1289 C1287 1.419 . S
C1289 C1290 1.362 . S
C1290 H1282 0.930 . S
C1290 C1289 1.362 . S
C1290 C1293 1.409 . S
C1291 H1283 0.930 . S
C1291 C1292 1.355 . S
C1291 C1293 1.415 . S
C1292 C1291 1.355 . S
C1292 C1294 1.419 . S
C1293 C1288 1.425 . S
C1293 C1290 1.409 . S
C1293 C1291 1.415 . S
C1294 H1284 0.930 . S
C1294 C1292 1.419 . S
C1294 C1295 1.362 . S
C1295 H1285 0.930 . S
C1295 C1288 1.409 . S
C1295 C1294 1.362 . S
H1296 C1302 0.930 . S
H1297 C1305 0.930 . S
H1298 C1306 0.930 . S
H1299 C1307 0.930 . S
H1300 C1310 0.930 . S
H1301 C1311 0.930 . S
C1302 H1296 0.930 . S
C1302 C1303 1.355 . S
C1302 C1304 1.415 . S
C1303 C1302 1.355 . S
C1303 C1305 1.419 . S
C1304 C1302 1.415 . S
C1304 C1309 1.425 . S
C1304 C1311 1.409 . S
C1305 H1297 0.930 . S
C1305 C1303 1.419 . S
C1305 C1306 1.362 . S
C1306 H1298 0.930 . S
C1306 C1305 1.362 . S
C1306 C1309 1.409 . S
C1307 H1299 0.930 . S
C1307 C1308 1.355 . S
C1307 C1309 1.415 . S
C1308 C1307 1.355 . S
C1308 C1310 1.419 . S
C1309 C1304 1.425 . S
C1309 C1306 1.409 . S
C1309 C1307 1.415 . S
C1310 H1300 0.930 . S
C1310 C1308 1.419 . S
C1310 C1311 1.362 . S
C1311 H1301 0.930 . S
C1311 C1304 1.409 . S
C1311 C1310 1.362 . S
H1312 C1318 0.930 . S
H1313 C1321 0.930 . S
H1314 C1322 0.930 . S
H1315 C1323 0.930 . S
H1316 C1326 0.930 . S
H1317 C1327 0.930 . S
C1318 H1312 0.930 . S
C1318 C1319 1.355 . S
C1318 C1320 1.415 . S
C1319 C1318 1.355 . S
C1319 C1321 1.419 . S
C1320 C1318 1.415 . S
C1320 C1325 1.425 . S
C1320 C1327 1.409 . S
C1321 H1313 0.930 . S
C1321 C1319 1.419 . S
C1321 C1322 1.362 . S
C1322 H1314 0.930 . S
C1322 C1321 1.362 . S
C1322 C1325 1.409 . S
C1323 H1315 0.930 . S
C1323 C1324 1.355 . S
C1323 C1325 1.415 . S
C1324 C1323 1.355 . S
C1324 C1326 1.419 . S
C1325 C1320 1.425 . S
C1325 C1322 1.409 . S
C1325 C1323 1.415 . S
C1326 H1316 0.930 . S
C1326 C1324 1.419 . S
C1326 C1327 1.362 . S
C1327 H1317 0.930 . S
C1327 C1320 1.409 . S
C1327 C1326 1.362 . S
H1328 C1334 0.930 . S
H1329 C1337 0.930 . S
H1330 C1338 0.930 . S
H1331 C1339 0.930 . S
H1332 C1342 0.930 . S
H1333 C1343 0.930 . S
C1334 H1328 0.930 . S
C1334 C1335 1.355 . S
C1334 C1336 1.415 . S
C1335 C1334 1.355 . S
C1335 C1337 1.419 . S
C1336 C1334 1.415 . S
C1336 C1341 1.425 . S
C1336 C1343 1.409 . S
C1337 H1329 0.930 . S
C1337 C1335 1.419 . S
C1337 C1338 1.362 . S
C1338 H1330 0.930 . S
C1338 C1337 1.362 . S
C1338 C1341 1.409 . S
C1339 H1331 0.930 . S
C1339 C1340 1.355 . S
C1339 C1341 1.415 . S
C1340 C1339 1.355 . S
C1340 C1342 1.419 . S
C1341 C1336 1.425 . S
C1341 C1338 1.409 . S
C1341 C1339 1.415 . S
C1342 H1332 0.930 . S
C1342 C1340 1.419 . S
C1342 C1343 1.362 . S
C1343 H1333 0.930 . S
C1343 C1336 1.409 . S
C1343 C1342 1.362 . S
H1344 C1350 0.930 . S
H1345 C1353 0.930 . S
H1346 C1354 0.930 . S
H1347 C1355 0.930 . S
H1348 C1358 0.930 . S
H1349 C1359 0.930 . S
C1350 H1344 0.930 . S
C1350 C1351 1.355 . S
C1350 C1352 1.415 . S
C1351 C1350 1.355 . S
C1351 C1353 1.419 . S
C1352 C1350 1.415 . S
C1352 C1357 1.425 . S
C1352 C1359 1.409 . S
C1353 H1345 0.930 . S
C1353 C1351 1.419 . S
C1353 C1354 1.362 . S
C1354 H1346 0.930 . S
C1354 C1353 1.362 . S
C1354 C1357 1.409 . S
C1355 H1347 0.930 . S
C1355 C1356 1.355 . S
C1355 C1357 1.415 . S
C1356 C1355 1.355 . S
C1356 C1358 1.419 . S
C1357 C1352 1.425 . S
C1357 C1354 1.409 . S
C1357 C1355 1.415 . S
C1358 H1348 0.930 . S
C1358 C1356 1.419 . S
C1358 C1359 1.362 . S
C1359 H1349 0.930 . S
C1359 C1352 1.409 . S
C1359 C1358 1.362 . S
H1360 C1366 0.930 . S
H1361 C1369 0.930 . S
H1362 C1370 0.930 . S
H1363 C1371 0.930 . S
H1364 C1374 0.930 . S
H1365 C1375 0.930 . S
C1366 H1360 0.930 . S
C1366 C1367 1.355 . S
C1366 C1368 1.415 . S
C1367 C1366 1.355 . S
C1367 C1369 1.419 . S
C1368 C1366 1.415 . S
C1368 C1373 1.425 . S
C1368 C1375 1.409 . S
C1369 H1361 0.930 . S
C1369 C1367 1.419 . S
C1369 C1370 1.362 . S
C1370 H1362 0.930 . S
C1370 C1369 1.362 . S
C1370 C1373 1.409 . S
C1371 H1363 0.930 . S
C1371 C1372 1.355 . S
C1371 C1373 1.415 . S
C1372 C1371 1.355 . S
C1372 C1374 1.419 . S
C1373 C1368 1.425 . S
C1373 C1370 1.409 . S
C1373 C1371 1.415 . S
C1374 H1364 0.930 . S
C1374 C1372 1.419 . S
C1374 C1375 1.362 . S
C1375 H1365 0.930 . S
C1375 C1368 1.409 . S
C1375 C1374 1.362 . S
H1376 C1382 0.930 . S
H1377 C1385 0.930 . S
H1378 C1386 0.930 . S
H1379 C1387 0.930 . S
H1380 C1390 0.930 . S
H1381 C1391 0.930 . S
C1382 H1376 0.930 . S
C1382 C1383 1.355 . S
C1382 C1384 1.415 . S
C1383 C1382 1.355 . S
C1383 C1385 1.419 . S
C1384 C1382 1.415 . S
C1384 C1389 1.425 . S
C1384 C1391 1.409 . S
C1385 H1377 0.930 . S
C1385 C1383 1.419 . S
C1385 C1386 1.362 . S
C1386 H1378 0.930 . S
C1386 C1385 1.362 . S
C1386 C1389 1.409 . S
C1387 H1379 0.930 . S
C1387 C1388 1.355 . S
C1387 C1389 1.415 . S
C1388 C1387 1.355 . S
C1388 C1390 1.419 . S
C1389 C1384 1.425 . S
C1389 C1386 1.409 . S
C1389 C1387 1.415 . S
C1390 H1380 0.930 . S
C1390 C1388 1.419 . S
C1390 C1391 1.362 . S
C1391 H1381 0.930 . S
C1391 C1384 1.409 . S
C1391 C1390 1.362 . S
H1392 C1398 0.930 . S
H1393 C1401 0.930 . S
H1394 C1402 0.930 . S
H1395 C1403 0.930 . S
H1396 C1406 0.930 . S
H1397 C1407 0.930 . S
C1398 H1392 0.930 . S
C1398 C1399 1.355 . S
C1398 C1400 1.415 . S
C1399 C1398 1.355 . S
C1399 C1401 1.419 . S
C1400 C1398 1.415 . S
C1400 C1405 1.425 . S
C1400 C1407 1.409 . S
C1401 H1393 0.930 . S
C1401 C1399 1.419 . S
C1401 C1402 1.362 . S
C1402 H1394 0.930 . S
C1402 C1401 1.362 . S
C1402 C1405 1.409 . S
C1403 H1395 0.930 . S
C1403 C1404 1.355 . S
C1403 C1405 1.415 . S
C1404 C1403 1.355 . S
C1404 C1406 1.419 . S
C1405 C1400 1.425 . S
C1405 C1402 1.409 . S
C1405 C1403 1.415 . S
C1406 H1396 0.930 . S
C1406 C1404 1.419 . S
C1406 C1407 1.362 . S
C1407 H1397 0.930 . S
C1407 C1400 1.409 . S
C1407 C1406 1.362 . S
C647 C20 1.200 . S
C652 C44 1.195 . S
C663 C100 1.979 . S
C668 C71 1.959 . S
C679 C151 2.193 . S
C684 C82 2.237 . S
C695 C2 1.428 . S
C700 C124 1.391 . S
C711 C23 1.428 . S
C716 C385 1.388 . S
C727 C311 1.227 . S
C732 C65 1.240 . S
C743 C111 1.974 . S
C748 C420 1.965 . S
C759 C140 2.211 . S
C764 C543 2.233 . S
C775 C351 1.978 . S
C780 C60 1.967 . S
C791 C500 2.210 . S
C796 C103 2.233 . S
C807 C583 1.427 . S
C812 C145 1.379 . S
C823 C31 1.275 . S
C828 C465 1.249 . S
C839 C4 0.610 . S
C844 C345 0.198 . S
C855 C482 1.794 . S
C860 C183 1.764 . S
C871 C204 0.250 . S
C876 C585 0.658 . S
C887 C463 1.777 . S
C892 C242 1.779 . S
C903 C84 0.345 . S
C908 C305 0.717 . S
C919 C383 1.794 . S
C924 C162 1.763 . S
C935 C263 1.759 . S
C940 C402 1.794 . S
C951 C231 1.977 . S
C956 C460 1.968 . S
C967 C380 2.212 . S
C972 C223 2.218 . S
C983 C444 1.262 . S
C988 C300 1.282 . S
C999 C220 1.979 . S
C1004 C191 1.964 . S
C1015 C391 2.188 . S
C1020 C322 2.237 . S
C1031 C540 1.971 . S
C1036 C471 1.961 . S
C1047 C271 2.216 . S
C1052 C202 2.225 . S
C1063 C364 1.376 . S
C1068 C562 1.426 . S
C1079 C524 0.322 . S
C1084 C25 0.709 . S
C1095 C105 0.250 . S
C1100 C564 0.658 . S
C1111 C503 1.795 . S
C1116 C42 1.762 . S
C1127 C284 0.482 . S
C1132 C225 0.158 . S
C1143 C122 1.758 . S
C1148 C423 1.796 . S
C1159 C511 2.213 . S
C1164 C522 2.231 . S
C1175 C282 1.356 . S
C1180 C484 1.340 . S
C1191 C265 1.396 . S
C1196 C303 1.393 . S
C1207 C180 1.938 . S
C1212 C551 1.966 . S
C1223 C505 1.315 . S
C1228 C623 1.359 . S
C1239 C625 0.484 . S
C1244 C324 0.150 . S
C1255 C63 1.762 . S
C1260 C362 1.795 . S
C1271 C343 2.225 . S
C1276 C260 2.216 . S
C1287 C340 1.967 . S
C1292 C431 1.947 . S
C1303 C602 1.428 . S
C1308 C244 1.384 . S
C1319 C545 0.209 . S
C1324 C604 0.621 . S
C1335 C442 1.795 . S
C1340 C143 1.759 . S
C1351 C404 1.258 . S
C1356 C580 1.280 . S
C1367 C425 1.219 . S
C1372 C631 1.210 . S
C1383 C185 1.280 . S
C1388 C591 1.284 . S
C1399 C620 1.243 . S
C1404 C164 1.257 . S
