# Generated by pormake.
# Topology ukl, (4)-cn, num edge types: 1
# Building blocks:
#     Node 0, Type 0, BuildingBlock: KOZSID_clean_sbu_0, # of connection points: 4
#     Node 1, Type 0, BuildingBlock: KOZSID_clean_sbu_0, # of connection points: 4
#     Node 2, Type 0, BuildingBlock: KOZSID_clean_sbu_0, # of connection points: 4
#     Node 3, Type 0, BuildingBlock: KOZSID_clean_sbu_0, # of connection points: 4
#     Node 4, Type 0, BuildingBlock: KOZSID_clean_sbu_0, # of connection points: 4
#     Node 5, Type 0, BuildingBlock: KOZSID_clean_sbu_0, # of connection points: 4
#     Node 6, Type 0, BuildingBlock: KOZSID_clean_sbu_0, # of connection points: 4
#     Node 7, Type 0, BuildingBlock: KOZSID_clean_sbu_0, # of connection points: 4
#     Node 8, Type 0, BuildingBlock: KOZSID_clean_sbu_0, # of connection points: 4
#     Node 9, Type 0, BuildingBlock: KOZSID_clean_sbu_0, # of connection points: 4
#     Node 10, Type 0, BuildingBlock: KOZSID_clean_sbu_0, # of connection points: 4
#     Node 11, Type 0, BuildingBlock: KOZSID_clean_sbu_0, # of connection points: 4
#     Node 12, Type 0, BuildingBlock: KOZSID_clean_sbu_0, # of connection points: 4
#     Node 13, Type 0, BuildingBlock: KOZSID_clean_sbu_0, # of connection points: 4
#     Node 14, Type 0, BuildingBlock: KOZSID_clean_sbu_0, # of connection points: 4
#     Node 15, Type 0, BuildingBlock: KOZSID_clean_sbu_0, # of connection points: 4
#     Edge 16, Type (0, 0), BuildingBlock: OJICUG_clean_linker_0, # of connection points: 2
#     Edge 17, Type (0, 0), BuildingBlock: OJICUG_clean_linker_0, # of connection points: 2
#     Edge 18, Type (0, 0), BuildingBlock: OJICUG_clean_linker_0, # of connection points: 2
#     Edge 19, Type (0, 0), BuildingBlock: OJICUG_clean_linker_0, # of connection points: 2
#     Edge 20, Type (0, 0), BuildingBlock: OJICUG_clean_linker_0, # of connection points: 2
#     Edge 21, Type (0, 0), BuildingBlock: OJICUG_clean_linker_0, # of connection points: 2
#     Edge 22, Type (0, 0), BuildingBlock: OJICUG_clean_linker_0, # of connection points: 2
#     Edge 23, Type (0, 0), BuildingBlock: OJICUG_clean_linker_0, # of connection points: 2
#     Edge 24, Type (0, 0), BuildingBlock: OJICUG_clean_linker_0, # of connection points: 2
#     Edge 25, Type (0, 0), BuildingBlock: OJICUG_clean_linker_0, # of connection points: 2
#     Edge 26, Type (0, 0), BuildingBlock: OJICUG_clean_linker_0, # of connection points: 2
#     Edge 27, Type (0, 0), BuildingBlock: OJICUG_clean_linker_0, # of connection points: 2
#     Edge 28, Type (0, 0), BuildingBlock: OJICUG_clean_linker_0, # of connection points: 2
#     Edge 29, Type (0, 0), BuildingBlock: OJICUG_clean_linker_0, # of connection points: 2
#     Edge 30, Type (0, 0), BuildingBlock: OJICUG_clean_linker_0, # of connection points: 2
#     Edge 31, Type (0, 0), BuildingBlock: OJICUG_clean_linker_0, # of connection points: 2
#     Edge 32, Type (0, 0), BuildingBlock: OJICUG_clean_linker_0, # of connection points: 2
#     Edge 33, Type (0, 0), BuildingBlock: OJICUG_clean_linker_0, # of connection points: 2
#     Edge 34, Type (0, 0), BuildingBlock: OJICUG_clean_linker_0, # of connection points: 2
#     Edge 35, Type (0, 0), BuildingBlock: OJICUG_clean_linker_0, # of connection points: 2
#     Edge 36, Type (0, 0), BuildingBlock: OJICUG_clean_linker_0, # of connection points: 2
#     Edge 37, Type (0, 0), BuildingBlock: OJICUG_clean_linker_0, # of connection points: 2
#     Edge 38, Type (0, 0), BuildingBlock: OJICUG_clean_linker_0, # of connection points: 2
#     Edge 39, Type (0, 0), BuildingBlock: OJICUG_clean_linker_0, # of connection points: 2
#     Edge 40, Type (0, 0), BuildingBlock: OJICUG_clean_linker_0, # of connection points: 2
#     Edge 41, Type (0, 0), BuildingBlock: OJICUG_clean_linker_0, # of connection points: 2
#     Edge 42, Type (0, 0), BuildingBlock: OJICUG_clean_linker_0, # of connection points: 2
#     Edge 43, Type (0, 0), BuildingBlock: OJICUG_clean_linker_0, # of connection points: 2
#     Edge 44, Type (0, 0), BuildingBlock: OJICUG_clean_linker_0, # of connection points: 2
#     Edge 45, Type (0, 0), BuildingBlock: OJICUG_clean_linker_0, # of connection points: 2
#     Edge 46, Type (0, 0), BuildingBlock: OJICUG_clean_linker_0, # of connection points: 2
#     Edge 47, Type (0, 0), BuildingBlock: OJICUG_clean_linker_0, # of connection points: 2
# Relax obj value: 0.102
# Max RMSD: 0.123
# Mean RMSD: 0.088
data_MOF--net-ukl--node1-KOZSID_clean_sbu_0--edge1-OJICUG_clean_linker_0
_symmetry_space_group_name_H-M    P1
_symmetry_Int_Tables_number       1
_symmetry_cell_setting            triclinic
loop_
_symmetry_equiv_pos_as_xyz
'x, y, z'
_cell_length_a     28.364649
_cell_length_b     29.66499
_cell_length_c     22.000845
_cell_angle_alpha  89.983134
_cell_angle_beta   90.040527
_cell_angle_gamma 95.619818
loop_
_atom_site_label
_atom_site_type_symbol
_atom_site_fract_x
_atom_site_fract_y
_atom_site_fract_z
_atom_type_partial_charge
C0 C 0.42614 0.16776 0.94701 0.0
C1 C 0.42535 0.16657 0.88422 0.0
C2 C 0.3807 0.15051 0.86687 0.0
C3 C 0.35675 0.14239 0.92034 0.0
N4 N 0.38334 0.15371 0.96978 0.0
Co5 Co 0.36568 0.14309 0.05552 0.0
N6 N 0.30958 0.1002 0.03232 0.0
C7 C 0.29391 0.09106 0.97556 0.0
C8 C 0.25473 0.06041 0.97335 0.0
C9 C 0.24431 0.04922 0.03174 0.0
C10 C 0.27671 0.07552 0.06696 0.0
N11 N 0.34467 0.13316 0.14233 0.0
C12 C 0.30344 0.11176 0.1653 0.0
C13 C 0.2973 0.12246 0.2255 0.0
C14 C 0.33527 0.15188 0.24168 0.0
C15 C 0.36219 0.15787 0.19009 0.0
N16 N 0.42165 0.18423 0.07915 0.0
C17 C 0.43178 0.20121 0.135 0.0
C18 C 0.47883 0.21561 0.14197 0.0
C19 C 0.49928 0.20663 0.08763 0.0
C20 C 0.46317 0.18965 0.04891 0.0
N21 N 0.32787 0.19655 0.05263 0.0
C22 C 0.28354 0.27762 0.06964 0.0
C23 C 0.32878 0.27845 0.04379 0.0
C24 C 0.34971 0.2378 0.03454 0.0
C25 C 0.26006 0.23493 0.08328 0.0
C26 C 0.28269 0.19531 0.07447 0.0
N27 N 0.40972 0.09307 0.05578 0.0
C28 C 0.48785 0.07321 0.08785 0.0
C29 C 0.49452 0.04785 0.03501 0.0
C30 C 0.45511 0.04339 -0.00516 0.0
C31 C 0.41355 0.06544 0.00625 0.0
C32 C 0.44634 0.09507 0.09698 0.0
H33 H 0.38599 0.0625 0.97234 0.0
H34 H 0.44446 0.11474 0.13782 0.0
H35 H 0.38455 0.24015 0.01441 0.0
H36 H 0.26387 0.16402 0.08666 0.0
C37 C 0.31594 0.11284 0.92585 0.0
C38 C 0.46854 0.17947 0.98374 0.0
C39 C 0.2666 0.08484 0.13034 0.0
C40 C 0.40185 0.18903 0.18363 0.0
H41 H 0.45472 0.17423 0.85456 0.0
H42 H 0.36876 0.1415 0.82131 0.0
H43 H 0.23374 0.0498 0.93492 0.0
H44 H 0.21319 0.02812 0.04677 0.0
H45 H 0.26662 0.11228 0.25283 0.0
H46 H 0.34112 0.16922 0.28461 0.0
H47 H 0.4971 0.22619 0.18357 0.0
H48 H 0.53687 0.2108 0.07898 0.0
H49 H 0.34797 0.31032 0.03066 0.0
H50 H 0.22473 0.23209 0.10248 0.0
H51 H 0.51462 0.07704 0.12289 0.0
H52 H 0.45639 0.02455 0.95299 0.0
C53 C 0.7604 0.6812 0.30625 0.0
C54 C 0.77372 0.71224 0.35154 0.0
C55 C 0.74955 0.69715 0.40248 0.0
C56 C 0.72456 0.65717 0.38716 0.0
N57 N 0.72956 0.64666 0.32817 0.0
Co58 Co 0.687 0.60115 0.28238 0.0
N59 N 0.63627 0.6 0.34567 0.0
C60 C 0.64269 0.61508 0.40298 0.0
C61 C 0.60256 0.60937 0.43789 0.0
C62 C 0.56857 0.58853 0.40061 0.0
C63 C 0.59007 0.58263 0.3448 0.0
N64 N 0.64508 0.55588 0.23767 0.0
C65 C 0.59892 0.53982 0.24728 0.0
C66 C 0.58498 0.50572 0.20677 0.0
C67 C 0.62385 0.49991 0.17239 0.0
C68 C 0.65979 0.53047 0.19243 0.0
N69 N 0.73739 0.60671 0.21944 0.0
C70 C 0.74144 0.5768 0.17448 0.0
C71 C 0.77562 0.59255 0.133 0.0
C72 C 0.79327 0.63518 0.15292 0.0
C73 C 0.76902 0.64361 0.2057 0.0
N74 N 0.7138 0.54746 0.32241 0.0
C75 C 0.74019 0.45836 0.35553 0.0
C76 C 0.77308 0.4927 0.33028 0.0
C77 C 0.75924 0.53626 0.31375 0.0
C78 C 0.69461 0.47178 0.36576 0.0
C79 C 0.6824 0.51488 0.34881 0.0
N80 N 0.65872 0.64958 0.2386 0.0
C81 C 0.61844 0.67341 0.14866 0.0
C82 C 0.60932 0.71313 0.17783 0.0
C83 C 0.63148 0.72324 0.23419 0.0
C84 C 0.65306 0.69002 0.26547 0.0
C85 C 0.64472 0.64286 0.17909 0.0
H86 H 0.66389 0.69675 0.31176 0.0
H87 H 0.65158 0.61288 0.15474 0.0
H88 H 0.78517 0.56023 0.29233 0.0
H89 H 0.64613 0.5203 0.35585 0.0
C90 C 0.6848 0.63974 0.41966 0.0
C91 C 0.77615 0.68667 0.24243 0.0
C92 C 0.56835 0.55288 0.29713 0.0
C93 C 0.70501 0.54114 0.16558 0.0
H94 H 0.79563 0.74405 0.34717 0.0
H95 H 0.74385 0.71638 0.44273 0.0
H96 H 0.59836 0.61952 0.48467 0.0
H97 H 0.53267 0.57714 0.414 0.0
H98 H 0.5508 0.48619 0.20336 0.0
H99 H 0.62482 0.4754 0.13778 0.0
H100 H 0.7842 0.57657 0.09074 0.0
H101 H 0.81971 0.65799 0.13021 0.0
H102 H 0.80893 0.48568 0.32028 0.0
H103 H 0.66712 0.44937 0.38681 0.0
H104 H 0.6031 0.66458 0.10463 0.0
H105 H 0.62837 0.75517 0.25693 0.0
C106 C 0.12511 0.85023 0.42891 0.0
C107 C 0.12799 0.85789 0.36671 0.0
C108 C 0.16399 0.89082 0.35803 0.0
C109 C 0.18126 0.9006 0.41511 0.0
N110 N 0.15838 0.87621 0.45981 0.0
Co111 Co 0.16808 0.88309 0.54952 0.0
N112 N 0.21943 0.93377 0.53616 0.0
C113 C 0.2338 0.95254 0.48275 0.0
C114 C 0.26989 0.9863 0.48771 0.0
C115 C 0.28083 0.98862 0.54737 0.0
C116 C 0.25024 0.95606 0.57565 0.0
N117 N 0.18008 0.89259 0.63934 0.0
C118 C 0.21673 0.91747 0.66849 0.0
C119 C 0.21693 0.90816 0.72969 0.0
C120 C 0.17973 0.87625 0.74043 0.0
C121 C 0.15917 0.86732 0.68457 0.0
N122 N 0.11849 0.83253 0.56336 0.0
C123 C 0.10767 0.81208 0.61692 0.0
C124 C 0.07618 0.77428 0.61148 0.0
C125 C 0.06682 0.7706 0.55062 0.0
C126 C 0.09246 0.8071 0.52231 0.0
N127 N 0.21436 0.83489 0.54883 0.0
C128 C 0.26181 0.75409 0.5654 0.0
C129 C 0.27371 0.79363 0.59954 0.0
C130 C 0.24994 0.83273 0.59073 0.0
C131 C 0.22602 0.75654 0.5219 0.0
C132 C 0.20362 0.79657 0.51415 0.0
N133 N 0.11575 0.92613 0.54918 0.0
C134 C 0.03483 0.94017 0.57979 0.0
C135 C 0.03006 0.97272 0.53379 0.0
C136 C 0.07121 0.98192 0.49728 0.0
C137 C 0.1127 0.95907 0.50575 0.0
C138 C 0.07681 0.91784 0.5865 0.0
H139 H 0.14167 0.96781 0.47538 0.0
H140 H 0.07714 0.89362 0.6227 0.0
H141 H 0.25994 0.85985 0.62041 0.0
H142 H 0.17755 0.79551 0.47918 0.0
C143 C 0.21565 0.93526 0.4285 0.0
C144 C 0.09241 0.81611 0.45654 0.0
C145 C 0.25696 0.94344 0.63816 0.0
C146 C 0.12715 0.82987 0.67115 0.0
H147 H 0.10639 0.84158 0.33125 0.0
H148 H 0.17551 0.9062 0.31532 0.0
H149 H 0.28803 1.00538 0.45235 0.0
H150 H 0.31025 1.0095 0.56721 0.0
H151 H 0.24433 0.91999 0.76117 0.0
H152 H 0.17173 0.85843 0.78269 0.0
H153 H 0.06208 0.75181 0.64725 0.0
H154 H 0.04419 0.7435 0.52999 0.0
H155 H 0.30022 0.79433 0.63501 0.0
H156 H 0.21576 0.7281 0.49235 0.0
H157 H 1.00633 0.9313 0.61141 0.0
H158 H 0.07193 1.00602 0.46047 0.0
C159 C 0.76221 0.35298 0.7857 0.0
C160 C 0.7476 0.32065 0.82859 0.0
C161 C 0.77152 0.33281 0.88038 0.0
C162 C 0.79878 0.3726 0.86772 0.0
N163 N 0.79398 0.38585 0.80965 0.0
Co164 Co 0.83767 0.43171 0.76564 0.0
N165 N 0.8885 0.43078 0.82845 0.0
C166 C 0.88271 0.41168 0.8838 0.0
C167 C 0.92375 0.4138 0.91703 0.0
C168 C 0.95745 0.43657 0.88099 0.0
C169 C 0.93508 0.44755 0.82761 0.0
N170 N 0.88041 0.47782 0.72213 0.0
C171 C 0.92589 0.49561 0.73398 0.0
C172 C 0.93769 0.53319 0.69761 0.0
C173 C 0.89824 0.53906 0.66334 0.0
C174 C 0.86487 0.50491 0.67916 0.0
N175 N 0.78724 0.42845 0.70224 0.0
C176 C 0.78454 0.45844 0.65715 0.0
C177 C 0.75255 0.44272 0.61301 0.0
C178 C 0.73409 0.4003 0.63166 0.0
C179 C 0.75602 0.392 0.6861 0.0
N180 N 0.81195 0.48442 0.80829 0.0
C181 C 0.78678 0.57177 0.84897 0.0
C182 C 0.7524 0.53733 0.82701 0.0
C183 C 0.76572 0.49446 0.80634 0.0
C184 C 0.83351 0.55989 0.8496 0.0
C185 C 0.84462 0.51702 0.83172 0.0
N186 N 0.86507 0.38336 0.72117 0.0
C187 C 0.90715 0.35942 0.63326 0.0
C188 C 0.91425 0.31906 0.66266 0.0
C189 C 0.89029 0.30886 0.71739 0.0
C190 C 0.86901 0.34241 0.74778 0.0
C191 C 0.8809 0.39053 0.66262 0.0
H192 H 0.85744 0.33538 0.79356 0.0
H193 H 0.87583 0.42132 0.63881 0.0
H194 H 0.7388 0.46997 0.78774 0.0
H195 H 0.88117 0.51191 0.835 0.0
C196 C 0.84009 0.38691 0.89968 0.0
C197 C 0.74765 0.34909 0.72156 0.0
C198 C 0.95686 0.4809 0.78333 0.0
C199 C 0.82052 0.49428 0.6509 0.0
H200 H 0.72434 0.28986 0.82234 0.0
H201 H 0.77383 0.31078 0.91866 0.0
H202 H 0.92884 0.39957 0.96159 0.0
H203 H 0.99412 0.44499 0.89326 0.0
H204 H 0.97057 0.55502 0.69753 0.0
H205 H 0.89335 0.5654 0.63161 0.0
H206 H 0.74671 0.45785 0.56939 0.0
H207 H 0.70927 0.37736 0.60655 0.0
H208 H 0.71545 0.54324 0.82462 0.0
H209 H 0.86313 0.58338 0.86273 0.0
H210 H 0.92427 0.36834 0.59034 0.0
H211 H 0.89228 0.27671 0.74012 0.0
C212 C 0.7131 0.95083 0.02582 0.0
C213 C 0.7187 0.96319 0.08637 0.0
C214 C 0.75448 0.93989 0.10933 0.0
C215 C 0.76917 0.91429 0.06213 0.0
N216 N 0.74513 0.92059 0.01079 0.0
Co217 Co 0.7441 0.88018 0.9384 0.0
N218 N 0.77566 0.83133 0.97889 0.0
C219 C 0.7961 0.83532 0.03398 0.0
C220 C 0.80466 0.79378 0.05704 0.0
C221 C 0.79073 0.76251 0.01366 0.0
C222 C 0.77392 0.78607 0.96533 0.0
N223 N 0.73945 0.84005 0.86544 0.0
C224 C 0.74399 0.7949 0.8587 0.0
C225 C 0.74242 0.78296 0.7976 0.0
C226 C 0.73707 0.8217 0.76531 0.0
C227 C 0.73584 0.85523 0.8081 0.0
N228 N 0.71422 0.92841 0.89594 0.0
C229 C 0.71592 0.93517 0.8357 0.0
C230 C 0.69368 0.972 0.81867 0.0
C231 C 0.67582 0.98852 0.87161 0.0
C232 C 0.68924 0.96144 0.91813 0.0
N233 N 0.80699 0.90887 0.91024 0.0
C234 C 0.89444 0.95272 0.86569 0.0
C235 C 0.86052 0.97699 0.89447 0.0
C236 C 0.81765 0.95475 0.91619 0.0
C237 C 0.88348 0.90539 0.86137 0.0
C238 C 0.84001 0.88429 0.88385 0.0
N239 N 0.68266 0.854 0.97047 0.0
C240 C 0.602 0.86973 0.98314 0.0
C241 C 0.60032 0.85099 0.04187 0.0
C242 C 0.64121 0.83542 0.06477 0.0
C243 C 0.68114 0.83617 0.02828 0.0
C244 C 0.64188 0.8672 0.94653 0.0
H245 H 0.71038 0.82249 0.04903 0.0
H246 H 0.6404 0.87818 0.89985 0.0
H247 H 0.79268 0.97509 0.93729 0.0
H248 H 0.833 0.84801 0.87935 0.0
C249 C 0.7922 0.87469 0.06892 0.0
C250 C 0.67719 0.9672 0.98266 0.0
C251 C 0.7564 0.76403 0.9077 0.0
C252 C 0.72716 0.90027 0.79689 0.0
H253 H 0.69785 0.98453 0.11275 0.0
H254 H 0.7649 0.93826 0.15656 0.0
H255 H 0.81622 0.78585 0.10172 0.0
H256 H 0.79087 0.72629 0.01887 0.0
H257 H 0.74662 0.75014 0.77805 0.0
H258 H 0.73433 0.82493 0.71644 0.0
H259 H 0.68872 0.98318 0.77261 0.0
H260 H 0.65381 1.01599 0.87627 0.0
H261 H 0.867 1.01325 0.90081 0.0
H262 H 0.90794 0.88461 0.8398 0.0
H263 H 0.57009 0.88006 0.96253 0.0
H264 H 0.64127 0.81848 0.10844 0.0
C265 C 0.38735 0.40911 0.72308 0.0
C266 C 0.36314 0.40795 0.77779 0.0
C267 C 0.37099 0.45024 0.80285 0.0
C268 C 0.40026 0.47547 0.76292 0.0
N269 N 0.41089 0.45121 0.71427 0.0
Co270 Co 0.45946 0.47196 0.65268 0.0
N271 N 0.48994 0.52121 0.70398 0.0
C272 C 0.46967 0.53906 0.75209 0.0
C273 C 0.5001 0.57097 0.78137 0.0
C274 C 0.54198 0.57297 0.7492 0.0
C275 C 0.53481 0.54186 0.70227 0.0
N276 N 0.50845 0.49008 0.59101 0.0
C277 C 0.55205 0.51275 0.59812 0.0
C278 C 0.57588 0.51622 0.54298 0.0
C279 C 0.5458 0.49518 0.50036 0.0
C280 C 0.50531 0.48004 0.53154 0.0
N281 N 0.42935 0.42182 0.60157 0.0
C282 C 0.43563 0.41795 0.54113 0.0
C283 C 0.41971 0.37559 0.52008 0.0
C284 C 0.40288 0.35155 0.57014 0.0
C285 C 0.4075 0.38073 0.61934 0.0
N286 N 0.41793 0.51616 0.61866 0.0
C287 C 0.36294 0.58979 0.59568 0.0
C288 C 0.34148 0.54636 0.61147 0.0
C289 C 0.36947 0.51006 0.62221 0.0
C290 C 0.41225 0.59383 0.58754 0.0
C291 C 0.4387 0.55746 0.5998 0.0
N292 N 0.50082 0.43137 0.68847 0.0
C293 C 0.53845 0.36343 0.68091 0.0
C294 C 0.53474 0.35866 0.74409 0.0
C295 C 0.52211 0.39423 0.77939 0.0
C296 C 0.50562 0.43085 0.75037 0.0
C297 C 0.52099 0.40055 0.65364 0.0
H298 H 0.49212 0.45604 0.77864 0.0
H299 H 0.5194 0.40195 0.60471 0.0
H300 H 0.35214 0.47771 0.6362 0.0
H301 H 0.47663 0.56407 0.59711 0.0
C302 C 0.42827 0.51617 0.77625 0.0
C303 C 0.38818 0.36955 0.68127 0.0
C304 C 0.57027 0.53317 0.65575 0.0
C305 C 0.46976 0.4474 0.5109 0.0
H306 H 0.34389 0.37919 0.79965 0.0
H307 H 0.35981 0.45912 0.84774 0.0
H308 H 0.49384 0.58835 0.82341 0.0
H309 H 0.57429 0.59401 0.75977 0.0
H310 H 0.61139 0.53171 0.53444 0.0
H311 H 0.55392 0.48912 0.45324 0.0
H312 H 0.42463 0.3621 0.47507 0.0
H313 H 0.39092 0.31595 0.5705 0.0
H314 H 0.30356 0.54074 0.61807 0.0
H315 H 0.4311 0.62551 0.57314 0.0
H316 H 0.54859 0.33605 0.65265 0.0
H317 H 0.5195 0.39127 0.82843 0.0
C318 C 0.81298 0.07793 0.52167 0.0
C319 C 0.80467 0.0657 0.58174 0.0
C320 C 0.76811 0.08943 0.60165 0.0
C321 C 0.75553 0.11496 0.55298 0.0
N322 N 0.7819 0.10831 0.50373 0.0
Co323 Co 0.78574 0.14777 0.43012 0.0
N324 N 0.75443 0.19757 0.468 0.0
C325 C 0.73111 0.19413 0.52112 0.0
C326 C 0.72164 0.23601 0.5416 0.0
C327 C 0.73685 0.26671 0.49838 0.0
C328 C 0.75644 0.24259 0.45309 0.0
N329 N 0.79318 0.18743 0.35669 0.0
C330 C 0.79077 0.23303 0.34953 0.0
C331 C 0.79939 0.24578 0.28969 0.0
C332 C 0.80711 0.20712 0.2585 0.0
C333 C 0.80219 0.17265 0.30042 0.0
N334 N 0.81606 0.09855 0.39078 0.0
C335 C 0.8181 0.09162 0.33056 0.0
C336 C 0.83953 0.05331 0.31675 0.0
C337 C 0.85203 0.03633 0.37207 0.0
C338 C 0.83892 0.06517 0.41606 0.0
N339 N 0.72297 0.11988 0.40049 0.0
C340 C 0.63339 0.07782 0.36004 0.0
C341 C 0.66731 0.05287 0.38773 0.0
C342 C 0.71124 0.07422 0.4074 0.0
C343 C 0.64574 0.12488 0.3541 0.0
C344 C 0.69033 0.14508 0.37436 0.0
N345 N 0.84661 0.1731 0.46285 0.0
C346 C 0.9294 0.16446 0.46936 0.0
C347 C 0.9312 0.18183 0.52878 0.0
C348 C 0.88944 0.19261 0.55535 0.0
C349 C 0.84806 0.18874 0.5216 0.0
C350 C 0.88759 0.16328 0.43588 0.0
H351 H 0.81737 0.19747 0.54494 0.0
H352 H 0.88801 0.15256 0.38903 0.0
H353 H 0.73589 0.05347 0.42841 0.0
H354 H 0.69836 0.18118 0.36881 0.0
C355 C 0.732 0.15467 0.55716 0.0
C356 C 0.84987 0.06058 0.48122 0.0
C357 C 0.77602 0.26424 0.39675 0.0
C358 C 0.81119 0.12735 0.29052 0.0
H359 H 0.82399 0.04363 0.60928 0.0
H360 H 0.75531 0.09096 0.64789 0.0
H361 H 0.70911 0.24509 0.5846 0.0
H362 H 0.73555 0.30297 0.50152 0.0
H363 H 0.79969 0.27941 0.2705 0.0
H364 H 0.81699 0.20492 0.21138 0.0
H365 H 0.84806 0.04103 0.27222 0.0
H366 H 0.86988 1.00709 0.38109 0.0
H367 H 0.6599 0.0168 0.39519 0.0
H368 H 0.62144 0.14614 0.33309 0.0
H369 H 0.96142 0.15647 0.44663 0.0
H370 H 0.8891 0.20772 0.60016 0.0
C371 C 0.13127 0.62272 0.24993 0.0
C372 C 0.14271 0.63383 0.30963 0.0
C373 C 0.12885 0.59638 0.34389 0.0
C374 C 0.11063 0.56367 0.30362 0.0
N375 N 0.11068 0.57896 0.24599 0.0
Co376 Co 0.07548 0.54698 0.17737 0.0
N377 N 0.03811 0.50405 0.23175 0.0
C378 C 0.04928 0.49416 0.2891 0.0
C379 C 0.01539 0.46393 0.31551 0.0
C380 C 0.98043 0.45557 0.2724 0.0
C381 C 0.99507 0.48106 0.22193 0.0
N382 N 0.04056 0.51615 0.10882 0.0
C383 C 0.99726 0.49226 0.10876 0.0
C384 C 0.98334 0.48108 0.04976 0.0
C385 C 0.01956 0.49846 0.01238 0.0
C386 C 0.05356 0.51932 0.05014 0.0
N387 N 0.11119 0.59277 0.1241 0.0
C388 C 0.11247 0.59061 0.06292 0.0
C389 C 0.12358 0.63252 0.03718 0.0
C390 C 0.13056 0.66233 0.08478 0.0
C391 C 0.12561 0.63718 0.13749 0.0
N392 N 0.12386 0.50316 0.16753 0.0
C393 C 0.18385 0.43538 0.13529 0.0
C394 C 0.20143 0.48162 0.13887 0.0
C395 C 0.17083 0.51499 0.15517 0.0
C396 C 0.13648 0.42445 0.15155 0.0
C397 C 0.10747 0.45812 0.1659 0.0
N398 N 0.02625 0.5868 0.18523 0.0
C399 C 0.98352 0.6424 0.13861 0.0
C400 C 0.9789 0.66193 0.19597 0.0
C401 C 0.98456 0.63513 0.24736 0.0
C402 C 1.0098 0.59776 0.24102 0.0
C403 C 1.00862 0.60512 0.13427 0.0
H404 H 0.01975 0.58079 0.28156 0.0
H405 H 0.01799 0.59465 0.08956 0.0
H406 H 0.18468 0.55023 0.156 0.0
H407 H 0.07067 0.44697 0.17262 0.0
C408 C 0.08335 0.52314 0.31989 0.0
C409 C 0.13778 0.65585 0.19918 0.0
C410 C 0.96902 0.4812 0.16414 0.0
C411 C 0.08782 0.55408 0.03204 0.0
H412 H 0.15695 0.66642 0.3272 0.0
H413 H 0.12889 0.59448 0.39304 0.0
H414 H 0.01454 0.4513 0.36156 0.0
H415 H 0.94781 0.43374 0.27762 0.0
H416 H 0.9498 0.46438 0.03481 0.0
H417 H 0.01883 0.5003 0.96333 0.0
H418 H 0.12149 0.64133 0.98966 0.0
H419 H 0.13646 0.69867 0.08115 0.0
H420 H 0.23792 0.49214 0.12727 0.0
H421 H 0.12089 0.38964 0.15177 0.0
H422 H 0.97647 0.65958 0.09672 0.0
H423 H 0.97773 0.64702 0.29267 0.0
C424 C 0.90092 0.68689 0.41615 0.0
C425 C 0.89842 0.67967 0.35387 0.0
C426 C 0.86436 0.64474 0.34501 0.0
C427 C 0.8477 0.63376 0.40211 0.0
N428 N 0.86878 0.65945 0.44691 0.0
Co429 Co 0.85774 0.65325 0.53658 0.0
N430 N 0.80729 0.60191 0.52281 0.0
C431 C 0.79423 0.58231 0.46939 0.0
C432 C 0.758 0.54873 0.47402 0.0
C433 C 0.74544 0.54746 0.53311 0.0
C434 C 0.77564 0.58012 0.56172 0.0
N435 N 0.84496 0.64421 0.62618 0.0
C436 C 0.80873 0.61862 0.65501 0.0
C437 C 0.80778 0.62829 0.71602 0.0
C438 C 0.84415 0.66102 0.72703 0.0
C439 C 0.86497 0.6701 0.67143 0.0
N440 N 0.90589 0.70505 0.55061 0.0
C441 C 0.91496 0.72654 0.6039 0.0
C442 C 0.94479 0.76544 0.59836 0.0
C443 C 0.95486 0.76881 0.53767 0.0
C444 C 0.9314 0.731 0.50966 0.0
N445 N 0.81057 0.70048 0.53399 0.0
C446 C 0.76197 0.78055 0.54971 0.0
C447 C 0.75037 0.74097 0.58387 0.0
C448 C 0.77455 0.70215 0.57526 0.0
C449 C 0.7979 0.77842 0.50638 0.0
C450 C 0.82101 0.73882 0.49924 0.0
N451 N 0.91063 0.61099 0.53893 0.0
C452 C 0.9924 0.59976 0.56878 0.0
C453 C 0.99551 0.56272 0.52912 0.0
C454 C 0.95312 0.54999 0.4962 0.0
C455 C 0.91218 0.57414 0.50134 0.0
C456 C 0.95077 0.62258 0.57314 0.0
H457 H 0.88227 0.56276 0.47365 0.0
H458 H 0.9517 0.64968 0.60547 0.0
H459 H 0.76451 0.67482 0.60458 0.0
H460 H 0.84702 0.74007 0.46428 0.0
C461 C 0.81377 0.59856 0.4152 0.0
C462 C 0.93302 0.72122 0.44419 0.0
C463 C 0.76898 0.59209 0.62448 0.0
C464 C 0.89575 0.70842 0.65804 0.0
H465 H 0.91905 0.69788 0.31871 0.0
H466 H 0.85316 0.62918 0.3022 0.0
H467 H 0.74109 0.52885 0.43871 0.0
H468 H 0.71579 0.52656 0.55241 0.0
H469 H 0.78003 0.61639 0.74685 0.0
H470 H 0.85118 0.6794 0.76908 0.0
H471 H 0.95747 0.78875 0.63395 0.0
H472 H 0.97683 0.79636 0.51706 0.0
H473 H 0.72375 0.73993 0.61915 0.0
H474 H 0.80783 0.80677 0.47656 0.0
H475 H 0.02204 0.6122 0.59687 0.0
H476 H 0.95068 0.52156 0.46543 0.0
C477 C 0.26709 0.18333 0.80615 0.0
C478 C 0.28262 0.21185 0.85348 0.0
C479 C 0.25652 0.19757 0.90348 0.0
C480 C 0.22698 0.16078 0.88439 0.0
N481 N 0.23321 0.15063 0.8255 0.0
Co482 Co 0.19294 0.10441 0.7775 0.0
N483 N 0.13969 0.10319 0.83711 0.0
C484 C 0.14331 0.1202 0.8939 0.0
C485 C 0.1014 0.11541 0.92526 0.0
C486 C 0.06941 0.0932 0.88639 0.0
C487 C 0.09365 0.0852 0.83318 0.0
N488 N 0.15332 0.05815 0.73044 0.0
C489 C 0.1076 0.03975 0.73839 0.0
C490 C 0.09749 1.00376 0.69885 0.0
C491 C 0.13825 0.99966 0.66635 0.0
C492 C 0.17088 0.03283 0.68701 0.0
N493 N 0.24609 0.10981 0.71799 0.0
C494 C 0.25146 0.08065 0.67258 0.0
C495 C 0.28563 0.09722 0.63174 0.0
C496 C 0.30256 0.13942 0.65275 0.0
C497 C 0.27788 0.14669 0.70556 0.0
N498 N 0.21838 0.05163 0.82068 0.0
C499 C 0.2437 0.96498 0.86426 0.0
C500 C 0.27822 0.99956 0.84311 0.0
C501 C 0.26487 0.04212 0.82101 0.0
C502 C 0.19682 0.97618 0.86242 0.0
C503 C 0.18544 0.0184 0.8422 0.0
N504 N 0.16549 0.15218 0.73156 0.0
C505 C 0.12305 0.17244 0.64165 0.0
C506 C 0.10808 0.20957 0.67207 0.0
C507 C 0.12865 0.22126 0.7289 0.0
C508 C 0.15531 0.19117 0.75904 0.0
C509 C 0.15304 0.14495 0.67167 0.0
H510 H 0.16554 0.19844 0.80545 0.0
H511 H 0.1634 0.11621 0.64722 0.0
H512 H 0.29204 0.06682 0.80348 0.0
H513 H 0.14861 0.02256 0.84261 0.0
C514 C 0.18509 0.14468 0.91383 0.0
C515 C 0.28466 0.18883 0.74316 0.0
C516 C 0.07446 0.05273 0.78624 0.0
C517 C 0.21623 0.04474 0.66237 0.0
H518 H 0.30882 0.2409 0.85154 0.0
H519 H 0.25636 0.21443 0.94705 0.0
H520 H 0.09475 0.12699 0.97084 0.0
H521 H 0.03285 0.08251 0.89716 0.0
H522 H 0.06463 0.98214 0.69517 0.0
H523 H 0.14436 0.97569 0.63179 0.0
H524 H 0.29419 0.08266 0.58864 0.0
H525 H 0.32839 0.16274 0.62999 0.0
H526 H 0.31529 0.99389 0.8424 0.0
H527 H 0.16729 0.95207 0.87422 0.0
H528 H 0.1093 0.16283 0.59708 0.0
H529 H 0.12103 0.2517 0.75256 0.0
C530 C 0.64361 0.33494 0.93743 0.0
C531 C 0.64359 0.33578 0.87462 0.0
C532 C 0.6645 0.37755 0.85721 0.0
C533 C 0.67774 0.39912 0.9106 0.0
N534 N 0.66541 0.3735 0.95966 0.0
Co535 Co 0.6723 0.3931 0.04418 0.0
N536 N 0.7254 0.4372 0.02212 0.0
C537 C 0.73334 0.45689 0.96781 0.0
C538 C 0.77458 0.48531 0.96765 0.0
C539 C 0.79342 0.48308 0.02476 0.0
C540 C 0.76247 0.45306 0.05675 0.0
N541 N 0.68243 0.41328 0.12864 0.0
C542 C 0.72528 0.42615 0.15417 0.0
C543 C 0.72254 0.4241 0.21631 0.0
C544 C 0.67599 0.41036 0.23061 0.0
C545 C 0.65314 0.40338 0.17585 0.0
N546 N 0.61934 0.34977 0.06721 0.0
C547 C 0.59132 0.35355 0.11583 0.0
C548 C 0.55055 0.32485 0.1124 0.0
C549 C 0.55429 0.30196 0.05853 0.0
C550 C 0.59833 0.31574 0.03382 0.0
N551 N 0.71543 0.34482 0.06254 0.0
C552 C 0.76406 0.26539 0.08022 0.0
C553 C 0.72608 0.27495 0.1172 0.0
C554 C 0.70325 0.3144 0.10847 0.0
C555 C 0.77993 0.29956 0.03793 0.0
C556 C 0.7551 0.33862 0.02965 0.0
N557 N 0.6238 0.43819 0.02504 0.0
C558 C 0.54055 0.44498 -7e-05 0.0
C559 C 0.54393 0.49109 0.01333 0.0
C560 C 0.59045 0.51158 0.02526 0.0
C561 C 0.62995 0.4847 0.02984 0.0
C562 C 0.58035 0.42039 0.0031 0.0
H563 H 0.66429 0.50122 0.04225 0.0
H564 H 0.57482 0.38626 0.9872 0.0
H565 H 0.67468 0.31927 0.139 0.0
H566 H 0.76741 0.36354 -0.00383 0.0
C567 C 0.70854 0.43904 0.91651 0.0
C568 C 0.61646 0.30114 0.97477 0.0
C569 C 0.76892 0.43925 0.11936 0.0
C570 C 0.60856 0.37884 0.16672 0.0
H571 H 0.63029 0.30867 0.84516 0.0
H572 H 0.67169 0.38946 0.81133 0.0
H573 H 0.79135 0.50274 0.92999 0.0
H574 H 0.82661 0.50034 0.04039 0.0
H575 H 0.75232 0.42902 0.24643 0.0
H576 H 0.66137 0.40239 0.275 0.0
H577 H 0.52152 0.32126 0.14447 0.0
H578 H 0.52624 0.28071 0.03729 0.0
H579 H 0.71374 0.2522 0.15355 0.0
H580 H 0.81047 0.29573 0.00974 0.0
H581 H 0.50696 0.42766 0.98564 0.0
H582 H 0.5961 0.54769 0.03336 0.0
C583 C 0.26003 0.84566 0.31541 0.0
C584 C 0.2483 0.81564 0.36252 0.0
C585 C 0.27494 0.83122 0.41137 0.0
C586 C 0.29983 0.87057 0.39317 0.0
N587 N 0.29191 0.88045 0.3346 0.0
Co588 Co 0.33058 0.92738 0.28622 0.0
N589 N 0.38478 0.93006 0.345 0.0
C590 C 0.38185 0.91419 0.40228 0.0
C591 C 0.42348 0.9213 0.43405 0.0
C592 C 0.45477 0.94384 0.39471 0.0
C593 C 0.43032 0.94937 0.34083 0.0
N594 N 0.36829 0.97408 0.23921 0.0
C595 C 0.41332 0.99417 0.24726 0.0
C596 C 0.42116 0.03104 0.2093 0.0
C597 C 0.37987 0.03338 0.17707 0.0
C598 C 0.34908 0.99887 0.19674 0.0
N599 N 0.27683 0.91981 0.22739 0.0
C600 C 0.26996 0.94883 0.1824 0.0
C601 C 0.23526 0.93196 0.14251 0.0
C602 C 0.21995 0.88918 0.16332 0.0
C603 C 0.24587 0.88208 0.21536 0.0
N604 N 0.30436 0.98061 0.32891 0.0
C605 C 0.28055 0.07106 0.3617 0.0
C606 C 0.24634 0.03668 0.33919 0.0
C607 C 0.25904 0.99268 0.32205 0.0
C608 C 0.32651 0.05746 0.36704 0.0
C609 C 0.33691 1.01343 0.35261 0.0
N610 N 0.35899 0.88055 0.23967 0.0
C611 C 0.40273 0.86267 0.14974 0.0
C612 C 0.41797 0.82534 0.17927 0.0
C613 C 0.39636 0.81197 0.235 0.0
C614 C 0.36945 0.84127 0.26605 0.0
C615 C 0.37164 0.88881 0.17999 0.0
H616 H 0.35915 0.83306 0.31216 0.0
H617 H 0.36064 0.91744 0.15589 0.0
H618 H 0.23224 0.96909 0.30176 0.0
H619 H 0.37316 1.00796 0.35841 0.0
C620 C 0.3411 0.88861 0.42221 0.0
C621 C 0.24087 0.83949 0.25286 0.0
C622 C 0.44813 0.98146 0.29312 0.0
C623 C 0.30393 0.9857 0.17225 0.0
H624 H 0.22522 0.7844 0.36089 0.0
H625 H 0.28124 0.81296 0.45237 0.0
H626 H 0.43029 0.91135 0.48034 0.0
H627 H 0.49065 0.95698 0.40591 0.0
H628 H 0.45295 0.05414 0.20694 0.0
H629 H 0.37173 0.0566 0.14289 0.0
H630 H 0.22489 0.94736 0.10058 0.0
H631 H 0.19416 0.86557 0.141 0.0
H632 H 0.20998 0.04361 0.33278 0.0
H633 H 0.35613 0.08025 0.38188 0.0
H634 H 0.41688 0.87333 0.10575 0.0
H635 H 0.40359 0.78093 0.25749 0.0
C636 C 0.2104 0.45404 0.53211 0.0
C637 C 0.21808 0.46719 0.59204 0.0
C638 C 0.25393 0.44334 0.61387 0.0
C639 C 0.26667 0.41672 0.56654 0.0
N640 N 0.24112 0.42277 0.51637 0.0
Co641 Co 0.23871 0.38263 0.44352 0.0
N642 N 0.2698 0.33324 0.48347 0.0
C643 C 0.29189 0.33732 0.5376 0.0
C644 C 0.29996 0.29569 0.56057 0.0
C645 C 0.2848 0.26434 0.51783 0.0
C646 C 0.26743 0.28792 0.46995 0.0
N647 N 0.23282 0.34246 0.37051 0.0
C648 C 0.23653 0.29703 0.36378 0.0
C649 C 0.23289 0.28489 0.30288 0.0
C650 C 0.22712 0.32367 0.27074 0.0
C651 C 0.22769 0.35757 0.31332 0.0
N652 N 0.20948 0.43151 0.40162 0.0
C653 C 0.21105 0.43867 0.34139 0.0
C654 C 0.19412 0.4789 0.32561 0.0
C655 C 0.18071 0.49716 0.37968 0.0
C656 C 0.18856 0.46682 0.42482 0.0
N657 N 0.30134 0.41041 0.41548 0.0
C658 C 0.38875 0.45371 0.37278 0.0
C659 C 0.35566 0.47794 0.40293 0.0
C660 C 0.31264 0.45598 0.42346 0.0
C661 C 0.37724 0.40664 0.3662 0.0
C662 C 0.33368 0.38571 0.38802 0.0
N663 N 0.17745 0.35769 0.47522 0.0
C664 C 0.09568 0.37013 0.48416 0.0
C665 C 0.09357 0.34975 0.54178 0.0
C666 C 0.13495 0.33784 0.56776 0.0
C667 C 0.17589 0.34099 0.53349 0.0
C668 C 0.13686 0.37011 0.44969 0.0
H669 H 0.20595 0.33041 0.55624 0.0
H670 H 0.13621 0.38162 0.40318 0.0
H671 H 0.28817 0.47635 0.44539 0.0
H672 H 0.32601 0.3496 0.38217 0.0
C673 C 0.29012 0.37716 0.57248 0.0
C674 C 0.17556 0.47219 0.48912 0.0
C675 C 0.2497 0.26585 0.41238 0.0
C676 C 0.22007 0.4031 0.30216 0.0
H677 H 0.19914 0.49016 0.61842 0.0
H678 H 0.26625 0.44265 0.66041 0.0
H679 H 0.31183 0.28772 0.60492 0.0
H680 H 0.28474 0.22809 0.52303 0.0
H681 H 0.2358 0.25182 0.28334 0.0
H682 H 0.2228 0.32663 0.22209 0.0
H683 H 0.19034 0.49255 0.2805 0.0
H684 H 0.16713 0.52906 0.3867 0.0
H685 H 0.36283 0.51393 0.4112 0.0
H686 H 0.40128 0.38604 0.34346 0.0
H687 H 0.06369 0.37922 0.46228 0.0
H688 H 0.13488 0.32115 0.61163 0.0
C689 C 0.88776 0.90355 0.24035 0.0
C690 C 0.87121 0.89469 0.29868 0.0
C691 C 0.8869 0.93146 0.33314 0.0
C692 C 0.91124 0.96171 0.29404 0.0
N693 N 0.91282 0.94553 0.23705 0.0
Co694 Co 0.95377 0.97418 0.17059 0.0
N695 N 0.99246 1.0147 0.22681 0.0
C696 C 0.98043 0.0249 0.28369 0.0
C697 C 0.01513 0.05281 0.31231 0.0
C698 C 0.05152 0.05967 0.27107 0.0
C699 C 0.03693 0.03548 0.2194 0.0
N700 N 0.99357 1.00202 0.10385 0.0
C701 C 0.03779 0.02416 0.10593 0.0
C702 C 0.05435 0.03367 0.04745 0.0
C703 C 0.01891 0.0175 0.00827 0.0
C704 C 0.98272 0.99872 0.04441 0.0
N705 N 0.91679 0.92998 0.11613 0.0
C706 C 0.9195 0.93054 0.05494 0.0
C707 C 0.90898 0.88811 0.0304 0.0
C708 C 0.8984 0.85961 0.07868 0.0
C709 C 0.90011 0.88612 0.1302 0.0
N710 N 0.91031 0.02264 0.15679 0.0
C711 C 0.85708 0.09716 0.12696 0.0
C712 C 0.83567 0.05183 0.12917 0.0
C713 C 0.86283 1.01522 0.14419 0.0
C714 C 0.90527 0.10329 0.14206 0.0
C715 C 0.93077 0.06651 0.15524 0.0
N716 N 0.99871 0.92993 0.18274 0.0
C717 C 0.04403 0.87403 0.14032 0.0
C718 C 0.03995 0.85102 0.19566 0.0
C719 C 0.02769 0.87451 0.24743 0.0
C720 C 1.00758 0.91483 0.23981 0.0
C721 C 0.0206 0.9125 0.13397 0.0
H722 H 0.99491 0.93086 0.27952 0.0
H723 H 0.01654 0.92497 0.08868 0.0
H724 H 0.84582 0.98103 0.1446 0.0
H725 H 0.96812 0.07435 0.16246 0.0
C726 C 0.94254 0.99918 0.31184 0.0
C727 C 0.88266 0.86935 0.19113 0.0
C728 C 0.06448 0.03529 0.16271 0.0
C729 C 0.94761 0.96528 0.02502 0.0
H730 H 0.85267 0.8636 0.31561 0.0
H731 H 0.8844 0.93376 0.3821 0.0
H732 H 0.01519 0.06502 0.35847 0.0
H733 H 0.08496 0.07985 0.27824 0.0
H734 H 0.08907 0.04842 0.03384 0.0
H735 H 0.02143 1.01514 0.95935 0.0
H736 H 0.91401 0.878 0.9838 0.0
H737 H 0.89237 0.82319 0.07663 0.0
H738 H 0.79854 0.0444 0.11818 0.0
H739 H 0.9242 0.13674 0.14367 0.0
H740 H 0.0562 0.85783 0.09988 0.0
H741 H 0.02628 0.85898 0.29186 0.0
C742 C 0.32243 0.58463 0.02651 0.0
C743 C 0.31755 0.57015 0.08627 0.0
C744 C 0.27986 0.59022 0.11032 0.0
C745 C 0.26338 0.61614 0.06451 0.0
N746 N 0.28798 0.61285 0.01296 0.0
Co747 Co 0.28627 0.655 0.94265 0.0
N748 N 0.25252 0.70105 0.98586 0.0
C749 C 0.23246 0.69441 0.0409 0.0
C750 C 0.22329 0.73469 0.06708 0.0
C751 C 0.23604 0.76791 0.02551 0.0
C752 C 0.25307 0.7467 0.97519 0.0
N753 N 0.28861 0.69689 0.87176 0.0
C754 C 0.28252 0.74188 0.86759 0.0
C755 C 0.2828 0.75539 0.80707 0.0
C756 C 0.28933 0.7179 0.77269 0.0
C757 C 0.2924 0.6834 0.81367 0.0
N758 N 0.31846 0.60959 0.89776 0.0
C759 C 0.31722 0.60429 0.83719 0.0
C760 C 0.34233 0.56961 0.8186 0.0
C761 C 0.36092 0.55308 0.87109 0.0
C762 C 0.346 0.57806 0.91849 0.0
N763 N 0.22419 0.62454 0.91365 0.0
C764 C 0.13714 0.57943 0.86866 0.0
C765 C 0.17226 0.55552 0.89577 0.0
C766 C 0.21496 0.57838 0.91765 0.0
C767 C 0.14703 0.62695 0.86578 0.0
C768 C 0.19015 0.64864 0.88856 0.0
N769 N 0.34663 0.68312 0.9751 0.0
C770 C 0.42887 0.67285 0.98403 0.0
C771 C 0.43052 0.6907 0.04321 0.0
C772 C 0.38892 0.70267 0.06851 0.0
C773 C 0.34793 0.69922 0.03383 0.0
C774 C 0.38799 0.67358 0.94899 0.0
H775 H 0.31781 0.70936 0.0567 0.0
H776 H 0.38926 0.6639 0.90177 0.0
H777 H 0.24086 0.5584 0.93749 0.0
H778 H 0.19596 0.68508 0.88552 0.0
C779 C 0.23825 0.65422 0.07346 0.0
C780 C 0.3597 0.57207 0.98244 0.0
C781 C 0.2704 0.77107 0.91875 0.0
C782 C 0.3037 0.63939 0.80012 0.0
H783 H 0.33999 0.5495 0.11142 0.0
H784 H 0.26926 0.58979 0.15759 0.0
H785 H 0.21331 0.74028 0.11322 0.0
H786 H 0.23565 0.80381 0.03356 0.0
H787 H 0.2772 0.78844 0.78923 0.0
H788 H 0.29186 0.71616 0.72368 0.0
H789 H 0.34929 0.56021 0.77221 0.0
H790 H 0.3849 0.52746 0.87559 0.0
H791 H 0.16683 0.51909 0.90079 0.0
H792 H 0.12187 0.64758 0.84535 0.0
H793 H 0.4611 0.66477 0.962 0.0
H794 H 0.38864 0.71857 0.11287 0.0
C795 C 0.6437 0.12341 0.70577 0.0
C796 C 0.67485 0.12333 0.75418 0.0
C797 C 0.66885 0.08094 0.7793 0.0
C798 C 0.63384 0.05692 0.74573 0.0
N799 N 0.61845 0.08189 0.70035 0.0
Co800 Co 0.56607 0.06136 0.6442 0.0
N801 N 0.53944 1.01217 0.69834 0.0
C802 C 0.56302 0.99432 0.74387 0.0
C803 C 0.53458 0.96254 0.77618 0.0
C804 C 0.49063 0.96057 0.74874 0.0
C805 C 0.49458 0.99153 0.70135 0.0
N806 N 0.51345 0.04306 0.58772 0.0
C807 C 0.47071 0.01991 0.59901 0.0
C808 C 0.44381 1.01567 0.54615 0.0
C809 C 0.47107 0.03677 0.50072 0.0
C810 C 0.513 0.05277 0.52809 0.0
N811 N 0.59245 0.11163 0.59068 0.0
C812 C 0.58266 0.1153 0.53107 0.0
C813 C 0.59789 0.1574 0.50853 0.0
C814 C 0.61799 0.18151 0.55687 0.0
C815 C 0.61561 0.15264 0.60645 0.0
N816 N 0.60539 0.01743 0.6055 0.0
C817 C 0.65964 0.94396 0.57967 0.0
C818 C 0.68153 0.9878 0.59222 0.0
C819 C 0.65386 0.02404 0.60417 0.0
C820 C 0.60999 0.93944 0.57552 0.0
C821 C 0.58392 0.9758 0.58922 0.0
N822 N 0.52711 0.10178 0.68461 0.0
C823 C 0.48781 0.16911 0.68249 0.0
C824 C 0.49712 0.17456 0.74467 0.0
C825 C 0.51416 0.13968 0.77764 0.0
C826 C 0.52781 0.10282 0.74668 0.0
C827 C 0.5037 0.13212 0.65277 0.0
H828 H 0.54425 0.07816 0.77281 0.0
H829 H 0.5014 0.13044 0.60386 0.0
H830 H 0.67159 0.05676 0.61562 0.0
H831 H 0.54596 0.96892 0.59006 0.0
C832 C 0.60689 0.01627 0.76275 0.0
C833 C 0.63896 0.16345 0.66621 0.0
C834 C 0.45623 0.99976 0.6584 0.0
C835 C 0.54699 0.08558 0.50404 0.0
H836 H 0.69843 0.15108 0.77158 0.0
H837 H 0.68648 0.071 0.81974 0.0
H838 H 0.54373 0.94501 0.81704 0.0
H839 H 0.45918 0.93946 0.76255 0.0
H840 H 0.40816 0.99954 0.54085 0.0
H841 H 0.46033 0.04213 0.45427 0.0
H842 H 0.59085 0.17064 0.46393 0.0
H843 H 0.63071 0.21689 0.55588 0.0
H844 H 0.71966 0.99387 0.59557 0.0
H845 H 0.59066 0.90745 0.56343 0.0
H846 H 0.47486 0.19613 0.65596 0.0
H847 H 0.52275 0.14344 0.82551 0.0
C848 C 0.62748 0.02171 0.04325 0.0
C849 C 0.63072 0.98776 -0.00108 0.0
H850 H 0.58524 0.06754 0.08817 0.0
C851 C 0.58896 0.97581 0.96488 0.0
H852 H 0.65877 0.03553 0.06735 0.0
C853 C 0.54565 0.99406 0.97697 0.0
C854 C 0.54167 0.02711 0.02251 0.0
H855 H 0.58961 0.9522 0.92755 0.0
H856 H 0.5154 0.98178 0.94973 0.0
C857 C 0.58426 0.04084 0.05471 0.0
C858 C 0.80535 0.81677 0.21364 0.0
C859 C 0.85467 0.82212 0.20157 0.0
H860 H 0.74272 0.77143 0.23382 0.0
C861 C 0.8773 0.78181 0.20236 0.0
H862 H 0.78599 0.84645 0.21514 0.0
C863 C 0.85228 0.73811 0.21162 0.0
C864 C 0.80284 0.73256 0.22222 0.0
H865 H 0.91501 0.78471 0.19808 0.0
H866 H 0.87214 0.70876 0.21296 0.0
C867 C 0.78023 0.77323 0.22376 0.0
C868 C 0.93971 0.98214 0.55335 0.0
C869 C 0.98348 0.99609 0.5237 0.0
H870 H 0.86501 0.98961 0.56453 0.0
C871 C 0.98144 0.03256 0.48249 0.0
H872 H 0.93733 0.95405 0.58477 0.0
C873 C 0.93892 0.05236 0.46991 0.0
C874 C 0.89571 0.03923 0.50009 0.0
H875 H 1.01281 0.04643 0.45896 0.0
H876 H 0.93997 0.07801 0.43498 0.0
C877 C 0.8972 1.00323 0.54211 0.0
C878 C 0.72623 0.21916 0.69963 0.0
C879 C 0.6728 0.21209 0.67934 0.0
H880 H 0.78356 0.26803 0.7222 0.0
C881 C 0.64957 0.25507 0.66931 0.0
H882 H 0.69817 0.20765 0.68908 0.0
C883 C 0.67526 0.29815 0.67937 0.0
C884 C 0.72318 0.30342 0.69887 0.0
H885 H 0.61302 0.25337 0.65464 0.0
H886 H 0.65662 0.32805 0.67401 0.0
C887 C 0.74707 0.26403 0.70705 0.0
C888 C 0.35827 0.23873 0.70145 0.0
C889 C 0.31105 0.23438 0.723 0.0
H890 H 0.419 0.28318 0.67182 0.0
C891 C 0.28975 0.27519 0.73046 0.0
H892 H 0.37695 0.20885 0.69646 0.0
C893 C 0.31418 0.3181 0.71697 0.0
C894 C 0.36173 0.32273 0.69635 0.0
H895 H 0.25359 0.2739 0.74666 0.0
H896 H 0.29504 0.34776 0.72123 0.0
C897 C 0.38291 0.28184 0.6882 0.0
C898 C 0.23573 0.75229 0.24363 0.0
C899 C 0.2146 0.79308 0.23367 0.0
H900 H 0.22939 0.67907 0.24161 0.0
C901 C 0.16759 0.78774 0.21072 0.0
H902 H 0.2715 0.75395 0.26132 0.0
C903 C 0.1436 0.74409 0.19779 0.0
C904 C 0.16451 0.70349 0.20932 0.0
H905 H 0.14853 0.81719 0.20413 0.0
H906 H 0.10829 0.74197 0.17895 0.0
C907 C 0.21131 0.70884 0.23237 0.0
C908 C 0.08331 0.54927 0.55775 0.0
C909 C 0.0418 0.53854 0.52185 0.0
H910 H 0.15651 0.53992 0.57563 0.0
C911 C 0.04605 0.50477 0.47725 0.0
H912 H 0.08396 0.57475 0.59279 0.0
C913 C 0.08829 0.48358 0.46867 0.0
C914 C 0.12943 0.49412 0.50437 0.0
H915 H 0.01692 0.49463 0.44737 0.0
H916 H 0.08881 0.4589 0.43255 0.0
C917 C 0.12588 0.52799 0.54892 0.0
C918 C 0.44893 0.56853 0.96182 0.0
C919 C 0.40806 0.55373 -0.0034 0.0
H920 H 0.52263 0.56311 0.94097 0.0
C921 C 0.41384 0.51848 0.03846 0.0
H922 H 0.44637 0.59307 0.92599 0.0
C923 C 0.458 0.49987 0.04548 0.0
C924 C 0.49883 0.51578 0.01158 0.0
H925 H 0.38373 0.503 0.0634 0.0
H926 H 0.45989 0.47187 0.0767 0.0
C927 C 0.49326 0.55086 0.96992 0.0
C928 C 0.26054 0.39614 0.12781 0.0
C929 C 0.21231 0.3979 0.11321 0.0
H930 H 0.32089 0.35712 0.12569 0.0
C931 C 0.18966 0.36124 0.07976 0.0
H932 H 0.27943 0.42336 0.15343 0.0
C933 C 0.21298 0.32313 0.06509 0.0
C934 C 0.26039 0.32038 0.0818 0.0
H935 H 0.15321 0.36153 0.06528 0.0
H936 H 0.19364 0.29551 0.04062 0.0
C937 C 0.2843 0.35798 0.11204 0.0
C938 C 0.4363 0.52278 0.32719 0.0
C939 C 0.4345 0.47778 0.34893 0.0
H940 H 0.47943 0.5813 0.2937 0.0
C941 C 0.47711 0.4569 0.34918 0.0
H942 H 0.40447 0.54005 0.3248 0.0
C943 C 0.52002 0.48059 0.33011 0.0
C944 C 0.52166 0.52583 0.31021 0.0
H945 H 0.47777 0.42271 0.36614 0.0
H946 H 0.55235 0.46404 0.33285 0.0
C947 C 0.47922 0.54645 0.3085 0.0
C948 C 0.33384 0.71392 0.59576 0.0
C949 C 0.28679 0.71142 0.5744 0.0
H950 H 0.39318 0.67916 0.62145 0.0
C951 C 0.26433 0.66767 0.56167 0.0
H952 H 0.35324 0.74629 0.60574 0.0
C953 C 0.28829 0.62838 0.56898 0.0
C954 C 0.33562 0.6312 0.58954 0.0
H955 H 0.22793 0.66347 0.54628 0.0
H956 H 0.26976 0.59585 0.55746 0.0
C957 C 0.35744 0.67482 0.60373 0.0
C958 C 1.005 0.55193 0.82415 0.0
C959 C 1.00368 0.50787 0.79975 0.0
H960 H 0.04653 0.60842 0.86527 0.0
C961 C 0.0467 0.48792 0.79733 0.0
H962 H 0.97251 0.56809 0.82808 0.0
C963 C 0.08948 0.51101 0.81882 0.0
C964 C 0.09104 0.55506 0.84395 0.0
H965 H 0.04711 0.4539 0.77961 0.0
H966 H 0.1215 0.49411 0.81545 0.0
C967 C 0.04779 0.57511 0.84565 0.0
C968 C 0.73311 0.63835 0.85441 0.0
C969 C 0.77633 0.62006 0.86793 0.0
H970 H 0.69259 0.69649 0.85659 0.0
C971 C 0.81153 0.65029 0.89652 0.0
H972 H 0.70461 0.61779 0.83217 0.0
C973 C 0.80535 0.69608 0.9072 0.0
C974 C 0.76243 0.71409 0.89435 0.0
H975 H 0.84495 0.6396 0.91104 0.0
H976 H 0.83491 0.7176 0.92578 0.0
C977 C 0.72624 0.68421 0.86779 0.0
C978 C 0.6352 0.59415 0.62941 0.0
C979 C 0.6208 0.55364 0.66003 0.0
H980 H 0.69274 0.63798 0.59416 0.0
C981 C 0.6557 0.53017 0.68809 0.0
H982 H 0.60919 0.61259 0.60661 0.0
C983 C 0.70416 0.54559 0.6824 0.0
C984 C 0.71893 0.58478 0.64882 0.0
H985 H 0.64573 0.49846 0.71131 0.0
H986 H 0.73023 0.52493 0.69992 0.0
C987 C 0.68345 0.6092 0.62331 0.0
C988 C 0.72213 0.32746 0.38209 0.0
C989 C 0.7682 0.31379 0.38283 0.0
H990 H 0.67703 0.3799 0.37466 0.0
C991 C 0.80576 0.34815 0.37403 0.0
H992 H 0.69205 0.3024 0.38813 0.0
C993 C 0.79733 0.39443 0.36591 0.0
C994 C 0.75085 0.40853 0.36641 0.0
H995 H 0.84192 0.33936 0.37444 0.0
H996 H 0.82767 0.41904 0.35992 0.0
C997 C 0.71369 0.37323 0.37468 0.0
C998 C 0.88393 0.49328 0.18737 0.0
C999 C 0.91693 0.46644 0.16141 0.0
H1000 H 0.81046 0.50521 0.19546 0.0
C1001 C 0.89985 0.4266 0.13079 0.0
H1002 H 0.89613 0.52403 0.21159 0.0
C1003 C 0.85107 0.41574 0.12206 0.0
C1004 C 0.81809 0.44393 0.14475 0.0
H1005 H 0.92437 0.40478 0.1114 0.0
H1006 H 0.83919 0.3865 0.09462 0.0
C1007 C 0.83494 0.48227 0.17884 0.0
C1008 C 0.68996 0.82026 0.58125 0.0
C1009 C 0.73659 0.82296 0.55844 0.0
H1010 H 0.63082 0.85466 0.60822 0.0
C1011 C 0.75828 0.86669 0.54403 0.0
H1012 H 0.67106 0.78792 0.59253 0.0
C1013 C 0.73396 0.90572 0.55094 0.0
C1014 C 0.68708 0.90271 0.57309 0.0
H1015 H 0.79438 0.87115 0.52762 0.0
H1016 H 0.75192 0.93818 0.53799 0.0
C1017 C 0.66608 0.85916 0.58908 0.0
C1018 C 0.98354 0.95669 0.8424 0.0
C1019 C 0.94037 0.97681 0.84079 0.0
H1020 H 0.059 0.96433 0.82641 0.0
C1021 C 0.94183 0.021 0.81619 0.0
H1022 H 0.98467 0.92318 0.86148 0.0
C1023 C 0.98462 0.04447 0.79582 0.0
C1024 C 0.02769 0.02473 0.79891 0.0
H1025 H 0.90976 0.03784 0.81284 0.0
H1026 H 0.98426 0.07876 0.77904 0.0
C1027 C 0.02641 0.98029 0.82204 0.0
C1028 C 0.85632 0.17751 0.08373 0.0
C1029 C 0.8313 0.13834 0.10948 0.0
H1030 H 0.85665 0.24686 0.05624 0.0
C1031 C 0.7826 0.14059 0.1206 0.0
H1032 H 0.89325 0.17762 0.07154 0.0
C1033 C 0.76078 0.18084 0.10951 0.0
C1034 C 0.78673 0.22088 0.08739 0.0
H1035 H 0.76141 0.11178 0.13988 0.0
H1036 H 0.72337 0.18049 0.11928 0.0
C1037 C 0.83479 0.21777 0.07357 0.0
C1038 C 0.53813 0.98734 0.29782 0.0
C1039 C 0.49599 1.00853 0.30239 0.0
H1040 H 0.61345 0.99199 0.31066 0.0
C1041 C 0.49956 0.0535 0.32395 0.0
H1042 H 0.53677 0.9526 0.28224 0.0
C1043 C 0.54374 0.07625 0.34121 0.0
C1044 C 0.58601 0.0547 0.33808 0.0
H1045 H 0.46779 0.07058 0.32958 0.0
H1046 H 0.54438 0.11026 0.3592 0.0
C1047 C 0.58222 1.00996 0.3151 0.0
C1048 C 0.22688 0.13836 0.36407 0.0
C1049 C 0.2706 0.12057 0.37692 0.0
H1050 H 0.18572 0.19622 0.36491 0.0
C1051 C 0.30628 0.15222 0.4021 0.0
H1052 H 0.19778 0.11691 0.34456 0.0
C1053 C 0.29976 0.1983 0.41101 0.0
C1054 C 0.25629 0.2157 0.39914 0.0
H1055 H 0.34052 0.14264 0.41497 0.0
H1056 H 0.32947 0.22056 0.42774 0.0
C1057 C 0.21988 0.18466 0.3752 0.0
C1058 C 0.13276 0.09062 0.12833 0.0
C1059 C 0.11627 0.05212 0.16206 0.0
H1060 H 0.19213 0.13056 0.09092 0.0
C1061 C 0.14967 0.02912 0.19404 0.0
H1062 H 0.10797 0.11008 0.10485 0.0
C1063 C 0.19857 0.04232 0.18834 0.0
C1064 C 0.21529 0.07848 0.15034 0.0
H1065 H 0.13805 0.9998 0.2215 0.0
H1066 H 0.22333 0.02284 0.21113 0.0
C1067 C 0.18142 0.1031 0.12163 0.0
C1068 C 0.22422 0.84125 0.92454 0.0
C1069 C 0.26577 0.82183 0.90848 0.0
H1070 H 0.18685 0.89947 0.93112 0.0
C1071 C 0.30176 0.85103 0.88015 0.0
H1072 H 0.19465 0.82051 0.94433 0.0
C1073 C 0.29581 0.89722 0.86741 0.0
C1074 C 0.25386 0.91668 0.88356 0.0
H1075 H 0.33441 0.83783 0.86654 0.0
H1076 H 0.3238 0.91711 0.84327 0.0
C1077 C 0.21914 0.88745 0.91455 0.0
C1078 C 0.32392 0.98753 0.69549 0.0
C1079 C 0.30742 0.94897 0.66157 0.0
H1080 H 0.38383 0.03406 0.72128 0.0
C1081 C 0.34166 0.92427 0.63373 0.0
H1082 H 0.29883 1.0083 0.71516 0.0
C1083 C 0.3902 0.93873 0.63726 0.0
C1084 C 0.40617 0.97904 0.66737 0.0
H1085 H 0.33108 0.89603 0.6042 0.0
H1086 H 0.41503 0.9203 0.61224 0.0
C1087 C 0.37267 1.00252 0.6983 0.0
C1088 C 0.50779 0.24102 0.92204 0.0
C1089 C 0.5112 0.20014 0.9529 0.0
H1090 H 0.54246 0.30586 0.90123 0.0
C1091 C 0.55577 0.18693 0.96835 0.0
H1092 H 0.47362 0.25202 0.91034 0.0
C1093 C 0.59509 0.21896 0.9658 0.0
C1094 C 0.5894 0.26279 0.94522 0.0
H1095 H 0.5587 0.1551 0.99158 0.0
H1096 H 0.62765 0.2117 0.9879 0.0
C1097 C 0.54733 0.27191 0.91664 0.0
C1098 C 0.47769 0.79567 0.08673 0.0
C1099 C 0.4616 0.8053 0.16071 0.0
H1100 H 0.57263 0.73488 0.04904 0.0
C1101 C 0.4925 0.78696 0.21943 0.0
H1102 H 0.45615 0.80806 0.05022 0.0
C1103 C 0.53889 0.75688 0.21905 0.0
C1104 C 0.56888 0.73815 0.15976 0.0
H1105 H 0.48182 0.79557 0.26477 0.0
H1106 H 0.54968 0.74801 0.26424 0.0
C1107 C 0.55215 0.74806 0.08599 0.0
C1108 C 0.05654 0.7454 0.41124 0.0
C1109 C 0.05674 0.79222 0.41811 0.0
H1110 H 1.01172 0.68342 0.41383 0.0
C1111 C 0.01682 0.81418 0.4034 0.0
H1112 H 0.0881 0.72868 0.42042 0.0
C1113 C 0.97371 0.78846 0.39692 0.0
C1114 C 0.97202 0.74201 0.40825 0.0
H1115 H 0.01747 0.85069 0.40692 0.0
H1116 H 0.94154 0.80539 0.39607 0.0
C1117 C 1.01322 0.71974 0.40708 0.0
C1118 C 0.03191 0.24707 0.71058 0.0
C1119 C 0.06531 0.23077 0.65274 0.0
H1120 H 0.97106 0.28309 0.75307 0.0
C1121 C 0.0509 0.24115 0.57826 0.0
H1122 H 0.04187 0.23824 0.75615 0.0
C1123 C 0.97427 0.28549 0.57485 0.0
C1124 C 0.95485 0.29377 0.64758 0.0
H1125 H 0.07392 0.23 0.54253 0.0
H1126 H 0.95441 0.29856 0.53717 0.0
C1127 C 0.98378 0.27526 0.7084 0.0
C1128 C 0.48677 0.73394 0.13543 0.0
C1129 C 0.47383 0.7179 0.06148 0.0
H1130 H 0.56159 0.8298 0.17148 0.0
C1131 C 0.49677 0.74839 0.00247 0.0
H1132 H 0.46952 0.71371 0.1722 0.0
C1133 C 0.5321 0.79566 0.00229 0.0
C1134 C 0.55587 0.82588 0.06097 0.0
H1135 H 0.48608 0.73864 0.95686 0.0
H1136 H 0.54217 0.80573 0.95659 0.0
C1137 C 0.54364 0.80974 0.13502 0.0
C1138 C 0.55442 0.23894 0.76516 0.0
C1139 C 0.50718 0.2203 0.76735 0.0
H1140 H 0.5999 0.29997 0.75329 0.0
C1141 C 0.47085 0.24779 0.7778 0.0
H1142 H 0.58276 0.21762 0.75757 0.0
C1143 C 0.48149 0.29447 0.77997 0.0
C1144 C 0.52802 0.31318 0.76842 0.0
H1145 H 0.4344 0.2334 0.7805 0.0
H1146 H 0.45277 0.31589 0.78336 0.0
C1147 C 0.56451 0.28546 0.76352 0.0
C1148 C 0.03761 0.30128 0.62819 0.0
C1149 C 0.05191 0.31926 0.55562 0.0
H1150 H 0.96608 0.2025 0.65857 0.0
C1151 C 0.03239 0.28901 0.49442 0.0
H1152 H 0.05277 0.3216 0.66622 0.0
C1153 C 0.9988 0.24023 0.49139 0.0
C1154 C 0.97457 0.20831 0.5486 0.0
H1155 H 0.04419 0.3007 0.44996 0.0
H1156 H 0.9902 0.23024 0.4452 0.0
C1157 C 0.98409 0.22381 0.62337 0.0
C1158 C 0.03787 0.7751 0.24421 0.0
C1159 C 0.02804 0.80186 0.19443 0.0
H1160 H 0.031 0.70988 0.28353 0.0
C1161 C 0.9982 0.78315 0.14793 0.0
H1162 H 0.06075 0.78847 0.28041 0.0
C1163 C 0.97811 0.73888 0.15167 0.0
C1164 C 0.9889 0.71146 0.20058 0.0
H1165 H 0.98753 0.80338 0.11027 0.0
H1166 H 0.95384 0.72646 0.11613 0.0
C1167 C 0.01922 0.7302 0.24682 0.0
loop_
_geom_bond_atom_site_label_1
_geom_bond_atom_site_label_2
_geom_bond_distance
_geom_bond_site_symmetry_2
_ccdc_geom_bond_type
C0 C1 1.443 . S
C0 N4 1.376 . S
C0 C38 1.389 . S
C1 C0 1.443 . S
C1 C2 1.340 . S
C1 H41 0.951 . S
C2 C1 1.340 . S
C2 C3 1.439 . S
C2 H42 0.950 . S
C3 C2 1.439 . S
C3 N4 1.374 . S
C3 C37 1.395 . S
N4 C0 1.376 . S
N4 C3 1.374 . S
N4 Co5 2.008 1_556 S
Co5 N4 2.008 1_554 S
Co5 N6 1.995 1_554 S
Co5 N11 2.008 . S
Co5 N16 1.995 . S
Co5 N21 2.282 . S
Co5 N27 2.282 1_554 S
N6 Co5 1.995 1_556 S
N6 C7 1.376 . S
N6 C10 1.383 . S
C7 N6 1.376 . S
C7 C8 1.446 . S
C7 C37 1.391 . S
C8 C7 1.446 . S
C8 C9 1.339 . S
C8 H43 0.949 . S
C9 C8 1.339 . S
C9 C10 1.439 . S
C9 H44 0.950 . S
C10 N6 1.383 . S
C10 C9 1.439 . S
C10 C39 1.392 1_556 S
N11 Co5 2.008 . S
N11 C12 1.376 . S
N11 C15 1.374 . S
C12 N11 1.376 . S
C12 C13 1.443 . S
C12 C39 1.389 . S
C13 C12 1.443 . S
C13 C14 1.340 . S
C13 H45 0.951 . S
C14 C13 1.340 . S
C14 C15 1.439 . S
C14 H46 0.950 . S
C15 N11 1.374 . S
C15 C14 1.439 . S
C15 C40 1.395 . S
N16 Co5 1.995 . S
N16 C17 1.376 . S
N16 C20 1.383 . S
C17 N16 1.376 . S
C17 C18 1.446 . S
C17 C40 1.391 . S
C18 C17 1.446 . S
C18 C19 1.339 . S
C18 H47 0.949 . S
C19 C18 1.339 . S
C19 C20 1.439 . S
C19 H48 0.950 . S
C20 N16 1.383 . S
C20 C19 1.439 . S
C20 C38 1.392 1_554 S
N21 Co5 2.282 . S
N21 C24 1.332 . S
N21 C26 1.332 1_554 S
C22 C23 1.386 . S
C22 C25 1.388 1_554 S
C23 C22 1.386 . S
C23 C24 1.382 . S
C23 H49 0.950 . S
C24 N21 1.332 . S
C24 C23 1.382 . S
C24 H35 0.952 . S
C25 C22 1.388 1_556 S
C25 C26 1.382 . S
C25 H50 0.950 . S
C26 N21 1.332 1_556 S
C26 C25 1.382 . S
C26 H36 0.948 . S
N27 Co5 2.282 1_556 S
N27 C31 1.332 . S
N27 C32 1.332 1_556 S
C28 C29 1.388 1_554 S
C28 C32 1.382 . S
C28 H51 0.950 . S
C29 C28 1.388 1_556 S
C29 C30 1.386 . S
C30 C29 1.386 . S
C30 C31 1.382 . S
C30 H52 0.950 . S
C31 N27 1.332 . S
C31 C30 1.382 . S
C31 H33 0.952 . S
C32 N27 1.332 1_554 S
C32 C28 1.382 . S
C32 H34 0.948 . S
H33 C31 0.952 . S
H34 C32 0.948 . S
H35 C24 0.952 . S
H36 C26 0.948 . S
C37 C3 1.395 . S
C37 C7 1.391 . S
C38 C0 1.389 . S
C38 C20 1.392 1_556 S
C39 C10 1.392 1_554 S
C39 C12 1.389 . S
C40 C15 1.395 . S
C40 C17 1.391 . S
H41 C1 0.951 . S
H42 C2 0.950 . S
H43 C8 0.949 . S
H44 C9 0.950 . S
H45 C13 0.951 . S
H46 C14 0.950 . S
H47 C18 0.949 . S
H48 C19 0.950 . S
H49 C23 0.950 . S
H50 C25 0.950 . S
H51 C28 0.950 . S
H52 C30 0.950 . S
C53 C54 1.443 . S
C53 N57 1.376 . S
C53 C91 1.389 . S
C54 C53 1.443 . S
C54 C55 1.340 . S
C54 H94 0.951 . S
C55 C54 1.340 . S
C55 C56 1.439 . S
C55 H95 0.950 . S
C56 C55 1.439 . S
C56 N57 1.374 . S
C56 C90 1.395 . S
N57 C53 1.376 . S
N57 C56 1.374 . S
N57 Co58 2.008 . S
Co58 N57 2.008 . S
Co58 N59 1.995 . S
Co58 N64 2.008 . S
Co58 N69 1.995 . S
Co58 N74 2.282 . S
Co58 N80 2.282 . S
N59 Co58 1.995 . S
N59 C60 1.376 . S
N59 C63 1.383 . S
C60 N59 1.376 . S
C60 C61 1.446 . S
C60 C90 1.391 . S
C61 C60 1.446 . S
C61 C62 1.339 . S
C61 H96 0.949 . S
C62 C61 1.339 . S
C62 C63 1.439 . S
C62 H97 0.950 . S
C63 N59 1.383 . S
C63 C62 1.439 . S
C63 C92 1.392 . S
N64 Co58 2.008 . S
N64 C65 1.376 . S
N64 C68 1.374 . S
C65 N64 1.376 . S
C65 C66 1.443 . S
C65 C92 1.389 . S
C66 C65 1.443 . S
C66 C67 1.340 . S
C66 H98 0.951 . S
C67 C66 1.340 . S
C67 C68 1.439 . S
C67 H99 0.950 . S
C68 N64 1.374 . S
C68 C67 1.439 . S
C68 C93 1.395 . S
N69 Co58 1.995 . S
N69 C70 1.376 . S
N69 C73 1.383 . S
C70 N69 1.376 . S
C70 C71 1.446 . S
C70 C93 1.391 . S
C71 C70 1.446 . S
C71 C72 1.339 . S
C71 H100 0.949 1_554 S
C72 C71 1.339 . S
C72 C73 1.439 . S
C72 H101 0.950 . S
C73 N69 1.383 . S
C73 C72 1.439 . S
C73 C91 1.392 . S
N74 Co58 2.282 . S
N74 C77 1.332 . S
N74 C79 1.332 . S
C75 C76 1.386 . S
C75 C78 1.388 . S
C76 C75 1.386 . S
C76 C77 1.382 . S
C76 H102 0.950 . S
C77 N74 1.332 . S
C77 C76 1.382 . S
C77 H88 0.952 . S
C78 C75 1.388 . S
C78 C79 1.382 . S
C78 H103 0.950 . S
C79 N74 1.332 . S
C79 C78 1.382 . S
C79 H89 0.948 . S
N80 Co58 2.282 . S
N80 C84 1.332 . S
N80 C85 1.332 . S
C81 C82 1.388 . S
C81 C85 1.382 . S
C81 H104 0.950 . S
C82 C81 1.388 . S
C82 C83 1.386 . S
C83 C82 1.386 . S
C83 C84 1.382 . S
C83 H105 0.950 . S
C84 N80 1.332 . S
C84 C83 1.382 . S
C84 H86 0.952 . S
C85 N80 1.332 . S
C85 C81 1.382 . S
C85 H87 0.948 . S
H86 C84 0.952 . S
H87 C85 0.948 . S
H88 C77 0.952 . S
H89 C79 0.948 . S
C90 C56 1.395 . S
C90 C60 1.391 . S
C91 C53 1.389 . S
C91 C73 1.392 . S
C92 C63 1.392 . S
C92 C65 1.389 . S
C93 C68 1.395 . S
C93 C70 1.391 . S
H94 C54 0.951 . S
H95 C55 0.950 . S
H96 C61 0.949 . S
H97 C62 0.950 . S
H98 C66 0.951 . S
H99 C67 0.950 . S
H100 C71 0.949 1_556 S
H101 C72 0.950 . S
H102 C76 0.950 . S
H103 C78 0.950 . S
H104 C81 0.950 . S
H105 C83 0.950 . S
C106 C107 1.443 . S
C106 N110 1.376 . S
C106 C144 1.389 . S
C107 C106 1.443 . S
C107 C108 1.340 . S
C107 H147 0.951 . S
C108 C107 1.340 . S
C108 C109 1.439 . S
C108 H148 0.950 . S
C109 C108 1.439 . S
C109 N110 1.374 . S
C109 C143 1.395 . S
N110 C106 1.376 . S
N110 C109 1.374 . S
N110 Co111 2.008 . S
Co111 N110 2.008 . S
Co111 N112 1.995 . S
Co111 N117 2.008 . S
Co111 N122 1.995 . S
Co111 N127 2.282 . S
Co111 N133 2.282 . S
N112 Co111 1.995 . S
N112 C113 1.376 . S
N112 C116 1.383 . S
C113 N112 1.376 . S
C113 C114 1.446 . S
C113 C143 1.391 . S
C114 C113 1.446 . S
C114 C115 1.339 . S
C114 H149 0.949 . S
C115 C114 1.339 . S
C115 C116 1.439 . S
C115 H150 0.950 . S
C116 N112 1.383 . S
C116 C115 1.439 . S
C116 C145 1.392 . S
N117 Co111 2.008 . S
N117 C118 1.376 . S
N117 C121 1.374 . S
C118 N117 1.376 . S
C118 C119 1.443 . S
C118 C145 1.389 . S
C119 C118 1.443 . S
C119 C120 1.340 . S
C119 H151 0.951 . S
C120 C119 1.340 . S
C120 C121 1.439 . S
C120 H152 0.950 . S
C121 N117 1.374 . S
C121 C120 1.439 . S
C121 C146 1.395 . S
N122 Co111 1.995 . S
N122 C123 1.376 . S
N122 C126 1.383 . S
C123 N122 1.376 . S
C123 C124 1.446 . S
C123 C146 1.391 . S
C124 C123 1.446 . S
C124 C125 1.339 . S
C124 H153 0.949 . S
C125 C124 1.339 . S
C125 C126 1.439 . S
C125 H154 0.950 . S
C126 N122 1.383 . S
C126 C125 1.439 . S
C126 C144 1.392 . S
N127 Co111 2.282 . S
N127 C130 1.332 . S
N127 C132 1.332 . S
C128 C129 1.386 . S
C128 C131 1.388 . S
C129 C128 1.386 . S
C129 C130 1.382 . S
C129 H155 0.950 . S
C130 N127 1.332 . S
C130 C129 1.382 . S
C130 H141 0.952 . S
C131 C128 1.388 . S
C131 C132 1.382 . S
C131 H156 0.950 . S
C132 N127 1.332 . S
C132 C131 1.382 . S
C132 H142 0.948 . S
N133 Co111 2.282 . S
N133 C137 1.332 . S
N133 C138 1.332 . S
C134 C135 1.388 . S
C134 C138 1.382 . S
C134 H157 0.950 . S
C135 C134 1.388 . S
C135 C136 1.386 . S
C136 C135 1.386 . S
C136 C137 1.382 . S
C136 H158 0.950 . S
C137 N133 1.332 . S
C137 C136 1.382 . S
C137 H139 0.952 . S
C138 N133 1.332 . S
C138 C134 1.382 . S
C138 H140 0.948 . S
H139 C137 0.952 . S
H140 C138 0.948 . S
H141 C130 0.952 . S
H142 C132 0.948 . S
C143 C109 1.395 . S
C143 C113 1.391 . S
C144 C106 1.389 . S
C144 C126 1.392 . S
C145 C116 1.392 . S
C145 C118 1.389 . S
C146 C121 1.395 . S
C146 C123 1.391 . S
H147 C107 0.951 . S
H148 C108 0.950 . S
H149 C114 0.949 . S
H150 C115 0.950 . S
H151 C119 0.951 . S
H152 C120 0.950 . S
H153 C124 0.949 . S
H154 C125 0.950 . S
H155 C129 0.950 . S
H156 C131 0.950 . S
H157 C134 0.950 . S
H158 C136 0.950 . S
C159 C160 1.443 . S
C159 N163 1.376 . S
C159 C197 1.389 . S
C160 C159 1.443 . S
C160 C161 1.340 . S
C160 H200 0.951 . S
C161 C160 1.340 . S
C161 C162 1.439 . S
C161 H201 0.950 . S
C162 C161 1.439 . S
C162 N163 1.374 . S
C162 C196 1.395 . S
N163 C159 1.376 . S
N163 C162 1.374 . S
N163 Co164 2.008 . S
Co164 N163 2.008 . S
Co164 N165 1.995 . S
Co164 N170 2.008 . S
Co164 N175 1.995 . S
Co164 N180 2.282 . S
Co164 N186 2.282 . S
N165 Co164 1.995 . S
N165 C166 1.376 . S
N165 C169 1.383 . S
C166 N165 1.376 . S
C166 C167 1.446 . S
C166 C196 1.391 . S
C167 C166 1.446 . S
C167 C168 1.339 . S
C167 H202 0.949 . S
C168 C167 1.339 . S
C168 C169 1.439 . S
C168 H203 0.950 1_655 S
C169 N165 1.383 . S
C169 C168 1.439 . S
C169 C198 1.392 . S
N170 Co164 2.008 . S
N170 C171 1.376 . S
N170 C174 1.374 . S
C171 N170 1.376 . S
C171 C172 1.443 . S
C171 C198 1.389 . S
C172 C171 1.443 . S
C172 C173 1.340 . S
C172 H204 0.951 . S
C173 C172 1.340 . S
C173 C174 1.439 . S
C173 H205 0.950 . S
C174 N170 1.374 . S
C174 C173 1.439 . S
C174 C199 1.395 . S
N175 Co164 1.995 . S
N175 C176 1.376 . S
N175 C179 1.383 . S
C176 N175 1.376 . S
C176 C177 1.446 . S
C176 C199 1.391 . S
C177 C176 1.446 . S
C177 C178 1.339 . S
C177 H206 0.949 . S
C178 C177 1.339 . S
C178 C179 1.439 . S
C178 H207 0.950 . S
C179 N175 1.383 . S
C179 C178 1.439 . S
C179 C197 1.392 . S
N180 Co164 2.282 . S
N180 C183 1.332 . S
N180 C185 1.332 . S
C181 C182 1.386 . S
C181 C184 1.388 . S
C182 C181 1.386 . S
C182 C183 1.382 . S
C182 H208 0.950 . S
C183 N180 1.332 . S
C183 C182 1.382 . S
C183 H194 0.952 . S
C184 C181 1.388 . S
C184 C185 1.382 . S
C184 H209 0.950 . S
C185 N180 1.332 . S
C185 C184 1.382 . S
C185 H195 0.948 . S
N186 Co164 2.282 . S
N186 C190 1.332 . S
N186 C191 1.332 . S
C187 C188 1.388 . S
C187 C191 1.382 . S
C187 H210 0.950 . S
C188 C187 1.388 . S
C188 C189 1.386 . S
C189 C188 1.386 . S
C189 C190 1.382 . S
C189 H211 0.950 . S
C190 N186 1.332 . S
C190 C189 1.382 . S
C190 H192 0.952 . S
C191 N186 1.332 . S
C191 C187 1.382 . S
C191 H193 0.948 . S
H192 C190 0.952 . S
H193 C191 0.948 . S
H194 C183 0.952 . S
H195 C185 0.948 . S
C196 C162 1.395 . S
C196 C166 1.391 . S
C197 C159 1.389 . S
C197 C179 1.392 . S
C198 C169 1.392 . S
C198 C171 1.389 . S
C199 C174 1.395 . S
C199 C176 1.391 . S
H200 C160 0.951 . S
H201 C161 0.950 . S
H202 C167 0.949 . S
H203 C168 0.950 1_455 S
H204 C172 0.951 . S
H205 C173 0.950 . S
H206 C177 0.949 . S
H207 C178 0.950 . S
H208 C182 0.950 . S
H209 C184 0.950 . S
H210 C187 0.950 . S
H211 C189 0.950 . S
C212 C213 1.443 . S
C212 N216 1.376 . S
C212 C250 1.389 . S
C213 C212 1.443 . S
C213 C214 1.340 . S
C213 H253 0.951 . S
C214 C213 1.340 . S
C214 C215 1.439 . S
C214 H254 0.950 . S
C215 C214 1.439 . S
C215 N216 1.374 . S
C215 C249 1.395 . S
N216 C212 1.376 . S
N216 C215 1.374 . S
N216 Co217 2.008 1_554 S
Co217 N216 2.008 1_556 S
Co217 N218 1.995 1_556 S
Co217 N223 2.008 . S
Co217 N228 1.995 . S
Co217 N233 2.282 . S
Co217 N239 2.282 1_556 S
N218 Co217 1.995 1_554 S
N218 C219 1.376 . S
N218 C222 1.383 . S
C219 N218 1.376 . S
C219 C220 1.446 . S
C219 C249 1.391 . S
C220 C219 1.446 . S
C220 C221 1.339 . S
C220 H255 0.949 . S
C221 C220 1.339 . S
C221 C222 1.439 . S
C221 H256 0.950 . S
C222 N218 1.383 . S
C222 C221 1.439 . S
C222 C251 1.392 1_554 S
N223 Co217 2.008 . S
N223 C224 1.376 . S
N223 C227 1.374 . S
C224 N223 1.376 . S
C224 C225 1.443 . S
C224 C251 1.389 . S
C225 C224 1.443 . S
C225 C226 1.340 . S
C225 H257 0.951 . S
C226 C225 1.340 . S
C226 C227 1.439 . S
C226 H258 0.950 . S
C227 N223 1.374 . S
C227 C226 1.439 . S
C227 C252 1.395 . S
N228 Co217 1.995 . S
N228 C229 1.376 . S
N228 C232 1.383 . S
C229 N228 1.376 . S
C229 C230 1.446 . S
C229 C252 1.391 . S
C230 C229 1.446 . S
C230 C231 1.339 . S
C230 H259 0.949 . S
C231 C230 1.339 . S
C231 C232 1.439 . S
C231 H260 0.950 . S
C232 N228 1.383 . S
C232 C231 1.439 . S
C232 C250 1.392 1_556 S
N233 Co217 2.282 . S
N233 C236 1.332 . S
N233 C238 1.332 1_556 S
C234 C235 1.386 . S
C234 C237 1.376 1_556 S
C235 C234 1.386 . S
C235 C236 1.382 . S
C235 H261 0.950 . S
C236 N233 1.332 . S
C236 C235 1.382 . S
C236 H247 0.952 . S
C237 C234 1.376 1_554 S
C237 C238 1.386 . S
C237 H262 0.959 . S
C238 N233 1.332 1_554 S
C238 C237 1.386 . S
C238 H248 0.948 . S
N239 Co217 2.282 1_554 S
N239 C243 1.332 . S
N239 C244 1.332 1_554 S
C240 C241 1.372 1_556 S
C240 C244 1.387 . S
C240 H263 0.962 . S
C241 C240 1.372 1_554 S
C241 C242 1.386 . S
C242 C241 1.386 . S
C242 C243 1.382 . S
C242 H264 0.950 . S
C243 N239 1.332 . S
C243 C242 1.382 . S
C243 H245 0.952 . S
C244 N239 1.332 1_556 S
C244 C240 1.387 . S
C244 H246 0.948 . S
H245 C243 0.952 . S
H246 C244 0.948 . S
H247 C236 0.952 . S
H248 C238 0.948 . S
C249 C215 1.395 . S
C249 C219 1.391 . S
C250 C212 1.389 . S
C250 C232 1.392 1_554 S
C251 C222 1.392 1_556 S
C251 C224 1.389 . S
C252 C227 1.395 . S
C252 C229 1.391 . S
H253 C213 0.951 . S
H254 C214 0.950 . S
H255 C220 0.949 . S
H256 C221 0.950 . S
H257 C225 0.951 . S
H258 C226 0.950 . S
H259 C230 0.949 . S
H260 C231 0.950 . S
H261 C235 0.950 . S
H262 C237 0.959 . S
H263 C240 0.962 . S
H264 C242 0.950 . S
C265 C266 1.443 . S
C265 N269 1.376 . S
C265 C303 1.389 . S
C266 C265 1.443 . S
C266 C267 1.340 . S
C266 H306 0.951 . S
C267 C266 1.340 . S
C267 C268 1.439 . S
C267 H307 0.950 . S
C268 C267 1.439 . S
C268 N269 1.374 . S
C268 C302 1.395 . S
N269 C265 1.376 . S
N269 C268 1.374 . S
N269 Co270 2.008 . S
Co270 N269 2.008 . S
Co270 N271 1.995 . S
Co270 N276 2.008 . S
Co270 N281 1.995 . S
Co270 N286 2.282 . S
Co270 N292 2.282 . S
N271 Co270 1.995 . S
N271 C272 1.376 . S
N271 C275 1.383 . S
C272 N271 1.376 . S
C272 C273 1.446 . S
C272 C302 1.391 . S
C273 C272 1.446 . S
C273 C274 1.339 . S
C273 H308 0.949 . S
C274 C273 1.339 . S
C274 C275 1.439 . S
C274 H309 0.950 . S
C275 N271 1.383 . S
C275 C274 1.439 . S
C275 C304 1.392 . S
N276 Co270 2.008 . S
N276 C277 1.376 . S
N276 C280 1.374 . S
C277 N276 1.376 . S
C277 C278 1.443 . S
C277 C304 1.389 . S
C278 C277 1.443 . S
C278 C279 1.340 . S
C278 H310 0.951 . S
C279 C278 1.340 . S
C279 C280 1.439 . S
C279 H311 0.950 . S
C280 N276 1.374 . S
C280 C279 1.439 . S
C280 C305 1.395 . S
N281 Co270 1.995 . S
N281 C282 1.376 . S
N281 C285 1.383 . S
C282 N281 1.376 . S
C282 C283 1.446 . S
C282 C305 1.391 . S
C283 C282 1.446 . S
C283 C284 1.339 . S
C283 H312 0.949 . S
C284 C283 1.339 . S
C284 C285 1.439 . S
C284 H313 0.950 . S
C285 N281 1.383 . S
C285 C284 1.439 . S
C285 C303 1.392 . S
N286 Co270 2.282 . S
N286 C289 1.332 . S
N286 C291 1.332 . S
C287 C288 1.386 . S
C287 C290 1.388 . S
C288 C287 1.386 . S
C288 C289 1.382 . S
C288 H314 0.950 . S
C289 N286 1.332 . S
C289 C288 1.382 . S
C289 H300 0.952 . S
C290 C287 1.388 . S
C290 C291 1.382 . S
C290 H315 0.950 . S
C291 N286 1.332 . S
C291 C290 1.382 . S
C291 H301 0.948 . S
N292 Co270 2.282 . S
N292 C296 1.332 . S
N292 C297 1.332 . S
C293 C294 1.388 . S
C293 C297 1.382 . S
C293 H316 0.950 . S
C294 C293 1.388 . S
C294 C295 1.386 . S
C295 C294 1.386 . S
C295 C296 1.382 . S
C295 H317 0.950 . S
C296 N292 1.332 . S
C296 C295 1.382 . S
C296 H298 0.952 . S
C297 N292 1.332 . S
C297 C293 1.382 . S
C297 H299 0.948 . S
H298 C296 0.952 . S
H299 C297 0.948 . S
H300 C289 0.952 . S
H301 C291 0.948 . S
C302 C268 1.395 . S
C302 C272 1.391 . S
C303 C265 1.389 . S
C303 C285 1.392 . S
C304 C275 1.392 . S
C304 C277 1.389 . S
C305 C280 1.395 . S
C305 C282 1.391 . S
H306 C266 0.951 . S
H307 C267 0.950 . S
H308 C273 0.949 . S
H309 C274 0.950 . S
H310 C278 0.951 . S
H311 C279 0.950 . S
H312 C283 0.949 . S
H313 C284 0.950 . S
H314 C288 0.950 . S
H315 C290 0.950 . S
H316 C293 0.950 . S
H317 C295 0.950 . S
C318 C319 1.443 . S
C318 N322 1.376 . S
C318 C356 1.389 . S
C319 C318 1.443 . S
C319 C320 1.340 . S
C319 H359 0.951 . S
C320 C319 1.340 . S
C320 C321 1.439 . S
C320 H360 0.950 . S
C321 C320 1.439 . S
C321 N322 1.374 . S
C321 C355 1.395 . S
N322 C318 1.376 . S
N322 C321 1.374 . S
N322 Co323 2.008 . S
Co323 N322 2.008 . S
Co323 N324 1.995 . S
Co323 N329 2.008 . S
Co323 N334 1.995 . S
Co323 N339 2.282 . S
Co323 N345 2.282 . S
N324 Co323 1.995 . S
N324 C325 1.376 . S
N324 C328 1.383 . S
C325 N324 1.376 . S
C325 C326 1.446 . S
C325 C355 1.391 . S
C326 C325 1.446 . S
C326 C327 1.339 . S
C326 H361 0.949 . S
C327 C326 1.339 . S
C327 C328 1.439 . S
C327 H362 0.950 . S
C328 N324 1.383 . S
C328 C327 1.439 . S
C328 C357 1.392 . S
N329 Co323 2.008 . S
N329 C330 1.376 . S
N329 C333 1.374 . S
C330 N329 1.376 . S
C330 C331 1.443 . S
C330 C357 1.389 . S
C331 C330 1.443 . S
C331 C332 1.340 . S
C331 H363 0.951 . S
C332 C331 1.340 . S
C332 C333 1.439 . S
C332 H364 0.950 . S
C333 N329 1.374 . S
C333 C332 1.439 . S
C333 C358 1.395 . S
N334 Co323 1.995 . S
N334 C335 1.376 . S
N334 C338 1.383 . S
C335 N334 1.376 . S
C335 C336 1.446 . S
C335 C358 1.391 . S
C336 C335 1.446 . S
C336 C337 1.339 . S
C336 H365 0.949 . S
C337 C336 1.339 . S
C337 C338 1.439 . S
C337 H366 0.950 . S
C338 N334 1.383 . S
C338 C337 1.439 . S
C338 C356 1.392 . S
N339 Co323 2.282 . S
N339 C342 1.332 . S
N339 C344 1.332 . S
C340 C341 1.386 . S
C340 C343 1.388 . S
C341 C340 1.386 . S
C341 C342 1.382 . S
C341 H367 0.950 . S
C342 N339 1.332 . S
C342 C341 1.382 . S
C342 H353 0.952 . S
C343 C340 1.388 . S
C343 C344 1.382 . S
C343 H368 0.950 . S
C344 N339 1.332 . S
C344 C343 1.382 . S
C344 H354 0.948 . S
N345 Co323 2.282 . S
N345 C349 1.332 . S
N345 C350 1.332 . S
C346 C347 1.388 . S
C346 C350 1.382 . S
C346 H369 0.950 . S
C347 C346 1.388 . S
C347 C348 1.386 . S
C348 C347 1.386 . S
C348 C349 1.382 . S
C348 H370 0.950 . S
C349 N345 1.332 . S
C349 C348 1.382 . S
C349 H351 0.952 . S
C350 N345 1.332 . S
C350 C346 1.382 . S
C350 H352 0.948 . S
H351 C349 0.952 . S
H352 C350 0.948 . S
H353 C342 0.952 . S
H354 C344 0.948 . S
C355 C321 1.395 . S
C355 C325 1.391 . S
C356 C318 1.389 . S
C356 C338 1.392 . S
C357 C328 1.392 . S
C357 C330 1.389 . S
C358 C333 1.395 . S
C358 C335 1.391 . S
H359 C319 0.951 . S
H360 C320 0.950 . S
H361 C326 0.949 . S
H362 C327 0.950 . S
H363 C331 0.951 . S
H364 C332 0.950 . S
H365 C336 0.949 . S
H366 C337 0.950 . S
H367 C341 0.950 . S
H368 C343 0.950 . S
H369 C346 0.950 . S
H370 C348 0.950 . S
C371 C372 1.443 . S
C371 N375 1.376 . S
C371 C409 1.389 . S
C372 C371 1.443 . S
C372 C373 1.340 . S
C372 H412 0.951 . S
C373 C372 1.340 . S
C373 C374 1.439 . S
C373 H413 0.950 . S
C374 C373 1.439 . S
C374 N375 1.374 . S
C374 C408 1.395 . S
N375 C371 1.376 . S
N375 C374 1.374 . S
N375 Co376 2.008 . S
Co376 N375 2.008 . S
Co376 N377 1.995 . S
Co376 N382 2.008 . S
Co376 N387 1.995 . S
Co376 N392 2.282 . S
Co376 N398 2.282 . S
N377 Co376 1.995 . S
N377 C378 1.376 . S
N377 C381 1.383 1_455 S
C378 N377 1.376 . S
C378 C379 1.446 1_455 S
C378 C408 1.391 . S
C379 C378 1.446 1_655 S
C379 C380 1.339 . S
C379 H414 0.949 . S
C380 C379 1.339 . S
C380 C381 1.439 . S
C380 H415 0.950 . S
C381 N377 1.383 1_655 S
C381 C380 1.439 . S
C381 C410 1.392 . S
N382 Co376 2.008 . S
N382 C383 1.376 . S
N382 C386 1.374 . S
C383 N382 1.376 . S
C383 C384 1.443 1_455 S
C383 C410 1.389 1_455 S
C384 C383 1.443 1_655 S
C384 C385 1.340 1_655 S
C384 H416 0.951 . S
C385 C384 1.340 1_455 S
C385 C386 1.439 . S
C385 H417 0.950 . S
C386 N382 1.374 . S
C386 C385 1.439 . S
C386 C411 1.395 . S
N387 Co376 1.995 . S
N387 C388 1.376 . S
N387 C391 1.383 . S
C388 N387 1.376 . S
C388 C389 1.446 . S
C388 C411 1.391 . S
C389 C388 1.446 . S
C389 C390 1.339 . S
C389 H418 0.949 . S
C390 C389 1.339 . S
C390 C391 1.439 . S
C390 H419 0.950 . S
C391 N387 1.383 . S
C391 C390 1.439 . S
C391 C409 1.392 . S
N392 Co376 2.282 . S
N392 C395 1.332 . S
N392 C397 1.332 . S
C393 C394 1.386 . S
C393 C396 1.388 . S
C394 C393 1.386 . S
C394 C395 1.382 . S
C394 H420 0.950 . S
C395 N392 1.332 . S
C395 C394 1.382 . S
C395 H406 0.952 . S
C396 C393 1.388 . S
C396 C397 1.382 . S
C396 H421 0.950 . S
C397 N392 1.332 . S
C397 C396 1.382 . S
C397 H407 0.948 . S
N398 Co376 2.282 . S
N398 C402 1.332 . S
N398 C403 1.332 . S
C399 C400 1.388 . S
C399 C403 1.382 . S
C399 H422 0.950 . S
C400 C399 1.388 . S
C400 C401 1.386 . S
C401 C400 1.386 . S
C401 C402 1.382 . S
C401 H423 0.950 1_455 S
C402 N398 1.332 . S
C402 C401 1.382 . S
C402 H404 0.952 . S
C403 N398 1.332 . S
C403 C399 1.382 . S
C403 H405 0.948 . S
H404 C402 0.952 . S
H405 C403 0.948 . S
H406 C395 0.952 . S
H407 C397 0.948 . S
C408 C374 1.395 . S
C408 C378 1.391 . S
C409 C371 1.389 . S
C409 C391 1.392 . S
C410 C381 1.392 . S
C410 C383 1.389 1_655 S
C411 C386 1.395 . S
C411 C388 1.391 . S
H412 C372 0.951 . S
H413 C373 0.950 . S
H414 C379 0.949 . S
H415 C380 0.950 . S
H416 C384 0.951 . S
H417 C385 0.950 . S
H418 C389 0.949 . S
H419 C390 0.950 . S
H420 C394 0.950 . S
H421 C396 0.950 . S
H422 C399 0.950 . S
H423 C401 0.950 1_655 S
C424 C425 1.443 . S
C424 N428 1.376 . S
C424 C462 1.389 . S
C425 C424 1.443 . S
C425 C426 1.340 . S
C425 H465 0.951 . S
C426 C425 1.340 . S
C426 C427 1.439 . S
C426 H466 0.950 . S
C427 C426 1.439 . S
C427 N428 1.374 . S
C427 C461 1.395 . S
N428 C424 1.376 . S
N428 C427 1.374 . S
N428 Co429 2.008 . S
Co429 N428 2.008 . S
Co429 N430 1.995 . S
Co429 N435 2.008 . S
Co429 N440 1.995 . S
Co429 N445 2.282 . S
Co429 N451 2.282 . S
N430 Co429 1.995 . S
N430 C431 1.376 . S
N430 C434 1.383 . S
C431 N430 1.376 . S
C431 C432 1.446 . S
C431 C461 1.391 . S
C432 C431 1.446 . S
C432 C433 1.339 . S
C432 H467 0.949 . S
C433 C432 1.339 . S
C433 C434 1.439 . S
C433 H468 0.950 . S
C434 N430 1.383 . S
C434 C433 1.439 . S
C434 C463 1.392 . S
N435 Co429 2.008 . S
N435 C436 1.376 . S
N435 C439 1.374 . S
C436 N435 1.376 . S
C436 C437 1.443 . S
C436 C463 1.389 . S
C437 C436 1.443 . S
C437 C438 1.340 . S
C437 H469 0.951 . S
C438 C437 1.340 . S
C438 C439 1.439 . S
C438 H470 0.950 . S
C439 N435 1.374 . S
C439 C438 1.439 . S
C439 C464 1.395 . S
N440 Co429 1.995 . S
N440 C441 1.376 . S
N440 C444 1.383 . S
C441 N440 1.376 . S
C441 C442 1.446 . S
C441 C464 1.391 . S
C442 C441 1.446 . S
C442 C443 1.339 . S
C442 H471 0.949 . S
C443 C442 1.339 . S
C443 C444 1.439 . S
C443 H472 0.950 . S
C444 N440 1.383 . S
C444 C443 1.439 . S
C444 C462 1.392 . S
N445 Co429 2.282 . S
N445 C448 1.332 . S
N445 C450 1.332 . S
C446 C447 1.386 . S
C446 C449 1.388 . S
C447 C446 1.386 . S
C447 C448 1.382 . S
C447 H473 0.950 . S
C448 N445 1.332 . S
C448 C447 1.382 . S
C448 H459 0.952 . S
C449 C446 1.388 . S
C449 C450 1.382 . S
C449 H474 0.950 . S
C450 N445 1.332 . S
C450 C449 1.382 . S
C450 H460 0.948 . S
N451 Co429 2.282 . S
N451 C455 1.332 . S
N451 C456 1.332 . S
C452 C453 1.388 . S
C452 C456 1.382 . S
C452 H475 0.950 . S
C453 C452 1.388 . S
C453 C454 1.386 . S
C454 C453 1.386 . S
C454 C455 1.382 . S
C454 H476 0.950 . S
C455 N451 1.332 . S
C455 C454 1.382 . S
C455 H457 0.952 . S
C456 N451 1.332 . S
C456 C452 1.382 . S
C456 H458 0.948 . S
H457 C455 0.952 . S
H458 C456 0.948 . S
H459 C448 0.952 . S
H460 C450 0.948 . S
C461 C427 1.395 . S
C461 C431 1.391 . S
C462 C424 1.389 . S
C462 C444 1.392 . S
C463 C434 1.392 . S
C463 C436 1.389 . S
C464 C439 1.395 . S
C464 C441 1.391 . S
H465 C425 0.951 . S
H466 C426 0.950 . S
H467 C432 0.949 . S
H468 C433 0.950 . S
H469 C437 0.951 . S
H470 C438 0.950 . S
H471 C442 0.949 . S
H472 C443 0.950 . S
H473 C447 0.950 . S
H474 C449 0.950 . S
H475 C452 0.950 . S
H476 C454 0.950 . S
C477 C478 1.443 . S
C477 N481 1.376 . S
C477 C515 1.389 . S
C478 C477 1.443 . S
C478 C479 1.340 . S
C478 H518 0.951 . S
C479 C478 1.340 . S
C479 C480 1.439 . S
C479 H519 0.950 . S
C480 C479 1.439 . S
C480 N481 1.374 . S
C480 C514 1.395 . S
N481 C477 1.376 . S
N481 C480 1.374 . S
N481 Co482 2.008 . S
Co482 N481 2.008 . S
Co482 N483 1.995 . S
Co482 N488 2.008 . S
Co482 N493 1.995 . S
Co482 N498 2.282 1_545 S
Co482 N504 2.282 . S
N483 Co482 1.995 . S
N483 C484 1.376 . S
N483 C487 1.383 . S
C484 N483 1.376 . S
C484 C485 1.446 . S
C484 C514 1.391 . S
C485 C484 1.446 . S
C485 C486 1.339 . S
C485 H520 0.949 . S
C486 C485 1.339 . S
C486 C487 1.439 . S
C486 H521 0.950 1_445 S
C487 N483 1.383 . S
C487 C486 1.439 . S
C487 C516 1.392 1_545 S
N488 Co482 2.008 . S
N488 C489 1.376 1_545 S
N488 C492 1.374 1_545 S
C489 N488 1.376 1_565 S
C489 C490 1.443 . S
C489 C516 1.389 . S
C490 C489 1.443 . S
C490 C491 1.340 . S
C490 H522 0.951 . S
C491 C490 1.340 . S
C491 C492 1.439 . S
C491 H523 0.950 . S
C492 N488 1.374 1_565 S
C492 C491 1.439 . S
C492 C517 1.395 1_565 S
N493 Co482 1.995 . S
N493 C494 1.376 . S
N493 C497 1.383 . S
C494 N493 1.376 . S
C494 C495 1.446 . S
C494 C517 1.391 . S
C495 C494 1.446 . S
C495 C496 1.339 . S
C495 H524 0.949 . S
C496 C495 1.339 . S
C496 C497 1.439 . S
C496 H525 0.950 . S
C497 N493 1.383 . S
C497 C496 1.439 . S
C497 C515 1.392 . S
N498 Co482 2.282 1_565 S
N498 C501 1.332 . S
N498 C503 1.332 . S
C499 C500 1.386 . S
C499 C502 1.388 . S
C500 C499 1.386 . S
C500 C501 1.382 . S
C500 H526 0.950 . S
C501 N498 1.332 . S
C501 C500 1.382 . S
C501 H512 0.952 . S
C502 C499 1.388 . S
C502 C503 1.382 . S
C502 H527 0.950 . S
C503 N498 1.332 . S
C503 C502 1.382 . S
C503 H513 0.948 . S
N504 Co482 2.282 . S
N504 C508 1.332 . S
N504 C509 1.332 . S
C505 C506 1.388 . S
C505 C509 1.382 . S
C505 H528 0.950 . S
C506 C505 1.388 . S
C506 C507 1.386 . S
C507 C506 1.386 . S
C507 C508 1.382 . S
C507 H529 0.950 . S
C508 N504 1.332 . S
C508 C507 1.382 . S
C508 H510 0.952 . S
C509 N504 1.332 . S
C509 C505 1.382 . S
C509 H511 0.948 . S
H510 C508 0.952 . S
H511 C509 0.948 . S
H512 C501 0.952 . S
H513 C503 0.948 . S
C514 C480 1.395 . S
C514 C484 1.391 . S
C515 C477 1.389 . S
C515 C497 1.392 . S
C516 C487 1.392 1_565 S
C516 C489 1.389 . S
C517 C492 1.395 1_545 S
C517 C494 1.391 . S
H518 C478 0.951 . S
H519 C479 0.950 . S
H520 C485 0.949 . S
H521 C486 0.950 1_665 S
H522 C490 0.951 . S
H523 C491 0.950 . S
H524 C495 0.949 . S
H525 C496 0.950 . S
H526 C500 0.950 . S
H527 C502 0.950 . S
H528 C505 0.950 . S
H529 C507 0.950 . S
C530 C531 1.443 . S
C530 N534 1.376 . S
C530 C568 1.389 . S
C531 C530 1.443 . S
C531 C532 1.340 . S
C531 H571 0.951 . S
C532 C531 1.340 . S
C532 C533 1.439 . S
C532 H572 0.950 . S
C533 C532 1.439 . S
C533 N534 1.374 . S
C533 C567 1.395 . S
N534 C530 1.376 . S
N534 C533 1.374 . S
N534 Co535 2.008 1_556 S
Co535 N534 2.008 1_554 S
Co535 N536 1.995 1_554 S
Co535 N541 2.008 . S
Co535 N546 1.995 . S
Co535 N551 2.282 . S
Co535 N557 2.282 1_554 S
N536 Co535 1.995 1_556 S
N536 C537 1.376 . S
N536 C540 1.383 . S
C537 N536 1.376 . S
C537 C538 1.446 . S
C537 C567 1.391 . S
C538 C537 1.446 . S
C538 C539 1.339 . S
C538 H573 0.949 . S
C539 C538 1.339 . S
C539 C540 1.439 . S
C539 H574 0.950 . S
C540 N536 1.383 . S
C540 C539 1.439 . S
C540 C569 1.392 1_556 S
N541 Co535 2.008 . S
N541 C542 1.376 . S
N541 C545 1.374 . S
C542 N541 1.376 . S
C542 C543 1.443 . S
C542 C569 1.389 . S
C543 C542 1.443 . S
C543 C544 1.340 . S
C543 H575 0.951 . S
C544 C543 1.340 . S
C544 C545 1.439 . S
C544 H576 0.950 . S
C545 N541 1.374 . S
C545 C544 1.439 . S
C545 C570 1.395 . S
N546 Co535 1.995 . S
N546 C547 1.376 . S
N546 C550 1.383 . S
C547 N546 1.376 . S
C547 C548 1.446 . S
C547 C570 1.391 . S
C548 C547 1.446 . S
C548 C549 1.339 . S
C548 H577 0.949 . S
C549 C548 1.339 . S
C549 C550 1.439 . S
C549 H578 0.950 . S
C550 N546 1.383 . S
C550 C549 1.439 . S
C550 C568 1.392 1_554 S
N551 Co535 2.282 . S
N551 C554 1.332 . S
N551 C556 1.332 1_554 S
C552 C553 1.386 . S
C552 C555 1.388 1_554 S
C553 C552 1.386 . S
C553 C554 1.382 . S
C553 H579 0.950 . S
C554 N551 1.332 . S
C554 C553 1.382 . S
C554 H565 0.952 . S
C555 C552 1.388 1_556 S
C555 C556 1.382 . S
C555 H580 0.950 . S
C556 N551 1.332 1_556 S
C556 C555 1.382 . S
C556 H566 0.948 . S
N557 Co535 2.282 1_556 S
N557 C561 1.332 . S
N557 C562 1.332 1_556 S
C558 C559 1.388 1_554 S
C558 C562 1.382 . S
C558 H581 0.950 . S
C559 C558 1.388 1_556 S
C559 C560 1.386 . S
C560 C559 1.386 . S
C560 C561 1.382 . S
C560 H582 0.950 . S
C561 N557 1.332 . S
C561 C560 1.382 . S
C561 H563 0.952 . S
C562 N557 1.332 1_554 S
C562 C558 1.382 . S
C562 H564 0.948 . S
H563 C561 0.952 . S
H564 C562 0.948 . S
H565 C554 0.952 . S
H566 C556 0.948 . S
C567 C533 1.395 . S
C567 C537 1.391 . S
C568 C530 1.389 . S
C568 C550 1.392 1_556 S
C569 C540 1.392 1_554 S
C569 C542 1.389 . S
C570 C545 1.395 . S
C570 C547 1.391 . S
H571 C531 0.951 . S
H572 C532 0.950 . S
H573 C538 0.949 . S
H574 C539 0.950 . S
H575 C543 0.951 . S
H576 C544 0.950 . S
H577 C548 0.949 . S
H578 C549 0.950 . S
H579 C553 0.950 . S
H580 C555 0.950 . S
H581 C558 0.950 . S
H582 C560 0.950 . S
C583 C584 1.443 . S
C583 N587 1.376 . S
C583 C621 1.389 . S
C584 C583 1.443 . S
C584 C585 1.340 . S
C584 H624 0.951 . S
C585 C584 1.340 . S
C585 C586 1.439 . S
C585 H625 0.950 . S
C586 C585 1.439 . S
C586 N587 1.374 . S
C586 C620 1.395 . S
N587 C583 1.376 . S
N587 C586 1.374 . S
N587 Co588 2.008 . S
Co588 N587 2.008 . S
Co588 N589 1.995 . S
Co588 N594 2.008 . S
Co588 N599 1.995 . S
Co588 N604 2.282 1_565 S
Co588 N610 2.282 . S
N589 Co588 1.995 . S
N589 C590 1.376 . S
N589 C593 1.383 . S
C590 N589 1.376 . S
C590 C591 1.446 . S
C590 C620 1.391 . S
C591 C590 1.446 . S
C591 C592 1.339 . S
C591 H626 0.949 . S
C592 C591 1.339 . S
C592 C593 1.439 . S
C592 H627 0.950 1_565 S
C593 N589 1.383 . S
C593 C592 1.439 . S
C593 C622 1.392 1_565 S
N594 Co588 2.008 . S
N594 C595 1.376 1_565 S
N594 C598 1.374 1_565 S
C595 N594 1.376 1_545 S
C595 C596 1.443 . S
C595 C622 1.389 . S
C596 C595 1.443 . S
C596 C597 1.340 . S
C596 H628 0.951 . S
C597 C596 1.340 . S
C597 C598 1.439 . S
C597 H629 0.950 . S
C598 N594 1.374 1_545 S
C598 C597 1.439 . S
C598 C623 1.395 1_545 S
N599 Co588 1.995 . S
N599 C600 1.376 . S
N599 C603 1.383 . S
C600 N599 1.376 . S
C600 C601 1.446 . S
C600 C623 1.391 . S
C601 C600 1.446 . S
C601 C602 1.339 . S
C601 H630 0.949 1_554 S
C602 C601 1.339 . S
C602 C603 1.439 . S
C602 H631 0.950 . S
C603 N599 1.383 . S
C603 C602 1.439 . S
C603 C621 1.392 . S
N604 Co588 2.282 1_545 S
N604 C607 1.332 . S
N604 C609 1.332 . S
C605 C606 1.386 . S
C605 C608 1.388 . S
C606 C605 1.386 . S
C606 C607 1.382 . S
C606 H632 0.950 . S
C607 N604 1.332 . S
C607 C606 1.382 . S
C607 H618 0.952 . S
C608 C605 1.388 . S
C608 C609 1.382 . S
C608 H633 0.950 . S
C609 N604 1.332 . S
C609 C608 1.382 . S
C609 H619 0.948 . S
N610 Co588 2.282 . S
N610 C614 1.332 . S
N610 C615 1.332 . S
C611 C612 1.388 . S
C611 C615 1.382 . S
C611 H634 0.950 . S
C612 C611 1.388 . S
C612 C613 1.386 . S
C613 C612 1.386 . S
C613 C614 1.382 . S
C613 H635 0.950 . S
C614 N610 1.332 . S
C614 C613 1.382 . S
C614 H616 0.952 . S
C615 N610 1.332 . S
C615 C611 1.382 . S
C615 H617 0.948 . S
H616 C614 0.952 . S
H617 C615 0.948 . S
H618 C607 0.952 . S
H619 C609 0.948 . S
C620 C586 1.395 . S
C620 C590 1.391 . S
C621 C583 1.389 . S
C621 C603 1.392 . S
C622 C593 1.392 1_545 S
C622 C595 1.389 . S
C623 C598 1.395 1_565 S
C623 C600 1.391 . S
H624 C584 0.951 . S
H625 C585 0.950 . S
H626 C591 0.949 . S
H627 C592 0.950 1_545 S
H628 C596 0.951 . S
H629 C597 0.950 . S
H630 C601 0.949 1_556 S
H631 C602 0.950 . S
H632 C606 0.950 . S
H633 C608 0.950 . S
H634 C611 0.950 . S
H635 C613 0.950 . S
C636 C637 1.443 . S
C636 N640 1.376 . S
C636 C674 1.389 . S
C637 C636 1.443 . S
C637 C638 1.340 . S
C637 H677 0.951 . S
C638 C637 1.340 . S
C638 C639 1.439 . S
C638 H678 0.950 . S
C639 C638 1.439 . S
C639 N640 1.374 . S
C639 C673 1.395 . S
N640 C636 1.376 . S
N640 C639 1.374 . S
N640 Co641 2.008 . S
Co641 N640 2.008 . S
Co641 N642 1.995 . S
Co641 N647 2.008 . S
Co641 N652 1.995 . S
Co641 N657 2.282 . S
Co641 N663 2.282 . S
N642 Co641 1.995 . S
N642 C643 1.376 . S
N642 C646 1.383 . S
C643 N642 1.376 . S
C643 C644 1.446 . S
C643 C673 1.391 . S
C644 C643 1.446 . S
C644 C645 1.339 . S
C644 H679 0.949 . S
C645 C644 1.339 . S
C645 C646 1.439 . S
C645 H680 0.950 . S
C646 N642 1.383 . S
C646 C645 1.439 . S
C646 C675 1.392 . S
N647 Co641 2.008 . S
N647 C648 1.376 . S
N647 C651 1.374 . S
C648 N647 1.376 . S
C648 C649 1.443 . S
C648 C675 1.389 . S
C649 C648 1.443 . S
C649 C650 1.340 . S
C649 H681 0.951 . S
C650 C649 1.340 . S
C650 C651 1.439 . S
C650 H682 0.950 . S
C651 N647 1.374 . S
C651 C650 1.439 . S
C651 C676 1.395 . S
N652 Co641 1.995 . S
N652 C653 1.376 . S
N652 C656 1.383 . S
C653 N652 1.376 . S
C653 C654 1.446 . S
C653 C676 1.391 . S
C654 C653 1.446 . S
C654 C655 1.339 . S
C654 H683 0.949 . S
C655 C654 1.339 . S
C655 C656 1.439 . S
C655 H684 0.950 . S
C656 N652 1.383 . S
C656 C655 1.439 . S
C656 C674 1.392 . S
N657 Co641 2.282 . S
N657 C660 1.332 . S
N657 C662 1.332 . S
C658 C659 1.386 . S
C658 C661 1.388 . S
C659 C658 1.386 . S
C659 C660 1.382 . S
C659 H685 0.950 . S
C660 N657 1.332 . S
C660 C659 1.382 . S
C660 H671 0.952 . S
C661 C658 1.388 . S
C661 C662 1.382 . S
C661 H686 0.950 . S
C662 N657 1.332 . S
C662 C661 1.382 . S
C662 H672 0.948 . S
N663 Co641 2.282 . S
N663 C667 1.332 . S
N663 C668 1.332 . S
C664 C665 1.388 . S
C664 C668 1.382 . S
C664 H687 0.950 . S
C665 C664 1.388 . S
C665 C666 1.386 . S
C666 C665 1.386 . S
C666 C667 1.382 . S
C666 H688 0.950 . S
C667 N663 1.332 . S
C667 C666 1.382 . S
C667 H669 0.952 . S
C668 N663 1.332 . S
C668 C664 1.382 . S
C668 H670 0.948 . S
H669 C667 0.952 . S
H670 C668 0.948 . S
H671 C660 0.952 . S
H672 C662 0.948 . S
C673 C639 1.395 . S
C673 C643 1.391 . S
C674 C636 1.389 . S
C674 C656 1.392 . S
C675 C646 1.392 . S
C675 C648 1.389 . S
C676 C651 1.395 . S
C676 C653 1.391 . S
H677 C637 0.951 . S
H678 C638 0.950 . S
H679 C644 0.949 . S
H680 C645 0.950 . S
H681 C649 0.951 . S
H682 C650 0.950 . S
H683 C654 0.949 . S
H684 C655 0.950 . S
H685 C659 0.950 . S
H686 C661 0.950 . S
H687 C664 0.950 . S
H688 C666 0.950 . S
C689 C690 1.443 . S
C689 N693 1.376 . S
C689 C727 1.389 . S
C690 C689 1.443 . S
C690 C691 1.340 . S
C690 H730 0.951 . S
C691 C690 1.340 . S
C691 C692 1.439 . S
C691 H731 0.950 . S
C692 C691 1.439 . S
C692 N693 1.374 . S
C692 C726 1.395 . S
N693 C689 1.376 . S
N693 C692 1.374 . S
N693 Co694 2.008 . S
Co694 N693 2.008 . S
Co694 N695 1.995 . S
Co694 N700 2.008 . S
Co694 N705 1.995 . S
Co694 N710 2.282 1_565 S
Co694 N716 2.282 . S
N695 Co694 1.995 . S
N695 C696 1.376 . S
N695 C699 1.383 1_665 S
C696 N695 1.376 . S
C696 C697 1.446 1_665 S
C696 C726 1.391 . S
C697 C696 1.446 1_445 S
C697 C698 1.339 . S
C697 H732 0.949 . S
C698 C697 1.339 . S
C698 C699 1.439 . S
C698 H733 0.950 . S
C699 N695 1.383 1_445 S
C699 C698 1.439 . S
C699 C728 1.392 . S
N700 Co694 2.008 . S
N700 C701 1.376 1_565 S
N700 C704 1.374 . S
C701 N700 1.376 1_545 S
C701 C702 1.443 1_655 S
C701 C728 1.389 1_655 S
C702 C701 1.443 1_455 S
C702 C703 1.340 1_445 S
C702 H734 0.951 . S
C703 C702 1.340 1_665 S
C703 C704 1.439 . S
C703 H735 0.950 . S
C704 N700 1.374 . S
C704 C703 1.439 . S
C704 C729 1.395 . S
N705 Co694 1.995 . S
N705 C706 1.376 . S
N705 C709 1.383 . S
C706 N705 1.376 . S
C706 C707 1.446 . S
C706 C729 1.391 . S
C707 C706 1.446 . S
C707 C708 1.339 . S
C707 H736 0.949 . S
C708 C707 1.339 . S
C708 C709 1.439 . S
C708 H737 0.950 . S
C709 N705 1.383 . S
C709 C708 1.439 . S
C709 C727 1.392 . S
N710 Co694 2.282 1_545 S
N710 C713 1.332 . S
N710 C715 1.332 . S
C711 C712 1.386 . S
C711 C714 1.388 . S
C712 C711 1.386 . S
C712 C713 1.382 . S
C712 H738 0.950 . S
C713 N710 1.332 . S
C713 C712 1.382 . S
C713 H724 0.952 1_545 S
C714 C711 1.388 . S
C714 C715 1.382 . S
C714 H739 0.950 . S
C715 N710 1.332 . S
C715 C714 1.382 . S
C715 H725 0.948 . S
N716 Co694 2.282 . S
N716 C720 1.332 . S
N716 C721 1.332 . S
C717 C718 1.388 . S
C717 C721 1.382 . S
C717 H740 0.950 . S
C718 C717 1.388 . S
C718 C719 1.386 . S
C719 C718 1.386 . S
C719 C720 1.382 . S
C719 H741 0.950 1_655 S
C720 N716 1.332 . S
C720 C719 1.382 . S
C720 H722 0.952 . S
C721 N716 1.332 . S
C721 C717 1.382 . S
C721 H723 0.948 . S
H722 C720 0.952 . S
H723 C721 0.948 . S
H724 C713 0.952 1_565 S
H725 C715 0.948 . S
C726 C692 1.395 . S
C726 C696 1.391 . S
C727 C689 1.389 . S
C727 C709 1.392 . S
C728 C699 1.392 . S
C728 C701 1.389 1_455 S
C729 C704 1.395 . S
C729 C706 1.391 . S
H730 C690 0.951 . S
H731 C691 0.950 . S
H732 C697 0.949 . S
H733 C698 0.950 . S
H734 C702 0.951 . S
H735 C703 0.950 . S
H736 C707 0.949 . S
H737 C708 0.950 . S
H738 C712 0.950 . S
H739 C714 0.950 . S
H740 C717 0.950 . S
H741 C719 0.950 1_455 S
C742 C743 1.443 . S
C742 N746 1.376 . S
C742 C780 1.389 . S
C743 C742 1.443 . S
C743 C744 1.340 . S
C743 H783 0.951 . S
C744 C743 1.340 . S
C744 C745 1.439 . S
C744 H784 0.950 . S
C745 C744 1.439 . S
C745 N746 1.374 . S
C745 C779 1.395 . S
N746 C742 1.376 . S
N746 C745 1.374 . S
N746 Co747 2.008 1_554 S
Co747 N746 2.008 1_556 S
Co747 N748 1.995 1_556 S
Co747 N753 2.008 . S
Co747 N758 1.995 . S
Co747 N763 2.282 . S
Co747 N769 2.282 1_556 S
N748 Co747 1.995 1_554 S
N748 C749 1.376 . S
N748 C752 1.383 . S
C749 N748 1.376 . S
C749 C750 1.446 . S
C749 C779 1.391 . S
C750 C749 1.446 . S
C750 C751 1.339 . S
C750 H785 0.949 . S
C751 C750 1.339 . S
C751 C752 1.439 . S
C751 H786 0.950 . S
C752 N748 1.383 . S
C752 C751 1.439 . S
C752 C781 1.392 1_554 S
N753 Co747 2.008 . S
N753 C754 1.376 . S
N753 C757 1.374 . S
C754 N753 1.376 . S
C754 C755 1.443 . S
C754 C781 1.389 . S
C755 C754 1.443 . S
C755 C756 1.340 . S
C755 H787 0.951 . S
C756 C755 1.340 . S
C756 C757 1.439 . S
C756 H788 0.950 . S
C757 N753 1.374 . S
C757 C756 1.439 . S
C757 C782 1.395 . S
N758 Co747 1.995 . S
N758 C759 1.376 . S
N758 C762 1.383 . S
C759 N758 1.376 . S
C759 C760 1.446 . S
C759 C782 1.391 . S
C760 C759 1.446 . S
C760 C761 1.339 . S
C760 H789 0.949 . S
C761 C760 1.339 . S
C761 C762 1.439 . S
C761 H790 0.950 . S
C762 N758 1.383 . S
C762 C761 1.439 . S
C762 C780 1.392 1_556 S
N763 Co747 2.282 . S
N763 C766 1.332 . S
N763 C768 1.332 1_556 S
C764 C765 1.386 . S
C764 C767 1.376 1_556 S
C765 C764 1.386 . S
C765 C766 1.382 . S
C765 H791 0.950 . S
C766 N763 1.332 . S
C766 C765 1.382 . S
C766 H777 0.952 . S
C767 C764 1.376 1_554 S
C767 C768 1.386 . S
C767 H792 0.959 . S
C768 N763 1.332 1_554 S
C768 C767 1.386 . S
C768 H778 0.948 . S
N769 Co747 2.282 1_554 S
N769 C773 1.332 . S
N769 C774 1.332 1_554 S
C770 C771 1.372 1_556 S
C770 C774 1.387 . S
C770 H793 0.962 . S
C771 C770 1.372 1_554 S
C771 C772 1.386 . S
C772 C771 1.386 . S
C772 C773 1.382 . S
C772 H794 0.950 . S
C773 N769 1.332 . S
C773 C772 1.382 . S
C773 H775 0.952 . S
C774 N769 1.332 1_556 S
C774 C770 1.387 . S
C774 H776 0.948 . S
H775 C773 0.952 . S
H776 C774 0.948 . S
H777 C766 0.952 . S
H778 C768 0.948 . S
C779 C745 1.395 . S
C779 C749 1.391 . S
C780 C742 1.389 . S
C780 C762 1.392 1_554 S
C781 C752 1.392 1_556 S
C781 C754 1.389 . S
C782 C757 1.395 . S
C782 C759 1.391 . S
H783 C743 0.951 . S
H784 C744 0.950 . S
H785 C750 0.949 . S
H786 C751 0.950 . S
H787 C755 0.951 . S
H788 C756 0.950 . S
H789 C760 0.949 . S
H790 C761 0.950 . S
H791 C765 0.950 . S
H792 C767 0.959 . S
H793 C770 0.962 . S
H794 C772 0.950 . S
C795 C796 1.443 . S
C795 N799 1.376 . S
C795 C833 1.389 . S
C796 C795 1.443 . S
C796 C797 1.340 . S
C796 H836 0.951 . S
C797 C796 1.340 . S
C797 C798 1.439 . S
C797 H837 0.950 . S
C798 C797 1.439 . S
C798 N799 1.374 . S
C798 C832 1.395 . S
N799 C795 1.376 . S
N799 C798 1.374 . S
N799 Co800 2.008 . S
Co800 N799 2.008 . S
Co800 N801 1.995 . S
Co800 N806 2.008 . S
Co800 N811 1.995 . S
Co800 N816 2.282 1_545 S
Co800 N822 2.282 . S
N801 Co800 1.995 . S
N801 C802 1.376 . S
N801 C805 1.383 1_545 S
C802 N801 1.376 . S
C802 C803 1.446 1_545 S
C802 C832 1.391 . S
C803 C802 1.446 1_565 S
C803 C804 1.339 . S
C803 H838 0.949 . S
C804 C803 1.339 . S
C804 C805 1.439 . S
C804 H839 0.950 . S
C805 N801 1.383 1_565 S
C805 C804 1.439 . S
C805 C834 1.392 . S
N806 Co800 2.008 . S
N806 C807 1.376 1_545 S
N806 C810 1.374 . S
C807 N806 1.376 1_565 S
C807 C808 1.443 . S
C807 C834 1.389 . S
C808 C807 1.443 . S
C808 C809 1.340 1_565 S
C808 H840 0.951 . S
C809 C808 1.340 1_545 S
C809 C810 1.439 . S
C809 H841 0.950 . S
C810 N806 1.374 . S
C810 C809 1.439 . S
C810 C835 1.395 . S
N811 Co800 1.995 . S
N811 C812 1.376 . S
N811 C815 1.383 . S
C812 N811 1.376 . S
C812 C813 1.446 . S
C812 C835 1.391 . S
C813 C812 1.446 . S
C813 C814 1.339 . S
C813 H842 0.949 . S
C814 C813 1.339 . S
C814 C815 1.439 . S
C814 H843 0.950 . S
C815 N811 1.383 . S
C815 C814 1.439 . S
C815 C833 1.392 . S
N816 Co800 2.282 1_565 S
N816 C819 1.332 . S
N816 C821 1.332 . S
C817 C818 1.386 . S
C817 C820 1.388 . S
C818 C817 1.386 . S
C818 C819 1.382 . S
C818 H844 0.950 . S
C819 N816 1.332 . S
C819 C818 1.382 . S
C819 H830 0.952 1_565 S
C820 C817 1.388 . S
C820 C821 1.382 . S
C820 H845 0.950 . S
C821 N816 1.332 . S
C821 C820 1.382 . S
C821 H831 0.948 . S
N822 Co800 2.282 . S
N822 C826 1.332 . S
N822 C827 1.332 . S
C823 C824 1.388 . S
C823 C827 1.382 . S
C823 H846 0.950 . S
C824 C823 1.388 . S
C824 C825 1.386 . S
C825 C824 1.386 . S
C825 C826 1.382 . S
C825 H847 0.950 . S
C826 N822 1.332 . S
C826 C825 1.382 . S
C826 H828 0.952 . S
C827 N822 1.332 . S
C827 C823 1.382 . S
C827 H829 0.948 . S
H828 C826 0.952 . S
H829 C827 0.948 . S
H830 C819 0.952 1_545 S
H831 C821 0.948 . S
C832 C798 1.395 . S
C832 C802 1.391 . S
C833 C795 1.389 . S
C833 C815 1.392 . S
C834 C805 1.392 . S
C834 C807 1.389 . S
C835 C810 1.395 . S
C835 C812 1.391 . S
H836 C796 0.951 . S
H837 C797 0.950 . S
H838 C803 0.949 . S
H839 C804 0.950 . S
H840 C808 0.951 . S
H841 C809 0.950 . S
H842 C813 0.949 . S
H843 C814 0.950 . S
H844 C818 0.950 . S
H845 C820 0.950 . S
H846 C823 0.950 . S
H847 C825 0.950 . S
C848 C849 1.387 . S
C848 H852 0.950 . S
C848 C857 1.390 . S
C849 C848 1.387 . S
C849 C851 1.387 1_554 S
H850 C857 0.950 1_545 S
C851 C849 1.387 1_556 S
C851 C853 1.390 . S
C851 H855 0.950 . S
H852 C848 0.950 . S
C853 C851 1.390 . S
C853 C854 1.387 . S
C853 H856 0.950 . S
C854 C853 1.387 . S
C854 C857 1.387 1_556 S
H855 C851 0.950 . S
H856 C853 0.950 . S
C857 C848 1.390 . S
C857 H850 0.950 1_565 S
C857 C854 1.387 1_554 S
C858 C859 1.387 . S
C858 H862 0.950 . S
C858 C867 1.390 . S
C859 C858 1.387 . S
C859 C861 1.387 . S
H860 C867 0.950 . S
C861 C859 1.387 . S
C861 C863 1.390 . S
C861 H865 0.950 . S
H862 C858 0.950 . S
C863 C861 1.390 . S
C863 C864 1.387 . S
C863 H866 0.950 . S
C864 C863 1.387 . S
C864 C867 1.387 . S
H865 C861 0.950 . S
H866 C863 0.950 . S
C867 C858 1.390 . S
C867 H860 0.950 . S
C867 C864 1.387 . S
C868 C869 1.387 1_565 S
C868 H872 0.950 . S
C868 C877 1.390 1_565 S
C869 C868 1.387 1_545 S
C869 C871 1.387 . S
H870 C877 0.950 . S
C871 C869 1.387 . S
C871 C873 1.390 . S
C871 H875 0.950 . S
H872 C868 0.950 . S
C873 C871 1.390 . S
C873 C874 1.387 . S
C873 H876 0.950 . S
C874 C873 1.387 . S
C874 C877 1.387 . S
H875 C871 0.950 . S
H876 C873 0.950 . S
C877 C868 1.390 1_545 S
C877 H870 0.950 . S
C877 C874 1.387 . S
C878 C879 1.387 . S
C878 H882 0.950 . S
C878 C887 1.390 . S
C879 C878 1.387 . S
C879 C881 1.387 . S
H880 C887 0.950 . S
C881 C879 1.387 . S
C881 C883 1.390 . S
C881 H885 0.950 . S
H882 C878 0.950 . S
C883 C881 1.390 . S
C883 C884 1.387 . S
C883 H886 0.950 . S
C884 C883 1.387 . S
C884 C887 1.387 . S
H885 C881 0.950 . S
H886 C883 0.950 . S
C887 C878 1.390 . S
C887 H880 0.950 . S
C887 C884 1.387 . S
C888 C889 1.387 . S
C888 H892 0.950 . S
C888 C897 1.390 . S
C889 C888 1.387 . S
C889 C891 1.387 . S
H890 C897 0.950 . S
C891 C889 1.387 . S
C891 C893 1.390 . S
C891 H895 0.950 . S
H892 C888 0.950 . S
C893 C891 1.390 . S
C893 C894 1.387 . S
C893 H896 0.950 . S
C894 C893 1.387 . S
C894 C897 1.387 . S
H895 C891 0.950 . S
H896 C893 0.950 . S
C897 C888 1.390 . S
C897 H890 0.950 . S
C897 C894 1.387 . S
C898 C899 1.387 . S
C898 H902 0.950 . S
C898 C907 1.390 . S
C899 C898 1.387 . S
C899 C901 1.387 . S
H900 C907 0.950 . S
C901 C899 1.387 . S
C901 C903 1.390 . S
C901 H905 0.950 . S
H902 C898 0.950 . S
C903 C901 1.390 . S
C903 C904 1.387 . S
C903 H906 0.950 . S
C904 C903 1.387 . S
C904 C907 1.387 . S
H905 C901 0.950 . S
H906 C903 0.950 . S
C907 C898 1.390 . S
C907 H900 0.950 . S
C907 C904 1.387 . S
C908 C909 1.387 . S
C908 H912 0.950 . S
C908 C917 1.390 . S
C909 C908 1.387 . S
C909 C911 1.387 . S
H910 C917 0.950 . S
C911 C909 1.387 . S
C911 C913 1.390 . S
C911 H915 0.950 . S
H912 C908 0.950 . S
C913 C911 1.390 . S
C913 C914 1.387 . S
C913 H916 0.950 . S
C914 C913 1.387 . S
C914 C917 1.387 . S
H915 C911 0.950 . S
H916 C913 0.950 . S
C917 C908 1.390 . S
C917 H910 0.950 . S
C917 C914 1.387 . S
C918 C919 1.387 1_556 S
C918 H922 0.950 . S
C918 C927 1.390 . S
C919 C918 1.387 1_554 S
C919 C921 1.387 . S
H920 C927 0.950 . S
C921 C919 1.387 . S
C921 C923 1.390 . S
C921 H925 0.950 . S
H922 C918 0.950 . S
C923 C921 1.390 . S
C923 C924 1.387 1_554 S
C923 H926 0.950 . S
C924 C923 1.387 1_556 S
C924 C927 1.387 . S
H925 C921 0.950 . S
H926 C923 0.950 . S
C927 C918 1.390 . S
C927 H920 0.950 . S
C927 C924 1.387 . S
C928 C929 1.387 . S
C928 H932 0.950 . S
C928 C937 1.390 . S
C929 C928 1.387 . S
C929 C931 1.387 . S
H930 C937 0.950 . S
C931 C929 1.387 . S
C931 C933 1.390 . S
C931 H935 0.950 . S
H932 C928 0.950 . S
C933 C931 1.390 . S
C933 C934 1.387 . S
C933 H936 0.950 . S
C934 C933 1.387 . S
C934 C937 1.387 . S
H935 C931 0.950 . S
H936 C933 0.950 . S
C937 C928 1.390 . S
C937 H930 0.950 . S
C937 C934 1.387 . S
C938 C939 1.387 . S
C938 H942 0.950 . S
C938 C947 1.390 . S
C939 C938 1.387 . S
C939 C941 1.387 . S
H940 C947 0.950 . S
C941 C939 1.387 . S
C941 C943 1.390 . S
C941 H945 0.950 . S
H942 C938 0.950 . S
C943 C941 1.390 . S
C943 C944 1.387 . S
C943 H946 0.950 . S
C944 C943 1.387 . S
C944 C947 1.387 . S
H945 C941 0.950 . S
H946 C943 0.950 . S
C947 C938 1.390 . S
C947 H940 0.950 . S
C947 C944 1.387 . S
C948 C949 1.387 . S
C948 H952 0.950 . S
C948 C957 1.390 . S
C949 C948 1.387 . S
C949 C951 1.387 . S
H950 C957 0.950 . S
C951 C949 1.387 . S
C951 C953 1.390 . S
C951 H955 0.950 . S
H952 C948 0.950 . S
C953 C951 1.390 . S
C953 C954 1.387 . S
C953 H956 0.950 . S
C954 C953 1.387 . S
C954 C957 1.387 . S
H955 C951 0.950 . S
H956 C953 0.950 . S
C957 C948 1.390 . S
C957 H950 0.950 . S
C957 C954 1.387 . S
C958 C959 1.387 . S
C958 H962 0.950 . S
C958 C967 1.390 . S
C959 C958 1.387 . S
C959 C961 1.387 . S
H960 C967 0.950 . S
C961 C959 1.387 . S
C961 C963 1.390 . S
C961 H965 0.950 . S
H962 C958 0.950 . S
C963 C961 1.390 . S
C963 C964 1.387 . S
C963 H966 0.950 . S
C964 C963 1.387 . S
C964 C967 1.387 . S
H965 C961 0.950 . S
H966 C963 0.950 . S
C967 C958 1.390 . S
C967 H960 0.950 . S
C967 C964 1.387 . S
C968 C969 1.387 . S
C968 H972 0.950 . S
C968 C977 1.390 . S
C969 C968 1.387 . S
C969 C971 1.387 . S
H970 C977 0.950 . S
C971 C969 1.387 . S
C971 C973 1.390 . S
C971 H975 0.950 . S
H972 C968 0.950 . S
C973 C971 1.390 . S
C973 C974 1.387 . S
C973 H976 0.950 . S
C974 C973 1.387 . S
C974 C977 1.387 . S
H975 C971 0.950 . S
H976 C973 0.950 . S
C977 C968 1.390 . S
C977 H970 0.950 . S
C977 C974 1.387 . S
C978 C979 1.387 . S
C978 H982 0.950 . S
C978 C987 1.390 . S
C979 C978 1.387 . S
C979 C981 1.387 . S
H980 C987 0.950 . S
C981 C979 1.387 . S
C981 C983 1.390 . S
C981 H985 0.950 . S
H982 C978 0.950 . S
C983 C981 1.390 . S
C983 C984 1.387 . S
C983 H986 0.950 . S
C984 C983 1.387 . S
C984 C987 1.387 . S
H985 C981 0.950 . S
H986 C983 0.950 . S
C987 C978 1.390 . S
C987 H980 0.950 . S
C987 C984 1.387 . S
C988 C989 1.387 . S
C988 H992 0.950 . S
C988 C997 1.390 . S
C989 C988 1.387 . S
C989 C991 1.387 . S
H990 C997 0.950 . S
C991 C989 1.387 . S
C991 C993 1.390 . S
C991 H995 0.950 . S
H992 C988 0.950 . S
C993 C991 1.390 . S
C993 C994 1.387 . S
C993 H996 0.950 . S
C994 C993 1.387 . S
C994 C997 1.387 . S
H995 C991 0.950 . S
H996 C993 0.950 . S
C997 C988 1.390 . S
C997 H990 0.950 . S
C997 C994 1.387 . S
C998 C999 1.387 . S
C998 H1002 0.950 . S
C998 C1007 1.390 . S
C999 C998 1.387 . S
C999 C1001 1.387 . S
H1000 C1007 0.950 . S
C1001 C999 1.387 . S
C1001 C1003 1.390 . S
C1001 H1005 0.950 . S
H1002 C998 0.950 . S
C1003 C1001 1.390 . S
C1003 C1004 1.387 . S
C1003 H1006 0.950 . S
C1004 C1003 1.387 . S
C1004 C1007 1.387 . S
H1005 C1001 0.950 . S
H1006 C1003 0.950 . S
C1007 C998 1.390 . S
C1007 H1000 0.950 . S
C1007 C1004 1.387 . S
C1008 C1009 1.387 . S
C1008 H1012 0.950 . S
C1008 C1017 1.390 . S
C1009 C1008 1.387 . S
C1009 C1011 1.387 . S
H1010 C1017 0.950 . S
C1011 C1009 1.387 . S
C1011 C1013 1.390 . S
C1011 H1015 0.950 . S
H1012 C1008 0.950 . S
C1013 C1011 1.390 . S
C1013 C1014 1.387 . S
C1013 H1016 0.950 . S
C1014 C1013 1.387 . S
C1014 C1017 1.387 . S
H1015 C1011 0.950 . S
H1016 C1013 0.950 . S
C1017 C1008 1.390 . S
C1017 H1010 0.950 . S
C1017 C1014 1.387 . S
C1018 C1019 1.387 . S
C1018 H1022 0.950 . S
C1018 C1027 1.390 . S
C1019 C1018 1.387 . S
C1019 C1021 1.387 . S
H1020 C1027 0.950 . S
C1021 C1019 1.387 . S
C1021 C1023 1.390 . S
C1021 H1025 0.950 . S
H1022 C1018 0.950 . S
C1023 C1021 1.390 . S
C1023 C1024 1.387 . S
C1023 H1026 0.950 1_565 S
C1024 C1023 1.387 . S
C1024 C1027 1.387 . S
H1025 C1021 0.950 . S
H1026 C1023 0.950 1_545 S
C1027 C1018 1.390 . S
C1027 H1020 0.950 . S
C1027 C1024 1.387 . S
C1028 C1029 1.387 . S
C1028 H1032 0.950 . S
C1028 C1037 1.390 . S
C1029 C1028 1.387 . S
C1029 C1031 1.387 . S
H1030 C1037 0.950 . S
C1031 C1029 1.387 . S
C1031 C1033 1.390 . S
C1031 H1035 0.950 . S
H1032 C1028 0.950 . S
C1033 C1031 1.390 . S
C1033 C1034 1.387 . S
C1033 H1036 0.950 . S
C1034 C1033 1.387 . S
C1034 C1037 1.387 . S
H1035 C1031 0.950 . S
H1036 C1033 0.950 . S
C1037 C1028 1.390 . S
C1037 H1030 0.950 . S
C1037 C1034 1.387 . S
C1038 C1039 1.387 . S
C1038 H1042 0.950 1_545 S
C1038 C1047 1.390 . S
C1039 C1038 1.387 . S
C1039 C1041 1.387 . S
H1040 C1047 0.950 . S
C1041 C1039 1.387 . S
C1041 C1043 1.390 . S
C1041 H1045 0.950 . S
H1042 C1038 0.950 1_565 S
C1043 C1041 1.390 . S
C1043 C1044 1.387 . S
C1043 H1046 0.950 . S
C1044 C1043 1.387 . S
C1044 C1047 1.387 . S
H1045 C1041 0.950 . S
H1046 C1043 0.950 . S
C1047 C1038 1.390 . S
C1047 H1040 0.950 . S
C1047 C1044 1.387 . S
C1048 C1049 1.387 . S
C1048 H1052 0.950 . S
C1048 C1057 1.390 . S
C1049 C1048 1.387 . S
C1049 C1051 1.387 . S
H1050 C1057 0.950 . S
C1051 C1049 1.387 . S
C1051 C1053 1.390 . S
C1051 H1055 0.950 . S
H1052 C1048 0.950 . S
C1053 C1051 1.390 . S
C1053 C1054 1.387 . S
C1053 H1056 0.950 . S
C1054 C1053 1.387 . S
C1054 C1057 1.387 . S
H1055 C1051 0.950 . S
H1056 C1053 0.950 . S
C1057 C1048 1.390 . S
C1057 H1050 0.950 . S
C1057 C1054 1.387 . S
C1058 C1059 1.387 . S
C1058 H1062 0.950 . S
C1058 C1067 1.390 . S
C1059 C1058 1.387 . S
C1059 C1061 1.387 . S
H1060 C1067 0.950 . S
C1061 C1059 1.387 . S
C1061 C1063 1.390 . S
C1061 H1065 0.950 1_545 S
H1062 C1058 0.950 . S
C1063 C1061 1.390 . S
C1063 C1064 1.387 . S
C1063 H1066 0.950 . S
C1064 C1063 1.387 . S
C1064 C1067 1.387 . S
H1065 C1061 0.950 1_565 S
H1066 C1063 0.950 . S
C1067 C1058 1.390 . S
C1067 H1060 0.950 . S
C1067 C1064 1.387 . S
C1068 C1069 1.387 . S
C1068 H1072 0.950 . S
C1068 C1077 1.390 . S
C1069 C1068 1.387 . S
C1069 C1071 1.387 . S
H1070 C1077 0.950 . S
C1071 C1069 1.387 . S
C1071 C1073 1.390 . S
C1071 H1075 0.950 . S
H1072 C1068 0.950 . S
C1073 C1071 1.390 . S
C1073 C1074 1.387 . S
C1073 H1076 0.950 . S
C1074 C1073 1.387 . S
C1074 C1077 1.387 . S
H1075 C1071 0.950 . S
H1076 C1073 0.950 . S
C1077 C1068 1.390 . S
C1077 H1070 0.950 . S
C1077 C1074 1.387 . S
C1078 C1079 1.387 . S
C1078 H1082 0.950 . S
C1078 C1087 1.390 . S
C1079 C1078 1.387 . S
C1079 C1081 1.387 . S
H1080 C1087 0.950 1_545 S
C1081 C1079 1.387 . S
C1081 C1083 1.390 . S
C1081 H1085 0.950 . S
H1082 C1078 0.950 . S
C1083 C1081 1.390 . S
C1083 C1084 1.387 . S
C1083 H1086 0.950 . S
C1084 C1083 1.387 . S
C1084 C1087 1.387 . S
H1085 C1081 0.950 . S
H1086 C1083 0.950 . S
C1087 C1078 1.390 . S
C1087 H1080 0.950 1_565 S
C1087 C1084 1.387 . S
C1088 C1089 1.387 . S
C1088 H1092 0.950 . S
C1088 C1097 1.390 . S
C1089 C1088 1.387 . S
C1089 C1091 1.387 1_556 S
H1090 C1097 0.950 . S
C1091 C1089 1.387 1_554 S
C1091 C1093 1.390 . S
C1091 H1095 0.950 . S
H1092 C1088 0.950 . S
C1093 C1091 1.390 . S
C1093 C1094 1.387 1_554 S
C1093 H1096 0.950 . S
C1094 C1093 1.387 1_556 S
C1094 C1097 1.387 . S
H1095 C1091 0.950 . S
H1096 C1093 0.950 . S
C1097 C1088 1.390 . S
C1097 H1090 0.950 . S
C1097 C1094 1.387 . S
C1098 C1099 1.387 . S
C1098 H1102 0.950 . S
C1098 C1107 1.390 . S
C1099 C1098 1.387 . S
C1099 C1101 1.387 . S
H1100 C1107 0.950 . S
C1101 C1099 1.387 . S
C1101 C1103 1.390 . S
C1101 H1105 0.950 . S
H1102 C1098 0.950 . S
C1103 C1101 1.390 . S
C1103 C1104 1.387 . S
C1103 H1106 0.950 . S
C1104 C1103 1.387 . S
C1104 C1107 1.387 . S
H1105 C1101 0.950 . S
H1106 C1103 0.950 . S
C1107 C1098 1.390 . S
C1107 H1100 0.950 . S
C1107 C1104 1.387 . S
C1108 C1109 1.387 . S
C1108 H1112 0.950 . S
C1108 C1117 1.390 1_455 S
C1109 C1108 1.387 . S
C1109 C1111 1.387 . S
H1110 C1117 0.950 . S
C1111 C1109 1.387 . S
C1111 C1113 1.390 1_455 S
C1111 H1115 0.950 . S
H1112 C1108 0.950 . S
C1113 C1111 1.390 1_655 S
C1113 C1114 1.387 . S
C1113 H1116 0.950 . S
C1114 C1113 1.387 . S
C1114 C1117 1.387 . S
H1115 C1111 0.950 . S
H1116 C1113 0.950 . S
C1117 C1108 1.390 1_655 S
C1117 H1110 0.950 . S
C1117 C1114 1.387 . S
C1118 C1119 1.387 . S
C1118 H1122 0.950 . S
C1118 C1127 1.390 1_455 S
C1119 C1118 1.387 . S
C1119 C1121 1.387 . S
H1120 C1127 0.950 . S
C1121 C1119 1.387 . S
C1121 C1123 1.390 1_455 S
C1121 H1125 0.950 . S
H1122 C1118 0.950 . S
C1123 C1121 1.390 1_655 S
C1123 C1124 1.387 . S
C1123 H1126 0.950 . S
C1124 C1123 1.387 . S
C1124 C1127 1.387 . S
H1125 C1121 0.950 . S
H1126 C1123 0.950 . S
C1127 C1118 1.390 1_655 S
C1127 H1120 0.950 . S
C1127 C1124 1.387 . S
C1128 C1129 1.387 . S
C1128 H1132 0.950 . S
C1128 C1137 1.390 . S
C1129 C1128 1.387 . S
C1129 C1131 1.387 . S
H1130 C1137 0.950 . S
C1131 C1129 1.387 . S
C1131 C1133 1.390 . S
C1131 H1135 0.950 1_554 S
H1132 C1128 0.950 . S
C1133 C1131 1.390 . S
C1133 C1134 1.387 . S
C1133 H1136 0.950 1_554 S
C1134 C1133 1.387 . S
C1134 C1137 1.387 . S
H1135 C1131 0.950 1_556 S
H1136 C1133 0.950 1_556 S
C1137 C1128 1.390 . S
C1137 H1130 0.950 . S
C1137 C1134 1.387 . S
C1138 C1139 1.387 . S
C1138 H1142 0.950 . S
C1138 C1147 1.390 . S
C1139 C1138 1.387 . S
C1139 C1141 1.387 . S
H1140 C1147 0.950 . S
C1141 C1139 1.387 . S
C1141 C1143 1.390 . S
C1141 H1145 0.950 . S
H1142 C1138 0.950 . S
C1143 C1141 1.390 . S
C1143 C1144 1.387 . S
C1143 H1146 0.950 . S
C1144 C1143 1.387 . S
C1144 C1147 1.387 . S
H1145 C1141 0.950 . S
H1146 C1143 0.950 . S
C1147 C1138 1.390 . S
C1147 H1140 0.950 . S
C1147 C1144 1.387 . S
C1148 C1149 1.387 . S
C1148 H1152 0.950 . S
C1148 C1157 1.390 1_455 S
C1149 C1148 1.387 . S
C1149 C1151 1.387 . S
H1150 C1157 0.950 . S
C1151 C1149 1.387 . S
C1151 C1153 1.390 1_455 S
C1151 H1155 0.950 . S
H1152 C1148 0.950 . S
C1153 C1151 1.390 1_655 S
C1153 C1154 1.387 . S
C1153 H1156 0.950 . S
C1154 C1153 1.387 . S
C1154 C1157 1.387 . S
H1155 C1151 0.950 . S
H1156 C1153 0.950 . S
C1157 C1148 1.390 1_655 S
C1157 H1150 0.950 . S
C1157 C1154 1.387 . S
C1158 C1159 1.387 . S
C1158 H1162 0.949 . S
C1158 C1167 1.394 1_455 S
C1159 C1158 1.387 . S
C1159 C1161 1.387 . S
H1160 C1167 0.949 . S
C1161 C1159 1.387 . S
C1161 C1163 1.394 1_455 S
C1161 H1165 0.949 . S
H1162 C1158 0.949 . S
C1163 C1161 1.394 1_655 S
C1163 C1164 1.387 . S
C1163 H1166 0.949 . S
C1164 C1163 1.387 . S
C1164 C1167 1.387 . S
H1165 C1161 0.949 . S
H1166 C1163 0.949 . S
C1167 C1158 1.394 1_655 S
C1167 H1160 0.949 . S
C1167 C1164 1.387 . S
C849 C250 2.583 . S
C854 C29 2.591 1_565 S
C859 C727 2.722 . S
C864 C91 2.698 . S
C869 C135 2.622 1_645 S
C874 C356 2.614 . S
C879 C833 2.723 . S
C884 C197 2.700 . S
C889 C515 2.698 . S
C894 C303 2.721 . S
C899 C621 2.698 . S
C904 C409 2.722 . S
C909 C453 2.622 1_455 S
C914 C674 2.614 . S
C919 C780 2.583 . S
C924 C559 2.591 . S
C929 C393 1.807 . S
C934 C22 1.780 . S
C939 C658 1.852 . S
C944 C92 1.812 . S
C949 C128 1.804 . S
C954 C287 1.833 . S
C959 C198 1.817 1_455 S
C964 C764 1.857 . S
C969 C181 2.204 . S
C974 C251 2.148 . S
C979 C304 2.210 . S
C984 C463 2.284 . S
C989 C357 2.161 . S
C994 C75 2.221 . S
C999 C410 2.211 . S
C1004 C569 2.284 . S
C1009 C446 1.804 . S
C1014 C817 1.833 . S
C1019 C234 1.858 . S
C1024 C516 1.816 1_655 S
C1029 C711 1.808 . S
C1034 C552 1.782 . S
C1039 C622 1.812 . S
C1044 C340 1.852 . S
C1049 C605 2.223 . S
C1054 C675 2.162 . S
C1059 C728 2.209 . S
C1064 C39 2.282 . S
C1069 C781 2.147 . S
C1074 C499 2.200 . S
C1079 C145 2.285 . S
C1084 C834 2.211 . S
C1089 C38 1.124 . S
C1094 C568 1.124 . S
C1099 C612 0.946 . S
C1104 C82 0.946 . S
C1109 C144 1.134 . S
C1114 C462 1.134 . S
C1119 C506 0.942 . S
C1124 C188 0.942 . S
C1129 C771 0.477 . S
C1134 C241 0.477 . S
C1139 C824 0.494 . S
C1144 C294 0.494 . S
C1149 C665 0.474 . S
C1154 C347 0.474 . S
C1159 C718 0.498 1_455 S
C1164 C400 0.498 1_655 S
