# Generated by pormake.
# Topology ukb, (4)-cn, num edge types: 1
# Building blocks:
#     Node 0, Type 0, BuildingBlock: UXUYUI_clean_sbu_0, # of connection points: 4
#     Node 1, Type 0, BuildingBlock: UXUYUI_clean_sbu_0, # of connection points: 4
#     Node 2, Type 0, BuildingBlock: UXUYUI_clean_sbu_0, # of connection points: 4
#     Node 3, Type 0, BuildingBlock: UXUYUI_clean_sbu_0, # of connection points: 4
#     Node 4, Type 0, BuildingBlock: UXUYUI_clean_sbu_0, # of connection points: 4
#     Node 5, Type 0, BuildingBlock: UXUYUI_clean_sbu_0, # of connection points: 4
#     Node 6, Type 0, BuildingBlock: UXUYUI_clean_sbu_0, # of connection points: 4
#     Node 7, Type 0, BuildingBlock: UXUYUI_clean_sbu_0, # of connection points: 4
#     Node 8, Type 0, BuildingBlock: UXUYUI_clean_sbu_0, # of connection points: 4
#     Node 9, Type 0, BuildingBlock: UXUYUI_clean_sbu_0, # of connection points: 4
#     Node 10, Type 0, BuildingBlock: UXUYUI_clean_sbu_0, # of connection points: 4
#     Node 11, Type 0, BuildingBlock: UXUYUI_clean_sbu_0, # of connection points: 4
#     Node 12, Type 0, BuildingBlock: UXUYUI_clean_sbu_0, # of connection points: 4
#     Node 13, Type 0, BuildingBlock: UXUYUI_clean_sbu_0, # of connection points: 4
#     Node 14, Type 0, BuildingBlock: UXUYUI_clean_sbu_0, # of connection points: 4
#     Node 15, Type 0, BuildingBlock: UXUYUI_clean_sbu_0, # of connection points: 4
#     Edge 16, Type (0, 0), BuildingBlock: CIFDUS_clean_linker_0, # of connection points: 2
#     Edge 17, Type (0, 0), BuildingBlock: CIFDUS_clean_linker_0, # of connection points: 2
#     Edge 18, Type (0, 0), BuildingBlock: CIFDUS_clean_linker_0, # of connection points: 2
#     Edge 19, Type (0, 0), BuildingBlock: CIFDUS_clean_linker_0, # of connection points: 2
#     Edge 20, Type (0, 0), BuildingBlock: CIFDUS_clean_linker_0, # of connection points: 2
#     Edge 21, Type (0, 0), BuildingBlock: CIFDUS_clean_linker_0, # of connection points: 2
#     Edge 22, Type (0, 0), BuildingBlock: CIFDUS_clean_linker_0, # of connection points: 2
#     Edge 23, Type (0, 0), BuildingBlock: CIFDUS_clean_linker_0, # of connection points: 2
#     Edge 24, Type (0, 0), BuildingBlock: CIFDUS_clean_linker_0, # of connection points: 2
#     Edge 25, Type (0, 0), BuildingBlock: CIFDUS_clean_linker_0, # of connection points: 2
#     Edge 26, Type (0, 0), BuildingBlock: CIFDUS_clean_linker_0, # of connection points: 2
#     Edge 27, Type (0, 0), BuildingBlock: CIFDUS_clean_linker_0, # of connection points: 2
#     Edge 28, Type (0, 0), BuildingBlock: CIFDUS_clean_linker_0, # of connection points: 2
#     Edge 29, Type (0, 0), BuildingBlock: CIFDUS_clean_linker_0, # of connection points: 2
#     Edge 30, Type (0, 0), BuildingBlock: CIFDUS_clean_linker_0, # of connection points: 2
#     Edge 31, Type (0, 0), BuildingBlock: CIFDUS_clean_linker_0, # of connection points: 2
#     Edge 32, Type (0, 0), BuildingBlock: CIFDUS_clean_linker_0, # of connection points: 2
#     Edge 33, Type (0, 0), BuildingBlock: CIFDUS_clean_linker_0, # of connection points: 2
#     Edge 34, Type (0, 0), BuildingBlock: CIFDUS_clean_linker_0, # of connection points: 2
#     Edge 35, Type (0, 0), BuildingBlock: CIFDUS_clean_linker_0, # of connection points: 2
#     Edge 36, Type (0, 0), BuildingBlock: CIFDUS_clean_linker_0, # of connection points: 2
#     Edge 37, Type (0, 0), BuildingBlock: CIFDUS_clean_linker_0, # of connection points: 2
#     Edge 38, Type (0, 0), BuildingBlock: CIFDUS_clean_linker_0, # of connection points: 2
#     Edge 39, Type (0, 0), BuildingBlock: CIFDUS_clean_linker_0, # of connection points: 2
#     Edge 40, Type (0, 0), BuildingBlock: CIFDUS_clean_linker_0, # of connection points: 2
#     Edge 41, Type (0, 0), BuildingBlock: CIFDUS_clean_linker_0, # of connection points: 2
#     Edge 42, Type (0, 0), BuildingBlock: CIFDUS_clean_linker_0, # of connection points: 2
#     Edge 43, Type (0, 0), BuildingBlock: CIFDUS_clean_linker_0, # of connection points: 2
#     Edge 44, Type (0, 0), BuildingBlock: CIFDUS_clean_linker_0, # of connection points: 2
#     Edge 45, Type (0, 0), BuildingBlock: CIFDUS_clean_linker_0, # of connection points: 2
#     Edge 46, Type (0, 0), BuildingBlock: CIFDUS_clean_linker_0, # of connection points: 2
#     Edge 47, Type (0, 0), BuildingBlock: CIFDUS_clean_linker_0, # of connection points: 2
# Relax obj value: 0.234
# Max RMSD: 0.198
# Mean RMSD: 0.198
data_MOF--net-ukb--node1-UXUYUI_clean_sbu_0--edge1-CIFDUS_clean_linker_0
_symmetry_space_group_name_H-M    P1
_symmetry_Int_Tables_number       1
_symmetry_cell_setting            triclinic
loop_
_symmetry_equiv_pos_as_xyz
'x, y, z'
_cell_length_a     55.948836
_cell_length_b     55.952338
_cell_length_c     53.672553
_cell_angle_alpha  90.010321
_cell_angle_beta   90.016369
_cell_angle_gamma 89.990048
loop_
_atom_site_label
_atom_site_type_symbol
_atom_site_fract_x
_atom_site_fract_y
_atom_site_fract_z
_atom_type_partial_charge
Li0 Li 0.51147 0.2188 0.15708 0.0
Li1 Li 0.51993 0.23792 0.19753 0.0
Li2 Li 0.52984 0.19549 0.19091 0.0
Li3 Li 0.48817 0.20977 0.1945 0.0
C4 C 0.55925 0.23096 0.15679 0.0
N5 N 0.59203 0.24617 0.12174 0.0
C6 C 0.56434 0.25529 0.15426 0.0
C7 C 0.57102 0.21434 0.14173 0.0
C8 C 0.58092 0.26263 0.13637 0.0
C9 C 0.58748 0.2224 0.12405 0.0
C10 C 0.46736 0.24666 0.17554 0.0
C11 C 0.43131 0.26112 0.195 0.0
N12 N 0.4189 0.25598 0.17387 0.0
C13 C 0.45429 0.24159 0.15398 0.0
C14 C 0.45584 0.25659 0.19619 0.0
C15 C 0.42979 0.24642 0.15352 0.0
C16 C 0.50033 0.2055 0.10765 0.0
N17 N 0.51015 0.22301 0.12189 0.0
C18 C 0.51769 0.24682 0.08577 0.0
C19 C 0.5183 0.24363 0.11156 0.0
C20 C 0.5081 0.22881 0.07047 0.0
C21 C 0.49914 0.20801 0.0818 0.0
H22 H 0.49315 0.18965 0.11636 0.0
H23 H 0.52522 0.25766 0.12334 0.0
C24 C 0.55507 0.26425 0.2216 0.0
N25 N 0.53237 0.26588 0.21279 0.0
C26 C 0.56579 0.28378 0.23316 0.0
C27 C 0.52972 0.30659 0.22595 0.0
C28 C 0.51959 0.28647 0.21465 0.0
C29 C 0.55311 0.30533 0.23544 0.0
H30 H 0.56487 0.2477 0.21951 0.0
H31 H 0.50162 0.28728 0.2073 0.0
C32 C 0.50428 0.16409 0.16246 0.0
N33 N 0.51004 0.1169 0.14857 0.0
C34 C 0.48955 0.14642 0.17261 0.0
C35 C 0.52185 0.15778 0.14517 0.0
C36 C 0.49277 0.12265 0.16536 0.0
C37 C 0.52452 0.13382 0.13842 0.0
C38 C 0.52109 0.21901 0.24229 0.0
C39 C 0.54253 0.21099 0.25274 0.0
C40 C 0.50785 0.2367 0.25447 0.0
C41 C 0.55051 0.22102 0.27508 0.0
C42 C 0.51647 0.24631 0.27676 0.0
N43 N 0.53745 0.23834 0.28651 0.0
C44 C 0.57587 0.17745 0.19914 0.0
C45 C 0.54521 0.14906 0.20645 0.0
C46 C 0.59325 0.16113 0.2068 0.0
N47 N 0.55239 0.1712 0.19914 0.0
C48 C 0.56206 0.13198 0.21372 0.0
C49 C 0.58636 0.1381 0.21421 0.0
H50 H 0.58105 0.19535 0.19381 0.0
H51 H 0.52641 0.1448 0.2072 0.0
C52 C 0.44218 0.18996 0.18913 0.0
N53 N 0.45748 0.20005 0.20575 0.0
C54 C 0.42117 0.17907 0.19738 0.0
C55 C 0.43143 0.19047 0.2395 0.0
C56 C 0.45229 0.20101 0.23045 0.0
C57 C 0.41597 0.17857 0.223 0.0
H58 H 0.44695 0.18926 0.16961 0.0
H59 H 0.46483 0.20899 0.24327 0.0
O60 O 0.54306 0.22342 0.17419 0.0
O61 O 0.49122 0.24152 0.17656 0.0
O62 O 0.50149 0.18744 0.16943 0.0
O63 O 0.51325 0.20978 0.22014 0.0
H64 H 0.55539 0.2684 0.16576 0.0
H65 H 0.56757 0.19543 0.14372 0.0
H66 H 0.58493 0.28142 0.13408 0.0
H67 H 0.59667 0.20974 0.1122 0.0
H68 H 0.42213 0.26867 0.2109 0.0
H69 H 0.46292 0.23382 0.13787 0.0
H70 H 0.46569 0.26049 0.21306 0.0
H71 H 0.41942 0.2425 0.13701 0.0
H72 H 0.5249 0.26312 0.07793 0.0
H73 H 0.49102 0.19391 0.07088 0.0
H74 H 0.58401 0.28218 0.23978 0.0
H75 H 0.51936 0.32289 0.22738 0.0
H76 H 0.47595 0.15097 0.18612 0.0
H77 H 0.53328 0.17126 0.13704 0.0
H78 H 0.48156 0.10877 0.17313 0.0
H79 H 0.53808 0.12868 0.12509 0.0
H80 H 0.55297 0.19727 0.24365 0.0
H81 H 0.49133 0.24327 0.24656 0.0
H82 H 0.56713 0.21506 0.28331 0.0
H83 H 0.50652 0.26017 0.28624 0.0
H84 H 0.61187 0.16645 0.20703 0.0
H85 H 0.55612 0.11448 0.2197 0.0
H86 H 0.40994 0.16988 0.18403 0.0
H87 H 0.42796 0.19077 0.25935 0.0
Li88 Li 0.30206 0.53215 0.69172 0.0
Li89 Li 0.28977 0.49077 0.696 0.0
Li90 Li 0.27832 0.51484 0.65768 0.0
Li91 Li 0.25958 0.52268 0.69869 0.0
C92 C 0.33496 0.50531 0.6674 0.0
N93 N 0.38418 0.50621 0.66346 0.0
C94 C 0.34918 0.50092 0.6883 0.0
C95 C 0.34574 0.50996 0.64442 0.0
C96 C 0.37403 0.50151 0.68596 0.0
C97 C 0.37067 0.51038 0.64283 0.0
C98 C 0.28978 0.50839 0.74456 0.0
C99 C 0.27299 0.49357 0.78297 0.0
N100 N 0.29535 0.49178 0.79272 0.0
C101 C 0.31259 0.50657 0.75504 0.0
C102 C 0.26979 0.50199 0.7587 0.0
C103 C 0.31504 0.49806 0.77937 0.0
C104 C 0.325 0.56269 0.72485 0.0
N105 N 0.32616 0.55485 0.70091 0.0
C106 C 0.36036 0.57949 0.69329 0.0
C107 C 0.34328 0.56302 0.68504 0.0
C108 C 0.35985 0.58743 0.71812 0.0
C109 C 0.34183 0.57886 0.73394 0.0
H110 H 0.31089 0.55643 0.73694 0.0
H111 H 0.34374 0.55683 0.66599 0.0
C112 C 0.31803 0.44918 0.69435 0.0
N113 N 0.30023 0.45999 0.70741 0.0
C114 C 0.3295 0.42901 0.70391 0.0
C115 C 0.3027 0.4301 0.73915 0.0
C116 C 0.29178 0.45027 0.7289 0.0
C117 C 0.3224 0.4197 0.72705 0.0
H118 H 0.32407 0.45682 0.67697 0.0
H119 H 0.27713 0.45857 0.73862 0.0
C120 C 0.2801 0.56549 0.66107 0.0
N121 N 0.29347 0.60496 0.63349 0.0
C122 C 0.26942 0.58765 0.66554 0.0
C123 C 0.29756 0.56339 0.64259 0.0
C124 C 0.27642 0.6074 0.65138 0.0
C125 C 0.30409 0.58355 0.62885 0.0
C126 C 0.23689 0.48187 0.68045 0.0
C127 C 0.22156 0.4808 0.65992 0.0
C128 C 0.22986 0.47183 0.70312 0.0
C129 C 0.19928 0.46978 0.66249 0.0
C130 C 0.20744 0.46099 0.70494 0.0
N131 N 0.19274 0.4602 0.68477 0.0
C132 C 0.28143 0.49701 0.60805 0.0
C133 C 0.25504 0.52962 0.61413 0.0
C134 C 0.2752 0.4958 0.58282 0.0
N135 N 0.27128 0.51373 0.62305 0.0
C136 C 0.24853 0.52926 0.58905 0.0
C137 C 0.25846 0.51206 0.57298 0.0
H138 H 0.2941 0.48442 0.61576 0.0
H139 H 0.24705 0.54256 0.62657 0.0
C140 C 0.2349 0.54815 0.73503 0.0
N141 N 0.23147 0.53465 0.71428 0.0
C142 C 0.21561 0.55936 0.74662 0.0
C143 C 0.18952 0.54281 0.71514 0.0
C144 C 0.20937 0.53191 0.70413 0.0
C145 C 0.19257 0.55698 0.73653 0.0
H146 H 0.25276 0.55055 0.74233 0.0
H147 H 0.20717 0.52194 0.68707 0.0
O148 O 0.3106 0.50483 0.66936 0.0
O149 O 0.28699 0.51704 0.72087 0.0
O150 O 0.27339 0.54599 0.67473 0.0
O151 O 0.25869 0.49266 0.67827 0.0
H152 H 0.34108 0.49703 0.70611 0.0
H153 H 0.33498 0.51322 0.62801 0.0
H154 H 0.38524 0.4982 0.70202 0.0
H155 H 0.37928 0.51402 0.6252 0.0
H156 H 0.25768 0.48842 0.79405 0.0
H157 H 0.32824 0.51186 0.7446 0.0
H158 H 0.252 0.50319 0.75094 0.0
H159 H 0.33259 0.49653 0.78769 0.0
H160 H 0.37397 0.58573 0.68051 0.0
H161 H 0.34051 0.58492 0.75306 0.0
H162 H 0.34461 0.42166 0.69391 0.0
H163 H 0.29625 0.42318 0.75674 0.0
H164 H 0.25586 0.58954 0.67979 0.0
H165 H 0.30602 0.54639 0.63892 0.0
H166 H 0.26829 0.62467 0.65461 0.0
H167 H 0.31761 0.58217 0.61452 0.0
H168 H 0.22678 0.48847 0.64223 0.0
H169 H 0.24148 0.47259 0.71917 0.0
H170 H 0.18719 0.46886 0.64679 0.0
H171 H 0.20171 0.45323 0.72241 0.0
H172 H 0.28308 0.48199 0.57133 0.0
H173 H 0.2359 0.54244 0.58236 0.0
H174 H 0.21877 0.57001 0.76314 0.0
H175 H 0.17216 0.54091 0.70644 0.0
Li176 Li 0.97241 0.2987 0.19233 0.0
Li177 Li 0.01402 0.28581 0.1946 0.0
Li178 Li 0.99008 0.27448 0.15716 0.0
Li179 Li 0.98286 0.25666 0.19774 0.0
C180 C 0.99791 0.32985 0.16098 0.0
N181 N 0.99504 0.37642 0.14409 0.0
C182 C 0.008 0.34843 0.17485 0.0
C183 C 0.98672 0.33492 0.1383 0.0
C184 C 0.00627 0.37186 0.16606 0.0
C185 C 0.98534 0.35859 0.13015 0.0
C186 C 0.99563 0.29417 0.24228 0.0
C187 C 0.00583 0.29214 0.28589 0.0
N188 N 0.01001 0.31609 0.2859 0.0
C189 C 0.99986 0.31878 0.24278 0.0
C190 C 0.99849 0.28073 0.26403 0.0
C191 C 0.00717 0.32953 0.26499 0.0
C192 C 0.9422 0.32401 0.22477 0.0
N193 N 0.94922 0.32249 0.20059 0.0
C194 C 0.92097 0.35263 0.18896 0.0
C195 C 0.93887 0.33624 0.18269 0.0
C196 C 0.91348 0.35467 0.21388 0.0
C197 C 0.92457 0.34021 0.2319 0.0
H198 H 0.94991 0.31228 0.23855 0.0
H199 H 0.944 0.33405 0.16344 0.0
C200 C 0.05719 0.31003 0.18841 0.0
N201 N 0.04493 0.2964 0.20499 0.0
C202 C 0.07792 0.32197 0.19573 0.0
C203 C 0.07391 0.30445 0.23665 0.0
C204 C 0.0534 0.2926 0.22841 0.0
C205 C 0.08603 0.32005 0.22046 0.0
H206 H 0.05028 0.31244 0.16976 0.0
H207 H 0.04372 0.28123 0.24113 0.0
C208 C 0.94053 0.25556 0.17558 0.0
N209 N 0.90385 0.22285 0.18012 0.0
C210 C 0.94 0.23533 0.16033 0.0
C211 C 0.92233 0.25932 0.19296 0.0
C212 C 0.92132 0.21895 0.16296 0.0
C213 C 0.90396 0.24253 0.19501 0.0
C214 C 0.02877 0.23899 0.18772 0.0
C215 C 0.04467 0.22623 0.17268 0.0
C216 C 0.02978 0.23636 0.21359 0.0
C217 C 0.0614 0.21107 0.18382 0.0
C218 C 0.04676 0.22104 0.22402 0.0
N219 N 0.0621 0.20882 0.20904 0.0
C220 C 0.00889 0.26101 0.11012 0.0
C221 C 0.96822 0.27292 0.1103 0.0
C222 C 0.0077 0.25589 0.08465 0.0
N223 N 0.98927 0.26923 0.12233 0.0
C224 C 0.96624 0.2681 0.08488 0.0
C225 C 0.98608 0.25925 0.07172 0.0
H226 H 0.02534 0.25809 0.12027 0.0
H227 H 0.95291 0.27945 0.12055 0.0
C228 C 0.95759 0.23022 0.23353 0.0
N229 N 0.97146 0.22816 0.21287 0.0
C230 C 0.94557 0.21032 0.24293 0.0
C231 C 0.9632 0.18638 0.21022 0.0
C232 C 0.97484 0.20677 0.20142 0.0
C233 C 0.94789 0.18811 0.23092 0.0
H234 H 0.9549 0.24759 0.24192 0.0
H235 H 0.98575 0.20577 0.18482 0.0
O236 O 0.99957 0.30674 0.16915 0.0
O237 O 0.98869 0.28322 0.22066 0.0
O238 O 0.9591 0.27134 0.1739 0.0
O239 O 0.01234 0.25391 0.17702 0.0
H240 H 0.0173 0.34483 0.1921 0.0
H241 H 0.979 0.32075 0.12722 0.0
H242 H 0.01395 0.38641 0.17665 0.0
H243 H 0.97657 0.36278 0.11272 0.0
H244 H 0.00823 0.28195 0.30283 0.0
H245 H 0.99734 0.32945 0.22623 0.0
H246 H 0.99522 0.26167 0.26398 0.0
H247 H 0.01055 0.34855 0.26562 0.0
H248 H 0.91258 0.36301 0.17435 0.0
H249 H 0.91956 0.34123 0.25135 0.0
H250 H 0.08703 0.33323 0.18235 0.0
H251 H 0.0794 0.30238 0.25587 0.0
H252 H 0.95406 0.23213 0.14688 0.0
H253 H 0.92258 0.27487 0.20495 0.0
H254 H 0.92076 0.20309 0.15145 0.0
H255 H 0.88983 0.24509 0.20851 0.0
H256 H 0.0441 0.22804 0.15261 0.0
H257 H 0.01758 0.24598 0.22552 0.0
H258 H 0.07384 0.2011 0.17241 0.0
H259 H 0.04774 0.21887 0.24402 0.0
H260 H 0.02336 0.24884 0.07535 0.0
H261 H 0.94934 0.27131 0.07563 0.0
H262 H 0.93369 0.21259 0.25867 0.0
H263 H 0.96569 0.16957 0.20056 0.0
Li264 Li 0.19159 0.96447 0.69079 0.0
Li265 Li 0.20288 0.00709 0.69316 0.0
Li266 Li 0.21531 0.98518 0.65558 0.0
Li267 Li 0.23323 0.97732 0.69606 0.0
C268 C 0.16157 0.0043 0.66854 0.0
N269 N 0.12162 0.03316 0.6712 0.0
C270 C 0.14635 0.00291 0.68913 0.0
C271 C 0.15645 0.02025 0.64924 0.0
C272 C 0.12626 0.0177 0.69015 0.0
C273 C 0.13615 0.0347 0.65094 0.0
C274 C 0.20614 0.98565 0.74346 0.0
C275 C 0.22544 0.00072 0.78044 0.0
N276 N 0.20646 0.99336 0.79429 0.0
C277 C 0.18689 0.97811 0.75807 0.0
C278 C 0.22563 0.99695 0.75471 0.0
C279 C 0.18736 0.98223 0.78373 0.0
C280 C 0.17688 0.92501 0.71756 0.0
N281 N 0.16959 0.94029 0.69944 0.0
C282 C 0.13262 0.91931 0.69509 0.0
C283 C 0.14794 0.93792 0.68818 0.0
C284 C 0.1399 0.90298 0.71348 0.0
C285 C 0.16229 0.9061 0.72486 0.0
H286 H 0.19414 0.92751 0.72625 0.0
H287 H 0.14269 0.95033 0.67373 0.0
C288 C 0.18999 0.05539 0.68662 0.0
N289 N 0.19063 0.0374 0.70365 0.0
C290 C 0.17813 0.07676 0.69208 0.0
C291 C 0.1691 0.06119 0.733 0.0
C292 C 0.1807 0.04003 0.7266 0.0
C293 C 0.16729 0.07968 0.71546 0.0
H294 H 0.19784 0.05273 0.6684 0.0
H295 H 0.1808 0.02544 0.73965 0.0
C296 C 0.2388 0.93804 0.66912 0.0
N297 N 0.2775 0.90755 0.66568 0.0
C298 C 0.2581 0.94382 0.65373 0.0
C299 C 0.23907 0.91667 0.6826 0.0
C300 C 0.27751 0.92817 0.65225 0.0
C301 C 0.25885 0.90153 0.68067 0.0
C302 C 0.25367 0.02101 0.68251 0.0
C303 C 0.27382 0.02143 0.66713 0.0
C304 C 0.25322 0.03497 0.70409 0.0
C305 C 0.29343 0.03546 0.67391 0.0
C306 C 0.27318 0.04878 0.71021 0.0
N307 N 0.29271 0.04872 0.69514 0.0
C308 C 0.23366 0.00295 0.61003 0.0
C309 C 0.21138 0.96701 0.60729 0.0
C310 C 0.23913 0.00182 0.58466 0.0
N311 N 0.22028 0.98552 0.62077 0.0
C312 C 0.21624 0.96526 0.58186 0.0
C313 C 0.23061 0.98262 0.57024 0.0
H314 H 0.2405 0.01745 0.62128 0.0
H315 H 0.20083 0.95339 0.61644 0.0
C316 C 0.25588 0.94978 0.73143 0.0
N317 N 0.26098 0.96526 0.71265 0.0
C318 C 0.27395 0.93641 0.74252 0.0
C319 C 0.30251 0.9554 0.71518 0.0
C320 C 0.28379 0.96849 0.70456 0.0
C321 C 0.29754 0.93868 0.73402 0.0
H322 H 0.23754 0.94688 0.73694 0.0
H323 H 0.28735 0.98007 0.68896 0.0
O324 O 0.18172 0.99052 0.66763 0.0
O325 O 0.20592 0.98162 0.71832 0.0
O326 O 0.2201 0.95359 0.67154 0.0
O327 O 0.23424 0.00756 0.67596 0.0
H328 H 0.15025 0.99082 0.70435 0.0
H329 H 0.16816 0.02157 0.63325 0.0
H330 H 0.11441 0.01696 0.70606 0.0
H331 H 0.13199 0.04722 0.63621 0.0
H332 H 0.24042 0.00941 0.7894 0.0
H333 H 0.17167 0.96933 0.74962 0.0
H334 H 0.24088 0.00245 0.74379 0.0
H335 H 0.17255 0.97658 0.79526 0.0
H336 H 0.11555 0.91738 0.68579 0.0
H337 H 0.16841 0.89407 0.73933 0.0
H338 H 0.17704 0.09063 0.67805 0.0
H339 H 0.16057 0.06259 0.75106 0.0
H340 H 0.25829 0.96041 0.64337 0.0
H341 H 0.22432 0.91198 0.69466 0.0
H342 H 0.29265 0.93249 0.64057 0.0
H343 H 0.25941 0.88504 0.69117 0.0
H344 H 0.27445 0.01077 0.65032 0.0
H345 H 0.23761 0.03528 0.71593 0.0
H346 H 0.30923 0.0358 0.66229 0.0
H347 H 0.2731 0.0596 0.72691 0.0
H348 H 0.25048 0.01547 0.57663 0.0
H349 H 0.20891 0.95039 0.57145 0.0
H350 H 0.26936 0.92383 0.7571 0.0
H351 H 0.32042 0.95738 0.70782 0.0
Li352 Li 0.48914 0.28971 0.80308 0.0
Li353 Li 0.52928 0.30281 0.80662 0.0
Li354 Li 0.51846 0.25859 0.79879 0.0
Li355 Li 0.50931 0.27865 0.8401 0.0
C356 C 0.50173 0.2899 0.75596 0.0
N357 N 0.47486 0.29622 0.71331 0.0
C358 C 0.49771 0.31288 0.74667 0.0
C359 C 0.49229 0.27012 0.74349 0.0
C360 C 0.484 0.3157 0.72511 0.0
C361 C 0.47872 0.27369 0.72195 0.0
C362 C 0.51031 0.32765 0.84668 0.0
C363 C 0.53669 0.33685 0.88101 0.0
N364 N 0.52607 0.35857 0.88346 0.0
C365 C 0.49962 0.35008 0.84966 0.0
C366 C 0.52903 0.32102 0.86254 0.0
C367 C 0.50787 0.36546 0.86828 0.0
C368 C 0.44357 0.28875 0.77593 0.0
N369 N 0.45938 0.30153 0.7899 0.0
C370 C 0.43612 0.33696 0.78466 0.0
C371 C 0.45604 0.32521 0.79416 0.0
C372 C 0.41936 0.3243 0.77038 0.0
C373 C 0.42328 0.29986 0.76595 0.0
H374 H 0.44691 0.27013 0.772 0.0
H375 H 0.46927 0.33518 0.80437 0.0
C376 C 0.56009 0.32406 0.7727 0.0
N377 N 0.55249 0.32618 0.79667 0.0
C378 C 0.57658 0.34021 0.76287 0.0
C379 C 0.57762 0.36033 0.80267 0.0
C380 C 0.56086 0.34396 0.81164 0.0
C381 C 0.58559 0.35859 0.77795 0.0
H382 H 0.55333 0.30975 0.76115 0.0
H383 H 0.55473 0.3456 0.83054 0.0
C384 C 0.46592 0.25049 0.8185 0.0
N385 N 0.41863 0.23646 0.81695 0.0
C386 C 0.44905 0.26179 0.83364 0.0
C387 C 0.45882 0.23194 0.8027 0.0
C388 C 0.42519 0.25449 0.83252 0.0
C389 C 0.4348 0.22512 0.80217 0.0
C390 C 0.56196 0.26588 0.83342 0.0
C391 C 0.56622 0.24148 0.83681 0.0
C392 C 0.57963 0.28241 0.83996 0.0
C393 C 0.58798 0.23403 0.84695 0.0
C394 C 0.60114 0.27425 0.85006 0.0
N395 N 0.60484 0.25043 0.85333 0.0
C396 C 0.54597 0.2322 0.76495 0.0
C397 C 0.52477 0.20864 0.79428 0.0
C398 C 0.55759 0.21196 0.75573 0.0
N399 N 0.53023 0.23019 0.78411 0.0
C400 C 0.53613 0.18795 0.78579 0.0
C401 C 0.55311 0.18955 0.76657 0.0
H402 H 0.55012 0.24966 0.75747 0.0
H403 H 0.51237 0.20767 0.80971 0.0
C404 C 0.48989 0.28423 0.88831 0.0
N405 N 0.50685 0.27235 0.87505 0.0
C406 C 0.48808 0.28099 0.91404 0.0
C407 C 0.52102 0.25312 0.91195 0.0
C408 C 0.52208 0.25679 0.88626 0.0
C409 C 0.50393 0.2654 0.92626 0.0
H410 H 0.47797 0.29649 0.87893 0.0
H411 H 0.53524 0.2474 0.87535 0.0
O412 O 0.51466 0.28677 0.77731 0.0
O413 O 0.50178 0.31213 0.82897 0.0
O414 O 0.48936 0.25727 0.8194 0.0
O415 O 0.54085 0.27355 0.82326 0.0
H416 H 0.50488 0.32836 0.75619 0.0
H417 H 0.49517 0.25222 0.75055 0.0
H418 H 0.48057 0.33339 0.71779 0.0
H419 H 0.47117 0.25856 0.71218 0.0
H420 H 0.55116 0.33188 0.89335 0.0
H421 H 0.48499 0.35561 0.83784 0.0
H422 H 0.53772 0.30395 0.8606 0.0
H423 H 0.49973 0.38284 0.87072 0.0
H424 H 0.43424 0.35597 0.78791 0.0
H425 H 0.41087 0.28948 0.75486 0.0
H426 H 0.58252 0.3381 0.74379 0.0
H427 H 0.58408 0.37436 0.81484 0.0
H428 H 0.45428 0.2762 0.84591 0.0
H429 H 0.4717 0.22303 0.79086 0.0
H430 H 0.41189 0.26317 0.84402 0.0
H431 H 0.42901 0.21086 0.78998 0.0
H432 H 0.55274 0.22844 0.83203 0.0
H433 H 0.57676 0.30134 0.83732 0.0
H434 H 0.59143 0.2152 0.8498 0.0
H435 H 0.61492 0.28686 0.85528 0.0
H436 H 0.57076 0.214 0.7411 0.0
H437 H 0.5321 0.17098 0.79453 0.0
H438 H 0.47438 0.29057 0.9242 0.0
H439 H 0.5338 0.24115 0.92054 0.0
Li440 Li 0.19071 0.53369 0.31203 0.0
Li441 Li 0.2052 0.49332 0.30255 0.0
Li442 Li 0.21766 0.51367 0.34086 0.0
Li443 Li 0.23259 0.52625 0.29982 0.0
C444 C 0.16196 0.50555 0.33844 0.0
N445 N 0.11461 0.5105 0.35213 0.0
C446 C 0.14427 0.4922 0.32641 0.0
C447 C 0.15558 0.52131 0.35752 0.0
C448 C 0.12043 0.49498 0.33359 0.0
C449 C 0.13155 0.5236 0.36413 0.0
C450 C 0.20844 0.53069 0.25751 0.0
C451 C 0.23173 0.5307 0.21967 0.0
N452 N 0.22078 0.55128 0.21251 0.0
C453 C 0.19736 0.55181 0.24972 0.0
C454 C 0.22569 0.51998 0.24231 0.0
C455 C 0.20386 0.56194 0.22691 0.0
C456 C 0.16857 0.57895 0.31332 0.0
N457 N 0.16487 0.55551 0.30788 0.0
C458 C 0.12623 0.56436 0.29118 0.0
C459 C 0.14423 0.54798 0.29702 0.0
C460 C 0.12988 0.58874 0.29592 0.0
C461 C 0.15124 0.59598 0.30737 0.0
H462 H 0.18538 0.58454 0.32137 0.0
H463 H 0.14213 0.52942 0.29195 0.0
C464 C 0.1858 0.4462 0.30253 0.0
N465 N 0.19507 0.46388 0.28808 0.0
C466 C 0.17425 0.42669 0.2915 0.0
C467 C 0.18344 0.4433 0.25106 0.0
C468 C 0.19464 0.46246 0.26283 0.0
C469 C 0.17226 0.42556 0.26541 0.0
H470 H 0.18615 0.44794 0.3226 0.0
H471 H 0.20195 0.47677 0.25176 0.0
C472 C 0.22961 0.56024 0.34539 0.0
N473 N 0.24944 0.58677 0.38357 0.0
C474 C 0.25396 0.56581 0.34508 0.0
C475 C 0.21529 0.56838 0.36496 0.0
C476 C 0.26366 0.5792 0.36459 0.0
C477 C 0.22567 0.58169 0.38414 0.0
C478 C 0.24404 0.47207 0.31517 0.0
C479 C 0.24017 0.45676 0.33533 0.0
C480 C 0.25301 0.46293 0.29281 0.0
C481 C 0.24527 0.43244 0.33274 0.0
C482 C 0.25786 0.43851 0.29096 0.0
N483 N 0.25392 0.42389 0.3108 0.0
C484 C 0.21043 0.50199 0.392 0.0
C485 C 0.24929 0.51548 0.38167 0.0
C486 C 0.21684 0.49996 0.41708 0.0
N487 N 0.22652 0.50998 0.37498 0.0
C488 C 0.25637 0.5141 0.40657 0.0
C489 C 0.24003 0.50636 0.42478 0.0
H490 H 0.19262 0.49711 0.38611 0.0
H491 H 0.26192 0.52122 0.36766 0.0
C492 C 0.25569 0.56257 0.27332 0.0
N493 N 0.25892 0.54032 0.28291 0.0
C494 C 0.2741 0.5738 0.26032 0.0
C495 C 0.29935 0.5396 0.26854 0.0
C496 C 0.28022 0.52876 0.28093 0.0
C497 C 0.29624 0.56229 0.25789 0.0
H498 H 0.23873 0.57154 0.27571 0.0
H499 H 0.28236 0.51121 0.28906 0.0
O500 O 0.18538 0.50324 0.33155 0.0
O501 O 0.20252 0.52064 0.27993 0.0
O502 O 0.21983 0.54694 0.32659 0.0
O503 O 0.23855 0.49578 0.31712 0.0
H504 H 0.14883 0.48006 0.31147 0.0
H505 H 0.16904 0.53173 0.36704 0.0
H506 H 0.10654 0.48485 0.32436 0.0
H507 H 0.12636 0.5358 0.3788 0.0
H508 H 0.2452 0.52271 0.20785 0.0
H509 H 0.18398 0.56038 0.26116 0.0
H510 H 0.2347 0.50382 0.24817 0.0
H511 H 0.19549 0.57832 0.2207 0.0
H512 H 0.11016 0.5582 0.28193 0.0
H513 H 0.15469 0.61468 0.31118 0.0
H514 H 0.16571 0.4135 0.30327 0.0
H515 H 0.18263 0.44293 0.2309 0.0
H516 H 0.26532 0.55966 0.33009 0.0
H517 H 0.19638 0.56441 0.36536 0.0
H518 H 0.2825 0.58352 0.36468 0.0
H519 H 0.21482 0.588 0.39947 0.0
H520 H 0.23309 0.46355 0.35271 0.0
H521 H 0.25596 0.47455 0.27699 0.0
H522 H 0.24228 0.42035 0.34816 0.0
H523 H 0.2647 0.43115 0.27374 0.0
H524 H 0.20377 0.49331 0.43023 0.0
H525 H 0.27435 0.51946 0.41148 0.0
H526 H 0.27123 0.59148 0.25266 0.0
H527 H 0.31628 0.53031 0.26708 0.0
Li528 Li 0.97937 0.23862 0.79713 0.0
Li529 Li 0.98743 0.22212 0.83881 0.0
Li530 Li 0.00925 0.20943 0.80291 0.0
Li531 Li 0.96832 0.19778 0.80518 0.0
C532 C 0.03062 0.24965 0.81088 0.0
N533 N 0.07604 0.26313 0.79642 0.0
C534 C 0.04993 0.24654 0.82708 0.0
C535 C 0.03438 0.2597 0.78737 0.0
C536 C 0.07277 0.25343 0.8194 0.0
C537 C 0.05748 0.2664 0.7804 0.0
C538 C 0.93945 0.24459 0.82209 0.0
C539 C 0.90154 0.26097 0.8092 0.0
N540 N 0.90744 0.28215 0.82001 0.0
C541 C 0.94508 0.26648 0.83321 0.0
C542 C 0.91746 0.24175 0.8101 0.0
C543 C 0.92867 0.28526 0.83192 0.0
C544 C 0.95324 0.26167 0.76015 0.0
N545 N 0.96876 0.26582 0.77912 0.0
C546 C 0.96482 0.30801 0.7738 0.0
C547 C 0.97497 0.28838 0.78593 0.0
C548 C 0.94825 0.30429 0.75448 0.0
C549 C 0.94274 0.28072 0.74749 0.0
H550 H 0.94847 0.24349 0.7554 0.0
H551 H 0.98727 0.29109 0.80122 0.0
C552 C 0.01027 0.22328 0.88534 0.0
N553 N 0.9892 0.22796 0.87373 0.0
C554 C 0.01286 0.22765 0.91081 0.0
C555 C 0.97174 0.24085 0.91208 0.0
C556 C 0.96996 0.23624 0.88657 0.0
C557 C 0.99348 0.23675 0.92452 0.0
H558 H 0.02505 0.21605 0.87478 0.0
H559 H 0.95323 0.23926 0.87704 0.0
C560 C 0.98907 0.19286 0.7591 0.0
N561 N 0.99654 0.1567 0.7249 0.0
C562 C 0.99568 0.17002 0.76717 0.0
C563 C 0.98622 0.19727 0.73365 0.0
C564 C 0.99939 0.152 0.74959 0.0
C565 C 0.99009 0.17876 0.71665 0.0
C566 C 0.98677 0.17307 0.84633 0.0
C567 C 3e-05 0.15266 0.85221 0.0
C568 C 0.96523 0.17748 0.85875 0.0
C569 C 0.99153 0.13698 0.87041 0.0
C570 C 0.95736 0.16138 0.87687 0.0
N571 N 0.97056 0.14163 0.88227 0.0
C572 C 0.0521 0.18415 0.80829 0.0
C573 C 0.04792 0.203 0.76898 0.0
C574 C 0.0731 0.17297 0.80054 0.0
N575 N 0.03977 0.19839 0.79235 0.0
C576 C 0.06893 0.19228 0.76047 0.0
C577 C 0.08153 0.17656 0.77614 0.0
H578 H 0.04515 0.18083 0.82676 0.0
H579 H 0.03771 0.21442 0.75669 0.0
C580 C 0.93023 0.18178 0.77711 0.0
N581 N 0.94525 0.17433 0.79543 0.0
C582 C 0.9135 0.16615 0.76686 0.0
C583 C 0.92803 0.13519 0.79435 0.0
C584 C 0.94461 0.15145 0.80401 0.0
C585 C 0.91226 0.14247 0.77543 0.0
H586 H 0.93159 0.19987 0.77014 0.0
H587 H 0.95724 0.14552 0.81788 0.0
O588 O 0.0082 0.24252 0.8178 0.0
O589 O 0.95561 0.22623 0.82251 0.0
O590 O 0.98535 0.21093 0.77584 0.0
O591 O 0.99511 0.18858 0.82863 0.0
H592 H 0.04737 0.23874 0.8453 0.0
H593 H 0.01968 0.26198 0.77448 0.0
H594 H 0.0879 0.25103 0.8317 0.0
H595 H 0.06068 0.27408 0.76221 0.0
H596 H 0.8845 0.25905 0.79989 0.0
H597 H 0.96215 0.26906 0.84232 0.0
H598 H 0.91273 0.22492 0.80155 0.0
H599 H 0.93289 0.30236 0.84024 0.0
H600 H 0.96967 0.32589 0.77964 0.0
H601 H 0.92979 0.27703 0.73299 0.0
H602 H 0.02978 0.22374 0.91973 0.0
H603 H 0.95636 0.24793 0.92187 0.0
H604 H 0.99798 0.1662 0.78675 0.0
H605 H 0.98109 0.21485 0.72712 0.0
H606 H 0.00453 0.13427 0.75557 0.0
H607 H 0.98796 0.18193 0.69689 0.0
H608 H 0.0167 0.14894 0.84275 0.0
H609 H 0.95461 0.19306 0.85449 0.0
H610 H 0.0016 0.12111 0.87512 0.0
H611 H 0.94075 0.16458 0.88661 0.0
H612 H 0.08197 0.16078 0.81319 0.0
H613 H 0.07493 0.19583 0.74165 0.0
H614 H 0.9016 0.17258 0.75242 0.0
H615 H 0.92794 0.11698 0.80118 0.0
Li616 Li 0.26249 0.97729 0.2991 0.0
Li617 Li 0.28026 0.98326 0.34023 0.0
Li618 Li 0.29475 0.00559 0.30266 0.0
Li619 Li 0.30482 0.96364 0.30745 0.0
C620 C 0.24037 0.01586 0.31801 0.0
N621 N 0.19399 0.03263 0.31513 0.0
C622 C 0.22463 0.01244 0.33791 0.0
C623 C 0.23263 0.02814 0.29682 0.0
C624 C 0.20122 0.02097 0.33605 0.0
C625 C 0.20909 0.03638 0.29567 0.0
C626 C 0.2711 0.93215 0.33661 0.0
C627 C 0.28693 0.90022 0.36198 0.0
N628 N 0.26458 0.89095 0.3643 0.0
C629 C 0.24835 0.92204 0.33893 0.0
C630 C 0.2906 0.92093 0.34796 0.0
C631 C 0.24539 0.90133 0.35313 0.0
C632 C 0.23234 0.96454 0.25841 0.0
N633 N 0.23325 0.9686 0.28336 0.0
C634 C 0.19304 0.95501 0.2882 0.0
C635 C 0.21403 0.96443 0.29819 0.0
C636 C 0.19173 0.94985 0.26261 0.0
C637 C 0.21159 0.95528 0.24755 0.0
H638 H 0.24797 0.96771 0.24706 0.0
H639 H 0.21535 0.96741 0.31803 0.0
C640 C 0.28416 0.00328 0.38817 0.0
N641 N 0.27329 0.98566 0.37491 0.0
C642 C 0.27921 0.00616 0.41351 0.0
C643 C 0.25187 0.9728 0.41099 0.0
C644 C 0.25724 0.97067 0.38571 0.0
C645 C 0.26291 0.99073 0.42523 0.0
H646 H 0.29666 0.01512 0.37902 0.0
H647 H 0.24823 0.95734 0.37466 0.0
C648 C 0.29838 0.99052 0.25605 0.0
N649 N 0.31344 0.01348 0.21327 0.0
C650 C 0.32096 0.98569 0.24613 0.0
C651 C 0.28332 0.00675 0.24399 0.0
C652 C 0.32829 0.99756 0.22454 0.0
C653 C 0.29129 0.01825 0.22245 0.0
C654 C 0.33281 0.98574 0.34515 0.0
C655 C 0.35469 0.99727 0.3414 0.0
C656 C 0.33035 0.9699 0.36512 0.0
C657 C 0.37388 0.99223 0.35721 0.0
C658 C 0.34993 0.96535 0.38055 0.0
N659 N 0.37114 0.97648 0.37628 0.0
C660 C 0.29839 0.05596 0.29048 0.0
C661 C 0.33267 0.03151 0.2853 0.0
C662 C 0.31154 0.07629 0.28378 0.0
N663 N 0.30928 0.03422 0.29136 0.0
C664 C 0.34645 0.05122 0.27884 0.0
C665 C 0.33601 0.074 0.27843 0.0
H666 H 0.27976 0.0576 0.29553 0.0
H667 H 0.34073 0.01397 0.28599 0.0
C668 C 0.32264 0.91771 0.29469 0.0
N669 N 0.32882 0.94076 0.29944 0.0
C670 C 0.3399 0.90129 0.28692 0.0
C671 C 0.36946 0.93276 0.28849 0.0
C672 C 0.35169 0.94848 0.29653 0.0
C673 C 0.36361 0.90885 0.28346 0.0
H674 H 0.30419 0.91219 0.29642 0.0
H675 H 0.35598 0.96707 0.29961 0.0
O676 O 0.26331 0.00749 0.31941 0.0
O677 O 0.27429 0.95242 0.32262 0.0
O678 O 0.29106 0.97944 0.27746 0.0
O679 O 0.31377 0.99057 0.32984 0.0
H680 H 0.23033 0.00314 0.35452 0.0
H681 H 0.24467 0.0313 0.28143 0.0
H682 H 0.1888 0.01829 0.35124 0.0
H683 H 0.20283 0.04579 0.27932 0.0
H684 H 0.30189 0.89144 0.37088 0.0
H685 H 0.23307 0.93012 0.33002 0.0
H686 H 0.30848 0.92782 0.34565 0.0
H687 H 0.22784 0.89348 0.35523 0.0
H688 H 0.17847 0.95075 0.3007 0.0
H689 H 0.21134 0.95192 0.22769 0.0
H690 H 0.28818 0.02015 0.42386 0.0
H691 H 0.23884 0.96084 0.4192 0.0
H692 H 0.33278 0.97306 0.25508 0.0
H693 H 0.26568 0.01044 0.25121 0.0
H694 H 0.34579 0.99412 0.21677 0.0
H695 H 0.27987 0.03096 0.21302 0.0
H696 H 0.35694 0.00997 0.32644 0.0
H697 H 0.31344 0.96143 0.36896 0.0
H698 H 0.39094 0.00091 0.35436 0.0
H699 H 0.34823 0.95306 0.39601 0.0
H700 H 0.30296 0.09365 0.28365 0.0
H701 H 0.36519 0.04873 0.27447 0.0
H702 H 0.3346 0.88309 0.2828 0.0
H703 H 0.38753 0.93928 0.28599 0.0
Li704 Li 0.48271 0.78262 0.84026 0.0
Li705 Li 0.50601 0.79238 0.80328 0.0
Li706 Li 0.46484 0.80666 0.80814 0.0
Li707 Li 0.47336 0.76453 0.79973 0.0
C708 C 0.49079 0.83866 0.83035 0.0
N709 N 0.48468 0.88768 0.83143 0.0
C710 C 0.50551 0.85345 0.81604 0.0
C711 C 0.47296 0.84883 0.84523 0.0
C712 C 0.50215 0.87819 0.81686 0.0
C713 C 0.47014 0.87364 0.8455 0.0
C714 C 0.52578 0.75331 0.8204 0.0
C715 C 0.56047 0.73704 0.79985 0.0
N716 N 0.5734 0.74032 0.82105 0.0
C717 C 0.53936 0.75643 0.84202 0.0
C718 C 0.53634 0.74344 0.79918 0.0
C719 C 0.56343 0.74977 0.84196 0.0
C720 C 0.48479 0.75406 0.8838 0.0
N721 N 0.48401 0.77693 0.87527 0.0
C722 C 0.48289 0.79205 0.91688 0.0
C723 C 0.48339 0.79581 0.89119 0.0
C724 C 0.48334 0.76863 0.92627 0.0
C725 C 0.48455 0.74947 0.90939 0.0
H726 H 0.48529 0.73939 0.87068 0.0
H727 H 0.48309 0.81379 0.88396 0.0
C728 C 0.54041 0.80522 0.76697 0.0
N729 N 0.53681 0.80173 0.79174 0.0
C730 C 0.56151 0.8158 0.75854 0.0
C731 C 0.57514 0.81825 0.8012 0.0
C732 C 0.55376 0.80766 0.80881 0.0
C733 C 0.57896 0.82305 0.7758 0.0
H734 H 0.52642 0.80092 0.75385 0.0
H735 H 0.55018 0.80521 0.82844 0.0
C736 C 0.43847 0.76865 0.84354 0.0
N737 N 0.41539 0.74844 0.88388 0.0
C738 C 0.43574 0.74386 0.84504 0.0
C739 C 0.42939 0.78317 0.86251 0.0
C740 C 0.42401 0.73399 0.86558 0.0
C741 C 0.41782 0.77261 0.88277 0.0
C742 C 0.47341 0.78525 0.75537 0.0
C743 C 0.45194 0.79338 0.74508 0.0
C744 C 0.48733 0.76875 0.74226 0.0
C745 C 0.44466 0.78469 0.72189 0.0
C746 C 0.47941 0.76046 0.71914 0.0
N747 N 0.45842 0.76853 0.70952 0.0
C748 C 0.4499 0.84922 0.78425 0.0
C749 C 0.42063 0.83075 0.80972 0.0
C750 C 0.43358 0.86674 0.77689 0.0
N751 N 0.44312 0.83167 0.80028 0.0
C752 C 0.40374 0.84786 0.80286 0.0
C753 C 0.41003 0.86597 0.78594 0.0
H754 H 0.46783 0.84924 0.77672 0.0
H755 H 0.41563 0.81643 0.82215 0.0
C756 C 0.47174 0.71612 0.78139 0.0
N757 N 0.46025 0.73748 0.78306 0.0
C758 C 0.46081 0.69685 0.76923 0.0
C759 C 0.42676 0.72214 0.76056 0.0
C760 C 0.43809 0.74068 0.77326 0.0
C761 C 0.4381 0.69988 0.75851 0.0
H762 H 0.48924 0.71399 0.78966 0.0
H763 H 0.42916 0.7577 0.77541 0.0
O764 O 0.49354 0.81436 0.82952 0.0
O765 O 0.5023 0.76006 0.81996 0.0
O766 O 0.45049 0.77862 0.82393 0.0
O767 O 0.48065 0.79321 0.77827 0.0
H768 H 0.51925 0.84598 0.80423 0.0
H769 H 0.46107 0.83767 0.85604 0.0
H770 H 0.51339 0.88983 0.80583 0.0
H771 H 0.4563 0.88171 0.85678 0.0
H772 H 0.56892 0.7295 0.78352 0.0
H773 H 0.53148 0.76415 0.85857 0.0
H774 H 0.52606 0.7409 0.78231 0.0
H775 H 0.5742 0.75218 0.85851 0.0
H776 H 0.4823 0.80731 0.92929 0.0
H777 H 0.48476 0.73115 0.91589 0.0
H778 H 0.56347 0.81953 0.73885 0.0
H779 H 0.58816 0.8234 0.81513 0.0
H780 H 0.44283 0.73232 0.83067 0.0
H781 H 0.43163 0.80237 0.86183 0.0
H782 H 0.42185 0.71483 0.86703 0.0
H783 H 0.41089 0.78361 0.89769 0.0
H784 H 0.44086 0.80603 0.755 0.0
H785 H 0.50394 0.76221 0.75 0.0
H786 H 0.42803 0.79073 0.71376 0.0
H787 H 0.48993 0.74757 0.70887 0.0
H788 H 0.43907 0.8802 0.76357 0.0
H789 H 0.38586 0.84675 0.81048 0.0
H790 H 0.47002 0.67985 0.76809 0.0
H791 H 0.40907 0.72502 0.75293 0.0
Li792 Li 0.70881 0.50061 0.30173 0.0
Li793 Li 0.72196 0.48376 0.34171 0.0
Li794 Li 0.73632 0.4684 0.30099 0.0
Li795 Li 0.69534 0.4601 0.31368 0.0
C796 C 0.74782 0.52363 0.31203 0.0
N797 N 0.75819 0.5712 0.30349 0.0
C798 C 0.74561 0.54031 0.33127 0.0
C799 C 0.75555 0.53107 0.28852 0.0
C800 C 0.75089 0.5643 0.32656 0.0
C801 C 0.76063 0.55522 0.28455 0.0
C802 C 0.66625 0.49612 0.33759 0.0
C803 C 0.63488 0.49787 0.36838 0.0
N804 N 0.61975 0.50689 0.35092 0.0
C805 C 0.6504 0.50552 0.31998 0.0
C806 C 0.65846 0.49238 0.36203 0.0
C807 C 0.62696 0.5108 0.32707 0.0
C808 C 0.69118 0.52741 0.26168 0.0
N809 N 0.69705 0.52886 0.28619 0.0
C810 C 0.67704 0.56647 0.28984 0.0
C811 C 0.69082 0.54814 0.30021 0.0
C812 C 0.66938 0.56459 0.265 0.0
C813 C 0.67731 0.54518 0.25063 0.0
H814 H 0.69591 0.51169 0.25109 0.0
H815 H 0.69511 0.54849 0.31986 0.0
C816 C 0.7471 0.47552 0.38623 0.0
N817 N 0.72992 0.48937 0.37562 0.0
C818 C 0.75237 0.47782 0.41151 0.0
C819 C 0.72323 0.50965 0.4142 0.0
C820 C 0.71816 0.5064 0.38892 0.0
C821 C 0.74025 0.49495 0.4258 0.0
H822 H 0.75652 0.46246 0.37511 0.0
H823 H 0.70473 0.5173 0.37992 0.0
C824 C 0.71347 0.46128 0.25908 0.0
N825 N 0.72857 0.4397 0.21553 0.0
C826 C 0.70483 0.43871 0.2525 0.0
C827 C 0.72955 0.473 0.24335 0.0
C828 C 0.71273 0.42807 0.23043 0.0
C829 C 0.73705 0.46176 0.22147 0.0
C830 C 0.72273 0.43405 0.34938 0.0
C831 C 0.74002 0.41641 0.35318 0.0
C832 C 0.70308 0.4355 0.36536 0.0
C833 C 0.73742 0.40052 0.37307 0.0
C834 C 0.70111 0.41929 0.38504 0.0
N835 N 0.71818 0.40228 0.38846 0.0
C836 C 0.78366 0.46303 0.28045 0.0
C837 C 0.75895 0.42865 0.2822 0.0
C838 C 0.80271 0.44934 0.27135 0.0
N839 N 0.76244 0.4524 0.28585 0.0
C840 C 0.77731 0.41441 0.27296 0.0
C841 C 0.79975 0.42457 0.26788 0.0
H842 H 0.78599 0.48194 0.28385 0.0
H843 H 0.74192 0.42069 0.28692 0.0
C844 C 0.64779 0.4425 0.30604 0.0
N845 N 0.67076 0.43643 0.31136 0.0
C846 C 0.63071 0.42481 0.30148 0.0
C847 C 0.66122 0.3949 0.30797 0.0
C848 C 0.67766 0.41314 0.3124 0.0
C849 C 0.63743 0.40062 0.3021 0.0
H850 H 0.64282 0.46102 0.30437 0.0
H851 H 0.6962 0.40868 0.31554 0.0
O852 O 0.74233 0.50015 0.31616 0.0
O853 O 0.68943 0.49126 0.3312 0.0
O854 O 0.70627 0.47181 0.28084 0.0
O855 O 0.7252 0.44988 0.33014 0.0
H856 H 0.7397 0.53484 0.34957 0.0
H857 H 0.75751 0.51836 0.27349 0.0
H858 H 0.74912 0.57743 0.34124 0.0
H859 H 0.7665 0.56126 0.26642 0.0
H860 H 0.62862 0.495 0.38721 0.0
H861 H 0.65596 0.5083 0.30092 0.0
H862 H 0.67051 0.48537 0.37601 0.0
H863 H 0.61449 0.51795 0.31358 0.0
H864 H 0.67099 0.58101 0.30158 0.0
H865 H 0.6718 0.54317 0.23139 0.0
H866 H 0.7658 0.46638 0.41982 0.0
H867 H 0.71353 0.52303 0.42472 0.0
H868 H 0.69224 0.42944 0.26431 0.0
H869 H 0.73635 0.4905 0.24812 0.0
H870 H 0.70629 0.41055 0.22518 0.0
H871 H 0.74964 0.47056 0.20923 0.0
H872 H 0.75534 0.41508 0.34093 0.0
H873 H 0.6895 0.44895 0.36254 0.0
H874 H 0.75069 0.3868 0.37628 0.0
H875 H 0.68601 0.42021 0.39758 0.0
H876 H 0.81976 0.45788 0.26793 0.0
H877 H 0.77402 0.39553 0.27015 0.0
H878 H 0.61257 0.43003 0.29704 0.0
H879 H 0.66738 0.37655 0.30801 0.0
Li880 Li 0.01051 0.72336 0.84052 0.0
Li881 Li 0.9899 0.70524 0.80449 0.0
Li882 Li 0.03234 0.69997 0.80876 0.0
Li883 Li 0.01653 0.73793 0.79885 0.0
C884 C 0.01816 0.66985 0.8429 0.0
N885 N 0.0423 0.63164 0.86369 0.0
C886 C 0.01096 0.64646 0.83769 0.0
C887 C 0.03756 0.6738 0.8588 0.0
C888 C 0.02342 0.62738 0.84836 0.0
C889 C 0.04954 0.65426 0.86911 0.0
C890 C 0.96529 0.74086 0.83078 0.0
C891 C 0.93032 0.76378 0.84173 0.0
N892 N 0.92285 0.74561 0.85665 0.0
C893 C 0.95728 0.72241 0.84625 0.0
C894 C 0.95173 0.76172 0.82852 0.0
C895 C 0.93577 0.72516 0.85916 0.0
C896 C 0.00918 0.75505 0.88135 0.0
N897 N 0.00761 0.73165 0.87477 0.0
C898 C 0.00167 0.72023 0.91721 0.0
C899 C 0.00344 0.71435 0.89202 0.0
C900 C 0.00377 0.74419 0.92464 0.0
C901 C 0.00728 0.76178 0.90635 0.0
H902 H 0.01188 0.76849 0.86715 0.0
H903 H 0.00136 0.69598 0.88625 0.0
C904 C 0.9672 0.66577 0.78616 0.0
N905 N 0.9624 0.6886 0.79305 0.0
C906 C 0.94881 0.65057 0.77882 0.0
C907 C 0.92085 0.68313 0.78417 0.0
C908 C 0.93988 0.69773 0.79161 0.0
C909 C 0.92522 0.65907 0.77822 0.0
H910 H 0.98542 0.65934 0.78658 0.0
H911 H 0.93659 0.71618 0.79646 0.0
C912 C 0.05934 0.74576 0.81845 0.0
N913 N 0.09459 0.77786 0.80503 0.0
C914 C 0.07448 0.74075 0.7984 0.0
C915 C 0.06226 0.767 0.83181 0.0
C916 C 0.09216 0.75723 0.79188 0.0
C917 C 0.08016 0.78303 0.8247 0.0
C918 C 0.00348 0.7129 0.75625 0.0
C919 C 0.01086 0.70089 0.73476 0.0
C920 C 0.98463 0.72928 0.75488 0.0
C921 C 0.99929 0.70549 0.7122 0.0
C922 C 0.97351 0.73337 0.73197 0.0
N923 N 0.98101 0.7215 0.71128 0.0
C924 C 0.05461 0.66146 0.78474 0.0
C925 C 0.07873 0.68031 0.8153 0.0
C926 C 0.07337 0.64624 0.77822 0.0
N927 N 0.05774 0.67824 0.80274 0.0
C928 C 0.09793 0.66542 0.80945 0.0
C929 C 0.09552 0.64835 0.79038 0.0
H930 H 0.03769 0.66032 0.77506 0.0
H931 H 0.08066 0.69383 0.82957 0.0
C932 C 0.02008 0.78794 0.791 0.0
N933 N 0.02415 0.76614 0.78065 0.0
C934 C 0.03009 0.80843 0.78035 0.0
C935 C 0.04712 0.78367 0.74797 0.0
C936 C 0.03685 0.76374 0.75922 0.0
C937 C 0.04445 0.80627 0.75898 0.0
H938 H 0.01028 0.78922 0.80833 0.0
H939 H 0.04033 0.74616 0.7517 0.0
O940 O 0.00658 0.68881 0.83221 0.0
O941 O 0.98638 0.73886 0.81804 0.0
O942 O 0.04146 0.73016 0.82465 0.0
O943 O 0.01468 0.70839 0.77844 0.0
H944 H 0.99586 0.64301 0.82566 0.0
H945 H 0.04349 0.69179 0.86288 0.0
H946 H 0.01806 0.60919 0.84446 0.0
H947 H 0.06467 0.65707 0.88132 0.0
H948 H 0.91964 0.77982 0.84013 0.0
H949 H 0.96741 0.7061 0.84825 0.0
H950 H 0.95773 0.77619 0.81667 0.0
H951 H 0.92935 0.71102 0.87116 0.0
H952 H 0.99846 0.70621 0.93071 0.0
H953 H 0.00895 0.78046 0.91135 0.0
H954 H 0.953 0.6323 0.77375 0.0
H955 H 0.9029 0.69036 0.78375 0.0
H956 H 0.07226 0.72457 0.7876 0.0
H957 H 0.05073 0.77116 0.84737 0.0
H958 H 0.10384 0.7537 0.77624 0.0
H959 H 0.08252 0.7996 0.83477 0.0
H960 H 0.0254 0.68815 0.73553 0.0
H961 H 0.97861 0.73877 0.77123 0.0
H962 H 0.00483 0.69633 0.69542 0.0
H963 H 0.95892 0.74599 0.73063 0.0
H964 H 0.07077 0.63356 0.76322 0.0
H965 H 0.11456 0.66743 0.81956 0.0
H966 H 0.02781 0.82551 0.78954 0.0
H967 H 0.05789 0.78128 0.73139 0.0
Li968 Li 0.7808 0.01352 0.34427 0.0
Li969 Li 0.79086 0.99419 0.30622 0.0
Li970 Li 0.8027 0.03476 0.31194 0.0
Li971 Li 0.76017 0.02444 0.30566 0.0
C972 C 0.83041 0.0137 0.34797 0.0
N973 N 0.86514 0.02769 0.38154 0.0
C974 C 0.85145 0.00045 0.35039 0.0
C975 C 0.82705 0.03411 0.3626 0.0
C976 C 0.86879 0.0078 0.36748 0.0
C977 C 0.84481 0.04087 0.37947 0.0
C978 C 0.7546 0.97193 0.33455 0.0
C979 C 0.72701 0.94071 0.34602 0.0
N980 N 0.74523 0.9285 0.35697 0.0
C981 C 0.77305 0.95908 0.34588 0.0
C982 C 0.7314 0.96272 0.3346 0.0
C983 C 0.76795 0.93716 0.35714 0.0
C984 C 0.75912 0.02348 0.39039 0.0
N985 N 0.77654 0.01025 0.3794 0.0
C986 C 0.78808 0.99393 0.41877 0.0
C987 C 0.79087 0.99555 0.39298 0.0
C988 C 0.77042 0.00761 0.43076 0.0
C989 C 0.75575 0.02247 0.41616 0.0
H990 H 0.748 0.03502 0.37911 0.0
H991 H 0.80461 0.98519 0.38384 0.0
C992 C 0.82628 0.96752 0.28431 0.0
N993 N 0.80316 0.96549 0.29173 0.0
C994 C 0.83821 0.94801 0.27405 0.0
C995 C 0.8024 0.92439 0.27946 0.0
C996 C 0.79093 0.9446 0.28911 0.0
C997 C 0.82634 0.92605 0.27186 0.0
H998 H 0.8355 0.98439 0.28656 0.0
H999 H 0.7724 0.94352 0.29469 0.0
C1000 C 0.76848 0.06918 0.32627 0.0
N1001 N 0.75562 0.11577 0.31574 0.0
C1002 C 0.77039 0.07796 0.30195 0.0
C1003 C 0.76004 0.08408 0.3452 0.0
C1004 C 0.76379 0.10157 0.29702 0.0
C1005 C 0.75364 0.10759 0.33951 0.0
C1006 C 0.78612 0.00807 0.26044 0.0
C1007 C 0.8043 0.00992 0.24269 0.0
C1008 C 0.76722 0.99216 0.25648 0.0
C1009 C 0.80338 0.99563 0.22137 0.0
C1010 C 0.76695 0.97819 0.23492 0.0
N1011 N 0.7849 0.98017 0.21797 0.0
C1012 C 0.84378 0.05177 0.28793 0.0
C1013 C 0.82847 0.07864 0.3181 0.0
C1014 C 0.86175 0.06796 0.28153 0.0
N1015 N 0.82731 0.05755 0.30553 0.0
C1016 C 0.84615 0.09535 0.31231 0.0
C1017 C 0.86291 0.09024 0.29355 0.0
H1018 H 0.84291 0.03456 0.27886 0.0
H1019 H 0.81559 0.08262 0.3325 0.0
C1020 C 0.71481 0.04481 0.30999 0.0
N1021 N 0.73097 0.03694 0.29295 0.0
C1022 C 0.69494 0.05802 0.30237 0.0
C1023 C 0.70802 0.05369 0.25967 0.0
C1024 C 0.72789 0.04093 0.26815 0.0
C1025 C 0.69159 0.06288 0.27695 0.0
H1026 H 0.71801 0.04178 0.32962 0.0
H1027 H 0.74135 0.03522 0.25504 0.0
O1028 O 0.8134 0.00664 0.3312 0.0
O1029 O 0.75908 0.99334 0.3232 0.0
O1030 O 0.77433 0.04597 0.33154 0.0
O1031 O 0.78699 0.02134 0.28185 0.0
H1032 H 0.85432 0.98463 0.33915 0.0
H1033 H 0.8109 0.0446 0.36107 0.0
H1034 H 0.88516 0.9977 0.36955 0.0
H1035 H 0.84243 0.0566 0.39093 0.0
H1036 H 0.70914 0.93334 0.34615 0.0
H1037 H 0.79118 0.96577 0.34568 0.0
H1038 H 0.71694 0.97245 0.32582 0.0
H1039 H 0.78206 0.92698 0.36593 0.0
H1040 H 0.79958 0.98198 0.42919 0.0
H1041 H 0.74211 0.03356 0.42458 0.0
H1042 H 0.85674 0.94987 0.26855 0.0
H1043 H 0.79272 0.90769 0.27789 0.0
H1044 H 0.77684 0.06671 0.28702 0.0
H1045 H 0.75841 0.07754 0.3641 0.0
H1046 H 0.76514 0.10859 0.27829 0.0
H1047 H 0.74706 0.11933 0.35399 0.0
H1048 H 0.81897 0.02223 0.24532 0.0
H1049 H 0.75307 0.9904 0.27011 0.0
H1050 H 0.81738 0.99681 0.20752 0.0
H1051 H 0.75252 0.96569 0.23171 0.0
H1052 H 0.87462 0.06306 0.26735 0.0
H1053 H 0.84631 0.11232 0.32201 0.0
H1054 H 0.68263 0.06486 0.31622 0.0
H1055 H 0.70619 0.05742 0.23996 0.0
Li1056 Li 0.47805 0.73479 0.19689 0.0
Li1057 Li 0.46581 0.69458 0.18694 0.0
Li1058 Li 0.50771 0.70273 0.19408 0.0
Li1059 Li 0.48705 0.71692 0.1554 0.0
C1060 C 0.46576 0.70582 0.23765 0.0
N1061 N 0.4344 0.70579 0.2774 0.0
C1062 C 0.44218 0.71342 0.23439 0.0
C1063 C 0.4734 0.69817 0.26111 0.0
C1064 C 0.42659 0.71328 0.2547 0.0
C1065 C 0.45728 0.6983 0.28098 0.0
C1066 C 0.43444 0.72637 0.15854 0.0
C1067 C 0.40897 0.71783 0.12336 0.0
N1068 N 0.39087 0.73001 0.13453 0.0
C1069 C 0.41562 0.73897 0.16958 0.0
C1070 C 0.43114 0.71585 0.13516 0.0
C1071 C 0.39372 0.74053 0.15718 0.0
C1072 C 0.45649 0.77988 0.19961 0.0
N1073 N 0.46843 0.76335 0.21335 0.0
C1074 C 0.45992 0.78469 0.25088 0.0
C1075 C 0.47102 0.7658 0.23842 0.0
C1076 C 0.44629 0.80129 0.23734 0.0
C1077 C 0.44524 0.79914 0.21128 0.0
H1078 H 0.45474 0.77745 0.1797 0.0
H1079 H 0.48083 0.75255 0.24891 0.0
C1080 C 0.44969 0.65234 0.2087 0.0
N1081 N 0.442 0.6709 0.19445 0.0
C1082 C 0.43358 0.63524 0.21741 0.0
C1083 C 0.40175 0.65677 0.19693 0.0
C1084 C 0.41856 0.67322 0.18824 0.0
C1085 C 0.4091 0.63754 0.21198 0.0
H1086 H 0.46835 0.65113 0.2138 0.0
H1087 H 0.41261 0.6882 0.17732 0.0
C1088 C 0.52489 0.7499 0.19053 0.0
N1089 N 0.5566 0.77937 0.21529 0.0
C1090 C 0.53787 0.7671 0.17738 0.0
C1091 C 0.528 0.7477 0.21627 0.0
C1092 C 0.55383 0.78183 0.19024 0.0
C1093 C 0.54412 0.76276 0.22845 0.0
C1094 C 0.48817 0.6604 0.16178 0.0
C1095 C 0.50145 0.6421 0.17284 0.0
C1096 C 0.4691 0.65464 0.14605 0.0
C1097 C 0.49514 0.61833 0.16838 0.0
C1098 C 0.46332 0.63065 0.14208 0.0
N1099 N 0.47633 0.61314 0.15325 0.0
C1100 C 0.53298 0.67243 0.22512 0.0
C1101 C 0.55828 0.69565 0.19921 0.0
C1102 C 0.55252 0.65978 0.23434 0.0
N1103 N 0.53613 0.6896 0.20755 0.0
C1104 C 0.57845 0.68367 0.20826 0.0
C1105 C 0.57554 0.66512 0.22561 0.0
H1106 H 0.51511 0.66791 0.23121 0.0
H1107 H 0.56021 0.7093 0.18508 0.0
C1108 C 0.48756 0.7458 0.11229 0.0
N1109 N 0.49048 0.72315 0.12088 0.0
C1110 C 0.48918 0.75056 0.08678 0.0
C1111 C 0.49679 0.70859 0.07956 0.0
C1112 C 0.49516 0.70468 0.10519 0.0
C1113 C 0.49373 0.73178 0.06999 0.0
H1114 H 0.48384 0.76012 0.12527 0.0
H1115 H 0.49733 0.68683 0.11256 0.0
O1116 O 0.48137 0.70573 0.21802 0.0
O1117 O 0.45605 0.72477 0.1704 0.0
O1118 O 0.50913 0.73546 0.17816 0.0
O1119 O 0.49386 0.68381 0.16626 0.0
H1120 H 0.43597 0.71933 0.21638 0.0
H1121 H 0.49162 0.69226 0.26395 0.0
H1122 H 0.40829 0.71913 0.25243 0.0
H1123 H 0.46295 0.69246 0.29926 0.0
H1124 H 0.40618 0.70972 0.1053 0.0
H1125 H 0.41782 0.74736 0.18758 0.0
H1126 H 0.4455 0.70631 0.12615 0.0
H1127 H 0.37898 0.75013 0.16557 0.0
H1128 H 0.46144 0.78592 0.27096 0.0
H1129 H 0.43478 0.81145 0.20016 0.0
H1130 H 0.44026 0.6206 0.2286 0.0
H1131 H 0.38308 0.65971 0.19261 0.0
H1132 H 0.53561 0.76904 0.15745 0.0
H1133 H 0.51812 0.7345 0.22677 0.0
H1134 H 0.56401 0.79522 0.18031 0.0
H1135 H 0.54672 0.76125 0.24836 0.0
H1136 H 0.51648 0.64616 0.18474 0.0
H1137 H 0.45868 0.66851 0.13726 0.0
H1138 H 0.5052 0.604 0.17693 0.0
H1139 H 0.44846 0.62596 0.13014 0.0
H1140 H 0.54965 0.64564 0.24779 0.0
H1141 H 0.59596 0.68812 0.20102 0.0
H1142 H 0.48703 0.76877 0.08033 0.0
H1143 H 0.49997 0.69351 0.06737 0.0
Li1144 Li 0.76269 0.47302 0.69807 0.0
Li1145 Li 0.8051 0.46602 0.68918 0.0
Li1146 Li 0.78921 0.50643 0.69412 0.0
Li1147 Li 0.77963 0.48282 0.65726 0.0
C1148 C 0.78363 0.47328 0.74202 0.0
N1149 N 0.76759 0.45677 0.78757 0.0
C1150 C 0.79317 0.45236 0.75223 0.0
C1151 C 0.76601 0.48585 0.75504 0.0
C1152 C 0.78482 0.44431 0.77528 0.0
C1153 C 0.7581 0.47718 0.77801 0.0
C1154 C 0.76924 0.43624 0.6552 0.0
C1155 C 0.7758 0.41483 0.6168 0.0
N1156 N 0.75253 0.40778 0.61689 0.0
C1157 C 0.74542 0.4287 0.65499 0.0
C1158 C 0.78461 0.42915 0.63604 0.0
C1159 C 0.73732 0.41433 0.63544 0.0
C1160 C 0.71446 0.47022 0.71567 0.0
N1161 N 0.73609 0.45919 0.71457 0.0
C1162 C 0.72113 0.42558 0.73706 0.0
C1163 C 0.73965 0.43722 0.72469 0.0
C1164 C 0.69857 0.43642 0.73846 0.0
C1165 C 0.69523 0.45898 0.7275 0.0
H1166 H 0.7121 0.48758 0.70717 0.0
H1167 H 0.75691 0.42868 0.72299 0.0
C1168 C 0.84819 0.45365 0.713 0.0
N1169 N 0.83123 0.4456 0.69692 0.0
C1170 C 0.86608 0.43831 0.72152 0.0
C1171 C 0.84894 0.40676 0.69645 0.0
C1172 C 0.8314 0.42274 0.68839 0.0
C1173 C 0.86636 0.41437 0.71359 0.0
H1174 H 0.84729 0.47179 0.71991 0.0
H1175 H 0.81739 0.41664 0.67608 0.0
C1176 C 0.75042 0.52535 0.67722 0.0
N1177 N 0.73848 0.57323 0.67622 0.0
C1178 C 0.75431 0.53881 0.65568 0.0
C1179 C 0.74036 0.53616 0.69821 0.0
C1180 C 0.74816 0.56302 0.65555 0.0
C1181 C 0.73448 0.56041 0.69735 0.0
C1182 C 0.83524 0.49269 0.6647 0.0
C1183 C 0.85069 0.50597 0.67977 0.0
C1184 C 0.84464 0.47693 0.64704 0.0
C1185 C 0.87535 0.50318 0.67697 0.0
C1186 C 0.86941 0.47461 0.64484 0.0
N1187 N 0.88413 0.48767 0.65973 0.0
C1188 C 0.79912 0.54128 0.7306 0.0
C1189 C 0.80647 0.55359 0.68905 0.0
C1190 C 0.81011 0.56182 0.73981 0.0
N1191 N 0.79806 0.5373 0.70567 0.0
C1192 C 0.81771 0.57439 0.69745 0.0
C1193 C 0.8204 0.57824 0.72317 0.0
H1194 H 0.79265 0.5279 0.74341 0.0
H1195 H 0.80579 0.54971 0.66932 0.0
C1196 C 0.75082 0.47692 0.61473 0.0
N1197 N 0.77287 0.48389 0.62254 0.0
C1198 C 0.74549 0.4761 0.58936 0.0
C1199 C 0.78503 0.4914 0.58059 0.0
C1200 C 0.7898 0.4914 0.60615 0.0
C1201 C 0.76278 0.48329 0.57201 0.0
H1202 H 0.73749 0.47169 0.62824 0.0
H1203 H 0.80702 0.49727 0.61291 0.0
O1204 O 0.79129 0.48125 0.71927 0.0
O1205 O 0.77744 0.45059 0.67399 0.0
O1206 O 0.75684 0.50179 0.67791 0.0
O1207 O 0.81103 0.49483 0.66744 0.0
H1208 H 0.80667 0.44228 0.74239 0.0
H1209 H 0.75822 0.5019 0.74729 0.0
H1210 H 0.79197 0.4281 0.78335 0.0
H1211 H 0.74435 0.48663 0.78818 0.0
H1212 H 0.78745 0.40935 0.60176 0.0
H1213 H 0.73324 0.43407 0.66959 0.0
H1214 H 0.80307 0.43487 0.63589 0.0
H1215 H 0.7189 0.40847 0.63496 0.0
H1216 H 0.72424 0.40802 0.74491 0.0
H1217 H 0.67801 0.4678 0.72819 0.0
H1218 H 0.87925 0.44498 0.73457 0.0
H1219 H 0.84818 0.38838 0.69019 0.0
H1220 H 0.76219 0.53073 0.63931 0.0
H1221 H 0.73731 0.52598 0.71504 0.0
H1222 H 0.75116 0.5737 0.63905 0.0
H1223 H 0.72679 0.56906 0.71349 0.0
H1224 H 0.84374 0.51807 0.69372 0.0
H1225 H 0.83294 0.46646 0.63527 0.0
H1226 H 0.88752 0.51326 0.68859 0.0
H1227 H 0.87694 0.4624 0.63132 0.0
H1228 H 0.81156 0.56425 0.75977 0.0
H1229 H 0.82563 0.58643 0.68399 0.0
H1230 H 0.72804 0.47002 0.58334 0.0
H1231 H 0.79874 0.49711 0.56764 0.0
Li1232 Li 0.03384 0.80278 0.19093 0.0
Li1233 Li 0.01952 0.76196 0.19942 0.0
Li1234 Li 0.0131 0.7808 0.15715 0.0
Li1235 Li 0.99071 0.79472 0.19459 0.0
C1236 C 0.0649 0.77147 0.16242 0.0
N1237 N 0.10853 0.76914 0.13835 0.0
C1238 C 0.08337 0.75743 0.17215 0.0
C1239 C 0.06865 0.78425 0.14041 0.0
C1240 C 0.10529 0.75652 0.15973 0.0
C1241 C 0.09081 0.78286 0.12852 0.0
C1242 C 0.02476 0.78624 0.24366 0.0
C1243 C 0.01919 0.77837 0.28748 0.0
N1244 N 0.04316 0.77526 0.29007 0.0
C1245 C 0.04932 0.78279 0.24673 0.0
C1246 C 0.00953 0.78385 0.26417 0.0
C1247 C 0.05829 0.77731 0.27035 0.0
C1248 C 0.05345 0.84886 0.20259 0.0
N1249 N 0.0589 0.82555 0.19812 0.0
C1250 C 0.10047 0.83369 0.20429 0.0
C1251 C 0.08191 0.8178 0.19928 0.0
C1252 C 0.09552 0.85805 0.20805 0.0
C1253 C 0.07154 0.86553 0.20722 0.0
H1254 H 0.03505 0.85461 0.20268 0.0
H1255 H 0.08597 0.79915 0.19695 0.0
C1256 C 0.04168 0.71817 0.19792 0.0
N1257 N 0.02896 0.7321 0.21385 0.0
C1258 C 0.05454 0.69861 0.20679 0.0
C1259 C 0.03878 0.70631 0.24792 0.0
C1260 C 0.02636 0.72596 0.23824 0.0
C1261 C 0.05389 0.69305 0.23226 0.0
H1262 H 0.043 0.72311 0.1785 0.0
H1263 H 0.01563 0.73685 0.25048 0.0
C1264 C 0.00924 0.83739 0.16263 0.0
N1265 N 0.0135 0.88535 0.15098 0.0
C1266 C 0.99379 0.85416 0.17335 0.0
C1267 C 0.0268 0.84507 0.14593 0.0
C1268 C 0.99624 0.8783 0.16722 0.0
C1269 C 0.0287 0.86938 0.14031 0.0
C1270 C 0.96873 0.75284 0.18522 0.0
C1271 C 0.95076 0.74976 0.16744 0.0
C1272 C 0.96439 0.74686 0.21008 0.0
C1273 C 0.92862 0.74068 0.17486 0.0
C1274 C 0.94201 0.73784 0.21676 0.0
N1275 N 0.92474 0.73497 0.19917 0.0
C1276 C 0.01271 0.75047 0.11594 0.0
C1277 C 0.00979 0.79151 0.10541 0.0
C1278 C 0.01258 0.74409 0.0908 0.0
N1279 N 0.01149 0.77383 0.12268 0.0
C1280 C 0.0099 0.78596 0.08004 0.0
C1281 C 0.01145 0.76195 0.07239 0.0
H1282 H 0.01394 0.73682 0.13016 0.0
H1283 H 0.00874 0.80993 0.11132 0.0
C1284 C 0.95845 0.81777 0.22735 0.0
N1285 N 0.9609 0.80821 0.20422 0.0
C1286 C 0.93801 0.83079 0.2335 0.0
C1287 C 0.92302 0.82404 0.19184 0.0
C1288 C 0.94359 0.81078 0.18662 0.0
C1289 C 0.92026 0.83451 0.21543 0.0
H1290 H 0.9729 0.8164 0.24058 0.0
H1291 H 0.94631 0.80351 0.16817 0.0
O1292 O 0.04327 0.77254 0.17434 0.0
O1293 O 0.01559 0.79134 0.22062 0.0
O1294 O 0.00703 0.81364 0.16837 0.0
O1295 O 0.99032 0.76219 0.17844 0.0
H1296 H 0.081 0.74771 0.18939 0.0
H1297 H 0.05461 0.79506 0.13251 0.0
H1298 H 0.11976 0.74584 0.16715 0.0
H1299 H 0.09392 0.79267 0.11146 0.0
H1300 H 0.00759 0.77641 0.30348 0.0
H1301 H 0.06127 0.78386 0.23099 0.0
H1302 H 0.99041 0.78569 0.26208 0.0
H1303 H 0.07726 0.77455 0.27297 0.0
H1304 H 0.1185 0.82677 0.20566 0.0
H1305 H 0.06671 0.88408 0.21 0.0
H1306 H 0.06567 0.68852 0.19405 0.0
H1307 H 0.03772 0.70245 0.26766 0.0
H1308 H 0.98015 0.84869 0.18637 0.0
H1309 H 0.03899 0.83249 0.13751 0.0
H1310 H 0.98443 0.89144 0.17542 0.0
H1311 H 0.04228 0.87554 0.12749 0.0
H1312 H 0.95388 0.75446 0.14814 0.0
H1313 H 0.97807 0.7494 0.22409 0.0
H1314 H 0.91451 0.73823 0.16132 0.0
H1315 H 0.93835 0.73319 0.23595 0.0
H1316 H 0.01332 0.72533 0.08589 0.0
H1317 H 0.00931 0.80038 0.06662 0.0
H1318 H 0.93675 0.83906 0.25171 0.0
H1319 H 0.90975 0.82668 0.1774 0.0
Li1320 Li 0.69695 0.03235 0.69168 0.0
Li1321 Li 0.73711 0.02203 0.70159 0.0
Li1322 Li 0.72032 0.01147 0.66098 0.0
Li1323 Li 0.7066 0.99133 0.69948 0.0
C1324 C 0.73193 0.06679 0.68053 0.0
N1325 N 0.74427 0.11317 0.6927 0.0
C1326 C 0.7262 0.07605 0.70398 0.0
C1327 C 0.74394 0.08112 0.66328 0.0
C1328 C 0.73259 0.09953 0.70977 0.0
C1329 C 0.75001 0.10453 0.66978 0.0
C1330 C 0.71484 0.00974 0.74597 0.0
C1331 C 0.73896 0.98389 0.77169 0.0
N1332 N 0.72743 0.99218 0.79226 0.0
C1333 C 0.70319 0.01795 0.76734 0.0
C1334 C 0.73285 0.99252 0.74812 0.0
C1335 C 0.70983 0.00888 0.79058 0.0
C1336 C 0.65643 0.05086 0.71529 0.0
N1337 N 0.67218 0.05527 0.6966 0.0
C1338 C 0.65304 0.09242 0.68746 0.0
C1339 C 0.67059 0.07533 0.68242 0.0
C1340 C 0.63681 0.08869 0.70711 0.0
C1341 C 0.63846 0.06732 0.7208 0.0
H1342 H 0.658 0.03459 0.72605 0.0
H1343 H 0.6832 0.07827 0.66748 0.0
C1344 C 0.7867 0.03135 0.70586 0.0
N1345 N 0.76535 0.03339 0.71776 0.0
C1346 C 0.80724 0.04176 0.71603 0.0
C1347 C 0.7835 0.05563 0.75076 0.0
C1348 C 0.76345 0.04515 0.73985 0.0
C1349 C 0.80571 0.05429 0.73869 0.0
H1350 H 0.78763 0.02217 0.68815 0.0
H1351 H 0.74623 0.04717 0.74866 0.0
C1352 C 0.66633 0.01198 0.66179 0.0
N1353 N 0.62379 0.02945 0.64306 0.0
C1354 C 0.64458 0.00423 0.6717 0.0
C1355 C 0.66646 0.02853 0.64229 0.0
C1356 C 0.62326 0.0133 0.66199 0.0
C1357 C 0.64476 0.03717 0.63309 0.0
C1358 C 0.7446 0.96934 0.673 0.0
C1359 C 0.72684 0.95711 0.65983 0.0
C1360 C 0.76763 0.95978 0.67437 0.0
C1361 C 0.73245 0.93546 0.64826 0.0
C1362 C 0.77252 0.93806 0.66258 0.0
N1363 N 0.75498 0.92646 0.64987 0.0
C1364 C 0.74518 0.02009 0.61609 0.0
C1365 C 0.71141 0.99482 0.61207 0.0
C1366 C 0.74911 0.01926 0.59038 0.0
N1367 N 0.72646 0.00814 0.6263 0.0
C1368 C 0.71472 0.99341 0.58634 0.0
C1369 C 0.73361 0.00597 0.57508 0.0
H1370 H 0.75678 0.03065 0.62787 0.0
H1371 H 0.69657 0.98559 0.62066 0.0
C1372 C 0.67242 0.96848 0.72658 0.0
N1373 N 0.69337 0.96358 0.71487 0.0
C1374 C 0.65991 0.9505 0.73887 0.0
C1375 C 0.69089 0.92254 0.7272 0.0
C1376 C 0.70302 0.94124 0.71533 0.0
C1377 C 0.66901 0.92714 0.73914 0.0
H1378 H 0.66544 0.9865 0.72633 0.0
H1379 H 0.72009 0.93786 0.70664 0.0
O1380 O 0.72612 0.04377 0.67443 0.0
O1381 O 0.70831 0.01842 0.72312 0.0
O1382 O 0.68742 0.00383 0.67147 0.0
O1383 O 0.73974 0.99074 0.68422 0.0
H1384 H 0.71692 0.06525 0.71759 0.0
H1385 H 0.74853 0.07421 0.64506 0.0
H1386 H 0.72827 0.10691 0.72785 0.0
H1387 H 0.75932 0.11582 0.65661 0.0
H1388 H 0.75287 0.97059 0.77364 0.0
H1389 H 0.68917 0.03122 0.76595 0.0
H1390 H 0.74205 0.98587 0.73184 0.0
H1391 H 0.70098 0.0151 0.80728 0.0
H1392 H 0.65268 0.10868 0.67653 0.0
H1393 H 0.62607 0.06336 0.73574 0.0
H1394 H 0.82406 0.04027 0.70617 0.0
H1395 H 0.78141 0.06552 0.76797 0.0
H1396 H 0.64414 0.9914 0.68674 0.0
H1397 H 0.68316 0.03495 0.63462 0.0
H1398 H 0.60629 0.00751 0.66952 0.0
H1399 H 0.64459 0.05009 0.6181 0.0
H1400 H 0.70886 0.96408 0.65878 0.0
H1401 H 0.78158 0.96908 0.68444 0.0
H1402 H 0.71886 0.92578 0.63807 0.0
H1403 H 0.79027 0.93045 0.6635 0.0
H1404 H 0.76371 0.02948 0.58252 0.0
H1405 H 0.70253 0.98265 0.57539 0.0
H1406 H 0.64303 0.95478 0.74768 0.0
H1407 H 0.6986 0.90479 0.72728 0.0
H1408 H 0.41771 0.14917 0.26289 0.0
H1409 H 0.37053 0.17285 0.2043 0.0
H1410 H 0.34043 0.14373 0.2176 0.0
H1411 H 0.32898 0.10924 0.24407 0.0
H1412 H 0.37729 0.08557 0.30162 0.0
H1413 H 0.40531 0.11734 0.29089 0.0
C1414 C 0.40062 0.14844 0.25337 0.0
C1415 C 0.39638 0.16321 0.23266 0.0
C1416 C 0.38364 0.13153 0.26089 0.0
C1417 C 0.37432 0.16155 0.2202 0.0
C1418 C 0.3571 0.14493 0.22782 0.0
C1419 C 0.34548 0.11138 0.25444 0.0
C1420 C 0.35123 0.09506 0.27344 0.0
C1421 C 0.36177 0.12948 0.24784 0.0
C1422 C 0.37269 0.09781 0.28673 0.0
C1423 C 0.38868 0.11595 0.28062 0.0
H1424 H 0.34304 0.38007 0.7062 0.0
H1425 H 0.33488 0.4175 0.77606 0.0
H1426 H 0.36221 0.38967 0.7961 0.0
H1427 H 0.39101 0.35695 0.79314 0.0
H1428 H 0.40126 0.32061 0.72307 0.0
H1429 H 0.37037 0.34552 0.70388 0.0
C1430 C 0.34717 0.38206 0.72583 0.0
C1431 C 0.3369 0.40092 0.73954 0.0
C1432 C 0.36335 0.36622 0.73721 0.0
C1433 C 0.34219 0.403 0.76508 0.0
C1434 C 0.35802 0.3872 0.77655 0.0
C1435 C 0.38643 0.35443 0.77368 0.0
C1436 C 0.3986 0.33715 0.75949 0.0
C1437 C 0.36907 0.36909 0.76269 0.0
C1438 C 0.3921 0.33372 0.73445 0.0
C1439 C 0.37457 0.34809 0.72341 0.0
H1440 H 0.09392 0.3664 0.20824 0.0
H1441 H 0.12155 0.30954 0.25434 0.0
H1442 H 0.15105 0.33696 0.27213 0.0
H1443 H 0.16818 0.37766 0.27541 0.0
H1444 H 0.14014 0.43372 0.22848 0.0
H1445 H 0.11216 0.40578 0.20968 0.0
C1446 C 0.10672 0.35974 0.22174 0.0
C1447 C 0.10547 0.33586 0.22984 0.0
C1448 C 0.12365 0.37549 0.23174 0.0
C1449 C 0.12188 0.32788 0.24791 0.0
C1450 C 0.13883 0.34353 0.25803 0.0
C1451 C 0.15598 0.38368 0.26102 0.0
C1452 C 0.15639 0.40773 0.25328 0.0
C1453 C 0.1397 0.36748 0.25029 0.0
C1454 C 0.14054 0.41524 0.2345 0.0
C1455 C 0.12437 0.39932 0.22385 0.0
H1456 H 0.16846 0.10725 0.75706 0.0
H1457 H 0.13235 0.09911 0.68659 0.0
H1458 H 0.10371 0.13017 0.69828 0.0
H1459 H 0.08649 0.15623 0.73032 0.0
H1460 H 0.12284 0.16477 0.80074 0.0
H1461 H 0.15373 0.13677 0.78735 0.0
C1462 C 0.15447 0.11253 0.74419 0.0
C1463 C 0.15239 0.10088 0.72109 0.0
C1464 C 0.13796 0.1302 0.75114 0.0
C1465 C 0.13439 0.10798 0.70441 0.0
C1466 C 0.11791 0.12559 0.71117 0.0
C1467 C 0.10146 0.15249 0.74254 0.0
C1468 C 0.10212 0.16241 0.76665 0.0
C1469 C 0.1192 0.1364 0.73472 0.0
C1470 C 0.12158 0.15703 0.78229 0.0
C1471 C 0.13932 0.14108 0.77462 0.0
H1472 H 0.59706 0.86243 0.79849 0.0
H1473 H 0.60693 0.81711 0.73425 0.0
H1474 H 0.6374 0.84441 0.71818 0.0
H1475 H 0.65865 0.88299 0.72072 0.0
H1476 H 0.64803 0.9282 0.78487 0.0
H1477 H 0.62075 0.89886 0.80287 0.0
C1478 C 0.60627 0.85816 0.78127 0.0
C1479 C 0.59964 0.83777 0.76757 0.0
C1480 C 0.62354 0.87402 0.77204 0.0
C1481 C 0.61148 0.83284 0.74503 0.0
C1482 C 0.62894 0.84841 0.73585 0.0
C1483 C 0.65072 0.88615 0.73886 0.0
C1484 C 0.65516 0.90781 0.75135 0.0
C1485 C 0.63474 0.86933 0.74894 0.0
C1486 C 0.6446 0.9118 0.77475 0.0
C1487 C 0.62904 0.89503 0.78505 0.0
H1488 H 0.57847 0.61725 0.2229 0.0
H1489 H 0.61843 0.6795 0.24513 0.0
H1490 H 0.6515 0.65396 0.2592 0.0
H1491 H 0.66843 0.61347 0.26611 0.0
H1492 H 0.62821 0.55179 0.24224 0.0
H1493 H 0.59589 0.57749 0.2278 0.0
C1494 C 0.59443 0.62518 0.23089 0.0
C1495 C 0.59601 0.6501 0.23331 0.0
C1496 C 0.6133 0.61047 0.23856 0.0
C1497 C 0.6169 0.66029 0.24318 0.0
C1498 C 0.63572 0.64571 0.25126 0.0
C1499 C 0.6526 0.60578 0.25765 0.0
C1500 C 0.65073 0.58081 0.25512 0.0
C1501 C 0.63405 0.62072 0.24919 0.0
C1502 C 0.6302 0.57098 0.24404 0.0
C1503 C 0.61164 0.58563 0.23593 0.0
H1504 H 0.88816 0.66619 0.74589 0.0
H1505 H 0.91806 0.61469 0.79698 0.0
H1506 H 0.88737 0.5858 0.78545 0.0
H1507 H 0.85374 0.57432 0.7593 0.0
H1508 H 0.82358 0.62492 0.70746 0.0
H1509 H 0.85269 0.65507 0.7208 0.0
C1510 C 0.88771 0.64874 0.75467 0.0
C1511 C 0.90544 0.64248 0.77209 0.0
C1512 C 0.8701 0.63206 0.74775 0.0
C1513 C 0.90481 0.61976 0.78323 0.0
C1514 C 0.88724 0.60328 0.77673 0.0
C1515 C 0.85315 0.5921 0.75127 0.0
C1516 C 0.8364 0.59742 0.73255 0.0
C1517 C 0.87001 0.60912 0.75879 0.0
C1518 C 0.83635 0.62036 0.72186 0.0
C1519 C 0.85296 0.63759 0.7295 0.0
H1520 H 0.85021 0.92166 0.22828 0.0
H1521 H 0.83228 0.88342 0.29538 0.0
H1522 H 0.85882 0.85059 0.28315 0.0
H1523 H 0.88982 0.83454 0.25496 0.0
H1524 H 0.90675 0.87248 0.18733 0.0
H1525 H 0.87777 0.90355 0.19794 0.0
C1526 C 0.85194 0.90595 0.23999 0.0
C1527 C 0.83955 0.9049 0.26272 0.0
C1528 C 0.86711 0.88721 0.23279 0.0
C1529 C 0.84164 0.88447 0.27774 0.0
C1530 C 0.8569 0.86582 0.27083 0.0
C1531 C 0.88688 0.84949 0.24246 0.0
C1532 C 0.90041 0.85134 0.22048 0.0
C1533 C 0.87012 0.86724 0.24866 0.0
C1534 C 0.89639 0.87064 0.20427 0.0
C1535 C 0.87996 0.88847 0.2104 0.0
H1536 H 0.57951 0.30672 0.27787 0.0
H1537 H 0.55292 0.35135 0.21848 0.0
H1538 H 0.57527 0.38537 0.23505 0.0
H1539 H 0.605 0.40138 0.26427 0.0
H1540 H 0.63175 0.35665 0.32357 0.0
H1541 H 0.60695 0.3236 0.30893 0.0
C1542 C 0.57858 0.32392 0.26861 0.0
C1543 C 0.56475 0.32647 0.24688 0.0
C1544 C 0.59167 0.3433 0.27806 0.0
C1545 C 0.56333 0.34896 0.23532 0.0
C1546 C 0.57623 0.36837 0.24468 0.0
C1547 C 0.60505 0.38458 0.27433 0.0
C1548 C 0.62036 0.38147 0.2949 0.0
C1549 C 0.59078 0.36563 0.26579 0.0
C1550 C 0.62042 0.35942 0.30746 0.0
C1551 C 0.60619 0.34053 0.29916 0.0
H1552 H 0.19228 0.60281 0.75304 0.0
H1553 H 0.14682 0.54111 0.74419 0.0
H1554 H 0.11289 0.56368 0.7607 0.0
H1555 H 0.09609 0.60119 0.77713 0.0
H1556 H 0.14179 0.6629 0.78509 0.0
H1557 H 0.17582 0.63981 0.77017 0.0
C1558 C 0.17504 0.59416 0.75506 0.0
C1559 C 0.17212 0.57029 0.74744 0.0
C1560 C 0.15567 0.60722 0.76453 0.0
C1561 C 0.14951 0.55954 0.7497 0.0
C1562 C 0.13013 0.5724 0.75924 0.0
C1563 C 0.11347 0.60961 0.77552 0.0
C1564 C 0.11633 0.63375 0.7823 0.0
C1565 C 0.13297 0.59631 0.76655 0.0
C1566 C 0.1391 0.64427 0.78041 0.0
C1567 C 0.15856 0.63113 0.77167 0.0
H1568 H 0.87697 0.1017 0.24659 0.0
H1569 H 0.88931 0.11959 0.32374 0.0
H1570 H 0.91737 0.15084 0.31125 0.0
H1571 H 0.93761 0.17376 0.27833 0.0
H1572 H 0.9245 0.15615 0.20122 0.0
H1573 H 0.89814 0.12364 0.21384 0.0
C1574 C 0.88607 0.11218 0.26071 0.0
C1575 C 0.88098 0.10833 0.28606 0.0
C1576 C 0.90215 0.13011 0.25341 0.0
C1577 C 0.89265 0.12238 0.30408 0.0
C1578 C 0.90878 0.14017 0.29696 0.0
C1579 C 0.92896 0.16282 0.26429 0.0
C1580 C 0.93311 0.16739 0.23887 0.0
C1581 C 0.91348 0.14436 0.27166 0.0
C1582 C 0.92198 0.15283 0.22092 0.0
C1583 C 0.90671 0.13434 0.22811 0.0
H1584 H 0.34337 0.94967 0.74743 0.0
H1585 H 0.29385 0.8908 0.74142 0.0
H1586 H 0.32408 0.86342 0.75729 0.0
H1587 H 0.36454 0.85595 0.77232 0.0
H1588 H 0.41459 0.91427 0.77855 0.0
H1589 H 0.38436 0.94203 0.7627 0.0
C1590 C 0.33929 0.93083 0.74951 0.0
C1591 C 0.31633 0.92235 0.74351 0.0
C1592 C 0.35684 0.91508 0.75858 0.0
C1593 C 0.31123 0.89789 0.74638 0.0
C1594 C 0.32855 0.88217 0.7553 0.0
C1595 C 0.36877 0.87479 0.77054 0.0
C1596 C 0.39172 0.88305 0.77677 0.0
C1597 C 0.35136 0.89057 0.76152 0.0
C1598 C 0.39708 0.90743 0.77375 0.0
C1599 C 0.37978 0.92332 0.76478 0.0
H1600 H 0.56418 0.17469 0.71959 0.0
H1601 H 0.57454 0.15716 0.79712 0.0
H1602 H 0.6006 0.124 0.78554 0.0
H1603 H 0.62226 0.10154 0.75366 0.0
H1604 H 0.61128 0.11808 0.67591 0.0
H1605 H 0.58408 0.15039 0.68736 0.0
C1606 C 0.57211 0.16354 0.7339 0.0
C1607 C 0.56744 0.16838 0.75916 0.0
C1608 C 0.58717 0.14451 0.72711 0.0
C1609 C 0.57762 0.15365 0.77753 0.0
C1610 C 0.59266 0.13478 0.77094 0.0
C1611 C 0.61361 0.11186 0.73913 0.0
C1612 C 0.61899 0.10736 0.71393 0.0
C1613 C 0.59776 0.13021 0.74581 0.0
C1614 C 0.60786 0.12135 0.69547 0.0
C1615 C 0.59216 0.13975 0.70199 0.0
H1616 H 0.36751 0.62129 0.19112 0.0
H1617 H 0.41013 0.61632 0.25808 0.0
H1618 H 0.38008 0.59074 0.27708 0.0
H1619 H 0.34034 0.57193 0.27598 0.0
H1620 H 0.29611 0.58012 0.21081 0.0
H1621 H 0.32789 0.60264 0.19001 0.0
C1622 C 0.37022 0.61482 0.20994 0.0
C1623 C 0.39121 0.62084 0.22302 0.0
C1624 C 0.35244 0.60077 0.22119 0.0
C1625 C 0.39447 0.61173 0.24725 0.0
C1626 C 0.37714 0.59724 0.2583 0.0
C1627 C 0.33786 0.57844 0.25711 0.0
C1628 C 0.31608 0.5744 0.24483 0.0
C1629 C 0.35593 0.5919 0.24559 0.0
C1630 C 0.3128 0.58314 0.22055 0.0
C1631 C 0.33093 0.59598 0.2087 0.0
H1632 H 0.89042 0.37868 0.68969 0.0
H1633 H 0.88066 0.41079 0.76211 0.0
H1634 H 0.9065 0.38062 0.78077 0.0
H1635 H 0.9295 0.34347 0.77711 0.0
H1636 H 0.93861 0.31068 0.70497 0.0
H1637 H 0.91504 0.34249 0.68572 0.0
C1638 C 0.89395 0.37907 0.70955 0.0
C1639 C 0.88357 0.39699 0.72444 0.0
C1640 C 0.90852 0.3614 0.72028 0.0
C1641 C 0.88864 0.39743 0.75011 0.0
C1642 C 0.90327 0.38005 0.76087 0.0
C1643 C 0.9267 0.34351 0.75711 0.0
C1644 C 0.93574 0.32469 0.74252 0.0
C1645 C 0.91304 0.36177 0.74619 0.0
C1646 C 0.9316 0.32481 0.71667 0.0
C1647 C 0.91819 0.34303 0.70564 0.0
H1648 H 0.09476 0.89681 0.23925 0.0
H1649 H 0.141 0.85803 0.18902 0.0
H1650 H 0.17443 0.88347 0.20076 0.0
H1651 H 0.19114 0.915 0.22708 0.0
H1652 H 0.14448 0.95577 0.27507 0.0
H1653 H 0.11056 0.93139 0.26203 0.0
C1654 C 0.11197 0.89416 0.23042 0.0
C1655 C 0.11528 0.87516 0.21353 0.0
C1656 C 0.13114 0.90916 0.23691 0.0
C1657 C 0.13794 0.87201 0.20259 0.0
C1658 C 0.1571 0.8867 0.20914 0.0
C1659 C 0.17349 0.91902 0.2343 0.0
C1660 C 0.17054 0.93711 0.25227 0.0
C1661 C 0.15399 0.90509 0.22656 0.0
C1662 C 0.14747 0.94166 0.26162 0.0
C1663 C 0.128 0.92778 0.25409 0.0
H1664 H 0.37386 0.62897 0.69632 0.0
H1665 H 0.38528 0.58519 0.76135 0.0
H1666 H 0.41214 0.61535 0.77875 0.0
H1667 H 0.43039 0.65532 0.77666 0.0
H1668 H 0.4174 0.69993 0.71261 0.0
H1669 H 0.3934 0.66829 0.69348 0.0
C1670 C 0.38253 0.62592 0.71412 0.0
C1671 C 0.37758 0.60494 0.72757 0.0
C1672 C 0.39761 0.64353 0.72421 0.0
C1673 C 0.38866 0.60132 0.75077 0.0
C1674 C 0.40405 0.61852 0.7607 0.0
C1675 C 0.4226 0.6579 0.75834 0.0
C1676 C 0.42563 0.67983 0.74601 0.0
C1677 C 0.40838 0.63985 0.74776 0.0
C1678 C 0.41517 0.68317 0.72246 0.0
C1679 C 0.40147 0.66512 0.71154 0.0
H1680 H 0.87797 0.34591 0.24711 0.0
H1681 H 0.90393 0.39989 0.19647 0.0
H1682 H 0.87096 0.42625 0.20838 0.0
H1683 H 0.83472 0.43393 0.23344 0.0
H1684 H 0.81073 0.38026 0.28559 0.0
H1685 H 0.84312 0.35398 0.27292 0.0
C1686 C 0.8767 0.36357 0.2389 0.0
C1687 C 0.89354 0.3709 0.22101 0.0
C1688 C 0.85798 0.37872 0.24607 0.0
C1689 C 0.89112 0.39365 0.21012 0.0
C1690 C 0.87235 0.40881 0.21704 0.0
C1691 C 0.83671 0.41658 0.24219 0.0
C1692 C 0.82007 0.40905 0.26025 0.0
C1693 C 0.85567 0.40154 0.23504 0.0
C1694 C 0.82287 0.38638 0.27123 0.0
C1695 C 0.84152 0.37135 0.26414 0.0
H1696 H 0.09105 0.80646 0.74591 0.0
H1697 H 0.02943 0.85243 0.75167 0.0
H1698 H 0.05336 0.88647 0.73737 0.0
H1699 H 0.0922 0.90317 0.72395 0.0
H1700 H 0.15353 0.85666 0.71881 0.0
H1701 H 0.12923 0.82272 0.73191 0.0
C1702 C 0.08274 0.82384 0.74366 0.0
C1703 C 0.05845 0.82689 0.74957 0.0
C1704 C 0.09658 0.84322 0.73561 0.0
C1705 C 0.04811 0.84967 0.74725 0.0
C1706 C 0.06176 0.86909 0.73902 0.0
C1707 C 0.10012 0.88554 0.72549 0.0
C1708 C 0.12462 0.88242 0.72052 0.0
C1709 C 0.08606 0.86608 0.73323 0.0
C1710 C 0.13477 0.85955 0.72283 0.0
C1711 C 0.12089 0.84013 0.73023 0.0
H1712 H 0.61822 0.14493 0.25133 0.0
H1713 H 0.5945 0.09275 0.19772 0.0
H1714 H 0.62501 0.06457 0.21239 0.0
H1715 H 0.65895 0.05518 0.2402 0.0
H1716 H 0.68113 0.10691 0.29508 0.0
H1717 H 0.65066 0.13487 0.28036 0.0
C1718 C 0.61983 0.12739 0.24287 0.0
C1719 C 0.60441 0.1209 0.22337 0.0
C1720 C 0.63705 0.11124 0.2517 0.0
C1721 C 0.60628 0.09804 0.21277 0.0
C1722 C 0.6237 0.082 0.22112 0.0
C1723 C 0.657 0.07257 0.24891 0.0
C1724 C 0.67219 0.07903 0.26866 0.0
C1725 C 0.63926 0.08844 0.24052 0.0
C1726 C 0.66945 0.1015 0.28 0.0
C1727 C 0.65214 0.11752 0.27151 0.0
H1728 H 0.441 0.84836 0.22545 0.0
H1729 H 0.41828 0.79489 0.27828 0.0
H1730 H 0.39135 0.82365 0.29783 0.0
H1731 H 0.37269 0.86342 0.2986 0.0
H1732 H 0.39529 0.91693 0.24581 0.0
H1733 H 0.4238 0.88881 0.2276 0.0
C1734 C 0.43019 0.84306 0.24129 0.0
C1735 C 0.43162 0.81953 0.25037 0.0
C1736 C 0.41465 0.85967 0.25239 0.0
C1737 C 0.41773 0.81298 0.27111 0.0
C1738 C 0.40218 0.82935 0.28218 0.0
C1739 C 0.3839 0.86888 0.28312 0.0
C1740 C 0.38183 0.89214 0.27348 0.0
C1741 C 0.40025 0.85264 0.27277 0.0
C1742 C 0.39668 0.89915 0.25366 0.0
C1743 C 0.41289 0.88305 0.24316 0.0
H1744 H 0.65463 0.42782 0.71923 0.0
H1745 H 0.69807 0.41595 0.78441 0.0
H1746 H 0.6663 0.39181 0.80307 0.0
H1747 H 0.62709 0.37229 0.79977 0.0
H1748 H 0.58435 0.38264 0.73378 0.0
H1749 H 0.61488 0.40915 0.71644 0.0
C1750 C 0.65693 0.42021 0.73767 0.0
C1751 C 0.67854 0.42363 0.7505 0.0
C1752 C 0.63882 0.40594 0.74799 0.0
C1753 C 0.68155 0.41341 0.7742 0.0
C1754 C 0.66343 0.39964 0.78484 0.0
C1755 C 0.62437 0.38061 0.78174 0.0
C1756 C 0.60357 0.37554 0.76804 0.0
C1757 C 0.64213 0.39551 0.77176 0.0
C1758 C 0.60036 0.38613 0.74454 0.0
C1759 C 0.61775 0.40133 0.73467 0.0
H1760 H 0.13894 0.62694 0.26686 0.0
H1761 H 0.08172 0.59024 0.30451 0.0
H1762 H 0.05289 0.61959 0.28864 0.0
H1763 H 0.04407 0.65568 0.26345 0.0
H1764 H 0.10157 0.6907 0.22434 0.0
H1765 H 0.13018 0.66209 0.2413 0.0
C1766 C 0.12017 0.62555 0.27176 0.0
C1767 C 0.11242 0.60671 0.28701 0.0
C1768 C 0.10377 0.64211 0.26216 0.0
C1769 C 0.08803 0.6047 0.29282 0.0
C1770 C 0.07159 0.62145 0.28376 0.0
C1771 C 0.06288 0.65698 0.25874 0.0
C1772 C 0.07072 0.67516 0.2426 0.0
C1773 C 0.07925 0.64022 0.26833 0.0
C1774 C 0.0951 0.67665 0.23648 0.0
C1775 C 0.11148 0.66039 0.24626 0.0
H1776 H 0.88419 0.11032 0.79984 0.0
H1777 H 0.90088 0.13665 0.72632 0.0
H1778 H 0.87035 0.11068 0.70833 0.0
H1779 H 0.83752 0.08205 0.71369 0.0
H1780 H 0.82062 0.05579 0.78716 0.0
H1781 H 0.85276 0.07999 0.80493 0.0
C1782 C 0.88137 0.11013 0.77985 0.0
C1783 C 0.89468 0.12555 0.76449 0.0
C1784 C 0.8637 0.09521 0.76962 0.0
C1785 C 0.89061 0.12526 0.73863 0.0
C1786 C 0.87324 0.11032 0.7283 0.0
C1787 C 0.84115 0.08129 0.73353 0.0
C1788 C 0.82667 0.06717 0.74908 0.0
C1789 C 0.85948 0.09544 0.74364 0.0
C1790 C 0.83136 0.0667 0.77482 0.0
C1791 C 0.84975 0.0805 0.78498 0.0
H1792 H 0.49869 0.26931 0.04385 0.0
H1793 H 0.51612 0.1946 0.03495 0.0
H1794 H 0.51527 0.19911 0.98979 0.0
H1795 H 0.51028 0.22432 0.95281 0.0
H1796 H 0.4955 0.29958 0.96173 0.0
H1797 H 0.49459 0.29472 0.00687 0.0
C1798 C 0.50258 0.25405 0.03208 0.0
C1799 C 0.50746 0.23165 0.0429 0.0
C1800 C 0.50247 0.25683 0.00608 0.0
C1801 C 0.51196 0.21199 0.02723 0.0
C1802 C 0.51164 0.21457 0.00136 0.0
C1803 C 0.50709 0.23973 0.9646 0.0
C1804 C 0.50296 0.26228 0.95378 0.0
C1805 C 0.50703 0.23693 0.99059 0.0
C1806 C 0.49838 0.28193 0.96943 0.0
C1807 C 0.49804 0.27922 0.9953 0.0
H1808 H 0.21241 0.51626 0.46548 0.0
H1809 H 0.28362 0.49407 0.44469 0.0
H1810 H 0.29561 0.49424 0.48834 0.0
H1811 H 0.28616 0.50135 0.53241 0.0
H1812 H 0.21402 0.5203 0.55323 0.0
H1813 H 0.20223 0.52054 0.50958 0.0
C1814 C 0.23046 0.51104 0.47041 0.0
C1815 C 0.24705 0.50532 0.4516 0.0
C1816 C 0.23717 0.51069 0.49563 0.0
C1817 C 0.2705 0.49906 0.45858 0.0
C1818 C 0.27738 0.49896 0.48362 0.0
C1819 C 0.26776 0.50519 0.52751 0.0
C1820 C 0.25114 0.51106 0.54626 0.0
C1821 C 0.26089 0.50486 0.5023 0.0
C1822 C 0.22744 0.51628 0.53931 0.0
C1823 C 0.22057 0.51624 0.5143 0.0
H1824 H 0.01868 0.26745 0.03487 0.0
H1825 H 0.94882 0.23726 0.04805 0.0
H1826 H 0.94492 0.22779 0.00388 0.0
H1827 H 0.96139 0.22777 0.96152 0.0
H1828 H 0.03128 0.25778 0.94824 0.0
H1829 H 0.03537 0.26699 0.99251 0.0
C1830 C 0.0027 0.25858 0.02813 0.0
C1831 C 0.98404 0.2532 0.0448 0.0
C1832 C 0.00062 0.253 0.00269 0.0
C1833 C 0.96332 0.24199 0.03563 0.0
C1834 C 0.96112 0.23641 0.01037 0.0
C1835 C 0.97744 0.2365 0.96827 0.0
C1836 C 0.99598 0.24208 0.95154 0.0
C1837 C 0.97962 0.2419 0.99372 0.0
C1838 C 0.01684 0.25302 0.96072 0.0
C1839 C 0.01914 0.25844 0.98602 0.0
H1840 H 0.25937 0.95558 0.45986 0.0
H1841 H 0.25359 0.03195 0.45076 0.0
H1842 H 0.24314 0.03626 0.49478 0.0
H1843 H 0.23464 0.01816 0.53554 0.0
H1844 H 0.24166 0.94179 0.54469 0.0
H1845 H 0.252 0.93764 0.50082 0.0
C1846 C 0.25569 0.97315 0.4675 0.0
C1847 C 0.25718 0.9934 0.45207 0.0
C1848 C 0.2497 0.97548 0.49277 0.0
C1849 C 0.25276 0.0161 0.46231 0.0
C1850 C 0.24666 0.01856 0.48743 0.0
C1851 C 0.23867 0.00063 0.52804 0.0
C1852 C 0.23715 0.98032 0.54347 0.0
C1853 C 0.245 0.99836 0.50282 0.0
C1854 C 0.24217 0.95771 0.53323 0.0
C1855 C 0.24829 0.9553 0.50815 0.0
H1856 H 0.51087 0.73833 0.95359 0.0
H1857 H 0.45341 0.78935 0.96 0.0
H1858 H 0.45163 0.7826 0.00495 0.0
H1859 H 0.466 0.76182 0.04228 0.0
H1860 H 0.52439 0.7117 0.03613 0.0
H1861 H 0.52586 0.71813 0.9912 0.0
C1862 C 0.49788 0.74783 0.96484 0.0
C1863 C 0.4823 0.7643 0.95352 0.0
C1864 C 0.49704 0.74396 0.99069 0.0
C1865 C 0.46575 0.77675 0.96834 0.0
C1866 C 0.46465 0.77283 0.99401 0.0
C1867 C 0.47927 0.75251 0.03121 0.0
C1868 C 0.49501 0.73624 0.04267 0.0
C1869 C 0.48024 0.75651 0.00539 0.0
C1870 C 0.51179 0.72405 0.02783 0.0
C1871 C 0.51275 0.72782 0.00212 0.0
H1872 H 0.76516 0.51899 0.5379 0.0
H1873 H 0.74896 0.4441 0.54607 0.0
H1874 H 0.74091 0.44098 0.50135 0.0
H1875 H 0.73856 0.45959 0.45996 0.0
H1876 H 0.75237 0.53495 0.45192 0.0
H1877 H 0.76119 0.53802 0.49656 0.0
C1878 C 0.75992 0.50203 0.52976 0.0
C1879 C 0.75774 0.48177 0.54504 0.0
C1880 C 0.75486 0.50052 0.50417 0.0
C1881 C 0.75066 0.45991 0.53454 0.0
C1882 C 0.74611 0.45812 0.50904 0.0
C1883 C 0.74357 0.47664 0.46805 0.0
C1884 C 0.74502 0.49699 0.45281 0.0
C1885 C 0.74818 0.47829 0.49368 0.0
C1886 C 0.75114 0.51909 0.46342 0.0
C1887 C 0.75623 0.52082 0.48887 0.0
H1888 H 0.9874 0.78301 0.0338 0.0
H1889 H 0.03775 0.7266 0.05017 0.0
H1890 H 0.03916 0.71581 0.00625 0.0
H1891 H 0.02679 0.72275 0.96301 0.0
H1892 H 0.97809 0.78025 0.94613 0.0
H1893 H 0.97589 0.79069 0.99036 0.0
C1894 C 0.99892 0.76853 0.02779 0.0
C1895 C 0.01232 0.75559 0.04545 0.0
C1896 C 8e-05 0.7627 0.00236 0.0
C1897 C 0.02683 0.73661 0.03719 0.0
C1898 C 0.02783 0.73053 0.012 0.0
C1899 C 0.01558 0.73747 0.96907 0.0
C1900 C 0.00254 0.75066 0.9514 0.0
C1901 C 0.01454 0.74344 0.99443 0.0
C1902 C 0.9884 0.76994 0.9594 0.0
C1903 C 0.98707 0.77583 0.98467 0.0
H1904 H 0.77521 0.00395 0.5485 0.0
H1905 H 0.69862 0.00783 0.53953 0.0
H1906 H 0.70321 0.00796 0.49437 0.0
H1907 H 0.72889 0.00749 0.45735 0.0
H1908 H 0.80554 0.00552 0.46623 0.0
H1909 H 0.80096 0.00412 0.51141 0.0
C1910 C 0.75952 0.00503 0.5367 0.0
C1911 C 0.73661 0.0058 0.54751 0.0
C1912 C 0.76227 0.0054 0.51067 0.0
C1913 C 0.71647 0.00681 0.53181 0.0
C1914 C 0.71907 0.00707 0.50594 0.0
C1915 C 0.74461 0.00699 0.46915 0.0
C1916 C 0.76752 0.00661 0.45832 0.0
C1917 C 0.74188 0.00646 0.49516 0.0
C1918 C 0.78767 0.0055 0.47397 0.0
C1919 C 0.78508 0.00485 0.49986 0.0
loop_
_geom_bond_atom_site_label_1
_geom_bond_atom_site_label_2
_geom_bond_distance
_geom_bond_site_symmetry_2
_ccdc_geom_bond_type
Li0 N17 1.990 . S
Li0 O60 1.956 . S
Li0 O61 1.970 . S
Li0 O62 1.961 . S
Li1 N25 1.990 . S
Li1 O60 1.970 . S
Li1 O61 1.956 . S
Li1 O63 1.961 . S
Li2 N47 1.990 . S
Li2 O60 1.961 . S
Li2 O62 1.956 . S
Li2 O63 1.970 . S
Li3 N53 1.990 . S
Li3 O61 1.961 . S
Li3 O62 1.970 . S
Li3 O63 1.956 . S
C4 C6 1.348 . S
C4 C7 1.356 . S
C4 O60 1.325 . S
N5 C8 1.314 . S
N5 C9 1.279 . S
C6 C4 1.348 . S
C6 C8 1.353 . S
C6 H64 0.929 . S
C7 C4 1.356 . S
C7 C9 1.358 . S
C7 H65 0.930 . S
C8 N5 1.314 . S
C8 C6 1.353 . S
C8 H66 0.930 . S
C9 N5 1.279 . S
C9 C7 1.358 . S
C9 H67 0.930 . S
C10 C13 1.348 . S
C10 C14 1.356 . S
C10 O61 1.325 . S
C11 N12 1.279 . S
C11 C14 1.358 . S
C11 H68 0.930 . S
N12 C11 1.279 . S
N12 C15 1.314 . S
C13 C10 1.348 . S
C13 C15 1.353 . S
C13 H69 0.929 . S
C14 C10 1.356 . S
C14 C11 1.358 . S
C14 H70 0.930 . S
C15 N12 1.314 . S
C15 C13 1.353 . S
C15 H71 0.930 . S
C16 N17 1.314 . S
C16 C21 1.353 . S
C16 H22 0.930 . S
N17 Li0 1.990 . S
N17 C16 1.314 . S
N17 C19 1.279 . S
C18 C19 1.358 . S
C18 C20 1.356 . S
C18 H72 0.930 . S
C19 N17 1.279 . S
C19 C18 1.358 . S
C19 H23 0.930 . S
C20 C18 1.356 . S
C20 C21 1.348 . S
C21 C16 1.353 . S
C21 C20 1.348 . S
C21 H73 0.929 . S
H22 C16 0.930 . S
H23 C19 0.930 . S
C24 N25 1.314 . S
C24 C26 1.353 . S
C24 H30 0.930 . S
N25 Li1 1.990 . S
N25 C24 1.314 . S
N25 C28 1.279 . S
C26 C24 1.353 . S
C26 C29 1.348 . S
C26 H74 0.929 . S
C27 C28 1.358 . S
C27 C29 1.356 . S
C27 H75 0.930 . S
C28 N25 1.279 . S
C28 C27 1.358 . S
C28 H31 0.930 . S
C29 C26 1.348 . S
C29 C27 1.356 . S
H30 C24 0.930 . S
H31 C28 0.930 . S
C32 C34 1.348 . S
C32 C35 1.356 . S
C32 O62 1.325 . S
N33 C36 1.314 . S
N33 C37 1.279 . S
C34 C32 1.348 . S
C34 C36 1.353 . S
C34 H76 0.929 . S
C35 C32 1.356 . S
C35 C37 1.358 . S
C35 H77 0.930 . S
C36 N33 1.314 . S
C36 C34 1.353 . S
C36 H78 0.930 . S
C37 N33 1.279 . S
C37 C35 1.358 . S
C37 H79 0.930 . S
C38 C39 1.348 . S
C38 C40 1.356 . S
C38 O63 1.325 . S
C39 C38 1.348 . S
C39 C41 1.353 . S
C39 H80 0.929 . S
C40 C38 1.356 . S
C40 C42 1.358 . S
C40 H81 0.930 . S
C41 C39 1.353 . S
C41 N43 1.314 . S
C41 H82 0.930 . S
C42 C40 1.358 . S
C42 N43 1.279 . S
C42 H83 0.930 . S
N43 C41 1.314 . S
N43 C42 1.279 . S
C44 C46 1.353 . S
C44 N47 1.314 . S
C44 H50 0.930 . S
C45 N47 1.279 . S
C45 C48 1.358 . S
C45 H51 0.930 . S
C46 C44 1.353 . S
C46 C49 1.348 . S
C46 H84 0.929 . S
N47 Li2 1.990 . S
N47 C44 1.314 . S
N47 C45 1.279 . S
C48 C45 1.358 . S
C48 C49 1.356 . S
C48 H85 0.930 . S
C49 C46 1.348 . S
C49 C48 1.356 . S
H50 C44 0.930 . S
H51 C45 0.930 . S
C52 N53 1.314 . S
C52 C54 1.353 . S
C52 H58 0.930 . S
N53 Li3 1.990 . S
N53 C52 1.314 . S
N53 C56 1.279 . S
C54 C52 1.353 . S
C54 C57 1.348 . S
C54 H86 0.929 . S
C55 C56 1.358 . S
C55 C57 1.356 . S
C55 H87 0.930 . S
C56 N53 1.279 . S
C56 C55 1.358 . S
C56 H59 0.930 . S
C57 C54 1.348 . S
C57 C55 1.356 . S
H58 C52 0.930 . S
H59 C56 0.930 . S
O60 Li0 1.956 . S
O60 Li1 1.970 . S
O60 Li2 1.961 . S
O60 C4 1.325 . S
O61 Li0 1.970 . S
O61 Li1 1.956 . S
O61 Li3 1.961 . S
O61 C10 1.325 . S
O62 Li0 1.961 . S
O62 Li2 1.956 . S
O62 Li3 1.970 . S
O62 C32 1.325 . S
O63 Li1 1.961 . S
O63 Li2 1.970 . S
O63 Li3 1.956 . S
O63 C38 1.325 . S
H64 C6 0.929 . S
H65 C7 0.930 . S
H66 C8 0.930 . S
H67 C9 0.930 . S
H68 C11 0.930 . S
H69 C13 0.929 . S
H70 C14 0.930 . S
H71 C15 0.930 . S
H72 C18 0.930 . S
H73 C21 0.929 . S
H74 C26 0.929 . S
H75 C27 0.930 . S
H76 C34 0.929 . S
H77 C35 0.930 . S
H78 C36 0.930 . S
H79 C37 0.930 . S
H80 C39 0.929 . S
H81 C40 0.930 . S
H82 C41 0.930 . S
H83 C42 0.930 . S
H84 C46 0.929 . S
H85 C48 0.930 . S
H86 C54 0.929 . S
H87 C55 0.930 . S
Li88 N105 1.990 . S
Li88 O148 1.956 . S
Li88 O149 1.970 . S
Li88 O150 1.961 . S
Li89 N113 1.990 . S
Li89 O148 1.970 . S
Li89 O149 1.956 . S
Li89 O151 1.961 . S
Li90 N135 1.990 . S
Li90 O148 1.961 . S
Li90 O150 1.956 . S
Li90 O151 1.970 . S
Li91 N141 1.990 . S
Li91 O149 1.961 . S
Li91 O150 1.970 . S
Li91 O151 1.956 . S
C92 C94 1.348 . S
C92 C95 1.356 . S
C92 O148 1.325 . S
N93 C96 1.314 . S
N93 C97 1.279 . S
C94 C92 1.348 . S
C94 C96 1.353 . S
C94 H152 0.929 . S
C95 C92 1.356 . S
C95 C97 1.358 . S
C95 H153 0.930 . S
C96 N93 1.314 . S
C96 C94 1.353 . S
C96 H154 0.930 . S
C97 N93 1.279 . S
C97 C95 1.358 . S
C97 H155 0.930 . S
C98 C101 1.348 . S
C98 C102 1.356 . S
C98 O149 1.325 . S
C99 N100 1.279 . S
C99 C102 1.358 . S
C99 H156 0.930 . S
N100 C99 1.279 . S
N100 C103 1.314 . S
C101 C98 1.348 . S
C101 C103 1.353 . S
C101 H157 0.929 . S
C102 C98 1.356 . S
C102 C99 1.358 . S
C102 H158 0.930 . S
C103 N100 1.314 . S
C103 C101 1.353 . S
C103 H159 0.930 . S
C104 N105 1.314 . S
C104 C109 1.353 . S
C104 H110 0.930 . S
N105 Li88 1.990 . S
N105 C104 1.314 . S
N105 C107 1.279 . S
C106 C107 1.358 . S
C106 C108 1.356 . S
C106 H160 0.930 . S
C107 N105 1.279 . S
C107 C106 1.358 . S
C107 H111 0.930 . S
C108 C106 1.356 . S
C108 C109 1.348 . S
C109 C104 1.353 . S
C109 C108 1.348 . S
C109 H161 0.929 . S
H110 C104 0.930 . S
H111 C107 0.930 . S
C112 N113 1.314 . S
C112 C114 1.353 . S
C112 H118 0.930 . S
N113 Li89 1.990 . S
N113 C112 1.314 . S
N113 C116 1.279 . S
C114 C112 1.353 . S
C114 C117 1.348 . S
C114 H162 0.929 . S
C115 C116 1.358 . S
C115 C117 1.356 . S
C115 H163 0.930 . S
C116 N113 1.279 . S
C116 C115 1.358 . S
C116 H119 0.930 . S
C117 C114 1.348 . S
C117 C115 1.356 . S
H118 C112 0.930 . S
H119 C116 0.930 . S
C120 C122 1.348 . S
C120 C123 1.356 . S
C120 O150 1.325 . S
N121 C124 1.314 . S
N121 C125 1.279 . S
C122 C120 1.348 . S
C122 C124 1.353 . S
C122 H164 0.929 . S
C123 C120 1.356 . S
C123 C125 1.358 . S
C123 H165 0.930 . S
C124 N121 1.314 . S
C124 C122 1.353 . S
C124 H166 0.930 . S
C125 N121 1.279 . S
C125 C123 1.358 . S
C125 H167 0.930 . S
C126 C127 1.348 . S
C126 C128 1.356 . S
C126 O151 1.325 . S
C127 C126 1.348 . S
C127 C129 1.353 . S
C127 H168 0.929 . S
C128 C126 1.356 . S
C128 C130 1.358 . S
C128 H169 0.930 . S
C129 C127 1.353 . S
C129 N131 1.314 . S
C129 H170 0.930 . S
C130 C128 1.358 . S
C130 N131 1.279 . S
C130 H171 0.930 . S
N131 C129 1.314 . S
N131 C130 1.279 . S
C132 C134 1.353 . S
C132 N135 1.314 . S
C132 H138 0.930 . S
C133 N135 1.279 . S
C133 C136 1.358 . S
C133 H139 0.930 . S
C134 C132 1.353 . S
C134 C137 1.348 . S
C134 H172 0.929 . S
N135 Li90 1.990 . S
N135 C132 1.314 . S
N135 C133 1.279 . S
C136 C133 1.358 . S
C136 C137 1.356 . S
C136 H173 0.930 . S
C137 C134 1.348 . S
C137 C136 1.356 . S
H138 C132 0.930 . S
H139 C133 0.930 . S
C140 N141 1.314 . S
C140 C142 1.353 . S
C140 H146 0.930 . S
N141 Li91 1.990 . S
N141 C140 1.314 . S
N141 C144 1.279 . S
C142 C140 1.353 . S
C142 C145 1.348 . S
C142 H174 0.929 . S
C143 C144 1.358 . S
C143 C145 1.356 . S
C143 H175 0.930 . S
C144 N141 1.279 . S
C144 C143 1.358 . S
C144 H147 0.930 . S
C145 C142 1.348 . S
C145 C143 1.356 . S
H146 C140 0.930 . S
H147 C144 0.930 . S
O148 Li88 1.956 . S
O148 Li89 1.970 . S
O148 Li90 1.961 . S
O148 C92 1.325 . S
O149 Li88 1.970 . S
O149 Li89 1.956 . S
O149 Li91 1.961 . S
O149 C98 1.325 . S
O150 Li88 1.961 . S
O150 Li90 1.956 . S
O150 Li91 1.970 . S
O150 C120 1.325 . S
O151 Li89 1.961 . S
O151 Li90 1.970 . S
O151 Li91 1.956 . S
O151 C126 1.325 . S
H152 C94 0.929 . S
H153 C95 0.930 . S
H154 C96 0.930 . S
H155 C97 0.930 . S
H156 C99 0.930 . S
H157 C101 0.929 . S
H158 C102 0.930 . S
H159 C103 0.930 . S
H160 C106 0.930 . S
H161 C109 0.929 . S
H162 C114 0.929 . S
H163 C115 0.930 . S
H164 C122 0.929 . S
H165 C123 0.930 . S
H166 C124 0.930 . S
H167 C125 0.930 . S
H168 C127 0.929 . S
H169 C128 0.930 . S
H170 C129 0.930 . S
H171 C130 0.930 . S
H172 C134 0.929 . S
H173 C136 0.930 . S
H174 C142 0.929 . S
H175 C143 0.930 . S
Li176 N193 1.990 . S
Li176 O236 1.956 . S
Li176 O237 1.970 . S
Li176 O238 1.961 . S
Li177 N201 1.990 . S
Li177 O236 1.970 1_455 S
Li177 O237 1.956 1_455 S
Li177 O239 1.961 . S
Li178 N223 1.990 . S
Li178 O236 1.961 . S
Li178 O238 1.956 . S
Li178 O239 1.970 1_655 S
Li179 N229 1.990 . S
Li179 O237 1.961 . S
Li179 O238 1.970 . S
Li179 O239 1.956 1_655 S
C180 C182 1.348 1_655 S
C180 C183 1.356 . S
C180 O236 1.325 . S
N181 C184 1.314 . S
N181 C185 1.279 1_455 S
C182 C180 1.348 1_455 S
C182 C184 1.353 . S
C182 H240 0.929 . S
C183 C180 1.356 . S
C183 C185 1.358 . S
C183 H241 0.930 . S
C184 N181 1.314 . S
C184 C182 1.353 . S
C184 H242 0.930 . S
C185 N181 1.279 1_655 S
C185 C183 1.358 . S
C185 H243 0.930 . S
C186 C189 1.348 . S
C186 C190 1.356 . S
C186 O237 1.325 . S
C187 N188 1.279 . S
C187 C190 1.358 . S
C187 H244 0.930 . S
N188 C187 1.279 . S
N188 C191 1.314 . S
C189 C186 1.348 . S
C189 C191 1.353 . S
C189 H245 0.929 . S
C190 C186 1.356 . S
C190 C187 1.358 . S
C190 H246 0.912 1_655 S
C191 N188 1.314 . S
C191 C189 1.353 . S
C191 H247 0.930 . S
C192 N193 1.314 . S
C192 C197 1.353 . S
C192 H198 0.930 . S
N193 Li176 1.990 . S
N193 C192 1.314 . S
N193 C195 1.279 . S
C194 C195 1.358 . S
C194 C196 1.356 . S
C194 H248 0.930 . S
C195 N193 1.279 . S
C195 C194 1.358 . S
C195 H199 0.930 . S
C196 C194 1.356 . S
C196 C197 1.348 . S
C197 C192 1.353 . S
C197 C196 1.348 . S
C197 H249 0.929 . S
H198 C192 0.930 . S
H199 C195 0.930 . S
C200 N201 1.314 . S
C200 C202 1.353 . S
C200 H206 0.930 . S
N201 Li177 1.990 . S
N201 C200 1.314 . S
N201 C204 1.279 . S
C202 C200 1.353 . S
C202 C205 1.348 . S
C202 H250 0.929 . S
C203 C204 1.358 . S
C203 C205 1.356 . S
C203 H251 0.930 . S
C204 N201 1.279 . S
C204 C203 1.358 . S
C204 H207 0.930 . S
C205 C202 1.348 . S
C205 C203 1.356 . S
H206 C200 0.930 . S
H207 C204 0.930 . S
C208 C210 1.348 . S
C208 C211 1.356 . S
C208 O238 1.325 . S
N209 C212 1.314 . S
N209 C213 1.279 . S
C210 C208 1.348 . S
C210 C212 1.353 . S
C210 H252 0.929 . S
C211 C208 1.356 . S
C211 C213 1.358 . S
C211 H253 0.930 . S
C212 N209 1.314 . S
C212 C210 1.353 . S
C212 H254 0.930 . S
C213 N209 1.279 . S
C213 C211 1.358 . S
C213 H255 0.930 . S
C214 C215 1.348 . S
C214 C216 1.356 . S
C214 O239 1.325 . S
C215 C214 1.348 . S
C215 C217 1.353 . S
C215 H256 0.929 . S
C216 C214 1.356 . S
C216 C218 1.358 . S
C216 H257 0.930 . S
C217 C215 1.353 . S
C217 N219 1.314 . S
C217 H258 0.930 . S
C218 C216 1.358 . S
C218 N219 1.279 . S
C218 H259 0.930 . S
N219 C217 1.314 . S
N219 C218 1.279 . S
C220 C222 1.353 . S
C220 N223 1.314 1_455 S
C220 H226 0.930 . S
C221 N223 1.279 . S
C221 C224 1.358 . S
C221 H227 0.930 . S
C222 C220 1.353 . S
C222 C225 1.348 1_455 S
C222 H260 0.929 . S
N223 Li178 1.990 . S
N223 C220 1.314 1_655 S
N223 C221 1.279 . S
C224 C221 1.358 . S
C224 C225 1.356 . S
C224 H261 0.930 . S
C225 C222 1.348 1_655 S
C225 C224 1.356 . S
H226 C220 0.930 . S
H227 C221 0.930 . S
C228 N229 1.314 . S
C228 C230 1.353 . S
C228 H234 0.930 . S
N229 Li179 1.990 . S
N229 C228 1.314 . S
N229 C232 1.279 . S
C230 C228 1.353 . S
C230 C233 1.348 . S
C230 H262 0.929 . S
C231 C232 1.358 . S
C231 C233 1.356 . S
C231 H263 0.930 . S
C232 N229 1.279 . S
C232 C231 1.358 . S
C232 H235 0.930 . S
C233 C230 1.348 . S
C233 C231 1.356 . S
H234 C228 0.930 . S
H235 C232 0.930 . S
O236 Li176 1.956 . S
O236 Li177 1.970 1_655 S
O236 Li178 1.961 . S
O236 C180 1.325 . S
O237 Li176 1.970 . S
O237 Li177 1.956 1_655 S
O237 Li179 1.961 . S
O237 C186 1.325 . S
O238 Li176 1.961 . S
O238 Li178 1.956 . S
O238 Li179 1.970 . S
O238 C208 1.325 . S
O239 Li177 1.961 . S
O239 Li178 1.970 1_455 S
O239 Li179 1.956 1_455 S
O239 C214 1.325 . S
H240 C182 0.929 . S
H241 C183 0.930 . S
H242 C184 0.930 . S
H243 C185 0.930 . S
H244 C187 0.930 . S
H245 C189 0.929 . S
H246 C190 0.912 1_455 S
H247 C191 0.930 . S
H248 C194 0.930 . S
H249 C197 0.929 . S
H250 C202 0.929 . S
H251 C203 0.930 . S
H252 C210 0.929 . S
H253 C211 0.930 . S
H254 C212 0.930 . S
H255 C213 0.930 . S
H256 C215 0.929 . S
H257 C216 0.930 . S
H258 C217 0.930 . S
H259 C218 0.930 . S
H260 C222 0.929 . S
H261 C224 0.930 . S
H262 C230 0.929 . S
H263 C231 0.930 . S
Li264 N281 1.990 . S
Li264 O324 1.956 . S
Li264 O325 1.970 . S
Li264 O326 1.961 . S
Li265 N289 1.990 . S
Li265 O324 1.970 1_545 S
Li265 O325 1.956 1_545 S
Li265 O327 1.961 . S
Li266 N311 1.990 . S
Li266 O324 1.961 . S
Li266 O326 1.956 . S
Li266 O327 1.970 1_565 S
Li267 N317 1.990 . S
Li267 O325 1.961 . S
Li267 O326 1.970 . S
Li267 O327 1.956 1_565 S
C268 C270 1.348 1_565 S
C268 C271 1.356 . S
C268 O324 1.325 . S
N269 C272 1.314 . S
N269 C273 1.279 1_545 S
C270 C268 1.348 1_545 S
C270 C272 1.353 . S
C270 H328 0.929 . S
C271 C268 1.356 . S
C271 C273 1.358 . S
C271 H329 0.930 . S
C272 N269 1.314 . S
C272 C270 1.353 . S
C272 H330 0.930 . S
C273 N269 1.279 1_565 S
C273 C271 1.358 . S
C273 H331 0.930 . S
C274 C277 1.348 . S
C274 C278 1.356 . S
C274 O325 1.325 . S
C275 N276 1.279 . S
C275 C278 1.358 . S
C275 H332 0.930 . S
N276 C275 1.279 . S
N276 C279 1.314 . S
C277 C274 1.348 . S
C277 C279 1.353 . S
C277 H333 0.929 . S
C278 C274 1.356 . S
C278 C275 1.358 . S
C278 H334 0.912 1_565 S
C279 N276 1.314 . S
C279 C277 1.353 . S
C279 H335 0.930 . S
C280 N281 1.314 . S
C280 C285 1.353 . S
C280 H286 0.930 . S
N281 Li264 1.990 . S
N281 C280 1.314 . S
N281 C283 1.279 . S
C282 C283 1.358 . S
C282 C284 1.356 . S
C282 H336 0.930 . S
C283 N281 1.279 . S
C283 C282 1.358 . S
C283 H287 0.930 . S
C284 C282 1.356 . S
C284 C285 1.348 . S
C285 C280 1.353 . S
C285 C284 1.348 . S
C285 H337 0.929 . S
H286 C280 0.930 . S
H287 C283 0.930 . S
C288 N289 1.314 . S
C288 C290 1.353 . S
C288 H294 0.930 . S
N289 Li265 1.990 . S
N289 C288 1.314 . S
N289 C292 1.279 . S
C290 C288 1.353 . S
C290 C293 1.348 . S
C290 H338 0.929 . S
C291 C292 1.358 . S
C291 C293 1.356 . S
C291 H339 0.930 . S
C292 N289 1.279 . S
C292 C291 1.358 . S
C292 H295 0.930 . S
C293 C290 1.348 . S
C293 C291 1.356 . S
H294 C288 0.930 . S
H295 C292 0.930 . S
C296 C298 1.348 . S
C296 C299 1.356 . S
C296 O326 1.325 . S
N297 C300 1.314 . S
N297 C301 1.279 . S
C298 C296 1.348 . S
C298 C300 1.353 . S
C298 H340 0.929 . S
C299 C296 1.356 . S
C299 C301 1.358 . S
C299 H341 0.930 . S
C300 N297 1.314 . S
C300 C298 1.353 . S
C300 H342 0.930 . S
C301 N297 1.279 . S
C301 C299 1.358 . S
C301 H343 0.930 . S
C302 C303 1.348 . S
C302 C304 1.356 . S
C302 O327 1.325 . S
C303 C302 1.348 . S
C303 C305 1.353 . S
C303 H344 0.929 . S
C304 C302 1.356 . S
C304 C306 1.358 . S
C304 H345 0.930 . S
C305 C303 1.353 . S
C305 N307 1.314 . S
C305 H346 0.930 . S
C306 C304 1.358 . S
C306 N307 1.279 . S
C306 H347 0.930 . S
N307 C305 1.314 . S
N307 C306 1.279 . S
C308 C310 1.353 . S
C308 N311 1.314 1_545 S
C308 H314 0.930 . S
C309 N311 1.279 . S
C309 C312 1.358 . S
C309 H315 0.930 . S
C310 C308 1.353 . S
C310 C313 1.348 1_545 S
C310 H348 0.929 . S
N311 Li266 1.990 . S
N311 C308 1.314 1_565 S
N311 C309 1.279 . S
C312 C309 1.358 . S
C312 C313 1.356 . S
C312 H349 0.930 . S
C313 C310 1.348 1_565 S
C313 C312 1.356 . S
H314 C308 0.930 . S
H315 C309 0.930 . S
C316 N317 1.314 . S
C316 C318 1.353 . S
C316 H322 0.930 . S
N317 Li267 1.990 . S
N317 C316 1.314 . S
N317 C320 1.279 . S
C318 C316 1.353 . S
C318 C321 1.348 . S
C318 H350 0.929 . S
C319 C320 1.358 . S
C319 C321 1.356 . S
C319 H351 0.930 . S
C320 N317 1.279 . S
C320 C319 1.358 . S
C320 H323 0.930 . S
C321 C318 1.348 . S
C321 C319 1.356 . S
H322 C316 0.930 . S
H323 C320 0.930 . S
O324 Li264 1.956 . S
O324 Li265 1.970 1_565 S
O324 Li266 1.961 . S
O324 C268 1.325 . S
O325 Li264 1.970 . S
O325 Li265 1.956 1_565 S
O325 Li267 1.961 . S
O325 C274 1.325 . S
O326 Li264 1.961 . S
O326 Li266 1.956 . S
O326 Li267 1.970 . S
O326 C296 1.325 . S
O327 Li265 1.961 . S
O327 Li266 1.970 1_545 S
O327 Li267 1.956 1_545 S
O327 C302 1.325 . S
H328 C270 0.929 . S
H329 C271 0.930 . S
H330 C272 0.930 . S
H331 C273 0.930 . S
H332 C275 0.930 . S
H333 C277 0.929 . S
H334 C278 0.912 1_545 S
H335 C279 0.930 . S
H336 C282 0.930 . S
H337 C285 0.929 . S
H338 C290 0.929 . S
H339 C291 0.930 . S
H340 C298 0.929 . S
H341 C299 0.930 . S
H342 C300 0.930 . S
H343 C301 0.930 . S
H344 C303 0.929 . S
H345 C304 0.930 . S
H346 C305 0.930 . S
H347 C306 0.930 . S
H348 C310 0.929 . S
H349 C312 0.930 . S
H350 C318 0.929 . S
H351 C319 0.930 . S
Li352 N369 1.990 . S
Li352 O412 1.956 . S
Li352 O413 1.970 . S
Li352 O414 1.961 . S
Li353 N377 1.990 . S
Li353 O412 1.970 . S
Li353 O413 1.956 . S
Li353 O415 1.961 . S
Li354 N399 1.990 . S
Li354 O412 1.961 . S
Li354 O414 1.956 . S
Li354 O415 1.970 . S
Li355 N405 1.990 . S
Li355 O413 1.961 . S
Li355 O414 1.970 . S
Li355 O415 1.956 . S
C356 C358 1.348 . S
C356 C359 1.356 . S
C356 O412 1.325 . S
N357 C360 1.314 . S
N357 C361 1.279 . S
C358 C356 1.348 . S
C358 C360 1.353 . S
C358 H416 0.929 . S
C359 C356 1.356 . S
C359 C361 1.358 . S
C359 H417 0.930 . S
C360 N357 1.314 . S
C360 C358 1.353 . S
C360 H418 0.930 . S
C361 N357 1.279 . S
C361 C359 1.358 . S
C361 H419 0.930 . S
C362 C365 1.348 . S
C362 C366 1.356 . S
C362 O413 1.325 . S
C363 N364 1.279 . S
C363 C366 1.358 . S
C363 H420 0.930 . S
N364 C363 1.279 . S
N364 C367 1.314 . S
C365 C362 1.348 . S
C365 C367 1.353 . S
C365 H421 0.929 . S
C366 C362 1.356 . S
C366 C363 1.358 . S
C366 H422 0.930 . S
C367 N364 1.314 . S
C367 C365 1.353 . S
C367 H423 0.930 . S
C368 N369 1.314 . S
C368 C373 1.353 . S
C368 H374 0.930 . S
N369 Li352 1.990 . S
N369 C368 1.314 . S
N369 C371 1.279 . S
C370 C371 1.358 . S
C370 C372 1.356 . S
C370 H424 0.930 . S
C371 N369 1.279 . S
C371 C370 1.358 . S
C371 H375 0.930 . S
C372 C370 1.356 . S
C372 C373 1.348 . S
C373 C368 1.353 . S
C373 C372 1.348 . S
C373 H425 0.929 . S
H374 C368 0.930 . S
H375 C371 0.930 . S
C376 N377 1.314 . S
C376 C378 1.353 . S
C376 H382 0.930 . S
N377 Li353 1.990 . S
N377 C376 1.314 . S
N377 C380 1.279 . S
C378 C376 1.353 . S
C378 C381 1.348 . S
C378 H426 0.929 . S
C379 C380 1.358 . S
C379 C381 1.356 . S
C379 H427 0.930 . S
C380 N377 1.279 . S
C380 C379 1.358 . S
C380 H383 0.930 . S
C381 C378 1.348 . S
C381 C379 1.356 . S
H382 C376 0.930 . S
H383 C380 0.930 . S
C384 C386 1.348 . S
C384 C387 1.356 . S
C384 O414 1.325 . S
N385 C388 1.314 . S
N385 C389 1.279 . S
C386 C384 1.348 . S
C386 C388 1.353 . S
C386 H428 0.929 . S
C387 C384 1.356 . S
C387 C389 1.358 . S
C387 H429 0.930 . S
C388 N385 1.314 . S
C388 C386 1.353 . S
C388 H430 0.930 . S
C389 N385 1.279 . S
C389 C387 1.358 . S
C389 H431 0.930 . S
C390 C391 1.348 . S
C390 C392 1.356 . S
C390 O415 1.325 . S
C391 C390 1.348 . S
C391 C393 1.353 . S
C391 H432 0.929 . S
C392 C390 1.356 . S
C392 C394 1.358 . S
C392 H433 0.930 . S
C393 C391 1.353 . S
C393 N395 1.314 . S
C393 H434 0.930 . S
C394 C392 1.358 . S
C394 N395 1.279 . S
C394 H435 0.930 . S
N395 C393 1.314 . S
N395 C394 1.279 . S
C396 C398 1.353 . S
C396 N399 1.314 . S
C396 H402 0.930 . S
C397 N399 1.279 . S
C397 C400 1.358 . S
C397 H403 0.930 . S
C398 C396 1.353 . S
C398 C401 1.348 . S
C398 H436 0.929 . S
N399 Li354 1.990 . S
N399 C396 1.314 . S
N399 C397 1.279 . S
C400 C397 1.358 . S
C400 C401 1.356 . S
C400 H437 0.930 . S
C401 C398 1.348 . S
C401 C400 1.356 . S
H402 C396 0.930 . S
H403 C397 0.930 . S
C404 N405 1.314 . S
C404 C406 1.353 . S
C404 H410 0.930 . S
N405 Li355 1.990 . S
N405 C404 1.314 . S
N405 C408 1.279 . S
C406 C404 1.353 . S
C406 C409 1.348 . S
C406 H438 0.929 . S
C407 C408 1.358 . S
C407 C409 1.356 . S
C407 H439 0.930 . S
C408 N405 1.279 . S
C408 C407 1.358 . S
C408 H411 0.930 . S
C409 C406 1.348 . S
C409 C407 1.356 . S
H410 C404 0.930 . S
H411 C408 0.930 . S
O412 Li352 1.956 . S
O412 Li353 1.970 . S
O412 Li354 1.961 . S
O412 C356 1.325 . S
O413 Li352 1.970 . S
O413 Li353 1.956 . S
O413 Li355 1.961 . S
O413 C362 1.325 . S
O414 Li352 1.961 . S
O414 Li354 1.956 . S
O414 Li355 1.970 . S
O414 C384 1.325 . S
O415 Li353 1.961 . S
O415 Li354 1.970 . S
O415 Li355 1.956 . S
O415 C390 1.325 . S
H416 C358 0.929 . S
H417 C359 0.930 . S
H418 C360 0.930 . S
H419 C361 0.930 . S
H420 C363 0.930 . S
H421 C365 0.929 . S
H422 C366 0.930 . S
H423 C367 0.930 . S
H424 C370 0.930 . S
H425 C373 0.929 . S
H426 C378 0.929 . S
H427 C379 0.930 . S
H428 C386 0.929 . S
H429 C387 0.930 . S
H430 C388 0.930 . S
H431 C389 0.930 . S
H432 C391 0.929 . S
H433 C392 0.930 . S
H434 C393 0.930 . S
H435 C394 0.930 . S
H436 C398 0.929 . S
H437 C400 0.930 . S
H438 C406 0.929 . S
H439 C407 0.930 . S
Li440 N457 1.990 . S
Li440 O500 1.956 . S
Li440 O501 1.970 . S
Li440 O502 1.961 . S
Li441 N465 1.990 . S
Li441 O500 1.970 . S
Li441 O501 1.956 . S
Li441 O503 1.961 . S
Li442 N487 1.990 . S
Li442 O500 1.961 . S
Li442 O502 1.956 . S
Li442 O503 1.970 . S
Li443 N493 1.990 . S
Li443 O501 1.961 . S
Li443 O502 1.970 . S
Li443 O503 1.956 . S
C444 C446 1.348 . S
C444 C447 1.356 . S
C444 O500 1.325 . S
N445 C448 1.314 . S
N445 C449 1.279 . S
C446 C444 1.348 . S
C446 C448 1.353 . S
C446 H504 0.929 . S
C447 C444 1.356 . S
C447 C449 1.358 . S
C447 H505 0.930 . S
C448 N445 1.314 . S
C448 C446 1.353 . S
C448 H506 0.930 . S
C449 N445 1.279 . S
C449 C447 1.358 . S
C449 H507 0.930 . S
C450 C453 1.348 . S
C450 C454 1.356 . S
C450 O501 1.325 . S
C451 N452 1.279 . S
C451 C454 1.358 . S
C451 H508 0.930 . S
N452 C451 1.279 . S
N452 C455 1.314 . S
C453 C450 1.348 . S
C453 C455 1.353 . S
C453 H509 0.929 . S
C454 C450 1.356 . S
C454 C451 1.358 . S
C454 H510 0.930 . S
C455 N452 1.314 . S
C455 C453 1.353 . S
C455 H511 0.930 . S
C456 N457 1.314 . S
C456 C461 1.353 . S
C456 H462 0.930 . S
N457 Li440 1.990 . S
N457 C456 1.314 . S
N457 C459 1.279 . S
C458 C459 1.358 . S
C458 C460 1.356 . S
C458 H512 0.930 . S
C459 N457 1.279 . S
C459 C458 1.358 . S
C459 H463 0.930 . S
C460 C458 1.356 . S
C460 C461 1.348 . S
C461 C456 1.353 . S
C461 C460 1.348 . S
C461 H513 0.929 . S
H462 C456 0.930 . S
H463 C459 0.930 . S
C464 N465 1.314 . S
C464 C466 1.353 . S
C464 H470 0.930 . S
N465 Li441 1.990 . S
N465 C464 1.314 . S
N465 C468 1.279 . S
C466 C464 1.353 . S
C466 C469 1.348 . S
C466 H514 0.929 . S
C467 C468 1.358 . S
C467 C469 1.356 . S
C467 H515 0.930 . S
C468 N465 1.279 . S
C468 C467 1.358 . S
C468 H471 0.930 . S
C469 C466 1.348 . S
C469 C467 1.356 . S
H470 C464 0.930 . S
H471 C468 0.930 . S
C472 C474 1.348 . S
C472 C475 1.356 . S
C472 O502 1.325 . S
N473 C476 1.314 . S
N473 C477 1.279 . S
C474 C472 1.348 . S
C474 C476 1.353 . S
C474 H516 0.929 . S
C475 C472 1.356 . S
C475 C477 1.358 . S
C475 H517 0.930 . S
C476 N473 1.314 . S
C476 C474 1.353 . S
C476 H518 0.930 . S
C477 N473 1.279 . S
C477 C475 1.358 . S
C477 H519 0.930 . S
C478 C479 1.348 . S
C478 C480 1.356 . S
C478 O503 1.325 . S
C479 C478 1.348 . S
C479 C481 1.353 . S
C479 H520 0.929 . S
C480 C478 1.356 . S
C480 C482 1.358 . S
C480 H521 0.930 . S
C481 C479 1.353 . S
C481 N483 1.314 . S
C481 H522 0.930 . S
C482 C480 1.358 . S
C482 N483 1.279 . S
C482 H523 0.930 . S
N483 C481 1.314 . S
N483 C482 1.279 . S
C484 C486 1.353 . S
C484 N487 1.314 . S
C484 H490 0.930 . S
C485 N487 1.279 . S
C485 C488 1.358 . S
C485 H491 0.930 . S
C486 C484 1.353 . S
C486 C489 1.348 . S
C486 H524 0.929 . S
N487 Li442 1.990 . S
N487 C484 1.314 . S
N487 C485 1.279 . S
C488 C485 1.358 . S
C488 C489 1.356 . S
C488 H525 0.930 . S
C489 C486 1.348 . S
C489 C488 1.356 . S
H490 C484 0.930 . S
H491 C485 0.930 . S
C492 N493 1.314 . S
C492 C494 1.353 . S
C492 H498 0.930 . S
N493 Li443 1.990 . S
N493 C492 1.314 . S
N493 C496 1.279 . S
C494 C492 1.353 . S
C494 C497 1.348 . S
C494 H526 0.929 . S
C495 C496 1.358 . S
C495 C497 1.356 . S
C495 H527 0.930 . S
C496 N493 1.279 . S
C496 C495 1.358 . S
C496 H499 0.930 . S
C497 C494 1.348 . S
C497 C495 1.356 . S
H498 C492 0.930 . S
H499 C496 0.930 . S
O500 Li440 1.956 . S
O500 Li441 1.970 . S
O500 Li442 1.961 . S
O500 C444 1.325 . S
O501 Li440 1.970 . S
O501 Li441 1.956 . S
O501 Li443 1.961 . S
O501 C450 1.325 . S
O502 Li440 1.961 . S
O502 Li442 1.956 . S
O502 Li443 1.970 . S
O502 C472 1.325 . S
O503 Li441 1.961 . S
O503 Li442 1.970 . S
O503 Li443 1.956 . S
O503 C478 1.325 . S
H504 C446 0.929 . S
H505 C447 0.930 . S
H506 C448 0.930 . S
H507 C449 0.930 . S
H508 C451 0.930 . S
H509 C453 0.929 . S
H510 C454 0.930 . S
H511 C455 0.930 . S
H512 C458 0.930 . S
H513 C461 0.929 . S
H514 C466 0.929 . S
H515 C467 0.930 . S
H516 C474 0.929 . S
H517 C475 0.930 . S
H518 C476 0.930 . S
H519 C477 0.930 . S
H520 C479 0.929 . S
H521 C480 0.930 . S
H522 C481 0.930 . S
H523 C482 0.930 . S
H524 C486 0.929 . S
H525 C488 0.930 . S
H526 C494 0.929 . S
H527 C495 0.930 . S
Li528 N545 1.990 . S
Li528 O588 1.956 1_655 S
Li528 O589 1.970 . S
Li528 O590 1.961 . S
Li529 N553 1.990 . S
Li529 O588 1.970 1_655 S
Li529 O589 1.956 . S
Li529 O591 1.961 . S
Li530 N575 1.990 . S
Li530 O588 1.961 . S
Li530 O590 1.956 1_455 S
Li530 O591 1.970 1_455 S
Li531 N581 1.990 . S
Li531 O589 1.961 . S
Li531 O590 1.970 . S
Li531 O591 1.956 . S
C532 C534 1.348 . S
C532 C535 1.356 . S
C532 O588 1.325 . S
N533 C536 1.314 . S
N533 C537 1.279 . S
C534 C532 1.348 . S
C534 C536 1.353 . S
C534 H592 0.929 . S
C535 C532 1.356 . S
C535 C537 1.358 . S
C535 H593 0.930 . S
C536 N533 1.314 . S
C536 C534 1.353 . S
C536 H594 0.930 . S
C537 N533 1.279 . S
C537 C535 1.358 . S
C537 H595 0.930 . S
C538 C541 1.348 . S
C538 C542 1.356 . S
C538 O589 1.325 . S
C539 N540 1.279 . S
C539 C542 1.358 . S
C539 H596 0.930 . S
N540 C539 1.279 . S
N540 C543 1.314 . S
C541 C538 1.348 . S
C541 C543 1.353 . S
C541 H597 0.929 . S
C542 C538 1.356 . S
C542 C539 1.358 . S
C542 H598 0.930 . S
C543 N540 1.314 . S
C543 C541 1.353 . S
C543 H599 0.930 . S
C544 N545 1.314 . S
C544 C549 1.353 . S
C544 H550 0.930 . S
N545 Li528 1.990 . S
N545 C544 1.314 . S
N545 C547 1.279 . S
C546 C547 1.358 . S
C546 C548 1.356 . S
C546 H600 0.930 . S
C547 N545 1.279 . S
C547 C546 1.358 . S
C547 H551 0.930 . S
C548 C546 1.356 . S
C548 C549 1.348 . S
C549 C544 1.353 . S
C549 C548 1.348 . S
C549 H601 0.929 . S
H550 C544 0.930 . S
H551 C547 0.930 . S
C552 N553 1.314 1_455 S
C552 C554 1.353 . S
C552 H558 0.930 . S
N553 Li529 1.990 . S
N553 C552 1.314 1_655 S
N553 C556 1.279 . S
C554 C552 1.353 . S
C554 C557 1.348 1_455 S
C554 H602 0.929 . S
C555 C556 1.358 . S
C555 C557 1.356 . S
C555 H603 0.930 . S
C556 N553 1.279 . S
C556 C555 1.358 . S
C556 H559 0.930 . S
C557 C554 1.348 1_655 S
C557 C555 1.356 . S
H558 C552 0.930 . S
H559 C556 0.930 . S
C560 C562 1.348 . S
C560 C563 1.356 . S
C560 O590 1.325 . S
N561 C564 1.314 . S
N561 C565 1.279 . S
C562 C560 1.348 . S
C562 C564 1.353 . S
C562 H604 0.929 . S
C563 C560 1.356 . S
C563 C565 1.358 . S
C563 H605 0.912 1_655 S
C564 N561 1.314 . S
C564 C562 1.353 . S
C564 H606 0.930 . S
C565 N561 1.279 . S
C565 C563 1.358 . S
C565 H607 0.930 . S
C566 C567 1.348 1_655 S
C566 C568 1.356 . S
C566 O591 1.325 . S
C567 C566 1.348 1_455 S
C567 C569 1.353 . S
C567 H608 0.929 . S
C568 C566 1.356 . S
C568 C570 1.358 . S
C568 H609 0.930 . S
C569 C567 1.353 . S
C569 N571 1.314 . S
C569 H610 0.930 . S
C570 C568 1.358 . S
C570 N571 1.279 1_655 S
C570 H611 0.930 . S
N571 C569 1.314 . S
N571 C570 1.279 1_455 S
C572 C574 1.353 . S
C572 N575 1.314 . S
C572 H578 0.930 . S
C573 N575 1.279 . S
C573 C576 1.358 . S
C573 H579 0.930 . S
C574 C572 1.353 . S
C574 C577 1.348 . S
C574 H612 0.929 . S
N575 Li530 1.990 . S
N575 C572 1.314 . S
N575 C573 1.279 . S
C576 C573 1.358 . S
C576 C577 1.356 . S
C576 H613 0.930 . S
C577 C574 1.348 . S
C577 C576 1.356 . S
H578 C572 0.930 . S
H579 C573 0.930 . S
C580 N581 1.314 . S
C580 C582 1.353 . S
C580 H586 0.930 . S
N581 Li531 1.990 . S
N581 C580 1.314 . S
N581 C584 1.279 . S
C582 C580 1.353 . S
C582 C585 1.348 . S
C582 H614 0.929 . S
C583 C584 1.358 . S
C583 C585 1.356 . S
C583 H615 0.930 . S
C584 N581 1.279 . S
C584 C583 1.358 . S
C584 H587 0.930 . S
C585 C582 1.348 . S
C585 C583 1.356 . S
H586 C580 0.930 . S
H587 C584 0.930 . S
O588 Li528 1.956 1_455 S
O588 Li529 1.970 1_455 S
O588 Li530 1.961 . S
O588 C532 1.325 . S
O589 Li528 1.970 . S
O589 Li529 1.956 . S
O589 Li531 1.961 . S
O589 C538 1.325 . S
O590 Li528 1.961 . S
O590 Li530 1.956 1_655 S
O590 Li531 1.970 . S
O590 C560 1.325 . S
O591 Li529 1.961 . S
O591 Li530 1.970 1_655 S
O591 Li531 1.956 . S
O591 C566 1.325 . S
H592 C534 0.929 . S
H593 C535 0.930 . S
H594 C536 0.930 . S
H595 C537 0.930 . S
H596 C539 0.930 . S
H597 C541 0.929 . S
H598 C542 0.930 . S
H599 C543 0.930 . S
H600 C546 0.930 . S
H601 C549 0.929 . S
H602 C554 0.929 . S
H603 C555 0.930 . S
H604 C562 0.929 . S
H605 C563 0.912 1_455 S
H606 C564 0.930 . S
H607 C565 0.930 . S
H608 C567 0.929 . S
H609 C568 0.930 . S
H610 C569 0.930 . S
H611 C570 0.930 . S
H612 C574 0.929 . S
H613 C576 0.930 . S
H614 C582 0.929 . S
H615 C583 0.930 . S
Li616 N633 1.990 . S
Li616 O676 1.956 1_565 S
Li616 O677 1.970 . S
Li616 O678 1.961 . S
Li617 N641 1.990 . S
Li617 O676 1.970 1_565 S
Li617 O677 1.956 . S
Li617 O679 1.961 . S
Li618 N663 1.990 . S
Li618 O676 1.961 . S
Li618 O678 1.956 1_545 S
Li618 O679 1.970 1_545 S
Li619 N669 1.990 . S
Li619 O677 1.961 . S
Li619 O678 1.970 . S
Li619 O679 1.956 . S
C620 C622 1.348 . S
C620 C623 1.356 . S
C620 O676 1.325 . S
N621 C624 1.314 . S
N621 C625 1.279 . S
C622 C620 1.348 . S
C622 C624 1.353 . S
C622 H680 0.929 . S
C623 C620 1.356 . S
C623 C625 1.358 . S
C623 H681 0.930 . S
C624 N621 1.314 . S
C624 C622 1.353 . S
C624 H682 0.930 . S
C625 N621 1.279 . S
C625 C623 1.358 . S
C625 H683 0.930 . S
C626 C629 1.348 . S
C626 C630 1.356 . S
C626 O677 1.325 . S
C627 N628 1.279 . S
C627 C630 1.358 . S
C627 H684 0.930 . S
N628 C627 1.279 . S
N628 C631 1.314 . S
C629 C626 1.348 . S
C629 C631 1.353 . S
C629 H685 0.929 . S
C630 C626 1.356 . S
C630 C627 1.358 . S
C630 H686 0.930 . S
C631 N628 1.314 . S
C631 C629 1.353 . S
C631 H687 0.930 . S
C632 N633 1.314 . S
C632 C637 1.353 . S
C632 H638 0.930 . S
N633 Li616 1.990 . S
N633 C632 1.314 . S
N633 C635 1.279 . S
C634 C635 1.358 . S
C634 C636 1.356 . S
C634 H688 0.930 . S
C635 N633 1.279 . S
C635 C634 1.358 . S
C635 H639 0.930 . S
C636 C634 1.356 . S
C636 C637 1.348 . S
C637 C632 1.353 . S
C637 C636 1.348 . S
C637 H689 0.929 . S
H638 C632 0.930 . S
H639 C635 0.930 . S
C640 N641 1.314 1_545 S
C640 C642 1.353 . S
C640 H646 0.930 . S
N641 Li617 1.990 . S
N641 C640 1.314 1_565 S
N641 C644 1.279 . S
C642 C640 1.353 . S
C642 C645 1.348 1_545 S
C642 H690 0.929 . S
C643 C644 1.358 . S
C643 C645 1.356 . S
C643 H691 0.930 . S
C644 N641 1.279 . S
C644 C643 1.358 . S
C644 H647 0.930 . S
C645 C642 1.348 1_565 S
C645 C643 1.356 . S
H646 C640 0.930 . S
H647 C644 0.930 . S
C648 C650 1.348 . S
C648 C651 1.356 . S
C648 O678 1.325 . S
N649 C652 1.314 . S
N649 C653 1.279 . S
C650 C648 1.348 . S
C650 C652 1.353 . S
C650 H692 0.929 . S
C651 C648 1.356 . S
C651 C653 1.358 . S
C651 H693 0.912 1_565 S
C652 N649 1.314 . S
C652 C650 1.353 . S
C652 H694 0.930 . S
C653 N649 1.279 . S
C653 C651 1.358 . S
C653 H695 0.930 . S
C654 C655 1.348 1_565 S
C654 C656 1.356 . S
C654 O679 1.325 . S
C655 C654 1.348 1_545 S
C655 C657 1.353 . S
C655 H696 0.929 . S
C656 C654 1.356 . S
C656 C658 1.358 . S
C656 H697 0.930 . S
C657 C655 1.353 . S
C657 N659 1.314 . S
C657 H698 0.930 . S
C658 C656 1.358 . S
C658 N659 1.279 1_565 S
C658 H699 0.930 . S
N659 C657 1.314 . S
N659 C658 1.279 1_545 S
C660 C662 1.353 . S
C660 N663 1.314 . S
C660 H666 0.930 . S
C661 N663 1.279 . S
C661 C664 1.358 . S
C661 H667 0.930 . S
C662 C660 1.353 . S
C662 C665 1.348 . S
C662 H700 0.929 . S
N663 Li618 1.990 . S
N663 C660 1.314 . S
N663 C661 1.279 . S
C664 C661 1.358 . S
C664 C665 1.356 . S
C664 H701 0.930 . S
C665 C662 1.348 . S
C665 C664 1.356 . S
H666 C660 0.930 . S
H667 C661 0.930 . S
C668 N669 1.314 . S
C668 C670 1.353 . S
C668 H674 0.930 . S
N669 Li619 1.990 . S
N669 C668 1.314 . S
N669 C672 1.279 . S
C670 C668 1.353 . S
C670 C673 1.348 . S
C670 H702 0.929 . S
C671 C672 1.358 . S
C671 C673 1.356 . S
C671 H703 0.930 . S
C672 N669 1.279 . S
C672 C671 1.358 . S
C672 H675 0.930 . S
C673 C670 1.348 . S
C673 C671 1.356 . S
H674 C668 0.930 . S
H675 C672 0.930 . S
O676 Li616 1.956 1_545 S
O676 Li617 1.970 1_545 S
O676 Li618 1.961 . S
O676 C620 1.325 . S
O677 Li616 1.970 . S
O677 Li617 1.956 . S
O677 Li619 1.961 . S
O677 C626 1.325 . S
O678 Li616 1.961 . S
O678 Li618 1.956 1_565 S
O678 Li619 1.970 . S
O678 C648 1.325 . S
O679 Li617 1.961 . S
O679 Li618 1.970 1_565 S
O679 Li619 1.956 . S
O679 C654 1.325 . S
H680 C622 0.929 . S
H681 C623 0.930 . S
H682 C624 0.930 . S
H683 C625 0.930 . S
H684 C627 0.930 . S
H685 C629 0.929 . S
H686 C630 0.930 . S
H687 C631 0.930 . S
H688 C634 0.930 . S
H689 C637 0.929 . S
H690 C642 0.929 . S
H691 C643 0.930 . S
H692 C650 0.929 . S
H693 C651 0.912 1_545 S
H694 C652 0.930 . S
H695 C653 0.930 . S
H696 C655 0.929 . S
H697 C656 0.930 . S
H698 C657 0.930 . S
H699 C658 0.930 . S
H700 C662 0.929 . S
H701 C664 0.930 . S
H702 C670 0.929 . S
H703 C671 0.930 . S
Li704 N721 1.990 . S
Li704 O764 1.956 . S
Li704 O765 1.970 . S
Li704 O766 1.961 . S
Li705 N729 1.990 . S
Li705 O764 1.970 . S
Li705 O765 1.956 . S
Li705 O767 1.961 . S
Li706 N751 1.990 . S
Li706 O764 1.961 . S
Li706 O766 1.956 . S
Li706 O767 1.970 . S
Li707 N757 1.990 . S
Li707 O765 1.961 . S
Li707 O766 1.970 . S
Li707 O767 1.956 . S
C708 C710 1.348 . S
C708 C711 1.356 . S
C708 O764 1.325 . S
N709 C712 1.314 . S
N709 C713 1.279 . S
C710 C708 1.348 . S
C710 C712 1.353 . S
C710 H768 0.929 . S
C711 C708 1.356 . S
C711 C713 1.358 . S
C711 H769 0.930 . S
C712 N709 1.314 . S
C712 C710 1.353 . S
C712 H770 0.930 . S
C713 N709 1.279 . S
C713 C711 1.358 . S
C713 H771 0.930 . S
C714 C717 1.348 . S
C714 C718 1.356 . S
C714 O765 1.325 . S
C715 N716 1.279 . S
C715 C718 1.358 . S
C715 H772 0.930 . S
N716 C715 1.279 . S
N716 C719 1.314 . S
C717 C714 1.348 . S
C717 C719 1.353 . S
C717 H773 0.929 . S
C718 C714 1.356 . S
C718 C715 1.358 . S
C718 H774 0.930 . S
C719 N716 1.314 . S
C719 C717 1.353 . S
C719 H775 0.930 . S
C720 N721 1.314 . S
C720 C725 1.353 . S
C720 H726 0.930 . S
N721 Li704 1.990 . S
N721 C720 1.314 . S
N721 C723 1.279 . S
C722 C723 1.358 . S
C722 C724 1.356 . S
C722 H776 0.930 . S
C723 N721 1.279 . S
C723 C722 1.358 . S
C723 H727 0.930 . S
C724 C722 1.356 . S
C724 C725 1.348 . S
C725 C720 1.353 . S
C725 C724 1.348 . S
C725 H777 0.929 . S
H726 C720 0.930 . S
H727 C723 0.930 . S
C728 N729 1.314 . S
C728 C730 1.353 . S
C728 H734 0.930 . S
N729 Li705 1.990 . S
N729 C728 1.314 . S
N729 C732 1.279 . S
C730 C728 1.353 . S
C730 C733 1.348 . S
C730 H778 0.929 . S
C731 C732 1.358 . S
C731 C733 1.356 . S
C731 H779 0.930 . S
C732 N729 1.279 . S
C732 C731 1.358 . S
C732 H735 0.930 . S
C733 C730 1.348 . S
C733 C731 1.356 . S
H734 C728 0.930 . S
H735 C732 0.930 . S
C736 C738 1.348 . S
C736 C739 1.356 . S
C736 O766 1.325 . S
N737 C740 1.314 . S
N737 C741 1.279 . S
C738 C736 1.348 . S
C738 C740 1.353 . S
C738 H780 0.929 . S
C739 C736 1.356 . S
C739 C741 1.358 . S
C739 H781 0.930 . S
C740 N737 1.314 . S
C740 C738 1.353 . S
C740 H782 0.930 . S
C741 N737 1.279 . S
C741 C739 1.358 . S
C741 H783 0.930 . S
C742 C743 1.348 . S
C742 C744 1.356 . S
C742 O767 1.325 . S
C743 C742 1.348 . S
C743 C745 1.353 . S
C743 H784 0.929 . S
C744 C742 1.356 . S
C744 C746 1.358 . S
C744 H785 0.930 . S
C745 C743 1.353 . S
C745 N747 1.314 . S
C745 H786 0.930 . S
C746 C744 1.358 . S
C746 N747 1.279 . S
C746 H787 0.930 . S
N747 C745 1.314 . S
N747 C746 1.279 . S
C748 C750 1.353 . S
C748 N751 1.314 . S
C748 H754 0.930 . S
C749 N751 1.279 . S
C749 C752 1.358 . S
C749 H755 0.930 . S
C750 C748 1.353 . S
C750 C753 1.348 . S
C750 H788 0.929 . S
N751 Li706 1.990 . S
N751 C748 1.314 . S
N751 C749 1.279 . S
C752 C749 1.358 . S
C752 C753 1.356 . S
C752 H789 0.930 . S
C753 C750 1.348 . S
C753 C752 1.356 . S
H754 C748 0.930 . S
H755 C749 0.930 . S
C756 N757 1.314 . S
C756 C758 1.353 . S
C756 H762 0.930 . S
N757 Li707 1.990 . S
N757 C756 1.314 . S
N757 C760 1.279 . S
C758 C756 1.353 . S
C758 C761 1.348 . S
C758 H790 0.929 . S
C759 C760 1.358 . S
C759 C761 1.356 . S
C759 H791 0.930 . S
C760 N757 1.279 . S
C760 C759 1.358 . S
C760 H763 0.930 . S
C761 C758 1.348 . S
C761 C759 1.356 . S
H762 C756 0.930 . S
H763 C760 0.930 . S
O764 Li704 1.956 . S
O764 Li705 1.970 . S
O764 Li706 1.961 . S
O764 C708 1.325 . S
O765 Li704 1.970 . S
O765 Li705 1.956 . S
O765 Li707 1.961 . S
O765 C714 1.325 . S
O766 Li704 1.961 . S
O766 Li706 1.956 . S
O766 Li707 1.970 . S
O766 C736 1.325 . S
O767 Li705 1.961 . S
O767 Li706 1.970 . S
O767 Li707 1.956 . S
O767 C742 1.325 . S
H768 C710 0.929 . S
H769 C711 0.930 . S
H770 C712 0.930 . S
H771 C713 0.930 . S
H772 C715 0.930 . S
H773 C717 0.929 . S
H774 C718 0.930 . S
H775 C719 0.930 . S
H776 C722 0.930 . S
H777 C725 0.929 . S
H778 C730 0.929 . S
H779 C731 0.930 . S
H780 C738 0.929 . S
H781 C739 0.930 . S
H782 C740 0.930 . S
H783 C741 0.930 . S
H784 C743 0.929 . S
H785 C744 0.930 . S
H786 C745 0.930 . S
H787 C746 0.930 . S
H788 C750 0.929 . S
H789 C752 0.930 . S
H790 C758 0.929 . S
H791 C759 0.930 . S
Li792 N809 1.990 . S
Li792 O852 1.956 . S
Li792 O853 1.970 . S
Li792 O854 1.961 . S
Li793 N817 1.990 . S
Li793 O852 1.970 . S
Li793 O853 1.956 . S
Li793 O855 1.961 . S
Li794 N839 1.990 . S
Li794 O852 1.961 . S
Li794 O854 1.956 . S
Li794 O855 1.970 . S
Li795 N845 1.990 . S
Li795 O853 1.961 . S
Li795 O854 1.970 . S
Li795 O855 1.956 . S
C796 C798 1.348 . S
C796 C799 1.356 . S
C796 O852 1.325 . S
N797 C800 1.314 . S
N797 C801 1.279 . S
C798 C796 1.348 . S
C798 C800 1.353 . S
C798 H856 0.929 . S
C799 C796 1.356 . S
C799 C801 1.358 . S
C799 H857 0.930 . S
C800 N797 1.314 . S
C800 C798 1.353 . S
C800 H858 0.930 . S
C801 N797 1.279 . S
C801 C799 1.358 . S
C801 H859 0.930 . S
C802 C805 1.348 . S
C802 C806 1.356 . S
C802 O853 1.325 . S
C803 N804 1.279 . S
C803 C806 1.358 . S
C803 H860 0.930 . S
N804 C803 1.279 . S
N804 C807 1.314 . S
C805 C802 1.348 . S
C805 C807 1.353 . S
C805 H861 0.929 . S
C806 C802 1.356 . S
C806 C803 1.358 . S
C806 H862 0.930 . S
C807 N804 1.314 . S
C807 C805 1.353 . S
C807 H863 0.930 . S
C808 N809 1.314 . S
C808 C813 1.353 . S
C808 H814 0.930 . S
N809 Li792 1.990 . S
N809 C808 1.314 . S
N809 C811 1.279 . S
C810 C811 1.358 . S
C810 C812 1.356 . S
C810 H864 0.930 . S
C811 N809 1.279 . S
C811 C810 1.358 . S
C811 H815 0.930 . S
C812 C810 1.356 . S
C812 C813 1.348 . S
C813 C808 1.353 . S
C813 C812 1.348 . S
C813 H865 0.929 . S
H814 C808 0.930 . S
H815 C811 0.930 . S
C816 N817 1.314 . S
C816 C818 1.353 . S
C816 H822 0.930 . S
N817 Li793 1.990 . S
N817 C816 1.314 . S
N817 C820 1.279 . S
C818 C816 1.353 . S
C818 C821 1.348 . S
C818 H866 0.929 . S
C819 C820 1.358 . S
C819 C821 1.356 . S
C819 H867 0.930 . S
C820 N817 1.279 . S
C820 C819 1.358 . S
C820 H823 0.930 . S
C821 C818 1.348 . S
C821 C819 1.356 . S
H822 C816 0.930 . S
H823 C820 0.930 . S
C824 C826 1.348 . S
C824 C827 1.356 . S
C824 O854 1.325 . S
N825 C828 1.314 . S
N825 C829 1.279 . S
C826 C824 1.348 . S
C826 C828 1.353 . S
C826 H868 0.929 . S
C827 C824 1.356 . S
C827 C829 1.358 . S
C827 H869 0.930 . S
C828 N825 1.314 . S
C828 C826 1.353 . S
C828 H870 0.930 . S
C829 N825 1.279 . S
C829 C827 1.358 . S
C829 H871 0.930 . S
C830 C831 1.348 . S
C830 C832 1.356 . S
C830 O855 1.325 . S
C831 C830 1.348 . S
C831 C833 1.353 . S
C831 H872 0.929 . S
C832 C830 1.356 . S
C832 C834 1.358 . S
C832 H873 0.930 . S
C833 C831 1.353 . S
C833 N835 1.314 . S
C833 H874 0.930 . S
C834 C832 1.358 . S
C834 N835 1.279 . S
C834 H875 0.930 . S
N835 C833 1.314 . S
N835 C834 1.279 . S
C836 C838 1.353 . S
C836 N839 1.314 . S
C836 H842 0.930 . S
C837 N839 1.279 . S
C837 C840 1.358 . S
C837 H843 0.930 . S
C838 C836 1.353 . S
C838 C841 1.348 . S
C838 H876 0.929 . S
N839 Li794 1.990 . S
N839 C836 1.314 . S
N839 C837 1.279 . S
C840 C837 1.358 . S
C840 C841 1.356 . S
C840 H877 0.930 . S
C841 C838 1.348 . S
C841 C840 1.356 . S
H842 C836 0.930 . S
H843 C837 0.930 . S
C844 N845 1.314 . S
C844 C846 1.353 . S
C844 H850 0.930 . S
N845 Li795 1.990 . S
N845 C844 1.314 . S
N845 C848 1.279 . S
C846 C844 1.353 . S
C846 C849 1.348 . S
C846 H878 0.929 . S
C847 C848 1.358 . S
C847 C849 1.356 . S
C847 H879 0.930 . S
C848 N845 1.279 . S
C848 C847 1.358 . S
C848 H851 0.930 . S
C849 C846 1.348 . S
C849 C847 1.356 . S
H850 C844 0.930 . S
H851 C848 0.930 . S
O852 Li792 1.956 . S
O852 Li793 1.970 . S
O852 Li794 1.961 . S
O852 C796 1.325 . S
O853 Li792 1.970 . S
O853 Li793 1.956 . S
O853 Li795 1.961 . S
O853 C802 1.325 . S
O854 Li792 1.961 . S
O854 Li794 1.956 . S
O854 Li795 1.970 . S
O854 C824 1.325 . S
O855 Li793 1.961 . S
O855 Li794 1.970 . S
O855 Li795 1.956 . S
O855 C830 1.325 . S
H856 C798 0.929 . S
H857 C799 0.930 . S
H858 C800 0.930 . S
H859 C801 0.930 . S
H860 C803 0.930 . S
H861 C805 0.929 . S
H862 C806 0.930 . S
H863 C807 0.930 . S
H864 C810 0.930 . S
H865 C813 0.929 . S
H866 C818 0.929 . S
H867 C819 0.930 . S
H868 C826 0.929 . S
H869 C827 0.930 . S
H870 C828 0.930 . S
H871 C829 0.930 . S
H872 C831 0.929 . S
H873 C832 0.930 . S
H874 C833 0.930 . S
H875 C834 0.930 . S
H876 C838 0.929 . S
H877 C840 0.930 . S
H878 C846 0.929 . S
H879 C847 0.930 . S
Li880 N897 1.990 . S
Li880 O940 1.956 . S
Li880 O941 1.970 1_455 S
Li880 O942 1.961 . S
Li881 N905 1.990 . S
Li881 O940 1.970 1_655 S
Li881 O941 1.956 . S
Li881 O943 1.961 1_655 S
Li882 N927 1.990 . S
Li882 O940 1.961 . S
Li882 O942 1.956 . S
Li882 O943 1.970 . S
Li883 N933 1.990 . S
Li883 O941 1.961 1_455 S
Li883 O942 1.970 . S
Li883 O943 1.956 . S
C884 C886 1.348 1_455 S
C884 C887 1.356 . S
C884 O940 1.325 . S
N885 C888 1.314 . S
N885 C889 1.279 1_655 S
C886 C884 1.348 1_655 S
C886 C888 1.353 . S
C886 H944 0.929 . S
C887 C884 1.356 . S
C887 C889 1.358 . S
C887 H945 0.930 . S
C888 N885 1.314 . S
C888 C886 1.353 . S
C888 H946 0.930 . S
C889 N885 1.279 1_455 S
C889 C887 1.358 . S
C889 H947 0.930 . S
C890 C893 1.348 . S
C890 C894 1.356 . S
C890 O941 1.325 . S
C891 N892 1.279 . S
C891 C894 1.358 . S
C891 H948 0.930 . S
N892 C891 1.279 . S
N892 C895 1.314 . S
C893 C890 1.348 . S
C893 C895 1.353 . S
C893 H949 0.929 . S
C894 C890 1.356 . S
C894 C891 1.358 . S
C894 H950 0.930 . S
C895 N892 1.314 . S
C895 C893 1.353 . S
C895 H951 0.930 . S
C896 N897 1.314 . S
C896 C901 1.353 . S
C896 H902 0.930 . S
N897 Li880 1.990 . S
N897 C896 1.314 . S
N897 C899 1.261 1_455 S
C898 C899 1.365 . S
C898 C900 1.356 1_655 S
C898 H952 0.930 . S
C899 N897 1.261 1_655 S
C899 C898 1.365 . S
C899 H903 0.947 . S
C900 C898 1.356 1_455 S
C900 C901 1.348 . S
C901 C896 1.353 . S
C901 C900 1.348 . S
C901 H953 0.929 . S
H902 C896 0.930 . S
H903 C899 0.947 . S
C904 N905 1.314 . S
C904 C906 1.353 . S
C904 H910 0.930 . S
N905 Li881 1.990 . S
N905 C904 1.314 . S
N905 C908 1.279 . S
C906 C904 1.353 . S
C906 C909 1.348 . S
C906 H954 0.929 . S
C907 C908 1.358 . S
C907 C909 1.356 . S
C907 H955 0.930 . S
C908 N905 1.279 . S
C908 C907 1.358 . S
C908 H911 0.930 . S
C909 C906 1.348 . S
C909 C907 1.356 . S
H910 C904 0.930 . S
H911 C908 0.930 . S
C912 C914 1.348 . S
C912 C915 1.356 . S
C912 O942 1.325 . S
N913 C916 1.314 . S
N913 C917 1.279 . S
C914 C912 1.348 . S
C914 C916 1.353 . S
C914 H956 0.929 . S
C915 C912 1.356 . S
C915 C917 1.358 . S
C915 H957 0.930 . S
C916 N913 1.314 . S
C916 C914 1.353 . S
C916 H958 0.930 . S
C917 N913 1.279 . S
C917 C915 1.358 . S
C917 H959 0.930 . S
C918 C919 1.348 . S
C918 C920 1.356 . S
C918 O943 1.325 . S
C919 C918 1.348 . S
C919 C921 1.353 . S
C919 H960 0.929 . S
C920 C918 1.356 . S
C920 C922 1.358 . S
C920 H961 0.930 1_455 S
C921 C919 1.353 . S
C921 N923 1.314 . S
C921 H962 0.930 . S
C922 C920 1.358 . S
C922 N923 1.279 . S
C922 H963 0.930 1_455 S
N923 C921 1.314 . S
N923 C922 1.279 . S
C924 C926 1.353 . S
C924 N927 1.314 . S
C924 H930 0.930 . S
C925 N927 1.279 . S
C925 C928 1.358 . S
C925 H931 0.930 . S
C926 C924 1.353 . S
C926 C929 1.348 . S
C926 H964 0.929 . S
N927 Li882 1.990 . S
N927 C924 1.314 . S
N927 C925 1.279 . S
C928 C925 1.358 . S
C928 C929 1.356 . S
C928 H965 0.930 . S
C929 C926 1.348 . S
C929 C928 1.356 . S
H930 C924 0.930 . S
H931 C925 0.930 . S
C932 N933 1.314 . S
C932 C934 1.353 . S
C932 H938 0.930 . S
N933 Li883 1.990 . S
N933 C932 1.314 . S
N933 C936 1.279 . S
C934 C932 1.353 . S
C934 C937 1.348 . S
C934 H966 0.929 . S
C935 C936 1.358 . S
C935 C937 1.356 . S
C935 H967 0.930 . S
C936 N933 1.279 . S
C936 C935 1.358 . S
C936 H939 0.930 . S
C937 C934 1.348 . S
C937 C935 1.356 . S
H938 C932 0.930 . S
H939 C936 0.930 . S
O940 Li880 1.956 . S
O940 Li881 1.970 1_455 S
O940 Li882 1.961 . S
O940 C884 1.325 . S
O941 Li880 1.970 1_655 S
O941 Li881 1.956 . S
O941 Li883 1.961 1_655 S
O941 C890 1.325 . S
O942 Li880 1.961 . S
O942 Li882 1.956 . S
O942 Li883 1.970 . S
O942 C912 1.325 . S
O943 Li881 1.961 1_455 S
O943 Li882 1.970 . S
O943 Li883 1.956 . S
O943 C918 1.325 . S
H944 C886 0.929 . S
H945 C887 0.930 . S
H946 C888 0.930 . S
H947 C889 0.930 . S
H948 C891 0.930 . S
H949 C893 0.929 . S
H950 C894 0.930 . S
H951 C895 0.930 . S
H952 C898 0.930 . S
H953 C901 0.929 . S
H954 C906 0.929 . S
H955 C907 0.930 . S
H956 C914 0.929 . S
H957 C915 0.930 . S
H958 C916 0.930 . S
H959 C917 0.930 . S
H960 C919 0.929 . S
H961 C920 0.930 1_655 S
H962 C921 0.930 . S
H963 C922 0.930 1_655 S
H964 C926 0.929 . S
H965 C928 0.930 . S
H966 C934 0.929 . S
H967 C935 0.930 . S
Li968 N985 1.990 . S
Li968 O1028 1.956 . S
Li968 O1029 1.970 1_545 S
Li968 O1030 1.961 . S
Li969 N993 1.990 . S
Li969 O1028 1.970 1_565 S
Li969 O1029 1.956 . S
Li969 O1031 1.961 1_565 S
Li970 N1015 1.990 . S
Li970 O1028 1.961 . S
Li970 O1030 1.956 . S
Li970 O1031 1.970 . S
Li971 N1021 1.990 . S
Li971 O1029 1.961 1_545 S
Li971 O1030 1.970 . S
Li971 O1031 1.956 . S
C972 C974 1.348 1_545 S
C972 C975 1.356 . S
C972 O1028 1.325 . S
N973 C976 1.314 . S
N973 C977 1.279 1_565 S
C974 C972 1.348 1_565 S
C974 C976 1.353 . S
C974 H1032 0.929 . S
C975 C972 1.356 . S
C975 C977 1.358 . S
C975 H1033 0.930 . S
C976 N973 1.314 . S
C976 C974 1.353 . S
C976 H1034 0.930 . S
C977 N973 1.279 1_545 S
C977 C975 1.358 . S
C977 H1035 0.930 . S
C978 C981 1.348 . S
C978 C982 1.356 . S
C978 O1029 1.325 . S
C979 N980 1.279 . S
C979 C982 1.358 . S
C979 H1036 0.930 . S
N980 C979 1.279 . S
N980 C983 1.314 . S
C981 C978 1.348 . S
C981 C983 1.353 . S
C981 H1037 0.929 . S
C982 C978 1.356 . S
C982 C979 1.358 . S
C982 H1038 0.930 . S
C983 N980 1.314 . S
C983 C981 1.353 . S
C983 H1039 0.930 . S
C984 N985 1.314 . S
C984 C989 1.353 . S
C984 H990 0.930 . S
N985 Li968 1.990 . S
N985 C984 1.314 . S
N985 C987 1.261 1_545 S
C986 C987 1.365 . S
C986 C988 1.356 1_565 S
C986 H1040 0.930 . S
C987 N985 1.261 1_565 S
C987 C986 1.365 . S
C987 H991 0.947 . S
C988 C986 1.356 1_545 S
C988 C989 1.348 . S
C989 C984 1.353 . S
C989 C988 1.348 . S
C989 H1041 0.929 . S
H990 C984 0.930 . S
H991 C987 0.947 . S
C992 N993 1.314 . S
C992 C994 1.353 . S
C992 H998 0.930 . S
N993 Li969 1.990 . S
N993 C992 1.314 . S
N993 C996 1.279 . S
C994 C992 1.353 . S
C994 C997 1.348 . S
C994 H1042 0.929 . S
C995 C996 1.358 . S
C995 C997 1.356 . S
C995 H1043 0.930 . S
C996 N993 1.279 . S
C996 C995 1.358 . S
C996 H999 0.930 . S
C997 C994 1.348 . S
C997 C995 1.356 . S
H998 C992 0.930 . S
H999 C996 0.930 . S
C1000 C1002 1.348 . S
C1000 C1003 1.356 . S
C1000 O1030 1.325 . S
N1001 C1004 1.314 . S
N1001 C1005 1.279 . S
C1002 C1000 1.348 . S
C1002 C1004 1.353 . S
C1002 H1044 0.929 . S
C1003 C1000 1.356 . S
C1003 C1005 1.358 . S
C1003 H1045 0.930 . S
C1004 N1001 1.314 . S
C1004 C1002 1.353 . S
C1004 H1046 0.930 . S
C1005 N1001 1.279 . S
C1005 C1003 1.358 . S
C1005 H1047 0.930 . S
C1006 C1007 1.348 . S
C1006 C1008 1.356 . S
C1006 O1031 1.325 . S
C1007 C1006 1.348 . S
C1007 C1009 1.353 . S
C1007 H1048 0.929 . S
C1008 C1006 1.356 . S
C1008 C1010 1.358 . S
C1008 H1049 0.930 1_545 S
C1009 C1007 1.353 . S
C1009 N1011 1.314 . S
C1009 H1050 0.930 . S
C1010 C1008 1.358 . S
C1010 N1011 1.279 . S
C1010 H1051 0.930 1_545 S
N1011 C1009 1.314 . S
N1011 C1010 1.279 . S
C1012 C1014 1.353 . S
C1012 N1015 1.314 . S
C1012 H1018 0.930 . S
C1013 N1015 1.279 . S
C1013 C1016 1.358 . S
C1013 H1019 0.930 . S
C1014 C1012 1.353 . S
C1014 C1017 1.348 . S
C1014 H1052 0.929 . S
N1015 Li970 1.990 . S
N1015 C1012 1.314 . S
N1015 C1013 1.279 . S
C1016 C1013 1.358 . S
C1016 C1017 1.356 . S
C1016 H1053 0.930 . S
C1017 C1014 1.348 . S
C1017 C1016 1.356 . S
H1018 C1012 0.930 . S
H1019 C1013 0.930 . S
C1020 N1021 1.314 . S
C1020 C1022 1.353 . S
C1020 H1026 0.930 . S
N1021 Li971 1.990 . S
N1021 C1020 1.314 . S
N1021 C1024 1.279 . S
C1022 C1020 1.353 . S
C1022 C1025 1.348 . S
C1022 H1054 0.929 . S
C1023 C1024 1.358 . S
C1023 C1025 1.356 . S
C1023 H1055 0.930 . S
C1024 N1021 1.279 . S
C1024 C1023 1.358 . S
C1024 H1027 0.930 . S
C1025 C1022 1.348 . S
C1025 C1023 1.356 . S
H1026 C1020 0.930 . S
H1027 C1024 0.930 . S
O1028 Li968 1.956 . S
O1028 Li969 1.970 1_545 S
O1028 Li970 1.961 . S
O1028 C972 1.325 . S
O1029 Li968 1.970 1_565 S
O1029 Li969 1.956 . S
O1029 Li971 1.961 1_565 S
O1029 C978 1.325 . S
O1030 Li968 1.961 . S
O1030 Li970 1.956 . S
O1030 Li971 1.970 . S
O1030 C1000 1.325 . S
O1031 Li969 1.961 1_545 S
O1031 Li970 1.970 . S
O1031 Li971 1.956 . S
O1031 C1006 1.325 . S
H1032 C974 0.929 . S
H1033 C975 0.930 . S
H1034 C976 0.930 . S
H1035 C977 0.930 . S
H1036 C979 0.930 . S
H1037 C981 0.929 . S
H1038 C982 0.930 . S
H1039 C983 0.930 . S
H1040 C986 0.930 . S
H1041 C989 0.929 . S
H1042 C994 0.929 . S
H1043 C995 0.930 . S
H1044 C1002 0.929 . S
H1045 C1003 0.930 . S
H1046 C1004 0.930 . S
H1047 C1005 0.930 . S
H1048 C1007 0.929 . S
H1049 C1008 0.930 1_565 S
H1050 C1009 0.930 . S
H1051 C1010 0.930 1_565 S
H1052 C1014 0.929 . S
H1053 C1016 0.930 . S
H1054 C1022 0.929 . S
H1055 C1023 0.930 . S
Li1056 N1073 1.990 . S
Li1056 O1116 1.956 . S
Li1056 O1117 1.970 . S
Li1056 O1118 1.961 . S
Li1057 N1081 1.990 . S
Li1057 O1116 1.970 . S
Li1057 O1117 1.956 . S
Li1057 O1119 1.961 . S
Li1058 N1103 1.990 . S
Li1058 O1116 1.961 . S
Li1058 O1118 1.956 . S
Li1058 O1119 1.970 . S
Li1059 N1109 1.990 . S
Li1059 O1117 1.961 . S
Li1059 O1118 1.970 . S
Li1059 O1119 1.956 . S
C1060 C1062 1.348 . S
C1060 C1063 1.356 . S
C1060 O1116 1.325 . S
N1061 C1064 1.314 . S
N1061 C1065 1.279 . S
C1062 C1060 1.348 . S
C1062 C1064 1.353 . S
C1062 H1120 0.929 . S
C1063 C1060 1.356 . S
C1063 C1065 1.358 . S
C1063 H1121 0.930 . S
C1064 N1061 1.314 . S
C1064 C1062 1.353 . S
C1064 H1122 0.930 . S
C1065 N1061 1.279 . S
C1065 C1063 1.358 . S
C1065 H1123 0.930 . S
C1066 C1069 1.348 . S
C1066 C1070 1.356 . S
C1066 O1117 1.325 . S
C1067 N1068 1.279 . S
C1067 C1070 1.358 . S
C1067 H1124 0.930 . S
N1068 C1067 1.279 . S
N1068 C1071 1.314 . S
C1069 C1066 1.348 . S
C1069 C1071 1.353 . S
C1069 H1125 0.929 . S
C1070 C1066 1.356 . S
C1070 C1067 1.358 . S
C1070 H1126 0.930 . S
C1071 N1068 1.314 . S
C1071 C1069 1.353 . S
C1071 H1127 0.930 . S
C1072 N1073 1.314 . S
C1072 C1077 1.353 . S
C1072 H1078 0.930 . S
N1073 Li1056 1.990 . S
N1073 C1072 1.314 . S
N1073 C1075 1.279 . S
C1074 C1075 1.358 . S
C1074 C1076 1.356 . S
C1074 H1128 0.930 . S
C1075 N1073 1.279 . S
C1075 C1074 1.358 . S
C1075 H1079 0.930 . S
C1076 C1074 1.356 . S
C1076 C1077 1.348 . S
C1077 C1072 1.353 . S
C1077 C1076 1.348 . S
C1077 H1129 0.929 . S
H1078 C1072 0.930 . S
H1079 C1075 0.930 . S
C1080 N1081 1.314 . S
C1080 C1082 1.353 . S
C1080 H1086 0.930 . S
N1081 Li1057 1.990 . S
N1081 C1080 1.314 . S
N1081 C1084 1.279 . S
C1082 C1080 1.353 . S
C1082 C1085 1.348 . S
C1082 H1130 0.929 . S
C1083 C1084 1.358 . S
C1083 C1085 1.356 . S
C1083 H1131 0.930 . S
C1084 N1081 1.279 . S
C1084 C1083 1.358 . S
C1084 H1087 0.930 . S
C1085 C1082 1.348 . S
C1085 C1083 1.356 . S
H1086 C1080 0.930 . S
H1087 C1084 0.930 . S
C1088 C1090 1.348 . S
C1088 C1091 1.356 . S
C1088 O1118 1.325 . S
N1089 C1092 1.314 . S
N1089 C1093 1.279 . S
C1090 C1088 1.348 . S
C1090 C1092 1.353 . S
C1090 H1132 0.929 . S
C1091 C1088 1.356 . S
C1091 C1093 1.358 . S
C1091 H1133 0.930 . S
C1092 N1089 1.314 . S
C1092 C1090 1.353 . S
C1092 H1134 0.930 . S
C1093 N1089 1.279 . S
C1093 C1091 1.358 . S
C1093 H1135 0.930 . S
C1094 C1095 1.348 . S
C1094 C1096 1.356 . S
C1094 O1119 1.325 . S
C1095 C1094 1.348 . S
C1095 C1097 1.353 . S
C1095 H1136 0.929 . S
C1096 C1094 1.356 . S
C1096 C1098 1.358 . S
C1096 H1137 0.930 . S
C1097 C1095 1.353 . S
C1097 N1099 1.314 . S
C1097 H1138 0.930 . S
C1098 C1096 1.358 . S
C1098 N1099 1.279 . S
C1098 H1139 0.930 . S
N1099 C1097 1.314 . S
N1099 C1098 1.279 . S
C1100 C1102 1.353 . S
C1100 N1103 1.314 . S
C1100 H1106 0.930 . S
C1101 N1103 1.279 . S
C1101 C1104 1.358 . S
C1101 H1107 0.930 . S
C1102 C1100 1.353 . S
C1102 C1105 1.348 . S
C1102 H1140 0.929 . S
N1103 Li1058 1.990 . S
N1103 C1100 1.314 . S
N1103 C1101 1.279 . S
C1104 C1101 1.358 . S
C1104 C1105 1.356 . S
C1104 H1141 0.930 . S
C1105 C1102 1.348 . S
C1105 C1104 1.356 . S
H1106 C1100 0.930 . S
H1107 C1101 0.930 . S
C1108 N1109 1.314 . S
C1108 C1110 1.353 . S
C1108 H1114 0.930 . S
N1109 Li1059 1.990 . S
N1109 C1108 1.314 . S
N1109 C1112 1.279 . S
C1110 C1108 1.353 . S
C1110 C1113 1.348 . S
C1110 H1142 0.929 . S
C1111 C1112 1.358 . S
C1111 C1113 1.356 . S
C1111 H1143 0.930 . S
C1112 N1109 1.279 . S
C1112 C1111 1.358 . S
C1112 H1115 0.930 . S
C1113 C1110 1.348 . S
C1113 C1111 1.356 . S
H1114 C1108 0.930 . S
H1115 C1112 0.930 . S
O1116 Li1056 1.956 . S
O1116 Li1057 1.970 . S
O1116 Li1058 1.961 . S
O1116 C1060 1.325 . S
O1117 Li1056 1.970 . S
O1117 Li1057 1.956 . S
O1117 Li1059 1.961 . S
O1117 C1066 1.325 . S
O1118 Li1056 1.961 . S
O1118 Li1058 1.956 . S
O1118 Li1059 1.970 . S
O1118 C1088 1.325 . S
O1119 Li1057 1.961 . S
O1119 Li1058 1.970 . S
O1119 Li1059 1.956 . S
O1119 C1094 1.325 . S
H1120 C1062 0.929 . S
H1121 C1063 0.930 . S
H1122 C1064 0.930 . S
H1123 C1065 0.930 . S
H1124 C1067 0.930 . S
H1125 C1069 0.929 . S
H1126 C1070 0.930 . S
H1127 C1071 0.930 . S
H1128 C1074 0.930 . S
H1129 C1077 0.929 . S
H1130 C1082 0.929 . S
H1131 C1083 0.930 . S
H1132 C1090 0.929 . S
H1133 C1091 0.930 . S
H1134 C1092 0.930 . S
H1135 C1093 0.930 . S
H1136 C1095 0.929 . S
H1137 C1096 0.930 . S
H1138 C1097 0.930 . S
H1139 C1098 0.930 . S
H1140 C1102 0.929 . S
H1141 C1104 0.930 . S
H1142 C1110 0.929 . S
H1143 C1111 0.930 . S
Li1144 N1161 1.990 . S
Li1144 O1204 1.956 . S
Li1144 O1205 1.970 . S
Li1144 O1206 1.961 . S
Li1145 N1169 1.990 . S
Li1145 O1204 1.970 . S
Li1145 O1205 1.956 . S
Li1145 O1207 1.961 . S
Li1146 N1191 1.990 . S
Li1146 O1204 1.961 . S
Li1146 O1206 1.956 . S
Li1146 O1207 1.970 . S
Li1147 N1197 1.990 . S
Li1147 O1205 1.961 . S
Li1147 O1206 1.970 . S
Li1147 O1207 1.956 . S
C1148 C1150 1.348 . S
C1148 C1151 1.356 . S
C1148 O1204 1.325 . S
N1149 C1152 1.314 . S
N1149 C1153 1.279 . S
C1150 C1148 1.348 . S
C1150 C1152 1.353 . S
C1150 H1208 0.929 . S
C1151 C1148 1.356 . S
C1151 C1153 1.358 . S
C1151 H1209 0.930 . S
C1152 N1149 1.314 . S
C1152 C1150 1.353 . S
C1152 H1210 0.930 . S
C1153 N1149 1.279 . S
C1153 C1151 1.358 . S
C1153 H1211 0.930 . S
C1154 C1157 1.348 . S
C1154 C1158 1.356 . S
C1154 O1205 1.325 . S
C1155 N1156 1.279 . S
C1155 C1158 1.358 . S
C1155 H1212 0.930 . S
N1156 C1155 1.279 . S
N1156 C1159 1.314 . S
C1157 C1154 1.348 . S
C1157 C1159 1.353 . S
C1157 H1213 0.929 . S
C1158 C1154 1.356 . S
C1158 C1155 1.358 . S
C1158 H1214 0.930 . S
C1159 N1156 1.314 . S
C1159 C1157 1.353 . S
C1159 H1215 0.930 . S
C1160 N1161 1.314 . S
C1160 C1165 1.353 . S
C1160 H1166 0.930 . S
N1161 Li1144 1.990 . S
N1161 C1160 1.314 . S
N1161 C1163 1.279 . S
C1162 C1163 1.358 . S
C1162 C1164 1.356 . S
C1162 H1216 0.930 . S
C1163 N1161 1.279 . S
C1163 C1162 1.358 . S
C1163 H1167 0.930 . S
C1164 C1162 1.356 . S
C1164 C1165 1.348 . S
C1165 C1160 1.353 . S
C1165 C1164 1.348 . S
C1165 H1217 0.929 . S
H1166 C1160 0.930 . S
H1167 C1163 0.930 . S
C1168 N1169 1.314 . S
C1168 C1170 1.353 . S
C1168 H1174 0.930 . S
N1169 Li1145 1.990 . S
N1169 C1168 1.314 . S
N1169 C1172 1.279 . S
C1170 C1168 1.353 . S
C1170 C1173 1.348 . S
C1170 H1218 0.929 . S
C1171 C1172 1.358 . S
C1171 C1173 1.356 . S
C1171 H1219 0.930 . S
C1172 N1169 1.279 . S
C1172 C1171 1.358 . S
C1172 H1175 0.930 . S
C1173 C1170 1.348 . S
C1173 C1171 1.356 . S
H1174 C1168 0.930 . S
H1175 C1172 0.930 . S
C1176 C1178 1.348 . S
C1176 C1179 1.356 . S
C1176 O1206 1.325 . S
N1177 C1180 1.314 . S
N1177 C1181 1.279 . S
C1178 C1176 1.348 . S
C1178 C1180 1.353 . S
C1178 H1220 0.929 . S
C1179 C1176 1.356 . S
C1179 C1181 1.358 . S
C1179 H1221 0.930 . S
C1180 N1177 1.314 . S
C1180 C1178 1.353 . S
C1180 H1222 0.930 . S
C1181 N1177 1.279 . S
C1181 C1179 1.358 . S
C1181 H1223 0.930 . S
C1182 C1183 1.348 . S
C1182 C1184 1.356 . S
C1182 O1207 1.325 . S
C1183 C1182 1.348 . S
C1183 C1185 1.353 . S
C1183 H1224 0.929 . S
C1184 C1182 1.356 . S
C1184 C1186 1.358 . S
C1184 H1225 0.930 . S
C1185 C1183 1.353 . S
C1185 N1187 1.314 . S
C1185 H1226 0.930 . S
C1186 C1184 1.358 . S
C1186 N1187 1.279 . S
C1186 H1227 0.930 . S
N1187 C1185 1.314 . S
N1187 C1186 1.279 . S
C1188 C1190 1.353 . S
C1188 N1191 1.314 . S
C1188 H1194 0.930 . S
C1189 N1191 1.279 . S
C1189 C1192 1.358 . S
C1189 H1195 0.930 . S
C1190 C1188 1.353 . S
C1190 C1193 1.348 . S
C1190 H1228 0.929 . S
N1191 Li1146 1.990 . S
N1191 C1188 1.314 . S
N1191 C1189 1.279 . S
C1192 C1189 1.358 . S
C1192 C1193 1.356 . S
C1192 H1229 0.930 . S
C1193 C1190 1.348 . S
C1193 C1192 1.356 . S
H1194 C1188 0.930 . S
H1195 C1189 0.930 . S
C1196 N1197 1.314 . S
C1196 C1198 1.353 . S
C1196 H1202 0.930 . S
N1197 Li1147 1.990 . S
N1197 C1196 1.314 . S
N1197 C1200 1.279 . S
C1198 C1196 1.353 . S
C1198 C1201 1.348 . S
C1198 H1230 0.929 . S
C1199 C1200 1.358 . S
C1199 C1201 1.356 . S
C1199 H1231 0.930 . S
C1200 N1197 1.279 . S
C1200 C1199 1.358 . S
C1200 H1203 0.930 . S
C1201 C1198 1.348 . S
C1201 C1199 1.356 . S
H1202 C1196 0.930 . S
H1203 C1200 0.930 . S
O1204 Li1144 1.956 . S
O1204 Li1145 1.970 . S
O1204 Li1146 1.961 . S
O1204 C1148 1.325 . S
O1205 Li1144 1.970 . S
O1205 Li1145 1.956 . S
O1205 Li1147 1.961 . S
O1205 C1154 1.325 . S
O1206 Li1144 1.961 . S
O1206 Li1146 1.956 . S
O1206 Li1147 1.970 . S
O1206 C1176 1.325 . S
O1207 Li1145 1.961 . S
O1207 Li1146 1.970 . S
O1207 Li1147 1.956 . S
O1207 C1182 1.325 . S
H1208 C1150 0.929 . S
H1209 C1151 0.930 . S
H1210 C1152 0.930 . S
H1211 C1153 0.930 . S
H1212 C1155 0.930 . S
H1213 C1157 0.929 . S
H1214 C1158 0.930 . S
H1215 C1159 0.930 . S
H1216 C1162 0.930 . S
H1217 C1165 0.929 . S
H1218 C1170 0.929 . S
H1219 C1171 0.930 . S
H1220 C1178 0.929 . S
H1221 C1179 0.930 . S
H1222 C1180 0.930 . S
H1223 C1181 0.930 . S
H1224 C1183 0.929 . S
H1225 C1184 0.930 . S
H1226 C1185 0.930 . S
H1227 C1186 0.930 . S
H1228 C1190 0.929 . S
H1229 C1192 0.930 . S
H1230 C1198 0.929 . S
H1231 C1199 0.930 . S
Li1232 N1249 1.990 . S
Li1232 O1292 1.956 . S
Li1232 O1293 1.970 . S
Li1232 O1294 1.961 . S
Li1233 N1257 1.990 . S
Li1233 O1292 1.970 . S
Li1233 O1293 1.956 . S
Li1233 O1295 1.961 1_455 S
Li1234 N1279 1.990 . S
Li1234 O1292 1.961 . S
Li1234 O1294 1.956 . S
Li1234 O1295 1.970 1_455 S
Li1235 N1285 1.990 . S
Li1235 O1293 1.961 1_655 S
Li1235 O1294 1.970 1_655 S
Li1235 O1295 1.956 . S
C1236 C1238 1.348 . S
C1236 C1239 1.356 . S
C1236 O1292 1.325 . S
N1237 C1240 1.314 . S
N1237 C1241 1.279 . S
C1238 C1236 1.348 . S
C1238 C1240 1.353 . S
C1238 H1296 0.929 . S
C1239 C1236 1.356 . S
C1239 C1241 1.358 . S
C1239 H1297 0.930 . S
C1240 N1237 1.314 . S
C1240 C1238 1.353 . S
C1240 H1298 0.930 . S
C1241 N1237 1.279 . S
C1241 C1239 1.358 . S
C1241 H1299 0.930 . S
C1242 C1245 1.348 . S
C1242 C1246 1.356 . S
C1242 O1293 1.325 . S
C1243 N1244 1.279 . S
C1243 C1246 1.358 . S
C1243 H1300 0.930 1_455 S
N1244 C1243 1.279 . S
N1244 C1247 1.314 . S
C1245 C1242 1.348 . S
C1245 C1247 1.353 . S
C1245 H1301 0.929 . S
C1246 C1242 1.356 . S
C1246 C1243 1.358 . S
C1246 H1302 0.930 1_455 S
C1247 N1244 1.314 . S
C1247 C1245 1.353 . S
C1247 H1303 0.930 . S
C1248 N1249 1.314 . S
C1248 C1253 1.353 . S
C1248 H1254 0.930 . S
N1249 Li1232 1.990 . S
N1249 C1248 1.314 . S
N1249 C1251 1.279 . S
C1250 C1251 1.358 . S
C1250 C1252 1.356 . S
C1250 H1304 0.930 . S
C1251 N1249 1.279 . S
C1251 C1250 1.358 . S
C1251 H1255 0.930 . S
C1252 C1250 1.356 . S
C1252 C1253 1.348 . S
C1253 C1248 1.353 . S
C1253 C1252 1.348 . S
C1253 H1305 0.929 . S
H1254 C1248 0.930 . S
H1255 C1251 0.930 . S
C1256 N1257 1.314 . S
C1256 C1258 1.353 . S
C1256 H1262 0.930 . S
N1257 Li1233 1.990 . S
N1257 C1256 1.314 . S
N1257 C1260 1.279 . S
C1258 C1256 1.353 . S
C1258 C1261 1.348 . S
C1258 H1306 0.929 . S
C1259 C1260 1.358 . S
C1259 C1261 1.356 . S
C1259 H1307 0.930 . S
C1260 N1257 1.279 . S
C1260 C1259 1.358 . S
C1260 H1263 0.930 . S
C1261 C1258 1.348 . S
C1261 C1259 1.356 . S
H1262 C1256 0.930 . S
H1263 C1260 0.930 . S
C1264 C1266 1.348 1_455 S
C1264 C1267 1.356 . S
C1264 O1294 1.325 . S
N1265 C1268 1.314 . S
N1265 C1269 1.279 1_655 S
C1266 C1264 1.348 1_655 S
C1266 C1268 1.353 . S
C1266 H1308 0.929 . S
C1267 C1264 1.356 . S
C1267 C1269 1.358 . S
C1267 H1309 0.930 . S
C1268 N1265 1.314 . S
C1268 C1266 1.353 . S
C1268 H1310 0.930 . S
C1269 N1265 1.279 1_455 S
C1269 C1267 1.358 . S
C1269 H1311 0.930 . S
C1270 C1271 1.348 . S
C1270 C1272 1.356 . S
C1270 O1295 1.325 . S
C1271 C1270 1.348 . S
C1271 C1273 1.353 . S
C1271 H1312 0.929 . S
C1272 C1270 1.356 . S
C1272 C1274 1.358 . S
C1272 H1313 0.930 . S
C1273 C1271 1.353 . S
C1273 N1275 1.314 . S
C1273 H1314 0.930 . S
C1274 C1272 1.358 . S
C1274 N1275 1.279 . S
C1274 H1315 0.930 . S
N1275 C1273 1.314 . S
N1275 C1274 1.279 . S
C1276 C1278 1.353 . S
C1276 N1279 1.314 . S
C1276 H1282 0.930 . S
C1277 N1279 1.261 1_655 S
C1277 C1280 1.365 . S
C1277 H1283 0.947 . S
C1278 C1276 1.353 . S
C1278 C1281 1.348 . S
C1278 H1316 0.929 . S
N1279 Li1234 1.990 . S
N1279 C1276 1.314 . S
N1279 C1277 1.261 1_455 S
C1280 C1277 1.365 . S
C1280 C1281 1.356 1_655 S
C1280 H1317 0.930 . S
C1281 C1278 1.348 . S
C1281 C1280 1.356 1_455 S
H1282 C1276 0.930 . S
H1283 C1277 0.947 . S
C1284 N1285 1.314 . S
C1284 C1286 1.353 . S
C1284 H1290 0.930 . S
N1285 Li1235 1.990 . S
N1285 C1284 1.314 . S
N1285 C1288 1.279 . S
C1286 C1284 1.353 . S
C1286 C1289 1.348 . S
C1286 H1318 0.929 . S
C1287 C1288 1.358 . S
C1287 C1289 1.356 . S
C1287 H1319 0.930 . S
C1288 N1285 1.279 . S
C1288 C1287 1.358 . S
C1288 H1291 0.930 . S
C1289 C1286 1.348 . S
C1289 C1287 1.356 . S
H1290 C1284 0.930 . S
H1291 C1288 0.930 . S
O1292 Li1232 1.956 . S
O1292 Li1233 1.970 . S
O1292 Li1234 1.961 . S
O1292 C1236 1.325 . S
O1293 Li1232 1.970 . S
O1293 Li1233 1.956 . S
O1293 Li1235 1.961 1_455 S
O1293 C1242 1.325 . S
O1294 Li1232 1.961 . S
O1294 Li1234 1.956 . S
O1294 Li1235 1.970 1_455 S
O1294 C1264 1.325 . S
O1295 Li1233 1.961 1_655 S
O1295 Li1234 1.970 1_655 S
O1295 Li1235 1.956 . S
O1295 C1270 1.325 . S
H1296 C1238 0.929 . S
H1297 C1239 0.930 . S
H1298 C1240 0.930 . S
H1299 C1241 0.930 . S
H1300 C1243 0.930 1_655 S
H1301 C1245 0.929 . S
H1302 C1246 0.930 1_655 S
H1303 C1247 0.930 . S
H1304 C1250 0.930 . S
H1305 C1253 0.929 . S
H1306 C1258 0.929 . S
H1307 C1259 0.930 . S
H1308 C1266 0.929 . S
H1309 C1267 0.930 . S
H1310 C1268 0.930 . S
H1311 C1269 0.930 . S
H1312 C1271 0.929 . S
H1313 C1272 0.930 . S
H1314 C1273 0.930 . S
H1315 C1274 0.930 . S
H1316 C1278 0.929 . S
H1317 C1280 0.930 . S
H1318 C1286 0.929 . S
H1319 C1287 0.930 . S
Li1320 N1337 1.990 . S
Li1320 O1380 1.956 . S
Li1320 O1381 1.970 . S
Li1320 O1382 1.961 . S
Li1321 N1345 1.990 . S
Li1321 O1380 1.970 . S
Li1321 O1381 1.956 . S
Li1321 O1383 1.961 1_545 S
Li1322 N1367 1.990 . S
Li1322 O1380 1.961 . S
Li1322 O1382 1.956 . S
Li1322 O1383 1.970 1_545 S
Li1323 N1373 1.990 . S
Li1323 O1381 1.961 1_565 S
Li1323 O1382 1.970 1_565 S
Li1323 O1383 1.956 . S
C1324 C1326 1.348 . S
C1324 C1327 1.356 . S
C1324 O1380 1.325 . S
N1325 C1328 1.314 . S
N1325 C1329 1.279 . S
C1326 C1324 1.348 . S
C1326 C1328 1.353 . S
C1326 H1384 0.929 . S
C1327 C1324 1.356 . S
C1327 C1329 1.358 . S
C1327 H1385 0.930 . S
C1328 N1325 1.314 . S
C1328 C1326 1.353 . S
C1328 H1386 0.930 . S
C1329 N1325 1.279 . S
C1329 C1327 1.358 . S
C1329 H1387 0.930 . S
C1330 C1333 1.348 . S
C1330 C1334 1.356 . S
C1330 O1381 1.325 . S
C1331 N1332 1.279 . S
C1331 C1334 1.358 . S
C1331 H1388 0.930 1_545 S
N1332 C1331 1.279 . S
N1332 C1335 1.314 . S
C1333 C1330 1.348 . S
C1333 C1335 1.353 . S
C1333 H1389 0.929 . S
C1334 C1330 1.356 . S
C1334 C1331 1.358 . S
C1334 H1390 0.930 1_545 S
C1335 N1332 1.314 . S
C1335 C1333 1.353 . S
C1335 H1391 0.930 . S
C1336 N1337 1.314 . S
C1336 C1341 1.353 . S
C1336 H1342 0.930 . S
N1337 Li1320 1.990 . S
N1337 C1336 1.314 . S
N1337 C1339 1.279 . S
C1338 C1339 1.358 . S
C1338 C1340 1.356 . S
C1338 H1392 0.930 . S
C1339 N1337 1.279 . S
C1339 C1338 1.358 . S
C1339 H1343 0.930 . S
C1340 C1338 1.356 . S
C1340 C1341 1.348 . S
C1341 C1336 1.353 . S
C1341 C1340 1.348 . S
C1341 H1393 0.929 . S
H1342 C1336 0.930 . S
H1343 C1339 0.930 . S
C1344 N1345 1.314 . S
C1344 C1346 1.353 . S
C1344 H1350 0.930 . S
N1345 Li1321 1.990 . S
N1345 C1344 1.314 . S
N1345 C1348 1.279 . S
C1346 C1344 1.353 . S
C1346 C1349 1.348 . S
C1346 H1394 0.929 . S
C1347 C1348 1.358 . S
C1347 C1349 1.356 . S
C1347 H1395 0.930 . S
C1348 N1345 1.279 . S
C1348 C1347 1.358 . S
C1348 H1351 0.930 . S
C1349 C1346 1.348 . S
C1349 C1347 1.356 . S
H1350 C1344 0.930 . S
H1351 C1348 0.930 . S
C1352 C1354 1.348 1_545 S
C1352 C1355 1.356 . S
C1352 O1382 1.325 . S
N1353 C1356 1.314 . S
N1353 C1357 1.279 1_565 S
C1354 C1352 1.348 1_565 S
C1354 C1356 1.353 . S
C1354 H1396 0.929 . S
C1355 C1352 1.356 . S
C1355 C1357 1.358 . S
C1355 H1397 0.930 . S
C1356 N1353 1.314 . S
C1356 C1354 1.353 . S
C1356 H1398 0.930 . S
C1357 N1353 1.279 1_545 S
C1357 C1355 1.358 . S
C1357 H1399 0.930 . S
C1358 C1359 1.348 . S
C1358 C1360 1.356 . S
C1358 O1383 1.325 . S
C1359 C1358 1.348 . S
C1359 C1361 1.353 . S
C1359 H1400 0.929 . S
C1360 C1358 1.356 . S
C1360 C1362 1.358 . S
C1360 H1401 0.930 . S
C1361 C1359 1.353 . S
C1361 N1363 1.314 . S
C1361 H1402 0.930 . S
C1362 C1360 1.358 . S
C1362 N1363 1.279 . S
C1362 H1403 0.930 . S
N1363 C1361 1.314 . S
N1363 C1362 1.279 . S
C1364 C1366 1.353 . S
C1364 N1367 1.314 . S
C1364 H1370 0.930 . S
C1365 N1367 1.261 1_565 S
C1365 C1368 1.365 . S
C1365 H1371 0.947 . S
C1366 C1364 1.353 . S
C1366 C1369 1.348 . S
C1366 H1404 0.929 . S
N1367 Li1322 1.990 . S
N1367 C1364 1.314 . S
N1367 C1365 1.261 1_545 S
C1368 C1365 1.365 . S
C1368 C1369 1.356 1_565 S
C1368 H1405 0.930 . S
C1369 C1366 1.348 . S
C1369 C1368 1.356 1_545 S
H1370 C1364 0.930 . S
H1371 C1365 0.947 . S
C1372 N1373 1.314 . S
C1372 C1374 1.353 . S
C1372 H1378 0.930 . S
N1373 Li1323 1.990 . S
N1373 C1372 1.314 . S
N1373 C1376 1.279 . S
C1374 C1372 1.353 . S
C1374 C1377 1.348 . S
C1374 H1406 0.929 . S
C1375 C1376 1.358 . S
C1375 C1377 1.356 . S
C1375 H1407 0.930 . S
C1376 N1373 1.279 . S
C1376 C1375 1.358 . S
C1376 H1379 0.930 . S
C1377 C1374 1.348 . S
C1377 C1375 1.356 . S
H1378 C1372 0.930 . S
H1379 C1376 0.930 . S
O1380 Li1320 1.956 . S
O1380 Li1321 1.970 . S
O1380 Li1322 1.961 . S
O1380 C1324 1.325 . S
O1381 Li1320 1.970 . S
O1381 Li1321 1.956 . S
O1381 Li1323 1.961 1_545 S
O1381 C1330 1.325 . S
O1382 Li1320 1.961 . S
O1382 Li1322 1.956 . S
O1382 Li1323 1.970 1_545 S
O1382 C1352 1.325 . S
O1383 Li1321 1.961 1_565 S
O1383 Li1322 1.970 1_565 S
O1383 Li1323 1.956 . S
O1383 C1358 1.325 . S
H1384 C1326 0.929 . S
H1385 C1327 0.930 . S
H1386 C1328 0.930 . S
H1387 C1329 0.930 . S
H1388 C1331 0.930 1_565 S
H1389 C1333 0.929 . S
H1390 C1334 0.930 1_565 S
H1391 C1335 0.930 . S
H1392 C1338 0.930 . S
H1393 C1341 0.929 . S
H1394 C1346 0.929 . S
H1395 C1347 0.930 . S
H1396 C1354 0.929 . S
H1397 C1355 0.930 . S
H1398 C1356 0.930 . S
H1399 C1357 0.930 . S
H1400 C1359 0.929 . S
H1401 C1360 0.930 . S
H1402 C1361 0.930 . S
H1403 C1362 0.930 . S
H1404 C1366 0.929 . S
H1405 C1368 0.930 . S
H1406 C1374 0.929 . S
H1407 C1375 0.930 . S
H1408 C1414 0.930 . S
H1409 C1417 0.930 . S
H1410 C1418 0.930 . S
H1411 C1419 0.930 . S
H1412 C1422 0.930 . S
H1413 C1423 0.930 . S
C1414 H1408 0.930 . S
C1414 C1415 1.355 . S
C1414 C1416 1.415 . S
C1415 C1414 1.355 . S
C1415 C1417 1.419 . S
C1416 C1414 1.415 . S
C1416 C1421 1.425 . S
C1416 C1423 1.409 . S
C1417 H1409 0.930 . S
C1417 C1415 1.419 . S
C1417 C1418 1.362 . S
C1418 H1410 0.930 . S
C1418 C1417 1.362 . S
C1418 C1421 1.409 . S
C1419 H1411 0.930 . S
C1419 C1420 1.355 . S
C1419 C1421 1.415 . S
C1420 C1419 1.355 . S
C1420 C1422 1.419 . S
C1421 C1416 1.425 . S
C1421 C1418 1.409 . S
C1421 C1419 1.415 . S
C1422 H1412 0.930 . S
C1422 C1420 1.419 . S
C1422 C1423 1.362 . S
C1423 H1413 0.930 . S
C1423 C1416 1.409 . S
C1423 C1422 1.362 . S
H1424 C1430 0.930 . S
H1425 C1433 0.930 . S
H1426 C1434 0.930 . S
H1427 C1435 0.930 . S
H1428 C1438 0.930 . S
H1429 C1439 0.930 . S
C1430 H1424 0.930 . S
C1430 C1431 1.355 . S
C1430 C1432 1.415 . S
C1431 C1430 1.355 . S
C1431 C1433 1.419 . S
C1432 C1430 1.415 . S
C1432 C1437 1.425 . S
C1432 C1439 1.409 . S
C1433 H1425 0.930 . S
C1433 C1431 1.419 . S
C1433 C1434 1.362 . S
C1434 H1426 0.930 . S
C1434 C1433 1.362 . S
C1434 C1437 1.409 . S
C1435 H1427 0.930 . S
C1435 C1436 1.355 . S
C1435 C1437 1.415 . S
C1436 C1435 1.355 . S
C1436 C1438 1.419 . S
C1437 C1432 1.425 . S
C1437 C1434 1.409 . S
C1437 C1435 1.415 . S
C1438 H1428 0.930 . S
C1438 C1436 1.419 . S
C1438 C1439 1.362 . S
C1439 H1429 0.930 . S
C1439 C1432 1.409 . S
C1439 C1438 1.362 . S
H1440 C1446 0.930 . S
H1441 C1449 0.930 . S
H1442 C1450 0.930 . S
H1443 C1451 0.930 . S
H1444 C1454 0.930 . S
H1445 C1455 0.930 . S
C1446 H1440 0.930 . S
C1446 C1447 1.355 . S
C1446 C1448 1.415 . S
C1447 C1446 1.355 . S
C1447 C1449 1.419 . S
C1448 C1446 1.415 . S
C1448 C1453 1.425 . S
C1448 C1455 1.409 . S
C1449 H1441 0.930 . S
C1449 C1447 1.419 . S
C1449 C1450 1.362 . S
C1450 H1442 0.930 . S
C1450 C1449 1.362 . S
C1450 C1453 1.409 . S
C1451 H1443 0.930 . S
C1451 C1452 1.355 . S
C1451 C1453 1.415 . S
C1452 C1451 1.355 . S
C1452 C1454 1.419 . S
C1453 C1448 1.425 . S
C1453 C1450 1.409 . S
C1453 C1451 1.415 . S
C1454 H1444 0.930 . S
C1454 C1452 1.419 . S
C1454 C1455 1.362 . S
C1455 H1445 0.930 . S
C1455 C1448 1.409 . S
C1455 C1454 1.362 . S
H1456 C1462 0.930 . S
H1457 C1465 0.930 . S
H1458 C1466 0.930 . S
H1459 C1467 0.930 . S
H1460 C1470 0.930 . S
H1461 C1471 0.930 . S
C1462 H1456 0.930 . S
C1462 C1463 1.355 . S
C1462 C1464 1.415 . S
C1463 C1462 1.355 . S
C1463 C1465 1.419 . S
C1464 C1462 1.415 . S
C1464 C1469 1.425 . S
C1464 C1471 1.409 . S
C1465 H1457 0.930 . S
C1465 C1463 1.419 . S
C1465 C1466 1.362 . S
C1466 H1458 0.930 . S
C1466 C1465 1.362 . S
C1466 C1469 1.409 . S
C1467 H1459 0.930 . S
C1467 C1468 1.355 . S
C1467 C1469 1.415 . S
C1468 C1467 1.355 . S
C1468 C1470 1.419 . S
C1469 C1464 1.425 . S
C1469 C1466 1.409 . S
C1469 C1467 1.415 . S
C1470 H1460 0.930 . S
C1470 C1468 1.419 . S
C1470 C1471 1.362 . S
C1471 H1461 0.930 . S
C1471 C1464 1.409 . S
C1471 C1470 1.362 . S
H1472 C1478 0.930 . S
H1473 C1481 0.930 . S
H1474 C1482 0.930 . S
H1475 C1483 0.930 . S
H1476 C1486 0.930 . S
H1477 C1487 0.930 . S
C1478 H1472 0.930 . S
C1478 C1479 1.355 . S
C1478 C1480 1.415 . S
C1479 C1478 1.355 . S
C1479 C1481 1.419 . S
C1480 C1478 1.415 . S
C1480 C1485 1.425 . S
C1480 C1487 1.409 . S
C1481 H1473 0.930 . S
C1481 C1479 1.419 . S
C1481 C1482 1.362 . S
C1482 H1474 0.930 . S
C1482 C1481 1.362 . S
C1482 C1485 1.409 . S
C1483 H1475 0.930 . S
C1483 C1484 1.355 . S
C1483 C1485 1.415 . S
C1484 C1483 1.355 . S
C1484 C1486 1.419 . S
C1485 C1480 1.425 . S
C1485 C1482 1.409 . S
C1485 C1483 1.415 . S
C1486 H1476 0.930 . S
C1486 C1484 1.419 . S
C1486 C1487 1.362 . S
C1487 H1477 0.930 . S
C1487 C1480 1.409 . S
C1487 C1486 1.362 . S
H1488 C1494 0.930 . S
H1489 C1497 0.930 . S
H1490 C1498 0.930 . S
H1491 C1499 0.930 . S
H1492 C1502 0.930 . S
H1493 C1503 0.930 . S
C1494 H1488 0.930 . S
C1494 C1495 1.355 . S
C1494 C1496 1.415 . S
C1495 C1494 1.355 . S
C1495 C1497 1.419 . S
C1496 C1494 1.415 . S
C1496 C1501 1.425 . S
C1496 C1503 1.409 . S
C1497 H1489 0.930 . S
C1497 C1495 1.419 . S
C1497 C1498 1.362 . S
C1498 H1490 0.930 . S
C1498 C1497 1.362 . S
C1498 C1501 1.409 . S
C1499 H1491 0.930 . S
C1499 C1500 1.355 . S
C1499 C1501 1.415 . S
C1500 C1499 1.355 . S
C1500 C1502 1.419 . S
C1501 C1496 1.425 . S
C1501 C1498 1.409 . S
C1501 C1499 1.415 . S
C1502 H1492 0.930 . S
C1502 C1500 1.419 . S
C1502 C1503 1.362 . S
C1503 H1493 0.930 . S
C1503 C1496 1.409 . S
C1503 C1502 1.362 . S
H1504 C1510 0.930 . S
H1505 C1513 0.930 . S
H1506 C1514 0.930 . S
H1507 C1515 0.930 . S
H1508 C1518 0.930 . S
H1509 C1519 0.930 . S
C1510 H1504 0.930 . S
C1510 C1511 1.355 . S
C1510 C1512 1.415 . S
C1511 C1510 1.355 . S
C1511 C1513 1.419 . S
C1512 C1510 1.415 . S
C1512 C1517 1.425 . S
C1512 C1519 1.409 . S
C1513 H1505 0.930 . S
C1513 C1511 1.419 . S
C1513 C1514 1.362 . S
C1514 H1506 0.930 . S
C1514 C1513 1.362 . S
C1514 C1517 1.409 . S
C1515 H1507 0.930 . S
C1515 C1516 1.355 . S
C1515 C1517 1.415 . S
C1516 C1515 1.355 . S
C1516 C1518 1.419 . S
C1517 C1512 1.425 . S
C1517 C1514 1.409 . S
C1517 C1515 1.415 . S
C1518 H1508 0.930 . S
C1518 C1516 1.419 . S
C1518 C1519 1.362 . S
C1519 H1509 0.930 . S
C1519 C1512 1.409 . S
C1519 C1518 1.362 . S
H1520 C1526 0.930 . S
H1521 C1529 0.930 . S
H1522 C1530 0.930 . S
H1523 C1531 0.930 . S
H1524 C1534 0.930 . S
H1525 C1535 0.930 . S
C1526 H1520 0.930 . S
C1526 C1527 1.355 . S
C1526 C1528 1.415 . S
C1527 C1526 1.355 . S
C1527 C1529 1.419 . S
C1528 C1526 1.415 . S
C1528 C1533 1.425 . S
C1528 C1535 1.409 . S
C1529 H1521 0.930 . S
C1529 C1527 1.419 . S
C1529 C1530 1.362 . S
C1530 H1522 0.930 . S
C1530 C1529 1.362 . S
C1530 C1533 1.409 . S
C1531 H1523 0.930 . S
C1531 C1532 1.355 . S
C1531 C1533 1.415 . S
C1532 C1531 1.355 . S
C1532 C1534 1.419 . S
C1533 C1528 1.425 . S
C1533 C1530 1.409 . S
C1533 C1531 1.415 . S
C1534 H1524 0.930 . S
C1534 C1532 1.419 . S
C1534 C1535 1.362 . S
C1535 H1525 0.930 . S
C1535 C1528 1.409 . S
C1535 C1534 1.362 . S
H1536 C1542 0.930 . S
H1537 C1545 0.930 . S
H1538 C1546 0.930 . S
H1539 C1547 0.930 . S
H1540 C1550 0.930 . S
H1541 C1551 0.930 . S
C1542 H1536 0.930 . S
C1542 C1543 1.355 . S
C1542 C1544 1.415 . S
C1543 C1542 1.355 . S
C1543 C1545 1.419 . S
C1544 C1542 1.415 . S
C1544 C1549 1.425 . S
C1544 C1551 1.409 . S
C1545 H1537 0.930 . S
C1545 C1543 1.419 . S
C1545 C1546 1.362 . S
C1546 H1538 0.930 . S
C1546 C1545 1.362 . S
C1546 C1549 1.409 . S
C1547 H1539 0.930 . S
C1547 C1548 1.355 . S
C1547 C1549 1.415 . S
C1548 C1547 1.355 . S
C1548 C1550 1.419 . S
C1549 C1544 1.425 . S
C1549 C1546 1.409 . S
C1549 C1547 1.415 . S
C1550 H1540 0.930 . S
C1550 C1548 1.419 . S
C1550 C1551 1.362 . S
C1551 H1541 0.930 . S
C1551 C1544 1.409 . S
C1551 C1550 1.362 . S
H1552 C1558 0.930 . S
H1553 C1561 0.930 . S
H1554 C1562 0.930 . S
H1555 C1563 0.930 . S
H1556 C1566 0.930 . S
H1557 C1567 0.930 . S
C1558 H1552 0.930 . S
C1558 C1559 1.355 . S
C1558 C1560 1.415 . S
C1559 C1558 1.355 . S
C1559 C1561 1.419 . S
C1560 C1558 1.415 . S
C1560 C1565 1.425 . S
C1560 C1567 1.409 . S
C1561 H1553 0.930 . S
C1561 C1559 1.419 . S
C1561 C1562 1.362 . S
C1562 H1554 0.930 . S
C1562 C1561 1.362 . S
C1562 C1565 1.409 . S
C1563 H1555 0.930 . S
C1563 C1564 1.355 . S
C1563 C1565 1.415 . S
C1564 C1563 1.355 . S
C1564 C1566 1.419 . S
C1565 C1560 1.425 . S
C1565 C1562 1.409 . S
C1565 C1563 1.415 . S
C1566 H1556 0.930 . S
C1566 C1564 1.419 . S
C1566 C1567 1.362 . S
C1567 H1557 0.930 . S
C1567 C1560 1.409 . S
C1567 C1566 1.362 . S
H1568 C1574 0.930 . S
H1569 C1577 0.930 . S
H1570 C1578 0.930 . S
H1571 C1579 0.930 . S
H1572 C1582 0.930 . S
H1573 C1583 0.930 . S
C1574 H1568 0.930 . S
C1574 C1575 1.355 . S
C1574 C1576 1.415 . S
C1575 C1574 1.355 . S
C1575 C1577 1.419 . S
C1576 C1574 1.415 . S
C1576 C1581 1.425 . S
C1576 C1583 1.409 . S
C1577 H1569 0.930 . S
C1577 C1575 1.419 . S
C1577 C1578 1.362 . S
C1578 H1570 0.930 . S
C1578 C1577 1.362 . S
C1578 C1581 1.409 . S
C1579 H1571 0.930 . S
C1579 C1580 1.355 . S
C1579 C1581 1.415 . S
C1580 C1579 1.355 . S
C1580 C1582 1.419 . S
C1581 C1576 1.425 . S
C1581 C1578 1.409 . S
C1581 C1579 1.415 . S
C1582 H1572 0.930 . S
C1582 C1580 1.419 . S
C1582 C1583 1.362 . S
C1583 H1573 0.930 . S
C1583 C1576 1.409 . S
C1583 C1582 1.362 . S
H1584 C1590 0.930 . S
H1585 C1593 0.930 . S
H1586 C1594 0.930 . S
H1587 C1595 0.930 . S
H1588 C1598 0.930 . S
H1589 C1599 0.930 . S
C1590 H1584 0.930 . S
C1590 C1591 1.355 . S
C1590 C1592 1.415 . S
C1591 C1590 1.355 . S
C1591 C1593 1.419 . S
C1592 C1590 1.415 . S
C1592 C1597 1.425 . S
C1592 C1599 1.409 . S
C1593 H1585 0.930 . S
C1593 C1591 1.419 . S
C1593 C1594 1.362 . S
C1594 H1586 0.930 . S
C1594 C1593 1.362 . S
C1594 C1597 1.409 . S
C1595 H1587 0.930 . S
C1595 C1596 1.355 . S
C1595 C1597 1.415 . S
C1596 C1595 1.355 . S
C1596 C1598 1.419 . S
C1597 C1592 1.425 . S
C1597 C1594 1.409 . S
C1597 C1595 1.415 . S
C1598 H1588 0.930 . S
C1598 C1596 1.419 . S
C1598 C1599 1.362 . S
C1599 H1589 0.930 . S
C1599 C1592 1.409 . S
C1599 C1598 1.362 . S
H1600 C1606 0.930 . S
H1601 C1609 0.930 . S
H1602 C1610 0.930 . S
H1603 C1611 0.930 . S
H1604 C1614 0.930 . S
H1605 C1615 0.930 . S
C1606 H1600 0.930 . S
C1606 C1607 1.355 . S
C1606 C1608 1.415 . S
C1607 C1606 1.355 . S
C1607 C1609 1.419 . S
C1608 C1606 1.415 . S
C1608 C1613 1.425 . S
C1608 C1615 1.409 . S
C1609 H1601 0.930 . S
C1609 C1607 1.419 . S
C1609 C1610 1.362 . S
C1610 H1602 0.930 . S
C1610 C1609 1.362 . S
C1610 C1613 1.409 . S
C1611 H1603 0.930 . S
C1611 C1612 1.355 . S
C1611 C1613 1.415 . S
C1612 C1611 1.355 . S
C1612 C1614 1.419 . S
C1613 C1608 1.425 . S
C1613 C1610 1.409 . S
C1613 C1611 1.415 . S
C1614 H1604 0.930 . S
C1614 C1612 1.419 . S
C1614 C1615 1.362 . S
C1615 H1605 0.930 . S
C1615 C1608 1.409 . S
C1615 C1614 1.362 . S
H1616 C1622 0.930 . S
H1617 C1625 0.930 . S
H1618 C1626 0.930 . S
H1619 C1627 0.930 . S
H1620 C1630 0.930 . S
H1621 C1631 0.930 . S
C1622 H1616 0.930 . S
C1622 C1623 1.355 . S
C1622 C1624 1.415 . S
C1623 C1622 1.355 . S
C1623 C1625 1.419 . S
C1624 C1622 1.415 . S
C1624 C1629 1.425 . S
C1624 C1631 1.409 . S
C1625 H1617 0.930 . S
C1625 C1623 1.419 . S
C1625 C1626 1.362 . S
C1626 H1618 0.930 . S
C1626 C1625 1.362 . S
C1626 C1629 1.409 . S
C1627 H1619 0.930 . S
C1627 C1628 1.355 . S
C1627 C1629 1.415 . S
C1628 C1627 1.355 . S
C1628 C1630 1.419 . S
C1629 C1624 1.425 . S
C1629 C1626 1.409 . S
C1629 C1627 1.415 . S
C1630 H1620 0.930 . S
C1630 C1628 1.419 . S
C1630 C1631 1.362 . S
C1631 H1621 0.930 . S
C1631 C1624 1.409 . S
C1631 C1630 1.362 . S
H1632 C1638 0.930 . S
H1633 C1641 0.930 . S
H1634 C1642 0.930 . S
H1635 C1643 0.930 . S
H1636 C1646 0.930 . S
H1637 C1647 0.930 . S
C1638 H1632 0.930 . S
C1638 C1639 1.355 . S
C1638 C1640 1.415 . S
C1639 C1638 1.355 . S
C1639 C1641 1.419 . S
C1640 C1638 1.415 . S
C1640 C1645 1.425 . S
C1640 C1647 1.409 . S
C1641 H1633 0.930 . S
C1641 C1639 1.419 . S
C1641 C1642 1.362 . S
C1642 H1634 0.930 . S
C1642 C1641 1.362 . S
C1642 C1645 1.409 . S
C1643 H1635 0.930 . S
C1643 C1644 1.355 . S
C1643 C1645 1.415 . S
C1644 C1643 1.355 . S
C1644 C1646 1.419 . S
C1645 C1640 1.425 . S
C1645 C1642 1.409 . S
C1645 C1643 1.415 . S
C1646 H1636 0.930 . S
C1646 C1644 1.419 . S
C1646 C1647 1.362 . S
C1647 H1637 0.930 . S
C1647 C1640 1.409 . S
C1647 C1646 1.362 . S
H1648 C1654 0.930 . S
H1649 C1657 0.930 . S
H1650 C1658 0.930 . S
H1651 C1659 0.930 . S
H1652 C1662 0.930 . S
H1653 C1663 0.930 . S
C1654 H1648 0.930 . S
C1654 C1655 1.355 . S
C1654 C1656 1.415 . S
C1655 C1654 1.355 . S
C1655 C1657 1.419 . S
C1656 C1654 1.415 . S
C1656 C1661 1.425 . S
C1656 C1663 1.409 . S
C1657 H1649 0.930 . S
C1657 C1655 1.419 . S
C1657 C1658 1.362 . S
C1658 H1650 0.930 . S
C1658 C1657 1.362 . S
C1658 C1661 1.409 . S
C1659 H1651 0.930 . S
C1659 C1660 1.355 . S
C1659 C1661 1.415 . S
C1660 C1659 1.355 . S
C1660 C1662 1.419 . S
C1661 C1656 1.425 . S
C1661 C1658 1.409 . S
C1661 C1659 1.415 . S
C1662 H1652 0.930 . S
C1662 C1660 1.419 . S
C1662 C1663 1.362 . S
C1663 H1653 0.930 . S
C1663 C1656 1.409 . S
C1663 C1662 1.362 . S
H1664 C1670 0.930 . S
H1665 C1673 0.930 . S
H1666 C1674 0.930 . S
H1667 C1675 0.930 . S
H1668 C1678 0.930 . S
H1669 C1679 0.930 . S
C1670 H1664 0.930 . S
C1670 C1671 1.355 . S
C1670 C1672 1.415 . S
C1671 C1670 1.355 . S
C1671 C1673 1.419 . S
C1672 C1670 1.415 . S
C1672 C1677 1.425 . S
C1672 C1679 1.409 . S
C1673 H1665 0.930 . S
C1673 C1671 1.419 . S
C1673 C1674 1.362 . S
C1674 H1666 0.930 . S
C1674 C1673 1.362 . S
C1674 C1677 1.409 . S
C1675 H1667 0.930 . S
C1675 C1676 1.355 . S
C1675 C1677 1.415 . S
C1676 C1675 1.355 . S
C1676 C1678 1.419 . S
C1677 C1672 1.425 . S
C1677 C1674 1.409 . S
C1677 C1675 1.415 . S
C1678 H1668 0.930 . S
C1678 C1676 1.419 . S
C1678 C1679 1.362 . S
C1679 H1669 0.930 . S
C1679 C1672 1.409 . S
C1679 C1678 1.362 . S
H1680 C1686 0.930 . S
H1681 C1689 0.930 . S
H1682 C1690 0.930 . S
H1683 C1691 0.930 . S
H1684 C1694 0.930 . S
H1685 C1695 0.930 . S
C1686 H1680 0.930 . S
C1686 C1687 1.355 . S
C1686 C1688 1.415 . S
C1687 C1686 1.355 . S
C1687 C1689 1.419 . S
C1688 C1686 1.415 . S
C1688 C1693 1.425 . S
C1688 C1695 1.409 . S
C1689 H1681 0.930 . S
C1689 C1687 1.419 . S
C1689 C1690 1.362 . S
C1690 H1682 0.930 . S
C1690 C1689 1.362 . S
C1690 C1693 1.409 . S
C1691 H1683 0.930 . S
C1691 C1692 1.355 . S
C1691 C1693 1.415 . S
C1692 C1691 1.355 . S
C1692 C1694 1.419 . S
C1693 C1688 1.425 . S
C1693 C1690 1.409 . S
C1693 C1691 1.415 . S
C1694 H1684 0.930 . S
C1694 C1692 1.419 . S
C1694 C1695 1.362 . S
C1695 H1685 0.930 . S
C1695 C1688 1.409 . S
C1695 C1694 1.362 . S
H1696 C1702 0.930 . S
H1697 C1705 0.930 . S
H1698 C1706 0.930 . S
H1699 C1707 0.930 . S
H1700 C1710 0.930 . S
H1701 C1711 0.930 . S
C1702 H1696 0.930 . S
C1702 C1703 1.355 . S
C1702 C1704 1.415 . S
C1703 C1702 1.355 . S
C1703 C1705 1.419 . S
C1704 C1702 1.415 . S
C1704 C1709 1.425 . S
C1704 C1711 1.409 . S
C1705 H1697 0.930 . S
C1705 C1703 1.419 . S
C1705 C1706 1.362 . S
C1706 H1698 0.930 . S
C1706 C1705 1.362 . S
C1706 C1709 1.409 . S
C1707 H1699 0.930 . S
C1707 C1708 1.355 . S
C1707 C1709 1.415 . S
C1708 C1707 1.355 . S
C1708 C1710 1.419 . S
C1709 C1704 1.425 . S
C1709 C1706 1.409 . S
C1709 C1707 1.415 . S
C1710 H1700 0.930 . S
C1710 C1708 1.419 . S
C1710 C1711 1.362 . S
C1711 H1701 0.930 . S
C1711 C1704 1.409 . S
C1711 C1710 1.362 . S
H1712 C1718 0.930 . S
H1713 C1721 0.930 . S
H1714 C1722 0.930 . S
H1715 C1723 0.930 . S
H1716 C1726 0.930 . S
H1717 C1727 0.930 . S
C1718 H1712 0.930 . S
C1718 C1719 1.355 . S
C1718 C1720 1.415 . S
C1719 C1718 1.355 . S
C1719 C1721 1.419 . S
C1720 C1718 1.415 . S
C1720 C1725 1.425 . S
C1720 C1727 1.409 . S
C1721 H1713 0.930 . S
C1721 C1719 1.419 . S
C1721 C1722 1.362 . S
C1722 H1714 0.930 . S
C1722 C1721 1.362 . S
C1722 C1725 1.409 . S
C1723 H1715 0.930 . S
C1723 C1724 1.355 . S
C1723 C1725 1.415 . S
C1724 C1723 1.355 . S
C1724 C1726 1.419 . S
C1725 C1720 1.425 . S
C1725 C1722 1.409 . S
C1725 C1723 1.415 . S
C1726 H1716 0.930 . S
C1726 C1724 1.419 . S
C1726 C1727 1.362 . S
C1727 H1717 0.930 . S
C1727 C1720 1.409 . S
C1727 C1726 1.362 . S
H1728 C1734 0.930 . S
H1729 C1737 0.930 . S
H1730 C1738 0.930 . S
H1731 C1739 0.930 . S
H1732 C1742 0.930 . S
H1733 C1743 0.930 . S
C1734 H1728 0.930 . S
C1734 C1735 1.355 . S
C1734 C1736 1.415 . S
C1735 C1734 1.355 . S
C1735 C1737 1.419 . S
C1736 C1734 1.415 . S
C1736 C1741 1.425 . S
C1736 C1743 1.409 . S
C1737 H1729 0.930 . S
C1737 C1735 1.419 . S
C1737 C1738 1.362 . S
C1738 H1730 0.930 . S
C1738 C1737 1.362 . S
C1738 C1741 1.409 . S
C1739 H1731 0.930 . S
C1739 C1740 1.355 . S
C1739 C1741 1.415 . S
C1740 C1739 1.355 . S
C1740 C1742 1.419 . S
C1741 C1736 1.425 . S
C1741 C1738 1.409 . S
C1741 C1739 1.415 . S
C1742 H1732 0.930 . S
C1742 C1740 1.419 . S
C1742 C1743 1.362 . S
C1743 H1733 0.930 . S
C1743 C1736 1.409 . S
C1743 C1742 1.362 . S
H1744 C1750 0.930 . S
H1745 C1753 0.930 . S
H1746 C1754 0.930 . S
H1747 C1755 0.930 . S
H1748 C1758 0.930 . S
H1749 C1759 0.930 . S
C1750 H1744 0.930 . S
C1750 C1751 1.355 . S
C1750 C1752 1.415 . S
C1751 C1750 1.355 . S
C1751 C1753 1.419 . S
C1752 C1750 1.415 . S
C1752 C1757 1.425 . S
C1752 C1759 1.409 . S
C1753 H1745 0.930 . S
C1753 C1751 1.419 . S
C1753 C1754 1.362 . S
C1754 H1746 0.930 . S
C1754 C1753 1.362 . S
C1754 C1757 1.409 . S
C1755 H1747 0.930 . S
C1755 C1756 1.355 . S
C1755 C1757 1.415 . S
C1756 C1755 1.355 . S
C1756 C1758 1.419 . S
C1757 C1752 1.425 . S
C1757 C1754 1.409 . S
C1757 C1755 1.415 . S
C1758 H1748 0.930 . S
C1758 C1756 1.419 . S
C1758 C1759 1.362 . S
C1759 H1749 0.930 . S
C1759 C1752 1.409 . S
C1759 C1758 1.362 . S
H1760 C1766 0.930 . S
H1761 C1769 0.930 . S
H1762 C1770 0.930 . S
H1763 C1771 0.930 . S
H1764 C1774 0.930 . S
H1765 C1775 0.930 . S
C1766 H1760 0.930 . S
C1766 C1767 1.355 . S
C1766 C1768 1.415 . S
C1767 C1766 1.355 . S
C1767 C1769 1.419 . S
C1768 C1766 1.415 . S
C1768 C1773 1.425 . S
C1768 C1775 1.409 . S
C1769 H1761 0.930 . S
C1769 C1767 1.419 . S
C1769 C1770 1.362 . S
C1770 H1762 0.930 . S
C1770 C1769 1.362 . S
C1770 C1773 1.409 . S
C1771 H1763 0.930 . S
C1771 C1772 1.355 . S
C1771 C1773 1.415 . S
C1772 C1771 1.355 . S
C1772 C1774 1.419 . S
C1773 C1768 1.425 . S
C1773 C1770 1.409 . S
C1773 C1771 1.415 . S
C1774 H1764 0.930 . S
C1774 C1772 1.419 . S
C1774 C1775 1.362 . S
C1775 H1765 0.930 . S
C1775 C1768 1.409 . S
C1775 C1774 1.362 . S
H1776 C1782 0.930 . S
H1777 C1785 0.930 . S
H1778 C1786 0.930 . S
H1779 C1787 0.930 . S
H1780 C1790 0.930 . S
H1781 C1791 0.930 . S
C1782 H1776 0.930 . S
C1782 C1783 1.355 . S
C1782 C1784 1.415 . S
C1783 C1782 1.355 . S
C1783 C1785 1.419 . S
C1784 C1782 1.415 . S
C1784 C1789 1.425 . S
C1784 C1791 1.409 . S
C1785 H1777 0.930 . S
C1785 C1783 1.419 . S
C1785 C1786 1.362 . S
C1786 H1778 0.930 . S
C1786 C1785 1.362 . S
C1786 C1789 1.409 . S
C1787 H1779 0.930 . S
C1787 C1788 1.355 . S
C1787 C1789 1.415 . S
C1788 C1787 1.355 . S
C1788 C1790 1.419 . S
C1789 C1784 1.425 . S
C1789 C1786 1.409 . S
C1789 C1787 1.415 . S
C1790 H1780 0.930 . S
C1790 C1788 1.419 . S
C1790 C1791 1.362 . S
C1791 H1781 0.930 . S
C1791 C1784 1.409 . S
C1791 C1790 1.362 . S
H1792 C1798 0.930 . S
H1793 C1801 0.930 . S
H1794 C1802 0.930 1_556 S
H1795 C1803 0.930 . S
H1796 C1806 0.930 . S
H1797 C1807 0.930 1_554 S
C1798 H1792 0.930 . S
C1798 C1799 1.355 . S
C1798 C1800 1.415 . S
C1799 C1798 1.355 . S
C1799 C1801 1.419 . S
C1800 C1798 1.415 . S
C1800 C1805 1.425 1_554 S
C1800 C1807 1.409 1_554 S
C1801 H1793 0.930 . S
C1801 C1799 1.419 . S
C1801 C1802 1.362 . S
C1802 H1794 0.930 1_554 S
C1802 C1801 1.362 . S
C1802 C1805 1.409 1_554 S
C1803 H1795 0.930 . S
C1803 C1804 1.355 . S
C1803 C1805 1.415 . S
C1804 C1803 1.355 . S
C1804 C1806 1.419 . S
C1805 C1800 1.425 1_556 S
C1805 C1802 1.409 1_556 S
C1805 C1803 1.415 . S
C1806 H1796 0.930 . S
C1806 C1804 1.419 . S
C1806 C1807 1.362 . S
C1807 H1797 0.930 1_556 S
C1807 C1800 1.409 1_556 S
C1807 C1806 1.362 . S
H1808 C1814 0.930 . S
H1809 C1817 0.930 . S
H1810 C1818 0.930 . S
H1811 C1819 0.930 . S
H1812 C1822 0.930 . S
H1813 C1823 0.930 . S
C1814 H1808 0.930 . S
C1814 C1815 1.355 . S
C1814 C1816 1.415 . S
C1815 C1814 1.355 . S
C1815 C1817 1.419 . S
C1816 C1814 1.415 . S
C1816 C1821 1.425 . S
C1816 C1823 1.409 . S
C1817 H1809 0.930 . S
C1817 C1815 1.419 . S
C1817 C1818 1.362 . S
C1818 H1810 0.930 . S
C1818 C1817 1.362 . S
C1818 C1821 1.409 . S
C1819 H1811 0.930 . S
C1819 C1820 1.355 . S
C1819 C1821 1.415 . S
C1820 C1819 1.355 . S
C1820 C1822 1.419 . S
C1821 C1816 1.425 . S
C1821 C1818 1.409 . S
C1821 C1819 1.415 . S
C1822 H1812 0.930 . S
C1822 C1820 1.419 . S
C1822 C1823 1.362 . S
C1823 H1813 0.930 . S
C1823 C1816 1.409 . S
C1823 C1822 1.362 . S
H1824 C1830 0.930 . S
H1825 C1833 0.930 . S
H1826 C1834 0.930 . S
H1827 C1835 0.930 . S
H1828 C1838 0.930 . S
H1829 C1839 0.930 . S
C1830 H1824 0.930 . S
C1830 C1831 1.355 1_455 S
C1830 C1832 1.415 . S
C1831 C1830 1.355 1_655 S
C1831 C1833 1.419 . S
C1832 C1830 1.415 . S
C1832 C1837 1.425 1_454 S
C1832 C1839 1.409 1_554 S
C1833 H1825 0.930 . S
C1833 C1831 1.419 . S
C1833 C1834 1.362 . S
C1834 H1826 0.930 . S
C1834 C1833 1.362 . S
C1834 C1837 1.409 1_554 S
C1835 H1827 0.930 . S
C1835 C1836 1.371 . S
C1835 C1837 1.415 . S
C1836 C1835 1.371 . S
C1836 C1838 1.399 1_655 S
C1837 C1832 1.425 1_656 S
C1837 C1834 1.409 1_556 S
C1837 C1835 1.415 . S
C1838 H1828 0.930 . S
C1838 C1836 1.399 1_455 S
C1838 C1839 1.362 . S
C1839 H1829 0.930 . S
C1839 C1832 1.409 1_556 S
C1839 C1838 1.362 . S
H1840 C1846 0.930 . S
H1841 C1849 0.930 . S
H1842 C1850 0.930 . S
H1843 C1851 0.930 . S
H1844 C1854 0.930 . S
H1845 C1855 0.930 . S
C1846 H1840 0.930 . S
C1846 C1847 1.355 . S
C1846 C1848 1.415 . S
C1847 C1846 1.355 . S
C1847 C1849 1.419 1_565 S
C1848 C1846 1.415 . S
C1848 C1853 1.425 1_565 S
C1848 C1855 1.409 . S
C1849 H1841 0.930 . S
C1849 C1847 1.419 1_545 S
C1849 C1850 1.362 . S
C1850 H1842 0.930 . S
C1850 C1849 1.362 . S
C1850 C1853 1.409 . S
C1851 H1843 0.930 . S
C1851 C1852 1.355 1_545 S
C1851 C1853 1.415 . S
C1852 C1851 1.355 1_565 S
C1852 C1854 1.419 . S
C1853 C1848 1.425 1_545 S
C1853 C1850 1.409 . S
C1853 C1851 1.415 . S
C1854 H1844 0.930 . S
C1854 C1852 1.419 . S
C1854 C1855 1.362 . S
C1855 H1845 0.930 . S
C1855 C1848 1.409 . S
C1855 C1854 1.362 . S
H1856 C1862 0.930 . S
H1857 C1865 0.930 . S
H1858 C1866 0.930 1_554 S
H1859 C1867 0.930 . S
H1860 C1870 0.930 . S
H1861 C1871 0.930 1_556 S
C1862 H1856 0.930 . S
C1862 C1863 1.355 . S
C1862 C1864 1.415 . S
C1863 C1862 1.355 . S
C1863 C1865 1.419 . S
C1864 C1862 1.415 . S
C1864 C1869 1.425 1_556 S
C1864 C1871 1.409 1_556 S
C1865 H1857 0.930 . S
C1865 C1863 1.419 . S
C1865 C1866 1.362 . S
C1866 H1858 0.930 1_556 S
C1866 C1865 1.362 . S
C1866 C1869 1.409 1_556 S
C1867 H1859 0.930 . S
C1867 C1868 1.355 . S
C1867 C1869 1.415 . S
C1868 C1867 1.355 . S
C1868 C1870 1.419 . S
C1869 C1864 1.425 1_554 S
C1869 C1866 1.409 1_554 S
C1869 C1867 1.415 . S
C1870 H1860 0.930 . S
C1870 C1868 1.419 . S
C1870 C1871 1.362 . S
C1871 H1861 0.930 1_554 S
C1871 C1864 1.409 1_554 S
C1871 C1870 1.362 . S
H1872 C1878 0.930 . S
H1873 C1881 0.930 . S
H1874 C1882 0.930 . S
H1875 C1883 0.930 . S
H1876 C1886 0.930 . S
H1877 C1887 0.930 . S
C1878 H1872 0.930 . S
C1878 C1879 1.355 . S
C1878 C1880 1.415 . S
C1879 C1878 1.355 . S
C1879 C1881 1.419 . S
C1880 C1878 1.415 . S
C1880 C1885 1.425 . S
C1880 C1887 1.409 . S
C1881 H1873 0.930 . S
C1881 C1879 1.419 . S
C1881 C1882 1.362 . S
C1882 H1874 0.930 . S
C1882 C1881 1.362 . S
C1882 C1885 1.409 . S
C1883 H1875 0.930 . S
C1883 C1884 1.355 . S
C1883 C1885 1.415 . S
C1884 C1883 1.355 . S
C1884 C1886 1.419 . S
C1885 C1880 1.425 . S
C1885 C1882 1.409 . S
C1885 C1883 1.415 . S
C1886 H1876 0.930 . S
C1886 C1884 1.419 . S
C1886 C1887 1.362 . S
C1887 H1877 0.930 . S
C1887 C1880 1.409 . S
C1887 C1886 1.362 . S
H1888 C1894 0.930 . S
H1889 C1897 0.930 . S
H1890 C1898 0.930 . S
H1891 C1899 0.930 . S
H1892 C1902 0.930 . S
H1893 C1903 0.930 . S
C1894 H1888 0.930 . S
C1894 C1895 1.355 1_655 S
C1894 C1896 1.415 . S
C1895 C1894 1.355 1_455 S
C1895 C1897 1.419 . S
C1896 C1894 1.415 . S
C1896 C1901 1.425 1_654 S
C1896 C1903 1.409 1_554 S
C1897 H1889 0.930 . S
C1897 C1895 1.419 . S
C1897 C1898 1.362 . S
C1898 H1890 0.930 . S
C1898 C1897 1.362 . S
C1898 C1901 1.409 1_554 S
C1899 H1891 0.930 . S
C1899 C1900 1.354 1_455 S
C1899 C1901 1.415 . S
C1900 C1899 1.354 1_655 S
C1900 C1902 1.420 . S
C1901 C1896 1.425 1_456 S
C1901 C1898 1.409 1_556 S
C1901 C1899 1.415 . S
C1902 H1892 0.930 . S
C1902 C1900 1.420 . S
C1902 C1903 1.362 . S
C1903 H1893 0.930 . S
C1903 C1896 1.409 1_556 S
C1903 C1902 1.362 . S
H1904 C1910 0.930 . S
H1905 C1913 0.930 . S
H1906 C1914 0.930 . S
H1907 C1915 0.930 . S
H1908 C1918 0.930 . S
H1909 C1919 0.930 . S
C1910 H1904 0.930 . S
C1910 C1911 1.355 . S
C1910 C1912 1.415 . S
C1911 C1910 1.355 . S
C1911 C1913 1.419 1_545 S
C1912 C1910 1.415 . S
C1912 C1917 1.425 1_545 S
C1912 C1919 1.409 . S
C1913 H1905 0.930 . S
C1913 C1911 1.419 1_565 S
C1913 C1914 1.362 . S
C1914 H1906 0.930 . S
C1914 C1913 1.362 . S
C1914 C1917 1.409 . S
C1915 H1907 0.930 . S
C1915 C1916 1.348 1_565 S
C1915 C1917 1.415 . S
C1916 C1915 1.348 1_545 S
C1916 C1918 1.430 . S
C1917 C1912 1.425 1_565 S
C1917 C1914 1.409 . S
C1917 C1915 1.415 . S
C1918 H1908 0.930 . S
C1918 C1916 1.430 . S
C1918 C1919 1.362 . S
C1919 H1909 0.930 . S
C1919 C1912 1.409 . S
C1919 C1918 1.362 . S
C1415 C57 1.103 . S
C1420 C665 1.049 . S
C1431 C117 1.068 . S
C1436 C372 1.118 . S
C1447 C205 1.118 . S
C1452 C469 1.063 . S
C1463 C293 1.050 . S
C1468 C577 1.099 . S
C1479 C733 1.104 . S
C1484 C1377 1.109 . S
C1495 C1105 1.123 . S
C1500 C812 1.080 . S
C1511 C909 1.056 . S
C1516 C1193 1.108 . S
C1527 C997 1.113 . S
C1532 C1289 1.057 . S
C1543 C29 1.448 . S
C1548 C849 1.500 . S
C1559 C145 1.455 . S
C1564 C929 1.499 . S
C1575 C1017 1.489 . S
C1580 C233 1.400 . S
C1591 C321 1.368 . S
C1596 C753 1.474 . S
C1607 C401 1.428 . S
C1612 C1340 1.497 . S
C1623 C1085 1.470 . S
C1628 C497 1.395 . S
C1639 C1173 1.472 . S
C1644 C548 1.403 . S
C1655 C1252 1.499 . S
C1660 C636 1.439 . S
C1671 C108 1.487 . S
C1676 C761 1.429 . S
C1687 C196 1.478 . S
C1692 C841 1.372 . S
C1703 C937 1.453 . S
C1708 C284 1.509 . S
C1719 C49 1.485 . S
C1724 C1025 1.383 . S
C1735 C1076 1.401 . S
C1740 C673 1.477 . S
C1751 C1164 1.424 . S
C1756 C381 1.484 . S
C1767 C460 1.479 . S
C1772 C1261 1.373 . S
C1783 C585 1.486 . S
C1788 C1349 1.428 . S
C1799 C20 1.597 . S
C1804 C409 1.588 . S
C1815 C489 1.572 . S
C1820 C137 1.570 . S
C1831 C225 1.571 . S
C1836 C557 1.590 . S
C1847 C645 1.578 . S
C1852 C313 1.568 . S
C1863 C724 1.575 . S
C1868 C1113 1.587 . S
C1879 C1201 1.567 . S
C1884 C821 1.581 . S
C1895 C1281 1.564 . S
C1900 C900 1.572 1_655 S
C1911 C1369 1.586 . S
C1916 C988 1.591 . S
