# Generated by pormake.
# Topology snk, (6)-cn, num edge types: 1
# Building blocks:
#     Node 0, Type 0, BuildingBlock: HISSIN_clean_sbu_0, # of connection points: 6
#     Node 1, Type 0, BuildingBlock: HISSIN_clean_sbu_0, # of connection points: 6
#     Node 2, Type 0, BuildingBlock: HISSIN_clean_sbu_0, # of connection points: 6
#     Node 3, Type 0, BuildingBlock: HISSIN_clean_sbu_0, # of connection points: 6
#     Node 4, Type 0, BuildingBlock: HISSIN_clean_sbu_0, # of connection points: 6
#     Node 5, Type 0, BuildingBlock: HISSIN_clean_sbu_0, # of connection points: 6
#     Node 6, Type 0, BuildingBlock: HISSIN_clean_sbu_0, # of connection points: 6
#     Node 7, Type 0, BuildingBlock: HISSIN_clean_sbu_0, # of connection points: 6
#     Edge 8, Type (0, 0), BuildingBlock: ZUJKAS_clean_linker_0, # of connection points: 2
#     Edge 9, Type (0, 0), BuildingBlock: ZUJKAS_clean_linker_0, # of connection points: 2
#     Edge 10, Type (0, 0), BuildingBlock: ZUJKAS_clean_linker_0, # of connection points: 2
#     Edge 11, Type (0, 0), BuildingBlock: ZUJKAS_clean_linker_0, # of connection points: 2
#     Edge 12, Type (0, 0), BuildingBlock: ZUJKAS_clean_linker_0, # of connection points: 2
#     Edge 13, Type (0, 0), BuildingBlock: ZUJKAS_clean_linker_0, # of connection points: 2
#     Edge 14, Type (0, 0), BuildingBlock: ZUJKAS_clean_linker_0, # of connection points: 2
#     Edge 15, Type (0, 0), BuildingBlock: ZUJKAS_clean_linker_0, # of connection points: 2
#     Edge 16, Type (0, 0), BuildingBlock: ZUJKAS_clean_linker_0, # of connection points: 2
#     Edge 17, Type (0, 0), BuildingBlock: ZUJKAS_clean_linker_0, # of connection points: 2
#     Edge 18, Type (0, 0), BuildingBlock: ZUJKAS_clean_linker_0, # of connection points: 2
#     Edge 19, Type (0, 0), BuildingBlock: ZUJKAS_clean_linker_0, # of connection points: 2
#     Edge 20, Type (0, 0), BuildingBlock: ZUJKAS_clean_linker_0, # of connection points: 2
#     Edge 21, Type (0, 0), BuildingBlock: ZUJKAS_clean_linker_0, # of connection points: 2
#     Edge 22, Type (0, 0), BuildingBlock: ZUJKAS_clean_linker_0, # of connection points: 2
#     Edge 23, Type (0, 0), BuildingBlock: ZUJKAS_clean_linker_0, # of connection points: 2
#     Edge 24, Type (0, 0), BuildingBlock: ZUJKAS_clean_linker_0, # of connection points: 2
#     Edge 25, Type (0, 0), BuildingBlock: ZUJKAS_clean_linker_0, # of connection points: 2
#     Edge 26, Type (0, 0), BuildingBlock: ZUJKAS_clean_linker_0, # of connection points: 2
#     Edge 27, Type (0, 0), BuildingBlock: ZUJKAS_clean_linker_0, # of connection points: 2
#     Edge 28, Type (0, 0), BuildingBlock: ZUJKAS_clean_linker_0, # of connection points: 2
#     Edge 29, Type (0, 0), BuildingBlock: ZUJKAS_clean_linker_0, # of connection points: 2
#     Edge 30, Type (0, 0), BuildingBlock: ZUJKAS_clean_linker_0, # of connection points: 2
#     Edge 31, Type (0, 0), BuildingBlock: ZUJKAS_clean_linker_0, # of connection points: 2
# Relax obj value: 0.069
# Max RMSD: 0.132
# Mean RMSD: 0.117
data_MOF--net-snk--node1-HISSIN_clean_sbu_0--edge1-ZUJKAS_clean_linker_0
_symmetry_space_group_name_H-M    P1
_symmetry_Int_Tables_number       1
_symmetry_cell_setting            triclinic
loop_
_symmetry_equiv_pos_as_xyz
'x, y, z'
_cell_length_a     50.436988
_cell_length_b     50.696555
_cell_length_c     30.004932
_cell_angle_alpha  95.175642
_cell_angle_beta   95.03957
_cell_angle_gamma 91.925235
loop_
_atom_site_label
_atom_site_type_symbol
_atom_site_fract_x
_atom_site_fract_y
_atom_site_fract_z
_atom_type_partial_charge
Eu0 Eu 0.9995 0.985 0.45903 0.0
Eu1 Eu 0.00946 0.01809 0.56011 0.0
C2 C 0.97061 0.03946 0.48262 0.0
C3 C 0.99077 0.96683 0.33141 0.0
C4 C 0.99472 0.9931 0.32134 0.0
C5 C 0.9858 0.95244 0.25157 0.0
C6 C 0.99439 0.99897 0.27656 0.0
C7 C 0.98615 0.94661 0.2963 0.0
C8 C 0.9901 0.97867 0.24108 0.0
C9 C 0.99265 0.96004 0.37821 0.0
O10 O 0.97134 0.99318 0.55946 0.0
O11 O 0.97889 0.95997 0.50547 0.0
C12 C 0.96629 0.96903 0.5399 0.0
O13 O 0.03571 0.9686 0.49451 0.0
O14 O 0.99459 0.04277 0.61519 0.0
O15 O 0.0356 0.03115 0.62049 0.0
O16 O 0.02603 0.97794 0.56717 0.0
C17 C 0.03903 0.9646 0.53721 0.0
O18 O 0.02309 0.02227 0.44923 0.0
O19 O 0.0432 0.03136 0.52086 0.0
O20 O 0.98923 0.04608 0.51545 0.0
O21 O 0.0158 0.96488 0.40089 0.0
O22 O 0.97308 0.96684 0.40194 0.0
O23 O 0.96779 0.01521 0.4628 0.0
C24 C 0.01433 0.03666 0.68757 0.0
C25 C 0.00837 0.01074 0.69761 0.0
C26 C 0.0156 0.05182 0.7669 0.0
C27 C 0.0061 0.00538 0.74216 0.0
C28 C 0.01787 0.05713 0.72243 0.0
C29 C 0.00975 0.02586 0.77741 0.0
C30 C 0.01678 0.04275 0.64104 0.0
C31 C 0.04186 0.03445 0.4776 0.0
H32 H 0.99835 0.00898 0.34811 0.0
H33 H 0.98282 0.93627 0.22525 0.0
H34 H 0.99746 0.01941 0.26973 0.0
H35 H 0.98325 0.9262 0.30349 0.0
H36 H 1.00556 0.99468 0.67103 0.0
H37 H 0.0181 0.06814 0.79299 0.0
H38 H 1.00184 0.98514 0.74903 0.0
H39 H 0.02233 0.07728 0.71523 0.0
Eu40 Eu 0.28406 0.75991 0.71919 0.0
Eu41 Eu 0.25966 0.77754 0.81668 0.0
C42 C 0.24201 0.72329 0.76044 0.0
C43 C 0.30274 0.75604 0.59755 0.0
C44 C 0.28328 0.77325 0.58293 0.0
C45 C 0.31955 0.75365 0.52405 0.0
C46 C 0.28178 0.78038 0.53884 0.0
C47 C 0.32097 0.74649 0.56805 0.0
C48 C 0.29978 0.77048 0.50877 0.0
C49 C 0.30373 0.7471 0.64283 0.0
O50 O 0.28966 0.74751 0.83343 0.0
O51 O 0.31484 0.74897 0.77309 0.0
C52 C 0.31114 0.74184 0.81331 0.0
O53 O 0.29014 0.80395 0.73556 0.0
O54 O 0.23824 0.76872 0.87376 0.0
O55 O 0.25318 0.8089 0.86908 0.0
O56 O 0.29761 0.80044 0.8103 0.0
C57 C 0.2998 0.81395 0.7756 0.0
O58 O 0.24374 0.77544 0.69954 0.0
O59 O 0.23657 0.79983 0.76574 0.0
O60 O 0.23316 0.74472 0.78085 0.0
O61 O 0.31615 0.76298 0.67527 0.0
O62 O 0.28157 0.73671 0.65422 0.0
O63 O 0.26467 0.72363 0.74215 0.0
C64 C 0.25003 0.79508 0.94167 0.0
C65 C 0.27292 0.7829 0.95844 0.0
C66 C 0.24081 0.80941 0.01784 0.0
C67 C 0.27952 0.78369 1.00486 0.0
C68 C 0.23426 0.8086 0.97155 0.0
C69 C 0.26327 0.79661 0.03509 0.0
C70 C 0.24148 0.79277 0.89343 0.0
C71 C 0.23075 0.79334 0.72246 0.0
H72 H 0.26908 0.78089 0.60543 0.0
H73 H 0.33348 0.74541 0.50163 0.0
H74 H 0.26652 0.79362 0.52826 0.0
H75 H 0.33606 0.73312 0.57882 0.0
H76 H 0.28531 0.77234 0.9357 0.0
H77 H 0.22815 0.8199 0.04017 0.0
H78 H 0.29684 0.77348 0.01706 0.0
H79 H 0.21657 0.81817 0.95908 0.0
Eu80 Eu 0.49141 0.97494 0.0825 0.0
Eu81 Eu 0.50821 0.0087 0.99661 0.0
C82 C 0.548 0.00461 0.08574 0.0
C83 C 0.48184 0.9552 0.20058 0.0
C84 C 0.49265 0.97956 0.2215 0.0
C85 C 0.47531 0.94073 0.27415 0.0
C86 C 0.49479 0.98446 0.26847 0.0
C87 C 0.4732 0.93586 0.22723 0.0
C88 C 0.48614 0.9651 0.2955 0.0
C89 C 0.47976 0.94959 0.15121 0.0
O90 O 0.5034 0.96544 0.9725 0.0
O91 O 0.51638 0.94911 0.0389 0.0
C92 C 0.51479 0.94718 0.99481 0.0
O93 O 0.45849 0.9668 0.02641 0.0
O94 O 0.53649 0.01465 0.94698 0.0
O95 O 0.50043 0.03645 0.9456 0.0
O96 O 0.46382 0.00514 0.99232 0.0
C97 C 0.44915 0.98467 1.00059 0.0
O98 O 0.4769 0.01611 0.0954 0.0
O99 O 0.50123 0.04089 0.05081 0.0
O100 O 0.54552 0.00416 0.04173 0.0
O101 O 0.46272 0.96312 0.12834 0.0
O102 O 0.50218 0.94766 0.13284 0.0
O103 O 0.52767 1.00001 0.10867 0.0
C104 C 0.51759 0.02461 0.87586 0.0
C105 C 0.50612 1.00023 0.85618 0.0
C106 C 0.52304 0.03801 0.80124 0.0
C107 C 0.50324 0.99473 0.80928 0.0
C108 C 0.5259 0.04346 0.84805 0.0
C109 C 0.5118 0.01351 0.78113 0.0
C110 C 0.52149 0.03053 0.92515 0.0
C111 C 0.48511 0.03898 0.08277 0.0
H112 H 0.49942 0.99478 0.20148 0.0
H113 H 0.46881 0.9252 0.29372 0.0
H114 H 0.50294 0.00356 0.28357 0.0
H115 H 0.46493 0.91689 0.21174 0.0
H116 H 0.4996 0.98538 0.8771 0.0
H117 H 0.52945 0.05314 0.78078 0.0
H118 H 0.49476 0.97557 0.79514 0.0
H119 H 0.53471 0.06243 0.86257 0.0
Eu120 Eu 0.27432 0.25763 0.31849 0.0
Eu121 Eu 0.23983 0.24889 0.21748 0.0
C122 C 0.21927 0.28574 0.29958 0.0
C123 C 0.2936 0.26193 0.44569 0.0
C124 C 0.26724 0.26019 0.45715 0.0
C125 C 0.30944 0.25911 0.52392 0.0
C126 C 0.26203 0.25807 0.50184 0.0
C127 C 0.31461 0.26127 0.4793 0.0
C128 C 0.28308 0.25761 0.53589 0.0
C129 C 0.29956 0.26445 0.39902 0.0
O130 O 0.27653 0.27322 0.20776 0.0
O131 O 0.28715 0.29185 0.28005 0.0
C132 C 0.28926 0.29138 0.23649 0.0
O133 O 0.30208 0.2378 0.27272 0.0
O134 O 0.2195 0.26626 0.16069 0.0
O135 O 0.22064 0.22359 0.15996 0.0
O136 O 0.27171 0.21866 0.21642 0.0
C137 C 0.29584 0.22088 0.2373 0.0
O138 O 0.24885 0.22001 0.31853 0.0
O139 O 0.21598 0.22607 0.26264 0.0
O140 O 0.22242 0.28344 0.25641 0.0
O141 O 0.29938 0.24245 0.37282 0.0
O142 O 0.28803 0.28338 0.37888 0.0
O143 O 0.2338 0.27281 0.32794 0.0
C144 C 0.22048 0.24205 0.09016 0.0
C145 C 0.24699 0.24229 0.0793 0.0
C146 C 0.20547 0.24124 1.01083 0.0
C147 C 0.2527 0.24209 0.03438 0.0
C148 C 0.19981 0.24143 0.05567 0.0
C149 C 0.23199 0.24168 0.99953 0.0
C150 C 0.21405 0.24352 0.13723 0.0
C151 C 0.22495 0.21425 0.2979 0.0
H152 H 0.25073 0.26061 0.43159 0.0
H153 H 0.32614 0.25834 0.54896 0.0
H154 H 0.24151 0.25723 0.5098 0.0
H155 H 0.33507 0.26242 0.47104 0.0
H156 H 0.26323 0.24284 0.10558 0.0
H157 H 0.18903 0.24136 0.98509 0.0
H158 H 0.27332 0.24214 0.02696 0.0
H159 H 0.17924 0.24145 0.06347 0.0
Eu160 Eu 0.76739 0.23529 0.18528 0.0
Eu161 Eu 0.73976 0.24997 0.28055 0.0
C162 C 0.73104 0.19367 0.22625 0.0
C163 C 0.77928 0.22246 0.06073 0.0
C164 C 0.75375 0.2297 0.04522 0.0
C165 C 0.78981 0.21328 0.98367 0.0
C166 C 0.74635 0.22892 0.99904 0.0
C167 C 0.79717 0.21409 0.02977 0.0
C168 C 0.76438 0.22085 0.96772 0.0
C169 C 0.78792 0.2244 0.10894 0.0
O170 O 0.78042 0.23622 0.30306 0.0
O171 O 0.79214 0.21484 0.2368 0.0
C172 C 0.79567 0.2202 0.28072 0.0
O173 O 0.7917 0.26832 0.22567 0.0
O174 O 0.70757 0.24455 0.32363 0.0
O175 O 0.73927 0.27438 0.34387 0.0
O176 O 0.75679 0.28728 0.2574 0.0
C177 C 0.78092 0.28906 0.24477 0.0
O178 O 0.73494 0.26319 0.16896 0.0
O179 O 0.70811 0.25531 0.22464 0.0
O180 O 0.73771 0.20583 0.2662 0.0
O181 O 0.78836 0.24807 0.13003 0.0
O182 O 0.77806 0.2064 0.13196 0.0
O183 O 0.73377 0.20569 0.18987 0.0
C184 C 0.71954 0.25439 0.40153 0.0
C185 C 0.7423 0.24302 0.4207 0.0
C186 C 0.69984 0.25414 0.47244 0.0
C187 C 0.744 0.23767 0.46578 0.0
C188 C 0.69821 0.25955 0.42746 0.0
C189 C 0.72292 0.24354 0.49239 0.0
C190 C 0.71812 0.26207 0.35534 0.0
C191 C 0.71205 0.26501 0.18651 0.0
H192 H 0.73968 0.2362 0.0688 0.0
H193 H 0.80432 0.20737 0.96055 0.0
H194 H 0.72653 0.23461 0.98787 0.0
H195 H 0.81701 0.20857 0.04127 0.0
H196 H 0.75897 0.23883 0.4011 0.0
H197 H 0.68305 0.25844 0.49167 0.0
H198 H 0.76216 0.22972 0.48012 0.0
H199 H 0.68043 0.26819 0.4131 0.0
Eu200 Eu 0.76517 0.76201 0.81058 0.0
Eu201 Eu 0.73158 0.75279 0.70968 0.0
C202 C 0.70941 0.78953 0.7896 0.0
C203 C 0.7833 0.77012 0.93808 0.0
C204 C 0.75749 0.76318 0.94822 0.0
C205 C 0.79715 0.77804 0.01793 0.0
C206 C 0.75162 0.76341 0.99302 0.0
C207 C 0.803 0.77774 0.97317 0.0
C208 C 0.77144 0.77066 0.02847 0.0
C209 C 0.79025 0.76841 0.8913 0.0
O210 O 0.75694 0.79064 0.7105 0.0
O211 O 0.79012 0.78295 0.76456 0.0
C212 C 0.78128 0.79535 0.72994 0.0
O213 O 0.7826 0.72695 0.77327 0.0
O214 O 0.70675 0.76802 0.65526 0.0
O215 O 0.71807 0.72709 0.64907 0.0
O216 O 0.772 0.73693 0.70111 0.0
C217 C 0.78619 0.72419 0.73027 0.0
O218 O 0.72844 0.73744 0.81982 0.0
O219 O 0.71926 0.71822 0.74765 0.0
O220 O 0.70323 0.77162 0.75557 0.0
O221 O 0.78536 0.74546 0.86822 0.0
O222 O 0.78361 0.78805 0.86792 0.0
O223 O 0.73383 0.79279 0.80908 0.0
C224 C 0.71277 0.7486 0.58251 0.0
C225 C 0.73809 0.75767 0.5731 0.0
C226 C 0.6986 0.74393 0.50261 0.0
C227 C 0.74363 0.75986 0.52859 0.0
C228 C 0.6931 0.74179 0.54705 0.0
C229 C 0.72395 0.75294 0.49274 0.0
C230 C 0.70657 0.74604 0.62898 0.0
C231 C 0.71648 0.71884 0.791 0.0
H232 H 0.74198 0.75728 0.9215 0.0
H233 H 0.81298 0.78341 0.0443 0.0
H234 H 0.73154 0.75794 0.99989 0.0
H235 H 0.82307 0.78303 0.96595 0.0
H236 H 0.75355 0.76296 0.60014 0.0
H237 H 0.68285 0.73883 0.476 0.0
H238 H 0.76343 0.76659 0.52223 0.0
H239 H 0.67342 0.73483 0.55374 0.0
Eu240 Eu 0.49831 0.48602 0.96184 0.0
Eu241 Eu 0.51234 0.51867 0.06328 0.0
C242 C 0.47392 0.54221 0.98654 0.0
C243 C 0.49076 0.46761 0.83443 0.0
C244 C 0.49745 0.49335 0.82426 0.0
C245 C 0.48926 0.45226 0.75513 0.0
C246 C 0.49995 0.49852 0.77968 0.0
C247 C 0.48673 0.44715 0.79963 0.0
C248 C 0.49586 0.47803 0.74448 0.0
C249 C 0.48829 0.46168 0.88107 0.0
O250 O 0.48681 0.48302 0.07407 0.0
O251 O 0.46495 0.47454 1.0035 0.0
C252 C 0.46702 0.47169 0.04691 0.0
O253 O 0.5179 0.45714 1.00532 0.0
O254 O 0.49812 0.54053 0.12179 0.0
O255 O 0.54024 0.53413 0.12043 0.0
O256 O 0.54224 0.48672 0.05665 0.0
C257 C 0.53752 0.46263 0.0368 0.0
O258 O 0.53679 0.50983 0.95871 0.0
O259 O 0.53392 0.5424 0.01646 0.0
O260 O 0.47742 0.53813 0.02922 0.0
O261 O 0.51059 0.46 0.90604 0.0
O262 O 0.47064 0.47466 0.90257 0.0
O263 O 0.48472 0.52727 0.95574 0.0
C264 C 0.52239 0.5362 0.19113 0.0
C265 C 0.51707 0.51012 0.20106 0.0
C266 C 0.52649 0.55063 0.27098 0.0
C267 C 0.51632 0.50437 0.24577 0.0
C268 C 0.52724 0.55633 0.22634 0.0
C269 C 0.52083 0.5246 0.28134 0.0
C270 C 0.52148 0.543 0.14436 0.0
C271 C 0.54401 0.53334 0.97936 0.0
H272 H 0.5007 0.50941 0.85078 0.0
H273 H 0.48642 0.43591 0.72912 0.0
H274 H 0.50478 0.51864 0.77276 0.0
H275 H 0.48174 0.42712 0.80691 0.0
H276 H 0.51318 0.49431 0.17423 0.0
H277 H 0.52965 0.56679 0.2973 0.0
H278 H 0.51222 0.48407 0.25246 0.0
H279 H 0.53115 0.57662 0.21927 0.0
Eu280 Eu 1.00317 0.49149 0.5615 0.0
Eu281 Eu 0.01133 0.52698 0.47402 0.0
C282 C 0.04819 0.53797 0.56638 0.0
C283 C 0.99975 0.47182 0.68147 0.0
C284 C 0.00983 0.49665 0.70152 0.0
C285 C 0.99404 0.4579 0.7556 0.0
C286 C 0.01197 0.50207 0.74841 0.0
C287 C 0.99195 0.45251 0.70882 0.0
C288 C 1.00399 0.48278 0.77609 0.0
C289 C 0.99685 0.46589 0.63222 0.0
O290 O 0.04148 0.49525 0.47293 0.0
O291 O 0.02041 0.46379 0.50945 0.0
C292 C 0.03828 0.47066 0.48276 0.0
O293 O 0.96673 0.48385 0.51261 0.0
O294 O 0.03674 0.5457 0.42927 0.0
O295 O 0.99388 0.54769 0.4187 0.0
O296 O 0.98544 0.49136 0.44777 0.0
C297 C 0.96623 0.48141 0.46862 0.0
O298 O 0.99035 0.53256 0.58144 0.0
O299 O 0.97823 0.54498 0.51112 0.0
O300 O 0.03511 0.54893 0.5335 0.0
O301 O 0.97771 0.47748 0.61046 0.0
O302 O 0.01872 0.46613 0.61202 0.0
O303 O 0.04257 0.51371 0.57547 0.0
C304 C 0.01769 0.54583 0.35422 0.0
C305 C 0.00939 0.52057 0.33369 0.0
C306 C 0.02659 0.55952 0.28115 0.0
C307 C 0.00947 0.5149 0.28709 0.0
C308 C 0.02642 0.56518 0.32768 0.0
C309 C 0.01796 0.53436 0.26015 0.0
C310 C 0.01666 0.55251 0.40292 0.0
C311 C 0.97688 0.54753 0.55487 0.0
H312 H 0.01587 0.51187 0.6809 0.0
H313 H 0.98809 0.44243 0.77576 0.0
H314 H 0.01945 0.52152 0.76289 0.0
H315 H 0.98418 0.43322 0.69395 0.0
H316 H 1.00265 0.50531 0.35364 0.0
H317 H 0.03294 0.57509 0.26151 0.0
H318 H 1.00302 0.49522 0.27222 0.0
H319 H 0.03282 0.58481 0.34289 0.0
H320 H 0.04159 0.05054 0.3928 0.0
H321 H 0.07365 0.08051 0.36418 0.0
H322 H 0.11887 0.08964 0.49372 0.0
H323 H 0.08683 0.05964 0.52287 0.0
H324 H 0.08857 0.13487 0.39982 0.0
H325 H 0.17454 0.06898 0.40253 0.0
H326 H 0.14066 0.05656 0.40392 0.0
H327 H 0.15824 0.07347 0.45349 0.0
C328 C 0.05838 0.05879 0.4153 0.0
C329 C 0.0616 0.05254 0.46022 0.0
C330 C 0.07669 0.07599 0.39882 0.0
C331 C 0.09881 0.08712 0.42662 0.0
C332 C 0.10214 0.081 0.47146 0.0
H333 H 0.23213 0.19219 0.37819 0.0
H334 H 0.20156 0.16192 0.40976 0.0
C335 C 0.08371 0.06392 0.48813 0.0
C336 C 0.11799 0.10559 0.40881 0.0
H337 H 0.18223 0.11227 0.38206 0.0
C338 C 0.10905 0.12994 0.39586 0.0
C339 C 0.14473 0.09921 0.40395 0.0
C340 C 0.15521 0.07307 0.41635 0.0
C341 C 0.12617 0.14819 0.37863 0.0
C342 C 0.15285 0.14163 0.3729 0.0
C343 C 0.16182 0.11733 0.38624 0.0
C344 C 0.17168 0.15965 0.35305 0.0
C345 C 0.11562 0.1746 0.36779 0.0
C346 C 0.16544 0.1681 0.31017 0.0
C347 C 0.18281 0.18557 0.29211 0.0
C348 C 0.20709 0.1947 0.3162 0.0
C349 C 0.21366 0.18558 0.35859 0.0
C350 C 0.19616 0.16826 0.37677 0.0
H351 H 0.09816 0.17969 0.38653 0.0
H352 H 0.13117 0.19076 0.37588 0.0
H353 H 0.10908 0.17365 0.33138 0.0
H354 H 0.14707 0.16119 0.29056 0.0
H355 H 0.17716 0.19192 0.25923 0.0
H356 H 0.05297 0.95266 0.623 0.0
H357 H 0.08458 0.92025 0.64735 0.0
H358 H 0.09894 0.8985 0.50954 0.0
H359 H 0.06764 0.93119 0.48477 0.0
H360 H 0.08365 0.86552 0.62475 0.0
H361 H 0.17405 0.91508 0.57108 0.0
H362 H 0.14306 0.93157 0.57499 0.0
H363 H 0.1471 0.90797 0.52794 0.0
C364 C 0.06286 0.94105 0.59779 0.0
C365 C 0.05789 0.94466 0.55193 0.0
C366 C 0.0809 0.92251 0.6118 0.0
C367 C 0.09436 0.90725 0.58031 0.0
C368 C 0.08916 0.91046 0.53445 0.0
H369 H 0.2177 0.79263 0.6315 0.0
H370 H 0.1833 0.81776 0.59321 0.0
C371 C 0.07116 0.92907 0.52037 0.0
C372 C 0.11371 0.88793 0.59578 0.0
H373 H 0.17975 0.87441 0.60246 0.0
C374 C 0.10464 0.86738 0.61971 0.0
C375 C 0.14105 0.89034 0.5889 0.0
C376 C 0.15204 0.91252 0.56466 0.0
C377 C 0.12226 0.8494 0.63756 0.0
C378 C 0.14969 0.85228 0.6318 0.0
C379 C 0.15866 0.87228 0.60668 0.0
C380 C 0.16964 0.83607 0.65453 0.0
C381 C 0.11143 0.82754 0.66266 0.0
C382 C 0.17342 0.83826 0.70157 0.0
C383 C 0.19302 0.82409 0.7235 0.0
C384 C 0.20933 0.80745 0.69879 0.0
C385 C 0.20539 0.80515 0.65155 0.0
C386 C 0.1858 0.8195 0.6296 0.0
H387 H 0.08977 0.82345 0.65337 0.0
H388 H 0.12205 0.80895 0.65598 0.0
H389 H 0.11432 0.83362 0.69929 0.0
H390 H 0.16147 0.85133 0.72139 0.0
H391 H 0.1955 0.82639 0.75988 0.0
H392 H 0.28574 0.85496 0.72611 0.0
H393 H 0.29592 0.9025 0.74813 0.0
H394 H 0.34408 0.88262 0.86547 0.0
H395 H 0.33389 0.83565 0.84425 0.0
H396 H 0.29718 0.9225 0.87418 0.0
H397 H 0.37435 0.94427 0.75975 0.0
H398 H 0.34393 0.92506 0.74081 0.0
H399 H 0.37051 0.91033 0.77236 0.0
C400 C 0.29891 0.86086 0.7561 0.0
C401 C 0.30904 0.84182 0.7837 0.0
C402 C 0.30446 0.88789 0.76871 0.0
C403 C 0.32035 0.8958 0.80863 0.0
C404 C 0.33145 0.87671 0.83482 0.0
H405 H 0.41256 0.94396 1.00367 0.0
H406 H 0.3713 0.935 0.95523 0.0
C407 C 0.32576 0.84996 0.82259 0.0
C408 C 0.32583 0.92375 0.82512 0.0
H409 H 0.38094 0.96482 0.83511 0.0
C410 C 0.31473 0.93279 0.86468 0.0
C411 C 0.3482 0.93742 0.81197 0.0
C412 C 0.35994 0.92899 0.7687 0.0
C413 C 0.3284 0.952 0.89545 0.0
C414 C 0.3535 0.96203 0.88594 0.0
C415 C 0.36189 0.95664 0.84275 0.0
C416 C 0.37414 0.97124 0.92235 0.0
C417 C 0.31741 0.95912 0.93987 0.0
C418 C 0.38922 0.99468 0.92028 0.0
C419 C 0.41296 0.99971 0.94768 0.0
C420 C 0.42216 0.98114 0.97711 0.0
C421 C 0.40612 0.95852 0.98119 0.0
C422 C 0.38232 0.95359 0.95392 0.0
H423 H 0.29531 0.9592 0.93556 0.0
H424 H 0.32297 0.94398 0.96314 0.0
H425 H 0.32538 0.97884 0.95539 0.0
H426 H 0.38339 0.00834 0.89578 0.0
H427 H 0.4247 0.01754 0.94405 0.0
H428 H 0.46572 0.04633 0.16444 0.0
H429 H 0.43675 0.08118 0.18981 0.0
H430 H 0.44647 0.11999 0.06983 0.0
H431 H 0.476 0.08529 0.04445 0.0
H432 H 0.44404 0.15557 0.14812 0.0
H433 H 0.36103 0.07966 0.12654 0.0
H434 H 0.38871 0.07122 0.1636 0.0
H435 H 0.39286 0.0738 0.10519 0.0
C436 C 0.46216 0.06258 0.14386 0.0
C437 C 0.47286 0.06294 0.1022 0.0
C438 C 0.44549 0.08239 0.1583 0.0
C439 C 0.4389 0.10271 0.13109 0.0
C440 C 0.45116 0.1043 0.09111 0.0
H441 H 0.29387 0.18959 0.15754 0.0
H442 H 0.32916 0.16276 0.12875 0.0
C443 C 0.46811 0.08456 0.07677 0.0
C444 C 0.41769 0.12093 0.14289 0.0
H445 H 0.35222 0.12147 0.16351 0.0
C446 C 0.42392 0.1482 0.15127 0.0
C447 C 0.3913 0.1113 0.14595 0.0
C448 C 0.38294 0.08244 0.13441 0.0
C449 C 0.40461 0.16601 0.16421 0.0
C450 C 0.37859 0.15615 0.16964 0.0
C451 C 0.37222 0.12899 0.15981 0.0
C452 C 0.35771 0.17346 0.18625 0.0
C453 C 0.41222 0.19522 0.17147 0.0
C454 C 0.3619 0.18813 0.22837 0.0
C455 C 0.34182 0.20354 0.24485 0.0
C456 C 0.31697 0.20431 0.21981 0.0
C457 C 0.31272 0.18939 0.17778 0.0
C458 C 0.3329 0.17411 0.1612 0.0
H459 H 0.42952 0.20022 0.15284 0.0
H460 H 0.39532 0.20737 0.16069 0.0
H461 H 0.41796 0.20072 0.20776 0.0
H462 H 0.38057 0.18735 0.24889 0.0
H463 H 0.34573 0.21463 0.27749 0.0
H464 H 0.92959 0.98303 0.59899 0.0
H465 H 0.89767 0.95414 0.63016 0.0
H466 H 0.92649 0.88623 0.55469 0.0
H467 H 0.95785 0.91518 0.52207 0.0
H468 H 0.87405 0.88254 0.55135 0.0
H469 H 0.91284 0.90763 0.72892 0.0
H470 H 0.90264 0.93634 0.70222 0.0
H471 H 0.93007 0.91799 0.68289 0.0
C472 C 0.92918 0.96194 0.58897 0.0
C473 C 0.94645 0.95146 0.55813 0.0
C474 C 0.911 0.94537 0.60717 0.0
C475 C 0.91 0.91782 0.59575 0.0
C476 C 0.92691 0.90736 0.56434 0.0
H477 H 0.83533 0.8023 0.7486 0.0
H478 H 0.86586 0.83145 0.71495 0.0
C479 C 0.94488 0.92397 0.54568 0.0
C480 C 0.89115 0.89997 0.61603 0.0
H481 H 0.8714 0.88304 0.71622 0.0
C482 C 0.87357 0.88259 0.58742 0.0
C483 C 0.8907 0.8996 0.66315 0.0
C484 C 0.91026 0.91618 0.69607 0.0
C485 C 0.85545 0.8652 0.60446 0.0
C486 C 0.8542 0.86567 0.65155 0.0
C487 C 0.872 0.88283 0.68015 0.0
C488 C 0.83523 0.84803 0.67201 0.0
C489 C 0.83838 0.84599 0.5717 0.0
C490 C 0.80764 0.84777 0.65979 0.0
C491 C 0.79009 0.83082 0.67867 0.0
C492 C 0.79965 0.81411 0.71095 0.0
C493 C 0.82719 0.81492 0.72399 0.0
C494 C 0.84473 0.83162 0.7047 0.0
H495 H 0.8473 0.84251 0.53922 0.0
H496 H 0.83548 0.82661 0.58553 0.0
H497 H 0.81857 0.85436 0.56465 0.0
H498 H 0.7996 0.86076 0.63572 0.0
H499 H 0.76901 0.83089 0.66806 0.0
H500 H 0.92997 0.03341 0.4154 0.0
H501 H 0.90175 0.06763 0.38725 0.0
H502 H 0.94256 0.12608 0.48507 0.0
H503 H 0.9711 0.09206 0.51335 0.0
H504 H 0.86767 0.10145 0.4346 0.0
H505 H 0.94812 0.15758 0.36347 0.0
H506 H 0.95185 0.1242 0.37887 0.0
H507 H 0.95432 0.15159 0.42155 0.0
C508 C 0.93298 0.05352 0.43103 0.0
C509 C 0.9529 0.05999 0.46652 0.0
C510 C 0.9168 0.07303 0.41491 0.0
C511 C 0.92031 0.09939 0.43375 0.0
C512 C 0.93984 0.1059 0.46964 0.0
H513 H 0.80518 0.21997 0.37219 0.0
H514 H 0.83653 0.19292 0.41306 0.0
C515 C 0.95604 0.08639 0.48586 0.0
C516 C 0.90347 0.11997 0.41556 0.0
H517 H 0.90527 0.17499 0.35796 0.0
C518 C 0.87586 0.11766 0.41811 0.0
C519 C 0.91429 0.14091 0.3938 0.0
C520 C 0.94374 0.14374 0.38881 0.0
C521 C 0.85868 0.1356 0.39896 0.0
C522 C 0.8695 0.15655 0.37721 0.0
C523 C 0.89713 0.15904 0.37509 0.0
C524 C 0.85222 0.17478 0.35337 0.0
C525 C 0.82902 0.13145 0.40071 0.0
C526 C 0.85141 0.17421 0.30649 0.0
C527 C 0.83364 0.18966 0.28304 0.0
C528 C 0.8164 0.2061 0.3061 0.0
C529 C 0.81808 0.20747 0.35334 0.0
C530 C 0.83587 0.19193 0.37677 0.0
H531 H 0.82371 0.1116 0.41108 0.0
H532 H 0.82199 0.14667 0.42537 0.0
H533 H 0.81824 0.13361 0.36743 0.0
H534 H 0.86397 0.16117 0.28787 0.0
H535 H 0.83302 0.1882 0.24672 0.0
H536 H 0.71138 0.16332 0.15006 0.0
H537 H 0.69061 0.11884 0.14484 0.0
H538 H 0.70624 0.1169 0.28813 0.0
H539 H 0.7268 0.16161 0.29394 0.0
H540 H 0.70841 0.06802 0.17552 0.0
H541 H 0.62387 0.11073 0.26233 0.0
H542 H 0.64804 0.13168 0.23992 0.0
H543 H 0.65708 0.11567 0.28968 0.0
C544 C 0.71062 0.15339 0.18044 0.0
C545 C 0.72023 0.16614 0.22249 0.0
C546 C 0.69898 0.12791 0.17735 0.0
C547 C 0.69683 0.11481 0.21617 0.0
C548 C 0.7076 0.12688 0.25793 0.0
H549 H 0.56288 1.00166 0.17498 0.0
H550 H 0.6046 0.01886 0.21676 0.0
C551 C 0.71917 0.15244 0.26111 0.0
C552 C 0.68045 0.09003 0.21276 0.0
H553 H 0.61667 0.06921 0.22282 0.0
C554 C 0.68857 0.06786 0.18685 0.0
C555 C 0.65483 0.08982 0.22838 0.0
C556 C 0.64523 0.1132 0.25652 0.0
C557 C 0.67076 0.04632 0.17271 0.0
C558 C 0.64417 0.04752 0.18397 0.0
C559 C 0.63703 0.0684 0.21394 0.0
C560 C 0.6223 0.03103 0.15832 0.0
C561 C 0.68022 0.0232 0.14397 0.0
C562 C 0.61868 0.03164 0.11151 0.0
C563 C 0.59496 0.02185 0.0876 0.0
C564 C 0.57423 0.01169 0.1102 0.0
C565 C 0.5784 0.00971 0.15672 0.0
C566 C 0.60229 0.0193 0.1806 0.0
H567 H 0.70127 0.01935 0.15469 0.0
H568 H 0.66777 0.00488 0.14557 0.0
H569 H 0.67941 0.02804 0.10854 0.0
H570 H 0.63341 0.04135 0.09371 0.0
H571 H 0.59241 0.0236 0.05178 0.0
H572 H 0.65637 0.78701 0.76019 0.0
H573 H 0.62087 0.81235 0.79153 0.0
H574 H 0.67808 0.85313 0.89169 0.0
H575 H 0.71383 0.82805 0.86045 0.0
H576 H 0.60515 0.81433 0.87972 0.0
H577 H 0.63821 0.91357 0.83605 0.0
H578 H 0.65051 0.88321 0.81091 0.0
H579 H 0.66351 0.89643 0.86642 0.0
C580 C 0.6615 0.8015 0.78869 0.0
C581 C 0.68803 0.80558 0.80763 0.0
C582 C 0.64114 0.8159 0.80662 0.0
C583 C 0.64689 0.8348 0.84359 0.0
C584 C 0.67329 0.83894 0.86265 0.0
H585 H 0.54426 0.90823 0.02976 0.0
H586 H 0.57404 0.87899 0.99073 0.0
C587 C 0.69369 0.82452 0.84481 0.0
C588 C 0.62517 0.84978 0.86283 0.0
H589 H 0.60381 0.91236 0.88519 0.0
C590 C 0.60475 0.83576 0.88074 0.0
C591 C 0.62451 0.87768 0.86354 0.0
C592 C 0.6452 0.89365 0.84285 0.0
C593 C 0.58402 0.84898 0.90042 0.0
C594 C 0.58393 0.87696 0.90261 0.0
C595 C 0.604 0.89091 0.8837 0.0
C596 C 0.56361 0.89236 0.92522 0.0
C597 C 0.56232 0.83291 0.91836 0.0
C598 C 0.54772 0.90949 0.90132 0.0
C599 C 0.53071 0.9263 0.92354 0.0
C600 C 0.52944 0.92648 0.97024 0.0
C601 C 0.54463 0.90855 0.99378 0.0
C602 C 0.56162 0.89172 0.97148 0.0
H603 H 0.56122 0.81201 0.90332 0.0
H604 H 0.56656 0.83282 0.95527 0.0
H605 H 0.54261 0.8416 0.91168 0.0
H606 H 0.549 0.91034 0.86562 0.0
H607 H 0.51935 0.93985 0.90432 0.0
H608 H 0.56831 0.58055 0.01594 0.0
H609 H 0.59818 0.60991 0.98103 0.0
H610 H 0.59296 0.55509 0.86186 0.0
H611 H 0.56301 0.52557 0.89636 0.0
H612 H 0.64859 0.598 0.94538 0.0
H613 H 0.57268 0.62737 0.81521 0.0
H614 H 0.56378 0.61249 0.8646 0.0
H615 H 0.57565 0.59236 0.8188 0.0
C616 C 0.57351 0.57465 0.98233 0.0
C617 C 0.56317 0.55065 0.95901 0.0
C618 C 0.59063 0.59148 0.96243 0.0
C619 C 0.59755 0.58488 0.91863 0.0
C620 C 0.58759 0.56079 0.89545 0.0
H621 H 0.69145 0.67404 0.74493 0.0
H622 H 0.6636 0.64041 0.77482 0.0
C623 C 0.5706 0.54384 0.91541 0.0
C624 C 0.61531 0.60317 0.89747 0.0
H625 H 0.61672 0.64411 0.81306 0.0
C626 C 0.64165 0.60807 0.91643 0.0
C627 C 0.60629 0.61614 0.85947 0.0
C628 C 0.57801 0.61207 0.83835 0.0
C629 C 0.65923 0.62553 0.89842 0.0
C630 C 0.65004 0.63907 0.86108 0.0
C631 C 0.62379 0.63381 0.84167 0.0
C632 C 0.66704 0.65942 0.84274 0.0
C633 C 0.68763 0.62892 0.91921 0.0
C634 C 0.6779 0.68157 0.87065 0.0
C635 C 0.69392 0.70069 0.85377 0.0
C636 C 0.69922 0.69838 0.80831 0.0
C637 C 0.68788 0.67645 0.7801 0.0
C638 C 0.67193 0.65719 0.79716 0.0
H639 H 0.69365 0.61145 0.93694 0.0
H640 H 0.70168 0.63196 0.89347 0.0
H641 H 0.68946 0.64651 0.9443 0.0
H642 H 0.67384 0.68422 0.90558 0.0
H643 H 0.70201 0.71741 0.8765 0.0
H644 H 0.66039 0.26928 0.20687 0.0
H645 H 0.6276 0.29923 0.17735 0.0
H646 H 0.68407 0.3274 0.09069 0.0
H647 H 0.71657 0.297 0.11882 0.0
H648 H 0.63165 0.35166 0.18548 0.0
H649 H 0.61855 0.31705 1.00454 0.0
H650 H 0.635 0.29782 0.04571 0.0
H651 H 0.65294 0.32428 0.02353 0.0
C652 C 0.66565 0.28147 0.18088 0.0
C653 C 0.6911 0.28072 0.16518 0.0
C654 C 0.6469 0.29862 0.16412 0.0
C655 C 0.65324 0.31536 0.13142 0.0
C656 C 0.67843 0.31422 0.11502 0.0
H657 H 0.58499 0.46655 0.08929 0.0
H658 H 0.61228 0.43033 0.11245 0.0
C659 C 0.69708 0.29689 0.13139 0.0
C660 C 0.63441 0.33552 0.11718 0.0
H661 H 0.60416 0.36081 0.02502 0.0
C662 C 0.6254 0.35347 0.1504 0.0
C663 C 0.62599 0.33771 0.07147 0.0
C664 C 0.6334 0.31799 0.03434 0.0
C665 C 0.60879 0.37397 0.13914 0.0
C666 C 0.60162 0.37707 0.09331 0.0
C667 C 0.61001 0.35867 0.06013 0.0
C668 C 0.58529 0.39913 0.07902 0.0
C669 C 0.59883 0.39184 0.17654 0.0
C670 C 0.56152 0.39368 0.05128 0.0
C671 C 0.54613 0.41433 0.03736 0.0
C672 C 0.55418 0.44088 0.05102 0.0
C673 C 0.57811 0.44632 0.07853 0.0
C674 C 0.59364 0.42562 0.09205 0.0
H675 H 0.59919 0.38208 0.20828 0.0
H676 H 0.61197 0.41003 0.18303 0.0
H677 H 0.5782 0.39776 0.1675 0.0
H678 H 0.55474 0.37339 0.04066 0.0
H679 H 0.52777 0.40943 0.01626 0.0
H680 H 0.95728 0.47422 0.37718 0.0
H681 H 0.92207 0.44656 0.33299 0.0
H682 H 0.88961 0.42712 0.45479 0.0
H683 H 0.92481 0.45456 0.49948 0.0
H684 H 0.90241 0.38339 0.39507 0.0
H685 H 0.84022 0.45547 0.30879 0.0
H686 H 0.87562 0.45957 0.30631 0.0
H687 H 0.86186 0.4648 0.35941 0.0
C688 C 0.94249 0.4643 0.39462 0.0
C689 C 0.94394 0.46636 0.44185 0.0
C690 C 0.92228 0.44874 0.36927 0.0
C691 C 0.90322 0.43515 0.39078 0.0
C692 C 0.90414 0.43772 0.43778 0.0
H693 H 0.76744 0.33344 0.29482 0.0
H694 H 0.79698 0.37126 0.32472 0.0
C695 C 0.92429 0.4533 0.46319 0.0
C696 C 0.88416 0.41594 0.36459 0.0
H697 H 0.83106 0.40979 0.28521 0.0
C698 C 0.88677 0.38912 0.37109 0.0
C699 C 0.86387 0.42371 0.33357 0.0
C700 C 0.85997 0.45247 0.32667 0.0
C701 C 0.86956 0.36964 0.34718 0.0
C702 C 0.84956 0.37728 0.31548 0.0
C703 C 0.84674 0.40415 0.30916 0.0
C704 C 0.83063 0.35743 0.2906 0.0
C705 C 0.8726 0.34107 0.35661 0.0
C706 C 0.83966 0.33787 0.26022 0.0
C707 C 0.82298 0.31613 0.24339 0.0
C708 C 0.79702 0.31383 0.25661 0.0
C709 C 0.78743 0.33455 0.28434 0.0
C710 C 0.80418 0.35622 0.30129 0.0
H711 H 0.88539 0.33925 0.38819 0.0
H712 H 0.85287 0.33119 0.35915 0.0
H713 H 0.88193 0.33031 0.32856 0.0
H714 H 0.86002 0.33878 0.25134 0.0
H715 H 0.8308 0.30065 0.22157 0.0
H716 H 0.81992 0.69428 0.77972 0.0
H717 H 0.85438 0.66569 0.75245 0.0
H718 H 0.83371 0.68556 0.61738 0.0
H719 H 0.7995 0.71433 0.64416 0.0
H720 H 0.84804 0.6217 0.68798 0.0
H721 H 0.91456 0.69988 0.63422 0.0
H722 H 0.88863 0.70722 0.67074 0.0
H723 H 0.88056 0.70067 0.6111 0.0
C724 C 0.82276 0.69267 0.74423 0.0
C725 C 0.80699 0.7067 0.71417 0.0
C726 C 0.84247 0.67633 0.72874 0.0
C727 C 0.84688 0.67388 0.68304 0.0
C728 C 0.83103 0.68764 0.65293 0.0
H729 H 0.94432 0.58104 0.51118 0.0
H730 H 0.91347 0.61182 0.54405 0.0
C731 C 0.81134 0.70394 0.66832 0.0
C732 C 0.8674 0.65621 0.66643 0.0
H733 H 0.92348 0.65521 0.61036 0.0
C734 C 0.86468 0.62902 0.67137 0.0
C735 C 0.88903 0.66587 0.6447 0.0
C736 C 0.89359 0.69504 0.64018 0.0
C737 C 0.88262 0.61108 0.65399 0.0
C738 C 0.90407 0.62069 0.6318 0.0
C739 C 0.90697 0.64792 0.6273 0.0
C740 C 0.92349 0.6027 0.6124 0.0
C741 C 0.87799 0.58189 0.65835 0.0
C742 C 0.93973 0.58781 0.64009 0.0
C743 C 0.95735 0.57017 0.62147 0.0
C744 C 0.95918 0.56722 0.57475 0.0
C745 C 0.94337 0.58273 0.54724 0.0
C746 C 0.92573 0.60035 0.56594 0.0
H747 H 0.85737 0.5772 0.66644 0.0
H748 H 0.88168 0.56988 0.62686 0.0
H749 H 0.89197 0.57586 0.68588 0.0
H750 H 0.93868 0.58974 0.67614 0.0
H751 H 0.96935 0.5587 0.64372 0.0
H752 H 0.295 0.29838 0.14847 0.0
H753 H 0.32442 0.33016 0.11841 0.0
H754 H 0.35268 0.36186 0.25295 0.0
H755 H 0.32329 0.32987 0.28365 0.0
H756 H 0.32662 0.38634 0.13112 0.0
H757 H 0.42166 0.34423 0.19366 0.0
H758 H 0.38995 0.32631 0.19143 0.0
H759 H 0.39904 0.35225 0.23547 0.0
C760 C 0.30745 0.31205 0.17189 0.0
C761 C 0.30681 0.3114 0.21865 0.0
C762 C 0.32425 0.33028 0.15451 0.0
C763 C 0.34101 0.3482 0.18334 0.0
C764 C 0.34023 0.34793 0.23003 0.0
H765 H 0.46244 0.46558 0.13558 0.0
H766 H 0.43107 0.43672 0.16777 0.0
C767 C 0.3233 0.32971 0.24754 0.0
C768 C 0.35919 0.3671 0.1642 0.0
H769 H 0.42489 0.38343 0.15725 0.0
C770 C 0.34811 0.38572 0.13681 0.0
C771 C 0.38723 0.36627 0.17158 0.0
C772 C 0.40029 0.34608 0.19931 0.0
C773 C 0.36429 0.40378 0.11717 0.0
C774 C 0.39237 0.40281 0.12421 0.0
C775 C 0.4034 0.38421 0.15175 0.0
C776 C 0.41074 0.42106 0.10391 0.0
C777 C 0.35109 0.42412 0.08993 0.0
C778 C 0.40993 0.42194 0.05708 0.0
C779 C 0.42784 0.43865 0.0384 0.0
C780 C 0.44716 0.45461 0.06616 0.0
C781 C 0.44789 0.45361 0.11302 0.0
C782 C 0.42994 0.43705 0.1316 0.0
H783 H 0.33032 0.42716 0.0983 0.0
H784 H 0.3624 0.44349 0.09553 0.0
H785 H 0.35036 0.41714 0.05371 0.0
H786 H 0.39575 0.40936 0.03485 0.0
H787 H 0.42682 0.43871 1.0022 0.0
H788 H 0.44508 0.57568 0.03869 0.0
H789 H 0.4191 0.61278 0.01498 0.0
H790 H 0.44093 0.59655 0.8798 0.0
H791 H 0.46692 0.55956 0.90293 0.0
H792 H 0.44676 0.6522 0.9181 0.0
H793 H 0.34721 0.60433 0.93224 0.0
H794 H 0.37139 0.60453 0.98009 0.0
H795 H 0.37688 0.58557 0.92853 0.0
C796 C 0.44432 0.57996 1.0039 0.0
C797 C 0.45796 0.56454 0.97266 0.0
C798 C 0.42944 0.60112 0.99044 0.0
C799 C 0.42801 0.6072 0.94562 0.0
C800 C 0.4418 0.59209 0.91453 0.0
H801 H 0.3527 0.7169 0.77721 0.0
H802 H 0.38262 0.68642 0.81262 0.0
C803 C 0.45655 0.57089 0.92783 0.0
C804 C 0.41201 0.62922 0.93077 0.0
H805 H 0.34803 0.64762 0.91001 0.0
C806 C 0.42517 0.65133 0.91648 0.0
C807 C 0.38391 0.62795 0.92893 0.0
C808 C 0.36887 0.60429 0.94294 0.0
C809 C 0.41089 0.67231 0.90022 0.0
C810 C 0.38272 0.67074 0.89725 0.0
C811 C 0.36963 0.64879 0.91235 0.0
C812 C 0.36626 0.69104 0.87709 0.0
C813 C 0.42612 0.69602 0.88681 0.0
C814 C 0.34695 0.70358 0.90139 0.0
C815 C 0.32958 0.72075 0.88108 0.0
C816 C 0.33119 0.7257 0.83598 0.0
C817 C 0.35105 0.71369 0.81209 0.0
C818 C 0.3683 0.69636 0.83237 0.0
H819 H 0.44662 0.69802 0.90401 0.0
H820 H 0.42784 0.69351 0.85007 0.0
H821 H 0.41578 0.71463 0.89474 0.0
H822 H 0.34498 0.69968 0.93589 0.0
H823 H 0.31458 0.72974 0.90053 0.0
H824 H 0.20318 0.7103 0.81294 0.0
H825 H 0.17208 0.67179 0.80031 0.0
H826 H 0.21174 0.64324 0.68466 0.0
H827 H 0.24344 0.68103 0.6982 0.0
H828 H 0.13844 0.66469 0.73015 0.0
H829 H 0.19646 0.5748 0.73459 0.0
H830 H 0.21037 0.60699 0.7575 0.0
H831 H 0.21081 0.59649 0.69848 0.0
C832 C 0.20557 0.69546 0.78542 0.0
C833 C 0.22546 0.69869 0.75619 0.0
C834 C 0.18793 0.67343 0.77845 0.0
C835 C 0.18978 0.65449 0.7419 0.0
C836 C 0.2104 0.65715 0.71388 0.0
H837 H 0.07126 0.58557 0.55233 0.0
H838 H 0.10461 0.61222 0.60248 0.0
C839 C 0.22832 0.67894 0.7213 0.0
C840 C 0.16781 0.63468 0.72831 0.0
H841 H 0.15532 0.57085 0.68351 0.0
C842 C 0.14204 0.644 0.7211 0.0
C843 C 0.17233 0.60761 0.71721 0.0
C844 C 0.19899 0.5959 0.7279 0.0
C845 C 0.12114 0.62748 0.6997 0.0
C846 C 0.12643 0.60125 0.68405 0.0
C847 C 0.15157 0.59124 0.6946 0.0
C848 C 0.10674 0.58471 0.65376 0.0
C849 C 0.09382 0.63852 0.69284 0.0
C850 C 0.09779 0.56004 0.6654 0.0
C851 C 0.079 0.54461 0.63656 0.0
C852 C 0.06897 0.55369 0.59566 0.0
C853 C 0.07842 0.57819 0.58377 0.0
C854 C 0.09732 0.59349 0.61248 0.0
H855 H 0.09098 0.65482 0.71912 0.0
H856 H 0.09159 0.64681 0.65979 0.0
H857 H 0.07788 0.62293 0.69337 0.0
H858 H 0.10505 0.55291 0.69701 0.0
H859 H 0.07204 0.52581 0.64672 0.0
H860 H 0.2076 0.29493 0.38664 0.0
H861 H 0.17491 0.32447 0.41643 0.0
H862 H 0.15247 0.34642 0.2832 0.0
H863 H 0.18505 0.3166 0.25275 0.0
H864 H 0.17371 0.37895 0.41162 0.0
H865 H 0.08051 0.3276 0.33019 0.0
H866 H 0.1121 0.31179 0.3336 0.0
H867 H 0.10495 0.33477 0.29237 0.0
C868 C 0.19564 0.30587 0.36347 0.0
C869 C 0.19897 0.30335 0.31721 0.0
C870 C 0.17695 0.32276 0.38064 0.0
C871 C 0.16106 0.33738 0.35198 0.0
C872 C 0.1642 0.33492 0.30578 0.0
H873 H 0.07737 0.47802 0.42707 0.0
H874 H 0.10648 0.44512 0.39577 0.0
C875 C 0.18295 0.31799 0.28849 0.0
C876 C 0.14216 0.35611 0.37104 0.0
H877 H 0.07628 0.37 0.36911 0.0
C878 C 0.1524 0.37696 0.40242 0.0
C879 C 0.11436 0.35325 0.35937 0.0
C880 C 0.10221 0.33052 0.32734 0.0
C881 C 0.13562 0.39533 0.42191 0.0
C882 C 0.10792 0.39296 0.40922 0.0
C883 C 0.09758 0.37184 0.37848 0.0
C884 C 0.08949 0.41254 0.42715 0.0
C885 C 0.14766 0.41699 0.45626 0.0
C886 C 0.06983 0.40495 0.45431 0.0
C887 C 0.05303 0.42375 0.47236 0.0
C888 C 0.05555 0.45042 0.46322 0.0
C889 C 0.07496 0.45773 0.43516 0.0
C890 C 0.09171 0.43898 0.41727 0.0
H891 H 0.16787 0.41225 0.47034 0.0
H892 H 0.14943 0.43572 0.44005 0.0
H893 H 0.13483 0.42039 0.48431 0.0
H894 H 0.06776 0.38457 0.46211 0.0
H895 H 0.03823 0.41741 0.49363 0.0
H896 H 0.04076 0.04672 0.85285 0.0
H897 H 0.03635 0.03847 0.93095 0.0
H898 H 0.96936 0.98431 0.88815 0.0
H899 H 0.97343 0.99262 0.80989 0.0
H900 H 0.99247 0.04682 0.98108 0.0
H901 H 0.01788 0.94083 0.96769 0.0
H902 H 0.02467 0.96261 0.9253 0.0
H903 H 0.99153 0.94894 0.92761 0.0
C904 C 0.02499 0.03314 0.85998 0.0
C905 C 0.00746 0.02032 0.82495 0.0
C906 C 0.02258 0.02836 0.90467 0.0
C907 C 1.00275 0.01053 0.91537 0.0
C908 C 0.98517 0.99773 0.88061 0.0
H909 H 0.95766 0.9575 0.16737 0.0
H910 H 0.9601 0.96591 0.08878 0.0
C911 C 0.98755 1.0025 0.83585 0.0
C912 C 1.00012 0.0059 0.96303 0.0
H913 H 1.00266 0.95811 0.03646 0.0
C914 C 0.99477 0.02745 0.99325 0.0
C915 C 1.00306 0.98059 0.97881 0.0
C916 C 0.00983 0.95693 0.94833 0.0
C917 C 0.99196 0.02432 0.03869 0.0
C918 C 0.99504 0.99904 0.05454 0.0
C919 C 1.00026 0.97746 0.02426 0.0
C920 C 0.99323 0.99457 0.10249 0.0
C921 C 0.98518 0.048 0.06913 0.0
C922 C 0.01115 0.00775 0.13635 0.0
C923 C 0.00988 1.00291 0.18133 0.0
C924 C 0.99076 0.98462 0.19339 0.0
C925 C 0.97282 0.97149 0.15931 0.0
C926 C 0.9741 0.97635 0.11435 0.0
H927 H 0.97648 0.06378 0.04971 0.0
H928 H 0.97088 0.04224 0.09301 0.0
H929 H 1.00362 0.05646 0.0889 0.0
H930 H 0.02647 0.02144 0.12791 0.0
H931 H 0.02433 0.01301 0.20651 0.0
H932 H 0.33995 0.78279 0.45734 0.0
H933 H 0.33604 0.79066 0.37774 0.0
H934 H 0.25062 0.77997 0.37299 0.0
H935 H 0.25434 0.772 0.45236 0.0
H936 H 0.31444 0.75601 0.30605 0.0
H937 H 0.25962 0.84901 0.31493 0.0
H938 H 0.27619 0.83646 0.36401 0.0
H939 H 0.24394 0.82288 0.34106 0.0
C940 C 0.32033 0.78219 0.43936 0.0
C941 C 0.29744 0.77685 0.46123 0.0
C942 C 0.31813 0.78679 0.39396 0.0
C943 C 0.29303 0.78629 0.36964 0.0
C944 C 0.27015 0.78111 0.39139 0.0
H945 H 0.22777 0.78851 0.09664 0.0
H946 H 0.23692 0.78706 0.17763 0.0
C947 C 0.27231 0.77655 0.43678 0.0
C948 C 0.29079 0.78972 0.32093 0.0
H949 H 0.26114 0.82634 0.24195 0.0
C950 C 0.30305 0.77156 0.29201 0.0
C951 C 0.27593 0.81004 0.30278 0.0
C952 C 0.26337 0.83087 0.33233 0.0
C953 C 0.30001 0.77256 0.24523 0.0
C954 C 0.28465 0.79252 0.22704 0.0
C955 C 0.27286 0.81102 0.25602 0.0
C956 C 0.27951 0.79384 0.17793 0.0
C957 C 0.31243 0.75166 0.21559 0.0
C958 C 0.30043 0.7984 0.15128 0.0
C959 C 0.29525 0.79933 0.10487 0.0
C960 C 0.26902 0.79593 0.0844 0.0
C961 C 0.24814 0.7916 0.11139 0.0
C962 C 0.25334 0.79064 0.15766 0.0
H963 H 0.31856 0.73452 0.23409 0.0
H964 H 0.29836 0.74434 0.18618 0.0
H965 H 0.33042 0.76043 0.20286 0.0
H966 H 0.32073 0.80141 0.16643 0.0
H967 H 0.31172 0.80304 0.0851 0.0
H968 H 0.47035 0.98746 0.72704 0.0
H969 H 0.46631 0.9782 0.64512 0.0
H970 H 0.54276 0.01782 0.63966 0.0
H971 H 0.54738 0.02638 0.72146 0.0
H972 H 0.46574 0.0136 0.57974 0.0
H973 H 0.55086 0.9479 0.5652 0.0
H974 H 0.53716 0.95646 0.61794 0.0
H975 H 0.55962 0.97938 0.59624 0.0
C976 C 0.48651 0.99387 0.70853 0.0
C977 C 0.50924 0.00762 0.7311 0.0
C978 C 0.48407 0.98871 0.66159 0.0
C979 C 0.50438 0.99696 0.63614 0.0
C980 C 0.52702 0.01079 0.6585 0.0
H981 H 0.52721 0.9907 0.35096 0.0
H982 H 0.53085 0.99885 0.43299 0.0
C983 C 0.52948 0.01597 0.70537 0.0
C984 C 0.50157 0.99183 0.58616 0.0
H985 H 0.5312 0.96245 0.49722 0.0
C986 C 0.47996 1.00227 0.56172 0.0
C987 C 0.52016 0.9771 0.56253 0.0
C988 C 0.54312 0.96434 0.58678 0.0
C989 C 0.47675 0.99889 0.51444 0.0
C990 C 0.49539 0.98424 0.49081 0.0
C991 C 0.51695 0.97373 0.51525 0.0
C992 C 0.49285 0.97955 0.44078 0.0
C993 C 0.45377 0.01162 0.49017 0.0
C994 C 0.4704 0.96577 0.4177 0.0
C995 C 0.46817 0.96121 0.37073 0.0
C996 C 0.48843 0.9702 0.34564 0.0
C997 C 0.51101 0.98384 0.36896 0.0
C998 C 0.51323 0.98836 0.41596 0.0
H999 H 0.44572 0.02778 0.51193 0.0
H1000 H 0.45988 0.01987 0.4594 0.0
H1001 H 0.43747 0.99646 0.48 0.0
H1002 H 0.45462 0.95833 0.43605 0.0
H1003 H 0.4504 0.95083 0.35406 0.0
H1004 H 0.27173 0.2702 0.96587 0.0
H1005 H 0.28028 0.27211 0.88715 0.0
H1006 H 0.2142 0.21657 0.84602 0.0
H1007 H 0.20567 0.21428 0.92456 0.0
H1008 H 0.29166 0.23137 0.82218 0.0
H1009 H 0.19753 0.27875 0.77095 0.0
H1010 H 0.20972 0.27748 0.82908 0.0
H1011 H 0.19314 0.24881 0.79771 0.0
C1012 C 0.25915 0.25817 0.94016 0.0
C1013 C 0.23788 0.24221 0.95169 0.0
C1014 C 0.26399 0.25941 0.89512 0.0
C1015 C 0.24759 0.24485 0.86062 0.0
C1016 C 0.22672 0.22847 0.87198 0.0
H1017 H 0.24396 0.2276 0.56843 0.0
H1018 H 0.23564 0.22426 0.64695 0.0
C1019 C 0.22188 0.22719 0.91697 0.0
C1020 C 0.25247 0.24664 0.81278 0.0
H1021 H 0.22406 0.26437 0.71273 0.0
C1022 C 0.27694 0.23868 0.79828 0.0
C1023 C 0.2332 0.25614 0.78158 0.0
C1024 C 0.207 0.26602 0.79556 0.0
C1025 C 0.2825 0.23956 0.75331 0.0
C1026 C 0.26326 0.24911 0.72214 0.0
C1027 C 0.23876 0.25701 0.73661 0.0
C1028 C 0.26827 0.25133 0.67447 0.0
C1029 C 0.30872 0.22974 0.73934 0.0
C1030 C 0.28909 0.26801 0.66376 0.0
C1031 C 0.29379 0.27011 0.61892 0.0
C1032 C 0.27771 0.25564 0.58367 0.0
C1033 C 0.2566 0.23922 0.59457 0.0
C1034 C 0.2519 0.23717 0.63948 0.0
H1035 H 0.31808 0.21681 0.76373 0.0
H1036 H 0.30609 0.21852 0.70561 0.0
H1037 H 0.32264 0.24697 0.73769 0.0
H1038 H 0.30158 0.27963 0.69012 0.0
H1039 H 0.30986 0.28338 0.61187 0.0
H1040 H 0.73748 0.25858 0.92446 0.0
H1041 H 0.72786 0.26032 0.84346 0.0
H1042 H 0.76639 0.18643 0.81885 0.0
H1043 H 0.77536 0.18409 0.8998 0.0
H1044 H 0.76588 0.2619 0.78159 0.0
H1045 H 0.69628 0.17431 0.73869 0.0
H1046 H 0.70405 0.18902 0.79563 0.0
H1047 H 0.72704 0.16755 0.7696 0.0
C1048 C 0.74341 0.2424 0.90187 0.0
C1049 C 0.75715 0.22116 0.91863 0.0
C1050 C 0.73806 0.24353 0.85559 0.0
C1051 C 0.74614 0.22336 0.82517 0.0
C1052 C 0.75955 0.20197 0.84174 0.0
H1053 H 0.74488 0.20222 0.53394 0.0
H1054 H 0.75063 0.19731 0.61468 0.0
C1055 C 0.76493 0.20083 0.88801 0.0
C1056 C 0.74198 0.22557 0.77614 0.0
H1057 H 0.71226 0.19482 0.67749 0.0
C1058 C 0.75403 0.24733 0.75884 0.0
C1059 C 0.72667 0.20641 0.74656 0.0
C1060 C 0.71256 0.18311 0.76349 0.0
C1061 C 0.75148 0.25029 0.71264 0.0
C1062 C 0.73604 0.23123 0.68305 0.0
C1063 C 0.72407 0.20939 0.70029 0.0
C1064 C 0.73191 0.23384 0.63414 0.0
C1065 C 0.76581 0.27353 0.69583 0.0
C1066 C 0.71909 0.25575 0.61835 0.0
C1067 C 0.71598 0.25873 0.57239 0.0
C1068 C 0.72542 0.2397 0.54116 0.0
C1069 C 0.73773 0.21743 0.55708 0.0
C1070 C 0.74086 0.21449 0.60316 0.0
H1071 H 0.78222 0.28208 0.72058 0.0
H1072 H 0.7742 0.26764 0.66358 0.0
H1073 H 0.7515 0.28929 0.69003 0.0
H1074 H 0.71163 0.27068 0.64165 0.0
H1075 H 0.70664 0.27625 0.56144 0.0
H1076 H 0.70828 0.71836 0.4188 0.0
H1077 H 0.7167 0.72242 0.34064 0.0
H1078 H 0.76098 0.79623 0.3806 0.0
H1079 H 0.75249 0.79244 0.4589 0.0
H1080 H 0.7024 0.76292 0.28704 0.0
H1081 H 0.81218 0.75416 0.30587 0.0
H1082 H 0.79111 0.74517 0.3482 0.0
H1083 H 0.79986 0.77942 0.34364 0.0
C1084 C 0.71972 0.73553 0.41102 0.0
C1085 C 0.72971 0.75507 0.44525 0.0
C1086 C 0.72462 0.73775 0.36631 0.0
C1087 C 0.73974 0.75944 0.35481 0.0
C1088 C 0.74974 0.77902 0.38879 0.0
H1089 H 0.78813 0.80637 0.10057 0.0
H1090 H 0.77974 0.80419 0.17931 0.0
C1091 C 0.74486 0.77682 0.43357 0.0
C1092 C 0.74436 0.76187 0.30706 0.0
H1093 H 0.79312 0.76518 0.23531 0.0
C1094 C 0.72223 0.76334 0.27568 0.0
C1095 C 0.77025 0.76251 0.29232 0.0
C1096 C 0.79474 0.76 0.32412 0.0
C1097 C 0.72527 0.76573 0.23009 0.0
C1098 C 0.75114 0.76618 0.21527 0.0
C1099 C 0.7733 0.76487 0.24669 0.0
C1100 C 0.75568 0.76768 0.16723 0.0
C1101 C 0.70076 0.76829 0.19838 0.0
C1102 C 0.74514 0.74778 0.13426 0.0
C1103 C 0.74993 0.74894 0.08922 0.0
C1104 C 0.76559 0.76993 0.07622 0.0
C1105 C 0.77619 0.7898 0.10941 0.0
C1106 C 0.77134 0.78864 0.15443 0.0
H1107 H 0.6836 0.77499 0.21667 0.0
H1108 H 0.70459 0.78249 0.17334 0.0
H1109 H 0.69503 0.74867 0.17998 0.0
H1110 H 0.73354 0.73107 0.14345 0.0
H1111 H 0.74189 0.73303 0.06475 0.0
H1112 H 0.46489 0.4575 0.6687 0.0
H1113 H 0.47018 0.46503 0.59059 0.0
H1114 H 0.5373 0.51892 0.63404 0.0
H1115 H 0.5328 0.51076 0.7122 0.0
H1116 H 0.46801 0.51151 0.54922 0.0
H1117 H 0.5674 0.46873 0.53916 0.0
H1118 H 0.54714 0.46369 0.5846 0.0
H1119 H 0.56607 0.49435 0.5842 0.0
C1120 C 0.48102 0.47069 0.6617 0.0
C1121 C 0.49856 0.48333 0.69689 0.0
C1122 C 0.48389 0.47512 0.61698 0.0
C1123 C 0.50441 0.49218 0.60632 0.0
C1124 C 0.52166 0.50523 0.64132 0.0
H1125 H 0.55257 0.54501 0.35644 0.0
H1126 H 0.54802 0.53734 0.43478 0.0
C1127 C 0.51883 0.5008 0.6861 0.0
C1128 C 0.50738 0.49663 0.55862 0.0
H1129 H 0.55054 0.4908 0.4769 0.0
C1130 C 0.48601 0.50688 0.53335 0.0
C1131 C 0.5309 0.49062 0.53792 0.0
C1132 C 0.55411 0.47851 0.56267 0.0
C1133 C 0.48766 0.51169 0.48823 0.0
C1134 C 0.51115 0.50563 0.4675 0.0
C1135 C 0.53255 0.49543 0.49279 0.0
C1136 C 0.51398 0.50989 0.41969 0.0
C1137 C 0.46443 0.52379 0.46349 0.0
C1138 C 0.49665 0.49665 0.385 0.0
C1139 C 0.49907 0.50115 0.34014 0.0
C1140 C 0.51899 0.51887 0.32894 0.0
C1141 C 0.53671 0.53159 0.36379 0.0
C1142 C 0.53426 0.5271 0.40862 0.0
H1143 H 0.45119 0.53364 0.487 0.0
H1144 H 0.4714 0.53856 0.44145 0.0
H1145 H 0.45243 0.50794 0.44206 0.0
H1146 H 0.48118 0.48287 0.39261 0.0
H1147 H 0.48495 0.49113 0.31433 0.0
H1148 H 0.04398 0.51022 0.83149 0.0
H1149 H 0.04709 0.51879 0.9135 0.0
H1150 H 0.97143 0.47704 0.91591 0.0
H1151 H 0.96805 0.46855 0.8341 0.0
H1152 H 0.01301 0.54545 0.96893 0.0
H1153 H 0.01944 0.44054 1.00611 0.0
H1154 H 0.02407 0.45107 0.95133 0.0
H1155 H 0.99107 0.44666 0.96855 0.0
C1156 C 0.0279 0.50299 0.8494 0.0
C1157 C 1.00585 0.48849 0.82605 0.0
C1158 C 0.02978 0.5078 0.89635 0.0
C1159 C 0.00975 0.49813 0.92101 0.0
C1160 C 0.98749 0.48411 0.89778 0.0
H1161 H 0.97956 0.50632 0.20253 0.0
H1162 H 0.97821 0.49796 0.12073 0.0
C1163 C 0.98559 0.47927 0.85091 0.0
C1164 C 0.01184 0.50311 0.97093 0.0
H1165 H 0.01325 0.47199 0.06756 0.0
C1166 C 0.01324 0.5294 0.99052 0.0
C1167 C 0.01209 0.48216 0.99914 0.0
C1168 C 0.01184 0.45351 0.98033 0.0
C1169 C 0.01424 0.53531 0.03739 0.0
C1170 C 0.01435 0.51435 0.06559 0.0
C1171 C 0.0131 0.48806 0.04599 0.0
C1172 C 0.01553 0.51925 0.11547 0.0
C1173 C 0.01441 0.56395 0.05619 0.0
C1174 C 0.0372 0.53359 0.13997 0.0
C1175 C 0.03808 0.53835 0.18681 0.0
C1176 C 0.0174 0.52867 0.21032 0.0
C1177 C 0.99597 0.51386 0.1857 0.0
C1178 C 0.99509 0.50917 0.13885 0.0
H1179 H 0.00718 0.57698 0.03024 0.0
H1180 H 1.00181 0.56641 0.08472 0.0
H1181 H 0.03509 0.57074 0.06867 0.0
H1182 H 0.05356 0.54099 0.12289 0.0
H1183 H 0.05513 0.54939 0.20467 0.0
loop_
_geom_bond_atom_site_label_1
_geom_bond_atom_site_label_2
_geom_bond_distance
_geom_bond_site_symmetry_2
_ccdc_geom_bond_type
Eu0 C9 2.828 1_655 S
Eu0 O11 2.392 . S
Eu0 O13 2.418 1_655 S
Eu0 O18 2.373 1_665 S
Eu0 O21 2.488 1_655 S
Eu0 O22 2.471 . S
Eu0 O23 2.349 1_565 S
Eu1 O10 2.373 1_445 S
Eu1 O14 2.488 1_455 S
Eu1 O15 2.471 . S
Eu1 O16 2.349 1_545 S
Eu1 O19 2.392 . S
Eu1 O20 2.418 1_455 S
Eu1 C30 2.828 1_455 S
C2 O20 1.244 . S
C2 O23 1.265 . S
C3 C4 1.373 1_465 S
C3 C7 1.373 . S
C3 C9 1.505 . S
C4 C3 1.373 1_645 S
C4 C6 1.362 1_655 S
C4 H32 0.944 . S
C5 C7 1.383 . S
C5 C8 1.382 . S
C5 H33 0.930 . S
C6 C4 1.362 1_455 S
C6 C8 1.392 1_545 S
C6 H34 0.930 1_455 S
C7 C3 1.373 . S
C7 C5 1.383 . S
C7 H35 0.931 . S
C8 C5 1.382 . S
C8 C6 1.392 1_565 S
C9 Eu0 2.828 1_455 S
C9 C3 1.505 . S
C9 O21 1.249 . S
C9 O22 1.244 1_455 S
O10 Eu1 2.373 1_665 S
O10 C12 1.258 . S
O11 Eu0 2.392 . S
O11 C12 1.242 . S
C12 O10 1.258 . S
C12 O11 1.242 . S
O13 Eu0 2.418 1_455 S
O13 C17 1.244 . S
O14 Eu1 2.488 1_655 S
O14 C30 1.249 . S
O15 Eu1 2.471 . S
O15 C30 1.244 1_455 S
O16 Eu1 2.349 1_565 S
O16 C17 1.265 . S
C17 O13 1.244 . S
C17 O16 1.265 . S
O18 Eu0 2.373 1_445 S
O18 C31 1.258 . S
O19 Eu1 2.392 . S
O19 C31 1.242 . S
O20 Eu1 2.418 1_655 S
O20 C2 1.244 . S
O21 Eu0 2.488 1_455 S
O21 C9 1.249 . S
O22 Eu0 2.471 . S
O22 C9 1.244 1_655 S
O23 Eu0 2.349 1_545 S
O23 C2 1.265 . S
C24 C25 1.371 1_645 S
C24 C28 1.373 . S
C24 C30 1.505 . S
C25 C24 1.371 1_465 S
C25 C27 1.359 1_455 S
C25 H36 0.949 . S
C26 C28 1.383 . S
C26 C29 1.382 . S
C26 H37 0.930 . S
C27 C25 1.359 1_655 S
C27 C29 1.392 1_565 S
C27 H38 0.930 1_655 S
C28 C24 1.373 . S
C28 C26 1.383 . S
C28 H39 0.931 . S
C29 C26 1.382 . S
C29 C27 1.392 1_545 S
C30 Eu1 2.828 1_655 S
C30 O14 1.249 . S
C30 O15 1.244 1_655 S
C30 C24 1.505 . S
C31 O18 1.258 . S
C31 O19 1.242 . S
H32 C4 0.944 . S
H33 C5 0.930 . S
H34 C6 0.930 1_655 S
H35 C7 0.931 . S
H36 C25 0.949 . S
H37 C26 0.930 . S
H38 C27 0.930 1_455 S
H39 C28 0.931 . S
Eu40 C49 2.828 . S
Eu40 O51 2.392 . S
Eu40 O53 2.418 . S
Eu40 O58 2.373 . S
Eu40 O61 2.488 . S
Eu40 O62 2.471 . S
Eu40 O63 2.349 . S
Eu41 O50 2.373 . S
Eu41 O54 2.488 . S
Eu41 O55 2.471 . S
Eu41 O56 2.349 . S
Eu41 O59 2.392 . S
Eu41 O60 2.418 . S
Eu41 C70 2.828 . S
C42 O60 1.244 . S
C42 O63 1.265 . S
C43 C44 1.379 . S
C43 C47 1.373 . S
C43 C49 1.505 . S
C44 C43 1.379 . S
C44 C46 1.369 . S
C44 H72 0.930 . S
C45 C47 1.383 . S
C45 C48 1.382 . S
C45 H73 0.930 . S
C46 C44 1.369 . S
C46 C48 1.392 . S
C46 H74 0.930 . S
C47 C43 1.373 . S
C47 C45 1.383 . S
C47 H75 0.931 . S
C48 C45 1.382 . S
C48 C46 1.392 . S
C49 Eu40 2.828 . S
C49 C43 1.505 . S
C49 O61 1.249 . S
C49 O62 1.244 . S
O50 Eu41 2.373 . S
O50 C52 1.258 . S
O51 Eu40 2.392 . S
O51 C52 1.242 . S
C52 O50 1.258 . S
C52 O51 1.242 . S
O53 Eu40 2.418 . S
O53 C57 1.244 . S
O54 Eu41 2.488 . S
O54 C70 1.249 . S
O55 Eu41 2.471 . S
O55 C70 1.244 . S
O56 Eu41 2.349 . S
O56 C57 1.265 . S
C57 O53 1.244 . S
C57 O56 1.265 . S
O58 Eu40 2.373 . S
O58 C71 1.258 . S
O59 Eu41 2.392 . S
O59 C71 1.242 . S
O60 Eu41 2.418 . S
O60 C42 1.244 . S
O61 Eu40 2.488 . S
O61 C49 1.249 . S
O62 Eu40 2.471 . S
O62 C49 1.244 . S
O63 Eu40 2.349 . S
O63 C42 1.265 . S
C64 C65 1.379 . S
C64 C68 1.373 . S
C64 C70 1.505 . S
C65 C64 1.379 . S
C65 C67 1.369 1_556 S
C65 H76 0.930 . S
C66 C68 1.383 . S
C66 C69 1.382 1_556 S
C66 H77 0.930 1_556 S
C67 C65 1.369 1_554 S
C67 C69 1.392 . S
C67 H78 0.930 . S
C68 C64 1.373 . S
C68 C66 1.383 . S
C68 H79 0.931 . S
C69 C66 1.382 1_554 S
C69 C67 1.392 . S
C70 Eu41 2.828 . S
C70 O54 1.249 . S
C70 O55 1.244 . S
C70 C64 1.505 . S
C71 O58 1.258 . S
C71 O59 1.242 . S
H72 C44 0.930 . S
H73 C45 0.930 . S
H74 C46 0.930 . S
H75 C47 0.931 . S
H76 C65 0.930 . S
H77 C66 0.930 1_554 S
H78 C67 0.930 . S
H79 C68 0.931 . S
Eu80 C89 2.828 . S
Eu80 O91 2.392 1_554 S
Eu80 O93 2.418 . S
Eu80 O98 2.373 1_565 S
Eu80 O101 2.488 . S
Eu80 O102 2.471 1_565 S
Eu80 O103 2.349 1_565 S
Eu81 O90 2.373 1_545 S
Eu81 O94 2.488 . S
Eu81 O95 2.471 1_545 S
Eu81 O96 2.349 1_545 S
Eu81 O99 2.392 1_556 S
Eu81 O100 2.418 . S
Eu81 C110 2.828 . S
C82 O100 1.244 1_554 S
C82 O103 1.265 . S
C83 C84 1.379 1_565 S
C83 C87 1.373 . S
C83 C89 1.505 . S
C84 C83 1.379 1_545 S
C84 C86 1.369 . S
C84 H112 0.930 . S
C85 C87 1.383 . S
C85 C88 1.382 1_565 S
C85 H113 0.930 . S
C86 C84 1.369 . S
C86 C88 1.392 . S
C86 H114 0.930 . S
C87 C83 1.373 . S
C87 C85 1.383 . S
C87 H115 0.931 . S
C88 C85 1.382 1_545 S
C88 C86 1.392 . S
C89 Eu80 2.828 . S
C89 C83 1.505 . S
C89 O101 1.249 . S
C89 O102 1.244 1_565 S
O90 Eu81 2.373 1_565 S
O90 C92 1.258 . S
O91 Eu80 2.392 1_556 S
O91 C92 1.242 . S
C92 O90 1.258 . S
C92 O91 1.242 . S
O93 Eu80 2.418 . S
O93 C97 1.244 1_554 S
O94 Eu81 2.488 . S
O94 C110 1.249 . S
O95 Eu81 2.471 1_565 S
O95 C110 1.244 1_565 S
O96 Eu81 2.349 1_565 S
O96 C97 1.265 . S
C97 O93 1.244 1_556 S
C97 O96 1.265 . S
O98 Eu80 2.373 1_545 S
O98 C111 1.258 . S
O99 Eu81 2.392 1_554 S
O99 C111 1.242 . S
O100 Eu81 2.418 . S
O100 C82 1.244 1_556 S
O101 Eu80 2.488 . S
O101 C89 1.249 . S
O102 Eu80 2.471 1_545 S
O102 C89 1.244 1_545 S
O103 Eu80 2.349 1_545 S
O103 C82 1.265 . S
C104 C105 1.379 1_545 S
C104 C108 1.373 . S
C104 C110 1.505 . S
C105 C104 1.379 1_565 S
C105 C107 1.369 . S
C105 H116 0.930 . S
C106 C108 1.383 . S
C106 C109 1.382 1_545 S
C106 H117 0.930 . S
C107 C105 1.369 . S
C107 C109 1.392 . S
C107 H118 0.930 . S
C108 C104 1.373 . S
C108 C106 1.383 . S
C108 H119 0.931 . S
C109 C106 1.382 1_565 S
C109 C107 1.392 . S
C110 Eu81 2.828 . S
C110 O94 1.249 . S
C110 O95 1.244 1_545 S
C110 C104 1.505 . S
C111 O98 1.258 . S
C111 O99 1.242 . S
H112 C84 0.930 . S
H113 C85 0.930 . S
H114 C86 0.930 . S
H115 C87 0.931 . S
H116 C105 0.930 . S
H117 C106 0.930 . S
H118 C107 0.930 . S
H119 C108 0.931 . S
Eu120 C129 2.828 . S
Eu120 O131 2.392 . S
Eu120 O133 2.418 . S
Eu120 O138 2.373 . S
Eu120 O141 2.488 . S
Eu120 O142 2.471 . S
Eu120 O143 2.349 . S
Eu121 O130 2.373 . S
Eu121 O134 2.488 . S
Eu121 O135 2.471 . S
Eu121 O136 2.349 . S
Eu121 O139 2.392 . S
Eu121 O140 2.418 . S
Eu121 C150 2.828 . S
C122 O140 1.244 . S
C122 O143 1.265 . S
C123 C124 1.379 . S
C123 C127 1.373 . S
C123 C129 1.505 . S
C124 C123 1.379 . S
C124 C126 1.369 . S
C124 H152 0.930 . S
C125 C127 1.383 . S
C125 C128 1.382 . S
C125 H153 0.930 . S
C126 C124 1.369 . S
C126 C128 1.392 . S
C126 H154 0.930 . S
C127 C123 1.373 . S
C127 C125 1.383 . S
C127 H155 0.931 . S
C128 C125 1.382 . S
C128 C126 1.392 . S
C129 Eu120 2.828 . S
C129 C123 1.505 . S
C129 O141 1.249 . S
C129 O142 1.244 . S
O130 Eu121 2.373 . S
O130 C132 1.258 . S
O131 Eu120 2.392 . S
O131 C132 1.242 . S
C132 O130 1.258 . S
C132 O131 1.242 . S
O133 Eu120 2.418 . S
O133 C137 1.244 . S
O134 Eu121 2.488 . S
O134 C150 1.249 . S
O135 Eu121 2.471 . S
O135 C150 1.244 . S
O136 Eu121 2.349 . S
O136 C137 1.265 . S
C137 O133 1.244 . S
C137 O136 1.265 . S
O138 Eu120 2.373 . S
O138 C151 1.258 . S
O139 Eu121 2.392 . S
O139 C151 1.242 . S
O140 Eu121 2.418 . S
O140 C122 1.244 . S
O141 Eu120 2.488 . S
O141 C129 1.249 . S
O142 Eu120 2.471 . S
O142 C129 1.244 . S
O143 Eu120 2.349 . S
O143 C122 1.265 . S
C144 C145 1.379 . S
C144 C148 1.373 . S
C144 C150 1.505 . S
C145 C144 1.379 . S
C145 C147 1.369 . S
C145 H156 0.930 . S
C146 C148 1.383 1_556 S
C146 C149 1.382 . S
C146 H157 0.930 . S
C147 C145 1.369 . S
C147 C149 1.392 1_554 S
C147 H158 0.930 1_554 S
C148 C144 1.373 . S
C148 C146 1.383 1_554 S
C148 H159 0.931 . S
C149 C146 1.382 . S
C149 C147 1.392 1_556 S
C150 Eu121 2.828 . S
C150 O134 1.249 . S
C150 O135 1.244 . S
C150 C144 1.505 . S
C151 O138 1.258 . S
C151 O139 1.242 . S
H152 C124 0.930 . S
H153 C125 0.930 . S
H154 C126 0.930 . S
H155 C127 0.931 . S
H156 C145 0.930 . S
H157 C146 0.930 . S
H158 C147 0.930 1_556 S
H159 C148 0.931 . S
Eu160 C169 2.828 . S
Eu160 O171 2.392 . S
Eu160 O173 2.418 . S
Eu160 O178 2.373 . S
Eu160 O181 2.488 . S
Eu160 O182 2.471 . S
Eu160 O183 2.349 . S
Eu161 O170 2.373 . S
Eu161 O174 2.488 . S
Eu161 O175 2.471 . S
Eu161 O176 2.349 . S
Eu161 O179 2.392 . S
Eu161 O180 2.418 . S
Eu161 C190 2.828 . S
C162 O180 1.244 . S
C162 O183 1.265 . S
C163 C164 1.379 . S
C163 C167 1.373 . S
C163 C169 1.505 . S
C164 C163 1.379 . S
C164 C166 1.369 1_554 S
C164 H192 0.930 . S
C165 C167 1.383 . S
C165 C168 1.382 1_554 S
C165 H193 0.930 1_554 S
C166 C164 1.369 1_556 S
C166 C168 1.392 . S
C166 H194 0.930 . S
C167 C163 1.373 . S
C167 C165 1.383 . S
C167 H195 0.931 . S
C168 C165 1.382 1_556 S
C168 C166 1.392 . S
C169 Eu160 2.828 . S
C169 C163 1.505 . S
C169 O181 1.249 . S
C169 O182 1.244 . S
O170 Eu161 2.373 . S
O170 C172 1.258 . S
O171 Eu160 2.392 . S
O171 C172 1.242 . S
C172 O170 1.258 . S
C172 O171 1.242 . S
O173 Eu160 2.418 . S
O173 C177 1.244 . S
O174 Eu161 2.488 . S
O174 C190 1.249 . S
O175 Eu161 2.471 . S
O175 C190 1.244 . S
O176 Eu161 2.349 . S
O176 C177 1.265 . S
C177 O173 1.244 . S
C177 O176 1.265 . S
O178 Eu160 2.373 . S
O178 C191 1.258 . S
O179 Eu161 2.392 . S
O179 C191 1.242 . S
O180 Eu161 2.418 . S
O180 C162 1.244 . S
O181 Eu160 2.488 . S
O181 C169 1.249 . S
O182 Eu160 2.471 . S
O182 C169 1.244 . S
O183 Eu160 2.349 . S
O183 C162 1.265 . S
C184 C185 1.379 . S
C184 C188 1.373 . S
C184 C190 1.505 . S
C185 C184 1.379 . S
C185 C187 1.369 . S
C185 H196 0.930 . S
C186 C188 1.383 . S
C186 C189 1.382 . S
C186 H197 0.930 . S
C187 C185 1.369 . S
C187 C189 1.392 . S
C187 H198 0.930 . S
C188 C184 1.373 . S
C188 C186 1.383 . S
C188 H199 0.931 . S
C189 C186 1.382 . S
C189 C187 1.392 . S
C190 Eu161 2.828 . S
C190 O174 1.249 . S
C190 O175 1.244 . S
C190 C184 1.505 . S
C191 O178 1.258 . S
C191 O179 1.242 . S
H192 C164 0.930 . S
H193 C165 0.930 1_556 S
H194 C166 0.930 . S
H195 C167 0.931 . S
H196 C185 0.930 . S
H197 C186 0.930 . S
H198 C187 0.930 . S
H199 C188 0.931 . S
Eu200 C209 2.828 . S
Eu200 O211 2.392 . S
Eu200 O213 2.418 . S
Eu200 O218 2.373 . S
Eu200 O221 2.488 . S
Eu200 O222 2.471 . S
Eu200 O223 2.349 . S
Eu201 O210 2.373 . S
Eu201 O214 2.488 . S
Eu201 O215 2.471 . S
Eu201 O216 2.349 . S
Eu201 O219 2.392 . S
Eu201 O220 2.418 . S
Eu201 C230 2.828 . S
C202 O220 1.244 . S
C202 O223 1.265 . S
C203 C204 1.379 . S
C203 C207 1.373 . S
C203 C209 1.505 . S
C204 C203 1.379 . S
C204 C206 1.369 . S
C204 H232 0.930 . S
C205 C207 1.383 1_554 S
C205 C208 1.382 . S
C205 H233 0.930 . S
C206 C204 1.369 . S
C206 C208 1.392 1_556 S
C206 H234 0.930 1_556 S
C207 C203 1.373 . S
C207 C205 1.383 1_556 S
C207 H235 0.931 . S
C208 C205 1.382 . S
C208 C206 1.392 1_554 S
C209 Eu200 2.828 . S
C209 C203 1.505 . S
C209 O221 1.249 . S
C209 O222 1.244 . S
O210 Eu201 2.373 . S
O210 C212 1.258 . S
O211 Eu200 2.392 . S
O211 C212 1.242 . S
C212 O210 1.258 . S
C212 O211 1.242 . S
O213 Eu200 2.418 . S
O213 C217 1.244 . S
O214 Eu201 2.488 . S
O214 C230 1.249 . S
O215 Eu201 2.471 . S
O215 C230 1.244 . S
O216 Eu201 2.349 . S
O216 C217 1.265 . S
C217 O213 1.244 . S
C217 O216 1.265 . S
O218 Eu200 2.373 . S
O218 C231 1.258 . S
O219 Eu201 2.392 . S
O219 C231 1.242 . S
O220 Eu201 2.418 . S
O220 C202 1.244 . S
O221 Eu200 2.488 . S
O221 C209 1.249 . S
O222 Eu200 2.471 . S
O222 C209 1.244 . S
O223 Eu200 2.349 . S
O223 C202 1.265 . S
C224 C225 1.379 . S
C224 C228 1.373 . S
C224 C230 1.505 . S
C225 C224 1.379 . S
C225 C227 1.369 . S
C225 H236 0.930 . S
C226 C228 1.383 . S
C226 C229 1.382 . S
C226 H237 0.930 . S
C227 C225 1.369 . S
C227 C229 1.392 . S
C227 H238 0.930 . S
C228 C224 1.373 . S
C228 C226 1.383 . S
C228 H239 0.931 . S
C229 C226 1.382 . S
C229 C227 1.392 . S
C230 Eu201 2.828 . S
C230 O214 1.249 . S
C230 O215 1.244 . S
C230 C224 1.505 . S
C231 O218 1.258 . S
C231 O219 1.242 . S
H232 C204 0.930 . S
H233 C205 0.930 . S
H234 C206 0.930 1_554 S
H235 C207 0.931 . S
H236 C225 0.930 . S
H237 C226 0.930 . S
H238 C227 0.930 . S
H239 C228 0.931 . S
Eu240 C249 2.828 . S
Eu240 O251 2.392 . S
Eu240 O253 2.418 . S
Eu240 O258 2.373 . S
Eu240 O261 2.488 . S
Eu240 O262 2.471 . S
Eu240 O263 2.349 . S
Eu241 O250 2.373 . S
Eu241 O254 2.488 . S
Eu241 O255 2.471 . S
Eu241 O256 2.349 . S
Eu241 O259 2.392 . S
Eu241 O260 2.418 . S
Eu241 C270 2.828 . S
C242 O260 1.244 1_556 S
C242 O263 1.265 . S
C243 C244 1.379 . S
C243 C247 1.373 . S
C243 C249 1.505 . S
C244 C243 1.379 . S
C244 C246 1.369 . S
C244 H272 0.930 . S
C245 C247 1.383 . S
C245 C248 1.382 . S
C245 H273 0.930 . S
C246 C244 1.369 . S
C246 C248 1.392 . S
C246 H274 0.930 . S
C247 C243 1.373 . S
C247 C245 1.383 . S
C247 H275 0.931 . S
C248 C245 1.382 . S
C248 C246 1.392 . S
C249 Eu240 2.828 . S
C249 C243 1.505 . S
C249 O261 1.249 . S
C249 O262 1.244 . S
O250 Eu241 2.373 . S
O250 C252 1.258 . S
O251 Eu240 2.392 . S
O251 C252 1.242 1_556 S
C252 O250 1.258 . S
C252 O251 1.242 1_554 S
O253 Eu240 2.418 . S
O253 C257 1.244 1_556 S
O254 Eu241 2.488 . S
O254 C270 1.249 . S
O255 Eu241 2.471 . S
O255 C270 1.244 . S
O256 Eu241 2.349 . S
O256 C257 1.265 . S
C257 O253 1.244 1_554 S
C257 O256 1.265 . S
O258 Eu240 2.373 . S
O258 C271 1.258 . S
O259 Eu241 2.392 . S
O259 C271 1.242 1_554 S
O260 Eu241 2.418 . S
O260 C242 1.244 1_554 S
O261 Eu240 2.488 . S
O261 C249 1.249 . S
O262 Eu240 2.471 . S
O262 C249 1.244 . S
O263 Eu240 2.349 . S
O263 C242 1.265 . S
C264 C265 1.379 . S
C264 C268 1.373 . S
C264 C270 1.505 . S
C265 C264 1.379 . S
C265 C267 1.369 . S
C265 H276 0.930 . S
C266 C268 1.383 . S
C266 C269 1.382 . S
C266 H277 0.930 . S
C267 C265 1.369 . S
C267 C269 1.392 . S
C267 H278 0.930 . S
C268 C264 1.373 . S
C268 C266 1.383 . S
C268 H279 0.931 . S
C269 C266 1.382 . S
C269 C267 1.392 . S
C270 Eu241 2.828 . S
C270 O254 1.249 . S
C270 O255 1.244 . S
C270 C264 1.505 . S
C271 O258 1.258 . S
C271 O259 1.242 1_556 S
H272 C244 0.930 . S
H273 C245 0.930 . S
H274 C246 0.930 . S
H275 C247 0.931 . S
H276 C265 0.930 . S
H277 C266 0.930 . S
H278 C267 0.930 . S
H279 C268 0.931 . S
Eu280 C289 2.828 1_455 S
Eu280 O291 2.392 . S
Eu280 O293 2.418 1_455 S
Eu280 O298 2.373 1_455 S
Eu280 O301 2.488 1_455 S
Eu280 O302 2.471 . S
Eu280 O303 2.349 . S
Eu281 O290 2.373 1_655 S
Eu281 O294 2.488 1_655 S
Eu281 O295 2.471 . S
Eu281 O296 2.349 . S
Eu281 O299 2.392 . S
Eu281 O300 2.418 1_655 S
Eu281 C310 2.828 1_655 S
C282 O300 1.244 . S
C282 O303 1.265 . S
C283 C284 1.379 1_655 S
C283 C287 1.373 . S
C283 C289 1.505 . S
C284 C283 1.379 1_455 S
C284 C286 1.369 1_455 S
C284 H312 0.930 . S
C285 C287 1.383 . S
C285 C288 1.382 . S
C285 H313 0.930 . S
C286 C284 1.369 1_655 S
C286 C288 1.392 . S
C286 H314 0.930 1_655 S
C287 C283 1.373 . S
C287 C285 1.383 . S
C287 H315 0.931 . S
C288 C285 1.382 . S
C288 C286 1.392 . S
C289 Eu280 2.828 1_655 S
C289 C283 1.505 . S
C289 O301 1.249 . S
C289 O302 1.244 1_655 S
O290 Eu281 2.373 1_455 S
O290 C292 1.258 . S
O291 Eu280 2.392 . S
O291 C292 1.242 . S
C292 O290 1.258 . S
C292 O291 1.242 . S
O293 Eu280 2.418 1_655 S
O293 C297 1.244 . S
O294 Eu281 2.488 1_455 S
O294 C310 1.249 . S
O295 Eu281 2.471 . S
O295 C310 1.244 1_655 S
O296 Eu281 2.349 . S
O296 C297 1.265 . S
C297 O293 1.244 . S
C297 O296 1.265 . S
O298 Eu280 2.373 1_655 S
O298 C311 1.258 . S
O299 Eu281 2.392 . S
O299 C311 1.242 . S
O300 Eu281 2.418 1_455 S
O300 C282 1.244 . S
O301 Eu280 2.488 1_655 S
O301 C289 1.249 . S
O302 Eu280 2.471 . S
O302 C289 1.244 1_455 S
O303 Eu280 2.349 . S
O303 C282 1.265 . S
C304 C305 1.371 1_455 S
C304 C308 1.373 . S
C304 C310 1.505 . S
C305 C304 1.371 1_655 S
C305 C307 1.358 1_655 S
C305 H316 0.951 . S
C306 C308 1.383 . S
C306 C309 1.382 . S
C306 H317 0.930 . S
C307 C305 1.358 1_455 S
C307 C309 1.392 . S
C307 H318 0.930 1_455 S
C308 C304 1.373 . S
C308 C306 1.383 . S
C308 H319 0.931 . S
C309 C306 1.382 . S
C309 C307 1.392 . S
C310 Eu281 2.828 1_455 S
C310 O294 1.249 . S
C310 O295 1.244 1_455 S
C310 C304 1.505 . S
C311 O298 1.258 . S
C311 O299 1.242 . S
H312 C284 0.930 . S
H313 C285 0.930 . S
H314 C286 0.930 1_455 S
H315 C287 0.931 . S
H316 C305 0.951 . S
H317 C306 0.930 . S
H318 C307 0.930 1_655 S
H319 C308 0.931 . S
H320 C328 0.929 . S
H321 C330 0.930 . S
H322 C332 0.930 . S
H323 C335 0.929 . S
H324 C338 0.930 . S
H325 C340 0.960 . S
H326 C340 0.960 . S
H327 C340 0.960 . S
C328 H320 0.929 . S
C328 C329 1.377 . S
C328 C330 1.384 . S
C329 C328 1.377 . S
C329 C335 1.390 . S
C330 H321 0.930 . S
C330 C328 1.384 . S
C330 C331 1.372 . S
C331 C330 1.372 . S
C331 C332 1.400 . S
C331 C336 1.490 . S
C332 H322 0.930 . S
C332 C331 1.400 . S
C332 C335 1.386 . S
H333 C349 0.930 . S
H334 C350 0.931 . S
C335 H323 0.929 . S
C335 C329 1.390 . S
C335 C332 1.386 . S
C336 C331 1.490 . S
C336 C338 1.395 . S
C336 C339 1.403 . S
H337 C343 0.930 . S
C338 H324 0.930 . S
C338 C336 1.395 . S
C338 C341 1.403 . S
C339 C336 1.403 . S
C339 C340 1.524 . S
C339 C343 1.400 . S
C340 H325 0.960 . S
C340 H326 0.960 . S
C340 H327 0.960 . S
C340 C339 1.524 . S
C341 C338 1.403 . S
C341 C342 1.392 . S
C341 C345 1.495 . S
C342 C341 1.392 . S
C342 C343 1.385 . S
C342 C344 1.478 . S
C343 H337 0.930 . S
C343 C339 1.400 . S
C343 C342 1.385 . S
C344 C342 1.478 . S
C344 C346 1.381 . S
C344 C350 1.383 . S
C345 C341 1.495 . S
C345 H351 0.959 . S
C345 H352 0.961 . S
C345 H353 0.960 . S
C346 C344 1.381 . S
C346 C347 1.394 . S
C346 H354 0.930 . S
C347 C346 1.394 . S
C347 C348 1.383 . S
C347 H355 0.929 . S
C348 C347 1.383 . S
C348 C349 1.377 . S
C349 H333 0.930 . S
C349 C348 1.377 . S
C349 C350 1.379 . S
C350 H334 0.931 . S
C350 C344 1.383 . S
C350 C349 1.379 . S
H351 C345 0.959 . S
H352 C345 0.961 . S
H353 C345 0.960 . S
H354 C346 0.930 . S
H355 C347 0.929 . S
H356 C364 0.929 . S
H357 C366 0.930 . S
H358 C368 0.930 . S
H359 C371 0.929 . S
H360 C374 0.930 . S
H361 C376 0.960 . S
H362 C376 0.960 . S
H363 C376 0.960 . S
C364 H356 0.929 . S
C364 C365 1.377 . S
C364 C366 1.384 . S
C365 C364 1.377 . S
C365 C371 1.390 . S
C366 H357 0.930 . S
C366 C364 1.384 . S
C366 C367 1.372 . S
C367 C366 1.372 . S
C367 C368 1.400 . S
C367 C372 1.490 . S
C368 H358 0.930 . S
C368 C367 1.400 . S
C368 C371 1.386 . S
H369 C385 0.930 . S
H370 C386 0.931 . S
C371 H359 0.929 . S
C371 C365 1.390 . S
C371 C368 1.386 . S
C372 C367 1.490 . S
C372 C374 1.395 . S
C372 C375 1.403 . S
H373 C379 0.930 . S
C374 H360 0.930 . S
C374 C372 1.395 . S
C374 C377 1.403 . S
C375 C372 1.403 . S
C375 C376 1.524 . S
C375 C379 1.400 . S
C376 H361 0.960 . S
C376 H362 0.960 . S
C376 H363 0.960 . S
C376 C375 1.524 . S
C377 C374 1.403 . S
C377 C378 1.392 . S
C377 C381 1.495 . S
C378 C377 1.392 . S
C378 C379 1.385 . S
C378 C380 1.478 . S
C379 H373 0.930 . S
C379 C375 1.400 . S
C379 C378 1.385 . S
C380 C378 1.478 . S
C380 C382 1.381 . S
C380 C386 1.383 . S
C381 C377 1.495 . S
C381 H387 0.959 . S
C381 H388 0.961 . S
C381 H389 0.960 . S
C382 C380 1.381 . S
C382 C383 1.394 . S
C382 H390 0.930 . S
C383 C382 1.394 . S
C383 C384 1.383 . S
C383 H391 0.929 . S
C384 C383 1.383 . S
C384 C385 1.377 . S
C385 H369 0.930 . S
C385 C384 1.377 . S
C385 C386 1.379 . S
C386 H370 0.931 . S
C386 C380 1.383 . S
C386 C385 1.379 . S
H387 C381 0.959 . S
H388 C381 0.961 . S
H389 C381 0.960 . S
H390 C382 0.930 . S
H391 C383 0.929 . S
H392 C400 0.929 . S
H393 C402 0.930 . S
H394 C404 0.930 . S
H395 C407 0.929 . S
H396 C410 0.930 . S
H397 C412 0.960 . S
H398 C412 0.960 . S
H399 C412 0.960 . S
C400 H392 0.929 . S
C400 C401 1.377 . S
C400 C402 1.384 . S
C401 C400 1.377 . S
C401 C407 1.390 . S
C402 H393 0.930 . S
C402 C400 1.384 . S
C402 C403 1.372 . S
C403 C402 1.372 . S
C403 C404 1.400 . S
C403 C408 1.490 . S
C404 H394 0.930 . S
C404 C403 1.400 . S
C404 C407 1.386 . S
H405 C421 0.930 . S
H406 C422 0.931 . S
C407 H395 0.929 . S
C407 C401 1.390 . S
C407 C404 1.386 . S
C408 C403 1.490 . S
C408 C410 1.395 . S
C408 C411 1.403 . S
H409 C415 0.930 . S
C410 H396 0.930 . S
C410 C408 1.395 . S
C410 C413 1.403 . S
C411 C408 1.403 . S
C411 C412 1.524 . S
C411 C415 1.400 . S
C412 H397 0.960 . S
C412 H398 0.960 . S
C412 H399 0.960 . S
C412 C411 1.524 . S
C413 C410 1.403 . S
C413 C414 1.392 . S
C413 C417 1.495 . S
C414 C413 1.392 . S
C414 C415 1.385 . S
C414 C416 1.478 . S
C415 H409 0.930 . S
C415 C411 1.400 . S
C415 C414 1.385 . S
C416 C414 1.478 . S
C416 C418 1.381 . S
C416 C422 1.383 . S
C417 C413 1.495 . S
C417 H423 0.959 . S
C417 H424 0.961 . S
C417 H425 0.960 . S
C418 C416 1.381 . S
C418 C419 1.394 . S
C418 H426 0.930 . S
C419 C418 1.394 . S
C419 C420 1.383 . S
C419 H427 0.929 . S
C420 C419 1.383 . S
C420 C421 1.377 . S
C421 H405 0.930 . S
C421 C420 1.377 . S
C421 C422 1.379 . S
C422 H406 0.931 . S
C422 C416 1.383 . S
C422 C421 1.379 . S
H423 C417 0.959 . S
H424 C417 0.961 . S
H425 C417 0.960 . S
H426 C418 0.930 . S
H427 C419 0.929 . S
H428 C436 0.929 . S
H429 C438 0.930 . S
H430 C440 0.930 . S
H431 C443 0.929 . S
H432 C446 0.930 . S
H433 C448 0.960 . S
H434 C448 0.960 . S
H435 C448 0.960 . S
C436 H428 0.929 . S
C436 C437 1.377 . S
C436 C438 1.384 . S
C437 C436 1.377 . S
C437 C443 1.390 . S
C438 H429 0.930 . S
C438 C436 1.384 . S
C438 C439 1.372 . S
C439 C438 1.372 . S
C439 C440 1.400 . S
C439 C444 1.490 . S
C440 H430 0.930 . S
C440 C439 1.400 . S
C440 C443 1.386 . S
H441 C457 0.930 . S
H442 C458 0.931 . S
C443 H431 0.929 . S
C443 C437 1.390 . S
C443 C440 1.386 . S
C444 C439 1.490 . S
C444 C446 1.395 . S
C444 C447 1.403 . S
H445 C451 0.930 . S
C446 H432 0.930 . S
C446 C444 1.395 . S
C446 C449 1.403 . S
C447 C444 1.403 . S
C447 C448 1.524 . S
C447 C451 1.400 . S
C448 H433 0.960 . S
C448 H434 0.960 . S
C448 H435 0.960 . S
C448 C447 1.524 . S
C449 C446 1.403 . S
C449 C450 1.392 . S
C449 C453 1.495 . S
C450 C449 1.392 . S
C450 C451 1.385 . S
C450 C452 1.478 . S
C451 H445 0.930 . S
C451 C447 1.400 . S
C451 C450 1.385 . S
C452 C450 1.478 . S
C452 C454 1.381 . S
C452 C458 1.383 . S
C453 C449 1.495 . S
C453 H459 0.959 . S
C453 H460 0.961 . S
C453 H461 0.960 . S
C454 C452 1.381 . S
C454 C455 1.394 . S
C454 H462 0.930 . S
C455 C454 1.394 . S
C455 C456 1.383 . S
C455 H463 0.929 . S
C456 C455 1.383 . S
C456 C457 1.377 . S
C457 H441 0.930 . S
C457 C456 1.377 . S
C457 C458 1.379 . S
C458 H442 0.931 . S
C458 C452 1.383 . S
C458 C457 1.379 . S
H459 C453 0.959 . S
H460 C453 0.961 . S
H461 C453 0.960 . S
H462 C454 0.930 . S
H463 C455 0.929 . S
H464 C472 0.929 . S
H465 C474 0.930 . S
H466 C476 0.930 . S
H467 C479 0.929 . S
H468 C482 0.930 . S
H469 C484 0.960 . S
H470 C484 0.960 . S
H471 C484 0.960 . S
C472 H464 0.929 . S
C472 C473 1.377 . S
C472 C474 1.384 . S
C473 C472 1.377 . S
C473 C479 1.390 . S
C474 H465 0.930 . S
C474 C472 1.384 . S
C474 C475 1.372 . S
C475 C474 1.372 . S
C475 C476 1.400 . S
C475 C480 1.490 . S
C476 H466 0.930 . S
C476 C475 1.400 . S
C476 C479 1.386 . S
H477 C493 0.930 . S
H478 C494 0.931 . S
C479 H467 0.929 . S
C479 C473 1.390 . S
C479 C476 1.386 . S
C480 C475 1.490 . S
C480 C482 1.395 . S
C480 C483 1.403 . S
H481 C487 0.930 . S
C482 H468 0.930 . S
C482 C480 1.395 . S
C482 C485 1.403 . S
C483 C480 1.403 . S
C483 C484 1.524 . S
C483 C487 1.400 . S
C484 H469 0.960 . S
C484 H470 0.960 . S
C484 H471 0.960 . S
C484 C483 1.524 . S
C485 C482 1.403 . S
C485 C486 1.392 . S
C485 C489 1.495 . S
C486 C485 1.392 . S
C486 C487 1.385 . S
C486 C488 1.478 . S
C487 H481 0.930 . S
C487 C483 1.400 . S
C487 C486 1.385 . S
C488 C486 1.478 . S
C488 C490 1.381 . S
C488 C494 1.383 . S
C489 C485 1.495 . S
C489 H495 0.959 . S
C489 H496 0.961 . S
C489 H497 0.960 . S
C490 C488 1.381 . S
C490 C491 1.394 . S
C490 H498 0.930 . S
C491 C490 1.394 . S
C491 C492 1.383 . S
C491 H499 0.929 . S
C492 C491 1.383 . S
C492 C493 1.377 . S
C493 H477 0.930 . S
C493 C492 1.377 . S
C493 C494 1.379 . S
C494 H478 0.931 . S
C494 C488 1.383 . S
C494 C493 1.379 . S
H495 C489 0.959 . S
H496 C489 0.961 . S
H497 C489 0.960 . S
H498 C490 0.930 . S
H499 C491 0.929 . S
H500 C508 0.929 . S
H501 C510 0.930 . S
H502 C512 0.930 . S
H503 C515 0.929 . S
H504 C518 0.930 . S
H505 C520 0.960 . S
H506 C520 0.960 . S
H507 C520 0.960 . S
C508 H500 0.929 . S
C508 C509 1.377 . S
C508 C510 1.384 . S
C509 C508 1.377 . S
C509 C515 1.390 . S
C510 H501 0.930 . S
C510 C508 1.384 . S
C510 C511 1.372 . S
C511 C510 1.372 . S
C511 C512 1.400 . S
C511 C516 1.490 . S
C512 H502 0.930 . S
C512 C511 1.400 . S
C512 C515 1.386 . S
H513 C529 0.930 . S
H514 C530 0.931 . S
C515 H503 0.929 . S
C515 C509 1.390 . S
C515 C512 1.386 . S
C516 C511 1.490 . S
C516 C518 1.395 . S
C516 C519 1.403 . S
H517 C523 0.930 . S
C518 H504 0.930 . S
C518 C516 1.395 . S
C518 C521 1.403 . S
C519 C516 1.403 . S
C519 C520 1.524 . S
C519 C523 1.400 . S
C520 H505 0.960 . S
C520 H506 0.960 . S
C520 H507 0.960 . S
C520 C519 1.524 . S
C521 C518 1.403 . S
C521 C522 1.392 . S
C521 C525 1.495 . S
C522 C521 1.392 . S
C522 C523 1.385 . S
C522 C524 1.478 . S
C523 H517 0.930 . S
C523 C519 1.400 . S
C523 C522 1.385 . S
C524 C522 1.478 . S
C524 C526 1.381 . S
C524 C530 1.383 . S
C525 C521 1.495 . S
C525 H531 0.959 . S
C525 H532 0.961 . S
C525 H533 0.960 . S
C526 C524 1.381 . S
C526 C527 1.394 . S
C526 H534 0.930 . S
C527 C526 1.394 . S
C527 C528 1.383 . S
C527 H535 0.929 . S
C528 C527 1.383 . S
C528 C529 1.377 . S
C529 H513 0.930 . S
C529 C528 1.377 . S
C529 C530 1.379 . S
C530 H514 0.931 . S
C530 C524 1.383 . S
C530 C529 1.379 . S
H531 C525 0.959 . S
H532 C525 0.961 . S
H533 C525 0.960 . S
H534 C526 0.930 . S
H535 C527 0.929 . S
H536 C544 0.929 . S
H537 C546 0.930 . S
H538 C548 0.930 . S
H539 C551 0.929 . S
H540 C554 0.930 . S
H541 C556 0.960 . S
H542 C556 0.960 . S
H543 C556 0.960 . S
C544 H536 0.929 . S
C544 C545 1.377 . S
C544 C546 1.384 . S
C545 C544 1.377 . S
C545 C551 1.390 . S
C546 H537 0.930 . S
C546 C544 1.384 . S
C546 C547 1.372 . S
C547 C546 1.372 . S
C547 C548 1.400 . S
C547 C552 1.490 . S
C548 H538 0.930 . S
C548 C547 1.400 . S
C548 C551 1.386 . S
H549 C565 0.930 . S
H550 C566 0.931 . S
C551 H539 0.929 . S
C551 C545 1.390 . S
C551 C548 1.386 . S
C552 C547 1.490 . S
C552 C554 1.395 . S
C552 C555 1.403 . S
H553 C559 0.930 . S
C554 H540 0.930 . S
C554 C552 1.395 . S
C554 C557 1.403 . S
C555 C552 1.403 . S
C555 C556 1.524 . S
C555 C559 1.400 . S
C556 H541 0.960 . S
C556 H542 0.960 . S
C556 H543 0.960 . S
C556 C555 1.524 . S
C557 C554 1.403 . S
C557 C558 1.392 . S
C557 C561 1.495 . S
C558 C557 1.392 . S
C558 C559 1.385 . S
C558 C560 1.478 . S
C559 H553 0.930 . S
C559 C555 1.400 . S
C559 C558 1.385 . S
C560 C558 1.478 . S
C560 C562 1.381 . S
C560 C566 1.383 . S
C561 C557 1.495 . S
C561 H567 0.959 . S
C561 H568 0.961 . S
C561 H569 0.960 . S
C562 C560 1.381 . S
C562 C563 1.394 . S
C562 H570 0.930 . S
C563 C562 1.394 . S
C563 C564 1.383 . S
C563 H571 0.929 1_554 S
C564 C563 1.383 . S
C564 C565 1.377 . S
C565 H549 0.930 . S
C565 C564 1.377 . S
C565 C566 1.379 . S
C566 H550 0.931 . S
C566 C560 1.383 . S
C566 C565 1.379 . S
H567 C561 0.959 . S
H568 C561 0.961 . S
H569 C561 0.960 . S
H570 C562 0.930 . S
H571 C563 0.929 1_556 S
H572 C580 0.929 . S
H573 C582 0.930 . S
H574 C584 0.930 . S
H575 C587 0.929 . S
H576 C590 0.930 . S
H577 C592 0.960 . S
H578 C592 0.960 . S
H579 C592 0.960 . S
C580 H572 0.929 . S
C580 C581 1.377 . S
C580 C582 1.384 . S
C581 C580 1.377 . S
C581 C587 1.390 . S
C582 H573 0.930 . S
C582 C580 1.384 . S
C582 C583 1.372 . S
C583 C582 1.372 . S
C583 C584 1.400 . S
C583 C588 1.490 . S
C584 H574 0.930 . S
C584 C583 1.400 . S
C584 C587 1.386 . S
H585 C601 0.930 . S
H586 C602 0.931 . S
C587 H575 0.929 . S
C587 C581 1.390 . S
C587 C584 1.386 . S
C588 C583 1.490 . S
C588 C590 1.395 . S
C588 C591 1.403 . S
H589 C595 0.930 . S
C590 H576 0.930 . S
C590 C588 1.395 . S
C590 C593 1.403 . S
C591 C588 1.403 . S
C591 C592 1.524 . S
C591 C595 1.400 . S
C592 H577 0.960 . S
C592 H578 0.960 . S
C592 H579 0.960 . S
C592 C591 1.524 . S
C593 C590 1.403 . S
C593 C594 1.392 . S
C593 C597 1.495 . S
C594 C593 1.392 . S
C594 C595 1.385 . S
C594 C596 1.478 . S
C595 H589 0.930 . S
C595 C591 1.400 . S
C595 C594 1.385 . S
C596 C594 1.478 . S
C596 C598 1.381 . S
C596 C602 1.383 . S
C597 C593 1.495 . S
C597 H603 0.959 . S
C597 H604 0.961 . S
C597 H605 0.960 . S
C598 C596 1.381 . S
C598 C599 1.394 . S
C598 H606 0.930 . S
C599 C598 1.394 . S
C599 C600 1.383 . S
C599 H607 0.929 . S
C600 C599 1.383 . S
C600 C601 1.377 . S
C601 H585 0.930 . S
C601 C600 1.377 . S
C601 C602 1.379 . S
C602 H586 0.931 . S
C602 C596 1.383 . S
C602 C601 1.379 . S
H603 C597 0.959 . S
H604 C597 0.961 . S
H605 C597 0.960 . S
H606 C598 0.930 . S
H607 C599 0.929 . S
H608 C616 0.929 . S
H609 C618 0.930 . S
H610 C620 0.930 . S
H611 C623 0.929 . S
H612 C626 0.930 . S
H613 C628 0.960 . S
H614 C628 0.960 . S
H615 C628 0.960 . S
C616 H608 0.929 . S
C616 C617 1.377 . S
C616 C618 1.384 . S
C617 C616 1.377 . S
C617 C623 1.390 . S
C618 H609 0.930 . S
C618 C616 1.384 . S
C618 C619 1.372 . S
C619 C618 1.372 . S
C619 C620 1.400 . S
C619 C624 1.490 . S
C620 H610 0.930 . S
C620 C619 1.400 . S
C620 C623 1.386 . S
H621 C637 0.930 . S
H622 C638 0.931 . S
C623 H611 0.929 . S
C623 C617 1.390 . S
C623 C620 1.386 . S
C624 C619 1.490 . S
C624 C626 1.395 . S
C624 C627 1.403 . S
H625 C631 0.930 . S
C626 H612 0.930 . S
C626 C624 1.395 . S
C626 C629 1.403 . S
C627 C624 1.403 . S
C627 C628 1.524 . S
C627 C631 1.400 . S
C628 H613 0.960 . S
C628 H614 0.960 . S
C628 H615 0.960 . S
C628 C627 1.524 . S
C629 C626 1.403 . S
C629 C630 1.392 . S
C629 C633 1.495 . S
C630 C629 1.392 . S
C630 C631 1.385 . S
C630 C632 1.478 . S
C631 H625 0.930 . S
C631 C627 1.400 . S
C631 C630 1.385 . S
C632 C630 1.478 . S
C632 C634 1.381 . S
C632 C638 1.383 . S
C633 C629 1.495 . S
C633 H639 0.959 . S
C633 H640 0.961 . S
C633 H641 0.960 . S
C634 C632 1.381 . S
C634 C635 1.394 . S
C634 H642 0.930 . S
C635 C634 1.394 . S
C635 C636 1.383 . S
C635 H643 0.929 . S
C636 C635 1.383 . S
C636 C637 1.377 . S
C637 H621 0.930 . S
C637 C636 1.377 . S
C637 C638 1.379 . S
C638 H622 0.931 . S
C638 C632 1.383 . S
C638 C637 1.379 . S
H639 C633 0.959 . S
H640 C633 0.961 . S
H641 C633 0.960 . S
H642 C634 0.930 . S
H643 C635 0.929 . S
H644 C652 0.929 . S
H645 C654 0.930 . S
H646 C656 0.930 . S
H647 C659 0.929 . S
H648 C662 0.930 . S
H649 C664 0.960 . S
H650 C664 0.960 . S
H651 C664 0.960 . S
C652 H644 0.929 . S
C652 C653 1.377 . S
C652 C654 1.384 . S
C653 C652 1.377 . S
C653 C659 1.390 . S
C654 H645 0.930 . S
C654 C652 1.384 . S
C654 C655 1.372 . S
C655 C654 1.372 . S
C655 C656 1.400 . S
C655 C660 1.490 . S
C656 H646 0.930 . S
C656 C655 1.400 . S
C656 C659 1.386 . S
H657 C673 0.930 . S
H658 C674 0.931 . S
C659 H647 0.929 . S
C659 C653 1.390 . S
C659 C656 1.386 . S
C660 C655 1.490 . S
C660 C662 1.395 . S
C660 C663 1.403 . S
H661 C667 0.930 . S
C662 H648 0.930 . S
C662 C660 1.395 . S
C662 C665 1.403 . S
C663 C660 1.403 . S
C663 C664 1.524 . S
C663 C667 1.400 . S
C664 H649 0.960 . S
C664 H650 0.960 . S
C664 H651 0.960 . S
C664 C663 1.524 . S
C665 C662 1.403 . S
C665 C666 1.392 . S
C665 C669 1.495 . S
C666 C665 1.392 . S
C666 C667 1.385 . S
C666 C668 1.478 . S
C667 H661 0.930 . S
C667 C663 1.400 . S
C667 C666 1.385 . S
C668 C666 1.478 . S
C668 C670 1.381 . S
C668 C674 1.383 . S
C669 C665 1.495 . S
C669 H675 0.959 . S
C669 H676 0.961 . S
C669 H677 0.960 . S
C670 C668 1.381 . S
C670 C671 1.394 . S
C670 H678 0.930 . S
C671 C670 1.394 . S
C671 C672 1.383 . S
C671 H679 0.929 . S
C672 C671 1.383 . S
C672 C673 1.377 . S
C673 H657 0.930 . S
C673 C672 1.377 . S
C673 C674 1.379 . S
C674 H658 0.931 . S
C674 C668 1.383 . S
C674 C673 1.379 . S
H675 C669 0.959 . S
H676 C669 0.961 . S
H677 C669 0.960 . S
H678 C670 0.930 . S
H679 C671 0.929 . S
H680 C688 0.929 . S
H681 C690 0.930 . S
H682 C692 0.930 . S
H683 C695 0.929 . S
H684 C698 0.930 . S
H685 C700 0.960 . S
H686 C700 0.960 . S
H687 C700 0.960 . S
C688 H680 0.929 . S
C688 C689 1.377 . S
C688 C690 1.384 . S
C689 C688 1.377 . S
C689 C695 1.390 . S
C690 H681 0.930 . S
C690 C688 1.384 . S
C690 C691 1.372 . S
C691 C690 1.372 . S
C691 C692 1.400 . S
C691 C696 1.490 . S
C692 H682 0.930 . S
C692 C691 1.400 . S
C692 C695 1.386 . S
H693 C709 0.930 . S
H694 C710 0.931 . S
C695 H683 0.929 . S
C695 C689 1.390 . S
C695 C692 1.386 . S
C696 C691 1.490 . S
C696 C698 1.395 . S
C696 C699 1.403 . S
H697 C703 0.930 . S
C698 H684 0.930 . S
C698 C696 1.395 . S
C698 C701 1.403 . S
C699 C696 1.403 . S
C699 C700 1.524 . S
C699 C703 1.400 . S
C700 H685 0.960 . S
C700 H686 0.960 . S
C700 H687 0.960 . S
C700 C699 1.524 . S
C701 C698 1.403 . S
C701 C702 1.392 . S
C701 C705 1.495 . S
C702 C701 1.392 . S
C702 C703 1.385 . S
C702 C704 1.478 . S
C703 H697 0.930 . S
C703 C699 1.400 . S
C703 C702 1.385 . S
C704 C702 1.478 . S
C704 C706 1.381 . S
C704 C710 1.383 . S
C705 C701 1.495 . S
C705 H711 0.959 . S
C705 H712 0.961 . S
C705 H713 0.960 . S
C706 C704 1.381 . S
C706 C707 1.394 . S
C706 H714 0.930 . S
C707 C706 1.394 . S
C707 C708 1.383 . S
C707 H715 0.929 . S
C708 C707 1.383 . S
C708 C709 1.377 . S
C709 H693 0.930 . S
C709 C708 1.377 . S
C709 C710 1.379 . S
C710 H694 0.931 . S
C710 C704 1.383 . S
C710 C709 1.379 . S
H711 C705 0.959 . S
H712 C705 0.961 . S
H713 C705 0.960 . S
H714 C706 0.930 . S
H715 C707 0.929 . S
H716 C724 0.929 . S
H717 C726 0.930 . S
H718 C728 0.930 . S
H719 C731 0.929 . S
H720 C734 0.930 . S
H721 C736 0.960 . S
H722 C736 0.960 . S
H723 C736 0.960 . S
C724 H716 0.929 . S
C724 C725 1.377 . S
C724 C726 1.384 . S
C725 C724 1.377 . S
C725 C731 1.390 . S
C726 H717 0.930 . S
C726 C724 1.384 . S
C726 C727 1.372 . S
C727 C726 1.372 . S
C727 C728 1.400 . S
C727 C732 1.490 . S
C728 H718 0.930 . S
C728 C727 1.400 . S
C728 C731 1.386 . S
H729 C745 0.930 . S
H730 C746 0.931 . S
C731 H719 0.929 . S
C731 C725 1.390 . S
C731 C728 1.386 . S
C732 C727 1.490 . S
C732 C734 1.395 . S
C732 C735 1.403 . S
H733 C739 0.930 . S
C734 H720 0.930 . S
C734 C732 1.395 . S
C734 C737 1.403 . S
C735 C732 1.403 . S
C735 C736 1.524 . S
C735 C739 1.400 . S
C736 H721 0.960 . S
C736 H722 0.960 . S
C736 H723 0.960 . S
C736 C735 1.524 . S
C737 C734 1.403 . S
C737 C738 1.392 . S
C737 C741 1.495 . S
C738 C737 1.392 . S
C738 C739 1.385 . S
C738 C740 1.478 . S
C739 H733 0.930 . S
C739 C735 1.400 . S
C739 C738 1.385 . S
C740 C738 1.478 . S
C740 C742 1.381 . S
C740 C746 1.383 . S
C741 C737 1.495 . S
C741 H747 0.959 . S
C741 H748 0.961 . S
C741 H749 0.960 . S
C742 C740 1.381 . S
C742 C743 1.394 . S
C742 H750 0.930 . S
C743 C742 1.394 . S
C743 C744 1.383 . S
C743 H751 0.929 . S
C744 C743 1.383 . S
C744 C745 1.377 . S
C745 H729 0.930 . S
C745 C744 1.377 . S
C745 C746 1.379 . S
C746 H730 0.931 . S
C746 C740 1.383 . S
C746 C745 1.379 . S
H747 C741 0.959 . S
H748 C741 0.961 . S
H749 C741 0.960 . S
H750 C742 0.930 . S
H751 C743 0.929 . S
H752 C760 0.929 . S
H753 C762 0.930 . S
H754 C764 0.930 . S
H755 C767 0.929 . S
H756 C770 0.930 . S
H757 C772 0.960 . S
H758 C772 0.960 . S
H759 C772 0.960 . S
C760 H752 0.929 . S
C760 C761 1.377 . S
C760 C762 1.384 . S
C761 C760 1.377 . S
C761 C767 1.390 . S
C762 H753 0.930 . S
C762 C760 1.384 . S
C762 C763 1.372 . S
C763 C762 1.372 . S
C763 C764 1.400 . S
C763 C768 1.490 . S
C764 H754 0.930 . S
C764 C763 1.400 . S
C764 C767 1.386 . S
H765 C781 0.930 . S
H766 C782 0.931 . S
C767 H755 0.929 . S
C767 C761 1.390 . S
C767 C764 1.386 . S
C768 C763 1.490 . S
C768 C770 1.395 . S
C768 C771 1.403 . S
H769 C775 0.930 . S
C770 H756 0.930 . S
C770 C768 1.395 . S
C770 C773 1.403 . S
C771 C768 1.403 . S
C771 C772 1.524 . S
C771 C775 1.400 . S
C772 H757 0.960 . S
C772 H758 0.960 . S
C772 H759 0.960 . S
C772 C771 1.524 . S
C773 C770 1.403 . S
C773 C774 1.392 . S
C773 C777 1.495 . S
C774 C773 1.392 . S
C774 C775 1.385 . S
C774 C776 1.478 . S
C775 H769 0.930 . S
C775 C771 1.400 . S
C775 C774 1.385 . S
C776 C774 1.478 . S
C776 C778 1.381 . S
C776 C782 1.383 . S
C777 C773 1.495 . S
C777 H783 0.959 . S
C777 H784 0.961 . S
C777 H785 0.960 . S
C778 C776 1.381 . S
C778 C779 1.394 . S
C778 H786 0.930 . S
C779 C778 1.394 . S
C779 C780 1.383 . S
C779 H787 0.929 1_554 S
C780 C779 1.383 . S
C780 C781 1.377 . S
C781 H765 0.930 . S
C781 C780 1.377 . S
C781 C782 1.379 . S
C782 H766 0.931 . S
C782 C776 1.383 . S
C782 C781 1.379 . S
H783 C777 0.959 . S
H784 C777 0.961 . S
H785 C777 0.960 . S
H786 C778 0.930 . S
H787 C779 0.929 1_556 S
H788 C796 0.929 1_554 S
H789 C798 0.930 . S
H790 C800 0.930 . S
H791 C803 0.929 . S
H792 C806 0.930 . S
H793 C808 0.960 . S
H794 C808 0.960 . S
H795 C808 0.960 . S
C796 H788 0.929 1_556 S
C796 C797 1.377 . S
C796 C798 1.384 . S
C797 C796 1.377 . S
C797 C803 1.390 . S
C798 H789 0.930 . S
C798 C796 1.384 . S
C798 C799 1.372 . S
C799 C798 1.372 . S
C799 C800 1.400 . S
C799 C804 1.490 . S
C800 H790 0.930 . S
C800 C799 1.400 . S
C800 C803 1.386 . S
H801 C817 0.930 . S
H802 C818 0.931 . S
C803 H791 0.929 . S
C803 C797 1.390 . S
C803 C800 1.386 . S
C804 C799 1.490 . S
C804 C806 1.395 . S
C804 C807 1.403 . S
H805 C811 0.930 . S
C806 H792 0.930 . S
C806 C804 1.395 . S
C806 C809 1.403 . S
C807 C804 1.403 . S
C807 C808 1.524 . S
C807 C811 1.400 . S
C808 H793 0.960 . S
C808 H794 0.960 . S
C808 H795 0.960 . S
C808 C807 1.524 . S
C809 C806 1.403 . S
C809 C810 1.392 . S
C809 C813 1.495 . S
C810 C809 1.392 . S
C810 C811 1.385 . S
C810 C812 1.478 . S
C811 H805 0.930 . S
C811 C807 1.400 . S
C811 C810 1.385 . S
C812 C810 1.478 . S
C812 C814 1.381 . S
C812 C818 1.383 . S
C813 C809 1.495 . S
C813 H819 0.959 . S
C813 H820 0.961 . S
C813 H821 0.960 . S
C814 C812 1.381 . S
C814 C815 1.394 . S
C814 H822 0.930 . S
C815 C814 1.394 . S
C815 C816 1.383 . S
C815 H823 0.929 . S
C816 C815 1.383 . S
C816 C817 1.377 . S
C817 H801 0.930 . S
C817 C816 1.377 . S
C817 C818 1.379 . S
C818 H802 0.931 . S
C818 C812 1.383 . S
C818 C817 1.379 . S
H819 C813 0.959 . S
H820 C813 0.961 . S
H821 C813 0.960 . S
H822 C814 0.930 . S
H823 C815 0.929 . S
H824 C832 0.929 . S
H825 C834 0.930 . S
H826 C836 0.930 . S
H827 C839 0.929 . S
H828 C842 0.930 . S
H829 C844 0.960 . S
H830 C844 0.960 . S
H831 C844 0.960 . S
C832 H824 0.929 . S
C832 C833 1.377 . S
C832 C834 1.384 . S
C833 C832 1.377 . S
C833 C839 1.390 . S
C834 H825 0.930 . S
C834 C832 1.384 . S
C834 C835 1.372 . S
C835 C834 1.372 . S
C835 C836 1.400 . S
C835 C840 1.490 . S
C836 H826 0.930 . S
C836 C835 1.400 . S
C836 C839 1.386 . S
H837 C853 0.930 . S
H838 C854 0.931 . S
C839 H827 0.929 . S
C839 C833 1.390 . S
C839 C836 1.386 . S
C840 C835 1.490 . S
C840 C842 1.395 . S
C840 C843 1.403 . S
H841 C847 0.930 . S
C842 H828 0.930 . S
C842 C840 1.395 . S
C842 C845 1.403 . S
C843 C840 1.403 . S
C843 C844 1.524 . S
C843 C847 1.400 . S
C844 H829 0.960 . S
C844 H830 0.960 . S
C844 H831 0.960 . S
C844 C843 1.524 . S
C845 C842 1.403 . S
C845 C846 1.392 . S
C845 C849 1.495 . S
C846 C845 1.392 . S
C846 C847 1.385 . S
C846 C848 1.478 . S
C847 H841 0.930 . S
C847 C843 1.400 . S
C847 C846 1.385 . S
C848 C846 1.478 . S
C848 C850 1.381 . S
C848 C854 1.383 . S
C849 C845 1.495 . S
C849 H855 0.959 . S
C849 H856 0.961 . S
C849 H857 0.960 . S
C850 C848 1.381 . S
C850 C851 1.394 . S
C850 H858 0.930 . S
C851 C850 1.394 . S
C851 C852 1.383 . S
C851 H859 0.929 . S
C852 C851 1.383 . S
C852 C853 1.377 . S
C853 H837 0.930 . S
C853 C852 1.377 . S
C853 C854 1.379 . S
C854 H838 0.931 . S
C854 C848 1.383 . S
C854 C853 1.379 . S
H855 C849 0.959 . S
H856 C849 0.961 . S
H857 C849 0.960 . S
H858 C850 0.930 . S
H859 C851 0.929 . S
H860 C868 0.929 . S
H861 C870 0.930 . S
H862 C872 0.930 . S
H863 C875 0.929 . S
H864 C878 0.930 . S
H865 C880 0.960 . S
H866 C880 0.960 . S
H867 C880 0.960 . S
C868 H860 0.929 . S
C868 C869 1.377 . S
C868 C870 1.384 . S
C869 C868 1.377 . S
C869 C875 1.390 . S
C870 H861 0.930 . S
C870 C868 1.384 . S
C870 C871 1.372 . S
C871 C870 1.372 . S
C871 C872 1.400 . S
C871 C876 1.490 . S
C872 H862 0.930 . S
C872 C871 1.400 . S
C872 C875 1.386 . S
H873 C889 0.930 . S
H874 C890 0.931 . S
C875 H863 0.929 . S
C875 C869 1.390 . S
C875 C872 1.386 . S
C876 C871 1.490 . S
C876 C878 1.395 . S
C876 C879 1.403 . S
H877 C883 0.930 . S
C878 H864 0.930 . S
C878 C876 1.395 . S
C878 C881 1.403 . S
C879 C876 1.403 . S
C879 C880 1.524 . S
C879 C883 1.400 . S
C880 H865 0.960 . S
C880 H866 0.960 . S
C880 H867 0.960 . S
C880 C879 1.524 . S
C881 C878 1.403 . S
C881 C882 1.392 . S
C881 C885 1.495 . S
C882 C881 1.392 . S
C882 C883 1.385 . S
C882 C884 1.478 . S
C883 H877 0.930 . S
C883 C879 1.400 . S
C883 C882 1.385 . S
C884 C882 1.478 . S
C884 C886 1.381 . S
C884 C890 1.383 . S
C885 C881 1.495 . S
C885 H891 0.959 . S
C885 H892 0.961 . S
C885 H893 0.960 . S
C886 C884 1.381 . S
C886 C887 1.394 . S
C886 H894 0.930 . S
C887 C886 1.394 . S
C887 C888 1.383 . S
C887 H895 0.929 . S
C888 C887 1.383 . S
C888 C889 1.377 . S
C889 H873 0.930 . S
C889 C888 1.377 . S
C889 C890 1.379 . S
C890 H874 0.931 . S
C890 C884 1.383 . S
C890 C889 1.379 . S
H891 C885 0.959 . S
H892 C885 0.961 . S
H893 C885 0.960 . S
H894 C886 0.930 . S
H895 C887 0.929 . S
H896 C904 0.919 1_455 S
H897 C906 0.925 1_455 S
H898 C908 0.930 . S
H899 C911 0.929 . S
H900 C914 0.930 . S
H901 C916 0.960 . S
H902 C916 0.960 . S
H903 C916 0.960 . S
C904 H896 0.919 1_655 S
C904 C905 1.377 . S
C904 C906 1.384 . S
C905 C904 1.377 . S
C905 C911 1.390 1_545 S
C906 H897 0.925 1_655 S
C906 C904 1.384 . S
C906 C907 1.377 . S
C907 C906 1.377 . S
C907 C908 1.400 1_545 S
C907 C912 1.490 . S
C908 H898 0.930 . S
C908 C907 1.400 1_565 S
C908 C911 1.386 . S
H909 C925 0.930 1_655 S
H910 C926 0.931 . S
C911 H899 0.929 . S
C911 C905 1.390 1_565 S
C911 C908 1.386 . S
C912 C907 1.490 . S
C912 C914 1.395 . S
C912 C915 1.403 1_645 S
H913 C919 0.930 . S
C914 H900 0.930 . S
C914 C912 1.395 . S
C914 C917 1.403 1_556 S
C915 C912 1.403 1_465 S
C915 C916 1.524 . S
C915 C919 1.400 1_556 S
C916 H901 0.960 . S
C916 H902 0.960 . S
C916 H903 0.960 . S
C916 C915 1.524 . S
C917 C914 1.403 1_554 S
C917 C918 1.392 1_655 S
C917 C921 1.495 . S
C918 C917 1.392 1_455 S
C918 C919 1.385 1_545 S
C918 C920 1.477 1_545 S
C919 H913 0.930 . S
C919 C915 1.400 1_554 S
C919 C918 1.385 1_565 S
C920 C918 1.477 1_565 S
C920 C922 1.380 1_565 S
C920 C926 1.385 1_455 S
C921 C917 1.495 . S
C921 H927 0.959 . S
C921 H928 0.961 . S
C921 H929 0.960 . S
C922 C920 1.380 1_545 S
C922 C923 1.394 . S
C922 H930 0.930 . S
C923 C922 1.394 . S
C923 C924 1.383 1_545 S
C923 H931 0.929 . S
C924 C923 1.383 1_565 S
C924 C925 1.377 . S
C925 H909 0.930 1_455 S
C925 C924 1.377 . S
C925 C926 1.379 1_455 S
C926 H910 0.931 . S
C926 C920 1.385 1_655 S
C926 C925 1.379 1_655 S
H927 C921 0.959 . S
H928 C921 0.961 . S
H929 C921 0.960 . S
H930 C922 0.930 . S
H931 C923 0.929 . S
H932 C940 0.929 . S
H933 C942 0.930 . S
H934 C944 0.930 . S
H935 C947 0.929 . S
H936 C950 0.930 . S
H937 C952 0.960 . S
H938 C952 0.960 . S
H939 C952 0.960 . S
C940 H932 0.929 . S
C940 C941 1.377 . S
C940 C942 1.384 . S
C941 C940 1.377 . S
C941 C947 1.390 . S
C942 H933 0.930 . S
C942 C940 1.384 . S
C942 C943 1.372 . S
C943 C942 1.372 . S
C943 C944 1.400 . S
C943 C948 1.490 . S
C944 H934 0.930 . S
C944 C943 1.400 . S
C944 C947 1.386 . S
H945 C961 0.930 . S
H946 C962 0.931 . S
C947 H935 0.929 . S
C947 C941 1.390 . S
C947 C944 1.386 . S
C948 C943 1.490 . S
C948 C950 1.395 . S
C948 C951 1.403 . S
H949 C955 0.930 . S
C950 H936 0.930 . S
C950 C948 1.395 . S
C950 C953 1.403 . S
C951 C948 1.403 . S
C951 C952 1.524 . S
C951 C955 1.400 . S
C952 H937 0.960 . S
C952 H938 0.960 . S
C952 H939 0.960 . S
C952 C951 1.524 . S
C953 C950 1.403 . S
C953 C954 1.392 . S
C953 C957 1.495 . S
C954 C953 1.392 . S
C954 C955 1.385 . S
C954 C956 1.478 . S
C955 H949 0.930 . S
C955 C951 1.400 . S
C955 C954 1.385 . S
C956 C954 1.478 . S
C956 C958 1.381 . S
C956 C962 1.383 . S
C957 C953 1.495 . S
C957 H963 0.959 . S
C957 H964 0.961 . S
C957 H965 0.960 . S
C958 C956 1.381 . S
C958 C959 1.394 . S
C958 H966 0.930 . S
C959 C958 1.394 . S
C959 C960 1.383 . S
C959 H967 0.929 . S
C960 C959 1.383 . S
C960 C961 1.377 . S
C961 H945 0.930 . S
C961 C960 1.377 . S
C961 C962 1.379 . S
C962 H946 0.931 . S
C962 C956 1.383 . S
C962 C961 1.379 . S
H963 C957 0.959 . S
H964 C957 0.961 . S
H965 C957 0.960 . S
H966 C958 0.930 . S
H967 C959 0.929 . S
H968 C976 0.929 . S
H969 C978 0.930 . S
H970 C980 0.930 . S
H971 C983 0.929 . S
H972 C986 0.930 . S
H973 C988 0.960 . S
H974 C988 0.960 . S
H975 C988 0.960 . S
C976 H968 0.929 . S
C976 C977 1.377 1_545 S
C976 C978 1.384 . S
C977 C976 1.377 1_565 S
C977 C983 1.390 . S
C978 H969 0.930 . S
C978 C976 1.384 . S
C978 C979 1.372 1_545 S
C979 C978 1.372 1_565 S
C979 C980 1.400 . S
C979 C984 1.496 . S
C980 H970 0.930 . S
C980 C979 1.400 . S
C980 C983 1.386 . S
H981 C997 0.930 1_565 S
H982 C998 0.931 1_565 S
C983 H971 0.929 . S
C983 C977 1.390 . S
C983 C980 1.386 . S
C984 C979 1.496 . S
C984 C986 1.371 1_565 S
C984 C987 1.420 . S
H985 C991 0.930 . S
C986 H972 0.930 . S
C986 C984 1.371 1_545 S
C986 C989 1.403 . S
C987 C984 1.420 . S
C987 C988 1.524 . S
C987 C991 1.400 . S
C988 H973 0.960 . S
C988 H974 0.960 . S
C988 H975 0.960 . S
C988 C987 1.524 . S
C989 C986 1.403 . S
C989 C990 1.392 . S
C989 C993 1.495 . S
C990 C989 1.392 . S
C990 C991 1.385 1_545 S
C990 C992 1.478 . S
C991 H985 0.930 . S
C991 C987 1.400 . S
C991 C990 1.385 1_565 S
C992 C990 1.478 . S
C992 C994 1.381 . S
C992 C998 1.383 . S
C993 C989 1.495 . S
C993 H999 0.959 . S
C993 H1000 0.961 . S
C993 H1001 0.960 . S
C994 C992 1.381 . S
C994 C995 1.394 . S
C994 H1002 0.930 . S
C995 C994 1.394 . S
C995 C996 1.383 . S
C995 H1003 0.929 . S
C996 C995 1.383 . S
C996 C997 1.377 . S
C997 H981 0.930 1_545 S
C997 C996 1.377 . S
C997 C998 1.379 . S
C998 H982 0.931 1_545 S
C998 C992 1.383 . S
C998 C997 1.379 . S
H999 C993 0.959 . S
H1000 C993 0.961 . S
H1001 C993 0.960 . S
H1002 C994 0.930 . S
H1003 C995 0.929 . S
H1004 C1012 0.929 . S
H1005 C1014 0.930 . S
H1006 C1016 0.930 . S
H1007 C1019 0.929 . S
H1008 C1022 0.930 . S
H1009 C1024 0.960 . S
H1010 C1024 0.960 . S
H1011 C1024 0.960 . S
C1012 H1004 0.929 . S
C1012 C1013 1.377 . S
C1012 C1014 1.384 . S
C1013 C1012 1.377 . S
C1013 C1019 1.390 . S
C1014 H1005 0.930 . S
C1014 C1012 1.384 . S
C1014 C1015 1.372 . S
C1015 C1014 1.372 . S
C1015 C1016 1.400 . S
C1015 C1020 1.490 . S
C1016 H1006 0.930 . S
C1016 C1015 1.400 . S
C1016 C1019 1.386 . S
H1017 C1033 0.930 . S
H1018 C1034 0.931 . S
C1019 H1007 0.929 . S
C1019 C1013 1.390 . S
C1019 C1016 1.386 . S
C1020 C1015 1.490 . S
C1020 C1022 1.395 . S
C1020 C1023 1.403 . S
H1021 C1027 0.930 . S
C1022 H1008 0.930 . S
C1022 C1020 1.395 . S
C1022 C1025 1.403 . S
C1023 C1020 1.403 . S
C1023 C1024 1.524 . S
C1023 C1027 1.400 . S
C1024 H1009 0.960 . S
C1024 H1010 0.960 . S
C1024 H1011 0.960 . S
C1024 C1023 1.524 . S
C1025 C1022 1.403 . S
C1025 C1026 1.392 . S
C1025 C1029 1.495 . S
C1026 C1025 1.392 . S
C1026 C1027 1.385 . S
C1026 C1028 1.478 . S
C1027 H1021 0.930 . S
C1027 C1023 1.400 . S
C1027 C1026 1.385 . S
C1028 C1026 1.478 . S
C1028 C1030 1.381 . S
C1028 C1034 1.383 . S
C1029 C1025 1.495 . S
C1029 H1035 0.959 . S
C1029 H1036 0.961 . S
C1029 H1037 0.960 . S
C1030 C1028 1.381 . S
C1030 C1031 1.394 . S
C1030 H1038 0.930 . S
C1031 C1030 1.394 . S
C1031 C1032 1.383 . S
C1031 H1039 0.929 . S
C1032 C1031 1.383 . S
C1032 C1033 1.377 . S
C1033 H1017 0.930 . S
C1033 C1032 1.377 . S
C1033 C1034 1.379 . S
C1034 H1018 0.931 . S
C1034 C1028 1.383 . S
C1034 C1033 1.379 . S
H1035 C1029 0.959 . S
H1036 C1029 0.961 . S
H1037 C1029 0.960 . S
H1038 C1030 0.930 . S
H1039 C1031 0.929 . S
H1040 C1048 0.929 . S
H1041 C1050 0.930 . S
H1042 C1052 0.930 . S
H1043 C1055 0.929 . S
H1044 C1058 0.930 . S
H1045 C1060 0.960 . S
H1046 C1060 0.960 . S
H1047 C1060 0.960 . S
C1048 H1040 0.929 . S
C1048 C1049 1.377 . S
C1048 C1050 1.384 . S
C1049 C1048 1.377 . S
C1049 C1055 1.390 . S
C1050 H1041 0.930 . S
C1050 C1048 1.384 . S
C1050 C1051 1.372 . S
C1051 C1050 1.372 . S
C1051 C1052 1.400 . S
C1051 C1056 1.490 . S
C1052 H1042 0.930 . S
C1052 C1051 1.400 . S
C1052 C1055 1.386 . S
H1053 C1069 0.930 . S
H1054 C1070 0.931 . S
C1055 H1043 0.929 . S
C1055 C1049 1.390 . S
C1055 C1052 1.386 . S
C1056 C1051 1.490 . S
C1056 C1058 1.395 . S
C1056 C1059 1.403 . S
H1057 C1063 0.930 . S
C1058 H1044 0.930 . S
C1058 C1056 1.395 . S
C1058 C1061 1.403 . S
C1059 C1056 1.403 . S
C1059 C1060 1.524 . S
C1059 C1063 1.400 . S
C1060 H1045 0.960 . S
C1060 H1046 0.960 . S
C1060 H1047 0.960 . S
C1060 C1059 1.524 . S
C1061 C1058 1.403 . S
C1061 C1062 1.392 . S
C1061 C1065 1.495 . S
C1062 C1061 1.392 . S
C1062 C1063 1.385 . S
C1062 C1064 1.478 . S
C1063 H1057 0.930 . S
C1063 C1059 1.400 . S
C1063 C1062 1.385 . S
C1064 C1062 1.478 . S
C1064 C1066 1.381 . S
C1064 C1070 1.383 . S
C1065 C1061 1.495 . S
C1065 H1071 0.959 . S
C1065 H1072 0.961 . S
C1065 H1073 0.960 . S
C1066 C1064 1.381 . S
C1066 C1067 1.394 . S
C1066 H1074 0.930 . S
C1067 C1066 1.394 . S
C1067 C1068 1.383 . S
C1067 H1075 0.929 . S
C1068 C1067 1.383 . S
C1068 C1069 1.377 . S
C1069 H1053 0.930 . S
C1069 C1068 1.377 . S
C1069 C1070 1.379 . S
C1070 H1054 0.931 . S
C1070 C1064 1.383 . S
C1070 C1069 1.379 . S
H1071 C1065 0.959 . S
H1072 C1065 0.961 . S
H1073 C1065 0.960 . S
H1074 C1066 0.930 . S
H1075 C1067 0.929 . S
H1076 C1084 0.929 . S
H1077 C1086 0.930 . S
H1078 C1088 0.930 . S
H1079 C1091 0.929 . S
H1080 C1094 0.930 . S
H1081 C1096 0.960 . S
H1082 C1096 0.960 . S
H1083 C1096 0.960 . S
C1084 H1076 0.929 . S
C1084 C1085 1.377 . S
C1084 C1086 1.384 . S
C1085 C1084 1.377 . S
C1085 C1091 1.390 . S
C1086 H1077 0.930 . S
C1086 C1084 1.384 . S
C1086 C1087 1.372 . S
C1087 C1086 1.372 . S
C1087 C1088 1.400 . S
C1087 C1092 1.490 . S
C1088 H1078 0.930 . S
C1088 C1087 1.400 . S
C1088 C1091 1.386 . S
H1089 C1105 0.930 . S
H1090 C1106 0.931 . S
C1091 H1079 0.929 . S
C1091 C1085 1.390 . S
C1091 C1088 1.386 . S
C1092 C1087 1.490 . S
C1092 C1094 1.395 . S
C1092 C1095 1.403 . S
H1093 C1099 0.930 . S
C1094 H1080 0.930 . S
C1094 C1092 1.395 . S
C1094 C1097 1.403 . S
C1095 C1092 1.403 . S
C1095 C1096 1.524 . S
C1095 C1099 1.400 . S
C1096 H1081 0.960 . S
C1096 H1082 0.960 . S
C1096 H1083 0.960 . S
C1096 C1095 1.524 . S
C1097 C1094 1.403 . S
C1097 C1098 1.392 . S
C1097 C1101 1.495 . S
C1098 C1097 1.392 . S
C1098 C1099 1.385 . S
C1098 C1100 1.478 . S
C1099 H1093 0.930 . S
C1099 C1095 1.400 . S
C1099 C1098 1.385 . S
C1100 C1098 1.478 . S
C1100 C1102 1.381 . S
C1100 C1106 1.383 . S
C1101 C1097 1.495 . S
C1101 H1107 0.959 . S
C1101 H1108 0.961 . S
C1101 H1109 0.960 . S
C1102 C1100 1.381 . S
C1102 C1103 1.394 . S
C1102 H1110 0.930 . S
C1103 C1102 1.394 . S
C1103 C1104 1.383 . S
C1103 H1111 0.929 . S
C1104 C1103 1.383 . S
C1104 C1105 1.377 . S
C1105 H1089 0.930 . S
C1105 C1104 1.377 . S
C1105 C1106 1.379 . S
C1106 H1090 0.931 . S
C1106 C1100 1.383 . S
C1106 C1105 1.379 . S
H1107 C1101 0.959 . S
H1108 C1101 0.961 . S
H1109 C1101 0.960 . S
H1110 C1102 0.930 . S
H1111 C1103 0.929 . S
H1112 C1120 0.929 . S
H1113 C1122 0.930 . S
H1114 C1124 0.930 . S
H1115 C1127 0.929 . S
H1116 C1130 0.930 . S
H1117 C1132 0.960 . S
H1118 C1132 0.960 . S
H1119 C1132 0.960 . S
C1120 H1112 0.929 . S
C1120 C1121 1.377 . S
C1120 C1122 1.384 . S
C1121 C1120 1.377 . S
C1121 C1127 1.390 . S
C1122 H1113 0.930 . S
C1122 C1120 1.384 . S
C1122 C1123 1.372 . S
C1123 C1122 1.372 . S
C1123 C1124 1.400 . S
C1123 C1128 1.490 . S
C1124 H1114 0.930 . S
C1124 C1123 1.400 . S
C1124 C1127 1.386 . S
H1125 C1141 0.930 . S
H1126 C1142 0.931 . S
C1127 H1115 0.929 . S
C1127 C1121 1.390 . S
C1127 C1124 1.386 . S
C1128 C1123 1.490 . S
C1128 C1130 1.395 . S
C1128 C1131 1.403 . S
H1129 C1135 0.930 . S
C1130 H1116 0.930 . S
C1130 C1128 1.395 . S
C1130 C1133 1.403 . S
C1131 C1128 1.403 . S
C1131 C1132 1.524 . S
C1131 C1135 1.400 . S
C1132 H1117 0.960 . S
C1132 H1118 0.960 . S
C1132 H1119 0.960 . S
C1132 C1131 1.524 . S
C1133 C1130 1.403 . S
C1133 C1134 1.392 . S
C1133 C1137 1.495 . S
C1134 C1133 1.392 . S
C1134 C1135 1.385 . S
C1134 C1136 1.478 . S
C1135 H1129 0.930 . S
C1135 C1131 1.400 . S
C1135 C1134 1.385 . S
C1136 C1134 1.478 . S
C1136 C1138 1.381 . S
C1136 C1142 1.383 . S
C1137 C1133 1.495 . S
C1137 H1143 0.959 . S
C1137 H1144 0.961 . S
C1137 H1145 0.960 . S
C1138 C1136 1.381 . S
C1138 C1139 1.394 . S
C1138 H1146 0.930 . S
C1139 C1138 1.394 . S
C1139 C1140 1.383 . S
C1139 H1147 0.929 . S
C1140 C1139 1.383 . S
C1140 C1141 1.377 . S
C1141 H1125 0.930 . S
C1141 C1140 1.377 . S
C1141 C1142 1.379 . S
C1142 H1126 0.931 . S
C1142 C1136 1.383 . S
C1142 C1141 1.379 . S
H1143 C1137 0.959 . S
H1144 C1137 0.961 . S
H1145 C1137 0.960 . S
H1146 C1138 0.930 . S
H1147 C1139 0.929 . S
H1148 C1156 0.929 . S
H1149 C1158 0.930 . S
H1150 C1160 0.930 . S
H1151 C1163 0.929 . S
H1152 C1166 0.930 . S
H1153 C1168 0.960 . S
H1154 C1168 0.960 . S
H1155 C1168 0.960 . S
C1156 H1148 0.929 . S
C1156 C1157 1.377 1_455 S
C1156 C1158 1.384 . S
C1157 C1156 1.377 1_655 S
C1157 C1163 1.390 . S
C1158 H1149 0.930 . S
C1158 C1156 1.384 . S
C1158 C1159 1.372 1_455 S
C1159 C1158 1.372 1_655 S
C1159 C1160 1.400 . S
C1159 C1164 1.490 . S
C1160 H1150 0.930 . S
C1160 C1159 1.400 . S
C1160 C1163 1.386 . S
H1161 C1177 0.930 . S
H1162 C1178 0.931 . S
C1163 H1151 0.929 . S
C1163 C1157 1.390 . S
C1163 C1160 1.386 . S
C1164 C1159 1.490 . S
C1164 C1166 1.395 1_655 S
C1164 C1167 1.403 . S
H1165 C1171 0.930 . S
C1166 H1152 0.930 . S
C1166 C1164 1.395 1_455 S
C1166 C1169 1.403 1_556 S
C1167 C1164 1.403 . S
C1167 C1168 1.524 . S
C1167 C1171 1.400 1_556 S
C1168 H1153 0.960 . S
C1168 H1154 0.960 . S
C1168 H1155 0.960 . S
C1168 C1167 1.524 . S
C1169 C1166 1.403 1_554 S
C1169 C1170 1.392 . S
C1169 C1173 1.495 . S
C1170 C1169 1.392 . S
C1170 C1171 1.385 1_455 S
C1170 C1172 1.478 . S
C1171 H1165 0.930 . S
C1171 C1167 1.400 1_554 S
C1171 C1170 1.385 1_655 S
C1172 C1170 1.478 . S
C1172 C1174 1.381 . S
C1172 C1178 1.383 1_455 S
C1173 C1169 1.495 . S
C1173 H1179 0.959 . S
C1173 H1180 0.961 . S
C1173 H1181 0.960 . S
C1174 C1172 1.381 . S
C1174 C1175 1.394 . S
C1174 H1182 0.930 . S
C1175 C1174 1.394 . S
C1175 C1176 1.383 . S
C1175 H1183 0.929 . S
C1176 C1175 1.383 . S
C1176 C1177 1.377 1_455 S
C1177 H1161 0.930 . S
C1177 C1176 1.377 1_655 S
C1177 C1178 1.379 . S
C1178 H1162 0.931 . S
C1178 C1172 1.383 1_655 S
C1178 C1177 1.379 . S
H1179 C1173 0.959 . S
H1180 C1173 0.961 . S
H1181 C1173 0.960 . S
H1182 C1174 0.930 . S
H1183 C1175 0.929 . S
C329 C31 2.091 . S
C348 C151 2.078 . S
C365 C17 1.517 . S
C384 C71 1.528 . S
C401 C57 0.877 . S
C420 C97 0.845 . S
C437 C111 1.535 . S
C456 C137 1.489 . S
C473 C12 2.092 . S
C492 C212 2.096 . S
C509 C2 1.515 . S
C528 C172 1.533 . S
C545 C162 0.873 . S
C564 C82 0.874 . S
C581 C202 1.516 . S
C600 C92 1.538 . S
C617 C271 2.090 . S
C636 C231 2.092 . S
C653 C191 1.535 . S
C672 C257 1.509 . S
C689 C297 0.880 . S
C708 C177 0.846 . S
C725 C217 1.511 . S
C744 C311 1.535 . S
C761 C132 2.091 . S
C780 C252 2.087 . S
C797 C242 1.511 . S
C816 C52 1.526 . S
C833 C42 0.873 . S
C852 C282 0.862 . S
C869 C122 1.513 . S
C888 C292 1.528 . S
C905 C29 1.459 . S
C924 C8 1.449 . S
C941 C48 1.443 . S
C960 C69 1.451 . S
C977 C109 1.437 . S
C996 C88 1.451 . S
C1013 C149 1.465 . S
C1032 C128 1.473 . S
C1049 C168 1.442 . S
C1068 C189 1.428 . S
C1085 C229 1.459 . S
C1104 C208 1.459 . S
C1121 C248 1.464 . S
C1140 C269 1.475 . S
C1157 C288 1.434 . S
C1176 C309 1.426 . S
