# Generated by pormake.
# Topology uoc, (4)-cn, num edge types: 1
# Building blocks:
#     Node 0, Type 0, BuildingBlock: CEKHIL_clean_sbu_0, # of connection points: 4
#     Node 1, Type 0, BuildingBlock: CEKHIL_clean_sbu_0, # of connection points: 4
#     Node 2, Type 0, BuildingBlock: CEKHIL_clean_sbu_0, # of connection points: 4
#     Node 3, Type 0, BuildingBlock: CEKHIL_clean_sbu_0, # of connection points: 4
#     Node 4, Type 0, BuildingBlock: CEKHIL_clean_sbu_0, # of connection points: 4
#     Node 5, Type 0, BuildingBlock: CEKHIL_clean_sbu_0, # of connection points: 4
#     Node 6, Type 0, BuildingBlock: CEKHIL_clean_sbu_0, # of connection points: 4
#     Node 7, Type 0, BuildingBlock: CEKHIL_clean_sbu_0, # of connection points: 4
#     Edge 8, Type (0, 0), BuildingBlock: AJUNOK_clean_linker_0, # of connection points: 2
#     Edge 9, Type (0, 0), BuildingBlock: AJUNOK_clean_linker_0, # of connection points: 2
#     Edge 10, Type (0, 0), BuildingBlock: AJUNOK_clean_linker_0, # of connection points: 2
#     Edge 11, Type (0, 0), BuildingBlock: AJUNOK_clean_linker_0, # of connection points: 2
#     Edge 12, Type (0, 0), BuildingBlock: AJUNOK_clean_linker_0, # of connection points: 2
#     Edge 13, Type (0, 0), BuildingBlock: AJUNOK_clean_linker_0, # of connection points: 2
#     Edge 14, Type (0, 0), BuildingBlock: AJUNOK_clean_linker_0, # of connection points: 2
#     Edge 15, Type (0, 0), BuildingBlock: AJUNOK_clean_linker_0, # of connection points: 2
#     Edge 16, Type (0, 0), BuildingBlock: AJUNOK_clean_linker_0, # of connection points: 2
#     Edge 17, Type (0, 0), BuildingBlock: AJUNOK_clean_linker_0, # of connection points: 2
#     Edge 18, Type (0, 0), BuildingBlock: AJUNOK_clean_linker_0, # of connection points: 2
#     Edge 19, Type (0, 0), BuildingBlock: AJUNOK_clean_linker_0, # of connection points: 2
#     Edge 20, Type (0, 0), BuildingBlock: AJUNOK_clean_linker_0, # of connection points: 2
#     Edge 21, Type (0, 0), BuildingBlock: AJUNOK_clean_linker_0, # of connection points: 2
#     Edge 22, Type (0, 0), BuildingBlock: AJUNOK_clean_linker_0, # of connection points: 2
#     Edge 23, Type (0, 0), BuildingBlock: AJUNOK_clean_linker_0, # of connection points: 2
# Relax obj value: 0.097
# Max RMSD: 0.107
# Mean RMSD: 0.107
data_MOF--net-uoc--node1-CEKHIL_clean_sbu_0--edge1-AJUNOK_clean_linker_0
_symmetry_space_group_name_H-M    P1
_symmetry_Int_Tables_number       1
_symmetry_cell_setting            triclinic
loop_
_symmetry_equiv_pos_as_xyz
'x, y, z'
_cell_length_a     20.02737
_cell_length_b     20.027592
_cell_length_c     39.246498
_cell_angle_alpha  89.999352
_cell_angle_beta   90.000493
_cell_angle_gamma 92.617448
loop_
_atom_site_label
_atom_site_type_symbol
_atom_site_fract_x
_atom_site_fract_y
_atom_site_fract_z
_atom_type_partial_charge
Co0 Co 0.10397 0.27064 0.11622 0.0
O1 O 0.11803 0.36625 0.11396 0.0
O2 O 0.025 0.31392 0.132 0.0
C3 C 0.14346 0.24865 0.06388 0.0
O4 O 0.07024 0.17307 0.1207 0.0
Co5 Co 0.22384 0.17837 0.11298 0.0
O6 O 0.15364 0.10607 0.10791 0.0
C7 C 0.19601 0.24944 0.17698 0.0
C8 C 0.05777 0.37018 0.12566 0.0
C9 C 0.09252 0.1147 0.11491 0.0
O10 O 0.14182 0.2707 0.16405 0.0
O11 O 0.23777 0.21652 0.15981 0.0
O12 O 0.08238 0.26633 0.06772 0.0
O13 O 0.18032 0.25099 0.09088 0.0
Co14 Co 0.77261 0.60558 0.386 0.0
O15 O 0.86845 0.6206 0.38633 0.0
O16 O 0.81582 0.52593 0.37107 0.0
C17 C 0.75378 0.64907 0.43809 0.0
O18 O 0.67502 0.57033 0.38376 0.0
Co19 Co 0.67841 0.72461 0.38847 0.0
O20 O 0.60706 0.654 0.39474 0.0
C21 C 0.74621 0.69292 0.32401 0.0
C22 C 0.87224 0.55932 0.37602 0.0
C23 C 0.61637 0.59251 0.38906 0.0
O24 O 0.76871 0.63979 0.33752 0.0
O25 O 0.71388 0.73557 0.34091 0.0
O26 O 0.77307 0.58835 0.43496 0.0
O27 O 0.75274 0.68334 0.41021 0.0
Co28 Co 0.38958 0.2258 0.61789 0.0
O29 O 0.37534 0.12953 0.61742 0.0
O30 O 0.46888 0.18337 0.63332 0.0
C31 C 0.34734 0.24494 0.56566 0.0
O32 O 0.42546 0.32294 0.62015 0.0
Co33 Co 0.27331 0.32248 0.61487 0.0
O34 O 0.34447 0.39344 0.60848 0.0
C35 C 0.29986 0.2508 0.67895 0.0
C36 C 0.4367 0.12654 0.62789 0.0
C37 C 0.40555 0.38213 0.61411 0.0
O38 O 0.35415 0.22952 0.66612 0.0
O39 O 0.25849 0.28382 0.66158 0.0
O40 O 0.40789 0.22537 0.56912 0.0
O41 O 0.31235 0.24635 0.59333 0.0
Co42 Co 0.72598 0.89253 0.88707 0.0
O43 O 0.63001 0.88176 0.89008 0.0
O44 O 0.68503 0.9724 0.87099 0.0
C45 C 0.7483 0.85361 0.93946 0.0
O46 O 0.82414 0.92359 0.88183 0.0
Co47 Co 0.81567 0.77113 0.8903 0.0
O48 O 0.88952 0.8397 0.89574 0.0
C49 C 0.74079 0.79708 0.82716 0.0
C50 C 0.6279 0.94203 0.87809 0.0
C51 C 0.88201 0.9008 0.8883 0.0
O52 O 0.72323 0.8532 0.83955 0.0
O53 O 0.77339 0.75532 0.84448 0.0
O54 O 0.73234 0.91519 0.93537 0.0
O55 O 0.74423 0.81613 0.9127 0.0
Co56 Co 0.60878 0.76938 0.61856 0.0
O57 O 0.62396 0.86525 0.61807 0.0
O58 O 0.52818 0.81292 0.63173 0.0
C59 C 0.65602 0.74882 0.56734 0.0
O60 O 0.57302 0.67181 0.62048 0.0
Co61 Co 0.72699 0.6753 0.61966 0.0
O62 O 0.65736 0.60437 0.61052 0.0
C63 C 0.69077 0.74395 0.68276 0.0
C64 C 0.56204 0.86924 0.62732 0.0
C65 C 0.59545 0.61335 0.61488 0.0
O66 O 0.63907 0.7665 0.66786 0.0
O67 O 0.73461 0.711 0.66714 0.0
O68 O 0.59533 0.76874 0.56925 0.0
O69 O 0.68832 0.74889 0.59588 0.0
Co70 Co 0.26895 0.10848 0.88479 0.0
O71 O 0.36445 0.12524 0.88697 0.0
O72 O 0.3144 0.03038 0.86986 0.0
C73 C 0.24545 0.14915 0.93664 0.0
O74 O 0.17259 0.07114 0.88073 0.0
Co75 Co 0.17128 0.2236 0.88667 0.0
O76 O 0.10171 0.15113 0.8935 0.0
C77 C 0.24474 0.19733 0.82317 0.0
C78 C 0.3699 0.06457 0.87604 0.0
C79 C 0.11333 0.09035 0.88718 0.0
O80 O 0.2679 0.14448 0.83662 0.0
O81 O 0.20961 0.23795 0.83987 0.0
O82 O 0.2653 0.08868 0.9334 0.0
O83 O 0.24645 0.18506 0.90928 0.0
Co84 Co 0.88808 0.72758 0.11857 0.0
O85 O 0.87465 0.63163 0.11567 0.0
O86 O 0.96709 0.68462 0.13392 0.0
C87 C 0.84819 0.75126 0.06659 0.0
O88 O 0.92273 0.82451 0.12349 0.0
Co89 Co 0.77125 0.82274 0.11654 0.0
O90 O 0.8422 0.89408 0.11 0.0
C91 C 0.79638 0.74706 0.17955 0.0
C92 C 0.93531 0.62816 0.12703 0.0
C93 C 0.90299 0.88343 0.11683 0.0
O94 O 0.8506 0.72628 0.16643 0.0
O95 O 0.75569 0.78195 0.16276 0.0
O96 O 0.9092 0.73309 0.07014 0.0
O97 O 0.81149 0.74867 0.09368 0.0
Co98 Co 0.22882 0.38608 0.38395 0.0
O99 O 0.1325 0.37199 0.38513 0.0
O100 O 0.18611 0.46609 0.36989 0.0
C101 C 0.25023 0.34117 0.43557 0.0
O102 O 0.32584 0.42229 0.38115 0.0
Co103 Co 0.32571 0.27084 0.38417 0.0
O104 O 0.39667 0.34136 0.39183 0.0
C105 C 0.25141 0.29927 0.32142 0.0
C106 C 0.12938 0.43375 0.37527 0.0
C107 C 0.38524 0.40258 0.38676 0.0
O108 O 0.23066 0.353 0.33514 0.0
O109 O 0.28516 0.25732 0.33795 0.0
O110 O 0.23041 0.40183 0.43305 0.0
O111 O 0.25022 0.30765 0.4074 0.0
C112 C 0.2204 0.25755 0.01415 0.0
C113 C 0.16794 0.22294 0.03134 0.0
C114 C 0.24449 0.23392 0.98302 0.0
C115 C 0.21853 0.17368 0.96894 0.0
H116 H 0.24229 0.30357 0.02464 0.0
H117 H 0.28451 0.2622 0.97023 0.0
S118 S 0.08115 0.0644 0.00426 0.0
N119 N 0.0897 0.12665 0.03179 0.0
N120 N 0.13779 0.08 0.97433 0.0
C121 C 0.16664 0.13825 0.98611 0.0
C122 C 0.14056 0.16352 0.01712 0.0
C123 C 0.81135 0.67829 0.26992 0.0
C124 C 0.75703 0.70532 0.28701 0.0
C125 C 0.82338 0.69148 0.23522 0.0
C126 C 0.78118 0.73172 0.21606 0.0
H127 H 0.84567 0.64768 0.28357 0.0
H128 H 0.86647 0.6702 0.22346 0.0
S129 S 0.62871 0.81026 0.24846 0.0
N130 N 0.65856 0.77131 0.28178 0.0
N131 N 0.68063 0.79595 0.21695 0.0
C132 C 0.7256 0.75763 0.23279 0.0
C133 C 0.71372 0.74454 0.2681 0.0
C134 C 0.27723 0.31952 0.53078 0.0
C135 C 0.32155 0.26719 0.53245 0.0
C136 C 0.2547 0.34313 0.49931 0.0
C137 C 0.27407 0.31399 0.46839 0.0
H138 H 0.26097 0.34347 0.55388 0.0
H139 H 0.22152 0.38436 0.49925 0.0
S140 S 0.3863 0.17236 0.45938 0.0
N141 N 0.38285 0.18576 0.50083 0.0
N142 N 0.33823 0.2277 0.44187 0.0
C143 C 0.31687 0.26019 0.4699 0.0
C144 C 0.34124 0.23748 0.50188 0.0
C145 C 0.68994 0.82571 0.77045 0.0
C146 C 0.72489 0.78085 0.79081 0.0
C147 C 0.67751 0.81293 0.73572 0.0
C148 C 0.70019 0.75517 0.71989 0.0
H149 H 0.67266 0.87162 0.78122 0.0
H150 H 0.6515 0.84942 0.721 0.0
S151 S 0.7885 0.61848 0.76195 0.0
N152 N 0.77793 0.67363 0.79246 0.0
N153 N 0.75495 0.6504 0.72758 0.0
C154 C 0.73338 0.70901 0.74005 0.0
C155 C 0.74559 0.7216 0.77535 0.0
C156 C 0.1955 0.32682 0.26584 0.0
C157 C 0.2371 0.28546 0.28467 0.0
C158 C 0.18202 0.31482 0.23115 0.0
C159 C 0.21016 0.26142 0.21375 0.0
H160 H 0.17297 0.36888 0.27793 0.0
H161 H 0.14991 0.34817 0.21779 0.0
S162 S 0.32036 0.1364 0.25125 0.0
N163 N 0.30495 0.18739 0.28299 0.0
N164 N 0.27966 0.16531 0.21828 0.0
C165 C 0.25135 0.21936 0.23227 0.0
C166 C 0.26475 0.23121 0.26754 0.0
C167 C 0.65581 0.74397 0.50364 0.0
C168 C 0.68415 0.72472 0.53477 0.0
C169 C 0.67969 0.72072 0.47237 0.0
C170 C 0.73148 0.67574 0.47112 0.0
H171 H 0.61489 0.77753 0.50336 0.0
H172 H 0.65627 0.73687 0.44911 0.0
S173 S 0.82442 0.61123 0.54491 0.0
N174 N 0.76936 0.66019 0.56196 0.0
N175 N 0.81174 0.61412 0.50339 0.0
C176 C 0.76052 0.65628 0.50191 0.0
C177 C 0.73756 0.68143 0.53369 0.0
C178 C 0.32415 0.19465 0.73482 0.0
C179 C 0.2847 0.23752 0.71566 0.0
C180 C 0.31086 0.18165 0.76942 0.0
C181 C 0.25793 0.21143 0.78645 0.0
H182 H 0.36567 0.17061 0.72305 0.0
H183 H 0.34281 0.14843 0.78296 0.0
S184 S 0.13837 0.32648 0.74802 0.0
N185 N 0.18945 0.30909 0.71662 0.0
N186 N 0.16474 0.28463 0.78121 0.0
C187 C 0.21791 0.25418 0.7676 0.0
C188 C 0.23116 0.26716 0.7324 0.0
C189 C 0.76541 0.7498 0.01925 0.0
C190 C 0.82372 0.77817 0.03427 0.0
C191 C 0.74172 0.77403 0.98817 0.0
C192 C 0.77416 0.82902 0.97197 0.0
H193 H 0.7387 0.70786 0.0313 0.0
H194 H 0.69724 0.75029 0.97697 0.0
S195 S 0.92755 0.92205 1.00151 0.0
N196 N 0.9136 0.86354 0.03068 0.0
N197 N 0.86669 0.91171 0.97329 0.0
C198 C 0.83172 0.85863 0.98708 0.0
C199 C 0.85717 0.83246 0.01804 0.0
C200 C 0.97593 0.06268 0.11498 0.0
C201 C 0.04538 0.05496 0.11612 0.0
C202 C 0.93056 0.00716 0.11529 0.0
C203 C 0.95253 0.94134 0.11706 0.0
H204 H 0.9562 0.11205 0.11341 0.0
H205 H 0.8777 0.01619 0.11416 0.0
S206 S 0.12947 0.89342 0.12103 0.0
N207 N 0.134 0.97581 0.11947 0.0
N208 N 0.049 0.8719 0.12004 0.0
C209 C 0.02192 0.93286 0.11844 0.0
C210 C 0.06817 0.98941 0.11795 0.0
C211 C 0.00379 0.42807 0.37439 0.0
C212 C 0.06435 0.46651 0.37222 0.0
C213 C 0.94176 0.45822 0.37421 0.0
C214 C 0.9378 0.5281 0.37234 0.0
H215 H 0.00418 0.37421 0.37681 0.0
H216 H 0.89671 0.42657 0.37673 0.0
S217 S 0.08105 0.65129 0.36381 0.0
N218 N 0.11588 0.5783 0.36611 0.0
N219 N 0.99971 0.6347 0.36626 0.0
C220 C 0.99779 0.567 0.36911 0.0
C221 C 0.06089 0.5363 0.3689 0.0
C222 C 0.4334 0.50558 0.61759 0.0
C223 C 0.45508 0.43993 0.61412 0.0
C224 C 0.47884 0.56108 0.61777 0.0
C225 C 0.54805 0.55355 0.61424 0.0
H226 H 0.38075 0.51439 0.62053 0.0
H227 H 0.45929 0.61028 0.62074 0.0
S228 S 0.63069 0.39212 0.60296 0.0
N229 N 0.55045 0.3707 0.60619 0.0
N230 N 0.6358 0.47429 0.60638 0.0
C231 C 0.57038 0.488 0.61037 0.0
C232 C 0.52403 0.43151 0.61039 0.0
C233 C 0.50293 0.93545 0.87514 0.0
C234 C 0.56316 0.9746 0.8742 0.0
C235 C 0.44067 0.96483 0.87429 0.0
C236 C 0.43609 0.03463 0.87302 0.0
H237 H 0.50374 0.88154 0.87707 0.0
H238 H 0.39586 0.93258 0.87586 0.0
S239 S 0.57852 0.15957 0.86782 0.0
N240 N 0.61404 0.08689 0.86992 0.0
N241 N 0.49717 0.14213 0.86888 0.0
C242 C 0.49582 0.07435 0.87102 0.0
C243 C 0.55928 0.04435 0.87143 0.0
C244 C 0.92816 0.50284 0.12784 0.0
C245 C 0.96733 0.56294 0.13015 0.0
C246 C 0.95751 0.44047 0.12789 0.0
C247 C 0.02726 0.43583 0.12969 0.0
H248 H 0.87434 0.50388 0.1254 0.0
H249 H 0.92543 0.39575 0.12522 0.0
S250 S 0.15207 0.57758 0.13869 0.0
N251 N 0.07952 0.6133 0.13646 0.0
N252 N 0.13456 0.49641 0.13601 0.0
C253 C 0.06688 0.49532 0.13313 0.0
C254 C 0.03697 0.55876 0.13353 0.0
C255 C 0.50872 0.43067 0.39088 0.0
C256 C 0.44307 0.45233 0.38696 0.0
C257 C 0.56426 0.47602 0.39128 0.0
C258 C 0.55674 0.54521 0.38805 0.0
H259 H 0.51766 0.37802 0.39368 0.0
H260 H 0.61344 0.45656 0.39453 0.0
S261 S 0.39606 0.62847 0.37617 0.0
N262 N 0.37426 0.54826 0.37913 0.0
N263 N 0.47818 0.63323 0.37989 0.0
C264 C 0.49145 0.56771 0.38392 0.0
C265 C 0.43488 0.52146 0.38335 0.0
C266 C 0.43096 1.001 0.62853 0.0
C267 C 0.46937 0.06151 0.63117 0.0
C268 C 0.46106 0.93896 0.62859 0.0
C269 C 0.53089 0.9349 0.63081 0.0
H270 H 0.37717 1.00145 0.62579 0.0
H271 H 0.42942 0.89398 0.62573 0.0
S272 S 0.65395 0.07796 0.64067 0.0
N273 N 0.58103 0.11287 0.63811 0.0
N274 N 0.63738 0.99666 0.63777 0.0
C275 C 0.56975 0.99482 0.63453 0.0
C276 C 0.53908 0.05795 0.63485 0.0
C277 C 0.93448 0.01698 0.88545 0.0
C278 C 0.94216 0.94757 0.88743 0.0
C279 C 0.98992 0.06236 0.88536 0.0
C280 C 0.05576 0.0405 0.88698 0.0
H281 H 0.88512 0.03682 0.88426 0.0
H282 H 0.98084 0.11518 0.88386 0.0
S283 S 0.10398 0.86398 0.89273 0.0
N284 N 0.02156 0.85916 0.89118 0.0
N285 N 0.12539 0.94444 0.89096 0.0
C286 C 0.06437 0.97123 0.88888 0.0
C287 C 0.00781 0.9249 0.88916 0.0
loop_
_geom_bond_atom_site_label_1
_geom_bond_atom_site_label_2
_geom_bond_distance
_geom_bond_site_symmetry_2
_ccdc_geom_bond_type
Co0 O1 2.216 . S
Co0 O2 2.091 . S
Co0 O4 2.004 . S
Co0 O10 2.021 . S
Co0 O12 2.137 . S
Co0 O13 2.244 . S
O1 Co0 2.216 . S
O1 C8 1.247 . S
O2 Co0 2.091 . S
O2 C8 1.261 . S
C3 O12 1.247 . S
C3 O13 1.272 . S
O4 Co0 2.004 . S
O4 C9 1.259 . S
Co5 O6 2.061 . S
Co5 O11 2.052 . S
Co5 O13 2.135 . S
O6 Co5 2.061 . S
O6 C9 1.235 . S
C7 O10 1.238 . S
C7 O11 1.241 . S
C8 O1 1.247 . S
C8 O2 1.261 . S
C9 O4 1.259 . S
C9 O6 1.235 . S
O10 Co0 2.021 . S
O10 C7 1.238 . S
O11 Co5 2.052 . S
O11 C7 1.241 . S
O12 Co0 2.137 . S
O12 C3 1.247 . S
O13 Co0 2.244 . S
O13 C3 1.272 . S
O13 Co5 2.135 . S
Co14 O15 2.216 . S
Co14 O16 2.091 . S
Co14 O18 2.004 . S
Co14 O24 2.021 . S
Co14 O26 2.137 . S
Co14 O27 2.244 . S
O15 Co14 2.216 . S
O15 C22 1.247 . S
O16 Co14 2.091 . S
O16 C22 1.261 . S
C17 O26 1.247 . S
C17 O27 1.272 . S
O18 Co14 2.004 . S
O18 C23 1.259 . S
Co19 O20 2.061 . S
Co19 O25 2.052 . S
Co19 O27 2.135 . S
O20 Co19 2.061 . S
O20 C23 1.235 . S
C21 O24 1.238 . S
C21 O25 1.241 . S
C22 O15 1.247 . S
C22 O16 1.261 . S
C23 O18 1.259 . S
C23 O20 1.235 . S
O24 Co14 2.021 . S
O24 C21 1.238 . S
O25 Co19 2.052 . S
O25 C21 1.241 . S
O26 Co14 2.137 . S
O26 C17 1.247 . S
O27 Co14 2.244 . S
O27 C17 1.272 . S
O27 Co19 2.135 . S
Co28 O29 2.216 . S
Co28 O30 2.091 . S
Co28 O32 2.004 . S
Co28 O38 2.021 . S
Co28 O40 2.137 . S
Co28 O41 2.244 . S
O29 Co28 2.216 . S
O29 C36 1.247 . S
O30 Co28 2.091 . S
O30 C36 1.261 . S
C31 O40 1.247 . S
C31 O41 1.272 . S
O32 Co28 2.004 . S
O32 C37 1.259 . S
Co33 O34 2.061 . S
Co33 O39 2.052 . S
Co33 O41 2.135 . S
O34 Co33 2.061 . S
O34 C37 1.235 . S
C35 O38 1.238 . S
C35 O39 1.241 . S
C36 O29 1.247 . S
C36 O30 1.261 . S
C37 O32 1.259 . S
C37 O34 1.235 . S
O38 Co28 2.021 . S
O38 C35 1.238 . S
O39 Co33 2.052 . S
O39 C35 1.241 . S
O40 Co28 2.137 . S
O40 C31 1.247 . S
O41 Co28 2.244 . S
O41 C31 1.272 . S
O41 Co33 2.135 . S
Co42 O43 2.216 . S
Co42 O44 2.091 . S
Co42 O46 2.004 . S
Co42 O52 2.021 . S
Co42 O54 2.137 . S
Co42 O55 2.244 . S
O43 Co42 2.216 . S
O43 C50 1.247 . S
O44 Co42 2.091 . S
O44 C50 1.261 . S
C45 O54 1.247 . S
C45 O55 1.272 . S
O46 Co42 2.004 . S
O46 C51 1.259 . S
Co47 O48 2.061 . S
Co47 O53 2.052 . S
Co47 O55 2.135 . S
O48 Co47 2.061 . S
O48 C51 1.235 . S
C49 O52 1.238 . S
C49 O53 1.241 . S
C50 O43 1.247 . S
C50 O44 1.261 . S
C51 O46 1.259 . S
C51 O48 1.235 . S
O52 Co42 2.021 . S
O52 C49 1.238 . S
O53 Co47 2.052 . S
O53 C49 1.241 . S
O54 Co42 2.137 . S
O54 C45 1.247 . S
O55 Co42 2.244 . S
O55 C45 1.272 . S
O55 Co47 2.135 . S
Co56 O57 2.216 . S
Co56 O58 2.091 . S
Co56 O60 2.004 . S
Co56 O66 2.021 . S
Co56 O68 2.137 . S
Co56 O69 2.244 . S
O57 Co56 2.216 . S
O57 C64 1.247 . S
O58 Co56 2.091 . S
O58 C64 1.261 . S
C59 O68 1.247 . S
C59 O69 1.272 . S
O60 Co56 2.004 . S
O60 C65 1.259 . S
Co61 O62 2.061 . S
Co61 O67 2.052 . S
Co61 O69 2.135 . S
O62 Co61 2.061 . S
O62 C65 1.235 . S
C63 O66 1.238 . S
C63 O67 1.241 . S
C64 O57 1.247 . S
C64 O58 1.261 . S
C65 O60 1.259 . S
C65 O62 1.235 . S
O66 Co56 2.021 . S
O66 C63 1.238 . S
O67 Co61 2.052 . S
O67 C63 1.241 . S
O68 Co56 2.137 . S
O68 C59 1.247 . S
O69 Co56 2.244 . S
O69 C59 1.272 . S
O69 Co61 2.135 . S
Co70 O71 2.216 . S
Co70 O72 2.091 . S
Co70 O74 2.004 . S
Co70 O80 2.021 . S
Co70 O82 2.137 . S
Co70 O83 2.244 . S
O71 Co70 2.216 . S
O71 C78 1.247 . S
O72 Co70 2.091 . S
O72 C78 1.261 . S
C73 O82 1.247 . S
C73 O83 1.272 . S
O74 Co70 2.004 . S
O74 C79 1.259 . S
Co75 O76 2.061 . S
Co75 O81 2.052 . S
Co75 O83 2.135 . S
O76 Co75 2.061 . S
O76 C79 1.235 . S
C77 O80 1.238 . S
C77 O81 1.241 . S
C78 O71 1.247 . S
C78 O72 1.261 . S
C79 O74 1.259 . S
C79 O76 1.235 . S
O80 Co70 2.021 . S
O80 C77 1.238 . S
O81 Co75 2.052 . S
O81 C77 1.241 . S
O82 Co70 2.137 . S
O82 C73 1.247 . S
O83 Co70 2.244 . S
O83 C73 1.272 . S
O83 Co75 2.135 . S
Co84 O85 2.216 . S
Co84 O86 2.091 . S
Co84 O88 2.004 . S
Co84 O94 2.021 . S
Co84 O96 2.137 . S
Co84 O97 2.244 . S
O85 Co84 2.216 . S
O85 C92 1.247 . S
O86 Co84 2.091 . S
O86 C92 1.261 . S
C87 O96 1.247 . S
C87 O97 1.272 . S
O88 Co84 2.004 . S
O88 C93 1.259 . S
Co89 O90 2.061 . S
Co89 O95 2.052 . S
Co89 O97 2.135 . S
O90 Co89 2.061 . S
O90 C93 1.235 . S
C91 O94 1.238 . S
C91 O95 1.241 . S
C92 O85 1.247 . S
C92 O86 1.261 . S
C93 O88 1.259 . S
C93 O90 1.235 . S
O94 Co84 2.021 . S
O94 C91 1.238 . S
O95 Co89 2.052 . S
O95 C91 1.241 . S
O96 Co84 2.137 . S
O96 C87 1.247 . S
O97 Co84 2.244 . S
O97 C87 1.272 . S
O97 Co89 2.135 . S
Co98 O99 2.216 . S
Co98 O100 2.091 . S
Co98 O102 2.004 . S
Co98 O108 2.021 . S
Co98 O110 2.137 . S
Co98 O111 2.244 . S
O99 Co98 2.216 . S
O99 C106 1.247 . S
O100 Co98 2.091 . S
O100 C106 1.261 . S
C101 O110 1.247 . S
C101 O111 1.272 . S
O102 Co98 2.004 . S
O102 C107 1.259 . S
Co103 O104 2.061 . S
Co103 O109 2.052 . S
Co103 O111 2.135 . S
O104 Co103 2.061 . S
O104 C107 1.235 . S
C105 O108 1.238 . S
C105 O109 1.241 . S
C106 O99 1.247 . S
C106 O100 1.261 . S
C107 O102 1.259 . S
C107 O104 1.235 . S
O108 Co98 2.021 . S
O108 C105 1.238 . S
O109 Co103 2.052 . S
O109 C105 1.241 . S
O110 Co98 2.137 . S
O110 C101 1.247 . S
O111 Co98 2.244 . S
O111 C101 1.272 . S
O111 Co103 2.135 . S
C112 C113 1.369 . S
C112 C114 1.419 1_554 S
C112 H116 0.930 . S
C113 C112 1.369 . S
C113 C122 1.429 . S
C114 C112 1.419 1_556 S
C114 C115 1.363 . S
C114 H117 0.929 . S
C115 C114 1.363 . S
C115 C121 1.428 . S
H116 C112 0.930 . S
H117 C114 0.929 . S
S118 N119 1.613 . S
S118 N120 1.610 1_554 S
N119 S118 1.613 . S
N119 C122 1.350 . S
N120 S118 1.610 1_556 S
N120 C121 1.351 . S
C121 C115 1.428 . S
C121 N120 1.351 . S
C121 C122 1.434 1_556 S
C122 C113 1.429 . S
C122 N119 1.350 . S
C122 C121 1.434 1_554 S
C123 C124 1.369 . S
C123 C125 1.419 . S
C123 H127 0.930 . S
C124 C123 1.369 . S
C124 C133 1.429 . S
C125 C123 1.419 . S
C125 C126 1.363 . S
C125 H128 0.929 . S
C126 C125 1.363 . S
C126 C132 1.428 . S
H127 C123 0.930 . S
H128 C125 0.929 . S
S129 N130 1.613 . S
S129 N131 1.610 . S
N130 S129 1.613 . S
N130 C133 1.350 . S
N131 S129 1.610 . S
N131 C132 1.351 . S
C132 C126 1.428 . S
C132 N131 1.351 . S
C132 C133 1.434 . S
C133 C124 1.429 . S
C133 N130 1.350 . S
C133 C132 1.434 . S
C134 C135 1.369 . S
C134 C136 1.419 . S
C134 H138 0.930 . S
C135 C134 1.369 . S
C135 C144 1.429 . S
C136 C134 1.419 . S
C136 C137 1.363 . S
C136 H139 0.929 . S
C137 C136 1.363 . S
C137 C143 1.428 . S
H138 C134 0.930 . S
H139 C136 0.929 . S
S140 N141 1.613 . S
S140 N142 1.610 . S
N141 S140 1.613 . S
N141 C144 1.350 . S
N142 S140 1.610 . S
N142 C143 1.351 . S
C143 C137 1.428 . S
C143 N142 1.351 . S
C143 C144 1.434 . S
C144 C135 1.429 . S
C144 N141 1.350 . S
C144 C143 1.434 . S
C145 C146 1.369 . S
C145 C147 1.419 . S
C145 H149 0.930 . S
C146 C145 1.369 . S
C146 C155 1.429 . S
C147 C145 1.419 . S
C147 C148 1.363 . S
C147 H150 0.929 . S
C148 C147 1.363 . S
C148 C154 1.428 . S
H149 C145 0.930 . S
H150 C147 0.929 . S
S151 N152 1.613 . S
S151 N153 1.610 . S
N152 S151 1.613 . S
N152 C155 1.350 . S
N153 S151 1.610 . S
N153 C154 1.351 . S
C154 C148 1.428 . S
C154 N153 1.351 . S
C154 C155 1.434 . S
C155 C146 1.429 . S
C155 N152 1.350 . S
C155 C154 1.434 . S
C156 C157 1.369 . S
C156 C158 1.419 . S
C156 H160 0.930 . S
C157 C156 1.369 . S
C157 C166 1.429 . S
C158 C156 1.419 . S
C158 C159 1.363 . S
C158 H161 0.929 . S
C159 C158 1.363 . S
C159 C165 1.428 . S
H160 C156 0.930 . S
H161 C158 0.929 . S
S162 N163 1.613 . S
S162 N164 1.610 . S
N163 S162 1.613 . S
N163 C166 1.350 . S
N164 S162 1.610 . S
N164 C165 1.351 . S
C165 C159 1.428 . S
C165 N164 1.351 . S
C165 C166 1.434 . S
C166 C157 1.429 . S
C166 N163 1.350 . S
C166 C165 1.434 . S
C167 C168 1.369 . S
C167 C169 1.419 . S
C167 H171 0.930 . S
C168 C167 1.369 . S
C168 C177 1.429 . S
C169 C167 1.419 . S
C169 C170 1.363 . S
C169 H172 0.929 . S
C170 C169 1.363 . S
C170 C176 1.428 . S
H171 C167 0.930 . S
H172 C169 0.929 . S
S173 N174 1.613 . S
S173 N175 1.610 . S
N174 S173 1.613 . S
N174 C177 1.350 . S
N175 S173 1.610 . S
N175 C176 1.351 . S
C176 C170 1.428 . S
C176 N175 1.351 . S
C176 C177 1.434 . S
C177 C168 1.429 . S
C177 N174 1.350 . S
C177 C176 1.434 . S
C178 C179 1.369 . S
C178 C180 1.419 . S
C178 H182 0.930 . S
C179 C178 1.369 . S
C179 C188 1.429 . S
C180 C178 1.419 . S
C180 C181 1.363 . S
C180 H183 0.929 . S
C181 C180 1.363 . S
C181 C187 1.428 . S
H182 C178 0.930 . S
H183 C180 0.929 . S
S184 N185 1.613 . S
S184 N186 1.610 . S
N185 S184 1.613 . S
N185 C188 1.350 . S
N186 S184 1.610 . S
N186 C187 1.351 . S
C187 C181 1.428 . S
C187 N186 1.351 . S
C187 C188 1.434 . S
C188 C179 1.429 . S
C188 N185 1.350 . S
C188 C187 1.434 . S
C189 C190 1.369 . S
C189 C191 1.419 1_554 S
C189 H193 0.930 . S
C190 C189 1.369 . S
C190 C199 1.429 . S
C191 C189 1.419 1_556 S
C191 C192 1.363 . S
C191 H194 0.929 . S
C192 C191 1.363 . S
C192 C198 1.428 . S
H193 C189 0.930 . S
H194 C191 0.929 . S
S195 N196 1.613 . S
S195 N197 1.610 1_554 S
N196 S195 1.613 . S
N196 C199 1.350 . S
N197 S195 1.610 1_556 S
N197 C198 1.351 . S
C198 C192 1.428 . S
C198 N197 1.351 . S
C198 C199 1.434 1_556 S
C199 C190 1.429 . S
C199 N196 1.350 . S
C199 C198 1.434 1_554 S
C200 C201 1.369 1_655 S
C200 C202 1.419 . S
C200 H204 0.930 . S
C201 C200 1.369 1_455 S
C201 C210 1.429 1_545 S
C202 C200 1.419 . S
C202 C203 1.363 1_545 S
C202 H205 0.929 . S
C203 C202 1.363 1_565 S
C203 C209 1.428 1_655 S
H204 C200 0.930 . S
H205 C202 0.929 . S
S206 N207 1.613 . S
S206 N208 1.610 . S
N207 S206 1.613 . S
N207 C210 1.350 . S
N208 S206 1.610 . S
N208 C209 1.351 . S
C209 C203 1.428 1_455 S
C209 N208 1.351 . S
C209 C210 1.434 . S
C210 C201 1.429 1_565 S
C210 N207 1.350 . S
C210 C209 1.434 . S
C211 C212 1.369 . S
C211 C213 1.419 1_455 S
C211 H215 0.930 . S
C212 C211 1.369 . S
C212 C221 1.429 . S
C213 C211 1.419 1_655 S
C213 C214 1.363 . S
C213 H216 0.929 . S
C214 C213 1.363 . S
C214 C220 1.428 . S
H215 C211 0.930 . S
H216 C213 0.929 . S
S217 N218 1.613 . S
S217 N219 1.610 1_455 S
N218 S217 1.613 . S
N218 C221 1.350 . S
N219 S217 1.610 1_655 S
N219 C220 1.351 . S
C220 C214 1.428 . S
C220 N219 1.351 . S
C220 C221 1.434 1_655 S
C221 C212 1.429 . S
C221 N218 1.350 . S
C221 C220 1.434 1_455 S
C222 C223 1.369 . S
C222 C224 1.419 . S
C222 H226 0.930 . S
C223 C222 1.369 . S
C223 C232 1.429 . S
C224 C222 1.419 . S
C224 C225 1.363 . S
C224 H227 0.929 . S
C225 C224 1.363 . S
C225 C231 1.428 . S
H226 C222 0.930 . S
H227 C224 0.929 . S
S228 N229 1.613 . S
S228 N230 1.610 . S
N229 S228 1.613 . S
N229 C232 1.350 . S
N230 S228 1.610 . S
N230 C231 1.351 . S
C231 C225 1.428 . S
C231 N230 1.351 . S
C231 C232 1.434 . S
C232 C223 1.429 . S
C232 N229 1.350 . S
C232 C231 1.434 . S
C233 C234 1.369 . S
C233 C235 1.419 . S
C233 H237 0.930 . S
C234 C233 1.369 . S
C234 C243 1.429 1_565 S
C235 C233 1.419 . S
C235 C236 1.363 1_565 S
C235 H238 0.929 . S
C236 C235 1.363 1_545 S
C236 C242 1.428 . S
H237 C233 0.930 . S
H238 C235 0.929 . S
S239 N240 1.613 . S
S239 N241 1.610 . S
N240 S239 1.613 . S
N240 C243 1.350 . S
N241 S239 1.610 . S
N241 C242 1.351 . S
C242 C236 1.428 . S
C242 N241 1.351 . S
C242 C243 1.434 . S
C243 C234 1.429 1_545 S
C243 N240 1.350 . S
C243 C242 1.434 . S
C244 C245 1.369 . S
C244 C246 1.419 . S
C244 H248 0.930 . S
C245 C244 1.369 . S
C245 C254 1.429 1_655 S
C246 C244 1.419 . S
C246 C247 1.363 1_655 S
C246 H249 0.929 . S
C247 C246 1.363 1_455 S
C247 C253 1.428 . S
H248 C244 0.930 . S
H249 C246 0.929 . S
S250 N251 1.613 . S
S250 N252 1.610 . S
N251 S250 1.613 . S
N251 C254 1.350 . S
N252 S250 1.610 . S
N252 C253 1.351 . S
C253 C247 1.428 . S
C253 N252 1.351 . S
C253 C254 1.434 . S
C254 C245 1.429 1_455 S
C254 N251 1.350 . S
C254 C253 1.434 . S
C255 C256 1.369 . S
C255 C257 1.419 . S
C255 H259 0.930 . S
C256 C255 1.369 . S
C256 C265 1.429 . S
C257 C255 1.419 . S
C257 C258 1.363 . S
C257 H260 0.929 . S
C258 C257 1.363 . S
C258 C264 1.428 . S
H259 C255 0.930 . S
H260 C257 0.929 . S
S261 N262 1.613 . S
S261 N263 1.610 . S
N262 S261 1.613 . S
N262 C265 1.350 . S
N263 S261 1.610 . S
N263 C264 1.351 . S
C264 C258 1.428 . S
C264 N263 1.351 . S
C264 C265 1.434 . S
C265 C256 1.429 . S
C265 N262 1.350 . S
C265 C264 1.434 . S
C266 C267 1.369 1_565 S
C266 C268 1.419 . S
C266 H270 0.930 . S
C267 C266 1.369 1_545 S
C267 C276 1.429 . S
C268 C266 1.419 . S
C268 C269 1.363 . S
C268 H271 0.929 . S
C269 C268 1.363 . S
C269 C275 1.428 1_565 S
H270 C266 0.930 . S
H271 C268 0.929 . S
S272 N273 1.613 . S
S272 N274 1.610 . S
N273 S272 1.613 . S
N273 C276 1.350 . S
N274 S272 1.610 . S
N274 C275 1.351 . S
C275 C269 1.428 1_545 S
C275 N274 1.351 . S
C275 C276 1.434 . S
C276 C267 1.429 . S
C276 N273 1.350 . S
C276 C275 1.434 . S
C277 C278 1.369 1_545 S
C277 C279 1.419 . S
C277 H281 0.930 . S
C278 C277 1.369 1_565 S
C278 C287 1.429 1_655 S
C279 C277 1.419 . S
C279 C280 1.363 1_655 S
C279 H282 0.929 . S
C280 C279 1.363 1_455 S
C280 C286 1.428 1_545 S
H281 C277 0.930 . S
H282 C279 0.929 . S
S283 N284 1.613 . S
S283 N285 1.610 . S
N284 S283 1.613 . S
N284 C287 1.350 . S
N285 S283 1.610 . S
N285 C286 1.351 . S
C286 C280 1.428 1_565 S
C286 N285 1.351 . S
C286 C287 1.434 . S
C287 C278 1.429 1_455 S
C287 N284 1.350 . S
C287 C286 1.434 . S
C113 C3 1.318 . S
C115 C73 1.314 . S
C124 C21 1.334 . S
C126 C91 1.339 . S
C135 C31 1.315 . S
C137 C101 1.320 . S
C146 C49 1.340 . S
C148 C63 1.335 . S
C157 C105 1.338 . S
C159 C7 1.335 . S
C168 C59 1.322 . S
C170 C17 1.316 . S
C179 C35 1.339 . S
C181 C77 1.335 . S
C190 C87 1.317 . S
C192 C45 1.314 . S
C201 C9 1.585 . S
C203 C93 1.585 . S
C212 C106 1.573 . S
C214 C22 1.573 . S
C223 C37 1.584 . S
C225 C65 1.584 . S
C234 C50 1.570 . S
C236 C78 1.574 . S
C245 C92 1.570 . S
C247 C8 1.575 . S
C256 C107 1.586 . S
C258 C23 1.586 . S
C267 C36 1.570 . S
C269 C64 1.574 . S
C278 C51 1.585 . S
C280 C79 1.585 . S
