# Generated by pormake.
# Topology whd, (6)-cn, num edge types: 1
# Building blocks:
#     Node 0, Type 0, BuildingBlock: IZENUY_clean_sbu_0, # of connection points: 6
#     Node 1, Type 0, BuildingBlock: IZENUY_clean_sbu_0, # of connection points: 6
#     Node 2, Type 0, BuildingBlock: IZENUY_clean_sbu_0, # of connection points: 6
#     Node 3, Type 0, BuildingBlock: IZENUY_clean_sbu_0, # of connection points: 6
#     Node 4, Type 0, BuildingBlock: IZENUY_clean_sbu_0, # of connection points: 6
#     Node 5, Type 0, BuildingBlock: IZENUY_clean_sbu_0, # of connection points: 6
#     Node 6, Type 0, BuildingBlock: IZENUY_clean_sbu_0, # of connection points: 6
#     Node 7, Type 0, BuildingBlock: IZENUY_clean_sbu_0, # of connection points: 6
#     Node 8, Type 0, BuildingBlock: IZENUY_clean_sbu_0, # of connection points: 6
#     Node 9, Type 0, BuildingBlock: IZENUY_clean_sbu_0, # of connection points: 6
#     Node 10, Type 0, BuildingBlock: IZENUY_clean_sbu_0, # of connection points: 6
#     Node 11, Type 0, BuildingBlock: IZENUY_clean_sbu_0, # of connection points: 6
#     Node 12, Type 0, BuildingBlock: IZENUY_clean_sbu_0, # of connection points: 6
#     Node 13, Type 0, BuildingBlock: IZENUY_clean_sbu_0, # of connection points: 6
#     Node 14, Type 0, BuildingBlock: IZENUY_clean_sbu_0, # of connection points: 6
#     Node 15, Type 0, BuildingBlock: IZENUY_clean_sbu_0, # of connection points: 6
#     Edge 16, Type (0, 0), BuildingBlock: UVAHIK_clean_linker_0, # of connection points: 2
#     Edge 17, Type (0, 0), BuildingBlock: UVAHIK_clean_linker_0, # of connection points: 2
#     Edge 18, Type (0, 0), BuildingBlock: UVAHIK_clean_linker_0, # of connection points: 2
#     Edge 19, Type (0, 0), BuildingBlock: UVAHIK_clean_linker_0, # of connection points: 2
#     Edge 20, Type (0, 0), BuildingBlock: UVAHIK_clean_linker_0, # of connection points: 2
#     Edge 21, Type (0, 0), BuildingBlock: UVAHIK_clean_linker_0, # of connection points: 2
#     Edge 22, Type (0, 0), BuildingBlock: UVAHIK_clean_linker_0, # of connection points: 2
#     Edge 23, Type (0, 0), BuildingBlock: UVAHIK_clean_linker_0, # of connection points: 2
#     Edge 24, Type (0, 0), BuildingBlock: UVAHIK_clean_linker_0, # of connection points: 2
#     Edge 25, Type (0, 0), BuildingBlock: UVAHIK_clean_linker_0, # of connection points: 2
#     Edge 26, Type (0, 0), BuildingBlock: UVAHIK_clean_linker_0, # of connection points: 2
#     Edge 27, Type (0, 0), BuildingBlock: UVAHIK_clean_linker_0, # of connection points: 2
#     Edge 28, Type (0, 0), BuildingBlock: UVAHIK_clean_linker_0, # of connection points: 2
#     Edge 29, Type (0, 0), BuildingBlock: UVAHIK_clean_linker_0, # of connection points: 2
#     Edge 30, Type (0, 0), BuildingBlock: UVAHIK_clean_linker_0, # of connection points: 2
#     Edge 31, Type (0, 0), BuildingBlock: UVAHIK_clean_linker_0, # of connection points: 2
#     Edge 32, Type (0, 0), BuildingBlock: UVAHIK_clean_linker_0, # of connection points: 2
#     Edge 33, Type (0, 0), BuildingBlock: UVAHIK_clean_linker_0, # of connection points: 2
#     Edge 34, Type (0, 0), BuildingBlock: UVAHIK_clean_linker_0, # of connection points: 2
#     Edge 35, Type (0, 0), BuildingBlock: UVAHIK_clean_linker_0, # of connection points: 2
#     Edge 36, Type (0, 0), BuildingBlock: UVAHIK_clean_linker_0, # of connection points: 2
#     Edge 37, Type (0, 0), BuildingBlock: UVAHIK_clean_linker_0, # of connection points: 2
#     Edge 38, Type (0, 0), BuildingBlock: UVAHIK_clean_linker_0, # of connection points: 2
#     Edge 39, Type (0, 0), BuildingBlock: UVAHIK_clean_linker_0, # of connection points: 2
#     Edge 40, Type (0, 0), BuildingBlock: UVAHIK_clean_linker_0, # of connection points: 2
#     Edge 41, Type (0, 0), BuildingBlock: UVAHIK_clean_linker_0, # of connection points: 2
#     Edge 42, Type (0, 0), BuildingBlock: UVAHIK_clean_linker_0, # of connection points: 2
#     Edge 43, Type (0, 0), BuildingBlock: UVAHIK_clean_linker_0, # of connection points: 2
#     Edge 44, Type (0, 0), BuildingBlock: UVAHIK_clean_linker_0, # of connection points: 2
#     Edge 45, Type (0, 0), BuildingBlock: UVAHIK_clean_linker_0, # of connection points: 2
#     Edge 46, Type (0, 0), BuildingBlock: UVAHIK_clean_linker_0, # of connection points: 2
#     Edge 47, Type (0, 0), BuildingBlock: UVAHIK_clean_linker_0, # of connection points: 2
#     Edge 48, Type (0, 0), BuildingBlock: UVAHIK_clean_linker_0, # of connection points: 2
#     Edge 49, Type (0, 0), BuildingBlock: UVAHIK_clean_linker_0, # of connection points: 2
#     Edge 50, Type (0, 0), BuildingBlock: UVAHIK_clean_linker_0, # of connection points: 2
#     Edge 51, Type (0, 0), BuildingBlock: UVAHIK_clean_linker_0, # of connection points: 2
#     Edge 52, Type (0, 0), BuildingBlock: UVAHIK_clean_linker_0, # of connection points: 2
#     Edge 53, Type (0, 0), BuildingBlock: UVAHIK_clean_linker_0, # of connection points: 2
#     Edge 54, Type (0, 0), BuildingBlock: UVAHIK_clean_linker_0, # of connection points: 2
#     Edge 55, Type (0, 0), BuildingBlock: UVAHIK_clean_linker_0, # of connection points: 2
#     Edge 56, Type (0, 0), BuildingBlock: UVAHIK_clean_linker_0, # of connection points: 2
#     Edge 57, Type (0, 0), BuildingBlock: UVAHIK_clean_linker_0, # of connection points: 2
#     Edge 58, Type (0, 0), BuildingBlock: UVAHIK_clean_linker_0, # of connection points: 2
#     Edge 59, Type (0, 0), BuildingBlock: UVAHIK_clean_linker_0, # of connection points: 2
#     Edge 60, Type (0, 0), BuildingBlock: UVAHIK_clean_linker_0, # of connection points: 2
#     Edge 61, Type (0, 0), BuildingBlock: UVAHIK_clean_linker_0, # of connection points: 2
#     Edge 62, Type (0, 0), BuildingBlock: UVAHIK_clean_linker_0, # of connection points: 2
#     Edge 63, Type (0, 0), BuildingBlock: UVAHIK_clean_linker_0, # of connection points: 2
# Relax obj value: 0.274
# Max RMSD: 0.227
# Mean RMSD: 0.227
data_MOF--net-whd--node1-IZENUY_clean_sbu_0--edge1-UVAHIK_clean_linker_0
_symmetry_space_group_name_H-M    P1
_symmetry_Int_Tables_number       1
_symmetry_cell_setting            triclinic
loop_
_symmetry_equiv_pos_as_xyz
'x, y, z'
_cell_length_a     65.349612
_cell_length_b     65.670223
_cell_length_c     36.958188
_cell_angle_alpha  90.025945
_cell_angle_beta   90.030154
_cell_angle_gamma 89.994217
loop_
_atom_site_label
_atom_site_type_symbol
_atom_site_fract_x
_atom_site_fract_y
_atom_site_fract_z
_atom_type_partial_charge
Fe0 Fe 0.18061 0.37028 0.32525 0.0
Fe1 Fe 0.16588 0.4121 0.35111 0.0
O2 O 0.18366 0.39699 0.32713 0.0
Fe3 Fe 0.20457 0.40864 0.30474 0.0
O4 O 0.1955 0.39945 0.26138 0.0
O5 O 0.19106 0.36785 0.27929 0.0
O6 O 0.15563 0.3725 0.30442 0.0
C7 C 0.14079 0.38219 0.31771 0.0
C8 C 0.22196 0.37254 0.33303 0.0
O9 O 0.14369 0.3957 0.34166 0.0
C10 C 0.20427 0.4303 0.36734 0.0
O11 O 0.16951 0.36802 0.37065 0.0
O12 O 0.17131 0.39896 0.39309 0.0
O13 O 0.22207 0.38687 0.31011 0.0
O14 O 0.20534 0.36625 0.34613 0.0
C15 C 0.17214 0.43666 0.29301 0.0
O16 O 0.18493 0.43113 0.36489 0.0
O17 O 0.21457 0.41865 0.34713 0.0
C18 C 0.1699 0.37998 0.39752 0.0
O19 O 0.15927 0.42636 0.31067 0.0
O20 O 0.19105 0.43258 0.29508 0.0
C21 C 0.19194 0.38099 0.25424 0.0
Fe22 Fe 0.37078 0.82447 0.66988 0.0
Fe23 Fe 0.40899 0.79956 0.69121 0.0
O24 O 0.39751 0.82026 0.66775 0.0
Fe25 Fe 0.41276 0.83694 0.64157 0.0
O26 O 0.40576 0.85857 0.66951 0.0
O27 O 0.37274 0.85235 0.66699 0.0
O28 O 0.37165 0.82735 0.71831 0.0
C29 C 0.37927 0.81484 0.74037 0.0
C30 C 0.37718 0.83292 0.59893 0.0
O31 O 0.39155 0.80102 0.73018 0.0
C32 C 0.4287 0.79992 0.62289 0.0
O33 O 0.364 0.79762 0.67346 0.0
O34 O 0.39303 0.78093 0.66833 0.0
O35 O 0.3928 0.84292 0.60841 0.0
O36 O 0.36804 0.82169 0.62125 0.0
C37 C 0.43809 0.82891 0.70184 0.0
O38 O 0.42835 0.7947 0.65596 0.0
O39 O 0.42037 0.81623 0.61241 0.0
C40 C 0.37381 0.7816 0.66601 0.0
O41 O 0.42598 0.81638 0.71623 0.0
O42 O 0.43575 0.83427 0.66931 0.0
C43 C 0.38749 0.86427 0.67403 0.0
Fe44 Fe 0.79713 0.59102 0.30271 0.0
Fe45 Fe 0.81994 0.63033 0.32221 0.0
O46 O 0.81739 0.60358 0.32537 0.0
Fe47 Fe 0.83524 0.58936 0.35086 0.0
O48 O 0.84298 0.57504 0.31136 0.0
O49 O 0.81179 0.56757 0.29363 0.0
O50 O 0.80612 0.60013 0.25938 0.0
C51 C 0.80901 0.61856 0.25149 0.0
C52 C 0.79742 0.56982 0.36574 0.0
O53 O 0.80971 0.63205 0.27594 0.0
C54 C 0.82991 0.62193 0.3954 0.0
O55 O 0.77887 0.61222 0.30759 0.0
O56 O 0.79503 0.63418 0.34216 0.0
O57 O 0.81679 0.56972 0.36427 0.0
O58 O 0.78706 0.58096 0.34486 0.0
C59 C 0.85993 0.6189 0.31655 0.0
O60 O 0.83058 0.63345 0.36792 0.0
O61 O 0.82869 0.60286 0.3919 0.0
C62 C 0.77861 0.62699 0.32971 0.0
O63 O 0.84513 0.6281 0.30202 0.0
O64 O 0.85695 0.60636 0.34199 0.0
C65 C 0.83095 0.56447 0.29246 0.0
Fe66 Fe 0.59113 0.20173 0.6904 0.0
Fe67 Fe 0.58628 0.16378 0.64287 0.0
O68 O 0.60199 0.1805 0.66792 0.0
Fe69 Fe 0.62859 0.17599 0.67071 0.0
O70 O 0.63117 0.18626 0.71661 0.0
O71 O 0.59958 0.19215 0.73397 0.0
O72 O 0.56642 0.18933 0.69927 0.0
C73 C 0.56146 0.17069 0.70056 0.0
C74 C 0.62831 0.21721 0.66276 0.0
O75 O 0.57123 0.15759 0.68257 0.0
C76 C 0.61927 0.16625 0.59799 0.0
O77 O 0.58188 0.21238 0.648 0.0
O78 O 0.56817 0.18365 0.62903 0.0
O79 O 0.63416 0.20036 0.65008 0.0
O80 O 0.61385 0.21799 0.68554 0.0
C81 C 0.6142 0.13725 0.6777 0.0
O82 O 0.60029 0.169 0.60156 0.0
O83 O 0.63078 0.1647 0.62541 0.0
C84 C 0.56997 0.20283 0.62714 0.0
O85 O 0.6016 0.14085 0.65242 0.0
O86 O 0.62459 0.15141 0.69153 0.0
C87 C 0.61784 0.18747 0.74135 0.0
Fe88 Fe 0.18033 0.62889 0.6743 0.0
Fe89 Fe 0.16648 0.58676 0.64832 0.0
O90 O 0.18406 0.60223 0.67209 0.0
Fe91 Fe 0.20559 0.59103 0.69388 0.0
O92 O 0.19662 0.5998 0.73766 0.0
O93 O 0.19107 0.6313 0.71994 0.0
O94 O 0.15557 0.6262 0.69555 0.0
C95 C 0.14092 0.61587 0.68308 0.0
C96 C 0.22167 0.62764 0.66543 0.0
O97 O 0.14388 0.60216 0.65955 0.0
C98 C 0.2053 0.57081 0.62941 0.0
O99 O 0.16877 0.63121 0.62933 0.0
O100 O 0.1707 0.60041 0.60647 0.0
O101 O 0.2224 0.61333 0.68835 0.0
O102 O 0.20474 0.63349 0.65291 0.0
C103 C 0.17422 0.562 0.70577 0.0
O104 O 0.18608 0.56882 0.63266 0.0
O105 O 0.21553 0.58157 0.65122 0.0
C106 C 0.16889 0.61936 0.60236 0.0
O107 O 0.16094 0.57189 0.68844 0.0
O108 O 0.19297 0.5666 0.70335 0.0
C109 C 0.19235 0.61811 0.74485 0.0
Fe110 Fe 0.58722 0.83463 0.34837 0.0
Fe111 Fe 0.62963 0.8201 0.32394 0.0
O112 O 0.60272 0.8171 0.32455 0.0
Fe113 Fe 0.59131 0.79641 0.30121 0.0
O114 O 0.56739 0.80991 0.29054 0.0
O115 O 0.57326 0.84133 0.3078 0.0
O116 O 0.60364 0.85681 0.33941 0.0
C117 C 0.61752 0.85972 0.31604 0.0
C118 C 0.56907 0.7963 0.36333 0.0
O119 O 0.62771 0.84504 0.30346 0.0
C120 C 0.62704 0.77889 0.33107 0.0
O121 O 0.60004 0.8292 0.39074 0.0
O122 O 0.63135 0.83101 0.36945 0.0
O123 O 0.58077 0.78626 0.34289 0.0
O124 O 0.56804 0.81555 0.36135 0.0
C125 C 0.61987 0.80904 0.25238 0.0
O126 O 0.63341 0.79535 0.34452 0.0
O127 O 0.613 0.77899 0.30746 0.0
C128 C 0.61905 0.83072 0.39585 0.0
O129 O 0.63267 0.80992 0.27807 0.0
O130 O 0.6012 0.8055 0.2584 0.0
C131 C 0.56323 0.82874 0.28917 0.0
Fe132 Fe 0.82006 0.37064 0.67313 0.0
Fe133 Fe 0.83378 0.411 0.64025 0.0
O134 O 0.8164 0.3971 0.66709 0.0
Fe135 Fe 0.79539 0.40953 0.68794 0.0
O136 O 0.80437 0.40217 0.73239 0.0
O137 O 0.80904 0.36995 0.71881 0.0
O138 O 0.84478 0.37464 0.69423 0.0
C139 C 0.85937 0.38389 0.67912 0.0
C140 C 0.7788 0.37218 0.66326 0.0
O141 O 0.85615 0.39538 0.65216 0.0
C142 C 0.79529 0.42755 0.62145 0.0
O143 O 0.8317 0.36629 0.6285 0.0
O144 O 0.82803 0.39563 0.60099 0.0
O145 O 0.77812 0.38735 0.68454 0.0
O146 O 0.7957 0.36529 0.6523 0.0
C147 C 0.82795 0.43786 0.69557 0.0
O148 O 0.81458 0.42897 0.6235 0.0
O149 O 0.78519 0.41781 0.64475 0.0
C150 C 0.83015 0.37659 0.59971 0.0
O151 O 0.84052 0.42728 0.67783 0.0
O152 O 0.80896 0.43383 0.6948 0.0
C153 C 0.80753 0.38404 0.74202 0.0
Fe154 Fe 0.40746 0.19723 0.30434 0.0
Fe155 Fe 0.40984 0.16225 0.35943 0.0
O156 O 0.39556 0.17711 0.32851 0.0
Fe157 Fe 0.36933 0.17174 0.32199 0.0
O158 O 0.37348 0.16658 0.2748 0.0
O159 O 0.39188 0.19383 0.26299 0.0
O160 O 0.42602 0.18002 0.28415 0.0
C161 C 0.43775 0.16854 0.30202 0.0
C162 C 0.37062 0.21478 0.32076 0.0
O163 O 0.43404 0.16454 0.33484 0.0
C164 C 0.37166 0.16661 0.39471 0.0
O165 O 0.42508 0.20404 0.34142 0.0
O166 O 0.41538 0.18447 0.38664 0.0
O167 O 0.36198 0.19813 0.31289 0.0
O168 O 0.38984 0.21593 0.32293 0.0
C169 C 0.3874 0.13278 0.32604 0.0
O170 O 0.38828 0.15712 0.38982 0.0
O171 O 0.36354 0.17651 0.36929 0.0
C172 C 0.42427 0.20024 0.37507 0.0
O173 O 0.40507 0.13915 0.33386 0.0
O174 O 0.37192 0.14423 0.32926 0.0
C175 C 0.38142 0.17865 0.2524 0.0
Fe176 Fe 0.67898 0.87042 0.823 0.0
Fe177 Fe 0.66599 0.9113 0.85497 0.0
O178 O 0.68266 0.89699 0.82732 0.0
Fe179 Fe 0.70302 0.90912 0.80393 0.0
O180 O 0.69272 0.90102 0.76067 0.0
O181 O 0.68854 0.86909 0.77646 0.0
O182 O 0.65364 0.87386 0.80418 0.0
C183 C 0.6394 0.88327 0.82 0.0
C184 C 0.72051 0.87209 0.82852 0.0
O185 O 0.64328 0.89555 0.8456 0.0
C186 C 0.70496 0.92814 0.8696 0.0
O187 O 0.66867 0.86675 0.86873 0.0
O188 O 0.67278 0.89654 0.89449 0.0
O189 O 0.72047 0.88704 0.80674 0.0
O190 O 0.704 0.86549 0.84169 0.0
C191 C 0.67031 0.93744 0.79817 0.0
O192 O 0.68564 0.92946 0.86929 0.0
O193 O 0.71445 0.91814 0.84577 0.0
C194 C 0.67071 0.87755 0.89682 0.0
O195 O 0.65824 0.92709 0.81737 0.0
O196 O 0.68925 0.93328 0.79714 0.0
C197 C 0.689 0.88277 0.75239 0.0
Fe198 Fe 0.91258 0.33729 0.13912 0.0
Fe199 Fe 0.87048 0.32716 0.1694 0.0
O200 O 0.89693 0.32175 0.16664 0.0
Fe201 Fe 0.90775 0.301 0.19095 0.0
O202 O 0.9257 0.31754 0.21463 0.0
O203 O 0.93567 0.33404 0.16624 0.0
O204 O 0.90685 0.3597 0.16612 0.0
C205 C 0.88887 0.36623 0.17087 0.0
C206 C 0.92689 0.2994 0.12211 0.0
O207 O 0.87359 0.35484 0.1648 0.0
C208 C 0.87159 0.28414 0.16772 0.0
O209 O 0.89254 0.34359 0.10636 0.0
O210 O 0.867 0.32368 0.12103 0.0
O211 O 0.92661 0.29478 0.15549 0.0
O212 O 0.91897 0.31576 0.1109 0.0
C213 C 0.87929 0.31844 0.24014 0.0
O214 O 0.86259 0.30069 0.17484 0.0
O215 O 0.8908 0.28271 0.16935 0.0
C216 C 0.8763 0.3343 0.09795 0.0
O217 O 0.87221 0.33095 0.21752 0.0
O218 O 0.89062 0.30376 0.23026 0.0
C219 C 0.93816 0.32928 0.19903 0.0
Fe220 Fe 0.33313 0.08958 0.84752 0.0
Fe221 Fe 0.29443 0.09085 0.80068 0.0
O222 O 0.31512 0.10357 0.82206 0.0
Fe223 Fe 0.31773 0.13033 0.81792 0.0
O224 O 0.34259 0.12791 0.79668 0.0
O225 O 0.35491 0.10593 0.83596 0.0
O226 O 0.34002 0.07424 0.80879 0.0
C227 C 0.32764 0.06355 0.7909 0.0
C228 C 0.32894 0.123 0.89072 0.0
O229 O 0.30858 0.06707 0.79228 0.0
C230 C 0.27651 0.12718 0.82727 0.0
O231 O 0.31455 0.07081 0.86364 0.0
O232 O 0.2847 0.08151 0.84355 0.0
O233 O 0.3293 0.13413 0.86279 0.0
O234 O 0.32746 0.10395 0.88799 0.0
C235 C 0.30541 0.11783 0.74809 0.0
O236 O 0.27648 0.11231 0.80536 0.0
O237 O 0.29312 0.13438 0.83901 0.0
C238 C 0.29525 0.07173 0.86622 0.0
O239 O 0.30296 0.09939 0.75659 0.0
O240 O 0.30669 0.13149 0.7722 0.0
C241 C 0.3575 0.11839 0.81024 0.0
Fe242 Fe 0.09181 0.70226 0.19404 0.0
Fe243 Fe 0.08892 0.66462 0.14534 0.0
O244 O 0.10376 0.68173 0.17124 0.0
Fe245 Fe 0.13059 0.67843 0.17449 0.0
O246 O 0.13237 0.6884 0.22083 0.0
O247 O 0.10037 0.69263 0.23739 0.0
O248 O 0.06759 0.68877 0.20217 0.0
C249 C 0.06337 0.66995 0.20263 0.0
C250 C 0.12848 0.71969 0.16783 0.0
O251 O 0.07371 0.6575 0.18421 0.0
C252 C 0.12218 0.6687 0.10138 0.0
O253 O 0.08247 0.71292 0.15178 0.0
O254 O 0.0702 0.68388 0.13131 0.0
O255 O 0.13521 0.70326 0.15477 0.0
O256 O 0.11379 0.71955 0.19017 0.0
C257 C 0.11775 0.63898 0.1802 0.0
O258 O 0.10308 0.67064 0.1046 0.0
O259 O 0.1336 0.66766 0.12896 0.0
C260 C 0.07129 0.70313 0.13006 0.0
O261 O 0.10494 0.64225 0.15509 0.0
O262 O 0.12767 0.65341 0.1943 0.0
C263 C 0.11881 0.6891 0.24529 0.0
Fe264 Fe 0.66586 0.08567 0.14602 0.0
Fe265 Fe 0.70504 0.0911 0.19065 0.0
O266 O 0.68324 0.10166 0.1691 0.0
Fe267 Fe 0.6788 0.12818 0.1709 0.0
O268 O 0.65446 0.12468 0.19321 0.0
O269 O 0.64302 0.10107 0.15632 0.0
O270 O 0.6605 0.07135 0.18685 0.0
C271 C 0.674 0.06177 0.20429 0.0
C272 C 0.6675 0.11777 0.0993 0.0
O273 O 0.69272 0.06662 0.20149 0.0
C274 C 0.72008 0.12805 0.16105 0.0
O275 O 0.68553 0.06742 0.13168 0.0
O276 O 0.71481 0.08127 0.14798 0.0
O277 O 0.66668 0.12971 0.12615 0.0
O278 O 0.6702 0.09892 0.10369 0.0
C279 C 0.69168 0.11841 0.24129 0.0
O280 O 0.72137 0.11364 0.18377 0.0
O281 O 0.70291 0.13342 0.14877 0.0
C282 C 0.70477 0.06908 0.12841 0.0
O283 O 0.69632 0.10016 0.23441 0.0
O284 O 0.68993 0.13134 0.21609 0.0
C285 C 0.63989 0.11425 0.18076 0.0
Fe286 Fe 0.12893 0.32111 0.82556 0.0
Fe287 Fe 0.08995 0.29821 0.8041 0.0
O288 O 0.10203 0.31839 0.82772 0.0
Fe289 Fe 0.08721 0.33571 0.85329 0.0
O290 O 0.10373 0.35782 0.84437 0.0
O291 O 0.12686 0.3463 0.80626 0.0
O292 O 0.13101 0.31147 0.77902 0.0
C293 C 0.11771 0.31117 0.75406 0.0
C294 C 0.11989 0.33068 0.89859 0.0
O295 O 0.09913 0.30792 0.76123 0.0
C296 C 0.06884 0.29737 0.86742 0.0
O297 O 0.13278 0.29611 0.8449 0.0
O298 O 0.11156 0.28044 0.80833 0.0
O299 O 0.10078 0.32944 0.89456 0.0
O300 O 0.13167 0.33138 0.87145 0.0
C301 C 0.06211 0.33104 0.79514 0.0
O302 O 0.08004 0.28752 0.84584 0.0
O303 O 0.06804 0.31665 0.86647 0.0
C304 C 0.12596 0.27989 0.83124 0.0
O305 O 0.06602 0.31215 0.79543 0.0
O306 O 0.07256 0.34321 0.81394 0.0
C307 C 0.11709 0.36089 0.82013 0.0
Fe308 Fe 0.29757 0.90939 0.19024 0.0
Fe309 Fe 0.31959 0.8696 0.17077 0.0
O310 O 0.31747 0.89638 0.16737 0.0
Fe311 Fe 0.33539 0.91016 0.14129 0.0
O312 O 0.34369 0.92448 0.18032 0.0
O313 O 0.31281 0.93252 0.19911 0.0
O314 O 0.30655 0.90018 0.2335 0.0
C315 C 0.30909 0.88172 0.24151 0.0
C316 C 0.29791 0.93043 0.12697 0.0
O317 O 0.30957 0.86817 0.21716 0.0
C318 C 0.32918 0.87756 0.09733 0.0
O319 O 0.27886 0.88852 0.18569 0.0
O320 O 0.29452 0.86613 0.15126 0.0
O321 O 0.31727 0.93013 0.12804 0.0
O322 O 0.28746 0.91961 0.14819 0.0
C323 C 0.3598 0.88031 0.1755 0.0
O324 O 0.32991 0.86614 0.12493 0.0
O325 O 0.32822 0.89664 0.10062 0.0
C326 C 0.27827 0.8736 0.16388 0.0
O327 O 0.34493 0.87148 0.19053 0.0
O328 O 0.35684 0.89277 0.14991 0.0
C329 C 0.33204 0.93529 0.19951 0.0
Fe330 Fe 0.9093 0.7012 0.80186 0.0
Fe331 Fe 0.91315 0.66347 0.85088 0.0
O332 O 0.89786 0.68041 0.82523 0.0
Fe333 Fe 0.87108 0.67637 0.82351 0.0
O334 O 0.87169 0.67355 0.77506 0.0
O335 O 0.89172 0.69978 0.76297 0.0
O336 O 0.92625 0.68459 0.77652 0.0
C337 C 0.93825 0.67179 0.79039 0.0
C338 C 0.87423 0.71924 0.82729 0.0
O339 O 0.93595 0.66592 0.82264 0.0
C340 C 0.87788 0.66774 0.89431 0.0
O341 O 0.9288 0.70591 0.83697 0.0
O342 O 0.92128 0.68396 0.88014 0.0
O343 O 0.86437 0.70323 0.82006 0.0
O344 O 0.89344 0.71981 0.825 0.0
C345 C 0.88741 0.6365 0.81859 0.0
O346 O 0.89337 0.65764 0.88445 0.0
O347 O 0.86866 0.67908 0.87221 0.0
C348 C 0.92961 0.7003 0.86982 0.0
O349 O 0.90574 0.64203 0.82283 0.0
O350 O 0.87283 0.64847 0.82627 0.0
C351 C 0.87936 0.68597 0.7529 0.0
C352 C 0.14494 0.46007 0.26883 0.0
C353 C 0.16568 0.45606 0.27616 0.0
C354 C 0.13885 0.47927 0.25631 0.0
C355 C 0.15318 0.53222 0.26319 0.0
H356 H 0.12128 0.54159 0.17634 0.0
C357 C 0.14095 0.61311 0.20823 0.0
C358 C 0.12239 0.6178 0.19099 0.0
C359 C 0.14549 0.59307 0.21799 0.0
C360 C 0.12988 0.53926 0.20103 0.0
H361 H 0.19631 0.4689 0.27524 0.0
H362 H 0.18556 0.50237 0.2542 0.0
H363 H 0.13012 0.50679 0.19391 0.0
H364 H 0.09386 0.60525 0.17104 0.0
H365 H 0.10139 0.57039 0.18935 0.0
H366 H 0.15255 0.56437 0.27134 0.0
C367 C 0.17409 0.49065 0.25795 0.0
C368 C 0.13501 0.51933 0.21091 0.0
C369 C 0.18022 0.47143 0.26979 0.0
C370 C 0.10837 0.60206 0.18403 0.0
C371 C 0.11277 0.58204 0.19434 0.0
C372 C 0.14777 0.55207 0.25375 0.0
C373 C 0.15335 0.49483 0.25161 0.0
C374 C 0.14695 0.5157 0.24178 0.0
C375 C 0.13143 0.57726 0.21139 0.0
C376 C 0.1363 0.55593 0.22224 0.0
H377 H 0.1334 0.44852 0.2734 0.0
H378 H 0.12275 0.48219 0.2516 0.0
H379 H 0.16216 0.52974 0.28746 0.0
H380 H 0.15215 0.62487 0.21368 0.0
H381 H 0.16021 0.59 0.23027 0.0
C382 C 0.46779 0.85249 0.70798 0.0
C383 C 0.45665 0.83577 0.72127 0.0
C384 C 0.48624 0.85821 0.72395 0.0
C385 C 0.52908 0.83704 0.77469 0.0
H386 H 0.54464 0.89375 0.78519 0.0
C387 C 0.61317 0.86282 0.78624 0.0
C388 C 0.61784 0.87821 0.81138 0.0
C389 C 0.59284 0.85763 0.77895 0.0
C390 C 0.54048 0.87784 0.78278 0.0
H391 H 0.45585 0.81235 0.76259 0.0
H392 H 0.48837 0.82234 0.7905 0.0
H393 H 0.50964 0.88509 0.76804 0.0
H394 H 0.60472 0.90035 0.84834 0.0
H395 H 0.56926 0.8913 0.8355 0.0
H396 H 0.56 0.8298 0.78904 0.0
C397 C 0.48274 0.83091 0.76753 0.0
C398 C 0.52048 0.87289 0.77271 0.0
C399 C 0.46409 0.82528 0.7517 0.0
C400 C 0.60169 0.88842 0.82881 0.0
C401 C 0.58136 0.88329 0.82139 0.0
C402 C 0.54913 0.842 0.78458 0.0
C403 C 0.49411 0.8473 0.75351 0.0
C404 C 0.51465 0.85245 0.76802 0.0
C405 C 0.57671 0.86779 0.79649 0.0
C406 C 0.55512 0.86246 0.78822 0.0
H407 H 0.46242 0.86099 0.68472 0.0
H408 H 0.49471 0.87076 0.71226 0.0
H409 H 0.5251 0.82117 0.771 0.0
H410 H 0.62521 0.85467 0.77223 0.0
H411 H 0.58975 0.84584 0.75919 0.0
C412 C 0.86527 0.39579 0.179 0.0
C413 C 0.88529 0.38794 0.17966 0.0
C414 C 0.86156 0.41618 0.18706 0.0
C415 C 0.88235 0.4597 0.23645 0.0
H416 H 0.84232 0.4899 0.18048 0.0
C417 C 0.86015 0.54225 0.27293 0.0
C418 C 0.83903 0.54641 0.27317 0.0
C419 C 0.86761 0.5243 0.25745 0.0
C420 C 0.85346 0.48165 0.19648 0.0
H421 H 0.91714 0.39544 0.18953 0.0
H422 H 0.91057 0.43127 0.20391 0.0
H423 H 0.85229 0.45578 0.16132 0.0
H424 H 0.80928 0.53527 0.25612 0.0
H425 H 0.82226 0.50393 0.22957 0.0
H426 H 0.88309 0.48531 0.27221 0.0
C427 C 0.89779 0.42149 0.19706 0.0
C428 C 0.85919 0.46213 0.18548 0.0
C429 C 0.90155 0.40102 0.18872 0.0
C430 C 0.82563 0.53256 0.25644 0.0
C431 C 0.8331 0.51462 0.24101 0.0
C432 C 0.87657 0.47923 0.24753 0.0
C433 C 0.87774 0.42927 0.19618 0.0
C434 C 0.87339 0.45078 0.20574 0.0
C435 C 0.85414 0.51013 0.24182 0.0
C436 C 0.86176 0.49027 0.22805 0.0
H437 H 0.85235 0.38617 0.17223 0.0
H438 H 0.84591 0.42162 0.18677 0.0
H439 H 0.89318 0.45125 0.25279 0.0
H440 H 0.87093 0.55266 0.28531 0.0
H441 H 0.88393 0.52145 0.25802 0.0
C442 C 0.38324 0.14208 0.78292 0.0
C443 C 0.37854 0.12316 0.79857 0.0
C444 C 0.40344 0.14685 0.77385 0.0
C445 C 0.45237 0.12473 0.74909 0.0
H446 H 0.47601 0.17453 0.78693 0.0
C447 C 0.5372 0.14444 0.72467 0.0
C448 C 0.54179 0.16491 0.71734 0.0
C449 C 0.51783 0.13894 0.73741 0.0
C450 C 0.46961 0.1607 0.7757 0.0
H451 H 0.39107 0.09415 0.81583 0.0
H452 H 0.42629 0.10236 0.79905 0.0
H453 H 0.44062 0.16595 0.80116 0.0
H454 H 0.52977 0.19572 0.71808 0.0
H455 H 0.49598 0.18614 0.73896 0.0
H456 H 0.48093 0.11973 0.72245 0.0
C457 C 0.41439 0.11353 0.79431 0.0
C458 C 0.44936 0.15579 0.78399 0.0
C459 C 0.39429 0.1089 0.80403 0.0
C460 C 0.5268 0.17982 0.7238 0.0
C461 C 0.50738 0.1743 0.73597 0.0
C462 C 0.47252 0.1298 0.74026 0.0
C463 C 0.41916 0.13263 0.77957 0.0
C464 C 0.44058 0.1378 0.77069 0.0
C465 C 0.50254 0.15377 0.74258 0.0
C466 C 0.4814 0.14789 0.75336 0.0
H467 H 0.37141 0.15336 0.77848 0.0
H468 H 0.40678 0.16163 0.76225 0.0
H469 H 0.44584 0.11081 0.73836 0.0
H470 H 0.5485 0.13264 0.72017 0.0
H471 H 0.51481 0.12303 0.74293 0.0
C472 C 0.14762 0.53861 0.7316 0.0
C473 C 0.16825 0.54273 0.72357 0.0
C474 C 0.14184 0.51955 0.74506 0.0
C475 C 0.15672 0.4667 0.73994 0.0
H476 H 0.12333 0.4582 0.82527 0.0
C477 C 0.14163 0.38619 0.79433 0.0
C478 C 0.12256 0.38197 0.81011 0.0
C479 C 0.14696 0.40611 0.78517 0.0
C480 C 0.13238 0.46029 0.80102 0.0
H481 H 0.19903 0.53031 0.72442 0.0
H482 H 0.18881 0.49697 0.74719 0.0
H483 H 0.13287 0.49278 0.80756 0.0
H484 H 0.09397 0.39525 0.82817 0.0
H485 H 0.10289 0.42994 0.81082 0.0
H486 H 0.15577 0.43452 0.73226 0.0
C487 C 0.17719 0.50853 0.74318 0.0
C488 C 0.13792 0.48009 0.79109 0.0
C489 C 0.18302 0.52764 0.73034 0.0
C490 C 0.10885 0.39808 0.8163 0.0
C491 C 0.11404 0.41799 0.80655 0.0
C492 C 0.15092 0.44698 0.74944 0.0
C493 C 0.15654 0.50422 0.75013 0.0
C494 C 0.15031 0.48341 0.76067 0.0
C495 C 0.1332 0.42228 0.79089 0.0
C496 C 0.13884 0.44345 0.78033 0.0
H497 H 0.1359 0.54997 0.72681 0.0
H498 H 0.1258 0.51654 0.75018 0.0
H499 H 0.16602 0.46893 0.71599 0.0
H500 H 0.15262 0.37413 0.78955 0.0
H501 H 0.16203 0.4088 0.77397 0.0
C502 C 0.53606 0.85494 0.27821 0.0
C503 C 0.5441 0.83545 0.27134 0.0
C504 C 0.51669 0.86031 0.26545 0.0
C505 C 0.47678 0.84743 0.19927 0.0
H506 H 0.43983 0.87057 0.27046 0.0
C507 C 0.39743 0.88051 0.16319 0.0
C508 C 0.381 0.87484 0.18559 0.0
C509 C 0.4175 0.87554 0.17261 0.0
C510 C 0.44996 0.86404 0.25036 0.0
H511 H 0.53855 0.80675 0.24392 0.0
H512 H 0.50478 0.81627 0.22128 0.0
H513 H 0.47512 0.86281 0.2874 0.0
H514 H 0.37277 0.8596 0.23557 0.0
H515 H 0.40798 0.85109 0.25222 0.0
H516 H 0.45155 0.84864 0.16226 0.0
C517 C 0.51346 0.82731 0.23675 0.0
C518 C 0.47019 0.85981 0.25992 0.0
C519 C 0.53277 0.82185 0.24982 0.0
C520 C 0.38509 0.86412 0.2177 0.0
C521 C 0.40523 0.85935 0.22732 0.0
C522 C 0.45659 0.85188 0.18959 0.0
C523 C 0.50504 0.8464 0.2452 0.0
C524 C 0.48378 0.85142 0.2345 0.0
C525 C 0.42161 0.865 0.20483 0.0
C526 C 0.44297 0.86016 0.21509 0.0
H527 H 0.54439 0.86583 0.2946 0.0
H528 H 0.51066 0.87524 0.2719 0.0
H529 H 0.48696 0.84102 0.17914 0.0
H530 H 0.39481 0.88876 0.13824 0.0
H531 H 0.42985 0.88025 0.15496 0.0
C532 C 0.89837 0.60148 0.79908 0.0
C533 C 0.88271 0.61521 0.80836 0.0
C534 C 0.89369 0.58137 0.78964 0.0
C535 C 0.85319 0.54243 0.79839 0.0
H536 H 0.87846 0.51843 0.71362 0.0
C537 C 0.82129 0.47062 0.72843 0.0
C538 C 0.83525 0.45665 0.7136 0.0
C539 C 0.82814 0.48903 0.74304 0.0
C540 C 0.8715 0.52477 0.73772 0.0
H541 H 0.84984 0.61855 0.81482 0.0
H542 H 0.84177 0.58366 0.79824 0.0
H543 H 0.88873 0.55238 0.73321 0.0
H544 H 0.86748 0.4507 0.70392 0.0
H545 H 0.8794 0.48268 0.72979 0.0
H546 H 0.83581 0.51493 0.80273 0.0
C547 C 0.85766 0.58833 0.7987 0.0
C548 C 0.87738 0.54423 0.7489 0.0
C549 C 0.86231 0.60839 0.80795 0.0
C550 C 0.85627 0.46121 0.71478 0.0
C551 C 0.86312 0.47959 0.72945 0.0
C552 C 0.84734 0.52296 0.78727 0.0
C553 C 0.87328 0.57459 0.78948 0.0
C554 C 0.86809 0.55338 0.77907 0.0
C555 C 0.84912 0.49385 0.74327 0.0
C556 C 0.85624 0.51399 0.75653 0.0
H557 H 0.91424 0.60625 0.79908 0.0
H558 H 0.90605 0.57108 0.78283 0.0
H559 H 0.846 0.54896 0.82211 0.0
H560 H 0.805 0.4676 0.72797 0.0
H561 H 0.81693 0.49976 0.75311 0.0
C562 C 0.6019 0.1088 0.17701 0.0
C563 C 0.61873 0.11898 0.19239 0.0
C564 C 0.58193 0.11368 0.18754 0.0
C565 C 0.55287 0.1376 0.26193 0.0
H566 H 0.50939 0.14146 0.19077 0.0
C567 C 0.46926 0.14712 0.30512 0.0
C568 C 0.45732 0.16142 0.28625 0.0
C569 C 0.48836 0.14121 0.29206 0.0
C570 C 0.5214 0.14056 0.21091 0.0
H571 H 0.6277 0.14223 0.23108 0.0
H572 H 0.59299 0.15082 0.24907 0.0
H573 H 0.54411 0.13294 0.17134 0.0
H574 H 0.45585 0.18021 0.23806 0.0
H575 H 0.4895 0.17004 0.21538 0.0
H576 H 0.53041 0.14565 0.30139 0.0
C577 C 0.5952 0.13891 0.22916 0.0
C578 C 0.54123 0.13546 0.19985 0.0
C579 C 0.61513 0.13405 0.21867 0.0
C580 C 0.46468 0.16919 0.25329 0.0
C581 C 0.48392 0.1633 0.24022 0.0
C582 C 0.53311 0.14269 0.27295 0.0
C583 C 0.57836 0.1288 0.21373 0.0
C584 C 0.5572 0.13396 0.22527 0.0
C585 C 0.49611 0.14949 0.25982 0.0
C586 C 0.51711 0.14418 0.24763 0.0
H587 H 0.60412 0.09708 0.15676 0.0
H588 H 0.56931 0.10543 0.17548 0.0
H589 H 0.56475 0.13637 0.28227 0.0
H590 H 0.46395 0.14059 0.33034 0.0
H591 H 0.49714 0.1302 0.30739 0.0
C592 C 0.64285 0.96347 0.78837 0.0
C593 C 0.66268 0.95629 0.78084 0.0
C594 C 0.63626 0.98218 0.7748 0.0
C595 C 0.646 0.02107 0.70548 0.0
H596 H 0.62221 0.05812 0.77564 0.0
C597 C 0.61181 0.09961 0.66724 0.0
C598 C 0.61831 0.11602 0.6888 0.0
C599 C 0.6163 0.07959 0.67731 0.0
C600 C 0.62883 0.04793 0.75578 0.0
H601 H 0.69077 0.96273 0.75172 0.0
H602 H 0.67913 0.99541 0.72781 0.0
H603 H 0.63168 0.02369 0.79412 0.0
H604 H 0.63425 0.12431 0.7382 0.0
H605 H 0.64187 0.08934 0.75591 0.0
H606 H 0.64331 0.04546 0.66723 0.0
C607 C 0.66876 0.98653 0.74433 0.0
C608 C 0.63408 0.02819 0.76625 0.0
C609 C 0.67545 0.96787 0.75818 0.0
C610 C 0.6291 0.11199 0.72092 0.0
C611 C 0.63337 0.09199 0.73119 0.0
C612 C 0.64052 0.04077 0.69489 0.0
C613 C 0.64926 0.99403 0.75312 0.0
C614 C 0.64286 0.01462 0.74129 0.0
C615 C 0.62712 0.0756 0.70938 0.0
C616 C 0.63207 0.05444 0.72006 0.0
H617 H 0.63256 0.95491 0.80558 0.0
H618 H 0.62105 0.98751 0.78161 0.0
H619 H 0.65265 0.01087 0.68568 0.0
H620 H 0.60349 0.10222 0.64231 0.0
H621 H 0.61118 0.0672 0.66018 0.0
C622 C 0.11609 0.36139 0.28119 0.0
C623 C 0.11962 0.37636 0.30767 0.0
C624 C 0.09615 0.35571 0.27201 0.0
C625 C 0.04256 0.35675 0.3043 0.0
H626 H 0.03 0.35034 0.20241 0.0
C627 C 0.96482 0.3259 0.24811 0.0
C628 C 0.95735 0.33574 0.217 0.0
C629 C 0.98419 0.33086 0.26196 0.0
C630 C 0.03322 0.35216 0.23099 0.0
H631 H 0.10487 0.39704 0.34535 0.0
H632 H 0.07007 0.38724 0.329 0.0
H633 H 0.06468 0.35885 0.22079 0.0
H634 H 0.9637 0.35945 0.17763 0.0
H635 H 0.99707 0.36812 0.20185 0.0
H636 H 0.01083 0.35039 0.31424 0.0
C637 C 0.08277 0.37973 0.31569 0.0
C638 C 0.05317 0.35682 0.24154 0.0
C639 C 0.10272 0.38546 0.32484 0.0
C640 C 0.96913 0.35129 0.20124 0.0
C641 C 0.98833 0.35623 0.21502 0.0
C642 C 0.02254 0.352 0.2937 0.0
C643 C 0.07926 0.36484 0.28908 0.0
C644 C 0.05807 0.3593 0.27828 0.0
C645 C 0.99633 0.34574 0.24492 0.0
C646 C 0.01763 0.34988 0.25687 0.0
H647 H 0.12873 0.35401 0.26747 0.0
H648 H 0.09397 0.34403 0.25167 0.0
H649 H 0.04592 0.35837 0.33286 0.0
H650 H 0.95608 0.31389 0.2609 0.0
H651 H 0.98997 0.32253 0.28509 0.0
C652 C 0.3988 0.8995 0.69175 0.0
C653 C 0.383 0.88572 0.68351 0.0
C654 C 0.3943 0.9198 0.70016 0.0
C655 C 0.35397 0.95878 0.68971 0.0
H656 H 0.37943 0.98409 0.77312 0.0
C657 C 0.3215 0.0308 0.75774 0.0
C658 C 0.33526 0.04503 0.77242 0.0
C659 C 0.32863 0.01248 0.74323 0.0
C660 C 0.37243 0.97739 0.74936 0.0
H661 H 0.35006 0.88248 0.67792 0.0
H662 H 0.34232 0.91768 0.69268 0.0
H663 H 0.38974 0.94988 0.75504 0.0
H664 H 0.3674 0.05157 0.78176 0.0
H665 H 0.3798 0.01972 0.75603 0.0
H666 H 0.33649 0.98616 0.68424 0.0
C667 C 0.35818 0.91291 0.69218 0.0
C668 C 0.37833 0.95778 0.73905 0.0
C669 C 0.36264 0.89266 0.68399 0.0
C670 C 0.35636 0.04086 0.77101 0.0
C671 C 0.36348 0.02255 0.75643 0.0
C672 C 0.34811 0.9784 0.69994 0.0
C673 C 0.37394 0.92672 0.70028 0.0
C674 C 0.36892 0.94814 0.70947 0.0
C675 C 0.34967 0.008 0.74294 0.0
C676 C 0.35704 0.98782 0.73023 0.0
H677 H 0.41464 0.89464 0.69167 0.0
H678 H 0.40677 0.93013 0.70615 0.0
H679 H 0.34669 0.95187 0.66639 0.0
H680 H 0.30516 0.03352 0.75838 0.0
H681 H 0.31755 0.00152 0.73341 0.0
C682 C 0.03284 0.67638 0.24186 0.0
C683 C 0.04406 0.66311 0.21957 0.0
C684 C 0.01353 0.6708 0.25465 0.0
C685 C 0.96999 0.63891 0.23038 0.0
H686 H 0.95212 0.64857 0.32897 0.0
C687 C 0.88516 0.63503 0.27425 0.0
C688 C 0.88114 0.624 0.30604 0.0
C689 C 0.90529 0.63954 0.2643 0.0
C690 C 0.95695 0.64573 0.30138 0.0
H691 H 0.04413 0.63322 0.19439 0.0
H692 H 0.01035 0.62358 0.21661 0.0
H693 H 0.98746 0.65617 0.31181 0.0
H694 H 0.89509 0.60915 0.3524 0.0
H695 H 0.93013 0.61719 0.33511 0.0
H696 H 0.93947 0.62857 0.21989 0.0
C697 C 0.01648 0.63835 0.22392 0.0
C698 C 0.97709 0.65018 0.29154 0.0
C699 C 0.03588 0.64383 0.21143 0.0
C700 C 0.89765 0.61767 0.32773 0.0
C701 C 0.91772 0.62237 0.31798 0.0
C702 C 0.9498 0.63467 0.24012 0.0
C703 C 0.00499 0.65191 0.24514 0.0
C704 C 0.98381 0.64677 0.25596 0.0
C705 C 0.92175 0.63329 0.28614 0.0
C706 C 0.94309 0.63801 0.27572 0.0
H707 H 0.03874 0.6913 0.24874 0.0
H708 H 0.00495 0.68158 0.27085 0.0
H709 H 0.97471 0.63635 0.20265 0.0
H710 H 0.87278 0.64005 0.25691 0.0
H711 H 0.90799 0.6481 0.23972 0.0
C712 C 0.68335 0.02732 0.22792 0.0
C713 C 0.6684 0.04236 0.22204 0.0
C714 C 0.6778 0.00803 0.24041 0.0
C715 C 0.6387 0.97896 0.2883 0.0
H716 H 0.65717 0.93374 0.22922 0.0
C717 C 0.60937 0.89693 0.31164 0.0
C718 C 0.62306 0.88077 0.30572 0.0
C719 C 0.6147 0.91684 0.30212 0.0
C720 C 0.65214 0.9461 0.24647 0.0
H721 H 0.63604 0.04927 0.22639 0.0
H722 H 0.62643 0.01558 0.24912 0.0
H723 H 0.66735 0.96828 0.21364 0.0
H724 H 0.65321 0.87287 0.28561 0.0
H725 H 0.66282 0.90756 0.27037 0.0
H726 H 0.62395 0.95686 0.32179 0.0
C727 C 0.64239 0.01875 0.24365 0.0
C728 C 0.65792 0.96591 0.23738 0.0
C729 C 0.64789 0.03798 0.23056 0.0
C730 C 0.64223 0.88496 0.29024 0.0
C731 C 0.64769 0.90489 0.28128 0.0
C732 C 0.63317 0.95909 0.2978 0.0
C733 C 0.65725 0.00347 0.24787 0.0
C734 C 0.65125 0.98252 0.25816 0.0
C735 C 0.63398 0.92113 0.28695 0.0
C736 C 0.6398 0.94236 0.27696 0.0
H737 H 0.69928 0.03016 0.22153 0.0
H738 H 0.68956 0.99655 0.24377 0.0
H739 H 0.63346 0.99154 0.30486 0.0
H740 H 0.59441 0.89415 0.32325 0.0
H741 H 0.60356 0.92882 0.30629 0.0
C742 C 0.88478 0.36919 0.7228 0.0
C743 C 0.88067 0.37959 0.69035 0.0
C744 C 0.90493 0.36492 0.73297 0.0
C745 C 0.95632 0.35763 0.6956 0.0
H746 H 0.9745 0.36738 0.794 0.0
C747 C 0.03142 0.32528 0.7558 0.0
C748 C 0.04301 0.33834 0.77794 0.0
C749 C 0.01228 0.33136 0.74282 0.0
C750 C 0.96968 0.36472 0.76636 0.0
H751 H 0.89453 0.39372 0.64325 0.0
H752 H 0.92963 0.38609 0.66095 0.0
H753 H 0.93944 0.37591 0.77667 0.0
H754 H 0.04392 0.36835 0.80259 0.0
H755 H 0.01047 0.37885 0.78004 0.0
H756 H 0.98653 0.34629 0.68538 0.0
C757 C 0.91725 0.38122 0.6784 0.0
C758 C 0.94958 0.36941 0.75656 0.0
C759 C 0.89714 0.38568 0.66841 0.0
C760 C 0.03538 0.35788 0.7857 0.0
C761 C 0.01616 0.36387 0.773 0.0
C762 C 0.97637 0.35273 0.7055 0.0
C763 C 0.92135 0.37077 0.71074 0.0
C764 C 0.9427 0.3659 0.72109 0.0
C765 C 0.00428 0.35054 0.75195 0.0
C766 C 0.98324 0.35625 0.74098 0.0
H767 H 0.87243 0.36436 0.74036 0.0
H768 H 0.90766 0.35672 0.75794 0.0
H769 H 0.95137 0.35463 0.66813 0.0
H770 H 0.03689 0.31016 0.74921 0.0
H771 H 0.00341 0.32075 0.72676 0.0
C772 C 0.39739 0.09588 0.3269 0.0
C773 C 0.38429 0.11146 0.31493 0.0
C774 C 0.39377 0.07565 0.31675 0.0
C775 C 0.37275 0.04483 0.24548 0.0
H776 H 0.35967 0.00368 0.3172 0.0
C777 C 0.36001 0.96083 0.20788 0.0
C778 C 0.34065 0.95336 0.21791 0.0
C779 C 0.36737 0.97903 0.22238 0.0
C780 C 0.36343 0.01503 0.29701 0.0
H781 H 0.35756 0.1183 0.2823 0.0
H782 H 0.35171 0.08309 0.26366 0.0
H783 H 0.36935 0.03816 0.33679 0.0
H784 H 0.31435 0.95853 0.25248 0.0
H785 H 0.32752 0.99028 0.27843 0.0
H786 H 0.36684 0.02187 0.20569 0.0
C787 C 0.3645 0.08648 0.28135 0.0
C788 C 0.36905 0.03461 0.30817 0.0
C789 C 0.3678 0.10655 0.29213 0.0
C790 C 0.32926 0.96398 0.24408 0.0
C791 C 0.33681 0.98204 0.25906 0.0
C792 C 0.36756 0.0252 0.23438 0.0
C793 C 0.37735 0.07088 0.29374 0.0
C794 C 0.37342 0.04971 0.28241 0.0
C795 C 0.35572 0.98993 0.24768 0.0
C796 C 0.36257 0.01022 0.26001 0.0
H797 H 0.41018 0.09929 0.34457 0.0
H798 H 0.40388 0.06378 0.32648 0.0
H799 H 0.37604 0.05629 0.22523 0.0
H800 H 0.3692 0.95303 0.18781 0.0
H801 H 0.38204 0.9848 0.21336 0.0
C802 C 0.10396 0.60709 0.69104 0.0
C803 C 0.11976 0.62152 0.69281 0.0
C804 C 0.08381 0.61266 0.69902 0.0
C805 C 0.05308 0.65445 0.74144 0.0
H806 H 0.00813 0.62687 0.69343 0.0
C807 C 0.96789 0.67952 0.74986 0.0
C808 C 0.95691 0.66553 0.77103 0.0
C809 C 0.98718 0.67435 0.73623 0.0
C810 C 0.02061 0.63473 0.70677 0.0
H811 H 0.12691 0.65315 0.70373 0.0
H812 H 0.0918 0.66316 0.7158 0.0
H813 H 0.04334 0.6178 0.67816 0.0
H814 H 0.95675 0.6349 0.79282 0.0
H815 H 0.99015 0.62561 0.76763 0.0
H816 H 0.03007 0.67177 0.76911 0.0
C817 C 0.09487 0.64733 0.70971 0.0
C818 C 0.04079 0.62941 0.69845 0.0
C819 C 0.11506 0.64163 0.7026 0.0
C820 C 0.96497 0.64594 0.77661 0.0
C821 C 0.98397 0.64062 0.7622 0.0
C822 C 0.03293 0.66006 0.74906 0.0
C823 C 0.07891 0.63293 0.70811 0.0
C824 C 0.05735 0.63902 0.716 0.0
C825 C 0.99541 0.65495 0.74273 0.0
C826 C 0.01659 0.65011 0.73206 0.0
H827 H 0.10721 0.59143 0.68381 0.0
H828 H 0.07214 0.60098 0.69831 0.0
H829 H 0.06525 0.66194 0.75619 0.0
H830 H 0.96207 0.69477 0.74548 0.0
H831 H 0.99588 0.68561 0.72133 0.0
C832 C 0.20588 0.55775 0.56669 0.0
C833 C 0.21559 0.55941 0.60039 0.0
C834 C 0.2143 0.54573 0.53951 0.0
C835 C 0.2409 0.4992 0.52694 0.0
H836 H 0.23865 0.51582 0.42632 0.0
C837 C 0.23274 0.44139 0.40875 0.0
C838 C 0.21468 0.44575 0.38962 0.0
C839 C 0.24121 0.45597 0.43217 0.0
C840 C 0.23974 0.51097 0.45428 0.0
H841 H 0.24191 0.55027 0.63213 0.0
H842 H 0.25638 0.52828 0.58447 0.0
H843 H 0.2387 0.54162 0.4739 0.0
H844 H 0.19199 0.46896 0.37813 0.0
H845 H 0.20679 0.49427 0.41813 0.0
H846 H 0.24013 0.46848 0.50729 0.0
C847 C 0.24245 0.53671 0.57912 0.0
C848 C 0.2398 0.52571 0.48144 0.0
C849 C 0.23423 0.54924 0.60622 0.0
C850 C 0.20582 0.46512 0.39284 0.0
C851 C 0.21444 0.47971 0.41544 0.0
C852 C 0.24078 0.4844 0.49967 0.0
C853 C 0.23243 0.53478 0.54562 0.0
C854 C 0.23917 0.51992 0.51798 0.0
C855 C 0.23201 0.47523 0.43582 0.0
C856 C 0.23896 0.49019 0.4632 0.0
H857 H 0.19155 0.56554 0.56153 0.0
H858 H 0.20608 0.54427 0.51416 0.0
H859 H 0.24035 0.49436 0.55494 0.0
H860 H 0.23982 0.42651 0.40665 0.0
H861 H 0.25471 0.45214 0.44776 0.0
C862 C 0.43854 0.79184 0.5594 0.0
C863 C 0.44094 0.78815 0.59657 0.0
C864 C 0.45137 0.78249 0.53434 0.0
C865 C 0.50357 0.76439 0.52779 0.0
H866 H 0.48672 0.75558 0.42838 0.0
C867 C 0.56009 0.76886 0.40758 0.0
C868 C 0.55424 0.78559 0.38629 0.0
C869 C 0.54623 0.76037 0.43227 0.0
C870 C 0.49166 0.75753 0.45616 0.0
H871 H 0.45788 0.77077 0.63652 0.0
H872 H 0.48056 0.75448 0.59242 0.0
H873 H 0.46106 0.75579 0.47638 0.0
H874 H 0.52927 0.80576 0.37205 0.0
H875 H 0.50501 0.79065 0.41419 0.0
H876 H 0.53404 0.7673 0.5071 0.0
C877 C 0.46875 0.76472 0.58283 0.0
C878 C 0.47701 0.75778 0.48358 0.0
C879 C 0.45576 0.77402 0.60803 0.0
C880 C 0.53414 0.79295 0.38842 0.0
C881 C 0.52023 0.78417 0.41223 0.0
C882 C 0.51826 0.76393 0.50035 0.0
C883 C 0.46696 0.76922 0.54577 0.0
C884 C 0.48266 0.76251 0.51933 0.0
C885 C 0.52625 0.76813 0.43495 0.0
C886 C 0.51224 0.76171 0.46411 0.0
H887 H 0.42712 0.80246 0.54964 0.0
H888 H 0.44973 0.7866 0.5061 0.0
H889 H 0.50845 0.76811 0.55501 0.0
H890 H 0.57557 0.76302 0.40632 0.0
H891 H 0.55122 0.74811 0.44978 0.0
C892 C 0.79425 0.44024 0.55848 0.0
C893 C 0.78474 0.43865 0.59235 0.0
C894 C 0.78562 0.45213 0.53135 0.0
C895 C 0.75837 0.4986 0.52019 0.0
H896 H 0.76311 0.48356 0.41905 0.0
C897 C 0.76806 0.55764 0.40397 0.0
C898 C 0.78715 0.55412 0.38759 0.0
C899 C 0.75924 0.54272 0.4262 0.0
C900 C 0.76124 0.48794 0.44713 0.0
H901 H 0.75846 0.44763 0.62431 0.0
H902 H 0.74359 0.46933 0.57673 0.0
H903 H 0.76234 0.45703 0.46528 0.0
H904 H 0.81147 0.53207 0.37997 0.0
H905 H 0.79602 0.50611 0.41784 0.0
H906 H 0.75902 0.52961 0.50207 0.0
C907 C 0.75756 0.461 0.57122 0.0
C908 C 0.76081 0.4728 0.47353 0.0
C909 C 0.76602 0.44863 0.59829 0.0
C910 C 0.79685 0.53527 0.39255 0.0
C911 C 0.78788 0.52031 0.41388 0.0
C912 C 0.75877 0.5138 0.49368 0.0
C913 C 0.76745 0.463 0.53764 0.0
C914 C 0.76069 0.47805 0.51036 0.0
C915 C 0.76914 0.52393 0.43128 0.0
C916 C 0.76151 0.50857 0.45716 0.0
H917 H 0.80862 0.43256 0.55319 0.0
H918 H 0.79378 0.45364 0.50597 0.0
H919 H 0.75832 0.50305 0.54842 0.0
H920 H 0.76032 0.5721 0.40048 0.0
H921 H 0.74486 0.54587 0.43964 0.0
C922 C 0.45205 0.22562 0.38834 0.0
C923 C 0.43669 0.21235 0.40075 0.0
C924 C 0.46576 0.23455 0.41275 0.0
C925 C 0.4761 0.24196 0.51136 0.0
H926 H 0.5322 0.22999 0.48459 0.0
C927 C 0.53439 0.20833 0.60681 0.0
C928 C 0.55503 0.21406 0.60517 0.0
C929 C 0.52015 0.21699 0.58343 0.0
C930 C 0.51672 0.23402 0.49226 0.0
H931 H 0.42264 0.19939 0.44866 0.0
H932 H 0.4465 0.21466 0.49091 0.0
H933 H 0.50556 0.22933 0.43854 0.0
H934 H 0.57705 0.23376 0.57903 0.0
H935 H 0.55201 0.24855 0.53658 0.0
H936 H 0.48714 0.24495 0.56568 0.0
C937 C 0.44802 0.21834 0.46247 0.0
C938 C 0.5014 0.23365 0.46585 0.0
C939 C 0.43442 0.20936 0.43816 0.0
C940 C 0.56115 0.22921 0.5807 0.0
C941 C 0.5469 0.2376 0.55654 0.0
C942 C 0.49138 0.2422 0.53776 0.0
C943 C 0.46424 0.23053 0.45002 0.0
C944 C 0.48078 0.23654 0.47549 0.0
C945 C 0.52632 0.2313 0.5574 0.0
C946 C 0.51165 0.2372 0.52874 0.0
H947 H 0.45412 0.22834 0.35967 0.0
H948 H 0.47798 0.24403 0.40235 0.0
H949 H 0.46042 0.24473 0.51948 0.0
H950 H 0.52935 0.19672 0.62565 0.0
H951 H 0.5045 0.21159 0.58437 0.0
C952 C 0.7328 0.05917 0.08524 0.0
C953 C 0.71554 0.05398 0.10592 0.0
C954 C 0.74148 0.04487 0.06154 0.0
C955 C 0.74264 0.98971 0.04065 0.0
H956 H 0.73911 0.00558 0.93981 0.0
C957 C 0.70819 0.94009 0.93275 0.0
C958 C 0.71618 0.93951 0.89758 0.0
C959 C 0.71707 0.95245 0.959 0.0
C960 C 0.74084 0.00097 0.96779 0.0
H961 H 0.69457 0.02965 0.11988 0.0
H962 H 0.70978 0.00481 0.07941 0.0
H963 H 0.73883 0.03173 0.9869 0.0
H964 H 0.74005 0.9508 0.86226 0.0
H965 H 0.7553 0.97331 0.90835 0.0
H966 H 0.74292 0.95891 0.02173 0.0
C967 C 0.71663 0.0198 0.08109 0.0
C968 C 0.74068 0.01595 0.99475 0.0
C969 C 0.70776 0.03411 0.10397 0.0
C970 C 0.73371 0.95098 0.88933 0.0
C971 C 0.74237 0.96383 0.91555 0.0
C972 C 0.74278 0.97479 0.01378 0.0
C973 C 0.73333 0.02509 0.05913 0.0
C974 C 0.74033 0.01034 0.03143 0.0
C975 C 0.73393 0.96482 0.95051 0.0
C976 C 0.74065 0.98024 0.97724 0.0
H977 H 0.73902 0.07445 0.08634 0.0
H978 H 0.75429 0.04932 0.04471 0.0
H979 H 0.7427 0.98502 0.06876 0.0
H980 H 0.69473 0.9313 0.93974 0.0
H981 H 0.71001 0.95313 0.9855 0.0
C982 C 0.93666 0.29025 0.05905 0.0
C983 C 0.93901 0.2871 0.09638 0.0
C984 C 0.94974 0.28082 0.0345 0.0
C985 C 0.00245 0.26389 0.02995 0.0
H986 H 0.98691 0.25483 0.92996 0.0
C987 C 0.05994 0.26957 0.91101 0.0
C988 C 0.05405 0.28647 0.89016 0.0
C989 C 0.04606 0.26076 0.9353 0.0
C990 C 0.9915 0.25683 0.95791 0.0
H991 H 0.95602 0.27044 0.13718 0.0
H992 H 0.9791 0.25395 0.094 0.0
H993 H 0.96074 0.25431 0.97707 0.0
H994 H 0.02904 0.30666 0.87633 0.0
H995 H 0.00471 0.29096 0.91772 0.0
H996 H 0.03307 0.26754 0.0103 0.0
C997 C 0.96717 0.26387 0.08387 0.0
C998 C 0.97655 0.25667 0.98484 0.0
C999 C 0.95393 0.27327 0.10855 0.0
C1000 C 0.03392 0.29372 0.89236 0.0
C1001 C 0.01998 0.28462 0.91574 0.0
C1002 C 0.01745 0.2638 0.00302 0.0
C1003 C 0.96555 0.26799 0.04663 0.0
C1004 C 0.98168 0.26154 0.02078 0.0
C1005 C 0.02601 0.26836 0.93797 0.0
C1006 C 0.01187 0.26149 0.96659 0.0
H1007 H 0.92516 0.30064 0.04877 0.0
H1008 H 0.94819 0.28463 0.00613 0.0
H1009 H 0.00695 0.26773 0.05732 0.0
H1010 H 0.07546 0.26382 0.90968 0.0
H1011 H 0.05104 0.24835 0.95248 0.0
C1012 C 0.26647 0.05032 0.89051 0.0
C1013 C 0.28529 0.0603 0.89557 0.0
C1014 C 0.25843 0.03796 0.91799 0.0
C1015 C 0.26275 0.02688 0.01569 0.0
H1016 H 0.25999 0.96979 0.98924 0.0
C1017 C 0.29786 0.96474 0.09914 0.0
C1018 C 0.28783 0.94612 0.10475 0.0
C1019 C 0.28918 0.97959 0.07718 0.0
C1020 C 0.26003 0.9857 0.99705 0.0
H1021 H 0.30982 0.06627 0.93357 0.0
H1022 H 0.2957 0.04521 0.98146 0.0
H1023 H 0.25934 0.99585 0.94193 0.0
H1024 H 0.26072 0.92846 0.09236 0.0
H1025 H 0.24574 0.95449 0.05218 0.0
H1026 H 0.26523 0.01671 0.0705 0.0
C1027 C 0.28717 0.04672 0.95645 0.0
C1028 C 0.25966 0.0006 0.97 0.0
C1029 C 0.29537 0.0586 0.92892 0.0
C1030 C 0.2687 0.94274 0.08841 0.0
C1031 C 0.26017 0.95755 0.06556 0.0
C1032 C 0.26314 0.01204 0.04262 0.0
C1033 C 0.26884 0.03597 0.95111 0.0
C1034 C 0.26228 0.02123 0.97905 0.0
C1035 C 0.27041 0.97609 0.0598 0.0
C1036 C 0.26303 0.9913 0.03335 0.0
H1037 H 0.25846 0.05141 0.86492 0.0
H1038 H 0.24433 0.02971 0.91322 0.0
H1039 H 0.26452 0.04272 0.02335 0.0
H1040 H 0.31255 0.96781 0.11164 0.0
H1041 H 0.29758 0.9936 0.07273 0.0
C1042 C 0.95755 0.72532 0.88433 0.0
C1043 C 0.94234 0.71168 0.89599 0.0
C1044 C 0.97099 0.73418 0.90934 0.0
C1045 C 0.97967 0.74144 0.00829 0.0
H1046 H 0.03646 0.73044 0.98502 0.0
C1047 C 0.03627 0.70743 0.10605 0.0
C1048 C 0.05666 0.71403 0.10698 0.0
C1049 C 0.02248 0.71601 0.08176 0.0
C1050 C 0.02076 0.73421 0.99169 0.0
H1051 H 0.92837 0.69772 0.94309 0.0
H1052 H 0.9517 0.71291 0.98635 0.0
H1053 H 0.01074 0.72953 0.93722 0.0
H1054 H 0.07868 0.73507 0.08433 0.0
H1055 H 0.05449 0.74967 0.04014 0.0
H1056 H 0.98953 0.74431 0.06333 0.0
C1057 C 0.95331 0.71694 0.95808 0.0
C1058 C 0.006 0.73369 0.96431 0.0
C1059 C 0.94007 0.708 0.93319 0.0
C1060 C 0.06295 0.72986 0.08403 0.0
C1061 C 0.0492 0.73815 0.0589 0.0
C1062 C 0.99439 0.74181 0.03565 0.0
C1063 C 0.96924 0.72974 0.94643 0.0
C1064 C 0.98516 0.73617 0.97273 0.0
C1065 C 0.0289 0.73108 0.05734 0.0
C1066 C 0.01487 0.73712 0.02785 0.0
H1067 H 0.95962 0.72851 0.85581 0.0
H1068 H 0.98306 0.74405 0.8996 0.0
H1069 H 0.96378 0.74387 0.01544 0.0
H1070 H 0.0311 0.69527 0.12365 0.0
H1071 H 0.00703 0.71004 0.08077 0.0
C1072 C 0.18519 0.35391 0.20807 0.0
C1073 C 0.18843 0.37456 0.21637 0.0
C1074 C 0.17967 0.348 0.17312 0.0
C1075 C 0.15379 0.34215 0.10597 0.0
H1076 H 0.17626 0.36773 0.02023 0.0
C1077 C 0.11573 0.33546 0.96555 0.0
C1078 C 0.12857 0.33356 0.93524 0.0
C1079 C 0.12397 0.33925 -0.00022 0.0
C1080 C 0.16997 0.36028 0.04388 0.0
H1081 H 0.18899 0.40513 0.19411 0.0
H1082 H 0.17916 0.39482 0.13321 0.0
H1083 H 0.19006 0.3764 0.07956 0.0
H1084 H 0.16023 0.33352 0.91739 0.0
H1085 H 0.17456 0.33989 0.97712 0.0
H1086 H 0.13385 0.32587 0.0703 0.0
C1087 C 0.18113 0.38316 0.15365 0.0
C1088 C 0.17773 0.36542 0.0779 0.0
C1089 C 0.1867 0.38908 0.18861 0.0
C1090 C 0.14986 0.33507 0.94009 0.0
C1091 C 0.1581 0.33883 0.9743 0.0
C1092 C 0.14605 0.337 0.07197 0.0
C1093 C 0.1772 0.36259 0.14568 0.0
C1094 C 0.16965 0.35651 0.10935 0.0
C1095 C 0.14524 0.34118 0.00448 0.0
C1096 C 0.15395 0.3461 0.04055 0.0
H1097 H 0.18648 0.3423 0.22876 0.0
H1098 H 0.1771 0.33199 0.1677 0.0
H1099 H 0.14705 0.33518 0.12969 0.0
H1100 H 0.09926 0.33438 0.96279 0.0
H1101 H 0.11363 0.34119 0.02241 0.0
C1102 C 0.34029 0.88074 0.03296 0.0
C1103 C 0.33267 0.86864 0.06124 0.0
C1104 C 0.34521 0.87201 -0.00031 0.0
C1105 C 0.33384 0.83038 0.93911 0.0
H1106 H 0.38761 0.84152 0.89915 0.0
C1107 C 0.35451 0.82538 0.78807 0.0
C1108 C 0.37315 0.81612 0.77866 0.0
C1109 C 0.34928 0.82812 0.82429 0.0
C1110 C 0.37265 0.83807 0.91021 0.0
H1111 H 0.32349 0.83808 0.0765 0.0
H1112 H 0.33164 0.8229 0.01768 0.0
H1113 H 0.3788 0.85423 0.95938 0.0
H1114 H 0.4007 0.80201 0.79961 0.0
H1115 H 0.39171 0.80733 0.86333 0.0
H1116 H 0.32743 0.81493 0.88924 0.0
C1117 C 0.33403 0.83907 0.02165 0.0
C1118 C 0.36757 0.84548 0.94441 0.0
C1119 C 0.32944 0.84774 0.05521 0.0
C1120 C 0.38622 0.80914 0.80616 0.0
C1121 C 0.38113 0.81222 0.84249 0.0
C1122 C 0.33881 0.82326 0.9046 0.0
C1123 C 0.34228 0.85109 0.99388 0.0
C1124 C 0.34804 0.84194 0.95889 0.0
C1125 C 0.36272 0.82194 0.85178 0.0
C1126 C 0.35818 0.82727 0.88973 0.0
H1127 H 0.343 0.89688 0.0368 0.0
H1128 H 0.35133 0.8816 0.97845 0.0
H1129 H 0.31868 0.82752 0.94979 0.0
H1130 H 0.34409 0.83081 0.7674 0.0
H1131 H 0.33509 0.83583 0.83079 0.0
C1132 C 0.87411 0.64597 0.94896 0.0
C1133 C 0.86915 0.66399 0.93051 0.0
C1134 C 0.86619 0.64215 0.98323 0.0
C1135 C 0.82574 0.658 0.04793 0.0
H1136 H 0.86054 0.62882 0.11538 0.0
C1137 C 0.81054 0.64488 0.20243 0.0
C1138 C 0.81219 0.62443 0.21335 0.0
C1139 C 0.81566 0.6506 0.16714 0.0
C1140 C 0.85066 0.63691 0.09672 0.0
H1141 H 0.85196 0.69216 0.93339 0.0
H1142 H 0.83863 0.68584 0.99424 0.0
H1143 H 0.87377 0.63803 0.05614 0.0
H1144 H 0.82 0.59388 0.19566 0.0
H1145 H 0.82939 0.60401 0.13435 0.0
H1146 H 0.80287 0.65731 0.08969 0.0
C1147 C 0.84828 0.67443 0.98176 0.0
C1148 C 0.85815 0.6421 0.06269 0.0
C1149 C 0.85598 0.67811 0.94702 0.0
C1150 C 0.81848 0.60974 0.18804 0.0
C1151 C 0.82394 0.61551 0.15305 0.0
C1152 C 0.81836 0.65309 0.0824 0.0
C1153 C 0.85341 0.65642 0.00037 0.0
C1154 C 0.84568 0.65234 0.03753 0.0
C1155 C 0.82288 0.63601 0.14252 0.0
C1156 C 0.83067 0.64219 0.10673 0.0
H1157 H 0.88397 0.63463 0.93673 0.0
H1158 H 0.87001 0.62785 0.99615 0.0
H1159 H 0.81565 0.66573 0.0292 0.0
H1160 H 0.80568 0.65652 0.22135 0.0
H1161 H 0.8148 0.6665 0.15952 0.0
C1162 C 0.65157 0.14366 0.05861 0.0
C1163 C 0.66302 0.12572 0.0628 0.0
C1164 C 0.6468 0.15096 0.02415 0.0
C1165 C 0.64495 0.13478 0.92754 0.0
H1166 H 0.64069 0.19293 0.91049 0.0
C1167 C 0.64096 0.1703 0.78537 0.0
C1168 C 0.62381 0.18271 0.77893 0.0
C1169 C 0.6458 0.16406 0.82039 0.0
C1170 C 0.64173 0.17667 0.91504 0.0
H1171 H 0.67895 0.10162 0.03436 0.0
H1172 H 0.6715 0.11482 0.97418 0.0
H1173 H 0.64982 0.18052 0.97063 0.0
H1174 H 0.59859 0.19877 0.80422 0.0
H1175 H 0.60756 0.18832 0.86599 0.0
H1176 H 0.63763 0.13113 0.87138 0.0
C1177 C 0.6655 0.12291 -0.00261 0.0
C1178 C 0.64685 0.1695 0.94949 0.0
C1179 C 0.66992 0.11539 0.03188 0.0
C1180 C 0.61191 0.18924 0.80841 0.0
C1181 C 0.61703 0.18332 0.84365 0.0
C1182 C 0.64023 0.14198 0.893 0.0
C1183 C 0.65372 0.14071 0.99302 0.0
C1184 C 0.64848 0.14844 0.95624 0.0
C1185 C 0.63382 0.17041 0.84976 0.0
C1186 C 0.63856 0.16296 0.88651 0.0
H1187 H 0.64588 0.15185 0.08198 0.0
H1188 H 0.63736 0.16445 0.02204 0.0
H1189 H 0.64556 0.11848 0.93172 0.0
H1190 H 0.65031 0.16484 0.76318 0.0
H1191 H 0.65886 0.15417 0.82455 0.0
C1192 C 0.17685 0.64221 0.78904 0.0
C1193 C 0.18825 0.62443 0.7825 0.0
C1194 C 0.17103 0.64741 0.8241 0.0
C1195 C 0.18313 0.64323 0.91861 0.0
H1196 H 0.12467 0.64798 0.93462 0.0
C1197 C 0.1491 0.65367 0.06158 0.0
C1198 C 0.13098 0.66498 0.06525 0.0
C1199 C 0.15686 0.64911 0.02734 0.0
C1200 C 0.14106 0.64713 0.93062 0.0
H1201 H 0.20312 0.59853 0.80771 0.0
H1202 H 0.19338 0.60811 0.8696 0.0
H1203 H 0.13744 0.63959 0.87459 0.0
H1204 H 0.1072 0.68111 0.03619 0.0
H1205 H 0.12121 0.67407 0.97643 0.0
H1206 H 0.18695 0.65154 0.97411 0.0
C1207 C 0.18884 0.61779 0.84726 0.0
C1208 C 0.14832 0.64214 0.89627 0.0
C1209 C 0.19435 0.61232 0.81197 0.0
C1210 C 0.12108 0.67216 0.03409 0.0
C1211 C 0.12906 0.66796 -0.00016 0.0
C1212 C 0.17591 0.64865 0.95289 0.0
C1213 C 0.17681 0.63516 0.85341 0.0
C1214 C 0.16938 0.64013 0.89003 0.0
C1215 C 0.14689 0.6561 0.99595 0.0
C1216 C 0.15474 0.65065 0.95938 0.0
H1217 H 0.17177 0.65178 0.76691 0.0
H1218 H 0.16181 0.66092 0.82833 0.0
H1219 H 0.19947 0.6419 0.9142 0.0
H1220 H 0.15698 0.6478 0.08518 0.0
H1221 H 0.17039 0.63965 0.02557 0.0
C1222 C 0.64551 0.82298 0.20925 0.0
C1223 C 0.62705 0.81249 0.21509 0.0
C1224 C 0.65153 0.82821 0.17434 0.0
C1225 C 0.64739 0.81617 0.07948 0.0
H1226 H 0.65428 0.87415 0.06373 0.0
C1227 C 0.65617 0.85055 0.93668 0.0
C1228 C 0.66796 0.86827 0.93271 0.0
C1229 C 0.65235 0.84257 0.97101 0.0
C1230 C 0.65287 0.85788 0.06767 0.0
H1231 H 0.60085 0.79852 0.18892 0.0
H1232 H 0.6118 0.80731 0.1274 0.0
H1233 H 0.64582 0.86167 0.12382 0.0
H1234 H 0.68588 0.89099 0.96103 0.0
H1235 H 0.6801 0.87656 0.02082 0.0
H1236 H 0.65504 0.81218 0.0237 0.0
C1237 C 0.6214 0.81156 0.15009 0.0
C1238 C 0.64786 0.85079 0.10206 0.0
C1239 C 0.61513 0.80663 0.18518 0.0
C1240 C 0.67651 0.87745 0.96346 0.0
C1241 C 0.67305 0.86924 -0.00228 0.0
C1242 C 0.65282 0.82321 0.04512 0.0
C1243 C 0.63942 0.82275 0.14458 0.0
C1244 C 0.645 0.82992 0.10816 0.0
C1245 C 0.66057 0.85193 0.00202 0.0
C1246 C 0.65553 0.84419 0.03875 0.0
H1247 H 0.65495 0.82783 0.23176 0.0
H1248 H 0.66553 0.83681 0.17057 0.0
H1249 H 0.64536 0.79998 0.0838 0.0
H1250 H 0.6493 0.84324 0.91337 0.0
H1251 H 0.64242 0.82943 0.9732 0.0
C1252 C 0.8157 0.3942 0.80543 0.0
C1253 C 0.80973 0.37908 0.78072 0.0
C1254 C 0.82046 0.38904 0.84106 0.0
C1255 C 0.81426 0.35201 0.9131 0.0
H1256 H 0.86983 0.36668 0.93908 0.0
C1257 C 0.85317 0.32499 0.04625 0.0
C1258 C 0.86673 0.33874 0.06274 0.0
C1259 C 0.84486 0.32934 0.01217 0.0
C1260 C 0.85415 0.36275 0.93264 0.0
H1261 H 0.80282 0.34695 0.77436 0.0
H1262 H 0.81076 0.33806 0.83713 0.0
H1263 H 0.85645 0.37628 0.88018 0.0
H1264 H 0.8814 0.36823 0.05759 0.0
H1265 H 0.86639 0.37617 -0.00054 0.0
H1266 H 0.81173 0.33896 0.96602 0.0
C1267 C 0.81191 0.35381 0.82867 0.0
C1268 C 0.84656 0.36819 0.89882 0.0
C1269 C 0.8075 0.3589 0.79282 0.0
C1270 C 0.87131 0.35714 0.04522 0.0
C1271 C 0.86277 0.36164 0.01171 0.0
C1272 C 0.82174 0.34685 0.94738 0.0
C1273 C 0.81897 0.36876 0.85273 0.0
C1274 C 0.82655 0.36298 0.88885 0.0
C1275 C 0.84975 0.34767 0.99437 0.0
C1276 C 0.84176 0.35231 0.95764 0.0
H1277 H 0.81762 0.40986 0.79684 0.0
H1278 H 0.82582 0.40081 0.85932 0.0
H1279 H 0.79877 0.3478 0.90577 0.0
H1280 H 0.8494 0.3107 0.05928 0.0
H1281 H 0.835 0.31817 -0.0005 0.0
C1282 C 0.33986 0.15211 0.93028 0.0
C1283 C 0.33247 0.13208 0.92678 0.0
C1284 C 0.34419 0.16019 0.96446 0.0
C1285 C 0.33267 0.15341 0.06111 0.0
H1286 H 0.3859 0.17778 0.07815 0.0
C1287 C 0.36655 0.15785 0.20256 0.0
C1288 C 0.37655 0.17575 0.21364 0.0
C1289 C 0.36074 0.15516 0.16668 0.0
C1290 C 0.37085 0.17134 0.07368 0.0
H1291 H 0.32332 0.10504 0.95638 0.0
H1292 H 0.33076 0.11916 0.01582 0.0
H1293 H 0.37573 0.16853 0.01652 0.0
H1294 H 0.38886 0.20464 0.19532 0.0
H1295 H 0.37856 0.19987 0.13202 0.0
H1296 H 0.32784 0.15583 0.1181 0.0
C1297 C 0.33318 0.12863 0.99221 0.0
C1298 C 0.36504 0.16605 0.03846 0.0
C1299 C 0.32906 0.12049 0.95813 0.0
C1300 C 0.38112 0.19071 0.18763 0.0
C1301 C 0.37526 0.18797 0.15145 0.0
C1302 C 0.33842 0.15875 0.09616 0.0
C1303 C 0.34093 0.14848 0.99573 0.0
C1304 C 0.34611 0.15652 0.03204 0.0
C1305 C 0.36472 0.17028 0.14081 0.0
C1306 C 0.3578 0.16722 0.10298 0.0
H1307 H 0.34266 0.16141 0.90661 0.0
H1308 H 0.35004 0.17558 0.96646 0.0
H1309 H 0.31783 0.14646 0.05683 0.0
H1310 H 0.36304 0.14585 0.2217 0.0
H1311 H 0.35314 0.14112 0.15917 0.0
C1312 C 0.61358 0.83659 0.46222 0.0
C1313 C 0.62698 0.8345 0.43272 0.0
C1314 C 0.62114 0.84127 0.49659 0.0
C1315 C 0.66577 0.86424 0.54187 0.0
H1316 H 0.64336 0.83837 0.62738 0.0
C1317 C 0.68225 0.8565 0.70497 0.0
C1318 C 0.685 0.87707 0.71434 0.0
C1319 C 0.6764 0.85108 0.67 0.0
C1320 C 0.64992 0.8456 0.60373 0.0
H1321 H 0.65892 0.8351 0.41646 0.0
H1322 H 0.67205 0.84301 0.47643 0.0
H1323 H 0.63062 0.82872 0.56783 0.0
H1324 H 0.68433 0.90805 0.694 0.0
H1325 H 0.67397 0.89855 0.63282 0.0
H1326 H 0.68527 0.88092 0.57782 0.0
C1327 C 0.65568 0.84141 0.47285 0.0
C1328 C 0.64244 0.84025 0.56967 0.0
C1329 C 0.64813 0.83675 0.43852 0.0
C1330 C 0.68243 0.89206 0.6876 0.0
C1331 C 0.67653 0.88662 0.65254 0.0
C1332 C 0.67324 0.86961 0.57597 0.0
C1333 C 0.64226 0.84391 0.50218 0.0
C1334 C 0.65028 0.84951 0.53837 0.0
C1335 C 0.67311 0.86609 0.64358 0.0
C1336 C 0.66541 0.86033 0.60726 0.0
H1337 H 0.5972 0.83496 0.45869 0.0
H1338 H 0.61041 0.84326 0.51862 0.0
H1339 H 0.67196 0.87182 0.51826 0.0
H1340 H 0.68422 0.84454 0.72484 0.0
H1341 H 0.67427 0.8351 0.66372 0.0
C1342 C 0.82759 0.37694 0.53237 0.0
C1343 C 0.83291 0.36661 0.56428 0.0
C1344 C 0.83077 0.36789 0.49873 0.0
C1345 C 0.86343 0.3315 0.45272 0.0
H1346 H 0.82301 0.33639 0.37635 0.0
C1347 C 0.87922 0.30629 0.30471 0.0
C1348 C 0.87301 0.32048 0.2784 0.0
C1349 C 0.87305 0.30854 0.34076 0.0
C1350 C 0.83447 0.33494 0.39738 0.0
H1351 H 0.84547 0.33856 0.58601 0.0
H1352 H 0.85131 0.32285 0.52687 0.0
H1353 H 0.81419 0.34658 0.43783 0.0
H1354 H 0.85558 0.34822 0.26948 0.0
H1355 H 0.84517 0.35219 0.33189 0.0
H1356 H 0.884 0.32066 0.41195 0.0
C1357 C 0.84464 0.33793 0.5281 0.0
C1358 C 0.8294 0.34073 0.43253 0.0
C1359 C 0.84123 0.3469 0.56187 0.0
C1360 C 0.86055 0.3369 0.2889 0.0
C1361 C 0.85442 0.33911 0.32472 0.0
C1362 C 0.86857 0.3258 0.41743 0.0
C1363 C 0.8395 0.3484 0.49625 0.0
C1364 C 0.84399 0.33959 0.46031 0.0
C1365 C 0.86052 0.32496 0.35105 0.0
C1366 C 0.85431 0.32804 0.38923 0.0
H1367 H 0.82105 0.3921 0.53334 0.0
H1368 H 0.82689 0.3764 0.47456 0.0
H1369 H 0.875 0.33058 0.47366 0.0
H1370 H 0.88882 0.29348 0.29749 0.0
H1371 H 0.87794 0.29737 0.36051 0.0
C1372 C 0.30295 0.14408 0.69925 0.0
C1373 C 0.3062 0.12375 0.70958 0.0
C1374 C 0.30519 0.14998 0.66316 0.0
C1375 C 0.31164 0.12927 0.5696 0.0
H1376 H 0.34024 0.18023 0.55341 0.0
C1377 C 0.36338 0.14514 0.4481 0.0
C1378 C 0.36027 0.16323 0.42859 0.0
C1379 C 0.35276 0.14156 0.48011 0.0
C1380 C 0.33192 0.16615 0.55751 0.0
H1381 H 0.31398 0.09358 0.6902 0.0
H1382 H 0.31867 0.10392 0.62764 0.0
H1383 H 0.32897 0.17139 0.61428 0.0
H1384 H 0.34369 0.1918 0.42719 0.0
H1385 H 0.32554 0.18579 0.48454 0.0
H1386 H 0.31598 0.12354 0.51302 0.0
C1387 C 0.31378 0.11528 0.64702 0.0
C1388 C 0.32539 0.16106 0.59235 0.0
C1389 C 0.31124 0.10933 0.683 0.0
C1390 C 0.34631 0.17773 0.44175 0.0
C1391 C 0.33598 0.17432 0.4744 0.0
C1392 C 0.31848 0.13422 0.53493 0.0
C1393 C 0.31104 0.13574 0.63668 0.0
C1394 C 0.31561 0.14231 0.599 0.0
C1395 C 0.3391 0.15615 0.49367 0.0
C1396 C 0.32906 0.15248 0.52881 0.0
H1397 H 0.29884 0.15551 0.71911 0.0
H1398 H 0.30255 0.16577 0.65613 0.0
H1399 H 0.30371 0.11496 0.57347 0.0
H1400 H 0.37393 0.13362 0.43848 0.0
H1401 H 0.35557 0.12754 0.49475 0.0
C1402 C 0.16278 0.64884 0.56082 0.0
C1403 C 0.16515 0.62774 0.56581 0.0
C1404 C 0.15865 0.65676 0.52655 0.0
C1405 C 0.16164 0.64451 0.42922 0.0
H1406 H 0.12084 0.68711 0.42001 0.0
C1407 C 0.1098 0.68345 0.31039 0.0
C1408 C 0.12477 0.68561 0.28338 0.0
C1409 C 0.11537 0.67804 0.3456 0.0
C1410 C 0.13221 0.67517 0.42214 0.0
H1411 H 0.16534 0.59845 0.53855 0.0
H1412 H 0.15788 0.61229 0.47885 0.0
H1413 H 0.12927 0.67371 0.47972 0.0
H1414 H 0.15741 0.68463 0.27253 0.0
H1415 H 0.16709 0.67555 0.33402 0.0
H1416 H 0.16413 0.64549 0.3716 0.0
C1417 C 0.15943 0.62271 0.5014 0.0
C1418 C 0.1372 0.66765 0.45636 0.0
C1419 C 0.16359 0.61478 0.53567 0.0
C1420 C 0.14547 0.68297 0.29263 0.0
C1421 C 0.15103 0.67763 0.32782 0.0
C1422 C 0.15664 0.65201 0.39502 0.0
C1423 C 0.15681 0.64378 0.4965 0.0
C1424 C 0.15189 0.65215 0.46025 0.0
C1425 C 0.13602 0.67472 0.35453 0.0
C1426 C 0.14181 0.66737 0.39107 0.0
H1427 H 0.16402 0.65928 0.58341 0.0
H1428 H 0.15702 0.67309 0.52356 0.0
H1429 H 0.17318 0.63273 0.43134 0.0
H1430 H 0.09371 0.68528 0.30412 0.0
H1431 H 0.10342 0.67573 0.36547 0.0
C1432 C 0.61804 0.17001 0.53068 0.0
C1433 C 0.62784 0.16245 0.56168 0.0
C1434 C 0.6261 0.16614 0.49633 0.0
C1435 C 0.67328 0.14757 0.44949 0.0
H1436 H 0.63552 0.1397 0.36974 0.0
C1437 C 0.69366 0.11294 0.30847 0.0
C1438 C 0.68734 0.12479 0.27883 0.0
C1439 C 0.68776 0.11826 0.34363 0.0
C1440 C 0.64621 0.14195 0.39181 0.0
H1441 H 0.65362 0.14479 0.58115 0.0
H1442 H 0.66714 0.13725 0.5214 0.0
H1443 H 0.62222 0.14727 0.42977 0.0
H1444 H 0.67005 0.15156 0.26281 0.0
H1445 H 0.65947 0.16049 0.32402 0.0
H1446 H 0.69718 0.14136 0.41122 0.0
C1447 C 0.65366 0.14676 0.52338 0.0
C1448 C 0.63864 0.14645 0.42618 0.0
C1449 C 0.64583 0.15097 0.55772 0.0
C1450 C 0.67533 0.14221 0.28508 0.0
C1451 C 0.66914 0.14727 0.32003 0.0
C1452 C 0.68081 0.14267 0.41518 0.0
C1453 C 0.6439 0.15427 0.49218 0.0
C1454 C 0.65206 0.14946 0.4555 0.0
C1455 C 0.67512 0.13524 0.34952 0.0
C1456 C 0.66733 0.13997 0.38606 0.0
H1457 H 0.60426 0.17909 0.53299 0.0
H1458 H 0.61838 0.1726 0.47309 0.0
H1459 H 0.68414 0.15012 0.47115 0.0
H1460 H 0.70287 0.09942 0.30444 0.0
H1461 H 0.69247 0.10874 0.36607 0.0
C1462 C 0.10953 0.31667 0.68854 0.0
C1463 C 0.12415 0.31468 0.71622 0.0
C1464 C 0.11552 0.32198 0.65352 0.0
C1465 C 0.15721 0.34801 0.60532 0.0
H1466 H 0.13107 0.32554 0.52 0.0
C1467 C 0.16469 0.38473 0.46422 0.0
C1468 C 0.16655 0.37167 0.43425 0.0
C1469 C 0.16061 0.37685 0.49857 0.0
C1470 C 0.13867 0.33182 0.54353 0.0
H1471 H 0.15663 0.31594 0.72846 0.0
H1472 H 0.16706 0.32487 0.66729 0.0
H1473 H 0.12208 0.3124 0.5796 0.0
H1474 H 0.16617 0.34004 0.4171 0.0
H1475 H 0.15928 0.32635 0.47706 0.0
H1476 H 0.17395 0.36728 0.56927 0.0
C1477 C 0.15093 0.3227 0.67282 0.0
C1478 C 0.13335 0.32445 0.5777 0.0
C1479 C 0.14495 0.31744 0.70783 0.0
C1480 C 0.16466 0.35055 0.43954 0.0
C1481 C 0.1606 0.34269 0.47387 0.0
C1482 C 0.16253 0.35538 0.57118 0.0
C1483 C 0.13627 0.32538 0.64543 0.0
C1484 C 0.14248 0.33254 0.60898 0.0
C1485 C 0.15835 0.35576 0.50371 0.0
C1486 C 0.15322 0.34746 0.53992 0.0
H1487 H 0.09337 0.31474 0.69412 0.0
H1488 H 0.10383 0.32412 0.6331 0.0
H1489 H 0.16435 0.35474 0.62891 0.0
H1490 H 0.16606 0.40107 0.46111 0.0
H1491 H 0.15874 0.38734 0.52095 0.0
C1492 C 0.37309 0.85473 0.54447 0.0
C1493 C 0.36825 0.83669 0.56291 0.0
C1494 C 0.3651 0.8585 0.51023 0.0
C1495 C 0.3248 0.84255 0.44545 0.0
H1496 H 0.3599 0.8713 0.37799 0.0
C1497 C 0.31019 0.85546 0.29066 0.0
C1498 C 0.31204 0.87589 0.2797 0.0
C1499 C 0.31509 0.84976 0.32607 0.0
C1500 C 0.34994 0.86333 0.39665 0.0
H1501 H 0.35116 0.80846 0.56017 0.0
H1502 H 0.3377 0.8147 0.49933 0.0
H1503 H 0.37298 0.86218 0.4374 0.0
H1504 H 0.3199 0.90642 0.29742 0.0
H1505 H 0.32888 0.89632 0.35893 0.0
H1506 H 0.302 0.84329 0.40353 0.0
C1507 C 0.34732 0.82616 0.51179 0.0
C1508 C 0.35734 0.85819 0.43076 0.0
C1509 C 0.35509 0.82252 0.54651 0.0
C1510 C 0.31825 0.89058 0.30507 0.0
C1511 C 0.32347 0.88483 0.34017 0.0
C1512 C 0.3175 0.84741 0.4109 0.0
C1513 C 0.35239 0.84415 0.49314 0.0
C1514 C 0.34475 0.84813 0.45592 0.0
C1515 C 0.32225 0.86435 0.35074 0.0
C1516 C 0.32993 0.85817 0.38659 0.0
H1517 H 0.38293 0.86611 0.55664 0.0
H1518 H 0.36886 0.8728 0.49725 0.0
H1519 H 0.31464 0.83493 0.46419 0.0
H1520 H 0.30537 0.84382 0.2717 0.0
H1521 H 0.31411 0.83387 0.33373 0.0
C1522 C 0.88659 0.69092 0.68697 0.0
C1523 C 0.87331 0.68446 0.71455 0.0
C1524 C 0.88164 0.68739 0.65068 0.0
C1525 C 0.83944 0.67617 0.58832 0.0
H1526 H 0.87934 0.64443 0.53481 0.0
C1527 C 0.83038 0.65161 0.43783 0.0
C1528 C 0.83355 0.63072 0.43159 0.0
C1529 C 0.83495 0.66016 0.47151 0.0
C1530 C 0.86812 0.65337 0.54943 0.0
H1531 H 0.84403 0.67026 0.7259 0.0
H1532 H 0.83525 0.66453 0.66259 0.0
H1533 H 0.88798 0.65738 0.595 0.0
H1534 H 0.8438 0.60239 0.45577 0.0
H1535 H 0.8521 0.61745 0.51437 0.0
H1536 H 0.8195 0.67191 0.54282 0.0
C1537 C 0.84951 0.67214 0.66899 0.0
C1538 C 0.87312 0.66092 0.58362 0.0
C1539 C 0.85461 0.67531 0.70519 0.0
C1540 C 0.84115 0.61852 0.45977 0.0
C1541 C 0.84604 0.62714 0.49319 0.0
C1542 C 0.83456 0.6689 0.55384 0.0
C1543 C 0.86316 0.67776 0.64147 0.0
C1544 C 0.85869 0.67205 0.60362 0.0
C1545 C 0.84311 0.64804 0.49925 0.0
C1546 C 0.84873 0.65709 0.53446 0.0
H1547 H 0.90114 0.69794 0.69347 0.0
H1548 H 0.89238 0.69188 0.62983 0.0
H1549 H 0.82809 0.68474 0.60328 0.0
H1550 H 0.82446 0.66136 0.41663 0.0
H1551 H 0.83257 0.67632 0.47563 0.0
C1552 C 0.3368 0.23228 0.31708 0.0
C1553 C 0.35778 0.23319 0.3253 0.0
C1554 C 0.32424 0.24914 0.32237 0.0
C1555 C 0.32417 0.30487 0.33325 0.0
H1556 H 0.2693 0.29419 0.36826 0.0
C1557 C 0.2421 0.34762 0.36973 0.0
C1558 C 0.2408 0.36066 0.33971 0.0
C1559 C 0.25873 0.33446 0.3737 0.0
C1560 C 0.28465 0.29763 0.35912 0.0
H1561 H 0.38207 0.25274 0.34516 0.0
H1562 H 0.35991 0.28235 0.35486 0.0
H1563 H 0.29378 0.26659 0.36475 0.0
H1564 H 0.25643 0.37089 0.29127 0.0
H1565 H 0.28506 0.34744 0.29742 0.0
H1566 H 0.31499 0.33606 0.32798 0.0
C1567 C 0.3533 0.26852 0.34397 0.0
C1568 C 0.29863 0.28167 0.35655 0.0
C1569 C 0.36597 0.25156 0.3385 0.0
C1570 C 0.25699 0.36102 0.31473 0.0
C1571 C 0.2735 0.34762 0.3184 0.0
C1572 C 0.31018 0.32095 0.33605 0.0
C1573 C 0.33224 0.26738 0.33632 0.0
C1574 C 0.31837 0.28496 0.34269 0.0
C1575 C 0.27429 0.33377 0.34741 0.0
C1576 C 0.29009 0.31743 0.34832 0.0
H1577 H 0.32997 0.21847 0.30652 0.0
H1578 H 0.30821 0.24787 0.31531 0.0
H1579 H 0.33927 0.30792 0.32244 0.0
H1580 H 0.22999 0.34724 0.38975 0.0
H1581 H 0.25908 0.32441 0.39691 0.0
C1582 C 0.23906 0.65628 0.63328 0.0
C1583 C 0.24018 0.63986 0.6576 0.0
C1584 C 0.25561 0.66945 0.62905 0.0
C1585 C 0.31065 0.67718 0.64483 0.0
H1586 H 0.29433 0.73357 0.65643 0.0
C1587 C 0.36757 0.74401 0.67076 0.0
C1588 C 0.36201 0.76318 0.65715 0.0
C1589 C 0.35435 0.72736 0.66666 0.0
C1590 C 0.29921 0.71797 0.6524 0.0
H1591 H 0.26011 0.6236 0.69466 0.0
H1592 H 0.2891 0.64681 0.68724 0.0
H1593 H 0.26849 0.70714 0.656 0.0
H1594 H 0.33944 0.77973 0.62592 0.0
H1595 H 0.31692 0.75069 0.61728 0.0
H1596 H 0.3415 0.68819 0.64116 0.0
C1597 C 0.27534 0.6494 0.67156 0.0
C1598 C 0.28435 0.7028 0.65229 0.0
C1599 C 0.2587 0.6362 0.67592 0.0
C1600 C 0.34386 0.76515 0.63724 0.0
C1601 C 0.33091 0.74854 0.63253 0.0
C1602 C 0.32562 0.69247 0.64457 0.0
C1603 C 0.27369 0.66649 0.64891 0.0
C1604 C 0.28986 0.68228 0.64837 0.0
C1605 C 0.33555 0.72963 0.64841 0.0
C1606 C 0.32002 0.71308 0.64817 0.0
H1607 H 0.22515 0.6594 0.61831 0.0
H1608 H 0.25406 0.68233 0.61094 0.0
H1609 H 0.31528 0.66144 0.64178 0.0
H1610 H 0.38152 0.74217 0.68626 0.0
H1611 H 0.35838 0.71304 0.67929 0.0
C1612 C 0.63227 0.7415 0.32148 0.0
C1613 C 0.63808 0.7597 0.33875 0.0
C1614 C 0.64388 0.72382 0.3258 0.0
C1615 C 0.68495 0.70004 0.38079 0.0
H1616 H 0.69937 0.67372 0.29039 0.0
C1617 C 0.75903 0.65454 0.3611 0.0
C1618 C 0.75922 0.63785 0.33726 0.0
C1619 C 0.74133 0.66612 0.36568 0.0
C1620 C 0.69519 0.68054 0.31602 0.0
H1621 H 0.66002 0.77326 0.37571 0.0
H1622 H 0.68039 0.74248 0.38287 0.0
H1623 H 0.67337 0.70017 0.29079 0.0
H1624 H 0.74059 0.61953 0.30114 0.0
H1625 H 0.70958 0.63975 0.30936 0.0
H1626 H 0.7073 0.68079 0.4058 0.0
C1627 C 0.66678 0.74184 0.36618 0.0
C1628 C 0.68028 0.69575 0.31624 0.0
C1629 C 0.65518 0.75954 0.36185 0.0
C1630 C 0.74101 0.63241 0.31944 0.0
C1631 C 0.72327 0.64403 0.32404 0.0
C1632 C 0.69986 0.68478 0.38059 0.0
C1633 C 0.66152 0.72392 0.34755 0.0
C1634 C 0.67535 0.70601 0.34847 0.0
C1635 C 0.72336 0.66127 0.34662 0.0
C1636 C 0.70551 0.67523 0.34802 0.0
H1637 H 0.61906 0.74101 0.30381 0.0
H1638 H 0.63928 0.71015 0.31153 0.0
H1639 H 0.68123 0.70745 0.40614 0.0
H1640 H 0.77274 0.65909 0.37547 0.0
H1641 H 0.74202 0.67943 0.38296 0.0
C1642 C 0.74253 0.36217 0.67671 0.0
C1643 C 0.76012 0.3604 0.6551 0.0
C1644 C 0.72598 0.34895 0.67154 0.0
C1645 C 0.71663 0.29741 0.63788 0.0
H1646 H 0.65928 0.31108 0.64931 0.0
C1647 C 0.65532 0.23559 0.62769 0.0
C1648 C 0.64036 0.23573 0.65496 0.0
C1649 C 0.66795 0.25246 0.62244 0.0
C1650 C 0.67525 0.30704 0.6462 0.0
H1651 H 0.77352 0.34464 0.60922 0.0
H1652 H 0.74464 0.3219 0.59995 0.0
H1653 H 0.685 0.33818 0.64964 0.0
H1654 H 0.62626 0.25409 0.69698 0.0
H1655 H 0.64863 0.28332 0.68839 0.0
H1656 H 0.70719 0.26636 0.63552 0.0
C1657 C 0.7438 0.33305 0.6215 0.0
C1658 C 0.68995 0.32255 0.64637 0.0
C1659 C 0.76033 0.34612 0.62678 0.0
C1660 C 0.63769 0.25345 0.6758 0.0
C1661 C 0.65043 0.27029 0.67072 0.0
C1662 C 0.70202 0.28198 0.6378 0.0
C1663 C 0.72675 0.33386 0.64455 0.0
C1664 C 0.7108 0.31784 0.64239 0.0
C1665 C 0.66601 0.2698 0.64452 0.0
C1666 C 0.68117 0.28656 0.64218 0.0
H1667 H 0.74192 0.37308 0.69867 0.0
H1668 H 0.71307 0.34988 0.68983 0.0
H1669 H 0.73261 0.29322 0.63558 0.0
H1670 H 0.65755 0.22229 0.61079 0.0
H1671 H 0.67952 0.25177 0.60151 0.0
C1672 C 0.73919 0.84371 0.85896 0.0
C1673 C 0.73943 0.86015 0.83461 0.0
C1674 C 0.75601 0.8308 0.8619 0.0
C1675 C 0.81066 0.82377 0.84376 0.0
H1676 H 0.79483 0.7672 0.83271 0.0
C1677 C 0.8681 0.75679 0.82106 0.0
C1678 C 0.86248 0.73781 0.83542 0.0
C1679 C 0.85482 0.77348 0.82411 0.0
C1680 C 0.79957 0.78286 0.83652 0.0
H1681 H 0.75812 0.87671 0.79604 0.0
H1682 H 0.78769 0.85392 0.80128 0.0
H1683 H 0.76876 0.79343 0.83269 0.0
H1684 H 0.83974 0.72168 0.86691 0.0
H1685 H 0.81713 0.75081 0.87371 0.0
H1686 H 0.84159 0.813 0.84792 0.0
C1687 C 0.77435 0.85113 0.81793 0.0
C1688 C 0.78459 0.7979 0.83632 0.0
C1689 C 0.7574 0.8641 0.81485 0.0
C1690 C 0.84422 0.7361 0.85506 0.0
C1691 C 0.83122 0.75276 0.8587 0.0
C1692 C 0.82576 0.80859 0.84433 0.0
C1693 C 0.77352 0.83403 0.84069 0.0
C1694 C 0.78991 0.81847 0.84028 0.0
C1695 C 0.83591 0.77143 0.842 0.0
C1696 C 0.82032 0.78792 0.84111 0.0
H1697 H 0.72575 0.84039 0.87506 0.0
H1698 H 0.75512 0.81791 0.88011 0.0
H1699 H 0.81512 0.83956 0.8468 0.0
H1700 H 0.88213 0.75842 0.80573 0.0
H1701 H 0.85891 0.78762 0.81092 0.0
C1702 C 0.73617 0.15858 0.13223 0.0
C1703 C 0.73816 0.14102 0.15369 0.0
C1704 C 0.75235 0.17233 0.12911 0.0
C1705 C 0.8076 0.18032 0.14191 0.0
H1706 H 0.79092 0.23563 0.16368 0.0
C1707 C 0.86492 0.24647 0.17058 0.0
C1708 C 0.8589 0.26609 0.15986 0.0
C1709 C 0.85148 0.22998 0.16651 0.0
C1710 C 0.79588 0.22037 0.15685 0.0
H1711 H 0.75926 0.12346 0.18665 0.0
H1712 H 0.78758 0.14759 0.18103 0.0
H1713 H 0.76541 0.20888 0.16115 0.0
H1714 H 0.83496 0.28366 0.13396 0.0
H1715 H 0.812 0.25499 0.12549 0.0
H1716 H 0.83816 0.19196 0.13734 0.0
C1717 C 0.77342 0.15066 0.16679 0.0
C1718 C 0.78121 0.20502 0.15554 0.0
C1719 C 0.75716 0.13691 0.17012 0.0
C1720 C 0.83982 0.26875 0.14313 0.0
C1721 C 0.82661 0.25231 0.1385 0.0
C1722 C 0.82235 0.19581 0.14283 0.0
C1723 C 0.77093 0.1688 0.14715 0.0
C1724 C 0.78686 0.18486 0.1479 0.0
C1725 C 0.83195 0.23284 0.15118 0.0
C1726 C 0.81662 0.21607 0.15012 0.0
H1727 H 0.72187 0.16214 0.11883 0.0
H1728 H 0.75013 0.18605 0.11331 0.0
H1729 H 0.81234 0.16487 0.13597 0.0
H1730 H 0.87959 0.24404 0.18356 0.0
H1731 H 0.85609 0.21521 0.1767 0.0
C1732 C 0.15384 0.25996 0.86138 0.0
C1733 C 0.13683 0.26051 0.83811 0.0
C1734 C 0.16523 0.24212 0.86534 0.0
C1735 C 0.17841 0.19618 0.81464 0.0
H1736 H 0.2054 0.18092 0.90408 0.0
C1737 C 0.23891 0.13265 0.81765 0.0
C1738 C 0.25723 0.13814 0.83507 0.0
C1739 C 0.22121 0.1443 0.82239 0.0
C1740 C 0.19795 0.18499 0.87891 0.0
H1741 H 0.11776 0.24239 0.80233 0.0
H1742 H 0.13764 0.21122 0.80942 0.0
H1743 H 0.17932 0.20755 0.90468 0.0
H1744 H 0.271 0.15952 0.87272 0.0
H1745 H 0.2403 0.17991 0.88055 0.0
H1746 H 0.19749 0.17419 0.78861 0.0
C1747 C 0.14232 0.2247 0.82414 0.0
C1748 C 0.18304 0.20023 0.87925 0.0
C1749 C 0.13091 0.24255 0.82018 0.0
C1750 C 0.2572 0.15493 0.85867 0.0
C1751 C 0.23952 0.16654 0.86344 0.0
C1752 C 0.1933 0.18096 0.8143 0.0
C1753 C 0.15985 0.22441 0.84618 0.0
C1754 C 0.17349 0.20635 0.84695 0.0
C1755 C 0.22145 0.16161 0.84475 0.0
C1756 C 0.20361 0.17556 0.84626 0.0
H1757 H 0.15876 0.27347 0.87577 0.0
H1758 H 0.17877 0.24248 0.88222 0.0
H1759 H 0.17154 0.20071 0.7892 0.0
H1760 H 0.23835 0.11969 0.79953 0.0
H1761 H 0.20743 0.13998 0.80799 0.0
C1762 C 0.13381 0.75696 0.17885 0.0
C1763 C 0.13956 0.73896 0.1609 0.0
C1764 C 0.14521 0.77478 0.17459 0.0
C1765 C 0.18469 0.79953 0.11775 0.0
H1766 H 0.20054 0.82583 0.20746 0.0
C1767 C 0.25821 0.84629 0.13288 0.0
C1768 C 0.25877 0.86278 0.15713 0.0
C1769 C 0.24058 0.83451 0.12929 0.0
C1770 C 0.19593 0.81901 0.18204 0.0
H1771 H 0.16126 0.72585 0.12305 0.0
H1772 H 0.18124 0.75689 0.11589 0.0
H1773 H 0.17511 0.7988 0.20845 0.0
H1774 H 0.24079 0.88058 0.19501 0.0
H1775 H 0.20985 0.86003 0.1885 0.0
H1776 H 0.20597 0.8194 0.09148 0.0
C1777 C 0.16784 0.75725 0.1331 0.0
C1778 C 0.18137 0.80347 0.18262 0.0
C1779 C 0.15647 0.73941 0.13744 0.0
C1780 C 0.24092 0.86788 0.17632 0.0
C1781 C 0.22323 0.85605 0.17272 0.0
C1782 C 0.19922 0.81514 0.11714 0.0
C1783 C 0.16255 0.77502 0.15216 0.0
C1784 C 0.17598 0.79321 0.15062 0.0
C1785 C 0.22303 0.83896 0.14977 0.0
C1786 C 0.2054 0.82468 0.14942 0.0
H1787 H 0.12075 0.75722 0.19689 0.0
H1788 H 0.14063 0.78831 0.18928 0.0
H1789 H 0.18058 0.79213 0.09258 0.0
H1790 H 0.27163 0.84201 0.11745 0.0
H1791 H 0.24106 0.82133 0.11168 0.0
loop_
_geom_bond_atom_site_label_1
_geom_bond_atom_site_label_2
_geom_bond_distance
_geom_bond_site_symmetry_2
_ccdc_geom_bond_type
Fe0 O2 1.918 . S
Fe0 O5 1.997 . S
Fe0 O6 2.002 . S
Fe0 O11 1.976 . S
Fe0 O14 1.996 . S
Fe1 O2 1.918 . S
Fe1 O9 1.997 . S
Fe1 O12 1.996 . S
Fe1 O16 1.976 . S
Fe1 O19 2.002 . S
O2 Fe0 1.918 . S
O2 Fe1 1.918 . S
O2 Fe3 1.918 . S
Fe3 O2 1.918 . S
Fe3 O4 2.002 . S
Fe3 O13 1.976 . S
Fe3 O17 1.996 . S
Fe3 O20 1.997 . S
O4 Fe3 2.002 . S
O4 C21 1.295 . S
O5 Fe0 1.997 . S
O5 C21 1.235 . S
O6 Fe0 2.002 . S
O6 C7 1.295 . S
C7 O6 1.295 . S
C7 O9 1.235 . S
C8 O13 1.287 . S
C8 O14 1.255 . S
O9 Fe1 1.997 . S
O9 C7 1.235 . S
C10 O16 1.287 . S
C10 O17 1.255 . S
O11 Fe0 1.976 . S
O11 C18 1.287 . S
O12 Fe1 1.996 . S
O12 C18 1.255 . S
O13 Fe3 1.976 . S
O13 C8 1.287 . S
O14 Fe0 1.996 . S
O14 C8 1.255 . S
C15 O19 1.295 . S
C15 O20 1.235 . S
O16 Fe1 1.976 . S
O16 C10 1.287 . S
O17 Fe3 1.996 . S
O17 C10 1.255 . S
C18 O11 1.287 . S
C18 O12 1.255 . S
O19 Fe1 2.002 . S
O19 C15 1.295 . S
O20 Fe3 1.997 . S
O20 C15 1.235 . S
C21 O4 1.295 . S
C21 O5 1.235 . S
Fe22 O24 1.918 . S
Fe22 O27 1.997 . S
Fe22 O28 2.002 . S
Fe22 O33 1.976 . S
Fe22 O36 1.996 . S
Fe23 O24 1.918 . S
Fe23 O31 1.997 . S
Fe23 O34 1.996 . S
Fe23 O38 1.976 . S
Fe23 O41 2.002 . S
O24 Fe22 1.918 . S
O24 Fe23 1.918 . S
O24 Fe25 1.918 . S
Fe25 O24 1.918 . S
Fe25 O26 2.002 . S
Fe25 O35 1.976 . S
Fe25 O39 1.996 . S
Fe25 O42 1.997 . S
O26 Fe25 2.002 . S
O26 C43 1.295 . S
O27 Fe22 1.997 . S
O27 C43 1.235 . S
O28 Fe22 2.002 . S
O28 C29 1.295 . S
C29 O28 1.295 . S
C29 O31 1.235 . S
C30 O35 1.287 . S
C30 O36 1.255 . S
O31 Fe23 1.997 . S
O31 C29 1.235 . S
C32 O38 1.287 . S
C32 O39 1.255 . S
O33 Fe22 1.976 . S
O33 C40 1.287 . S
O34 Fe23 1.996 . S
O34 C40 1.255 . S
O35 Fe25 1.976 . S
O35 C30 1.287 . S
O36 Fe22 1.996 . S
O36 C30 1.255 . S
C37 O41 1.295 . S
C37 O42 1.235 . S
O38 Fe23 1.976 . S
O38 C32 1.287 . S
O39 Fe25 1.996 . S
O39 C32 1.255 . S
C40 O33 1.287 . S
C40 O34 1.255 . S
O41 Fe23 2.002 . S
O41 C37 1.295 . S
O42 Fe25 1.997 . S
O42 C37 1.235 . S
C43 O26 1.295 . S
C43 O27 1.235 . S
Fe44 O46 1.918 . S
Fe44 O49 1.997 . S
Fe44 O50 2.002 . S
Fe44 O55 1.976 . S
Fe44 O58 1.996 . S
Fe45 O46 1.918 . S
Fe45 O53 1.997 . S
Fe45 O56 1.996 . S
Fe45 O60 1.976 . S
Fe45 O63 2.002 . S
O46 Fe44 1.918 . S
O46 Fe45 1.918 . S
O46 Fe47 1.918 . S
Fe47 O46 1.918 . S
Fe47 O48 2.002 . S
Fe47 O57 1.976 . S
Fe47 O61 1.996 . S
Fe47 O64 1.997 . S
O48 Fe47 2.002 . S
O48 C65 1.295 . S
O49 Fe44 1.997 . S
O49 C65 1.235 . S
O50 Fe44 2.002 . S
O50 C51 1.295 . S
C51 O50 1.295 . S
C51 O53 1.235 . S
C52 O57 1.287 . S
C52 O58 1.255 . S
O53 Fe45 1.997 . S
O53 C51 1.235 . S
C54 O60 1.287 . S
C54 O61 1.255 . S
O55 Fe44 1.976 . S
O55 C62 1.287 . S
O56 Fe45 1.996 . S
O56 C62 1.255 . S
O57 Fe47 1.976 . S
O57 C52 1.287 . S
O58 Fe44 1.996 . S
O58 C52 1.255 . S
C59 O63 1.295 . S
C59 O64 1.235 . S
O60 Fe45 1.976 . S
O60 C54 1.287 . S
O61 Fe47 1.996 . S
O61 C54 1.255 . S
C62 O55 1.287 . S
C62 O56 1.255 . S
O63 Fe45 2.002 . S
O63 C59 1.295 . S
O64 Fe47 1.997 . S
O64 C59 1.235 . S
C65 O48 1.295 . S
C65 O49 1.235 . S
Fe66 O68 1.918 . S
Fe66 O71 1.997 . S
Fe66 O72 2.002 . S
Fe66 O77 1.976 . S
Fe66 O80 1.996 . S
Fe67 O68 1.918 . S
Fe67 O75 1.997 . S
Fe67 O78 1.996 . S
Fe67 O82 1.976 . S
Fe67 O85 2.002 . S
O68 Fe66 1.918 . S
O68 Fe67 1.918 . S
O68 Fe69 1.918 . S
Fe69 O68 1.918 . S
Fe69 O70 2.002 . S
Fe69 O79 1.976 . S
Fe69 O83 1.996 . S
Fe69 O86 1.997 . S
O70 Fe69 2.002 . S
O70 C87 1.295 . S
O71 Fe66 1.997 . S
O71 C87 1.235 . S
O72 Fe66 2.002 . S
O72 C73 1.295 . S
C73 O72 1.295 . S
C73 O75 1.235 . S
C74 O79 1.287 . S
C74 O80 1.255 . S
O75 Fe67 1.997 . S
O75 C73 1.235 . S
C76 O82 1.287 . S
C76 O83 1.255 . S
O77 Fe66 1.976 . S
O77 C84 1.287 . S
O78 Fe67 1.996 . S
O78 C84 1.255 . S
O79 Fe69 1.976 . S
O79 C74 1.287 . S
O80 Fe66 1.996 . S
O80 C74 1.255 . S
C81 O85 1.295 . S
C81 O86 1.235 . S
O82 Fe67 1.976 . S
O82 C76 1.287 . S
O83 Fe69 1.996 . S
O83 C76 1.255 . S
C84 O77 1.287 . S
C84 O78 1.255 . S
O85 Fe67 2.002 . S
O85 C81 1.295 . S
O86 Fe69 1.997 . S
O86 C81 1.235 . S
C87 O70 1.295 . S
C87 O71 1.235 . S
Fe88 O90 1.918 . S
Fe88 O93 1.997 . S
Fe88 O94 2.002 . S
Fe88 O99 1.976 . S
Fe88 O102 1.996 . S
Fe89 O90 1.918 . S
Fe89 O97 1.997 . S
Fe89 O100 1.996 . S
Fe89 O104 1.976 . S
Fe89 O107 2.002 . S
O90 Fe88 1.918 . S
O90 Fe89 1.918 . S
O90 Fe91 1.918 . S
Fe91 O90 1.918 . S
Fe91 O92 2.002 . S
Fe91 O101 1.976 . S
Fe91 O105 1.996 . S
Fe91 O108 1.997 . S
O92 Fe91 2.002 . S
O92 C109 1.295 . S
O93 Fe88 1.997 . S
O93 C109 1.235 . S
O94 Fe88 2.002 . S
O94 C95 1.295 . S
C95 O94 1.295 . S
C95 O97 1.235 . S
C96 O101 1.287 . S
C96 O102 1.255 . S
O97 Fe89 1.997 . S
O97 C95 1.235 . S
C98 O104 1.287 . S
C98 O105 1.255 . S
O99 Fe88 1.976 . S
O99 C106 1.287 . S
O100 Fe89 1.996 . S
O100 C106 1.255 . S
O101 Fe91 1.976 . S
O101 C96 1.287 . S
O102 Fe88 1.996 . S
O102 C96 1.255 . S
C103 O107 1.295 . S
C103 O108 1.235 . S
O104 Fe89 1.976 . S
O104 C98 1.287 . S
O105 Fe91 1.996 . S
O105 C98 1.255 . S
C106 O99 1.287 . S
C106 O100 1.255 . S
O107 Fe89 2.002 . S
O107 C103 1.295 . S
O108 Fe91 1.997 . S
O108 C103 1.235 . S
C109 O92 1.295 . S
C109 O93 1.235 . S
Fe110 O112 1.918 . S
Fe110 O115 1.997 . S
Fe110 O116 2.002 . S
Fe110 O121 1.976 . S
Fe110 O124 1.996 . S
Fe111 O112 1.918 . S
Fe111 O119 1.997 . S
Fe111 O122 1.996 . S
Fe111 O126 1.976 . S
Fe111 O129 2.002 . S
O112 Fe110 1.918 . S
O112 Fe111 1.918 . S
O112 Fe113 1.918 . S
Fe113 O112 1.918 . S
Fe113 O114 2.002 . S
Fe113 O123 1.976 . S
Fe113 O127 1.996 . S
Fe113 O130 1.997 . S
O114 Fe113 2.002 . S
O114 C131 1.295 . S
O115 Fe110 1.997 . S
O115 C131 1.235 . S
O116 Fe110 2.002 . S
O116 C117 1.295 . S
C117 O116 1.295 . S
C117 O119 1.235 . S
C118 O123 1.287 . S
C118 O124 1.255 . S
O119 Fe111 1.997 . S
O119 C117 1.235 . S
C120 O126 1.287 . S
C120 O127 1.255 . S
O121 Fe110 1.976 . S
O121 C128 1.287 . S
O122 Fe111 1.996 . S
O122 C128 1.255 . S
O123 Fe113 1.976 . S
O123 C118 1.287 . S
O124 Fe110 1.996 . S
O124 C118 1.255 . S
C125 O129 1.295 . S
C125 O130 1.235 . S
O126 Fe111 1.976 . S
O126 C120 1.287 . S
O127 Fe113 1.996 . S
O127 C120 1.255 . S
C128 O121 1.287 . S
C128 O122 1.255 . S
O129 Fe111 2.002 . S
O129 C125 1.295 . S
O130 Fe113 1.997 . S
O130 C125 1.235 . S
C131 O114 1.295 . S
C131 O115 1.235 . S
Fe132 O134 1.918 . S
Fe132 O137 1.997 . S
Fe132 O138 2.002 . S
Fe132 O143 1.976 . S
Fe132 O146 1.996 . S
Fe133 O134 1.918 . S
Fe133 O141 1.997 . S
Fe133 O144 1.996 . S
Fe133 O148 1.976 . S
Fe133 O151 2.002 . S
O134 Fe132 1.918 . S
O134 Fe133 1.918 . S
O134 Fe135 1.918 . S
Fe135 O134 1.918 . S
Fe135 O136 2.002 . S
Fe135 O145 1.976 . S
Fe135 O149 1.996 . S
Fe135 O152 1.997 . S
O136 Fe135 2.002 . S
O136 C153 1.295 . S
O137 Fe132 1.997 . S
O137 C153 1.235 . S
O138 Fe132 2.002 . S
O138 C139 1.295 . S
C139 O138 1.295 . S
C139 O141 1.235 . S
C140 O145 1.287 . S
C140 O146 1.255 . S
O141 Fe133 1.997 . S
O141 C139 1.235 . S
C142 O148 1.287 . S
C142 O149 1.255 . S
O143 Fe132 1.976 . S
O143 C150 1.287 . S
O144 Fe133 1.996 . S
O144 C150 1.255 . S
O145 Fe135 1.976 . S
O145 C140 1.287 . S
O146 Fe132 1.996 . S
O146 C140 1.255 . S
C147 O151 1.295 . S
C147 O152 1.235 . S
O148 Fe133 1.976 . S
O148 C142 1.287 . S
O149 Fe135 1.996 . S
O149 C142 1.255 . S
C150 O143 1.287 . S
C150 O144 1.255 . S
O151 Fe133 2.002 . S
O151 C147 1.295 . S
O152 Fe135 1.997 . S
O152 C147 1.235 . S
C153 O136 1.295 . S
C153 O137 1.235 . S
Fe154 O156 1.918 . S
Fe154 O159 1.997 . S
Fe154 O160 2.002 . S
Fe154 O165 1.976 . S
Fe154 O168 1.996 . S
Fe155 O156 1.918 . S
Fe155 O163 1.997 . S
Fe155 O166 1.996 . S
Fe155 O170 1.976 . S
Fe155 O173 2.002 . S
O156 Fe154 1.918 . S
O156 Fe155 1.918 . S
O156 Fe157 1.918 . S
Fe157 O156 1.918 . S
Fe157 O158 2.002 . S
Fe157 O167 1.976 . S
Fe157 O171 1.996 . S
Fe157 O174 1.997 . S
O158 Fe157 2.002 . S
O158 C175 1.295 . S
O159 Fe154 1.997 . S
O159 C175 1.235 . S
O160 Fe154 2.002 . S
O160 C161 1.295 . S
C161 O160 1.295 . S
C161 O163 1.235 . S
C162 O167 1.287 . S
C162 O168 1.255 . S
O163 Fe155 1.997 . S
O163 C161 1.235 . S
C164 O170 1.287 . S
C164 O171 1.255 . S
O165 Fe154 1.976 . S
O165 C172 1.287 . S
O166 Fe155 1.996 . S
O166 C172 1.255 . S
O167 Fe157 1.976 . S
O167 C162 1.287 . S
O168 Fe154 1.996 . S
O168 C162 1.255 . S
C169 O173 1.295 . S
C169 O174 1.235 . S
O170 Fe155 1.976 . S
O170 C164 1.287 . S
O171 Fe157 1.996 . S
O171 C164 1.255 . S
C172 O165 1.287 . S
C172 O166 1.255 . S
O173 Fe155 2.002 . S
O173 C169 1.295 . S
O174 Fe157 1.997 . S
O174 C169 1.235 . S
C175 O158 1.295 . S
C175 O159 1.235 . S
Fe176 O178 1.918 . S
Fe176 O181 1.997 . S
Fe176 O182 2.002 . S
Fe176 O187 1.976 . S
Fe176 O190 1.996 . S
Fe177 O178 1.918 . S
Fe177 O185 1.997 . S
Fe177 O188 1.996 . S
Fe177 O192 1.976 . S
Fe177 O195 2.002 . S
O178 Fe176 1.918 . S
O178 Fe177 1.918 . S
O178 Fe179 1.918 . S
Fe179 O178 1.918 . S
Fe179 O180 2.002 . S
Fe179 O189 1.976 . S
Fe179 O193 1.996 . S
Fe179 O196 1.997 . S
O180 Fe179 2.002 . S
O180 C197 1.295 . S
O181 Fe176 1.997 . S
O181 C197 1.235 . S
O182 Fe176 2.002 . S
O182 C183 1.295 . S
C183 O182 1.295 . S
C183 O185 1.235 . S
C184 O189 1.287 . S
C184 O190 1.255 . S
O185 Fe177 1.997 . S
O185 C183 1.235 . S
C186 O192 1.287 . S
C186 O193 1.255 . S
O187 Fe176 1.976 . S
O187 C194 1.287 . S
O188 Fe177 1.996 . S
O188 C194 1.255 . S
O189 Fe179 1.976 . S
O189 C184 1.287 . S
O190 Fe176 1.996 . S
O190 C184 1.255 . S
C191 O195 1.295 . S
C191 O196 1.235 . S
O192 Fe177 1.976 . S
O192 C186 1.287 . S
O193 Fe179 1.996 . S
O193 C186 1.255 . S
C194 O187 1.287 . S
C194 O188 1.255 . S
O195 Fe177 2.002 . S
O195 C191 1.295 . S
O196 Fe179 1.997 . S
O196 C191 1.235 . S
C197 O180 1.295 . S
C197 O181 1.235 . S
Fe198 O200 1.918 . S
Fe198 O203 1.997 . S
Fe198 O204 2.002 . S
Fe198 O209 1.976 . S
Fe198 O212 1.996 . S
Fe199 O200 1.918 . S
Fe199 O207 1.997 . S
Fe199 O210 1.996 . S
Fe199 O214 1.976 . S
Fe199 O217 2.002 . S
O200 Fe198 1.918 . S
O200 Fe199 1.918 . S
O200 Fe201 1.918 . S
Fe201 O200 1.918 . S
Fe201 O202 2.002 . S
Fe201 O211 1.976 . S
Fe201 O215 1.996 . S
Fe201 O218 1.997 . S
O202 Fe201 2.002 . S
O202 C219 1.295 . S
O203 Fe198 1.997 . S
O203 C219 1.235 . S
O204 Fe198 2.002 . S
O204 C205 1.295 . S
C205 O204 1.295 . S
C205 O207 1.235 . S
C206 O211 1.287 . S
C206 O212 1.255 . S
O207 Fe199 1.997 . S
O207 C205 1.235 . S
C208 O214 1.287 . S
C208 O215 1.255 . S
O209 Fe198 1.976 . S
O209 C216 1.287 . S
O210 Fe199 1.996 . S
O210 C216 1.255 . S
O211 Fe201 1.976 . S
O211 C206 1.287 . S
O212 Fe198 1.996 . S
O212 C206 1.255 . S
C213 O217 1.295 . S
C213 O218 1.235 . S
O214 Fe199 1.976 . S
O214 C208 1.287 . S
O215 Fe201 1.996 . S
O215 C208 1.255 . S
C216 O209 1.287 . S
C216 O210 1.255 . S
O217 Fe199 2.002 . S
O217 C213 1.295 . S
O218 Fe201 1.997 . S
O218 C213 1.235 . S
C219 O202 1.295 . S
C219 O203 1.235 . S
Fe220 O222 1.918 . S
Fe220 O225 1.997 . S
Fe220 O226 2.002 . S
Fe220 O231 1.976 . S
Fe220 O234 1.996 . S
Fe221 O222 1.918 . S
Fe221 O229 1.997 . S
Fe221 O232 1.996 . S
Fe221 O236 1.976 . S
Fe221 O239 2.002 . S
O222 Fe220 1.918 . S
O222 Fe221 1.918 . S
O222 Fe223 1.918 . S
Fe223 O222 1.918 . S
Fe223 O224 2.002 . S
Fe223 O233 1.976 . S
Fe223 O237 1.996 . S
Fe223 O240 1.997 . S
O224 Fe223 2.002 . S
O224 C241 1.295 . S
O225 Fe220 1.997 . S
O225 C241 1.235 . S
O226 Fe220 2.002 . S
O226 C227 1.295 . S
C227 O226 1.295 . S
C227 O229 1.235 . S
C228 O233 1.287 . S
C228 O234 1.255 . S
O229 Fe221 1.997 . S
O229 C227 1.235 . S
C230 O236 1.287 . S
C230 O237 1.255 . S
O231 Fe220 1.976 . S
O231 C238 1.287 . S
O232 Fe221 1.996 . S
O232 C238 1.255 . S
O233 Fe223 1.976 . S
O233 C228 1.287 . S
O234 Fe220 1.996 . S
O234 C228 1.255 . S
C235 O239 1.295 . S
C235 O240 1.235 . S
O236 Fe221 1.976 . S
O236 C230 1.287 . S
O237 Fe223 1.996 . S
O237 C230 1.255 . S
C238 O231 1.287 . S
C238 O232 1.255 . S
O239 Fe221 2.002 . S
O239 C235 1.295 . S
O240 Fe223 1.997 . S
O240 C235 1.235 . S
C241 O224 1.295 . S
C241 O225 1.235 . S
Fe242 O244 1.918 . S
Fe242 O247 1.997 . S
Fe242 O248 2.002 . S
Fe242 O253 1.976 . S
Fe242 O256 1.996 . S
Fe243 O244 1.918 . S
Fe243 O251 1.997 . S
Fe243 O254 1.996 . S
Fe243 O258 1.976 . S
Fe243 O261 2.002 . S
O244 Fe242 1.918 . S
O244 Fe243 1.918 . S
O244 Fe245 1.918 . S
Fe245 O244 1.918 . S
Fe245 O246 2.002 . S
Fe245 O255 1.976 . S
Fe245 O259 1.996 . S
Fe245 O262 1.997 . S
O246 Fe245 2.002 . S
O246 C263 1.295 . S
O247 Fe242 1.997 . S
O247 C263 1.235 . S
O248 Fe242 2.002 . S
O248 C249 1.295 . S
C249 O248 1.295 . S
C249 O251 1.235 . S
C250 O255 1.287 . S
C250 O256 1.255 . S
O251 Fe243 1.997 . S
O251 C249 1.235 . S
C252 O258 1.287 . S
C252 O259 1.255 . S
O253 Fe242 1.976 . S
O253 C260 1.287 . S
O254 Fe243 1.996 . S
O254 C260 1.255 . S
O255 Fe245 1.976 . S
O255 C250 1.287 . S
O256 Fe242 1.996 . S
O256 C250 1.255 . S
C257 O261 1.295 . S
C257 O262 1.235 . S
O258 Fe243 1.976 . S
O258 C252 1.287 . S
O259 Fe245 1.996 . S
O259 C252 1.255 . S
C260 O253 1.287 . S
C260 O254 1.255 . S
O261 Fe243 2.002 . S
O261 C257 1.295 . S
O262 Fe245 1.997 . S
O262 C257 1.235 . S
C263 O246 1.295 . S
C263 O247 1.235 . S
Fe264 O266 1.918 . S
Fe264 O269 1.997 . S
Fe264 O270 2.002 . S
Fe264 O275 1.976 . S
Fe264 O278 1.996 . S
Fe265 O266 1.918 . S
Fe265 O273 1.997 . S
Fe265 O276 1.996 . S
Fe265 O280 1.976 . S
Fe265 O283 2.002 . S
O266 Fe264 1.918 . S
O266 Fe265 1.918 . S
O266 Fe267 1.918 . S
Fe267 O266 1.918 . S
Fe267 O268 2.002 . S
Fe267 O277 1.976 . S
Fe267 O281 1.996 . S
Fe267 O284 1.997 . S
O268 Fe267 2.002 . S
O268 C285 1.295 . S
O269 Fe264 1.997 . S
O269 C285 1.235 . S
O270 Fe264 2.002 . S
O270 C271 1.295 . S
C271 O270 1.295 . S
C271 O273 1.235 . S
C272 O277 1.287 . S
C272 O278 1.255 . S
O273 Fe265 1.997 . S
O273 C271 1.235 . S
C274 O280 1.287 . S
C274 O281 1.255 . S
O275 Fe264 1.976 . S
O275 C282 1.287 . S
O276 Fe265 1.996 . S
O276 C282 1.255 . S
O277 Fe267 1.976 . S
O277 C272 1.287 . S
O278 Fe264 1.996 . S
O278 C272 1.255 . S
C279 O283 1.295 . S
C279 O284 1.235 . S
O280 Fe265 1.976 . S
O280 C274 1.287 . S
O281 Fe267 1.996 . S
O281 C274 1.255 . S
C282 O275 1.287 . S
C282 O276 1.255 . S
O283 Fe265 2.002 . S
O283 C279 1.295 . S
O284 Fe267 1.997 . S
O284 C279 1.235 . S
C285 O268 1.295 . S
C285 O269 1.235 . S
Fe286 O288 1.918 . S
Fe286 O291 1.997 . S
Fe286 O292 2.002 . S
Fe286 O297 1.976 . S
Fe286 O300 1.996 . S
Fe287 O288 1.918 . S
Fe287 O295 1.997 . S
Fe287 O298 1.996 . S
Fe287 O302 1.976 . S
Fe287 O305 2.002 . S
O288 Fe286 1.918 . S
O288 Fe287 1.918 . S
O288 Fe289 1.918 . S
Fe289 O288 1.918 . S
Fe289 O290 2.002 . S
Fe289 O299 1.976 . S
Fe289 O303 1.996 . S
Fe289 O306 1.997 . S
O290 Fe289 2.002 . S
O290 C307 1.295 . S
O291 Fe286 1.997 . S
O291 C307 1.235 . S
O292 Fe286 2.002 . S
O292 C293 1.295 . S
C293 O292 1.295 . S
C293 O295 1.235 . S
C294 O299 1.287 . S
C294 O300 1.255 . S
O295 Fe287 1.997 . S
O295 C293 1.235 . S
C296 O302 1.287 . S
C296 O303 1.255 . S
O297 Fe286 1.976 . S
O297 C304 1.287 . S
O298 Fe287 1.996 . S
O298 C304 1.255 . S
O299 Fe289 1.976 . S
O299 C294 1.287 . S
O300 Fe286 1.996 . S
O300 C294 1.255 . S
C301 O305 1.295 . S
C301 O306 1.235 . S
O302 Fe287 1.976 . S
O302 C296 1.287 . S
O303 Fe289 1.996 . S
O303 C296 1.255 . S
C304 O297 1.287 . S
C304 O298 1.255 . S
O305 Fe287 2.002 . S
O305 C301 1.295 . S
O306 Fe289 1.997 . S
O306 C301 1.235 . S
C307 O290 1.295 . S
C307 O291 1.235 . S
Fe308 O310 1.918 . S
Fe308 O313 1.997 . S
Fe308 O314 2.002 . S
Fe308 O319 1.976 . S
Fe308 O322 1.996 . S
Fe309 O310 1.918 . S
Fe309 O317 1.997 . S
Fe309 O320 1.996 . S
Fe309 O324 1.976 . S
Fe309 O327 2.002 . S
O310 Fe308 1.918 . S
O310 Fe309 1.918 . S
O310 Fe311 1.918 . S
Fe311 O310 1.918 . S
Fe311 O312 2.002 . S
Fe311 O321 1.976 . S
Fe311 O325 1.996 . S
Fe311 O328 1.997 . S
O312 Fe311 2.002 . S
O312 C329 1.295 . S
O313 Fe308 1.997 . S
O313 C329 1.235 . S
O314 Fe308 2.002 . S
O314 C315 1.295 . S
C315 O314 1.295 . S
C315 O317 1.235 . S
C316 O321 1.287 . S
C316 O322 1.255 . S
O317 Fe309 1.997 . S
O317 C315 1.235 . S
C318 O324 1.287 . S
C318 O325 1.255 . S
O319 Fe308 1.976 . S
O319 C326 1.287 . S
O320 Fe309 1.996 . S
O320 C326 1.255 . S
O321 Fe311 1.976 . S
O321 C316 1.287 . S
O322 Fe308 1.996 . S
O322 C316 1.255 . S
C323 O327 1.295 . S
C323 O328 1.235 . S
O324 Fe309 1.976 . S
O324 C318 1.287 . S
O325 Fe311 1.996 . S
O325 C318 1.255 . S
C326 O319 1.287 . S
C326 O320 1.255 . S
O327 Fe309 2.002 . S
O327 C323 1.295 . S
O328 Fe311 1.997 . S
O328 C323 1.235 . S
C329 O312 1.295 . S
C329 O313 1.235 . S
Fe330 O332 1.918 . S
Fe330 O335 1.997 . S
Fe330 O336 2.002 . S
Fe330 O341 1.976 . S
Fe330 O344 1.996 . S
Fe331 O332 1.918 . S
Fe331 O339 1.997 . S
Fe331 O342 1.996 . S
Fe331 O346 1.976 . S
Fe331 O349 2.002 . S
O332 Fe330 1.918 . S
O332 Fe331 1.918 . S
O332 Fe333 1.918 . S
Fe333 O332 1.918 . S
Fe333 O334 2.002 . S
Fe333 O343 1.976 . S
Fe333 O347 1.996 . S
Fe333 O350 1.997 . S
O334 Fe333 2.002 . S
O334 C351 1.295 . S
O335 Fe330 1.997 . S
O335 C351 1.235 . S
O336 Fe330 2.002 . S
O336 C337 1.295 . S
C337 O336 1.295 . S
C337 O339 1.235 . S
C338 O343 1.287 . S
C338 O344 1.255 . S
O339 Fe331 1.997 . S
O339 C337 1.235 . S
C340 O346 1.287 . S
C340 O347 1.255 . S
O341 Fe330 1.976 . S
O341 C348 1.287 . S
O342 Fe331 1.996 . S
O342 C348 1.255 . S
O343 Fe333 1.976 . S
O343 C338 1.287 . S
O344 Fe330 1.996 . S
O344 C338 1.255 . S
C345 O349 1.295 . S
C345 O350 1.235 . S
O346 Fe331 1.976 . S
O346 C340 1.287 . S
O347 Fe333 1.996 . S
O347 C340 1.255 . S
C348 O341 1.287 . S
C348 O342 1.255 . S
O349 Fe331 2.002 . S
O349 C345 1.295 . S
O350 Fe333 1.997 . S
O350 C345 1.235 . S
C351 O334 1.295 . S
C351 O335 1.235 . S
C352 C353 1.349 . S
C352 C354 1.327 . S
C352 H377 0.950 . S
C353 C352 1.349 . S
C353 C369 1.349 . S
C354 C352 1.327 . S
C354 C373 1.429 . S
C354 H378 0.950 . S
C355 C372 1.574 . S
C355 C374 1.368 . S
C355 H379 0.949 . S
H356 C360 0.949 . S
C357 C358 1.349 . S
C357 C359 1.327 . S
C357 H380 0.950 . S
C358 C357 1.349 . S
C358 C370 1.349 . S
C359 C357 1.327 . S
C359 C375 1.429 . S
C359 H381 0.950 . S
C360 H356 0.949 . S
C360 C368 1.574 . S
C360 C376 1.368 . S
H361 C369 0.950 . S
H362 C367 0.950 . S
H363 C368 0.949 . S
H364 C370 0.950 . S
H365 C371 0.950 . S
H366 C372 0.949 . S
C367 H362 0.950 . S
C367 C369 1.327 . S
C367 C373 1.429 . S
C368 C360 1.574 . S
C368 H363 0.949 . S
C368 C374 1.368 . S
C369 C353 1.349 . S
C369 H361 0.950 . S
C369 C367 1.327 . S
C370 C358 1.349 . S
C370 H364 0.950 . S
C370 C371 1.327 . S
C371 H365 0.950 . S
C371 C370 1.327 . S
C371 C375 1.429 . S
C372 C355 1.574 . S
C372 H366 0.949 . S
C372 C376 1.368 . S
C373 C354 1.429 . S
C373 C367 1.429 . S
C373 C374 1.523 . S
C374 C355 1.368 . S
C374 C368 1.368 . S
C374 C373 1.523 . S
C375 C359 1.429 . S
C375 C371 1.429 . S
C375 C376 1.523 . S
C376 C360 1.368 . S
C376 C372 1.368 . S
C376 C375 1.523 . S
H377 C352 0.950 . S
H378 C354 0.950 . S
H379 C355 0.949 . S
H380 C357 0.950 . S
H381 C359 0.950 . S
C382 C383 1.349 . S
C382 C384 1.327 . S
C382 H407 0.950 . S
C383 C382 1.349 . S
C383 C399 1.349 . S
C384 C382 1.327 . S
C384 C403 1.429 . S
C384 H408 0.950 . S
C385 C402 1.574 . S
C385 C404 1.368 . S
C385 H409 0.949 . S
H386 C390 0.949 . S
C387 C388 1.349 . S
C387 C389 1.327 . S
C387 H410 0.950 . S
C388 C387 1.349 . S
C388 C400 1.349 . S
C389 C387 1.327 . S
C389 C405 1.429 . S
C389 H411 0.950 . S
C390 H386 0.949 . S
C390 C398 1.574 . S
C390 C406 1.368 . S
H391 C399 0.950 . S
H392 C397 0.950 . S
H393 C398 0.949 . S
H394 C400 0.950 . S
H395 C401 0.950 . S
H396 C402 0.949 . S
C397 H392 0.950 . S
C397 C399 1.327 . S
C397 C403 1.429 . S
C398 C390 1.574 . S
C398 H393 0.949 . S
C398 C404 1.368 . S
C399 C383 1.349 . S
C399 H391 0.950 . S
C399 C397 1.327 . S
C400 C388 1.349 . S
C400 H394 0.950 . S
C400 C401 1.327 . S
C401 H395 0.950 . S
C401 C400 1.327 . S
C401 C405 1.429 . S
C402 C385 1.574 . S
C402 H396 0.949 . S
C402 C406 1.368 . S
C403 C384 1.429 . S
C403 C397 1.429 . S
C403 C404 1.523 . S
C404 C385 1.368 . S
C404 C398 1.368 . S
C404 C403 1.523 . S
C405 C389 1.429 . S
C405 C401 1.429 . S
C405 C406 1.523 . S
C406 C390 1.368 . S
C406 C402 1.368 . S
C406 C405 1.523 . S
H407 C382 0.950 . S
H408 C384 0.950 . S
H409 C385 0.949 . S
H410 C387 0.950 . S
H411 C389 0.950 . S
C412 C413 1.349 . S
C412 C414 1.327 . S
C412 H437 0.950 . S
C413 C412 1.349 . S
C413 C429 1.349 . S
C414 C412 1.327 . S
C414 C433 1.429 . S
C414 H438 0.950 . S
C415 C432 1.574 . S
C415 C434 1.368 . S
C415 H439 0.949 . S
H416 C420 0.949 . S
C417 C418 1.349 . S
C417 C419 1.327 . S
C417 H440 0.950 . S
C418 C417 1.349 . S
C418 C430 1.349 . S
C419 C417 1.327 . S
C419 C435 1.429 . S
C419 H441 0.950 . S
C420 H416 0.949 . S
C420 C428 1.574 . S
C420 C436 1.368 . S
H421 C429 0.950 . S
H422 C427 0.950 . S
H423 C428 0.949 . S
H424 C430 0.950 . S
H425 C431 0.950 . S
H426 C432 0.949 . S
C427 H422 0.950 . S
C427 C429 1.327 . S
C427 C433 1.429 . S
C428 C420 1.574 . S
C428 H423 0.949 . S
C428 C434 1.368 . S
C429 C413 1.349 . S
C429 H421 0.950 . S
C429 C427 1.327 . S
C430 C418 1.349 . S
C430 H424 0.950 . S
C430 C431 1.327 . S
C431 H425 0.950 . S
C431 C430 1.327 . S
C431 C435 1.429 . S
C432 C415 1.574 . S
C432 H426 0.949 . S
C432 C436 1.368 . S
C433 C414 1.429 . S
C433 C427 1.429 . S
C433 C434 1.523 . S
C434 C415 1.368 . S
C434 C428 1.368 . S
C434 C433 1.523 . S
C435 C419 1.429 . S
C435 C431 1.429 . S
C435 C436 1.523 . S
C436 C420 1.368 . S
C436 C432 1.368 . S
C436 C435 1.523 . S
H437 C412 0.950 . S
H438 C414 0.950 . S
H439 C415 0.949 . S
H440 C417 0.950 . S
H441 C419 0.950 . S
C442 C443 1.349 . S
C442 C444 1.327 . S
C442 H467 0.950 . S
C443 C442 1.349 . S
C443 C459 1.349 . S
C444 C442 1.327 . S
C444 C463 1.429 . S
C444 H468 0.950 . S
C445 C462 1.574 . S
C445 C464 1.368 . S
C445 H469 0.949 . S
H446 C450 0.949 . S
C447 C448 1.349 . S
C447 C449 1.327 . S
C447 H470 0.950 . S
C448 C447 1.349 . S
C448 C460 1.349 . S
C449 C447 1.327 . S
C449 C465 1.429 . S
C449 H471 0.950 . S
C450 H446 0.949 . S
C450 C458 1.574 . S
C450 C466 1.368 . S
H451 C459 0.950 . S
H452 C457 0.950 . S
H453 C458 0.949 . S
H454 C460 0.950 . S
H455 C461 0.950 . S
H456 C462 0.949 . S
C457 H452 0.950 . S
C457 C459 1.327 . S
C457 C463 1.429 . S
C458 C450 1.574 . S
C458 H453 0.949 . S
C458 C464 1.368 . S
C459 C443 1.349 . S
C459 H451 0.950 . S
C459 C457 1.327 . S
C460 C448 1.349 . S
C460 H454 0.950 . S
C460 C461 1.327 . S
C461 H455 0.950 . S
C461 C460 1.327 . S
C461 C465 1.429 . S
C462 C445 1.574 . S
C462 H456 0.949 . S
C462 C466 1.368 . S
C463 C444 1.429 . S
C463 C457 1.429 . S
C463 C464 1.523 . S
C464 C445 1.368 . S
C464 C458 1.368 . S
C464 C463 1.523 . S
C465 C449 1.429 . S
C465 C461 1.429 . S
C465 C466 1.523 . S
C466 C450 1.368 . S
C466 C462 1.368 . S
C466 C465 1.523 . S
H467 C442 0.950 . S
H468 C444 0.950 . S
H469 C445 0.949 . S
H470 C447 0.950 . S
H471 C449 0.950 . S
C472 C473 1.349 . S
C472 C474 1.327 . S
C472 H497 0.950 . S
C473 C472 1.349 . S
C473 C489 1.349 . S
C474 C472 1.327 . S
C474 C493 1.429 . S
C474 H498 0.950 . S
C475 C492 1.574 . S
C475 C494 1.368 . S
C475 H499 0.949 . S
H476 C480 0.949 . S
C477 C478 1.349 . S
C477 C479 1.327 . S
C477 H500 0.950 . S
C478 C477 1.349 . S
C478 C490 1.349 . S
C479 C477 1.327 . S
C479 C495 1.429 . S
C479 H501 0.950 . S
C480 H476 0.949 . S
C480 C488 1.574 . S
C480 C496 1.368 . S
H481 C489 0.950 . S
H482 C487 0.950 . S
H483 C488 0.949 . S
H484 C490 0.950 . S
H485 C491 0.950 . S
H486 C492 0.949 . S
C487 H482 0.950 . S
C487 C489 1.327 . S
C487 C493 1.429 . S
C488 C480 1.574 . S
C488 H483 0.949 . S
C488 C494 1.368 . S
C489 C473 1.349 . S
C489 H481 0.950 . S
C489 C487 1.327 . S
C490 C478 1.349 . S
C490 H484 0.950 . S
C490 C491 1.327 . S
C491 H485 0.950 . S
C491 C490 1.327 . S
C491 C495 1.429 . S
C492 C475 1.574 . S
C492 H486 0.949 . S
C492 C496 1.368 . S
C493 C474 1.429 . S
C493 C487 1.429 . S
C493 C494 1.523 . S
C494 C475 1.368 . S
C494 C488 1.368 . S
C494 C493 1.523 . S
C495 C479 1.429 . S
C495 C491 1.429 . S
C495 C496 1.523 . S
C496 C480 1.368 . S
C496 C492 1.368 . S
C496 C495 1.523 . S
H497 C472 0.950 . S
H498 C474 0.950 . S
H499 C475 0.949 . S
H500 C477 0.950 . S
H501 C479 0.950 . S
C502 C503 1.349 . S
C502 C504 1.327 . S
C502 H527 0.950 . S
C503 C502 1.349 . S
C503 C519 1.349 . S
C504 C502 1.327 . S
C504 C523 1.429 . S
C504 H528 0.950 . S
C505 C522 1.574 . S
C505 C524 1.368 . S
C505 H529 0.949 . S
H506 C510 0.949 . S
C507 C508 1.349 . S
C507 C509 1.327 . S
C507 H530 0.950 . S
C508 C507 1.349 . S
C508 C520 1.349 . S
C509 C507 1.327 . S
C509 C525 1.429 . S
C509 H531 0.950 . S
C510 H506 0.949 . S
C510 C518 1.574 . S
C510 C526 1.368 . S
H511 C519 0.950 . S
H512 C517 0.950 . S
H513 C518 0.949 . S
H514 C520 0.950 . S
H515 C521 0.950 . S
H516 C522 0.949 . S
C517 H512 0.950 . S
C517 C519 1.327 . S
C517 C523 1.429 . S
C518 C510 1.574 . S
C518 H513 0.949 . S
C518 C524 1.368 . S
C519 C503 1.349 . S
C519 H511 0.950 . S
C519 C517 1.327 . S
C520 C508 1.349 . S
C520 H514 0.950 . S
C520 C521 1.327 . S
C521 H515 0.950 . S
C521 C520 1.327 . S
C521 C525 1.429 . S
C522 C505 1.574 . S
C522 H516 0.949 . S
C522 C526 1.368 . S
C523 C504 1.429 . S
C523 C517 1.429 . S
C523 C524 1.523 . S
C524 C505 1.368 . S
C524 C518 1.368 . S
C524 C523 1.523 . S
C525 C509 1.429 . S
C525 C521 1.429 . S
C525 C526 1.523 . S
C526 C510 1.368 . S
C526 C522 1.368 . S
C526 C525 1.523 . S
H527 C502 0.950 . S
H528 C504 0.950 . S
H529 C505 0.949 . S
H530 C507 0.950 . S
H531 C509 0.950 . S
C532 C533 1.349 . S
C532 C534 1.327 . S
C532 H557 0.950 . S
C533 C532 1.349 . S
C533 C549 1.349 . S
C534 C532 1.327 . S
C534 C553 1.429 . S
C534 H558 0.950 . S
C535 C552 1.574 . S
C535 C554 1.368 . S
C535 H559 0.949 . S
H536 C540 0.949 . S
C537 C538 1.349 . S
C537 C539 1.327 . S
C537 H560 0.950 . S
C538 C537 1.349 . S
C538 C550 1.349 . S
C539 C537 1.327 . S
C539 C555 1.429 . S
C539 H561 0.950 . S
C540 H536 0.949 . S
C540 C548 1.574 . S
C540 C556 1.368 . S
H541 C549 0.950 . S
H542 C547 0.950 . S
H543 C548 0.949 . S
H544 C550 0.950 . S
H545 C551 0.950 . S
H546 C552 0.949 . S
C547 H542 0.950 . S
C547 C549 1.327 . S
C547 C553 1.429 . S
C548 C540 1.574 . S
C548 H543 0.949 . S
C548 C554 1.368 . S
C549 C533 1.349 . S
C549 H541 0.950 . S
C549 C547 1.327 . S
C550 C538 1.349 . S
C550 H544 0.950 . S
C550 C551 1.327 . S
C551 H545 0.950 . S
C551 C550 1.327 . S
C551 C555 1.429 . S
C552 C535 1.574 . S
C552 H546 0.949 . S
C552 C556 1.368 . S
C553 C534 1.429 . S
C553 C547 1.429 . S
C553 C554 1.523 . S
C554 C535 1.368 . S
C554 C548 1.368 . S
C554 C553 1.523 . S
C555 C539 1.429 . S
C555 C551 1.429 . S
C555 C556 1.523 . S
C556 C540 1.368 . S
C556 C552 1.368 . S
C556 C555 1.523 . S
H557 C532 0.950 . S
H558 C534 0.950 . S
H559 C535 0.949 . S
H560 C537 0.950 . S
H561 C539 0.950 . S
C562 C563 1.349 . S
C562 C564 1.327 . S
C562 H587 0.950 . S
C563 C562 1.349 . S
C563 C579 1.349 . S
C564 C562 1.327 . S
C564 C583 1.429 . S
C564 H588 0.950 . S
C565 C582 1.574 . S
C565 C584 1.368 . S
C565 H589 0.949 . S
H566 C570 0.949 . S
C567 C568 1.349 . S
C567 C569 1.327 . S
C567 H590 0.950 . S
C568 C567 1.349 . S
C568 C580 1.349 . S
C569 C567 1.327 . S
C569 C585 1.429 . S
C569 H591 0.950 . S
C570 H566 0.949 . S
C570 C578 1.574 . S
C570 C586 1.368 . S
H571 C579 0.950 . S
H572 C577 0.950 . S
H573 C578 0.949 . S
H574 C580 0.950 . S
H575 C581 0.950 . S
H576 C582 0.949 . S
C577 H572 0.950 . S
C577 C579 1.327 . S
C577 C583 1.429 . S
C578 C570 1.574 . S
C578 H573 0.949 . S
C578 C584 1.368 . S
C579 C563 1.349 . S
C579 H571 0.950 . S
C579 C577 1.327 . S
C580 C568 1.349 . S
C580 H574 0.950 . S
C580 C581 1.327 . S
C581 H575 0.950 . S
C581 C580 1.327 . S
C581 C585 1.429 . S
C582 C565 1.574 . S
C582 H576 0.949 . S
C582 C586 1.368 . S
C583 C564 1.429 . S
C583 C577 1.429 . S
C583 C584 1.523 . S
C584 C565 1.368 . S
C584 C578 1.368 . S
C584 C583 1.523 . S
C585 C569 1.429 . S
C585 C581 1.429 . S
C585 C586 1.523 . S
C586 C570 1.368 . S
C586 C582 1.368 . S
C586 C585 1.523 . S
H587 C562 0.950 . S
H588 C564 0.950 . S
H589 C565 0.949 . S
H590 C567 0.950 . S
H591 C569 0.950 . S
C592 C593 1.349 . S
C592 C594 1.327 . S
C592 H617 0.950 . S
C593 C592 1.349 . S
C593 C609 1.349 . S
C594 C592 1.327 . S
C594 C613 1.430 1_565 S
C594 H618 0.950 1_565 S
C595 C612 1.574 . S
C595 C614 1.368 . S
C595 H619 0.949 . S
H596 C600 0.949 . S
C597 C598 1.349 . S
C597 C599 1.327 . S
C597 H620 0.950 . S
C598 C597 1.349 . S
C598 C610 1.349 . S
C599 C597 1.327 . S
C599 C615 1.429 . S
C599 H621 0.950 . S
C600 H596 0.949 . S
C600 C608 1.574 . S
C600 C616 1.368 . S
H601 C609 0.950 . S
H602 C607 0.950 . S
H603 C608 0.949 . S
H604 C610 0.950 . S
H605 C611 0.950 . S
H606 C612 0.949 . S
C607 H602 0.950 . S
C607 C609 1.327 . S
C607 C613 1.433 1_565 S
C608 C600 1.574 . S
C608 H603 0.949 . S
C608 C614 1.368 . S
C609 C593 1.349 . S
C609 H601 0.950 . S
C609 C607 1.327 . S
C610 C598 1.349 . S
C610 H604 0.950 . S
C610 C611 1.327 . S
C611 H605 0.950 . S
C611 C610 1.327 . S
C611 C615 1.429 . S
C612 C595 1.574 . S
C612 H606 0.949 . S
C612 C616 1.368 . S
C613 C594 1.430 1_545 S
C613 C607 1.433 1_545 S
C613 C614 1.518 . S
C614 C595 1.368 . S
C614 C608 1.368 . S
C614 C613 1.518 . S
C615 C599 1.429 . S
C615 C611 1.429 . S
C615 C616 1.523 . S
C616 C600 1.368 . S
C616 C612 1.368 . S
C616 C615 1.523 . S
H617 C592 0.950 . S
H618 C594 0.950 1_545 S
H619 C595 0.949 . S
H620 C597 0.950 . S
H621 C599 0.950 . S
C622 C623 1.349 . S
C622 C624 1.327 . S
C622 H647 0.950 . S
C623 C622 1.349 . S
C623 C639 1.349 . S
C624 C622 1.327 . S
C624 C643 1.429 . S
C624 H648 0.950 . S
C625 C642 1.574 . S
C625 C644 1.368 . S
C625 H649 0.949 . S
H626 C630 0.949 . S
C627 C628 1.349 . S
C627 C629 1.327 . S
C627 H650 0.950 . S
C628 C627 1.349 . S
C628 C640 1.349 . S
C629 C627 1.327 . S
C629 C645 1.424 1_655 S
C629 H651 0.950 . S
C630 H626 0.949 . S
C630 C638 1.574 . S
C630 C646 1.368 . S
H631 C639 0.950 . S
H632 C637 0.950 . S
H633 C638 0.949 . S
H634 C640 0.950 . S
H635 C641 0.928 1_455 S
H636 C642 0.949 . S
C637 H632 0.950 . S
C637 C639 1.327 . S
C637 C643 1.429 . S
C638 C630 1.574 . S
C638 H633 0.949 . S
C638 C644 1.368 . S
C639 C623 1.349 . S
C639 H631 0.950 . S
C639 C637 1.327 . S
C640 C628 1.349 . S
C640 H634 0.950 . S
C640 C641 1.327 . S
C641 H635 0.928 1_655 S
C641 C640 1.327 . S
C641 C645 1.426 1_655 S
C642 C625 1.574 . S
C642 H636 0.949 . S
C642 C646 1.368 . S
C643 C624 1.429 . S
C643 C637 1.429 . S
C643 C644 1.523 . S
C644 C625 1.368 . S
C644 C638 1.368 . S
C644 C643 1.523 . S
C645 C629 1.424 1_455 S
C645 C641 1.426 1_455 S
C645 C646 1.529 . S
C646 C630 1.368 . S
C646 C642 1.368 . S
C646 C645 1.529 . S
H647 C622 0.950 . S
H648 C624 0.950 . S
H649 C625 0.949 . S
H650 C627 0.950 . S
H651 C629 0.950 . S
C652 C653 1.349 . S
C652 C654 1.327 . S
C652 H677 0.950 . S
C653 C652 1.349 . S
C653 C669 1.349 . S
C654 C652 1.327 . S
C654 C673 1.429 . S
C654 H678 0.950 . S
C655 C672 1.574 . S
C655 C674 1.368 . S
C655 H679 0.949 . S
H656 C660 0.949 . S
C657 C658 1.349 . S
C657 C659 1.327 . S
C657 H680 0.950 . S
C658 C657 1.349 . S
C658 C670 1.349 . S
C659 C657 1.327 . S
C659 C675 1.432 1_545 S
C659 H681 0.950 . S
C660 H656 0.949 . S
C660 C668 1.574 . S
C660 C676 1.368 . S
H661 C669 0.950 . S
H662 C667 0.950 . S
H663 C668 0.949 . S
H664 C670 0.950 . S
H665 C671 0.950 . S
H666 C672 0.949 . S
C667 H662 0.950 . S
C667 C669 1.327 . S
C667 C673 1.429 . S
C668 C660 1.574 . S
C668 H663 0.949 . S
C668 C674 1.368 . S
C669 C653 1.349 . S
C669 H661 0.950 . S
C669 C667 1.327 . S
C670 C658 1.349 . S
C670 H664 0.950 . S
C670 C671 1.327 . S
C671 H665 0.950 . S
C671 C670 1.327 . S
C671 C675 1.431 1_545 S
C672 C655 1.574 . S
C672 H666 0.949 . S
C672 C676 1.368 . S
C673 C654 1.429 . S
C673 C667 1.429 . S
C673 C674 1.523 . S
C674 C655 1.368 . S
C674 C668 1.368 . S
C674 C673 1.523 . S
C675 C659 1.432 1_565 S
C675 C671 1.431 1_565 S
C675 C676 1.518 . S
C676 C660 1.368 . S
C676 C672 1.368 . S
C676 C675 1.518 . S
H677 C652 0.950 . S
H678 C654 0.950 . S
H679 C655 0.949 . S
H680 C657 0.950 . S
H681 C659 0.950 . S
C682 C683 1.349 . S
C682 C684 1.327 . S
C682 H707 0.950 . S
C683 C682 1.349 . S
C683 C699 1.349 . S
C684 C682 1.327 . S
C684 C703 1.424 1_455 S
C684 H708 0.950 . S
C685 C702 1.574 . S
C685 C704 1.368 . S
C685 H709 0.949 . S
H686 C690 0.949 . S
C687 C688 1.349 . S
C687 C689 1.327 . S
C687 H710 0.950 . S
C688 C687 1.349 . S
C688 C700 1.349 . S
C689 C687 1.327 . S
C689 C705 1.429 . S
C689 H711 0.950 . S
C690 H686 0.949 . S
C690 C698 1.574 . S
C690 C706 1.368 . S
H691 C699 0.950 . S
H692 C697 0.950 1_655 S
H693 C698 0.949 . S
H694 C700 0.950 . S
H695 C701 0.950 . S
H696 C702 0.949 . S
C697 H692 0.950 1_455 S
C697 C699 1.327 . S
C697 C703 1.426 1_455 S
C698 C690 1.574 . S
C698 H693 0.949 . S
C698 C704 1.368 . S
C699 C683 1.349 . S
C699 H691 0.950 . S
C699 C697 1.327 . S
C700 C688 1.349 . S
C700 H694 0.950 . S
C700 C701 1.327 . S
C701 H695 0.950 . S
C701 C700 1.327 . S
C701 C705 1.429 . S
C702 C685 1.574 . S
C702 H696 0.949 . S
C702 C706 1.368 . S
C703 C684 1.424 1_655 S
C703 C697 1.426 1_655 S
C703 C704 1.529 . S
C704 C685 1.368 . S
C704 C698 1.368 . S
C704 C703 1.529 . S
C705 C689 1.429 . S
C705 C701 1.429 . S
C705 C706 1.523 . S
C706 C690 1.368 . S
C706 C702 1.368 . S
C706 C705 1.523 . S
H707 C682 0.950 . S
H708 C684 0.950 . S
H709 C685 0.949 . S
H710 C687 0.950 . S
H711 C689 0.950 . S
C712 C713 1.349 . S
C712 C714 1.327 . S
C712 H737 0.950 . S
C713 C712 1.349 . S
C713 C729 1.349 . S
C714 C712 1.327 . S
C714 C733 1.430 1_545 S
C714 H738 0.950 1_545 S
C715 C732 1.574 . S
C715 C734 1.368 . S
C715 H739 0.949 . S
H716 C720 0.949 . S
C717 C718 1.349 . S
C717 C719 1.327 . S
C717 H740 0.950 . S
C718 C717 1.349 . S
C718 C730 1.349 . S
C719 C717 1.327 . S
C719 C735 1.429 . S
C719 H741 0.950 . S
C720 H716 0.949 . S
C720 C728 1.574 . S
C720 C736 1.368 . S
H721 C729 0.950 . S
H722 C727 0.950 . S
H723 C728 0.949 . S
H724 C730 0.950 . S
H725 C731 0.950 . S
H726 C732 0.949 . S
C727 H722 0.950 . S
C727 C729 1.327 . S
C727 C733 1.433 1_545 S
C728 C720 1.574 . S
C728 H723 0.949 . S
C728 C734 1.368 . S
C729 C713 1.349 . S
C729 H721 0.950 . S
C729 C727 1.327 . S
C730 C718 1.349 . S
C730 H724 0.950 . S
C730 C731 1.327 . S
C731 H725 0.950 . S
C731 C730 1.327 . S
C731 C735 1.429 . S
C732 C715 1.574 . S
C732 H726 0.949 . S
C732 C736 1.368 . S
C733 C714 1.430 1_565 S
C733 C727 1.433 1_565 S
C733 C734 1.518 . S
C734 C715 1.368 . S
C734 C728 1.368 . S
C734 C733 1.518 . S
C735 C719 1.429 . S
C735 C731 1.429 . S
C735 C736 1.523 . S
C736 C720 1.368 . S
C736 C732 1.368 . S
C736 C735 1.523 . S
H737 C712 0.950 . S
H738 C714 0.950 1_565 S
H739 C715 0.949 . S
H740 C717 0.950 . S
H741 C719 0.950 . S
C742 C743 1.349 . S
C742 C744 1.327 . S
C742 H767 0.950 . S
C743 C742 1.349 . S
C743 C759 1.349 . S
C744 C742 1.327 . S
C744 C763 1.429 . S
C744 H768 0.950 . S
C745 C762 1.574 . S
C745 C764 1.368 . S
C745 H769 0.949 . S
H746 C750 0.949 . S
C747 C748 1.349 . S
C747 C749 1.327 . S
C747 H770 0.950 . S
C748 C747 1.349 . S
C748 C760 1.349 . S
C749 C747 1.327 . S
C749 C765 1.425 1_455 S
C749 H771 0.950 . S
C750 H746 0.949 . S
C750 C758 1.574 . S
C750 C766 1.368 . S
H751 C759 0.950 . S
H752 C757 0.950 . S
H753 C758 0.949 . S
H754 C760 0.950 . S
H755 C761 0.965 . S
H756 C762 0.949 . S
C757 H752 0.950 . S
C757 C759 1.327 . S
C757 C763 1.429 . S
C758 C750 1.574 . S
C758 H753 0.949 . S
C758 C764 1.368 . S
C759 C743 1.349 . S
C759 H751 0.950 . S
C759 C757 1.327 . S
C760 C748 1.349 . S
C760 H754 0.950 . S
C760 C761 1.327 . S
C761 H755 0.965 . S
C761 C760 1.327 . S
C761 C765 1.426 1_455 S
C762 C745 1.574 . S
C762 H756 0.949 . S
C762 C766 1.368 . S
C763 C744 1.429 . S
C763 C757 1.429 . S
C763 C764 1.523 . S
C764 C745 1.368 . S
C764 C758 1.368 . S
C764 C763 1.523 . S
C765 C749 1.425 1_655 S
C765 C761 1.426 1_655 S
C765 C766 1.529 . S
C766 C750 1.368 . S
C766 C762 1.368 . S
C766 C765 1.529 . S
H767 C742 0.950 . S
H768 C744 0.950 . S
H769 C745 0.949 . S
H770 C747 0.950 . S
H771 C749 0.950 . S
C772 C773 1.349 . S
C772 C774 1.327 . S
C772 H797 0.950 . S
C773 C772 1.349 . S
C773 C789 1.349 . S
C774 C772 1.327 . S
C774 C793 1.429 . S
C774 H798 0.950 . S
C775 C792 1.574 . S
C775 C794 1.368 . S
C775 H799 0.949 . S
H776 C780 0.949 . S
C777 C778 1.349 . S
C777 C779 1.327 . S
C777 H800 0.950 . S
C778 C777 1.349 . S
C778 C790 1.349 . S
C779 C777 1.327 . S
C779 C795 1.430 1_565 S
C779 H801 0.950 1_565 S
C780 H776 0.949 . S
C780 C788 1.574 . S
C780 C796 1.368 . S
H781 C789 0.950 . S
H782 C787 0.950 . S
H783 C788 0.949 . S
H784 C790 0.950 . S
H785 C791 0.950 . S
H786 C792 0.949 . S
C787 H782 0.950 . S
C787 C789 1.327 . S
C787 C793 1.429 . S
C788 C780 1.574 . S
C788 H783 0.949 . S
C788 C794 1.368 . S
C789 C773 1.349 . S
C789 H781 0.950 . S
C789 C787 1.327 . S
C790 C778 1.349 . S
C790 H784 0.950 . S
C790 C791 1.327 . S
C791 H785 0.950 . S
C791 C790 1.327 . S
C791 C795 1.433 1_565 S
C792 C775 1.574 . S
C792 H786 0.949 . S
C792 C796 1.368 . S
C793 C774 1.429 . S
C793 C787 1.429 . S
C793 C794 1.523 . S
C794 C775 1.368 . S
C794 C788 1.368 . S
C794 C793 1.523 . S
C795 C779 1.430 1_545 S
C795 C791 1.433 1_545 S
C795 C796 1.518 . S
C796 C780 1.368 . S
C796 C792 1.368 . S
C796 C795 1.518 . S
H797 C772 0.950 . S
H798 C774 0.950 . S
H799 C775 0.949 . S
H800 C777 0.950 . S
H801 C779 0.950 1_545 S
C802 C803 1.349 . S
C802 C804 1.327 . S
C802 H827 0.950 . S
C803 C802 1.349 . S
C803 C819 1.349 . S
C804 C802 1.327 . S
C804 C823 1.429 . S
C804 H828 0.950 . S
C805 C822 1.574 . S
C805 C824 1.368 . S
C805 H829 0.949 . S
H806 C810 0.949 . S
C807 C808 1.349 . S
C807 C809 1.327 . S
C807 H830 0.950 . S
C808 C807 1.349 . S
C808 C820 1.349 . S
C809 C807 1.327 . S
C809 C825 1.427 1_655 S
C809 H831 0.950 1_655 S
C810 H806 0.949 . S
C810 C818 1.574 . S
C810 C826 1.368 . S
H811 C819 0.950 . S
H812 C817 0.950 . S
H813 C818 0.949 . S
H814 C820 0.950 . S
H815 C821 0.950 . S
H816 C822 0.949 . S
C817 H812 0.950 . S
C817 C819 1.327 . S
C817 C823 1.429 . S
C818 C810 1.574 . S
C818 H813 0.949 . S
C818 C824 1.368 . S
C819 C803 1.349 . S
C819 H811 0.950 . S
C819 C817 1.327 . S
C820 C808 1.349 . S
C820 H814 0.950 . S
C820 C821 1.327 . S
C821 H815 0.950 . S
C821 C820 1.327 . S
C821 C825 1.423 1_655 S
C822 C805 1.574 . S
C822 H816 0.949 . S
C822 C826 1.368 . S
C823 C804 1.429 . S
C823 C817 1.429 . S
C823 C824 1.523 . S
C824 C805 1.368 . S
C824 C818 1.368 . S
C824 C823 1.523 . S
C825 C809 1.427 1_455 S
C825 C821 1.423 1_455 S
C825 C826 1.529 . S
C826 C810 1.368 . S
C826 C822 1.368 . S
C826 C825 1.529 . S
H827 C802 0.950 . S
H828 C804 0.950 . S
H829 C805 0.949 . S
H830 C807 0.950 . S
H831 C809 0.950 1_455 S
C832 C833 1.349 . S
C832 C834 1.327 . S
C832 H857 0.950 . S
C833 C832 1.349 . S
C833 C849 1.349 . S
C834 C832 1.327 . S
C834 C853 1.429 . S
C834 H858 0.950 . S
C835 C852 1.574 . S
C835 C854 1.368 . S
C835 H859 0.949 . S
H836 C840 0.949 . S
C837 C838 1.349 . S
C837 C839 1.327 . S
C837 H860 0.950 . S
C838 C837 1.349 . S
C838 C850 1.349 . S
C839 C837 1.327 . S
C839 C855 1.429 . S
C839 H861 0.950 . S
C840 H836 0.949 . S
C840 C848 1.574 . S
C840 C856 1.368 . S
H841 C849 0.950 . S
H842 C847 0.950 . S
H843 C848 0.949 . S
H844 C850 0.950 . S
H845 C851 0.950 . S
H846 C852 0.949 . S
C847 H842 0.950 . S
C847 C849 1.327 . S
C847 C853 1.429 . S
C848 C840 1.574 . S
C848 H843 0.949 . S
C848 C854 1.368 . S
C849 C833 1.349 . S
C849 H841 0.950 . S
C849 C847 1.327 . S
C850 C838 1.349 . S
C850 H844 0.950 . S
C850 C851 1.327 . S
C851 H845 0.950 . S
C851 C850 1.327 . S
C851 C855 1.429 . S
C852 C835 1.574 . S
C852 H846 0.949 . S
C852 C856 1.368 . S
C853 C834 1.429 . S
C853 C847 1.429 . S
C853 C854 1.523 . S
C854 C835 1.368 . S
C854 C848 1.368 . S
C854 C853 1.523 . S
C855 C839 1.429 . S
C855 C851 1.429 . S
C855 C856 1.523 . S
C856 C840 1.368 . S
C856 C852 1.368 . S
C856 C855 1.523 . S
H857 C832 0.950 . S
H858 C834 0.950 . S
H859 C835 0.949 . S
H860 C837 0.950 . S
H861 C839 0.950 . S
C862 C863 1.349 . S
C862 C864 1.327 . S
C862 H887 0.950 . S
C863 C862 1.349 . S
C863 C879 1.349 . S
C864 C862 1.327 . S
C864 C883 1.429 . S
C864 H888 0.950 . S
C865 C882 1.574 . S
C865 C884 1.368 . S
C865 H889 0.949 . S
H866 C870 0.949 . S
C867 C868 1.349 . S
C867 C869 1.327 . S
C867 H890 0.950 . S
C868 C867 1.349 . S
C868 C880 1.349 . S
C869 C867 1.327 . S
C869 C885 1.429 . S
C869 H891 0.950 . S
C870 H866 0.949 . S
C870 C878 1.574 . S
C870 C886 1.368 . S
H871 C879 0.950 . S
H872 C877 0.950 . S
H873 C878 0.949 . S
H874 C880 0.950 . S
H875 C881 0.950 . S
H876 C882 0.949 . S
C877 H872 0.950 . S
C877 C879 1.327 . S
C877 C883 1.429 . S
C878 C870 1.574 . S
C878 H873 0.949 . S
C878 C884 1.368 . S
C879 C863 1.349 . S
C879 H871 0.950 . S
C879 C877 1.327 . S
C880 C868 1.349 . S
C880 H874 0.950 . S
C880 C881 1.327 . S
C881 H875 0.950 . S
C881 C880 1.327 . S
C881 C885 1.429 . S
C882 C865 1.574 . S
C882 H876 0.949 . S
C882 C886 1.368 . S
C883 C864 1.429 . S
C883 C877 1.429 . S
C883 C884 1.523 . S
C884 C865 1.368 . S
C884 C878 1.368 . S
C884 C883 1.523 . S
C885 C869 1.429 . S
C885 C881 1.429 . S
C885 C886 1.523 . S
C886 C870 1.368 . S
C886 C882 1.368 . S
C886 C885 1.523 . S
H887 C862 0.950 . S
H888 C864 0.950 . S
H889 C865 0.949 . S
H890 C867 0.950 . S
H891 C869 0.950 . S
C892 C893 1.349 . S
C892 C894 1.327 . S
C892 H917 0.950 . S
C893 C892 1.349 . S
C893 C909 1.349 . S
C894 C892 1.327 . S
C894 C913 1.429 . S
C894 H918 0.950 . S
C895 C912 1.574 . S
C895 C914 1.368 . S
C895 H919 0.949 . S
H896 C900 0.949 . S
C897 C898 1.349 . S
C897 C899 1.327 . S
C897 H920 0.950 . S
C898 C897 1.349 . S
C898 C910 1.349 . S
C899 C897 1.327 . S
C899 C915 1.429 . S
C899 H921 0.950 . S
C900 H896 0.949 . S
C900 C908 1.574 . S
C900 C916 1.368 . S
H901 C909 0.950 . S
H902 C907 0.950 . S
H903 C908 0.949 . S
H904 C910 0.950 . S
H905 C911 0.950 . S
H906 C912 0.949 . S
C907 H902 0.950 . S
C907 C909 1.327 . S
C907 C913 1.429 . S
C908 C900 1.574 . S
C908 H903 0.949 . S
C908 C914 1.368 . S
C909 C893 1.349 . S
C909 H901 0.950 . S
C909 C907 1.327 . S
C910 C898 1.349 . S
C910 H904 0.950 . S
C910 C911 1.327 . S
C911 H905 0.950 . S
C911 C910 1.327 . S
C911 C915 1.429 . S
C912 C895 1.574 . S
C912 H906 0.949 . S
C912 C916 1.368 . S
C913 C894 1.429 . S
C913 C907 1.429 . S
C913 C914 1.523 . S
C914 C895 1.368 . S
C914 C908 1.368 . S
C914 C913 1.523 . S
C915 C899 1.429 . S
C915 C911 1.429 . S
C915 C916 1.523 . S
C916 C900 1.368 . S
C916 C912 1.368 . S
C916 C915 1.523 . S
H917 C892 0.950 . S
H918 C894 0.950 . S
H919 C895 0.949 . S
H920 C897 0.950 . S
H921 C899 0.950 . S
C922 C923 1.349 . S
C922 C924 1.327 . S
C922 H947 0.950 . S
C923 C922 1.349 . S
C923 C939 1.349 . S
C924 C922 1.327 . S
C924 C943 1.429 . S
C924 H948 0.950 . S
C925 C942 1.574 . S
C925 C944 1.368 . S
C925 H949 0.949 . S
H926 C930 0.949 . S
C927 C928 1.349 . S
C927 C929 1.327 . S
C927 H950 0.950 . S
C928 C927 1.349 . S
C928 C940 1.349 . S
C929 C927 1.327 . S
C929 C945 1.429 . S
C929 H951 0.950 . S
C930 H926 0.949 . S
C930 C938 1.574 . S
C930 C946 1.368 . S
H931 C939 0.950 . S
H932 C937 0.950 . S
H933 C938 0.949 . S
H934 C940 0.950 . S
H935 C941 0.950 . S
H936 C942 0.949 . S
C937 H932 0.950 . S
C937 C939 1.327 . S
C937 C943 1.429 . S
C938 C930 1.574 . S
C938 H933 0.949 . S
C938 C944 1.368 . S
C939 C923 1.349 . S
C939 H931 0.950 . S
C939 C937 1.327 . S
C940 C928 1.349 . S
C940 H934 0.950 . S
C940 C941 1.327 . S
C941 H935 0.950 . S
C941 C940 1.327 . S
C941 C945 1.429 . S
C942 C925 1.574 . S
C942 H936 0.949 . S
C942 C946 1.368 . S
C943 C924 1.429 . S
C943 C937 1.429 . S
C943 C944 1.523 . S
C944 C925 1.368 . S
C944 C938 1.368 . S
C944 C943 1.523 . S
C945 C929 1.429 . S
C945 C941 1.429 . S
C945 C946 1.523 . S
C946 C930 1.368 . S
C946 C942 1.368 . S
C946 C945 1.523 . S
H947 C922 0.950 . S
H948 C924 0.950 . S
H949 C925 0.949 . S
H950 C927 0.950 . S
H951 C929 0.950 . S
C952 C953 1.349 . S
C952 C954 1.327 . S
C952 H977 0.950 . S
C953 C952 1.349 . S
C953 C969 1.349 . S
C954 C952 1.327 . S
C954 C973 1.429 . S
C954 H978 0.950 . S
C955 C972 1.574 . S
C955 C974 1.368 1_565 S
C955 H979 0.949 . S
H956 C960 0.949 . S
C957 C958 1.349 . S
C957 C959 1.327 . S
C957 H980 0.950 . S
C958 C957 1.349 . S
C958 C970 1.349 . S
C959 C957 1.327 . S
C959 C975 1.429 . S
C959 H981 0.950 . S
C960 H956 0.949 . S
C960 C968 1.574 . S
C960 C976 1.368 1_545 S
H961 C969 0.950 . S
H962 C967 0.950 . S
H963 C968 0.949 . S
H964 C970 0.950 . S
H965 C971 0.950 . S
H966 C972 0.949 . S
C967 H962 0.950 . S
C967 C969 1.327 . S
C967 C973 1.429 . S
C968 C960 1.574 . S
C968 H963 0.949 . S
C968 C974 1.368 1_556 S
C969 C953 1.349 . S
C969 H961 0.950 . S
C969 C967 1.327 . S
C970 C958 1.349 . S
C970 H964 0.950 . S
C970 C971 1.327 . S
C971 H965 0.950 . S
C971 C970 1.327 . S
C971 C975 1.429 . S
C972 C955 1.574 . S
C972 H966 0.949 . S
C972 C976 1.368 1_554 S
C973 C954 1.429 . S
C973 C967 1.429 . S
C973 C974 1.523 . S
C974 C955 1.368 1_545 S
C974 C968 1.368 1_554 S
C974 C973 1.523 . S
C975 C959 1.429 . S
C975 C971 1.429 . S
C975 C976 1.523 . S
C976 C960 1.368 1_565 S
C976 C972 1.368 1_556 S
C976 C975 1.523 . S
H977 C952 0.950 . S
H978 C954 0.950 . S
H979 C955 0.949 . S
H980 C957 0.950 . S
H981 C959 0.950 . S
C982 C983 1.349 . S
C982 C984 1.327 . S
C982 H1007 0.950 . S
C983 C982 1.349 . S
C983 C999 1.349 . S
C984 C982 1.327 . S
C984 C1003 1.429 . S
C984 H1008 0.950 . S
C985 C1002 1.566 1_654 S
C985 C1004 1.375 . S
C985 H1009 0.949 . S
H986 C990 0.949 . S
C987 C988 1.349 . S
C987 C989 1.327 . S
C987 H1010 0.950 . S
C988 C987 1.349 . S
C988 C1000 1.349 . S
C989 C987 1.327 . S
C989 C1005 1.429 . S
C989 H1011 0.950 . S
C990 H986 0.949 . S
C990 C998 1.566 1_456 S
C990 C1006 1.375 . S
H991 C999 0.950 . S
H992 C997 0.950 . S
H993 C998 0.949 . S
H994 C1000 0.950 . S
H995 C1001 0.950 . S
H996 C1002 0.949 . S
C997 H992 0.950 . S
C997 C999 1.327 . S
C997 C1003 1.429 . S
C998 C990 1.566 1_654 S
C998 H993 0.949 . S
C998 C1004 1.368 . S
C999 C983 1.349 . S
C999 H991 0.950 . S
C999 C997 1.327 . S
C1000 C988 1.349 . S
C1000 H994 0.950 . S
C1000 C1001 1.327 . S
C1001 H995 0.950 . S
C1001 C1000 1.327 . S
C1001 C1005 1.429 . S
C1002 C985 1.566 1_456 S
C1002 H996 0.949 . S
C1002 C1006 1.368 . S
C1003 C984 1.429 . S
C1003 C997 1.429 . S
C1003 C1004 1.523 . S
C1004 C985 1.375 . S
C1004 C998 1.368 . S
C1004 C1003 1.523 . S
C1005 C989 1.429 . S
C1005 C1001 1.429 . S
C1005 C1006 1.523 . S
C1006 C990 1.375 . S
C1006 C1002 1.368 . S
C1006 C1005 1.523 . S
H1007 C982 0.950 . S
H1008 C984 0.950 . S
H1009 C985 0.949 . S
H1010 C987 0.950 . S
H1011 C989 0.950 . S
C1012 C1013 1.349 . S
C1012 C1014 1.327 . S
C1012 H1037 0.950 . S
C1013 C1012 1.349 . S
C1013 C1029 1.349 . S
C1014 C1012 1.327 . S
C1014 C1033 1.429 . S
C1014 H1038 0.950 . S
C1015 C1032 1.574 . S
C1015 C1034 1.368 1_554 S
C1015 H1039 0.949 . S
H1016 C1020 0.949 . S
C1017 C1018 1.349 . S
C1017 C1019 1.327 . S
C1017 H1040 0.950 . S
C1018 C1017 1.349 . S
C1018 C1030 1.349 . S
C1019 C1017 1.327 . S
C1019 C1035 1.429 . S
C1019 H1041 0.950 . S
C1020 H1016 0.949 . S
C1020 C1028 1.574 . S
C1020 C1036 1.368 1_556 S
H1021 C1029 0.950 . S
H1022 C1027 0.950 . S
H1023 C1028 0.949 . S
H1024 C1030 0.950 . S
H1025 C1031 0.950 . S
H1026 C1032 0.949 . S
C1027 H1022 0.950 . S
C1027 C1029 1.327 . S
C1027 C1033 1.429 . S
C1028 C1020 1.574 . S
C1028 H1023 0.949 . S
C1028 C1034 1.368 1_565 S
C1029 C1013 1.349 . S
C1029 H1021 0.950 . S
C1029 C1027 1.327 . S
C1030 C1018 1.349 . S
C1030 H1024 0.950 . S
C1030 C1031 1.327 . S
C1031 H1025 0.950 . S
C1031 C1030 1.327 . S
C1031 C1035 1.429 . S
C1032 C1015 1.574 . S
C1032 H1026 0.949 . S
C1032 C1036 1.368 1_545 S
C1033 C1014 1.429 . S
C1033 C1027 1.429 . S
C1033 C1034 1.523 . S
C1034 C1015 1.368 1_556 S
C1034 C1028 1.368 1_545 S
C1034 C1033 1.523 . S
C1035 C1019 1.429 . S
C1035 C1031 1.429 . S
C1035 C1036 1.523 . S
C1036 C1020 1.368 1_554 S
C1036 C1032 1.368 1_565 S
C1036 C1035 1.523 . S
H1037 C1012 0.950 . S
H1038 C1014 0.950 . S
H1039 C1015 0.949 . S
H1040 C1017 0.950 . S
H1041 C1019 0.950 . S
C1042 C1043 1.349 . S
C1042 C1044 1.327 . S
C1042 H1067 0.950 . S
C1043 C1042 1.349 . S
C1043 C1059 1.349 . S
C1044 C1042 1.327 . S
C1044 C1063 1.429 . S
C1044 H1068 0.950 . S
C1045 C1062 1.566 1_656 S
C1045 C1064 1.368 . S
C1045 H1069 0.949 . S
H1046 C1050 0.949 . S
C1047 C1048 1.349 . S
C1047 C1049 1.327 . S
C1047 H1070 0.950 . S
C1048 C1047 1.349 . S
C1048 C1060 1.349 . S
C1049 C1047 1.327 . S
C1049 C1065 1.429 . S
C1049 H1071 0.950 . S
C1050 H1046 0.949 . S
C1050 C1058 1.566 1_454 S
C1050 C1066 1.368 . S
H1051 C1059 0.950 . S
H1052 C1057 0.950 . S
H1053 C1058 0.949 . S
H1054 C1060 0.950 . S
H1055 C1061 0.950 . S
H1056 C1062 0.949 . S
C1057 H1052 0.950 . S
C1057 C1059 1.327 . S
C1057 C1063 1.429 . S
C1058 C1050 1.566 1_656 S
C1058 H1053 0.949 . S
C1058 C1064 1.375 . S
C1059 C1043 1.349 . S
C1059 H1051 0.950 . S
C1059 C1057 1.327 . S
C1060 C1048 1.349 . S
C1060 H1054 0.950 . S
C1060 C1061 1.327 . S
C1061 H1055 0.950 . S
C1061 C1060 1.327 . S
C1061 C1065 1.429 . S
C1062 C1045 1.566 1_454 S
C1062 H1056 0.949 . S
C1062 C1066 1.375 . S
C1063 C1044 1.429 . S
C1063 C1057 1.429 . S
C1063 C1064 1.523 . S
C1064 C1045 1.368 . S
C1064 C1058 1.375 . S
C1064 C1063 1.523 . S
C1065 C1049 1.429 . S
C1065 C1061 1.429 . S
C1065 C1066 1.523 . S
C1066 C1050 1.368 . S
C1066 C1062 1.375 . S
C1066 C1065 1.523 . S
H1067 C1042 0.950 . S
H1068 C1044 0.950 . S
H1069 C1045 0.949 . S
H1070 C1047 0.950 . S
H1071 C1049 0.950 . S
C1072 C1073 1.349 . S
C1072 C1074 1.327 . S
C1072 H1097 0.950 . S
C1073 C1072 1.349 . S
C1073 C1089 1.349 . S
C1074 C1072 1.327 . S
C1074 C1093 1.429 . S
C1074 H1098 0.950 . S
C1075 C1092 1.574 . S
C1075 C1094 1.368 . S
C1075 H1099 0.949 . S
H1076 C1080 0.949 . S
C1077 C1078 1.349 . S
C1077 C1079 1.327 . S
C1077 H1100 0.950 . S
C1078 C1077 1.349 . S
C1078 C1090 1.349 . S
C1079 C1077 1.327 . S
C1079 C1095 1.429 . S
C1079 H1101 0.950 . S
C1080 H1076 0.949 . S
C1080 C1088 1.574 . S
C1080 C1096 1.368 . S
H1081 C1089 0.950 . S
H1082 C1087 0.950 . S
H1083 C1088 0.949 . S
H1084 C1090 0.950 . S
H1085 C1091 0.950 . S
H1086 C1092 0.949 . S
C1087 H1082 0.950 . S
C1087 C1089 1.327 . S
C1087 C1093 1.429 . S
C1088 C1080 1.574 . S
C1088 H1083 0.949 . S
C1088 C1094 1.368 . S
C1089 C1073 1.349 . S
C1089 H1081 0.950 . S
C1089 C1087 1.327 . S
C1090 C1078 1.349 . S
C1090 H1084 0.950 . S
C1090 C1091 1.327 . S
C1091 H1085 0.950 . S
C1091 C1090 1.327 . S
C1091 C1095 1.429 . S
C1092 C1075 1.574 . S
C1092 H1086 0.949 . S
C1092 C1096 1.368 . S
C1093 C1074 1.429 . S
C1093 C1087 1.429 . S
C1093 C1094 1.523 . S
C1094 C1075 1.368 . S
C1094 C1088 1.368 . S
C1094 C1093 1.523 . S
C1095 C1079 1.429 . S
C1095 C1091 1.429 . S
C1095 C1096 1.523 1_556 S
C1096 C1080 1.368 . S
C1096 C1092 1.368 . S
C1096 C1095 1.523 1_554 S
H1097 C1072 0.950 . S
H1098 C1074 0.950 . S
H1099 C1075 0.949 . S
H1100 C1077 0.950 . S
H1101 C1079 0.950 . S
C1102 C1103 1.349 . S
C1102 C1104 1.327 . S
C1102 H1127 0.950 . S
C1103 C1102 1.349 . S
C1103 C1119 1.349 . S
C1104 C1102 1.327 . S
C1104 C1123 1.429 . S
C1104 H1128 0.950 . S
C1105 C1122 1.574 . S
C1105 C1124 1.368 . S
C1105 H1129 0.949 . S
H1106 C1110 0.949 . S
C1107 C1108 1.349 . S
C1107 C1109 1.327 . S
C1107 H1130 0.950 . S
C1108 C1107 1.349 . S
C1108 C1120 1.349 . S
C1109 C1107 1.327 . S
C1109 C1125 1.429 . S
C1109 H1131 0.950 . S
C1110 H1106 0.949 . S
C1110 C1118 1.574 . S
C1110 C1126 1.368 . S
H1111 C1119 0.950 . S
H1112 C1117 0.950 . S
H1113 C1118 0.949 . S
H1114 C1120 0.950 . S
H1115 C1121 0.950 . S
H1116 C1122 0.949 . S
C1117 H1112 0.950 . S
C1117 C1119 1.327 . S
C1117 C1123 1.429 . S
C1118 C1110 1.574 . S
C1118 H1113 0.949 . S
C1118 C1124 1.368 . S
C1119 C1103 1.349 . S
C1119 H1111 0.950 . S
C1119 C1117 1.327 . S
C1120 C1108 1.349 . S
C1120 H1114 0.950 . S
C1120 C1121 1.327 . S
C1121 H1115 0.950 . S
C1121 C1120 1.327 . S
C1121 C1125 1.429 . S
C1122 C1105 1.574 . S
C1122 H1116 0.949 . S
C1122 C1126 1.368 . S
C1123 C1104 1.429 . S
C1123 C1117 1.429 . S
C1123 C1124 1.523 1_554 S
C1124 C1105 1.368 . S
C1124 C1118 1.368 . S
C1124 C1123 1.523 1_556 S
C1125 C1109 1.429 . S
C1125 C1121 1.429 . S
C1125 C1126 1.523 . S
C1126 C1110 1.368 . S
C1126 C1122 1.368 . S
C1126 C1125 1.523 . S
H1127 C1102 0.950 . S
H1128 C1104 0.950 . S
H1129 C1105 0.949 . S
H1130 C1107 0.950 . S
H1131 C1109 0.950 . S
C1132 C1133 1.349 . S
C1132 C1134 1.327 . S
C1132 H1157 0.950 . S
C1133 C1132 1.349 . S
C1133 C1149 1.349 . S
C1134 C1132 1.327 . S
C1134 C1153 1.429 . S
C1134 H1158 0.950 . S
C1135 C1152 1.574 . S
C1135 C1154 1.368 . S
C1135 H1159 0.949 . S
H1136 C1140 0.949 . S
C1137 C1138 1.349 . S
C1137 C1139 1.327 . S
C1137 H1160 0.950 . S
C1138 C1137 1.349 . S
C1138 C1150 1.349 . S
C1139 C1137 1.327 . S
C1139 C1155 1.429 . S
C1139 H1161 0.950 . S
C1140 H1136 0.949 . S
C1140 C1148 1.574 . S
C1140 C1156 1.368 . S
H1141 C1149 0.950 . S
H1142 C1147 0.950 . S
H1143 C1148 0.949 . S
H1144 C1150 0.950 . S
H1145 C1151 0.950 . S
H1146 C1152 0.949 . S
C1147 H1142 0.950 . S
C1147 C1149 1.327 . S
C1147 C1153 1.429 . S
C1148 C1140 1.574 . S
C1148 H1143 0.949 . S
C1148 C1154 1.368 . S
C1149 C1133 1.349 . S
C1149 H1141 0.950 . S
C1149 C1147 1.327 . S
C1150 C1138 1.349 . S
C1150 H1144 0.950 . S
C1150 C1151 1.327 . S
C1151 H1145 0.950 . S
C1151 C1150 1.327 . S
C1151 C1155 1.429 . S
C1152 C1135 1.574 . S
C1152 H1146 0.949 . S
C1152 C1156 1.368 . S
C1153 C1134 1.429 . S
C1153 C1147 1.429 . S
C1153 C1154 1.523 1_556 S
C1154 C1135 1.368 . S
C1154 C1148 1.368 . S
C1154 C1153 1.523 1_554 S
C1155 C1139 1.429 . S
C1155 C1151 1.429 . S
C1155 C1156 1.523 . S
C1156 C1140 1.368 . S
C1156 C1152 1.368 . S
C1156 C1155 1.523 . S
H1157 C1132 0.950 . S
H1158 C1134 0.950 . S
H1159 C1135 0.949 . S
H1160 C1137 0.950 . S
H1161 C1139 0.950 . S
C1162 C1163 1.349 . S
C1162 C1164 1.327 . S
C1162 H1187 0.950 . S
C1163 C1162 1.349 . S
C1163 C1179 1.349 . S
C1164 C1162 1.327 . S
C1164 C1183 1.429 . S
C1164 H1188 0.950 . S
C1165 C1182 1.574 . S
C1165 C1184 1.368 . S
C1165 H1189 0.949 . S
H1166 C1170 0.949 . S
C1167 C1168 1.349 . S
C1167 C1169 1.327 . S
C1167 H1190 0.950 . S
C1168 C1167 1.349 . S
C1168 C1180 1.349 . S
C1169 C1167 1.327 . S
C1169 C1185 1.429 . S
C1169 H1191 0.950 . S
C1170 H1166 0.949 . S
C1170 C1178 1.574 . S
C1170 C1186 1.368 . S
H1171 C1179 0.950 . S
H1172 C1177 0.950 1_556 S
H1173 C1178 0.949 . S
H1174 C1180 0.950 . S
H1175 C1181 0.950 . S
H1176 C1182 0.949 . S
C1177 H1172 0.950 1_554 S
C1177 C1179 1.327 . S
C1177 C1183 1.429 . S
C1178 C1170 1.574 . S
C1178 H1173 0.949 . S
C1178 C1184 1.368 . S
C1179 C1163 1.349 . S
C1179 H1171 0.950 . S
C1179 C1177 1.327 . S
C1180 C1168 1.349 . S
C1180 H1174 0.950 . S
C1180 C1181 1.327 . S
C1181 H1175 0.950 . S
C1181 C1180 1.327 . S
C1181 C1185 1.429 . S
C1182 C1165 1.574 . S
C1182 H1176 0.949 . S
C1182 C1186 1.368 . S
C1183 C1164 1.429 . S
C1183 C1177 1.429 . S
C1183 C1184 1.523 1_554 S
C1184 C1165 1.368 . S
C1184 C1178 1.368 . S
C1184 C1183 1.523 1_556 S
C1185 C1169 1.429 . S
C1185 C1181 1.429 . S
C1185 C1186 1.523 . S
C1186 C1170 1.368 . S
C1186 C1182 1.368 . S
C1186 C1185 1.523 . S
H1187 C1162 0.950 . S
H1188 C1164 0.950 . S
H1189 C1165 0.949 . S
H1190 C1167 0.950 . S
H1191 C1169 0.950 . S
C1192 C1193 1.349 . S
C1192 C1194 1.327 . S
C1192 H1217 0.950 . S
C1193 C1192 1.349 . S
C1193 C1209 1.349 . S
C1194 C1192 1.327 . S
C1194 C1213 1.429 . S
C1194 H1218 0.950 . S
C1195 C1212 1.574 . S
C1195 C1214 1.368 . S
C1195 H1219 0.949 . S
H1196 C1200 0.949 . S
C1197 C1198 1.349 . S
C1197 C1199 1.327 . S
C1197 H1220 0.950 . S
C1198 C1197 1.349 . S
C1198 C1210 1.349 . S
C1199 C1197 1.327 . S
C1199 C1215 1.429 . S
C1199 H1221 0.950 . S
C1200 H1196 0.949 . S
C1200 C1208 1.574 . S
C1200 C1216 1.368 . S
H1201 C1209 0.950 . S
H1202 C1207 0.950 . S
H1203 C1208 0.949 . S
H1204 C1210 0.950 . S
H1205 C1211 0.950 1_556 S
H1206 C1212 0.949 . S
C1207 H1202 0.950 . S
C1207 C1209 1.327 . S
C1207 C1213 1.429 . S
C1208 C1200 1.574 . S
C1208 H1203 0.949 . S
C1208 C1214 1.368 . S
C1209 C1193 1.349 . S
C1209 H1201 0.950 . S
C1209 C1207 1.327 . S
C1210 C1198 1.349 . S
C1210 H1204 0.950 . S
C1210 C1211 1.327 . S
C1211 H1205 0.950 1_554 S
C1211 C1210 1.327 . S
C1211 C1215 1.429 . S
C1212 C1195 1.574 . S
C1212 H1206 0.949 . S
C1212 C1216 1.368 . S
C1213 C1194 1.429 . S
C1213 C1207 1.429 . S
C1213 C1214 1.523 . S
C1214 C1195 1.368 . S
C1214 C1208 1.368 . S
C1214 C1213 1.523 . S
C1215 C1199 1.429 . S
C1215 C1211 1.429 . S
C1215 C1216 1.523 1_554 S
C1216 C1200 1.368 . S
C1216 C1212 1.368 . S
C1216 C1215 1.523 1_556 S
H1217 C1192 0.950 . S
H1218 C1194 0.950 . S
H1219 C1195 0.949 . S
H1220 C1197 0.950 . S
H1221 C1199 0.950 . S
C1222 C1223 1.349 . S
C1222 C1224 1.327 . S
C1222 H1247 0.950 . S
C1223 C1222 1.349 . S
C1223 C1239 1.349 . S
C1224 C1222 1.327 . S
C1224 C1243 1.429 . S
C1224 H1248 0.950 . S
C1225 C1242 1.574 . S
C1225 C1244 1.368 . S
C1225 H1249 0.949 . S
H1226 C1230 0.949 . S
C1227 C1228 1.349 . S
C1227 C1229 1.327 . S
C1227 H1250 0.950 . S
C1228 C1227 1.349 . S
C1228 C1240 1.349 . S
C1229 C1227 1.327 . S
C1229 C1245 1.429 . S
C1229 H1251 0.950 . S
C1230 H1226 0.949 . S
C1230 C1238 1.574 . S
C1230 C1246 1.368 . S
H1231 C1239 0.950 . S
H1232 C1237 0.950 . S
H1233 C1238 0.949 . S
H1234 C1240 0.950 . S
H1235 C1241 0.950 1_554 S
H1236 C1242 0.949 . S
C1237 H1232 0.950 . S
C1237 C1239 1.327 . S
C1237 C1243 1.429 . S
C1238 C1230 1.574 . S
C1238 H1233 0.949 . S
C1238 C1244 1.368 . S
C1239 C1223 1.349 . S
C1239 H1231 0.950 . S
C1239 C1237 1.327 . S
C1240 C1228 1.349 . S
C1240 H1234 0.950 . S
C1240 C1241 1.327 . S
C1241 H1235 0.950 1_556 S
C1241 C1240 1.327 . S
C1241 C1245 1.429 . S
C1242 C1225 1.574 . S
C1242 H1236 0.949 . S
C1242 C1246 1.368 . S
C1243 C1224 1.429 . S
C1243 C1237 1.429 . S
C1243 C1244 1.523 . S
C1244 C1225 1.368 . S
C1244 C1238 1.368 . S
C1244 C1243 1.523 . S
C1245 C1229 1.429 . S
C1245 C1241 1.429 . S
C1245 C1246 1.523 1_556 S
C1246 C1230 1.368 . S
C1246 C1242 1.368 . S
C1246 C1245 1.523 1_554 S
H1247 C1222 0.950 . S
H1248 C1224 0.950 . S
H1249 C1225 0.949 . S
H1250 C1227 0.950 . S
H1251 C1229 0.950 . S
C1252 C1253 1.349 . S
C1252 C1254 1.327 . S
C1252 H1277 0.950 . S
C1253 C1252 1.349 . S
C1253 C1269 1.349 . S
C1254 C1252 1.327 . S
C1254 C1273 1.429 . S
C1254 H1278 0.950 . S
C1255 C1272 1.574 . S
C1255 C1274 1.368 . S
C1255 H1279 0.949 . S
H1256 C1260 0.949 . S
C1257 C1258 1.349 . S
C1257 C1259 1.327 . S
C1257 H1280 0.950 . S
C1258 C1257 1.349 . S
C1258 C1270 1.349 . S
C1259 C1257 1.327 . S
C1259 C1275 1.429 . S
C1259 H1281 0.950 . S
C1260 H1256 0.949 . S
C1260 C1268 1.574 . S
C1260 C1276 1.368 . S
H1261 C1269 0.950 . S
H1262 C1267 0.950 . S
H1263 C1268 0.949 . S
H1264 C1270 0.950 . S
H1265 C1271 0.950 . S
H1266 C1272 0.949 . S
C1267 H1262 0.950 . S
C1267 C1269 1.327 . S
C1267 C1273 1.429 . S
C1268 C1260 1.574 . S
C1268 H1263 0.949 . S
C1268 C1274 1.368 . S
C1269 C1253 1.349 . S
C1269 H1261 0.950 . S
C1269 C1267 1.327 . S
C1270 C1258 1.349 . S
C1270 H1264 0.950 . S
C1270 C1271 1.327 . S
C1271 H1265 0.950 . S
C1271 C1270 1.327 . S
C1271 C1275 1.429 . S
C1272 C1255 1.574 . S
C1272 H1266 0.949 . S
C1272 C1276 1.368 . S
C1273 C1254 1.429 . S
C1273 C1267 1.429 . S
C1273 C1274 1.523 . S
C1274 C1255 1.368 . S
C1274 C1268 1.368 . S
C1274 C1273 1.523 . S
C1275 C1259 1.429 . S
C1275 C1271 1.429 . S
C1275 C1276 1.523 1_554 S
C1276 C1260 1.368 . S
C1276 C1272 1.368 . S
C1276 C1275 1.523 1_556 S
H1277 C1252 0.950 . S
H1278 C1254 0.950 . S
H1279 C1255 0.949 . S
H1280 C1257 0.950 . S
H1281 C1259 0.950 . S
C1282 C1283 1.349 . S
C1282 C1284 1.327 . S
C1282 H1307 0.950 . S
C1283 C1282 1.349 . S
C1283 C1299 1.349 . S
C1284 C1282 1.327 . S
C1284 C1303 1.429 . S
C1284 H1308 0.950 . S
C1285 C1302 1.574 . S
C1285 C1304 1.368 . S
C1285 H1309 0.949 . S
H1286 C1290 0.949 . S
C1287 C1288 1.349 . S
C1287 C1289 1.327 . S
C1287 H1310 0.950 . S
C1288 C1287 1.349 . S
C1288 C1300 1.349 . S
C1289 C1287 1.327 . S
C1289 C1305 1.429 . S
C1289 H1311 0.950 . S
C1290 H1286 0.949 . S
C1290 C1298 1.574 . S
C1290 C1306 1.368 . S
H1291 C1299 0.950 . S
H1292 C1297 0.950 . S
H1293 C1298 0.949 . S
H1294 C1300 0.950 . S
H1295 C1301 0.950 . S
H1296 C1302 0.949 . S
C1297 H1292 0.950 . S
C1297 C1299 1.327 . S
C1297 C1303 1.429 . S
C1298 C1290 1.574 . S
C1298 H1293 0.949 . S
C1298 C1304 1.368 . S
C1299 C1283 1.349 . S
C1299 H1291 0.950 . S
C1299 C1297 1.327 . S
C1300 C1288 1.349 . S
C1300 H1294 0.950 . S
C1300 C1301 1.327 . S
C1301 H1295 0.950 . S
C1301 C1300 1.327 . S
C1301 C1305 1.429 . S
C1302 C1285 1.574 . S
C1302 H1296 0.949 . S
C1302 C1306 1.368 . S
C1303 C1284 1.429 . S
C1303 C1297 1.429 . S
C1303 C1304 1.523 1_556 S
C1304 C1285 1.368 . S
C1304 C1298 1.368 . S
C1304 C1303 1.523 1_554 S
C1305 C1289 1.429 . S
C1305 C1301 1.429 . S
C1305 C1306 1.523 . S
C1306 C1290 1.368 . S
C1306 C1302 1.368 . S
C1306 C1305 1.523 . S
H1307 C1282 0.950 . S
H1308 C1284 0.950 . S
H1309 C1285 0.949 . S
H1310 C1287 0.950 . S
H1311 C1289 0.950 . S
C1312 C1313 1.349 . S
C1312 C1314 1.327 . S
C1312 H1337 0.950 . S
C1313 C1312 1.349 . S
C1313 C1329 1.349 . S
C1314 C1312 1.327 . S
C1314 C1333 1.429 . S
C1314 H1338 0.950 . S
C1315 C1332 1.574 . S
C1315 C1334 1.368 . S
C1315 H1339 0.949 . S
H1316 C1320 0.949 . S
C1317 C1318 1.349 . S
C1317 C1319 1.327 . S
C1317 H1340 0.950 . S
C1318 C1317 1.349 . S
C1318 C1330 1.349 . S
C1319 C1317 1.327 . S
C1319 C1335 1.429 . S
C1319 H1341 0.950 . S
C1320 H1316 0.949 . S
C1320 C1328 1.574 . S
C1320 C1336 1.368 . S
H1321 C1329 0.950 . S
H1322 C1327 0.950 . S
H1323 C1328 0.949 . S
H1324 C1330 0.950 . S
H1325 C1331 0.950 . S
H1326 C1332 0.949 . S
C1327 H1322 0.950 . S
C1327 C1329 1.327 . S
C1327 C1333 1.429 . S
C1328 C1320 1.574 . S
C1328 H1323 0.949 . S
C1328 C1334 1.368 . S
C1329 C1313 1.349 . S
C1329 H1321 0.950 . S
C1329 C1327 1.327 . S
C1330 C1318 1.349 . S
C1330 H1324 0.950 . S
C1330 C1331 1.327 . S
C1331 H1325 0.950 . S
C1331 C1330 1.327 . S
C1331 C1335 1.429 . S
C1332 C1315 1.574 . S
C1332 H1326 0.949 . S
C1332 C1336 1.368 . S
C1333 C1314 1.429 . S
C1333 C1327 1.429 . S
C1333 C1334 1.523 . S
C1334 C1315 1.368 . S
C1334 C1328 1.368 . S
C1334 C1333 1.523 . S
C1335 C1319 1.429 . S
C1335 C1331 1.429 . S
C1335 C1336 1.523 . S
C1336 C1320 1.368 . S
C1336 C1332 1.368 . S
C1336 C1335 1.523 . S
H1337 C1312 0.950 . S
H1338 C1314 0.950 . S
H1339 C1315 0.949 . S
H1340 C1317 0.950 . S
H1341 C1319 0.950 . S
C1342 C1343 1.349 . S
C1342 C1344 1.327 . S
C1342 H1367 0.950 . S
C1343 C1342 1.349 . S
C1343 C1359 1.349 . S
C1344 C1342 1.327 . S
C1344 C1363 1.429 . S
C1344 H1368 0.950 . S
C1345 C1362 1.574 . S
C1345 C1364 1.368 . S
C1345 H1369 0.949 . S
H1346 C1350 0.949 . S
C1347 C1348 1.349 . S
C1347 C1349 1.327 . S
C1347 H1370 0.950 . S
C1348 C1347 1.349 . S
C1348 C1360 1.349 . S
C1349 C1347 1.327 . S
C1349 C1365 1.429 . S
C1349 H1371 0.950 . S
C1350 H1346 0.949 . S
C1350 C1358 1.574 . S
C1350 C1366 1.368 . S
H1351 C1359 0.950 . S
H1352 C1357 0.950 . S
H1353 C1358 0.949 . S
H1354 C1360 0.950 . S
H1355 C1361 0.950 . S
H1356 C1362 0.949 . S
C1357 H1352 0.950 . S
C1357 C1359 1.327 . S
C1357 C1363 1.429 . S
C1358 C1350 1.574 . S
C1358 H1353 0.949 . S
C1358 C1364 1.368 . S
C1359 C1343 1.349 . S
C1359 H1351 0.950 . S
C1359 C1357 1.327 . S
C1360 C1348 1.349 . S
C1360 H1354 0.950 . S
C1360 C1361 1.327 . S
C1361 H1355 0.950 . S
C1361 C1360 1.327 . S
C1361 C1365 1.429 . S
C1362 C1345 1.574 . S
C1362 H1356 0.949 . S
C1362 C1366 1.368 . S
C1363 C1344 1.429 . S
C1363 C1357 1.429 . S
C1363 C1364 1.523 . S
C1364 C1345 1.368 . S
C1364 C1358 1.368 . S
C1364 C1363 1.523 . S
C1365 C1349 1.429 . S
C1365 C1361 1.429 . S
C1365 C1366 1.523 . S
C1366 C1350 1.368 . S
C1366 C1362 1.368 . S
C1366 C1365 1.523 . S
H1367 C1342 0.950 . S
H1368 C1344 0.950 . S
H1369 C1345 0.949 . S
H1370 C1347 0.950 . S
H1371 C1349 0.950 . S
C1372 C1373 1.349 . S
C1372 C1374 1.327 . S
C1372 H1397 0.950 . S
C1373 C1372 1.349 . S
C1373 C1389 1.349 . S
C1374 C1372 1.327 . S
C1374 C1393 1.429 . S
C1374 H1398 0.950 . S
C1375 C1392 1.574 . S
C1375 C1394 1.368 . S
C1375 H1399 0.949 . S
H1376 C1380 0.949 . S
C1377 C1378 1.349 . S
C1377 C1379 1.327 . S
C1377 H1400 0.950 . S
C1378 C1377 1.349 . S
C1378 C1390 1.349 . S
C1379 C1377 1.327 . S
C1379 C1395 1.429 . S
C1379 H1401 0.950 . S
C1380 H1376 0.949 . S
C1380 C1388 1.574 . S
C1380 C1396 1.368 . S
H1381 C1389 0.950 . S
H1382 C1387 0.950 . S
H1383 C1388 0.949 . S
H1384 C1390 0.950 . S
H1385 C1391 0.950 . S
H1386 C1392 0.949 . S
C1387 H1382 0.950 . S
C1387 C1389 1.327 . S
C1387 C1393 1.429 . S
C1388 C1380 1.574 . S
C1388 H1383 0.949 . S
C1388 C1394 1.368 . S
C1389 C1373 1.349 . S
C1389 H1381 0.950 . S
C1389 C1387 1.327 . S
C1390 C1378 1.349 . S
C1390 H1384 0.950 . S
C1390 C1391 1.327 . S
C1391 H1385 0.950 . S
C1391 C1390 1.327 . S
C1391 C1395 1.429 . S
C1392 C1375 1.574 . S
C1392 H1386 0.949 . S
C1392 C1396 1.368 . S
C1393 C1374 1.429 . S
C1393 C1387 1.429 . S
C1393 C1394 1.523 . S
C1394 C1375 1.368 . S
C1394 C1388 1.368 . S
C1394 C1393 1.523 . S
C1395 C1379 1.429 . S
C1395 C1391 1.429 . S
C1395 C1396 1.523 . S
C1396 C1380 1.368 . S
C1396 C1392 1.368 . S
C1396 C1395 1.523 . S
H1397 C1372 0.950 . S
H1398 C1374 0.950 . S
H1399 C1375 0.949 . S
H1400 C1377 0.950 . S
H1401 C1379 0.950 . S
C1402 C1403 1.349 . S
C1402 C1404 1.327 . S
C1402 H1427 0.950 . S
C1403 C1402 1.349 . S
C1403 C1419 1.349 . S
C1404 C1402 1.327 . S
C1404 C1423 1.429 . S
C1404 H1428 0.950 . S
C1405 C1422 1.574 . S
C1405 C1424 1.368 . S
C1405 H1429 0.949 . S
H1406 C1410 0.949 . S
C1407 C1408 1.349 . S
C1407 C1409 1.327 . S
C1407 H1430 0.950 . S
C1408 C1407 1.349 . S
C1408 C1420 1.349 . S
C1409 C1407 1.327 . S
C1409 C1425 1.429 . S
C1409 H1431 0.950 . S
C1410 H1406 0.949 . S
C1410 C1418 1.574 . S
C1410 C1426 1.368 . S
H1411 C1419 0.950 . S
H1412 C1417 0.950 . S
H1413 C1418 0.949 . S
H1414 C1420 0.950 . S
H1415 C1421 0.950 . S
H1416 C1422 0.949 . S
C1417 H1412 0.950 . S
C1417 C1419 1.327 . S
C1417 C1423 1.429 . S
C1418 C1410 1.574 . S
C1418 H1413 0.949 . S
C1418 C1424 1.368 . S
C1419 C1403 1.349 . S
C1419 H1411 0.950 . S
C1419 C1417 1.327 . S
C1420 C1408 1.349 . S
C1420 H1414 0.950 . S
C1420 C1421 1.327 . S
C1421 H1415 0.950 . S
C1421 C1420 1.327 . S
C1421 C1425 1.429 . S
C1422 C1405 1.574 . S
C1422 H1416 0.949 . S
C1422 C1426 1.368 . S
C1423 C1404 1.429 . S
C1423 C1417 1.429 . S
C1423 C1424 1.523 . S
C1424 C1405 1.368 . S
C1424 C1418 1.368 . S
C1424 C1423 1.523 . S
C1425 C1409 1.429 . S
C1425 C1421 1.429 . S
C1425 C1426 1.523 . S
C1426 C1410 1.368 . S
C1426 C1422 1.368 . S
C1426 C1425 1.523 . S
H1427 C1402 0.950 . S
H1428 C1404 0.950 . S
H1429 C1405 0.949 . S
H1430 C1407 0.950 . S
H1431 C1409 0.950 . S
C1432 C1433 1.349 . S
C1432 C1434 1.327 . S
C1432 H1457 0.950 . S
C1433 C1432 1.349 . S
C1433 C1449 1.349 . S
C1434 C1432 1.327 . S
C1434 C1453 1.429 . S
C1434 H1458 0.950 . S
C1435 C1452 1.574 . S
C1435 C1454 1.368 . S
C1435 H1459 0.949 . S
H1436 C1440 0.949 . S
C1437 C1438 1.349 . S
C1437 C1439 1.327 . S
C1437 H1460 0.950 . S
C1438 C1437 1.349 . S
C1438 C1450 1.349 . S
C1439 C1437 1.327 . S
C1439 C1455 1.429 . S
C1439 H1461 0.950 . S
C1440 H1436 0.949 . S
C1440 C1448 1.574 . S
C1440 C1456 1.368 . S
H1441 C1449 0.950 . S
H1442 C1447 0.950 . S
H1443 C1448 0.949 . S
H1444 C1450 0.950 . S
H1445 C1451 0.950 . S
H1446 C1452 0.949 . S
C1447 H1442 0.950 . S
C1447 C1449 1.327 . S
C1447 C1453 1.429 . S
C1448 C1440 1.574 . S
C1448 H1443 0.949 . S
C1448 C1454 1.368 . S
C1449 C1433 1.349 . S
C1449 H1441 0.950 . S
C1449 C1447 1.327 . S
C1450 C1438 1.349 . S
C1450 H1444 0.950 . S
C1450 C1451 1.327 . S
C1451 H1445 0.950 . S
C1451 C1450 1.327 . S
C1451 C1455 1.429 . S
C1452 C1435 1.574 . S
C1452 H1446 0.949 . S
C1452 C1456 1.368 . S
C1453 C1434 1.429 . S
C1453 C1447 1.429 . S
C1453 C1454 1.523 . S
C1454 C1435 1.368 . S
C1454 C1448 1.368 . S
C1454 C1453 1.523 . S
C1455 C1439 1.429 . S
C1455 C1451 1.429 . S
C1455 C1456 1.523 . S
C1456 C1440 1.368 . S
C1456 C1452 1.368 . S
C1456 C1455 1.523 . S
H1457 C1432 0.950 . S
H1458 C1434 0.950 . S
H1459 C1435 0.949 . S
H1460 C1437 0.950 . S
H1461 C1439 0.950 . S
C1462 C1463 1.349 . S
C1462 C1464 1.327 . S
C1462 H1487 0.950 . S
C1463 C1462 1.349 . S
C1463 C1479 1.349 . S
C1464 C1462 1.327 . S
C1464 C1483 1.429 . S
C1464 H1488 0.950 . S
C1465 C1482 1.574 . S
C1465 C1484 1.368 . S
C1465 H1489 0.949 . S
H1466 C1470 0.949 . S
C1467 C1468 1.349 . S
C1467 C1469 1.327 . S
C1467 H1490 0.950 . S
C1468 C1467 1.349 . S
C1468 C1480 1.349 . S
C1469 C1467 1.327 . S
C1469 C1485 1.429 . S
C1469 H1491 0.950 . S
C1470 H1466 0.949 . S
C1470 C1478 1.574 . S
C1470 C1486 1.368 . S
H1471 C1479 0.950 . S
H1472 C1477 0.950 . S
H1473 C1478 0.949 . S
H1474 C1480 0.950 . S
H1475 C1481 0.950 . S
H1476 C1482 0.949 . S
C1477 H1472 0.950 . S
C1477 C1479 1.327 . S
C1477 C1483 1.429 . S
C1478 C1470 1.574 . S
C1478 H1473 0.949 . S
C1478 C1484 1.368 . S
C1479 C1463 1.349 . S
C1479 H1471 0.950 . S
C1479 C1477 1.327 . S
C1480 C1468 1.349 . S
C1480 H1474 0.950 . S
C1480 C1481 1.327 . S
C1481 H1475 0.950 . S
C1481 C1480 1.327 . S
C1481 C1485 1.429 . S
C1482 C1465 1.574 . S
C1482 H1476 0.949 . S
C1482 C1486 1.368 . S
C1483 C1464 1.429 . S
C1483 C1477 1.429 . S
C1483 C1484 1.523 . S
C1484 C1465 1.368 . S
C1484 C1478 1.368 . S
C1484 C1483 1.523 . S
C1485 C1469 1.429 . S
C1485 C1481 1.429 . S
C1485 C1486 1.523 . S
C1486 C1470 1.368 . S
C1486 C1482 1.368 . S
C1486 C1485 1.523 . S
H1487 C1462 0.950 . S
H1488 C1464 0.950 . S
H1489 C1465 0.949 . S
H1490 C1467 0.950 . S
H1491 C1469 0.950 . S
C1492 C1493 1.349 . S
C1492 C1494 1.327 . S
C1492 H1517 0.950 . S
C1493 C1492 1.349 . S
C1493 C1509 1.349 . S
C1494 C1492 1.327 . S
C1494 C1513 1.429 . S
C1494 H1518 0.950 . S
C1495 C1512 1.574 . S
C1495 C1514 1.368 . S
C1495 H1519 0.949 . S
H1496 C1500 0.949 . S
C1497 C1498 1.349 . S
C1497 C1499 1.327 . S
C1497 H1520 0.950 . S
C1498 C1497 1.349 . S
C1498 C1510 1.349 . S
C1499 C1497 1.327 . S
C1499 C1515 1.429 . S
C1499 H1521 0.950 . S
C1500 H1496 0.949 . S
C1500 C1508 1.574 . S
C1500 C1516 1.368 . S
H1501 C1509 0.950 . S
H1502 C1507 0.950 . S
H1503 C1508 0.949 . S
H1504 C1510 0.950 . S
H1505 C1511 0.950 . S
H1506 C1512 0.949 . S
C1507 H1502 0.950 . S
C1507 C1509 1.327 . S
C1507 C1513 1.429 . S
C1508 C1500 1.574 . S
C1508 H1503 0.949 . S
C1508 C1514 1.368 . S
C1509 C1493 1.349 . S
C1509 H1501 0.950 . S
C1509 C1507 1.327 . S
C1510 C1498 1.349 . S
C1510 H1504 0.950 . S
C1510 C1511 1.327 . S
C1511 H1505 0.950 . S
C1511 C1510 1.327 . S
C1511 C1515 1.429 . S
C1512 C1495 1.574 . S
C1512 H1506 0.949 . S
C1512 C1516 1.368 . S
C1513 C1494 1.429 . S
C1513 C1507 1.429 . S
C1513 C1514 1.523 . S
C1514 C1495 1.368 . S
C1514 C1508 1.368 . S
C1514 C1513 1.523 . S
C1515 C1499 1.429 . S
C1515 C1511 1.429 . S
C1515 C1516 1.523 . S
C1516 C1500 1.368 . S
C1516 C1512 1.368 . S
C1516 C1515 1.523 . S
H1517 C1492 0.950 . S
H1518 C1494 0.950 . S
H1519 C1495 0.949 . S
H1520 C1497 0.950 . S
H1521 C1499 0.950 . S
C1522 C1523 1.349 . S
C1522 C1524 1.327 . S
C1522 H1547 0.950 . S
C1523 C1522 1.349 . S
C1523 C1539 1.349 . S
C1524 C1522 1.327 . S
C1524 C1543 1.429 . S
C1524 H1548 0.950 . S
C1525 C1542 1.574 . S
C1525 C1544 1.368 . S
C1525 H1549 0.949 . S
H1526 C1530 0.949 . S
C1527 C1528 1.349 . S
C1527 C1529 1.327 . S
C1527 H1550 0.950 . S
C1528 C1527 1.349 . S
C1528 C1540 1.349 . S
C1529 C1527 1.327 . S
C1529 C1545 1.429 . S
C1529 H1551 0.950 . S
C1530 H1526 0.949 . S
C1530 C1538 1.574 . S
C1530 C1546 1.368 . S
H1531 C1539 0.950 . S
H1532 C1537 0.950 . S
H1533 C1538 0.949 . S
H1534 C1540 0.950 . S
H1535 C1541 0.950 . S
H1536 C1542 0.949 . S
C1537 H1532 0.950 . S
C1537 C1539 1.327 . S
C1537 C1543 1.429 . S
C1538 C1530 1.574 . S
C1538 H1533 0.949 . S
C1538 C1544 1.368 . S
C1539 C1523 1.349 . S
C1539 H1531 0.950 . S
C1539 C1537 1.327 . S
C1540 C1528 1.349 . S
C1540 H1534 0.950 . S
C1540 C1541 1.327 . S
C1541 H1535 0.950 . S
C1541 C1540 1.327 . S
C1541 C1545 1.429 . S
C1542 C1525 1.574 . S
C1542 H1536 0.949 . S
C1542 C1546 1.368 . S
C1543 C1524 1.429 . S
C1543 C1537 1.429 . S
C1543 C1544 1.523 . S
C1544 C1525 1.368 . S
C1544 C1538 1.368 . S
C1544 C1543 1.523 . S
C1545 C1529 1.429 . S
C1545 C1541 1.429 . S
C1545 C1546 1.523 . S
C1546 C1530 1.368 . S
C1546 C1542 1.368 . S
C1546 C1545 1.523 . S
H1547 C1522 0.950 . S
H1548 C1524 0.950 . S
H1549 C1525 0.949 . S
H1550 C1527 0.950 . S
H1551 C1529 0.950 . S
C1552 C1553 1.349 . S
C1552 C1554 1.327 . S
C1552 H1577 0.950 . S
C1553 C1552 1.349 . S
C1553 C1569 1.349 . S
C1554 C1552 1.327 . S
C1554 C1573 1.429 . S
C1554 H1578 0.950 . S
C1555 C1572 1.574 . S
C1555 C1574 1.368 . S
C1555 H1579 0.949 . S
H1556 C1560 0.949 . S
C1557 C1558 1.349 . S
C1557 C1559 1.327 . S
C1557 H1580 0.950 . S
C1558 C1557 1.349 . S
C1558 C1570 1.349 . S
C1559 C1557 1.327 . S
C1559 C1575 1.429 . S
C1559 H1581 0.950 . S
C1560 H1556 0.949 . S
C1560 C1568 1.574 . S
C1560 C1576 1.368 . S
H1561 C1569 0.950 . S
H1562 C1567 0.950 . S
H1563 C1568 0.949 . S
H1564 C1570 0.950 . S
H1565 C1571 0.950 . S
H1566 C1572 0.949 . S
C1567 H1562 0.950 . S
C1567 C1569 1.327 . S
C1567 C1573 1.429 . S
C1568 C1560 1.574 . S
C1568 H1563 0.949 . S
C1568 C1574 1.368 . S
C1569 C1553 1.349 . S
C1569 H1561 0.950 . S
C1569 C1567 1.327 . S
C1570 C1558 1.349 . S
C1570 H1564 0.950 . S
C1570 C1571 1.327 . S
C1571 H1565 0.950 . S
C1571 C1570 1.327 . S
C1571 C1575 1.429 . S
C1572 C1555 1.574 . S
C1572 H1566 0.949 . S
C1572 C1576 1.368 . S
C1573 C1554 1.429 . S
C1573 C1567 1.429 . S
C1573 C1574 1.523 . S
C1574 C1555 1.368 . S
C1574 C1568 1.368 . S
C1574 C1573 1.523 . S
C1575 C1559 1.429 . S
C1575 C1571 1.429 . S
C1575 C1576 1.523 . S
C1576 C1560 1.368 . S
C1576 C1572 1.368 . S
C1576 C1575 1.523 . S
H1577 C1552 0.950 . S
H1578 C1554 0.950 . S
H1579 C1555 0.949 . S
H1580 C1557 0.950 . S
H1581 C1559 0.950 . S
C1582 C1583 1.349 . S
C1582 C1584 1.327 . S
C1582 H1607 0.950 . S
C1583 C1582 1.349 . S
C1583 C1599 1.349 . S
C1584 C1582 1.327 . S
C1584 C1603 1.429 . S
C1584 H1608 0.950 . S
C1585 C1602 1.574 . S
C1585 C1604 1.368 . S
C1585 H1609 0.949 . S
H1586 C1590 0.949 . S
C1587 C1588 1.349 . S
C1587 C1589 1.327 . S
C1587 H1610 0.950 . S
C1588 C1587 1.349 . S
C1588 C1600 1.349 . S
C1589 C1587 1.327 . S
C1589 C1605 1.429 . S
C1589 H1611 0.950 . S
C1590 H1586 0.949 . S
C1590 C1598 1.574 . S
C1590 C1606 1.368 . S
H1591 C1599 0.950 . S
H1592 C1597 0.950 . S
H1593 C1598 0.949 . S
H1594 C1600 0.950 . S
H1595 C1601 0.950 . S
H1596 C1602 0.949 . S
C1597 H1592 0.950 . S
C1597 C1599 1.327 . S
C1597 C1603 1.429 . S
C1598 C1590 1.574 . S
C1598 H1593 0.949 . S
C1598 C1604 1.368 . S
C1599 C1583 1.349 . S
C1599 H1591 0.950 . S
C1599 C1597 1.327 . S
C1600 C1588 1.349 . S
C1600 H1594 0.950 . S
C1600 C1601 1.327 . S
C1601 H1595 0.950 . S
C1601 C1600 1.327 . S
C1601 C1605 1.429 . S
C1602 C1585 1.574 . S
C1602 H1596 0.949 . S
C1602 C1606 1.368 . S
C1603 C1584 1.429 . S
C1603 C1597 1.429 . S
C1603 C1604 1.523 . S
C1604 C1585 1.368 . S
C1604 C1598 1.368 . S
C1604 C1603 1.523 . S
C1605 C1589 1.429 . S
C1605 C1601 1.429 . S
C1605 C1606 1.523 . S
C1606 C1590 1.368 . S
C1606 C1602 1.368 . S
C1606 C1605 1.523 . S
H1607 C1582 0.950 . S
H1608 C1584 0.950 . S
H1609 C1585 0.949 . S
H1610 C1587 0.950 . S
H1611 C1589 0.950 . S
C1612 C1613 1.349 . S
C1612 C1614 1.327 . S
C1612 H1637 0.950 . S
C1613 C1612 1.349 . S
C1613 C1629 1.349 . S
C1614 C1612 1.327 . S
C1614 C1633 1.429 . S
C1614 H1638 0.950 . S
C1615 C1632 1.574 . S
C1615 C1634 1.368 . S
C1615 H1639 0.949 . S
H1616 C1620 0.949 . S
C1617 C1618 1.349 . S
C1617 C1619 1.327 . S
C1617 H1640 0.950 . S
C1618 C1617 1.349 . S
C1618 C1630 1.349 . S
C1619 C1617 1.327 . S
C1619 C1635 1.429 . S
C1619 H1641 0.950 . S
C1620 H1616 0.949 . S
C1620 C1628 1.574 . S
C1620 C1636 1.368 . S
H1621 C1629 0.950 . S
H1622 C1627 0.950 . S
H1623 C1628 0.949 . S
H1624 C1630 0.950 . S
H1625 C1631 0.950 . S
H1626 C1632 0.949 . S
C1627 H1622 0.950 . S
C1627 C1629 1.327 . S
C1627 C1633 1.429 . S
C1628 C1620 1.574 . S
C1628 H1623 0.949 . S
C1628 C1634 1.368 . S
C1629 C1613 1.349 . S
C1629 H1621 0.950 . S
C1629 C1627 1.327 . S
C1630 C1618 1.349 . S
C1630 H1624 0.950 . S
C1630 C1631 1.327 . S
C1631 H1625 0.950 . S
C1631 C1630 1.327 . S
C1631 C1635 1.429 . S
C1632 C1615 1.574 . S
C1632 H1626 0.949 . S
C1632 C1636 1.368 . S
C1633 C1614 1.429 . S
C1633 C1627 1.429 . S
C1633 C1634 1.523 . S
C1634 C1615 1.368 . S
C1634 C1628 1.368 . S
C1634 C1633 1.523 . S
C1635 C1619 1.429 . S
C1635 C1631 1.429 . S
C1635 C1636 1.523 . S
C1636 C1620 1.368 . S
C1636 C1632 1.368 . S
C1636 C1635 1.523 . S
H1637 C1612 0.950 . S
H1638 C1614 0.950 . S
H1639 C1615 0.949 . S
H1640 C1617 0.950 . S
H1641 C1619 0.950 . S
C1642 C1643 1.349 . S
C1642 C1644 1.327 . S
C1642 H1667 0.950 . S
C1643 C1642 1.349 . S
C1643 C1659 1.349 . S
C1644 C1642 1.327 . S
C1644 C1663 1.429 . S
C1644 H1668 0.950 . S
C1645 C1662 1.574 . S
C1645 C1664 1.368 . S
C1645 H1669 0.949 . S
H1646 C1650 0.949 . S
C1647 C1648 1.349 . S
C1647 C1649 1.327 . S
C1647 H1670 0.950 . S
C1648 C1647 1.349 . S
C1648 C1660 1.349 . S
C1649 C1647 1.327 . S
C1649 C1665 1.429 . S
C1649 H1671 0.950 . S
C1650 H1646 0.949 . S
C1650 C1658 1.574 . S
C1650 C1666 1.368 . S
H1651 C1659 0.950 . S
H1652 C1657 0.950 . S
H1653 C1658 0.949 . S
H1654 C1660 0.950 . S
H1655 C1661 0.950 . S
H1656 C1662 0.949 . S
C1657 H1652 0.950 . S
C1657 C1659 1.327 . S
C1657 C1663 1.429 . S
C1658 C1650 1.574 . S
C1658 H1653 0.949 . S
C1658 C1664 1.368 . S
C1659 C1643 1.349 . S
C1659 H1651 0.950 . S
C1659 C1657 1.327 . S
C1660 C1648 1.349 . S
C1660 H1654 0.950 . S
C1660 C1661 1.327 . S
C1661 H1655 0.950 . S
C1661 C1660 1.327 . S
C1661 C1665 1.429 . S
C1662 C1645 1.574 . S
C1662 H1656 0.949 . S
C1662 C1666 1.368 . S
C1663 C1644 1.429 . S
C1663 C1657 1.429 . S
C1663 C1664 1.523 . S
C1664 C1645 1.368 . S
C1664 C1658 1.368 . S
C1664 C1663 1.523 . S
C1665 C1649 1.429 . S
C1665 C1661 1.429 . S
C1665 C1666 1.523 . S
C1666 C1650 1.368 . S
C1666 C1662 1.368 . S
C1666 C1665 1.523 . S
H1667 C1642 0.950 . S
H1668 C1644 0.950 . S
H1669 C1645 0.949 . S
H1670 C1647 0.950 . S
H1671 C1649 0.950 . S
C1672 C1673 1.349 . S
C1672 C1674 1.327 . S
C1672 H1697 0.950 . S
C1673 C1672 1.349 . S
C1673 C1689 1.349 . S
C1674 C1672 1.327 . S
C1674 C1693 1.429 . S
C1674 H1698 0.950 . S
C1675 C1692 1.574 . S
C1675 C1694 1.368 . S
C1675 H1699 0.949 . S
H1676 C1680 0.949 . S
C1677 C1678 1.349 . S
C1677 C1679 1.327 . S
C1677 H1700 0.950 . S
C1678 C1677 1.349 . S
C1678 C1690 1.349 . S
C1679 C1677 1.327 . S
C1679 C1695 1.429 . S
C1679 H1701 0.950 . S
C1680 H1676 0.949 . S
C1680 C1688 1.574 . S
C1680 C1696 1.368 . S
H1681 C1689 0.950 . S
H1682 C1687 0.950 . S
H1683 C1688 0.949 . S
H1684 C1690 0.950 . S
H1685 C1691 0.950 . S
H1686 C1692 0.949 . S
C1687 H1682 0.950 . S
C1687 C1689 1.327 . S
C1687 C1693 1.429 . S
C1688 C1680 1.574 . S
C1688 H1683 0.949 . S
C1688 C1694 1.368 . S
C1689 C1673 1.349 . S
C1689 H1681 0.950 . S
C1689 C1687 1.327 . S
C1690 C1678 1.349 . S
C1690 H1684 0.950 . S
C1690 C1691 1.327 . S
C1691 H1685 0.950 . S
C1691 C1690 1.327 . S
C1691 C1695 1.429 . S
C1692 C1675 1.574 . S
C1692 H1686 0.949 . S
C1692 C1696 1.368 . S
C1693 C1674 1.429 . S
C1693 C1687 1.429 . S
C1693 C1694 1.523 . S
C1694 C1675 1.368 . S
C1694 C1688 1.368 . S
C1694 C1693 1.523 . S
C1695 C1679 1.429 . S
C1695 C1691 1.429 . S
C1695 C1696 1.523 . S
C1696 C1680 1.368 . S
C1696 C1692 1.368 . S
C1696 C1695 1.523 . S
H1697 C1672 0.950 . S
H1698 C1674 0.950 . S
H1699 C1675 0.949 . S
H1700 C1677 0.950 . S
H1701 C1679 0.950 . S
C1702 C1703 1.349 . S
C1702 C1704 1.327 . S
C1702 H1727 0.950 . S
C1703 C1702 1.349 . S
C1703 C1719 1.349 . S
C1704 C1702 1.327 . S
C1704 C1723 1.429 . S
C1704 H1728 0.950 . S
C1705 C1722 1.574 . S
C1705 C1724 1.368 . S
C1705 H1729 0.949 . S
H1706 C1710 0.949 . S
C1707 C1708 1.349 . S
C1707 C1709 1.327 . S
C1707 H1730 0.950 . S
C1708 C1707 1.349 . S
C1708 C1720 1.349 . S
C1709 C1707 1.327 . S
C1709 C1725 1.429 . S
C1709 H1731 0.950 . S
C1710 H1706 0.949 . S
C1710 C1718 1.574 . S
C1710 C1726 1.368 . S
H1711 C1719 0.950 . S
H1712 C1717 0.950 . S
H1713 C1718 0.949 . S
H1714 C1720 0.950 . S
H1715 C1721 0.950 . S
H1716 C1722 0.949 . S
C1717 H1712 0.950 . S
C1717 C1719 1.327 . S
C1717 C1723 1.429 . S
C1718 C1710 1.574 . S
C1718 H1713 0.949 . S
C1718 C1724 1.368 . S
C1719 C1703 1.349 . S
C1719 H1711 0.950 . S
C1719 C1717 1.327 . S
C1720 C1708 1.349 . S
C1720 H1714 0.950 . S
C1720 C1721 1.327 . S
C1721 H1715 0.950 . S
C1721 C1720 1.327 . S
C1721 C1725 1.429 . S
C1722 C1705 1.574 . S
C1722 H1716 0.949 . S
C1722 C1726 1.368 . S
C1723 C1704 1.429 . S
C1723 C1717 1.429 . S
C1723 C1724 1.523 . S
C1724 C1705 1.368 . S
C1724 C1718 1.368 . S
C1724 C1723 1.523 . S
C1725 C1709 1.429 . S
C1725 C1721 1.429 . S
C1725 C1726 1.523 . S
C1726 C1710 1.368 . S
C1726 C1722 1.368 . S
C1726 C1725 1.523 . S
H1727 C1702 0.950 . S
H1728 C1704 0.950 . S
H1729 C1705 0.949 . S
H1730 C1707 0.950 . S
H1731 C1709 0.950 . S
C1732 C1733 1.349 . S
C1732 C1734 1.327 . S
C1732 H1757 0.950 . S
C1733 C1732 1.349 . S
C1733 C1749 1.349 . S
C1734 C1732 1.327 . S
C1734 C1753 1.429 . S
C1734 H1758 0.950 . S
C1735 C1752 1.574 . S
C1735 C1754 1.368 . S
C1735 H1759 0.949 . S
H1736 C1740 0.949 . S
C1737 C1738 1.349 . S
C1737 C1739 1.327 . S
C1737 H1760 0.950 . S
C1738 C1737 1.349 . S
C1738 C1750 1.349 . S
C1739 C1737 1.327 . S
C1739 C1755 1.429 . S
C1739 H1761 0.950 . S
C1740 H1736 0.949 . S
C1740 C1748 1.574 . S
C1740 C1756 1.368 . S
H1741 C1749 0.950 . S
H1742 C1747 0.950 . S
H1743 C1748 0.949 . S
H1744 C1750 0.950 . S
H1745 C1751 0.950 . S
H1746 C1752 0.949 . S
C1747 H1742 0.950 . S
C1747 C1749 1.327 . S
C1747 C1753 1.429 . S
C1748 C1740 1.574 . S
C1748 H1743 0.949 . S
C1748 C1754 1.368 . S
C1749 C1733 1.349 . S
C1749 H1741 0.950 . S
C1749 C1747 1.327 . S
C1750 C1738 1.349 . S
C1750 H1744 0.950 . S
C1750 C1751 1.327 . S
C1751 H1745 0.950 . S
C1751 C1750 1.327 . S
C1751 C1755 1.429 . S
C1752 C1735 1.574 . S
C1752 H1746 0.949 . S
C1752 C1756 1.368 . S
C1753 C1734 1.429 . S
C1753 C1747 1.429 . S
C1753 C1754 1.523 . S
C1754 C1735 1.368 . S
C1754 C1748 1.368 . S
C1754 C1753 1.523 . S
C1755 C1739 1.429 . S
C1755 C1751 1.429 . S
C1755 C1756 1.523 . S
C1756 C1740 1.368 . S
C1756 C1752 1.368 . S
C1756 C1755 1.523 . S
H1757 C1732 0.950 . S
H1758 C1734 0.950 . S
H1759 C1735 0.949 . S
H1760 C1737 0.950 . S
H1761 C1739 0.950 . S
C1762 C1763 1.349 . S
C1762 C1764 1.327 . S
C1762 H1787 0.950 . S
C1763 C1762 1.349 . S
C1763 C1779 1.349 . S
C1764 C1762 1.327 . S
C1764 C1783 1.429 . S
C1764 H1788 0.950 . S
C1765 C1782 1.574 . S
C1765 C1784 1.368 . S
C1765 H1789 0.949 . S
H1766 C1770 0.949 . S
C1767 C1768 1.349 . S
C1767 C1769 1.327 . S
C1767 H1790 0.950 . S
C1768 C1767 1.349 . S
C1768 C1780 1.349 . S
C1769 C1767 1.327 . S
C1769 C1785 1.429 . S
C1769 H1791 0.950 . S
C1770 H1766 0.949 . S
C1770 C1778 1.574 . S
C1770 C1786 1.368 . S
H1771 C1779 0.950 . S
H1772 C1777 0.950 . S
H1773 C1778 0.949 . S
H1774 C1780 0.950 . S
H1775 C1781 0.950 . S
H1776 C1782 0.949 . S
C1777 H1772 0.950 . S
C1777 C1779 1.327 . S
C1777 C1783 1.429 . S
C1778 C1770 1.574 . S
C1778 H1773 0.949 . S
C1778 C1784 1.368 . S
C1779 C1763 1.349 . S
C1779 H1771 0.950 . S
C1779 C1777 1.327 . S
C1780 C1768 1.349 . S
C1780 H1774 0.950 . S
C1780 C1781 1.327 . S
C1781 H1775 0.950 . S
C1781 C1780 1.327 . S
C1781 C1785 1.429 . S
C1782 C1765 1.574 . S
C1782 H1776 0.949 . S
C1782 C1786 1.368 . S
C1783 C1764 1.429 . S
C1783 C1777 1.429 . S
C1783 C1784 1.523 . S
C1784 C1765 1.368 . S
C1784 C1778 1.368 . S
C1784 C1783 1.523 . S
C1785 C1769 1.429 . S
C1785 C1781 1.429 . S
C1785 C1786 1.523 . S
C1786 C1770 1.368 . S
C1786 C1782 1.368 . S
C1786 C1785 1.523 . S
H1787 C1762 0.950 . S
H1788 C1764 0.950 . S
H1789 C1765 0.949 . S
H1790 C1767 0.950 . S
H1791 C1769 0.950 . S
C353 C15 1.412 . S
C358 C257 1.428 . S
C383 C37 1.419 . S
C388 C183 1.432 . S
C413 C205 1.428 . S
C418 C65 1.412 . S
C443 C241 1.432 . S
C448 C73 1.419 . S
C473 C103 1.412 . S
C478 C307 1.428 . S
C503 C131 1.419 . S
C508 C323 1.432 . S
C533 C345 1.428 . S
C538 C147 1.412 . S
C563 C285 1.432 . S
C568 C161 1.419 . S
C593 C191 1.412 . S
C598 C81 1.428 . S
C623 C7 1.432 . S
C628 C219 1.419 . S
C653 C43 1.428 . S
C658 C227 1.412 . S
C683 C249 1.419 . S
C688 C59 1.432 . S
C713 C271 1.412 . S
C718 C117 1.428 . S
C743 C139 1.432 . S
C748 C301 1.419 . S
C773 C169 1.428 . S
C778 C329 1.412 . S
C803 C95 1.432 . S
C808 C337 1.419 . S
C833 C98 0.871 . S
C838 C10 0.871 . S
C863 C32 0.847 . S
C868 C118 0.847 . S
C893 C142 0.871 . S
C898 C52 0.871 . S
C923 C172 0.847 . S
C928 C84 0.847 . S
C953 C282 0.871 . S
C958 C186 0.871 . S
C983 C206 0.847 . S
C988 C296 0.847 . S
C1013 C238 0.871 . S
C1018 C316 0.871 . S
C1043 C348 0.847 . S
C1048 C260 0.847 . S
C1073 C21 1.382 . S
C1078 C294 1.391 . S
C1103 C318 1.384 . S
C1108 C29 1.374 . S
C1133 C340 1.391 . S
C1138 C51 1.382 . S
C1163 C272 1.384 . S
C1168 C87 1.373 . S
C1193 C109 1.382 . S
C1198 C252 1.391 . S
C1223 C125 1.374 . S
C1228 C194 1.384 . S
C1253 C153 1.382 . S
C1258 C216 1.391 . S
C1283 C228 1.384 . S
C1288 C175 1.373 . S
C1313 C128 1.391 . S
C1318 C197 1.382 . S
C1343 C150 1.384 . S
C1348 C213 1.374 . S
C1373 C235 1.382 . S
C1378 C164 1.391 . S
C1403 C106 1.384 . S
C1408 C263 1.373 . S
C1433 C76 1.391 . S
C1438 C279 1.382 . S
C1463 C293 1.374 . S
C1468 C18 1.384 . S
C1493 C30 1.391 . S
C1498 C315 1.382 . S
C1523 C351 1.373 . S
C1528 C54 1.384 . S
C1553 C162 1.060 . S
C1558 C8 1.057 . S
C1583 C96 1.057 . S
C1588 C40 1.060 . S
C1613 C120 1.060 . S
C1618 C62 1.057 . S
C1643 C140 1.057 . S
C1648 C74 1.060 . S
C1673 C184 1.057 . S
C1678 C338 1.060 . S
C1703 C274 1.057 . S
C1708 C208 1.060 . S
C1733 C304 1.060 . S
C1738 C230 1.057 . S
C1763 C250 1.060 . S
C1768 C326 1.057 . S
