# Generated by pormake.
# Topology unp, (4)-cn, num edge types: 1
# Building blocks:
#     Node 0, Type 0, BuildingBlock: KUFVIS_clean_sbu_0, # of connection points: 4
#     Node 1, Type 0, BuildingBlock: KUFVIS_clean_sbu_0, # of connection points: 4
#     Node 2, Type 0, BuildingBlock: KUFVIS_clean_sbu_0, # of connection points: 4
#     Node 3, Type 0, BuildingBlock: KUFVIS_clean_sbu_0, # of connection points: 4
#     Node 4, Type 0, BuildingBlock: KUFVIS_clean_sbu_0, # of connection points: 4
#     Node 5, Type 0, BuildingBlock: KUFVIS_clean_sbu_0, # of connection points: 4
#     Node 6, Type 0, BuildingBlock: KUFVIS_clean_sbu_0, # of connection points: 4
#     Node 7, Type 0, BuildingBlock: KUFVIS_clean_sbu_0, # of connection points: 4
#     Node 8, Type 0, BuildingBlock: KUFVIS_clean_sbu_0, # of connection points: 4
#     Node 9, Type 0, BuildingBlock: KUFVIS_clean_sbu_0, # of connection points: 4
#     Node 10, Type 0, BuildingBlock: KUFVIS_clean_sbu_0, # of connection points: 4
#     Node 11, Type 0, BuildingBlock: KUFVIS_clean_sbu_0, # of connection points: 4
#     Node 12, Type 0, BuildingBlock: KUFVIS_clean_sbu_0, # of connection points: 4
#     Node 13, Type 0, BuildingBlock: KUFVIS_clean_sbu_0, # of connection points: 4
#     Node 14, Type 0, BuildingBlock: KUFVIS_clean_sbu_0, # of connection points: 4
#     Node 15, Type 0, BuildingBlock: KUFVIS_clean_sbu_0, # of connection points: 4
#     Node 16, Type 0, BuildingBlock: KUFVIS_clean_sbu_0, # of connection points: 4
#     Node 17, Type 0, BuildingBlock: KUFVIS_clean_sbu_0, # of connection points: 4
#     Edge 18, Type (0, 0), BuildingBlock: AJUNOK_clean_linker_0, # of connection points: 2
#     Edge 19, Type (0, 0), BuildingBlock: AJUNOK_clean_linker_0, # of connection points: 2
#     Edge 20, Type (0, 0), BuildingBlock: AJUNOK_clean_linker_0, # of connection points: 2
#     Edge 21, Type (0, 0), BuildingBlock: AJUNOK_clean_linker_0, # of connection points: 2
#     Edge 22, Type (0, 0), BuildingBlock: AJUNOK_clean_linker_0, # of connection points: 2
#     Edge 23, Type (0, 0), BuildingBlock: AJUNOK_clean_linker_0, # of connection points: 2
#     Edge 24, Type (0, 0), BuildingBlock: AJUNOK_clean_linker_0, # of connection points: 2
#     Edge 25, Type (0, 0), BuildingBlock: AJUNOK_clean_linker_0, # of connection points: 2
#     Edge 26, Type (0, 0), BuildingBlock: AJUNOK_clean_linker_0, # of connection points: 2
#     Edge 27, Type (0, 0), BuildingBlock: AJUNOK_clean_linker_0, # of connection points: 2
#     Edge 28, Type (0, 0), BuildingBlock: AJUNOK_clean_linker_0, # of connection points: 2
#     Edge 29, Type (0, 0), BuildingBlock: AJUNOK_clean_linker_0, # of connection points: 2
#     Edge 30, Type (0, 0), BuildingBlock: AJUNOK_clean_linker_0, # of connection points: 2
#     Edge 31, Type (0, 0), BuildingBlock: AJUNOK_clean_linker_0, # of connection points: 2
#     Edge 32, Type (0, 0), BuildingBlock: AJUNOK_clean_linker_0, # of connection points: 2
#     Edge 33, Type (0, 0), BuildingBlock: AJUNOK_clean_linker_0, # of connection points: 2
#     Edge 34, Type (0, 0), BuildingBlock: AJUNOK_clean_linker_0, # of connection points: 2
#     Edge 35, Type (0, 0), BuildingBlock: AJUNOK_clean_linker_0, # of connection points: 2
#     Edge 36, Type (0, 0), BuildingBlock: AJUNOK_clean_linker_0, # of connection points: 2
#     Edge 37, Type (0, 0), BuildingBlock: AJUNOK_clean_linker_0, # of connection points: 2
#     Edge 38, Type (0, 0), BuildingBlock: AJUNOK_clean_linker_0, # of connection points: 2
#     Edge 39, Type (0, 0), BuildingBlock: AJUNOK_clean_linker_0, # of connection points: 2
#     Edge 40, Type (0, 0), BuildingBlock: AJUNOK_clean_linker_0, # of connection points: 2
#     Edge 41, Type (0, 0), BuildingBlock: AJUNOK_clean_linker_0, # of connection points: 2
#     Edge 42, Type (0, 0), BuildingBlock: AJUNOK_clean_linker_0, # of connection points: 2
#     Edge 43, Type (0, 0), BuildingBlock: AJUNOK_clean_linker_0, # of connection points: 2
#     Edge 44, Type (0, 0), BuildingBlock: AJUNOK_clean_linker_0, # of connection points: 2
#     Edge 45, Type (0, 0), BuildingBlock: AJUNOK_clean_linker_0, # of connection points: 2
#     Edge 46, Type (0, 0), BuildingBlock: AJUNOK_clean_linker_0, # of connection points: 2
#     Edge 47, Type (0, 0), BuildingBlock: AJUNOK_clean_linker_0, # of connection points: 2
#     Edge 48, Type (0, 0), BuildingBlock: AJUNOK_clean_linker_0, # of connection points: 2
#     Edge 49, Type (0, 0), BuildingBlock: AJUNOK_clean_linker_0, # of connection points: 2
#     Edge 50, Type (0, 0), BuildingBlock: AJUNOK_clean_linker_0, # of connection points: 2
#     Edge 51, Type (0, 0), BuildingBlock: AJUNOK_clean_linker_0, # of connection points: 2
#     Edge 52, Type (0, 0), BuildingBlock: AJUNOK_clean_linker_0, # of connection points: 2
#     Edge 53, Type (0, 0), BuildingBlock: AJUNOK_clean_linker_0, # of connection points: 2
# Relax obj value: 0.407
# Max RMSD: 0.192
# Mean RMSD: 0.190
data_MOF--net-unp--node1-KUFVIS_clean_sbu_0--edge1-AJUNOK_clean_linker_0
_symmetry_space_group_name_H-M    P1
_symmetry_Int_Tables_number       1
_symmetry_cell_setting            triclinic
loop_
_symmetry_equiv_pos_as_xyz
'x, y, z'
_cell_length_a     35.754282
_cell_length_b     35.820931
_cell_length_c     42.700215
_cell_angle_alpha  90.389837
_cell_angle_beta   89.659553
_cell_angle_gamma 119.94622
loop_
_atom_site_label
_atom_site_type_symbol
_atom_site_fract_x
_atom_site_fract_y
_atom_site_fract_z
_atom_type_partial_charge
Mn0 Mn 0.17115 0.14207 0.07589 0.0
Mn1 Mn 0.21881 0.0905 0.04384 0.0
C2 C 0.15726 0.07561 0.09491 0.0
C3 C 0.11135 0.15097 0.08164 0.0
C4 C 0.26565 0.17068 0.08394 0.0
O5 O 0.18997 0.16983 0.03246 0.0
O6 O 0.21317 0.12672 0.01138 0.0
C7 C 0.14892 0.03309 0.00058 0.0
N8 N 0.17587 0.03824 0.02471 0.0
C9 C 0.14141 0.96162 0.03242 0.0
C10 C 0.11401 0.95552 0.00733 0.0
C11 C 0.11724 0.99137 0.99158 0.0
C12 C 0.17213 0.00389 0.0405 0.0
H13 H 0.15117 0.0606 0.98863 0.0
C14 C 0.20349 0.15666 0.00922 0.0
O15 O 0.14907 0.18056 0.09136 0.0
O16 O 0.10998 0.11959 0.06558 0.0
N17 N 0.22457 0.05408 0.0738 0.0
C18 C 0.25097 0.06548 0.09924 0.0
C19 C 0.25034 0.03328 0.11817 0.0
C20 C 0.22254 0.98971 0.11083 0.0
C21 C 0.19574 0.97874 0.08453 0.0
C22 C 0.19825 0.01226 0.06623 0.0
H23 H 0.27239 0.09886 0.10513 0.0
O24 O 0.15202 0.10194 0.1129 0.0
O25 O 0.17291 0.09077 0.06763 0.0
O26 O 0.23263 0.17333 0.09159 0.0
O27 O 0.26462 0.14294 0.06447 0.0
C28 C 0.16588 0.93589 0.07621 0.0
C29 C 0.1386 0.92734 0.05022 0.0
H30 H 0.0908 0.9233 -0.0001 0.0
H31 H 0.09586 0.9868 0.97228 0.0
H32 H 0.27112 0.04205 0.13845 0.0
H33 H 0.22177 0.96495 0.1257 0.0
H34 H 0.16306 0.90932 0.08998 0.0
H35 H 0.11508 0.8943 0.04442 0.0
Mn36 Mn 0.87468 0.03944 0.14031 0.0
Mn37 Mn 0.8959 0.13125 0.10503 0.0
C38 C 0.94546 0.09724 0.13795 0.0
C39 C 0.86554 0.97022 0.13793 0.0
C40 C 0.84388 0.09767 0.1646 0.0
O41 O 0.82297 0.0228 0.11121 0.0
O42 O 0.84997 0.08269 0.08138 0.0
C43 C 0.93184 0.12267 0.04502 0.0
N44 N 0.93634 0.14538 0.07174 0.0
C45 C 0.00982 0.19731 0.0589 0.0
C46 C 0.00586 0.17467 0.03108 0.0
C47 C 0.96685 0.13677 0.02444 0.0
C48 C 0.97397 0.18123 0.07886 0.0
H49 H 0.90222 0.09319 0.03998 0.0
C50 C 0.82276 0.04285 0.08638 0.0
O51 O 0.84765 0.98125 0.15983 0.0
O52 O 0.88799 -0.00087 0.11702 0.0
N53 N 0.94148 0.17957 0.12658 0.0
C54 C 0.94139 0.19493 0.15585 0.0
C55 C 0.97859 0.23155 0.16695 0.0
C56 C 0.01553 0.25198 0.14789 0.0
C57 C 0.01487 0.23567 0.11784 0.0
C58 C 0.97662 0.1995 0.10785 0.0
H59 H 0.91319 0.17949 0.17066 0.0
O60 O 0.93464 0.06792 0.15935 0.0
O61 O 0.91397 0.09204 0.12051 0.0
O62 O 0.85471 0.06977 0.17077 0.0
O63 O 0.8544 0.11964 0.13943 0.0
C64 C 0.051 0.25323 0.09771 0.0
C65 C 0.04854 0.23392 0.06832 0.0
H66 H 0.03308 0.18537 0.0153 0.0
H67 H 0.96374 0.11749 0.00409 0.0
H68 H 0.97885 0.24391 0.19019 0.0
H69 H 0.04435 0.27989 0.15669 0.0
H70 H 0.0811 0.28102 0.10489 0.0
H71 H 0.07686 0.247 0.0534 0.0
Mn72 Mn 0.96231 0.83168 0.11817 0.0
Mn73 Mn 0.86405 0.75569 0.0969 0.0
C74 C 0.90303 0.83312 0.13881 0.0
C75 C 0.02194 0.89877 0.10902 0.0
C76 C 0.92844 0.73982 0.13129 0.0
O77 O 0.97006 0.80774 0.07676 0.0
O78 O 0.90104 0.77191 0.05841 0.0
C79 C 0.82531 0.78874 0.05201 0.0
N80 N 0.82799 0.7768 0.08164 0.0
C81 C 0.76843 0.78566 0.09849 0.0
C82 C 0.76661 0.8003 0.06856 0.0
C83 C 0.79432 0.80066 0.04506 0.0
C84 C 0.79921 0.77315 0.10386 0.0
H85 H 0.84591 0.78779 0.03387 0.0
C86 C 0.94226 0.78865 0.05497 0.0
O87 O 0.02572 0.86972 0.12448 0.0
O88 O 0.9839 0.88842 0.09883 0.0
N89 N 0.82906 0.74106 0.13411 0.0
C90 C 0.83113 0.72096 0.1605 0.0
C91 C 0.80337 0.7149 0.18574 0.0
C92 C 0.77333 0.7291 0.18355 0.0
C93 C 0.7712 0.74903 0.15603 0.0
C94 C 0.79999 0.75452 0.13172 0.0
H95 H 0.85351 0.70928 0.16235 0.0
O96 O 0.93923 0.85053 0.15417 0.0
O97 O 0.90285 0.8126 0.11372 0.0
O98 O 0.95212 0.77804 0.14113 0.0
O99 O 0.89711 0.72935 0.1126 0.0
C100 C 0.74128 0.7632 0.15163 0.0
C101 C 0.73976 0.78133 0.12281 0.0
H102 H 0.74289 0.80964 0.06301 0.0
H103 H 0.79085 0.80912 0.02157 0.0
H104 H 0.8049 0.69901 0.20677 0.0
H105 H 0.75174 0.72409 0.20299 0.0
H106 H 0.71875 0.75955 0.17005 0.0
H107 H 0.71587 0.79109 0.11937 0.0
Mn108 Mn 0.10221 0.11992 0.83561 0.0
Mn109 Mn 0.08538 0.19846 0.86319 0.0
C110 C 0.03282 0.11125 0.83562 0.0
C111 C 0.10814 0.05846 0.84229 0.0
C112 C 0.13534 0.20493 0.80427 0.0
O113 O 0.15427 0.15668 0.8643 0.0
O114 O 0.13087 0.19764 0.88856 0.0
C115 C 0.05094 0.16717 0.92638 0.0
N116 N 0.04591 0.17966 0.89745 0.0
C117 C 0.97401 0.16453 0.90991 0.0
C118 C 0.97844 0.15158 0.93987 0.0
C119 C 0.01698 0.15251 0.94798 0.0
C120 C 0.00888 0.17847 0.88921 0.0
H121 H 0.08025 0.16738 0.93267 0.0
C122 C 0.1562 0.18203 0.88656 0.0
O123 O 0.12717 0.0849 0.81942 0.0
O124 O 0.0865 0.06834 0.86199 0.0
N125 N 0.04028 0.19976 0.83996 0.0
C126 C 0.04025 0.21088 0.80951 0.0
C127 C 0.00349 0.20997 0.79718 0.0
C128 C 0.96716 0.19782 0.81631 0.0
C129 C 0.96811 0.18708 0.84769 0.0
C130 C 0.00587 0.18908 0.85875 0.0
H131 H 0.0681 0.22068 0.79477 0.0
O132 O 0.04227 0.08876 0.81647 0.0
O133 O 0.06469 0.13846 0.8525 0.0
O134 O 0.12415 0.16551 0.80184 0.0
O135 O 0.12589 0.2211 0.82758 0.0
C136 C 0.93283 0.17384 0.86829 0.0
C137 C 0.93574 0.16246 0.89937 0.0
H138 H 0.95195 0.13989 0.95638 0.0
H139 H 0.02058 0.14124 0.9705 0.0
H140 H 0.00317 0.2186 0.77298 0.0
H141 H 0.9387 0.19676 0.80664 0.0
H142 H 0.90312 0.17174 0.86035 0.0
H143 H 0.90814 0.15156 0.91484 0.0
Mn144 Mn 0.80633 0.94824 0.90562 0.0
Mn145 Mn 0.76817 0.86063 0.95091 0.0
C146 C 0.81954 0.89285 0.89306 0.0
C147 C 0.86554 0.01457 0.89246 0.0
C148 C 0.71259 0.87659 0.90612 0.0
O149 O 0.79198 0.96876 0.94634 0.0
O150 O 0.76948 0.90865 0.97507 0.0
C151 C 0.84111 0.89478 0.9952 0.0
N152 N 0.81602 0.86485 0.9734 0.0
C153 C 0.85941 0.83095 0.97545 0.0
C154 C 0.88518 0.861 0.99826 0.0
C155 C 0.8761 0.89304 0.0082 0.0
C156 C 0.8246 0.8339 0.96367 0.0
H157 H 0.8345 0.91977 0.00263 0.0
C158 C 0.77824 0.94775 0.97198 0.0
O159 O 0.82721 0.00441 0.88258 0.0
O160 O 0.86787 0.98835 0.91178 0.0
N161 N 0.76653 0.81244 0.92992 0.0
C162 C 0.73876 0.78642 0.90738 0.0
C163 C 0.74334 0.75241 0.89513 0.0
C164 C 0.77642 0.74561 0.90613 0.0
C165 C 0.80451 0.77275 0.92943 0.0
C166 C 0.79796 0.80569 0.94106 0.0
H167 H 0.71344 0.79167 0.89874 0.0
O168 O 0.8213 0.91892 0.87155 0.0
O169 O 0.80857 0.89958 0.92053 0.0
O170 O 0.7424 0.9123 0.89507 0.0
O171 O 0.71862 0.85486 0.92713 0.0
C172 C 0.83923 0.76895 0.94115 0.0
C173 C 0.86673 0.7981 0.96411 0.0
H174 H 0.9113 0.85909 0.00887 0.0
H175 H 0.89597 0.91623 0.02585 0.0
H176 H 0.72159 0.73167 0.87711 0.0
H177 H 0.78017 0.71968 0.89635 0.0
H178 H 0.84531 0.74398 0.93246 0.0
H179 H 0.89347 0.79504 0.97282 0.0
Mn180 Mn 0.00151 0.82445 0.86772 0.0
Mn181 Mn 0.09705 0.84296 0.89193 0.0
C182 C 0.06313 0.8819 0.84626 0.0
C183 C 0.94538 0.83807 0.87666 0.0
C184 C 0.03107 0.76225 0.85797 0.0
O185 O 0.99089 0.79393 0.90973 0.0
O186 O 0.05883 0.82921 0.92941 0.0
C187 C 0.13713 0.91976 0.93329 0.0
N188 N 0.13524 0.9011 0.90504 0.0
C189 C 0.19839 0.96531 0.88679 0.0
C190 C 0.20017 0.98555 0.91529 0.0
C191 C 0.17021 0.96232 0.93888 0.0
C192 C 0.1657 0.9224 0.88284 0.0
H193 H 0.11422 0.90183 0.95156 0.0
C194 C 0.01755 0.80573 0.93252 0.0
O195 O 0.93852 0.8035 0.86162 0.0
O196 O 0.98427 0.8638 0.8861 0.0
N197 N 0.1338 0.85739 0.8557 0.0
C198 C 0.13246 0.83144 0.83172 0.0
C199 C 0.1623 0.84874 0.80704 0.0
C200 C 0.19385 0.89252 0.80744 0.0
C201 C 0.19562 0.91839 0.83278 0.0
C202 C 0.16471 0.89936 0.85663 0.0
H203 H 0.10946 0.7976 0.83159 0.0
O204 O 0.02695 0.86433 0.83091 0.0
O205 O 0.06149 0.86207 0.87178 0.0
O206 O 0.0093 0.77798 0.84639 0.0
O207 O 0.06091 0.78231 0.87814 0.0
C208 C 0.22751 0.96208 0.83566 0.0
C209 C 0.229 0.9855 0.86272 0.0
H210 H 0.22543 0.01837 0.91979 0.0
H211 H 0.17375 0.97717 0.96147 0.0
H212 H 0.16129 0.82822 0.78796 0.0
H213 H 0.21709 0.90572 0.78849 0.0
H214 H 0.25167 0.97769 0.81753 0.0
H215 H 0.25441 0.01875 0.86509 0.0
Mn216 Mn 0.83646 0.48405 0.45946 0.0
Mn217 Mn 0.91384 0.46652 0.43268 0.0
C218 C 0.84115 0.42643 0.47913 0.0
C219 C 0.7661 0.46918 0.45538 0.0
C220 C 0.92877 0.54501 0.47035 0.0
O221 O 0.85419 0.51515 0.41759 0.0
O222 O 0.89359 0.48728 0.3969 0.0
C223 C 0.87588 0.39621 0.38563 0.0
N224 N 0.89276 0.4105 0.41466 0.0
C225 C 0.88894 0.343 0.42637 0.0
C226 C 0.87006 0.32709 0.39707 0.0
C227 C 0.8642 0.35405 0.37646 0.0
C228 C 0.90045 0.38545 0.43413 0.0
H229 H 0.87129 0.41681 0.3697 0.0
C230 C 0.87365 0.50879 0.39466 0.0
O231 O 0.79482 0.50439 0.46909 0.0
O232 O 0.77915 0.44459 0.44317 0.0
N233 N 0.93291 0.44559 0.46673 0.0
C234 C 0.95465 0.46679 0.4931 0.0
C235 C 0.96535 0.44512 0.51544 0.0
C236 C 0.95361 0.40186 0.51048 0.0
C237 C 0.93141 0.38071 0.48315 0.0
C238 C 0.92158 0.40398 0.46171 0.0
H239 H 0.96414 0.50009 0.49705 0.0
O240 O 0.82447 0.44486 0.49594 0.0
O241 O 0.85848 0.44615 0.45313 0.0
O242 O 0.89041 0.53052 0.47986 0.0
O243 O 0.93983 0.52488 0.45106 0.0
C244 C 0.91902 0.33758 0.4762 0.0
C245 C 0.89787 0.31875 0.44779 0.0
H246 H 0.86091 0.29459 0.38985 0.0
H247 H 0.85116 0.34237 0.35347 0.0
H248 H 0.98279 0.46181 0.53636 0.0
H249 H 0.96207 0.38528 0.52772 0.0
H250 H 0.92609 0.31875 0.49236 0.0
H251 H 0.88913 0.28577 0.44246 0.0
Mn252 Mn 0.51606 0.36758 0.43343 0.0
Mn253 Mn 0.57585 0.45619 0.39079 0.0
C254 C 0.58581 0.41762 0.44878 0.0
C255 C 0.50103 0.29762 0.44345 0.0
C256 C 0.50379 0.44519 0.43425 0.0
O257 O 0.48344 0.35294 0.39184 0.0
O258 O 0.53057 0.41093 0.36413 0.0
C259 C 0.61567 0.41449 0.35484 0.0
N260 N 0.62022 0.44898 0.3716 0.0
C261 C 0.69739 0.47983 0.37339 0.0
C262 C 0.69359 0.44535 0.35528 0.0
C263 C 0.65244 0.41191 0.34687 0.0
C264 C 0.65944 0.4798 0.38179 0.0
H265 H 0.58406 0.3883 0.34875 0.0
C266 C 0.49629 0.37401 0.36618 0.0
O267 O 0.47523 0.31061 0.45411 0.0
O268 O 0.53171 0.32356 0.42524 0.0
N269 N 0.62161 0.5027 0.4135 0.0
C270 C 0.61915 0.52961 0.43507 0.0
C271 C 0.65728 0.56368 0.44758 0.0
C272 C 0.69752 0.56973 0.43781 0.0
C273 C 0.69925 0.54176 0.41548 0.0
C274 C 0.66021 0.50902 0.40327 0.0
H275 H 0.58835 0.5252 0.44265 0.0
O276 O 0.55889 0.39057 0.46886 0.0
O277 O 0.5702 0.41435 0.4211 0.0
O278 O 0.49427 0.40836 0.44526 0.0
O279 O 0.53144 0.4646 0.41235 0.0
C280 C 0.73806 0.54393 0.40587 0.0
C281 C 0.73705 0.51261 0.38515 0.0
H282 H 0.72186 0.44321 0.34897 0.0
H283 H 0.649 0.38369 0.33486 0.0
H284 H 0.65566 0.58509 0.46485 0.0
H285 H 0.72683 0.59554 0.44796 0.0
H286 H 0.76866 0.56845 0.41533 0.0
H287 H 0.76676 0.51315 0.37919 0.0
Mn288 Mn 0.63295 0.19365 0.49531 0.0
Mn289 Mn 0.54034 0.11312 0.46641 0.0
C290 C 0.57066 0.19955 0.49507 0.0
C291 C 0.69986 0.25504 0.48839 0.0
C292 C 0.58332 0.10824 0.52572 0.0
O293 O 0.65105 0.1588 0.46658 0.0
O294 O 0.58851 0.11755 0.44077 0.0
C295 C 0.53571 0.14308 0.40321 0.0
N296 N 0.5184 0.13035 0.43229 0.0
C297 C 0.459 0.14122 0.4199 0.0
C298 C 0.47624 0.1545 0.38981 0.0
C299 C 0.51504 0.15583 0.38162 0.0
C300 C 0.48127 0.12915 0.44059 0.0
H301 H 0.56566 0.14454 0.39679 0.0
C302 C 0.62961 0.13507 0.44317 0.0
O303 O 0.69246 0.2296 0.51187 0.0
O304 O 0.66813 0.24506 0.46912 0.0
N305 N 0.49223 0.10874 0.48972 0.0
C306 C 0.48096 0.09712 0.52014 0.0
C307 C 0.44408 0.09616 0.53261 0.0
C308 C 0.4189 0.10684 0.51363 0.0
C309 C 0.43062 0.11794 0.48223 0.0
C310 C 0.46756 0.118 0.47106 0.0
H311 H 0.49968 0.08831 0.53475 0.0
O312 O 0.60193 0.22282 0.51435 0.0
O313 O 0.57703 0.17352 0.47784 0.0
O314 O 0.60948 0.14806 0.52884 0.0
O315 O 0.55937 0.09151 0.5018 0.0
C316 C 0.40739 0.12947 0.4617 0.0
C317 C 0.42158 0.14112 0.43055 0.0
H318 H 0.46036 0.16461 0.3732 0.0
H319 H 0.52976 0.1674 0.35902 0.0
H320 H 0.43507 0.08715 0.5568 0.0
H321 H 0.39062 0.10635 0.52338 0.0
H322 H 0.3788 0.12989 0.46972 0.0
H323 H 0.40384 0.15055 0.4151 0.0
Mn324 Mn 0.79614 0.49632 0.20917 0.0
Mn325 Mn 0.77312 0.56989 0.23649 0.0
C326 C 0.73355 0.49455 0.19231 0.0
C327 C 0.78773 0.4284 0.21649 0.0
C328 C 0.85052 0.58927 0.19549 0.0
O329 O 0.83105 0.51912 0.2492 0.0
O330 O 0.8002 0.55491 0.27122 0.0
C331 C 0.70761 0.52838 0.28645 0.0
N332 N 0.71836 0.54521 0.25711 0.0
C333 C 0.64657 0.53278 0.24831 0.0
C334 C 0.63432 0.51385 0.27795 0.0
C335 C 0.66512 0.51219 0.2972 0.0
C336 C 0.68944 0.54868 0.23888 0.0
H337 H 0.73116 0.52687 0.30133 0.0
C338 C 0.82471 0.53814 0.27243 0.0
O339 O 0.81998 0.45696 0.20002 0.0
O340 O 0.76181 0.43996 0.22836 0.0
N341 N 0.74611 0.58395 0.20357 0.0
C342 C 0.76353 0.60486 0.17615 0.0
C343 C 0.73746 0.611 0.15474 0.0
C344 C 0.69372 0.59549 0.16167 0.0
C345 C 0.67649 0.57411 0.19004 0.0
C346 C 0.70411 0.56911 0.21053 0.0
H347 H 0.79711 0.61695 0.17062 0.0
O348 O 0.75185 0.47821 0.17497 0.0
O349 O 0.75576 0.51483 0.21681 0.0
O350 O 0.83809 0.55097 0.18644 0.0
O351 O 0.82979 0.59884 0.21538 0.0
C352 C 0.63302 0.55763 0.1988 0.0
C353 C 0.61807 0.537 0.22794 0.0
H354 H 0.60154 0.50108 0.28637 0.0
H355 H 0.65601 0.49838 0.3202 0.0
H356 H 0.75108 0.62773 0.13296 0.0
H357 H 0.6737 0.60028 0.14509 0.0
H358 H 0.61086 0.56089 0.1834 0.0
H359 H 0.58467 0.52479 0.23455 0.0
Mn360 Mn 0.49695 0.28734 0.19301 0.0
Mn361 Mn 0.42364 0.19577 0.22733 0.0
C362 C 0.50694 0.22757 0.19366 0.0
C363 C 0.55863 0.35517 0.19603 0.0
C364 C 0.40746 0.2328 0.16908 0.0
O365 O 0.46388 0.30516 0.22369 0.0
O366 O 0.42907 0.24451 0.25266 0.0
C367 C 0.46615 0.19859 0.28692 0.0
N368 N 0.44843 0.1783 0.25938 0.0
C369 C 0.46733 0.12378 0.26934 0.0
C370 C 0.48567 0.14402 0.29785 0.0
C371 C 0.48549 0.1819 0.30647 0.0
C372 C 0.4489 0.1422 0.2506 0.0
H373 H 0.46665 0.228 0.29349 0.0
C374 C 0.4437 0.28494 0.24862 0.0
O375 O 0.53009 0.34617 0.17435 0.0
O376 O 0.55095 0.32488 0.21594 0.0
N377 N 0.41858 0.1475 0.20399 0.0
C378 C 0.40279 0.13393 0.17457 0.0
C379 C 0.40221 0.09741 0.16184 0.0
C380 C 0.4179 0.07519 0.17941 0.0
C381 C 0.43381 0.08957 0.20966 0.0
C382 C 0.433 0.12582 0.2213 0.0
H383 H 0.39061 0.15068 0.16085 0.0
O384 O 0.52616 0.25719 0.17251 0.0
O385 O 0.48145 0.2336 0.21169 0.0
O386 O 0.44659 0.25969 0.16302 0.0
O387 O 0.39501 0.21058 0.19413 0.0
C388 C 0.45134 0.06993 0.22844 0.0
C389 C 0.46823 0.08712 0.25822 0.0
H390 H 0.50097 0.13126 0.31273 0.0
H391 H 0.501 0.19898 0.32772 0.0
H392 H 0.38984 0.08651 0.13847 0.0
H393 H 0.41787 0.04733 0.16937 0.0
H394 H 0.45265 0.04203 0.21998 0.0
H395 H 0.48247 0.07231 0.27218 0.0
Mn396 Mn 0.68886 0.18401 0.25233 0.0
Mn397 Mn 0.78734 0.23873 0.28449 0.0
C398 C 0.7411 0.25 0.23165 0.0
C399 C 0.6195 0.17367 0.24697 0.0
C400 C 0.75641 0.15714 0.24605 0.0
O401 O 0.68002 0.15775 0.29628 0.0
O402 O 0.7449 0.20407 0.31758 0.0
C403 C 0.76918 0.29789 0.32149 0.0
N404 N 0.79511 0.29192 0.30104 0.0
C405 C 0.83643 0.3681 0.29052 0.0
C406 C 0.81064 0.37502 0.31186 0.0
C407 C 0.77627 0.33969 0.32673 0.0
C408 C 0.82682 0.32557 0.28516 0.0
H409 H 0.74194 0.27073 0.3324 0.0
C410 C 0.70582 0.17282 0.31976 0.0
O411 O 0.62816 0.14425 0.23748 0.0
O412 O 0.64948 0.20581 0.26224 0.0
N413 N 0.83064 0.27375 0.25442 0.0
C414 C 0.84698 0.26115 0.23026 0.0
C415 C 0.87988 0.29239 0.21142 0.0
C416 C 0.89558 0.33628 0.21749 0.0
C417 C 0.8783 0.34851 0.24243 0.0
C418 C 0.84623 0.31593 0.26091 0.0
H419 H 0.83518 0.22755 0.22532 0.0
O420 O 0.70939 0.22272 0.21438 0.0
O421 O 0.74152 0.23617 0.25936 0.0
O422 O 0.72062 0.15357 0.23783 0.0
O423 O 0.78188 0.18523 0.2659 0.0
C424 C 0.89054 0.3917 0.24894 0.0
C425 C 0.8693 0.40144 0.27276 0.0
H426 H 0.81553 0.40702 0.31585 0.0
H427 H 0.7541 0.34463 0.34096 0.0
H428 H 0.89294 0.28264 0.19214 0.0
H429 H 0.92046 0.36029 0.20258 0.0
H430 H 0.91515 0.41755 0.23501 0.0
H431 H 0.87775 0.4346 0.27665 0.0
Mn432 Mn 0.46727 0.7351 0.81749 0.0
Mn433 Mn 0.53947 0.72216 0.77547 0.0
C434 C 0.45896 0.66676 0.81102 0.0
C435 C 0.40264 0.73625 0.81947 0.0
C436 C 0.55894 0.77328 0.8358 0.0
O437 O 0.49688 0.78806 0.78912 0.0
O438 O 0.53073 0.76633 0.75444 0.0
C439 C 0.50075 0.68738 0.71345 0.0
N440 N 0.51431 0.68172 0.74184 0.0
C441 C 0.49656 0.60939 0.72818 0.0
C442 C 0.48109 0.61395 0.69925 0.0
C443 C 0.48372 0.65326 0.69174 0.0
C444 C 0.51375 0.64465 0.74875 0.0
H445 H 0.50251 0.71752 0.70761 0.0
C446 C 0.51668 0.79164 0.76307 0.0
O447 O 0.43216 0.75615 0.84057 0.0
O448 O 0.41162 0.71744 0.79704 0.0
N449 N 0.54688 0.67849 0.79544 0.0
C450 C 0.56421 0.67959 0.82401 0.0
C451 C 0.56505 0.64306 0.83477 0.0
C452 C 0.54807 0.60577 0.81608 0.0
C453 C 0.5306 0.60543 0.78671 0.0
C454 C 0.53078 0.64286 0.77718 0.0
H455 H 0.57724 0.70802 0.83859 0.0
O456 O 0.44159 0.67486 0.83506 0.0
O457 O 0.4831 0.70001 0.79422 0.0
O458 O 0.5203 0.75847 0.84507 0.0
O459 O 0.56906 0.76399 0.80939 0.0
C460 C 0.51275 0.56931 0.76661 0.0
C461 C 0.49581 0.57132 0.73733 0.0
H462 H 0.46754 0.58769 0.68248 0.0
H463 H 0.47231 0.65697 0.66937 0.0
H464 H 0.57865 0.64362 0.85746 0.0
H465 H 0.54863 0.5776 0.82451 0.0
H466 H 0.512 0.53986 0.7734 0.0
H467 H 0.4824 0.54343 0.72198 0.0
Mn468 Mn 0.16366 0.64118 0.79575 0.0
Mn469 Mn 0.20395 0.74481 0.77943 0.0
C470 C 0.22374 0.69283 0.82363 0.0
C471 C 0.16534 0.57895 0.78344 0.0
C472 C 0.11367 0.6853 0.80452 0.0
O473 O 0.14218 0.64332 0.75183 0.0
O474 O 0.19043 0.71256 0.73918 0.0
C475 C 0.28716 0.76902 0.74798 0.0
N476 N 0.26505 0.77393 0.77222 0.0
C477 C 0.33135 0.82347 0.79828 0.0
C478 C 0.35472 0.81865 0.77372 0.0
C479 C 0.33256 0.79107 0.74864 0.0
C480 C 0.28618 0.80023 0.79666 0.0
H481 H 0.27017 0.74733 0.7289 0.0
C482 C 0.16205 0.67365 0.7319 0.0
O483 O 0.1312 0.57647 0.79643 0.0
O484 O 0.19746 0.61696 0.77785 0.0
N485 N 0.21808 0.77659 0.8181 0.0
C486 C 0.19102 0.7769 0.84061 0.0
C487 C 0.20822 0.80281 0.86736 0.0
C488 C 0.2531 0.82812 0.87083 0.0
C489 C 0.28036 0.82771 0.84728 0.0
C490 C 0.26132 0.80176 0.82085 0.0
H491 H 0.15652 0.75799 0.83816 0.0
O492 O 0.19919 0.65491 0.83561 0.0
O493 O 0.20835 0.69871 0.79822 0.0
O494 O 0.12104 0.65638 0.81493 0.0
O495 O 0.14086 0.71707 0.78785 0.0
C496 C 0.3257 0.85182 0.84913 0.0
C497 C 0.35118 0.8495 0.82473 0.0
H498 H 0.38967 0.83529 0.77416 0.0
H499 H 0.3507 0.78615 0.7304 0.0
H500 H 0.18688 0.80325 0.88527 0.0
H501 H 0.26628 0.84784 0.89163 0.0
H502 H 0.34131 0.87193 0.86938 0.0
H503 H 0.38603 0.86768 0.82663 0.0
Mn504 Mn 0.27071 0.44721 0.73972 0.0
Mn505 Mn 0.18181 0.40624 0.69545 0.0
C506 C 0.20988 0.44861 0.75735 0.0
C507 C 0.3356 0.50707 0.75353 0.0
C508 C 0.21238 0.35185 0.72896 0.0
O509 O 0.29257 0.44488 0.69617 0.0
O510 O 0.23308 0.42686 0.66746 0.0
C511 C 0.19974 0.48886 0.66747 0.0
N512 N 0.17248 0.45233 0.68339 0.0
C513 C 0.12392 0.47916 0.69435 0.0
C514 C 0.15088 0.51644 0.67728 0.0
C515 C 0.18936 0.52167 0.66437 0.0
C516 C 0.13618 0.44775 0.69708 0.0
H517 H 0.22984 0.4935 0.65802 0.0
C518 C 0.27351 0.43958 0.66991 0.0
O519 O 0.32889 0.46857 0.75919 0.0
O520 O 0.30523 0.51005 0.73953 0.0
N521 N 0.13089 0.38686 0.72064 0.0
C522 C 0.11203 0.35253 0.74039 0.0
C523 C 0.07461 0.34411 0.75696 0.0
C524 C 0.05722 0.37135 0.75336 0.0
C525 C 0.07735 0.40669 0.73312 0.0
C526 C 0.11395 0.41284 0.71657 0.0
H527 H 0.12549 0.33181 0.7437 0.0
O528 O 0.23812 0.45074 0.77731 0.0
O529 O 0.21772 0.44292 0.72873 0.0
O530 O 0.24318 0.38291 0.74367 0.0
O531 O 0.18894 0.35702 0.70879 0.0
C532 C 0.06335 0.43685 0.72955 0.0
C533 C 0.08677 0.4732 0.71033 0.0
H534 H 0.14321 0.54199 0.67495 0.0
H535 H 0.21125 0.55118 0.65232 0.0
H536 H 0.05948 0.31696 0.77274 0.0
H537 H 0.02883 0.36524 0.76665 0.0
H538 H 0.03531 0.43305 0.74219 0.0
H539 H 0.07657 0.49696 0.70866 0.0
Mn540 Mn 0.47385 0.86742 0.58993 0.0
Mn541 Mn 0.42749 0.9077 0.63717 0.0
C542 C 0.4104 0.86525 0.57544 0.0
C543 C 0.47642 0.80905 0.56961 0.0
C544 C 0.511 0.96268 0.60193 0.0
O545 O 0.49948 0.8681 0.63239 0.0
O546 O 0.46101 0.8887 0.66308 0.0
C547 C 0.3659 0.82495 0.66669 0.0
N548 N 0.3733 0.86093 0.65091 0.0
C549 C 0.29721 0.83119 0.64153 0.0
C550 C 0.28883 0.79434 0.65831 0.0
C551 C 0.32339 0.79088 0.67031 0.0
C552 C 0.34032 0.86389 0.6381 0.0
H553 H 0.39235 0.82154 0.67533 0.0
C554 C 0.48826 0.87551 0.65923 0.0
O555 O 0.50937 0.84758 0.5663 0.0
O556 O 0.44546 0.80467 0.58782 0.0
N557 N 0.3937 0.92563 0.61368 0.0
C558 C 0.40746 0.95964 0.59379 0.0
C559 C 0.37704 0.96645 0.57804 0.0
C560 C 0.33278 0.93789 0.58254 0.0
C561 C 0.31935 0.90288 0.60288 0.0
C562 C 0.35116 0.89842 0.61864 0.0
H563 H 0.44138 0.98126 0.5897 0.0
O564 O 0.43653 0.8656 0.55411 0.0
O565 O 0.42515 0.87052 0.60359 0.0
O566 O 0.51063 0.93164 0.58709 0.0
O567 O 0.4824 0.95756 0.62228 0.0
C568 C 0.27571 0.87142 0.60723 0.0
C569 C 0.26466 0.83545 0.62638 0.0
H570 H 0.25616 0.76775 0.66101 0.0
H571 H 0.31733 0.76154 0.68172 0.0
H572 H 0.3877 -0.00668 0.56215 0.0
H573 H 0.3094 0.94271 0.56984 0.0
H574 H 0.25045 0.87391 0.59522 0.0
H575 H 0.2311 0.81065 0.62862 0.0
Mn576 Mn 0.17616 0.66339 0.53732 0.0
Mn577 Mn 0.1096 0.55943 0.55245 0.0
C578 C 0.18217 0.6113 0.5082 0.0
C579 C 0.23976 0.7258 0.54932 0.0
C580 C 0.08251 0.62186 0.52861 0.0
O581 O 0.15269 0.66087 0.58155 0.0
O582 O 0.12681 0.5903 0.59318 0.0
C583 C 0.16353 0.53054 0.58526 0.0
N584 N 0.13917 0.52815 0.56011 0.0
C585 C 0.15415 0.47691 0.53439 0.0
C586 C 0.17991 0.47937 0.55976 0.0
C587 C 0.18485 0.50649 0.58514 0.0
C588 C 0.13417 0.50203 0.53551 0.0
H589 H 0.16791 0.55189 0.60462 0.0
C590 C 0.13903 0.62948 0.60091 0.0
O591 O 0.20769 0.7276 0.53684 0.0
O592 O 0.23479 0.68795 0.55459 0.0
N593 N 0.09313 0.52883 0.5133 0.0
C594 C 0.06791 0.53058 0.49019 0.0
C595 C 0.05993 0.50538 0.46307 0.0
C596 C 0.07794 0.47858 0.45991 0.0
C597 C 0.10342 0.47693 0.48407 0.0
C598 C 0.1098 0.50238 0.51077 0.0
H599 H 0.05351 0.55064 0.49243 0.0
O600 O 0.19695 0.64977 0.49683 0.0
O601 O 0.16196 0.60534 0.53441 0.0
O602 O 0.11926 0.65007 0.51847 0.0
O603 O 0.07623 0.58877 0.54407 0.0
C604 C 0.12292 0.45116 0.48261 0.0
C605 C 0.14842 0.45129 0.50771 0.0
H606 H 0.19668 0.46119 0.55977 0.0
H607 H 0.20606 0.5095 0.60402 0.0
H608 H 0.03985 0.50656 0.44467 0.0
H609 H 0.07189 0.45934 0.43888 0.0
H610 H 0.11874 0.43133 0.46221 0.0
H611 H 0.16364 0.43169 0.50618 0.0
Mn612 Mn 0.38645 0.58123 0.50653 0.0
Mn613 Mn 0.46996 0.61279 0.55476 0.0
C614 C 0.44143 0.65385 0.50566 0.0
C615 C 0.31713 0.57063 0.50319 0.0
C616 C 0.45184 0.5544 0.49779 0.0
O617 O 0.36616 0.53259 0.53833 0.0
O618 O 0.41746 0.5663 0.57486 0.0
C619 C 0.44117 0.65272 0.60295 0.0
N620 N 0.47286 0.65473 0.58398 0.0
C621 C 0.52255 0.72703 0.60089 0.0
C622 C 0.49082 0.72544 0.62121 0.0
C623 C 0.44964 0.68846 0.62172 0.0
C624 C 0.51177 0.69091 0.58206 0.0
H625 H 0.40954 0.62425 0.60336 0.0
C626 C 0.38124 0.535 0.56576 0.0
O627 O 0.32934 0.55073 0.48365 0.0
O628 O 0.34468 0.59513 0.5239 0.0
N629 N 0.52344 0.65804 0.53884 0.0
C630 C 0.54735 0.65719 0.51418 0.0
C631 C 0.58851 0.69282 0.50874 0.0
C632 C 0.60475 0.72878 0.5288 0.0
C633 C 0.57958 0.72889 0.55408 0.0
C634 C 0.53908 0.6922 0.55862 0.0
H635 H 0.53529 0.62943 0.49893 0.0
O636 O 0.41501 0.63686 0.48235 0.0
O637 O 0.43521 0.62649 0.5276 0.0
O638 O 0.42322 0.56049 0.48502 0.0
O639 O 0.46908 0.57007 0.52446 0.0
C640 C 0.5923 0.76461 0.57415 0.0
C641 C 0.56363 0.76383 0.59734 0.0
H642 H 0.49734 0.75282 0.63589 0.0
H643 H 0.42469 0.68729 0.63686 0.0
H644 H 0.60772 0.69253 0.48916 0.0
H645 H 0.63629 0.75639 0.52429 0.0
H646 H 0.62339 0.79347 0.57116 0.0
H647 H 0.57295 0.79222 0.61158 0.0
C648 C 0.33488 0.21966 0.15507 0.0
C649 C 0.3747 0.22473 0.14548 0.0
C650 C 0.30076 0.20575 0.13401 0.0
C651 C 0.305 0.19535 0.10281 0.0
H652 H 0.32964 0.2251 0.1793 0.0
H653 H 0.27002 0.20034 0.14292 0.0
S654 S 0.40432 0.20699 0.06572 0.0
N655 N 0.41808 0.22196 0.10248 0.0
N656 N 0.35334 0.19457 0.06277 0.0
C657 C 0.34552 0.20261 0.09253 0.0
C658 C 0.38057 0.21762 0.11393 0.0
C659 C 0.83168 0.11813 0.2179 0.0
C660 C 0.81724 0.10497 0.18718 0.0
C661 C 0.8099 0.13215 0.23792 0.0
C662 C 0.7727 0.13277 0.22789 0.0
H663 H 0.86132 0.12003 0.22584 0.0
H664 H 0.82353 0.14454 0.26081 0.0
S665 S 0.719 0.09467 0.15054 0.0
N666 N 0.76191 0.08887 0.14845 0.0
N667 N 0.71997 0.11393 0.18593 0.0
C668 C 0.75619 0.11611 0.19787 0.0
C669 C 0.77886 0.10268 0.17748 0.0
C670 C 0.90942 0.66516 0.1959 0.0
C671 C 0.88693 0.62566 0.17974 0.0
C672 C 0.93073 0.70398 0.17958 0.0
C673 C 0.92939 0.70394 0.14677 0.0
H674 H 0.90644 0.66639 0.22111 0.0
H675 H 0.94264 0.73379 0.19266 0.0
S676 S 0.88778 0.60903 0.09412 0.0
N677 N 0.87442 0.58854 0.12967 0.0
N678 N 0.91452 0.66186 0.0989 0.0
C679 C 0.91408 0.66467 0.13066 0.0
C680 C 0.89256 0.62515 0.14725 0.0
C681 C 0.22111 0.30379 0.76615 0.0
C682 C 0.19878 0.30799 0.74049 0.0
C683 C 0.20158 0.26776 0.78544 0.0
C684 C 0.15998 0.23411 0.77898 0.0
H685 H 0.25215 0.33019 0.77338 0.0
H686 H 0.21778 0.26767 0.8068 0.0
S687 S 0.09281 0.223 0.71016 0.0
N688 N 0.13621 0.271 0.70623 0.0
N689 N 0.10031 0.20233 0.74237 0.0
C690 C 0.13989 0.23465 0.75108 0.0
C691 C 0.15931 0.27184 0.73164 0.0
C692 C 0.66804 0.86372 0.85882 0.0
C693 C 0.67021 0.85589 0.89075 0.0
C694 C 0.63092 0.83767 0.84157 0.0
C695 C 0.59452 0.80344 0.85576 0.0
H696 H 0.69606 0.88826 0.8465 0.0
H697 H 0.63124 0.84347 0.81666 0.0
S698 S 0.58135 0.77366 0.93958 0.0
N699 N 0.63119 0.81452 0.93671 0.0
N700 N 0.56084 0.76574 0.90399 0.0
C701 C 0.59484 0.79737 0.88811 0.0
C702 C 0.63292 0.82359 0.9057 0.0
C703 C 0.05842 0.707 0.79709 0.0
C704 C 0.07567 0.68712 0.81584 0.0
C705 C 0.03525 0.72502 0.81057 0.0
C706 C 0.03012 0.72466 0.84321 0.0
H707 H 0.06677 0.7127 0.77247 0.0
H708 H 0.02742 0.74484 0.79602 0.0
S709 S 0.05738 0.6653 0.90087 0.0
N710 N 0.07652 0.65873 0.86726 0.0
N711 N 0.03402 0.69386 0.8927 0.0
C712 C 0.04056 0.69852 0.86124 0.0
C713 C 0.06345 0.67953 0.84749 0.0
C714 C 0.00194 0.60806 0.46961 0.0
C715 C 0.96386 0.58184 0.48646 0.0
C716 C 0.04177 0.62811 0.48475 0.0
C717 C 0.04404 0.62153 0.51688 0.0
H718 H 0.00148 0.60857 0.44424 0.0
H719 H 0.07079 0.64332 0.47054 0.0
S720 S 0.95276 0.5678 0.57246 0.0
N721 N 0.92992 0.55987 0.53769 0.0
N722 N 0.00525 0.59709 0.56617 0.0
C723 C 0.00588 0.60211 0.53461 0.0
C724 C 0.96533 0.58227 0.51928 0.0
C725 C 0.46733 0.52611 0.44903 0.0
C726 C 0.46379 0.52552 0.48182 0.0
C727 C 0.47902 0.49893 0.43352 0.0
C728 C 0.48632 0.46956 0.45031 0.0
H729 H 0.46205 0.54844 0.43536 0.0
H730 H 0.48281 0.5012 0.40829 0.0
S731 S 0.47894 0.45419 0.53648 0.0
N732 N 0.46701 0.49254 0.53056 0.0
N733 N 0.48838 0.44091 0.50143 0.0
C734 C 0.48161 0.46783 0.48307 0.0
C735 C 0.47056 0.49605 0.49885 0.0
C736 C 0.58634 0.04587 0.54564 0.0
C737 C 0.57814 0.07954 0.55138 0.0
C738 C 0.56926 0.01022 0.56527 0.0
C739 C 0.54173 0.00637 0.59041 0.0
H740 H 0.60331 0.04563 0.52458 0.0
H741 H 0.5742 0.98376 0.55862 0.0
S742 S 0.52 0.09181 0.61902 0.0
N743 N 0.54936 0.11206 0.58705 0.0
N744 N 0.51504 0.04378 0.62361 0.0
C745 C 0.5382 0.04262 0.59865 0.0
C746 C 0.55677 0.07955 0.57898 0.0
C747 C 0.03185 0.11572 0.07941 0.0
C748 C 0.07039 0.14624 0.09391 0.0
C749 C -0.008 0.10094 0.09406 0.0
C750 C 0.98869 0.11644 0.12364 0.0
H751 H 0.03251 0.10148 0.05708 0.0
H752 H 0.96345 0.07612 0.0824 0.0
S753 S 0.07899 0.19804 0.17124 0.0
N754 N 0.1025 0.19288 0.13934 0.0
N755 N 0.02666 0.16472 0.1668 0.0
C756 C 0.02648 0.14784 0.13821 0.0
C757 C 0.06752 0.16321 0.12318 0.0
C758 C 0.87172 0.91225 0.11005 0.0
C759 C 0.86393 0.9281 0.13803 0.0
C760 C 0.87935 0.87756 0.11021 0.0
C761 C 0.87997 0.85769 0.13843 0.0
H762 H 0.8743 0.92823 0.08802 0.0
H763 H 0.88858 0.86888 0.08832 0.0
S764 S 0.85527 0.88275 0.21742 0.0
N765 N 0.85186 0.91772 0.19428 0.0
N766 N 0.86754 0.85309 0.19445 0.0
C767 C 0.86884 0.87088 0.16619 0.0
C768 C 0.86035 0.90588 0.16602 0.0
C769 C 0.12723 0.00374 0.12124 0.0
C770 C 0.12551 0.02956 0.09737 0.0
C771 C 0.09456 0.9604 0.12408 0.0
C772 C 0.0586 0.94253 0.10391 0.0
H773 H 0.1538 0.01708 0.13767 0.0
H774 H 0.09667 0.94134 0.14283 0.0
S775 S 0.03845 -0.00162 0.03883 0.0
N776 N 0.0853 0.03461 0.05353 0.0
N777 N 0.02323 0.9546 0.05979 0.0
C778 C 0.05674 0.96843 0.08015 0.0
C779 C 0.0903 0.01171 0.07675 0.0
C780 C 0.08701 0.95124 0.87352 0.0
C781 C 0.08799 0.92938 0.84623 0.0
C782 C 0.09631 -0.00593 0.87244 0.0
C783 C 0.10743 0.01682 0.8441 0.0
H784 H 0.07524 0.93411 0.89543 0.0
H785 H 0.09244 0.00863 0.89364 0.0
S786 S 0.12113 0.97605 0.76711 0.0
N787 N 0.10522 0.93468 0.79095 0.0
N788 N 0.12422 0.0159 0.78878 0.0
C789 C 0.11251 -0.00341 0.81723 0.0
C790 C 0.10228 0.95262 0.81832 0.0
C791 C 0.98457 0.08007 0.88082 0.0
C792 C 0.98914 0.09199 0.84921 0.0
C793 C 0.94438 0.05968 0.89538 0.0
C794 C 0.90644 0.04856 0.8787 0.0
H795 H 0.01238 0.08549 0.89439 0.0
H796 H 0.94292 0.05013 0.9196 0.0
S797 S 0.90098 0.0743 0.79541 0.0
N798 N 0.95304 0.09357 0.80173 0.0
N799 N 0.87615 0.05305 0.82888 0.0
C800 C 0.91044 0.06158 0.84719 0.0
C801 C 0.95205 0.08323 0.83236 0.0
C802 C 0.87277 0.82979 0.86507 0.0
C803 C 0.91139 0.84925 0.88243 0.0
C804 C 0.84233 0.84349 0.86859 0.0
C805 C 0.84916 0.87587 0.8903 0.0
H806 H 0.86662 0.80481 0.84807 0.0
H807 H 0.81343 0.82875 0.85438 0.0
S808 S 0.9454 0.9384 0.94026 0.0
N809 N 0.95484 0.90356 0.92148 0.0
N810 N 0.89763 0.92847 0.92808 0.0
C811 C 0.88743 0.89543 0.9077 0.0
C812 C 0.91845 0.8821 0.90392 0.0
C813 C 0.7039 0.47923 0.47094 0.0
C814 C 0.71994 0.45581 0.4546 0.0
C815 C 0.65982 0.46635 0.47001 0.0
C816 C 0.63128 0.43059 0.45202 0.0
H817 H 0.72545 0.50773 0.48428 0.0
H818 H 0.64831 0.48506 0.48253 0.0
S819 S 0.65513 0.35408 0.40977 0.0
N820 N 0.70209 0.39171 0.42339 0.0
N821 N 0.62027 0.36884 0.42114 0.0
C822 C 0.64643 0.40578 0.43706 0.0
C823 C 0.69065 0.4182 0.43835 0.0
C824 C 0.52743 0.24683 0.43728 0.0
C825 C 0.50391 0.26066 0.45569 0.0
C826 C 0.54808 0.2267 0.45062 0.0
C827 C 0.54377 0.21655 0.48258 0.0
H828 H 0.53355 0.25537 0.41272 0.0
H829 H 0.56935 0.22081 0.43587 0.0
S830 S 0.48095 0.24009 0.54061 0.0
N831 N 0.47486 0.26013 0.50748 0.0
N832 N 0.51137 0.21858 0.53219 0.0
C833 C 0.51763 0.22695 0.50106 0.0
C834 C 0.49752 0.24911 0.48757 0.0
C835 C 0.80539 0.35647 0.50768 0.0
C836 C 0.81575 0.37882 0.47912 0.0
C837 C 0.76934 0.31481 0.51022 0.0
C838 C 0.74214 0.29466 0.48437 0.0
H839 H 0.82327 0.37252 0.52866 0.0
H840 H 0.76105 0.29971 0.53304 0.0
S841 S 0.75723 0.33733 0.40412 0.0
N842 N 0.79722 0.37591 0.42411 0.0
N843 N 0.73061 0.29772 0.42893 0.0
C844 C 0.75416 0.31513 0.45532 0.0
C845 C 0.79074 0.35719 0.45266 0.0
C846 C 0.78592 0.32184 0.20538 0.0
C847 C 0.75536 0.29591 0.22795 0.0
C848 C 0.79798 0.36559 0.20237 0.0
C849 C 0.77878 0.38389 0.22127 0.0
H850 H 0.80068 0.30838 0.19027 0.0
H851 H 0.82159 0.3848 0.18473 0.0
S852 S 0.69392 0.3274 0.28185 0.0
N853 N 0.70484 0.29075 0.26822 0.0
N854 N 0.72655 0.37169 0.26262 0.0
C855 C 0.74774 0.35766 0.24358 0.0
C856 C 0.73608 0.31388 0.24677 0.0
C857 C 0.65917 0.45715 0.169 0.0
C858 C 0.68608 0.46788 0.19535 0.0
C859 C 0.6164 0.42242 0.16988 0.0
C860 C 0.59971 0.39684 0.19694 0.0
H861 H 0.672 0.47408 0.14715 0.0
H862 H 0.59742 0.41383 0.14865 0.0
S863 S 0.65658 0.41236 0.27198 0.0
N864 N 0.69222 0.45061 0.24928 0.0
N865 N 0.61228 0.38667 0.25107 0.0
C866 C 0.62546 0.409 0.22382 0.0
C867 C 0.66857 0.44412 0.22297 0.0
C868 C 0.54829 0.22161 0.23723 0.0
C869 C 0.53019 0.20734 0.20741 0.0
C870 C 0.57336 0.20657 0.25117 0.0
C871 C 0.58236 0.17723 0.23564 0.0
H872 H 0.54422 0.24587 0.2496 0.0
H873 H 0.58784 0.22004 0.27369 0.0
S874 S 0.54063 0.12816 0.15758 0.0
N875 N 0.52093 0.16076 0.16316 0.0
N876 N 0.56905 0.13249 0.18919 0.0
C877 C 0.56298 0.16119 0.20623 0.0
C878 C 0.53711 0.17666 0.19196 0.0
C879 C 0.28872 0.70229 0.79672 0.0
C880 C 0.27063 0.7093 0.82387 0.0
C881 C 0.33183 0.71325 0.79539 0.0
C882 C 0.3591 0.73149 0.82129 0.0
H883 H 0.2692 0.68753 0.77614 0.0
H884 H 0.34347 0.70631 0.77388 0.0
S885 S 0.32832 0.75905 0.89759 0.0
N886 N 0.28325 0.73727 0.87696 0.0
N887 N 0.36551 0.75844 0.87472 0.0
C888 C 0.34201 0.74017 0.84847 0.0
C889 C 0.2974 0.72863 0.8498 0.0
C890 C 0.21061 0.51559 0.74573 0.0
C891 C 0.19201 0.47705 0.76274 0.0
C892 C 0.19933 0.54683 0.75155 0.0
C893 C 0.16941 0.54126 0.77504 0.0
H894 H 0.23538 0.52245 0.72833 0.0
H895 H 0.21541 0.57632 0.73807 0.0
S896 S 0.1103 0.44528 0.82566 0.0
N897 N 0.14151 0.43402 0.8035 0.0
N898 N 0.11971 0.49344 0.81473 0.0
C899 C 0.14927 0.50223 0.7917 0.0
C900 C 0.1611 0.47012 0.78573 0.0
C901 C 0.42415 0.586 0.80739 0.0
C902 C 0.43308 0.62556 0.79443 0.0
C903 C 0.39502 0.5469 0.79258 0.0
C904 C 0.37379 0.54664 0.76479 0.0
H905 H 0.43871 0.58531 0.82938 0.0
H906 H 0.38713 0.51689 0.80393 0.0
S907 S 0.38714 0.64186 0.72131 0.0
N908 N 0.41868 0.6619 0.75214 0.0
N909 N 0.36601 0.58926 0.72398 0.0
C910 C 0.38433 0.58613 0.75098 0.0
C911 C 0.41325 0.62543 0.76602 0.0
C912 C 0.50335 0.76858 0.53645 0.0
C913 C 0.46924 0.77282 0.54915 0.0
C914 C 0.49481 0.73135 0.51933 0.0
C915 C 0.45225 0.69785 0.51492 0.0
H916 H 0.5365 0.79316 0.54073 0.0
H917 H 0.52137 0.72823 0.51024 0.0
S918 S 0.35272 0.7028 0.53139 0.0
N919 N 0.39192 0.7465 0.54784 0.0
N920 N 0.37663 0.6782 0.51531 0.0
C921 C 0.41849 0.70535 0.52308 0.0
C922 C 0.42682 0.74237 0.54058 0.0
C923 C 0.30581 0.76144 0.58126 0.0
C924 C 0.28055 0.76468 0.55763 0.0
C925 C 0.34685 0.79551 0.58776 0.0
C926 C 0.36441 0.83426 0.57094 0.0
H927 H 0.29428 0.73188 0.59438 0.0
H928 H 0.36576 0.79059 0.60525 0.0
S929 S 0.31073 0.86025 0.50796 0.0
N930 N 0.27483 0.81059 0.51837 0.0
N931 N 0.35338 0.8748 0.5304 0.0
C932 C 0.33927 0.83867 0.54786 0.0
C933 C 0.29681 0.80392 0.54143 0.0
C934 C 0.26167 0.57795 0.53128 0.0
C935 C 0.27503 0.56863 0.50281 0.0
C936 C 0.23076 0.59041 0.53219 0.0
C937 C 0.20948 0.59149 0.50501 0.0
H938 H 0.27764 0.57894 0.55304 0.0
H939 H 0.22521 0.60153 0.55445 0.0
S940 S 0.22893 0.56553 0.42468 0.0
N941 N 0.26324 0.55897 0.44656 0.0
N942 N 0.20187 0.57988 0.44878 0.0
C943 C 0.22018 0.57953 0.47644 0.0
C944 C 0.25321 0.56793 0.47529 0.0
C945 C 0.20538 0.14908 0.95088 0.0
C946 C 0.20272 0.1721 0.97701 0.0
C947 C 0.19493 0.15582 0.92066 0.0
C948 C 0.18166 0.1861 0.91517 0.0
H949 H 0.21255 0.12331 0.95391 0.0
H950 H 0.19386 0.13457 0.90207 0.0
S951 S 0.18073 0.26285 0.97391 0.0
N952 N 0.19376 0.232 0.99423 0.0
N953 N 0.1752 0.24555 0.93738 0.0
C954 C 0.18423 0.2131 0.94037 0.0
C955 C 0.19435 0.20582 0.97127 0.0
C956 C 0.77093 0.94957 0.03023 0.0
C957 C 0.77757 0.9705 0.00111 0.0
C958 C 0.78072 0.97247 0.05849 0.0
C959 C 0.79735 0.01725 0.05887 0.0
H960 H 0.76123 0.91572 0.03134 0.0
H961 H 0.77879 0.95541 0.07984 0.0
S962 S 0.80849 0.08499 0.98989 0.0
N963 N 0.79319 0.03688 0.97497 0.0
N964 N 0.8106 0.07987 0.02813 0.0
C965 C 0.79832 0.03741 0.0303 0.0
C966 C 0.78882 0.01411 0.00141 0.0
C967 C 0.97755 0.76044 0.97878 0.0
C968 C -0.00098 0.80073 0.9639 0.0
C969 C 0.95806 0.75604 0.00828 0.0
C970 C 0.95989 0.7919 0.0234 0.0
H971 H 0.97588 0.73242 0.96758 0.0
H972 H 0.94212 0.7248 0.0195 0.0
S973 S 0.00574 0.9019 0.99157 0.0
N974 N 0.01562 0.87513 0.96425 0.0
N975 N 0.98253 0.86783 0.02072 0.0
C976 C 0.9807 0.83192 0.0084 0.0
C977 C -0.00071 0.83608 0.97826 0.0
C978 C 0.85824 0.50729 0.30714 0.0
C979 C 0.8434 0.53667 0.30299 0.0
C980 C 0.87064 0.50053 0.33656 0.0
C981 C 0.86842 0.52264 0.36318 0.0
H982 H 0.85851 0.4878 0.28778 0.0
H983 H 0.87996 0.47618 0.33857 0.0
S984 S 0.84079 0.60975 0.36392 0.0
N985 N 0.83342 0.5928 0.32723 0.0
N986 N 0.85679 0.58007 0.38271 0.0
C987 C 0.85694 0.5546 0.35902 0.0
C988 C 0.84431 0.56155 0.32893 0.0
C989 C 0.47795 0.3541 0.27878 0.0
C990 C 0.44617 0.31032 0.27707 0.0
C991 C 0.49153 0.37526 0.30768 0.0
C992 C 0.47402 0.3536 0.33621 0.0
H993 H 0.49517 0.37136 0.25794 0.0
H994 H 0.51809 0.40816 0.30754 0.0
S995 S 0.3824 0.24186 0.34407 0.0
N996 N 0.39165 0.2484 0.30603 0.0
N997 N 0.41774 0.28803 0.36036 0.0
C998 C 0.43884 0.31131 0.33462 0.0
C999 C 0.42475 0.28979 0.30508 0.0
C1000 C 0.69487 0.17118 0.40858 0.0
C1001 C 0.65319 0.13618 0.41394 0.0
C1002 C 0.71249 0.18116 0.37828 0.0
C1003 C 0.68921 0.15668 0.35193 0.0
H1004 H 0.71283 0.19315 0.42744 0.0
H1005 H 0.74364 0.20998 0.37544 0.0
S1006 S 0.58246 0.05654 0.35413 0.0
N1007 N 0.59199 0.0729 0.39094 0.0
N1008 N 0.62487 0.09207 0.33408 0.0
C1009 C 0.6492 0.11935 0.35735 0.0
C1010 C 0.63138 0.10895 0.38828 0.0
C1011 C 0.4802 0.85632 0.71596 0.0
C1012 C 0.50309 0.86309 0.68762 0.0
C1013 C 0.48729 0.83624 0.74137 0.0
C1014 C 0.51762 0.82221 0.73949 0.0
H1015 H 0.45458 0.86402 0.71803 0.0
H1016 H 0.46668 0.82912 0.76176 0.0
S1017 S 0.59287 0.84115 0.67335 0.0
N1018 N 0.56226 0.86054 0.66112 0.0
N1019 N 0.5758 0.82303 0.70903 0.0
C1020 C 0.54367 0.83259 0.71248 0.0
C1021 C 0.53635 0.85293 0.68651 0.0
C1022 C 0.11026 0.63788 0.65217 0.0
C1023 C 0.14439 0.64024 0.63422 0.0
C1024 C 0.11589 0.64849 0.68417 0.0
C1025 C 0.15588 0.66208 0.69864 0.0
H1026 H 0.07928 0.62791 0.64142 0.0
H1027 H 0.08915 0.64658 0.69755 0.0
S1028 S 0.25347 0.66935 0.66202 0.0
N1029 N 0.21813 0.65426 0.63322 0.0
N1030 N 0.22886 0.67438 0.69329 0.0
C1031 C 0.18979 0.66364 0.68095 0.0
C1032 C 0.18398 0.65264 0.64863 0.0
C1033 C 0.30867 0.48358 0.58791 0.0
C1034 C 0.35383 0.50298 0.58952 0.0
C1035 C 0.28252 0.46018 0.61323 0.0
C1036 C 0.30054 0.45519 0.64112 0.0
H1037 H 0.2935 0.48882 0.56781 0.0
H1038 H 0.24817 0.44824 0.61148 0.0
S1039 S 0.41668 0.49262 0.65438 0.0
N1040 N 0.41509 0.5105 0.61918 0.0
N1041 N 0.36616 0.4664 0.66671 0.0
C1042 C 0.34543 0.4712 0.6418 0.0
C1043 C 0.372 0.49517 0.61606 0.0
loop_
_geom_bond_atom_site_label_1
_geom_bond_atom_site_label_2
_geom_bond_distance
_geom_bond_site_symmetry_2
_ccdc_geom_bond_type
Mn0 O5 2.095 . S
Mn0 O15 2.162 . S
Mn0 O16 2.297 . S
Mn0 O24 2.385 . S
Mn0 O25 2.209 . S
Mn0 O26 2.094 . S
Mn1 O6 2.121 . S
Mn1 N8 2.257 . S
Mn1 N17 2.282 . S
Mn1 O25 2.215 . S
Mn1 O27 2.117 . S
C2 O24 1.234 . S
C2 O25 1.283 . S
C3 O15 1.281 . S
C3 O16 1.236 . S
C4 O26 1.240 . S
C4 O27 1.264 . S
O5 Mn0 2.095 . S
O5 C14 1.250 . S
O6 Mn1 2.121 . S
O6 C14 1.258 . S
C7 N8 1.326 . S
C7 C11 1.460 . S
C7 H13 0.929 . S
N8 Mn1 2.257 . S
N8 C7 1.326 . S
N8 C12 1.362 . S
C9 C10 1.258 . S
C9 C12 1.431 . S
C9 C29 1.449 1_545 S
C10 C9 1.258 . S
C10 C11 1.477 . S
C10 H30 0.931 1_545 S
C11 C7 1.460 . S
C11 C10 1.477 . S
C11 H31 0.930 . S
C12 N8 1.362 . S
C12 C9 1.431 . S
C12 C22 1.476 . S
H13 C7 0.929 . S
C14 O5 1.250 . S
C14 O6 1.258 . S
O15 Mn0 2.162 . S
O15 C3 1.281 . S
O16 Mn0 2.297 . S
O16 C3 1.236 . S
N17 Mn1 2.282 . S
N17 C18 1.328 . S
N17 C22 1.318 . S
C18 N17 1.328 . S
C18 C19 1.457 . S
C18 H23 0.929 . S
C19 C18 1.457 . S
C19 C20 1.291 . S
C19 H32 0.931 . S
C20 C19 1.291 . S
C20 C21 1.373 . S
C20 H33 0.929 . S
C21 C20 1.373 . S
C21 C22 1.396 . S
C21 C28 1.403 1_545 S
C22 C12 1.476 . S
C22 N17 1.318 . S
C22 C21 1.396 . S
H23 C18 0.929 . S
O24 Mn0 2.385 . S
O24 C2 1.234 . S
O25 Mn0 2.209 . S
O25 Mn1 2.215 . S
O25 C2 1.283 . S
O26 Mn0 2.094 . S
O26 C4 1.240 . S
O27 Mn1 2.117 . S
O27 C4 1.264 . S
C28 C21 1.403 1_565 S
C28 C29 1.399 . S
C28 H34 0.929 . S
C29 C9 1.449 1_565 S
C29 C28 1.399 . S
C29 H35 0.930 . S
H30 C10 0.931 1_565 S
H31 C11 0.930 . S
H32 C19 0.931 . S
H33 C20 0.929 . S
H34 C28 0.929 . S
H35 C29 0.930 . S
Mn36 O41 2.095 . S
Mn36 O51 2.162 . S
Mn36 O52 2.297 . S
Mn36 O60 2.385 1_565 S
Mn36 O61 2.209 1_565 S
Mn36 O62 2.094 1_565 S
Mn37 O42 2.121 . S
Mn37 N44 2.257 . S
Mn37 N53 2.282 . S
Mn37 O61 2.215 . S
Mn37 O63 2.117 . S
C38 O60 1.234 . S
C38 O61 1.283 . S
C39 O51 1.281 . S
C39 O52 1.236 . S
C40 O62 1.240 . S
C40 O63 1.264 . S
O41 Mn36 2.095 . S
O41 C50 1.257 . S
O42 Mn37 2.121 . S
O42 C50 1.243 1_545 S
C43 N44 1.326 . S
C43 C47 1.460 . S
C43 H49 0.929 . S
N44 Mn37 2.257 . S
N44 C43 1.326 . S
N44 C48 1.362 . S
C45 C46 1.258 . S
C45 C48 1.431 . S
C45 C65 1.449 1_655 S
C46 C45 1.258 . S
C46 C47 1.477 . S
C46 H66 0.931 1_655 S
C47 C43 1.460 . S
C47 C46 1.477 . S
C47 H67 0.930 . S
C48 N44 1.362 . S
C48 C45 1.431 . S
C48 C58 1.476 . S
H49 C43 0.929 . S
C50 O41 1.257 . S
C50 O42 1.243 1_565 S
O51 Mn36 2.162 . S
O51 C39 1.281 . S
O52 Mn36 2.297 . S
O52 C39 1.236 . S
N53 Mn37 2.282 . S
N53 C54 1.328 . S
N53 C58 1.318 . S
C54 N53 1.328 . S
C54 C55 1.457 . S
C54 H59 0.929 . S
C55 C54 1.457 . S
C55 C56 1.291 . S
C55 H68 0.931 . S
C56 C55 1.291 . S
C56 C57 1.373 . S
C56 H69 0.929 . S
C57 C56 1.373 . S
C57 C58 1.396 . S
C57 C64 1.403 1_655 S
C58 C48 1.476 . S
C58 N53 1.318 . S
C58 C57 1.396 . S
H59 C54 0.929 . S
O60 Mn36 2.385 1_545 S
O60 C38 1.234 . S
O61 Mn36 2.209 1_545 S
O61 Mn37 2.215 . S
O61 C38 1.283 . S
O62 Mn36 2.094 1_545 S
O62 C40 1.240 . S
O63 Mn37 2.117 . S
O63 C40 1.264 . S
C64 C57 1.403 1_455 S
C64 C65 1.399 . S
C64 H70 0.929 . S
C65 C45 1.449 1_455 S
C65 C64 1.399 . S
C65 H71 0.930 . S
H66 C46 0.931 1_455 S
H67 C47 0.930 . S
H68 C55 0.931 . S
H69 C56 0.929 . S
H70 C64 0.929 . S
H71 C65 0.930 . S
Mn72 O77 2.095 . S
Mn72 O87 2.162 . S
Mn72 O88 2.297 . S
Mn72 O96 2.385 1_455 S
Mn72 O97 2.209 1_455 S
Mn72 O98 2.094 1_455 S
Mn73 O78 2.121 . S
Mn73 N80 2.257 . S
Mn73 N89 2.282 . S
Mn73 O97 2.215 . S
Mn73 O99 2.117 . S
C74 O96 1.234 . S
C74 O97 1.283 . S
C75 O87 1.281 . S
C75 O88 1.236 . S
C76 O98 1.240 . S
C76 O99 1.264 . S
O77 Mn72 2.095 . S
O77 C86 1.259 . S
O78 Mn73 2.121 . S
O78 C86 1.240 1_655 S
C79 N80 1.326 . S
C79 C83 1.460 . S
C79 H85 0.929 . S
N80 Mn73 2.257 . S
N80 C79 1.326 . S
N80 C84 1.362 . S
C81 C82 1.258 . S
C81 C84 1.431 . S
C81 C101 1.449 . S
C82 C81 1.258 . S
C82 C83 1.477 . S
C82 H102 0.931 . S
C83 C79 1.460 . S
C83 C82 1.477 . S
C83 H103 0.930 . S
C84 N80 1.362 . S
C84 C81 1.431 . S
C84 C94 1.476 . S
H85 C79 0.929 . S
C86 O77 1.259 . S
C86 O78 1.240 1_455 S
O87 Mn72 2.162 . S
O87 C75 1.281 . S
O88 Mn72 2.297 . S
O88 C75 1.236 . S
N89 Mn73 2.282 . S
N89 C90 1.328 . S
N89 C94 1.318 . S
C90 N89 1.328 . S
C90 C91 1.457 . S
C90 H95 0.929 . S
C91 C90 1.457 . S
C91 C92 1.291 . S
C91 H104 0.931 . S
C92 C91 1.291 . S
C92 C93 1.373 . S
C92 H105 0.929 . S
C93 C92 1.373 . S
C93 C94 1.396 . S
C93 C100 1.403 . S
C94 C84 1.476 . S
C94 N89 1.318 . S
C94 C93 1.396 . S
H95 C90 0.929 . S
O96 Mn72 2.385 1_655 S
O96 C74 1.234 . S
O97 Mn72 2.209 1_655 S
O97 Mn73 2.215 . S
O97 C74 1.283 . S
O98 Mn72 2.094 1_655 S
O98 C76 1.240 . S
O99 Mn73 2.117 . S
O99 C76 1.264 . S
C100 C93 1.403 . S
C100 C101 1.399 . S
C100 H106 0.929 . S
C101 C81 1.449 . S
C101 C100 1.399 . S
C101 H107 0.930 . S
H102 C82 0.931 . S
H103 C83 0.930 . S
H104 C91 0.931 . S
H105 C92 0.929 . S
H106 C100 0.929 . S
H107 C101 0.930 . S
Mn108 O113 2.095 . S
Mn108 O123 2.162 . S
Mn108 O124 2.297 . S
Mn108 O132 2.385 . S
Mn108 O133 2.209 . S
Mn108 O134 2.094 . S
Mn109 O114 2.121 . S
Mn109 N116 2.257 . S
Mn109 N125 2.282 . S
Mn109 O133 2.215 . S
Mn109 O135 2.117 . S
C110 O132 1.234 . S
C110 O133 1.283 . S
C111 O123 1.281 . S
C111 O124 1.236 . S
C112 O134 1.240 . S
C112 O135 1.264 . S
O113 Mn108 2.095 . S
O113 C122 1.250 . S
O114 Mn109 2.121 . S
O114 C122 1.258 . S
C115 N116 1.326 . S
C115 C119 1.460 . S
C115 H121 0.929 . S
N116 Mn109 2.257 . S
N116 C115 1.326 . S
N116 C120 1.362 . S
C117 C118 1.258 . S
C117 C120 1.431 . S
C117 C137 1.449 1_455 S
C118 C117 1.258 . S
C118 C119 1.477 . S
C118 H138 0.931 1_455 S
C119 C115 1.460 . S
C119 C118 1.477 . S
C119 H139 0.930 . S
C120 N116 1.362 . S
C120 C117 1.431 . S
C120 C130 1.476 . S
H121 C115 0.929 . S
C122 O113 1.250 . S
C122 O114 1.258 . S
O123 Mn108 2.162 . S
O123 C111 1.281 . S
O124 Mn108 2.297 . S
O124 C111 1.236 . S
N125 Mn109 2.282 . S
N125 C126 1.328 . S
N125 C130 1.318 . S
C126 N125 1.328 . S
C126 C127 1.457 . S
C126 H131 0.929 . S
C127 C126 1.457 . S
C127 C128 1.291 . S
C127 H140 0.931 . S
C128 C127 1.291 . S
C128 C129 1.373 . S
C128 H141 0.929 . S
C129 C128 1.373 . S
C129 C130 1.396 . S
C129 C136 1.403 1_455 S
C130 C120 1.476 . S
C130 N125 1.318 . S
C130 C129 1.396 . S
H131 C126 0.929 . S
O132 Mn108 2.385 . S
O132 C110 1.234 . S
O133 Mn108 2.209 . S
O133 Mn109 2.215 . S
O133 C110 1.283 . S
O134 Mn108 2.094 . S
O134 C112 1.240 . S
O135 Mn109 2.117 . S
O135 C112 1.264 . S
C136 C129 1.403 1_655 S
C136 C137 1.399 . S
C136 H142 0.929 . S
C137 C117 1.449 1_655 S
C137 C136 1.399 . S
C137 H143 0.930 . S
H138 C118 0.931 1_655 S
H139 C119 0.930 . S
H140 C127 0.931 . S
H141 C128 0.929 . S
H142 C136 0.929 . S
H143 C137 0.930 . S
Mn144 O149 2.095 . S
Mn144 O159 2.162 . S
Mn144 O160 2.297 . S
Mn144 O168 2.385 1_545 S
Mn144 O169 2.209 1_545 S
Mn144 O170 2.094 1_545 S
Mn145 O150 2.121 . S
Mn145 N152 2.257 . S
Mn145 N161 2.282 . S
Mn145 O169 2.215 . S
Mn145 O171 2.117 . S
C146 O168 1.234 . S
C146 O169 1.283 . S
C147 O159 1.281 . S
C147 O160 1.236 . S
C148 O170 1.240 . S
C148 O171 1.264 . S
O149 Mn144 2.095 . S
O149 C158 1.259 . S
O150 Mn145 2.121 . S
O150 C158 1.240 1_565 S
C151 N152 1.326 . S
C151 C155 1.460 . S
C151 H157 0.929 . S
N152 Mn145 2.257 . S
N152 C151 1.326 . S
N152 C156 1.362 . S
C153 C154 1.258 . S
C153 C156 1.431 . S
C153 C173 1.449 . S
C154 C153 1.258 . S
C154 C155 1.477 . S
C154 H174 0.931 . S
C155 C151 1.460 . S
C155 C154 1.477 . S
C155 H175 0.930 . S
C156 N152 1.362 . S
C156 C153 1.431 . S
C156 C166 1.476 . S
H157 C151 0.929 . S
C158 O149 1.259 . S
C158 O150 1.240 1_545 S
O159 Mn144 2.162 . S
O159 C147 1.281 . S
O160 Mn144 2.297 . S
O160 C147 1.236 . S
N161 Mn145 2.282 . S
N161 C162 1.328 . S
N161 C166 1.318 . S
C162 N161 1.328 . S
C162 C163 1.457 . S
C162 H167 0.929 . S
C163 C162 1.457 . S
C163 C164 1.291 . S
C163 H176 0.931 . S
C164 C163 1.291 . S
C164 C165 1.373 . S
C164 H177 0.929 . S
C165 C164 1.373 . S
C165 C166 1.396 . S
C165 C172 1.403 . S
C166 C156 1.476 . S
C166 N161 1.318 . S
C166 C165 1.396 . S
H167 C162 0.929 . S
O168 Mn144 2.385 1_565 S
O168 C146 1.234 . S
O169 Mn144 2.209 1_565 S
O169 Mn145 2.215 . S
O169 C146 1.283 . S
O170 Mn144 2.094 1_565 S
O170 C148 1.240 . S
O171 Mn145 2.117 . S
O171 C148 1.264 . S
C172 C165 1.403 . S
C172 C173 1.399 . S
C172 H178 0.929 . S
C173 C153 1.449 . S
C173 C172 1.399 . S
C173 H179 0.930 . S
H174 C154 0.931 . S
H175 C155 0.930 . S
H176 C163 0.931 . S
H177 C164 0.929 . S
H178 C172 0.929 . S
H179 C173 0.930 . S
Mn180 O185 2.095 . S
Mn180 O195 2.162 . S
Mn180 O196 2.297 . S
Mn180 O204 2.385 1_655 S
Mn180 O205 2.209 1_655 S
Mn180 O206 2.094 1_655 S
Mn181 O186 2.121 . S
Mn181 N188 2.257 . S
Mn181 N197 2.282 . S
Mn181 O205 2.215 . S
Mn181 O207 2.117 . S
C182 O204 1.234 . S
C182 O205 1.283 . S
C183 O195 1.281 . S
C183 O196 1.236 . S
C184 O206 1.240 . S
C184 O207 1.264 . S
O185 Mn180 2.095 . S
O185 C194 1.257 . S
O186 Mn181 2.121 . S
O186 C194 1.243 1_455 S
C187 N188 1.326 . S
C187 C191 1.460 . S
C187 H193 0.929 . S
N188 Mn181 2.257 . S
N188 C187 1.326 . S
N188 C192 1.362 . S
C189 C190 1.258 . S
C189 C192 1.431 . S
C189 C209 1.449 1_565 S
C190 C189 1.258 . S
C190 C191 1.477 . S
C190 H210 0.931 1_565 S
C191 C187 1.460 . S
C191 C190 1.477 . S
C191 H211 0.930 . S
C192 N188 1.362 . S
C192 C189 1.431 . S
C192 C202 1.476 . S
H193 C187 0.929 . S
C194 O185 1.257 . S
C194 O186 1.243 1_655 S
O195 Mn180 2.162 . S
O195 C183 1.281 . S
O196 Mn180 2.297 . S
O196 C183 1.236 . S
N197 Mn181 2.282 . S
N197 C198 1.328 . S
N197 C202 1.318 . S
C198 N197 1.328 . S
C198 C199 1.457 . S
C198 H203 0.929 . S
C199 C198 1.457 . S
C199 C200 1.291 . S
C199 H212 0.931 . S
C200 C199 1.291 . S
C200 C201 1.373 . S
C200 H213 0.929 . S
C201 C200 1.373 . S
C201 C202 1.396 . S
C201 C208 1.403 1_565 S
C202 C192 1.476 . S
C202 N197 1.318 . S
C202 C201 1.396 . S
H203 C198 0.929 . S
O204 Mn180 2.385 1_455 S
O204 C182 1.234 . S
O205 Mn180 2.209 1_455 S
O205 Mn181 2.215 . S
O205 C182 1.283 . S
O206 Mn180 2.094 1_455 S
O206 C184 1.240 . S
O207 Mn181 2.117 . S
O207 C184 1.264 . S
C208 C201 1.403 1_545 S
C208 C209 1.399 . S
C208 H214 0.929 . S
C209 C189 1.449 1_545 S
C209 C208 1.399 . S
C209 H215 0.930 . S
H210 C190 0.931 1_545 S
H211 C191 0.930 . S
H212 C199 0.931 . S
H213 C200 0.929 . S
H214 C208 0.929 . S
H215 C209 0.930 . S
Mn216 O221 2.095 . S
Mn216 O231 2.162 . S
Mn216 O232 2.297 . S
Mn216 O240 2.385 . S
Mn216 O241 2.209 . S
Mn216 O242 2.094 . S
Mn217 O222 2.121 . S
Mn217 N224 2.257 . S
Mn217 N233 2.282 . S
Mn217 O241 2.215 . S
Mn217 O243 2.117 . S
C218 O240 1.234 . S
C218 O241 1.283 . S
C219 O231 1.281 . S
C219 O232 1.236 . S
C220 O242 1.240 . S
C220 O243 1.264 . S
O221 Mn216 2.095 . S
O221 C230 1.250 . S
O222 Mn217 2.121 . S
O222 C230 1.258 . S
C223 N224 1.326 . S
C223 C227 1.460 . S
C223 H229 0.929 . S
N224 Mn217 2.257 . S
N224 C223 1.326 . S
N224 C228 1.362 . S
C225 C226 1.258 . S
C225 C228 1.431 . S
C225 C245 1.449 . S
C226 C225 1.258 . S
C226 C227 1.477 . S
C226 H246 0.931 . S
C227 C223 1.460 . S
C227 C226 1.477 . S
C227 H247 0.930 . S
C228 N224 1.362 . S
C228 C225 1.431 . S
C228 C238 1.476 . S
H229 C223 0.929 . S
C230 O221 1.250 . S
C230 O222 1.258 . S
O231 Mn216 2.162 . S
O231 C219 1.281 . S
O232 Mn216 2.297 . S
O232 C219 1.236 . S
N233 Mn217 2.282 . S
N233 C234 1.328 . S
N233 C238 1.318 . S
C234 N233 1.328 . S
C234 C235 1.457 . S
C234 H239 0.929 . S
C235 C234 1.457 . S
C235 C236 1.291 . S
C235 H248 0.931 . S
C236 C235 1.291 . S
C236 C237 1.373 . S
C236 H249 0.929 . S
C237 C236 1.373 . S
C237 C238 1.396 . S
C237 C244 1.403 . S
C238 C228 1.476 . S
C238 N233 1.318 . S
C238 C237 1.396 . S
H239 C234 0.929 . S
O240 Mn216 2.385 . S
O240 C218 1.234 . S
O241 Mn216 2.209 . S
O241 Mn217 2.215 . S
O241 C218 1.283 . S
O242 Mn216 2.094 . S
O242 C220 1.240 . S
O243 Mn217 2.117 . S
O243 C220 1.264 . S
C244 C237 1.403 . S
C244 C245 1.399 . S
C244 H250 0.929 . S
C245 C225 1.449 . S
C245 C244 1.399 . S
C245 H251 0.930 . S
H246 C226 0.931 . S
H247 C227 0.930 . S
H248 C235 0.931 . S
H249 C236 0.929 . S
H250 C244 0.929 . S
H251 C245 0.930 . S
Mn252 O257 2.095 . S
Mn252 O267 2.162 . S
Mn252 O268 2.297 . S
Mn252 O276 2.385 . S
Mn252 O277 2.209 . S
Mn252 O278 2.094 . S
Mn253 O258 2.121 . S
Mn253 N260 2.257 . S
Mn253 N269 2.282 . S
Mn253 O277 2.215 . S
Mn253 O279 2.117 . S
C254 O276 1.234 . S
C254 O277 1.283 . S
C255 O267 1.281 . S
C255 O268 1.236 . S
C256 O278 1.240 . S
C256 O279 1.264 . S
O257 Mn252 2.095 . S
O257 C266 1.250 . S
O258 Mn253 2.121 . S
O258 C266 1.258 . S
C259 N260 1.326 . S
C259 C263 1.460 . S
C259 H265 0.929 . S
N260 Mn253 2.257 . S
N260 C259 1.326 . S
N260 C264 1.362 . S
C261 C262 1.258 . S
C261 C264 1.431 . S
C261 C281 1.449 . S
C262 C261 1.258 . S
C262 C263 1.477 . S
C262 H282 0.931 . S
C263 C259 1.460 . S
C263 C262 1.477 . S
C263 H283 0.930 . S
C264 N260 1.362 . S
C264 C261 1.431 . S
C264 C274 1.476 . S
H265 C259 0.929 . S
C266 O257 1.250 . S
C266 O258 1.258 . S
O267 Mn252 2.162 . S
O267 C255 1.281 . S
O268 Mn252 2.297 . S
O268 C255 1.236 . S
N269 Mn253 2.282 . S
N269 C270 1.328 . S
N269 C274 1.318 . S
C270 N269 1.328 . S
C270 C271 1.457 . S
C270 H275 0.929 . S
C271 C270 1.457 . S
C271 C272 1.291 . S
C271 H284 0.931 . S
C272 C271 1.291 . S
C272 C273 1.373 . S
C272 H285 0.929 . S
C273 C272 1.373 . S
C273 C274 1.396 . S
C273 C280 1.403 . S
C274 C264 1.476 . S
C274 N269 1.318 . S
C274 C273 1.396 . S
H275 C270 0.929 . S
O276 Mn252 2.385 . S
O276 C254 1.234 . S
O277 Mn252 2.209 . S
O277 Mn253 2.215 . S
O277 C254 1.283 . S
O278 Mn252 2.094 . S
O278 C256 1.240 . S
O279 Mn253 2.117 . S
O279 C256 1.264 . S
C280 C273 1.403 . S
C280 C281 1.399 . S
C280 H286 0.929 . S
C281 C261 1.449 . S
C281 C280 1.399 . S
C281 H287 0.930 . S
H282 C262 0.931 . S
H283 C263 0.930 . S
H284 C271 0.931 . S
H285 C272 0.929 . S
H286 C280 0.929 . S
H287 C281 0.930 . S
Mn288 O293 2.095 . S
Mn288 O303 2.162 . S
Mn288 O304 2.297 . S
Mn288 O312 2.385 . S
Mn288 O313 2.209 . S
Mn288 O314 2.094 . S
Mn289 O294 2.121 . S
Mn289 N296 2.257 . S
Mn289 N305 2.282 . S
Mn289 O313 2.215 . S
Mn289 O315 2.117 . S
C290 O312 1.234 . S
C290 O313 1.283 . S
C291 O303 1.281 . S
C291 O304 1.236 . S
C292 O314 1.240 . S
C292 O315 1.264 . S
O293 Mn288 2.095 . S
O293 C302 1.250 . S
O294 Mn289 2.121 . S
O294 C302 1.258 . S
C295 N296 1.326 . S
C295 C299 1.460 . S
C295 H301 0.929 . S
N296 Mn289 2.257 . S
N296 C295 1.326 . S
N296 C300 1.362 . S
C297 C298 1.258 . S
C297 C300 1.431 . S
C297 C317 1.449 . S
C298 C297 1.258 . S
C298 C299 1.477 . S
C298 H318 0.931 . S
C299 C295 1.460 . S
C299 C298 1.477 . S
C299 H319 0.930 . S
C300 N296 1.362 . S
C300 C297 1.431 . S
C300 C310 1.476 . S
H301 C295 0.929 . S
C302 O293 1.250 . S
C302 O294 1.258 . S
O303 Mn288 2.162 . S
O303 C291 1.281 . S
O304 Mn288 2.297 . S
O304 C291 1.236 . S
N305 Mn289 2.282 . S
N305 C306 1.328 . S
N305 C310 1.318 . S
C306 N305 1.328 . S
C306 C307 1.457 . S
C306 H311 0.929 . S
C307 C306 1.457 . S
C307 C308 1.291 . S
C307 H320 0.931 . S
C308 C307 1.291 . S
C308 C309 1.373 . S
C308 H321 0.929 . S
C309 C308 1.373 . S
C309 C310 1.396 . S
C309 C316 1.403 . S
C310 C300 1.476 . S
C310 N305 1.318 . S
C310 C309 1.396 . S
H311 C306 0.929 . S
O312 Mn288 2.385 . S
O312 C290 1.234 . S
O313 Mn288 2.209 . S
O313 Mn289 2.215 . S
O313 C290 1.283 . S
O314 Mn288 2.094 . S
O314 C292 1.240 . S
O315 Mn289 2.117 . S
O315 C292 1.264 . S
C316 C309 1.403 . S
C316 C317 1.399 . S
C316 H322 0.929 . S
C317 C297 1.449 . S
C317 C316 1.399 . S
C317 H323 0.930 . S
H318 C298 0.931 . S
H319 C299 0.930 . S
H320 C307 0.931 . S
H321 C308 0.929 . S
H322 C316 0.929 . S
H323 C317 0.930 . S
Mn324 O329 2.095 . S
Mn324 O339 2.162 . S
Mn324 O340 2.297 . S
Mn324 O348 2.385 . S
Mn324 O349 2.209 . S
Mn324 O350 2.094 . S
Mn325 O330 2.121 . S
Mn325 N332 2.257 . S
Mn325 N341 2.282 . S
Mn325 O349 2.215 . S
Mn325 O351 2.117 . S
C326 O348 1.234 . S
C326 O349 1.283 . S
C327 O339 1.281 . S
C327 O340 1.236 . S
C328 O350 1.240 . S
C328 O351 1.264 . S
O329 Mn324 2.095 . S
O329 C338 1.250 . S
O330 Mn325 2.121 . S
O330 C338 1.258 . S
C331 N332 1.326 . S
C331 C335 1.460 . S
C331 H337 0.929 . S
N332 Mn325 2.257 . S
N332 C331 1.326 . S
N332 C336 1.362 . S
C333 C334 1.258 . S
C333 C336 1.431 . S
C333 C353 1.449 . S
C334 C333 1.258 . S
C334 C335 1.477 . S
C334 H354 0.931 . S
C335 C331 1.460 . S
C335 C334 1.477 . S
C335 H355 0.930 . S
C336 N332 1.362 . S
C336 C333 1.431 . S
C336 C346 1.476 . S
H337 C331 0.929 . S
C338 O329 1.250 . S
C338 O330 1.258 . S
O339 Mn324 2.162 . S
O339 C327 1.281 . S
O340 Mn324 2.297 . S
O340 C327 1.236 . S
N341 Mn325 2.282 . S
N341 C342 1.328 . S
N341 C346 1.318 . S
C342 N341 1.328 . S
C342 C343 1.457 . S
C342 H347 0.929 . S
C343 C342 1.457 . S
C343 C344 1.291 . S
C343 H356 0.931 . S
C344 C343 1.291 . S
C344 C345 1.373 . S
C344 H357 0.929 . S
C345 C344 1.373 . S
C345 C346 1.396 . S
C345 C352 1.403 . S
C346 C336 1.476 . S
C346 N341 1.318 . S
C346 C345 1.396 . S
H347 C342 0.929 . S
O348 Mn324 2.385 . S
O348 C326 1.234 . S
O349 Mn324 2.209 . S
O349 Mn325 2.215 . S
O349 C326 1.283 . S
O350 Mn324 2.094 . S
O350 C328 1.240 . S
O351 Mn325 2.117 . S
O351 C328 1.264 . S
C352 C345 1.403 . S
C352 C353 1.399 . S
C352 H358 0.929 . S
C353 C333 1.449 . S
C353 C352 1.399 . S
C353 H359 0.930 . S
H354 C334 0.931 . S
H355 C335 0.930 . S
H356 C343 0.931 . S
H357 C344 0.929 . S
H358 C352 0.929 . S
H359 C353 0.930 . S
Mn360 O365 2.095 . S
Mn360 O375 2.162 . S
Mn360 O376 2.297 . S
Mn360 O384 2.385 . S
Mn360 O385 2.209 . S
Mn360 O386 2.094 . S
Mn361 O366 2.121 . S
Mn361 N368 2.257 . S
Mn361 N377 2.282 . S
Mn361 O385 2.215 . S
Mn361 O387 2.117 . S
C362 O384 1.234 . S
C362 O385 1.283 . S
C363 O375 1.281 . S
C363 O376 1.236 . S
C364 O386 1.240 . S
C364 O387 1.264 . S
O365 Mn360 2.095 . S
O365 C374 1.250 . S
O366 Mn361 2.121 . S
O366 C374 1.258 . S
C367 N368 1.326 . S
C367 C371 1.460 . S
C367 H373 0.929 . S
N368 Mn361 2.257 . S
N368 C367 1.326 . S
N368 C372 1.362 . S
C369 C370 1.258 . S
C369 C372 1.431 . S
C369 C389 1.449 . S
C370 C369 1.258 . S
C370 C371 1.477 . S
C370 H390 0.931 . S
C371 C367 1.460 . S
C371 C370 1.477 . S
C371 H391 0.930 . S
C372 N368 1.362 . S
C372 C369 1.431 . S
C372 C382 1.476 . S
H373 C367 0.929 . S
C374 O365 1.250 . S
C374 O366 1.258 . S
O375 Mn360 2.162 . S
O375 C363 1.281 . S
O376 Mn360 2.297 . S
O376 C363 1.236 . S
N377 Mn361 2.282 . S
N377 C378 1.328 . S
N377 C382 1.318 . S
C378 N377 1.328 . S
C378 C379 1.457 . S
C378 H383 0.929 . S
C379 C378 1.457 . S
C379 C380 1.291 . S
C379 H392 0.931 . S
C380 C379 1.291 . S
C380 C381 1.373 . S
C380 H393 0.929 . S
C381 C380 1.373 . S
C381 C382 1.396 . S
C381 C388 1.403 . S
C382 C372 1.476 . S
C382 N377 1.318 . S
C382 C381 1.396 . S
H383 C378 0.929 . S
O384 Mn360 2.385 . S
O384 C362 1.234 . S
O385 Mn360 2.209 . S
O385 Mn361 2.215 . S
O385 C362 1.283 . S
O386 Mn360 2.094 . S
O386 C364 1.240 . S
O387 Mn361 2.117 . S
O387 C364 1.264 . S
C388 C381 1.403 . S
C388 C389 1.399 . S
C388 H394 0.929 . S
C389 C369 1.449 . S
C389 C388 1.399 . S
C389 H395 0.930 . S
H390 C370 0.931 . S
H391 C371 0.930 . S
H392 C379 0.931 . S
H393 C380 0.929 . S
H394 C388 0.929 . S
H395 C389 0.930 . S
Mn396 O401 2.095 . S
Mn396 O411 2.162 . S
Mn396 O412 2.297 . S
Mn396 O420 2.385 . S
Mn396 O421 2.209 . S
Mn396 O422 2.094 . S
Mn397 O402 2.121 . S
Mn397 N404 2.257 . S
Mn397 N413 2.282 . S
Mn397 O421 2.215 . S
Mn397 O423 2.117 . S
C398 O420 1.234 . S
C398 O421 1.283 . S
C399 O411 1.281 . S
C399 O412 1.236 . S
C400 O422 1.240 . S
C400 O423 1.264 . S
O401 Mn396 2.095 . S
O401 C410 1.250 . S
O402 Mn397 2.121 . S
O402 C410 1.258 . S
C403 N404 1.326 . S
C403 C407 1.460 . S
C403 H409 0.929 . S
N404 Mn397 2.257 . S
N404 C403 1.326 . S
N404 C408 1.362 . S
C405 C406 1.258 . S
C405 C408 1.431 . S
C405 C425 1.449 . S
C406 C405 1.258 . S
C406 C407 1.477 . S
C406 H426 0.931 . S
C407 C403 1.460 . S
C407 C406 1.477 . S
C407 H427 0.930 . S
C408 N404 1.362 . S
C408 C405 1.431 . S
C408 C418 1.476 . S
H409 C403 0.929 . S
C410 O401 1.250 . S
C410 O402 1.258 . S
O411 Mn396 2.162 . S
O411 C399 1.281 . S
O412 Mn396 2.297 . S
O412 C399 1.236 . S
N413 Mn397 2.282 . S
N413 C414 1.328 . S
N413 C418 1.318 . S
C414 N413 1.328 . S
C414 C415 1.457 . S
C414 H419 0.929 . S
C415 C414 1.457 . S
C415 C416 1.291 . S
C415 H428 0.931 . S
C416 C415 1.291 . S
C416 C417 1.373 . S
C416 H429 0.929 . S
C417 C416 1.373 . S
C417 C418 1.396 . S
C417 C424 1.403 . S
C418 C408 1.476 . S
C418 N413 1.318 . S
C418 C417 1.396 . S
H419 C414 0.929 . S
O420 Mn396 2.385 . S
O420 C398 1.234 . S
O421 Mn396 2.209 . S
O421 Mn397 2.215 . S
O421 C398 1.283 . S
O422 Mn396 2.094 . S
O422 C400 1.240 . S
O423 Mn397 2.117 . S
O423 C400 1.264 . S
C424 C417 1.403 . S
C424 C425 1.399 . S
C424 H430 0.929 . S
C425 C405 1.449 . S
C425 C424 1.399 . S
C425 H431 0.930 . S
H426 C406 0.931 . S
H427 C407 0.930 . S
H428 C415 0.931 . S
H429 C416 0.929 . S
H430 C424 0.929 . S
H431 C425 0.930 . S
Mn432 O437 2.095 . S
Mn432 O447 2.162 . S
Mn432 O448 2.297 . S
Mn432 O456 2.385 . S
Mn432 O457 2.209 . S
Mn432 O458 2.094 . S
Mn433 O438 2.121 . S
Mn433 N440 2.257 . S
Mn433 N449 2.282 . S
Mn433 O457 2.215 . S
Mn433 O459 2.117 . S
C434 O456 1.234 . S
C434 O457 1.283 . S
C435 O447 1.281 . S
C435 O448 1.236 . S
C436 O458 1.240 . S
C436 O459 1.264 . S
O437 Mn432 2.095 . S
O437 C446 1.250 . S
O438 Mn433 2.121 . S
O438 C446 1.258 . S
C439 N440 1.326 . S
C439 C443 1.460 . S
C439 H445 0.929 . S
N440 Mn433 2.257 . S
N440 C439 1.326 . S
N440 C444 1.362 . S
C441 C442 1.258 . S
C441 C444 1.431 . S
C441 C461 1.449 . S
C442 C441 1.258 . S
C442 C443 1.477 . S
C442 H462 0.931 . S
C443 C439 1.460 . S
C443 C442 1.477 . S
C443 H463 0.930 . S
C444 N440 1.362 . S
C444 C441 1.431 . S
C444 C454 1.476 . S
H445 C439 0.929 . S
C446 O437 1.250 . S
C446 O438 1.258 . S
O447 Mn432 2.162 . S
O447 C435 1.281 . S
O448 Mn432 2.297 . S
O448 C435 1.236 . S
N449 Mn433 2.282 . S
N449 C450 1.328 . S
N449 C454 1.318 . S
C450 N449 1.328 . S
C450 C451 1.457 . S
C450 H455 0.929 . S
C451 C450 1.457 . S
C451 C452 1.291 . S
C451 H464 0.931 . S
C452 C451 1.291 . S
C452 C453 1.373 . S
C452 H465 0.929 . S
C453 C452 1.373 . S
C453 C454 1.396 . S
C453 C460 1.403 . S
C454 C444 1.476 . S
C454 N449 1.318 . S
C454 C453 1.396 . S
H455 C450 0.929 . S
O456 Mn432 2.385 . S
O456 C434 1.234 . S
O457 Mn432 2.209 . S
O457 Mn433 2.215 . S
O457 C434 1.283 . S
O458 Mn432 2.094 . S
O458 C436 1.240 . S
O459 Mn433 2.117 . S
O459 C436 1.264 . S
C460 C453 1.403 . S
C460 C461 1.399 . S
C460 H466 0.929 . S
C461 C441 1.449 . S
C461 C460 1.399 . S
C461 H467 0.930 . S
H462 C442 0.931 . S
H463 C443 0.930 . S
H464 C451 0.931 . S
H465 C452 0.929 . S
H466 C460 0.929 . S
H467 C461 0.930 . S
Mn468 O473 2.095 . S
Mn468 O483 2.162 . S
Mn468 O484 2.297 . S
Mn468 O492 2.385 . S
Mn468 O493 2.209 . S
Mn468 O494 2.094 . S
Mn469 O474 2.121 . S
Mn469 N476 2.257 . S
Mn469 N485 2.282 . S
Mn469 O493 2.215 . S
Mn469 O495 2.117 . S
C470 O492 1.234 . S
C470 O493 1.283 . S
C471 O483 1.281 . S
C471 O484 1.236 . S
C472 O494 1.240 . S
C472 O495 1.264 . S
O473 Mn468 2.095 . S
O473 C482 1.250 . S
O474 Mn469 2.121 . S
O474 C482 1.258 . S
C475 N476 1.326 . S
C475 C479 1.460 . S
C475 H481 0.929 . S
N476 Mn469 2.257 . S
N476 C475 1.326 . S
N476 C480 1.362 . S
C477 C478 1.258 . S
C477 C480 1.431 . S
C477 C497 1.449 . S
C478 C477 1.258 . S
C478 C479 1.477 . S
C478 H498 0.931 . S
C479 C475 1.460 . S
C479 C478 1.477 . S
C479 H499 0.930 . S
C480 N476 1.362 . S
C480 C477 1.431 . S
C480 C490 1.476 . S
H481 C475 0.929 . S
C482 O473 1.250 . S
C482 O474 1.258 . S
O483 Mn468 2.162 . S
O483 C471 1.281 . S
O484 Mn468 2.297 . S
O484 C471 1.236 . S
N485 Mn469 2.282 . S
N485 C486 1.328 . S
N485 C490 1.318 . S
C486 N485 1.328 . S
C486 C487 1.457 . S
C486 H491 0.929 . S
C487 C486 1.457 . S
C487 C488 1.291 . S
C487 H500 0.931 . S
C488 C487 1.291 . S
C488 C489 1.373 . S
C488 H501 0.929 . S
C489 C488 1.373 . S
C489 C490 1.396 . S
C489 C496 1.403 . S
C490 C480 1.476 . S
C490 N485 1.318 . S
C490 C489 1.396 . S
H491 C486 0.929 . S
O492 Mn468 2.385 . S
O492 C470 1.234 . S
O493 Mn468 2.209 . S
O493 Mn469 2.215 . S
O493 C470 1.283 . S
O494 Mn468 2.094 . S
O494 C472 1.240 . S
O495 Mn469 2.117 . S
O495 C472 1.264 . S
C496 C489 1.403 . S
C496 C497 1.399 . S
C496 H502 0.929 . S
C497 C477 1.449 . S
C497 C496 1.399 . S
C497 H503 0.930 . S
H498 C478 0.931 . S
H499 C479 0.930 . S
H500 C487 0.931 . S
H501 C488 0.929 . S
H502 C496 0.929 . S
H503 C497 0.930 . S
Mn504 O509 2.095 . S
Mn504 O519 2.162 . S
Mn504 O520 2.297 . S
Mn504 O528 2.385 . S
Mn504 O529 2.209 . S
Mn504 O530 2.094 . S
Mn505 O510 2.121 . S
Mn505 N512 2.257 . S
Mn505 N521 2.282 . S
Mn505 O529 2.215 . S
Mn505 O531 2.117 . S
C506 O528 1.234 . S
C506 O529 1.283 . S
C507 O519 1.281 . S
C507 O520 1.236 . S
C508 O530 1.240 . S
C508 O531 1.264 . S
O509 Mn504 2.095 . S
O509 C518 1.250 . S
O510 Mn505 2.121 . S
O510 C518 1.258 . S
C511 N512 1.326 . S
C511 C515 1.460 . S
C511 H517 0.929 . S
N512 Mn505 2.257 . S
N512 C511 1.326 . S
N512 C516 1.362 . S
C513 C514 1.258 . S
C513 C516 1.431 . S
C513 C533 1.449 . S
C514 C513 1.258 . S
C514 C515 1.477 . S
C514 H534 0.931 . S
C515 C511 1.460 . S
C515 C514 1.477 . S
C515 H535 0.930 . S
C516 N512 1.362 . S
C516 C513 1.431 . S
C516 C526 1.476 . S
H517 C511 0.929 . S
C518 O509 1.250 . S
C518 O510 1.258 . S
O519 Mn504 2.162 . S
O519 C507 1.281 . S
O520 Mn504 2.297 . S
O520 C507 1.236 . S
N521 Mn505 2.282 . S
N521 C522 1.328 . S
N521 C526 1.318 . S
C522 N521 1.328 . S
C522 C523 1.457 . S
C522 H527 0.929 . S
C523 C522 1.457 . S
C523 C524 1.291 . S
C523 H536 0.931 . S
C524 C523 1.291 . S
C524 C525 1.373 . S
C524 H537 0.929 . S
C525 C524 1.373 . S
C525 C526 1.396 . S
C525 C532 1.403 . S
C526 C516 1.476 . S
C526 N521 1.318 . S
C526 C525 1.396 . S
H527 C522 0.929 . S
O528 Mn504 2.385 . S
O528 C506 1.234 . S
O529 Mn504 2.209 . S
O529 Mn505 2.215 . S
O529 C506 1.283 . S
O530 Mn504 2.094 . S
O530 C508 1.240 . S
O531 Mn505 2.117 . S
O531 C508 1.264 . S
C532 C525 1.403 . S
C532 C533 1.399 . S
C532 H538 0.929 . S
C533 C513 1.449 . S
C533 C532 1.399 . S
C533 H539 0.930 . S
H534 C514 0.931 . S
H535 C515 0.930 . S
H536 C523 0.931 . S
H537 C524 0.929 . S
H538 C532 0.929 . S
H539 C533 0.930 . S
Mn540 O545 2.095 . S
Mn540 O555 2.162 . S
Mn540 O556 2.297 . S
Mn540 O564 2.385 . S
Mn540 O565 2.209 . S
Mn540 O566 2.094 . S
Mn541 O546 2.121 . S
Mn541 N548 2.257 . S
Mn541 N557 2.282 . S
Mn541 O565 2.215 . S
Mn541 O567 2.117 . S
C542 O564 1.234 . S
C542 O565 1.283 . S
C543 O555 1.281 . S
C543 O556 1.236 . S
C544 O566 1.240 . S
C544 O567 1.264 . S
O545 Mn540 2.095 . S
O545 C554 1.250 . S
O546 Mn541 2.121 . S
O546 C554 1.258 . S
C547 N548 1.326 . S
C547 C551 1.460 . S
C547 H553 0.929 . S
N548 Mn541 2.257 . S
N548 C547 1.326 . S
N548 C552 1.362 . S
C549 C550 1.258 . S
C549 C552 1.431 . S
C549 C569 1.449 . S
C550 C549 1.258 . S
C550 C551 1.477 . S
C550 H570 0.931 . S
C551 C547 1.460 . S
C551 C550 1.477 . S
C551 H571 0.930 . S
C552 N548 1.362 . S
C552 C549 1.431 . S
C552 C562 1.476 . S
H553 C547 0.929 . S
C554 O545 1.250 . S
C554 O546 1.258 . S
O555 Mn540 2.162 . S
O555 C543 1.281 . S
O556 Mn540 2.297 . S
O556 C543 1.236 . S
N557 Mn541 2.282 . S
N557 C558 1.328 . S
N557 C562 1.318 . S
C558 N557 1.328 . S
C558 C559 1.457 . S
C558 H563 0.929 . S
C559 C558 1.457 . S
C559 C560 1.291 . S
C559 H572 0.931 . S
C560 C559 1.291 . S
C560 C561 1.373 . S
C560 H573 0.929 . S
C561 C560 1.373 . S
C561 C562 1.396 . S
C561 C568 1.403 . S
C562 C552 1.476 . S
C562 N557 1.318 . S
C562 C561 1.396 . S
H563 C558 0.929 . S
O564 Mn540 2.385 . S
O564 C542 1.234 . S
O565 Mn540 2.209 . S
O565 Mn541 2.215 . S
O565 C542 1.283 . S
O566 Mn540 2.094 . S
O566 C544 1.240 . S
O567 Mn541 2.117 . S
O567 C544 1.264 . S
C568 C561 1.403 . S
C568 C569 1.399 . S
C568 H574 0.929 . S
C569 C549 1.449 . S
C569 C568 1.399 . S
C569 H575 0.930 . S
H570 C550 0.931 . S
H571 C551 0.930 . S
H572 C559 0.931 . S
H573 C560 0.929 . S
H574 C568 0.929 . S
H575 C569 0.930 . S
Mn576 O581 2.095 . S
Mn576 O591 2.162 . S
Mn576 O592 2.297 . S
Mn576 O600 2.385 . S
Mn576 O601 2.209 . S
Mn576 O602 2.094 . S
Mn577 O582 2.121 . S
Mn577 N584 2.257 . S
Mn577 N593 2.282 . S
Mn577 O601 2.215 . S
Mn577 O603 2.117 . S
C578 O600 1.234 . S
C578 O601 1.283 . S
C579 O591 1.281 . S
C579 O592 1.236 . S
C580 O602 1.240 . S
C580 O603 1.264 . S
O581 Mn576 2.095 . S
O581 C590 1.250 . S
O582 Mn577 2.121 . S
O582 C590 1.258 . S
C583 N584 1.326 . S
C583 C587 1.460 . S
C583 H589 0.929 . S
N584 Mn577 2.257 . S
N584 C583 1.326 . S
N584 C588 1.362 . S
C585 C586 1.258 . S
C585 C588 1.431 . S
C585 C605 1.449 . S
C586 C585 1.258 . S
C586 C587 1.477 . S
C586 H606 0.931 . S
C587 C583 1.460 . S
C587 C586 1.477 . S
C587 H607 0.930 . S
C588 N584 1.362 . S
C588 C585 1.431 . S
C588 C598 1.476 . S
H589 C583 0.929 . S
C590 O581 1.250 . S
C590 O582 1.258 . S
O591 Mn576 2.162 . S
O591 C579 1.281 . S
O592 Mn576 2.297 . S
O592 C579 1.236 . S
N593 Mn577 2.282 . S
N593 C594 1.328 . S
N593 C598 1.318 . S
C594 N593 1.328 . S
C594 C595 1.457 . S
C594 H599 0.929 . S
C595 C594 1.457 . S
C595 C596 1.291 . S
C595 H608 0.931 . S
C596 C595 1.291 . S
C596 C597 1.373 . S
C596 H609 0.929 . S
C597 C596 1.373 . S
C597 C598 1.396 . S
C597 C604 1.403 . S
C598 C588 1.476 . S
C598 N593 1.318 . S
C598 C597 1.396 . S
H599 C594 0.929 . S
O600 Mn576 2.385 . S
O600 C578 1.234 . S
O601 Mn576 2.209 . S
O601 Mn577 2.215 . S
O601 C578 1.283 . S
O602 Mn576 2.094 . S
O602 C580 1.240 . S
O603 Mn577 2.117 . S
O603 C580 1.264 . S
C604 C597 1.403 . S
C604 C605 1.399 . S
C604 H610 0.929 . S
C605 C585 1.449 . S
C605 C604 1.399 . S
C605 H611 0.930 . S
H606 C586 0.931 . S
H607 C587 0.930 . S
H608 C595 0.931 . S
H609 C596 0.929 . S
H610 C604 0.929 . S
H611 C605 0.930 . S
Mn612 O617 2.095 . S
Mn612 O627 2.162 . S
Mn612 O628 2.297 . S
Mn612 O636 2.385 . S
Mn612 O637 2.209 . S
Mn612 O638 2.094 . S
Mn613 O618 2.121 . S
Mn613 N620 2.257 . S
Mn613 N629 2.282 . S
Mn613 O637 2.215 . S
Mn613 O639 2.117 . S
C614 O636 1.234 . S
C614 O637 1.283 . S
C615 O627 1.281 . S
C615 O628 1.236 . S
C616 O638 1.240 . S
C616 O639 1.264 . S
O617 Mn612 2.095 . S
O617 C626 1.250 . S
O618 Mn613 2.121 . S
O618 C626 1.258 . S
C619 N620 1.326 . S
C619 C623 1.460 . S
C619 H625 0.929 . S
N620 Mn613 2.257 . S
N620 C619 1.326 . S
N620 C624 1.362 . S
C621 C622 1.258 . S
C621 C624 1.431 . S
C621 C641 1.449 . S
C622 C621 1.258 . S
C622 C623 1.477 . S
C622 H642 0.931 . S
C623 C619 1.460 . S
C623 C622 1.477 . S
C623 H643 0.930 . S
C624 N620 1.362 . S
C624 C621 1.431 . S
C624 C634 1.476 . S
H625 C619 0.929 . S
C626 O617 1.250 . S
C626 O618 1.258 . S
O627 Mn612 2.162 . S
O627 C615 1.281 . S
O628 Mn612 2.297 . S
O628 C615 1.236 . S
N629 Mn613 2.282 . S
N629 C630 1.328 . S
N629 C634 1.318 . S
C630 N629 1.328 . S
C630 C631 1.457 . S
C630 H635 0.929 . S
C631 C630 1.457 . S
C631 C632 1.291 . S
C631 H644 0.931 . S
C632 C631 1.291 . S
C632 C633 1.373 . S
C632 H645 0.929 . S
C633 C632 1.373 . S
C633 C634 1.396 . S
C633 C640 1.403 . S
C634 C624 1.476 . S
C634 N629 1.318 . S
C634 C633 1.396 . S
H635 C630 0.929 . S
O636 Mn612 2.385 . S
O636 C614 1.234 . S
O637 Mn612 2.209 . S
O637 Mn613 2.215 . S
O637 C614 1.283 . S
O638 Mn612 2.094 . S
O638 C616 1.240 . S
O639 Mn613 2.117 . S
O639 C616 1.264 . S
C640 C633 1.403 . S
C640 C641 1.399 . S
C640 H646 0.929 . S
C641 C621 1.449 . S
C641 C640 1.399 . S
C641 H647 0.930 . S
H642 C622 0.931 . S
H643 C623 0.930 . S
H644 C631 0.931 . S
H645 C632 0.929 . S
H646 C640 0.929 . S
H647 C641 0.930 . S
C648 C649 1.369 . S
C648 C650 1.419 . S
C648 H652 0.930 . S
C649 C648 1.369 . S
C649 C658 1.429 . S
C650 C648 1.419 . S
C650 C651 1.363 . S
C650 H653 0.929 . S
C651 C650 1.363 . S
C651 C657 1.428 . S
H652 C648 0.930 . S
H653 C650 0.929 . S
S654 N655 1.613 . S
S654 N656 1.610 . S
N655 S654 1.613 . S
N655 C658 1.350 . S
N656 S654 1.610 . S
N656 C657 1.351 . S
C657 C651 1.428 . S
C657 N656 1.351 . S
C657 C658 1.434 . S
C658 C649 1.429 . S
C658 N655 1.350 . S
C658 C657 1.434 . S
C659 C660 1.369 . S
C659 C661 1.419 . S
C659 H663 0.930 . S
C660 C659 1.369 . S
C660 C669 1.429 . S
C661 C659 1.419 . S
C661 C662 1.363 . S
C661 H664 0.929 . S
C662 C661 1.363 . S
C662 C668 1.428 . S
H663 C659 0.930 . S
H664 C661 0.929 . S
S665 N666 1.613 . S
S665 N667 1.610 . S
N666 S665 1.613 . S
N666 C669 1.350 . S
N667 S665 1.610 . S
N667 C668 1.351 . S
C668 C662 1.428 . S
C668 N667 1.351 . S
C668 C669 1.434 . S
C669 C660 1.429 . S
C669 N666 1.350 . S
C669 C668 1.434 . S
C670 C671 1.369 . S
C670 C672 1.419 . S
C670 H674 0.930 . S
C671 C670 1.369 . S
C671 C680 1.429 . S
C672 C670 1.419 . S
C672 C673 1.363 . S
C672 H675 0.929 . S
C673 C672 1.363 . S
C673 C679 1.428 . S
H674 C670 0.930 . S
H675 C672 0.929 . S
S676 N677 1.613 . S
S676 N678 1.610 . S
N677 S676 1.613 . S
N677 C680 1.350 . S
N678 S676 1.610 . S
N678 C679 1.351 . S
C679 C673 1.428 . S
C679 N678 1.351 . S
C679 C680 1.434 . S
C680 C671 1.429 . S
C680 N677 1.350 . S
C680 C679 1.434 . S
C681 C682 1.369 . S
C681 C683 1.419 . S
C681 H685 0.930 . S
C682 C681 1.369 . S
C682 C691 1.429 . S
C683 C681 1.419 . S
C683 C684 1.363 . S
C683 H686 0.929 . S
C684 C683 1.363 . S
C684 C690 1.428 . S
H685 C681 0.930 . S
H686 C683 0.929 . S
S687 N688 1.613 . S
S687 N689 1.610 . S
N688 S687 1.613 . S
N688 C691 1.350 . S
N689 S687 1.610 . S
N689 C690 1.351 . S
C690 C684 1.428 . S
C690 N689 1.351 . S
C690 C691 1.434 . S
C691 C682 1.429 . S
C691 N688 1.350 . S
C691 C690 1.434 . S
C692 C693 1.369 . S
C692 C694 1.419 . S
C692 H696 0.930 . S
C693 C692 1.369 . S
C693 C702 1.429 . S
C694 C692 1.419 . S
C694 C695 1.363 . S
C694 H697 0.929 . S
C695 C694 1.363 . S
C695 C701 1.428 . S
H696 C692 0.930 . S
H697 C694 0.929 . S
S698 N699 1.613 . S
S698 N700 1.610 . S
N699 S698 1.613 . S
N699 C702 1.350 . S
N700 S698 1.610 . S
N700 C701 1.351 . S
C701 C695 1.428 . S
C701 N700 1.351 . S
C701 C702 1.434 . S
C702 C693 1.429 . S
C702 N699 1.350 . S
C702 C701 1.434 . S
C703 C704 1.369 . S
C703 C705 1.419 . S
C703 H707 0.930 . S
C704 C703 1.369 . S
C704 C713 1.429 . S
C705 C703 1.419 . S
C705 C706 1.363 . S
C705 H708 0.929 . S
C706 C705 1.363 . S
C706 C712 1.428 . S
H707 C703 0.930 . S
H708 C705 0.929 . S
S709 N710 1.613 1_655 S
S709 N711 1.610 . S
N710 S709 1.613 1_455 S
N710 C713 1.350 . S
N711 S709 1.610 . S
N711 C712 1.351 1_655 S
C712 C706 1.428 . S
C712 N711 1.351 1_455 S
C712 C713 1.434 . S
C713 C704 1.429 . S
C713 N710 1.350 . S
C713 C712 1.434 . S
C714 C715 1.369 . S
C714 C716 1.419 1_655 S
C714 H718 0.930 . S
C715 C714 1.369 . S
C715 C724 1.429 . S
C716 C714 1.419 1_455 S
C716 C717 1.363 . S
C716 H719 0.929 . S
C717 C716 1.363 . S
C717 C723 1.428 . S
H718 C714 0.930 . S
H719 C716 0.929 . S
S720 N721 1.613 . S
S720 N722 1.610 1_655 S
N721 S720 1.613 . S
N721 C724 1.350 . S
N722 S720 1.610 1_455 S
N722 C723 1.351 . S
C723 C717 1.428 . S
C723 N722 1.351 . S
C723 C724 1.434 1_455 S
C724 C715 1.429 . S
C724 N721 1.350 . S
C724 C723 1.434 1_655 S
C725 C726 1.369 . S
C725 C727 1.419 . S
C725 H729 0.930 . S
C726 C725 1.369 . S
C726 C735 1.429 . S
C727 C725 1.419 . S
C727 C728 1.363 . S
C727 H730 0.929 . S
C728 C727 1.363 . S
C728 C734 1.428 . S
H729 C725 0.930 . S
H730 C727 0.929 . S
S731 N732 1.613 . S
S731 N733 1.610 . S
N732 S731 1.613 . S
N732 C735 1.350 . S
N733 S731 1.610 . S
N733 C734 1.351 . S
C734 C728 1.428 . S
C734 N733 1.351 . S
C734 C735 1.434 . S
C735 C726 1.429 . S
C735 N732 1.350 . S
C735 C734 1.434 . S
C736 C737 1.369 . S
C736 C738 1.419 1_545 S
C736 H740 0.930 . S
C737 C736 1.369 . S
C737 C746 1.429 . S
C738 C736 1.419 1_565 S
C738 C739 1.363 . S
C738 H741 0.929 . S
C739 C738 1.363 . S
C739 C745 1.428 . S
H740 C736 0.930 . S
H741 C738 0.929 . S
S742 N743 1.606 1_565 S
S742 N744 1.628 . S
N743 S742 1.606 1_545 S
N743 C746 1.350 . S
N744 S742 1.628 . S
N744 C745 1.351 . S
C745 C739 1.428 . S
C745 N744 1.351 . S
C745 C746 1.434 1_565 S
C746 C737 1.429 . S
C746 N743 1.350 . S
C746 C745 1.434 1_545 S
C747 C748 1.369 . S
C747 C749 1.419 1_455 S
C747 H751 0.930 . S
C748 C747 1.369 . S
C748 C757 1.429 . S
C749 C747 1.419 1_655 S
C749 C750 1.363 . S
C749 H752 0.929 . S
C750 C749 1.363 . S
C750 C756 1.428 . S
H751 C747 0.930 . S
H752 C749 0.929 . S
S753 N754 1.613 1_655 S
S753 N755 1.610 . S
N754 S753 1.613 1_455 S
N754 C757 1.350 . S
N755 S753 1.610 . S
N755 C756 1.351 . S
C756 C750 1.428 . S
C756 N755 1.351 . S
C756 C757 1.434 1_655 S
C757 C748 1.429 . S
C757 N754 1.350 . S
C757 C756 1.434 1_455 S
C758 C759 1.369 . S
C758 C760 1.419 . S
C758 H762 0.930 . S
C759 C758 1.369 . S
C759 C768 1.429 . S
C760 C758 1.419 . S
C760 C761 1.363 . S
C760 H763 0.929 . S
C761 C760 1.363 . S
C761 C767 1.428 . S
H762 C758 0.930 . S
H763 C760 0.929 . S
S764 N765 1.613 . S
S764 N766 1.610 . S
N765 S764 1.613 . S
N765 C768 1.350 . S
N766 S764 1.610 . S
N766 C767 1.351 . S
C767 C761 1.428 . S
C767 N766 1.351 . S
C767 C768 1.434 . S
C768 C759 1.429 . S
C768 N765 1.350 . S
C768 C767 1.434 . S
C769 C770 1.369 . S
C769 C771 1.419 1_545 S
C769 H773 0.930 . S
C770 C769 1.369 . S
C770 C779 1.429 . S
C771 C769 1.419 1_565 S
C771 C772 1.363 . S
C771 H774 0.929 . S
C772 C771 1.363 . S
C772 C778 1.428 . S
H773 C769 0.930 . S
H774 C771 0.929 . S
S775 N776 1.613 . S
S775 N777 1.610 1_545 S
N776 S775 1.613 . S
N776 C779 1.350 . S
N777 S775 1.610 1_565 S
N777 C778 1.351 . S
C778 C772 1.428 . S
C778 N777 1.351 . S
C778 C779 1.434 1_565 S
C779 C770 1.429 . S
C779 N776 1.350 . S
C779 C778 1.434 1_545 S
C780 C781 1.369 . S
C780 C782 1.419 1_565 S
C780 H784 0.930 . S
C781 C780 1.369 . S
C781 C790 1.429 . S
C782 C780 1.419 1_545 S
C782 C783 1.363 . S
C782 H785 0.929 . S
C783 C782 1.363 . S
C783 C789 1.428 . S
H784 C780 0.930 . S
H785 C782 0.929 . S
S786 N787 1.613 1_545 S
S786 N788 1.610 . S
N787 S786 1.613 1_565 S
N787 C790 1.350 . S
N788 S786 1.610 . S
N788 C789 1.351 . S
C789 C783 1.428 . S
C789 N788 1.351 . S
C789 C790 1.434 1_545 S
C790 C781 1.429 . S
C790 N787 1.350 . S
C790 C789 1.434 1_565 S
C791 C792 1.369 . S
C791 C793 1.419 1_455 S
C791 H795 0.930 . S
C792 C791 1.369 . S
C792 C801 1.429 . S
C793 C791 1.419 1_655 S
C793 C794 1.363 . S
C793 H796 0.929 . S
C794 C793 1.363 . S
C794 C800 1.428 . S
H795 C791 0.930 . S
H796 C793 0.929 . S
S797 N798 1.613 . S
S797 N799 1.610 1_455 S
N798 S797 1.613 . S
N798 C801 1.350 . S
N799 S797 1.610 1_655 S
N799 C800 1.351 . S
C800 C794 1.428 . S
C800 N799 1.351 . S
C800 C801 1.434 1_655 S
C801 C792 1.429 . S
C801 N798 1.350 . S
C801 C800 1.434 1_455 S
C802 C803 1.369 . S
C802 C804 1.419 . S
C802 H806 0.930 . S
C803 C802 1.369 . S
C803 C812 1.429 . S
C804 C802 1.419 . S
C804 C805 1.363 . S
C804 H807 0.929 . S
C805 C804 1.363 . S
C805 C811 1.428 . S
H806 C802 0.930 . S
H807 C804 0.929 . S
S808 N809 1.613 . S
S808 N810 1.610 . S
N809 S808 1.613 . S
N809 C812 1.350 . S
N810 S808 1.610 . S
N810 C811 1.351 . S
C811 C805 1.428 . S
C811 N810 1.351 . S
C811 C812 1.434 . S
C812 C803 1.429 . S
C812 N809 1.350 . S
C812 C811 1.434 . S
C813 C814 1.369 . S
C813 C815 1.419 . S
C813 H817 0.930 . S
C814 C813 1.369 . S
C814 C823 1.429 . S
C815 C813 1.419 . S
C815 C816 1.363 . S
C815 H818 0.929 . S
C816 C815 1.363 . S
C816 C822 1.428 . S
H817 C813 0.930 . S
H818 C815 0.929 . S
S819 N820 1.613 . S
S819 N821 1.610 . S
N820 S819 1.613 . S
N820 C823 1.350 . S
N821 S819 1.610 . S
N821 C822 1.351 . S
C822 C816 1.428 . S
C822 N821 1.351 . S
C822 C823 1.434 . S
C823 C814 1.429 . S
C823 N820 1.350 . S
C823 C822 1.434 . S
C824 C825 1.369 . S
C824 C826 1.419 . S
C824 H828 0.930 . S
C825 C824 1.369 . S
C825 C834 1.429 . S
C826 C824 1.419 . S
C826 C827 1.363 . S
C826 H829 0.929 . S
C827 C826 1.363 . S
C827 C833 1.428 . S
H828 C824 0.930 . S
H829 C826 0.929 . S
S830 N831 1.613 . S
S830 N832 1.610 . S
N831 S830 1.613 . S
N831 C834 1.350 . S
N832 S830 1.610 . S
N832 C833 1.351 . S
C833 C827 1.428 . S
C833 N832 1.351 . S
C833 C834 1.434 . S
C834 C825 1.429 . S
C834 N831 1.350 . S
C834 C833 1.434 . S
C835 C836 1.369 . S
C835 C837 1.419 . S
C835 H839 0.930 . S
C836 C835 1.369 . S
C836 C845 1.429 . S
C837 C835 1.419 . S
C837 C838 1.363 . S
C837 H840 0.929 . S
C838 C837 1.363 . S
C838 C844 1.428 . S
H839 C835 0.930 . S
H840 C837 0.929 . S
S841 N842 1.613 . S
S841 N843 1.610 . S
N842 S841 1.613 . S
N842 C845 1.350 . S
N843 S841 1.610 . S
N843 C844 1.351 . S
C844 C838 1.428 . S
C844 N843 1.351 . S
C844 C845 1.434 . S
C845 C836 1.429 . S
C845 N842 1.350 . S
C845 C844 1.434 . S
C846 C847 1.369 . S
C846 C848 1.419 . S
C846 H850 0.930 . S
C847 C846 1.369 . S
C847 C856 1.429 . S
C848 C846 1.419 . S
C848 C849 1.363 . S
C848 H851 0.929 . S
C849 C848 1.363 . S
C849 C855 1.428 . S
H850 C846 0.930 . S
H851 C848 0.929 . S
S852 N853 1.613 . S
S852 N854 1.610 . S
N853 S852 1.613 . S
N853 C856 1.350 . S
N854 S852 1.610 . S
N854 C855 1.351 . S
C855 C849 1.428 . S
C855 N854 1.351 . S
C855 C856 1.434 . S
C856 C847 1.429 . S
C856 N853 1.350 . S
C856 C855 1.434 . S
C857 C858 1.369 . S
C857 C859 1.419 . S
C857 H861 0.930 . S
C858 C857 1.369 . S
C858 C867 1.429 . S
C859 C857 1.419 . S
C859 C860 1.363 . S
C859 H862 0.929 . S
C860 C859 1.363 . S
C860 C866 1.428 . S
H861 C857 0.930 . S
H862 C859 0.929 . S
S863 N864 1.613 . S
S863 N865 1.610 . S
N864 S863 1.613 . S
N864 C867 1.350 . S
N865 S863 1.610 . S
N865 C866 1.351 . S
C866 C860 1.428 . S
C866 N865 1.351 . S
C866 C867 1.434 . S
C867 C858 1.429 . S
C867 N864 1.350 . S
C867 C866 1.434 . S
C868 C869 1.369 . S
C868 C870 1.419 . S
C868 H872 0.930 . S
C869 C868 1.369 . S
C869 C878 1.429 . S
C870 C868 1.419 . S
C870 C871 1.363 . S
C870 H873 0.929 . S
C871 C870 1.363 . S
C871 C877 1.428 . S
H872 C868 0.930 . S
H873 C870 0.929 . S
S874 N875 1.613 . S
S874 N876 1.610 . S
N875 S874 1.613 . S
N875 C878 1.350 . S
N876 S874 1.610 . S
N876 C877 1.351 . S
C877 C871 1.428 . S
C877 N876 1.351 . S
C877 C878 1.434 . S
C878 C869 1.429 . S
C878 N875 1.350 . S
C878 C877 1.434 . S
C879 C880 1.369 . S
C879 C881 1.419 . S
C879 H883 0.930 . S
C880 C879 1.369 . S
C880 C889 1.429 . S
C881 C879 1.419 . S
C881 C882 1.363 . S
C881 H884 0.929 . S
C882 C881 1.363 . S
C882 C888 1.428 . S
H883 C879 0.930 . S
H884 C881 0.929 . S
S885 N886 1.613 . S
S885 N887 1.610 . S
N886 S885 1.613 . S
N886 C889 1.350 . S
N887 S885 1.610 . S
N887 C888 1.351 . S
C888 C882 1.428 . S
C888 N887 1.351 . S
C888 C889 1.434 . S
C889 C880 1.429 . S
C889 N886 1.350 . S
C889 C888 1.434 . S
C890 C891 1.369 . S
C890 C892 1.419 . S
C890 H894 0.930 . S
C891 C890 1.369 . S
C891 C900 1.429 . S
C892 C890 1.419 . S
C892 C893 1.363 . S
C892 H895 0.929 . S
C893 C892 1.363 . S
C893 C899 1.428 . S
H894 C890 0.930 . S
H895 C892 0.929 . S
S896 N897 1.613 . S
S896 N898 1.610 . S
N897 S896 1.613 . S
N897 C900 1.350 . S
N898 S896 1.610 . S
N898 C899 1.351 . S
C899 C893 1.428 . S
C899 N898 1.351 . S
C899 C900 1.434 . S
C900 C891 1.429 . S
C900 N897 1.350 . S
C900 C899 1.434 . S
C901 C902 1.369 . S
C901 C903 1.419 . S
C901 H905 0.930 . S
C902 C901 1.369 . S
C902 C911 1.429 . S
C903 C901 1.419 . S
C903 C904 1.363 . S
C903 H906 0.929 . S
C904 C903 1.363 . S
C904 C910 1.428 . S
H905 C901 0.930 . S
H906 C903 0.929 . S
S907 N908 1.613 . S
S907 N909 1.610 . S
N908 S907 1.613 . S
N908 C911 1.350 . S
N909 S907 1.610 . S
N909 C910 1.351 . S
C910 C904 1.428 . S
C910 N909 1.351 . S
C910 C911 1.434 . S
C911 C902 1.429 . S
C911 N908 1.350 . S
C911 C910 1.434 . S
C912 C913 1.369 . S
C912 C914 1.419 . S
C912 H916 0.930 . S
C913 C912 1.369 . S
C913 C922 1.429 . S
C914 C912 1.419 . S
C914 C915 1.363 . S
C914 H917 0.929 . S
C915 C914 1.363 . S
C915 C921 1.428 . S
H916 C912 0.930 . S
H917 C914 0.929 . S
S918 N919 1.613 . S
S918 N920 1.610 . S
N919 S918 1.613 . S
N919 C922 1.350 . S
N920 S918 1.610 . S
N920 C921 1.351 . S
C921 C915 1.428 . S
C921 N920 1.351 . S
C921 C922 1.434 . S
C922 C913 1.429 . S
C922 N919 1.350 . S
C922 C921 1.434 . S
C923 C924 1.369 . S
C923 C925 1.419 . S
C923 H927 0.930 . S
C924 C923 1.369 . S
C924 C933 1.429 . S
C925 C923 1.419 . S
C925 C926 1.363 . S
C925 H928 0.929 . S
C926 C925 1.363 . S
C926 C932 1.428 . S
H927 C923 0.930 . S
H928 C925 0.929 . S
S929 N930 1.613 . S
S929 N931 1.610 . S
N930 S929 1.613 . S
N930 C933 1.350 . S
N931 S929 1.610 . S
N931 C932 1.351 . S
C932 C926 1.428 . S
C932 N931 1.351 . S
C932 C933 1.434 . S
C933 C924 1.429 . S
C933 N930 1.350 . S
C933 C932 1.434 . S
C934 C935 1.369 . S
C934 C936 1.419 . S
C934 H938 0.930 . S
C935 C934 1.369 . S
C935 C944 1.429 . S
C936 C934 1.419 . S
C936 C937 1.363 . S
C936 H939 0.929 . S
C937 C936 1.363 . S
C937 C943 1.428 . S
H938 C934 0.930 . S
H939 C936 0.929 . S
S940 N941 1.613 . S
S940 N942 1.610 . S
N941 S940 1.613 . S
N941 C944 1.350 . S
N942 S940 1.610 . S
N942 C943 1.351 . S
C943 C937 1.428 . S
C943 N942 1.351 . S
C943 C944 1.434 . S
C944 C935 1.429 . S
C944 N941 1.350 . S
C944 C943 1.434 . S
C945 C946 1.369 . S
C945 C947 1.419 1_554 S
C945 H949 0.930 . S
C946 C945 1.369 . S
C946 C955 1.429 . S
C947 C945 1.419 1_556 S
C947 C948 1.363 . S
C947 H950 0.929 . S
C948 C947 1.363 . S
C948 C954 1.428 . S
H949 C945 0.930 . S
H950 C947 0.929 . S
S951 N952 1.613 . S
S951 N953 1.610 1_554 S
N952 S951 1.613 . S
N952 C955 1.350 . S
N953 S951 1.610 1_556 S
N953 C954 1.351 . S
C954 C948 1.428 . S
C954 N953 1.351 . S
C954 C955 1.434 1_556 S
C955 C946 1.429 . S
C955 N952 1.350 . S
C955 C954 1.434 1_554 S
C956 C957 1.369 1_565 S
C956 C958 1.419 1_556 S
C956 H960 0.930 . S
C957 C956 1.369 1_545 S
C957 C966 1.429 . S
C958 C956 1.419 1_554 S
C958 C959 1.363 . S
C958 H961 0.929 . S
C959 C958 1.363 . S
C959 C965 1.428 1_565 S
H960 C956 0.930 . S
H961 C958 0.929 . S
S962 N963 1.613 1_554 S
S962 N964 1.610 . S
N963 S962 1.613 1_556 S
N963 C966 1.350 . S
N964 S962 1.610 . S
N964 C965 1.351 . S
C965 C959 1.428 1_545 S
C965 N964 1.351 . S
C965 C966 1.434 1_554 S
C966 C957 1.429 . S
C966 N963 1.350 . S
C966 C965 1.434 1_556 S
C967 C968 1.369 1_455 S
C967 C969 1.419 1_556 S
C967 H971 0.930 . S
C968 C967 1.369 1_655 S
C968 C977 1.429 . S
C969 C967 1.419 1_554 S
C969 C970 1.363 . S
C969 H972 0.929 . S
C970 C969 1.363 . S
C970 C976 1.428 1_455 S
H971 C967 0.930 . S
H972 C969 0.929 . S
S973 N974 1.613 1_554 S
S973 N975 1.610 . S
N974 S973 1.613 1_556 S
N974 C977 1.350 . S
N975 S973 1.610 . S
N975 C976 1.351 . S
C976 C970 1.428 1_655 S
C976 N975 1.351 . S
C976 C977 1.434 1_554 S
C977 C968 1.429 . S
C977 N974 1.350 . S
C977 C976 1.434 1_556 S
C978 C979 1.369 . S
C978 C980 1.419 . S
C978 H982 0.930 . S
C979 C978 1.369 . S
C979 C988 1.429 . S
C980 C978 1.419 . S
C980 C981 1.363 . S
C980 H983 0.929 . S
C981 C980 1.363 . S
C981 C987 1.428 . S
H982 C978 0.930 . S
H983 C980 0.929 . S
S984 N985 1.613 . S
S984 N986 1.610 . S
N985 S984 1.613 . S
N985 C988 1.350 . S
N986 S984 1.610 . S
N986 C987 1.351 . S
C987 C981 1.428 . S
C987 N986 1.351 . S
C987 C988 1.434 . S
C988 C979 1.429 . S
C988 N985 1.350 . S
C988 C987 1.434 . S
C989 C990 1.369 . S
C989 C991 1.419 . S
C989 H993 0.930 . S
C990 C989 1.369 . S
C990 C999 1.429 . S
C991 C989 1.419 . S
C991 C992 1.363 . S
C991 H994 0.929 . S
C992 C991 1.363 . S
C992 C998 1.428 . S
H993 C989 0.930 . S
H994 C991 0.929 . S
S995 N996 1.613 . S
S995 N997 1.610 . S
N996 S995 1.613 . S
N996 C999 1.350 . S
N997 S995 1.610 . S
N997 C998 1.351 . S
C998 C992 1.428 . S
C998 N997 1.351 . S
C998 C999 1.434 . S
C999 C990 1.429 . S
C999 N996 1.350 . S
C999 C998 1.434 . S
C1000 C1001 1.369 . S
C1000 C1002 1.419 . S
C1000 H1004 0.930 . S
C1001 C1000 1.369 . S
C1001 C1010 1.429 . S
C1002 C1000 1.419 . S
C1002 C1003 1.363 . S
C1002 H1005 0.929 . S
C1003 C1002 1.363 . S
C1003 C1009 1.428 . S
H1004 C1000 0.930 . S
H1005 C1002 0.929 . S
S1006 N1007 1.613 . S
S1006 N1008 1.610 . S
N1007 S1006 1.613 . S
N1007 C1010 1.350 . S
N1008 S1006 1.610 . S
N1008 C1009 1.351 . S
C1009 C1003 1.428 . S
C1009 N1008 1.351 . S
C1009 C1010 1.434 . S
C1010 C1001 1.429 . S
C1010 N1007 1.350 . S
C1010 C1009 1.434 . S
C1011 C1012 1.369 . S
C1011 C1013 1.419 . S
C1011 H1015 0.930 . S
C1012 C1011 1.369 . S
C1012 C1021 1.429 . S
C1013 C1011 1.419 . S
C1013 C1014 1.363 . S
C1013 H1016 0.929 . S
C1014 C1013 1.363 . S
C1014 C1020 1.428 . S
H1015 C1011 0.930 . S
H1016 C1013 0.929 . S
S1017 N1018 1.613 . S
S1017 N1019 1.610 . S
N1018 S1017 1.613 . S
N1018 C1021 1.350 . S
N1019 S1017 1.610 . S
N1019 C1020 1.351 . S
C1020 C1014 1.428 . S
C1020 N1019 1.351 . S
C1020 C1021 1.434 . S
C1021 C1012 1.429 . S
C1021 N1018 1.350 . S
C1021 C1020 1.434 . S
C1022 C1023 1.369 . S
C1022 C1024 1.419 . S
C1022 H1026 0.930 . S
C1023 C1022 1.369 . S
C1023 C1032 1.429 . S
C1024 C1022 1.419 . S
C1024 C1025 1.363 . S
C1024 H1027 0.929 . S
C1025 C1024 1.363 . S
C1025 C1031 1.428 . S
H1026 C1022 0.930 . S
H1027 C1024 0.929 . S
S1028 N1029 1.613 . S
S1028 N1030 1.610 . S
N1029 S1028 1.613 . S
N1029 C1032 1.350 . S
N1030 S1028 1.610 . S
N1030 C1031 1.351 . S
C1031 C1025 1.428 . S
C1031 N1030 1.351 . S
C1031 C1032 1.434 . S
C1032 C1023 1.429 . S
C1032 N1029 1.350 . S
C1032 C1031 1.434 . S
C1033 C1034 1.369 . S
C1033 C1035 1.419 . S
C1033 H1037 0.930 . S
C1034 C1033 1.369 . S
C1034 C1043 1.429 . S
C1035 C1033 1.419 . S
C1035 C1036 1.363 . S
C1035 H1038 0.929 . S
C1036 C1035 1.363 . S
C1036 C1042 1.428 . S
H1037 C1033 0.930 . S
H1038 C1035 0.929 . S
S1039 N1040 1.613 . S
S1039 N1041 1.610 . S
N1040 S1039 1.613 . S
N1040 C1043 1.350 . S
N1041 S1039 1.610 . S
N1041 C1042 1.351 . S
C1042 C1036 1.428 . S
C1042 N1041 1.351 . S
C1042 C1043 1.434 . S
C1043 C1034 1.429 . S
C1043 N1040 1.350 . S
C1043 C1042 1.434 . S
C649 C364 1.252 . S
C651 C4 1.243 . S
C660 C40 1.240 . S
C662 C400 1.239 . S
C671 C328 1.245 . S
C673 C76 1.243 . S
C682 C508 1.248 . S
C684 C112 1.244 . S
C693 C148 1.241 . S
C695 C436 1.245 . S
C704 C472 1.243 . S
C706 C184 1.242 . S
C715 C220 1.260 . S
C717 C580 1.255 . S
C726 C616 1.253 . S
C728 C256 1.262 . S
C737 C292 1.260 . S
C739 C544 1.251 . S
C748 C3 1.219 . S
C750 C38 1.279 . S
C759 C39 1.221 . S
C761 C74 1.270 . S
C770 C2 1.290 . S
C772 C75 1.231 . S
C781 C182 1.280 . S
C783 C111 1.218 . S
C792 C110 1.292 . S
C794 C147 1.235 . S
C803 C183 1.209 . S
C805 C146 1.268 . S
C814 C219 1.227 . S
C816 C254 1.296 . S
C825 C255 1.219 . S
C827 C290 1.288 . S
C836 C218 1.287 . S
C838 C291 1.228 . S
C847 C398 1.298 . S
C849 C327 1.233 . S
C858 C326 1.280 . S
C860 C363 1.215 . S
C869 C362 1.288 . S
C871 C399 1.223 . S
C880 C470 1.300 . S
C882 C435 1.236 . S
C891 C506 1.288 . S
C893 C471 1.224 . S
C902 C434 1.280 . S
C904 C507 1.218 . S
C913 C543 1.226 . S
C915 C614 1.297 . S
C924 C579 1.221 . S
C926 C542 1.288 . S
C935 C615 1.220 . S
C937 C578 1.289 . S
C946 C14 1.563 . S
C948 C122 1.562 . S
C957 C158 1.568 . S
C959 C50 1.558 . S
C968 C194 1.562 . S
C970 C86 1.561 . S
C979 C338 1.559 . S
C981 C230 1.570 . S
C990 C374 1.553 . S
C992 C266 1.562 . S
C1001 C302 1.562 . S
C1003 C410 1.571 . S
C1012 C554 1.571 . S
C1014 C446 1.561 . S
C1023 C590 1.561 . S
C1025 C482 1.570 . S
C1034 C626 1.559 . S
C1036 C518 1.558 . S
