# Generated by pormake.
# Topology pcb, (4)-cn, num edge types: 1
# Building blocks:
#     Node 0, Type 0, BuildingBlock: QUQFOY_clean_sbu_1, # of connection points: 4
#     Node 1, Type 0, BuildingBlock: QUQFOY_clean_sbu_1, # of connection points: 4
#     Node 2, Type 0, BuildingBlock: QUQFOY_clean_sbu_1, # of connection points: 4
#     Node 3, Type 0, BuildingBlock: QUQFOY_clean_sbu_1, # of connection points: 4
#     Node 4, Type 0, BuildingBlock: QUQFOY_clean_sbu_1, # of connection points: 4
#     Node 5, Type 0, BuildingBlock: QUQFOY_clean_sbu_1, # of connection points: 4
#     Node 6, Type 0, BuildingBlock: QUQFOY_clean_sbu_1, # of connection points: 4
#     Node 7, Type 0, BuildingBlock: QUQFOY_clean_sbu_1, # of connection points: 4
#     Node 8, Type 0, BuildingBlock: QUQFOY_clean_sbu_1, # of connection points: 4
#     Node 9, Type 0, BuildingBlock: QUQFOY_clean_sbu_1, # of connection points: 4
#     Node 10, Type 0, BuildingBlock: QUQFOY_clean_sbu_1, # of connection points: 4
#     Node 11, Type 0, BuildingBlock: QUQFOY_clean_sbu_1, # of connection points: 4
#     Node 12, Type 0, BuildingBlock: QUQFOY_clean_sbu_1, # of connection points: 4
#     Node 13, Type 0, BuildingBlock: QUQFOY_clean_sbu_1, # of connection points: 4
#     Node 14, Type 0, BuildingBlock: QUQFOY_clean_sbu_1, # of connection points: 4
#     Node 15, Type 0, BuildingBlock: QUQFOY_clean_sbu_1, # of connection points: 4
#     Edge 16, Type (0, 0), BuildingBlock: AJUNOK_clean_linker_0, # of connection points: 2
#     Edge 17, Type (0, 0), BuildingBlock: AJUNOK_clean_linker_0, # of connection points: 2
#     Edge 18, Type (0, 0), BuildingBlock: AJUNOK_clean_linker_0, # of connection points: 2
#     Edge 19, Type (0, 0), BuildingBlock: AJUNOK_clean_linker_0, # of connection points: 2
#     Edge 20, Type (0, 0), BuildingBlock: AJUNOK_clean_linker_0, # of connection points: 2
#     Edge 21, Type (0, 0), BuildingBlock: AJUNOK_clean_linker_0, # of connection points: 2
#     Edge 22, Type (0, 0), BuildingBlock: AJUNOK_clean_linker_0, # of connection points: 2
#     Edge 23, Type (0, 0), BuildingBlock: AJUNOK_clean_linker_0, # of connection points: 2
#     Edge 24, Type (0, 0), BuildingBlock: AJUNOK_clean_linker_0, # of connection points: 2
#     Edge 25, Type (0, 0), BuildingBlock: AJUNOK_clean_linker_0, # of connection points: 2
#     Edge 26, Type (0, 0), BuildingBlock: AJUNOK_clean_linker_0, # of connection points: 2
#     Edge 27, Type (0, 0), BuildingBlock: AJUNOK_clean_linker_0, # of connection points: 2
#     Edge 28, Type (0, 0), BuildingBlock: AJUNOK_clean_linker_0, # of connection points: 2
#     Edge 29, Type (0, 0), BuildingBlock: AJUNOK_clean_linker_0, # of connection points: 2
#     Edge 30, Type (0, 0), BuildingBlock: AJUNOK_clean_linker_0, # of connection points: 2
#     Edge 31, Type (0, 0), BuildingBlock: AJUNOK_clean_linker_0, # of connection points: 2
#     Edge 32, Type (0, 0), BuildingBlock: AJUNOK_clean_linker_0, # of connection points: 2
#     Edge 33, Type (0, 0), BuildingBlock: AJUNOK_clean_linker_0, # of connection points: 2
#     Edge 34, Type (0, 0), BuildingBlock: AJUNOK_clean_linker_0, # of connection points: 2
#     Edge 35, Type (0, 0), BuildingBlock: AJUNOK_clean_linker_0, # of connection points: 2
#     Edge 36, Type (0, 0), BuildingBlock: AJUNOK_clean_linker_0, # of connection points: 2
#     Edge 37, Type (0, 0), BuildingBlock: AJUNOK_clean_linker_0, # of connection points: 2
#     Edge 38, Type (0, 0), BuildingBlock: AJUNOK_clean_linker_0, # of connection points: 2
#     Edge 39, Type (0, 0), BuildingBlock: AJUNOK_clean_linker_0, # of connection points: 2
#     Edge 40, Type (0, 0), BuildingBlock: AJUNOK_clean_linker_0, # of connection points: 2
#     Edge 41, Type (0, 0), BuildingBlock: AJUNOK_clean_linker_0, # of connection points: 2
#     Edge 42, Type (0, 0), BuildingBlock: AJUNOK_clean_linker_0, # of connection points: 2
#     Edge 43, Type (0, 0), BuildingBlock: AJUNOK_clean_linker_0, # of connection points: 2
#     Edge 44, Type (0, 0), BuildingBlock: AJUNOK_clean_linker_0, # of connection points: 2
#     Edge 45, Type (0, 0), BuildingBlock: AJUNOK_clean_linker_0, # of connection points: 2
#     Edge 46, Type (0, 0), BuildingBlock: AJUNOK_clean_linker_0, # of connection points: 2
#     Edge 47, Type (0, 0), BuildingBlock: AJUNOK_clean_linker_0, # of connection points: 2
# Relax obj value: 0.295
# Max RMSD: 0.249
# Mean RMSD: 0.191
data_MOF--net-pcb--node1-QUQFOY_clean_sbu_1--edge1-AJUNOK_clean_linker_0
_symmetry_space_group_name_H-M    P1
_symmetry_Int_Tables_number       1
_symmetry_cell_setting            triclinic
loop_
_symmetry_equiv_pos_as_xyz
'x, y, z'
_cell_length_a     34.309571
_cell_length_b     36.75367
_cell_length_c     37.11437
_cell_angle_alpha  94.441143
_cell_angle_beta   93.536091
_cell_angle_gamma 96.250412
loop_
_atom_site_label
_atom_site_type_symbol
_atom_site_fract_x
_atom_site_fract_y
_atom_site_fract_z
_atom_type_partial_charge
O0 O 0.08976 0.14932 0.17545 0.0
Cd1 Cd 0.14623 0.13766 0.18588 0.0
Cd2 Cd 0.13987 0.11376 0.11044 0.0
O3 O 0.08388 0.12689 0.11847 0.0
O4 O 0.16393 0.16681 0.23196 0.0
O5 O 0.1924 0.17464 0.18044 0.0
C6 C 0.19084 0.18363 0.21462 0.0
C7 C 0.15358 0.1179 0.04998 0.0
C8 C 0.06936 0.1421 0.14559 0.0
C9 C 0.16755 0.06327 0.16663 0.0
O10 O 0.16366 0.07149 0.1341 0.0
O11 O 0.15833 0.08476 0.19237 0.0
O12 O 0.13065 0.09112 0.05999 0.0
O13 O 0.16982 0.14247 0.0747 0.0
O14 O 0.81916 0.11598 0.18725 0.0
Cd15 Cd 0.83345 0.17027 0.17848 0.0
Cd16 Cd 0.82169 0.14237 0.10898 0.0
O17 O 0.79285 0.09865 0.13221 0.0
O18 O 0.82814 0.19929 0.22507 0.0
O19 O 0.78983 0.20246 0.17531 0.0
C20 C 0.7989 0.2124 0.20922 0.0
C21 C 0.80148 0.15825 0.0513 0.0
C22 C 0.80063 0.0914 0.16469 0.0
C23 C 0.90476 0.16606 0.13977 0.0
O24 O 0.882 0.14627 0.11596 0.0
O25 O 0.89066 0.18306 0.16616 0.0
O26 O 0.81235 0.12651 0.05621 0.0
O27 O 0.79976 0.18076 0.07946 0.0
O28 O 0.89558 0.86377 0.21457 0.0
Cd29 Cd 0.83892 0.87511 0.22009 0.0
Cd30 Cd 0.83174 0.86843 0.14317 0.0
O31 O 0.88859 0.85637 0.15499 0.0
O32 O 0.82083 0.85685 0.26563 0.0
O33 O 0.79674 0.83298 0.21096 0.0
C34 C 0.79683 0.83278 0.24582 0.0
C35 C 0.81061 0.84929 0.08296 0.0
C36 C 0.90944 0.85578 0.18441 0.0
C37 C 0.81337 0.93927 0.18665 0.0
O38 O 0.81349 0.91912 0.15729 0.0
O39 O 0.82455 0.92772 0.21648 0.0
O40 O 0.83625 0.87713 0.09172 0.0
O41 O 0.79645 0.83123 0.10855 0.0
O42 O 0.18104 0.89501 0.20887 0.0
Cd43 Cd 0.15618 0.84126 0.20668 0.0
Cd44 Cd 0.14595 0.84181 0.13406 0.0
O45 O 0.16966 0.89477 0.14981 0.0
O46 O 0.17792 0.81412 0.24609 0.0
O47 O 0.18374 0.79957 0.18767 0.0
C48 C 0.1901 0.79258 0.22102 0.0
C49 C 0.16695 0.82337 0.07722 0.0
C50 C 0.18203 0.91164 0.18016 0.0
C51 C 0.07323 0.8304 0.17559 0.0
O52 O 0.08739 0.82974 0.14463 0.0
O53 O 0.09603 0.83484 0.20424 0.0
O54 O 0.14219 0.84691 0.08104 0.0
O55 O 0.17866 0.80809 0.10543 0.0
O56 O 0.17959 0.7945 0.90548 0.0
Cd57 Cd 0.16357 0.79865 0.85154 0.0
Cd58 Cd 0.16881 0.86928 0.86993 0.0
O59 O 0.19589 0.85407 0.91693 0.0
O60 O 0.17772 0.75631 0.82058 0.0
O61 O 0.20452 0.81378 0.81774 0.0
C62 C 0.20183 0.77946 0.80613 0.0
C63 C 0.18984 0.92383 0.84462 0.0
C64 C 0.19322 0.8218 0.92748 0.0
C65 C 0.08803 0.82949 0.85111 0.0
O66 O 0.10842 0.85844 0.86558 0.0
O67 O 0.10489 0.80207 0.84013 0.0
O68 O 0.17705 0.92397 0.87649 0.0
O69 O 0.19298 0.8925 0.82748 0.0
O70 O 0.0965 0.18851 0.82074 0.0
Cd71 Cd 0.15466 0.18403 0.83538 0.0
Cd72 Cd 0.12935 0.11326 0.81944 0.0
O73 O 0.08359 0.13369 0.79148 0.0
O74 O 0.18131 0.23474 0.83783 0.0
O75 O 0.19483 0.19015 0.79853 0.0
C76 C 0.20139 0.22404 0.8116 0.0
C77 C 0.15813 0.06114 0.80107 0.0
C78 C 0.07337 0.16525 0.80028 0.0
C79 C 0.15083 0.13851 0.89688 0.0
O80 O 0.12884 0.11581 0.87496 0.0
O81 O 0.16821 0.16727 0.88569 0.0
O82 O 0.12137 0.0593 0.80681 0.0
O83 O 0.17781 0.09325 0.80173 0.0
O84 O 0.88292 0.15124 0.77303 0.0
Cd85 Cd 0.82405 0.13815 0.77972 0.0
Cd86 Cd 0.84784 0.15595 0.84778 0.0
O87 O 0.8955 0.18319 0.82583 0.0
O88 O 0.79102 0.15465 0.73956 0.0
O89 O 0.79418 0.1789 0.79647 0.0
C90 C 0.78096 0.17912 0.76308 0.0
C91 C 0.82594 0.1757 0.9039 0.0
C92 C 0.90674 0.172 0.79526 0.0
C93 C 0.82799 0.07548 0.82003 0.0
O94 O 0.84664 0.09976 0.84281 0.0
O95 O 0.80937 0.08494 0.79226 0.0
O96 O 0.86102 0.16719 0.90095 0.0
O97 O 0.80359 0.17549 0.87463 0.0
O98 O 0.89685 0.79406 0.85747 0.0
Cd99 Cd 0.83763 0.79128 0.86225 0.0
Cd100 Cd 0.84712 0.86569 0.86794 0.0
O101 O 0.90374 0.85431 0.85968 0.0
O102 O 0.81268 0.74832 0.83108 0.0
O103 O 0.8034 0.80612 0.82184 0.0
C104 C 0.79678 0.77138 0.81191 0.0
C105 C 0.83846 0.92443 0.85082 0.0
C106 C 0.91847 0.82412 0.85643 0.0
C107 C 0.813 0.824 0.92991 0.0
O108 O 0.82229 0.85375 0.91553 0.0
O109 O 0.81738 0.7934 0.91325 0.0
O110 O 0.86009 0.91921 0.87897 0.0
O111 O 0.81984 0.89594 0.83236 0.0
O112 O 0.58644 0.64941 0.66888 0.0
Cd113 Cd 0.64371 0.64122 0.68071 0.0
Cd114 Cd 0.6377 0.61102 0.60811 0.0
O115 O 0.57982 0.61873 0.61522 0.0
O116 O 0.65889 0.6733 0.72555 0.0
O117 O 0.68827 0.67963 0.67435 0.0
C118 C 0.68574 0.69007 0.7081 0.0
C119 C 0.65178 0.61606 0.5479 0.0
C120 C 0.5652 0.63672 0.6406 0.0
C121 C 0.67056 0.56801 0.66789 0.0
O122 O 0.66653 0.5733 0.63452 0.0
O123 O 0.65881 0.59022 0.69165 0.0
O124 O 0.63196 0.58733 0.55793 0.0
O125 O 0.66495 0.64197 0.57254 0.0
O126 O 0.31587 0.61287 0.68628 0.0
Cd127 Cd 0.33042 0.66648 0.67518 0.0
Cd128 Cd 0.31524 0.63693 0.60848 0.0
O129 O 0.28504 0.59508 0.63316 0.0
O130 O 0.32711 0.69738 0.72099 0.0
O131 O 0.28715 0.69888 0.67192 0.0
C132 C 0.29739 0.71001 0.7054 0.0
C133 C 0.29358 0.65593 0.55275 0.0
C134 C 0.29494 0.58835 0.66537 0.0
C135 C 0.3995 0.65799 0.63491 0.0
O136 O 0.37538 0.6371 0.61312 0.0
O137 O 0.38681 0.67777 0.66021 0.0
O138 O 0.30194 0.62299 0.55589 0.0
O139 O 0.29515 0.67796 0.58175 0.0
O140 O 0.4022 0.36835 0.71418 0.0
Cd141 Cd 0.34501 0.37652 0.72171 0.0
Cd142 Cd 0.33321 0.36797 0.64608 0.0
O143 O 0.39204 0.36074 0.65484 0.0
O144 O 0.32947 0.35709 0.76753 0.0
O145 O 0.3049 0.33274 0.71315 0.0
C146 C 0.30607 0.33225 0.74803 0.0
C147 C 0.30966 0.34401 0.58774 0.0
C148 C 0.41485 0.3615 0.68324 0.0
C149 C 0.31263 0.43799 0.68888 0.0
O150 O 0.31166 0.41731 0.65971 0.0
O151 O 0.32711 0.42786 0.71824 0.0
O152 O 0.33266 0.37408 0.59373 0.0
O153 O 0.29923 0.32669 0.61512 0.0
O154 O 0.68633 0.40308 0.71532 0.0
Cd155 Cd 0.66138 0.3493 0.71033 0.0
Cd156 Cd 0.65601 0.35242 0.63719 0.0
O157 O 0.68215 0.40384 0.65597 0.0
O158 O 0.68137 0.32033 0.74901 0.0
O159 O 0.69012 0.30875 0.69065 0.0
C160 C 0.69505 0.30022 0.72368 0.0
C161 C 0.67656 0.33684 0.57934 0.0
C162 C 0.69149 0.42008 0.68722 0.0
C163 C 0.58032 0.34106 0.67524 0.0
O164 O 0.59655 0.34243 0.64534 0.0
O165 O 0.60126 0.34288 0.70491 0.0
O166 O 0.65425 0.36217 0.5852 0.0
O167 O 0.68598 0.31821 0.60594 0.0
O168 O 0.6828 0.30285 0.40791 0.0
Cd169 Cd 0.665 0.30428 0.35388 0.0
Cd170 Cd 0.67305 0.37555 0.36822 0.0
O171 O 0.70143 0.36231 0.41535 0.0
O172 O 0.67837 0.26087 0.3238 0.0
O173 O 0.70531 0.31794 0.31906 0.0
C174 C 0.70248 0.28334 0.30852 0.0
C175 C 0.69412 0.42821 0.3399 0.0
C176 C 0.69811 0.331 0.42802 0.0
C177 C 0.59086 0.33781 0.35378 0.0
O178 O 0.61262 0.36668 0.36644 0.0
O179 O 0.60627 0.30916 0.3437 0.0
O180 O 0.68292 0.43015 0.37236 0.0
O181 O 0.69573 0.39609 0.3238 0.0
O182 O 0.58695 0.68535 0.31945 0.0
Cd183 Cd 0.64581 0.68421 0.3338 0.0
Cd184 Cd 0.62568 0.61262 0.31701 0.0
O185 O 0.57712 0.63013 0.29072 0.0
O186 O 0.67008 0.73572 0.33526 0.0
O187 O 0.6855 0.69134 0.29669 0.0
C188 C 0.69063 0.72546 0.30919 0.0
C189 C 0.65654 0.56247 0.29639 0.0
C190 C 0.56482 0.66076 0.29959 0.0
C191 C 0.64665 0.63796 0.39489 0.0
O192 O 0.62697 0.61389 0.37262 0.0
O193 O 0.66081 0.66823 0.38414 0.0
O194 O 0.62017 0.55886 0.30358 0.0
O195 O 0.67454 0.59529 0.2971 0.0
O196 O 0.3729 0.63914 0.27424 0.0
Cd197 Cd 0.31378 0.62776 0.28035 0.0
Cd198 Cd 0.33524 0.64644 0.34998 0.0
O199 O 0.38538 0.66932 0.32802 0.0
O200 O 0.28196 0.64493 0.23975 0.0
O201 O 0.28558 0.66999 0.29637 0.0
C202 C 0.27269 0.67017 0.26289 0.0
C203 C 0.31621 0.67086 0.40564 0.0
C204 C 0.39674 0.65881 0.2973 0.0
C205 C 0.30869 0.56595 0.32412 0.0
O206 O 0.32679 0.58992 0.34759 0.0
O207 O 0.29599 0.57545 0.29377 0.0
O208 O 0.34953 0.65838 0.40281 0.0
O209 O 0.2942 0.67194 0.37639 0.0
O210 O 0.4026 0.29695 0.36379 0.0
Cd211 Cd 0.34348 0.28742 0.36888 0.0
Cd212 Cd 0.34498 0.36175 0.37564 0.0
O213 O 0.40363 0.35705 0.36787 0.0
O214 O 0.32248 0.2433 0.33712 0.0
O215 O 0.3065 0.29941 0.32918 0.0
C216 C 0.30306 0.26474 0.31878 0.0
C217 C 0.32489 0.41734 0.35865 0.0
C218 C 0.42143 0.32861 0.36377 0.0
C219 C 0.315 0.31553 0.43647 0.0
O220 O 0.32087 0.34591 0.42239 0.0
O221 O 0.32342 0.28622 0.41989 0.0
O222 O 0.34787 0.41556 0.38697 0.0
O223 O 0.31298 0.38711 0.33918 0.0
C224 C 0.28666 0.21938 0.26543 0.0
C225 C 0.27641 0.24917 0.28756 0.0
C226 C 0.25953 0.20018 0.23908 0.0
C227 C 0.22113 0.20971 0.23482 0.0
H228 H 0.31539 0.21003 0.26939 0.0
H229 H 0.26775 0.17623 0.22378 0.0
S230 S 0.1806 0.28704 0.28389 0.0
N231 N 0.22636 0.28916 0.30136 0.0
N232 N 0.1747 0.25182 0.25281 0.0
C233 C 0.21106 0.2404 0.25547 0.0
C234 C 0.23897 0.26059 0.28163 0.0
C235 C 0.7102 0.24142 0.25403 0.0
C236 C 0.72679 0.26926 0.28038 0.0
C237 C 0.73348 0.22494 0.22915 0.0
C238 C 0.77429 0.23497 0.23066 0.0
H239 H 0.6791 0.23185 0.25306 0.0
H240 H 0.71983 0.2028 0.20999 0.0
S241 S 0.83168 0.30737 0.29351 0.0
N242 N 0.78598 0.30763 0.30513 0.0
N243 N 0.83013 0.2753 0.25953 0.0
C244 C 0.79106 0.26338 0.25623 0.0
C245 C 0.76718 0.28096 0.28082 0.0
C246 C 0.75347 0.77312 0.24233 0.0
C247 C 0.77031 0.80556 0.26265 0.0
C248 C 0.72843 0.74683 0.2578 0.0
C249 C 0.71877 0.75242 0.29392 0.0
H250 H 0.75985 0.76782 0.2143 0.0
H251 H 0.71594 0.72236 0.24113 0.0
S252 S 0.75562 0.83237 0.35899 0.0
N253 N 0.77611 0.84138 0.32111 0.0
N254 N 0.72869 0.79231 0.34992 0.0
C255 C 0.73556 0.78461 0.31459 0.0
C256 C 0.76144 0.8111 0.29905 0.0
C257 C 0.23998 0.72658 0.27732 0.0
C258 C 0.24977 0.69979 0.25128 0.0
C259 C 0.22064 0.75626 0.26721 0.0
C260 C 0.21039 0.76059 0.23061 0.0
H261 H 0.24764 0.72493 0.30585 0.0
H262 H 0.21405 0.77617 0.2884 0.0
S263 S 0.22803 0.69743 0.15174 0.0
N264 N 0.24671 0.67902 0.18715 0.0
N265 N 0.21049 0.73487 0.16819 0.0
C266 C 0.21948 0.73376 0.20425 0.0
C267 C 0.23907 0.70336 0.21456 0.0
C268 C 0.23221 0.72355 0.72496 0.0
C269 C 0.27315 0.73286 0.72696 0.0
C270 C 0.20911 0.73963 0.75021 0.0
C271 C 0.22602 0.76637 0.77747 0.0
H272 H 0.21828 0.7021 0.70519 0.0
H273 H 0.17789 0.73048 0.7489 0.0
S274 S 0.3313 0.80277 0.79197 0.0
N275 N 0.32943 0.7717 0.75707 0.0
N276 N 0.28559 0.8033 0.80348 0.0
C277 C 0.26653 0.7776 0.77833 0.0
C278 C 0.29022 0.76041 0.75332 0.0
C279 C 0.23808 0.24596 0.75983 0.0
C280 C 0.23019 0.25047 0.79652 0.0
C281 C 0.26279 0.27251 0.74437 0.0
C282 C 0.28098 0.30414 0.7652 0.0
H283 H 0.2242 0.22233 0.7427 0.0
H284 H 0.26751 0.26821 0.71582 0.0
S285 S 0.27192 0.32729 0.86333 0.0
N286 N 0.2438 0.28794 0.85374 0.0
N287 N 0.29059 0.33753 0.82495 0.0
C288 C 0.27425 0.30832 0.80225 0.0
C289 C 0.24873 0.28155 0.81781 0.0
C290 C 0.74508 0.23327 0.77859 0.0
C291 C 0.75686 0.20812 0.75202 0.0
C292 C 0.72488 0.26263 0.7691 0.0
C293 C 0.71575 0.26828 0.73261 0.0
H294 H 0.7519 0.23062 0.80709 0.0
H295 H 0.71685 0.28133 0.79069 0.0
S296 S 0.7385 0.20947 0.65243 0.0
N297 N 0.75673 0.19015 0.68745 0.0
N298 N 0.71889 0.24542 0.66965 0.0
C299 C 0.72669 0.24298 0.70569 0.0
C300 C 0.74714 0.21289 0.71537 0.0
C301 C 0.73042 0.76256 0.78022 0.0
C302 C 0.77035 0.75758 0.78024 0.0
C303 C 0.70302 0.74236 0.7547 0.0
C304 C 0.71507 0.71755 0.728 0.0
H305 H 0.71997 0.77999 0.80159 0.0
H306 H 0.67204 0.74473 0.75701 0.0
S307 S 0.81719 0.69856 0.71428 0.0
N308 N 0.82125 0.72864 0.75015 0.0
N309 N 0.76989 0.69174 0.70109 0.0
C310 C 0.75535 0.7148 0.72596 0.0
C311 C 0.78304 0.73456 0.75252 0.0
C312 C 0.16804 0.16124 0.96181 0.0
C313 C 0.15533 0.13188 0.93563 0.0
C314 C 0.16936 0.15616 -0.00111 0.0
C315 C 0.15804 0.12154 0.01105 0.0
H316 H 0.17571 0.18866 0.95373 0.0
H317 H 0.1777 0.17985 0.01811 0.0
S318 S 0.12896 0.03452 0.9533 0.0
N319 N 0.13582 0.0661 0.92434 0.0
N320 N 0.1382 0.05657 0.99392 0.0
C321 C 0.14759 0.09152 0.98509 0.0
C322 C 0.14623 0.09668 0.9474 0.0
C323 C 0.83154 0.20252 0.968 0.0
C324 C 0.81062 0.17887 0.94011 0.0
C325 C 0.82478 0.19846 0.00451 0.0
C326 C 0.79794 0.16975 0.01418 0.0
H327 H 0.85496 0.22276 0.96168 0.0
H328 H 0.84331 0.21563 0.02528 0.0
S329 S 0.73405 0.10216 0.95126 0.0
N330 N 0.75966 0.12792 0.92446 0.0
N331 N 0.74853 0.11901 0.9931 0.0
C332 C 0.7753 0.14735 0.9865 0.0
C333 C 0.78123 0.15224 0.94937 0.0
C334 C 0.7957 0.86112 0.98423 0.0
C335 C 0.80172 0.82648 0.96792 0.0
C336 C 0.79501 0.86731 0.02172 0.0
C337 C 0.79952 0.83902 0.04436 0.0
H338 H 0.79416 0.88444 0.96825 0.0
H339 H 0.79337 0.89507 0.03326 0.0
S340 S 0.80843 0.74181 0.01538 0.0
N341 N 0.80666 0.76216 0.97723 0.0
N342 N 0.8047 0.77409 0.04813 0.0
C343 C 0.80121 0.80339 0.02849 0.0
C344 C 0.80241 0.79702 0.99007 0.0
C345 C 0.16984 0.78713 0.01794 0.0
C346 C 0.18376 0.81774 0.04199 0.0
C347 C 0.17682 0.78682 0.98098 0.0
C348 C 0.1975 0.81738 0.96698 0.0
H349 H 0.151 0.7646 0.02713 0.0
H350 H 0.16298 0.76387 0.96292 0.0
S351 S 0.24591 0.90117 0.02099 0.0
N352 N 0.22341 0.87689 0.05083 0.0
N353 N 0.2369 0.87647 0.98167 0.0
C354 C 0.21477 0.84647 0.99174 0.0
C355 C 0.20763 0.84669 0.02918 0.0
C356 C 0.01107 0.16528 0.17336 0.0
C357 C 0.02823 0.15122 0.14248 0.0
C358 C 0.97165 0.17207 0.17178 0.0
C359 C 0.94772 0.16492 0.1393 0.0
H360 H 0.02787 0.17024 0.19929 0.0
H361 H 0.95946 0.18146 0.19662 0.0
S362 S 0.97941 0.1327 0.04961 0.0
N363 N 0.01895 0.13382 0.07753 0.0
N364 N 0.94488 0.14645 0.07475 0.0
C365 C 0.96494 0.15271 0.1078 0.0
C366 C 0.00513 0.14587 0.10934 0.0
C367 C 0.78696 0.98771 0.15165 0.0
C368 C 0.8029 0.97734 0.18471 0.0
C369 C 0.78306 0.02448 0.14644 0.0
C370 C 0.79511 0.05261 0.17403 0.0
H371 H 0.77903 0.96748 0.12883 0.0
H372 H 0.77274 0.03095 0.11978 0.0
S373 S 0.8317 0.03949 0.26798 0.0
N374 N 0.82558 -0.0023 0.24716 0.0
N375 N 0.81824 0.06692 0.23747 0.0
C376 C 0.80768 0.04232 0.20832 0.0
C377 C 0.81161 0.0047 0.21364 0.0
C378 C 0.96707 0.8424 0.14936 0.0
C379 C 0.95029 0.846 0.18298 0.0
C380 C 0.00616 0.83528 0.14707 0.0
C381 C 0.03028 0.83141 0.17829 0.0
H382 H 0.95025 0.84609 0.1245 0.0
H383 H 0.01788 0.83421 0.12062 0.0
S384 S -0.00074 0.83368 0.27259 0.0
N385 N 0.95991 0.84179 0.24799 0.0
N386 N 0.03331 0.82832 0.24373 0.0
C387 C 0.0133 0.83299 0.21195 0.0
C388 C 0.97342 0.84036 0.21429 0.0
C389 C 0.17112 0.01084 0.20578 0.0
C390 C 0.18029 0.02704 0.17373 0.0
C391 C 0.17594 0.97385 0.2097 0.0
C392 C 0.19007 0.95201 0.18168 0.0
H393 H 0.15761 0.02596 0.22692 0.0
H394 H 0.16536 0.96159 0.2334 0.0
S395 S 0.22692 0.9835 0.09621 0.0
N396 N 0.21078 0.02002 0.11637 0.0
N397 N 0.21938 0.95066 0.12375 0.0
C398 C 0.20323 0.96894 0.15131 0.0
C399 C 0.19839 0.00643 0.1473 0.0
C400 C 0.98586 0.85794 0.85916 0.0
C401 C 0.96126 0.82455 0.85258 0.0
C402 C 0.02659 0.85928 0.85765 0.0
C403 C 0.04454 0.82733 0.84926 0.0
H404 H 0.97374 0.88332 0.86633 0.0
H405 H 0.04415 0.88563 0.86366 0.0
S406 S 0.99314 0.73317 0.82736 0.0
N407 N 0.95763 0.75889 0.83561 0.0
N408 N 0.0343 0.76139 0.83265 0.0
C409 C 0.02023 0.79385 0.84146 0.0
C410 C 0.97862 0.79246 0.84321 0.0
C411 C 0.17061 0.96068 0.79455 0.0
C412 C 0.19378 0.95835 0.82674 0.0
C413 C 0.1622 0.99492 0.78362 0.0
C414 C 0.17794 0.02775 0.80375 0.0
H415 H 0.15556 0.93599 0.7799 0.0
H416 H 0.14089 0.99558 0.76093 0.0
S417 S 0.24456 0.03628 0.8872 0.0
N418 N 0.23505 0.99155 0.87671 0.0
N419 N 0.22101 0.05585 0.85513 0.0
C420 C 0.20449 0.02576 0.83375 0.0
C421 C 0.21195 0.99097 0.84552 0.0
C422 C 0.01597 0.19883 0.81457 0.0
C423 C 0.03223 0.17268 0.79204 0.0
C424 C 0.97533 0.20067 0.8133 0.0
C425 C 0.94935 0.17677 0.78913 0.0
H426 H 0.03434 0.2163 0.83523 0.0
H427 H 0.96409 0.21947 0.83296 0.0
S428 S 0.97806 0.10884 0.71897 0.0
N429 N 0.01997 0.12634 0.74107 0.0
N430 N 0.94366 0.13011 0.73809 0.0
C431 C 0.96568 0.15323 0.76378 0.0
C432 C 0.00709 0.15105 0.76543 0.0
C433 C 0.80315 0.97197 0.82096 0.0
C434 C 0.83655 0.96216 0.84023 0.0
C435 C 0.80054 0.00866 0.81355 0.0
C436 C 0.83123 0.03644 0.82526 0.0
H437 H 0.77853 0.95145 0.81253 0.0
H438 H 0.77398 0.01547 0.79956 0.0
S439 S 0.92744 0.02371 0.87131 0.0
N440 N 0.90257 0.98243 0.86709 0.0
N441 N 0.89773 0.0508 0.85325 0.0
C442 C 0.86548 0.02647 0.84289 0.0
C443 C 0.8681 0.98945 0.85035 0.0
C444 C 0.66282 0.66074 0.45997 0.0
C445 C 0.65197 0.63116 0.43358 0.0
C446 C 0.6647 0.65539 0.49698 0.0
C447 C 0.65584 0.62026 0.50895 0.0
H448 H 0.66856 0.68849 0.45211 0.0
H449 H 0.67153 0.6792 0.51632 0.0
S450 S 0.63218 0.53284 0.45064 0.0
N451 N 0.63679 0.56487 0.4219 0.0
N452 N 0.64025 0.55482 0.49137 0.0
C453 C 0.6473 0.59013 0.48279 0.0
C454 C 0.64536 0.59557 0.44514 0.0
C455 C 0.31995 0.69454 0.50615 0.0
C456 C 0.28992 0.669 0.51632 0.0
C457 C 0.32619 0.69797 0.46947 0.0
C458 C 0.30176 0.67693 0.44194 0.0
H459 H 0.34117 0.70912 0.52653 0.0
H460 H 0.35196 0.71515 0.46267 0.0
S461 S 0.21587 0.61005 0.45464 0.0
N462 N 0.23359 0.62479 0.49625 0.0
N463 N 0.24397 0.6327 0.42729 0.0
C464 C 0.26925 0.65417 0.45182 0.0
C465 C 0.26369 0.6498 0.48911 0.0
C466 C 0.2881 0.34826 0.48877 0.0
C467 C 0.3025 0.31629 0.47403 0.0
C468 C 0.28632 0.35518 0.52609 0.0
C469 C 0.29812 0.33013 0.55004 0.0
H470 H 0.28093 0.3695 0.47164 0.0
H471 H 0.27848 0.3816 0.53646 0.0
S472 S 0.33058 0.23926 0.52539 0.0
N473 N 0.32322 0.25683 0.4862 0.0
N474 N 0.31925 0.26999 0.55675 0.0
C475 C 0.30813 0.29623 0.53571 0.0
C476 C 0.31039 0.28921 0.4975 0.0
C477 C 0.68743 0.29775 0.48389 0.0
C478 C 0.70388 0.32903 0.4679 0.0
C479 C 0.68166 0.29908 0.52115 0.0
C480 C 0.69211 0.3317 0.54344 0.0
H481 H 0.67611 0.27294 0.46719 0.0
H482 H 0.66619 0.27546 0.53191 0.0
S483 S 0.74371 0.41848 0.51723 0.0
N484 N 0.73666 0.3915 0.47917 0.0
N485 N 0.7248 0.39396 0.54868 0.0
C486 C 0.71199 0.36183 0.5287 0.0
C487 C 0.7183 0.36045 0.49105 0.0
C488 C 0.50749 0.66349 0.6656 0.0
C489 C 0.52329 0.64346 0.6372 0.0
C490 C 0.46788 0.66953 0.66383 0.0
C491 C 0.44226 0.65566 0.63367 0.0
H492 H 0.52567 0.67422 0.68979 0.0
H493 H 0.45707 0.68419 0.68692 0.0
S494 S 0.46943 0.60427 0.55048 0.0
N495 N 0.51056 0.61182 0.57677 0.0
N496 N 0.43609 0.62314 0.57354 0.0
C497 C 0.45789 0.63674 0.60444 0.0
C498 C 0.49834 0.63062 0.6062 0.0
C499 C 0.27725 0.52119 0.64868 0.0
C500 C 0.28969 0.54988 0.6756 0.0
C501 C 0.28241 0.48474 0.65424 0.0
C502 C 0.30007 0.47533 0.68701 0.0
H503 H 0.26592 0.52703 0.62211 0.0
H504 H 0.27436 0.46409 0.6318 0.0
S505 S 0.32944 0.53906 0.7691 0.0
N506 N 0.31423 0.56561 0.73848 0.0
N507 N 0.32397 0.49701 0.74889 0.0
C508 C 0.30877 0.50316 0.71551 0.0
C509 C 0.30353 0.54043 0.70982 0.0
C510 C 0.52078 0.34801 0.70973 0.0
C511 C 0.53717 0.34201 0.67618 0.0
C512 C 0.4813 0.35392 0.71167 0.0
C513 C 0.45631 0.35397 0.68017 0.0
H514 H 0.53881 0.34926 0.73489 0.0
H515 H 0.47054 0.35902 0.73822 0.0
S516 S 0.48365 0.33655 0.58546 0.0
N517 N 0.52454 0.33431 0.61063 0.0
N518 N 0.45035 0.34527 0.6142 0.0
C519 C 0.47188 0.34667 0.64638 0.0
C520 C 0.51221 0.3407 0.64442 0.0
C521 C 0.67432 0.51788 0.70966 0.0
C522 C 0.68607 0.53394 0.67825 0.0
C523 C 0.68089 0.48162 0.71526 0.0
C524 C 0.69941 0.46049 0.68962 0.0
H525 H 0.65714 0.53219 0.72847 0.0
H526 H 0.6679 0.46904 0.7378 0.0
S527 S 0.74493 0.49315 0.60823 0.0
N528 N 0.72407 0.52848 0.62521 0.0
N529 N 0.73613 0.46045 0.63573 0.0
C530 C 0.7156 0.47785 0.66068 0.0
C531 C 0.70889 0.51456 0.65492 0.0
C532 C 0.48325 0.30046 0.35256 0.0
C533 C 0.46437 0.33221 0.35932 0.0
C534 C 0.5239 0.30267 0.3496 0.0
C535 C 0.5475 0.33671 0.35349 0.0
H536 H 0.46663 0.27348 0.34992 0.0
H537 H 0.53698 0.27731 0.34516 0.0
S538 S 0.5125 0.42842 0.36906 0.0
N539 N 0.47239 0.39906 0.36807 0.0
N540 N 0.54877 0.40315 0.36258 0.0
C541 C 0.52896 0.36881 0.35927 0.0
C542 C 0.48746 0.36659 0.36216 0.0
C543 C 0.67146 0.46289 0.28956 0.0
C544 C 0.6972 0.46164 0.32032 0.0
C545 C 0.66153 0.49663 0.27859 0.0
C546 C 0.67814 0.53 0.29724 0.0
H547 H 0.65547 0.4378 0.27653 0.0
H548 H 0.6382 0.49648 0.25749 0.0
S549 S 0.75212 0.54123 0.37554 0.0
N550 N 0.74242 0.49631 0.36658 0.0
N551 N 0.72539 0.55972 0.34482 0.0
C552 C 0.70753 0.52904 0.32517 0.0
C553 C 0.71662 0.49475 0.33704 0.0
C554 C 0.50532 0.69073 0.31479 0.0
C555 C 0.52272 0.66544 0.29222 0.0
C556 C 0.46442 0.69019 0.3144 0.0
C557 C 0.43924 0.66471 0.29107 0.0
H558 H 0.5232 0.70951 0.33474 0.0
H559 H 0.45246 0.70867 0.33389 0.0
S560 S 0.47032 0.59741 0.22168 0.0
N561 N 0.51189 0.61765 0.24243 0.0
N562 N 0.43499 0.61693 0.2412 0.0
C563 C 0.45637 0.64168 0.26589 0.0
C564 C 0.4981 0.64194 0.26663 0.0
C565 C 0.3198 0.48302 0.37614 0.0
C566 C 0.31413 0.45352 0.34923 0.0
C567 C 0.31556 0.51881 0.36788 0.0
C568 C 0.30569 0.52687 0.33222 0.0
H569 H 0.3288 0.47871 0.40385 0.0
H570 H 0.32155 0.54052 0.3896 0.0
S571 S 0.28297 0.45874 0.25245 0.0
N572 N 0.29437 0.43396 0.28604 0.0
N573 N 0.28665 0.5017 0.27023 0.0
C574 C 0.29735 0.49733 0.30536 0.0
C575 C 0.30152 0.46054 0.31389 0.0
loop_
_geom_bond_atom_site_label_1
_geom_bond_atom_site_label_2
_geom_bond_distance
_geom_bond_site_symmetry_2
_ccdc_geom_bond_type
O0 Cd1 2.223 . S
O0 C8 1.315 . S
Cd1 O0 2.223 . S
Cd1 O4 2.297 . S
Cd1 O5 2.439 . S
Cd1 O11 2.240 . S
Cd2 O3 2.240 . S
Cd2 O10 2.223 . S
Cd2 O12 2.297 . S
Cd2 O13 2.439 . S
O3 Cd2 2.240 . S
O3 C8 1.279 . S
O4 Cd1 2.297 . S
O4 C6 1.247 . S
O5 Cd1 2.439 . S
O5 C6 1.208 . S
C6 O4 1.247 . S
C6 O5 1.208 . S
C7 O12 1.247 . S
C7 O13 1.208 . S
C8 O0 1.315 . S
C8 O3 1.279 . S
C9 O10 1.315 . S
C9 O11 1.279 . S
O10 Cd2 2.223 . S
O10 C9 1.315 . S
O11 Cd1 2.240 . S
O11 C9 1.279 . S
O12 Cd2 2.297 . S
O12 C7 1.247 . S
O13 Cd2 2.439 . S
O13 C7 1.208 . S
O14 Cd15 2.223 . S
O14 C22 1.315 . S
Cd15 O14 2.223 . S
Cd15 O18 2.297 . S
Cd15 O19 2.439 . S
Cd15 O25 2.240 . S
Cd16 O17 2.240 . S
Cd16 O24 2.223 . S
Cd16 O26 2.297 . S
Cd16 O27 2.439 . S
O17 Cd16 2.240 . S
O17 C22 1.279 . S
O18 Cd15 2.297 . S
O18 C20 1.247 . S
O19 Cd15 2.439 . S
O19 C20 1.208 . S
C20 O18 1.247 . S
C20 O19 1.208 . S
C21 O26 1.247 . S
C21 O27 1.208 . S
C22 O14 1.315 . S
C22 O17 1.279 . S
C23 O24 1.315 . S
C23 O25 1.279 . S
O24 Cd16 2.223 . S
O24 C23 1.315 . S
O25 Cd15 2.240 . S
O25 C23 1.279 . S
O26 Cd16 2.297 . S
O26 C21 1.247 . S
O27 Cd16 2.439 . S
O27 C21 1.208 . S
O28 Cd29 2.223 . S
O28 C36 1.315 . S
Cd29 O28 2.223 . S
Cd29 O32 2.297 . S
Cd29 O33 2.439 . S
Cd29 O39 2.240 . S
Cd30 O31 2.240 . S
Cd30 O38 2.223 . S
Cd30 O40 2.297 . S
Cd30 O41 2.439 . S
O31 Cd30 2.240 . S
O31 C36 1.279 . S
O32 Cd29 2.297 . S
O32 C34 1.247 . S
O33 Cd29 2.439 . S
O33 C34 1.208 . S
C34 O32 1.247 . S
C34 O33 1.208 . S
C35 O40 1.247 . S
C35 O41 1.208 . S
C36 O28 1.315 . S
C36 O31 1.279 . S
C37 O38 1.315 . S
C37 O39 1.279 . S
O38 Cd30 2.223 . S
O38 C37 1.315 . S
O39 Cd29 2.240 . S
O39 C37 1.279 . S
O40 Cd30 2.297 . S
O40 C35 1.247 . S
O41 Cd30 2.439 . S
O41 C35 1.208 . S
O42 Cd43 2.223 . S
O42 C50 1.315 . S
Cd43 O42 2.223 . S
Cd43 O46 2.297 . S
Cd43 O47 2.439 . S
Cd43 O53 2.240 . S
Cd44 O45 2.240 . S
Cd44 O52 2.223 . S
Cd44 O54 2.297 . S
Cd44 O55 2.439 . S
O45 Cd44 2.240 . S
O45 C50 1.279 . S
O46 Cd43 2.297 . S
O46 C48 1.247 . S
O47 Cd43 2.439 . S
O47 C48 1.208 . S
C48 O46 1.247 . S
C48 O47 1.208 . S
C49 O54 1.247 . S
C49 O55 1.208 . S
C50 O42 1.315 . S
C50 O45 1.279 . S
C51 O52 1.315 . S
C51 O53 1.279 . S
O52 Cd44 2.223 . S
O52 C51 1.315 . S
O53 Cd43 2.240 . S
O53 C51 1.279 . S
O54 Cd44 2.297 . S
O54 C49 1.247 . S
O55 Cd44 2.439 . S
O55 C49 1.208 . S
O56 Cd57 2.223 . S
O56 C64 1.315 . S
Cd57 O56 2.223 . S
Cd57 O60 2.297 . S
Cd57 O61 2.439 . S
Cd57 O67 2.240 . S
Cd58 O59 2.240 . S
Cd58 O66 2.223 . S
Cd58 O68 2.297 . S
Cd58 O69 2.439 . S
O59 Cd58 2.240 . S
O59 C64 1.279 . S
O60 Cd57 2.297 . S
O60 C62 1.247 . S
O61 Cd57 2.439 . S
O61 C62 1.208 . S
C62 O60 1.247 . S
C62 O61 1.208 . S
C63 O68 1.247 . S
C63 O69 1.208 . S
C64 O56 1.315 . S
C64 O59 1.279 . S
C65 O66 1.315 . S
C65 O67 1.279 . S
O66 Cd58 2.223 . S
O66 C65 1.315 . S
O67 Cd57 2.240 . S
O67 C65 1.279 . S
O68 Cd58 2.297 . S
O68 C63 1.247 . S
O69 Cd58 2.439 . S
O69 C63 1.208 . S
O70 Cd71 2.223 . S
O70 C78 1.315 . S
Cd71 O70 2.223 . S
Cd71 O74 2.297 . S
Cd71 O75 2.439 . S
Cd71 O81 2.240 . S
Cd72 O73 2.240 . S
Cd72 O80 2.223 . S
Cd72 O82 2.297 . S
Cd72 O83 2.439 . S
O73 Cd72 2.240 . S
O73 C78 1.279 . S
O74 Cd71 2.297 . S
O74 C76 1.247 . S
O75 Cd71 2.439 . S
O75 C76 1.208 . S
C76 O74 1.247 . S
C76 O75 1.208 . S
C77 O82 1.247 . S
C77 O83 1.208 . S
C78 O70 1.315 . S
C78 O73 1.279 . S
C79 O80 1.315 . S
C79 O81 1.279 . S
O80 Cd72 2.223 . S
O80 C79 1.315 . S
O81 Cd71 2.240 . S
O81 C79 1.279 . S
O82 Cd72 2.297 . S
O82 C77 1.247 . S
O83 Cd72 2.439 . S
O83 C77 1.208 . S
O84 Cd85 2.223 . S
O84 C92 1.315 . S
Cd85 O84 2.223 . S
Cd85 O88 2.297 . S
Cd85 O89 2.439 . S
Cd85 O95 2.240 . S
Cd86 O87 2.240 . S
Cd86 O94 2.223 . S
Cd86 O96 2.297 . S
Cd86 O97 2.439 . S
O87 Cd86 2.240 . S
O87 C92 1.279 . S
O88 Cd85 2.297 . S
O88 C90 1.247 . S
O89 Cd85 2.439 . S
O89 C90 1.208 . S
C90 O88 1.247 . S
C90 O89 1.208 . S
C91 O96 1.247 . S
C91 O97 1.208 . S
C92 O84 1.315 . S
C92 O87 1.279 . S
C93 O94 1.315 . S
C93 O95 1.279 . S
O94 Cd86 2.223 . S
O94 C93 1.315 . S
O95 Cd85 2.240 . S
O95 C93 1.279 . S
O96 Cd86 2.297 . S
O96 C91 1.247 . S
O97 Cd86 2.439 . S
O97 C91 1.208 . S
O98 Cd99 2.223 . S
O98 C106 1.315 . S
Cd99 O98 2.223 . S
Cd99 O102 2.297 . S
Cd99 O103 2.439 . S
Cd99 O109 2.240 . S
Cd100 O101 2.240 . S
Cd100 O108 2.223 . S
Cd100 O110 2.297 . S
Cd100 O111 2.439 . S
O101 Cd100 2.240 . S
O101 C106 1.279 . S
O102 Cd99 2.297 . S
O102 C104 1.247 . S
O103 Cd99 2.439 . S
O103 C104 1.208 . S
C104 O102 1.247 . S
C104 O103 1.208 . S
C105 O110 1.247 . S
C105 O111 1.208 . S
C106 O98 1.315 . S
C106 O101 1.279 . S
C107 O108 1.315 . S
C107 O109 1.279 . S
O108 Cd100 2.223 . S
O108 C107 1.315 . S
O109 Cd99 2.240 . S
O109 C107 1.279 . S
O110 Cd100 2.297 . S
O110 C105 1.247 . S
O111 Cd100 2.439 . S
O111 C105 1.208 . S
O112 Cd113 2.223 . S
O112 C120 1.315 . S
Cd113 O112 2.223 . S
Cd113 O116 2.297 . S
Cd113 O117 2.439 . S
Cd113 O123 2.240 . S
Cd114 O115 2.240 . S
Cd114 O122 2.223 . S
Cd114 O124 2.297 . S
Cd114 O125 2.439 . S
O115 Cd114 2.240 . S
O115 C120 1.279 . S
O116 Cd113 2.297 . S
O116 C118 1.247 . S
O117 Cd113 2.439 . S
O117 C118 1.208 . S
C118 O116 1.247 . S
C118 O117 1.208 . S
C119 O124 1.247 . S
C119 O125 1.208 . S
C120 O112 1.315 . S
C120 O115 1.279 . S
C121 O122 1.315 . S
C121 O123 1.279 . S
O122 Cd114 2.223 . S
O122 C121 1.315 . S
O123 Cd113 2.240 . S
O123 C121 1.279 . S
O124 Cd114 2.297 . S
O124 C119 1.247 . S
O125 Cd114 2.439 . S
O125 C119 1.208 . S
O126 Cd127 2.223 . S
O126 C134 1.315 . S
Cd127 O126 2.223 . S
Cd127 O130 2.297 . S
Cd127 O131 2.439 . S
Cd127 O137 2.240 . S
Cd128 O129 2.240 . S
Cd128 O136 2.223 . S
Cd128 O138 2.297 . S
Cd128 O139 2.439 . S
O129 Cd128 2.240 . S
O129 C134 1.279 . S
O130 Cd127 2.297 . S
O130 C132 1.247 . S
O131 Cd127 2.439 . S
O131 C132 1.208 . S
C132 O130 1.247 . S
C132 O131 1.208 . S
C133 O138 1.247 . S
C133 O139 1.208 . S
C134 O126 1.315 . S
C134 O129 1.279 . S
C135 O136 1.315 . S
C135 O137 1.279 . S
O136 Cd128 2.223 . S
O136 C135 1.315 . S
O137 Cd127 2.240 . S
O137 C135 1.279 . S
O138 Cd128 2.297 . S
O138 C133 1.247 . S
O139 Cd128 2.439 . S
O139 C133 1.208 . S
O140 Cd141 2.223 . S
O140 C148 1.315 . S
Cd141 O140 2.223 . S
Cd141 O144 2.297 . S
Cd141 O145 2.439 . S
Cd141 O151 2.240 . S
Cd142 O143 2.240 . S
Cd142 O150 2.223 . S
Cd142 O152 2.297 . S
Cd142 O153 2.439 . S
O143 Cd142 2.240 . S
O143 C148 1.279 . S
O144 Cd141 2.297 . S
O144 C146 1.247 . S
O145 Cd141 2.439 . S
O145 C146 1.208 . S
C146 O144 1.247 . S
C146 O145 1.208 . S
C147 O152 1.247 . S
C147 O153 1.208 . S
C148 O140 1.315 . S
C148 O143 1.279 . S
C149 O150 1.315 . S
C149 O151 1.279 . S
O150 Cd142 2.223 . S
O150 C149 1.315 . S
O151 Cd141 2.240 . S
O151 C149 1.279 . S
O152 Cd142 2.297 . S
O152 C147 1.247 . S
O153 Cd142 2.439 . S
O153 C147 1.208 . S
O154 Cd155 2.223 . S
O154 C162 1.315 . S
Cd155 O154 2.223 . S
Cd155 O158 2.297 . S
Cd155 O159 2.439 . S
Cd155 O165 2.240 . S
Cd156 O157 2.240 . S
Cd156 O164 2.223 . S
Cd156 O166 2.297 . S
Cd156 O167 2.439 . S
O157 Cd156 2.240 . S
O157 C162 1.279 . S
O158 Cd155 2.297 . S
O158 C160 1.247 . S
O159 Cd155 2.439 . S
O159 C160 1.208 . S
C160 O158 1.247 . S
C160 O159 1.208 . S
C161 O166 1.247 . S
C161 O167 1.208 . S
C162 O154 1.315 . S
C162 O157 1.279 . S
C163 O164 1.315 . S
C163 O165 1.279 . S
O164 Cd156 2.223 . S
O164 C163 1.315 . S
O165 Cd155 2.240 . S
O165 C163 1.279 . S
O166 Cd156 2.297 . S
O166 C161 1.247 . S
O167 Cd156 2.439 . S
O167 C161 1.208 . S
O168 Cd169 2.223 . S
O168 C176 1.315 . S
Cd169 O168 2.223 . S
Cd169 O172 2.297 . S
Cd169 O173 2.439 . S
Cd169 O179 2.240 . S
Cd170 O171 2.240 . S
Cd170 O178 2.223 . S
Cd170 O180 2.297 . S
Cd170 O181 2.439 . S
O171 Cd170 2.240 . S
O171 C176 1.279 . S
O172 Cd169 2.297 . S
O172 C174 1.247 . S
O173 Cd169 2.439 . S
O173 C174 1.208 . S
C174 O172 1.247 . S
C174 O173 1.208 . S
C175 O180 1.247 . S
C175 O181 1.208 . S
C176 O168 1.315 . S
C176 O171 1.279 . S
C177 O178 1.315 . S
C177 O179 1.279 . S
O178 Cd170 2.223 . S
O178 C177 1.315 . S
O179 Cd169 2.240 . S
O179 C177 1.279 . S
O180 Cd170 2.297 . S
O180 C175 1.247 . S
O181 Cd170 2.439 . S
O181 C175 1.208 . S
O182 Cd183 2.223 . S
O182 C190 1.315 . S
Cd183 O182 2.223 . S
Cd183 O186 2.297 . S
Cd183 O187 2.439 . S
Cd183 O193 2.240 . S
Cd184 O185 2.240 . S
Cd184 O192 2.223 . S
Cd184 O194 2.297 . S
Cd184 O195 2.439 . S
O185 Cd184 2.240 . S
O185 C190 1.279 . S
O186 Cd183 2.297 . S
O186 C188 1.247 . S
O187 Cd183 2.439 . S
O187 C188 1.208 . S
C188 O186 1.247 . S
C188 O187 1.208 . S
C189 O194 1.247 . S
C189 O195 1.208 . S
C190 O182 1.315 . S
C190 O185 1.279 . S
C191 O192 1.315 . S
C191 O193 1.279 . S
O192 Cd184 2.223 . S
O192 C191 1.315 . S
O193 Cd183 2.240 . S
O193 C191 1.279 . S
O194 Cd184 2.297 . S
O194 C189 1.247 . S
O195 Cd184 2.439 . S
O195 C189 1.208 . S
O196 Cd197 2.223 . S
O196 C204 1.315 . S
Cd197 O196 2.223 . S
Cd197 O200 2.297 . S
Cd197 O201 2.439 . S
Cd197 O207 2.240 . S
Cd198 O199 2.240 . S
Cd198 O206 2.223 . S
Cd198 O208 2.297 . S
Cd198 O209 2.439 . S
O199 Cd198 2.240 . S
O199 C204 1.279 . S
O200 Cd197 2.297 . S
O200 C202 1.247 . S
O201 Cd197 2.439 . S
O201 C202 1.208 . S
C202 O200 1.247 . S
C202 O201 1.208 . S
C203 O208 1.247 . S
C203 O209 1.208 . S
C204 O196 1.315 . S
C204 O199 1.279 . S
C205 O206 1.315 . S
C205 O207 1.279 . S
O206 Cd198 2.223 . S
O206 C205 1.315 . S
O207 Cd197 2.240 . S
O207 C205 1.279 . S
O208 Cd198 2.297 . S
O208 C203 1.247 . S
O209 Cd198 2.439 . S
O209 C203 1.208 . S
O210 Cd211 2.223 . S
O210 C218 1.315 . S
Cd211 O210 2.223 . S
Cd211 O214 2.297 . S
Cd211 O215 2.439 . S
Cd211 O221 2.240 . S
Cd212 O213 2.240 . S
Cd212 O220 2.223 . S
Cd212 O222 2.297 . S
Cd212 O223 2.439 . S
O213 Cd212 2.240 . S
O213 C218 1.279 . S
O214 Cd211 2.297 . S
O214 C216 1.247 . S
O215 Cd211 2.439 . S
O215 C216 1.208 . S
C216 O214 1.247 . S
C216 O215 1.208 . S
C217 O222 1.247 . S
C217 O223 1.208 . S
C218 O210 1.315 . S
C218 O213 1.279 . S
C219 O220 1.315 . S
C219 O221 1.279 . S
O220 Cd212 2.223 . S
O220 C219 1.315 . S
O221 Cd211 2.240 . S
O221 C219 1.279 . S
O222 Cd212 2.297 . S
O222 C217 1.247 . S
O223 Cd212 2.439 . S
O223 C217 1.208 . S
C224 C225 1.369 . S
C224 C226 1.419 . S
C224 H228 0.930 . S
C225 C224 1.369 . S
C225 C234 1.429 . S
C226 C224 1.419 . S
C226 C227 1.363 . S
C226 H229 0.929 . S
C227 C226 1.363 . S
C227 C233 1.428 . S
H228 C224 0.930 . S
H229 C226 0.929 . S
S230 N231 1.613 . S
S230 N232 1.610 . S
N231 S230 1.613 . S
N231 C234 1.350 . S
N232 S230 1.610 . S
N232 C233 1.351 . S
C233 C227 1.428 . S
C233 N232 1.351 . S
C233 C234 1.434 . S
C234 C225 1.429 . S
C234 N231 1.350 . S
C234 C233 1.434 . S
C235 C236 1.369 . S
C235 C237 1.419 . S
C235 H239 0.930 . S
C236 C235 1.369 . S
C236 C245 1.429 . S
C237 C235 1.419 . S
C237 C238 1.363 . S
C237 H240 0.929 . S
C238 C237 1.363 . S
C238 C244 1.428 . S
H239 C235 0.930 . S
H240 C237 0.929 . S
S241 N242 1.613 . S
S241 N243 1.610 . S
N242 S241 1.613 . S
N242 C245 1.350 . S
N243 S241 1.610 . S
N243 C244 1.351 . S
C244 C238 1.428 . S
C244 N243 1.351 . S
C244 C245 1.434 . S
C245 C236 1.429 . S
C245 N242 1.350 . S
C245 C244 1.434 . S
C246 C247 1.369 . S
C246 C248 1.419 . S
C246 H250 0.930 . S
C247 C246 1.369 . S
C247 C256 1.429 . S
C248 C246 1.419 . S
C248 C249 1.363 . S
C248 H251 0.929 . S
C249 C248 1.363 . S
C249 C255 1.428 . S
H250 C246 0.930 . S
H251 C248 0.929 . S
S252 N253 1.613 . S
S252 N254 1.610 . S
N253 S252 1.613 . S
N253 C256 1.350 . S
N254 S252 1.610 . S
N254 C255 1.351 . S
C255 C249 1.428 . S
C255 N254 1.351 . S
C255 C256 1.434 . S
C256 C247 1.429 . S
C256 N253 1.350 . S
C256 C255 1.434 . S
C257 C258 1.369 . S
C257 C259 1.419 . S
C257 H261 0.930 . S
C258 C257 1.369 . S
C258 C267 1.429 . S
C259 C257 1.419 . S
C259 C260 1.363 . S
C259 H262 0.929 . S
C260 C259 1.363 . S
C260 C266 1.428 . S
H261 C257 0.930 . S
H262 C259 0.929 . S
S263 N264 1.613 . S
S263 N265 1.610 . S
N264 S263 1.613 . S
N264 C267 1.350 . S
N265 S263 1.610 . S
N265 C266 1.351 . S
C266 C260 1.428 . S
C266 N265 1.351 . S
C266 C267 1.434 . S
C267 C258 1.429 . S
C267 N264 1.350 . S
C267 C266 1.434 . S
C268 C269 1.369 . S
C268 C270 1.419 . S
C268 H272 0.930 . S
C269 C268 1.369 . S
C269 C278 1.429 . S
C270 C268 1.419 . S
C270 C271 1.363 . S
C270 H273 0.929 . S
C271 C270 1.363 . S
C271 C277 1.428 . S
H272 C268 0.930 . S
H273 C270 0.929 . S
S274 N275 1.613 . S
S274 N276 1.610 . S
N275 S274 1.613 . S
N275 C278 1.350 . S
N276 S274 1.610 . S
N276 C277 1.351 . S
C277 C271 1.428 . S
C277 N276 1.351 . S
C277 C278 1.434 . S
C278 C269 1.429 . S
C278 N275 1.350 . S
C278 C277 1.434 . S
C279 C280 1.369 . S
C279 C281 1.419 . S
C279 H283 0.930 . S
C280 C279 1.369 . S
C280 C289 1.429 . S
C281 C279 1.419 . S
C281 C282 1.363 . S
C281 H284 0.929 . S
C282 C281 1.363 . S
C282 C288 1.428 . S
H283 C279 0.930 . S
H284 C281 0.929 . S
S285 N286 1.613 . S
S285 N287 1.610 . S
N286 S285 1.613 . S
N286 C289 1.350 . S
N287 S285 1.610 . S
N287 C288 1.351 . S
C288 C282 1.428 . S
C288 N287 1.351 . S
C288 C289 1.434 . S
C289 C280 1.429 . S
C289 N286 1.350 . S
C289 C288 1.434 . S
C290 C291 1.369 . S
C290 C292 1.419 . S
C290 H294 0.930 . S
C291 C290 1.369 . S
C291 C300 1.429 . S
C292 C290 1.419 . S
C292 C293 1.363 . S
C292 H295 0.929 . S
C293 C292 1.363 . S
C293 C299 1.428 . S
H294 C290 0.930 . S
H295 C292 0.929 . S
S296 N297 1.613 . S
S296 N298 1.610 . S
N297 S296 1.613 . S
N297 C300 1.350 . S
N298 S296 1.610 . S
N298 C299 1.351 . S
C299 C293 1.428 . S
C299 N298 1.351 . S
C299 C300 1.434 . S
C300 C291 1.429 . S
C300 N297 1.350 . S
C300 C299 1.434 . S
C301 C302 1.369 . S
C301 C303 1.419 . S
C301 H305 0.930 . S
C302 C301 1.369 . S
C302 C311 1.429 . S
C303 C301 1.419 . S
C303 C304 1.363 . S
C303 H306 0.929 . S
C304 C303 1.363 . S
C304 C310 1.428 . S
H305 C301 0.930 . S
H306 C303 0.929 . S
S307 N308 1.613 . S
S307 N309 1.610 . S
N308 S307 1.613 . S
N308 C311 1.350 . S
N309 S307 1.610 . S
N309 C310 1.351 . S
C310 C304 1.428 . S
C310 N309 1.351 . S
C310 C311 1.434 . S
C311 C302 1.429 . S
C311 N308 1.350 . S
C311 C310 1.434 . S
C312 C313 1.369 . S
C312 C314 1.419 . S
C312 H316 0.930 . S
C313 C312 1.369 . S
C313 C322 1.429 . S
C314 C312 1.419 . S
C314 C315 1.363 . S
C314 H317 0.927 1_556 S
C315 C314 1.363 . S
C315 C321 1.428 . S
H316 C312 0.930 . S
H317 C314 0.927 1_554 S
S318 N319 1.613 . S
S318 N320 1.610 . S
N319 S318 1.613 . S
N319 C322 1.350 . S
N320 S318 1.610 . S
N320 C321 1.351 . S
C321 C315 1.428 . S
C321 N320 1.351 . S
C321 C322 1.434 . S
C322 C313 1.429 . S
C322 N319 1.350 . S
C322 C321 1.434 . S
C323 C324 1.369 1_554 S
C323 C325 1.419 . S
C323 H327 0.930 . S
C324 C323 1.369 1_556 S
C324 C333 1.429 1_556 S
C325 C323 1.419 . S
C325 C326 1.363 . S
C325 H328 0.929 . S
C326 C325 1.363 . S
C326 C332 1.428 . S
H327 C323 0.930 . S
H328 C325 0.929 . S
S329 N330 1.613 1_554 S
S329 N331 1.610 . S
N330 S329 1.613 1_556 S
N330 C333 1.350 1_556 S
N331 S329 1.610 . S
N331 C332 1.351 . S
C332 C326 1.428 . S
C332 N331 1.351 . S
C332 C333 1.434 . S
C333 C324 1.429 1_554 S
C333 N330 1.350 1_554 S
C333 C332 1.434 . S
C334 C335 1.369 . S
C334 C336 1.419 1_556 S
C334 H338 0.930 . S
C335 C334 1.369 . S
C335 C344 1.429 . S
C336 C334 1.419 1_554 S
C336 C337 1.363 . S
C336 H339 0.929 . S
C337 C336 1.363 . S
C337 C343 1.428 . S
H338 C334 0.930 . S
H339 C336 0.929 . S
S340 N341 1.613 1_554 S
S340 N342 1.610 . S
N341 S340 1.613 1_556 S
N341 C344 1.350 . S
N342 S340 1.610 . S
N342 C343 1.351 . S
C343 C337 1.428 . S
C343 N342 1.351 . S
C343 C344 1.434 1_554 S
C344 C335 1.429 . S
C344 N341 1.350 . S
C344 C343 1.434 1_556 S
C345 C346 1.369 . S
C345 C347 1.419 1_554 S
C345 H349 0.930 . S
C346 C345 1.369 . S
C346 C355 1.429 . S
C347 C345 1.419 1_556 S
C347 C348 1.363 . S
C347 H350 0.929 . S
C348 C347 1.363 . S
C348 C354 1.428 . S
H349 C345 0.930 . S
H350 C347 0.929 . S
S351 N352 1.613 1_556 S
S351 N353 1.610 . S
N352 S351 1.613 1_554 S
N352 C355 1.350 . S
N353 S351 1.610 . S
N353 C354 1.351 . S
C354 C348 1.428 . S
C354 N353 1.351 . S
C354 C355 1.434 1_556 S
C355 C346 1.429 . S
C355 N352 1.350 . S
C355 C354 1.434 1_554 S
C356 C357 1.369 . S
C356 C358 1.419 . S
C356 H360 0.930 . S
C357 C356 1.369 . S
C357 C366 1.429 . S
C358 C356 1.419 . S
C358 C359 1.363 1_455 S
C358 H361 0.929 . S
C359 C358 1.363 1_655 S
C359 C365 1.428 1_655 S
H360 C356 0.930 . S
H361 C358 0.929 . S
S362 N363 1.613 . S
S362 N364 1.610 1_455 S
N363 S362 1.613 . S
N363 C366 1.350 . S
N364 S362 1.610 1_655 S
N364 C365 1.351 1_655 S
C365 C359 1.428 1_455 S
C365 N364 1.351 1_455 S
C365 C366 1.434 . S
C366 C357 1.429 . S
C366 N363 1.350 . S
C366 C365 1.434 . S
C367 C368 1.369 1_545 S
C367 C369 1.419 . S
C367 H371 0.930 1_545 S
C368 C367 1.369 1_565 S
C368 C377 1.425 1_565 S
C369 C367 1.419 . S
C369 C370 1.363 . S
C369 H372 0.929 . S
C370 C369 1.363 . S
C370 C376 1.428 . S
H371 C367 0.930 1_565 S
H372 C369 0.929 . S
S373 N374 1.613 1_545 S
S373 N375 1.610 . S
N374 S373 1.613 1_565 S
N374 C377 1.341 1_565 S
N375 S373 1.610 . S
N375 C376 1.351 . S
C376 C370 1.428 . S
C376 N375 1.351 . S
C376 C377 1.447 . S
C377 C368 1.425 1_545 S
C377 N374 1.341 1_545 S
C377 C376 1.447 . S
C378 C379 1.369 . S
C378 C380 1.419 . S
C378 H382 0.930 . S
C379 C378 1.369 . S
C379 C388 1.429 . S
C380 C378 1.419 . S
C380 C381 1.363 1_655 S
C380 H383 0.929 . S
C381 C380 1.363 1_455 S
C381 C387 1.428 . S
H382 C378 0.930 . S
H383 C380 0.929 . S
S384 N385 1.613 1_455 S
S384 N386 1.610 . S
N385 S384 1.613 1_655 S
N385 C388 1.350 . S
N386 S384 1.610 . S
N386 C387 1.351 . S
C387 C381 1.428 . S
C387 N386 1.351 . S
C387 C388 1.434 1_455 S
C388 C379 1.429 . S
C388 N385 1.350 . S
C388 C387 1.434 1_655 S
C389 C390 1.369 . S
C389 C391 1.419 1_545 S
C389 H393 0.930 . S
C390 C389 1.369 . S
C390 C399 1.429 1_545 S
C391 C389 1.419 1_565 S
C391 C392 1.363 . S
C391 H394 0.929 . S
C392 C391 1.363 . S
C392 C398 1.428 . S
H393 C389 0.930 . S
H394 C391 0.929 . S
S395 N396 1.613 . S
S395 N397 1.610 . S
N396 S395 1.613 . S
N396 C399 1.350 . S
N397 S395 1.610 . S
N397 C398 1.351 . S
C398 C392 1.428 . S
C398 N397 1.351 . S
C398 C399 1.434 . S
C399 C390 1.429 1_565 S
C399 N396 1.350 . S
C399 C398 1.434 . S
C400 C401 1.369 . S
C400 C402 1.419 . S
C400 H404 0.930 . S
C401 C400 1.369 . S
C401 C410 1.429 . S
C402 C400 1.419 . S
C402 C403 1.363 . S
C402 H405 0.929 1_655 S
C403 C402 1.363 . S
C403 C409 1.428 . S
H404 C400 0.930 . S
H405 C402 0.929 1_455 S
S406 N407 1.613 . S
S406 N408 1.610 . S
N407 S406 1.613 . S
N407 C410 1.350 . S
N408 S406 1.610 . S
N408 C409 1.351 . S
C409 C403 1.428 . S
C409 N408 1.351 . S
C409 C410 1.434 . S
C410 C401 1.429 . S
C410 N407 1.350 . S
C410 C409 1.434 . S
C411 C412 1.369 . S
C411 C413 1.419 . S
C411 H415 0.930 . S
C412 C411 1.369 . S
C412 C421 1.429 . S
C413 C411 1.419 . S
C413 C414 1.363 . S
C413 H416 0.929 . S
C414 C413 1.363 . S
C414 C420 1.428 . S
H415 C411 0.930 . S
H416 C413 0.929 . S
S417 N418 1.613 . S
S417 N419 1.610 . S
N418 S417 1.613 . S
N418 C421 1.350 . S
N419 S417 1.610 . S
N419 C420 1.351 . S
C420 C414 1.428 . S
C420 N419 1.351 . S
C420 C421 1.434 . S
C421 C412 1.429 . S
C421 N418 1.350 . S
C421 C420 1.434 . S
C422 C423 1.369 . S
C422 C424 1.419 1_455 S
C422 H426 0.930 . S
C423 C422 1.369 . S
C423 C432 1.429 . S
C424 C422 1.419 1_655 S
C424 C425 1.363 . S
C424 H427 0.929 . S
C425 C424 1.363 . S
C425 C431 1.428 1_655 S
H426 C422 0.930 . S
H427 C424 0.929 . S
S428 N429 1.613 . S
S428 N430 1.610 1_455 S
N429 S428 1.613 . S
N429 C432 1.350 . S
N430 S428 1.610 1_655 S
N430 C431 1.351 1_655 S
C431 C425 1.428 1_455 S
C431 N430 1.351 1_455 S
C431 C432 1.434 . S
C432 C423 1.429 . S
C432 N429 1.350 . S
C432 C431 1.434 . S
C433 C434 1.369 . S
C433 C435 1.419 . S
C433 H437 0.930 . S
C434 C433 1.369 . S
C434 C443 1.429 . S
C435 C433 1.419 . S
C435 C436 1.363 . S
C435 H438 0.929 . S
C436 C435 1.363 . S
C436 C442 1.428 . S
H437 C433 0.930 . S
H438 C435 0.929 . S
S439 N440 1.613 . S
S439 N441 1.610 . S
N440 S439 1.613 . S
N440 C443 1.350 . S
N441 S439 1.610 . S
N441 C442 1.351 . S
C442 C436 1.428 . S
C442 N441 1.351 . S
C442 C443 1.434 . S
C443 C434 1.429 . S
C443 N440 1.350 . S
C443 C442 1.434 . S
C444 C445 1.369 . S
C444 C446 1.419 . S
C444 H448 0.930 . S
C445 C444 1.369 . S
C445 C454 1.429 . S
C446 C444 1.419 . S
C446 C447 1.363 . S
C446 H449 0.929 . S
C447 C446 1.363 . S
C447 C453 1.428 . S
H448 C444 0.930 . S
H449 C446 0.929 . S
S450 N451 1.613 . S
S450 N452 1.610 . S
N451 S450 1.613 . S
N451 C454 1.350 . S
N452 S450 1.610 . S
N452 C453 1.351 . S
C453 C447 1.428 . S
C453 N452 1.351 . S
C453 C454 1.434 . S
C454 C445 1.429 . S
C454 N451 1.350 . S
C454 C453 1.434 . S
C455 C456 1.369 . S
C455 C457 1.419 . S
C455 H459 0.930 . S
C456 C455 1.369 . S
C456 C465 1.429 . S
C457 C455 1.419 . S
C457 C458 1.363 . S
C457 H460 0.929 . S
C458 C457 1.363 . S
C458 C464 1.428 . S
H459 C455 0.930 . S
H460 C457 0.929 . S
S461 N462 1.613 . S
S461 N463 1.610 . S
N462 S461 1.613 . S
N462 C465 1.350 . S
N463 S461 1.610 . S
N463 C464 1.351 . S
C464 C458 1.428 . S
C464 N463 1.351 . S
C464 C465 1.434 . S
C465 C456 1.429 . S
C465 N462 1.350 . S
C465 C464 1.434 . S
C466 C467 1.369 . S
C466 C468 1.419 . S
C466 H470 0.930 . S
C467 C466 1.369 . S
C467 C476 1.429 . S
C468 C466 1.419 . S
C468 C469 1.363 . S
C468 H471 0.929 . S
C469 C468 1.363 . S
C469 C475 1.428 . S
H470 C466 0.930 . S
H471 C468 0.929 . S
S472 N473 1.613 . S
S472 N474 1.610 . S
N473 S472 1.613 . S
N473 C476 1.350 . S
N474 S472 1.610 . S
N474 C475 1.351 . S
C475 C469 1.428 . S
C475 N474 1.351 . S
C475 C476 1.434 . S
C476 C467 1.429 . S
C476 N473 1.350 . S
C476 C475 1.434 . S
C477 C478 1.369 . S
C477 C479 1.419 . S
C477 H481 0.930 . S
C478 C477 1.369 . S
C478 C487 1.429 . S
C479 C477 1.419 . S
C479 C480 1.363 . S
C479 H482 0.929 . S
C480 C479 1.363 . S
C480 C486 1.428 . S
H481 C477 0.930 . S
H482 C479 0.929 . S
S483 N484 1.613 . S
S483 N485 1.610 . S
N484 S483 1.613 . S
N484 C487 1.350 . S
N485 S483 1.610 . S
N485 C486 1.351 . S
C486 C480 1.428 . S
C486 N485 1.351 . S
C486 C487 1.434 . S
C487 C478 1.429 . S
C487 N484 1.350 . S
C487 C486 1.434 . S
C488 C489 1.369 . S
C488 C490 1.419 . S
C488 H492 0.930 . S
C489 C488 1.369 . S
C489 C498 1.429 . S
C490 C488 1.419 . S
C490 C491 1.363 . S
C490 H493 0.929 . S
C491 C490 1.363 . S
C491 C497 1.428 . S
H492 C488 0.930 . S
H493 C490 0.929 . S
S494 N495 1.613 . S
S494 N496 1.610 . S
N495 S494 1.613 . S
N495 C498 1.350 . S
N496 S494 1.610 . S
N496 C497 1.351 . S
C497 C491 1.428 . S
C497 N496 1.351 . S
C497 C498 1.434 . S
C498 C489 1.429 . S
C498 N495 1.350 . S
C498 C497 1.434 . S
C499 C500 1.369 . S
C499 C501 1.419 . S
C499 H503 0.930 . S
C500 C499 1.369 . S
C500 C509 1.429 . S
C501 C499 1.419 . S
C501 C502 1.363 . S
C501 H504 0.929 . S
C502 C501 1.363 . S
C502 C508 1.428 . S
H503 C499 0.930 . S
H504 C501 0.929 . S
S505 N506 1.613 . S
S505 N507 1.610 . S
N506 S505 1.613 . S
N506 C509 1.350 . S
N507 S505 1.610 . S
N507 C508 1.351 . S
C508 C502 1.428 . S
C508 N507 1.351 . S
C508 C509 1.434 . S
C509 C500 1.429 . S
C509 N506 1.350 . S
C509 C508 1.434 . S
C510 C511 1.369 . S
C510 C512 1.419 . S
C510 H514 0.930 . S
C511 C510 1.369 . S
C511 C520 1.429 . S
C512 C510 1.419 . S
C512 C513 1.363 . S
C512 H515 0.929 . S
C513 C512 1.363 . S
C513 C519 1.428 . S
H514 C510 0.930 . S
H515 C512 0.929 . S
S516 N517 1.613 . S
S516 N518 1.610 . S
N517 S516 1.613 . S
N517 C520 1.350 . S
N518 S516 1.610 . S
N518 C519 1.351 . S
C519 C513 1.428 . S
C519 N518 1.351 . S
C519 C520 1.434 . S
C520 C511 1.429 . S
C520 N517 1.350 . S
C520 C519 1.434 . S
C521 C522 1.369 . S
C521 C523 1.419 . S
C521 H525 0.930 . S
C522 C521 1.369 . S
C522 C531 1.429 . S
C523 C521 1.419 . S
C523 C524 1.363 . S
C523 H526 0.929 . S
C524 C523 1.363 . S
C524 C530 1.428 . S
H525 C521 0.930 . S
H526 C523 0.929 . S
S527 N528 1.613 . S
S527 N529 1.610 . S
N528 S527 1.613 . S
N528 C531 1.350 . S
N529 S527 1.610 . S
N529 C530 1.351 . S
C530 C524 1.428 . S
C530 N529 1.351 . S
C530 C531 1.434 . S
C531 C522 1.429 . S
C531 N528 1.350 . S
C531 C530 1.434 . S
C532 C533 1.369 . S
C532 C534 1.419 . S
C532 H536 0.930 . S
C533 C532 1.369 . S
C533 C542 1.429 . S
C534 C532 1.419 . S
C534 C535 1.363 . S
C534 H537 0.929 . S
C535 C534 1.363 . S
C535 C541 1.428 . S
H536 C532 0.930 . S
H537 C534 0.929 . S
S538 N539 1.613 . S
S538 N540 1.610 . S
N539 S538 1.613 . S
N539 C542 1.350 . S
N540 S538 1.610 . S
N540 C541 1.351 . S
C541 C535 1.428 . S
C541 N540 1.351 . S
C541 C542 1.434 . S
C542 C533 1.429 . S
C542 N539 1.350 . S
C542 C541 1.434 . S
C543 C544 1.369 . S
C543 C545 1.419 . S
C543 H547 0.930 . S
C544 C543 1.369 . S
C544 C553 1.429 . S
C545 C543 1.419 . S
C545 C546 1.363 . S
C545 H548 0.929 . S
C546 C545 1.363 . S
C546 C552 1.428 . S
H547 C543 0.930 . S
H548 C545 0.929 . S
S549 N550 1.613 . S
S549 N551 1.610 . S
N550 S549 1.613 . S
N550 C553 1.350 . S
N551 S549 1.610 . S
N551 C552 1.351 . S
C552 C546 1.428 . S
C552 N551 1.351 . S
C552 C553 1.434 . S
C553 C544 1.429 . S
C553 N550 1.350 . S
C553 C552 1.434 . S
C554 C555 1.369 . S
C554 C556 1.419 . S
C554 H558 0.930 . S
C555 C554 1.369 . S
C555 C564 1.429 . S
C556 C554 1.419 . S
C556 C557 1.363 . S
C556 H559 0.929 . S
C557 C556 1.363 . S
C557 C563 1.428 . S
H558 C554 0.930 . S
H559 C556 0.929 . S
S560 N561 1.613 . S
S560 N562 1.610 . S
N561 S560 1.613 . S
N561 C564 1.350 . S
N562 S560 1.610 . S
N562 C563 1.351 . S
C563 C557 1.428 . S
C563 N562 1.351 . S
C563 C564 1.434 . S
C564 C555 1.429 . S
C564 N561 1.350 . S
C564 C563 1.434 . S
C565 C566 1.369 . S
C565 C567 1.419 . S
C565 H569 0.930 . S
C566 C565 1.369 . S
C566 C575 1.429 . S
C567 C565 1.419 . S
C567 C568 1.363 . S
C567 H570 0.929 . S
C568 C567 1.363 . S
C568 C574 1.428 . S
H569 C565 0.930 . S
H570 C567 0.929 . S
S571 N572 1.613 . S
S571 N573 1.610 . S
N572 S571 1.613 . S
N572 C575 1.350 . S
N573 S571 1.610 . S
N573 C574 1.351 . S
C574 C568 1.428 . S
C574 N573 1.351 . S
C574 C575 1.434 . S
C575 C566 1.429 . S
C575 N572 1.350 . S
C575 C574 1.434 . S
C225 C216 1.231 . S
C227 C6 1.279 . S
C236 C174 1.366 . S
C238 C20 1.360 . S
C247 C34 1.412 . S
C249 C188 1.255 . S
C258 C202 1.365 . S
C260 C48 1.519 . S
C269 C132 1.358 . S
C271 C62 1.367 . S
C280 C76 1.251 . S
C282 C146 1.413 . S
C291 C90 1.378 . S
C293 C160 1.517 . S
C302 C104 1.225 . S
C304 C118 1.280 . S
C313 C79 2.000 . S
C315 C7 1.813 1_556 S
C324 C91 1.379 . S
C326 C21 1.435 . S
C335 C107 1.589 . S
C337 C35 1.363 . S
C346 C49 1.531 . S
C348 C64 1.684 . S
C357 C8 1.384 . S
C359 C23 1.328 . S
C368 C37 1.528 . S
C370 C22 1.522 . S
C379 C36 1.562 . S
C381 C51 1.592 . S
C390 C9 1.811 . S
C392 C50 1.783 . S
C401 C106 1.580 . S
C403 C65 1.477 1_655 S
C412 C63 1.398 . S
C414 C77 1.311 1_565 S
C423 C78 1.600 . S
C425 C92 1.581 . S
C434 C105 1.588 1_545 S
C436 C93 1.806 . S
C445 C191 2.004 . S
C447 C119 1.809 . S
C456 C133 1.433 . S
C458 C203 1.380 . S
C467 C219 1.586 . S
C469 C147 1.370 . S
C478 C176 1.684 . S
C480 C161 1.533 . S
C489 C120 1.387 . S
C491 C135 1.327 . S
C500 C134 1.522 . S
C502 C149 1.527 . S
C511 C163 1.592 . S
C513 C148 1.555 . S
C522 C121 1.811 . S
C524 C162 1.783 . S
C533 C218 1.584 . S
C535 C177 1.469 . S
C544 C175 1.398 . S
C546 C189 1.311 . S
C555 C190 1.602 . S
C557 C204 1.577 . S
C566 C217 1.601 . S
C568 C205 1.803 . S
