# Generated by pormake.
# Topology wiv, (6)-cn, num edge types: 1
# Building blocks:
#     Node 0, Type 0, BuildingBlock: CUKXOW_clean_sbu_0, # of connection points: 6
#     Node 1, Type 0, BuildingBlock: CUKXOW_clean_sbu_0, # of connection points: 6
#     Node 2, Type 0, BuildingBlock: CUKXOW_clean_sbu_0, # of connection points: 6
#     Node 3, Type 0, BuildingBlock: CUKXOW_clean_sbu_0, # of connection points: 6
#     Node 4, Type 0, BuildingBlock: CUKXOW_clean_sbu_0, # of connection points: 6
#     Node 5, Type 0, BuildingBlock: CUKXOW_clean_sbu_0, # of connection points: 6
#     Node 6, Type 0, BuildingBlock: CUKXOW_clean_sbu_0, # of connection points: 6
#     Node 7, Type 0, BuildingBlock: CUKXOW_clean_sbu_0, # of connection points: 6
#     Node 8, Type 0, BuildingBlock: CUKXOW_clean_sbu_0, # of connection points: 6
#     Node 9, Type 0, BuildingBlock: CUKXOW_clean_sbu_0, # of connection points: 6
#     Node 10, Type 0, BuildingBlock: CUKXOW_clean_sbu_0, # of connection points: 6
#     Node 11, Type 0, BuildingBlock: CUKXOW_clean_sbu_0, # of connection points: 6
#     Node 12, Type 0, BuildingBlock: CUKXOW_clean_sbu_0, # of connection points: 6
#     Node 13, Type 0, BuildingBlock: CUKXOW_clean_sbu_0, # of connection points: 6
#     Node 14, Type 0, BuildingBlock: CUKXOW_clean_sbu_0, # of connection points: 6
#     Node 15, Type 0, BuildingBlock: CUKXOW_clean_sbu_0, # of connection points: 6
#     Edge 16, Type (0, 0), BuildingBlock: TEMPAE_clean_linker_10, # of connection points: 2
#     Edge 17, Type (0, 0), BuildingBlock: TEMPAE_clean_linker_10, # of connection points: 2
#     Edge 18, Type (0, 0), BuildingBlock: TEMPAE_clean_linker_10, # of connection points: 2
#     Edge 19, Type (0, 0), BuildingBlock: TEMPAE_clean_linker_10, # of connection points: 2
#     Edge 20, Type (0, 0), BuildingBlock: TEMPAE_clean_linker_10, # of connection points: 2
#     Edge 21, Type (0, 0), BuildingBlock: TEMPAE_clean_linker_10, # of connection points: 2
#     Edge 22, Type (0, 0), BuildingBlock: TEMPAE_clean_linker_10, # of connection points: 2
#     Edge 23, Type (0, 0), BuildingBlock: TEMPAE_clean_linker_10, # of connection points: 2
#     Edge 24, Type (0, 0), BuildingBlock: TEMPAE_clean_linker_10, # of connection points: 2
#     Edge 25, Type (0, 0), BuildingBlock: TEMPAE_clean_linker_10, # of connection points: 2
#     Edge 26, Type (0, 0), BuildingBlock: TEMPAE_clean_linker_10, # of connection points: 2
#     Edge 27, Type (0, 0), BuildingBlock: TEMPAE_clean_linker_10, # of connection points: 2
#     Edge 28, Type (0, 0), BuildingBlock: TEMPAE_clean_linker_10, # of connection points: 2
#     Edge 29, Type (0, 0), BuildingBlock: TEMPAE_clean_linker_10, # of connection points: 2
#     Edge 30, Type (0, 0), BuildingBlock: TEMPAE_clean_linker_10, # of connection points: 2
#     Edge 31, Type (0, 0), BuildingBlock: TEMPAE_clean_linker_10, # of connection points: 2
#     Edge 32, Type (0, 0), BuildingBlock: TEMPAE_clean_linker_10, # of connection points: 2
#     Edge 33, Type (0, 0), BuildingBlock: TEMPAE_clean_linker_10, # of connection points: 2
#     Edge 34, Type (0, 0), BuildingBlock: TEMPAE_clean_linker_10, # of connection points: 2
#     Edge 35, Type (0, 0), BuildingBlock: TEMPAE_clean_linker_10, # of connection points: 2
#     Edge 36, Type (0, 0), BuildingBlock: TEMPAE_clean_linker_10, # of connection points: 2
#     Edge 37, Type (0, 0), BuildingBlock: TEMPAE_clean_linker_10, # of connection points: 2
#     Edge 38, Type (0, 0), BuildingBlock: TEMPAE_clean_linker_10, # of connection points: 2
#     Edge 39, Type (0, 0), BuildingBlock: TEMPAE_clean_linker_10, # of connection points: 2
#     Edge 40, Type (0, 0), BuildingBlock: TEMPAE_clean_linker_10, # of connection points: 2
#     Edge 41, Type (0, 0), BuildingBlock: TEMPAE_clean_linker_10, # of connection points: 2
#     Edge 42, Type (0, 0), BuildingBlock: TEMPAE_clean_linker_10, # of connection points: 2
#     Edge 43, Type (0, 0), BuildingBlock: TEMPAE_clean_linker_10, # of connection points: 2
#     Edge 44, Type (0, 0), BuildingBlock: TEMPAE_clean_linker_10, # of connection points: 2
#     Edge 45, Type (0, 0), BuildingBlock: TEMPAE_clean_linker_10, # of connection points: 2
#     Edge 46, Type (0, 0), BuildingBlock: TEMPAE_clean_linker_10, # of connection points: 2
#     Edge 47, Type (0, 0), BuildingBlock: TEMPAE_clean_linker_10, # of connection points: 2
#     Edge 48, Type (0, 0), BuildingBlock: TEMPAE_clean_linker_10, # of connection points: 2
#     Edge 49, Type (0, 0), BuildingBlock: TEMPAE_clean_linker_10, # of connection points: 2
#     Edge 50, Type (0, 0), BuildingBlock: TEMPAE_clean_linker_10, # of connection points: 2
#     Edge 51, Type (0, 0), BuildingBlock: TEMPAE_clean_linker_10, # of connection points: 2
#     Edge 52, Type (0, 0), BuildingBlock: TEMPAE_clean_linker_10, # of connection points: 2
#     Edge 53, Type (0, 0), BuildingBlock: TEMPAE_clean_linker_10, # of connection points: 2
#     Edge 54, Type (0, 0), BuildingBlock: TEMPAE_clean_linker_10, # of connection points: 2
#     Edge 55, Type (0, 0), BuildingBlock: TEMPAE_clean_linker_10, # of connection points: 2
#     Edge 56, Type (0, 0), BuildingBlock: TEMPAE_clean_linker_10, # of connection points: 2
#     Edge 57, Type (0, 0), BuildingBlock: TEMPAE_clean_linker_10, # of connection points: 2
#     Edge 58, Type (0, 0), BuildingBlock: TEMPAE_clean_linker_10, # of connection points: 2
#     Edge 59, Type (0, 0), BuildingBlock: TEMPAE_clean_linker_10, # of connection points: 2
#     Edge 60, Type (0, 0), BuildingBlock: TEMPAE_clean_linker_10, # of connection points: 2
#     Edge 61, Type (0, 0), BuildingBlock: TEMPAE_clean_linker_10, # of connection points: 2
#     Edge 62, Type (0, 0), BuildingBlock: TEMPAE_clean_linker_10, # of connection points: 2
#     Edge 63, Type (0, 0), BuildingBlock: TEMPAE_clean_linker_10, # of connection points: 2
# Relax obj value: 0.074
# Max RMSD: 0.158
# Mean RMSD: 0.158
data_MOF--net-wiv--node1-CUKXOW_clean_sbu_0--edge1-TEMPAE_clean_linker_10
_symmetry_space_group_name_H-M    P1
_symmetry_Int_Tables_number       1
_symmetry_cell_setting            triclinic
loop_
_symmetry_equiv_pos_as_xyz
'x, y, z'
_cell_length_a     65.564141
_cell_length_b     65.550763
_cell_length_c     14.68836
_cell_angle_alpha  90.052748
_cell_angle_beta   90.033192
_cell_angle_gamma 89.974913
loop_
_atom_site_label
_atom_site_type_symbol
_atom_site_fract_x
_atom_site_fract_y
_atom_site_fract_z
_atom_type_partial_charge
Tb0 Tb 0.39697 0.12668 0.19193 0.0
C1 C 0.37375 0.16906 0.18346 0.0
Tb2 Tb 0.35001 0.12759 0.15832 0.0
O3 O 0.40115 0.11328 0.05613 0.0
O4 O 0.3769 0.13297 0.07985 0.0
O5 O 0.38989 0.15888 0.21431 0.0
C6 C 0.31388 0.1279 0.07484 0.0
O7 O 0.35754 0.15988 0.14765 0.0
C8 C 0.35841 0.12516 0.3361 0.0
C9 C 0.37281 0.08541 0.18667 0.0
O10 O 0.31891 0.13922 0.1439 0.0
O11 O 0.32925 0.11639 0.05253 0.0
O12 O 0.34006 0.12494 0.30252 0.0
O13 O 0.37017 0.12638 0.26867 0.0
O14 O 0.35708 0.09501 0.14882 0.0
O15 O 0.38903 0.09512 0.21908 0.0
C16 C 0.43525 0.12949 0.25278 0.0
O17 O 0.42036 0.12047 0.29487 0.0
O18 O 0.42853 0.13702 0.1767 0.0
C19 C 0.38486 0.12135 1.02097 0.0
Tb20 Tb 0.1282 0.64125 0.92024 0.0
C21 C 0.08529 0.62012 0.88569 0.0
Tb22 Tb 0.12561 0.59434 0.88692 0.0
O23 O 0.12648 0.65136 0.77614 0.0
O24 O 0.12668 0.62113 0.80977 0.0
O25 O 0.09529 0.63559 0.92398 0.0
C26 C 0.12782 0.55576 0.82943 0.0
O27 O 0.09455 0.60336 0.85612 0.0
C28 C 0.12027 0.60692 0.0574 0.0
C29 C 0.16877 0.61594 0.89661 0.0
O30 O 0.1191 0.57062 0.7857 0.0
O31 O 0.13532 0.56268 0.90522 0.0
O32 O 0.11159 0.59096 1.02207 0.0
O33 O 0.13234 0.61421 0.99885 0.0
O34 O 0.15804 0.60021 0.8655 0.0
O35 O 0.16017 0.63253 0.93182 0.0
C36 C 0.12947 0.67684 1.00804 0.0
O37 O 0.14103 0.67175 0.93986 0.0
O38 O 0.11712 0.66191 1.02652 0.0
C39 C 0.12605 0.633 0.74244 0.0
Tb40 Tb 0.59156 0.86643 0.16284 0.0
C41 C 0.6146 0.82391 0.14183 0.0
Tb42 Tb 0.64022 0.86538 0.12777 0.0
O43 O 0.58293 0.8671 1.01622 0.0
O44 O 0.61268 0.86684 0.05543 0.0
O45 O 0.59752 0.83369 0.16514 0.0
C46 C 0.67632 0.86488 0.04403 0.0
O47 O 0.63213 0.83308 0.12043 0.0
C48 C 0.6307 0.8647 0.30455 0.0
C49 C 0.61732 0.90707 0.15662 0.0
O50 O 0.67112 0.87723 0.10918 0.0
O51 O 0.66115 0.8528 1.02581 0.0
O52 O 0.64929 0.86445 0.27341 0.0
O53 O 0.61927 0.86499 0.23561 0.0
O54 O 0.63222 0.89751 0.11215 0.0
O55 O 0.60157 0.89734 0.19367 0.0
C56 C 0.55429 0.86886 0.23471 0.0
O57 O 0.56074 0.8789 0.16436 0.0
O58 O 0.56894 0.85739 0.2657 0.0
C59 C 0.60153 0.86718 0.98582 0.0
Tb60 Tb 0.86298 0.35022 0.91608 0.0
C61 C 0.90456 0.37353 0.89343 0.0
Tb62 Tb 0.86253 0.39729 0.88168 0.0
O63 O 0.87476 0.34483 0.77849 0.0
O64 O 0.85658 0.37025 0.80399 0.0
O65 O 0.89516 0.35758 0.93004 0.0
C66 C 0.86149 0.43448 0.80831 0.0
O67 O 0.89461 0.38965 0.8611 0.0
C68 C 0.8658 0.38861 0.05949 0.0
C69 C 0.82082 0.37372 0.90387 0.0
O70 O 0.87327 0.41967 0.78152 0.0
O71 O 0.85024 0.4282 0.87536 0.0
O72 O 0.86627 0.40694 1.02632 0.0
O73 O 0.86405 0.3771 0.99159 0.0
O74 O 0.83027 0.38982 0.86849 0.0
O75 O 0.83076 0.35757 0.93612 0.0
C76 C 0.86109 0.31338 0.99221 0.0
O77 O 0.85234 0.3185 0.91611 0.0
O78 O 0.87083 0.32897 1.02495 0.0
C79 C 0.86749 0.36161 0.74413 0.0
Tb80 Tb 0.39852 0.36535 0.16924 0.0
C81 C 0.37573 0.32324 0.19386 0.0
Tb82 Tb 0.35138 0.36501 0.20345 0.0
O83 O 0.40817 0.36909 0.31366 0.0
O84 O 0.37826 0.36663 0.27909 0.0
O85 O 0.39174 0.33286 0.15863 0.0
C86 C 0.31443 0.36241 0.278 0.0
O87 O 0.35931 0.33297 0.22464 0.0
C88 C 0.36289 0.36959 1.03164 0.0
C89 C 0.37399 0.40704 0.18186 0.0
O90 O 0.31987 0.35381 0.20194 0.0
O91 O 0.32978 0.37237 0.31172 0.0
O92 O 0.34593 0.37655 0.06545 0.0
O93 O 0.37159 0.35887 0.09198 0.0
O94 O 0.3578 0.39742 0.215 0.0
O95 O 0.39065 0.3975 0.15257 0.0
C96 C 0.43527 0.36513 0.09142 0.0
O97 O 0.41984 0.37608 0.06462 0.0
O98 O 0.42988 0.35428 0.16131 0.0
C99 C 0.38983 0.36847 0.34685 0.0
Tb100 Tb 0.36257 0.63808 0.88843 0.0
C101 C 0.4062 0.61775 0.9165 0.0
Tb102 Tb 0.36544 0.59111 0.92008 0.0
O103 O 0.34944 0.64193 1.02454 0.0
O104 O 0.36961 0.6181 0.99962 0.0
O105 O 0.39565 0.63445 0.89561 0.0
C106 C 0.36805 0.55414 0.99457 0.0
O107 O 0.39748 0.59981 0.93363 0.0
C108 C 0.36227 0.59968 0.74271 0.0
C109 C 0.32268 0.61202 0.88966 0.0
O110 O 0.37716 0.55999 0.92072 0.0
O111 O 0.3574 0.5692 1.02739 0.0
O112 O 0.36293 0.58133 0.77566 0.0
O113 O 0.36299 0.61141 0.8105 0.0
O114 O 0.33274 0.59712 0.93175 0.0
O115 O 0.33203 0.62795 0.85249 0.0
C116 C 0.36449 0.67572 0.81888 0.0
O117 O 0.35684 0.671 0.89748 0.0
O118 O 0.3711 0.65927 0.77977 0.0
C119 C 0.3578 0.62569 0.05874 0.0
Tb120 Tb 0.59343 0.62711 0.1346 0.0
C121 C 0.61607 0.66977 0.14594 0.0
Tb122 Tb 0.64033 0.6285 0.16813 0.0
O123 O 0.58944 0.61351 0.27002 0.0
O124 O 0.61341 0.63353 0.24674 0.0
O125 O 0.60003 0.6595 0.1147 0.0
C126 C 0.67631 0.62871 0.25246 0.0
O127 O 0.63245 0.66068 0.18065 0.0
C128 C 0.632 0.62617 0.99028 0.0
C129 C 0.61802 0.58608 0.13889 0.0
O130 O 0.67135 0.64022 0.18394 0.0
O131 O 0.66097 0.61711 0.27369 0.0
O132 O 0.65035 0.62619 1.0239 0.0
O133 O 0.62021 0.62716 0.0577 0.0
O134 O 0.63366 0.59585 0.17663 0.0
O135 O 0.60166 0.59563 0.10697 0.0
C136 C 0.5552 0.62954 0.0732 0.0
O137 O 0.57037 0.62131 1.02979 0.0
O138 O 0.56161 0.6365 0.15093 0.0
C139 C 0.60561 0.62178 0.30538 0.0
Tb140 Tb 0.62412 0.35179 0.89223 0.0
C141 C 0.583 0.37592 0.91528 0.0
Tb142 Tb 0.62543 0.39885 0.92674 0.0
O143 O 0.61214 0.34674 1.02965 0.0
O144 O 0.6309 0.37173 1.0044 0.0
O145 O 0.59204 0.35981 0.87789 0.0
C146 C 0.62746 0.43609 0.99958 0.0
O147 O 0.59328 0.39178 0.94807 0.0
C148 C 0.62195 0.39019 0.7489 0.0
C149 C 0.66668 0.37457 0.90446 0.0
O150 O 0.61527 0.42165 1.02653 0.0
O151 O 0.63853 0.42942 0.93263 0.0
O152 O 0.6218 0.40853 0.78219 0.0
O153 O 0.62353 0.37865 0.81671 0.0
O154 O 0.65752 0.39078 0.94024 0.0
O155 O 0.65646 0.35863 0.87184 0.0
C156 C 0.62593 0.31459 0.8188 0.0
O157 O 0.63456 0.32001 0.89478 0.0
O158 O 0.61631 0.33011 0.78453 0.0
C159 C 0.61979 0.36334 0.06415 0.0
Tb160 Tb 0.89775 0.62522 0.6678 0.0
C161 C 0.87471 0.66766 0.65353 0.0
Tb162 Tb 0.85076 0.62615 0.63478 0.0
O163 O 0.90186 0.61148 0.53263 0.0
O164 O 0.87763 0.63123 0.5558 0.0
O165 O 0.89087 0.65766 0.68529 0.0
C166 C 0.81452 0.62667 0.55274 0.0
O167 O 0.85838 0.65828 0.62017 0.0
C168 C 0.85929 0.62411 0.81257 0.0
C169 C 0.87342 0.58398 0.66371 0.0
O170 O 0.81983 0.63816 0.62086 0.0
O171 O 0.82966 0.61486 0.53063 0.0
O172 O 0.84093 0.62381 0.77922 0.0
O173 O 0.87099 0.62525 0.74493 0.0
O174 O 0.85772 0.59361 0.62579 0.0
O175 O 0.88973 0.59366 0.69564 0.0
C176 C 0.93597 0.62848 0.72903 0.0
O177 O 0.92938 0.63519 0.65121 0.0
O178 O 0.92099 0.61996 0.77256 0.0
C179 C 0.88555 0.61949 0.49731 0.0
Tb180 Tb 0.62757 0.13988 0.43816 0.0
C181 C 0.58476 0.11865 0.40402 0.0
Tb182 Tb 0.62517 0.09285 0.40362 0.0
O183 O 0.62572 0.14988 0.29358 0.0
O184 O 0.6264 0.11977 0.32781 0.0
O185 O 0.59474 0.13406 0.44272 0.0
C186 C 0.62703 0.05485 0.33855 0.0
O187 O 0.59402 0.10193 0.37387 0.0
C188 C 0.61959 0.10519 0.57443 0.0
C189 C 0.66832 0.1145 0.41978 0.0
O190 O 0.63323 0.06059 0.41858 0.0
O191 O 0.61982 0.07052 0.29515 0.0
O192 O 0.61116 0.08911 0.53871 0.0
O193 O 0.63159 0.11269 0.51604 0.0
O194 O 0.65785 0.09859 0.38841 0.0
O195 O 0.65947 0.13121 0.45261 0.0
C196 C 0.62854 0.17558 0.52499 0.0
O197 O 0.64029 0.17042 0.45756 0.0
O198 O 0.61619 0.16063 0.54338 0.0
C199 C 0.62554 0.13149 0.26009 0.0
Tb200 Tb 0.09281 0.36517 0.68895 0.0
C201 C 0.11459 0.32211 0.67671 0.0
Tb202 Tb 0.13971 0.36285 0.65588 0.0
O203 O 0.08914 0.37905 0.55374 0.0
O204 O 0.1127 0.35857 0.57691 0.0
O205 O 0.09878 0.33263 0.70871 0.0
C206 C 0.17547 0.36148 0.57009 0.0
O207 O 0.13108 0.33095 0.64207 0.0
C208 C 0.13141 0.36496 0.83371 0.0
C209 C 0.1184 0.40566 0.68789 0.0
O210 O 0.17015 0.34985 0.63761 0.0
O211 O 0.16066 0.37396 0.5511 0.0
O212 O 0.14976 0.36463 0.80019 0.0
O213 O 0.11958 0.36431 0.76623 0.0
O214 O 0.13387 0.39567 0.64988 0.0
O215 O 0.10175 0.39637 0.71829 0.0
C216 C 0.05439 0.36361 0.74863 0.0
O217 O 0.06952 0.37208 0.79142 0.0
O218 O 0.06095 0.35588 0.67267 0.0
C219 C 0.10519 0.37055 0.51843 0.0
Tb220 Tb 0.36342 0.84971 0.43423 0.0
C221 C 0.40589 0.87276 0.406 0.0
Tb222 Tb 0.36441 0.89826 0.39941 0.0
O223 O 0.36188 0.84054 0.28877 0.0
O224 O 0.36347 0.8706 0.32612 0.0
O225 O 0.39614 0.85553 0.42665 0.0
C226 C 0.36357 0.93548 0.32624 0.0
O227 O 0.39678 0.89066 0.39096 0.0
C228 C 0.36436 0.88849 0.57656 0.0
C229 C 0.32282 0.87462 0.41472 0.0
O230 O 0.37642 0.92115 0.30439 0.0
O231 O 0.35123 0.92872 0.38828 0.0
O232 O 0.36448 0.90707 0.54584 0.0
O233 O 0.36449 0.87727 0.50716 0.0
O234 O 0.33291 0.8894 0.37209 0.0
O235 O 0.33217 0.8596 0.45903 0.0
C236 C 0.3635 0.81408 0.52141 0.0
O237 O 0.35039 0.81955 0.45969 0.0
O238 O 0.3766 0.82869 0.53392 0.0
C239 C 0.36245 0.85912 0.25745 0.0
Tb240 Tb 0.89738 0.86354 0.62512 0.0
C241 C 0.87469 0.82171 0.63883 0.0
Tb242 Tb 0.85045 0.86341 0.65818 0.0
O243 O 0.90172 0.85079 0.76157 0.0
O244 O 0.87712 0.8701 0.73641 0.0
O245 O 0.89052 0.83148 0.60303 0.0
C246 C 0.81425 0.86338 0.74097 0.0
O247 O 0.85866 0.83129 0.67434 0.0
C248 C 0.85886 0.86004 0.48083 0.0
C249 C 0.87285 0.90537 0.62786 0.0
O250 O 0.82986 0.85239 0.76489 0.0
O251 O 0.81908 0.87435 0.67065 0.0
O252 O 0.84054 0.85951 0.5145 0.0
O253 O 0.87064 0.8618 0.54803 0.0
O254 O 0.85675 0.89598 0.66319 0.0
O255 O 0.88955 0.89549 0.60148 0.0
C256 C 0.9357 0.86793 0.567 0.0
O257 O 0.92895 0.87315 0.6467 0.0
O258 O 0.92085 0.86023 0.51957 0.0
C259 C 0.88537 0.85886 0.7961 0.0
Tb260 Tb 0.86281 0.14042 0.38566 0.0
C261 C 0.90576 0.11949 0.42093 0.0
Tb262 Tb 0.86552 0.0935 0.41858 0.0
O263 O 0.8643 0.15052 0.52989 0.0
O264 O 0.86425 0.12029 0.49596 0.0
O265 O 0.89576 0.135 0.38317 0.0
C266 C 0.86395 0.05503 0.47719 0.0
O267 O 0.89656 0.10263 0.44939 0.0
C268 C 0.87097 0.1061 0.24827 0.0
C269 C 0.82229 0.11496 0.40695 0.0
O270 O 0.87227 0.07013 0.52078 0.0
O271 O 0.8564 0.06164 0.40097 0.0
O272 O 0.87963 0.09013 0.28349 0.0
O273 O 0.85886 0.11336 0.3068 0.0
O274 O 0.83296 0.0992 0.43836 0.0
O275 O 0.83095 0.13158 0.3726 0.0
C276 C 0.86138 0.17588 0.29762 0.0
O277 O 0.84987 0.17084 0.36601 0.0
O278 O 0.8738 0.16098 0.27919 0.0
C279 C 0.86478 0.13215 0.56342 0.0
Tb280 Tb 0.09184 0.12536 0.66255 0.0
C281 C 0.11433 0.16804 0.6789 0.0
Tb282 Tb 0.13888 0.12671 0.69577 0.0
O283 O 0.08792 0.11138 0.79725 0.0
O284 O 0.11193 0.13141 0.77472 0.0
O285 O 0.09819 0.15791 0.64781 0.0
C286 C 0.17513 0.1272 0.77807 0.0
O287 O 0.13092 0.15882 0.71098 0.0
C288 C 0.1303 0.12477 0.51797 0.0
C289 C 0.11662 0.08438 0.66348 0.0
O290 O 0.1698 0.13876 0.7103 0.0
O291 O 0.15999 0.11536 0.79978 0.0
O292 O 0.14869 0.12459 0.55111 0.0
O293 O 0.11865 0.12582 0.58584 0.0
O294 O 0.13224 0.09403 0.70214 0.0
O295 O 0.10018 0.09401 0.63268 0.0
C296 C 0.05376 0.12823 0.59936 0.0
O297 O 0.05976 0.13379 0.67991 0.0
O298 O 0.06922 0.12107 0.55433 0.0
C299 C 0.10414 0.11953 0.8329 0.0
Tb300 Tb 0.12657 0.85186 0.38633 0.0
C301 C 0.08484 0.87515 0.40888 0.0
Tb302 Tb 0.12683 0.89901 0.42065 0.0
O303 O 0.11494 0.84646 0.52405 0.0
O304 O 0.1329 0.872 0.49812 0.0
O305 O 0.09424 0.85887 0.375 0.0
C306 C 0.12793 0.93595 0.49672 0.0
O307 O 0.09464 0.89161 0.43861 0.0
C308 C 0.12365 0.89028 0.24298 0.0
C309 C 0.16867 0.87558 0.39821 0.0
O310 O 0.11648 0.92093 0.52379 0.0
O311 O 0.13875 0.93005 0.42755 0.0
O312 O 0.1232 0.90864 0.27617 0.0
O313 O 0.12536 0.87873 0.31078 0.0
O314 O 0.15914 0.89174 0.43269 0.0
O315 O 0.15882 0.85926 0.36697 0.0
C316 C 0.12868 0.81497 0.31016 0.0
O317 O 0.13729 0.82015 0.38655 0.0
O318 O 0.11895 0.83055 0.27708 0.0
C319 C 0.12207 0.86334 0.55815 0.0
C320 C 0.37725 0.9627 0.22348 0.0
C321 C 0.36401 0.95675 0.29342 0.0
C322 C 0.37862 0.98326 0.19682 0.0
C323 C 0.36669 -0.00185 0.24226 0.0
C324 C 0.35297 0.99208 0.31151 0.0
C325 C 0.3517 0.97143 0.33575 0.0
C326 C 0.39317 0.98911 0.12171 0.0
C327 C 0.34013 0.00747 0.36235 0.0
C328 C 0.38518 0.05292 0.25676 0.0
C329 C 0.37201 0.0629 0.19605 0.0
C330 C 0.38393 0.03179 0.27066 0.0
C331 C 0.36932 0.02025 0.22178 0.0
C332 C 0.35641 0.03009 0.15814 0.0
C333 C 0.3578 0.05133 0.14653 0.0
C334 C 0.39779 0.02193 0.34003 0.0
C335 C 0.34085 0.01826 0.10381 0.0
H336 H 0.38671 0.95133 0.19043 0.0
H337 H 0.34145 0.96687 0.38993 0.0
H338 H 0.38517 -0.00161 0.06959 0.0
H339 H 0.40564 -0.00136 0.14995 0.0
H340 H 0.40002 0.97557 0.08802 0.0
H341 H 0.32971 0.00016 0.41218 0.0
H342 H 0.35019 0.01826 0.39943 0.0
H343 H 0.33088 0.01656 0.31385 0.0
H344 H 0.39616 0.06171 0.29561 0.0
H345 H 0.34768 0.05888 0.09887 0.0
H346 H 0.40638 0.00918 0.30844 0.0
H347 H 0.38853 0.0154 0.39609 0.0
H348 H 0.40888 0.0329 0.36966 0.0
H349 H 0.34823 0.00515 0.06915 0.0
H350 H 0.33316 0.02786 0.05182 0.0
H351 H 0.32908 0.01196 0.15017 0.0
C352 C 0.97253 0.63685 0.70228 0.0
C353 C 0.95737 0.62919 0.75999 0.0
C354 C 0.99316 0.63633 0.7278 0.0
C355 C -0.0013 0.62803 0.8133 0.0
C356 C 0.98335 0.62088 0.8731 0.0
C357 C 0.96283 0.62149 0.84556 0.0
C358 C 0.00906 0.64406 0.66199 0.0
C359 C 0.98864 0.61204 0.965 0.0
C360 C 0.05212 0.60599 0.82955 0.0
C361 C 0.0629 0.62184 0.87225 0.0
C362 C 0.03117 0.60769 0.8117 0.0
C363 C 0.02065 0.62566 0.83726 0.0
C364 C 0.03129 0.64154 0.8822 0.0
C365 C 0.0523 0.63945 0.8991 0.0
C366 C 0.02039 0.59039 0.76359 0.0
C367 C 0.02056 0.66089 0.91077 0.0
H368 H 0.96832 0.64284 0.63611 0.0
H369 H 0.95109 0.61564 0.89044 0.0
H370 H 0.01893 0.65556 0.69568 0.0
H371 H 0.01904 0.63127 0.64032 0.0
H372 H 0.00217 0.65105 0.60035 0.0
H373 H 0.97485 0.60858 1.00614 0.0
H374 H -0.00252 0.59775 0.95585 0.0
H375 H -0.00158 0.6228 1.0037 0.0
H376 H 0.06008 0.59228 0.80861 0.0
H377 H 0.06043 0.65178 0.9323 0.0
H378 H 0.01435 0.59578 0.69725 0.0
H379 H 0.00719 0.58516 0.80457 0.0
H380 H 0.0306 0.57717 0.75102 0.0
H381 H 0.01481 0.66902 0.84971 0.0
H382 H 0.03074 0.67134 0.94927 0.0
H383 H 0.00715 0.65721 0.95375 0.0
C384 C 0.63716 0.93981 0.15327 0.0
C385 C 0.61883 0.92945 0.17044 0.0
C386 C 0.63927 0.96064 0.17414 0.0
C387 C 0.62262 0.97137 0.21259 0.0
C388 C 0.60386 0.96118 0.22697 0.0
C389 C 0.60222 0.94036 0.20597 0.0
C390 C 0.65951 0.97097 0.15787 0.0
C391 C 0.58569 0.97212 0.26718 0.0
C392 C 0.6324 0.0176 0.36249 0.0
C393 C 0.62708 0.03367 0.3044 0.0
C394 C 0.63138 -0.00274 0.3328 0.0
C395 C 0.62504 0.99295 0.24259 0.0
C396 C 0.62018 0.00919 0.18287 0.0
C397 C 0.62117 0.02939 0.21468 0.0
C398 C 0.6366 0.98037 0.39871 0.0
C399 C 0.61352 0.00522 0.08606 0.0
H400 H 0.65011 0.93153 0.12604 0.0
H401 H 0.58793 0.93257 0.21884 0.0
H402 H 0.65733 0.98507 0.11724 0.0
H403 H 0.6663 0.97557 0.22398 0.0
H404 H 0.67049 0.96091 0.12183 0.0
H405 H 0.57188 0.96232 0.26933 0.0
H406 H 0.5893 0.97714 0.33753 0.0
H407 H 0.58215 0.98599 0.22696 0.0
H408 H 0.63696 0.02089 0.43192 0.0
H409 H 0.61714 0.04184 0.16954 0.0
H410 H 0.64863 0.97042 0.36954 0.0
H411 H 0.62298 0.9707 0.41054 0.0
H412 H 0.64199 0.98632 0.46537 0.0
H413 H 0.62492 -0.00446 0.05068 0.0
H414 H 0.61149 0.01955 0.04675 0.0
H415 H 0.59887 -0.00324 0.08596 0.0
C416 C 0.93747 0.38824 0.83669 0.0
C417 C 0.92708 0.37274 0.88344 0.0
C418 C 0.95852 0.38688 0.82026 0.0
C419 C 0.96949 0.36964 0.85146 0.0
C420 C 0.95925 0.35426 0.90115 0.0
C421 C 0.93818 0.35598 0.91648 0.0
C422 C 0.96891 0.40362 0.76707 0.0
C423 C 0.97043 0.33568 0.93586 0.0
C424 C 0.01768 0.3559 0.72177 0.0
C425 C 0.03287 0.36412 0.77789 0.0
C426 C -0.00299 0.35734 0.74567 0.0
C427 C 0.99144 0.36721 0.82781 0.0
C428 C 0.00679 0.37516 0.88572 0.0
C429 C 0.02736 0.37354 0.85995 0.0
C430 C 0.98111 0.34865 0.68211 0.0
C431 C 0.00145 0.3857 0.97398 0.0
H432 H 0.9291 0.40127 0.81089 0.0
H433 H 0.93036 0.34394 0.95301 0.0
H434 H 0.9822 0.40956 0.80564 0.0
H435 H 0.97477 0.3974 0.70184 0.0
H436 H 0.95846 0.41652 0.75177 0.0
H437 H 0.96055 0.32574 0.97824 0.0
H438 H 0.97621 0.32661 0.8775 0.0
H439 H 0.98385 0.34035 0.97691 0.0
H440 H 0.02192 0.34861 0.65827 0.0
H441 H 0.03912 0.37989 0.90348 0.0
H442 H 0.97093 0.36103 0.6577 0.0
H443 H 0.97144 0.33747 0.71882 0.0
H444 H 0.98799 0.34097 0.62208 0.0
H445 H 0.99224 0.39954 0.95973 0.0
H446 H 0.01521 0.39027 1.01316 0.0
H447 H 0.992 0.37552 1.01702 0.0
C448 C 0.39045 0.44141 0.17558 0.0
C449 C 0.37281 0.4294 0.17075 0.0
C450 C 0.38967 0.46245 0.15759 0.0
C451 C 0.37095 0.47148 0.13111 0.0
C452 C 0.35302 0.45946 0.12822 0.0
C453 C 0.35412 0.43861 0.14937 0.0
C454 C 0.40901 0.47485 0.16393 0.0
C455 C 0.33288 0.46834 0.09778 0.0
C456 C 0.36435 0.52922 0.12258 0.0
C457 C 0.36892 0.53324 1.03121 0.0
C458 C 0.3654 0.50922 0.15701 0.0
C459 C 0.37049 0.49292 0.09773 0.0
C460 C 0.37487 0.49698 1.00511 0.0
C461 C 0.37434 0.51713 0.97342 0.0
C462 C 0.3612 0.50555 0.25666 0.0
C463 C 0.37983 0.48002 0.939 0.0
H464 H 0.40489 0.43433 0.19281 0.0
H465 H 0.34049 0.42931 0.1447 0.0
H466 H 0.41395 0.47947 0.09474 0.0
H467 H 0.40628 0.48902 0.20355 0.0
H468 H 0.42163 0.46619 0.19643 0.0
H469 H 0.32013 0.45728 0.10457 0.0
H470 H 0.32916 0.48217 0.13798 0.0
H471 H 0.33398 0.47304 1.02538 0.0
H472 H 0.36029 0.54175 0.16733 0.0
H473 H 0.37776 0.52025 0.90256 0.0
H474 H 0.37435 0.4976 0.28836 0.0
H475 H 0.34773 0.49547 0.26445 0.0
H476 H 0.35832 0.51996 0.29442 0.0
H477 H 0.39382 0.4719 0.96114 0.0
H478 H 0.38222 0.48572 0.86861 0.0
H479 H 0.36725 0.46869 0.93796 0.0
C480 C 0.52864 0.62201 0.95617 0.0
C481 C 0.53379 0.6295 0.04254 0.0
C482 C 0.50816 0.62068 0.92863 0.0
C483 C 0.49254 0.62682 0.98935 0.0
C484 C 0.49775 0.63482 0.07591 0.0
C485 C 0.51834 0.63614 0.10131 0.0
C486 C 0.50322 0.61225 0.8355 0.0
C487 C 0.48154 0.64145 0.14274 0.0
C488 C 0.43878 0.63767 0.90538 0.0
C489 C 0.42858 0.6196 0.92898 0.0
C490 C 0.45973 0.64005 0.92235 0.0
C491 C 0.47072 0.62404 0.96444 0.0
C492 C 0.46064 0.60561 0.98653 0.0
C493 C 0.43974 0.60358 0.96826 0.0
C494 C 0.47 0.65986 0.89709 0.0
C495 C 0.47182 0.58821 1.03188 0.0
H496 H 0.54061 0.61695 0.91053 0.0
H497 H 0.52231 0.64193 0.16816 0.0
H498 H 0.49476 0.59769 0.84252 0.0
H499 H 0.49321 0.623 0.79797 0.0
H500 H 0.51714 0.60942 0.79428 0.0
H501 H 0.48815 0.64801 0.20597 0.0
H502 H 0.47141 0.653 0.11108 0.0
H503 H 0.47189 0.6282 0.16142 0.0
H504 H 0.43035 0.6501 0.87451 0.0
H505 H 0.43205 0.58956 0.98692 0.0
H506 H 0.48357 0.65684 0.85406 0.0
H507 H 0.47543 0.66769 0.95955 0.0
H508 H 0.45961 0.67033 0.85983 0.0
H509 H 0.48525 0.58369 0.99058 0.0
H510 H 0.46195 0.57461 0.04161 0.0
H511 H 0.47757 0.59318 0.0994 0.0
C512 C 0.60547 0.55334 0.0715 0.0
C513 C 0.6191 0.56357 0.12936 0.0
C514 C 0.60691 0.53221 0.0576 0.0
C515 C 0.62222 0.52094 0.10341 0.0
C516 C 0.63563 0.53105 0.16406 0.0
C517 C 0.634 0.55227 0.17589 0.0
C518 C 0.59244 0.52205 0.9916 0.0
C519 C 0.65198 0.51951 0.21495 0.0
C520 C 0.615 0.46333 0.10538 0.0
C521 C 0.62738 0.45739 1.03231 0.0
C522 C 0.61372 0.48392 0.13176 0.0
C523 C 0.6249 0.49884 0.08303 0.0
C524 C 0.63783 0.49277 1.01074 0.0
C525 C 0.63899 0.4721 0.98664 0.0
C526 C 0.59999 0.48978 0.20999 0.0
C527 C 0.64988 0.5082 0.95657 0.0
H528 H 0.59393 0.56191 1.03501 0.0
H529 H 0.6445 0.56 0.22132 0.0
H530 H 0.60116 0.51553 0.93374 0.0
H531 H 0.58439 0.50926 1.0254 0.0
H532 H 0.58089 0.53283 0.96416 0.0
H533 H 0.66018 0.52932 0.26468 0.0
H534 H 0.64519 0.5064 0.2518 0.0
H535 H 0.66324 0.51324 0.16603 0.0
H536 H 0.60606 0.45194 0.14096 0.0
H537 H 0.64858 0.46754 0.93006 0.0
H538 H 0.58706 0.49906 0.18433 0.0
H539 H 0.60845 0.4993 0.25977 0.0
H540 H 0.59376 0.47623 0.24581 0.0
H541 H 0.63927 0.51875 0.92119 0.0
H542 H 0.65987 0.50089 0.90489 0.0
H543 H 0.6595 0.51754 1.00264 0.0
C544 C 0.46051 0.37791 0.97719 0.0
C545 C 0.45613 0.36604 0.05401 0.0
C546 C 0.48062 0.37977 0.94496 0.0
C547 C 0.49666 0.36967 0.99142 0.0
C548 C 0.49218 0.35734 0.06795 0.0
C549 C 0.47196 0.3556 0.098 0.0
C550 C 0.48477 0.39285 0.86254 0.0
C551 C 0.50883 0.34641 0.11974 0.0
C552 C 0.5487 0.36025 0.88549 0.0
C553 C 0.5605 0.37556 0.92668 0.0
C554 C 0.52768 0.35868 0.9027 0.0
C555 C 0.51827 0.37262 0.9632 0.0
C556 C 0.52995 0.38853 1.00246 0.0
C557 C 0.55088 0.38985 0.98343 0.0
C558 C 0.51569 0.34166 0.85869 0.0
C559 C 0.52053 0.40363 0.0678 0.0
H560 H 0.44826 0.38594 0.94293 0.0
H561 H 0.4686 0.34641 0.15745 0.0
H562 H 0.49413 0.40622 0.88256 0.0
H563 H 0.49363 0.38412 0.81132 0.0
H564 H 0.47049 0.39844 0.83024 0.0
H565 H 0.50272 0.33696 0.17624 0.0
H566 H 0.51761 0.3364 0.0731 0.0
H567 H 0.51966 0.3577 0.14859 0.0
H568 H 0.55593 0.34921 0.84099 0.0
H569 H 0.55981 0.40174 1.01575 0.0
H570 H 0.50172 0.34778 0.82594 0.0
H571 H 0.51074 0.33063 0.91148 0.0
H572 H 0.52476 0.33333 0.80671 0.0
H573 H 0.50685 0.41079 0.03682 0.0
H574 H 0.53136 0.41586 0.08788 0.0
H575 H 0.51545 0.39557 0.13018 0.0
C576 C 0.87483 0.46122 0.70246 0.0
C577 C 0.86221 0.45573 0.77538 0.0
C578 C 0.87668 0.48172 0.67567 0.0
C579 C 0.86584 0.49702 0.72377 0.0
C580 C 0.85272 0.49142 0.79609 0.0
C581 C 0.85099 0.47083 0.82066 0.0
C582 C 0.8906 0.48708 0.59746 0.0
C583 C 0.84099 0.50725 0.84952 0.0
C584 C 0.88591 0.55131 0.73211 0.0
C585 C 0.87237 0.56149 0.67373 0.0
C586 C 0.88427 0.53023 0.74711 0.0
C587 C 0.86885 0.51899 0.70192 0.0
C588 C 0.85557 0.52903 0.64054 0.0
C589 C 0.85741 0.55018 0.62757 0.0
C590 C 0.89862 0.52013 0.81377 0.0
C591 C 0.8391 0.51751 0.5903 0.0
H592 H 0.88348 0.44953 0.66725 0.0
H593 H 0.84123 0.46661 0.87715 0.0
H594 H 0.88233 0.49651 0.54677 0.0
H595 H 0.90361 0.4963 0.62282 0.0
H596 H 0.89672 0.47331 0.56279 0.0
H597 H 0.83094 0.50031 0.90188 0.0
H598 H 0.8518 0.51775 0.88397 0.0
H599 H 0.83148 0.51658 0.80301 0.0
H600 H 0.89749 0.55989 0.76829 0.0
H601 H 0.84698 0.55787 0.58173 0.0
H602 H 0.90642 0.50703 0.78101 0.0
H603 H 0.88982 0.51405 0.87229 0.0
H604 H 0.91036 0.53083 0.84012 0.0
H605 H 0.84572 0.50413 0.55462 0.0
H606 H 0.83108 0.52722 0.53967 0.0
H607 H 0.82771 0.51164 0.63956 0.0
C608 C 0.55162 0.10523 0.34378 0.0
C609 C 0.56238 0.12048 0.39072 0.0
C610 C 0.53068 0.10717 0.32619 0.0
C611 C 0.52014 0.12477 0.35644 0.0
C612 C 0.53076 0.14003 0.40554 0.0
C613 C 0.55176 0.13772 0.42199 0.0
C614 C 0.51991 0.09056 0.27349 0.0
C615 C 0.52002 0.15896 0.43923 0.0
C616 C 0.47182 0.13799 0.22655 0.0
C617 C 0.45673 0.12968 0.28283 0.0
C618 C 0.4925 0.13694 0.25086 0.0
C619 C 0.49817 0.12743 0.33364 0.0
C620 C 0.4829 0.11956 0.39205 0.0
C621 C 0.46232 0.12075 0.36579 0.0
C622 C 0.50832 0.14549 0.18666 0.0
C623 C 0.48833 0.10942 0.48105 0.0
H624 H 0.55962 0.09183 0.31926 0.0
H625 H 0.55987 0.14958 0.45853 0.0
H626 H 0.50674 0.08474 0.31306 0.0
H627 H 0.51383 0.09685 0.20882 0.0
H628 H 0.53015 0.07755 0.25721 0.0
H629 H 0.53023 0.16895 0.48 0.0
H630 H 0.51415 0.16783 0.38049 0.0
H631 H 0.50669 0.15469 0.48163 0.0
H632 H 0.4675 0.14492 0.16237 0.0
H633 H 0.45064 0.11437 0.40953 0.0
H634 H 0.51825 0.13299 0.16151 0.0
H635 H 0.51824 0.15653 0.22295 0.0
H636 H 0.50134 0.15326 0.12709 0.0
H637 H 0.49722 0.09533 0.46758 0.0
H638 H 0.47461 0.10531 0.52142 0.0
H639 H 0.49811 0.11963 0.52257 0.0
C640 C 0.13636 0.51932 0.85826 0.0
C641 C 0.128 0.53418 0.80085 0.0
C642 C 0.13551 0.49856 0.83515 0.0
C643 C 0.12614 0.49257 0.75243 0.0
C644 C 0.11819 0.50761 0.69296 0.0
C645 C 0.11918 0.52828 0.71803 0.0
C646 C 0.14413 0.483 0.90048 0.0
C647 C 0.10819 0.50183 0.60401 0.0
C648 C 0.13714 0.43878 0.66816 0.0
C649 C 0.12 0.4281 0.69979 0.0
C650 C 0.13917 0.45987 0.68302 0.0
C651 C 0.12373 0.47051 0.73085 0.0
C652 C 0.10623 0.4599 0.76143 0.0
C653 C 0.10457 0.43887 0.74544 0.0
C654 C 0.15801 0.47069 0.64906 0.0
C655 C 0.08944 0.47069 0.81286 0.0
H656 H 0.14321 0.52387 0.92231 0.0
H657 H 0.11277 0.53979 0.67342 0.0
H658 H 0.13171 0.473 0.9257 0.0
H659 H 0.15533 0.4731 0.86509 0.0
H660 H 0.15174 0.49021 0.95995 0.0
H661 H 0.10397 0.5154 0.56282 0.0
H662 H 0.11856 0.49205 0.56326 0.0
H663 H 0.0942 0.49282 0.61758 0.0
H664 H 0.14913 0.43066 0.63257 0.0
H665 H 0.09124 0.43083 0.77018 0.0
H666 H 0.16677 0.47683 0.70762 0.0
H667 H 0.15363 0.48384 0.60575 0.0
H668 H 0.16813 0.46045 0.60914 0.0
H669 H 0.09557 0.47704 0.87735 0.0
H670 H 0.07652 0.46038 0.82934 0.0
H671 H 0.08355 0.48368 0.77226 0.0
C672 C 0.51766 0.87684 0.21177 0.0
C673 C 0.53315 0.86953 0.26877 0.0
C674 C 0.49727 0.87708 0.24039 0.0
C675 C 0.49232 0.8704 0.32931 0.0
C676 C 0.508 0.86343 0.38808 0.0
C677 C 0.52826 0.86279 0.35653 0.0
C678 C 0.48099 0.88416 0.17474 0.0
C679 C 0.50338 0.8567 0.4841 0.0
C680 C 0.44049 0.88889 0.41061 0.0
C681 C 0.42829 0.8717 0.39466 0.0
C682 C 0.46161 0.88833 0.39454 0.0
C683 C 0.4706 0.87035 0.35908 0.0
C684 C 0.45839 0.85283 0.3446 0.0
C685 C 0.43743 0.85364 0.3637 0.0
C686 C 0.4742 0.90716 0.41307 0.0
C687 C 0.46725 0.83353 0.30464 0.0
H688 H 0.52142 0.88195 0.14364 0.0
H689 H 0.5403 0.85726 0.40076 0.0
H690 H 0.46956 0.87188 0.16454 0.0
H691 H 0.47282 0.89753 0.20323 0.0
H692 H 0.48736 0.88845 0.10736 0.0
H693 H 0.51741 0.8527 0.52262 0.0
H694 H 0.49523 0.86903 0.52105 0.0
H695 H 0.49317 0.84323 0.48293 0.0
H696 H 0.43351 0.90283 0.43541 0.0
H697 H 0.42803 0.84035 0.35059 0.0
H698 H 0.47956 0.91375 0.34781 0.0
H699 H 0.48792 0.90317 0.45359 0.0
H700 H 0.46541 0.91903 0.45024 0.0
H701 H 0.47271 0.83657 0.23445 0.0
H702 H 0.45594 0.82092 0.30201 0.0
H703 H 0.48059 0.82842 0.34506 0.0
C704 C 0.88772 0.9381 0.56998 0.0
C705 C 0.87193 0.92782 0.61528 0.0
C706 C 0.88645 0.95911 0.55232 0.0
C707 C 0.86902 0.97014 0.58085 0.0
C708 C 0.85329 0.95999 0.62871 0.0
C709 C 0.85491 0.93896 0.64522 0.0
C710 C 0.90355 0.96939 0.50099 0.0
C711 C 0.83451 0.97127 0.66059 0.0
C712 C 0.87316 0.02798 0.58951 0.0
C713 C 0.86428 0.03351 0.50634 0.0
C714 C 0.87452 0.00741 0.61556 0.0
C715 C 0.86686 0.99208 0.55675 0.0
C716 C 0.85755 -0.00233 0.47337 0.0
C717 C 0.85635 0.01834 0.44926 0.0
C718 C 0.88444 0.00205 0.70518 0.0
C719 C 0.84921 0.98178 0.40878 0.0
H720 H 0.90094 0.92969 0.54651 0.0
H721 H 0.84265 0.93122 0.6806 0.0
H722 H 0.89774 0.97531 0.43515 0.0
H723 H 0.90936 0.98263 0.54029 0.0
H724 H 0.91646 0.95886 0.48705 0.0
H725 H 0.82418 0.96141 0.70127 0.0
H726 H 0.83893 0.98464 0.70251 0.0
H727 H 0.82594 0.97713 0.60094 0.0
H728 H 0.87928 0.03973 0.63379 0.0
H729 H 0.84947 0.0226 0.38488 0.0
H730 H 0.89831 0.99274 0.6928 0.0
H731 H 0.87392 0.99269 0.74697 0.0
H732 H 0.88884 0.01581 0.74482 0.0
H733 H 0.86169 0.97153 0.38609 0.0
H734 H 0.84198 0.98869 0.34771 0.0
H735 H 0.83774 0.97219 0.44404 0.0
C736 C 0.02799 0.1241 0.47549 0.0
C737 C 0.03251 0.1288 0.56635 0.0
C738 C 0.00771 0.12354 0.44463 0.0
C739 C 0.99164 0.12756 0.50653 0.0
C740 C -0.00379 0.13273 0.59796 0.0
C741 C 0.01662 0.13339 0.62663 0.0
C742 C 0.00346 0.11819 0.34645 0.0
C743 C 0.97951 0.13696 0.66624 0.0
C744 C 0.93808 0.14006 0.42364 0.0
C745 C 0.92807 0.12133 0.43587 0.0
C746 C 0.95891 0.14223 0.44422 0.0
C747 C 0.97 0.12526 0.4775 0.0
C748 C 0.96014 0.10618 0.48732 0.0
C749 C 0.93933 0.10446 0.46654 0.0
C750 C 0.96891 0.16281 0.4328 0.0
C751 C 0.97145 0.08768 0.52218 0.0
H752 H 0.04031 0.12066 0.42868 0.0
H753 H 0.02011 0.13703 0.69695 0.0
H754 H -0.00478 0.10344 0.34287 0.0
H755 H 0.99348 0.12991 0.31504 0.0
H756 H 0.01767 0.11693 0.30562 0.0
H757 H 0.98564 0.14159 0.73369 0.0
H758 H 0.96934 0.14922 0.6408 0.0
H759 H 0.97003 0.1231 0.67539 0.0
H760 H 0.92954 0.1532 0.40007 0.0
H761 H 0.93183 0.08988 0.47563 0.0
H762 H 0.98284 0.16138 0.39047 0.0
H763 H 0.97371 0.16874 0.50026 0.0
H764 H 0.95855 0.17413 0.40072 0.0
H765 H 0.98515 0.08478 0.47986 0.0
H766 H 0.96181 0.07375 0.52198 0.0
H767 H 0.97677 0.09051 0.59279 0.0
C768 C 0.11554 0.96195 0.6086 0.0
C769 C 0.1275 0.95696 0.53277 0.0
C770 C 0.11402 0.98225 0.63894 0.0
C771 C 0.12453 -0.00215 0.59154 0.0
C772 C 0.13704 0.99274 0.51633 0.0
C773 C 0.13844 0.97234 0.48819 0.0
C774 C 0.10074 0.98706 0.72007 0.0
C775 C 0.14839 0.00891 0.46354 0.0
C776 C 0.10404 0.052 0.59283 0.0
C777 C 0.11788 0.06196 0.65064 0.0
C778 C 0.10575 0.03105 0.57495 0.0
C779 C 0.12156 0.01967 0.61653 0.0
C780 C 0.13519 0.02946 0.67727 0.0
C781 C 0.13327 0.05052 0.69322 0.0
C782 C 0.09101 0.02122 0.50908 0.0
C783 C 0.1521 0.01779 0.72368 0.0
H784 H 0.10713 0.95004 0.64336 0.0
H785 H 0.14772 0.96851 0.42953 0.0
H786 H 0.10936 -0.00373 0.77047 0.0
H787 H 0.08746 -0.00368 0.698 0.0
H788 H 0.09501 0.97306 0.75406 0.0
H789 H 0.15814 0.00231 0.40912 0.0
H790 H 0.13734 0.01958 0.43174 0.0
H791 H 0.15815 0.018 0.51002 0.0
H792 H 0.09213 0.06067 0.55935 0.0
H793 H 0.14395 0.05804 0.73851 0.0
H794 H 0.0835 0.00792 0.54137 0.0
H795 H 0.09944 0.0155 0.44873 0.0
H796 H 0.07904 0.03199 0.48551 0.0
H797 H 0.14584 0.00416 0.75864 0.0
H798 H 0.16041 0.02726 0.7743 0.0
H799 H 0.16317 0.01227 0.67211 0.0
C800 C 0.05249 0.85562 0.42987 0.0
C801 C 0.0624 0.87441 0.41923 0.0
C802 C 0.03151 0.85468 0.44845 0.0
C803 C 0.02008 0.87296 0.4545 0.0
C804 C 0.02985 0.89195 0.4399 0.0
C805 C 0.05096 0.89246 0.42361 0.0
C806 C 0.02178 0.83416 0.46552 0.0
C807 C 0.01811 0.91175 0.44372 0.0
C808 C 0.96224 0.86815 0.44485 0.0
C809 C 0.9571 0.86972 0.53715 0.0
C810 C 0.98266 0.86965 0.41646 0.0
C811 C -0.00175 0.87227 0.4823 0.0
C812 C 0.99306 0.8738 0.57565 0.0
C813 C 0.97251 0.87276 0.60177 0.0
C814 C 0.98756 0.86842 0.31621 0.0
C815 C 0.00923 0.87619 0.64818 0.0
H816 H 0.06129 0.84162 0.42736 0.0
H817 H 0.05853 0.90703 0.41474 0.0
H818 H 0.01612 0.83346 0.53665 0.0
H819 H 0.00843 0.83201 0.42012 0.0
H820 H 0.03258 0.82133 0.45453 0.0
H821 H 0.02752 0.92499 0.42235 0.0
H822 H 0.00445 0.91088 0.39921 0.0
H823 H 0.01266 0.91448 0.51416 0.0
H824 H 0.95028 0.86593 0.39482 0.0
H825 H 0.96853 0.87389 0.67324 0.0
H826 H -0.00277 0.85488 0.30257 0.0
H827 H -0.00361 0.88206 0.2951 0.0
H828 H 0.97361 0.86737 0.27347 0.0
H829 H 0.02006 0.86319 0.64496 0.0
H830 H 0.00265 0.87689 0.7178 0.0
H831 H 0.01814 0.89031 0.63611 0.0
C832 C 0.38756 0.20189 0.24556 0.0
C833 C 0.37405 0.19166 0.18717 0.0
C834 C 0.38798 0.2233 0.24962 0.0
C835 C 0.37481 0.23477 0.19286 0.0
C836 C 0.36121 0.22453 0.13349 0.0
C837 C 0.36087 0.20311 0.13189 0.0
C838 C 0.40249 0.23366 0.3148 0.0
C839 C 0.34714 0.23621 0.07091 0.0
C840 C 0.36239 0.2899 0.25221 0.0
C841 C 0.37583 0.30062 0.19543 0.0
C842 C 0.36212 0.26847 0.25316 0.0
C843 C 0.37538 0.25749 0.19485 0.0
C844 C 0.38898 0.26823 0.13741 0.0
C845 C 0.38916 0.28965 0.13892 0.0
C846 C 0.34762 0.25758 0.31639 0.0
C847 C 0.40314 0.25709 0.0733 0.0
H848 H 0.39769 0.19316 0.28897 0.0
H849 H 0.35048 0.19534 0.08611 0.0
H850 H 0.41331 0.24341 0.27652 0.0
H851 H 0.39388 0.24376 0.36169 0.0
H852 H 0.41137 0.22255 0.35592 0.0
H853 H 0.3376 0.22596 1.02825 0.0
H854 H 0.33693 0.24621 0.11136 0.0
H855 H 0.3562 0.24622 1.02542 0.0
H856 H 0.35214 0.29826 0.29653 0.0
H857 H 0.39949 0.2978 0.09435 0.0
H858 H 0.35621 0.24702 0.36131 0.0
H859 H 0.33675 0.24821 0.27631 0.0
H860 H 0.33878 0.26833 0.3596 0.0
H861 H 0.41325 0.2467 0.11221 0.0
H862 H 0.41278 0.26769 1.03298 0.0
H863 H 0.39413 0.24753 1.02558 0.0
C864 C 0.28921 0.59863 0.94585 0.0
C865 C 0.30012 0.61119 0.88591 0.0
C866 C 0.26779 0.59871 0.94684 0.0
C867 C 0.25703 0.61146 0.8856 0.0
C868 C 0.26796 0.62376 0.82326 0.0
C869 C 0.28936 0.62358 0.82457 0.0
C870 C 0.25668 0.58554 1.01495 0.0
C871 C 0.25703 0.63735 0.75605 0.0
C872 C 0.20111 0.60011 0.83919 0.0
C873 C 0.19134 0.61475 0.89366 0.0
C874 C 0.22248 0.59889 0.83564 0.0
C875 C 0.23436 0.61246 0.88868 0.0
C876 C 0.2246 0.62716 0.94431 0.0
C877 C 0.20322 0.62822 0.94568 0.0
C878 C 0.23235 0.58318 0.77465 0.0
C879 C 0.23674 0.64176 1.00261 0.0
H880 H 0.29741 0.5891 0.99381 0.0
H881 H 0.29767 0.63322 0.77753 0.0
H882 H 0.24763 0.59531 0.06159 0.0
H883 H 0.24582 0.57529 0.97938 0.0
H884 H 0.26727 0.57608 0.05627 0.0
H885 H 0.26774 0.64519 0.70909 0.0
H886 H 0.2461 0.62825 0.71505 0.0
H887 H 0.24809 0.64908 0.79311 0.0
H888 H 0.19206 0.58972 0.79838 0.0
H889 H 0.19582 0.63948 0.98845 0.0
H890 H 0.24215 0.57287 0.81558 0.0
H891 H 0.24234 0.59085 0.72427 0.0
H892 H 0.22095 0.57381 0.7374 0.0
H893 H 0.24676 0.63311 0.04965 0.0
H894 H 0.22682 0.65202 0.04347 0.0
H895 H 0.24675 0.65127 0.95901 0.0
C896 C 0.62812 0.79044 0.08629 0.0
C897 C 0.61418 0.80131 0.14012 0.0
C898 C 0.6281 0.76902 0.08472 0.0
C899 C 0.61405 0.75819 0.13964 0.0
C900 C 0.59993 0.76908 0.19414 0.0
C901 C 0.60004 0.79052 0.19305 0.0
C902 C 0.64314 0.75797 1.02444 0.0
C903 C 0.58495 0.7581 0.2548 0.0
C904 C 0.60243 0.70267 0.08415 0.0
C905 C 0.61548 0.69236 0.14424 0.0
C906 C 0.60189 0.7241 0.08144 0.0
C907 C 0.61442 0.73547 0.14147 0.0
C908 C 0.62745 0.72513 0.203 0.0
C909 C 0.62796 0.70371 0.20304 0.0
C910 C 0.58807 0.73456 1.01377 0.0
C911 C 0.64078 0.73668 0.26916 0.0
H912 H 0.63897 0.79868 0.04453 0.0
H913 H 0.58932 0.79882 0.23531 0.0
H914 H 0.65353 0.74854 0.06667 0.0
H915 H 0.63494 0.74747 0.9778 0.0
H916 H 0.65249 0.76863 0.98309 0.0
H917 H 0.57494 0.7688 0.29284 0.0
H918 H 0.57522 0.74778 0.21357 0.0
H919 H 0.59331 0.74848 0.3045 0.0
H920 H 0.59284 0.694 0.03812 0.0
H921 H 0.63795 0.69585 0.25023 0.0
H922 H 0.5972 0.74455 0.96847 0.0
H923 H 0.577 0.74446 0.05002 0.0
H924 H 0.57947 0.72353 0.97105 0.0
H925 H 0.65162 0.74653 0.23139 0.0
H926 H 0.64964 0.72636 0.31426 0.0
H927 H 0.63126 0.74684 0.31218 0.0
C928 C 0.7875 0.35994 0.96041 0.0
C929 C 0.79822 0.37347 0.90404 0.0
C930 C 0.76607 0.35965 0.96126 0.0
C931 C 0.75511 0.37299 0.90333 0.0
C932 C 0.76584 0.38651 0.84552 0.0
C933 C 0.78725 0.3867 0.84709 0.0
C934 C 0.75517 0.34523 1.02485 0.0
C935 C 0.75471 0.40078 0.78191 0.0
C936 C 0.69984 0.36041 0.84735 0.0
C937 C 0.68928 0.37399 0.90419 0.0
C938 C 0.72127 0.35992 0.84621 0.0
C939 C 0.73239 0.37312 0.90432 0.0
C940 C 0.72181 0.38668 0.96263 0.0
C941 C 0.70041 0.38706 0.96136 0.0
C942 C 0.73201 0.34546 0.78214 0.0
C943 C 0.7331 0.40078 1.02652 0.0
H944 H 0.79586 0.34974 1.00493 0.0
H945 H 0.79539 0.39708 0.80269 0.0
H946 H 0.74531 0.35401 0.07216 0.0
H947 H 0.7451 0.33489 0.98546 0.0
H948 H 0.76592 0.33584 0.06559 0.0
H949 H 0.76531 0.40991 0.7393 0.0
H950 H 0.74448 0.39195 0.73637 0.0
H951 H 0.74498 0.4114 0.82164 0.0
H952 H 0.69136 0.35033 0.80268 0.0
H953 H 0.69239 0.39748 1.00613 0.0
H954 H 0.74199 0.33496 0.82119 0.0
H955 H 0.74194 0.35418 0.73503 0.0
H956 H 0.72115 0.33622 0.74121 0.0
H957 H 0.74325 0.39181 0.0718 0.0
H958 H 0.7226 0.40999 0.06939 0.0
H959 H 0.74292 0.41132 0.98698 0.0
C960 C 0.88953 0.70113 0.70346 0.0
C961 C 0.8751 0.69027 0.65216 0.0
C962 C 0.88992 0.72257 0.70262 0.0
C963 C 0.87571 0.73337 0.6483 0.0
C964 C 0.86123 0.72249 0.59578 0.0
C965 C 0.86103 0.7011 0.59878 0.0
C966 C 0.90542 0.73366 0.7604 0.0
C967 C 0.84598 0.73345 0.53617 0.0
C968 C 0.86293 0.78852 0.70397 0.0
C969 C 0.87506 0.79914 0.64125 0.0
C970 C 0.86328 0.76714 0.70806 0.0
C971 C 0.87579 0.75608 0.6469 0.0
C972 C 0.88801 0.7667 0.58319 0.0
C973 C 0.88763 0.78812 0.58166 0.0
C974 C 0.85025 0.75637 0.77785 0.0
C975 C 0.9013 0.75543 0.51592 0.0
H976 H 0.90041 0.6929 0.74517 0.0
H977 H 0.84992 0.69286 0.55832 0.0
H978 H 0.9152 0.74339 0.71678 0.0
H979 H 0.89752 0.74388 0.80925 0.0
H980 H 0.91534 0.72302 0.79922 0.0
H981 H 0.83603 0.72273 0.49793 0.0
H982 H 0.8362 0.7435 0.57842 0.0
H983 H 0.85408 0.74333 0.48668 0.0
H984 H 0.85334 0.79695 0.7509 0.0
H985 H 0.89697 0.79623 0.53273 0.0
H986 H 0.85991 0.74642 0.82113 0.0
H987 H 0.83898 0.74642 0.74317 0.0
H988 H 0.8419 0.76723 0.82246 0.0
H989 H 0.91232 0.74557 0.55262 0.0
H990 H 0.90993 0.76595 0.47091 0.0
H991 H 0.89174 0.74532 0.47284 0.0
C992 C 0.78814 0.12668 0.35211 0.0
C993 C 0.79972 0.11389 0.40857 0.0
C994 C 0.76675 0.12604 0.35312 0.0
C995 C 0.75666 0.11251 0.41311 0.0
C996 C 0.76825 0.09952 0.47022 0.0
C997 C 0.78966 0.10024 0.46674 0.0
C998 C 0.75495 0.13993 0.29022 0.0
C999 C 0.75803 0.0851 0.53604 0.0
C1000 C 0.70226 0.1266 0.47582 0.0
C1001 C 0.69089 0.11349 0.41982 0.0
C1002 C 0.72365 0.12609 0.47583 0.0
C1003 C 0.73397 0.11236 0.41738 0.0
C1004 C 0.72261 0.09899 0.36105 0.0
C1005 C 0.70119 0.09961 0.36346 0.0
C1006 C 0.73522 0.14037 0.5379 0.0
C1007 C 0.73307 0.08433 0.29692 0.0
H1008 H 0.79579 0.13714 0.30634 0.0
H1009 H 0.7985 0.09038 0.5109 0.0
H1010 H 0.74445 0.13082 0.24708 0.0
H1011 H 0.74545 0.15061 0.3307 0.0
H1012 H 0.76509 0.149 0.2452 0.0
H1013 H 0.76922 0.07585 0.57513 0.0
H1014 H 0.74853 0.09387 0.58479 0.0
H1015 H 0.7477 0.07461 0.49877 0.0
H1016 H 0.69442 0.13723 0.52026 0.0
H1017 H 0.69252 0.08949 0.31972 0.0
H1018 H 0.74453 0.15106 0.49674 0.0
H1019 H 0.74587 0.13159 0.58159 0.0
H1020 H 0.72492 0.14943 0.58235 0.0
H1021 H 0.74242 0.09296 0.24717 0.0
H1022 H 0.72205 0.07467 0.2589 0.0
H1023 H 0.74358 0.07425 0.33534 0.0
C1024 C 0.1265 0.28821 0.61973 0.0
C1025 C 0.11372 0.29953 0.67739 0.0
C1026 C 0.12604 0.26681 0.6195 0.0
C1027 C 0.11272 0.25644 0.67943 0.0
C1028 C 0.09978 0.26776 0.73791 0.0
C1029 C 0.10031 0.28919 0.73565 0.0
C1030 C 0.13985 0.25531 0.55512 0.0
C1031 C 0.08558 0.25722 0.80369 0.0
C1032 C 0.09966 0.20122 0.62529 0.0
C1033 C 0.11362 0.19063 0.68016 0.0
C1034 C 0.0991 0.22264 0.62477 0.0
C1035 C 0.11259 0.23373 0.68154 0.0
C1036 C 0.12646 0.22312 0.7383 0.0
C1037 C 0.12692 0.20171 0.73639 0.0
C1038 C 0.08431 0.23341 0.56231 0.0
C1039 C 0.1409 0.23439 0.80074 0.0
H1040 H 0.13678 0.29608 0.57388 0.0
H1041 H 0.09048 0.29784 0.78073 0.0
H1042 H 0.15059 0.24563 0.59436 0.0
H1043 H 0.13069 0.24502 0.51125 0.0
H1044 H 0.14885 0.26567 0.5108 0.0
H1045 H 0.07649 0.26822 0.84453 0.0
H1046 H 0.07496 0.24709 0.76608 0.0
H1047 H 0.0945 0.24746 0.85084 0.0
H1048 H 0.0894 0.19277 0.58137 0.0
H1049 H 0.13761 0.19365 0.77968 0.0
H1050 H 0.09282 0.24308 0.51336 0.0
H1051 H 0.07425 0.24367 0.60225 0.0
H1052 H 0.07463 0.22257 0.52336 0.0
H1053 H 0.15145 0.24394 0.75998 0.0
H1054 H 0.15009 0.22387 0.84356 0.0
H1055 H 0.13221 0.24479 0.84603 0.0
C1056 C 0.28987 0.88695 0.34809 0.0
C1057 C 0.30021 0.8747 0.41137 0.0
C1058 C 0.26847 0.887 0.34338 0.0
C1059 C 0.25712 0.87469 0.40416 0.0
C1060 C 0.26746 0.86234 0.4684 0.0
C1061 C 0.28887 0.8624 0.47086 0.0
C1062 C 0.25801 0.90021 0.27327 0.0
C1063 C 0.25589 0.8492 0.53511 0.0
C1064 C 0.20212 0.8896 0.45151 0.0
C1065 C 0.19129 0.87546 0.39838 0.0
C1066 C 0.22352 0.88946 0.4542 0.0
C1067 C 0.23441 0.875 0.40163 0.0
C1068 C 0.2236 0.86081 0.34711 0.0
C1069 C 0.20217 0.86113 0.34658 0.0
C1070 C 0.23447 0.90469 0.51399 0.0
C1071 C 0.23469 0.84532 0.28929 0.0
H1072 H 0.29848 0.89639 0.30137 0.0
H1073 H 0.29672 0.85295 0.52024 0.0
H1074 H 0.24809 0.89068 0.2292 0.0
H1075 H 0.24806 0.91153 0.30761 0.0
H1076 H 0.26904 0.9085 0.2295 0.0
H1077 H 0.2662 0.84047 0.58078 0.0
H1078 H 0.24575 0.85887 0.57753 0.0
H1079 H 0.24603 0.83826 0.49787 0.0
H1080 H 0.19388 0.90065 0.49228 0.0
H1081 H 0.19395 0.85022 0.30498 0.0
H1082 H 0.24478 0.91427 0.47214 0.0
H1083 H 0.24409 0.89654 0.56442 0.0
H1084 H 0.22376 0.91484 0.55118 0.0
H1085 H 0.24513 0.85319 0.2414 0.0
H1086 H 0.22406 0.83559 0.24941 0.0
H1087 H 0.24419 0.83534 0.3331 0.0
C1088 C 0.21064 0.14049 0.79071 0.0
C1089 C 0.19539 0.12727 0.82194 0.0
C1090 C 0.23007 0.14064 0.83085 0.0
C1091 C 0.23433 0.12722 0.90396 0.0
C1092 C 0.21894 0.11385 0.93582 0.0
C1093 C 0.19962 0.11404 0.89437 0.0
C1094 C 0.24604 0.15516 0.79511 0.0
C1095 C 0.22288 0.09935 1.01368 0.0
C1096 C 0.28982 0.1149 0.95636 0.0
C1097 C 0.29368 0.12782 1.03042 0.0
C1098 C 0.27055 0.11452 0.91451 0.0
C1099 C 0.25483 0.12736 0.94769 0.0
C1100 C 0.25872 0.14048 1.02235 0.0
C1101 C 0.27812 0.14055 0.06281 0.0
C1102 C 0.267 0.10036 0.83495 0.0
C1103 C 0.24239 0.15445 0.0595 0.0
H1104 H 0.20739 0.15074 0.73465 0.0
H1105 H 0.18783 0.10381 0.9186 0.0
H1106 H 0.25115 0.16552 0.85037 0.0
H1107 H 0.25962 0.1465 0.77183 0.0
H1108 H 0.24032 0.16454 0.73756 0.0
H1109 H 0.20931 0.08991 1.0302 0.0
H1110 H 0.23575 0.08905 0.99646 0.0
H1111 H 0.22736 0.10804 0.07538 0.0
H1112 H 0.30186 0.10506 0.9312 0.0
H1113 H 0.2811 0.15055 0.12012 0.0
H1114 H 0.26224 0.10926 0.77432 0.0
H1115 H 0.25444 0.08961 0.85099 0.0
H1116 H 0.28083 0.0914 0.81725 0.0
H1117 H 0.23703 0.16493 1.00529 0.0
H1118 H 0.24788 0.1637 0.11798 0.0
H1119 H 0.22904 0.14535 0.08192 0.0
C1120 C 0.14466 0.7113 1.03211 0.0
C1121 C 0.13007 0.69664 0.05588 0.0
C1122 C 0.14514 0.7304 0.07545 0.0
C1123 C 0.13058 0.73494 0.14371 0.0
C1124 C 0.11596 0.72006 0.1687 0.0
C1125 C 0.11593 0.70103 0.1246 0.0
C1126 C 0.16107 0.74579 0.04745 0.0
C1127 C 0.10014 0.72435 0.24085 0.0
C1128 C 0.14088 0.77884 0.30718 0.0
C1129 C 0.12941 0.79456 0.26778 0.0
C1130 C 0.14147 0.75934 0.2674 0.0
C1131 C 0.13023 0.75552 0.18678 0.0
C1132 C 0.11864 0.7714 0.14685 0.0
C1133 C 0.11844 0.79076 0.18769 0.0
C1134 C 0.15415 0.74284 0.31149 0.0
C1135 C 0.10637 0.76794 0.06116 0.0
H1136 H 0.15567 0.70789 0.9792 0.0
H1137 H 0.10466 0.68968 0.14318 0.0
H1138 H 0.15356 0.75952 1.01876 0.0
H1139 H 0.16996 0.7508 0.10776 0.0
H1140 H 0.1718 0.73958 0.99585 0.0
H1141 H 0.09022 0.71095 0.25422 0.0
H1142 H 0.10767 0.72887 0.30543 0.0
H1143 H 0.09039 0.73732 0.21925 0.0
H1144 H 0.1494 0.78179 0.36906 0.0
H1145 H 0.10957 0.80292 0.15707 0.0
H1146 H 0.16569 0.73708 0.26255 0.0
H1147 H 0.1443 0.72974 0.33028 0.0
H1148 H 0.16213 0.74832 0.37359 0.0
H1149 H 0.11657 0.76297 1.00511 0.0
H1150 H 0.09808 0.78187 0.03906 0.0
H1151 H 0.09512 0.75555 0.07236 0.0
C1152 C 0.70045 0.85049 0.92919 0.0
C1153 C 0.69645 0.86445 0.99922 0.0
C1154 C 0.71963 0.84986 0.88673 0.0
C1155 C 0.73512 0.86353 0.91511 0.0
C1156 C 0.73111 0.87766 0.98584 0.0
C1157 C 0.7118 0.87795 1.02705 0.0
C1158 C 0.72332 0.8346 0.81146 0.0
C1159 C 0.74719 0.89252 1.01781 0.0
C1160 C 0.79052 0.85103 0.86188 0.0
C1161 C 0.7941 0.86334 0.78564 0.0
C1162 C 0.77135 0.85086 0.90456 0.0
C1163 C 0.75545 0.86329 0.86999 0.0
C1164 C 0.75904 0.87573 0.7929 0.0
C1165 C 0.77835 0.8756 0.75166 0.0
C1166 C 0.76812 0.83741 0.98671 0.0
C1167 C 0.74251 0.88924 0.75416 0.0
H1168 H 0.68857 0.84005 0.90756 0.0
H1169 H 0.70872 0.88876 0.08125 0.0
H1170 H 0.72752 0.84268 0.74782 0.0
H1171 H 0.7363 0.82453 0.82964 0.0
H1172 H 0.70972 0.82496 0.79781 0.0
H1173 H 0.74167 0.90243 0.07406 0.0
H1174 H 0.76087 0.88411 0.0416 0.0
H1175 H 0.75205 0.90237 0.96039 0.0
H1176 H 0.80272 0.84155 0.88825 0.0
H1177 H 0.7811 0.88513 0.69266 0.0
H1178 H 0.7555 0.82654 0.97345 0.0
H1179 H 0.7636 0.84685 0.0461 0.0
H1180 H 0.78202 0.82862 1.0049 0.0
H1181 H 0.7291 0.87988 0.73467 0.0
H1182 H 0.74773 0.89787 0.69345 0.0
H1183 H 0.73734 0.90028 0.80658 0.0
C1184 C 0.84895 0.27726 0.9961 0.0
C1185 C 0.86048 0.29303 1.03478 0.0
C1186 C 0.84846 0.25781 0.03624 0.0
C1187 C 0.85989 0.25411 0.11644 0.0
C1188 C 0.87154 0.27004 0.15562 0.0
C1189 C 0.87163 0.28934 0.11446 0.0
C1190 C 0.83571 0.24125 0.99302 0.0
C1191 C 0.884 0.26669 0.24085 0.0
C1192 C 0.84596 0.2102 0.27305 0.0
C1193 C 0.86057 0.19556 0.24916 0.0
C1194 C 0.84528 0.22918 0.22901 0.0
C1195 C 0.85966 0.23362 0.1599 0.0
C1196 C 0.87428 0.21873 0.13471 0.0
C1197 C 0.87452 0.19983 0.17956 0.0
C1198 C 0.82936 0.24459 0.25724 0.0
C1199 C 0.88991 0.22292 0.06162 0.0
H1200 H 0.84029 0.28013 0.93455 0.0
H1201 H 0.88055 0.30154 0.1445 0.0
H1202 H 0.84553 0.22813 0.97409 0.0
H1203 H 0.82428 0.23557 0.04254 0.0
H1204 H 0.8276 0.24664 0.93114 0.0
H1205 H 0.89233 0.28065 0.26232 0.0
H1206 H 0.87393 0.26181 0.29743 0.0
H1207 H 0.89524 0.25429 0.22941 0.0
H1208 H 0.8351 0.20687 0.32663 0.0
H1209 H 0.8858 0.18847 0.16086 0.0
H1210 H 0.82036 0.2495 0.19715 0.0
H1211 H 0.83689 0.25837 0.28542 0.0
H1212 H 0.81874 0.23844 0.30934 0.0
H1213 H 0.88221 0.22736 0.99737 0.0
H1214 H 0.89979 0.20949 0.04793 0.0
H1215 H 0.89972 0.2359 0.08249 0.0
C1216 C 0.27839 0.35003 0.27846 0.0
C1217 C 0.29393 0.36153 0.31909 0.0
C1218 C 0.25876 0.34938 0.31673 0.0
C1219 C 0.25464 0.36061 0.3971 0.0
C1220 C 0.27035 0.37221 0.43837 0.0
C1221 C 0.28983 0.37247 0.39898 0.0
C1222 C 0.24245 0.33671 0.27127 0.0
C1223 C 0.26656 0.38445 0.52389 0.0
C1224 C 0.2 0.37498 0.45523 0.0
C1225 C 0.19538 0.36082 0.52351 0.0
C1226 C 0.21916 0.37491 0.41249 0.0
C1227 C 0.23393 0.36025 0.43847 0.0
C1228 C 0.22915 0.34567 0.50624 0.0
C1229 C 0.20993 0.34618 0.54818 0.0
C1230 C 0.22371 0.39075 0.34076 0.0
C1231 C 0.24444 0.32971 0.53528 0.0
H1232 H 0.28157 0.34153 0.21671 0.0
H1233 H 0.30186 0.38136 0.43052 0.0
H1234 H 0.23651 0.32517 0.31969 0.0
H1235 H 0.22943 0.34657 0.25139 0.0
H1236 H 0.24817 0.32872 0.20963 0.0
H1237 H 0.2804 0.39271 0.54724 0.0
H1238 H 0.25423 0.39572 0.51176 0.0
H1239 H 0.26137 0.37423 0.5794 0.0
H1240 H 0.18873 0.38629 0.43598 0.0
H1241 H 0.20633 0.33516 0.60077 0.0
H1242 H 0.22847 0.38323 0.27652 0.0
H1243 H 0.23658 0.4005 0.36346 0.0
H1244 H 0.21035 0.40068 0.32635 0.0
H1245 H 0.24967 0.32085 0.47528 0.0
H1246 H 0.23804 0.31896 0.58624 0.0
H1247 H 0.25805 0.3372 0.56518 0.0
C1248 C 0.37486 0.69961 0.69557 0.0
C1249 C 0.36501 0.69632 0.77885 0.0
C1250 C 0.37509 0.71901 0.65533 0.0
C1251 C 0.36504 0.73544 0.69917 0.0
C1252 C 0.35517 0.7322 0.78368 0.0
C1253 C 0.35536 0.71266 0.82276 0.0
C1254 C 0.38591 0.72189 0.56554 0.0
C1255 C 0.34415 0.74929 0.83203 0.0
C1256 C 0.37921 0.78953 0.6306 0.0
C1257 C 0.36367 0.79423 0.56854 0.0
C1258 C 0.37981 0.77047 0.6741 0.0
C1259 C 0.36442 0.75589 0.65533 0.0
C1260 C 0.34855 0.76072 0.59355 0.0
C1261 C 0.34841 0.77984 0.55067 0.0
C1262 C 0.39701 0.76584 0.73928 0.0
C1263 C 0.33179 0.74565 0.57232 0.0
H1264 H 0.38236 0.68697 0.66164 0.0
H1265 H 0.34769 0.7101 0.88712 0.0
H1266 H 0.37487 0.7269 0.51284 0.0
H1267 H 0.3976 0.73405 0.57192 0.0
H1268 H 0.39347 0.70769 0.54166 0.0
H1269 H 0.33756 0.74433 0.89806 0.0
H1270 H 0.35475 0.76217 0.84478 0.0
H1271 H 0.33165 0.75516 0.78832 0.0
H1272 H 0.39101 0.80069 0.64457 0.0
H1273 H 0.33635 0.7835 0.50284 0.0
H1274 H 0.4058 0.75248 0.71449 0.0
H1275 H 0.39078 0.76178 0.8071 0.0
H1276 H 0.40761 0.77894 0.74742 0.0
H1277 H 0.33841 0.73163 0.5419 0.0
H1278 H 0.3203 0.75196 0.5244 0.0
H1279 H 0.32393 0.74107 0.63597 0.0
C1280 C 0.70016 0.61535 0.37063 0.0
C1281 C 0.69643 0.6285 0.29737 0.0
C1282 C 0.71937 0.61478 0.41292 0.0
C1283 C 0.73515 0.62768 0.38099 0.0
C1284 C 0.73138 0.64104 0.30717 0.0
C1285 C 0.71204 0.64129 0.26622 0.0
C1286 C 0.72279 0.60037 0.49159 0.0
C1287 C 0.74779 0.65507 0.27142 0.0
C1288 C 0.77909 0.64012 0.54017 0.0
C1289 C 0.79433 0.62692 0.50848 0.0
C1290 C 0.75974 0.64049 0.49942 0.0
C1291 C 0.75557 0.62733 0.42521 0.0
C1292 C 0.77095 0.61398 0.39287 0.0
C1293 C 0.79018 0.61394 0.43499 0.0
C1294 C 0.74376 0.65497 0.53567 0.0
C1295 C 0.76708 0.59976 0.31382 0.0
H1296 H 0.68808 0.60546 0.3948 0.0
H1297 H 0.70916 0.65147 0.20952 0.0
H1298 H 0.73534 0.58963 0.47511 0.0
H1299 H 0.72749 0.60907 0.55294 0.0
H1300 H 0.70891 0.5914 0.50834 0.0
H1301 H 0.7424 0.66453 0.21348 0.0
H1302 H 0.75312 0.66536 0.32651 0.0
H1303 H 0.76115 0.646 0.24869 0.0
H1304 H 0.78229 0.65017 0.59705 0.0
H1305 H 0.80198 0.60374 0.4104 0.0
H1306 H 0.73012 0.6463 0.55795 0.0
H1307 H 0.73877 0.66552 0.48099 0.0
H1308 H 0.74943 0.66415 0.59404 0.0
H1309 H 0.75416 0.58945 0.32992 0.0
H1310 H 0.78065 0.59033 0.29697 0.0
H1311 H 0.7627 0.60866 0.25266 0.0
C1312 C 0.64335 0.21025 0.54798 0.0
C1313 C 0.62882 0.19552 0.57173 0.0
C1314 C 0.64348 0.22949 0.59004 0.0
C1315 C 0.62863 0.23412 0.65696 0.0
C1316 C 0.61407 0.21917 0.68191 0.0
C1317 C 0.61439 0.2 0.63912 0.0
C1318 C 0.65935 0.24495 0.56214 0.0
C1319 C 0.59795 0.22355 0.75267 0.0
C1320 C 0.63817 0.27849 0.81863 0.0
C1321 C 0.62675 0.29405 0.77774 0.0
C1322 C 0.63897 0.25889 0.78 0.0
C1323 C 0.62798 0.25479 0.69895 0.0
C1324 C 0.61641 0.2705 0.65757 0.0
C1325 C 0.61599 0.28998 0.69735 0.0
C1326 C 0.65161 0.24258 0.8257 0.0
C1327 C 0.60442 0.26674 0.57136 0.0
H1328 H 0.65457 0.20677 0.49607 0.0
H1329 H 0.60316 0.1886 0.65764 0.0
H1330 H 0.65181 0.25854 0.53234 0.0
H1331 H 0.66802 0.25018 0.6227 0.0
H1332 H 0.67028 0.2387 0.51148 0.0
H1333 H 0.58807 0.21011 0.76601 0.0
H1334 H 0.60522 0.22827 0.81755 0.0
H1335 H 0.5882 0.23639 0.72972 0.0
H1336 H 0.64653 0.28165 0.88075 0.0
H1337 H 0.60715 0.30201 0.66559 0.0
H1338 H 0.66337 0.23681 0.77784 0.0
H1339 H 0.6418 0.22945 0.84436 0.0
H1340 H 0.65933 0.24826 0.88811 0.0
H1341 H 0.61482 0.26173 0.51614 0.0
H1342 H 0.59608 0.28055 0.54816 0.0
H1343 H 0.59323 0.25429 0.58248 0.0
C1344 C 0.38192 0.13092 0.47087 0.0
C1345 C 0.36352 0.12352 0.43504 0.0
C1346 C 0.38568 0.13079 0.56589 0.0
C1347 C 0.37089 0.12262 0.62669 0.0
C1348 C 0.35255 0.11463 0.59001 0.0
C1349 C 0.349 0.11545 0.49538 0.0
C1350 C 0.40526 0.13987 0.60144 0.0
C1351 C 0.33656 0.1052 0.65083 0.0
C1352 C 0.38791 0.10572 0.86525 0.0
C1353 C 0.38038 0.12141 0.92108 0.0
C1354 C 0.38483 0.10585 0.77007 0.0
C1355 C 0.37445 0.12239 0.72839 0.0
C1356 C 0.36689 0.13835 0.78463 0.0
C1357 C 0.36967 0.13752 0.8801 0.0
C1358 C 0.39258 0.08814 0.71413 0.0
C1359 C 0.35608 0.15649 0.74378 0.0
H1360 H 0.39309 0.13742 0.42496 0.0
H1361 H 0.33474 0.10966 0.46835 0.0
H1362 H 0.40174 0.15273 0.64803 0.0
H1363 H 0.41381 0.12834 0.6414 0.0
H1364 H 0.41524 0.14553 0.54582 0.0
H1365 H 0.32361 0.09872 0.61154 0.0
H1366 H 0.34347 0.09289 0.69253 0.0
H1367 H 0.33051 0.11683 0.69859 0.0
H1368 H 0.39615 0.09319 0.89629 0.0
H1369 H 0.36394 0.1498 0.92247 0.0
H1370 H 0.40381 0.09359 0.66326 0.0
H1371 H 0.37977 0.08111 0.67594 0.0
H1372 H 0.39992 0.07622 0.75673 0.0
H1373 H 0.36592 0.16374 0.69157 0.0
H1374 H 0.352 0.16811 0.7958 0.0
H1375 H 0.34192 0.15145 0.70906 0.0
C1376 C 0.11667 0.64291 0.5833 0.0
C1377 C 0.12412 0.62801 0.64345 0.0
C1378 C 0.11554 0.63941 0.48868 0.0
C1379 C 0.1226 0.6207 0.45179 0.0
C1380 C 0.13014 0.60553 0.51238 0.0
C1381 C 0.13057 0.60926 0.60742 0.0
C1382 C 0.10679 0.65584 0.4281 0.0
C1383 C 0.13823 0.58554 0.47658 0.0
C1384 C 0.10465 0.60455 0.21335 0.0
C1385 C 0.12061 0.61135 0.15734 0.0
C1386 C 0.10503 0.6076 0.30857 0.0
C1387 C 0.12208 0.61718 0.35006 0.0
C1388 C 0.1383 0.62399 0.29362 0.0
C1389 C 0.13724 0.62128 0.19816 0.0
C1390 C 0.08704 0.6007 0.36474 0.0
C1391 C 0.15697 0.63392 0.33424 0.0
H1392 H 0.11159 0.65743 0.61047 0.0
H1393 H 0.13657 0.59777 0.65318 0.0
H1394 H 0.11863 0.66135 0.38015 0.0
H1395 H 0.09412 0.64954 0.3866 0.0
H1396 H 0.10097 0.66908 0.46756 0.0
H1397 H 0.14352 0.5753 0.53204 0.0
H1398 H 0.12626 0.57754 0.43692 0.0
H1399 H 0.15117 0.58844 0.42964 0.0
H1400 H 0.09172 0.59691 0.18244 0.0
H1401 H 0.14972 0.62644 0.15566 0.0
H1402 H 0.08066 0.61383 0.40308 0.0
H1403 H 0.09201 0.58921 0.41548 0.0
H1404 H 0.07475 0.59394 0.32228 0.0
H1405 H 0.15264 0.64831 0.36902 0.0
H1406 H 0.16871 0.63744 0.28206 0.0
H1407 H 0.1638 0.62374 0.38634 0.0
C1408 C 0.63732 0.87784 0.46132 0.0
C1409 C 0.62519 0.866 0.40288 0.0
C1410 C 0.63374 0.87848 0.5559 0.0
C1411 C 0.61817 0.86624 0.59459 0.0
C1412 C 0.60593 0.85409 0.53566 0.0
C1413 C 0.60933 0.85441 0.44042 0.0
C1414 C 0.64657 0.89243 0.61436 0.0
C1415 C 0.58958 0.84031 0.57345 0.0
C1416 C 0.6225 0.85512 0.85148 0.0
C1417 C 0.60729 0.86778 0.88766 0.0
C1418 C 0.62597 0.85414 0.75638 0.0
C1419 C 0.61445 0.86664 0.6961 0.0
C1420 C 0.59956 0.87994 0.73333 0.0
C1421 C 0.59588 0.87998 0.82789 0.0
C1422 C 0.64157 0.83928 0.72021 0.0
C1423 C 0.58752 0.89425 0.67332 0.0
H1424 H 0.64962 0.88683 0.43264 0.0
H1425 H 0.60015 0.84496 0.39581 0.0
H1426 H 0.63659 0.90275 0.65445 0.0
H1427 H 0.65561 0.88334 0.66356 0.0
H1428 H 0.65723 0.90186 0.57336 0.0
H1429 H 0.58201 0.83114 0.51952 0.0
H1430 H 0.59632 0.82979 0.62445 0.0
H1431 H 0.57781 0.8495 0.60897 0.0
H1432 H 0.63104 0.84532 0.89705 0.0
H1433 H 0.58405 0.88976 0.85549 0.0
H1434 H 0.65364 0.84756 0.68244 0.0
H1435 H 0.63419 0.82864 0.67148 0.0
H1436 H 0.64887 0.83026 0.77531 0.0
H1437 H 0.59806 0.90373 0.63207 0.0
H1438 H 0.57744 0.90453 0.71324 0.0
H1439 H 0.57796 0.8854 0.62517 0.0
C1440 C 0.87572 0.3975 0.21928 0.0
C1441 C 0.86719 0.38334 0.15836 0.0
C1442 C 0.87617 0.39391 0.31393 0.0
C1443 C 0.86735 0.3759 0.35004 0.0
C1444 C 0.85873 0.36147 0.28864 0.0
C1445 C 0.85893 0.36527 0.19367 0.0
C1446 C 0.88609 0.40949 0.37542 0.0
C1447 C 0.84883 0.34224 0.32345 0.0
C1448 C 0.88316 0.35815 0.58898 0.0
C1449 C 0.86769 0.36624 0.6444 0.0
C1450 C 0.88331 0.36127 0.49387 0.0
C1451 C 0.86725 0.3723 0.45174 0.0
C1452 C 0.85151 0.38044 0.50756 0.0
C1453 C 0.85207 0.37758 0.60306 0.0
C1454 C 0.90079 0.35286 0.43851 0.0
C1455 C 0.83387 0.39196 0.46618 0.0
H1456 H 0.88213 0.41152 0.19269 0.0
H1457 H 0.85197 0.35443 0.1474 0.0
H1458 H 0.87462 0.41597 0.42277 0.0
H1459 H 0.89805 0.4021 0.41751 0.0
H1460 H 0.89314 0.4222 0.33662 0.0
H1461 H 0.843 0.33245 0.26738 0.0
H1462 H 0.85989 0.33328 0.36427 0.0
H1463 H 0.83594 0.34624 0.36907 0.0
H1464 H 0.89533 0.34942 0.62032 0.0
H1465 H 0.83995 0.38374 0.64511 0.0
H1466 H 0.90835 0.36539 0.40057 0.0
H1467 H 0.89499 0.34182 0.38745 0.0
H1468 H 0.91237 0.34509 0.48149 0.0
H1469 H 0.83951 0.40589 0.43157 0.0
H1470 H 0.82237 0.39653 0.51787 0.0
H1471 H 0.82629 0.38239 0.41379 0.0
C1472 C 0.39873 0.37829 0.50672 0.0
C1473 C 0.38462 0.36968 0.44585 0.0
C1474 C 0.39521 0.37862 0.60144 0.0
C1475 C 0.37732 0.3696 0.63765 0.0
C1476 C 0.36294 0.36088 0.57631 0.0
C1477 C 0.36666 0.36121 0.48127 0.0
C1478 C 0.41073 0.38867 0.66286 0.0
C1479 C 0.34383 0.35076 0.61123 0.0
C1480 C 0.37916 0.35434 0.89072 0.0
C1481 C 0.36765 0.36985 0.93203 0.0
C1482 C 0.38204 0.35381 0.7952 0.0
C1483 C 0.37374 0.36947 0.73938 0.0
C1484 C 0.36256 0.38543 0.78152 0.0
C1485 C 0.35942 0.38525 0.87661 0.0
C1486 C 0.39373 0.33628 0.7538 0.0
C1487 C 0.35398 0.40283 0.72618 0.0
H1488 H 0.41267 0.38487 0.48005 0.0
H1489 H 0.35584 0.3542 0.43502 0.0
H1490 H 0.40325 0.40057 0.70499 0.0
H1491 H 0.4173 0.37724 0.71019 0.0
H1492 H 0.42338 0.39581 0.62401 0.0
H1493 H 0.33412 0.34477 0.55523 0.0
H1494 H 0.34799 0.33795 0.657 0.0
H1495 H 0.33474 0.36174 0.65192 0.0
H1496 H 0.38542 0.34228 0.93277 0.0
H1497 H 0.35056 0.39733 0.90793 0.0
H1498 H 0.40758 0.34206 0.71905 0.0
H1499 H 0.38422 0.32858 0.70151 0.0
H1500 H 0.39843 0.32484 0.8055 0.0
H1501 H 0.36643 0.41048 0.6881 0.0
H1502 H 0.34614 0.41436 0.7692 0.0
H1503 H 0.34297 0.39693 0.67525 0.0
C1504 C 0.34247 0.62885 0.21452 0.0
C1505 C 0.35793 0.62104 0.15828 0.0
C1506 C 0.34271 0.62577 0.30957 0.0
C1507 C 0.35907 0.61501 0.35056 0.0
C1508 C 0.37476 0.60707 0.29388 0.0
C1509 C 0.37387 0.60995 0.19855 0.0
C1510 C 0.32534 0.63402 0.36618 0.0
C1511 C 0.39266 0.59576 0.33413 0.0
C1512 C 0.36853 0.62266 0.60695 0.0
C1513 C 0.36043 0.60469 0.64388 0.0
C1514 C 0.36827 0.62623 0.51193 0.0
C1515 C 0.35946 0.6116 0.45215 0.0
C1516 C 0.35092 0.59363 0.48976 0.0
C1517 C 0.35174 0.59031 0.58451 0.0
C1518 C 0.37789 0.64545 0.47533 0.0
C1519 C 0.34093 0.57778 0.42981 0.0
H1520 H 0.33007 0.63738 0.18397 0.0
H1521 H 0.38595 0.60399 0.15577 0.0
H1522 H 0.31808 0.62143 0.40486 0.0
H1523 H 0.33122 0.64516 0.41664 0.0
H1524 H 0.31351 0.64163 0.32401 0.0
H1525 H 0.40398 0.5912 0.28163 0.0
H1526 H 0.40039 0.60547 0.38556 0.0
H1527 H 0.38728 0.58185 0.36966 0.0
H1528 H 0.37579 0.63354 0.65179 0.0
H1529 H 0.34551 0.57633 0.61239 0.0
H1530 H 0.36657 0.65424 0.43515 0.0
H1531 H 0.39058 0.64143 0.42871 0.0
H1532 H 0.38391 0.65541 0.53037 0.0
H1533 H 0.32869 0.58493 0.38851 0.0
H1534 H 0.33424 0.56506 0.46974 0.0
H1535 H 0.35228 0.57136 0.38167 0.0
C1536 C 0.60842 0.6316 0.85551 0.0
C1537 C 0.62693 0.62448 0.8913 0.0
C1538 C 0.60464 0.63136 0.76051 0.0
C1539 C 0.61954 0.62338 0.69968 0.0
C1540 C 0.63802 0.61569 0.7363 0.0
C1541 C 0.64156 0.6166 0.83092 0.0
C1542 C 0.58491 0.64012 0.72504 0.0
C1543 C 0.65414 0.60647 0.67542 0.0
C1544 C 0.60277 0.60615 0.46109 0.0
C1545 C 0.61006 0.62193 0.4053 0.0
C1546 C 0.60585 0.60636 0.55628 0.0
C1547 C 0.61597 0.62307 0.59798 0.0
C1548 C 0.62327 0.63912 0.54177 0.0
C1549 C 0.62051 0.63821 0.44632 0.0
C1550 C 0.59839 0.58855 0.61219 0.0
C1551 C 0.6338 0.65743 0.58265 0.0
H1552 H 0.59716 0.63797 0.90143 0.0
H1553 H 0.65591 0.61102 0.85791 0.0
H1554 H 0.58821 0.65306 0.67861 0.0
H1555 H 0.57656 0.62847 0.6849 0.0
H1556 H 0.57483 0.64561 0.7807 0.0
H1557 H 0.6672 0.60021 0.71466 0.0
H1558 H 0.64743 0.59403 0.63378 0.0
H1559 H 0.66 0.61817 0.62761 0.0
H1560 H 0.59473 0.59348 0.43001 0.0
H1561 H 0.62605 0.65056 0.40398 0.0
H1562 H 0.58708 0.59385 0.66312 0.0
H1563 H 0.61131 0.58172 0.65031 0.0
H1564 H 0.59123 0.57652 0.56958 0.0
H1565 H 0.62385 0.66455 0.63492 0.0
H1566 H 0.63768 0.6691 0.53065 0.0
H1567 H 0.64804 0.65262 0.61729 0.0
C1568 C 0.62828 0.36668 0.61457 0.0
C1569 C 0.62043 0.38495 0.65003 0.0
C1570 C 0.6284 0.3629 0.51957 0.0
C1571 C 0.62013 0.37754 0.45831 0.0
C1572 C 0.61172 0.39575 0.49457 0.0
C1573 C 0.61223 0.39931 0.58925 0.0
C1574 C 0.63787 0.34344 0.48457 0.0
C1575 C 0.60216 0.41157 0.43322 0.0
C1576 C 0.63553 0.37892 0.20546 0.0
C1577 C 0.61965 0.36798 0.16388 0.0
C1578 C 0.63613 0.38174 0.30099 0.0
C1579 C 0.62018 0.37396 0.35659 0.0
C1580 C 0.60387 0.36335 0.31422 0.0
C1581 C 0.60397 0.36026 0.21908 0.0
C1582 C 0.65401 0.39281 0.34264 0.0
C1583 C 0.58618 0.35535 0.36937 0.0
H1584 H 0.63497 0.35567 0.66077 0.0
H1585 H 0.60614 0.41348 0.61596 0.0
H1586 H 0.62663 0.33477 0.44351 0.0
H1587 H 0.65087 0.34715 0.43914 0.0
H1588 H 0.64344 0.3335 0.54055 0.0
H1589 H 0.59539 0.42444 0.47214 0.0
H1590 H 0.6138 0.41778 0.38601 0.0
H1591 H 0.59005 0.40447 0.39097 0.0
H1592 H 0.6478 0.38478 0.16357 0.0
H1593 H 0.59161 0.35183 0.18754 0.0
H1594 H 0.66136 0.38304 0.39491 0.0
H1595 H 0.64869 0.40685 0.37747 0.0
H1596 H 0.66563 0.39712 0.29108 0.0
H1597 H 0.59171 0.34415 0.42031 0.0
H1598 H 0.57444 0.34787 0.32621 0.0
H1599 H 0.57891 0.36804 0.40743 0.0
C1600 C 0.84995 0.61412 0.97152 0.0
C1601 C 0.86444 0.62232 0.9114 0.0
C1602 C 0.85351 0.61316 0.0661 0.0
C1603 C 0.87185 0.62113 0.10295 0.0
C1604 C 0.88662 0.6294 0.04238 0.0
C1605 C 0.88284 0.62969 0.94738 0.0
C1606 C 0.83754 0.60364 0.12668 0.0
C1607 C 0.9062 0.63844 0.07815 0.0
C1608 C 0.87049 0.63577 0.35654 0.0
C1609 C 0.88116 0.61962 0.39735 0.0
C1610 C 0.86778 0.6367 0.26108 0.0
C1611 C 0.87539 0.6208 0.20464 0.0
C1612 C 0.88575 0.60422 0.24612 0.0
C1613 C 0.88875 0.60399 0.34135 0.0
C1614 C 0.85697 0.65487 0.22046 0.0
C1615 C 0.89354 0.58658 0.18992 0.0
H1616 H 0.8357 0.60835 0.94437 0.0
H1617 H 0.89399 0.6363 0.90166 0.0
H1618 H 0.84446 0.5913 0.16818 0.0
H1619 H 0.83145 0.61521 0.17462 0.0
H1620 H 0.82461 0.59716 0.08722 0.0
H1621 H 0.91622 0.64409 1.02265 0.0
H1622 H 0.90267 0.65132 0.12467 0.0
H1623 H 0.9147 0.62691 0.11827 0.0
H1624 H 0.86472 0.64801 0.39905 0.0
H1625 H 0.89698 0.59143 0.37227 0.0
H1626 H 0.84283 0.64986 0.18561 0.0
H1627 H 0.86682 0.66217 0.16841 0.0
H1628 H 0.85288 0.66645 0.27265 0.0
H1629 H 0.88075 0.57955 0.15159 0.0
H1630 H 0.90091 0.57464 0.23235 0.0
H1631 H 0.90477 0.5921 0.13915 0.0
C1632 C 0.63596 0.12042 0.71504 0.0
C1633 C 0.61987 0.10955 0.67461 0.0
C1634 C 0.63703 0.12318 0.81052 0.0
C1635 C 0.62135 0.11539 0.86757 0.0
C1636 C 0.60484 0.10482 0.82653 0.0
C1637 C 0.60445 0.10181 0.73123 0.0
C1638 C 0.65512 0.13423 0.85051 0.0
C1639 C 0.58743 0.09679 0.88331 0.0
C1640 C 0.63094 0.10801 0.1247 0.0
C1641 C 0.62348 0.12634 0.1612 0.0
C1642 C 0.63045 0.10424 1.02966 0.0
C1643 C 0.62185 0.11892 0.96944 0.0
C1644 C 0.61378 0.13717 1.00684 0.0
C1645 C 0.61498 0.14075 0.10145 0.0
C1646 C 0.63964 0.08476 0.99344 0.0
C1647 C 0.60387 0.15303 0.9468 0.0
H1648 H 0.64804 0.12634 0.67216 0.0
H1649 H 0.59193 0.09343 0.70075 0.0
H1650 H 0.64997 0.14832 0.88556 0.0
H1651 H 0.66267 0.12448 0.90228 0.0
H1652 H 0.66652 0.13849 0.79792 0.0
H1653 H 0.57549 0.0893 0.84125 0.0
H1654 H 0.5932 0.0856 0.93373 0.0
H1655 H 0.58032 0.10948 0.92205 0.0
H1656 H 0.63781 0.09694 0.17005 0.0
H1657 H 0.60913 0.15495 0.12894 0.0
H1658 H 0.65238 0.08845 0.94651 0.0
H1659 H 0.62813 0.07614 0.95367 0.0
H1660 H 0.64552 0.07479 0.04868 0.0
H1661 H 0.61524 0.15931 0.8985 0.0
H1662 H 0.59729 0.16584 0.98667 0.0
H1663 H 0.59155 0.14594 0.90571 0.0
C1664 C 0.11968 0.3537 0.37774 0.0
C1665 C 0.10959 0.37024 0.4185 0.0
C1666 C 0.1224 0.35265 0.28231 0.0
C1667 C 0.11543 0.36882 0.22585 0.0
C1668 C 0.10568 0.38579 0.26728 0.0
C1669 C 0.10263 0.38613 0.36247 0.0
C1670 C 0.13251 0.33407 0.24175 0.0
C1671 C 0.09861 0.40371 0.21108 0.0
C1672 C 0.14118 0.37444 0.99297 0.0
C1673 C 0.12638 0.36685 0.93263 0.0
C1674 C 0.13764 0.37555 0.08753 0.0
C1675 C 0.11899 0.36834 0.12417 0.0
C1676 C 0.10391 0.36065 0.0634 0.0
C1677 C 0.10768 0.36024 0.96842 0.0
C1678 C 0.15396 0.38445 0.14832 0.0
C1679 C 0.08399 0.35239 0.09893 0.0
H1680 H 0.12497 0.34126 0.42026 0.0
H1681 H 0.09486 0.399 0.39336 0.0
H1682 H 0.12242 0.32716 0.18948 0.0
H1683 H 0.14687 0.33852 0.20719 0.0
H1684 H 0.13612 0.32235 0.29393 0.0
H1685 H 0.09172 0.41594 0.2535 0.0
H1686 H 0.11168 0.41022 0.17291 0.0
H1687 H 0.08719 0.39864 0.1602 0.0
H1688 H 0.15566 0.37963 0.96598 0.0
H1689 H 0.09627 0.35413 0.92251 0.0
H1690 H 0.15958 0.37266 0.1963 0.0
H1691 H 0.14752 0.39706 0.18978 0.0
H1692 H 0.16715 0.3904 0.10902 0.0
H1693 H 0.087 0.33947 0.14587 0.0
H1694 H 0.07382 0.34702 0.04334 0.0
H1695 H 0.07588 0.36429 0.13854 0.0
C1696 C 0.37409 0.87998 0.12248 0.0
C1697 C 0.36164 0.86467 0.15911 0.0
C1698 C 0.37496 0.88334 1.02733 0.0
C1699 C 0.36247 0.87168 0.96748 0.0
C1700 C 0.34936 0.85671 1.00517 0.0
C1701 C 0.34947 0.8531 0.09979 0.0
C1702 C 0.38966 0.899 0.99063 0.0
C1703 C 0.33506 0.84454 0.94559 0.0
C1704 C 0.351 0.8947 0.73325 0.0
C1705 C 0.36296 0.88277 0.67459 0.0
C1706 C 0.35034 0.89095 0.82769 0.0
C1707 C 0.36269 0.8754 0.866 0.0
C1708 C 0.37493 0.86331 0.80683 0.0
C1709 C 0.37464 0.86691 0.71175 0.0
C1710 C 0.33632 0.90363 0.88645 0.0
C1711 C 0.38881 0.84698 0.84422 0.0
H1712 H 0.38381 0.8887 0.1678 0.0
H1713 H 0.33983 0.84122 0.12777 0.0
H1714 H 0.40013 0.8917 0.94096 0.0
H1715 H 0.38123 0.91112 0.95383 0.0
H1716 H 0.39889 0.90622 0.04534 0.0
H1717 H 0.32495 0.83437 0.98582 0.0
H1718 H 0.32542 0.85499 0.90457 0.0
H1719 H 0.34392 0.83504 0.89722 0.0
H1720 H 0.34195 0.90701 0.70489 0.0
H1721 H 0.38423 0.85791 0.66705 0.0
H1722 H 0.34537 0.91276 0.93549 0.0
H1723 H 0.32617 0.89353 0.92671 0.0
H1724 H 0.32672 0.91419 0.84566 0.0
H1725 H 0.39967 0.85386 0.89347 0.0
H1726 H 0.39762 0.83915 0.78984 0.0
H1727 H 0.3798 0.83541 0.88171 0.0
C1728 C 0.84949 0.85063 0.32101 0.0
C1729 C 0.86388 0.85885 0.3817 0.0
C1730 C 0.85289 0.85032 0.22623 0.0
C1731 C 0.87097 0.85892 0.18986 0.0
C1732 C 0.88562 0.86725 0.25099 0.0
C1733 C 0.88199 0.86693 0.34606 0.0
C1734 C 0.83707 0.84073 0.16492 0.0
C1735 C 0.90493 0.87695 0.21582 0.0
C1736 C 0.88839 0.84294 0.9508 0.0
C1737 C 0.88062 0.85862 0.89566 0.0
C1738 C 0.88525 0.84278 0.04585 0.0
C1739 C 0.8745 0.859 0.08817 0.0
C1740 C 0.86662 0.87492 1.03264 0.0
C1741 C 0.86952 0.87439 0.93717 0.0
C1742 C 0.89336 0.82512 0.10098 0.0
C1743 C 0.85537 0.8927 0.07428 0.0
H1744 H 0.83543 0.84436 0.34787 0.0
H1745 H 0.89302 0.87362 0.3922 0.0
H1746 H 0.83078 0.85234 0.11774 0.0
H1747 H 0.84418 0.82864 0.12261 0.0
H1748 H 0.82425 0.83392 0.20387 0.0
H1749 H 0.91482 0.88268 0.27169 0.0
H1750 H 0.91372 0.86577 0.17489 0.0
H1751 H 0.90104 0.88987 0.17022 0.0
H1752 H 0.89693 0.83065 0.91932 0.0
H1753 H 0.86359 0.88665 0.8953 0.0
H1754 H 0.88071 0.81775 0.13885 0.0
H1755 H 0.9045 0.83071 0.15207 0.0
H1756 H 0.90093 0.81343 0.05784 0.0
H1757 H 0.8414 0.88725 0.10913 0.0
H1758 H 0.85092 0.90427 1.02272 0.0
H1759 H 0.86508 0.90015 0.12653 0.0
C1760 C 0.85387 0.12035 0.1077 0.0
C1761 C 0.87058 0.1105 0.14833 0.0
C1762 C 0.85275 0.12305 1.01228 0.0
C1763 C 0.86899 0.11631 0.95566 0.0
C1764 C 0.88611 0.10682 0.99695 0.0
C1765 C 0.88654 0.10377 0.09215 0.0
C1766 C 0.83401 0.13288 0.97189 0.0
C1767 C 0.90412 0.10001 0.94059 0.0
C1768 C 0.86042 0.10839 0.69828 0.0
C1769 C 0.86675 0.12717 0.66238 0.0
C1770 C 0.86093 0.10465 0.79327 0.0
C1771 C 0.86841 0.11984 0.85396 0.0
C1772 C 0.87533 0.1386 0.8172 0.0
C1773 C 0.87414 0.1421 0.72262 0.0
C1774 C 0.85298 0.0846 0.82893 0.0
C1775 C 0.884 0.15507 0.87787 0.0
H1776 H 0.84138 0.12546 0.15034 0.0
H1777 H 0.89953 0.0962 0.12291 0.0
H1778 H 0.83823 0.1473 0.93728 0.0
H1779 H 0.82723 0.12268 0.91969 0.0
H1780 H 0.82226 0.13632 1.02418 0.0
H1781 H 0.91647 0.09331 0.98289 0.0
H1782 H 0.8992 0.0885 0.88976 0.0
H1783 H 0.91041 0.11317 0.90232 0.0
H1784 H 0.85447 0.09687 0.65245 0.0
H1785 H 0.87912 0.15665 0.69556 0.0
H1786 H 0.84004 0.08743 0.87597 0.0
H1787 H 0.86502 0.07667 0.86845 0.0
H1788 H 0.84774 0.07434 0.7734 0.0
H1789 H 0.87216 0.16051 0.92598 0.0
H1790 H 0.88973 0.16834 0.83849 0.0
H1791 H 0.89673 0.14883 0.9192 0.0
C1792 C 0.11953 0.13562 0.97362 0.0
C1793 C 0.10845 0.1197 0.933 0.0
C1794 C 0.12224 0.13661 0.0691 0.0
C1795 C 0.11417 0.12102 0.12585 0.0
C1796 C 0.10338 0.10468 0.08461 0.0
C1797 C 0.10044 0.10437 0.98932 0.0
C1798 C 0.13355 0.15451 0.1094 0.0
C1799 C 0.09504 0.08737 0.14116 0.0
C1800 C 0.13934 0.11408 0.35946 0.0
C1801 C 0.12508 0.12282 0.41922 0.0
C1802 C 0.13576 0.11299 0.26489 0.0
C1803 C 0.11767 0.12141 0.22762 0.0
C1804 C 0.10312 0.13023 0.28785 0.0
C1805 C 0.10689 0.13062 0.38287 0.0
C1806 C 0.15147 0.10286 0.20475 0.0
C1807 C 0.08382 0.13977 0.25169 0.0
H1808 H 0.12566 0.14762 0.93091 0.0
H1809 H 0.0919 0.09199 0.95862 0.0
H1810 H 0.12389 0.16218 0.16117 0.0
H1811 H 0.14753 0.14912 0.14451 0.0
H1812 H 0.13801 0.16587 0.05698 0.0
H1813 H 0.08735 0.07559 0.09894 0.0
H1814 H 0.1076 0.08002 0.17979 0.0
H1815 H 0.08396 0.09331 0.19167 0.0
H1816 H 0.15343 0.10798 0.3869 0.0
H1817 H 0.09595 0.13769 0.42827 0.0
H1818 H 0.15794 0.11415 0.15659 0.0
H1819 H 0.14419 0.09068 0.16348 0.0
H1820 H 0.16417 0.09605 0.24454 0.0
H1821 H 0.08772 0.15251 0.20514 0.0
H1822 H 0.0739 0.14573 0.30698 0.0
H1823 H 0.07504 0.12844 0.21152 0.0
C1824 C 0.10643 0.85992 0.71326 0.0
C1825 C 0.12187 0.86803 0.65784 0.0
C1826 C 0.1063 0.86304 0.80838 0.0
C1827 C 0.12234 0.87408 0.85053 0.0
C1828 C 0.13805 0.88225 0.79471 0.0
C1829 C 0.13747 0.8794 0.69919 0.0
C1830 C 0.08884 0.8546 0.86375 0.0
C1831 C 0.15568 0.89379 0.83612 0.0
C1832 C 0.1138 0.89921 0.08327 0.0
C1833 C 0.12233 0.88504 0.14403 0.0
C1834 C 0.11339 0.89566 0.98857 0.0
C1835 C 0.12226 0.87767 0.95226 0.0
C1836 C 0.13089 0.86323 1.01348 0.0
C1837 C 0.13065 0.86699 0.10851 0.0
C1838 C 0.10345 0.91125 0.92726 0.0
C1839 C 0.14085 0.84402 0.97844 0.0
H1840 H 0.09428 0.85116 0.68191 0.0
H1841 H 0.14957 0.88557 0.65713 0.0
H1842 H 0.09467 0.84355 0.91464 0.0
H1843 H 0.08128 0.86712 0.90187 0.0
H1844 H 0.07726 0.84683 0.82074 0.0
H1845 H 0.16715 0.89838 0.78441 0.0
H1846 H 0.15002 0.9077 0.87093 0.0
H1847 H 0.1633 0.88422 0.88835 0.0
H1848 H 0.10735 0.91322 0.11002 0.0
H1849 H 0.13761 0.85614 0.15468 0.0
H1850 H 0.09149 0.90386 0.88512 0.0
H1851 H 0.11491 0.91773 0.87994 0.0
H1852 H 0.09639 0.92395 0.9662 0.0
H1853 H 0.1298 0.83504 0.93761 0.0
H1854 H 0.14672 0.83424 1.03437 0.0
H1855 H 0.1537 0.84806 0.93277 0.0
loop_
_geom_bond_atom_site_label_1
_geom_bond_atom_site_label_2
_geom_bond_distance
_geom_bond_site_symmetry_2
_ccdc_geom_bond_type
Tb0 O3 2.453 1_554 S
Tb0 O4 2.596 . S
Tb0 O5 2.374 . S
Tb0 O13 2.343 . S
Tb0 O15 2.353 . S
Tb0 O17 2.427 . S
Tb0 O18 2.513 . S
C1 O5 1.251 . S
C1 O7 1.263 . S
Tb2 O4 2.343 . S
Tb2 O7 2.353 . S
Tb2 O10 2.427 . S
Tb2 O11 2.513 . S
Tb2 O12 2.453 . S
Tb2 O13 2.596 . S
Tb2 O14 2.374 . S
O3 Tb0 2.453 1_556 S
O3 C19 1.245 . S
O4 Tb0 2.596 . S
O4 Tb2 2.343 . S
O4 C19 1.259 1_554 S
O5 Tb0 2.374 . S
O5 C1 1.251 . S
C6 O10 1.275 . S
C6 O11 1.246 . S
O7 C1 1.263 . S
O7 Tb2 2.353 . S
C8 O12 1.245 . S
C8 O13 1.259 . S
C9 O14 1.250 . S
C9 O15 1.263 . S
O10 Tb2 2.427 . S
O10 C6 1.275 . S
O11 Tb2 2.513 . S
O11 C6 1.246 . S
O12 Tb2 2.453 . S
O12 C8 1.245 . S
O13 Tb0 2.343 . S
O13 Tb2 2.596 . S
O13 C8 1.259 . S
O14 Tb2 2.374 . S
O14 C9 1.250 . S
O15 Tb0 2.353 . S
O15 C9 1.263 . S
C16 O17 1.275 . S
C16 O18 1.246 . S
O17 Tb0 2.427 . S
O17 C16 1.275 . S
O18 Tb0 2.513 . S
O18 C16 1.246 . S
C19 O3 1.245 . S
C19 O4 1.259 1_556 S
Tb20 O23 2.453 . S
Tb20 O24 2.596 . S
Tb20 O25 2.374 . S
Tb20 O33 2.343 . S
Tb20 O35 2.353 . S
Tb20 O37 2.427 . S
Tb20 O38 2.513 . S
C21 O25 1.251 . S
C21 O27 1.263 . S
Tb22 O24 2.343 . S
Tb22 O27 2.353 . S
Tb22 O30 2.427 . S
Tb22 O31 2.513 . S
Tb22 O32 2.453 1_556 S
Tb22 O33 2.596 . S
Tb22 O34 2.374 . S
O23 Tb20 2.453 . S
O23 C39 1.245 . S
O24 Tb20 2.596 . S
O24 Tb22 2.343 . S
O24 C39 1.259 . S
O25 Tb20 2.374 . S
O25 C21 1.251 . S
C26 O30 1.275 . S
C26 O31 1.246 . S
O27 C21 1.263 . S
O27 Tb22 2.353 . S
C28 O32 1.245 . S
C28 O33 1.259 1_554 S
C29 O34 1.250 . S
C29 O35 1.263 . S
O30 Tb22 2.427 . S
O30 C26 1.275 . S
O31 Tb22 2.513 . S
O31 C26 1.246 . S
O32 Tb22 2.453 1_554 S
O32 C28 1.245 . S
O33 Tb20 2.343 . S
O33 Tb22 2.596 . S
O33 C28 1.259 1_556 S
O34 Tb22 2.374 . S
O34 C29 1.250 . S
O35 Tb20 2.353 . S
O35 C29 1.263 . S
C36 O37 1.275 . S
C36 O38 1.246 . S
O37 Tb20 2.427 . S
O37 C36 1.275 . S
O38 Tb20 2.513 . S
O38 C36 1.246 . S
C39 O23 1.245 . S
C39 O24 1.259 . S
Tb40 O43 2.453 1_554 S
Tb40 O44 2.596 . S
Tb40 O45 2.374 . S
Tb40 O53 2.343 . S
Tb40 O55 2.353 . S
Tb40 O57 2.427 . S
Tb40 O58 2.513 . S
C41 O45 1.251 . S
C41 O47 1.263 . S
Tb42 O44 2.343 . S
Tb42 O47 2.353 . S
Tb42 O50 2.427 . S
Tb42 O51 2.513 . S
Tb42 O52 2.453 . S
Tb42 O53 2.596 . S
Tb42 O54 2.374 . S
O43 Tb40 2.453 1_556 S
O43 C59 1.245 . S
O44 Tb40 2.596 . S
O44 Tb42 2.343 . S
O44 C59 1.259 1_554 S
O45 Tb40 2.374 . S
O45 C41 1.251 . S
C46 O50 1.275 . S
C46 O51 1.246 . S
O47 C41 1.263 . S
O47 Tb42 2.353 . S
C48 O52 1.245 . S
C48 O53 1.259 . S
C49 O54 1.250 . S
C49 O55 1.263 . S
O50 Tb42 2.427 . S
O50 C46 1.275 . S
O51 Tb42 2.513 . S
O51 C46 1.246 . S
O52 Tb42 2.453 . S
O52 C48 1.245 . S
O53 Tb40 2.343 . S
O53 Tb42 2.596 . S
O53 C48 1.259 . S
O54 Tb42 2.374 . S
O54 C49 1.250 . S
O55 Tb40 2.353 . S
O55 C49 1.263 . S
C56 O57 1.275 . S
C56 O58 1.246 . S
O57 Tb40 2.427 . S
O57 C56 1.275 . S
O58 Tb40 2.513 . S
O58 C56 1.246 . S
C59 O43 1.245 . S
C59 O44 1.259 1_556 S
Tb60 O63 2.453 . S
Tb60 O64 2.596 . S
Tb60 O65 2.374 . S
Tb60 O73 2.343 . S
Tb60 O75 2.353 . S
Tb60 O77 2.427 . S
Tb60 O78 2.513 . S
C61 O65 1.251 . S
C61 O67 1.263 . S
Tb62 O64 2.343 . S
Tb62 O67 2.353 . S
Tb62 O70 2.427 . S
Tb62 O71 2.513 . S
Tb62 O72 2.453 1_556 S
Tb62 O73 2.596 . S
Tb62 O74 2.374 . S
O63 Tb60 2.453 . S
O63 C79 1.245 . S
O64 Tb60 2.596 . S
O64 Tb62 2.343 . S
O64 C79 1.259 . S
O65 Tb60 2.374 . S
O65 C61 1.251 . S
C66 O70 1.275 . S
C66 O71 1.246 . S
O67 C61 1.263 . S
O67 Tb62 2.353 . S
C68 O72 1.245 . S
C68 O73 1.259 1_554 S
C69 O74 1.250 . S
C69 O75 1.263 . S
O70 Tb62 2.427 . S
O70 C66 1.275 . S
O71 Tb62 2.513 . S
O71 C66 1.246 . S
O72 Tb62 2.453 1_554 S
O72 C68 1.245 . S
O73 Tb60 2.343 . S
O73 Tb62 2.596 . S
O73 C68 1.259 1_556 S
O74 Tb62 2.374 . S
O74 C69 1.250 . S
O75 Tb60 2.353 . S
O75 C69 1.263 . S
C76 O77 1.275 . S
C76 O78 1.246 . S
O77 Tb60 2.427 . S
O77 C76 1.275 . S
O78 Tb60 2.513 . S
O78 C76 1.246 . S
C79 O63 1.245 . S
C79 O64 1.259 . S
Tb80 O83 2.453 . S
Tb80 O84 2.596 . S
Tb80 O85 2.374 . S
Tb80 O93 2.343 . S
Tb80 O95 2.353 . S
Tb80 O97 2.427 . S
Tb80 O98 2.513 . S
C81 O85 1.251 . S
C81 O87 1.263 . S
Tb82 O84 2.343 . S
Tb82 O87 2.353 . S
Tb82 O90 2.427 . S
Tb82 O91 2.513 . S
Tb82 O92 2.453 1_554 S
Tb82 O93 2.596 . S
Tb82 O94 2.374 . S
O83 Tb80 2.453 . S
O83 C99 1.245 . S
O84 Tb80 2.596 . S
O84 Tb82 2.343 . S
O84 C99 1.259 . S
O85 Tb80 2.374 . S
O85 C81 1.251 . S
C86 O90 1.275 . S
C86 O91 1.246 . S
O87 C81 1.263 . S
O87 Tb82 2.353 . S
C88 O92 1.245 . S
C88 O93 1.259 1_556 S
C89 O94 1.250 . S
C89 O95 1.263 . S
O90 Tb82 2.427 . S
O90 C86 1.275 . S
O91 Tb82 2.513 . S
O91 C86 1.246 . S
O92 Tb82 2.453 1_556 S
O92 C88 1.245 . S
O93 Tb80 2.343 . S
O93 Tb82 2.596 . S
O93 C88 1.259 1_554 S
O94 Tb82 2.374 . S
O94 C89 1.250 . S
O95 Tb80 2.353 . S
O95 C89 1.263 . S
C96 O97 1.275 . S
C96 O98 1.246 . S
O97 Tb80 2.427 . S
O97 C96 1.275 . S
O98 Tb80 2.513 . S
O98 C96 1.246 . S
C99 O83 1.245 . S
C99 O84 1.259 . S
Tb100 O103 2.453 1_556 S
Tb100 O104 2.596 . S
Tb100 O105 2.374 . S
Tb100 O113 2.343 . S
Tb100 O115 2.353 . S
Tb100 O117 2.427 . S
Tb100 O118 2.513 . S
C101 O105 1.251 . S
C101 O107 1.263 . S
Tb102 O104 2.343 . S
Tb102 O107 2.353 . S
Tb102 O110 2.427 . S
Tb102 O111 2.513 . S
Tb102 O112 2.453 . S
Tb102 O113 2.596 . S
Tb102 O114 2.374 . S
O103 Tb100 2.453 1_554 S
O103 C119 1.245 . S
O104 Tb100 2.596 . S
O104 Tb102 2.343 . S
O104 C119 1.259 1_556 S
O105 Tb100 2.374 . S
O105 C101 1.251 . S
C106 O110 1.275 . S
C106 O111 1.246 . S
O107 C101 1.263 . S
O107 Tb102 2.353 . S
C108 O112 1.245 . S
C108 O113 1.259 . S
C109 O114 1.250 . S
C109 O115 1.263 . S
O110 Tb102 2.427 . S
O110 C106 1.275 . S
O111 Tb102 2.513 . S
O111 C106 1.246 . S
O112 Tb102 2.453 . S
O112 C108 1.245 . S
O113 Tb100 2.343 . S
O113 Tb102 2.596 . S
O113 C108 1.259 . S
O114 Tb102 2.374 . S
O114 C109 1.250 . S
O115 Tb100 2.353 . S
O115 C109 1.263 . S
C116 O117 1.275 . S
C116 O118 1.246 . S
O117 Tb100 2.427 . S
O117 C116 1.275 . S
O118 Tb100 2.513 . S
O118 C116 1.246 . S
C119 O103 1.245 . S
C119 O104 1.259 1_554 S
Tb120 O123 2.453 . S
Tb120 O124 2.596 . S
Tb120 O125 2.374 . S
Tb120 O133 2.343 . S
Tb120 O135 2.353 . S
Tb120 O137 2.427 . S
Tb120 O138 2.513 . S
C121 O125 1.251 . S
C121 O127 1.263 . S
Tb122 O124 2.343 . S
Tb122 O127 2.353 . S
Tb122 O130 2.427 . S
Tb122 O131 2.513 . S
Tb122 O132 2.453 1_554 S
Tb122 O133 2.596 . S
Tb122 O134 2.374 . S
O123 Tb120 2.453 . S
O123 C139 1.245 . S
O124 Tb120 2.596 . S
O124 Tb122 2.343 . S
O124 C139 1.259 . S
O125 Tb120 2.374 . S
O125 C121 1.251 . S
C126 O130 1.275 . S
C126 O131 1.246 . S
O127 C121 1.263 . S
O127 Tb122 2.353 . S
C128 O132 1.245 . S
C128 O133 1.259 1_556 S
C129 O134 1.250 . S
C129 O135 1.263 . S
O130 Tb122 2.427 . S
O130 C126 1.275 . S
O131 Tb122 2.513 . S
O131 C126 1.246 . S
O132 Tb122 2.453 1_556 S
O132 C128 1.245 . S
O133 Tb120 2.343 . S
O133 Tb122 2.596 . S
O133 C128 1.259 1_554 S
O134 Tb122 2.374 . S
O134 C129 1.250 . S
O135 Tb120 2.353 . S
O135 C129 1.263 . S
C136 O137 1.275 . S
C136 O138 1.246 . S
O137 Tb120 2.427 . S
O137 C136 1.275 . S
O138 Tb120 2.513 . S
O138 C136 1.246 . S
C139 O123 1.245 . S
C139 O124 1.259 . S
Tb140 O143 2.453 1_556 S
Tb140 O144 2.596 . S
Tb140 O145 2.374 . S
Tb140 O153 2.343 . S
Tb140 O155 2.353 . S
Tb140 O157 2.427 . S
Tb140 O158 2.513 . S
C141 O145 1.251 . S
C141 O147 1.263 . S
Tb142 O144 2.343 . S
Tb142 O147 2.353 . S
Tb142 O150 2.427 . S
Tb142 O151 2.513 . S
Tb142 O152 2.453 . S
Tb142 O153 2.596 . S
Tb142 O154 2.374 . S
O143 Tb140 2.453 1_554 S
O143 C159 1.245 . S
O144 Tb140 2.596 . S
O144 Tb142 2.343 . S
O144 C159 1.259 1_556 S
O145 Tb140 2.374 . S
O145 C141 1.251 . S
C146 O150 1.275 . S
C146 O151 1.246 . S
O147 C141 1.263 . S
O147 Tb142 2.353 . S
C148 O152 1.245 . S
C148 O153 1.259 . S
C149 O154 1.250 . S
C149 O155 1.263 . S
O150 Tb142 2.427 . S
O150 C146 1.275 . S
O151 Tb142 2.513 . S
O151 C146 1.246 . S
O152 Tb142 2.453 . S
O152 C148 1.245 . S
O153 Tb140 2.343 . S
O153 Tb142 2.596 . S
O153 C148 1.259 . S
O154 Tb142 2.374 . S
O154 C149 1.250 . S
O155 Tb140 2.353 . S
O155 C149 1.263 . S
C156 O157 1.275 . S
C156 O158 1.246 . S
O157 Tb140 2.427 . S
O157 C156 1.275 . S
O158 Tb140 2.513 . S
O158 C156 1.246 . S
C159 O143 1.245 . S
C159 O144 1.259 1_554 S
Tb160 O163 2.453 . S
Tb160 O164 2.596 . S
Tb160 O165 2.374 . S
Tb160 O173 2.343 . S
Tb160 O175 2.353 . S
Tb160 O177 2.427 . S
Tb160 O178 2.513 . S
C161 O165 1.251 . S
C161 O167 1.263 . S
Tb162 O164 2.343 . S
Tb162 O167 2.353 . S
Tb162 O170 2.427 . S
Tb162 O171 2.513 . S
Tb162 O172 2.453 . S
Tb162 O173 2.596 . S
Tb162 O174 2.374 . S
O163 Tb160 2.453 . S
O163 C179 1.245 . S
O164 Tb160 2.596 . S
O164 Tb162 2.343 . S
O164 C179 1.259 . S
O165 Tb160 2.374 . S
O165 C161 1.251 . S
C166 O170 1.275 . S
C166 O171 1.246 . S
O167 C161 1.263 . S
O167 Tb162 2.353 . S
C168 O172 1.245 . S
C168 O173 1.259 . S
C169 O174 1.250 . S
C169 O175 1.263 . S
O170 Tb162 2.427 . S
O170 C166 1.275 . S
O171 Tb162 2.513 . S
O171 C166 1.246 . S
O172 Tb162 2.453 . S
O172 C168 1.245 . S
O173 Tb160 2.343 . S
O173 Tb162 2.596 . S
O173 C168 1.259 . S
O174 Tb162 2.374 . S
O174 C169 1.250 . S
O175 Tb160 2.353 . S
O175 C169 1.263 . S
C176 O177 1.275 . S
C176 O178 1.246 . S
O177 Tb160 2.427 . S
O177 C176 1.275 . S
O178 Tb160 2.513 . S
O178 C176 1.246 . S
C179 O163 1.245 . S
C179 O164 1.259 . S
Tb180 O183 2.453 . S
Tb180 O184 2.596 . S
Tb180 O185 2.374 . S
Tb180 O193 2.343 . S
Tb180 O195 2.353 . S
Tb180 O197 2.427 . S
Tb180 O198 2.513 . S
C181 O185 1.251 . S
C181 O187 1.263 . S
Tb182 O184 2.343 . S
Tb182 O187 2.353 . S
Tb182 O190 2.427 . S
Tb182 O191 2.513 . S
Tb182 O192 2.453 . S
Tb182 O193 2.596 . S
Tb182 O194 2.374 . S
O183 Tb180 2.453 . S
O183 C199 1.245 . S
O184 Tb180 2.596 . S
O184 Tb182 2.343 . S
O184 C199 1.259 . S
O185 Tb180 2.374 . S
O185 C181 1.251 . S
C186 O190 1.275 . S
C186 O191 1.246 . S
O187 C181 1.263 . S
O187 Tb182 2.353 . S
C188 O192 1.245 . S
C188 O193 1.259 . S
C189 O194 1.250 . S
C189 O195 1.263 . S
O190 Tb182 2.427 . S
O190 C186 1.275 . S
O191 Tb182 2.513 . S
O191 C186 1.246 . S
O192 Tb182 2.453 . S
O192 C188 1.245 . S
O193 Tb180 2.343 . S
O193 Tb182 2.596 . S
O193 C188 1.259 . S
O194 Tb182 2.374 . S
O194 C189 1.250 . S
O195 Tb180 2.353 . S
O195 C189 1.263 . S
C196 O197 1.275 . S
C196 O198 1.246 . S
O197 Tb180 2.427 . S
O197 C196 1.275 . S
O198 Tb180 2.513 . S
O198 C196 1.246 . S
C199 O183 1.245 . S
C199 O184 1.259 . S
Tb200 O203 2.453 . S
Tb200 O204 2.596 . S
Tb200 O205 2.374 . S
Tb200 O213 2.343 . S
Tb200 O215 2.353 . S
Tb200 O217 2.427 . S
Tb200 O218 2.513 . S
C201 O205 1.251 . S
C201 O207 1.263 . S
Tb202 O204 2.343 . S
Tb202 O207 2.353 . S
Tb202 O210 2.427 . S
Tb202 O211 2.513 . S
Tb202 O212 2.453 . S
Tb202 O213 2.596 . S
Tb202 O214 2.374 . S
O203 Tb200 2.453 . S
O203 C219 1.245 . S
O204 Tb200 2.596 . S
O204 Tb202 2.343 . S
O204 C219 1.259 . S
O205 Tb200 2.374 . S
O205 C201 1.251 . S
C206 O210 1.275 . S
C206 O211 1.246 . S
O207 C201 1.263 . S
O207 Tb202 2.353 . S
C208 O212 1.245 . S
C208 O213 1.259 . S
C209 O214 1.250 . S
C209 O215 1.263 . S
O210 Tb202 2.427 . S
O210 C206 1.275 . S
O211 Tb202 2.513 . S
O211 C206 1.246 . S
O212 Tb202 2.453 . S
O212 C208 1.245 . S
O213 Tb200 2.343 . S
O213 Tb202 2.596 . S
O213 C208 1.259 . S
O214 Tb202 2.374 . S
O214 C209 1.250 . S
O215 Tb200 2.353 . S
O215 C209 1.263 . S
C216 O217 1.275 . S
C216 O218 1.246 . S
O217 Tb200 2.427 . S
O217 C216 1.275 . S
O218 Tb200 2.513 . S
O218 C216 1.246 . S
C219 O203 1.245 . S
C219 O204 1.259 . S
Tb220 O223 2.453 . S
Tb220 O224 2.596 . S
Tb220 O225 2.374 . S
Tb220 O233 2.343 . S
Tb220 O235 2.353 . S
Tb220 O237 2.427 . S
Tb220 O238 2.513 . S
C221 O225 1.251 . S
C221 O227 1.263 . S
Tb222 O224 2.343 . S
Tb222 O227 2.353 . S
Tb222 O230 2.427 . S
Tb222 O231 2.513 . S
Tb222 O232 2.453 . S
Tb222 O233 2.596 . S
Tb222 O234 2.374 . S
O223 Tb220 2.453 . S
O223 C239 1.245 . S
O224 Tb220 2.596 . S
O224 Tb222 2.343 . S
O224 C239 1.259 . S
O225 Tb220 2.374 . S
O225 C221 1.251 . S
C226 O230 1.275 . S
C226 O231 1.246 . S
O227 C221 1.263 . S
O227 Tb222 2.353 . S
C228 O232 1.245 . S
C228 O233 1.259 . S
C229 O234 1.250 . S
C229 O235 1.263 . S
O230 Tb222 2.427 . S
O230 C226 1.275 . S
O231 Tb222 2.513 . S
O231 C226 1.246 . S
O232 Tb222 2.453 . S
O232 C228 1.245 . S
O233 Tb220 2.343 . S
O233 Tb222 2.596 . S
O233 C228 1.259 . S
O234 Tb222 2.374 . S
O234 C229 1.250 . S
O235 Tb220 2.353 . S
O235 C229 1.263 . S
C236 O237 1.275 . S
C236 O238 1.246 . S
O237 Tb220 2.427 . S
O237 C236 1.275 . S
O238 Tb220 2.513 . S
O238 C236 1.246 . S
C239 O223 1.245 . S
C239 O224 1.259 . S
Tb240 O243 2.453 . S
Tb240 O244 2.596 . S
Tb240 O245 2.374 . S
Tb240 O253 2.343 . S
Tb240 O255 2.353 . S
Tb240 O257 2.427 . S
Tb240 O258 2.513 . S
C241 O245 1.251 . S
C241 O247 1.263 . S
Tb242 O244 2.343 . S
Tb242 O247 2.353 . S
Tb242 O250 2.427 . S
Tb242 O251 2.513 . S
Tb242 O252 2.453 . S
Tb242 O253 2.596 . S
Tb242 O254 2.374 . S
O243 Tb240 2.453 . S
O243 C259 1.245 . S
O244 Tb240 2.596 . S
O244 Tb242 2.343 . S
O244 C259 1.259 . S
O245 Tb240 2.374 . S
O245 C241 1.251 . S
C246 O250 1.275 . S
C246 O251 1.246 . S
O247 C241 1.263 . S
O247 Tb242 2.353 . S
C248 O252 1.245 . S
C248 O253 1.259 . S
C249 O254 1.250 . S
C249 O255 1.263 . S
O250 Tb242 2.427 . S
O250 C246 1.275 . S
O251 Tb242 2.513 . S
O251 C246 1.246 . S
O252 Tb242 2.453 . S
O252 C248 1.245 . S
O253 Tb240 2.343 . S
O253 Tb242 2.596 . S
O253 C248 1.259 . S
O254 Tb242 2.374 . S
O254 C249 1.250 . S
O255 Tb240 2.353 . S
O255 C249 1.263 . S
C256 O257 1.275 . S
C256 O258 1.246 . S
O257 Tb240 2.427 . S
O257 C256 1.275 . S
O258 Tb240 2.513 . S
O258 C256 1.246 . S
C259 O243 1.245 . S
C259 O244 1.259 . S
Tb260 O263 2.453 . S
Tb260 O264 2.596 . S
Tb260 O265 2.374 . S
Tb260 O273 2.343 . S
Tb260 O275 2.353 . S
Tb260 O277 2.427 . S
Tb260 O278 2.513 . S
C261 O265 1.251 . S
C261 O267 1.263 . S
Tb262 O264 2.343 . S
Tb262 O267 2.353 . S
Tb262 O270 2.427 . S
Tb262 O271 2.513 . S
Tb262 O272 2.453 . S
Tb262 O273 2.596 . S
Tb262 O274 2.374 . S
O263 Tb260 2.453 . S
O263 C279 1.245 . S
O264 Tb260 2.596 . S
O264 Tb262 2.343 . S
O264 C279 1.259 . S
O265 Tb260 2.374 . S
O265 C261 1.251 . S
C266 O270 1.275 . S
C266 O271 1.246 . S
O267 C261 1.263 . S
O267 Tb262 2.353 . S
C268 O272 1.245 . S
C268 O273 1.259 . S
C269 O274 1.250 . S
C269 O275 1.263 . S
O270 Tb262 2.427 . S
O270 C266 1.275 . S
O271 Tb262 2.513 . S
O271 C266 1.246 . S
O272 Tb262 2.453 . S
O272 C268 1.245 . S
O273 Tb260 2.343 . S
O273 Tb262 2.596 . S
O273 C268 1.259 . S
O274 Tb262 2.374 . S
O274 C269 1.250 . S
O275 Tb260 2.353 . S
O275 C269 1.263 . S
C276 O277 1.275 . S
C276 O278 1.246 . S
O277 Tb260 2.427 . S
O277 C276 1.275 . S
O278 Tb260 2.513 . S
O278 C276 1.246 . S
C279 O263 1.245 . S
C279 O264 1.259 . S
Tb280 O283 2.453 . S
Tb280 O284 2.596 . S
Tb280 O285 2.374 . S
Tb280 O293 2.343 . S
Tb280 O295 2.353 . S
Tb280 O297 2.427 . S
Tb280 O298 2.513 . S
C281 O285 1.251 . S
C281 O287 1.263 . S
Tb282 O284 2.343 . S
Tb282 O287 2.353 . S
Tb282 O290 2.427 . S
Tb282 O291 2.513 . S
Tb282 O292 2.453 . S
Tb282 O293 2.596 . S
Tb282 O294 2.374 . S
O283 Tb280 2.453 . S
O283 C299 1.245 . S
O284 Tb280 2.596 . S
O284 Tb282 2.343 . S
O284 C299 1.259 . S
O285 Tb280 2.374 . S
O285 C281 1.251 . S
C286 O290 1.275 . S
C286 O291 1.246 . S
O287 C281 1.263 . S
O287 Tb282 2.353 . S
C288 O292 1.245 . S
C288 O293 1.259 . S
C289 O294 1.250 . S
C289 O295 1.263 . S
O290 Tb282 2.427 . S
O290 C286 1.275 . S
O291 Tb282 2.513 . S
O291 C286 1.246 . S
O292 Tb282 2.453 . S
O292 C288 1.245 . S
O293 Tb280 2.343 . S
O293 Tb282 2.596 . S
O293 C288 1.259 . S
O294 Tb282 2.374 . S
O294 C289 1.250 . S
O295 Tb280 2.353 . S
O295 C289 1.263 . S
C296 O297 1.275 . S
C296 O298 1.246 . S
O297 Tb280 2.427 . S
O297 C296 1.275 . S
O298 Tb280 2.513 . S
O298 C296 1.246 . S
C299 O283 1.245 . S
C299 O284 1.259 . S
Tb300 O303 2.453 . S
Tb300 O304 2.596 . S
Tb300 O305 2.374 . S
Tb300 O313 2.343 . S
Tb300 O315 2.353 . S
Tb300 O317 2.427 . S
Tb300 O318 2.513 . S
C301 O305 1.251 . S
C301 O307 1.263 . S
Tb302 O304 2.343 . S
Tb302 O307 2.353 . S
Tb302 O310 2.427 . S
Tb302 O311 2.513 . S
Tb302 O312 2.453 . S
Tb302 O313 2.596 . S
Tb302 O314 2.374 . S
O303 Tb300 2.453 . S
O303 C319 1.245 . S
O304 Tb300 2.596 . S
O304 Tb302 2.343 . S
O304 C319 1.259 . S
O305 Tb300 2.374 . S
O305 C301 1.251 . S
C306 O310 1.275 . S
C306 O311 1.246 . S
O307 C301 1.263 . S
O307 Tb302 2.353 . S
C308 O312 1.245 . S
C308 O313 1.259 . S
C309 O314 1.250 . S
C309 O315 1.263 . S
O310 Tb302 2.427 . S
O310 C306 1.275 . S
O311 Tb302 2.513 . S
O311 C306 1.246 . S
O312 Tb302 2.453 . S
O312 C308 1.245 . S
O313 Tb300 2.343 . S
O313 Tb302 2.596 . S
O313 C308 1.259 . S
O314 Tb302 2.374 . S
O314 C309 1.250 . S
O315 Tb300 2.353 . S
O315 C309 1.263 . S
C316 O317 1.275 . S
C316 O318 1.246 . S
O317 Tb300 2.427 . S
O317 C316 1.275 . S
O318 Tb300 2.513 . S
O318 C316 1.246 . S
C319 O303 1.245 . S
C319 O304 1.259 . S
C320 C321 1.391 . S
C320 C322 1.394 . S
C320 H336 0.931 . S
C321 C320 1.391 . S
C321 C325 1.376 . S
C322 C320 1.394 . S
C322 C323 1.380 . S
C322 C326 1.531 . S
C323 C322 1.380 . S
C323 C324 1.418 . S
C323 C331 1.484 1_565 S
C324 C323 1.418 . S
C324 C325 1.392 . S
C324 C327 1.511 1_565 S
C325 C321 1.376 . S
C325 C324 1.392 . S
C325 H337 0.929 . S
C326 C322 1.531 . S
C326 H338 0.960 1_565 S
C326 H339 0.948 1_565 S
C326 H340 0.960 . S
C327 C324 1.511 1_545 S
C327 H341 0.961 1_545 S
C327 H342 0.961 . S
C327 H343 0.961 . S
C328 C329 1.370 . S
C328 C330 1.363 . S
C328 H344 0.931 . S
C329 C328 1.370 . S
C329 C333 1.408 . S
C330 C328 1.363 . S
C330 C331 1.370 . S
C330 C334 1.524 . S
C331 C323 1.484 1_545 S
C331 C330 1.370 . S
C331 C332 1.403 . S
C332 C331 1.403 . S
C332 C333 1.404 . S
C332 C335 1.539 . S
C333 C329 1.408 . S
C333 C332 1.404 . S
C333 H345 0.930 . S
C334 C330 1.524 . S
C334 H346 0.956 . S
C334 H347 0.961 . S
C334 H348 0.961 . S
C335 C332 1.539 . S
C335 H349 0.958 1_554 S
C335 H350 0.961 . S
C335 H351 0.960 . S
H336 C320 0.931 . S
H337 C325 0.929 . S
H338 C326 0.960 1_545 S
H339 C326 0.948 1_545 S
H340 C326 0.960 . S
H341 C327 0.961 1_565 S
H342 C327 0.961 . S
H343 C327 0.961 . S
H344 C328 0.931 . S
H345 C333 0.930 . S
H346 C334 0.956 . S
H347 C334 0.961 . S
H348 C334 0.961 . S
H349 C335 0.958 1_556 S
H350 C335 0.961 . S
H351 C335 0.960 . S
C352 C353 1.391 . S
C352 C354 1.394 . S
C352 H368 0.931 . S
C353 C352 1.391 . S
C353 C357 1.376 . S
C354 C352 1.394 . S
C354 C355 1.368 1_655 S
C354 C358 1.531 1_655 S
C355 C354 1.368 1_455 S
C355 C356 1.408 1_455 S
C355 C363 1.506 . S
C356 C355 1.408 1_655 S
C356 C357 1.392 . S
C356 C359 1.511 . S
C357 C353 1.376 . S
C357 C356 1.392 . S
C357 H369 0.929 . S
C358 C354 1.531 1_455 S
C358 H370 0.960 . S
C358 H371 0.962 . S
C358 H372 0.960 1_455 S
C359 C356 1.511 . S
C359 H373 0.961 . S
C359 H374 0.961 1_655 S
C359 H375 0.961 . S
C360 C361 1.370 . S
C360 C362 1.363 . S
C360 H376 0.931 . S
C361 C360 1.370 . S
C361 C365 1.408 . S
C362 C360 1.363 . S
C362 C363 1.370 . S
C362 C366 1.524 . S
C363 C355 1.506 . S
C363 C362 1.370 . S
C363 C364 1.403 . S
C364 C363 1.403 . S
C364 C365 1.404 . S
C364 C367 1.539 . S
C365 C361 1.408 . S
C365 C364 1.404 . S
C365 H377 0.930 . S
C366 C362 1.524 . S
C366 H378 0.956 . S
C366 H379 0.961 . S
C366 H380 0.961 . S
C367 C364 1.539 . S
C367 H381 0.958 . S
C367 H382 0.961 . S
C367 H383 0.960 . S
H368 C352 0.931 . S
H369 C357 0.929 . S
H370 C358 0.960 . S
H371 C358 0.962 . S
H372 C358 0.960 1_655 S
H373 C359 0.961 . S
H374 C359 0.961 1_455 S
H375 C359 0.961 . S
H376 C360 0.931 . S
H377 C365 0.930 . S
H378 C366 0.956 . S
H379 C366 0.961 . S
H380 C366 0.961 . S
H381 C367 0.958 . S
H382 C367 0.961 . S
H383 C367 0.960 . S
C384 C385 1.391 . S
C384 C386 1.394 . S
C384 H400 0.931 . S
C385 C384 1.391 . S
C385 C389 1.376 . S
C386 C384 1.394 . S
C386 C387 1.369 . S
C386 C390 1.531 . S
C387 C386 1.369 . S
C387 C388 1.410 . S
C387 C395 1.509 1_565 S
C388 C387 1.410 . S
C388 C389 1.392 . S
C388 C391 1.511 . S
C389 C385 1.376 . S
C389 C388 1.392 . S
C389 H401 0.929 . S
C390 C386 1.531 . S
C390 H402 0.960 . S
C390 H403 0.962 . S
C390 H404 0.960 . S
C391 C388 1.511 . S
C391 H405 0.961 . S
C391 H406 0.961 . S
C391 H407 0.961 . S
C392 C393 1.370 . S
C392 C394 1.363 . S
C392 H408 0.931 . S
C393 C392 1.370 . S
C393 C397 1.408 . S
C394 C392 1.363 . S
C394 C395 1.368 . S
C394 C398 1.524 1_545 S
C395 C387 1.509 1_545 S
C395 C394 1.368 . S
C395 C396 1.400 . S
C396 C395 1.400 . S
C396 C397 1.404 . S
C396 C399 1.539 . S
C397 C393 1.408 . S
C397 C396 1.404 . S
C397 H409 0.930 . S
C398 C394 1.524 1_565 S
C398 H410 0.956 . S
C398 H411 0.961 . S
C398 H412 0.961 1_565 S
C399 C396 1.539 . S
C399 H413 0.958 1_545 S
C399 H414 0.961 . S
C399 H415 0.960 1_545 S
H400 C384 0.931 . S
H401 C389 0.929 . S
H402 C390 0.960 . S
H403 C390 0.962 . S
H404 C390 0.960 . S
H405 C391 0.961 . S
H406 C391 0.961 . S
H407 C391 0.961 . S
H408 C392 0.931 . S
H409 C397 0.930 . S
H410 C398 0.956 . S
H411 C398 0.961 . S
H412 C398 0.961 1_545 S
H413 C399 0.958 1_565 S
H414 C399 0.961 . S
H415 C399 0.960 1_565 S
C416 C417 1.391 . S
C416 C418 1.394 . S
C416 H432 0.931 . S
C417 C416 1.391 . S
C417 C421 1.376 . S
C418 C416 1.394 . S
C418 C419 1.369 . S
C418 C422 1.531 . S
C419 C418 1.369 . S
C419 C420 1.410 . S
C419 C427 1.498 1_655 S
C420 C419 1.410 . S
C420 C421 1.392 . S
C420 C423 1.511 . S
C421 C417 1.376 . S
C421 C420 1.392 . S
C421 H433 0.929 . S
C422 C418 1.531 . S
C422 H434 0.960 . S
C422 H435 0.962 . S
C422 H436 0.960 . S
C423 C420 1.511 . S
C423 H437 0.961 1_556 S
C423 H438 0.961 . S
C423 H439 0.961 . S
C424 C425 1.370 . S
C424 C426 1.363 . S
C424 H440 0.931 . S
C425 C424 1.370 . S
C425 C429 1.408 . S
C426 C424 1.363 . S
C426 C427 1.373 . S
C426 C430 1.524 1_455 S
C427 C419 1.498 1_455 S
C427 C426 1.373 . S
C427 C428 1.406 . S
C428 C427 1.406 . S
C428 C429 1.404 . S
C428 C431 1.539 . S
C429 C425 1.408 . S
C429 C428 1.404 . S
C429 H441 0.930 . S
C430 C426 1.524 1_655 S
C430 H442 0.956 . S
C430 H443 0.961 . S
C430 H444 0.961 1_655 S
C431 C428 1.539 . S
C431 H445 0.958 . S
C431 H446 0.961 . S
C431 H447 0.960 1_455 S
H432 C416 0.931 . S
H433 C421 0.929 . S
H434 C422 0.960 . S
H435 C422 0.962 . S
H436 C422 0.960 . S
H437 C423 0.961 1_554 S
H438 C423 0.961 . S
H439 C423 0.961 . S
H440 C424 0.931 . S
H441 C429 0.930 . S
H442 C430 0.956 . S
H443 C430 0.961 . S
H444 C430 0.961 1_455 S
H445 C431 0.958 . S
H446 C431 0.961 . S
H447 C431 0.960 1_655 S
C448 C449 1.391 . S
C448 C450 1.394 . S
C448 H464 0.931 . S
C449 C448 1.391 . S
C449 C453 1.376 1_554 S
C450 C448 1.394 . S
C450 C451 1.369 . S
C450 C454 1.531 . S
C451 C450 1.369 . S
C451 C452 1.410 1_554 S
C451 C459 1.503 . S
C452 C451 1.410 1_556 S
C452 C453 1.392 . S
C452 C455 1.511 . S
C453 C449 1.376 1_556 S
C453 C452 1.392 . S
C453 H465 0.929 . S
C454 C450 1.531 . S
C454 H466 0.960 . S
C454 H467 0.962 . S
C454 H468 0.960 . S
C455 C452 1.511 . S
C455 H469 0.961 . S
C455 H470 0.961 . S
C455 H471 0.961 . S
C456 C457 1.370 . S
C456 C458 1.363 . S
C456 H472 0.931 . S
C457 C456 1.370 . S
C457 C461 1.408 . S
C458 C456 1.363 . S
C458 C459 1.370 . S
C458 C462 1.524 . S
C459 C451 1.503 . S
C459 C458 1.370 . S
C459 C460 1.403 . S
C460 C459 1.403 . S
C460 C461 1.404 . S
C460 C463 1.539 . S
C461 C457 1.408 . S
C461 C460 1.404 . S
C461 H473 0.933 . S
C462 C458 1.524 . S
C462 H474 0.956 . S
C462 H475 0.961 . S
C462 H476 0.961 . S
C463 C460 1.539 . S
C463 H477 0.958 . S
C463 H478 0.961 1_554 S
C463 H479 0.960 1_554 S
H464 C448 0.931 . S
H465 C453 0.929 . S
H466 C454 0.960 . S
H467 C454 0.962 . S
H468 C454 0.960 . S
H469 C455 0.961 . S
H470 C455 0.961 . S
H471 C455 0.961 . S
H472 C456 0.931 . S
H473 C461 0.933 . S
H474 C462 0.956 . S
H475 C462 0.961 . S
H476 C462 0.961 . S
H477 C463 0.958 . S
H478 C463 0.961 1_556 S
H479 C463 0.960 1_556 S
C480 C481 1.391 . S
C480 C482 1.394 . S
C480 H496 0.931 . S
C481 C480 1.391 . S
C481 C485 1.376 1_556 S
C482 C480 1.394 . S
C482 C483 1.369 . S
C482 C486 1.531 . S
C483 C482 1.369 . S
C483 C484 1.410 1_556 S
C483 C491 1.503 . S
C484 C483 1.410 1_554 S
C484 C485 1.392 . S
C484 C487 1.511 . S
C485 C481 1.376 1_554 S
C485 C484 1.392 . S
C485 H497 0.929 . S
C486 C482 1.531 . S
C486 H498 0.960 . S
C486 H499 0.962 . S
C486 H500 0.960 . S
C487 C484 1.511 . S
C487 H501 0.961 . S
C487 H502 0.961 . S
C487 H503 0.961 . S
C488 C489 1.370 . S
C488 C490 1.363 . S
C488 H504 0.931 . S
C489 C488 1.370 . S
C489 C493 1.408 . S
C490 C488 1.363 . S
C490 C491 1.370 . S
C490 C494 1.524 . S
C491 C483 1.503 . S
C491 C490 1.370 . S
C491 C492 1.403 1_556 S
C492 C491 1.403 1_554 S
C492 C493 1.404 1_554 S
C492 C495 1.539 . S
C493 C489 1.408 . S
C493 C492 1.404 1_556 S
C493 H505 0.930 1_556 S
C494 C490 1.524 . S
C494 H506 0.956 . S
C494 H507 0.961 . S
C494 H508 0.961 . S
C495 C492 1.539 . S
C495 H509 0.958 . S
C495 H510 0.961 . S
C495 H511 0.960 . S
H496 C480 0.931 . S
H497 C485 0.929 . S
H498 C486 0.960 . S
H499 C486 0.962 . S
H500 C486 0.960 . S
H501 C487 0.961 . S
H502 C487 0.961 . S
H503 C487 0.961 . S
H504 C488 0.931 . S
H505 C493 0.930 1_554 S
H506 C494 0.956 . S
H507 C494 0.961 . S
H508 C494 0.961 . S
H509 C495 0.958 . S
H510 C495 0.961 . S
H511 C495 0.960 . S
C512 C513 1.391 . S
C512 C514 1.394 . S
C512 H528 0.931 . S
C513 C512 1.391 . S
C513 C517 1.376 . S
C514 C512 1.394 . S
C514 C515 1.369 . S
C514 C518 1.531 1_554 S
C515 C514 1.369 . S
C515 C516 1.410 . S
C515 C523 1.503 . S
C516 C515 1.410 . S
C516 C517 1.392 . S
C516 C519 1.511 . S
C517 C513 1.376 . S
C517 C516 1.392 . S
C517 H529 0.929 . S
C518 C514 1.531 1_556 S
C518 H530 0.960 . S
C518 H531 0.962 1_556 S
C518 H532 0.960 . S
C519 C516 1.511 . S
C519 H533 0.961 . S
C519 H534 0.961 . S
C519 H535 0.961 . S
C520 C521 1.370 . S
C520 C522 1.363 . S
C520 H536 0.931 . S
C521 C520 1.370 . S
C521 C525 1.408 1_554 S
C522 C520 1.363 . S
C522 C523 1.370 . S
C522 C526 1.524 . S
C523 C515 1.503 . S
C523 C522 1.370 . S
C523 C524 1.403 1_554 S
C524 C523 1.403 1_556 S
C524 C525 1.404 . S
C524 C527 1.539 . S
C525 C521 1.408 1_556 S
C525 C524 1.404 . S
C525 H537 0.930 . S
C526 C522 1.524 . S
C526 H538 0.956 . S
C526 H539 0.961 . S
C526 H540 0.961 . S
C527 C524 1.539 . S
C527 H541 0.958 . S
C527 H542 0.961 . S
C527 H543 0.960 . S
H528 C512 0.931 . S
H529 C517 0.929 . S
H530 C518 0.960 . S
H531 C518 0.962 1_554 S
H532 C518 0.960 . S
H533 C519 0.961 . S
H534 C519 0.961 . S
H535 C519 0.961 . S
H536 C520 0.931 . S
H537 C525 0.930 . S
H538 C526 0.956 . S
H539 C526 0.961 . S
H540 C526 0.961 . S
H541 C527 0.958 . S
H542 C527 0.961 . S
H543 C527 0.960 . S
C544 C545 1.391 . S
C544 C546 1.394 . S
C544 H560 0.931 . S
C545 C544 1.391 . S
C545 C549 1.376 1_556 S
C546 C544 1.394 . S
C546 C547 1.369 . S
C546 C550 1.531 . S
C547 C546 1.369 . S
C547 C548 1.410 1_556 S
C547 C555 1.503 . S
C548 C547 1.410 1_554 S
C548 C549 1.392 . S
C548 C551 1.511 . S
C549 C545 1.376 1_554 S
C549 C548 1.392 . S
C549 H561 0.929 . S
C550 C546 1.531 . S
C550 H562 0.960 . S
C550 H563 0.962 . S
C550 H564 0.960 . S
C551 C548 1.511 . S
C551 H565 0.961 . S
C551 H566 0.961 . S
C551 H567 0.961 . S
C552 C553 1.370 . S
C552 C554 1.363 . S
C552 H568 0.931 . S
C553 C552 1.370 . S
C553 C557 1.408 . S
C554 C552 1.363 . S
C554 C555 1.370 . S
C554 C558 1.524 . S
C555 C547 1.503 . S
C555 C554 1.370 . S
C555 C556 1.403 . S
C556 C555 1.403 . S
C556 C557 1.404 . S
C556 C559 1.539 1_556 S
C557 C553 1.408 . S
C557 C556 1.404 . S
C557 H569 0.930 1_556 S
C558 C554 1.524 . S
C558 H570 0.956 . S
C558 H571 0.961 . S
C558 H572 0.961 . S
C559 C556 1.539 1_554 S
C559 H573 0.958 . S
C559 H574 0.961 . S
C559 H575 0.960 . S
H560 C544 0.931 . S
H561 C549 0.929 . S
H562 C550 0.960 . S
H563 C550 0.962 . S
H564 C550 0.960 . S
H565 C551 0.961 . S
H566 C551 0.961 . S
H567 C551 0.961 . S
H568 C552 0.931 . S
H569 C557 0.930 1_554 S
H570 C558 0.956 . S
H571 C558 0.961 . S
H572 C558 0.961 . S
H573 C559 0.958 . S
H574 C559 0.961 . S
H575 C559 0.960 . S
C576 C577 1.391 . S
C576 C578 1.394 . S
C576 H592 0.931 . S
C577 C576 1.391 . S
C577 C581 1.376 . S
C578 C576 1.394 . S
C578 C579 1.369 . S
C578 C582 1.531 . S
C579 C578 1.369 . S
C579 C580 1.410 . S
C579 C587 1.503 . S
C580 C579 1.410 . S
C580 C581 1.392 . S
C580 C583 1.511 . S
C581 C577 1.376 . S
C581 C580 1.392 . S
C581 H593 0.929 . S
C582 C578 1.531 . S
C582 H594 0.960 . S
C582 H595 0.962 . S
C582 H596 0.960 . S
C583 C580 1.511 . S
C583 H597 0.961 . S
C583 H598 0.961 . S
C583 H599 0.961 . S
C584 C585 1.370 . S
C584 C586 1.363 . S
C584 H600 0.931 . S
C585 C584 1.370 . S
C585 C589 1.408 . S
C586 C584 1.363 . S
C586 C587 1.370 . S
C586 C590 1.524 . S
C587 C579 1.503 . S
C587 C586 1.370 . S
C587 C588 1.403 . S
C588 C587 1.403 . S
C588 C589 1.404 . S
C588 C591 1.539 . S
C589 C585 1.408 . S
C589 C588 1.404 . S
C589 H601 0.930 . S
C590 C586 1.524 . S
C590 H602 0.956 . S
C590 H603 0.961 . S
C590 H604 0.961 . S
C591 C588 1.539 . S
C591 H605 0.958 . S
C591 H606 0.961 . S
C591 H607 0.960 . S
H592 C576 0.931 . S
H593 C581 0.929 . S
H594 C582 0.960 . S
H595 C582 0.962 . S
H596 C582 0.960 . S
H597 C583 0.961 . S
H598 C583 0.961 . S
H599 C583 0.961 . S
H600 C584 0.931 . S
H601 C589 0.930 . S
H602 C590 0.956 . S
H603 C590 0.961 . S
H604 C590 0.961 . S
H605 C591 0.958 . S
H606 C591 0.961 . S
H607 C591 0.960 . S
C608 C609 1.391 . S
C608 C610 1.394 . S
C608 H624 0.931 . S
C609 C608 1.391 . S
C609 C613 1.376 . S
C610 C608 1.394 . S
C610 C611 1.369 . S
C610 C614 1.531 . S
C611 C610 1.369 . S
C611 C612 1.410 . S
C611 C619 1.503 . S
C612 C611 1.410 . S
C612 C613 1.392 . S
C612 C615 1.511 . S
C613 C609 1.376 . S
C613 C612 1.392 . S
C613 H625 0.929 . S
C614 C610 1.531 . S
C614 H626 0.960 . S
C614 H627 0.962 . S
C614 H628 0.960 . S
C615 C612 1.511 . S
C615 H629 0.961 . S
C615 H630 0.961 . S
C615 H631 0.961 . S
C616 C617 1.370 . S
C616 C618 1.363 . S
C616 H632 0.931 . S
C617 C616 1.370 . S
C617 C621 1.408 . S
C618 C616 1.363 . S
C618 C619 1.370 . S
C618 C622 1.524 . S
C619 C611 1.503 . S
C619 C618 1.370 . S
C619 C620 1.403 . S
C620 C619 1.403 . S
C620 C621 1.404 . S
C620 C623 1.539 . S
C621 C617 1.408 . S
C621 C620 1.404 . S
C621 H633 0.930 . S
C622 C618 1.524 . S
C622 H634 0.956 . S
C622 H635 0.961 . S
C622 H636 0.961 . S
C623 C620 1.539 . S
C623 H637 0.958 . S
C623 H638 0.961 . S
C623 H639 0.960 . S
H624 C608 0.931 . S
H625 C613 0.929 . S
H626 C614 0.960 . S
H627 C614 0.962 . S
H628 C614 0.960 . S
H629 C615 0.961 . S
H630 C615 0.961 . S
H631 C615 0.961 . S
H632 C616 0.931 . S
H633 C621 0.930 . S
H634 C622 0.956 . S
H635 C622 0.961 . S
H636 C622 0.961 . S
H637 C623 0.958 . S
H638 C623 0.961 . S
H639 C623 0.960 . S
C640 C641 1.391 . S
C640 C642 1.394 . S
C640 H656 0.931 . S
C641 C640 1.391 . S
C641 C645 1.376 . S
C642 C640 1.394 . S
C642 C643 1.369 . S
C642 C646 1.531 . S
C643 C642 1.369 . S
C643 C644 1.410 . S
C643 C651 1.503 . S
C644 C643 1.410 . S
C644 C645 1.392 . S
C644 C647 1.511 . S
C645 C641 1.376 . S
C645 C644 1.392 . S
C645 H657 0.929 . S
C646 C642 1.531 . S
C646 H658 0.960 . S
C646 H659 0.962 . S
C646 H660 0.960 . S
C647 C644 1.511 . S
C647 H661 0.961 . S
C647 H662 0.961 . S
C647 H663 0.961 . S
C648 C649 1.370 . S
C648 C650 1.363 . S
C648 H664 0.931 . S
C649 C648 1.370 . S
C649 C653 1.408 . S
C650 C648 1.363 . S
C650 C651 1.370 . S
C650 C654 1.524 . S
C651 C643 1.503 . S
C651 C650 1.370 . S
C651 C652 1.403 . S
C652 C651 1.403 . S
C652 C653 1.404 . S
C652 C655 1.539 . S
C653 C649 1.408 . S
C653 C652 1.404 . S
C653 H665 0.930 . S
C654 C650 1.524 . S
C654 H666 0.956 . S
C654 H667 0.961 . S
C654 H668 0.961 . S
C655 C652 1.539 . S
C655 H669 0.958 . S
C655 H670 0.961 . S
C655 H671 0.960 . S
H656 C640 0.931 . S
H657 C645 0.929 . S
H658 C646 0.960 . S
H659 C646 0.962 . S
H660 C646 0.960 . S
H661 C647 0.961 . S
H662 C647 0.961 . S
H663 C647 0.961 . S
H664 C648 0.931 . S
H665 C653 0.930 . S
H666 C654 0.956 . S
H667 C654 0.961 . S
H668 C654 0.961 . S
H669 C655 0.958 . S
H670 C655 0.961 . S
H671 C655 0.960 . S
C672 C673 1.391 . S
C672 C674 1.394 . S
C672 H688 0.931 . S
C673 C672 1.391 . S
C673 C677 1.376 . S
C674 C672 1.394 . S
C674 C675 1.369 . S
C674 C678 1.531 . S
C675 C674 1.369 . S
C675 C676 1.410 . S
C675 C683 1.503 . S
C676 C675 1.410 . S
C676 C677 1.392 . S
C676 C679 1.511 . S
C677 C673 1.376 . S
C677 C676 1.392 . S
C677 H689 0.929 . S
C678 C674 1.531 . S
C678 H690 0.960 . S
C678 H691 0.962 . S
C678 H692 0.960 . S
C679 C676 1.511 . S
C679 H693 0.961 . S
C679 H694 0.961 . S
C679 H695 0.961 . S
C680 C681 1.370 . S
C680 C682 1.363 . S
C680 H696 0.931 . S
C681 C680 1.370 . S
C681 C685 1.408 . S
C682 C680 1.363 . S
C682 C683 1.370 . S
C682 C686 1.524 . S
C683 C675 1.503 . S
C683 C682 1.370 . S
C683 C684 1.403 . S
C684 C683 1.403 . S
C684 C685 1.404 . S
C684 C687 1.539 . S
C685 C681 1.408 . S
C685 C684 1.404 . S
C685 H697 0.930 . S
C686 C682 1.524 . S
C686 H698 0.956 . S
C686 H699 0.961 . S
C686 H700 0.961 . S
C687 C684 1.539 . S
C687 H701 0.958 . S
C687 H702 0.961 . S
C687 H703 0.960 . S
H688 C672 0.931 . S
H689 C677 0.929 . S
H690 C678 0.960 . S
H691 C678 0.962 . S
H692 C678 0.960 . S
H693 C679 0.961 . S
H694 C679 0.961 . S
H695 C679 0.961 . S
H696 C680 0.931 . S
H697 C685 0.930 . S
H698 C686 0.956 . S
H699 C686 0.961 . S
H700 C686 0.961 . S
H701 C687 0.958 . S
H702 C687 0.961 . S
H703 C687 0.960 . S
C704 C705 1.391 . S
C704 C706 1.394 . S
C704 H720 0.931 . S
C705 C704 1.391 . S
C705 C709 1.376 . S
C706 C704 1.394 . S
C706 C707 1.369 . S
C706 C710 1.531 . S
C707 C706 1.369 . S
C707 C708 1.410 . S
C707 C715 1.519 . S
C708 C707 1.410 . S
C708 C709 1.392 . S
C708 C711 1.511 . S
C709 C705 1.376 . S
C709 C708 1.392 . S
C709 H721 0.929 . S
C710 C706 1.531 . S
C710 H722 0.960 . S
C710 H723 0.962 . S
C710 H724 0.960 . S
C711 C708 1.511 . S
C711 H725 0.961 . S
C711 H726 0.961 . S
C711 H727 0.961 . S
C712 C713 1.370 . S
C712 C714 1.363 . S
C712 H728 0.931 . S
C713 C712 1.370 . S
C713 C717 1.408 . S
C714 C712 1.363 . S
C714 C715 1.362 1_545 S
C714 C718 1.531 . S
C715 C707 1.519 . S
C715 C714 1.362 1_565 S
C715 C716 1.395 1_565 S
C716 C715 1.395 1_545 S
C716 C717 1.404 . S
C716 C719 1.539 1_545 S
C717 C713 1.408 . S
C717 C716 1.404 . S
C717 H729 0.930 . S
C718 C714 1.531 . S
C718 H730 0.948 1_545 S
C718 H731 0.951 1_545 S
C718 H732 0.971 . S
C719 C716 1.539 1_565 S
C719 H733 0.958 . S
C719 H734 0.961 1_565 S
C719 H735 0.960 . S
H720 C704 0.931 . S
H721 C709 0.929 . S
H722 C710 0.960 . S
H723 C710 0.962 . S
H724 C710 0.960 . S
H725 C711 0.961 . S
H726 C711 0.961 . S
H727 C711 0.961 . S
H728 C712 0.931 . S
H729 C717 0.930 . S
H730 C718 0.948 1_565 S
H731 C718 0.951 1_565 S
H732 C718 0.971 . S
H733 C719 0.958 . S
H734 C719 0.961 1_545 S
H735 C719 0.960 . S
C736 C737 1.391 . S
C736 C738 1.394 . S
C736 H752 0.931 . S
C737 C736 1.391 . S
C737 C741 1.376 . S
C738 C736 1.394 . S
C738 C739 1.376 . S
C738 C742 1.531 . S
C739 C738 1.376 . S
C739 C740 1.414 . S
C739 C747 1.491 1_455 S
C740 C739 1.414 . S
C740 C741 1.392 . S
C740 C743 1.511 1_455 S
C741 C737 1.376 . S
C741 C740 1.392 . S
C741 H753 0.929 . S
C742 C738 1.531 . S
C742 H754 0.960 1_455 S
C742 H755 0.961 1_455 S
C742 H756 0.960 . S
C743 C740 1.511 1_655 S
C743 H757 0.961 1_655 S
C743 H758 0.961 . S
C743 H759 0.961 . S
C744 C745 1.370 . S
C744 C746 1.363 . S
C744 H760 0.931 . S
C745 C744 1.370 . S
C745 C749 1.408 . S
C746 C744 1.363 . S
C746 C747 1.370 . S
C746 C750 1.524 . S
C747 C739 1.491 1_655 S
C747 C746 1.370 . S
C747 C748 1.403 . S
C748 C747 1.403 . S
C748 C749 1.404 . S
C748 C751 1.539 . S
C749 C745 1.408 . S
C749 C748 1.404 . S
C749 H761 0.930 . S
C750 C746 1.524 . S
C750 H762 0.956 . S
C750 H763 0.961 . S
C750 H764 0.961 . S
C751 C748 1.539 . S
C751 H765 0.958 . S
C751 H766 0.961 . S
C751 H767 0.960 . S
H752 C736 0.931 . S
H753 C741 0.929 . S
H754 C742 0.960 1_655 S
H755 C742 0.961 1_655 S
H756 C742 0.960 . S
H757 C743 0.961 1_455 S
H758 C743 0.961 . S
H759 C743 0.961 . S
H760 C744 0.931 . S
H761 C749 0.930 . S
H762 C750 0.956 . S
H763 C750 0.961 . S
H764 C750 0.961 . S
H765 C751 0.958 . S
H766 C751 0.961 . S
H767 C751 0.960 . S
C768 C769 1.391 . S
C768 C770 1.394 . S
C768 H784 0.931 . S
C769 C768 1.391 . S
C769 C773 1.376 . S
C770 C768 1.394 . S
C770 C771 1.379 . S
C770 C774 1.531 . S
C771 C770 1.379 . S
C771 C772 1.417 . S
C771 C779 1.485 1_565 S
C772 C771 1.417 . S
C772 C773 1.392 . S
C772 C775 1.511 1_565 S
C773 C769 1.376 . S
C773 C772 1.392 . S
C773 H785 0.929 . S
C774 C770 1.531 . S
C774 H786 0.960 1_565 S
C774 H787 0.951 1_565 S
C774 H788 0.960 . S
C775 C772 1.511 1_545 S
C775 H789 0.961 1_545 S
C775 H790 0.961 . S
C775 H791 0.961 . S
C776 C777 1.370 . S
C776 C778 1.363 . S
C776 H792 0.931 . S
C777 C776 1.370 . S
C777 C781 1.408 . S
C778 C776 1.363 . S
C778 C779 1.370 . S
C778 C782 1.524 . S
C779 C771 1.485 1_545 S
C779 C778 1.370 . S
C779 C780 1.403 . S
C780 C779 1.403 . S
C780 C781 1.404 . S
C780 C783 1.539 . S
C781 C777 1.408 . S
C781 C780 1.404 . S
C781 H793 0.930 . S
C782 C778 1.524 . S
C782 H794 0.956 . S
C782 H795 0.961 . S
C782 H796 0.961 . S
C783 C780 1.539 . S
C783 H797 0.958 . S
C783 H798 0.961 . S
C783 H799 0.960 . S
H784 C768 0.931 . S
H785 C773 0.929 . S
H786 C774 0.960 1_545 S
H787 C774 0.951 1_545 S
H788 C774 0.960 . S
H789 C775 0.961 1_565 S
H790 C775 0.961 . S
H791 C775 0.961 . S
H792 C776 0.931 . S
H793 C781 0.930 . S
H794 C782 0.956 . S
H795 C782 0.961 . S
H796 C782 0.961 . S
H797 C783 0.958 . S
H798 C783 0.961 . S
H799 C783 0.960 . S
C800 C801 1.391 . S
C800 C802 1.394 . S
C800 H816 0.931 . S
C801 C800 1.391 . S
C801 C805 1.376 . S
C802 C800 1.394 . S
C802 C803 1.369 . S
C802 C806 1.531 . S
C803 C802 1.369 . S
C803 C804 1.410 . S
C803 C811 1.516 . S
C804 C803 1.410 . S
C804 C805 1.392 . S
C804 C807 1.511 . S
C805 C801 1.376 . S
C805 C804 1.392 . S
C805 H817 0.929 . S
C806 C802 1.531 . S
C806 H818 0.960 . S
C806 H819 0.962 . S
C806 H820 0.960 . S
C807 C804 1.511 . S
C807 H821 0.961 . S
C807 H822 0.961 . S
C807 H823 0.961 . S
C808 C809 1.370 . S
C808 C810 1.363 . S
C808 H824 0.931 . S
C809 C808 1.370 . S
C809 C813 1.408 . S
C810 C808 1.363 . S
C810 C811 1.364 1_655 S
C810 C814 1.522 1_655 S
C811 C803 1.516 . S
C811 C810 1.364 1_455 S
C811 C812 1.397 1_455 S
C812 C811 1.397 1_655 S
C812 C813 1.404 . S
C812 C815 1.539 1_655 S
C813 C809 1.408 . S
C813 C812 1.404 . S
C813 H825 0.930 . S
C814 C810 1.522 1_455 S
C814 H826 0.959 . S
C814 H827 0.963 . S
C814 H828 0.957 1_455 S
C815 C812 1.539 1_455 S
C815 H829 0.958 . S
C815 H830 0.961 1_455 S
C815 H831 0.960 . S
H816 C800 0.931 . S
H817 C805 0.929 . S
H818 C806 0.960 . S
H819 C806 0.962 . S
H820 C806 0.960 . S
H821 C807 0.961 . S
H822 C807 0.961 . S
H823 C807 0.961 . S
H824 C808 0.931 . S
H825 C813 0.930 . S
H826 C814 0.959 . S
H827 C814 0.963 . S
H828 C814 0.957 1_655 S
H829 C815 0.958 . S
H830 C815 0.961 1_655 S
H831 C815 0.960 . S
C832 C833 1.391 . S
C832 C834 1.394 . S
C832 H848 0.931 . S
C833 C832 1.391 . S
C833 C837 1.376 . S
C834 C832 1.394 . S
C834 C835 1.369 . S
C834 C838 1.531 . S
C835 C834 1.369 . S
C835 C836 1.410 . S
C835 C843 1.503 . S
C836 C835 1.410 . S
C836 C837 1.392 . S
C836 C839 1.511 . S
C837 C833 1.376 . S
C837 C836 1.392 . S
C837 H849 0.929 . S
C838 C834 1.531 . S
C838 H850 0.960 . S
C838 H851 0.962 . S
C838 H852 0.960 1_554 S
C839 C836 1.511 . S
C839 H853 0.961 . S
C839 H854 0.961 . S
C839 H855 0.961 . S
C840 C841 1.370 . S
C840 C842 1.363 . S
C840 H856 0.931 . S
C841 C840 1.370 . S
C841 C845 1.408 . S
C842 C840 1.363 . S
C842 C843 1.370 . S
C842 C846 1.524 . S
C843 C835 1.503 . S
C843 C842 1.370 . S
C843 C844 1.403 . S
C844 C843 1.403 . S
C844 C845 1.404 . S
C844 C847 1.539 1_554 S
C845 C841 1.408 . S
C845 C844 1.404 . S
C845 H857 0.930 . S
C846 C842 1.524 . S
C846 H858 0.956 . S
C846 H859 0.961 . S
C846 H860 0.961 . S
C847 C844 1.539 1_556 S
C847 H861 0.958 . S
C847 H862 0.961 . S
C847 H863 0.960 . S
H848 C832 0.931 . S
H849 C837 0.929 . S
H850 C838 0.960 . S
H851 C838 0.962 . S
H852 C838 0.960 1_556 S
H853 C839 0.961 . S
H854 C839 0.961 . S
H855 C839 0.961 . S
H856 C840 0.931 . S
H857 C845 0.930 . S
H858 C846 0.956 . S
H859 C846 0.961 . S
H860 C846 0.961 . S
H861 C847 0.958 . S
H862 C847 0.961 . S
H863 C847 0.960 . S
C864 C865 1.391 . S
C864 C866 1.394 . S
C864 H880 0.931 . S
C865 C864 1.391 . S
C865 C869 1.376 . S
C866 C864 1.394 . S
C866 C867 1.369 . S
C866 C870 1.531 1_556 S
C867 C866 1.369 . S
C867 C868 1.410 . S
C867 C875 1.503 . S
C868 C867 1.410 . S
C868 C869 1.392 . S
C868 C871 1.511 . S
C869 C865 1.376 . S
C869 C868 1.392 . S
C869 H881 0.929 . S
C870 C866 1.531 1_554 S
C870 H882 0.960 . S
C870 H883 0.962 . S
C870 H884 0.960 . S
C871 C868 1.511 . S
C871 H885 0.961 . S
C871 H886 0.961 . S
C871 H887 0.961 . S
C872 C873 1.370 . S
C872 C874 1.363 . S
C872 H888 0.931 . S
C873 C872 1.370 . S
C873 C877 1.408 . S
C874 C872 1.363 . S
C874 C875 1.370 . S
C874 C878 1.524 . S
C875 C867 1.503 . S
C875 C874 1.370 . S
C875 C876 1.403 . S
C876 C875 1.403 . S
C876 C877 1.404 . S
C876 C879 1.539 . S
C877 C873 1.408 . S
C877 C876 1.404 . S
C877 H889 0.930 . S
C878 C874 1.524 . S
C878 H890 0.956 . S
C878 H891 0.961 . S
C878 H892 0.961 . S
C879 C876 1.539 . S
C879 H893 0.958 . S
C879 H894 0.961 . S
C879 H895 0.960 . S
H880 C864 0.931 . S
H881 C869 0.929 . S
H882 C870 0.960 . S
H883 C870 0.962 . S
H884 C870 0.960 . S
H885 C871 0.961 . S
H886 C871 0.961 . S
H887 C871 0.961 . S
H888 C872 0.931 . S
H889 C877 0.930 . S
H890 C878 0.956 . S
H891 C878 0.961 . S
H892 C878 0.961 . S
H893 C879 0.958 . S
H894 C879 0.961 . S
H895 C879 0.960 . S
C896 C897 1.391 . S
C896 C898 1.394 . S
C896 H912 0.931 . S
C897 C896 1.391 . S
C897 C901 1.376 . S
C898 C896 1.394 . S
C898 C899 1.369 . S
C898 C902 1.531 . S
C899 C898 1.369 . S
C899 C900 1.410 . S
C899 C907 1.503 . S
C900 C899 1.410 . S
C900 C901 1.392 . S
C900 C903 1.511 . S
C901 C897 1.376 . S
C901 C900 1.392 . S
C901 H913 0.929 . S
C902 C898 1.531 . S
C902 H914 0.960 . S
C902 H915 0.962 . S
C902 H916 0.960 . S
C903 C900 1.511 . S
C903 H917 0.961 . S
C903 H918 0.961 . S
C903 H919 0.961 . S
C904 C905 1.370 . S
C904 C906 1.363 . S
C904 H920 0.931 . S
C905 C904 1.370 . S
C905 C909 1.408 . S
C906 C904 1.363 . S
C906 C907 1.370 . S
C906 C910 1.524 1_554 S
C907 C899 1.503 . S
C907 C906 1.370 . S
C907 C908 1.403 . S
C908 C907 1.403 . S
C908 C909 1.404 . S
C908 C911 1.539 . S
C909 C905 1.408 . S
C909 C908 1.404 . S
C909 H921 0.930 . S
C910 C906 1.524 1_556 S
C910 H922 0.956 . S
C910 H923 0.961 . S
C910 H924 0.961 . S
C911 C908 1.539 . S
C911 H925 0.958 . S
C911 H926 0.961 . S
C911 H927 0.960 . S
H912 C896 0.931 . S
H913 C901 0.929 . S
H914 C902 0.960 . S
H915 C902 0.962 . S
H916 C902 0.960 . S
H917 C903 0.961 . S
H918 C903 0.961 . S
H919 C903 0.961 . S
H920 C904 0.931 . S
H921 C909 0.930 . S
H922 C910 0.956 . S
H923 C910 0.961 . S
H924 C910 0.961 . S
H925 C911 0.958 . S
H926 C911 0.961 . S
H927 C911 0.960 . S
C928 C929 1.391 . S
C928 C930 1.394 . S
C928 H944 0.931 . S
C929 C928 1.391 . S
C929 C933 1.376 . S
C930 C928 1.394 . S
C930 C931 1.369 . S
C930 C934 1.531 . S
C931 C930 1.369 . S
C931 C932 1.410 . S
C931 C939 1.503 . S
C932 C931 1.410 . S
C932 C933 1.392 . S
C932 C935 1.511 . S
C933 C929 1.376 . S
C933 C932 1.392 . S
C933 H945 0.929 . S
C934 C930 1.531 . S
C934 H946 0.960 . S
C934 H947 0.962 . S
C934 H948 0.960 . S
C935 C932 1.511 . S
C935 H949 0.961 . S
C935 H950 0.961 . S
C935 H951 0.961 . S
C936 C937 1.370 . S
C936 C938 1.363 . S
C936 H952 0.931 . S
C937 C936 1.370 . S
C937 C941 1.408 . S
C938 C936 1.363 . S
C938 C939 1.370 . S
C938 C942 1.524 . S
C939 C931 1.503 . S
C939 C938 1.370 . S
C939 C940 1.403 . S
C940 C939 1.403 . S
C940 C941 1.404 . S
C940 C943 1.539 1_556 S
C941 C937 1.408 . S
C941 C940 1.404 . S
C941 H953 0.930 . S
C942 C938 1.524 . S
C942 H954 0.956 . S
C942 H955 0.961 . S
C942 H956 0.961 . S
C943 C940 1.539 1_554 S
C943 H957 0.958 . S
C943 H958 0.961 . S
C943 H959 0.960 . S
H944 C928 0.931 . S
H945 C933 0.929 . S
H946 C934 0.960 . S
H947 C934 0.962 . S
H948 C934 0.960 . S
H949 C935 0.961 . S
H950 C935 0.961 . S
H951 C935 0.961 . S
H952 C936 0.931 . S
H953 C941 0.930 . S
H954 C942 0.956 . S
H955 C942 0.961 . S
H956 C942 0.961 . S
H957 C943 0.958 . S
H958 C943 0.961 . S
H959 C943 0.960 . S
C960 C961 1.391 . S
C960 C962 1.394 . S
C960 H976 0.931 . S
C961 C960 1.391 . S
C961 C965 1.376 . S
C962 C960 1.394 . S
C962 C963 1.369 . S
C962 C966 1.531 . S
C963 C962 1.369 . S
C963 C964 1.410 . S
C963 C971 1.503 . S
C964 C963 1.410 . S
C964 C965 1.392 . S
C964 C967 1.511 . S
C965 C961 1.376 . S
C965 C964 1.392 . S
C965 H977 0.929 . S
C966 C962 1.531 . S
C966 H978 0.960 . S
C966 H979 0.962 . S
C966 H980 0.960 . S
C967 C964 1.511 . S
C967 H981 0.961 . S
C967 H982 0.961 . S
C967 H983 0.961 . S
C968 C969 1.370 . S
C968 C970 1.363 . S
C968 H984 0.931 . S
C969 C968 1.370 . S
C969 C973 1.408 . S
C970 C968 1.363 . S
C970 C971 1.370 . S
C970 C974 1.524 . S
C971 C963 1.503 . S
C971 C970 1.370 . S
C971 C972 1.403 . S
C972 C971 1.403 . S
C972 C973 1.404 . S
C972 C975 1.539 . S
C973 C969 1.408 . S
C973 C972 1.404 . S
C973 H985 0.930 . S
C974 C970 1.524 . S
C974 H986 0.956 . S
C974 H987 0.961 . S
C974 H988 0.961 . S
C975 C972 1.539 . S
C975 H989 0.958 . S
C975 H990 0.961 . S
C975 H991 0.960 . S
H976 C960 0.931 . S
H977 C965 0.929 . S
H978 C966 0.960 . S
H979 C966 0.962 . S
H980 C966 0.960 . S
H981 C967 0.961 . S
H982 C967 0.961 . S
H983 C967 0.961 . S
H984 C968 0.931 . S
H985 C973 0.930 . S
H986 C974 0.956 . S
H987 C974 0.961 . S
H988 C974 0.961 . S
H989 C975 0.958 . S
H990 C975 0.961 . S
H991 C975 0.960 . S
C992 C993 1.391 . S
C992 C994 1.394 . S
C992 H1008 0.931 . S
C993 C992 1.391 . S
C993 C997 1.376 . S
C994 C992 1.394 . S
C994 C995 1.369 . S
C994 C998 1.531 . S
C995 C994 1.369 . S
C995 C996 1.410 . S
C995 C1003 1.503 . S
C996 C995 1.410 . S
C996 C997 1.392 . S
C996 C999 1.511 . S
C997 C993 1.376 . S
C997 C996 1.392 . S
C997 H1009 0.929 . S
C998 C994 1.531 . S
C998 H1010 0.960 . S
C998 H1011 0.962 . S
C998 H1012 0.960 . S
C999 C996 1.511 . S
C999 H1013 0.961 . S
C999 H1014 0.961 . S
C999 H1015 0.961 . S
C1000 C1001 1.370 . S
C1000 C1002 1.363 . S
C1000 H1016 0.931 . S
C1001 C1000 1.370 . S
C1001 C1005 1.408 . S
C1002 C1000 1.363 . S
C1002 C1003 1.370 . S
C1002 C1006 1.524 . S
C1003 C995 1.503 . S
C1003 C1002 1.370 . S
C1003 C1004 1.403 . S
C1004 C1003 1.403 . S
C1004 C1005 1.404 . S
C1004 C1007 1.539 . S
C1005 C1001 1.408 . S
C1005 C1004 1.404 . S
C1005 H1017 0.930 . S
C1006 C1002 1.524 . S
C1006 H1018 0.956 . S
C1006 H1019 0.961 . S
C1006 H1020 0.961 . S
C1007 C1004 1.539 . S
C1007 H1021 0.958 . S
C1007 H1022 0.961 . S
C1007 H1023 0.960 . S
H1008 C992 0.931 . S
H1009 C997 0.929 . S
H1010 C998 0.960 . S
H1011 C998 0.962 . S
H1012 C998 0.960 . S
H1013 C999 0.961 . S
H1014 C999 0.961 . S
H1015 C999 0.961 . S
H1016 C1000 0.931 . S
H1017 C1005 0.930 . S
H1018 C1006 0.956 . S
H1019 C1006 0.961 . S
H1020 C1006 0.961 . S
H1021 C1007 0.958 . S
H1022 C1007 0.961 . S
H1023 C1007 0.960 . S
C1024 C1025 1.391 . S
C1024 C1026 1.394 . S
C1024 H1040 0.931 . S
C1025 C1024 1.391 . S
C1025 C1029 1.376 . S
C1026 C1024 1.394 . S
C1026 C1027 1.369 . S
C1026 C1030 1.531 . S
C1027 C1026 1.369 . S
C1027 C1028 1.410 . S
C1027 C1035 1.503 . S
C1028 C1027 1.410 . S
C1028 C1029 1.392 . S
C1028 C1031 1.511 . S
C1029 C1025 1.376 . S
C1029 C1028 1.392 . S
C1029 H1041 0.929 . S
C1030 C1026 1.531 . S
C1030 H1042 0.960 . S
C1030 H1043 0.962 . S
C1030 H1044 0.960 . S
C1031 C1028 1.511 . S
C1031 H1045 0.961 . S
C1031 H1046 0.961 . S
C1031 H1047 0.961 . S
C1032 C1033 1.370 . S
C1032 C1034 1.363 . S
C1032 H1048 0.931 . S
C1033 C1032 1.370 . S
C1033 C1037 1.408 . S
C1034 C1032 1.363 . S
C1034 C1035 1.370 . S
C1034 C1038 1.524 . S
C1035 C1027 1.503 . S
C1035 C1034 1.370 . S
C1035 C1036 1.403 . S
C1036 C1035 1.403 . S
C1036 C1037 1.404 . S
C1036 C1039 1.539 . S
C1037 C1033 1.408 . S
C1037 C1036 1.404 . S
C1037 H1049 0.930 . S
C1038 C1034 1.524 . S
C1038 H1050 0.956 . S
C1038 H1051 0.961 . S
C1038 H1052 0.961 . S
C1039 C1036 1.539 . S
C1039 H1053 0.958 . S
C1039 H1054 0.961 . S
C1039 H1055 0.960 . S
H1040 C1024 0.931 . S
H1041 C1029 0.929 . S
H1042 C1030 0.960 . S
H1043 C1030 0.962 . S
H1044 C1030 0.960 . S
H1045 C1031 0.961 . S
H1046 C1031 0.961 . S
H1047 C1031 0.961 . S
H1048 C1032 0.931 . S
H1049 C1037 0.930 . S
H1050 C1038 0.956 . S
H1051 C1038 0.961 . S
H1052 C1038 0.961 . S
H1053 C1039 0.958 . S
H1054 C1039 0.961 . S
H1055 C1039 0.960 . S
C1056 C1057 1.391 . S
C1056 C1058 1.394 . S
C1056 H1072 0.931 . S
C1057 C1056 1.391 . S
C1057 C1061 1.376 . S
C1058 C1056 1.394 . S
C1058 C1059 1.369 . S
C1058 C1062 1.531 . S
C1059 C1058 1.369 . S
C1059 C1060 1.410 . S
C1059 C1067 1.503 . S
C1060 C1059 1.410 . S
C1060 C1061 1.392 . S
C1060 C1063 1.511 . S
C1061 C1057 1.376 . S
C1061 C1060 1.392 . S
C1061 H1073 0.929 . S
C1062 C1058 1.531 . S
C1062 H1074 0.960 . S
C1062 H1075 0.962 . S
C1062 H1076 0.960 . S
C1063 C1060 1.511 . S
C1063 H1077 0.961 . S
C1063 H1078 0.961 . S
C1063 H1079 0.961 . S
C1064 C1065 1.370 . S
C1064 C1066 1.363 . S
C1064 H1080 0.931 . S
C1065 C1064 1.370 . S
C1065 C1069 1.408 . S
C1066 C1064 1.363 . S
C1066 C1067 1.370 . S
C1066 C1070 1.524 . S
C1067 C1059 1.503 . S
C1067 C1066 1.370 . S
C1067 C1068 1.403 . S
C1068 C1067 1.403 . S
C1068 C1069 1.404 . S
C1068 C1071 1.539 . S
C1069 C1065 1.408 . S
C1069 C1068 1.404 . S
C1069 H1081 0.930 . S
C1070 C1066 1.524 . S
C1070 H1082 0.956 . S
C1070 H1083 0.961 . S
C1070 H1084 0.961 . S
C1071 C1068 1.539 . S
C1071 H1085 0.958 . S
C1071 H1086 0.961 . S
C1071 H1087 0.960 . S
H1072 C1056 0.931 . S
H1073 C1061 0.929 . S
H1074 C1062 0.960 . S
H1075 C1062 0.962 . S
H1076 C1062 0.960 . S
H1077 C1063 0.961 . S
H1078 C1063 0.961 . S
H1079 C1063 0.961 . S
H1080 C1064 0.931 . S
H1081 C1069 0.930 . S
H1082 C1070 0.956 . S
H1083 C1070 0.961 . S
H1084 C1070 0.961 . S
H1085 C1071 0.958 . S
H1086 C1071 0.961 . S
H1087 C1071 0.960 . S
C1088 C1089 1.391 . S
C1088 C1090 1.394 . S
C1088 H1104 0.931 . S
C1089 C1088 1.391 . S
C1089 C1093 1.376 . S
C1090 C1088 1.394 . S
C1090 C1091 1.369 . S
C1090 C1094 1.531 . S
C1091 C1090 1.369 . S
C1091 C1092 1.410 . S
C1091 C1099 1.503 . S
C1092 C1091 1.410 . S
C1092 C1093 1.392 . S
C1092 C1095 1.511 1_556 S
C1093 C1089 1.376 . S
C1093 C1092 1.392 . S
C1093 H1105 0.929 . S
C1094 C1090 1.531 . S
C1094 H1106 0.960 . S
C1094 H1107 0.962 . S
C1094 H1108 0.960 . S
C1095 C1092 1.511 1_554 S
C1095 H1109 0.961 . S
C1095 H1110 0.961 . S
C1095 H1111 0.961 . S
C1096 C1097 1.370 . S
C1096 C1098 1.363 . S
C1096 H1112 0.931 . S
C1097 C1096 1.370 . S
C1097 C1101 1.408 . S
C1098 C1096 1.363 . S
C1098 C1099 1.370 . S
C1098 C1102 1.524 . S
C1099 C1091 1.503 . S
C1099 C1098 1.370 . S
C1099 C1100 1.403 . S
C1100 C1099 1.403 . S
C1100 C1101 1.404 . S
C1100 C1103 1.539 . S
C1101 C1097 1.408 . S
C1101 C1100 1.404 . S
C1101 H1113 0.930 . S
C1102 C1098 1.524 . S
C1102 H1114 0.956 . S
C1102 H1115 0.961 . S
C1102 H1116 0.961 . S
C1103 C1100 1.539 . S
C1103 H1117 0.958 . S
C1103 H1118 0.961 . S
C1103 H1119 0.960 . S
H1104 C1088 0.931 . S
H1105 C1093 0.929 . S
H1106 C1094 0.960 . S
H1107 C1094 0.962 . S
H1108 C1094 0.960 . S
H1109 C1095 0.961 . S
H1110 C1095 0.961 . S
H1111 C1095 0.961 . S
H1112 C1096 0.931 . S
H1113 C1101 0.930 . S
H1114 C1102 0.956 . S
H1115 C1102 0.961 . S
H1116 C1102 0.961 . S
H1117 C1103 0.958 . S
H1118 C1103 0.961 . S
H1119 C1103 0.960 . S
C1120 C1121 1.391 1_556 S
C1120 C1122 1.394 1_556 S
C1120 H1136 0.931 . S
C1121 C1120 1.391 1_554 S
C1121 C1125 1.376 . S
C1122 C1120 1.394 1_554 S
C1122 C1123 1.369 . S
C1122 C1126 1.531 1_554 S
C1123 C1122 1.369 . S
C1123 C1124 1.410 . S
C1123 C1131 1.503 . S
C1124 C1123 1.410 . S
C1124 C1125 1.392 . S
C1124 C1127 1.511 . S
C1125 C1121 1.376 . S
C1125 C1124 1.392 . S
C1125 H1137 0.929 . S
C1126 C1122 1.531 1_556 S
C1126 H1138 0.960 . S
C1126 H1139 0.962 . S
C1126 H1140 0.960 . S
C1127 C1124 1.511 . S
C1127 H1141 0.961 . S
C1127 H1142 0.961 . S
C1127 H1143 0.961 . S
C1128 C1129 1.370 . S
C1128 C1130 1.363 . S
C1128 H1144 0.931 . S
C1129 C1128 1.370 . S
C1129 C1133 1.408 . S
C1130 C1128 1.363 . S
C1130 C1131 1.370 . S
C1130 C1134 1.524 . S
C1131 C1123 1.503 . S
C1131 C1130 1.370 . S
C1131 C1132 1.403 . S
C1132 C1131 1.403 . S
C1132 C1133 1.404 . S
C1132 C1135 1.539 . S
C1133 C1129 1.408 . S
C1133 C1132 1.404 . S
C1133 H1145 0.930 . S
C1134 C1130 1.524 . S
C1134 H1146 0.956 . S
C1134 H1147 0.961 . S
C1134 H1148 0.961 . S
C1135 C1132 1.539 . S
C1135 H1149 0.958 . S
C1135 H1150 0.961 . S
C1135 H1151 0.960 . S
H1136 C1120 0.931 . S
H1137 C1125 0.929 . S
H1138 C1126 0.960 . S
H1139 C1126 0.962 . S
H1140 C1126 0.960 . S
H1141 C1127 0.961 . S
H1142 C1127 0.961 . S
H1143 C1127 0.961 . S
H1144 C1128 0.931 . S
H1145 C1133 0.930 . S
H1146 C1134 0.956 . S
H1147 C1134 0.961 . S
H1148 C1134 0.961 . S
H1149 C1135 0.958 . S
H1150 C1135 0.961 . S
H1151 C1135 0.960 . S
C1152 C1153 1.391 . S
C1152 C1154 1.394 . S
C1152 H1168 0.931 . S
C1153 C1152 1.391 . S
C1153 C1157 1.376 1_556 S
C1154 C1152 1.394 . S
C1154 C1155 1.369 . S
C1154 C1158 1.531 . S
C1155 C1154 1.369 . S
C1155 C1156 1.410 . S
C1155 C1163 1.503 . S
C1156 C1155 1.410 . S
C1156 C1157 1.392 1_556 S
C1156 C1159 1.511 1_556 S
C1157 C1153 1.376 1_554 S
C1157 C1156 1.392 1_554 S
C1157 H1169 0.929 . S
C1158 C1154 1.531 . S
C1158 H1170 0.960 . S
C1158 H1171 0.962 . S
C1158 H1172 0.960 . S
C1159 C1156 1.511 1_554 S
C1159 H1173 0.961 . S
C1159 H1174 0.961 . S
C1159 H1175 0.961 . S
C1160 C1161 1.370 . S
C1160 C1162 1.363 . S
C1160 H1176 0.931 . S
C1161 C1160 1.370 . S
C1161 C1165 1.408 . S
C1162 C1160 1.363 . S
C1162 C1163 1.370 . S
C1162 C1166 1.524 . S
C1163 C1155 1.503 . S
C1163 C1162 1.370 . S
C1163 C1164 1.403 . S
C1164 C1163 1.403 . S
C1164 C1165 1.404 . S
C1164 C1167 1.539 . S
C1165 C1161 1.408 . S
C1165 C1164 1.404 . S
C1165 H1177 0.930 . S
C1166 C1162 1.524 . S
C1166 H1178 0.956 . S
C1166 H1179 0.961 . S
C1166 H1180 0.961 . S
C1167 C1164 1.539 . S
C1167 H1181 0.958 . S
C1167 H1182 0.961 . S
C1167 H1183 0.960 . S
H1168 C1152 0.931 . S
H1169 C1157 0.929 . S
H1170 C1158 0.960 . S
H1171 C1158 0.962 . S
H1172 C1158 0.960 . S
H1173 C1159 0.961 . S
H1174 C1159 0.961 . S
H1175 C1159 0.961 . S
H1176 C1160 0.931 . S
H1177 C1165 0.930 . S
H1178 C1166 0.956 . S
H1179 C1166 0.961 . S
H1180 C1166 0.961 . S
H1181 C1167 0.958 . S
H1182 C1167 0.961 . S
H1183 C1167 0.960 . S
C1184 C1185 1.391 1_556 S
C1184 C1186 1.394 1_556 S
C1184 H1200 0.931 . S
C1185 C1184 1.391 1_554 S
C1185 C1189 1.376 . S
C1186 C1184 1.394 1_554 S
C1186 C1187 1.369 . S
C1186 C1190 1.531 1_554 S
C1187 C1186 1.369 . S
C1187 C1188 1.410 . S
C1187 C1195 1.503 . S
C1188 C1187 1.410 . S
C1188 C1189 1.392 . S
C1188 C1191 1.511 . S
C1189 C1185 1.376 . S
C1189 C1188 1.392 . S
C1189 H1201 0.929 . S
C1190 C1186 1.531 1_556 S
C1190 H1202 0.953 1_556 S
C1190 H1203 0.962 . S
C1190 H1204 0.960 . S
C1191 C1188 1.511 . S
C1191 H1205 0.961 . S
C1191 H1206 0.961 . S
C1191 H1207 0.961 . S
C1192 C1193 1.370 . S
C1192 C1194 1.363 . S
C1192 H1208 0.931 . S
C1193 C1192 1.370 . S
C1193 C1197 1.408 . S
C1194 C1192 1.363 . S
C1194 C1195 1.370 . S
C1194 C1198 1.524 . S
C1195 C1187 1.503 . S
C1195 C1194 1.370 . S
C1195 C1196 1.403 . S
C1196 C1195 1.403 . S
C1196 C1197 1.404 . S
C1196 C1199 1.539 . S
C1197 C1193 1.408 . S
C1197 C1196 1.404 . S
C1197 H1209 0.930 . S
C1198 C1194 1.524 . S
C1198 H1210 0.956 . S
C1198 H1211 0.961 . S
C1198 H1212 0.961 . S
C1199 C1196 1.539 . S
C1199 H1213 0.958 . S
C1199 H1214 0.961 . S
C1199 H1215 0.960 . S
H1200 C1184 0.931 . S
H1201 C1189 0.929 . S
H1202 C1190 0.953 1_554 S
H1203 C1190 0.962 . S
H1204 C1190 0.960 . S
H1205 C1191 0.961 . S
H1206 C1191 0.961 . S
H1207 C1191 0.961 . S
H1208 C1192 0.931 . S
H1209 C1197 0.930 . S
H1210 C1198 0.956 . S
H1211 C1198 0.961 . S
H1212 C1198 0.961 . S
H1213 C1199 0.958 . S
H1214 C1199 0.961 . S
H1215 C1199 0.960 . S
C1216 C1217 1.391 . S
C1216 C1218 1.394 . S
C1216 H1232 0.931 . S
C1217 C1216 1.391 . S
C1217 C1221 1.376 . S
C1218 C1216 1.394 . S
C1218 C1219 1.369 . S
C1218 C1222 1.531 . S
C1219 C1218 1.369 . S
C1219 C1220 1.410 . S
C1219 C1227 1.503 . S
C1220 C1219 1.410 . S
C1220 C1221 1.392 . S
C1220 C1223 1.511 . S
C1221 C1217 1.376 . S
C1221 C1220 1.392 . S
C1221 H1233 0.929 . S
C1222 C1218 1.531 . S
C1222 H1234 0.960 . S
C1222 H1235 0.962 . S
C1222 H1236 0.960 . S
C1223 C1220 1.511 . S
C1223 H1237 0.961 . S
C1223 H1238 0.961 . S
C1223 H1239 0.961 . S
C1224 C1225 1.370 . S
C1224 C1226 1.363 . S
C1224 H1240 0.931 . S
C1225 C1224 1.370 . S
C1225 C1229 1.408 . S
C1226 C1224 1.363 . S
C1226 C1227 1.370 . S
C1226 C1230 1.524 . S
C1227 C1219 1.503 . S
C1227 C1226 1.370 . S
C1227 C1228 1.403 . S
C1228 C1227 1.403 . S
C1228 C1229 1.404 . S
C1228 C1231 1.539 . S
C1229 C1225 1.408 . S
C1229 C1228 1.404 . S
C1229 H1241 0.930 . S
C1230 C1226 1.524 . S
C1230 H1242 0.956 . S
C1230 H1243 0.961 . S
C1230 H1244 0.961 . S
C1231 C1228 1.539 . S
C1231 H1245 0.958 . S
C1231 H1246 0.961 . S
C1231 H1247 0.960 . S
H1232 C1216 0.931 . S
H1233 C1221 0.929 . S
H1234 C1222 0.960 . S
H1235 C1222 0.962 . S
H1236 C1222 0.960 . S
H1237 C1223 0.961 . S
H1238 C1223 0.961 . S
H1239 C1223 0.961 . S
H1240 C1224 0.931 . S
H1241 C1229 0.930 . S
H1242 C1230 0.956 . S
H1243 C1230 0.961 . S
H1244 C1230 0.961 . S
H1245 C1231 0.958 . S
H1246 C1231 0.961 . S
H1247 C1231 0.960 . S
C1248 C1249 1.391 . S
C1248 C1250 1.394 . S
C1248 H1264 0.931 . S
C1249 C1248 1.391 . S
C1249 C1253 1.376 . S
C1250 C1248 1.394 . S
C1250 C1251 1.369 . S
C1250 C1254 1.531 . S
C1251 C1250 1.369 . S
C1251 C1252 1.410 . S
C1251 C1259 1.503 . S
C1252 C1251 1.410 . S
C1252 C1253 1.392 . S
C1252 C1255 1.511 . S
C1253 C1249 1.376 . S
C1253 C1252 1.392 . S
C1253 H1265 0.929 . S
C1254 C1250 1.531 . S
C1254 H1266 0.960 . S
C1254 H1267 0.962 . S
C1254 H1268 0.960 . S
C1255 C1252 1.511 . S
C1255 H1269 0.961 . S
C1255 H1270 0.961 . S
C1255 H1271 0.961 . S
C1256 C1257 1.370 . S
C1256 C1258 1.363 . S
C1256 H1272 0.931 . S
C1257 C1256 1.370 . S
C1257 C1261 1.408 . S
C1258 C1256 1.363 . S
C1258 C1259 1.370 . S
C1258 C1262 1.524 . S
C1259 C1251 1.503 . S
C1259 C1258 1.370 . S
C1259 C1260 1.403 . S
C1260 C1259 1.403 . S
C1260 C1261 1.404 . S
C1260 C1263 1.539 . S
C1261 C1257 1.408 . S
C1261 C1260 1.404 . S
C1261 H1273 0.930 . S
C1262 C1258 1.524 . S
C1262 H1274 0.956 . S
C1262 H1275 0.961 . S
C1262 H1276 0.961 . S
C1263 C1260 1.539 . S
C1263 H1277 0.958 . S
C1263 H1278 0.961 . S
C1263 H1279 0.960 . S
H1264 C1248 0.931 . S
H1265 C1253 0.929 . S
H1266 C1254 0.960 . S
H1267 C1254 0.962 . S
H1268 C1254 0.960 . S
H1269 C1255 0.961 . S
H1270 C1255 0.961 . S
H1271 C1255 0.961 . S
H1272 C1256 0.931 . S
H1273 C1261 0.930 . S
H1274 C1262 0.956 . S
H1275 C1262 0.961 . S
H1276 C1262 0.961 . S
H1277 C1263 0.958 . S
H1278 C1263 0.961 . S
H1279 C1263 0.960 . S
C1280 C1281 1.391 . S
C1280 C1282 1.394 . S
C1280 H1296 0.931 . S
C1281 C1280 1.391 . S
C1281 C1285 1.376 . S
C1282 C1280 1.394 . S
C1282 C1283 1.369 . S
C1282 C1286 1.531 . S
C1283 C1282 1.369 . S
C1283 C1284 1.410 . S
C1283 C1291 1.503 . S
C1284 C1283 1.410 . S
C1284 C1285 1.392 . S
C1284 C1287 1.511 . S
C1285 C1281 1.376 . S
C1285 C1284 1.392 . S
C1285 H1297 0.929 . S
C1286 C1282 1.531 . S
C1286 H1298 0.960 . S
C1286 H1299 0.962 . S
C1286 H1300 0.960 . S
C1287 C1284 1.511 . S
C1287 H1301 0.961 . S
C1287 H1302 0.961 . S
C1287 H1303 0.961 . S
C1288 C1289 1.370 . S
C1288 C1290 1.363 . S
C1288 H1304 0.931 . S
C1289 C1288 1.370 . S
C1289 C1293 1.408 . S
C1290 C1288 1.363 . S
C1290 C1291 1.370 . S
C1290 C1294 1.524 . S
C1291 C1283 1.503 . S
C1291 C1290 1.370 . S
C1291 C1292 1.403 . S
C1292 C1291 1.403 . S
C1292 C1293 1.404 . S
C1292 C1295 1.539 . S
C1293 C1289 1.408 . S
C1293 C1292 1.404 . S
C1293 H1305 0.930 . S
C1294 C1290 1.524 . S
C1294 H1306 0.956 . S
C1294 H1307 0.961 . S
C1294 H1308 0.961 . S
C1295 C1292 1.539 . S
C1295 H1309 0.958 . S
C1295 H1310 0.961 . S
C1295 H1311 0.960 . S
H1296 C1280 0.931 . S
H1297 C1285 0.929 . S
H1298 C1286 0.960 . S
H1299 C1286 0.962 . S
H1300 C1286 0.960 . S
H1301 C1287 0.961 . S
H1302 C1287 0.961 . S
H1303 C1287 0.961 . S
H1304 C1288 0.931 . S
H1305 C1293 0.930 . S
H1306 C1294 0.956 . S
H1307 C1294 0.961 . S
H1308 C1294 0.961 . S
H1309 C1295 0.958 . S
H1310 C1295 0.961 . S
H1311 C1295 0.960 . S
C1312 C1313 1.391 . S
C1312 C1314 1.394 . S
C1312 H1328 0.931 . S
C1313 C1312 1.391 . S
C1313 C1317 1.376 . S
C1314 C1312 1.394 . S
C1314 C1315 1.369 . S
C1314 C1318 1.531 . S
C1315 C1314 1.369 . S
C1315 C1316 1.410 . S
C1315 C1323 1.503 . S
C1316 C1315 1.410 . S
C1316 C1317 1.392 . S
C1316 C1319 1.511 . S
C1317 C1313 1.376 . S
C1317 C1316 1.392 . S
C1317 H1329 0.929 . S
C1318 C1314 1.531 . S
C1318 H1330 0.960 . S
C1318 H1331 0.962 . S
C1318 H1332 0.960 . S
C1319 C1316 1.511 . S
C1319 H1333 0.961 . S
C1319 H1334 0.961 . S
C1319 H1335 0.961 . S
C1320 C1321 1.370 . S
C1320 C1322 1.363 . S
C1320 H1336 0.931 . S
C1321 C1320 1.370 . S
C1321 C1325 1.408 . S
C1322 C1320 1.363 . S
C1322 C1323 1.370 . S
C1322 C1326 1.524 . S
C1323 C1315 1.503 . S
C1323 C1322 1.370 . S
C1323 C1324 1.403 . S
C1324 C1323 1.403 . S
C1324 C1325 1.404 . S
C1324 C1327 1.539 . S
C1325 C1321 1.408 . S
C1325 C1324 1.404 . S
C1325 H1337 0.930 . S
C1326 C1322 1.524 . S
C1326 H1338 0.956 . S
C1326 H1339 0.961 . S
C1326 H1340 0.961 . S
C1327 C1324 1.539 . S
C1327 H1341 0.958 . S
C1327 H1342 0.961 . S
C1327 H1343 0.960 . S
H1328 C1312 0.931 . S
H1329 C1317 0.929 . S
H1330 C1318 0.960 . S
H1331 C1318 0.962 . S
H1332 C1318 0.960 . S
H1333 C1319 0.961 . S
H1334 C1319 0.961 . S
H1335 C1319 0.961 . S
H1336 C1320 0.931 . S
H1337 C1325 0.930 . S
H1338 C1326 0.956 . S
H1339 C1326 0.961 . S
H1340 C1326 0.961 . S
H1341 C1327 0.958 . S
H1342 C1327 0.961 . S
H1343 C1327 0.960 . S
C1344 C1345 1.391 . S
C1344 C1346 1.394 . S
C1344 H1360 0.931 . S
C1345 C1344 1.391 . S
C1345 C1349 1.376 . S
C1346 C1344 1.394 . S
C1346 C1347 1.369 . S
C1346 C1350 1.531 . S
C1347 C1346 1.369 . S
C1347 C1348 1.410 . S
C1347 C1355 1.503 . S
C1348 C1347 1.410 . S
C1348 C1349 1.392 . S
C1348 C1351 1.511 . S
C1349 C1345 1.376 . S
C1349 C1348 1.392 . S
C1349 H1361 0.929 . S
C1350 C1346 1.531 . S
C1350 H1362 0.960 . S
C1350 H1363 0.962 . S
C1350 H1364 0.960 . S
C1351 C1348 1.511 . S
C1351 H1365 0.961 . S
C1351 H1366 0.961 . S
C1351 H1367 0.961 . S
C1352 C1353 1.370 . S
C1352 C1354 1.363 . S
C1352 H1368 0.931 . S
C1353 C1352 1.370 . S
C1353 C1357 1.408 . S
C1354 C1352 1.363 . S
C1354 C1355 1.370 . S
C1354 C1358 1.524 . S
C1355 C1347 1.503 . S
C1355 C1354 1.370 . S
C1355 C1356 1.403 . S
C1356 C1355 1.403 . S
C1356 C1357 1.404 . S
C1356 C1359 1.539 . S
C1357 C1353 1.408 . S
C1357 C1356 1.404 . S
C1357 H1369 0.930 . S
C1358 C1354 1.524 . S
C1358 H1370 0.956 . S
C1358 H1371 0.961 . S
C1358 H1372 0.961 . S
C1359 C1356 1.539 . S
C1359 H1373 0.958 . S
C1359 H1374 0.961 . S
C1359 H1375 0.960 . S
H1360 C1344 0.931 . S
H1361 C1349 0.929 . S
H1362 C1350 0.960 . S
H1363 C1350 0.962 . S
H1364 C1350 0.960 . S
H1365 C1351 0.961 . S
H1366 C1351 0.961 . S
H1367 C1351 0.961 . S
H1368 C1352 0.931 . S
H1369 C1357 0.930 . S
H1370 C1358 0.956 . S
H1371 C1358 0.961 . S
H1372 C1358 0.961 . S
H1373 C1359 0.958 . S
H1374 C1359 0.961 . S
H1375 C1359 0.960 . S
C1376 C1377 1.391 . S
C1376 C1378 1.394 . S
C1376 H1392 0.931 . S
C1377 C1376 1.391 . S
C1377 C1381 1.376 . S
C1378 C1376 1.394 . S
C1378 C1379 1.369 . S
C1378 C1382 1.531 . S
C1379 C1378 1.369 . S
C1379 C1380 1.410 . S
C1379 C1387 1.503 . S
C1380 C1379 1.410 . S
C1380 C1381 1.392 . S
C1380 C1383 1.511 . S
C1381 C1377 1.376 . S
C1381 C1380 1.392 . S
C1381 H1393 0.929 . S
C1382 C1378 1.531 . S
C1382 H1394 0.960 . S
C1382 H1395 0.962 . S
C1382 H1396 0.960 . S
C1383 C1380 1.511 . S
C1383 H1397 0.961 . S
C1383 H1398 0.961 . S
C1383 H1399 0.961 . S
C1384 C1385 1.370 . S
C1384 C1386 1.363 . S
C1384 H1400 0.931 . S
C1385 C1384 1.370 . S
C1385 C1389 1.408 . S
C1386 C1384 1.363 . S
C1386 C1387 1.370 . S
C1386 C1390 1.524 . S
C1387 C1379 1.503 . S
C1387 C1386 1.370 . S
C1387 C1388 1.403 . S
C1388 C1387 1.403 . S
C1388 C1389 1.404 . S
C1388 C1391 1.539 . S
C1389 C1385 1.408 . S
C1389 C1388 1.404 . S
C1389 H1401 0.930 . S
C1390 C1386 1.524 . S
C1390 H1402 0.956 . S
C1390 H1403 0.961 . S
C1390 H1404 0.961 . S
C1391 C1388 1.539 . S
C1391 H1405 0.958 . S
C1391 H1406 0.961 . S
C1391 H1407 0.960 . S
H1392 C1376 0.931 . S
H1393 C1381 0.929 . S
H1394 C1382 0.960 . S
H1395 C1382 0.962 . S
H1396 C1382 0.960 . S
H1397 C1383 0.961 . S
H1398 C1383 0.961 . S
H1399 C1383 0.961 . S
H1400 C1384 0.931 . S
H1401 C1389 0.930 . S
H1402 C1390 0.956 . S
H1403 C1390 0.961 . S
H1404 C1390 0.961 . S
H1405 C1391 0.958 . S
H1406 C1391 0.961 . S
H1407 C1391 0.960 . S
C1408 C1409 1.391 . S
C1408 C1410 1.394 . S
C1408 H1424 0.931 . S
C1409 C1408 1.391 . S
C1409 C1413 1.376 . S
C1410 C1408 1.394 . S
C1410 C1411 1.369 . S
C1410 C1414 1.531 . S
C1411 C1410 1.369 . S
C1411 C1412 1.410 . S
C1411 C1419 1.503 . S
C1412 C1411 1.410 . S
C1412 C1413 1.392 . S
C1412 C1415 1.511 . S
C1413 C1409 1.376 . S
C1413 C1412 1.392 . S
C1413 H1425 0.929 . S
C1414 C1410 1.531 . S
C1414 H1426 0.960 . S
C1414 H1427 0.962 . S
C1414 H1428 0.960 . S
C1415 C1412 1.511 . S
C1415 H1429 0.961 . S
C1415 H1430 0.961 . S
C1415 H1431 0.961 . S
C1416 C1417 1.370 . S
C1416 C1418 1.363 . S
C1416 H1432 0.931 . S
C1417 C1416 1.370 . S
C1417 C1421 1.408 . S
C1418 C1416 1.363 . S
C1418 C1419 1.370 . S
C1418 C1422 1.524 . S
C1419 C1411 1.503 . S
C1419 C1418 1.370 . S
C1419 C1420 1.403 . S
C1420 C1419 1.403 . S
C1420 C1421 1.404 . S
C1420 C1423 1.539 . S
C1421 C1417 1.408 . S
C1421 C1420 1.404 . S
C1421 H1433 0.930 . S
C1422 C1418 1.524 . S
C1422 H1434 0.956 . S
C1422 H1435 0.961 . S
C1422 H1436 0.961 . S
C1423 C1420 1.539 . S
C1423 H1437 0.958 . S
C1423 H1438 0.961 . S
C1423 H1439 0.960 . S
H1424 C1408 0.931 . S
H1425 C1413 0.929 . S
H1426 C1414 0.960 . S
H1427 C1414 0.962 . S
H1428 C1414 0.960 . S
H1429 C1415 0.961 . S
H1430 C1415 0.961 . S
H1431 C1415 0.961 . S
H1432 C1416 0.931 . S
H1433 C1421 0.930 . S
H1434 C1422 0.956 . S
H1435 C1422 0.961 . S
H1436 C1422 0.961 . S
H1437 C1423 0.958 . S
H1438 C1423 0.961 . S
H1439 C1423 0.960 . S
C1440 C1441 1.391 . S
C1440 C1442 1.394 . S
C1440 H1456 0.931 . S
C1441 C1440 1.391 . S
C1441 C1445 1.376 . S
C1442 C1440 1.394 . S
C1442 C1443 1.369 . S
C1442 C1446 1.531 . S
C1443 C1442 1.369 . S
C1443 C1444 1.410 . S
C1443 C1451 1.503 . S
C1444 C1443 1.410 . S
C1444 C1445 1.392 . S
C1444 C1447 1.511 . S
C1445 C1441 1.376 . S
C1445 C1444 1.392 . S
C1445 H1457 0.929 . S
C1446 C1442 1.531 . S
C1446 H1458 0.960 . S
C1446 H1459 0.962 . S
C1446 H1460 0.960 . S
C1447 C1444 1.511 . S
C1447 H1461 0.961 . S
C1447 H1462 0.961 . S
C1447 H1463 0.961 . S
C1448 C1449 1.370 . S
C1448 C1450 1.363 . S
C1448 H1464 0.931 . S
C1449 C1448 1.370 . S
C1449 C1453 1.408 . S
C1450 C1448 1.363 . S
C1450 C1451 1.370 . S
C1450 C1454 1.524 . S
C1451 C1443 1.503 . S
C1451 C1450 1.370 . S
C1451 C1452 1.403 . S
C1452 C1451 1.403 . S
C1452 C1453 1.404 . S
C1452 C1455 1.539 . S
C1453 C1449 1.408 . S
C1453 C1452 1.404 . S
C1453 H1465 0.930 . S
C1454 C1450 1.524 . S
C1454 H1466 0.956 . S
C1454 H1467 0.961 . S
C1454 H1468 0.961 . S
C1455 C1452 1.539 . S
C1455 H1469 0.958 . S
C1455 H1470 0.961 . S
C1455 H1471 0.960 . S
H1456 C1440 0.931 . S
H1457 C1445 0.929 . S
H1458 C1446 0.960 . S
H1459 C1446 0.962 . S
H1460 C1446 0.960 . S
H1461 C1447 0.961 . S
H1462 C1447 0.961 . S
H1463 C1447 0.961 . S
H1464 C1448 0.931 . S
H1465 C1453 0.930 . S
H1466 C1454 0.956 . S
H1467 C1454 0.961 . S
H1468 C1454 0.961 . S
H1469 C1455 0.958 . S
H1470 C1455 0.961 . S
H1471 C1455 0.960 . S
C1472 C1473 1.391 . S
C1472 C1474 1.394 . S
C1472 H1488 0.931 . S
C1473 C1472 1.391 . S
C1473 C1477 1.376 . S
C1474 C1472 1.394 . S
C1474 C1475 1.369 . S
C1474 C1478 1.531 . S
C1475 C1474 1.369 . S
C1475 C1476 1.410 . S
C1475 C1483 1.503 . S
C1476 C1475 1.410 . S
C1476 C1477 1.392 . S
C1476 C1479 1.511 . S
C1477 C1473 1.376 . S
C1477 C1476 1.392 . S
C1477 H1489 0.929 . S
C1478 C1474 1.531 . S
C1478 H1490 0.960 . S
C1478 H1491 0.962 . S
C1478 H1492 0.960 . S
C1479 C1476 1.511 . S
C1479 H1493 0.961 . S
C1479 H1494 0.961 . S
C1479 H1495 0.961 . S
C1480 C1481 1.370 . S
C1480 C1482 1.363 . S
C1480 H1496 0.931 . S
C1481 C1480 1.370 . S
C1481 C1485 1.408 . S
C1482 C1480 1.363 . S
C1482 C1483 1.370 . S
C1482 C1486 1.524 . S
C1483 C1475 1.503 . S
C1483 C1482 1.370 . S
C1483 C1484 1.403 . S
C1484 C1483 1.403 . S
C1484 C1485 1.404 . S
C1484 C1487 1.539 . S
C1485 C1481 1.408 . S
C1485 C1484 1.404 . S
C1485 H1497 0.930 . S
C1486 C1482 1.524 . S
C1486 H1498 0.956 . S
C1486 H1499 0.961 . S
C1486 H1500 0.961 . S
C1487 C1484 1.539 . S
C1487 H1501 0.958 . S
C1487 H1502 0.961 . S
C1487 H1503 0.960 . S
H1488 C1472 0.931 . S
H1489 C1477 0.929 . S
H1490 C1478 0.960 . S
H1491 C1478 0.962 . S
H1492 C1478 0.960 . S
H1493 C1479 0.961 . S
H1494 C1479 0.961 . S
H1495 C1479 0.961 . S
H1496 C1480 0.931 . S
H1497 C1485 0.930 . S
H1498 C1486 0.956 . S
H1499 C1486 0.961 . S
H1500 C1486 0.961 . S
H1501 C1487 0.958 . S
H1502 C1487 0.961 . S
H1503 C1487 0.960 . S
C1504 C1505 1.391 . S
C1504 C1506 1.394 . S
C1504 H1520 0.931 . S
C1505 C1504 1.391 . S
C1505 C1509 1.376 . S
C1506 C1504 1.394 . S
C1506 C1507 1.369 . S
C1506 C1510 1.531 . S
C1507 C1506 1.369 . S
C1507 C1508 1.410 . S
C1507 C1515 1.503 . S
C1508 C1507 1.410 . S
C1508 C1509 1.392 . S
C1508 C1511 1.511 . S
C1509 C1505 1.376 . S
C1509 C1508 1.392 . S
C1509 H1521 0.929 . S
C1510 C1506 1.531 . S
C1510 H1522 0.960 . S
C1510 H1523 0.962 . S
C1510 H1524 0.960 . S
C1511 C1508 1.511 . S
C1511 H1525 0.961 . S
C1511 H1526 0.961 . S
C1511 H1527 0.961 . S
C1512 C1513 1.370 . S
C1512 C1514 1.363 . S
C1512 H1528 0.931 . S
C1513 C1512 1.370 . S
C1513 C1517 1.408 . S
C1514 C1512 1.363 . S
C1514 C1515 1.370 . S
C1514 C1518 1.524 . S
C1515 C1507 1.503 . S
C1515 C1514 1.370 . S
C1515 C1516 1.403 . S
C1516 C1515 1.403 . S
C1516 C1517 1.404 . S
C1516 C1519 1.539 . S
C1517 C1513 1.408 . S
C1517 C1516 1.404 . S
C1517 H1529 0.930 . S
C1518 C1514 1.524 . S
C1518 H1530 0.956 . S
C1518 H1531 0.961 . S
C1518 H1532 0.961 . S
C1519 C1516 1.539 . S
C1519 H1533 0.958 . S
C1519 H1534 0.961 . S
C1519 H1535 0.960 . S
H1520 C1504 0.931 . S
H1521 C1509 0.929 . S
H1522 C1510 0.960 . S
H1523 C1510 0.962 . S
H1524 C1510 0.960 . S
H1525 C1511 0.961 . S
H1526 C1511 0.961 . S
H1527 C1511 0.961 . S
H1528 C1512 0.931 . S
H1529 C1517 0.930 . S
H1530 C1518 0.956 . S
H1531 C1518 0.961 . S
H1532 C1518 0.961 . S
H1533 C1519 0.958 . S
H1534 C1519 0.961 . S
H1535 C1519 0.960 . S
C1536 C1537 1.391 . S
C1536 C1538 1.394 . S
C1536 H1552 0.931 . S
C1537 C1536 1.391 . S
C1537 C1541 1.376 . S
C1538 C1536 1.394 . S
C1538 C1539 1.369 . S
C1538 C1542 1.531 . S
C1539 C1538 1.369 . S
C1539 C1540 1.410 . S
C1539 C1547 1.503 . S
C1540 C1539 1.410 . S
C1540 C1541 1.392 . S
C1540 C1543 1.511 . S
C1541 C1537 1.376 . S
C1541 C1540 1.392 . S
C1541 H1553 0.929 . S
C1542 C1538 1.531 . S
C1542 H1554 0.960 . S
C1542 H1555 0.962 . S
C1542 H1556 0.960 . S
C1543 C1540 1.511 . S
C1543 H1557 0.961 . S
C1543 H1558 0.961 . S
C1543 H1559 0.961 . S
C1544 C1545 1.370 . S
C1544 C1546 1.363 . S
C1544 H1560 0.931 . S
C1545 C1544 1.370 . S
C1545 C1549 1.408 . S
C1546 C1544 1.363 . S
C1546 C1547 1.370 . S
C1546 C1550 1.524 . S
C1547 C1539 1.503 . S
C1547 C1546 1.370 . S
C1547 C1548 1.403 . S
C1548 C1547 1.403 . S
C1548 C1549 1.404 . S
C1548 C1551 1.539 . S
C1549 C1545 1.408 . S
C1549 C1548 1.404 . S
C1549 H1561 0.930 . S
C1550 C1546 1.524 . S
C1550 H1562 0.956 . S
C1550 H1563 0.961 . S
C1550 H1564 0.961 . S
C1551 C1548 1.539 . S
C1551 H1565 0.958 . S
C1551 H1566 0.961 . S
C1551 H1567 0.960 . S
H1552 C1536 0.931 . S
H1553 C1541 0.929 . S
H1554 C1542 0.960 . S
H1555 C1542 0.962 . S
H1556 C1542 0.960 . S
H1557 C1543 0.961 . S
H1558 C1543 0.961 . S
H1559 C1543 0.961 . S
H1560 C1544 0.931 . S
H1561 C1549 0.930 . S
H1562 C1550 0.956 . S
H1563 C1550 0.961 . S
H1564 C1550 0.961 . S
H1565 C1551 0.958 . S
H1566 C1551 0.961 . S
H1567 C1551 0.960 . S
C1568 C1569 1.391 . S
C1568 C1570 1.394 . S
C1568 H1584 0.931 . S
C1569 C1568 1.391 . S
C1569 C1573 1.376 . S
C1570 C1568 1.394 . S
C1570 C1571 1.369 . S
C1570 C1574 1.531 . S
C1571 C1570 1.369 . S
C1571 C1572 1.410 . S
C1571 C1579 1.503 . S
C1572 C1571 1.410 . S
C1572 C1573 1.392 . S
C1572 C1575 1.511 . S
C1573 C1569 1.376 . S
C1573 C1572 1.392 . S
C1573 H1585 0.929 . S
C1574 C1570 1.531 . S
C1574 H1586 0.960 . S
C1574 H1587 0.962 . S
C1574 H1588 0.960 . S
C1575 C1572 1.511 . S
C1575 H1589 0.961 . S
C1575 H1590 0.961 . S
C1575 H1591 0.961 . S
C1576 C1577 1.370 . S
C1576 C1578 1.363 . S
C1576 H1592 0.931 . S
C1577 C1576 1.370 . S
C1577 C1581 1.408 . S
C1578 C1576 1.363 . S
C1578 C1579 1.370 . S
C1578 C1582 1.524 . S
C1579 C1571 1.503 . S
C1579 C1578 1.370 . S
C1579 C1580 1.403 . S
C1580 C1579 1.403 . S
C1580 C1581 1.404 . S
C1580 C1583 1.539 . S
C1581 C1577 1.408 . S
C1581 C1580 1.404 . S
C1581 H1593 0.930 . S
C1582 C1578 1.524 . S
C1582 H1594 0.956 . S
C1582 H1595 0.961 . S
C1582 H1596 0.961 . S
C1583 C1580 1.539 . S
C1583 H1597 0.958 . S
C1583 H1598 0.961 . S
C1583 H1599 0.960 . S
H1584 C1568 0.931 . S
H1585 C1573 0.929 . S
H1586 C1574 0.960 . S
H1587 C1574 0.962 . S
H1588 C1574 0.960 . S
H1589 C1575 0.961 . S
H1590 C1575 0.961 . S
H1591 C1575 0.961 . S
H1592 C1576 0.931 . S
H1593 C1581 0.930 . S
H1594 C1582 0.956 . S
H1595 C1582 0.961 . S
H1596 C1582 0.961 . S
H1597 C1583 0.958 . S
H1598 C1583 0.961 . S
H1599 C1583 0.960 . S
C1600 C1601 1.391 . S
C1600 C1602 1.394 1_556 S
C1600 H1616 0.931 . S
C1601 C1600 1.391 . S
C1601 C1605 1.376 . S
C1602 C1600 1.394 1_554 S
C1602 C1603 1.369 . S
C1602 C1606 1.531 . S
C1603 C1602 1.369 . S
C1603 C1604 1.410 . S
C1603 C1611 1.503 . S
C1604 C1603 1.410 . S
C1604 C1605 1.392 1_554 S
C1604 C1607 1.511 . S
C1605 C1601 1.376 . S
C1605 C1604 1.392 1_556 S
C1605 H1617 0.929 . S
C1606 C1602 1.531 . S
C1606 H1618 0.960 . S
C1606 H1619 0.962 . S
C1606 H1620 0.960 . S
C1607 C1604 1.511 . S
C1607 H1621 0.961 . S
C1607 H1622 0.961 . S
C1607 H1623 0.961 . S
C1608 C1609 1.370 . S
C1608 C1610 1.363 . S
C1608 H1624 0.931 . S
C1609 C1608 1.370 . S
C1609 C1613 1.408 . S
C1610 C1608 1.363 . S
C1610 C1611 1.370 . S
C1610 C1614 1.524 . S
C1611 C1603 1.503 . S
C1611 C1610 1.370 . S
C1611 C1612 1.403 . S
C1612 C1611 1.403 . S
C1612 C1613 1.404 . S
C1612 C1615 1.539 . S
C1613 C1609 1.408 . S
C1613 C1612 1.404 . S
C1613 H1625 0.930 . S
C1614 C1610 1.524 . S
C1614 H1626 0.956 . S
C1614 H1627 0.961 . S
C1614 H1628 0.961 . S
C1615 C1612 1.539 . S
C1615 H1629 0.958 . S
C1615 H1630 0.961 . S
C1615 H1631 0.960 . S
H1616 C1600 0.931 . S
H1617 C1605 0.929 . S
H1618 C1606 0.960 . S
H1619 C1606 0.962 . S
H1620 C1606 0.960 . S
H1621 C1607 0.961 . S
H1622 C1607 0.961 . S
H1623 C1607 0.961 . S
H1624 C1608 0.931 . S
H1625 C1613 0.930 . S
H1626 C1614 0.956 . S
H1627 C1614 0.961 . S
H1628 C1614 0.961 . S
H1629 C1615 0.958 . S
H1630 C1615 0.961 . S
H1631 C1615 0.960 . S
C1632 C1633 1.391 . S
C1632 C1634 1.394 . S
C1632 H1648 0.931 . S
C1633 C1632 1.391 . S
C1633 C1637 1.376 . S
C1634 C1632 1.394 . S
C1634 C1635 1.369 . S
C1634 C1638 1.531 . S
C1635 C1634 1.369 . S
C1635 C1636 1.410 . S
C1635 C1643 1.503 . S
C1636 C1635 1.410 . S
C1636 C1637 1.392 . S
C1636 C1639 1.511 . S
C1637 C1633 1.376 . S
C1637 C1636 1.392 . S
C1637 H1649 0.929 . S
C1638 C1634 1.531 . S
C1638 H1650 0.960 . S
C1638 H1651 0.962 . S
C1638 H1652 0.960 . S
C1639 C1636 1.511 . S
C1639 H1653 0.961 . S
C1639 H1654 0.961 . S
C1639 H1655 0.961 . S
C1640 C1641 1.370 . S
C1640 C1642 1.363 1_554 S
C1640 H1656 0.931 . S
C1641 C1640 1.370 . S
C1641 C1645 1.408 . S
C1642 C1640 1.363 1_556 S
C1642 C1643 1.370 . S
C1642 C1646 1.524 . S
C1643 C1635 1.503 . S
C1643 C1642 1.370 . S
C1643 C1644 1.403 . S
C1644 C1643 1.403 . S
C1644 C1645 1.404 1_556 S
C1644 C1647 1.539 . S
C1645 C1641 1.408 . S
C1645 C1644 1.404 1_554 S
C1645 H1657 0.930 . S
C1646 C1642 1.524 . S
C1646 H1658 0.956 . S
C1646 H1659 0.961 . S
C1646 H1660 0.961 . S
C1647 C1644 1.539 . S
C1647 H1661 0.958 . S
C1647 H1662 0.961 . S
C1647 H1663 0.960 . S
H1648 C1632 0.931 . S
H1649 C1637 0.929 . S
H1650 C1638 0.960 . S
H1651 C1638 0.962 . S
H1652 C1638 0.960 . S
H1653 C1639 0.961 . S
H1654 C1639 0.961 . S
H1655 C1639 0.961 . S
H1656 C1640 0.931 . S
H1657 C1645 0.930 . S
H1658 C1646 0.956 . S
H1659 C1646 0.961 . S
H1660 C1646 0.961 . S
H1661 C1647 0.958 . S
H1662 C1647 0.961 . S
H1663 C1647 0.960 . S
C1664 C1665 1.391 . S
C1664 C1666 1.394 . S
C1664 H1680 0.931 . S
C1665 C1664 1.391 . S
C1665 C1669 1.376 . S
C1666 C1664 1.394 . S
C1666 C1667 1.369 . S
C1666 C1670 1.531 . S
C1667 C1666 1.369 . S
C1667 C1668 1.410 . S
C1667 C1675 1.503 . S
C1668 C1667 1.410 . S
C1668 C1669 1.392 . S
C1668 C1671 1.511 . S
C1669 C1665 1.376 . S
C1669 C1668 1.392 . S
C1669 H1681 0.929 . S
C1670 C1666 1.531 . S
C1670 H1682 0.960 . S
C1670 H1683 0.962 . S
C1670 H1684 0.960 . S
C1671 C1668 1.511 . S
C1671 H1685 0.961 . S
C1671 H1686 0.961 . S
C1671 H1687 0.961 . S
C1672 C1673 1.370 . S
C1672 C1674 1.363 1_556 S
C1672 H1688 0.931 . S
C1673 C1672 1.370 . S
C1673 C1677 1.408 . S
C1674 C1672 1.363 1_554 S
C1674 C1675 1.370 . S
C1674 C1678 1.524 . S
C1675 C1667 1.503 . S
C1675 C1674 1.370 . S
C1675 C1676 1.403 . S
C1676 C1675 1.403 . S
C1676 C1677 1.404 1_554 S
C1676 C1679 1.539 . S
C1677 C1673 1.408 . S
C1677 C1676 1.404 1_556 S
C1677 H1689 0.930 . S
C1678 C1674 1.524 . S
C1678 H1690 0.956 . S
C1678 H1691 0.961 . S
C1678 H1692 0.961 . S
C1679 C1676 1.539 . S
C1679 H1693 0.958 . S
C1679 H1694 0.961 . S
C1679 H1695 0.960 . S
H1680 C1664 0.931 . S
H1681 C1669 0.929 . S
H1682 C1670 0.960 . S
H1683 C1670 0.962 . S
H1684 C1670 0.960 . S
H1685 C1671 0.961 . S
H1686 C1671 0.961 . S
H1687 C1671 0.961 . S
H1688 C1672 0.931 . S
H1689 C1677 0.930 . S
H1690 C1678 0.956 . S
H1691 C1678 0.961 . S
H1692 C1678 0.961 . S
H1693 C1679 0.958 . S
H1694 C1679 0.961 . S
H1695 C1679 0.960 . S
C1696 C1697 1.391 . S
C1696 C1698 1.394 1_554 S
C1696 H1712 0.931 . S
C1697 C1696 1.391 . S
C1697 C1701 1.376 . S
C1698 C1696 1.394 1_556 S
C1698 C1699 1.369 . S
C1698 C1702 1.531 . S
C1699 C1698 1.369 . S
C1699 C1700 1.410 . S
C1699 C1707 1.503 . S
C1700 C1699 1.410 . S
C1700 C1701 1.392 1_556 S
C1700 C1703 1.511 . S
C1701 C1697 1.376 . S
C1701 C1700 1.392 1_554 S
C1701 H1713 0.929 . S
C1702 C1698 1.531 . S
C1702 H1714 0.960 . S
C1702 H1715 0.962 . S
C1702 H1716 0.960 . S
C1703 C1700 1.511 . S
C1703 H1717 0.961 . S
C1703 H1718 0.961 . S
C1703 H1719 0.961 . S
C1704 C1705 1.370 . S
C1704 C1706 1.363 . S
C1704 H1720 0.931 . S
C1705 C1704 1.370 . S
C1705 C1709 1.408 . S
C1706 C1704 1.363 . S
C1706 C1707 1.370 . S
C1706 C1710 1.524 . S
C1707 C1699 1.503 . S
C1707 C1706 1.370 . S
C1707 C1708 1.403 . S
C1708 C1707 1.403 . S
C1708 C1709 1.404 . S
C1708 C1711 1.539 . S
C1709 C1705 1.408 . S
C1709 C1708 1.404 . S
C1709 H1721 0.930 . S
C1710 C1706 1.524 . S
C1710 H1722 0.956 . S
C1710 H1723 0.961 . S
C1710 H1724 0.961 . S
C1711 C1708 1.539 . S
C1711 H1725 0.958 . S
C1711 H1726 0.961 . S
C1711 H1727 0.960 . S
H1712 C1696 0.931 . S
H1713 C1701 0.929 . S
H1714 C1702 0.960 . S
H1715 C1702 0.962 . S
H1716 C1702 0.960 . S
H1717 C1703 0.961 . S
H1718 C1703 0.961 . S
H1719 C1703 0.961 . S
H1720 C1704 0.931 . S
H1721 C1709 0.930 . S
H1722 C1710 0.956 . S
H1723 C1710 0.961 . S
H1724 C1710 0.961 . S
H1725 C1711 0.958 . S
H1726 C1711 0.961 . S
H1727 C1711 0.960 . S
C1728 C1729 1.391 . S
C1728 C1730 1.394 . S
C1728 H1744 0.931 . S
C1729 C1728 1.391 . S
C1729 C1733 1.376 . S
C1730 C1728 1.394 . S
C1730 C1731 1.369 . S
C1730 C1734 1.531 . S
C1731 C1730 1.369 . S
C1731 C1732 1.410 . S
C1731 C1739 1.503 . S
C1732 C1731 1.410 . S
C1732 C1733 1.392 . S
C1732 C1735 1.511 . S
C1733 C1729 1.376 . S
C1733 C1732 1.392 . S
C1733 H1745 0.929 . S
C1734 C1730 1.531 . S
C1734 H1746 0.960 . S
C1734 H1747 0.962 . S
C1734 H1748 0.960 . S
C1735 C1732 1.511 . S
C1735 H1749 0.961 . S
C1735 H1750 0.961 . S
C1735 H1751 0.961 . S
C1736 C1737 1.370 . S
C1736 C1738 1.363 1_556 S
C1736 H1752 0.931 . S
C1737 C1736 1.370 . S
C1737 C1741 1.408 . S
C1738 C1736 1.363 1_554 S
C1738 C1739 1.370 . S
C1738 C1742 1.524 . S
C1739 C1731 1.503 . S
C1739 C1738 1.370 . S
C1739 C1740 1.403 . S
C1740 C1739 1.403 . S
C1740 C1741 1.404 1_554 S
C1740 C1743 1.539 . S
C1741 C1737 1.408 . S
C1741 C1740 1.404 1_556 S
C1741 H1753 0.930 . S
C1742 C1738 1.524 . S
C1742 H1754 0.956 . S
C1742 H1755 0.961 . S
C1742 H1756 0.961 . S
C1743 C1740 1.539 . S
C1743 H1757 0.958 . S
C1743 H1758 0.961 . S
C1743 H1759 0.960 . S
H1744 C1728 0.931 . S
H1745 C1733 0.929 . S
H1746 C1734 0.960 . S
H1747 C1734 0.962 . S
H1748 C1734 0.960 . S
H1749 C1735 0.961 . S
H1750 C1735 0.961 . S
H1751 C1735 0.961 . S
H1752 C1736 0.931 . S
H1753 C1741 0.930 . S
H1754 C1742 0.956 . S
H1755 C1742 0.961 . S
H1756 C1742 0.961 . S
H1757 C1743 0.958 . S
H1758 C1743 0.961 . S
H1759 C1743 0.960 . S
C1760 C1761 1.391 . S
C1760 C1762 1.394 1_554 S
C1760 H1776 0.931 . S
C1761 C1760 1.391 . S
C1761 C1765 1.376 . S
C1762 C1760 1.394 1_556 S
C1762 C1763 1.369 . S
C1762 C1766 1.531 . S
C1763 C1762 1.369 . S
C1763 C1764 1.410 . S
C1763 C1771 1.503 . S
C1764 C1763 1.410 . S
C1764 C1765 1.392 1_556 S
C1764 C1767 1.511 . S
C1765 C1761 1.376 . S
C1765 C1764 1.392 1_554 S
C1765 H1777 0.929 . S
C1766 C1762 1.531 . S
C1766 H1778 0.960 . S
C1766 H1779 0.962 . S
C1766 H1780 0.960 . S
C1767 C1764 1.511 . S
C1767 H1781 0.961 . S
C1767 H1782 0.961 . S
C1767 H1783 0.961 . S
C1768 C1769 1.370 . S
C1768 C1770 1.363 . S
C1768 H1784 0.931 . S
C1769 C1768 1.370 . S
C1769 C1773 1.408 . S
C1770 C1768 1.363 . S
C1770 C1771 1.370 . S
C1770 C1774 1.524 . S
C1771 C1763 1.503 . S
C1771 C1770 1.370 . S
C1771 C1772 1.403 . S
C1772 C1771 1.403 . S
C1772 C1773 1.404 . S
C1772 C1775 1.539 . S
C1773 C1769 1.408 . S
C1773 C1772 1.404 . S
C1773 H1785 0.930 . S
C1774 C1770 1.524 . S
C1774 H1786 0.956 . S
C1774 H1787 0.961 . S
C1774 H1788 0.961 . S
C1775 C1772 1.539 . S
C1775 H1789 0.958 . S
C1775 H1790 0.961 . S
C1775 H1791 0.960 . S
H1776 C1760 0.931 . S
H1777 C1765 0.929 . S
H1778 C1766 0.960 . S
H1779 C1766 0.962 . S
H1780 C1766 0.960 . S
H1781 C1767 0.961 . S
H1782 C1767 0.961 . S
H1783 C1767 0.961 . S
H1784 C1768 0.931 . S
H1785 C1773 0.930 . S
H1786 C1774 0.956 . S
H1787 C1774 0.961 . S
H1788 C1774 0.961 . S
H1789 C1775 0.958 . S
H1790 C1775 0.961 . S
H1791 C1775 0.960 . S
C1792 C1793 1.391 . S
C1792 C1794 1.394 1_556 S
C1792 H1808 0.931 . S
C1793 C1792 1.391 . S
C1793 C1797 1.376 . S
C1794 C1792 1.394 1_554 S
C1794 C1795 1.369 . S
C1794 C1798 1.531 . S
C1795 C1794 1.369 . S
C1795 C1796 1.410 . S
C1795 C1803 1.503 . S
C1796 C1795 1.410 . S
C1796 C1797 1.392 1_554 S
C1796 C1799 1.511 . S
C1797 C1793 1.376 . S
C1797 C1796 1.392 1_556 S
C1797 H1809 0.929 . S
C1798 C1794 1.531 . S
C1798 H1810 0.960 . S
C1798 H1811 0.962 . S
C1798 H1812 0.960 . S
C1799 C1796 1.511 . S
C1799 H1813 0.961 . S
C1799 H1814 0.961 . S
C1799 H1815 0.961 . S
C1800 C1801 1.370 . S
C1800 C1802 1.363 . S
C1800 H1816 0.931 . S
C1801 C1800 1.370 . S
C1801 C1805 1.408 . S
C1802 C1800 1.363 . S
C1802 C1803 1.370 . S
C1802 C1806 1.524 . S
C1803 C1795 1.503 . S
C1803 C1802 1.370 . S
C1803 C1804 1.403 . S
C1804 C1803 1.403 . S
C1804 C1805 1.404 . S
C1804 C1807 1.539 . S
C1805 C1801 1.408 . S
C1805 C1804 1.404 . S
C1805 H1817 0.930 . S
C1806 C1802 1.524 . S
C1806 H1818 0.956 . S
C1806 H1819 0.961 . S
C1806 H1820 0.961 . S
C1807 C1804 1.539 . S
C1807 H1821 0.958 . S
C1807 H1822 0.961 . S
C1807 H1823 0.960 . S
H1808 C1792 0.931 . S
H1809 C1797 0.929 . S
H1810 C1798 0.960 . S
H1811 C1798 0.962 . S
H1812 C1798 0.960 . S
H1813 C1799 0.961 . S
H1814 C1799 0.961 . S
H1815 C1799 0.961 . S
H1816 C1800 0.931 . S
H1817 C1805 0.930 . S
H1818 C1806 0.956 . S
H1819 C1806 0.961 . S
H1820 C1806 0.961 . S
H1821 C1807 0.958 . S
H1822 C1807 0.961 . S
H1823 C1807 0.960 . S
C1824 C1825 1.391 . S
C1824 C1826 1.394 . S
C1824 H1840 0.931 . S
C1825 C1824 1.391 . S
C1825 C1829 1.376 . S
C1826 C1824 1.394 . S
C1826 C1827 1.369 . S
C1826 C1830 1.531 . S
C1827 C1826 1.369 . S
C1827 C1828 1.410 . S
C1827 C1835 1.503 . S
C1828 C1827 1.410 . S
C1828 C1829 1.392 . S
C1828 C1831 1.511 . S
C1829 C1825 1.376 . S
C1829 C1828 1.392 . S
C1829 H1841 0.929 . S
C1830 C1826 1.531 . S
C1830 H1842 0.960 . S
C1830 H1843 0.962 . S
C1830 H1844 0.960 . S
C1831 C1828 1.511 . S
C1831 H1845 0.961 . S
C1831 H1846 0.961 . S
C1831 H1847 0.961 . S
C1832 C1833 1.370 . S
C1832 C1834 1.363 1_554 S
C1832 H1848 0.931 . S
C1833 C1832 1.370 . S
C1833 C1837 1.408 . S
C1834 C1832 1.363 1_556 S
C1834 C1835 1.370 . S
C1834 C1838 1.524 . S
C1835 C1827 1.503 . S
C1835 C1834 1.370 . S
C1835 C1836 1.403 . S
C1836 C1835 1.403 . S
C1836 C1837 1.404 1_556 S
C1836 C1839 1.539 . S
C1837 C1833 1.408 . S
C1837 C1836 1.404 1_554 S
C1837 H1849 0.930 . S
C1838 C1834 1.524 . S
C1838 H1850 0.956 . S
C1838 H1851 0.961 . S
C1838 H1852 0.961 . S
C1839 C1836 1.539 . S
C1839 H1853 0.958 . S
C1839 H1854 0.961 . S
C1839 H1855 0.960 . S
H1840 C1824 0.931 . S
H1841 C1829 0.929 . S
H1842 C1830 0.960 . S
H1843 C1830 0.962 . S
H1844 C1830 0.960 . S
H1845 C1831 0.961 . S
H1846 C1831 0.961 . S
H1847 C1831 0.961 . S
H1848 C1832 0.931 . S
H1849 C1837 0.930 . S
H1850 C1838 0.956 . S
H1851 C1838 0.961 . S
H1852 C1838 0.961 . S
H1853 C1839 0.958 . S
H1854 C1839 0.961 . S
H1855 C1839 0.960 . S
C321 C226 1.570 . S
C329 C9 1.613 . S
C353 C176 1.542 . S
C361 C21 1.616 . S
C385 C49 1.602 . S
C393 C186 1.550 . S
C417 C61 1.621 . S
C425 C216 1.545 . S
C449 C89 1.626 . S
C457 C106 1.535 1_554 S
C481 C136 1.509 1_556 S
C489 C101 1.628 . S
C513 C129 1.631 . S
C521 C146 1.526 1_554 S
C545 C96 1.513 1_556 S
C553 C141 1.628 . S
C577 C66 1.574 . S
C585 C169 1.612 . S
C609 C181 1.606 . S
C617 C16 1.554 . S
C641 C26 1.506 . S
C649 C209 1.628 . S
C673 C56 1.532 . S
C681 C221 1.617 . S
C705 C249 1.624 . S
C713 C266 1.532 . S
C737 C296 1.536 . S
C745 C261 1.624 . S
C769 C306 1.569 . S
C777 C289 1.613 . S
C801 C301 1.636 . S
C809 C256 1.526 . S
C833 C1 1.582 . S
C841 C81 1.546 . S
C865 C109 1.563 . S
C873 C29 1.553 . S
C897 C41 1.521 . S
C905 C121 1.567 . S
C929 C69 1.583 . S
C937 C149 1.543 . S
C961 C161 1.576 . S
C969 C241 1.550 . S
C993 C269 1.546 . S
C1001 C189 1.558 . S
C1025 C201 1.522 . S
C1033 C281 1.566 . S
C1057 C229 1.521 . S
C1065 C309 1.569 . S
C1089 C286 1.525 . S
C1097 C6 1.524 1_556 S
C1121 C36 1.515 1_554 S
C1129 C316 1.524 . S
C1153 C46 1.528 1_556 S
C1161 C246 1.521 . S
C1185 C76 1.523 1_554 S
C1193 C276 1.520 . S
C1217 C86 1.540 . S
C1225 C206 1.517 . S
C1249 C116 1.542 . S
C1257 C236 1.519 . S
C1281 C126 1.498 . S
C1289 C166 1.534 . S
C1313 C196 1.499 . S
C1321 C156 1.532 . S
C1345 C8 1.800 . S
C1353 C19 1.852 . S
C1377 C39 1.798 . S
C1385 C28 1.852 . S
C1409 C48 1.867 . S
C1417 C59 1.823 . S
C1441 C68 1.809 . S
C1449 C79 1.846 . S
C1473 C99 1.820 . S
C1481 C88 1.841 . S
C1505 C119 1.863 . S
C1513 C108 1.824 . S
C1537 C128 1.804 . S
C1545 C139 1.851 . S
C1569 C148 1.854 . S
C1577 C159 1.831 . S
C1601 C168 1.864 . S
C1609 C179 1.824 . S
C1633 C188 1.852 . S
C1641 C199 1.832 . S
C1665 C219 1.834 . S
C1673 C208 1.840 . S
C1697 C239 1.828 . S
C1705 C228 1.842 . S
C1729 C248 1.843 . S
C1737 C259 1.831 . S
C1761 C268 1.860 . S
C1769 C279 1.828 . S
C1793 C299 1.823 . S
C1801 C288 1.844 . S
C1825 C319 1.799 . S
C1833 C308 1.851 . S
