# Generated by pormake.
# Topology npo, (4)-cn, num edge types: 1
# Building blocks:
#     Node 0, Type 0, BuildingBlock: UXUYUI_clean_sbu_0, # of connection points: 4
#     Node 1, Type 0, BuildingBlock: UXUYUI_clean_sbu_0, # of connection points: 4
#     Node 2, Type 0, BuildingBlock: UXUYUI_clean_sbu_0, # of connection points: 4
#     Node 3, Type 0, BuildingBlock: UXUYUI_clean_sbu_0, # of connection points: 4
#     Node 4, Type 0, BuildingBlock: UXUYUI_clean_sbu_0, # of connection points: 4
#     Node 5, Type 0, BuildingBlock: UXUYUI_clean_sbu_0, # of connection points: 4
#     Edge 6, Type (0, 0), BuildingBlock: MIFKUJ_clean_linker_0, # of connection points: 2
#     Edge 7, Type (0, 0), BuildingBlock: MIFKUJ_clean_linker_0, # of connection points: 2
#     Edge 8, Type (0, 0), BuildingBlock: MIFKUJ_clean_linker_0, # of connection points: 2
#     Edge 9, Type (0, 0), BuildingBlock: MIFKUJ_clean_linker_0, # of connection points: 2
#     Edge 10, Type (0, 0), BuildingBlock: MIFKUJ_clean_linker_0, # of connection points: 2
#     Edge 11, Type (0, 0), BuildingBlock: MIFKUJ_clean_linker_0, # of connection points: 2
#     Edge 12, Type (0, 0), BuildingBlock: MIFKUJ_clean_linker_0, # of connection points: 2
#     Edge 13, Type (0, 0), BuildingBlock: MIFKUJ_clean_linker_0, # of connection points: 2
#     Edge 14, Type (0, 0), BuildingBlock: MIFKUJ_clean_linker_0, # of connection points: 2
#     Edge 15, Type (0, 0), BuildingBlock: MIFKUJ_clean_linker_0, # of connection points: 2
#     Edge 16, Type (0, 0), BuildingBlock: MIFKUJ_clean_linker_0, # of connection points: 2
#     Edge 17, Type (0, 0), BuildingBlock: MIFKUJ_clean_linker_0, # of connection points: 2
# Relax obj value: 0.320
# Max RMSD: 0.247
# Mean RMSD: 0.247
data_MOF--net-npo--node1-UXUYUI_clean_sbu_0--edge1-MIFKUJ_clean_linker_0
_symmetry_space_group_name_H-M    P1
_symmetry_Int_Tables_number       1
_symmetry_cell_setting            triclinic
loop_
_symmetry_equiv_pos_as_xyz
'x, y, z'
_cell_length_a     73.067566
_cell_length_b     73.063505
_cell_length_c     45.622009
_cell_angle_alpha  89.936428
_cell_angle_beta   90.173411
_cell_angle_gamma 119.94049
loop_
_atom_site_label
_atom_site_type_symbol
_atom_site_fract_x
_atom_site_fract_y
_atom_site_fract_z
_atom_type_partial_charge
Li0 Li 0.55101 0.11452 0.24858 0.0
Li1 Li 0.57978 0.10757 0.26027 0.0
Li2 Li 0.55307 0.08565 0.2258 0.0
Li3 Li 0.5457 0.08489 0.27768 0.0
C4 C 0.58796 0.13676 0.21548 0.0
N5 N 0.61821 0.17814 0.20357 0.0
C6 C 0.59555 0.1519 0.23786 0.0
C7 C 0.5958 0.14275 0.18704 0.0
C8 C 0.61085 0.17271 0.23139 0.0
C9 C 0.61105 0.16373 0.18146 0.0
C10 C 0.56031 0.11564 0.31673 0.0
C11 C 0.56234 0.10493 0.36614 0.0
N12 N 0.55252 0.11537 0.37606 0.0
C13 C 0.55055 0.12653 0.32749 0.0
C14 C 0.56655 0.10503 0.33628 0.0
C15 C 0.54665 0.12612 0.35752 0.0
C16 C 0.52476 0.13086 0.261 0.0
N17 N 0.54094 0.13384 0.24327 0.0
C18 C 0.54144 0.16361 0.22085 0.0
C19 C 0.54882 0.14936 0.22269 0.0
C20 C 0.52558 0.16166 0.24007 0.0
C21 C 0.51685 0.14472 0.25988 0.0
H22 H 0.51828 0.11789 0.27643 0.0
H23 H 0.56087 0.15084 0.20772 0.0
C24 C 0.62203 0.12424 0.24392 0.0
N25 N 0.60934 0.12112 0.26732 0.0
C26 C 0.64377 0.13774 0.24621 0.0
C27 C 0.63912 0.14311 0.29732 0.0
C28 C 0.61743 0.12972 0.29392 0.0
C29 C 0.65248 0.14801 0.27293 0.0
H30 H 0.61511 0.11732 0.22295 0.0
H31 H 0.60701 0.12717 0.31209 0.0
C32 C 0.51418 0.08358 0.22373 0.0
N33 N 0.48558 0.08054 0.18155 0.0
C34 C 0.49252 0.07072 0.22847 0.0
C35 C 0.52131 0.09494 0.19755 0.0
C36 C 0.47831 0.06939 0.20687 0.0
C37 C 0.50659 0.09318 0.1765 0.0
C38 C 0.58118 0.07296 0.25849 0.0
C39 C 0.58942 0.07061 0.23205 0.0
C40 C 0.59065 0.07249 0.28495 0.0
C41 C 0.60713 0.06805 0.23252 0.0
C42 C 0.60835 0.06992 0.28449 0.0
N43 N 0.61617 0.06779 0.2585 0.0
C44 C 0.55789 0.07802 0.16695 0.0
C45 C 0.52932 0.04958 0.19172 0.0
C46 C 0.55231 0.0666 0.14086 0.0
N47 N 0.5463 0.06941 0.19151 0.0
C48 C 0.52315 0.03758 0.16609 0.0
C49 C 0.53463 0.04616 0.14018 0.0
H50 H 0.5713 0.09383 0.16761 0.0
H51 H 0.52044 0.04327 0.21171 0.0
C52 C 0.51296 0.07055 0.31807 0.0
N53 N 0.52886 0.0676 0.30838 0.0
C54 C 0.50113 0.05947 0.34241 0.0
C55 C 0.52192 0.0421 0.34562 0.0
C56 C 0.53331 0.05349 0.32118 0.0
C57 C 0.50575 0.04522 0.35673 0.0
H58 H 0.50986 0.08192 0.30726 0.0
H59 H 0.54607 0.05154 0.3129 0.0
O60 O 0.5735 0.11605 0.22131 0.0
O61 O 0.56393 0.11556 0.28728 0.0
O62 O 0.52822 0.08499 0.24477 0.0
O63 O 0.56413 0.07595 0.25842 0.0
H64 H 0.58984 0.14774 0.26002 0.0
H65 H 0.5902 0.13133 0.16942 0.0
H66 H 0.61689 0.18453 0.24851 0.0
H67 H 0.61724 0.16855 0.15956 0.0
H68 H 0.56682 0.09651 0.38142 0.0
H69 H 0.54618 0.13538 0.31292 0.0
H70 H 0.57422 0.09661 0.32841 0.0
H71 H 0.539 0.1344 0.36609 0.0
H72 H 0.5482 0.17616 0.20474 0.0
H73 H 0.50458 0.14264 0.27505 0.0
H74 H 0.65335 0.14124 0.2267 0.0
H75 H 0.6452 0.15044 0.31842 0.0
H76 H 0.48677 0.06187 0.24865 0.0
H77 H 0.538 0.10502 0.19348 0.0
H78 H 0.46149 0.05948 0.21025 0.0
H79 H 0.51188 0.10186 0.15615 0.0
H80 H 0.58239 0.07099 0.21136 0.0
H81 H 0.58452 0.07425 0.30562 0.0
H82 H 0.61374 0.06634 0.21221 0.0
H83 H 0.6159 0.06966 0.3048 0.0
H84 H 0.56141 0.0739 0.12128 0.0
H85 H 0.50955 0.02181 0.16654 0.0
H86 H 0.48865 0.06215 0.35008 0.0
H87 H 0.5262 0.0315 0.35624 0.0
Li88 Li 0.44252 0.53952 0.77266 0.0
Li89 Li 0.44373 0.56802 0.74322 0.0
Li90 Li 0.41246 0.53246 0.74324 0.0
Li91 Li 0.44519 0.5396 0.71956 0.0
C92 C 0.42415 0.55598 0.80513 0.0
N93 N 0.42496 0.56255 0.86485 0.0
C94 C 0.43661 0.57625 0.8167 0.0
C95 C 0.41193 0.53909 0.82388 0.0
C96 C 0.43683 0.57924 0.84697 0.0
C97 C 0.41263 0.54272 0.85403 0.0
C98 C 0.48389 0.56172 0.73765 0.0
C99 C 0.51207 0.57466 0.70225 0.0
N100 N 0.51943 0.56277 0.71507 0.0
C101 C 0.49176 0.54968 0.75054 0.0
C102 C 0.49414 0.57439 0.71338 0.0
C103 C 0.50976 0.55042 0.73879 0.0
C104 C 0.44494 0.51302 0.81558 0.0
N105 N 0.45146 0.53341 0.80838 0.0
C106 C 0.46985 0.5456 0.85384 0.0
C107 C 0.46409 0.54965 0.82649 0.0
C108 C 0.46296 0.52466 0.86212 0.0
C109 C 0.45061 0.50826 0.84252 0.0
H110 H 0.43522 0.50047 0.80052 0.0
H111 H 0.46942 0.56574 0.8198 0.0
C112 C 0.43863 0.60371 0.74113 0.0
N113 N 0.45319 0.59732 0.7423 0.0
C114 C 0.44511 0.62506 0.73793 0.0
C115 C 0.48145 0.63298 0.7396 0.0
C116 C 0.47426 0.6114 0.74208 0.0
C117 C 0.46674 0.63988 0.73692 0.0
H118 H 0.42199 0.59214 0.74199 0.0
H119 H 0.48545 0.60586 0.74353 0.0
C120 C 0.41097 0.4955 0.74266 0.0
N121 N 0.37741 0.45493 0.73599 0.0
C122 C 0.40797 0.48477 0.71615 0.0
C123 C 0.39698 0.48554 0.76584 0.0
C124 C 0.3909 0.46427 0.71321 0.0
C125 C 0.38008 0.46505 0.762 0.0
C126 C 0.42319 0.56487 0.69363 0.0
C127 C 0.40312 0.56282 0.6931 0.0
C128 C 0.43983 0.58165 0.67875 0.0
C129 C 0.40006 0.57768 0.67783 0.0
C130 C 0.43614 0.5962 0.6638 0.0
N131 N 0.41649 0.59393 0.66365 0.0
C132 C 0.37145 0.52075 0.76147 0.0
C133 C 0.37286 0.50417 0.71759 0.0
C134 C 0.34952 0.51094 0.75949 0.0
N135 N 0.38259 0.51727 0.74065 0.0
C136 C 0.3509 0.49373 0.71499 0.0
C137 C 0.3389 0.49726 0.73592 0.0
H138 H 0.37964 0.53164 0.77918 0.0
H139 H 0.38218 0.50211 0.70096 0.0
C140 C 0.46374 0.51857 0.69031 0.0
N141 N 0.45641 0.5323 0.68727 0.0
C142 C 0.47149 0.51301 0.66599 0.0
C143 C 0.46424 0.53608 0.63622 0.0
C144 C 0.45651 0.54103 0.66097 0.0
C145 C 0.47164 0.52171 0.63843 0.0
H146 H 0.4633 0.51176 0.71154 0.0
H147 H 0.45046 0.55174 0.65913 0.0
O148 O 0.42398 0.55267 0.7756 0.0
O149 O 0.466 0.56079 0.74837 0.0
O150 O 0.4275 0.51564 0.74591 0.0
O151 O 0.42653 0.55056 0.70866 0.0
H152 H 0.44616 0.5895 0.80252 0.0
H153 H 0.40219 0.52332 0.81527 0.0
H154 H 0.44649 0.59481 0.85626 0.0
H155 H 0.40339 0.52977 0.86882 0.0
H156 H 0.52007 0.58426 0.68334 0.0
H157 H 0.48395 0.53971 0.76924 0.0
H158 H 0.48813 0.58366 0.703 0.0
H159 H 0.51598 0.54112 0.74846 0.0
H160 H 0.47964 0.55864 0.8683 0.0
H161 H 0.44504 0.49192 0.84824 0.0
H162 H 0.43339 0.62997 0.7363 0.0
H163 H 0.49826 0.64411 0.73904 0.0
H164 H 0.41856 0.49226 0.69793 0.0
H165 H 0.39903 0.49364 0.78646 0.0
H166 H 0.38833 0.45581 0.69278 0.0
H167 H 0.36906 0.4572 0.77969 0.0
H168 H 0.39004 0.55 0.70446 0.0
H169 H 0.45555 0.58371 0.67929 0.0
H170 H 0.38462 0.57632 0.67732 0.0
H171 H 0.44891 0.60936 0.65245 0.0
H172 H 0.34112 0.51468 0.77573 0.0
H173 H 0.34347 0.48323 0.69657 0.0
H174 H 0.47685 0.5017 0.66861 0.0
H175 H 0.4644 0.54348 0.61557 0.0
Li176 Li 0.88173 0.45952 0.24598 0.0
Li177 Li 0.90915 0.45462 0.26847 0.0
Li178 Li 0.90473 0.45347 0.21584 0.0
Li179 Li 0.87938 0.42497 0.24647 0.0
C180 C 0.92937 0.49341 0.22843 0.0
N181 N 0.9639 0.52377 0.19802 0.0
C182 C 0.94982 0.49954 0.23801 0.0
C183 C 0.92648 0.50282 0.20347 0.0
C184 C 0.96707 0.51491 0.22234 0.0
C185 C 0.94414 0.51809 0.18835 0.0
C186 C 0.88032 0.44392 0.3097 0.0
C187 C 0.88778 0.43468 0.35729 0.0
N188 N 0.88498 0.45003 0.36966 0.0
C189 C 0.87746 0.45957 0.3229 0.0
C190 C 0.88542 0.43129 0.32705 0.0
C191 C 0.87988 0.46241 0.35324 0.0
C192 C 0.846 0.46202 0.26064 0.0
N193 N 0.86573 0.47331 0.24928 0.0
C194 C 0.86063 0.50257 0.23951 0.0
C195 C 0.87338 0.49335 0.23929 0.0
C196 C 0.83999 0.49108 0.25048 0.0
C197 C 0.83279 0.47066 0.26149 0.0
H198 H 0.84038 0.4461 0.26838 0.0
H199 H 0.8892 0.502 0.23062 0.0
C200 C 0.9396 0.45354 0.30578 0.0
N201 N 0.92868 0.46363 0.29962 0.0
C202 C 0.9521 0.4588 0.33096 0.0
C203 C 0.94239 0.4852 0.34215 0.0
C204 C 0.93042 0.47968 0.31654 0.0
C205 C 0.95313 0.47443 0.34998 0.0
H206 H 0.93821 0.44111 0.29154 0.0
H207 H 0.92173 0.48757 0.31074 0.0
C208 C 0.8559 0.43843 0.20348 0.0
N209 N 0.81956 0.43851 0.1866 0.0
C210 C 0.8361 0.42193 0.2119 0.0
C211 C 0.85719 0.45492 0.18633 0.0
C212 C 0.81792 0.42226 0.20314 0.0
C213 C 0.83865 0.4547 0.1781 0.0
C214 C 0.90896 0.41556 0.23654 0.0
C215 C 0.90982 0.40895 0.20809 0.0
C216 C 0.90643 0.40238 0.26028 0.0
C217 C 0.90804 0.38918 0.20386 0.0
C218 C 0.90465 0.38271 0.25512 0.0
N219 N 0.90548 0.37658 0.22725 0.0
C220 C 0.94004 0.46467 0.18099 0.0
C221 C 0.91027 0.46111 0.15497 0.0
C222 C 0.95223 0.47118 0.15563 0.0
N223 N 0.91961 0.46012 0.18022 0.0
C224 C 0.92187 0.46757 0.12909 0.0
C225 C 0.9432 0.47291 0.12931 0.0
H226 H 0.94693 0.46355 0.20147 0.0
H227 H 0.89395 0.45723 0.15505 0.0
C228 C 0.85113 0.38673 0.27431 0.0
N229 N 0.86064 0.39544 0.24843 0.0
C230 C 0.83679 0.36515 0.27612 0.0
C231 C 0.84234 0.36189 0.22459 0.0
C232 C 0.85654 0.38358 0.22377 0.0
C233 C 0.83211 0.35248 0.25099 0.0
H234 H 0.8544 0.39657 0.29343 0.0
H235 H 0.86407 0.39105 0.20336 0.0
O236 O 0.91227 0.47803 0.2431 0.0
O237 O 0.87842 0.44117 0.27993 0.0
O238 O 0.87391 0.43871 0.21254 0.0
O239 O 0.9103 0.43469 0.24112 0.0
H240 H 0.95239 0.49237 0.25716 0.0
H241 H 0.91078 0.49803 0.19542 0.0
H242 H 0.98299 0.51974 0.22943 0.0
H243 H 0.94214 0.52533 0.16883 0.0
H244 H 0.89193 0.42516 0.37092 0.0
H245 H 0.87368 0.46961 0.30986 0.0
H246 H 0.88795 0.41928 0.3172 0.0
H247 H 0.87782 0.47453 0.36372 0.0
H248 H 0.86676 0.51841 0.23101 0.0
H249 H 0.81686 0.46116 0.26972 0.0
H250 H 0.9605 0.45043 0.33572 0.0
H251 H 0.94242 0.49714 0.35621 0.0
H252 H 0.83476 0.40913 0.22536 0.0
H253 H 0.87237 0.46801 0.18004 0.0
H254 H 0.80252 0.40964 0.20962 0.0
H255 H 0.83943 0.46747 0.16512 0.0
H256 H 0.91161 0.41885 0.18944 0.0
H257 H 0.90556 0.40716 0.28242 0.0
H258 H 0.90859 0.38383 0.18195 0.0
H259 H 0.90254 0.3723 0.27326 0.0
H260 H 0.96851 0.47482 0.15663 0.0
H261 H 0.91436 0.46887 0.10931 0.0
H262 H 0.82933 0.35848 0.29693 0.0
H263 H 0.83891 0.35272 0.20464 0.0
Li264 Li 0.44879 0.90717 0.71866 0.0
Li265 Li 0.45275 0.91058 0.77143 0.0
Li266 Li 0.45623 0.88355 0.74571 0.0
Li267 Li 0.4219 0.88142 0.75092 0.0
C268 C 0.48966 0.93124 0.72762 0.0
N269 N 0.51964 0.96578 0.69679 0.0
C270 C 0.49825 0.95153 0.73948 0.0
C271 C 0.49638 0.92852 0.70013 0.0
C272 C 0.51339 0.96879 0.72354 0.0
C273 C 0.51151 0.94618 0.68486 0.0
C274 C 0.41228 0.91114 0.74504 0.0
C275 C 0.38011 0.90598 0.76724 0.0
N276 N 0.37284 0.90744 0.74037 0.0
C277 C 0.40451 0.91267 0.71765 0.0
C278 C 0.40002 0.90787 0.77008 0.0
C279 C 0.38453 0.91074 0.71575 0.0
C280 C 0.44483 0.91009 0.65813 0.0
N281 N 0.45215 0.92163 0.68309 0.0
C282 C 0.4618 0.95352 0.65712 0.0
C283 C 0.46025 0.94289 0.6832 0.0
C284 C 0.45443 0.94203 0.63086 0.0
C285 C 0.4458 0.92001 0.63163 0.0
H286 H 0.43781 0.89312 0.65891 0.0
H287 H 0.46538 0.95154 0.70359 0.0
C288 C 0.48095 0.93165 0.81705 0.0
N289 N 0.46343 0.92941 0.80334 0.0
C290 C 0.48778 0.94291 0.8432 0.0
C291 C 0.45921 0.95054 0.83947 0.0
C292 C 0.45286 0.93899 0.81346 0.0
C293 C 0.47658 0.95215 0.85505 0.0
H294 H 0.48906 0.9239 0.80826 0.0
H295 H 0.43917 0.93719 0.8018 0.0
C296 C 0.43302 0.85857 0.70416 0.0
N297 N 0.43248 0.82262 0.68413 0.0
C298 C 0.41893 0.83887 0.71616 0.0
C299 C 0.44676 0.85998 0.68187 0.0
C300 C 0.41891 0.82088 0.70574 0.0
C301 C 0.44626 0.84163 0.67208 0.0
C302 C 0.44341 0.88136 0.81138 0.0
C303 C 0.4602 0.87947 0.82269 0.0
C304 C 0.43092 0.88549 0.83037 0.0
C305 C 0.46422 0.88177 0.85282 0.0
C306 C 0.4355 0.88777 0.86034 0.0
N307 N 0.45191 0.88587 0.87086 0.0
C308 C 0.48706 0.87292 0.72794 0.0
C309 C 0.46063 0.84885 0.76034 0.0
C310 C 0.4955 0.85956 0.7253 0.0
N311 N 0.46975 0.86718 0.74488 0.0
C312 C 0.46878 0.83524 0.75881 0.0
C313 C 0.48623 0.84046 0.7408 0.0
H314 H 0.49391 0.88753 0.71579 0.0
H315 H 0.44669 0.84458 0.77328 0.0
C316 C 0.38183 0.85922 0.72712 0.0
N317 N 0.39237 0.86302 0.75298 0.0
C318 C 0.36004 0.84589 0.72604 0.0
C319 C 0.3603 0.84061 0.77836 0.0
C320 C 0.38216 0.85404 0.77839 0.0
C321 C 0.34898 0.8363 0.75188 0.0
H322 H 0.39047 0.86648 0.70724 0.0
H323 H 0.39096 0.85718 0.79859 0.0
O324 O 0.47475 0.91416 0.74284 0.0
O325 O 0.43159 0.91245 0.7473 0.0
O326 O 0.43392 0.87648 0.71492 0.0
O327 O 0.43948 0.87957 0.78185 0.0
H328 H 0.49321 0.95397 0.76065 0.0
H329 H 0.48963 0.913 0.69036 0.0
H330 H 0.52013 0.98458 0.73241 0.0
H331 H 0.51671 0.94432 0.66346 0.0
H332 H 0.37039 0.90327 0.78641 0.0
H333 H 0.41366 0.91508 0.698 0.0
H334 H 0.40564 0.90641 0.79141 0.0
H335 H 0.37829 0.91179 0.69467 0.0
H336 H 0.46875 0.97052 0.65754 0.0
H337 H 0.43945 0.91044 0.6121 0.0
H338 H 0.50112 0.94358 0.8546 0.0
H339 H 0.45041 0.9578 0.84754 0.0
H340 H 0.40838 0.8375 0.73368 0.0
H341 H 0.45797 0.87515 0.67263 0.0
H342 H 0.40821 0.80554 0.71497 0.0
H343 H 0.45693 0.84251 0.65504 0.0
H344 H 0.47026 0.87661 0.80835 0.0
H345 H 0.41811 0.88738 0.82201 0.0
H346 H 0.47722 0.88044 0.86183 0.0
H347 H 0.42608 0.89117 0.87523 0.0
H348 H 0.5089 0.86394 0.71107 0.0
H349 H 0.461 0.8204 0.7706 0.0
H350 H 0.35207 0.84269 0.70505 0.0
H351 H 0.35237 0.83362 0.7988 0.0
Li352 Li 0.54408 0.44969 0.27487 0.0
Li353 Li 0.53881 0.42083 0.24235 0.0
Li354 Li 0.57362 0.45515 0.24315 0.0
Li355 Li 0.54215 0.45228 0.22032 0.0
C356 C 0.56646 0.4311 0.3013 0.0
N357 N 0.58031 0.42545 0.35522 0.0
C358 C 0.55671 0.41117 0.31447 0.0
C359 C 0.58349 0.44807 0.31536 0.0
C360 C 0.56387 0.40865 0.34179 0.0
C361 C 0.5902 0.44492 0.34265 0.0
C362 C 0.50006 0.41573 0.25053 0.0
C363 C 0.46947 0.38604 0.22901 0.0
N364 N 0.46021 0.3808 0.25586 0.0
C365 C 0.49016 0.41018 0.27786 0.0
C366 C 0.48957 0.40369 0.22584 0.0
C367 C 0.47004 0.39242 0.28011 0.0
C368 C 0.53679 0.47489 0.3141 0.0
N369 N 0.53728 0.45661 0.31167 0.0
C370 C 0.52944 0.44919 0.3625 0.0
C371 C 0.53327 0.44356 0.33499 0.0
C372 C 0.52934 0.46821 0.36581 0.0
C373 C 0.5328 0.48105 0.34116 0.0
H374 H 0.53974 0.4848 0.29506 0.0
H375 H 0.53289 0.42872 0.33226 0.0
C376 C 0.53414 0.38388 0.21752 0.0
N377 N 0.52687 0.39113 0.23941 0.0
C378 C 0.52806 0.36255 0.21605 0.0
C379 C 0.50648 0.35632 0.25908 0.0
C380 C 0.51311 0.37785 0.25984 0.0
C381 C 0.51443 0.34859 0.23738 0.0
H382 H 0.54533 0.39481 0.20185 0.0
H383 H 0.50804 0.38409 0.27751 0.0
C384 C 0.57674 0.49427 0.25511 0.0
N385 N 0.60743 0.53521 0.26839 0.0
C386 C 0.58298 0.51022 0.2341 0.0
C387 C 0.58583 0.49925 0.28304 0.0
C388 C 0.5986 0.53079 0.24118 0.0
C389 C 0.60138 0.52001 0.2893 0.0
C390 C 0.55811 0.43745 0.17954 0.0
C391 C 0.57696 0.45071 0.1649 0.0
C392 C 0.53985 0.42449 0.1634 0.0
C393 C 0.5771 0.45111 0.13428 0.0
C394 C 0.54063 0.42538 0.13281 0.0
N395 N 0.55908 0.43857 0.11901 0.0
C396 C 0.61202 0.45656 0.25319 0.0
C397 C 0.61546 0.48605 0.22672 0.0
C398 C 0.63381 0.46487 0.25285 0.0
N399 N 0.60336 0.46738 0.24076 0.0
C400 C 0.63737 0.4949 0.22565 0.0
C401 C 0.64679 0.48435 0.23913 0.0
H402 H 0.60198 0.44142 0.26334 0.0
H403 H 0.60812 0.49398 0.21612 0.0
C404 C 0.51231 0.4561 0.18512 0.0
N405 N 0.53315 0.46264 0.18878 0.0
C406 C 0.50548 0.46218 0.16026 0.0
C407 C 0.54176 0.48189 0.14389 0.0
C408 C 0.54789 0.47573 0.16923 0.0
C409 C 0.5203 0.47484 0.13905 0.0
H410 H 0.50097 0.44581 0.20115 0.0
H411 H 0.56438 0.48089 0.17294 0.0
O412 O 0.55957 0.43382 0.27456 0.0
O413 O 0.51979 0.43303 0.24792 0.0
O414 O 0.5615 0.47402 0.24846 0.0
O415 O 0.55758 0.43709 0.20952 0.0
H416 H 0.54367 0.3978 0.30384 0.0
H417 H 0.59167 0.46343 0.30516 0.0
H418 H 0.55636 0.39335 0.35231 0.0
H419 H 0.60334 0.45793 0.35376 0.0
H420 H 0.46122 0.37651 0.21012 0.0
H421 H 0.49794 0.41942 0.29714 0.0
H422 H 0.49687 0.40791 0.20449 0.0
H423 H 0.46224 0.38788 0.30116 0.0
H424 H 0.52636 0.43867 0.38091 0.0
H425 H 0.53282 0.49584 0.34293 0.0
H426 H 0.53447 0.35713 0.19894 0.0
H427 H 0.49621 0.34608 0.27618 0.0
H428 H 0.57593 0.50676 0.2125 0.0
H429 H 0.58076 0.48731 0.29985 0.0
H430 H 0.60369 0.54324 0.22504 0.0
H431 H 0.60858 0.52404 0.31082 0.0
H432 H 0.59127 0.46071 0.17704 0.0
H433 H 0.52522 0.41396 0.17438 0.0
H434 H 0.59154 0.46141 0.12266 0.0
H435 H 0.52658 0.41557 0.12005 0.0
H436 H 0.64042 0.45599 0.26285 0.0
H437 H 0.64684 0.50989 0.21468 0.0
H438 H 0.48879 0.45645 0.15712 0.0
H439 H 0.55361 0.49186 0.12808 0.0
Li440 Li 0.09318 0.54598 0.77089 0.0
Li441 Li 0.11272 0.53544 0.73828 0.0
Li442 Li 0.11719 0.57198 0.73496 0.0
Li443 Li 0.08556 0.54076 0.71754 0.0
C444 C 0.13596 0.56671 0.79267 0.0
N445 N 0.15994 0.58329 0.84287 0.0
C446 C 0.14411 0.55556 0.80748 0.0
C447 C 0.14035 0.58647 0.80314 0.0
C448 C 0.15609 0.56415 0.8329 0.0
C449 C 0.15241 0.59454 0.82861 0.0
C450 C 0.07748 0.49945 0.75283 0.0
C451 C 0.07237 0.46597 0.73577 0.0
N452 N 0.06885 0.45871 0.76383 0.0
C453 C 0.07365 0.4916 0.78146 0.0
C454 C 0.07667 0.48649 0.72975 0.0
C455 C 0.06937 0.47097 0.78658 0.0
C456 C 0.06136 0.54094 0.80854 0.0
N457 N 0.08063 0.54239 0.80809 0.0
C458 C 0.07973 0.53737 0.85985 0.0
C459 C 0.08988 0.54057 0.83295 0.0
C460 C 0.0598 0.5358 0.86097 0.0
C461 C 0.05062 0.53769 0.83491 0.0
H462 H 0.0543 0.54218 0.78831 0.0
H463 H 0.10486 0.54108 0.83192 0.0
C464 C 0.13887 0.52259 0.71139 0.0
N465 N 0.12716 0.51994 0.73573 0.0
C466 C 0.15042 0.51219 0.70879 0.0
C467 C 0.13734 0.49622 0.75619 0.0
C468 C 0.1262 0.50709 0.75797 0.0
C469 C 0.14986 0.49888 0.73147 0.0
H470 H 0.13963 0.53315 0.69424 0.0
H471 H 0.11703 0.5055 0.7773 0.0
C472 C 0.08374 0.57932 0.7513 0.0
N473 N 0.07645 0.61146 0.76803 0.0
C474 C 0.0722 0.58529 0.73309 0.0
C475 C 0.09126 0.58947 0.77823 0.0
C476 C 0.06877 0.60165 0.74187 0.0
C477 C 0.08749 0.60573 0.78625 0.0
C478 C 0.11271 0.55142 0.67337 0.0
C479 C 0.11829 0.56969 0.65714 0.0
C480 C 0.10443 0.53197 0.65903 0.0
C481 C 0.1151 0.56813 0.62681 0.0
C482 C 0.10143 0.53106 0.62869 0.0
N483 N 0.10677 0.549 0.61335 0.0
C484 C 0.15688 0.60858 0.7357 0.0
C485 C 0.12948 0.61367 0.71681 0.0
C486 C 0.17139 0.63005 0.7328 0.0
N487 N 0.13631 0.60095 0.7283 0.0
C488 C 0.14343 0.63528 0.71364 0.0
C489 C 0.16464 0.64373 0.72198 0.0
H490 H 0.1619 0.59801 0.74439 0.0
H491 H 0.1132 0.60708 0.71016 0.0
C492 C 0.04958 0.5109 0.68619 0.0
N493 N 0.06443 0.53164 0.68858 0.0
C494 C 0.03569 0.50391 0.66242 0.0
C495 C 0.05219 0.53992 0.64485 0.0
C496 C 0.06552 0.54622 0.66914 0.0
C497 C 0.0373 0.51843 0.64089 0.0
H498 H 0.04891 0.49972 0.70228 0.0
H499 H 0.07743 0.56263 0.67181 0.0
O500 O 0.12428 0.55853 0.76765 0.0
O501 O 0.08178 0.51963 0.74742 0.0
O502 O 0.08728 0.56336 0.74291 0.0
O503 O 0.11529 0.55257 0.70316 0.0
H504 H 0.14111 0.54038 0.79957 0.0
H505 H 0.13478 0.59566 0.79157 0.0
H506 H 0.16235 0.5556 0.84468 0.0
H507 H 0.15588 0.60979 0.83697 0.0
H508 H 0.07184 0.45583 0.71815 0.0
H509 H 0.07407 0.50134 0.79957 0.0
H510 H 0.07949 0.49227 0.70746 0.0
H511 H 0.06648 0.46473 0.80864 0.0
H512 H 0.08711 0.53556 0.87941 0.0
H513 H 0.0353 0.53666 0.83492 0.0
H514 H 0.16024 0.51516 0.68965 0.0
H515 H 0.13634 0.48604 0.77412 0.0
H516 H 0.06604 0.57745 0.71232 0.0
H517 H 0.09966 0.58467 0.79297 0.0
H518 H 0.05999 0.60653 0.7279 0.0
H519 H 0.09326 0.61373 0.80702 0.0
H520 H 0.12481 0.58487 0.66787 0.0
H521 H 0.10018 0.51772 0.67124 0.0
H522 H 0.1192 0.58211 0.614 0.0
H523 H 0.09484 0.51609 0.61735 0.0
H524 H 0.18758 0.63595 0.73968 0.0
H525 H 0.13771 0.64525 0.70472 0.0
H526 H 0.02417 0.48726 0.66058 0.0
H527 H 0.05428 0.55167 0.6287 0.0
H528 H 0.55143 0.20416 0.23815 0.0
H529 H 0.54171 0.23149 0.24153 0.0
H530 H 0.47594 0.18382 0.24778 0.0
H531 H 0.48559 0.15611 0.24397 0.0
H532 H 0.48415 0.21797 0.20928 0.0
H533 H 0.49729 0.20739 0.3076 0.0
H534 H 0.516 0.20183 0.34864 0.0
H535 H 0.57025 0.26282 0.33335 0.0
H536 H 0.55201 0.26862 0.29189 0.0
H537 H 0.47656 0.31196 0.24468 0.0
H538 H 0.47088 0.27586 0.24877 0.0
H539 H 0.53775 0.30025 0.23814 0.0
H540 H 0.54347 0.33601 0.23398 0.0
H541 H 0.51907 0.27233 0.28675 0.0
H542 H 0.5073 0.27835 0.18221 0.0
H543 H 0.48842 0.28344 0.14094 0.0
H544 H 0.43021 0.23023 0.16971 0.0
H545 H 0.44874 0.22501 0.21142 0.0
C546 C 0.53487 0.19944 0.23983 0.0
C547 C 0.51926 0.17801 0.24074 0.0
C548 C 0.52935 0.21507 0.24203 0.0
C549 C 0.50815 0.20963 0.24527 0.0
C550 C 0.4924 0.18827 0.24545 0.0
C551 C 0.49794 0.17253 0.24343 0.0
C552 C 0.50294 0.22661 0.24872 0.0
C553 C 0.49128 0.22959 0.22664 0.0
C554 C 0.51222 0.24168 0.27143 0.0
C555 C 0.52328 0.2384 0.29652 0.0
C556 C 0.51326 0.21957 0.31285 0.0
C557 C 0.52378 0.21638 0.33621 0.0
C558 C 0.5443 0.23196 0.34358 0.0
C559 C 0.55434 0.25077 0.32763 0.0
C560 C 0.54391 0.25403 0.30421 0.0
C561 C 0.48997 0.3095 0.24315 0.0
C562 C 0.51042 0.32668 0.23877 0.0
C563 C 0.48671 0.28896 0.24544 0.0
C564 C 0.50392 0.28551 0.24378 0.0
C565 C 0.5243 0.30266 0.23952 0.0
C566 C 0.52751 0.32303 0.23688 0.0
C567 C 0.5012 0.26416 0.24656 0.0
C568 C 0.51136 0.26037 0.26992 0.0
C569 C 0.4904 0.24833 0.22519 0.0
C570 C 0.47933 0.25148 0.20013 0.0
C571 C 0.49044 0.26787 0.1799 0.0
C572 C 0.47981 0.27075 0.15639 0.0
C573 C 0.45811 0.25722 0.15277 0.0
C574 C 0.44701 0.24074 0.17259 0.0
C575 C 0.45756 0.23781 0.19616 0.0
H576 H 0.44991 0.25947 0.13455 0.0
H577 H 0.55242 0.22946 0.36168 0.0
H578 H 0.30856 0.48362 0.77876 0.0
H579 H 0.27189 0.47457 0.77315 0.0
H580 H 0.27936 0.47951 0.67915 0.0
H581 H 0.31653 0.49032 0.6847 0.0
H582 H 0.26321 0.50132 0.69491 0.0
H583 H 0.24578 0.431 0.71635 0.0
H584 H 0.24675 0.40198 0.74259 0.0
H585 H 0.22291 0.416 0.82016 0.0
H586 H 0.22208 0.44532 0.79455 0.0
H587 H 0.15885 0.48198 0.68367 0.0
H588 H 0.18599 0.47181 0.68019 0.0
H589 H 0.19866 0.48332 0.77271 0.0
H590 H 0.17212 0.49412 0.77631 0.0
H591 H 0.20132 0.44758 0.75049 0.0
H592 H 0.22626 0.52205 0.7298 0.0
H593 H 0.22495 0.55068 0.7029 0.0
H594 H 0.23437 0.52693 0.62165 0.0
H595 H 0.23539 0.49794 0.6481 0.0
C596 C 0.30244 0.48277 0.75685 0.0
C597 C 0.3157 0.48807 0.73224 0.0
C598 C 0.28128 0.47716 0.75363 0.0
C599 C 0.27273 0.47616 0.72568 0.0
C600 C 0.28557 0.48015 0.70096 0.0
C601 C 0.30685 0.48616 0.70418 0.0
C602 C 0.25139 0.47374 0.72259 0.0
C603 C 0.24958 0.48914 0.70642 0.0
C604 C 0.23358 0.45813 0.73799 0.0
C605 C 0.23398 0.44046 0.75353 0.0
C606 C 0.24088 0.428 0.73907 0.0
C607 C 0.24138 0.41148 0.75382 0.0
C608 C 0.23492 0.40717 0.78303 0.0
C609 C 0.2279 0.41936 0.79753 0.0
C610 C 0.22738 0.43591 0.78288 0.0
C611 C 0.16726 0.48216 0.70335 0.0
C612 C 0.16354 0.48921 0.73018 0.0
C613 C 0.18259 0.47613 0.70135 0.0
C614 C 0.19436 0.47697 0.72616 0.0
C615 C 0.18961 0.48245 0.75337 0.0
C616 C 0.1744 0.48862 0.75536 0.0
C617 C 0.21355 0.47521 0.72319 0.0
C618 C 0.21492 0.45924 0.73836 0.0
C619 C 0.23097 0.49014 0.70667 0.0
C620 C 0.23064 0.50771 0.69086 0.0
C621 C 0.22789 0.52285 0.70618 0.0
C622 C 0.22722 0.53914 0.69102 0.0
C623 C 0.22951 0.54058 0.66057 0.0
C624 C 0.23254 0.52576 0.64523 0.0
C625 C 0.23317 0.5094 0.66028 0.0
H626 H 0.22899 0.55321 0.64887 0.0
H627 H 0.23532 0.39437 0.79441 0.0
H628 H 0.66665 0.18548 0.30128 0.0
H629 H 0.7007 0.21734 0.29597 0.0
H630 H 0.72205 0.18421 0.24014 0.0
H631 H 0.68792 0.15167 0.24613 0.0
H632 H 0.75421 0.21576 0.27972 0.0
H633 H 0.70424 0.20895 0.2065 0.0
H634 H 0.66918 0.20117 0.1887 0.0
H635 H 0.67361 0.25259 0.23972 0.0
H636 H 0.70852 0.2604 0.25834 0.0
H637 H 0.8334 0.31888 0.22641 0.0
H638 H 0.80563 0.28156 0.22753 0.0
H639 H 0.76648 0.29793 0.27913 0.0
H640 H 0.7938 0.33505 0.27761 0.0
H641 H 0.74511 0.2722 0.23319 0.0
H642 H 0.79277 0.27599 0.3106 0.0
H643 H 0.82715 0.28301 0.33029 0.0
H644 H 0.82709 0.2373 0.27115 0.0
H645 H 0.79281 0.23021 0.25083 0.0
C646 C 0.67875 0.1846 0.28874 0.0
C647 C 0.67447 0.16599 0.27398 0.0
C648 C 0.69818 0.20294 0.28554 0.0
C649 C 0.71367 0.20313 0.26729 0.0
C650 C 0.71018 0.18431 0.2542 0.0
C651 C 0.69065 0.16583 0.25746 0.0
C652 C 0.73229 0.22358 0.25963 0.0
C653 C 0.75238 0.22802 0.26901 0.0
C654 C 0.72974 0.23947 0.2457 0.0
C655 C 0.70896 0.23518 0.23395 0.0
C656 C 0.69769 0.21852 0.21407 0.0
C657 C 0.67784 0.2141 0.20384 0.0
C658 C 0.66917 0.22637 0.2131 0.0
C659 C 0.68035 0.2431 0.23257 0.0
C660 C 0.70018 0.24754 0.24296 0.0
C661 C 0.81882 0.31446 0.2379 0.0
C662 C 0.81578 0.32984 0.25205 0.0
C663 C 0.80307 0.29318 0.23867 0.0
C664 C 0.78408 0.28703 0.25353 0.0
C665 C 0.78105 0.30237 0.26757 0.0
C666 C 0.79674 0.32354 0.2669 0.0
C667 C 0.76699 0.26472 0.25428 0.0
C668 C 0.74711 0.25988 0.24339 0.0
C669 C 0.76981 0.24852 0.26669 0.0
C670 C 0.79037 0.25277 0.27895 0.0
C671 C 0.80018 0.26757 0.30161 0.0
C672 C 0.81963 0.27154 0.31293 0.0
C673 C 0.82934 0.26066 0.30191 0.0
C674 C 0.81958 0.24575 0.27962 0.0
C675 C 0.80014 0.24174 0.2682 0.0
H676 H 0.84439 0.26375 0.31071 0.0
H677 H 0.65381 0.22294 0.20515 0.0
H678 H 0.48989 0.8241 0.68925 0.0
H679 H 0.49421 0.79315 0.68288 0.0
H680 H 0.50238 0.79085 0.77621 0.0
H681 H 0.4977 0.82159 0.78274 0.0
H682 H 0.52834 0.77884 0.73516 0.0
H683 H 0.45674 0.76494 0.75875 0.0
H684 H 0.42693 0.77098 0.74906 0.0
H685 H 0.42233 0.74849 0.6609 0.0
H686 H 0.45244 0.74276 0.66994 0.0
H687 H 0.49196 0.67239 0.77311 0.0
H688 H 0.50146 0.70946 0.76817 0.0
H689 H 0.46766 0.69512 0.68586 0.0
H690 H 0.45721 0.65784 0.69177 0.0
H691 H 0.4573 0.7174 0.71521 0.0
H692 H 0.5241 0.72519 0.692 0.0
H693 H 0.55551 0.72123 0.69759 0.0
H694 H 0.57114 0.75595 0.77839 0.0
H695 H 0.53964 0.75987 0.77352 0.0
C696 C 0.49332 0.81739 0.70825 0.0
C697 C 0.49335 0.82501 0.73649 0.0
C698 C 0.4958 0.79979 0.70458 0.0
C699 C 0.49858 0.78982 0.7291 0.0
C700 C 0.50042 0.79851 0.75706 0.0
C701 C 0.49759 0.81589 0.76079 0.0
C702 C 0.49568 0.76844 0.72633 0.0
C703 C 0.51288 0.7653 0.7309 0.0
C704 C 0.47558 0.75104 0.71994 0.0
C705 C 0.45694 0.75363 0.71492 0.0
C706 C 0.44944 0.7614 0.73726 0.0
C707 C 0.4325 0.76477 0.73188 0.0
C708 C 0.42277 0.76017 0.70435 0.0
C709 C 0.4299 0.75208 0.6822 0.0
C710 C 0.4469 0.74877 0.68743 0.0
C711 C 0.48678 0.67731 0.75389 0.0
C712 C 0.47384 0.66245 0.73286 0.0
C713 C 0.49234 0.69849 0.75091 0.0
C714 C 0.48556 0.70523 0.72639 0.0
C715 C 0.47307 0.69035 0.70497 0.0
C716 C 0.46712 0.66911 0.70831 0.0
C717 C 0.49001 0.72737 0.72428 0.0
C718 C 0.47298 0.73075 0.71897 0.0
C719 C 0.51039 0.74497 0.72944 0.0
C720 C 0.52939 0.74268 0.73249 0.0
C721 C 0.53414 0.73185 0.71108 0.0
C722 C 0.55198 0.72963 0.7141 0.0
C723 C 0.56529 0.7383 0.73836 0.0
C724 C 0.5608 0.74924 0.75962 0.0
C725 C 0.54297 0.75148 0.75672 0.0
H726 H 0.5791 0.73657 0.74066 0.0
H727 H 0.40969 0.76283 0.70021 0.0
H728 H 0.67226 0.48671 0.28437 0.0
H729 H 0.70974 0.49781 0.28244 0.0
H730 H 0.71129 0.51336 0.19086 0.0
H731 H 0.6735 0.5018 0.19253 0.0
H732 H 0.72772 0.48824 0.20018 0.0
H733 H 0.73807 0.55245 0.24032 0.0
H734 H 0.73211 0.57558 0.27345 0.0
H735 H 0.75075 0.55201 0.34718 0.0
H736 H 0.75653 0.52849 0.31457 0.0
H737 H 0.83353 0.51091 0.20421 0.0
H738 H 0.80571 0.52011 0.19914 0.0
H739 H 0.7855 0.49914 0.28769 0.0
H740 H 0.81348 0.49027 0.29306 0.0
H741 H 0.78214 0.53445 0.27249 0.0
H742 H 0.76373 0.46534 0.23345 0.0
H743 H 0.76949 0.44165 0.20111 0.0
H744 H 0.76546 0.47456 0.12553 0.0
H745 H 0.76005 0.49869 0.15751 0.0
C746 C 0.68062 0.49265 0.26388 0.0
C747 C 0.66996 0.49325 0.23855 0.0
C748 C 0.70209 0.49923 0.26288 0.0
C749 C 0.71335 0.50662 0.23657 0.0
C750 C 0.7029 0.50783 0.21142 0.0
C751 C 0.68137 0.50131 0.21243 0.0
C752 C 0.73538 0.51091 0.23496 0.0
C753 C 0.73982 0.49882 0.21543 0.0
C754 C 0.75103 0.52444 0.25518 0.0
C755 C 0.74764 0.53861 0.27497 0.0
C756 C 0.74076 0.55208 0.26362 0.0
C757 C 0.73743 0.56528 0.28231 0.0
C758 C 0.74102 0.56525 0.3124 0.0
C759 C 0.74798 0.55203 0.32386 0.0
C760 C 0.75132 0.53878 0.30527 0.0
C761 C 0.82353 0.50883 0.22285 0.0
C762 C 0.82546 0.49966 0.24893 0.0
C763 C 0.80763 0.51402 0.21989 0.0
C764 C 0.79345 0.51007 0.24293 0.0
C765 C 0.7963 0.5023 0.26966 0.0
C766 C 0.81213 0.49705 0.2726 0.0
C767 C 0.77413 0.51142 0.23827 0.0
C768 C 0.77021 0.52442 0.25668 0.0
C769 C 0.75889 0.49869 0.21708 0.0
C770 C 0.76176 0.48397 0.19785 0.0
C771 C 0.76422 0.46761 0.20994 0.0
C772 C 0.76741 0.4541 0.19169 0.0
C773 C 0.7679 0.45664 0.16129 0.0
C774 C 0.76513 0.47265 0.14908 0.0
C775 C 0.76201 0.48625 0.16726 0.0
H776 H 0.77038 0.44618 0.14718 0.0
H777 H 0.73843 0.57548 0.32684 0.0
H778 H 0.31854 0.83871 0.71953 0.0
H779 H 0.28159 0.81115 0.71317 0.0
H780 H 0.29071 0.77163 0.77492 0.0
H781 H 0.32756 0.7988 0.78102 0.0
H782 H 0.26811 0.77268 0.6912 0.0
H783 H 0.24633 0.74048 0.81107 0.0
H784 H 0.25228 0.75478 0.8613 0.0
H785 H 0.26236 0.81411 0.8281 0.0
H786 H 0.25615 0.8001 0.77771 0.0
H787 H 0.20525 0.66351 0.70222 0.0
H788 H 0.23102 0.70116 0.70423 0.0
H789 H 0.18366 0.71368 0.73965 0.0
H790 H 0.15785 0.67582 0.7384 0.0
H791 H 0.21869 0.73233 0.7716 0.0
H792 H 0.20243 0.73083 0.67133 0.0
H793 H 0.19528 0.71776 0.62044 0.0
H794 H 0.25844 0.72843 0.61306 0.0
H795 H 0.26589 0.74128 0.66406 0.0
C796 C 0.31261 0.82419 0.7319 0.0
C797 C 0.32601 0.82089 0.75068 0.0
C798 C 0.29149 0.80854 0.72835 0.0
C799 C 0.28339 0.78944 0.74374 0.0
C800 C 0.29653 0.78643 0.76327 0.0
C801 C 0.31761 0.802 0.76676 0.0
C802 C 0.26192 0.77172 0.73748 0.0
C803 C 0.25714 0.76398 0.70869 0.0
C804 C 0.24736 0.76078 0.76018 0.0
C805 C 0.25086 0.76924 0.79054 0.0
C806 C 0.24967 0.75653 0.81447 0.0
C807 C 0.25312 0.7646 0.84299 0.0
C808 C 0.25773 0.78535 0.84788 0.0
C809 C 0.25885 0.79806 0.82428 0.0
C810 C 0.25539 0.79007 0.79572 0.0
C811 C 0.20029 0.67429 0.71027 0.0
C812 C 0.17959 0.66673 0.72031 0.0
C813 C 0.21495 0.69583 0.7111 0.0
C814 C 0.20919 0.71024 0.72182 0.0
C815 C 0.18838 0.70282 0.73115 0.0
C816 C 0.17365 0.68123 0.73026 0.0
C817 C 0.22553 0.73269 0.72563 0.0
C818 C 0.22936 0.7413 0.75397 0.0
C819 C 0.23902 0.74462 0.7024 0.0
C820 C 0.23469 0.73697 0.67162 0.0
C821 C 0.21476 0.73027 0.65893 0.0
C822 C 0.21066 0.72291 0.63004 0.0
C823 C 0.22639 0.72225 0.61353 0.0
C824 C 0.24627 0.72897 0.62587 0.0
C825 C 0.25046 0.73633 0.65476 0.0
H826 H 0.22318 0.71654 0.59117 0.0
H827 H 0.26041 0.79157 0.86997 0.0
H828 H 0.44984 0.94934 0.89876 0.0
H829 H 0.45917 0.96478 0.94775 0.0
H830 H 0.52531 0.99257 0.92701 0.0
H831 H 0.51616 0.97763 0.87761 0.0
H832 H 0.51403 0.97098 0.98065 0.0
H833 H 0.50464 0.0233 0.92892 0.0
H834 H 0.48533 0.03578 0.89804 0.0
H835 H 0.43543 0.01314 0.96148 0.0
H836 H 0.45432 0.00024 0.99256 0.0
H837 H 0.55952 0.04301 0.09822 0.0
H838 H 0.54848 0.02551 0.05065 0.0
H839 H 0.48342 0.00447 0.07184 0.0
H840 H 0.49443 0.02264 0.11904 0.0
H841 H 0.49285 0.02132 0.01853 0.0
H842 H 0.50175 0.96988 0.07111 0.0
H843 H 0.51995 0.95634 0.10236 0.0
H844 H 0.56916 0.9757 0.03834 0.0
H845 H 0.5514 0.98964 0.00687 0.0
C846 C 0.46638 0.95907 0.90439 0.0
C847 C 0.48228 0.96236 0.88425 0.0
C848 C 0.47166 0.96775 0.93244 0.0
C849 C 0.4929 0.97983 0.94083 0.0
C850 C 0.50882 0.9832 0.92086 0.0
C851 C 0.50357 0.97463 0.89272 0.0
C852 C 0.49849 0.98871 0.97067 0.0
C853 C 0.50967 0.9822 0.98889 0.0
C854 C 0.49212 0.00277 0.98152 0.0
C855 C 0.4808 0.01061 0.96292 0.0
C856 C 0.48947 0.02082 0.93617 0.0
C857 C 0.47861 0.028 0.91865 0.0
C858 C 0.45913 0.02521 0.92775 0.0
C859 C 0.4505 0.01527 0.95444 0.0
C860 C 0.46128 0.00803 0.97203 0.0
C861 C 0.54286 0.03467 0.09273 0.0
C862 C 0.52784 0.03423 0.11232 0.0
C863 C 0.53656 0.0245 0.06569 0.0
C864 C 0.51511 0.01355 0.05787 0.0
C865 C 0.50004 0.01281 0.07754 0.0
C866 C 0.50634 0.02302 0.10457 0.0
C867 C 0.50857 0.00374 0.02859 0.0
C868 C 0.49718 0.01005 0.01042 0.0
C869 C 0.51459 0.98935 0.01789 0.0
C870 C 0.52534 0.98099 0.03675 0.0
C871 C 0.51655 0.97142 0.0638 0.0
C872 C 0.52677 0.96364 0.08154 0.0
C873 C 0.54573 0.96521 0.07238 0.0
C874 C 0.55448 0.97452 0.04542 0.0
C875 C 0.54433 0.98235 0.02761 0.0
H876 H 0.55361 0.95917 0.08613 0.0
H877 H 0.45076 0.03078 0.91416 0.0
H878 H 0.50218 0.48228 0.37912 0.0
H879 H 0.49545 0.49228 0.42727 0.0
H880 H 0.54139 0.47873 0.46599 0.0
H881 H 0.54775 0.46818 0.41784 0.0
H882 H 0.50791 0.46341 0.49911 0.0
H883 H 0.55231 0.53015 0.4548 0.0
H884 H 0.56467 0.55751 0.41641 0.0
H885 H 0.50707 0.55946 0.42315 0.0
H886 H 0.49422 0.53188 0.4613 0.0
H887 H 0.50537 0.51514 0.63316 0.0
H888 H 0.51789 0.50631 0.58847 0.0
H889 H 0.46747 0.50633 0.53914 0.0
H890 H 0.45446 0.51442 0.58356 0.0
H891 H 0.50794 0.53069 0.51392 0.0
H892 H 0.46318 0.46121 0.55601 0.0
H893 H 0.4521 0.43445 0.59511 0.0
H894 H 0.51311 0.43925 0.59365 0.0
H895 H 0.52465 0.46628 0.55479 0.0
C896 C 0.51093 0.4816 0.39789 0.0
C897 C 0.52552 0.47456 0.39484 0.0
C898 C 0.50714 0.48736 0.42536 0.0
C899 C 0.5182 0.4866 0.45015 0.0
C900 C 0.53272 0.47947 0.44714 0.0
C901 C 0.53633 0.47345 0.41971 0.0
C902 C 0.51414 0.49277 0.47926 0.0
C903 C 0.50832 0.4783 0.50249 0.0
C904 C 0.51453 0.51214 0.48363 0.0
C905 C 0.52224 0.52883 0.46078 0.0
C906 C 0.54221 0.53631 0.44796 0.0
C907 C 0.54932 0.55187 0.42626 0.0
C908 C 0.53665 0.56019 0.41731 0.0
C909 C 0.51686 0.553 0.4301 0.0
C910 C 0.50967 0.53741 0.45179 0.0
C911 C 0.49679 0.51297 0.61287 0.0
C912 C 0.47902 0.51566 0.61186 0.0
C913 C 0.50403 0.50805 0.58739 0.0
C914 C 0.49362 0.50579 0.56061 0.0
C915 C 0.4758 0.50823 0.55961 0.0
C916 C 0.46847 0.51295 0.585 0.0
C917 C 0.50129 0.50114 0.53332 0.0
C918 C 0.50784 0.51594 0.51053 0.0
C919 C 0.50182 0.48223 0.52949 0.0
C920 C 0.49486 0.46594 0.55276 0.0
C921 C 0.4743 0.4567 0.56422 0.0
C922 C 0.46792 0.44146 0.58629 0.0
C923 C 0.48191 0.4352 0.59693 0.0
C924 C 0.5023 0.44414 0.58543 0.0
C925 C 0.50876 0.45941 0.56338 0.0
H926 H 0.47695 0.42339 0.61401 0.0
H927 H 0.54217 0.57224 0.40051 0.0
H928 H 0.07537 0.55404 0.91427 0.0
H929 H 0.05645 0.54561 0.96098 0.0
H930 H -0.00045 0.49909 0.91753 0.0
H931 H 0.01831 0.50753 0.87085 0.0
H932 H 0.99132 0.52201 0.95529 0.0
H933 H 0.03022 0.48473 0.95657 0.0
H934 H 0.06213 0.48142 0.9533 0.0
H935 H 0.08957 0.52371 0.02625 0.0
H936 H 0.05792 0.52749 0.02968 0.0
H937 H 0.9315 0.45784 0.07357 0.0
H938 H 0.95243 0.47114 0.0289 0.0
H939 H 0.00481 0.51828 0.07933 0.0
H940 H 0.98386 0.50529 0.12413 0.0
H941 H 0.01672 0.49774 0.03967 0.0
H942 H 0.97629 0.53296 0.04011 0.0
H943 H 0.94389 0.53538 0.04338 0.0
H944 H 0.91882 0.49612 0.96709 0.0
H945 H 0.95096 0.4932 0.96361 0.0
C946 C 0.05883 0.542 0.91476 0.0
C947 C 0.04829 0.53139 0.88901 0.0
C948 C 0.04807 0.53722 0.94138 0.0
C949 C 0.02668 0.52157 0.9427 0.0
C950 C 0.01604 0.51126 0.91693 0.0
C951 C 0.02675 0.51612 0.8903 0.0
C952 C 0.01539 0.51558 0.97099 0.0
C953 C -0.00324 0.51652 0.97366 0.0
C954 C 0.02281 0.50891 -0.00488 0.0
C955 C 0.0418 0.50657 0.99317 0.0
C956 C 0.04313 0.49345 0.97176 0.0
C957 C 0.06116 0.49147 0.96991 0.0
C958 C 0.07789 0.5024 0.9895 0.0
C959 C 0.07661 0.51528 0.01105 0.0
C960 C 0.05863 0.51734 0.01297 0.0
C961 C 0.9474 0.47116 0.07513 0.0
C962 C 0.95602 0.48057 0.10233 0.0
C963 C 0.95934 0.47869 0.04962 0.0
C964 C 0.98004 0.4958 0.05088 0.0
C965 C 0.98884 0.50504 0.07801 0.0
C966 C 0.97689 0.49755 0.10354 0.0
C967 C 0.99253 0.50392 0.02379 0.0
C968 C 0.01139 0.50339 0.02136 0.0
C969 C 0.98527 0.51087 -0.00016 0.0
C970 C 0.96597 0.51272 0.00175 0.0
C971 C 0.96381 0.52471 0.02416 0.0
C972 C 0.9455 0.52619 0.02603 0.0
C973 C 0.92929 0.51587 0.00549 0.0
C974 C 0.93138 0.50409 0.98299 0.0
C975 C 0.94965 0.50253 0.98104 0.0
H976 H 0.91513 0.51704 0.00698 0.0
H977 H 0.09184 0.50084 0.98803 0.0
H978 H 0.49194 0.00433 0.37263 0.0
H979 H 0.47716 0.98775 0.41964 0.0
H980 H 0.47871 0.04466 0.44899 0.0
H981 H 0.49451 0.06173 0.40242 0.0
H982 H 0.49568 0.03195 0.48845 0.0
H983 H 0.4313 -0.00109 0.43582 0.0
H984 H 0.40679 0.97986 0.3952 0.0
H985 H 0.41419 0.92596 0.41085 0.0
H986 H 0.439 0.94478 0.4513 0.0
H987 H 0.44818 0.97566 0.62163 0.0
H988 H 0.45149 0.9941 0.57544 0.0
H989 H 0.46595 0.95101 0.53044 0.0
H990 H 0.46357 0.93301 0.57651 0.0
H991 H 0.43563 0.95909 0.50124 0.0
H992 H 0.50482 0.99599 0.54842 0.0
H993 H 0.52892 0.0155 0.58924 0.0
H994 H 0.51072 0.06294 0.58382 0.0
H995 H 0.48626 0.04351 0.54321 0.0
C996 C 0.48907 0.0133 0.38905 0.0
C997 C 0.49451 0.03437 0.38388 0.0
C998 C 0.48034 0.0037 0.41577 0.0
C999 C 0.47658 0.01489 0.4377 0.0
C1000 C 0.48137 0.03572 0.43229 0.0
C1001 C 0.49025 0.04538 0.40559 0.0
C1002 C 0.46955 0.00538 0.46708 0.0
C1003 C 0.48221 0.01623 0.49133 0.0
C1004 C 0.4521 0.9848 0.47082 0.0
C1005 C 0.43712 0.97333 0.44653 0.0
C1006 C 0.42782 0.98305 0.43048 0.0
C1007 C 0.41385 0.97228 0.4075 0.0
C1008 C 0.40896 0.95172 0.40042 0.0
C1009 C 0.418 0.94188 0.41636 0.0
C1010 C 0.43199 0.95258 0.43936 0.0
C1011 C 0.45226 0.97021 0.60198 0.0
C1012 C 0.4557 0.95289 0.60282 0.0
C1013 C 0.45393 0.98064 0.57561 0.0
C1014 C 0.4589 0.97382 0.54969 0.0
C1015 C 0.46189 0.95632 0.55027 0.0
C1016 C 0.46047 0.94604 0.57662 0.0
C1017 C 0.4621 0.98547 0.52205 0.0
C1018 C 0.44875 0.97501 0.49827 0.0
C1019 C 0.47876 0.00647 0.51876 0.0
C1020 C 0.49352 0.01817 0.54307 0.0
C1021 C 0.50581 0.01048 0.55612 0.0
C1022 C 0.51957 0.02154 0.57918 0.0
C1023 C 0.52129 0.04041 0.58919 0.0
C1024 C 0.50932 0.04829 0.5761 0.0
C1025 C 0.49552 0.03727 0.55306 0.0
H1026 H 0.53196 0.04895 0.60704 0.0
H1027 H 0.39814 0.94341 0.38262 0.0
H1028 H 0.47988 0.49974 0.87449 0.0
H1029 H 0.48845 0.49143 0.92277 0.0
H1030 H 0.46624 0.53004 0.96353 0.0
H1031 H 0.45835 0.53895 0.9151 0.0
H1032 H 0.50068 0.53687 0.9892 0.0
H1033 H 0.43647 0.47488 0.96312 0.0
H1034 H 0.41196 0.44499 0.932 0.0
H1035 H 0.45435 0.42029 0.93382 0.0
H1036 H 0.47926 0.4502 0.96463 0.0
H1037 H 0.49479 0.49192 0.132 0.0
H1038 H 0.48378 0.50064 0.08553 0.0
H1039 H 0.51894 0.47748 0.03766 0.0
H1040 H 0.53019 0.46904 0.08392 0.0
H1041 H 0.47578 0.46254 0.01773 0.0
H1042 H 0.54048 0.52679 0.04283 0.0
H1043 H 0.56342 0.55643 0.07543 0.0
H1044 H 0.51706 0.57617 0.07744 0.0
H1045 H 0.4937 0.54643 0.04517 0.0
C1046 C 0.47682 0.50639 0.8938 0.0
C1047 C 0.46841 0.51989 0.89122 0.0
C1048 C 0.48162 0.50159 0.92135 0.0
C1049 C 0.47759 0.50979 0.94682 0.0
C1050 C 0.46943 0.5235 0.9442 0.0
C1051 C 0.46494 0.52858 0.91659 0.0
C1052 C 0.48215 0.50421 0.97613 0.0
C1053 C 0.49492 0.52058 -0.00442 0.0
C1054 C 0.47481 0.48297 0.98442 0.0
C1055 C 0.45982 0.46489 0.96599 0.0
C1056 C 0.44063 0.46316 0.95672 0.0
C1057 C 0.42666 0.4462 0.93916 0.0
C1058 C 0.43161 0.43078 0.93089 0.0
C1059 C 0.45054 0.43226 0.94022 0.0
C1060 C 0.46458 0.4492 0.95776 0.0
C1061 C 0.50009 0.48869 0.1115 0.0
C1062 C 0.5134 0.47995 0.11136 0.0
C1063 C 0.49387 0.49369 0.08511 0.0
C1064 C 0.50064 0.48972 0.05834 0.0
C1065 C 0.5136 0.48065 0.05818 0.0
C1066 C 0.5201 0.47597 0.08451 0.0
C1067 C 0.4944 0.49517 0.03036 0.0
C1068 C 0.48132 0.47877 0.01127 0.0
C1069 C 0.50116 0.51632 0.02261 0.0
C1070 C 0.51524 0.53425 0.04188 0.0
C1071 C 0.53509 0.53733 0.05045 0.0
C1072 C 0.54819 0.55417 0.06882 0.0
C1073 C 0.54168 0.56814 0.07858 0.0
C1074 C 0.52207 0.56532 0.06991 0.0
C1075 C 0.5089 0.54848 0.05157 0.0
H1076 H 0.55184 0.58117 0.09279 0.0
H1077 H 0.42077 0.41766 0.91729 0.0
H1078 H 0.02665 0.48235 0.61 0.0
H1079 H 0.01039 0.47265 0.56168 0.0
H1080 H 0.00531 0.529 0.55961 0.0
H1081 H 0.02016 0.53806 0.60893 0.0
H1082 H 0.97249 0.49837 0.5338 0.0
H1083 H 0.04725 0.52702 0.52796 0.0
H1084 H 0.08147 0.52988 0.54029 0.0
H1085 H 0.05934 0.4672 0.50748 0.0
H1086 H 0.02483 0.46382 0.49543 0.0
H1087 H 0.97535 0.51225 0.37898 0.0
H1088 H 0.9888 0.51782 0.42918 0.0
H1089 H 0.97009 0.45193 0.43601 0.0
H1090 H 0.9554 0.4458 0.38652 0.0
H1091 H 0.0144 0.48628 0.45869 0.0
H1092 H 0.93866 0.45949 0.46448 0.0
H1093 H 0.90623 0.45984 0.4504 0.0
H1094 H 0.93309 0.52359 0.48154 0.0
H1095 H 0.96587 0.52375 0.49527 0.0
C1096 C 0.0215 0.49238 0.59974 0.0
C1097 C 0.02496 0.51115 0.61326 0.0
C1098 C 0.01247 0.48695 0.57189 0.0
C1099 C 0.00721 0.50041 0.55674 0.0
C1100 C 0.00948 0.5185 0.5708 0.0
C1101 C 0.01819 0.52377 0.59887 0.0
C1102 C 0.00048 0.49631 0.52568 0.0
C1103 C 0.98176 0.49587 0.51741 0.0
C1104 C 0.01254 0.493 0.50424 0.0
C1105 C 0.03338 0.49509 0.51107 0.0
C1106 C 0.04963 0.51379 0.52355 0.0
C1107 C 0.06908 0.51551 0.53048 0.0
C1108 C 0.07256 0.49872 0.52473 0.0
C1109 C 0.05661 0.48019 0.51196 0.0
C1110 C 0.0371 0.47836 0.50507 0.0
C1111 C 0.974 0.49889 0.39111 0.0
C1112 C 0.96404 0.47852 0.37874 0.0
C1113 C 0.98187 0.50217 0.41966 0.0
C1114 C 0.98026 0.48524 0.43609 0.0
C1115 C 0.97148 0.46515 0.42343 0.0
C1116 C 0.96323 0.46175 0.39507 0.0
C1117 C 0.98651 0.48828 0.46715 0.0
C1118 C 0.00515 0.48862 0.47529 0.0
C1119 C 0.97463 0.49192 0.48834 0.0
C1120 C 0.9548 0.49171 0.48059 0.0
C1121 C 0.93773 0.47365 0.46806 0.0
C1122 C 0.91927 0.47374 0.46019 0.0
C1123 C 0.91762 0.49174 0.465 0.0
C1124 C 0.93441 0.50967 0.47778 0.0
C1125 C 0.95293 0.50967 0.48562 0.0
H1126 H 0.90332 0.49179 0.45889 0.0
H1127 H 0.08762 0.50007 0.53011 0.0
loop_
_geom_bond_atom_site_label_1
_geom_bond_atom_site_label_2
_geom_bond_distance
_geom_bond_site_symmetry_2
_ccdc_geom_bond_type
Li0 N17 1.990 . S
Li0 O60 1.956 . S
Li0 O61 1.970 . S
Li0 O62 1.961 . S
Li1 N25 1.990 . S
Li1 O60 1.970 . S
Li1 O61 1.956 . S
Li1 O63 1.961 . S
Li2 N47 1.990 . S
Li2 O60 1.961 . S
Li2 O62 1.956 . S
Li2 O63 1.970 . S
Li3 N53 1.990 . S
Li3 O61 1.961 . S
Li3 O62 1.970 . S
Li3 O63 1.956 . S
C4 C6 1.348 . S
C4 C7 1.356 . S
C4 O60 1.325 . S
N5 C8 1.314 . S
N5 C9 1.279 . S
C6 C4 1.348 . S
C6 C8 1.353 . S
C6 H64 0.929 . S
C7 C4 1.356 . S
C7 C9 1.358 . S
C7 H65 0.930 . S
C8 N5 1.314 . S
C8 C6 1.353 . S
C8 H66 0.930 . S
C9 N5 1.279 . S
C9 C7 1.358 . S
C9 H67 0.930 . S
C10 C13 1.348 . S
C10 C14 1.356 . S
C10 O61 1.325 . S
C11 N12 1.279 . S
C11 C14 1.358 . S
C11 H68 0.930 . S
N12 C11 1.279 . S
N12 C15 1.314 . S
C13 C10 1.348 . S
C13 C15 1.353 . S
C13 H69 0.929 . S
C14 C10 1.356 . S
C14 C11 1.358 . S
C14 H70 0.930 . S
C15 N12 1.314 . S
C15 C13 1.353 . S
C15 H71 0.930 . S
C16 N17 1.314 . S
C16 C21 1.353 . S
C16 H22 0.930 . S
N17 Li0 1.990 . S
N17 C16 1.314 . S
N17 C19 1.279 . S
C18 C19 1.358 . S
C18 C20 1.356 . S
C18 H72 0.930 . S
C19 N17 1.279 . S
C19 C18 1.358 . S
C19 H23 0.930 . S
C20 C18 1.356 . S
C20 C21 1.348 . S
C21 C16 1.353 . S
C21 C20 1.348 . S
C21 H73 0.929 . S
H22 C16 0.930 . S
H23 C19 0.930 . S
C24 N25 1.314 . S
C24 C26 1.353 . S
C24 H30 0.930 . S
N25 Li1 1.990 . S
N25 C24 1.314 . S
N25 C28 1.279 . S
C26 C24 1.353 . S
C26 C29 1.348 . S
C26 H74 0.929 . S
C27 C28 1.358 . S
C27 C29 1.356 . S
C27 H75 0.930 . S
C28 N25 1.279 . S
C28 C27 1.358 . S
C28 H31 0.930 . S
C29 C26 1.348 . S
C29 C27 1.356 . S
H30 C24 0.930 . S
H31 C28 0.930 . S
C32 C34 1.348 . S
C32 C35 1.356 . S
C32 O62 1.325 . S
N33 C36 1.314 . S
N33 C37 1.279 . S
C34 C32 1.348 . S
C34 C36 1.353 . S
C34 H76 0.929 . S
C35 C32 1.356 . S
C35 C37 1.358 . S
C35 H77 0.930 . S
C36 N33 1.314 . S
C36 C34 1.353 . S
C36 H78 0.930 . S
C37 N33 1.279 . S
C37 C35 1.358 . S
C37 H79 0.930 . S
C38 C39 1.348 . S
C38 C40 1.356 . S
C38 O63 1.325 . S
C39 C38 1.348 . S
C39 C41 1.353 . S
C39 H80 0.929 . S
C40 C38 1.356 . S
C40 C42 1.358 . S
C40 H81 0.930 . S
C41 C39 1.353 . S
C41 N43 1.314 . S
C41 H82 0.930 . S
C42 C40 1.358 . S
C42 N43 1.279 . S
C42 H83 0.930 . S
N43 C41 1.314 . S
N43 C42 1.279 . S
C44 C46 1.353 . S
C44 N47 1.314 . S
C44 H50 0.930 . S
C45 N47 1.279 . S
C45 C48 1.358 . S
C45 H51 0.930 . S
C46 C44 1.353 . S
C46 C49 1.348 . S
C46 H84 0.929 . S
N47 Li2 1.990 . S
N47 C44 1.314 . S
N47 C45 1.279 . S
C48 C45 1.358 . S
C48 C49 1.356 . S
C48 H85 0.930 . S
C49 C46 1.348 . S
C49 C48 1.356 . S
H50 C44 0.930 . S
H51 C45 0.930 . S
C52 N53 1.314 . S
C52 C54 1.353 . S
C52 H58 0.930 . S
N53 Li3 1.990 . S
N53 C52 1.314 . S
N53 C56 1.279 . S
C54 C52 1.353 . S
C54 C57 1.348 . S
C54 H86 0.929 . S
C55 C56 1.358 . S
C55 C57 1.356 . S
C55 H87 0.930 . S
C56 N53 1.279 . S
C56 C55 1.358 . S
C56 H59 0.930 . S
C57 C54 1.348 . S
C57 C55 1.356 . S
H58 C52 0.930 . S
H59 C56 0.930 . S
O60 Li0 1.956 . S
O60 Li1 1.970 . S
O60 Li2 1.961 . S
O60 C4 1.325 . S
O61 Li0 1.970 . S
O61 Li1 1.956 . S
O61 Li3 1.961 . S
O61 C10 1.325 . S
O62 Li0 1.961 . S
O62 Li2 1.956 . S
O62 Li3 1.970 . S
O62 C32 1.325 . S
O63 Li1 1.961 . S
O63 Li2 1.970 . S
O63 Li3 1.956 . S
O63 C38 1.325 . S
H64 C6 0.929 . S
H65 C7 0.930 . S
H66 C8 0.930 . S
H67 C9 0.930 . S
H68 C11 0.930 . S
H69 C13 0.929 . S
H70 C14 0.930 . S
H71 C15 0.930 . S
H72 C18 0.930 . S
H73 C21 0.929 . S
H74 C26 0.929 . S
H75 C27 0.930 . S
H76 C34 0.929 . S
H77 C35 0.930 . S
H78 C36 0.930 . S
H79 C37 0.930 . S
H80 C39 0.929 . S
H81 C40 0.930 . S
H82 C41 0.930 . S
H83 C42 0.930 . S
H84 C46 0.929 . S
H85 C48 0.930 . S
H86 C54 0.929 . S
H87 C55 0.930 . S
Li88 N105 1.990 . S
Li88 O148 1.956 . S
Li88 O149 1.970 . S
Li88 O150 1.961 . S
Li89 N113 1.990 . S
Li89 O148 1.970 . S
Li89 O149 1.956 . S
Li89 O151 1.961 . S
Li90 N135 1.990 . S
Li90 O148 1.961 . S
Li90 O150 1.956 . S
Li90 O151 1.970 . S
Li91 N141 1.990 . S
Li91 O149 1.961 . S
Li91 O150 1.970 . S
Li91 O151 1.956 . S
C92 C94 1.348 . S
C92 C95 1.356 . S
C92 O148 1.325 . S
N93 C96 1.314 . S
N93 C97 1.279 . S
C94 C92 1.348 . S
C94 C96 1.353 . S
C94 H152 0.929 . S
C95 C92 1.356 . S
C95 C97 1.358 . S
C95 H153 0.930 . S
C96 N93 1.314 . S
C96 C94 1.353 . S
C96 H154 0.930 . S
C97 N93 1.279 . S
C97 C95 1.358 . S
C97 H155 0.930 . S
C98 C101 1.348 . S
C98 C102 1.356 . S
C98 O149 1.325 . S
C99 N100 1.279 . S
C99 C102 1.358 . S
C99 H156 0.930 . S
N100 C99 1.279 . S
N100 C103 1.314 . S
C101 C98 1.348 . S
C101 C103 1.353 . S
C101 H157 0.929 . S
C102 C98 1.356 . S
C102 C99 1.358 . S
C102 H158 0.930 . S
C103 N100 1.314 . S
C103 C101 1.353 . S
C103 H159 0.930 . S
C104 N105 1.314 . S
C104 C109 1.353 . S
C104 H110 0.930 . S
N105 Li88 1.990 . S
N105 C104 1.314 . S
N105 C107 1.279 . S
C106 C107 1.358 . S
C106 C108 1.356 . S
C106 H160 0.930 . S
C107 N105 1.279 . S
C107 C106 1.358 . S
C107 H111 0.930 . S
C108 C106 1.356 . S
C108 C109 1.348 . S
C109 C104 1.353 . S
C109 C108 1.348 . S
C109 H161 0.929 . S
H110 C104 0.930 . S
H111 C107 0.930 . S
C112 N113 1.314 . S
C112 C114 1.353 . S
C112 H118 0.930 . S
N113 Li89 1.990 . S
N113 C112 1.314 . S
N113 C116 1.279 . S
C114 C112 1.353 . S
C114 C117 1.348 . S
C114 H162 0.929 . S
C115 C116 1.358 . S
C115 C117 1.356 . S
C115 H163 0.930 . S
C116 N113 1.279 . S
C116 C115 1.358 . S
C116 H119 0.930 . S
C117 C114 1.348 . S
C117 C115 1.356 . S
H118 C112 0.930 . S
H119 C116 0.930 . S
C120 C122 1.348 . S
C120 C123 1.356 . S
C120 O150 1.325 . S
N121 C124 1.314 . S
N121 C125 1.279 . S
C122 C120 1.348 . S
C122 C124 1.353 . S
C122 H164 0.929 . S
C123 C120 1.356 . S
C123 C125 1.358 . S
C123 H165 0.930 . S
C124 N121 1.314 . S
C124 C122 1.353 . S
C124 H166 0.930 . S
C125 N121 1.279 . S
C125 C123 1.358 . S
C125 H167 0.930 . S
C126 C127 1.348 . S
C126 C128 1.356 . S
C126 O151 1.325 . S
C127 C126 1.348 . S
C127 C129 1.353 . S
C127 H168 0.929 . S
C128 C126 1.356 . S
C128 C130 1.358 . S
C128 H169 0.930 . S
C129 C127 1.353 . S
C129 N131 1.314 . S
C129 H170 0.930 . S
C130 C128 1.358 . S
C130 N131 1.279 . S
C130 H171 0.930 . S
N131 C129 1.314 . S
N131 C130 1.279 . S
C132 C134 1.353 . S
C132 N135 1.314 . S
C132 H138 0.930 . S
C133 N135 1.279 . S
C133 C136 1.358 . S
C133 H139 0.930 . S
C134 C132 1.353 . S
C134 C137 1.348 . S
C134 H172 0.929 . S
N135 Li90 1.990 . S
N135 C132 1.314 . S
N135 C133 1.279 . S
C136 C133 1.358 . S
C136 C137 1.356 . S
C136 H173 0.930 . S
C137 C134 1.348 . S
C137 C136 1.356 . S
H138 C132 0.930 . S
H139 C133 0.930 . S
C140 N141 1.314 . S
C140 C142 1.353 . S
C140 H146 0.930 . S
N141 Li91 1.990 . S
N141 C140 1.314 . S
N141 C144 1.279 . S
C142 C140 1.353 . S
C142 C145 1.348 . S
C142 H174 0.929 . S
C143 C144 1.358 . S
C143 C145 1.356 . S
C143 H175 0.930 . S
C144 N141 1.279 . S
C144 C143 1.358 . S
C144 H147 0.930 . S
C145 C142 1.348 . S
C145 C143 1.356 . S
H146 C140 0.930 . S
H147 C144 0.930 . S
O148 Li88 1.956 . S
O148 Li89 1.970 . S
O148 Li90 1.961 . S
O148 C92 1.325 . S
O149 Li88 1.970 . S
O149 Li89 1.956 . S
O149 Li91 1.961 . S
O149 C98 1.325 . S
O150 Li88 1.961 . S
O150 Li90 1.956 . S
O150 Li91 1.970 . S
O150 C120 1.325 . S
O151 Li89 1.961 . S
O151 Li90 1.970 . S
O151 Li91 1.956 . S
O151 C126 1.325 . S
H152 C94 0.929 . S
H153 C95 0.930 . S
H154 C96 0.930 . S
H155 C97 0.930 . S
H156 C99 0.930 . S
H157 C101 0.929 . S
H158 C102 0.930 . S
H159 C103 0.930 . S
H160 C106 0.930 . S
H161 C109 0.929 . S
H162 C114 0.929 . S
H163 C115 0.930 . S
H164 C122 0.929 . S
H165 C123 0.930 . S
H166 C124 0.930 . S
H167 C125 0.930 . S
H168 C127 0.929 . S
H169 C128 0.930 . S
H170 C129 0.930 . S
H171 C130 0.930 . S
H172 C134 0.929 . S
H173 C136 0.930 . S
H174 C142 0.929 . S
H175 C143 0.930 . S
Li176 N193 1.990 . S
Li176 O236 1.956 . S
Li176 O237 1.970 . S
Li176 O238 1.961 . S
Li177 N201 1.990 . S
Li177 O236 1.970 . S
Li177 O237 1.956 . S
Li177 O239 1.961 . S
Li178 N223 1.990 . S
Li178 O236 1.961 . S
Li178 O238 1.956 . S
Li178 O239 1.970 . S
Li179 N229 1.990 . S
Li179 O237 1.961 . S
Li179 O238 1.970 . S
Li179 O239 1.956 . S
C180 C182 1.348 . S
C180 C183 1.356 . S
C180 O236 1.325 . S
N181 C184 1.314 . S
N181 C185 1.279 . S
C182 C180 1.348 . S
C182 C184 1.353 . S
C182 H240 0.929 . S
C183 C180 1.356 . S
C183 C185 1.358 . S
C183 H241 0.930 . S
C184 N181 1.314 . S
C184 C182 1.353 . S
C184 H242 0.930 . S
C185 N181 1.279 . S
C185 C183 1.358 . S
C185 H243 0.930 . S
C186 C189 1.348 . S
C186 C190 1.356 . S
C186 O237 1.325 . S
C187 N188 1.279 . S
C187 C190 1.358 . S
C187 H244 0.930 . S
N188 C187 1.279 . S
N188 C191 1.314 . S
C189 C186 1.348 . S
C189 C191 1.353 . S
C189 H245 0.929 . S
C190 C186 1.356 . S
C190 C187 1.358 . S
C190 H246 0.930 . S
C191 N188 1.314 . S
C191 C189 1.353 . S
C191 H247 0.930 . S
C192 N193 1.314 . S
C192 C197 1.353 . S
C192 H198 0.930 . S
N193 Li176 1.990 . S
N193 C192 1.314 . S
N193 C195 1.279 . S
C194 C195 1.358 . S
C194 C196 1.356 . S
C194 H248 0.930 . S
C195 N193 1.279 . S
C195 C194 1.358 . S
C195 H199 0.930 . S
C196 C194 1.356 . S
C196 C197 1.348 . S
C197 C192 1.353 . S
C197 C196 1.348 . S
C197 H249 0.929 . S
H198 C192 0.930 . S
H199 C195 0.930 . S
C200 N201 1.314 . S
C200 C202 1.353 . S
C200 H206 0.930 . S
N201 Li177 1.990 . S
N201 C200 1.314 . S
N201 C204 1.279 . S
C202 C200 1.353 . S
C202 C205 1.348 . S
C202 H250 0.929 . S
C203 C204 1.358 . S
C203 C205 1.356 . S
C203 H251 0.930 . S
C204 N201 1.279 . S
C204 C203 1.358 . S
C204 H207 0.930 . S
C205 C202 1.348 . S
C205 C203 1.356 . S
H206 C200 0.930 . S
H207 C204 0.930 . S
C208 C210 1.348 . S
C208 C211 1.356 . S
C208 O238 1.325 . S
N209 C212 1.314 . S
N209 C213 1.279 . S
C210 C208 1.348 . S
C210 C212 1.353 . S
C210 H252 0.929 . S
C211 C208 1.356 . S
C211 C213 1.358 . S
C211 H253 0.930 . S
C212 N209 1.314 . S
C212 C210 1.353 . S
C212 H254 0.930 . S
C213 N209 1.279 . S
C213 C211 1.358 . S
C213 H255 0.930 . S
C214 C215 1.348 . S
C214 C216 1.356 . S
C214 O239 1.325 . S
C215 C214 1.348 . S
C215 C217 1.353 . S
C215 H256 0.929 . S
C216 C214 1.356 . S
C216 C218 1.358 . S
C216 H257 0.930 . S
C217 C215 1.353 . S
C217 N219 1.314 . S
C217 H258 0.930 . S
C218 C216 1.358 . S
C218 N219 1.279 . S
C218 H259 0.930 . S
N219 C217 1.314 . S
N219 C218 1.279 . S
C220 C222 1.353 . S
C220 N223 1.314 . S
C220 H226 0.930 . S
C221 N223 1.279 . S
C221 C224 1.358 . S
C221 H227 0.930 . S
C222 C220 1.353 . S
C222 C225 1.348 . S
C222 H260 0.929 . S
N223 Li178 1.990 . S
N223 C220 1.314 . S
N223 C221 1.279 . S
C224 C221 1.358 . S
C224 C225 1.356 . S
C224 H261 0.930 . S
C225 C222 1.348 . S
C225 C224 1.356 . S
H226 C220 0.930 . S
H227 C221 0.930 . S
C228 N229 1.314 . S
C228 C230 1.353 . S
C228 H234 0.930 . S
N229 Li179 1.990 . S
N229 C228 1.314 . S
N229 C232 1.279 . S
C230 C228 1.353 . S
C230 C233 1.348 . S
C230 H262 0.929 . S
C231 C232 1.358 . S
C231 C233 1.356 . S
C231 H263 0.930 . S
C232 N229 1.279 . S
C232 C231 1.358 . S
C232 H235 0.930 . S
C233 C230 1.348 . S
C233 C231 1.356 . S
H234 C228 0.930 . S
H235 C232 0.930 . S
O236 Li176 1.956 . S
O236 Li177 1.970 . S
O236 Li178 1.961 . S
O236 C180 1.325 . S
O237 Li176 1.970 . S
O237 Li177 1.956 . S
O237 Li179 1.961 . S
O237 C186 1.325 . S
O238 Li176 1.961 . S
O238 Li178 1.956 . S
O238 Li179 1.970 . S
O238 C208 1.325 . S
O239 Li177 1.961 . S
O239 Li178 1.970 . S
O239 Li179 1.956 . S
O239 C214 1.325 . S
H240 C182 0.929 . S
H241 C183 0.930 . S
H242 C184 0.930 . S
H243 C185 0.930 . S
H244 C187 0.930 . S
H245 C189 0.929 . S
H246 C190 0.930 . S
H247 C191 0.930 . S
H248 C194 0.930 . S
H249 C197 0.929 . S
H250 C202 0.929 . S
H251 C203 0.930 . S
H252 C210 0.929 . S
H253 C211 0.930 . S
H254 C212 0.930 . S
H255 C213 0.930 . S
H256 C215 0.929 . S
H257 C216 0.930 . S
H258 C217 0.930 . S
H259 C218 0.930 . S
H260 C222 0.929 . S
H261 C224 0.930 . S
H262 C230 0.929 . S
H263 C231 0.930 . S
Li264 N281 1.990 . S
Li264 O324 1.956 . S
Li264 O325 1.970 . S
Li264 O326 1.961 . S
Li265 N289 1.990 . S
Li265 O324 1.970 . S
Li265 O325 1.956 . S
Li265 O327 1.961 . S
Li266 N311 1.990 . S
Li266 O324 1.961 . S
Li266 O326 1.956 . S
Li266 O327 1.970 . S
Li267 N317 1.990 . S
Li267 O325 1.961 . S
Li267 O326 1.970 . S
Li267 O327 1.956 . S
C268 C270 1.348 . S
C268 C271 1.356 . S
C268 O324 1.325 . S
N269 C272 1.314 . S
N269 C273 1.279 . S
C270 C268 1.348 . S
C270 C272 1.353 . S
C270 H328 0.929 . S
C271 C268 1.356 . S
C271 C273 1.358 . S
C271 H329 0.930 . S
C272 N269 1.314 . S
C272 C270 1.353 . S
C272 H330 0.930 . S
C273 N269 1.279 . S
C273 C271 1.358 . S
C273 H331 0.930 . S
C274 C277 1.348 . S
C274 C278 1.356 . S
C274 O325 1.325 . S
C275 N276 1.279 . S
C275 C278 1.358 . S
C275 H332 0.930 . S
N276 C275 1.279 . S
N276 C279 1.314 . S
C277 C274 1.348 . S
C277 C279 1.353 . S
C277 H333 0.929 . S
C278 C274 1.356 . S
C278 C275 1.358 . S
C278 H334 0.930 . S
C279 N276 1.314 . S
C279 C277 1.353 . S
C279 H335 0.930 . S
C280 N281 1.314 . S
C280 C285 1.353 . S
C280 H286 0.930 . S
N281 Li264 1.990 . S
N281 C280 1.314 . S
N281 C283 1.279 . S
C282 C283 1.358 . S
C282 C284 1.356 . S
C282 H336 0.930 . S
C283 N281 1.279 . S
C283 C282 1.358 . S
C283 H287 0.930 . S
C284 C282 1.356 . S
C284 C285 1.348 . S
C285 C280 1.353 . S
C285 C284 1.348 . S
C285 H337 0.929 . S
H286 C280 0.930 . S
H287 C283 0.930 . S
C288 N289 1.314 . S
C288 C290 1.353 . S
C288 H294 0.930 . S
N289 Li265 1.990 . S
N289 C288 1.314 . S
N289 C292 1.279 . S
C290 C288 1.353 . S
C290 C293 1.348 . S
C290 H338 0.929 . S
C291 C292 1.358 . S
C291 C293 1.356 . S
C291 H339 0.930 . S
C292 N289 1.279 . S
C292 C291 1.358 . S
C292 H295 0.930 . S
C293 C290 1.348 . S
C293 C291 1.356 . S
H294 C288 0.930 . S
H295 C292 0.930 . S
C296 C298 1.348 . S
C296 C299 1.356 . S
C296 O326 1.325 . S
N297 C300 1.314 . S
N297 C301 1.279 . S
C298 C296 1.348 . S
C298 C300 1.353 . S
C298 H340 0.929 . S
C299 C296 1.356 . S
C299 C301 1.358 . S
C299 H341 0.930 . S
C300 N297 1.314 . S
C300 C298 1.353 . S
C300 H342 0.930 . S
C301 N297 1.279 . S
C301 C299 1.358 . S
C301 H343 0.930 . S
C302 C303 1.348 . S
C302 C304 1.356 . S
C302 O327 1.325 . S
C303 C302 1.348 . S
C303 C305 1.353 . S
C303 H344 0.929 . S
C304 C302 1.356 . S
C304 C306 1.358 . S
C304 H345 0.930 . S
C305 C303 1.353 . S
C305 N307 1.314 . S
C305 H346 0.930 . S
C306 C304 1.358 . S
C306 N307 1.279 . S
C306 H347 0.930 . S
N307 C305 1.314 . S
N307 C306 1.279 . S
C308 C310 1.353 . S
C308 N311 1.314 . S
C308 H314 0.930 . S
C309 N311 1.279 . S
C309 C312 1.358 . S
C309 H315 0.930 . S
C310 C308 1.353 . S
C310 C313 1.348 . S
C310 H348 0.929 . S
N311 Li266 1.990 . S
N311 C308 1.314 . S
N311 C309 1.279 . S
C312 C309 1.358 . S
C312 C313 1.356 . S
C312 H349 0.930 . S
C313 C310 1.348 . S
C313 C312 1.356 . S
H314 C308 0.930 . S
H315 C309 0.930 . S
C316 N317 1.314 . S
C316 C318 1.353 . S
C316 H322 0.930 . S
N317 Li267 1.990 . S
N317 C316 1.314 . S
N317 C320 1.279 . S
C318 C316 1.353 . S
C318 C321 1.348 . S
C318 H350 0.929 . S
C319 C320 1.358 . S
C319 C321 1.356 . S
C319 H351 0.930 . S
C320 N317 1.279 . S
C320 C319 1.358 . S
C320 H323 0.930 . S
C321 C318 1.348 . S
C321 C319 1.356 . S
H322 C316 0.930 . S
H323 C320 0.930 . S
O324 Li264 1.956 . S
O324 Li265 1.970 . S
O324 Li266 1.961 . S
O324 C268 1.325 . S
O325 Li264 1.970 . S
O325 Li265 1.956 . S
O325 Li267 1.961 . S
O325 C274 1.325 . S
O326 Li264 1.961 . S
O326 Li266 1.956 . S
O326 Li267 1.970 . S
O326 C296 1.325 . S
O327 Li265 1.961 . S
O327 Li266 1.970 . S
O327 Li267 1.956 . S
O327 C302 1.325 . S
H328 C270 0.929 . S
H329 C271 0.930 . S
H330 C272 0.930 . S
H331 C273 0.930 . S
H332 C275 0.930 . S
H333 C277 0.929 . S
H334 C278 0.930 . S
H335 C279 0.930 . S
H336 C282 0.930 . S
H337 C285 0.929 . S
H338 C290 0.929 . S
H339 C291 0.930 . S
H340 C298 0.929 . S
H341 C299 0.930 . S
H342 C300 0.930 . S
H343 C301 0.930 . S
H344 C303 0.929 . S
H345 C304 0.930 . S
H346 C305 0.930 . S
H347 C306 0.930 . S
H348 C310 0.929 . S
H349 C312 0.930 . S
H350 C318 0.929 . S
H351 C319 0.930 . S
Li352 N369 1.990 . S
Li352 O412 1.956 . S
Li352 O413 1.970 . S
Li352 O414 1.961 . S
Li353 N377 1.990 . S
Li353 O412 1.970 . S
Li353 O413 1.956 . S
Li353 O415 1.961 . S
Li354 N399 1.990 . S
Li354 O412 1.961 . S
Li354 O414 1.956 . S
Li354 O415 1.970 . S
Li355 N405 1.990 . S
Li355 O413 1.961 . S
Li355 O414 1.970 . S
Li355 O415 1.956 . S
C356 C358 1.348 . S
C356 C359 1.356 . S
C356 O412 1.325 . S
N357 C360 1.314 . S
N357 C361 1.279 . S
C358 C356 1.348 . S
C358 C360 1.353 . S
C358 H416 0.929 . S
C359 C356 1.356 . S
C359 C361 1.358 . S
C359 H417 0.930 . S
C360 N357 1.314 . S
C360 C358 1.353 . S
C360 H418 0.930 . S
C361 N357 1.279 . S
C361 C359 1.358 . S
C361 H419 0.930 . S
C362 C365 1.348 . S
C362 C366 1.356 . S
C362 O413 1.325 . S
C363 N364 1.279 . S
C363 C366 1.358 . S
C363 H420 0.930 . S
N364 C363 1.279 . S
N364 C367 1.314 . S
C365 C362 1.348 . S
C365 C367 1.353 . S
C365 H421 0.929 . S
C366 C362 1.356 . S
C366 C363 1.358 . S
C366 H422 0.930 . S
C367 N364 1.314 . S
C367 C365 1.353 . S
C367 H423 0.930 . S
C368 N369 1.314 . S
C368 C373 1.353 . S
C368 H374 0.930 . S
N369 Li352 1.990 . S
N369 C368 1.314 . S
N369 C371 1.279 . S
C370 C371 1.358 . S
C370 C372 1.356 . S
C370 H424 0.930 . S
C371 N369 1.279 . S
C371 C370 1.358 . S
C371 H375 0.930 . S
C372 C370 1.356 . S
C372 C373 1.348 . S
C373 C368 1.353 . S
C373 C372 1.348 . S
C373 H425 0.929 . S
H374 C368 0.930 . S
H375 C371 0.930 . S
C376 N377 1.314 . S
C376 C378 1.353 . S
C376 H382 0.930 . S
N377 Li353 1.990 . S
N377 C376 1.314 . S
N377 C380 1.279 . S
C378 C376 1.353 . S
C378 C381 1.348 . S
C378 H426 0.929 . S
C379 C380 1.358 . S
C379 C381 1.356 . S
C379 H427 0.930 . S
C380 N377 1.279 . S
C380 C379 1.358 . S
C380 H383 0.930 . S
C381 C378 1.348 . S
C381 C379 1.356 . S
H382 C376 0.930 . S
H383 C380 0.930 . S
C384 C386 1.348 . S
C384 C387 1.356 . S
C384 O414 1.325 . S
N385 C388 1.314 . S
N385 C389 1.279 . S
C386 C384 1.348 . S
C386 C388 1.353 . S
C386 H428 0.929 . S
C387 C384 1.356 . S
C387 C389 1.358 . S
C387 H429 0.930 . S
C388 N385 1.314 . S
C388 C386 1.353 . S
C388 H430 0.930 . S
C389 N385 1.279 . S
C389 C387 1.358 . S
C389 H431 0.930 . S
C390 C391 1.348 . S
C390 C392 1.356 . S
C390 O415 1.325 . S
C391 C390 1.348 . S
C391 C393 1.353 . S
C391 H432 0.929 . S
C392 C390 1.356 . S
C392 C394 1.358 . S
C392 H433 0.930 . S
C393 C391 1.353 . S
C393 N395 1.314 . S
C393 H434 0.930 . S
C394 C392 1.358 . S
C394 N395 1.279 . S
C394 H435 0.930 . S
N395 C393 1.314 . S
N395 C394 1.279 . S
C396 C398 1.353 . S
C396 N399 1.314 . S
C396 H402 0.930 . S
C397 N399 1.279 . S
C397 C400 1.358 . S
C397 H403 0.930 . S
C398 C396 1.353 . S
C398 C401 1.348 . S
C398 H436 0.929 . S
N399 Li354 1.990 . S
N399 C396 1.314 . S
N399 C397 1.279 . S
C400 C397 1.358 . S
C400 C401 1.356 . S
C400 H437 0.930 . S
C401 C398 1.348 . S
C401 C400 1.356 . S
H402 C396 0.930 . S
H403 C397 0.930 . S
C404 N405 1.314 . S
C404 C406 1.353 . S
C404 H410 0.930 . S
N405 Li355 1.990 . S
N405 C404 1.314 . S
N405 C408 1.279 . S
C406 C404 1.353 . S
C406 C409 1.348 . S
C406 H438 0.929 . S
C407 C408 1.358 . S
C407 C409 1.356 . S
C407 H439 0.930 . S
C408 N405 1.279 . S
C408 C407 1.358 . S
C408 H411 0.930 . S
C409 C406 1.348 . S
C409 C407 1.356 . S
H410 C404 0.930 . S
H411 C408 0.930 . S
O412 Li352 1.956 . S
O412 Li353 1.970 . S
O412 Li354 1.961 . S
O412 C356 1.325 . S
O413 Li352 1.970 . S
O413 Li353 1.956 . S
O413 Li355 1.961 . S
O413 C362 1.325 . S
O414 Li352 1.961 . S
O414 Li354 1.956 . S
O414 Li355 1.970 . S
O414 C384 1.325 . S
O415 Li353 1.961 . S
O415 Li354 1.970 . S
O415 Li355 1.956 . S
O415 C390 1.325 . S
H416 C358 0.929 . S
H417 C359 0.930 . S
H418 C360 0.930 . S
H419 C361 0.930 . S
H420 C363 0.930 . S
H421 C365 0.929 . S
H422 C366 0.930 . S
H423 C367 0.930 . S
H424 C370 0.930 . S
H425 C373 0.929 . S
H426 C378 0.929 . S
H427 C379 0.930 . S
H428 C386 0.929 . S
H429 C387 0.930 . S
H430 C388 0.930 . S
H431 C389 0.930 . S
H432 C391 0.929 . S
H433 C392 0.930 . S
H434 C393 0.930 . S
H435 C394 0.930 . S
H436 C398 0.929 . S
H437 C400 0.930 . S
H438 C406 0.929 . S
H439 C407 0.930 . S
Li440 N457 1.990 . S
Li440 O500 1.956 . S
Li440 O501 1.970 . S
Li440 O502 1.961 . S
Li441 N465 1.990 . S
Li441 O500 1.970 . S
Li441 O501 1.956 . S
Li441 O503 1.961 . S
Li442 N487 1.990 . S
Li442 O500 1.961 . S
Li442 O502 1.956 . S
Li442 O503 1.970 . S
Li443 N493 1.990 . S
Li443 O501 1.961 . S
Li443 O502 1.970 . S
Li443 O503 1.956 . S
C444 C446 1.348 . S
C444 C447 1.356 . S
C444 O500 1.325 . S
N445 C448 1.314 . S
N445 C449 1.279 . S
C446 C444 1.348 . S
C446 C448 1.353 . S
C446 H504 0.929 . S
C447 C444 1.356 . S
C447 C449 1.358 . S
C447 H505 0.930 . S
C448 N445 1.314 . S
C448 C446 1.353 . S
C448 H506 0.930 . S
C449 N445 1.279 . S
C449 C447 1.358 . S
C449 H507 0.930 . S
C450 C453 1.348 . S
C450 C454 1.356 . S
C450 O501 1.325 . S
C451 N452 1.279 . S
C451 C454 1.358 . S
C451 H508 0.930 . S
N452 C451 1.279 . S
N452 C455 1.314 . S
C453 C450 1.348 . S
C453 C455 1.353 . S
C453 H509 0.929 . S
C454 C450 1.356 . S
C454 C451 1.358 . S
C454 H510 0.930 . S
C455 N452 1.314 . S
C455 C453 1.353 . S
C455 H511 0.930 . S
C456 N457 1.314 . S
C456 C461 1.353 . S
C456 H462 0.930 . S
N457 Li440 1.990 . S
N457 C456 1.314 . S
N457 C459 1.279 . S
C458 C459 1.358 . S
C458 C460 1.356 . S
C458 H512 0.930 . S
C459 N457 1.279 . S
C459 C458 1.358 . S
C459 H463 0.930 . S
C460 C458 1.356 . S
C460 C461 1.348 . S
C461 C456 1.353 . S
C461 C460 1.348 . S
C461 H513 0.929 . S
H462 C456 0.930 . S
H463 C459 0.930 . S
C464 N465 1.314 . S
C464 C466 1.353 . S
C464 H470 0.930 . S
N465 Li441 1.990 . S
N465 C464 1.314 . S
N465 C468 1.279 . S
C466 C464 1.353 . S
C466 C469 1.348 . S
C466 H514 0.929 . S
C467 C468 1.358 . S
C467 C469 1.356 . S
C467 H515 0.930 . S
C468 N465 1.279 . S
C468 C467 1.358 . S
C468 H471 0.930 . S
C469 C466 1.348 . S
C469 C467 1.356 . S
H470 C464 0.930 . S
H471 C468 0.930 . S
C472 C474 1.348 . S
C472 C475 1.356 . S
C472 O502 1.325 . S
N473 C476 1.314 . S
N473 C477 1.279 . S
C474 C472 1.348 . S
C474 C476 1.353 . S
C474 H516 0.929 . S
C475 C472 1.356 . S
C475 C477 1.358 . S
C475 H517 0.930 . S
C476 N473 1.314 . S
C476 C474 1.353 . S
C476 H518 0.930 . S
C477 N473 1.279 . S
C477 C475 1.358 . S
C477 H519 0.930 . S
C478 C479 1.348 . S
C478 C480 1.356 . S
C478 O503 1.325 . S
C479 C478 1.348 . S
C479 C481 1.353 . S
C479 H520 0.929 . S
C480 C478 1.356 . S
C480 C482 1.358 . S
C480 H521 0.930 . S
C481 C479 1.353 . S
C481 N483 1.314 . S
C481 H522 0.930 . S
C482 C480 1.358 . S
C482 N483 1.279 . S
C482 H523 0.930 . S
N483 C481 1.314 . S
N483 C482 1.279 . S
C484 C486 1.353 . S
C484 N487 1.314 . S
C484 H490 0.930 . S
C485 N487 1.279 . S
C485 C488 1.358 . S
C485 H491 0.930 . S
C486 C484 1.353 . S
C486 C489 1.348 . S
C486 H524 0.929 . S
N487 Li442 1.990 . S
N487 C484 1.314 . S
N487 C485 1.279 . S
C488 C485 1.358 . S
C488 C489 1.356 . S
C488 H525 0.930 . S
C489 C486 1.348 . S
C489 C488 1.356 . S
H490 C484 0.930 . S
H491 C485 0.930 . S
C492 N493 1.314 . S
C492 C494 1.353 . S
C492 H498 0.930 . S
N493 Li443 1.990 . S
N493 C492 1.314 . S
N493 C496 1.279 . S
C494 C492 1.353 . S
C494 C497 1.348 . S
C494 H526 0.929 . S
C495 C496 1.358 . S
C495 C497 1.356 . S
C495 H527 0.930 . S
C496 N493 1.279 . S
C496 C495 1.358 . S
C496 H499 0.930 . S
C497 C494 1.348 . S
C497 C495 1.356 . S
H498 C492 0.930 . S
H499 C496 0.930 . S
O500 Li440 1.956 . S
O500 Li441 1.970 . S
O500 Li442 1.961 . S
O500 C444 1.325 . S
O501 Li440 1.970 . S
O501 Li441 1.956 . S
O501 Li443 1.961 . S
O501 C450 1.325 . S
O502 Li440 1.961 . S
O502 Li442 1.956 . S
O502 Li443 1.970 . S
O502 C472 1.325 . S
O503 Li441 1.961 . S
O503 Li442 1.970 . S
O503 Li443 1.956 . S
O503 C478 1.325 . S
H504 C446 0.929 . S
H505 C447 0.930 . S
H506 C448 0.930 . S
H507 C449 0.930 . S
H508 C451 0.930 . S
H509 C453 0.929 . S
H510 C454 0.930 . S
H511 C455 0.930 . S
H512 C458 0.930 . S
H513 C461 0.929 . S
H514 C466 0.929 . S
H515 C467 0.930 . S
H516 C474 0.929 . S
H517 C475 0.930 . S
H518 C476 0.930 . S
H519 C477 0.930 . S
H520 C479 0.929 . S
H521 C480 0.930 . S
H522 C481 0.930 . S
H523 C482 0.930 . S
H524 C486 0.929 . S
H525 C488 0.930 . S
H526 C494 0.929 . S
H527 C495 0.930 . S
H528 C546 0.951 . S
H529 C548 0.951 . S
H530 C550 0.950 . S
H531 C551 0.950 . S
H532 C553 0.950 . S
H533 C556 0.950 . S
H534 C557 0.950 . S
H535 C559 0.950 . S
H536 C560 0.950 . S
H537 C561 0.951 . S
H538 C563 0.951 . S
H539 C565 0.950 . S
H540 C566 0.950 . S
H541 C568 0.950 . S
H542 C571 0.950 . S
H543 C572 0.950 . S
H544 C574 0.950 . S
H545 C575 0.950 . S
C546 H528 0.951 . S
C546 C547 1.366 . S
C546 C548 1.388 . S
C547 C546 1.366 . S
C547 C551 1.385 . S
C548 H529 0.951 . S
C548 C546 1.388 . S
C548 C549 1.366 . S
C549 C548 1.366 . S
C549 C550 1.414 . S
C549 C552 1.499 . S
C550 H530 0.950 . S
C550 C549 1.414 . S
C550 C551 1.374 . S
C551 H531 0.950 . S
C551 C547 1.385 . S
C551 C550 1.374 . S
C552 C549 1.499 . S
C552 C553 1.373 . S
C552 C554 1.389 . S
C553 H532 0.950 . S
C553 C552 1.373 . S
C553 C569 1.377 . S
C554 C552 1.389 . S
C554 C555 1.524 . S
C554 C568 1.377 . S
C555 C554 1.524 . S
C555 C556 1.397 . S
C555 C560 1.363 . S
C556 H533 0.950 . S
C556 C555 1.397 . S
C556 C557 1.334 . S
C557 H534 0.950 . S
C557 C556 1.334 . S
C557 C558 1.287 . S
C558 C557 1.287 . S
C558 C559 1.524 . S
C558 H577 0.913 . S
C559 H535 0.950 . S
C559 C558 1.524 . S
C559 C560 1.415 . S
C560 H536 0.950 . S
C560 C555 1.363 . S
C560 C559 1.415 . S
C561 H537 0.951 . S
C561 C562 1.366 . S
C561 C563 1.388 . S
C562 C561 1.366 . S
C562 C566 1.385 . S
C563 H538 0.951 . S
C563 C561 1.388 . S
C563 C564 1.366 . S
C564 C563 1.366 . S
C564 C565 1.414 . S
C564 C567 1.499 . S
C565 H539 0.950 . S
C565 C564 1.414 . S
C565 C566 1.374 . S
C566 H540 0.950 . S
C566 C562 1.385 . S
C566 C565 1.374 . S
C567 C564 1.499 . S
C567 C568 1.373 . S
C567 C569 1.389 . S
C568 H541 0.950 . S
C568 C554 1.377 . S
C568 C567 1.373 . S
C569 C553 1.377 . S
C569 C567 1.389 . S
C569 C570 1.524 . S
C570 C569 1.524 . S
C570 C571 1.397 . S
C570 C575 1.363 . S
C571 H542 0.950 . S
C571 C570 1.397 . S
C571 C572 1.334 . S
C572 H543 0.950 . S
C572 C571 1.334 . S
C572 C573 1.287 . S
C573 C572 1.287 . S
C573 C574 1.524 . S
C573 H576 0.999 . S
C574 H544 0.950 . S
C574 C573 1.524 . S
C574 C575 1.415 . S
C575 H545 0.950 . S
C575 C570 1.363 . S
C575 C574 1.415 . S
H576 C573 0.999 . S
H577 C558 0.913 . S
H578 C596 0.951 . S
H579 C598 0.951 . S
H580 C600 0.950 . S
H581 C601 0.950 . S
H582 C603 0.950 . S
H583 C606 0.950 . S
H584 C607 0.950 . S
H585 C609 0.950 . S
H586 C610 0.950 . S
H587 C611 0.951 . S
H588 C613 0.951 . S
H589 C615 0.950 . S
H590 C616 0.950 . S
H591 C618 0.950 . S
H592 C621 0.950 . S
H593 C622 0.950 . S
H594 C624 0.950 . S
H595 C625 0.950 . S
C596 H578 0.951 . S
C596 C597 1.366 . S
C596 C598 1.388 . S
C597 C596 1.366 . S
C597 C601 1.385 . S
C598 H579 0.951 . S
C598 C596 1.388 . S
C598 C599 1.366 . S
C599 C598 1.366 . S
C599 C600 1.414 . S
C599 C602 1.499 . S
C600 H580 0.950 . S
C600 C599 1.414 . S
C600 C601 1.374 . S
C601 H581 0.950 . S
C601 C597 1.385 . S
C601 C600 1.374 . S
C602 C599 1.499 . S
C602 C603 1.373 . S
C602 C604 1.389 . S
C603 H582 0.950 . S
C603 C602 1.373 . S
C603 C619 1.377 . S
C604 C602 1.389 . S
C604 C605 1.524 . S
C604 C618 1.377 . S
C605 C604 1.524 . S
C605 C606 1.397 . S
C605 C610 1.363 . S
C606 H583 0.950 . S
C606 C605 1.397 . S
C606 C607 1.334 . S
C607 H584 0.950 . S
C607 C606 1.334 . S
C607 C608 1.287 . S
C608 C607 1.287 . S
C608 C609 1.524 . S
C608 H627 0.913 . S
C609 H585 0.950 . S
C609 C608 1.524 . S
C609 C610 1.415 . S
C610 H586 0.950 . S
C610 C605 1.363 . S
C610 C609 1.415 . S
C611 H587 0.951 . S
C611 C612 1.366 . S
C611 C613 1.388 . S
C612 C611 1.366 . S
C612 C616 1.385 . S
C613 H588 0.951 . S
C613 C611 1.388 . S
C613 C614 1.366 . S
C614 C613 1.366 . S
C614 C615 1.414 . S
C614 C617 1.499 . S
C615 H589 0.950 . S
C615 C614 1.414 . S
C615 C616 1.374 . S
C616 H590 0.950 . S
C616 C612 1.385 . S
C616 C615 1.374 . S
C617 C614 1.499 . S
C617 C618 1.373 . S
C617 C619 1.389 . S
C618 H591 0.950 . S
C618 C604 1.377 . S
C618 C617 1.373 . S
C619 C603 1.377 . S
C619 C617 1.389 . S
C619 C620 1.524 . S
C620 C619 1.524 . S
C620 C621 1.397 . S
C620 C625 1.363 . S
C621 H592 0.950 . S
C621 C620 1.397 . S
C621 C622 1.334 . S
C622 H593 0.950 . S
C622 C621 1.334 . S
C622 C623 1.287 . S
C623 C622 1.287 . S
C623 C624 1.524 . S
C623 H626 0.999 . S
C624 H594 0.950 . S
C624 C623 1.524 . S
C624 C625 1.415 . S
C625 H595 0.950 . S
C625 C620 1.363 . S
C625 C624 1.415 . S
H626 C623 0.999 . S
H627 C608 0.913 . S
H628 C646 0.951 . S
H629 C648 0.951 . S
H630 C650 0.950 . S
H631 C651 0.950 . S
H632 C653 0.950 . S
H633 C656 0.950 . S
H634 C657 0.950 . S
H635 C659 0.950 . S
H636 C660 0.950 . S
H637 C661 0.951 . S
H638 C663 0.951 . S
H639 C665 0.950 . S
H640 C666 0.950 . S
H641 C668 0.950 . S
H642 C671 0.950 . S
H643 C672 0.950 . S
H644 C674 0.950 . S
H645 C675 0.950 . S
C646 H628 0.951 . S
C646 C647 1.366 . S
C646 C648 1.388 . S
C647 C646 1.366 . S
C647 C651 1.385 . S
C648 H629 0.951 . S
C648 C646 1.388 . S
C648 C649 1.366 . S
C649 C648 1.366 . S
C649 C650 1.414 . S
C649 C652 1.499 . S
C650 H630 0.950 . S
C650 C649 1.414 . S
C650 C651 1.374 . S
C651 H631 0.950 . S
C651 C647 1.385 . S
C651 C650 1.374 . S
C652 C649 1.499 . S
C652 C653 1.373 . S
C652 C654 1.389 . S
C653 H632 0.950 . S
C653 C652 1.373 . S
C653 C669 1.377 . S
C654 C652 1.389 . S
C654 C655 1.524 . S
C654 C668 1.377 . S
C655 C654 1.524 . S
C655 C656 1.397 . S
C655 C660 1.363 . S
C656 H633 0.950 . S
C656 C655 1.397 . S
C656 C657 1.334 . S
C657 H634 0.950 . S
C657 C656 1.334 . S
C657 C658 1.287 . S
C658 C657 1.287 . S
C658 C659 1.524 . S
C658 H677 0.913 . S
C659 H635 0.950 . S
C659 C658 1.524 . S
C659 C660 1.415 . S
C660 H636 0.950 . S
C660 C655 1.363 . S
C660 C659 1.415 . S
C661 H637 0.951 . S
C661 C662 1.366 . S
C661 C663 1.388 . S
C662 C661 1.366 . S
C662 C666 1.385 . S
C663 H638 0.951 . S
C663 C661 1.388 . S
C663 C664 1.366 . S
C664 C663 1.366 . S
C664 C665 1.414 . S
C664 C667 1.499 . S
C665 H639 0.950 . S
C665 C664 1.414 . S
C665 C666 1.374 . S
C666 H640 0.950 . S
C666 C662 1.385 . S
C666 C665 1.374 . S
C667 C664 1.499 . S
C667 C668 1.373 . S
C667 C669 1.389 . S
C668 H641 0.950 . S
C668 C654 1.377 . S
C668 C667 1.373 . S
C669 C653 1.377 . S
C669 C667 1.389 . S
C669 C670 1.524 . S
C670 C669 1.524 . S
C670 C671 1.397 . S
C670 C675 1.363 . S
C671 H642 0.950 . S
C671 C670 1.397 . S
C671 C672 1.334 . S
C672 H643 0.950 . S
C672 C671 1.334 . S
C672 C673 1.287 . S
C673 C672 1.287 . S
C673 C674 1.524 . S
C673 H676 0.999 . S
C674 H644 0.950 . S
C674 C673 1.524 . S
C674 C675 1.415 . S
C675 H645 0.950 . S
C675 C670 1.363 . S
C675 C674 1.415 . S
H676 C673 0.999 . S
H677 C658 0.913 . S
H678 C696 0.951 . S
H679 C698 0.951 . S
H680 C700 0.950 . S
H681 C701 0.950 . S
H682 C703 0.950 . S
H683 C706 0.950 . S
H684 C707 0.950 . S
H685 C709 0.950 . S
H686 C710 0.950 . S
H687 C711 0.951 . S
H688 C713 0.951 . S
H689 C715 0.950 . S
H690 C716 0.950 . S
H691 C718 0.950 . S
H692 C721 0.950 . S
H693 C722 0.950 . S
H694 C724 0.950 . S
H695 C725 0.950 . S
C696 H678 0.951 . S
C696 C697 1.366 . S
C696 C698 1.388 . S
C697 C696 1.366 . S
C697 C701 1.385 . S
C698 H679 0.951 . S
C698 C696 1.388 . S
C698 C699 1.366 . S
C699 C698 1.366 . S
C699 C700 1.414 . S
C699 C702 1.499 . S
C700 H680 0.950 . S
C700 C699 1.414 . S
C700 C701 1.374 . S
C701 H681 0.950 . S
C701 C697 1.385 . S
C701 C700 1.374 . S
C702 C699 1.499 . S
C702 C703 1.373 . S
C702 C704 1.389 . S
C703 H682 0.950 . S
C703 C702 1.373 . S
C703 C719 1.377 . S
C704 C702 1.389 . S
C704 C705 1.524 . S
C704 C718 1.377 . S
C705 C704 1.524 . S
C705 C706 1.397 . S
C705 C710 1.363 . S
C706 H683 0.950 . S
C706 C705 1.397 . S
C706 C707 1.334 . S
C707 H684 0.950 . S
C707 C706 1.334 . S
C707 C708 1.287 . S
C708 C707 1.287 . S
C708 C709 1.524 . S
C708 H727 0.913 . S
C709 H685 0.950 . S
C709 C708 1.524 . S
C709 C710 1.415 . S
C710 H686 0.950 . S
C710 C705 1.363 . S
C710 C709 1.415 . S
C711 H687 0.951 . S
C711 C712 1.366 . S
C711 C713 1.388 . S
C712 C711 1.366 . S
C712 C716 1.385 . S
C713 H688 0.951 . S
C713 C711 1.388 . S
C713 C714 1.366 . S
C714 C713 1.366 . S
C714 C715 1.414 . S
C714 C717 1.499 . S
C715 H689 0.950 . S
C715 C714 1.414 . S
C715 C716 1.374 . S
C716 H690 0.950 . S
C716 C712 1.385 . S
C716 C715 1.374 . S
C717 C714 1.499 . S
C717 C718 1.373 . S
C717 C719 1.389 . S
C718 H691 0.950 . S
C718 C704 1.377 . S
C718 C717 1.373 . S
C719 C703 1.377 . S
C719 C717 1.389 . S
C719 C720 1.524 . S
C720 C719 1.524 . S
C720 C721 1.397 . S
C720 C725 1.363 . S
C721 H692 0.950 . S
C721 C720 1.397 . S
C721 C722 1.334 . S
C722 H693 0.950 . S
C722 C721 1.334 . S
C722 C723 1.287 . S
C723 C722 1.287 . S
C723 C724 1.524 . S
C723 H726 0.999 . S
C724 H694 0.950 . S
C724 C723 1.524 . S
C724 C725 1.415 . S
C725 H695 0.950 . S
C725 C720 1.363 . S
C725 C724 1.415 . S
H726 C723 0.999 . S
H727 C708 0.913 . S
H728 C746 0.951 . S
H729 C748 0.951 . S
H730 C750 0.950 . S
H731 C751 0.950 . S
H732 C753 0.950 . S
H733 C756 0.950 . S
H734 C757 0.950 . S
H735 C759 0.950 . S
H736 C760 0.950 . S
H737 C761 0.951 . S
H738 C763 0.951 . S
H739 C765 0.950 . S
H740 C766 0.950 . S
H741 C768 0.950 . S
H742 C771 0.950 . S
H743 C772 0.950 . S
H744 C774 0.950 . S
H745 C775 0.950 . S
C746 H728 0.951 . S
C746 C747 1.366 . S
C746 C748 1.388 . S
C747 C746 1.366 . S
C747 C751 1.385 . S
C748 H729 0.951 . S
C748 C746 1.388 . S
C748 C749 1.366 . S
C749 C748 1.366 . S
C749 C750 1.414 . S
C749 C752 1.499 . S
C750 H730 0.950 . S
C750 C749 1.414 . S
C750 C751 1.374 . S
C751 H731 0.950 . S
C751 C747 1.385 . S
C751 C750 1.374 . S
C752 C749 1.499 . S
C752 C753 1.373 . S
C752 C754 1.389 . S
C753 H732 0.950 . S
C753 C752 1.373 . S
C753 C769 1.377 . S
C754 C752 1.389 . S
C754 C755 1.524 . S
C754 C768 1.377 . S
C755 C754 1.524 . S
C755 C756 1.397 . S
C755 C760 1.363 . S
C756 H733 0.950 . S
C756 C755 1.397 . S
C756 C757 1.334 . S
C757 H734 0.950 . S
C757 C756 1.334 . S
C757 C758 1.287 . S
C758 C757 1.287 . S
C758 C759 1.524 . S
C758 H777 0.913 . S
C759 H735 0.950 . S
C759 C758 1.524 . S
C759 C760 1.415 . S
C760 H736 0.950 . S
C760 C755 1.363 . S
C760 C759 1.415 . S
C761 H737 0.951 . S
C761 C762 1.366 . S
C761 C763 1.388 . S
C762 C761 1.366 . S
C762 C766 1.385 . S
C763 H738 0.951 . S
C763 C761 1.388 . S
C763 C764 1.366 . S
C764 C763 1.366 . S
C764 C765 1.414 . S
C764 C767 1.499 . S
C765 H739 0.950 . S
C765 C764 1.414 . S
C765 C766 1.374 . S
C766 H740 0.950 . S
C766 C762 1.385 . S
C766 C765 1.374 . S
C767 C764 1.499 . S
C767 C768 1.373 . S
C767 C769 1.389 . S
C768 H741 0.950 . S
C768 C754 1.377 . S
C768 C767 1.373 . S
C769 C753 1.377 . S
C769 C767 1.389 . S
C769 C770 1.524 . S
C770 C769 1.524 . S
C770 C771 1.397 . S
C770 C775 1.363 . S
C771 H742 0.950 . S
C771 C770 1.397 . S
C771 C772 1.334 . S
C772 H743 0.950 . S
C772 C771 1.334 . S
C772 C773 1.287 . S
C773 C772 1.287 . S
C773 C774 1.524 . S
C773 H776 0.999 . S
C774 H744 0.950 . S
C774 C773 1.524 . S
C774 C775 1.415 . S
C775 H745 0.950 . S
C775 C770 1.363 . S
C775 C774 1.415 . S
H776 C773 0.999 . S
H777 C758 0.913 . S
H778 C796 0.951 . S
H779 C798 0.951 . S
H780 C800 0.950 . S
H781 C801 0.950 . S
H782 C803 0.950 . S
H783 C806 0.950 . S
H784 C807 0.950 . S
H785 C809 0.950 . S
H786 C810 0.950 . S
H787 C811 0.951 . S
H788 C813 0.951 . S
H789 C815 0.950 . S
H790 C816 0.950 . S
H791 C818 0.950 . S
H792 C821 0.950 . S
H793 C822 0.950 . S
H794 C824 0.950 . S
H795 C825 0.950 . S
C796 H778 0.951 . S
C796 C797 1.366 . S
C796 C798 1.388 . S
C797 C796 1.366 . S
C797 C801 1.385 . S
C798 H779 0.951 . S
C798 C796 1.388 . S
C798 C799 1.366 . S
C799 C798 1.366 . S
C799 C800 1.414 . S
C799 C802 1.499 . S
C800 H780 0.950 . S
C800 C799 1.414 . S
C800 C801 1.374 . S
C801 H781 0.950 . S
C801 C797 1.385 . S
C801 C800 1.374 . S
C802 C799 1.499 . S
C802 C803 1.373 . S
C802 C804 1.389 . S
C803 H782 0.950 . S
C803 C802 1.373 . S
C803 C819 1.377 . S
C804 C802 1.389 . S
C804 C805 1.524 . S
C804 C818 1.377 . S
C805 C804 1.524 . S
C805 C806 1.397 . S
C805 C810 1.363 . S
C806 H783 0.950 . S
C806 C805 1.397 . S
C806 C807 1.334 . S
C807 H784 0.950 . S
C807 C806 1.334 . S
C807 C808 1.287 . S
C808 C807 1.287 . S
C808 C809 1.524 . S
C808 H827 0.913 . S
C809 H785 0.950 . S
C809 C808 1.524 . S
C809 C810 1.415 . S
C810 H786 0.950 . S
C810 C805 1.363 . S
C810 C809 1.415 . S
C811 H787 0.951 . S
C811 C812 1.366 . S
C811 C813 1.388 . S
C812 C811 1.366 . S
C812 C816 1.385 . S
C813 H788 0.951 . S
C813 C811 1.388 . S
C813 C814 1.366 . S
C814 C813 1.366 . S
C814 C815 1.414 . S
C814 C817 1.499 . S
C815 H789 0.950 . S
C815 C814 1.414 . S
C815 C816 1.374 . S
C816 H790 0.950 . S
C816 C812 1.385 . S
C816 C815 1.374 . S
C817 C814 1.499 . S
C817 C818 1.373 . S
C817 C819 1.389 . S
C818 H791 0.950 . S
C818 C804 1.377 . S
C818 C817 1.373 . S
C819 C803 1.377 . S
C819 C817 1.389 . S
C819 C820 1.524 . S
C820 C819 1.524 . S
C820 C821 1.397 . S
C820 C825 1.363 . S
C821 H792 0.950 . S
C821 C820 1.397 . S
C821 C822 1.334 . S
C822 H793 0.950 . S
C822 C821 1.334 . S
C822 C823 1.287 . S
C823 C822 1.287 . S
C823 C824 1.524 . S
C823 H826 0.999 . S
C824 H794 0.950 . S
C824 C823 1.524 . S
C824 C825 1.415 . S
C825 H795 0.950 . S
C825 C820 1.363 . S
C825 C824 1.415 . S
H826 C823 0.999 . S
H827 C808 0.913 . S
H828 C846 0.951 . S
H829 C848 0.951 . S
H830 C850 0.950 . S
H831 C851 0.950 . S
H832 C853 0.950 . S
H833 C856 0.950 . S
H834 C857 0.950 . S
H835 C859 0.950 . S
H836 C860 0.950 . S
H837 C861 0.951 . S
H838 C863 0.951 . S
H839 C865 0.950 . S
H840 C866 0.950 . S
H841 C868 0.950 . S
H842 C871 0.950 . S
H843 C872 0.950 . S
H844 C874 0.950 . S
H845 C875 0.950 . S
C846 H828 0.951 . S
C846 C847 1.366 . S
C846 C848 1.388 . S
C847 C846 1.366 . S
C847 C851 1.385 . S
C848 H829 0.951 . S
C848 C846 1.388 . S
C848 C849 1.366 . S
C849 C848 1.366 . S
C849 C850 1.414 . S
C849 C852 1.499 . S
C850 H830 0.950 . S
C850 C849 1.414 . S
C850 C851 1.374 . S
C851 H831 0.950 . S
C851 C847 1.385 . S
C851 C850 1.374 . S
C852 C849 1.499 . S
C852 C853 1.373 . S
C852 C854 1.389 1_565 S
C853 H832 0.950 . S
C853 C852 1.373 . S
C853 C869 1.377 1_556 S
C854 C852 1.389 1_545 S
C854 C855 1.524 . S
C854 C868 1.377 1_556 S
C855 C854 1.524 . S
C855 C856 1.397 . S
C855 C860 1.363 . S
C856 H833 0.950 . S
C856 C855 1.397 . S
C856 C857 1.334 . S
C857 H834 0.950 . S
C857 C856 1.334 . S
C857 C858 1.287 . S
C858 C857 1.287 . S
C858 C859 1.524 . S
C858 H877 0.913 . S
C859 H835 0.950 . S
C859 C858 1.524 . S
C859 C860 1.415 . S
C860 H836 0.950 . S
C860 C855 1.363 . S
C860 C859 1.415 . S
C861 H837 0.951 . S
C861 C862 1.366 . S
C861 C863 1.388 . S
C862 C861 1.366 . S
C862 C866 1.385 . S
C863 H838 0.951 . S
C863 C861 1.388 . S
C863 C864 1.366 . S
C864 C863 1.366 . S
C864 C865 1.414 . S
C864 C867 1.499 . S
C865 H839 0.950 . S
C865 C864 1.414 . S
C865 C866 1.374 . S
C866 H840 0.950 . S
C866 C862 1.385 . S
C866 C865 1.374 . S
C867 C864 1.499 . S
C867 C868 1.373 . S
C867 C869 1.389 1_545 S
C868 H841 0.950 . S
C868 C854 1.377 1_554 S
C868 C867 1.373 . S
C869 C853 1.377 1_554 S
C869 C867 1.389 1_565 S
C869 C870 1.524 . S
C870 C869 1.524 . S
C870 C871 1.397 . S
C870 C875 1.363 . S
C871 H842 0.950 . S
C871 C870 1.397 . S
C871 C872 1.334 . S
C872 H843 0.950 . S
C872 C871 1.334 . S
C872 C873 1.287 . S
C873 C872 1.287 . S
C873 C874 1.524 . S
C873 H876 0.999 . S
C874 H844 0.950 . S
C874 C873 1.524 . S
C874 C875 1.415 . S
C875 H845 0.950 . S
C875 C870 1.363 . S
C875 C874 1.415 . S
H876 C873 0.999 . S
H877 C858 0.913 . S
H878 C896 0.951 . S
H879 C898 0.951 . S
H880 C900 0.950 . S
H881 C901 0.950 . S
H882 C903 0.950 . S
H883 C906 0.950 . S
H884 C907 0.950 . S
H885 C909 0.950 . S
H886 C910 0.950 . S
H887 C911 0.951 . S
H888 C913 0.951 . S
H889 C915 0.950 . S
H890 C916 0.950 . S
H891 C918 0.950 . S
H892 C921 0.950 . S
H893 C922 0.950 . S
H894 C924 0.950 . S
H895 C925 0.950 . S
C896 H878 0.951 . S
C896 C897 1.366 . S
C896 C898 1.388 . S
C897 C896 1.366 . S
C897 C901 1.385 . S
C898 H879 0.951 . S
C898 C896 1.388 . S
C898 C899 1.366 . S
C899 C898 1.366 . S
C899 C900 1.414 . S
C899 C902 1.499 . S
C900 H880 0.950 . S
C900 C899 1.414 . S
C900 C901 1.374 . S
C901 H881 0.950 . S
C901 C897 1.385 . S
C901 C900 1.374 . S
C902 C899 1.499 . S
C902 C903 1.373 . S
C902 C904 1.389 . S
C903 H882 0.950 . S
C903 C902 1.373 . S
C903 C919 1.377 . S
C904 C902 1.389 . S
C904 C905 1.524 . S
C904 C918 1.377 . S
C905 C904 1.524 . S
C905 C906 1.397 . S
C905 C910 1.363 . S
C906 H883 0.950 . S
C906 C905 1.397 . S
C906 C907 1.334 . S
C907 H884 0.950 . S
C907 C906 1.334 . S
C907 C908 1.287 . S
C908 C907 1.287 . S
C908 C909 1.524 . S
C908 H927 0.913 . S
C909 H885 0.950 . S
C909 C908 1.524 . S
C909 C910 1.415 . S
C910 H886 0.950 . S
C910 C905 1.363 . S
C910 C909 1.415 . S
C911 H887 0.951 . S
C911 C912 1.366 . S
C911 C913 1.388 . S
C912 C911 1.366 . S
C912 C916 1.385 . S
C913 H888 0.951 . S
C913 C911 1.388 . S
C913 C914 1.366 . S
C914 C913 1.366 . S
C914 C915 1.414 . S
C914 C917 1.499 . S
C915 H889 0.950 . S
C915 C914 1.414 . S
C915 C916 1.374 . S
C916 H890 0.950 . S
C916 C912 1.385 . S
C916 C915 1.374 . S
C917 C914 1.499 . S
C917 C918 1.373 . S
C917 C919 1.389 . S
C918 H891 0.950 . S
C918 C904 1.377 . S
C918 C917 1.373 . S
C919 C903 1.377 . S
C919 C917 1.389 . S
C919 C920 1.524 . S
C920 C919 1.524 . S
C920 C921 1.397 . S
C920 C925 1.363 . S
C921 H892 0.950 . S
C921 C920 1.397 . S
C921 C922 1.334 . S
C922 H893 0.950 . S
C922 C921 1.334 . S
C922 C923 1.287 . S
C923 C922 1.287 . S
C923 C924 1.524 . S
C923 H926 0.999 . S
C924 H894 0.950 . S
C924 C923 1.524 . S
C924 C925 1.415 . S
C925 H895 0.950 . S
C925 C920 1.363 . S
C925 C924 1.415 . S
H926 C923 0.999 . S
H927 C908 0.913 . S
H928 C946 0.951 . S
H929 C948 0.951 . S
H930 C950 0.950 1_655 S
H931 C951 0.950 . S
H932 C953 0.950 . S
H933 C956 0.950 . S
H934 C957 0.950 . S
H935 C959 0.950 . S
H936 C960 0.950 . S
H937 C961 0.951 . S
H938 C963 0.951 . S
H939 C965 0.950 1_455 S
H940 C966 0.950 . S
H941 C968 0.950 . S
H942 C971 0.950 . S
H943 C972 0.950 . S
H944 C974 0.950 . S
H945 C975 0.950 . S
C946 H928 0.951 . S
C946 C947 1.366 . S
C946 C948 1.388 . S
C947 C946 1.366 . S
C947 C951 1.385 . S
C948 H929 0.951 . S
C948 C946 1.388 . S
C948 C949 1.366 . S
C949 C948 1.366 . S
C949 C950 1.414 . S
C949 C952 1.499 . S
C950 H930 0.950 1_455 S
C950 C949 1.414 . S
C950 C951 1.374 . S
C951 H931 0.950 . S
C951 C947 1.385 . S
C951 C950 1.374 . S
C952 C949 1.499 . S
C952 C953 1.373 1_455 S
C952 C954 1.389 . S
C953 H932 0.950 . S
C953 C952 1.373 1_655 S
C953 C969 1.345 1_556 S
C954 C952 1.389 . S
C954 C955 1.524 . S
C954 C968 1.377 1_556 S
C955 C954 1.524 . S
C955 C956 1.397 . S
C955 C960 1.363 1_556 S
C956 H933 0.950 . S
C956 C955 1.397 . S
C956 C957 1.334 . S
C957 H934 0.950 . S
C957 C956 1.334 . S
C957 C958 1.287 . S
C958 C957 1.287 . S
C958 C959 1.524 1_556 S
C958 H977 0.913 . S
C959 H935 0.950 . S
C959 C958 1.524 1_554 S
C959 C960 1.415 . S
C960 H936 0.950 . S
C960 C955 1.363 1_554 S
C960 C959 1.415 . S
C961 H937 0.951 . S
C961 C962 1.366 . S
C961 C963 1.388 . S
C962 C961 1.366 . S
C962 C966 1.385 . S
C963 H938 0.951 . S
C963 C961 1.388 . S
C963 C964 1.366 . S
C964 C963 1.366 . S
C964 C965 1.414 . S
C964 C967 1.499 . S
C965 H939 0.950 1_655 S
C965 C964 1.414 . S
C965 C966 1.374 . S
C966 H940 0.950 . S
C966 C962 1.385 . S
C966 C965 1.374 . S
C967 C964 1.499 . S
C967 C968 1.373 1_655 S
C967 C969 1.418 . S
C968 H941 0.950 . S
C968 C954 1.377 1_554 S
C968 C967 1.373 1_455 S
C969 C953 1.345 1_554 S
C969 C967 1.418 . S
C969 C970 1.526 . S
C970 C969 1.526 . S
C970 C971 1.397 . S
C970 C975 1.363 1_554 S
C971 H942 0.950 . S
C971 C970 1.397 . S
C971 C972 1.334 . S
C972 H943 0.950 . S
C972 C971 1.334 . S
C972 C973 1.287 . S
C973 C972 1.287 . S
C973 C974 1.524 1_554 S
C973 H976 0.999 . S
C974 H944 0.950 . S
C974 C973 1.524 1_556 S
C974 C975 1.415 . S
C975 H945 0.950 . S
C975 C970 1.363 1_556 S
C975 C974 1.415 . S
H976 C973 0.999 . S
H977 C958 0.913 . S
H978 C996 0.951 . S
H979 C998 0.951 1_565 S
H980 C1000 0.950 . S
H981 C1001 0.950 . S
H982 C1003 0.950 . S
H983 C1006 0.950 . S
H984 C1007 0.945 1_545 S
H985 C1009 0.950 . S
H986 C1010 0.950 . S
H987 C1011 0.951 . S
H988 C1013 0.951 1_545 S
H989 C1015 0.950 . S
H990 C1016 0.950 . S
H991 C1018 0.950 . S
H992 C1021 0.950 . S
H993 C1022 0.945 1_565 S
H994 C1024 0.950 . S
H995 C1025 0.950 . S
C996 H978 0.951 . S
C996 C997 1.366 . S
C996 C998 1.388 . S
C997 C996 1.366 . S
C997 C1001 1.385 . S
C998 H979 0.951 1_545 S
C998 C996 1.388 . S
C998 C999 1.366 . S
C999 C998 1.366 . S
C999 C1000 1.414 . S
C999 C1002 1.499 . S
C1000 H980 0.950 . S
C1000 C999 1.414 . S
C1000 C1001 1.374 . S
C1001 H981 0.950 . S
C1001 C997 1.385 . S
C1001 C1000 1.374 . S
C1002 C999 1.499 . S
C1002 C1003 1.373 . S
C1002 C1004 1.389 1_545 S
C1003 H982 0.950 . S
C1003 C1002 1.373 . S
C1003 C1019 1.377 . S
C1004 C1002 1.389 1_565 S
C1004 C1005 1.524 . S
C1004 C1018 1.377 . S
C1005 C1004 1.524 . S
C1005 C1006 1.397 1_565 S
C1005 C1010 1.363 . S
C1006 H983 0.950 . S
C1006 C1005 1.397 1_545 S
C1006 C1007 1.335 1_545 S
C1007 H984 0.945 1_565 S
C1007 C1006 1.335 1_565 S
C1007 C1008 1.291 . S
C1008 C1007 1.291 . S
C1008 C1009 1.524 . S
C1008 H1027 0.913 . S
C1009 H985 0.950 . S
C1009 C1008 1.524 . S
C1009 C1010 1.415 . S
C1010 H986 0.950 . S
C1010 C1005 1.363 . S
C1010 C1009 1.415 . S
C1011 H987 0.951 . S
C1011 C1012 1.366 . S
C1011 C1013 1.388 . S
C1012 C1011 1.366 . S
C1012 C1016 1.385 . S
C1013 H988 0.951 1_565 S
C1013 C1011 1.388 . S
C1013 C1014 1.366 . S
C1014 C1013 1.366 . S
C1014 C1015 1.414 . S
C1014 C1017 1.499 . S
C1015 H989 0.950 . S
C1015 C1014 1.414 . S
C1015 C1016 1.374 . S
C1016 H990 0.950 . S
C1016 C1012 1.385 . S
C1016 C1015 1.374 . S
C1017 C1014 1.499 . S
C1017 C1018 1.373 . S
C1017 C1019 1.389 1_565 S
C1018 H991 0.950 . S
C1018 C1004 1.377 . S
C1018 C1017 1.373 . S
C1019 C1003 1.377 . S
C1019 C1017 1.389 1_545 S
C1019 C1020 1.524 . S
C1020 C1019 1.524 . S
C1020 C1021 1.397 1_545 S
C1020 C1025 1.363 . S
C1021 H992 0.950 . S
C1021 C1020 1.397 1_565 S
C1021 C1022 1.335 1_565 S
C1022 H993 0.945 1_545 S
C1022 C1021 1.335 1_545 S
C1022 C1023 1.291 . S
C1023 C1022 1.291 . S
C1023 C1024 1.524 . S
C1023 H1026 0.999 . S
C1024 H994 0.950 . S
C1024 C1023 1.524 . S
C1024 C1025 1.415 . S
C1025 H995 0.950 . S
C1025 C1020 1.363 . S
C1025 C1024 1.415 . S
H1026 C1023 0.999 . S
H1027 C1008 0.913 . S
H1028 C1046 0.951 . S
H1029 C1048 0.951 . S
H1030 C1050 0.950 . S
H1031 C1051 0.950 . S
H1032 C1053 0.950 . S
H1033 C1056 0.950 . S
H1034 C1057 0.950 . S
H1035 C1059 0.950 . S
H1036 C1060 0.950 . S
H1037 C1061 0.951 . S
H1038 C1063 0.951 . S
H1039 C1065 0.950 . S
H1040 C1066 0.950 . S
H1041 C1068 0.950 . S
H1042 C1071 0.950 . S
H1043 C1072 0.950 . S
H1044 C1074 0.950 . S
H1045 C1075 0.950 . S
C1046 H1028 0.951 . S
C1046 C1047 1.366 . S
C1046 C1048 1.388 . S
C1047 C1046 1.366 . S
C1047 C1051 1.385 . S
C1048 H1029 0.951 . S
C1048 C1046 1.388 . S
C1048 C1049 1.366 . S
C1049 C1048 1.366 . S
C1049 C1050 1.414 . S
C1049 C1052 1.499 . S
C1050 H1030 0.950 . S
C1050 C1049 1.414 . S
C1050 C1051 1.374 . S
C1051 H1031 0.950 . S
C1051 C1047 1.385 . S
C1051 C1050 1.374 . S
C1052 C1049 1.499 . S
C1052 C1053 1.373 . S
C1052 C1054 1.389 . S
C1053 H1032 0.950 . S
C1053 C1052 1.373 . S
C1053 C1069 1.377 1_556 S
C1054 C1052 1.389 . S
C1054 C1055 1.524 . S
C1054 C1068 1.377 1_556 S
C1055 C1054 1.524 . S
C1055 C1056 1.397 . S
C1055 C1060 1.363 . S
C1056 H1033 0.950 . S
C1056 C1055 1.397 . S
C1056 C1057 1.334 . S
C1057 H1034 0.950 . S
C1057 C1056 1.334 . S
C1057 C1058 1.287 . S
C1058 C1057 1.287 . S
C1058 C1059 1.524 . S
C1058 H1077 0.913 . S
C1059 H1035 0.950 . S
C1059 C1058 1.524 . S
C1059 C1060 1.415 . S
C1060 H1036 0.950 . S
C1060 C1055 1.363 . S
C1060 C1059 1.415 . S
C1061 H1037 0.951 . S
C1061 C1062 1.366 . S
C1061 C1063 1.388 . S
C1062 C1061 1.366 . S
C1062 C1066 1.385 . S
C1063 H1038 0.951 . S
C1063 C1061 1.388 . S
C1063 C1064 1.366 . S
C1064 C1063 1.366 . S
C1064 C1065 1.414 . S
C1064 C1067 1.499 . S
C1065 H1039 0.950 . S
C1065 C1064 1.414 . S
C1065 C1066 1.374 . S
C1066 H1040 0.950 . S
C1066 C1062 1.385 . S
C1066 C1065 1.374 . S
C1067 C1064 1.499 . S
C1067 C1068 1.373 . S
C1067 C1069 1.389 . S
C1068 H1041 0.950 . S
C1068 C1054 1.377 1_554 S
C1068 C1067 1.373 . S
C1069 C1053 1.377 1_554 S
C1069 C1067 1.389 . S
C1069 C1070 1.524 . S
C1070 C1069 1.524 . S
C1070 C1071 1.397 . S
C1070 C1075 1.363 . S
C1071 H1042 0.950 . S
C1071 C1070 1.397 . S
C1071 C1072 1.334 . S
C1072 H1043 0.950 . S
C1072 C1071 1.334 . S
C1072 C1073 1.287 . S
C1073 C1072 1.287 . S
C1073 C1074 1.524 . S
C1073 H1076 0.999 . S
C1074 H1044 0.950 . S
C1074 C1073 1.524 . S
C1074 C1075 1.415 . S
C1075 H1045 0.950 . S
C1075 C1070 1.363 . S
C1075 C1074 1.415 . S
H1076 C1073 0.999 . S
H1077 C1058 0.913 . S
H1078 C1096 0.951 . S
H1079 C1098 0.951 . S
H1080 C1100 0.950 . S
H1081 C1101 0.950 . S
H1082 C1103 0.950 . S
H1083 C1106 0.950 . S
H1084 C1107 0.950 . S
H1085 C1109 0.950 . S
H1086 C1110 0.950 . S
H1087 C1111 0.951 . S
H1088 C1113 0.951 . S
H1089 C1115 0.950 . S
H1090 C1116 0.950 . S
H1091 C1118 0.950 . S
H1092 C1121 0.950 . S
H1093 C1122 0.950 . S
H1094 C1124 0.950 . S
H1095 C1125 0.950 . S
C1096 H1078 0.951 . S
C1096 C1097 1.366 . S
C1096 C1098 1.388 . S
C1097 C1096 1.366 . S
C1097 C1101 1.385 . S
C1098 H1079 0.951 . S
C1098 C1096 1.388 . S
C1098 C1099 1.366 . S
C1099 C1098 1.366 . S
C1099 C1100 1.414 . S
C1099 C1102 1.499 . S
C1100 H1080 0.950 . S
C1100 C1099 1.414 . S
C1100 C1101 1.374 . S
C1101 H1081 0.950 . S
C1101 C1097 1.385 . S
C1101 C1100 1.374 . S
C1102 C1099 1.499 . S
C1102 C1103 1.373 1_455 S
C1102 C1104 1.389 . S
C1103 H1082 0.950 . S
C1103 C1102 1.373 1_655 S
C1103 C1119 1.377 . S
C1104 C1102 1.389 . S
C1104 C1105 1.524 . S
C1104 C1118 1.377 . S
C1105 C1104 1.524 . S
C1105 C1106 1.397 . S
C1105 C1110 1.363 . S
C1106 H1083 0.950 . S
C1106 C1105 1.397 . S
C1106 C1107 1.334 . S
C1107 H1084 0.950 . S
C1107 C1106 1.334 . S
C1107 C1108 1.287 . S
C1108 C1107 1.287 . S
C1108 C1109 1.524 . S
C1108 H1127 0.913 . S
C1109 H1085 0.950 . S
C1109 C1108 1.524 . S
C1109 C1110 1.415 . S
C1110 H1086 0.950 . S
C1110 C1105 1.363 . S
C1110 C1109 1.415 . S
C1111 H1087 0.951 . S
C1111 C1112 1.366 . S
C1111 C1113 1.388 . S
C1112 C1111 1.366 . S
C1112 C1116 1.385 . S
C1113 H1088 0.951 . S
C1113 C1111 1.388 . S
C1113 C1114 1.366 . S
C1114 C1113 1.366 . S
C1114 C1115 1.414 . S
C1114 C1117 1.499 . S
C1115 H1089 0.950 . S
C1115 C1114 1.414 . S
C1115 C1116 1.374 . S
C1116 H1090 0.950 . S
C1116 C1112 1.385 . S
C1116 C1115 1.374 . S
C1117 C1114 1.499 . S
C1117 C1118 1.373 1_655 S
C1117 C1119 1.389 . S
C1118 H1091 0.950 . S
C1118 C1104 1.377 . S
C1118 C1117 1.373 1_455 S
C1119 C1103 1.377 . S
C1119 C1117 1.389 . S
C1119 C1120 1.524 . S
C1120 C1119 1.524 . S
C1120 C1121 1.397 . S
C1120 C1125 1.363 . S
C1121 H1092 0.950 . S
C1121 C1120 1.397 . S
C1121 C1122 1.334 . S
C1122 H1093 0.950 . S
C1122 C1121 1.334 . S
C1122 C1123 1.287 . S
C1123 C1122 1.287 . S
C1123 C1124 1.524 . S
C1123 H1126 0.999 . S
C1124 H1094 0.950 . S
C1124 C1123 1.524 . S
C1124 C1125 1.415 . S
C1125 H1095 0.950 . S
C1125 C1120 1.363 . S
C1125 C1124 1.415 . S
H1126 C1123 0.999 . S
H1127 C1108 0.913 . S
C547 C20 0.637 . S
C562 C381 0.636 . S
C597 C137 0.639 . S
C612 C469 0.640 . S
C647 C29 0.637 . S
C662 C233 0.634 . S
C697 C313 0.638 . S
C712 C117 0.635 . S
C747 C401 0.638 . S
C762 C196 0.640 . S
C797 C321 0.636 . S
C812 C489 0.635 . S
C847 C293 1.203 . S
C862 C49 1.203 . S
C897 C372 1.213 . S
C912 C145 1.213 . S
C947 C460 1.213 . S
C962 C225 1.213 . S
C997 C57 1.203 . S
C1012 C284 1.203 . S
C1047 C108 1.213 . S
C1062 C409 1.213 . S
C1097 C497 1.213 . S
C1112 C205 1.213 . S
