# Generated by pormake.
# Topology atn, (4)-cn, num edge types: 1
# Building blocks:
#     Node 0, Type 0, BuildingBlock: QUQFOY_clean_sbu_3, # of connection points: 4
#     Node 1, Type 0, BuildingBlock: QUQFOY_clean_sbu_3, # of connection points: 4
#     Node 2, Type 0, BuildingBlock: QUQFOY_clean_sbu_3, # of connection points: 4
#     Node 3, Type 0, BuildingBlock: QUQFOY_clean_sbu_3, # of connection points: 4
#     Node 4, Type 0, BuildingBlock: QUQFOY_clean_sbu_3, # of connection points: 4
#     Node 5, Type 0, BuildingBlock: QUQFOY_clean_sbu_3, # of connection points: 4
#     Node 6, Type 0, BuildingBlock: QUQFOY_clean_sbu_3, # of connection points: 4
#     Node 7, Type 0, BuildingBlock: QUQFOY_clean_sbu_3, # of connection points: 4
#     Node 8, Type 0, BuildingBlock: QUQFOY_clean_sbu_3, # of connection points: 4
#     Node 9, Type 0, BuildingBlock: QUQFOY_clean_sbu_3, # of connection points: 4
#     Node 10, Type 0, BuildingBlock: QUQFOY_clean_sbu_3, # of connection points: 4
#     Node 11, Type 0, BuildingBlock: QUQFOY_clean_sbu_3, # of connection points: 4
#     Node 12, Type 0, BuildingBlock: QUQFOY_clean_sbu_3, # of connection points: 4
#     Node 13, Type 0, BuildingBlock: QUQFOY_clean_sbu_3, # of connection points: 4
#     Node 14, Type 0, BuildingBlock: QUQFOY_clean_sbu_3, # of connection points: 4
#     Node 15, Type 0, BuildingBlock: QUQFOY_clean_sbu_3, # of connection points: 4
#     Edge 16, Type (0, 0), BuildingBlock: XUDNAN_clean_linker_2, # of connection points: 2
#     Edge 17, Type (0, 0), BuildingBlock: XUDNAN_clean_linker_2, # of connection points: 2
#     Edge 18, Type (0, 0), BuildingBlock: XUDNAN_clean_linker_2, # of connection points: 2
#     Edge 19, Type (0, 0), BuildingBlock: XUDNAN_clean_linker_2, # of connection points: 2
#     Edge 20, Type (0, 0), BuildingBlock: XUDNAN_clean_linker_2, # of connection points: 2
#     Edge 21, Type (0, 0), BuildingBlock: XUDNAN_clean_linker_2, # of connection points: 2
#     Edge 22, Type (0, 0), BuildingBlock: XUDNAN_clean_linker_2, # of connection points: 2
#     Edge 23, Type (0, 0), BuildingBlock: XUDNAN_clean_linker_2, # of connection points: 2
#     Edge 24, Type (0, 0), BuildingBlock: XUDNAN_clean_linker_2, # of connection points: 2
#     Edge 25, Type (0, 0), BuildingBlock: XUDNAN_clean_linker_2, # of connection points: 2
#     Edge 26, Type (0, 0), BuildingBlock: XUDNAN_clean_linker_2, # of connection points: 2
#     Edge 27, Type (0, 0), BuildingBlock: XUDNAN_clean_linker_2, # of connection points: 2
#     Edge 28, Type (0, 0), BuildingBlock: XUDNAN_clean_linker_2, # of connection points: 2
#     Edge 29, Type (0, 0), BuildingBlock: XUDNAN_clean_linker_2, # of connection points: 2
#     Edge 30, Type (0, 0), BuildingBlock: XUDNAN_clean_linker_2, # of connection points: 2
#     Edge 31, Type (0, 0), BuildingBlock: XUDNAN_clean_linker_2, # of connection points: 2
#     Edge 32, Type (0, 0), BuildingBlock: XUDNAN_clean_linker_2, # of connection points: 2
#     Edge 33, Type (0, 0), BuildingBlock: XUDNAN_clean_linker_2, # of connection points: 2
#     Edge 34, Type (0, 0), BuildingBlock: XUDNAN_clean_linker_2, # of connection points: 2
#     Edge 35, Type (0, 0), BuildingBlock: XUDNAN_clean_linker_2, # of connection points: 2
#     Edge 36, Type (0, 0), BuildingBlock: XUDNAN_clean_linker_2, # of connection points: 2
#     Edge 37, Type (0, 0), BuildingBlock: XUDNAN_clean_linker_2, # of connection points: 2
#     Edge 38, Type (0, 0), BuildingBlock: XUDNAN_clean_linker_2, # of connection points: 2
#     Edge 39, Type (0, 0), BuildingBlock: XUDNAN_clean_linker_2, # of connection points: 2
#     Edge 40, Type (0, 0), BuildingBlock: XUDNAN_clean_linker_2, # of connection points: 2
#     Edge 41, Type (0, 0), BuildingBlock: XUDNAN_clean_linker_2, # of connection points: 2
#     Edge 42, Type (0, 0), BuildingBlock: XUDNAN_clean_linker_2, # of connection points: 2
#     Edge 43, Type (0, 0), BuildingBlock: XUDNAN_clean_linker_2, # of connection points: 2
#     Edge 44, Type (0, 0), BuildingBlock: XUDNAN_clean_linker_2, # of connection points: 2
#     Edge 45, Type (0, 0), BuildingBlock: XUDNAN_clean_linker_2, # of connection points: 2
#     Edge 46, Type (0, 0), BuildingBlock: XUDNAN_clean_linker_2, # of connection points: 2
#     Edge 47, Type (0, 0), BuildingBlock: XUDNAN_clean_linker_2, # of connection points: 2
# Relax obj value: 0.028
# Max RMSD: 0.057
# Mean RMSD: 0.057
data_MOF--net-atn--node1-QUQFOY_clean_sbu_3--edge1-XUDNAN_clean_linker_2
_symmetry_space_group_name_H-M    P1
_symmetry_Int_Tables_number       1
_symmetry_cell_setting            triclinic
loop_
_symmetry_equiv_pos_as_xyz
'x, y, z'
_cell_length_a     62.209938
_cell_length_b     28.368772
_cell_length_c     1.2976065
_cell_angle_alpha  90.195462
_cell_angle_beta   89.909356
_cell_angle_gamma 62.484648
loop_
_atom_site_label
_atom_site_type_symbol
_atom_site_fract_x
_atom_site_fract_y
_atom_site_fract_z
_atom_type_partial_charge
C0 C -0.02013 0.86245 18.74856 0.0
O1 O -0.0207 0.82255 19.16333 0.0
Cd2 Cd -0.01214 0.79902 20.9424 0.0
O3 O -0.01588 0.89479 19.28851 0.0
Cd4 Cd -0.00859 0.90755 21.12065 0.0
C5 C 0.04414 0.79357 21.13681 0.0
O6 O -0.03256 0.8729 0.05112 0.0
O7 O -0.00882 0.88731 1.07401 0.0
O8 O -0.03621 1.00128 20.99456 0.0
C9 C -0.02602 0.87557 0.96516 0.0
O10 O 0.0312 0.76949 21.13429 0.0
C11 C -0.02107 1.01714 21.27243 0.0
O12 O 0.03438 0.84405 21.09097 0.0
O13 O 0.00042 0.98168 21.45261 0.0
C14 C 0.54657 0.4256 18.4957 0.0
O15 O 0.56709 0.40382 18.93673 0.0
Cd16 Cd 0.57407 0.40903 20.74109 0.0
O17 O 0.52724 0.45163 19.01749 0.0
Cd18 Cd 0.51576 0.47367 20.8546 0.0
C19 C 0.54651 0.54491 21.11373 0.0
O20 O 0.54884 0.38553 -0.22658 0.0
O21 O 0.52796 0.45076 0.80556 0.0
O22 O 0.48244 0.45241 20.70324 0.0
C23 C 0.54365 0.40267 0.69096 0.0
O24 O 0.5656 0.5003 21.09912 0.0
C25 C 0.46608 0.49781 20.98364 0.0
O26 O 0.52571 0.54755 20.97516 0.0
O27 O 0.47267 0.53326 21.16382 0.0
C28 C 0.49373 1.57644 18.94698 0.0
O29 O 0.49267 1.6172 19.40189 0.0
Cd30 Cd 0.48417 1.63862 21.19527 0.0
O31 O 0.49062 1.54144 19.44694 0.0
Cd32 Cd 0.4826 1.52567 21.25535 0.0
C33 C 0.429 1.63867 21.40881 0.0
O34 O 0.51135 1.55382 0.24149 0.0
O35 O 0.48875 1.53416 1.22939 0.0
O36 O 0.51018 1.43093 21.18993 0.0
C37 C 0.50458 1.55025 1.14698 0.0
O38 O 0.44134 1.66411 21.4434 0.0
C39 C 0.49408 1.41646 21.38223 0.0
O40 O 0.43935 1.58844 21.28174 0.0
O41 O 0.47241 1.4529 21.47575 0.0
C42 C -0.08258 2.04248 19.85162 0.0
O43 O -0.1025 2.06035 20.34213 0.0
Cd44 Cd -0.10133 2.02964 0.22625 0.0
O45 O -0.06278 2.01105 20.28523 0.0
Cd46 Cd -0.04408 1.96325 0.08985 0.0
C47 C -0.07618 1.8944 -0.06278 0.0
O48 O -0.07041 2.03827 1.19269 0.0
O49 O -0.04712 1.96366 1.9401 0.0
O50 O -0.01005 1.98183 -0.09342 0.0
C51 C -0.06207 2.0125 2.0188 0.0
O52 O -0.09497 1.93837 0.10545 0.0
C53 C 0.00621 1.93406 0.00442 0.0
O54 O -0.05537 1.89233 -0.14125 0.0
O55 O -0.00091 1.89895 0.10627 0.0
C56 C -0.18423 1.57926 0.67677 0.0
O57 O -0.19623 1.61099 -0.03729 0.0
Cd58 Cd -0.18307 1.61557 20.15322 0.0
O59 O -0.16273 1.54267 0.51388 0.0
Cd60 Cd -0.13625 1.51048 20.95253 0.0
C61 C -0.13161 1.62454 20.85084 0.0
O62 O -0.16513 1.52528 19.58637 0.0
O63 O -0.12811 1.49832 19.09839 0.0
O64 O -0.12688 1.42127 21.47421 0.0
C65 C -0.14982 1.51105 18.8577 0.0
O66 O -0.15277 1.6461 20.46076 0.0
C67 C -0.10085 1.39975 -0.31935 0.0
O68 O -0.1216 1.57608 21.1271 0.0
O69 O -0.09638 1.43825 21.37817 0.0
C70 C 0.26865 0.36281 0.97172 0.0
O71 O 0.25923 0.34794 0.25525 0.0
Cd72 Cd 0.24748 0.39061 20.42644 0.0
O73 O 0.27582 0.39759 0.80505 0.0
Cd74 Cd 0.27579 0.45541 21.21307 0.0
C75 C 0.21469 0.52354 21.06285 0.0
O76 O 0.28367 0.39082 19.84248 0.0
O77 O 0.27659 0.4694 19.36137 0.0
O78 O 0.3203 0.42958 -0.19614 0.0
C79 C 0.28201 0.42197 19.11495 0.0
O80 O 0.21547 0.48131 20.68189 0.0
C81 C 0.31643 0.47756 -0.13579 0.0
O82 O 0.23393 0.52473 21.36089 0.0
O83 O 0.29473 0.51333 -0.25839 0.0
C84 C 0.63734 0.87056 3.60658 0.0
O85 O 0.65433 0.83098 3.15758 0.0
Cd86 Cd 0.65648 0.80985 1.35604 0.0
O87 O 0.61955 0.90487 3.09465 0.0
Cd88 Cd 0.60645 0.92189 1.27188 0.0
C89 C 0.60171 0.80805 1.03684 0.0
O90 O 0.64619 0.88977 0.45001 0.0
O91 O 0.61231 0.91346 21.31246 0.0
O92 O 0.59534 1.0157 1.37348 0.0
C93 C 0.63486 0.89779 21.40381 0.0
O94 O 0.6248 0.78403 1.03774 0.0
C95 C 0.5732 1.03194 1.14645 0.0
O96 O 0.5901 0.85819 1.17411 0.0
O97 O 0.56616 0.9968 1.02101 0.0
C98 C 0.20917 2.01085 3.39568 0.0
O99 O 0.21988 2.03427 2.96056 0.0
Cd100 Cd 0.23012 2.02776 1.16426 0.0
O101 O 0.20217 1.98239 2.87306 0.0
Cd102 Cd 0.20159 1.9566 1.05461 0.0
C103 C 0.26279 1.89154 0.87277 0.0
O104 O 0.19476 2.04021 0.25812 0.0
O105 O 0.19922 1.97904 21.09524 0.0
O106 O 0.15992 1.97427 1.22757 0.0
C107 C 0.19397 2.02756 21.2054 0.0
O108 O 0.26186 1.93735 0.87546 0.0
C109 C 0.16344 1.92801 0.97362 0.0
O110 O 0.24363 1.88639 0.98663 0.0
O111 O 0.18517 1.89365 0.78931 0.0
C112 C 0.21291 2.06794 10.81004 0.0
O113 O 0.21542 2.03582 11.53399 0.0
Cd114 Cd 0.23239 2.04254 13.14756 0.0
O115 O 0.21668 2.1079 10.96742 0.0
Cd116 Cd 0.22619 2.15594 12.34694 0.0
C117 C 0.28232 2.05397 12.21733 0.0
O118 O 0.20819 2.13105 13.75083 0.0
O119 O 0.23034 2.168 14.19748 0.0
O120 O 0.19047 2.23301 11.79215 0.0
C121 C 0.21639 2.14875 14.4643 0.0
O122 O 0.27287 2.02713 12.62724 0.0
C123 C 0.20018 2.26352 11.7111 0.0
O124 O 0.26955 2.1031 12.01467 0.0
O125 O 0.22275 2.24348 11.898 0.0
C126 C -0.21434 1.63488 8.0638 0.0
O127 O -0.19377 1.61411 8.50053 0.0
Cd128 Cd -0.18698 1.62742 10.26904 0.0
O129 O -0.23351 1.66406 8.57206 0.0
Cd130 Cd -0.24537 1.69591 10.36335 0.0
C131 C -0.21252 1.76391 10.32972 0.0
O132 O -0.21687 1.61461 11.20582 0.0
O133 O -0.23732 1.68144 12.20713 0.0
O134 O -0.2804 1.68044 10.20524 0.0
C135 C -0.22192 1.63294 12.11387 0.0
O136 O -0.19363 1.71906 10.37452 0.0
C137 C -0.29592 1.72746 10.44123 0.0
O138 O -0.23352 1.76676 10.27614 0.0
O139 O -0.28797 1.76064 10.61984 0.0
C140 C 0.24671 0.33157 8.32976 0.0
O141 O 0.24542 0.37321 8.75484 0.0
Cd142 Cd 0.2327 0.39941 10.49391 0.0
O143 O 0.2418 0.29934 8.83794 0.0
Cd144 Cd 0.23013 0.28868 10.619 0.0
C145 C 0.17686 0.40136 10.45575 0.0
O146 O 0.25551 0.3209 11.47123 0.0
O147 O 0.23182 0.30505 12.46676 0.0
O148 O 0.25821 0.19494 10.53078 0.0
C149 C 0.24846 0.31871 12.37692 0.0
O150 O 0.18937 0.42638 10.50183 0.0
C151 C 0.24277 0.17885 10.74009 0.0
O152 O 0.18709 0.35079 10.45206 0.0
O153 O 0.22098 0.21411 10.87151 0.0
C154 C 0.6645 0.80722 10.99589 0.0
O155 O 0.64868 0.81661 11.69296 0.0
Cd156 Cd 0.65954 0.76695 13.25751 0.0
O157 O 0.68682 0.77602 11.1672 0.0
Cd158 Cd 0.71498 0.72426 12.56985 0.0
C159 C 0.69227 0.63914 12.23659 0.0
O160 O 0.69149 0.78014 13.9786 0.0
O161 O 0.7212 0.70471 14.41837 0.0
O162 O 0.73551 0.77556 12.18497 0.0
C163 C 0.70427 0.74957 14.68942 0.0
O164 O 0.67321 0.67634 12.63363 0.0
C165 C 0.75662 0.73693 12.1022 0.0
O166 O 0.71133 0.64449 12.10818 0.0
O167 O 0.75863 0.69042 12.19565 0.0
C168 C 0.57772 0.37066 11.08057 0.0
O169 O 0.56688 0.40192 10.34318 0.0
Cd170 Cd 0.58751 0.39247 8.73553 0.0
O171 O 0.59827 0.33032 10.93597 0.0
Cd172 Cd 0.62828 0.27946 9.5784 0.0
C173 C 0.64243 0.37965 9.69259 0.0
O174 O 0.60028 0.30377 8.15985 0.0
O175 O 0.63813 0.26563 7.73089 0.0
O176 O 0.62244 0.20652 10.18297 0.0
C177 C 0.61615 0.28516 7.45394 0.0
O178 O 0.62186 0.40608 9.26548 0.0
C179 C 0.64467 0.1734 10.26389 0.0
O180 O 0.65015 0.33081 9.9177 0.0
O181 O 0.65999 0.19 10.05233 0.0
C182 C 0.4979 1.63799 11.56929 0.0
O183 O 0.48719 1.62551 10.86889 0.0
Cd184 Cd 0.47658 1.66955 9.24105 0.0
O185 O 0.50523 1.67251 11.40209 0.0
Cd186 Cd 0.50767 1.72821 9.97341 0.0
C187 C 0.44681 1.8003 10.0787 0.0
O188 O 0.51337 1.66538 8.5995 0.0
O189 O 0.5076 1.74308 8.11323 0.0
O190 O 0.54942 1.70059 10.44048 0.0
C191 C 0.51231 1.69597 7.87083 0.0
O192 O 0.4461 1.75971 9.6918 0.0
C193 C 0.54738 1.74715 10.49899 0.0
O194 O 0.46694 1.79978 10.27758 0.0
O195 O 0.52643 1.78558 10.34934 0.0
C196 C -0.11112 2.09003 12.46686 0.0
O197 O -0.09713 2.05654 11.81053 0.0
Cd198 Cd -0.10656 2.05036 10.05911 0.0
O199 O -0.13221 2.12578 12.21494 0.0
Cd200 Cd -0.15706 2.15715 10.61601 0.0
C201 C -0.1597 2.04084 10.35822 0.0
O202 O -0.12282 2.14063 9.56438 0.0
O203 O -0.15547 2.16307 8.70281 0.0
O204 O -0.16949 2.24792 11.14454 0.0
C205 C -0.13316 2.15118 8.69947 0.0
O206 O -0.13738 2.01947 10.10281 0.0
C207 C -0.19205 2.26379 11.03134 0.0
O208 O -0.17093 2.08968 10.61552 0.0
O209 O -0.19857 2.2293 10.75696 0.0
C210 C -0.03409 0.82704 11.30893 0.0
O211 O -0.02528 0.84158 10.56438 0.0
Cd212 Cd -0.02065 0.80152 8.888 0.0
O213 O -0.04293 0.79506 11.15834 0.0
Cd214 Cd -0.05305 0.74636 9.82434 0.0
C215 C 0.00715 0.66834 9.64842 0.0
O216 O -0.05895 0.80775 8.45103 0.0
O217 O -0.05865 0.73427 7.99035 0.0
O218 O -0.09219 0.78982 10.61778 0.0
C219 C -0.06056 0.77914 7.73373 0.0
O220 O 0.00756 0.70875 9.24016 0.0
C221 C -0.09561 0.74919 10.68344 0.0
O222 O -0.01266 0.67023 9.96399 0.0
O223 O -0.0786 0.70526 10.36455 0.0
H224 H -0.11229 1.31806 -0.31617 0.0
H225 H -0.05173 1.35318 0.00516 0.0
H226 H -0.02354 1.25683 0.06861 0.0
H227 H -0.08848 1.19912 1.31724 0.0
H228 H -0.10042 1.16593 0.48368 0.0
H229 H -0.11572 1.23735 0.59069 0.0
H230 H -0.11631 1.24952 20.47055 0.0
H231 H -0.10075 1.17825 20.35798 0.0
H232 H -0.08711 1.21713 19.84495 0.0
H233 H -0.00186 1.15609 -0.02558 0.0
H234 H 0.01132 1.05993 -0.26375 0.0
H235 H -0.06711 1.09817 21.27098 0.0
C236 C -0.09317 1.30562 -0.20829 0.0
C237 C -0.08419 1.343 -0.15232 0.0
C238 C -0.05898 1.32509 -0.03258 0.0
C239 C -0.04285 1.27051 0.004 0.0
C240 C -0.05229 1.23464 -0.08185 0.0
C241 C -0.07689 1.25158 -0.18111 0.0
C242 C -0.0824 1.20543 -0.33153 0.0
C243 C -0.09765 1.20175 0.56887 0.0
C244 C -0.0982 1.21406 20.48925 0.0
C245 C -0.05702 1.15984 -0.32039 0.0
C246 C -0.03987 1.17723 -0.16414 0.0
C247 C -0.01515 1.14202 -0.14252 0.0
C248 C -0.00784 1.08759 -0.28113 0.0
C249 C -0.02853 1.07422 21.41174 0.0
C250 C -0.05338 1.11098 21.39391 0.0
H251 H 0.36465 0.40926 -0.27783 0.0
H252 H 0.31387 0.5759 0.16231 0.0
H253 H 0.34781 0.59844 0.08169 0.0
H254 H 0.41539 0.40894 1.16506 0.0
H255 H 0.43748 0.36368 0.26725 0.0
H256 H 0.40948 0.36083 0.47759 0.0
H257 H 0.39749 0.37727 20.37859 0.0
H258 H 0.42525 0.38097 20.16352 0.0
H259 H 0.39688 0.43399 19.73056 0.0
H260 H 0.38739 0.60275 -0.15566 0.0
H261 H 0.42587 0.59314 21.36135 0.0
H262 H 0.44956 0.42409 21.00429 0.0
C263 C 0.36068 0.45039 -0.17382 0.0
C264 C 0.33667 0.49081 -0.04259 0.0
C265 C 0.33219 0.54427 0.06844 0.0
C266 C 0.35133 0.55744 0.02211 0.0
C267 C 0.37474 0.51666 -0.13857 0.0
C268 C 0.37945 0.4642 -0.22955 0.0
C269 C 0.40256 0.43306 21.40095 0.0
C270 C 0.41775 0.38804 0.41448 0.0
C271 C 0.40571 0.40468 20.3564 0.0
C272 C 0.41199 0.47343 21.36125 0.0
C273 C 0.3972 0.51931 -0.3043 0.0
C274 C 0.40173 0.56308 -0.30713 0.0
C275 C 0.42214 0.55943 21.35511 0.0
C276 C 0.44088 0.50756 21.15025 0.0
C277 C 0.4356 0.46427 21.1505 0.0
H278 H 0.58615 1.11085 0.91023 0.0
H279 H 0.52374 1.08095 0.9311 0.0
H280 H 0.49721 1.17526 0.49887 0.0
H281 H 0.55667 1.24318 1.99563 0.0
H282 H 0.57312 1.26703 1.18668 0.0
H283 H 0.58668 1.19802 1.54509 0.0
H284 H 0.59006 1.17599 21.47714 0.0
H285 H 0.5763 1.24492 21.1122 0.0
H286 H 0.56457 1.20204 20.61195 0.0
H287 H 0.47767 1.27325 0.05848 0.0
H288 H 0.46346 1.37161 21.50406 0.0
H289 H 0.54258 1.32965 -0.16668 0.0
C290 C 0.56686 1.12421 0.8374 0.0
C291 C 0.55694 1.08879 0.96222 0.0
C292 C 0.53167 1.1076 0.84319 0.0
C293 C 0.51649 1.161 0.5965 0.0
C294 C 0.52695 1.19472 0.46356 0.0
C295 C 0.55156 1.17699 0.57953 0.0
C296 C 0.55848 1.22059 0.36645 0.0
C297 C 0.56937 1.23293 1.331 0.0
C298 C 0.57255 1.21125 21.3024 0.0
C299 C 0.5339 1.26579 0.11452 0.0
C300 C 0.5159 1.25027 0.17867 0.0
C301 C 0.49164 1.28577 0.00173 0.0
C302 C 0.48563 1.33865 -0.23588 0.0
C303 C 0.50386 1.3552 -0.30269 0.0
C304 C 0.52828 1.31803 -0.13408 0.0
H305 H 0.11564 1.99934 0.9081 0.0
H306 H 0.16479 1.83041 0.71275 0.0
H307 H 0.12985 1.8126 0.41443 0.0
H308 H 0.06684 1.99002 2.20558 0.0
H309 H 0.04374 2.04432 1.49789 0.0
H310 H 0.07262 2.04265 1.72438 0.0
H311 H 0.07799 2.0499 -0.24183 0.0
H312 H 0.04589 2.0561 21.38736 0.0
H313 H 0.07283 2.00682 20.76019 0.0
H314 H 0.08888 1.81422 0.15922 0.0
H315 H 0.04581 1.83517 -0.05314 0.0
H316 H 0.02483 2.00333 0.2329 0.0
C317 C 0.11911 1.95849 0.81202 0.0
C318 C 0.14287 1.91618 0.84123 0.0
C319 C 0.14666 1.86338 0.69692 0.0
C320 C 0.12696 1.85293 0.52615 0.0
C321 C 0.10373 1.8958 0.49264 0.0
C322 C 0.09981 1.94751 0.62905 0.0
C323 C 0.07329 1.9868 0.53737 0.0
C324 C 0.06356 2.01775 1.55173 0.0
C325 C 0.0656 2.02959 21.48764 0.0
C326 C 0.06279 1.9492 0.33367 0.0
C327 C 0.08053 1.89683 0.31403 0.0
C328 C 0.07487 1.85511 0.16695 0.0
C329 C 0.05041 1.86736 0.04622 0.0
C330 C 0.03205 1.92086 0.06524 0.0
C331 C 0.03847 1.96207 0.20177 0.0
H332 H 0.69085 0.0915 10.54983 0.0
H333 H 0.61475 0.1291 10.58438 0.0
H334 H 0.62602 0.0355 10.93156 0.0
H335 H 0.19364 2.43727 9.30757 0.0
H336 H 0.22088 2.40574 10.06561 0.0
H337 H 0.72646 0.00366 9.83554 0.0
H338 H 0.72401 0.02161 11.80232 0.0
H339 H 0.21859 2.42372 12.03825 0.0
H340 H 0.70908 -0.00561 12.62056 0.0
H341 H 0.12554 2.41137 11.20042 0.0
H342 H 0.15119 2.31608 11.51312 0.0
H343 H 0.21546 2.33927 11.36197 0.0
C344 C 0.6766 0.08002 10.63784 0.0
C345 C 0.65193 0.11762 10.53822 0.0
C346 C 0.63378 0.10109 10.65808 0.0
C347 C 0.63997 0.04795 10.85284 0.0
C348 C 0.66439 0.01181 10.93264 0.0
C349 C 0.68246 0.02695 10.84049 0.0
C350 C 0.18797 2.45226 10.96997 0.0
C351 C 0.2033 2.4423 9.9859 0.0
C352 C 0.72034 -0.01284 11.91411 0.0
C353 C 0.18092 2.40836 11.14274 0.0
C354 C 0.15607 2.42797 11.11101 0.0
C355 C 0.14504 2.39544 11.23321 0.0
C356 C 0.1598 2.34132 11.40706 0.0
C357 C 0.18532 2.32025 11.46386 0.0
C358 C 0.196 2.35427 11.32405 0.0
H359 H 0.59466 1.67174 10.51053 0.0
H360 H 0.54858 1.8418 10.79745 0.0
H361 H 0.58502 1.85564 10.88796 0.0
H362 H -0.36105 1.66283 12.1974 0.0
H363 H -0.33784 1.61347 11.39404 0.0
H364 H 0.63688 1.61723 11.45014 0.0
H365 H 0.63355 1.62676 9.46236 0.0
H366 H -0.34133 1.62356 9.40054 0.0
H367 H 0.63735 1.67946 8.85291 0.0
H368 H -0.37761 1.85059 10.85692 0.0
H369 H -0.33412 1.82711 10.70626 0.0
H370 H -0.31636 1.66075 10.38009 0.0
C371 C 0.59218 1.71186 10.6116 0.0
C372 C 0.56882 1.75569 10.65429 0.0
C373 C 0.56636 1.80763 10.76881 0.0
C374 C 0.58692 1.81586 10.82063 0.0
C375 C 0.60972 1.77173 10.75432 0.0
C376 C 0.61241 1.72076 10.65508 0.0
C377 C 0.63874 1.68025 10.5427 0.0
C378 C 0.64686 1.64115 11.45032 0.0
C379 C 0.64344 1.6508 9.50281 0.0
C380 C -0.35393 1.71639 10.58067 0.0
C381 C -0.37088 1.76896 10.71215 0.0
C382 C -0.36418 1.80952 10.75795 0.0
C383 C -0.33948 1.79584 10.66976 0.0
C384 C -0.32192 1.74216 10.52783 0.0
C385 C -0.32936 1.70216 10.48367 0.0
H386 H 0.28872 0.09884 10.92396 0.0
H387 H 0.21359 0.13003 10.81548 0.0
H388 H 0.22671 0.03359 10.98555 0.0
H389 H 0.31344 -0.01958 9.4601 0.0
H390 H -0.17864 2.42111 10.21661 0.0
H391 H 0.32505 0.01982 10.12251 0.0
H392 H 0.32206 0.0273 12.11581 0.0
H393 H -0.18172 2.4285 12.21586 0.0
H394 H 0.30834 -0.00676 12.81431 0.0
H395 H -0.27062 2.40523 11.05642 0.0
H396 H -0.24178 2.30909 11.05369 0.0
H397 H -0.1817 2.34673 11.19576 0.0
C398 C 0.27498 0.08548 10.93755 0.0
C399 C 0.25016 0.12171 10.85088 0.0
C400 C 0.23273 0.10276 10.88026 0.0
C401 C 0.24 0.04817 10.97821 0.0
C402 C 0.2647 0.01346 11.05978 0.0
C403 C 0.28187 0.03153 11.0475 0.0
C404 C 0.30727 -0.0136 11.13229 0.0
C405 C 0.32249 -0.01636 10.17589 0.0
C406 C 0.31953 -0.00899 12.12902 0.0
C407 C -0.21751 2.41241 11.17262 0.0
C408 C -0.24214 2.42862 11.13192 0.0
C409 C -0.25132 2.39213 11.10184 0.0
C410 C -0.23484 2.3377 11.10032 0.0
C411 C -0.20955 2.32056 11.13356 0.0
C412 C -0.20093 2.35857 11.18604 0.0
H413 H -0.11121 0.67251 10.74483 0.0
H414 H -0.13313 0.83835 11.45607 0.0
H415 H -0.17372 0.85139 11.93379 0.0
H416 H 0.83807 0.69242 9.61467 0.0
H417 H 0.83815 0.63365 10.14281 0.0
H418 H -0.13805 0.63531 9.91894 0.0
H419 H -0.12611 0.61171 11.83065 0.0
H420 H 0.8502 0.60947 12.05881 0.0
H421 H -0.14641 0.65214 12.83377 0.0
H422 H 0.79204 0.8495 12.19205 0.0
H423 H 0.75732 0.83102 12.35884 0.0
H424 H 0.80346 0.66564 11.54382 0.0
C425 C -0.12446 0.71128 11.01698 0.0
C426 C -0.11901 0.75443 11.06166 0.0
C427 C -0.13687 0.80471 11.41386 0.0
C428 C -0.16001 0.81258 11.68743 0.0
C429 C -0.16499 0.76972 11.61271 0.0
C430 C -0.14776 0.71988 11.29922 0.0
C431 C 0.84611 0.68117 11.26742 0.0
C432 C 0.84724 0.65937 10.17064 0.0
C433 C -0.1455 0.63595 12.04416 0.0
C434 C 0.82019 0.71748 11.59381 0.0
C435 C 0.81686 0.76835 11.78607 0.0
C436 C 0.79442 0.80972 12.05602 0.0
C437 C 0.77478 0.79882 12.14256 0.0
C438 C 0.77771 0.74687 11.96635 0.0
C439 C 0.80075 0.70563 11.68962 0.0
H440 H 0.07102 0.68623 20.88928 0.0
H441 H 0.07757 0.82974 21.48746 0.0
H442 H 0.12547 0.77126 -0.29168 0.0
H443 H 0.12237 0.59466 0.68811 0.0
H444 H 0.13232 0.5386 -0.17731 0.0
H445 H 0.10102 0.58829 -0.16601 0.0
H446 H 0.09996 0.60783 19.73558 0.0
H447 H 0.13125 0.55818 19.71799 0.0
H448 H 0.12287 0.62414 19.25022 0.0
H449 H 0.16955 0.70105 -0.26287 0.0
H450 H 0.20604 0.62575 21.49611 0.0
H451 H 0.16978 0.52999 20.83502 0.0
C452 C 0.08176 0.70653 21.0427 0.0
C453 C 0.07081 0.76215 21.18616 0.0
C454 C 0.08559 0.78713 21.37466 0.0
C455 C 0.1109 0.75707 21.42589 0.0
C456 C 0.12108 0.70225 21.28112 0.0
C457 C 0.10694 0.67733 21.08819 0.0
C458 C 0.12223 0.61818 20.93474 0.0
C459 C 0.11998 0.58186 -0.09598 0.0
C460 C 0.11887 0.6011 19.84484 0.0
C461 C 0.14723 0.61357 21.07037 0.0
C462 C 0.14626 0.66233 21.2764 0.0
C463 C 0.1672 0.66763 21.43671 0.0
C464 C 0.18971 0.62184 21.37826 0.0
C465 C 0.19103 0.57164 21.15354 0.0
C466 C 0.16943 0.56777 21.00192 0.0
H467 H 0.62127 0.70116 0.70056 0.0
H468 H 0.55236 0.84461 0.87157 0.0
H469 H 0.53111 0.79212 0.41559 0.0
H470 H 0.6039 0.64905 20.39426 0.0
H471 H 0.6201 0.58194 20.86394 0.0
H472 H 0.62958 0.63069 21.23362 0.0
H473 H 0.62902 0.60721 1.30057 0.0
H474 H 0.61971 0.55809 0.937 0.0
H475 H 0.60078 0.61229 1.77631 0.0
H476 H 0.51769 0.72275 -0.09791 0.0
H477 H 0.51002 0.64783 21.2976 0.0
H478 H 0.58817 0.5521 21.45917 0.0
C479 C 0.60169 0.72175 0.64982 0.0
C480 C 0.58849 0.77706 0.82341 0.0
C481 C 0.56287 0.80222 0.74483 0.0
C482 C 0.55065 0.77277 0.48392 0.0
C483 C 0.56433 0.71833 0.30522 0.0
C484 C 0.58929 0.69317 0.38994 0.0
C485 C 0.59997 0.6345 0.15298 0.0
C486 C 0.61355 0.62443 21.07063 0.0
C487 C 0.61314 0.60107 1.0981 0.0
C488 C 0.57714 0.63037 -0.08081 0.0
C489 C 0.55672 0.67899 0.00919 0.0
C490 C 0.53358 0.68449 -0.16954 0.0
C491 C 0.52798 0.64389 21.42573 0.0
C492 C 0.54875 0.59364 21.34037 0.0
C493 C 0.5719 0.58979 21.51536 0.0
H494 H 0.40464 1.74077 -0.18243 0.0
H495 H 0.39652 1.598 21.49014 0.0
H496 H 0.35572 1.6425 -0.04107 0.0
H497 H 0.36241 1.79866 1.86826 0.0
H498 H 0.34991 1.86507 1.35784 0.0
H499 H 0.38088 1.81805 1.08129 0.0
H500 H 0.36907 1.83729 20.98366 0.0
H501 H 0.33811 1.88461 21.25416 0.0
H502 H 0.34466 1.82815 20.43342 0.0
H503 H 0.31192 1.70899 0.3479 0.0
H504 H 0.2723 1.78681 0.70571 0.0
H505 H 0.3069 1.88925 0.63835 0.0
C506 C 0.39438 1.71864 -0.16031 0.0
C507 C 0.40574 1.66299 -0.30409 0.0
C508 C 0.39154 1.63574 -0.26671 0.0
C509 C 0.36648 1.66345 -0.07701 0.0
C510 C 0.35595 1.71829 0.07175 0.0
C511 C 0.36949 1.74552 0.02733 0.0
C512 C 0.35402 1.80432 0.21726 0.0
C513 C 0.3623 1.82257 1.18899 0.0
C514 C 0.35063 1.84173 21.13115 0.0
C515 C 0.32962 1.80605 0.37859 0.0
C516 C 0.33101 1.75616 0.29339 0.0
C517 C 0.31063 1.74826 0.41474 0.0
C518 C 0.28823 1.79266 0.62003 0.0
C519 C 0.28645 1.84419 0.7006 0.0
C520 C 0.30754 1.85052 0.58238 0.0
H521 H -0.15118 1.73279 20.8386 0.0
H522 H -0.08317 1.58908 21.22121 0.0
H523 H -0.06206 1.64365 21.48864 0.0
H524 H -0.1274 1.80893 19.48849 0.0
H525 H -0.14731 1.87036 20.12637 0.0
H526 H -0.15676 1.81977 19.93957 0.0
H527 H -0.1612 1.81457 0.04066 0.0
H528 H -0.15174 1.86511 0.23378 0.0
H529 H -0.13711 1.80345 0.93098 0.0
H530 H -0.0451 1.70957 -0.17504 0.0
H531 H -0.04038 1.79107 0.02043 0.0
H532 H -0.12112 1.89219 21.43585 0.0
C533 C -0.13182 1.71269 20.97185 0.0
C534 C -0.11878 1.65671 21.00292 0.0
C535 C -0.09351 1.63198 21.19402 0.0
C536 C -0.08136 1.66259 21.34457 0.0
C537 C -0.09481 1.71776 21.31049 0.0
C538 C -0.1195 1.74253 21.13517 0.0
C539 C -0.12994 1.80235 21.16396 0.0
C540 C -0.141 1.82677 20.11724 0.0
C541 C -0.14526 1.82153 0.1791 0.0
C542 C -0.10725 1.80746 21.38004 0.0
C543 C -0.08713 1.75832 21.45512 0.0
C544 C -0.06075 1.74828 -0.22804 0.0
C545 C -0.05825 1.79474 -0.12004 0.0
C546 C -0.07874 1.84545 -0.18221 0.0
C547 C -0.10513 1.85404 21.49713 0.0
H548 H 0.40334 1.8027 10.46747 0.0
H549 H 0.43864 1.90347 10.34233 0.0
H550 H 0.40008 1.98099 10.8572 0.0
H551 H 0.34497 1.8975 9.52099 0.0
H552 H 0.32865 1.8757 10.38437 0.0
H553 H 0.35867 1.82957 9.95633 0.0
H554 H 0.37253 1.80852 11.85758 0.0
H555 H 0.34259 1.85477 12.29142 0.0
H556 H 0.36846 1.86204 12.71871 0.0
H557 H 0.35679 2.04787 11.36037 0.0
H558 H 0.31371 2.09634 11.90781 0.0
H559 H 0.30885 1.94868 11.80116 0.0
C560 C 0.40294 1.84117 10.5362 0.0
C561 C 0.42386 1.8473 10.35439 0.0
C562 C 0.42273 1.89805 10.47496 0.0
C563 C 0.40093 1.94224 10.76501 0.0
C564 C 0.38063 1.93465 10.94423 0.0
C565 C 0.38158 1.8852 10.84148 0.0
C566 C 0.35771 1.88667 11.12088 0.0
C567 C 0.34686 1.87148 10.19007 0.0
C568 C 0.3605 1.85089 12.05256 0.0
C569 C 0.34307 1.94474 11.39507 0.0
C570 C 0.35641 1.9721 11.27917 0.0
C571 C 0.34624 2.02672 11.46101 0.0
C572 C 0.32182 2.0539 11.77018 0.0
C573 C 0.30809 2.02612 11.90876 0.0
C574 C 0.31898 1.97089 11.71935 0.0
H575 H -0.13998 1.93278 10.1495 0.0
H576 H -0.20856 2.07488 10.58782 0.0
H577 H -0.22983 2.01976 10.60427 0.0
H578 H -0.16202 1.86342 8.4798 0.0
H579 H -0.14288 1.79933 9.0325 0.0
H580 H -0.13325 1.85023 9.03556 0.0
H581 H -0.1279 1.84179 11.01863 0.0
H582 H -0.13752 1.79089 11.02185 0.0
H583 H -0.15302 1.84926 11.81786 0.0
H584 H -0.24354 1.94858 10.56438 0.0
H585 H -0.2484 1.86688 10.52593 0.0
H586 H -0.17056 1.77224 10.15268 0.0
C587 C -0.15948 1.95247 10.24449 0.0
C588 C -0.1726 2.0082 10.36395 0.0
C589 C -0.19811 2.03223 10.49522 0.0
C590 C -0.21036 2.00129 10.5038 0.0
C591 C -0.19683 1.94643 10.3851 0.0
C592 C -0.17195 1.92227 10.26183 0.0
C593 C -0.16152 1.86257 10.1706 0.0
C594 C -0.1492 1.84274 9.11687 0.0
C595 C -0.14396 1.83449 11.06037 0.0
C596 C -0.18443 1.85684 10.26229 0.0
C597 C -0.20463 1.90561 10.38023 0.0
C598 C -0.22784 1.91016 10.47397 0.0
C599 C -0.23042 1.86355 10.44993 0.0
C600 C -0.20987 1.81312 10.33951 0.0
C601 C -0.18664 1.81007 10.24336 0.0
H602 H 0.15037 0.50648 10.0023 0.0
H603 H 0.14305 0.36532 10.72904 0.0
H604 H 0.09841 0.41773 10.59943 0.0
H605 H 0.09844 0.59985 11.39218 0.0
H606 H 0.09065 0.65127 10.44029 0.0
H607 H 0.12178 0.60238 10.60379 0.0
H608 H 0.12446 0.57777 8.66418 0.0
H609 H 0.09332 0.62653 8.49516 0.0
H610 H 0.103 0.55832 8.12863 0.0
H611 H 0.05405 0.48775 10.42615 0.0
H612 H 0.01457 0.56758 10.1589 0.0
H613 H 0.05245 0.65976 9.49008 0.0
C614 C 0.13945 0.48645 10.13905 0.0
C615 C 0.15018 0.43188 10.38158 0.0
C616 C 0.13519 0.40717 10.54238 0.0
C617 C 0.10984 0.4366 10.47184 0.0
C618 C 0.09988 0.49046 10.23107 0.0
C619 C 0.1143 0.51493 10.06161 0.0
C620 C 0.09939 0.57291 9.79735 0.0
C621 C 0.10277 0.60869 10.60686 0.0
C622 C 0.1054 0.58453 8.70653 0.0
C623 C 0.07425 0.57752 9.84889 0.0
C624 C 0.07476 0.52979 10.10481 0.0
C625 C 0.05348 0.52523 10.21932 0.0
C626 C 0.03116 0.57072 10.06743 0.0
C627 C 0.03041 0.6198 9.79602 0.0
C628 C 0.05233 0.62279 9.68494 0.0
H629 H 0.65235 0.63455 11.54423 0.0
H630 H 0.7294 0.53682 12.02799 0.0
H631 H 0.7259 0.45791 11.3882 0.0
H632 H 0.63263 0.54111 12.29813 0.0
H633 H 0.60955 0.56096 11.32143 0.0
H634 H 0.61865 0.60826 11.81924 0.0
H635 H 0.62851 0.62641 9.96407 0.0
H636 H 0.61949 0.57902 9.46037 0.0
H637 H 0.64926 0.57171 9.17742 0.0
H638 H 0.71238 0.3887 10.78314 0.0
H639 H 0.69109 0.33841 10.16449 0.0
H640 H 0.62408 0.48582 9.98819 0.0
C641 C 0.66852 0.59653 11.52128 0.0
C642 C 0.69108 0.59146 11.84757 0.0
C643 C 0.71191 0.54131 11.78419 0.0
C644 C 0.71007 0.49642 11.42357 0.0
C645 C 0.68737 0.50292 11.1124 0.0
C646 C 0.66709 0.55204 11.14707 0.0
C647 C 0.64484 0.54956 10.75323 0.0
C648 C 0.62528 0.56592 11.59853 0.0
C649 C 0.63496 0.58369 9.78099 0.0
C650 C 0.65555 0.49111 10.50466 0.0
C651 C 0.68005 0.46445 10.72071 0.0
C652 C 0.69328 0.40941 10.59861 0.0
C653 C 0.68108 0.38118 10.24897 0.0
C654 C 0.65603 0.4083 10.01452 0.0
C655 C 0.64334 0.46395 10.13962 0.0
H656 H -0.04558 0.84743 6.92588 0.0
H657 H -0.07584 0.74219 6.0894 0.0
H658 H -0.07382 0.76212 4.24628 0.0
H659 H -0.07368 0.94608 4.8711 0.0
H660 H -0.04684 0.95419 4.69146 0.0
H661 H -0.05374 0.93709 5.94193 0.0
H662 H -0.01148 0.85435 5.9871 0.0
H663 H -0.00449 0.87103 4.73769 0.0
H664 H -0.00265 0.80651 4.95008 0.0
H665 H -0.0664 0.79006 2.49477 0.0
H666 H -0.05155 0.81872 0.97021 0.0
H667 H -0.02392 0.90087 2.97481 0.0
C668 C -0.0523 0.82956 6.35587 0.0
C669 C -0.06115 0.79384 6.64471 0.0
C670 C -0.06913 0.76994 5.87871 0.0
C671 C -0.06814 0.78118 4.83309 0.0
C672 C -0.05893 0.81599 4.57157 0.0
C673 C -0.05103 0.83957 5.31156 0.0
C674 C -0.03976 0.87137 4.82908 0.0
C675 C -0.05438 0.9307 5.09945 0.0
C676 C -0.01301 0.84948 5.14464 0.0
C677 C -0.04215 0.86126 3.70155 0.0
C678 C -0.05366 0.83008 3.56654 0.0
C679 C -0.05747 0.8147 2.59054 0.0
C680 C -0.04901 0.83116 1.73077 0.0
C681 C -0.03655 0.86176 1.85892 0.0
C682 C -0.03334 0.87733 2.85607 0.0
H683 H 0.57221 0.35131 6.64128 0.0
H684 H 0.64449 0.23112 5.80315 0.0
H685 H 0.6326 0.24211 3.96375 0.0
H686 H 0.53879 0.31972 4.67845 0.0
H687 H 0.51778 0.38863 4.46696 0.0
H688 H 0.53134 0.36718 5.71629 0.0
H689 H 0.54735 0.43689 5.66564 0.0
H690 H 0.53381 0.4586 4.41971 0.0
H691 H 0.56574 0.43702 4.59138 0.0
H692 H 0.61292 0.26915 2.20939 0.0
H693 H 0.58835 0.31517 0.68519 0.0
H694 H 0.53 0.42003 2.70247 0.0
C695 C 0.58544 0.32666 6.07265 0.0
C696 C 0.60917 0.29002 6.36071 0.0
C697 C 0.62616 0.25933 5.59445 0.0
C698 C 0.61954 0.2651 4.55086 0.0
C699 C 0.59596 0.30194 4.29176 0.0
C700 C 0.57925 0.33245 5.03189 0.0
C701 C 0.55574 0.37225 4.55324 0.0
C702 C 0.53467 0.36126 4.87276 0.0
C703 C 0.55036 0.42956 4.82336 0.0
C704 C 0.56191 0.36003 3.42576 0.0
C705 C 0.58501 0.31876 3.28784 0.0
C706 C 0.59478 0.30134 2.30836 0.0
C707 C 0.5807 0.32755 1.44868 0.0
C708 C 0.55736 0.3711 1.58036 0.0
C709 C 0.54781 0.38685 2.58085 0.0
H710 H 0.5058 1.61432 7.09177 0.0
H711 H 0.52444 1.73835 6.21407 0.0
H712 H 0.52834 1.70881 4.39425 0.0
H713 H 0.54454 1.51322 5.24706 0.0
H714 H 0.52228 1.49061 5.00387 0.0
H715 H 0.52335 1.51822 6.24386 0.0
H716 H 0.47813 1.58749 6.07102 0.0
H717 H 0.47689 1.55999 4.83469 0.0
H718 H 0.46841 1.62972 4.95302 0.0
H719 H 0.5291 1.66677 2.66571 0.0
H720 H 0.52259 1.62193 1.1475 0.0
H721 H 0.5012 1.52931 3.1691 0.0
C722 C 0.51106 1.63476 6.5183 0.0
C723 C 0.51507 1.67821 6.78958 0.0
C724 C 0.52136 1.70484 6.01778 0.0
C725 C 0.52375 1.68815 4.98574 0.0
C726 C 0.51956 1.64518 4.74249 0.0
C727 C 0.51311 1.61924 5.48639 0.0
C728 C 0.50761 1.57717 5.01733 0.0
C729 C 0.52552 1.52151 5.4009 0.0
C730 C 0.48119 1.58935 5.23154 0.0
C731 C 0.51166 1.5839 3.89058 0.0
C732 C 0.51899 1.62258 3.74755 0.0
C733 C 0.52343 1.6363 2.76852 0.0
C734 C 0.51977 1.61053 1.91245 0.0
C735 C 0.51136 1.57232 2.04489 0.0
C736 C 0.50762 1.55841 3.04716 0.0
H737 H -0.14929 2.16154 6.69907 0.0
H738 H -0.0843 2.11175 8.54671 0.0
H739 H -0.05918 2.07959 6.98555 0.0
H740 H -0.1275 2.05372 5.06632 0.0
H741 H -0.14166 2.08935 3.90782 0.0
H742 H -0.15503 2.11572 5.14305 0.0
H743 H -0.15363 2.20372 4.74791 0.0
H744 H -0.14042 2.17778 3.5041 0.0
H745 H -0.12529 2.20193 4.38284 0.0
H746 H -0.04108 2.039 5.31783 0.0
H747 H -0.03097 2.00013 3.56806 0.0
H748 H -0.107 2.08111 2.7436 0.0
C749 C -0.12981 2.1451 6.76963 0.0
C750 C -0.11874 2.13896 7.74315 0.0
C751 C -0.09319 2.11684 7.80844 0.0
C752 C -0.07873 2.09854 6.92594 0.0
C753 C -0.09012 2.10354 5.98219 0.0
C754 C -0.11507 2.12712 5.8919 0.0
C755 C -0.12252 2.12436 4.79113 0.0
C756 C -0.13756 2.09397 4.72391 0.0
C757 C -0.13628 2.18029 4.32925 0.0
C758 C -0.09786 2.09342 4.29102 0.0
C759 C -0.07944 2.082 4.99397 0.0
C760 C -0.05524 2.0489 4.75061 0.0
C761 C -0.04968 2.02676 3.76125 0.0
C762 C -0.06822 2.03854 3.0286 0.0
C763 C -0.09254 2.07287 3.28881 0.0
H764 H -0.23572 1.65155 14.12917 0.0
H765 H -0.17796 1.54413 12.11512 0.0
H766 H -0.15399 1.49627 13.63549 0.0
H767 H -0.19942 1.66395 16.03889 0.0
H768 H -0.21819 1.6648 17.10572 0.0
H769 H -0.2315 1.68767 15.85995 0.0
H770 H -0.24889 1.62038 15.87572 0.0
H771 H -0.2357 1.5974 17.1261 0.0
H772 H -0.22877 1.55082 16.07583 0.0
H773 H -0.13454 1.46789 15.37248 0.0
H774 H -0.12236 1.45597 17.20723 0.0
H775 H -0.194 1.57794 18.07328 0.0
C776 C -0.21815 1.61747 14.00887 0.0
C777 C -0.20858 1.60147 13.00945 0.0
C778 C -0.1856 1.55675 12.87741 0.0
C779 C -0.17189 1.52943 13.735 0.0
C780 C -0.18168 1.54682 14.71318 0.0
C781 C -0.20445 1.58927 14.85351 0.0
C782 C -0.21056 1.60098 15.98401 0.0
C783 C -0.21518 1.6577 16.26295 0.0
C784 C -0.23227 1.59183 16.28279 0.0
C785 C -0.18735 1.5596 16.45841 0.0
C786 C -0.17089 1.52877 15.71365 0.0
C787 C -0.14744 1.49095 15.96415 0.0
C788 C -0.14066 1.48462 17.00437 0.0
C789 C -0.15738 1.51554 17.77557 0.0
C790 C -0.18107 1.55294 17.49856 0.0
H791 H 0.24635 0.29433 14.39608 0.0
H792 H 0.27182 0.37975 12.37514 0.0
H793 H 0.28591 0.41087 13.8865 0.0
H794 H 0.22431 0.38902 16.38953 0.0
H795 H 0.23407 0.34129 17.4209 0.0
H796 H 0.22721 0.32349 16.17717 0.0
H797 H 0.27004 0.24264 16.09177 0.0
H798 H 0.27703 0.26024 17.3372 0.0
H799 H 0.29638 0.25285 16.24827 0.0
H800 H 0.29309 0.44019 15.61765 0.0
H801 H 0.29554 0.46067 17.45644 0.0
H802 H 0.26831 0.35073 18.3374 0.0
C803 C 0.25508 0.31926 14.27266 0.0
C804 C 0.25795 0.33492 13.273 0.0
C805 C 0.26954 0.36725 13.13684 0.0
C806 C 0.27758 0.38509 13.98946 0.0
C807 C 0.27429 0.36933 14.96719 0.0
C808 C 0.26361 0.33657 15.11265 0.0
C809 C 0.26186 0.32619 16.24445 0.0
C810 C 0.23529 0.34621 16.57712 0.0
C811 C 0.27725 0.26696 16.49486 0.0
C812 C 0.27259 0.35944 16.71407 0.0
C813 C 0.2796 0.38412 15.96456 0.0
C814 C 0.28815 0.42028 16.21214 0.0
C815 C 0.28942 0.43177 17.25472 0.0
C816 C 0.28248 0.40658 18.03082 0.0
C817 C 0.27431 0.36945 17.75677 0.0
H818 H 0.62291 0.91732 19.38396 0.0
H819 H 0.68314 0.82586 21.41559 0.0
H820 H 0.70851 0.77924 19.90311 0.0
H821 H 0.63189 0.81554 17.66651 0.0
H822 H 0.62381 0.85637 16.52908 0.0
H823 H 0.61122 0.88556 17.75949 0.0
H824 H 0.62765 0.95395 17.54261 0.0
H825 H 0.64004 0.92542 16.3034 0.0
H826 H 0.65941 0.93078 17.27845 0.0
H827 H 0.72556 0.73605 18.17123 0.0
H828 H 0.7342 0.70638 16.35038 0.0
H829 H 0.66299 0.82935 15.48251 0.0
C830 C 0.64157 0.88813 19.50934 0.0
C831 C 0.65112 0.87504 20.5122 0.0
C832 C 0.67558 0.83665 20.64948 0.0
C833 C 0.69006 0.80987 19.79681 0.0
C834 C 0.67984 0.82271 18.81715 0.0
C835 C 0.65627 0.86165 18.67019 0.0
C836 C 0.64928 0.86729 17.54624 0.0
C837 C 0.62779 0.85546 17.36543 0.0
C838 C 0.64378 0.92264 17.14412 0.0
C839 C 0.67239 0.82455 17.08347 0.0
C840 C 0.68982 0.79909 17.82571 0.0
C841 C 0.71218 0.75626 17.58155 0.0
C842 C 0.71687 0.7395 16.54894 0.0
C843 C 0.69932 0.76588 15.77855 0.0
C844 C 0.67687 0.80888 16.05364 0.0
H845 H 0.18844 2.00938 19.18941 0.0
H846 H 0.20057 2.11655 21.21897 0.0
H847 H 0.20541 2.16349 19.7014 0.0
H848 H 0.23124 1.9949 17.32389 0.0
H849 H 0.21338 1.99386 16.2398 0.0
H850 H 0.20884 1.97188 17.48198 0.0
H851 H 0.16322 2.03986 17.4258 0.0
H852 H 0.16757 2.0618 16.17728 0.0
H853 H 0.15443 2.10915 17.21324 0.0
H854 H 0.21365 2.19141 17.95805 0.0
H855 H 0.22101 2.20328 16.12307 0.0
H856 H 0.20124 2.08056 15.2597 0.0
C857 C 0.19175 2.04325 19.31427 0.0
C858 C 0.1942 2.05939 20.31674 0.0
C859 C 0.1985 2.10384 20.45374 0.0
C860 C 0.20133 2.13061 19.59797 0.0
C861 C 0.19934 2.11287 18.61666 0.0
C862 C 0.19424 2.07076 18.47237 0.0
C863 C 0.19367 2.05842 17.34228 0.0
C864 C 0.21293 2.0014 17.08235 0.0
C865 C 0.16821 2.0679 17.02093 0.0
C866 C 0.19993 2.09916 16.87188 0.0
C867 C 0.20318 2.1302 17.61708 0.0
C868 C 0.21072 2.16802 17.36655 0.0
C869 C 0.21497 2.1743 16.32573 0.0
C870 C 0.21144 2.14319 15.55398 0.0
C871 C 0.20366 2.10554 15.83316 0.0
H872 H 0.5079 1.67396 13.37332 0.0
H873 H 0.49329 1.54978 12.11033 0.0
H874 H 0.49443 1.51513 13.86399 0.0
H875 H 0.54779 1.59578 15.49345 0.0
H876 H 0.5355 1.6516 16.36901 0.0
H877 H 0.53652 1.66242 15.00594 0.0
H878 H 0.49028 1.72546 15.01846 0.0
H879 H 0.48908 1.71469 16.37779 0.0
H880 H 0.46991 1.70166 15.50553 0.0
H881 H 0.49407 1.49827 15.76434 0.0
H882 H 0.49096 1.50227 17.6637 0.0
H883 H 0.50472 1.63908 17.67157 0.0
C884 C 0.50548 1.63876 13.46203 0.0
C885 C 0.50068 1.61433 12.60465 0.0
C886 C 0.49706 1.56905 12.75652 0.0
C887 C 0.49776 1.54896 13.74883 0.0
C888 C 0.50207 1.57464 14.57977 0.0
C889 C 0.50587 1.61854 14.44625 0.0
C890 C 0.50814 1.64153 15.46982 0.0
C891 C 0.5335 1.63757 15.59148 0.0
C892 C 0.48816 1.69923 15.6001 0.0
C893 C 0.50446 1.60444 16.20065 0.0
C894 C 0.50134 1.56565 15.67384 0.0
C895 C 0.49672 1.52816 16.18589 0.0
C896 C 0.49497 1.53078 17.26489 0.0
C897 C 0.49757 1.571 17.81787 0.0
C898 C 0.50269 1.60775 17.27401 0.0
H899 H -0.13837 2.12397 14.2355 0.0
H900 H -0.06428 2.04835 13.09861 0.0
H901 H -0.04921 2.03787 14.88083 0.0
H902 H -0.12826 2.1921 16.49379 0.0
H903 H -0.14857 2.17931 17.3016 0.0
H904 H -0.15378 2.18773 15.93278 0.0
H905 H -0.15358 2.09629 15.82176 0.0
H906 H -0.14838 2.08761 17.18692 0.0
H907 H -0.12782 2.03806 16.30321 0.0
H908 H -0.04198 2.02841 16.75759 0.0
H909 H -0.04284 2.01645 18.63147 0.0
H910 H -0.12159 2.09599 18.57473 0.0
C911 C -0.11901 2.10631 14.36326 0.0
C912 C -0.10247 2.08725 13.53197 0.0
C913 C -0.07725 2.06317 13.7266 0.0
C914 C -0.06851 2.05738 14.7348 0.0
C915 C -0.08524 2.07572 15.53915 0.0
C916 C -0.10995 2.09957 15.36801 0.0
C917 C -0.1239 2.11101 16.37399 0.0
C918 C -0.13955 2.17112 16.53483 0.0
C919 C -0.13932 2.08146 16.42398 0.0
C920 C -0.10312 2.08846 17.13287 0.0
C921 C -0.08101 2.06919 16.63403 0.0
C922 C -0.05915 2.04386 17.16032 0.0
C923 C -0.05986 2.03715 18.22493 0.0
C924 C -0.08229 2.05529 18.75088 0.0
C925 C -0.10417 2.08218 18.19726 0.0
H926 H -0.04369 0.78953 13.09267 0.0
H927 H -0.02218 0.90489 11.92839 0.0
H928 H -0.01889 0.93119 13.71817 0.0
H929 H -0.07861 0.86648 15.30848 0.0
H930 H -0.06838 0.80859 16.11624 0.0
H931 H -0.07104 0.80249 14.74546 0.0
H932 H -0.02606 0.73068 14.65804 0.0
H933 H -0.02324 0.73662 16.02596 0.0
H934 H -0.00288 0.74575 15.15559 0.0
H935 H -0.01617 0.9416 15.64565 0.0
H936 H -0.01279 0.93307 17.54078 0.0
H937 H -0.03509 0.80897 17.40807 0.0
C938 C -0.03864 0.82093 13.20994 0.0
C939 C -0.03334 0.8454 12.36988 0.0
C940 C -0.0264 0.8857 12.56056 0.0
C941 C -0.02455 0.90099 13.57367 0.0
C942 C -0.02965 0.87551 14.38399 0.0
C943 C -0.03652 0.83629 14.21125 0.0
C944 C -0.03959 0.8127 15.20952 0.0
C945 C -0.06598 0.82322 15.35315 0.0
C946 C -0.02188 0.75291 15.26511 0.0
C947 C -0.033 0.84419 15.97372 0.0
C948 C -0.0276 0.88066 15.48579 0.0
C949 C -0.02049 0.91337 16.03589 0.0
C950 C -0.01864 0.90824 17.1119 0.0
C951 C -0.02364 0.87029 17.62325 0.0
C952 C -0.03113 0.83835 17.04222 0.0
H953 H 0.58281 0.36035 17.19205 0.0
H954 H 0.5076 0.48161 17.23605 0.0
H955 H 0.50648 0.47746 15.33454 0.0
H956 H 0.6007 0.40558 14.99355 0.0
H957 H 0.62065 0.3401 14.50731 0.0
H958 H 0.61498 0.35059 15.8699 0.0
H959 H 0.60085 0.27776 15.90998 0.0
H960 H 0.6065 0.26701 14.54563 0.0
H961 H 0.57699 0.28286 15.05944 0.0
H962 H 0.51473 0.46459 13.41629 0.0
H963 H 0.53127 0.44173 11.64623 0.0
H964 H 0.60051 0.32699 12.88836 0.0
C965 C 0.56601 0.38579 16.80463 0.0
C966 C 0.54531 0.4214 17.36298 0.0
C967 C 0.52369 0.4539 16.82454 0.0
C968 C 0.52287 0.45183 15.74493 0.0
C969 C 0.54373 0.41665 15.21836 0.0
C970 C 0.56482 0.3839 15.73205 0.0
C971 C 0.58493 0.35051 14.98943 0.0
C972 C 0.60658 0.36244 15.09658 0.0
C973 C 0.59277 0.29101 15.13493 0.0
C974 C 0.57202 0.37033 13.97524 0.0
C975 C 0.54827 0.4084 14.12071 0.0
C976 C 0.53321 0.43434 13.29309 0.0
C977 C 0.54278 0.42119 12.29141 0.0
C978 C 0.56711 0.3823 12.12848 0.0
C979 C 0.58173 0.35632 12.98466 0.0
H980 H 0.69076 0.77621 9.20934 0.0
H981 H 0.62083 0.88984 10.43836 0.0
H982 H 0.60735 0.92411 8.68188 0.0
H983 H 0.69499 0.86041 7.153 0.0
H984 H 0.7087 0.80542 6.26336 0.0
H985 H 0.71367 0.79422 7.62815 0.0
H986 H 0.69781 0.72434 7.54402 0.0
H987 H 0.69272 0.73541 6.18228 0.0
H988 H 0.66816 0.74296 7.01874 0.0
H989 H 0.60071 0.9419 6.77675 0.0
H990 H 0.60083 0.93932 4.87334 0.0
H991 H 0.67477 0.81193 4.90785 0.0
C992 C 0.67277 0.80903 9.11365 0.0
C993 C 0.65691 0.83065 9.96146 0.0
C994 C 0.63332 0.87279 9.7995 0.0
C995 C 0.62554 0.89264 8.80584 0.0
C996 C 0.64154 0.8698 7.98449 0.0
C997 C 0.66465 0.82888 8.12874 0.0
C998 C 0.67767 0.80835 7.11327 0.0
C999 C 0.70008 0.81768 7.03511 0.0
C1000 C 0.68448 0.74928 6.95571 0.0
C1001 C 0.65811 0.84339 6.37277 0.0
C1002 C 0.63752 0.87911 6.8889 0.0
C1003 C 0.6168 0.91438 6.36422 0.0
C1004 C 0.61705 0.91261 5.28321 0.0
C1005 C 0.6378 0.87538 4.74084 0.0
C1006 C 0.65863 0.8409 5.29783 0.0
H1007 H 0.21627 2.07806 4.70833 0.0
H1008 H 0.19333 1.95489 4.63476 0.0
H1009 H 0.18884 1.96051 6.5295 0.0
H1010 H 0.25156 2.03512 6.94238 0.0
H1011 H 0.24327 2.10099 7.4245 0.0
H1012 H 0.24294 2.08983 6.06051 0.0
H1013 H 0.19799 2.16174 5.97772 0.0
H1014 H 0.19818 2.17311 7.344 0.0
H1015 H 0.17592 2.15627 6.80366 0.0
H1016 H 0.19023 1.97446 8.4444 0.0
H1017 H 0.19644 1.99726 10.2224 0.0
H1018 H 0.21719 2.11307 9.01733 0.0
C1019 C 0.21008 2.05258 5.08752 0.0
C1020 C 0.2052 2.01598 4.523 0.0
C1021 C 0.19713 1.98336 5.0508 0.0
C1022 C 0.1945 1.98628 6.12656 0.0
C1023 C 0.19974 2.02243 6.65989 0.0
C1024 C 0.20718 2.05527 6.15666 0.0
C1025 C 0.21251 2.08934 6.9082 0.0
C1026 C 0.23915 2.07811 6.82903 0.0
C1027 C 0.1951 2.14863 6.74873 0.0
C1028 C 0.20746 2.06965 7.91547 0.0
C1029 C 0.20003 2.03122 7.75806 0.0
C1030 C 0.19571 2.00503 8.57732 0.0
C1031 C 0.19933 2.01816 9.58354 0.0
C1032 C 0.20712 2.05721 9.7589 0.0
C1033 C 0.21087 2.08365 8.91102 0.0
H1034 H -0.17767 1.56986 6.77292 0.0
H1035 H -0.25434 1.68217 6.82204 0.0
H1036 H -0.25591 1.6737 4.93278 0.0
H1037 H -0.16307 1.61681 4.55007 0.0
H1038 H -0.14144 1.55247 4.07094 0.0
H1039 H -0.14697 1.56298 5.43346 0.0
H1040 H -0.15757 1.48476 5.51134 0.0
H1041 H -0.15201 1.47391 4.14621 0.0
H1042 H -0.18075 1.48489 4.67738 0.0
H1043 H -0.24806 1.66025 3.02667 0.0
H1044 H -0.23157 1.64119 1.25469 0.0
H1045 H -0.16035 1.53615 2.47004 0.0
C1046 C -0.1949 1.59209 6.39055 0.0
C1047 C -0.21588 1.6267 6.94599 0.0
C1048 C -0.23804 1.65527 6.41352 0.0
C1049 C -0.23913 1.65066 5.34069 0.0
C1050 C -0.21798 1.61689 4.81527 0.0
C1051 C -0.19634 1.58775 5.32386 0.0
C1052 C -0.17591 1.5566 4.57732 0.0
C1053 C -0.15567 1.57324 4.66322 0.0
C1054 C -0.16599 1.49647 4.73776 0.0
C1055 C -0.18928 1.57404 3.56634 0.0
C1056 C -0.21356 1.6085 3.71868 0.0
C1057 C -0.22916 1.63265 2.89733 0.0
C1058 C -0.21961 1.62171 1.89444 0.0
C1059 C -0.19471 1.58692 1.72385 0.0
C1060 C -0.17953 1.56224 2.57296 0.0
H1061 H 0.26129 0.38817 7.05577 0.0
H1062 H 0.24659 0.25268 7.1019 0.0
H1063 H 0.25473 0.24024 5.23116 0.0
H1064 H 0.23246 0.44128 4.74012 0.0
H1065 H 0.25405 0.46284 4.31038 0.0
H1066 H 0.24965 0.45744 5.66618 0.0
H1067 H 0.29556 0.39422 5.87593 0.0
H1068 H 0.30012 0.39945 4.51755 0.0
H1069 H 0.30978 0.33505 5.09116 0.0
H1070 H 0.26018 0.2486 3.33299 0.0
H1071 H 0.26313 0.27628 1.55804 0.0
H1072 H 0.27525 0.40483 2.77106 0.0
C1073 C 0.26012 0.35535 6.67771 0.0
C1074 C 0.25329 0.32141 7.22619 0.0
C1075 C 0.25186 0.27912 6.69896 0.0
C1076 C 0.2565 0.27165 5.63686 0.0
C1077 C 0.26281 0.30641 5.1174 0.0
C1078 C 0.26481 0.34717 5.62208 0.0
C1079 C 0.27048 0.38093 4.87931 0.0
C1080 C 0.25047 0.43904 4.90039 0.0
C1081 C 0.29548 0.37716 5.10457 0.0
C1082 C 0.2706 0.35384 3.87243 0.0
C1083 C 0.26634 0.31067 4.0258 0.0
C1084 C 0.26392 0.28177 3.20407 0.0
C1085 C 0.26556 0.29789 2.19918 0.0
C1086 C 0.26959 0.34248 2.02637 0.0
C1087 C 0.27259 0.37003 2.87706 0.0
loop_
_geom_bond_atom_site_label_1
_geom_bond_atom_site_label_2
_geom_bond_distance
_geom_bond_site_symmetry_2
_ccdc_geom_bond_type
C0 O1 1.306 . S
C0 O3 1.160 . S
O1 C0 1.306 . S
O1 Cd2 2.228 1_556 S
Cd2 O1 2.228 1_554 S
Cd2 O6 2.273 . S
Cd2 O10 2.277 . S
O3 C0 1.160 . S
O3 Cd4 2.203 1_556 S
Cd4 O3 2.203 1_554 S
Cd4 O6 2.411 . S
Cd4 O7 2.333 . S
Cd4 O8 2.352 . S
Cd4 O12 2.277 . S
Cd4 O13 2.356 . S
C5 O10 1.209 . S
C5 O12 1.226 . S
O6 Cd2 2.273 . S
O6 Cd4 2.411 . S
O6 C9 1.320 . S
O7 Cd4 2.333 . S
O7 C9 1.214 . S
O8 Cd4 2.352 . S
O8 C11 1.258 . S
C9 O6 1.320 . S
C9 O7 1.214 . S
O10 Cd2 2.277 . S
O10 C5 1.209 . S
C11 O8 1.258 . S
C11 O13 1.282 . S
O12 Cd4 2.277 . S
O12 C5 1.226 . S
O13 Cd4 2.356 . S
O13 C11 1.282 . S
C14 O15 1.306 . S
C14 O17 1.160 . S
O15 C14 1.306 . S
O15 Cd16 2.228 1_556 S
Cd16 O15 2.228 1_554 S
Cd16 O20 2.273 . S
Cd16 O24 2.277 . S
O17 C14 1.160 . S
O17 Cd18 2.203 1_556 S
Cd18 O17 2.203 1_554 S
Cd18 O20 2.411 . S
Cd18 O21 2.333 . S
Cd18 O22 2.352 . S
Cd18 O26 2.277 . S
Cd18 O27 2.356 . S
C19 O24 1.209 . S
C19 O26 1.226 . S
O20 Cd16 2.273 . S
O20 Cd18 2.411 . S
O20 C23 1.320 . S
O21 Cd18 2.333 . S
O21 C23 1.214 . S
O22 Cd18 2.352 . S
O22 C25 1.258 . S
C23 O20 1.320 . S
C23 O21 1.214 . S
O24 Cd16 2.277 . S
O24 C19 1.209 . S
C25 O22 1.258 . S
C25 O27 1.282 . S
O26 Cd18 2.277 . S
O26 C19 1.226 . S
O27 Cd18 2.356 . S
O27 C25 1.282 . S
C28 O29 1.306 . S
C28 O31 1.160 . S
O29 C28 1.306 . S
O29 Cd30 2.228 1_556 S
Cd30 O29 2.228 1_554 S
Cd30 O34 2.273 . S
Cd30 O38 2.277 . S
O31 C28 1.160 . S
O31 Cd32 2.203 1_556 S
Cd32 O31 2.203 1_554 S
Cd32 O34 2.411 . S
Cd32 O35 2.333 . S
Cd32 O36 2.352 . S
Cd32 O40 2.277 . S
Cd32 O41 2.356 . S
C33 O38 1.209 . S
C33 O40 1.226 . S
O34 Cd30 2.273 . S
O34 Cd32 2.411 . S
O34 C37 1.320 . S
O35 Cd32 2.333 . S
O35 C37 1.214 . S
O36 Cd32 2.352 . S
O36 C39 1.258 . S
C37 O34 1.320 . S
C37 O35 1.214 . S
O38 Cd30 2.277 . S
O38 C33 1.209 . S
C39 O36 1.258 . S
C39 O41 1.282 . S
O40 Cd32 2.277 . S
O40 C33 1.226 . S
O41 Cd32 2.356 . S
O41 C39 1.282 . S
C42 O43 1.306 . S
C42 O45 1.160 . S
O43 C42 1.306 . S
O43 Cd44 2.228 1_556 S
Cd44 O43 2.228 1_554 S
Cd44 O48 2.273 . S
Cd44 O52 2.277 . S
O45 C42 1.160 . S
O45 Cd46 2.203 1_556 S
Cd46 O45 2.203 1_554 S
Cd46 O48 2.411 . S
Cd46 O49 2.333 . S
Cd46 O50 2.352 . S
Cd46 O54 2.277 . S
Cd46 O55 2.356 . S
C47 O52 1.209 . S
C47 O54 1.226 . S
O48 Cd44 2.273 . S
O48 Cd46 2.411 . S
O48 C51 1.320 . S
O49 Cd46 2.333 . S
O49 C51 1.214 . S
O50 Cd46 2.352 . S
O50 C53 1.258 . S
C51 O48 1.320 . S
C51 O49 1.214 . S
O52 Cd44 2.277 . S
O52 C47 1.209 . S
C53 O50 1.258 . S
C53 O55 1.282 . S
O54 Cd46 2.277 . S
O54 C47 1.226 . S
O55 Cd46 2.356 . S
O55 C53 1.282 . S
C56 O57 1.306 . S
C56 O59 1.160 . S
O57 C56 1.306 . S
O57 Cd58 2.228 1_554 S
Cd58 O57 2.228 1_556 S
Cd58 O62 2.273 . S
Cd58 O66 2.277 1_556 S
O59 C56 1.160 . S
O59 Cd60 2.203 . S
Cd60 O59 2.203 . S
Cd60 O62 2.411 1_554 S
Cd60 O63 2.333 1_554 S
Cd60 O64 2.352 . S
Cd60 O68 2.277 . S
Cd60 O69 2.356 1_554 S
C61 O66 1.209 . S
C61 O68 1.226 . S
O62 Cd58 2.273 . S
O62 Cd60 2.411 1_556 S
O62 C65 1.320 . S
O63 Cd60 2.333 1_556 S
O63 C65 1.214 . S
O64 Cd60 2.352 . S
O64 C67 1.258 . S
C65 O62 1.320 . S
C65 O63 1.214 . S
O66 Cd58 2.277 1_554 S
O66 C61 1.209 . S
C67 O64 1.258 . S
C67 O69 1.282 1_554 S
O68 Cd60 2.277 . S
O68 C61 1.226 . S
O69 Cd60 2.356 1_556 S
O69 C67 1.282 1_556 S
C70 O71 1.306 . S
C70 O73 1.160 . S
O71 C70 1.306 . S
O71 Cd72 2.228 1_554 S
Cd72 O71 2.228 1_556 S
Cd72 O76 2.273 . S
Cd72 O80 2.277 1_556 S
O73 C70 1.160 . S
O73 Cd74 2.203 . S
Cd74 O73 2.203 . S
Cd74 O76 2.411 1_554 S
Cd74 O77 2.333 1_554 S
Cd74 O78 2.352 . S
Cd74 O82 2.277 . S
Cd74 O83 2.356 1_554 S
C75 O80 1.209 . S
C75 O82 1.226 . S
O76 Cd72 2.273 . S
O76 Cd74 2.411 1_556 S
O76 C79 1.320 . S
O77 Cd74 2.333 1_556 S
O77 C79 1.214 . S
O78 Cd74 2.352 . S
O78 C81 1.258 . S
C79 O76 1.320 . S
C79 O77 1.214 . S
O80 Cd72 2.277 1_554 S
O80 C75 1.209 . S
C81 O78 1.258 . S
C81 O83 1.282 1_554 S
O82 Cd74 2.277 . S
O82 C75 1.226 . S
O83 Cd74 2.356 1_556 S
O83 C81 1.282 1_556 S
C84 O85 1.306 . S
C84 O87 1.160 . S
O85 C84 1.306 . S
O85 Cd86 2.228 1_554 S
Cd86 O85 2.228 1_556 S
Cd86 O90 2.273 . S
Cd86 O94 2.277 1_556 S
O87 C84 1.160 . S
O87 Cd88 2.203 . S
Cd88 O87 2.203 . S
Cd88 O90 2.411 1_554 S
Cd88 O91 2.333 1_554 S
Cd88 O92 2.352 . S
Cd88 O96 2.277 . S
Cd88 O97 2.356 1_554 S
C89 O94 1.209 . S
C89 O96 1.226 . S
O90 Cd86 2.273 . S
O90 Cd88 2.411 1_556 S
O90 C93 1.320 . S
O91 Cd88 2.333 1_556 S
O91 C93 1.214 . S
O92 Cd88 2.352 . S
O92 C95 1.258 . S
C93 O90 1.320 . S
C93 O91 1.214 . S
O94 Cd86 2.277 1_554 S
O94 C89 1.209 . S
C95 O92 1.258 . S
C95 O97 1.282 1_554 S
O96 Cd88 2.277 . S
O96 C89 1.226 . S
O97 Cd88 2.356 1_556 S
O97 C95 1.282 1_556 S
C98 O99 1.306 . S
C98 O101 1.160 . S
O99 C98 1.306 . S
O99 Cd100 2.228 1_554 S
Cd100 O99 2.228 1_556 S
Cd100 O104 2.273 . S
Cd100 O108 2.277 1_556 S
O101 C98 1.160 . S
O101 Cd102 2.203 . S
Cd102 O101 2.203 . S
Cd102 O104 2.411 1_554 S
Cd102 O105 2.333 1_554 S
Cd102 O106 2.352 . S
Cd102 O110 2.277 . S
Cd102 O111 2.356 1_554 S
C103 O108 1.209 . S
C103 O110 1.226 . S
O104 Cd100 2.273 . S
O104 Cd102 2.411 1_556 S
O104 C107 1.320 . S
O105 Cd102 2.333 1_556 S
O105 C107 1.214 . S
O106 Cd102 2.352 . S
O106 C109 1.258 . S
C107 O104 1.320 . S
C107 O105 1.214 . S
O108 Cd100 2.277 1_554 S
O108 C103 1.209 . S
C109 O106 1.258 . S
C109 O111 1.282 1_554 S
O110 Cd102 2.277 . S
O110 C103 1.226 . S
O111 Cd102 2.356 1_556 S
O111 C109 1.282 1_556 S
C112 O113 1.306 . S
C112 O115 1.160 . S
O113 C112 1.306 . S
O113 Cd114 2.228 . S
Cd114 O113 2.228 . S
Cd114 O118 2.273 . S
Cd114 O122 2.277 . S
O115 C112 1.160 . S
O115 Cd116 2.203 . S
Cd116 O115 2.203 . S
Cd116 O118 2.411 . S
Cd116 O119 2.333 . S
Cd116 O120 2.352 . S
Cd116 O124 2.277 . S
Cd116 O125 2.356 . S
C117 O122 1.209 . S
C117 O124 1.226 . S
O118 Cd114 2.273 . S
O118 Cd116 2.411 . S
O118 C121 1.320 . S
O119 Cd116 2.333 . S
O119 C121 1.214 . S
O120 Cd116 2.352 . S
O120 C123 1.258 . S
C121 O118 1.320 . S
C121 O119 1.214 . S
O122 Cd114 2.277 . S
O122 C117 1.209 . S
C123 O120 1.258 . S
C123 O125 1.282 . S
O124 Cd116 2.277 . S
O124 C117 1.226 . S
O125 Cd116 2.356 . S
O125 C123 1.282 . S
C126 O127 1.306 . S
C126 O129 1.160 . S
O127 C126 1.306 . S
O127 Cd128 2.228 . S
Cd128 O127 2.228 . S
Cd128 O132 2.273 . S
Cd128 O136 2.277 . S
O129 C126 1.160 . S
O129 Cd130 2.203 . S
Cd130 O129 2.203 . S
Cd130 O132 2.411 . S
Cd130 O133 2.333 . S
Cd130 O134 2.352 . S
Cd130 O138 2.277 . S
Cd130 O139 2.356 . S
C131 O136 1.209 . S
C131 O138 1.226 . S
O132 Cd128 2.273 . S
O132 Cd130 2.411 . S
O132 C135 1.320 . S
O133 Cd130 2.333 . S
O133 C135 1.214 . S
O134 Cd130 2.352 . S
O134 C137 1.258 . S
C135 O132 1.320 . S
C135 O133 1.214 . S
O136 Cd128 2.277 . S
O136 C131 1.209 . S
C137 O134 1.258 . S
C137 O139 1.282 . S
O138 Cd130 2.277 . S
O138 C131 1.226 . S
O139 Cd130 2.356 . S
O139 C137 1.282 . S
C140 O141 1.306 . S
C140 O143 1.160 . S
O141 C140 1.306 . S
O141 Cd142 2.228 . S
Cd142 O141 2.228 . S
Cd142 O146 2.273 . S
Cd142 O150 2.277 . S
O143 C140 1.160 . S
O143 Cd144 2.203 . S
Cd144 O143 2.203 . S
Cd144 O146 2.411 . S
Cd144 O147 2.333 . S
Cd144 O148 2.352 . S
Cd144 O152 2.277 . S
Cd144 O153 2.356 . S
C145 O150 1.209 . S
C145 O152 1.226 . S
O146 Cd142 2.273 . S
O146 Cd144 2.411 . S
O146 C149 1.320 . S
O147 Cd144 2.333 . S
O147 C149 1.214 . S
O148 Cd144 2.352 . S
O148 C151 1.258 . S
C149 O146 1.320 . S
C149 O147 1.214 . S
O150 Cd142 2.277 . S
O150 C145 1.209 . S
C151 O148 1.258 . S
C151 O153 1.282 . S
O152 Cd144 2.277 . S
O152 C145 1.226 . S
O153 Cd144 2.356 . S
O153 C151 1.282 . S
C154 O155 1.306 . S
C154 O157 1.160 . S
O155 C154 1.306 . S
O155 Cd156 2.228 . S
Cd156 O155 2.228 . S
Cd156 O160 2.273 . S
Cd156 O164 2.277 . S
O157 C154 1.160 . S
O157 Cd158 2.203 . S
Cd158 O157 2.203 . S
Cd158 O160 2.411 . S
Cd158 O161 2.333 . S
Cd158 O162 2.352 . S
Cd158 O166 2.277 . S
Cd158 O167 2.356 . S
C159 O164 1.209 . S
C159 O166 1.226 . S
O160 Cd156 2.273 . S
O160 Cd158 2.411 . S
O160 C163 1.320 . S
O161 Cd158 2.333 . S
O161 C163 1.214 . S
O162 Cd158 2.352 . S
O162 C165 1.258 . S
C163 O160 1.320 . S
C163 O161 1.214 . S
O164 Cd156 2.277 . S
O164 C159 1.209 . S
C165 O162 1.258 . S
C165 O167 1.282 . S
O166 Cd158 2.277 . S
O166 C159 1.226 . S
O167 Cd158 2.356 . S
O167 C165 1.282 . S
C168 O169 1.306 . S
C168 O171 1.160 . S
O169 C168 1.306 . S
O169 Cd170 2.228 . S
Cd170 O169 2.228 . S
Cd170 O174 2.273 . S
Cd170 O178 2.277 . S
O171 C168 1.160 . S
O171 Cd172 2.203 . S
Cd172 O171 2.203 . S
Cd172 O174 2.411 . S
Cd172 O175 2.333 . S
Cd172 O176 2.352 . S
Cd172 O180 2.277 . S
Cd172 O181 2.356 . S
C173 O178 1.209 . S
C173 O180 1.226 . S
O174 Cd170 2.273 . S
O174 Cd172 2.411 . S
O174 C177 1.320 . S
O175 Cd172 2.333 . S
O175 C177 1.214 . S
O176 Cd172 2.352 . S
O176 C179 1.258 . S
C177 O174 1.320 . S
C177 O175 1.214 . S
O178 Cd170 2.277 . S
O178 C173 1.209 . S
C179 O176 1.258 . S
C179 O181 1.282 . S
O180 Cd172 2.277 . S
O180 C173 1.226 . S
O181 Cd172 2.356 . S
O181 C179 1.282 . S
C182 O183 1.306 . S
C182 O185 1.160 . S
O183 C182 1.306 . S
O183 Cd184 2.228 . S
Cd184 O183 2.228 . S
Cd184 O188 2.273 . S
Cd184 O192 2.277 . S
O185 C182 1.160 . S
O185 Cd186 2.203 . S
Cd186 O185 2.203 . S
Cd186 O188 2.411 . S
Cd186 O189 2.333 . S
Cd186 O190 2.352 . S
Cd186 O194 2.277 . S
Cd186 O195 2.356 . S
C187 O192 1.209 . S
C187 O194 1.226 . S
O188 Cd184 2.273 . S
O188 Cd186 2.411 . S
O188 C191 1.320 . S
O189 Cd186 2.333 . S
O189 C191 1.214 . S
O190 Cd186 2.352 . S
O190 C193 1.258 . S
C191 O188 1.320 . S
C191 O189 1.214 . S
O192 Cd184 2.277 . S
O192 C187 1.209 . S
C193 O190 1.258 . S
C193 O195 1.282 . S
O194 Cd186 2.277 . S
O194 C187 1.226 . S
O195 Cd186 2.356 . S
O195 C193 1.282 . S
C196 O197 1.306 . S
C196 O199 1.160 . S
O197 C196 1.306 . S
O197 Cd198 2.228 . S
Cd198 O197 2.228 . S
Cd198 O202 2.273 . S
Cd198 O206 2.277 . S
O199 C196 1.160 . S
O199 Cd200 2.203 . S
Cd200 O199 2.203 . S
Cd200 O202 2.411 . S
Cd200 O203 2.333 . S
Cd200 O204 2.352 . S
Cd200 O208 2.277 . S
Cd200 O209 2.356 . S
C201 O206 1.209 . S
C201 O208 1.226 . S
O202 Cd198 2.273 . S
O202 Cd200 2.411 . S
O202 C205 1.320 . S
O203 Cd200 2.333 . S
O203 C205 1.214 . S
O204 Cd200 2.352 . S
O204 C207 1.258 . S
C205 O202 1.320 . S
C205 O203 1.214 . S
O206 Cd198 2.277 . S
O206 C201 1.209 . S
C207 O204 1.258 . S
C207 O209 1.282 . S
O208 Cd200 2.277 . S
O208 C201 1.226 . S
O209 Cd200 2.356 . S
O209 C207 1.282 . S
C210 O211 1.306 . S
C210 O213 1.160 . S
O211 C210 1.306 . S
O211 Cd212 2.228 . S
Cd212 O211 2.228 . S
Cd212 O216 2.273 . S
Cd212 O220 2.277 . S
O213 C210 1.160 . S
O213 Cd214 2.203 . S
Cd214 O213 2.203 . S
Cd214 O216 2.411 . S
Cd214 O217 2.333 . S
Cd214 O218 2.352 . S
Cd214 O222 2.277 . S
Cd214 O223 2.356 . S
C215 O220 1.209 . S
C215 O222 1.226 . S
O216 Cd212 2.273 . S
O216 Cd214 2.411 . S
O216 C219 1.320 . S
O217 Cd214 2.333 . S
O217 C219 1.214 . S
O218 Cd214 2.352 . S
O218 C221 1.258 . S
C219 O216 1.320 . S
C219 O217 1.214 . S
O220 Cd212 2.277 . S
O220 C215 1.209 . S
C221 O218 1.258 . S
C221 O223 1.282 . S
O222 Cd214 2.277 . S
O222 C215 1.226 . S
O223 Cd214 2.356 . S
O223 C221 1.282 . S
H224 C236 0.930 . S
H225 C238 0.930 . S
H226 C239 0.930 . S
H227 C243 0.959 . S
H228 C243 0.959 . S
H229 C243 0.961 . S
H230 C244 0.960 . S
H231 C244 0.961 . S
H232 C244 0.959 . S
H233 C247 0.929 . S
H234 C248 0.931 . S
H235 C250 0.930 . S
C236 H224 0.930 . S
C236 C237 1.399 1_556 S
C236 C241 1.399 . S
C237 C236 1.399 1_554 S
C237 C238 1.376 . S
C238 H225 0.930 . S
C238 C237 1.376 . S
C238 C239 1.388 . S
C239 H226 0.930 . S
C239 C238 1.388 . S
C239 C240 1.390 . S
C240 C239 1.390 . S
C240 C241 1.394 1_554 S
C240 C246 1.465 . S
C241 C236 1.399 . S
C241 C240 1.394 1_556 S
C241 C242 1.516 . S
C242 C241 1.516 . S
C242 C243 1.502 . S
C242 C244 1.561 . S
C242 C245 1.526 . S
C243 H227 0.959 . S
C243 H228 0.959 . S
C243 H229 0.961 . S
C243 C242 1.502 . S
C244 H230 0.960 . S
C244 H231 0.961 . S
C244 H232 0.959 . S
C244 C242 1.561 . S
C245 C242 1.526 . S
C245 C246 1.396 1_556 S
C245 C250 1.390 . S
C246 C240 1.465 . S
C246 C245 1.396 1_554 S
C246 C247 1.399 . S
C247 H233 0.929 . S
C247 C246 1.399 . S
C247 C248 1.385 . S
C248 H234 0.931 . S
C248 C247 1.385 . S
C248 C249 1.389 . S
C249 C248 1.389 . S
C249 C250 1.387 1_554 S
C250 H235 0.930 . S
C250 C245 1.390 . S
C250 C249 1.387 1_556 S
H251 C263 0.930 . S
H252 C265 0.930 . S
H253 C266 0.930 . S
H254 C270 0.959 . S
H255 C270 0.959 . S
H256 C270 0.961 . S
H257 C271 0.960 . S
H258 C271 0.961 . S
H259 C271 0.959 . S
H260 C274 0.929 . S
H261 C275 0.931 . S
H262 C277 0.930 . S
C263 H251 0.930 . S
C263 C264 1.400 1_554 S
C263 C268 1.399 . S
C264 C263 1.400 1_556 S
C264 C265 1.376 . S
C265 H252 0.930 . S
C265 C264 1.376 . S
C265 C266 1.388 . S
C266 H253 0.930 . S
C266 C265 1.388 . S
C266 C267 1.390 . S
C267 C266 1.390 . S
C267 C268 1.394 1_556 S
C267 C273 1.465 . S
C268 C263 1.399 . S
C268 C267 1.394 1_554 S
C268 C269 1.516 . S
C269 C268 1.516 . S
C269 C270 1.502 . S
C269 C271 1.561 . S
C269 C272 1.526 . S
C270 H254 0.959 . S
C270 H255 0.959 . S
C270 H256 0.961 . S
C270 C269 1.502 . S
C271 H257 0.960 . S
C271 H258 0.961 . S
C271 H259 0.959 . S
C271 C269 1.561 . S
C272 C269 1.526 . S
C272 C273 1.396 1_554 S
C272 C277 1.390 . S
C273 C267 1.465 . S
C273 C272 1.396 1_556 S
C273 C274 1.399 . S
C274 H260 0.929 . S
C274 C273 1.399 . S
C274 C275 1.385 . S
C275 H261 0.931 . S
C275 C274 1.385 . S
C275 C276 1.389 1_556 S
C276 C275 1.389 1_554 S
C276 C277 1.387 . S
C277 H262 0.930 . S
C277 C272 1.390 . S
C277 C276 1.387 . S
H278 C290 0.930 . S
H279 C292 0.930 . S
H280 C293 0.930 . S
H281 C297 0.959 . S
H282 C297 0.959 . S
H283 C297 0.961 . S
H284 C298 0.960 . S
H285 C298 0.961 . S
H286 C298 0.959 . S
H287 C301 0.929 . S
H288 C302 0.931 . S
H289 C304 0.930 . S
C290 H278 0.930 . S
C290 C291 1.399 1_556 S
C290 C295 1.399 . S
C291 C290 1.399 1_554 S
C291 C292 1.376 . S
C292 H279 0.930 . S
C292 C291 1.376 . S
C292 C293 1.388 . S
C293 H280 0.930 . S
C293 C292 1.388 . S
C293 C294 1.390 . S
C294 C293 1.390 . S
C294 C295 1.394 1_554 S
C294 C300 1.465 . S
C295 C290 1.399 . S
C295 C294 1.394 1_556 S
C295 C296 1.516 . S
C296 C295 1.516 . S
C296 C297 1.502 . S
C296 C298 1.561 . S
C296 C299 1.526 . S
C297 H281 0.959 . S
C297 H282 0.959 . S
C297 H283 0.961 . S
C297 C296 1.502 . S
C298 H284 0.960 . S
C298 H285 0.961 . S
C298 H286 0.959 . S
C298 C296 1.561 . S
C299 C296 1.526 . S
C299 C300 1.396 1_556 S
C299 C304 1.390 . S
C300 C294 1.465 . S
C300 C299 1.396 1_554 S
C300 C301 1.399 . S
C301 H287 0.929 . S
C301 C300 1.399 . S
C301 C302 1.385 . S
C302 H288 0.931 . S
C302 C301 1.385 . S
C302 C303 1.389 . S
C303 C302 1.389 . S
C303 C304 1.387 1_554 S
C304 H289 0.930 . S
C304 C299 1.390 . S
C304 C303 1.387 1_556 S
H305 C317 0.930 . S
H306 C319 0.930 . S
H307 C320 0.930 . S
H308 C324 0.959 . S
H309 C324 0.959 . S
H310 C324 0.961 . S
H311 C325 0.960 . S
H312 C325 0.961 . S
H313 C325 0.959 . S
H314 C328 0.929 . S
H315 C329 0.931 . S
H316 C331 0.930 . S
C317 H305 0.930 . S
C317 C318 1.405 . S
C317 C322 1.399 . S
C318 C317 1.405 . S
C318 C319 1.369 1_554 S
C319 H306 0.930 . S
C319 C318 1.369 1_556 S
C319 C320 1.388 . S
C320 H307 0.930 . S
C320 C319 1.388 . S
C320 C321 1.390 . S
C321 C320 1.390 . S
C321 C322 1.394 1_556 S
C321 C327 1.465 . S
C322 C317 1.399 . S
C322 C321 1.394 1_554 S
C322 C323 1.516 . S
C323 C322 1.516 . S
C323 C324 1.502 . S
C323 C325 1.561 1_554 S
C323 C326 1.526 . S
C324 H308 0.959 . S
C324 H309 0.959 . S
C324 H310 0.961 . S
C324 C323 1.502 . S
C325 H311 0.960 . S
C325 H312 0.961 . S
C325 H313 0.959 . S
C325 C323 1.561 1_556 S
C326 C323 1.526 . S
C326 C327 1.396 1_554 S
C326 C331 1.390 . S
C327 C321 1.465 . S
C327 C326 1.396 1_556 S
C327 C328 1.399 . S
C328 H314 0.929 . S
C328 C327 1.399 . S
C328 C329 1.385 . S
C329 H315 0.931 . S
C329 C328 1.385 . S
C329 C330 1.389 1_556 S
C330 C329 1.389 1_554 S
C330 C331 1.387 . S
C331 H316 0.930 . S
C331 C326 1.390 . S
C331 C330 1.387 . S
H332 C344 0.930 . S
H333 C346 0.930 . S
H334 C347 0.930 . S
H335 C351 0.960 1_565 S
H336 C351 0.963 1_565 S
H337 C351 0.957 . S
H338 C352 0.987 . S
H339 C352 0.937 1_565 S
H340 C352 0.955 1_565 S
H341 C355 0.929 . S
H342 C356 0.931 . S
H343 C358 0.930 . S
C344 H332 0.930 . S
C344 C345 1.399 . S
C344 C349 1.399 . S
C345 C344 1.399 . S
C345 C346 1.376 . S
C346 H333 0.930 . S
C346 C345 1.376 . S
C346 C347 1.388 . S
C347 H334 0.930 . S
C347 C346 1.388 . S
C347 C348 1.390 . S
C348 C347 1.390 . S
C348 C349 1.394 . S
C348 C354 1.465 1_545 S
C349 C344 1.399 . S
C349 C348 1.394 . S
C349 C350 1.527 . S
C350 C349 1.527 . S
C350 C351 1.502 . S
C350 C352 1.561 . S
C350 C353 1.515 1_545 S
C351 H335 0.960 1_545 S
C351 H336 0.963 1_545 S
C351 H337 0.957 . S
C351 C350 1.502 . S
C352 H338 0.987 . S
C352 H339 0.937 1_545 S
C352 H340 0.955 1_545 S
C352 C350 1.561 . S
C353 C350 1.515 1_565 S
C353 C354 1.396 . S
C353 C358 1.390 . S
C354 C348 1.465 1_565 S
C354 C353 1.396 . S
C354 C355 1.399 . S
C355 H341 0.929 . S
C355 C354 1.399 . S
C355 C356 1.385 . S
C356 H342 0.931 . S
C356 C355 1.385 . S
C356 C357 1.389 . S
C357 C356 1.389 . S
C357 C358 1.387 . S
C358 H343 0.930 . S
C358 C353 1.390 . S
C358 C357 1.387 . S
H359 C371 0.930 . S
H360 C373 0.930 . S
H361 C374 0.930 . S
H362 C378 0.960 1_455 S
H363 C378 0.959 1_455 S
H364 C378 0.961 . S
H365 C379 0.958 1_655 S
H366 C379 0.963 . S
H367 C379 0.959 . S
H368 C382 0.929 . S
H369 C383 0.931 . S
H370 C385 0.930 . S
C371 H359 0.930 . S
C371 C372 1.399 . S
C371 C376 1.399 . S
C372 C371 1.399 . S
C372 C373 1.376 . S
C373 H360 0.930 . S
C373 C372 1.376 . S
C373 C374 1.388 . S
C374 H361 0.930 . S
C374 C373 1.388 . S
C374 C375 1.390 . S
C375 C374 1.390 . S
C375 C376 1.394 . S
C375 C381 1.465 1_655 S
C376 C371 1.399 . S
C376 C375 1.394 . S
C376 C377 1.517 . S
C377 C376 1.517 . S
C377 C378 1.502 . S
C377 C379 1.561 1_655 S
C377 C380 1.524 1_655 S
C378 H362 0.960 1_655 S
C378 H363 0.959 1_655 S
C378 H364 0.961 . S
C378 C377 1.502 . S
C379 H365 0.958 1_455 S
C379 H366 0.963 . S
C379 H367 0.959 . S
C379 C377 1.561 1_455 S
C380 C377 1.524 1_455 S
C380 C381 1.396 . S
C380 C385 1.390 . S
C381 C375 1.465 1_455 S
C381 C380 1.396 . S
C381 C382 1.399 . S
C382 H368 0.929 . S
C382 C381 1.399 . S
C382 C383 1.385 . S
C383 H369 0.931 . S
C383 C382 1.385 . S
C383 C384 1.389 . S
C384 C383 1.389 . S
C384 C385 1.387 . S
C385 H370 0.930 . S
C385 C380 1.390 . S
C385 C384 1.387 . S
H386 C398 0.930 . S
H387 C400 0.930 . S
H388 C401 0.930 . S
H389 C405 0.960 . S
H390 C405 0.963 . S
H391 C405 0.957 1_545 S
H392 C406 0.940 1_545 S
H393 C406 0.979 . S
H394 C406 0.961 . S
H395 C409 0.929 . S
H396 C410 0.931 . S
H397 C412 0.930 . S
C398 H386 0.930 . S
C398 C399 1.399 . S
C398 C403 1.399 . S
C399 C398 1.399 . S
C399 C400 1.376 . S
C400 H387 0.930 . S
C400 C399 1.376 . S
C400 C401 1.388 . S
C401 H388 0.930 . S
C401 C400 1.388 . S
C401 C402 1.390 . S
C402 C401 1.390 . S
C402 C403 1.394 . S
C402 C408 1.465 1_545 S
C403 C398 1.399 . S
C403 C402 1.394 . S
C403 C404 1.518 1_545 S
C404 C403 1.518 1_565 S
C404 C405 1.502 . S
C404 C406 1.561 . S
C404 C407 1.524 . S
C405 H389 0.960 . S
C405 H390 0.963 . S
C405 H391 0.957 1_565 S
C405 C404 1.502 . S
C406 H392 0.940 1_565 S
C406 H393 0.979 . S
C406 H394 0.961 . S
C406 C404 1.561 . S
C407 C404 1.524 . S
C407 C408 1.396 . S
C407 C412 1.390 . S
C408 C402 1.465 1_565 S
C408 C407 1.396 . S
C408 C409 1.399 . S
C409 H395 0.929 . S
C409 C408 1.399 . S
C409 C410 1.385 . S
C410 H396 0.931 . S
C410 C409 1.385 . S
C410 C411 1.389 . S
C411 C410 1.389 . S
C411 C412 1.387 . S
C412 H397 0.930 . S
C412 C407 1.390 . S
C412 C411 1.387 . S
H413 C425 0.930 . S
H414 C427 0.930 . S
H415 C428 0.930 . S
H416 C432 0.966 . S
H417 C432 1.002 . S
H418 C432 0.916 1_455 S
H419 C433 0.957 . S
H420 C433 0.964 1_655 S
H421 C433 0.959 1_655 S
H422 C436 0.929 . S
H423 C437 0.931 . S
H424 C439 0.930 . S
C425 H413 0.930 . S
C425 C426 1.399 . S
C425 C430 1.399 . S
C426 C425 1.399 . S
C426 C427 1.376 . S
C427 H414 0.930 . S
C427 C426 1.376 . S
C427 C428 1.388 . S
C428 H415 0.930 . S
C428 C427 1.388 . S
C428 C429 1.390 . S
C429 C428 1.390 . S
C429 C430 1.394 . S
C429 C435 1.465 1_455 S
C430 C425 1.399 . S
C430 C429 1.394 . S
C430 C431 1.512 1_455 S
C431 C430 1.512 1_655 S
C431 C432 1.501 . S
C431 C433 1.561 1_655 S
C431 C434 1.530 . S
C432 H416 0.966 . S
C432 H417 1.002 . S
C432 H418 0.916 1_655 S
C432 C431 1.501 . S
C433 H419 0.957 . S
C433 H420 0.964 1_455 S
C433 H421 0.959 1_455 S
C433 C431 1.561 1_455 S
C434 C431 1.530 . S
C434 C435 1.396 . S
C434 C439 1.390 . S
C435 C429 1.465 1_655 S
C435 C434 1.396 . S
C435 C436 1.399 . S
C436 H422 0.929 . S
C436 C435 1.399 . S
C436 C437 1.385 . S
C437 H423 0.931 . S
C437 C436 1.385 . S
C437 C438 1.389 . S
C438 C437 1.389 . S
C438 C439 1.387 . S
C439 H424 0.930 . S
C439 C434 1.390 . S
C439 C438 1.387 . S
H440 C452 0.930 . S
H441 C454 0.930 . S
H442 C455 0.930 . S
H443 C459 0.959 . S
H444 C459 0.959 . S
H445 C459 0.961 . S
H446 C460 0.960 . S
H447 C460 0.961 . S
H448 C460 0.959 . S
H449 C463 0.929 . S
H450 C464 0.931 . S
H451 C466 0.930 . S
C452 H440 0.930 . S
C452 C453 1.399 1_556 S
C452 C457 1.399 . S
C453 C452 1.399 1_554 S
C453 C454 1.376 . S
C454 H441 0.930 . S
C454 C453 1.376 . S
C454 C455 1.388 . S
C455 H442 0.930 . S
C455 C454 1.388 . S
C455 C456 1.390 . S
C456 C455 1.390 . S
C456 C457 1.394 1_554 S
C456 C462 1.465 . S
C457 C452 1.399 . S
C457 C456 1.394 1_556 S
C457 C458 1.516 . S
C458 C457 1.516 . S
C458 C459 1.502 . S
C458 C460 1.561 . S
C458 C461 1.526 . S
C459 H443 0.959 . S
C459 H444 0.959 . S
C459 H445 0.961 . S
C459 C458 1.502 . S
C460 H446 0.960 . S
C460 H447 0.961 . S
C460 H448 0.959 . S
C460 C458 1.561 . S
C461 C458 1.526 . S
C461 C462 1.396 1_556 S
C461 C466 1.390 . S
C462 C456 1.465 . S
C462 C461 1.396 1_554 S
C462 C463 1.399 . S
C463 H449 0.929 . S
C463 C462 1.399 . S
C463 C464 1.385 . S
C464 H450 0.931 . S
C464 C463 1.385 . S
C464 C465 1.389 . S
C465 C464 1.389 . S
C465 C466 1.387 1_554 S
C466 H451 0.930 . S
C466 C461 1.390 . S
C466 C465 1.387 1_556 S
H467 C479 0.930 . S
H468 C481 0.930 . S
H469 C482 0.930 . S
H470 C486 0.959 . S
H471 C486 0.959 . S
H472 C486 0.961 . S
H473 C487 0.960 . S
H474 C487 0.961 . S
H475 C487 0.959 . S
H476 C490 0.929 . S
H477 C491 0.931 . S
H478 C493 0.930 . S
C479 H467 0.930 . S
C479 C480 1.399 1_556 S
C479 C484 1.399 . S
C480 C479 1.399 1_554 S
C480 C481 1.376 . S
C481 H468 0.930 . S
C481 C480 1.376 . S
C481 C482 1.388 . S
C482 H469 0.930 . S
C482 C481 1.388 . S
C482 C483 1.390 . S
C483 C482 1.390 . S
C483 C484 1.394 1_554 S
C483 C489 1.465 . S
C484 C479 1.399 . S
C484 C483 1.394 1_556 S
C484 C485 1.516 . S
C485 C484 1.516 . S
C485 C486 1.502 . S
C485 C487 1.561 . S
C485 C488 1.526 . S
C486 H470 0.959 . S
C486 H471 0.959 . S
C486 H472 0.961 . S
C486 C485 1.502 . S
C487 H473 0.960 . S
C487 H474 0.961 . S
C487 H475 0.959 . S
C487 C485 1.561 . S
C488 C485 1.526 . S
C488 C489 1.396 1_556 S
C488 C493 1.390 . S
C489 C483 1.465 . S
C489 C488 1.396 1_554 S
C489 C490 1.399 . S
C490 H476 0.929 . S
C490 C489 1.399 . S
C490 C491 1.385 . S
C491 H477 0.931 . S
C491 C490 1.385 . S
C491 C492 1.389 . S
C492 C491 1.389 . S
C492 C493 1.387 1_554 S
C493 H478 0.930 . S
C493 C488 1.390 . S
C493 C492 1.387 1_556 S
H494 C506 0.930 . S
H495 C508 0.930 . S
H496 C509 0.930 . S
H497 C513 0.959 . S
H498 C513 0.959 . S
H499 C513 0.961 . S
H500 C514 0.960 . S
H501 C514 0.961 . S
H502 C514 0.959 . S
H503 C517 0.929 . S
H504 C518 0.931 . S
H505 C520 0.930 . S
C506 H494 0.930 . S
C506 C507 1.399 1_556 S
C506 C511 1.399 . S
C507 C506 1.399 1_554 S
C507 C508 1.376 . S
C508 H495 0.930 . S
C508 C507 1.376 . S
C508 C509 1.388 . S
C509 H496 0.930 . S
C509 C508 1.388 . S
C509 C510 1.390 . S
C510 C509 1.390 . S
C510 C511 1.394 1_554 S
C510 C516 1.465 . S
C511 C506 1.399 . S
C511 C510 1.394 1_556 S
C511 C512 1.516 . S
C512 C511 1.516 . S
C512 C513 1.502 . S
C512 C514 1.561 . S
C512 C515 1.526 . S
C513 H497 0.959 . S
C513 H498 0.959 . S
C513 H499 0.961 . S
C513 C512 1.502 . S
C514 H500 0.960 . S
C514 H501 0.961 . S
C514 H502 0.959 . S
C514 C512 1.561 . S
C515 C512 1.526 . S
C515 C516 1.396 1_556 S
C515 C520 1.390 . S
C516 C510 1.465 . S
C516 C515 1.396 1_554 S
C516 C517 1.399 . S
C517 H503 0.929 . S
C517 C516 1.399 . S
C517 C518 1.385 . S
C518 H504 0.931 . S
C518 C517 1.385 . S
C518 C519 1.389 . S
C519 C518 1.389 . S
C519 C520 1.387 1_554 S
C520 H505 0.930 . S
C520 C515 1.390 . S
C520 C519 1.387 1_556 S
H521 C533 0.930 . S
H522 C535 0.930 . S
H523 C536 0.930 . S
H524 C540 0.959 . S
H525 C540 0.959 . S
H526 C540 0.961 . S
H527 C541 0.960 . S
H528 C541 0.961 . S
H529 C541 0.959 . S
H530 C544 0.929 . S
H531 C545 0.931 . S
H532 C547 0.930 . S
C533 H521 0.930 . S
C533 C534 1.399 1_556 S
C533 C538 1.399 . S
C534 C533 1.399 1_554 S
C534 C535 1.376 . S
C535 H522 0.930 . S
C535 C534 1.376 . S
C535 C536 1.388 . S
C536 H523 0.930 . S
C536 C535 1.388 . S
C536 C537 1.390 . S
C537 C536 1.390 . S
C537 C538 1.394 1_554 S
C537 C543 1.465 . S
C538 C533 1.399 . S
C538 C537 1.394 1_556 S
C538 C539 1.516 . S
C539 C538 1.516 . S
C539 C540 1.502 . S
C539 C541 1.561 . S
C539 C542 1.526 . S
C540 H524 0.959 . S
C540 H525 0.959 . S
C540 H526 0.961 . S
C540 C539 1.502 . S
C541 H527 0.960 . S
C541 H528 0.961 . S
C541 H529 0.959 . S
C541 C539 1.561 . S
C542 C539 1.526 . S
C542 C543 1.396 1_556 S
C542 C547 1.390 . S
C543 C537 1.465 . S
C543 C542 1.396 1_554 S
C543 C544 1.399 . S
C544 H530 0.929 . S
C544 C543 1.399 . S
C544 C545 1.385 . S
C545 H531 0.931 . S
C545 C544 1.385 . S
C545 C546 1.389 . S
C546 C545 1.389 . S
C546 C547 1.387 1_554 S
C547 H532 0.930 . S
C547 C542 1.390 . S
C547 C546 1.387 1_556 S
H548 C560 0.930 . S
H549 C562 0.930 . S
H550 C563 0.930 . S
H551 C567 0.959 . S
H552 C567 0.959 . S
H553 C567 0.961 . S
H554 C568 0.960 . S
H555 C568 0.961 . S
H556 C568 0.959 . S
H557 C571 0.929 . S
H558 C572 0.931 . S
H559 C574 0.930 . S
C560 H548 0.930 . S
C560 C561 1.399 . S
C560 C565 1.399 . S
C561 C560 1.399 . S
C561 C562 1.376 . S
C562 H549 0.930 . S
C562 C561 1.376 . S
C562 C563 1.388 . S
C563 H550 0.930 . S
C563 C562 1.388 . S
C563 C564 1.390 . S
C564 C563 1.390 . S
C564 C565 1.394 . S
C564 C570 1.465 . S
C565 C560 1.399 . S
C565 C564 1.394 . S
C565 C566 1.516 . S
C566 C565 1.516 . S
C566 C567 1.502 . S
C566 C568 1.561 . S
C566 C569 1.526 . S
C567 H551 0.959 . S
C567 H552 0.959 . S
C567 H553 0.961 . S
C567 C566 1.502 . S
C568 H554 0.960 . S
C568 H555 0.961 . S
C568 H556 0.959 . S
C568 C566 1.561 . S
C569 C566 1.526 . S
C569 C570 1.396 . S
C569 C574 1.390 . S
C570 C564 1.465 . S
C570 C569 1.396 . S
C570 C571 1.399 . S
C571 H557 0.929 . S
C571 C570 1.399 . S
C571 C572 1.385 . S
C572 H558 0.931 . S
C572 C571 1.385 . S
C572 C573 1.389 . S
C573 C572 1.389 . S
C573 C574 1.387 . S
C574 H559 0.930 . S
C574 C569 1.390 . S
C574 C573 1.387 . S
H575 C587 0.930 . S
H576 C589 0.930 . S
H577 C590 0.930 . S
H578 C594 0.959 . S
H579 C594 0.959 . S
H580 C594 0.961 . S
H581 C595 0.960 . S
H582 C595 0.961 . S
H583 C595 0.959 . S
H584 C598 0.929 . S
H585 C599 0.931 . S
H586 C601 0.930 . S
C587 H575 0.930 . S
C587 C588 1.399 . S
C587 C592 1.399 . S
C588 C587 1.399 . S
C588 C589 1.376 . S
C589 H576 0.930 . S
C589 C588 1.376 . S
C589 C590 1.388 . S
C590 H577 0.930 . S
C590 C589 1.388 . S
C590 C591 1.390 . S
C591 C590 1.390 . S
C591 C592 1.394 . S
C591 C597 1.465 . S
C592 C587 1.399 . S
C592 C591 1.394 . S
C592 C593 1.516 . S
C593 C592 1.516 . S
C593 C594 1.502 . S
C593 C595 1.561 . S
C593 C596 1.526 . S
C594 H578 0.959 . S
C594 H579 0.959 . S
C594 H580 0.961 . S
C594 C593 1.502 . S
C595 H581 0.960 . S
C595 H582 0.961 . S
C595 H583 0.959 . S
C595 C593 1.561 . S
C596 C593 1.526 . S
C596 C597 1.396 . S
C596 C601 1.390 . S
C597 C591 1.465 . S
C597 C596 1.396 . S
C597 C598 1.399 . S
C598 H584 0.929 . S
C598 C597 1.399 . S
C598 C599 1.385 . S
C599 H585 0.931 . S
C599 C598 1.385 . S
C599 C600 1.389 . S
C600 C599 1.389 . S
C600 C601 1.387 . S
C601 H586 0.930 . S
C601 C596 1.390 . S
C601 C600 1.387 . S
H602 C614 0.930 . S
H603 C616 0.930 . S
H604 C617 0.930 . S
H605 C621 0.959 . S
H606 C621 0.959 . S
H607 C621 0.961 . S
H608 C622 0.960 . S
H609 C622 0.961 . S
H610 C622 0.959 . S
H611 C625 0.929 . S
H612 C626 0.931 . S
H613 C628 0.930 . S
C614 H602 0.930 . S
C614 C615 1.399 . S
C614 C619 1.399 . S
C615 C614 1.399 . S
C615 C616 1.376 . S
C616 H603 0.930 . S
C616 C615 1.376 . S
C616 C617 1.388 . S
C617 H604 0.930 . S
C617 C616 1.388 . S
C617 C618 1.390 . S
C618 C617 1.390 . S
C618 C619 1.394 . S
C618 C624 1.465 . S
C619 C614 1.399 . S
C619 C618 1.394 . S
C619 C620 1.516 . S
C620 C619 1.516 . S
C620 C621 1.502 . S
C620 C622 1.561 . S
C620 C623 1.526 . S
C621 H605 0.959 . S
C621 H606 0.959 . S
C621 H607 0.961 . S
C621 C620 1.502 . S
C622 H608 0.960 . S
C622 H609 0.961 . S
C622 H610 0.959 . S
C622 C620 1.561 . S
C623 C620 1.526 . S
C623 C624 1.396 . S
C623 C628 1.390 . S
C624 C618 1.465 . S
C624 C623 1.396 . S
C624 C625 1.399 . S
C625 H611 0.929 . S
C625 C624 1.399 . S
C625 C626 1.385 . S
C626 H612 0.931 . S
C626 C625 1.385 . S
C626 C627 1.389 . S
C627 C626 1.389 . S
C627 C628 1.387 . S
C628 H613 0.930 . S
C628 C623 1.390 . S
C628 C627 1.387 . S
H629 C641 0.930 . S
H630 C643 0.930 . S
H631 C644 0.930 . S
H632 C648 0.959 . S
H633 C648 0.959 . S
H634 C648 0.961 . S
H635 C649 0.960 . S
H636 C649 0.961 . S
H637 C649 0.959 . S
H638 C652 0.929 . S
H639 C653 0.931 . S
H640 C655 0.930 . S
C641 H629 0.930 . S
C641 C642 1.399 . S
C641 C646 1.399 . S
C642 C641 1.399 . S
C642 C643 1.376 . S
C643 H630 0.930 . S
C643 C642 1.376 . S
C643 C644 1.388 . S
C644 H631 0.930 . S
C644 C643 1.388 . S
C644 C645 1.390 . S
C645 C644 1.390 . S
C645 C646 1.394 . S
C645 C651 1.465 . S
C646 C641 1.399 . S
C646 C645 1.394 . S
C646 C647 1.516 . S
C647 C646 1.516 . S
C647 C648 1.502 . S
C647 C649 1.561 . S
C647 C650 1.526 . S
C648 H632 0.959 . S
C648 H633 0.959 . S
C648 H634 0.961 . S
C648 C647 1.502 . S
C649 H635 0.960 . S
C649 H636 0.961 . S
C649 H637 0.959 . S
C649 C647 1.561 . S
C650 C647 1.526 . S
C650 C651 1.396 . S
C650 C655 1.390 . S
C651 C645 1.465 . S
C651 C650 1.396 . S
C651 C652 1.399 . S
C652 H638 0.929 . S
C652 C651 1.399 . S
C652 C653 1.385 . S
C653 H639 0.931 . S
C653 C652 1.385 . S
C653 C654 1.389 . S
C654 C653 1.389 . S
C654 C655 1.387 . S
C655 H640 0.930 . S
C655 C650 1.390 . S
C655 C654 1.387 . S
H656 C668 0.930 . S
H657 C670 0.930 . S
H658 C671 0.930 . S
H659 C675 0.959 . S
H660 C675 0.959 . S
H661 C675 0.961 . S
H662 C676 0.960 . S
H663 C676 0.961 . S
H664 C676 0.959 . S
H665 C679 0.929 . S
H666 C680 0.931 . S
H667 C682 0.930 . S
C668 H656 0.930 . S
C668 C669 1.399 . S
C668 C673 1.399 . S
C669 C668 1.399 . S
C669 C670 1.376 . S
C670 H657 0.930 . S
C670 C669 1.376 . S
C670 C671 1.388 . S
C671 H658 0.930 . S
C671 C670 1.388 . S
C671 C672 1.390 . S
C672 C671 1.390 . S
C672 C673 1.394 . S
C672 C678 1.465 . S
C673 C668 1.399 . S
C673 C672 1.394 . S
C673 C674 1.516 . S
C674 C673 1.516 . S
C674 C675 1.502 . S
C674 C676 1.561 . S
C674 C677 1.526 . S
C675 H659 0.959 . S
C675 H660 0.959 . S
C675 H661 0.961 . S
C675 C674 1.502 . S
C676 H662 0.960 . S
C676 H663 0.961 . S
C676 H664 0.959 . S
C676 C674 1.561 . S
C677 C674 1.526 . S
C677 C678 1.396 . S
C677 C682 1.390 . S
C678 C672 1.465 . S
C678 C677 1.396 . S
C678 C679 1.399 . S
C679 H665 0.929 . S
C679 C678 1.399 . S
C679 C680 1.385 . S
C680 H666 0.931 . S
C680 C679 1.385 . S
C680 C681 1.389 . S
C681 C680 1.389 . S
C681 C682 1.387 . S
C682 H667 0.930 . S
C682 C677 1.390 . S
C682 C681 1.387 . S
H683 C695 0.930 . S
H684 C697 0.930 . S
H685 C698 0.930 . S
H686 C702 0.959 . S
H687 C702 0.959 . S
H688 C702 0.961 . S
H689 C703 0.960 . S
H690 C703 0.961 . S
H691 C703 0.959 . S
H692 C706 0.929 . S
H693 C707 0.931 . S
H694 C709 0.930 . S
C695 H683 0.930 . S
C695 C696 1.399 . S
C695 C700 1.399 . S
C696 C695 1.399 . S
C696 C697 1.376 . S
C697 H684 0.930 . S
C697 C696 1.376 . S
C697 C698 1.388 . S
C698 H685 0.930 . S
C698 C697 1.388 . S
C698 C699 1.390 . S
C699 C698 1.390 . S
C699 C700 1.394 . S
C699 C705 1.465 . S
C700 C695 1.399 . S
C700 C699 1.394 . S
C700 C701 1.516 . S
C701 C700 1.516 . S
C701 C702 1.502 . S
C701 C703 1.561 . S
C701 C704 1.526 . S
C702 H686 0.959 . S
C702 H687 0.959 . S
C702 H688 0.961 . S
C702 C701 1.502 . S
C703 H689 0.960 . S
C703 H690 0.961 . S
C703 H691 0.959 . S
C703 C701 1.561 . S
C704 C701 1.526 . S
C704 C705 1.396 . S
C704 C709 1.390 . S
C705 C699 1.465 . S
C705 C704 1.396 . S
C705 C706 1.399 . S
C706 H692 0.929 . S
C706 C705 1.399 . S
C706 C707 1.385 . S
C707 H693 0.931 . S
C707 C706 1.385 . S
C707 C708 1.389 . S
C708 C707 1.389 . S
C708 C709 1.387 . S
C709 H694 0.930 . S
C709 C704 1.390 . S
C709 C708 1.387 . S
H710 C722 0.930 . S
H711 C724 0.930 . S
H712 C725 0.930 . S
H713 C729 0.959 . S
H714 C729 0.959 . S
H715 C729 0.961 . S
H716 C730 0.960 . S
H717 C730 0.961 . S
H718 C730 0.959 . S
H719 C733 0.929 . S
H720 C734 0.931 . S
H721 C736 0.930 . S
C722 H710 0.930 . S
C722 C723 1.399 . S
C722 C727 1.399 . S
C723 C722 1.399 . S
C723 C724 1.376 . S
C724 H711 0.930 . S
C724 C723 1.376 . S
C724 C725 1.388 . S
C725 H712 0.930 . S
C725 C724 1.388 . S
C725 C726 1.390 . S
C726 C725 1.390 . S
C726 C727 1.394 . S
C726 C732 1.465 . S
C727 C722 1.399 . S
C727 C726 1.394 . S
C727 C728 1.516 . S
C728 C727 1.516 . S
C728 C729 1.502 . S
C728 C730 1.561 . S
C728 C731 1.526 . S
C729 H713 0.959 . S
C729 H714 0.959 . S
C729 H715 0.961 . S
C729 C728 1.502 . S
C730 H716 0.960 . S
C730 H717 0.961 . S
C730 H718 0.959 . S
C730 C728 1.561 . S
C731 C728 1.526 . S
C731 C732 1.396 . S
C731 C736 1.390 . S
C732 C726 1.465 . S
C732 C731 1.396 . S
C732 C733 1.399 . S
C733 H719 0.929 . S
C733 C732 1.399 . S
C733 C734 1.385 . S
C734 H720 0.931 . S
C734 C733 1.385 . S
C734 C735 1.389 . S
C735 C734 1.389 . S
C735 C736 1.387 . S
C736 H721 0.930 . S
C736 C731 1.390 . S
C736 C735 1.387 . S
H737 C749 0.930 . S
H738 C751 0.930 . S
H739 C752 0.930 . S
H740 C756 0.959 . S
H741 C756 0.959 . S
H742 C756 0.961 . S
H743 C757 0.960 . S
H744 C757 0.961 . S
H745 C757 0.959 . S
H746 C760 0.929 . S
H747 C761 0.931 . S
H748 C763 0.930 . S
C749 H737 0.930 . S
C749 C750 1.399 . S
C749 C754 1.399 . S
C750 C749 1.399 . S
C750 C751 1.376 . S
C751 H738 0.930 . S
C751 C750 1.376 . S
C751 C752 1.388 . S
C752 H739 0.930 . S
C752 C751 1.388 . S
C752 C753 1.390 . S
C753 C752 1.390 . S
C753 C754 1.394 . S
C753 C759 1.465 . S
C754 C749 1.399 . S
C754 C753 1.394 . S
C754 C755 1.516 . S
C755 C754 1.516 . S
C755 C756 1.502 . S
C755 C757 1.561 . S
C755 C758 1.526 . S
C756 H740 0.959 . S
C756 H741 0.959 . S
C756 H742 0.961 . S
C756 C755 1.502 . S
C757 H743 0.960 . S
C757 H744 0.961 . S
C757 H745 0.959 . S
C757 C755 1.561 . S
C758 C755 1.526 . S
C758 C759 1.396 . S
C758 C763 1.390 . S
C759 C753 1.465 . S
C759 C758 1.396 . S
C759 C760 1.399 . S
C760 H746 0.929 . S
C760 C759 1.399 . S
C760 C761 1.385 . S
C761 H747 0.931 . S
C761 C760 1.385 . S
C761 C762 1.389 . S
C762 C761 1.389 . S
C762 C763 1.387 . S
C763 H748 0.930 . S
C763 C758 1.390 . S
C763 C762 1.387 . S
H764 C776 0.930 . S
H765 C778 0.930 . S
H766 C779 0.930 . S
H767 C783 0.959 . S
H768 C783 0.959 . S
H769 C783 0.961 . S
H770 C784 0.960 . S
H771 C784 0.961 . S
H772 C784 0.959 . S
H773 C787 0.929 . S
H774 C788 0.931 . S
H775 C790 0.930 . S
C776 H764 0.930 . S
C776 C777 1.399 . S
C776 C781 1.399 . S
C777 C776 1.399 . S
C777 C778 1.376 . S
C778 H765 0.930 . S
C778 C777 1.376 . S
C778 C779 1.388 . S
C779 H766 0.930 . S
C779 C778 1.388 . S
C779 C780 1.390 . S
C780 C779 1.390 . S
C780 C781 1.394 . S
C780 C786 1.465 . S
C781 C776 1.399 . S
C781 C780 1.394 . S
C781 C782 1.516 . S
C782 C781 1.516 . S
C782 C783 1.502 . S
C782 C784 1.561 . S
C782 C785 1.526 . S
C783 H767 0.959 . S
C783 H768 0.959 . S
C783 H769 0.961 . S
C783 C782 1.502 . S
C784 H770 0.960 . S
C784 H771 0.961 . S
C784 H772 0.959 . S
C784 C782 1.561 . S
C785 C782 1.526 . S
C785 C786 1.396 . S
C785 C790 1.390 . S
C786 C780 1.465 . S
C786 C785 1.396 . S
C786 C787 1.399 . S
C787 H773 0.929 . S
C787 C786 1.399 . S
C787 C788 1.385 . S
C788 H774 0.931 . S
C788 C787 1.385 . S
C788 C789 1.389 . S
C789 C788 1.389 . S
C789 C790 1.387 . S
C790 H775 0.930 . S
C790 C785 1.390 . S
C790 C789 1.387 . S
H791 C803 0.930 . S
H792 C805 0.930 . S
H793 C806 0.930 . S
H794 C810 0.959 . S
H795 C810 0.959 . S
H796 C810 0.961 . S
H797 C811 0.960 . S
H798 C811 0.961 . S
H799 C811 0.959 . S
H800 C814 0.929 . S
H801 C815 0.931 . S
H802 C817 0.930 . S
C803 H791 0.930 . S
C803 C804 1.399 . S
C803 C808 1.399 . S
C804 C803 1.399 . S
C804 C805 1.376 . S
C805 H792 0.930 . S
C805 C804 1.376 . S
C805 C806 1.388 . S
C806 H793 0.930 . S
C806 C805 1.388 . S
C806 C807 1.390 . S
C807 C806 1.390 . S
C807 C808 1.394 . S
C807 C813 1.465 . S
C808 C803 1.399 . S
C808 C807 1.394 . S
C808 C809 1.516 . S
C809 C808 1.516 . S
C809 C810 1.502 . S
C809 C811 1.561 . S
C809 C812 1.526 . S
C810 H794 0.959 . S
C810 H795 0.959 . S
C810 H796 0.961 . S
C810 C809 1.502 . S
C811 H797 0.960 . S
C811 H798 0.961 . S
C811 H799 0.959 . S
C811 C809 1.561 . S
C812 C809 1.526 . S
C812 C813 1.396 . S
C812 C817 1.390 . S
C813 C807 1.465 . S
C813 C812 1.396 . S
C813 C814 1.399 . S
C814 H800 0.929 . S
C814 C813 1.399 . S
C814 C815 1.385 . S
C815 H801 0.931 . S
C815 C814 1.385 . S
C815 C816 1.389 . S
C816 C815 1.389 . S
C816 C817 1.387 . S
C817 H802 0.930 . S
C817 C812 1.390 . S
C817 C816 1.387 . S
H818 C830 0.930 . S
H819 C832 0.930 . S
H820 C833 0.930 . S
H821 C837 0.959 . S
H822 C837 0.959 . S
H823 C837 0.961 . S
H824 C838 0.960 . S
H825 C838 0.961 . S
H826 C838 0.959 . S
H827 C841 0.929 . S
H828 C842 0.931 . S
H829 C844 0.930 . S
C830 H818 0.930 . S
C830 C831 1.399 . S
C830 C835 1.399 . S
C831 C830 1.399 . S
C831 C832 1.376 . S
C832 H819 0.930 . S
C832 C831 1.376 . S
C832 C833 1.388 . S
C833 H820 0.930 . S
C833 C832 1.388 . S
C833 C834 1.390 . S
C834 C833 1.390 . S
C834 C835 1.394 . S
C834 C840 1.465 . S
C835 C830 1.399 . S
C835 C834 1.394 . S
C835 C836 1.516 . S
C836 C835 1.516 . S
C836 C837 1.502 . S
C836 C838 1.561 . S
C836 C839 1.526 . S
C837 H821 0.959 . S
C837 H822 0.959 . S
C837 H823 0.961 . S
C837 C836 1.502 . S
C838 H824 0.960 . S
C838 H825 0.961 . S
C838 H826 0.959 . S
C838 C836 1.561 . S
C839 C836 1.526 . S
C839 C840 1.396 . S
C839 C844 1.390 . S
C840 C834 1.465 . S
C840 C839 1.396 . S
C840 C841 1.399 . S
C841 H827 0.929 . S
C841 C840 1.399 . S
C841 C842 1.385 . S
C842 H828 0.931 . S
C842 C841 1.385 . S
C842 C843 1.389 . S
C843 C842 1.389 . S
C843 C844 1.387 . S
C844 H829 0.930 . S
C844 C839 1.390 . S
C844 C843 1.387 . S
H845 C857 0.930 . S
H846 C859 0.930 . S
H847 C860 0.930 . S
H848 C864 0.959 . S
H849 C864 0.959 . S
H850 C864 0.961 . S
H851 C865 0.960 . S
H852 C865 0.961 . S
H853 C865 0.959 . S
H854 C868 0.929 . S
H855 C869 0.931 . S
H856 C871 0.930 . S
C857 H845 0.930 . S
C857 C858 1.399 . S
C857 C862 1.399 . S
C858 C857 1.399 . S
C858 C859 1.376 . S
C859 H846 0.930 . S
C859 C858 1.376 . S
C859 C860 1.388 . S
C860 H847 0.930 . S
C860 C859 1.388 . S
C860 C861 1.390 . S
C861 C860 1.390 . S
C861 C862 1.394 . S
C861 C867 1.465 . S
C862 C857 1.399 . S
C862 C861 1.394 . S
C862 C863 1.516 . S
C863 C862 1.516 . S
C863 C864 1.502 . S
C863 C865 1.561 . S
C863 C866 1.526 . S
C864 H848 0.959 . S
C864 H849 0.959 . S
C864 H850 0.961 . S
C864 C863 1.502 . S
C865 H851 0.960 . S
C865 H852 0.961 . S
C865 H853 0.959 . S
C865 C863 1.561 . S
C866 C863 1.526 . S
C866 C867 1.396 . S
C866 C871 1.390 . S
C867 C861 1.465 . S
C867 C866 1.396 . S
C867 C868 1.399 . S
C868 H854 0.929 . S
C868 C867 1.399 . S
C868 C869 1.385 . S
C869 H855 0.931 . S
C869 C868 1.385 . S
C869 C870 1.389 . S
C870 C869 1.389 . S
C870 C871 1.387 . S
C871 H856 0.930 . S
C871 C866 1.390 . S
C871 C870 1.387 . S
H872 C884 0.930 . S
H873 C886 0.930 . S
H874 C887 0.930 . S
H875 C891 0.959 . S
H876 C891 0.959 . S
H877 C891 0.961 . S
H878 C892 0.960 . S
H879 C892 0.961 . S
H880 C892 0.959 . S
H881 C895 0.929 . S
H882 C896 0.931 . S
H883 C898 0.930 . S
C884 H872 0.930 . S
C884 C885 1.399 . S
C884 C889 1.399 . S
C885 C884 1.399 . S
C885 C886 1.376 . S
C886 H873 0.930 . S
C886 C885 1.376 . S
C886 C887 1.388 . S
C887 H874 0.930 . S
C887 C886 1.388 . S
C887 C888 1.390 . S
C888 C887 1.390 . S
C888 C889 1.394 . S
C888 C894 1.465 . S
C889 C884 1.399 . S
C889 C888 1.394 . S
C889 C890 1.516 . S
C890 C889 1.516 . S
C890 C891 1.502 . S
C890 C892 1.561 . S
C890 C893 1.526 . S
C891 H875 0.959 . S
C891 H876 0.959 . S
C891 H877 0.961 . S
C891 C890 1.502 . S
C892 H878 0.960 . S
C892 H879 0.961 . S
C892 H880 0.959 . S
C892 C890 1.561 . S
C893 C890 1.526 . S
C893 C894 1.396 . S
C893 C898 1.390 . S
C894 C888 1.465 . S
C894 C893 1.396 . S
C894 C895 1.399 . S
C895 H881 0.929 . S
C895 C894 1.399 . S
C895 C896 1.385 . S
C896 H882 0.931 . S
C896 C895 1.385 . S
C896 C897 1.389 . S
C897 C896 1.389 . S
C897 C898 1.387 . S
C898 H883 0.930 . S
C898 C893 1.390 . S
C898 C897 1.387 . S
H899 C911 0.930 . S
H900 C913 0.930 . S
H901 C914 0.930 . S
H902 C918 0.959 . S
H903 C918 0.959 . S
H904 C918 0.961 . S
H905 C919 0.960 . S
H906 C919 0.961 . S
H907 C919 0.959 . S
H908 C922 0.929 . S
H909 C923 0.931 . S
H910 C925 0.930 . S
C911 H899 0.930 . S
C911 C912 1.399 . S
C911 C916 1.399 . S
C912 C911 1.399 . S
C912 C913 1.376 . S
C913 H900 0.930 . S
C913 C912 1.376 . S
C913 C914 1.388 . S
C914 H901 0.930 . S
C914 C913 1.388 . S
C914 C915 1.390 . S
C915 C914 1.390 . S
C915 C916 1.394 . S
C915 C921 1.465 . S
C916 C911 1.399 . S
C916 C915 1.394 . S
C916 C917 1.516 . S
C917 C916 1.516 . S
C917 C918 1.502 . S
C917 C919 1.561 . S
C917 C920 1.526 . S
C918 H902 0.959 . S
C918 H903 0.959 . S
C918 H904 0.961 . S
C918 C917 1.502 . S
C919 H905 0.960 . S
C919 H906 0.961 . S
C919 H907 0.959 . S
C919 C917 1.561 . S
C920 C917 1.526 . S
C920 C921 1.396 . S
C920 C925 1.390 . S
C921 C915 1.465 . S
C921 C920 1.396 . S
C921 C922 1.399 . S
C922 H908 0.929 . S
C922 C921 1.399 . S
C922 C923 1.385 . S
C923 H909 0.931 . S
C923 C922 1.385 . S
C923 C924 1.389 . S
C924 C923 1.389 . S
C924 C925 1.387 . S
C925 H910 0.930 . S
C925 C920 1.390 . S
C925 C924 1.387 . S
H926 C938 0.930 . S
H927 C940 0.930 . S
H928 C941 0.930 . S
H929 C945 0.959 . S
H930 C945 0.959 . S
H931 C945 0.961 . S
H932 C946 0.960 . S
H933 C946 0.961 . S
H934 C946 0.959 . S
H935 C949 0.929 . S
H936 C950 0.931 . S
H937 C952 0.930 . S
C938 H926 0.930 . S
C938 C939 1.399 . S
C938 C943 1.399 . S
C939 C938 1.399 . S
C939 C940 1.376 . S
C940 H927 0.930 . S
C940 C939 1.376 . S
C940 C941 1.388 . S
C941 H928 0.930 . S
C941 C940 1.388 . S
C941 C942 1.390 . S
C942 C941 1.390 . S
C942 C943 1.394 . S
C942 C948 1.465 . S
C943 C938 1.399 . S
C943 C942 1.394 . S
C943 C944 1.516 . S
C944 C943 1.516 . S
C944 C945 1.502 . S
C944 C946 1.561 . S
C944 C947 1.526 . S
C945 H929 0.959 . S
C945 H930 0.959 . S
C945 H931 0.961 . S
C945 C944 1.502 . S
C946 H932 0.960 . S
C946 H933 0.961 . S
C946 H934 0.959 . S
C946 C944 1.561 . S
C947 C944 1.526 . S
C947 C948 1.396 . S
C947 C952 1.390 . S
C948 C942 1.465 . S
C948 C947 1.396 . S
C948 C949 1.399 . S
C949 H935 0.929 . S
C949 C948 1.399 . S
C949 C950 1.385 . S
C950 H936 0.931 . S
C950 C949 1.385 . S
C950 C951 1.389 . S
C951 C950 1.389 . S
C951 C952 1.387 . S
C952 H937 0.930 . S
C952 C947 1.390 . S
C952 C951 1.387 . S
H953 C965 0.930 . S
H954 C967 0.930 . S
H955 C968 0.930 . S
H956 C972 0.959 . S
H957 C972 0.959 . S
H958 C972 0.961 . S
H959 C973 0.960 . S
H960 C973 0.961 . S
H961 C973 0.959 . S
H962 C976 0.929 . S
H963 C977 0.931 . S
H964 C979 0.930 . S
C965 H953 0.930 . S
C965 C966 1.399 . S
C965 C970 1.399 . S
C966 C965 1.399 . S
C966 C967 1.376 . S
C967 H954 0.930 . S
C967 C966 1.376 . S
C967 C968 1.388 . S
C968 H955 0.930 . S
C968 C967 1.388 . S
C968 C969 1.390 . S
C969 C968 1.390 . S
C969 C970 1.394 . S
C969 C975 1.465 . S
C970 C965 1.399 . S
C970 C969 1.394 . S
C970 C971 1.516 . S
C971 C970 1.516 . S
C971 C972 1.502 . S
C971 C973 1.561 . S
C971 C974 1.526 . S
C972 H956 0.959 . S
C972 H957 0.959 . S
C972 H958 0.961 . S
C972 C971 1.502 . S
C973 H959 0.960 . S
C973 H960 0.961 . S
C973 H961 0.959 . S
C973 C971 1.561 . S
C974 C971 1.526 . S
C974 C975 1.396 . S
C974 C979 1.390 . S
C975 C969 1.465 . S
C975 C974 1.396 . S
C975 C976 1.399 . S
C976 H962 0.929 . S
C976 C975 1.399 . S
C976 C977 1.385 . S
C977 H963 0.931 . S
C977 C976 1.385 . S
C977 C978 1.389 . S
C978 C977 1.389 . S
C978 C979 1.387 . S
C979 H964 0.930 . S
C979 C974 1.390 . S
C979 C978 1.387 . S
H980 C992 0.930 . S
H981 C994 0.930 . S
H982 C995 0.930 . S
H983 C999 0.959 . S
H984 C999 0.959 . S
H985 C999 0.961 . S
H986 C1000 0.960 . S
H987 C1000 0.961 . S
H988 C1000 0.959 . S
H989 C1003 0.929 . S
H990 C1004 0.931 . S
H991 C1006 0.930 . S
C992 H980 0.930 . S
C992 C993 1.399 . S
C992 C997 1.399 . S
C993 C992 1.399 . S
C993 C994 1.376 . S
C994 H981 0.930 . S
C994 C993 1.376 . S
C994 C995 1.388 . S
C995 H982 0.930 . S
C995 C994 1.388 . S
C995 C996 1.390 . S
C996 C995 1.390 . S
C996 C997 1.394 . S
C996 C1002 1.465 . S
C997 C992 1.399 . S
C997 C996 1.394 . S
C997 C998 1.516 . S
C998 C997 1.516 . S
C998 C999 1.502 . S
C998 C1000 1.561 . S
C998 C1001 1.526 . S
C999 H983 0.959 . S
C999 H984 0.959 . S
C999 H985 0.961 . S
C999 C998 1.502 . S
C1000 H986 0.960 . S
C1000 H987 0.961 . S
C1000 H988 0.959 . S
C1000 C998 1.561 . S
C1001 C998 1.526 . S
C1001 C1002 1.396 . S
C1001 C1006 1.390 . S
C1002 C996 1.465 . S
C1002 C1001 1.396 . S
C1002 C1003 1.399 . S
C1003 H989 0.929 . S
C1003 C1002 1.399 . S
C1003 C1004 1.385 . S
C1004 H990 0.931 . S
C1004 C1003 1.385 . S
C1004 C1005 1.389 . S
C1005 C1004 1.389 . S
C1005 C1006 1.387 . S
C1006 H991 0.930 . S
C1006 C1001 1.390 . S
C1006 C1005 1.387 . S
H1007 C1019 0.930 . S
H1008 C1021 0.930 . S
H1009 C1022 0.930 . S
H1010 C1026 0.959 . S
H1011 C1026 0.959 . S
H1012 C1026 0.961 . S
H1013 C1027 0.960 . S
H1014 C1027 0.961 . S
H1015 C1027 0.959 . S
H1016 C1030 0.929 . S
H1017 C1031 0.931 . S
H1018 C1033 0.930 . S
C1019 H1007 0.930 . S
C1019 C1020 1.399 . S
C1019 C1024 1.399 . S
C1020 C1019 1.399 . S
C1020 C1021 1.376 . S
C1021 H1008 0.930 . S
C1021 C1020 1.376 . S
C1021 C1022 1.388 . S
C1022 H1009 0.930 . S
C1022 C1021 1.388 . S
C1022 C1023 1.390 . S
C1023 C1022 1.390 . S
C1023 C1024 1.394 . S
C1023 C1029 1.465 . S
C1024 C1019 1.399 . S
C1024 C1023 1.394 . S
C1024 C1025 1.516 . S
C1025 C1024 1.516 . S
C1025 C1026 1.502 . S
C1025 C1027 1.561 . S
C1025 C1028 1.526 . S
C1026 H1010 0.959 . S
C1026 H1011 0.959 . S
C1026 H1012 0.961 . S
C1026 C1025 1.502 . S
C1027 H1013 0.960 . S
C1027 H1014 0.961 . S
C1027 H1015 0.959 . S
C1027 C1025 1.561 . S
C1028 C1025 1.526 . S
C1028 C1029 1.396 . S
C1028 C1033 1.390 . S
C1029 C1023 1.465 . S
C1029 C1028 1.396 . S
C1029 C1030 1.399 . S
C1030 H1016 0.929 . S
C1030 C1029 1.399 . S
C1030 C1031 1.385 . S
C1031 H1017 0.931 . S
C1031 C1030 1.385 . S
C1031 C1032 1.389 . S
C1032 C1031 1.389 . S
C1032 C1033 1.387 . S
C1033 H1018 0.930 . S
C1033 C1028 1.390 . S
C1033 C1032 1.387 . S
H1034 C1046 0.930 . S
H1035 C1048 0.930 . S
H1036 C1049 0.930 . S
H1037 C1053 0.959 . S
H1038 C1053 0.959 . S
H1039 C1053 0.961 . S
H1040 C1054 0.960 . S
H1041 C1054 0.961 . S
H1042 C1054 0.959 . S
H1043 C1057 0.929 . S
H1044 C1058 0.931 . S
H1045 C1060 0.930 . S
C1046 H1034 0.930 . S
C1046 C1047 1.399 . S
C1046 C1051 1.399 . S
C1047 C1046 1.399 . S
C1047 C1048 1.376 . S
C1048 H1035 0.930 . S
C1048 C1047 1.376 . S
C1048 C1049 1.388 . S
C1049 H1036 0.930 . S
C1049 C1048 1.388 . S
C1049 C1050 1.390 . S
C1050 C1049 1.390 . S
C1050 C1051 1.394 . S
C1050 C1056 1.465 . S
C1051 C1046 1.399 . S
C1051 C1050 1.394 . S
C1051 C1052 1.516 . S
C1052 C1051 1.516 . S
C1052 C1053 1.502 . S
C1052 C1054 1.561 . S
C1052 C1055 1.526 . S
C1053 H1037 0.959 . S
C1053 H1038 0.959 . S
C1053 H1039 0.961 . S
C1053 C1052 1.502 . S
C1054 H1040 0.960 . S
C1054 H1041 0.961 . S
C1054 H1042 0.959 . S
C1054 C1052 1.561 . S
C1055 C1052 1.526 . S
C1055 C1056 1.396 . S
C1055 C1060 1.390 . S
C1056 C1050 1.465 . S
C1056 C1055 1.396 . S
C1056 C1057 1.399 . S
C1057 H1043 0.929 . S
C1057 C1056 1.399 . S
C1057 C1058 1.385 . S
C1058 H1044 0.931 . S
C1058 C1057 1.385 . S
C1058 C1059 1.389 . S
C1059 C1058 1.389 . S
C1059 C1060 1.387 . S
C1060 H1045 0.930 . S
C1060 C1055 1.390 . S
C1060 C1059 1.387 . S
H1061 C1073 0.930 . S
H1062 C1075 0.930 . S
H1063 C1076 0.930 . S
H1064 C1080 0.959 . S
H1065 C1080 0.959 . S
H1066 C1080 0.961 . S
H1067 C1081 0.960 . S
H1068 C1081 0.961 . S
H1069 C1081 0.959 . S
H1070 C1084 0.929 . S
H1071 C1085 0.931 . S
H1072 C1087 0.930 . S
C1073 H1061 0.930 . S
C1073 C1074 1.399 . S
C1073 C1078 1.399 . S
C1074 C1073 1.399 . S
C1074 C1075 1.376 . S
C1075 H1062 0.930 . S
C1075 C1074 1.376 . S
C1075 C1076 1.388 . S
C1076 H1063 0.930 . S
C1076 C1075 1.388 . S
C1076 C1077 1.390 . S
C1077 C1076 1.390 . S
C1077 C1078 1.394 . S
C1077 C1083 1.465 . S
C1078 C1073 1.399 . S
C1078 C1077 1.394 . S
C1078 C1079 1.516 . S
C1079 C1078 1.516 . S
C1079 C1080 1.502 . S
C1079 C1081 1.561 . S
C1079 C1082 1.526 . S
C1080 H1064 0.959 . S
C1080 H1065 0.959 . S
C1080 H1066 0.961 . S
C1080 C1079 1.502 . S
C1081 H1067 0.960 . S
C1081 H1068 0.961 . S
C1081 H1069 0.959 . S
C1081 C1079 1.561 . S
C1082 C1079 1.526 . S
C1082 C1083 1.396 . S
C1082 C1087 1.390 . S
C1083 C1077 1.465 . S
C1083 C1082 1.396 . S
C1083 C1084 1.399 . S
C1084 H1070 0.929 . S
C1084 C1083 1.399 . S
C1084 C1085 1.385 . S
C1085 H1071 0.931 . S
C1085 C1084 1.385 . S
C1085 C1086 1.389 . S
C1086 C1085 1.389 . S
C1086 C1087 1.387 . S
C1087 H1072 0.930 . S
C1087 C1082 1.390 . S
C1087 C1086 1.387 . S
C237 C67 1.396 . S
C249 C11 1.395 . S
C264 C81 1.402 1_556 S
C276 C25 1.404 . S
C291 C95 1.395 . S
C303 C39 1.394 . S
C318 C109 1.394 . S
C330 C53 1.394 . S
C345 C179 1.405 . S
C357 C123 1.407 . S
C372 C193 1.394 . S
C384 C137 1.396 . S
C399 C151 1.392 . S
C411 C207 1.393 . S
C426 C221 1.407 . S
C438 C165 1.407 . S
C453 C5 1.463 . S
C465 C75 1.461 . S
C480 C89 1.456 . S
C492 C19 1.457 . S
C507 C33 1.467 . S
C519 C103 1.466 . S
C534 C61 1.457 . S
C546 C47 1.458 . S
C561 C187 1.465 . S
C573 C117 1.464 . S
C588 C201 1.456 . S
C600 C131 1.457 . S
C615 C145 1.456 . S
C627 C215 1.458 . S
C642 C159 1.467 . S
C654 C173 1.467 . S
C669 C219 1.427 . S
C681 C9 1.445 . S
C696 C177 1.424 . S
C708 C23 1.456 . S
C723 C191 1.442 . S
C735 C37 1.444 . S
C750 C205 1.456 . S
C762 C51 1.425 . S
C777 C135 1.443 . S
C789 C65 1.443 . S
C804 C149 1.437 . S
C816 C79 1.448 . S
C831 C93 1.454 . S
C843 C163 1.423 . S
C858 C107 1.456 . S
C870 C121 1.424 . S
C885 C182 1.360 . S
C897 C28 1.374 . S
C912 C196 1.341 . S
C924 C42 1.347 . S
C939 C210 1.359 . S
C951 C0 1.373 . S
C966 C14 1.378 . S
C978 C168 1.368 . S
C993 C154 1.351 . S
C1005 C84 1.366 . S
C1020 C98 1.356 . S
C1032 C112 1.345 . S
C1047 C126 1.356 . S
C1059 C56 1.345 . S
C1074 C140 1.360 . S
C1086 C70 1.347 . S
