# Generated by pormake.
# Topology wme, (6)-cn, num edge types: 1
# Building blocks:
#     Node 0, Type 0, BuildingBlock: BETDIP_clean_sbu_0, # of connection points: 6
#     Node 1, Type 0, BuildingBlock: BETDIP_clean_sbu_0, # of connection points: 6
#     Node 2, Type 0, BuildingBlock: BETDIP_clean_sbu_0, # of connection points: 6
#     Node 3, Type 0, BuildingBlock: BETDIP_clean_sbu_0, # of connection points: 6
#     Node 4, Type 0, BuildingBlock: BETDIP_clean_sbu_0, # of connection points: 6
#     Node 5, Type 0, BuildingBlock: BETDIP_clean_sbu_0, # of connection points: 6
#     Node 6, Type 0, BuildingBlock: BETDIP_clean_sbu_0, # of connection points: 6
#     Node 7, Type 0, BuildingBlock: BETDIP_clean_sbu_0, # of connection points: 6
#     Node 8, Type 0, BuildingBlock: BETDIP_clean_sbu_0, # of connection points: 6
#     Node 9, Type 0, BuildingBlock: BETDIP_clean_sbu_0, # of connection points: 6
#     Node 10, Type 0, BuildingBlock: BETDIP_clean_sbu_0, # of connection points: 6
#     Node 11, Type 0, BuildingBlock: BETDIP_clean_sbu_0, # of connection points: 6
#     Edge 12, Type (0, 0), BuildingBlock: ZUJKAS_clean_linker_0, # of connection points: 2
#     Edge 13, Type (0, 0), BuildingBlock: ZUJKAS_clean_linker_0, # of connection points: 2
#     Edge 14, Type (0, 0), BuildingBlock: ZUJKAS_clean_linker_0, # of connection points: 2
#     Edge 15, Type (0, 0), BuildingBlock: ZUJKAS_clean_linker_0, # of connection points: 2
#     Edge 16, Type (0, 0), BuildingBlock: ZUJKAS_clean_linker_0, # of connection points: 2
#     Edge 17, Type (0, 0), BuildingBlock: ZUJKAS_clean_linker_0, # of connection points: 2
#     Edge 18, Type (0, 0), BuildingBlock: ZUJKAS_clean_linker_0, # of connection points: 2
#     Edge 19, Type (0, 0), BuildingBlock: ZUJKAS_clean_linker_0, # of connection points: 2
#     Edge 20, Type (0, 0), BuildingBlock: ZUJKAS_clean_linker_0, # of connection points: 2
#     Edge 21, Type (0, 0), BuildingBlock: ZUJKAS_clean_linker_0, # of connection points: 2
#     Edge 22, Type (0, 0), BuildingBlock: ZUJKAS_clean_linker_0, # of connection points: 2
#     Edge 23, Type (0, 0), BuildingBlock: ZUJKAS_clean_linker_0, # of connection points: 2
#     Edge 24, Type (0, 0), BuildingBlock: ZUJKAS_clean_linker_0, # of connection points: 2
#     Edge 25, Type (0, 0), BuildingBlock: ZUJKAS_clean_linker_0, # of connection points: 2
#     Edge 26, Type (0, 0), BuildingBlock: ZUJKAS_clean_linker_0, # of connection points: 2
#     Edge 27, Type (0, 0), BuildingBlock: ZUJKAS_clean_linker_0, # of connection points: 2
#     Edge 28, Type (0, 0), BuildingBlock: ZUJKAS_clean_linker_0, # of connection points: 2
#     Edge 29, Type (0, 0), BuildingBlock: ZUJKAS_clean_linker_0, # of connection points: 2
#     Edge 30, Type (0, 0), BuildingBlock: ZUJKAS_clean_linker_0, # of connection points: 2
#     Edge 31, Type (0, 0), BuildingBlock: ZUJKAS_clean_linker_0, # of connection points: 2
#     Edge 32, Type (0, 0), BuildingBlock: ZUJKAS_clean_linker_0, # of connection points: 2
#     Edge 33, Type (0, 0), BuildingBlock: ZUJKAS_clean_linker_0, # of connection points: 2
#     Edge 34, Type (0, 0), BuildingBlock: ZUJKAS_clean_linker_0, # of connection points: 2
#     Edge 35, Type (0, 0), BuildingBlock: ZUJKAS_clean_linker_0, # of connection points: 2
#     Edge 36, Type (0, 0), BuildingBlock: ZUJKAS_clean_linker_0, # of connection points: 2
#     Edge 37, Type (0, 0), BuildingBlock: ZUJKAS_clean_linker_0, # of connection points: 2
#     Edge 38, Type (0, 0), BuildingBlock: ZUJKAS_clean_linker_0, # of connection points: 2
#     Edge 39, Type (0, 0), BuildingBlock: ZUJKAS_clean_linker_0, # of connection points: 2
#     Edge 40, Type (0, 0), BuildingBlock: ZUJKAS_clean_linker_0, # of connection points: 2
#     Edge 41, Type (0, 0), BuildingBlock: ZUJKAS_clean_linker_0, # of connection points: 2
#     Edge 42, Type (0, 0), BuildingBlock: ZUJKAS_clean_linker_0, # of connection points: 2
#     Edge 43, Type (0, 0), BuildingBlock: ZUJKAS_clean_linker_0, # of connection points: 2
#     Edge 44, Type (0, 0), BuildingBlock: ZUJKAS_clean_linker_0, # of connection points: 2
#     Edge 45, Type (0, 0), BuildingBlock: ZUJKAS_clean_linker_0, # of connection points: 2
#     Edge 46, Type (0, 0), BuildingBlock: ZUJKAS_clean_linker_0, # of connection points: 2
#     Edge 47, Type (0, 0), BuildingBlock: ZUJKAS_clean_linker_0, # of connection points: 2
# Relax obj value: 0.095
# Max RMSD: 0.186
# Mean RMSD: 0.186
data_MOF--net-wme--node1-BETDIP_clean_sbu_0--edge1-ZUJKAS_clean_linker_0
_symmetry_space_group_name_H-M    P1
_symmetry_Int_Tables_number       1
_symmetry_cell_setting            triclinic
loop_
_symmetry_equiv_pos_as_xyz
'x, y, z'
_cell_length_a     48.960366
_cell_length_b     48.959666
_cell_length_c     66.67131
_cell_angle_alpha  90.170986
_cell_angle_beta   89.936482
_cell_angle_gamma 120.00775
loop_
_atom_site_label
_atom_site_type_symbol
_atom_site_fract_x
_atom_site_fract_y
_atom_site_fract_z
_atom_type_partial_charge
Tb0 Tb 0.21335 0.36336 0.13463 0.0
Tb1 Tb 0.24845 0.32982 0.14501 0.0
C2 C 0.18863 0.39766 0.13154 0.0
C3 C 0.19147 0.42862 0.13622 0.0
C4 C 0.17325 0.43074 0.15181 0.0
C5 C 0.17081 0.45781 0.15422 0.0
C6 C 0.1864 0.48343 0.14104 0.0
C7 C 0.20581 0.48194 0.126 0.0
C8 C 0.20819 0.45476 0.12355 0.0
C9 C 0.22647 0.33645 0.10442 0.0
C10 C 0.28746 0.40272 0.14136 0.0
C11 C 0.26912 0.29197 0.14517 0.0
C12 C 0.25463 0.25743 0.14367 0.0
C13 C 0.22701 0.23925 0.13245 0.0
C14 C 0.21302 0.20637 0.1318 0.0
C15 C 0.22638 0.19103 0.14234 0.0
C16 C 0.25422 0.20945 0.1534 0.0
C17 C 0.26814 0.24229 0.15407 0.0
C18 C 0.23846 0.35726 0.17581 0.0
C19 C 0.17261 0.29172 0.14176 0.0
O20 O 0.18341 0.37838 0.1465 0.0
O21 O 0.20726 0.3963 0.11795 0.0
O22 O 0.24381 0.3513 0.11893 0.0
O23 O 0.20041 0.33703 0.1059 0.0
O24 O 0.26013 0.40207 0.14268 0.0
O25 O 0.28884 0.37649 0.1393 0.0
O26 O 0.2678 0.30655 0.1291 0.0
O27 O 0.26261 0.3025 0.16148 0.0
O28 O 0.21918 0.34297 0.16168 0.0
O29 O 0.26335 0.35464 0.17341 0.0
O30 O 0.19918 0.29068 0.14153 0.0
O31 O 0.17278 0.31864 0.14125 0.0
H32 H 0.15976 0.41091 0.16169 0.0
H33 H 0.15606 0.45836 0.16615 0.0
H34 H 0.21796 0.50116 0.1155 0.0
H35 H 0.22207 0.45378 0.1112 0.0
H36 H 0.21612 0.25041 0.1243 0.0
H37 H 0.19145 0.19295 0.1233 0.0
H38 H 0.26548 0.19853 0.16141 0.0
H39 H 0.28946 0.2559 0.16278 0.0
Tb40 Tb 0.86927 0.20743 0.63626 0.0
Tb41 Tb 0.94282 0.24348 0.6416 0.0
C42 C 0.81024 0.18275 0.63585 0.0
C43 C 0.78229 0.18648 0.63817 0.0
C44 C 0.77533 0.19701 0.65606 0.0
C45 C 0.74644 0.19629 0.65823 0.0
C46 C 0.72401 0.1849 0.64259 0.0
C47 C 0.73158 0.17508 0.62462 0.0
C48 C 0.76031 0.17592 0.62246 0.0
C49 C 0.9052 0.22116 0.6039 0.0
C50 C 0.90673 0.28186 0.64399 0.0
C51 C 0.99935 0.26555 0.63153 0.0
C52 C 1.0229 0.2557 0.63457 0.0
C53 C 0.04616 0.26316 0.61996 0.0
C54 C 0.06616 0.25053 0.62105 0.0
C55 C 0.06325 0.23017 0.6368 0.0
C56 C 0.04037 0.22335 0.65171 0.0
C57 C 1.02019 0.23584 0.65053 0.0
C58 C 0.91461 0.22461 0.6768 0.0
C59 C 0.90232 0.16775 0.64166 0.0
O60 O 0.82627 0.18351 0.65182 0.0
O61 O 0.82818 0.19594 0.62018 0.0
O62 O 0.90992 0.23803 0.6191 0.0
O63 O 0.8792 0.19468 0.60635 0.0
O64 O 0.87944 0.25485 0.64429 0.0
O65 O 0.93434 0.28334 0.64099 0.0
O66 O 0.97541 0.2461 0.6204 0.0
O67 O 0.99067 0.27545 0.64735 0.0
O68 O 0.90229 0.22059 0.65972 0.0
O69 O 0.94498 0.23971 0.67433 0.0
O70 O 0.92998 0.19352 0.63819 0.0
O71 O 0.87595 0.16856 0.64406 0.0
H72 H 0.79183 0.20513 0.66847 0.0
H73 H 0.74156 0.20436 0.6722 0.0
H74 H 0.71481 0.16556 0.61239 0.0
H75 H 0.76493 0.16722 0.60864 0.0
H76 H 0.04827 0.27807 0.60738 0.0
H77 H 0.08377 0.25651 0.60946 0.0
H78 H 0.03736 0.20751 0.6639 0.0
H79 H 1.00191 0.22926 0.66173 0.0
Tb80 Tb 0.67863 0.86149 0.13517 0.0
Tb81 Tb 0.7141 0.93472 0.14212 0.0
C82 C 0.64369 0.80255 0.1335 0.0
C83 C 0.61178 0.7753 0.13709 0.0
C84 C 0.60223 0.76197 0.15626 0.0
C85 C 0.57443 0.73295 0.1587 0.0
C86 C 0.55571 0.71656 0.14201 0.0
C87 C 0.56472 0.73061 0.12299 0.0
C88 C 0.59241 0.75954 0.12056 0.0
C89 C 0.70336 0.89894 0.10378 0.0
C90 C 0.6399 0.89754 0.14195 0.0
C91 C 0.74965 0.99179 0.13374 0.0
C92 C 0.78287 1.01429 0.13833 0.0
C93 C 0.79842 0.04328 0.12835 0.0
C94 C 0.83096 0.06313 0.13069 0.0
C95 C 0.84855 0.05417 0.14295 0.0
C96 C 0.83266 0.02528 0.15324 0.0
C97 C 0.8001 1.00553 0.15095 0.0
C98 C 0.70094 0.90477 0.17686 0.0
C99 C 0.75061 0.89526 0.14382 0.0
O100 O 0.66157 0.81743 0.14899 0.0
O101 O 0.64694 0.82159 0.11875 0.0
O102 O 0.68959 0.90272 0.11846 0.0
O103 O 0.70378 0.87289 0.10613 0.0
O104 O 0.64059 0.87076 0.1428 0.0
O105 O 0.66572 0.92553 0.13943 0.0
O106 O 0.74559 0.96848 0.12208 0.0
O107 O 0.72979 0.98228 0.14886 0.0
O108 O 0.69547 0.89338 0.15942 0.0
O109 O 0.71505 0.93523 0.17508 0.0
O110 O 0.75215 0.92287 0.14083 0.0
O111 O 0.72365 0.8683 0.14448 0.0
H112 H 0.61675 0.77333 0.1693 0.0
H113 H 0.56797 0.72301 0.17361 0.0
H114 H 0.55123 0.71855 0.10974 0.0
H115 H 0.59941 0.76887 0.10555 0.0
H116 H 0.78555 0.05016 0.11829 0.0
H117 H 0.8425 0.08501 0.12235 0.0
H118 H 0.84541 0.01783 0.16296 0.0
H119 H 0.78851 0.98305 0.15863 0.0
Tb120 Tb 0.83441 0.66963 0.63295 0.0
Tb121 Tb 0.79895 0.70739 0.63932 0.0
C122 C 0.85713 0.63356 0.63159 0.0
C123 C 0.85323 0.60236 0.6367 0.0
C124 C 0.86107 0.59624 0.65581 0.0
C125 C 0.86311 0.56906 0.65919 0.0
C126 C 0.85756 0.54754 0.64352 0.0
C127 C 0.84844 0.55312 0.62467 0.0
C128 C 0.84638 0.58018 0.62131 0.0
C129 C 0.82042 0.69235 0.60103 0.0
C130 C 0.76057 0.6333 0.64213 0.0
C131 C 0.77734 0.74247 0.6299 0.0
C132 C 0.78766 0.77596 0.63321 0.0
C133 C 0.7793 0.79182 0.61923 0.0
C134 C 0.7923 0.82451 0.62047 0.0
C135 C 0.81396 0.84196 0.63573 0.0
C136 C 0.82168 0.82583 0.65004 0.0
C137 C 0.8088 0.79311 0.64871 0.0
C138 C 0.81762 0.69703 0.67428 0.0
C139 C 0.87482 0.74229 0.63878 0.0
O140 O 0.86328 0.65416 0.64601 0.0
O141 O 0.83868 0.6345 0.61771 0.0
O142 O 0.80383 0.68022 0.61629 0.0
O143 O 0.84664 0.6922 0.60307 0.0
O144 O 0.78775 0.63344 0.64292 0.0
O145 O 0.75891 0.65917 0.63856 0.0
O146 O 0.79638 0.73775 0.6185 0.0
O147 O 0.76754 0.7238 0.6456 0.0
O148 O 0.82185 0.68919 0.65704 0.0
O149 O 0.80231 0.71213 0.67207 0.0
O150 O 0.84898 0.74445 0.63637 0.0
O151 O 0.874 0.715 0.64021 0.0
H152 H 0.8668 0.61298 0.66796 0.0
H153 H 0.86976 0.5653 0.67397 0.0
H154 H 0.84445 0.53742 0.61215 0.0
H155 H 0.84089 0.58449 0.60632 0.0
H156 H 0.76339 0.77903 0.607 0.0
H157 H 0.78561 0.83618 0.60936 0.0
H158 H 0.83852 0.83865 0.66184 0.0
H159 H 0.81607 0.78135 0.6594 0.0
Tb160 Tb 0.18015 0.82873 0.13555 0.0
Tb161 Tb 0.1064 0.79124 0.14073 0.0
C162 C 0.23916 0.85295 0.13597 0.0
C163 C 0.26669 0.84971 0.1416 0.0
C164 C 0.2877 0.86996 0.15626 0.0
C165 C 0.31709 0.87226 0.15904 0.0
C166 C 0.32628 0.85447 0.14714 0.0
C167 C 0.30454 0.83291 0.13321 0.0
C168 C 0.27511 0.83062 0.13042 0.0
C169 C 0.14455 0.81618 0.10312 0.0
C170 C 0.14333 0.75396 0.14183 0.0
C171 C 0.04994 0.7703 0.13087 0.0
C172 C 0.0268 0.78099 0.13401 0.0
C173 C 1.01718 0.79182 0.11747 0.0
C174 C 0.99769 0.80481 0.12006 0.0
C175 C 0.98699 0.80689 0.13925 0.0
C176 C 0.99573 0.79511 0.15577 0.0
C177 C 1.01561 0.78245 0.1532 0.0
C178 C 0.1347 0.80778 0.17615 0.0
C179 C 0.14598 0.86723 0.14203 0.0
O180 O 0.22323 0.85713 0.15032 0.0
O181 O 0.22113 0.8356 0.12118 0.0
O182 O 0.13974 0.79872 0.11796 0.0
O183 O 0.17085 0.84234 0.10581 0.0
O184 O 0.17007 0.78134 0.14354 0.0
O185 O 0.11558 0.75196 0.13844 0.0
O186 O 0.07399 0.78897 0.11957 0.0
O187 O 0.05835 0.75971 0.14642 0.0
O188 O 0.14686 0.81386 0.15894 0.0
O189 O 0.10433 0.79149 0.17369 0.0
O190 O 0.11843 0.84111 0.13895 0.0
O191 O 0.17284 0.86717 0.14358 0.0
H192 H 0.28203 0.88519 0.16497 0.0
H193 H 0.333 0.88868 0.17015 0.0
H194 H 0.31089 0.81899 0.12369 0.0
H195 H 0.25963 0.81498 0.11885 0.0
H196 H 0.02532 0.79084 0.10249 0.0
H197 H 0.99096 0.81323 0.10702 0.0
H198 H 0.98788 0.79649 0.17074 0.0
H199 H 1.02265 0.77439 0.16628 0.0
Tb200 Tb 0.37337 0.17231 0.63671 0.0
Tb201 Tb 0.33436 0.09919 0.64274 0.0
C202 C 0.40996 0.23101 0.63584 0.0
C203 C 0.4396 0.25879 0.64288 0.0
C204 C 0.43808 0.27972 0.6567 0.0
C205 C 0.46443 0.3094 0.66028 0.0
C206 C 0.49292 0.31896 0.65005 0.0
C207 C 0.49496 0.29733 0.63706 0.0
C208 C 0.46856 0.26762 0.63345 0.0
C209 C 0.3511 0.13569 0.60444 0.0
C210 C 0.408 0.13407 0.64721 0.0
C211 C 0.29918 0.04233 0.63365 0.0
C212 C 0.26586 0.01955 0.63763 0.0
C213 C 0.25094 0.99092 0.62713 0.0
C214 C 0.21839 0.97077 0.6289 0.0
C215 C 0.20014 0.97901 0.64115 0.0
C216 C 0.21541 1.00755 0.65197 0.0
C217 C 0.24799 0.02766 0.65019 0.0
C218 C 0.3439 0.12839 0.67773 0.0
C219 C 0.30064 0.14102 0.64161 0.0
O220 O 0.38651 0.21696 0.64857 0.0
O221 O 0.41181 0.21124 0.62334 0.0
O222 O 0.36245 0.13091 0.61994 0.0
O223 O 0.35213 0.16251 0.60633 0.0
O224 O 0.40795 0.16107 0.64876 0.0
O225 O 0.38246 0.10705 0.64218 0.0
O226 O 0.30356 0.06584 0.62216 0.0
O227 O 0.31839 0.05156 0.64913 0.0
O228 O 0.35281 0.14031 0.66061 0.0
O229 O 0.32801 0.098 0.67542 0.0
O230 O 0.29805 0.11292 0.63873 0.0
O231 O 0.32813 0.16715 0.64363 0.0
H232 H 0.41605 0.27381 0.66403 0.0
H233 H 0.46218 0.32527 0.67062 0.0
H234 H 0.51645 0.30398 0.62881 0.0
H235 H 0.47049 0.25228 0.62251 0.0
H236 H 0.26432 0.98458 0.61709 0.0
H237 H 0.20737 0.94924 0.62012 0.0
H238 H 0.20215 1.01446 0.66168 0.0
H239 H 0.25912 0.04991 0.65823 0.0
Tb240 Tb 0.67792 0.82466 0.41663 0.0
Tb241 Tb 0.71572 0.78878 0.41168 0.0
C242 C 0.64224 0.84782 0.41631 0.0
C243 C 0.61191 0.84494 0.40997 0.0
C244 C 0.612 0.86542 0.39522 0.0
C245 C 0.5853 0.86825 0.39201 0.0
C246 C 0.5579 0.85078 0.40355 0.0
C247 C 0.55721 0.82894 0.41751 0.0
C248 C 0.58395 0.82613 0.42074 0.0
C249 C 0.70026 0.81177 0.44924 0.0
C250 C 0.64175 0.75041 0.40875 0.0
C251 C 0.75111 0.76795 0.422 0.0
C252 C 0.78459 0.77839 0.41866 0.0
C253 C 0.80019 0.76854 0.43184 0.0
C254 C 0.83285 0.78134 0.43052 0.0
C255 C 0.85052 0.80432 0.41601 0.0
C256 C 0.83462 0.81363 0.40252 0.0
C257 C 0.80194 0.80089 0.40391 0.0
C258 C 0.70421 0.805 0.37621 0.0
C259 C 0.7507 0.86473 0.41077 0.0
O260 O 0.6638 0.85393 0.40259 0.0
O261 O 0.64183 0.82898 0.43041 0.0
O262 O 0.68842 0.79477 0.43408 0.0
O263 O 0.69985 0.8378 0.44677 0.0
O264 O 0.64198 0.77755 0.40687 0.0
O265 O 0.66749 0.74897 0.41327 0.0
O266 O 0.74634 0.78747 0.43289 0.0
O267 O 0.73228 0.75724 0.40636 0.0
O268 O 0.69759 0.81087 0.39334 0.0
O269 O 0.71878 0.78922 0.37878 0.0
O270 O 0.75288 0.83898 0.4136 0.0
O271 O 0.72341 0.86391 0.40928 0.0
H272 H 0.63326 0.88048 0.38682 0.0
H273 H 0.58647 0.88489 0.38089 0.0
H274 H 0.53659 0.81527 0.42677 0.0
H275 H 0.58315 0.81038 0.4324 0.0
H276 H 0.78723 0.75153 0.4435 0.0
H277 H 0.84431 0.77338 0.44097 0.0
H278 H 0.84757 0.83151 0.39133 0.0
H279 H 0.79034 0.80926 0.39386 0.0
Tb280 Tb 0.87157 0.67305 0.91614 0.0
Tb281 Tb 0.94045 0.7053 0.90645 0.0
C282 C 0.81239 0.63935 0.91891 0.0
C283 C 0.78472 0.60716 0.91682 0.0
C284 C 0.77218 0.5942 0.89789 0.0
C285 C 0.74299 0.56632 0.89629 0.0
C286 C 0.72561 0.55082 0.91356 0.0
C287 C 0.7388 0.56321 0.93247 0.0
C288 C 0.76791 0.59106 0.93406 0.0
C289 C 0.91099 0.69973 0.9466 0.0
C290 C 0.90558 0.63254 0.91085 0.0
C291 C 0.99906 0.74264 0.90622 0.0
C292 C 1.01953 0.77715 0.9079 0.0
C293 C 1.01187 0.79525 0.92065 0.0
C294 C 0.03131 0.82808 0.92158 0.0
C295 C 0.05875 0.84345 0.90974 0.0
C296 C 0.06613 0.82512 0.89694 0.0
C297 C 0.04675 0.79236 0.89607 0.0
C298 C 0.90342 0.67834 0.87543 0.0
C299 C 0.90397 0.74454 0.90897 0.0
O300 O 0.82711 0.65445 0.90262 0.0
O301 O 0.83176 0.64474 0.93386 0.0
O302 O 0.91347 0.68434 0.93238 0.0
O303 O 0.88487 0.70008 0.94457 0.0
O304 O 0.87913 0.63359 0.90953 0.0
O305 O 0.93346 0.65853 0.91259 0.0
O306 O 0.98318 0.72782 0.92226 0.0
O307 O 0.98194 0.73254 0.88994 0.0
O308 O 0.89869 0.69312 0.88937 0.0
O309 O 0.93045 0.68007 0.87818 0.0
O310 O 0.93119 0.74492 0.91038 0.0
O311 O 0.8769 0.71791 0.90842 0.0
H312 H 0.78434 0.6061 0.88427 0.0
H313 H 0.73376 0.55722 0.8815 0.0
H314 H 0.72598 0.5522 0.94609 0.0
H315 H 0.77664 0.60073 0.94884 0.0
H316 H 0.99087 0.78406 0.92989 0.0
H317 H 1.02502 0.84135 0.93174 0.0
H318 H 0.08669 0.83612 0.88733 0.0
H319 H 0.05291 0.77887 0.88599 0.0
Tb320 Tb 0.21549 0.86086 0.41785 0.0
Tb321 Tb 0.25291 0.93432 0.41193 0.0
C322 C 0.1914 0.80181 0.41847 0.0
C323 C 0.19543 0.77425 0.41422 0.0
C324 C 0.18721 0.75906 0.39544 0.0
C325 C 0.18513 0.72968 0.39274 0.0
C326 C 0.19099 0.71466 0.40879 0.0
C327 C 0.20047 0.73053 0.42731 0.0
C328 C 0.20257 0.75986 0.43 0.0
C329 C 0.22899 0.89763 0.44989 0.0
C330 C 0.29007 0.89728 0.4106 0.0
C331 C 0.27473 0.99105 0.4216 0.0
C332 C 0.26459 1.01433 0.41833 0.0
C333 C 0.27343 0.0389 0.43219 0.0
C334 C 0.26056 0.05871 0.43104 0.0
C335 C 0.23855 0.05426 0.41601 0.0
C336 C 0.23037 0.03007 0.40179 0.0
C337 C 0.24313 1.01012 0.40303 0.0
C338 C 0.23607 0.90533 0.37678 0.0
C339 C 0.17699 0.89466 0.4104 0.0
O340 O 0.18832 0.81722 0.40337 0.0
O341 O 0.20752 0.82043 0.43338 0.0
O342 O 0.24608 0.90172 0.43492 0.0
O343 O 0.20245 0.87162 0.44746 0.0
O344 O 0.26264 0.87047 0.40958 0.0
O345 O 0.2922 0.92515 0.41378 0.0
O346 O 0.25551 0.96729 0.43287 0.0
O347 O 0.28459 0.98213 0.40589 0.0
O348 O 0.23006 0.89341 0.39405 0.0
O349 O 0.25246 0.93574 0.37901 0.0
O350 O 0.20296 0.92231 0.41359 0.0
O351 O 0.17715 0.86781 0.40923 0.0
H352 H 0.18116 0.76925 0.38302 0.0
H353 H 0.17822 0.71839 0.37818 0.0
H354 H 0.20475 0.71961 0.4401 0.0
H355 H 0.20835 0.77056 0.44477 0.0
H356 H 0.28961 0.04221 0.44427 0.0
H357 H 0.26762 0.07734 0.44207 0.0
H358 H 0.21326 0.02586 0.39016 0.0
H359 H 0.23551 0.99083 0.39243 0.0
Tb360 Tb 0.37329 0.20604 0.92047 0.0
Tb361 Tb 0.33669 0.24277 0.91433 0.0
C362 C 0.40736 0.18107 0.92121 0.0
C363 C 0.43873 0.18404 0.91857 0.0
C364 C 0.45369 0.18965 0.89978 0.0
C365 C 0.4808 0.18701 0.89744 0.0
C366 C 0.49303 0.1783 0.91375 0.0
C367 C 0.4787 0.17403 0.93262 0.0
C368 C 0.45191 0.17685 0.93498 0.0
C369 C 0.34993 0.2195 0.95242 0.0
C370 C 0.41125 0.28063 0.91337 0.0
C371 C 0.30178 0.26486 0.92325 0.0
C372 C 0.26862 0.25457 0.91881 0.0
C373 C 0.25364 0.26883 0.92863 0.0
C374 C 0.22118 0.25674 0.92629 0.0
C375 C 0.20312 0.23 0.91419 0.0
C376 C 0.21843 0.21612 0.90412 0.0
C377 C 0.25088 0.22831 0.9064 0.0
C378 C 0.34661 0.22349 0.87933 0.0
C379 C 0.3006 0.16692 0.91418 0.0
O380 O 0.39132 0.18075 0.90535 0.0
O381 O 0.40351 0.19549 0.93661 0.0
O382 O 0.36277 0.23659 0.93745 0.0
O383 O 0.34965 0.1931 0.95002 0.0
O384 O 0.4111 0.25341 0.91299 0.0
O385 O 0.38517 0.28241 0.9158 0.0
O386 O 0.3056 0.24529 0.93465 0.0
O387 O 0.32152 0.27513 0.90806 0.0
O388 O 0.3546 0.21958 0.89653 0.0
O389 O 0.33161 0.2389 0.88155 0.0
O390 O 0.29903 0.19298 0.91719 0.0
O391 O 0.32767 0.16729 0.91247 0.0
H392 H 0.44391 0.19498 0.88681 0.0
H393 H 0.49134 0.1904 0.8827 0.0
H394 H 0.48785 0.1678 0.94554 0.0
H395 H 0.44071 0.17215 0.94958 0.0
H396 H 0.26688 0.28878 0.93853 0.0
H397 H 0.21007 0.26774 0.93445 0.0
H398 H 0.20529 0.19573 0.89454 0.0
H399 H 0.26203 0.21679 0.89886 0.0
Tb400 Tb 0.18041 0.36361 0.41887 0.0
Tb401 Tb 0.10727 0.32518 0.41258 0.0
C402 C 0.23911 0.4002 0.42036 0.0
C403 C 0.26647 0.43138 0.41525 0.0
C404 C 0.28091 0.4372 0.39628 0.0
C405 C 0.31026 0.46428 0.393 0.0
C406 C 0.3259 0.486 0.40863 0.0
C407 C 0.3107 0.48075 0.4273 0.0
C408 C 0.28143 0.45378 0.43056 0.0
C409 C 0.14365 0.34025 0.45082 0.0
C410 C 0.14222 0.39923 0.41001 0.0
C411 C 0.05043 0.28916 0.42136 0.0
C412 C 0.02808 0.25585 0.41683 0.0
C413 C 0.99797 0.24093 0.42546 0.0
C414 C 0.97784 0.20845 0.42296 0.0
C415 C 0.98764 0.1903 0.41191 0.0
C416 C 1.01771 0.20555 0.40299 0.0
C417 C 0.03772 0.23804 0.40541 0.0
C418 C 0.13638 0.33602 0.37756 0.0
C419 C 0.14902 0.29117 0.41269 0.0
O420 O 0.22498 0.37938 0.40601 0.0
O421 O 0.21945 0.39929 0.43407 0.0
O422 O 0.13906 0.35239 0.43565 0.0
O423 O 0.17019 0.34074 0.44868 0.0
O424 O 0.16936 0.39935 0.40876 0.0
O425 O 0.11497 0.37323 0.41397 0.0
O426 O 0.07402 0.29359 0.43283 0.0
O427 O 0.05952 0.30888 0.4062 0.0
O428 O 0.14839 0.34398 0.39477 0.0
O429 O 0.10599 0.32053 0.37982 0.0
O430 O 0.12099 0.28868 0.41568 0.0
O431 O 0.17526 0.31863 0.41106 0.0
H432 H 0.2702 0.42029 0.38419 0.0
H433 H 0.32106 0.46779 0.37834 0.0
H434 H 0.32212 0.49662 0.43979 0.0
H435 H 0.27126 0.4497 0.44545 0.0
H436 H 0.99033 0.25425 0.43455 0.0
H437 H 0.95499 0.19738 0.43021 0.0
H438 H 0.02582 0.19234 0.39421 0.0
H439 H 0.061 0.24916 0.39873 0.0
Tb440 Tb 0.83608 0.17268 0.91806 0.0
Tb441 Tb 0.80151 0.09966 0.91124 0.0
C442 C 0.85868 0.23139 0.91931 0.0
C443 C 0.85391 0.25832 0.91485 0.0
C444 C 0.86873 0.27759 0.89814 0.0
C445 C 0.87027 0.30678 0.89618 0.0
C446 C 0.85734 0.31742 0.91102 0.0
C447 C 0.84101 0.29739 0.92712 0.0
C448 C 0.83935 0.26819 0.92904 0.0
C449 C 0.82202 0.1356 0.94978 0.0
C450 C 0.76234 0.13464 0.90873 0.0
C451 C 0.77997 0.04269 0.91964 0.0
C452 C 0.79102 0.02047 0.91519 0.0
C453 C 0.81754 0.02968 0.90295 0.0
C454 C 0.83062 1.01016 0.90082 0.0
C455 C 0.81739 0.98111 0.91092 0.0
C456 C 0.7903 0.9717 0.92277 0.0
C457 C 0.77731 0.99129 0.92493 0.0
C458 C 0.82103 0.12944 0.87657 0.0
C459 C 0.87726 0.14118 0.91254 0.0
O460 O 0.8635 0.21682 0.90434 0.0
O461 O 0.84181 0.21218 0.93374 0.0
O462 O 0.80556 0.13111 0.93444 0.0
O463 O 0.84805 0.16223 0.94797 0.0
O464 O 0.78923 0.16198 0.90826 0.0
O465 O 0.76113 0.10728 0.91212 0.0
O466 O 0.79885 0.06598 0.93145 0.0
O467 O 0.76994 0.05215 0.90434 0.0
O468 O 0.82429 0.14103 0.89385 0.0
O469 O 0.8063 0.099 0.87851 0.0
O470 O 0.85157 0.11303 0.91484 0.0
O471 O 0.87609 0.16746 0.91105 0.0
H472 H 0.88059 0.27088 0.88712 0.0
H473 H 0.88315 0.32177 0.88366 0.0
H474 H 0.8304 0.30475 0.93863 0.0
H475 H 0.82798 0.25412 0.9422 0.0
H476 H 0.82862 0.05234 0.89548 0.0
H477 H 0.85125 0.01795 0.89143 0.0
H478 H 0.7798 0.94969 0.93097 0.0
H479 H 0.75714 0.98409 0.93469 0.0
H480 H 0.19545 0.9227 0.15496 0.0
H481 H 0.20108 0.97489 0.15414 0.0
H482 H 0.10674 0.93542 0.13066 0.0
H483 H 0.10067 0.88243 0.13154 0.0
H484 H 0.19692 1.00423 0.11904 0.0
H485 H 0.11048 0.99434 0.17698 0.0
H486 H 0.12501 0.96698 0.17553 0.0
H487 H 0.09634 0.96444 0.15776 0.0
C488 C 0.17568 0.92487 0.14975 0.0
C489 C 0.14763 0.8983 0.14318 0.0
C490 C 0.17899 0.95483 0.14931 0.0
C491 C 0.15438 0.95908 0.14237 0.0
C492 C 0.12593 0.9326 0.13629 0.0
H493 H 0.19933 0.15126 0.11017 0.0
H494 H 0.17752 0.09408 0.10904 0.0
C495 C 0.12252 0.90237 0.13677 0.0
C496 C 0.15976 0.99162 0.14058 0.0
H497 H 0.13971 0.04342 0.16078 0.0
C498 C 0.18419 1.01276 0.12799 0.0
C499 C 0.14328 1.00266 0.15241 0.0
C500 C 0.11742 0.9811 0.16657 0.0
C501 C 0.19321 0.04482 0.1273 0.0
C502 C 0.17693 0.056 0.13925 0.0
C503 C 0.152 0.03473 0.15153 0.0
C504 C 0.18707 0.09008 0.14025 0.0
C505 C 0.22103 0.0667 0.11445 0.0
C506 C 0.19862 0.10665 0.15833 0.0
C507 C 0.21079 0.13926 0.15909 0.0
C508 C 0.21163 0.15602 0.14176 0.0
C509 C 0.19897 0.13914 0.12382 0.0
C510 C 0.18673 0.10647 0.12309 0.0
H511 H 0.23506 0.05567 0.10966 0.0
H512 H 0.21241 0.07285 0.10077 0.0
H513 H 0.23681 0.0889 0.12263 0.0
H514 H 0.19897 0.09445 0.17177 0.0
H515 H 0.21973 0.15137 0.17325 0.0
H516 H 0.29717 0.19215 0.65395 0.0
H517 H 0.25203 0.20002 0.653 0.0
H518 H 0.19395 0.1058 0.62986 0.0
H519 H 0.23946 0.09739 0.63096 0.0
H520 H 0.21952 0.19741 0.61819 0.0
H521 H 0.14006 0.11252 0.67565 0.0
H522 H 0.18154 0.12506 0.67427 0.0
H523 H 0.15452 0.09704 0.65647 0.0
C524 C 0.27483 0.17287 0.64876 0.0
C525 C 0.27205 0.14417 0.64235 0.0
C526 C 0.24898 0.17747 0.64827 0.0
C527 C 0.21963 0.15354 0.64141 0.0
C528 C 0.21634 0.12447 0.63545 0.0
H529 H 0.07794 0.20334 0.60571 0.0
H530 H 0.1132 0.18143 0.60612 0.0
C531 C 0.24237 0.11974 0.63601 0.0
C532 C 0.19343 0.16036 0.63949 0.0
H533 H 0.12185 0.14279 0.65887 0.0
C534 C 0.19802 0.18529 0.62695 0.0
C535 C 0.16562 0.14472 0.6511 0.0
C536 C 0.16003 0.11847 0.66527 0.0
C537 C 0.17592 0.1955 0.626 0.0
C538 C 0.14803 0.17987 0.63759 0.0
C539 C 0.14315 0.15459 0.64992 0.0
C540 C 0.12446 0.19051 0.63768 0.0
C541 C 0.18329 0.22376 0.6132 0.0
C542 C 0.11816 0.20183 0.65545 0.0
C543 C 0.09787 0.21425 0.65528 0.0
C544 C 0.08358 0.21561 0.63731 0.0
C545 C 0.08915 0.20328 0.61969 0.0
C546 C 0.10923 0.19068 0.61991 0.0
H547 H 0.20872 0.23757 0.60927 0.0
H548 H 0.16967 0.21563 0.59901 0.0
H549 H 0.17657 0.23962 0.62098 0.0
H550 H 0.12963 0.20188 0.66935 0.0
H551 H 0.09409 0.22361 0.66908 0.0
H552 H 0.88288 0.11843 0.1467 0.0
H553 H 0.94025 0.15196 0.14812 0.0
H554 H 0.95063 0.06966 0.14465 0.0
H555 H 0.89319 0.03592 0.14274 0.0
H556 H 0.98285 0.1501 0.17686 0.0
H557 H 1.00784 0.12725 0.09896 0.0
H558 H 0.96893 0.11823 0.10687 0.0
H559 H 0.98433 0.09343 0.11446 0.0
C560 C 0.89734 0.10745 0.14608 0.0
C561 C 0.88342 0.0745 0.14453 0.0
C562 C 0.93012 0.12662 0.14701 0.0
C563 C 0.94969 0.11331 0.14626 0.0
C564 C 0.93596 0.08043 0.14498 0.0
H565 H 0.15888 0.22952 0.14165 0.0
H566 H 0.10628 0.18205 0.14425 0.0
C567 C 0.90312 0.06119 0.14411 0.0
C568 C 0.98444 0.13416 0.14698 0.0
H569 H 0.05105 0.16384 0.11821 0.0
C570 C 0.99783 0.15281 0.16413 0.0
C571 C 1.00399 0.13741 0.13044 0.0
C572 C 0.99069 0.11822 0.11155 0.0
C573 C 0.03001 0.17549 0.1649 0.0
C574 C 0.04921 0.18001 0.14795 0.0
C575 C 0.03625 0.16024 0.13119 0.0
C576 C 0.08125 0.20796 0.14636 0.0
C577 C 0.04303 0.1951 0.18366 0.0
C578 C 0.08443 0.238 0.14629 0.0
C579 C 0.11405 0.26484 0.14474 0.0
C580 C 0.14145 0.26243 0.14314 0.0
C581 C 0.13831 0.23222 0.14295 0.0
C582 C 0.10833 0.20512 0.14442 0.0
H583 H 0.02862 0.18266 0.19702 0.0
H584 H 0.0678 0.20108 0.18638 0.0
H585 H 0.04262 0.21743 0.18193 0.0
H586 H 0.06381 0.24071 0.14735 0.0
H587 H 0.11532 0.28756 0.14485 0.0
H588 H 0.83847 0.88301 0.60435 0.0
H589 H 0.86157 0.94031 0.60494 0.0
H590 H 0.84629 0.9373 0.66882 0.0
H591 H 0.8235 0.87995 0.66835 0.0
H592 H 0.83303 0.9724 0.61503 0.0
H593 H 0.93596 1.00938 0.66495 0.0
H594 H 0.91441 0.97027 0.65425 0.0
H595 H 0.89983 0.98018 0.67628 0.0
C596 C 0.84012 0.89456 0.61854 0.0
C597 C 0.82904 0.87693 0.6363 0.0
C598 C 0.85351 0.92735 0.61887 0.0
C599 C 0.85616 0.94325 0.63696 0.0
C600 C 0.84535 0.92573 0.65476 0.0
H601 H 0.85264 0.11296 0.65508 0.0
H602 H 0.84534 0.06014 0.65333 0.0
C603 C 0.83214 0.89291 0.65446 0.0
C604 C 0.86776 0.97772 0.63689 0.0
H605 H 0.91972 0.04772 0.65928 0.0
C606 C 0.85227 0.98887 0.62452 0.0
C607 C 0.89315 0.99939 0.64907 0.0
C608 C 0.91202 0.98927 0.66173 0.0
C609 C 0.86055 0.02074 0.62461 0.0
C610 C 0.88461 0.04201 0.63767 0.0
C611 C 0.90108 0.03128 0.64942 0.0
C612 C 0.89104 0.07479 0.64027 0.0
C613 C 0.84313 0.03132 0.6109 0.0
C614 C 0.91978 0.10082 0.63422 0.0
C615 C 0.92418 0.13143 0.63524 0.0
C616 C 0.89985 0.1363 0.64234 0.0
C617 C 0.87174 0.11017 0.64922 0.0
C618 C 0.86746 0.07985 0.64824 0.0
H619 H 0.83192 1.0147 0.59816 0.0
H620 H 0.82422 0.03231 0.61951 0.0
H621 H 0.85923 0.05521 0.60482 0.0
H622 H 0.93836 0.09735 0.62815 0.0
H623 H 0.94613 0.15104 0.6299 0.0
H624 H 0.9963 0.86229 0.12338 0.0
H625 H 0.96252 0.8857 0.1267 0.0
H626 H 0.89841 0.80773 0.16385 0.0
H627 H 0.93252 0.78465 0.16095 0.0
H628 H 0.90369 0.86312 0.11452 0.0
H629 H 0.90668 0.88012 0.19664 0.0
H630 H 0.9337 0.87096 0.18392 0.0
H631 H 0.89452 0.84004 0.19026 0.0
C632 C 0.97508 0.85026 0.13236 0.0
C633 C 0.96706 0.82164 0.14193 0.0
C634 C 0.95585 0.86371 0.1343 0.0
C635 C 0.92816 0.84883 0.14582 0.0
C636 C 0.92012 0.82022 0.15539 0.0
H637 H 0.75596 0.84662 0.15892 0.0
H638 H 0.80258 0.84101 0.16 0.0
C639 C 0.93953 0.80692 0.15364 0.0
C640 C 0.90663 0.86206 0.14672 0.0
H641 H 0.86403 0.88067 0.17897 0.0
C642 C 0.89548 0.86752 0.12862 0.0
C643 C 0.89603 0.86803 0.16511 0.0
C644 C 0.90863 0.8648 0.18506 0.0
C645 C 0.87279 0.8771 0.12841 0.0
C646 C 0.86109 0.88153 0.14679 0.0
C647 C 0.87306 0.87724 0.16489 0.0
C648 C 0.83392 0.88699 0.14749 0.0
C649 C 0.8603 0.88088 0.10856 0.0
C650 C 0.83622 0.91513 0.1405 0.0
C651 C 0.80941 0.91854 0.13989 0.0
C652 C 0.77993 0.89371 0.14612 0.0
C653 C 0.77815 0.8661 0.15376 0.0
C654 C 0.80484 0.86285 0.15449 0.0
H655 H 0.86902 0.8728 0.09575 0.0
H656 H 0.83411 0.86738 0.10851 0.0
H657 H 0.86784 0.90611 0.10625 0.0
H658 H 0.85859 0.93419 0.13522 0.0
H659 H 0.81158 0.94014 0.134 0.0
H660 H 0.8899 0.80468 0.6359 0.0
H661 H 0.94314 0.8515 0.63568 0.0
H662 H 0.98377 0.7918 0.64307 0.0
H663 H 0.93157 0.74547 0.64337 0.0
H664 H 0.99575 0.87022 0.66686 0.0
H665 H 1.02431 0.84571 0.59076 0.0
H666 H 0.98427 0.83007 0.59949 0.0
H667 H 1.0068 0.81202 0.60705 0.0
C668 C 0.9102 0.80159 0.63755 0.0
C669 C 0.90636 0.77122 0.63949 0.0
C670 C 0.94053 0.82832 0.63743 0.0
C671 C 0.96729 0.82495 0.63909 0.0
C672 C 0.96342 0.79483 0.64151 0.0
H673 H 0.1661 0.91452 0.64288 0.0
H674 H 0.10878 0.88058 0.64229 0.0
C675 C 0.9334 0.76832 0.6417 0.0
C676 C 0.99966 0.85238 0.63813 0.0
H677 H 0.06798 0.88026 0.61146 0.0
C678 C 1.01149 0.87298 0.65459 0.0
C679 C 1.02003 0.85573 0.6221 0.0
C680 C 1.00822 0.8349 0.60374 0.0
C681 C 0.04372 0.89572 0.65596 0.0
C682 C 0.06436 0.89796 0.64036 0.0
C683 C 0.05215 0.87833 0.62348 0.0
C684 C 0.099 0.91904 0.64169 0.0
C685 C 0.05579 0.91603 0.67452 0.0
C686 C 0.1125 0.95195 0.64157 0.0
C687 C 0.14533 0.97146 0.64179 0.0
C688 C 0.16524 0.95838 0.64205 0.0
C689 C 0.15152 0.92538 0.64242 0.0
C690 C 0.11876 0.90594 0.64218 0.0
H691 H 0.03779 0.90776 0.68662 0.0
H692 H 0.07718 0.91631 0.68032 0.0
H693 H 0.06242 0.94063 0.67069 0.0
H694 H 0.09768 0.96253 0.64083 0.0
H695 H 0.1551 0.99676 0.64117 0.0
H696 H 0.12482 0.8483 0.39219 0.0
H697 H 0.0716 0.84019 0.39264 0.0
H698 H 0.10461 0.92749 0.42507 0.0
H699 H 0.15863 0.93608 0.42448 0.0
H700 H 0.03929 0.83364 0.42817 0.0
H701 H 0.04606 0.93071 0.38135 0.0
H702 H 0.07553 0.91883 0.38023 0.0
H703 H 0.07497 0.94198 0.40097 0.0
C704 C 0.12097 0.86607 0.39922 0.0
C705 C 0.14592 0.8927 0.4085 0.0
C706 C 0.09048 0.86139 0.39942 0.0
C707 C 0.08408 0.88316 0.40889 0.0
C708 C 0.10909 0.91055 0.41746 0.0
H709 H 0.8918 0.82465 0.44753 0.0
H710 H 0.94896 0.8466 0.44654 0.0
C711 C 0.13991 0.9154 0.41716 0.0
C712 C 0.05075 0.87528 0.41112 0.0
H713 H 0.99701 0.89653 0.39669 0.0
C714 C 0.03008 0.8475 0.42139 0.0
C715 C 0.03878 0.89326 0.40211 0.0
C716 C 0.05983 0.92276 0.3904 0.0
C717 C 0.9977 0.83688 0.42264 0.0
C718 C 0.98567 0.85489 0.41373 0.0
C719 C 1.00635 0.88289 0.40361 0.0
C720 C 0.95146 0.84421 0.41423 0.0
C721 C 0.97651 0.80585 0.43291 0.0
C722 C 0.93401 0.83655 0.39635 0.0
C723 C 0.90129 0.82402 0.39686 0.0
C724 C 0.88544 0.81892 0.41528 0.0
C725 C 0.90319 0.8276 0.43312 0.0
C726 C 0.93587 0.84025 0.43258 0.0
H727 H 0.98813 0.79145 0.43459 0.0
H728 H 0.9705 0.81048 0.44812 0.0
H729 H 0.95421 0.79185 0.42442 0.0
H730 H 0.94558 0.83943 0.38202 0.0
H731 H 0.88831 0.8175 0.38287 0.0
H732 H 0.12331 0.8771 0.90879 0.0
H733 H 0.15769 0.93429 0.90877 0.0
H734 H 0.07663 0.94653 0.91322 0.0
H735 H 0.04177 0.88911 0.91275 0.0
H736 H 0.15351 0.97777 0.87969 0.0
H737 H 0.1388 1.00251 0.95943 0.0
H738 H 0.13035 0.96387 0.95116 0.0
H739 H 0.10396 0.97793 0.94486 0.0
C740 C 0.11266 0.89185 0.90962 0.0
C741 C 0.07969 0.87838 0.91066 0.0
C742 C 0.1324 0.92456 0.90974 0.0
C743 C 0.11971 0.9446 0.91111 0.0
C744 C 0.08689 0.93143 0.9124 0.0
H745 H 0.23873 0.15283 0.91867 0.0
H746 H 0.19105 0.1004 0.91667 0.0
C747 C 0.06704 0.8986 0.91219 0.0
C748 C 0.14113 0.97925 0.9105 0.0
H749 H 0.17541 0.04528 0.93999 0.0
C750 C 0.15802 0.99263 0.8928 0.0
C751 C 0.14667 0.99861 0.92754 0.0
C752 C 0.12918 0.98518 0.94692 0.0
C753 C 0.18117 0.02464 0.89189 0.0
C754 C 0.18811 0.04364 0.90928 0.0
C755 C 0.17008 0.03067 0.92669 0.0
C756 C 0.21636 0.07565 0.91028 0.0
C757 C 0.19847 0.0377 0.87239 0.0
C758 C 0.24628 0.079 0.90765 0.0
C759 C 0.27331 0.10861 0.90879 0.0
C760 C 0.27124 0.13578 0.91274 0.0
C761 C 0.2412 0.13245 0.91553 0.0
C762 C 0.21395 0.10254 0.91442 0.0
H763 H 0.18397 0.02391 0.85934 0.0
H764 H 0.20508 0.06279 0.87044 0.0
H765 H 0.22037 0.03623 0.87237 0.0
H766 H 0.24877 0.05853 0.90488 0.0
H767 H 0.29592 0.11004 0.90664 0.0
H768 H 0.10553 0.23015 0.42352 0.0
H769 H 0.11396 0.18463 0.42464 0.0
H770 H 0.20731 0.24203 0.40032 0.0
H771 H 0.19941 0.28722 0.3993 0.0
H772 H 0.1325 0.15426 0.39395 0.0
H773 H 0.22167 0.20959 0.45427 0.0
H774 H 0.19457 0.22308 0.44782 0.0
H775 H 0.22938 0.23479 0.43297 0.0
C776 C 0.12772 0.23294 0.41827 0.0
C777 C 0.15198 0.26248 0.41165 0.0
C778 C 0.13249 0.20695 0.41891 0.0
C779 C 0.16152 0.2102 0.41295 0.0
C780 C 0.18501 0.2392 0.4054 0.0
H781 H 0.22815 0.08203 0.38349 0.0
H782 H 0.20551 0.11674 0.38329 0.0
C783 C 0.18038 0.26504 0.40482 0.0
C784 C 0.16826 0.18401 0.41518 0.0
H785 H 0.2205 0.16629 0.43699 0.0
C786 C 0.15146 0.15662 0.40353 0.0
C787 C 0.1927 0.18696 0.42791 0.0
C788 C 0.21044 0.21505 0.44161 0.0
C789 C 0.1594 0.13268 0.40366 0.0
C790 C 0.18514 0.13656 0.4155 0.0
C791 C 0.201 0.1634 0.42775 0.0
C792 C 0.1966 0.11358 0.41526 0.0
C793 C 0.14011 0.10347 0.39117 0.0
C794 C 0.19972 0.10068 0.43331 0.0
C795 C 0.21302 0.08122 0.43349 0.0
C796 C 0.22355 0.07422 0.4156 0.0
C797 C 0.21996 0.08672 0.39748 0.0
C798 C 0.20684 0.10641 0.39734 0.0
H799 H 0.11611 0.09964 0.38823 0.0
H800 H 0.15189 0.10626 0.37648 0.0
H801 H 0.13787 0.08219 0.39863 0.0
H802 H 0.1921 0.10594 0.44734 0.0
H803 H 0.21504 0.0716 0.44766 0.0
H804 H 0.15731 0.16759 0.9151 0.0
H805 H 0.10006 0.14511 0.91262 0.0
H806 H 0.11305 0.23865 0.90754 0.0
H807 H 0.17024 0.26126 0.90962 0.0
H808 H 0.06032 0.15699 0.93814 0.0
H809 H 0.0559 0.19073 0.85947 0.0
H810 H 0.08976 0.19027 0.86979 0.0
H811 H 0.08369 0.22298 0.87473 0.0
C812 C 0.14799 0.18335 0.91319 0.0
C813 C 0.16837 0.21624 0.91245 0.0
C814 C 0.11528 0.17046 0.9119 0.0
C815 C 0.10234 0.19017 0.90963 0.0
C816 C 0.12257 0.22297 0.90897 0.0
H817 H 0.93381 0.19525 0.90882 0.0
H818 H 0.9861 0.20149 0.90754 0.0
C819 C 0.15524 0.23588 0.91034 0.0
C820 C 0.06767 0.17674 0.9085 0.0
H821 H 1.01001 0.17609 0.87945 0.0
C822 C 0.04913 0.16065 0.92521 0.0
C823 C 0.05317 0.18135 0.89154 0.0
C824 C 0.07158 0.197 0.87277 0.0
C825 C 1.01678 0.15082 0.92587 0.0
C826 C 1.00263 0.15684 0.90926 0.0
C827 C 1.02091 0.17154 0.89219 0.0
C828 C 0.97009 0.15172 0.91012 0.0
C829 C 0.99839 0.13569 0.94473 0.0
C830 C 0.94344 0.12146 0.91193 0.0
C831 C 0.91305 0.11769 0.91273 0.0
C832 C 0.90895 0.14413 0.91165 0.0
C833 C 0.93583 0.17425 0.9097 0.0
C834 C 0.96591 0.17794 0.90893 0.0
H835 H 1.01392 0.13702 0.95728 0.0
H836 H 0.98483 0.14721 0.94951 0.0
H837 H 0.98129 0.11046 0.94172 0.0
H838 H 0.94612 0.10083 0.91259 0.0
H839 H 0.89289 0.09416 0.91414 0.0
H840 H 1.00417 0.14465 0.4153 0.0
H841 H 0.9697 0.08733 0.41287 0.0
H842 H 0.88976 0.09994 0.40269 0.0
H843 H 0.92406 0.15719 0.40473 0.0
H844 H 0.91573 0.04833 0.43695 0.0
H845 H 0.88497 0.0414 0.35642 0.0
H846 H 0.91837 0.07556 0.36736 0.0
H847 H 0.87926 0.06968 0.37025 0.0
C848 C 0.97931 0.13523 0.41227 0.0
C849 C 0.96687 0.15551 0.4101 0.0
C850 C 0.95965 0.10248 0.41101 0.0
C851 C 0.92728 0.08942 0.40734 0.0
C852 C 0.91478 0.10956 0.40521 0.0
H853 H 0.75389 0.92089 0.40333 0.0
H854 H 0.80016 0.97301 0.40199 0.0
C855 C 0.93436 0.14226 0.40657 0.0
C856 C 0.90618 0.05471 0.40635 0.0
H857 H 0.85197 0.99608 0.37633 0.0
C858 C 0.90213 0.03672 0.42362 0.0
C859 C 0.88869 0.03966 0.38888 0.0
C860 C 0.8932 0.05748 0.3696 0.0
C861 C 0.87954 1.00439 0.42427 0.0
C862 C 0.86098 0.98967 0.40707 0.0
C863 C 0.8662 1.00739 0.38951 0.0
C864 C 0.83346 0.95715 0.40765 0.0
C865 C 0.87446 0.98667 0.44366 0.0
C866 C 0.83674 0.93061 0.41112 0.0
C867 C 0.81 0.90032 0.41198 0.0
C868 C 0.77964 0.89621 0.40933 0.0
C869 C 0.77675 0.92294 0.40554 0.0
C870 C 0.80327 0.95292 0.4047 0.0
H871 H 0.88731 1.00266 0.4564 0.0
H872 H 0.84896 0.9731 0.44741 0.0
H873 H 0.883 0.96963 0.44195 0.0
H874 H 0.85991 0.9333 0.41313 0.0
H875 H 0.8131 0.88027 0.41482 0.0
H876 H 0.9524 0.80572 0.91511 0.0
H877 H 0.9479 0.85367 0.91625 0.0
H878 H 0.8488 0.79796 0.90252 0.0
H879 H 0.85285 0.75059 0.90127 0.0
H880 H 0.91686 0.8767 0.88362 0.0
H881 H 0.85926 0.84615 0.95836 0.0
H882 H 0.88468 0.83171 0.94957 0.0
H883 H 0.8447 0.81396 0.94079 0.0
C884 C 0.92976 0.80382 0.91217 0.0
C885 C 0.90294 0.77426 0.90832 0.0
C886 C 0.92725 0.83116 0.91283 0.0
C887 C 0.89792 0.82912 0.9097 0.0
C888 C 0.87154 0.79989 0.90519 0.0
H889 H 0.78823 0.91694 0.90711 0.0
H890 H 0.81264 0.88393 0.90718 0.0
C891 C 0.87397 0.7728 0.90451 0.0
C892 C 0.89369 0.85685 0.91164 0.0
H893 H 0.85175 0.8826 0.93873 0.0
C894 C 0.90332 0.87862 0.89587 0.0
C895 C 0.87588 0.85901 0.92762 0.0
C896 C 0.8657 0.83664 0.94516 0.0
C897 C 0.89384 0.9014 0.89508 0.0
C898 C 0.87452 0.90237 0.91055 0.0
C899 C 0.86638 0.88164 0.92682 0.0
C900 C 0.86045 0.92298 0.90952 0.0
C901 C 0.90296 0.92302 0.8772 0.0
C902 C 0.87929 0.95588 0.91076 0.0
C903 C 0.86537 0.97484 0.91081 0.0
C904 C 0.83235 0.96117 0.90972 0.0
C905 C 0.81366 0.92819 0.90822 0.0
C906 C 0.82758 0.90931 0.90817 0.0
H907 H 0.91384 0.916 0.86509 0.0
H908 H 0.88198 0.92321 0.87105 0.0
H909 H 0.92022 0.94743 0.88195 0.0
H910 H 0.90466 0.96684 0.91216 0.0
H911 H 0.8804 1.00014 0.9123 0.0
H912 H 0.09499 0.69207 0.14273 0.0
H913 H 0.09971 0.6445 0.14447 0.0
H914 H 0.20107 0.70233 0.14474 0.0
H915 H 0.19671 0.74959 0.14347 0.0
H916 H 0.12755 0.62267 0.11843 0.0
H917 H 0.1874 0.64593 0.192 0.0
H918 H 0.16881 0.66759 0.18336 0.0
H919 H 0.2079 0.67827 0.17503 0.0
C920 C 0.11827 0.69464 0.14333 0.0
C921 C 0.14542 0.72474 0.14314 0.0
C922 C 0.12093 0.66743 0.14431 0.0
C923 C 0.15075 0.66983 0.14518 0.0
C924 C 0.1778 0.69982 0.1447 0.0
H925 H 0.22964 0.54659 0.13753 0.0
H926 H 0.21964 0.59094 0.1386 0.0
C927 C 0.1752 0.72691 0.14384 0.0
C928 C 0.15394 0.64116 0.14576 0.0
H929 H 0.18964 0.607 0.17129 0.0
C930 C 0.14078 0.61904 0.13012 0.0
C931 C 0.17124 0.63639 0.16103 0.0
C932 C 0.18436 0.65815 0.1789 0.0
C933 C 0.14537 0.59292 0.12896 0.0
C934 C 0.1634 0.58871 0.14392 0.0
C935 C 0.17608 0.61047 0.15974 0.0
C936 C 0.16939 0.56183 0.14338 0.0
C937 C 0.13168 0.5705 0.11145 0.0
C938 C 0.14452 0.53085 0.14596 0.0
C939 C 0.15016 0.50554 0.14539 0.0
C940 C 0.18083 0.51066 0.14224 0.0
C941 C 0.20574 0.54181 0.13981 0.0
C942 C 0.20009 0.56716 0.14051 0.0
H943 H 0.12389 0.58041 0.09922 0.0
H944 H 0.14921 0.56461 0.10531 0.0
H945 H 0.11093 0.54825 0.1166 0.0
H946 H 0.12072 0.52625 0.14842 0.0
H947 H 0.13036 0.48186 0.14707 0.0
H948 H 0.68627 0.16692 0.67619 0.0
H949 H 0.63258 0.15788 0.67915 0.0
H950 H 0.63528 0.18465 0.6173 0.0
H951 H 0.68947 0.19559 0.61456 0.0
H952 H 0.60844 0.20901 0.63934 0.0
H953 H 0.55437 0.08227 0.65827 0.0
H954 H 0.5844 0.10753 0.6757 0.0
H955 H 0.59471 0.10553 0.65003 0.0
C956 C 0.67568 0.17143 0.6633 0.0
C957 C 0.69222 0.1817 0.64506 0.0
C958 C 0.64471 0.16569 0.66493 0.0
C959 C 0.62947 0.16968 0.64828 0.0
C960 C 0.64631 0.18098 0.63029 0.0
H961 H 0.42793 0.09556 0.63077 0.0
H962 H 0.48153 0.1034 0.63181 0.0
C963 C 0.6773 0.18702 0.62871 0.0
C964 C 0.59616 0.16254 0.6495 0.0
H965 H 0.52098 0.1045 0.66043 0.0
C966 C 0.58934 0.18613 0.64394 0.0
C967 C 0.57107 0.13249 0.65512 0.0
C968 C 0.57639 0.10539 0.65992 0.0
C969 C 0.55832 0.18065 0.64396 0.0
C970 C 0.53339 0.15104 0.6504 0.0
C971 C 0.54011 0.12731 0.65577 0.0
C972 C 0.50021 0.14428 0.65132 0.0
C973 C 0.55258 0.20644 0.63649 0.0
C974 C 0.49254 0.16378 0.66258 0.0
C975 C 0.46219 0.1596 0.66179 0.0
C976 C 0.43858 0.13533 0.6501 0.0
C977 C 0.44562 0.11443 0.63992 0.0
C978 C 0.47625 0.11896 0.64047 0.0
H979 H 0.57199 0.22321 0.62658 0.0
H980 H 0.53005 0.19656 0.62805 0.0
H981 H 0.55138 0.22002 0.64948 0.0
H982 H 0.51028 0.18279 0.67162 0.0
H983 H 0.45736 0.17581 0.67005 0.0
H984 H 0.55047 0.66847 0.16575 0.0
H985 H 0.50688 0.61396 0.167 0.0
H986 H 0.4554 0.63609 0.12382 0.0
H987 H 0.49855 0.69078 0.12273 0.0
H988 H 0.44186 0.58932 0.17643 0.0
H989 H 0.45912 0.56053 0.09854 0.0
H990 H 0.48869 0.59483 0.11182 0.0
H991 H 0.45541 0.59513 0.10072 0.0
C992 C 0.52968 0.66194 0.15676 0.0
C993 C 0.52814 0.68407 0.14406 0.0
C994 C 0.50489 0.63069 0.15738 0.0
C995 C 0.47821 0.62086 0.14522 0.0
C996 C 0.47612 0.64303 0.133 0.0
H997 H 0.29267 0.45983 0.14927 0.0
H998 H 0.34043 0.51121 0.15116 0.0
C999 C 0.50081 0.67429 0.13241 0.0
C1000 C 0.45248 0.58745 0.14529 0.0
H1001 H 0.41199 0.52299 0.11502 0.0
C1002 C 0.43546 0.57473 0.16305 0.0
C1003 C 0.44453 0.56829 0.12791 0.0
C1004 C 0.46304 0.58021 0.10869 0.0
C1005 C 0.40987 0.54372 0.16368 0.0
C1006 C 0.40095 0.52509 0.14604 0.0
C1007 C 0.41873 0.53739 0.12848 0.0
C1008 C 0.37219 0.49347 0.14523 0.0
C1009 C 0.39249 0.53117 0.18321 0.0
C1010 C 0.37411 0.46639 0.14084 0.0
C1011 C 0.34667 0.43674 0.1397 0.0
C1012 C 0.31686 0.43378 0.1427 0.0
C1013 C 0.31517 0.46109 0.14692 0.0
C1014 C 0.3425 0.49056 0.14815 0.0
H1015 H 0.40718 0.54467 0.19627 0.0
H1016 H 0.37097 0.53331 0.1832 0.0
H1017 H 0.38514 0.50589 0.18515 0.0
H1018 H 0.39683 0.46821 0.13838 0.0
H1019 H 0.34882 0.41624 0.13635 0.0
H1020 H 0.90515 0.54655 0.66468 0.0
H1021 H 0.91712 0.50371 0.66668 0.0
H1022 H 0.8359 0.44505 0.63007 0.0
H1023 H 0.8233 0.48743 0.62832 0.0
H1024 H 0.87909 0.43956 0.68037 0.0
H1025 H 0.91131 0.44686 0.59991 0.0
H1026 H 0.90862 0.47797 0.61276 0.0
H1027 H 0.87345 0.44322 0.60451 0.0
C1028 C 0.88946 0.52437 0.65734 0.0
C1029 C 0.86331 0.52057 0.64624 0.0
C1030 C 0.89651 0.49999 0.65839 0.0
C1031 C 0.87774 0.47145 0.64822 0.0
C1032 C 0.85108 0.46716 0.63768 0.0
H1033 H 0.85687 0.28776 0.65659 0.0
H1034 H 0.85331 0.33554 0.65883 0.0
C1035 C 0.84393 0.49143 0.63669 0.0
C1036 C 0.88607 0.44616 0.64849 0.0
H1037 H 0.90577 0.4025 0.61795 0.0
C1038 C 0.88515 0.43159 0.66677 0.0
C1039 C 0.8945 0.43617 0.63077 0.0
C1040 C 0.89736 0.45201 0.61088 0.0
C1041 C 0.89121 0.40642 0.66765 0.0
C1042 C 0.89814 0.39544 0.64977 0.0
C1043 C 0.90028 0.41083 0.63163 0.0
C1044 C 0.90135 0.36684 0.64938 0.0
C1045 C 0.89 0.39167 0.68771 0.0
C1046 C 0.92952 0.36846 0.64307 0.0
C1047 C 0.93171 0.34102 0.64175 0.0
C1048 C 0.90557 0.31143 0.64642 0.0
C1049 C 0.8775 0.31007 0.65284 0.0
C1050 C 0.87544 0.33743 0.65428 0.0
H1051 H 0.89315 0.40791 0.7003 0.0
H1052 H 0.86665 0.37005 0.68949 0.0
H1053 H 0.90845 0.38486 0.68877 0.0
H1054 H 0.94974 0.39094 0.63907 0.0
H1055 H 0.95361 0.34292 0.63667 0.0
H1056 H 0.62623 0.94576 0.14336 0.0
H1057 H 0.57398 0.94096 0.14607 0.0
H1058 H 0.53058 0.83962 0.14623 0.0
H1059 H 0.58219 0.84405 0.1439 0.0
H1060 H 0.52275 0.91183 0.12052 0.0
H1061 H 0.49059 0.8547 0.19505 0.0
H1062 H 0.53041 0.87354 0.18552 0.0
H1063 H 0.50198 0.83413 0.1777 0.0
C1064 C 0.60557 0.92247 0.14409 0.0
C1065 C 0.60856 0.89534 0.14357 0.0
C1066 C 0.57572 0.91976 0.14564 0.0
C1067 C 0.54838 0.88992 0.14678 0.0
C1068 C 0.55133 0.8629 0.14594 0.0
H1069 H 0.34588 0.81073 0.14582 0.0
H1070 H 0.4002 0.82069 0.14587 0.0
C1071 C 0.581 0.86554 0.14447 0.0
C1072 C 0.51656 0.88671 0.14813 0.0
H1073 H 0.44846 0.85237 0.17558 0.0
C1074 C 0.50663 0.89916 0.13268 0.0
C1075 C 0.49549 0.87011 0.16399 0.0
C1076 C 0.50524 0.85763 0.18161 0.0
C1077 C 0.47588 0.89454 0.1323 0.0
C1078 C 0.45462 0.87735 0.14793 0.0
C1079 C 0.46471 0.86535 0.16355 0.0
C1080 C 0.42175 0.8714 0.14827 0.0
C1081 C 0.46605 0.90725 0.11485 0.0
C1082 C 0.41584 0.89654 0.14994 0.0
C1083 C 0.38488 0.89094 0.14988 0.0
C1084 C 0.35911 0.86003 0.14824 0.0
C1085 C 0.36514 0.83482 0.14691 0.0
C1086 C 0.39615 0.84046 0.14702 0.0
H1087 H 0.48251 0.91347 0.10196 0.0
H1088 H 0.4419 0.8898 0.10973 0.0
H1089 H 0.4659 0.92889 0.11965 0.0
H1090 H 0.4352 0.92056 0.15121 0.0
H1091 H 0.3812 0.91096 0.15068 0.0
H1092 H 0.7556 0.57581 0.64791 0.0
H1093 H 0.70802 0.52465 0.65087 0.0
H1094 H 0.65101 0.56871 0.64569 0.0
H1095 H 0.69887 0.62045 0.64228 0.0
H1096 H 0.66071 0.50229 0.67866 0.0
H1097 H 0.61336 0.50057 0.60263 0.0
H1098 H 0.65317 0.52906 0.60987 0.0
H1099 H 0.62076 0.53383 0.61794 0.0
C1100 C 0.73303 0.57485 0.64738 0.0
C1101 C 0.73118 0.60241 0.64472 0.0
C1102 C 0.70577 0.54544 0.64911 0.0
C1103 C 0.6759 0.5427 0.64822 0.0
C1104 C 0.67381 0.57016 0.646 0.0
H1105 H 0.48966 0.37314 0.65066 0.0
H1106 H 0.53319 0.42763 0.65172 0.0
C1107 C 0.70121 0.59975 0.64418 0.0
C1108 C 0.64727 0.51094 0.64965 0.0
H1109 H 0.58242 0.45701 0.62354 0.0
C1110 C 0.64353 0.49244 0.66663 0.0
C1111 C 0.62487 0.49805 0.63394 0.0
C1112 C 0.62824 0.51622 0.61497 0.0
C1113 C 0.61816 0.46143 0.66829 0.0
C1114 C 0.59611 0.44839 0.65244 0.0
C1115 C 0.59941 0.46707 0.63566 0.0
C1116 C 0.56977 0.4152 0.65277 0.0
C1117 C 0.61507 0.44294 0.68705 0.0
C1118 C 0.57587 0.39005 0.65297 0.0
C1119 C 0.551 0.35879 0.65246 0.0
C1120 C 0.51952 0.35207 0.65172 0.0
C1121 C 0.51356 0.37739 0.65162 0.0
C1122 C 0.53842 0.40859 0.65206 0.0
H1123 H 0.62873 0.45863 0.69972 0.0
H1124 H 0.58999 0.42852 0.69163 0.0
H1125 H 0.62431 0.42673 0.68407 0.0
H1126 H 0.59991 0.3946 0.65318 0.0
H1127 H 0.55643 0.3399 0.6526 0.0
H1128 H 0.35195 0.94561 0.4097 0.0
H1129 H 0.3994 0.94094 0.40627 0.0
H1130 H 0.34143 0.83966 0.40393 0.0
H1131 H 0.29427 0.84396 0.40697 0.0
H1132 H 0.42117 0.91048 0.43087 0.0
H1133 H 0.39686 0.85707 0.35504 0.0
H1134 H 0.37589 0.87555 0.36523 0.0
H1135 H 0.36461 0.83571 0.372 0.0
C1136 C 0.34932 0.92237 0.40832 0.0
C1137 C 0.3192 0.89521 0.40847 0.0
C1138 C 0.37645 0.91974 0.40636 0.0
C1139 C 0.37394 0.88997 0.40442 0.0
C1140 C 0.34396 0.86291 0.40484 0.0
H1141 H 0.4943 0.80804 0.40395 0.0
H1142 H 0.45077 0.81924 0.40381 0.0
C1143 C 0.31695 0.86548 0.40672 0.0
C1144 C 0.40248 0.88676 0.40274 0.0
H1145 H 0.43593 0.85299 0.37432 0.0
C1146 C 0.42464 0.89829 0.41839 0.0
C1147 C 0.40696 0.87079 0.38644 0.0
C1148 C 0.38498 0.85935 0.36863 0.0
C1149 C 0.4505 0.89324 0.41854 0.0
C1150 C 0.45447 0.87655 0.4025 0.0
C1151 C 0.43269 0.86558 0.38666 0.0
C1152 C 0.48089 0.86988 0.40204 0.0
C1153 C 0.47279 0.90489 0.43619 0.0
C1154 C 0.5122 0.89459 0.40072 0.0
C1155 C 0.53708 0.88829 0.40082 0.0
C1156 C 0.53117 0.85709 0.40217 0.0
C1157 C 0.49969 0.83233 0.40309 0.0
C1158 C 0.4748 0.83867 0.40292 0.0
H1159 H 0.46272 0.91113 0.44919 0.0
H1160 H 0.47872 0.88678 0.44101 0.0
H1161 H 0.49501 0.9263 0.43174 0.0
H1162 H 0.5174 0.91881 0.39975 0.0
H1163 H 0.561 0.90797 0.40034 0.0
H1164 H 0.69858 0.49714 0.93657 0.0
H1165 H 0.64437 0.45296 0.93506 0.0
H1166 H 0.62467 0.49728 0.88576 0.0
H1167 H 0.67873 0.54162 0.88723 0.0
H1168 H 0.58828 0.45389 0.9398 0.0
H1169 H 0.5939 0.40814 0.86452 0.0
H1170 H 0.62876 0.43583 0.87815 0.0
H1171 H 0.60555 0.44923 0.86509 0.0
C1172 C 0.68275 0.49752 0.92539 0.0
C1173 C 0.69316 0.52294 0.91195 0.0
C1174 C 0.65176 0.47219 0.92452 0.0
C1175 C 0.63051 0.47161 0.91016 0.0
C1176 C 0.64079 0.49686 0.8967 0.0
H1177 H 0.42492 0.34244 0.91657 0.0
H1178 H 0.47709 0.39019 0.91515 0.0
C1179 C 0.67179 0.52219 0.89753 0.0
C1180 C 0.59744 0.4449 0.90963 0.0
H1181 H 0.54384 0.38465 0.88016 0.0
C1182 C 0.57851 0.43878 0.92675 0.0
C1183 C 0.58479 0.42508 0.89263 0.0
C1184 C 0.60432 0.42962 0.8741 0.0
C1185 C 0.54737 0.41333 0.92738 0.0
C1186 C 0.53462 0.3937 0.91031 0.0
C1187 C 0.55351 0.39991 0.89316 0.0
C1188 C 0.50262 0.36519 0.91045 0.0
C1189 C 0.52874 0.40706 0.94654 0.0
C1190 C 0.49949 0.33535 0.90771 0.0
C1191 C 0.46984 0.30815 0.90839 0.0
C1192 C 0.44242 0.31004 0.91176 0.0
C1193 C 0.44548 0.34005 0.91405 0.0
C1194 C 0.47532 0.36737 0.91337 0.0
H1195 H 0.54408 0.42003 0.95949 0.0
H1196 H 0.51115 0.41484 0.9447 0.0
H1197 H 0.51583 0.38147 0.95004 0.0
H1198 H 0.52016 0.33305 0.90537 0.0
H1199 H 0.46856 0.28557 0.90645 0.0
H1200 H 0.22562 0.68975 0.42466 0.0
H1201 H 0.21387 0.63498 0.42325 0.0
H1202 H 0.13184 0.61027 0.38701 0.0
H1203 H 0.14303 0.66481 0.3886 0.0
H1204 H 0.15781 0.5806 0.43658 0.0
H1205 H 0.17931 0.57411 0.35528 0.0
H1206 H 0.19348 0.61111 0.36839 0.0
H1207 H 0.15272 0.58825 0.36128 0.0
C1208 C 0.20505 0.67271 0.41639 0.0
C1209 C 0.18534 0.68185 0.4067 0.0
C1210 C 0.19843 0.64141 0.41555 0.0
C1211 C 0.17213 0.61858 0.40489 0.0
C1212 C 0.15257 0.62759 0.39504 0.0
H1213 H 0.09569 0.41379 0.41809 0.0
H1214 H 0.09999 0.46591 0.41626 0.0
C1215 C 0.15911 0.65887 0.3959 0.0
C1216 C 0.16475 0.5852 0.40462 0.0
H1217 H 0.1593 0.52681 0.37377 0.0
C1218 C 0.158 0.56877 0.42285 0.0
C1219 C 0.16516 0.56988 0.38669 0.0
C1220 C 0.17329 0.58672 0.36679 0.0
C1221 C 0.15184 0.53749 0.42365 0.0
C1222 C 0.15213 0.52212 0.40571 0.0
C1223 C 0.15872 0.53851 0.38747 0.0
C1224 C 0.1483 0.49002 0.40579 0.0
C1225 C 0.14609 0.52147 0.44376 0.0
C1226 C 0.17366 0.48611 0.39997 0.0
C1227 C 0.17128 0.45652 0.40096 0.0
C1228 C 0.14335 0.42997 0.40767 0.0
C1229 C 0.11754 0.4337 0.41289 0.0
C1230 C 0.12003 0.4635 0.41198 0.0
H1231 H 0.15245 0.53843 0.4564 0.0
H1232 H 0.12072 0.50355 0.44514 0.0
H1233 H 0.15987 0.50917 0.44516 0.0
H1234 H 0.19565 0.50619 0.39508 0.0
H1235 H 0.19161 0.45462 0.39667 0.0
H1236 H 0.7019 0.08907 0.91859 0.0
H1237 H 0.65407 0.09338 0.91705 0.0
H1238 H 0.70806 0.18667 0.8921 0.0
H1239 H 0.75574 0.18271 0.89359 0.0
H1240 H 0.64834 0.14372 0.93708 0.0
H1241 H 0.62932 0.14078 0.85479 0.0
H1242 H 0.65248 0.1256 0.86622 0.0
H1243 H 0.66887 0.16735 0.86319 0.0
C1244 C 0.70349 0.1103 0.9125 0.0
C1245 C 0.73268 0.13555 0.90626 0.0
C1246 C 0.67617 0.11275 0.91168 0.0
C1247 C 0.67749 0.14023 0.90428 0.0
C1248 C 0.70642 0.16509 0.89759 0.0
H1249 H 0.54908 0.214 0.89381 0.0
H1250 H 0.59352 0.20418 0.89131 0.0
C1251 C 0.73371 0.16282 0.89858 0.0
C1252 C 0.64928 0.14404 0.90483 0.0
H1253 H 0.59911 0.15567 0.8752 0.0
C1254 C 0.63734 0.14602 0.92357 0.0
C1255 C 0.63533 0.1475 0.88717 0.0
C1256 C 0.64692 0.14498 0.86666 0.0
C1257 C 0.61222 0.15205 0.92517 0.0
C1258 C 0.59804 0.1553 0.9075 0.0
C1259 C 0.60994 0.15318 0.88873 0.0
C1260 C 0.57071 0.16069 0.90825 0.0
C1261 C 0.60186 0.15591 0.9458 0.0
C1262 C 0.54285 0.13915 0.91811 0.0
C1263 C 0.51768 0.14484 0.91968 0.0
C1264 C 0.51957 0.17199 0.91115 0.0
C1265 C 0.54697 0.19293 0.90055 0.0
C1266 C 0.57235 0.18735 0.89915 0.0
H1267 H 0.62072 0.16216 0.95713 0.0
H1268 H 0.59511 0.17445 0.94593 0.0
H1269 H 0.58109 0.1333 0.95045 0.0
H1270 H 0.54059 0.11792 0.9247 0.0
H1271 H 0.4966 0.12787 0.92753 0.0
H1272 H 0.37487 0.48633 0.38829 0.0
H1273 H 0.42982 0.5289 0.38655 0.0
H1274 H 0.40684 0.58852 0.42189 0.0
H1275 H 0.35172 0.54638 0.4234 0.0
H1276 H 0.45671 0.59234 0.37222 0.0
H1277 H 0.47948 0.58747 0.4533 0.0
H1278 H 0.44576 0.55619 0.44053 0.0
H1279 H 0.44566 0.59144 0.448 0.0
C1280 C 0.38131 0.50866 0.3954 0.0
C1281 C 0.35877 0.51279 0.40608 0.0
C1282 C 0.41282 0.5329 0.39452 0.0
C1283 C 0.42252 0.56164 0.40441 0.0
C1284 C 0.39999 0.56626 0.41452 0.0
H1285 H 0.58671 0.74436 0.39457 0.0
H1286 H 0.53522 0.69678 0.39242 0.0
C1287 C 0.36847 0.54212 0.41536 0.0
C1288 C 0.4562 0.58681 0.40426 0.0
H1289 H 0.51891 0.6312 0.43505 0.0
C1290 C 0.4704 0.6007 0.38593 0.0
C1291 C 0.47419 0.59732 0.42212 0.0
C1292 C 0.46067 0.58218 0.4421 0.0
C1293 C 0.50175 0.62566 0.38508 0.0
C1294 C 0.51924 0.63718 0.40306 0.0
C1295 C 0.50543 0.62248 0.4213 0.0
C1296 C 0.55118 0.66562 0.40343 0.0
C1297 C 0.51586 0.63958 0.36495 0.0
C1298 C 0.57734 0.66406 0.4106 0.0
C1299 C 0.60707 0.69141 0.41189 0.0
C1300 C 0.611 0.72086 0.40629 0.0
C1301 C 0.58468 0.72216 0.39901 0.0
C1302 C 0.55516 0.69489 0.39763 0.0
H1303 H 0.50312 0.62281 0.35253 0.0
H1304 H 0.51415 0.66108 0.36249 0.0
H1305 H 0.54115 0.64637 0.36431 0.0
H1306 H 0.57471 0.64171 0.4153 0.0
H1307 H 0.62674 0.68955 0.41765 0.0
H1308 H 0.95185 0.61753 0.91828 0.0
H1309 H 0.94621 0.56481 0.9179 0.0
H1310 H 0.84856 0.52434 0.90084 0.0
H1311 H 0.8537 0.57636 0.90156 0.0
H1312 H 0.85611 0.49308 0.93179 0.0
H1313 H 0.93944 0.50927 0.87025 0.0
H1314 H 0.9562 0.5375 0.8903 0.0
H1315 H 0.92577 0.5368 0.87488 0.0
C1316 C 0.92926 0.5974 0.91433 0.0
C1317 C 0.90323 0.60119 0.91002 0.0
C1318 C 0.92612 0.56732 0.914 0.0
C1319 C 0.89703 0.54067 0.90912 0.0
C1320 C 0.87121 0.54454 0.90464 0.0
H1321 H 0.85278 0.35001 0.87896 0.0
H1322 H 0.86297 0.40446 0.87867 0.0
C1323 C 0.87424 0.57439 0.90508 0.0
C1324 C 0.89268 0.50842 0.90948 0.0
H1325 H 0.91688 0.46077 0.88784 0.0
C1326 C 0.86942 0.48602 0.92219 0.0
C1327 C 0.90979 0.49917 0.89676 0.0
C1328 C 0.93401 0.52182 0.88213 0.0
C1329 C 0.86274 0.45463 0.92252 0.0
C1330 C 0.88033 0.44552 0.91015 0.0
C1331 C 0.90356 0.46787 0.89739 0.0
C1332 C 0.87478 0.41282 0.91021 0.0
C1333 C 0.83633 0.43137 0.93577 0.0
C1334 C 0.87845 0.39966 0.92795 0.0
C1335 C 0.87242 0.36861 0.92818 0.0
C1336 C 0.86297 0.35018 0.91061 0.0
C1337 C 0.85999 0.36363 0.89273 0.0
C1338 C 0.86581 0.39469 0.89255 0.0
H1339 H 0.81973 0.43978 0.93978 0.0
H1340 H 0.82282 0.408 0.92834 0.0
H1341 H 0.84643 0.4283 0.9499 0.0
H1342 H 0.88614 0.41346 0.94163 0.0
H1343 H 0.87572 0.35921 0.94208 0.0
H1344 H 0.10807 0.31531 0.34186 0.0
H1345 H 0.13147 0.32785 0.30859 0.0
H1346 H 0.22339 0.38671 0.33471 0.0
H1347 H 0.19975 0.37396 0.36854 0.0
H1348 H 0.16629 0.38832 0.29068 0.0
H1349 H 0.23508 0.32608 0.29641 0.0
H1350 H 0.20373 0.3187 0.3137 0.0
H1351 H 0.24108 0.35439 0.31567 0.0
C1352 C 0.13333 0.33086 0.34062 0.0
C1353 C 0.15215 0.34357 0.35781 0.0
C1354 C 0.14663 0.33808 0.32155 0.0
C1355 C 0.17913 0.35811 0.31914 0.0
C1356 C 0.19824 0.37091 0.33627 0.0
H1357 H 0.27904 0.39109 0.20542 0.0
H1358 H 0.26653 0.3968 0.24012 0.0
C1359 C 0.1848 0.36365 0.35554 0.0
C1360 C 0.19226 0.36505 0.2985 0.0
H1361 H 0.23481 0.3481 0.26528 0.0
C1362 C 0.18161 0.37989 0.28515 0.0
C1363 C 0.21216 0.35398 0.29133 0.0
C1364 C 0.22363 0.33721 0.30491 0.0
C1365 C 0.18981 0.38339 0.26473 0.0
C1366 C 0.20867 0.37118 0.25739 0.0
C1367 C 0.22024 0.35735 0.2709 0.0
C1368 C 0.21598 0.37143 0.2357 0.0
C1369 C 0.17813 0.40007 0.25124 0.0
C1370 C 0.19173 0.35593 0.22148 0.0
C1371 C 0.19886 0.35288 0.2015 0.0
C1372 C 0.23035 0.36488 0.19558 0.0
C1373 C 0.25454 0.3815 0.20962 0.0
C1374 C 0.24744 0.38473 0.22946 0.0
H1375 H 0.17275 0.41624 0.2599 0.0
H1376 H 0.19573 0.41385 0.23948 0.0
H1377 H 0.15606 0.38231 0.24376 0.0
H1378 H 0.16724 0.34492 0.226 0.0
H1379 H 0.17978 0.33974 0.19102 0.0
H1380 H 0.8551 0.21258 0.68764 0.0
H1381 H 0.83355 0.20387 0.722 0.0
H1382 H 0.91819 0.208 0.74442 0.0
H1383 H 0.93981 0.21751 0.71066 0.0
H1384 H 0.81951 0.15914 0.74925 0.0
H1385 H 0.9137 0.27025 0.7811 0.0
H1386 H 0.90899 0.26327 0.75439 0.0
H1387 H 0.93107 0.24992 0.76899 0.0
C1388 C 0.86884 0.21137 0.69996 0.0
C1389 C 0.89913 0.21583 0.69658 0.0
C1390 C 0.85669 0.20667 0.71957 0.0
C1391 C 0.87474 0.2064 0.73594 0.0
C1392 C 0.90433 0.20942 0.73225 0.0
H1393 H 0.82953 0.10566 0.84246 0.0
H1394 H 0.83937 0.12815 0.80899 0.0
C1395 C 0.91651 0.21445 0.71287 0.0
C1396 C 0.86267 0.20151 0.75689 0.0
H1397 H 0.88725 0.22657 0.80485 0.0
C1398 C 0.83399 0.17429 0.76136 0.0
C1399 C 0.8809 0.22173 0.77279 0.0
C1400 C 0.91017 0.2531 0.76901 0.0
C1401 C 0.82459 0.16528 0.78131 0.0
C1402 C 0.8449 0.18342 0.79719 0.0
C1403 C 0.87205 0.21217 0.79273 0.0
C1404 C 0.84021 0.17107 0.81803 0.0
C1405 C 0.79331 0.1359 0.78511 0.0
C1406 C 0.83947 0.18859 0.83462 0.0
C1407 C 0.83454 0.17593 0.85408 0.0
C1408 C 0.83031 0.14566 0.85706 0.0
C1409 C 0.83234 0.12891 0.84056 0.0
C1410 C 0.83759 0.14159 0.82135 0.0
H1411 H 0.77607 0.13233 0.77312 0.0
H1412 H 0.79663 0.11508 0.78497 0.0
H1413 H 0.7832 0.13696 0.79981 0.0
H1414 H 0.84199 0.21166 0.83247 0.0
H1415 H 0.83293 0.18922 0.86659 0.0
H1416 H 0.69719 0.92917 0.21221 0.0
H1417 H 0.68872 0.90557 0.24541 0.0
H1418 H 0.67695 0.81978 0.21907 0.0
H1419 H 0.68545 0.84355 0.18543 0.0
H1420 H 0.63745 0.84659 0.26239 0.0
H1421 H 0.75441 0.85347 0.25857 0.0
H1422 H 0.74356 0.87521 0.24167 0.0
H1423 H 0.72726 0.83353 0.23833 0.0
C1424 C 0.69238 0.9051 0.21342 0.0
C1425 C 0.6921 0.88818 0.19628 0.0
C1426 C 0.6874 0.89163 0.23241 0.0
C1427 C 0.68241 0.86106 0.23472 0.0
C1428 C 0.6809 0.84351 0.21757 0.0
H1429 H 0.69838 0.77268 0.34241 0.0
H1430 H 0.68848 0.7839 0.30852 0.0
C1431 C 0.6856 0.85698 0.1984 0.0
C1432 C 0.68153 0.8491 0.25526 0.0
H1433 H 0.72625 0.83574 0.28864 0.0
C1434 C 0.65665 0.84384 0.26814 0.0
C1435 C 0.70684 0.84601 0.26273 0.0
C1436 C 0.73471 0.85251 0.24974 0.0
C1437 C 0.65626 0.83522 0.28831 0.0
C1438 C 0.68185 0.83261 0.29587 0.0
C1439 C 0.7066 0.83772 0.28288 0.0
C1440 C 0.68355 0.8239 0.31702 0.0
C1441 C 0.6283 0.8286 0.30121 0.0
C1442 C 0.68336 0.84222 0.33332 0.0
C1443 C 0.68859 0.83546 0.35296 0.0
C1444 C 0.69466 0.81072 0.3564 0.0
C1445 C 0.69394 0.79203 0.34017 0.0
C1446 C 0.68829 0.79842 0.32076 0.0
H1447 H 0.60723 0.82299 0.29199 0.0
H1448 H 0.62222 0.80865 0.31158 0.0
H1449 H 0.63416 0.84983 0.31034 0.0
H1450 H 0.68043 0.86244 0.3308 0.0
H1451 H 0.68934 0.85037 0.36522 0.0
H1452 H 0.84792 0.66351 0.68306 0.0
H1453 H 0.85962 0.65134 0.71682 0.0
H1454 H 0.81693 0.70141 0.74336 0.0
H1455 H 0.80541 0.71349 0.71019 0.0
H1456 H 0.89576 0.69612 0.74825 0.0
H1457 H 0.77268 0.61549 0.77214 0.0
H1458 H 0.78377 0.62476 0.74612 0.0
H1459 H 0.7784 0.65175 0.76173 0.0
C1460 C 0.84108 0.6718 0.69614 0.0
C1461 C 0.82571 0.68935 0.69401 0.0
C1462 C 0.84765 0.6648 0.71537 0.0
C1463 C 0.83852 0.67494 0.73259 0.0
C1464 C 0.82351 0.6927 0.73033 0.0
H1465 H 0.86203 0.69555 0.86023 0.0
H1466 H 0.84473 0.69077 0.82514 0.0
C1467 C 0.81714 0.69977 0.71131 0.0
C1468 C 0.84571 0.66865 0.75311 0.0
H1469 H 0.81116 0.63858 0.79844 0.0
C1470 C 0.87733 0.68302 0.75916 0.0
C1471 C 0.82157 0.65178 0.76733 0.0
C1472 C 0.78719 0.6348 0.76148 0.0
C1473 C 0.88546 0.68231 0.77928 0.0
C1474 C 0.86126 0.66625 0.79365 0.0
C1475 C 0.82965 0.65101 0.78745 0.0
C1476 C 0.86848 0.66585 0.81524 0.0
C1477 C 0.91984 0.70002 0.78516 0.0
C1478 C 0.88635 0.65225 0.82144 0.0
C1479 C 0.89626 0.65504 0.84135 0.0
C1480 C 0.88825 0.67122 0.85549 0.0
C1481 C 0.86858 0.68302 0.84962 0.0
C1482 C 0.85878 0.68036 0.8296 0.0
H1483 H 0.93477 0.71702 0.77341 0.0
H1484 H 0.92327 0.7131 0.79944 0.0
H1485 H 0.92823 0.68298 0.7874 0.0
H1486 H 0.89344 0.64028 0.81074 0.0
H1487 H 0.91111 0.64539 0.84553 0.0
H1488 H 0.19566 0.85268 0.18624 0.0
H1489 H 0.21824 0.86572 0.22033 0.0
H1490 H 0.13088 0.79126 0.24445 0.0
H1491 H 0.10846 0.7784 0.21082 0.0
H1492 H 0.18943 0.88312 0.25241 0.0
H1493 H 0.19905 0.77842 0.27274 0.0
H1494 H 0.1971 0.78899 0.24704 0.0
H1495 H 0.16187 0.76954 0.26195 0.0
C1496 C 0.18165 0.83878 0.1988 0.0
C1497 C 0.1504 0.81452 0.19591 0.0
C1498 C 0.19446 0.84624 0.21824 0.0
C1499 C 0.17636 0.82911 0.2349 0.0
C1500 C 0.1455 0.80436 0.23184 0.0
H1501 H 0.18619 0.84737 0.36552 0.0
H1502 H 0.17245 0.82709 0.33085 0.0
C1503 C 0.13265 0.79722 0.21259 0.0
C1504 C 0.18808 0.83879 0.25571 0.0
H1505 H 0.20257 0.81233 0.29965 0.0
C1506 C 0.19274 0.86785 0.26267 0.0
C1507 C 0.19169 0.8185 0.26917 0.0
C1508 C 0.18743 0.7872 0.26237 0.0
C1509 C 0.20024 0.87694 0.28281 0.0
C1510 C 0.20411 0.8568 0.29631 0.0
C1511 C 0.19958 0.82773 0.28933 0.0
C1512 C 0.2138 0.86629 0.31749 0.0
C1513 C 0.20295 0.90768 0.28956 0.0
C1514 C 0.24214 0.89413 0.32154 0.0
C1515 C 0.24965 0.90576 0.34106 0.0
C1516 C 0.22944 0.88943 0.35709 0.0
C1517 C 0.20217 0.86031 0.35339 0.0
C1518 C 0.19432 0.84882 0.33363 0.0
H1519 H 0.19027 0.91537 0.27927 0.0
H1520 H 0.19338 0.90569 0.30493 0.0
H1521 H 0.22817 0.92634 0.28967 0.0
H1522 H 0.25797 0.90753 0.30946 0.0
H1523 H 0.27105 0.9281 0.34354 0.0
H1524 H 0.31206 0.2134 0.84616 0.0
H1525 H 0.32233 0.20194 0.81239 0.0
H1526 H 0.40527 0.20126 0.83358 0.0
H1527 H 0.39415 0.21172 0.86799 0.0
H1528 H 0.37143 0.23729 0.78891 0.0
H1529 H 0.36344 0.12109 0.80107 0.0
H1530 H 0.35095 0.13916 0.81981 0.0
H1531 H 0.39221 0.15328 0.81595 0.0
C1532 C 0.33226 0.21035 0.84372 0.0
C1533 C 0.3522 0.21322 0.85968 0.0
C1534 C 0.33824 0.204 0.82435 0.0
C1535 C 0.36458 0.20072 0.82031 0.0
C1536 C 0.38449 0.20317 0.83632 0.0
H1537 H 0.39205 0.18752 0.6888 0.0
H1538 H 0.40415 0.20926 0.72316 0.0
C1539 C 0.37816 0.2091 0.85596 0.0
C1540 C 0.37059 0.1952 0.79917 0.0
H1541 H 0.37073 0.13975 0.76807 0.0
C1542 C 0.37166 0.21612 0.78434 0.0
C1543 C 0.37103 0.16768 0.79321 0.0
C1544 C 0.36913 0.14383 0.80827 0.0
C1545 C 0.37092 0.20925 0.76378 0.0
C1546 C 0.37009 0.1811 0.75782 0.0
C1547 C 0.37126 0.16129 0.77264 0.0
C1548 C 0.36358 0.16937 0.73672 0.0
C1549 C 0.36892 0.23117 0.74874 0.0
C1550 C 0.33701 0.13983 0.73287 0.0
C1551 C 0.33048 0.12739 0.71352 0.0
C1552 C 0.35011 0.14427 0.69741 0.0
C1553 C 0.37633 0.17427 0.70096 0.0
C1554 C 0.38321 0.18664 0.72057 0.0
H1555 H 0.36352 0.24839 0.75599 0.0
H1556 H 0.39188 0.24462 0.7409 0.0
H1557 H 0.35049 0.21765 0.73733 0.0
H1558 H 0.32131 0.12613 0.74494 0.0
H1559 H 0.31009 0.10421 0.71122 0.0
H1560 H 0.30557 0.17989 0.97957 0.0
H1561 H 0.27878 0.1942 1.00532 0.0
H1562 H 0.33444 0.29193 0.98825 0.0
H1563 H 0.36092 0.27777 0.96259 0.0
H1564 H 0.30225 0.23482 0.0381 0.0
H1565 H 0.24466 0.27671 0.98482 0.0
H1566 H 0.26214 0.25352 0.97699 0.0
H1567 H 0.28645 0.29533 0.98093 0.0
C1568 C 0.31211 0.20441 0.98142 0.0
C1569 C 0.33502 0.22768 0.96894 0.0
C1570 C 0.29675 0.21255 0.99607 0.0
C1571 C 0.30403 0.24406 0.9984 0.0
C1572 C 0.32776 0.26738 0.98639 0.0
H1573 H 0.28485 0.34591 0.09632 0.0
H1574 H 0.3001 0.32005 0.07091 0.0
C1575 C 0.34306 0.25928 0.97183 0.0
C1576 C 0.28753 0.253 1.01359 0.0
H1577 H 0.24723 0.29292 1.01918 0.0
C1578 C 0.28989 0.24717 0.03395 0.0
C1579 C 0.27081 0.26858 1.00819 0.0
C1580 C 0.26553 0.27362 0.98653 0.0
C1581 C 0.27746 0.25796 0.04906 0.0
C1582 C 0.26275 0.27553 0.04371 0.0
C1583 C 0.25889 0.27987 1.02332 0.0
C1584 C 0.25296 0.2911 0.05908 0.0
C1585 C 0.28041 0.25062 0.07065 0.0
C1586 C 0.2215 0.2843 0.06051 0.0
C1587 C 0.21269 0.2992 0.07511 0.0
C1588 C 0.23526 0.32124 0.08841 0.0
C1589 C 0.26681 0.32858 0.08654 0.0
C1590 C 0.27555 0.31371 0.07206 0.0
H1591 H 0.28298 0.22938 0.07188 0.0
H1592 H 0.30174 0.2708 0.07732 0.0
H1593 H 0.25959 0.24671 0.07957 0.0
H1594 H 0.20371 0.26718 0.05051 0.0
H1595 H 0.18824 0.29322 0.07615 0.0
H1596 H 0.09558 0.35042 0.45985 0.0
H1597 H 0.05568 0.32553 0.48599 0.0
H1598 H 0.09951 0.27254 0.50542 0.0
H1599 H 0.14001 0.29791 0.47923 0.0
H1600 H 1.01267 0.26253 0.491 0.0
H1601 H 0.09038 0.31055 0.5579 0.0
H1602 H 0.10343 0.32621 0.53304 0.0
H1603 H 0.10111 0.28977 0.5402 0.0
C1604 C 0.09688 0.33363 0.46979 0.0
C1605 C 0.12086 0.32605 0.46751 0.0
C1606 C 0.07398 0.31933 0.48469 0.0
C1607 C 0.0746 0.29726 0.49778 0.0
C1608 C 0.09878 0.28985 0.4957 0.0
H1609 H 0.91036 0.18207 0.57636 0.0
H1610 H 0.951 0.19724 0.55025 0.0
C1611 C 0.12187 0.30428 0.48074 0.0
C1612 C 0.04946 0.28195 0.51325 0.0
H1613 H 0.03629 0.27622 0.56384 0.0
C1614 C 1.01783 0.2653 0.50693 0.0
C1615 C 0.05619 0.28572 0.53405 0.0
C1616 C 0.08957 0.30422 0.5418 0.0
C1617 C 0.99279 0.25301 0.52078 0.0
C1618 C 0.99952 0.25704 0.54156 0.0
C1619 C 0.03115 0.27302 0.5479 0.0
C1620 C 0.97426 0.24722 0.55695 0.0
C1621 C 0.95937 0.23702 0.51302 0.0
C1622 C 0.97386 0.27013 0.56944 0.0
C1623 C 0.95082 0.26153 0.58426 0.0
C1624 C 0.9278 0.22974 0.58709 0.0
C1625 C 0.92775 0.20674 0.57442 0.0
C1626 C 0.95094 0.2154 0.55952 0.0
H1627 H 0.95836 0.24156 0.49679 0.0
H1628 H 0.94836 0.21117 0.51513 0.0
H1629 H 0.94512 0.24513 0.52143 0.0
H1630 H 0.99149 0.2948 0.56774 0.0
H1631 H 0.95136 0.27977 0.59378 0.0
H1632 H 0.69093 0.94513 0.09368 0.0
H1633 H 0.71556 0.98485 0.06745 0.0
H1634 H 0.77296 0.94465 0.05019 0.0
H1635 H 0.74789 0.90435 0.07646 0.0
H1636 H 0.7781 0.0299 0.06314 0.0
H1637 H 0.7356 0.95048 0.99668 0.0
H1638 H 0.71924 0.9375 1.0214 0.0
H1639 H 0.75667 0.94136 1.01504 0.0
C1640 C 0.70866 0.9446 0.0842 0.0
C1641 C 0.71756 0.92171 0.08711 0.0
C1642 C 0.7228 0.96739 0.06925 0.0
C1643 C 0.74601 0.96771 0.05674 0.0
C1644 C 0.75477 0.94462 0.05945 0.0
H1645 H 0.86028 0.13239 0.97867 0.0
H1646 H 0.84496 0.09215 1.00496 0.0
C1647 C 0.74051 0.92166 0.07447 0.0
C1648 C 0.76106 0.99265 0.04116 0.0
H1649 H 0.76875 1.00473 0.9905 0.0
C1650 C 0.77627 0.02441 0.04725 0.0
C1651 C 0.75846 0.98549 1.02042 0.0
C1652 C 0.74141 0.95189 1.01289 0.0
C1653 C 0.78833 0.04914 0.03323 0.0
C1654 C 0.7856 0.04197 1.01249 0.0
C1655 C 0.77099 1.01022 1.0064 0.0
C1656 C 0.7955 0.06678 0.99683 0.0
C1657 C 0.80267 0.08264 0.04072 0.0
C1658 C 0.77297 0.06578 0.98339 0.0
C1659 C 0.78168 0.08855 0.96842 0.0
C1660 C 0.8132 0.11275 0.96642 0.0
C1661 C 0.8358 0.11407 0.97995 0.0
C1662 C 0.82705 0.09113 0.99498 0.0
H1663 H 0.79673 0.08367 0.0567 0.0
H1664 H 0.82873 0.09442 0.03945 0.0
H1665 H 0.79452 0.09614 0.0316 0.0
H1666 H 0.74851 0.04733 0.98451 0.0
H1667 H 0.76373 0.08702 0.95824 0.0
H1668 H 0.76187 0.68085 0.59156 0.0
H1669 H 0.74677 0.70626 0.56584 0.0
H1670 H 0.844 0.76188 0.54753 0.0
H1671 H 0.85922 0.73609 0.57332 0.0
H1672 H 0.76631 0.76989 0.56203 0.0
H1673 H 0.79804 0.7249 0.4944 0.0
H1674 H 0.79484 0.70822 0.51899 0.0
H1675 H 0.82897 0.74512 0.51251 0.0
C1676 C 0.78001 0.69831 0.58193 0.0
C1677 C 0.81173 0.70657 0.58444 0.0
C1678 C 0.77137 0.71291 0.5673 0.0
C1679 C 0.79418 0.73591 0.55467 0.0
C1680 C 0.82591 0.7439 0.55691 0.0
H1681 H 0.74379 0.85114 0.47707 0.0
H1682 H 0.76944 0.83629 0.50322 0.0
C1683 C 0.8346 0.7292 0.57163 0.0
C1684 C 0.78432 0.7515 0.53946 0.0
H1685 H 0.77738 0.75855 0.489 0.0
C1686 C 0.76896 0.76766 0.54605 0.0
C1687 C 0.78766 0.74845 0.51862 0.0
C1688 C 0.80304 0.73056 0.5106 0.0
C1689 C 0.75614 0.7801 0.53241 0.0
C1690 C 0.75911 0.77668 0.51157 0.0
C1691 C 0.77522 0.76127 0.50498 0.0
C1692 C 0.74337 0.78634 0.49634 0.0
C1693 C 0.73833 0.79559 0.5404 0.0
C1694 C 0.7203 0.76333 0.4838 0.0
C1695 C 0.70579 0.77175 0.46897 0.0
C1696 C 0.71419 0.80345 0.46619 0.0
C1697 C 0.7368 0.82653 0.47897 0.0
C1698 C 0.75142 0.81805 0.49389 0.0
H1699 H 0.73294 0.79089 0.55664 0.0
H1700 H 0.75282 0.82148 0.53832 0.0
H1701 H 0.71586 0.78719 0.5321 0.0
H1702 H 0.71359 0.73874 0.48542 0.0
H1703 H 0.68835 0.75343 0.45938 0.0
H1704 H 0.95917 0.68952 0.95563 0.0
H1705 H 0.99903 0.71449 0.98185 0.0
H1706 H 0.95638 0.76905 1.00054 0.0
H1707 H 0.9161 0.74381 0.9742 0.0
H1708 H 0.04306 0.77739 0.98794 0.0
H1709 H 0.9616 0.7288 0.053 0.0
H1710 H 0.94976 0.71388 0.02783 0.0
H1711 H 0.95226 0.75039 0.03519 0.0
C1712 C 0.9583 0.7069 0.96529 0.0
C1713 C 0.93457 0.71478 0.96284 0.0
C1714 C 0.98112 0.72116 0.98028 0.0
C1715 C 0.98065 0.74349 0.99332 0.0
C1716 C 0.95698 0.75152 0.99089 0.0
H1717 H 0.14095 0.85583 0.07549 0.0
H1718 H 0.10176 0.84133 0.0485 0.0
C1719 C 0.93402 0.73717 0.97583 0.0
C1720 C 1.00506 0.75805 1.00934 0.0
H1721 H 1.01541 0.76263 0.0602 0.0
C1722 C 0.03703 0.77439 1.00375 0.0
C1723 C 0.99719 0.75391 0.02997 0.0
C1724 C 0.96338 0.73559 0.03696 0.0
C1725 C 0.06128 0.78613 1.01817 0.0
C1726 C 0.0534 0.78184 0.0388 0.0
C1727 C 1.02144 0.76606 0.04439 0.0
C1728 C 0.07776 0.79126 0.05479 0.0
C1729 C 0.0951 0.8019 1.0112 0.0
C1730 C 0.07723 0.76808 0.06738 0.0
C1731 C 0.09945 0.77631 0.08271 0.0
C1732 C 0.12256 0.80798 0.08598 0.0
C1733 C 0.12347 0.83124 0.07324 0.0
C1734 C 0.10112 0.82296 0.05783 0.0
H1735 H 0.09694 0.79752 0.99503 0.0
H1736 H 0.10624 0.82775 1.01349 0.0
H1737 H 0.10868 0.79346 1.01999 0.0
H1738 H 0.05955 0.74349 0.06534 0.0
H1739 H 0.09826 0.75785 0.09224 0.0
H1740 H 0.28798 0.94321 0.45998 0.0
H1741 H 0.30396 0.98313 0.48631 0.0
H1742 H 0.2068 0.94395 0.50418 0.0
H1743 H 0.19067 0.90347 0.47778 0.0
H1744 H 0.28725 0.02876 0.4909 0.0
H1745 H 0.25083 0.95016 0.55746 0.0
H1746 H 0.2536 0.93675 0.5327 0.0
H1747 H 0.2204 0.94112 0.53927 0.0
C1748 C 0.27 0.94292 0.46963 0.0
C1749 C 0.23805 0.92026 0.46681 0.0
C1750 C 0.27917 0.96584 0.48463 0.0
C1751 C 0.25667 0.96657 0.49734 0.0
C1752 C 0.22468 0.94365 0.49477 0.0
H1753 H 0.30993 0.13279 0.57536 0.0
H1754 H 0.28461 0.09239 0.54905 0.0
C1755 C 0.21545 0.92055 0.47969 0.0
C1756 C 0.26714 0.99179 0.51293 0.0
H1757 H 0.2726 1.00457 0.56359 0.0
C1758 C 0.28386 0.02348 0.5068 0.0
C1759 C 0.26292 0.98493 0.53369 0.0
C1760 C 0.2462 0.95144 0.54128 0.0
C1761 C 0.29699 0.0484 0.52079 0.0
C1762 C 0.2929 0.04154 0.54156 0.0
C1763 C 0.27563 1.00987 0.54769 0.0
C1764 C 0.30821 0.06659 0.55721 0.0
C1765 C 0.31624 0.08177 0.51321 0.0
C1766 C 0.32963 0.06547 0.57069 0.0
C1767 C 0.34393 0.08836 0.58568 0.0
C1768 C 0.33697 0.11283 0.58768 0.0
C1769 C 0.31584 0.11429 0.57408 0.0
C1770 C 0.30142 0.09124 0.55904 0.0
H1771 H 0.32302 0.0825 0.49723 0.0
H1772 H 0.3021 0.0937 0.51447 0.0
H1773 H 0.338 0.09531 0.52227 0.0
H1774 H 0.33535 0.04681 0.56961 0.0
H1775 H 0.36022 0.08668 0.5959 0.0
loop_
_geom_bond_atom_site_label_1
_geom_bond_atom_site_label_2
_geom_bond_distance
_geom_bond_site_symmetry_2
_ccdc_geom_bond_type
Tb0 C2 2.809 . S
Tb0 O20 2.484 . S
Tb0 O21 2.440 . S
Tb0 O22 2.658 . S
Tb0 O23 2.409 . S
Tb0 O24 2.378 . S
Tb0 O28 2.325 . S
Tb0 O31 2.341 . S
Tb1 C11 2.809 . S
Tb1 O22 2.325 . S
Tb1 O25 2.341 . S
Tb1 O26 2.484 . S
Tb1 O27 2.440 . S
Tb1 O28 2.658 . S
Tb1 O29 2.409 . S
Tb1 O30 2.378 . S
C2 Tb0 2.809 . S
C2 C3 1.514 . S
C2 O20 1.248 . S
C2 O21 1.266 . S
C3 C2 1.514 . S
C3 C4 1.359 . S
C3 C8 1.348 . S
C4 C3 1.359 . S
C4 C5 1.380 . S
C4 H32 0.929 . S
C5 C4 1.380 . S
C5 C6 1.347 . S
C5 H33 0.931 . S
C6 C5 1.347 . S
C6 C7 1.369 . S
C7 C6 1.369 . S
C7 C8 1.408 . S
C7 H34 0.930 . S
C8 C3 1.348 . S
C8 C7 1.408 . S
C8 H35 0.930 . S
C9 O22 1.281 . S
C9 O23 1.254 . S
C10 O24 1.236 . S
C10 O25 1.266 . S
C11 Tb1 2.809 . S
C11 C12 1.514 . S
C11 O26 1.248 . S
C11 O27 1.266 . S
C12 C11 1.514 . S
C12 C13 1.359 . S
C12 C17 1.348 . S
C13 C12 1.359 . S
C13 C14 1.380 . S
C13 H36 0.929 . S
C14 C13 1.380 . S
C14 C15 1.347 . S
C14 H37 0.931 . S
C15 C14 1.347 . S
C15 C16 1.369 . S
C16 C15 1.369 . S
C16 C17 1.408 . S
C16 H38 0.930 . S
C17 C12 1.348 . S
C17 C16 1.408 . S
C17 H39 0.930 . S
C18 O28 1.281 . S
C18 O29 1.254 . S
C19 O30 1.236 . S
C19 O31 1.266 . S
O20 Tb0 2.484 . S
O20 C2 1.248 . S
O21 Tb0 2.440 . S
O21 C2 1.266 . S
O22 Tb0 2.658 . S
O22 Tb1 2.325 . S
O22 C9 1.281 . S
O23 Tb0 2.409 . S
O23 C9 1.254 . S
O24 Tb0 2.378 . S
O24 C10 1.236 . S
O25 Tb1 2.341 . S
O25 C10 1.266 . S
O26 Tb1 2.484 . S
O26 C11 1.248 . S
O27 Tb1 2.440 . S
O27 C11 1.266 . S
O28 Tb0 2.325 . S
O28 Tb1 2.658 . S
O28 C18 1.281 . S
O29 Tb1 2.409 . S
O29 C18 1.254 . S
O30 Tb1 2.378 . S
O30 C19 1.236 . S
O31 Tb0 2.341 . S
O31 C19 1.266 . S
H32 C4 0.929 . S
H33 C5 0.931 . S
H34 C7 0.930 . S
H35 C8 0.930 . S
H36 C13 0.929 . S
H37 C14 0.931 . S
H38 C16 0.930 . S
H39 C17 0.930 . S
Tb40 C42 2.809 . S
Tb40 O60 2.484 . S
Tb40 O61 2.440 . S
Tb40 O62 2.658 . S
Tb40 O63 2.409 . S
Tb40 O64 2.378 . S
Tb40 O68 2.325 . S
Tb40 O71 2.341 . S
Tb41 C51 2.809 . S
Tb41 O62 2.325 . S
Tb41 O65 2.341 . S
Tb41 O66 2.484 . S
Tb41 O67 2.440 . S
Tb41 O68 2.658 . S
Tb41 O69 2.409 . S
Tb41 O70 2.378 . S
C42 Tb40 2.809 . S
C42 C43 1.514 . S
C42 O60 1.248 . S
C42 O61 1.266 . S
C43 C42 1.514 . S
C43 C44 1.359 . S
C43 C48 1.348 . S
C44 C43 1.359 . S
C44 C45 1.380 . S
C44 H72 0.929 . S
C45 C44 1.380 . S
C45 C46 1.347 . S
C45 H73 0.931 . S
C46 C45 1.347 . S
C46 C47 1.369 . S
C47 C46 1.369 . S
C47 C48 1.408 . S
C47 H74 0.930 . S
C48 C43 1.348 . S
C48 C47 1.408 . S
C48 H75 0.930 . S
C49 O62 1.281 . S
C49 O63 1.254 . S
C50 O64 1.236 . S
C50 O65 1.266 . S
C51 Tb41 2.809 . S
C51 C52 1.514 . S
C51 O66 1.248 . S
C51 O67 1.266 . S
C52 C51 1.514 . S
C52 C53 1.359 . S
C52 C57 1.348 . S
C53 C52 1.359 . S
C53 C54 1.380 1_655 S
C53 H76 0.929 . S
C54 C53 1.380 1_455 S
C54 C55 1.347 . S
C54 H77 0.931 . S
C55 C54 1.347 . S
C55 C56 1.369 . S
C56 C55 1.369 . S
C56 C57 1.408 1_455 S
C56 H78 0.930 . S
C57 C52 1.348 . S
C57 C56 1.408 1_655 S
C57 H79 0.930 . S
C58 O68 1.281 . S
C58 O69 1.254 . S
C59 O70 1.236 . S
C59 O71 1.266 . S
O60 Tb40 2.484 . S
O60 C42 1.248 . S
O61 Tb40 2.440 . S
O61 C42 1.266 . S
O62 Tb40 2.658 . S
O62 Tb41 2.325 . S
O62 C49 1.281 . S
O63 Tb40 2.409 . S
O63 C49 1.254 . S
O64 Tb40 2.378 . S
O64 C50 1.236 . S
O65 Tb41 2.341 . S
O65 C50 1.266 . S
O66 Tb41 2.484 . S
O66 C51 1.248 . S
O67 Tb41 2.440 . S
O67 C51 1.266 . S
O68 Tb40 2.325 . S
O68 Tb41 2.658 . S
O68 C58 1.281 . S
O69 Tb41 2.409 . S
O69 C58 1.254 . S
O70 Tb41 2.378 . S
O70 C59 1.236 . S
O71 Tb40 2.341 . S
O71 C59 1.266 . S
H72 C44 0.929 . S
H73 C45 0.931 . S
H74 C47 0.930 . S
H75 C48 0.930 . S
H76 C53 0.929 . S
H77 C54 0.931 . S
H78 C56 0.930 . S
H79 C57 0.930 . S
Tb80 C82 2.809 . S
Tb80 O100 2.484 . S
Tb80 O101 2.440 . S
Tb80 O102 2.658 . S
Tb80 O103 2.409 . S
Tb80 O104 2.378 . S
Tb80 O108 2.325 . S
Tb80 O111 2.341 . S
Tb81 C91 2.809 . S
Tb81 O102 2.325 . S
Tb81 O105 2.341 . S
Tb81 O106 2.484 . S
Tb81 O107 2.440 . S
Tb81 O108 2.658 . S
Tb81 O109 2.409 . S
Tb81 O110 2.378 . S
C82 Tb80 2.809 . S
C82 C83 1.514 . S
C82 O100 1.248 . S
C82 O101 1.266 . S
C83 C82 1.514 . S
C83 C84 1.359 . S
C83 C88 1.348 . S
C84 C83 1.359 . S
C84 C85 1.380 . S
C84 H112 0.929 . S
C85 C84 1.380 . S
C85 C86 1.347 . S
C85 H113 0.931 . S
C86 C85 1.347 . S
C86 C87 1.369 . S
C87 C86 1.369 . S
C87 C88 1.408 . S
C87 H114 0.930 . S
C88 C83 1.348 . S
C88 C87 1.408 . S
C88 H115 0.930 . S
C89 O102 1.281 . S
C89 O103 1.254 . S
C90 O104 1.236 . S
C90 O105 1.266 . S
C91 Tb81 2.809 . S
C91 C92 1.514 . S
C91 O106 1.248 . S
C91 O107 1.266 . S
C92 C91 1.514 . S
C92 C93 1.359 . S
C92 C97 1.348 . S
C93 C92 1.359 . S
C93 C94 1.380 1_565 S
C93 H116 0.929 . S
C94 C93 1.380 1_545 S
C94 C95 1.347 . S
C94 H117 0.931 . S
C95 C94 1.347 . S
C95 C96 1.369 . S
C96 C95 1.369 . S
C96 C97 1.408 1_545 S
C96 H118 0.930 . S
C97 C92 1.348 . S
C97 C96 1.408 1_565 S
C97 H119 0.930 . S
C98 O108 1.281 . S
C98 O109 1.254 . S
C99 O110 1.236 . S
C99 O111 1.266 . S
O100 Tb80 2.484 . S
O100 C82 1.248 . S
O101 Tb80 2.440 . S
O101 C82 1.266 . S
O102 Tb80 2.658 . S
O102 Tb81 2.325 . S
O102 C89 1.281 . S
O103 Tb80 2.409 . S
O103 C89 1.254 . S
O104 Tb80 2.378 . S
O104 C90 1.236 . S
O105 Tb81 2.341 . S
O105 C90 1.266 . S
O106 Tb81 2.484 . S
O106 C91 1.248 . S
O107 Tb81 2.440 . S
O107 C91 1.266 . S
O108 Tb80 2.325 . S
O108 Tb81 2.658 . S
O108 C98 1.281 . S
O109 Tb81 2.409 . S
O109 C98 1.254 . S
O110 Tb81 2.378 . S
O110 C99 1.236 . S
O111 Tb80 2.341 . S
O111 C99 1.266 . S
H112 C84 0.929 . S
H113 C85 0.931 . S
H114 C87 0.930 . S
H115 C88 0.930 . S
H116 C93 0.929 . S
H117 C94 0.931 . S
H118 C96 0.930 . S
H119 C97 0.930 . S
Tb120 C122 2.809 . S
Tb120 O140 2.484 . S
Tb120 O141 2.440 . S
Tb120 O142 2.658 . S
Tb120 O143 2.409 . S
Tb120 O144 2.378 . S
Tb120 O148 2.325 . S
Tb120 O151 2.341 . S
Tb121 C131 2.809 . S
Tb121 O142 2.325 . S
Tb121 O145 2.341 . S
Tb121 O146 2.484 . S
Tb121 O147 2.440 . S
Tb121 O148 2.658 . S
Tb121 O149 2.409 . S
Tb121 O150 2.378 . S
C122 Tb120 2.809 . S
C122 C123 1.514 . S
C122 O140 1.248 . S
C122 O141 1.266 . S
C123 C122 1.514 . S
C123 C124 1.359 . S
C123 C128 1.348 . S
C124 C123 1.359 . S
C124 C125 1.380 . S
C124 H152 0.929 . S
C125 C124 1.380 . S
C125 C126 1.347 . S
C125 H153 0.931 . S
C126 C125 1.347 . S
C126 C127 1.369 . S
C127 C126 1.369 . S
C127 C128 1.408 . S
C127 H154 0.930 . S
C128 C123 1.348 . S
C128 C127 1.408 . S
C128 H155 0.930 . S
C129 O142 1.281 . S
C129 O143 1.254 . S
C130 O144 1.236 . S
C130 O145 1.266 . S
C131 Tb121 2.809 . S
C131 C132 1.514 . S
C131 O146 1.248 . S
C131 O147 1.266 . S
C132 C131 1.514 . S
C132 C133 1.359 . S
C132 C137 1.348 . S
C133 C132 1.359 . S
C133 C134 1.380 . S
C133 H156 0.929 . S
C134 C133 1.380 . S
C134 C135 1.347 . S
C134 H157 0.931 . S
C135 C134 1.347 . S
C135 C136 1.369 . S
C136 C135 1.369 . S
C136 C137 1.408 . S
C136 H158 0.930 . S
C137 C132 1.348 . S
C137 C136 1.408 . S
C137 H159 0.930 . S
C138 O148 1.281 . S
C138 O149 1.254 . S
C139 O150 1.236 . S
C139 O151 1.266 . S
O140 Tb120 2.484 . S
O140 C122 1.248 . S
O141 Tb120 2.440 . S
O141 C122 1.266 . S
O142 Tb120 2.658 . S
O142 Tb121 2.325 . S
O142 C129 1.281 . S
O143 Tb120 2.409 . S
O143 C129 1.254 . S
O144 Tb120 2.378 . S
O144 C130 1.236 . S
O145 Tb121 2.341 . S
O145 C130 1.266 . S
O146 Tb121 2.484 . S
O146 C131 1.248 . S
O147 Tb121 2.440 . S
O147 C131 1.266 . S
O148 Tb120 2.325 . S
O148 Tb121 2.658 . S
O148 C138 1.281 . S
O149 Tb121 2.409 . S
O149 C138 1.254 . S
O150 Tb121 2.378 . S
O150 C139 1.236 . S
O151 Tb120 2.341 . S
O151 C139 1.266 . S
H152 C124 0.929 . S
H153 C125 0.931 . S
H154 C127 0.930 . S
H155 C128 0.930 . S
H156 C133 0.929 . S
H157 C134 0.931 . S
H158 C136 0.930 . S
H159 C137 0.930 . S
Tb160 C162 2.809 . S
Tb160 O180 2.484 . S
Tb160 O181 2.440 . S
Tb160 O182 2.658 . S
Tb160 O183 2.409 . S
Tb160 O184 2.378 . S
Tb160 O188 2.325 . S
Tb160 O191 2.341 . S
Tb161 C171 2.809 . S
Tb161 O182 2.325 . S
Tb161 O185 2.341 . S
Tb161 O186 2.484 . S
Tb161 O187 2.440 . S
Tb161 O188 2.658 . S
Tb161 O189 2.409 . S
Tb161 O190 2.378 . S
C162 Tb160 2.809 . S
C162 C163 1.514 . S
C162 O180 1.248 . S
C162 O181 1.266 . S
C163 C162 1.514 . S
C163 C164 1.359 . S
C163 C168 1.348 . S
C164 C163 1.359 . S
C164 C165 1.380 . S
C164 H192 0.929 . S
C165 C164 1.380 . S
C165 C166 1.347 . S
C165 H193 0.931 . S
C166 C165 1.347 . S
C166 C167 1.369 . S
C167 C166 1.369 . S
C167 C168 1.408 . S
C167 H194 0.930 . S
C168 C163 1.348 . S
C168 C167 1.408 . S
C168 H195 0.930 . S
C169 O182 1.281 . S
C169 O183 1.254 . S
C170 O184 1.236 . S
C170 O185 1.266 . S
C171 Tb161 2.809 . S
C171 C172 1.514 . S
C171 O186 1.248 . S
C171 O187 1.266 . S
C172 C171 1.514 . S
C172 C173 1.359 . S
C172 C177 1.348 . S
C173 C172 1.359 . S
C173 C174 1.380 1_455 S
C173 H196 0.929 . S
C174 C173 1.380 1_655 S
C174 C175 1.347 . S
C174 H197 0.931 . S
C175 C174 1.347 . S
C175 C176 1.369 . S
C176 C175 1.369 . S
C176 C177 1.408 1_655 S
C176 H198 0.930 . S
C177 C172 1.348 . S
C177 C176 1.408 1_455 S
C177 H199 0.930 . S
C178 O188 1.281 . S
C178 O189 1.254 . S
C179 O190 1.236 . S
C179 O191 1.266 . S
O180 Tb160 2.484 . S
O180 C162 1.248 . S
O181 Tb160 2.440 . S
O181 C162 1.266 . S
O182 Tb160 2.658 . S
O182 Tb161 2.325 . S
O182 C169 1.281 . S
O183 Tb160 2.409 . S
O183 C169 1.254 . S
O184 Tb160 2.378 . S
O184 C170 1.236 . S
O185 Tb161 2.341 . S
O185 C170 1.266 . S
O186 Tb161 2.484 . S
O186 C171 1.248 . S
O187 Tb161 2.440 . S
O187 C171 1.266 . S
O188 Tb160 2.325 . S
O188 Tb161 2.658 . S
O188 C178 1.281 . S
O189 Tb161 2.409 . S
O189 C178 1.254 . S
O190 Tb161 2.378 . S
O190 C179 1.236 . S
O191 Tb160 2.341 . S
O191 C179 1.266 . S
H192 C164 0.929 . S
H193 C165 0.931 . S
H194 C167 0.930 . S
H195 C168 0.930 . S
H196 C173 0.929 . S
H197 C174 0.931 . S
H198 C176 0.930 . S
H199 C177 0.930 . S
Tb200 C202 2.809 . S
Tb200 O220 2.484 . S
Tb200 O221 2.440 . S
Tb200 O222 2.658 . S
Tb200 O223 2.409 . S
Tb200 O224 2.378 . S
Tb200 O228 2.325 . S
Tb200 O231 2.341 . S
Tb201 C211 2.809 . S
Tb201 O222 2.325 . S
Tb201 O225 2.341 . S
Tb201 O226 2.484 . S
Tb201 O227 2.440 . S
Tb201 O228 2.658 . S
Tb201 O229 2.409 . S
Tb201 O230 2.378 . S
C202 Tb200 2.809 . S
C202 C203 1.514 . S
C202 O220 1.248 . S
C202 O221 1.266 . S
C203 C202 1.514 . S
C203 C204 1.359 . S
C203 C208 1.348 . S
C204 C203 1.359 . S
C204 C205 1.380 . S
C204 H232 0.929 . S
C205 C204 1.380 . S
C205 C206 1.347 . S
C205 H233 0.931 . S
C206 C205 1.347 . S
C206 C207 1.369 . S
C207 C206 1.369 . S
C207 C208 1.408 . S
C207 H234 0.930 . S
C208 C203 1.348 . S
C208 C207 1.408 . S
C208 H235 0.930 . S
C209 O222 1.281 . S
C209 O223 1.254 . S
C210 O224 1.236 . S
C210 O225 1.266 . S
C211 Tb201 2.809 . S
C211 C212 1.514 . S
C211 O226 1.248 . S
C211 O227 1.266 . S
C212 C211 1.514 . S
C212 C213 1.359 . S
C212 C217 1.348 . S
C213 C212 1.359 . S
C213 C214 1.380 1_545 S
C213 H236 0.929 . S
C214 C213 1.380 1_565 S
C214 C215 1.347 . S
C214 H237 0.931 . S
C215 C214 1.347 . S
C215 C216 1.369 . S
C216 C215 1.369 . S
C216 C217 1.408 1_565 S
C216 H238 0.930 . S
C217 C212 1.348 . S
C217 C216 1.408 1_545 S
C217 H239 0.930 . S
C218 O228 1.281 . S
C218 O229 1.254 . S
C219 O230 1.236 . S
C219 O231 1.266 . S
O220 Tb200 2.484 . S
O220 C202 1.248 . S
O221 Tb200 2.440 . S
O221 C202 1.266 . S
O222 Tb200 2.658 . S
O222 Tb201 2.325 . S
O222 C209 1.281 . S
O223 Tb200 2.409 . S
O223 C209 1.254 . S
O224 Tb200 2.378 . S
O224 C210 1.236 . S
O225 Tb201 2.341 . S
O225 C210 1.266 . S
O226 Tb201 2.484 . S
O226 C211 1.248 . S
O227 Tb201 2.440 . S
O227 C211 1.266 . S
O228 Tb200 2.325 . S
O228 Tb201 2.658 . S
O228 C218 1.281 . S
O229 Tb201 2.409 . S
O229 C218 1.254 . S
O230 Tb201 2.378 . S
O230 C219 1.236 . S
O231 Tb200 2.341 . S
O231 C219 1.266 . S
H232 C204 0.929 . S
H233 C205 0.931 . S
H234 C207 0.930 . S
H235 C208 0.930 . S
H236 C213 0.929 . S
H237 C214 0.931 . S
H238 C216 0.930 . S
H239 C217 0.930 . S
Tb240 C242 2.809 . S
Tb240 O260 2.484 . S
Tb240 O261 2.440 . S
Tb240 O262 2.658 . S
Tb240 O263 2.409 . S
Tb240 O264 2.378 . S
Tb240 O268 2.325 . S
Tb240 O271 2.341 . S
Tb241 C251 2.809 . S
Tb241 O262 2.325 . S
Tb241 O265 2.341 . S
Tb241 O266 2.484 . S
Tb241 O267 2.440 . S
Tb241 O268 2.658 . S
Tb241 O269 2.409 . S
Tb241 O270 2.378 . S
C242 Tb240 2.809 . S
C242 C243 1.514 . S
C242 O260 1.248 . S
C242 O261 1.266 . S
C243 C242 1.514 . S
C243 C244 1.359 . S
C243 C248 1.348 . S
C244 C243 1.359 . S
C244 C245 1.380 . S
C244 H272 0.929 . S
C245 C244 1.380 . S
C245 C246 1.347 . S
C245 H273 0.931 . S
C246 C245 1.347 . S
C246 C247 1.369 . S
C247 C246 1.369 . S
C247 C248 1.408 . S
C247 H274 0.930 . S
C248 C243 1.348 . S
C248 C247 1.408 . S
C248 H275 0.930 . S
C249 O262 1.281 . S
C249 O263 1.254 . S
C250 O264 1.236 . S
C250 O265 1.266 . S
C251 Tb241 2.809 . S
C251 C252 1.514 . S
C251 O266 1.248 . S
C251 O267 1.266 . S
C252 C251 1.514 . S
C252 C253 1.359 . S
C252 C257 1.348 . S
C253 C252 1.359 . S
C253 C254 1.380 . S
C253 H276 0.929 . S
C254 C253 1.380 . S
C254 C255 1.347 . S
C254 H277 0.931 . S
C255 C254 1.347 . S
C255 C256 1.369 . S
C256 C255 1.369 . S
C256 C257 1.408 . S
C256 H278 0.930 . S
C257 C252 1.348 . S
C257 C256 1.408 . S
C257 H279 0.930 . S
C258 O268 1.281 . S
C258 O269 1.254 . S
C259 O270 1.236 . S
C259 O271 1.266 . S
O260 Tb240 2.484 . S
O260 C242 1.248 . S
O261 Tb240 2.440 . S
O261 C242 1.266 . S
O262 Tb240 2.658 . S
O262 Tb241 2.325 . S
O262 C249 1.281 . S
O263 Tb240 2.409 . S
O263 C249 1.254 . S
O264 Tb240 2.378 . S
O264 C250 1.236 . S
O265 Tb241 2.341 . S
O265 C250 1.266 . S
O266 Tb241 2.484 . S
O266 C251 1.248 . S
O267 Tb241 2.440 . S
O267 C251 1.266 . S
O268 Tb240 2.325 . S
O268 Tb241 2.658 . S
O268 C258 1.281 . S
O269 Tb241 2.409 . S
O269 C258 1.254 . S
O270 Tb241 2.378 . S
O270 C259 1.236 . S
O271 Tb240 2.341 . S
O271 C259 1.266 . S
H272 C244 0.929 . S
H273 C245 0.931 . S
H274 C247 0.930 . S
H275 C248 0.930 . S
H276 C253 0.929 . S
H277 C254 0.931 . S
H278 C256 0.930 . S
H279 C257 0.930 . S
Tb280 C282 2.809 . S
Tb280 O300 2.484 . S
Tb280 O301 2.440 . S
Tb280 O302 2.658 . S
Tb280 O303 2.409 . S
Tb280 O304 2.378 . S
Tb280 O308 2.325 . S
Tb280 O311 2.341 . S
Tb281 C291 2.809 . S
Tb281 O302 2.325 . S
Tb281 O305 2.341 . S
Tb281 O306 2.484 . S
Tb281 O307 2.440 . S
Tb281 O308 2.658 . S
Tb281 O309 2.409 . S
Tb281 O310 2.378 . S
C282 Tb280 2.809 . S
C282 C283 1.514 . S
C282 O300 1.248 . S
C282 O301 1.266 . S
C283 C282 1.514 . S
C283 C284 1.359 . S
C283 C288 1.348 . S
C284 C283 1.359 . S
C284 C285 1.380 . S
C284 H312 0.929 . S
C285 C284 1.380 . S
C285 C286 1.347 . S
C285 H313 0.931 . S
C286 C285 1.347 . S
C286 C287 1.369 . S
C287 C286 1.369 . S
C287 C288 1.408 . S
C287 H314 0.930 . S
C288 C283 1.348 . S
C288 C287 1.408 . S
C288 H315 0.930 . S
C289 O302 1.281 . S
C289 O303 1.254 . S
C290 O304 1.236 . S
C290 O305 1.266 . S
C291 Tb281 2.809 . S
C291 C292 1.514 . S
C291 O306 1.248 . S
C291 O307 1.266 . S
C292 C291 1.514 . S
C292 C293 1.359 . S
C292 C297 1.348 . S
C293 C292 1.359 . S
C293 C294 1.380 1_655 S
C293 H316 0.929 . S
C294 C293 1.380 1_455 S
C294 C295 1.347 . S
C294 H317 0.931 . S
C295 C294 1.347 . S
C295 C296 1.369 . S
C296 C295 1.369 . S
C296 C297 1.408 1_455 S
C296 H318 0.930 . S
C297 C292 1.348 . S
C297 C296 1.408 1_655 S
C297 H319 0.930 . S
C298 O308 1.281 . S
C298 O309 1.254 . S
C299 O310 1.236 . S
C299 O311 1.266 . S
O300 Tb280 2.484 . S
O300 C282 1.248 . S
O301 Tb280 2.440 . S
O301 C282 1.266 . S
O302 Tb280 2.658 . S
O302 Tb281 2.325 . S
O302 C289 1.281 . S
O303 Tb280 2.409 . S
O303 C289 1.254 . S
O304 Tb280 2.378 . S
O304 C290 1.236 . S
O305 Tb281 2.341 . S
O305 C290 1.266 . S
O306 Tb281 2.484 . S
O306 C291 1.248 . S
O307 Tb281 2.440 . S
O307 C291 1.266 . S
O308 Tb280 2.325 . S
O308 Tb281 2.658 . S
O308 C298 1.281 . S
O309 Tb281 2.409 . S
O309 C298 1.254 . S
O310 Tb281 2.378 . S
O310 C299 1.236 . S
O311 Tb280 2.341 . S
O311 C299 1.266 . S
H312 C284 0.929 . S
H313 C285 0.931 . S
H314 C287 0.930 . S
H315 C288 0.930 . S
H316 C293 0.929 . S
H317 C294 0.931 . S
H318 C296 0.930 . S
H319 C297 0.930 . S
Tb320 C322 2.809 . S
Tb320 O340 2.484 . S
Tb320 O341 2.440 . S
Tb320 O342 2.658 . S
Tb320 O343 2.409 . S
Tb320 O344 2.378 . S
Tb320 O348 2.325 . S
Tb320 O351 2.341 . S
Tb321 C331 2.809 . S
Tb321 O342 2.325 . S
Tb321 O345 2.341 . S
Tb321 O346 2.484 . S
Tb321 O347 2.440 . S
Tb321 O348 2.658 . S
Tb321 O349 2.409 . S
Tb321 O350 2.378 . S
C322 Tb320 2.809 . S
C322 C323 1.514 . S
C322 O340 1.248 . S
C322 O341 1.266 . S
C323 C322 1.514 . S
C323 C324 1.359 . S
C323 C328 1.348 . S
C324 C323 1.359 . S
C324 C325 1.380 . S
C324 H352 0.929 . S
C325 C324 1.380 . S
C325 C326 1.347 . S
C325 H353 0.931 . S
C326 C325 1.347 . S
C326 C327 1.369 . S
C327 C326 1.369 . S
C327 C328 1.408 . S
C327 H354 0.930 . S
C328 C323 1.348 . S
C328 C327 1.408 . S
C328 H355 0.930 . S
C329 O342 1.281 . S
C329 O343 1.254 . S
C330 O344 1.236 . S
C330 O345 1.266 . S
C331 Tb321 2.809 . S
C331 C332 1.514 . S
C331 O346 1.248 . S
C331 O347 1.266 . S
C332 C331 1.514 . S
C332 C333 1.359 . S
C332 C337 1.348 . S
C333 C332 1.359 . S
C333 C334 1.380 1_565 S
C333 H356 0.929 . S
C334 C333 1.380 1_545 S
C334 C335 1.347 . S
C334 H357 0.931 . S
C335 C334 1.347 . S
C335 C336 1.369 . S
C336 C335 1.369 . S
C336 C337 1.408 1_545 S
C336 H358 0.930 . S
C337 C332 1.348 . S
C337 C336 1.408 1_565 S
C337 H359 0.930 . S
C338 O348 1.281 . S
C338 O349 1.254 . S
C339 O350 1.236 . S
C339 O351 1.266 . S
O340 Tb320 2.484 . S
O340 C322 1.248 . S
O341 Tb320 2.440 . S
O341 C322 1.266 . S
O342 Tb320 2.658 . S
O342 Tb321 2.325 . S
O342 C329 1.281 . S
O343 Tb320 2.409 . S
O343 C329 1.254 . S
O344 Tb320 2.378 . S
O344 C330 1.236 . S
O345 Tb321 2.341 . S
O345 C330 1.266 . S
O346 Tb321 2.484 . S
O346 C331 1.248 . S
O347 Tb321 2.440 . S
O347 C331 1.266 . S
O348 Tb320 2.325 . S
O348 Tb321 2.658 . S
O348 C338 1.281 . S
O349 Tb321 2.409 . S
O349 C338 1.254 . S
O350 Tb321 2.378 . S
O350 C339 1.236 . S
O351 Tb320 2.341 . S
O351 C339 1.266 . S
H352 C324 0.929 . S
H353 C325 0.931 . S
H354 C327 0.930 . S
H355 C328 0.930 . S
H356 C333 0.929 . S
H357 C334 0.931 . S
H358 C336 0.930 . S
H359 C337 0.930 . S
Tb360 C362 2.809 . S
Tb360 O380 2.484 . S
Tb360 O381 2.440 . S
Tb360 O382 2.658 . S
Tb360 O383 2.409 . S
Tb360 O384 2.378 . S
Tb360 O388 2.325 . S
Tb360 O391 2.341 . S
Tb361 C371 2.809 . S
Tb361 O382 2.325 . S
Tb361 O385 2.341 . S
Tb361 O386 2.484 . S
Tb361 O387 2.440 . S
Tb361 O388 2.658 . S
Tb361 O389 2.409 . S
Tb361 O390 2.378 . S
C362 Tb360 2.809 . S
C362 C363 1.514 . S
C362 O380 1.248 . S
C362 O381 1.266 . S
C363 C362 1.514 . S
C363 C364 1.359 . S
C363 C368 1.348 . S
C364 C363 1.359 . S
C364 C365 1.380 . S
C364 H392 0.929 . S
C365 C364 1.380 . S
C365 C366 1.347 . S
C365 H393 0.931 . S
C366 C365 1.347 . S
C366 C367 1.369 . S
C367 C366 1.369 . S
C367 C368 1.408 . S
C367 H394 0.930 . S
C368 C363 1.348 . S
C368 C367 1.408 . S
C368 H395 0.930 . S
C369 O382 1.281 . S
C369 O383 1.254 . S
C370 O384 1.236 . S
C370 O385 1.266 . S
C371 Tb361 2.809 . S
C371 C372 1.514 . S
C371 O386 1.248 . S
C371 O387 1.266 . S
C372 C371 1.514 . S
C372 C373 1.359 . S
C372 C377 1.348 . S
C373 C372 1.359 . S
C373 C374 1.380 . S
C373 H396 0.929 . S
C374 C373 1.380 . S
C374 C375 1.347 . S
C374 H397 0.931 . S
C375 C374 1.347 . S
C375 C376 1.369 . S
C376 C375 1.369 . S
C376 C377 1.408 . S
C376 H398 0.930 . S
C377 C372 1.348 . S
C377 C376 1.408 . S
C377 H399 0.930 . S
C378 O388 1.281 . S
C378 O389 1.254 . S
C379 O390 1.236 . S
C379 O391 1.266 . S
O380 Tb360 2.484 . S
O380 C362 1.248 . S
O381 Tb360 2.440 . S
O381 C362 1.266 . S
O382 Tb360 2.658 . S
O382 Tb361 2.325 . S
O382 C369 1.281 . S
O383 Tb360 2.409 . S
O383 C369 1.254 . S
O384 Tb360 2.378 . S
O384 C370 1.236 . S
O385 Tb361 2.341 . S
O385 C370 1.266 . S
O386 Tb361 2.484 . S
O386 C371 1.248 . S
O387 Tb361 2.440 . S
O387 C371 1.266 . S
O388 Tb360 2.325 . S
O388 Tb361 2.658 . S
O388 C378 1.281 . S
O389 Tb361 2.409 . S
O389 C378 1.254 . S
O390 Tb361 2.378 . S
O390 C379 1.236 . S
O391 Tb360 2.341 . S
O391 C379 1.266 . S
H392 C364 0.929 . S
H393 C365 0.931 . S
H394 C367 0.930 . S
H395 C368 0.930 . S
H396 C373 0.929 . S
H397 C374 0.931 . S
H398 C376 0.930 . S
H399 C377 0.930 . S
Tb400 C402 2.809 . S
Tb400 O420 2.484 . S
Tb400 O421 2.440 . S
Tb400 O422 2.658 . S
Tb400 O423 2.409 . S
Tb400 O424 2.378 . S
Tb400 O428 2.325 . S
Tb400 O431 2.341 . S
Tb401 C411 2.809 . S
Tb401 O422 2.325 . S
Tb401 O425 2.341 . S
Tb401 O426 2.484 . S
Tb401 O427 2.440 . S
Tb401 O428 2.658 . S
Tb401 O429 2.409 . S
Tb401 O430 2.378 . S
C402 Tb400 2.809 . S
C402 C403 1.514 . S
C402 O420 1.248 . S
C402 O421 1.266 . S
C403 C402 1.514 . S
C403 C404 1.359 . S
C403 C408 1.348 . S
C404 C403 1.359 . S
C404 C405 1.380 . S
C404 H432 0.929 . S
C405 C404 1.380 . S
C405 C406 1.347 . S
C405 H433 0.931 . S
C406 C405 1.347 . S
C406 C407 1.369 . S
C407 C406 1.369 . S
C407 C408 1.408 . S
C407 H434 0.930 . S
C408 C403 1.348 . S
C408 C407 1.408 . S
C408 H435 0.930 . S
C409 O422 1.281 . S
C409 O423 1.254 . S
C410 O424 1.236 . S
C410 O425 1.266 . S
C411 Tb401 2.809 . S
C411 C412 1.514 . S
C411 O426 1.248 . S
C411 O427 1.266 . S
C412 C411 1.514 . S
C412 C413 1.359 . S
C412 C417 1.348 . S
C413 C412 1.359 . S
C413 C414 1.380 1_455 S
C413 H436 0.929 . S
C414 C413 1.380 1_655 S
C414 C415 1.347 . S
C414 H437 0.931 . S
C415 C414 1.347 . S
C415 C416 1.369 . S
C416 C415 1.369 . S
C416 C417 1.408 1_655 S
C416 H438 0.930 . S
C417 C412 1.348 . S
C417 C416 1.408 1_455 S
C417 H439 0.930 . S
C418 O428 1.281 . S
C418 O429 1.254 . S
C419 O430 1.236 . S
C419 O431 1.266 . S
O420 Tb400 2.484 . S
O420 C402 1.248 . S
O421 Tb400 2.440 . S
O421 C402 1.266 . S
O422 Tb400 2.658 . S
O422 Tb401 2.325 . S
O422 C409 1.281 . S
O423 Tb400 2.409 . S
O423 C409 1.254 . S
O424 Tb400 2.378 . S
O424 C410 1.236 . S
O425 Tb401 2.341 . S
O425 C410 1.266 . S
O426 Tb401 2.484 . S
O426 C411 1.248 . S
O427 Tb401 2.440 . S
O427 C411 1.266 . S
O428 Tb400 2.325 . S
O428 Tb401 2.658 . S
O428 C418 1.281 . S
O429 Tb401 2.409 . S
O429 C418 1.254 . S
O430 Tb401 2.378 . S
O430 C419 1.236 . S
O431 Tb400 2.341 . S
O431 C419 1.266 . S
H432 C404 0.929 . S
H433 C405 0.931 . S
H434 C407 0.930 . S
H435 C408 0.930 . S
H436 C413 0.929 . S
H437 C414 0.931 . S
H438 C416 0.930 . S
H439 C417 0.930 . S
Tb440 C442 2.809 . S
Tb440 O460 2.484 . S
Tb440 O461 2.440 . S
Tb440 O462 2.658 . S
Tb440 O463 2.409 . S
Tb440 O464 2.378 . S
Tb440 O468 2.325 . S
Tb440 O471 2.341 . S
Tb441 C451 2.809 . S
Tb441 O462 2.325 . S
Tb441 O465 2.341 . S
Tb441 O466 2.484 . S
Tb441 O467 2.440 . S
Tb441 O468 2.658 . S
Tb441 O469 2.409 . S
Tb441 O470 2.378 . S
C442 Tb440 2.809 . S
C442 C443 1.514 . S
C442 O460 1.248 . S
C442 O461 1.266 . S
C443 C442 1.514 . S
C443 C444 1.359 . S
C443 C448 1.348 . S
C444 C443 1.359 . S
C444 C445 1.380 . S
C444 H472 0.929 . S
C445 C444 1.380 . S
C445 C446 1.347 . S
C445 H473 0.931 . S
C446 C445 1.347 . S
C446 C447 1.369 . S
C447 C446 1.369 . S
C447 C448 1.408 . S
C447 H474 0.930 . S
C448 C443 1.348 . S
C448 C447 1.408 . S
C448 H475 0.930 . S
C449 O462 1.281 . S
C449 O463 1.254 . S
C450 O464 1.236 . S
C450 O465 1.266 . S
C451 Tb441 2.809 . S
C451 C452 1.514 . S
C451 O466 1.248 . S
C451 O467 1.266 . S
C452 C451 1.514 . S
C452 C453 1.359 . S
C452 C457 1.348 . S
C453 C452 1.359 . S
C453 C454 1.380 1_545 S
C453 H476 0.929 . S
C454 C453 1.380 1_565 S
C454 C455 1.347 . S
C454 H477 0.931 . S
C455 C454 1.347 . S
C455 C456 1.369 . S
C456 C455 1.369 . S
C456 C457 1.408 1_565 S
C456 H478 0.930 . S
C457 C452 1.348 . S
C457 C456 1.408 1_545 S
C457 H479 0.930 . S
C458 O468 1.281 . S
C458 O469 1.254 . S
C459 O470 1.236 . S
C459 O471 1.266 . S
O460 Tb440 2.484 . S
O460 C442 1.248 . S
O461 Tb440 2.440 . S
O461 C442 1.266 . S
O462 Tb440 2.658 . S
O462 Tb441 2.325 . S
O462 C449 1.281 . S
O463 Tb440 2.409 . S
O463 C449 1.254 . S
O464 Tb440 2.378 . S
O464 C450 1.236 . S
O465 Tb441 2.341 . S
O465 C450 1.266 . S
O466 Tb441 2.484 . S
O466 C451 1.248 . S
O467 Tb441 2.440 . S
O467 C451 1.266 . S
O468 Tb440 2.325 . S
O468 Tb441 2.658 . S
O468 C458 1.281 . S
O469 Tb441 2.409 . S
O469 C458 1.254 . S
O470 Tb441 2.378 . S
O470 C459 1.236 . S
O471 Tb440 2.341 . S
O471 C459 1.266 . S
H472 C444 0.929 . S
H473 C445 0.931 . S
H474 C447 0.930 . S
H475 C448 0.930 . S
H476 C453 0.929 . S
H477 C454 0.931 . S
H478 C456 0.930 . S
H479 C457 0.930 . S
H480 C488 0.929 . S
H481 C490 0.930 . S
H482 C492 0.930 . S
H483 C495 0.929 . S
H484 C498 0.956 . S
H485 C500 0.960 . S
H486 C500 0.960 . S
H487 C500 0.960 . S
C488 H480 0.929 . S
C488 C489 1.377 . S
C488 C490 1.384 . S
C489 C488 1.377 . S
C489 C495 1.390 . S
C490 H481 0.930 . S
C490 C488 1.384 . S
C490 C491 1.372 . S
C491 C490 1.372 . S
C491 C492 1.400 . S
C491 C496 1.490 . S
C492 H482 0.930 . S
C492 C491 1.400 . S
C492 C495 1.386 . S
H493 C509 0.930 . S
H494 C510 0.931 . S
C495 H483 0.929 . S
C495 C489 1.390 . S
C495 C492 1.386 . S
C496 C491 1.490 . S
C496 C498 1.406 . S
C496 C499 1.403 . S
H497 C503 0.930 . S
C498 H484 0.956 . S
C498 C496 1.406 . S
C498 C501 1.368 1_565 S
C499 C496 1.403 . S
C499 C500 1.524 . S
C499 C503 1.400 1_565 S
C500 H485 0.960 . S
C500 H486 0.960 . S
C500 H487 0.960 . S
C500 C499 1.524 . S
C501 C498 1.368 1_545 S
C501 C502 1.392 . S
C501 C505 1.495 . S
C502 C501 1.392 . S
C502 C503 1.385 . S
C502 C504 1.478 . S
C503 H497 0.930 . S
C503 C499 1.400 1_545 S
C503 C502 1.385 . S
C504 C502 1.478 . S
C504 C506 1.381 . S
C504 C510 1.383 . S
C505 C501 1.495 . S
C505 H511 0.959 . S
C505 H512 0.961 . S
C505 H513 0.960 . S
C506 C504 1.381 . S
C506 C507 1.394 . S
C506 H514 0.930 . S
C507 C506 1.394 . S
C507 C508 1.383 . S
C507 H515 0.929 . S
C508 C507 1.383 . S
C508 C509 1.377 . S
C509 H493 0.930 . S
C509 C508 1.377 . S
C509 C510 1.379 . S
C510 H494 0.931 . S
C510 C504 1.383 . S
C510 C509 1.379 . S
H511 C505 0.959 . S
H512 C505 0.961 . S
H513 C505 0.960 . S
H514 C506 0.930 . S
H515 C507 0.929 . S
H516 C524 0.929 . S
H517 C526 0.930 . S
H518 C528 0.930 . S
H519 C531 0.929 . S
H520 C534 0.930 . S
H521 C536 0.960 . S
H522 C536 0.960 . S
H523 C536 0.960 . S
C524 H516 0.929 . S
C524 C525 1.377 . S
C524 C526 1.384 . S
C525 C524 1.377 . S
C525 C531 1.390 . S
C526 H517 0.930 . S
C526 C524 1.384 . S
C526 C527 1.372 . S
C527 C526 1.372 . S
C527 C528 1.400 . S
C527 C532 1.490 . S
C528 H518 0.930 . S
C528 C527 1.400 . S
C528 C531 1.386 . S
H529 C545 0.930 . S
H530 C546 0.931 . S
C531 H519 0.929 . S
C531 C525 1.390 . S
C531 C528 1.386 . S
C532 C527 1.490 . S
C532 C534 1.395 . S
C532 C535 1.403 . S
H533 C539 0.930 . S
C534 H520 0.930 . S
C534 C532 1.395 . S
C534 C537 1.403 . S
C535 C532 1.403 . S
C535 C536 1.524 . S
C535 C539 1.400 . S
C536 H521 0.960 . S
C536 H522 0.960 . S
C536 H523 0.960 . S
C536 C535 1.524 . S
C537 C534 1.403 . S
C537 C538 1.392 . S
C537 C541 1.495 . S
C538 C537 1.392 . S
C538 C539 1.385 . S
C538 C540 1.478 . S
C539 H533 0.930 . S
C539 C535 1.400 . S
C539 C538 1.385 . S
C540 C538 1.478 . S
C540 C542 1.381 . S
C540 C546 1.383 . S
C541 C537 1.495 . S
C541 H547 0.959 . S
C541 H548 0.961 . S
C541 H549 0.960 . S
C542 C540 1.381 . S
C542 C543 1.394 . S
C542 H550 0.930 . S
C543 C542 1.394 . S
C543 C544 1.383 . S
C543 H551 0.929 . S
C544 C543 1.383 . S
C544 C545 1.377 . S
C545 H529 0.930 . S
C545 C544 1.377 . S
C545 C546 1.379 . S
C546 H530 0.931 . S
C546 C540 1.383 . S
C546 C545 1.379 . S
H547 C541 0.959 . S
H548 C541 0.961 . S
H549 C541 0.960 . S
H550 C542 0.930 . S
H551 C543 0.929 . S
H552 C560 0.929 . S
H553 C562 0.930 . S
H554 C564 0.930 . S
H555 C567 0.929 . S
H556 C570 0.930 . S
H557 C572 0.960 1_455 S
H558 C572 0.960 . S
H559 C572 0.960 . S
C560 H552 0.929 . S
C560 C561 1.377 . S
C560 C562 1.384 . S
C561 C560 1.377 . S
C561 C567 1.390 . S
C562 H553 0.930 . S
C562 C560 1.384 . S
C562 C563 1.372 . S
C563 C562 1.372 . S
C563 C564 1.400 . S
C563 C568 1.490 . S
C564 H554 0.930 . S
C564 C563 1.400 . S
C564 C567 1.386 . S
H565 C581 0.930 . S
H566 C582 0.931 . S
C567 H555 0.929 . S
C567 C561 1.390 . S
C567 C564 1.386 . S
C568 C563 1.490 . S
C568 C570 1.395 . S
C568 C571 1.403 . S
H569 C575 0.930 . S
C570 H556 0.930 . S
C570 C568 1.395 . S
C570 C573 1.403 . S
C571 C568 1.403 . S
C571 C572 1.524 . S
C571 C575 1.400 1_655 S
C572 H557 0.960 1_655 S
C572 H558 0.960 . S
C572 H559 0.960 . S
C572 C571 1.524 . S
C573 C570 1.403 . S
C573 C574 1.392 1_655 S
C573 C577 1.495 . S
C574 C573 1.392 1_455 S
C574 C575 1.385 . S
C574 C576 1.478 . S
C575 H569 0.930 . S
C575 C571 1.400 1_455 S
C575 C574 1.385 . S
C576 C574 1.478 . S
C576 C578 1.381 . S
C576 C582 1.383 . S
C577 C573 1.495 . S
C577 H583 0.959 . S
C577 H584 0.961 1_655 S
C577 H585 0.960 1_655 S
C578 C576 1.381 . S
C578 C579 1.394 . S
C578 H586 0.930 . S
C579 C578 1.394 . S
C579 C580 1.383 . S
C579 H587 0.929 . S
C580 C579 1.383 . S
C580 C581 1.377 . S
C581 H565 0.930 . S
C581 C580 1.377 . S
C581 C582 1.379 . S
C582 H566 0.931 . S
C582 C576 1.383 . S
C582 C581 1.379 . S
H583 C577 0.959 . S
H584 C577 0.961 1_455 S
H585 C577 0.960 1_455 S
H586 C578 0.930 . S
H587 C579 0.929 . S
H588 C596 0.929 . S
H589 C598 0.930 . S
H590 C600 0.930 . S
H591 C603 0.929 . S
H592 C606 0.930 . S
H593 C608 0.960 1_545 S
H594 C608 0.960 . S
H595 C608 0.960 . S
C596 H588 0.929 . S
C596 C597 1.377 . S
C596 C598 1.384 . S
C597 C596 1.377 . S
C597 C603 1.390 . S
C598 H589 0.930 . S
C598 C596 1.384 . S
C598 C599 1.372 . S
C599 C598 1.372 . S
C599 C600 1.400 . S
C599 C604 1.490 . S
C600 H590 0.930 . S
C600 C599 1.400 . S
C600 C603 1.386 . S
H601 C617 0.930 . S
H602 C618 0.931 . S
C603 H591 0.929 . S
C603 C597 1.390 . S
C603 C600 1.386 . S
C604 C599 1.490 . S
C604 C606 1.395 . S
C604 C607 1.403 . S
H605 C611 0.930 . S
C606 H592 0.930 . S
C606 C604 1.395 . S
C606 C609 1.403 . S
C607 C604 1.403 . S
C607 C608 1.524 . S
C607 C611 1.400 1_565 S
C608 H593 0.960 1_565 S
C608 H594 0.960 . S
C608 H595 0.960 . S
C608 C607 1.524 . S
C609 C606 1.403 . S
C609 C610 1.392 1_565 S
C609 C613 1.495 1_565 S
C610 C609 1.392 1_545 S
C610 C611 1.385 . S
C610 C612 1.478 . S
C611 H605 0.930 . S
C611 C607 1.400 1_545 S
C611 C610 1.385 . S
C612 C610 1.478 . S
C612 C614 1.381 . S
C612 C618 1.383 . S
C613 C609 1.495 1_545 S
C613 H619 0.959 1_545 S
C613 H620 0.961 . S
C613 H621 0.960 . S
C614 C612 1.381 . S
C614 C615 1.394 . S
C614 H622 0.930 . S
C615 C614 1.394 . S
C615 C616 1.383 . S
C615 H623 0.929 . S
C616 C615 1.383 . S
C616 C617 1.377 . S
C617 H601 0.930 . S
C617 C616 1.377 . S
C617 C618 1.379 . S
C618 H602 0.931 . S
C618 C612 1.383 . S
C618 C617 1.379 . S
H619 C613 0.959 1_565 S
H620 C613 0.961 . S
H621 C613 0.960 . S
H622 C614 0.930 . S
H623 C615 0.929 . S
H624 C632 0.929 . S
H625 C634 0.930 . S
H626 C636 0.930 . S
H627 C639 0.929 . S
H628 C642 0.930 . S
H629 C644 0.960 . S
H630 C644 0.960 . S
H631 C644 0.960 . S
C632 H624 0.929 . S
C632 C633 1.377 . S
C632 C634 1.384 . S
C633 C632 1.377 . S
C633 C639 1.390 . S
C634 H625 0.930 . S
C634 C632 1.384 . S
C634 C635 1.372 . S
C635 C634 1.372 . S
C635 C636 1.400 . S
C635 C640 1.490 . S
C636 H626 0.930 . S
C636 C635 1.400 . S
C636 C639 1.386 . S
H637 C653 0.930 . S
H638 C654 0.931 . S
C639 H627 0.929 . S
C639 C633 1.390 . S
C639 C636 1.386 . S
C640 C635 1.490 . S
C640 C642 1.395 . S
C640 C643 1.403 . S
H641 C647 0.930 . S
C642 H628 0.930 . S
C642 C640 1.395 . S
C642 C645 1.403 . S
C643 C640 1.403 . S
C643 C644 1.524 . S
C643 C647 1.400 . S
C644 H629 0.960 . S
C644 H630 0.960 . S
C644 H631 0.960 . S
C644 C643 1.524 . S
C645 C642 1.403 . S
C645 C646 1.392 . S
C645 C649 1.495 . S
C646 C645 1.392 . S
C646 C647 1.385 . S
C646 C648 1.478 . S
C647 H641 0.930 . S
C647 C643 1.400 . S
C647 C646 1.385 . S
C648 C646 1.478 . S
C648 C650 1.381 . S
C648 C654 1.383 . S
C649 C645 1.495 . S
C649 H655 0.959 . S
C649 H656 0.961 . S
C649 H657 0.960 . S
C650 C648 1.381 . S
C650 C651 1.394 . S
C650 H658 0.930 . S
C651 C650 1.394 . S
C651 C652 1.383 . S
C651 H659 0.929 . S
C652 C651 1.383 . S
C652 C653 1.377 . S
C653 H637 0.930 . S
C653 C652 1.377 . S
C653 C654 1.379 . S
C654 H638 0.931 . S
C654 C648 1.383 . S
C654 C653 1.379 . S
H655 C649 0.959 . S
H656 C649 0.961 . S
H657 C649 0.960 . S
H658 C650 0.930 . S
H659 C651 0.929 . S
H660 C668 0.929 . S
H661 C670 0.930 . S
H662 C672 0.930 . S
H663 C675 0.929 . S
H664 C678 0.930 . S
H665 C680 0.960 1_455 S
H666 C680 0.960 . S
H667 C680 0.960 . S
C668 H660 0.929 . S
C668 C669 1.377 . S
C668 C670 1.384 . S
C669 C668 1.377 . S
C669 C675 1.390 . S
C670 H661 0.930 . S
C670 C668 1.384 . S
C670 C671 1.372 . S
C671 C670 1.372 . S
C671 C672 1.400 . S
C671 C676 1.490 . S
C672 H662 0.930 . S
C672 C671 1.400 . S
C672 C675 1.386 . S
H673 C689 0.930 . S
H674 C690 0.931 . S
C675 H663 0.929 . S
C675 C669 1.390 . S
C675 C672 1.386 . S
C676 C671 1.490 . S
C676 C678 1.395 . S
C676 C679 1.403 . S
H677 C683 0.930 . S
C678 H664 0.930 . S
C678 C676 1.395 . S
C678 C681 1.403 1_655 S
C679 C676 1.403 . S
C679 C680 1.524 . S
C679 C683 1.400 1_655 S
C680 H665 0.960 1_655 S
C680 H666 0.960 . S
C680 H667 0.960 . S
C680 C679 1.524 . S
C681 C678 1.403 1_455 S
C681 C682 1.392 . S
C681 C685 1.495 . S
C682 C681 1.392 . S
C682 C683 1.385 . S
C682 C684 1.478 . S
C683 H677 0.930 . S
C683 C679 1.400 1_455 S
C683 C682 1.385 . S
C684 C682 1.478 . S
C684 C686 1.381 . S
C684 C690 1.383 . S
C685 C681 1.495 . S
C685 H691 0.959 . S
C685 H692 0.961 . S
C685 H693 0.960 . S
C686 C684 1.381 . S
C686 C687 1.394 . S
C686 H694 0.930 . S
C687 C686 1.394 . S
C687 C688 1.383 . S
C687 H695 0.929 . S
C688 C687 1.383 . S
C688 C689 1.377 . S
C689 H673 0.930 . S
C689 C688 1.377 . S
C689 C690 1.379 . S
C690 H674 0.931 . S
C690 C684 1.383 . S
C690 C689 1.379 . S
H691 C685 0.959 . S
H692 C685 0.961 . S
H693 C685 0.960 . S
H694 C686 0.930 . S
H695 C687 0.929 . S
H696 C704 0.929 . S
H697 C706 0.930 . S
H698 C708 0.930 . S
H699 C711 0.929 . S
H700 C714 0.930 1_455 S
H701 C716 0.960 . S
H702 C716 0.960 . S
H703 C716 0.960 . S
C704 H696 0.929 . S
C704 C705 1.377 . S
C704 C706 1.384 . S
C705 C704 1.377 . S
C705 C711 1.390 . S
C706 H697 0.930 . S
C706 C704 1.384 . S
C706 C707 1.372 . S
C707 C706 1.372 . S
C707 C708 1.400 . S
C707 C712 1.490 . S
C708 H698 0.930 . S
C708 C707 1.400 . S
C708 C711 1.386 . S
H709 C725 0.930 . S
H710 C726 0.931 . S
C711 H699 0.929 . S
C711 C705 1.390 . S
C711 C708 1.386 . S
C712 C707 1.490 . S
C712 C714 1.395 1_455 S
C712 C715 1.403 . S
H713 C719 0.930 . S
C714 H700 0.930 1_655 S
C714 C712 1.395 1_655 S
C714 C717 1.403 . S
C715 C712 1.403 . S
C715 C716 1.524 . S
C715 C719 1.400 1_455 S
C716 H701 0.960 . S
C716 H702 0.960 . S
C716 H703 0.960 . S
C716 C715 1.524 . S
C717 C714 1.403 . S
C717 C718 1.392 . S
C717 C721 1.495 . S
C718 C717 1.392 . S
C718 C719 1.385 . S
C718 C720 1.478 . S
C719 H713 0.930 . S
C719 C715 1.400 1_655 S
C719 C718 1.385 . S
C720 C718 1.478 . S
C720 C722 1.381 . S
C720 C726 1.383 . S
C721 C717 1.495 . S
C721 H727 0.959 . S
C721 H728 0.961 . S
C721 H729 0.960 . S
C722 C720 1.381 . S
C722 C723 1.394 . S
C722 H730 0.930 . S
C723 C722 1.394 . S
C723 C724 1.383 . S
C723 H731 0.929 . S
C724 C723 1.383 . S
C724 C725 1.377 . S
C725 H709 0.930 . S
C725 C724 1.377 . S
C725 C726 1.379 . S
C726 H710 0.931 . S
C726 C720 1.383 . S
C726 C725 1.379 . S
H727 C721 0.959 . S
H728 C721 0.961 . S
H729 C721 0.960 . S
H730 C722 0.930 . S
H731 C723 0.929 . S
H732 C740 0.929 . S
H733 C742 0.930 . S
H734 C744 0.930 . S
H735 C747 0.929 . S
H736 C750 0.930 . S
H737 C752 0.960 . S
H738 C752 0.960 . S
H739 C752 0.960 . S
C740 H732 0.929 . S
C740 C741 1.377 . S
C740 C742 1.384 . S
C741 C740 1.377 . S
C741 C747 1.390 . S
C742 H733 0.930 . S
C742 C740 1.384 . S
C742 C743 1.372 . S
C743 C742 1.372 . S
C743 C744 1.400 . S
C743 C748 1.490 . S
C744 H734 0.930 . S
C744 C743 1.400 . S
C744 C747 1.386 . S
H745 C761 0.930 . S
H746 C762 0.931 . S
C747 H735 0.929 . S
C747 C741 1.390 . S
C747 C744 1.386 . S
C748 C743 1.490 . S
C748 C750 1.395 . S
C748 C751 1.403 . S
H749 C755 0.930 . S
C750 H736 0.930 . S
C750 C748 1.395 . S
C750 C753 1.403 1_565 S
C751 C748 1.403 . S
C751 C752 1.524 . S
C751 C755 1.400 1_565 S
C752 H737 0.960 . S
C752 H738 0.960 . S
C752 H739 0.960 . S
C752 C751 1.524 . S
C753 C750 1.403 1_545 S
C753 C754 1.392 . S
C753 C757 1.495 . S
C754 C753 1.392 . S
C754 C755 1.385 . S
C754 C756 1.478 . S
C755 H749 0.930 . S
C755 C751 1.400 1_545 S
C755 C754 1.385 . S
C756 C754 1.478 . S
C756 C758 1.381 . S
C756 C762 1.383 . S
C757 C753 1.495 . S
C757 H763 0.959 . S
C757 H764 0.961 . S
C757 H765 0.960 . S
C758 C756 1.381 . S
C758 C759 1.394 . S
C758 H766 0.930 . S
C759 C758 1.394 . S
C759 C760 1.383 . S
C759 H767 0.929 . S
C760 C759 1.383 . S
C760 C761 1.377 . S
C761 H745 0.930 . S
C761 C760 1.377 . S
C761 C762 1.379 . S
C762 H746 0.931 . S
C762 C756 1.383 . S
C762 C761 1.379 . S
H763 C757 0.959 . S
H764 C757 0.961 . S
H765 C757 0.960 . S
H766 C758 0.930 . S
H767 C759 0.929 . S
H768 C776 0.929 . S
H769 C778 0.930 . S
H770 C780 0.930 . S
H771 C783 0.929 . S
H772 C786 0.930 . S
H773 C788 0.960 . S
H774 C788 0.960 . S
H775 C788 0.960 . S
C776 H768 0.929 . S
C776 C777 1.377 . S
C776 C778 1.384 . S
C777 C776 1.377 . S
C777 C783 1.390 . S
C778 H769 0.930 . S
C778 C776 1.384 . S
C778 C779 1.372 . S
C779 C778 1.372 . S
C779 C780 1.400 . S
C779 C784 1.490 . S
C780 H770 0.930 . S
C780 C779 1.400 . S
C780 C783 1.386 . S
H781 C797 0.930 . S
H782 C798 0.931 . S
C783 H771 0.929 . S
C783 C777 1.390 . S
C783 C780 1.386 . S
C784 C779 1.490 . S
C784 C786 1.395 . S
C784 C787 1.403 . S
H785 C791 0.930 . S
C786 H772 0.930 . S
C786 C784 1.395 . S
C786 C789 1.403 . S
C787 C784 1.403 . S
C787 C788 1.524 . S
C787 C791 1.400 . S
C788 H773 0.960 . S
C788 H774 0.960 . S
C788 H775 0.960 . S
C788 C787 1.524 . S
C789 C786 1.403 . S
C789 C790 1.392 . S
C789 C793 1.495 . S
C790 C789 1.392 . S
C790 C791 1.385 . S
C790 C792 1.478 . S
C791 H785 0.930 . S
C791 C787 1.400 . S
C791 C790 1.385 . S
C792 C790 1.478 . S
C792 C794 1.381 . S
C792 C798 1.383 . S
C793 C789 1.495 . S
C793 H799 0.959 . S
C793 H800 0.961 . S
C793 H801 0.960 . S
C794 C792 1.381 . S
C794 C795 1.394 . S
C794 H802 0.930 . S
C795 C794 1.394 . S
C795 C796 1.383 . S
C795 H803 0.929 . S
C796 C795 1.383 . S
C796 C797 1.377 . S
C797 H781 0.930 . S
C797 C796 1.377 . S
C797 C798 1.379 . S
C798 H782 0.931 . S
C798 C792 1.383 . S
C798 C797 1.379 . S
H799 C793 0.959 . S
H800 C793 0.961 . S
H801 C793 0.960 . S
H802 C794 0.930 . S
H803 C795 0.929 . S
H804 C812 0.929 . S
H805 C814 0.930 . S
H806 C816 0.930 . S
H807 C819 0.929 . S
H808 C822 0.930 . S
H809 C824 0.960 . S
H810 C824 0.960 . S
H811 C824 0.960 . S
C812 H804 0.929 . S
C812 C813 1.377 . S
C812 C814 1.384 . S
C813 C812 1.377 . S
C813 C819 1.390 . S
C814 H805 0.930 . S
C814 C812 1.384 . S
C814 C815 1.372 . S
C815 C814 1.372 . S
C815 C816 1.400 . S
C815 C820 1.490 . S
C816 H806 0.930 . S
C816 C815 1.400 . S
C816 C819 1.386 . S
H817 C833 0.930 . S
H818 C834 0.931 . S
C819 H807 0.929 . S
C819 C813 1.390 . S
C819 C816 1.386 . S
C820 C815 1.490 . S
C820 C822 1.395 . S
C820 C823 1.403 . S
H821 C827 0.930 . S
C822 H808 0.930 . S
C822 C820 1.395 . S
C822 C825 1.403 1_455 S
C823 C820 1.403 . S
C823 C824 1.524 . S
C823 C827 1.400 1_455 S
C824 H809 0.960 . S
C824 H810 0.960 . S
C824 H811 0.960 . S
C824 C823 1.524 . S
C825 C822 1.403 1_655 S
C825 C826 1.392 . S
C825 C829 1.495 . S
C826 C825 1.392 . S
C826 C827 1.385 . S
C826 C828 1.478 . S
C827 H821 0.930 . S
C827 C823 1.400 1_655 S
C827 C826 1.385 . S
C828 C826 1.478 . S
C828 C830 1.381 . S
C828 C834 1.383 . S
C829 C825 1.495 . S
C829 H835 0.959 . S
C829 H836 0.961 . S
C829 H837 0.960 . S
C830 C828 1.381 . S
C830 C831 1.394 . S
C830 H838 0.930 . S
C831 C830 1.394 . S
C831 C832 1.383 . S
C831 H839 0.929 . S
C832 C831 1.383 . S
C832 C833 1.377 . S
C833 H817 0.930 . S
C833 C832 1.377 . S
C833 C834 1.379 . S
C834 H818 0.931 . S
C834 C828 1.383 . S
C834 C833 1.379 . S
H835 C829 0.959 . S
H836 C829 0.961 . S
H837 C829 0.960 . S
H838 C830 0.930 . S
H839 C831 0.929 . S
H840 C848 0.929 . S
H841 C850 0.930 . S
H842 C852 0.930 . S
H843 C855 0.929 . S
H844 C858 0.930 . S
H845 C860 0.960 . S
H846 C860 0.960 . S
H847 C860 0.960 . S
C848 H840 0.929 . S
C848 C849 1.377 . S
C848 C850 1.384 . S
C849 C848 1.377 . S
C849 C855 1.390 . S
C850 H841 0.930 . S
C850 C848 1.384 . S
C850 C851 1.372 . S
C851 C850 1.372 . S
C851 C852 1.400 . S
C851 C856 1.490 . S
C852 H842 0.930 . S
C852 C851 1.400 . S
C852 C855 1.386 . S
H853 C869 0.930 . S
H854 C870 0.931 . S
C855 H843 0.929 . S
C855 C849 1.390 . S
C855 C852 1.386 . S
C856 C851 1.490 . S
C856 C858 1.395 . S
C856 C859 1.403 . S
H857 C863 0.930 . S
C858 H844 0.930 . S
C858 C856 1.395 . S
C858 C861 1.403 1_545 S
C859 C856 1.403 . S
C859 C860 1.524 . S
C859 C863 1.400 1_545 S
C860 H845 0.960 . S
C860 H846 0.960 . S
C860 H847 0.960 . S
C860 C859 1.524 . S
C861 C858 1.403 1_565 S
C861 C862 1.392 . S
C861 C865 1.495 . S
C862 C861 1.392 . S
C862 C863 1.385 . S
C862 C864 1.478 . S
C863 H857 0.930 . S
C863 C859 1.400 1_565 S
C863 C862 1.385 . S
C864 C862 1.478 . S
C864 C866 1.381 . S
C864 C870 1.383 . S
C865 C861 1.495 . S
C865 H871 0.959 . S
C865 H872 0.961 . S
C865 H873 0.960 . S
C866 C864 1.381 . S
C866 C867 1.394 . S
C866 H874 0.930 . S
C867 C866 1.394 . S
C867 C868 1.383 . S
C867 H875 0.929 . S
C868 C867 1.383 . S
C868 C869 1.377 . S
C869 H853 0.930 . S
C869 C868 1.377 . S
C869 C870 1.379 . S
C870 H854 0.931 . S
C870 C864 1.383 . S
C870 C869 1.379 . S
H871 C865 0.959 . S
H872 C865 0.961 . S
H873 C865 0.960 . S
H874 C866 0.930 . S
H875 C867 0.929 . S
H876 C884 0.929 . S
H877 C886 0.930 . S
H878 C888 0.930 . S
H879 C891 0.929 . S
H880 C894 0.930 . S
H881 C896 0.960 . S
H882 C896 0.960 . S
H883 C896 0.960 . S
C884 H876 0.929 . S
C884 C885 1.377 . S
C884 C886 1.384 . S
C885 C884 1.377 . S
C885 C891 1.390 . S
C886 H877 0.930 . S
C886 C884 1.384 . S
C886 C887 1.372 . S
C887 C886 1.372 . S
C887 C888 1.400 . S
C887 C892 1.490 . S
C888 H878 0.930 . S
C888 C887 1.400 . S
C888 C891 1.386 . S
H889 C905 0.930 . S
H890 C906 0.931 . S
C891 H879 0.929 . S
C891 C885 1.390 . S
C891 C888 1.386 . S
C892 C887 1.490 . S
C892 C894 1.395 . S
C892 C895 1.403 . S
H893 C899 0.930 . S
C894 H880 0.930 . S
C894 C892 1.395 . S
C894 C897 1.403 . S
C895 C892 1.403 . S
C895 C896 1.524 . S
C895 C899 1.400 . S
C896 H881 0.960 . S
C896 H882 0.960 . S
C896 H883 0.960 . S
C896 C895 1.524 . S
C897 C894 1.403 . S
C897 C898 1.392 . S
C897 C901 1.495 . S
C898 C897 1.392 . S
C898 C899 1.385 . S
C898 C900 1.478 . S
C899 H893 0.930 . S
C899 C895 1.400 . S
C899 C898 1.385 . S
C900 C898 1.478 . S
C900 C902 1.381 . S
C900 C906 1.383 . S
C901 C897 1.495 . S
C901 H907 0.959 . S
C901 H908 0.961 . S
C901 H909 0.960 . S
C902 C900 1.381 . S
C902 C903 1.394 . S
C902 H910 0.930 . S
C903 C902 1.394 . S
C903 C904 1.383 . S
C903 H911 0.929 . S
C904 C903 1.383 . S
C904 C905 1.377 . S
C905 H889 0.930 . S
C905 C904 1.377 . S
C905 C906 1.379 . S
C906 H890 0.931 . S
C906 C900 1.383 . S
C906 C905 1.379 . S
H907 C901 0.959 . S
H908 C901 0.961 . S
H909 C901 0.960 . S
H910 C902 0.930 . S
H911 C903 0.929 . S
H912 C920 0.929 . S
H913 C922 0.930 . S
H914 C924 0.930 . S
H915 C927 0.929 . S
H916 C930 0.930 . S
H917 C932 0.960 . S
H918 C932 0.960 . S
H919 C932 0.960 . S
C920 H912 0.929 . S
C920 C921 1.377 . S
C920 C922 1.384 . S
C921 C920 1.377 . S
C921 C927 1.390 . S
C922 H913 0.930 . S
C922 C920 1.384 . S
C922 C923 1.372 . S
C923 C922 1.372 . S
C923 C924 1.400 . S
C923 C928 1.490 . S
C924 H914 0.930 . S
C924 C923 1.400 . S
C924 C927 1.386 . S
H925 C941 0.930 . S
H926 C942 0.931 . S
C927 H915 0.929 . S
C927 C921 1.390 . S
C927 C924 1.386 . S
C928 C923 1.490 . S
C928 C930 1.395 . S
C928 C931 1.403 . S
H929 C935 0.930 . S
C930 H916 0.930 . S
C930 C928 1.395 . S
C930 C933 1.403 . S
C931 C928 1.403 . S
C931 C932 1.524 . S
C931 C935 1.400 . S
C932 H917 0.960 . S
C932 H918 0.960 . S
C932 H919 0.960 . S
C932 C931 1.524 . S
C933 C930 1.403 . S
C933 C934 1.392 . S
C933 C937 1.495 . S
C934 C933 1.392 . S
C934 C935 1.385 . S
C934 C936 1.478 . S
C935 H929 0.930 . S
C935 C931 1.400 . S
C935 C934 1.385 . S
C936 C934 1.478 . S
C936 C938 1.381 . S
C936 C942 1.383 . S
C937 C933 1.495 . S
C937 H943 0.959 . S
C937 H944 0.961 . S
C937 H945 0.960 . S
C938 C936 1.381 . S
C938 C939 1.394 . S
C938 H946 0.930 . S
C939 C938 1.394 . S
C939 C940 1.383 . S
C939 H947 0.929 . S
C940 C939 1.383 . S
C940 C941 1.377 . S
C941 H925 0.930 . S
C941 C940 1.377 . S
C941 C942 1.379 . S
C942 H926 0.931 . S
C942 C936 1.383 . S
C942 C941 1.379 . S
H943 C937 0.959 . S
H944 C937 0.961 . S
H945 C937 0.960 . S
H946 C938 0.930 . S
H947 C939 0.929 . S
H948 C956 0.929 . S
H949 C958 0.930 . S
H950 C960 0.930 . S
H951 C963 0.929 . S
H952 C966 0.930 . S
H953 C968 0.960 . S
H954 C968 0.960 . S
H955 C968 0.960 . S
C956 H948 0.929 . S
C956 C957 1.377 . S
C956 C958 1.384 . S
C957 C956 1.377 . S
C957 C963 1.390 . S
C958 H949 0.930 . S
C958 C956 1.384 . S
C958 C959 1.372 . S
C959 C958 1.372 . S
C959 C960 1.400 . S
C959 C964 1.490 . S
C960 H950 0.930 . S
C960 C959 1.400 . S
C960 C963 1.386 . S
H961 C977 0.930 . S
H962 C978 0.931 . S
C963 H951 0.929 . S
C963 C957 1.390 . S
C963 C960 1.386 . S
C964 C959 1.490 . S
C964 C966 1.395 . S
C964 C967 1.403 . S
H965 C971 0.930 . S
C966 H952 0.930 . S
C966 C964 1.395 . S
C966 C969 1.403 . S
C967 C964 1.403 . S
C967 C968 1.524 . S
C967 C971 1.400 . S
C968 H953 0.960 . S
C968 H954 0.960 . S
C968 H955 0.960 . S
C968 C967 1.524 . S
C969 C966 1.403 . S
C969 C970 1.392 . S
C969 C973 1.495 . S
C970 C969 1.392 . S
C970 C971 1.385 . S
C970 C972 1.478 . S
C971 H965 0.930 . S
C971 C967 1.400 . S
C971 C970 1.385 . S
C972 C970 1.478 . S
C972 C974 1.381 . S
C972 C978 1.383 . S
C973 C969 1.495 . S
C973 H979 0.959 . S
C973 H980 0.961 . S
C973 H981 0.960 . S
C974 C972 1.381 . S
C974 C975 1.394 . S
C974 H982 0.930 . S
C975 C974 1.394 . S
C975 C976 1.383 . S
C975 H983 0.929 . S
C976 C975 1.383 . S
C976 C977 1.377 . S
C977 H961 0.930 . S
C977 C976 1.377 . S
C977 C978 1.379 . S
C978 H962 0.931 . S
C978 C972 1.383 . S
C978 C977 1.379 . S
H979 C973 0.959 . S
H980 C973 0.961 . S
H981 C973 0.960 . S
H982 C974 0.930 . S
H983 C975 0.929 . S
H984 C992 0.929 . S
H985 C994 0.930 . S
H986 C996 0.930 . S
H987 C999 0.929 . S
H988 C1002 0.930 . S
H989 C1004 0.960 . S
H990 C1004 0.960 . S
H991 C1004 0.960 . S
C992 H984 0.929 . S
C992 C993 1.377 . S
C992 C994 1.384 . S
C993 C992 1.377 . S
C993 C999 1.390 . S
C994 H985 0.930 . S
C994 C992 1.384 . S
C994 C995 1.372 . S
C995 C994 1.372 . S
C995 C996 1.400 . S
C995 C1000 1.490 . S
C996 H986 0.930 . S
C996 C995 1.400 . S
C996 C999 1.386 . S
H997 C1013 0.930 . S
H998 C1014 0.931 . S
C999 H987 0.929 . S
C999 C993 1.390 . S
C999 C996 1.386 . S
C1000 C995 1.490 . S
C1000 C1002 1.395 . S
C1000 C1003 1.403 . S
H1001 C1007 0.930 . S
C1002 H988 0.930 . S
C1002 C1000 1.395 . S
C1002 C1005 1.403 . S
C1003 C1000 1.403 . S
C1003 C1004 1.524 . S
C1003 C1007 1.400 . S
C1004 H989 0.960 . S
C1004 H990 0.960 . S
C1004 H991 0.960 . S
C1004 C1003 1.524 . S
C1005 C1002 1.403 . S
C1005 C1006 1.392 . S
C1005 C1009 1.495 . S
C1006 C1005 1.392 . S
C1006 C1007 1.385 . S
C1006 C1008 1.478 . S
C1007 H1001 0.930 . S
C1007 C1003 1.400 . S
C1007 C1006 1.385 . S
C1008 C1006 1.478 . S
C1008 C1010 1.381 . S
C1008 C1014 1.383 . S
C1009 C1005 1.495 . S
C1009 H1015 0.959 . S
C1009 H1016 0.961 . S
C1009 H1017 0.960 . S
C1010 C1008 1.381 . S
C1010 C1011 1.394 . S
C1010 H1018 0.930 . S
C1011 C1010 1.394 . S
C1011 C1012 1.383 . S
C1011 H1019 0.929 . S
C1012 C1011 1.383 . S
C1012 C1013 1.377 . S
C1013 H997 0.930 . S
C1013 C1012 1.377 . S
C1013 C1014 1.379 . S
C1014 H998 0.931 . S
C1014 C1008 1.383 . S
C1014 C1013 1.379 . S
H1015 C1009 0.959 . S
H1016 C1009 0.961 . S
H1017 C1009 0.960 . S
H1018 C1010 0.930 . S
H1019 C1011 0.929 . S
H1020 C1028 0.929 . S
H1021 C1030 0.930 . S
H1022 C1032 0.930 . S
H1023 C1035 0.929 . S
H1024 C1038 0.930 . S
H1025 C1040 0.960 . S
H1026 C1040 0.960 . S
H1027 C1040 0.960 . S
C1028 H1020 0.929 . S
C1028 C1029 1.377 . S
C1028 C1030 1.384 . S
C1029 C1028 1.377 . S
C1029 C1035 1.390 . S
C1030 H1021 0.930 . S
C1030 C1028 1.384 . S
C1030 C1031 1.372 . S
C1031 C1030 1.372 . S
C1031 C1032 1.400 . S
C1031 C1036 1.490 . S
C1032 H1022 0.930 . S
C1032 C1031 1.400 . S
C1032 C1035 1.386 . S
H1033 C1049 0.930 . S
H1034 C1050 0.931 . S
C1035 H1023 0.929 . S
C1035 C1029 1.390 . S
C1035 C1032 1.386 . S
C1036 C1031 1.490 . S
C1036 C1038 1.395 . S
C1036 C1039 1.403 . S
H1037 C1043 0.930 . S
C1038 H1024 0.930 . S
C1038 C1036 1.395 . S
C1038 C1041 1.403 . S
C1039 C1036 1.403 . S
C1039 C1040 1.524 . S
C1039 C1043 1.400 . S
C1040 H1025 0.960 . S
C1040 H1026 0.960 . S
C1040 H1027 0.960 . S
C1040 C1039 1.524 . S
C1041 C1038 1.403 . S
C1041 C1042 1.392 . S
C1041 C1045 1.495 . S
C1042 C1041 1.392 . S
C1042 C1043 1.385 . S
C1042 C1044 1.478 . S
C1043 H1037 0.930 . S
C1043 C1039 1.400 . S
C1043 C1042 1.385 . S
C1044 C1042 1.478 . S
C1044 C1046 1.381 . S
C1044 C1050 1.383 . S
C1045 C1041 1.495 . S
C1045 H1051 0.959 . S
C1045 H1052 0.961 . S
C1045 H1053 0.960 . S
C1046 C1044 1.381 . S
C1046 C1047 1.394 . S
C1046 H1054 0.930 . S
C1047 C1046 1.394 . S
C1047 C1048 1.383 . S
C1047 H1055 0.929 . S
C1048 C1047 1.383 . S
C1048 C1049 1.377 . S
C1049 H1033 0.930 . S
C1049 C1048 1.377 . S
C1049 C1050 1.379 . S
C1050 H1034 0.931 . S
C1050 C1044 1.383 . S
C1050 C1049 1.379 . S
H1051 C1045 0.959 . S
H1052 C1045 0.961 . S
H1053 C1045 0.960 . S
H1054 C1046 0.930 . S
H1055 C1047 0.929 . S
H1056 C1064 0.929 . S
H1057 C1066 0.930 . S
H1058 C1068 0.930 . S
H1059 C1071 0.929 . S
H1060 C1074 0.930 . S
H1061 C1076 0.960 . S
H1062 C1076 0.960 . S
H1063 C1076 0.960 . S
C1064 H1056 0.929 . S
C1064 C1065 1.377 . S
C1064 C1066 1.384 . S
C1065 C1064 1.377 . S
C1065 C1071 1.390 . S
C1066 H1057 0.930 . S
C1066 C1064 1.384 . S
C1066 C1067 1.372 . S
C1067 C1066 1.372 . S
C1067 C1068 1.400 . S
C1067 C1072 1.490 . S
C1068 H1058 0.930 . S
C1068 C1067 1.400 . S
C1068 C1071 1.386 . S
H1069 C1085 0.930 . S
H1070 C1086 0.931 . S
C1071 H1059 0.929 . S
C1071 C1065 1.390 . S
C1071 C1068 1.386 . S
C1072 C1067 1.490 . S
C1072 C1074 1.395 . S
C1072 C1075 1.403 . S
H1073 C1079 0.930 . S
C1074 H1060 0.930 . S
C1074 C1072 1.395 . S
C1074 C1077 1.403 . S
C1075 C1072 1.403 . S
C1075 C1076 1.524 . S
C1075 C1079 1.400 . S
C1076 H1061 0.960 . S
C1076 H1062 0.960 . S
C1076 H1063 0.960 . S
C1076 C1075 1.524 . S
C1077 C1074 1.403 . S
C1077 C1078 1.392 . S
C1077 C1081 1.495 . S
C1078 C1077 1.392 . S
C1078 C1079 1.385 . S
C1078 C1080 1.478 . S
C1079 H1073 0.930 . S
C1079 C1075 1.400 . S
C1079 C1078 1.385 . S
C1080 C1078 1.478 . S
C1080 C1082 1.381 . S
C1080 C1086 1.383 . S
C1081 C1077 1.495 . S
C1081 H1087 0.959 . S
C1081 H1088 0.961 . S
C1081 H1089 0.960 . S
C1082 C1080 1.381 . S
C1082 C1083 1.394 . S
C1082 H1090 0.930 . S
C1083 C1082 1.394 . S
C1083 C1084 1.383 . S
C1083 H1091 0.929 . S
C1084 C1083 1.383 . S
C1084 C1085 1.377 . S
C1085 H1069 0.930 . S
C1085 C1084 1.377 . S
C1085 C1086 1.379 . S
C1086 H1070 0.931 . S
C1086 C1080 1.383 . S
C1086 C1085 1.379 . S
H1087 C1081 0.959 . S
H1088 C1081 0.961 . S
H1089 C1081 0.960 . S
H1090 C1082 0.930 . S
H1091 C1083 0.929 . S
H1092 C1100 0.929 . S
H1093 C1102 0.930 . S
H1094 C1104 0.930 . S
H1095 C1107 0.929 . S
H1096 C1110 0.930 . S
H1097 C1112 0.960 . S
H1098 C1112 0.960 . S
H1099 C1112 0.960 . S
C1100 H1092 0.929 . S
C1100 C1101 1.377 . S
C1100 C1102 1.384 . S
C1101 C1100 1.377 . S
C1101 C1107 1.390 . S
C1102 H1093 0.930 . S
C1102 C1100 1.384 . S
C1102 C1103 1.372 . S
C1103 C1102 1.372 . S
C1103 C1104 1.400 . S
C1103 C1108 1.490 . S
C1104 H1094 0.930 . S
C1104 C1103 1.400 . S
C1104 C1107 1.386 . S
H1105 C1121 0.930 . S
H1106 C1122 0.931 . S
C1107 H1095 0.929 . S
C1107 C1101 1.390 . S
C1107 C1104 1.386 . S
C1108 C1103 1.490 . S
C1108 C1110 1.395 . S
C1108 C1111 1.403 . S
H1109 C1115 0.930 . S
C1110 H1096 0.930 . S
C1110 C1108 1.395 . S
C1110 C1113 1.403 . S
C1111 C1108 1.403 . S
C1111 C1112 1.524 . S
C1111 C1115 1.400 . S
C1112 H1097 0.960 . S
C1112 H1098 0.960 . S
C1112 H1099 0.960 . S
C1112 C1111 1.524 . S
C1113 C1110 1.403 . S
C1113 C1114 1.392 . S
C1113 C1117 1.495 . S
C1114 C1113 1.392 . S
C1114 C1115 1.385 . S
C1114 C1116 1.478 . S
C1115 H1109 0.930 . S
C1115 C1111 1.400 . S
C1115 C1114 1.385 . S
C1116 C1114 1.478 . S
C1116 C1118 1.381 . S
C1116 C1122 1.383 . S
C1117 C1113 1.495 . S
C1117 H1123 0.959 . S
C1117 H1124 0.961 . S
C1117 H1125 0.960 . S
C1118 C1116 1.381 . S
C1118 C1119 1.394 . S
C1118 H1126 0.930 . S
C1119 C1118 1.394 . S
C1119 C1120 1.383 . S
C1119 H1127 0.929 . S
C1120 C1119 1.383 . S
C1120 C1121 1.377 . S
C1121 H1105 0.930 . S
C1121 C1120 1.377 . S
C1121 C1122 1.379 . S
C1122 H1106 0.931 . S
C1122 C1116 1.383 . S
C1122 C1121 1.379 . S
H1123 C1117 0.959 . S
H1124 C1117 0.961 . S
H1125 C1117 0.960 . S
H1126 C1118 0.930 . S
H1127 C1119 0.929 . S
H1128 C1136 0.929 . S
H1129 C1138 0.930 . S
H1130 C1140 0.930 . S
H1131 C1143 0.929 . S
H1132 C1146 0.930 . S
H1133 C1148 0.960 . S
H1134 C1148 0.960 . S
H1135 C1148 0.960 . S
C1136 H1128 0.929 . S
C1136 C1137 1.377 . S
C1136 C1138 1.384 . S
C1137 C1136 1.377 . S
C1137 C1143 1.390 . S
C1138 H1129 0.930 . S
C1138 C1136 1.384 . S
C1138 C1139 1.372 . S
C1139 C1138 1.372 . S
C1139 C1140 1.400 . S
C1139 C1144 1.490 . S
C1140 H1130 0.930 . S
C1140 C1139 1.400 . S
C1140 C1143 1.386 . S
H1141 C1157 0.930 . S
H1142 C1158 0.931 . S
C1143 H1131 0.929 . S
C1143 C1137 1.390 . S
C1143 C1140 1.386 . S
C1144 C1139 1.490 . S
C1144 C1146 1.395 . S
C1144 C1147 1.403 . S
H1145 C1151 0.930 . S
C1146 H1132 0.930 . S
C1146 C1144 1.395 . S
C1146 C1149 1.403 . S
C1147 C1144 1.403 . S
C1147 C1148 1.524 . S
C1147 C1151 1.400 . S
C1148 H1133 0.960 . S
C1148 H1134 0.960 . S
C1148 H1135 0.960 . S
C1148 C1147 1.524 . S
C1149 C1146 1.403 . S
C1149 C1150 1.392 . S
C1149 C1153 1.495 . S
C1150 C1149 1.392 . S
C1150 C1151 1.385 . S
C1150 C1152 1.478 . S
C1151 H1145 0.930 . S
C1151 C1147 1.400 . S
C1151 C1150 1.385 . S
C1152 C1150 1.478 . S
C1152 C1154 1.381 . S
C1152 C1158 1.383 . S
C1153 C1149 1.495 . S
C1153 H1159 0.959 . S
C1153 H1160 0.961 . S
C1153 H1161 0.960 . S
C1154 C1152 1.381 . S
C1154 C1155 1.394 . S
C1154 H1162 0.930 . S
C1155 C1154 1.394 . S
C1155 C1156 1.383 . S
C1155 H1163 0.929 . S
C1156 C1155 1.383 . S
C1156 C1157 1.377 . S
C1157 H1141 0.930 . S
C1157 C1156 1.377 . S
C1157 C1158 1.379 . S
C1158 H1142 0.931 . S
C1158 C1152 1.383 . S
C1158 C1157 1.379 . S
H1159 C1153 0.959 . S
H1160 C1153 0.961 . S
H1161 C1153 0.960 . S
H1162 C1154 0.930 . S
H1163 C1155 0.929 . S
H1164 C1172 0.929 . S
H1165 C1174 0.930 . S
H1166 C1176 0.930 . S
H1167 C1179 0.929 . S
H1168 C1182 0.930 . S
H1169 C1184 0.960 . S
H1170 C1184 0.960 . S
H1171 C1184 0.960 . S
C1172 H1164 0.929 . S
C1172 C1173 1.377 . S
C1172 C1174 1.384 . S
C1173 C1172 1.377 . S
C1173 C1179 1.390 . S
C1174 H1165 0.930 . S
C1174 C1172 1.384 . S
C1174 C1175 1.372 . S
C1175 C1174 1.372 . S
C1175 C1176 1.400 . S
C1175 C1180 1.490 . S
C1176 H1166 0.930 . S
C1176 C1175 1.400 . S
C1176 C1179 1.386 . S
H1177 C1193 0.930 . S
H1178 C1194 0.931 . S
C1179 H1167 0.929 . S
C1179 C1173 1.390 . S
C1179 C1176 1.386 . S
C1180 C1175 1.490 . S
C1180 C1182 1.395 . S
C1180 C1183 1.403 . S
H1181 C1187 0.930 . S
C1182 H1168 0.930 . S
C1182 C1180 1.395 . S
C1182 C1185 1.403 . S
C1183 C1180 1.403 . S
C1183 C1184 1.524 . S
C1183 C1187 1.400 . S
C1184 H1169 0.960 . S
C1184 H1170 0.960 . S
C1184 H1171 0.960 . S
C1184 C1183 1.524 . S
C1185 C1182 1.403 . S
C1185 C1186 1.392 . S
C1185 C1189 1.495 . S
C1186 C1185 1.392 . S
C1186 C1187 1.385 . S
C1186 C1188 1.478 . S
C1187 H1181 0.930 . S
C1187 C1183 1.400 . S
C1187 C1186 1.385 . S
C1188 C1186 1.478 . S
C1188 C1190 1.381 . S
C1188 C1194 1.383 . S
C1189 C1185 1.495 . S
C1189 H1195 0.959 . S
C1189 H1196 0.961 . S
C1189 H1197 0.960 . S
C1190 C1188 1.381 . S
C1190 C1191 1.394 . S
C1190 H1198 0.930 . S
C1191 C1190 1.394 . S
C1191 C1192 1.383 . S
C1191 H1199 0.929 . S
C1192 C1191 1.383 . S
C1192 C1193 1.377 . S
C1193 H1177 0.930 . S
C1193 C1192 1.377 . S
C1193 C1194 1.379 . S
C1194 H1178 0.931 . S
C1194 C1188 1.383 . S
C1194 C1193 1.379 . S
H1195 C1189 0.959 . S
H1196 C1189 0.961 . S
H1197 C1189 0.960 . S
H1198 C1190 0.930 . S
H1199 C1191 0.929 . S
H1200 C1208 0.929 . S
H1201 C1210 0.930 . S
H1202 C1212 0.930 . S
H1203 C1215 0.929 . S
H1204 C1218 0.930 . S
H1205 C1220 0.960 . S
H1206 C1220 0.960 . S
H1207 C1220 0.960 . S
C1208 H1200 0.929 . S
C1208 C1209 1.377 . S
C1208 C1210 1.384 . S
C1209 C1208 1.377 . S
C1209 C1215 1.390 . S
C1210 H1201 0.930 . S
C1210 C1208 1.384 . S
C1210 C1211 1.372 . S
C1211 C1210 1.372 . S
C1211 C1212 1.400 . S
C1211 C1216 1.490 . S
C1212 H1202 0.930 . S
C1212 C1211 1.400 . S
C1212 C1215 1.386 . S
H1213 C1229 0.930 . S
H1214 C1230 0.931 . S
C1215 H1203 0.929 . S
C1215 C1209 1.390 . S
C1215 C1212 1.386 . S
C1216 C1211 1.490 . S
C1216 C1218 1.395 . S
C1216 C1219 1.403 . S
H1217 C1223 0.930 . S
C1218 H1204 0.930 . S
C1218 C1216 1.395 . S
C1218 C1221 1.403 . S
C1219 C1216 1.403 . S
C1219 C1220 1.524 . S
C1219 C1223 1.400 . S
C1220 H1205 0.960 . S
C1220 H1206 0.960 . S
C1220 H1207 0.960 . S
C1220 C1219 1.524 . S
C1221 C1218 1.403 . S
C1221 C1222 1.392 . S
C1221 C1225 1.495 . S
C1222 C1221 1.392 . S
C1222 C1223 1.385 . S
C1222 C1224 1.478 . S
C1223 H1217 0.930 . S
C1223 C1219 1.400 . S
C1223 C1222 1.385 . S
C1224 C1222 1.478 . S
C1224 C1226 1.381 . S
C1224 C1230 1.383 . S
C1225 C1221 1.495 . S
C1225 H1231 0.959 . S
C1225 H1232 0.961 . S
C1225 H1233 0.960 . S
C1226 C1224 1.381 . S
C1226 C1227 1.394 . S
C1226 H1234 0.930 . S
C1227 C1226 1.394 . S
C1227 C1228 1.383 . S
C1227 H1235 0.929 . S
C1228 C1227 1.383 . S
C1228 C1229 1.377 . S
C1229 H1213 0.930 . S
C1229 C1228 1.377 . S
C1229 C1230 1.379 . S
C1230 H1214 0.931 . S
C1230 C1224 1.383 . S
C1230 C1229 1.379 . S
H1231 C1225 0.959 . S
H1232 C1225 0.961 . S
H1233 C1225 0.960 . S
H1234 C1226 0.930 . S
H1235 C1227 0.929 . S
H1236 C1244 0.929 . S
H1237 C1246 0.930 . S
H1238 C1248 0.930 . S
H1239 C1251 0.929 . S
H1240 C1254 0.930 . S
H1241 C1256 0.960 . S
H1242 C1256 0.960 . S
H1243 C1256 0.960 . S
C1244 H1236 0.929 . S
C1244 C1245 1.377 . S
C1244 C1246 1.384 . S
C1245 C1244 1.377 . S
C1245 C1251 1.390 . S
C1246 H1237 0.930 . S
C1246 C1244 1.384 . S
C1246 C1247 1.372 . S
C1247 C1246 1.372 . S
C1247 C1248 1.400 . S
C1247 C1252 1.490 . S
C1248 H1238 0.930 . S
C1248 C1247 1.400 . S
C1248 C1251 1.386 . S
H1249 C1265 0.930 . S
H1250 C1266 0.931 . S
C1251 H1239 0.929 . S
C1251 C1245 1.390 . S
C1251 C1248 1.386 . S
C1252 C1247 1.490 . S
C1252 C1254 1.395 . S
C1252 C1255 1.403 . S
H1253 C1259 0.930 . S
C1254 H1240 0.930 . S
C1254 C1252 1.395 . S
C1254 C1257 1.403 . S
C1255 C1252 1.403 . S
C1255 C1256 1.524 . S
C1255 C1259 1.400 . S
C1256 H1241 0.960 . S
C1256 H1242 0.960 . S
C1256 H1243 0.960 . S
C1256 C1255 1.524 . S
C1257 C1254 1.403 . S
C1257 C1258 1.392 . S
C1257 C1261 1.495 . S
C1258 C1257 1.392 . S
C1258 C1259 1.385 . S
C1258 C1260 1.478 . S
C1259 H1253 0.930 . S
C1259 C1255 1.400 . S
C1259 C1258 1.385 . S
C1260 C1258 1.478 . S
C1260 C1262 1.381 . S
C1260 C1266 1.383 . S
C1261 C1257 1.495 . S
C1261 H1267 0.959 . S
C1261 H1268 0.961 . S
C1261 H1269 0.960 . S
C1262 C1260 1.381 . S
C1262 C1263 1.394 . S
C1262 H1270 0.930 . S
C1263 C1262 1.394 . S
C1263 C1264 1.383 . S
C1263 H1271 0.929 . S
C1264 C1263 1.383 . S
C1264 C1265 1.377 . S
C1265 H1249 0.930 . S
C1265 C1264 1.377 . S
C1265 C1266 1.379 . S
C1266 H1250 0.931 . S
C1266 C1260 1.383 . S
C1266 C1265 1.379 . S
H1267 C1261 0.959 . S
H1268 C1261 0.961 . S
H1269 C1261 0.960 . S
H1270 C1262 0.930 . S
H1271 C1263 0.929 . S
H1272 C1280 0.929 . S
H1273 C1282 0.930 . S
H1274 C1284 0.930 . S
H1275 C1287 0.929 . S
H1276 C1290 0.930 . S
H1277 C1292 0.960 . S
H1278 C1292 0.960 . S
H1279 C1292 0.960 . S
C1280 H1272 0.929 . S
C1280 C1281 1.377 . S
C1280 C1282 1.384 . S
C1281 C1280 1.377 . S
C1281 C1287 1.390 . S
C1282 H1273 0.930 . S
C1282 C1280 1.384 . S
C1282 C1283 1.372 . S
C1283 C1282 1.372 . S
C1283 C1284 1.400 . S
C1283 C1288 1.490 . S
C1284 H1274 0.930 . S
C1284 C1283 1.400 . S
C1284 C1287 1.386 . S
H1285 C1301 0.930 . S
H1286 C1302 0.931 . S
C1287 H1275 0.929 . S
C1287 C1281 1.390 . S
C1287 C1284 1.386 . S
C1288 C1283 1.490 . S
C1288 C1290 1.395 . S
C1288 C1291 1.403 . S
H1289 C1295 0.930 . S
C1290 H1276 0.930 . S
C1290 C1288 1.395 . S
C1290 C1293 1.403 . S
C1291 C1288 1.403 . S
C1291 C1292 1.524 . S
C1291 C1295 1.400 . S
C1292 H1277 0.960 . S
C1292 H1278 0.960 . S
C1292 H1279 0.960 . S
C1292 C1291 1.524 . S
C1293 C1290 1.403 . S
C1293 C1294 1.392 . S
C1293 C1297 1.495 . S
C1294 C1293 1.392 . S
C1294 C1295 1.385 . S
C1294 C1296 1.478 . S
C1295 H1289 0.930 . S
C1295 C1291 1.400 . S
C1295 C1294 1.385 . S
C1296 C1294 1.478 . S
C1296 C1298 1.381 . S
C1296 C1302 1.383 . S
C1297 C1293 1.495 . S
C1297 H1303 0.959 . S
C1297 H1304 0.961 . S
C1297 H1305 0.960 . S
C1298 C1296 1.381 . S
C1298 C1299 1.394 . S
C1298 H1306 0.930 . S
C1299 C1298 1.394 . S
C1299 C1300 1.383 . S
C1299 H1307 0.929 . S
C1300 C1299 1.383 . S
C1300 C1301 1.377 . S
C1301 H1285 0.930 . S
C1301 C1300 1.377 . S
C1301 C1302 1.379 . S
C1302 H1286 0.931 . S
C1302 C1296 1.383 . S
C1302 C1301 1.379 . S
H1303 C1297 0.959 . S
H1304 C1297 0.961 . S
H1305 C1297 0.960 . S
H1306 C1298 0.930 . S
H1307 C1299 0.929 . S
H1308 C1316 0.929 . S
H1309 C1318 0.930 . S
H1310 C1320 0.930 . S
H1311 C1323 0.929 . S
H1312 C1326 0.930 . S
H1313 C1328 0.960 . S
H1314 C1328 0.960 . S
H1315 C1328 0.960 . S
C1316 H1308 0.929 . S
C1316 C1317 1.377 . S
C1316 C1318 1.384 . S
C1317 C1316 1.377 . S
C1317 C1323 1.390 . S
C1318 H1309 0.930 . S
C1318 C1316 1.384 . S
C1318 C1319 1.372 . S
C1319 C1318 1.372 . S
C1319 C1320 1.400 . S
C1319 C1324 1.490 . S
C1320 H1310 0.930 . S
C1320 C1319 1.400 . S
C1320 C1323 1.386 . S
H1321 C1337 0.930 . S
H1322 C1338 0.931 . S
C1323 H1311 0.929 . S
C1323 C1317 1.390 . S
C1323 C1320 1.386 . S
C1324 C1319 1.490 . S
C1324 C1326 1.395 . S
C1324 C1327 1.403 . S
H1325 C1331 0.930 . S
C1326 H1312 0.930 . S
C1326 C1324 1.395 . S
C1326 C1329 1.403 . S
C1327 C1324 1.403 . S
C1327 C1328 1.524 . S
C1327 C1331 1.400 . S
C1328 H1313 0.960 . S
C1328 H1314 0.960 . S
C1328 H1315 0.960 . S
C1328 C1327 1.524 . S
C1329 C1326 1.403 . S
C1329 C1330 1.392 . S
C1329 C1333 1.495 . S
C1330 C1329 1.392 . S
C1330 C1331 1.385 . S
C1330 C1332 1.478 . S
C1331 H1325 0.930 . S
C1331 C1327 1.400 . S
C1331 C1330 1.385 . S
C1332 C1330 1.478 . S
C1332 C1334 1.381 . S
C1332 C1338 1.383 . S
C1333 C1329 1.495 . S
C1333 H1339 0.959 . S
C1333 H1340 0.961 . S
C1333 H1341 0.960 . S
C1334 C1332 1.381 . S
C1334 C1335 1.394 . S
C1334 H1342 0.930 . S
C1335 C1334 1.394 . S
C1335 C1336 1.383 . S
C1335 H1343 0.929 . S
C1336 C1335 1.383 . S
C1336 C1337 1.377 . S
C1337 H1321 0.930 . S
C1337 C1336 1.377 . S
C1337 C1338 1.379 . S
C1338 H1322 0.931 . S
C1338 C1332 1.383 . S
C1338 C1337 1.379 . S
H1339 C1333 0.959 . S
H1340 C1333 0.961 . S
H1341 C1333 0.960 . S
H1342 C1334 0.930 . S
H1343 C1335 0.929 . S
H1344 C1352 0.929 . S
H1345 C1354 0.930 . S
H1346 C1356 0.930 . S
H1347 C1359 0.929 . S
H1348 C1362 0.930 . S
H1349 C1364 0.960 . S
H1350 C1364 0.960 . S
H1351 C1364 0.960 . S
C1352 H1344 0.929 . S
C1352 C1353 1.377 . S
C1352 C1354 1.384 . S
C1353 C1352 1.377 . S
C1353 C1359 1.390 . S
C1354 H1345 0.930 . S
C1354 C1352 1.384 . S
C1354 C1355 1.372 . S
C1355 C1354 1.372 . S
C1355 C1356 1.400 . S
C1355 C1360 1.490 . S
C1356 H1346 0.930 . S
C1356 C1355 1.400 . S
C1356 C1359 1.386 . S
H1357 C1373 0.930 . S
H1358 C1374 0.931 . S
C1359 H1347 0.929 . S
C1359 C1353 1.390 . S
C1359 C1356 1.386 . S
C1360 C1355 1.490 . S
C1360 C1362 1.395 . S
C1360 C1363 1.403 . S
H1361 C1367 0.930 . S
C1362 H1348 0.930 . S
C1362 C1360 1.395 . S
C1362 C1365 1.403 . S
C1363 C1360 1.403 . S
C1363 C1364 1.524 . S
C1363 C1367 1.400 . S
C1364 H1349 0.960 . S
C1364 H1350 0.960 . S
C1364 H1351 0.960 . S
C1364 C1363 1.524 . S
C1365 C1362 1.403 . S
C1365 C1366 1.392 . S
C1365 C1369 1.495 . S
C1366 C1365 1.392 . S
C1366 C1367 1.385 . S
C1366 C1368 1.478 . S
C1367 H1361 0.930 . S
C1367 C1363 1.400 . S
C1367 C1366 1.385 . S
C1368 C1366 1.478 . S
C1368 C1370 1.381 . S
C1368 C1374 1.383 . S
C1369 C1365 1.495 . S
C1369 H1375 0.959 . S
C1369 H1376 0.961 . S
C1369 H1377 0.960 . S
C1370 C1368 1.381 . S
C1370 C1371 1.394 . S
C1370 H1378 0.930 . S
C1371 C1370 1.394 . S
C1371 C1372 1.383 . S
C1371 H1379 0.929 . S
C1372 C1371 1.383 . S
C1372 C1373 1.377 . S
C1373 H1357 0.930 . S
C1373 C1372 1.377 . S
C1373 C1374 1.379 . S
C1374 H1358 0.931 . S
C1374 C1368 1.383 . S
C1374 C1373 1.379 . S
H1375 C1369 0.959 . S
H1376 C1369 0.961 . S
H1377 C1369 0.960 . S
H1378 C1370 0.930 . S
H1379 C1371 0.929 . S
H1380 C1388 0.929 . S
H1381 C1390 0.930 . S
H1382 C1392 0.930 . S
H1383 C1395 0.929 . S
H1384 C1398 0.930 . S
H1385 C1400 0.960 . S
H1386 C1400 0.960 . S
H1387 C1400 0.960 . S
C1388 H1380 0.929 . S
C1388 C1389 1.377 . S
C1388 C1390 1.384 . S
C1389 C1388 1.377 . S
C1389 C1395 1.390 . S
C1390 H1381 0.930 . S
C1390 C1388 1.384 . S
C1390 C1391 1.372 . S
C1391 C1390 1.372 . S
C1391 C1392 1.400 . S
C1391 C1396 1.490 . S
C1392 H1382 0.930 . S
C1392 C1391 1.400 . S
C1392 C1395 1.386 . S
H1393 C1409 0.930 . S
H1394 C1410 0.931 . S
C1395 H1383 0.929 . S
C1395 C1389 1.390 . S
C1395 C1392 1.386 . S
C1396 C1391 1.490 . S
C1396 C1398 1.395 . S
C1396 C1399 1.403 . S
H1397 C1403 0.930 . S
C1398 H1384 0.930 . S
C1398 C1396 1.395 . S
C1398 C1401 1.403 . S
C1399 C1396 1.403 . S
C1399 C1400 1.524 . S
C1399 C1403 1.400 . S
C1400 H1385 0.960 . S
C1400 H1386 0.960 . S
C1400 H1387 0.960 . S
C1400 C1399 1.524 . S
C1401 C1398 1.403 . S
C1401 C1402 1.392 . S
C1401 C1405 1.495 . S
C1402 C1401 1.392 . S
C1402 C1403 1.385 . S
C1402 C1404 1.478 . S
C1403 H1397 0.930 . S
C1403 C1399 1.400 . S
C1403 C1402 1.385 . S
C1404 C1402 1.478 . S
C1404 C1406 1.381 . S
C1404 C1410 1.383 . S
C1405 C1401 1.495 . S
C1405 H1411 0.959 . S
C1405 H1412 0.961 . S
C1405 H1413 0.960 . S
C1406 C1404 1.381 . S
C1406 C1407 1.394 . S
C1406 H1414 0.930 . S
C1407 C1406 1.394 . S
C1407 C1408 1.383 . S
C1407 H1415 0.929 . S
C1408 C1407 1.383 . S
C1408 C1409 1.377 . S
C1409 H1393 0.930 . S
C1409 C1408 1.377 . S
C1409 C1410 1.379 . S
C1410 H1394 0.931 . S
C1410 C1404 1.383 . S
C1410 C1409 1.379 . S
H1411 C1405 0.959 . S
H1412 C1405 0.961 . S
H1413 C1405 0.960 . S
H1414 C1406 0.930 . S
H1415 C1407 0.929 . S
H1416 C1424 0.929 . S
H1417 C1426 0.930 . S
H1418 C1428 0.930 . S
H1419 C1431 0.929 . S
H1420 C1434 0.930 . S
H1421 C1436 0.960 . S
H1422 C1436 0.960 . S
H1423 C1436 0.960 . S
C1424 H1416 0.929 . S
C1424 C1425 1.377 . S
C1424 C1426 1.384 . S
C1425 C1424 1.377 . S
C1425 C1431 1.390 . S
C1426 H1417 0.930 . S
C1426 C1424 1.384 . S
C1426 C1427 1.372 . S
C1427 C1426 1.372 . S
C1427 C1428 1.400 . S
C1427 C1432 1.490 . S
C1428 H1418 0.930 . S
C1428 C1427 1.400 . S
C1428 C1431 1.386 . S
H1429 C1445 0.930 . S
H1430 C1446 0.931 . S
C1431 H1419 0.929 . S
C1431 C1425 1.390 . S
C1431 C1428 1.386 . S
C1432 C1427 1.490 . S
C1432 C1434 1.395 . S
C1432 C1435 1.403 . S
H1433 C1439 0.930 . S
C1434 H1420 0.930 . S
C1434 C1432 1.395 . S
C1434 C1437 1.403 . S
C1435 C1432 1.403 . S
C1435 C1436 1.524 . S
C1435 C1439 1.400 . S
C1436 H1421 0.960 . S
C1436 H1422 0.960 . S
C1436 H1423 0.960 . S
C1436 C1435 1.524 . S
C1437 C1434 1.403 . S
C1437 C1438 1.392 . S
C1437 C1441 1.495 . S
C1438 C1437 1.392 . S
C1438 C1439 1.385 . S
C1438 C1440 1.478 . S
C1439 H1433 0.930 . S
C1439 C1435 1.400 . S
C1439 C1438 1.385 . S
C1440 C1438 1.478 . S
C1440 C1442 1.381 . S
C1440 C1446 1.383 . S
C1441 C1437 1.495 . S
C1441 H1447 0.959 . S
C1441 H1448 0.961 . S
C1441 H1449 0.960 . S
C1442 C1440 1.381 . S
C1442 C1443 1.394 . S
C1442 H1450 0.930 . S
C1443 C1442 1.394 . S
C1443 C1444 1.383 . S
C1443 H1451 0.929 . S
C1444 C1443 1.383 . S
C1444 C1445 1.377 . S
C1445 H1429 0.930 . S
C1445 C1444 1.377 . S
C1445 C1446 1.379 . S
C1446 H1430 0.931 . S
C1446 C1440 1.383 . S
C1446 C1445 1.379 . S
H1447 C1441 0.959 . S
H1448 C1441 0.961 . S
H1449 C1441 0.960 . S
H1450 C1442 0.930 . S
H1451 C1443 0.929 . S
H1452 C1460 0.929 . S
H1453 C1462 0.930 . S
H1454 C1464 0.930 . S
H1455 C1467 0.929 . S
H1456 C1470 0.930 . S
H1457 C1472 0.960 . S
H1458 C1472 0.960 . S
H1459 C1472 0.960 . S
C1460 H1452 0.929 . S
C1460 C1461 1.377 . S
C1460 C1462 1.384 . S
C1461 C1460 1.377 . S
C1461 C1467 1.390 . S
C1462 H1453 0.930 . S
C1462 C1460 1.384 . S
C1462 C1463 1.372 . S
C1463 C1462 1.372 . S
C1463 C1464 1.400 . S
C1463 C1468 1.490 . S
C1464 H1454 0.930 . S
C1464 C1463 1.400 . S
C1464 C1467 1.386 . S
H1465 C1481 0.930 . S
H1466 C1482 0.931 . S
C1467 H1455 0.929 . S
C1467 C1461 1.390 . S
C1467 C1464 1.386 . S
C1468 C1463 1.490 . S
C1468 C1470 1.395 . S
C1468 C1471 1.403 . S
H1469 C1475 0.930 . S
C1470 H1456 0.930 . S
C1470 C1468 1.395 . S
C1470 C1473 1.403 . S
C1471 C1468 1.403 . S
C1471 C1472 1.524 . S
C1471 C1475 1.400 . S
C1472 H1457 0.960 . S
C1472 H1458 0.960 . S
C1472 H1459 0.960 . S
C1472 C1471 1.524 . S
C1473 C1470 1.403 . S
C1473 C1474 1.392 . S
C1473 C1477 1.495 . S
C1474 C1473 1.392 . S
C1474 C1475 1.385 . S
C1474 C1476 1.478 . S
C1475 H1469 0.930 . S
C1475 C1471 1.400 . S
C1475 C1474 1.385 . S
C1476 C1474 1.478 . S
C1476 C1478 1.381 . S
C1476 C1482 1.383 . S
C1477 C1473 1.495 . S
C1477 H1483 0.959 . S
C1477 H1484 0.961 . S
C1477 H1485 0.960 . S
C1478 C1476 1.381 . S
C1478 C1479 1.394 . S
C1478 H1486 0.930 . S
C1479 C1478 1.394 . S
C1479 C1480 1.383 . S
C1479 H1487 0.929 . S
C1480 C1479 1.383 . S
C1480 C1481 1.377 . S
C1481 H1465 0.930 . S
C1481 C1480 1.377 . S
C1481 C1482 1.379 . S
C1482 H1466 0.931 . S
C1482 C1476 1.383 . S
C1482 C1481 1.379 . S
H1483 C1477 0.959 . S
H1484 C1477 0.961 . S
H1485 C1477 0.960 . S
H1486 C1478 0.930 . S
H1487 C1479 0.929 . S
H1488 C1496 0.929 . S
H1489 C1498 0.930 . S
H1490 C1500 0.930 . S
H1491 C1503 0.929 . S
H1492 C1506 0.930 . S
H1493 C1508 0.960 . S
H1494 C1508 0.960 . S
H1495 C1508 0.960 . S
C1496 H1488 0.929 . S
C1496 C1497 1.377 . S
C1496 C1498 1.384 . S
C1497 C1496 1.377 . S
C1497 C1503 1.390 . S
C1498 H1489 0.930 . S
C1498 C1496 1.384 . S
C1498 C1499 1.372 . S
C1499 C1498 1.372 . S
C1499 C1500 1.400 . S
C1499 C1504 1.490 . S
C1500 H1490 0.930 . S
C1500 C1499 1.400 . S
C1500 C1503 1.386 . S
H1501 C1517 0.930 . S
H1502 C1518 0.931 . S
C1503 H1491 0.929 . S
C1503 C1497 1.390 . S
C1503 C1500 1.386 . S
C1504 C1499 1.490 . S
C1504 C1506 1.395 . S
C1504 C1507 1.403 . S
H1505 C1511 0.930 . S
C1506 H1492 0.930 . S
C1506 C1504 1.395 . S
C1506 C1509 1.403 . S
C1507 C1504 1.403 . S
C1507 C1508 1.524 . S
C1507 C1511 1.400 . S
C1508 H1493 0.960 . S
C1508 H1494 0.960 . S
C1508 H1495 0.960 . S
C1508 C1507 1.524 . S
C1509 C1506 1.403 . S
C1509 C1510 1.392 . S
C1509 C1513 1.495 . S
C1510 C1509 1.392 . S
C1510 C1511 1.385 . S
C1510 C1512 1.478 . S
C1511 H1505 0.930 . S
C1511 C1507 1.400 . S
C1511 C1510 1.385 . S
C1512 C1510 1.478 . S
C1512 C1514 1.381 . S
C1512 C1518 1.383 . S
C1513 C1509 1.495 . S
C1513 H1519 0.959 . S
C1513 H1520 0.961 . S
C1513 H1521 0.960 . S
C1514 C1512 1.381 . S
C1514 C1515 1.394 . S
C1514 H1522 0.930 . S
C1515 C1514 1.394 . S
C1515 C1516 1.383 . S
C1515 H1523 0.929 . S
C1516 C1515 1.383 . S
C1516 C1517 1.377 . S
C1517 H1501 0.930 . S
C1517 C1516 1.377 . S
C1517 C1518 1.379 . S
C1518 H1502 0.931 . S
C1518 C1512 1.383 . S
C1518 C1517 1.379 . S
H1519 C1513 0.959 . S
H1520 C1513 0.961 . S
H1521 C1513 0.960 . S
H1522 C1514 0.930 . S
H1523 C1515 0.929 . S
H1524 C1532 0.929 . S
H1525 C1534 0.930 . S
H1526 C1536 0.930 . S
H1527 C1539 0.929 . S
H1528 C1542 0.930 . S
H1529 C1544 0.960 . S
H1530 C1544 0.960 . S
H1531 C1544 0.960 . S
C1532 H1524 0.929 . S
C1532 C1533 1.377 . S
C1532 C1534 1.384 . S
C1533 C1532 1.377 . S
C1533 C1539 1.390 . S
C1534 H1525 0.930 . S
C1534 C1532 1.384 . S
C1534 C1535 1.372 . S
C1535 C1534 1.372 . S
C1535 C1536 1.400 . S
C1535 C1540 1.490 . S
C1536 H1526 0.930 . S
C1536 C1535 1.400 . S
C1536 C1539 1.386 . S
H1537 C1553 0.930 . S
H1538 C1554 0.931 . S
C1539 H1527 0.929 . S
C1539 C1533 1.390 . S
C1539 C1536 1.386 . S
C1540 C1535 1.490 . S
C1540 C1542 1.395 . S
C1540 C1543 1.403 . S
H1541 C1547 0.930 . S
C1542 H1528 0.930 . S
C1542 C1540 1.395 . S
C1542 C1545 1.403 . S
C1543 C1540 1.403 . S
C1543 C1544 1.524 . S
C1543 C1547 1.400 . S
C1544 H1529 0.960 . S
C1544 H1530 0.960 . S
C1544 H1531 0.960 . S
C1544 C1543 1.524 . S
C1545 C1542 1.403 . S
C1545 C1546 1.392 . S
C1545 C1549 1.495 . S
C1546 C1545 1.392 . S
C1546 C1547 1.385 . S
C1546 C1548 1.478 . S
C1547 H1541 0.930 . S
C1547 C1543 1.400 . S
C1547 C1546 1.385 . S
C1548 C1546 1.478 . S
C1548 C1550 1.381 . S
C1548 C1554 1.383 . S
C1549 C1545 1.495 . S
C1549 H1555 0.959 . S
C1549 H1556 0.961 . S
C1549 H1557 0.960 . S
C1550 C1548 1.381 . S
C1550 C1551 1.394 . S
C1550 H1558 0.930 . S
C1551 C1550 1.394 . S
C1551 C1552 1.383 . S
C1551 H1559 0.929 . S
C1552 C1551 1.383 . S
C1552 C1553 1.377 . S
C1553 H1537 0.930 . S
C1553 C1552 1.377 . S
C1553 C1554 1.379 . S
C1554 H1538 0.931 . S
C1554 C1548 1.383 . S
C1554 C1553 1.379 . S
H1555 C1549 0.959 . S
H1556 C1549 0.961 . S
H1557 C1549 0.960 . S
H1558 C1550 0.930 . S
H1559 C1551 0.929 . S
H1560 C1568 0.929 . S
H1561 C1570 0.930 . S
H1562 C1572 0.930 . S
H1563 C1575 0.929 . S
H1564 C1578 0.930 . S
H1565 C1580 0.960 . S
H1566 C1580 0.960 . S
H1567 C1580 0.960 . S
C1568 H1560 0.929 . S
C1568 C1569 1.377 . S
C1568 C1570 1.384 . S
C1569 C1568 1.377 . S
C1569 C1575 1.390 . S
C1570 H1561 0.930 . S
C1570 C1568 1.384 . S
C1570 C1571 1.372 . S
C1571 C1570 1.372 . S
C1571 C1572 1.400 . S
C1571 C1576 1.490 . S
C1572 H1562 0.930 . S
C1572 C1571 1.400 . S
C1572 C1575 1.386 . S
H1573 C1589 0.930 . S
H1574 C1590 0.931 . S
C1575 H1563 0.929 . S
C1575 C1569 1.390 . S
C1575 C1572 1.386 . S
C1576 C1571 1.490 . S
C1576 C1578 1.395 . S
C1576 C1579 1.403 . S
H1577 C1583 0.930 . S
C1578 H1564 0.930 . S
C1578 C1576 1.395 . S
C1578 C1581 1.403 1_556 S
C1579 C1576 1.403 . S
C1579 C1580 1.524 . S
C1579 C1583 1.400 1_556 S
C1580 H1565 0.960 . S
C1580 H1566 0.960 . S
C1580 H1567 0.960 . S
C1580 C1579 1.524 . S
C1581 C1578 1.403 1_554 S
C1581 C1582 1.392 . S
C1581 C1585 1.495 . S
C1582 C1581 1.392 . S
C1582 C1583 1.385 . S
C1582 C1584 1.478 . S
C1583 H1577 0.930 . S
C1583 C1579 1.400 1_554 S
C1583 C1582 1.385 . S
C1584 C1582 1.478 . S
C1584 C1586 1.381 . S
C1584 C1590 1.383 . S
C1585 C1581 1.495 . S
C1585 H1591 0.959 . S
C1585 H1592 0.961 . S
C1585 H1593 0.960 . S
C1586 C1584 1.381 . S
C1586 C1587 1.394 . S
C1586 H1594 0.930 . S
C1587 C1586 1.394 . S
C1587 C1588 1.383 . S
C1587 H1595 0.929 . S
C1588 C1587 1.383 . S
C1588 C1589 1.377 . S
C1589 H1573 0.930 . S
C1589 C1588 1.377 . S
C1589 C1590 1.379 . S
C1590 H1574 0.931 . S
C1590 C1584 1.383 . S
C1590 C1589 1.379 . S
H1591 C1585 0.959 . S
H1592 C1585 0.961 . S
H1593 C1585 0.960 . S
H1594 C1586 0.930 . S
H1595 C1587 0.929 . S
H1596 C1604 0.929 . S
H1597 C1606 0.930 . S
H1598 C1608 0.930 . S
H1599 C1611 0.929 . S
H1600 C1614 0.930 . S
H1601 C1616 0.960 . S
H1602 C1616 0.960 . S
H1603 C1616 0.960 . S
C1604 H1596 0.929 . S
C1604 C1605 1.377 . S
C1604 C1606 1.384 . S
C1605 C1604 1.377 . S
C1605 C1611 1.390 . S
C1606 H1597 0.930 . S
C1606 C1604 1.384 . S
C1606 C1607 1.372 . S
C1607 C1606 1.372 . S
C1607 C1608 1.400 . S
C1607 C1612 1.490 . S
C1608 H1598 0.930 . S
C1608 C1607 1.400 . S
C1608 C1611 1.386 . S
H1609 C1625 0.930 . S
H1610 C1626 0.931 . S
C1611 H1599 0.929 . S
C1611 C1605 1.390 . S
C1611 C1608 1.386 . S
C1612 C1607 1.490 . S
C1612 C1614 1.395 . S
C1612 C1615 1.403 . S
H1613 C1619 0.930 . S
C1614 H1600 0.930 . S
C1614 C1612 1.395 . S
C1614 C1617 1.403 1_455 S
C1615 C1612 1.403 . S
C1615 C1616 1.524 . S
C1615 C1619 1.400 1_455 S
C1616 H1601 0.960 . S
C1616 H1602 0.960 . S
C1616 H1603 0.960 . S
C1616 C1615 1.524 . S
C1617 C1614 1.403 1_655 S
C1617 C1618 1.392 . S
C1617 C1621 1.495 . S
C1618 C1617 1.392 . S
C1618 C1619 1.385 . S
C1618 C1620 1.478 . S
C1619 H1613 0.930 . S
C1619 C1615 1.400 1_655 S
C1619 C1618 1.385 . S
C1620 C1618 1.478 . S
C1620 C1622 1.381 . S
C1620 C1626 1.383 . S
C1621 C1617 1.495 . S
C1621 H1627 0.959 . S
C1621 H1628 0.961 . S
C1621 H1629 0.960 . S
C1622 C1620 1.381 . S
C1622 C1623 1.394 . S
C1622 H1630 0.930 . S
C1623 C1622 1.394 . S
C1623 C1624 1.383 . S
C1623 H1631 0.929 . S
C1624 C1623 1.383 . S
C1624 C1625 1.377 . S
C1625 H1609 0.930 . S
C1625 C1624 1.377 . S
C1625 C1626 1.379 . S
C1626 H1610 0.931 . S
C1626 C1620 1.383 . S
C1626 C1625 1.379 . S
H1627 C1621 0.959 . S
H1628 C1621 0.961 . S
H1629 C1621 0.960 . S
H1630 C1622 0.930 . S
H1631 C1623 0.929 . S
H1632 C1640 0.929 . S
H1633 C1642 0.930 . S
H1634 C1644 0.930 . S
H1635 C1647 0.929 . S
H1636 C1650 0.930 . S
H1637 C1652 0.960 . S
H1638 C1652 0.960 . S
H1639 C1652 0.960 . S
C1640 H1632 0.929 . S
C1640 C1641 1.377 . S
C1640 C1642 1.384 . S
C1641 C1640 1.377 . S
C1641 C1647 1.390 . S
C1642 H1633 0.930 . S
C1642 C1640 1.384 . S
C1642 C1643 1.372 . S
C1643 C1642 1.372 . S
C1643 C1644 1.400 . S
C1643 C1648 1.490 . S
C1644 H1634 0.930 . S
C1644 C1643 1.400 . S
C1644 C1647 1.386 . S
H1645 C1661 0.930 . S
H1646 C1662 0.931 . S
C1647 H1635 0.929 . S
C1647 C1641 1.390 . S
C1647 C1644 1.386 . S
C1648 C1643 1.490 . S
C1648 C1650 1.395 1_565 S
C1648 C1651 1.403 1_554 S
H1649 C1655 0.931 . S
C1650 H1636 0.930 . S
C1650 C1648 1.395 1_545 S
C1650 C1653 1.403 . S
C1651 C1648 1.403 1_556 S
C1651 C1652 1.524 . S
C1651 C1655 1.398 . S
C1652 H1637 0.960 . S
C1652 H1638 0.960 . S
C1652 H1639 0.960 . S
C1652 C1651 1.524 . S
C1653 C1650 1.403 . S
C1653 C1654 1.392 1_554 S
C1653 C1657 1.495 . S
C1654 C1653 1.392 1_556 S
C1654 C1655 1.387 1_545 S
C1654 C1656 1.478 . S
C1655 H1649 0.931 . S
C1655 C1651 1.398 . S
C1655 C1654 1.387 1_565 S
C1656 C1654 1.478 . S
C1656 C1658 1.381 . S
C1656 C1662 1.383 . S
C1657 C1653 1.495 . S
C1657 H1663 0.959 . S
C1657 H1664 0.961 . S
C1657 H1665 0.960 . S
C1658 C1656 1.381 . S
C1658 C1659 1.394 . S
C1658 H1666 0.930 . S
C1659 C1658 1.394 . S
C1659 C1660 1.383 . S
C1659 H1667 0.929 . S
C1660 C1659 1.383 . S
C1660 C1661 1.377 . S
C1661 H1645 0.930 . S
C1661 C1660 1.377 . S
C1661 C1662 1.379 . S
C1662 H1646 0.931 . S
C1662 C1656 1.383 . S
C1662 C1661 1.379 . S
H1663 C1657 0.959 . S
H1664 C1657 0.961 . S
H1665 C1657 0.960 . S
H1666 C1658 0.930 . S
H1667 C1659 0.929 . S
H1668 C1676 0.929 . S
H1669 C1678 0.930 . S
H1670 C1680 0.930 . S
H1671 C1683 0.929 . S
H1672 C1686 0.930 . S
H1673 C1688 0.960 . S
H1674 C1688 0.960 . S
H1675 C1688 0.960 . S
C1676 H1668 0.929 . S
C1676 C1677 1.377 . S
C1676 C1678 1.384 . S
C1677 C1676 1.377 . S
C1677 C1683 1.390 . S
C1678 H1669 0.930 . S
C1678 C1676 1.384 . S
C1678 C1679 1.372 . S
C1679 C1678 1.372 . S
C1679 C1680 1.400 . S
C1679 C1684 1.490 . S
C1680 H1670 0.930 . S
C1680 C1679 1.400 . S
C1680 C1683 1.386 . S
H1681 C1697 0.930 . S
H1682 C1698 0.931 . S
C1683 H1671 0.929 . S
C1683 C1677 1.390 . S
C1683 C1680 1.386 . S
C1684 C1679 1.490 . S
C1684 C1686 1.395 . S
C1684 C1687 1.403 . S
H1685 C1691 0.930 . S
C1686 H1672 0.930 . S
C1686 C1684 1.395 . S
C1686 C1689 1.403 . S
C1687 C1684 1.403 . S
C1687 C1688 1.524 . S
C1687 C1691 1.400 . S
C1688 H1673 0.960 . S
C1688 H1674 0.960 . S
C1688 H1675 0.960 . S
C1688 C1687 1.524 . S
C1689 C1686 1.403 . S
C1689 C1690 1.392 . S
C1689 C1693 1.495 . S
C1690 C1689 1.392 . S
C1690 C1691 1.385 . S
C1690 C1692 1.478 . S
C1691 H1685 0.930 . S
C1691 C1687 1.400 . S
C1691 C1690 1.385 . S
C1692 C1690 1.478 . S
C1692 C1694 1.381 . S
C1692 C1698 1.383 . S
C1693 C1689 1.495 . S
C1693 H1699 0.959 . S
C1693 H1700 0.961 . S
C1693 H1701 0.960 . S
C1694 C1692 1.381 . S
C1694 C1695 1.394 . S
C1694 H1702 0.930 . S
C1695 C1694 1.394 . S
C1695 C1696 1.383 . S
C1695 H1703 0.929 . S
C1696 C1695 1.383 . S
C1696 C1697 1.377 . S
C1697 H1681 0.930 . S
C1697 C1696 1.377 . S
C1697 C1698 1.379 . S
C1698 H1682 0.931 . S
C1698 C1692 1.383 . S
C1698 C1697 1.379 . S
H1699 C1693 0.959 . S
H1700 C1693 0.961 . S
H1701 C1693 0.960 . S
H1702 C1694 0.930 . S
H1703 C1695 0.929 . S
H1704 C1712 0.929 . S
H1705 C1714 0.930 . S
H1706 C1716 0.930 . S
H1707 C1719 0.929 . S
H1708 C1722 0.930 . S
H1709 C1724 0.960 1_554 S
H1710 C1724 0.960 . S
H1711 C1724 0.960 . S
C1712 H1704 0.929 . S
C1712 C1713 1.377 . S
C1712 C1714 1.384 . S
C1713 C1712 1.377 . S
C1713 C1719 1.390 . S
C1714 H1705 0.930 . S
C1714 C1712 1.384 . S
C1714 C1715 1.372 . S
C1715 C1714 1.372 . S
C1715 C1716 1.400 . S
C1715 C1720 1.490 . S
C1716 H1706 0.930 . S
C1716 C1715 1.400 . S
C1716 C1719 1.386 . S
H1717 C1733 0.930 . S
H1718 C1734 0.931 . S
C1719 H1707 0.929 . S
C1719 C1713 1.390 . S
C1719 C1716 1.386 . S
C1720 C1715 1.490 . S
C1720 C1722 1.395 . S
C1720 C1723 1.403 . S
H1721 C1727 0.930 . S
C1722 H1708 0.930 . S
C1722 C1720 1.395 . S
C1722 C1725 1.403 1_656 S
C1723 C1720 1.403 . S
C1723 C1724 1.524 . S
C1723 C1727 1.400 1_656 S
C1724 H1709 0.960 1_556 S
C1724 H1710 0.960 . S
C1724 H1711 0.960 . S
C1724 C1723 1.524 . S
C1725 C1722 1.403 1_454 S
C1725 C1726 1.392 . S
C1725 C1729 1.495 . S
C1726 C1725 1.392 . S
C1726 C1727 1.385 . S
C1726 C1728 1.478 . S
C1727 H1721 0.930 . S
C1727 C1723 1.400 1_454 S
C1727 C1726 1.385 . S
C1728 C1726 1.478 . S
C1728 C1730 1.381 . S
C1728 C1734 1.383 . S
C1729 C1725 1.495 . S
C1729 H1735 0.963 1_554 S
C1729 H1736 0.961 . S
C1729 H1737 0.960 . S
C1730 C1728 1.381 . S
C1730 C1731 1.394 . S
C1730 H1738 0.930 . S
C1731 C1730 1.394 . S
C1731 C1732 1.383 . S
C1731 H1739 0.929 . S
C1732 C1731 1.383 . S
C1732 C1733 1.377 . S
C1733 H1717 0.930 . S
C1733 C1732 1.377 . S
C1733 C1734 1.379 . S
C1734 H1718 0.931 . S
C1734 C1728 1.383 . S
C1734 C1733 1.379 . S
H1735 C1729 0.963 1_556 S
H1736 C1729 0.961 . S
H1737 C1729 0.960 . S
H1738 C1730 0.930 . S
H1739 C1731 0.929 . S
H1740 C1748 0.929 . S
H1741 C1750 0.930 . S
H1742 C1752 0.930 . S
H1743 C1755 0.929 . S
H1744 C1758 0.920 . S
H1745 C1760 0.960 . S
H1746 C1760 0.960 . S
H1747 C1760 0.960 . S
C1748 H1740 0.929 . S
C1748 C1749 1.377 . S
C1748 C1750 1.384 . S
C1749 C1748 1.377 . S
C1749 C1755 1.390 . S
C1750 H1741 0.930 . S
C1750 C1748 1.384 . S
C1750 C1751 1.372 . S
C1751 C1750 1.372 . S
C1751 C1752 1.400 . S
C1751 C1756 1.490 . S
C1752 H1742 0.930 . S
C1752 C1751 1.400 . S
C1752 C1755 1.386 . S
H1753 C1769 0.930 . S
H1754 C1770 0.931 . S
C1755 H1743 0.929 . S
C1755 C1749 1.390 . S
C1755 C1752 1.386 . S
C1756 C1751 1.490 . S
C1756 C1758 1.385 1_565 S
C1756 C1759 1.403 . S
H1757 C1763 0.930 . S
C1758 H1744 0.920 . S
C1758 C1756 1.385 1_545 S
C1758 C1761 1.425 . S
C1759 C1756 1.403 . S
C1759 C1760 1.524 . S
C1759 C1763 1.400 1_565 S
C1760 H1745 0.960 . S
C1760 H1746 0.960 . S
C1760 H1747 0.960 . S
C1760 C1759 1.524 . S
C1761 C1758 1.425 . S
C1761 C1762 1.392 . S
C1761 C1765 1.495 . S
C1762 C1761 1.392 . S
C1762 C1763 1.385 . S
C1762 C1764 1.478 . S
C1763 H1757 0.930 . S
C1763 C1759 1.400 1_545 S
C1763 C1762 1.385 . S
C1764 C1762 1.478 . S
C1764 C1766 1.381 . S
C1764 C1770 1.383 . S
C1765 C1761 1.495 . S
C1765 H1771 0.959 . S
C1765 H1772 0.961 . S
C1765 H1773 0.960 . S
C1766 C1764 1.381 . S
C1766 C1767 1.394 . S
C1766 H1774 0.930 . S
C1767 C1766 1.394 . S
C1767 C1768 1.383 . S
C1767 H1775 0.929 . S
C1768 C1767 1.383 . S
C1768 C1769 1.377 . S
C1769 H1753 0.930 . S
C1769 C1768 1.377 . S
C1769 C1770 1.379 . S
C1770 H1754 0.931 . S
C1770 C1764 1.383 . S
C1770 C1769 1.379 . S
H1771 C1765 0.959 . S
H1772 C1765 0.961 . S
H1773 C1765 0.960 . S
H1774 C1766 0.930 . S
H1775 C1767 0.929 . S
C489 C179 1.224 . S
C508 C15 1.252 . S
C525 C219 1.218 . S
C544 C55 1.241 . S
C561 C95 1.249 . S
C580 C19 1.201 . S
C597 C135 1.250 . S
C616 C59 1.224 . S
C633 C175 1.252 . S
C652 C99 1.247 . S
C669 C139 1.229 . S
C688 C215 1.258 . S
C705 C339 1.221 . S
C724 C255 1.248 . S
C741 C295 1.250 . S
C760 C379 1.203 . S
C777 C419 1.225 . S
C796 C335 1.247 . S
C813 C375 1.252 . S
C832 C459 1.240 . S
C849 C415 1.253 . S
C868 C259 1.247 . S
C885 C299 1.223 . S
C904 C455 1.244 . S
C921 C170 1.770 . S
C940 C6 1.741 . S
C957 C46 1.756 . S
C976 C210 1.768 . S
C993 C86 1.756 . S
C1012 C10 1.771 . S
C1029 C126 1.756 . S
C1048 C50 1.775 . S
C1065 C90 1.770 . S
C1084 C166 1.741 . S
C1101 C130 1.765 . S
C1120 C206 1.764 . S
C1137 C330 1.770 . S
C1156 C246 1.740 . S
C1173 C286 1.762 . S
C1192 C370 1.753 . S
C1209 C326 1.761 . S
C1228 C410 1.750 . S
C1245 C450 1.770 . S
C1264 C366 1.757 . S
C1281 C406 1.756 . S
C1300 C250 1.772 . S
C1317 C290 1.768 . S
C1336 C446 1.768 . S
C1353 C418 1.634 . S
C1372 C18 1.664 . S
C1389 C58 1.635 . S
C1408 C458 1.605 . S
C1425 C98 1.630 . S
C1444 C258 1.637 . S
C1461 C138 1.639 . S
C1480 C298 1.602 . S
C1497 C178 1.638 . S
C1516 C338 1.602 . S
C1533 C378 1.640 . S
C1552 C218 1.655 . S
C1569 C369 2.094 . S
C1588 C9 2.085 . S
C1605 C409 2.094 . S
C1624 C49 2.094 . S
C1641 C89 2.095 . S
C1660 C449 2.088 . S
C1677 C129 2.094 . S
C1696 C249 2.092 . S
C1713 C289 2.094 . S
C1732 C169 2.094 . S
C1749 C329 2.094 . S
C1768 C209 2.093 . S
