# Generated by pormake.
# Topology umd, (4)-cn, num edge types: 1
# Building blocks:
#     Node 0, Type 0, BuildingBlock: ICAMEG_clean_sbu_1, # of connection points: 4
#     Node 1, Type 0, BuildingBlock: ICAMEG_clean_sbu_1, # of connection points: 4
#     Node 2, Type 0, BuildingBlock: ICAMEG_clean_sbu_1, # of connection points: 4
#     Node 3, Type 0, BuildingBlock: ICAMEG_clean_sbu_1, # of connection points: 4
#     Node 4, Type 0, BuildingBlock: ICAMEG_clean_sbu_1, # of connection points: 4
#     Node 5, Type 0, BuildingBlock: ICAMEG_clean_sbu_1, # of connection points: 4
#     Node 6, Type 0, BuildingBlock: ICAMEG_clean_sbu_1, # of connection points: 4
#     Node 7, Type 0, BuildingBlock: ICAMEG_clean_sbu_1, # of connection points: 4
#     Node 8, Type 0, BuildingBlock: ICAMEG_clean_sbu_1, # of connection points: 4
#     Node 9, Type 0, BuildingBlock: ICAMEG_clean_sbu_1, # of connection points: 4
#     Node 10, Type 0, BuildingBlock: ICAMEG_clean_sbu_1, # of connection points: 4
#     Node 11, Type 0, BuildingBlock: ICAMEG_clean_sbu_1, # of connection points: 4
#     Node 12, Type 0, BuildingBlock: ICAMEG_clean_sbu_1, # of connection points: 4
#     Node 13, Type 0, BuildingBlock: ICAMEG_clean_sbu_1, # of connection points: 4
#     Node 14, Type 0, BuildingBlock: ICAMEG_clean_sbu_1, # of connection points: 4
#     Node 15, Type 0, BuildingBlock: ICAMEG_clean_sbu_1, # of connection points: 4
#     Edge 16, Type (0, 0), BuildingBlock: EZIPEK_clean_linker_0, # of connection points: 2
#     Edge 17, Type (0, 0), BuildingBlock: EZIPEK_clean_linker_0, # of connection points: 2
#     Edge 18, Type (0, 0), BuildingBlock: EZIPEK_clean_linker_0, # of connection points: 2
#     Edge 19, Type (0, 0), BuildingBlock: EZIPEK_clean_linker_0, # of connection points: 2
#     Edge 20, Type (0, 0), BuildingBlock: EZIPEK_clean_linker_0, # of connection points: 2
#     Edge 21, Type (0, 0), BuildingBlock: EZIPEK_clean_linker_0, # of connection points: 2
#     Edge 22, Type (0, 0), BuildingBlock: EZIPEK_clean_linker_0, # of connection points: 2
#     Edge 23, Type (0, 0), BuildingBlock: EZIPEK_clean_linker_0, # of connection points: 2
#     Edge 24, Type (0, 0), BuildingBlock: EZIPEK_clean_linker_0, # of connection points: 2
#     Edge 25, Type (0, 0), BuildingBlock: EZIPEK_clean_linker_0, # of connection points: 2
#     Edge 26, Type (0, 0), BuildingBlock: EZIPEK_clean_linker_0, # of connection points: 2
#     Edge 27, Type (0, 0), BuildingBlock: EZIPEK_clean_linker_0, # of connection points: 2
#     Edge 28, Type (0, 0), BuildingBlock: EZIPEK_clean_linker_0, # of connection points: 2
#     Edge 29, Type (0, 0), BuildingBlock: EZIPEK_clean_linker_0, # of connection points: 2
#     Edge 30, Type (0, 0), BuildingBlock: EZIPEK_clean_linker_0, # of connection points: 2
#     Edge 31, Type (0, 0), BuildingBlock: EZIPEK_clean_linker_0, # of connection points: 2
#     Edge 32, Type (0, 0), BuildingBlock: EZIPEK_clean_linker_0, # of connection points: 2
#     Edge 33, Type (0, 0), BuildingBlock: EZIPEK_clean_linker_0, # of connection points: 2
#     Edge 34, Type (0, 0), BuildingBlock: EZIPEK_clean_linker_0, # of connection points: 2
#     Edge 35, Type (0, 0), BuildingBlock: EZIPEK_clean_linker_0, # of connection points: 2
#     Edge 36, Type (0, 0), BuildingBlock: EZIPEK_clean_linker_0, # of connection points: 2
#     Edge 37, Type (0, 0), BuildingBlock: EZIPEK_clean_linker_0, # of connection points: 2
#     Edge 38, Type (0, 0), BuildingBlock: EZIPEK_clean_linker_0, # of connection points: 2
#     Edge 39, Type (0, 0), BuildingBlock: EZIPEK_clean_linker_0, # of connection points: 2
#     Edge 40, Type (0, 0), BuildingBlock: EZIPEK_clean_linker_0, # of connection points: 2
#     Edge 41, Type (0, 0), BuildingBlock: EZIPEK_clean_linker_0, # of connection points: 2
#     Edge 42, Type (0, 0), BuildingBlock: EZIPEK_clean_linker_0, # of connection points: 2
#     Edge 43, Type (0, 0), BuildingBlock: EZIPEK_clean_linker_0, # of connection points: 2
#     Edge 44, Type (0, 0), BuildingBlock: EZIPEK_clean_linker_0, # of connection points: 2
#     Edge 45, Type (0, 0), BuildingBlock: EZIPEK_clean_linker_0, # of connection points: 2
#     Edge 46, Type (0, 0), BuildingBlock: EZIPEK_clean_linker_0, # of connection points: 2
#     Edge 47, Type (0, 0), BuildingBlock: EZIPEK_clean_linker_0, # of connection points: 2
# Relax obj value: 0.056
# Max RMSD: 0.154
# Mean RMSD: 0.154
data_MOF--net-umd--node1-ICAMEG_clean_sbu_1--edge1-EZIPEK_clean_linker_0
_symmetry_space_group_name_H-M    P1
_symmetry_Int_Tables_number       1
_symmetry_cell_setting            triclinic
loop_
_symmetry_equiv_pos_as_xyz
'x, y, z'
_cell_length_a     31.148861
_cell_length_b     31.151914
_cell_length_c     45.602158
_cell_angle_alpha  90.009294
_cell_angle_beta   90.002573
_cell_angle_gamma 89.964168
loop_
_atom_site_label
_atom_site_type_symbol
_atom_site_fract_x
_atom_site_fract_y
_atom_site_fract_z
_atom_type_partial_charge
Co0 Co 0.17915 0.50019 0.12486 0.0
Co1 Co 0.15614 0.3989 0.15305 0.0
O2 O 0.18566 0.43759 0.12592 0.0
C3 C 0.1736 0.46772 0.0625 0.0
O4 O 0.17942 0.42857 0.07201 0.0
C5 C 0.24854 0.37766 0.16016 0.0
O6 O 0.25659 0.41897 0.16103 0.0
O7 O 0.17379 0.43576 0.18676 0.0
O8 O 0.18344 0.50256 0.16869 0.0
H9 H 0.07296 0.35969 0.24401 0.0
H10 H 0.24936 0.45808 0.08993 0.0
O11 O 0.17352 0.49952 0.08032 0.0
H12 H 0.32195 0.56144 0.15478 0.0
H13 H 0.20397 0.64921 0.08546 0.0
H14 H 0.12968 0.56264 0.16039 0.0
H15 H 0.24331 0.55388 0.15601 0.0
H16 H 0.21336 0.57064 0.08711 0.0
O17 O 0.21019 0.36409 0.1574 0.0
H18 H 0.10833 0.40876 0.2095 0.0
H19 H 0.14946 0.30355 0.15754 0.0
H20 H 0.11966 0.64117 0.15974 0.0
H21 H 0.32777 0.46511 0.08763 0.0
H22 H 0.15696 0.68501 0.12205 0.0
H23 H 0.36481 0.51702 0.12029 0.0
O24 O 0.11564 0.49534 0.12759 0.0
H25 H 0.18186 0.312 0.06159 0.0
H26 H 0.07238 0.36466 0.13088 0.0
H27 H 0.05006 0.32192 0.08815 0.0
H28 H 0.10494 0.29516 0.05312 0.0
H29 H 0.20279 0.35601 0.10406 0.0
H30 H 0.1151 0.2531 0.19178 0.0
H31 H 0.07602 0.28105 0.23525 0.0
O32 O 0.10064 0.43223 0.14902 0.0
C33 C 0.18222 0.47566 0.18978 0.0
C34 C 0.08897 0.34712 0.22477 0.0
C35 C 0.1127 0.28734 0.19551 0.0
N36 N 0.12851 0.35953 0.18032 0.0
C37 C 0.10846 0.37495 0.2048 0.0
C38 C 0.13178 0.31617 0.17602 0.0
C39 C 0.09087 0.30302 0.21992 0.0
C40 C 0.26478 0.48124 0.10386 0.0
N41 N 0.24131 0.50603 0.12265 0.0
C42 C 0.30944 0.4849 0.1026 0.0
C43 C 0.33021 0.51394 0.12097 0.0
C44 C 0.3062 0.53886 0.1403 0.0
C45 C 0.2616 0.5344 0.14088 0.0
C46 C 0.18757 0.63047 0.102 0.0
C47 C 0.14621 0.58152 0.14403 0.0
C48 C 0.19267 0.58594 0.10297 0.0
N49 N 0.17229 0.56209 0.12391 0.0
C50 C 0.14032 0.62597 0.14372 0.0
C51 C 0.16121 0.65054 0.12255 0.0
C52 C 0.08901 0.46826 0.13802 0.0
C53 C 0.15763 0.32352 0.07667 0.0
C54 C 0.09652 0.35389 0.11553 0.0
C55 C 0.08365 0.32929 0.09148 0.0
C56 C 0.11447 0.31417 0.0719 0.0
N57 N 0.1389 0.36348 0.11989 0.0
C58 C 0.16932 0.34822 0.10096 0.0
Co59 Co 0.49476 0.18142 0.62233 0.0
Co60 Co 0.5943 0.15493 0.65099 0.0
O61 O 0.55729 0.18598 0.62373 0.0
C62 C 0.52454 0.16265 0.56249 0.0
O63 O 0.55593 0.14105 0.57459 0.0
C64 C 0.62085 0.24603 0.65637 0.0
O65 O 0.58012 0.25669 0.65612 0.0
O66 O 0.55854 0.17485 0.68478 0.0
O67 O 0.49138 0.1806 0.6664 0.0
H68 H 0.6298 0.06814 0.74109 0.0
H69 H 0.53608 0.25111 0.58807 0.0
O70 O 0.4968 0.18179 0.57829 0.0
H71 H 0.44379 0.32458 0.66012 0.0
H72 H 0.34917 0.22201 0.58328 0.0
H73 H 0.42797 0.12565 0.64974 0.0
H74 H 0.44671 0.24555 0.65824 0.0
H75 H 0.4279 0.2266 0.58742 0.0
O76 O 0.63209 0.20684 0.65468 0.0
H77 H 0.58217 0.10538 0.70646 0.0
H78 H 0.6892 0.14526 0.65592 0.0
H79 H 0.34934 0.12021 0.64669 0.0
H80 H 0.53353 0.33019 0.58878 0.0
H81 H 0.30926 0.16873 0.61323 0.0
H82 H 0.4873 0.36747 0.62514 0.0
O83 O 0.49811 0.11736 0.62206 0.0
H84 H 0.67628 0.17456 0.55698 0.0
H85 H 0.62634 0.06963 0.63039 0.0
H86 H 0.66713 0.04445 0.58737 0.0
H87 H 0.69249 0.09709 0.55032 0.0
H88 H 0.63476 0.19828 0.60003 0.0
H89 H 0.73829 0.10905 0.69029 0.0
H90 H 0.70866 0.06973 0.73312 0.0
O91 O 0.55787 0.1016 0.64781 0.0
C92 C 0.51801 0.17996 0.68781 0.0
C93 C 0.64309 0.08442 0.72219 0.0
C94 C 0.70395 0.10747 0.69374 0.0
N95 N 0.63242 0.12556 0.67822 0.0
C96 C 0.61607 0.10504 0.7022 0.0
C97 C 0.6759 0.12771 0.67423 0.0
C98 C 0.68732 0.08547 0.71778 0.0
C99 C 0.51551 0.26705 0.60368 0.0
N100 N 0.49159 0.24367 0.62303 0.0
C101 C 0.51434 0.31187 0.6041 0.0
C102 C 0.48847 0.33276 0.62454 0.0
C103 C 0.4641 0.30872 0.6442 0.0
C104 C 0.46607 0.26395 0.64312 0.0
C105 C 0.36619 0.20105 0.59823 0.0
C106 C 0.41088 0.14754 0.6358 0.0
C107 C 0.4108 0.20359 0.60076 0.0
N108 N 0.43257 0.1775 0.61977 0.0
C109 C 0.36627 0.14402 0.63385 0.0
C110 C 0.34382 0.17114 0.61501 0.0
C111 C 0.52284 0.09075 0.6351 0.0
C112 C 0.66558 0.15133 0.57304 0.0
C113 C 0.637 0.09273 0.61429 0.0
C114 C 0.66027 0.07829 0.59003 0.0
C115 C 0.67456 0.10785 0.56927 0.0
N116 N 0.62823 0.13543 0.61781 0.0
C117 C 0.6423 0.16461 0.59759 0.0
Co118 Co 0.81786 0.50019 0.1261 0.0
Co119 Co 0.85081 0.60328 0.14504 0.0
O120 O 0.81567 0.56279 0.12278 0.0
C121 C 0.83972 0.52123 0.06496 0.0
O122 O 0.86428 0.55139 0.07581 0.0
C123 C 0.76053 0.6283 0.15708 0.0
O124 O 0.75175 0.58758 0.16127 0.0
O125 O 0.83764 0.57233 0.18226 0.0
O126 O 0.8171 0.50478 0.17035 0.0
H127 H 0.96937 0.65088 0.21328 0.0
H128 H 0.75038 0.54131 0.0896 0.0
O129 O 0.81878 0.49631 0.08193 0.0
H130 H 0.67239 0.45214 0.16109 0.0
H131 H 0.78222 0.35012 0.0931 0.0
H132 H 0.85868 0.43696 0.16664 0.0
H133 H 0.75151 0.45477 0.16132 0.0
H134 H 0.77955 0.42908 0.09109 0.0
O135 O 0.79849 0.64029 0.15074 0.0
H136 H 0.92816 0.59884 0.18444 0.0
H137 H 0.84909 0.69862 0.15115 0.0
H138 H 0.86207 0.35821 0.16962 0.0
H139 H 0.67129 0.53949 0.08829 0.0
H140 H 0.82366 0.3141 0.13261 0.0
H141 H 0.6317 0.4948 0.12438 0.0
O142 O 0.88188 0.50005 0.12661 0.0
H143 H 0.81413 0.675 0.0495 0.0
H144 H 0.93112 0.6352 0.11709 0.0
H145 H 0.9483 0.67275 0.07097 0.0
H146 H 0.88955 0.69289 0.03678 0.0
H147 H 0.79849 0.6368 0.09564 0.0
H148 H 0.88967 0.75186 0.17961 0.0
H149 H 0.95024 0.72821 0.21113 0.0
O150 O 0.9034 0.56644 0.13959 0.0
C151 C 0.82541 0.53438 0.18913 0.0
C152 C 0.94259 0.66154 0.20001 0.0
C153 C 0.8979 0.71817 0.18112 0.0
N154 N 0.88467 0.64493 0.16706 0.0
C155 C 0.91866 0.63195 0.18382 0.0
C156 C 0.87468 0.68765 0.16526 0.0
C157 C 0.93192 0.70491 0.19874 0.0
C158 C 0.73343 0.52185 0.10529 0.0
N159 N 0.75556 0.49874 0.12573 0.0
C160 C 0.68861 0.52089 0.10448 0.0
C161 C 0.66642 0.49582 0.12473 0.0
C162 C 0.68923 0.47192 0.14533 0.0
C163 C 0.73403 0.47365 0.14542 0.0
C164 C 0.79931 0.36897 0.10926 0.0
C165 C 0.84218 0.41823 0.15037 0.0
C166 C 0.79818 0.41377 0.10813 0.0
N167 N 0.81957 0.43787 0.1285 0.0
C168 C 0.84407 0.37351 0.1522 0.0
C169 C 0.82251 0.34879 0.13144 0.0
C170 C 0.91102 0.52741 0.13264 0.0
C171 C 0.84001 0.66636 0.0642 0.0
C172 C 0.90539 0.64365 0.10227 0.0
C173 C 0.91531 0.66503 0.07622 0.0
C174 C 0.88234 0.67636 0.05707 0.0
N175 N 0.86384 0.63356 0.10897 0.0
C176 C 0.83133 0.64485 0.09041 0.0
Co177 Co 0.4992 0.82578 0.62647 0.0
Co178 Co 0.39668 0.84408 0.65366 0.0
O179 O 0.43704 0.81643 0.62664 0.0
C180 C 0.46928 0.82614 0.5633 0.0
O181 O 0.43033 0.81631 0.57165 0.0
C182 C 0.37826 0.75115 0.65859 0.0
O183 O 0.41977 0.74417 0.65933 0.0
O184 O 0.43263 0.82635 0.68769 0.0
O185 O 0.50047 0.82367 0.67047 0.0
H186 H 0.35277 0.92462 0.74463 0.0
H187 H 0.46203 0.7515 0.59261 0.0
O188 O 0.49981 0.82953 0.58195 0.0
H189 H 0.56662 0.68794 0.66084 0.0
H190 H 0.65071 0.80666 0.59002 0.0
H191 H 0.55769 0.88029 0.66164 0.0
H192 H 0.55508 0.76608 0.65988 0.0
H193 H 0.57269 0.79326 0.59073 0.0
O194 O 0.36347 0.78914 0.65672 0.0
H195 H 0.40384 0.89182 0.71015 0.0
H196 H 0.30109 0.8474 0.65716 0.0
H197 H 0.6356 0.89437 0.66192 0.0
H198 H 0.47292 0.67358 0.59257 0.0
H199 H 0.68268 0.85741 0.6259 0.0
H200 H 0.52553 0.64102 0.62692 0.0
O201 O 0.49073 0.88893 0.62755 0.0
H202 H 0.3151 0.81943 0.55987 0.0
H203 H 0.36044 0.92753 0.63248 0.0
H204 H 0.31901 0.95027 0.58922 0.0
H205 H 0.29597 0.89607 0.55252 0.0
H206 H 0.35757 0.79814 0.60303 0.0
H207 H 0.24873 0.87925 0.69129 0.0
H208 H 0.27444 0.91861 0.73528 0.0
O209 O 0.4285 0.90037 0.65118 0.0
C210 C 0.47302 0.82196 0.69124 0.0
C211 C 0.34114 0.90834 0.72523 0.0
C212 C 0.28279 0.88282 0.69533 0.0
N213 N 0.35577 0.86984 0.68067 0.0
C214 C 0.37004 0.89021 0.70534 0.0
C215 C 0.31266 0.86512 0.67594 0.0
C216 C 0.29722 0.90482 0.72003 0.0
C217 C 0.48549 0.73815 0.60723 0.0
N218 N 0.50837 0.76389 0.62577 0.0
C219 C 0.49133 0.69369 0.60728 0.0
C220 C 0.52074 0.67543 0.6266 0.0
C221 C 0.54379 0.70173 0.64562 0.0
C222 C 0.53708 0.74604 0.64495 0.0
C223 C 0.63054 0.82292 0.60584 0.0
C224 C 0.578 0.8639 0.64602 0.0
C225 C 0.58632 0.81556 0.60626 0.0
N226 N 0.56069 0.83577 0.62629 0.0
C227 C 0.62207 0.87209 0.64623 0.0
C228 C 0.64846 0.85138 0.62599 0.0
C229 C 0.46323 0.91381 0.63937 0.0
C230 C 0.325 0.84337 0.57569 0.0
C231 C 0.35119 0.90373 0.61645 0.0
C232 C 0.32737 0.91681 0.59208 0.0
C233 C 0.31435 0.88637 0.57155 0.0
N234 N 0.36203 0.86152 0.6202 0.0
C235 C 0.34887 0.83146 0.60031 0.0
Co236 Co 0.18201 0.50173 0.37546 0.0
Co237 Co 0.15954 0.60401 0.34972 0.0
O238 O 0.18904 0.56416 0.37601 0.0
C239 C 0.16362 0.52854 0.43614 0.0
O240 O 0.14447 0.56221 0.42494 0.0
C241 C 0.25171 0.62636 0.34387 0.0
O242 O 0.26035 0.5852 0.34278 0.0
O243 O 0.17769 0.56919 0.31498 0.0
O244 O 0.18264 0.50108 0.33151 0.0
H245 H 0.07478 0.6477 0.26042 0.0
H246 H 0.25213 0.53917 0.4113 0.0
O247 O 0.18136 0.5009 0.41952 0.0
H248 H 0.32412 0.44629 0.33884 0.0
H249 H 0.21133 0.35169 0.41124 0.0
H250 H 0.12867 0.44015 0.34166 0.0
H251 H 0.24521 0.45233 0.33966 0.0
H252 H 0.22018 0.43035 0.41029 0.0
O253 O 0.21318 0.6394 0.3465 0.0
H254 H 0.11034 0.59686 0.29371 0.0
H255 H 0.15351 0.69948 0.34722 0.0
H256 H 0.11906 0.36162 0.34162 0.0
H257 H 0.33109 0.53349 0.4116 0.0
H258 H 0.1606 0.3168 0.37663 0.0
H259 H 0.36762 0.48696 0.37506 0.0
O260 O 0.11803 0.50734 0.37512 0.0
H261 H 0.18424 0.68132 0.44504 0.0
H262 H 0.07602 0.63902 0.3716 0.0
H263 H 0.05339 0.67922 0.41552 0.0
H264 H 0.10771 0.70076 0.45258 0.0
H265 H 0.20538 0.64023 0.40116 0.0
H266 H 0.11909 0.75169 0.31419 0.0
H267 H 0.07892 0.72592 0.27056 0.0
O268 O 0.1043 0.5702 0.35265 0.0
C269 C 0.18312 0.52893 0.31098 0.0
C270 C 0.09135 0.65932 0.27971 0.0
C271 C 0.11631 0.71765 0.30983 0.0
N272 N 0.13177 0.64472 0.32347 0.0
C273 C 0.11096 0.63048 0.29897 0.0
C274 C 0.13549 0.68784 0.32859 0.0
C275 C 0.09385 0.70319 0.28534 0.0
C276 C 0.26774 0.51844 0.39559 0.0
N277 N 0.24404 0.49603 0.37557 0.0
C278 C 0.31248 0.51551 0.39576 0.0
C279 C 0.33296 0.48946 0.37522 0.0
C280 C 0.30858 0.46667 0.35487 0.0
C281 C 0.2639 0.47035 0.35538 0.0
C282 C 0.19317 0.37085 0.3958 0.0
C283 C 0.14714 0.42088 0.35671 0.0
C284 C 0.19802 0.41541 0.39517 0.0
N285 N 0.17535 0.43981 0.37564 0.0
C286 C 0.14144 0.37642 0.3567 0.0
C287 C 0.16471 0.35129 0.37638 0.0
C288 C 0.09202 0.5346 0.36397 0.0
C289 C 0.1603 0.67222 0.429 0.0
C290 C 0.09983 0.64789 0.38774 0.0
C291 C 0.08684 0.67088 0.4125 0.0
C292 C 0.11734 0.68303 0.43326 0.0
N293 N 0.14203 0.63727 0.38375 0.0
C294 C 0.17212 0.6492 0.40398 0.0
Co295 Co 0.50327 0.18702 0.87275 0.0
Co296 Co 0.40043 0.15141 0.85537 0.0
O297 O 0.44073 0.18783 0.87671 0.0
C298 C 0.4852 0.16859 0.93509 0.0
O299 O 0.45469 0.14339 0.92539 0.0
C300 C 0.37203 0.24052 0.84235 0.0
O301 O 0.41221 0.25042 0.83715 0.0
O302 O 0.42993 0.16455 0.81747 0.0
O303 O 0.49762 0.18534 0.82883 0.0
H304 H 0.35374 0.03078 0.78858 0.0
H305 H 0.45484 0.25547 0.90379 0.0
O306 O 0.50895 0.18873 0.91692 0.0
H307 H 0.54908 0.33148 0.83433 0.0
H308 H 0.65338 0.22807 0.90277 0.0
H309 H 0.56646 0.14564 0.83239 0.0
H310 H 0.54914 0.25248 0.83675 0.0
H311 H 0.57446 0.22902 0.90577 0.0
O312 O 0.36164 0.20253 0.84979 0.0
H313 H 0.40566 0.07408 0.81609 0.0
H314 H 0.30485 0.15004 0.85122 0.0
H315 H 0.64514 0.14391 0.82846 0.0
H316 H 0.45402 0.33463 0.90243 0.0
H317 H 0.68932 0.18534 0.86388 0.0
H318 H 0.50137 0.37318 0.86743 0.0
O319 O 0.50471 0.12287 0.87398 0.0
H320 H 0.33501 0.18833 0.95293 0.0
H321 H 0.37 0.07117 0.88421 0.0
H322 H 0.33533 0.05414 0.93141 0.0
H323 H 0.31765 0.11297 0.96617 0.0
H324 H 0.36996 0.20383 0.90558 0.0
H325 H 0.25172 0.1074 0.82409 0.0
H326 H 0.27594 0.04731 0.79234 0.0
O327 O 0.43875 0.09997 0.86084 0.0
C328 C 0.46782 0.17676 0.81035 0.0
C329 C 0.34279 0.05732 0.80197 0.0
C330 C 0.28558 0.10027 0.82189 0.0
N331 N 0.35894 0.11605 0.83434 0.0
C332 C 0.37229 0.0824 0.81741 0.0
C333 C 0.31601 0.12466 0.837 0.0
C334 C 0.29916 0.06652 0.80414 0.0
C335 C 0.47612 0.27205 0.88897 0.0
N336 N 0.50287 0.24935 0.87106 0.0
C337 C 0.47527 0.31687 0.88809 0.0
C338 C 0.50178 0.33847 0.86842 0.0
C339 C 0.5286 0.31511 0.84989 0.0
C340 C 0.52863 0.27034 0.85148 0.0
C341 C 0.63451 0.20961 0.88734 0.0
C342 C 0.5852 0.16334 0.84803 0.0
C343 C 0.58974 0.20972 0.88907 0.0
N344 N 0.56559 0.18662 0.86959 0.0
C345 C 0.62989 0.16244 0.84564 0.0
C346 C 0.65465 0.18569 0.8655 0.0
C347 C 0.47781 0.09315 0.86811 0.0
C348 C 0.34246 0.16242 0.93795 0.0
C349 C 0.36232 0.09695 0.89919 0.0
C350 C 0.34268 0.08711 0.92589 0.0
C351 C 0.33277 0.12013 0.94538 0.0
N352 N 0.37191 0.13848 0.89212 0.0
C353 C 0.36208 0.17104 0.91105 0.0
Co354 Co 0.82242 0.50988 0.37891 0.0
Co355 Co 0.848 0.41268 0.34718 0.0
O356 O 0.81735 0.44737 0.3762 0.0
C357 C 0.84069 0.4801 0.43885 0.0
O358 O 0.86492 0.45044 0.42696 0.0
C359 C 0.75723 0.38447 0.34309 0.0
O360 O 0.74589 0.42496 0.34452 0.0
O361 O 0.82572 0.44964 0.31486 0.0
O362 O 0.82456 0.51571 0.33476 0.0
H363 H 0.94023 0.38933 0.25822 0.0
H364 H 0.75131 0.4678 0.41108 0.0
O365 O 0.81996 0.50627 0.4228 0.0
H366 H 0.68099 0.56404 0.33992 0.0
H367 H 0.78197 0.6552 0.41872 0.0
H368 H 0.88345 0.57558 0.35623 0.0
H369 H 0.75992 0.56049 0.34303 0.0
H370 H 0.77533 0.57688 0.41282 0.0
O371 O 0.79671 0.37394 0.34354 0.0
H372 H 0.90306 0.43227 0.29591 0.0
H373 H 0.85538 0.31862 0.33569 0.0
H374 H 0.89098 0.65387 0.36116 0.0
H375 H 0.67226 0.47093 0.40906 0.0
H376 H 0.83989 0.69435 0.39256 0.0
H377 H 0.63659 0.51915 0.37316 0.0
O378 O 0.88636 0.50515 0.38054 0.0
H379 H 0.83526 0.32587 0.43963 0.0
H380 H 0.93458 0.37929 0.36375 0.0
H381 H 0.96284 0.33596 0.40468 0.0
H382 H 0.91303 0.3089 0.44298 0.0
H383 H 0.80845 0.36978 0.39853 0.0
H384 H 0.89177 0.27443 0.29829 0.0
H385 H 0.9347 0.3098 0.25926 0.0
O386 O 0.90057 0.44969 0.35043 0.0
C387 C 0.82215 0.49038 0.31268 0.0
C388 C 0.92178 0.37353 0.27519 0.0
C389 C 0.89453 0.30905 0.29766 0.0
N390 N 0.87746 0.37796 0.31816 0.0
C391 C 0.90078 0.39767 0.29665 0.0
C392 C 0.87395 0.33424 0.31875 0.0
C393 C 0.91861 0.32891 0.27576 0.0
C394 C 0.73604 0.48925 0.39565 0.0
N395 N 0.76025 0.5139 0.37721 0.0
C396 C 0.69126 0.49073 0.3945 0.0
C397 C 0.67127 0.51772 0.37431 0.0
C398 C 0.69616 0.54286 0.35562 0.0
C399 C 0.74087 0.54053 0.35738 0.0
C400 C 0.80395 0.63806 0.40454 0.0
C401 C 0.86027 0.59298 0.36914 0.0
C402 C 0.80018 0.5937 0.40093 0.0
N403 N 0.82754 0.57181 0.38283 0.0
C404 C 0.86506 0.63733 0.37221 0.0
C405 C 0.8365 0.65999 0.38991 0.0
C406 C 0.91229 0.48181 0.36586 0.0
C407 C 0.85727 0.33736 0.42303 0.0
C408 C 0.9127 0.36772 0.38036 0.0
C409 C 0.92888 0.34311 0.40345 0.0
C410 C 0.90092 0.32791 0.42492 0.0
N411 N 0.86986 0.37699 0.37871 0.0
C412 C 0.84223 0.36206 0.39962 0.0
Co413 Co 0.49992 0.82394 0.87721 0.0
Co414 Co 0.60207 0.84568 0.851 0.0
O415 O 0.56225 0.81625 0.87728 0.0
C416 C 0.52886 0.84154 0.93754 0.0
O417 O 0.56195 0.86097 0.92581 0.0
C418 C 0.62281 0.75316 0.84472 0.0
O419 O 0.58146 0.74543 0.8443 0.0
O420 O 0.56659 0.82858 0.81637 0.0
O421 O 0.49865 0.8234 0.83323 0.0
H422 H 0.64548 0.93141 0.76213 0.0
H423 H 0.53707 0.75311 0.91263 0.0
O424 O 0.50015 0.82455 0.92136 0.0
H425 H 0.44239 0.68272 0.84063 0.0
H426 H 0.35016 0.7968 0.91423 0.0
H427 H 0.43845 0.87732 0.84341 0.0
H428 H 0.44923 0.76154 0.84168 0.0
H429 H 0.42874 0.78708 0.91283 0.0
O430 O 0.6367 0.79144 0.8471 0.0
H431 H 0.5947 0.89587 0.79546 0.0
H432 H 0.69758 0.85045 0.84789 0.0
H433 H 0.35999 0.8878 0.84385 0.0
H434 H 0.53071 0.67424 0.91268 0.0
H435 H 0.31527 0.84735 0.87948 0.0
H436 H 0.48325 0.6385 0.87636 0.0
O437 O 0.50593 0.88775 0.87692 0.0
H438 H 0.67992 0.81823 0.94576 0.0
H439 H 0.63856 0.92826 0.8733 0.0
H440 H 0.67949 0.94955 0.91722 0.0
H441 H 0.70053 0.89433 0.95379 0.0
H442 H 0.63831 0.79843 0.90184 0.0
H443 H 0.74973 0.88481 0.81481 0.0
H444 H 0.7238 0.92611 0.77171 0.0
O445 O 0.56889 0.90146 0.85464 0.0
C446 C 0.5263 0.82316 0.81256 0.0
C447 C 0.65718 0.91434 0.7812 0.0
C448 C 0.71566 0.8881 0.8107 0.0
N449 N 0.64275 0.87333 0.82471 0.0
C450 C 0.6284 0.89475 0.80049 0.0
C451 C 0.68589 0.86895 0.8295 0.0
C452 C 0.70111 0.9112 0.78651 0.0
C453 C 0.51599 0.73786 0.89702 0.0
N454 N 0.49355 0.76196 0.87725 0.0
C455 C 0.51265 0.69315 0.89705 0.0
C456 C 0.48608 0.67312 0.87663 0.0
C457 C 0.46318 0.69791 0.85657 0.0
C458 C 0.46731 0.74254 0.85721 0.0
C459 C 0.36928 0.81452 0.89855 0.0
C460 C 0.4192 0.85937 0.85878 0.0
C461 C 0.41379 0.80919 0.89768 0.0
N462 N 0.4381 0.83129 0.87782 0.0
C463 C 0.37478 0.86554 0.85902 0.0
C464 C 0.34972 0.84288 0.87904 0.0
C465 C 0.53332 0.91383 0.86609 0.0
C466 C 0.67108 0.84256 0.92992 0.0
C467 C 0.64728 0.90406 0.88921 0.0
C468 C 0.67066 0.91629 0.91397 0.0
C469 C 0.68253 0.88528 0.93446 0.0
N470 N 0.63604 0.86209 0.88494 0.0
C471 C 0.64776 0.83149 0.90488 0.0
Co472 Co 0.81433 0.49124 0.87914 0.0
Co473 Co 0.8389 0.58779 0.84624 0.0
O474 O 0.80897 0.55366 0.87588 0.0
C475 C 0.83396 0.52224 0.93851 0.0
O476 O 0.85718 0.55214 0.92603 0.0
C477 C 0.74782 0.61534 0.84305 0.0
O478 O 0.73677 0.57487 0.84533 0.0
O479 O 0.81636 0.55013 0.81448 0.0
O480 O 0.8157 0.48454 0.83504 0.0
H481 H 0.92942 0.60963 0.75629 0.0
H482 H 0.74385 0.5341 0.91149 0.0
O483 O 0.81289 0.49569 0.92299 0.0
H484 H 0.67225 0.43607 0.84212 0.0
H485 H 0.77544 0.34667 0.92081 0.0
H486 H 0.87531 0.42529 0.85659 0.0
H487 H 0.75124 0.4397 0.84445 0.0
H488 H 0.76811 0.42478 0.91404 0.0
O489 O 0.78724 0.62614 0.84254 0.0
H490 H 0.89314 0.56734 0.79468 0.0
H491 H 0.84568 0.6816 0.83385 0.0
H492 H 0.88356 0.34722 0.86247 0.0
H493 H 0.66477 0.53104 0.91018 0.0
H494 H 0.83329 0.30723 0.89472 0.0
H495 H 0.62845 0.48186 0.87521 0.0
O496 O 0.87818 0.49609 0.88014 0.0
H497 H 0.82753 0.67667 0.9379 0.0
H498 H 0.92568 0.62145 0.86187 0.0
H499 H 0.95458 0.66557 0.90218 0.0
H500 H 0.90536 0.69356 0.94055 0.0
H501 H 0.8001 0.63194 0.89744 0.0
H502 H 0.88123 0.72517 0.79577 0.0
H503 H 0.92358 0.68917 0.75669 0.0
O504 O 0.89163 0.55095 0.8494 0.0
C505 C 0.81298 0.50935 0.81271 0.0
C506 C 0.91122 0.62571 0.77328 0.0
C507 C 0.88411 0.69055 0.79541 0.0
N508 N 0.86769 0.62199 0.81665 0.0
C509 C 0.89072 0.60193 0.79513 0.0
C510 C 0.86402 0.66571 0.8169 0.0
C511 C 0.90788 0.67033 0.77349 0.0
C512 C 0.72829 0.51225 0.89647 0.0
N513 N 0.75216 0.4871 0.87811 0.0
C514 C 0.6835 0.51081 0.89572 0.0
C515 C 0.66314 0.48329 0.87604 0.0
C516 C 0.6877 0.45764 0.85744 0.0
C517 C 0.73243 0.46 0.85876 0.0
C518 C 0.79707 0.36358 0.90627 0.0
C519 C 0.8525 0.4081 0.86995 0.0
C520 C 0.79288 0.40782 0.90216 0.0
N521 N 0.8198 0.42941 0.88361 0.0
C522 C 0.85769 0.36387 0.87351 0.0
C523 C 0.82958 0.34149 0.89168 0.0
C524 C 0.90371 0.51909 0.86495 0.0
C525 C 0.84928 0.6648 0.92126 0.0
C526 C 0.90405 0.6334 0.87852 0.0
C527 C 0.9206 0.65846 0.90125 0.0
C528 C 0.89296 0.67419 0.92276 0.0
N529 N 0.86118 0.62422 0.87723 0.0
C530 C 0.83388 0.63964 0.89819 0.0
Co531 Co 0.50711 0.82456 0.37505 0.0
Co532 Co 0.40426 0.85035 0.35112 0.0
O533 O 0.44444 0.81989 0.3766 0.0
C534 C 0.48031 0.84313 0.43681 0.0
O535 O 0.44435 0.8577 0.42578 0.0
C536 C 0.38256 0.75823 0.3438 0.0
O537 O 0.42379 0.74989 0.34265 0.0
O538 O 0.43868 0.83377 0.31592 0.0
O539 O 0.50599 0.81915 0.33131 0.0
H540 H 0.35811 0.93502 0.26216 0.0
H541 H 0.46378 0.75905 0.41199 0.0
O542 O 0.50984 0.83017 0.41947 0.0
H543 H 0.55909 0.67752 0.34603 0.0
H544 H 0.65795 0.79492 0.40941 0.0
H545 H 0.56848 0.87069 0.33672 0.0
H546 H 0.55621 0.75654 0.3436 0.0
H547 H 0.57905 0.7886 0.41071 0.0
O548 O 0.36912 0.7966 0.34681 0.0
H549 H 0.40964 0.89855 0.29431 0.0
H550 H 0.30877 0.85812 0.3503 0.0
H551 H 0.64729 0.87762 0.33445 0.0
H552 H 0.46583 0.68008 0.41533 0.0
H553 H 0.69258 0.83956 0.37099 0.0
H554 H 0.51376 0.63875 0.38217 0.0
O555 O 0.5042 0.88824 0.37144 0.0
H556 H 0.32662 0.82133 0.44582 0.0
H557 H 0.37049 0.93301 0.37533 0.0
H558 H 0.33101 0.95374 0.41996 0.0
H559 H 0.30869 0.8977 0.45556 0.0
H560 H 0.36715 0.80211 0.40134 0.0
H561 H 0.25585 0.89357 0.31843 0.0
H562 H 0.28037 0.93292 0.27414 0.0
O563 O 0.43829 0.90548 0.35524 0.0
C564 C 0.47765 0.82286 0.31127 0.0
C565 C 0.34708 0.91903 0.28184 0.0
C566 C 0.28972 0.89569 0.31336 0.0
N567 N 0.36299 0.87899 0.32559 0.0
C568 C 0.37639 0.89898 0.30054 0.0
C569 C 0.32001 0.87604 0.33153 0.0
C570 C 0.30347 0.91766 0.28848 0.0
C571 C 0.48508 0.74134 0.39773 0.0
N572 N 0.51043 0.76247 0.37803 0.0
C573 C 0.48598 0.6966 0.39963 0.0
C574 C 0.51282 0.67343 0.38099 0.0
C575 C 0.53828 0.69517 0.36074 0.0
C576 C 0.53657 0.73993 0.3595 0.0
C577 C 0.63856 0.81163 0.39336 0.0
C578 C 0.58798 0.85384 0.3526 0.0
C579 C 0.59386 0.80827 0.39405 0.0
N580 N 0.5692 0.82906 0.37372 0.0
C581 C 0.63258 0.85798 0.35125 0.0
C582 C 0.65797 0.83666 0.37178 0.0
C583 C 0.47623 0.91592 0.36359 0.0
C584 C 0.33608 0.84603 0.43044 0.0
C585 C 0.36137 0.90843 0.39084 0.0
C586 C 0.33874 0.92036 0.416 0.0
C587 C 0.32613 0.8889 0.43593 0.0
N588 N 0.37126 0.86631 0.38567 0.0
C589 C 0.35874 0.83527 0.40505 0.0
Co590 Co 0.173 0.49535 0.87347 0.0
Co591 Co 0.14802 0.39583 0.84341 0.0
O592 O 0.17794 0.43263 0.87162 0.0
C593 C 0.17065 0.46249 0.93598 0.0
O594 O 0.17371 0.42301 0.92642 0.0
C595 C 0.23961 0.37102 0.83879 0.0
O596 O 0.2493 0.41191 0.84002 0.0
O597 O 0.16844 0.43249 0.81039 0.0
O598 O 0.17439 0.49907 0.82951 0.0
H599 H 0.06265 0.36334 0.75228 0.0
H600 H 0.24397 0.45122 0.90623 0.0
O601 O 0.17035 0.49408 0.91804 0.0
H602 H 0.3156 0.55228 0.83924 0.0
H603 H 0.20699 0.64254 0.91302 0.0
H604 H 0.12009 0.56044 0.84237 0.0
H605 H 0.23672 0.54748 0.84054 0.0
H606 H 0.21386 0.5639 0.90972 0.0
O607 O 0.20063 0.35885 0.83957 0.0
H608 H 0.09923 0.40983 0.788 0.0
H609 H 0.13944 0.30101 0.83667 0.0
H610 H 0.11248 0.63906 0.84455 0.0
H611 H 0.32267 0.45538 0.90596 0.0
H612 H 0.15616 0.68073 0.88013 0.0
H613 H 0.35921 0.50617 0.87222 0.0
O614 O 0.10926 0.49132 0.87241 0.0
H615 H 0.1659 0.30683 0.93474 0.0
H616 H 0.0621 0.36414 0.86313 0.0
H617 H 0.03603 0.32142 0.90489 0.0
H618 H 0.08806 0.29235 0.94108 0.0
H619 H 0.19054 0.35064 0.8931 0.0
H620 H 0.1039 0.25309 0.80121 0.0
H621 H 0.06475 0.28421 0.75877 0.0
O622 O 0.0942 0.43143 0.84674 0.0
C623 C 0.17444 0.47288 0.80794 0.0
C624 C 0.07891 0.34939 0.77098 0.0
C625 C 0.10214 0.28755 0.79839 0.0
N626 N 0.11961 0.3585 0.81528 0.0
C627 C 0.09917 0.37571 0.79154 0.0
C628 C 0.12202 0.31491 0.8185 0.0
C629 C 0.08023 0.30501 0.77457 0.0
C630 C 0.25925 0.47392 0.89188 0.0
N631 N 0.23538 0.49957 0.87387 0.0
C632 C 0.30404 0.47593 0.89165 0.0
C633 C 0.32452 0.50433 0.87267 0.0
C634 C 0.30008 0.53018 0.85417 0.0
C635 C 0.25536 0.52726 0.855 0.0
C636 C 0.18788 0.62478 0.89735 0.0
C637 C 0.13953 0.57827 0.85761 0.0
C638 C 0.19156 0.58017 0.89544 0.0
N639 N 0.16781 0.55748 0.87556 0.0
C640 C 0.13493 0.62283 0.85889 0.0
C641 C 0.15938 0.64619 0.87889 0.0
C642 C 0.08284 0.46609 0.8597 0.0
C643 C 0.14289 0.31936 0.91915 0.0
C644 C 0.08499 0.35225 0.87897 0.0
C645 C 0.07001 0.32772 0.90247 0.0
C646 C 0.09922 0.31133 0.92272 0.0
N647 N 0.12788 0.36047 0.87578 0.0
C648 C 0.1567 0.34401 0.89537 0.0
Co649 Co 0.50617 0.18792 0.37548 0.0
Co650 Co 0.60898 0.15629 0.35465 0.0
O651 O 0.56886 0.1897 0.37842 0.0
C652 C 0.52673 0.16281 0.43616 0.0
O653 O 0.55688 0.13843 0.42504 0.0
C654 C 0.63138 0.24756 0.34407 0.0
O655 O 0.59023 0.25546 0.34127 0.0
O656 O 0.57652 0.17011 0.31823 0.0
O657 O 0.50955 0.1905 0.33134 0.0
H658 H 0.65522 0.04125 0.28325 0.0
H659 H 0.54866 0.25306 0.41304 0.0
O660 O 0.50275 0.18525 0.41952 0.0
H661 H 0.45979 0.3355 0.34357 0.0
H662 H 0.35693 0.22261 0.41079 0.0
H663 H 0.44165 0.15038 0.33418 0.0
H664 H 0.4608 0.25637 0.34198 0.0
H665 H 0.43588 0.22477 0.41205 0.0
O666 O 0.64476 0.20958 0.34911 0.0
H667 H 0.60387 0.08072 0.31384 0.0
H668 H 0.70395 0.15972 0.34661 0.0
H669 H 0.36292 0.14748 0.33201 0.0
H670 H 0.54858 0.33213 0.41556 0.0
H671 H 0.31982 0.18374 0.37057 0.0
H672 H 0.50401 0.37393 0.38053 0.0
O673 O 0.50631 0.12382 0.37365 0.0
H674 H 0.68472 0.18989 0.44931 0.0
H675 H 0.64453 0.07559 0.37979 0.0
H676 H 0.68528 0.05702 0.42437 0.0
H677 H 0.70565 0.11443 0.45953 0.0
H678 H 0.64317 0.20677 0.40475 0.0
H679 H 0.75653 0.12091 0.31639 0.0
H680 H 0.73236 0.06125 0.28428 0.0
O681 O 0.57294 0.10314 0.36001 0.0
C682 C 0.53841 0.18245 0.31207 0.0
C683 C 0.66609 0.06762 0.29681 0.0
C684 C 0.72291 0.11229 0.3154 0.0
N685 N 0.65014 0.12397 0.33116 0.0
C686 C 0.63689 0.09053 0.31401 0.0
C687 C 0.69276 0.1345 0.33227 0.0
C688 C 0.70936 0.07878 0.29744 0.0
C689 C 0.52917 0.27101 0.3978 0.0
N690 N 0.50518 0.25014 0.3772 0.0
C691 C 0.52923 0.31579 0.39931 0.0
C692 C 0.50425 0.33922 0.37965 0.0
C693 C 0.47946 0.31768 0.35889 0.0
C694 C 0.48024 0.27287 0.35805 0.0
C695 C 0.37534 0.20634 0.394 0.0
C696 C 0.42346 0.16572 0.35122 0.0
C697 C 0.42016 0.20714 0.39471 0.0
N698 N 0.44373 0.18672 0.37357 0.0
C699 C 0.37869 0.16422 0.3498 0.0
C700 C 0.35453 0.18459 0.37141 0.0
C701 C 0.53397 0.09504 0.36708 0.0
C702 C 0.67589 0.16456 0.43423 0.0
C703 C 0.65297 0.10071 0.39509 0.0
C704 C 0.67619 0.09001 0.42025 0.0
C705 C 0.68763 0.12223 0.43995 0.0
N706 N 0.64109 0.14223 0.38981 0.0
C707 C 0.65245 0.17399 0.40892 0.0
Co708 Co 0.81607 0.4992 0.62632 0.0
Co709 Co 0.84769 0.39579 0.64541 0.0
O710 O 0.81343 0.43666 0.62275 0.0
C711 C 0.83899 0.47862 0.56529 0.0
O712 O 0.86249 0.44766 0.57622 0.0
C713 C 0.75663 0.37293 0.65632 0.0
O714 O 0.74866 0.41397 0.65968 0.0
O715 O 0.83426 0.42694 0.68255 0.0
O716 O 0.81414 0.49449 0.67056 0.0
H717 H 0.9652 0.34709 0.71415 0.0
H718 H 0.7493 0.45776 0.5896 0.0
O719 O 0.81799 0.50365 0.58219 0.0
H720 H 0.67 0.54887 0.65934 0.0
H721 H 0.7824 0.65054 0.59497 0.0
H722 H 0.85982 0.56043 0.66635 0.0
H723 H 0.74912 0.5461 0.66033 0.0
H724 H 0.77818 0.57161 0.5922 0.0
O725 O 0.79457 0.35976 0.6509 0.0
H726 H 0.92489 0.39947 0.68495 0.0
H727 H 0.84428 0.3006 0.65218 0.0
H728 H 0.86464 0.63916 0.67013 0.0
H729 H 0.67022 0.45937 0.58774 0.0
H730 H 0.82575 0.68484 0.63423 0.0
H731 H 0.62997 0.50514 0.6229 0.0
O732 O 0.87988 0.49848 0.62731 0.0
H733 H 0.81197 0.3251 0.54932 0.0
H734 H 0.92792 0.36165 0.61853 0.0
H735 H 0.94548 0.32363 0.57266 0.0
H736 H 0.88726 0.30515 0.53763 0.0
H737 H 0.79604 0.36359 0.59529 0.0
H738 H 0.88396 0.24705 0.68102 0.0
H739 H 0.94484 0.27008 0.71245 0.0
O740 O 0.90095 0.43185 0.64004 0.0
C741 C 0.8219 0.46484 0.68941 0.0
C742 C 0.93827 0.33672 0.70092 0.0
C743 C 0.89271 0.28061 0.68234 0.0
N744 N 0.88069 0.35386 0.66781 0.0
C745 C 0.91485 0.36649 0.68452 0.0
C746 C 0.87 0.31131 0.66627 0.0
C747 C 0.92692 0.29352 0.69991 0.0
C748 C 0.73205 0.47763 0.60492 0.0
N749 N 0.7538 0.5013 0.62525 0.0
C750 C 0.68724 0.47849 0.60378 0.0
C751 C 0.6647 0.50416 0.62351 0.0
C752 C 0.68712 0.52868 0.64396 0.0
C753 C 0.73192 0.52693 0.64444 0.0
C754 C 0.79952 0.63099 0.61073 0.0
C755 C 0.84272 0.57999 0.65073 0.0
C756 C 0.79741 0.58626 0.6092 0.0
N757 N 0.81875 0.56135 0.62913 0.0
C758 C 0.8456 0.62461 0.65294 0.0
C759 C 0.82381 0.65021 0.63278 0.0
C760 C 0.90881 0.47084 0.63307 0.0
C761 C 0.83763 0.33299 0.56438 0.0
C762 C 0.90241 0.35384 0.60338 0.0
C763 C 0.91255 0.33222 0.57746 0.0
C764 C 0.87988 0.32184 0.55783 0.0
N765 N 0.86095 0.36507 0.60952 0.0
C766 C 0.82874 0.35468 0.5905 0.0
Co767 Co 0.50194 0.82264 0.12422 0.0
Co768 Co 0.60214 0.84918 0.15185 0.0
O769 O 0.5646 0.81842 0.12477 0.0
C770 C 0.53038 0.84244 0.06403 0.0
O771 O 0.56218 0.86396 0.07577 0.0
C772 C 0.62721 0.7578 0.15744 0.0
O773 O 0.58633 0.74791 0.15686 0.0
O774 O 0.56664 0.82973 0.18586 0.0
O775 O 0.49943 0.82179 0.1682 0.0
H776 H 0.63875 0.93597 0.24174 0.0
H777 H 0.54401 0.75452 0.0889 0.0
O778 O 0.50302 0.82341 0.08017 0.0
H779 H 0.45213 0.67789 0.15963 0.0
H780 H 0.35516 0.78608 0.08542 0.0
H781 H 0.4363 0.87343 0.15638 0.0
H782 H 0.45421 0.75699 0.15896 0.0
H783 H 0.43407 0.78101 0.08806 0.0
O784 O 0.63925 0.79676 0.15588 0.0
H785 H 0.59072 0.89856 0.20748 0.0
H786 H 0.69716 0.85833 0.15643 0.0
H787 H 0.35744 0.87928 0.15476 0.0
H788 H 0.54248 0.67541 0.08855 0.0
H789 H 0.31628 0.83535 0.11904 0.0
H790 H 0.49642 0.63654 0.1242 0.0
O791 O 0.5046 0.88683 0.12486 0.0
H792 H 0.68448 0.82768 0.05815 0.0
H793 H 0.63495 0.93395 0.13083 0.0
H794 H 0.67627 0.95821 0.08783 0.0
H795 H 0.70146 0.90489 0.05115 0.0
H796 H 0.6423 0.80492 0.10112 0.0
H797 H 0.74664 0.89464 0.19045 0.0
H798 H 0.71751 0.93427 0.23333 0.0
O799 O 0.56632 0.90298 0.14814 0.0
C800 C 0.52654 0.82258 0.18921 0.0
C801 C 0.65181 0.91962 0.22278 0.0
C802 C 0.71234 0.89634 0.19406 0.0
N803 N 0.64063 0.8784 0.1789 0.0
C804 C 0.62456 0.89896 0.20298 0.0
C805 C 0.68407 0.87606 0.17474 0.0
C806 C 0.69599 0.9185 0.21813 0.0
C807 C 0.5235 0.73788 0.10424 0.0
N808 N 0.49918 0.7604 0.12387 0.0
C809 C 0.52291 0.69306 0.10403 0.0
C810 C 0.49714 0.67127 0.12408 0.0
C811 C 0.47232 0.69445 0.14399 0.0
C812 C 0.47375 0.73926 0.14357 0.0
C813 C 0.3727 0.80523 0.10118 0.0
C814 C 0.41865 0.85388 0.14108 0.0
C815 C 0.4174 0.80251 0.10278 0.0
N816 N 0.43978 0.82642 0.12274 0.0
C817 C 0.37397 0.85748 0.14012 0.0
C818 C 0.35091 0.83288 0.12005 0.0
C819 C 0.5306 0.91387 0.13626 0.0
C820 C 0.67379 0.85121 0.07401 0.0
C821 C 0.64542 0.91056 0.11485 0.0
C822 C 0.66903 0.92448 0.09061 0.0
C823 C 0.68322 0.89454 0.07007 0.0
N824 N 0.63618 0.86799 0.11854 0.0
C825 C 0.65011 0.83846 0.09851 0.0
Co826 Co 0.17588 0.49703 0.62325 0.0
Co827 Co 0.15531 0.6011 0.64641 0.0
O828 O 0.18464 0.55917 0.62162 0.0
C829 C 0.15842 0.52379 0.56243 0.0
O830 O 0.13882 0.55717 0.57367 0.0
C831 C 0.24769 0.61989 0.65492 0.0
O832 O 0.25447 0.57855 0.65778 0.0
O833 O 0.17047 0.56703 0.68202 0.0
O834 O 0.1771 0.49819 0.66712 0.0
H835 H 0.07326 0.65317 0.73499 0.0
H836 H 0.24742 0.53218 0.58744 0.0
O837 O 0.17491 0.4953 0.57906 0.0
H838 H 0.31591 0.43599 0.65932 0.0
H839 H 0.19818 0.34484 0.58935 0.0
H840 H 0.12282 0.43874 0.65962 0.0
H841 H 0.23731 0.44526 0.65871 0.0
H842 H 0.20975 0.42318 0.58865 0.0
O843 O 0.21009 0.63435 0.65029 0.0
H844 H 0.10687 0.5992 0.70322 0.0
H845 H 0.15115 0.69679 0.64586 0.0
H846 H 0.11058 0.36054 0.66127 0.0
H847 H 0.32607 0.52354 0.58697 0.0
H848 H 0.14841 0.31304 0.62594 0.0
H849 H 0.36088 0.47525 0.62322 0.0
O850 O 0.11216 0.50398 0.62402 0.0
H851 H 0.18767 0.67397 0.55055 0.0
H852 H 0.07415 0.63764 0.6217 0.0
H853 H 0.05522 0.67663 0.57649 0.0
H854 H 0.1122 0.69515 0.54056 0.0
H855 H 0.20511 0.63421 0.59573 0.0
H856 H 0.11841 0.75202 0.67724 0.0
H857 H 0.07862 0.73041 0.72206 0.0
O858 O 0.09888 0.56915 0.64292 0.0
C859 C 0.17654 0.52711 0.68694 0.0
C860 C 0.08951 0.66298 0.71512 0.0
C861 C 0.11488 0.71841 0.68275 0.0
N862 N 0.12827 0.64419 0.67136 0.0
C863 C 0.10805 0.63233 0.69668 0.0
C864 C 0.13297 0.68683 0.66485 0.0
C865 C 0.09269 0.70629 0.70792 0.0
C866 C 0.26224 0.51087 0.60305 0.0
N867 N 0.23773 0.48927 0.62299 0.0
C868 C 0.30684 0.50617 0.60277 0.0
C869 C 0.32635 0.47912 0.62314 0.0
C870 C 0.30114 0.4571 0.6434 0.0
C871 C 0.25664 0.46257 0.64298 0.0
C872 C 0.18157 0.3652 0.60489 0.0
C873 C 0.13962 0.41823 0.64431 0.0
C874 C 0.18792 0.40957 0.60456 0.0
N875 N 0.16724 0.43543 0.62423 0.0
C876 C 0.13245 0.374 0.64529 0.0
C877 C 0.15365 0.34737 0.62544 0.0
C878 C 0.08615 0.53248 0.63355 0.0
C879 C 0.16257 0.66618 0.56608 0.0
C880 C 0.0991 0.64516 0.60607 0.0
C881 C 0.08821 0.6675 0.58057 0.0
C882 C 0.12021 0.67796 0.56045 0.0
N883 N 0.14073 0.63355 0.61139 0.0
C884 C 0.17229 0.64389 0.59181 0.0
Co885 Co 0.51041 0.18283 0.12302 0.0
Co886 Co 0.41271 0.16028 0.15496 0.0
O887 O 0.44791 0.19014 0.12571 0.0
C888 C 0.48087 0.17012 0.06167 0.0
O889 O 0.44848 0.14812 0.07225 0.0
C890 C 0.38549 0.25157 0.15904 0.0
O891 O 0.42596 0.2626 0.15711 0.0
O892 O 0.45017 0.18224 0.18705 0.0
O893 O 0.516 0.179 0.16707 0.0
H894 H 0.38881 0.06895 0.24425 0.0
H895 H 0.46601 0.25752 0.09676 0.0
O896 O 0.50801 0.18713 0.07901 0.0
H897 H 0.57451 0.31935 0.16303 0.0
H898 H 0.65782 0.21743 0.08419 0.0
H899 H 0.57309 0.11858 0.14542 0.0
H900 H 0.56713 0.24088 0.158 0.0
H901 H 0.57977 0.22755 0.0898 0.0
O902 O 0.37463 0.21219 0.15876 0.0
H903 H 0.43193 0.10527 0.2063 0.0
H904 H 0.3186 0.15436 0.1668 0.0
H905 H 0.65104 0.10756 0.14078 0.0
H906 H 0.47292 0.33622 0.10043 0.0
H907 H 0.69408 0.15731 0.11002 0.0
H908 H 0.52746 0.36763 0.1339 0.0
O909 O 0.50284 0.11937 0.12006 0.0
H910 H 0.3253 0.17366 0.06279 0.0
H911 H 0.37765 0.07418 0.13893 0.0
H912 H 0.33333 0.04633 0.0984 0.0
H913 H 0.30677 0.09623 0.05997 0.0
H914 H 0.37025 0.20003 0.1035 0.0
H915 H 0.27423 0.11882 0.20446 0.0
H916 H 0.30934 0.07562 0.24347 0.0
O917 O 0.44884 0.10705 0.1517 0.0
C918 C 0.49103 0.18352 0.18915 0.0
C919 C 0.37312 0.08754 0.22729 0.0
C920 C 0.30882 0.11558 0.20498 0.0
N921 N 0.37779 0.13155 0.18419 0.0
C922 C 0.39736 0.10806 0.20569 0.0
C923 C 0.33411 0.13568 0.18374 0.0
C924 C 0.32854 0.09134 0.22686 0.0
C925 C 0.49073 0.271 0.11053 0.0
N926 N 0.5171 0.24465 0.12626 0.0
C927 C 0.4941 0.31556 0.11289 0.0
C928 C 0.52455 0.33315 0.13177 0.0
C929 C 0.55094 0.30608 0.14813 0.0
C930 C 0.54659 0.26167 0.1452 0.0
C931 C 0.63956 0.19597 0.09806 0.0
C932 C 0.59165 0.14113 0.13277 0.0
C933 C 0.59536 0.20167 0.10147 0.0
N934 N 0.57211 0.17503 0.11925 0.0
C935 C 0.63578 0.13439 0.12987 0.0
C936 C 0.65988 0.1622 0.11253 0.0
C937 C 0.47959 0.09423 0.13538 0.0
C938 C 0.33658 0.15162 0.07944 0.0
C939 C 0.36634 0.09611 0.12226 0.0
C940 C 0.34115 0.08015 0.09939 0.0
C941 C 0.32625 0.10816 0.07785 0.0
N942 N 0.37644 0.13876 0.12363 0.0
C943 C 0.36186 0.16642 0.10263 0.0
C944 C 0.01337 0.47343 0.16026 0.0
C945 C 0.04198 0.47975 0.13617 0.0
C946 C 0.98511 0.52056 0.11071 0.0
C947 C 0.95615 0.51168 0.13385 0.0
N948 N 0.94042 0.4733 0.17844 0.0
N949 N 0.04924 0.49868 0.08494 0.0
C950 C 0.96957 0.48591 0.15778 0.0
C951 C 0.02616 0.50041 0.1104 0.0
N952 N 0.0281 0.45793 0.18633 0.0
N953 N 0.97361 0.54841 0.08895 0.0
H954 H 0.07805 0.48199 0.08308 0.0
H955 H 0.03747 0.50932 0.06483 0.0
H956 H 0.94346 0.56273 0.08794 0.0
H957 H 0.99515 0.56002 0.07338 0.0
H958 H 0.01037 0.45843 0.20569 0.0
H959 H 0.05931 0.44798 0.18949 0.0
H960 H 0.94653 0.44953 0.19396 0.0
H961 H 0.909 0.48455 0.1789 0.0
C962 C 0.48379 0.9797 0.61053 0.0
C963 C 0.47258 0.961 0.63794 0.0
C964 C 0.4983 0.0254 0.66332 0.0
C965 C 0.50892 0.04478 0.6361 0.0
N966 N 0.51874 0.03765 0.58401 0.0
N967 N 0.45475 0.974 0.68876 0.0
C968 C 0.50307 0.0213 0.60966 0.0
C969 C 0.47567 0.98602 0.66384 0.0
N970 N 0.47365 0.95838 0.58525 0.0
N971 N 0.51109 0.04358 0.68906 0.0
H972 H 0.43575 0.94692 0.68998 0.0
H973 H 0.45185 0.99368 0.70714 0.0
H974 H 0.52588 0.07324 0.6902 0.0
H975 H 0.50983 0.02767 0.70916 0.0
H976 H 0.47713 0.97097 0.56428 0.0
H977 H 0.45779 0.92898 0.58537 0.0
H978 H 0.51914 0.02132 0.56413 0.0
H979 H 0.53527 0.06658 0.58312 0.0
C980 C 0.02585 0.50818 0.39077 0.0
C981 C 0.04485 0.52383 0.36443 0.0
C982 C 0.97541 0.51343 0.33925 0.0
C983 C 0.95829 0.49447 0.36495 0.0
N984 N 0.97052 0.4642 0.41271 0.0
N985 N 0.03761 0.5372 0.31236 0.0
C986 C 0.98445 0.48913 0.39001 0.0
C987 C 0.01944 0.52569 0.33838 0.0
N988 N 0.04631 0.51358 0.41695 0.0
N989 N 0.94935 0.52006 0.31559 0.0
H990 H 0.06902 0.54736 0.31059 0.0
H991 H 0.02284 0.53354 0.29204 0.0
H992 H 0.91817 0.50823 0.31448 0.0
H993 H 0.95763 0.53912 0.29773 0.0
H994 H 0.03231 0.50657 0.43714 0.0
H995 H 0.07509 0.53004 0.41874 0.0
H996 H 0.98995 0.45539 0.43031 0.0
H997 H 0.94121 0.44822 0.41221 0.0
C998 C 0.50381 0.97895 0.89293 0.0
C999 C 0.52262 0.96111 0.86714 0.0
C1000 C 0.51811 0.0326 0.8441 0.0
C1001 C 0.49361 0.04801 0.8681 0.0
N1002 N 0.4578 0.03357 0.91387 0.0
N1003 N 0.54084 0.97136 0.81596 0.0
C1004 C 0.48466 0.02041 0.89198 0.0
C1005 C 0.52837 0.98817 0.84221 0.0
N1006 N 0.50663 0.95758 0.91896 0.0
N1007 N 0.53148 0.06032 0.8228 0.0
H1008 H 0.54722 0.93913 0.81304 0.0
H1009 H 0.54038 0.98848 0.79634 0.0
H1010 H 0.52232 0.09239 0.82231 0.0
H1011 H 0.55407 0.05225 0.80687 0.0
H1012 H 0.49711 0.97074 0.93894 0.0
H1013 H 0.5236 0.92911 0.92117 0.0
H1014 H 0.44625 0.01303 0.93008 0.0
H1015 H 0.44434 0.06413 0.91448 0.0
C1016 C 0.97616 0.50945 0.88839 0.0
C1017 C 0.94951 0.50603 0.86337 0.0
C1018 C 0.01033 0.4779 0.83502 0.0
C1019 C 0.03611 0.47754 0.86088 0.0
N1020 N 0.03904 0.4834 0.9137 0.0
N1021 N 0.93934 0.4821 0.81364 0.0
C1022 C 0.01769 0.49063 0.88801 0.0
C1023 C 0.96609 0.48881 0.83693 0.0
N1024 N 0.96264 0.53247 0.91213 0.0
N1025 N 0.02828 0.46994 0.8083 0.0
H1026 H 0.90734 0.4917 0.81358 0.0
H1027 H 0.94793 0.46436 0.7952 0.0
H1028 H 0.06012 0.46143 0.8057 0.0
H1029 H 0.01273 0.47542 0.78844 0.0
H1030 H 0.98237 0.53972 0.92991 0.0
H1031 H 0.93336 0.54853 0.91246 0.0
H1032 H 0.0253 0.48822 0.93427 0.0
H1033 H 0.0687 0.46813 0.91453 0.0
C1034 C 0.48973 0.03623 0.34438 0.0
C1035 C 0.51911 0.04953 0.3663 0.0
C1036 C 0.51507 0.97789 0.38868 0.0
C1037 C 0.48912 0.96279 0.36494 0.0
N1038 N 0.45826 0.97813 0.31726 0.0
N1039 N 0.56421 0.03153 0.40737 0.0
C1040 C 0.47779 0.99226 0.34219 0.0
C1041 C 0.5333 0.01981 0.3877 0.0
N1042 N 0.47342 0.06561 0.32513 0.0
N1043 N 0.52037 0.95333 0.41324 0.0
H1044 H 0.57595 0.06267 0.40894 0.0
H1045 H 0.58038 0.00972 0.42072 0.0
H1046 H 0.50664 0.92328 0.41584 0.0
H1047 H 0.53442 0.96456 0.43249 0.0
H1048 H 0.4469 0.05974 0.3118 0.0
H1049 H 0.48494 0.09682 0.3236 0.0
H1050 H 0.45468 0.9966 0.29838 0.0
H1051 H 0.44933 0.94667 0.31412 0.0
C1052 C 0.98194 0.47722 0.60996 0.0
C1053 C 0.95395 0.48652 0.63352 0.0
C1054 C 0.01007 0.531 0.65658 0.0
C1055 C 0.03871 0.52136 0.63287 0.0
N1056 N 0.04412 0.49896 0.58231 0.0
N1057 N 0.94126 0.51907 0.68049 0.0
C1058 C 0.0225 0.49799 0.60834 0.0
C1059 C 0.96785 0.51306 0.65694 0.0
N1060 N 0.97014 0.44799 0.58915 0.0
N1061 N 0.02211 0.55852 0.67832 0.0
H1062 H 0.9097 0.50817 0.68095 0.0
H1063 H 0.95067 0.53223 0.70043 0.0
H1064 H 0.05274 0.57028 0.68062 0.0
H1065 H 1.0012 0.57221 0.69343 0.0
H1066 H 0.99126 0.43575 0.57353 0.0
H1067 H 0.94031 0.43301 0.58909 0.0
H1068 H 0.03211 0.48629 0.56283 0.0
H1069 H 0.07122 0.51776 0.57917 0.0
C1070 C 0.50953 0.02997 0.16161 0.0
C1071 C 0.49086 0.04787 0.13608 0.0
C1072 C 0.50188 0.97997 0.10999 0.0
C1073 C 0.51805 0.96059 0.1361 0.0
N1074 N 0.52988 0.96657 0.18841 0.0
N1075 N 0.45876 0.03677 0.08876 0.0
C1076 C 0.52012 0.98557 0.16232 0.0
C1077 C 0.48397 0.02195 0.11108 0.0
N1078 N 0.51754 0.05557 0.1853 0.0
N1079 N 0.50567 0.95941 0.0837 0.0
H1080 H 0.44441 0.067 0.0892 0.0
H1081 H 0.44864 0.01762 0.07135 0.0
H1082 H 0.52056 0.92981 0.0815 0.0
H1083 H 0.49847 0.97381 0.06367 0.0
H1084 H 0.53662 0.04633 0.20294 0.0
H1085 H 0.50701 0.0872 0.18658 0.0
H1086 H 0.52649 0.98144 0.20873 0.0
H1087 H 0.53742 0.93441 0.19019 0.0
C1088 C 0.22433 0.51385 0.26419 0.0
C1089 C 0.18529 0.51313 0.28033 0.0
C1090 C 0.14567 0.49711 0.23569 0.0
C1091 C 0.18445 0.49255 0.22007 0.0
N1092 N 0.26169 0.49379 0.21929 0.0
N1093 N 0.1117 0.48938 0.2826 0.0
C1094 C 0.22427 0.50023 0.23424 0.0
C1095 C 0.14682 0.50031 0.26646 0.0
N1096 N 0.26121 0.52718 0.27752 0.0
N1097 N 0.10769 0.5006 0.22104 0.0
H1098 H 0.11197 0.48921 0.30542 0.0
H1099 H 0.08419 0.47606 0.27325 0.0
H1100 H 0.10637 0.50215 0.19821 0.0
H1101 H 0.07875 0.50744 0.23157 0.0
H1102 H 0.28978 0.53289 0.26635 0.0
H1103 H 0.26262 0.53407 0.29984 0.0
H1104 H 0.29189 0.49457 0.22905 0.0
H1105 H 0.26228 0.48551 0.19714 0.0
C1106 C 0.47736 0.14687 0.72971 0.0
C1107 C 0.50073 0.18215 0.71825 0.0
C1108 C 0.49485 0.21782 0.76616 0.0
C1109 C 0.47837 0.17937 0.77853 0.0
N1110 N 0.46338 0.10392 0.7724 0.0
N1111 N 0.53345 0.25134 0.7261 0.0
C1112 C 0.47182 0.14309 0.76035 0.0
C1113 C 0.51024 0.21762 0.73671 0.0
N1114 N 0.46032 0.11664 0.71155 0.0
N1115 N 0.49355 0.25506 0.78192 0.0
H1116 H 0.54191 0.25395 0.70411 0.0
H1117 H 0.54591 0.27552 0.73938 0.0
H1118 H 0.47986 0.25673 0.80271 0.0
H1119 H 0.5016 0.28492 0.77327 0.0
H1120 H 0.43865 0.09335 0.71868 0.0
H1121 H 0.46549 0.11652 0.68911 0.0
H1122 H 0.46273 0.07554 0.76029 0.0
H1123 H 0.46242 0.09912 0.7949 0.0
C1124 C 0.85547 0.53694 0.24024 0.0
C1125 C 0.82196 0.52437 0.22111 0.0
C1126 C 0.78435 0.49289 0.26332 0.0
C1127 C 0.81687 0.5086 0.28245 0.0
N1128 N 0.87089 0.56385 0.28822 0.0
N1129 N 0.74791 0.50274 0.21683 0.0
C1130 C 0.84848 0.53645 0.27077 0.0
C1131 C 0.7844 0.50558 0.23324 0.0
N1132 N 0.89498 0.54729 0.22959 0.0
N1133 N 0.75266 0.46708 0.27396 0.0
H1134 H 0.74579 0.51599 0.19594 0.0
H1135 H 0.7186 0.49233 0.22521 0.0
H1136 H 0.74865 0.46158 0.29629 0.0
H1137 H 0.73134 0.45046 0.26049 0.0
H1138 H 0.92116 0.55373 0.24318 0.0
H1139 H 0.90268 0.54359 0.20758 0.0
H1140 H 0.89199 0.58674 0.27979 0.0
H1141 H 0.86416 0.5676 0.31028 0.0
C1142 C 0.50996 0.78145 0.76628 0.0
C1143 C 0.51029 0.82087 0.78197 0.0
C1144 C 0.49384 0.85987 0.737 0.0
C1145 C 0.48919 0.82066 0.72175 0.0
N1146 N 0.4896 0.74341 0.72173 0.0
N1147 N 0.48926 0.89528 0.78381 0.0
C1148 C 0.49639 0.78109 0.73634 0.0
C1149 C 0.49826 0.85941 0.7678 0.0
N1150 N 0.52247 0.74459 0.78001 0.0
N1151 N 0.49582 0.89764 0.72193 0.0
H1152 H 0.48992 0.89546 0.80664 0.0
H1153 H 0.47654 0.92315 0.77458 0.0
H1154 H 0.495 0.89882 0.69911 0.0
H1155 H 0.50332 0.92681 0.7319 0.0
H1156 H 0.52764 0.71562 0.76919 0.0
H1157 H 0.52919 0.74349 0.80236 0.0
H1158 H 0.48992 0.71341 0.73176 0.0
H1159 H 0.48151 0.7424 0.69956 0.0
C1160 C 0.8394 0.46127 0.77186 0.0
C1161 C 0.80829 0.49053 0.78258 0.0
C1162 C 0.77904 0.49448 0.73251 0.0
C1163 C 0.81674 0.47452 0.7214 0.0
N1164 N 0.88809 0.44832 0.73214 0.0
N1165 N 0.74629 0.53454 0.7722 0.0
C1166 C 0.84842 0.46051 0.74155 0.0
C1167 C 0.77761 0.5074 0.76253 0.0
N1168 N 0.85926 0.43279 0.78995 0.0
N1169 N 0.74352 0.49809 0.71523 0.0
H1170 H 0.74117 0.54058 0.79439 0.0
H1171 H 0.72646 0.55179 0.75806 0.0
H1172 H 0.74203 0.48422 0.6945 0.0
H1173 H 0.7141 0.50952 0.72281 0.0
H1174 H 0.88035 0.40932 0.78224 0.0
H1175 H 0.84973 0.42837 0.81146 0.0
H1176 H 0.91301 0.44065 0.7465 0.0
H1177 H 0.89743 0.45162 0.71043 0.0
C1178 C 0.50126 0.78096 0.26636 0.0
C1179 C 0.49199 0.8206 0.28035 0.0
C1180 C 0.49499 0.85733 0.23337 0.0
C1181 C 0.51009 0.81957 0.21968 0.0
N1182 N 0.52947 0.74487 0.22311 0.0
N1183 N 0.49602 0.89761 0.27826 0.0
C1184 C 0.51396 0.78107 0.23621 0.0
C1185 C 0.49337 0.85913 0.26416 0.0
N1186 N 0.49706 0.7435 0.28161 0.0
N1187 N 0.48097 0.89122 0.21714 0.0
H1188 H 0.49977 0.89946 0.30094 0.0
H1189 H 0.50033 0.92659 0.26718 0.0
H1190 H 0.48008 0.89046 0.19434 0.0
H1191 H 0.46628 0.91802 0.22652 0.0
H1192 H 0.49931 0.71326 0.27201 0.0
H1193 H 0.4887 0.74279 0.30374 0.0
H1194 H 0.5375 0.71709 0.23455 0.0
H1195 H 0.5358 0.74339 0.2007 0.0
C1196 C 0.14018 0.50787 0.76465 0.0
C1197 C 0.17756 0.49072 0.77788 0.0
C1198 C 0.21675 0.50118 0.73166 0.0
C1199 C 0.17762 0.51295 0.71788 0.0
N1200 N 0.10038 0.51524 0.71966 0.0
N1201 N 0.25168 0.4694 0.77411 0.0
C1202 C 0.13885 0.51293 0.73393 0.0
C1203 C 0.21602 0.48677 0.76137 0.0
N1204 N 0.10612 0.5203 0.78138 0.0
N1205 N 0.25449 0.50474 0.71662 0.0
H1206 H 0.25299 0.46196 0.79636 0.0
H1207 H 0.27919 0.46092 0.76252 0.0
H1208 H 0.25577 0.51451 0.6948 0.0
H1209 H 0.28457 0.50075 0.72618 0.0
H1210 H 0.0799 0.53699 0.77289 0.0
H1211 H 0.10599 0.51755 0.8041 0.0
H1212 H 0.07095 0.51139 0.73023 0.0
H1213 H 0.09822 0.51595 0.69687 0.0
C1214 C 0.53772 0.15058 0.26167 0.0
C1215 C 0.52696 0.1852 0.28036 0.0
C1216 C 0.49557 0.22249 0.23799 0.0
C1217 C 0.50978 0.18881 0.21921 0.0
N1218 N 0.563 0.13257 0.21376 0.0
N1219 N 0.50651 0.25965 0.28416 0.0
C1220 C 0.53673 0.15653 0.23107 0.0
C1221 C 0.50871 0.22286 0.268 0.0
N1222 N 0.54692 0.11109 0.27288 0.0
N1223 N 0.47076 0.25481 0.22705 0.0
H1224 H 0.51925 0.26175 0.30521 0.0
H1225 H 0.49673 0.28906 0.27559 0.0
H1226 H 0.46523 0.25847 0.20469 0.0
H1227 H 0.45499 0.27708 0.24028 0.0
H1228 H 0.55188 0.08419 0.25966 0.0
H1229 H 0.54385 0.10437 0.2951 0.0
H1230 H 0.58524 0.11087 0.22233 0.0
H1231 H 0.56678 0.1385 0.1916 0.0
C1232 C 0.19921 0.49529 0.98285 0.0
C1233 C 0.16811 0.46957 0.96824 0.0
C1234 C 0.13599 0.44983 0.01563 0.0
C1235 C 0.16828 0.47388 0.03036 0.0
N1236 N 0.23281 0.51666 0.02859 0.0
N1237 N 0.10225 0.42885 0.96995 0.0
C1238 C 0.1998 0.49686 0.01412 0.0
C1239 C 0.1352 0.4487 0.98446 0.0
N1240 N 0.22897 0.51748 0.96687 0.0
N1241 N 0.10719 0.42621 0.03158 0.0
H1242 H 0.10119 0.42543 0.94727 0.0
H1243 H 0.07424 0.41815 0.97998 0.0
H1244 H 0.10453 0.42813 0.05431 0.0
H1245 H 0.08721 0.40283 0.0227 0.0
H1246 H 0.24802 0.54194 0.97531 0.0
H1247 H 0.2339 0.51263 0.94459 0.0
H1248 H 0.25993 0.52922 0.01846 0.0
H1249 H 0.23482 0.51859 0.05129 0.0
C1250 C 0.55634 0.18827 0.48411 0.0
C1251 C 0.5233 0.16687 0.46841 0.0
C1252 C 0.48968 0.1444 0.51455 0.0
C1253 C 0.52258 0.16603 0.53022 0.0
N1254 N 0.58312 0.21413 0.53092 0.0
N1255 N 0.45482 0.13093 0.46778 0.0
C1256 C 0.55481 0.18955 0.51526 0.0
C1257 C 0.48864 0.14711 0.48339 0.0
N1258 N 0.58932 0.20715 0.46913 0.0
N1259 N 0.46084 0.11942 0.52942 0.0
H1260 H 0.45378 0.13083 0.44492 0.0
H1261 H 0.42641 0.12029 0.47733 0.0
H1262 H 0.46044 0.11686 0.55222 0.0
H1263 H 0.43913 0.09886 0.51926 0.0
H1264 H 0.61722 0.21858 0.47892 0.0
H1265 H 0.58956 0.21008 0.44639 0.0
H1266 H 0.60473 0.23554 0.52154 0.0
H1267 H 0.58318 0.21551 0.55376 0.0
C1268 C 0.81222 0.55217 0.01798 0.0
C1269 C 0.83427 0.51864 0.03276 0.0
C1270 C 0.85049 0.48404 0.98568 0.0
C1271 C 0.83202 0.51975 0.97089 0.0
N1272 N 0.79624 0.58839 0.97217 0.0
N1273 N 0.87695 0.4542 0.03153 0.0
C1274 C 0.81311 0.55397 0.98685 0.0
C1275 C 0.85364 0.48464 0.01686 0.0
N1276 N 0.78908 0.58141 0.0338 0.0
N1277 N 0.86542 0.44978 0.9699 0.0
H1278 H 0.87928 0.45323 0.05434 0.0
H1279 H 0.89615 0.43137 0.02127 0.0
H1280 H 0.86665 0.4493 0.94706 0.0
H1281 H 0.87447 0.42069 0.97926 0.0
H1282 H 0.76844 0.60393 0.02456 0.0
H1283 H 0.78794 0.58121 0.0566 0.0
H1284 H 0.78745 0.61704 0.98226 0.0
H1285 H 0.79265 0.58919 0.94944 0.0
C1286 C 0.45571 0.86667 0.51672 0.0
C1287 C 0.47728 0.833 0.53155 0.0
C1288 C 0.50465 0.80618 0.48442 0.0
C1289 C 0.48504 0.84166 0.46963 0.0
N1290 N 0.45419 0.91282 0.47446 0.0
N1291 N 0.52837 0.7748 0.53029 0.0
C1292 C 0.46437 0.87405 0.48664 0.0
C1293 C 0.50418 0.80453 0.51568 0.0
N1294 N 0.42607 0.89139 0.53105 0.0
N1295 N 0.52087 0.77213 0.4691 0.0
H1296 H 0.52578 0.76922 0.55271 0.0
H1297 H 0.55306 0.75749 0.52038 0.0
H1298 H 0.52321 0.77077 0.44651 0.0
H1299 H 0.52931 0.7431 0.47885 0.0
H1300 H 0.40553 0.91254 0.52022 0.0
H1301 H 0.41923 0.88844 0.55329 0.0
H1302 H 0.44343 0.93894 0.48672 0.0
H1303 H 0.46111 0.92084 0.45288 0.0
C1304 C 0.14471 0.4897 0.48267 0.0
C1305 C 0.16626 0.52407 0.4684 0.0
C1306 C 0.18893 0.55315 0.51593 0.0
C1307 C 0.16389 0.52136 0.53023 0.0
N1308 N 0.11664 0.46024 0.52817 0.0
N1309 N 0.20916 0.58841 0.47058 0.0
C1310 C 0.14194 0.48941 0.51388 0.0
C1311 C 0.18854 0.55571 0.48482 0.0
N1312 N 0.12651 0.45764 0.46635 0.0
N1313 N 0.21436 0.5799 0.53219 0.0
H1314 H 0.21347 0.58905 0.44791 0.0
H1315 H 0.22072 0.61583 0.48092 0.0
H1316 H 0.21539 0.57906 0.55501 0.0
H1317 H 0.23687 0.60086 0.52334 0.0
H1318 H 0.11467 0.42923 0.47518 0.0
H1319 H 0.12513 0.45815 0.44352 0.0
H1320 H 0.09559 0.43934 0.51771 0.0
H1321 H 0.11482 0.45827 0.55095 0.0
C1322 C 0.49823 0.13152 0.98295 0.0
C1323 C 0.49316 0.17057 0.96731 0.0
C1324 C 0.49071 0.21027 0.0139 0.0
C1325 C 0.48872 0.17073 0.02939 0.0
N1326 N 0.49553 0.09362 0.02942 0.0
N1327 N 0.48611 0.2477 0.96764 0.0
C1328 C 0.49393 0.13128 0.01407 0.0
C1329 C 0.49066 0.21014 0.98271 0.0
N1330 N 0.50925 0.09506 0.96797 0.0
N1331 N 0.4932 0.24815 0.02888 0.0
H1332 H 0.49126 0.25006 0.94528 0.0
H1333 H 0.47622 0.27645 0.97713 0.0
H1334 H 0.49117 0.25019 0.05149 0.0
H1335 H 0.50061 0.27745 0.01915 0.0
H1336 H 0.51665 0.0659 0.97785 0.0
H1337 H 0.51492 0.09489 0.94541 0.0
H1338 H 0.49306 0.06339 0.01987 0.0
H1339 H 0.49876 0.09261 0.05215 0.0
C1340 C 0.81653 0.44775 0.48626 0.0
C1341 C 0.83648 0.48218 0.47115 0.0
C1342 C 0.85523 0.51644 0.51798 0.0
C1343 C 0.835 0.48214 0.53304 0.0
N1344 N 0.78965 0.41954 0.53228 0.0
N1345 N 0.86934 0.55235 0.4717 0.0
C1346 C 0.81376 0.44899 0.51736 0.0
C1347 C 0.85384 0.51767 0.48675 0.0
N1348 N 0.80044 0.41371 0.47081 0.0
N1349 N 0.87773 0.54653 0.53352 0.0
H1350 H 0.87154 0.55339 0.4489 0.0
H1351 H 0.87773 0.58126 0.48159 0.0
H1352 H 0.87885 0.54703 0.55638 0.0
H1353 H 0.89751 0.56951 0.52396 0.0
H1354 H 0.79092 0.38492 0.48038 0.0
H1355 H 0.79819 0.41341 0.448 0.0
H1356 H 0.76964 0.39717 0.52229 0.0
H1357 H 0.787 0.41946 0.55504 0.0
C1358 C 0.49285 0.85865 0.01657 0.0
C1359 C 0.52749 0.8389 0.03172 0.0
C1360 C 0.55843 0.81475 0.98505 0.0
C1361 C 0.52624 0.83809 0.96985 0.0
N1362 N 0.4643 0.88453 0.97026 0.0
N1363 N 0.59354 0.79845 0.03121 0.0
C1364 C 0.49345 0.86019 0.98535 0.0
C1365 C 0.56037 0.81701 0.01616 0.0
N1366 N 0.45955 0.87621 0.03205 0.0
N1367 N 0.58609 0.78905 0.96968 0.0
H1368 H 0.59402 0.79569 0.05398 0.0
H1369 H 0.62151 0.78722 0.02136 0.0
H1370 H 0.58541 0.78634 0.94691 0.0
H1371 H 0.60759 0.76776 0.97935 0.0
H1372 H 0.43098 0.88649 0.02253 0.0
H1373 H 0.45917 0.87836 0.05486 0.0
H1374 H 0.4429 0.90572 0.98013 0.0
H1375 H 0.46304 0.88572 0.94743 0.0
C1376 C 0.2906 0.31903 0.18491 0.0
C1377 C 0.28447 0.34628 0.16029 0.0
C1378 C 0.34399 0.3106 0.13454 0.0
C1379 C 0.35165 0.28508 0.1598 0.0
N1380 N 0.33688 0.2684 0.21036 0.0
N1381 N 0.30634 0.37057 0.11237 0.0
C1382 C 0.32609 0.29011 0.18534 0.0
C1383 C 0.31172 0.34299 0.1354 0.0
N1384 N 0.26218 0.32052 0.20776 0.0
N1385 N 0.36598 0.30221 0.10919 0.0
H1386 H 0.28055 0.39172 0.11085 0.0
H1387 H 0.32833 0.37401 0.09536 0.0
H1388 H 0.38975 0.27878 0.10764 0.0
H1389 H 0.35879 0.3161 0.08903 0.0
H1390 H 0.26157 0.29815 0.2247 0.0
H1391 H 0.23727 0.34284 0.20902 0.0
H1392 H 0.32257 0.27378 0.23065 0.0
H1393 H 0.36269 0.24709 0.21147 0.0
C1394 C 0.69321 0.33819 0.6322 0.0
C1395 C 0.72074 0.34174 0.6569 0.0
C1396 C 0.68287 0.2825 0.68128 0.0
C1397 C 0.65446 0.27978 0.65695 0.0
N1398 N 0.63049 0.30553 0.60982 0.0
N1399 N 0.7395 0.32194 0.70627 0.0
C1400 C 0.65886 0.30803 0.63266 0.0
C1401 C 0.71504 0.31504 0.68179 0.0
N1402 N 0.70124 0.36241 0.60778 0.0
N1403 N 0.67919 0.25372 0.70381 0.0
H1404 H 0.76354 0.34522 0.70724 0.0
H1405 H 0.73441 0.30685 0.72631 0.0
H1406 H 0.6542 0.23157 0.70534 0.0
H1407 H 0.70179 0.25025 0.72044 0.0
H1408 H 0.68579 0.35848 0.58775 0.0
H1409 H 0.72544 0.3854 0.6069 0.0
H1410 H 0.62798 0.32839 0.59328 0.0
H1411 H 0.60793 0.28106 0.60776 0.0
C1412 C 0.72216 0.68937 0.18167 0.0
C1413 C 0.72553 0.66054 0.15767 0.0
C1414 C 0.66514 0.69636 0.1331 0.0
C1415 C 0.66006 0.72339 0.15792 0.0
N1416 N 0.6791 0.74237 0.20745 0.0
N1417 N 0.69889 0.63368 0.11155 0.0
C1418 C 0.68741 0.71909 0.18265 0.0
C1419 C 0.69639 0.66302 0.13377 0.0
N1420 N 0.75255 0.68866 0.20332 0.0
N1421 N 0.64175 0.70413 0.10825 0.0
H1422 H 0.72356 0.61123 0.10997 0.0
H1423 H 0.67547 0.63 0.09547 0.0
H1424 H 0.61881 0.72839 0.1068 0.0
H1425 H 0.64713 0.68891 0.08828 0.0
H1426 H 0.75499 0.71196 0.21959 0.0
H1427 H 0.77727 0.66607 0.20406 0.0
H1428 H 0.69488 0.73768 0.22731 0.0
H1429 H 0.65388 0.76432 0.20895 0.0
C1430 C 0.31405 0.65352 0.63393 0.0
C1431 C 0.28382 0.65059 0.65713 0.0
C1432 C 0.32017 0.70914 0.68325 0.0
C1433 C 0.34782 0.71468 0.65884 0.0
N1434 N 0.36874 0.69599 0.60957 0.0
N1435 N 0.25555 0.67667 0.70305 0.0
C1436 C 0.34453 0.68755 0.63392 0.0
C1437 C 0.2862 0.6787 0.6816 0.0
N1438 N 0.31317 0.62412 0.61166 0.0
N1439 N 0.32735 0.73213 0.70835 0.0
H1440 H 0.23183 0.65306 0.70365 0.0
H1441 H 0.25211 0.6996 0.71949 0.0
H1442 H 0.35206 0.75455 0.71031 0.0
H1443 H 0.31127 0.72673 0.728 0.0
H1444 H 0.33729 0.62111 0.596 0.0
H1445 H 0.2894 0.60078 0.60973 0.0
H1446 H 0.36462 0.68067 0.58949 0.0
H1447 H 0.39115 0.72078 0.60864 0.0
C1448 C 0.32439 0.71739 0.31807 0.0
C1449 C 0.35101 0.72263 0.34305 0.0
C1450 C 0.31564 0.66163 0.36718 0.0
C1451 C 0.28697 0.65834 0.34306 0.0
N1452 N 0.26128 0.68435 0.29642 0.0
N1453 N 0.36968 0.70362 0.39266 0.0
C1454 C 0.29055 0.68665 0.31874 0.0
C1455 C 0.34635 0.69548 0.36785 0.0
N1456 N 0.33253 0.74089 0.29333 0.0
N1457 N 0.31309 0.63272 0.38969 0.0
H1458 H 0.39247 0.728 0.39395 0.0
H1459 H 0.36464 0.68842 0.41267 0.0
H1460 H 0.28863 0.61007 0.39142 0.0
H1461 H 0.33626 0.62961 0.40598 0.0
H1462 H 0.31742 0.73577 0.27329 0.0
H1463 H 0.35698 0.76371 0.29214 0.0
H1464 H 0.25857 0.70726 0.27992 0.0
H1465 H 0.23792 0.66046 0.29507 0.0
C1466 C 0.31068 0.27678 0.81657 0.0
C1467 C 0.33851 0.2743 0.84116 0.0
C1468 C 0.29995 0.33375 0.8648 0.0
C1469 C 0.27421 0.33834 0.83931 0.0
N1470 N 0.25796 0.31846 0.78947 0.0
N1471 N 0.36253 0.30197 0.8877 0.0
C1472 C 0.28025 0.31088 0.8148 0.0
C1473 C 0.33411 0.30344 0.86491 0.0
N1474 N 0.31298 0.24615 0.79514 0.0
N1475 N 0.29019 0.35669 0.88951 0.0
H1476 H 0.38564 0.27803 0.88973 0.0
H1477 H 0.36486 0.32562 0.90374 0.0
H1478 H 0.26506 0.37872 0.89046 0.0
H1479 H 0.3045 0.35155 0.90982 0.0
H1480 H 0.29055 0.24311 0.77835 0.0
H1481 H 0.33593 0.22174 0.79514 0.0
H1482 H 0.26395 0.30263 0.7698 0.0
H1483 H 0.23547 0.34311 0.78742 0.0
C1484 C 0.66696 0.31042 0.36831 0.0
C1485 C 0.66248 0.28355 0.34335 0.0
C1486 C 0.7204 0.32252 0.31825 0.0
C1487 C 0.72399 0.3503 0.34288 0.0
N1488 N 0.70024 0.37267 0.39087 0.0
N1489 N 0.68039 0.26611 0.29342 0.0
C1490 C 0.69689 0.34496 0.3677 0.0
C1491 C 0.68811 0.29007 0.31802 0.0
N1492 N 0.64383 0.30158 0.3931 0.0
N1493 N 0.74806 0.32712 0.29515 0.0
H1494 H 0.65731 0.24187 0.29265 0.0
H1495 H 0.69461 0.27176 0.27315 0.0
H1496 H 0.76988 0.35238 0.29346 0.0
H1497 H 0.75096 0.30505 0.27815 0.0
H1498 H 0.64855 0.31646 0.41325 0.0
H1499 H 0.62097 0.27727 0.3941 0.0
H1500 H 0.67808 0.37457 0.40788 0.0
H1501 H 0.72471 0.39526 0.39279 0.0
C1502 C 0.70896 0.67541 0.81776 0.0
C1503 C 0.71441 0.64929 0.84298 0.0
C1504 C 0.65724 0.68899 0.86838 0.0
C1505 C 0.65383 0.71698 0.84389 0.0
N1506 N 0.67867 0.74009 0.79636 0.0
N1507 N 0.69848 0.63423 0.8937 0.0
C1508 C 0.68045 0.71118 0.81891 0.0
C1509 C 0.68953 0.65661 0.8686 0.0
N1510 N 0.72984 0.66491 0.79235 0.0
N1511 N 0.62984 0.69367 0.8916 0.0
H1512 H 0.72196 0.61044 0.89484 0.0
H1513 H 0.68512 0.64122 0.91405 0.0
H1514 H 0.60842 0.71921 0.89353 0.0
H1515 H 0.62664 0.67114 0.90831 0.0
H1516 H 0.72405 0.67971 0.77228 0.0
H1517 H 0.75077 0.63885 0.7907 0.0
H1518 H 0.70071 0.7409 0.77922 0.0
H1519 H 0.65646 0.76513 0.79552 0.0
loop_
_geom_bond_atom_site_label_1
_geom_bond_atom_site_label_2
_geom_bond_distance
_geom_bond_site_symmetry_2
_ccdc_geom_bond_type
Co0 O2 2.143 . S
Co0 O8 2.074 . S
Co0 O11 2.093 . S
Co0 O24 2.097 . S
Co0 N41 2.151 . S
Co0 N49 2.214 . S
Co1 O2 2.160 . S
Co1 O7 2.058 . S
Co1 O17 2.057 . S
Co1 O32 2.037 . S
Co1 N36 2.145 . S
Co1 N57 2.257 . S
O2 Co0 2.143 . S
O2 Co1 2.160 . S
C3 O4 1.278 . S
C3 O11 1.224 . S
O4 C3 1.278 . S
C5 O6 1.245 . S
C5 O17 1.232 . S
O6 C5 1.245 . S
O7 Co1 2.058 . S
O7 C33 1.269 . S
O8 Co0 2.074 . S
O8 C33 1.257 . S
H9 C34 0.930 . S
H10 C40 0.930 . S
O11 Co0 2.093 . S
O11 C3 1.224 . S
H12 C44 0.929 . S
H13 C46 0.930 . S
H14 C47 0.930 . S
H15 C45 0.929 . S
H16 C48 0.928 . S
O17 Co1 2.057 . S
O17 C5 1.232 . S
H18 C37 0.929 . S
H19 C38 0.929 . S
H20 C50 0.931 . S
H21 C42 0.929 . S
H22 C51 0.930 . S
H23 C43 0.931 . S
O24 Co0 2.097 . S
O24 C52 1.214 . S
H25 C53 0.929 . S
H26 C54 0.929 . S
H27 C55 0.930 . S
H28 C56 0.929 . S
H29 C58 0.930 . S
H30 C35 0.930 . S
H31 C39 0.930 . S
O32 Co1 2.037 . S
O32 C52 1.234 . S
C33 O7 1.269 . S
C33 O8 1.257 . S
C34 H9 0.930 . S
C34 C37 1.388 . S
C34 C39 1.418 . S
C35 H30 0.930 . S
C35 C38 1.404 . S
C35 C39 1.353 . S
N36 Co1 2.145 . S
N36 C37 1.397 . S
N36 C38 1.334 . S
C37 H18 0.929 . S
C37 C34 1.388 . S
C37 N36 1.397 . S
C38 H19 0.929 . S
C38 C35 1.404 . S
C38 N36 1.334 . S
C39 H31 0.930 . S
C39 C34 1.418 . S
C39 C35 1.353 . S
C40 H10 0.930 . S
C40 N41 1.330 . S
C40 C42 1.446 . S
N41 Co0 2.151 . S
N41 C40 1.330 . S
N41 C45 1.418 . S
C42 H21 0.929 . S
C42 C40 1.446 . S
C42 C43 1.332 . S
C43 H23 0.931 . S
C43 C42 1.332 . S
C43 C44 1.267 . S
C44 H12 0.929 . S
C44 C43 1.267 . S
C44 C45 1.251 . S
C45 H15 0.929 . S
C45 N41 1.418 . S
C45 C44 1.251 . S
C46 H13 0.930 . S
C46 C48 1.406 . S
C46 C51 1.261 . S
C47 H14 0.930 . S
C47 N49 1.325 . S
C47 C50 1.357 . S
C48 H16 0.928 . S
C48 C46 1.406 . S
C48 N49 1.261 . S
N49 Co0 2.214 . S
N49 C47 1.325 . S
N49 C48 1.261 . S
C50 H20 0.931 . S
C50 C47 1.357 . S
C50 C51 1.312 . S
C51 H22 0.930 . S
C51 C46 1.261 . S
C51 C50 1.312 . S
C52 O24 1.214 . S
C52 O32 1.234 . S
C53 H25 0.929 . S
C53 C56 1.391 . S
C53 C58 1.391 . S
C54 H26 0.929 . S
C54 C55 1.390 . S
C54 N57 1.391 . S
C55 H27 0.930 . S
C55 C54 1.390 . S
C55 C56 1.392 . S
C56 H28 0.929 . S
C56 C53 1.391 . S
C56 C55 1.392 . S
N57 Co1 2.257 . S
N57 C54 1.391 . S
N57 C58 1.388 . S
C58 H29 0.930 . S
C58 C53 1.391 . S
C58 N57 1.388 . S
Co59 O61 2.143 . S
Co59 O67 2.074 . S
Co59 O70 2.093 . S
Co59 O83 2.097 . S
Co59 N100 2.151 . S
Co59 N108 2.214 . S
Co60 O61 2.160 . S
Co60 O66 2.058 . S
Co60 O76 2.057 . S
Co60 O91 2.037 . S
Co60 N95 2.145 . S
Co60 N116 2.257 . S
O61 Co59 2.143 . S
O61 Co60 2.160 . S
C62 O63 1.278 . S
C62 O70 1.224 . S
O63 C62 1.278 . S
C64 O65 1.245 . S
C64 O76 1.232 . S
O65 C64 1.245 . S
O66 Co60 2.058 . S
O66 C92 1.269 . S
O67 Co59 2.074 . S
O67 C92 1.257 . S
H68 C93 0.930 . S
H69 C99 0.930 . S
O70 Co59 2.093 . S
O70 C62 1.224 . S
H71 C103 0.929 . S
H72 C105 0.930 . S
H73 C106 0.930 . S
H74 C104 0.929 . S
H75 C107 0.928 . S
O76 Co60 2.057 . S
O76 C64 1.232 . S
H77 C96 0.929 . S
H78 C97 0.929 . S
H79 C109 0.931 . S
H80 C101 0.929 . S
H81 C110 0.930 . S
H82 C102 0.931 . S
O83 Co59 2.097 . S
O83 C111 1.214 . S
H84 C112 0.929 . S
H85 C113 0.929 . S
H86 C114 0.930 . S
H87 C115 0.929 . S
H88 C117 0.930 . S
H89 C94 0.930 . S
H90 C98 0.930 . S
O91 Co60 2.037 . S
O91 C111 1.234 . S
C92 O66 1.269 . S
C92 O67 1.257 . S
C93 H68 0.930 . S
C93 C96 1.388 . S
C93 C98 1.418 . S
C94 H89 0.930 . S
C94 C97 1.404 . S
C94 C98 1.353 . S
N95 Co60 2.145 . S
N95 C96 1.397 . S
N95 C97 1.334 . S
C96 H77 0.929 . S
C96 C93 1.388 . S
C96 N95 1.397 . S
C97 H78 0.929 . S
C97 C94 1.404 . S
C97 N95 1.334 . S
C98 H90 0.930 . S
C98 C93 1.418 . S
C98 C94 1.353 . S
C99 H69 0.930 . S
C99 N100 1.330 . S
C99 C101 1.446 . S
N100 Co59 2.151 . S
N100 C99 1.330 . S
N100 C104 1.418 . S
C101 H80 0.929 . S
C101 C99 1.446 . S
C101 C102 1.332 . S
C102 H82 0.931 . S
C102 C101 1.332 . S
C102 C103 1.267 . S
C103 H71 0.929 . S
C103 C102 1.267 . S
C103 C104 1.251 . S
C104 H74 0.929 . S
C104 N100 1.418 . S
C104 C103 1.251 . S
C105 H72 0.930 . S
C105 C107 1.406 . S
C105 C110 1.261 . S
C106 H73 0.930 . S
C106 N108 1.325 . S
C106 C109 1.357 . S
C107 H75 0.928 . S
C107 C105 1.406 . S
C107 N108 1.261 . S
N108 Co59 2.214 . S
N108 C106 1.325 . S
N108 C107 1.261 . S
C109 H79 0.931 . S
C109 C106 1.357 . S
C109 C110 1.312 . S
C110 H81 0.930 . S
C110 C105 1.261 . S
C110 C109 1.312 . S
C111 O83 1.214 . S
C111 O91 1.234 . S
C112 H84 0.929 . S
C112 C115 1.391 . S
C112 C117 1.391 . S
C113 H85 0.929 . S
C113 C114 1.390 . S
C113 N116 1.391 . S
C114 H86 0.930 . S
C114 C113 1.390 . S
C114 C115 1.392 . S
C115 H87 0.929 . S
C115 C112 1.391 . S
C115 C114 1.392 . S
N116 Co60 2.257 . S
N116 C113 1.391 . S
N116 C117 1.388 . S
C117 H88 0.930 . S
C117 C112 1.391 . S
C117 N116 1.388 . S
Co118 O120 2.143 . S
Co118 O126 2.074 . S
Co118 O129 2.093 . S
Co118 O142 2.097 . S
Co118 N159 2.151 . S
Co118 N167 2.214 . S
Co119 O120 2.160 . S
Co119 O125 2.058 . S
Co119 O135 2.057 . S
Co119 O150 2.037 . S
Co119 N154 2.145 . S
Co119 N175 2.257 . S
O120 Co118 2.143 . S
O120 Co119 2.160 . S
C121 O122 1.278 . S
C121 O129 1.224 . S
O122 C121 1.278 . S
C123 O124 1.245 . S
C123 O135 1.232 . S
O124 C123 1.245 . S
O125 Co119 2.058 . S
O125 C151 1.269 . S
O126 Co118 2.074 . S
O126 C151 1.257 . S
H127 C152 0.930 . S
H128 C158 0.930 . S
O129 Co118 2.093 . S
O129 C121 1.224 . S
H130 C162 0.929 . S
H131 C164 0.930 . S
H132 C165 0.930 . S
H133 C163 0.929 . S
H134 C166 0.928 . S
O135 Co119 2.057 . S
O135 C123 1.232 . S
H136 C155 0.929 . S
H137 C156 0.929 . S
H138 C168 0.931 . S
H139 C160 0.929 . S
H140 C169 0.930 . S
H141 C161 0.931 . S
O142 Co118 2.097 . S
O142 C170 1.214 . S
H143 C171 0.929 . S
H144 C172 0.929 . S
H145 C173 0.930 . S
H146 C174 0.929 . S
H147 C176 0.930 . S
H148 C153 0.930 . S
H149 C157 0.930 . S
O150 Co119 2.037 . S
O150 C170 1.234 . S
C151 O125 1.269 . S
C151 O126 1.257 . S
C152 H127 0.930 . S
C152 C155 1.388 . S
C152 C157 1.418 . S
C153 H148 0.930 . S
C153 C156 1.404 . S
C153 C157 1.353 . S
N154 Co119 2.145 . S
N154 C155 1.397 . S
N154 C156 1.334 . S
C155 H136 0.929 . S
C155 C152 1.388 . S
C155 N154 1.397 . S
C156 H137 0.929 . S
C156 C153 1.404 . S
C156 N154 1.334 . S
C157 H149 0.930 . S
C157 C152 1.418 . S
C157 C153 1.353 . S
C158 H128 0.930 . S
C158 N159 1.330 . S
C158 C160 1.446 . S
N159 Co118 2.151 . S
N159 C158 1.330 . S
N159 C163 1.418 . S
C160 H139 0.929 . S
C160 C158 1.446 . S
C160 C161 1.332 . S
C161 H141 0.931 . S
C161 C160 1.332 . S
C161 C162 1.267 . S
C162 H130 0.929 . S
C162 C161 1.267 . S
C162 C163 1.251 . S
C163 H133 0.929 . S
C163 N159 1.418 . S
C163 C162 1.251 . S
C164 H131 0.930 . S
C164 C166 1.406 . S
C164 C169 1.261 . S
C165 H132 0.930 . S
C165 N167 1.325 . S
C165 C168 1.357 . S
C166 H134 0.928 . S
C166 C164 1.406 . S
C166 N167 1.261 . S
N167 Co118 2.214 . S
N167 C165 1.325 . S
N167 C166 1.261 . S
C168 H138 0.931 . S
C168 C165 1.357 . S
C168 C169 1.312 . S
C169 H140 0.930 . S
C169 C164 1.261 . S
C169 C168 1.312 . S
C170 O142 1.214 . S
C170 O150 1.234 . S
C171 H143 0.929 . S
C171 C174 1.391 . S
C171 C176 1.391 . S
C172 H144 0.929 . S
C172 C173 1.390 . S
C172 N175 1.391 . S
C173 H145 0.930 . S
C173 C172 1.390 . S
C173 C174 1.392 . S
C174 H146 0.929 . S
C174 C171 1.391 . S
C174 C173 1.392 . S
N175 Co119 2.257 . S
N175 C172 1.391 . S
N175 C176 1.388 . S
C176 H147 0.930 . S
C176 C171 1.391 . S
C176 N175 1.388 . S
Co177 O179 2.143 . S
Co177 O185 2.074 . S
Co177 O188 2.093 . S
Co177 O201 2.097 . S
Co177 N218 2.151 . S
Co177 N226 2.214 . S
Co178 O179 2.160 . S
Co178 O184 2.058 . S
Co178 O194 2.057 . S
Co178 O209 2.037 . S
Co178 N213 2.145 . S
Co178 N234 2.257 . S
O179 Co177 2.143 . S
O179 Co178 2.160 . S
C180 O181 1.278 . S
C180 O188 1.224 . S
O181 C180 1.278 . S
C182 O183 1.245 . S
C182 O194 1.232 . S
O183 C182 1.245 . S
O184 Co178 2.058 . S
O184 C210 1.269 . S
O185 Co177 2.074 . S
O185 C210 1.257 . S
H186 C211 0.930 . S
H187 C217 0.930 . S
O188 Co177 2.093 . S
O188 C180 1.224 . S
H189 C221 0.929 . S
H190 C223 0.930 . S
H191 C224 0.930 . S
H192 C222 0.929 . S
H193 C225 0.928 . S
O194 Co178 2.057 . S
O194 C182 1.232 . S
H195 C214 0.929 . S
H196 C215 0.929 . S
H197 C227 0.931 . S
H198 C219 0.929 . S
H199 C228 0.930 . S
H200 C220 0.931 . S
O201 Co177 2.097 . S
O201 C229 1.214 . S
H202 C230 0.929 . S
H203 C231 0.929 . S
H204 C232 0.930 . S
H205 C233 0.929 . S
H206 C235 0.930 . S
H207 C212 0.930 . S
H208 C216 0.930 . S
O209 Co178 2.037 . S
O209 C229 1.234 . S
C210 O184 1.269 . S
C210 O185 1.257 . S
C211 H186 0.930 . S
C211 C214 1.388 . S
C211 C216 1.418 . S
C212 H207 0.930 . S
C212 C215 1.404 . S
C212 C216 1.353 . S
N213 Co178 2.145 . S
N213 C214 1.397 . S
N213 C215 1.334 . S
C214 H195 0.929 . S
C214 C211 1.388 . S
C214 N213 1.397 . S
C215 H196 0.929 . S
C215 C212 1.404 . S
C215 N213 1.334 . S
C216 H208 0.930 . S
C216 C211 1.418 . S
C216 C212 1.353 . S
C217 H187 0.930 . S
C217 N218 1.330 . S
C217 C219 1.446 . S
N218 Co177 2.151 . S
N218 C217 1.330 . S
N218 C222 1.418 . S
C219 H198 0.929 . S
C219 C217 1.446 . S
C219 C220 1.332 . S
C220 H200 0.931 . S
C220 C219 1.332 . S
C220 C221 1.267 . S
C221 H189 0.929 . S
C221 C220 1.267 . S
C221 C222 1.251 . S
C222 H192 0.929 . S
C222 N218 1.418 . S
C222 C221 1.251 . S
C223 H190 0.930 . S
C223 C225 1.406 . S
C223 C228 1.261 . S
C224 H191 0.930 . S
C224 N226 1.325 . S
C224 C227 1.357 . S
C225 H193 0.928 . S
C225 C223 1.406 . S
C225 N226 1.261 . S
N226 Co177 2.214 . S
N226 C224 1.325 . S
N226 C225 1.261 . S
C227 H197 0.931 . S
C227 C224 1.357 . S
C227 C228 1.312 . S
C228 H199 0.930 . S
C228 C223 1.261 . S
C228 C227 1.312 . S
C229 O201 1.214 . S
C229 O209 1.234 . S
C230 H202 0.929 . S
C230 C233 1.391 . S
C230 C235 1.391 . S
C231 H203 0.929 . S
C231 C232 1.390 . S
C231 N234 1.391 . S
C232 H204 0.930 . S
C232 C231 1.390 . S
C232 C233 1.392 . S
C233 H205 0.929 . S
C233 C230 1.391 . S
C233 C232 1.392 . S
N234 Co178 2.257 . S
N234 C231 1.391 . S
N234 C235 1.388 . S
C235 H206 0.930 . S
C235 C230 1.391 . S
C235 N234 1.388 . S
Co236 O238 2.143 . S
Co236 O244 2.074 . S
Co236 O247 2.093 . S
Co236 O260 2.097 . S
Co236 N277 2.151 . S
Co236 N285 2.214 . S
Co237 O238 2.160 . S
Co237 O243 2.058 . S
Co237 O253 2.057 . S
Co237 O268 2.037 . S
Co237 N272 2.145 . S
Co237 N293 2.257 . S
O238 Co236 2.143 . S
O238 Co237 2.160 . S
C239 O240 1.278 . S
C239 O247 1.224 . S
O240 C239 1.278 . S
C241 O242 1.245 . S
C241 O253 1.232 . S
O242 C241 1.245 . S
O243 Co237 2.058 . S
O243 C269 1.269 . S
O244 Co236 2.074 . S
O244 C269 1.257 . S
H245 C270 0.930 . S
H246 C276 0.930 . S
O247 Co236 2.093 . S
O247 C239 1.224 . S
H248 C280 0.929 . S
H249 C282 0.930 . S
H250 C283 0.930 . S
H251 C281 0.929 . S
H252 C284 0.928 . S
O253 Co237 2.057 . S
O253 C241 1.232 . S
H254 C273 0.929 . S
H255 C274 0.929 . S
H256 C286 0.931 . S
H257 C278 0.929 . S
H258 C287 0.930 . S
H259 C279 0.931 . S
O260 Co236 2.097 . S
O260 C288 1.214 . S
H261 C289 0.929 . S
H262 C290 0.929 . S
H263 C291 0.930 . S
H264 C292 0.929 . S
H265 C294 0.930 . S
H266 C271 0.930 . S
H267 C275 0.930 . S
O268 Co237 2.037 . S
O268 C288 1.234 . S
C269 O243 1.269 . S
C269 O244 1.257 . S
C270 H245 0.930 . S
C270 C273 1.388 . S
C270 C275 1.418 . S
C271 H266 0.930 . S
C271 C274 1.404 . S
C271 C275 1.353 . S
N272 Co237 2.145 . S
N272 C273 1.397 . S
N272 C274 1.334 . S
C273 H254 0.929 . S
C273 C270 1.388 . S
C273 N272 1.397 . S
C274 H255 0.929 . S
C274 C271 1.404 . S
C274 N272 1.334 . S
C275 H267 0.930 . S
C275 C270 1.418 . S
C275 C271 1.353 . S
C276 H246 0.930 . S
C276 N277 1.330 . S
C276 C278 1.446 . S
N277 Co236 2.151 . S
N277 C276 1.330 . S
N277 C281 1.418 . S
C278 H257 0.929 . S
C278 C276 1.446 . S
C278 C279 1.332 . S
C279 H259 0.931 . S
C279 C278 1.332 . S
C279 C280 1.267 . S
C280 H248 0.929 . S
C280 C279 1.267 . S
C280 C281 1.251 . S
C281 H251 0.929 . S
C281 N277 1.418 . S
C281 C280 1.251 . S
C282 H249 0.930 . S
C282 C284 1.406 . S
C282 C287 1.261 . S
C283 H250 0.930 . S
C283 N285 1.325 . S
C283 C286 1.357 . S
C284 H252 0.928 . S
C284 C282 1.406 . S
C284 N285 1.261 . S
N285 Co236 2.214 . S
N285 C283 1.325 . S
N285 C284 1.261 . S
C286 H256 0.931 . S
C286 C283 1.357 . S
C286 C287 1.312 . S
C287 H258 0.930 . S
C287 C282 1.261 . S
C287 C286 1.312 . S
C288 O260 1.214 . S
C288 O268 1.234 . S
C289 H261 0.929 . S
C289 C292 1.391 . S
C289 C294 1.391 . S
C290 H262 0.929 . S
C290 C291 1.390 . S
C290 N293 1.391 . S
C291 H263 0.930 . S
C291 C290 1.390 . S
C291 C292 1.392 . S
C292 H264 0.929 . S
C292 C289 1.391 . S
C292 C291 1.392 . S
N293 Co237 2.257 . S
N293 C290 1.391 . S
N293 C294 1.388 . S
C294 H265 0.930 . S
C294 C289 1.391 . S
C294 N293 1.388 . S
Co295 O297 2.143 . S
Co295 O303 2.074 . S
Co295 O306 2.093 . S
Co295 O319 2.097 . S
Co295 N336 2.151 . S
Co295 N344 2.214 . S
Co296 O297 2.160 . S
Co296 O302 2.058 . S
Co296 O312 2.057 . S
Co296 O327 2.037 . S
Co296 N331 2.145 . S
Co296 N352 2.257 . S
O297 Co295 2.143 . S
O297 Co296 2.160 . S
C298 O299 1.278 . S
C298 O306 1.224 . S
O299 C298 1.278 . S
C300 O301 1.245 . S
C300 O312 1.232 . S
O301 C300 1.245 . S
O302 Co296 2.058 . S
O302 C328 1.269 . S
O303 Co295 2.074 . S
O303 C328 1.257 . S
H304 C329 0.930 . S
H305 C335 0.930 . S
O306 Co295 2.093 . S
O306 C298 1.224 . S
H307 C339 0.929 . S
H308 C341 0.930 . S
H309 C342 0.930 . S
H310 C340 0.929 . S
H311 C343 0.928 . S
O312 Co296 2.057 . S
O312 C300 1.232 . S
H313 C332 0.929 . S
H314 C333 0.929 . S
H315 C345 0.931 . S
H316 C337 0.929 . S
H317 C346 0.930 . S
H318 C338 0.931 . S
O319 Co295 2.097 . S
O319 C347 1.214 . S
H320 C348 0.929 . S
H321 C349 0.929 . S
H322 C350 0.930 . S
H323 C351 0.929 . S
H324 C353 0.930 . S
H325 C330 0.930 . S
H326 C334 0.930 . S
O327 Co296 2.037 . S
O327 C347 1.234 . S
C328 O302 1.269 . S
C328 O303 1.257 . S
C329 H304 0.930 . S
C329 C332 1.388 . S
C329 C334 1.418 . S
C330 H325 0.930 . S
C330 C333 1.404 . S
C330 C334 1.353 . S
N331 Co296 2.145 . S
N331 C332 1.397 . S
N331 C333 1.334 . S
C332 H313 0.929 . S
C332 C329 1.388 . S
C332 N331 1.397 . S
C333 H314 0.929 . S
C333 C330 1.404 . S
C333 N331 1.334 . S
C334 H326 0.930 . S
C334 C329 1.418 . S
C334 C330 1.353 . S
C335 H305 0.930 . S
C335 N336 1.330 . S
C335 C337 1.446 . S
N336 Co295 2.151 . S
N336 C335 1.330 . S
N336 C340 1.418 . S
C337 H316 0.929 . S
C337 C335 1.446 . S
C337 C338 1.332 . S
C338 H318 0.931 . S
C338 C337 1.332 . S
C338 C339 1.267 . S
C339 H307 0.929 . S
C339 C338 1.267 . S
C339 C340 1.251 . S
C340 H310 0.929 . S
C340 N336 1.418 . S
C340 C339 1.251 . S
C341 H308 0.930 . S
C341 C343 1.406 . S
C341 C346 1.261 . S
C342 H309 0.930 . S
C342 N344 1.325 . S
C342 C345 1.357 . S
C343 H311 0.928 . S
C343 C341 1.406 . S
C343 N344 1.261 . S
N344 Co295 2.214 . S
N344 C342 1.325 . S
N344 C343 1.261 . S
C345 H315 0.931 . S
C345 C342 1.357 . S
C345 C346 1.312 . S
C346 H317 0.930 . S
C346 C341 1.261 . S
C346 C345 1.312 . S
C347 O319 1.214 . S
C347 O327 1.234 . S
C348 H320 0.929 . S
C348 C351 1.391 . S
C348 C353 1.391 . S
C349 H321 0.929 . S
C349 C350 1.390 . S
C349 N352 1.391 . S
C350 H322 0.930 . S
C350 C349 1.390 . S
C350 C351 1.392 . S
C351 H323 0.929 . S
C351 C348 1.391 . S
C351 C350 1.392 . S
N352 Co296 2.257 . S
N352 C349 1.391 . S
N352 C353 1.388 . S
C353 H324 0.930 . S
C353 C348 1.391 . S
C353 N352 1.388 . S
Co354 O356 2.143 . S
Co354 O362 2.074 . S
Co354 O365 2.093 . S
Co354 O378 2.097 . S
Co354 N395 2.151 . S
Co354 N403 2.214 . S
Co355 O356 2.160 . S
Co355 O361 2.058 . S
Co355 O371 2.057 . S
Co355 O386 2.037 . S
Co355 N390 2.145 . S
Co355 N411 2.257 . S
O356 Co354 2.143 . S
O356 Co355 2.160 . S
C357 O358 1.278 . S
C357 O365 1.224 . S
O358 C357 1.278 . S
C359 O360 1.245 . S
C359 O371 1.232 . S
O360 C359 1.245 . S
O361 Co355 2.058 . S
O361 C387 1.269 . S
O362 Co354 2.074 . S
O362 C387 1.257 . S
H363 C388 0.930 . S
H364 C394 0.930 . S
O365 Co354 2.093 . S
O365 C357 1.224 . S
H366 C398 0.929 . S
H367 C400 0.930 . S
H368 C401 0.930 . S
H369 C399 0.929 . S
H370 C402 0.928 . S
O371 Co355 2.057 . S
O371 C359 1.232 . S
H372 C391 0.929 . S
H373 C392 0.929 . S
H374 C404 0.931 . S
H375 C396 0.929 . S
H376 C405 0.930 . S
H377 C397 0.931 . S
O378 Co354 2.097 . S
O378 C406 1.214 . S
H379 C407 0.929 . S
H380 C408 0.929 . S
H381 C409 0.930 . S
H382 C410 0.929 . S
H383 C412 0.930 . S
H384 C389 0.930 . S
H385 C393 0.930 . S
O386 Co355 2.037 . S
O386 C406 1.234 . S
C387 O361 1.269 . S
C387 O362 1.257 . S
C388 H363 0.930 . S
C388 C391 1.388 . S
C388 C393 1.418 . S
C389 H384 0.930 . S
C389 C392 1.404 . S
C389 C393 1.353 . S
N390 Co355 2.145 . S
N390 C391 1.397 . S
N390 C392 1.334 . S
C391 H372 0.929 . S
C391 C388 1.388 . S
C391 N390 1.397 . S
C392 H373 0.929 . S
C392 C389 1.404 . S
C392 N390 1.334 . S
C393 H385 0.930 . S
C393 C388 1.418 . S
C393 C389 1.353 . S
C394 H364 0.930 . S
C394 N395 1.330 . S
C394 C396 1.446 . S
N395 Co354 2.151 . S
N395 C394 1.330 . S
N395 C399 1.418 . S
C396 H375 0.929 . S
C396 C394 1.446 . S
C396 C397 1.332 . S
C397 H377 0.931 . S
C397 C396 1.332 . S
C397 C398 1.267 . S
C398 H366 0.929 . S
C398 C397 1.267 . S
C398 C399 1.251 . S
C399 H369 0.929 . S
C399 N395 1.418 . S
C399 C398 1.251 . S
C400 H367 0.930 . S
C400 C402 1.406 . S
C400 C405 1.261 . S
C401 H368 0.930 . S
C401 N403 1.325 . S
C401 C404 1.357 . S
C402 H370 0.928 . S
C402 C400 1.406 . S
C402 N403 1.261 . S
N403 Co354 2.214 . S
N403 C401 1.325 . S
N403 C402 1.261 . S
C404 H374 0.931 . S
C404 C401 1.357 . S
C404 C405 1.312 . S
C405 H376 0.930 . S
C405 C400 1.261 . S
C405 C404 1.312 . S
C406 O378 1.214 . S
C406 O386 1.234 . S
C407 H379 0.929 . S
C407 C410 1.391 . S
C407 C412 1.391 . S
C408 H380 0.929 . S
C408 C409 1.390 . S
C408 N411 1.391 . S
C409 H381 0.930 . S
C409 C408 1.390 . S
C409 C410 1.392 . S
C410 H382 0.929 . S
C410 C407 1.391 . S
C410 C409 1.392 . S
N411 Co355 2.257 . S
N411 C408 1.391 . S
N411 C412 1.388 . S
C412 H383 0.930 . S
C412 C407 1.391 . S
C412 N411 1.388 . S
Co413 O415 2.143 . S
Co413 O421 2.074 . S
Co413 O424 2.093 . S
Co413 O437 2.097 . S
Co413 N454 2.151 . S
Co413 N462 2.214 . S
Co414 O415 2.160 . S
Co414 O420 2.058 . S
Co414 O430 2.057 . S
Co414 O445 2.037 . S
Co414 N449 2.145 . S
Co414 N470 2.257 . S
O415 Co413 2.143 . S
O415 Co414 2.160 . S
C416 O417 1.278 . S
C416 O424 1.224 . S
O417 C416 1.278 . S
C418 O419 1.245 . S
C418 O430 1.232 . S
O419 C418 1.245 . S
O420 Co414 2.058 . S
O420 C446 1.269 . S
O421 Co413 2.074 . S
O421 C446 1.257 . S
H422 C447 0.930 . S
H423 C453 0.930 . S
O424 Co413 2.093 . S
O424 C416 1.224 . S
H425 C457 0.929 . S
H426 C459 0.930 . S
H427 C460 0.930 . S
H428 C458 0.929 . S
H429 C461 0.928 . S
O430 Co414 2.057 . S
O430 C418 1.232 . S
H431 C450 0.929 . S
H432 C451 0.929 . S
H433 C463 0.931 . S
H434 C455 0.929 . S
H435 C464 0.930 . S
H436 C456 0.931 . S
O437 Co413 2.097 . S
O437 C465 1.214 . S
H438 C466 0.929 . S
H439 C467 0.929 . S
H440 C468 0.930 . S
H441 C469 0.929 . S
H442 C471 0.930 . S
H443 C448 0.930 . S
H444 C452 0.930 . S
O445 Co414 2.037 . S
O445 C465 1.234 . S
C446 O420 1.269 . S
C446 O421 1.257 . S
C447 H422 0.930 . S
C447 C450 1.388 . S
C447 C452 1.418 . S
C448 H443 0.930 . S
C448 C451 1.404 . S
C448 C452 1.353 . S
N449 Co414 2.145 . S
N449 C450 1.397 . S
N449 C451 1.334 . S
C450 H431 0.929 . S
C450 C447 1.388 . S
C450 N449 1.397 . S
C451 H432 0.929 . S
C451 C448 1.404 . S
C451 N449 1.334 . S
C452 H444 0.930 . S
C452 C447 1.418 . S
C452 C448 1.353 . S
C453 H423 0.930 . S
C453 N454 1.330 . S
C453 C455 1.446 . S
N454 Co413 2.151 . S
N454 C453 1.330 . S
N454 C458 1.418 . S
C455 H434 0.929 . S
C455 C453 1.446 . S
C455 C456 1.332 . S
C456 H436 0.931 . S
C456 C455 1.332 . S
C456 C457 1.267 . S
C457 H425 0.929 . S
C457 C456 1.267 . S
C457 C458 1.251 . S
C458 H428 0.929 . S
C458 N454 1.418 . S
C458 C457 1.251 . S
C459 H426 0.930 . S
C459 C461 1.406 . S
C459 C464 1.261 . S
C460 H427 0.930 . S
C460 N462 1.325 . S
C460 C463 1.357 . S
C461 H429 0.928 . S
C461 C459 1.406 . S
C461 N462 1.261 . S
N462 Co413 2.214 . S
N462 C460 1.325 . S
N462 C461 1.261 . S
C463 H433 0.931 . S
C463 C460 1.357 . S
C463 C464 1.312 . S
C464 H435 0.930 . S
C464 C459 1.261 . S
C464 C463 1.312 . S
C465 O437 1.214 . S
C465 O445 1.234 . S
C466 H438 0.929 . S
C466 C469 1.391 . S
C466 C471 1.391 . S
C467 H439 0.929 . S
C467 C468 1.390 . S
C467 N470 1.391 . S
C468 H440 0.930 . S
C468 C467 1.390 . S
C468 C469 1.392 . S
C469 H441 0.929 . S
C469 C466 1.391 . S
C469 C468 1.392 . S
N470 Co414 2.257 . S
N470 C467 1.391 . S
N470 C471 1.388 . S
C471 H442 0.930 . S
C471 C466 1.391 . S
C471 N470 1.388 . S
Co472 O474 2.143 . S
Co472 O480 2.074 . S
Co472 O483 2.093 . S
Co472 O496 2.097 . S
Co472 N513 2.151 . S
Co472 N521 2.214 . S
Co473 O474 2.160 . S
Co473 O479 2.058 . S
Co473 O489 2.057 . S
Co473 O504 2.037 . S
Co473 N508 2.145 . S
Co473 N529 2.257 . S
O474 Co472 2.143 . S
O474 Co473 2.160 . S
C475 O476 1.278 . S
C475 O483 1.224 . S
O476 C475 1.278 . S
C477 O478 1.245 . S
C477 O489 1.232 . S
O478 C477 1.245 . S
O479 Co473 2.058 . S
O479 C505 1.269 . S
O480 Co472 2.074 . S
O480 C505 1.257 . S
H481 C506 0.930 . S
H482 C512 0.930 . S
O483 Co472 2.093 . S
O483 C475 1.224 . S
H484 C516 0.929 . S
H485 C518 0.930 . S
H486 C519 0.930 . S
H487 C517 0.929 . S
H488 C520 0.928 . S
O489 Co473 2.057 . S
O489 C477 1.232 . S
H490 C509 0.929 . S
H491 C510 0.929 . S
H492 C522 0.931 . S
H493 C514 0.929 . S
H494 C523 0.930 . S
H495 C515 0.931 . S
O496 Co472 2.097 . S
O496 C524 1.214 . S
H497 C525 0.929 . S
H498 C526 0.929 . S
H499 C527 0.930 . S
H500 C528 0.929 . S
H501 C530 0.930 . S
H502 C507 0.930 . S
H503 C511 0.930 . S
O504 Co473 2.037 . S
O504 C524 1.234 . S
C505 O479 1.269 . S
C505 O480 1.257 . S
C506 H481 0.930 . S
C506 C509 1.388 . S
C506 C511 1.418 . S
C507 H502 0.930 . S
C507 C510 1.404 . S
C507 C511 1.353 . S
N508 Co473 2.145 . S
N508 C509 1.397 . S
N508 C510 1.334 . S
C509 H490 0.929 . S
C509 C506 1.388 . S
C509 N508 1.397 . S
C510 H491 0.929 . S
C510 C507 1.404 . S
C510 N508 1.334 . S
C511 H503 0.930 . S
C511 C506 1.418 . S
C511 C507 1.353 . S
C512 H482 0.930 . S
C512 N513 1.330 . S
C512 C514 1.446 . S
N513 Co472 2.151 . S
N513 C512 1.330 . S
N513 C517 1.418 . S
C514 H493 0.929 . S
C514 C512 1.446 . S
C514 C515 1.332 . S
C515 H495 0.931 . S
C515 C514 1.332 . S
C515 C516 1.267 . S
C516 H484 0.929 . S
C516 C515 1.267 . S
C516 C517 1.251 . S
C517 H487 0.929 . S
C517 N513 1.418 . S
C517 C516 1.251 . S
C518 H485 0.930 . S
C518 C520 1.406 . S
C518 C523 1.261 . S
C519 H486 0.930 . S
C519 N521 1.325 . S
C519 C522 1.357 . S
C520 H488 0.928 . S
C520 C518 1.406 . S
C520 N521 1.261 . S
N521 Co472 2.214 . S
N521 C519 1.325 . S
N521 C520 1.261 . S
C522 H492 0.931 . S
C522 C519 1.357 . S
C522 C523 1.312 . S
C523 H494 0.930 . S
C523 C518 1.261 . S
C523 C522 1.312 . S
C524 O496 1.214 . S
C524 O504 1.234 . S
C525 H497 0.929 . S
C525 C528 1.391 . S
C525 C530 1.391 . S
C526 H498 0.929 . S
C526 C527 1.390 . S
C526 N529 1.391 . S
C527 H499 0.930 . S
C527 C526 1.390 . S
C527 C528 1.392 . S
C528 H500 0.929 . S
C528 C525 1.391 . S
C528 C527 1.392 . S
N529 Co473 2.257 . S
N529 C526 1.391 . S
N529 C530 1.388 . S
C530 H501 0.930 . S
C530 C525 1.391 . S
C530 N529 1.388 . S
Co531 O533 2.143 . S
Co531 O539 2.074 . S
Co531 O542 2.093 . S
Co531 O555 2.097 . S
Co531 N572 2.151 . S
Co531 N580 2.214 . S
Co532 O533 2.160 . S
Co532 O538 2.058 . S
Co532 O548 2.057 . S
Co532 O563 2.037 . S
Co532 N567 2.145 . S
Co532 N588 2.257 . S
O533 Co531 2.143 . S
O533 Co532 2.160 . S
C534 O535 1.278 . S
C534 O542 1.224 . S
O535 C534 1.278 . S
C536 O537 1.245 . S
C536 O548 1.232 . S
O537 C536 1.245 . S
O538 Co532 2.058 . S
O538 C564 1.269 . S
O539 Co531 2.074 . S
O539 C564 1.257 . S
H540 C565 0.930 . S
H541 C571 0.930 . S
O542 Co531 2.093 . S
O542 C534 1.224 . S
H543 C575 0.929 . S
H544 C577 0.930 . S
H545 C578 0.930 . S
H546 C576 0.929 . S
H547 C579 0.928 . S
O548 Co532 2.057 . S
O548 C536 1.232 . S
H549 C568 0.929 . S
H550 C569 0.929 . S
H551 C581 0.931 . S
H552 C573 0.929 . S
H553 C582 0.930 . S
H554 C574 0.931 . S
O555 Co531 2.097 . S
O555 C583 1.214 . S
H556 C584 0.929 . S
H557 C585 0.929 . S
H558 C586 0.930 . S
H559 C587 0.929 . S
H560 C589 0.930 . S
H561 C566 0.930 . S
H562 C570 0.930 . S
O563 Co532 2.037 . S
O563 C583 1.234 . S
C564 O538 1.269 . S
C564 O539 1.257 . S
C565 H540 0.930 . S
C565 C568 1.388 . S
C565 C570 1.418 . S
C566 H561 0.930 . S
C566 C569 1.404 . S
C566 C570 1.353 . S
N567 Co532 2.145 . S
N567 C568 1.397 . S
N567 C569 1.334 . S
C568 H549 0.929 . S
C568 C565 1.388 . S
C568 N567 1.397 . S
C569 H550 0.929 . S
C569 C566 1.404 . S
C569 N567 1.334 . S
C570 H562 0.930 . S
C570 C565 1.418 . S
C570 C566 1.353 . S
C571 H541 0.930 . S
C571 N572 1.330 . S
C571 C573 1.446 . S
N572 Co531 2.151 . S
N572 C571 1.330 . S
N572 C576 1.418 . S
C573 H552 0.929 . S
C573 C571 1.446 . S
C573 C574 1.332 . S
C574 H554 0.931 . S
C574 C573 1.332 . S
C574 C575 1.267 . S
C575 H543 0.929 . S
C575 C574 1.267 . S
C575 C576 1.251 . S
C576 H546 0.929 . S
C576 N572 1.418 . S
C576 C575 1.251 . S
C577 H544 0.930 . S
C577 C579 1.406 . S
C577 C582 1.261 . S
C578 H545 0.930 . S
C578 N580 1.325 . S
C578 C581 1.357 . S
C579 H547 0.928 . S
C579 C577 1.406 . S
C579 N580 1.261 . S
N580 Co531 2.214 . S
N580 C578 1.325 . S
N580 C579 1.261 . S
C581 H551 0.931 . S
C581 C578 1.357 . S
C581 C582 1.312 . S
C582 H553 0.930 . S
C582 C577 1.261 . S
C582 C581 1.312 . S
C583 O555 1.214 . S
C583 O563 1.234 . S
C584 H556 0.929 . S
C584 C587 1.391 . S
C584 C589 1.391 . S
C585 H557 0.929 . S
C585 C586 1.390 . S
C585 N588 1.391 . S
C586 H558 0.930 . S
C586 C585 1.390 . S
C586 C587 1.392 . S
C587 H559 0.929 . S
C587 C584 1.391 . S
C587 C586 1.392 . S
N588 Co532 2.257 . S
N588 C585 1.391 . S
N588 C589 1.388 . S
C589 H560 0.930 . S
C589 C584 1.391 . S
C589 N588 1.388 . S
Co590 O592 2.143 . S
Co590 O598 2.074 . S
Co590 O601 2.093 . S
Co590 O614 2.097 . S
Co590 N631 2.151 . S
Co590 N639 2.214 . S
Co591 O592 2.160 . S
Co591 O597 2.058 . S
Co591 O607 2.057 . S
Co591 O622 2.037 . S
Co591 N626 2.145 . S
Co591 N647 2.257 . S
O592 Co590 2.143 . S
O592 Co591 2.160 . S
C593 O594 1.278 . S
C593 O601 1.224 . S
O594 C593 1.278 . S
C595 O596 1.245 . S
C595 O607 1.232 . S
O596 C595 1.245 . S
O597 Co591 2.058 . S
O597 C623 1.269 . S
O598 Co590 2.074 . S
O598 C623 1.257 . S
H599 C624 0.930 . S
H600 C630 0.930 . S
O601 Co590 2.093 . S
O601 C593 1.224 . S
H602 C634 0.929 . S
H603 C636 0.930 . S
H604 C637 0.930 . S
H605 C635 0.929 . S
H606 C638 0.928 . S
O607 Co591 2.057 . S
O607 C595 1.232 . S
H608 C627 0.929 . S
H609 C628 0.929 . S
H610 C640 0.931 . S
H611 C632 0.929 . S
H612 C641 0.930 . S
H613 C633 0.931 . S
O614 Co590 2.097 . S
O614 C642 1.214 . S
H615 C643 0.929 . S
H616 C644 0.929 . S
H617 C645 0.930 . S
H618 C646 0.929 . S
H619 C648 0.930 . S
H620 C625 0.930 . S
H621 C629 0.930 . S
O622 Co591 2.037 . S
O622 C642 1.234 . S
C623 O597 1.269 . S
C623 O598 1.257 . S
C624 H599 0.930 . S
C624 C627 1.388 . S
C624 C629 1.418 . S
C625 H620 0.930 . S
C625 C628 1.404 . S
C625 C629 1.353 . S
N626 Co591 2.145 . S
N626 C627 1.397 . S
N626 C628 1.334 . S
C627 H608 0.929 . S
C627 C624 1.388 . S
C627 N626 1.397 . S
C628 H609 0.929 . S
C628 C625 1.404 . S
C628 N626 1.334 . S
C629 H621 0.930 . S
C629 C624 1.418 . S
C629 C625 1.353 . S
C630 H600 0.930 . S
C630 N631 1.330 . S
C630 C632 1.446 . S
N631 Co590 2.151 . S
N631 C630 1.330 . S
N631 C635 1.418 . S
C632 H611 0.929 . S
C632 C630 1.446 . S
C632 C633 1.332 . S
C633 H613 0.931 . S
C633 C632 1.332 . S
C633 C634 1.267 . S
C634 H602 0.929 . S
C634 C633 1.267 . S
C634 C635 1.251 . S
C635 H605 0.929 . S
C635 N631 1.418 . S
C635 C634 1.251 . S
C636 H603 0.930 . S
C636 C638 1.406 . S
C636 C641 1.261 . S
C637 H604 0.930 . S
C637 N639 1.325 . S
C637 C640 1.357 . S
C638 H606 0.928 . S
C638 C636 1.406 . S
C638 N639 1.261 . S
N639 Co590 2.214 . S
N639 C637 1.325 . S
N639 C638 1.261 . S
C640 H610 0.931 . S
C640 C637 1.357 . S
C640 C641 1.312 . S
C641 H612 0.930 . S
C641 C636 1.261 . S
C641 C640 1.312 . S
C642 O614 1.214 . S
C642 O622 1.234 . S
C643 H615 0.929 . S
C643 C646 1.391 . S
C643 C648 1.391 . S
C644 H616 0.929 . S
C644 C645 1.390 . S
C644 N647 1.391 . S
C645 H617 0.930 . S
C645 C644 1.390 . S
C645 C646 1.392 . S
C646 H618 0.929 . S
C646 C643 1.391 . S
C646 C645 1.392 . S
N647 Co591 2.257 . S
N647 C644 1.391 . S
N647 C648 1.388 . S
C648 H619 0.930 . S
C648 C643 1.391 . S
C648 N647 1.388 . S
Co649 O651 2.143 . S
Co649 O657 2.074 . S
Co649 O660 2.093 . S
Co649 O673 2.097 . S
Co649 N690 2.151 . S
Co649 N698 2.214 . S
Co650 O651 2.160 . S
Co650 O656 2.058 . S
Co650 O666 2.057 . S
Co650 O681 2.037 . S
Co650 N685 2.145 . S
Co650 N706 2.257 . S
O651 Co649 2.143 . S
O651 Co650 2.160 . S
C652 O653 1.278 . S
C652 O660 1.224 . S
O653 C652 1.278 . S
C654 O655 1.245 . S
C654 O666 1.232 . S
O655 C654 1.245 . S
O656 Co650 2.058 . S
O656 C682 1.269 . S
O657 Co649 2.074 . S
O657 C682 1.257 . S
H658 C683 0.930 . S
H659 C689 0.930 . S
O660 Co649 2.093 . S
O660 C652 1.224 . S
H661 C693 0.929 . S
H662 C695 0.930 . S
H663 C696 0.930 . S
H664 C694 0.929 . S
H665 C697 0.928 . S
O666 Co650 2.057 . S
O666 C654 1.232 . S
H667 C686 0.929 . S
H668 C687 0.929 . S
H669 C699 0.931 . S
H670 C691 0.929 . S
H671 C700 0.930 . S
H672 C692 0.931 . S
O673 Co649 2.097 . S
O673 C701 1.214 . S
H674 C702 0.929 . S
H675 C703 0.929 . S
H676 C704 0.930 . S
H677 C705 0.929 . S
H678 C707 0.930 . S
H679 C684 0.930 . S
H680 C688 0.930 . S
O681 Co650 2.037 . S
O681 C701 1.234 . S
C682 O656 1.269 . S
C682 O657 1.257 . S
C683 H658 0.930 . S
C683 C686 1.388 . S
C683 C688 1.418 . S
C684 H679 0.930 . S
C684 C687 1.404 . S
C684 C688 1.353 . S
N685 Co650 2.145 . S
N685 C686 1.397 . S
N685 C687 1.334 . S
C686 H667 0.929 . S
C686 C683 1.388 . S
C686 N685 1.397 . S
C687 H668 0.929 . S
C687 C684 1.404 . S
C687 N685 1.334 . S
C688 H680 0.930 . S
C688 C683 1.418 . S
C688 C684 1.353 . S
C689 H659 0.930 . S
C689 N690 1.330 . S
C689 C691 1.446 . S
N690 Co649 2.151 . S
N690 C689 1.330 . S
N690 C694 1.418 . S
C691 H670 0.929 . S
C691 C689 1.446 . S
C691 C692 1.332 . S
C692 H672 0.931 . S
C692 C691 1.332 . S
C692 C693 1.267 . S
C693 H661 0.929 . S
C693 C692 1.267 . S
C693 C694 1.251 . S
C694 H664 0.929 . S
C694 N690 1.418 . S
C694 C693 1.251 . S
C695 H662 0.930 . S
C695 C697 1.406 . S
C695 C700 1.261 . S
C696 H663 0.930 . S
C696 N698 1.325 . S
C696 C699 1.357 . S
C697 H665 0.928 . S
C697 C695 1.406 . S
C697 N698 1.261 . S
N698 Co649 2.214 . S
N698 C696 1.325 . S
N698 C697 1.261 . S
C699 H669 0.931 . S
C699 C696 1.357 . S
C699 C700 1.312 . S
C700 H671 0.930 . S
C700 C695 1.261 . S
C700 C699 1.312 . S
C701 O673 1.214 . S
C701 O681 1.234 . S
C702 H674 0.929 . S
C702 C705 1.391 . S
C702 C707 1.391 . S
C703 H675 0.929 . S
C703 C704 1.390 . S
C703 N706 1.391 . S
C704 H676 0.930 . S
C704 C703 1.390 . S
C704 C705 1.392 . S
C705 H677 0.929 . S
C705 C702 1.391 . S
C705 C704 1.392 . S
N706 Co650 2.257 . S
N706 C703 1.391 . S
N706 C707 1.388 . S
C707 H678 0.930 . S
C707 C702 1.391 . S
C707 N706 1.388 . S
Co708 O710 2.143 . S
Co708 O716 2.074 . S
Co708 O719 2.093 . S
Co708 O732 2.097 . S
Co708 N749 2.151 . S
Co708 N757 2.214 . S
Co709 O710 2.160 . S
Co709 O715 2.058 . S
Co709 O725 2.057 . S
Co709 O740 2.037 . S
Co709 N744 2.145 . S
Co709 N765 2.257 . S
O710 Co708 2.143 . S
O710 Co709 2.160 . S
C711 O712 1.278 . S
C711 O719 1.224 . S
O712 C711 1.278 . S
C713 O714 1.245 . S
C713 O725 1.232 . S
O714 C713 1.245 . S
O715 Co709 2.058 . S
O715 C741 1.269 . S
O716 Co708 2.074 . S
O716 C741 1.257 . S
H717 C742 0.930 . S
H718 C748 0.930 . S
O719 Co708 2.093 . S
O719 C711 1.224 . S
H720 C752 0.929 . S
H721 C754 0.930 . S
H722 C755 0.930 . S
H723 C753 0.929 . S
H724 C756 0.928 . S
O725 Co709 2.057 . S
O725 C713 1.232 . S
H726 C745 0.929 . S
H727 C746 0.929 . S
H728 C758 0.931 . S
H729 C750 0.929 . S
H730 C759 0.930 . S
H731 C751 0.931 . S
O732 Co708 2.097 . S
O732 C760 1.214 . S
H733 C761 0.929 . S
H734 C762 0.929 . S
H735 C763 0.930 . S
H736 C764 0.929 . S
H737 C766 0.930 . S
H738 C743 0.930 . S
H739 C747 0.930 . S
O740 Co709 2.037 . S
O740 C760 1.234 . S
C741 O715 1.269 . S
C741 O716 1.257 . S
C742 H717 0.930 . S
C742 C745 1.388 . S
C742 C747 1.418 . S
C743 H738 0.930 . S
C743 C746 1.404 . S
C743 C747 1.353 . S
N744 Co709 2.145 . S
N744 C745 1.397 . S
N744 C746 1.334 . S
C745 H726 0.929 . S
C745 C742 1.388 . S
C745 N744 1.397 . S
C746 H727 0.929 . S
C746 C743 1.404 . S
C746 N744 1.334 . S
C747 H739 0.930 . S
C747 C742 1.418 . S
C747 C743 1.353 . S
C748 H718 0.930 . S
C748 N749 1.330 . S
C748 C750 1.446 . S
N749 Co708 2.151 . S
N749 C748 1.330 . S
N749 C753 1.418 . S
C750 H729 0.929 . S
C750 C748 1.446 . S
C750 C751 1.332 . S
C751 H731 0.931 . S
C751 C750 1.332 . S
C751 C752 1.267 . S
C752 H720 0.929 . S
C752 C751 1.267 . S
C752 C753 1.251 . S
C753 H723 0.929 . S
C753 N749 1.418 . S
C753 C752 1.251 . S
C754 H721 0.930 . S
C754 C756 1.406 . S
C754 C759 1.261 . S
C755 H722 0.930 . S
C755 N757 1.325 . S
C755 C758 1.357 . S
C756 H724 0.928 . S
C756 C754 1.406 . S
C756 N757 1.261 . S
N757 Co708 2.214 . S
N757 C755 1.325 . S
N757 C756 1.261 . S
C758 H728 0.931 . S
C758 C755 1.357 . S
C758 C759 1.312 . S
C759 H730 0.930 . S
C759 C754 1.261 . S
C759 C758 1.312 . S
C760 O732 1.214 . S
C760 O740 1.234 . S
C761 H733 0.929 . S
C761 C764 1.391 . S
C761 C766 1.391 . S
C762 H734 0.929 . S
C762 C763 1.390 . S
C762 N765 1.391 . S
C763 H735 0.930 . S
C763 C762 1.390 . S
C763 C764 1.392 . S
C764 H736 0.929 . S
C764 C761 1.391 . S
C764 C763 1.392 . S
N765 Co709 2.257 . S
N765 C762 1.391 . S
N765 C766 1.388 . S
C766 H737 0.930 . S
C766 C761 1.391 . S
C766 N765 1.388 . S
Co767 O769 2.143 . S
Co767 O775 2.074 . S
Co767 O778 2.093 . S
Co767 O791 2.097 . S
Co767 N808 2.151 . S
Co767 N816 2.214 . S
Co768 O769 2.160 . S
Co768 O774 2.058 . S
Co768 O784 2.057 . S
Co768 O799 2.037 . S
Co768 N803 2.145 . S
Co768 N824 2.257 . S
O769 Co767 2.143 . S
O769 Co768 2.160 . S
C770 O771 1.278 . S
C770 O778 1.224 . S
O771 C770 1.278 . S
C772 O773 1.245 . S
C772 O784 1.232 . S
O773 C772 1.245 . S
O774 Co768 2.058 . S
O774 C800 1.269 . S
O775 Co767 2.074 . S
O775 C800 1.257 . S
H776 C801 0.930 . S
H777 C807 0.930 . S
O778 Co767 2.093 . S
O778 C770 1.224 . S
H779 C811 0.929 . S
H780 C813 0.930 . S
H781 C814 0.930 . S
H782 C812 0.929 . S
H783 C815 0.928 . S
O784 Co768 2.057 . S
O784 C772 1.232 . S
H785 C804 0.929 . S
H786 C805 0.929 . S
H787 C817 0.931 . S
H788 C809 0.929 . S
H789 C818 0.930 . S
H790 C810 0.931 . S
O791 Co767 2.097 . S
O791 C819 1.214 . S
H792 C820 0.929 . S
H793 C821 0.929 . S
H794 C822 0.930 . S
H795 C823 0.929 . S
H796 C825 0.930 . S
H797 C802 0.930 . S
H798 C806 0.930 . S
O799 Co768 2.037 . S
O799 C819 1.234 . S
C800 O774 1.269 . S
C800 O775 1.257 . S
C801 H776 0.930 . S
C801 C804 1.388 . S
C801 C806 1.418 . S
C802 H797 0.930 . S
C802 C805 1.404 . S
C802 C806 1.353 . S
N803 Co768 2.145 . S
N803 C804 1.397 . S
N803 C805 1.334 . S
C804 H785 0.929 . S
C804 C801 1.388 . S
C804 N803 1.397 . S
C805 H786 0.929 . S
C805 C802 1.404 . S
C805 N803 1.334 . S
C806 H798 0.930 . S
C806 C801 1.418 . S
C806 C802 1.353 . S
C807 H777 0.930 . S
C807 N808 1.330 . S
C807 C809 1.446 . S
N808 Co767 2.151 . S
N808 C807 1.330 . S
N808 C812 1.418 . S
C809 H788 0.929 . S
C809 C807 1.446 . S
C809 C810 1.332 . S
C810 H790 0.931 . S
C810 C809 1.332 . S
C810 C811 1.267 . S
C811 H779 0.929 . S
C811 C810 1.267 . S
C811 C812 1.251 . S
C812 H782 0.929 . S
C812 N808 1.418 . S
C812 C811 1.251 . S
C813 H780 0.930 . S
C813 C815 1.406 . S
C813 C818 1.261 . S
C814 H781 0.930 . S
C814 N816 1.325 . S
C814 C817 1.357 . S
C815 H783 0.928 . S
C815 C813 1.406 . S
C815 N816 1.261 . S
N816 Co767 2.214 . S
N816 C814 1.325 . S
N816 C815 1.261 . S
C817 H787 0.931 . S
C817 C814 1.357 . S
C817 C818 1.312 . S
C818 H789 0.930 . S
C818 C813 1.261 . S
C818 C817 1.312 . S
C819 O791 1.214 . S
C819 O799 1.234 . S
C820 H792 0.929 . S
C820 C823 1.391 . S
C820 C825 1.391 . S
C821 H793 0.929 . S
C821 C822 1.390 . S
C821 N824 1.391 . S
C822 H794 0.930 . S
C822 C821 1.390 . S
C822 C823 1.392 . S
C823 H795 0.929 . S
C823 C820 1.391 . S
C823 C822 1.392 . S
N824 Co768 2.257 . S
N824 C821 1.391 . S
N824 C825 1.388 . S
C825 H796 0.930 . S
C825 C820 1.391 . S
C825 N824 1.388 . S
Co826 O828 2.143 . S
Co826 O834 2.074 . S
Co826 O837 2.093 . S
Co826 O850 2.097 . S
Co826 N867 2.151 . S
Co826 N875 2.214 . S
Co827 O828 2.160 . S
Co827 O833 2.058 . S
Co827 O843 2.057 . S
Co827 O858 2.037 . S
Co827 N862 2.145 . S
Co827 N883 2.257 . S
O828 Co826 2.143 . S
O828 Co827 2.160 . S
C829 O830 1.278 . S
C829 O837 1.224 . S
O830 C829 1.278 . S
C831 O832 1.245 . S
C831 O843 1.232 . S
O832 C831 1.245 . S
O833 Co827 2.058 . S
O833 C859 1.269 . S
O834 Co826 2.074 . S
O834 C859 1.257 . S
H835 C860 0.930 . S
H836 C866 0.930 . S
O837 Co826 2.093 . S
O837 C829 1.224 . S
H838 C870 0.929 . S
H839 C872 0.930 . S
H840 C873 0.930 . S
H841 C871 0.929 . S
H842 C874 0.928 . S
O843 Co827 2.057 . S
O843 C831 1.232 . S
H844 C863 0.929 . S
H845 C864 0.929 . S
H846 C876 0.931 . S
H847 C868 0.929 . S
H848 C877 0.930 . S
H849 C869 0.931 . S
O850 Co826 2.097 . S
O850 C878 1.214 . S
H851 C879 0.929 . S
H852 C880 0.929 . S
H853 C881 0.930 . S
H854 C882 0.929 . S
H855 C884 0.930 . S
H856 C861 0.930 . S
H857 C865 0.930 . S
O858 Co827 2.037 . S
O858 C878 1.234 . S
C859 O833 1.269 . S
C859 O834 1.257 . S
C860 H835 0.930 . S
C860 C863 1.388 . S
C860 C865 1.418 . S
C861 H856 0.930 . S
C861 C864 1.404 . S
C861 C865 1.353 . S
N862 Co827 2.145 . S
N862 C863 1.397 . S
N862 C864 1.334 . S
C863 H844 0.929 . S
C863 C860 1.388 . S
C863 N862 1.397 . S
C864 H845 0.929 . S
C864 C861 1.404 . S
C864 N862 1.334 . S
C865 H857 0.930 . S
C865 C860 1.418 . S
C865 C861 1.353 . S
C866 H836 0.930 . S
C866 N867 1.330 . S
C866 C868 1.446 . S
N867 Co826 2.151 . S
N867 C866 1.330 . S
N867 C871 1.418 . S
C868 H847 0.929 . S
C868 C866 1.446 . S
C868 C869 1.332 . S
C869 H849 0.931 . S
C869 C868 1.332 . S
C869 C870 1.267 . S
C870 H838 0.929 . S
C870 C869 1.267 . S
C870 C871 1.251 . S
C871 H841 0.929 . S
C871 N867 1.418 . S
C871 C870 1.251 . S
C872 H839 0.930 . S
C872 C874 1.406 . S
C872 C877 1.261 . S
C873 H840 0.930 . S
C873 N875 1.325 . S
C873 C876 1.357 . S
C874 H842 0.928 . S
C874 C872 1.406 . S
C874 N875 1.261 . S
N875 Co826 2.214 . S
N875 C873 1.325 . S
N875 C874 1.261 . S
C876 H846 0.931 . S
C876 C873 1.357 . S
C876 C877 1.312 . S
C877 H848 0.930 . S
C877 C872 1.261 . S
C877 C876 1.312 . S
C878 O850 1.214 . S
C878 O858 1.234 . S
C879 H851 0.929 . S
C879 C882 1.391 . S
C879 C884 1.391 . S
C880 H852 0.929 . S
C880 C881 1.390 . S
C880 N883 1.391 . S
C881 H853 0.930 . S
C881 C880 1.390 . S
C881 C882 1.392 . S
C882 H854 0.929 . S
C882 C879 1.391 . S
C882 C881 1.392 . S
N883 Co827 2.257 . S
N883 C880 1.391 . S
N883 C884 1.388 . S
C884 H855 0.930 . S
C884 C879 1.391 . S
C884 N883 1.388 . S
Co885 O887 2.143 . S
Co885 O893 2.074 . S
Co885 O896 2.093 . S
Co885 O909 2.097 . S
Co885 N926 2.151 . S
Co885 N934 2.214 . S
Co886 O887 2.160 . S
Co886 O892 2.058 . S
Co886 O902 2.057 . S
Co886 O917 2.037 . S
Co886 N921 2.145 . S
Co886 N942 2.257 . S
O887 Co885 2.143 . S
O887 Co886 2.160 . S
C888 O889 1.278 . S
C888 O896 1.224 . S
O889 C888 1.278 . S
C890 O891 1.245 . S
C890 O902 1.232 . S
O891 C890 1.245 . S
O892 Co886 2.058 . S
O892 C918 1.269 . S
O893 Co885 2.074 . S
O893 C918 1.257 . S
H894 C919 0.930 . S
H895 C925 0.930 . S
O896 Co885 2.093 . S
O896 C888 1.224 . S
H897 C929 0.929 . S
H898 C931 0.930 . S
H899 C932 0.930 . S
H900 C930 0.929 . S
H901 C933 0.928 . S
O902 Co886 2.057 . S
O902 C890 1.232 . S
H903 C922 0.929 . S
H904 C923 0.929 . S
H905 C935 0.931 . S
H906 C927 0.929 . S
H907 C936 0.930 . S
H908 C928 0.931 . S
O909 Co885 2.097 . S
O909 C937 1.214 . S
H910 C938 0.929 . S
H911 C939 0.929 . S
H912 C940 0.930 . S
H913 C941 0.929 . S
H914 C943 0.930 . S
H915 C920 0.930 . S
H916 C924 0.930 . S
O917 Co886 2.037 . S
O917 C937 1.234 . S
C918 O892 1.269 . S
C918 O893 1.257 . S
C919 H894 0.930 . S
C919 C922 1.388 . S
C919 C924 1.418 . S
C920 H915 0.930 . S
C920 C923 1.404 . S
C920 C924 1.353 . S
N921 Co886 2.145 . S
N921 C922 1.397 . S
N921 C923 1.334 . S
C922 H903 0.929 . S
C922 C919 1.388 . S
C922 N921 1.397 . S
C923 H904 0.929 . S
C923 C920 1.404 . S
C923 N921 1.334 . S
C924 H916 0.930 . S
C924 C919 1.418 . S
C924 C920 1.353 . S
C925 H895 0.930 . S
C925 N926 1.330 . S
C925 C927 1.446 . S
N926 Co885 2.151 . S
N926 C925 1.330 . S
N926 C930 1.418 . S
C927 H906 0.929 . S
C927 C925 1.446 . S
C927 C928 1.332 . S
C928 H908 0.931 . S
C928 C927 1.332 . S
C928 C929 1.267 . S
C929 H897 0.929 . S
C929 C928 1.267 . S
C929 C930 1.251 . S
C930 H900 0.929 . S
C930 N926 1.418 . S
C930 C929 1.251 . S
C931 H898 0.930 . S
C931 C933 1.406 . S
C931 C936 1.261 . S
C932 H899 0.930 . S
C932 N934 1.325 . S
C932 C935 1.357 . S
C933 H901 0.928 . S
C933 C931 1.406 . S
C933 N934 1.261 . S
N934 Co885 2.214 . S
N934 C932 1.325 . S
N934 C933 1.261 . S
C935 H905 0.931 . S
C935 C932 1.357 . S
C935 C936 1.312 . S
C936 H907 0.930 . S
C936 C931 1.261 . S
C936 C935 1.312 . S
C937 O909 1.214 . S
C937 O917 1.234 . S
C938 H910 0.929 . S
C938 C941 1.391 . S
C938 C943 1.391 . S
C939 H911 0.929 . S
C939 C940 1.390 . S
C939 N942 1.391 . S
C940 H912 0.930 . S
C940 C939 1.390 . S
C940 C941 1.392 . S
C941 H913 0.929 . S
C941 C938 1.391 . S
C941 C940 1.392 . S
N942 Co886 2.257 . S
N942 C939 1.391 . S
N942 C943 1.388 . S
C943 H914 0.930 . S
C943 C938 1.391 . S
C943 N942 1.388 . S
C944 C945 1.363 . S
C944 C950 1.379 1_455 S
C944 N952 1.356 . S
C945 C944 1.363 . S
C945 C951 1.363 . S
C946 C947 1.363 . S
C946 C951 1.379 1_655 S
C946 N953 1.356 . S
C947 C946 1.363 . S
C947 C950 1.363 . S
N948 C950 1.356 . S
N948 H960 0.984 . S
N948 H961 0.985 . S
N949 C951 1.356 . S
N949 H954 0.984 . S
N949 H955 0.985 . S
C950 C944 1.379 1_655 S
C950 C947 1.363 . S
C950 N948 1.356 . S
C951 C945 1.363 . S
C951 C946 1.379 1_455 S
C951 N949 1.356 . S
N952 C944 1.356 . S
N952 H958 0.984 . S
N952 H959 0.984 . S
N953 C946 1.356 . S
N953 H956 0.984 . S
N953 H957 0.985 . S
H954 N949 0.984 . S
H955 N949 0.985 . S
H956 N953 0.984 . S
H957 N953 0.985 . S
H958 N952 0.984 . S
H959 N952 0.984 . S
H960 N948 0.984 . S
H961 N948 0.985 . S
C962 C963 1.363 . S
C962 C968 1.379 1_565 S
C962 N970 1.356 . S
C963 C962 1.363 . S
C963 C969 1.363 . S
C964 C965 1.363 . S
C964 C969 1.379 1_545 S
C964 N971 1.356 . S
C965 C964 1.363 . S
C965 C968 1.363 . S
N966 C968 1.356 . S
N966 H978 0.984 . S
N966 H979 0.985 . S
N967 C969 1.356 . S
N967 H972 0.984 . S
N967 H973 0.985 . S
C968 C962 1.379 1_545 S
C968 C965 1.363 . S
C968 N966 1.356 . S
C969 C963 1.363 . S
C969 C964 1.379 1_565 S
C969 N967 1.356 . S
N970 C962 1.356 . S
N970 H976 0.984 . S
N970 H977 0.984 . S
N971 C964 1.356 . S
N971 H974 0.984 . S
N971 H975 0.985 . S
H972 N967 0.984 . S
H973 N967 0.985 . S
H974 N971 0.984 . S
H975 N971 0.985 . S
H976 N970 0.984 . S
H977 N970 0.984 . S
H978 N966 0.984 . S
H979 N966 0.985 . S
C980 C981 1.363 . S
C980 C986 1.379 1_455 S
C980 N988 1.356 . S
C981 C980 1.363 . S
C981 C987 1.363 . S
C982 C983 1.363 . S
C982 C987 1.379 1_655 S
C982 N989 1.356 . S
C983 C982 1.363 . S
C983 C986 1.363 . S
N984 C986 1.356 . S
N984 H996 0.984 . S
N984 H997 0.985 . S
N985 C987 1.356 . S
N985 H990 0.984 . S
N985 H991 0.985 . S
C986 C980 1.379 1_655 S
C986 C983 1.363 . S
C986 N984 1.356 . S
C987 C981 1.363 . S
C987 C982 1.379 1_455 S
C987 N985 1.356 . S
N988 C980 1.356 . S
N988 H994 0.984 . S
N988 H995 0.984 . S
N989 C982 1.356 . S
N989 H992 0.984 . S
N989 H993 0.985 . S
H990 N985 0.984 . S
H991 N985 0.985 . S
H992 N989 0.984 . S
H993 N989 0.985 . S
H994 N988 0.984 . S
H995 N988 0.984 . S
H996 N984 0.984 . S
H997 N984 0.985 . S
C998 C999 1.363 . S
C998 C1004 1.379 1_565 S
C998 N1006 1.356 . S
C999 C998 1.363 . S
C999 C1005 1.363 . S
C1000 C1001 1.363 . S
C1000 C1005 1.379 1_545 S
C1000 N1007 1.356 . S
C1001 C1000 1.363 . S
C1001 C1004 1.363 . S
N1002 C1004 1.356 . S
N1002 H1014 0.984 . S
N1002 H1015 0.985 . S
N1003 C1005 1.356 . S
N1003 H1008 0.984 . S
N1003 H1009 0.985 . S
C1004 C998 1.379 1_545 S
C1004 C1001 1.363 . S
C1004 N1002 1.356 . S
C1005 C999 1.363 . S
C1005 C1000 1.379 1_565 S
C1005 N1003 1.356 . S
N1006 C998 1.356 . S
N1006 H1012 0.984 . S
N1006 H1013 0.984 . S
N1007 C1000 1.356 . S
N1007 H1010 0.984 . S
N1007 H1011 0.985 . S
H1008 N1003 0.984 . S
H1009 N1003 0.985 . S
H1010 N1007 0.984 . S
H1011 N1007 0.985 . S
H1012 N1006 0.984 . S
H1013 N1006 0.984 . S
H1014 N1002 0.984 . S
H1015 N1002 0.985 . S
C1016 C1017 1.363 . S
C1016 C1022 1.379 1_655 S
C1016 N1024 1.356 . S
C1017 C1016 1.363 . S
C1017 C1023 1.363 . S
C1018 C1019 1.363 . S
C1018 C1023 1.379 1_455 S
C1018 N1025 1.356 . S
C1019 C1018 1.363 . S
C1019 C1022 1.363 . S
N1020 C1022 1.356 . S
N1020 H1032 0.984 . S
N1020 H1033 0.985 . S
N1021 C1023 1.356 . S
N1021 H1026 0.984 . S
N1021 H1027 0.985 . S
C1022 C1016 1.379 1_455 S
C1022 C1019 1.363 . S
C1022 N1020 1.356 . S
C1023 C1017 1.363 . S
C1023 C1018 1.379 1_655 S
C1023 N1021 1.356 . S
N1024 C1016 1.356 . S
N1024 H1030 0.984 . S
N1024 H1031 0.984 . S
N1025 C1018 1.356 . S
N1025 H1028 0.984 . S
N1025 H1029 0.985 . S
H1026 N1021 0.984 . S
H1027 N1021 0.985 . S
H1028 N1025 0.984 . S
H1029 N1025 0.985 . S
H1030 N1024 0.984 . S
H1031 N1024 0.984 . S
H1032 N1020 0.984 . S
H1033 N1020 0.985 . S
C1034 C1035 1.363 . S
C1034 C1040 1.379 1_545 S
C1034 N1042 1.356 . S
C1035 C1034 1.363 . S
C1035 C1041 1.363 . S
C1036 C1037 1.363 . S
C1036 C1041 1.379 1_565 S
C1036 N1043 1.356 . S
C1037 C1036 1.363 . S
C1037 C1040 1.363 . S
N1038 C1040 1.356 . S
N1038 H1050 0.984 . S
N1038 H1051 0.985 . S
N1039 C1041 1.356 . S
N1039 H1044 0.984 . S
N1039 H1045 0.985 . S
C1040 C1034 1.379 1_565 S
C1040 C1037 1.363 . S
C1040 N1038 1.356 . S
C1041 C1035 1.363 . S
C1041 C1036 1.379 1_545 S
C1041 N1039 1.356 . S
N1042 C1034 1.356 . S
N1042 H1048 0.984 . S
N1042 H1049 0.984 . S
N1043 C1036 1.356 . S
N1043 H1046 0.984 . S
N1043 H1047 0.985 . S
H1044 N1039 0.984 . S
H1045 N1039 0.985 . S
H1046 N1043 0.984 . S
H1047 N1043 0.985 . S
H1048 N1042 0.984 . S
H1049 N1042 0.984 . S
H1050 N1038 0.984 . S
H1051 N1038 0.985 . S
C1052 C1053 1.363 . S
C1052 C1058 1.379 1_655 S
C1052 N1060 1.356 . S
C1053 C1052 1.363 . S
C1053 C1059 1.363 . S
C1054 C1055 1.363 . S
C1054 C1059 1.379 1_455 S
C1054 N1061 1.356 . S
C1055 C1054 1.363 . S
C1055 C1058 1.363 . S
N1056 C1058 1.356 . S
N1056 H1068 0.984 . S
N1056 H1069 0.985 . S
N1057 C1059 1.356 . S
N1057 H1062 0.984 . S
N1057 H1063 0.985 . S
C1058 C1052 1.379 1_455 S
C1058 C1055 1.363 . S
C1058 N1056 1.356 . S
C1059 C1053 1.363 . S
C1059 C1054 1.379 1_655 S
C1059 N1057 1.356 . S
N1060 C1052 1.356 . S
N1060 H1066 0.984 . S
N1060 H1067 0.984 . S
N1061 C1054 1.356 . S
N1061 H1064 0.984 . S
N1061 H1065 0.985 . S
H1062 N1057 0.984 . S
H1063 N1057 0.985 . S
H1064 N1061 0.984 . S
H1065 N1061 0.985 . S
H1066 N1060 0.984 . S
H1067 N1060 0.984 . S
H1068 N1056 0.984 . S
H1069 N1056 0.985 . S
C1070 C1071 1.363 . S
C1070 C1076 1.379 1_545 S
C1070 N1078 1.356 . S
C1071 C1070 1.363 . S
C1071 C1077 1.363 . S
C1072 C1073 1.363 . S
C1072 C1077 1.379 1_565 S
C1072 N1079 1.356 . S
C1073 C1072 1.363 . S
C1073 C1076 1.363 . S
N1074 C1076 1.356 . S
N1074 H1086 0.984 . S
N1074 H1087 0.985 . S
N1075 C1077 1.356 . S
N1075 H1080 0.984 . S
N1075 H1081 0.985 . S
C1076 C1070 1.379 1_565 S
C1076 C1073 1.363 . S
C1076 N1074 1.356 . S
C1077 C1071 1.363 . S
C1077 C1072 1.379 1_545 S
C1077 N1075 1.356 . S
N1078 C1070 1.356 . S
N1078 H1084 0.984 . S
N1078 H1085 0.984 . S
N1079 C1072 1.356 . S
N1079 H1082 0.984 . S
N1079 H1083 0.985 . S
H1080 N1075 0.984 . S
H1081 N1075 0.985 . S
H1082 N1079 0.984 . S
H1083 N1079 0.985 . S
H1084 N1078 0.984 . S
H1085 N1078 0.984 . S
H1086 N1074 0.984 . S
H1087 N1074 0.985 . S
C1088 C1089 1.363 . S
C1088 C1094 1.379 . S
C1088 N1096 1.356 . S
C1089 C1088 1.363 . S
C1089 C1095 1.363 . S
C1090 C1091 1.363 . S
C1090 C1095 1.379 . S
C1090 N1097 1.356 . S
C1091 C1090 1.363 . S
C1091 C1094 1.363 . S
N1092 C1094 1.356 . S
N1092 H1104 0.984 . S
N1092 H1105 0.985 . S
N1093 C1095 1.356 . S
N1093 H1098 0.984 . S
N1093 H1099 0.985 . S
C1094 C1088 1.379 . S
C1094 C1091 1.363 . S
C1094 N1092 1.356 . S
C1095 C1089 1.363 . S
C1095 C1090 1.379 . S
C1095 N1093 1.356 . S
N1096 C1088 1.356 . S
N1096 H1102 0.984 . S
N1096 H1103 0.984 . S
N1097 C1090 1.356 . S
N1097 H1100 0.984 . S
N1097 H1101 0.985 . S
H1098 N1093 0.984 . S
H1099 N1093 0.985 . S
H1100 N1097 0.984 . S
H1101 N1097 0.985 . S
H1102 N1096 0.984 . S
H1103 N1096 0.984 . S
H1104 N1092 0.984 . S
H1105 N1092 0.985 . S
C1106 C1107 1.363 . S
C1106 C1112 1.379 . S
C1106 N1114 1.356 . S
C1107 C1106 1.363 . S
C1107 C1113 1.363 . S
C1108 C1109 1.363 . S
C1108 C1113 1.379 . S
C1108 N1115 1.356 . S
C1109 C1108 1.363 . S
C1109 C1112 1.363 . S
N1110 C1112 1.356 . S
N1110 H1122 0.984 . S
N1110 H1123 0.985 . S
N1111 C1113 1.356 . S
N1111 H1116 0.984 . S
N1111 H1117 0.985 . S
C1112 C1106 1.379 . S
C1112 C1109 1.363 . S
C1112 N1110 1.356 . S
C1113 C1107 1.363 . S
C1113 C1108 1.379 . S
C1113 N1111 1.356 . S
N1114 C1106 1.356 . S
N1114 H1120 0.984 . S
N1114 H1121 0.984 . S
N1115 C1108 1.356 . S
N1115 H1118 0.984 . S
N1115 H1119 0.985 . S
H1116 N1111 0.984 . S
H1117 N1111 0.985 . S
H1118 N1115 0.984 . S
H1119 N1115 0.985 . S
H1120 N1114 0.984 . S
H1121 N1114 0.984 . S
H1122 N1110 0.984 . S
H1123 N1110 0.985 . S
C1124 C1125 1.363 . S
C1124 C1130 1.379 . S
C1124 N1132 1.356 . S
C1125 C1124 1.363 . S
C1125 C1131 1.363 . S
C1126 C1127 1.363 . S
C1126 C1131 1.379 . S
C1126 N1133 1.356 . S
C1127 C1126 1.363 . S
C1127 C1130 1.363 . S
N1128 C1130 1.356 . S
N1128 H1140 0.984 . S
N1128 H1141 0.985 . S
N1129 C1131 1.356 . S
N1129 H1134 0.984 . S
N1129 H1135 0.985 . S
C1130 C1124 1.379 . S
C1130 C1127 1.363 . S
C1130 N1128 1.356 . S
C1131 C1125 1.363 . S
C1131 C1126 1.379 . S
C1131 N1129 1.356 . S
N1132 C1124 1.356 . S
N1132 H1138 0.984 . S
N1132 H1139 0.984 . S
N1133 C1126 1.356 . S
N1133 H1136 0.984 . S
N1133 H1137 0.985 . S
H1134 N1129 0.984 . S
H1135 N1129 0.985 . S
H1136 N1133 0.984 . S
H1137 N1133 0.985 . S
H1138 N1132 0.984 . S
H1139 N1132 0.984 . S
H1140 N1128 0.984 . S
H1141 N1128 0.985 . S
C1142 C1143 1.363 . S
C1142 C1148 1.379 . S
C1142 N1150 1.356 . S
C1143 C1142 1.363 . S
C1143 C1149 1.363 . S
C1144 C1145 1.363 . S
C1144 C1149 1.379 . S
C1144 N1151 1.356 . S
C1145 C1144 1.363 . S
C1145 C1148 1.363 . S
N1146 C1148 1.356 . S
N1146 H1158 0.984 . S
N1146 H1159 0.985 . S
N1147 C1149 1.356 . S
N1147 H1152 0.984 . S
N1147 H1153 0.985 . S
C1148 C1142 1.379 . S
C1148 C1145 1.363 . S
C1148 N1146 1.356 . S
C1149 C1143 1.363 . S
C1149 C1144 1.379 . S
C1149 N1147 1.356 . S
N1150 C1142 1.356 . S
N1150 H1156 0.984 . S
N1150 H1157 0.984 . S
N1151 C1144 1.356 . S
N1151 H1154 0.984 . S
N1151 H1155 0.985 . S
H1152 N1147 0.984 . S
H1153 N1147 0.985 . S
H1154 N1151 0.984 . S
H1155 N1151 0.985 . S
H1156 N1150 0.984 . S
H1157 N1150 0.984 . S
H1158 N1146 0.984 . S
H1159 N1146 0.985 . S
C1160 C1161 1.363 . S
C1160 C1166 1.379 . S
C1160 N1168 1.356 . S
C1161 C1160 1.363 . S
C1161 C1167 1.363 . S
C1162 C1163 1.363 . S
C1162 C1167 1.379 . S
C1162 N1169 1.356 . S
C1163 C1162 1.363 . S
C1163 C1166 1.363 . S
N1164 C1166 1.356 . S
N1164 H1176 0.984 . S
N1164 H1177 0.985 . S
N1165 C1167 1.356 . S
N1165 H1170 0.984 . S
N1165 H1171 0.985 . S
C1166 C1160 1.379 . S
C1166 C1163 1.363 . S
C1166 N1164 1.356 . S
C1167 C1161 1.363 . S
C1167 C1162 1.379 . S
C1167 N1165 1.356 . S
N1168 C1160 1.356 . S
N1168 H1174 0.984 . S
N1168 H1175 0.984 . S
N1169 C1162 1.356 . S
N1169 H1172 0.984 . S
N1169 H1173 0.985 . S
H1170 N1165 0.984 . S
H1171 N1165 0.985 . S
H1172 N1169 0.984 . S
H1173 N1169 0.985 . S
H1174 N1168 0.984 . S
H1175 N1168 0.984 . S
H1176 N1164 0.984 . S
H1177 N1164 0.985 . S
C1178 C1179 1.363 . S
C1178 C1184 1.379 . S
C1178 N1186 1.356 . S
C1179 C1178 1.363 . S
C1179 C1185 1.363 . S
C1180 C1181 1.363 . S
C1180 C1185 1.379 . S
C1180 N1187 1.356 . S
C1181 C1180 1.363 . S
C1181 C1184 1.363 . S
N1182 C1184 1.356 . S
N1182 H1194 0.984 . S
N1182 H1195 0.985 . S
N1183 C1185 1.356 . S
N1183 H1188 0.984 . S
N1183 H1189 0.985 . S
C1184 C1178 1.379 . S
C1184 C1181 1.363 . S
C1184 N1182 1.356 . S
C1185 C1179 1.363 . S
C1185 C1180 1.379 . S
C1185 N1183 1.356 . S
N1186 C1178 1.356 . S
N1186 H1192 0.984 . S
N1186 H1193 0.984 . S
N1187 C1180 1.356 . S
N1187 H1190 0.984 . S
N1187 H1191 0.985 . S
H1188 N1183 0.984 . S
H1189 N1183 0.985 . S
H1190 N1187 0.984 . S
H1191 N1187 0.985 . S
H1192 N1186 0.984 . S
H1193 N1186 0.984 . S
H1194 N1182 0.984 . S
H1195 N1182 0.985 . S
C1196 C1197 1.363 . S
C1196 C1202 1.379 . S
C1196 N1204 1.356 . S
C1197 C1196 1.363 . S
C1197 C1203 1.363 . S
C1198 C1199 1.363 . S
C1198 C1203 1.379 . S
C1198 N1205 1.356 . S
C1199 C1198 1.363 . S
C1199 C1202 1.363 . S
N1200 C1202 1.356 . S
N1200 H1212 0.984 . S
N1200 H1213 0.985 . S
N1201 C1203 1.356 . S
N1201 H1206 0.984 . S
N1201 H1207 0.985 . S
C1202 C1196 1.379 . S
C1202 C1199 1.363 . S
C1202 N1200 1.356 . S
C1203 C1197 1.363 . S
C1203 C1198 1.379 . S
C1203 N1201 1.356 . S
N1204 C1196 1.356 . S
N1204 H1210 0.984 . S
N1204 H1211 0.984 . S
N1205 C1198 1.356 . S
N1205 H1208 0.984 . S
N1205 H1209 0.985 . S
H1206 N1201 0.984 . S
H1207 N1201 0.985 . S
H1208 N1205 0.984 . S
H1209 N1205 0.985 . S
H1210 N1204 0.984 . S
H1211 N1204 0.984 . S
H1212 N1200 0.984 . S
H1213 N1200 0.985 . S
C1214 C1215 1.363 . S
C1214 C1220 1.379 . S
C1214 N1222 1.356 . S
C1215 C1214 1.363 . S
C1215 C1221 1.363 . S
C1216 C1217 1.363 . S
C1216 C1221 1.379 . S
C1216 N1223 1.356 . S
C1217 C1216 1.363 . S
C1217 C1220 1.363 . S
N1218 C1220 1.356 . S
N1218 H1230 0.984 . S
N1218 H1231 0.985 . S
N1219 C1221 1.356 . S
N1219 H1224 0.984 . S
N1219 H1225 0.985 . S
C1220 C1214 1.379 . S
C1220 C1217 1.363 . S
C1220 N1218 1.356 . S
C1221 C1215 1.363 . S
C1221 C1216 1.379 . S
C1221 N1219 1.356 . S
N1222 C1214 1.356 . S
N1222 H1228 0.984 . S
N1222 H1229 0.984 . S
N1223 C1216 1.356 . S
N1223 H1226 0.984 . S
N1223 H1227 0.985 . S
H1224 N1219 0.984 . S
H1225 N1219 0.985 . S
H1226 N1223 0.984 . S
H1227 N1223 0.985 . S
H1228 N1222 0.984 . S
H1229 N1222 0.984 . S
H1230 N1218 0.984 . S
H1231 N1218 0.985 . S
C1232 C1233 1.363 . S
C1232 C1238 1.379 1_556 S
C1232 N1240 1.356 . S
C1233 C1232 1.363 . S
C1233 C1239 1.363 . S
C1234 C1235 1.363 . S
C1234 C1239 1.379 1_554 S
C1234 N1241 1.356 . S
C1235 C1234 1.363 . S
C1235 C1238 1.363 . S
N1236 C1238 1.356 . S
N1236 H1248 0.984 . S
N1236 H1249 0.985 . S
N1237 C1239 1.356 . S
N1237 H1242 0.984 . S
N1237 H1243 0.985 . S
C1238 C1232 1.379 1_554 S
C1238 C1235 1.363 . S
C1238 N1236 1.356 . S
C1239 C1233 1.363 . S
C1239 C1234 1.379 1_556 S
C1239 N1237 1.356 . S
N1240 C1232 1.356 . S
N1240 H1246 0.984 . S
N1240 H1247 0.984 . S
N1241 C1234 1.356 . S
N1241 H1244 0.984 . S
N1241 H1245 0.985 . S
H1242 N1237 0.984 . S
H1243 N1237 0.985 . S
H1244 N1241 0.984 . S
H1245 N1241 0.985 . S
H1246 N1240 0.984 . S
H1247 N1240 0.984 . S
H1248 N1236 0.984 . S
H1249 N1236 0.985 . S
C1250 C1251 1.363 . S
C1250 C1256 1.379 . S
C1250 N1258 1.356 . S
C1251 C1250 1.363 . S
C1251 C1257 1.363 . S
C1252 C1253 1.363 . S
C1252 C1257 1.379 . S
C1252 N1259 1.356 . S
C1253 C1252 1.363 . S
C1253 C1256 1.363 . S
N1254 C1256 1.356 . S
N1254 H1266 0.984 . S
N1254 H1267 0.985 . S
N1255 C1257 1.356 . S
N1255 H1260 0.984 . S
N1255 H1261 0.985 . S
C1256 C1250 1.379 . S
C1256 C1253 1.363 . S
C1256 N1254 1.356 . S
C1257 C1251 1.363 . S
C1257 C1252 1.379 . S
C1257 N1255 1.356 . S
N1258 C1250 1.356 . S
N1258 H1264 0.984 . S
N1258 H1265 0.984 . S
N1259 C1252 1.356 . S
N1259 H1262 0.984 . S
N1259 H1263 0.985 . S
H1260 N1255 0.984 . S
H1261 N1255 0.985 . S
H1262 N1259 0.984 . S
H1263 N1259 0.985 . S
H1264 N1258 0.984 . S
H1265 N1258 0.984 . S
H1266 N1254 0.984 . S
H1267 N1254 0.985 . S
C1268 C1269 1.363 . S
C1268 C1274 1.379 1_554 S
C1268 N1276 1.356 . S
C1269 C1268 1.363 . S
C1269 C1275 1.363 . S
C1270 C1271 1.363 . S
C1270 C1275 1.379 1_556 S
C1270 N1277 1.356 . S
C1271 C1270 1.363 . S
C1271 C1274 1.363 . S
N1272 C1274 1.356 . S
N1272 H1284 0.984 . S
N1272 H1285 0.985 . S
N1273 C1275 1.356 . S
N1273 H1278 0.984 . S
N1273 H1279 0.985 . S
C1274 C1268 1.379 1_556 S
C1274 C1271 1.363 . S
C1274 N1272 1.356 . S
C1275 C1269 1.363 . S
C1275 C1270 1.379 1_554 S
C1275 N1273 1.356 . S
N1276 C1268 1.356 . S
N1276 H1282 0.984 . S
N1276 H1283 0.984 . S
N1277 C1270 1.356 . S
N1277 H1280 0.984 . S
N1277 H1281 0.985 . S
H1278 N1273 0.984 . S
H1279 N1273 0.985 . S
H1280 N1277 0.984 . S
H1281 N1277 0.985 . S
H1282 N1276 0.984 . S
H1283 N1276 0.984 . S
H1284 N1272 0.984 . S
H1285 N1272 0.985 . S
C1286 C1287 1.363 . S
C1286 C1292 1.379 . S
C1286 N1294 1.356 . S
C1287 C1286 1.363 . S
C1287 C1293 1.363 . S
C1288 C1289 1.363 . S
C1288 C1293 1.379 . S
C1288 N1295 1.356 . S
C1289 C1288 1.363 . S
C1289 C1292 1.363 . S
N1290 C1292 1.356 . S
N1290 H1302 0.984 . S
N1290 H1303 0.985 . S
N1291 C1293 1.356 . S
N1291 H1296 0.984 . S
N1291 H1297 0.985 . S
C1292 C1286 1.379 . S
C1292 C1289 1.363 . S
C1292 N1290 1.356 . S
C1293 C1287 1.363 . S
C1293 C1288 1.379 . S
C1293 N1291 1.356 . S
N1294 C1286 1.356 . S
N1294 H1300 0.984 . S
N1294 H1301 0.984 . S
N1295 C1288 1.356 . S
N1295 H1298 0.984 . S
N1295 H1299 0.985 . S
H1296 N1291 0.984 . S
H1297 N1291 0.985 . S
H1298 N1295 0.984 . S
H1299 N1295 0.985 . S
H1300 N1294 0.984 . S
H1301 N1294 0.984 . S
H1302 N1290 0.984 . S
H1303 N1290 0.985 . S
C1304 C1305 1.363 . S
C1304 C1310 1.379 . S
C1304 N1312 1.356 . S
C1305 C1304 1.363 . S
C1305 C1311 1.363 . S
C1306 C1307 1.363 . S
C1306 C1311 1.379 . S
C1306 N1313 1.356 . S
C1307 C1306 1.363 . S
C1307 C1310 1.363 . S
N1308 C1310 1.356 . S
N1308 H1320 0.984 . S
N1308 H1321 0.985 . S
N1309 C1311 1.356 . S
N1309 H1314 0.984 . S
N1309 H1315 0.985 . S
C1310 C1304 1.379 . S
C1310 C1307 1.363 . S
C1310 N1308 1.356 . S
C1311 C1305 1.363 . S
C1311 C1306 1.379 . S
C1311 N1309 1.356 . S
N1312 C1304 1.356 . S
N1312 H1318 0.984 . S
N1312 H1319 0.984 . S
N1313 C1306 1.356 . S
N1313 H1316 0.984 . S
N1313 H1317 0.985 . S
H1314 N1309 0.984 . S
H1315 N1309 0.985 . S
H1316 N1313 0.984 . S
H1317 N1313 0.985 . S
H1318 N1312 0.984 . S
H1319 N1312 0.984 . S
H1320 N1308 0.984 . S
H1321 N1308 0.985 . S
C1322 C1323 1.363 . S
C1322 C1328 1.379 1_556 S
C1322 N1330 1.356 . S
C1323 C1322 1.363 . S
C1323 C1329 1.363 . S
C1324 C1325 1.363 . S
C1324 C1329 1.379 1_554 S
C1324 N1331 1.356 . S
C1325 C1324 1.363 . S
C1325 C1328 1.363 . S
N1326 C1328 1.356 . S
N1326 H1338 0.984 . S
N1326 H1339 0.985 . S
N1327 C1329 1.356 . S
N1327 H1332 0.984 . S
N1327 H1333 0.985 . S
C1328 C1322 1.379 1_554 S
C1328 C1325 1.363 . S
C1328 N1326 1.356 . S
C1329 C1323 1.363 . S
C1329 C1324 1.379 1_556 S
C1329 N1327 1.356 . S
N1330 C1322 1.356 . S
N1330 H1336 0.984 . S
N1330 H1337 0.984 . S
N1331 C1324 1.356 . S
N1331 H1334 0.984 . S
N1331 H1335 0.985 . S
H1332 N1327 0.984 . S
H1333 N1327 0.985 . S
H1334 N1331 0.984 . S
H1335 N1331 0.985 . S
H1336 N1330 0.984 . S
H1337 N1330 0.984 . S
H1338 N1326 0.984 . S
H1339 N1326 0.985 . S
C1340 C1341 1.363 . S
C1340 C1346 1.379 . S
C1340 N1348 1.356 . S
C1341 C1340 1.363 . S
C1341 C1347 1.363 . S
C1342 C1343 1.363 . S
C1342 C1347 1.379 . S
C1342 N1349 1.356 . S
C1343 C1342 1.363 . S
C1343 C1346 1.363 . S
N1344 C1346 1.356 . S
N1344 H1356 0.984 . S
N1344 H1357 0.985 . S
N1345 C1347 1.356 . S
N1345 H1350 0.984 . S
N1345 H1351 0.985 . S
C1346 C1340 1.379 . S
C1346 C1343 1.363 . S
C1346 N1344 1.356 . S
C1347 C1341 1.363 . S
C1347 C1342 1.379 . S
C1347 N1345 1.356 . S
N1348 C1340 1.356 . S
N1348 H1354 0.984 . S
N1348 H1355 0.984 . S
N1349 C1342 1.356 . S
N1349 H1352 0.984 . S
N1349 H1353 0.985 . S
H1350 N1345 0.984 . S
H1351 N1345 0.985 . S
H1352 N1349 0.984 . S
H1353 N1349 0.985 . S
H1354 N1348 0.984 . S
H1355 N1348 0.984 . S
H1356 N1344 0.984 . S
H1357 N1344 0.985 . S
C1358 C1359 1.363 . S
C1358 C1364 1.379 1_554 S
C1358 N1366 1.356 . S
C1359 C1358 1.363 . S
C1359 C1365 1.363 . S
C1360 C1361 1.363 . S
C1360 C1365 1.379 1_556 S
C1360 N1367 1.356 . S
C1361 C1360 1.363 . S
C1361 C1364 1.363 . S
N1362 C1364 1.356 . S
N1362 H1374 0.984 . S
N1362 H1375 0.985 . S
N1363 C1365 1.356 . S
N1363 H1368 0.984 . S
N1363 H1369 0.985 . S
C1364 C1358 1.379 1_556 S
C1364 C1361 1.363 . S
C1364 N1362 1.356 . S
C1365 C1359 1.363 . S
C1365 C1360 1.379 1_554 S
C1365 N1363 1.356 . S
N1366 C1358 1.356 . S
N1366 H1372 0.984 . S
N1366 H1373 0.984 . S
N1367 C1360 1.356 . S
N1367 H1370 0.984 . S
N1367 H1371 0.985 . S
H1368 N1363 0.984 . S
H1369 N1363 0.985 . S
H1370 N1367 0.984 . S
H1371 N1367 0.985 . S
H1372 N1366 0.984 . S
H1373 N1366 0.984 . S
H1374 N1362 0.984 . S
H1375 N1362 0.985 . S
C1376 C1377 1.363 . S
C1376 C1382 1.379 . S
C1376 N1384 1.356 . S
C1377 C1376 1.363 . S
C1377 C1383 1.363 . S
C1378 C1379 1.363 . S
C1378 C1383 1.379 . S
C1378 N1385 1.356 . S
C1379 C1378 1.363 . S
C1379 C1382 1.363 . S
N1380 C1382 1.356 . S
N1380 H1392 0.984 . S
N1380 H1393 0.985 . S
N1381 C1383 1.356 . S
N1381 H1386 0.984 . S
N1381 H1387 0.985 . S
C1382 C1376 1.379 . S
C1382 C1379 1.363 . S
C1382 N1380 1.356 . S
C1383 C1377 1.363 . S
C1383 C1378 1.379 . S
C1383 N1381 1.356 . S
N1384 C1376 1.356 . S
N1384 H1390 0.984 . S
N1384 H1391 0.984 . S
N1385 C1378 1.356 . S
N1385 H1388 0.984 . S
N1385 H1389 0.985 . S
H1386 N1381 0.984 . S
H1387 N1381 0.985 . S
H1388 N1385 0.984 . S
H1389 N1385 0.985 . S
H1390 N1384 0.984 . S
H1391 N1384 0.984 . S
H1392 N1380 0.984 . S
H1393 N1380 0.985 . S
C1394 C1395 1.363 . S
C1394 C1400 1.379 . S
C1394 N1402 1.356 . S
C1395 C1394 1.363 . S
C1395 C1401 1.363 . S
C1396 C1397 1.363 . S
C1396 C1401 1.379 . S
C1396 N1403 1.356 . S
C1397 C1396 1.363 . S
C1397 C1400 1.363 . S
N1398 C1400 1.356 . S
N1398 H1410 0.984 . S
N1398 H1411 0.985 . S
N1399 C1401 1.356 . S
N1399 H1404 0.984 . S
N1399 H1405 0.985 . S
C1400 C1394 1.379 . S
C1400 C1397 1.363 . S
C1400 N1398 1.356 . S
C1401 C1395 1.363 . S
C1401 C1396 1.379 . S
C1401 N1399 1.356 . S
N1402 C1394 1.356 . S
N1402 H1408 0.984 . S
N1402 H1409 0.984 . S
N1403 C1396 1.356 . S
N1403 H1406 0.984 . S
N1403 H1407 0.985 . S
H1404 N1399 0.984 . S
H1405 N1399 0.985 . S
H1406 N1403 0.984 . S
H1407 N1403 0.985 . S
H1408 N1402 0.984 . S
H1409 N1402 0.984 . S
H1410 N1398 0.984 . S
H1411 N1398 0.985 . S
C1412 C1413 1.363 . S
C1412 C1418 1.379 . S
C1412 N1420 1.356 . S
C1413 C1412 1.363 . S
C1413 C1419 1.363 . S
C1414 C1415 1.363 . S
C1414 C1419 1.379 . S
C1414 N1421 1.356 . S
C1415 C1414 1.363 . S
C1415 C1418 1.363 . S
N1416 C1418 1.356 . S
N1416 H1428 0.984 . S
N1416 H1429 0.985 . S
N1417 C1419 1.356 . S
N1417 H1422 0.984 . S
N1417 H1423 0.985 . S
C1418 C1412 1.379 . S
C1418 C1415 1.363 . S
C1418 N1416 1.356 . S
C1419 C1413 1.363 . S
C1419 C1414 1.379 . S
C1419 N1417 1.356 . S
N1420 C1412 1.356 . S
N1420 H1426 0.984 . S
N1420 H1427 0.984 . S
N1421 C1414 1.356 . S
N1421 H1424 0.984 . S
N1421 H1425 0.985 . S
H1422 N1417 0.984 . S
H1423 N1417 0.985 . S
H1424 N1421 0.984 . S
H1425 N1421 0.985 . S
H1426 N1420 0.984 . S
H1427 N1420 0.984 . S
H1428 N1416 0.984 . S
H1429 N1416 0.985 . S
C1430 C1431 1.363 . S
C1430 C1436 1.379 . S
C1430 N1438 1.356 . S
C1431 C1430 1.363 . S
C1431 C1437 1.363 . S
C1432 C1433 1.363 . S
C1432 C1437 1.379 . S
C1432 N1439 1.356 . S
C1433 C1432 1.363 . S
C1433 C1436 1.363 . S
N1434 C1436 1.356 . S
N1434 H1446 0.984 . S
N1434 H1447 0.985 . S
N1435 C1437 1.356 . S
N1435 H1440 0.984 . S
N1435 H1441 0.985 . S
C1436 C1430 1.379 . S
C1436 C1433 1.363 . S
C1436 N1434 1.356 . S
C1437 C1431 1.363 . S
C1437 C1432 1.379 . S
C1437 N1435 1.356 . S
N1438 C1430 1.356 . S
N1438 H1444 0.984 . S
N1438 H1445 0.984 . S
N1439 C1432 1.356 . S
N1439 H1442 0.984 . S
N1439 H1443 0.985 . S
H1440 N1435 0.984 . S
H1441 N1435 0.985 . S
H1442 N1439 0.984 . S
H1443 N1439 0.985 . S
H1444 N1438 0.984 . S
H1445 N1438 0.984 . S
H1446 N1434 0.984 . S
H1447 N1434 0.985 . S
C1448 C1449 1.363 . S
C1448 C1454 1.379 . S
C1448 N1456 1.356 . S
C1449 C1448 1.363 . S
C1449 C1455 1.363 . S
C1450 C1451 1.363 . S
C1450 C1455 1.379 . S
C1450 N1457 1.356 . S
C1451 C1450 1.363 . S
C1451 C1454 1.363 . S
N1452 C1454 1.356 . S
N1452 H1464 0.984 . S
N1452 H1465 0.985 . S
N1453 C1455 1.356 . S
N1453 H1458 0.984 . S
N1453 H1459 0.985 . S
C1454 C1448 1.379 . S
C1454 C1451 1.363 . S
C1454 N1452 1.356 . S
C1455 C1449 1.363 . S
C1455 C1450 1.379 . S
C1455 N1453 1.356 . S
N1456 C1448 1.356 . S
N1456 H1462 0.984 . S
N1456 H1463 0.984 . S
N1457 C1450 1.356 . S
N1457 H1460 0.984 . S
N1457 H1461 0.985 . S
H1458 N1453 0.984 . S
H1459 N1453 0.985 . S
H1460 N1457 0.984 . S
H1461 N1457 0.985 . S
H1462 N1456 0.984 . S
H1463 N1456 0.984 . S
H1464 N1452 0.984 . S
H1465 N1452 0.985 . S
C1466 C1467 1.363 . S
C1466 C1472 1.379 . S
C1466 N1474 1.356 . S
C1467 C1466 1.363 . S
C1467 C1473 1.363 . S
C1468 C1469 1.363 . S
C1468 C1473 1.379 . S
C1468 N1475 1.356 . S
C1469 C1468 1.363 . S
C1469 C1472 1.363 . S
N1470 C1472 1.356 . S
N1470 H1482 0.984 . S
N1470 H1483 0.985 . S
N1471 C1473 1.356 . S
N1471 H1476 0.984 . S
N1471 H1477 0.985 . S
C1472 C1466 1.379 . S
C1472 C1469 1.363 . S
C1472 N1470 1.356 . S
C1473 C1467 1.363 . S
C1473 C1468 1.379 . S
C1473 N1471 1.356 . S
N1474 C1466 1.356 . S
N1474 H1480 0.984 . S
N1474 H1481 0.984 . S
N1475 C1468 1.356 . S
N1475 H1478 0.984 . S
N1475 H1479 0.985 . S
H1476 N1471 0.984 . S
H1477 N1471 0.985 . S
H1478 N1475 0.984 . S
H1479 N1475 0.985 . S
H1480 N1474 0.984 . S
H1481 N1474 0.984 . S
H1482 N1470 0.984 . S
H1483 N1470 0.985 . S
C1484 C1485 1.363 . S
C1484 C1490 1.379 . S
C1484 N1492 1.356 . S
C1485 C1484 1.363 . S
C1485 C1491 1.363 . S
C1486 C1487 1.363 . S
C1486 C1491 1.379 . S
C1486 N1493 1.356 . S
C1487 C1486 1.363 . S
C1487 C1490 1.363 . S
N1488 C1490 1.356 . S
N1488 H1500 0.984 . S
N1488 H1501 0.985 . S
N1489 C1491 1.356 . S
N1489 H1494 0.984 . S
N1489 H1495 0.985 . S
C1490 C1484 1.379 . S
C1490 C1487 1.363 . S
C1490 N1488 1.356 . S
C1491 C1485 1.363 . S
C1491 C1486 1.379 . S
C1491 N1489 1.356 . S
N1492 C1484 1.356 . S
N1492 H1498 0.984 . S
N1492 H1499 0.984 . S
N1493 C1486 1.356 . S
N1493 H1496 0.984 . S
N1493 H1497 0.985 . S
H1494 N1489 0.984 . S
H1495 N1489 0.985 . S
H1496 N1493 0.984 . S
H1497 N1493 0.985 . S
H1498 N1492 0.984 . S
H1499 N1492 0.984 . S
H1500 N1488 0.984 . S
H1501 N1488 0.985 . S
C1502 C1503 1.363 . S
C1502 C1508 1.379 . S
C1502 N1510 1.356 . S
C1503 C1502 1.363 . S
C1503 C1509 1.363 . S
C1504 C1505 1.363 . S
C1504 C1509 1.379 . S
C1504 N1511 1.356 . S
C1505 C1504 1.363 . S
C1505 C1508 1.363 . S
N1506 C1508 1.356 . S
N1506 H1518 0.984 . S
N1506 H1519 0.985 . S
N1507 C1509 1.356 . S
N1507 H1512 0.984 . S
N1507 H1513 0.985 . S
C1508 C1502 1.379 . S
C1508 C1505 1.363 . S
C1508 N1506 1.356 . S
C1509 C1503 1.363 . S
C1509 C1504 1.379 . S
C1509 N1507 1.356 . S
N1510 C1502 1.356 . S
N1510 H1516 0.984 . S
N1510 H1517 0.984 . S
N1511 C1504 1.356 . S
N1511 H1514 0.984 . S
N1511 H1515 0.985 . S
H1512 N1507 0.984 . S
H1513 N1507 0.985 . S
H1514 N1511 0.984 . S
H1515 N1511 0.985 . S
H1516 N1510 0.984 . S
H1517 N1510 0.984 . S
H1518 N1506 0.984 . S
H1519 N1506 0.985 . S
C945 C52 1.443 . S
C947 C170 1.443 . S
C963 C229 1.443 . S
C965 C111 1.443 . S
C981 C288 1.443 . S
C983 C406 1.443 . S
C999 C465 1.443 . S
C1001 C347 1.443 . S
C1017 C524 1.443 . S
C1019 C642 1.443 . S
C1035 C701 1.443 . S
C1037 C583 1.443 . S
C1053 C760 1.443 . S
C1055 C878 1.443 . S
C1071 C937 1.443 . S
C1073 C819 1.443 . S
C1089 C269 1.380 . S
C1091 C33 1.380 . S
C1107 C92 1.380 . S
C1109 C328 1.380 . S
C1125 C151 1.380 . S
C1127 C387 1.380 . S
C1143 C446 1.380 . S
C1145 C210 1.380 . S
C1161 C505 1.380 . S
C1163 C741 1.380 . S
C1179 C564 1.380 . S
C1181 C800 1.380 . S
C1197 C623 1.380 . S
C1199 C859 1.380 . S
C1215 C682 1.380 . S
C1217 C918 1.380 . S
C1233 C593 1.441 . S
C1235 C3 1.441 . S
C1251 C652 1.441 . S
C1253 C62 1.441 . S
C1269 C121 1.441 . S
C1271 C475 1.441 . S
C1287 C180 1.441 . S
C1289 C534 1.441 . S
C1305 C239 1.441 . S
C1307 C829 1.441 . S
C1323 C298 1.441 . S
C1325 C888 1.441 . S
C1341 C357 1.441 . S
C1343 C711 1.441 . S
C1359 C770 1.441 . S
C1361 C416 1.441 . S
C1377 C5 1.465 . S
C1379 C890 1.465 . S
C1395 C713 1.465 . S
C1397 C64 1.465 . S
C1413 C123 1.465 . S
C1415 C772 1.465 . S
C1431 C831 1.465 . S
C1433 C182 1.465 . S
C1449 C536 1.465 . S
C1451 C241 1.465 . S
C1467 C300 1.465 . S
C1469 C595 1.465 . S
C1485 C654 1.465 . S
C1487 C359 1.465 . S
C1503 C477 1.465 . S
C1505 C418 1.465 . S
