# Generated by pormake.
# Topology whw, (6)-cn, num edge types: 1
# Building blocks:
#     Node 0, Type 0, BuildingBlock: BETFEN_clean_sbu_0, # of connection points: 6
#     Node 1, Type 0, BuildingBlock: BETFEN_clean_sbu_0, # of connection points: 6
#     Node 2, Type 0, BuildingBlock: BETFEN_clean_sbu_0, # of connection points: 6
#     Node 3, Type 0, BuildingBlock: BETFEN_clean_sbu_0, # of connection points: 6
#     Node 4, Type 0, BuildingBlock: BETFEN_clean_sbu_0, # of connection points: 6
#     Node 5, Type 0, BuildingBlock: BETFEN_clean_sbu_0, # of connection points: 6
#     Node 6, Type 0, BuildingBlock: BETFEN_clean_sbu_0, # of connection points: 6
#     Node 7, Type 0, BuildingBlock: BETFEN_clean_sbu_0, # of connection points: 6
#     Node 8, Type 0, BuildingBlock: BETFEN_clean_sbu_0, # of connection points: 6
#     Node 9, Type 0, BuildingBlock: BETFEN_clean_sbu_0, # of connection points: 6
#     Node 10, Type 0, BuildingBlock: BETFEN_clean_sbu_0, # of connection points: 6
#     Node 11, Type 0, BuildingBlock: BETFEN_clean_sbu_0, # of connection points: 6
#     Node 12, Type 0, BuildingBlock: BETFEN_clean_sbu_0, # of connection points: 6
#     Node 13, Type 0, BuildingBlock: BETFEN_clean_sbu_0, # of connection points: 6
#     Node 14, Type 0, BuildingBlock: BETFEN_clean_sbu_0, # of connection points: 6
#     Node 15, Type 0, BuildingBlock: BETFEN_clean_sbu_0, # of connection points: 6
#     Edge 16, Type (0, 0), BuildingBlock: XUDNAN_clean_linker_2, # of connection points: 2
#     Edge 17, Type (0, 0), BuildingBlock: XUDNAN_clean_linker_2, # of connection points: 2
#     Edge 18, Type (0, 0), BuildingBlock: XUDNAN_clean_linker_2, # of connection points: 2
#     Edge 19, Type (0, 0), BuildingBlock: XUDNAN_clean_linker_2, # of connection points: 2
#     Edge 20, Type (0, 0), BuildingBlock: XUDNAN_clean_linker_2, # of connection points: 2
#     Edge 21, Type (0, 0), BuildingBlock: XUDNAN_clean_linker_2, # of connection points: 2
#     Edge 22, Type (0, 0), BuildingBlock: XUDNAN_clean_linker_2, # of connection points: 2
#     Edge 23, Type (0, 0), BuildingBlock: XUDNAN_clean_linker_2, # of connection points: 2
#     Edge 24, Type (0, 0), BuildingBlock: XUDNAN_clean_linker_2, # of connection points: 2
#     Edge 25, Type (0, 0), BuildingBlock: XUDNAN_clean_linker_2, # of connection points: 2
#     Edge 26, Type (0, 0), BuildingBlock: XUDNAN_clean_linker_2, # of connection points: 2
#     Edge 27, Type (0, 0), BuildingBlock: XUDNAN_clean_linker_2, # of connection points: 2
#     Edge 28, Type (0, 0), BuildingBlock: XUDNAN_clean_linker_2, # of connection points: 2
#     Edge 29, Type (0, 0), BuildingBlock: XUDNAN_clean_linker_2, # of connection points: 2
#     Edge 30, Type (0, 0), BuildingBlock: XUDNAN_clean_linker_2, # of connection points: 2
#     Edge 31, Type (0, 0), BuildingBlock: XUDNAN_clean_linker_2, # of connection points: 2
#     Edge 32, Type (0, 0), BuildingBlock: XUDNAN_clean_linker_2, # of connection points: 2
#     Edge 33, Type (0, 0), BuildingBlock: XUDNAN_clean_linker_2, # of connection points: 2
#     Edge 34, Type (0, 0), BuildingBlock: XUDNAN_clean_linker_2, # of connection points: 2
#     Edge 35, Type (0, 0), BuildingBlock: XUDNAN_clean_linker_2, # of connection points: 2
#     Edge 36, Type (0, 0), BuildingBlock: XUDNAN_clean_linker_2, # of connection points: 2
#     Edge 37, Type (0, 0), BuildingBlock: XUDNAN_clean_linker_2, # of connection points: 2
#     Edge 38, Type (0, 0), BuildingBlock: XUDNAN_clean_linker_2, # of connection points: 2
#     Edge 39, Type (0, 0), BuildingBlock: XUDNAN_clean_linker_2, # of connection points: 2
#     Edge 40, Type (0, 0), BuildingBlock: XUDNAN_clean_linker_2, # of connection points: 2
#     Edge 41, Type (0, 0), BuildingBlock: XUDNAN_clean_linker_2, # of connection points: 2
#     Edge 42, Type (0, 0), BuildingBlock: XUDNAN_clean_linker_2, # of connection points: 2
#     Edge 43, Type (0, 0), BuildingBlock: XUDNAN_clean_linker_2, # of connection points: 2
#     Edge 44, Type (0, 0), BuildingBlock: XUDNAN_clean_linker_2, # of connection points: 2
#     Edge 45, Type (0, 0), BuildingBlock: XUDNAN_clean_linker_2, # of connection points: 2
#     Edge 46, Type (0, 0), BuildingBlock: XUDNAN_clean_linker_2, # of connection points: 2
#     Edge 47, Type (0, 0), BuildingBlock: XUDNAN_clean_linker_2, # of connection points: 2
#     Edge 48, Type (0, 0), BuildingBlock: XUDNAN_clean_linker_2, # of connection points: 2
#     Edge 49, Type (0, 0), BuildingBlock: XUDNAN_clean_linker_2, # of connection points: 2
#     Edge 50, Type (0, 0), BuildingBlock: XUDNAN_clean_linker_2, # of connection points: 2
#     Edge 51, Type (0, 0), BuildingBlock: XUDNAN_clean_linker_2, # of connection points: 2
#     Edge 52, Type (0, 0), BuildingBlock: XUDNAN_clean_linker_2, # of connection points: 2
#     Edge 53, Type (0, 0), BuildingBlock: XUDNAN_clean_linker_2, # of connection points: 2
#     Edge 54, Type (0, 0), BuildingBlock: XUDNAN_clean_linker_2, # of connection points: 2
#     Edge 55, Type (0, 0), BuildingBlock: XUDNAN_clean_linker_2, # of connection points: 2
#     Edge 56, Type (0, 0), BuildingBlock: XUDNAN_clean_linker_2, # of connection points: 2
#     Edge 57, Type (0, 0), BuildingBlock: XUDNAN_clean_linker_2, # of connection points: 2
#     Edge 58, Type (0, 0), BuildingBlock: XUDNAN_clean_linker_2, # of connection points: 2
#     Edge 59, Type (0, 0), BuildingBlock: XUDNAN_clean_linker_2, # of connection points: 2
#     Edge 60, Type (0, 0), BuildingBlock: XUDNAN_clean_linker_2, # of connection points: 2
#     Edge 61, Type (0, 0), BuildingBlock: XUDNAN_clean_linker_2, # of connection points: 2
#     Edge 62, Type (0, 0), BuildingBlock: XUDNAN_clean_linker_2, # of connection points: 2
#     Edge 63, Type (0, 0), BuildingBlock: XUDNAN_clean_linker_2, # of connection points: 2
# Relax obj value: 0.354
# Max RMSD: 0.240
# Mean RMSD: 0.210
data_MOF--net-whw--node1-BETFEN_clean_sbu_0--edge1-XUDNAN_clean_linker_2
_symmetry_space_group_name_H-M    P1
_symmetry_Int_Tables_number       1
_symmetry_cell_setting            triclinic
loop_
_symmetry_equiv_pos_as_xyz
'x, y, z'
_cell_length_a     46.928106
_cell_length_b     46.436061
_cell_length_c     34.51527
_cell_angle_alpha  90.146707
_cell_angle_beta   83.857067
_cell_angle_gamma 94.039491
loop_
_atom_site_label
_atom_site_type_symbol
_atom_site_fract_x
_atom_site_fract_y
_atom_site_fract_z
_atom_type_partial_charge
Pr0 Pr 0.02913 0.12944 0.19006 0.0
Pr1 Pr 0.01318 0.15067 0.10155 0.0
C2 C 0.04172 0.13709 0.26486 0.0
C3 C 0.04826 0.14243 0.30633 0.0
C4 C 0.06315 0.12278 0.32598 0.0
C5 C 0.07014 0.12822 0.36416 0.0
C6 C 0.06242 0.15351 0.38457 0.0
C7 C 0.04794 0.17348 0.36455 0.0
C8 C 0.04099 0.16802 0.32617 0.0
C9 C 0.00464 0.08715 0.14403 0.0
C10 C 0.96432 0.15166 0.18055 0.0
C11 C -0.00692 0.16638 1.03422 0.0
C12 C 0.98192 0.17511 0.99676 0.0
C13 C 0.96316 0.19741 0.99626 0.0
C14 C 0.95481 0.20758 0.96104 0.0
C15 C 0.96525 0.19637 0.92452 0.0
C16 C 0.9836 0.17351 0.92505 0.0
C17 C -0.00831 0.16302 0.96058 0.0
C18 C 0.05775 0.18088 0.13521 0.0
C19 C 0.07064 0.11483 0.11115 0.0
O20 O 0.02819 0.15547 0.24617 0.0
O21 O 0.04786 0.11375 0.24488 0.0
O22 O -0.00068 0.11346 0.1451 0.0
O23 O 0.02044 0.0808 0.17153 0.0
O24 O 0.97171 0.15983 0.14383 0.0
O25 O 0.98121 0.13844 0.20197 0.0
O26 O 0.00168 0.14051 0.03989 0.0
O27 O -0.00601 0.18365 0.06436 0.0
O28 O 0.0346 0.16996 0.15236 0.0
O29 O 0.05707 0.18034 0.09772 0.0
O30 O 0.07061 0.12321 0.14792 0.0
O31 O 0.04892 0.11775 0.08983 0.0
H32 H 0.06964 0.10312 0.31173 0.0
H33 H 0.08193 0.11243 0.37755 0.0
H34 H 0.04137 0.19311 0.37878 0.0
H35 H 0.0298 0.18395 0.31203 0.0
H36 H 0.95511 0.2074 1.02325 0.0
H37 H 0.94018 0.22464 0.96266 0.0
H38 H -0.00747 0.16429 0.89797 0.0
H39 H 0.00648 0.14609 0.95962 0.0
Pr40 Pr 0.15462 0.78669 0.42042 0.0
Pr41 Pr 0.15728 0.7329 0.37086 0.0
C42 C 0.14939 0.8283 0.47464 0.0
C43 C 0.13609 0.83526 0.51394 0.0
C44 C 0.15355 0.84098 0.54407 0.0
C45 C 0.14195 0.85165 0.5798 0.0
C46 C 0.11274 0.8571 0.58578 0.0
C47 C 0.09504 0.85011 0.5563 0.0
C48 C 0.10656 0.83931 0.52073 0.0
C49 C 0.20207 0.78781 0.36396 0.0
C50 C 0.16675 0.72429 0.46064 0.0
C51 C 0.16543 0.6938 0.3138 0.0
C52 C 0.15635 0.68899 0.2747 0.0
C53 C 0.14323 0.66203 0.26605 0.0
C54 C 0.1332 0.65713 0.22985 0.0
C55 C 0.13623 0.67913 0.20159 0.0
C56 C 0.14942 0.70619 0.21024 0.0
C57 C 0.15927 0.71115 0.24661 0.0
C58 C 0.10683 0.73369 0.42099 0.0
C59 C 0.12881 0.79116 0.33779 0.0
O60 O 0.1325 0.82458 0.44699 0.0
O61 O 0.17056 0.81124 0.47175 0.0
O62 O 0.19293 0.76608 0.38492 0.0
O63 O 0.18812 0.81005 0.37452 0.0
O64 O 0.17587 0.71518 0.42551 0.0
O65 O 0.15478 0.74909 0.46535 0.0
O66 O 0.18394 0.71564 0.31841 0.0
O67 O 0.14498 0.69064 0.3425 0.0
O68 O 0.11868 0.75525 0.40189 0.0
O69 O 0.12013 0.71051 0.4128 0.0
O70 O 0.12722 0.80174 0.3733 0.0
O71 O 0.14139 0.76703 0.32897 0.0
H72 H 0.1764 0.83824 0.53948 0.0
H73 H 0.15611 0.85691 0.602 0.0
H74 H 0.07233 0.85359 0.56045 0.0
H75 H 0.09245 0.83508 0.49819 0.0
H76 H 0.14061 0.64474 0.28744 0.0
H77 H 0.1235 0.63597 0.22377 0.0
H78 H 0.15184 0.72359 0.18904 0.0
H79 H 0.16896 0.73231 0.25279 0.0
Pr80 Pr 0.47723 0.81833 0.64474 0.0
Pr81 Pr 0.52805 0.85718 0.65814 0.0
C82 C 0.43153 0.79059 0.61703 0.0
C83 C 0.4201 0.78886 0.5792 0.0
C84 C 0.43854 0.79275 0.54455 0.0
C85 C 0.42723 0.79487 0.50904 0.0
C86 C 0.39732 0.79323 0.50772 0.0
C87 C 0.37899 0.78828 0.54231 0.0
C88 C 0.39033 0.78616 0.57783 0.0
C89 C 0.51728 0.795 0.68797 0.0
C90 C 0.5339 0.81952 0.57672 0.0
C91 C 0.571 0.88837 0.68737 0.0
C92 C 0.58001 0.8876 0.72649 0.0
C93 C 0.59578 0.91108 0.74114 0.0
C94 C 0.6025 0.91052 0.77957 0.0
C95 C 0.59374 0.88629 0.80346 0.0
C96 C 0.57834 0.86265 0.78813 0.0
C97 C 0.57107 0.86361 0.75033 0.0
C98 C 0.49543 0.88187 0.60682 0.0
C99 C 0.47528 0.84108 0.734 0.0
O100 O 0.43051 0.81581 0.63394 0.0
O101 O 0.45568 0.77859 0.61955 0.0
O102 O 0.52232 0.80937 0.65739 0.0
O103 O 0.48985 0.78911 0.6963 0.0
O104 O 0.54894 0.83168 0.60368 0.0
O105 O 0.50554 0.81609 0.58327 0.0
O106 O 0.57497 0.86504 0.66684 0.0
O107 O 0.54569 0.89802 0.68555 0.0
O108 O 0.48434 0.86863 0.63774 0.0
O109 O 0.52314 0.88215 0.6028 0.0
O110 O 0.45915 0.829 0.70865 0.0
O111 O 0.50186 0.8518 0.72238 0.0
H112 H 0.46161 0.795 0.54501 0.0
H113 H 0.44187 0.79841 0.48275 0.0
H114 H 0.35587 0.7874 0.5422 0.0
H115 H 0.37583 0.78347 0.60439 0.0
H116 H 0.60236 0.92997 0.72318 0.0
H117 H 0.61397 0.92925 0.79073 0.0
H118 H 0.57173 0.84335 0.80524 0.0
H119 H 0.5581 0.84571 0.73986 0.0
Pr120 Pr 0.35262 0.19461 0.95883 0.0
Pr121 Pr 0.34999 0.25009 0.91097 0.0
C122 C 0.35725 0.15031 1.00676 0.0
C123 C 0.3668 0.14245 0.04405 0.0
C124 C 0.38892 0.1237 0.04419 0.0
C125 C 0.39669 0.11379 0.07927 0.0
C126 C 0.38227 0.12233 0.11465 0.0
C127 C 0.36049 0.14153 0.11462 0.0
C128 C 0.35286 0.15165 0.0795 0.0
C129 C 0.30259 0.19811 0.92341 0.0
C130 C 0.34753 0.25697 1.00467 0.0
C131 C 0.33746 0.28948 0.8594 0.0
C132 C 0.34931 0.3002 0.82047 0.0
C133 C 0.35736 0.3297 0.81567 0.0
C134 C 0.37109 0.34024 0.7803 0.0
C135 C 0.37697 0.32147 0.74898 0.0
C136 C 0.3678 0.29209 0.75302 0.0
C137 C 0.35419 0.28145 0.78869 0.0
C138 C 0.4033 0.24426 0.93713 0.0
C139 C 0.37181 0.18976 0.86598 0.0
O140 O 0.37718 0.15821 0.97861 0.0
O141 O 0.33421 0.16478 1.00769 0.0
O142 O 0.31469 0.21891 0.94065 0.0
O143 O 0.31537 0.17462 0.92664 0.0
O144 O 0.33676 0.2671 0.97395 0.0
O145 O 0.35808 0.23138 1.00407 0.0
O146 O 0.3252 0.26327 0.8619 0.0
O147 O 0.35325 0.2958 0.88765 0.0
O148 O 0.38741 0.22411 0.9248 0.0
O149 O 0.39368 0.26925 0.93125 0.0
O150 O 0.37368 0.17815 0.90028 0.0
O151 O 0.36196 0.21556 0.86234 0.0
H152 H 0.39976 0.11618 1.01714 0.0
H153 H 0.41339 0.09877 0.07872 0.0
H154 H 0.34933 0.14861 0.1417 0.0
H155 H 0.33574 0.16617 0.08017 0.0
H156 H 0.35374 0.34452 0.83971 0.0
H157 H 0.37769 0.36305 0.77764 0.0
H158 H 0.37224 0.27722 0.72925 0.0
H159 H 0.34825 0.25853 0.79165 0.0
Pr160 Pr 0.02605 0.8937 0.93388 0.0
Pr161 Pr 0.97 0.89151 0.89677 0.0
C162 C 0.06835 0.90028 0.98075 0.0
C163 C 0.07146 0.89431 1.02169 0.0
C164 C 0.09774 0.88566 1.03156 0.0
C165 C 0.1005 0.87713 0.06958 0.0
C166 C 0.07692 0.87697 0.09837 0.0
C167 C 0.05066 0.88619 0.08854 0.0
C168 C 0.04792 0.89469 0.0504 0.0
C169 C 0.01854 0.84574 0.88686 0.0
C170 C 0.96581 0.86398 0.98272 0.0
C171 C 0.92544 0.88566 0.85342 0.0
C172 C 0.91746 0.87735 0.81476 0.0
C173 C 0.893 0.88824 0.80199 0.0
C174 C 0.88379 0.87949 0.76644 0.0
C175 C 0.89896 0.85972 0.74286 0.0
C176 C 0.92378 0.84908 0.75557 0.0
C177 C 0.93298 0.85786 0.79128 0.0
C178 C 0.9774 0.93793 0.94697 0.0
C179 C 0.03144 0.91016 0.84294 0.0
O180 O 0.05228 0.92113 0.97346 0.0
O181 O 0.06428 0.87745 0.95937 0.0
O182 O -0.00112 0.85556 0.91008 0.0
O183 O 0.04307 0.86013 0.88874 0.0
O184 O 0.95369 0.8632 0.95016 0.0
O185 O -0.00843 0.87694 0.9849 0.0
O186 O 0.93271 0.86507 0.87536 0.0
O187 O 0.94094 0.90998 0.85604 0.0
O188 O -0.00315 0.9294 0.9224 0.0
O189 O 0.95282 0.9241 0.94392 0.0
O190 O 0.04428 0.91501 0.87469 0.0
O191 O 0.005 0.89843 0.84389 0.0
H192 H 0.11603 0.88503 1.00965 0.0
H193 H 0.12112 0.87065 0.07643 0.0
H194 H 0.03206 0.88616 0.11002 0.0
H195 H 0.02732 0.90096 0.04317 0.0
H196 H 0.88069 0.90317 0.8199 0.0
H197 H 0.86435 0.88774 0.7579 0.0
H198 H 0.93614 0.83407 0.7379 0.0
H199 H 0.95199 0.84925 0.80071 0.0
Pr200 Pr 0.37666 0.81546 0.10593 0.0
Pr201 Pr 0.38623 0.75235 0.08314 0.0
C202 C 0.35444 0.86325 0.13488 0.0
C203 C 0.35285 0.87048 0.17658 0.0
C204 C 0.37807 0.87159 0.19527 0.0
C205 C 0.37662 0.86725 0.23522 0.0
C206 C 0.34991 0.86207 0.25754 0.0
C207 C 0.32462 0.86395 0.23952 0.0
C208 C 0.32608 0.8681 0.19929 0.0
C209 C 0.43342 0.80371 0.09744 0.0
C210 C 0.39673 0.76839 0.17302 0.0
C211 C 0.38801 0.70088 0.04812 0.0
C212 C 0.39045 0.69163 1.00761 0.0
C213 C 0.37467 0.66642 0.99769 0.0
C214 C 0.37025 0.6611 0.95893 0.0
C215 C 0.38117 0.68125 0.93 0.0
C216 C 0.39816 0.70571 0.93979 0.0
C217 C 0.40281 0.71088 0.97838 0.0
C218 C 0.33421 0.76117 0.12766 0.0
C219 C 0.39114 0.80396 1.01066 0.0
O220 O 0.33837 0.84025 0.12723 0.0
O221 O 0.3802 0.86382 0.11589 0.0
O222 O 0.41494 0.79397 0.07603 0.0
O223 O 0.42295 0.82188 0.12304 0.0
O224 O 0.40539 0.75119 0.14388 0.0
O225 O 0.38231 0.79145 0.16627 0.0
O226 O 0.41076 0.71401 0.06128 0.0
O227 O 0.36427 0.71343 0.05809 0.0
O228 O 0.34506 0.7767 0.09888 0.0
O229 O 0.35024 0.74043 0.13338 0.0
O230 O 0.38284 0.82302 0.03756 0.0
O231 O 0.39338 0.77658 1.02065 0.0
H232 H 0.3991 0.87304 0.17876 0.0
H233 H 0.3966 0.8655 0.2478 0.0
H234 H 0.3037 0.86055 0.25606 0.0
H235 H 0.30632 0.86686 0.18556 0.0
H236 H 0.36447 0.65168 1.02012 0.0
H237 H 0.35737 0.64193 0.95177 0.0
H238 H 0.40744 0.72104 0.91763 0.0
H239 H 0.41487 0.73055 0.98556 0.0
Pr240 Pr 0.47212 0.08178 0.43556 0.0
Pr241 Pr 0.52916 0.08962 0.38452 0.0
C242 C 0.43073 0.06982 0.49419 0.0
C243 C 0.42655 0.07994 0.53468 0.0
C244 C 0.3999 0.08945 0.54977 0.0
C245 C 0.39605 0.1001 0.58773 0.0
C246 C 0.41882 0.10132 0.61112 0.0
C247 C 0.44562 0.0922 0.5957 0.0
C248 C 0.44948 0.08167 0.55783 0.0
C249 C 0.4818 0.13674 0.40245 0.0
C250 C 0.53215 0.10554 0.47509 0.0
C251 C 0.57271 0.1022 0.3278 0.0
C252 C 0.58071 0.10942 0.28606 0.0
C253 C 0.60476 0.09744 0.26647 0.0
C254 C 0.61464 0.10555 0.22813 0.0
C255 C 0.60063 0.12585 0.20815 0.0
C256 C 0.57618 0.13759 0.2277 0.0
C257 C 0.56631 0.12946 0.26626 0.0
C258 C 0.51659 0.03583 0.42119 0.0
C259 C 0.46781 0.0726 0.34616 0.0
O260 O 0.45201 0.05331 0.48546 0.0
O261 O 0.42855 0.0892 0.46745 0.0
O262 O 0.5006 0.12279 0.41637 0.0
O263 O 0.4574 0.12149 0.40456 0.0
O264 O 0.54692 0.10799 0.4405 0.0
O265 O 0.50524 0.0947 0.48005 0.0
O266 O 0.56046 0.12164 0.35005 0.0
O267 O 0.56297 0.07574 0.33708 0.0
O268 O 0.49984 0.04947 0.40345 0.0
O269 O 0.54163 0.0499 0.4205 0.0
O270 O 0.45642 0.06213 0.38003 0.0
O271 O 0.49305 0.08749 0.34223 0.0
H272 H 0.38209 0.08864 0.53217 0.0
H273 H 0.37513 0.10683 0.59903 0.0
H274 H 0.46368 0.09332 0.61289 0.0
H275 H 0.47044 0.07498 0.54672 0.0
H276 H 0.6164 0.08219 0.28121 0.0
H277 H 0.63379 0.09637 0.21454 0.0
H278 H 0.56458 0.15298 0.2132 0.0
H279 H 0.54768 0.13909 0.28069 0.0
Pr280 Pr 0.10846 0.197 0.75121 0.0
Pr281 Pr 0.11132 0.26069 0.72188 0.0
C282 C 0.12102 0.14593 0.77885 0.0
C283 C 0.13229 0.13301 0.81238 0.0
C284 C 0.11314 0.11727 0.83958 0.0
C285 C 0.12279 0.10574 0.87237 0.0
C286 C 0.15206 0.10916 0.87844 0.0
C287 C 0.17149 0.12414 0.85055 0.0
C288 C 0.16169 0.13589 0.81763 0.0
C289 C 0.05634 0.2146 0.73353 0.0
C290 C 0.09774 0.25099 0.81666 0.0
C291 C 0.11437 0.31345 0.68935 0.0
C292 C 0.10973 0.32578 0.65211 0.0
C293 C 0.11847 0.35473 0.64418 0.0
C294 C 0.11674 0.36611 0.60736 0.0
C295 C 0.10582 0.34871 0.57822 0.0
C296 C 0.09654 0.31971 0.5867 0.0
C297 C 0.09892 0.30824 0.62326 0.0
C298 C 0.16121 0.24297 0.7481 0.0
C299 C 0.10477 0.20745 0.65586 0.0
O300 O 0.13903 0.162 0.75503 0.0
O301 O 0.09551 0.15592 0.78513 0.0
O302 O 0.07501 0.22954 0.74995 0.0
O303 O 0.06328 0.18804 0.72925 0.0
O304 O 0.0956 0.26879 0.78738 0.0
O305 O 0.10492 0.22391 0.81077 0.0
O306 O 0.09158 0.3027 0.711 0.0
O307 O 0.13613 0.29729 0.68807 0.0
O308 O 0.14568 0.22822 0.7266 0.0
O309 O 0.15137 0.26786 0.75592 0.0
O310 O 0.11004 0.18914 0.68329 0.0
O311 O 0.10267 0.23524 0.6636 0.0
H312 H 0.09044 0.11446 0.836 0.0
H313 H 0.10691 0.09519 0.89376 0.0
H314 H 0.1941 0.12717 0.85451 0.0
H315 H 0.17703 0.14745 0.79664 0.0
H316 H 0.12739 0.36829 0.66613 0.0
H317 H 0.12472 0.38829 0.60151 0.0
H318 H 0.08761 0.30577 0.56517 0.0
H319 H 0.09276 0.28562 0.6288 0.0
Pr320 Pr 0.88671 0.30369 0.60101 0.0
Pr321 Pr 0.88865 0.24004 0.58173 0.0
C322 C 0.86872 0.35547 0.6231 0.0
C323 C 0.86485 0.3686 0.66205 0.0
C324 C 0.88896 0.3784 0.68055 0.0
C325 C 0.8862 0.38344 0.72041 0.0
C326 C 0.85933 0.37896 0.74227 0.0
C327 C 0.83476 0.37213 0.72344 0.0
C328 C 0.8375 0.36702 0.68342 0.0
C329 C 0.94155 0.28838 0.58107 0.0
C330 C 0.9085 0.25849 0.66682 0.0
C331 C 0.88799 0.18859 0.54688 0.0
C332 C 0.89102 0.18209 0.50528 0.0
C333 C 0.87313 0.16005 0.49089 0.0
C334 C 0.87093 0.15805 0.45096 0.0
C335 C 0.8863 0.17837 0.42522 0.0
C336 C 0.90512 0.19964 0.43959 0.0
C337 C 0.90744 0.20151 0.47931 0.0
C338 C 0.84071 0.25373 0.63117 0.0
C339 C 0.88936 0.28877 0.50749 0.0
O340 O 0.85109 0.33314 0.61758 0.0
O341 O 0.89515 0.35177 0.60877 0.0
O342 O 0.9203 0.27854 0.5646 0.0
O343 O 0.9351 0.30705 0.60829 0.0
O344 O 0.91295 0.2397 0.63818 0.0
O345 O 0.89521 0.28241 0.6613 0.0
O346 O 0.91092 0.20015 0.5613 0.0
O347 O 0.86461 0.20142 0.55819 0.0
O348 O 0.85074 0.26778 0.60076 0.0
O349 O 0.85531 0.23171 0.63627 0.0
O350 O 0.88954 0.30993 0.53302 0.0
O351 O 0.88721 0.2614 0.51905 0.0
H352 H 0.9103 0.38013 0.66495 0.0
H353 H 0.90537 0.38879 0.73466 0.0
H354 H 0.81389 0.36837 0.74005 0.0
H355 H 0.81853 0.35969 0.66983 0.0
H356 H 0.85985 0.14532 0.51066 0.0
H357 H 0.85638 0.14141 0.44039 0.0
H358 H 0.91773 0.21514 0.42019 0.0
H359 H 0.92108 0.21896 0.48984 0.0
Pr360 Pr 0.62139 0.69416 0.24435 0.0
Pr361 Pr 0.61193 0.75603 0.22028 0.0
C362 C 0.64409 0.64775 0.27168 0.0
C363 C 0.65927 0.64206 0.30525 0.0
C364 C 0.66518 0.61379 0.31359 0.0
C365 C 0.67443 0.60735 0.34941 0.0
C366 C 0.67725 0.62908 0.37746 0.0
C367 C 0.6741 0.65792 0.36727 0.0
C368 C 0.66518 0.66436 0.33127 0.0
C369 C 0.56575 0.70182 0.2299 0.0
C370 C 0.60153 0.74384 0.31368 0.0
C371 C 0.60478 0.80804 0.19043 0.0
C372 C 0.60349 0.82003 0.15174 0.0
C373 C 0.61091 0.84945 0.14511 0.0
C374 C 0.61215 0.8608 0.10765 0.0
C375 C 0.60589 0.8428 0.07654 0.0
C376 C 0.59792 0.81339 0.08337 0.0
C377 C 0.59698 0.802 0.12077 0.0
C378 C 0.66613 0.74676 0.24214 0.0
C379 C 0.61315 0.7045 0.15041 0.0
O380 O 0.65794 0.66515 0.24532 0.0
O381 O 0.61706 0.65303 0.27984 0.0
O382 O 0.58154 0.71933 0.24745 0.0
O383 O 0.5778 0.67768 0.22265 0.0
O384 O 0.59298 0.7596 0.2858 0.0
O385 O 0.61614 0.72058 0.30482 0.0
O386 O 0.58351 0.78988 0.20387 0.0
O387 O 0.62985 0.79969 0.19673 0.0
O388 O 0.65246 0.73086 0.21975 0.0
O389 O 0.65172 0.76849 0.25386 0.0
O390 O 0.6228 0.68718 0.17594 0.0
O391 O 0.60627 0.73088 0.16067 0.0
H392 H 0.66098 0.59645 0.29347 0.0
H393 H 0.67705 0.58503 0.35641 0.0
H394 H 0.67581 0.67514 0.38829 0.0
H395 H 0.66098 0.68641 0.32488 0.0
H396 H 0.61625 0.8635 0.16878 0.0
H397 H 0.61811 0.88359 0.10293 0.0
H398 H 0.59323 0.79909 0.05966 0.0
H399 H 0.59141 0.77916 0.12546 0.0
Pr400 Pr 0.65187 0.28191 0.91141 0.0
Pr401 Pr 0.65866 0.22759 0.86217 0.0
C402 C 0.64315 0.32384 0.96427 0.0
C403 C 0.63369 0.32944 1.00554 0.0
C404 C 0.65336 0.32977 1.03351 0.0
C405 C 0.64532 0.33843 0.07155 0.0
C406 C 0.61752 0.34711 0.08233 0.0
C407 C 0.59755 0.34589 0.05472 0.0
C408 C 0.60558 0.3372 1.01663 0.0
C409 C 0.70161 0.28329 0.85912 0.0
C410 C 0.66265 0.22005 0.95431 0.0
C411 C 0.67 0.18998 0.80408 0.0
C412 C 0.65465 0.1818 0.77021 0.0
C413 C 0.6245 0.17877 0.77403 0.0
C414 C 0.60984 0.17272 0.74164 0.0
C415 C 0.62489 0.17016 0.70447 0.0
C416 C 0.65514 0.17276 0.70074 0.0
C417 C 0.66989 0.1786 0.73341 0.0
C418 C 0.60542 0.22848 0.90562 0.0
C419 C 0.63113 0.28584 0.82558 0.0
O420 O 0.62363 0.31425 0.94209 0.0
O421 O 0.66795 0.31268 0.95609 0.0
O422 O 0.69204 0.26162 0.88005 0.0
O423 O 0.68663 0.30526 0.86747 0.0
O424 O 0.67389 0.21071 0.92014 0.0
O425 O 0.65053 0.24483 0.95722 0.0
O426 O 0.68199 0.21625 0.80365 0.0
O427 O 0.65695 0.18226 0.8382 0.0
O428 O 0.61871 0.24984 0.88792 0.0
O429 O 0.61818 0.20494 0.89794 0.0
O430 O 0.62801 0.29702 0.86071 0.0
O431 O 0.64364 0.26139 0.81849 0.0
H432 H 0.67522 0.32406 1.02586 0.0
H433 H 0.66103 0.33872 0.09239 0.0
H434 H 0.57605 0.35274 0.06207 0.0
H435 H 0.59004 0.33745 0.9956 0.0
H436 H 0.61214 0.18139 0.80203 0.0
H437 H 0.58659 0.1702 0.74577 0.0
H438 H 0.66739 0.17109 0.67249 0.0
H439 H 0.69315 0.18115 0.72987 0.0
Pr440 Pr 0.8502 0.69638 0.46573 0.0
Pr441 Pr 0.85384 0.75133 0.41667 0.0
C442 C 0.84985 0.65334 0.51753 0.0
C443 C 0.85918 0.64622 0.55534 0.0
C444 C 0.83861 0.63524 0.58501 0.0
C445 C 0.84701 0.62614 0.62023 0.0
C446 C 0.87623 0.62763 0.6262 0.0
C447 C 0.89678 0.63916 0.5966 0.0
C448 C 0.88833 0.64851 0.56154 0.0
C449 C 0.80346 0.7019 0.42388 0.0
C450 C 0.84402 0.75993 0.50878 0.0
C451 C 0.84902 0.79164 0.36247 0.0
C452 C 0.85807 0.79547 0.32072 0.0
C453 C 0.87121 0.82211 0.30722 0.0
C454 C 0.88117 0.82594 0.26795 0.0
C455 C 0.87811 0.80312 0.2416 0.0
C456 C 0.86495 0.77639 0.25521 0.0
C457 C 0.8551 0.77254 0.29453 0.0
C458 C 0.90366 0.74357 0.45158 0.0
C459 C 0.87413 0.68969 0.37519 0.0
O460 O 0.86974 0.65768 0.48814 0.0
O461 O 0.82891 0.67055 0.51769 0.0
O462 O 0.81526 0.72219 0.44232 0.0
O463 O 0.81473 0.67776 0.42893 0.0
O464 O 0.8362 0.77003 0.47618 0.0
O465 O 0.85375 0.73403 0.5104 0.0
O466 O 0.82877 0.77141 0.37259 0.0
O467 O 0.86978 0.79279 0.38488 0.0
O468 O 0.8888 0.72386 0.43634 0.0
O469 O 0.89426 0.76875 0.44632 0.0
O470 O 0.8743 0.67836 0.41005 0.0
O471 O 0.86493 0.71555 0.37018 0.0
H472 H 0.81602 0.63327 0.58069 0.0
H473 H 0.83062 0.61782 0.64265 0.0
H474 H 0.9195 0.64021 0.6 0.0
H475 H 0.90469 0.65688 0.53908 0.0
H476 H 0.87386 0.83995 0.32712 0.0
H477 H 0.89086 0.84688 0.25815 0.0
H478 H 0.86251 0.75838 0.23555 0.0
H479 H 0.84537 0.75164 0.30442 0.0
Pr480 Pr 0.52311 0.62795 0.69172 0.0
Pr481 Pr 0.50522 0.65401 0.60545 0.0
C482 C 0.54097 0.62456 0.76468 0.0
C483 C 0.54866 0.63644 0.8037 0.0
C484 C 0.57755 0.63787 0.81181 0.0
C485 C 0.58543 0.64519 0.84913 0.0
C486 C 0.56487 0.65178 0.8802 0.0
C487 C 0.53596 0.6514 0.87195 0.0
C488 C 0.52795 0.64348 0.83451 0.0
C489 C 0.50222 0.58787 0.63914 0.0
C490 C 0.4587 0.65332 0.68593 0.0
C491 C 0.4849 0.6722 0.53906 0.0
C492 C 0.47354 0.68319 0.50253 0.0
C493 C 0.46748 0.71231 0.49924 0.0
C494 C 0.45741 0.72309 0.46541 0.0
C495 C 0.45269 0.7054 0.43284 0.0
C496 C 0.459 0.67613 0.43609 0.0
C497 C 0.46918 0.66529 0.47019 0.0
C498 C 0.54352 0.68543 0.64899 0.0
C499 C 0.5659 0.62343 0.60975 0.0
O500 O 0.55828 0.63071 0.73294 0.0
O501 O 0.51415 0.61914 0.75766 0.0
O502 O 0.49481 0.61327 0.64409 0.0
O503 O 0.51852 0.58083 0.66557 0.0
O504 O 0.4625 0.65626 0.64748 0.0
O505 O 0.47869 0.64605 0.70769 0.0
O506 O 0.49193 0.64557 0.54367 0.0
O507 O 0.48808 0.68881 0.5694 0.0
O508 O 0.52118 0.67089 0.66164 0.0
O509 O 0.54614 0.68671 0.61111 0.0
O510 O 0.5648 0.62878 0.64762 0.0
O511 O 0.54401 0.62592 0.58881 0.0
H512 H 0.59423 0.63236 0.78943 0.0
H513 H 0.60788 0.64522 0.85385 0.0
H514 H 0.51933 0.65601 0.89489 0.0
H515 H 0.50543 0.64239 0.82993 0.0
H516 H 0.47073 0.72712 0.52292 0.0
H517 H 0.45393 0.74579 0.46497 0.0
H518 H 0.45571 0.66125 0.41256 0.0
H519 H 0.47361 0.64275 0.47121 0.0
Pr520 Pr 0.9666 0.32027 0.14158 0.0
Pr521 Pr 0.01836 0.35563 0.16182 0.0
C522 C 0.91905 0.29997 0.11075 0.0
C523 C 0.90785 0.30595 0.07393 0.0
C524 C 0.87823 0.30764 0.07296 0.0
C525 C 0.86774 0.3175 0.03944 0.0
C526 C 0.88683 0.3258 1.00669 0.0
C527 C 0.91649 0.32375 1.00766 0.0
C528 C 0.92692 0.31397 0.04107 0.0
C529 C 0.00418 0.29133 0.18303 0.0
C530 C 0.02546 0.32264 0.07707 0.0
C531 C 0.06246 0.38423 0.19196 0.0
C532 C 0.07349 0.38351 0.22969 0.0
C533 C 0.09159 0.40649 0.24101 0.0
C534 C 0.10019 0.40693 0.2784 0.0
C535 C 0.09064 0.38438 0.30466 0.0
C536 C 0.07309 0.36098 0.29277 0.0
C537 C 0.06452 0.36058 0.25547 0.0
C538 C -0.01216 0.38422 0.11076 0.0
C539 C 0.96367 0.3371 0.23238 0.0
O540 O 0.9196 0.32199 0.1343 0.0
O541 O 0.94242 0.28595 0.10873 0.0
O542 O 0.01019 0.30817 0.15497 0.0
O543 O 0.97652 0.28579 0.18955 0.0
O544 O 0.0398 0.33394 0.10517 0.0
O545 O -0.00294 0.31856 0.08207 0.0
O546 O 0.06527 0.36088 0.17113 0.0
O547 O 0.03716 0.39445 0.19222 0.0
O548 O 0.97614 0.37035 0.14068 0.0
O549 O 0.01542 0.38351 0.10761 0.0
O550 O 0.94796 0.33232 0.2035 0.0
O551 O -0.00831 0.34419 0.22484 0.0
H552 H 0.86332 0.30208 0.09843 0.0
H553 H 0.84479 0.31868 0.03912 0.0
H554 H 0.93172 0.3304 0.98293 0.0
H555 H 0.94992 0.31353 0.04157 0.0
H556 H 0.09854 0.42433 0.22128 0.0
H557 H 0.11388 0.42507 0.287 0.0
H558 H 0.06505 0.34358 0.31273 0.0
H559 H 0.05028 0.3428 0.24709 0.0
Pr560 Pr 0.52926 0.40065 0.43707 0.0
Pr561 Pr 0.47201 0.39133 0.39935 0.0
C562 C 0.57753 0.41125 0.4716 0.0
C563 C 0.58527 0.40175 0.50991 0.0
C564 C 0.5955 0.37431 0.5145 0.0
C565 C 0.59917 0.36396 0.55149 0.0
C566 C 0.59281 0.38083 0.58473 0.0
C567 C 0.58383 0.40875 0.57995 0.0
C568 C 0.58013 0.41908 0.54301 0.0
C569 C 0.50737 0.34379 0.43434 0.0
C570 C 0.4698 0.38734 0.49361 0.0
C571 C 0.42786 0.37763 0.357 0.0
C572 C 0.41924 0.36668 0.31944 0.0
C573 C 0.3932 0.37471 0.30788 0.0
C574 C 0.38433 0.36567 0.2722 0.0
C575 C 0.40138 0.34844 0.24695 0.0
C576 C 0.42745 0.34002 0.25879 0.0
C577 C 0.43638 0.34918 0.29473 0.0
C578 C 0.48026 0.4457 0.43296 0.0
C579 C 0.53391 0.3999 0.34205 0.0
O580 O 0.55747 0.42953 0.47244 0.0
O581 O 0.57495 0.39124 0.44515 0.0
O582 O 0.50806 0.36159 0.40674 0.0
O583 O 0.51837 0.35492 0.46424 0.0
O584 O 0.45807 0.37536 0.46371 0.0
O585 O 0.49396 0.40381 0.48862 0.0
O586 O 0.43703 0.35945 0.38111 0.0
O587 O 0.44137 0.40328 0.35667 0.0
O588 O 0.50002 0.43275 0.41371 0.0
O589 O 0.45546 0.43159 0.43295 0.0
O590 O 0.54762 0.40697 0.37238 0.0
O591 O 0.50618 0.39221 0.34513 0.0
H592 H 0.59977 0.36036 0.48967 0.0
H593 H 0.60588 0.34227 0.55413 0.0
H594 H 0.57927 0.42257 0.60485 0.0
H595 H 0.57245 0.44038 0.54054 0.0
H596 H 0.37964 0.38816 0.3265 0.0
H597 H 0.36392 0.37213 0.26451 0.0
H598 H 0.44121 0.32692 0.23995 0.0
H599 H 0.45668 0.34287 0.30302 0.0
Pr600 Pr 0.98262 0.59113 0.94024 0.0
Pr601 Pr 0.03756 0.58948 0.88372 0.0
C602 C 0.94107 0.58358 0.99984 0.0
C603 C 0.9372 0.59159 0.04099 0.0
C604 C 0.91096 0.6017 0.0564 0.0
C605 C 0.90693 0.61005 0.09525 0.0
C606 C 0.92913 0.60836 0.1192 0.0
C607 C 0.9555 0.59835 0.10367 0.0
C608 C 0.95958 0.59015 0.06471 0.0
C609 C -0.00527 0.64121 0.89629 0.0
C610 C 0.04643 0.61358 0.97016 0.0
C611 C 0.08046 0.59214 0.82485 0.0
C612 C 0.08893 0.60207 0.78454 0.0
C613 C 0.11245 0.59028 0.7635 0.0
C614 C 0.12224 0.60011 0.72595 0.0
C615 C 0.10857 0.62191 0.70838 0.0
C616 C 0.08475 0.63362 0.72956 0.0
C617 C 0.07501 0.62379 0.76739 0.0
C618 C 0.02269 0.53985 0.92984 0.0
C619 C 0.97382 0.58053 0.85124 0.0
O620 O 0.95963 0.56439 0.99003 0.0
O621 O 0.94224 0.60488 0.97494 0.0
O622 O 0.01342 0.62736 0.91056 0.0
O623 O 0.96877 0.63056 0.90716 0.0
O624 O 0.05836 0.61267 0.93395 0.0
O625 O 0.01924 0.60456 0.98012 0.0
O626 O 0.07735 0.612 0.85157 0.0
O627 O 0.06156 0.57006 0.8304 0.0
O628 O 0.00591 0.55371 0.91226 0.0
O629 O 0.04868 0.55168 0.92404 0.0
O630 O 0.96301 0.57173 0.88629 0.0
O631 O 0.0003 0.59232 0.84447 0.0
H632 H 0.89358 0.60312 0.03835 0.0
H633 H 0.88631 0.61742 0.10671 0.0
H634 H 0.97304 0.59716 0.12151 0.0
H635 H 0.98019 0.58279 0.05318 0.0
H636 H 0.1236 0.57369 0.77642 0.0
H637 H 0.14095 0.59094 0.71102 0.0
H638 H 0.0735 0.6502 0.71684 0.0
H639 H 0.05679 0.63321 0.78328 0.0
H640 H 0.07567 0.06842 0.06511 0.0
H641 H 0.1241 0.14098 0.11064 0.0
H642 H 0.16443 0.13433 0.06034 0.0
H643 H 0.14461 0.02745 1.02101 0.0
H644 H 0.12467 0.01616 0.98112 0.0
H645 H 0.1065 0.01845 1.02971 0.0
H646 H 0.0708 0.05302 1.00314 0.0
H647 H 0.08915 0.04969 0.95562 0.0
H648 H 0.08557 0.08497 0.97682 0.0
H649 H 0.18664 0.13441 0.99419 0.0
H650 H 0.18894 0.1388 0.92327 0.0
H651 H 0.13329 0.06069 0.91954 0.0
C652 C 0.0956 0.08163 0.06553 0.0
C653 C 0.09717 0.10506 0.0911 0.0
C654 C 0.12292 0.12262 0.09128 0.0
C655 C 0.14594 0.11889 0.06288 0.0
C656 C 0.143 0.09697 1.03556 0.0
C657 C 0.11879 0.07784 0.03759 0.0
C658 C 0.11799 0.06017 1.0009 0.0
C659 C 0.12379 0.02869 1.00865 0.0
C660 C 0.08925 0.06213 0.98311 0.0
C661 C 0.14302 0.07521 0.97587 0.0
C662 C 0.15786 0.09576 0.9967 0.0
C663 C 0.17631 0.11752 0.97786 0.0
C664 C 0.17762 0.11985 0.93729 0.0
C665 C 0.16083 0.10024 0.9162 0.0
C666 C 0.1461 0.07599 0.93535 0.0
H667 H 0.13541 0.78102 0.25944 0.0
H668 H 0.09451 0.83672 0.3467 0.0
H669 H 0.07528 0.86363 0.29483 0.0
H670 H 0.15718 0.83543 0.18948 0.0
H671 H 0.15074 0.81288 0.14827 0.0
H672 H 0.15963 0.79696 0.19254 0.0
H673 H 0.11324 0.76299 0.19634 0.0
H674 H 0.10418 0.77845 0.15183 0.0
H675 H 0.07902 0.77811 0.19516 0.0
H676 H 0.06157 0.88523 0.23369 0.0
H677 H 0.05541 0.90081 0.16696 0.0
H678 H 0.10533 0.83091 0.12009 0.0
C679 C 0.12216 0.79867 0.26778 0.0
C680 C 0.11637 0.80668 0.30712 0.0
C681 C 0.09923 0.83017 0.31671 0.0
C682 C 0.08815 0.84555 0.28751 0.0
C683 C 0.09445 0.83718 0.249 0.0
C684 C 0.11105 0.81431 0.23911 0.0
C685 C 0.11553 0.8103 0.19552 0.0
C686 C 0.14767 0.81414 0.18058 0.0
C687 C 0.10219 0.78071 0.18404 0.0
C688 C 0.09907 0.83476 0.18237 0.0
C689 C 0.08687 0.84986 0.2137 0.0
C690 C 0.07086 0.87351 0.20888 0.0
C691 C 0.06735 0.8821 0.17093 0.0
C692 C 0.07986 0.8671 0.13839 0.0
C693 C 0.09576 0.84302 0.14437 0.0
H694 H 0.38641 0.87808 0.31193 0.0
H695 H 0.3119 0.82055 0.29393 0.0
H696 H 0.31512 0.79708 0.35707 0.0
H697 H 0.42554 0.82498 0.3502 0.0
H698 H 0.44129 0.84844 0.38499 0.0
H699 H 0.43166 0.86312 0.34036 0.0
H700 H 0.39951 0.89886 0.37884 0.0
H701 H 0.4096 0.88503 0.42373 0.0
H702 H 0.37217 0.88534 0.41632 0.0
H703 H 0.32894 0.77744 0.41954 0.0
H704 H 0.35063 0.76511 0.47906 0.0
H705 H 0.4165 0.83498 0.45406 0.0
C706 C 0.3706 0.86069 0.32125 0.0
C707 C 0.34892 0.85119 0.2979 0.0
C708 C 0.32846 0.82856 0.31155 0.0
C709 C 0.33026 0.81488 0.3472 0.0
C710 C 0.35262 0.82412 0.36866 0.0
C711 C 0.37232 0.8466 0.35629 0.0
C712 C 0.39502 0.85171 0.38384 0.0
C713 C 0.42514 0.84675 0.36363 0.0
C714 C 0.394 0.88203 0.40176 0.0
C715 C 0.38506 0.82849 0.41364 0.0
C716 C 0.36061 0.81279 0.40445 0.0
C717 C 0.34791 0.78976 0.42733 0.0
C718 C 0.36036 0.78294 0.46096 0.0
C719 C 0.38523 0.79907 0.47105 0.0
C720 C 0.39772 0.82199 0.44685 0.0
H721 H 0.36375 0.20044 0.78971 0.0
H722 H 0.40264 0.14209 0.86357 0.0
H723 H 0.41892 0.1139 0.80613 0.0
H724 H 0.33817 0.14619 0.7256 0.0
H725 H 0.34554 0.16846 0.68248 0.0
H726 H 0.33757 0.18488 0.72937 0.0
H727 H 0.38527 0.2167 0.71912 0.0
H728 H 0.39354 0.20059 0.67209 0.0
H729 H 0.41864 0.19991 0.70808 0.0
H730 H 0.43081 0.0918 0.74236 0.0
H731 H 0.43717 0.07614 0.67403 0.0
H732 H 0.39056 0.14807 0.64041 0.0
C733 C 0.37584 0.18185 0.79374 0.0
C734 C 0.38198 0.17354 0.83109 0.0
C735 C 0.39762 0.1489 0.83525 0.0
C736 C 0.40704 0.13272 0.80283 0.0
C737 C 0.40053 0.14138 0.76652 0.0
C738 C 0.38527 0.16525 0.76166 0.0
C739 C 0.38081 0.16939 0.71931 0.0
C740 C 0.34861 0.16708 0.71388 0.0
C741 C 0.39545 0.19836 0.70373 0.0
C742 C 0.39592 0.14397 0.7013 0.0
C743 C 0.40722 0.12827 0.7292 0.0
C744 C 0.42219 0.10392 0.7201 0.0
C745 C 0.42583 0.0953 0.68123 0.0
C746 C 0.41454 0.11099 0.65199 0.0
C747 C 0.39927 0.13559 0.66224 0.0
H748 H 0.92809 0.8319 0.20929 0.0
H749 H 0.85016 0.78459 0.17988 0.0
H750 H 0.86559 0.79312 0.11015 0.0
H751 H 0.93039 0.88671 0.13685 0.0
H752 H 0.96893 0.88896 0.12624 0.0
H753 H 0.95267 0.87799 0.17401 0.0
H754 H 0.97956 0.83093 0.16801 0.0
H755 H -0.00437 0.84166 0.12002 0.0
H756 H 0.97526 0.80739 0.1271 0.0
H757 H 0.88764 0.80872 0.04486 0.0
H758 H 0.91572 0.82998 0.98632 0.0
H759 H 0.97948 0.86738 0.05791 0.0
C760 C 0.9143 0.82333 0.18816 0.0
C761 C 0.88798 0.80747 0.19987 0.0
C762 C 0.87061 0.79639 0.17143 0.0
C763 C 0.8791 0.80124 0.13183 0.0
C764 C 0.90503 0.8171 0.12131 0.0
C765 C 0.92248 0.82793 0.1485 0.0
C766 C 0.94903 0.84477 0.12923 0.0
C767 C 0.9503 0.87648 0.14237 0.0
C768 C 0.97649 0.83032 0.13654 0.0
C769 C 0.94338 0.84214 0.08707 0.0
C770 C 0.91797 0.826 0.08323 0.0
C771 C 0.90769 0.82125 0.04733 0.0
C772 C 0.92378 0.8335 1.01433 0.0
C773 C 0.94982 0.85029 1.01759 0.0
C774 C 0.95979 0.85446 0.05445 0.0
H775 H 0.92113 0.20657 0.702 0.0
H776 H 0.91904 0.29886 0.72157 0.0
H777 H 0.93505 0.29258 0.78628 0.0
H778 H 0.89522 0.18321 0.79905 0.0
H779 H 0.91895 0.15451 0.80129 0.0
H780 H 0.90875 0.16552 0.75498 0.0
H781 H 0.96244 0.17464 0.72864 0.0
H782 H 0.97272 0.16362 0.77492 0.0
H783 H 0.98553 0.19849 0.75479 0.0
H784 H 0.94606 0.27681 0.85137 0.0
H785 H 0.95688 0.25347 0.91073 0.0
H786 H 0.95619 0.17064 0.85174 0.0
C787 C 0.9242 0.2255 0.71984 0.0
C788 C 0.91867 0.25338 0.70613 0.0
C789 C 0.92273 0.27732 0.73096 0.0
C790 C 0.9318 0.27397 0.76806 0.0
C791 C 0.93649 0.24644 0.78093 0.0
C792 C 0.93333 0.22256 0.75752 0.0
C793 C 0.94033 0.19551 0.7791 0.0
C794 C 0.91426 0.17337 0.78388 0.0
C795 C 0.96683 0.18228 0.75809 0.0
C796 C 0.94697 0.20794 0.8185 0.0
C797 C 0.94452 0.23739 0.81853 0.0
C798 C 0.94824 0.25381 0.85156 0.0
C799 C 0.95451 0.24007 0.8855 0.0
C800 C 0.95805 0.20991 0.88681 0.0
C801 C 0.95425 0.19372 0.85222 0.0
H802 H 0.6373 0.13546 0.64053 0.0
H803 H 0.57585 0.19481 0.69023 0.0
H804 H 0.54669 0.1851 0.63603 0.0
H805 H 0.63303 0.1556 0.53927 0.0
H806 H 0.63641 0.1193 0.52153 0.0
H807 H 0.65281 0.13093 0.56434 0.0
H808 H 0.62552 0.08822 0.60344 0.0
H809 H 0.60886 0.07645 0.56095 0.0
H810 H 0.58691 0.08367 0.60554 0.0
H811 H 0.52231 0.16679 0.5806 0.0
H812 H 0.50551 0.14335 0.52225 0.0
H813 H 0.58395 0.09867 0.5039 0.0
C814 C 0.61795 0.14674 0.63971 0.0
C815 C 0.60871 0.16561 0.67002 0.0
C816 C 0.58308 0.17974 0.66794 0.0
C817 C 0.56644 0.17455 0.63712 0.0
C818 C 0.57586 0.15549 0.60823 0.0
C819 C 0.60111 0.142 0.60885 0.0
C820 C 0.60609 0.12244 0.57388 0.0
C821 C 0.63372 0.13269 0.54821 0.0
C822 C 0.60688 0.09083 0.58674 0.0
C823 C 0.57947 0.12691 0.55382 0.0
C824 C 0.5623 0.14592 0.57454 0.0
C825 C 0.53571 0.15223 0.56372 0.0
C826 C 0.52631 0.13876 0.53075 0.0
C827 C 0.54361 0.11955 0.50876 0.0
C828 C 0.57066 0.11371 0.52007 0.0
H829 H 0.51454 0.81358 0.50326 0.0
H830 H 0.58747 0.79871 0.56593 0.0
H831 H 0.61171 0.77707 0.50678 0.0
H832 H 0.51578 0.74986 0.44362 0.0
H833 H 0.50707 0.76771 0.40054 0.0
H834 H 0.49517 0.7813 0.44802 0.0
H835 H 0.51992 0.83134 0.42952 0.0
H836 H 0.53198 0.81821 0.38183 0.0
H837 H 0.55763 0.83454 0.41212 0.0
H838 H 0.62711 0.75394 0.44113 0.0
H839 H 0.63487 0.73726 0.37292 0.0
H840 H 0.55478 0.7715 0.34952 0.0
C841 C 0.53565 0.80582 0.50454 0.0
C842 C 0.54896 0.80787 0.53972 0.0
C843 C 0.57675 0.79763 0.53965 0.0
C844 C 0.59067 0.7851 0.50609 0.0
C845 C 0.57698 0.78334 0.47206 0.0
C846 C 0.5503 0.79394 0.4708 0.0
C847 C 0.54098 0.79072 0.42989 0.0
C848 C 0.51309 0.77123 0.43056 0.0
C849 C 0.53743 0.82047 0.41229 0.0
C850 C 0.56639 0.7763 0.40847 0.0
C851 C 0.58671 0.77183 0.43361 0.0
C852 C 0.61142 0.75767 0.42122 0.0
C853 C 0.61563 0.7481 0.38232 0.0
C854 C 0.59567 0.7531 0.35549 0.0
C855 C 0.57069 0.76754 0.36902 0.0
H856 H 0.64386 0.58579 0.41425 0.0
H857 H 0.70574 0.6565 0.43441 0.0
H858 H 0.69088 0.65254 0.50505 0.0
H859 H 0.59103 0.60824 0.46689 0.0
H860 H 0.5744 0.57474 0.48733 0.0
H861 H 0.59666 0.57455 0.44202 0.0
H862 H 0.62876 0.53852 0.46957 0.0
H863 H 0.60715 0.53808 0.51607 0.0
H864 H 0.64523 0.54689 0.51346 0.0
H865 H 0.66084 0.65037 0.56814 0.0
H866 H 0.61799 0.65148 0.61633 0.0
H867 H 0.57473 0.58342 0.55416 0.0
C868 C 0.6557 0.59915 0.43365 0.0
C869 C 0.6762 0.62119 0.41901 0.0
C870 C 0.69015 0.63929 0.44521 0.0
C871 C 0.68194 0.63704 0.48538 0.0
C872 C 0.66008 0.61635 0.4987 0.0
C873 C 0.64744 0.59739 0.47351 0.0
C874 C 0.62067 0.58131 0.49315 0.0
C875 C 0.59419 0.58498 0.47104 0.0
C876 C 0.62575 0.5493 0.49835 0.0
C877 C 0.61831 0.59653 0.53183 0.0
C878 C 0.64195 0.61561 0.53535 0.0
C879 C 0.64271 0.63486 0.56636 0.0
C880 C 0.61832 0.63539 0.59353 0.0
C881 C 0.59345 0.6174 0.58855 0.0
C882 C 0.59385 0.59701 0.55846 0.0
H883 H 0.65356 0.28849 0.74934 0.0
H884 H 0.58453 0.31803 0.83012 0.0
H885 H 0.56688 0.34486 0.77676 0.0
H886 H 0.66764 0.35547 0.69716 0.0
H887 H 0.67614 0.33862 0.65064 0.0
H888 H 0.6823 0.32059 0.69481 0.0
H889 H 0.6508 0.27583 0.67609 0.0
H890 H 0.64442 0.29348 0.63173 0.0
H891 H 0.61452 0.27993 0.66549 0.0
H892 H 0.55662 0.36806 0.71532 0.0
H893 H 0.55521 0.38792 0.6496 0.0
H894 H 0.63276 0.34586 0.60929 0.0
C895 C 0.63452 0.30033 0.75559 0.0
C896 C 0.62015 0.30101 0.79356 0.0
C897 C 0.59576 0.31726 0.80107 0.0
C898 C 0.58556 0.33249 0.77103 0.0
C899 C 0.60032 0.33156 0.73392 0.0
C900 C 0.62439 0.31613 0.72614 0.0
C901 C 0.63701 0.31976 0.68411 0.0
C902 C 0.66758 0.33449 0.68154 0.0
C903 C 0.63665 0.29052 0.66311 0.0
C904 C 0.61597 0.33939 0.66932 0.0
C905 C 0.59497 0.34584 0.69859 0.0
C906 C 0.57308 0.3634 0.69219 0.0
C907 C 0.57262 0.37481 0.65481 0.0
C908 C 0.59407 0.36883 0.62432 0.0
C909 C 0.61597 0.35078 0.63184 0.0
H910 H 0.90371 0.31056 0.93273 0.0
H911 H 0.84598 0.36489 1.00095 0.0
H912 H 0.83095 0.38439 0.94003 0.0
H913 H 0.92851 0.36167 0.86053 0.0
H914 H 0.93084 0.33572 0.82178 0.0
H915 H 0.93485 0.32486 0.87087 0.0
H916 H 0.89364 0.28485 0.86786 0.0
H917 H 0.88759 0.29544 0.81933 0.0
H918 H 0.85868 0.29455 0.85785 0.0
H919 H 0.82369 0.39857 0.87048 0.0
H920 H 0.82538 0.40606 0.79888 0.0
H921 H 0.88969 0.34344 0.77993 0.0
C922 C 0.88794 0.32661 0.93496 0.0
C923 C 0.87612 0.33641 0.97126 0.0
C924 C 0.85512 0.35701 0.97313 0.0
C925 C 0.84657 0.36826 0.93884 0.0
C926 C 0.85925 0.3585 0.90338 0.0
C927 C 0.8794 0.33808 0.90144 0.0
C928 C 0.89044 0.33137 0.86029 0.0
C929 C 0.92308 0.33879 0.85292 0.0
C930 C 0.88217 0.29968 0.85077 0.0
C931 C 0.87391 0.35171 0.83907 0.0
C932 C 0.85568 0.36701 0.86414 0.0
C933 C 0.83796 0.38679 0.85058 0.0
C934 C 0.83905 0.39097 0.81017 0.0
C935 C 0.85807 0.37574 0.78455 0.0
C936 C 0.87548 0.35584 0.7992 0.0
H937 H 0.87202 0.70334 0.29877 0.0
H938 H 0.90076 0.639 0.37422 0.0
H939 H 0.91903 0.61178 0.31644 0.0
H940 H 0.8477 0.65458 0.22837 0.0
H941 H 0.85951 0.67824 0.18758 0.0
H942 H 0.84973 0.69317 0.23492 0.0
H943 H 0.89967 0.72129 0.23291 0.0
H944 H 0.90933 0.70691 0.18517 0.0
H945 H 0.93168 0.70203 0.22368 0.0
H946 H 0.93421 0.59176 0.25115 0.0
H947 H 0.94343 0.57894 0.18169 0.0
H948 H 0.90418 0.65611 0.14947 0.0
C949 C 0.88226 0.68361 0.30324 0.0
C950 C 0.88506 0.67334 0.34093 0.0
C951 C 0.89839 0.64728 0.34553 0.0
C952 C 0.90889 0.6317 0.31297 0.0
C953 C 0.90579 0.64249 0.27625 0.0
C954 C 0.89273 0.66776 0.2712 0.0
C955 C 0.89155 0.67438 0.22867 0.0
C956 C 0.86026 0.67511 0.21934 0.0
C957 C 0.90911 0.70283 0.21691 0.0
C958 C 0.90575 0.64861 0.21055 0.0
C959 C 0.91407 0.63065 0.23851 0.0
C960 C 0.92786 0.60562 0.22891 0.0
C961 C 0.93314 0.59862 0.1895 0.0
C962 C 0.92449 0.61655 0.16047 0.0
C963 C 0.91075 0.64189 0.17119 0.0
H964 H 0.42037 0.35372 0.52131 0.0
H965 H 0.49372 0.40534 0.55815 0.0
H966 H 0.47822 0.39254 0.62578 0.0
H967 H 0.37032 0.373 0.60431 0.0
H968 H 0.35164 0.33772 0.60879 0.0
H969 H 0.3681 0.35057 0.56188 0.0
H970 H 0.39731 0.30498 0.55469 0.0
H971 H 0.38099 0.29222 0.60172 0.0
H972 H 0.41956 0.29663 0.59205 0.0
H973 H 0.45668 0.37472 0.68852 0.0
H974 H 0.42735 0.3538 0.74627 0.0
H975 H 0.36663 0.31389 0.67231 0.0
C976 C 0.43294 0.36247 0.54369 0.0
C977 C 0.45822 0.38061 0.5342 0.0
C978 C 0.4742 0.39153 0.56436 0.0
C979 C 0.46568 0.38432 0.60309 0.0
C980 C 0.44097 0.36633 0.61149 0.0
C981 C 0.42455 0.35568 0.58304 0.0
C982 C 0.39854 0.33717 0.60107 0.0
C983 C 0.37049 0.35041 0.59356 0.0
C984 C 0.39915 0.30589 0.5865 0.0
C985 C 0.40334 0.33907 0.64379 0.0
C986 C 0.42802 0.35602 0.6488 0.0
C987 C 0.43718 0.36149 0.68521 0.0
C988 C 0.42036 0.34961 0.71775 0.0
C989 C 0.39471 0.3325 0.71362 0.0
C990 C 0.38624 0.32683 0.67612 0.0
H991 H 0.45675 0.68584 0.35409 0.0
H992 H 0.42045 0.75321 0.42778 0.0
H993 H 0.40382 0.77511 0.37094 0.0
H994 H 0.47974 0.72824 0.27164 0.0
H995 H 0.46879 0.70364 0.23454 0.0
H996 H 0.47772 0.69002 0.28024 0.0
H997 H 0.42919 0.66213 0.29572 0.0
H998 H 0.41944 0.67283 0.249 0.0
H999 H 0.39655 0.6799 0.29285 0.0
H1000 H 0.39166 0.79195 0.3059 0.0
H1001 H 0.38308 0.80043 0.23806 0.0
H1002 H 0.42264 0.72116 0.20367 0.0
C1003 C 0.4451 0.70504 0.35876 0.0
C1004 C 0.44104 0.71772 0.39669 0.0
C1005 C 0.42544 0.74306 0.39993 0.0
C1006 C 0.41536 0.75578 0.36746 0.0
C1007 C 0.42014 0.74305 0.331 0.0
C1008 C 0.43423 0.71797 0.32642 0.0
C1009 C 0.43583 0.70856 0.2837 0.0
C1010 C 0.46736 0.70757 0.26643 0.0
C1011 C 0.41927 0.6791 0.28011 0.0
C1012 C 0.42082 0.73257 0.26505 0.0
C1013 C 0.41206 0.75222 0.29321 0.0
C1014 C 0.39835 0.77659 0.28372 0.0
C1015 C 0.39355 0.78126 0.2447 0.0
C1016 C 0.40218 0.76176 0.21466 0.0
C1017 C 0.41564 0.73667 0.22549 0.0
H1018 H 0.08563 0.65084 0.18476 0.0
H1019 H 0.16504 0.69415 0.13101 0.0
H1020 H 0.15014 0.6828 0.06597 0.0
H1021 H 0.08193 0.59295 0.11675 0.0
H1022 H 0.04347 0.59185 0.11659 0.0
H1023 H 0.05969 0.60408 0.15925 0.0
H1024 H 0.03471 0.65224 0.15704 0.0
H1025 H 0.01852 0.6399 0.11438 0.0
H1026 H 0.04 0.67369 0.11304 0.0
H1027 H 0.12812 0.66474 1.00749 0.0
H1028 H 0.09904 0.64328 0.95808 0.0
H1029 H 0.03335 0.61219 0.04963 0.0
C1030 C 0.09983 0.65797 0.15927 0.0
C1031 C 0.12648 0.67345 0.16279 0.0
C1032 C 0.14439 0.68262 0.12886 0.0
C1033 C 0.13619 0.67613 0.09187 0.0
C1034 C 0.10995 0.66063 0.0894 0.0
C1035 C 0.09187 0.65185 0.12209 0.0
C1036 C 0.06487 0.63535 0.11113 0.0
C1037 C 0.06236 0.60421 0.12688 0.0
C1038 C 0.03794 0.65125 0.12472 0.0
C1039 C 0.07084 0.63593 0.06725 0.0
C1040 C 0.09696 0.65057 0.0554 0.0
C1041 C 0.10753 0.65338 1.01633 0.0
C1042 C 0.09086 0.641 0.98853 0.0
C1043 C 0.06385 0.62611 0.99998 0.0
C1044 C 0.05379 0.6236 0.03993 0.0
H1045 H 0.05529 0.23466 0.87626 0.0
H1046 H 0.12891 0.29516 0.84692 0.0
H1047 H 0.1201 0.31837 0.91137 0.0
H1048 H 0.0109 0.28634 0.92359 0.0
H1049 H -0.00652 0.26155 0.96028 0.0
H1050 H 0.00792 0.24822 0.91357 0.0
H1051 H 0.03754 0.21366 0.94831 0.0
H1052 H 0.02415 0.22743 0.99516 0.0
H1053 H 0.06228 0.22821 0.98106 0.0
H1054 H 0.10286 0.33543 0.9794 0.0
H1055 H 0.07648 0.34745 0.04265 0.0
H1056 H 0.01118 0.27905 1.02603 0.0
C1057 C 0.06987 0.25238 0.88387 0.0
C1058 C 0.09324 0.26273 0.85692 0.0
C1059 C 0.11121 0.28664 0.86736 0.0
C1060 C 0.10635 0.29995 0.90392 0.0
C1061 C 0.08304 0.28949 0.92979 0.0
C1062 C 0.06495 0.26639 0.92014 0.0
C1063 C 0.04026 0.26083 0.95215 0.0
C1064 C 0.01138 0.26449 0.9365 0.0
C1065 C 0.0411 0.23073 0.97024 0.0
C1066 C 0.04698 0.28452 0.98097 0.0
C1067 C 0.07211 0.30046 0.96784 0.0
C1068 C 0.08306 0.32314 0.98976 0.0
C1069 C 0.06791 0.32984 1.02574 0.0
C1070 C 0.04157 0.31448 0.03929 0.0
C1071 C 0.03107 0.29147 1.01638 0.0
H1072 H 0.05941 0.30729 0.16866 0.0
H1073 H 0.00049 0.25277 0.24526 0.0
H1074 H 0.04119 0.22778 0.26504 0.0
H1075 H 0.08072 0.27305 0.11856 0.0
H1076 H 0.11937 0.27437 0.10855 0.0
H1077 H 0.1023 0.3054 0.12796 0.0
H1078 H 0.13093 0.30877 0.18545 0.0
H1079 H 0.15069 0.27915 0.16574 0.0
H1080 H 0.13428 0.2778 0.21532 0.0
H1081 H 0.08094 0.19543 0.25395 0.0
H1082 H 0.07435 0.16032 0.20226 0.0
H1083 H 0.09696 0.22589 0.11546 0.0
C1084 C 0.05546 0.29113 0.19131 0.0
C1085 C 0.02707 0.28144 0.20482 0.0
C1086 C 0.02219 0.26022 0.23408 0.0
C1087 C 0.04552 0.24631 0.24584 0.0
C1088 C 0.07328 0.2528 0.2266 0.0
C1089 C 0.07828 0.27562 0.20006 0.0
C1090 C 0.10388 0.27066 0.1709 0.0
C1091 C 0.10131 0.28143 0.12901 0.0
C1092 C 0.13154 0.28488 0.18526 0.0
C1093 C 0.10342 0.23821 0.175 0.0
C1094 C 0.09282 0.23063 0.21339 0.0
C1095 C 0.0871 0.20168 0.22387 0.0
C1096 C 0.08243 0.18199 0.1944 0.0
C1097 C 0.08188 0.19206 0.15622 0.0
C1098 C 0.0965 0.21868 0.1453 0.0
H1099 H 0.94948 0.78315 0.44733 0.0
H1100 H 0.92272 0.69427 0.47844 0.0
H1101 H 0.97284 0.68515 0.48746 0.0
H1102 H 0.00765 0.76797 0.38792 0.0
H1103 H 0.03082 0.79884 0.39905 0.0
H1104 H -0.00746 0.80078 0.40564 0.0
H1105 H -0.00503 0.81518 0.47765 0.0
H1106 H 0.03346 0.8134 0.4713 0.0
H1107 H 0.01208 0.79262 0.50933 0.0
H1108 H 0.0256 0.68324 0.48188 0.0
H1109 H 0.0772 0.68771 0.45835 0.0
H1110 H 0.07041 0.77729 0.42757 0.0
C1111 C 0.9541 0.76213 0.45759 0.0
C1112 C 0.93242 0.73945 0.46274 0.0
C1113 C 0.93918 0.7119 0.47471 0.0
C1114 C 0.9675 0.70662 0.48014 0.0
C1115 C -0.01128 0.72914 0.47336 0.0
C1116 C 0.98237 0.75641 0.4624 0.0
C1117 C 0.00948 0.77539 0.45047 0.0
C1118 C 0.01015 0.78635 0.40827 0.0
C1119 C 0.01268 0.80064 0.47891 0.0
C1120 C 0.03196 0.75402 0.45419 0.0
C1121 C 0.01958 0.72776 0.46865 0.0
C1122 C 0.03561 0.70383 0.47125 0.0
C1123 C 0.06485 0.70652 0.45764 0.0
C1124 C 0.07756 0.73279 0.44107 0.0
C1125 C 0.06116 0.75706 0.44052 0.0
H1126 H 0.5372 0.68113 0.72594 0.0
H1127 H 0.59797 0.71158 0.63023 0.0
H1128 H 0.62319 0.74267 0.6748 0.0
H1129 H 0.50901 0.7168 0.75553 0.0
H1130 H 0.50921 0.72798 0.80553 0.0
H1131 H 0.51886 0.69247 0.7913 0.0
H1132 H 0.56605 0.70098 0.82075 0.0
H1133 H 0.55642 0.73657 0.83555 0.0
H1134 H 0.59029 0.73179 0.80746 0.0
H1135 H 0.61288 0.78904 0.69905 0.0
H1136 H 0.57396 0.81106 0.67262 0.0
H1137 H 0.51244 0.76711 0.75754 0.0
C1138 C 0.55678 0.6936 0.71534 0.0
C1139 C 0.56483 0.69565 0.67498 0.0
C1140 C 0.59068 0.71088 0.66108 0.0
C1141 C 0.60531 0.72824 0.68675 0.0
C1142 C 0.59194 0.73241 0.72467 0.0
C1143 C 0.56965 0.71293 0.74046 0.0
C1144 C 0.55249 0.72689 0.77406 0.0
C1145 C 0.52051 0.71539 0.78193 0.0
C1146 C 0.56722 0.72394 0.81159 0.0
C1147 C 0.55705 0.75757 0.75919 0.0
C1148 C 0.58445 0.76125 0.7382 0.0
C1149 C 0.59132 0.78503 0.71348 0.0
C1150 C 0.56887 0.79735 0.69801 0.0
C1151 C 0.5402 0.78904 0.71205 0.0
C1152 C 0.53456 0.77232 0.74605 0.0
H1153 H 0.57059 0.27324 0.90949 0.0
H1154 H 0.57461 0.18429 0.94526 0.0
H1155 H 0.52324 0.1822 0.96998 0.0
H1156 H 0.51314 0.29307 0.99067 0.0
H1157 H 0.49683 0.31505 0.95741 0.0
H1158 H 0.53514 0.31193 0.95139 0.0
H1159 H 0.532 0.29518 0.88034 0.0
H1160 H 0.49383 0.29797 0.88626 0.0
H1161 H 0.50824 0.26429 0.87095 0.0
H1162 H 0.47107 0.18589 0.97665 0.0
H1163 H 0.42135 0.1958 0.96721 0.0
H1164 H 0.45013 0.28285 0.92932 0.0
C1165 C 0.56079 0.2537 0.92379 0.0
C1166 C 0.57627 0.22887 0.92548 0.0
C1167 C 0.5629 0.20348 0.94368 0.0
C1168 C 0.53384 0.20218 0.95806 0.0
C1169 C 0.51869 0.22662 0.95445 0.0
C1170 C 0.53175 0.25209 0.93827 0.0
C1171 C 0.50988 0.27387 0.93302 0.0
C1172 C 0.51399 0.30002 0.95974 0.0
C1173 C 0.51107 0.28335 0.8901 0.0
C1174 C 0.48238 0.25591 0.94608 0.0
C1175 C 0.48801 0.22895 0.95913 0.0
C1176 C 0.4663 0.20718 0.96768 0.0
C1177 C 0.43819 0.21289 0.96196 0.0
C1178 C 0.43211 0.24009 0.94793 0.0
C1179 C 0.45428 0.26212 0.94103 0.0
H1180 H 0.97228 0.8063 0.89372 0.0
H1181 H 0.06132 0.81906 0.84489 0.0
H1182 H 0.06198 0.76717 0.83023 0.0
H1183 H 0.97846 0.74659 0.94328 0.0
H1184 H 0.94466 0.72779 0.93528 0.0
H1185 H 0.94852 0.76648 0.93271 0.0
H1186 H 0.93303 0.76536 0.86308 0.0
H1187 H 0.92865 0.72649 0.86552 0.0
H1188 H 0.95159 0.74405 0.82603 0.0
H1189 H 0.05708 0.71399 0.83654 0.0
H1190 H 0.04506 0.66332 0.85764 0.0
H1191 H 0.95854 0.68442 0.89876 0.0
C1192 C -0.00851 0.79828 0.87849 0.0
C1193 C 0.01676 0.81647 0.8706 0.0
C1194 C 0.04173 0.80535 0.85124 0.0
C1195 C 0.04228 0.77593 0.84263 0.0
C1196 C 0.0175 0.75812 0.85282 0.0
C1197 C -0.0077 0.76895 0.86946 0.0
C1198 C 0.96983 0.74487 0.88201 0.0
C1199 C 0.95982 0.74654 0.92591 0.0
C1200 C 0.94427 0.74521 0.85768 0.0
C1201 C -0.01297 0.7189 0.87248 0.0
C1202 C 0.01435 0.72697 0.8551 0.0
C1203 C 0.03547 0.70723 0.84886 0.0
C1204 C 0.02859 0.67862 0.86117 0.0
C1205 C 0.00087 0.67016 0.87928 0.0
C1206 C 0.97967 0.69031 0.88398 0.0
H1207 H 0.53941 0.7521 0.23776 0.0
H1208 H 0.54521 0.6744 0.16786 0.0
H1209 H 0.51656 0.69528 0.12057 0.0
H1210 H 0.46735 0.76131 0.22238 0.0
H1211 H 0.47005 0.80006 0.2212 0.0
H1212 H 0.49285 0.78094 0.24948 0.0
H1213 H 0.5359 0.80831 0.21336 0.0
H1214 H 0.51512 0.82614 0.18158 0.0
H1215 H 0.54321 0.80484 0.16072 0.0
H1216 H 0.48716 0.72409 0.08149 0.0
H1217 H 0.45372 0.75707 0.05756 0.0
H1218 H 0.46816 0.81545 0.1529 0.0
C1219 C 0.53463 0.73958 0.21243 0.0
C1220 C 0.54459 0.71186 0.20601 0.0
C1221 C 0.53754 0.69566 0.17321 0.0
C1222 C 0.52174 0.70749 0.14594 0.0
C1223 C 0.51327 0.73538 0.15219 0.0
C1224 C 0.51912 0.75119 0.18485 0.0
C1225 C 0.50496 0.77954 0.18645 0.0
C1226 C 0.48245 0.78059 0.22203 0.0
C1227 C 0.52626 0.80617 0.18545 0.0
C1228 C 0.49113 0.7773 0.14924 0.0
C1229 C 0.49611 0.75185 0.12976 0.0
C1230 C 0.48362 0.7444 0.09599 0.0
C1231 C 0.46478 0.76319 0.08262 0.0
C1232 C 0.45856 0.78856 0.10365 0.0
C1233 C 0.47288 0.79628 0.13612 0.0
H1234 H 0.49754 0.18348 0.35407 0.0
H1235 H 0.4635 0.15802 0.47166 0.0
H1236 H 0.46086 0.20916 0.49023 0.0
H1237 H 0.54225 0.24264 0.38057 0.0
H1238 H 0.5364 0.2657 0.34066 0.0
H1239 H 0.53292 0.22709 0.3353 0.0
H1240 H 0.48095 0.2304 0.31659 0.0
H1241 H 0.48429 0.2691 0.32226 0.0
H1242 H 0.45513 0.24798 0.3493 0.0
H1243 H 0.46613 0.26143 0.49812 0.0
H1244 H 0.48031 0.31358 0.49545 0.0
H1245 H 0.50941 0.30686 0.37241 0.0
C1246 C 0.48926 0.18892 0.38347 0.0
C1247 C 0.48056 0.16728 0.41158 0.0
C1248 C 0.47009 0.17468 0.44994 0.0
C1249 C 0.46837 0.20352 0.46064 0.0
C1250 C 0.47704 0.22456 0.43246 0.0
C1251 C 0.48728 0.2178 0.39469 0.0
C1252 C 0.49697 0.24489 0.37116 0.0
C1253 C 0.52904 0.24509 0.35603 0.0
C1254 C 0.47822 0.24828 0.33783 0.0
C1255 C 0.49154 0.2677 0.40198 0.0
C1256 C 0.47969 0.25538 0.43697 0.0
C1257 C 0.47491 0.27148 0.47077 0.0
C1258 C 0.48308 0.30096 0.46902 0.0
C1259 C 0.49559 0.3139 0.43369 0.0
C1260 C 0.49923 0.29734 0.39949 0.0
H1261 H 0.02333 0.18789 0.6806 0.0
H1262 H 0.04891 0.27121 0.72632 0.0
H1263 H 0.04056 0.29452 0.66507 0.0
H1264 H 0.03573 0.1983 0.57551 0.0
H1265 H 0.00046 0.18469 0.56539 0.0
H1266 H 0.01655 0.17085 0.6062 0.0
H1267 H 0.97495 0.18374 0.65561 0.0
H1268 H 0.95671 0.19495 0.61582 0.0
H1269 H 0.96271 0.2196 0.65512 0.0
H1270 H 0.03251 0.30876 0.6016 0.0
H1271 H -0.00996 0.32283 0.57342 0.0
H1272 H 0.95689 0.23373 0.57299 0.0
C1273 C 0.02759 0.21103 0.67717 0.0
C1274 C 0.0401 0.22782 0.70566 0.0
C1275 C 0.04241 0.25807 0.7025 0.0
C1276 C 0.03815 0.27124 0.66771 0.0
C1277 C 0.02964 0.25382 0.63752 0.0
C1278 C 0.02128 0.22491 0.64369 0.0
C1279 C 0.00103 0.21397 0.615 0.0
C1280 C 0.01419 0.19054 0.58891 0.0
C1281 C 0.9721 0.20238 0.63665 0.0
C1282 C -0.00132 0.24177 0.5926 0.0
C1283 C 0.0181 0.26346 0.6035 0.0
C1284 C 0.01722 0.29219 0.59263 0.0
C1285 C -0.00694 0.30006 0.57655 0.0
C1286 C 0.97042 0.27919 0.57249 0.0
C1287 C 0.97452 0.2496 0.57576 0.0
H1288 H 0.02257 0.03255 0.12748 0.0
H1289 H 0.97024 0.09796 0.08847 0.0
H1290 H 0.95927 0.06754 1.03271 0.0
H1291 H 0.05235 0.00916 1.03197 0.0
H1292 H 0.05056 0.97175 0.0459 0.0
H1293 H 0.05475 -0.00058 0.08197 0.0
H1294 H 0.00917 0.97563 0.12282 0.0
H1295 H 0.00514 0.94894 0.08548 0.0
H1296 H 0.97593 0.97095 0.10096 0.0
H1297 H 0.95296 0.03033 0.98225 0.0
H1298 H 0.95155 0.98753 0.93938 0.0
H1299 H 0.0081 0.94591 1.00951 0.0
C1300 C 0.00869 0.0403 0.10727 0.0
C1301 C -0.00275 0.06763 0.11219 0.0
C1302 C 0.97928 0.07716 0.08513 0.0
C1303 C 0.97293 0.06004 0.05336 0.0
C1304 C 0.98468 0.03337 0.04905 0.0
C1305 C 0.00207 0.02335 0.07523 0.0
C1306 C 0.01138 0.99349 0.0638 0.0
C1307 C 0.04422 0.99349 0.05545 0.0
C1308 C -0.00031 0.97093 0.09514 0.0
C1309 C -0.00313 0.98871 1.02688 0.0
C1310 C 0.98143 0.01191 1.01917 0.0
C1311 C 0.96519 0.01213 0.98769 0.0
C1312 C 0.96455 0.98786 0.96352 0.0
C1313 C 0.98037 0.96403 0.97069 0.0
C1314 C -0.00327 0.96441 1.00271 0.0
H1315 H 0.24153 0.74859 0.33625 0.0
H1316 H 0.20193 0.8258 0.30502 0.0
H1317 H 0.22984 0.82647 0.24063 0.0
H1318 H 0.31332 0.76876 0.28703 0.0
H1319 H 0.31907 0.73243 0.27181 0.0
H1320 H 0.29594 0.7388 0.31563 0.0
H1321 H 0.25554 0.70646 0.28681 0.0
H1322 H 0.27884 0.7017 0.24261 0.0
H1323 H 0.24433 0.71605 0.24047 0.0
H1324 H 0.26082 0.81839 0.17869 0.0
H1325 H 0.29619 0.80377 0.12499 0.0
H1326 H 0.31851 0.73437 0.19745 0.0
C1327 C 0.23886 0.76559 0.31581 0.0
C1328 C 0.21961 0.78718 0.32573 0.0
C1329 C 0.21668 0.80912 0.29823 0.0
C1330 C 0.23237 0.80968 0.26143 0.0
C1331 C 0.25121 0.78827 0.25248 0.0
C1332 C 0.25484 0.76677 0.27889 0.0
C1333 C 0.27692 0.74663 0.26162 0.0
C1334 C 0.3028 0.74668 0.28549 0.0
C1335 C 0.26307 0.71589 0.25764 0.0
C1336 C 0.28534 0.7606 0.22201 0.0
C1337 C 0.26994 0.78428 0.21707 0.0
C1338 C 0.27344 0.80016 0.1824 0.0
C1339 C 0.29374 0.79194 0.15222 0.0
C1340 C 0.3108 0.76865 0.15744 0.0
C1341 C 0.30607 0.75256 0.19263 0.0
H1342 H 0.5335 0.02444 0.49244 0.0
H1343 H 0.4753 0.99356 0.40975 0.0
H1344 H 0.45631 0.95353 0.45477 0.0
H1345 H 0.55134 0.95779 0.52581 0.0
H1346 H 0.55167 0.96905 0.5758 0.0
H1347 H 0.559 0.99527 0.53722 0.0
H1348 H 0.51793 0.02478 0.56939 0.0
H1349 H 0.50991 -0.00177 0.60777 0.0
H1350 H 0.48214 0.00781 0.57887 0.0
H1351 H 0.44864 0.91329 0.50558 0.0
H1352 H 0.45388 0.87712 0.55672 0.0
H1353 H 0.51237 0.93792 0.60906 0.0
C1354 C 0.51688 0.00912 0.48381 0.0
C1355 C 0.50623 0.01154 0.44747 0.0
C1356 C 0.48392 0.99169 0.43745 0.0
C1357 C 0.47287 0.96909 0.46291 0.0
C1358 C 0.48375 0.96726 0.49876 0.0
C1359 C 0.50507 0.98696 0.50927 0.0
C1360 C 0.51349 0.98014 0.549 0.0
C1361 C 0.54577 0.97525 0.5468 0.0
C1362 C 0.50538 0.00417 0.57798 0.0
C1363 C 0.49487 0.95253 0.55831 0.0
C1364 C 0.47754 0.94549 0.52924 0.0
C1365 C 0.46136 0.91899 0.5292 0.0
C1366 C 0.46409 0.89867 0.55858 0.0
C1367 C 0.4827 0.9052 0.58742 0.0
C1368 C 0.49707 0.93293 0.58818 0.0
H1369 H 0.26954 0.24347 0.91071 0.0
H1370 H 0.29084 0.15849 0.86892 0.0
H1371 H 0.25917 0.16191 0.81723 0.0
H1372 H 0.19473 0.23466 0.89464 0.0
H1373 H 0.19284 0.27145 0.8792 0.0
H1374 H 0.21802 0.26302 0.91265 0.0
H1375 H 0.25972 0.28728 0.86575 0.0
H1376 H 0.23457 0.2956 0.83213 0.0
H1377 H 0.26498 0.27532 0.81594 0.0
H1378 H 0.22561 0.17412 0.76992 0.0
H1379 H 0.18826 0.19301 0.73332 0.0
H1380 H 0.18747 0.26918 0.80643 0.0
C1381 C 0.26747 0.22568 0.89062 0.0
C1382 C 0.28263 0.20078 0.89375 0.0
C1383 C 0.27935 0.17779 0.86713 0.0
C1384 C 0.26154 0.17954 0.83746 0.0
C1385 C 0.24701 0.20438 0.83489 0.0
C1386 C 0.24947 0.22695 0.86087 0.0
C1387 C 0.23047 0.25065 0.85222 0.0
C1388 C 0.20767 0.25519 0.88675 0.0
C1389 C 0.24852 0.27888 0.84082 0.0
C1390 C 0.21687 0.23764 0.81778 0.0
C1391 C 0.22696 0.21111 0.80798 0.0
C1392 C 0.21731 0.1948 0.77741 0.0
C1393 C 0.19606 0.20557 0.75696 0.0
C1394 C 0.18482 0.23226 0.76744 0.0
C1395 C 0.19572 0.24864 0.7978 0.0
H1396 H 0.7413 0.24357 0.83464 0.0
H1397 H 0.70397 0.32103 0.79928 0.0
H1398 H 0.73417 0.32116 0.73667 0.0
H1399 H 0.8137 0.26402 0.79134 0.0
H1400 H 0.82125 0.22802 0.77583 0.0
H1401 H 0.79616 0.23322 0.81809 0.0
H1402 H 0.75711 0.20111 0.78708 0.0
H1403 H 0.78224 0.19593 0.74481 0.0
H1404 H 0.74809 0.21009 0.73931 0.0
H1405 H 0.76826 0.31335 0.67769 0.0
H1406 H 0.8055 0.29838 0.62679 0.0
H1407 H 0.82258 0.22759 0.70079 0.0
C1408 C 0.73959 0.26049 0.81366 0.0
C1409 C 0.72041 0.28236 0.82197 0.0
C1410 C 0.71871 0.30418 0.79379 0.0
C1411 C 0.7357 0.30442 0.75797 0.0
C1412 C 0.75455 0.28281 0.75069 0.0
C1413 C 0.7568 0.26131 0.77769 0.0
C1414 C 0.77939 0.24107 0.76248 0.0
C1415 C 0.80407 0.24163 0.7885 0.0
C1416 C 0.7659 0.21022 0.75816 0.0
C1417 C 0.78939 0.25469 0.72307 0.0
C1418 C 0.77467 0.27862 0.71674 0.0
C1419 C 0.78012 0.29473 0.68235 0.0
C1420 C 0.80143 0.28623 0.65374 0.0
C1421 C 0.81724 0.26218 0.66006 0.0
C1422 C 0.81089 0.24616 0.69511 0.0
H1423 H 0.76646 0.74448 0.41469 0.0
H1424 H 0.80035 0.66754 0.36114 0.0
H1425 H 0.77086 0.67217 0.30703 0.0
H1426 H 0.69385 0.7286 0.39022 0.0
H1427 H 0.68773 0.76573 0.38123 0.0
H1428 H 0.71232 0.75709 0.41541 0.0
H1429 H 0.75246 0.79022 0.37666 0.0
H1430 H 0.72784 0.79856 0.34232 0.0
H1431 H 0.7615 0.78391 0.3254 0.0
H1432 H 0.73788 0.6847 0.25886 0.0
H1433 H 0.70071 0.70298 0.22145 0.0
H1434 H 0.68618 0.77018 0.30737 0.0
C1435 C 0.76767 0.72878 0.39142 0.0
C1436 C 0.7856 0.70568 0.39199 0.0
C1437 C 0.78657 0.68532 0.36133 0.0
C1438 C 0.77002 0.68782 0.33035 0.0
C1439 C 0.75239 0.71066 0.33062 0.0
C1440 C 0.75082 0.73066 0.36043 0.0
C1441 C 0.72909 0.75239 0.35416 0.0
C1442 C 0.70429 0.75084 0.38723 0.0
C1443 C 0.7436 0.78309 0.34934 0.0
C1444 C 0.71887 0.74143 0.31632 0.0
C1445 C 0.73273 0.71748 0.30312 0.0
C1446 C 0.72673 0.70338 0.26895 0.0
C1447 C 0.70555 0.71379 0.24803 0.0
C1448 C 0.69039 0.73767 0.26181 0.0
C1449 C 0.6975 0.75189 0.29607 0.0
H1450 H 0.52653 0.5381 0.61346 0.0
H1451 H 0.46441 0.59829 0.58757 0.0
H1452 H 0.45483 0.57044 0.52881 0.0
H1453 H 0.55483 0.52643 0.51329 0.0
H1454 H 0.55932 0.48866 0.51987 0.0
H1455 H 0.56185 0.51316 0.56016 0.0
H1456 H 0.52189 0.48215 0.60194 0.0
H1457 H 0.51976 0.4573 0.5621 0.0
H1458 H 0.48794 0.47356 0.58302 0.0
H1459 H 0.4498 0.53461 0.47537 0.0
H1460 H 0.44992 0.49299 0.43037 0.0
H1461 H 0.5162 0.45714 0.48931 0.0
C1462 C 0.51084 0.54526 0.59546 0.0
C1463 C 0.49612 0.57028 0.60497 0.0
C1464 C 0.47593 0.5792 0.58065 0.0
C1465 C 0.47037 0.56355 0.54722 0.0
C1466 C 0.48531 0.53909 0.53845 0.0
C1467 C 0.50511 0.5299 0.56182 0.0
C1468 C 0.51798 0.50267 0.5458 0.0
C1469 C 0.55043 0.50805 0.53412 0.0
C1470 C 0.51148 0.47744 0.57496 0.0
C1471 C 0.50194 0.49778 0.51027 0.0
C1472 C 0.48326 0.51906 0.50654 0.0
C1473 C 0.46473 0.51811 0.47753 0.0
C1474 C 0.46502 0.49451 0.45206 0.0
C1475 C 0.48398 0.4725 0.45538 0.0
C1476 C 0.50276 0.47436 0.48468 0.0
H1477 H 0.00408 0.48281 0.92701 0.0
H1478 H 0.01973 0.55287 1.00672 0.0
H1479 H 0.00034 0.5215 0.06242 0.0
H1480 H 0.9397 0.44622 0.9828 0.0
H1481 H 0.95134 0.4106 0.97228 0.0
H1482 H 0.96143 0.43962 0.93778 0.0
H1483 H 0.01556 0.4308 0.93931 0.0
H1484 H 0.00527 0.40137 0.97275 0.0
H1485 H 0.03001 0.43038 0.98565 0.0
H1486 H 0.98184 0.48195 0.10948 0.0
H1487 H 0.9773 0.43542 0.145 0.0
H1488 H 0.97821 0.38963 1.03569 0.0
C1489 C 0.00299 0.49149 0.95624 0.0
C1490 C 0.0126 0.52038 0.96278 0.0
C1491 C 0.01189 0.53094 1.00126 0.0
C1492 C 0.0007 0.51332 1.033 0.0
C1493 C -0.00905 0.48495 1.02574 0.0
C1494 C -0.00724 0.47383 0.98839 0.0
C1495 C 0.98513 0.44153 0.98911 0.0
C1496 C 0.95778 0.43406 0.96929 0.0
C1497 C 0.0105 0.42506 0.97063 0.0
C1498 C 0.97959 0.4361 1.0326 0.0
C1499 C 0.98194 0.46159 0.05314 0.0
C1500 C 0.97951 0.46188 0.09374 0.0
C1501 C 0.97644 0.43537 0.11376 0.0
C1502 C 0.97642 0.40904 0.09306 0.0
C1503 C 0.97689 0.40948 0.05215 0.0
H1504 H 0.07603 0.20491 0.42587 0.0
H1505 H 0.0615 0.1119 0.44094 0.0
H1506 H 0.07213 0.1165 0.50859 0.0
H1507 H 0.13474 0.21388 0.48913 0.0
H1508 H 0.12354 0.24755 0.50962 0.0
H1509 H 0.11607 0.23765 0.46101 0.0
H1510 H 0.06362 0.24539 0.48087 0.0
H1511 H 0.06863 0.2526 0.5311 0.0
H1512 H 0.0433 0.22394 0.51861 0.0
H1513 H 0.08403 0.12962 0.57453 0.0
H1514 H 0.09501 0.15094 0.63673 0.0
H1515 H 0.10069 0.23657 0.58478 0.0
C1516 C 0.07499 0.18548 0.44337 0.0
C1517 C 0.06836 0.15779 0.42684 0.0
C1518 C 0.0673 0.13323 0.45154 0.0
C1519 C 0.07311 0.13563 0.49052 0.0
C1520 C 0.07992 0.16283 0.5055 0.0
C1521 C 0.08084 0.18748 0.48298 0.0
C1522 C 0.08856 0.21405 0.5074 0.0
C1523 C 0.11745 0.22917 0.49078 0.0
C1524 C 0.06462 0.23521 0.50975 0.0
C1525 C 0.09121 0.20027 0.54711 0.0
C1526 C 0.08647 0.17064 0.54473 0.0
C1527 C 0.08787 0.15279 0.57674 0.0
C1528 C 0.09425 0.16524 0.61219 0.0
C1529 C 0.09905 0.19555 0.61631 0.0
C1530 C 0.09735 0.21332 0.58296 0.0
H1531 H 0.12116 0.84539 0.66157 0.0
H1532 H 0.07765 0.9016 0.59056 0.0
H1533 H 0.05703 0.92559 0.64975 0.0
H1534 H 0.06428 0.83515 0.73677 0.0
H1535 H 0.08721 0.83466 0.77543 0.0
H1536 H 0.10023 0.82361 0.72716 0.0
H1537 H 0.14358 0.86134 0.72711 0.0
H1538 H 0.13049 0.87286 0.77527 0.0
H1539 H 0.13739 0.89877 0.73597 0.0
H1540 H 0.03793 0.94065 0.71535 0.0
H1541 H 0.01967 0.94438 0.78489 0.0
H1542 H 0.07645 0.88006 0.81418 0.0
C1543 C 0.10767 0.86307 0.65852 0.0
C1544 C 0.10099 0.87166 0.62155 0.0
C1545 C 0.0828 0.89448 0.61867 0.0
C1546 C 0.07122 0.90844 0.65205 0.0
C1547 C 0.07815 0.89943 0.68803 0.0
C1548 C 0.09582 0.87722 0.6916 0.0
C1549 C 0.09816 0.87044 0.73395 0.0
C1550 C 0.08678 0.83912 0.74391 0.0
C1551 C 0.12926 0.87621 0.74364 0.0
C1552 C 0.07865 0.89209 0.75359 0.0
C1553 C 0.06755 0.90873 0.72642 0.0
C1554 C 0.047 0.92836 0.73703 0.0
C1555 C 0.03691 0.93053 0.77645 0.0
C1556 C 0.04765 0.91347 0.80456 0.0
C1557 C 0.06911 0.8944 0.79321 0.0
H1558 H 0.40463 0.77254 0.94192 0.0
H1559 H 0.40474 0.86 0.98629 0.0
H1560 H 0.42702 0.87842 0.92241 0.0
H1561 H 0.47275 0.78197 0.87872 0.0
H1562 H 0.46005 0.75942 0.84068 0.0
H1563 H 0.44554 0.7532 0.89064 0.0
H1564 H 0.39377 0.75894 0.87118 0.0
H1565 H 0.40913 0.76385 0.82133 0.0
H1566 H 0.38694 0.79051 0.84458 0.0
H1567 H 0.45276 0.88764 0.85353 0.0
H1568 H 0.47305 0.88694 0.78415 0.0
H1569 H 0.45233 0.79465 0.78093 0.0
C1570 C 0.40918 0.79557 0.93823 0.0
C1571 C 0.40253 0.81464 0.96989 0.0
C1572 C 0.40908 0.84469 0.96307 0.0
C1573 C 0.42206 0.85546 0.92668 0.0
C1574 C 0.42844 0.83617 0.8964 0.0
C1575 C 0.42188 0.80685 0.9016 0.0
C1576 C 0.43003 0.79097 0.86359 0.0
C1577 C 0.45345 0.77014 0.86872 0.0
C1578 C 0.40338 0.77512 0.84921 0.0
C1579 C 0.44181 0.81584 0.83625 0.0
C1580 C 0.44138 0.8417 0.8561 0.0
C1581 C 0.45271 0.86749 0.83772 0.0
C1582 C 0.46431 0.86693 0.79819 0.0
C1583 C 0.46395 0.84096 0.77661 0.0
C1584 C 0.45249 0.81504 0.79624 0.0
H1585 H 0.48599 0.0873 0.27118 0.0
H1586 H 0.41029 0.0569 0.34756 0.0
H1587 H 0.38013 0.06343 0.29433 0.0
H1588 H 0.45557 0.14231 0.22836 0.0
H1589 H 0.47398 0.13802 0.18033 0.0
H1590 H 0.49009 0.12715 0.22246 0.0
H1591 H 0.49405 0.07553 0.19501 0.0
H1592 H 0.47845 0.0861 0.15218 0.0
H1593 H 0.46251 0.05555 0.18087 0.0
H1594 H 0.35782 0.07928 0.23634 0.0
H1595 H 0.34527 0.0994 0.17463 0.0
H1596 H 0.43577 0.11905 0.13704 0.0
C1597 C 0.46317 0.08134 0.27651 0.0
C1598 C 0.45045 0.07156 0.31331 0.0
C1599 C 0.42049 0.06419 0.31933 0.0
C1600 C 0.40318 0.06791 0.28939 0.0
C1601 C 0.41633 0.07865 0.25383 0.0
C1602 C 0.44567 0.08485 0.24713 0.0
C1603 C 0.45438 0.09764 0.20721 0.0
C1604 C 0.46937 0.12808 0.20978 0.0
C1605 C 0.47346 0.0775 0.18233 0.0
C1606 C 0.42517 0.09858 0.19291 0.0
C1607 C 0.4035 0.08743 0.22016 0.0
C1608 C 0.37458 0.08764 0.21447 0.0
C1609 C 0.36766 0.09934 0.17968 0.0
C1610 C 0.38962 0.11059 0.1514 0.0
C1611 C 0.41866 0.11014 0.15809 0.0
H1612 H 0.86385 0.74696 0.57758 0.0
H1613 H 0.83096 0.81676 0.51583 0.0
H1614 H 0.84074 0.84988 0.56984 0.0
H1615 H 0.83663 0.76788 0.675 0.0
H1616 H 0.86794 0.75725 0.69586 0.0
H1617 H 0.85662 0.73907 0.65336 0.0
H1618 H 0.90712 0.75088 0.61672 0.0
H1619 H 0.91861 0.76948 0.65877 0.0
H1620 H 0.92154 0.7879 0.61246 0.0
H1621 H 0.85681 0.8758 0.62873 0.0
H1622 H 0.8761 0.89231 0.68933 0.0
H1623 H 0.89802 0.80504 0.71203 0.0
C1624 C 0.85822 0.76908 0.57551 0.0
C1625 C 0.8464 0.7792 0.54256 0.0
C1626 C 0.83975 0.80844 0.54096 0.0
C1627 C 0.84534 0.82743 0.57139 0.0
C1628 C 0.8576 0.81679 0.603 0.0
C1629 C 0.86381 0.78826 0.60531 0.0
C1630 C 0.87762 0.78229 0.64179 0.0
C1631 C 0.85856 0.76033 0.66807 0.0
C1632 C 0.90802 0.77204 0.63181 0.0
C1633 C 0.87852 0.81207 0.6596 0.0
C1634 C 0.86684 0.83165 0.63683 0.0
C1635 C 0.86576 0.86061 0.64699 0.0
C1636 C 0.87667 0.86974 0.68154 0.0
C1637 C 0.88847 0.84997 0.70558 0.0
C1638 C 0.88944 0.82078 0.69418 0.0
H1639 H 0.88688 0.13127 0.37855 0.0
H1640 H 0.88015 0.22366 0.37788 0.0
H1641 H 0.885 0.22382 0.30616 0.0
H1642 H 0.94067 0.12934 0.31207 0.0
H1643 H 0.92988 0.09634 0.28832 0.0
H1644 H 0.91654 0.10221 0.33791 0.0
H1645 H 0.86426 0.09434 0.31989 0.0
H1646 H 0.87769 0.08871 0.26968 0.0
H1647 H 0.85265 0.11587 0.28192 0.0
H1648 H 0.90444 0.21651 0.23886 0.0
H1649 H 0.93856 0.20265 0.18366 0.0
H1650 H 0.92971 0.11441 0.22521 0.0
C1651 C 0.88493 0.15121 0.36317 0.0
C1652 C 0.88317 0.17747 0.3833 0.0
C1653 C 0.88167 0.20342 0.36257 0.0
C1654 C 0.884 0.20359 0.32192 0.0
C1655 C 0.88723 0.17749 0.30254 0.0
C1656 C 0.88729 0.15164 0.32256 0.0
C1657 C 0.89653 0.12758 0.29563 0.0
C1658 C 0.92243 0.1131 0.30929 0.0
C1659 C 0.87126 0.10531 0.29154 0.0
C1660 C 0.90453 0.14455 0.25827 0.0
C1661 C 0.898 0.17309 0.26235 0.0
C1662 C 0.90859 0.19404 0.23448 0.0
C1663 C 0.92783 0.18602 0.20305 0.0
C1664 C 0.93624 0.15746 0.20041 0.0
C1665 C 0.92281 0.13621 0.2265 0.0
H1666 H 0.64084 0.23436 1.02784 0.0
H1667 H 0.67514 0.16291 0.96089 0.0
H1668 H 0.66327 0.13107 1.0188 0.0
H1669 H 0.66494 0.21556 0.11996 0.0
H1670 H 0.63303 0.22704 0.14779 0.0
H1671 H 0.64571 0.24398 0.10166 0.0
H1672 H 0.59607 0.23167 0.07729 0.0
H1673 H 0.58317 0.21432 0.12302 0.0
H1674 H 0.58146 0.19469 0.07811 0.0
H1675 H 0.64505 0.1066 0.08341 0.0
H1676 H 0.6243 0.09189 0.14955 0.0
H1677 H 0.60239 0.17995 0.17384 0.0
C1678 C 0.64633 0.21212 1.02523 0.0
C1679 C 0.65925 0.20127 0.98966 0.0
C1680 C 0.66565 0.1719 0.98781 0.0
C1681 C 0.6588 0.15361 1.02051 0.0
C1682 C 0.64553 0.16501 0.05476 0.0
C1683 C 0.63953 0.19366 0.0573 0.0
C1684 C 0.62468 0.20065 0.09701 0.0
C1685 C 0.6432 0.22313 0.11785 0.0
C1686 C 0.59456 0.21093 0.09363 0.0
C1687 C 0.623 0.17132 0.11662 0.0
C1688 C 0.63514 0.15106 0.09176 0.0
C1689 C 0.63577 0.12239 0.10318 0.0
C1690 C 0.62403 0.11427 0.14102 0.0
C1691 C 0.61185 0.13472 0.16737 0.0
C1692 C 0.61125 0.16362 0.15459 0.0
H1693 H 0.55948 0.86183 0.86547 0.0
H1694 H 0.64221 0.90882 0.83421 0.0
H1695 H 0.65293 0.90547 0.90238 0.0
H1696 H 0.54437 0.88956 0.96138 0.0
H1697 H 0.52927 0.85531 0.98139 0.0
H1698 H 0.52711 0.86365 0.93091 0.0
H1699 H 0.552 0.81703 0.91034 0.0
H1700 H 0.5543 0.80848 0.96069 0.0
H1701 H 0.58633 0.81109 0.92672 0.0
H1702 H 0.6554 0.8953 0.97272 0.0
H1703 H 0.65024 0.87728 0.04059 0.0
H1704 H 0.5674 0.83431 1.02335 0.0
C1705 C 0.58001 0.87127 0.87262 0.0
C1706 C 0.60003 0.88557 0.8444 0.0
C1707 C 0.62632 0.89817 0.85545 0.0
C1708 C 0.6327 0.89623 0.89399 0.0
C1709 C 0.61266 0.88143 0.92073 0.0
C1710 C 0.58697 0.86899 0.91047 0.0
C1711 C 0.56978 0.85284 0.94401 0.0
C1712 C 0.54093 0.86615 0.95508 0.0
C1713 C 0.56536 0.82045 0.93488 0.0
C1714 C 0.58993 0.85813 0.97487 0.0
C1715 C 0.61441 0.87486 0.96098 0.0
C1716 C 0.63632 0.88227 0.98406 0.0
C1717 C 0.63316 0.87207 1.02243 0.0
C1718 C 0.60844 0.85451 0.03683 0.0
C1719 C 0.58656 0.8476 1.01282 0.0
H1720 H 0.5523 0.69541 0.9362 0.0
H1721 H 0.59842 0.61794 0.9178 0.0
H1722 H 0.61515 0.62338 0.9828 0.0
H1723 H 0.60743 0.73459 0.98811 0.0
H1724 H 0.58216 0.75199 1.02182 0.0
H1725 H 0.57283 0.74224 0.97398 0.0
H1726 H 0.52724 0.71289 1.00485 0.0
H1727 H 0.53676 0.72295 0.05251 0.0
H1728 H 0.53051 0.68536 0.04057 0.0
H1729 H 0.62657 0.6359 0.05074 0.0
H1730 H 0.63352 0.65587 0.11549 0.0
H1731 H 0.58256 0.72718 0.09253 0.0
C1732 C 0.56576 0.6795 0.94598 0.0
C1733 C 0.57385 0.65603 0.92119 0.0
C1734 C 0.59187 0.63611 0.93549 0.0
C1735 C 0.6015 0.63898 0.9727 0.0
C1736 C 0.59342 0.66221 0.9961 0.0
C1737 C 0.57614 0.68236 0.98332 0.0
C1738 C 0.5716 0.70576 1.01443 0.0
C1739 C 0.58426 0.7354 0.99862 0.0
C1740 C 0.53959 0.70676 1.02893 0.0
C1741 C 0.58855 0.69526 0.04669 0.0
C1742 C 0.60087 0.67003 1.03524 0.0
C1743 C 0.61713 0.65576 0.0598 0.0
C1744 C 0.62099 0.66737 0.09684 0.0
C1745 C 0.60898 0.69338 0.10975 0.0
C1746 C 0.59247 0.70748 0.08385 0.0
H1747 H 0.51752 0.36997 0.2793 0.0
H1748 H 0.58805 0.42392 0.31884 0.0
H1749 H 0.6168 0.41707 0.25561 0.0
H1750 H 0.56112 0.31882 0.23058 0.0
H1751 H 0.53876 0.31299 0.19157 0.0
H1752 H 0.52316 0.32355 0.23894 0.0
H1753 H 0.50269 0.36752 0.20849 0.0
H1754 H 0.51802 0.35713 0.16087 0.0
H1755 H 0.52655 0.39282 0.17895 0.0
H1756 H 0.63806 0.40332 0.18941 0.0
H1757 H 0.65077 0.38362 0.12397 0.0
H1758 H 0.56678 0.33714 0.12931 0.0
C1759 C 0.53883 0.3808 0.2745 0.0
C1760 C 0.55048 0.39782 0.30368 0.0
C1761 C 0.57869 0.41098 0.29666 0.0
C1762 C 0.59515 0.4072 0.26094 0.0
C1763 C 0.58308 0.39002 0.23297 0.0
C1764 C 0.55562 0.37697 0.23938 0.0
C1765 C 0.54811 0.35854 0.20529 0.0
C1766 C 0.54247 0.32659 0.21733 0.0
C1767 C 0.52233 0.36969 0.18733 0.0
C1768 C 0.57565 0.36347 0.17847 0.0
C1769 C 0.59553 0.38165 0.19502 0.0
C1770 C 0.62273 0.38901 0.17611 0.0
C1771 C 0.62982 0.3775 0.13915 0.0
C1772 C 0.60983 0.35871 0.12168 0.0
C1773 C 0.5824 0.35168 0.14172 0.0
H1774 H 0.97892 0.35254 0.30776 0.0
H1775 H 0.91587 0.30129 0.24828 0.0
H1776 H 0.89077 0.28518 0.31078 0.0
H1777 H 0.98083 0.30232 0.38786 0.0
H1778 H 0.98313 0.3297 0.42474 0.0
H1779 H -0.00285 0.33779 0.375 0.0
H1780 H 0.96514 0.3809 0.37466 0.0
H1781 H 0.9509 0.37301 0.42439 0.0
H1782 H 0.92689 0.37498 0.3872 0.0
H1783 H 0.87191 0.27314 0.37832 0.0
H1784 H 0.86114 0.26512 0.4493 0.0
H1785 H 0.93247 0.3259 0.46941 0.0
C1786 C 0.95979 0.33806 0.30796 0.0
C1787 C 0.94945 0.32868 0.2724 0.0
C1788 C 0.9243 0.30948 0.27448 0.0
C1789 C 0.90973 0.29994 0.3101 0.0
C1790 C 0.92004 0.30977 0.34429 0.0
C1791 C 0.94436 0.32847 0.34388 0.0
C1792 C 0.95016 0.33563 0.38567 0.0
C1793 C 0.97956 0.32577 0.3938 0.0
C1794 C 0.94816 0.36806 0.39344 0.0
C1795 C 0.9255 0.31777 0.40911 0.0
C1796 C 0.90857 0.30301 0.38428 0.0
C1797 C 0.88506 0.28441 0.3982 0.0
C1798 C 0.87889 0.28018 0.43857 0.0
C1799 C 0.89539 0.29529 0.46495 0.0
C1800 C 0.91898 0.31455 0.44994 0.0
H1801 H 0.97777 0.62096 0.7947 0.0
H1802 H 0.92674 0.5443 0.83934 0.0
H1803 H 0.89506 0.54832 0.78666 0.0
H1804 H 0.91773 0.65928 0.77046 0.0
H1805 H 0.93775 0.67613 0.72802 0.0
H1806 H 0.95606 0.66675 0.769 0.0
H1807 H -0.00988 0.63654 0.72387 0.0
H1808 H 0.97203 0.64584 0.6827 0.0
H1809 H 0.9751 0.60844 0.69442 0.0
H1810 H 0.87065 0.56006 0.72737 0.0
H1811 H 0.85403 0.57939 0.66785 0.0
H1812 H 0.91962 0.65036 0.66658 0.0
C1813 C 0.96009 0.60482 0.79321 0.0
C1814 C 0.95488 0.58196 0.82034 0.0
C1815 C 0.9311 0.56177 0.81834 0.0
C1816 C 0.91307 0.56392 0.78869 0.0
C1817 C 0.91894 0.58675 0.76221 0.0
C1818 C 0.94167 0.60702 0.76461 0.0
C1819 C 0.94317 0.62988 0.73338 0.0
C1820 C 0.93838 0.65977 0.7513 0.0
C1821 C 0.97179 0.63017 0.70702 0.0
C1822 C 0.91811 0.61892 0.7122 0.0
C1823 C 0.90433 0.59409 0.72925 0.0
C1824 C 0.88102 0.5797 0.71406 0.0
C1825 C 0.87161 0.59098 0.68044 0.0
C1826 C 0.88542 0.61649 0.66264 0.0
C1827 C 0.90878 0.63067 0.67914 0.0
H1828 H 0.4047 0.29575 0.20967 0.0
H1829 H 0.37637 0.38189 0.19672 0.0
H1830 H 0.35803 0.36769 0.13467 0.0
H1831 H 0.42831 0.28517 0.10773 0.0
H1832 H 0.41621 0.24744 0.10841 0.0
H1833 H 0.427 0.26438 0.15201 0.0
H1834 H 0.3776 0.24769 0.18892 0.0
H1835 H 0.36665 0.23098 0.14523 0.0
H1836 H 0.34514 0.25741 0.17014 0.0
H1837 H 0.3426 0.34409 0.07352 0.0
H1838 H 0.3328 0.31306 1.01731 0.0
H1839 H 0.37121 0.24266 0.07045 0.0
C1840 C 0.39491 0.31172 0.19362 0.0
C1841 C 0.39184 0.33992 0.20839 0.0
C1842 C 0.37859 0.36002 0.18648 0.0
C1843 C 0.36818 0.35221 0.15105 0.0
C1844 C 0.37118 0.32418 0.13764 0.0
C1845 C 0.38432 0.30426 0.15815 0.0
C1846 C 0.38487 0.27556 0.13716 0.0
C1847 C 0.41594 0.26769 0.12563 0.0
C1848 C 0.36753 0.2515 0.16185 0.0
C1849 C 0.37012 0.28256 0.10173 0.0
C1850 C 0.36229 0.31065 0.10252 0.0
C1851 C 0.34854 0.32199 0.07264 0.0
C1852 C 0.34293 0.30417 0.0409 0.0
C1853 C 0.35098 0.27532 0.03941 0.0
C1854 C 0.36454 0.26451 0.07057 0.0
H1855 H 0.38888 0.63277 0.88786 0.0
H1856 H 0.36206 0.7196 0.88109 0.0
H1857 H 0.36685 0.71678 0.80922 0.0
H1858 H 0.44132 0.63692 0.82021 0.0
H1859 H 0.43635 0.60161 0.79913 0.0
H1860 H 0.42255 0.60745 0.84852 0.0
H1861 H 0.37154 0.58889 0.83298 0.0
H1862 H 0.3854 0.58307 0.78299 0.0
H1863 H 0.35559 0.60527 0.79398 0.0
H1864 H 0.38951 0.71034 0.74245 0.0
H1865 H 0.42543 0.6997 0.68736 0.0
H1866 H 0.4313 0.61466 0.73509 0.0
C1867 C 0.38252 0.65049 0.87116 0.0
C1868 C 0.37589 0.67665 0.88925 0.0
C1869 C 0.36817 0.69978 0.86701 0.0
C1870 C 0.37029 0.69812 0.8264 0.0
C1871 C 0.37894 0.67264 0.80889 0.0
C1872 C 0.38409 0.64887 0.8307 0.0
C1873 C 0.39738 0.6258 0.8054 0.0
C1874 C 0.42607 0.61755 0.81912 0.0
C1875 C 0.3762 0.59918 0.80374 0.0
C1876 C 0.40181 0.64153 0.76678 0.0
C1877 C 0.39036 0.66824 0.76893 0.0
C1878 C 0.39734 0.68899 0.73951 0.0
C1879 C 0.41765 0.68283 0.70824 0.0
C1880 C 0.43048 0.65624 0.70721 0.0
C1881 C 0.42095 0.6348 0.73515 0.0
H1882 H 0.14834 0.73689 0.53607 0.0
H1883 H 0.17849 0.66687 0.4625 0.0
H1884 H 0.16756 0.63316 0.51844 0.0
H1885 H 0.17465 0.71303 0.6252 0.0
H1886 H 0.14386 0.72462 0.65543 0.0
H1887 H 0.15608 0.7431 0.61023 0.0
H1888 H 0.10536 0.734 0.58773 0.0
H1889 H 0.0929 0.71507 0.63245 0.0
H1890 H 0.08944 0.69759 0.58633 0.0
H1891 H 0.14991 0.60663 0.58112 0.0
H1892 H 0.12976 0.58964 0.64652 0.0
H1893 H 0.11184 0.67753 0.679 0.0
C1894 C 0.15321 0.71459 0.53167 0.0
C1895 C 0.16456 0.70463 0.49482 0.0
C1896 C 0.17019 0.67515 0.49049 0.0
C1897 C 0.16386 0.6558 0.52204 0.0
C1898 C 0.15197 0.66631 0.55761 0.0
C1899 C 0.14694 0.69507 0.56261 0.0
C1900 C 0.1333 0.70089 0.60335 0.0
C1901 C 0.15316 0.72163 0.62484 0.0
C1902 C 0.10348 0.71257 0.60238 0.0
C1903 C 0.13105 0.67074 0.62054 0.0
C1904 C 0.14196 0.65112 0.59368 0.0
C1905 C 0.14167 0.62187 0.60252 0.0
C1906 C 0.13028 0.61246 0.63991 0.0
C1907 C 0.11943 0.63222 0.66827 0.0
C1908 C 0.11972 0.66176 0.65811 0.0
H1909 H 0.10689 0.34116 0.34903 0.0
H1910 H 0.08766 0.43133 0.35186 0.0
H1911 H 0.09267 0.43287 0.42219 0.0
H1912 H 0.06686 0.32124 0.43688 0.0
H1913 H 0.09163 0.2966 0.45189 0.0
H1914 H 0.08988 0.30316 0.40089 0.0
H1915 H 0.14458 0.31828 0.39188 0.0
H1916 H 0.14635 0.31136 0.44287 0.0
H1917 H 0.15886 0.3462 0.42228 0.0
H1918 H 0.09361 0.4231 0.4922 0.0
H1919 H 0.09428 0.40359 0.55827 0.0
H1920 H 0.11531 0.32044 0.50888 0.0
C1921 C 0.10418 0.36132 0.36439 0.0
C1922 C 0.09705 0.38617 0.34528 0.0
C1923 C 0.09361 0.41221 0.36608 0.0
C1924 C 0.09623 0.41325 0.40594 0.0
C1925 C 0.10251 0.38814 0.42413 0.0
C1926 C 0.10681 0.36275 0.40406 0.0
C1927 C 0.11193 0.33848 0.43092 0.0
C1928 C 0.08868 0.31341 0.43008 0.0
C1929 C 0.14224 0.32798 0.42141 0.0
C1930 C 0.10914 0.35413 0.46925 0.0
C1931 C 0.10371 0.38269 0.46472 0.0
C1932 C 0.09849 0.40095 0.49623 0.0
C1933 C 0.09903 0.38967 0.53357 0.0
C1934 C 0.10501 0.36051 0.53882 0.0
C1935 C 0.11033 0.3427 0.50607 0.0
loop_
_geom_bond_atom_site_label_1
_geom_bond_atom_site_label_2
_geom_bond_distance
_geom_bond_site_symmetry_2
_ccdc_geom_bond_type
Pr0 C2 2.880 . S
Pr0 O20 2.562 . S
Pr0 O21 2.490 . S
Pr0 O22 2.695 . S
Pr0 O23 2.512 . S
Pr0 O25 2.437 . S
Pr0 O28 2.436 . S
Pr0 O30 2.438 . S
Pr1 C11 2.880 . S
Pr1 O22 2.436 1_655 S
Pr1 O24 2.438 . S
Pr1 O26 2.562 . S
Pr1 O27 2.490 . S
Pr1 O28 2.695 1_655 S
Pr1 O29 2.512 . S
Pr1 O31 2.437 1_655 S
C2 Pr0 2.880 . S
C2 C3 1.491 . S
C2 O20 1.254 . S
C2 O21 1.225 . S
C3 C2 1.491 . S
C3 C4 1.392 . S
C3 C8 1.356 . S
C4 C3 1.392 . S
C4 C5 1.368 . S
C4 H32 0.929 . S
C5 C4 1.368 . S
C5 C6 1.386 . S
C5 H33 0.929 . S
C6 C5 1.386 . S
C6 C7 1.373 . S
C7 C6 1.373 . S
C7 C8 1.409 . S
C7 H34 0.931 . S
C8 C3 1.356 . S
C8 C7 1.409 . S
C8 H35 0.930 . S
C9 O22 1.270 . S
C9 O23 1.248 . S
C10 O24 1.267 . S
C10 O25 1.278 1_655 S
C11 Pr1 2.880 . S
C11 C12 1.491 1_554 S
C11 O26 1.254 . S
C11 O27 1.225 . S
C12 C11 1.491 1_556 S
C12 C13 1.392 . S
C12 C17 1.356 . S
C13 C12 1.392 . S
C13 C14 1.368 . S
C13 H36 0.929 . S
C14 C13 1.368 . S
C14 C15 1.386 . S
C14 H37 0.929 . S
C15 C14 1.386 . S
C15 C16 1.373 . S
C16 C15 1.373 . S
C16 C17 1.409 . S
C16 H38 0.931 . S
C17 C12 1.356 . S
C17 C16 1.409 . S
C17 H39 0.930 . S
C18 O28 1.270 . S
C18 O29 1.248 1_455 S
C19 O30 1.267 . S
C19 O31 1.278 . S
O20 Pr0 2.562 . S
O20 C2 1.254 . S
O21 Pr0 2.490 . S
O21 C2 1.225 . S
O22 Pr0 2.695 . S
O22 Pr1 2.436 1_455 S
O22 C9 1.270 . S
O23 Pr0 2.512 . S
O23 C9 1.248 . S
O24 Pr1 2.438 . S
O24 C10 1.267 . S
O25 Pr0 2.437 . S
O25 C10 1.278 1_455 S
O26 Pr1 2.562 . S
O26 C11 1.254 . S
O27 Pr1 2.490 . S
O27 C11 1.225 . S
O28 Pr0 2.436 . S
O28 Pr1 2.695 1_455 S
O28 C18 1.270 . S
O29 Pr1 2.512 . S
O29 C18 1.248 1_655 S
O30 Pr0 2.438 . S
O30 C19 1.267 . S
O31 Pr1 2.437 1_455 S
O31 C19 1.278 . S
H32 C4 0.929 . S
H33 C5 0.929 . S
H34 C7 0.931 . S
H35 C8 0.930 . S
H36 C13 0.929 . S
H37 C14 0.929 . S
H38 C16 0.931 . S
H39 C17 0.930 . S
Pr40 C42 2.880 . S
Pr40 O60 2.562 . S
Pr40 O61 2.490 . S
Pr40 O62 2.695 . S
Pr40 O63 2.512 . S
Pr40 O65 2.437 . S
Pr40 O68 2.436 . S
Pr40 O70 2.438 . S
Pr41 C51 2.880 . S
Pr41 O62 2.436 . S
Pr41 O64 2.438 . S
Pr41 O66 2.562 . S
Pr41 O67 2.490 . S
Pr41 O68 2.695 . S
Pr41 O69 2.512 . S
Pr41 O71 2.437 . S
C42 Pr40 2.880 . S
C42 C43 1.491 . S
C42 O60 1.254 . S
C42 O61 1.225 . S
C43 C42 1.491 . S
C43 C44 1.392 . S
C43 C48 1.356 . S
C44 C43 1.392 . S
C44 C45 1.368 . S
C44 H72 0.929 . S
C45 C44 1.368 . S
C45 C46 1.386 . S
C45 H73 0.929 . S
C46 C45 1.386 . S
C46 C47 1.373 . S
C47 C46 1.373 . S
C47 C48 1.409 . S
C47 H74 0.931 . S
C48 C43 1.356 . S
C48 C47 1.409 . S
C48 H75 0.930 . S
C49 O62 1.270 . S
C49 O63 1.248 . S
C50 O64 1.267 . S
C50 O65 1.278 . S
C51 Pr41 2.880 . S
C51 C52 1.491 . S
C51 O66 1.254 . S
C51 O67 1.225 . S
C52 C51 1.491 . S
C52 C53 1.392 . S
C52 C57 1.356 . S
C53 C52 1.392 . S
C53 C54 1.368 . S
C53 H76 0.929 . S
C54 C53 1.368 . S
C54 C55 1.386 . S
C54 H77 0.929 . S
C55 C54 1.386 . S
C55 C56 1.373 . S
C56 C55 1.373 . S
C56 C57 1.409 . S
C56 H78 0.931 . S
C57 C52 1.356 . S
C57 C56 1.409 . S
C57 H79 0.930 . S
C58 O68 1.270 . S
C58 O69 1.248 . S
C59 O70 1.267 . S
C59 O71 1.278 . S
O60 Pr40 2.562 . S
O60 C42 1.254 . S
O61 Pr40 2.490 . S
O61 C42 1.225 . S
O62 Pr40 2.695 . S
O62 Pr41 2.436 . S
O62 C49 1.270 . S
O63 Pr40 2.512 . S
O63 C49 1.248 . S
O64 Pr41 2.438 . S
O64 C50 1.267 . S
O65 Pr40 2.437 . S
O65 C50 1.278 . S
O66 Pr41 2.562 . S
O66 C51 1.254 . S
O67 Pr41 2.490 . S
O67 C51 1.225 . S
O68 Pr40 2.436 . S
O68 Pr41 2.695 . S
O68 C58 1.270 . S
O69 Pr41 2.512 . S
O69 C58 1.248 . S
O70 Pr40 2.438 . S
O70 C59 1.267 . S
O71 Pr41 2.437 . S
O71 C59 1.278 . S
H72 C44 0.929 . S
H73 C45 0.929 . S
H74 C47 0.931 . S
H75 C48 0.930 . S
H76 C53 0.929 . S
H77 C54 0.929 . S
H78 C56 0.931 . S
H79 C57 0.930 . S
Pr80 C82 2.880 . S
Pr80 O100 2.562 . S
Pr80 O101 2.490 . S
Pr80 O102 2.695 . S
Pr80 O103 2.512 . S
Pr80 O105 2.437 . S
Pr80 O108 2.436 . S
Pr80 O110 2.438 . S
Pr81 C91 2.880 . S
Pr81 O102 2.436 . S
Pr81 O104 2.438 . S
Pr81 O106 2.562 . S
Pr81 O107 2.490 . S
Pr81 O108 2.695 . S
Pr81 O109 2.512 . S
Pr81 O111 2.437 . S
C82 Pr80 2.880 . S
C82 C83 1.491 . S
C82 O100 1.254 . S
C82 O101 1.225 . S
C83 C82 1.491 . S
C83 C84 1.392 . S
C83 C88 1.356 . S
C84 C83 1.392 . S
C84 C85 1.368 . S
C84 H112 0.929 . S
C85 C84 1.368 . S
C85 C86 1.386 . S
C85 H113 0.929 . S
C86 C85 1.386 . S
C86 C87 1.373 . S
C87 C86 1.373 . S
C87 C88 1.409 . S
C87 H114 0.931 . S
C88 C83 1.356 . S
C88 C87 1.409 . S
C88 H115 0.930 . S
C89 O102 1.270 . S
C89 O103 1.248 . S
C90 O104 1.267 . S
C90 O105 1.278 . S
C91 Pr81 2.880 . S
C91 C92 1.491 . S
C91 O106 1.254 . S
C91 O107 1.225 . S
C92 C91 1.491 . S
C92 C93 1.392 . S
C92 C97 1.356 . S
C93 C92 1.392 . S
C93 C94 1.368 . S
C93 H116 0.929 . S
C94 C93 1.368 . S
C94 C95 1.386 . S
C94 H117 0.929 . S
C95 C94 1.386 . S
C95 C96 1.373 . S
C96 C95 1.373 . S
C96 C97 1.409 . S
C96 H118 0.931 . S
C97 C92 1.356 . S
C97 C96 1.409 . S
C97 H119 0.930 . S
C98 O108 1.270 . S
C98 O109 1.248 . S
C99 O110 1.267 . S
C99 O111 1.278 . S
O100 Pr80 2.562 . S
O100 C82 1.254 . S
O101 Pr80 2.490 . S
O101 C82 1.225 . S
O102 Pr80 2.695 . S
O102 Pr81 2.436 . S
O102 C89 1.270 . S
O103 Pr80 2.512 . S
O103 C89 1.248 . S
O104 Pr81 2.438 . S
O104 C90 1.267 . S
O105 Pr80 2.437 . S
O105 C90 1.278 . S
O106 Pr81 2.562 . S
O106 C91 1.254 . S
O107 Pr81 2.490 . S
O107 C91 1.225 . S
O108 Pr80 2.436 . S
O108 Pr81 2.695 . S
O108 C98 1.270 . S
O109 Pr81 2.512 . S
O109 C98 1.248 . S
O110 Pr80 2.438 . S
O110 C99 1.267 . S
O111 Pr81 2.437 . S
O111 C99 1.278 . S
H112 C84 0.929 . S
H113 C85 0.929 . S
H114 C87 0.931 . S
H115 C88 0.930 . S
H116 C93 0.929 . S
H117 C94 0.929 . S
H118 C96 0.931 . S
H119 C97 0.930 . S
Pr120 C122 2.880 . S
Pr120 O140 2.562 . S
Pr120 O141 2.490 . S
Pr120 O142 2.695 . S
Pr120 O143 2.512 . S
Pr120 O145 2.437 . S
Pr120 O148 2.436 . S
Pr120 O150 2.438 . S
Pr121 C131 2.880 . S
Pr121 O142 2.436 . S
Pr121 O144 2.438 . S
Pr121 O146 2.562 . S
Pr121 O147 2.490 . S
Pr121 O148 2.695 . S
Pr121 O149 2.512 . S
Pr121 O151 2.437 . S
C122 Pr120 2.880 . S
C122 C123 1.491 1_556 S
C122 O140 1.254 . S
C122 O141 1.225 . S
C123 C122 1.491 1_554 S
C123 C124 1.392 . S
C123 C128 1.356 . S
C124 C123 1.392 . S
C124 C125 1.368 . S
C124 H152 0.929 . S
C125 C124 1.368 . S
C125 C126 1.386 . S
C125 H153 0.929 . S
C126 C125 1.386 . S
C126 C127 1.373 . S
C127 C126 1.373 . S
C127 C128 1.409 . S
C127 H154 0.931 . S
C128 C123 1.356 . S
C128 C127 1.409 . S
C128 H155 0.930 . S
C129 O142 1.270 . S
C129 O143 1.248 . S
C130 O144 1.267 . S
C130 O145 1.278 . S
C131 Pr121 2.880 . S
C131 C132 1.491 . S
C131 O146 1.254 . S
C131 O147 1.225 . S
C132 C131 1.491 . S
C132 C133 1.392 . S
C132 C137 1.356 . S
C133 C132 1.392 . S
C133 C134 1.368 . S
C133 H156 0.929 . S
C134 C133 1.368 . S
C134 C135 1.386 . S
C134 H157 0.929 . S
C135 C134 1.386 . S
C135 C136 1.373 . S
C136 C135 1.373 . S
C136 C137 1.409 . S
C136 H158 0.931 . S
C137 C132 1.356 . S
C137 C136 1.409 . S
C137 H159 0.930 . S
C138 O148 1.270 . S
C138 O149 1.248 . S
C139 O150 1.267 . S
C139 O151 1.278 . S
O140 Pr120 2.562 . S
O140 C122 1.254 . S
O141 Pr120 2.490 . S
O141 C122 1.225 . S
O142 Pr120 2.695 . S
O142 Pr121 2.436 . S
O142 C129 1.270 . S
O143 Pr120 2.512 . S
O143 C129 1.248 . S
O144 Pr121 2.438 . S
O144 C130 1.267 . S
O145 Pr120 2.437 . S
O145 C130 1.278 . S
O146 Pr121 2.562 . S
O146 C131 1.254 . S
O147 Pr121 2.490 . S
O147 C131 1.225 . S
O148 Pr120 2.436 . S
O148 Pr121 2.695 . S
O148 C138 1.270 . S
O149 Pr121 2.512 . S
O149 C138 1.248 . S
O150 Pr120 2.438 . S
O150 C139 1.267 . S
O151 Pr121 2.437 . S
O151 C139 1.278 . S
H152 C124 0.929 . S
H153 C125 0.929 . S
H154 C127 0.931 . S
H155 C128 0.930 . S
H156 C133 0.929 . S
H157 C134 0.929 . S
H158 C136 0.931 . S
H159 C137 0.930 . S
Pr160 C162 2.880 . S
Pr160 O180 2.562 . S
Pr160 O181 2.490 . S
Pr160 O182 2.695 . S
Pr160 O183 2.512 . S
Pr160 O185 2.437 . S
Pr160 O188 2.436 . S
Pr160 O190 2.438 . S
Pr161 C171 2.880 . S
Pr161 O182 2.436 1_655 S
Pr161 O184 2.438 . S
Pr161 O186 2.562 . S
Pr161 O187 2.490 . S
Pr161 O188 2.695 1_655 S
Pr161 O189 2.512 . S
Pr161 O191 2.437 1_655 S
C162 Pr160 2.880 . S
C162 C163 1.491 1_556 S
C162 O180 1.254 . S
C162 O181 1.225 . S
C163 C162 1.491 1_554 S
C163 C164 1.392 . S
C163 C168 1.356 . S
C164 C163 1.392 . S
C164 C165 1.368 . S
C164 H192 0.929 . S
C165 C164 1.368 . S
C165 C166 1.386 . S
C165 H193 0.929 . S
C166 C165 1.386 . S
C166 C167 1.373 . S
C167 C166 1.373 . S
C167 C168 1.409 . S
C167 H194 0.931 . S
C168 C163 1.356 . S
C168 C167 1.409 . S
C168 H195 0.930 . S
C169 O182 1.270 . S
C169 O183 1.248 . S
C170 O184 1.267 . S
C170 O185 1.278 1_655 S
C171 Pr161 2.880 . S
C171 C172 1.491 . S
C171 O186 1.254 . S
C171 O187 1.225 . S
C172 C171 1.491 . S
C172 C173 1.392 . S
C172 C177 1.356 . S
C173 C172 1.392 . S
C173 C174 1.368 . S
C173 H196 0.929 . S
C174 C173 1.368 . S
C174 C175 1.386 . S
C174 H197 0.929 . S
C175 C174 1.386 . S
C175 C176 1.373 . S
C176 C175 1.373 . S
C176 C177 1.409 . S
C176 H198 0.931 . S
C177 C172 1.356 . S
C177 C176 1.409 . S
C177 H199 0.930 . S
C178 O188 1.274 . S
C178 O189 1.242 1_455 S
C179 O190 1.267 . S
C179 O191 1.278 . S
O180 Pr160 2.562 . S
O180 C162 1.254 . S
O181 Pr160 2.490 . S
O181 C162 1.225 . S
O182 Pr160 2.695 . S
O182 Pr161 2.436 1_455 S
O182 C169 1.270 . S
O183 Pr160 2.512 . S
O183 C169 1.248 . S
O184 Pr161 2.438 . S
O184 C170 1.267 . S
O185 Pr160 2.437 . S
O185 C170 1.278 1_455 S
O186 Pr161 2.562 . S
O186 C171 1.254 . S
O187 Pr161 2.490 . S
O187 C171 1.225 . S
O188 Pr160 2.436 . S
O188 Pr161 2.695 1_455 S
O188 C178 1.274 . S
O189 Pr161 2.512 . S
O189 C178 1.242 1_655 S
O190 Pr160 2.438 . S
O190 C179 1.267 . S
O191 Pr161 2.437 1_455 S
O191 C179 1.278 . S
H192 C164 0.929 . S
H193 C165 0.929 . S
H194 C167 0.931 . S
H195 C168 0.930 . S
H196 C173 0.929 . S
H197 C174 0.929 . S
H198 C176 0.931 . S
H199 C177 0.930 . S
Pr200 C202 2.880 . S
Pr200 O220 2.562 . S
Pr200 O221 2.490 . S
Pr200 O222 2.695 . S
Pr200 O223 2.512 . S
Pr200 O225 2.437 . S
Pr200 O228 2.436 . S
Pr200 O230 2.438 . S
Pr201 C211 2.880 1_554 S
Pr201 O222 2.436 . S
Pr201 O224 2.438 . S
Pr201 O226 2.562 . S
Pr201 O227 2.490 . S
Pr201 O228 2.695 . S
Pr201 O229 2.512 . S
Pr201 O231 2.437 . S
C202 Pr200 2.880 . S
C202 C203 1.491 . S
C202 O220 1.254 . S
C202 O221 1.225 . S
C203 C202 1.491 . S
C203 C204 1.392 . S
C203 C208 1.356 . S
C204 C203 1.392 . S
C204 C205 1.368 . S
C204 H232 0.929 . S
C205 C204 1.368 . S
C205 C206 1.386 . S
C205 H233 0.929 . S
C206 C205 1.386 . S
C206 C207 1.373 . S
C207 C206 1.373 . S
C207 C208 1.409 . S
C207 H234 0.931 . S
C208 C203 1.356 . S
C208 C207 1.409 . S
C208 H235 0.930 . S
C209 O222 1.270 . S
C209 O223 1.248 . S
C210 O224 1.267 . S
C210 O225 1.278 . S
C211 Pr201 2.880 1_556 S
C211 C212 1.491 . S
C211 O226 1.254 1_556 S
C211 O227 1.225 1_556 S
C212 C211 1.491 . S
C212 C213 1.392 . S
C212 C217 1.356 . S
C213 C212 1.392 . S
C213 C214 1.368 . S
C213 H236 0.929 . S
C214 C213 1.368 . S
C214 C215 1.386 . S
C214 H237 0.929 . S
C215 C214 1.386 . S
C215 C216 1.373 . S
C216 C215 1.373 . S
C216 C217 1.409 . S
C216 H238 0.931 . S
C217 C212 1.356 . S
C217 C216 1.409 . S
C217 H239 0.930 . S
C218 O228 1.270 . S
C218 O229 1.248 . S
C219 O230 1.267 . S
C219 O231 1.278 . S
O220 Pr200 2.562 . S
O220 C202 1.254 . S
O221 Pr200 2.490 . S
O221 C202 1.225 . S
O222 Pr200 2.695 . S
O222 Pr201 2.436 . S
O222 C209 1.270 . S
O223 Pr200 2.512 . S
O223 C209 1.248 . S
O224 Pr201 2.438 . S
O224 C210 1.267 . S
O225 Pr200 2.437 . S
O225 C210 1.278 . S
O226 Pr201 2.562 . S
O226 C211 1.254 1_554 S
O227 Pr201 2.490 . S
O227 C211 1.225 1_554 S
O228 Pr200 2.436 . S
O228 Pr201 2.695 . S
O228 C218 1.270 . S
O229 Pr201 2.512 . S
O229 C218 1.248 . S
O230 Pr200 2.438 . S
O230 C219 1.267 . S
O231 Pr201 2.437 . S
O231 C219 1.278 . S
H232 C204 0.929 . S
H233 C205 0.929 . S
H234 C207 0.931 . S
H235 C208 0.930 . S
H236 C213 0.929 . S
H237 C214 0.929 . S
H238 C216 0.931 . S
H239 C217 0.930 . S
Pr240 C242 2.880 . S
Pr240 O260 2.562 . S
Pr240 O261 2.490 . S
Pr240 O262 2.695 . S
Pr240 O263 2.512 . S
Pr240 O265 2.437 . S
Pr240 O268 2.436 . S
Pr240 O270 2.438 . S
Pr241 C251 2.880 . S
Pr241 O262 2.436 . S
Pr241 O264 2.438 . S
Pr241 O266 2.562 . S
Pr241 O267 2.490 . S
Pr241 O268 2.695 . S
Pr241 O269 2.512 . S
Pr241 O271 2.437 . S
C242 Pr240 2.880 . S
C242 C243 1.491 . S
C242 O260 1.254 . S
C242 O261 1.225 . S
C243 C242 1.491 . S
C243 C244 1.392 . S
C243 C248 1.356 . S
C244 C243 1.392 . S
C244 C245 1.368 . S
C244 H272 0.929 . S
C245 C244 1.368 . S
C245 C246 1.386 . S
C245 H273 0.929 . S
C246 C245 1.386 . S
C246 C247 1.373 . S
C247 C246 1.373 . S
C247 C248 1.409 . S
C247 H274 0.931 . S
C248 C243 1.356 . S
C248 C247 1.409 . S
C248 H275 0.930 . S
C249 O262 1.270 . S
C249 O263 1.248 . S
C250 O264 1.267 . S
C250 O265 1.278 . S
C251 Pr241 2.880 . S
C251 C252 1.491 . S
C251 O266 1.254 . S
C251 O267 1.225 . S
C252 C251 1.491 . S
C252 C253 1.392 . S
C252 C257 1.356 . S
C253 C252 1.392 . S
C253 C254 1.368 . S
C253 H276 0.929 . S
C254 C253 1.368 . S
C254 C255 1.386 . S
C254 H277 0.929 . S
C255 C254 1.386 . S
C255 C256 1.373 . S
C256 C255 1.373 . S
C256 C257 1.409 . S
C256 H278 0.931 . S
C257 C252 1.356 . S
C257 C256 1.409 . S
C257 H279 0.930 . S
C258 O268 1.270 . S
C258 O269 1.248 . S
C259 O270 1.267 . S
C259 O271 1.278 . S
O260 Pr240 2.562 . S
O260 C242 1.254 . S
O261 Pr240 2.490 . S
O261 C242 1.225 . S
O262 Pr240 2.695 . S
O262 Pr241 2.436 . S
O262 C249 1.270 . S
O263 Pr240 2.512 . S
O263 C249 1.248 . S
O264 Pr241 2.438 . S
O264 C250 1.267 . S
O265 Pr240 2.437 . S
O265 C250 1.278 . S
O266 Pr241 2.562 . S
O266 C251 1.254 . S
O267 Pr241 2.490 . S
O267 C251 1.225 . S
O268 Pr240 2.436 . S
O268 Pr241 2.695 . S
O268 C258 1.270 . S
O269 Pr241 2.512 . S
O269 C258 1.248 . S
O270 Pr240 2.438 . S
O270 C259 1.267 . S
O271 Pr241 2.437 . S
O271 C259 1.278 . S
H272 C244 0.929 . S
H273 C245 0.929 . S
H274 C247 0.931 . S
H275 C248 0.930 . S
H276 C253 0.929 . S
H277 C254 0.929 . S
H278 C256 0.931 . S
H279 C257 0.930 . S
Pr280 C282 2.880 . S
Pr280 O300 2.562 . S
Pr280 O301 2.490 . S
Pr280 O302 2.695 . S
Pr280 O303 2.512 . S
Pr280 O305 2.437 . S
Pr280 O308 2.436 . S
Pr280 O310 2.438 . S
Pr281 C291 2.880 . S
Pr281 O302 2.436 . S
Pr281 O304 2.438 . S
Pr281 O306 2.562 . S
Pr281 O307 2.490 . S
Pr281 O308 2.695 . S
Pr281 O309 2.512 . S
Pr281 O311 2.437 . S
C282 Pr280 2.880 . S
C282 C283 1.491 . S
C282 O300 1.254 . S
C282 O301 1.225 . S
C283 C282 1.491 . S
C283 C284 1.392 . S
C283 C288 1.356 . S
C284 C283 1.392 . S
C284 C285 1.368 . S
C284 H312 0.929 . S
C285 C284 1.368 . S
C285 C286 1.386 . S
C285 H313 0.929 . S
C286 C285 1.386 . S
C286 C287 1.373 . S
C287 C286 1.373 . S
C287 C288 1.409 . S
C287 H314 0.931 . S
C288 C283 1.356 . S
C288 C287 1.409 . S
C288 H315 0.930 . S
C289 O302 1.270 . S
C289 O303 1.248 . S
C290 O304 1.267 . S
C290 O305 1.278 . S
C291 Pr281 2.880 . S
C291 C292 1.491 . S
C291 O306 1.254 . S
C291 O307 1.225 . S
C292 C291 1.491 . S
C292 C293 1.392 . S
C292 C297 1.356 . S
C293 C292 1.392 . S
C293 C294 1.368 . S
C293 H316 0.929 . S
C294 C293 1.368 . S
C294 C295 1.386 . S
C294 H317 0.929 . S
C295 C294 1.386 . S
C295 C296 1.373 . S
C296 C295 1.373 . S
C296 C297 1.409 . S
C296 H318 0.931 . S
C297 C292 1.356 . S
C297 C296 1.409 . S
C297 H319 0.930 . S
C298 O308 1.270 . S
C298 O309 1.248 . S
C299 O310 1.267 . S
C299 O311 1.278 . S
O300 Pr280 2.562 . S
O300 C282 1.254 . S
O301 Pr280 2.490 . S
O301 C282 1.225 . S
O302 Pr280 2.695 . S
O302 Pr281 2.436 . S
O302 C289 1.270 . S
O303 Pr280 2.512 . S
O303 C289 1.248 . S
O304 Pr281 2.438 . S
O304 C290 1.267 . S
O305 Pr280 2.437 . S
O305 C290 1.278 . S
O306 Pr281 2.562 . S
O306 C291 1.254 . S
O307 Pr281 2.490 . S
O307 C291 1.225 . S
O308 Pr280 2.436 . S
O308 Pr281 2.695 . S
O308 C298 1.270 . S
O309 Pr281 2.512 . S
O309 C298 1.248 . S
O310 Pr280 2.438 . S
O310 C299 1.267 . S
O311 Pr281 2.437 . S
O311 C299 1.278 . S
H312 C284 0.929 . S
H313 C285 0.929 . S
H314 C287 0.931 . S
H315 C288 0.930 . S
H316 C293 0.929 . S
H317 C294 0.929 . S
H318 C296 0.931 . S
H319 C297 0.930 . S
Pr320 C322 2.880 . S
Pr320 O340 2.562 . S
Pr320 O341 2.490 . S
Pr320 O342 2.695 . S
Pr320 O343 2.512 . S
Pr320 O345 2.437 . S
Pr320 O348 2.436 . S
Pr320 O350 2.438 . S
Pr321 C331 2.880 . S
Pr321 O342 2.436 . S
Pr321 O344 2.438 . S
Pr321 O346 2.562 . S
Pr321 O347 2.490 . S
Pr321 O348 2.695 . S
Pr321 O349 2.512 . S
Pr321 O351 2.437 . S
C322 Pr320 2.880 . S
C322 C323 1.491 . S
C322 O340 1.254 . S
C322 O341 1.225 . S
C323 C322 1.491 . S
C323 C324 1.392 . S
C323 C328 1.356 . S
C324 C323 1.392 . S
C324 C325 1.368 . S
C324 H352 0.929 . S
C325 C324 1.368 . S
C325 C326 1.386 . S
C325 H353 0.929 . S
C326 C325 1.386 . S
C326 C327 1.373 . S
C327 C326 1.373 . S
C327 C328 1.409 . S
C327 H354 0.931 . S
C328 C323 1.356 . S
C328 C327 1.409 . S
C328 H355 0.930 . S
C329 O342 1.270 . S
C329 O343 1.248 . S
C330 O344 1.267 . S
C330 O345 1.278 . S
C331 Pr321 2.880 . S
C331 C332 1.491 . S
C331 O346 1.254 . S
C331 O347 1.225 . S
C332 C331 1.491 . S
C332 C333 1.392 . S
C332 C337 1.356 . S
C333 C332 1.392 . S
C333 C334 1.368 . S
C333 H356 0.929 . S
C334 C333 1.368 . S
C334 C335 1.386 . S
C334 H357 0.929 . S
C335 C334 1.386 . S
C335 C336 1.373 . S
C336 C335 1.373 . S
C336 C337 1.409 . S
C336 H358 0.931 . S
C337 C332 1.356 . S
C337 C336 1.409 . S
C337 H359 0.930 . S
C338 O348 1.270 . S
C338 O349 1.248 . S
C339 O350 1.267 . S
C339 O351 1.278 . S
O340 Pr320 2.562 . S
O340 C322 1.254 . S
O341 Pr320 2.490 . S
O341 C322 1.225 . S
O342 Pr320 2.695 . S
O342 Pr321 2.436 . S
O342 C329 1.270 . S
O343 Pr320 2.512 . S
O343 C329 1.248 . S
O344 Pr321 2.438 . S
O344 C330 1.267 . S
O345 Pr320 2.437 . S
O345 C330 1.278 . S
O346 Pr321 2.562 . S
O346 C331 1.254 . S
O347 Pr321 2.490 . S
O347 C331 1.225 . S
O348 Pr320 2.436 . S
O348 Pr321 2.695 . S
O348 C338 1.270 . S
O349 Pr321 2.512 . S
O349 C338 1.248 . S
O350 Pr320 2.438 . S
O350 C339 1.267 . S
O351 Pr321 2.437 . S
O351 C339 1.278 . S
H352 C324 0.929 . S
H353 C325 0.929 . S
H354 C327 0.931 . S
H355 C328 0.930 . S
H356 C333 0.929 . S
H357 C334 0.929 . S
H358 C336 0.931 . S
H359 C337 0.930 . S
Pr360 C362 2.880 . S
Pr360 O380 2.562 . S
Pr360 O381 2.490 . S
Pr360 O382 2.695 . S
Pr360 O383 2.512 . S
Pr360 O385 2.437 . S
Pr360 O388 2.436 . S
Pr360 O390 2.438 . S
Pr361 C371 2.880 . S
Pr361 O382 2.436 . S
Pr361 O384 2.438 . S
Pr361 O386 2.562 . S
Pr361 O387 2.490 . S
Pr361 O388 2.695 . S
Pr361 O389 2.512 . S
Pr361 O391 2.437 . S
C362 Pr360 2.880 . S
C362 C363 1.491 . S
C362 O380 1.254 . S
C362 O381 1.225 . S
C363 C362 1.491 . S
C363 C364 1.392 . S
C363 C368 1.356 . S
C364 C363 1.392 . S
C364 C365 1.368 . S
C364 H392 0.929 . S
C365 C364 1.368 . S
C365 C366 1.386 . S
C365 H393 0.929 . S
C366 C365 1.386 . S
C366 C367 1.373 . S
C367 C366 1.373 . S
C367 C368 1.409 . S
C367 H394 0.931 . S
C368 C363 1.356 . S
C368 C367 1.409 . S
C368 H395 0.930 . S
C369 O382 1.270 . S
C369 O383 1.248 . S
C370 O384 1.267 . S
C370 O385 1.278 . S
C371 Pr361 2.880 . S
C371 C372 1.491 . S
C371 O386 1.254 . S
C371 O387 1.225 . S
C372 C371 1.491 . S
C372 C373 1.392 . S
C372 C377 1.356 . S
C373 C372 1.392 . S
C373 C374 1.368 1_554 S
C373 H396 0.929 . S
C374 C373 1.368 1_556 S
C374 C375 1.386 . S
C374 H397 0.929 . S
C375 C374 1.386 . S
C375 C376 1.373 . S
C376 C375 1.373 . S
C376 C377 1.409 1_556 S
C376 H398 0.931 . S
C377 C372 1.356 . S
C377 C376 1.409 1_554 S
C377 H399 0.930 . S
C378 O388 1.270 . S
C378 O389 1.248 . S
C379 O390 1.267 . S
C379 O391 1.278 . S
O380 Pr360 2.562 . S
O380 C362 1.254 . S
O381 Pr360 2.490 . S
O381 C362 1.225 . S
O382 Pr360 2.695 . S
O382 Pr361 2.436 . S
O382 C369 1.270 . S
O383 Pr360 2.512 . S
O383 C369 1.248 . S
O384 Pr361 2.438 . S
O384 C370 1.267 . S
O385 Pr360 2.437 . S
O385 C370 1.278 . S
O386 Pr361 2.562 . S
O386 C371 1.254 . S
O387 Pr361 2.490 . S
O387 C371 1.225 . S
O388 Pr360 2.436 . S
O388 Pr361 2.695 . S
O388 C378 1.270 . S
O389 Pr361 2.512 . S
O389 C378 1.248 . S
O390 Pr360 2.438 . S
O390 C379 1.267 . S
O391 Pr361 2.437 . S
O391 C379 1.278 . S
H392 C364 0.929 . S
H393 C365 0.929 . S
H394 C367 0.931 . S
H395 C368 0.930 . S
H396 C373 0.929 . S
H397 C374 0.929 . S
H398 C376 0.931 . S
H399 C377 0.930 . S
Pr400 C402 2.880 . S
Pr400 O420 2.562 . S
Pr400 O421 2.490 . S
Pr400 O422 2.695 . S
Pr400 O423 2.512 . S
Pr400 O425 2.437 . S
Pr400 O428 2.436 . S
Pr400 O430 2.438 . S
Pr401 C411 2.880 . S
Pr401 O422 2.436 . S
Pr401 O424 2.438 . S
Pr401 O426 2.562 . S
Pr401 O427 2.490 . S
Pr401 O428 2.695 . S
Pr401 O429 2.512 . S
Pr401 O431 2.437 . S
C402 Pr400 2.880 . S
C402 C403 1.491 . S
C402 O420 1.254 . S
C402 O421 1.225 . S
C403 C402 1.491 . S
C403 C404 1.392 . S
C403 C408 1.356 1_556 S
C404 C403 1.392 . S
C404 C405 1.368 1_556 S
C404 H432 0.929 . S
C405 C404 1.368 1_554 S
C405 C406 1.386 . S
C405 H433 0.929 . S
C406 C405 1.386 . S
C406 C407 1.373 . S
C407 C406 1.373 . S
C407 C408 1.409 . S
C407 H434 0.931 . S
C408 C403 1.356 1_554 S
C408 C407 1.409 . S
C408 H435 0.930 . S
C409 O422 1.270 . S
C409 O423 1.248 . S
C410 O424 1.267 . S
C410 O425 1.278 . S
C411 Pr401 2.880 . S
C411 C412 1.491 . S
C411 O426 1.254 . S
C411 O427 1.225 . S
C412 C411 1.491 . S
C412 C413 1.392 . S
C412 C417 1.356 . S
C413 C412 1.392 . S
C413 C414 1.368 . S
C413 H436 0.929 . S
C414 C413 1.368 . S
C414 C415 1.386 . S
C414 H437 0.929 . S
C415 C414 1.386 . S
C415 C416 1.373 . S
C416 C415 1.373 . S
C416 C417 1.409 . S
C416 H438 0.931 . S
C417 C412 1.356 . S
C417 C416 1.409 . S
C417 H439 0.930 . S
C418 O428 1.270 . S
C418 O429 1.248 . S
C419 O430 1.267 . S
C419 O431 1.278 . S
O420 Pr400 2.562 . S
O420 C402 1.254 . S
O421 Pr400 2.490 . S
O421 C402 1.225 . S
O422 Pr400 2.695 . S
O422 Pr401 2.436 . S
O422 C409 1.270 . S
O423 Pr400 2.512 . S
O423 C409 1.248 . S
O424 Pr401 2.438 . S
O424 C410 1.267 . S
O425 Pr400 2.437 . S
O425 C410 1.278 . S
O426 Pr401 2.562 . S
O426 C411 1.254 . S
O427 Pr401 2.490 . S
O427 C411 1.225 . S
O428 Pr400 2.436 . S
O428 Pr401 2.695 . S
O428 C418 1.270 . S
O429 Pr401 2.512 . S
O429 C418 1.248 . S
O430 Pr400 2.438 . S
O430 C419 1.267 . S
O431 Pr401 2.437 . S
O431 C419 1.278 . S
H432 C404 0.929 . S
H433 C405 0.929 . S
H434 C407 0.931 . S
H435 C408 0.930 . S
H436 C413 0.929 . S
H437 C414 0.929 . S
H438 C416 0.931 . S
H439 C417 0.930 . S
Pr440 C442 2.880 . S
Pr440 O460 2.562 . S
Pr440 O461 2.490 . S
Pr440 O462 2.695 . S
Pr440 O463 2.512 . S
Pr440 O465 2.437 . S
Pr440 O468 2.436 . S
Pr440 O470 2.438 . S
Pr441 C451 2.880 . S
Pr441 O462 2.436 . S
Pr441 O464 2.438 . S
Pr441 O466 2.562 . S
Pr441 O467 2.490 . S
Pr441 O468 2.695 . S
Pr441 O469 2.512 . S
Pr441 O471 2.437 . S
C442 Pr440 2.880 . S
C442 C443 1.491 . S
C442 O460 1.254 . S
C442 O461 1.225 . S
C443 C442 1.491 . S
C443 C444 1.392 . S
C443 C448 1.356 . S
C444 C443 1.392 . S
C444 C445 1.368 . S
C444 H472 0.929 . S
C445 C444 1.368 . S
C445 C446 1.386 . S
C445 H473 0.929 . S
C446 C445 1.386 . S
C446 C447 1.373 . S
C447 C446 1.373 . S
C447 C448 1.409 . S
C447 H474 0.931 . S
C448 C443 1.356 . S
C448 C447 1.409 . S
C448 H475 0.930 . S
C449 O462 1.270 . S
C449 O463 1.248 . S
C450 O464 1.267 . S
C450 O465 1.278 . S
C451 Pr441 2.880 . S
C451 C452 1.491 . S
C451 O466 1.254 . S
C451 O467 1.225 . S
C452 C451 1.491 . S
C452 C453 1.392 . S
C452 C457 1.356 . S
C453 C452 1.392 . S
C453 C454 1.368 . S
C453 H476 0.929 . S
C454 C453 1.368 . S
C454 C455 1.386 . S
C454 H477 0.929 . S
C455 C454 1.386 . S
C455 C456 1.373 . S
C456 C455 1.373 . S
C456 C457 1.409 . S
C456 H478 0.931 . S
C457 C452 1.356 . S
C457 C456 1.409 . S
C457 H479 0.930 . S
C458 O468 1.270 . S
C458 O469 1.248 . S
C459 O470 1.267 . S
C459 O471 1.278 . S
O460 Pr440 2.562 . S
O460 C442 1.254 . S
O461 Pr440 2.490 . S
O461 C442 1.225 . S
O462 Pr440 2.695 . S
O462 Pr441 2.436 . S
O462 C449 1.270 . S
O463 Pr440 2.512 . S
O463 C449 1.248 . S
O464 Pr441 2.438 . S
O464 C450 1.267 . S
O465 Pr440 2.437 . S
O465 C450 1.278 . S
O466 Pr441 2.562 . S
O466 C451 1.254 . S
O467 Pr441 2.490 . S
O467 C451 1.225 . S
O468 Pr440 2.436 . S
O468 Pr441 2.695 . S
O468 C458 1.270 . S
O469 Pr441 2.512 . S
O469 C458 1.248 . S
O470 Pr440 2.438 . S
O470 C459 1.267 . S
O471 Pr441 2.437 . S
O471 C459 1.278 . S
H472 C444 0.929 . S
H473 C445 0.929 . S
H474 C447 0.931 . S
H475 C448 0.930 . S
H476 C453 0.929 . S
H477 C454 0.929 . S
H478 C456 0.931 . S
H479 C457 0.930 . S
Pr480 C482 2.880 . S
Pr480 O500 2.562 . S
Pr480 O501 2.490 . S
Pr480 O502 2.695 . S
Pr480 O503 2.512 . S
Pr480 O505 2.437 . S
Pr480 O508 2.436 . S
Pr480 O510 2.438 . S
Pr481 C491 2.880 . S
Pr481 O502 2.436 . S
Pr481 O504 2.438 . S
Pr481 O506 2.562 . S
Pr481 O507 2.490 . S
Pr481 O508 2.695 . S
Pr481 O509 2.512 . S
Pr481 O511 2.437 . S
C482 Pr480 2.880 . S
C482 C483 1.491 . S
C482 O500 1.254 . S
C482 O501 1.225 . S
C483 C482 1.491 . S
C483 C484 1.392 . S
C483 C488 1.356 . S
C484 C483 1.392 . S
C484 C485 1.368 . S
C484 H512 0.929 . S
C485 C484 1.368 . S
C485 C486 1.386 . S
C485 H513 0.929 . S
C486 C485 1.386 . S
C486 C487 1.373 . S
C487 C486 1.373 . S
C487 C488 1.409 . S
C487 H514 0.931 . S
C488 C483 1.356 . S
C488 C487 1.409 . S
C488 H515 0.930 . S
C489 O502 1.270 . S
C489 O503 1.248 . S
C490 O504 1.267 . S
C490 O505 1.278 . S
C491 Pr481 2.880 . S
C491 C492 1.491 . S
C491 O506 1.254 . S
C491 O507 1.225 . S
C492 C491 1.491 . S
C492 C493 1.392 . S
C492 C497 1.356 . S
C493 C492 1.392 . S
C493 C494 1.368 . S
C493 H516 0.929 . S
C494 C493 1.368 . S
C494 C495 1.386 . S
C494 H517 0.929 . S
C495 C494 1.386 . S
C495 C496 1.373 . S
C496 C495 1.373 . S
C496 C497 1.409 . S
C496 H518 0.931 . S
C497 C492 1.356 . S
C497 C496 1.409 . S
C497 H519 0.930 . S
C498 O508 1.270 . S
C498 O509 1.248 . S
C499 O510 1.267 . S
C499 O511 1.278 . S
O500 Pr480 2.562 . S
O500 C482 1.254 . S
O501 Pr480 2.490 . S
O501 C482 1.225 . S
O502 Pr480 2.695 . S
O502 Pr481 2.436 . S
O502 C489 1.270 . S
O503 Pr480 2.512 . S
O503 C489 1.248 . S
O504 Pr481 2.438 . S
O504 C490 1.267 . S
O505 Pr480 2.437 . S
O505 C490 1.278 . S
O506 Pr481 2.562 . S
O506 C491 1.254 . S
O507 Pr481 2.490 . S
O507 C491 1.225 . S
O508 Pr480 2.436 . S
O508 Pr481 2.695 . S
O508 C498 1.270 . S
O509 Pr481 2.512 . S
O509 C498 1.248 . S
O510 Pr480 2.438 . S
O510 C499 1.267 . S
O511 Pr481 2.437 . S
O511 C499 1.278 . S
H512 C484 0.929 . S
H513 C485 0.929 . S
H514 C487 0.931 . S
H515 C488 0.930 . S
H516 C493 0.929 . S
H517 C494 0.929 . S
H518 C496 0.931 . S
H519 C497 0.930 . S
Pr520 C522 2.880 . S
Pr520 O540 2.562 . S
Pr520 O541 2.490 . S
Pr520 O542 2.695 1_655 S
Pr520 O543 2.512 1_655 S
Pr520 O545 2.437 1_655 S
Pr520 O548 2.436 1_655 S
Pr520 O550 2.438 . S
Pr521 C531 2.880 . S
Pr521 O542 2.436 . S
Pr521 O544 2.438 . S
Pr521 O546 2.562 . S
Pr521 O547 2.490 . S
Pr521 O548 2.695 . S
Pr521 O549 2.512 . S
Pr521 O551 2.437 . S
C522 Pr520 2.880 . S
C522 C523 1.491 1_554 S
C522 O540 1.254 . S
C522 O541 1.225 . S
C523 C522 1.491 1_556 S
C523 C524 1.392 . S
C523 C528 1.356 . S
C524 C523 1.392 . S
C524 C525 1.368 . S
C524 H552 0.929 . S
C525 C524 1.368 . S
C525 C526 1.386 . S
C525 H553 0.929 . S
C526 C525 1.386 . S
C526 C527 1.373 . S
C527 C526 1.373 . S
C527 C528 1.409 . S
C527 H554 0.931 . S
C528 C523 1.356 . S
C528 C527 1.409 . S
C528 H555 0.930 . S
C529 O542 1.270 . S
C529 O543 1.250 . S
C530 O544 1.267 . S
C530 O545 1.278 . S
C531 Pr521 2.880 . S
C531 C532 1.491 . S
C531 O546 1.254 . S
C531 O547 1.225 . S
C532 C531 1.491 . S
C532 C533 1.392 . S
C532 C537 1.356 . S
C533 C532 1.392 . S
C533 C534 1.368 . S
C533 H556 0.929 . S
C534 C533 1.368 . S
C534 C535 1.386 . S
C534 H557 0.929 . S
C535 C534 1.386 . S
C535 C536 1.373 . S
C536 C535 1.373 . S
C536 C537 1.409 . S
C536 H558 0.931 . S
C537 C532 1.356 . S
C537 C536 1.409 . S
C537 H559 0.930 . S
C538 O548 1.270 . S
C538 O549 1.248 . S
C539 O550 1.267 . S
C539 O551 1.278 1_655 S
O540 Pr520 2.562 . S
O540 C522 1.254 . S
O541 Pr520 2.490 . S
O541 C522 1.225 . S
O542 Pr520 2.695 1_455 S
O542 Pr521 2.436 . S
O542 C529 1.270 . S
O543 Pr520 2.512 1_455 S
O543 C529 1.250 . S
O544 Pr521 2.438 . S
O544 C530 1.267 . S
O545 Pr520 2.437 1_455 S
O545 C530 1.278 . S
O546 Pr521 2.562 . S
O546 C531 1.254 . S
O547 Pr521 2.490 . S
O547 C531 1.225 . S
O548 Pr520 2.436 1_455 S
O548 Pr521 2.695 . S
O548 C538 1.270 . S
O549 Pr521 2.512 . S
O549 C538 1.248 . S
O550 Pr520 2.438 . S
O550 C539 1.267 . S
O551 Pr521 2.437 . S
O551 C539 1.278 1_455 S
H552 C524 0.929 . S
H553 C525 0.929 . S
H554 C527 0.931 . S
H555 C528 0.930 . S
H556 C533 0.929 . S
H557 C534 0.929 . S
H558 C536 0.931 . S
H559 C537 0.930 . S
Pr560 C562 2.880 . S
Pr560 O580 2.562 . S
Pr560 O581 2.490 . S
Pr560 O582 2.695 . S
Pr560 O583 2.512 . S
Pr560 O585 2.437 . S
Pr560 O588 2.436 . S
Pr560 O590 2.438 . S
Pr561 C571 2.880 . S
Pr561 O582 2.436 . S
Pr561 O584 2.438 . S
Pr561 O586 2.562 . S
Pr561 O587 2.490 . S
Pr561 O588 2.695 . S
Pr561 O589 2.512 . S
Pr561 O591 2.437 . S
C562 Pr560 2.880 . S
C562 C563 1.491 . S
C562 O580 1.254 . S
C562 O581 1.225 . S
C563 C562 1.491 . S
C563 C564 1.392 . S
C563 C568 1.356 . S
C564 C563 1.392 . S
C564 C565 1.368 . S
C564 H592 0.929 . S
C565 C564 1.368 . S
C565 C566 1.386 . S
C565 H593 0.929 . S
C566 C565 1.386 . S
C566 C567 1.373 . S
C567 C566 1.373 . S
C567 C568 1.409 . S
C567 H594 0.931 . S
C568 C563 1.356 . S
C568 C567 1.409 . S
C568 H595 0.930 . S
C569 O582 1.270 . S
C569 O583 1.248 . S
C570 O584 1.267 . S
C570 O585 1.278 . S
C571 Pr561 2.880 . S
C571 C572 1.491 . S
C571 O586 1.254 . S
C571 O587 1.225 . S
C572 C571 1.491 . S
C572 C573 1.392 . S
C572 C577 1.356 . S
C573 C572 1.392 . S
C573 C574 1.368 . S
C573 H596 0.929 . S
C574 C573 1.368 . S
C574 C575 1.386 . S
C574 H597 0.929 . S
C575 C574 1.386 . S
C575 C576 1.373 . S
C576 C575 1.373 . S
C576 C577 1.409 . S
C576 H598 0.931 . S
C577 C572 1.356 . S
C577 C576 1.409 . S
C577 H599 0.930 . S
C578 O588 1.270 . S
C578 O589 1.248 . S
C579 O590 1.267 . S
C579 O591 1.278 . S
O580 Pr560 2.562 . S
O580 C562 1.254 . S
O581 Pr560 2.490 . S
O581 C562 1.225 . S
O582 Pr560 2.695 . S
O582 Pr561 2.436 . S
O582 C569 1.270 . S
O583 Pr560 2.512 . S
O583 C569 1.248 . S
O584 Pr561 2.438 . S
O584 C570 1.267 . S
O585 Pr560 2.437 . S
O585 C570 1.278 . S
O586 Pr561 2.562 . S
O586 C571 1.254 . S
O587 Pr561 2.490 . S
O587 C571 1.225 . S
O588 Pr560 2.436 . S
O588 Pr561 2.695 . S
O588 C578 1.270 . S
O589 Pr561 2.512 . S
O589 C578 1.248 . S
O590 Pr560 2.438 . S
O590 C579 1.267 . S
O591 Pr561 2.437 . S
O591 C579 1.278 . S
H592 C564 0.929 . S
H593 C565 0.929 . S
H594 C567 0.931 . S
H595 C568 0.930 . S
H596 C573 0.929 . S
H597 C574 0.929 . S
H598 C576 0.931 . S
H599 C577 0.930 . S
Pr600 C602 2.880 . S
Pr600 O620 2.562 . S
Pr600 O621 2.490 . S
Pr600 O622 2.695 1_655 S
Pr600 O623 2.512 . S
Pr600 O625 2.437 1_655 S
Pr600 O628 2.436 1_655 S
Pr600 O630 2.438 . S
Pr601 C611 2.880 . S
Pr601 O622 2.436 . S
Pr601 O624 2.438 . S
Pr601 O626 2.562 . S
Pr601 O627 2.490 . S
Pr601 O628 2.695 . S
Pr601 O629 2.512 . S
Pr601 O631 2.437 . S
C602 Pr600 2.880 . S
C602 C603 1.491 1_556 S
C602 O620 1.254 . S
C602 O621 1.225 . S
C603 C602 1.491 1_554 S
C603 C604 1.392 . S
C603 C608 1.356 . S
C604 C603 1.392 . S
C604 C605 1.368 . S
C604 H632 0.929 . S
C605 C604 1.368 . S
C605 C606 1.386 . S
C605 H633 0.929 . S
C606 C605 1.386 . S
C606 C607 1.373 . S
C607 C606 1.373 . S
C607 C608 1.409 . S
C607 H634 0.931 . S
C608 C603 1.356 . S
C608 C607 1.409 . S
C608 H635 0.930 . S
C609 O622 1.270 . S
C609 O623 1.248 1_455 S
C610 O624 1.267 . S
C610 O625 1.278 . S
C611 Pr601 2.880 . S
C611 C612 1.491 . S
C611 O626 1.254 . S
C611 O627 1.225 . S
C612 C611 1.491 . S
C612 C613 1.392 . S
C612 C617 1.356 . S
C613 C612 1.392 . S
C613 C614 1.368 . S
C613 H636 0.929 . S
C614 C613 1.368 . S
C614 C615 1.386 . S
C614 H637 0.929 . S
C615 C614 1.386 . S
C615 C616 1.373 . S
C616 C615 1.373 . S
C616 C617 1.409 . S
C616 H638 0.931 . S
C617 C612 1.356 . S
C617 C616 1.409 . S
C617 H639 0.930 . S
C618 O628 1.270 . S
C618 O629 1.248 . S
C619 O630 1.267 . S
C619 O631 1.278 1_655 S
O620 Pr600 2.562 . S
O620 C602 1.254 . S
O621 Pr600 2.490 . S
O621 C602 1.225 . S
O622 Pr600 2.695 1_455 S
O622 Pr601 2.436 . S
O622 C609 1.270 . S
O623 Pr600 2.512 . S
O623 C609 1.248 1_655 S
O624 Pr601 2.438 . S
O624 C610 1.267 . S
O625 Pr600 2.437 1_455 S
O625 C610 1.278 . S
O626 Pr601 2.562 . S
O626 C611 1.254 . S
O627 Pr601 2.490 . S
O627 C611 1.225 . S
O628 Pr600 2.436 1_455 S
O628 Pr601 2.695 . S
O628 C618 1.270 . S
O629 Pr601 2.512 . S
O629 C618 1.248 . S
O630 Pr600 2.438 . S
O630 C619 1.267 . S
O631 Pr601 2.437 . S
O631 C619 1.278 1_455 S
H632 C604 0.929 . S
H633 C605 0.929 . S
H634 C607 0.931 . S
H635 C608 0.930 . S
H636 C613 0.929 . S
H637 C614 0.929 . S
H638 C616 0.931 . S
H639 C617 0.930 . S
H640 C652 0.930 . S
H641 C654 0.930 . S
H642 C655 0.930 . S
H643 C659 0.959 . S
H644 C659 0.959 . S
H645 C659 0.961 . S
H646 C660 0.960 . S
H647 C660 0.961 . S
H648 C660 0.959 . S
H649 C663 0.929 . S
H650 C664 0.931 . S
H651 C666 0.930 . S
C652 H640 0.930 . S
C652 C653 1.399 . S
C652 C657 1.399 1_554 S
C653 C652 1.399 . S
C653 C654 1.376 . S
C654 H641 0.930 . S
C654 C653 1.376 . S
C654 C655 1.388 . S
C655 H642 0.930 . S
C655 C654 1.388 . S
C655 C656 1.390 1_554 S
C656 C655 1.390 1_556 S
C656 C657 1.394 . S
C656 C662 1.465 . S
C657 C652 1.399 1_556 S
C657 C656 1.394 . S
C657 C658 1.516 . S
C658 C657 1.516 . S
C658 C659 1.502 . S
C658 C660 1.561 . S
C658 C661 1.526 . S
C659 H643 0.959 . S
C659 H644 0.959 . S
C659 H645 0.961 . S
C659 C658 1.502 . S
C660 H646 0.960 . S
C660 H647 0.961 . S
C660 H648 0.959 . S
C660 C658 1.561 . S
C661 C658 1.526 . S
C661 C662 1.396 . S
C661 C666 1.390 . S
C662 C656 1.465 . S
C662 C661 1.396 . S
C662 C663 1.399 . S
C663 H649 0.929 . S
C663 C662 1.399 . S
C663 C664 1.385 . S
C664 H650 0.931 . S
C664 C663 1.385 . S
C664 C665 1.389 . S
C665 C664 1.389 . S
C665 C666 1.387 . S
C666 H651 0.930 . S
C666 C661 1.390 . S
C666 C665 1.387 . S
H667 C679 0.930 . S
H668 C681 0.930 . S
H669 C682 0.930 . S
H670 C686 0.959 . S
H671 C686 0.959 . S
H672 C686 0.961 . S
H673 C687 0.960 . S
H674 C687 0.961 . S
H675 C687 0.959 . S
H676 C690 0.929 . S
H677 C691 0.931 . S
H678 C693 0.930 . S
C679 H667 0.930 . S
C679 C680 1.399 . S
C679 C684 1.399 . S
C680 C679 1.399 . S
C680 C681 1.376 . S
C681 H668 0.930 . S
C681 C680 1.376 . S
C681 C682 1.388 . S
C682 H669 0.930 . S
C682 C681 1.388 . S
C682 C683 1.390 . S
C683 C682 1.390 . S
C683 C684 1.394 . S
C683 C689 1.465 . S
C684 C679 1.399 . S
C684 C683 1.394 . S
C684 C685 1.516 . S
C685 C684 1.516 . S
C685 C686 1.502 . S
C685 C687 1.561 . S
C685 C688 1.526 . S
C686 H670 0.959 . S
C686 H671 0.959 . S
C686 H672 0.961 . S
C686 C685 1.502 . S
C687 H673 0.960 . S
C687 H674 0.961 . S
C687 H675 0.959 . S
C687 C685 1.561 . S
C688 C685 1.526 . S
C688 C689 1.396 . S
C688 C693 1.390 . S
C689 C683 1.465 . S
C689 C688 1.396 . S
C689 C690 1.399 . S
C690 H676 0.929 . S
C690 C689 1.399 . S
C690 C691 1.385 . S
C691 H677 0.931 . S
C691 C690 1.385 . S
C691 C692 1.389 . S
C692 C691 1.389 . S
C692 C693 1.387 . S
C693 H678 0.930 . S
C693 C688 1.390 . S
C693 C692 1.387 . S
H694 C706 0.930 . S
H695 C708 0.930 . S
H696 C709 0.930 . S
H697 C713 0.959 . S
H698 C713 0.959 . S
H699 C713 0.961 . S
H700 C714 0.960 . S
H701 C714 0.961 . S
H702 C714 0.959 . S
H703 C717 0.929 . S
H704 C718 0.931 . S
H705 C720 0.930 . S
C706 H694 0.930 . S
C706 C707 1.399 . S
C706 C711 1.399 . S
C707 C706 1.399 . S
C707 C708 1.376 . S
C708 H695 0.930 . S
C708 C707 1.376 . S
C708 C709 1.388 . S
C709 H696 0.930 . S
C709 C708 1.388 . S
C709 C710 1.390 . S
C710 C709 1.390 . S
C710 C711 1.394 . S
C710 C716 1.465 . S
C711 C706 1.399 . S
C711 C710 1.394 . S
C711 C712 1.516 . S
C712 C711 1.516 . S
C712 C713 1.502 . S
C712 C714 1.561 . S
C712 C715 1.526 . S
C713 H697 0.959 . S
C713 H698 0.959 . S
C713 H699 0.961 . S
C713 C712 1.502 . S
C714 H700 0.960 . S
C714 H701 0.961 . S
C714 H702 0.959 . S
C714 C712 1.561 . S
C715 C712 1.526 . S
C715 C716 1.396 . S
C715 C720 1.390 . S
C716 C710 1.465 . S
C716 C715 1.396 . S
C716 C717 1.399 . S
C717 H703 0.929 . S
C717 C716 1.399 . S
C717 C718 1.385 . S
C718 H704 0.931 . S
C718 C717 1.385 . S
C718 C719 1.389 . S
C719 C718 1.389 . S
C719 C720 1.387 . S
C720 H705 0.930 . S
C720 C715 1.390 . S
C720 C719 1.387 . S
H721 C733 0.930 . S
H722 C735 0.930 . S
H723 C736 0.930 . S
H724 C740 0.959 . S
H725 C740 0.959 . S
H726 C740 0.961 . S
H727 C741 0.960 . S
H728 C741 0.961 . S
H729 C741 0.959 . S
H730 C744 0.929 . S
H731 C745 0.931 . S
H732 C747 0.930 . S
C733 H721 0.930 . S
C733 C734 1.399 . S
C733 C738 1.399 . S
C734 C733 1.399 . S
C734 C735 1.376 . S
C735 H722 0.930 . S
C735 C734 1.376 . S
C735 C736 1.388 . S
C736 H723 0.930 . S
C736 C735 1.388 . S
C736 C737 1.390 . S
C737 C736 1.390 . S
C737 C738 1.394 . S
C737 C743 1.465 . S
C738 C733 1.399 . S
C738 C737 1.394 . S
C738 C739 1.516 . S
C739 C738 1.516 . S
C739 C740 1.502 . S
C739 C741 1.561 . S
C739 C742 1.526 . S
C740 H724 0.959 . S
C740 H725 0.959 . S
C740 H726 0.961 . S
C740 C739 1.502 . S
C741 H727 0.960 . S
C741 H728 0.961 . S
C741 H729 0.959 . S
C741 C739 1.561 . S
C742 C739 1.526 . S
C742 C743 1.396 . S
C742 C747 1.390 . S
C743 C737 1.465 . S
C743 C742 1.396 . S
C743 C744 1.399 . S
C744 H730 0.929 . S
C744 C743 1.399 . S
C744 C745 1.385 . S
C745 H731 0.931 . S
C745 C744 1.385 . S
C745 C746 1.389 . S
C746 C745 1.389 . S
C746 C747 1.387 . S
C747 H732 0.930 . S
C747 C742 1.390 . S
C747 C746 1.387 . S
H748 C760 0.930 . S
H749 C762 0.930 . S
H750 C763 0.930 . S
H751 C767 0.959 . S
H752 C767 0.959 . S
H753 C767 0.961 . S
H754 C768 0.960 . S
H755 C768 0.961 . S
H756 C768 0.959 . S
H757 C771 0.929 . S
H758 C772 0.931 . S
H759 C774 0.930 1_556 S
C760 H748 0.930 . S
C760 C761 1.399 . S
C760 C765 1.399 . S
C761 C760 1.399 . S
C761 C762 1.376 . S
C762 H749 0.930 . S
C762 C761 1.376 . S
C762 C763 1.388 . S
C763 H750 0.930 . S
C763 C762 1.388 . S
C763 C764 1.390 . S
C764 C763 1.390 . S
C764 C765 1.394 . S
C764 C770 1.465 . S
C765 C760 1.399 . S
C765 C764 1.394 . S
C765 C766 1.516 . S
C766 C765 1.516 . S
C766 C767 1.502 . S
C766 C768 1.561 . S
C766 C769 1.526 . S
C767 H751 0.959 . S
C767 H752 0.959 . S
C767 H753 0.961 . S
C767 C766 1.502 . S
C768 H754 0.960 . S
C768 H755 0.961 . S
C768 H756 0.959 . S
C768 C766 1.561 . S
C769 C766 1.526 . S
C769 C770 1.396 . S
C769 C774 1.390 . S
C770 C764 1.465 . S
C770 C769 1.396 . S
C770 C771 1.399 . S
C771 H757 0.929 . S
C771 C770 1.399 . S
C771 C772 1.385 1_554 S
C772 H758 0.931 . S
C772 C771 1.385 1_556 S
C772 C773 1.389 . S
C773 C772 1.389 . S
C773 C774 1.387 1_556 S
C774 H759 0.930 1_554 S
C774 C769 1.390 . S
C774 C773 1.387 1_554 S
H775 C787 0.930 . S
H776 C789 0.930 . S
H777 C790 0.930 . S
H778 C794 0.959 . S
H779 C794 0.959 . S
H780 C794 0.961 . S
H781 C795 0.960 . S
H782 C795 0.961 . S
H783 C795 0.959 . S
H784 C798 0.929 . S
H785 C799 0.931 . S
H786 C801 0.930 . S
C787 H775 0.930 . S
C787 C788 1.399 . S
C787 C792 1.399 . S
C788 C787 1.399 . S
C788 C789 1.376 . S
C789 H776 0.930 . S
C789 C788 1.376 . S
C789 C790 1.388 . S
C790 H777 0.930 . S
C790 C789 1.388 . S
C790 C791 1.390 . S
C791 C790 1.390 . S
C791 C792 1.394 . S
C791 C797 1.465 . S
C792 C787 1.399 . S
C792 C791 1.394 . S
C792 C793 1.516 . S
C793 C792 1.516 . S
C793 C794 1.502 . S
C793 C795 1.561 . S
C793 C796 1.526 . S
C794 H778 0.959 . S
C794 H779 0.959 . S
C794 H780 0.961 . S
C794 C793 1.502 . S
C795 H781 0.960 . S
C795 H782 0.961 . S
C795 H783 0.959 . S
C795 C793 1.561 . S
C796 C793 1.526 . S
C796 C797 1.396 . S
C796 C801 1.390 . S
C797 C791 1.465 . S
C797 C796 1.396 . S
C797 C798 1.399 . S
C798 H784 0.929 . S
C798 C797 1.399 . S
C798 C799 1.385 . S
C799 H785 0.931 . S
C799 C798 1.385 . S
C799 C800 1.389 . S
C800 C799 1.389 . S
C800 C801 1.387 . S
C801 H786 0.930 . S
C801 C796 1.390 . S
C801 C800 1.387 . S
H802 C814 0.930 . S
H803 C816 0.930 . S
H804 C817 0.930 . S
H805 C821 0.959 . S
H806 C821 0.959 . S
H807 C821 0.961 . S
H808 C822 0.960 . S
H809 C822 0.961 . S
H810 C822 0.959 . S
H811 C825 0.929 . S
H812 C826 0.931 . S
H813 C828 0.930 . S
C814 H802 0.930 . S
C814 C815 1.399 . S
C814 C819 1.399 . S
C815 C814 1.399 . S
C815 C816 1.376 . S
C816 H803 0.930 . S
C816 C815 1.376 . S
C816 C817 1.388 . S
C817 H804 0.930 . S
C817 C816 1.388 . S
C817 C818 1.390 . S
C818 C817 1.390 . S
C818 C819 1.394 . S
C818 C824 1.465 . S
C819 C814 1.399 . S
C819 C818 1.394 . S
C819 C820 1.516 . S
C820 C819 1.516 . S
C820 C821 1.502 . S
C820 C822 1.561 . S
C820 C823 1.526 . S
C821 H805 0.959 . S
C821 H806 0.959 . S
C821 H807 0.961 . S
C821 C820 1.502 . S
C822 H808 0.960 . S
C822 H809 0.961 . S
C822 H810 0.959 . S
C822 C820 1.561 . S
C823 C820 1.526 . S
C823 C824 1.396 . S
C823 C828 1.390 . S
C824 C818 1.465 . S
C824 C823 1.396 . S
C824 C825 1.399 . S
C825 H811 0.929 . S
C825 C824 1.399 . S
C825 C826 1.385 . S
C826 H812 0.931 . S
C826 C825 1.385 . S
C826 C827 1.389 . S
C827 C826 1.389 . S
C827 C828 1.387 . S
C828 H813 0.930 . S
C828 C823 1.390 . S
C828 C827 1.387 . S
H829 C841 0.930 . S
H830 C843 0.930 . S
H831 C844 0.930 . S
H832 C848 0.959 . S
H833 C848 0.959 . S
H834 C848 0.961 . S
H835 C849 0.960 . S
H836 C849 0.961 . S
H837 C849 0.959 . S
H838 C852 0.929 . S
H839 C853 0.931 . S
H840 C855 0.930 . S
C841 H829 0.930 . S
C841 C842 1.399 . S
C841 C846 1.399 . S
C842 C841 1.399 . S
C842 C843 1.376 . S
C843 H830 0.930 . S
C843 C842 1.376 . S
C843 C844 1.388 . S
C844 H831 0.930 . S
C844 C843 1.388 . S
C844 C845 1.390 . S
C845 C844 1.390 . S
C845 C846 1.394 . S
C845 C851 1.465 . S
C846 C841 1.399 . S
C846 C845 1.394 . S
C846 C847 1.516 . S
C847 C846 1.516 . S
C847 C848 1.502 . S
C847 C849 1.561 . S
C847 C850 1.526 . S
C848 H832 0.959 . S
C848 H833 0.959 . S
C848 H834 0.961 . S
C848 C847 1.502 . S
C849 H835 0.960 . S
C849 H836 0.961 . S
C849 H837 0.959 . S
C849 C847 1.561 . S
C850 C847 1.526 . S
C850 C851 1.396 . S
C850 C855 1.390 . S
C851 C845 1.465 . S
C851 C850 1.396 . S
C851 C852 1.399 . S
C852 H838 0.929 . S
C852 C851 1.399 . S
C852 C853 1.385 . S
C853 H839 0.931 . S
C853 C852 1.385 . S
C853 C854 1.389 . S
C854 C853 1.389 . S
C854 C855 1.387 . S
C855 H840 0.930 . S
C855 C850 1.390 . S
C855 C854 1.387 . S
H856 C868 0.930 . S
H857 C870 0.930 . S
H858 C871 0.930 . S
H859 C875 0.959 . S
H860 C875 0.959 . S
H861 C875 0.961 . S
H862 C876 0.960 . S
H863 C876 0.961 . S
H864 C876 0.959 . S
H865 C879 0.929 . S
H866 C880 0.931 . S
H867 C882 0.930 . S
C868 H856 0.930 . S
C868 C869 1.399 . S
C868 C873 1.399 . S
C869 C868 1.399 . S
C869 C870 1.376 . S
C870 H857 0.930 . S
C870 C869 1.376 . S
C870 C871 1.388 . S
C871 H858 0.930 . S
C871 C870 1.388 . S
C871 C872 1.390 . S
C872 C871 1.390 . S
C872 C873 1.394 . S
C872 C878 1.465 . S
C873 C868 1.399 . S
C873 C872 1.394 . S
C873 C874 1.516 . S
C874 C873 1.516 . S
C874 C875 1.502 . S
C874 C876 1.561 . S
C874 C877 1.526 . S
C875 H859 0.959 . S
C875 H860 0.959 . S
C875 H861 0.961 . S
C875 C874 1.502 . S
C876 H862 0.960 . S
C876 H863 0.961 . S
C876 H864 0.959 . S
C876 C874 1.561 . S
C877 C874 1.526 . S
C877 C878 1.396 . S
C877 C882 1.390 . S
C878 C872 1.465 . S
C878 C877 1.396 . S
C878 C879 1.399 . S
C879 H865 0.929 . S
C879 C878 1.399 . S
C879 C880 1.385 . S
C880 H866 0.931 . S
C880 C879 1.385 . S
C880 C881 1.389 . S
C881 C880 1.389 . S
C881 C882 1.387 . S
C882 H867 0.930 . S
C882 C877 1.390 . S
C882 C881 1.387 . S
H883 C895 0.930 . S
H884 C897 0.930 . S
H885 C898 0.930 . S
H886 C902 0.959 . S
H887 C902 0.959 . S
H888 C902 0.961 . S
H889 C903 0.960 . S
H890 C903 0.961 . S
H891 C903 0.959 . S
H892 C906 0.929 . S
H893 C907 0.931 . S
H894 C909 0.930 . S
C895 H883 0.930 . S
C895 C896 1.399 . S
C895 C900 1.399 . S
C896 C895 1.399 . S
C896 C897 1.376 . S
C897 H884 0.930 . S
C897 C896 1.376 . S
C897 C898 1.388 . S
C898 H885 0.930 . S
C898 C897 1.388 . S
C898 C899 1.390 . S
C899 C898 1.390 . S
C899 C900 1.394 . S
C899 C905 1.465 . S
C900 C895 1.399 . S
C900 C899 1.394 . S
C900 C901 1.516 . S
C901 C900 1.516 . S
C901 C902 1.502 . S
C901 C903 1.561 . S
C901 C904 1.526 . S
C902 H886 0.959 . S
C902 H887 0.959 . S
C902 H888 0.961 . S
C902 C901 1.502 . S
C903 H889 0.960 . S
C903 H890 0.961 . S
C903 H891 0.959 . S
C903 C901 1.561 . S
C904 C901 1.526 . S
C904 C905 1.396 . S
C904 C909 1.390 . S
C905 C899 1.465 . S
C905 C904 1.396 . S
C905 C906 1.399 . S
C906 H892 0.929 . S
C906 C905 1.399 . S
C906 C907 1.385 . S
C907 H893 0.931 . S
C907 C906 1.385 . S
C907 C908 1.389 . S
C908 C907 1.389 . S
C908 C909 1.387 . S
C909 H894 0.930 . S
C909 C904 1.390 . S
C909 C908 1.387 . S
H910 C922 0.930 . S
H911 C924 0.930 . S
H912 C925 0.930 . S
H913 C929 0.959 . S
H914 C929 0.959 . S
H915 C929 0.961 . S
H916 C930 0.960 . S
H917 C930 0.961 . S
H918 C930 0.959 . S
H919 C933 0.929 . S
H920 C934 0.931 . S
H921 C936 0.930 . S
C922 H910 0.930 . S
C922 C923 1.399 . S
C922 C927 1.399 . S
C923 C922 1.399 . S
C923 C924 1.376 . S
C924 H911 0.930 . S
C924 C923 1.376 . S
C924 C925 1.388 . S
C925 H912 0.930 . S
C925 C924 1.388 . S
C925 C926 1.390 . S
C926 C925 1.390 . S
C926 C927 1.394 . S
C926 C932 1.465 . S
C927 C922 1.399 . S
C927 C926 1.394 . S
C927 C928 1.516 . S
C928 C927 1.516 . S
C928 C929 1.502 . S
C928 C930 1.561 . S
C928 C931 1.526 . S
C929 H913 0.959 . S
C929 H914 0.959 . S
C929 H915 0.961 . S
C929 C928 1.502 . S
C930 H916 0.960 . S
C930 H917 0.961 . S
C930 H918 0.959 . S
C930 C928 1.561 . S
C931 C928 1.526 . S
C931 C932 1.396 . S
C931 C936 1.390 . S
C932 C926 1.465 . S
C932 C931 1.396 . S
C932 C933 1.399 . S
C933 H919 0.929 . S
C933 C932 1.399 . S
C933 C934 1.385 . S
C934 H920 0.931 . S
C934 C933 1.385 . S
C934 C935 1.389 . S
C935 C934 1.389 . S
C935 C936 1.387 . S
C936 H921 0.930 . S
C936 C931 1.390 . S
C936 C935 1.387 . S
H937 C949 0.930 . S
H938 C951 0.930 . S
H939 C952 0.930 . S
H940 C956 0.959 . S
H941 C956 0.959 . S
H942 C956 0.961 . S
H943 C957 0.960 . S
H944 C957 0.961 . S
H945 C957 0.959 . S
H946 C960 0.929 . S
H947 C961 0.931 . S
H948 C963 0.930 . S
C949 H937 0.930 . S
C949 C950 1.399 . S
C949 C954 1.399 . S
C950 C949 1.399 . S
C950 C951 1.376 . S
C951 H938 0.930 . S
C951 C950 1.376 . S
C951 C952 1.388 . S
C952 H939 0.930 . S
C952 C951 1.388 . S
C952 C953 1.390 . S
C953 C952 1.390 . S
C953 C954 1.394 . S
C953 C959 1.465 . S
C954 C949 1.399 . S
C954 C953 1.394 . S
C954 C955 1.516 . S
C955 C954 1.516 . S
C955 C956 1.502 . S
C955 C957 1.561 . S
C955 C958 1.526 . S
C956 H940 0.959 . S
C956 H941 0.959 . S
C956 H942 0.961 . S
C956 C955 1.502 . S
C957 H943 0.960 . S
C957 H944 0.961 . S
C957 H945 0.959 . S
C957 C955 1.561 . S
C958 C955 1.526 . S
C958 C959 1.396 . S
C958 C963 1.390 . S
C959 C953 1.465 . S
C959 C958 1.396 . S
C959 C960 1.399 . S
C960 H946 0.929 . S
C960 C959 1.399 . S
C960 C961 1.385 . S
C961 H947 0.931 . S
C961 C960 1.385 . S
C961 C962 1.389 . S
C962 C961 1.389 . S
C962 C963 1.387 . S
C963 H948 0.930 . S
C963 C958 1.390 . S
C963 C962 1.387 . S
H964 C976 0.930 . S
H965 C978 0.930 . S
H966 C979 0.930 . S
H967 C983 0.959 . S
H968 C983 0.959 . S
H969 C983 0.961 . S
H970 C984 0.960 . S
H971 C984 0.961 . S
H972 C984 0.959 . S
H973 C987 0.929 . S
H974 C988 0.931 . S
H975 C990 0.930 . S
C976 H964 0.930 . S
C976 C977 1.399 . S
C976 C981 1.399 . S
C977 C976 1.399 . S
C977 C978 1.376 . S
C978 H965 0.930 . S
C978 C977 1.376 . S
C978 C979 1.388 . S
C979 H966 0.930 . S
C979 C978 1.388 . S
C979 C980 1.390 . S
C980 C979 1.390 . S
C980 C981 1.394 . S
C980 C986 1.465 . S
C981 C976 1.399 . S
C981 C980 1.394 . S
C981 C982 1.516 . S
C982 C981 1.516 . S
C982 C983 1.502 . S
C982 C984 1.561 . S
C982 C985 1.526 . S
C983 H967 0.959 . S
C983 H968 0.959 . S
C983 H969 0.961 . S
C983 C982 1.502 . S
C984 H970 0.960 . S
C984 H971 0.961 . S
C984 H972 0.959 . S
C984 C982 1.561 . S
C985 C982 1.526 . S
C985 C986 1.396 . S
C985 C990 1.390 . S
C986 C980 1.465 . S
C986 C985 1.396 . S
C986 C987 1.399 . S
C987 H973 0.929 . S
C987 C986 1.399 . S
C987 C988 1.385 . S
C988 H974 0.931 . S
C988 C987 1.385 . S
C988 C989 1.389 . S
C989 C988 1.389 . S
C989 C990 1.387 . S
C990 H975 0.930 . S
C990 C985 1.390 . S
C990 C989 1.387 . S
H991 C1003 0.930 . S
H992 C1005 0.930 . S
H993 C1006 0.930 . S
H994 C1010 0.959 . S
H995 C1010 0.959 . S
H996 C1010 0.961 . S
H997 C1011 0.960 . S
H998 C1011 0.961 . S
H999 C1011 0.959 . S
H1000 C1014 0.929 . S
H1001 C1015 0.931 . S
H1002 C1017 0.930 . S
C1003 H991 0.930 . S
C1003 C1004 1.399 . S
C1003 C1008 1.399 . S
C1004 C1003 1.399 . S
C1004 C1005 1.376 . S
C1005 H992 0.930 . S
C1005 C1004 1.376 . S
C1005 C1006 1.388 . S
C1006 H993 0.930 . S
C1006 C1005 1.388 . S
C1006 C1007 1.390 . S
C1007 C1006 1.390 . S
C1007 C1008 1.394 . S
C1007 C1013 1.465 . S
C1008 C1003 1.399 . S
C1008 C1007 1.394 . S
C1008 C1009 1.516 . S
C1009 C1008 1.516 . S
C1009 C1010 1.502 . S
C1009 C1011 1.561 . S
C1009 C1012 1.526 . S
C1010 H994 0.959 . S
C1010 H995 0.959 . S
C1010 H996 0.961 . S
C1010 C1009 1.502 . S
C1011 H997 0.960 . S
C1011 H998 0.961 . S
C1011 H999 0.959 . S
C1011 C1009 1.561 . S
C1012 C1009 1.526 . S
C1012 C1013 1.396 . S
C1012 C1017 1.390 . S
C1013 C1007 1.465 . S
C1013 C1012 1.396 . S
C1013 C1014 1.399 . S
C1014 H1000 0.929 . S
C1014 C1013 1.399 . S
C1014 C1015 1.385 . S
C1015 H1001 0.931 . S
C1015 C1014 1.385 . S
C1015 C1016 1.389 . S
C1016 C1015 1.389 . S
C1016 C1017 1.387 . S
C1017 H1002 0.930 . S
C1017 C1012 1.390 . S
C1017 C1016 1.387 . S
H1018 C1030 0.930 . S
H1019 C1032 0.930 . S
H1020 C1033 0.930 . S
H1021 C1037 0.959 . S
H1022 C1037 0.959 . S
H1023 C1037 0.961 . S
H1024 C1038 0.960 . S
H1025 C1038 0.961 . S
H1026 C1038 0.959 . S
H1027 C1041 0.929 . S
H1028 C1042 0.931 . S
H1029 C1044 0.930 . S
C1030 H1018 0.930 . S
C1030 C1031 1.399 . S
C1030 C1035 1.399 . S
C1031 C1030 1.399 . S
C1031 C1032 1.376 . S
C1032 H1019 0.930 . S
C1032 C1031 1.376 . S
C1032 C1033 1.388 . S
C1033 H1020 0.930 . S
C1033 C1032 1.388 . S
C1033 C1034 1.390 . S
C1034 C1033 1.390 . S
C1034 C1035 1.394 . S
C1034 C1040 1.465 . S
C1035 C1030 1.399 . S
C1035 C1034 1.394 . S
C1035 C1036 1.516 . S
C1036 C1035 1.516 . S
C1036 C1037 1.502 . S
C1036 C1038 1.561 . S
C1036 C1039 1.526 . S
C1037 H1021 0.959 . S
C1037 H1022 0.959 . S
C1037 H1023 0.961 . S
C1037 C1036 1.502 . S
C1038 H1024 0.960 . S
C1038 H1025 0.961 . S
C1038 H1026 0.959 . S
C1038 C1036 1.561 . S
C1039 C1036 1.526 . S
C1039 C1040 1.396 . S
C1039 C1044 1.390 1_554 S
C1040 C1034 1.465 . S
C1040 C1039 1.396 . S
C1040 C1041 1.399 1_554 S
C1041 H1027 0.929 . S
C1041 C1040 1.399 1_556 S
C1041 C1042 1.385 . S
C1042 H1028 0.931 . S
C1042 C1041 1.385 . S
C1042 C1043 1.389 . S
C1043 C1042 1.389 . S
C1043 C1044 1.387 . S
C1044 H1029 0.930 . S
C1044 C1039 1.390 1_556 S
C1044 C1043 1.387 . S
H1045 C1057 0.930 . S
H1046 C1059 0.930 . S
H1047 C1060 0.930 . S
H1048 C1064 0.959 . S
H1049 C1064 0.959 . S
H1050 C1064 0.961 . S
H1051 C1065 0.960 . S
H1052 C1065 0.961 . S
H1053 C1065 0.959 . S
H1054 C1068 0.929 . S
H1055 C1069 0.931 . S
H1056 C1071 0.930 . S
C1057 H1045 0.930 . S
C1057 C1058 1.399 . S
C1057 C1062 1.399 . S
C1058 C1057 1.399 . S
C1058 C1059 1.376 . S
C1059 H1046 0.930 . S
C1059 C1058 1.376 . S
C1059 C1060 1.388 . S
C1060 H1047 0.930 . S
C1060 C1059 1.388 . S
C1060 C1061 1.390 . S
C1061 C1060 1.390 . S
C1061 C1062 1.394 . S
C1061 C1067 1.465 . S
C1062 C1057 1.399 . S
C1062 C1061 1.394 . S
C1062 C1063 1.516 . S
C1063 C1062 1.516 . S
C1063 C1064 1.502 . S
C1063 C1065 1.561 . S
C1063 C1066 1.526 . S
C1064 H1048 0.959 . S
C1064 H1049 0.959 . S
C1064 H1050 0.961 . S
C1064 C1063 1.502 . S
C1065 H1051 0.960 . S
C1065 H1052 0.961 . S
C1065 H1053 0.959 . S
C1065 C1063 1.561 . S
C1066 C1063 1.526 . S
C1066 C1067 1.396 . S
C1066 C1071 1.390 . S
C1067 C1061 1.465 . S
C1067 C1066 1.396 . S
C1067 C1068 1.399 . S
C1068 H1054 0.929 . S
C1068 C1067 1.399 . S
C1068 C1069 1.385 . S
C1069 H1055 0.931 . S
C1069 C1068 1.385 . S
C1069 C1070 1.389 . S
C1070 C1069 1.389 . S
C1070 C1071 1.387 . S
C1071 H1056 0.930 . S
C1071 C1066 1.390 . S
C1071 C1070 1.387 . S
H1072 C1084 0.930 . S
H1073 C1086 0.930 . S
H1074 C1087 0.930 . S
H1075 C1091 0.959 . S
H1076 C1091 0.959 . S
H1077 C1091 0.961 . S
H1078 C1092 0.960 . S
H1079 C1092 0.961 . S
H1080 C1092 0.959 . S
H1081 C1095 0.929 . S
H1082 C1096 0.931 . S
H1083 C1098 0.930 . S
C1084 H1072 0.930 . S
C1084 C1085 1.399 . S
C1084 C1089 1.399 . S
C1085 C1084 1.399 . S
C1085 C1086 1.376 . S
C1086 H1073 0.930 . S
C1086 C1085 1.376 . S
C1086 C1087 1.388 . S
C1087 H1074 0.930 . S
C1087 C1086 1.388 . S
C1087 C1088 1.390 . S
C1088 C1087 1.390 . S
C1088 C1089 1.394 . S
C1088 C1094 1.465 . S
C1089 C1084 1.399 . S
C1089 C1088 1.394 . S
C1089 C1090 1.516 . S
C1090 C1089 1.516 . S
C1090 C1091 1.502 1_455 S
C1090 C1092 1.561 . S
C1090 C1093 1.526 . S
C1091 H1075 0.959 . S
C1091 H1076 0.959 . S
C1091 H1077 0.961 . S
C1091 C1090 1.502 1_655 S
C1092 H1078 0.960 . S
C1092 H1079 0.961 . S
C1092 H1080 0.959 . S
C1092 C1090 1.561 . S
C1093 C1090 1.526 . S
C1093 C1094 1.396 . S
C1093 C1098 1.390 . S
C1094 C1088 1.465 . S
C1094 C1093 1.396 . S
C1094 C1095 1.399 . S
C1095 H1081 0.929 . S
C1095 C1094 1.399 . S
C1095 C1096 1.385 . S
C1096 H1082 0.931 . S
C1096 C1095 1.385 . S
C1096 C1097 1.389 . S
C1097 C1096 1.389 . S
C1097 C1098 1.387 . S
C1098 H1083 0.930 . S
C1098 C1093 1.390 . S
C1098 C1097 1.387 . S
H1099 C1111 0.930 . S
H1100 C1113 0.930 . S
H1101 C1114 0.930 . S
H1102 C1118 0.959 . S
H1103 C1118 0.959 . S
H1104 C1118 0.961 1_655 S
H1105 C1119 0.960 1_655 S
H1106 C1119 0.961 . S
H1107 C1119 0.959 . S
H1108 C1122 0.929 . S
H1109 C1123 0.931 . S
H1110 C1125 0.930 . S
C1111 H1099 0.930 . S
C1111 C1112 1.399 . S
C1111 C1116 1.399 . S
C1112 C1111 1.399 . S
C1112 C1113 1.376 . S
C1113 H1100 0.930 . S
C1113 C1112 1.376 . S
C1113 C1114 1.388 . S
C1114 H1101 0.930 . S
C1114 C1113 1.388 . S
C1114 C1115 1.390 . S
C1115 C1114 1.390 . S
C1115 C1116 1.394 . S
C1115 C1121 1.465 1_655 S
C1116 C1111 1.399 . S
C1116 C1115 1.394 . S
C1116 C1117 1.516 1_655 S
C1117 C1116 1.516 1_455 S
C1117 C1118 1.502 . S
C1117 C1119 1.561 . S
C1117 C1120 1.526 . S
C1118 H1102 0.959 . S
C1118 H1103 0.959 . S
C1118 H1104 0.961 1_455 S
C1118 C1117 1.502 . S
C1119 H1105 0.960 1_455 S
C1119 H1106 0.961 . S
C1119 H1107 0.959 . S
C1119 C1117 1.561 . S
C1120 C1117 1.526 . S
C1120 C1121 1.396 . S
C1120 C1125 1.390 . S
C1121 C1115 1.465 1_455 S
C1121 C1120 1.396 . S
C1121 C1122 1.399 . S
C1122 H1108 0.929 . S
C1122 C1121 1.399 . S
C1122 C1123 1.385 . S
C1123 H1109 0.931 . S
C1123 C1122 1.385 . S
C1123 C1124 1.389 . S
C1124 C1123 1.389 . S
C1124 C1125 1.387 . S
C1125 H1110 0.930 . S
C1125 C1120 1.390 . S
C1125 C1124 1.387 . S
H1126 C1138 0.930 . S
H1127 C1140 0.930 . S
H1128 C1141 0.930 . S
H1129 C1145 0.959 . S
H1130 C1145 0.959 . S
H1131 C1145 0.961 . S
H1132 C1146 0.960 . S
H1133 C1146 0.961 . S
H1134 C1146 0.959 . S
H1135 C1149 0.929 . S
H1136 C1150 0.931 . S
H1137 C1152 0.930 . S
C1138 H1126 0.930 . S
C1138 C1139 1.399 . S
C1138 C1143 1.399 . S
C1139 C1138 1.399 . S
C1139 C1140 1.376 . S
C1140 H1127 0.930 . S
C1140 C1139 1.376 . S
C1140 C1141 1.388 . S
C1141 H1128 0.930 . S
C1141 C1140 1.388 . S
C1141 C1142 1.390 . S
C1142 C1141 1.390 . S
C1142 C1143 1.394 . S
C1142 C1148 1.465 . S
C1143 C1138 1.399 . S
C1143 C1142 1.394 . S
C1143 C1144 1.516 . S
C1144 C1143 1.516 . S
C1144 C1145 1.502 . S
C1144 C1146 1.561 . S
C1144 C1147 1.526 . S
C1145 H1129 0.959 . S
C1145 H1130 0.959 . S
C1145 H1131 0.961 . S
C1145 C1144 1.502 . S
C1146 H1132 0.960 . S
C1146 H1133 0.961 . S
C1146 H1134 0.959 . S
C1146 C1144 1.561 . S
C1147 C1144 1.526 . S
C1147 C1148 1.396 . S
C1147 C1152 1.390 . S
C1148 C1142 1.465 . S
C1148 C1147 1.396 . S
C1148 C1149 1.399 . S
C1149 H1135 0.929 . S
C1149 C1148 1.399 . S
C1149 C1150 1.385 . S
C1150 H1136 0.931 . S
C1150 C1149 1.385 . S
C1150 C1151 1.389 . S
C1151 C1150 1.389 . S
C1151 C1152 1.387 . S
C1152 H1137 0.930 . S
C1152 C1147 1.390 . S
C1152 C1151 1.387 . S
H1153 C1165 0.930 . S
H1154 C1167 0.930 . S
H1155 C1168 0.930 . S
H1156 C1172 0.959 . S
H1157 C1172 0.959 . S
H1158 C1172 0.961 . S
H1159 C1173 0.960 . S
H1160 C1173 0.961 . S
H1161 C1173 0.959 . S
H1162 C1176 0.929 . S
H1163 C1177 0.931 . S
H1164 C1179 0.930 . S
C1165 H1153 0.930 . S
C1165 C1166 1.399 . S
C1165 C1170 1.399 . S
C1166 C1165 1.399 . S
C1166 C1167 1.376 . S
C1167 H1154 0.930 . S
C1167 C1166 1.376 . S
C1167 C1168 1.388 . S
C1168 H1155 0.930 . S
C1168 C1167 1.388 . S
C1168 C1169 1.390 . S
C1169 C1168 1.390 . S
C1169 C1170 1.394 . S
C1169 C1175 1.465 . S
C1170 C1165 1.399 . S
C1170 C1169 1.394 . S
C1170 C1171 1.516 . S
C1171 C1170 1.516 . S
C1171 C1172 1.502 . S
C1171 C1173 1.561 . S
C1171 C1174 1.526 . S
C1172 H1156 0.959 . S
C1172 H1157 0.959 . S
C1172 H1158 0.961 . S
C1172 C1171 1.502 . S
C1173 H1159 0.960 . S
C1173 H1160 0.961 . S
C1173 H1161 0.959 . S
C1173 C1171 1.561 . S
C1174 C1171 1.526 . S
C1174 C1175 1.396 . S
C1174 C1179 1.390 . S
C1175 C1169 1.465 . S
C1175 C1174 1.396 . S
C1175 C1176 1.399 . S
C1176 H1162 0.929 . S
C1176 C1175 1.399 . S
C1176 C1177 1.385 . S
C1177 H1163 0.931 . S
C1177 C1176 1.385 . S
C1177 C1178 1.389 . S
C1178 C1177 1.389 . S
C1178 C1179 1.387 . S
C1179 H1164 0.930 . S
C1179 C1174 1.390 . S
C1179 C1178 1.387 . S
H1180 C1192 0.930 . S
H1181 C1194 0.930 1_655 S
H1182 C1195 0.930 . S
H1183 C1199 0.959 . S
H1184 C1199 0.959 . S
H1185 C1199 0.961 . S
H1186 C1200 0.960 . S
H1187 C1200 0.961 . S
H1188 C1200 0.959 . S
H1189 C1203 0.929 . S
H1190 C1204 0.931 . S
H1191 C1206 0.930 . S
C1192 H1180 0.930 . S
C1192 C1193 1.399 . S
C1192 C1197 1.399 . S
C1193 C1192 1.399 . S
C1193 C1194 1.376 . S
C1194 H1181 0.930 1_455 S
C1194 C1193 1.376 . S
C1194 C1195 1.388 . S
C1195 H1182 0.930 . S
C1195 C1194 1.388 . S
C1195 C1196 1.390 . S
C1196 C1195 1.390 . S
C1196 C1197 1.394 . S
C1196 C1202 1.465 . S
C1197 C1192 1.399 . S
C1197 C1196 1.394 . S
C1197 C1198 1.516 . S
C1198 C1197 1.516 . S
C1198 C1199 1.502 . S
C1198 C1200 1.561 1_455 S
C1198 C1201 1.526 . S
C1199 H1183 0.959 . S
C1199 H1184 0.959 . S
C1199 H1185 0.961 . S
C1199 C1198 1.502 . S
C1200 H1186 0.960 . S
C1200 H1187 0.961 . S
C1200 H1188 0.959 . S
C1200 C1198 1.561 1_655 S
C1201 C1198 1.526 . S
C1201 C1202 1.396 . S
C1201 C1206 1.390 . S
C1202 C1196 1.465 . S
C1202 C1201 1.396 . S
C1202 C1203 1.399 . S
C1203 H1189 0.929 . S
C1203 C1202 1.399 . S
C1203 C1204 1.385 . S
C1204 H1190 0.931 . S
C1204 C1203 1.385 . S
C1204 C1205 1.389 . S
C1205 C1204 1.389 . S
C1205 C1206 1.387 . S
C1206 H1191 0.930 . S
C1206 C1201 1.390 . S
C1206 C1205 1.387 . S
H1207 C1219 0.930 . S
H1208 C1221 0.930 . S
H1209 C1222 0.930 . S
H1210 C1226 0.959 . S
H1211 C1226 0.959 . S
H1212 C1226 0.961 . S
H1213 C1227 0.960 . S
H1214 C1227 0.961 . S
H1215 C1227 0.959 . S
H1216 C1230 0.929 . S
H1217 C1231 0.931 . S
H1218 C1233 0.930 . S
C1219 H1207 0.930 . S
C1219 C1220 1.399 . S
C1219 C1224 1.399 . S
C1220 C1219 1.399 . S
C1220 C1221 1.376 . S
C1221 H1208 0.930 . S
C1221 C1220 1.376 . S
C1221 C1222 1.388 . S
C1222 H1209 0.930 . S
C1222 C1221 1.388 . S
C1222 C1223 1.390 . S
C1223 C1222 1.390 . S
C1223 C1224 1.394 . S
C1223 C1229 1.465 . S
C1224 C1219 1.399 . S
C1224 C1223 1.394 . S
C1224 C1225 1.516 . S
C1225 C1224 1.516 . S
C1225 C1226 1.502 . S
C1225 C1227 1.561 . S
C1225 C1228 1.526 . S
C1226 H1210 0.959 . S
C1226 H1211 0.959 . S
C1226 H1212 0.961 . S
C1226 C1225 1.502 . S
C1227 H1213 0.960 . S
C1227 H1214 0.961 . S
C1227 H1215 0.959 . S
C1227 C1225 1.561 . S
C1228 C1225 1.526 . S
C1228 C1229 1.396 . S
C1228 C1233 1.390 . S
C1229 C1223 1.465 . S
C1229 C1228 1.396 . S
C1229 C1230 1.399 . S
C1230 H1216 0.929 . S
C1230 C1229 1.399 . S
C1230 C1231 1.385 . S
C1231 H1217 0.931 . S
C1231 C1230 1.385 . S
C1231 C1232 1.389 . S
C1232 C1231 1.389 . S
C1232 C1233 1.387 . S
C1233 H1218 0.930 . S
C1233 C1228 1.390 . S
C1233 C1232 1.387 . S
H1234 C1246 0.930 . S
H1235 C1248 0.930 . S
H1236 C1249 0.930 . S
H1237 C1253 0.959 . S
H1238 C1253 0.959 . S
H1239 C1253 0.961 . S
H1240 C1254 0.960 . S
H1241 C1254 0.961 . S
H1242 C1254 0.959 . S
H1243 C1257 0.929 . S
H1244 C1258 0.931 . S
H1245 C1260 0.930 . S
C1246 H1234 0.930 . S
C1246 C1247 1.399 . S
C1246 C1251 1.399 . S
C1247 C1246 1.399 . S
C1247 C1248 1.376 . S
C1248 H1235 0.930 . S
C1248 C1247 1.376 . S
C1248 C1249 1.388 . S
C1249 H1236 0.930 . S
C1249 C1248 1.388 . S
C1249 C1250 1.390 . S
C1250 C1249 1.390 . S
C1250 C1251 1.394 . S
C1250 C1256 1.465 . S
C1251 C1246 1.399 . S
C1251 C1250 1.394 . S
C1251 C1252 1.516 . S
C1252 C1251 1.516 . S
C1252 C1253 1.502 . S
C1252 C1254 1.561 . S
C1252 C1255 1.526 . S
C1253 H1237 0.959 . S
C1253 H1238 0.959 . S
C1253 H1239 0.961 . S
C1253 C1252 1.502 . S
C1254 H1240 0.960 . S
C1254 H1241 0.961 . S
C1254 H1242 0.959 . S
C1254 C1252 1.561 . S
C1255 C1252 1.526 . S
C1255 C1256 1.396 . S
C1255 C1260 1.390 . S
C1256 C1250 1.465 . S
C1256 C1255 1.396 . S
C1256 C1257 1.399 . S
C1257 H1243 0.929 . S
C1257 C1256 1.399 . S
C1257 C1258 1.385 . S
C1258 H1244 0.931 . S
C1258 C1257 1.385 . S
C1258 C1259 1.389 . S
C1259 C1258 1.389 . S
C1259 C1260 1.387 . S
C1260 H1245 0.930 . S
C1260 C1255 1.390 . S
C1260 C1259 1.387 . S
H1261 C1273 0.930 . S
H1262 C1275 0.930 . S
H1263 C1276 0.930 . S
H1264 C1280 0.959 . S
H1265 C1280 0.959 . S
H1266 C1280 0.961 . S
H1267 C1281 0.967 . S
H1268 C1281 0.961 . S
H1269 C1281 0.959 . S
H1270 C1284 0.929 1_455 S
H1271 C1285 0.931 . S
H1272 C1287 0.930 . S
C1273 H1261 0.930 . S
C1273 C1274 1.399 . S
C1273 C1278 1.399 . S
C1274 C1273 1.399 . S
C1274 C1275 1.376 . S
C1275 H1262 0.930 . S
C1275 C1274 1.376 . S
C1275 C1276 1.388 . S
C1276 H1263 0.930 . S
C1276 C1275 1.388 . S
C1276 C1277 1.390 . S
C1277 C1276 1.390 . S
C1277 C1278 1.394 . S
C1277 C1283 1.465 . S
C1278 C1273 1.399 . S
C1278 C1277 1.394 . S
C1278 C1279 1.516 . S
C1279 C1278 1.516 . S
C1279 C1280 1.502 . S
C1279 C1281 1.561 1_455 S
C1279 C1282 1.526 1_455 S
C1280 H1264 0.959 . S
C1280 H1265 0.959 . S
C1280 H1266 0.961 . S
C1280 C1279 1.502 . S
C1281 H1267 0.967 . S
C1281 H1268 0.961 . S
C1281 H1269 0.959 . S
C1281 C1279 1.561 1_655 S
C1282 C1279 1.526 1_655 S
C1282 C1283 1.396 1_655 S
C1282 C1287 1.390 . S
C1283 C1277 1.465 . S
C1283 C1282 1.396 1_455 S
C1283 C1284 1.399 1_455 S
C1284 H1270 0.929 1_655 S
C1284 C1283 1.399 1_655 S
C1284 C1285 1.385 . S
C1285 H1271 0.931 . S
C1285 C1284 1.385 . S
C1285 C1286 1.389 . S
C1286 C1285 1.389 . S
C1286 C1287 1.387 . S
C1287 H1272 0.930 . S
C1287 C1282 1.390 . S
C1287 C1286 1.387 . S
H1288 C1300 0.930 . S
H1289 C1302 0.922 1_655 S
H1290 C1303 0.930 . S
H1291 C1307 0.959 . S
H1292 C1307 0.959 . S
H1293 C1307 0.961 . S
H1294 C1308 0.960 . S
H1295 C1308 0.961 . S
H1296 C1308 0.959 1_655 S
H1297 C1311 0.929 . S
H1298 C1312 0.931 . S
H1299 C1314 0.930 . S
C1300 H1288 0.930 . S
C1300 C1301 1.399 . S
C1300 C1305 1.399 . S
C1301 C1300 1.399 . S
C1301 C1302 1.391 . S
C1302 H1289 0.922 1_455 S
C1302 C1301 1.391 . S
C1302 C1303 1.382 1_455 S
C1303 H1290 0.930 . S
C1303 C1302 1.382 1_655 S
C1303 C1304 1.390 1_655 S
C1304 C1303 1.390 1_455 S
C1304 C1305 1.394 . S
C1304 C1310 1.465 1_554 S
C1305 C1300 1.399 . S
C1305 C1304 1.394 . S
C1305 C1306 1.516 1_545 S
C1306 C1305 1.516 1_565 S
C1306 C1307 1.502 . S
C1306 C1308 1.561 . S
C1306 C1309 1.526 1_554 S
C1307 H1291 0.959 . S
C1307 H1292 0.959 . S
C1307 H1293 0.961 . S
C1307 C1306 1.502 . S
C1308 H1294 0.960 . S
C1308 H1295 0.961 . S
C1308 H1296 0.959 1_455 S
C1308 C1306 1.561 . S
C1309 C1306 1.526 1_556 S
C1309 C1310 1.396 1_565 S
C1309 C1314 1.390 . S
C1310 C1304 1.465 1_556 S
C1310 C1309 1.396 1_545 S
C1310 C1311 1.399 1_455 S
C1311 H1297 0.929 . S
C1311 C1310 1.399 1_655 S
C1311 C1312 1.385 1_545 S
C1312 H1298 0.931 . S
C1312 C1311 1.385 1_565 S
C1312 C1313 1.389 1_655 S
C1313 C1312 1.389 1_455 S
C1313 C1314 1.387 . S
C1314 H1299 0.930 . S
C1314 C1309 1.390 . S
C1314 C1313 1.387 . S
H1315 C1327 0.930 . S
H1316 C1329 0.930 . S
H1317 C1330 0.930 . S
H1318 C1334 0.959 . S
H1319 C1334 0.959 . S
H1320 C1334 0.961 . S
H1321 C1335 0.960 . S
H1322 C1335 0.961 . S
H1323 C1335 0.959 . S
H1324 C1338 0.929 . S
H1325 C1339 0.931 . S
H1326 C1341 0.930 . S
C1327 H1315 0.930 . S
C1327 C1328 1.399 . S
C1327 C1332 1.399 . S
C1328 C1327 1.399 . S
C1328 C1329 1.376 . S
C1329 H1316 0.930 . S
C1329 C1328 1.376 . S
C1329 C1330 1.388 . S
C1330 H1317 0.930 . S
C1330 C1329 1.388 . S
C1330 C1331 1.390 . S
C1331 C1330 1.390 . S
C1331 C1332 1.394 . S
C1331 C1337 1.465 . S
C1332 C1327 1.399 . S
C1332 C1331 1.394 . S
C1332 C1333 1.516 . S
C1333 C1332 1.516 . S
C1333 C1334 1.502 . S
C1333 C1335 1.561 . S
C1333 C1336 1.526 . S
C1334 H1318 0.959 . S
C1334 H1319 0.959 . S
C1334 H1320 0.961 . S
C1334 C1333 1.502 . S
C1335 H1321 0.960 . S
C1335 H1322 0.961 . S
C1335 H1323 0.959 . S
C1335 C1333 1.561 . S
C1336 C1333 1.526 . S
C1336 C1337 1.396 . S
C1336 C1341 1.390 . S
C1337 C1331 1.465 . S
C1337 C1336 1.396 . S
C1337 C1338 1.399 . S
C1338 H1324 0.929 . S
C1338 C1337 1.399 . S
C1338 C1339 1.385 . S
C1339 H1325 0.931 . S
C1339 C1338 1.385 . S
C1339 C1340 1.389 . S
C1340 C1339 1.389 . S
C1340 C1341 1.387 . S
C1341 H1326 0.930 . S
C1341 C1336 1.390 . S
C1341 C1340 1.387 . S
H1342 C1354 0.930 . S
H1343 C1356 0.930 . S
H1344 C1357 0.930 . S
H1345 C1361 0.959 . S
H1346 C1361 0.959 . S
H1347 C1361 0.961 . S
H1348 C1362 0.960 . S
H1349 C1362 0.961 . S
H1350 C1362 0.959 . S
H1351 C1365 0.929 . S
H1352 C1366 0.931 . S
H1353 C1368 0.930 1_545 S
C1354 H1342 0.930 . S
C1354 C1355 1.399 . S
C1354 C1359 1.399 . S
C1355 C1354 1.399 . S
C1355 C1356 1.376 . S
C1356 H1343 0.930 . S
C1356 C1355 1.376 . S
C1356 C1357 1.388 1_545 S
C1357 H1344 0.930 . S
C1357 C1356 1.388 1_565 S
C1357 C1358 1.398 . S
C1358 C1357 1.398 . S
C1358 C1359 1.367 1_565 S
C1358 C1364 1.480 . S
C1359 C1354 1.399 . S
C1359 C1358 1.367 1_545 S
C1359 C1360 1.516 . S
C1360 C1359 1.516 . S
C1360 C1361 1.502 . S
C1360 C1362 1.561 . S
C1360 C1363 1.526 . S
C1361 H1345 0.959 . S
C1361 H1346 0.959 . S
C1361 H1347 0.961 . S
C1361 C1360 1.502 . S
C1362 H1348 0.960 . S
C1362 H1349 0.961 . S
C1362 H1350 0.959 . S
C1362 C1360 1.561 . S
C1363 C1360 1.526 . S
C1363 C1364 1.396 1_545 S
C1363 C1368 1.390 1_545 S
C1364 C1358 1.480 . S
C1364 C1363 1.396 1_565 S
C1364 C1365 1.399 . S
C1365 H1351 0.929 . S
C1365 C1364 1.399 . S
C1365 C1366 1.385 . S
C1366 H1352 0.931 . S
C1366 C1365 1.385 . S
C1366 C1367 1.389 . S
C1367 C1366 1.389 . S
C1367 C1368 1.387 . S
C1368 H1353 0.930 1_565 S
C1368 C1363 1.390 1_565 S
C1368 C1367 1.387 . S
H1369 C1381 0.930 . S
H1370 C1383 0.930 . S
H1371 C1384 0.930 . S
H1372 C1388 0.959 . S
H1373 C1388 0.959 . S
H1374 C1388 0.961 . S
H1375 C1389 0.960 . S
H1376 C1389 0.961 . S
H1377 C1389 0.959 . S
H1378 C1392 0.929 . S
H1379 C1393 0.931 . S
H1380 C1395 0.930 . S
C1381 H1369 0.930 . S
C1381 C1382 1.399 . S
C1381 C1386 1.399 . S
C1382 C1381 1.399 . S
C1382 C1383 1.376 . S
C1383 H1370 0.930 . S
C1383 C1382 1.376 . S
C1383 C1384 1.388 . S
C1384 H1371 0.930 . S
C1384 C1383 1.388 . S
C1384 C1385 1.390 . S
C1385 C1384 1.390 . S
C1385 C1386 1.394 . S
C1385 C1391 1.465 . S
C1386 C1381 1.399 . S
C1386 C1385 1.394 . S
C1386 C1387 1.516 . S
C1387 C1386 1.516 . S
C1387 C1388 1.502 . S
C1387 C1389 1.561 . S
C1387 C1390 1.526 . S
C1388 H1372 0.959 . S
C1388 H1373 0.959 . S
C1388 H1374 0.961 . S
C1388 C1387 1.502 . S
C1389 H1375 0.960 . S
C1389 H1376 0.961 . S
C1389 H1377 0.959 . S
C1389 C1387 1.561 . S
C1390 C1387 1.526 . S
C1390 C1391 1.396 . S
C1390 C1395 1.390 . S
C1391 C1385 1.465 . S
C1391 C1390 1.396 . S
C1391 C1392 1.399 . S
C1392 H1378 0.929 . S
C1392 C1391 1.399 . S
C1392 C1393 1.385 . S
C1393 H1379 0.931 . S
C1393 C1392 1.385 . S
C1393 C1394 1.389 . S
C1394 C1393 1.389 . S
C1394 C1395 1.387 . S
C1395 H1380 0.930 . S
C1395 C1390 1.390 . S
C1395 C1394 1.387 . S
H1396 C1408 0.930 . S
H1397 C1410 0.930 . S
H1398 C1411 0.930 . S
H1399 C1415 0.959 . S
H1400 C1415 0.959 . S
H1401 C1415 0.961 . S
H1402 C1416 0.960 . S
H1403 C1416 0.961 . S
H1404 C1416 0.959 . S
H1405 C1419 0.929 . S
H1406 C1420 0.931 . S
H1407 C1422 0.930 . S
C1408 H1396 0.930 . S
C1408 C1409 1.399 . S
C1408 C1413 1.399 . S
C1409 C1408 1.399 . S
C1409 C1410 1.376 . S
C1410 H1397 0.930 . S
C1410 C1409 1.376 . S
C1410 C1411 1.388 . S
C1411 H1398 0.930 . S
C1411 C1410 1.388 . S
C1411 C1412 1.390 . S
C1412 C1411 1.390 . S
C1412 C1413 1.394 . S
C1412 C1418 1.465 . S
C1413 C1408 1.399 . S
C1413 C1412 1.394 . S
C1413 C1414 1.516 . S
C1414 C1413 1.516 . S
C1414 C1415 1.502 . S
C1414 C1416 1.561 . S
C1414 C1417 1.526 . S
C1415 H1399 0.959 . S
C1415 H1400 0.959 . S
C1415 H1401 0.961 . S
C1415 C1414 1.502 . S
C1416 H1402 0.960 . S
C1416 H1403 0.961 . S
C1416 H1404 0.959 . S
C1416 C1414 1.561 . S
C1417 C1414 1.526 . S
C1417 C1418 1.396 . S
C1417 C1422 1.390 . S
C1418 C1412 1.465 . S
C1418 C1417 1.396 . S
C1418 C1419 1.399 . S
C1419 H1405 0.929 . S
C1419 C1418 1.399 . S
C1419 C1420 1.385 . S
C1420 H1406 0.931 . S
C1420 C1419 1.385 . S
C1420 C1421 1.389 . S
C1421 C1420 1.389 . S
C1421 C1422 1.387 . S
C1422 H1407 0.930 . S
C1422 C1417 1.390 . S
C1422 C1421 1.387 . S
H1423 C1435 0.930 . S
H1424 C1437 0.930 . S
H1425 C1438 0.930 . S
H1426 C1442 0.959 . S
H1427 C1442 0.959 . S
H1428 C1442 0.961 . S
H1429 C1443 0.960 . S
H1430 C1443 0.961 . S
H1431 C1443 0.959 . S
H1432 C1446 0.929 . S
H1433 C1447 0.931 . S
H1434 C1449 0.930 . S
C1435 H1423 0.930 . S
C1435 C1436 1.399 . S
C1435 C1440 1.399 . S
C1436 C1435 1.399 . S
C1436 C1437 1.376 . S
C1437 H1424 0.930 . S
C1437 C1436 1.376 . S
C1437 C1438 1.388 . S
C1438 H1425 0.930 . S
C1438 C1437 1.388 . S
C1438 C1439 1.390 . S
C1439 C1438 1.390 . S
C1439 C1440 1.394 . S
C1439 C1445 1.465 . S
C1440 C1435 1.399 . S
C1440 C1439 1.394 . S
C1440 C1441 1.516 . S
C1441 C1440 1.516 . S
C1441 C1442 1.502 . S
C1441 C1443 1.561 . S
C1441 C1444 1.526 . S
C1442 H1426 0.959 . S
C1442 H1427 0.959 . S
C1442 H1428 0.961 . S
C1442 C1441 1.502 . S
C1443 H1429 0.960 . S
C1443 H1430 0.961 . S
C1443 H1431 0.959 . S
C1443 C1441 1.561 . S
C1444 C1441 1.526 . S
C1444 C1445 1.396 . S
C1444 C1449 1.390 . S
C1445 C1439 1.465 . S
C1445 C1444 1.396 . S
C1445 C1446 1.399 . S
C1446 H1432 0.929 . S
C1446 C1445 1.399 . S
C1446 C1447 1.385 . S
C1447 H1433 0.931 . S
C1447 C1446 1.385 . S
C1447 C1448 1.389 . S
C1448 C1447 1.389 . S
C1448 C1449 1.387 . S
C1449 H1434 0.930 . S
C1449 C1444 1.390 . S
C1449 C1448 1.387 . S
H1450 C1462 0.930 . S
H1451 C1464 0.930 . S
H1452 C1465 0.930 . S
H1453 C1469 0.959 . S
H1454 C1469 0.959 . S
H1455 C1469 0.961 . S
H1456 C1470 0.960 . S
H1457 C1470 0.961 . S
H1458 C1470 0.959 . S
H1459 C1473 0.929 . S
H1460 C1474 0.931 . S
H1461 C1476 0.930 . S
C1462 H1450 0.930 . S
C1462 C1463 1.399 . S
C1462 C1467 1.399 . S
C1463 C1462 1.399 . S
C1463 C1464 1.376 . S
C1464 H1451 0.930 . S
C1464 C1463 1.376 . S
C1464 C1465 1.388 . S
C1465 H1452 0.930 . S
C1465 C1464 1.388 . S
C1465 C1466 1.390 . S
C1466 C1465 1.390 . S
C1466 C1467 1.394 . S
C1466 C1472 1.465 . S
C1467 C1462 1.399 . S
C1467 C1466 1.394 . S
C1467 C1468 1.516 . S
C1468 C1467 1.516 . S
C1468 C1469 1.502 . S
C1468 C1470 1.561 . S
C1468 C1471 1.526 . S
C1469 H1453 0.959 . S
C1469 H1454 0.959 . S
C1469 H1455 0.961 . S
C1469 C1468 1.502 . S
C1470 H1456 0.960 . S
C1470 H1457 0.961 . S
C1470 H1458 0.959 . S
C1470 C1468 1.561 . S
C1471 C1468 1.526 . S
C1471 C1472 1.396 . S
C1471 C1476 1.390 . S
C1472 C1466 1.465 . S
C1472 C1471 1.396 . S
C1472 C1473 1.399 . S
C1473 H1459 0.929 . S
C1473 C1472 1.399 . S
C1473 C1474 1.385 . S
C1474 H1460 0.931 . S
C1474 C1473 1.385 . S
C1474 C1475 1.389 . S
C1475 C1474 1.389 . S
C1475 C1476 1.387 . S
C1476 H1461 0.930 . S
C1476 C1471 1.390 . S
C1476 C1475 1.387 . S
H1477 C1489 0.930 . S
H1478 C1491 0.930 . S
H1479 C1492 0.930 . S
H1480 C1496 0.959 . S
H1481 C1496 0.959 . S
H1482 C1496 0.961 . S
H1483 C1497 0.960 . S
H1484 C1497 0.961 . S
H1485 C1497 0.959 . S
H1486 C1500 0.929 . S
H1487 C1501 0.931 . S
H1488 C1503 0.930 . S
C1489 H1477 0.930 . S
C1489 C1490 1.399 . S
C1489 C1494 1.399 . S
C1490 C1489 1.399 . S
C1490 C1491 1.376 . S
C1491 H1478 0.930 . S
C1491 C1490 1.376 . S
C1491 C1492 1.388 . S
C1492 H1479 0.930 . S
C1492 C1491 1.388 . S
C1492 C1493 1.390 . S
C1493 C1492 1.390 . S
C1493 C1494 1.394 . S
C1493 C1499 1.465 1_556 S
C1494 C1489 1.399 . S
C1494 C1493 1.394 . S
C1494 C1495 1.516 . S
C1495 C1494 1.516 . S
C1495 C1496 1.502 1_455 S
C1495 C1497 1.561 . S
C1495 C1498 1.526 1_556 S
C1496 H1480 0.959 . S
C1496 H1481 0.959 . S
C1496 H1482 0.961 . S
C1496 C1495 1.502 1_655 S
C1497 H1483 0.960 . S
C1497 H1484 0.961 . S
C1497 H1485 0.959 . S
C1497 C1495 1.561 . S
C1498 C1495 1.526 1_554 S
C1498 C1499 1.396 . S
C1498 C1503 1.390 . S
C1499 C1493 1.465 1_554 S
C1499 C1498 1.396 . S
C1499 C1500 1.399 . S
C1500 H1486 0.929 . S
C1500 C1499 1.399 . S
C1500 C1501 1.385 . S
C1501 H1487 0.931 . S
C1501 C1500 1.385 . S
C1501 C1502 1.389 . S
C1502 C1501 1.389 . S
C1502 C1503 1.387 . S
C1503 H1488 0.930 . S
C1503 C1498 1.390 . S
C1503 C1502 1.387 . S
H1504 C1516 0.930 . S
H1505 C1518 0.930 . S
H1506 C1519 0.930 . S
H1507 C1523 0.959 . S
H1508 C1523 0.959 . S
H1509 C1523 0.961 . S
H1510 C1524 0.960 . S
H1511 C1524 0.961 . S
H1512 C1524 0.959 . S
H1513 C1527 0.929 . S
H1514 C1528 0.931 . S
H1515 C1530 0.930 . S
C1516 H1504 0.930 . S
C1516 C1517 1.399 . S
C1516 C1521 1.399 . S
C1517 C1516 1.399 . S
C1517 C1518 1.376 . S
C1518 H1505 0.930 . S
C1518 C1517 1.376 . S
C1518 C1519 1.388 . S
C1519 H1506 0.930 . S
C1519 C1518 1.388 . S
C1519 C1520 1.390 . S
C1520 C1519 1.390 . S
C1520 C1521 1.394 . S
C1520 C1526 1.465 . S
C1521 C1516 1.399 . S
C1521 C1520 1.394 . S
C1521 C1522 1.516 . S
C1522 C1521 1.516 . S
C1522 C1523 1.502 . S
C1522 C1524 1.561 . S
C1522 C1525 1.526 . S
C1523 H1507 0.959 . S
C1523 H1508 0.959 . S
C1523 H1509 0.961 . S
C1523 C1522 1.502 . S
C1524 H1510 0.960 . S
C1524 H1511 0.961 . S
C1524 H1512 0.959 . S
C1524 C1522 1.561 . S
C1525 C1522 1.526 . S
C1525 C1526 1.396 . S
C1525 C1530 1.390 . S
C1526 C1520 1.465 . S
C1526 C1525 1.396 . S
C1526 C1527 1.399 . S
C1527 H1513 0.929 . S
C1527 C1526 1.399 . S
C1527 C1528 1.385 . S
C1528 H1514 0.931 . S
C1528 C1527 1.385 . S
C1528 C1529 1.389 . S
C1529 C1528 1.389 . S
C1529 C1530 1.387 . S
C1530 H1515 0.930 . S
C1530 C1525 1.390 . S
C1530 C1529 1.387 . S
H1531 C1543 0.930 . S
H1532 C1545 0.930 . S
H1533 C1546 0.930 . S
H1534 C1550 0.959 . S
H1535 C1550 0.959 . S
H1536 C1550 0.961 . S
H1537 C1551 0.960 . S
H1538 C1551 0.961 . S
H1539 C1551 0.959 . S
H1540 C1554 0.929 . S
H1541 C1555 0.931 . S
H1542 C1557 0.930 . S
C1543 H1531 0.930 . S
C1543 C1544 1.399 . S
C1543 C1548 1.399 . S
C1544 C1543 1.399 . S
C1544 C1545 1.376 . S
C1545 H1532 0.930 . S
C1545 C1544 1.376 . S
C1545 C1546 1.388 . S
C1546 H1533 0.930 . S
C1546 C1545 1.388 . S
C1546 C1547 1.390 . S
C1547 C1546 1.390 . S
C1547 C1548 1.394 . S
C1547 C1553 1.465 . S
C1548 C1543 1.399 . S
C1548 C1547 1.394 . S
C1548 C1549 1.516 . S
C1549 C1548 1.516 . S
C1549 C1550 1.502 . S
C1549 C1551 1.561 . S
C1549 C1552 1.526 . S
C1550 H1534 0.959 . S
C1550 H1535 0.959 . S
C1550 H1536 0.961 . S
C1550 C1549 1.502 . S
C1551 H1537 0.960 . S
C1551 H1538 0.961 . S
C1551 H1539 0.959 . S
C1551 C1549 1.561 . S
C1552 C1549 1.526 . S
C1552 C1553 1.396 . S
C1552 C1557 1.390 . S
C1553 C1547 1.465 . S
C1553 C1552 1.396 . S
C1553 C1554 1.399 . S
C1554 H1540 0.929 . S
C1554 C1553 1.399 . S
C1554 C1555 1.385 . S
C1555 H1541 0.931 . S
C1555 C1554 1.385 . S
C1555 C1556 1.389 . S
C1556 C1555 1.389 . S
C1556 C1557 1.387 . S
C1557 H1542 0.930 . S
C1557 C1552 1.390 . S
C1557 C1556 1.387 . S
H1558 C1570 0.930 . S
H1559 C1572 0.930 . S
H1560 C1573 0.930 . S
H1561 C1577 0.959 . S
H1562 C1577 0.959 . S
H1563 C1577 0.961 . S
H1564 C1578 0.960 . S
H1565 C1578 0.961 . S
H1566 C1578 0.959 . S
H1567 C1581 0.929 . S
H1568 C1582 0.931 . S
H1569 C1584 0.930 . S
C1570 H1558 0.930 . S
C1570 C1571 1.399 . S
C1570 C1575 1.399 . S
C1571 C1570 1.399 . S
C1571 C1572 1.376 . S
C1572 H1559 0.930 . S
C1572 C1571 1.376 . S
C1572 C1573 1.388 . S
C1573 H1560 0.930 . S
C1573 C1572 1.388 . S
C1573 C1574 1.390 . S
C1574 C1573 1.390 . S
C1574 C1575 1.394 . S
C1574 C1580 1.465 . S
C1575 C1570 1.399 . S
C1575 C1574 1.394 . S
C1575 C1576 1.516 . S
C1576 C1575 1.516 . S
C1576 C1577 1.502 . S
C1576 C1578 1.561 . S
C1576 C1579 1.526 . S
C1577 H1561 0.959 . S
C1577 H1562 0.959 . S
C1577 H1563 0.961 . S
C1577 C1576 1.502 . S
C1578 H1564 0.960 . S
C1578 H1565 0.961 . S
C1578 H1566 0.959 . S
C1578 C1576 1.561 . S
C1579 C1576 1.526 . S
C1579 C1580 1.396 . S
C1579 C1584 1.390 . S
C1580 C1574 1.465 . S
C1580 C1579 1.396 . S
C1580 C1581 1.399 . S
C1581 H1567 0.929 . S
C1581 C1580 1.399 . S
C1581 C1582 1.385 . S
C1582 H1568 0.931 . S
C1582 C1581 1.385 . S
C1582 C1583 1.389 . S
C1583 C1582 1.389 . S
C1583 C1584 1.387 . S
C1584 H1569 0.930 . S
C1584 C1579 1.390 . S
C1584 C1583 1.387 . S
H1585 C1597 0.930 . S
H1586 C1599 0.930 . S
H1587 C1600 0.930 . S
H1588 C1604 0.959 . S
H1589 C1604 0.959 . S
H1590 C1604 0.961 . S
H1591 C1605 0.960 . S
H1592 C1605 0.961 . S
H1593 C1605 0.959 . S
H1594 C1608 0.929 . S
H1595 C1609 0.931 . S
H1596 C1611 0.930 . S
C1597 H1585 0.930 . S
C1597 C1598 1.399 . S
C1597 C1602 1.399 . S
C1598 C1597 1.399 . S
C1598 C1599 1.376 . S
C1599 H1586 0.930 . S
C1599 C1598 1.376 . S
C1599 C1600 1.388 . S
C1600 H1587 0.930 . S
C1600 C1599 1.388 . S
C1600 C1601 1.390 . S
C1601 C1600 1.390 . S
C1601 C1602 1.394 . S
C1601 C1607 1.465 . S
C1602 C1597 1.399 . S
C1602 C1601 1.394 . S
C1602 C1603 1.516 . S
C1603 C1602 1.516 . S
C1603 C1604 1.502 . S
C1603 C1605 1.561 . S
C1603 C1606 1.526 . S
C1604 H1588 0.959 . S
C1604 H1589 0.959 . S
C1604 H1590 0.961 . S
C1604 C1603 1.502 . S
C1605 H1591 0.960 . S
C1605 H1592 0.961 . S
C1605 H1593 0.959 . S
C1605 C1603 1.561 . S
C1606 C1603 1.526 . S
C1606 C1607 1.396 . S
C1606 C1611 1.390 . S
C1607 C1601 1.465 . S
C1607 C1606 1.396 . S
C1607 C1608 1.399 . S
C1608 H1594 0.929 . S
C1608 C1607 1.399 . S
C1608 C1609 1.385 . S
C1609 H1595 0.931 . S
C1609 C1608 1.385 . S
C1609 C1610 1.389 . S
C1610 C1609 1.389 . S
C1610 C1611 1.387 . S
C1611 H1596 0.930 . S
C1611 C1606 1.390 . S
C1611 C1610 1.387 . S
H1612 C1624 0.930 . S
H1613 C1626 0.930 . S
H1614 C1627 0.930 . S
H1615 C1631 0.959 . S
H1616 C1631 0.959 . S
H1617 C1631 0.961 . S
H1618 C1632 0.960 . S
H1619 C1632 0.961 . S
H1620 C1632 0.959 . S
H1621 C1635 0.929 . S
H1622 C1636 0.931 . S
H1623 C1638 0.930 . S
C1624 H1612 0.930 . S
C1624 C1625 1.399 . S
C1624 C1629 1.399 . S
C1625 C1624 1.399 . S
C1625 C1626 1.376 . S
C1626 H1613 0.930 . S
C1626 C1625 1.376 . S
C1626 C1627 1.388 . S
C1627 H1614 0.930 . S
C1627 C1626 1.388 . S
C1627 C1628 1.390 . S
C1628 C1627 1.390 . S
C1628 C1629 1.394 . S
C1628 C1634 1.465 . S
C1629 C1624 1.399 . S
C1629 C1628 1.394 . S
C1629 C1630 1.516 . S
C1630 C1629 1.516 . S
C1630 C1631 1.502 . S
C1630 C1632 1.561 . S
C1630 C1633 1.526 . S
C1631 H1615 0.959 . S
C1631 H1616 0.959 . S
C1631 H1617 0.961 . S
C1631 C1630 1.502 . S
C1632 H1618 0.960 . S
C1632 H1619 0.961 . S
C1632 H1620 0.959 . S
C1632 C1630 1.561 . S
C1633 C1630 1.526 . S
C1633 C1634 1.396 . S
C1633 C1638 1.390 . S
C1634 C1628 1.465 . S
C1634 C1633 1.396 . S
C1634 C1635 1.399 . S
C1635 H1621 0.929 . S
C1635 C1634 1.399 . S
C1635 C1636 1.385 . S
C1636 H1622 0.931 . S
C1636 C1635 1.385 . S
C1636 C1637 1.389 . S
C1637 C1636 1.389 . S
C1637 C1638 1.387 . S
C1638 H1623 0.930 . S
C1638 C1633 1.390 . S
C1638 C1637 1.387 . S
H1639 C1651 0.930 . S
H1640 C1653 0.930 . S
H1641 C1654 0.930 . S
H1642 C1658 0.959 . S
H1643 C1658 0.959 . S
H1644 C1658 0.961 . S
H1645 C1659 0.960 . S
H1646 C1659 0.961 . S
H1647 C1659 0.959 . S
H1648 C1662 0.929 . S
H1649 C1663 0.931 . S
H1650 C1665 0.930 . S
C1651 H1639 0.930 . S
C1651 C1652 1.399 . S
C1651 C1656 1.399 . S
C1652 C1651 1.399 . S
C1652 C1653 1.376 . S
C1653 H1640 0.930 . S
C1653 C1652 1.376 . S
C1653 C1654 1.388 . S
C1654 H1641 0.930 . S
C1654 C1653 1.388 . S
C1654 C1655 1.390 . S
C1655 C1654 1.390 . S
C1655 C1656 1.394 . S
C1655 C1661 1.465 . S
C1656 C1651 1.399 . S
C1656 C1655 1.394 . S
C1656 C1657 1.516 . S
C1657 C1656 1.516 . S
C1657 C1658 1.502 . S
C1657 C1659 1.561 . S
C1657 C1660 1.526 . S
C1658 H1642 0.959 . S
C1658 H1643 0.959 . S
C1658 H1644 0.961 . S
C1658 C1657 1.502 . S
C1659 H1645 0.960 . S
C1659 H1646 0.961 . S
C1659 H1647 0.959 . S
C1659 C1657 1.561 . S
C1660 C1657 1.526 . S
C1660 C1661 1.396 . S
C1660 C1665 1.390 . S
C1661 C1655 1.465 . S
C1661 C1660 1.396 . S
C1661 C1662 1.399 . S
C1662 H1648 0.929 . S
C1662 C1661 1.399 . S
C1662 C1663 1.385 . S
C1663 H1649 0.931 . S
C1663 C1662 1.385 . S
C1663 C1664 1.389 . S
C1664 C1663 1.389 . S
C1664 C1665 1.387 . S
C1665 H1650 0.930 . S
C1665 C1660 1.390 . S
C1665 C1664 1.387 . S
H1666 C1678 0.930 . S
H1667 C1680 0.930 . S
H1668 C1681 0.930 . S
H1669 C1685 0.959 . S
H1670 C1685 0.959 . S
H1671 C1685 0.961 . S
H1672 C1686 0.960 . S
H1673 C1686 0.961 . S
H1674 C1686 0.959 . S
H1675 C1689 0.929 . S
H1676 C1690 0.931 . S
H1677 C1692 0.930 . S
C1678 H1666 0.930 . S
C1678 C1679 1.399 . S
C1678 C1683 1.399 1_556 S
C1679 C1678 1.399 . S
C1679 C1680 1.376 . S
C1680 H1667 0.930 . S
C1680 C1679 1.376 . S
C1680 C1681 1.388 . S
C1681 H1668 0.930 . S
C1681 C1680 1.388 . S
C1681 C1682 1.390 1_556 S
C1682 C1681 1.390 1_554 S
C1682 C1683 1.394 . S
C1682 C1688 1.465 . S
C1683 C1678 1.399 1_554 S
C1683 C1682 1.394 . S
C1683 C1684 1.516 . S
C1684 C1683 1.516 . S
C1684 C1685 1.502 . S
C1684 C1686 1.561 . S
C1684 C1687 1.526 . S
C1685 H1669 0.959 . S
C1685 H1670 0.959 . S
C1685 H1671 0.961 . S
C1685 C1684 1.502 . S
C1686 H1672 0.960 . S
C1686 H1673 0.961 . S
C1686 H1674 0.959 . S
C1686 C1684 1.561 . S
C1687 C1684 1.526 . S
C1687 C1688 1.396 . S
C1687 C1692 1.390 . S
C1688 C1682 1.465 . S
C1688 C1687 1.396 . S
C1688 C1689 1.399 . S
C1689 H1675 0.929 . S
C1689 C1688 1.399 . S
C1689 C1690 1.385 . S
C1690 H1676 0.931 . S
C1690 C1689 1.385 . S
C1690 C1691 1.389 . S
C1691 C1690 1.389 . S
C1691 C1692 1.387 . S
C1692 H1677 0.930 . S
C1692 C1687 1.390 . S
C1692 C1691 1.387 . S
H1693 C1705 0.930 . S
H1694 C1707 0.930 . S
H1695 C1708 0.930 . S
H1696 C1712 0.959 . S
H1697 C1712 0.959 . S
H1698 C1712 0.961 . S
H1699 C1713 0.960 . S
H1700 C1713 0.961 . S
H1701 C1713 0.959 . S
H1702 C1716 0.929 . S
H1703 C1717 0.931 . S
H1704 C1719 0.930 . S
C1705 H1693 0.930 . S
C1705 C1706 1.399 . S
C1705 C1710 1.399 . S
C1706 C1705 1.399 . S
C1706 C1707 1.376 . S
C1707 H1694 0.930 . S
C1707 C1706 1.376 . S
C1707 C1708 1.388 . S
C1708 H1695 0.930 . S
C1708 C1707 1.388 . S
C1708 C1709 1.390 . S
C1709 C1708 1.390 . S
C1709 C1710 1.394 . S
C1709 C1715 1.465 . S
C1710 C1705 1.399 . S
C1710 C1709 1.394 . S
C1710 C1711 1.516 . S
C1711 C1710 1.516 . S
C1711 C1712 1.502 . S
C1711 C1713 1.561 . S
C1711 C1714 1.526 . S
C1712 H1696 0.959 . S
C1712 H1697 0.959 . S
C1712 H1698 0.961 . S
C1712 C1711 1.502 . S
C1713 H1699 0.960 . S
C1713 H1700 0.961 . S
C1713 H1701 0.959 . S
C1713 C1711 1.561 . S
C1714 C1711 1.526 . S
C1714 C1715 1.396 . S
C1714 C1719 1.390 . S
C1715 C1709 1.465 . S
C1715 C1714 1.396 . S
C1715 C1716 1.399 . S
C1716 H1702 0.929 . S
C1716 C1715 1.399 . S
C1716 C1717 1.385 . S
C1717 H1703 0.931 . S
C1717 C1716 1.385 . S
C1717 C1718 1.389 . S
C1718 C1717 1.389 . S
C1718 C1719 1.387 . S
C1719 H1704 0.930 . S
C1719 C1714 1.390 . S
C1719 C1718 1.387 . S
H1720 C1732 0.930 . S
H1721 C1734 0.930 . S
H1722 C1735 0.930 . S
H1723 C1739 0.959 . S
H1724 C1739 0.961 . S
H1725 C1739 0.961 . S
H1726 C1740 0.941 1_556 S
H1727 C1740 0.987 . S
H1728 C1740 0.968 . S
H1729 C1743 0.929 . S
H1730 C1744 0.931 . S
H1731 C1746 0.930 . S
C1732 H1720 0.930 . S
C1732 C1733 1.399 . S
C1732 C1737 1.399 . S
C1733 C1732 1.399 . S
C1733 C1734 1.376 . S
C1734 H1721 0.930 . S
C1734 C1733 1.376 . S
C1734 C1735 1.388 . S
C1735 H1722 0.930 . S
C1735 C1734 1.388 . S
C1735 C1736 1.390 . S
C1736 C1735 1.390 . S
C1736 C1737 1.394 . S
C1736 C1742 1.465 . S
C1737 C1732 1.399 . S
C1737 C1736 1.394 . S
C1737 C1738 1.516 . S
C1738 C1737 1.516 . S
C1738 C1739 1.502 . S
C1738 C1740 1.547 1_556 S
C1738 C1741 1.524 1_556 S
C1739 H1723 0.959 . S
C1739 H1724 0.961 . S
C1739 H1725 0.961 . S
C1739 C1738 1.502 . S
C1740 H1726 0.941 1_554 S
C1740 H1727 0.987 . S
C1740 H1728 0.968 . S
C1740 C1738 1.547 1_554 S
C1741 C1738 1.524 1_554 S
C1741 C1742 1.395 1_554 S
C1741 C1746 1.392 . S
C1742 C1736 1.465 . S
C1742 C1741 1.395 1_556 S
C1742 C1743 1.399 . S
C1743 H1729 0.929 . S
C1743 C1742 1.399 . S
C1743 C1744 1.385 1_556 S
C1744 H1730 0.931 . S
C1744 C1743 1.385 1_554 S
C1744 C1745 1.389 . S
C1745 C1744 1.389 . S
C1745 C1746 1.387 . S
C1746 H1731 0.930 . S
C1746 C1741 1.392 . S
C1746 C1745 1.387 . S
H1747 C1759 0.930 . S
H1748 C1761 0.930 . S
H1749 C1762 0.930 . S
H1750 C1766 0.959 . S
H1751 C1766 0.959 . S
H1752 C1766 0.961 . S
H1753 C1767 0.960 . S
H1754 C1767 0.961 . S
H1755 C1767 0.959 . S
H1756 C1770 0.929 . S
H1757 C1771 0.931 . S
H1758 C1773 0.930 . S
C1759 H1747 0.930 . S
C1759 C1760 1.399 . S
C1759 C1764 1.399 . S
C1760 C1759 1.399 . S
C1760 C1761 1.376 . S
C1761 H1748 0.930 . S
C1761 C1760 1.376 . S
C1761 C1762 1.388 . S
C1762 H1749 0.930 . S
C1762 C1761 1.388 . S
C1762 C1763 1.390 . S
C1763 C1762 1.390 . S
C1763 C1764 1.394 . S
C1763 C1769 1.465 . S
C1764 C1759 1.399 . S
C1764 C1763 1.394 . S
C1764 C1765 1.516 . S
C1765 C1764 1.516 . S
C1765 C1766 1.502 . S
C1765 C1767 1.561 . S
C1765 C1768 1.526 . S
C1766 H1750 0.959 . S
C1766 H1751 0.959 . S
C1766 H1752 0.961 . S
C1766 C1765 1.502 . S
C1767 H1753 0.960 . S
C1767 H1754 0.961 . S
C1767 H1755 0.959 . S
C1767 C1765 1.561 . S
C1768 C1765 1.526 . S
C1768 C1769 1.396 . S
C1768 C1773 1.390 . S
C1769 C1763 1.465 . S
C1769 C1768 1.396 . S
C1769 C1770 1.399 . S
C1770 H1756 0.929 . S
C1770 C1769 1.399 . S
C1770 C1771 1.385 . S
C1771 H1757 0.931 . S
C1771 C1770 1.385 . S
C1771 C1772 1.389 . S
C1772 C1771 1.389 . S
C1772 C1773 1.387 . S
C1773 H1758 0.930 . S
C1773 C1768 1.390 . S
C1773 C1772 1.387 . S
H1774 C1786 0.930 . S
H1775 C1788 0.930 . S
H1776 C1789 0.930 . S
H1777 C1793 0.959 . S
H1778 C1793 0.959 . S
H1779 C1793 0.961 . S
H1780 C1794 0.960 . S
H1781 C1794 0.961 . S
H1782 C1794 0.959 . S
H1783 C1797 0.929 . S
H1784 C1798 0.931 . S
H1785 C1800 0.930 . S
C1786 H1774 0.930 . S
C1786 C1787 1.399 . S
C1786 C1791 1.399 . S
C1787 C1786 1.399 . S
C1787 C1788 1.376 . S
C1788 H1775 0.930 . S
C1788 C1787 1.376 . S
C1788 C1789 1.388 . S
C1789 H1776 0.930 . S
C1789 C1788 1.388 . S
C1789 C1790 1.390 . S
C1790 C1789 1.390 . S
C1790 C1791 1.394 . S
C1790 C1796 1.465 . S
C1791 C1786 1.399 . S
C1791 C1790 1.394 . S
C1791 C1792 1.516 . S
C1792 C1791 1.516 . S
C1792 C1793 1.502 . S
C1792 C1794 1.561 . S
C1792 C1795 1.526 . S
C1793 H1777 0.959 . S
C1793 H1778 0.959 . S
C1793 H1779 0.961 . S
C1793 C1792 1.502 . S
C1794 H1780 0.960 . S
C1794 H1781 0.961 . S
C1794 H1782 0.959 . S
C1794 C1792 1.561 . S
C1795 C1792 1.526 . S
C1795 C1796 1.396 . S
C1795 C1800 1.390 . S
C1796 C1790 1.465 . S
C1796 C1795 1.396 . S
C1796 C1797 1.399 . S
C1797 H1783 0.929 . S
C1797 C1796 1.399 . S
C1797 C1798 1.385 . S
C1798 H1784 0.931 . S
C1798 C1797 1.385 . S
C1798 C1799 1.389 . S
C1799 C1798 1.389 . S
C1799 C1800 1.387 . S
C1800 H1785 0.930 . S
C1800 C1795 1.390 . S
C1800 C1799 1.387 . S
H1801 C1813 0.930 . S
H1802 C1815 0.930 . S
H1803 C1816 0.930 . S
H1804 C1820 0.959 . S
H1805 C1820 0.959 . S
H1806 C1820 0.961 . S
H1807 C1821 0.960 . S
H1808 C1821 0.961 . S
H1809 C1821 0.959 . S
H1810 C1824 0.929 . S
H1811 C1825 0.931 . S
H1812 C1827 0.930 . S
C1813 H1801 0.930 . S
C1813 C1814 1.399 . S
C1813 C1818 1.399 . S
C1814 C1813 1.399 . S
C1814 C1815 1.376 . S
C1815 H1802 0.930 . S
C1815 C1814 1.376 . S
C1815 C1816 1.388 . S
C1816 H1803 0.930 . S
C1816 C1815 1.388 . S
C1816 C1817 1.390 . S
C1817 C1816 1.390 . S
C1817 C1818 1.394 . S
C1817 C1823 1.465 . S
C1818 C1813 1.399 . S
C1818 C1817 1.394 . S
C1818 C1819 1.516 . S
C1819 C1818 1.516 . S
C1819 C1820 1.502 . S
C1819 C1821 1.561 . S
C1819 C1822 1.526 . S
C1820 H1804 0.959 . S
C1820 H1805 0.959 . S
C1820 H1806 0.961 . S
C1820 C1819 1.502 . S
C1821 H1807 0.960 . S
C1821 H1808 0.961 . S
C1821 H1809 0.959 . S
C1821 C1819 1.561 . S
C1822 C1819 1.526 . S
C1822 C1823 1.396 . S
C1822 C1827 1.390 . S
C1823 C1817 1.465 . S
C1823 C1822 1.396 . S
C1823 C1824 1.399 . S
C1824 H1810 0.929 . S
C1824 C1823 1.399 . S
C1824 C1825 1.385 . S
C1825 H1811 0.931 . S
C1825 C1824 1.385 . S
C1825 C1826 1.389 . S
C1826 C1825 1.389 . S
C1826 C1827 1.387 . S
C1827 H1812 0.930 . S
C1827 C1822 1.390 . S
C1827 C1826 1.387 . S
H1828 C1840 0.930 . S
H1829 C1842 0.930 . S
H1830 C1843 0.930 . S
H1831 C1847 0.959 . S
H1832 C1847 0.959 . S
H1833 C1847 0.961 . S
H1834 C1848 0.960 . S
H1835 C1848 0.961 . S
H1836 C1848 0.959 . S
H1837 C1851 0.929 . S
H1838 C1852 0.931 . S
H1839 C1854 0.930 . S
C1840 H1828 0.930 . S
C1840 C1841 1.399 . S
C1840 C1845 1.399 . S
C1841 C1840 1.399 . S
C1841 C1842 1.376 . S
C1842 H1829 0.930 . S
C1842 C1841 1.376 . S
C1842 C1843 1.388 . S
C1843 H1830 0.930 . S
C1843 C1842 1.388 . S
C1843 C1844 1.390 . S
C1844 C1843 1.390 . S
C1844 C1845 1.394 . S
C1844 C1850 1.465 . S
C1845 C1840 1.399 . S
C1845 C1844 1.394 . S
C1845 C1846 1.516 . S
C1846 C1845 1.516 . S
C1846 C1847 1.502 . S
C1846 C1848 1.561 . S
C1846 C1849 1.526 . S
C1847 H1831 0.959 . S
C1847 H1832 0.959 . S
C1847 H1833 0.961 . S
C1847 C1846 1.502 . S
C1848 H1834 0.960 . S
C1848 H1835 0.961 . S
C1848 H1836 0.959 . S
C1848 C1846 1.561 . S
C1849 C1846 1.526 . S
C1849 C1850 1.396 . S
C1849 C1854 1.390 . S
C1850 C1844 1.465 . S
C1850 C1849 1.396 . S
C1850 C1851 1.399 . S
C1851 H1837 0.929 . S
C1851 C1850 1.399 . S
C1851 C1852 1.385 1_554 S
C1852 H1838 0.931 . S
C1852 C1851 1.385 1_556 S
C1852 C1853 1.389 . S
C1853 C1852 1.389 . S
C1853 C1854 1.387 1_556 S
C1854 H1839 0.930 . S
C1854 C1849 1.390 . S
C1854 C1853 1.387 1_554 S
H1855 C1867 0.930 . S
H1856 C1869 0.930 . S
H1857 C1870 0.930 . S
H1858 C1874 0.959 . S
H1859 C1874 0.959 . S
H1860 C1874 0.961 . S
H1861 C1875 0.960 . S
H1862 C1875 0.961 . S
H1863 C1875 0.959 . S
H1864 C1878 0.929 . S
H1865 C1879 0.931 . S
H1866 C1881 0.930 . S
C1867 H1855 0.930 . S
C1867 C1868 1.399 . S
C1867 C1872 1.399 . S
C1868 C1867 1.399 . S
C1868 C1869 1.376 . S
C1869 H1856 0.930 . S
C1869 C1868 1.376 . S
C1869 C1870 1.388 . S
C1870 H1857 0.930 . S
C1870 C1869 1.388 . S
C1870 C1871 1.390 . S
C1871 C1870 1.390 . S
C1871 C1872 1.394 . S
C1871 C1877 1.465 . S
C1872 C1867 1.399 . S
C1872 C1871 1.394 . S
C1872 C1873 1.516 . S
C1873 C1872 1.516 . S
C1873 C1874 1.502 . S
C1873 C1875 1.561 . S
C1873 C1876 1.526 . S
C1874 H1858 0.959 . S
C1874 H1859 0.959 . S
C1874 H1860 0.961 . S
C1874 C1873 1.502 . S
C1875 H1861 0.960 . S
C1875 H1862 0.961 . S
C1875 H1863 0.959 . S
C1875 C1873 1.561 . S
C1876 C1873 1.526 . S
C1876 C1877 1.396 . S
C1876 C1881 1.390 . S
C1877 C1871 1.465 . S
C1877 C1876 1.396 . S
C1877 C1878 1.399 . S
C1878 H1864 0.929 . S
C1878 C1877 1.399 . S
C1878 C1879 1.385 . S
C1879 H1865 0.931 . S
C1879 C1878 1.385 . S
C1879 C1880 1.389 . S
C1880 C1879 1.389 . S
C1880 C1881 1.387 . S
C1881 H1866 0.930 . S
C1881 C1876 1.390 . S
C1881 C1880 1.387 . S
H1882 C1894 0.930 . S
H1883 C1896 0.930 . S
H1884 C1897 0.930 . S
H1885 C1901 0.959 . S
H1886 C1901 0.959 . S
H1887 C1901 0.961 . S
H1888 C1902 0.960 . S
H1889 C1902 0.961 . S
H1890 C1902 0.959 . S
H1891 C1905 0.929 . S
H1892 C1906 0.931 . S
H1893 C1908 0.930 . S
C1894 H1882 0.930 . S
C1894 C1895 1.399 . S
C1894 C1899 1.399 . S
C1895 C1894 1.399 . S
C1895 C1896 1.376 . S
C1896 H1883 0.930 . S
C1896 C1895 1.376 . S
C1896 C1897 1.388 . S
C1897 H1884 0.930 . S
C1897 C1896 1.388 . S
C1897 C1898 1.390 . S
C1898 C1897 1.390 . S
C1898 C1899 1.394 . S
C1898 C1904 1.465 . S
C1899 C1894 1.399 . S
C1899 C1898 1.394 . S
C1899 C1900 1.516 . S
C1900 C1899 1.516 . S
C1900 C1901 1.502 . S
C1900 C1902 1.561 . S
C1900 C1903 1.526 . S
C1901 H1885 0.959 . S
C1901 H1886 0.959 . S
C1901 H1887 0.961 . S
C1901 C1900 1.502 . S
C1902 H1888 0.960 . S
C1902 H1889 0.961 . S
C1902 H1890 0.959 . S
C1902 C1900 1.561 . S
C1903 C1900 1.526 . S
C1903 C1904 1.396 . S
C1903 C1908 1.390 . S
C1904 C1898 1.465 . S
C1904 C1903 1.396 . S
C1904 C1905 1.399 . S
C1905 H1891 0.929 . S
C1905 C1904 1.399 . S
C1905 C1906 1.385 . S
C1906 H1892 0.931 . S
C1906 C1905 1.385 . S
C1906 C1907 1.389 . S
C1907 C1906 1.389 . S
C1907 C1908 1.387 . S
C1908 H1893 0.930 . S
C1908 C1903 1.390 . S
C1908 C1907 1.387 . S
H1909 C1921 0.930 . S
H1910 C1923 0.930 . S
H1911 C1924 0.930 . S
H1912 C1928 0.959 . S
H1913 C1928 0.959 . S
H1914 C1928 0.961 . S
H1915 C1929 0.960 . S
H1916 C1929 0.961 . S
H1917 C1929 0.959 . S
H1918 C1932 0.929 . S
H1919 C1933 0.931 . S
H1920 C1935 0.930 . S
C1921 H1909 0.930 . S
C1921 C1922 1.399 . S
C1921 C1926 1.399 . S
C1922 C1921 1.399 . S
C1922 C1923 1.376 . S
C1923 H1910 0.930 . S
C1923 C1922 1.376 . S
C1923 C1924 1.388 . S
C1924 H1911 0.930 . S
C1924 C1923 1.388 . S
C1924 C1925 1.390 . S
C1925 C1924 1.390 . S
C1925 C1926 1.394 . S
C1925 C1931 1.465 . S
C1926 C1921 1.399 . S
C1926 C1925 1.394 . S
C1926 C1927 1.516 . S
C1927 C1926 1.516 . S
C1927 C1928 1.502 . S
C1927 C1929 1.561 . S
C1927 C1930 1.526 . S
C1928 H1912 0.959 . S
C1928 H1913 0.959 . S
C1928 H1914 0.961 . S
C1928 C1927 1.502 . S
C1929 H1915 0.960 . S
C1929 H1916 0.961 . S
C1929 H1917 0.959 . S
C1929 C1927 1.561 . S
C1930 C1927 1.526 . S
C1930 C1931 1.396 . S
C1930 C1935 1.390 . S
C1931 C1925 1.465 . S
C1931 C1930 1.396 . S
C1931 C1932 1.399 . S
C1932 H1918 0.929 . S
C1932 C1931 1.399 . S
C1932 C1933 1.385 . S
C1933 H1919 0.931 . S
C1933 C1932 1.385 . S
C1933 C1934 1.389 . S
C1934 C1933 1.389 . S
C1934 C1935 1.387 . S
C1935 H1920 0.930 . S
C1935 C1930 1.390 . S
C1935 C1934 1.387 . S
C653 C19 0.447 . S
C665 C286 0.465 . S
C680 C59 0.879 . S
C692 C166 0.952 . S
C707 C206 1.000 . S
C719 C86 0.806 . S
C734 C139 0.941 . S
C746 C246 1.011 . S
C761 C455 1.003 . S
C773 C170 0.973 . S
C788 C330 1.932 . S
C800 C15 1.937 . S
C815 C415 0.858 . S
C827 C250 0.909 . S
C842 C90 2.686 . S
C854 C370 2.716 . S
C869 C366 0.617 . S
C881 C499 0.462 . S
C896 C419 0.910 . S
C908 C566 0.853 . S
C923 C526 0.868 . S
C935 C326 0.988 . S
C950 C459 0.941 . S
C962 C606 1.010 . S
C977 C570 0.951 . S
C989 C135 0.893 . S
C1004 C495 1.950 . S
C1016 C210 1.952 . S
C1031 C55 0.965 . S
C1043 C610 0.923 . S
C1058 C290 2.720 . S
C1070 C530 2.685 1_556 S
C1085 C529 0.587 . S
C1097 C18 0.587 . S
C1112 C458 0.561 . S
C1124 C58 0.402 . S
C1139 C498 0.534 . S
C1151 C89 0.479 . S
C1166 C418 0.441 . S
C1178 C138 0.650 . S
C1193 C169 0.609 . S
C1205 C609 0.533 . S
C1220 C369 0.643 . S
C1232 C209 0.847 . S
C1247 C249 0.331 . S
C1259 C569 0.438 . S
C1274 C289 0.782 . S
C1286 C329 0.684 . S
C1301 C9 1.576 . S
C1313 C178 1.586 . S
C1328 C49 1.735 . S
C1340 C218 1.786 . S
C1355 C258 1.539 . S
C1367 C98 1.464 . S
C1382 C129 1.354 . S
C1394 C298 1.457 . S
C1409 C409 1.735 . S
C1421 C338 1.786 . S
C1436 C449 1.354 . S
C1448 C378 1.456 . S
C1463 C489 1.564 . S
C1475 C578 1.595 . S
C1490 C618 1.446 . S
C1502 C538 1.527 . S
C1517 C6 2.845 . S
C1529 C299 2.898 . S
C1544 C46 1.948 . S
C1556 C179 2.048 . S
C1571 C219 3.640 1_556 S
C1583 C99 3.631 . S
C1598 C259 2.058 . S
C1610 C126 1.991 . S
C1625 C450 2.030 . S
C1637 C175 1.983 . S
C1652 C335 0.996 . S
C1664 C10 0.983 . S
C1679 C410 2.029 . S
C1691 C255 1.962 . S
C1706 C95 0.563 . S
C1718 C375 0.674 . S
C1733 C486 2.854 . S
C1745 C379 2.908 . S
C1760 C579 2.048 . S
C1772 C406 1.951 . S
C1787 C539 3.616 . S
C1799 C339 3.643 . S
C1814 C619 2.083 . S
C1826 C446 1.972 . S
C1841 C575 1.992 . S
C1853 C130 2.034 . S
C1868 C215 1.001 . S
C1880 C490 0.980 . S
C1895 C50 2.027 . S
C1907 C615 1.969 . S
C1922 C535 0.675 . S
C1934 C295 0.539 . S
