# Generated by pormake.
# Topology smm, (6)-cn, num edge types: 1
# Building blocks:
#     Node 0, Type 0, BuildingBlock: MIFKUJ_clean_sbu_0, # of connection points: 6
#     Node 1, Type 0, BuildingBlock: MIFKUJ_clean_sbu_0, # of connection points: 6
#     Node 2, Type 0, BuildingBlock: MIFKUJ_clean_sbu_0, # of connection points: 6
#     Node 3, Type 0, BuildingBlock: MIFKUJ_clean_sbu_0, # of connection points: 6
#     Node 4, Type 0, BuildingBlock: MIFKUJ_clean_sbu_0, # of connection points: 6
#     Node 5, Type 0, BuildingBlock: MIFKUJ_clean_sbu_0, # of connection points: 6
#     Node 6, Type 0, BuildingBlock: MIFKUJ_clean_sbu_0, # of connection points: 6
#     Node 7, Type 0, BuildingBlock: MIFKUJ_clean_sbu_0, # of connection points: 6
#     Node 8, Type 0, BuildingBlock: MIFKUJ_clean_sbu_0, # of connection points: 6
#     Edge 9, Type (0, 0), BuildingBlock: EYOCIG_clean_linker_4, # of connection points: 2
#     Edge 10, Type (0, 0), BuildingBlock: EYOCIG_clean_linker_4, # of connection points: 2
#     Edge 11, Type (0, 0), BuildingBlock: EYOCIG_clean_linker_4, # of connection points: 2
#     Edge 12, Type (0, 0), BuildingBlock: EYOCIG_clean_linker_4, # of connection points: 2
#     Edge 13, Type (0, 0), BuildingBlock: EYOCIG_clean_linker_4, # of connection points: 2
#     Edge 14, Type (0, 0), BuildingBlock: EYOCIG_clean_linker_4, # of connection points: 2
#     Edge 15, Type (0, 0), BuildingBlock: EYOCIG_clean_linker_4, # of connection points: 2
#     Edge 16, Type (0, 0), BuildingBlock: EYOCIG_clean_linker_4, # of connection points: 2
#     Edge 17, Type (0, 0), BuildingBlock: EYOCIG_clean_linker_4, # of connection points: 2
#     Edge 18, Type (0, 0), BuildingBlock: EYOCIG_clean_linker_4, # of connection points: 2
#     Edge 19, Type (0, 0), BuildingBlock: EYOCIG_clean_linker_4, # of connection points: 2
#     Edge 20, Type (0, 0), BuildingBlock: EYOCIG_clean_linker_4, # of connection points: 2
#     Edge 21, Type (0, 0), BuildingBlock: EYOCIG_clean_linker_4, # of connection points: 2
#     Edge 22, Type (0, 0), BuildingBlock: EYOCIG_clean_linker_4, # of connection points: 2
#     Edge 23, Type (0, 0), BuildingBlock: EYOCIG_clean_linker_4, # of connection points: 2
#     Edge 24, Type (0, 0), BuildingBlock: EYOCIG_clean_linker_4, # of connection points: 2
#     Edge 25, Type (0, 0), BuildingBlock: EYOCIG_clean_linker_4, # of connection points: 2
#     Edge 26, Type (0, 0), BuildingBlock: EYOCIG_clean_linker_4, # of connection points: 2
#     Edge 27, Type (0, 0), BuildingBlock: EYOCIG_clean_linker_4, # of connection points: 2
#     Edge 28, Type (0, 0), BuildingBlock: EYOCIG_clean_linker_4, # of connection points: 2
#     Edge 29, Type (0, 0), BuildingBlock: EYOCIG_clean_linker_4, # of connection points: 2
#     Edge 30, Type (0, 0), BuildingBlock: EYOCIG_clean_linker_4, # of connection points: 2
#     Edge 31, Type (0, 0), BuildingBlock: EYOCIG_clean_linker_4, # of connection points: 2
#     Edge 32, Type (0, 0), BuildingBlock: EYOCIG_clean_linker_4, # of connection points: 2
#     Edge 33, Type (0, 0), BuildingBlock: EYOCIG_clean_linker_4, # of connection points: 2
#     Edge 34, Type (0, 0), BuildingBlock: EYOCIG_clean_linker_4, # of connection points: 2
#     Edge 35, Type (0, 0), BuildingBlock: EYOCIG_clean_linker_4, # of connection points: 2
# Relax obj value: 0.031
# Max RMSD: 0.122
# Mean RMSD: 0.106
data_MOF--net-smm--node1-MIFKUJ_clean_sbu_0--edge1-EYOCIG_clean_linker_4
_symmetry_space_group_name_H-M    P1
_symmetry_Int_Tables_number       1
_symmetry_cell_setting            triclinic
loop_
_symmetry_equiv_pos_as_xyz
'x, y, z'
_cell_length_a     50.580443
_cell_length_b     52.334225
_cell_length_c     10.856888
_cell_angle_alpha  92.953492
_cell_angle_beta   93.419967
_cell_angle_gamma 119.91064
loop_
_atom_site_label
_atom_site_type_symbol
_atom_site_fract_x
_atom_site_fract_y
_atom_site_fract_z
_atom_type_partial_charge
Zn0 Zn -0.00767 0.12718 0.0193 0.0
Zn1 Zn 0.0111 0.21015 0.02736 0.0
C2 C 0.03836 0.11322 -0.01164 0.0
O3 O 0.01878 0.09818 0.8914 0.0
C4 C 0.96669 0.22438 0.08044 0.0
O5 O 0.99046 0.24203 0.15918 0.0
O6 O 0.9591 0.0849 0.00602 0.0
O7 O 0.98171 0.15099 0.13478 0.0
O8 O 0.01453 0.19777 0.19381 0.0
C9 C 0.95609 0.0679 0.08948 0.0
O10 O 0.97505 0.07785 0.19095 0.0
O11 O 0.03278 0.12902 0.06331 0.0
C12 C 0.0444 0.26522 0.92991 0.0
O13 O 0.02181 0.25096 0.84208 0.0
O14 O 0.04473 0.25284 0.02687 0.0
O15 O 0.02137 0.18766 0.89894 0.0
O16 O -0.00872 0.13944 0.85276 0.0
O17 O 0.96899 0.20704 0.00076 0.0
C18 C 0.00069 0.17092 0.21651 0.0
C19 C 0.00397 0.16561 0.8217 0.0
Zn20 Zn 0.86703 0.86527 0.02516 0.0
Zn21 Zn 0.79915 0.78077 0.01308 0.0
C22 C 0.92987 0.88205 0.05507 0.0
O23 O 0.92831 0.89651 0.15411 0.0
C24 C 0.73959 0.76632 0.94691 0.0
O25 O 0.74446 0.74909 0.87124 0.0
O26 O 0.87533 0.90682 0.03721 0.0
O27 O 0.83035 0.84064 0.89904 0.0
O28 O 0.81267 0.79324 0.84698 0.0
C29 C 0.88808 0.92454 0.95647 0.0
O30 O 0.89683 0.91609 0.8587 0.0
O31 O 0.90575 0.86558 -0.01721 0.0
C32 C 0.77754 0.72506 0.11162 0.0
O33 O 0.7693 0.73816 0.19442 0.0
O34 O 0.79007 0.7384 0.01887 0.0
O35 O 0.83553 0.80577 0.13904 0.0
O36 O 0.85624 0.85324 0.19372 0.0
O37 O 0.7606 0.78348 0.031 0.0
C38 C 0.82692 0.81994 0.82141 0.0
C39 C 0.84028 0.82668 0.21802 0.0
Zn40 Zn 0.13433 0.00394 -0.01941 0.0
Zn41 Zn 0.20369 0.98865 0.97234 0.0
C42 C 0.07224 0.95755 0.9425 0.0
O43 O 0.07282 0.97346 0.85207 0.0
C44 C 0.26295 0.03448 0.03664 0.0
O45 O 0.25986 0.01403 0.10884 0.0
O46 O 0.12453 0.03644 -0.01983 0.0
O47 O 0.17095 0.01679 0.1063 0.0
O48 O 0.19037 0.98805 0.14058 0.0
C49 C 0.1114 0.0418 0.06487 0.0
O50 O 0.10307 0.02538 0.15813 0.0
O51 O 0.09655 0.96567 0.0132 0.0
C52 C 0.22734 0.9557 0.85872 0.0
O53 O 0.23433 0.97622 0.78211 0.0
O54 O 0.21475 0.95663 0.95496 0.0
O55 O 0.16732 0.97586 0.84658 0.0
O56 O 0.14571 0.00247 0.81067 0.0
O57 O 0.24086 0.02923 0.95762 0.0
C58 C 0.17541 0.00014 0.17531 0.0
C59 C 0.16181 -0.00835 0.77672 0.0
Zn60 Zn 0.68098 0.46608 0.25033 0.0
Zn61 Zn 0.66355 0.53212 0.26796 0.0
C62 C 0.63398 0.40668 0.26529 0.0
O63 O 0.65292 0.41017 0.36118 0.0
C64 C 0.70736 0.5891 0.2242 0.0
O65 O 0.68378 0.58224 0.14452 0.0
O66 O 0.71423 0.45589 0.25942 0.0
O67 O 0.69182 0.49885 0.13918 0.0
O68 O 0.65979 0.51502 0.09846 0.0
C69 C 0.71753 0.44125 0.17128 0.0
O70 O 0.69904 0.43252 0.06867 0.0
O71 O 0.64038 0.42814 0.19974 0.0
C72 C 0.63126 0.55554 0.38007 0.0
O73 O 0.65421 0.56329 0.46453 0.0
O74 O 0.63014 0.54224 0.27733 0.0
O75 O 0.65263 0.50045 0.38606 0.0
O76 O 0.68199 0.48093 0.42038 0.0
O77 O 0.70538 0.57051 0.29972 0.0
C78 C 0.67287 0.50096 0.0647 0.0
C79 C 0.66963 0.49529 0.45852 0.0
Zn80 Zn 0.53046 0.20382 0.22767 0.0
Zn81 Zn 0.4638 0.11926 0.22195 0.0
C82 C 0.5919 0.21818 0.26402 0.0
O83 O 0.59058 0.23396 0.3588 0.0
C84 C 0.40413 0.10599 0.16354 0.0
O85 O 0.40796 0.08899 0.08227 0.0
O86 O 0.54061 0.24632 0.23273 0.0
O87 O 0.49358 0.17838 0.1009 0.0
O88 O 0.47611 0.13074 0.05266 0.0
C89 C 0.55408 0.26328 0.15022 0.0
O90 O 0.562 0.25336 0.05409 0.0
O91 O 0.56804 0.20199 0.19032 0.0
C92 C 0.44094 0.06509 0.33088 0.0
O93 O 0.43219 0.07945 0.40483 0.0
O94 O 0.45465 0.07706 0.23772 0.0
O95 O 0.50097 0.14613 0.33971 0.0
O96 O 0.52001 0.193 0.39861 0.0
O97 O 0.42595 0.12263 0.24563 0.0
C98 C 0.48968 0.15728 0.02406 0.0
C99 C 0.50449 0.16622 0.42046 0.0
Zn100 Zn 0.79907 0.31891 0.24595 0.0
Zn101 Zn 0.88394 0.33662 0.27636 0.0
C102 C 0.78475 0.3646 0.28156 0.0
O103 O 0.77047 0.34824 0.36976 0.0
C104 C 0.89848 0.29276 0.21449 0.0
O105 O 0.91484 0.31383 0.14517 0.0
O106 O 0.75577 0.28703 0.24391 0.0
O107 O 0.81955 0.30602 0.12566 0.0
O108 O 0.86822 0.33778 0.10931 0.0
C109 C 0.73538 0.28189 0.15773 0.0
O110 O 0.74237 0.2978 0.0627 0.0
O111 O 0.79994 0.35717 0.21398 0.0
C112 C 0.94288 0.37185 0.39442 0.0
O113 O 0.93091 0.35124 0.47082 0.0
O114 O 0.92748 0.36984 0.2946 0.0
O115 O 0.86458 0.3483 0.40871 0.0
O116 O 0.81455 0.31986 0.41443 0.0
O117 O 0.88212 0.29674 0.28915 0.0
C118 C 0.84055 0.32381 0.06428 0.0
C119 C 0.84159 0.33222 0.46547 0.0
Zn120 Zn 0.33048 0.79803 0.64328 0.0
Zn121 Zn 0.34724 0.8812 0.64418 0.0
C122 C 0.37711 0.78368 0.62858 0.0
O123 O 0.359 0.76813 0.52879 0.0
C124 C 0.30242 0.8939 0.69785 0.0
O125 O 0.32619 0.9117 0.77637 0.0
O126 O 0.29736 0.75593 0.63597 0.0
O127 O 0.31951 0.82242 0.76036 0.0
O128 O 0.3504 0.87012 0.81518 0.0
C129 C 0.29447 0.74016 0.72423 0.0
O130 O 0.31361 0.75134 0.82506 0.0
O131 O 0.37048 0.79991 0.69561 0.0
C132 C 0.37757 0.93433 0.53114 0.0
O133 O 0.35314 0.91858 0.45269 0.0
O134 O 0.3807 0.92359 0.62948 0.0
O135 O 0.35605 0.85463 0.53526 0.0
O136 O 0.32922 0.80789 0.46978 0.0
O137 O 0.30488 0.87694 0.61688 0.0
C138 C 0.33726 0.84344 0.84193 0.0
C139 C 0.33933 0.83456 0.44957 0.0
Zn140 Zn 0.20516 0.53804 0.69271 0.0
Zn141 Zn 0.13972 0.4549 0.67868 0.0
C142 C 0.26751 0.55477 0.73622 0.0
O143 O 0.26465 0.5696 0.8306 0.0
C144 C 0.08079 0.44008 0.60772 0.0
O145 O 0.0857 0.42178 0.53922 0.0
O146 O 0.21338 0.57936 0.69883 0.0
O147 O 0.16925 0.51304 0.5673 0.0
O148 O 0.1543 0.46645 0.51411 0.0
C149 C 0.22684 0.59655 0.61742 0.0
O150 O 0.23647 0.58761 0.524 0.0
O151 O 0.24426 0.53804 0.66011 0.0
C152 C 0.11642 0.40063 0.78326 0.0
O153 O 0.10956 0.41551 0.86335 0.0
O154 O 0.12902 0.41241 0.68808 0.0
O155 O 0.17436 0.47848 0.81337 0.0
O156 O 0.19308 0.52626 0.85865 0.0
O157 O 0.10163 0.45835 0.6897 0.0
C158 C 0.16772 0.49323 0.49025 0.0
C159 C 0.17891 0.5 0.88827 0.0
Zn160 Zn 0.47345 0.67609 0.69213 0.0
Zn161 Zn 0.5407 0.65812 0.68618 0.0
C162 C 0.41147 0.6296 0.64965 0.0
O163 O 0.4125 0.64549 0.55848 0.0
C164 C 0.60032 0.70107 0.76177 0.0
O165 O 0.59475 0.67928 0.82988 0.0
O166 O 0.46346 0.7085 0.69061 0.0
O167 O 0.50967 0.68846 0.81739 0.0
O168 O 0.52604 0.65729 0.85136 0.0
C169 C 0.44956 0.714 0.77157 0.0
O170 O 0.44046 0.69786 0.86546 0.0
O171 O 0.43548 0.63771 0.7223 0.0
C172 C 0.56381 0.62505 0.57419 0.0
O173 O 0.57181 0.64632 0.50081 0.0
O174 O 0.55051 0.62532 0.66901 0.0
O175 O 0.50627 0.647 0.55261 0.0
O176 O 0.48575 0.67503 0.52455 0.0
O177 O 0.57964 0.69802 0.67998 0.0
C178 C 0.51266 0.671 0.88608 0.0
C179 C 0.5011 0.66367 0.48702 0.0
C180 C 0.08568 0.31871 0.88283 0.0
C181 C 0.06832 0.29461 0.91398 0.0
C182 C 0.10068 0.34687 0.83806 0.0
C183 C 0.10894 0.37104 0.8041 0.0
C184 C 0.68558 0.7598 0.88669 0.0
C185 C 0.71096 0.76582 0.92744 0.0
C186 C 0.65534 0.7457 0.828 0.0
C187 C 0.62959 0.72778 0.78517 0.0
C188 C 0.24147 0.91528 0.79266 0.0
C189 C 0.23397 0.93248 0.83151 0.0
C190 C 0.25605 0.90072 0.74199 0.0
C191 C 0.27449 0.89435 0.70812 0.0
C192 C 0.34866 0.09748 0.12829 0.0
C193 C 0.37492 0.10444 0.15784 0.0
C194 C 0.31734 0.08153 0.0829 0.0
C195 C 0.29149 0.06206 0.04985 0.0
C196 C 0.90595 0.24722 0.16845 0.0
C197 C 0.8996 0.26577 0.20137 0.0
C198 C 0.9205 0.2321 0.12143 0.0
C199 C 0.9389 0.22539 0.08939 0.0
C200 C 0.76529 0.67141 0.15749 0.0
C201 C 0.772 0.6957 0.12772 0.0
C202 C 0.75173 0.64258 0.19752 0.0
C203 C 0.73427 0.61782 0.22316 0.0
C204 C 0.02705 0.43212 0.5373 0.0
C205 C 0.05232 0.43936 0.58294 0.0
C206 C -0.00252 0.41592 0.47445 0.0
C207 C 0.97257 0.39708 0.4284 0.0
C208 C 0.57736 0.58474 0.5024 0.0
C209 C 0.56994 0.60169 0.54436 0.0
C210 C 0.59128 0.5702 0.44674 0.0
C211 C 0.60793 0.5623 0.40624 0.0
C212 C 0.42845 0.01328 0.40238 0.0
C213 C 0.43552 0.03647 0.35992 0.0
C214 C 0.41562 0.98655 0.45988 0.0
C215 C 0.40022 0.96332 0.50261 0.0
C216 C 0.0956 0.08238 0.0427 0.0
C217 C 0.10299 0.06393 0.05144 0.0
C218 C 0.08083 0.09899 0.03069 0.0
C219 C 0.06247 0.10716 0.01958 0.0
C220 C 0.90371 0.98026 0.00516 0.0
C221 C 0.89668 0.95485 -0.01798 0.0
C222 C 0.91813 0.01085 0.03767 0.0
C223 C 0.93553 0.03688 0.06208 0.0
C224 C 0.98592 0.8981 0.00153 0.0
C225 C 0.95951 0.88932 0.01859 0.0
C226 C 0.01739 0.91493 -0.01561 0.0
C227 C 0.04323 0.93389 0.97132 0.0
C228 C 0.75593 0.42158 0.20926 0.0
C229 C 0.73839 0.43055 0.19183 0.0
C230 C 0.77117 0.40567 0.23172 0.0
C231 C 0.77854 0.38743 0.24891 0.0
C232 C 0.58986 0.3516 0.20541 0.0
C233 C 0.60907 0.37743 0.22508 0.0
C234 C 0.57332 0.32041 0.18507 0.0
C235 C 0.56431 0.29425 0.17098 0.0
C236 C 0.64699 0.23042 0.21426 0.0
C237 C 0.62118 0.22374 0.23175 0.0
C238 C 0.67798 0.24492 0.19146 0.0
C239 C 0.70414 0.26186 0.1751 0.0
C240 C 0.43291 0.75337 0.73046 0.0
C241 C 0.44038 0.73533 0.75026 0.0
C242 C 0.41823 0.76941 0.7007 0.0
C243 C 0.40013 0.77727 0.67418 0.0
C244 C 0.24193 0.65225 0.6571 0.0
C245 C 0.23514 0.62684 0.63813 0.0
C246 C 0.25626 0.68297 0.68439 0.0
C247 C 0.27381 0.70907 0.70371 0.0
C248 C 0.35621 0.58712 0.68725 0.0
C249 C 0.38226 0.60597 0.67672 0.0
C250 C 0.32444 0.57045 0.69872 0.0
C251 C 0.29773 0.56183 0.70867 0.0
C252 C 0.00448 0.16762 0.58243 0.0
C253 C 0.00559 0.16884 0.69307 0.0
C254 C 0.00159 0.16467 0.45292 0.0
C255 C -0.00044 0.16505 0.34278 0.0
C256 C 0.8339 0.8248 0.58471 0.0
C257 C 0.83171 0.82508 0.69444 0.0
C258 C 0.83461 0.82195 0.45542 0.0
C259 C 0.83606 0.82155 0.34522 0.0
C260 C 0.16773 -0.0066 0.53907 0.0
C261 C 0.16629 0.99109 0.64835 0.0
C262 C 0.16835 -0.00244 0.41209 0.0
C263 C 0.1704 0.00032 0.30329 0.0
C264 C 0.66798 0.49621 0.69725 0.0
C265 C 0.66716 0.49684 0.58738 0.0
C266 C 0.67113 0.49512 0.825 0.0
C267 C 0.67369 0.49669 0.93558 0.0
C268 C 0.49571 0.1597 0.65549 0.0
C269 C 0.49858 0.16009 0.5461 0.0
C270 C 0.49454 0.16173 0.78504 0.0
C271 C 0.4931 0.16177 0.89546 0.0
C272 C 0.84215 0.33019 0.70336 0.0
C273 C 0.84494 0.33287 0.59572 0.0
C274 C 0.8365 0.32539 0.82639 0.0
C275 C 0.83503 0.3226 0.93451 0.0
C276 C 0.33821 0.84118 0.21214 0.0
C277 C 0.34022 0.84103 0.32306 0.0
C278 C 0.33586 0.8388 0.08157 0.0
C279 C 0.33511 0.83871 0.97051 0.0
C280 C 0.17626 0.49703 0.12712 0.0
C281 C 0.17664 0.49628 0.01674 0.0
C282 C 0.17581 0.49956 0.256 0.0
C283 C 0.17299 0.49908 0.36483 0.0
C284 C 0.50619 0.66605 0.24957 0.0
C285 C 0.50495 0.66351 0.35845 0.0
C286 C 0.50657 0.67003 0.12293 0.0
C287 C 0.50835 0.67219 0.014 0.0
loop_
_geom_bond_atom_site_label_1
_geom_bond_atom_site_label_2
_geom_bond_distance
_geom_bond_site_symmetry_2
_ccdc_geom_bond_type
Zn0 O6 1.969 1_455 S
Zn0 O7 1.965 1_455 S
Zn0 O11 2.024 . S
Zn0 O16 1.969 1_554 S
Zn1 O8 1.969 . S
Zn1 O14 1.969 . S
Zn1 O15 1.965 1_554 S
Zn1 O17 2.024 1_455 S
C2 O3 1.229 1_554 S
C2 O11 1.058 . S
O3 C2 1.229 1_556 S
C4 O5 1.229 . S
C4 O17 1.058 . S
O5 C4 1.229 . S
O6 Zn0 1.969 1_655 S
O6 C9 1.267 . S
O7 Zn0 1.965 1_655 S
O7 C18 1.260 1_655 S
O8 Zn1 1.969 . S
O8 C18 1.258 . S
C9 O6 1.267 . S
C9 O10 1.228 . S
O10 C9 1.228 . S
O11 Zn0 2.024 . S
O11 C2 1.058 . S
C12 O13 1.228 . S
C12 O14 1.267 1_556 S
O13 C12 1.228 . S
O14 Zn1 1.969 . S
O14 C12 1.267 1_554 S
O15 Zn1 1.965 1_556 S
O15 C19 1.260 . S
O16 Zn0 1.969 1_556 S
O16 C19 1.258 . S
O17 Zn1 2.024 1_655 S
O17 C4 1.058 . S
C18 O7 1.260 1_455 S
C18 O8 1.258 . S
C19 O15 1.260 . S
C19 O16 1.258 . S
Zn20 O26 1.969 . S
Zn20 O27 1.965 1_554 S
Zn20 O31 2.024 . S
Zn20 O36 1.969 . S
Zn21 O28 1.969 1_554 S
Zn21 O34 1.969 . S
Zn21 O35 1.965 . S
Zn21 O37 2.024 . S
C22 O23 1.229 . S
C22 O31 1.058 . S
O23 C22 1.229 . S
C24 O25 1.229 1_554 S
C24 O37 1.058 . S
O25 C24 1.229 1_556 S
O26 Zn20 1.969 . S
O26 C29 1.267 1_554 S
O27 Zn20 1.965 1_556 S
O27 C38 1.260 . S
O28 Zn21 1.969 1_556 S
O28 C38 1.258 . S
C29 O26 1.267 1_556 S
C29 O30 1.228 . S
O30 C29 1.228 . S
O31 Zn20 2.024 . S
O31 C22 1.058 . S
C32 O33 1.228 . S
C32 O34 1.267 . S
O33 C32 1.228 . S
O34 Zn21 1.969 . S
O34 C32 1.267 . S
O35 Zn21 1.965 . S
O35 C39 1.260 . S
O36 Zn20 1.969 . S
O36 C39 1.258 . S
O37 Zn21 2.024 . S
O37 C24 1.058 . S
C38 O27 1.260 . S
C38 O28 1.258 . S
C39 O35 1.260 . S
C39 O36 1.258 . S
Zn40 O46 1.970 . S
Zn40 O47 1.961 1_556 S
Zn40 O51 2.022 1_546 S
Zn40 O56 1.975 . S
Zn41 O48 1.969 . S
Zn41 O54 1.969 1_545 S
Zn41 O55 1.965 1_544 S
Zn41 O57 2.024 1_554 S
C42 O43 1.229 . S
C42 O51 1.058 1_556 S
O43 C42 1.229 . S
C44 O45 1.229 . S
C44 O57 1.058 1_554 S
O45 C44 1.229 . S
O46 Zn40 1.970 . S
O46 C49 1.267 1_556 S
O47 Zn40 1.961 1_554 S
O47 C58 1.260 . S
O48 Zn41 1.969 . S
O48 C58 1.258 . S
C49 O46 1.267 1_554 S
C49 O50 1.228 . S
O50 C49 1.228 . S
O51 Zn40 2.022 1_564 S
O51 C42 1.058 1_554 S
C52 O53 1.228 . S
C52 O54 1.267 1_556 S
O53 C52 1.228 . S
O54 Zn41 1.969 1_565 S
O54 C52 1.267 1_554 S
O55 Zn41 1.965 1_566 S
O55 C59 1.260 1_565 S
O56 Zn40 1.975 . S
O56 C59 1.258 . S
O57 Zn41 2.024 1_556 S
O57 C44 1.058 1_556 S
C58 O47 1.260 . S
C58 O48 1.258 . S
C59 O55 1.260 1_545 S
C59 O56 1.258 . S
Zn60 O66 1.969 . S
Zn60 O67 1.965 . S
Zn60 O71 2.024 . S
Zn60 O76 1.969 . S
Zn61 O68 1.969 . S
Zn61 O74 1.969 . S
Zn61 O75 1.965 . S
Zn61 O77 2.024 . S
C62 O63 1.229 . S
C62 O71 1.058 . S
O63 C62 1.229 . S
C64 O65 1.229 . S
C64 O77 1.058 . S
O65 C64 1.229 . S
O66 Zn60 1.969 . S
O66 C69 1.267 . S
O67 Zn60 1.965 . S
O67 C78 1.260 . S
O68 Zn61 1.969 . S
O68 C78 1.258 . S
C69 O66 1.267 . S
C69 O70 1.228 . S
O70 C69 1.228 . S
O71 Zn60 2.024 . S
O71 C62 1.058 . S
C72 O73 1.228 . S
C72 O74 1.267 . S
O73 C72 1.228 . S
O74 Zn61 1.969 . S
O74 C72 1.267 . S
O75 Zn61 1.965 . S
O75 C79 1.260 . S
O76 Zn60 1.969 . S
O76 C79 1.258 . S
O77 Zn61 2.024 . S
O77 C64 1.058 . S
C78 O67 1.260 . S
C78 O68 1.258 . S
C79 O75 1.260 . S
C79 O76 1.258 . S
Zn80 O86 1.969 . S
Zn80 O87 1.965 . S
Zn80 O91 2.024 . S
Zn80 O96 1.969 . S
Zn81 O88 1.969 . S
Zn81 O94 1.969 . S
Zn81 O95 1.965 . S
Zn81 O97 2.024 . S
C82 O83 1.229 . S
C82 O91 1.058 . S
O83 C82 1.229 . S
C84 O85 1.229 . S
C84 O97 1.058 . S
O85 C84 1.229 . S
O86 Zn80 1.969 . S
O86 C89 1.267 . S
O87 Zn80 1.965 . S
O87 C98 1.260 . S
O88 Zn81 1.969 . S
O88 C98 1.258 . S
C89 O86 1.267 . S
C89 O90 1.228 . S
O90 C89 1.228 . S
O91 Zn80 2.024 . S
O91 C82 1.058 . S
C92 O93 1.228 . S
C92 O94 1.267 . S
O93 C92 1.228 . S
O94 Zn81 1.969 . S
O94 C92 1.267 . S
O95 Zn81 1.965 . S
O95 C99 1.260 . S
O96 Zn80 1.969 . S
O96 C99 1.258 . S
O97 Zn81 2.024 . S
O97 C84 1.058 . S
C98 O87 1.260 . S
C98 O88 1.258 . S
C99 O95 1.260 . S
C99 O96 1.258 . S
Zn100 O106 1.969 . S
Zn100 O107 1.965 . S
Zn100 O111 2.024 . S
Zn100 O116 1.969 . S
Zn101 O108 1.969 . S
Zn101 O114 1.969 . S
Zn101 O115 1.965 . S
Zn101 O117 2.024 . S
C102 O103 1.229 . S
C102 O111 1.058 . S
O103 C102 1.229 . S
C104 O105 1.229 . S
C104 O117 1.058 . S
O105 C104 1.229 . S
O106 Zn100 1.969 . S
O106 C109 1.267 . S
O107 Zn100 1.965 . S
O107 C118 1.260 . S
O108 Zn101 1.969 . S
O108 C118 1.258 . S
C109 O106 1.267 . S
C109 O110 1.228 . S
O110 C109 1.228 . S
O111 Zn100 2.024 . S
O111 C102 1.058 . S
C112 O113 1.228 . S
C112 O114 1.267 . S
O113 C112 1.228 . S
O114 Zn101 1.969 . S
O114 C112 1.267 . S
O115 Zn101 1.965 . S
O115 C119 1.260 . S
O116 Zn100 1.969 . S
O116 C119 1.258 . S
O117 Zn101 2.024 . S
O117 C104 1.058 . S
C118 O107 1.260 . S
C118 O108 1.258 . S
C119 O115 1.260 . S
C119 O116 1.258 . S
Zn120 O126 1.969 . S
Zn120 O127 1.965 . S
Zn120 O131 2.024 . S
Zn120 O136 1.969 . S
Zn121 O128 1.969 . S
Zn121 O134 1.969 . S
Zn121 O135 1.965 . S
Zn121 O137 2.024 . S
C122 O123 1.229 . S
C122 O131 1.058 . S
O123 C122 1.229 . S
C124 O125 1.229 . S
C124 O137 1.058 . S
O125 C124 1.229 . S
O126 Zn120 1.969 . S
O126 C129 1.267 . S
O127 Zn120 1.965 . S
O127 C138 1.260 . S
O128 Zn121 1.969 . S
O128 C138 1.258 . S
C129 O126 1.267 . S
C129 O130 1.228 . S
O130 C129 1.228 . S
O131 Zn120 2.024 . S
O131 C122 1.058 . S
C132 O133 1.228 . S
C132 O134 1.267 . S
O133 C132 1.228 . S
O134 Zn121 1.969 . S
O134 C132 1.267 . S
O135 Zn121 1.965 . S
O135 C139 1.260 . S
O136 Zn120 1.969 . S
O136 C139 1.258 . S
O137 Zn121 2.024 . S
O137 C124 1.058 . S
C138 O127 1.260 . S
C138 O128 1.258 . S
C139 O135 1.260 . S
C139 O136 1.258 . S
Zn140 O146 1.969 . S
Zn140 O147 1.965 . S
Zn140 O151 2.024 . S
Zn140 O156 1.969 . S
Zn141 O148 1.969 . S
Zn141 O154 1.969 . S
Zn141 O155 1.965 . S
Zn141 O157 2.024 . S
C142 O143 1.229 . S
C142 O151 1.058 . S
O143 C142 1.229 . S
C144 O145 1.229 . S
C144 O157 1.058 . S
O145 C144 1.229 . S
O146 Zn140 1.969 . S
O146 C149 1.267 . S
O147 Zn140 1.965 . S
O147 C158 1.260 . S
O148 Zn141 1.969 . S
O148 C158 1.258 . S
C149 O146 1.267 . S
C149 O150 1.228 . S
O150 C149 1.228 . S
O151 Zn140 2.024 . S
O151 C142 1.058 . S
C152 O153 1.228 . S
C152 O154 1.267 . S
O153 C152 1.228 . S
O154 Zn141 1.969 . S
O154 C152 1.267 . S
O155 Zn141 1.965 . S
O155 C159 1.260 . S
O156 Zn140 1.969 . S
O156 C159 1.258 . S
O157 Zn141 2.024 . S
O157 C144 1.058 . S
C158 O147 1.260 . S
C158 O148 1.258 . S
C159 O155 1.260 . S
C159 O156 1.258 . S
Zn160 O166 1.969 . S
Zn160 O167 1.965 . S
Zn160 O171 2.024 . S
Zn160 O176 1.969 . S
Zn161 O168 1.969 . S
Zn161 O174 1.969 . S
Zn161 O175 1.965 . S
Zn161 O177 2.024 . S
C162 O163 1.229 . S
C162 O171 1.058 . S
O163 C162 1.229 . S
C164 O165 1.229 . S
C164 O177 1.058 . S
O165 C164 1.229 . S
O166 Zn160 1.969 . S
O166 C169 1.267 . S
O167 Zn160 1.965 . S
O167 C178 1.260 . S
O168 Zn161 1.969 . S
O168 C178 1.258 . S
C169 O166 1.267 . S
C169 O170 1.228 . S
O170 C169 1.228 . S
O171 Zn160 2.024 . S
O171 C162 1.058 . S
C172 O173 1.228 . S
C172 O174 1.267 . S
O173 C172 1.228 . S
O174 Zn161 1.969 . S
O174 C172 1.267 . S
O175 Zn161 1.965 . S
O175 C179 1.260 . S
O176 Zn160 1.969 . S
O176 C179 1.258 . S
O177 Zn161 2.024 . S
O177 C164 1.058 . S
C178 O167 1.260 . S
C178 O168 1.258 . S
C179 O175 1.260 . S
C179 O176 1.258 . S
C180 C181 1.170 . S
C180 C182 1.380 . S
C181 C180 1.170 . S
C182 C180 1.380 . S
C182 C183 1.170 . S
C183 C182 1.170 . S
C184 C185 1.170 . S
C184 C186 1.380 . S
C185 C184 1.170 . S
C186 C184 1.380 . S
C186 C187 1.170 . S
C187 C186 1.170 . S
C188 C189 1.170 . S
C188 C190 1.380 . S
C189 C188 1.170 . S
C190 C188 1.380 . S
C190 C191 1.170 . S
C191 C190 1.170 . S
C192 C193 1.170 . S
C192 C194 1.380 . S
C193 C192 1.170 . S
C194 C192 1.380 . S
C194 C195 1.170 . S
C195 C194 1.170 . S
C196 C197 1.170 . S
C196 C198 1.380 . S
C197 C196 1.170 . S
C198 C196 1.380 . S
C198 C199 1.170 . S
C199 C198 1.170 . S
C200 C201 1.170 . S
C200 C202 1.380 . S
C201 C200 1.170 . S
C202 C200 1.380 . S
C202 C203 1.170 . S
C203 C202 1.170 . S
C204 C205 1.170 . S
C204 C206 1.380 . S
C205 C204 1.170 . S
C206 C204 1.380 . S
C206 C207 1.170 1_455 S
C207 C206 1.170 1_655 S
C208 C209 1.170 . S
C208 C210 1.380 . S
C209 C208 1.170 . S
C210 C208 1.380 . S
C210 C211 1.170 . S
C211 C210 1.170 . S
C212 C213 1.170 . S
C212 C214 1.380 1_545 S
C213 C212 1.170 . S
C214 C212 1.380 1_565 S
C214 C215 1.170 . S
C215 C214 1.170 . S
C216 C217 1.170 . S
C216 C218 1.380 . S
C217 C216 1.170 . S
C218 C216 1.380 . S
C218 C219 1.170 . S
C219 C218 1.170 . S
C220 C221 1.170 . S
C220 C222 1.380 1_565 S
C221 C220 1.170 . S
C222 C220 1.380 1_545 S
C222 C223 1.170 . S
C223 C222 1.170 . S
C224 C225 1.170 . S
C224 C226 1.380 1_654 S
C225 C224 1.170 . S
C226 C224 1.380 1_456 S
C226 C227 1.170 . S
C227 C226 1.170 . S
C228 C229 1.170 . S
C228 C230 1.380 . S
C229 C228 1.170 . S
C230 C228 1.380 . S
C230 C231 1.170 . S
C231 C230 1.170 . S
C232 C233 1.170 . S
C232 C234 1.380 . S
C233 C232 1.170 . S
C234 C232 1.380 . S
C234 C235 1.170 . S
C235 C234 1.170 . S
C236 C237 1.170 . S
C236 C238 1.380 . S
C237 C236 1.170 . S
C238 C236 1.380 . S
C238 C239 1.170 . S
C239 C238 1.170 . S
C240 C241 1.170 . S
C240 C242 1.380 . S
C241 C240 1.170 . S
C242 C240 1.380 . S
C242 C243 1.170 . S
C243 C242 1.170 . S
C244 C245 1.170 . S
C244 C246 1.380 . S
C245 C244 1.170 . S
C246 C244 1.380 . S
C246 C247 1.170 . S
C247 C246 1.170 . S
C248 C249 1.170 . S
C248 C250 1.380 . S
C249 C248 1.170 . S
C250 C248 1.380 . S
C250 C251 1.170 . S
C251 C250 1.170 . S
C252 C253 1.170 . S
C252 C254 1.380 . S
C253 C252 1.170 . S
C254 C252 1.380 . S
C254 C255 1.170 . S
C255 C254 1.170 . S
C256 C257 1.170 . S
C256 C258 1.380 . S
C257 C256 1.170 . S
C258 C256 1.380 . S
C258 C259 1.170 . S
C259 C258 1.170 . S
C260 C261 1.170 . S
C260 C262 1.380 . S
C261 C260 1.170 . S
C262 C260 1.380 . S
C262 C263 1.170 . S
C263 C262 1.170 . S
C264 C265 1.170 . S
C264 C266 1.380 . S
C265 C264 1.170 . S
C266 C264 1.380 . S
C266 C267 1.170 . S
C267 C266 1.170 . S
C268 C269 1.170 . S
C268 C270 1.380 . S
C269 C268 1.170 . S
C270 C268 1.380 . S
C270 C271 1.170 . S
C271 C270 1.170 . S
C272 C273 1.170 . S
C272 C274 1.380 . S
C273 C272 1.170 . S
C274 C272 1.380 . S
C274 C275 1.170 . S
C275 C274 1.170 . S
C276 C277 1.170 . S
C276 C278 1.380 . S
C277 C276 1.170 . S
C278 C276 1.380 . S
C278 C279 1.170 1_554 S
C279 C278 1.170 1_556 S
C280 C281 1.170 . S
C280 C282 1.380 . S
C281 C280 1.170 . S
C282 C280 1.380 . S
C282 C283 1.170 . S
C283 C282 1.170 . S
C284 C285 1.170 . S
C284 C286 1.380 . S
C285 C284 1.170 . S
C286 C284 1.380 . S
C286 C287 1.170 . S
C287 C286 1.170 . S
C181 C12 1.497 . S
C183 C152 1.463 . S
C185 C24 1.522 1_556 S
C187 C164 1.496 . S
C189 C52 1.510 . S
C191 C124 1.493 . S
C193 C84 1.468 . S
C195 C44 1.444 . S
C197 C104 1.507 . S
C199 C4 1.466 . S
C201 C32 1.541 . S
C203 C64 1.510 . S
C205 C144 1.480 . S
C207 C112 1.551 . S
C209 C172 1.543 . S
C211 C72 1.512 . S
C213 C92 1.600 . S
C215 C132 1.565 . S
C217 C49 1.425 . S
C219 C2 1.373 . S
C221 C29 1.445 1_554 S
C223 C9 1.433 . S
C225 C22 1.503 . S
C227 C42 1.556 . S
C229 C69 1.467 . S
C231 C102 1.414 . S
C233 C62 1.453 . S
C235 C89 1.498 . S
C237 C82 1.440 . S
C239 C109 1.449 . S
C241 C169 1.557 . S
C243 C122 1.476 . S
C245 C149 1.370 . S
C247 C129 1.366 . S
C249 C162 1.447 . S
C251 C142 1.441 . S
C253 C19 1.247 . S
C255 C18 1.273 . S
C257 C38 1.255 . S
C259 C39 1.251 . S
C261 C59 1.253 . S
C263 C58 1.259 . S
C265 C79 1.240 . S
C267 C78 1.264 1_556 S
C269 C99 1.271 . S
C271 C98 1.242 1_556 S
C273 C119 1.255 . S
C275 C118 1.271 1_556 S
C277 C139 1.272 . S
C279 C138 1.239 . S
C281 C159 1.238 1_554 S
C283 C158 1.273 . S
C285 C179 1.263 . S
C287 C178 1.263 1_554 S
