# Generated by pormake.
# Topology dia, (4)-cn, num edge types: 1
# Building blocks:
#     Node 0, Type 0, BuildingBlock: ICAMEG_clean_sbu_1, # of connection points: 4
#     Node 1, Type 0, BuildingBlock: ICAMEG_clean_sbu_1, # of connection points: 4
#     Node 2, Type 0, BuildingBlock: ICAMEG_clean_sbu_1, # of connection points: 4
#     Node 3, Type 0, BuildingBlock: ICAMEG_clean_sbu_1, # of connection points: 4
#     Node 4, Type 0, BuildingBlock: ICAMEG_clean_sbu_1, # of connection points: 4
#     Node 5, Type 0, BuildingBlock: ICAMEG_clean_sbu_1, # of connection points: 4
#     Node 6, Type 0, BuildingBlock: ICAMEG_clean_sbu_1, # of connection points: 4
#     Node 7, Type 0, BuildingBlock: ICAMEG_clean_sbu_1, # of connection points: 4
#     Edge 8, Type (0, 0), BuildingBlock: KIFKEQ_clean_linker_1, # of connection points: 2
#     Edge 9, Type (0, 0), BuildingBlock: KIFKEQ_clean_linker_1, # of connection points: 2
#     Edge 10, Type (0, 0), BuildingBlock: KIFKEQ_clean_linker_1, # of connection points: 2
#     Edge 11, Type (0, 0), BuildingBlock: KIFKEQ_clean_linker_1, # of connection points: 2
#     Edge 12, Type (0, 0), BuildingBlock: KIFKEQ_clean_linker_1, # of connection points: 2
#     Edge 13, Type (0, 0), BuildingBlock: KIFKEQ_clean_linker_1, # of connection points: 2
#     Edge 14, Type (0, 0), BuildingBlock: KIFKEQ_clean_linker_1, # of connection points: 2
#     Edge 15, Type (0, 0), BuildingBlock: KIFKEQ_clean_linker_1, # of connection points: 2
#     Edge 16, Type (0, 0), BuildingBlock: KIFKEQ_clean_linker_1, # of connection points: 2
#     Edge 17, Type (0, 0), BuildingBlock: KIFKEQ_clean_linker_1, # of connection points: 2
#     Edge 18, Type (0, 0), BuildingBlock: KIFKEQ_clean_linker_1, # of connection points: 2
#     Edge 19, Type (0, 0), BuildingBlock: KIFKEQ_clean_linker_1, # of connection points: 2
#     Edge 20, Type (0, 0), BuildingBlock: KIFKEQ_clean_linker_1, # of connection points: 2
#     Edge 21, Type (0, 0), BuildingBlock: KIFKEQ_clean_linker_1, # of connection points: 2
#     Edge 22, Type (0, 0), BuildingBlock: KIFKEQ_clean_linker_1, # of connection points: 2
#     Edge 23, Type (0, 0), BuildingBlock: KIFKEQ_clean_linker_1, # of connection points: 2
# Relax obj value: 0.180
# Max RMSD: 0.229
# Mean RMSD: 0.229
data_MOF--net-dia--node1-ICAMEG_clean_sbu_1--edge1-KIFKEQ_clean_linker_1
_symmetry_space_group_name_H-M    P1
_symmetry_Int_Tables_number       1
_symmetry_cell_setting            triclinic
loop_
_symmetry_equiv_pos_as_xyz
'x, y, z'
_cell_length_a     33.578471
_cell_length_b     33.574713
_cell_length_c     43.032912
_cell_angle_alpha  89.968802
_cell_angle_beta   90.011678
_cell_angle_gamma 102.30615
loop_
_atom_site_label
_atom_site_type_symbol
_atom_site_fract_x
_atom_site_fract_y
_atom_site_fract_z
_atom_type_partial_charge
Co0 Co 0.18114 0.11821 0.62907 0.0
Co1 Co 0.09531 0.15698 0.63538 0.0
O2 O 0.14 0.13654 0.65509 0.0
C3 C 0.16331 0.05434 0.67941 0.0
O4 O 0.12481 0.05676 0.67957 0.0
C5 C 0.11562 0.20958 0.69349 0.0
O6 O 0.14872 0.19588 0.69903 0.0
O7 O 0.136 0.19932 0.61326 0.0
O8 O 0.17675 0.15935 0.59585 0.0
H9 H 0.02443 0.20564 0.54456 0.0
H10 H 0.20171 0.14064 0.69458 0.0
O11 O 0.1884 0.07656 0.66106 0.0
H12 H 0.30442 0.23396 0.63217 0.0
H13 H 0.31184 0.07146 0.60937 0.0
H14 H 0.18757 0.10087 0.56186 0.0
H15 H 0.25159 0.182 0.6067 0.0
H16 H 0.26091 0.09541 0.64156 0.0
O17 O 0.09339 0.19701 0.66998 0.0
H18 H 0.07899 0.17946 0.5707 0.0
H19 H 0.01836 0.17915 0.65737 0.0
H20 H 0.23788 0.07728 0.52879 0.0
H21 H 0.2544 0.19181 0.72104 0.0
H22 H 0.30057 0.06241 0.55253 0.0
H23 H 0.30615 0.23904 0.68976 0.0
O24 O 0.13736 0.07735 0.60837 0.0
H25 H 0.03687 0.0747 0.72875 0.0
H26 H 0.02044 0.09653 0.61659 0.0
H27 H 0.97099 0.04302 0.64367 0.0
H28 H 0.9789 0.03193 0.70021 0.0
H29 H 0.08598 0.12739 0.70066 0.0
H30 H 0.96336 0.20568 0.6322 0.0
H31 H 0.96607 0.21892 0.57536 0.0
O32 O 0.09386 0.11814 0.59966 0.0
C33 C 0.16374 0.19237 0.59516 0.0
C34 C 0.02285 0.1999 0.56933 0.0
C35 C 0.9886 0.19996 0.61852 0.0
N36 N 0.05179 0.17752 0.61549 0.0
C37 C 0.05363 0.185 0.58426 0.0
C38 C 0.01991 0.18503 0.63265 0.0
C39 C 0.99013 0.20737 0.58663 0.0
C40 C 0.22431 0.16087 0.68083 0.0
N41 N 0.22349 0.15833 0.64915 0.0
C42 C 0.254 0.18987 0.69593 0.0
C43 C 0.283 0.21639 0.67837 0.0
C44 C 0.28202 0.21358 0.64606 0.0
C45 C 0.2519 0.18419 0.63176 0.0
C46 C 0.28466 0.07787 0.59875 0.0
C47 C 0.21483 0.0946 0.57237 0.0
C48 C 0.25564 0.09134 0.61687 0.0
N49 N 0.22134 0.0997 0.60359 0.0
C50 C 0.24318 0.08118 0.55352 0.0
C51 C 0.27833 0.07281 0.56686 0.0
C52 C 0.10673 0.08566 0.59426 0.0
C53 C 0.03295 0.0794 0.70415 0.0
C54 C 0.02425 0.09184 0.64116 0.0
C55 C 0.99605 0.06154 0.65639 0.0
C56 C 1.00049 0.05535 0.68811 0.0
N57 N 0.05594 0.11547 0.65708 0.0
C58 C 0.06055 0.10943 0.68815 0.0
Co59 Co 0.9057 0.33423 0.89971 0.0
Co60 Co 0.86728 0.42019 0.8925 0.0
O61 O 0.88703 0.37482 0.87328 0.0
C62 C 0.96933 0.35098 0.84932 0.0
O63 O 0.96819 0.38981 0.84969 0.0
C64 C 0.81328 0.39858 0.83517 0.0
O65 O 0.82699 0.36548 0.8297 0.0
O66 O 0.82539 0.3802 0.91566 0.0
O67 O 0.86544 0.33964 0.93327 0.0
H68 H 0.82146 0.49395 0.98284 0.0
H69 H 0.88174 0.31211 0.83471 0.0
O70 O 0.94645 0.32602 0.86738 0.0
H71 H 0.78948 0.21129 0.89934 0.0
H72 H 0.95239 0.20375 0.92059 0.0
H73 H 0.92466 0.32946 0.96678 0.0
H74 H 0.8422 0.26455 0.92361 0.0
H75 H 0.92777 0.25394 0.88803 0.0
O76 O 0.82633 0.42121 0.85837 0.0
H77 H 0.84686 0.43858 0.95719 0.0
H78 H 0.84452 0.49651 0.86961 0.0
H79 H 0.94895 0.27991 1.00023 0.0
H80 H 0.82978 0.25897 0.80944 0.0
H81 H 0.96299 0.21651 0.97715 0.0
H82 H 0.78308 0.20817 0.84184 0.0
O83 O 0.94717 0.37832 0.91943 0.0
H84 H 0.94762 0.47502 0.79737 0.0
H85 H 0.92795 0.49591 0.90922 0.0
H86 H 0.98084 0.54432 0.88072 0.0
H87 H 0.99084 0.53417 0.82432 0.0
H88 H 0.89556 0.427 0.82687 0.0
H89 H 0.81875 0.55228 0.89429 0.0
H90 H 0.80723 0.55134 0.95132 0.0
O91 O 0.90716 0.42266 0.9277 0.0
C92 C 0.83245 0.35268 0.93395 0.0
C93 C 0.82645 0.49476 0.95798 0.0
C94 C 0.82488 0.52747 0.90828 0.0
N95 N 0.84741 0.46437 0.91197 0.0
C96 C 0.8409 0.46352 0.94333 0.0
C97 C 0.83938 0.49572 0.89443 0.0
C98 C 0.81844 0.52693 0.94028 0.0
C99 C 0.86173 0.28993 0.84894 0.0
N100 N 0.86498 0.29152 0.88057 0.0
C101 C 0.83228 0.25998 0.83451 0.0
C102 C 0.80606 0.23152 0.85271 0.0
C103 C 0.80961 0.23327 0.88497 0.0
C104 C 0.83944 0.26363 0.89858 0.0
C105 C 0.94635 0.23124 0.93093 0.0
C106 C 0.93055 0.30188 0.95657 0.0
C107 C 0.9325 0.25984 0.91259 0.0
N108 N 0.92461 0.29455 0.9255 0.0
C109 C 0.94437 0.27397 0.97562 0.0
C110 C 0.95227 0.23841 0.96266 0.0
C111 C 0.93962 0.40967 0.93296 0.0
C112 C 0.9434 0.47992 0.8219 0.0
C113 C 0.93216 0.49112 0.88473 0.0
C114 C 0.96212 0.51874 0.86869 0.0
C115 C 0.9677 0.51304 0.83705 0.0
N116 N 0.90827 0.45879 0.86969 0.0
C117 C 0.91372 0.45293 0.8387 0.0
Co118 Co 0.6789 0.10115 0.12674 0.0
Co119 Co 0.59496 0.14292 0.13322 0.0
O120 O 0.63895 0.12128 0.15287 0.0
C121 C 0.66094 0.03934 0.1787 0.0
O122 O 0.62297 0.04343 0.17995 0.0
C123 C 0.61631 0.19503 0.19159 0.0
O124 O 0.64775 0.17902 0.19804 0.0
O125 O 0.63646 0.18381 0.1105 0.0
O126 O 0.67526 0.14201 0.09314 0.0
H127 H 0.52523 0.19261 0.04224 0.0
H128 H 0.70083 0.12479 0.19184 0.0
O129 O 0.68557 0.05976 0.15912 0.0
H130 H 0.80533 0.21335 0.12773 0.0
H131 H 0.80684 0.04953 0.10656 0.0
H132 H 0.68352 0.08197 0.0597 0.0
H133 H 0.75064 0.16241 0.1032 0.0
H134 H 0.75774 0.07614 0.13884 0.0
O135 O 0.59477 0.18392 0.16747 0.0
H136 H 0.57861 0.16462 0.06837 0.0
H137 H 0.51974 0.16851 0.15536 0.0
H138 H 0.73201 0.05573 0.02654 0.0
H139 H 0.75529 0.17504 0.21737 0.0
H140 H 0.7942 0.0393 0.04995 0.0
H141 H 0.80799 0.21984 0.18523 0.0
O142 O 0.63387 0.06095 0.10675 0.0
H143 H 0.53524 0.06311 0.22744 0.0
H144 H 0.51811 0.08481 0.11537 0.0
H145 H 0.4673 0.03327 0.14305 0.0
H146 H 0.47553 0.02227 0.19957 0.0
H147 H 0.58567 0.11378 0.19876 0.0
H148 H 0.46595 0.19691 0.13018 0.0
H149 H 0.46838 0.20897 0.07319 0.0
O150 O 0.59178 0.10315 0.09792 0.0
C151 C 0.66346 0.1757 0.09218 0.0
C152 C 0.52378 0.18741 0.06707 0.0
C153 C 0.49054 0.18986 0.11643 0.0
N154 N 0.55223 0.16469 0.11333 0.0
C155 C 0.55389 0.17148 0.082 0.0
C156 C 0.52117 0.17387 0.13057 0.0
C157 C 0.49191 0.19661 0.08446 0.0
C158 C 0.72378 0.14401 0.17772 0.0
N159 N 0.72249 0.14066 0.14609 0.0
C160 C 0.75449 0.17248 0.1923 0.0
C161 C 0.78402 0.19764 0.17425 0.0
C162 C 0.78253 0.19404 0.14199 0.0
C163 C 0.75136 0.16523 0.12823 0.0
C164 C 0.77987 0.05661 0.09608 0.0
C165 C 0.71058 0.07508 0.07006 0.0
C166 C 0.75188 0.0716 0.11425 0.0
N167 N 0.71784 0.0808 0.10116 0.0
C168 C 0.7379 0.06014 0.05117 0.0
C169 C 0.77277 0.0509 0.06432 0.0
C170 C 0.60344 0.06994 0.09277 0.0
C171 C 0.53116 0.0678 0.20286 0.0
C172 C 0.52209 0.08016 0.13992 0.0
C173 C 0.49311 0.05096 0.1555 0.0
C174 C 0.49772 0.04483 0.1872 0.0
N175 N 0.55471 0.1028 0.15547 0.0
C176 C 0.55952 0.09675 0.18652 0.0
Co177 Co 0.90642 0.8389 0.393 0.0
Co178 Co 0.86061 0.92089 0.39341 0.0
O179 O 0.8842 0.88052 0.37035 0.0
C180 C 0.96309 0.86068 0.33726 0.0
O181 O 0.94807 0.89265 0.3305 0.0
C182 C 0.80462 0.8995 0.33759 0.0
O183 O 0.81519 0.86436 0.334 0.0
O184 O 0.82102 0.87604 0.41414 0.0
O185 O 0.86401 0.8359 0.42636 0.0
H186 H 0.8076 0.97814 0.48902 0.0
H187 H 0.88336 0.82502 0.32649 0.0
O188 O 0.95 0.8386 0.36075 0.0
H189 H 0.80134 0.70784 0.38269 0.0
H190 H 0.96503 0.7133 0.40396 0.0
H191 H 0.92413 0.82669 0.45941 0.0
H192 H 0.84911 0.76148 0.41094 0.0
H193 H 0.93647 0.76431 0.37526 0.0
O194 O 0.81978 0.92343 0.35953 0.0
H195 H 0.83752 0.92903 0.45926 0.0
H196 H 0.83287 0.99703 0.37654 0.0
H197 H 0.95223 0.77612 0.48903 0.0
H198 H 0.83655 0.7717 0.29725 0.0
H199 H 0.97291 0.71891 0.46128 0.0
H200 H 0.79495 0.7126 0.32537 0.0
O201 O 0.94437 0.88264 0.41623 0.0
H202 H 0.9362 0.99358 0.30189 0.0
H203 H 0.91801 0.99621 0.41551 0.0
H204 H 0.96807 0.05097 0.39021 0.0
H205 H 0.97734 0.04999 0.33297 0.0
H206 H 0.88687 0.93911 0.3282 0.0
H207 H 0.80259 0.04666 0.40538 0.0
H208 H 0.78992 0.03749 0.46206 0.0
O209 O 0.90025 0.92153 0.42842 0.0
C210 C 0.8301 0.84686 0.42969 0.0
C211 C 0.81307 0.98253 0.46434 0.0
C212 C 0.81022 0.02096 0.4174 0.0
N213 N 0.8372 0.96023 0.41622 0.0
C214 C 0.83008 0.95485 0.44737 0.0
C215 C 0.82729 0.99267 0.40118 0.0
C216 C 0.80312 0.0158 0.4492 0.0
C217 C 0.86588 0.7992 0.33889 0.0
N218 N 0.8693 0.79638 0.37041 0.0
C219 C 0.83918 0.76918 0.3222 0.0
C220 C 0.81579 0.73608 0.338 0.0
C221 C 0.81932 0.73341 0.37015 0.0
C222 C 0.84634 0.76402 0.38605 0.0
C223 C 0.9561 0.73807 0.41631 0.0
C224 C 0.93291 0.80181 0.44716 0.0
C225 C 0.94001 0.76714 0.40018 0.0
N226 N 0.92845 0.79841 0.41565 0.0
C227 C 0.94887 0.7733 0.46406 0.0
C228 C 0.9605 0.74122 0.44848 0.0
C229 C 0.93406 0.91064 0.43239 0.0
C230 C 0.93239 0.99441 0.32684 0.0
C231 C 0.92205 0.99534 0.39062 0.0
C232 C 0.95035 0.02655 0.37641 0.0
C233 C 0.9555 0.02601 0.34429 0.0
N234 N 0.89946 0.96443 0.37333 0.0
C235 C 0.90437 0.96371 0.34185 0.0
Co236 Co 0.17816 0.61279 0.13967 0.0
Co237 Co 0.09193 0.6523 0.13272 0.0
O238 O 0.1317 0.63132 0.15847 0.0
C239 C 0.15285 0.5538 0.19395 0.0
O240 O 0.1212 0.56921 0.20093 0.0
C241 C 0.10885 0.71414 0.18463 0.0
O242 O 0.14759 0.71265 0.18466 0.0
O243 O 0.13637 0.69402 0.11342 0.0
O244 O 0.18419 0.65707 0.10755 0.0
H245 H 0.03854 0.70049 0.03354 0.0
H246 H 0.17772 0.63501 0.20677 0.0
O247 O 0.17557 0.56749 0.17094 0.0
H248 H 0.30379 0.72005 0.16429 0.0
H249 H 0.30836 0.56068 0.13958 0.0
H250 H 0.20253 0.60115 0.0747 0.0
H251 H 0.25756 0.67167 0.13074 0.0
H252 H 0.25124 0.5847 0.16378 0.0
O253 O 0.08417 0.692 0.16598 0.0
H254 H 0.08747 0.67406 0.06613 0.0
H255 H 0.01215 0.67508 0.14529 0.0
H256 H 0.25945 0.57778 0.04956 0.0
H257 H 0.22338 0.68228 0.2413 0.0
H258 H 0.31286 0.5573 0.08207 0.0
H259 H 0.28695 0.72544 0.22012 0.0
O260 O 0.14026 0.57428 0.11198 0.0
H261 H 0.01497 0.57407 0.2214 0.0
H262 H 0.02189 0.59047 0.10752 0.0
H263 H 0.96759 0.53774 0.13069 0.0
H264 H 0.96379 0.52936 0.18804 0.0
H265 H 0.0691 0.62613 0.19722 0.0
H266 H 0.96257 0.70186 0.1136 0.0
H267 H 0.97554 0.71462 0.05726 0.0
O268 O 0.09696 0.6136 0.0984 0.0
C269 C 0.16942 0.68824 0.10138 0.0
C270 C 0.0325 0.69501 0.05805 0.0
C271 C 0.9899 0.69583 0.10298 0.0
N272 N 0.0527 0.67291 0.10758 0.0
C273 C 0.06008 0.67997 0.07662 0.0
C274 C 0.01817 0.68077 0.12084 0.0
C275 C 0.99718 0.70295 0.07138 0.0
C276 C 0.20551 0.65306 0.19736 0.0
N277 N 0.21496 0.65013 0.16668 0.0
C278 C 0.23118 0.68008 0.21705 0.0
C279 C 0.26678 0.70436 0.20514 0.0
C280 C 0.27621 0.70138 0.17383 0.0
C281 C 0.24977 0.67404 0.15486 0.0
C282 C 0.28529 0.56956 0.12516 0.0
C283 C 0.22578 0.59253 0.08901 0.0
C284 C 0.25276 0.58305 0.13873 0.0
N285 N 0.22362 0.59454 0.12067 0.0
C286 C 0.25788 0.57922 0.07464 0.0
C287 C 0.28782 0.56769 0.09289 0.0
C288 C 0.11232 0.58239 0.09451 0.0
C289 C 0.01626 0.57746 0.19639 0.0
C290 C 0.02068 0.58683 0.13248 0.0
C291 C 0.98973 0.55701 0.14548 0.0
C292 C 0.98759 0.55235 0.17765 0.0
N293 N 0.04869 0.61135 0.15102 0.0
C294 C 0.04677 0.60697 0.18258 0.0
Co295 Co 0.40702 0.32582 0.39637 0.0
Co296 Co 0.36929 0.41167 0.3825 0.0
O297 O 0.38722 0.36305 0.36771 0.0
C298 C 0.47054 0.33948 0.34606 0.0
O299 O 0.46994 0.37845 0.34584 0.0
C300 C 0.28893 0.40571 0.35203 0.0
O301 O 0.27338 0.40418 0.38011 0.0
O302 O 0.32964 0.37698 0.41129 0.0
O303 O 0.36717 0.33401 0.42916 0.0
H304 H 0.32988 0.5026 0.46446 0.0
H305 H 0.38152 0.2983 0.33262 0.0
O306 O 0.44747 0.31531 0.36454 0.0
H307 H 0.29281 0.20149 0.4024 0.0
H308 H 0.45659 0.19893 0.42429 0.0
H309 H 0.42618 0.32706 0.46375 0.0
H310 H 0.34509 0.25768 0.42381 0.0
H311 H 0.43065 0.24548 0.38904 0.0
O312 O 0.32664 0.40504 0.34853 0.0
H313 H 0.35261 0.44221 0.44466 0.0
H314 H 0.3477 0.48451 0.35197 0.0
H315 H 0.45175 0.28124 0.49984 0.0
H316 H 0.32988 0.24225 0.3102 0.0
H317 H 0.46718 0.21664 0.48015 0.0
H318 H 0.28506 0.1934 0.34521 0.0
O319 O 0.44822 0.37186 0.41418 0.0
H320 H 0.43904 0.44564 0.27969 0.0
H321 H 0.43296 0.48864 0.38876 0.0
H322 H 0.4834 0.5295 0.35341 0.0
H323 H 0.48656 0.50814 0.29836 0.0
H324 H 0.3895 0.40533 0.31602 0.0
H325 H 0.32473 0.54524 0.37077 0.0
H326 H 0.31573 0.55462 0.4274 0.0
O327 O 0.41164 0.42047 0.41622 0.0
C328 C 0.33625 0.35034 0.43066 0.0
C329 C 0.33369 0.49886 0.43973 0.0
C330 C 0.3308 0.52279 0.38715 0.0
N331 N 0.35148 0.45979 0.39721 0.0
C332 C 0.34657 0.46473 0.42838 0.0
C333 C 0.34379 0.48832 0.37665 0.0
C334 C 0.32576 0.52803 0.41892 0.0
C335 C 0.3623 0.27699 0.34798 0.0
N336 N 0.36648 0.28113 0.37946 0.0
C337 C 0.33304 0.24539 0.33516 0.0
C338 C 0.30787 0.21802 0.35482 0.0
C339 C 0.31219 0.22255 0.38691 0.0
C340 C 0.34179 0.2545 0.39889 0.0
C341 C 0.44998 0.22699 0.43315 0.0
C342 C 0.43265 0.29894 0.45501 0.0
C343 C 0.4354 0.25354 0.41328 0.0
N344 N 0.42682 0.28896 0.42432 0.0
C345 C 0.44721 0.27314 0.47555 0.0
C346 C 0.45589 0.23693 0.46449 0.0
C347 C 0.44231 0.4059 0.42426 0.0
C348 C 0.43792 0.45531 0.3036 0.0
C349 C 0.43443 0.4789 0.36498 0.0
C350 C 0.4629 0.50229 0.345 0.0
C351 C 0.46462 0.49033 0.31411 0.0
N352 N 0.40831 0.4446 0.35451 0.0
C353 C 0.40983 0.4327 0.32425 0.0
Co354 Co 0.40094 0.83501 0.88407 0.0
Co355 Co 0.35884 0.91979 0.88955 0.0
O356 O 0.38092 0.88015 0.86439 0.0
C357 C 0.45889 0.86021 0.82926 0.0
O358 O 0.44287 0.8915 0.82236 0.0
C359 C 0.30144 0.90304 0.83436 0.0
O360 O 0.30918 0.86669 0.83053 0.0
O361 O 0.31809 0.87486 0.90921 0.0
O362 O 0.35706 0.82911 0.91652 0.0
H363 H 0.30898 0.97314 0.98806 0.0
H364 H 0.37907 0.83127 0.81675 0.0
O365 O 0.44593 0.83761 0.85252 0.0
H366 H 0.29537 0.7069 0.86284 0.0
H367 H 0.4562 0.70668 0.88661 0.0
H368 H 0.41427 0.81345 0.94948 0.0
H369 H 0.34282 0.75574 0.89525 0.0
H370 H 0.43044 0.7621 0.86136 0.0
O371 O 0.3184 0.92605 0.85626 0.0
H372 H 0.33684 0.9247 0.95602 0.0
H373 H 0.33375 0.99831 0.8761 0.0
H374 H 0.43943 0.75828 0.97567 0.0
H375 H 0.33282 0.78288 0.78334 0.0
H376 H 0.46064 0.7044 0.94417 0.0
H377 H 0.29031 0.72017 0.80635 0.0
O378 O 0.43898 0.87461 0.91085 0.0
H379 H 0.43575 0.99664 0.80022 0.0
H380 H 0.41885 0.99168 0.91407 0.0
H381 H 0.47035 0.04673 0.89047 0.0
H382 H 0.47897 0.04956 0.83312 0.0
H383 H 0.38496 0.94182 0.82483 0.0
H384 H 0.30555 0.04737 0.90725 0.0
H385 H 0.29311 0.03503 0.96369 0.0
O386 O 0.39806 0.91649 0.924 0.0
C387 C 0.32511 0.84283 0.92215 0.0
C388 C 0.31435 0.97892 0.96351 0.0
C389 C 0.31238 0.02055 0.91815 0.0
N390 N 0.33714 0.95869 0.91424 0.0
C391 C 0.33021 0.95162 0.94525 0.0
C392 C 0.32826 0.99257 0.90061 0.0
C393 C 0.30542 0.01361 0.94981 0.0
C394 C 0.36132 0.80387 0.82696 0.0
N395 N 0.36402 0.79641 0.85802 0.0
C396 C 0.33487 0.77664 0.8079 0.0
C397 C 0.31095 0.74153 0.82083 0.0
C398 C 0.31373 0.73411 0.85252 0.0
C399 C 0.34051 0.76205 0.87083 0.0
C400 C 0.44702 0.72997 0.90059 0.0
C401 C 0.42323 0.79001 0.9356 0.0
C402 C 0.43253 0.76153 0.88642 0.0
N403 N 0.42066 0.79095 0.90393 0.0
C404 C 0.43755 0.75889 0.95057 0.0
C405 C 0.44948 0.72869 0.93288 0.0
C406 C 0.43004 0.90238 0.92805 0.0
C407 C 0.43223 0.9958 0.82523 0.0
C408 C 0.42259 0.99248 0.88912 0.0
C409 C 0.45171 0.02385 0.87588 0.0
C410 C 0.45651 0.02544 0.8437 0.0
N411 N 0.39885 0.96353 0.87083 0.0
C412 C 0.40341 0.96489 0.83929 0.0
Co413 Co 0.68153 0.60238 0.62789 0.0
Co414 Co 0.59701 0.64293 0.63896 0.0
O415 O 0.64432 0.62393 0.65535 0.0
C416 C 0.66661 0.54084 0.67983 0.0
O417 O 0.62797 0.54272 0.68054 0.0
C418 C 0.6034 0.72374 0.66898 0.0
O419 O 0.60562 0.73933 0.64087 0.0
O420 O 0.63352 0.68162 0.61036 0.0
O421 O 0.67479 0.64144 0.59422 0.0
H422 H 0.51045 0.68331 0.55423 0.0
H423 H 0.70821 0.62955 0.69147 0.0
O424 O 0.69079 0.56256 0.66063 0.0
H425 H 0.80768 0.71441 0.62133 0.0
H426 H 0.80761 0.54979 0.60288 0.0
H427 H 0.68079 0.58054 0.56105 0.0
H428 H 0.75116 0.66229 0.60018 0.0
H429 H 0.76116 0.57773 0.63687 0.0
O430 O 0.60349 0.68593 0.67258 0.0
H431 H 0.56928 0.65945 0.57583 0.0
H432 H 0.52401 0.66682 0.66735 0.0
H433 H 0.72653 0.55297 0.52619 0.0
H434 H 0.76457 0.68107 0.71364 0.0
H435 H 0.79049 0.53737 0.54707 0.0
H436 H 0.81475 0.72396 0.67846 0.0
O437 O 0.6351 0.56144 0.61031 0.0
H438 H 0.55741 0.57517 0.74182 0.0
H439 H 0.51921 0.5807 0.63156 0.0
H440 H 0.47593 0.53155 0.6665 0.0
H441 H 0.49485 0.52869 0.72214 0.0
H442 H 0.60019 0.62338 0.70589 0.0
H443 H 0.46481 0.69092 0.64674 0.0
H444 H 0.45772 0.69927 0.58978 0.0
O445 O 0.58847 0.60002 0.60562 0.0
C446 C 0.65996 0.67321 0.59156 0.0
C447 C 0.51321 0.67981 0.57909 0.0
C448 C 0.48759 0.68408 0.631 0.0
N449 N 0.55015 0.66177 0.62281 0.0
C450 C 0.54645 0.6663 0.59146 0.0
C451 C 0.52121 0.67045 0.64254 0.0
C452 C 0.48363 0.68875 0.59905 0.0
C453 C 0.7301 0.64792 0.67604 0.0
N454 N 0.72653 0.64275 0.6446 0.0
C455 C 0.76187 0.67712 0.68871 0.0
C456 C 0.79 0.70121 0.66896 0.0
C457 C 0.78604 0.69588 0.6369 0.0
C458 C 0.75389 0.66638 0.62506 0.0
C459 C 0.77985 0.55648 0.5935 0.0
C460 C 0.70862 0.57401 0.5703 0.0
C461 C 0.75334 0.57219 0.61266 0.0
N462 N 0.71831 0.5809 0.60095 0.0
C463 C 0.73438 0.55832 0.55045 0.0
C464 C 0.77023 0.54954 0.56219 0.0
C465 C 0.60204 0.56826 0.59895 0.0
C466 C 0.5488 0.57617 0.71764 0.0
C467 C 0.52791 0.57934 0.6556 0.0
C468 C 0.50314 0.5516 0.67535 0.0
C469 C 0.51374 0.55005 0.70657 0.0
N470 N 0.56224 0.6049 0.66662 0.0
C471 C 0.57281 0.60353 0.69721 0.0
H472 H 0.25281 0.33625 0.42878 0.0
H473 H 0.35394 0.33214 0.48975 0.0
H474 H 0.20517 0.30338 0.46926 0.0
H475 H 0.30654 0.30065 0.53024 0.0
H476 H 0.20514 0.27056 0.60391 0.0
H477 H 0.2437 0.31627 0.56451 0.0
H478 H 0.19999 0.22698 0.49346 0.0
H479 H 0.16277 0.18093 0.53295 0.0
C480 C 0.26473 0.32932 0.45107 0.0
C481 C 0.307 0.33663 0.45616 0.0
C482 C 0.23757 0.31042 0.47411 0.0
C483 C 0.25226 0.29967 0.50286 0.0
C484 C 0.29441 0.309 0.50843 0.0
C485 C 0.32149 0.32684 0.48521 0.0
C486 C 0.20311 0.2613 0.57974 0.0
C487 C 0.18092 0.22255 0.57125 0.0
C488 C 0.22521 0.28725 0.5573 0.0
C489 C 0.22456 0.27518 0.52596 0.0
C490 C 0.20058 0.23721 0.51736 0.0
C491 C 0.17944 0.21089 0.53989 0.0
H492 H 0.73736 0.51392 0.67432 0.0
H493 H 0.63408 0.50808 0.73524 0.0
H494 H 0.76785 0.47454 0.71152 0.0
H495 H 0.66498 0.46862 0.77277 0.0
H496 H 0.76705 0.45513 0.84506 0.0
H497 H 0.72745 0.48449 0.80725 0.0
H498 H 0.75779 0.40504 0.73637 0.0
H499 H 0.79746 0.37533 0.77436 0.0
C500 C 0.72099 0.50401 0.6956 0.0
C501 C 0.68332 0.51438 0.70185 0.0
C502 C 0.73838 0.48112 0.71683 0.0
C503 C 0.71889 0.46839 0.74512 0.0
C504 C 0.68086 0.47814 0.75123 0.0
C505 C 0.66308 0.50058 0.72969 0.0
C506 C 0.76492 0.44349 0.82151 0.0
C507 C 0.78566 0.41295 0.81274 0.0
C508 C 0.74196 0.4602 0.79987 0.0
C509 C 0.73954 0.44724 0.76876 0.0
C510 C 0.75931 0.4159 0.76013 0.0
C511 C 0.78185 0.39872 0.78193 0.0
H512 H 0.54162 0.08347 0.05612 0.0
H513 H 0.61433 0.99396 0.07385 0.0
H514 H 0.50284 0.03931 0.01762 0.0
H515 H 0.57421 0.94878 0.0349 0.0
H516 H 0.40869 0.93944 0.97946 0.0
H517 H 0.45236 0.97562 0.01959 0.0
H518 H 0.55694 0.94248 0.97673 0.0
H519 H 0.5124 0.90497 0.93619 0.0
C520 C 0.54936 0.05422 0.05198 0.0
C521 C 0.58097 0.04223 0.06857 0.0
C522 C 0.52682 0.02871 0.02984 0.0
C523 C 0.53487 0.99014 0.02351 0.0
C524 C 0.56722 0.9783 0.0393 0.0
C525 C 0.59003 1.00409 0.0617 0.0
C526 C 0.44092 0.93948 0.97851 0.0
C527 C 0.4571 0.91986 0.9542 0.0
C528 C 0.46605 0.9604 1.00158 0.0
C529 C 0.50832 0.96279 1.00102 0.0
C530 C 0.52448 0.94128 0.97777 0.0
C531 C 0.49903 0.9199 0.95454 0.0
H532 H 0.97938 0.8824 0.27625 0.0
H533 H 0.01033 0.80533 0.34879 0.0
H534 H 0.0192 0.85172 0.23911 0.0
H535 H 0.05008 0.7749 0.31174 0.0
H536 H 0.14226 0.74807 0.23953 0.0
H537 H 0.11207 0.78877 0.2766 0.0
H538 H 0.00845 0.78162 0.21589 0.0
H539 H 0.0382 0.74111 0.17921 0.0
C540 C 0.9952 0.85946 0.28442 0.0
C541 C 0.99141 0.84621 0.31549 0.0
C542 C 0.01782 0.84169 0.26309 0.0
C543 C 0.03767 0.81068 0.27242 0.0
C544 C 0.03547 0.79887 0.30381 0.0
C545 C 0.01245 0.81621 0.32502 0.0
C546 C 0.11324 0.75555 0.23402 0.0
C547 C 0.09258 0.74111 0.20648 0.0
C548 C 0.09587 0.7787 0.25529 0.0
C549 C 0.05787 0.78853 0.24917 0.0
C550 C 0.03793 0.77505 0.22119 0.0
C551 C 0.0549 0.75148 0.20026 0.0
H552 H 0.26141 0.96465 0.84388 0.0
H553 H 0.28296 0.87942 0.77401 0.0
H554 H 0.22373 0.99647 0.8061 0.0
H555 H 0.2456 0.91186 0.73597 0.0
H556 H 0.2324 0.02451 0.67376 0.0
H557 H 0.26096 0.98324 0.71087 0.0
H558 H 0.15885 0.98127 0.77214 0.0
H559 H 0.12973 0.02227 0.73464 0.0
C560 C 0.25778 0.95244 0.82051 0.0
C561 C 0.27532 0.91952 0.81195 0.0
C562 C 0.23597 0.97058 0.79891 0.0
C563 C 0.23173 0.95676 0.76803 0.0
C564 C 0.24852 0.92329 0.75957 0.0
C565 C 0.26972 0.90459 0.78138 0.0
C566 C 0.21577 0.015 0.695 0.0
C567 C 0.17881 0.02684 0.70127 0.0
C568 C 0.23205 0.9911 0.71617 0.0
C569 C 0.2122 0.97897 0.74444 0.0
C570 C 0.17492 0.99028 0.75058 0.0
C571 C 0.15818 0.0136 0.72907 0.0
H572 H 0.93046 0.47506 0.96745 0.0
H573 H 0.01371 0.39475 0.95273 0.0
H574 H 0.97676 0.51359 1.00485 0.0
H575 H 0.06095 0.43443 0.99067 0.0
H576 H 0.1056 0.49911 0.08901 0.0
H577 H 0.06707 0.45441 0.04896 0.0
H578 H 0.04374 0.56017 1.00111 0.0
H579 H 0.08108 0.6041 0.04076 0.0
C580 C 0.95876 0.46557 0.97203 0.0
C581 C 0.96842 0.43192 0.95659 0.0
C582 C 0.9855 0.48793 0.99352 0.0
C583 C 0.02291 0.47757 1.00039 0.0
C584 C 0.03236 0.44321 0.9858 0.0
C585 C 1.0054 0.42065 0.96399 0.0
C586 C 0.09282 0.51266 0.06958 0.0
C587 C 0.09573 0.55506 0.06836 0.0
C588 C 0.0708 0.48712 0.04668 0.0
C589 C 0.05158 0.50372 0.02224 0.0
C590 C 0.05719 0.54629 0.02004 0.0
C591 C 0.07875 0.57152 0.04279 0.0
H592 H 0.49343 0.26639 0.35017 0.0
H593 H 0.50785 0.37398 0.29266 0.0
H594 H 0.53372 0.23627 0.31344 0.0
H595 H 0.5482 0.3435 0.25564 0.0
H596 H 0.56345 0.24508 0.18087 0.0
H597 H 0.53302 0.28374 0.21869 0.0
H598 H 0.60463 0.24498 0.29153 0.0
H599 H 0.63539 0.20626 0.25356 0.0
C600 C 0.5054 0.28377 0.32975 0.0
C601 C 0.49721 0.32259 0.32433 0.0
C602 C 0.5288 0.26657 0.3088 0.0
C603 C 0.54426 0.28745 0.2816 0.0
C604 C 0.53657 0.32654 0.27631 0.0
C605 C 0.5136 0.34407 0.29758 0.0
C606 C 0.57319 0.2452 0.20488 0.0
C607 C 0.6018 0.22237 0.21417 0.0
C608 C 0.55585 0.26758 0.22654 0.0
C609 C 0.56622 0.26733 0.25817 0.0
C610 C 0.59574 0.24552 0.26736 0.0
C611 C 0.61357 0.22355 0.24558 0.0
H612 H 0.84068 0.78371 0.46623 0.0
H613 H 0.75445 0.8598 0.44751 0.0
H614 H 0.79424 0.74509 0.50354 0.0
H615 H 0.7073 0.82024 0.48566 0.0
H616 H 0.68966 0.65226 0.53695 0.0
H617 H 0.72612 0.6968 0.49725 0.0
H618 H 0.70328 0.80177 0.54629 0.0
H619 H 0.66593 0.75653 0.58662 0.0
C620 C 0.81174 0.79229 0.46992 0.0
C621 C 0.80122 0.82468 0.45331 0.0
C622 C 0.78499 0.76993 0.49141 0.0
C623 C 0.74684 0.77919 0.49722 0.0
C624 C 0.73651 0.81238 0.48156 0.0
C625 C 0.7634 0.83483 0.45964 0.0
C626 C 0.69185 0.68478 0.53925 0.0
C627 C 0.67551 0.70087 0.5653 0.0
C628 C 0.71283 0.71033 0.51644 0.0
C629 C 0.7183 0.75282 0.51897 0.0
C630 C 0.69957 0.76909 0.5438 0.0
C631 C 0.67824 0.74324 0.56685 0.0
H632 H 0.13224 0.5372 0.25512 0.0
H633 H 0.20533 0.50419 0.18086 0.0
H634 H 0.16248 0.49614 0.29129 0.0
H635 H 0.23429 0.46178 0.21652 0.0
H636 H 0.31788 0.43788 0.29581 0.0
H637 H 0.28167 0.46875 0.25681 0.0
H638 H 0.17005 0.43216 0.30927 0.0
H639 H 0.2069 0.40274 0.34896 0.0
C640 C 0.15406 0.52041 0.24635 0.0
C641 C 0.16651 0.52427 0.21512 0.0
C642 C 0.17141 0.49665 0.26711 0.0
C643 C 0.20135 0.4757 0.25709 0.0
C644 C 0.2122 0.47812 0.22544 0.0
C645 C 0.19527 0.50223 0.20484 0.0
C646 C 0.28545 0.43572 0.29878 0.0
C647 C 0.2654 0.41786 0.32564 0.0
C648 C 0.2645 0.45345 0.27628 0.0
C649 C 0.22273 0.45344 0.27978 0.0
C650 C 0.2023 0.43371 0.30596 0.0
C651 C 0.22338 0.41638 0.32863 0.0
H652 H 0.75346 0.31443 0.92429 0.0
H653 H 0.84384 0.34886 0.99608 0.0
H654 H 0.7068 0.27438 0.96243 0.0
H655 H 0.79674 0.31028 0.03438 0.0
H656 H 0.68042 0.25914 0.09571 0.0
H657 H 0.71714 0.30758 0.05719 0.0
H658 H 0.72322 0.20771 0.99566 0.0
H659 H 0.68797 0.15938 0.03429 0.0
C660 C 0.76272 0.31446 0.94841 0.0
C661 C 0.80193 0.33485 0.95745 0.0
C662 C 0.73622 0.29148 0.97012 0.0
C663 C 0.74819 0.28955 1.0013 0.0
C664 C 0.78667 0.31169 1.01056 0.0
C665 C 0.81354 0.33364 0.98872 0.0
C666 C 0.68916 0.24769 0.07378 0.0
C667 C 0.68147 0.20554 0.06801 0.0
C668 C 0.71018 0.27531 0.05186 0.0
C669 C 0.7227 0.26127 0.02347 0.0
C670 C 0.71352 0.21929 0.01724 0.0
C671 C 0.69356 0.19169 0.03941 0.0
H672 H 0.78605 0.8724 0.27794 0.0
H673 H 0.76226 0.95969 0.34536 0.0
H674 H 0.74692 0.90138 0.23908 0.0
H675 H 0.72313 0.98827 0.30673 0.0
H676 H 0.62893 0.01065 0.23527 0.0
H677 H 0.65909 0.97191 0.27375 0.0
H678 H 0.75901 0.96942 0.21122 0.0
H679 H 0.72926 0.00819 0.17304 0.0
C680 C 0.77201 0.89732 0.28462 0.0
C681 C 0.7775 0.91382 0.31473 0.0
C682 C 0.74978 0.91406 0.26232 0.0
C683 C 0.73195 0.9472 0.2698 0.0
C684 C 0.73611 0.96256 0.30026 0.0
C685 C 0.7588 0.94629 0.32236 0.0
C686 C 0.65707 1.0014 0.22962 0.0
C687 C 0.67676 0.01272 0.20113 0.0
C688 C 0.67444 0.97939 0.25171 0.0
C689 C 0.71148 0.96758 0.24556 0.0
C690 C 0.7303 0.97766 0.21661 0.0
C691 C 0.71334 1.00017 0.1948 0.0
H692 H 0.91429 0.95835 0.47839 0.0
H693 H 0.01528 0.91032 0.44354 0.0
H694 H 0.95813 0.99715 0.51717 0.0
H695 H 0.06002 0.95055 0.48265 0.0
H696 H 0.05092 0.10165 0.55294 0.0
H697 H 0.0126 0.05704 0.51443 0.0
H698 H 0.07439 0.96164 0.54042 0.0
H699 H 0.11414 0.00729 0.57924 0.0
C700 C 0.94596 0.95603 0.47891 0.0
C701 C 0.96129 0.93156 0.45739 0.0
C702 C 0.97123 0.97853 0.5012 0.0
C703 C 0.01284 0.97769 0.50266 0.0
C704 C 0.0281 0.95191 0.4821 0.0
C705 C 1.00252 0.929 0.45965 0.0
C706 C 0.05665 0.07125 0.55065 0.0
C707 C 0.08535 0.05799 0.56966 0.0
C708 C 0.03441 0.0455 0.52851 0.0
C709 C 0.03976 0.00543 0.5247 0.0
C710 C 0.0695 0.99234 0.54281 0.0
C711 C 0.09212 0.01842 0.56512 0.0
H712 H 1.00423 0.38573 0.79522 0.0
H713 H 0.99543 0.27968 0.85374 0.0
H714 H 0.04471 0.35612 0.75769 0.0
H715 H 0.03591 0.2505 0.81657 0.0
H716 H 0.13733 0.22333 0.75479 0.0
H717 H 0.10663 0.26173 0.79307 0.0
H718 H 0.02918 0.29465 0.72174 0.0
H719 H 0.05947 0.25626 0.68364 0.0
C720 C 0.01131 0.35639 0.80025 0.0
C721 C 0.99639 0.335 0.8274 0.0
C722 C 0.03433 0.33936 0.77872 0.0
C723 C 0.04358 0.30096 0.78417 0.0
C724 C 0.02973 0.28028 0.8118 0.0
C725 C 1.00622 0.29693 0.833 0.0
C726 C 0.11418 0.23925 0.7472 0.0
C727 C 0.10075 0.23651 0.71617 0.0
C728 C 0.09644 0.26105 0.76915 0.0
C729 C 0.06537 0.28116 0.76046 0.0
C730 C 0.05324 0.27984 0.72916 0.0
C731 C 0.07049 0.25759 0.70736 0.0
H732 H 0.60564 0.80577 0.67168 0.0
H733 H 0.57237 0.69516 0.72557 0.0
H734 H 0.57706 0.84276 0.71174 0.0
H735 H 0.54236 0.73148 0.76492 0.0
H736 H 0.50915 0.80802 0.84148 0.0
H737 H 0.55058 0.77907 0.80506 0.0
H738 H 0.51363 0.85033 0.73095 0.0
H739 H 0.47359 0.88058 0.76785 0.0
C740 C 0.59258 0.78939 0.69223 0.0
C741 C 0.59141 0.74744 0.69534 0.0
C742 C 0.57574 0.81056 0.71512 0.0
C743 C 0.55686 0.79028 0.74166 0.0
C744 C 0.55706 0.74856 0.74519 0.0
C745 C 0.57427 0.72753 0.72247 0.0
C746 C 0.51034 0.81798 0.81748 0.0
C747 C 0.48787 0.84658 0.8076 0.0
C748 C 0.53389 0.80104 0.79644 0.0
C749 C 0.53527 0.81172 0.76475 0.0
C750 C 0.51391 0.84152 0.75513 0.0
C751 C 0.49072 0.85888 0.77631 0.0
H752 H 0.13961 0.74332 0.06486 0.0
H753 H 0.24835 0.69783 0.08301 0.0
H754 H 0.17377 0.78218 0.02047 0.0
H755 H 0.28277 0.73799 0.04077 0.0
H756 H 0.32072 0.76621 0.94448 0.0
H757 H 0.28054 0.73236 0.9869 0.0
H758 H 0.22711 0.83733 1.00027 0.0
H759 H 0.26613 0.87076 0.9557 0.0
C760 C 0.17096 0.74222 0.05987 0.0
C761 C 0.191 0.71697 0.07744 0.0
C762 C 0.1906 0.76459 0.03446 0.0
C763 C 0.23079 0.7625 0.0264 0.0
C764 C 0.25137 0.73933 0.04537 0.0
C765 C 0.23168 0.71657 0.07011 0.0
C766 C 0.29998 0.78208 0.95588 0.0
C767 C 0.29693 0.82141 0.94649 0.0
C768 C 0.2772 0.76275 0.98074 0.0
C769 C 0.2513 0.78244 0.9978 0.0
C770 C 0.2468 0.82122 0.98777 0.0
C771 C 0.26926 0.84044 0.96226 0.0
H772 H 0.49865 0.37894 0.46107 0.0
H773 H 0.44895 0.48497 0.44195 0.0
H774 H 0.53788 0.41521 0.50428 0.0
H775 H 0.48948 0.52159 0.48332 0.0
H776 H 0.52448 0.56428 0.57848 0.0
H777 H 0.48847 0.52313 0.53717 0.0
H778 H 0.59249 0.4688 0.52181 0.0
H779 H 0.62801 0.50873 0.56499 0.0
C780 C 0.49663 0.41016 0.46564 0.0
C781 C 0.47031 0.42883 0.44804 0.0
C782 C 0.51925 0.43104 0.4904 0.0
C783 C 0.51638 0.47121 0.49786 0.0
C784 C 0.49161 0.49032 0.47913 0.0
C785 C 0.46863 0.46936 0.45492 0.0
C786 C 0.53967 0.54319 0.56676 0.0
C787 C 0.57933 0.54004 0.5752 0.0
C788 C 0.5191 0.51984 0.54258 0.0
C789 C 0.53778 0.49317 0.52542 0.0
C790 C 0.577 0.4889 0.53445 0.0
C791 C 0.59747 0.51193 0.55919 0.0
loop_
_geom_bond_atom_site_label_1
_geom_bond_atom_site_label_2
_geom_bond_distance
_geom_bond_site_symmetry_2
_ccdc_geom_bond_type
Co0 O2 2.143 . S
Co0 O8 2.074 . S
Co0 O11 2.093 . S
Co0 O24 2.097 . S
Co0 N41 2.151 . S
Co0 N49 2.214 . S
Co1 O2 2.160 . S
Co1 O7 2.058 . S
Co1 O17 2.057 . S
Co1 O32 2.037 . S
Co1 N36 2.145 . S
Co1 N57 2.257 . S
O2 Co0 2.143 . S
O2 Co1 2.160 . S
C3 O4 1.278 . S
C3 O11 1.224 . S
O4 C3 1.278 . S
C5 O6 1.245 . S
C5 O17 1.232 . S
O6 C5 1.245 . S
O7 Co1 2.058 . S
O7 C33 1.269 . S
O8 Co0 2.074 . S
O8 C33 1.257 . S
H9 C34 0.930 . S
H10 C40 0.930 . S
O11 Co0 2.093 . S
O11 C3 1.224 . S
H12 C44 0.929 . S
H13 C46 0.930 . S
H14 C47 0.930 . S
H15 C45 0.929 . S
H16 C48 0.928 . S
O17 Co1 2.057 . S
O17 C5 1.232 . S
H18 C37 0.929 . S
H19 C38 0.929 . S
H20 C50 0.931 . S
H21 C42 0.929 . S
H22 C51 0.930 . S
H23 C43 0.931 . S
O24 Co0 2.097 . S
O24 C52 1.214 . S
H25 C53 0.929 . S
H26 C54 0.929 . S
H27 C55 0.930 . S
H28 C56 0.929 . S
H29 C58 0.930 . S
H30 C35 0.930 . S
H31 C39 0.930 . S
O32 Co1 2.037 . S
O32 C52 1.234 . S
C33 O7 1.269 . S
C33 O8 1.257 . S
C34 H9 0.930 . S
C34 C37 1.388 1_655 S
C34 C39 1.418 . S
C35 H30 0.930 . S
C35 C38 1.404 1_655 S
C35 C39 1.353 . S
N36 Co1 2.145 . S
N36 C37 1.397 . S
N36 C38 1.334 . S
C37 H18 0.929 . S
C37 C34 1.388 1_455 S
C37 N36 1.397 . S
C38 H19 0.929 . S
C38 C35 1.404 1_455 S
C38 N36 1.334 . S
C39 H31 0.930 . S
C39 C34 1.418 . S
C39 C35 1.353 . S
C40 H10 0.930 . S
C40 N41 1.330 . S
C40 C42 1.446 . S
N41 Co0 2.151 . S
N41 C40 1.330 . S
N41 C45 1.418 . S
C42 H21 0.929 . S
C42 C40 1.446 . S
C42 C43 1.332 . S
C43 H23 0.931 . S
C43 C42 1.332 . S
C43 C44 1.267 . S
C44 H12 0.929 . S
C44 C43 1.267 . S
C44 C45 1.251 . S
C45 H15 0.929 . S
C45 N41 1.418 . S
C45 C44 1.251 . S
C46 H13 0.930 . S
C46 C48 1.406 . S
C46 C51 1.261 . S
C47 H14 0.930 . S
C47 N49 1.325 . S
C47 C50 1.357 . S
C48 H16 0.928 . S
C48 C46 1.406 . S
C48 N49 1.261 . S
N49 Co0 2.214 . S
N49 C47 1.325 . S
N49 C48 1.261 . S
C50 H20 0.931 . S
C50 C47 1.357 . S
C50 C51 1.312 . S
C51 H22 0.930 . S
C51 C46 1.261 . S
C51 C50 1.312 . S
C52 O24 1.214 . S
C52 O32 1.234 . S
C53 H25 0.929 . S
C53 C56 1.391 1_455 S
C53 C58 1.391 . S
C54 H26 0.929 . S
C54 C55 1.390 1_455 S
C54 N57 1.391 . S
C55 H27 0.930 . S
C55 C54 1.390 1_655 S
C55 C56 1.392 . S
C56 H28 0.929 . S
C56 C53 1.391 1_655 S
C56 C55 1.392 . S
N57 Co1 2.257 . S
N57 C54 1.391 . S
N57 C58 1.388 . S
C58 H29 0.930 . S
C58 C53 1.391 . S
C58 N57 1.388 . S
Co59 O61 2.143 . S
Co59 O67 2.074 . S
Co59 O70 2.093 . S
Co59 O83 2.097 . S
Co59 N100 2.151 . S
Co59 N108 2.214 . S
Co60 O61 2.160 . S
Co60 O66 2.058 . S
Co60 O76 2.057 . S
Co60 O91 2.037 . S
Co60 N95 2.145 . S
Co60 N116 2.257 . S
O61 Co59 2.143 . S
O61 Co60 2.160 . S
C62 O63 1.278 . S
C62 O70 1.224 . S
O63 C62 1.278 . S
C64 O65 1.245 . S
C64 O76 1.232 . S
O65 C64 1.245 . S
O66 Co60 2.058 . S
O66 C92 1.269 . S
O67 Co59 2.074 . S
O67 C92 1.257 . S
H68 C93 0.930 . S
H69 C99 0.930 . S
O70 Co59 2.093 . S
O70 C62 1.224 . S
H71 C103 0.929 . S
H72 C105 0.930 . S
H73 C106 0.930 . S
H74 C104 0.929 . S
H75 C107 0.928 . S
O76 Co60 2.057 . S
O76 C64 1.232 . S
H77 C96 0.929 . S
H78 C97 0.929 . S
H79 C109 0.931 . S
H80 C101 0.929 . S
H81 C110 0.930 . S
H82 C102 0.931 . S
O83 Co59 2.097 . S
O83 C111 1.214 . S
H84 C112 0.929 . S
H85 C113 0.929 . S
H86 C114 0.930 . S
H87 C115 0.929 . S
H88 C117 0.930 . S
H89 C94 0.930 . S
H90 C98 0.930 . S
O91 Co60 2.037 . S
O91 C111 1.234 . S
C92 O66 1.269 . S
C92 O67 1.257 . S
C93 H68 0.930 . S
C93 C96 1.388 . S
C93 C98 1.418 . S
C94 H89 0.930 . S
C94 C97 1.404 . S
C94 C98 1.353 . S
N95 Co60 2.145 . S
N95 C96 1.397 . S
N95 C97 1.334 . S
C96 H77 0.929 . S
C96 C93 1.388 . S
C96 N95 1.397 . S
C97 H78 0.929 . S
C97 C94 1.404 . S
C97 N95 1.334 . S
C98 H90 0.930 . S
C98 C93 1.418 . S
C98 C94 1.353 . S
C99 H69 0.930 . S
C99 N100 1.330 . S
C99 C101 1.446 . S
N100 Co59 2.151 . S
N100 C99 1.330 . S
N100 C104 1.418 . S
C101 H80 0.929 . S
C101 C99 1.446 . S
C101 C102 1.332 . S
C102 H82 0.931 . S
C102 C101 1.332 . S
C102 C103 1.267 . S
C103 H71 0.929 . S
C103 C102 1.267 . S
C103 C104 1.251 . S
C104 H74 0.929 . S
C104 N100 1.418 . S
C104 C103 1.251 . S
C105 H72 0.930 . S
C105 C107 1.406 . S
C105 C110 1.261 . S
C106 H73 0.930 . S
C106 N108 1.325 . S
C106 C109 1.357 . S
C107 H75 0.928 . S
C107 C105 1.406 . S
C107 N108 1.261 . S
N108 Co59 2.214 . S
N108 C106 1.325 . S
N108 C107 1.261 . S
C109 H79 0.931 . S
C109 C106 1.357 . S
C109 C110 1.312 . S
C110 H81 0.930 . S
C110 C105 1.261 . S
C110 C109 1.312 . S
C111 O83 1.214 . S
C111 O91 1.234 . S
C112 H84 0.929 . S
C112 C115 1.391 . S
C112 C117 1.391 . S
C113 H85 0.929 . S
C113 C114 1.390 . S
C113 N116 1.391 . S
C114 H86 0.930 . S
C114 C113 1.390 . S
C114 C115 1.392 . S
C115 H87 0.929 . S
C115 C112 1.391 . S
C115 C114 1.392 . S
N116 Co60 2.257 . S
N116 C113 1.391 . S
N116 C117 1.388 . S
C117 H88 0.930 . S
C117 C112 1.391 . S
C117 N116 1.388 . S
Co118 O120 2.143 . S
Co118 O126 2.074 . S
Co118 O129 2.093 . S
Co118 O142 2.097 . S
Co118 N159 2.151 . S
Co118 N167 2.214 . S
Co119 O120 2.160 . S
Co119 O125 2.058 . S
Co119 O135 2.057 . S
Co119 O150 2.037 . S
Co119 N154 2.145 . S
Co119 N175 2.257 . S
O120 Co118 2.143 . S
O120 Co119 2.160 . S
C121 O122 1.278 . S
C121 O129 1.224 . S
O122 C121 1.278 . S
C123 O124 1.245 . S
C123 O135 1.232 . S
O124 C123 1.245 . S
O125 Co119 2.058 . S
O125 C151 1.269 . S
O126 Co118 2.074 . S
O126 C151 1.257 . S
H127 C152 0.930 . S
H128 C158 0.930 . S
O129 Co118 2.093 . S
O129 C121 1.224 . S
H130 C162 0.929 . S
H131 C164 0.930 . S
H132 C165 0.930 . S
H133 C163 0.929 . S
H134 C166 0.928 . S
O135 Co119 2.057 . S
O135 C123 1.232 . S
H136 C155 0.929 . S
H137 C156 0.929 . S
H138 C168 0.931 . S
H139 C160 0.929 . S
H140 C169 0.930 . S
H141 C161 0.931 . S
O142 Co118 2.097 . S
O142 C170 1.214 . S
H143 C171 0.929 . S
H144 C172 0.929 . S
H145 C173 0.930 . S
H146 C174 0.929 . S
H147 C176 0.930 . S
H148 C153 0.930 . S
H149 C157 0.930 . S
O150 Co119 2.037 . S
O150 C170 1.234 . S
C151 O125 1.269 . S
C151 O126 1.257 . S
C152 H127 0.930 . S
C152 C155 1.388 . S
C152 C157 1.418 . S
C153 H148 0.930 . S
C153 C156 1.404 . S
C153 C157 1.353 . S
N154 Co119 2.145 . S
N154 C155 1.397 . S
N154 C156 1.334 . S
C155 H136 0.929 . S
C155 C152 1.388 . S
C155 N154 1.397 . S
C156 H137 0.929 . S
C156 C153 1.404 . S
C156 N154 1.334 . S
C157 H149 0.930 . S
C157 C152 1.418 . S
C157 C153 1.353 . S
C158 H128 0.930 . S
C158 N159 1.330 . S
C158 C160 1.446 . S
N159 Co118 2.151 . S
N159 C158 1.330 . S
N159 C163 1.418 . S
C160 H139 0.929 . S
C160 C158 1.446 . S
C160 C161 1.332 . S
C161 H141 0.931 . S
C161 C160 1.332 . S
C161 C162 1.267 . S
C162 H130 0.929 . S
C162 C161 1.267 . S
C162 C163 1.251 . S
C163 H133 0.929 . S
C163 N159 1.418 . S
C163 C162 1.251 . S
C164 H131 0.930 . S
C164 C166 1.406 . S
C164 C169 1.261 . S
C165 H132 0.930 . S
C165 N167 1.325 . S
C165 C168 1.357 . S
C166 H134 0.928 . S
C166 C164 1.406 . S
C166 N167 1.261 . S
N167 Co118 2.214 . S
N167 C165 1.325 . S
N167 C166 1.261 . S
C168 H138 0.931 . S
C168 C165 1.357 . S
C168 C169 1.312 . S
C169 H140 0.930 . S
C169 C164 1.261 . S
C169 C168 1.312 . S
C170 O142 1.214 . S
C170 O150 1.234 . S
C171 H143 0.929 . S
C171 C174 1.391 . S
C171 C176 1.391 . S
C172 H144 0.929 . S
C172 C173 1.390 . S
C172 N175 1.391 . S
C173 H145 0.930 . S
C173 C172 1.390 . S
C173 C174 1.392 . S
C174 H146 0.929 . S
C174 C171 1.391 . S
C174 C173 1.392 . S
N175 Co119 2.257 . S
N175 C172 1.391 . S
N175 C176 1.388 . S
C176 H147 0.930 . S
C176 C171 1.391 . S
C176 N175 1.388 . S
Co177 O179 2.143 . S
Co177 O185 2.074 . S
Co177 O188 2.093 . S
Co177 O201 2.097 . S
Co177 N218 2.151 . S
Co177 N226 2.214 . S
Co178 O179 2.160 . S
Co178 O184 2.058 . S
Co178 O194 2.057 . S
Co178 O209 2.037 . S
Co178 N213 2.145 . S
Co178 N234 2.257 . S
O179 Co177 2.143 . S
O179 Co178 2.160 . S
C180 O181 1.278 . S
C180 O188 1.224 . S
O181 C180 1.278 . S
C182 O183 1.245 . S
C182 O194 1.232 . S
O183 C182 1.245 . S
O184 Co178 2.058 . S
O184 C210 1.269 . S
O185 Co177 2.074 . S
O185 C210 1.257 . S
H186 C211 0.930 . S
H187 C217 0.930 . S
O188 Co177 2.093 . S
O188 C180 1.224 . S
H189 C221 0.929 . S
H190 C223 0.930 . S
H191 C224 0.930 . S
H192 C222 0.929 . S
H193 C225 0.928 . S
O194 Co178 2.057 . S
O194 C182 1.232 . S
H195 C214 0.929 . S
H196 C215 0.929 . S
H197 C227 0.931 . S
H198 C219 0.929 . S
H199 C228 0.930 . S
H200 C220 0.931 . S
O201 Co177 2.097 . S
O201 C229 1.214 . S
H202 C230 0.929 . S
H203 C231 0.929 . S
H204 C232 0.930 . S
H205 C233 0.929 . S
H206 C235 0.930 . S
H207 C212 0.930 . S
H208 C216 0.930 . S
O209 Co178 2.037 . S
O209 C229 1.234 . S
C210 O184 1.269 . S
C210 O185 1.257 . S
C211 H186 0.930 . S
C211 C214 1.388 1_545 S
C211 C216 1.418 . S
C212 H207 0.930 . S
C212 C215 1.404 1_545 S
C212 C216 1.353 . S
N213 Co178 2.145 . S
N213 C214 1.397 . S
N213 C215 1.334 . S
C214 H195 0.929 . S
C214 C211 1.388 1_565 S
C214 N213 1.397 . S
C215 H196 0.929 . S
C215 C212 1.404 1_565 S
C215 N213 1.334 . S
C216 H208 0.930 . S
C216 C211 1.418 . S
C216 C212 1.353 . S
C217 H187 0.930 . S
C217 N218 1.330 . S
C217 C219 1.446 . S
N218 Co177 2.151 . S
N218 C217 1.330 . S
N218 C222 1.418 . S
C219 H198 0.929 . S
C219 C217 1.446 . S
C219 C220 1.332 . S
C220 H200 0.931 . S
C220 C219 1.332 . S
C220 C221 1.267 . S
C221 H189 0.929 . S
C221 C220 1.267 . S
C221 C222 1.251 . S
C222 H192 0.929 . S
C222 N218 1.418 . S
C222 C221 1.251 . S
C223 H190 0.930 . S
C223 C225 1.406 . S
C223 C228 1.261 . S
C224 H191 0.930 . S
C224 N226 1.325 . S
C224 C227 1.357 . S
C225 H193 0.928 . S
C225 C223 1.406 . S
C225 N226 1.261 . S
N226 Co177 2.214 . S
N226 C224 1.325 . S
N226 C225 1.261 . S
C227 H197 0.931 . S
C227 C224 1.357 . S
C227 C228 1.312 . S
C228 H199 0.930 . S
C228 C223 1.261 . S
C228 C227 1.312 . S
C229 O201 1.214 . S
C229 O209 1.234 . S
C230 H202 0.929 . S
C230 C233 1.391 1_565 S
C230 C235 1.391 . S
C231 H203 0.929 . S
C231 C232 1.390 1_565 S
C231 N234 1.391 . S
C232 H204 0.930 . S
C232 C231 1.390 1_545 S
C232 C233 1.392 . S
C233 H205 0.929 . S
C233 C230 1.391 1_545 S
C233 C232 1.392 . S
N234 Co178 2.257 . S
N234 C231 1.391 . S
N234 C235 1.388 . S
C235 H206 0.930 . S
C235 C230 1.391 . S
C235 N234 1.388 . S
Co236 O238 2.143 . S
Co236 O244 2.074 . S
Co236 O247 2.093 . S
Co236 O260 2.097 . S
Co236 N277 2.151 . S
Co236 N285 2.214 . S
Co237 O238 2.160 . S
Co237 O243 2.058 . S
Co237 O253 2.057 . S
Co237 O268 2.037 . S
Co237 N272 2.145 . S
Co237 N293 2.257 . S
O238 Co236 2.143 . S
O238 Co237 2.160 . S
C239 O240 1.278 . S
C239 O247 1.224 . S
O240 C239 1.278 . S
C241 O242 1.245 . S
C241 O253 1.232 . S
O242 C241 1.245 . S
O243 Co237 2.058 . S
O243 C269 1.269 . S
O244 Co236 2.074 . S
O244 C269 1.257 . S
H245 C270 0.930 . S
H246 C276 0.930 . S
O247 Co236 2.093 . S
O247 C239 1.224 . S
H248 C280 0.929 . S
H249 C282 0.930 . S
H250 C283 0.930 . S
H251 C281 0.929 . S
H252 C284 0.928 . S
O253 Co237 2.057 . S
O253 C241 1.232 . S
H254 C273 0.929 . S
H255 C274 0.929 . S
H256 C286 0.931 . S
H257 C278 0.929 . S
H258 C287 0.930 . S
H259 C279 0.931 . S
O260 Co236 2.097 . S
O260 C288 1.214 . S
H261 C289 0.929 . S
H262 C290 0.929 . S
H263 C291 0.930 . S
H264 C292 0.929 . S
H265 C294 0.930 . S
H266 C271 0.930 . S
H267 C275 0.930 . S
O268 Co237 2.037 . S
O268 C288 1.234 . S
C269 O243 1.269 . S
C269 O244 1.257 . S
C270 H245 0.930 . S
C270 C273 1.388 1_655 S
C270 C275 1.418 . S
C271 H266 0.930 . S
C271 C274 1.404 1_655 S
C271 C275 1.353 . S
N272 Co237 2.145 . S
N272 C273 1.397 . S
N272 C274 1.334 . S
C273 H254 0.929 . S
C273 C270 1.388 1_455 S
C273 N272 1.397 . S
C274 H255 0.929 . S
C274 C271 1.404 1_455 S
C274 N272 1.334 . S
C275 H267 0.930 . S
C275 C270 1.418 . S
C275 C271 1.353 . S
C276 H246 0.930 . S
C276 N277 1.330 . S
C276 C278 1.446 . S
N277 Co236 2.151 . S
N277 C276 1.330 . S
N277 C281 1.418 . S
C278 H257 0.929 . S
C278 C276 1.446 . S
C278 C279 1.332 . S
C279 H259 0.931 . S
C279 C278 1.332 . S
C279 C280 1.267 . S
C280 H248 0.929 . S
C280 C279 1.267 . S
C280 C281 1.251 . S
C281 H251 0.929 . S
C281 N277 1.418 . S
C281 C280 1.251 . S
C282 H249 0.930 . S
C282 C284 1.406 . S
C282 C287 1.261 . S
C283 H250 0.930 . S
C283 N285 1.325 . S
C283 C286 1.357 . S
C284 H252 0.928 . S
C284 C282 1.406 . S
C284 N285 1.261 . S
N285 Co236 2.214 . S
N285 C283 1.325 . S
N285 C284 1.261 . S
C286 H256 0.931 . S
C286 C283 1.357 . S
C286 C287 1.312 . S
C287 H258 0.930 . S
C287 C282 1.261 . S
C287 C286 1.312 . S
C288 O260 1.214 . S
C288 O268 1.234 . S
C289 H261 0.929 . S
C289 C292 1.391 1_455 S
C289 C294 1.391 . S
C290 H262 0.929 . S
C290 C291 1.390 1_455 S
C290 N293 1.391 . S
C291 H263 0.930 . S
C291 C290 1.390 1_655 S
C291 C292 1.392 . S
C292 H264 0.929 . S
C292 C289 1.391 1_655 S
C292 C291 1.392 . S
N293 Co237 2.257 . S
N293 C290 1.391 . S
N293 C294 1.388 . S
C294 H265 0.930 . S
C294 C289 1.391 . S
C294 N293 1.388 . S
Co295 O297 2.143 . S
Co295 O303 2.074 . S
Co295 O306 2.093 . S
Co295 O319 2.097 . S
Co295 N336 2.151 . S
Co295 N344 2.214 . S
Co296 O297 2.160 . S
Co296 O302 2.058 . S
Co296 O312 2.057 . S
Co296 O327 2.037 . S
Co296 N331 2.145 . S
Co296 N352 2.257 . S
O297 Co295 2.143 . S
O297 Co296 2.160 . S
C298 O299 1.278 . S
C298 O306 1.224 . S
O299 C298 1.278 . S
C300 O301 1.245 . S
C300 O312 1.232 . S
O301 C300 1.245 . S
O302 Co296 2.058 . S
O302 C328 1.269 . S
O303 Co295 2.074 . S
O303 C328 1.257 . S
H304 C329 0.930 . S
H305 C335 0.930 . S
O306 Co295 2.093 . S
O306 C298 1.224 . S
H307 C339 0.929 . S
H308 C341 0.930 . S
H309 C342 0.930 . S
H310 C340 0.929 . S
H311 C343 0.928 . S
O312 Co296 2.057 . S
O312 C300 1.232 . S
H313 C332 0.929 . S
H314 C333 0.929 . S
H315 C345 0.931 . S
H316 C337 0.929 . S
H317 C346 0.930 . S
H318 C338 0.931 . S
O319 Co295 2.097 . S
O319 C347 1.214 . S
H320 C348 0.929 . S
H321 C349 0.929 . S
H322 C350 0.930 . S
H323 C351 0.929 . S
H324 C353 0.930 . S
H325 C330 0.930 . S
H326 C334 0.930 . S
O327 Co296 2.037 . S
O327 C347 1.234 . S
C328 O302 1.269 . S
C328 O303 1.257 . S
C329 H304 0.930 . S
C329 C332 1.388 . S
C329 C334 1.418 . S
C330 H325 0.930 . S
C330 C333 1.404 . S
C330 C334 1.353 . S
N331 Co296 2.145 . S
N331 C332 1.397 . S
N331 C333 1.334 . S
C332 H313 0.929 . S
C332 C329 1.388 . S
C332 N331 1.397 . S
C333 H314 0.929 . S
C333 C330 1.404 . S
C333 N331 1.334 . S
C334 H326 0.930 . S
C334 C329 1.418 . S
C334 C330 1.353 . S
C335 H305 0.930 . S
C335 N336 1.330 . S
C335 C337 1.446 . S
N336 Co295 2.151 . S
N336 C335 1.330 . S
N336 C340 1.418 . S
C337 H316 0.929 . S
C337 C335 1.446 . S
C337 C338 1.332 . S
C338 H318 0.931 . S
C338 C337 1.332 . S
C338 C339 1.267 . S
C339 H307 0.929 . S
C339 C338 1.267 . S
C339 C340 1.251 . S
C340 H310 0.929 . S
C340 N336 1.418 . S
C340 C339 1.251 . S
C341 H308 0.930 . S
C341 C343 1.406 . S
C341 C346 1.261 . S
C342 H309 0.930 . S
C342 N344 1.325 . S
C342 C345 1.357 . S
C343 H311 0.928 . S
C343 C341 1.406 . S
C343 N344 1.261 . S
N344 Co295 2.214 . S
N344 C342 1.325 . S
N344 C343 1.261 . S
C345 H315 0.931 . S
C345 C342 1.357 . S
C345 C346 1.312 . S
C346 H317 0.930 . S
C346 C341 1.261 . S
C346 C345 1.312 . S
C347 O319 1.214 . S
C347 O327 1.234 . S
C348 H320 0.929 . S
C348 C351 1.391 . S
C348 C353 1.391 . S
C349 H321 0.929 . S
C349 C350 1.390 . S
C349 N352 1.391 . S
C350 H322 0.930 . S
C350 C349 1.390 . S
C350 C351 1.392 . S
C351 H323 0.929 . S
C351 C348 1.391 . S
C351 C350 1.392 . S
N352 Co296 2.257 . S
N352 C349 1.391 . S
N352 C353 1.388 . S
C353 H324 0.930 . S
C353 C348 1.391 . S
C353 N352 1.388 . S
Co354 O356 2.143 . S
Co354 O362 2.074 . S
Co354 O365 2.093 . S
Co354 O378 2.097 . S
Co354 N395 2.151 . S
Co354 N403 2.214 . S
Co355 O356 2.160 . S
Co355 O361 2.058 . S
Co355 O371 2.057 . S
Co355 O386 2.037 . S
Co355 N390 2.145 . S
Co355 N411 2.257 . S
O356 Co354 2.143 . S
O356 Co355 2.160 . S
C357 O358 1.278 . S
C357 O365 1.224 . S
O358 C357 1.278 . S
C359 O360 1.245 . S
C359 O371 1.232 . S
O360 C359 1.245 . S
O361 Co355 2.058 . S
O361 C387 1.269 . S
O362 Co354 2.074 . S
O362 C387 1.257 . S
H363 C388 0.930 . S
H364 C394 0.930 . S
O365 Co354 2.093 . S
O365 C357 1.224 . S
H366 C398 0.929 . S
H367 C400 0.930 . S
H368 C401 0.930 . S
H369 C399 0.929 . S
H370 C402 0.928 . S
O371 Co355 2.057 . S
O371 C359 1.232 . S
H372 C391 0.929 . S
H373 C392 0.929 . S
H374 C404 0.931 . S
H375 C396 0.929 . S
H376 C405 0.930 . S
H377 C397 0.931 . S
O378 Co354 2.097 . S
O378 C406 1.214 . S
H379 C407 0.929 . S
H380 C408 0.929 . S
H381 C409 0.930 . S
H382 C410 0.929 . S
H383 C412 0.930 . S
H384 C389 0.930 . S
H385 C393 0.930 . S
O386 Co355 2.037 . S
O386 C406 1.234 . S
C387 O361 1.269 . S
C387 O362 1.257 . S
C388 H363 0.930 . S
C388 C391 1.388 1_545 S
C388 C393 1.418 . S
C389 H384 0.930 . S
C389 C392 1.404 1_545 S
C389 C393 1.353 . S
N390 Co355 2.145 . S
N390 C391 1.397 . S
N390 C392 1.334 . S
C391 H372 0.929 . S
C391 C388 1.388 1_565 S
C391 N390 1.397 . S
C392 H373 0.929 . S
C392 C389 1.404 1_565 S
C392 N390 1.334 . S
C393 H385 0.930 . S
C393 C388 1.418 . S
C393 C389 1.353 . S
C394 H364 0.930 . S
C394 N395 1.330 . S
C394 C396 1.446 . S
N395 Co354 2.151 . S
N395 C394 1.330 . S
N395 C399 1.418 . S
C396 H375 0.929 . S
C396 C394 1.446 . S
C396 C397 1.332 . S
C397 H377 0.931 . S
C397 C396 1.332 . S
C397 C398 1.267 . S
C398 H366 0.929 . S
C398 C397 1.267 . S
C398 C399 1.251 . S
C399 H369 0.929 . S
C399 N395 1.418 . S
C399 C398 1.251 . S
C400 H367 0.930 . S
C400 C402 1.406 . S
C400 C405 1.261 . S
C401 H368 0.930 . S
C401 N403 1.325 . S
C401 C404 1.357 . S
C402 H370 0.928 . S
C402 C400 1.406 . S
C402 N403 1.261 . S
N403 Co354 2.214 . S
N403 C401 1.325 . S
N403 C402 1.261 . S
C404 H374 0.931 . S
C404 C401 1.357 . S
C404 C405 1.312 . S
C405 H376 0.930 . S
C405 C400 1.261 . S
C405 C404 1.312 . S
C406 O378 1.214 . S
C406 O386 1.234 . S
C407 H379 0.929 . S
C407 C410 1.391 1_565 S
C407 C412 1.391 . S
C408 H380 0.929 . S
C408 C409 1.390 1_565 S
C408 N411 1.391 . S
C409 H381 0.930 . S
C409 C408 1.390 1_545 S
C409 C410 1.392 . S
C410 H382 0.929 . S
C410 C407 1.391 1_545 S
C410 C409 1.392 . S
N411 Co355 2.257 . S
N411 C408 1.391 . S
N411 C412 1.388 . S
C412 H383 0.930 . S
C412 C407 1.391 . S
C412 N411 1.388 . S
Co413 O415 2.143 . S
Co413 O421 2.074 . S
Co413 O424 2.093 . S
Co413 O437 2.097 . S
Co413 N454 2.151 . S
Co413 N462 2.214 . S
Co414 O415 2.160 . S
Co414 O420 2.058 . S
Co414 O430 2.057 . S
Co414 O445 2.037 . S
Co414 N449 2.145 . S
Co414 N470 2.257 . S
O415 Co413 2.143 . S
O415 Co414 2.160 . S
C416 O417 1.278 . S
C416 O424 1.224 . S
O417 C416 1.278 . S
C418 O419 1.245 . S
C418 O430 1.232 . S
O419 C418 1.245 . S
O420 Co414 2.058 . S
O420 C446 1.269 . S
O421 Co413 2.074 . S
O421 C446 1.257 . S
H422 C447 0.930 . S
H423 C453 0.930 . S
O424 Co413 2.093 . S
O424 C416 1.224 . S
H425 C457 0.929 . S
H426 C459 0.930 . S
H427 C460 0.930 . S
H428 C458 0.929 . S
H429 C461 0.928 . S
O430 Co414 2.057 . S
O430 C418 1.232 . S
H431 C450 0.929 . S
H432 C451 0.929 . S
H433 C463 0.931 . S
H434 C455 0.929 . S
H435 C464 0.930 . S
H436 C456 0.931 . S
O437 Co413 2.097 . S
O437 C465 1.214 . S
H438 C466 0.929 . S
H439 C467 0.929 . S
H440 C468 0.930 . S
H441 C469 0.929 . S
H442 C471 0.930 . S
H443 C448 0.930 . S
H444 C452 0.930 . S
O445 Co414 2.037 . S
O445 C465 1.234 . S
C446 O420 1.269 . S
C446 O421 1.257 . S
C447 H422 0.930 . S
C447 C450 1.388 . S
C447 C452 1.418 . S
C448 H443 0.930 . S
C448 C451 1.404 . S
C448 C452 1.353 . S
N449 Co414 2.145 . S
N449 C450 1.397 . S
N449 C451 1.334 . S
C450 H431 0.929 . S
C450 C447 1.388 . S
C450 N449 1.397 . S
C451 H432 0.929 . S
C451 C448 1.404 . S
C451 N449 1.334 . S
C452 H444 0.930 . S
C452 C447 1.418 . S
C452 C448 1.353 . S
C453 H423 0.930 . S
C453 N454 1.330 . S
C453 C455 1.446 . S
N454 Co413 2.151 . S
N454 C453 1.330 . S
N454 C458 1.418 . S
C455 H434 0.929 . S
C455 C453 1.446 . S
C455 C456 1.332 . S
C456 H436 0.931 . S
C456 C455 1.332 . S
C456 C457 1.267 . S
C457 H425 0.929 . S
C457 C456 1.267 . S
C457 C458 1.251 . S
C458 H428 0.929 . S
C458 N454 1.418 . S
C458 C457 1.251 . S
C459 H426 0.930 . S
C459 C461 1.406 . S
C459 C464 1.261 . S
C460 H427 0.930 . S
C460 N462 1.325 . S
C460 C463 1.357 . S
C461 H429 0.928 . S
C461 C459 1.406 . S
C461 N462 1.261 . S
N462 Co413 2.214 . S
N462 C460 1.325 . S
N462 C461 1.261 . S
C463 H433 0.931 . S
C463 C460 1.357 . S
C463 C464 1.312 . S
C464 H435 0.930 . S
C464 C459 1.261 . S
C464 C463 1.312 . S
C465 O437 1.214 . S
C465 O445 1.234 . S
C466 H438 0.929 . S
C466 C469 1.391 . S
C466 C471 1.391 . S
C467 H439 0.929 . S
C467 C468 1.390 . S
C467 N470 1.391 . S
C468 H440 0.930 . S
C468 C467 1.390 . S
C468 C469 1.392 . S
C469 H441 0.929 . S
C469 C466 1.391 . S
C469 C468 1.392 . S
N470 Co414 2.257 . S
N470 C467 1.391 . S
N470 C471 1.388 . S
C471 H442 0.930 . S
C471 C466 1.391 . S
C471 N470 1.388 . S
H472 C480 0.950 . S
H473 C485 0.950 . S
H474 C482 0.950 . S
H475 C484 0.950 . S
H476 C486 0.950 . S
H477 C488 0.950 . S
H478 C490 0.950 . S
H479 C491 0.950 . S
C480 H472 0.950 . S
C480 C481 1.386 . S
C480 C482 1.391 . S
C481 C480 1.386 . S
C481 C485 1.393 . S
C482 H474 0.950 . S
C482 C480 1.391 . S
C482 C483 1.400 . S
C483 C482 1.400 . S
C483 C484 1.398 . S
C483 C489 1.491 . S
C484 H475 0.950 . S
C484 C483 1.398 . S
C484 C485 1.391 . S
C485 H473 0.950 . S
C485 C481 1.393 . S
C485 C484 1.391 . S
C486 H476 0.950 . S
C486 C487 1.386 . S
C486 C488 1.391 . S
C487 C486 1.386 . S
C487 C491 1.393 . S
C488 H477 0.950 . S
C488 C486 1.391 . S
C488 C489 1.400 . S
C489 C483 1.491 . S
C489 C488 1.400 . S
C489 C490 1.398 . S
C490 H478 0.950 . S
C490 C489 1.398 . S
C490 C491 1.391 . S
C491 H479 0.950 . S
C491 C487 1.393 . S
C491 C490 1.391 . S
H492 C500 0.950 . S
H493 C505 0.950 . S
H494 C502 0.950 . S
H495 C504 0.950 . S
H496 C506 0.950 . S
H497 C508 0.950 . S
H498 C510 0.950 . S
H499 C511 0.950 . S
C500 H492 0.950 . S
C500 C501 1.386 . S
C500 C502 1.391 . S
C501 C500 1.386 . S
C501 C505 1.393 . S
C502 H494 0.950 . S
C502 C500 1.391 . S
C502 C503 1.400 . S
C503 C502 1.400 . S
C503 C504 1.398 . S
C503 C509 1.491 . S
C504 H495 0.950 . S
C504 C503 1.398 . S
C504 C505 1.391 . S
C505 H493 0.950 . S
C505 C501 1.393 . S
C505 C504 1.391 . S
C506 H496 0.950 . S
C506 C507 1.386 . S
C506 C508 1.391 . S
C507 C506 1.386 . S
C507 C511 1.393 . S
C508 H497 0.950 . S
C508 C506 1.391 . S
C508 C509 1.400 . S
C509 C503 1.491 . S
C509 C508 1.400 . S
C509 C510 1.398 . S
C510 H498 0.950 . S
C510 C509 1.398 . S
C510 C511 1.391 . S
C511 H499 0.950 . S
C511 C507 1.393 . S
C511 C510 1.391 . S
H512 C520 0.950 . S
H513 C525 0.950 1_565 S
H514 C522 0.950 1_556 S
H515 C524 0.950 . S
H516 C526 0.950 . S
H517 C528 0.950 1_554 S
H518 C530 0.950 1_545 S
H519 C531 0.950 . S
C520 H512 0.950 . S
C520 C521 1.386 . S
C520 C522 1.391 . S
C521 C520 1.386 . S
C521 C525 1.393 . S
C522 H514 0.950 1_554 S
C522 C520 1.391 . S
C522 C523 1.400 1_545 S
C523 C522 1.400 1_565 S
C523 C524 1.398 . S
C523 C529 1.491 1_554 S
C524 H515 0.950 . S
C524 C523 1.398 . S
C524 C525 1.391 1_565 S
C525 H513 0.950 1_545 S
C525 C521 1.393 . S
C525 C524 1.391 1_545 S
C526 H516 0.950 . S
C526 C527 1.386 . S
C526 C528 1.391 . S
C527 C526 1.386 . S
C527 C531 1.393 . S
C528 H517 0.950 1_556 S
C528 C526 1.391 . S
C528 C529 1.400 . S
C529 C523 1.491 1_556 S
C529 C528 1.400 . S
C529 C530 1.398 . S
C530 H518 0.950 1_565 S
C530 C529 1.398 . S
C530 C531 1.391 . S
C531 H519 0.950 . S
C531 C527 1.393 . S
C531 C530 1.391 . S
H532 C540 0.950 . S
H533 C545 0.950 . S
H534 C542 0.950 . S
H535 C544 0.950 . S
H536 C546 0.950 . S
H537 C548 0.950 . S
H538 C550 0.950 1_655 S
H539 C551 0.950 . S
C540 H532 0.950 . S
C540 C541 1.386 . S
C540 C542 1.391 . S
C541 C540 1.386 . S
C541 C545 1.393 1_655 S
C542 H534 0.950 . S
C542 C540 1.391 . S
C542 C543 1.400 1_655 S
C543 C542 1.400 1_455 S
C543 C544 1.398 . S
C543 C549 1.491 . S
C544 H535 0.950 . S
C544 C543 1.398 . S
C544 C545 1.391 . S
C545 H533 0.950 . S
C545 C541 1.393 1_455 S
C545 C544 1.391 . S
C546 H536 0.950 . S
C546 C547 1.386 . S
C546 C548 1.391 . S
C547 C546 1.386 . S
C547 C551 1.393 . S
C548 H537 0.950 . S
C548 C546 1.391 . S
C548 C549 1.400 . S
C549 C543 1.491 . S
C549 C548 1.400 . S
C549 C550 1.398 . S
C550 H538 0.950 1_455 S
C550 C549 1.398 . S
C550 C551 1.391 . S
C551 H539 0.950 . S
C551 C547 1.393 . S
C551 C550 1.391 . S
H552 C560 0.950 . S
H553 C565 0.950 . S
H554 C562 0.950 . S
H555 C564 0.950 . S
H556 C566 0.950 . S
H557 C568 0.950 . S
H558 C570 0.950 . S
H559 C571 0.950 . S
C560 H552 0.950 . S
C560 C561 1.386 . S
C560 C562 1.391 . S
C561 C560 1.386 . S
C561 C565 1.393 . S
C562 H554 0.950 . S
C562 C560 1.391 . S
C562 C563 1.400 . S
C563 C562 1.400 . S
C563 C564 1.398 . S
C563 C569 1.491 . S
C564 H555 0.950 . S
C564 C563 1.398 . S
C564 C565 1.391 . S
C565 H553 0.950 . S
C565 C561 1.393 . S
C565 C564 1.391 . S
C566 H556 0.950 . S
C566 C567 1.386 . S
C566 C568 1.391 . S
C567 C566 1.386 . S
C567 C571 1.393 . S
C568 H557 0.950 . S
C568 C566 1.391 . S
C568 C569 1.400 1_545 S
C569 C563 1.491 . S
C569 C568 1.400 1_565 S
C569 C570 1.398 . S
C570 H558 0.950 . S
C570 C569 1.398 . S
C570 C571 1.391 1_565 S
C571 H559 0.950 . S
C571 C567 1.393 . S
C571 C570 1.391 1_545 S
H572 C580 0.950 . S
H573 C585 0.950 1_455 S
H574 C582 0.950 1_554 S
H575 C584 0.950 . S
H576 C586 0.950 . S
H577 C588 0.950 1_556 S
H578 C590 0.950 1_655 S
H579 C591 0.950 . S
C580 H572 0.950 . S
C580 C581 1.386 . S
C580 C582 1.391 . S
C581 C580 1.386 . S
C581 C585 1.393 . S
C582 H574 0.950 1_556 S
C582 C580 1.391 . S
C582 C583 1.400 1_655 S
C583 C582 1.400 1_455 S
C583 C584 1.398 . S
C583 C589 1.491 1_556 S
C584 H575 0.950 . S
C584 C583 1.398 . S
C584 C585 1.391 1_455 S
C585 H573 0.950 1_655 S
C585 C581 1.393 . S
C585 C584 1.391 1_655 S
C586 H576 0.950 . S
C586 C587 1.386 . S
C586 C588 1.391 . S
C587 C586 1.386 . S
C587 C591 1.393 . S
C588 H577 0.950 1_554 S
C588 C586 1.391 . S
C588 C589 1.400 . S
C589 C583 1.491 1_554 S
C589 C588 1.400 . S
C589 C590 1.398 . S
C590 H578 0.950 1_455 S
C590 C589 1.398 . S
C590 C591 1.391 . S
C591 H579 0.950 . S
C591 C587 1.393 . S
C591 C590 1.391 . S
H592 C600 0.950 . S
H593 C605 0.950 . S
H594 C602 0.950 . S
H595 C604 0.950 . S
H596 C606 0.950 . S
H597 C608 0.950 . S
H598 C610 0.950 . S
H599 C611 0.950 . S
C600 H592 0.950 . S
C600 C601 1.386 . S
C600 C602 1.391 . S
C601 C600 1.386 . S
C601 C605 1.393 . S
C602 H594 0.950 . S
C602 C600 1.391 . S
C602 C603 1.400 . S
C603 C602 1.400 . S
C603 C604 1.398 . S
C603 C609 1.491 . S
C604 H595 0.950 . S
C604 C603 1.398 . S
C604 C605 1.391 . S
C605 H593 0.950 . S
C605 C601 1.393 . S
C605 C604 1.391 . S
C606 H596 0.950 . S
C606 C607 1.386 . S
C606 C608 1.391 . S
C607 C606 1.386 . S
C607 C611 1.393 . S
C608 H597 0.950 . S
C608 C606 1.391 . S
C608 C609 1.400 . S
C609 C603 1.491 . S
C609 C608 1.400 . S
C609 C610 1.398 . S
C610 H598 0.950 . S
C610 C609 1.398 . S
C610 C611 1.391 . S
C611 H599 0.950 . S
C611 C607 1.393 . S
C611 C610 1.391 . S
H612 C620 0.950 . S
H613 C625 0.950 . S
H614 C622 0.950 . S
H615 C624 0.950 . S
H616 C626 0.950 . S
H617 C628 0.950 . S
H618 C630 0.950 . S
H619 C631 0.950 . S
C620 H612 0.950 . S
C620 C621 1.386 . S
C620 C622 1.391 . S
C621 C620 1.386 . S
C621 C625 1.393 . S
C622 H614 0.950 . S
C622 C620 1.391 . S
C622 C623 1.400 . S
C623 C622 1.400 . S
C623 C624 1.398 . S
C623 C629 1.491 . S
C624 H615 0.950 . S
C624 C623 1.398 . S
C624 C625 1.391 . S
C625 H613 0.950 . S
C625 C621 1.393 . S
C625 C624 1.391 . S
C626 H616 0.950 . S
C626 C627 1.386 . S
C626 C628 1.391 . S
C627 C626 1.386 . S
C627 C631 1.393 . S
C628 H617 0.950 . S
C628 C626 1.391 . S
C628 C629 1.400 . S
C629 C623 1.491 . S
C629 C628 1.400 . S
C629 C630 1.398 . S
C630 H618 0.950 . S
C630 C629 1.398 . S
C630 C631 1.391 . S
C631 H619 0.950 . S
C631 C627 1.393 . S
C631 C630 1.391 . S
H632 C640 0.950 . S
H633 C645 0.950 . S
H634 C642 0.950 . S
H635 C644 0.950 . S
H636 C646 0.950 . S
H637 C648 0.950 . S
H638 C650 0.950 . S
H639 C651 0.950 . S
C640 H632 0.950 . S
C640 C641 1.386 . S
C640 C642 1.391 . S
C641 C640 1.386 . S
C641 C645 1.393 . S
C642 H634 0.950 . S
C642 C640 1.391 . S
C642 C643 1.400 . S
C643 C642 1.400 . S
C643 C644 1.398 . S
C643 C649 1.491 . S
C644 H635 0.950 . S
C644 C643 1.398 . S
C644 C645 1.391 . S
C645 H633 0.950 . S
C645 C641 1.393 . S
C645 C644 1.391 . S
C646 H636 0.950 . S
C646 C647 1.386 . S
C646 C648 1.391 . S
C647 C646 1.386 . S
C647 C651 1.393 . S
C648 H637 0.950 . S
C648 C646 1.391 . S
C648 C649 1.400 . S
C649 C643 1.491 . S
C649 C648 1.400 . S
C649 C650 1.398 . S
C650 H638 0.950 . S
C650 C649 1.398 . S
C650 C651 1.391 . S
C651 H639 0.950 . S
C651 C647 1.393 . S
C651 C650 1.391 . S
H652 C660 0.950 . S
H653 C665 0.950 . S
H654 C662 0.950 . S
H655 C664 0.950 1_554 S
H656 C666 0.950 . S
H657 C668 0.950 . S
H658 C670 0.950 1_556 S
H659 C671 0.950 . S
C660 H652 0.950 . S
C660 C661 1.386 . S
C660 C662 1.391 . S
C661 C660 1.386 . S
C661 C665 1.393 . S
C662 H654 0.950 . S
C662 C660 1.391 . S
C662 C663 1.400 . S
C663 C662 1.400 . S
C663 C664 1.398 . S
C663 C669 1.491 1_556 S
C664 H655 0.950 1_556 S
C664 C663 1.398 . S
C664 C665 1.391 . S
C665 H653 0.950 . S
C665 C661 1.393 . S
C665 C664 1.391 . S
C666 H656 0.950 . S
C666 C667 1.386 . S
C666 C668 1.391 . S
C667 C666 1.386 . S
C667 C671 1.393 . S
C668 H657 0.950 . S
C668 C666 1.391 . S
C668 C669 1.400 . S
C669 C663 1.491 1_554 S
C669 C668 1.400 . S
C669 C670 1.398 . S
C670 H658 0.950 1_554 S
C670 C669 1.398 . S
C670 C671 1.391 . S
C671 H659 0.950 . S
C671 C667 1.393 . S
C671 C670 1.391 . S
H672 C680 0.950 . S
H673 C685 0.950 . S
H674 C682 0.950 . S
H675 C684 0.950 . S
H676 C686 0.950 . S
H677 C688 0.950 . S
H678 C690 0.950 . S
H679 C691 0.950 . S
C680 H672 0.950 . S
C680 C681 1.386 . S
C680 C682 1.391 . S
C681 C680 1.386 . S
C681 C685 1.393 . S
C682 H674 0.950 . S
C682 C680 1.391 . S
C682 C683 1.400 . S
C683 C682 1.400 . S
C683 C684 1.398 . S
C683 C689 1.491 . S
C684 H675 0.950 . S
C684 C683 1.398 . S
C684 C685 1.391 . S
C685 H673 0.950 . S
C685 C681 1.393 . S
C685 C684 1.391 . S
C686 H676 0.950 . S
C686 C687 1.386 . S
C686 C688 1.391 . S
C687 C686 1.386 . S
C687 C691 1.393 . S
C688 H677 0.950 . S
C688 C686 1.391 . S
C688 C689 1.400 1_545 S
C689 C683 1.491 . S
C689 C688 1.400 1_565 S
C689 C690 1.398 . S
C690 H678 0.950 . S
C690 C689 1.398 . S
C690 C691 1.391 1_565 S
C691 H679 0.950 . S
C691 C687 1.393 . S
C691 C690 1.391 1_545 S
H692 C700 0.950 . S
H693 C705 0.950 . S
H694 C702 0.950 . S
H695 C704 0.950 1_545 S
H696 C706 0.950 . S
H697 C708 0.950 . S
H698 C710 0.950 1_655 S
H699 C711 0.950 . S
C700 H692 0.950 . S
C700 C701 1.386 . S
C700 C702 1.391 . S
C701 C700 1.386 . S
C701 C705 1.393 . S
C702 H694 0.950 . S
C702 C700 1.391 . S
C702 C703 1.400 1_655 S
C703 C702 1.400 1_455 S
C703 C704 1.398 . S
C703 C709 1.491 . S
C704 H695 0.950 1_565 S
C704 C703 1.398 . S
C704 C705 1.391 1_455 S
C705 H693 0.950 . S
C705 C701 1.393 . S
C705 C704 1.391 1_655 S
C706 H696 0.950 . S
C706 C707 1.386 . S
C706 C708 1.391 . S
C707 C706 1.386 . S
C707 C711 1.393 . S
C708 H697 0.950 . S
C708 C706 1.391 . S
C708 C709 1.400 1_545 S
C709 C703 1.491 . S
C709 C708 1.400 1_565 S
C709 C710 1.398 . S
C710 H698 0.950 1_455 S
C710 C709 1.398 . S
C710 C711 1.391 1_565 S
C711 H699 0.950 . S
C711 C707 1.393 . S
C711 C710 1.391 1_545 S
H712 C720 0.950 . S
H713 C725 0.950 . S
H714 C722 0.950 . S
H715 C724 0.950 1_455 S
H716 C726 0.950 . S
H717 C728 0.950 . S
H718 C730 0.950 . S
H719 C731 0.950 . S
C720 H712 0.950 . S
C720 C721 1.386 . S
C720 C722 1.391 1_655 S
C721 C720 1.386 . S
C721 C725 1.393 . S
C722 H714 0.950 . S
C722 C720 1.391 1_455 S
C722 C723 1.400 . S
C723 C722 1.400 . S
C723 C724 1.398 1_455 S
C723 C729 1.491 . S
C724 H715 0.950 1_655 S
C724 C723 1.398 1_655 S
C724 C725 1.391 . S
C725 H713 0.950 . S
C725 C721 1.393 . S
C725 C724 1.391 . S
C726 H716 0.950 . S
C726 C727 1.386 . S
C726 C728 1.391 . S
C727 C726 1.386 . S
C727 C731 1.393 . S
C728 H717 0.950 . S
C728 C726 1.391 . S
C728 C729 1.400 . S
C729 C723 1.491 . S
C729 C728 1.400 . S
C729 C730 1.398 . S
C730 H718 0.950 . S
C730 C729 1.398 . S
C730 C731 1.391 . S
C731 H719 0.950 . S
C731 C727 1.393 . S
C731 C730 1.391 . S
H732 C740 0.950 . S
H733 C745 0.950 . S
H734 C742 0.950 . S
H735 C744 0.950 . S
H736 C746 0.950 . S
H737 C748 0.950 . S
H738 C750 0.950 . S
H739 C751 0.950 . S
C740 H732 0.950 . S
C740 C741 1.386 . S
C740 C742 1.391 . S
C741 C740 1.386 . S
C741 C745 1.393 . S
C742 H734 0.950 . S
C742 C740 1.391 . S
C742 C743 1.400 . S
C743 C742 1.400 . S
C743 C744 1.398 . S
C743 C749 1.491 . S
C744 H735 0.950 . S
C744 C743 1.398 . S
C744 C745 1.391 . S
C745 H733 0.950 . S
C745 C741 1.393 . S
C745 C744 1.391 . S
C746 H736 0.950 . S
C746 C747 1.386 . S
C746 C748 1.391 . S
C747 C746 1.386 . S
C747 C751 1.393 . S
C748 H737 0.950 . S
C748 C746 1.391 . S
C748 C749 1.400 . S
C749 C743 1.491 . S
C749 C748 1.400 . S
C749 C750 1.398 . S
C750 H738 0.950 . S
C750 C749 1.398 . S
C750 C751 1.391 . S
C751 H739 0.950 . S
C751 C747 1.393 . S
C751 C750 1.391 . S
H752 C760 0.950 . S
H753 C765 0.950 . S
H754 C762 0.950 1_556 S
H755 C764 0.950 . S
H756 C766 0.950 . S
H757 C768 0.950 1_554 S
H758 C770 0.950 . S
H759 C771 0.950 . S
C760 H752 0.950 . S
C760 C761 1.386 . S
C760 C762 1.391 . S
C761 C760 1.386 . S
C761 C765 1.393 . S
C762 H754 0.950 1_554 S
C762 C760 1.391 . S
C762 C763 1.400 . S
C763 C762 1.400 . S
C763 C764 1.398 . S
C763 C769 1.491 1_554 S
C764 H755 0.950 . S
C764 C763 1.398 . S
C764 C765 1.391 . S
C765 H753 0.950 . S
C765 C761 1.393 . S
C765 C764 1.391 . S
C766 H756 0.950 . S
C766 C767 1.386 . S
C766 C768 1.391 . S
C767 C766 1.386 . S
C767 C771 1.393 . S
C768 H757 0.950 1_556 S
C768 C766 1.391 . S
C768 C769 1.400 . S
C769 C763 1.491 1_556 S
C769 C768 1.400 . S
C769 C770 1.398 . S
C770 H758 0.950 . S
C770 C769 1.398 . S
C770 C771 1.391 . S
C771 H759 0.950 . S
C771 C767 1.393 . S
C771 C770 1.391 . S
H772 C780 0.950 . S
H773 C785 0.950 . S
H774 C782 0.950 . S
H775 C784 0.950 . S
H776 C786 0.950 . S
H777 C788 0.950 . S
H778 C790 0.950 . S
H779 C791 0.950 . S
C780 H772 0.950 . S
C780 C781 1.386 . S
C780 C782 1.391 . S
C781 C780 1.386 . S
C781 C785 1.393 . S
C782 H774 0.950 . S
C782 C780 1.391 . S
C782 C783 1.400 . S
C783 C782 1.400 . S
C783 C784 1.398 . S
C783 C789 1.491 . S
C784 H775 0.950 . S
C784 C783 1.398 . S
C784 C785 1.391 . S
C785 H773 0.950 . S
C785 C781 1.393 . S
C785 C784 1.391 . S
C786 H776 0.950 . S
C786 C787 1.386 . S
C786 C788 1.391 . S
C787 C786 1.386 . S
C787 C791 1.393 . S
C788 H777 0.950 . S
C788 C786 1.391 . S
C788 C789 1.400 . S
C789 C783 1.491 . S
C789 C788 1.400 . S
C789 C790 1.398 . S
C790 H778 0.950 . S
C790 C789 1.398 . S
C790 C791 1.391 . S
C791 H779 0.950 . S
C791 C787 1.393 . S
C791 C790 1.391 . S
C481 C328 1.587 . S
C487 C33 1.596 . S
C501 C416 1.578 . S
C507 C64 1.591 . S
C521 C170 1.597 . S
C527 C406 1.588 . S
C541 C180 1.588 . S
C547 C241 1.588 . S
C561 C359 1.586 . S
C567 C3 1.581 . S
C581 C111 1.597 . S
C587 C288 1.591 . S
C601 C298 1.584 . S
C607 C123 1.594 . S
C621 C210 1.596 . S
C627 C446 1.587 . S
C641 C239 1.578 . S
C647 C300 1.588 . S
C661 C92 1.587 . S
C667 C151 1.596 . S
C681 C182 1.593 . S
C687 C121 1.582 . S
C701 C229 1.597 . S
C707 C52 1.588 . S
C721 C62 1.581 . S
C727 C5 1.586 . S
C741 C418 1.586 . S
C747 C357 1.579 . S
C761 C269 1.594 . S
C767 C387 1.589 . S
C781 C347 1.595 . S
C787 C465 1.588 . S
