# Generated by pormake.
# Topology unl, (4)-cn, num edge types: 1
# Building blocks:
#     Node 0, Type 0, BuildingBlock: ICAMEG_clean_sbu_1, # of connection points: 4
#     Node 1, Type 0, BuildingBlock: ICAMEG_clean_sbu_1, # of connection points: 4
#     Node 2, Type 0, BuildingBlock: ICAMEG_clean_sbu_1, # of connection points: 4
#     Node 3, Type 0, BuildingBlock: ICAMEG_clean_sbu_1, # of connection points: 4
#     Node 4, Type 0, BuildingBlock: ICAMEG_clean_sbu_1, # of connection points: 4
#     Node 5, Type 0, BuildingBlock: ICAMEG_clean_sbu_1, # of connection points: 4
#     Node 6, Type 0, BuildingBlock: ICAMEG_clean_sbu_1, # of connection points: 4
#     Node 7, Type 0, BuildingBlock: ICAMEG_clean_sbu_1, # of connection points: 4
#     Node 8, Type 0, BuildingBlock: ICAMEG_clean_sbu_1, # of connection points: 4
#     Node 9, Type 0, BuildingBlock: ICAMEG_clean_sbu_1, # of connection points: 4
#     Node 10, Type 0, BuildingBlock: ICAMEG_clean_sbu_1, # of connection points: 4
#     Node 11, Type 0, BuildingBlock: ICAMEG_clean_sbu_1, # of connection points: 4
#     Node 12, Type 0, BuildingBlock: ICAMEG_clean_sbu_1, # of connection points: 4
#     Node 13, Type 0, BuildingBlock: ICAMEG_clean_sbu_1, # of connection points: 4
#     Node 14, Type 0, BuildingBlock: ICAMEG_clean_sbu_1, # of connection points: 4
#     Node 15, Type 0, BuildingBlock: ICAMEG_clean_sbu_1, # of connection points: 4
#     Node 16, Type 0, BuildingBlock: ICAMEG_clean_sbu_1, # of connection points: 4
#     Node 17, Type 0, BuildingBlock: ICAMEG_clean_sbu_1, # of connection points: 4
#     Node 18, Type 0, BuildingBlock: ICAMEG_clean_sbu_1, # of connection points: 4
#     Node 19, Type 0, BuildingBlock: ICAMEG_clean_sbu_1, # of connection points: 4
#     Node 20, Type 0, BuildingBlock: ICAMEG_clean_sbu_1, # of connection points: 4
#     Node 21, Type 0, BuildingBlock: ICAMEG_clean_sbu_1, # of connection points: 4
#     Node 22, Type 0, BuildingBlock: ICAMEG_clean_sbu_1, # of connection points: 4
#     Node 23, Type 0, BuildingBlock: ICAMEG_clean_sbu_1, # of connection points: 4
#     Node 24, Type 0, BuildingBlock: ICAMEG_clean_sbu_1, # of connection points: 4
#     Node 25, Type 0, BuildingBlock: ICAMEG_clean_sbu_1, # of connection points: 4
#     Node 26, Type 0, BuildingBlock: ICAMEG_clean_sbu_1, # of connection points: 4
#     Node 27, Type 0, BuildingBlock: ICAMEG_clean_sbu_1, # of connection points: 4
#     Node 28, Type 0, BuildingBlock: ICAMEG_clean_sbu_1, # of connection points: 4
#     Node 29, Type 0, BuildingBlock: ICAMEG_clean_sbu_1, # of connection points: 4
#     Node 30, Type 0, BuildingBlock: ICAMEG_clean_sbu_1, # of connection points: 4
#     Node 31, Type 0, BuildingBlock: ICAMEG_clean_sbu_1, # of connection points: 4
#     Node 32, Type 0, BuildingBlock: ICAMEG_clean_sbu_1, # of connection points: 4
#     Node 33, Type 0, BuildingBlock: ICAMEG_clean_sbu_1, # of connection points: 4
#     Node 34, Type 0, BuildingBlock: ICAMEG_clean_sbu_1, # of connection points: 4
#     Node 35, Type 0, BuildingBlock: ICAMEG_clean_sbu_1, # of connection points: 4
#     Edge 36, Type (0, 0), BuildingBlock: XIVTED_clean_linker_0, # of connection points: 2
#     Edge 37, Type (0, 0), BuildingBlock: XIVTED_clean_linker_0, # of connection points: 2
#     Edge 38, Type (0, 0), BuildingBlock: XIVTED_clean_linker_0, # of connection points: 2
#     Edge 39, Type (0, 0), BuildingBlock: XIVTED_clean_linker_0, # of connection points: 2
#     Edge 40, Type (0, 0), BuildingBlock: XIVTED_clean_linker_0, # of connection points: 2
#     Edge 41, Type (0, 0), BuildingBlock: XIVTED_clean_linker_0, # of connection points: 2
#     Edge 42, Type (0, 0), BuildingBlock: XIVTED_clean_linker_0, # of connection points: 2
#     Edge 43, Type (0, 0), BuildingBlock: XIVTED_clean_linker_0, # of connection points: 2
#     Edge 44, Type (0, 0), BuildingBlock: XIVTED_clean_linker_0, # of connection points: 2
#     Edge 45, Type (0, 0), BuildingBlock: XIVTED_clean_linker_0, # of connection points: 2
#     Edge 46, Type (0, 0), BuildingBlock: XIVTED_clean_linker_0, # of connection points: 2
#     Edge 47, Type (0, 0), BuildingBlock: XIVTED_clean_linker_0, # of connection points: 2
#     Edge 48, Type (0, 0), BuildingBlock: XIVTED_clean_linker_0, # of connection points: 2
#     Edge 49, Type (0, 0), BuildingBlock: XIVTED_clean_linker_0, # of connection points: 2
#     Edge 50, Type (0, 0), BuildingBlock: XIVTED_clean_linker_0, # of connection points: 2
#     Edge 51, Type (0, 0), BuildingBlock: XIVTED_clean_linker_0, # of connection points: 2
#     Edge 52, Type (0, 0), BuildingBlock: XIVTED_clean_linker_0, # of connection points: 2
#     Edge 53, Type (0, 0), BuildingBlock: XIVTED_clean_linker_0, # of connection points: 2
#     Edge 54, Type (0, 0), BuildingBlock: XIVTED_clean_linker_0, # of connection points: 2
#     Edge 55, Type (0, 0), BuildingBlock: XIVTED_clean_linker_0, # of connection points: 2
#     Edge 56, Type (0, 0), BuildingBlock: XIVTED_clean_linker_0, # of connection points: 2
#     Edge 57, Type (0, 0), BuildingBlock: XIVTED_clean_linker_0, # of connection points: 2
#     Edge 58, Type (0, 0), BuildingBlock: XIVTED_clean_linker_0, # of connection points: 2
#     Edge 59, Type (0, 0), BuildingBlock: XIVTED_clean_linker_0, # of connection points: 2
#     Edge 60, Type (0, 0), BuildingBlock: XIVTED_clean_linker_0, # of connection points: 2
#     Edge 61, Type (0, 0), BuildingBlock: XIVTED_clean_linker_0, # of connection points: 2
#     Edge 62, Type (0, 0), BuildingBlock: XIVTED_clean_linker_0, # of connection points: 2
#     Edge 63, Type (0, 0), BuildingBlock: XIVTED_clean_linker_0, # of connection points: 2
#     Edge 64, Type (0, 0), BuildingBlock: XIVTED_clean_linker_0, # of connection points: 2
#     Edge 65, Type (0, 0), BuildingBlock: XIVTED_clean_linker_0, # of connection points: 2
#     Edge 66, Type (0, 0), BuildingBlock: XIVTED_clean_linker_0, # of connection points: 2
#     Edge 67, Type (0, 0), BuildingBlock: XIVTED_clean_linker_0, # of connection points: 2
#     Edge 68, Type (0, 0), BuildingBlock: XIVTED_clean_linker_0, # of connection points: 2
#     Edge 69, Type (0, 0), BuildingBlock: XIVTED_clean_linker_0, # of connection points: 2
#     Edge 70, Type (0, 0), BuildingBlock: XIVTED_clean_linker_0, # of connection points: 2
#     Edge 71, Type (0, 0), BuildingBlock: XIVTED_clean_linker_0, # of connection points: 2
#     Edge 72, Type (0, 0), BuildingBlock: XIVTED_clean_linker_0, # of connection points: 2
#     Edge 73, Type (0, 0), BuildingBlock: XIVTED_clean_linker_0, # of connection points: 2
#     Edge 74, Type (0, 0), BuildingBlock: XIVTED_clean_linker_0, # of connection points: 2
#     Edge 75, Type (0, 0), BuildingBlock: XIVTED_clean_linker_0, # of connection points: 2
#     Edge 76, Type (0, 0), BuildingBlock: XIVTED_clean_linker_0, # of connection points: 2
#     Edge 77, Type (0, 0), BuildingBlock: XIVTED_clean_linker_0, # of connection points: 2
#     Edge 78, Type (0, 0), BuildingBlock: XIVTED_clean_linker_0, # of connection points: 2
#     Edge 79, Type (0, 0), BuildingBlock: XIVTED_clean_linker_0, # of connection points: 2
#     Edge 80, Type (0, 0), BuildingBlock: XIVTED_clean_linker_0, # of connection points: 2
#     Edge 81, Type (0, 0), BuildingBlock: XIVTED_clean_linker_0, # of connection points: 2
#     Edge 82, Type (0, 0), BuildingBlock: XIVTED_clean_linker_0, # of connection points: 2
#     Edge 83, Type (0, 0), BuildingBlock: XIVTED_clean_linker_0, # of connection points: 2
#     Edge 84, Type (0, 0), BuildingBlock: XIVTED_clean_linker_0, # of connection points: 2
#     Edge 85, Type (0, 0), BuildingBlock: XIVTED_clean_linker_0, # of connection points: 2
#     Edge 86, Type (0, 0), BuildingBlock: XIVTED_clean_linker_0, # of connection points: 2
#     Edge 87, Type (0, 0), BuildingBlock: XIVTED_clean_linker_0, # of connection points: 2
#     Edge 88, Type (0, 0), BuildingBlock: XIVTED_clean_linker_0, # of connection points: 2
#     Edge 89, Type (0, 0), BuildingBlock: XIVTED_clean_linker_0, # of connection points: 2
#     Edge 90, Type (0, 0), BuildingBlock: XIVTED_clean_linker_0, # of connection points: 2
#     Edge 91, Type (0, 0), BuildingBlock: XIVTED_clean_linker_0, # of connection points: 2
#     Edge 92, Type (0, 0), BuildingBlock: XIVTED_clean_linker_0, # of connection points: 2
#     Edge 93, Type (0, 0), BuildingBlock: XIVTED_clean_linker_0, # of connection points: 2
#     Edge 94, Type (0, 0), BuildingBlock: XIVTED_clean_linker_0, # of connection points: 2
#     Edge 95, Type (0, 0), BuildingBlock: XIVTED_clean_linker_0, # of connection points: 2
#     Edge 96, Type (0, 0), BuildingBlock: XIVTED_clean_linker_0, # of connection points: 2
#     Edge 97, Type (0, 0), BuildingBlock: XIVTED_clean_linker_0, # of connection points: 2
#     Edge 98, Type (0, 0), BuildingBlock: XIVTED_clean_linker_0, # of connection points: 2
#     Edge 99, Type (0, 0), BuildingBlock: XIVTED_clean_linker_0, # of connection points: 2
#     Edge 100, Type (0, 0), BuildingBlock: XIVTED_clean_linker_0, # of connection points: 2
#     Edge 101, Type (0, 0), BuildingBlock: XIVTED_clean_linker_0, # of connection points: 2
#     Edge 102, Type (0, 0), BuildingBlock: XIVTED_clean_linker_0, # of connection points: 2
#     Edge 103, Type (0, 0), BuildingBlock: XIVTED_clean_linker_0, # of connection points: 2
#     Edge 104, Type (0, 0), BuildingBlock: XIVTED_clean_linker_0, # of connection points: 2
#     Edge 105, Type (0, 0), BuildingBlock: XIVTED_clean_linker_0, # of connection points: 2
#     Edge 106, Type (0, 0), BuildingBlock: XIVTED_clean_linker_0, # of connection points: 2
#     Edge 107, Type (0, 0), BuildingBlock: XIVTED_clean_linker_0, # of connection points: 2
# Relax obj value: 0.004
# Max RMSD: 0.040
# Mean RMSD: 0.040
data_MOF--net-unl--node1-ICAMEG_clean_sbu_1--edge1-XIVTED_clean_linker_0
_symmetry_space_group_name_H-M    P1
_symmetry_Int_Tables_number       1
_symmetry_cell_setting            triclinic
loop_
_symmetry_equiv_pos_as_xyz
'x, y, z'
_cell_length_a     72.562171
_cell_length_b     72.546634
_cell_length_c     41.13209
_cell_angle_alpha  90.001756
_cell_angle_beta   89.993017
_cell_angle_gamma 120.00284
loop_
_atom_site_label
_atom_site_type_symbol
_atom_site_fract_x
_atom_site_fract_y
_atom_site_fract_z
_atom_type_partial_charge
Co0 Co 0.1926 0.11914 0.10982 0.0
Co1 Co 0.23667 0.16788 0.09388 0.0
O2 O 0.22232 0.13676 0.09683 0.0
C3 C 0.19514 0.09845 0.04888 0.0
O4 O 0.20687 0.11737 0.03594 0.0
C5 C 0.26475 0.15987 0.13628 0.0
O6 O 0.24773 0.1473 0.15334 0.0
O7 O 0.22757 0.17022 0.13873 0.0
O8 O 0.19543 0.14088 0.14207 0.0
H9 H 0.24333 0.2399 0.10603 0.0
H10 H 0.22087 0.10064 0.10972 0.0
O11 O 0.1886 0.09656 0.07805 0.0
H12 H 0.19585 0.09417 0.22285 0.0
H13 H 0.12648 0.05026 0.13816 0.0
H14 H 0.15744 0.12766 0.12357 0.0
H15 H 0.18368 0.10981 0.18066 0.0
H16 H 0.16416 0.07277 0.12269 0.0
O17 O 0.26326 0.16968 0.11164 0.0
H18 H 0.22503 0.20072 0.10924 0.0
H19 H 0.28003 0.20119 0.07285 0.0
H20 H 0.11972 0.10577 0.13931 0.0
H21 H 0.23331 0.08471 0.1511 0.0
H22 H 0.10401 0.06678 0.14671 0.0
H23 H 0.22082 0.08147 0.20815 0.0
O24 O 0.18361 0.13271 0.07616 0.0
H25 H 0.2676 0.14167 0.00847 0.0
H26 H 0.2351 0.18612 0.02963 0.0
H27 H 0.2455 0.18302 0.97369 0.0
H28 H 0.26192 0.1607 0.96284 0.0
H29 H 0.25677 0.14502 0.06398 0.0
H30 H 0.299 0.24039 0.06948 0.0
H31 H 0.28059 0.25999 0.08602 0.0
O32 O 0.21036 0.16669 0.07605 0.0
C33 C 0.20963 0.159 0.15265 0.0
C34 C 0.25149 0.23153 0.09863 0.0
C35 C 0.28275 0.23181 0.07816 0.0
N36 N 0.25138 0.19868 0.09094 0.0
C37 C 0.24119 0.20935 0.10029 0.0
C38 C 0.27194 0.20962 0.08017 0.0
C39 C 0.27241 0.2428 0.08744 0.0
C40 C 0.21521 0.09908 0.13443 0.0
N41 N 0.20151 0.10607 0.14273 0.0
C42 C 0.22238 0.09014 0.15778 0.0
C43 C 0.21539 0.08835 0.1898 0.0
C44 C 0.20139 0.09549 0.19807 0.0
C45 C 0.1946 0.10439 0.17409 0.0
C46 C 0.13315 0.06724 0.13507 0.0
C47 C 0.15074 0.11072 0.12691 0.0
C48 C 0.15447 0.08006 0.12624 0.0
N49 N 0.16303 0.10153 0.12245 0.0
C50 C 0.12937 0.0984 0.13575 0.0
C51 C 0.12055 0.07652 0.13987 0.0
C52 C 0.19154 0.15225 0.06831 0.0
C53 C 0.26052 0.15149 0.0129 0.0
C54 C 0.24215 0.1763 0.02508 0.0
C55 C 0.24806 0.17466 0.99337 0.0
C56 C 0.25729 0.16215 0.9873 0.0
N57 N 0.24539 0.16582 0.05007 0.0
C58 C 0.25444 0.15353 0.04431 0.0
Co59 Co 0.88436 0.07416 0.11245 0.0
Co60 Co 0.83549 0.06899 0.09597 0.0
O61 O 0.86658 0.08601 0.0992 0.0
C62 C 0.90532 0.09766 0.0518 0.0
O63 O 0.8865 0.09047 0.03853 0.0
C64 C 0.84308 0.10497 0.1383 0.0
O65 O 0.85562 0.10055 0.15551 0.0
O66 O 0.83306 0.05752 0.14084 0.0
O67 O 0.86257 0.05506 0.14444 0.0
H68 H 0.76375 0.00318 0.10744 0.0
H69 H 0.9024 0.12088 0.11251 0.0
O70 O 0.90702 0.09294 0.081 0.0
H71 H 0.90852 0.10229 0.22577 0.0
H72 H 0.9534 0.0776 0.1418 0.0
H73 H 0.87621 0.03059 0.12613 0.0
H74 H 0.89339 0.07455 0.18342 0.0
H75 H 0.93071 0.09249 0.12597 0.0
O76 O 0.83336 0.09364 0.11363 0.0
H77 H 0.80289 0.02435 0.11102 0.0
H78 H 0.80199 0.07868 0.07461 0.0
H79 H 0.89829 0.01505 0.14222 0.0
H80 H 0.91781 0.14917 0.15405 0.0
H81 H 0.93719 0.03862 0.15016 0.0
H82 H 0.92087 0.13992 0.21117 0.0
O83 O 0.87115 0.05167 0.07864 0.0
H84 H 0.86156 0.1262 0.01067 0.0
H85 H 0.81762 0.04916 0.03159 0.0
H86 H 0.8208 0.06267 0.97565 0.0
H87 H 0.84286 0.10146 0.96492 0.0
H88 H 0.85813 0.11199 0.06619 0.0
H89 H 0.76282 0.05814 0.07086 0.0
H90 H 0.74345 0.02008 0.08722 0.0
O91 O 0.83704 0.04402 0.0782 0.0
C92 C 0.84438 0.05096 0.15487 0.0
C93 C 0.77202 0.01973 0.10012 0.0
C94 C 0.77149 0.05059 0.07963 0.0
N95 N 0.80472 0.05266 0.09275 0.0
C96 C 0.79418 0.03178 0.102 0.0
C97 C 0.79367 0.06214 0.08186 0.0
C98 C 0.76064 0.02923 0.08881 0.0
C99 C 0.90388 0.11677 0.13725 0.0
N100 N 0.89707 0.0961 0.1455 0.0
C101 C 0.91254 0.13284 0.16069 0.0
C102 C 0.91422 0.12764 0.19275 0.0
C103 C 0.90727 0.10652 0.20096 0.0
C104 C 0.89866 0.09087 0.17689 0.0
C105 C 0.93647 0.06717 0.13847 0.0
C106 C 0.8931 0.04096 0.1297 0.0
C107 C 0.92354 0.0755 0.12944 0.0
N108 N 0.90212 0.06243 0.12535 0.0
C109 C 0.90553 0.03207 0.13874 0.0
C110 C 0.92736 0.0453 0.14316 0.0
C111 C 0.85168 0.03991 0.07057 0.0
C112 C 0.85185 0.10928 0.01505 0.0
C113 C 0.82733 0.06605 0.0271 0.0
C114 C 0.82902 0.07362 0.99538 0.0
C115 C 0.84138 0.09538 0.98939 0.0
N116 N 0.83762 0.07979 0.05216 0.0
C117 C 0.84977 0.10115 0.04646 0.0
Co118 Co 0.92865 0.81092 0.11127 0.0
Co119 Co 0.93303 0.76666 0.09579 0.0
O120 O 0.91635 0.78111 0.09873 0.0
C121 C 0.90487 0.80813 0.05082 0.0
O122 O 0.91172 0.79616 0.03771 0.0
C123 C 0.89715 0.73893 0.13877 0.0
O124 O 0.9018 0.75608 0.15564 0.0
O125 O 0.94473 0.77599 0.14047 0.0
O126 O 0.94778 0.80826 0.14318 0.0
H127 H 0.99832 0.75985 0.1074 0.0
H128 H 0.88187 0.78276 0.11225 0.0
O129 O 0.90986 0.8148 0.07986 0.0
H130 H 0.90153 0.80858 0.22483 0.0
H131 H 0.92647 0.87741 0.1392 0.0
H132 H 0.97252 0.84609 0.12389 0.0
H133 H 0.92892 0.82039 0.18203 0.0
H134 H 0.91101 0.83959 0.12431 0.0
O135 O 0.90829 0.74021 0.11402 0.0
H136 H 0.97757 0.77827 0.11062 0.0
H137 H 0.92271 0.72311 0.07532 0.0
H138 H 0.98863 0.88393 0.13904 0.0
H139 H 0.85391 0.77066 0.15424 0.0
H140 H 0.96555 0.89983 0.14679 0.0
H141 H 0.8637 0.78354 0.21102 0.0
O142 O 0.95087 0.81958 0.07713 0.0
H143 H 0.87541 0.73531 0.01117 0.0
H144 H 0.95245 0.76776 0.03137 0.0
H145 H 0.93864 0.75702 0.97566 0.0
H146 H 0.89985 0.74062 0.96529 0.0
H147 H 0.88993 0.74649 0.06645 0.0
H148 H 0.94282 0.70402 0.07196 0.0
H149 H 0.98093 0.72245 0.08794 0.0
O150 O 0.95811 0.79283 0.07748 0.0
C151 C 0.95164 0.79408 0.154 0.0
C152 C 0.98175 0.75167 0.10024 0.0
C153 C 0.95059 0.72033 0.0804 0.0
N154 N 0.94902 0.75185 0.09288 0.0
C155 C 0.96994 0.76205 0.10192 0.0
C156 C 0.93927 0.73121 0.08241 0.0
C157 C 0.97197 0.73068 0.08936 0.0
C158 C 0.88621 0.78859 0.13684 0.0
N159 N 0.90699 0.80232 0.14465 0.0
C160 C 0.87033 0.78162 0.16054 0.0
C161 C 0.87584 0.78882 0.1924 0.0
C162 C 0.89706 0.80286 0.20017 0.0
C163 C 0.91252 0.80945 0.17585 0.0
C164 C 0.93669 0.87066 0.13595 0.0
C165 C 0.96236 0.85286 0.12738 0.0
C166 C 0.92803 0.84926 0.12745 0.0
N167 N 0.94084 0.8406 0.12345 0.0
C168 C 0.97158 0.87431 0.13589 0.0
C169 C 0.95862 0.88323 0.14021 0.0
C170 C 0.96242 0.81158 0.06936 0.0
C171 C 0.89234 0.74239 0.01539 0.0
C172 C 0.93556 0.76073 0.02704 0.0
C173 C 0.92783 0.75462 0.99545 0.0
C174 C 0.90606 0.7454 0.98966 0.0
N175 N 0.922 0.75769 0.05216 0.0
C176 C 0.90064 0.74866 0.04667 0.0
Co177 Co 0.11825 0.19092 0.38525 0.0
Co178 Co 0.16722 0.23454 0.40185 0.0
O179 O 0.13613 0.22053 0.39861 0.0
C180 C 0.09757 0.19342 0.44622 0.0
O181 O 0.11647 0.20502 0.45929 0.0
C182 C 0.15971 0.26295 0.35945 0.0
O183 O 0.14709 0.24598 0.34231 0.0
O184 O 0.16964 0.22546 0.357 0.0
O185 O 0.13995 0.19364 0.35303 0.0
H186 H 0.23887 0.24029 0.39046 0.0
H187 H 0.10032 0.21968 0.38574 0.0
O188 O 0.09571 0.18702 0.41698 0.0
H189 H 0.09381 0.19519 0.27229 0.0
H190 H 0.04903 0.12545 0.3561 0.0
H191 H 0.12626 0.15547 0.37103 0.0
H192 H 0.10901 0.18244 0.31431 0.0
H193 H 0.07185 0.163 0.37206 0.0
O194 O 0.16943 0.26133 0.38411 0.0
H195 H 0.19974 0.22239 0.38687 0.0
H196 H 0.20079 0.27772 0.42315 0.0
H197 H 0.10405 0.11789 0.35478 0.0
H198 H 0.08484 0.2327 0.34455 0.0
H199 H 0.06514 0.10264 0.34722 0.0
H200 H 0.08157 0.22049 0.28733 0.0
O201 O 0.13149 0.1815 0.41882 0.0
H202 H 0.14126 0.26586 0.48702 0.0
H203 H 0.18504 0.23258 0.46626 0.0
H204 H 0.18188 0.24298 0.52217 0.0
H205 H 0.1599 0.25979 0.53282 0.0
H206 H 0.14466 0.25501 0.43153 0.0
H207 H 0.23995 0.29628 0.42689 0.0
H208 H 0.25924 0.27751 0.41059 0.0
O209 O 0.16559 0.20801 0.41968 0.0
C210 C 0.15822 0.20768 0.34277 0.0
C211 C 0.23064 0.24861 0.39775 0.0
C212 C 0.23125 0.28005 0.41816 0.0
N213 N 0.19798 0.24893 0.40508 0.0
C214 C 0.20848 0.23853 0.39587 0.0
C215 C 0.20908 0.26947 0.41593 0.0
C216 C 0.24206 0.2695 0.40902 0.0
C217 C 0.09875 0.21414 0.36096 0.0
N218 N 0.10549 0.20026 0.35247 0.0
C219 C 0.09006 0.22163 0.33771 0.0
C220 C 0.08826 0.2148 0.3056 0.0
C221 C 0.09514 0.20062 0.29714 0.0
C222 C 0.10379 0.1935 0.32103 0.0
C223 C 0.06597 0.13192 0.35926 0.0
C224 C 0.10936 0.14898 0.36761 0.0
C225 C 0.07897 0.15316 0.36837 0.0
N226 N 0.1004 0.16146 0.37225 0.0
C227 C 0.09686 0.12768 0.35848 0.0
C228 C 0.07502 0.11913 0.35427 0.0
C229 C 0.15092 0.18922 0.4271 0.0
C230 C 0.15093 0.2586 0.48267 0.0
C231 C 0.17537 0.2398 0.47072 0.0
C232 C 0.17369 0.24571 0.50241 0.0
C233 C 0.16137 0.25516 0.50837 0.0
N234 N 0.16511 0.24326 0.44563 0.0
C235 C 0.153 0.25251 0.45128 0.0
Co236 Co 0.81063 0.92838 0.38794 0.0
Co237 Co 0.76674 0.93327 0.40457 0.0
O238 O 0.78104 0.91647 0.40141 0.0
C239 C 0.80832 0.90557 0.44919 0.0
O240 O 0.79668 0.91289 0.46203 0.0
C241 C 0.7388 0.89734 0.36201 0.0
O242 O 0.75592 0.90198 0.34506 0.0
O243 O 0.77577 0.94483 0.35976 0.0
O244 O 0.80763 0.94704 0.35546 0.0
H245 H 0.76019 0.99873 0.39315 0.0
H246 H 0.78222 0.88162 0.38905 0.0
O247 O 0.81477 0.91002 0.41996 0.0
H248 H 0.80631 0.89912 0.27536 0.0
H249 H 0.87636 0.92508 0.3589 0.0
H250 H 0.84579 0.97188 0.37311 0.0
H251 H 0.81896 0.92729 0.31702 0.0
H252 H 0.83883 0.91017 0.37508 0.0
O253 O 0.74014 0.90852 0.38673 0.0
H254 H 0.77844 0.97782 0.38958 0.0
H255 H 0.72341 0.92319 0.42577 0.0
H256 H 0.88335 0.98743 0.35663 0.0
H257 H 0.76929 0.8529 0.34822 0.0
H258 H 0.89886 0.96397 0.34942 0.0
H259 H 0.78129 0.8616 0.29088 0.0
O260 O 0.81996 0.95123 0.42117 0.0
H261 H 0.73585 0.87593 0.48971 0.0
H262 H 0.76845 0.95295 0.46898 0.0
H263 H 0.75814 0.93935 0.52489 0.0
H264 H 0.74167 0.90058 0.53552 0.0
H265 H 0.74659 0.89023 0.43423 0.0
H266 H 0.7045 0.94346 0.42951 0.0
H267 H 0.72294 0.98154 0.41325 0.0
O268 O 0.79311 0.95832 0.4224 0.0
C269 C 0.7935 0.95119 0.34533 0.0
C270 C 0.75201 0.98217 0.40043 0.0
C271 C 0.72074 0.95115 0.42079 0.0
N272 N 0.75207 0.94938 0.40776 0.0
C273 C 0.76228 0.97027 0.39856 0.0
C274 C 0.73152 0.93974 0.41857 0.0
C275 C 0.7311 0.97251 0.41167 0.0
C276 C 0.78767 0.88549 0.36421 0.0
N277 N 0.80139 0.90609 0.35546 0.0
C278 C 0.78023 0.86918 0.34118 0.0
C279 C 0.78695 0.87408 0.309 0.0
C280 C 0.80097 0.89513 0.30027 0.0
C281 C 0.80804 0.91103 0.32395 0.0
C282 C 0.86977 0.93546 0.3619 0.0
C283 C 0.8524 0.96155 0.36985 0.0
C284 C 0.84854 0.92712 0.37113 0.0
N285 N 0.84009 0.94013 0.37481 0.0
C286 C 0.87369 0.97046 0.3606 0.0
C287 C 0.88239 0.95728 0.35658 0.0
C288 C 0.81204 0.96277 0.42952 0.0
C289 C 0.74295 0.89285 0.48537 0.0
C290 C 0.76138 0.93607 0.47343 0.0
C291 C 0.75552 0.92845 0.50512 0.0
C292 C 0.74626 0.90669 0.51107 0.0
N293 N 0.75806 0.92239 0.44834 0.0
C294 C 0.74898 0.90103 0.45398 0.0
Co295 Co 0.07383 0.88324 0.38716 0.0
Co296 Co 0.06922 0.83456 0.40391 0.0
O297 O 0.08585 0.86566 0.40067 0.0
C298 C 0.09644 0.9037 0.4485 0.0
O299 O 0.08922 0.88473 0.46125 0.0
C300 C 0.1051 0.84277 0.36107 0.0
O301 O 0.10036 0.85522 0.34426 0.0
O302 O 0.05751 0.8319 0.3592 0.0
O303 O 0.05535 0.86156 0.35458 0.0
H304 H 0.00401 0.76233 0.39298 0.0
H305 H 0.1206 0.9018 0.38855 0.0
O306 O 0.092 0.90572 0.41927 0.0
H307 H 0.10334 0.90847 0.27477 0.0
H308 H 0.07676 0.9521 0.35812 0.0
H309 H 0.03029 0.87465 0.37202 0.0
H310 H 0.07506 0.89276 0.31625 0.0
H311 H 0.09182 0.92963 0.37444 0.0
O312 O 0.094 0.83286 0.38583 0.0
H313 H 0.02471 0.80149 0.38927 0.0
H314 H 0.07963 0.80152 0.42498 0.0
H315 H 0.0146 0.8965 0.3554 0.0
H316 H 0.14942 0.91778 0.34792 0.0
H317 H 0.0379 0.93553 0.34835 0.0
H318 H 0.14085 0.92113 0.29053 0.0
O319 O 0.05091 0.86957 0.42026 0.0
H320 H 0.12684 0.86143 0.4886 0.0
H321 H 0.04981 0.81661 0.46847 0.0
H322 H 0.06362 0.82008 0.52427 0.0
H323 H 0.10239 0.84259 0.5346 0.0
H324 H 0.11234 0.8577 0.43323 0.0
H325 H 0.05958 0.76233 0.42884 0.0
H326 H 0.02147 0.74248 0.4129 0.0
O327 O 0.04414 0.83574 0.42196 0.0
C328 C 0.05119 0.84324 0.34461 0.0
C329 C 0.02059 0.7708 0.40012 0.0
C330 C 0.05179 0.7708 0.42021 0.0
N331 N 0.05329 0.80378 0.4072 0.0
C332 C 0.03237 0.79298 0.39818 0.0
C333 C 0.06307 0.79298 0.41791 0.0
C334 C 0.0304 0.75967 0.41126 0.0
C335 C 0.11678 0.9034 0.3637 0.0
N336 N 0.09619 0.89642 0.35481 0.0
C337 C 0.13315 0.91238 0.34077 0.0
C338 C 0.12832 0.91422 0.30856 0.0
C339 C 0.10728 0.9071 0.2997 0.0
C340 C 0.09132 0.89817 0.32327 0.0
C341 C 0.06645 0.93511 0.36106 0.0
C342 C 0.04055 0.89161 0.36883 0.0
C343 C 0.07488 0.92231 0.37037 0.0
N344 N 0.06196 0.90083 0.37396 0.0
C345 C 0.03156 0.9039 0.3595 0.0
C346 C 0.04464 0.9258 0.35557 0.0
C347 C 0.03955 0.85014 0.42889 0.0
C348 C 0.10992 0.85153 0.48439 0.0
C349 C 0.0667 0.82651 0.47278 0.0
C350 C 0.07443 0.82836 0.50442 0.0
C351 C 0.09619 0.84098 0.5102 0.0
N352 N 0.08027 0.83688 0.44759 0.0
C353 C 0.10162 0.84927 0.45306 0.0
Co354 Co 0.81121 0.88397 0.88803 0.0
Co355 Co 0.76707 0.83512 0.90318 0.0
O356 O 0.78143 0.86626 0.90063 0.0
C357 C 0.80834 0.9043 0.94915 0.0
O358 O 0.79652 0.88532 0.96183 0.0
C359 C 0.73926 0.84338 0.86056 0.0
O360 O 0.75641 0.85604 0.8438 0.0
O361 O 0.77643 0.83302 0.8584 0.0
O362 O 0.80854 0.86244 0.85552 0.0
H363 H 0.76051 0.76318 0.89047 0.0
H364 H 0.7829 0.90242 0.88816 0.0
O365 O 0.81504 0.90634 0.92006 0.0
H366 H 0.80853 0.90964 0.77527 0.0
H367 H 0.87747 0.95301 0.86085 0.0
H368 H 0.84644 0.87553 0.87437 0.0
H369 H 0.82051 0.89377 0.81737 0.0
H370 H 0.83971 0.93042 0.87586 0.0
O371 O 0.74058 0.83341 0.88514 0.0
H372 H 0.77881 0.80237 0.88771 0.0
H373 H 0.72358 0.8017 0.92351 0.0
H374 H 0.88422 0.89751 0.85908 0.0
H375 H 0.77064 0.91857 0.84688 0.0
H376 H 0.89997 0.93655 0.85222 0.0
H377 H 0.78342 0.92219 0.78995 0.0
O378 O 0.82003 0.8702 0.9216 0.0
H379 H 0.73563 0.86087 0.98849 0.0
H380 H 0.76825 0.81653 0.96731 0.0
H381 H 0.75753 0.81933 0.02316 0.0
H382 H 0.74105 0.84159 0.03402 0.0
H383 H 0.74678 0.85781 0.93305 0.0
H384 H 0.7046 0.76248 0.92641 0.0
H385 H 0.72312 0.74297 0.90994 0.0
O386 O 0.79327 0.83622 0.92128 0.0
C387 C 0.79442 0.84437 0.84469 0.0
C388 C 0.75229 0.7715 0.89783 0.0
C389 C 0.72091 0.77111 0.91796 0.0
N390 N 0.75234 0.80431 0.90573 0.0
C391 C 0.7626 0.7937 0.89642 0.0
C392 C 0.73172 0.79331 0.91621 0.0
C393 C 0.73131 0.76017 0.90872 0.0
C394 C 0.78869 0.90414 0.8635 0.0
N395 N 0.80246 0.89723 0.85521 0.0
C396 C 0.78162 0.91321 0.84021 0.0
C397 C 0.78878 0.91521 0.80825 0.0
C398 C 0.80285 0.90815 0.8 0.0
C399 C 0.80953 0.89912 0.82392 0.0
C400 C 0.87078 0.93602 0.86371 0.0
C401 C 0.85315 0.89249 0.87127 0.0
C402 C 0.84942 0.92315 0.87228 0.0
N403 N 0.84084 0.90165 0.87578 0.0
C404 C 0.87456 0.90486 0.86268 0.0
C405 C 0.8834 0.92677 0.85886 0.0
C406 C 0.81205 0.85062 0.92926 0.0
C407 C 0.74273 0.85107 0.98404 0.0
C408 C 0.76117 0.82633 0.97185 0.0
C409 C 0.75508 0.8278 0.00352 0.0
C410 C 0.74581 0.84028 0.00959 0.0
N411 N 0.75808 0.83694 0.94692 0.0
C412 C 0.749 0.8492 0.95268 0.0
Co413 Co 0.11819 0.92829 0.88634 0.0
Co414 Co 0.16705 0.9333 0.90219 0.0
O415 O 0.13594 0.91633 0.89927 0.0
C416 C 0.09733 0.90469 0.94699 0.0
O417 O 0.11617 0.91177 0.96015 0.0
C418 C 0.1592 0.89721 0.85985 0.0
O419 O 0.14662 0.90164 0.84277 0.0
O420 O 0.1693 0.9447 0.85732 0.0
O421 O 0.1399 0.9474 0.85428 0.0
H422 H 0.23881 0.99897 0.89004 0.0
H423 H 0.10002 0.88155 0.88603 0.0
O424 O 0.09559 0.9095 0.91787 0.0
H425 H 0.09361 0.90039 0.77305 0.0
H426 H 0.04916 0.92514 0.8578 0.0
H427 H 0.12643 0.97193 0.87303 0.0
H428 H 0.10895 0.92805 0.81549 0.0
H429 H 0.07182 0.91012 0.87319 0.0
O430 O 0.16903 0.90858 0.88445 0.0
H431 H 0.19966 0.97788 0.88686 0.0
H432 H 0.20057 0.92353 0.92314 0.0
H433 H 0.10439 0.9876 0.85737 0.0
H434 H 0.0844 0.85333 0.84441 0.0
H435 H 0.06546 0.96414 0.84965 0.0
H436 H 0.08118 0.86271 0.78742 0.0
O437 O 0.13155 0.95071 0.92023 0.0
H438 H 0.14124 0.87619 0.98764 0.0
H439 H 0.18524 0.95319 0.96641 0.0
H440 H 0.18228 0.93974 0.02235 0.0
H441 H 0.16019 0.90098 0.03324 0.0
H442 H 0.14445 0.89034 0.93213 0.0
H443 H 0.23975 0.94399 0.92648 0.0
H444 H 0.25913 0.98202 0.90997 0.0
O445 O 0.16566 0.95834 0.92006 0.0
C446 C 0.158 0.95138 0.84355 0.0
C447 C 0.23055 0.98244 0.89742 0.0
C448 C 0.23108 0.95157 0.91782 0.0
N449 N 0.19783 0.94956 0.90509 0.0
C450 C 0.20838 0.97043 0.89577 0.0
C451 C 0.20889 0.94005 0.91583 0.0
C452 C 0.24194 0.97291 0.90857 0.0
C453 C 0.09847 0.88571 0.86135 0.0
N454 N 0.10532 0.90641 0.85323 0.0
C455 C 0.0897 0.86968 0.83786 0.0
C456 C 0.08793 0.87496 0.80588 0.0
C457 C 0.09492 0.8961 0.79779 0.0
C458 C 0.10365 0.91171 0.82192 0.0
C459 C 0.06611 0.93552 0.86103 0.0
C460 C 0.10952 0.96161 0.86955 0.0
C461 C 0.07902 0.92711 0.86981 0.0
N462 N 0.10045 0.94012 0.87379 0.0
C463 C 0.09711 0.97058 0.86075 0.0
C464 C 0.07527 0.95741 0.85646 0.0
C465 C 0.15108 0.96247 0.92802 0.0
C466 C 0.15096 0.89311 0.98319 0.0
C467 C 0.17552 0.93631 0.97097 0.0
C468 C 0.17395 0.92878 0.00269 0.0
C469 C 0.16157 0.90703 0.00877 0.0
N470 N 0.16508 0.92255 0.946 0.0
C471 C 0.15292 0.9012 0.95178 0.0
Co472 Co 0.07395 0.19126 0.8874 0.0
Co473 Co 0.0696 0.23554 0.90284 0.0
O474 O 0.08629 0.2211 0.89989 0.0
C475 C 0.09792 0.19414 0.9477 0.0
O476 O 0.09113 0.20615 0.96086 0.0
C477 C 0.1055 0.26332 0.8599 0.0
O478 O 0.10086 0.24619 0.84298 0.0
O479 O 0.05792 0.22622 0.85816 0.0
O480 O 0.05475 0.1939 0.85558 0.0
H481 H 0.00432 0.24236 0.89121 0.0
H482 H 0.12073 0.21942 0.88618 0.0
O483 O 0.09281 0.18741 0.91871 0.0
H484 H 0.10081 0.19345 0.77371 0.0
H485 H 0.07604 0.12473 0.85946 0.0
H486 H 0.03005 0.1561 0.875 0.0
H487 H 0.07352 0.1817 0.81665 0.0
H488 H 0.09155 0.16256 0.87427 0.0
O489 O 0.09435 0.262 0.88465 0.0
H490 H 0.02507 0.22393 0.88798 0.0
H491 H 0.07991 0.27908 0.92336 0.0
H492 H 0.01389 0.11824 0.85994 0.0
H493 H 0.1486 0.23145 0.84404 0.0
H494 H 0.03694 0.10231 0.85207 0.0
H495 H 0.13868 0.2185 0.78732 0.0
O496 O 0.05182 0.18266 0.92166 0.0
H497 H 0.1272 0.26687 0.9875 0.0
H498 H 0.05017 0.23441 0.96726 0.0
H499 H 0.06397 0.24513 0.02298 0.0
H500 H 0.10276 0.26154 0.03337 0.0
H501 H 0.1127 0.25571 0.93221 0.0
H502 H 0.0598 0.29817 0.92673 0.0
H503 H 0.0217 0.27975 0.91071 0.0
O504 O 0.04452 0.20936 0.92113 0.0
C505 C 0.05094 0.2081 0.8447 0.0
C506 C 0.02089 0.25053 0.89838 0.0
C507 C 0.05204 0.28186 0.91827 0.0
N508 N 0.05362 0.25035 0.90577 0.0
C509 C 0.0327 0.24015 0.8967 0.0
C510 C 0.06335 0.27098 0.91626 0.0
C511 C 0.03066 0.27151 0.90929 0.0
C512 C 0.11633 0.21356 0.86161 0.0
N513 N 0.09554 0.19983 0.85391 0.0
C514 C 0.13216 0.22049 0.83783 0.0
C515 C 0.12658 0.21325 0.806 0.0
C516 C 0.10534 0.19921 0.79834 0.0
C517 C 0.08994 0.19265 0.82274 0.0
C518 C 0.06583 0.13149 0.86276 0.0
C519 C 0.0402 0.14931 0.87146 0.0
C520 C 0.07452 0.15289 0.87122 0.0
N521 N 0.06173 0.16157 0.87528 0.0
C522 C 0.03095 0.12785 0.863 0.0
C523 C 0.04389 0.11892 0.85861 0.0
C524 C 0.04024 0.19064 0.92936 0.0
C525 C 0.11028 0.2598 0.98326 0.0
C526 C 0.06705 0.24145 0.9716 0.0
C527 C 0.07478 0.24755 0.00319 0.0
C528 C 0.09655 0.25677 0.009 0.0
N529 N 0.08063 0.2445 0.94648 0.0
C530 C 0.10199 0.25353 0.95199 0.0
Co531 Co 0.8838 0.81101 0.61194 0.0
Co532 Co 0.83498 0.76738 0.59474 0.0
O533 O 0.86606 0.78146 0.59824 0.0
C534 C 0.90473 0.8088 0.55108 0.0
O535 O 0.88588 0.79721 0.53786 0.0
C536 C 0.84245 0.73882 0.63688 0.0
O537 O 0.85496 0.75571 0.65424 0.0
O538 O 0.83236 0.77618 0.63966 0.0
O539 O 0.86195 0.80806 0.64404 0.0
H540 H 0.76317 0.76129 0.6059 0.0
H541 H 0.9019 0.78239 0.61127 0.0
O542 O 0.90648 0.81512 0.58035 0.0
H543 H 0.90788 0.80631 0.72497 0.0
H544 H 0.95281 0.87646 0.64197 0.0
H545 H 0.87561 0.84631 0.62644 0.0
H546 H 0.89273 0.81914 0.68301 0.0
H547 H 0.93014 0.83898 0.62558 0.0
O548 O 0.83281 0.74054 0.61219 0.0
H549 H 0.8023 0.77929 0.60977 0.0
H550 H 0.80159 0.72427 0.57285 0.0
H551 H 0.89767 0.88383 0.64311 0.0
H552 H 0.91734 0.76929 0.65241 0.0
H553 H 0.93657 0.89914 0.65098 0.0
H554 H 0.92034 0.78121 0.70975 0.0
O555 O 0.87064 0.82053 0.57841 0.0
H556 H 0.86139 0.73664 0.50932 0.0
H557 H 0.81737 0.76962 0.53029 0.0
H558 H 0.82077 0.75956 0.47428 0.0
H559 H 0.84288 0.74289 0.46352 0.0
H560 H 0.85774 0.74716 0.5649 0.0
H561 H 0.76244 0.70561 0.56881 0.0
H562 H 0.74298 0.72418 0.58528 0.0
O563 O 0.83657 0.79396 0.57721 0.0
C564 C 0.84366 0.79391 0.6541 0.0
C565 C 0.77148 0.75306 0.59852 0.0
C566 C 0.77106 0.72179 0.57775 0.0
N567 N 0.80422 0.75291 0.59125 0.0
C568 C 0.79363 0.76319 0.60056 0.0
C569 C 0.79323 0.73243 0.58015 0.0
C570 C 0.76015 0.73223 0.58699 0.0
C571 C 0.90335 0.78781 0.63612 0.0
N572 N 0.89649 0.80157 0.6447 0.0
C573 C 0.91202 0.78027 0.65933 0.0
C574 C 0.91367 0.78693 0.69151 0.0
C575 C 0.90666 0.801 0.70007 0.0
C576 C 0.89804 0.80817 0.67621 0.0
C577 C 0.93588 0.86997 0.63868 0.0
C578 C 0.89251 0.85282 0.62999 0.0
C579 C 0.92296 0.84876 0.62934 0.0
N580 N 0.90154 0.84042 0.62528 0.0
C581 C 0.90492 0.87409 0.63935 0.0
C582 C 0.92675 0.88268 0.64374 0.0
C583 C 0.85122 0.81281 0.57003 0.0
C584 C 0.85167 0.74383 0.51371 0.0
C585 C 0.8271 0.76247 0.52579 0.0
C586 C 0.82891 0.75674 0.49403 0.0
C587 C 0.8413 0.74737 0.48802 0.0
N588 N 0.83729 0.75891 0.55087 0.0
C589 C 0.84946 0.74973 0.54516 0.0
Co590 Co 0.19136 0.07403 0.61052 0.0
Co591 Co 0.2349 0.06866 0.59323 0.0
O592 O 0.22086 0.08568 0.59678 0.0
C593 C 0.19364 0.09679 0.54929 0.0
O594 O 0.20503 0.0892 0.53637 0.0
C595 C 0.26308 0.10434 0.63597 0.0
O596 O 0.246 0.09975 0.65299 0.0
O597 O 0.22589 0.05699 0.63798 0.0
O598 O 0.19428 0.05524 0.64288 0.0
H599 H 0.24082 0.00279 0.60373 0.0
H600 H 0.2201 0.12073 0.60931 0.0
O601 O 0.18732 0.09251 0.5786 0.0
H602 H 0.1964 0.10341 0.7232 0.0
H603 H 0.12612 0.07805 0.64025 0.0
H604 H 0.15598 0.03067 0.62553 0.0
H605 H 0.18336 0.07521 0.68154 0.0
H606 H 0.16356 0.09263 0.62375 0.0
O607 O 0.26165 0.09321 0.61112 0.0
H608 H 0.22287 0.02396 0.60777 0.0
H609 H 0.27808 0.07843 0.57168 0.0
H610 H 0.11851 0.01544 0.64232 0.0
H611 H 0.23342 0.14947 0.65015 0.0
H612 H 0.10336 0.0392 0.64978 0.0
H613 H 0.22162 0.14086 0.70758 0.0
O614 O 0.18171 0.05115 0.57729 0.0
H615 H 0.26602 0.12626 0.50852 0.0
H616 H 0.23289 0.04912 0.52858 0.0
H617 H 0.24316 0.06287 0.47274 0.0
H618 H 0.25989 0.10171 0.46244 0.0
H619 H 0.25531 0.11181 0.56393 0.0
H620 H 0.2967 0.0579 0.56748 0.0
H621 H 0.27801 0.01977 0.58345 0.0
O622 O 0.20838 0.0438 0.57536 0.0
C623 C 0.2083 0.05084 0.65268 0.0
C624 C 0.24911 0.01937 0.59658 0.0
C625 C 0.28048 0.05031 0.57627 0.0
N626 N 0.24934 0.05234 0.58966 0.0
C627 C 0.23899 0.03142 0.5987 0.0
C628 C 0.26987 0.06186 0.57875 0.0
C629 C 0.26998 0.02892 0.58523 0.0
C630 C 0.21473 0.1169 0.6342 0.0
N631 N 0.20091 0.09634 0.643 0.0
C632 C 0.22239 0.13323 0.65723 0.0
C633 C 0.21579 0.12838 0.68946 0.0
C634 C 0.20166 0.10736 0.69825 0.0
C635 C 0.19436 0.09145 0.67456 0.0
C636 C 0.13256 0.06754 0.63714 0.0
C637 C 0.14953 0.04113 0.6289 0.0
C638 C 0.15373 0.0757 0.62773 0.0
N639 N 0.16199 0.06253 0.62391 0.0
C640 C 0.12829 0.0324 0.63833 0.0
C641 C 0.11979 0.04574 0.64249 0.0
C642 C 0.18946 0.03953 0.56857 0.0
C643 C 0.2588 0.10931 0.51271 0.0
C644 C 0.24008 0.06603 0.52428 0.0
C645 C 0.24592 0.07373 0.49262 0.0
C646 C 0.25533 0.09552 0.48686 0.0
N647 N 0.24357 0.07966 0.54951 0.0
C648 C 0.25279 0.10104 0.54406 0.0
Co649 Co 0.92892 0.11892 0.61146 0.0
Co650 Co 0.93347 0.16754 0.59456 0.0
O651 O 0.91682 0.13643 0.59788 0.0
C652 C 0.90599 0.09802 0.55043 0.0
O653 O 0.91296 0.11687 0.53737 0.0
C654 C 0.89745 0.1595 0.63708 0.0
O655 O 0.90206 0.14705 0.65416 0.0
O656 O 0.94505 0.17023 0.63938 0.0
O657 O 0.94751 0.14074 0.6438 0.0
H658 H 0.99867 0.23977 0.60564 0.0
H659 H 0.88214 0.10032 0.61045 0.0
O660 O 0.91065 0.09627 0.57964 0.0
H661 H 0.89984 0.09407 0.72416 0.0
H662 H 0.9262 0.05023 0.64101 0.0
H663 H 0.97254 0.12763 0.62625 0.0
H664 H 0.92796 0.10967 0.68244 0.0
H665 H 0.91103 0.07259 0.62465 0.0
O666 O 0.90866 0.1693 0.61234 0.0
H667 H 0.97795 0.20061 0.60942 0.0
H668 H 0.92315 0.20059 0.57313 0.0
H669 H 0.98835 0.10588 0.64291 0.0
H670 H 0.85347 0.08443 0.65133 0.0
H671 H 0.96512 0.06689 0.65039 0.0
H672 H 0.86226 0.08129 0.70868 0.0
O673 O 0.9517 0.13247 0.57811 0.0
H674 H 0.87609 0.14067 0.5095 0.0
H675 H 0.95307 0.18543 0.53007 0.0
H676 H 0.93942 0.18195 0.47417 0.0
H677 H 0.90066 0.15947 0.46361 0.0
H678 H 0.89044 0.1444 0.56498 0.0
H679 H 0.94323 0.23977 0.56919 0.0
H680 H 0.9813 0.25961 0.5854 0.0
O681 O 0.9586 0.16635 0.57676 0.0
C682 C 0.95153 0.15899 0.65387 0.0
C683 C 0.98212 0.2313 0.59839 0.0
C684 C 0.95099 0.2313 0.57797 0.0
N685 N 0.94943 0.19832 0.59121 0.0
C686 C 0.97032 0.20912 0.60037 0.0
C687 C 0.93969 0.20912 0.58031 0.0
C688 C 0.97235 0.24242 0.58706 0.0
C689 C 0.88606 0.09882 0.63529 0.0
N690 N 0.90669 0.10585 0.64402 0.0
C691 C 0.86977 0.08988 0.65836 0.0
C692 C 0.87472 0.08816 0.69054 0.0
C693 C 0.8958 0.09534 0.69925 0.0
C694 C 0.91167 0.10423 0.67554 0.0
C695 C 0.93649 0.06721 0.63788 0.0
C696 C 0.96231 0.11068 0.62963 0.0
C697 C 0.928 0.07995 0.62855 0.0
N698 N 0.94087 0.10142 0.62472 0.0
C699 C 0.97136 0.09845 0.63898 0.0
C700 C 0.95832 0.07657 0.64315 0.0
C701 C 0.96312 0.15192 0.56965 0.0
C702 C 0.893 0.15056 0.51381 0.0
C703 C 0.93619 0.17554 0.52566 0.0
C704 C 0.92855 0.17368 0.49396 0.0
C705 C 0.9068 0.16108 0.48806 0.0
N706 N 0.92255 0.16518 0.55078 0.0
C707 C 0.90121 0.15281 0.54519 0.0
Co708 Co 0.85844 0.45155 0.44416 0.0
Co709 Co 0.90178 0.50076 0.42785 0.0
O710 O 0.888 0.46968 0.4308 0.0
C711 C 0.86114 0.43132 0.38286 0.0
O712 O 0.87249 0.45032 0.37 0.0
C713 C 0.93038 0.49338 0.46996 0.0
O714 O 0.91345 0.48063 0.48706 0.0
O715 O 0.89267 0.50291 0.47279 0.0
O716 O 0.86098 0.47304 0.47665 0.0
H717 H 0.90693 0.57212 0.44009 0.0
H718 H 0.88749 0.43396 0.44318 0.0
O719 O 0.85475 0.42922 0.41213 0.0
H720 H 0.86306 0.42684 0.55676 0.0
H721 H 0.79338 0.3819 0.47297 0.0
H722 H 0.82275 0.45911 0.45881 0.0
H723 H 0.85008 0.44201 0.51505 0.0
H724 H 0.83086 0.40504 0.45694 0.0
O725 O 0.92867 0.50313 0.4454 0.0
H726 H 0.88931 0.53298 0.44336 0.0
H727 H 0.94483 0.53465 0.40661 0.0
H728 H 0.78524 0.43657 0.47513 0.0
H729 H 0.90075 0.41852 0.48406 0.0
H730 H 0.77032 0.39767 0.48231 0.0
H731 H 0.88857 0.41495 0.54134 0.0
O732 O 0.84882 0.46478 0.41087 0.0
H733 H 0.93339 0.4755 0.34209 0.0
H734 H 0.8996 0.51873 0.36367 0.0
H735 H 0.91 0.51586 0.30763 0.0
H736 H 0.92707 0.49415 0.29657 0.0
H737 H 0.92254 0.47861 0.39771 0.0
H738 H 0.96312 0.57383 0.40317 0.0
H739 H 0.9441 0.59281 0.41987 0.0
O740 O 0.87515 0.49897 0.41023 0.0
C741 C 0.87492 0.49133 0.48703 0.0
C742 C 0.91536 0.56403 0.43262 0.0
C743 C 0.9469 0.56499 0.41195 0.0
N744 N 0.91596 0.53154 0.42489 0.0
C745 C 0.90544 0.54186 0.43432 0.0
C746 C 0.93648 0.54281 0.414 0.0
C747 C 0.93622 0.57563 0.42131 0.0
C748 C 0.88196 0.43226 0.46799 0.0
N749 N 0.86797 0.43881 0.47669 0.0
C750 C 0.88959 0.42359 0.49106 0.0
C751 C 0.88278 0.42162 0.52321 0.0
C752 C 0.86848 0.42831 0.53188 0.0
C753 C 0.86123 0.43694 0.50817 0.0
C754 C 0.7997 0.39883 0.46998 0.0
C755 C 0.81641 0.44221 0.46205 0.0
C756 C 0.8209 0.41201 0.46084 0.0
N757 N 0.82902 0.43343 0.45716 0.0
C758 C 0.79514 0.42952 0.47122 0.0
C759 C 0.78677 0.40769 0.47522 0.0
C760 C 0.85639 0.48424 0.40282 0.0
C761 C 0.92602 0.48505 0.34662 0.0
C762 C 0.90693 0.50917 0.35904 0.0
C763 C 0.91284 0.50766 0.32727 0.0
C764 C 0.92244 0.49549 0.32108 0.0
N765 N 0.91053 0.4989 0.38397 0.0
C766 C 0.91993 0.48695 0.37809 0.0
Co767 Co 0.55047 0.40705 0.44485 0.0
Co768 Co 0.50145 0.40181 0.42906 0.0
O769 O 0.53256 0.41878 0.43172 0.0
C770 C 0.57063 0.4299 0.38343 0.0
O771 O 0.55163 0.4226 0.37078 0.0
C772 C 0.50944 0.4379 0.47139 0.0
O773 O 0.52215 0.43352 0.48823 0.0
O774 O 0.49932 0.39046 0.47393 0.0
O775 O 0.52904 0.38836 0.47759 0.0
H776 H 0.42975 0.3361 0.44166 0.0
H777 H 0.56852 0.45376 0.44366 0.0
O778 O 0.57274 0.42543 0.41259 0.0
H779 H 0.57601 0.43657 0.55713 0.0
H780 H 0.61983 0.41078 0.47286 0.0
H781 H 0.54244 0.36365 0.45963 0.0
H782 H 0.56037 0.40831 0.51561 0.0
H783 H 0.59697 0.42549 0.45707 0.0
O784 O 0.4995 0.42652 0.44687 0.0
H785 H 0.46891 0.35724 0.4446 0.0
H786 H 0.46785 0.41152 0.40836 0.0
H787 H 0.56468 0.34829 0.47573 0.0
H788 H 0.58443 0.48256 0.48435 0.0
H789 H 0.60368 0.37192 0.48244 0.0
H790 H 0.58819 0.47402 0.54158 0.0
O791 O 0.53685 0.38413 0.41171 0.0
H792 H 0.52696 0.45879 0.34345 0.0
H793 H 0.48311 0.38182 0.36496 0.0
H794 H 0.48592 0.39518 0.30899 0.0
H795 H 0.50794 0.43393 0.29797 0.0
H796 H 0.5239 0.44473 0.39899 0.0
H797 H 0.42865 0.39102 0.40526 0.0
H798 H 0.40935 0.353 0.42186 0.0
O799 O 0.50283 0.37678 0.41122 0.0
C800 C 0.51083 0.38418 0.48809 0.0
C801 C 0.43798 0.35263 0.43424 0.0
C802 C 0.43736 0.38346 0.41385 0.0
N803 N 0.47066 0.38552 0.42637 0.0
C804 C 0.46016 0.36466 0.43575 0.0
C805 C 0.45955 0.395 0.41572 0.0
C806 C 0.42655 0.36213 0.42316 0.0
C807 C 0.5703 0.44996 0.46845 0.0
N808 N 0.56359 0.42939 0.47722 0.0
C809 C 0.57924 0.46632 0.49141 0.0
C810 C 0.58131 0.4615 0.52352 0.0
C811 C 0.57446 0.44049 0.53227 0.0
C812 C 0.56556 0.42455 0.50867 0.0
C813 C 0.60285 0.40032 0.47007 0.0
C814 C 0.55938 0.37405 0.46267 0.0
C815 C 0.58983 0.40855 0.46106 0.0
N816 N 0.56836 0.39545 0.45765 0.0
C817 C 0.5719 0.36525 0.47171 0.0
C818 C 0.59378 0.37852 0.47545 0.0
C819 C 0.51735 0.37246 0.40373 0.0
C820 C 0.51727 0.44188 0.34796 0.0
C821 C 0.4928 0.39869 0.36034 0.0
C822 C 0.49428 0.40617 0.32861 0.0
C823 C 0.50662 0.42792 0.32245 0.0
N824 N 0.50327 0.41249 0.38525 0.0
C825 C 0.5154 0.43384 0.37939 0.0
Co826 Co 0.59636 0.14403 0.44447 0.0
Co827 Co 0.60163 0.10024 0.42952 0.0
O828 O 0.58452 0.11424 0.43201 0.0
C829 C 0.57274 0.14079 0.38368 0.0
O830 O 0.58004 0.12914 0.37083 0.0
C831 C 0.56534 0.07175 0.47155 0.0
O832 O 0.56945 0.08868 0.48863 0.0
O833 O 0.61281 0.10959 0.47445 0.0
O834 O 0.61562 0.14177 0.47669 0.0
H835 H 0.66754 0.09472 0.44283 0.0
H836 H 0.54966 0.11533 0.44506 0.0
O837 O 0.57745 0.1475 0.41275 0.0
H838 H 0.56861 0.1413 0.5577 0.0
H839 H 0.59282 0.20986 0.47187 0.0
H840 H 0.63993 0.17968 0.45739 0.0
H841 H 0.59621 0.15342 0.51519 0.0
H842 H 0.57798 0.17211 0.45702 0.0
O843 O 0.57695 0.07347 0.44719 0.0
H844 H 0.64621 0.11255 0.4454 0.0
H845 H 0.59225 0.05698 0.40902 0.0
H846 H 0.65542 0.21747 0.47252 0.0
H847 H 0.5215 0.10293 0.48676 0.0
H848 H 0.6318 0.23279 0.47986 0.0
H849 H 0.53094 0.11588 0.54357 0.0
O850 O 0.61874 0.15298 0.41053 0.0
H851 H 0.5449 0.06846 0.34359 0.0
H852 H 0.62183 0.10187 0.3656 0.0
H853 H 0.60863 0.09118 0.3096 0.0
H854 H 0.56991 0.0743 0.29832 0.0
H855 H 0.5588 0.0796 0.39918 0.0
H856 H 0.61294 0.03848 0.40628 0.0
H857 H 0.6509 0.05741 0.42314 0.0
O858 O 0.62664 0.1267 0.41164 0.0
C859 C 0.61956 0.12771 0.48783 0.0
C860 C 0.65104 0.08633 0.4353 0.0
C861 C 0.62039 0.05475 0.41483 0.0
N862 N 0.61807 0.08589 0.4271 0.0
C863 C 0.6389 0.09636 0.43661 0.0
C864 C 0.60874 0.0653 0.41649 0.0
C865 C 0.64169 0.06538 0.42429 0.0
C866 C 0.55385 0.12119 0.46966 0.0
N867 N 0.57454 0.13514 0.47765 0.0
C868 C 0.53785 0.11405 0.4932 0.0
C869 C 0.54316 0.1213 0.52508 0.0
C870 C 0.5643 0.13555 0.53303 0.0
C871 C 0.57987 0.14231 0.50887 0.0
C872 C 0.60327 0.20336 0.4688 0.0
C873 C 0.62954 0.18621 0.46071 0.0
C874 C 0.59497 0.18201 0.46032 0.0
N875 N 0.60807 0.17367 0.45656 0.0
C876 C 0.63841 0.20763 0.4692 0.0
C877 C 0.62514 0.21622 0.47329 0.0
C878 C 0.63063 0.14528 0.40315 0.0
C879 C 0.56181 0.07575 0.34822 0.0
C880 C 0.60496 0.09462 0.36087 0.0
C881 C 0.59758 0.08855 0.32912 0.0
C882 C 0.57585 0.07906 0.32282 0.0
N883 N 0.59109 0.0913 0.38566 0.0
C884 C 0.56976 0.082 0.37967 0.0
Co885 Co 0.78523 0.52506 0.7191 0.0
Co886 Co 0.83423 0.56834 0.73673 0.0
O887 O 0.80319 0.55452 0.73302 0.0
C888 C 0.76458 0.52727 0.78016 0.0
O889 O 0.78352 0.53846 0.79329 0.0
C890 C 0.82716 0.59712 0.69453 0.0
O891 O 0.81462 0.58025 0.67713 0.0
O892 O 0.83688 0.55952 0.69184 0.0
O893 O 0.80703 0.52788 0.68698 0.0
H894 H 0.90576 0.57373 0.72612 0.0
H895 H 0.76753 0.55402 0.72007 0.0
O896 O 0.76263 0.52111 0.75076 0.0
H897 H 0.76157 0.53052 0.60614 0.0
H898 H 0.71589 0.46016 0.68863 0.0
H899 H 0.79297 0.4895 0.70424 0.0
H900 H 0.7764 0.51727 0.64797 0.0
H901 H 0.73886 0.49753 0.70535 0.0
O902 O 0.8367 0.59532 0.71928 0.0
H903 H 0.86666 0.55605 0.72194 0.0
H904 H 0.86781 0.61129 0.75885 0.0
H905 H 0.7706 0.45209 0.68725 0.0
H906 H 0.75243 0.56755 0.67906 0.0
H907 H 0.73176 0.43719 0.67933 0.0
H908 H 0.74944 0.55584 0.6216 0.0
O909 O 0.79817 0.5152 0.75249 0.0
H910 H 0.80793 0.5993 0.82198 0.0
H911 H 0.85154 0.56581 0.80131 0.0
H912 H 0.84803 0.57583 0.8573 0.0
H913 H 0.82614 0.59274 0.86791 0.0
H914 H 0.81168 0.58883 0.76641 0.0
H915 H 0.90695 0.62964 0.7632 0.0
H916 H 0.92617 0.61079 0.74689 0.0
O917 O 0.83231 0.5416 0.75425 0.0
C918 C 0.82545 0.5419 0.67717 0.0
C919 C 0.89756 0.58208 0.73343 0.0
C920 C 0.89823 0.61347 0.75419 0.0
N921 N 0.86496 0.58255 0.74044 0.0
C922 C 0.87542 0.57213 0.73122 0.0
C923 C 0.87608 0.60301 0.75162 0.0
C924 C 0.909 0.60288 0.74505 0.0
C925 C 0.76608 0.54869 0.69518 0.0
N926 N 0.77276 0.53481 0.68646 0.0
C927 C 0.7576 0.55648 0.67204 0.0
C928 C 0.75596 0.54993 0.63979 0.0
C929 C 0.76278 0.53574 0.6311 0.0
C930 C 0.77122 0.52832 0.65488 0.0
C931 C 0.73279 0.46648 0.69194 0.0
C932 C 0.7761 0.48317 0.70067 0.0
C933 C 0.74588 0.48762 0.70147 0.0
N934 N 0.76726 0.49573 0.70553 0.0
C935 C 0.76351 0.46196 0.69113 0.0
C936 C 0.74171 0.4536 0.68672 0.0
C937 C 0.81752 0.52275 0.76113 0.0
C938 C 0.81757 0.592 0.81765 0.0
C939 C 0.8419 0.57308 0.80574 0.0
C940 C 0.84003 0.57877 0.83749 0.0
C941 C 0.82776 0.58828 0.84342 0.0
N942 N 0.83188 0.5768 0.78059 0.0
C943 C 0.81983 0.58612 0.78621 0.0
Co944 Co 0.47698 0.26111 0.72081 0.0
Co945 Co 0.43288 0.2657 0.7369 0.0
O946 O 0.44724 0.24897 0.73364 0.0
C947 C 0.47415 0.23757 0.78146 0.0
O948 O 0.46245 0.2448 0.79439 0.0
C949 C 0.40512 0.22999 0.69378 0.0
O950 O 0.42228 0.23469 0.67689 0.0
O951 O 0.44217 0.27751 0.69229 0.0
O952 O 0.47426 0.28022 0.68879 0.0
H953 H 0.42625 0.33114 0.726 0.0
H954 H 0.44867 0.21433 0.7203 0.0
O955 O 0.48082 0.24234 0.75237 0.0
H956 H 0.47394 0.23353 0.60739 0.0
H957 H 0.5431 0.2584 0.69243 0.0
H958 H 0.51222 0.30486 0.7076 0.0
H959 H 0.48605 0.26109 0.64996 0.0
H960 H 0.50538 0.24319 0.70774 0.0
O961 O 0.4064 0.24106 0.71863 0.0
H962 H 0.44458 0.31031 0.7224 0.0
H963 H 0.38942 0.25544 0.75769 0.0
H964 H 0.54997 0.32072 0.69203 0.0
H965 H 0.43627 0.18621 0.67853 0.0
H966 H 0.56564 0.29742 0.68434 0.0
H967 H 0.44888 0.19576 0.62158 0.0
O968 O 0.48589 0.28349 0.75475 0.0
H969 H 0.40158 0.20784 0.82119 0.0
H970 H 0.43417 0.28497 0.80153 0.0
H971 H 0.42354 0.27102 0.8572 0.0
H972 H 0.40707 0.23219 0.8673 0.0
H973 H 0.41264 0.2225 0.76596 0.0
H974 H 0.37043 0.27563 0.76144 0.0
H975 H 0.3889 0.31379 0.74564 0.0
O976 O 0.45912 0.29068 0.75521 0.0
C977 C 0.46011 0.28425 0.67839 0.0
C978 C 0.41806 0.31455 0.73307 0.0
C979 C 0.38672 0.28338 0.75292 0.0
N980 N 0.41815 0.28175 0.74013 0.0
C981 C 0.42838 0.30269 0.73119 0.0
C982 C 0.39754 0.27203 0.75069 0.0
C983 C 0.39709 0.30479 0.74406 0.0
C984 C 0.45438 0.21857 0.69564 0.0
N985 N 0.46813 0.23931 0.68761 0.0
C986 C 0.44724 0.2026 0.67207 0.0
C987 C 0.45429 0.20797 0.64011 0.0
C988 C 0.46834 0.22916 0.63212 0.0
C989 C 0.4751 0.24471 0.65632 0.0
C990 C 0.53645 0.26871 0.69565 0.0
C991 C 0.5189 0.2946 0.70413 0.0
C992 C 0.51511 0.26019 0.70439 0.0
N993 N 0.50657 0.27311 0.70834 0.0
C994 C 0.54029 0.30368 0.69539 0.0
C995 C 0.54908 0.29061 0.69111 0.0
C996 C 0.47793 0.29502 0.76289 0.0
C997 C 0.40868 0.22479 0.81709 0.0
C998 C 0.4271 0.26806 0.80574 0.0
C999 C 0.42106 0.26025 0.83731 0.0
C1000 C 0.4118 0.23846 0.84295 0.0
N1001 N 0.42396 0.25455 0.78049 0.0
C1002 C 0.41489 0.23317 0.78584 0.0
Co1003 Co 0.74215 0.21656 0.72219 0.0
Co1004 Co 0.73517 0.16702 0.73926 0.0
O1005 O 0.75271 0.19798 0.73657 0.0
C1006 C 0.76066 0.2374 0.7859 0.0
O1007 O 0.74704 0.21986 0.80098 0.0
C1008 C 0.77119 0.17423 0.69766 0.0
O1009 O 0.76697 0.18694 0.68054 0.0
O1010 O 0.72431 0.16506 0.69413 0.0
O1011 O 0.72353 0.19545 0.6889 0.0
H1012 H 0.66867 0.09603 0.72595 0.0
H1013 H 0.78865 0.23315 0.72549 0.0
O1014 O 0.7609 0.23841 0.75498 0.0
H1015 H 0.77405 0.24145 0.61096 0.0
H1016 H 0.74946 0.28739 0.69344 0.0
H1017 H 0.69974 0.21032 0.70476 0.0
H1018 H 0.74504 0.22656 0.65134 0.0
H1019 H 0.76245 0.26329 0.71051 0.0
O1020 O 0.75973 0.16447 0.72222 0.0
H1021 H 0.69051 0.13516 0.72299 0.0
H1022 H 0.74375 0.13282 0.76083 0.0
H1023 H 0.6861 0.23382 0.68738 0.0
H1024 H 0.81818 0.24829 0.68597 0.0
H1025 H 0.71104 0.27265 0.68162 0.0
H1026 H 0.81094 0.25245 0.62822 0.0
O1027 O 0.71827 0.20335 0.75395 0.0
H1028 H 0.79112 0.19223 0.82643 0.0
H1029 H 0.71438 0.14882 0.80294 0.0
H1030 H 0.72705 0.15156 0.85934 0.0
H1031 H 0.76568 0.17335 0.87136 0.0
H1032 H 0.77775 0.18918 0.77041 0.0
H1033 H 0.72254 0.09364 0.76397 0.0
H1034 H 0.68469 0.07501 0.74657 0.0
O1035 O 0.71041 0.16915 0.75621 0.0
C1036 C 0.71879 0.17692 0.6791 0.0
C1037 C 0.68512 0.10397 0.73373 0.0
C1038 C 0.71537 0.10263 0.75502 0.0
N1039 N 0.71831 0.13626 0.74203 0.0
C1040 C 0.69754 0.12613 0.73221 0.0
C1041 C 0.72731 0.12481 0.75314 0.0
C1042 C 0.69413 0.09218 0.74526 0.0
C1043 C 0.78542 0.23512 0.70047 0.0
N1044 N 0.76516 0.22906 0.69077 0.0
C1045 C 0.80218 0.24361 0.67818 0.0
C1046 C 0.7981 0.24591 0.64576 0.0
C1047 C 0.7774 0.23973 0.63606 0.0
C1048 C 0.76103 0.23125 0.65902 0.0
C1049 C 0.73844 0.27049 0.69581 0.0
C1050 C 0.71071 0.22719 0.70213 0.0
C1051 C 0.7457 0.25677 0.70553 0.0
N1052 N 0.73189 0.2354 0.70839 0.0
C1053 C 0.70289 0.24042 0.69237 0.0
C1054 C 0.71689 0.26221 0.68917 0.0
C1055 C 0.70628 0.18397 0.76244 0.0
C1056 C 0.77425 0.18263 0.82148 0.0
C1057 C 0.73121 0.15838 0.80799 0.0
C1058 C 0.73829 0.15983 0.83997 0.0
C1059 C 0.75997 0.17206 0.84669 0.0
N1060 N 0.74533 0.16873 0.78339 0.0
C1061 C 0.7666 0.18079 0.7898 0.0
Co1062 Co 0.47819 0.2164 0.22124 0.0
Co1063 Co 0.43451 0.16761 0.23851 0.0
O1064 O 0.44865 0.19869 0.235 0.0
C1065 C 0.47609 0.2374 0.28212 0.0
O1066 O 0.46448 0.21856 0.29539 0.0
C1067 C 0.40606 0.17512 0.19626 0.0
O1068 O 0.42301 0.18762 0.17898 0.0
O1069 O 0.4433 0.16494 0.19361 0.0
O1070 O 0.47517 0.19453 0.18911 0.0
H1071 H 0.42827 0.09571 0.22746 0.0
H1072 H 0.44965 0.23458 0.22202 0.0
O1073 O 0.48238 0.23911 0.25284 0.0
H1074 H 0.47342 0.2405 0.10825 0.0
H1075 H 0.54366 0.28535 0.19105 0.0
H1076 H 0.51341 0.20812 0.20663 0.0
H1077 H 0.48626 0.22532 0.15015 0.0
H1078 H 0.5062 0.26273 0.20755 0.0
O1079 O 0.4077 0.16548 0.22101 0.0
H1080 H 0.44633 0.13485 0.22354 0.0
H1081 H 0.39137 0.13428 0.26041 0.0
H1082 H 0.55091 0.23013 0.18985 0.0
H1083 H 0.43654 0.25006 0.18094 0.0
H1084 H 0.56627 0.26904 0.18195 0.0
H1085 H 0.44839 0.25302 0.12356 0.0
O1086 O 0.48769 0.20319 0.25472 0.0
H1087 H 0.40385 0.19416 0.32385 0.0
H1088 H 0.43669 0.14999 0.303 0.0
H1089 H 0.42664 0.15345 0.35899 0.0
H1090 H 0.41005 0.17563 0.36969 0.0
H1091 H 0.41436 0.19045 0.26828 0.0
H1092 H 0.37265 0.09511 0.2645 0.0
H1093 H 0.39115 0.07558 0.24807 0.0
O1094 O 0.46105 0.16915 0.25607 0.0
C1095 C 0.461 0.17624 0.17909 0.0
C1096 C 0.42006 0.10405 0.23481 0.0
C1097 C 0.38884 0.10371 0.25556 0.0
N1098 N 0.41999 0.13684 0.24203 0.0
C1099 C 0.43024 0.12621 0.23275 0.0
C1100 C 0.39951 0.12588 0.25314 0.0
C1101 C 0.39923 0.09276 0.24635 0.0
C1102 C 0.45503 0.23602 0.19716 0.0
N1103 N 0.46876 0.22913 0.18852 0.0
C1104 C 0.44749 0.24471 0.17398 0.0
C1105 C 0.45411 0.24634 0.14178 0.0
C1106 C 0.46814 0.2393 0.13317 0.0
C1107 C 0.47532 0.23066 0.15699 0.0
C1108 C 0.53714 0.26841 0.19435 0.0
C1109 C 0.51995 0.22503 0.20307 0.0
C1110 C 0.51595 0.25552 0.20376 0.0
N1111 N 0.50758 0.2341 0.20783 0.0
C1112 C 0.5412 0.23741 0.19365 0.0
C1113 C 0.54982 0.25925 0.18925 0.0
C1114 C 0.47993 0.18377 0.26316 0.0
C1115 C 0.41101 0.1844 0.31949 0.0
C1116 C 0.42957 0.15975 0.30747 0.0
C1117 C 0.42386 0.1616 0.33922 0.0
C1118 C 0.41453 0.17403 0.3452 0.0
N1119 N 0.42605 0.16995 0.28237 0.0
C1120 C 0.41691 0.18216 0.28805 0.0
Co1121 Co 0.78551 0.26228 0.21793 0.0
Co1122 Co 0.83428 0.26722 0.23427 0.0
O1123 O 0.80319 0.25027 0.23093 0.0
C1124 C 0.76454 0.23861 0.27843 0.0
O1125 O 0.7834 0.24599 0.29164 0.0
C1126 C 0.82664 0.23126 0.19183 0.0
O1127 O 0.81413 0.23573 0.17461 0.0
O1128 O 0.83675 0.27875 0.18944 0.0
O1129 O 0.80743 0.28157 0.18615 0.0
H1130 H 0.9061 0.33293 0.22303 0.0
H1131 H 0.76725 0.21553 0.21714 0.0
O1132 O 0.76277 0.24331 0.24924 0.0
H1133 H 0.7616 0.23499 0.10421 0.0
H1134 H 0.7166 0.25921 0.18891 0.0
H1135 H 0.7938 0.30597 0.20496 0.0
H1136 H 0.77676 0.26243 0.14699 0.0
H1137 H 0.7392 0.24414 0.20435 0.0
O1138 O 0.83635 0.24256 0.21652 0.0
H1139 H 0.86696 0.31185 0.21937 0.0
H1140 H 0.86768 0.25739 0.25561 0.0
H1141 H 0.77181 0.32169 0.18926 0.0
H1142 H 0.75182 0.18752 0.17516 0.0
H1143 H 0.73291 0.29825 0.18112 0.0
H1144 H 0.74898 0.19721 0.11821 0.0
O1145 O 0.79869 0.28453 0.25207 0.0
H1146 H 0.80795 0.20986 0.31936 0.0
H1147 H 0.85214 0.28691 0.29873 0.0
H1148 H 0.84885 0.2733 0.35463 0.0
H1149 H 0.82666 0.23451 0.36521 0.0
H1150 H 0.8115 0.22418 0.26389 0.0
H1151 H 0.90685 0.27784 0.25944 0.0
H1152 H 0.92631 0.31592 0.2432 0.0
O1153 O 0.8328 0.29222 0.25216 0.0
C1154 C 0.82557 0.28555 0.17561 0.0
C1155 C 0.8978 0.31637 0.2303 0.0
C1156 C 0.89822 0.28545 0.25069 0.0
N1157 N 0.86505 0.28348 0.23756 0.0
C1158 C 0.87564 0.30437 0.22837 0.0
C1159 C 0.87605 0.27394 0.24841 0.0
C1160 C 0.90913 0.30681 0.24158 0.0
C1161 C 0.76587 0.21982 0.19247 0.0
N1162 N 0.77281 0.24057 0.18456 0.0
C1163 C 0.7572 0.20392 0.16878 0.0
C1164 C 0.75565 0.20937 0.13682 0.0
C1165 C 0.76274 0.23057 0.12894 0.0
C1166 C 0.77136 0.24605 0.15326 0.0
C1167 C 0.73353 0.26959 0.19232 0.0
C1168 C 0.7769 0.29565 0.20129 0.0
C1169 C 0.74641 0.26115 0.20113 0.0
N1170 N 0.76782 0.27416 0.20533 0.0
C1171 C 0.76452 0.30465 0.19248 0.0
C1172 C 0.7427 0.29149 0.18795 0.0
C1173 C 0.81817 0.29628 0.26006 0.0
C1174 C 0.81772 0.22679 0.31504 0.0
C1175 C 0.84238 0.27002 0.30316 0.0
C1176 C 0.84062 0.2624 0.33485 0.0
C1177 C 0.82819 0.24063 0.34076 0.0
N1178 N 0.83208 0.25634 0.27805 0.0
C1179 C 0.81986 0.23498 0.28366 0.0
Co1180 Co 0.74084 0.5249 0.22104 0.0
Co1181 Co 0.73541 0.56844 0.2381 0.0
O1182 O 0.75245 0.5544 0.23479 0.0
C1183 C 0.76352 0.52711 0.28236 0.0
O1184 O 0.756 0.53855 0.29531 0.0
C1185 C 0.77128 0.59672 0.19568 0.0
O1186 O 0.76678 0.57967 0.17863 0.0
O1187 O 0.72392 0.55947 0.19324 0.0
O1188 O 0.72214 0.52782 0.18857 0.0
H1189 H 0.66957 0.57432 0.22689 0.0
H1190 H 0.78753 0.55366 0.22246 0.0
O1191 O 0.75924 0.52083 0.25304 0.0
H1192 H 0.77049 0.52996 0.10854 0.0
H1193 H 0.7449 0.45965 0.19143 0.0
H1194 H 0.69752 0.48952 0.20588 0.0
H1195 H 0.7422 0.5169 0.15005 0.0
H1196 H 0.75946 0.49708 0.20794 0.0
O1197 O 0.76003 0.59523 0.2204 0.0
H1198 H 0.69077 0.55638 0.22315 0.0
H1199 H 0.74508 0.6116 0.2596 0.0
H1200 H 0.68232 0.45205 0.18909 0.0
H1201 H 0.81636 0.567 0.18179 0.0
H1202 H 0.70607 0.43689 0.18176 0.0
H1203 H 0.80789 0.55519 0.12434 0.0
O1204 O 0.7179 0.51525 0.25417 0.0
H1205 H 0.79264 0.59948 0.32335 0.0
H1206 H 0.71561 0.56636 0.30254 0.0
H1207 H 0.72913 0.57658 0.3585 0.0
H1208 H 0.76791 0.59331 0.36917 0.0
H1209 H 0.77842 0.58882 0.26781 0.0
H1210 H 0.72451 0.6302 0.2635 0.0
H1211 H 0.68646 0.6115 0.24719 0.0
O1212 O 0.71049 0.54188 0.25581 0.0
C1213 C 0.7178 0.54185 0.17861 0.0
C1214 C 0.68612 0.58261 0.23419 0.0
C1215 C 0.71697 0.61398 0.25469 0.0
N1216 N 0.71907 0.58286 0.24145 0.0
C1217 C 0.69818 0.57251 0.23223 0.0
C1218 C 0.72854 0.60338 0.25238 0.0
C1219 C 0.69561 0.60348 0.24554 0.0
C1220 C 0.78376 0.54829 0.19757 0.0
N1221 N 0.76322 0.53446 0.18867 0.0
C1222 C 0.80013 0.55596 0.17462 0.0
C1223 C 0.79537 0.54936 0.14238 0.0
C1224 C 0.77438 0.53522 0.1335 0.0
C1225 C 0.75842 0.52791 0.1571 0.0
C1226 C 0.73439 0.46608 0.19449 0.0
C1227 C 0.70798 0.48307 0.20257 0.0
C1228 C 0.74254 0.48726 0.2039 0.0
N1229 N 0.72937 0.49552 0.20765 0.0
C1230 C 0.69927 0.46183 0.19314 0.0
C1231 C 0.7126 0.45332 0.18906 0.0
C1232 C 0.70623 0.52297 0.26272 0.0
C1233 C 0.77572 0.59226 0.31899 0.0
C1234 C 0.7325 0.57355 0.307 0.0
C1235 C 0.74006 0.57936 0.33873 0.0
C1236 C 0.76183 0.58876 0.3447 0.0
N1237 N 0.74622 0.57706 0.28191 0.0
C1238 C 0.76758 0.58628 0.28757 0.0
Co1239 Co 0.55039 0.14386 0.9442 0.0
Co1240 Co 0.5014 0.10002 0.92857 0.0
O1241 O 0.53252 0.11416 0.93131 0.0
C1242 C 0.57059 0.14121 0.88288 0.0
O1243 O 0.55158 0.12961 0.87019 0.0
C1244 C 0.50934 0.07194 0.97111 0.0
O1245 O 0.52203 0.08903 0.98795 0.0
O1246 O 0.49925 0.10933 0.97338 0.0
O1247 O 0.5289 0.14123 0.97674 0.0
H1248 H 0.42969 0.09401 0.94088 0.0
H1249 H 0.56852 0.11527 0.94367 0.0
O1250 O 0.57271 0.14766 0.91213 0.0
H1251 H 0.57574 0.1404 0.05685 0.0
H1252 H 0.61967 0.20969 0.97192 0.0
H1253 H 0.54229 0.17927 0.95828 0.0
H1254 H 0.56013 0.15278 0.01495 0.0
H1255 H 0.59686 0.17202 0.95656 0.0
O1256 O 0.49944 0.07337 0.94654 0.0
H1257 H 0.46885 0.11207 0.94385 0.0
H1258 H 0.46781 0.05665 0.90801 0.0
H1259 H 0.56449 0.21697 0.97392 0.0
H1260 H 0.5844 0.1026 0.98475 0.0
H1261 H 0.60348 0.23241 0.98084 0.0
H1262 H 0.58803 0.11513 0.04183 0.0
O1263 O 0.53683 0.15299 0.91078 0.0
H1264 H 0.52706 0.06848 0.8433 0.0
H1265 H 0.48305 0.10147 0.86437 0.0
H1266 H 0.48592 0.09083 0.80849 0.0
H1267 H 0.50802 0.07416 0.79768 0.0
H1268 H 0.52393 0.07956 0.89875 0.0
H1269 H 0.42862 0.03793 0.90489 0.0
H1270 H 0.40931 0.05666 0.92128 0.0
O1271 O 0.50277 0.12639 0.9105 0.0
C1272 C 0.51073 0.1272 0.98735 0.0
C1273 C 0.43792 0.0857 0.93356 0.0
C1274 C 0.43732 0.05422 0.9134 0.0
N1275 N 0.47061 0.08549 0.92583 0.0
C1276 C 0.4601 0.09587 0.93509 0.0
C1277 C 0.45951 0.06489 0.91528 0.0
C1278 C 0.4265 0.06474 0.92259 0.0
C1279 C 0.57024 0.12094 0.96839 0.0
N1280 N 0.56347 0.1348 0.97687 0.0
C1281 C 0.57916 0.11365 0.99157 0.0
C1282 C 0.58116 0.12066 0.02361 0.0
C1283 C 0.57425 0.13483 0.03206 0.0
C1284 C 0.56537 0.14174 0.00824 0.0
C1285 C 0.6027 0.20313 0.96904 0.0
C1286 C 0.55923 0.18584 0.96141 0.0
C1287 C 0.58971 0.18183 0.96028 0.0
N1288 N 0.56824 0.17341 0.95675 0.0
C1289 C 0.57172 0.20721 0.9702 0.0
C1290 C 0.5936 0.21587 0.97405 0.0
C1291 C 0.51734 0.14516 0.90277 0.0
C1292 C 0.51734 0.07567 0.84771 0.0
C1293 C 0.49277 0.09432 0.85984 0.0
C1294 C 0.49429 0.08827 0.82817 0.0
C1295 C 0.50667 0.0789 0.82212 0.0
N1296 N 0.50326 0.09107 0.88482 0.0
C1297 C 0.51543 0.08189 0.87909 0.0
Co1298 Co 0.85879 0.40881 0.94543 0.0
Co1299 Co 0.90239 0.40383 0.92487 0.0
O1300 O 0.88799 0.42041 0.92996 0.0
C1301 C 0.85946 0.42958 0.88282 0.0
O1302 O 0.87128 0.42235 0.87038 0.0
C1303 C 0.93035 0.4388 0.96935 0.0
O1304 O 0.91321 0.43426 0.98617 0.0
O1305 O 0.89308 0.39062 0.96895 0.0
O1306 O 0.86323 0.39171 0.97883 0.0
H1307 H 0.90853 0.33789 0.92889 0.0
H1308 H 0.88696 0.45547 0.93957 0.0
O1309 O 0.85336 0.4257 0.91227 0.0
H1310 H 0.86682 0.44264 0.05534 0.0
H1311 H 0.7938 0.41283 0.9768 0.0
H1312 H 0.82461 0.36603 0.96593 0.0
H1313 H 0.85287 0.41281 0.01642 0.0
H1314 H 0.83071 0.4272 0.95771 0.0
O1315 O 0.92893 0.4279 0.94421 0.0
H1316 H 0.89034 0.35872 0.93509 0.0
H1317 H 0.94598 0.41464 0.90375 0.0
H1318 H 0.78769 0.35103 0.98537 0.0
H1319 H 0.90116 0.48581 0.97761 0.0
H1320 H 0.77205 0.3745 0.9909 0.0
H1321 H 0.89115 0.47947 0.03598 0.0
O1322 O 0.84825 0.38443 0.91453 0.0
H1323 H 0.93325 0.46421 0.84471 0.0
H1324 H 0.90207 0.38676 0.85877 0.0
H1325 H 0.91269 0.40242 0.80401 0.0
H1326 H 0.92845 0.44143 0.79673 0.0
H1327 H 0.92217 0.44783 0.89896 0.0
H1328 H 0.96484 0.39445 0.89745 0.0
H1329 H 0.94606 0.35578 0.90994 0.0
O1330 O 0.87618 0.37964 0.90526 0.0
C1331 C 0.87673 0.38606 0.98621 0.0
C1332 C 0.91687 0.35472 0.92327 0.0
C1333 C 0.94848 0.38648 0.90568 0.0
N1334 N 0.91704 0.38783 0.91958 0.0
C1335 C 0.90663 0.36658 0.92665 0.0
C1336 C 0.93774 0.39783 0.90937 0.0
C1337 C 0.93793 0.36477 0.91268 0.0
C1338 C 0.88237 0.45262 0.96487 0.0
N1339 N 0.86903 0.43241 0.97573 0.0
C1340 C 0.89053 0.46984 0.98632 0.0
C1341 C 0.88493 0.46627 0.01908 0.0
C1342 C 0.87129 0.44561 0.02996 0.0
C1343 C 0.86348 0.42877 0.00782 0.0
C1344 C 0.80044 0.40245 0.97452 0.0
C1345 C 0.81795 0.37636 0.96841 0.0
C1346 C 0.82131 0.41048 0.96363 0.0
N1347 N 0.82983 0.39748 0.96083 0.0
C1348 C 0.79702 0.36777 0.97936 0.0
C1349 C 0.78825 0.38094 0.98244 0.0
C1350 C 0.85656 0.37412 0.90217 0.0
C1351 C 0.92643 0.44719 0.84757 0.0
C1352 C 0.90876 0.40371 0.85576 0.0
C1353 C 0.91484 0.41251 0.82471 0.0
C1354 C 0.9237 0.4344 0.82065 0.0
N1355 N 0.91146 0.41635 0.88203 0.0
C1356 C 0.9202 0.43784 0.87825 0.0
Co1357 Co 0.59549 0.451 0.94495 0.0
Co1358 Co 0.60034 0.49977 0.92878 0.0
O1359 O 0.58344 0.46867 0.93206 0.0
C1360 C 0.57171 0.42999 0.88457 0.0
O1361 O 0.5788 0.44882 0.87134 0.0
C1362 C 0.5645 0.49202 0.97156 0.0
O1363 O 0.56905 0.47952 0.98862 0.0
O1364 O 0.61199 0.50224 0.97351 0.0
O1365 O 0.61473 0.47286 0.97675 0.0
H1366 H 0.66599 0.57166 0.93985 0.0
H1367 H 0.54876 0.43274 0.94576 0.0
O1368 O 0.57659 0.42829 0.91367 0.0
H1369 H 0.56816 0.42682 0.0586 0.0
H1370 H 0.59258 0.38211 0.97376 0.0
H1371 H 0.63921 0.45936 0.95786 0.0
H1372 H 0.59561 0.44205 0.01585 0.0
H1373 H 0.57745 0.40468 0.95842 0.0
O1374 O 0.57571 0.50178 0.94681 0.0
H1375 H 0.64497 0.53251 0.94346 0.0
H1376 H 0.59037 0.53315 0.90777 0.0
H1377 H 0.65499 0.43741 0.97346 0.0
H1378 H 0.52074 0.41723 0.98771 0.0
H1379 H 0.63162 0.39849 0.98151 0.0
H1380 H 0.5304 0.41426 0.04463 0.0
O1381 O 0.61774 0.46426 0.91081 0.0
H1382 H 0.54275 0.47349 0.84411 0.0
H1383 H 0.61984 0.5177 0.86425 0.0
H1384 H 0.60606 0.51446 0.80847 0.0
H1385 H 0.56725 0.49226 0.79814 0.0
H1386 H 0.55722 0.47698 0.89945 0.0
H1387 H 0.61075 0.57233 0.90401 0.0
H1388 H 0.64887 0.59184 0.91999 0.0
O1389 O 0.62529 0.49835 0.91065 0.0
C1390 C 0.61874 0.491 0.98732 0.0
C1391 C 0.64942 0.56334 0.93269 0.0
C1392 C 0.61841 0.56372 0.91262 0.0
N1393 N 0.61653 0.53055 0.92555 0.0
C1394 C 0.63745 0.54117 0.93459 0.0
C1395 C 0.60694 0.54154 0.91486 0.0
C1396 C 0.63979 0.57465 0.92159 0.0
C1397 C 0.55304 0.4313 0.97041 0.0
N1398 N 0.57378 0.43822 0.97832 0.0
C1399 C 0.53713 0.42259 0.99408 0.0
C1400 C 0.54257 0.42096 0.02602 0.0
C1401 C 0.56375 0.42802 0.03389 0.0
C1402 C 0.57924 0.43669 0.00959 0.0
C1403 C 0.60293 0.39906 0.97038 0.0
C1404 C 0.62892 0.44245 0.96149 0.0
C1405 C 0.59446 0.41191 0.96163 0.0
N1406 N 0.60742 0.43334 0.95747 0.0
C1407 C 0.63795 0.4301 0.97025 0.0
C1408 C 0.62483 0.40826 0.97473 0.0
C1409 C 0.62941 0.48375 0.90275 0.0
C1410 C 0.55968 0.48326 0.84832 0.0
C1411 C 0.60294 0.50793 0.85993 0.0
C1412 C 0.59523 0.50621 0.82831 0.0
C1413 C 0.57345 0.49376 0.82253 0.0
N1414 N 0.58933 0.49759 0.88511 0.0
C1415 C 0.56796 0.48537 0.87963 0.0
Co1416 Co 0.52477 0.78556 0.77719 0.0
Co1417 Co 0.56881 0.83422 0.76061 0.0
O1418 O 0.55442 0.80311 0.76385 0.0
C1419 C 0.527 0.76461 0.71632 0.0
O1420 O 0.53882 0.78346 0.7032 0.0
C1421 C 0.59684 0.82628 0.80315 0.0
O1422 O 0.57977 0.81379 0.82019 0.0
O1423 O 0.55984 0.8368 0.80543 0.0
O1424 O 0.5278 0.80739 0.80938 0.0
H1425 H 0.5756 0.90634 0.77198 0.0
H1426 H 0.55301 0.76702 0.77676 0.0
O1427 O 0.52056 0.76288 0.74552 0.0
H1428 H 0.52863 0.76093 0.89022 0.0
H1429 H 0.45878 0.7168 0.80647 0.0
H1430 H 0.48971 0.79416 0.79136 0.0
H1431 H 0.51623 0.77643 0.84816 0.0
H1432 H 0.49637 0.73923 0.79046 0.0
O1433 O 0.59542 0.83605 0.7784 0.0
H1434 H 0.55726 0.86717 0.77559 0.0
H1435 H 0.61216 0.86739 0.73928 0.0
H1436 H 0.45209 0.77235 0.80764 0.0
H1437 H 0.56568 0.75123 0.818 0.0
H1438 H 0.43639 0.73338 0.8153 0.0
H1439 H 0.55353 0.74818 0.87522 0.0
O1440 O 0.51563 0.79904 0.74361 0.0
H1441 H 0.59953 0.80758 0.67551 0.0
H1442 H 0.56714 0.85219 0.69617 0.0
H1443 H 0.57741 0.84882 0.64027 0.0
H1444 H 0.59378 0.82643 0.62967 0.0
H1445 H 0.58881 0.8112 0.73098 0.0
H1446 H 0.63117 0.90658 0.73551 0.0
H1447 H 0.61283 0.9263 0.75181 0.0
O1448 O 0.54248 0.83298 0.74277 0.0
C1449 C 0.54201 0.82558 0.81966 0.0
C1450 C 0.58373 0.89792 0.76468 0.0
C1451 C 0.61493 0.89806 0.74426 0.0
N1452 N 0.58356 0.86501 0.75736 0.0
C1453 C 0.5734 0.87574 0.76657 0.0
C1454 C 0.6041 0.87588 0.7465 0.0
C1455 C 0.60463 0.90911 0.7534 0.0
C1456 C 0.54749 0.76554 0.80155 0.0
N1457 N 0.53384 0.77256 0.81001 0.0
C1458 C 0.55479 0.75668 0.82482 0.0
C1459 C 0.54799 0.755 0.85693 0.0
C1460 C 0.53404 0.76217 0.86536 0.0
C1461 C 0.52711 0.77099 0.84146 0.0
C1462 C 0.46545 0.73377 0.80326 0.0
C1463 C 0.48302 0.77723 0.79481 0.0
C1464 C 0.48671 0.74655 0.79414 0.0
N1465 N 0.49527 0.76801 0.7902 0.0
C1466 C 0.4617 0.76495 0.80396 0.0
C1467 C 0.4529 0.74308 0.80822 0.0
C1468 C 0.5236 0.81852 0.73538 0.0
C1469 C 0.59247 0.81744 0.67983 0.0
C1470 C 0.57416 0.84233 0.69173 0.0
C1471 C 0.58 0.84054 0.66004 0.0
C1472 C 0.5892 0.82799 0.65412 0.0
N1473 N 0.57744 0.83195 0.71683 0.0
C1474 C 0.58646 0.81962 0.71121 0.0
Co1475 Co 0.21677 0.74001 0.77939 0.0
Co1476 Co 0.16798 0.73504 0.76314 0.0
O1477 O 0.19907 0.75202 0.76648 0.0
C1478 C 0.23787 0.76383 0.71904 0.0
O1479 O 0.21905 0.75658 0.70573 0.0
C1480 C 0.17558 0.77093 0.80573 0.0
O1481 O 0.18808 0.76645 0.82291 0.0
O1482 O 0.16551 0.72345 0.80794 0.0
O1483 O 0.19484 0.72063 0.81106 0.0
H1484 H 0.09619 0.66926 0.77421 0.0
H1485 H 0.23499 0.78674 0.78044 0.0
O1486 O 0.23955 0.75904 0.74821 0.0
H1487 H 0.24053 0.76704 0.89327 0.0
H1488 H 0.28566 0.74305 0.80849 0.0
H1489 H 0.2085 0.69629 0.79206 0.0
H1490 H 0.22545 0.73969 0.85034 0.0
H1491 H 0.26306 0.75814 0.79313 0.0
O1492 O 0.16588 0.75966 0.781 0.0
H1493 H 0.13533 0.69038 0.7779 0.0
H1494 H 0.13455 0.74486 0.74192 0.0
H1495 H 0.23049 0.68055 0.80767 0.0
H1496 H 0.25035 0.81465 0.82257 0.0
H1497 H 0.26937 0.70399 0.81599 0.0
H1498 H 0.25313 0.80484 0.87948 0.0
O1499 O 0.20363 0.71783 0.74514 0.0
H1500 H 0.19425 0.79251 0.67824 0.0
H1501 H 0.15013 0.71543 0.69864 0.0
H1502 H 0.15341 0.72911 0.6428 0.0
H1503 H 0.17556 0.76792 0.63233 0.0
H1504 H 0.19073 0.77813 0.73366 0.0
H1505 H 0.09538 0.72437 0.73807 0.0
H1506 H 0.07595 0.68627 0.75417 0.0
O1507 O 0.16949 0.71008 0.74514 0.0
C1508 C 0.1767 0.71662 0.82166 0.0
C1509 C 0.10448 0.68583 0.76701 0.0
C1510 C 0.10402 0.71677 0.74677 0.0
N1511 N 0.13722 0.71876 0.75985 0.0
C1512 C 0.12664 0.69785 0.76895 0.0
C1513 C 0.1262 0.7283 0.74905 0.0
C1514 C 0.09313 0.69539 0.7558 0.0
C1515 C 0.23635 0.7824 0.80509 0.0
N1516 N 0.22941 0.76164 0.81289 0.0
C1517 C 0.24497 0.79825 0.82886 0.0
C1518 C 0.24649 0.79273 0.8608 0.0
C1519 C 0.23941 0.77152 0.86856 0.0
C1520 C 0.23084 0.75609 0.84416 0.0
C1521 C 0.26874 0.73267 0.805 0.0
C1522 C 0.22539 0.7066 0.79581 0.0
C1523 C 0.25586 0.74112 0.79623 0.0
N1524 N 0.23445 0.72811 0.79193 0.0
C1525 C 0.23777 0.6976 0.80457 0.0
C1526 C 0.25958 0.71076 0.80921 0.0
C1527 C 0.18415 0.70606 0.73716 0.0
C1528 C 0.1845 0.77558 0.68251 0.0
C1529 C 0.15988 0.73232 0.69426 0.0
C1530 C 0.16162 0.73999 0.6626 0.0
C1531 C 0.17404 0.76177 0.65675 0.0
N1532 N 0.17017 0.74597 0.71941 0.0
C1533 C 0.18237 0.76735 0.71386 0.0
Co1534 Co 0.26211 0.47768 0.77884 0.0
Co1535 Co 0.26717 0.43402 0.76102 0.0
O1536 O 0.25027 0.44818 0.76485 0.0
C1537 C 0.23913 0.4758 0.718 0.0
O1538 O 0.24645 0.4643 0.70464 0.0
C1539 C 0.23136 0.40565 0.80348 0.0
O1540 O 0.23597 0.42264 0.82077 0.0
O1541 O 0.27879 0.44276 0.80586 0.0
O1542 O 0.28094 0.47454 0.81083 0.0
H1543 H 0.33281 0.4277 0.77114 0.0
H1544 H 0.21538 0.44913 0.77799 0.0
O1545 O 0.24361 0.48196 0.74735 0.0
H1546 H 0.23321 0.47248 0.89193 0.0
H1547 H 0.25864 0.54307 0.80966 0.0
H1548 H 0.3056 0.51286 0.7936 0.0
H1549 H 0.26124 0.48551 0.85 0.0
H1550 H 0.2438 0.50565 0.79287 0.0
O1551 O 0.24252 0.40721 0.77861 0.0
H1552 H 0.31179 0.44579 0.77552 0.0
H1553 H 0.25724 0.39089 0.73888 0.0
H1554 H 0.3211 0.55031 0.81067 0.0
H1555 H 0.1868 0.43584 0.81909 0.0
H1556 H 0.29755 0.56565 0.81881 0.0
H1557 H 0.19567 0.44747 0.87655 0.0
O1558 O 0.28484 0.48729 0.74536 0.0
H1559 H 0.2097 0.40356 0.6761 0.0
H1560 H 0.28676 0.43628 0.69632 0.0
H1561 H 0.27307 0.42633 0.64039 0.0
H1562 H 0.23427 0.4098 0.63001 0.0
H1563 H 0.22409 0.41395 0.7316 0.0
H1564 H 0.27762 0.37214 0.73433 0.0
H1565 H 0.31572 0.3906 0.75041 0.0
O1566 O 0.29213 0.46059 0.74341 0.0
C1567 C 0.28515 0.46039 0.82057 0.0
C1568 C 0.31625 0.41952 0.76394 0.0
C1569 C 0.28526 0.38832 0.74332 0.0
N1570 N 0.28338 0.41948 0.75717 0.0
C1571 C 0.30428 0.4297 0.76627 0.0
C1572 C 0.27379 0.39901 0.746 0.0
C1573 C 0.30664 0.39869 0.75234 0.0
C1574 C 0.21932 0.45443 0.80288 0.0
N1575 N 0.23994 0.46814 0.81156 0.0
C1576 C 0.20309 0.44678 0.82607 0.0
C1577 C 0.20808 0.45328 0.85832 0.0
C1578 C 0.22915 0.4673 0.86697 0.0
C1579 C 0.24496 0.47458 0.84313 0.0
C1580 C 0.26906 0.53656 0.80625 0.0
C1581 C 0.29524 0.51939 0.79727 0.0
C1582 C 0.26075 0.51539 0.79668 0.0
N1583 N 0.27381 0.50703 0.79248 0.0
C1584 C 0.30411 0.54062 0.80686 0.0
C1585 C 0.29089 0.54921 0.81139 0.0
C1586 C 0.29643 0.47953 0.73662 0.0
C1587 C 0.22663 0.41069 0.68032 0.0
C1588 C 0.26987 0.42918 0.69198 0.0
C1589 C 0.2622 0.42352 0.66027 0.0
C1590 C 0.24043 0.41423 0.65447 0.0
N1591 N 0.25622 0.42563 0.71722 0.0
C1592 C 0.23486 0.41652 0.71172 0.0
Co1593 Co 0.45163 0.85736 0.05354 0.0
Co1594 Co 0.50048 0.90126 0.06975 0.0
O1595 O 0.46936 0.88702 0.06675 0.0
C1596 C 0.43105 0.85961 0.11475 0.0
O1597 O 0.44997 0.87128 0.12771 0.0
C1598 C 0.49256 0.92937 0.02726 0.0
O1599 O 0.47996 0.91231 0.01029 0.0
O1600 O 0.50286 0.89213 0.02492 0.0
O1601 O 0.47326 0.86022 0.02115 0.0
H1602 H 0.57236 0.9076 0.05803 0.0
H1603 H 0.43334 0.88581 0.05422 0.0
O1604 O 0.42914 0.85331 0.08545 0.0
H1605 H 0.4266 0.86119 0.94081 0.0
H1606 H 0.38259 0.79149 0.02496 0.0
H1607 H 0.45996 0.82213 0.03925 0.0
H1608 H 0.44214 0.84871 0.98268 0.0
H1609 H 0.40522 0.82911 0.04072 0.0
O1610 O 0.5024 0.92792 0.05189 0.0
H1611 H 0.53321 0.88942 0.05468 0.0
H1612 H 0.53386 0.94461 0.09072 0.0
H1613 H 0.43794 0.78448 0.0232 0.0
H1614 H 0.41752 0.89857 0.01317 0.0
H1615 H 0.39896 0.76893 0.01596 0.0
H1616 H 0.41414 0.88629 0.95597 0.0
O1617 O 0.46513 0.84817 0.08698 0.0
H1618 H 0.47429 0.93235 0.15494 0.0
H1619 H 0.51861 0.89968 0.13409 0.0
H1620 H 0.51547 0.91012 0.18998 0.0
H1621 H 0.49322 0.92663 0.20068 0.0
H1622 H 0.47768 0.92148 0.09948 0.0
H1623 H 0.57305 0.96345 0.09422 0.0
H1624 H 0.59255 0.94489 0.07793 0.0
O1625 O 0.49914 0.87489 0.08771 0.0
C1626 C 0.49147 0.87431 0.01075 0.0
C1627 C 0.56404 0.91583 0.06532 0.0
C1628 C 0.56443 0.94719 0.08559 0.0
N1629 N 0.53126 0.91588 0.07278 0.0
C1630 C 0.54187 0.9056 0.06358 0.0
C1631 C 0.54225 0.93646 0.0835 0.0
C1632 C 0.57536 0.93676 0.07645 0.0
C1633 C 0.43173 0.88025 0.02944 0.0
N1634 N 0.43859 0.86648 0.02088 0.0
C1635 C 0.42284 0.88759 0.00628 0.0
C1636 C 0.42098 0.88072 0.97418 0.0
C1637 C 0.42798 0.86665 0.96565 0.0
C1638 C 0.43683 0.85968 0.98945 0.0
C1639 C 0.39956 0.79809 0.02798 0.0
C1640 C 0.44302 0.81551 0.03597 0.0
C1641 C 0.41246 0.81937 0.03697 0.0
N1642 N 0.43392 0.82785 0.04068 0.0
C1643 C 0.43063 0.79417 0.02696 0.0
C1644 C 0.40876 0.78545 0.02293 0.0
C1645 C 0.48459 0.85605 0.09521 0.0
C1646 C 0.48408 0.92523 0.15058 0.0
C1647 C 0.50882 0.90677 0.13856 0.0
C1648 C 0.50715 0.9127 0.17025 0.0
C1649 C 0.49468 0.92198 0.17623 0.0
N1650 N 0.4984 0.91004 0.11352 0.0
C1651 C 0.48614 0.91913 0.11919 0.0
Co1652 Co 0.14494 0.59317 0.05052 0.0
Co1653 Co 0.10155 0.59816 0.07241 0.0
O1654 O 0.11593 0.5816 0.06681 0.0
C1655 C 0.14512 0.57281 0.11312 0.0
O1656 O 0.13342 0.58007 0.1259 0.0
C1657 C 0.07327 0.56308 0.02843 0.0
O1658 O 0.0903 0.56768 0.01129 0.0
O1659 O 0.11036 0.61124 0.02818 0.0
O1660 O 0.14006 0.61006 0.0173 0.0
H1661 H 0.09518 0.66399 0.06903 0.0
H1662 H 0.11693 0.54653 0.05708 0.0
O1663 O 0.15083 0.57649 0.08348 0.0
H1664 H 0.13569 0.55878 0.94078 0.0
H1665 H 0.20965 0.58917 0.01725 0.0
H1666 H 0.17883 0.63589 0.02927 0.0
H1667 H 0.15005 0.58881 0.97937 0.0
H1668 H 0.17296 0.5748 0.03733 0.0
O1669 O 0.07482 0.57399 0.05363 0.0
H1670 H 0.11339 0.64322 0.06215 0.0
H1671 H 0.05817 0.58732 0.09472 0.0
H1672 H 0.21552 0.65088 0.00885 0.0
H1673 H 0.10233 0.51599 0.01939 0.0
H1674 H 0.23117 0.62745 0.00274 0.0
H1675 H 0.11165 0.52205 0.96076 0.0
O1676 O 0.15578 0.61767 0.08119 0.0
H1677 H 0.07157 0.53805 0.15305 0.0
H1678 H 0.10271 0.61546 0.13863 0.0
H1679 H 0.09269 0.59999 0.19359 0.0
H1680 H 0.07696 0.561 0.20105 0.0
H1681 H 0.08203 0.55424 0.09859 0.0
H1682 H 0.03931 0.60745 0.10171 0.0
H1683 H 0.05787 0.64608 0.08894 0.0
O1684 O 0.12796 0.62246 0.0914 0.0
C1685 C 0.12648 0.6157 0.01041 0.0
C1686 C 0.08695 0.64717 0.07477 0.0
C1687 C 0.05558 0.61544 0.09306 0.0
N1688 N 0.0869 0.61413 0.07824 0.0
C1689 C 0.09719 0.63535 0.07101 0.0
C1690 C 0.06632 0.60411 0.08898 0.0
C1691 C 0.066 0.63711 0.08591 0.0
C1692 C 0.12122 0.54926 0.03166 0.0
N1693 N 0.13439 0.56942 0.02047 0.0
C1694 C 0.11283 0.53192 0.01041 0.0
C1695 C 0.11804 0.53533 0.9775 0.0
C1696 C 0.13152 0.55594 0.96628 0.0
C1697 C 0.13956 0.57289 0.98823 0.0
C1698 C 0.20301 0.59953 0.01978 0.0
C1699 C 0.18549 0.62557 0.02653 0.0
C1700 C 0.18225 0.5915 0.03122 0.0
N1701 N 0.17372 0.60448 0.03433 0.0
C1702 C 0.20629 0.63416 0.01502 0.0
C1703 C 0.21507 0.62101 0.01162 0.0
C1704 C 0.14762 0.62802 0.09388 0.0
C1705 C 0.07838 0.55506 0.15011 0.0
C1706 C 0.09601 0.59852 0.14171 0.0
C1707 C 0.09028 0.58983 0.17287 0.0
C1708 C 0.08144 0.56794 0.17703 0.0
N1709 N 0.09297 0.58578 0.11543 0.0
C1710 C 0.08426 0.56431 0.11931 0.0
Co1711 Co 0.40836 0.55012 0.05362 0.0
Co1712 Co 0.40279 0.50102 0.0698 0.0
O1713 O 0.41998 0.5321 0.06668 0.0
C1714 C 0.43179 0.57064 0.11445 0.0
O1715 O 0.42438 0.55171 0.12747 0.0
C1716 C 0.43853 0.5085 0.02709 0.0
O1717 O 0.43412 0.52113 0.01012 0.0
O1718 O 0.39122 0.49874 0.02505 0.0
O1719 O 0.38921 0.52851 0.02147 0.0
H1720 H 0.33665 0.42953 0.05846 0.0
H1721 H 0.45502 0.56783 0.05366 0.0
O1722 O 0.4272 0.57257 0.08528 0.0
H1723 H 0.43673 0.57455 0.94049 0.0
H1724 H 0.41244 0.61956 0.02494 0.0
H1725 H 0.36494 0.54236 0.03992 0.0
H1726 H 0.40893 0.55945 0.98275 0.0
H1727 H 0.42703 0.59656 0.04054 0.0
O1728 O 0.42726 0.49873 0.05179 0.0
H1729 H 0.35803 0.46867 0.05499 0.0
H1730 H 0.41224 0.46727 0.09068 0.0
H1731 H 0.34971 0.56475 0.02404 0.0
H1732 H 0.48338 0.5832 0.01222 0.0
H1733 H 0.37352 0.60365 0.01645 0.0
H1734 H 0.47428 0.58657 0.95514 0.0
O1735 O 0.38581 0.53693 0.08735 0.0
H1736 H 0.46022 0.52662 0.15466 0.0
H1737 H 0.3831 0.48312 0.13425 0.0
H1738 H 0.39674 0.48614 0.19006 0.0
H1739 H 0.43557 0.50797 0.20053 0.0
H1740 H 0.44588 0.52336 0.09928 0.0
H1741 H 0.39149 0.42809 0.09431 0.0
H1742 H 0.35338 0.40898 0.07825 0.0
O1743 O 0.378 0.50275 0.0879 0.0
C1744 C 0.38488 0.51025 0.01103 0.0
C1745 C 0.35322 0.43768 0.06565 0.0
C1746 C 0.38401 0.43688 0.08572 0.0
N1747 N 0.3863 0.47025 0.07292 0.0
C1748 C 0.36539 0.45984 0.06384 0.0
C1749 C 0.39568 0.45905 0.08357 0.0
C1750 C 0.36262 0.42616 0.07672 0.0
C1751 C 0.45098 0.56944 0.02894 0.0
N1752 N 0.43036 0.56282 0.02066 0.0
C1753 C 0.46709 0.57807 0.00555 0.0
C1754 C 0.46197 0.57993 0.97352 0.0
C1755 C 0.4409 0.57317 0.96528 0.0
C1756 C 0.42521 0.56458 0.9893 0.0
C1757 C 0.40191 0.60263 0.02811 0.0
C1758 C 0.37542 0.55926 0.0365 0.0
C1759 C 0.41007 0.58953 0.03702 0.0
N1760 N 0.39687 0.56812 0.04092 0.0
C1761 C 0.3667 0.57186 0.02758 0.0
C1762 C 0.38007 0.59369 0.02335 0.0
C1763 C 0.37401 0.51748 0.09553 0.0
C1764 C 0.44328 0.517 0.15039 0.0
C1765 C 0.40001 0.49273 0.13863 0.0
C1766 C 0.40765 0.49433 0.17027 0.0
C1767 C 0.42944 0.50657 0.17612 0.0
N1768 N 0.41369 0.503 0.1135 0.0
C1769 C 0.43507 0.51502 0.11905 0.0
Co1770 Co 0.14423 0.55011 0.55451 0.0
Co1771 Co 0.1004 0.50124 0.57054 0.0
O1772 O 0.11454 0.53234 0.56753 0.0
C1773 C 0.14147 0.57069 0.61539 0.0
O1774 O 0.12992 0.55174 0.62832 0.0
C1775 C 0.07207 0.50898 0.5283 0.0
O1776 O 0.08903 0.52162 0.51116 0.0
O1777 O 0.10949 0.49896 0.52567 0.0
O1778 O 0.14157 0.52839 0.52232 0.0
H1779 H 0.09429 0.42946 0.55837 0.0
H1780 H 0.11569 0.56831 0.55451 0.0
O1781 O 0.14803 0.57265 0.58622 0.0
H1782 H 0.14071 0.57476 0.44137 0.0
H1783 H 0.21002 0.61923 0.52598 0.0
H1784 H 0.17962 0.54192 0.54081 0.0
H1785 H 0.15307 0.55936 0.48364 0.0
H1786 H 0.17238 0.59651 0.54154 0.0
O1787 O 0.07369 0.49921 0.55289 0.0
H1788 H 0.11234 0.46862 0.55512 0.0
H1789 H 0.05716 0.46772 0.59172 0.0
H1790 H 0.21729 0.56403 0.52498 0.0
H1791 H 0.10306 0.584 0.51305 0.0
H1792 H 0.23272 0.60298 0.51746 0.0
H1793 H 0.11553 0.58724 0.45599 0.0
O1794 O 0.15338 0.53672 0.58824 0.0
H1795 H 0.06925 0.52714 0.65608 0.0
H1796 H 0.10221 0.48312 0.63478 0.0
H1797 H 0.09184 0.48616 0.69076 0.0
H1798 H 0.07518 0.50826 0.70168 0.0
H1799 H 0.08007 0.52385 0.60052 0.0
H1800 H 0.03844 0.42853 0.59514 0.0
H1801 H 0.05707 0.40914 0.57851 0.0
O1802 O 0.12683 0.50264 0.58828 0.0
C1803 C 0.12743 0.51024 0.51176 0.0
C1804 C 0.08603 0.43772 0.56581 0.0
C1805 C 0.05468 0.4372 0.5864 0.0
N1806 N 0.08588 0.47045 0.57352 0.0
C1807 C 0.09619 0.4599 0.56412 0.0
C1808 C 0.06534 0.45939 0.58436 0.0
C1809 C 0.06514 0.42634 0.57707 0.0
C1810 C 0.12135 0.56986 0.52979 0.0
N1811 N 0.13516 0.563 0.52154 0.0
C1812 C 0.11407 0.57868 0.5064 0.0
C1813 C 0.12105 0.58046 0.47438 0.0
C1814 C 0.13516 0.57344 0.46615 0.0
C1815 C 0.14207 0.56468 0.49018 0.0
C1816 C 0.20347 0.60227 0.52913 0.0
C1817 C 0.18619 0.55884 0.53742 0.0
C1818 C 0.18218 0.58933 0.538 0.0
N1819 N 0.17377 0.56789 0.54186 0.0
C1820 C 0.20754 0.57129 0.52853 0.0
C1821 C 0.2162 0.59314 0.52434 0.0
C1822 C 0.14559 0.51719 0.59607 0.0
C1823 C 0.07643 0.51741 0.65161 0.0
C1824 C 0.09506 0.49285 0.63935 0.0
C1825 C 0.08916 0.49445 0.67109 0.0
C1826 C 0.0798 0.50684 0.67719 0.0
N1827 N 0.09168 0.50324 0.61438 0.0
C1828 C 0.08251 0.51541 0.62018 0.0
Co1829 Co 0.45191 0.59476 0.5537 0.0
Co1830 Co 0.50092 0.59995 0.56943 0.0
O1831 O 0.4698 0.58303 0.56693 0.0
C1832 C 0.43189 0.57223 0.61539 0.0
O1833 O 0.45092 0.57951 0.62793 0.0
C1834 C 0.49275 0.56371 0.52731 0.0
O1835 O 0.48003 0.56808 0.51049 0.0
O1836 O 0.503 0.61119 0.52449 0.0
O1837 O 0.47325 0.61323 0.52071 0.0
H1838 H 0.57268 0.66551 0.55637 0.0
H1839 H 0.43377 0.54804 0.55547 0.0
O1840 O 0.42971 0.57659 0.5862 0.0
H1841 H 0.42594 0.56465 0.44181 0.0
H1842 H 0.38255 0.59107 0.52581 0.0
H1843 H 0.46 0.63812 0.53837 0.0
H1844 H 0.44177 0.59312 0.48297 0.0
H1845 H 0.40538 0.57636 0.54177 0.0
O1846 O 0.50276 0.57515 0.55174 0.0
H1847 H 0.53351 0.64445 0.5536 0.0
H1848 H 0.53449 0.59019 0.59011 0.0
H1849 H 0.43778 0.65347 0.52209 0.0
H1850 H 0.41768 0.51902 0.51517 0.0
H1851 H 0.39876 0.62988 0.51572 0.0
H1852 H 0.41375 0.52727 0.45784 0.0
O1853 O 0.46567 0.61785 0.58655 0.0
H1854 H 0.47544 0.54318 0.65539 0.0
H1855 H 0.51942 0.62009 0.63339 0.0
H1856 H 0.51667 0.60686 0.68943 0.0
H1857 H 0.4946 0.56815 0.7007 0.0
H1858 H 0.47844 0.55711 0.59976 0.0
H1859 H 0.57369 0.61061 0.59303 0.0
H1860 H 0.59304 0.64859 0.57621 0.0
O1861 O 0.49965 0.62505 0.58714 0.0
C1862 C 0.49145 0.61738 0.51022 0.0
C1863 C 0.56443 0.649 0.56389 0.0
C1864 C 0.565 0.61818 0.58442 0.0
N1865 N 0.53172 0.61618 0.57197 0.0
C1866 C 0.54225 0.63702 0.56247 0.0
C1867 C 0.5428 0.60669 0.58266 0.0
C1868 C 0.57584 0.63949 0.57498 0.0
C1869 C 0.43192 0.55172 0.53064 0.0
N1870 N 0.43864 0.57224 0.52161 0.0
C1871 C 0.42288 0.53524 0.5079 0.0
C1872 C 0.42071 0.53988 0.47573 0.0
C1873 C 0.42757 0.56085 0.46672 0.0
C1874 C 0.43657 0.57692 0.49011 0.0
C1875 C 0.39954 0.60151 0.52846 0.0
C1876 C 0.44305 0.62773 0.53548 0.0
C1877 C 0.41254 0.59328 0.53756 0.0
N1878 N 0.43403 0.60635 0.54078 0.0
C1879 C 0.43054 0.63652 0.52633 0.0
C1880 C 0.40864 0.62328 0.52279 0.0
C1881 C 0.48518 0.62947 0.59453 0.0
C1882 C 0.48516 0.56008 0.65077 0.0
C1883 C 0.5097 0.60323 0.63812 0.0
C1884 C 0.50826 0.59583 0.66989 0.0
C1885 C 0.49589 0.5741 0.67619 0.0
N1886 N 0.49915 0.58937 0.6133 0.0
C1887 C 0.487 0.56805 0.61929 0.0
Co1888 Co 0.40618 0.85732 0.55339 0.0
Co1889 Co 0.40184 0.90154 0.56924 0.0
O1890 O 0.41854 0.88712 0.56616 0.0
C1891 C 0.42998 0.85995 0.6137 0.0
O1892 O 0.42297 0.87175 0.62694 0.0
C1893 C 0.43822 0.92993 0.52724 0.0
O1894 O 0.43388 0.91304 0.50988 0.0
O1895 O 0.3905 0.89255 0.52431 0.0
O1896 O 0.38694 0.86007 0.52168 0.0
H1897 H 0.3366 0.90836 0.55701 0.0
H1898 H 0.45297 0.8854 0.55224 0.0
O1899 O 0.42505 0.85338 0.5846 0.0
H1900 H 0.43302 0.8599 0.43957 0.0
H1901 H 0.40832 0.79092 0.52474 0.0
H1902 H 0.36228 0.82218 0.54084 0.0
H1903 H 0.40571 0.84808 0.48251 0.0
H1904 H 0.4238 0.82869 0.5399 0.0
O1905 O 0.42672 0.92821 0.55175 0.0
H1906 H 0.35742 0.89001 0.55374 0.0
H1907 H 0.41193 0.94487 0.59057 0.0
H1908 H 0.34616 0.78437 0.52543 0.0
H1909 H 0.48084 0.89749 0.51011 0.0
H1910 H 0.36924 0.76851 0.51728 0.0
H1911 H 0.47091 0.88477 0.45328 0.0
O1912 O 0.38405 0.84859 0.58769 0.0
H1913 H 0.45881 0.9321 0.65491 0.0
H1914 H 0.38194 0.89988 0.63346 0.0
H1915 H 0.39533 0.9101 0.68947 0.0
H1916 H 0.43403 0.92639 0.70047 0.0
H1917 H 0.44472 0.92143 0.59932 0.0
H1918 H 0.39175 0.96388 0.594 0.0
H1919 H 0.35378 0.94557 0.57727 0.0
O1920 O 0.37662 0.87519 0.58696 0.0
C1921 C 0.38332 0.87441 0.51082 0.0
C1922 C 0.35311 0.91648 0.56449 0.0
C1923 C 0.38408 0.94766 0.58521 0.0
N1924 N 0.3858 0.91629 0.57223 0.0
C1925 C 0.36496 0.90615 0.56279 0.0
C1926 C 0.39543 0.93683 0.58315 0.0
C1927 C 0.36277 0.93737 0.57582 0.0
C1928 C 0.44857 0.87964 0.52763 0.0
N1929 N 0.42776 0.866 0.51987 0.0
C1930 C 0.4644 0.88661 0.50385 0.0
C1931 C 0.45881 0.87949 0.47196 0.0
C1932 C 0.43755 0.86555 0.46425 0.0
C1933 C 0.42215 0.85896 0.48865 0.0
C1934 C 0.3981 0.79766 0.52817 0.0
C1935 C 0.37244 0.81542 0.53717 0.0
C1936 C 0.40677 0.81903 0.53682 0.0
N1937 N 0.39397 0.82767 0.54103 0.0
C1938 C 0.36321 0.79399 0.52852 0.0
C1939 C 0.37617 0.78509 0.52398 0.0
C1940 C 0.37238 0.8565 0.59526 0.0
C1941 C 0.44192 0.92508 0.65041 0.0
C1942 C 0.39879 0.90686 0.63806 0.0
C1943 C 0.40629 0.91268 0.66982 0.0
C1944 C 0.42801 0.92183 0.67597 0.0
N1945 N 0.41254 0.91012 0.61312 0.0
C1946 C 0.43386 0.91909 0.61896 0.0
Co1947 Co 0.21877 0.47802 0.27917 0.0
Co1948 Co 0.1697 0.43447 0.26285 0.0
O1949 O 0.20078 0.44841 0.26589 0.0
C1950 C 0.23906 0.47532 0.21797 0.0
O1951 O 0.22006 0.46391 0.20514 0.0
C1952 C 0.17723 0.40603 0.30514 0.0
O1953 O 0.18991 0.423 0.32222 0.0
O1954 O 0.16744 0.4436 0.30771 0.0
O1955 O 0.1972 0.47539 0.31161 0.0
H1956 H 0.09818 0.42894 0.27465 0.0
H1957 H 0.23657 0.44914 0.2784 0.0
O1958 O 0.24115 0.48178 0.24721 0.0
H1959 H 0.24349 0.47366 0.39189 0.0
H1960 H 0.28822 0.54334 0.30792 0.0
H1961 H 0.21097 0.51357 0.29369 0.0
H1962 H 0.22824 0.48649 0.35006 0.0
H1963 H 0.26523 0.50581 0.29195 0.0
O1964 O 0.16747 0.40765 0.28055 0.0
H1965 H 0.13731 0.44674 0.27807 0.0
H1966 H 0.13601 0.39131 0.24167 0.0
H1967 H 0.23334 0.55113 0.30995 0.0
H1968 H 0.25208 0.43603 0.3194 0.0
H1969 H 0.27227 0.56625 0.31716 0.0
H1970 H 0.25555 0.44826 0.37664 0.0
O1971 O 0.20547 0.48751 0.24579 0.0
H1972 H 0.19537 0.40303 0.17742 0.0
H1973 H 0.15176 0.43645 0.19855 0.0
H1974 H 0.15478 0.42604 0.14259 0.0
H1975 H 0.17668 0.40916 0.13175 0.0
H1976 H 0.19209 0.41388 0.23296 0.0
H1977 H 0.09684 0.37285 0.23809 0.0
H1978 H 0.07767 0.39173 0.25453 0.0
O1979 O 0.17137 0.46101 0.24507 0.0
C1980 C 0.17892 0.46138 0.32193 0.0
C1981 C 0.10635 0.42058 0.2673 0.0
C1982 C 0.10559 0.38908 0.24682 0.0
N1983 N 0.13893 0.42014 0.25979 0.0
C1984 C 0.12851 0.43059 0.26908 0.0
C1985 C 0.12777 0.3996 0.24895 0.0
C1986 C 0.09485 0.39969 0.25604 0.0
C1987 C 0.23823 0.45469 0.30319 0.0
N1988 N 0.23158 0.46862 0.31179 0.0
C1989 C 0.24694 0.44715 0.32633 0.0
C1990 C 0.24885 0.45398 0.35845 0.0
C1991 C 0.24206 0.46822 0.36703 0.0
C1992 C 0.23339 0.47539 0.34325 0.0
C1993 C 0.27127 0.53693 0.30491 0.0
C1994 C 0.22788 0.52 0.29695 0.0
C1995 C 0.25818 0.5157 0.2958 0.0
N1996 N 0.23676 0.50747 0.29211 0.0
C1997 C 0.24047 0.5413 0.30608 0.0
C1998 C 0.26231 0.54977 0.3101 0.0
C1999 C 0.18602 0.47981 0.23764 0.0
C2000 C 0.18573 0.41031 0.18185 0.0
C2001 C 0.16139 0.42919 0.19402 0.0
C2002 C 0.163 0.42328 0.16229 0.0
C2003 C 0.17527 0.41379 0.15623 0.0
N2004 N 0.17168 0.4257 0.21903 0.0
C2005 C 0.18374 0.4164 0.21327 0.0
Co2006 Co 0.52516 0.74033 0.2774 0.0
Co2007 Co 0.56918 0.73565 0.2611 0.0
O2008 O 0.55488 0.75244 0.26454 0.0
C2009 C 0.52799 0.76393 0.21685 0.0
O2010 O 0.53961 0.75663 0.20386 0.0
C2011 C 0.59698 0.77127 0.30434 0.0
O2012 O 0.57982 0.76654 0.32126 0.0
O2013 O 0.55989 0.72377 0.30567 0.0
O2014 O 0.52782 0.72113 0.30927 0.0
H2015 H 0.57569 0.67013 0.27159 0.0
H2016 H 0.55353 0.7871 0.27814 0.0
O2017 O 0.52136 0.7592 0.24597 0.0
H2018 H 0.52825 0.76768 0.39101 0.0
H2019 H 0.4591 0.74313 0.30598 0.0
H2020 H 0.48985 0.69659 0.2904 0.0
H2021 H 0.5161 0.74021 0.34828 0.0
H2022 H 0.49682 0.75831 0.29069 0.0
O2023 O 0.59569 0.76025 0.27944 0.0
H2024 H 0.55741 0.691 0.27536 0.0
H2025 H 0.61261 0.74588 0.24021 0.0
H2026 H 0.4521 0.68075 0.30594 0.0
H2027 H 0.56596 0.81513 0.32006 0.0
H2028 H 0.4365 0.70409 0.31384 0.0
H2029 H 0.55336 0.80546 0.37699 0.0
O2030 O 0.5162 0.71804 0.24335 0.0
H2031 H 0.60053 0.79367 0.17706 0.0
H2032 H 0.56784 0.7165 0.19636 0.0
H2033 H 0.57846 0.73055 0.14073 0.0
H2034 H 0.59497 0.76941 0.13082 0.0
H2035 H 0.58947 0.77892 0.23225 0.0
H2036 H 0.63155 0.72565 0.23629 0.0
H2037 H 0.61304 0.68747 0.25192 0.0
O2038 O 0.5429 0.71073 0.24273 0.0
C2039 C 0.54195 0.71703 0.3196 0.0
C2040 C 0.5839 0.68673 0.26458 0.0
C2041 C 0.61526 0.7179 0.24481 0.0
N2042 N 0.58386 0.71957 0.25771 0.0
C2043 C 0.57361 0.69861 0.26657 0.0
C2044 C 0.60447 0.72929 0.24714 0.0
C2045 C 0.60486 0.69648 0.25358 0.0
C2046 C 0.54781 0.78281 0.30279 0.0
N2047 N 0.53404 0.76206 0.31072 0.0
C2048 C 0.55498 0.79873 0.32645 0.0
C2049 C 0.54792 0.79329 0.3584 0.0
C2050 C 0.53385 0.77209 0.36629 0.0
C2051 C 0.52706 0.75659 0.342 0.0
C2052 C 0.46573 0.7328 0.30267 0.0
C2053 C 0.4832 0.70686 0.29396 0.0
C2054 C 0.48706 0.7413 0.29395 0.0
N2055 N 0.49557 0.72836 0.28988 0.0
C2056 C 0.46181 0.69779 0.30269 0.0
C2057 C 0.45306 0.71089 0.30709 0.0
C2058 C 0.52411 0.70648 0.23508 0.0
C2059 C 0.5934 0.77672 0.18109 0.0
C2060 C 0.57493 0.73341 0.19222 0.0
C2061 C 0.58097 0.74129 0.16069 0.0
C2062 C 0.59025 0.76309 0.15515 0.0
N2063 N 0.5781 0.74689 0.21755 0.0
C2064 C 0.5872 0.76828 0.21231 0.0
Co2065 Co 0.26021 0.78521 0.27617 0.0
Co2066 Co 0.2672 0.83496 0.26085 0.0
O2067 O 0.2497 0.80397 0.26256 0.0
C2068 C 0.24242 0.76438 0.21191 0.0
O2069 O 0.25697 0.78138 0.19674 0.0
C2070 C 0.23112 0.82712 0.30274 0.0
O2071 O 0.23539 0.81423 0.31929 0.0
O2072 O 0.27802 0.83634 0.30587 0.0
O2073 O 0.27871 0.80585 0.31003 0.0
H2074 H 0.33366 0.9058 0.27576 0.0
H2075 H 0.21372 0.76875 0.27276 0.0
O2076 O 0.24149 0.76376 0.24284 0.0
H2077 H 0.22791 0.7588 0.38677 0.0
H2078 H 0.25278 0.714 0.30239 0.0
H2079 H 0.30255 0.79121 0.29349 0.0
H2080 H 0.25705 0.77418 0.34665 0.0
H2081 H 0.23986 0.73832 0.2863 0.0
O2082 O 0.24259 0.83723 0.27838 0.0
H2083 H 0.31185 0.86664 0.27759 0.0
H2084 H 0.2586 0.86941 0.24083 0.0
H2085 H 0.31611 0.76748 0.30992 0.0
H2086 H 0.18407 0.75313 0.31203 0.0
H2087 H 0.29114 0.72857 0.31446 0.0
H2088 H 0.1911 0.74814 0.36953 0.0
O2089 O 0.28425 0.79889 0.24472 0.0
H2090 H 0.21139 0.81096 0.1736 0.0
H2091 H 0.2881 0.85404 0.19758 0.0
H2092 H 0.27552 0.8521 0.1413 0.0
H2093 H 0.2369 0.83048 0.12903 0.0
H2094 H 0.22468 0.81321 0.2295 0.0
H2095 H 0.27978 0.90862 0.23884 0.0
H2096 H 0.31762 0.92706 0.25627 0.0
O2097 O 0.29199 0.83308 0.24343 0.0
C2098 C 0.28345 0.82427 0.32042 0.0
C2099 C 0.31721 0.89795 0.26798 0.0
C2100 C 0.28696 0.89953 0.24731 0.0
N2101 N 0.28404 0.86576 0.25902 0.0
C2102 C 0.30481 0.87578 0.26885 0.0
C2103 C 0.27504 0.87734 0.24854 0.0
C2104 C 0.3082 0.90987 0.25708 0.0
C2105 C 0.21687 0.76642 0.29766 0.0
N2106 N 0.23708 0.77229 0.30736 0.0
C2107 C 0.20003 0.75765 0.31982 0.0
C2108 C 0.20399 0.75489 0.35209 0.0
C2109 C 0.22464 0.76088 0.36178 0.0
C2110 C 0.24109 0.76963 0.33897 0.0
C2111 C 0.26381 0.73093 0.30055 0.0
C2112 C 0.29157 0.77431 0.29558 0.0
C2113 C 0.2566 0.74477 0.29138 0.0
N2114 N 0.27042 0.76618 0.28918 0.0
C2115 C 0.29934 0.76094 0.30482 0.0
C2116 C 0.28533 0.73911 0.30733 0.0
C2117 C 0.29621 0.81838 0.23672 0.0
C2118 C 0.22825 0.82048 0.17865 0.0
C2119 C 0.27127 0.84455 0.19242 0.0
C2120 C 0.26424 0.84355 0.16051 0.0
C2121 C 0.24257 0.83142 0.15365 0.0
N2122 N 0.25711 0.83385 0.21682 0.0
C2123 C 0.23586 0.82187 0.21027 0.0
H2124 H 0.21471 0.09355 0.99499 0.0
H2125 H 0.12577 0.97264 0.96443 0.0
H2126 H 0.16127 0.05889 0.05942 0.0
H2127 H 0.19068 0.99788 0.93244 0.0
H2128 H 0.1365 0.0061 0.99309 0.0
H2129 H 0.20405 0.06034 0.96506 0.0
C2130 C 0.20071 0.07901 0.00271 0.0
C2131 C 0.1889 0.07894 0.02977 0.0
C2132 C 0.14837 0.00425 0.97982 0.0
C2133 C 0.17656 0.04117 0.99562 0.0
C2134 C 0.14226 0.9852 0.96342 0.0
C2135 C 0.15736 0.9824 0.94613 0.0
C2136 C 0.16964 0.02079 0.97842 0.0
C2137 C 0.17854 0.99926 0.94567 0.0
C2138 C 0.19471 0.0601 0.98577 0.0
C2139 C 0.17093 0.05964 0.03884 0.0
N2140 N 0.18402 0.0178 0.96139 0.0
N2141 N 0.16524 0.04158 0.0217 0.0
H2142 H 0.94469 0.10308 0.06295 0.0
H2143 H 0.00528 0.19556 0.93408 0.0
H2144 H 0.91078 0.12257 0.9982 0.0
H2145 H 0.02962 0.15508 0.9659 0.0
H2146 H 0.97199 0.17256 0.9629 0.0
H2147 H 0.97744 0.12561 0.03293 0.0
C2148 C 0.94414 0.11214 0.04241 0.0
C2149 C 0.92497 0.11097 0.03304 0.0
C2150 C 0.98463 0.16875 0.96349 0.0
C2151 C 0.96251 0.13696 0.99881 0.0
C2152 C 0.0037 0.18192 0.94726 0.0
C2153 C 0.02031 0.17726 0.94761 0.0
C2154 C 0.9823 0.15102 0.98071 0.0
C2155 C 0.01725 0.15926 0.96492 0.0
C2156 C 0.96283 0.12491 0.02523 0.0
C2157 C 0.9252 0.12296 0.00611 0.0
N2158 N 0.99867 0.14689 0.98097 0.0
N2159 N 0.94375 0.13564 0.99007 0.0
H2160 H 0.80687 0.81064 0.93413 0.0
H2161 H 0.90013 0.84253 0.06147 0.0
H2162 H 0.84798 0.87555 0.96506 0.0
H2163 H 0.87948 0.78846 0.99774 0.0
H2164 H 0.87769 0.85291 0.03155 0.0
H2165 H 0.82987 0.80023 0.96262 0.0
C2166 C 0.82066 0.8227 0.94703 0.0
C2167 C 0.82548 0.84403 0.94724 0.0
C2168 C 0.87812 0.83882 0.02404 0.0
C2169 C 0.85173 0.83213 0.97997 0.0
C2170 C 0.89084 0.83281 0.04117 0.0
C2171 C 0.89164 0.81457 0.03206 0.0
C2172 C 0.86578 0.82631 0.99795 0.0
C2173 C 0.87937 0.80267 0.00544 0.0
C2174 C 0.83383 0.81674 0.96307 0.0
C2175 C 0.84366 0.85895 0.9642 0.0
N2176 N 0.86676 0.80865 0.98944 0.0
N2177 N 0.85604 0.85269 0.98008 0.0
H2178 H 0.99797 0.19182 0.56409 0.0
H2179 H 0.05822 0.15925 0.43586 0.0
H2180 H 0.97391 0.12665 0.53433 0.0
H2181 H 0.09239 0.21311 0.49973 0.0
H2182 H 0.02565 0.14905 0.4664 0.0
H2183 H 0.03121 0.20195 0.53521 0.0
C2184 C 0.99961 0.17965 0.55137 0.0
C2185 C 0.98309 0.15833 0.55159 0.0
C2186 C 0.04028 0.16305 0.4738 0.0
C2187 C 0.02101 0.16991 0.51839 0.0
C2188 C 0.05886 0.16896 0.45632 0.0
C2189 C 0.07804 0.18708 0.46529 0.0
C2190 C 0.04072 0.17557 0.50008 0.0
C2191 C 0.07795 0.19898 0.49212 0.0
C2192 C 0.01864 0.18544 0.5351 0.0
C2193 C 0.98621 0.14324 0.53486 0.0
N2194 N 0.05949 0.19312 0.50844 0.0
N2195 N 0.00474 0.14935 0.51872 0.0
H2196 H 0.78853 0.88112 0.50298 0.0
H2197 H 0.87693 0.8486 0.53452 0.0
H2198 H 0.84219 0.89984 0.43906 0.0
H2199 H 0.81171 0.80875 0.56502 0.0
H2200 H 0.86652 0.87162 0.50598 0.0
H2201 H 0.79894 0.85842 0.53301 0.0
C2202 C 0.80253 0.88055 0.49541 0.0
C2203 C 0.81447 0.89229 0.46845 0.0
C2204 C 0.85452 0.8578 0.5189 0.0
C2205 C 0.82652 0.8667 0.50272 0.0
C2206 C 0.86044 0.84469 0.53523 0.0
C2207 C 0.84515 0.82666 0.55205 0.0
C2208 C 0.83326 0.8531 0.51992 0.0
C2209 C 0.82399 0.82238 0.55215 0.0
C2210 C 0.80838 0.86754 0.5124 0.0
C2211 C 0.83244 0.89092 0.45956 0.0
N2212 N 0.81869 0.83559 0.53651 0.0
N2213 N 0.83799 0.87847 0.47675 0.0
H2214 H 0.12112 0.90845 0.50198 0.0
H2215 H 0.15338 0.02929 0.53379 0.0
H2216 H 0.10177 0.94317 0.43869 0.0
H2217 H 0.19367 0.00419 0.5631 0.0
H2218 H 0.13021 0.99579 0.50554 0.0
H2219 H 0.14387 0.94162 0.53189 0.0
C2220 C 0.12156 0.92299 0.49454 0.0
C2221 C 0.10965 0.92312 0.46778 0.0
C2222 C 0.14416 0.99768 0.51814 0.0
C2223 C 0.13528 0.96081 0.50188 0.0
C2224 C 0.15736 0.01676 0.53429 0.0
C2225 C 0.17556 0.0196 0.55069 0.0
C2226 C 0.14895 0.98117 0.51892 0.0
C2227 C 0.17991 0.00277 0.55054 0.0
C2228 C 0.13459 0.94187 0.51145 0.0
C2229 C 0.11084 0.9424 0.45904 0.0
N2230 N 0.16662 0.98421 0.53509 0.0
N2231 N 0.12333 0.96043 0.47614 0.0
H2232 H 0.87725 0.02979 0.03475 0.0
H2233 H 0.78843 0.909 0.00278 0.0
H2234 H 0.81211 0.0045 0.0656 0.0
H2235 H 0.84238 0.94384 0.93932 0.0
H2236 H 0.79894 0.9421 0.03293 0.0
H2237 H 0.86672 0.99639 0.00605 0.0
C2238 C 0.86075 0.01723 0.0355 0.0
C2239 C 0.84553 0.02 0.05247 0.0
C2240 C 0.80842 0.9424 0.01239 0.0
C2241 C 0.83348 0.98167 0.02015 0.0
C2242 C 0.80251 0.92356 0.99533 0.0
C2243 C 0.81451 0.92372 0.96846 0.0
C2244 C 0.82667 0.96136 0.00287 0.0
C2245 C 0.83258 0.94303 0.95973 0.0
C2246 C 0.85475 0.99821 0.01909 0.0
C2247 C 0.82435 0.00314 0.05262 0.0
N2248 N 0.83817 0.96102 0.97698 0.0
N2249 N 0.81897 0.98464 0.03688 0.0
H2250 H 0.99732 0.80657 0.06438 0.0
H2251 H 0.05802 0.89948 0.9362 0.0
H2252 H 0.97312 0.84728 0.03314 0.0
H2253 H 0.09186 0.87955 0.00032 0.0
H2254 H 0.02528 0.87692 0.96622 0.0
H2255 H 0.03062 0.8296 0.03561 0.0
C2256 C 0.99894 0.82027 0.05134 0.0
C2257 C 0.98236 0.82498 0.05114 0.0
C2258 C 0.03988 0.87754 0.97379 0.0
C2259 C 0.02038 0.85126 0.01811 0.0
C2260 C 0.05856 0.89032 0.9566 0.0
C2261 C 0.0777 0.89137 0.9658 0.0
C2262 C 0.04018 0.86536 2e-05 0.0
C2263 C 0.07746 0.87926 0.99255 0.0
C2264 C 0.018 0.83346 0.03514 0.0
C2265 C 0.98546 0.84305 0.03401 0.0
N2266 N 0.05891 0.86656 0.0086 0.0
N2267 N 0.00404 0.85545 0.01798 0.0
H2268 H 0.10264 0.15972 0.93709 0.0
H2269 H 0.19665 0.1922 0.06322 0.0
H2270 H 0.12358 0.21401 0.00045 0.0
H2271 H 0.15543 0.12715 0.03298 0.0
H2272 H 0.17345 0.20245 0.03497 0.0
H2273 H 0.12527 0.14948 0.96676 0.0
C2274 C 0.11203 0.16952 0.95726 0.0
C2275 C 0.11125 0.18777 0.96633 0.0
C2276 C 0.16952 0.18595 0.0346 0.0
C2277 C 0.13735 0.1762 0.00016 0.0
C2278 C 0.1828 0.18008 0.05051 0.0
C2279 C 0.178 0.15875 0.05044 0.0
C2280 C 0.15152 0.17048 0.01798 0.0
C2281 C 0.15974 0.14375 0.03373 0.0
C2282 C 0.12486 0.16359 0.97425 0.0
C2283 C 0.12366 0.19977 0.99278 0.0
N2284 N 0.14725 0.14993 0.01798 0.0
N2285 N 0.13639 0.19388 0.00863 0.0
H2286 H 0.94404 0.84298 0.56168 0.0
H2287 H 0.00474 0.81023 0.43456 0.0
H2288 H 0.9101 0.7891 0.49777 0.0
H2289 H 0.02869 0.87545 0.46392 0.0
H2290 H 0.97142 0.80014 0.46317 0.0
H2291 H 0.97674 0.85312 0.5315 0.0
C2292 C 0.94347 0.83325 0.54128 0.0
C2293 C 0.92432 0.81514 0.53219 0.0
C2294 C 0.98399 0.81664 0.46325 0.0
C2295 C 0.96178 0.82659 0.49783 0.0
C2296 C 0.00306 0.82242 0.44715 0.0
C2297 C 0.01957 0.84374 0.44688 0.0
C2298 C 0.98155 0.83221 0.47975 0.0
C2299 C 0.01639 0.85885 0.46343 0.0
C2300 C 0.96212 0.83913 0.52401 0.0
C2301 C 0.92451 0.80322 0.50545 0.0
N2302 N 0.99782 0.85277 0.47941 0.0
N2303 N 0.94303 0.80904 0.48935 0.0
H2304 H 0.12527 0.1538 0.46338 0.0
H2305 H 0.21322 0.12074 0.49502 0.0
H2306 H 0.19035 0.19308 0.43188 0.0
H2307 H 0.16014 0.10307 0.55975 0.0
H2308 H 0.20287 0.14339 0.46471 0.0
H2309 H 0.13566 0.13092 0.49238 0.0
C2310 C 0.14172 0.15761 0.46254 0.0
C2311 C 0.15698 0.17544 0.44531 0.0
C2312 C 0.19354 0.13451 0.48557 0.0
C2313 C 0.16885 0.14915 0.47796 0.0
C2314 C 0.19936 0.12154 0.50272 0.0
C2315 C 0.18757 0.1101 0.52997 0.0
C2316 C 0.17557 0.13563 0.49539 0.0
C2317 C 0.16978 0.11175 0.53902 0.0
C2318 C 0.14764 0.14458 0.47913 0.0
C2319 C 0.1781 0.1796 0.44507 0.0
N2320 N 0.16425 0.12416 0.52167 0.0
N2321 N 0.18339 0.16646 0.46097 0.0
H2322 H 0.9013 0.05887 0.56072 0.0
H2323 H 0.80705 0.99766 0.43502 0.0
H2324 H 0.88061 0.09246 0.49745 0.0
H2325 H 0.84836 0.97372 0.46422 0.0
H2326 H 0.83047 0.0311 0.46318 0.0
H2327 H 0.87868 0.02608 0.53079 0.0
C2328 C 0.89198 0.05934 0.5405 0.0
C2329 C 0.8928 0.07841 0.53153 0.0
C2330 C 0.83438 0.01851 0.46332 0.0
C2331 C 0.86671 0.04085 0.49747 0.0
C2332 C 0.82097 0.99936 0.44748 0.0
C2333 C 0.82573 0.98281 0.4473 0.0
C2334 C 0.85245 0.02099 0.47964 0.0
C2335 C 0.84408 0.98604 0.46367 0.0
C2336 C 0.87916 0.04063 0.52338 0.0
C2337 C 0.88048 0.07811 0.50503 0.0
N2338 N 0.85669 0.00469 0.47939 0.0
N2339 N 0.86775 0.05953 0.48908 0.0
H2340 H 0.79269 0.30597 0.29689 0.0
H2341 H 0.88071 0.42702 0.32847 0.0
H2342 H 0.85763 0.33188 0.26462 0.0
H2343 H 0.82771 0.3915 0.3933 0.0
H2344 H 0.87034 0.39405 0.29804 0.0
H2345 H 0.80318 0.33922 0.32604 0.0
C2346 C 0.80914 0.31863 0.29592 0.0
C2347 C 0.82432 0.31609 0.27842 0.0
C2348 C 0.86104 0.39357 0.31895 0.0
C2349 C 0.83632 0.35423 0.31126 0.0
C2350 C 0.86687 0.41234 0.33617 0.0
C2351 C 0.8551 0.41195 0.36349 0.0
C2352 C 0.84308 0.37446 0.32877 0.0
C2353 C 0.83733 0.39249 0.37253 0.0
C2354 C 0.81511 0.33756 0.3126 0.0
C2355 C 0.84543 0.33307 0.27801 0.0
N2356 N 0.8318 0.37457 0.35512 0.0
N2357 N 0.85078 0.35149 0.29401 0.0
H2358 H 0.57523 0.45459 0.32995 0.0
H2359 H 0.69604 0.48695 0.29764 0.0
H2360 H 0.61016 0.43538 0.39301 0.0
H2361 H 0.67084 0.52712 0.26811 0.0
H2362 H 0.66259 0.46382 0.32602 0.0
H2363 H 0.60831 0.47736 0.29987 0.0
C2364 C 0.5898 0.45507 0.33731 0.0
C2365 C 0.59 0.44318 0.36406 0.0
C2366 C 0.66445 0.47773 0.31334 0.0
C2367 C 0.6276 0.46884 0.32974 0.0
C2368 C 0.68349 0.49091 0.29711 0.0
C2369 C 0.6863 0.50907 0.28061 0.0
C2370 C 0.64792 0.48249 0.31256 0.0
C2371 C 0.66945 0.51339 0.28073 0.0
C2372 C 0.60863 0.46811 0.3203 0.0
C2373 C 0.60932 0.44442 0.37269 0.0
N2374 N 0.65092 0.50012 0.29628 0.0
N2375 N 0.6273 0.45692 0.35548 0.0
H2376 H 0.54795 0.12074 0.33026 0.0
H2377 H 0.51588 0.20945 0.29834 0.0
H2378 H 0.56714 0.17475 0.39363 0.0
H2379 H 0.47567 0.14417 0.26839 0.0
H2380 H 0.53886 0.19898 0.32681 0.0
H2381 H 0.5252 0.13114 0.3003 0.0
C2382 C 0.54745 0.13481 0.33774 0.0
C2383 C 0.55935 0.14685 0.36452 0.0
C2384 C 0.52497 0.18697 0.31402 0.0
C2385 C 0.53372 0.1589 0.33033 0.0
C2386 C 0.51188 0.19293 0.29773 0.0
C2387 C 0.49375 0.17765 0.2811 0.0
C2388 C 0.52015 0.16566 0.31315 0.0
C2389 C 0.48937 0.15645 0.28113 0.0
C2390 C 0.53443 0.14066 0.32079 0.0
C2391 C 0.5581 0.16491 0.37328 0.0
N2392 N 0.50256 0.1511 0.29673 0.0
N2393 N 0.54562 0.17045 0.35613 0.0
H2394 H 0.63911 0.45839 0.8656 0.0
H2395 H 0.76015 0.54648 0.83483 0.0
H2396 H 0.66494 0.52324 0.89836 0.0
H2397 H 0.72475 0.49401 0.76907 0.0
H2398 H 0.72711 0.53597 0.86512 0.0
H2399 H 0.67236 0.46902 0.83637 0.0
C2400 C 0.65175 0.47485 0.86666 0.0
C2401 C 0.64919 0.48996 0.88432 0.0
C2402 C 0.72667 0.52682 0.84404 0.0
C2403 C 0.68733 0.50211 0.85141 0.0
C2404 C 0.74548 0.53273 0.82689 0.0
C2405 C 0.74515 0.52115 0.79937 0.0
C2406 C 0.70758 0.50896 0.83394 0.0
C2407 C 0.7257 0.50348 0.79002 0.0
C2408 C 0.67068 0.48089 0.84993 0.0
C2409 C 0.66615 0.51109 0.88484 0.0
N2410 N 0.70773 0.49785 0.80738 0.0
N2411 N 0.68456 0.51651 0.86881 0.0
H2412 H 0.45431 0.21303 0.83517 0.0
H2413 H 0.54276 0.18057 0.86636 0.0
H2414 H 0.50781 0.23155 0.77097 0.0
H2415 H 0.47775 0.141 0.89803 0.0
H2416 H 0.53217 0.20333 0.83749 0.0
H2417 H 0.46468 0.19027 0.86511 0.0
C2418 C 0.46826 0.21238 0.8275 0.0
C2419 C 0.48018 0.22412 0.80051 0.0
C2420 C 0.52025 0.18962 0.85073 0.0
C2421 C 0.49219 0.19845 0.83469 0.0
C2422 C 0.52627 0.17666 0.86726 0.0
C2423 C 0.51111 0.1588 0.88453 0.0
C2424 C 0.499 0.18494 0.85197 0.0
C2425 C 0.48995 0.15452 0.88482 0.0
C2426 C 0.47409 0.19935 0.84444 0.0
C2427 C 0.49808 0.22266 0.7915 0.0
N2428 N 0.48454 0.16758 0.86897 0.0
N2429 N 0.50361 0.21017 0.80865 0.0
H2430 H 0.86798 0.35432 0.85625 0.0
H2431 H 0.75556 0.24822 0.84779 0.0
H2432 H 0.81334 0.34814 0.90779 0.0
H2433 H 0.79865 0.2707 0.7661 0.0
H2434 H 0.77892 0.28173 0.87634 0.0
H2435 H 0.84487 0.32063 0.8286 0.0
C2436 C 0.85114 0.34594 0.86172 0.0
C2437 C 0.84259 0.35419 0.88425 0.0
C2438 C 0.78322 0.27922 0.8522 0.0
C2439 C 0.81617 0.31537 0.85321 0.0
C2440 C 0.77003 0.26009 0.83603 0.0
C2441 C 0.77519 0.25672 0.80454 0.0
C2442 C 0.8019 0.29482 0.83703 0.0
C2443 C 0.79404 0.2727 0.79031 0.0
C2444 C 0.83797 0.32672 0.84591 0.0
C2445 C 0.8206 0.3425 0.89041 0.0
N2446 N 0.80678 0.29101 0.80673 0.0
N2447 N 0.80816 0.32358 0.87519 0.0
H2448 H 0.47757 0.33736 0.3989 0.0
H2449 H 0.51012 0.27676 0.27118 0.0
H2450 H 0.5426 0.36178 0.36813 0.0
H2451 H 0.45656 0.2428 0.33564 0.0
H2452 H 0.52028 0.30951 0.30123 0.0
H2453 H 0.46754 0.304 0.37046 0.0
C2454 C 0.48973 0.33577 0.38605 0.0
C2455 C 0.51099 0.35244 0.38587 0.0
C2456 C 0.50635 0.29488 0.30887 0.0
C2457 C 0.49951 0.31435 0.35318 0.0
C2458 C 0.50047 0.2762 0.29167 0.0
C2459 C 0.48244 0.25703 0.30095 0.0
C2460 C 0.4939 0.29455 0.33518 0.0
C2461 C 0.47062 0.25723 0.32781 0.0
C2462 C 0.48399 0.31667 0.37003 0.0
C2463 C 0.52606 0.34937 0.36898 0.0
N2464 N 0.47644 0.27578 0.34384 0.0
N2465 N 0.52 0.33076 0.3531 0.0
H2466 H 0.72479 0.23227 0.26718 0.0
H2467 H 0.66607 0.14114 0.39885 0.0
H2468 H 0.75967 0.21429 0.33251 0.0
H2469 H 0.64053 0.18034 0.36574 0.0
H2470 H 0.69906 0.16417 0.36934 0.0
H2471 H 0.69229 0.20969 0.29781 0.0
C2472 C 0.72561 0.22353 0.28796 0.0
C2473 C 0.74497 0.22515 0.29734 0.0
C2474 C 0.68622 0.16771 0.36863 0.0
C2475 C 0.70774 0.19912 0.33226 0.0
C2476 C 0.66733 0.15452 0.38526 0.0
C2477 C 0.65047 0.1588 0.38475 0.0
C2478 C 0.68813 0.18507 0.35082 0.0
C2479 C 0.65311 0.17646 0.36689 0.0
C2480 C 0.70706 0.21073 0.30549 0.0
C2481 C 0.74509 0.21355 0.32457 0.0
N2482 N 0.67153 0.18885 0.35044 0.0
N2483 N 0.72668 0.20085 0.34096 0.0
H2484 H 0.82076 0.45855 0.36698 0.0
H2485 H 0.78765 0.54665 0.33651 0.0
H2486 H 0.86013 0.52365 0.39842 0.0
H2487 H 0.76948 0.49341 0.27187 0.0
H2488 H 0.81033 0.53621 0.36652 0.0
H2489 H 0.79766 0.46891 0.33858 0.0
C2490 C 0.82454 0.475 0.36793 0.0
C2491 C 0.84247 0.49027 0.38496 0.0
C2492 C 0.80133 0.52686 0.34576 0.0
C2493 C 0.81594 0.50211 0.353 0.0
C2494 C 0.78834 0.53273 0.32878 0.0
C2495 C 0.77677 0.52093 0.30162 0.0
C2496 C 0.80233 0.50883 0.33586 0.0
C2497 C 0.77827 0.50306 0.29253 0.0
C2498 C 0.81139 0.4809 0.35169 0.0
C2499 C 0.84659 0.51138 0.38537 0.0
N2500 N 0.79071 0.49749 0.30971 0.0
N2501 N 0.83334 0.51666 0.36981 0.0
H2502 H 0.57514 0.12146 0.82896 0.0
H2503 H 0.6961 0.20998 0.79702 0.0
H2504 H 0.61011 0.17529 0.89259 0.0
H2505 H 0.67059 0.14465 0.76698 0.0
H2506 H 0.66257 0.19974 0.82518 0.0
H2507 H 0.60816 0.13204 0.79857 0.0
C2508 C 0.58971 0.13554 0.83638 0.0
C2509 C 0.58994 0.14746 0.86339 0.0
C2510 C 0.66437 0.18769 0.8124 0.0
C2511 C 0.62748 0.15971 0.8287 0.0
C2512 C 0.68346 0.19351 0.79628 0.0
C2513 C 0.68621 0.17813 0.77977 0.0
C2514 C 0.64778 0.16643 0.81146 0.0
C2515 C 0.66925 0.157 0.77963 0.0
C2516 C 0.60851 0.14149 0.81918 0.0
C2517 C 0.60925 0.16554 0.87208 0.0
N2518 N 0.65071 0.15179 0.79508 0.0
N2519 N 0.62721 0.17118 0.85469 0.0
H2520 H 0.87922 0.45365 0.82877 0.0
H2521 H 0.79142 0.48688 0.7962 0.0
H2522 H 0.82538 0.43509 0.89223 0.0
H2523 H 0.85686 0.52644 0.76651 0.0
H2524 H 0.80142 0.46353 0.82472 0.0
H2525 H 0.86894 0.47631 0.79837 0.0
C2526 C 0.86518 0.45422 0.83612 0.0
C2527 C 0.85317 0.44256 0.86308 0.0
C2528 C 0.81356 0.47736 0.81197 0.0
C2529 C 0.84129 0.46814 0.82843 0.0
C2530 C 0.80787 0.49065 0.79566 0.0
C2531 C 0.82334 0.50871 0.77908 0.0
C2532 C 0.83477 0.48189 0.81118 0.0
C2533 C 0.84444 0.5128 0.7792 0.0
C2534 C 0.85941 0.46721 0.81893 0.0
C2535 C 0.83517 0.44394 0.87171 0.0
N2536 N 0.84951 0.49942 0.79482 0.0
N2537 N 0.82971 0.45641 0.85435 0.0
H2538 H 0.56652 0.39067 0.89532 0.0
H2539 H 0.47295 0.32991 0.76829 0.0
H2540 H 0.54639 0.4245 0.83152 0.0
H2541 H 0.51385 0.30571 0.79849 0.0
H2542 H 0.49617 0.36323 0.79688 0.0
H2543 H 0.54381 0.3579 0.86544 0.0
C2544 C 0.55729 0.3912 0.87501 0.0
C2545 C 0.55832 0.41034 0.86586 0.0
C2546 C 0.50003 0.35061 0.79717 0.0
C2547 C 0.53214 0.3728 0.83183 0.0
C2548 C 0.48673 0.33153 0.78107 0.0
C2549 C 0.49145 0.31495 0.78103 0.0
C2550 C 0.51794 0.35298 0.81386 0.0
C2551 C 0.50962 0.31806 0.79782 0.0
C2552 C 0.54442 0.3725 0.85791 0.0
C2553 C 0.54611 0.4101 0.83925 0.0
N2554 N 0.52212 0.33665 0.81376 0.0
N2555 N 0.53333 0.39153 0.82329 0.0
H2556 H 0.52505 0.66444 0.59948 0.0
H2557 H 0.4927 0.72536 0.72689 0.0
H2558 H 0.46 0.64038 0.62986 0.0
H2559 H 0.54661 0.75911 0.66298 0.0
H2560 H 0.48241 0.69262 0.69675 0.0
H2561 H 0.53522 0.69782 0.62792 0.0
C2562 C 0.51291 0.66611 0.61224 0.0
C2563 C 0.49162 0.64954 0.61232 0.0
C2564 C 0.49644 0.7072 0.68924 0.0
C2565 C 0.50325 0.68766 0.64502 0.0
C2566 C 0.5024 0.72588 0.7065 0.0
C2567 C 0.52057 0.74499 0.69741 0.0
C2568 C 0.50895 0.70747 0.66306 0.0
C2569 C 0.53245 0.74473 0.67067 0.0
C2570 C 0.51874 0.68523 0.62826 0.0
C2571 C 0.47658 0.65272 0.6291 0.0
N2572 N 0.52654 0.72618 0.65457 0.0
N2573 N 0.48272 0.67134 0.64498 0.0
H2574 H 0.33726 0.86118 0.59969 0.0
H2575 H 0.27741 0.76968 0.73037 0.0
H2576 H 0.36198 0.82118 0.63231 0.0
H2577 H 0.24312 0.78843 0.66513 0.0
H2578 H 0.31005 0.79211 0.69999 0.0
H2579 H 0.30411 0.83831 0.62894 0.0
C2580 C 0.33579 0.84767 0.61312 0.0
C2581 C 0.35247 0.84311 0.61357 0.0
C2582 C 0.29538 0.79127 0.69227 0.0
C2583 C 0.31463 0.81702 0.6472 0.0
C2584 C 0.27675 0.77856 0.70967 0.0
C2585 C 0.25751 0.7772 0.70025 0.0
C2586 C 0.29491 0.80306 0.6656 0.0
C2587 C 0.2576 0.78897 0.6731 0.0
C2588 C 0.31681 0.83457 0.6296 0.0
C2589 C 0.34955 0.82528 0.63122 0.0
N2590 N 0.27609 0.80158 0.65685 0.0
N2591 N 0.33106 0.81298 0.64753 0.0
H2592 H 0.14108 0.47748 0.60053 0.0
H2593 H 0.23354 0.50964 0.72933 0.0
H2594 H 0.18127 0.54239 0.63223 0.0
H2595 H 0.21451 0.45653 0.66413 0.0
H2596 H 0.21101 0.51985 0.69924 0.0
H2597 H 0.16433 0.46743 0.62911 0.0
C2598 C 0.15472 0.48961 0.61363 0.0
C2599 C 0.15921 0.51083 0.61403 0.0
C2600 C 0.21182 0.50601 0.69145 0.0
C2601 C 0.18574 0.49934 0.64686 0.0
C2602 C 0.22459 0.5001 0.70867 0.0
C2603 C 0.22587 0.48218 0.69919 0.0
C2604 C 0.19989 0.4937 0.66492 0.0
C2605 C 0.21403 0.4705 0.67212 0.0
C2606 C 0.16803 0.48386 0.62971 0.0
C2607 C 0.17721 0.52587 0.63121 0.0
N2608 N 0.20134 0.47635 0.65606 0.0
N2609 N 0.18973 0.51979 0.64716 0.0
H2610 H 0.39178 0.82531 0.10445 0.0
H2611 H 0.33156 0.85796 0.23238 0.0
H2612 H 0.42586 0.87905 0.16856 0.0
H2613 H 0.30691 0.79285 0.20183 0.0
H2614 H 0.36492 0.86783 0.20421 0.0
H2615 H 0.35919 0.81496 0.13506 0.0
C2616 C 0.3924 0.83495 0.12499 0.0
C2617 C 0.41155 0.85311 0.13398 0.0
C2618 C 0.35222 0.85139 0.2038 0.0
C2619 C 0.37422 0.84142 0.16886 0.0
C2620 C 0.33311 0.84574 0.21967 0.0
C2621 C 0.31636 0.82452 0.21941 0.0
C2622 C 0.35447 0.83582 0.187 0.0
C2623 C 0.31939 0.80937 0.20271 0.0
C2624 C 0.37381 0.82896 0.14251 0.0
C2625 C 0.41144 0.86491 0.16093 0.0
N2626 N 0.33802 0.81534 0.18693 0.0
N2627 N 0.39298 0.85897 0.17727 0.0
H2628 H 0.17925 0.56751 0.1028 0.0
H2629 H 0.14645 0.47558 0.23268 0.0
H2630 H 0.12605 0.54894 0.16762 0.0
H2631 H 0.21156 0.51551 0.20171 0.0
H2632 H 0.13673 0.49896 0.20375 0.0
H2633 H 0.18949 0.54529 0.1338 0.0
C2634 C 0.16973 0.55876 0.1236 0.0
C2635 C 0.15176 0.56005 0.13269 0.0
C2636 C 0.15313 0.50259 0.20339 0.0
C2637 C 0.16327 0.5344 0.16793 0.0
C2638 C 0.1587 0.48919 0.21969 0.0
C2639 C 0.17987 0.49357 0.21958 0.0
C2640 C 0.16875 0.52025 0.18632 0.0
C2641 C 0.19506 0.51155 0.2025 0.0
C2642 C 0.17565 0.54616 0.14132 0.0
C2643 C 0.14007 0.54846 0.15993 0.0
N2644 N 0.18917 0.52413 0.18633 0.0
N2645 N 0.1459 0.53591 0.17644 0.0
H2646 H 0.48856 0.69635 0.19895 0.0
H2647 H 0.45634 0.57544 0.1682 0.0
H2648 H 0.52846 0.67119 0.23015 0.0
H2649 H 0.43763 0.61023 0.10391 0.0
H2650 H 0.47908 0.60866 0.198 0.0
H2651 H 0.46577 0.6629 0.17032 0.0
C2652 C 0.49254 0.68381 0.19977 0.0
C2653 C 0.51051 0.68662 0.21684 0.0
C2654 C 0.46996 0.60892 0.17735 0.0
C2655 C 0.48432 0.64825 0.18462 0.0
C2656 C 0.45694 0.59001 0.16049 0.0
C2657 C 0.44518 0.59013 0.13351 0.0
C2658 C 0.4708 0.62788 0.1675 0.0
C2659 C 0.44656 0.60945 0.12443 0.0
C2660 C 0.47956 0.66477 0.1834 0.0
C2661 C 0.51487 0.66979 0.21709 0.0
N2662 N 0.45903 0.62751 0.14149 0.0
N2663 N 0.50178 0.65126 0.20141 0.0
H2664 H 0.12171 0.57522 0.66934 0.0
H2665 H 0.20968 0.69635 0.70046 0.0
H2666 H 0.17497 0.61049 0.60483 0.0
H2667 H 0.14468 0.67047 0.73246 0.0
H2668 H 0.19924 0.66307 0.67147 0.0
H2669 H 0.13198 0.6083 0.69938 0.0
C2670 C 0.13559 0.58987 0.66162 0.0
C2671 C 0.14746 0.59015 0.63451 0.0
C2672 C 0.18729 0.66474 0.68481 0.0
C2673 C 0.15936 0.62777 0.6688 0.0
C2674 C 0.19323 0.68369 0.7014 0.0
C2675 C 0.17802 0.68626 0.7188 0.0
C2676 C 0.16608 0.64806 0.68613 0.0
C2677 C 0.15691 0.66927 0.71915 0.0
C2678 C 0.14136 0.60871 0.67862 0.0
C2679 C 0.16527 0.60957 0.62545 0.0
N2680 N 0.15159 0.65083 0.70325 0.0
N2681 N 0.17075 0.62756 0.64265 0.0
H2682 H 0.30669 0.51564 0.70189 0.0
H2683 H 0.42733 0.54759 0.66891 0.0
H2684 H 0.33173 0.47525 0.73095 0.0
H2685 H 0.39243 0.56697 0.6061 0.0
H2686 H 0.39429 0.52494 0.69917 0.0
H2687 H 0.34012 0.53874 0.67344 0.0
C2688 C 0.3192 0.51163 0.7023 0.0
C2689 C 0.31635 0.49341 0.71868 0.0
C2690 C 0.39396 0.53421 0.67876 0.0
C2691 C 0.35471 0.51995 0.68666 0.0
C2692 C 0.41278 0.54718 0.66165 0.0
C2693 C 0.41256 0.55907 0.63491 0.0
C2694 C 0.37501 0.53355 0.66943 0.0
C2695 C 0.39327 0.55793 0.62641 0.0
C2696 C 0.33824 0.52478 0.68603 0.0
C2697 C 0.33315 0.48902 0.71842 0.0
N2698 N 0.37531 0.54549 0.64371 0.0
N2699 N 0.35168 0.50227 0.70284 0.0
H2700 H 0.52858 0.8584 0.73006 0.0
H2701 H 0.43511 0.82578 0.60291 0.0
H2702 H 0.48756 0.79329 0.69997 0.0
H2703 H 0.45528 0.87971 0.66679 0.0
H2704 H 0.45772 0.81562 0.63288 0.0
H2705 H 0.50538 0.86853 0.70149 0.0
C2706 C 0.51477 0.84624 0.71732 0.0
C2707 C 0.51003 0.82494 0.71738 0.0
C2708 C 0.45715 0.82963 0.6404 0.0
C2709 C 0.48356 0.83652 0.68454 0.0
C2710 C 0.44433 0.83552 0.62325 0.0
C2711 C 0.44334 0.85365 0.6324 0.0
C2712 C 0.46941 0.84217 0.66653 0.0
C2713 C 0.45553 0.86558 0.65905 0.0
C2714 C 0.50149 0.85204 0.70123 0.0
C2715 C 0.49182 0.80987 0.70063 0.0
N2716 N 0.46825 0.85974 0.67505 0.0
N2717 N 0.47934 0.81598 0.68468 0.0
H2718 H 0.24331 0.45555 0.16382 0.0
H2719 H 0.36443 0.54322 0.13192 0.0
H2720 H 0.27889 0.50878 0.22824 0.0
H2721 H 0.33834 0.4781 0.10039 0.0
H2722 H 0.3312 0.53295 0.16098 0.0
H2723 H 0.27627 0.46574 0.13348 0.0
C2724 C 0.258 0.46941 0.17145 0.0
C2725 C 0.25841 0.48129 0.19863 0.0
C2726 C 0.33282 0.52094 0.14772 0.0
C2727 C 0.29588 0.49311 0.164 0.0
C2728 C 0.35173 0.52678 0.13109 0.0
C2729 C 0.35422 0.51148 0.11383 0.0
C2730 C 0.31611 0.49974 0.14655 0.0
C2731 C 0.3372 0.49039 0.1136 0.0
C2732 C 0.27676 0.47514 0.15428 0.0
C2733 C 0.27788 0.49907 0.20758 0.0
N2734 N 0.3188 0.48516 0.12954 0.0
N2735 N 0.2958 0.50451 0.19021 0.0
H2736 H 0.54777 0.78841 0.16308 0.0
H2737 H 0.45916 0.82056 0.13146 0.0
H2738 H 0.49432 0.76994 0.22737 0.0
H2739 H 0.52421 0.86033 0.10015 0.0
H2740 H 0.46979 0.79788 0.16045 0.0
H2741 H 0.53733 0.81108 0.13304 0.0
C2742 C 0.53381 0.78905 0.17075 0.0
C2743 C 0.52193 0.77736 0.19779 0.0
C2744 C 0.48172 0.81161 0.14726 0.0
C2745 C 0.50984 0.80292 0.1635 0.0
C2746 C 0.47566 0.82453 0.13066 0.0
C2747 C 0.49083 0.84243 0.11347 0.0
C2748 C 0.50299 0.81637 0.14614 0.0
C2749 C 0.51201 0.84679 0.1133 0.0
C2750 C 0.52795 0.80204 0.15375 0.0
C2751 C 0.50403 0.77881 0.2068 0.0
N2752 N 0.51745 0.83376 0.1292 0.0
N2753 N 0.49845 0.79124 0.18959 0.0
H2754 H 0.20344 0.73238 0.23098 0.0
H2755 H 0.19099 0.65308 0.08882 0.0
H2756 H 0.24801 0.75217 0.15129 0.0
H2757 H 0.13664 0.64887 0.13866 0.0
H2758 H 0.21386 0.68698 0.11638 0.0
H2759 H 0.18019 0.69924 0.20197 0.0
C2760 C 0.20828 0.72978 0.2073 0.0
C2761 C 0.22766 0.74506 0.19345 0.0
C2762 C 0.19692 0.67858 0.12121 0.0
C2763 C 0.20134 0.70703 0.16052 0.0
C2764 C 0.18387 0.65916 0.10571 0.0
C2765 C 0.16183 0.64803 0.11148 0.0
C2766 C 0.18795 0.68671 0.14314 0.0
C2767 C 0.1535 0.65684 0.13345 0.0
C2768 C 0.195 0.71091 0.19077 0.0
C2769 C 0.23314 0.74087 0.16271 0.0
N2770 N 0.16658 0.67556 0.14865 0.0
N2771 N 0.22015 0.72212 0.14739 0.0
H2772 H 0.13707 0.17252 0.30465 0.0
H2773 H 0.23245 0.19864 0.18184 0.0
H2774 H 0.19816 0.22991 0.31428 0.0
H2775 H 0.17391 0.13841 0.18972 0.0
H2776 H 0.22082 0.21199 0.22799 0.0
H2777 H 0.15059 0.16184 0.25927 0.0
C2778 C 0.15337 0.18302 0.29717 0.0
C2779 C 0.16648 0.20219 0.31355 0.0
C2780 C 0.21067 0.19584 0.21956 0.0
C2781 C 0.18231 0.18972 0.26107 0.0
C2782 C 0.2173 0.18818 0.19333 0.0
C2783 C 0.20415 0.16735 0.18174 0.0
C2784 C 0.19076 0.18257 0.23401 0.0
C2785 C 0.18465 0.15457 0.19752 0.0
C2786 C 0.16115 0.1768 0.27115 0.0
C2787 C 0.18747 0.21501 0.30237 0.0
N2788 N 0.1786 0.1624 0.2226 0.0
N2789 N 0.1948 0.20851 0.27679 0.0
H2790 H 0.77093 0.9686 0.31712 0.0
H2791 H 0.86534 0.0364 0.19221 0.0
H2792 H 0.82855 0.9654 0.30694 0.0
H2793 H 0.80465 0.03371 0.18403 0.0
H2794 H 0.85188 0.01219 0.23755 0.0
H2795 H 0.78237 0.99342 0.27077 0.0
C2796 C 0.78583 0.97292 0.30508 0.0
C2797 C 0.7988 0.96488 0.3161 0.0
C2798 C 0.84139 0.01681 0.22599 0.0
C2799 C 0.81196 0.99329 0.2636 0.0
C2800 C 0.84914 0.03082 0.19999 0.0
C2801 C 0.83613 0.03717 0.18403 0.0
C2802 C 0.82036 0.00886 0.2365 0.0
C2803 C 0.81526 0.02925 0.19561 0.0
C2804 C 0.79234 0.98711 0.27873 0.0
C2805 C 0.81797 0.97111 0.29962 0.0
N2806 N 0.80796 0.01542 0.22119 0.0
N2807 N 0.82392 0.98493 0.27445 0.0
H2808 H 0.96713 0.83023 0.19005 0.0
H2809 H 0.03351 0.80309 0.31693 0.0
H2810 H 0.96822 0.77129 0.18414 0.0
H2811 H 0.03749 0.86421 0.30551 0.0
H2812 H 0.00884 0.78969 0.27042 0.0
H2813 H 0.99137 0.84108 0.23531 0.0
C2814 C 0.97237 0.81943 0.19831 0.0
C2815 C 0.96554 0.79976 0.18303 0.0
C2816 C 0.0153 0.80605 0.27815 0.0
C2817 C 0.99388 0.8124 0.23543 0.0
C2818 C 0.0294 0.81373 0.30458 0.0
C2819 C 0.03761 0.83482 0.3153 0.0
C2820 C 0.00938 0.81957 0.26262 0.0
C2821 C 0.03164 0.84784 0.29843 0.0
C2822 C 0.9864 0.82574 0.22427 0.0
C2823 C 0.97304 0.78658 0.19519 0.0
N2824 N 0.01792 0.83998 0.27318 0.0
N2825 N 0.98689 0.79317 0.22074 0.0
H2826 H 0.80367 0.77128 0.68226 0.0
H2827 H 0.83016 0.86543 0.80777 0.0
H2828 H 0.86438 0.82905 0.69237 0.0
H2829 H 0.77192 0.80486 0.81496 0.0
H2830 H 0.841 0.85211 0.76232 0.0
H2831 H 0.79022 0.78267 0.72856 0.0
C2832 C 0.81421 0.7862 0.69427 0.0
C2833 C 0.8352 0.79921 0.68326 0.0
C2834 C 0.82581 0.84162 0.77368 0.0
C2835 C 0.81988 0.81233 0.73571 0.0
C2836 C 0.81951 0.84929 0.79974 0.0
C2837 C 0.80005 0.83627 0.81545 0.0
C2838 C 0.81268 0.82067 0.76287 0.0
C2839 C 0.78705 0.81547 0.80357 0.0
C2840 C 0.80649 0.79269 0.72059 0.0
C2841 C 0.84809 0.81842 0.6997 0.0
N2842 N 0.79363 0.80826 0.77795 0.0
N2843 N 0.8402 0.82435 0.72485 0.0
H2844 H 0.23076 0.0332 0.68047 0.0
H2845 H 0.13704 0.96625 0.80685 0.0
H2846 H 0.17344 0.03686 0.69148 0.0
H2847 H 0.19746 0.96827 0.81368 0.0
H2848 H 0.15034 0.99037 0.76139 0.0
H2849 H 0.21945 0.00847 0.72691 0.0
C2850 C 0.21595 0.02899 0.69271 0.0
C2851 C 0.20304 0.03714 0.6819 0.0
C2852 C 0.1608 0.98563 0.77267 0.0
C2853 C 0.19001 0.00884 0.73452 0.0
C2854 C 0.15315 0.97167 0.79875 0.0
C2855 C 0.16613 0.96515 0.81436 0.0
C2856 C 0.18171 0.99335 0.76173 0.0
C2857 C 0.18688 0.97286 0.80238 0.0
C2858 C 0.20951 0.01486 0.7191 0.0
C2859 C 0.18398 0.03106 0.69864 0.0
N2860 N 0.19409 0.98664 0.77673 0.0
N2861 N 0.17809 0.01729 0.72386 0.0
H2862 H 0.96901 0.19908 0.68178 0.0
H2863 H 0.03533 0.17189 0.80879 0.0
H2864 H 0.96546 0.13813 0.69271 0.0
H2865 H 0.03447 0.23095 0.81442 0.0
H2866 H 0.01114 0.16107 0.76347 0.0
H2867 H 0.99364 0.21247 0.72834 0.0
C2868 C 0.97321 0.18847 0.69403 0.0
C2869 C 0.96512 0.16743 0.68316 0.0
C2870 C 0.01615 0.17643 0.77445 0.0
C2871 C 0.9933 0.18267 0.73592 0.0
C2872 C 0.03015 0.18273 0.80045 0.0
C2873 C 0.03704 0.20242 0.81567 0.0
C2874 C 0.00875 0.18981 0.76318 0.0
C2875 C 0.02961 0.21564 0.80341 0.0
C2876 C 0.98729 0.19615 0.7205 0.0
C2877 C 0.9712 0.15446 0.69992 0.0
N2878 N 0.01578 0.20907 0.77783 0.0
N2879 N 0.9849 0.16231 0.7252 0.0
H2880 H 0.86551 0.56446 0.64922 0.0
H2881 H 0.83972 0.46993 0.52499 0.0
H2882 H 0.80474 0.50679 0.63881 0.0
H2883 H 0.897 0.53116 0.51587 0.0
H2884 H 0.82884 0.48327 0.57042 0.0
H2885 H 0.87904 0.55302 0.6031 0.0
C2886 C 0.85498 0.54955 0.63719 0.0
C2887 C 0.83394 0.53657 0.64808 0.0
C2888 C 0.84382 0.49389 0.55862 0.0
C2889 C 0.84937 0.52339 0.59584 0.0
C2890 C 0.85015 0.48622 0.53259 0.0
C2891 C 0.86934 0.49943 0.51632 0.0
C2892 C 0.85666 0.51503 0.56884 0.0
C2893 C 0.88208 0.5204 0.52767 0.0
C2894 C 0.86274 0.54303 0.61097 0.0
C2895 C 0.82106 0.51738 0.63159 0.0
N2896 N 0.87548 0.52761 0.55327 0.0
N2897 N 0.82901 0.51141 0.60656 0.0
H2898 H 0.43712 0.30086 0.64917 0.0
H2899 H 0.53234 0.37071 0.52643 0.0
H2900 H 0.49606 0.29992 0.64171 0.0
H2901 H 0.47096 0.36632 0.51677 0.0
H2902 H 0.51908 0.34667 0.57205 0.0
H2903 H 0.44865 0.3259 0.60313 0.0
C2904 C 0.45235 0.30574 0.63781 0.0
C2905 C 0.46562 0.29823 0.64946 0.0
C2906 C 0.5084 0.35089 0.56011 0.0
C2907 C 0.4789 0.32691 0.59731 0.0
C2908 C 0.51604 0.3648 0.53396 0.0
C2909 C 0.50277 0.37061 0.51749 0.0
C2910 C 0.48723 0.34249 0.57022 0.0
C2911 C 0.48177 0.3623 0.52874 0.0
C2912 C 0.45892 0.32006 0.61164 0.0
C2913 C 0.48522 0.30519 0.63385 0.0
N2914 N 0.47458 0.34856 0.55443 0.0
N2915 N 0.49121 0.31911 0.60882 0.0
H2916 H 0.63514 0.16414 0.52337 0.0
H2917 H 0.70069 0.13677 0.65156 0.0
H2918 H 0.63601 0.10506 0.51867 0.0
H2919 H 0.70581 0.19833 0.63943 0.0
H2920 H 0.67618 0.12356 0.60497 0.0
H2921 H 0.65944 0.17522 0.56873 0.0
C2922 C 0.64035 0.15336 0.53191 0.0
C2923 C 0.63344 0.13358 0.51694 0.0
C2924 C 0.68283 0.13997 0.61253 0.0
C2925 C 0.66178 0.14647 0.56943 0.0
C2926 C 0.69685 0.14755 0.63903 0.0
C2927 C 0.70533 0.16871 0.6496 0.0
C2928 C 0.67722 0.15364 0.59673 0.0
C2929 C 0.69971 0.1819 0.63245 0.0
C2930 C 0.65439 0.15981 0.55792 0.0
C2931 C 0.64087 0.12043 0.52946 0.0
N2932 N 0.686 0.17412 0.60711 0.0
N2933 N 0.65471 0.12713 0.55503 0.0
H2934 H 0.532 0.16274 0.02462 0.0
H2935 H 0.43815 0.13634 0.15066 0.0
H2936 H 0.47119 0.10482 0.01704 0.0
H2937 H 0.49615 0.19689 0.14084 0.0
H2938 H 0.44934 0.12293 0.10405 0.0
H2939 H 0.51886 0.17351 0.07038 0.0
C2940 C 0.51584 0.15214 0.03262 0.0
C2941 C 0.5027 0.13279 0.01671 0.0
C2942 C 0.45946 0.13917 0.11217 0.0
C2943 C 0.48731 0.14535 0.06966 0.0
C2944 C 0.45309 0.14685 0.13866 0.0
C2945 C 0.46622 0.16779 0.14984 0.0
C2946 C 0.4791 0.15252 0.09703 0.0
C2947 C 0.48543 0.18064 0.13339 0.0
C2948 C 0.50828 0.15841 0.05887 0.0
C2949 C 0.48189 0.11986 0.02857 0.0
N2950 N 0.49125 0.17278 0.10807 0.0
N2951 N 0.47478 0.1264 0.05437 0.0
H2952 H 0.89691 0.36462 0.00892 0.0
H2953 H 0.8056 0.30202 0.14004 0.0
H2954 H 0.84552 0.37653 0.03076 0.0
H2955 H 0.86474 0.30132 0.14511 0.0
H2956 H 0.81957 0.32666 0.09517 0.0
H2957 H 0.88561 0.33972 0.05524 0.0
C2958 C 0.88347 0.36224 0.02354 0.0
C2959 C 0.8721 0.37265 0.01569 0.0
C2960 C 0.82961 0.32121 0.106 0.0
C2961 C 0.85905 0.34414 0.06806 0.0
C2962 C 0.82157 0.30696 0.1317 0.0
C2963 C 0.83402 0.29956 0.14668 0.0
C2964 C 0.85033 0.32828 0.09475 0.0
C2965 C 0.85459 0.30662 0.13434 0.0
C2966 C 0.87703 0.348 0.04985 0.0
C2967 C 0.85478 0.36888 0.03547 0.0
N2968 N 0.86216 0.32066 0.10902 0.0
N2969 N 0.84877 0.3549 0.06042 0.0
H2970 H 0.63407 0.47037 0.02381 0.0
H2971 H 0.70007 0.56417 0.15055 0.0
H2972 H 0.63531 0.53045 0.01718 0.0
H2973 H 0.70418 0.50707 0.13976 0.0
H2974 H 0.67551 0.55276 0.10389 0.0
H2975 H 0.65816 0.48384 0.06928 0.0
C2976 C 0.63932 0.48644 0.03195 0.0
C2977 C 0.63258 0.49927 0.01641 0.0
C2978 C 0.68197 0.5429 0.11179 0.0
C2979 C 0.66072 0.51505 0.06906 0.0
C2980 C 0.696 0.5494 0.13831 0.0
C2981 C 0.70422 0.53657 0.14925 0.0
C2982 C 0.67612 0.52344 0.09638 0.0
C2983 C 0.69832 0.51755 0.13251 0.0
C2984 C 0.65325 0.4942 0.05804 0.0
C2985 C 0.64007 0.51998 0.02843 0.0
N2986 N 0.68465 0.51161 0.10716 0.0
N2987 N 0.65383 0.52729 0.0541 0.0
H2988 H 0.47028 0.83908 0.97286 0.0
H2989 H 0.56489 0.86537 0.84846 0.0
H2990 H 0.53126 0.89667 0.98177 0.0
H2991 H 0.5066 0.80499 0.85738 0.0
H2992 H 0.55352 0.87876 0.89488 0.0
H2993 H 0.48361 0.82843 0.92725 0.0
C2994 C 0.48652 0.84963 0.96518 0.0
C2995 C 0.49965 0.86885 0.98143 0.0
C2996 C 0.54338 0.86257 0.88661 0.0
C2997 C 0.51528 0.85641 0.92865 0.0
C2998 C 0.54986 0.85489 0.86022 0.0
C2999 C 0.5367 0.83401 0.84884 0.0
C3000 C 0.52361 0.84926 0.90143 0.0
C3001 C 0.51735 0.82119 0.86499 0.0
C3002 C 0.4942 0.84343 0.93902 0.0
C3003 C 0.52057 0.88172 0.96997 0.0
N3004 N 0.51144 0.82905 0.8902 0.0
N3005 N 0.5278 0.87524 0.94424 0.0
H3006 H 0.19675 0.70008 0.85685 0.0
H3007 H 0.10637 0.63749 0.98896 0.0
H3008 H 0.13755 0.70071 0.85235 0.0
H3009 H 0.15684 0.62469 0.96456 0.0
H3010 H 0.11733 0.66245 0.94273 0.0
H3011 H 0.18286 0.67526 0.90147 0.0
C3012 C 0.18079 0.69509 0.86526 0.0
C3013 C 0.16829 0.70252 0.8505 0.0
C3014 C 0.12577 0.65394 0.94753 0.0
C3015 C 0.15208 0.67358 0.90216 0.0
C3016 C 0.11952 0.63968 0.97379 0.0
C3017 C 0.13077 0.62902 0.98092 0.0
C3018 C 0.14344 0.6576 0.92867 0.0
C3019 C 0.1477 0.63254 0.96043 0.0
C3020 C 0.1728 0.68073 0.89081 0.0
C3021 C 0.14774 0.69538 0.86295 0.0
N3022 N 0.15355 0.64656 0.93558 0.0
N3023 N 0.14021 0.68124 0.88814 0.0
H3024 H 0.3707 0.53156 0.9737 0.0
H3025 H 0.30249 0.43762 0.84832 0.0
H3026 H 0.36732 0.47054 0.98176 0.0
H3027 H 0.29953 0.49533 0.85925 0.0
H3028 H 0.32732 0.44881 0.89463 0.0
H3029 H 0.34655 0.51835 0.92826 0.0
C3030 C 0.36498 0.51534 0.96587 0.0
C3031 C 0.37112 0.50216 0.98183 0.0
C3032 C 0.32106 0.45886 0.88683 0.0
C3033 C 0.34288 0.48668 0.92926 0.0
C3034 C 0.30687 0.45248 0.86051 0.0
C3035 C 0.29889 0.46555 0.84972 0.0
C3036 C 0.32731 0.47843 0.90216 0.0
C3037 C 0.3052 0.48468 0.86639 0.0
C3038 C 0.351 0.50773 0.93982 0.0
C3039 C 0.36303 0.48127 0.97019 0.0
N3040 N 0.31901 0.4905 0.89152 0.0
N3041 N 0.34924 0.47411 0.94457 0.0
H3042 H 0.10468 0.4706 0.48258 0.0
H3043 H 0.20017 0.49651 0.36011 0.0
H3044 H 0.16323 0.53083 0.4748 0.0
H3045 H 0.13899 0.43926 0.35039 0.0
H3046 H 0.18667 0.50727 0.40546 0.0
H3047 H 0.11637 0.45723 0.43656 0.0
C3048 C 0.11984 0.48105 0.47114 0.0
C3049 C 0.13297 0.50189 0.48272 0.0
C3050 C 0.17609 0.49232 0.39356 0.0
C3051 C 0.14644 0.48665 0.43059 0.0
C3052 C 0.18386 0.48606 0.36757 0.0
C3053 C 0.17072 0.46691 0.35117 0.0
C3054 C 0.15491 0.47946 0.40359 0.0
C3055 C 0.1497 0.45415 0.36231 0.0
C3056 C 0.12651 0.47339 0.44498 0.0
C3057 C 0.1525 0.51466 0.467 0.0
N3058 N 0.14239 0.46069 0.38786 0.0
N3059 N 0.15859 0.50681 0.44199 0.0
H3060 H 0.46977 0.63043 0.47144 0.0
H3061 H 0.56504 0.70057 0.34893 0.0
H3062 H 0.53136 0.63536 0.48166 0.0
H3063 H 0.50589 0.70112 0.35605 0.0
H3064 H 0.55353 0.67552 0.39496 0.0
H3065 H 0.48295 0.65432 0.42564 0.0
C3066 C 0.48611 0.63642 0.46399 0.0
C3067 C 0.49946 0.63082 0.48068 0.0
C3068 C 0.54322 0.68128 0.38637 0.0
C3069 C 0.5149 0.65877 0.42775 0.0
C3070 C 0.54977 0.69559 0.36021 0.0
C3071 C 0.53643 0.70301 0.34847 0.0
C3072 C 0.52319 0.67432 0.40061 0.0
C3073 C 0.51678 0.69593 0.36398 0.0
C3074 C 0.49369 0.65024 0.43774 0.0
C3075 C 0.52049 0.63923 0.46952 0.0
N3076 N 0.51081 0.68202 0.38901 0.0
N3077 N 0.52763 0.65289 0.44374 0.0
H3078 H 0.36761 0.89787 0.48058 0.0
H3079 H 0.29544 0.80197 0.35996 0.0
H3080 H 0.36651 0.83783 0.47542 0.0
H3081 H 0.30225 0.8643 0.34846 0.0
H3082 H 0.31944 0.81501 0.40583 0.0
H3083 H 0.34243 0.88633 0.43474 0.0
C3084 C 0.36224 0.88239 0.46977 0.0
C3085 C 0.36924 0.86883 0.482 0.0
C3086 C 0.31573 0.82592 0.39341 0.0
C3087 C 0.34038 0.85553 0.43007 0.0
C3088 C 0.30187 0.81843 0.36714 0.0
C3089 C 0.2968 0.83205 0.35008 0.0
C3090 C 0.32477 0.84728 0.403 0.0
C3091 C 0.30571 0.85322 0.36088 0.0
C3092 C 0.34785 0.87581 0.44371 0.0
C3093 C 0.36165 0.84891 0.46709 0.0
N3094 N 0.31937 0.86024 0.38664 0.0
N3095 N 0.34767 0.84291 0.44214 0.0
H3096 H 0.30322 0.18493 0.10667 0.0
H3097 H 0.36765 0.15007 0.22608 0.0
H3098 H 0.27407 0.14045 0.18577 0.0
H3099 H 0.39663 0.19438 0.14673 0.0
H3100 H 0.33328 0.14635 0.21173 0.0
H3101 H 0.33752 0.18861 0.12108 0.0
C3102 C 0.30401 0.17595 0.12712 0.0
C3103 C 0.28569 0.16238 0.14508 0.0
C3104 C 0.34715 0.15687 0.19742 0.0
C3105 C 0.32505 0.16651 0.16169 0.0
C3106 C 0.3668 0.15901 0.20559 0.0
C3107 C 0.38509 0.17254 0.18753 0.0
C3108 C 0.3457 0.16835 0.17101 0.0
C3109 C 0.38297 0.18372 0.16128 0.0
C3110 C 0.32364 0.17806 0.13532 0.0
C3111 C 0.28775 0.15114 0.17129 0.0
N3112 N 0.36366 0.18138 0.15384 0.0
N3113 N 0.30706 0.15345 0.17878 0.0
H3114 H 0.80712 0.20239 0.14256 0.0
H3115 H 0.86259 0.13386 0.18753 0.0
H3116 H 0.85151 0.21774 0.22177 0.0
H3117 H 0.81817 0.11845 0.10835 0.0
H3118 H 0.85869 0.16462 0.2005 0.0
H3119 H 0.81101 0.17162 0.12958 0.0
C3120 C 0.81774 0.19935 0.15718 0.0
C3121 C 0.82904 0.21273 0.18326 0.0
C3122 C 0.84977 0.1545 0.18031 0.0
C3123 C 0.83351 0.17743 0.16859 0.0
C3124 C 0.85197 0.13689 0.17292 0.0
C3125 C 0.84066 0.12349 0.14685 0.0
C3126 C 0.83617 0.15879 0.16151 0.0
C3127 C 0.82719 0.12831 0.1287 0.0
C3128 C 0.81992 0.18173 0.14978 0.0
C3129 C 0.84249 0.2079 0.20141 0.0
N3130 N 0.82534 0.14554 0.13637 0.0
N3131 N 0.84434 0.19067 0.19374 0.0
H3132 H 0.79989 0.6057 0.14623 0.0
H3133 H 0.86862 0.73012 0.18839 0.0
H3134 H 0.78491 0.63536 0.225 0.0
H3135 H 0.88338 0.70024 0.10969 0.0
H3136 H 0.83794 0.69558 0.2023 0.0
H3137 H 0.83053 0.64024 0.1325 0.0
C3138 C 0.80299 0.61947 0.1606 0.0
C3139 C 0.78975 0.6176 0.18677 0.0
C3140 C 0.8479 0.69658 0.18201 0.0
C3141 C 0.82491 0.65726 0.17122 0.0
C3142 C 0.86546 0.71631 0.17408 0.0
C3143 C 0.87865 0.71811 0.14786 0.0
C3144 C 0.84347 0.6785 0.1636 0.0
C3145 C 0.87369 0.69964 0.13012 0.0
C3146 C 0.82053 0.63921 0.15277 0.0
C3147 C 0.79465 0.63602 0.20459 0.0
N3148 N 0.85652 0.68065 0.13831 0.0
N3149 N 0.81182 0.65506 0.19649 0.0
H3150 H 0.19676 0.3966 0.35427 0.0
H3151 H 0.14021 0.27237 0.31026 0.0
H3152 H 0.15198 0.36758 0.27552 0.0
H3153 H 0.18491 0.3014 0.3891 0.0
H3154 H 0.14437 0.30712 0.29707 0.0
H3155 H 0.19259 0.36185 0.36744 0.0
C3156 C 0.186 0.38293 0.33979 0.0
C3157 C 0.17467 0.38504 0.31379 0.0
C3158 C 0.15329 0.30589 0.31724 0.0
C3159 C 0.16988 0.34516 0.32867 0.0
C3160 C 0.15095 0.28605 0.32475 0.0
C3161 C 0.16226 0.28394 0.35079 0.0
C3162 C 0.16704 0.32381 0.33588 0.0
C3163 C 0.17588 0.30224 0.36879 0.0
C3164 C 0.18366 0.36308 0.3473 0.0
C3165 C 0.16103 0.36674 0.29581 0.0
N3166 N 0.17788 0.32137 0.361 0.0
N3167 N 0.15903 0.3476 0.30359 0.0
H3168 H 0.60567 0.7996 0.35418 0.0
H3169 H 0.73008 0.86884 0.31246 0.0
H3170 H 0.63571 0.78519 0.27531 0.0
H3171 H 0.7001 0.88345 0.39118 0.0
H3172 H 0.69564 0.83811 0.29853 0.0
H3173 H 0.64012 0.8303 0.36826 0.0
C3174 C 0.6195 0.80284 0.33987 0.0
C3175 C 0.61777 0.78975 0.31355 0.0
C3176 C 0.69658 0.84805 0.31883 0.0
C3177 C 0.6573 0.82495 0.3295 0.0
C3178 C 0.71626 0.86563 0.32678 0.0
C3179 C 0.718 0.8788 0.35299 0.0
C3180 C 0.67848 0.84355 0.33722 0.0
C3181 C 0.69953 0.87377 0.37074 0.0
C3182 C 0.63918 0.82041 0.3479 0.0
C3183 C 0.63626 0.79481 0.29582 0.0
N3184 N 0.68056 0.85657 0.36253 0.0
N3185 N 0.65522 0.81199 0.30411 0.0
H3186 H 0.20225 0.80681 0.35157 0.0
H3187 H 0.1337 0.86295 0.31174 0.0
H3188 H 0.21773 0.85264 0.27444 0.0
H3189 H 0.1189 0.81769 0.38952 0.0
H3190 H 0.16444 0.8593 0.29748 0.0
H3191 H 0.1716 0.81057 0.36569 0.0
C3192 C 0.19926 0.81771 0.33764 0.0
C3193 C 0.21265 0.82947 0.31182 0.0
C3194 C 0.15445 0.85015 0.31765 0.0
C3195 C 0.17746 0.83379 0.32781 0.0
C3196 C 0.13686 0.8522 0.32578 0.0
C3197 C 0.12364 0.84057 0.35183 0.0
C3198 C 0.15888 0.83637 0.33568 0.0
C3199 C 0.12861 0.82696 0.36922 0.0
C3200 C 0.18171 0.81983 0.3457 0.0
C3201 C 0.20788 0.84328 0.29457 0.0
N3202 N 0.14581 0.82524 0.36083 0.0
N3203 N 0.19069 0.84505 0.30287 0.0
H3204 H 0.73036 0.86312 0.8111 0.0
H3205 H 0.60583 0.80669 0.85269 0.0
H3206 H 0.70058 0.81819 0.88949 0.0
H3207 H 0.63548 0.85135 0.77395 0.0
H3208 H 0.64043 0.81078 0.86662 0.0
H3209 H 0.69576 0.85905 0.79711 0.0
C3210 C 0.71656 0.85236 0.82534 0.0
C3211 C 0.7184 0.84095 0.85147 0.0
C3212 C 0.63937 0.8197 0.84631 0.0
C3213 C 0.67871 0.83625 0.83564 0.0
C3214 C 0.61961 0.81739 0.83837 0.0
C3215 C 0.61772 0.82872 0.81215 0.0
C3216 C 0.65743 0.83344 0.82792 0.0
C3217 C 0.63615 0.8423 0.79439 0.0
C3218 C 0.69679 0.85006 0.81735 0.0
C3219 C 0.69994 0.8273 0.86911 0.0
N3220 N 0.6552 0.84428 0.8026 0.0
N3221 N 0.6809 0.82534 0.86087 0.0
H3222 H 0.19509 0.79974 0.85506 0.0
H3223 H 0.13956 0.86831 0.81067 0.0
H3224 H 0.15066 0.78448 0.77594 0.0
H3225 H 0.18415 0.88369 0.8896 0.0
H3226 H 0.14342 0.83754 0.79757 0.0
H3227 H 0.1912 0.83049 0.8682 0.0
C3228 C 0.18447 0.8028 0.8405 0.0
C3229 C 0.17316 0.78945 0.81439 0.0
C3230 C 0.15239 0.84766 0.81773 0.0
C3231 C 0.16868 0.82473 0.82925 0.0
C3232 C 0.15021 0.86527 0.8252 0.0
C3233 C 0.16158 0.87867 0.85124 0.0
C3234 C 0.16602 0.84336 0.83642 0.0
C3235 C 0.17508 0.87384 0.86928 0.0
C3236 C 0.18228 0.8204 0.84799 0.0
C3237 C 0.15969 0.79429 0.79631 0.0
N3238 N 0.17691 0.85661 0.86154 0.0
N3239 N 0.15784 0.81151 0.80407 0.0
H3240 H 0.20287 0.39653 0.85316 0.0
H3241 H 0.13399 0.27224 0.81017 0.0
H3242 H 0.2176 0.36712 0.77374 0.0
H3243 H 0.11931 0.30193 0.88923 0.0
H3244 H 0.16467 0.30681 0.79637 0.0
H3245 H 0.17224 0.36195 0.86677 0.0
C3246 C 0.19971 0.3828 0.83862 0.0
C3247 C 0.21289 0.38475 0.8123 0.0
C3248 C 0.15472 0.30576 0.81672 0.0
C3249 C 0.17773 0.34506 0.82771 0.0
C3250 C 0.13717 0.28602 0.82459 0.0
C3251 C 0.124 0.28416 0.85087 0.0
C3252 C 0.15917 0.3238 0.83526 0.0
C3253 C 0.12898 0.30258 0.86874 0.0
C3254 C 0.18218 0.36305 0.84639 0.0
C3255 C 0.20792 0.36639 0.79427 0.0
N3256 N 0.14614 0.32159 0.86061 0.0
N3257 N 0.19075 0.34734 0.80231 0.0
H3258 H 0.81748 0.70054 0.60666 0.0
H3259 H 0.85222 0.63539 0.72476 0.0
H3260 H 0.8617 0.72916 0.68618 0.0
H3261 H 0.80803 0.60686 0.64517 0.0
H3262 H 0.85594 0.66983 0.71096 0.0
H3263 H 0.81383 0.66614 0.62045 0.0
C3264 C 0.8264 0.69961 0.62708 0.0
C3265 C 0.83989 0.71781 0.64534 0.0
C3266 C 0.84545 0.65605 0.69648 0.0
C3267 C 0.8358 0.67835 0.66121 0.0
C3268 C 0.84332 0.63635 0.70433 0.0
C3269 C 0.82982 0.61816 0.68605 0.0
C3270 C 0.83399 0.65765 0.67016 0.0
C3271 C 0.81867 0.62043 0.65989 0.0
C3272 C 0.82432 0.67993 0.63492 0.0
C3273 C 0.85107 0.71557 0.67147 0.0
N3274 N 0.82101 0.63979 0.65275 0.0
N3275 N 0.84878 0.69622 0.67861 0.0
H3276 H 0.27195 0.13275 0.68568 0.0
H3277 H 0.39639 0.20162 0.64397 0.0
H3278 H 0.30175 0.11808 0.60675 0.0
H3279 H 0.36642 0.21615 0.72282 0.0
H3280 H 0.36188 0.17099 0.62987 0.0
H3281 H 0.30647 0.16334 0.69967 0.0
C3282 C 0.28575 0.13591 0.67133 0.0
C3283 C 0.28393 0.12277 0.64504 0.0
C3284 C 0.36286 0.18089 0.65023 0.0
C3285 C 0.32354 0.15787 0.66087 0.0
C3286 C 0.38256 0.19842 0.65827 0.0
C3287 C 0.38432 0.21153 0.68458 0.0
C3288 C 0.34475 0.1764 0.66862 0.0
C3289 C 0.36584 0.20652 0.70231 0.0
C3290 C 0.30547 0.15342 0.67931 0.0
C3291 C 0.30238 0.12774 0.62725 0.0
N3292 N 0.34687 0.18938 0.69401 0.0
N3293 N 0.32139 0.14488 0.63549 0.0
H3294 H 0.88389 0.1845 0.60775 0.0
H3295 H 0.78439 0.14888 0.72709 0.0
H3296 H 0.86878 0.13987 0.68657 0.0
H3297 H 0.80003 0.19377 0.6485 0.0
H3298 H 0.81509 0.14524 0.71261 0.0
H3299 H 0.85317 0.18798 0.62236 0.0
C3300 C 0.87413 0.17544 0.62818 0.0
C3301 C 0.87898 0.16189 0.64601 0.0
C3302 C 0.81179 0.15587 0.69851 0.0
C3303 C 0.84366 0.1658 0.66285 0.0
C3304 C 0.79425 0.15795 0.70675 0.0
C3305 C 0.78957 0.17163 0.68894 0.0
C3306 C 0.82481 0.16754 0.67228 0.0
C3307 C 0.80296 0.18299 0.66287 0.0
C3308 C 0.85657 0.17744 0.63651 0.0
C3309 C 0.86571 0.15055 0.6722 0.0
N3310 N 0.81995 0.18069 0.65535 0.0
N3311 N 0.84866 0.15275 0.67981 0.0
H3312 H 0.03371 0.48372 0.55806 0.0
H3313 H 0.96874 0.51881 0.44024 0.0
H3314 H 0.06252 0.52846 0.47918 0.0
H3315 H 0.94002 0.47398 0.51903 0.0
H3316 H 0.00319 0.52262 0.45419 0.0
H3317 H 0.99932 0.47999 0.54411 0.0
C3318 C 0.03282 0.49275 0.53775 0.0
C3319 C 0.05107 0.5064 0.51972 0.0
C3320 C 0.98937 0.51197 0.46846 0.0
C3321 C 0.01162 0.50222 0.50364 0.0
C3322 C 0.96966 0.50978 0.46053 0.0
C3323 C 0.95142 0.49607 0.47853 0.0
C3324 C 0.99091 0.50035 0.4946 0.0
C3325 C 0.95363 0.48478 0.50452 0.0
C3326 C 0.01314 0.49061 0.52981 0.0
C3327 C 0.04889 0.5177 0.4937 0.0
N3328 N 0.973 0.48716 0.51175 0.0
N3329 N 0.02954 0.51536 0.48646 0.0
H3330 H 0.47273 0.5347 0.47842 0.0
H3331 H 0.52937 0.46684 0.5204 0.0
H3332 H 0.5181 0.55041 0.55628 0.0
H3333 H 0.48408 0.45119 0.44243 0.0
H3334 H 0.52539 0.49747 0.534 0.0
H3335 H 0.47668 0.50404 0.46487 0.0
C3336 C 0.48356 0.53175 0.49263 0.0
C3337 C 0.49514 0.54521 0.51849 0.0
C3338 C 0.5163 0.48732 0.51394 0.0
C3339 C 0.49968 0.51004 0.50315 0.0
C3340 C 0.51855 0.4698 0.50618 0.0
C3341 C 0.50701 0.45637 0.48027 0.0
C3342 C 0.50242 0.4915 0.49567 0.0
C3343 C 0.49328 0.46107 0.46264 0.0
C3344 C 0.48579 0.51421 0.48489 0.0
C3345 C 0.50887 0.54051 0.53611 0.0
N3346 N 0.49138 0.47822 0.47066 0.0
N3347 N 0.51076 0.52334 0.52812 0.0
H3348 H 0.55241 0.03347 0.44152 0.0
H3349 H 0.45138 0.96815 0.55756 0.0
H3350 H 0.53596 0.06197 0.52022 0.0
H3351 H 0.46754 0.9397 0.47846 0.0
H3352 H 0.48229 0.00256 0.54431 0.0
H3353 H 0.52155 0.99903 0.45484 0.0
C3354 C 0.54234 0.03251 0.46167 0.0
C3355 C 0.54685 0.05069 0.47982 0.0
C3356 C 0.47908 0.98881 0.52981 0.0
C3357 C 0.51135 0.01117 0.49516 0.0
C3358 C 0.46139 0.96912 0.53735 0.0
C3359 C 0.45678 0.95095 0.51905 0.0
C3360 C 0.49235 0.99044 0.50378 0.0
C3361 C 0.47041 0.95325 0.49318 0.0
C3362 C 0.52469 0.0128 0.46923 0.0
C3363 C 0.53317 0.0484 0.5056 0.0
N3364 N 0.48755 0.97261 0.48634 0.0
N3365 N 0.51606 0.02902 0.51247 0.0
H3366 H 0.52911 0.06289 0.02035 0.0
H3367 H 0.47283 0.93843 0.97799 0.0
H3368 H 0.48412 0.03329 0.942 0.0
H3369 H 0.51769 0.968 0.05649 0.0
H3370 H 0.4768 0.97305 0.96438 0.0
H3371 H 0.52511 0.02827 0.034 0.0
C3372 C 0.51834 0.04912 0.00605 0.0
C3373 C 0.5069 0.05103 0.98002 0.0
C3374 C 0.4858 0.97197 0.98456 0.0
C3375 C 0.5023 0.0113 0.99547 0.0
C3376 C 0.48356 0.9522 0.99233 0.0
C3377 C 0.49498 0.95028 0.01839 0.0
C3378 C 0.49956 0.99001 0.00298 0.0
C3379 C 0.50858 0.96869 0.03617 0.0
C3380 C 0.51609 0.02934 0.01384 0.0
C3381 C 0.49326 0.0326 0.9623 0.0
N3382 N 0.51048 0.98775 0.02813 0.0
N3383 N 0.49135 0.01355 0.97035 0.0
H3384 H 0.93946 0.46691 0.01971 0.0
H3385 H 0.06405 0.53495 0.97813 0.0
H3386 H 0.96905 0.45233 0.94038 0.0
H3387 H 0.03464 0.54947 0.05778 0.0
H3388 H 0.02935 0.50466 0.96389 0.0
H3389 H 0.97416 0.49718 0.03411 0.0
C3390 C 0.95324 0.47002 0.00537 0.0
C3391 C 0.9513 0.457 0.97883 0.0
C3392 C 0.03048 0.51449 0.98446 0.0
C3393 C 0.99112 0.49172 0.99513 0.0
C3394 C 0.0503 0.53183 0.99258 0.0
C3395 C 0.05229 0.54484 0.01915 0.0
C3396 C 0.01246 0.51008 0.00302 0.0
C3397 C 0.03389 0.53992 0.03706 0.0
C3398 C 0.97307 0.48734 0.01358 0.0
C3399 C 0.96975 0.46189 0.96106 0.0
N3400 N 0.01479 0.52295 0.02867 0.0
N3401 N 0.98884 0.47883 0.96953 0.0
H3402 H 0.53581 0.47239 0.02099 0.0
H3403 H 0.46725 0.52809 0.97772 0.0
H3404 H 0.55089 0.51696 0.94209 0.0
H3405 H 0.45202 0.48341 0.05649 0.0
H3406 H 0.49793 0.52417 0.96425 0.0
H3407 H 0.50509 0.47626 0.03445 0.0
C3408 C 0.53271 0.48304 0.00654 0.0
C3409 C 0.546 0.4944 0.9804 0.0
C3410 C 0.48786 0.51519 0.98446 0.0
C3411 C 0.51077 0.49885 0.99563 0.0
C3412 C 0.4703 0.51741 0.99213 0.0
C3413 C 0.45698 0.50603 0.01824 0.0
C3414 C 0.49217 0.50152 0.00301 0.0
C3415 C 0.46181 0.49248 0.03613 0.0
C3416 C 0.51513 0.48521 0.01422 0.0
C3417 C 0.54112 0.50789 0.96247 0.0
N3418 N 0.47899 0.49062 0.02819 0.0
N3419 N 0.52392 0.50973 0.97042 0.0
loop_
_geom_bond_atom_site_label_1
_geom_bond_atom_site_label_2
_geom_bond_distance
_geom_bond_site_symmetry_2
_ccdc_geom_bond_type
Co0 O2 2.143 . S
Co0 O8 2.074 . S
Co0 O11 2.093 . S
Co0 O24 2.097 . S
Co0 N41 2.151 . S
Co0 N49 2.214 . S
Co1 O2 2.160 . S
Co1 O7 2.058 . S
Co1 O17 2.057 . S
Co1 O32 2.037 . S
Co1 N36 2.145 . S
Co1 N57 2.257 . S
O2 Co0 2.143 . S
O2 Co1 2.160 . S
C3 O4 1.278 . S
C3 O11 1.224 . S
O4 C3 1.278 . S
C5 O6 1.245 . S
C5 O17 1.232 . S
O6 C5 1.245 . S
O7 Co1 2.058 . S
O7 C33 1.269 . S
O8 Co0 2.074 . S
O8 C33 1.257 . S
H9 C34 0.930 . S
H10 C40 0.930 . S
O11 Co0 2.093 . S
O11 C3 1.224 . S
H12 C44 0.929 . S
H13 C46 0.930 . S
H14 C47 0.930 . S
H15 C45 0.929 . S
H16 C48 0.928 . S
O17 Co1 2.057 . S
O17 C5 1.232 . S
H18 C37 0.929 . S
H19 C38 0.929 . S
H20 C50 0.931 . S
H21 C42 0.929 . S
H22 C51 0.930 . S
H23 C43 0.931 . S
O24 Co0 2.097 . S
O24 C52 1.214 . S
H25 C53 0.929 . S
H26 C54 0.929 . S
H27 C55 0.930 . S
H28 C56 0.929 . S
H29 C58 0.930 . S
H30 C35 0.930 . S
H31 C39 0.930 . S
O32 Co1 2.037 . S
O32 C52 1.234 . S
C33 O7 1.269 . S
C33 O8 1.257 . S
C34 H9 0.930 . S
C34 C37 1.388 . S
C34 C39 1.418 . S
C35 H30 0.930 . S
C35 C38 1.404 . S
C35 C39 1.353 . S
N36 Co1 2.145 . S
N36 C37 1.397 . S
N36 C38 1.334 . S
C37 H18 0.929 . S
C37 C34 1.388 . S
C37 N36 1.397 . S
C38 H19 0.929 . S
C38 C35 1.404 . S
C38 N36 1.334 . S
C39 H31 0.930 . S
C39 C34 1.418 . S
C39 C35 1.353 . S
C40 H10 0.930 . S
C40 N41 1.330 . S
C40 C42 1.446 . S
N41 Co0 2.151 . S
N41 C40 1.330 . S
N41 C45 1.418 . S
C42 H21 0.929 . S
C42 C40 1.446 . S
C42 C43 1.332 . S
C43 H23 0.931 . S
C43 C42 1.332 . S
C43 C44 1.267 . S
C44 H12 0.929 . S
C44 C43 1.267 . S
C44 C45 1.251 . S
C45 H15 0.929 . S
C45 N41 1.418 . S
C45 C44 1.251 . S
C46 H13 0.930 . S
C46 C48 1.406 . S
C46 C51 1.261 . S
C47 H14 0.930 . S
C47 N49 1.325 . S
C47 C50 1.357 . S
C48 H16 0.928 . S
C48 C46 1.406 . S
C48 N49 1.261 . S
N49 Co0 2.214 . S
N49 C47 1.325 . S
N49 C48 1.261 . S
C50 H20 0.931 . S
C50 C47 1.357 . S
C50 C51 1.312 . S
C51 H22 0.930 . S
C51 C46 1.261 . S
C51 C50 1.312 . S
C52 O24 1.214 . S
C52 O32 1.234 . S
C53 H25 0.929 . S
C53 C56 1.391 1_554 S
C53 C58 1.391 . S
C54 H26 0.929 . S
C54 C55 1.390 1_554 S
C54 N57 1.391 . S
C55 H27 0.930 . S
C55 C54 1.390 1_556 S
C55 C56 1.392 . S
C56 H28 0.929 . S
C56 C53 1.391 1_556 S
C56 C55 1.392 . S
N57 Co1 2.257 . S
N57 C54 1.391 . S
N57 C58 1.388 . S
C58 H29 0.930 . S
C58 C53 1.391 . S
C58 N57 1.388 . S
Co59 O61 2.143 . S
Co59 O67 2.074 . S
Co59 O70 2.093 . S
Co59 O83 2.097 . S
Co59 N100 2.151 . S
Co59 N108 2.214 . S
Co60 O61 2.160 . S
Co60 O66 2.058 . S
Co60 O76 2.057 . S
Co60 O91 2.037 . S
Co60 N95 2.145 . S
Co60 N116 2.257 . S
O61 Co59 2.143 . S
O61 Co60 2.160 . S
C62 O63 1.278 . S
C62 O70 1.224 . S
O63 C62 1.278 . S
C64 O65 1.245 . S
C64 O76 1.232 . S
O65 C64 1.245 . S
O66 Co60 2.058 . S
O66 C92 1.269 . S
O67 Co59 2.074 . S
O67 C92 1.257 . S
H68 C93 0.930 . S
H69 C99 0.930 . S
O70 Co59 2.093 . S
O70 C62 1.224 . S
H71 C103 0.929 . S
H72 C105 0.930 . S
H73 C106 0.930 . S
H74 C104 0.929 . S
H75 C107 0.928 . S
O76 Co60 2.057 . S
O76 C64 1.232 . S
H77 C96 0.929 . S
H78 C97 0.929 . S
H79 C109 0.972 . S
H80 C101 0.929 . S
H81 C110 0.930 . S
H82 C102 0.931 . S
O83 Co59 2.097 . S
O83 C111 1.214 . S
H84 C112 0.929 . S
H85 C113 0.929 . S
H86 C114 0.930 . S
H87 C115 0.929 . S
H88 C117 0.930 . S
H89 C94 0.930 . S
H90 C98 0.930 . S
O91 Co60 2.037 . S
O91 C111 1.234 . S
C92 O66 1.269 . S
C92 O67 1.257 . S
C93 H68 0.930 . S
C93 C96 1.388 . S
C93 C98 1.418 . S
C94 H89 0.930 . S
C94 C97 1.404 . S
C94 C98 1.353 . S
N95 Co60 2.145 . S
N95 C96 1.397 . S
N95 C97 1.334 . S
C96 H77 0.929 . S
C96 C93 1.388 . S
C96 N95 1.397 . S
C97 H78 0.929 . S
C97 C94 1.404 . S
C97 N95 1.334 . S
C98 H90 0.930 . S
C98 C93 1.418 . S
C98 C94 1.353 . S
C99 H69 0.930 . S
C99 N100 1.330 . S
C99 C101 1.446 . S
N100 Co59 2.151 . S
N100 C99 1.330 . S
N100 C104 1.418 . S
C101 H80 0.929 . S
C101 C99 1.446 . S
C101 C102 1.332 . S
C102 H82 0.931 . S
C102 C101 1.332 . S
C102 C103 1.267 . S
C103 H71 0.929 . S
C103 C102 1.267 . S
C103 C104 1.251 . S
C104 H74 0.929 . S
C104 N100 1.418 . S
C104 C103 1.251 . S
C105 H72 0.930 . S
C105 C107 1.406 . S
C105 C110 1.261 . S
C106 H73 0.930 . S
C106 N108 1.325 . S
C106 C109 1.357 . S
C107 H75 0.928 . S
C107 C105 1.406 . S
C107 N108 1.261 . S
N108 Co59 2.214 . S
N108 C106 1.325 . S
N108 C107 1.261 . S
C109 H79 0.972 . S
C109 C106 1.357 . S
C109 C110 1.312 . S
C110 H81 0.930 . S
C110 C105 1.261 . S
C110 C109 1.312 . S
C111 O83 1.214 . S
C111 O91 1.234 . S
C112 H84 0.929 . S
C112 C115 1.391 1_554 S
C112 C117 1.391 . S
C113 H85 0.929 . S
C113 C114 1.390 1_554 S
C113 N116 1.391 . S
C114 H86 0.930 . S
C114 C113 1.390 1_556 S
C114 C115 1.392 . S
C115 H87 0.929 . S
C115 C112 1.391 1_556 S
C115 C114 1.392 . S
N116 Co60 2.257 . S
N116 C113 1.391 . S
N116 C117 1.388 . S
C117 H88 0.930 . S
C117 C112 1.391 . S
C117 N116 1.388 . S
Co118 O120 2.143 . S
Co118 O126 2.074 . S
Co118 O129 2.093 . S
Co118 O142 2.097 . S
Co118 N159 2.151 . S
Co118 N167 2.214 . S
Co119 O120 2.160 . S
Co119 O125 2.058 . S
Co119 O135 2.057 . S
Co119 O150 2.037 . S
Co119 N154 2.145 . S
Co119 N175 2.257 . S
O120 Co118 2.143 . S
O120 Co119 2.160 . S
C121 O122 1.278 . S
C121 O129 1.224 . S
O122 C121 1.278 . S
C123 O124 1.245 . S
C123 O135 1.232 . S
O124 C123 1.245 . S
O125 Co119 2.058 . S
O125 C151 1.269 . S
O126 Co118 2.074 . S
O126 C151 1.257 . S
H127 C152 0.930 . S
H128 C158 0.930 . S
O129 Co118 2.093 . S
O129 C121 1.224 . S
H130 C162 0.929 . S
H131 C164 0.930 . S
H132 C165 0.930 . S
H133 C163 0.929 . S
H134 C166 0.928 . S
O135 Co119 2.057 . S
O135 C123 1.232 . S
H136 C155 0.929 . S
H137 C156 0.929 . S
H138 C168 0.982 . S
H139 C160 0.929 . S
H140 C169 0.930 . S
H141 C161 0.931 . S
O142 Co118 2.097 . S
O142 C170 1.214 . S
H143 C171 0.929 . S
H144 C172 0.929 . S
H145 C173 0.930 . S
H146 C174 0.929 . S
H147 C176 0.930 . S
H148 C153 0.930 . S
H149 C157 0.930 . S
O150 Co119 2.037 . S
O150 C170 1.234 . S
C151 O125 1.269 . S
C151 O126 1.257 . S
C152 H127 0.930 . S
C152 C155 1.388 . S
C152 C157 1.418 . S
C153 H148 0.930 . S
C153 C156 1.404 . S
C153 C157 1.353 . S
N154 Co119 2.145 . S
N154 C155 1.397 . S
N154 C156 1.334 . S
C155 H136 0.929 . S
C155 C152 1.388 . S
C155 N154 1.397 . S
C156 H137 0.929 . S
C156 C153 1.404 . S
C156 N154 1.334 . S
C157 H149 0.930 . S
C157 C152 1.418 . S
C157 C153 1.353 . S
C158 H128 0.930 . S
C158 N159 1.330 . S
C158 C160 1.446 . S
N159 Co118 2.151 . S
N159 C158 1.330 . S
N159 C163 1.418 . S
C160 H139 0.929 . S
C160 C158 1.446 . S
C160 C161 1.332 . S
C161 H141 0.931 . S
C161 C160 1.332 . S
C161 C162 1.267 . S
C162 H130 0.929 . S
C162 C161 1.267 . S
C162 C163 1.251 . S
C163 H133 0.929 . S
C163 N159 1.418 . S
C163 C162 1.251 . S
C164 H131 0.930 . S
C164 C166 1.406 . S
C164 C169 1.261 . S
C165 H132 0.930 . S
C165 N167 1.325 . S
C165 C168 1.357 . S
C166 H134 0.928 . S
C166 C164 1.406 . S
C166 N167 1.261 . S
N167 Co118 2.214 . S
N167 C165 1.325 . S
N167 C166 1.261 . S
C168 H138 0.982 . S
C168 C165 1.357 . S
C168 C169 1.312 . S
C169 H140 0.930 . S
C169 C164 1.261 . S
C169 C168 1.312 . S
C170 O142 1.214 . S
C170 O150 1.234 . S
C171 H143 0.929 . S
C171 C174 1.391 1_554 S
C171 C176 1.391 . S
C172 H144 0.929 . S
C172 C173 1.390 1_554 S
C172 N175 1.391 . S
C173 H145 0.930 . S
C173 C172 1.390 1_556 S
C173 C174 1.392 . S
C174 H146 0.929 . S
C174 C171 1.391 1_556 S
C174 C173 1.392 . S
N175 Co119 2.257 . S
N175 C172 1.391 . S
N175 C176 1.388 . S
C176 H147 0.930 . S
C176 C171 1.391 . S
C176 N175 1.388 . S
Co177 O179 2.143 . S
Co177 O185 2.074 . S
Co177 O188 2.093 . S
Co177 O201 2.097 . S
Co177 N218 2.151 . S
Co177 N226 2.214 . S
Co178 O179 2.160 . S
Co178 O184 2.058 . S
Co178 O194 2.057 . S
Co178 O209 2.037 . S
Co178 N213 2.145 . S
Co178 N234 2.257 . S
O179 Co177 2.143 . S
O179 Co178 2.160 . S
C180 O181 1.278 . S
C180 O188 1.224 . S
O181 C180 1.278 . S
C182 O183 1.245 . S
C182 O194 1.232 . S
O183 C182 1.245 . S
O184 Co178 2.058 . S
O184 C210 1.269 . S
O185 Co177 2.074 . S
O185 C210 1.257 . S
H186 C211 0.930 . S
H187 C217 0.930 . S
O188 Co177 2.093 . S
O188 C180 1.224 . S
H189 C221 0.929 . S
H190 C223 0.930 . S
H191 C224 0.930 . S
H192 C222 0.929 . S
H193 C225 0.928 . S
O194 Co178 2.057 . S
O194 C182 1.232 . S
H195 C214 0.929 . S
H196 C215 0.929 . S
H197 C227 0.931 . S
H198 C219 0.929 . S
H199 C228 0.930 . S
H200 C220 0.931 . S
O201 Co177 2.097 . S
O201 C229 1.214 . S
H202 C230 0.929 . S
H203 C231 0.929 . S
H204 C232 0.930 . S
H205 C233 0.929 . S
H206 C235 0.930 . S
H207 C212 0.930 . S
H208 C216 0.930 . S
O209 Co178 2.037 . S
O209 C229 1.234 . S
C210 O184 1.269 . S
C210 O185 1.257 . S
C211 H186 0.930 . S
C211 C214 1.388 . S
C211 C216 1.418 . S
C212 H207 0.930 . S
C212 C215 1.404 . S
C212 C216 1.353 . S
N213 Co178 2.145 . S
N213 C214 1.397 . S
N213 C215 1.334 . S
C214 H195 0.929 . S
C214 C211 1.388 . S
C214 N213 1.397 . S
C215 H196 0.929 . S
C215 C212 1.404 . S
C215 N213 1.334 . S
C216 H208 0.930 . S
C216 C211 1.418 . S
C216 C212 1.353 . S
C217 H187 0.930 . S
C217 N218 1.330 . S
C217 C219 1.446 . S
N218 Co177 2.151 . S
N218 C217 1.330 . S
N218 C222 1.418 . S
C219 H198 0.929 . S
C219 C217 1.446 . S
C219 C220 1.332 . S
C220 H200 0.931 . S
C220 C219 1.332 . S
C220 C221 1.267 . S
C221 H189 0.929 . S
C221 C220 1.267 . S
C221 C222 1.251 . S
C222 H192 0.929 . S
C222 N218 1.418 . S
C222 C221 1.251 . S
C223 H190 0.930 . S
C223 C225 1.406 . S
C223 C228 1.261 . S
C224 H191 0.930 . S
C224 N226 1.325 . S
C224 C227 1.357 . S
C225 H193 0.928 . S
C225 C223 1.406 . S
C225 N226 1.261 . S
N226 Co177 2.214 . S
N226 C224 1.325 . S
N226 C225 1.261 . S
C227 H197 0.931 . S
C227 C224 1.357 . S
C227 C228 1.312 . S
C228 H199 0.930 . S
C228 C223 1.261 . S
C228 C227 1.312 . S
C229 O201 1.214 . S
C229 O209 1.234 . S
C230 H202 0.929 . S
C230 C233 1.391 . S
C230 C235 1.391 . S
C231 H203 0.929 . S
C231 C232 1.390 . S
C231 N234 1.391 . S
C232 H204 0.930 . S
C232 C231 1.390 . S
C232 C233 1.392 . S
C233 H205 0.929 . S
C233 C230 1.391 . S
C233 C232 1.392 . S
N234 Co178 2.257 . S
N234 C231 1.391 . S
N234 C235 1.388 . S
C235 H206 0.930 . S
C235 C230 1.391 . S
C235 N234 1.388 . S
Co236 O238 2.143 . S
Co236 O244 2.074 . S
Co236 O247 2.093 . S
Co236 O260 2.097 . S
Co236 N277 2.151 . S
Co236 N285 2.214 . S
Co237 O238 2.160 . S
Co237 O243 2.058 . S
Co237 O253 2.057 . S
Co237 O268 2.037 . S
Co237 N272 2.145 . S
Co237 N293 2.257 . S
O238 Co236 2.143 . S
O238 Co237 2.160 . S
C239 O240 1.278 . S
C239 O247 1.224 . S
O240 C239 1.278 . S
C241 O242 1.245 . S
C241 O253 1.232 . S
O242 C241 1.245 . S
O243 Co237 2.058 . S
O243 C269 1.269 . S
O244 Co236 2.074 . S
O244 C269 1.257 . S
H245 C270 0.930 . S
H246 C276 0.930 . S
O247 Co236 2.093 . S
O247 C239 1.224 . S
H248 C280 0.929 . S
H249 C282 0.930 . S
H250 C283 0.930 . S
H251 C281 0.929 . S
H252 C284 0.928 . S
O253 Co237 2.057 . S
O253 C241 1.232 . S
H254 C273 0.929 . S
H255 C274 0.929 . S
H256 C286 0.982 . S
H257 C278 0.929 . S
H258 C287 0.930 . S
H259 C279 0.931 . S
O260 Co236 2.097 . S
O260 C288 1.214 . S
H261 C289 0.929 . S
H262 C290 0.929 . S
H263 C291 0.930 . S
H264 C292 0.929 . S
H265 C294 0.930 . S
H266 C271 0.930 . S
H267 C275 0.930 . S
O268 Co237 2.037 . S
O268 C288 1.234 . S
C269 O243 1.269 . S
C269 O244 1.257 . S
C270 H245 0.930 . S
C270 C273 1.388 . S
C270 C275 1.418 . S
C271 H266 0.930 . S
C271 C274 1.404 . S
C271 C275 1.353 . S
N272 Co237 2.145 . S
N272 C273 1.397 . S
N272 C274 1.334 . S
C273 H254 0.929 . S
C273 C270 1.388 . S
C273 N272 1.397 . S
C274 H255 0.929 . S
C274 C271 1.404 . S
C274 N272 1.334 . S
C275 H267 0.930 . S
C275 C270 1.418 . S
C275 C271 1.353 . S
C276 H246 0.930 . S
C276 N277 1.330 . S
C276 C278 1.446 . S
N277 Co236 2.151 . S
N277 C276 1.330 . S
N277 C281 1.418 . S
C278 H257 0.929 . S
C278 C276 1.446 . S
C278 C279 1.332 . S
C279 H259 0.931 . S
C279 C278 1.332 . S
C279 C280 1.267 . S
C280 H248 0.929 . S
C280 C279 1.267 . S
C280 C281 1.251 . S
C281 H251 0.929 . S
C281 N277 1.418 . S
C281 C280 1.251 . S
C282 H249 0.930 . S
C282 C284 1.406 . S
C282 C287 1.261 . S
C283 H250 0.930 . S
C283 N285 1.325 . S
C283 C286 1.357 . S
C284 H252 0.928 . S
C284 C282 1.406 . S
C284 N285 1.261 . S
N285 Co236 2.214 . S
N285 C283 1.325 . S
N285 C284 1.261 . S
C286 H256 0.982 . S
C286 C283 1.357 . S
C286 C287 1.312 . S
C287 H258 0.930 . S
C287 C282 1.261 . S
C287 C286 1.312 . S
C288 O260 1.214 . S
C288 O268 1.234 . S
C289 H261 0.929 . S
C289 C292 1.391 . S
C289 C294 1.391 . S
C290 H262 0.929 . S
C290 C291 1.390 . S
C290 N293 1.391 . S
C291 H263 0.930 . S
C291 C290 1.390 . S
C291 C292 1.392 . S
C292 H264 0.929 . S
C292 C289 1.391 . S
C292 C291 1.392 . S
N293 Co237 2.257 . S
N293 C290 1.391 . S
N293 C294 1.388 . S
C294 H265 0.930 . S
C294 C289 1.391 . S
C294 N293 1.388 . S
Co295 O297 2.143 . S
Co295 O303 2.074 . S
Co295 O306 2.093 . S
Co295 O319 2.097 . S
Co295 N336 2.151 . S
Co295 N344 2.214 . S
Co296 O297 2.160 . S
Co296 O302 2.058 . S
Co296 O312 2.057 . S
Co296 O327 2.037 . S
Co296 N331 2.145 . S
Co296 N352 2.257 . S
O297 Co295 2.143 . S
O297 Co296 2.160 . S
C298 O299 1.278 . S
C298 O306 1.224 . S
O299 C298 1.278 . S
C300 O301 1.245 . S
C300 O312 1.232 . S
O301 C300 1.245 . S
O302 Co296 2.058 . S
O302 C328 1.269 . S
O303 Co295 2.074 . S
O303 C328 1.257 . S
H304 C329 0.930 . S
H305 C335 0.930 . S
O306 Co295 2.093 . S
O306 C298 1.224 . S
H307 C339 0.929 . S
H308 C341 0.930 . S
H309 C342 0.930 . S
H310 C340 0.929 . S
H311 C343 0.928 . S
O312 Co296 2.057 . S
O312 C300 1.232 . S
H313 C332 0.929 . S
H314 C333 0.929 . S
H315 C345 0.973 . S
H316 C337 0.929 . S
H317 C346 0.930 . S
H318 C338 0.931 . S
O319 Co295 2.097 . S
O319 C347 1.214 . S
H320 C348 0.929 . S
H321 C349 0.929 . S
H322 C350 0.930 . S
H323 C351 0.929 . S
H324 C353 0.930 . S
H325 C330 0.930 . S
H326 C334 0.930 . S
O327 Co296 2.037 . S
O327 C347 1.234 . S
C328 O302 1.269 . S
C328 O303 1.257 . S
C329 H304 0.930 . S
C329 C332 1.388 . S
C329 C334 1.418 . S
C330 H325 0.930 . S
C330 C333 1.404 . S
C330 C334 1.353 . S
N331 Co296 2.145 . S
N331 C332 1.397 . S
N331 C333 1.334 . S
C332 H313 0.929 . S
C332 C329 1.388 . S
C332 N331 1.397 . S
C333 H314 0.929 . S
C333 C330 1.404 . S
C333 N331 1.334 . S
C334 H326 0.930 . S
C334 C329 1.418 . S
C334 C330 1.353 . S
C335 H305 0.930 . S
C335 N336 1.330 . S
C335 C337 1.446 . S
N336 Co295 2.151 . S
N336 C335 1.330 . S
N336 C340 1.418 . S
C337 H316 0.929 . S
C337 C335 1.446 . S
C337 C338 1.332 . S
C338 H318 0.931 . S
C338 C337 1.332 . S
C338 C339 1.267 . S
C339 H307 0.929 . S
C339 C338 1.267 . S
C339 C340 1.251 . S
C340 H310 0.929 . S
C340 N336 1.418 . S
C340 C339 1.251 . S
C341 H308 0.930 . S
C341 C343 1.406 . S
C341 C346 1.261 . S
C342 H309 0.930 . S
C342 N344 1.325 . S
C342 C345 1.357 . S
C343 H311 0.928 . S
C343 C341 1.406 . S
C343 N344 1.261 . S
N344 Co295 2.214 . S
N344 C342 1.325 . S
N344 C343 1.261 . S
C345 H315 0.973 . S
C345 C342 1.357 . S
C345 C346 1.312 . S
C346 H317 0.930 . S
C346 C341 1.261 . S
C346 C345 1.312 . S
C347 O319 1.214 . S
C347 O327 1.234 . S
C348 H320 0.929 . S
C348 C351 1.391 . S
C348 C353 1.391 . S
C349 H321 0.929 . S
C349 C350 1.390 . S
C349 N352 1.391 . S
C350 H322 0.930 . S
C350 C349 1.390 . S
C350 C351 1.392 . S
C351 H323 0.929 . S
C351 C348 1.391 . S
C351 C350 1.392 . S
N352 Co296 2.257 . S
N352 C349 1.391 . S
N352 C353 1.388 . S
C353 H324 0.930 . S
C353 C348 1.391 . S
C353 N352 1.388 . S
Co354 O356 2.143 . S
Co354 O362 2.074 . S
Co354 O365 2.093 . S
Co354 O378 2.097 . S
Co354 N395 2.151 . S
Co354 N403 2.214 . S
Co355 O356 2.160 . S
Co355 O361 2.058 . S
Co355 O371 2.057 . S
Co355 O386 2.037 . S
Co355 N390 2.145 . S
Co355 N411 2.257 . S
O356 Co354 2.143 . S
O356 Co355 2.160 . S
C357 O358 1.278 . S
C357 O365 1.224 . S
O358 C357 1.278 . S
C359 O360 1.245 . S
C359 O371 1.232 . S
O360 C359 1.245 . S
O361 Co355 2.058 . S
O361 C387 1.269 . S
O362 Co354 2.074 . S
O362 C387 1.257 . S
H363 C388 0.930 . S
H364 C394 0.930 . S
O365 Co354 2.093 . S
O365 C357 1.224 . S
H366 C398 0.929 . S
H367 C400 0.930 . S
H368 C401 0.930 . S
H369 C399 0.929 . S
H370 C402 0.928 . S
O371 Co355 2.057 . S
O371 C359 1.232 . S
H372 C391 0.929 . S
H373 C392 0.929 . S
H374 C404 0.931 . S
H375 C396 0.929 . S
H376 C405 0.930 . S
H377 C397 0.931 . S
O378 Co354 2.097 . S
O378 C406 1.214 . S
H379 C407 0.929 . S
H380 C408 0.929 . S
H381 C409 0.930 . S
H382 C410 0.929 . S
H383 C412 0.930 . S
H384 C389 0.930 . S
H385 C393 0.930 . S
O386 Co355 2.037 . S
O386 C406 1.234 . S
C387 O361 1.269 . S
C387 O362 1.257 . S
C388 H363 0.930 . S
C388 C391 1.388 . S
C388 C393 1.418 . S
C389 H384 0.930 . S
C389 C392 1.404 . S
C389 C393 1.353 . S
N390 Co355 2.145 . S
N390 C391 1.397 . S
N390 C392 1.334 . S
C391 H372 0.929 . S
C391 C388 1.388 . S
C391 N390 1.397 . S
C392 H373 0.929 . S
C392 C389 1.404 . S
C392 N390 1.334 . S
C393 H385 0.930 . S
C393 C388 1.418 . S
C393 C389 1.353 . S
C394 H364 0.930 . S
C394 N395 1.330 . S
C394 C396 1.446 . S
N395 Co354 2.151 . S
N395 C394 1.330 . S
N395 C399 1.418 . S
C396 H375 0.929 . S
C396 C394 1.446 . S
C396 C397 1.332 . S
C397 H377 0.931 . S
C397 C396 1.332 . S
C397 C398 1.267 . S
C398 H366 0.929 . S
C398 C397 1.267 . S
C398 C399 1.251 . S
C399 H369 0.929 . S
C399 N395 1.418 . S
C399 C398 1.251 . S
C400 H367 0.930 . S
C400 C402 1.406 . S
C400 C405 1.261 . S
C401 H368 0.930 . S
C401 N403 1.325 . S
C401 C404 1.357 . S
C402 H370 0.928 . S
C402 C400 1.406 . S
C402 N403 1.261 . S
N403 Co354 2.214 . S
N403 C401 1.325 . S
N403 C402 1.261 . S
C404 H374 0.931 . S
C404 C401 1.357 . S
C404 C405 1.312 . S
C405 H376 0.930 . S
C405 C400 1.261 . S
C405 C404 1.312 . S
C406 O378 1.214 . S
C406 O386 1.234 . S
C407 H379 0.929 . S
C407 C410 1.391 1_556 S
C407 C412 1.391 . S
C408 H380 0.929 . S
C408 C409 1.390 1_556 S
C408 N411 1.391 . S
C409 H381 0.930 . S
C409 C408 1.390 1_554 S
C409 C410 1.392 . S
C410 H382 0.929 . S
C410 C407 1.391 1_554 S
C410 C409 1.392 . S
N411 Co355 2.257 . S
N411 C408 1.391 . S
N411 C412 1.388 . S
C412 H383 0.930 . S
C412 C407 1.391 . S
C412 N411 1.388 . S
Co413 O415 2.143 . S
Co413 O421 2.074 . S
Co413 O424 2.093 . S
Co413 O437 2.097 . S
Co413 N454 2.151 . S
Co413 N462 2.214 . S
Co414 O415 2.160 . S
Co414 O420 2.058 . S
Co414 O430 2.057 . S
Co414 O445 2.037 . S
Co414 N449 2.145 . S
Co414 N470 2.257 . S
O415 Co413 2.143 . S
O415 Co414 2.160 . S
C416 O417 1.278 . S
C416 O424 1.224 . S
O417 C416 1.278 . S
C418 O419 1.245 . S
C418 O430 1.232 . S
O419 C418 1.245 . S
O420 Co414 2.058 . S
O420 C446 1.269 . S
O421 Co413 2.074 . S
O421 C446 1.257 . S
H422 C447 0.930 . S
H423 C453 0.930 . S
O424 Co413 2.093 . S
O424 C416 1.224 . S
H425 C457 0.929 . S
H426 C459 0.930 . S
H427 C460 0.930 . S
H428 C458 0.929 . S
H429 C461 0.928 . S
O430 Co414 2.057 . S
O430 C418 1.232 . S
H431 C450 0.929 . S
H432 C451 0.929 . S
H433 C463 0.972 . S
H434 C455 0.929 . S
H435 C464 0.930 . S
H436 C456 0.931 . S
O437 Co413 2.097 . S
O437 C465 1.214 . S
H438 C466 0.929 . S
H439 C467 0.929 . S
H440 C468 0.930 . S
H441 C469 0.929 . S
H442 C471 0.930 . S
H443 C448 0.930 . S
H444 C452 0.930 . S
O445 Co414 2.037 . S
O445 C465 1.234 . S
C446 O420 1.269 . S
C446 O421 1.257 . S
C447 H422 0.930 . S
C447 C450 1.388 . S
C447 C452 1.418 . S
C448 H443 0.930 . S
C448 C451 1.404 . S
C448 C452 1.353 . S
N449 Co414 2.145 . S
N449 C450 1.397 . S
N449 C451 1.334 . S
C450 H431 0.929 . S
C450 C447 1.388 . S
C450 N449 1.397 . S
C451 H432 0.929 . S
C451 C448 1.404 . S
C451 N449 1.334 . S
C452 H444 0.930 . S
C452 C447 1.418 . S
C452 C448 1.353 . S
C453 H423 0.930 . S
C453 N454 1.330 . S
C453 C455 1.446 . S
N454 Co413 2.151 . S
N454 C453 1.330 . S
N454 C458 1.418 . S
C455 H434 0.929 . S
C455 C453 1.446 . S
C455 C456 1.332 . S
C456 H436 0.931 . S
C456 C455 1.332 . S
C456 C457 1.267 . S
C457 H425 0.929 . S
C457 C456 1.267 . S
C457 C458 1.251 . S
C458 H428 0.929 . S
C458 N454 1.418 . S
C458 C457 1.251 . S
C459 H426 0.930 . S
C459 C461 1.406 . S
C459 C464 1.261 . S
C460 H427 0.930 . S
C460 N462 1.325 . S
C460 C463 1.357 . S
C461 H429 0.928 . S
C461 C459 1.406 . S
C461 N462 1.261 . S
N462 Co413 2.214 . S
N462 C460 1.325 . S
N462 C461 1.261 . S
C463 H433 0.972 . S
C463 C460 1.357 . S
C463 C464 1.312 . S
C464 H435 0.930 . S
C464 C459 1.261 . S
C464 C463 1.312 . S
C465 O437 1.214 . S
C465 O445 1.234 . S
C466 H438 0.929 . S
C466 C469 1.391 1_556 S
C466 C471 1.391 . S
C467 H439 0.929 . S
C467 C468 1.390 1_556 S
C467 N470 1.391 . S
C468 H440 0.930 . S
C468 C467 1.390 1_554 S
C468 C469 1.392 . S
C469 H441 0.929 . S
C469 C466 1.391 1_554 S
C469 C468 1.392 . S
N470 Co414 2.257 . S
N470 C467 1.391 . S
N470 C471 1.388 . S
C471 H442 0.930 . S
C471 C466 1.391 . S
C471 N470 1.388 . S
Co472 O474 2.143 . S
Co472 O480 2.074 . S
Co472 O483 2.093 . S
Co472 O496 2.097 . S
Co472 N513 2.151 . S
Co472 N521 2.214 . S
Co473 O474 2.160 . S
Co473 O479 2.058 . S
Co473 O489 2.057 . S
Co473 O504 2.037 . S
Co473 N508 2.145 . S
Co473 N529 2.257 . S
O474 Co472 2.143 . S
O474 Co473 2.160 . S
C475 O476 1.278 . S
C475 O483 1.224 . S
O476 C475 1.278 . S
C477 O478 1.245 . S
C477 O489 1.232 . S
O478 C477 1.245 . S
O479 Co473 2.058 . S
O479 C505 1.269 . S
O480 Co472 2.074 . S
O480 C505 1.257 . S
H481 C506 0.930 . S
H482 C512 0.930 . S
O483 Co472 2.093 . S
O483 C475 1.224 . S
H484 C516 0.929 . S
H485 C518 0.930 . S
H486 C519 0.930 . S
H487 C517 0.929 . S
H488 C520 0.928 . S
O489 Co473 2.057 . S
O489 C477 1.232 . S
H490 C509 0.929 . S
H491 C510 0.929 . S
H492 C522 0.982 . S
H493 C514 0.929 . S
H494 C523 0.930 . S
H495 C515 0.931 . S
O496 Co472 2.097 . S
O496 C524 1.214 . S
H497 C525 0.929 . S
H498 C526 0.929 . S
H499 C527 0.930 . S
H500 C528 0.929 . S
H501 C530 0.930 . S
H502 C507 0.930 . S
H503 C511 0.930 . S
O504 Co473 2.037 . S
O504 C524 1.234 . S
C505 O479 1.269 . S
C505 O480 1.257 . S
C506 H481 0.930 . S
C506 C509 1.388 . S
C506 C511 1.418 . S
C507 H502 0.930 . S
C507 C510 1.404 . S
C507 C511 1.353 . S
N508 Co473 2.145 . S
N508 C509 1.397 . S
N508 C510 1.334 . S
C509 H490 0.929 . S
C509 C506 1.388 . S
C509 N508 1.397 . S
C510 H491 0.929 . S
C510 C507 1.404 . S
C510 N508 1.334 . S
C511 H503 0.930 . S
C511 C506 1.418 . S
C511 C507 1.353 . S
C512 H482 0.930 . S
C512 N513 1.330 . S
C512 C514 1.446 . S
N513 Co472 2.151 . S
N513 C512 1.330 . S
N513 C517 1.418 . S
C514 H493 0.929 . S
C514 C512 1.446 . S
C514 C515 1.332 . S
C515 H495 0.931 . S
C515 C514 1.332 . S
C515 C516 1.267 . S
C516 H484 0.929 . S
C516 C515 1.267 . S
C516 C517 1.251 . S
C517 H487 0.929 . S
C517 N513 1.418 . S
C517 C516 1.251 . S
C518 H485 0.930 . S
C518 C520 1.406 . S
C518 C523 1.261 . S
C519 H486 0.930 . S
C519 N521 1.325 . S
C519 C522 1.357 . S
C520 H488 0.928 . S
C520 C518 1.406 . S
C520 N521 1.261 . S
N521 Co472 2.214 . S
N521 C519 1.325 . S
N521 C520 1.261 . S
C522 H492 0.982 . S
C522 C519 1.357 . S
C522 C523 1.312 . S
C523 H494 0.930 . S
C523 C518 1.261 . S
C523 C522 1.312 . S
C524 O496 1.214 . S
C524 O504 1.234 . S
C525 H497 0.929 . S
C525 C528 1.391 1_556 S
C525 C530 1.391 . S
C526 H498 0.929 . S
C526 C527 1.390 1_556 S
C526 N529 1.391 . S
C527 H499 0.930 . S
C527 C526 1.390 1_554 S
C527 C528 1.392 . S
C528 H500 0.929 . S
C528 C525 1.391 1_554 S
C528 C527 1.392 . S
N529 Co473 2.257 . S
N529 C526 1.391 . S
N529 C530 1.388 . S
C530 H501 0.930 . S
C530 C525 1.391 . S
C530 N529 1.388 . S
Co531 O533 2.143 . S
Co531 O539 2.074 . S
Co531 O542 2.093 . S
Co531 O555 2.097 . S
Co531 N572 2.151 . S
Co531 N580 2.214 . S
Co532 O533 2.160 . S
Co532 O538 2.058 . S
Co532 O548 2.057 . S
Co532 O563 2.037 . S
Co532 N567 2.145 . S
Co532 N588 2.257 . S
O533 Co531 2.143 . S
O533 Co532 2.160 . S
C534 O535 1.278 . S
C534 O542 1.224 . S
O535 C534 1.278 . S
C536 O537 1.245 . S
C536 O548 1.232 . S
O537 C536 1.245 . S
O538 Co532 2.058 . S
O538 C564 1.269 . S
O539 Co531 2.074 . S
O539 C564 1.257 . S
H540 C565 0.930 . S
H541 C571 0.930 . S
O542 Co531 2.093 . S
O542 C534 1.224 . S
H543 C575 0.929 . S
H544 C577 0.930 . S
H545 C578 0.930 . S
H546 C576 0.929 . S
H547 C579 0.928 . S
O548 Co532 2.057 . S
O548 C536 1.232 . S
H549 C568 0.929 . S
H550 C569 0.929 . S
H551 C581 0.931 . S
H552 C573 0.929 . S
H553 C582 0.930 . S
H554 C574 0.931 . S
O555 Co531 2.097 . S
O555 C583 1.214 . S
H556 C584 0.929 . S
H557 C585 0.929 . S
H558 C586 0.930 . S
H559 C587 0.929 . S
H560 C589 0.930 . S
H561 C566 0.930 . S
H562 C570 0.930 . S
O563 Co532 2.037 . S
O563 C583 1.234 . S
C564 O538 1.269 . S
C564 O539 1.257 . S
C565 H540 0.930 . S
C565 C568 1.388 . S
C565 C570 1.418 . S
C566 H561 0.930 . S
C566 C569 1.404 . S
C566 C570 1.353 . S
N567 Co532 2.145 . S
N567 C568 1.397 . S
N567 C569 1.334 . S
C568 H549 0.929 . S
C568 C565 1.388 . S
C568 N567 1.397 . S
C569 H550 0.929 . S
C569 C566 1.404 . S
C569 N567 1.334 . S
C570 H562 0.930 . S
C570 C565 1.418 . S
C570 C566 1.353 . S
C571 H541 0.930 . S
C571 N572 1.330 . S
C571 C573 1.446 . S
N572 Co531 2.151 . S
N572 C571 1.330 . S
N572 C576 1.418 . S
C573 H552 0.929 . S
C573 C571 1.446 . S
C573 C574 1.332 . S
C574 H554 0.931 . S
C574 C573 1.332 . S
C574 C575 1.267 . S
C575 H543 0.929 . S
C575 C574 1.267 . S
C575 C576 1.251 . S
C576 H546 0.929 . S
C576 N572 1.418 . S
C576 C575 1.251 . S
C577 H544 0.930 . S
C577 C579 1.406 . S
C577 C582 1.261 . S
C578 H545 0.930 . S
C578 N580 1.325 . S
C578 C581 1.357 . S
C579 H547 0.928 . S
C579 C577 1.406 . S
C579 N580 1.261 . S
N580 Co531 2.214 . S
N580 C578 1.325 . S
N580 C579 1.261 . S
C581 H551 0.931 . S
C581 C578 1.357 . S
C581 C582 1.312 . S
C582 H553 0.930 . S
C582 C577 1.261 . S
C582 C581 1.312 . S
C583 O555 1.214 . S
C583 O563 1.234 . S
C584 H556 0.929 . S
C584 C587 1.391 . S
C584 C589 1.391 . S
C585 H557 0.929 . S
C585 C586 1.390 . S
C585 N588 1.391 . S
C586 H558 0.930 . S
C586 C585 1.390 . S
C586 C587 1.392 . S
C587 H559 0.929 . S
C587 C584 1.391 . S
C587 C586 1.392 . S
N588 Co532 2.257 . S
N588 C585 1.391 . S
N588 C589 1.388 . S
C589 H560 0.930 . S
C589 C584 1.391 . S
C589 N588 1.388 . S
Co590 O592 2.143 . S
Co590 O598 2.074 . S
Co590 O601 2.093 . S
Co590 O614 2.097 . S
Co590 N631 2.151 . S
Co590 N639 2.214 . S
Co591 O592 2.160 . S
Co591 O597 2.058 . S
Co591 O607 2.057 . S
Co591 O622 2.037 . S
Co591 N626 2.145 . S
Co591 N647 2.257 . S
O592 Co590 2.143 . S
O592 Co591 2.160 . S
C593 O594 1.278 . S
C593 O601 1.224 . S
O594 C593 1.278 . S
C595 O596 1.245 . S
C595 O607 1.232 . S
O596 C595 1.245 . S
O597 Co591 2.058 . S
O597 C623 1.269 . S
O598 Co590 2.074 . S
O598 C623 1.257 . S
H599 C624 0.930 . S
H600 C630 0.930 . S
O601 Co590 2.093 . S
O601 C593 1.224 . S
H602 C634 0.929 . S
H603 C636 0.930 . S
H604 C637 0.930 . S
H605 C635 0.929 . S
H606 C638 0.928 . S
O607 Co591 2.057 . S
O607 C595 1.232 . S
H608 C627 0.929 . S
H609 C628 0.929 . S
H610 C640 0.982 . S
H611 C632 0.929 . S
H612 C641 0.930 . S
H613 C633 0.931 . S
O614 Co590 2.097 . S
O614 C642 1.214 . S
H615 C643 0.929 . S
H616 C644 0.929 . S
H617 C645 0.930 . S
H618 C646 0.929 . S
H619 C648 0.930 . S
H620 C625 0.930 . S
H621 C629 0.930 . S
O622 Co591 2.037 . S
O622 C642 1.234 . S
C623 O597 1.269 . S
C623 O598 1.257 . S
C624 H599 0.930 . S
C624 C627 1.388 . S
C624 C629 1.418 . S
C625 H620 0.930 . S
C625 C628 1.404 . S
C625 C629 1.353 . S
N626 Co591 2.145 . S
N626 C627 1.397 . S
N626 C628 1.334 . S
C627 H608 0.929 . S
C627 C624 1.388 . S
C627 N626 1.397 . S
C628 H609 0.929 . S
C628 C625 1.404 . S
C628 N626 1.334 . S
C629 H621 0.930 . S
C629 C624 1.418 . S
C629 C625 1.353 . S
C630 H600 0.930 . S
C630 N631 1.330 . S
C630 C632 1.446 . S
N631 Co590 2.151 . S
N631 C630 1.330 . S
N631 C635 1.418 . S
C632 H611 0.929 . S
C632 C630 1.446 . S
C632 C633 1.332 . S
C633 H613 0.931 . S
C633 C632 1.332 . S
C633 C634 1.267 . S
C634 H602 0.929 . S
C634 C633 1.267 . S
C634 C635 1.251 . S
C635 H605 0.929 . S
C635 N631 1.418 . S
C635 C634 1.251 . S
C636 H603 0.930 . S
C636 C638 1.406 . S
C636 C641 1.261 . S
C637 H604 0.930 . S
C637 N639 1.325 . S
C637 C640 1.357 . S
C638 H606 0.928 . S
C638 C636 1.406 . S
C638 N639 1.261 . S
N639 Co590 2.214 . S
N639 C637 1.325 . S
N639 C638 1.261 . S
C640 H610 0.982 . S
C640 C637 1.357 . S
C640 C641 1.312 . S
C641 H612 0.930 . S
C641 C636 1.261 . S
C641 C640 1.312 . S
C642 O614 1.214 . S
C642 O622 1.234 . S
C643 H615 0.929 . S
C643 C646 1.391 . S
C643 C648 1.391 . S
C644 H616 0.929 . S
C644 C645 1.390 . S
C644 N647 1.391 . S
C645 H617 0.930 . S
C645 C644 1.390 . S
C645 C646 1.392 . S
C646 H618 0.929 . S
C646 C643 1.391 . S
C646 C645 1.392 . S
N647 Co591 2.257 . S
N647 C644 1.391 . S
N647 C648 1.388 . S
C648 H619 0.930 . S
C648 C643 1.391 . S
C648 N647 1.388 . S
Co649 O651 2.143 . S
Co649 O657 2.074 . S
Co649 O660 2.093 . S
Co649 O673 2.097 . S
Co649 N690 2.151 . S
Co649 N698 2.214 . S
Co650 O651 2.160 . S
Co650 O656 2.058 . S
Co650 O666 2.057 . S
Co650 O681 2.037 . S
Co650 N685 2.145 . S
Co650 N706 2.257 . S
O651 Co649 2.143 . S
O651 Co650 2.160 . S
C652 O653 1.278 . S
C652 O660 1.224 . S
O653 C652 1.278 . S
C654 O655 1.245 . S
C654 O666 1.232 . S
O655 C654 1.245 . S
O656 Co650 2.058 . S
O656 C682 1.269 . S
O657 Co649 2.074 . S
O657 C682 1.257 . S
H658 C683 0.930 . S
H659 C689 0.930 . S
O660 Co649 2.093 . S
O660 C652 1.224 . S
H661 C693 0.929 . S
H662 C695 0.930 . S
H663 C696 0.930 . S
H664 C694 0.929 . S
H665 C697 0.928 . S
O666 Co650 2.057 . S
O666 C654 1.232 . S
H667 C686 0.929 . S
H668 C687 0.929 . S
H669 C699 0.973 . S
H670 C691 0.929 . S
H671 C700 0.930 . S
H672 C692 0.931 . S
O673 Co649 2.097 . S
O673 C701 1.214 . S
H674 C702 0.929 . S
H675 C703 0.929 . S
H676 C704 0.930 . S
H677 C705 0.929 . S
H678 C707 0.930 . S
H679 C684 0.930 . S
H680 C688 0.930 . S
O681 Co650 2.037 . S
O681 C701 1.234 . S
C682 O656 1.269 . S
C682 O657 1.257 . S
C683 H658 0.930 . S
C683 C686 1.388 . S
C683 C688 1.418 . S
C684 H679 0.930 . S
C684 C687 1.404 . S
C684 C688 1.353 . S
N685 Co650 2.145 . S
N685 C686 1.397 . S
N685 C687 1.334 . S
C686 H667 0.929 . S
C686 C683 1.388 . S
C686 N685 1.397 . S
C687 H668 0.929 . S
C687 C684 1.404 . S
C687 N685 1.334 . S
C688 H680 0.930 . S
C688 C683 1.418 . S
C688 C684 1.353 . S
C689 H659 0.930 . S
C689 N690 1.330 . S
C689 C691 1.446 . S
N690 Co649 2.151 . S
N690 C689 1.330 . S
N690 C694 1.418 . S
C691 H670 0.929 . S
C691 C689 1.446 . S
C691 C692 1.332 . S
C692 H672 0.931 . S
C692 C691 1.332 . S
C692 C693 1.267 . S
C693 H661 0.929 . S
C693 C692 1.267 . S
C693 C694 1.251 . S
C694 H664 0.929 . S
C694 N690 1.418 . S
C694 C693 1.251 . S
C695 H662 0.930 . S
C695 C697 1.406 . S
C695 C700 1.261 . S
C696 H663 0.930 . S
C696 N698 1.325 . S
C696 C699 1.357 . S
C697 H665 0.928 . S
C697 C695 1.406 . S
C697 N698 1.261 . S
N698 Co649 2.214 . S
N698 C696 1.325 . S
N698 C697 1.261 . S
C699 H669 0.973 . S
C699 C696 1.357 . S
C699 C700 1.312 . S
C700 H671 0.930 . S
C700 C695 1.261 . S
C700 C699 1.312 . S
C701 O673 1.214 . S
C701 O681 1.234 . S
C702 H674 0.929 . S
C702 C705 1.391 . S
C702 C707 1.391 . S
C703 H675 0.929 . S
C703 C704 1.390 . S
C703 N706 1.391 . S
C704 H676 0.930 . S
C704 C703 1.390 . S
C704 C705 1.392 . S
C705 H677 0.929 . S
C705 C702 1.391 . S
C705 C704 1.392 . S
N706 Co650 2.257 . S
N706 C703 1.391 . S
N706 C707 1.388 . S
C707 H678 0.930 . S
C707 C702 1.391 . S
C707 N706 1.388 . S
Co708 O710 2.143 . S
Co708 O716 2.074 . S
Co708 O719 2.093 . S
Co708 O732 2.097 . S
Co708 N749 2.151 . S
Co708 N757 2.214 . S
Co709 O710 2.160 . S
Co709 O715 2.058 . S
Co709 O725 2.057 . S
Co709 O740 2.037 . S
Co709 N744 2.145 . S
Co709 N765 2.257 . S
O710 Co708 2.143 . S
O710 Co709 2.160 . S
C711 O712 1.278 . S
C711 O719 1.224 . S
O712 C711 1.278 . S
C713 O714 1.245 . S
C713 O725 1.232 . S
O714 C713 1.245 . S
O715 Co709 2.058 . S
O715 C741 1.269 . S
O716 Co708 2.074 . S
O716 C741 1.257 . S
H717 C742 0.930 . S
H718 C748 0.930 . S
O719 Co708 2.093 . S
O719 C711 1.224 . S
H720 C752 0.929 . S
H721 C754 0.930 . S
H722 C755 0.930 . S
H723 C753 0.929 . S
H724 C756 0.928 . S
O725 Co709 2.057 . S
O725 C713 1.232 . S
H726 C745 0.929 . S
H727 C746 0.929 . S
H728 C758 0.931 . S
H729 C750 0.929 . S
H730 C759 0.930 . S
H731 C751 0.931 . S
O732 Co708 2.097 . S
O732 C760 1.214 . S
H733 C761 0.929 . S
H734 C762 0.929 . S
H735 C763 0.930 . S
H736 C764 0.929 . S
H737 C766 0.930 . S
H738 C743 0.930 . S
H739 C747 0.930 . S
O740 Co709 2.037 . S
O740 C760 1.234 . S
C741 O715 1.269 . S
C741 O716 1.257 . S
C742 H717 0.930 . S
C742 C745 1.388 . S
C742 C747 1.418 . S
C743 H738 0.930 . S
C743 C746 1.404 . S
C743 C747 1.353 . S
N744 Co709 2.145 . S
N744 C745 1.397 . S
N744 C746 1.334 . S
C745 H726 0.929 . S
C745 C742 1.388 . S
C745 N744 1.397 . S
C746 H727 0.929 . S
C746 C743 1.404 . S
C746 N744 1.334 . S
C747 H739 0.930 . S
C747 C742 1.418 . S
C747 C743 1.353 . S
C748 H718 0.930 . S
C748 N749 1.330 . S
C748 C750 1.446 . S
N749 Co708 2.151 . S
N749 C748 1.330 . S
N749 C753 1.418 . S
C750 H729 0.929 . S
C750 C748 1.446 . S
C750 C751 1.332 . S
C751 H731 0.931 . S
C751 C750 1.332 . S
C751 C752 1.267 . S
C752 H720 0.929 . S
C752 C751 1.267 . S
C752 C753 1.251 . S
C753 H723 0.929 . S
C753 N749 1.418 . S
C753 C752 1.251 . S
C754 H721 0.930 . S
C754 C756 1.406 . S
C754 C759 1.261 . S
C755 H722 0.930 . S
C755 N757 1.325 . S
C755 C758 1.357 . S
C756 H724 0.928 . S
C756 C754 1.406 . S
C756 N757 1.261 . S
N757 Co708 2.214 . S
N757 C755 1.325 . S
N757 C756 1.261 . S
C758 H728 0.931 . S
C758 C755 1.357 . S
C758 C759 1.312 . S
C759 H730 0.930 . S
C759 C754 1.261 . S
C759 C758 1.312 . S
C760 O732 1.214 . S
C760 O740 1.234 . S
C761 H733 0.929 . S
C761 C764 1.391 . S
C761 C766 1.391 . S
C762 H734 0.929 . S
C762 C763 1.390 . S
C762 N765 1.391 . S
C763 H735 0.930 . S
C763 C762 1.390 . S
C763 C764 1.392 . S
C764 H736 0.929 . S
C764 C761 1.391 . S
C764 C763 1.392 . S
N765 Co709 2.257 . S
N765 C762 1.391 . S
N765 C766 1.388 . S
C766 H737 0.930 . S
C766 C761 1.391 . S
C766 N765 1.388 . S
Co767 O769 2.143 . S
Co767 O775 2.074 . S
Co767 O778 2.093 . S
Co767 O791 2.097 . S
Co767 N808 2.151 . S
Co767 N816 2.214 . S
Co768 O769 2.160 . S
Co768 O774 2.058 . S
Co768 O784 2.057 . S
Co768 O799 2.037 . S
Co768 N803 2.145 . S
Co768 N824 2.257 . S
O769 Co767 2.143 . S
O769 Co768 2.160 . S
C770 O771 1.278 . S
C770 O778 1.224 . S
O771 C770 1.278 . S
C772 O773 1.245 . S
C772 O784 1.232 . S
O773 C772 1.245 . S
O774 Co768 2.058 . S
O774 C800 1.269 . S
O775 Co767 2.074 . S
O775 C800 1.257 . S
H776 C801 0.930 . S
H777 C807 0.930 . S
O778 Co767 2.093 . S
O778 C770 1.224 . S
H779 C811 0.929 . S
H780 C813 0.930 . S
H781 C814 0.930 . S
H782 C812 0.929 . S
H783 C815 0.928 . S
O784 Co768 2.057 . S
O784 C772 1.232 . S
H785 C804 0.929 . S
H786 C805 0.929 . S
H787 C817 0.931 . S
H788 C809 0.929 . S
H789 C818 0.930 . S
H790 C810 0.931 . S
O791 Co767 2.097 . S
O791 C819 1.214 . S
H792 C820 0.929 . S
H793 C821 0.929 . S
H794 C822 0.930 . S
H795 C823 0.929 . S
H796 C825 0.930 . S
H797 C802 0.930 . S
H798 C806 0.930 . S
O799 Co768 2.037 . S
O799 C819 1.234 . S
C800 O774 1.269 . S
C800 O775 1.257 . S
C801 H776 0.930 . S
C801 C804 1.388 . S
C801 C806 1.418 . S
C802 H797 0.930 . S
C802 C805 1.404 . S
C802 C806 1.353 . S
N803 Co768 2.145 . S
N803 C804 1.397 . S
N803 C805 1.334 . S
C804 H785 0.929 . S
C804 C801 1.388 . S
C804 N803 1.397 . S
C805 H786 0.929 . S
C805 C802 1.404 . S
C805 N803 1.334 . S
C806 H798 0.930 . S
C806 C801 1.418 . S
C806 C802 1.353 . S
C807 H777 0.930 . S
C807 N808 1.330 . S
C807 C809 1.446 . S
N808 Co767 2.151 . S
N808 C807 1.330 . S
N808 C812 1.418 . S
C809 H788 0.929 . S
C809 C807 1.446 . S
C809 C810 1.332 . S
C810 H790 0.931 . S
C810 C809 1.332 . S
C810 C811 1.267 . S
C811 H779 0.929 . S
C811 C810 1.267 . S
C811 C812 1.251 . S
C812 H782 0.929 . S
C812 N808 1.418 . S
C812 C811 1.251 . S
C813 H780 0.930 . S
C813 C815 1.406 . S
C813 C818 1.261 . S
C814 H781 0.930 . S
C814 N816 1.325 . S
C814 C817 1.357 . S
C815 H783 0.928 . S
C815 C813 1.406 . S
C815 N816 1.261 . S
N816 Co767 2.214 . S
N816 C814 1.325 . S
N816 C815 1.261 . S
C817 H787 0.931 . S
C817 C814 1.357 . S
C817 C818 1.312 . S
C818 H789 0.930 . S
C818 C813 1.261 . S
C818 C817 1.312 . S
C819 O791 1.214 . S
C819 O799 1.234 . S
C820 H792 0.929 . S
C820 C823 1.391 . S
C820 C825 1.391 . S
C821 H793 0.929 . S
C821 C822 1.390 . S
C821 N824 1.391 . S
C822 H794 0.930 . S
C822 C821 1.390 . S
C822 C823 1.392 . S
C823 H795 0.929 . S
C823 C820 1.391 . S
C823 C822 1.392 . S
N824 Co768 2.257 . S
N824 C821 1.391 . S
N824 C825 1.388 . S
C825 H796 0.930 . S
C825 C820 1.391 . S
C825 N824 1.388 . S
Co826 O828 2.143 . S
Co826 O834 2.074 . S
Co826 O837 2.093 . S
Co826 O850 2.097 . S
Co826 N867 2.151 . S
Co826 N875 2.214 . S
Co827 O828 2.160 . S
Co827 O833 2.058 . S
Co827 O843 2.057 . S
Co827 O858 2.037 . S
Co827 N862 2.145 . S
Co827 N883 2.257 . S
O828 Co826 2.143 . S
O828 Co827 2.160 . S
C829 O830 1.278 . S
C829 O837 1.224 . S
O830 C829 1.278 . S
C831 O832 1.245 . S
C831 O843 1.232 . S
O832 C831 1.245 . S
O833 Co827 2.058 . S
O833 C859 1.269 . S
O834 Co826 2.074 . S
O834 C859 1.257 . S
H835 C860 0.930 . S
H836 C866 0.930 . S
O837 Co826 2.093 . S
O837 C829 1.224 . S
H838 C870 0.929 . S
H839 C872 0.930 . S
H840 C873 0.930 . S
H841 C871 0.929 . S
H842 C874 0.928 . S
O843 Co827 2.057 . S
O843 C831 1.232 . S
H844 C863 0.929 . S
H845 C864 0.929 . S
H846 C876 0.931 . S
H847 C868 0.929 . S
H848 C877 0.930 . S
H849 C869 0.931 . S
O850 Co826 2.097 . S
O850 C878 1.214 . S
H851 C879 0.929 . S
H852 C880 0.929 . S
H853 C881 0.930 . S
H854 C882 0.929 . S
H855 C884 0.930 . S
H856 C861 0.930 . S
H857 C865 0.930 . S
O858 Co827 2.037 . S
O858 C878 1.234 . S
C859 O833 1.269 . S
C859 O834 1.257 . S
C860 H835 0.930 . S
C860 C863 1.388 . S
C860 C865 1.418 . S
C861 H856 0.930 . S
C861 C864 1.404 . S
C861 C865 1.353 . S
N862 Co827 2.145 . S
N862 C863 1.397 . S
N862 C864 1.334 . S
C863 H844 0.929 . S
C863 C860 1.388 . S
C863 N862 1.397 . S
C864 H845 0.929 . S
C864 C861 1.404 . S
C864 N862 1.334 . S
C865 H857 0.930 . S
C865 C860 1.418 . S
C865 C861 1.353 . S
C866 H836 0.930 . S
C866 N867 1.330 . S
C866 C868 1.446 . S
N867 Co826 2.151 . S
N867 C866 1.330 . S
N867 C871 1.418 . S
C868 H847 0.929 . S
C868 C866 1.446 . S
C868 C869 1.332 . S
C869 H849 0.931 . S
C869 C868 1.332 . S
C869 C870 1.267 . S
C870 H838 0.929 . S
C870 C869 1.267 . S
C870 C871 1.251 . S
C871 H841 0.929 . S
C871 N867 1.418 . S
C871 C870 1.251 . S
C872 H839 0.930 . S
C872 C874 1.406 . S
C872 C877 1.261 . S
C873 H840 0.930 . S
C873 N875 1.325 . S
C873 C876 1.357 . S
C874 H842 0.928 . S
C874 C872 1.406 . S
C874 N875 1.261 . S
N875 Co826 2.214 . S
N875 C873 1.325 . S
N875 C874 1.261 . S
C876 H846 0.931 . S
C876 C873 1.357 . S
C876 C877 1.312 . S
C877 H848 0.930 . S
C877 C872 1.261 . S
C877 C876 1.312 . S
C878 O850 1.214 . S
C878 O858 1.234 . S
C879 H851 0.929 . S
C879 C882 1.391 . S
C879 C884 1.391 . S
C880 H852 0.929 . S
C880 C881 1.390 . S
C880 N883 1.391 . S
C881 H853 0.930 . S
C881 C880 1.390 . S
C881 C882 1.392 . S
C882 H854 0.929 . S
C882 C879 1.391 . S
C882 C881 1.392 . S
N883 Co827 2.257 . S
N883 C880 1.391 . S
N883 C884 1.388 . S
C884 H855 0.930 . S
C884 C879 1.391 . S
C884 N883 1.388 . S
Co885 O887 2.143 . S
Co885 O893 2.074 . S
Co885 O896 2.093 . S
Co885 O909 2.097 . S
Co885 N926 2.151 . S
Co885 N934 2.214 . S
Co886 O887 2.160 . S
Co886 O892 2.058 . S
Co886 O902 2.057 . S
Co886 O917 2.037 . S
Co886 N921 2.145 . S
Co886 N942 2.257 . S
O887 Co885 2.143 . S
O887 Co886 2.160 . S
C888 O889 1.278 . S
C888 O896 1.224 . S
O889 C888 1.278 . S
C890 O891 1.245 . S
C890 O902 1.232 . S
O891 C890 1.245 . S
O892 Co886 2.058 . S
O892 C918 1.269 . S
O893 Co885 2.074 . S
O893 C918 1.257 . S
H894 C919 0.930 . S
H895 C925 0.930 . S
O896 Co885 2.093 . S
O896 C888 1.224 . S
H897 C929 0.929 . S
H898 C931 0.930 . S
H899 C932 0.930 . S
H900 C930 0.929 . S
H901 C933 0.928 . S
O902 Co886 2.057 . S
O902 C890 1.232 . S
H903 C922 0.929 . S
H904 C923 0.929 . S
H905 C935 0.931 . S
H906 C927 0.929 . S
H907 C936 0.930 . S
H908 C928 0.931 . S
O909 Co885 2.097 . S
O909 C937 1.214 . S
H910 C938 0.929 . S
H911 C939 0.929 . S
H912 C940 0.930 . S
H913 C941 0.929 . S
H914 C943 0.930 . S
H915 C920 0.930 . S
H916 C924 0.930 . S
O917 Co886 2.037 . S
O917 C937 1.234 . S
C918 O892 1.269 . S
C918 O893 1.257 . S
C919 H894 0.930 . S
C919 C922 1.388 . S
C919 C924 1.418 . S
C920 H915 0.930 . S
C920 C923 1.404 . S
C920 C924 1.353 . S
N921 Co886 2.145 . S
N921 C922 1.397 . S
N921 C923 1.334 . S
C922 H903 0.929 . S
C922 C919 1.388 . S
C922 N921 1.397 . S
C923 H904 0.929 . S
C923 C920 1.404 . S
C923 N921 1.334 . S
C924 H916 0.930 . S
C924 C919 1.418 . S
C924 C920 1.353 . S
C925 H895 0.930 . S
C925 N926 1.330 . S
C925 C927 1.446 . S
N926 Co885 2.151 . S
N926 C925 1.330 . S
N926 C930 1.418 . S
C927 H906 0.929 . S
C927 C925 1.446 . S
C927 C928 1.332 . S
C928 H908 0.931 . S
C928 C927 1.332 . S
C928 C929 1.267 . S
C929 H897 0.929 . S
C929 C928 1.267 . S
C929 C930 1.251 . S
C930 H900 0.929 . S
C930 N926 1.418 . S
C930 C929 1.251 . S
C931 H898 0.930 . S
C931 C933 1.406 . S
C931 C936 1.261 . S
C932 H899 0.930 . S
C932 N934 1.325 . S
C932 C935 1.357 . S
C933 H901 0.928 . S
C933 C931 1.406 . S
C933 N934 1.261 . S
N934 Co885 2.214 . S
N934 C932 1.325 . S
N934 C933 1.261 . S
C935 H905 0.931 . S
C935 C932 1.357 . S
C935 C936 1.312 . S
C936 H907 0.930 . S
C936 C931 1.261 . S
C936 C935 1.312 . S
C937 O909 1.214 . S
C937 O917 1.234 . S
C938 H910 0.929 . S
C938 C941 1.391 . S
C938 C943 1.391 . S
C939 H911 0.929 . S
C939 C940 1.390 . S
C939 N942 1.391 . S
C940 H912 0.930 . S
C940 C939 1.390 . S
C940 C941 1.392 . S
C941 H913 0.929 . S
C941 C938 1.391 . S
C941 C940 1.392 . S
N942 Co886 2.257 . S
N942 C939 1.391 . S
N942 C943 1.388 . S
C943 H914 0.930 . S
C943 C938 1.391 . S
C943 N942 1.388 . S
Co944 O946 2.143 . S
Co944 O952 2.074 . S
Co944 O955 2.093 . S
Co944 O968 2.097 . S
Co944 N985 2.151 . S
Co944 N993 2.214 . S
Co945 O946 2.160 . S
Co945 O951 2.058 . S
Co945 O961 2.057 . S
Co945 O976 2.037 . S
Co945 N980 2.145 . S
Co945 N1001 2.257 . S
O946 Co944 2.143 . S
O946 Co945 2.160 . S
C947 O948 1.278 . S
C947 O955 1.224 . S
O948 C947 1.278 . S
C949 O950 1.245 . S
C949 O961 1.232 . S
O950 C949 1.245 . S
O951 Co945 2.058 . S
O951 C977 1.269 . S
O952 Co944 2.074 . S
O952 C977 1.257 . S
H953 C978 0.930 . S
H954 C984 0.930 . S
O955 Co944 2.093 . S
O955 C947 1.224 . S
H956 C988 0.929 . S
H957 C990 0.930 . S
H958 C991 0.930 . S
H959 C989 0.929 . S
H960 C992 0.928 . S
O961 Co945 2.057 . S
O961 C949 1.232 . S
H962 C981 0.929 . S
H963 C982 0.929 . S
H964 C994 0.931 . S
H965 C986 0.929 . S
H966 C995 0.930 . S
H967 C987 0.931 . S
O968 Co944 2.097 . S
O968 C996 1.214 . S
H969 C997 0.929 . S
H970 C998 0.929 . S
H971 C999 0.930 . S
H972 C1000 0.929 . S
H973 C1002 0.930 . S
H974 C979 0.930 . S
H975 C983 0.930 . S
O976 Co945 2.037 . S
O976 C996 1.234 . S
C977 O951 1.269 . S
C977 O952 1.257 . S
C978 H953 0.930 . S
C978 C981 1.388 . S
C978 C983 1.418 . S
C979 H974 0.930 . S
C979 C982 1.404 . S
C979 C983 1.353 . S
N980 Co945 2.145 . S
N980 C981 1.397 . S
N980 C982 1.334 . S
C981 H962 0.929 . S
C981 C978 1.388 . S
C981 N980 1.397 . S
C982 H963 0.929 . S
C982 C979 1.404 . S
C982 N980 1.334 . S
C983 H975 0.930 . S
C983 C978 1.418 . S
C983 C979 1.353 . S
C984 H954 0.930 . S
C984 N985 1.330 . S
C984 C986 1.446 . S
N985 Co944 2.151 . S
N985 C984 1.330 . S
N985 C989 1.418 . S
C986 H965 0.929 . S
C986 C984 1.446 . S
C986 C987 1.332 . S
C987 H967 0.931 . S
C987 C986 1.332 . S
C987 C988 1.267 . S
C988 H956 0.929 . S
C988 C987 1.267 . S
C988 C989 1.251 . S
C989 H959 0.929 . S
C989 N985 1.418 . S
C989 C988 1.251 . S
C990 H957 0.930 . S
C990 C992 1.406 . S
C990 C995 1.261 . S
C991 H958 0.930 . S
C991 N993 1.325 . S
C991 C994 1.357 . S
C992 H960 0.928 . S
C992 C990 1.406 . S
C992 N993 1.261 . S
N993 Co944 2.214 . S
N993 C991 1.325 . S
N993 C992 1.261 . S
C994 H964 0.931 . S
C994 C991 1.357 . S
C994 C995 1.312 . S
C995 H966 0.930 . S
C995 C990 1.261 . S
C995 C994 1.312 . S
C996 O968 1.214 . S
C996 O976 1.234 . S
C997 H969 0.929 . S
C997 C1000 1.391 . S
C997 C1002 1.391 . S
C998 H970 0.929 . S
C998 C999 1.390 . S
C998 N1001 1.391 . S
C999 H971 0.930 . S
C999 C998 1.390 . S
C999 C1000 1.392 . S
C1000 H972 0.929 . S
C1000 C997 1.391 . S
C1000 C999 1.392 . S
N1001 Co945 2.257 . S
N1001 C998 1.391 . S
N1001 C1002 1.388 . S
C1002 H973 0.930 . S
C1002 C997 1.391 . S
C1002 N1001 1.388 . S
Co1003 O1005 2.143 . S
Co1003 O1011 2.074 . S
Co1003 O1014 2.093 . S
Co1003 O1027 2.097 . S
Co1003 N1044 2.151 . S
Co1003 N1052 2.214 . S
Co1004 O1005 2.160 . S
Co1004 O1010 2.058 . S
Co1004 O1020 2.057 . S
Co1004 O1035 2.037 . S
Co1004 N1039 2.145 . S
Co1004 N1060 2.257 . S
O1005 Co1003 2.143 . S
O1005 Co1004 2.160 . S
C1006 O1007 1.278 . S
C1006 O1014 1.224 . S
O1007 C1006 1.278 . S
C1008 O1009 1.245 . S
C1008 O1020 1.232 . S
O1009 C1008 1.245 . S
O1010 Co1004 2.058 . S
O1010 C1036 1.269 . S
O1011 Co1003 2.074 . S
O1011 C1036 1.257 . S
H1012 C1037 0.930 . S
H1013 C1043 0.930 . S
O1014 Co1003 2.093 . S
O1014 C1006 1.224 . S
H1015 C1047 0.929 . S
H1016 C1049 0.930 . S
H1017 C1050 0.930 . S
H1018 C1048 0.929 . S
H1019 C1051 0.928 . S
O1020 Co1004 2.057 . S
O1020 C1008 1.232 . S
H1021 C1040 0.929 . S
H1022 C1041 0.929 . S
H1023 C1053 0.931 . S
H1024 C1045 0.929 . S
H1025 C1054 0.930 . S
H1026 C1046 0.931 . S
O1027 Co1003 2.097 . S
O1027 C1055 1.214 . S
H1028 C1056 0.929 . S
H1029 C1057 0.929 . S
H1030 C1058 0.930 . S
H1031 C1059 0.929 . S
H1032 C1061 0.930 . S
H1033 C1038 0.930 . S
H1034 C1042 0.930 . S
O1035 Co1004 2.037 . S
O1035 C1055 1.234 . S
C1036 O1010 1.269 . S
C1036 O1011 1.257 . S
C1037 H1012 0.930 . S
C1037 C1040 1.388 . S
C1037 C1042 1.418 . S
C1038 H1033 0.930 . S
C1038 C1041 1.404 . S
C1038 C1042 1.353 . S
N1039 Co1004 2.145 . S
N1039 C1040 1.397 . S
N1039 C1041 1.334 . S
C1040 H1021 0.929 . S
C1040 C1037 1.388 . S
C1040 N1039 1.397 . S
C1041 H1022 0.929 . S
C1041 C1038 1.404 . S
C1041 N1039 1.334 . S
C1042 H1034 0.930 . S
C1042 C1037 1.418 . S
C1042 C1038 1.353 . S
C1043 H1013 0.930 . S
C1043 N1044 1.330 . S
C1043 C1045 1.446 . S
N1044 Co1003 2.151 . S
N1044 C1043 1.330 . S
N1044 C1048 1.418 . S
C1045 H1024 0.929 . S
C1045 C1043 1.446 . S
C1045 C1046 1.332 . S
C1046 H1026 0.931 . S
C1046 C1045 1.332 . S
C1046 C1047 1.267 . S
C1047 H1015 0.929 . S
C1047 C1046 1.267 . S
C1047 C1048 1.251 . S
C1048 H1018 0.929 . S
C1048 N1044 1.418 . S
C1048 C1047 1.251 . S
C1049 H1016 0.930 . S
C1049 C1051 1.406 . S
C1049 C1054 1.261 . S
C1050 H1017 0.930 . S
C1050 N1052 1.325 . S
C1050 C1053 1.357 . S
C1051 H1019 0.928 . S
C1051 C1049 1.406 . S
C1051 N1052 1.261 . S
N1052 Co1003 2.214 . S
N1052 C1050 1.325 . S
N1052 C1051 1.261 . S
C1053 H1023 0.931 . S
C1053 C1050 1.357 . S
C1053 C1054 1.312 . S
C1054 H1025 0.930 . S
C1054 C1049 1.261 . S
C1054 C1053 1.312 . S
C1055 O1027 1.214 . S
C1055 O1035 1.234 . S
C1056 H1028 0.929 . S
C1056 C1059 1.391 . S
C1056 C1061 1.391 . S
C1057 H1029 0.929 . S
C1057 C1058 1.390 . S
C1057 N1060 1.391 . S
C1058 H1030 0.930 . S
C1058 C1057 1.390 . S
C1058 C1059 1.392 . S
C1059 H1031 0.929 . S
C1059 C1056 1.391 . S
C1059 C1058 1.392 . S
N1060 Co1004 2.257 . S
N1060 C1057 1.391 . S
N1060 C1061 1.388 . S
C1061 H1032 0.930 . S
C1061 C1056 1.391 . S
C1061 N1060 1.388 . S
Co1062 O1064 2.143 . S
Co1062 O1070 2.074 . S
Co1062 O1073 2.093 . S
Co1062 O1086 2.097 . S
Co1062 N1103 2.151 . S
Co1062 N1111 2.214 . S
Co1063 O1064 2.160 . S
Co1063 O1069 2.058 . S
Co1063 O1079 2.057 . S
Co1063 O1094 2.037 . S
Co1063 N1098 2.145 . S
Co1063 N1119 2.257 . S
O1064 Co1062 2.143 . S
O1064 Co1063 2.160 . S
C1065 O1066 1.278 . S
C1065 O1073 1.224 . S
O1066 C1065 1.278 . S
C1067 O1068 1.245 . S
C1067 O1079 1.232 . S
O1068 C1067 1.245 . S
O1069 Co1063 2.058 . S
O1069 C1095 1.269 . S
O1070 Co1062 2.074 . S
O1070 C1095 1.257 . S
H1071 C1096 0.930 . S
H1072 C1102 0.930 . S
O1073 Co1062 2.093 . S
O1073 C1065 1.224 . S
H1074 C1106 0.929 . S
H1075 C1108 0.930 . S
H1076 C1109 0.930 . S
H1077 C1107 0.929 . S
H1078 C1110 0.928 . S
O1079 Co1063 2.057 . S
O1079 C1067 1.232 . S
H1080 C1099 0.929 . S
H1081 C1100 0.929 . S
H1082 C1112 0.931 . S
H1083 C1104 0.929 . S
H1084 C1113 0.930 . S
H1085 C1105 0.931 . S
O1086 Co1062 2.097 . S
O1086 C1114 1.214 . S
H1087 C1115 0.929 . S
H1088 C1116 0.929 . S
H1089 C1117 0.930 . S
H1090 C1118 0.929 . S
H1091 C1120 0.930 . S
H1092 C1097 0.930 . S
H1093 C1101 0.930 . S
O1094 Co1063 2.037 . S
O1094 C1114 1.234 . S
C1095 O1069 1.269 . S
C1095 O1070 1.257 . S
C1096 H1071 0.930 . S
C1096 C1099 1.388 . S
C1096 C1101 1.418 . S
C1097 H1092 0.930 . S
C1097 C1100 1.404 . S
C1097 C1101 1.353 . S
N1098 Co1063 2.145 . S
N1098 C1099 1.397 . S
N1098 C1100 1.334 . S
C1099 H1080 0.929 . S
C1099 C1096 1.388 . S
C1099 N1098 1.397 . S
C1100 H1081 0.929 . S
C1100 C1097 1.404 . S
C1100 N1098 1.334 . S
C1101 H1093 0.930 . S
C1101 C1096 1.418 . S
C1101 C1097 1.353 . S
C1102 H1072 0.930 . S
C1102 N1103 1.330 . S
C1102 C1104 1.446 . S
N1103 Co1062 2.151 . S
N1103 C1102 1.330 . S
N1103 C1107 1.418 . S
C1104 H1083 0.929 . S
C1104 C1102 1.446 . S
C1104 C1105 1.332 . S
C1105 H1085 0.931 . S
C1105 C1104 1.332 . S
C1105 C1106 1.267 . S
C1106 H1074 0.929 . S
C1106 C1105 1.267 . S
C1106 C1107 1.251 . S
C1107 H1077 0.929 . S
C1107 N1103 1.418 . S
C1107 C1106 1.251 . S
C1108 H1075 0.930 . S
C1108 C1110 1.406 . S
C1108 C1113 1.261 . S
C1109 H1076 0.930 . S
C1109 N1111 1.325 . S
C1109 C1112 1.357 . S
C1110 H1078 0.928 . S
C1110 C1108 1.406 . S
C1110 N1111 1.261 . S
N1111 Co1062 2.214 . S
N1111 C1109 1.325 . S
N1111 C1110 1.261 . S
C1112 H1082 0.931 . S
C1112 C1109 1.357 . S
C1112 C1113 1.312 . S
C1113 H1084 0.930 . S
C1113 C1108 1.261 . S
C1113 C1112 1.312 . S
C1114 O1086 1.214 . S
C1114 O1094 1.234 . S
C1115 H1087 0.929 . S
C1115 C1118 1.391 . S
C1115 C1120 1.391 . S
C1116 H1088 0.929 . S
C1116 C1117 1.390 . S
C1116 N1119 1.391 . S
C1117 H1089 0.930 . S
C1117 C1116 1.390 . S
C1117 C1118 1.392 . S
C1118 H1090 0.929 . S
C1118 C1115 1.391 . S
C1118 C1117 1.392 . S
N1119 Co1063 2.257 . S
N1119 C1116 1.391 . S
N1119 C1120 1.388 . S
C1120 H1091 0.930 . S
C1120 C1115 1.391 . S
C1120 N1119 1.388 . S
Co1121 O1123 2.143 . S
Co1121 O1129 2.074 . S
Co1121 O1132 2.093 . S
Co1121 O1145 2.097 . S
Co1121 N1162 2.151 . S
Co1121 N1170 2.214 . S
Co1122 O1123 2.160 . S
Co1122 O1128 2.058 . S
Co1122 O1138 2.057 . S
Co1122 O1153 2.037 . S
Co1122 N1157 2.145 . S
Co1122 N1178 2.257 . S
O1123 Co1121 2.143 . S
O1123 Co1122 2.160 . S
C1124 O1125 1.278 . S
C1124 O1132 1.224 . S
O1125 C1124 1.278 . S
C1126 O1127 1.245 . S
C1126 O1138 1.232 . S
O1127 C1126 1.245 . S
O1128 Co1122 2.058 . S
O1128 C1154 1.269 . S
O1129 Co1121 2.074 . S
O1129 C1154 1.257 . S
H1130 C1155 0.930 . S
H1131 C1161 0.930 . S
O1132 Co1121 2.093 . S
O1132 C1124 1.224 . S
H1133 C1165 0.929 . S
H1134 C1167 0.930 . S
H1135 C1168 0.930 . S
H1136 C1166 0.929 . S
H1137 C1169 0.928 . S
O1138 Co1122 2.057 . S
O1138 C1126 1.232 . S
H1139 C1158 0.929 . S
H1140 C1159 0.929 . S
H1141 C1171 0.931 . S
H1142 C1163 0.929 . S
H1143 C1172 0.930 . S
H1144 C1164 0.931 . S
O1145 Co1121 2.097 . S
O1145 C1173 1.214 . S
H1146 C1174 0.929 . S
H1147 C1175 0.929 . S
H1148 C1176 0.930 . S
H1149 C1177 0.929 . S
H1150 C1179 0.930 . S
H1151 C1156 0.930 . S
H1152 C1160 0.930 . S
O1153 Co1122 2.037 . S
O1153 C1173 1.234 . S
C1154 O1128 1.269 . S
C1154 O1129 1.257 . S
C1155 H1130 0.930 . S
C1155 C1158 1.388 . S
C1155 C1160 1.418 . S
C1156 H1151 0.930 . S
C1156 C1159 1.404 . S
C1156 C1160 1.353 . S
N1157 Co1122 2.145 . S
N1157 C1158 1.397 . S
N1157 C1159 1.334 . S
C1158 H1139 0.929 . S
C1158 C1155 1.388 . S
C1158 N1157 1.397 . S
C1159 H1140 0.929 . S
C1159 C1156 1.404 . S
C1159 N1157 1.334 . S
C1160 H1152 0.930 . S
C1160 C1155 1.418 . S
C1160 C1156 1.353 . S
C1161 H1131 0.930 . S
C1161 N1162 1.330 . S
C1161 C1163 1.446 . S
N1162 Co1121 2.151 . S
N1162 C1161 1.330 . S
N1162 C1166 1.418 . S
C1163 H1142 0.929 . S
C1163 C1161 1.446 . S
C1163 C1164 1.332 . S
C1164 H1144 0.931 . S
C1164 C1163 1.332 . S
C1164 C1165 1.267 . S
C1165 H1133 0.929 . S
C1165 C1164 1.267 . S
C1165 C1166 1.251 . S
C1166 H1136 0.929 . S
C1166 N1162 1.418 . S
C1166 C1165 1.251 . S
C1167 H1134 0.930 . S
C1167 C1169 1.406 . S
C1167 C1172 1.261 . S
C1168 H1135 0.930 . S
C1168 N1170 1.325 . S
C1168 C1171 1.357 . S
C1169 H1137 0.928 . S
C1169 C1167 1.406 . S
C1169 N1170 1.261 . S
N1170 Co1121 2.214 . S
N1170 C1168 1.325 . S
N1170 C1169 1.261 . S
C1171 H1141 0.931 . S
C1171 C1168 1.357 . S
C1171 C1172 1.312 . S
C1172 H1143 0.930 . S
C1172 C1167 1.261 . S
C1172 C1171 1.312 . S
C1173 O1145 1.214 . S
C1173 O1153 1.234 . S
C1174 H1146 0.929 . S
C1174 C1177 1.391 . S
C1174 C1179 1.391 . S
C1175 H1147 0.929 . S
C1175 C1176 1.390 . S
C1175 N1178 1.391 . S
C1176 H1148 0.930 . S
C1176 C1175 1.390 . S
C1176 C1177 1.392 . S
C1177 H1149 0.929 . S
C1177 C1174 1.391 . S
C1177 C1176 1.392 . S
N1178 Co1122 2.257 . S
N1178 C1175 1.391 . S
N1178 C1179 1.388 . S
C1179 H1150 0.930 . S
C1179 C1174 1.391 . S
C1179 N1178 1.388 . S
Co1180 O1182 2.143 . S
Co1180 O1188 2.074 . S
Co1180 O1191 2.093 . S
Co1180 O1204 2.097 . S
Co1180 N1221 2.151 . S
Co1180 N1229 2.214 . S
Co1181 O1182 2.160 . S
Co1181 O1187 2.058 . S
Co1181 O1197 2.057 . S
Co1181 O1212 2.037 . S
Co1181 N1216 2.145 . S
Co1181 N1237 2.257 . S
O1182 Co1180 2.143 . S
O1182 Co1181 2.160 . S
C1183 O1184 1.278 . S
C1183 O1191 1.224 . S
O1184 C1183 1.278 . S
C1185 O1186 1.245 . S
C1185 O1197 1.232 . S
O1186 C1185 1.245 . S
O1187 Co1181 2.058 . S
O1187 C1213 1.269 . S
O1188 Co1180 2.074 . S
O1188 C1213 1.257 . S
H1189 C1214 0.930 . S
H1190 C1220 0.930 . S
O1191 Co1180 2.093 . S
O1191 C1183 1.224 . S
H1192 C1224 0.929 . S
H1193 C1226 0.930 . S
H1194 C1227 0.930 . S
H1195 C1225 0.929 . S
H1196 C1228 0.928 . S
O1197 Co1181 2.057 . S
O1197 C1185 1.232 . S
H1198 C1217 0.929 . S
H1199 C1218 0.929 . S
H1200 C1230 0.931 . S
H1201 C1222 0.929 . S
H1202 C1231 0.930 . S
H1203 C1223 0.931 . S
O1204 Co1180 2.097 . S
O1204 C1232 1.214 . S
H1205 C1233 0.929 . S
H1206 C1234 0.929 . S
H1207 C1235 0.930 . S
H1208 C1236 0.929 . S
H1209 C1238 0.930 . S
H1210 C1215 0.930 . S
H1211 C1219 0.930 . S
O1212 Co1181 2.037 . S
O1212 C1232 1.234 . S
C1213 O1187 1.269 . S
C1213 O1188 1.257 . S
C1214 H1189 0.930 . S
C1214 C1217 1.388 . S
C1214 C1219 1.418 . S
C1215 H1210 0.930 . S
C1215 C1218 1.404 . S
C1215 C1219 1.353 . S
N1216 Co1181 2.145 . S
N1216 C1217 1.397 . S
N1216 C1218 1.334 . S
C1217 H1198 0.929 . S
C1217 C1214 1.388 . S
C1217 N1216 1.397 . S
C1218 H1199 0.929 . S
C1218 C1215 1.404 . S
C1218 N1216 1.334 . S
C1219 H1211 0.930 . S
C1219 C1214 1.418 . S
C1219 C1215 1.353 . S
C1220 H1190 0.930 . S
C1220 N1221 1.330 . S
C1220 C1222 1.446 . S
N1221 Co1180 2.151 . S
N1221 C1220 1.330 . S
N1221 C1225 1.418 . S
C1222 H1201 0.929 . S
C1222 C1220 1.446 . S
C1222 C1223 1.332 . S
C1223 H1203 0.931 . S
C1223 C1222 1.332 . S
C1223 C1224 1.267 . S
C1224 H1192 0.929 . S
C1224 C1223 1.267 . S
C1224 C1225 1.251 . S
C1225 H1195 0.929 . S
C1225 N1221 1.418 . S
C1225 C1224 1.251 . S
C1226 H1193 0.930 . S
C1226 C1228 1.406 . S
C1226 C1231 1.261 . S
C1227 H1194 0.930 . S
C1227 N1229 1.325 . S
C1227 C1230 1.357 . S
C1228 H1196 0.928 . S
C1228 C1226 1.406 . S
C1228 N1229 1.261 . S
N1229 Co1180 2.214 . S
N1229 C1227 1.325 . S
N1229 C1228 1.261 . S
C1230 H1200 0.931 . S
C1230 C1227 1.357 . S
C1230 C1231 1.312 . S
C1231 H1202 0.930 . S
C1231 C1226 1.261 . S
C1231 C1230 1.312 . S
C1232 O1204 1.214 . S
C1232 O1212 1.234 . S
C1233 H1205 0.929 . S
C1233 C1236 1.391 . S
C1233 C1238 1.391 . S
C1234 H1206 0.929 . S
C1234 C1235 1.390 . S
C1234 N1237 1.391 . S
C1235 H1207 0.930 . S
C1235 C1234 1.390 . S
C1235 C1236 1.392 . S
C1236 H1208 0.929 . S
C1236 C1233 1.391 . S
C1236 C1235 1.392 . S
N1237 Co1181 2.257 . S
N1237 C1234 1.391 . S
N1237 C1238 1.388 . S
C1238 H1209 0.930 . S
C1238 C1233 1.391 . S
C1238 N1237 1.388 . S
Co1239 O1241 2.143 . S
Co1239 O1247 2.074 . S
Co1239 O1250 2.093 . S
Co1239 O1263 2.097 . S
Co1239 N1280 2.151 . S
Co1239 N1288 2.214 . S
Co1240 O1241 2.160 . S
Co1240 O1246 2.058 . S
Co1240 O1256 2.057 . S
Co1240 O1271 2.037 . S
Co1240 N1275 2.145 . S
Co1240 N1296 2.257 . S
O1241 Co1239 2.143 . S
O1241 Co1240 2.160 . S
C1242 O1243 1.278 . S
C1242 O1250 1.224 . S
O1243 C1242 1.278 . S
C1244 O1245 1.245 . S
C1244 O1256 1.232 . S
O1245 C1244 1.245 . S
O1246 Co1240 2.058 . S
O1246 C1272 1.269 . S
O1247 Co1239 2.074 . S
O1247 C1272 1.257 . S
H1248 C1273 0.930 . S
H1249 C1279 0.930 . S
O1250 Co1239 2.093 . S
O1250 C1242 1.224 . S
H1251 C1283 0.929 . S
H1252 C1285 0.930 . S
H1253 C1286 0.930 . S
H1254 C1284 0.929 . S
H1255 C1287 0.928 . S
O1256 Co1240 2.057 . S
O1256 C1244 1.232 . S
H1257 C1276 0.929 . S
H1258 C1277 0.929 . S
H1259 C1289 0.931 . S
H1260 C1281 0.929 . S
H1261 C1290 0.930 . S
H1262 C1282 0.931 . S
O1263 Co1239 2.097 . S
O1263 C1291 1.214 . S
H1264 C1292 0.929 . S
H1265 C1293 0.929 . S
H1266 C1294 0.930 . S
H1267 C1295 0.929 . S
H1268 C1297 0.930 . S
H1269 C1274 0.930 . S
H1270 C1278 0.930 . S
O1271 Co1240 2.037 . S
O1271 C1291 1.234 . S
C1272 O1246 1.269 . S
C1272 O1247 1.257 . S
C1273 H1248 0.930 . S
C1273 C1276 1.388 . S
C1273 C1278 1.418 . S
C1274 H1269 0.930 . S
C1274 C1277 1.404 . S
C1274 C1278 1.353 . S
N1275 Co1240 2.145 . S
N1275 C1276 1.397 . S
N1275 C1277 1.334 . S
C1276 H1257 0.929 . S
C1276 C1273 1.388 . S
C1276 N1275 1.397 . S
C1277 H1258 0.929 . S
C1277 C1274 1.404 . S
C1277 N1275 1.334 . S
C1278 H1270 0.930 . S
C1278 C1273 1.418 . S
C1278 C1274 1.353 . S
C1279 H1249 0.930 . S
C1279 N1280 1.330 . S
C1279 C1281 1.446 . S
N1280 Co1239 2.151 . S
N1280 C1279 1.330 . S
N1280 C1284 1.418 1_556 S
C1281 H1260 0.929 . S
C1281 C1279 1.446 . S
C1281 C1282 1.332 1_556 S
C1282 H1262 0.931 . S
C1282 C1281 1.332 1_554 S
C1282 C1283 1.267 . S
C1283 H1251 0.929 . S
C1283 C1282 1.267 . S
C1283 C1284 1.251 . S
C1284 H1254 0.929 . S
C1284 N1280 1.418 1_554 S
C1284 C1283 1.251 . S
C1285 H1252 0.930 . S
C1285 C1287 1.406 . S
C1285 C1290 1.261 . S
C1286 H1253 0.930 . S
C1286 N1288 1.325 . S
C1286 C1289 1.357 . S
C1287 H1255 0.928 . S
C1287 C1285 1.406 . S
C1287 N1288 1.261 . S
N1288 Co1239 2.214 . S
N1288 C1286 1.325 . S
N1288 C1287 1.261 . S
C1289 H1259 0.931 . S
C1289 C1286 1.357 . S
C1289 C1290 1.312 . S
C1290 H1261 0.930 . S
C1290 C1285 1.261 . S
C1290 C1289 1.312 . S
C1291 O1263 1.214 . S
C1291 O1271 1.234 . S
C1292 H1264 0.929 . S
C1292 C1295 1.391 . S
C1292 C1297 1.391 . S
C1293 H1265 0.929 . S
C1293 C1294 1.390 . S
C1293 N1296 1.391 . S
C1294 H1266 0.930 . S
C1294 C1293 1.390 . S
C1294 C1295 1.392 . S
C1295 H1267 0.929 . S
C1295 C1292 1.391 . S
C1295 C1294 1.392 . S
N1296 Co1240 2.257 . S
N1296 C1293 1.391 . S
N1296 C1297 1.388 . S
C1297 H1268 0.930 . S
C1297 C1292 1.391 . S
C1297 N1296 1.388 . S
Co1298 O1300 2.143 . S
Co1298 O1306 2.074 . S
Co1298 O1309 2.093 . S
Co1298 O1322 2.097 . S
Co1298 N1339 2.151 . S
Co1298 N1347 2.214 . S
Co1299 O1300 2.160 . S
Co1299 O1305 2.058 . S
Co1299 O1315 2.057 . S
Co1299 O1330 2.037 . S
Co1299 N1334 2.145 . S
Co1299 N1355 2.257 . S
O1300 Co1298 2.143 . S
O1300 Co1299 2.160 . S
C1301 O1302 1.278 . S
C1301 O1309 1.224 . S
O1302 C1301 1.278 . S
C1303 O1304 1.245 . S
C1303 O1315 1.232 . S
O1304 C1303 1.245 . S
O1305 Co1299 2.058 . S
O1305 C1331 1.269 . S
O1306 Co1298 2.074 . S
O1306 C1331 1.257 . S
H1307 C1332 0.930 . S
H1308 C1338 0.930 . S
O1309 Co1298 2.093 . S
O1309 C1301 1.224 . S
H1310 C1342 0.929 . S
H1311 C1344 0.930 . S
H1312 C1345 0.930 . S
H1313 C1343 0.929 . S
H1314 C1346 0.928 . S
O1315 Co1299 2.057 . S
O1315 C1303 1.232 . S
H1316 C1335 0.929 . S
H1317 C1336 0.929 . S
H1318 C1348 0.931 . S
H1319 C1340 0.929 . S
H1320 C1349 0.930 . S
H1321 C1341 0.931 . S
O1322 Co1298 2.097 . S
O1322 C1350 1.214 . S
H1323 C1351 0.929 . S
H1324 C1352 0.929 . S
H1325 C1353 0.930 . S
H1326 C1354 0.929 . S
H1327 C1356 0.930 . S
H1328 C1333 0.930 . S
H1329 C1337 0.930 . S
O1330 Co1299 2.037 . S
O1330 C1350 1.234 . S
C1331 O1305 1.269 . S
C1331 O1306 1.257 . S
C1332 H1307 0.930 . S
C1332 C1335 1.388 . S
C1332 C1337 1.418 . S
C1333 H1328 0.930 . S
C1333 C1336 1.404 . S
C1333 C1337 1.353 . S
N1334 Co1299 2.145 . S
N1334 C1335 1.397 . S
N1334 C1336 1.334 . S
C1335 H1316 0.929 . S
C1335 C1332 1.388 . S
C1335 N1334 1.397 . S
C1336 H1317 0.929 . S
C1336 C1333 1.404 . S
C1336 N1334 1.334 . S
C1337 H1329 0.930 . S
C1337 C1332 1.418 . S
C1337 C1333 1.353 . S
C1338 H1308 0.930 . S
C1338 N1339 1.330 . S
C1338 C1340 1.446 . S
N1339 Co1298 2.151 . S
N1339 C1338 1.330 . S
N1339 C1343 1.418 1_556 S
C1340 H1319 0.929 . S
C1340 C1338 1.446 . S
C1340 C1341 1.332 1_556 S
C1341 H1321 0.931 . S
C1341 C1340 1.332 1_554 S
C1341 C1342 1.267 . S
C1342 H1310 0.929 . S
C1342 C1341 1.267 . S
C1342 C1343 1.251 . S
C1343 H1313 0.929 . S
C1343 N1339 1.418 1_554 S
C1343 C1342 1.251 . S
C1344 H1311 0.930 . S
C1344 C1346 1.406 . S
C1344 C1349 1.261 . S
C1345 H1312 0.930 . S
C1345 N1347 1.325 . S
C1345 C1348 1.357 . S
C1346 H1314 0.928 . S
C1346 C1344 1.406 . S
C1346 N1347 1.261 . S
N1347 Co1298 2.214 . S
N1347 C1345 1.325 . S
N1347 C1346 1.261 . S
C1348 H1318 0.931 . S
C1348 C1345 1.357 . S
C1348 C1349 1.312 . S
C1349 H1320 0.930 . S
C1349 C1344 1.261 . S
C1349 C1348 1.312 . S
C1350 O1322 1.214 . S
C1350 O1330 1.234 . S
C1351 H1323 0.929 . S
C1351 C1354 1.391 . S
C1351 C1356 1.391 . S
C1352 H1324 0.929 . S
C1352 C1353 1.390 . S
C1352 N1355 1.391 . S
C1353 H1325 0.930 . S
C1353 C1352 1.390 . S
C1353 C1354 1.392 . S
C1354 H1326 0.929 . S
C1354 C1351 1.391 . S
C1354 C1353 1.392 . S
N1355 Co1299 2.257 . S
N1355 C1352 1.391 . S
N1355 C1356 1.388 . S
C1356 H1327 0.930 . S
C1356 C1351 1.391 . S
C1356 N1355 1.388 . S
Co1357 O1359 2.143 . S
Co1357 O1365 2.074 . S
Co1357 O1368 2.093 . S
Co1357 O1381 2.097 . S
Co1357 N1398 2.151 . S
Co1357 N1406 2.214 . S
Co1358 O1359 2.160 . S
Co1358 O1364 2.058 . S
Co1358 O1374 2.057 . S
Co1358 O1389 2.037 . S
Co1358 N1393 2.145 . S
Co1358 N1414 2.257 . S
O1359 Co1357 2.143 . S
O1359 Co1358 2.160 . S
C1360 O1361 1.278 . S
C1360 O1368 1.224 . S
O1361 C1360 1.278 . S
C1362 O1363 1.245 . S
C1362 O1374 1.232 . S
O1363 C1362 1.245 . S
O1364 Co1358 2.058 . S
O1364 C1390 1.269 . S
O1365 Co1357 2.074 . S
O1365 C1390 1.257 . S
H1366 C1391 0.930 . S
H1367 C1397 0.930 . S
O1368 Co1357 2.093 . S
O1368 C1360 1.224 . S
H1369 C1401 0.929 . S
H1370 C1403 0.930 . S
H1371 C1404 0.930 . S
H1372 C1402 0.929 . S
H1373 C1405 0.928 . S
O1374 Co1358 2.057 . S
O1374 C1362 1.232 . S
H1375 C1394 0.929 . S
H1376 C1395 0.929 . S
H1377 C1407 0.931 . S
H1378 C1399 0.929 . S
H1379 C1408 0.930 . S
H1380 C1400 0.931 . S
O1381 Co1357 2.097 . S
O1381 C1409 1.214 . S
H1382 C1410 0.929 . S
H1383 C1411 0.929 . S
H1384 C1412 0.930 . S
H1385 C1413 0.929 . S
H1386 C1415 0.930 . S
H1387 C1392 0.930 . S
H1388 C1396 0.930 . S
O1389 Co1358 2.037 . S
O1389 C1409 1.234 . S
C1390 O1364 1.269 . S
C1390 O1365 1.257 . S
C1391 H1366 0.930 . S
C1391 C1394 1.388 . S
C1391 C1396 1.418 . S
C1392 H1387 0.930 . S
C1392 C1395 1.404 . S
C1392 C1396 1.353 . S
N1393 Co1358 2.145 . S
N1393 C1394 1.397 . S
N1393 C1395 1.334 . S
C1394 H1375 0.929 . S
C1394 C1391 1.388 . S
C1394 N1393 1.397 . S
C1395 H1376 0.929 . S
C1395 C1392 1.404 . S
C1395 N1393 1.334 . S
C1396 H1388 0.930 . S
C1396 C1391 1.418 . S
C1396 C1392 1.353 . S
C1397 H1367 0.930 . S
C1397 N1398 1.330 . S
C1397 C1399 1.446 . S
N1398 Co1357 2.151 . S
N1398 C1397 1.330 . S
N1398 C1402 1.418 1_556 S
C1399 H1378 0.929 . S
C1399 C1397 1.446 . S
C1399 C1400 1.332 1_556 S
C1400 H1380 0.931 . S
C1400 C1399 1.332 1_554 S
C1400 C1401 1.267 . S
C1401 H1369 0.929 . S
C1401 C1400 1.267 . S
C1401 C1402 1.251 . S
C1402 H1372 0.929 . S
C1402 N1398 1.418 1_554 S
C1402 C1401 1.251 . S
C1403 H1370 0.930 . S
C1403 C1405 1.406 . S
C1403 C1408 1.261 . S
C1404 H1371 0.930 . S
C1404 N1406 1.325 . S
C1404 C1407 1.357 . S
C1405 H1373 0.928 . S
C1405 C1403 1.406 . S
C1405 N1406 1.261 . S
N1406 Co1357 2.214 . S
N1406 C1404 1.325 . S
N1406 C1405 1.261 . S
C1407 H1377 0.931 . S
C1407 C1404 1.357 . S
C1407 C1408 1.312 . S
C1408 H1379 0.930 . S
C1408 C1403 1.261 . S
C1408 C1407 1.312 . S
C1409 O1381 1.214 . S
C1409 O1389 1.234 . S
C1410 H1382 0.929 . S
C1410 C1413 1.391 . S
C1410 C1415 1.391 . S
C1411 H1383 0.929 . S
C1411 C1412 1.390 . S
C1411 N1414 1.391 . S
C1412 H1384 0.930 . S
C1412 C1411 1.390 . S
C1412 C1413 1.392 . S
C1413 H1385 0.929 . S
C1413 C1410 1.391 . S
C1413 C1412 1.392 . S
N1414 Co1358 2.257 . S
N1414 C1411 1.391 . S
N1414 C1415 1.388 . S
C1415 H1386 0.930 . S
C1415 C1410 1.391 . S
C1415 N1414 1.388 . S
Co1416 O1418 2.143 . S
Co1416 O1424 2.074 . S
Co1416 O1427 2.093 . S
Co1416 O1440 2.097 . S
Co1416 N1457 2.151 . S
Co1416 N1465 2.214 . S
Co1417 O1418 2.160 . S
Co1417 O1423 2.058 . S
Co1417 O1433 2.057 . S
Co1417 O1448 2.037 . S
Co1417 N1452 2.145 . S
Co1417 N1473 2.257 . S
O1418 Co1416 2.143 . S
O1418 Co1417 2.160 . S
C1419 O1420 1.278 . S
C1419 O1427 1.224 . S
O1420 C1419 1.278 . S
C1421 O1422 1.245 . S
C1421 O1433 1.232 . S
O1422 C1421 1.245 . S
O1423 Co1417 2.058 . S
O1423 C1449 1.269 . S
O1424 Co1416 2.074 . S
O1424 C1449 1.257 . S
H1425 C1450 0.930 . S
H1426 C1456 0.930 . S
O1427 Co1416 2.093 . S
O1427 C1419 1.224 . S
H1428 C1460 0.929 . S
H1429 C1462 0.930 . S
H1430 C1463 0.930 . S
H1431 C1461 0.929 . S
H1432 C1464 0.928 . S
O1433 Co1417 2.057 . S
O1433 C1421 1.232 . S
H1434 C1453 0.929 . S
H1435 C1454 0.929 . S
H1436 C1466 0.931 . S
H1437 C1458 0.929 . S
H1438 C1467 0.930 . S
H1439 C1459 0.931 . S
O1440 Co1416 2.097 . S
O1440 C1468 1.214 . S
H1441 C1469 0.929 . S
H1442 C1470 0.929 . S
H1443 C1471 0.930 . S
H1444 C1472 0.929 . S
H1445 C1474 0.930 . S
H1446 C1451 0.930 . S
H1447 C1455 0.930 . S
O1448 Co1417 2.037 . S
O1448 C1468 1.234 . S
C1449 O1423 1.269 . S
C1449 O1424 1.257 . S
C1450 H1425 0.930 . S
C1450 C1453 1.388 . S
C1450 C1455 1.418 . S
C1451 H1446 0.930 . S
C1451 C1454 1.404 . S
C1451 C1455 1.353 . S
N1452 Co1417 2.145 . S
N1452 C1453 1.397 . S
N1452 C1454 1.334 . S
C1453 H1434 0.929 . S
C1453 C1450 1.388 . S
C1453 N1452 1.397 . S
C1454 H1435 0.929 . S
C1454 C1451 1.404 . S
C1454 N1452 1.334 . S
C1455 H1447 0.930 . S
C1455 C1450 1.418 . S
C1455 C1451 1.353 . S
C1456 H1426 0.930 . S
C1456 N1457 1.330 . S
C1456 C1458 1.446 . S
N1457 Co1416 2.151 . S
N1457 C1456 1.330 . S
N1457 C1461 1.418 . S
C1458 H1437 0.929 . S
C1458 C1456 1.446 . S
C1458 C1459 1.332 . S
C1459 H1439 0.931 . S
C1459 C1458 1.332 . S
C1459 C1460 1.267 . S
C1460 H1428 0.929 . S
C1460 C1459 1.267 . S
C1460 C1461 1.251 . S
C1461 H1431 0.929 . S
C1461 N1457 1.418 . S
C1461 C1460 1.251 . S
C1462 H1429 0.930 . S
C1462 C1464 1.406 . S
C1462 C1467 1.261 . S
C1463 H1430 0.930 . S
C1463 N1465 1.325 . S
C1463 C1466 1.357 . S
C1464 H1432 0.928 . S
C1464 C1462 1.406 . S
C1464 N1465 1.261 . S
N1465 Co1416 2.214 . S
N1465 C1463 1.325 . S
N1465 C1464 1.261 . S
C1466 H1436 0.931 . S
C1466 C1463 1.357 . S
C1466 C1467 1.312 . S
C1467 H1438 0.930 . S
C1467 C1462 1.261 . S
C1467 C1466 1.312 . S
C1468 O1440 1.214 . S
C1468 O1448 1.234 . S
C1469 H1441 0.929 . S
C1469 C1472 1.391 . S
C1469 C1474 1.391 . S
C1470 H1442 0.929 . S
C1470 C1471 1.390 . S
C1470 N1473 1.391 . S
C1471 H1443 0.930 . S
C1471 C1470 1.390 . S
C1471 C1472 1.392 . S
C1472 H1444 0.929 . S
C1472 C1469 1.391 . S
C1472 C1471 1.392 . S
N1473 Co1417 2.257 . S
N1473 C1470 1.391 . S
N1473 C1474 1.388 . S
C1474 H1445 0.930 . S
C1474 C1469 1.391 . S
C1474 N1473 1.388 . S
Co1475 O1477 2.143 . S
Co1475 O1483 2.074 . S
Co1475 O1486 2.093 . S
Co1475 O1499 2.097 . S
Co1475 N1516 2.151 . S
Co1475 N1524 2.214 . S
Co1476 O1477 2.160 . S
Co1476 O1482 2.058 . S
Co1476 O1492 2.057 . S
Co1476 O1507 2.037 . S
Co1476 N1511 2.145 . S
Co1476 N1532 2.257 . S
O1477 Co1475 2.143 . S
O1477 Co1476 2.160 . S
C1478 O1479 1.278 . S
C1478 O1486 1.224 . S
O1479 C1478 1.278 . S
C1480 O1481 1.245 . S
C1480 O1492 1.232 . S
O1481 C1480 1.245 . S
O1482 Co1476 2.058 . S
O1482 C1508 1.269 . S
O1483 Co1475 2.074 . S
O1483 C1508 1.257 . S
H1484 C1509 0.930 . S
H1485 C1515 0.930 . S
O1486 Co1475 2.093 . S
O1486 C1478 1.224 . S
H1487 C1519 0.929 . S
H1488 C1521 0.930 . S
H1489 C1522 0.930 . S
H1490 C1520 0.929 . S
H1491 C1523 0.928 . S
O1492 Co1476 2.057 . S
O1492 C1480 1.232 . S
H1493 C1512 0.929 . S
H1494 C1513 0.929 . S
H1495 C1525 0.931 . S
H1496 C1517 0.929 . S
H1497 C1526 0.930 . S
H1498 C1518 0.931 . S
O1499 Co1475 2.097 . S
O1499 C1527 1.214 . S
H1500 C1528 0.929 . S
H1501 C1529 0.929 . S
H1502 C1530 0.930 . S
H1503 C1531 0.929 . S
H1504 C1533 0.930 . S
H1505 C1510 0.930 . S
H1506 C1514 0.930 . S
O1507 Co1476 2.037 . S
O1507 C1527 1.234 . S
C1508 O1482 1.269 . S
C1508 O1483 1.257 . S
C1509 H1484 0.930 . S
C1509 C1512 1.388 . S
C1509 C1514 1.418 . S
C1510 H1505 0.930 . S
C1510 C1513 1.404 . S
C1510 C1514 1.353 . S
N1511 Co1476 2.145 . S
N1511 C1512 1.397 . S
N1511 C1513 1.334 . S
C1512 H1493 0.929 . S
C1512 C1509 1.388 . S
C1512 N1511 1.397 . S
C1513 H1494 0.929 . S
C1513 C1510 1.404 . S
C1513 N1511 1.334 . S
C1514 H1506 0.930 . S
C1514 C1509 1.418 . S
C1514 C1510 1.353 . S
C1515 H1485 0.930 . S
C1515 N1516 1.330 . S
C1515 C1517 1.446 . S
N1516 Co1475 2.151 . S
N1516 C1515 1.330 . S
N1516 C1520 1.418 . S
C1517 H1496 0.929 . S
C1517 C1515 1.446 . S
C1517 C1518 1.332 . S
C1518 H1498 0.931 . S
C1518 C1517 1.332 . S
C1518 C1519 1.267 . S
C1519 H1487 0.929 . S
C1519 C1518 1.267 . S
C1519 C1520 1.251 . S
C1520 H1490 0.929 . S
C1520 N1516 1.418 . S
C1520 C1519 1.251 . S
C1521 H1488 0.930 . S
C1521 C1523 1.406 . S
C1521 C1526 1.261 . S
C1522 H1489 0.930 . S
C1522 N1524 1.325 . S
C1522 C1525 1.357 . S
C1523 H1491 0.928 . S
C1523 C1521 1.406 . S
C1523 N1524 1.261 . S
N1524 Co1475 2.214 . S
N1524 C1522 1.325 . S
N1524 C1523 1.261 . S
C1525 H1495 0.931 . S
C1525 C1522 1.357 . S
C1525 C1526 1.312 . S
C1526 H1497 0.930 . S
C1526 C1521 1.261 . S
C1526 C1525 1.312 . S
C1527 O1499 1.214 . S
C1527 O1507 1.234 . S
C1528 H1500 0.929 . S
C1528 C1531 1.391 . S
C1528 C1533 1.391 . S
C1529 H1501 0.929 . S
C1529 C1530 1.390 . S
C1529 N1532 1.391 . S
C1530 H1502 0.930 . S
C1530 C1529 1.390 . S
C1530 C1531 1.392 . S
C1531 H1503 0.929 . S
C1531 C1528 1.391 . S
C1531 C1530 1.392 . S
N1532 Co1476 2.257 . S
N1532 C1529 1.391 . S
N1532 C1533 1.388 . S
C1533 H1504 0.930 . S
C1533 C1528 1.391 . S
C1533 N1532 1.388 . S
Co1534 O1536 2.143 . S
Co1534 O1542 2.074 . S
Co1534 O1545 2.093 . S
Co1534 O1558 2.097 . S
Co1534 N1575 2.151 . S
Co1534 N1583 2.214 . S
Co1535 O1536 2.160 . S
Co1535 O1541 2.058 . S
Co1535 O1551 2.057 . S
Co1535 O1566 2.037 . S
Co1535 N1570 2.145 . S
Co1535 N1591 2.257 . S
O1536 Co1534 2.143 . S
O1536 Co1535 2.160 . S
C1537 O1538 1.278 . S
C1537 O1545 1.224 . S
O1538 C1537 1.278 . S
C1539 O1540 1.245 . S
C1539 O1551 1.232 . S
O1540 C1539 1.245 . S
O1541 Co1535 2.058 . S
O1541 C1567 1.269 . S
O1542 Co1534 2.074 . S
O1542 C1567 1.257 . S
H1543 C1568 0.930 . S
H1544 C1574 0.930 . S
O1545 Co1534 2.093 . S
O1545 C1537 1.224 . S
H1546 C1578 0.929 . S
H1547 C1580 0.930 . S
H1548 C1581 0.930 . S
H1549 C1579 0.929 . S
H1550 C1582 0.928 . S
O1551 Co1535 2.057 . S
O1551 C1539 1.232 . S
H1552 C1571 0.929 . S
H1553 C1572 0.929 . S
H1554 C1584 0.931 . S
H1555 C1576 0.929 . S
H1556 C1585 0.930 . S
H1557 C1577 0.931 . S
O1558 Co1534 2.097 . S
O1558 C1586 1.214 . S
H1559 C1587 0.929 . S
H1560 C1588 0.929 . S
H1561 C1589 0.930 . S
H1562 C1590 0.929 . S
H1563 C1592 0.930 . S
H1564 C1569 0.930 . S
H1565 C1573 0.930 . S
O1566 Co1535 2.037 . S
O1566 C1586 1.234 . S
C1567 O1541 1.269 . S
C1567 O1542 1.257 . S
C1568 H1543 0.930 . S
C1568 C1571 1.388 . S
C1568 C1573 1.418 . S
C1569 H1564 0.930 . S
C1569 C1572 1.404 . S
C1569 C1573 1.353 . S
N1570 Co1535 2.145 . S
N1570 C1571 1.397 . S
N1570 C1572 1.334 . S
C1571 H1552 0.929 . S
C1571 C1568 1.388 . S
C1571 N1570 1.397 . S
C1572 H1553 0.929 . S
C1572 C1569 1.404 . S
C1572 N1570 1.334 . S
C1573 H1565 0.930 . S
C1573 C1568 1.418 . S
C1573 C1569 1.353 . S
C1574 H1544 0.930 . S
C1574 N1575 1.330 . S
C1574 C1576 1.446 . S
N1575 Co1534 2.151 . S
N1575 C1574 1.330 . S
N1575 C1579 1.418 . S
C1576 H1555 0.929 . S
C1576 C1574 1.446 . S
C1576 C1577 1.332 . S
C1577 H1557 0.931 . S
C1577 C1576 1.332 . S
C1577 C1578 1.267 . S
C1578 H1546 0.929 . S
C1578 C1577 1.267 . S
C1578 C1579 1.251 . S
C1579 H1549 0.929 . S
C1579 N1575 1.418 . S
C1579 C1578 1.251 . S
C1580 H1547 0.930 . S
C1580 C1582 1.406 . S
C1580 C1585 1.261 . S
C1581 H1548 0.930 . S
C1581 N1583 1.325 . S
C1581 C1584 1.357 . S
C1582 H1550 0.928 . S
C1582 C1580 1.406 . S
C1582 N1583 1.261 . S
N1583 Co1534 2.214 . S
N1583 C1581 1.325 . S
N1583 C1582 1.261 . S
C1584 H1554 0.931 . S
C1584 C1581 1.357 . S
C1584 C1585 1.312 . S
C1585 H1556 0.930 . S
C1585 C1580 1.261 . S
C1585 C1584 1.312 . S
C1586 O1558 1.214 . S
C1586 O1566 1.234 . S
C1587 H1559 0.929 . S
C1587 C1590 1.391 . S
C1587 C1592 1.391 . S
C1588 H1560 0.929 . S
C1588 C1589 1.390 . S
C1588 N1591 1.391 . S
C1589 H1561 0.930 . S
C1589 C1588 1.390 . S
C1589 C1590 1.392 . S
C1590 H1562 0.929 . S
C1590 C1587 1.391 . S
C1590 C1589 1.392 . S
N1591 Co1535 2.257 . S
N1591 C1588 1.391 . S
N1591 C1592 1.388 . S
C1592 H1563 0.930 . S
C1592 C1587 1.391 . S
C1592 N1591 1.388 . S
Co1593 O1595 2.143 . S
Co1593 O1601 2.074 . S
Co1593 O1604 2.093 . S
Co1593 O1617 2.097 . S
Co1593 N1634 2.151 . S
Co1593 N1642 2.214 . S
Co1594 O1595 2.160 . S
Co1594 O1600 2.058 . S
Co1594 O1610 2.057 . S
Co1594 O1625 2.037 . S
Co1594 N1629 2.145 . S
Co1594 N1650 2.257 . S
O1595 Co1593 2.143 . S
O1595 Co1594 2.160 . S
C1596 O1597 1.278 . S
C1596 O1604 1.224 . S
O1597 C1596 1.278 . S
C1598 O1599 1.245 . S
C1598 O1610 1.232 . S
O1599 C1598 1.245 . S
O1600 Co1594 2.058 . S
O1600 C1626 1.269 . S
O1601 Co1593 2.074 . S
O1601 C1626 1.257 . S
H1602 C1627 0.930 . S
H1603 C1633 0.930 . S
O1604 Co1593 2.093 . S
O1604 C1596 1.224 . S
H1605 C1637 0.929 . S
H1606 C1639 0.930 . S
H1607 C1640 0.930 . S
H1608 C1638 0.929 . S
H1609 C1641 0.928 . S
O1610 Co1594 2.057 . S
O1610 C1598 1.232 . S
H1611 C1630 0.929 . S
H1612 C1631 0.929 . S
H1613 C1643 0.931 . S
H1614 C1635 0.929 . S
H1615 C1644 0.930 . S
H1616 C1636 0.931 . S
O1617 Co1593 2.097 . S
O1617 C1645 1.214 . S
H1618 C1646 0.929 . S
H1619 C1647 0.929 . S
H1620 C1648 0.930 . S
H1621 C1649 0.929 . S
H1622 C1651 0.930 . S
H1623 C1628 0.930 . S
H1624 C1632 0.930 . S
O1625 Co1594 2.037 . S
O1625 C1645 1.234 . S
C1626 O1600 1.269 . S
C1626 O1601 1.257 . S
C1627 H1602 0.930 . S
C1627 C1630 1.388 . S
C1627 C1632 1.418 . S
C1628 H1623 0.930 . S
C1628 C1631 1.404 . S
C1628 C1632 1.353 . S
N1629 Co1594 2.145 . S
N1629 C1630 1.397 . S
N1629 C1631 1.334 . S
C1630 H1611 0.929 . S
C1630 C1627 1.388 . S
C1630 N1629 1.397 . S
C1631 H1612 0.929 . S
C1631 C1628 1.404 . S
C1631 N1629 1.334 . S
C1632 H1624 0.930 . S
C1632 C1627 1.418 . S
C1632 C1628 1.353 . S
C1633 H1603 0.930 . S
C1633 N1634 1.330 . S
C1633 C1635 1.446 . S
N1634 Co1593 2.151 . S
N1634 C1633 1.330 . S
N1634 C1638 1.418 1_554 S
C1635 H1614 0.929 . S
C1635 C1633 1.446 . S
C1635 C1636 1.332 1_554 S
C1636 H1616 0.931 . S
C1636 C1635 1.332 1_556 S
C1636 C1637 1.267 . S
C1637 H1605 0.929 . S
C1637 C1636 1.267 . S
C1637 C1638 1.251 . S
C1638 H1608 0.929 . S
C1638 N1634 1.418 1_556 S
C1638 C1637 1.251 . S
C1639 H1606 0.930 . S
C1639 C1641 1.406 . S
C1639 C1644 1.261 . S
C1640 H1607 0.930 . S
C1640 N1642 1.325 . S
C1640 C1643 1.357 . S
C1641 H1609 0.928 . S
C1641 C1639 1.406 . S
C1641 N1642 1.261 . S
N1642 Co1593 2.214 . S
N1642 C1640 1.325 . S
N1642 C1641 1.261 . S
C1643 H1613 0.931 . S
C1643 C1640 1.357 . S
C1643 C1644 1.312 . S
C1644 H1615 0.930 . S
C1644 C1639 1.261 . S
C1644 C1643 1.312 . S
C1645 O1617 1.214 . S
C1645 O1625 1.234 . S
C1646 H1618 0.929 . S
C1646 C1649 1.391 . S
C1646 C1651 1.391 . S
C1647 H1619 0.929 . S
C1647 C1648 1.390 . S
C1647 N1650 1.391 . S
C1648 H1620 0.930 . S
C1648 C1647 1.390 . S
C1648 C1649 1.392 . S
C1649 H1621 0.929 . S
C1649 C1646 1.391 . S
C1649 C1648 1.392 . S
N1650 Co1594 2.257 . S
N1650 C1647 1.391 . S
N1650 C1651 1.388 . S
C1651 H1622 0.930 . S
C1651 C1646 1.391 . S
C1651 N1650 1.388 . S
Co1652 O1654 2.143 . S
Co1652 O1660 2.074 . S
Co1652 O1663 2.093 . S
Co1652 O1676 2.097 . S
Co1652 N1693 2.151 . S
Co1652 N1701 2.214 . S
Co1653 O1654 2.160 . S
Co1653 O1659 2.058 . S
Co1653 O1669 2.057 . S
Co1653 O1684 2.037 . S
Co1653 N1688 2.145 . S
Co1653 N1709 2.257 . S
O1654 Co1652 2.143 . S
O1654 Co1653 2.160 . S
C1655 O1656 1.278 . S
C1655 O1663 1.224 . S
O1656 C1655 1.278 . S
C1657 O1658 1.245 . S
C1657 O1669 1.232 . S
O1658 C1657 1.245 . S
O1659 Co1653 2.058 . S
O1659 C1685 1.269 . S
O1660 Co1652 2.074 . S
O1660 C1685 1.257 . S
H1661 C1686 0.930 . S
H1662 C1692 0.930 . S
O1663 Co1652 2.093 . S
O1663 C1655 1.224 . S
H1664 C1696 0.929 . S
H1665 C1698 0.930 . S
H1666 C1699 0.930 . S
H1667 C1697 0.929 . S
H1668 C1700 0.928 . S
O1669 Co1653 2.057 . S
O1669 C1657 1.232 . S
H1670 C1689 0.929 . S
H1671 C1690 0.929 . S
H1672 C1702 0.931 . S
H1673 C1694 0.929 . S
H1674 C1703 0.930 . S
H1675 C1695 0.931 . S
O1676 Co1652 2.097 . S
O1676 C1704 1.214 . S
H1677 C1705 0.929 . S
H1678 C1706 0.929 . S
H1679 C1707 0.930 . S
H1680 C1708 0.929 . S
H1681 C1710 0.930 . S
H1682 C1687 0.930 . S
H1683 C1691 0.930 . S
O1684 Co1653 2.037 . S
O1684 C1704 1.234 . S
C1685 O1659 1.269 . S
C1685 O1660 1.257 . S
C1686 H1661 0.930 . S
C1686 C1689 1.388 . S
C1686 C1691 1.418 . S
C1687 H1682 0.930 . S
C1687 C1690 1.404 . S
C1687 C1691 1.353 . S
N1688 Co1653 2.145 . S
N1688 C1689 1.397 . S
N1688 C1690 1.334 . S
C1689 H1670 0.929 . S
C1689 C1686 1.388 . S
C1689 N1688 1.397 . S
C1690 H1671 0.929 . S
C1690 C1687 1.404 . S
C1690 N1688 1.334 . S
C1691 H1683 0.930 . S
C1691 C1686 1.418 . S
C1691 C1687 1.353 . S
C1692 H1662 0.930 . S
C1692 N1693 1.330 . S
C1692 C1694 1.446 . S
N1693 Co1652 2.151 . S
N1693 C1692 1.330 . S
N1693 C1697 1.418 1_554 S
C1694 H1673 0.929 . S
C1694 C1692 1.446 . S
C1694 C1695 1.332 1_554 S
C1695 H1675 0.931 . S
C1695 C1694 1.332 1_556 S
C1695 C1696 1.267 . S
C1696 H1664 0.929 . S
C1696 C1695 1.267 . S
C1696 C1697 1.251 . S
C1697 H1667 0.929 . S
C1697 N1693 1.418 1_556 S
C1697 C1696 1.251 . S
C1698 H1665 0.930 . S
C1698 C1700 1.406 . S
C1698 C1703 1.261 . S
C1699 H1666 0.930 . S
C1699 N1701 1.325 . S
C1699 C1702 1.357 . S
C1700 H1668 0.928 . S
C1700 C1698 1.406 . S
C1700 N1701 1.261 . S
N1701 Co1652 2.214 . S
N1701 C1699 1.325 . S
N1701 C1700 1.261 . S
C1702 H1672 0.931 . S
C1702 C1699 1.357 . S
C1702 C1703 1.312 . S
C1703 H1674 0.930 . S
C1703 C1698 1.261 . S
C1703 C1702 1.312 . S
C1704 O1676 1.214 . S
C1704 O1684 1.234 . S
C1705 H1677 0.929 . S
C1705 C1708 1.391 . S
C1705 C1710 1.391 . S
C1706 H1678 0.929 . S
C1706 C1707 1.390 . S
C1706 N1709 1.391 . S
C1707 H1679 0.930 . S
C1707 C1706 1.390 . S
C1707 C1708 1.392 . S
C1708 H1680 0.929 . S
C1708 C1705 1.391 . S
C1708 C1707 1.392 . S
N1709 Co1653 2.257 . S
N1709 C1706 1.391 . S
N1709 C1710 1.388 . S
C1710 H1681 0.930 . S
C1710 C1705 1.391 . S
C1710 N1709 1.388 . S
Co1711 O1713 2.143 . S
Co1711 O1719 2.074 . S
Co1711 O1722 2.093 . S
Co1711 O1735 2.097 . S
Co1711 N1752 2.151 . S
Co1711 N1760 2.214 . S
Co1712 O1713 2.160 . S
Co1712 O1718 2.058 . S
Co1712 O1728 2.057 . S
Co1712 O1743 2.037 . S
Co1712 N1747 2.145 . S
Co1712 N1768 2.257 . S
O1713 Co1711 2.143 . S
O1713 Co1712 2.160 . S
C1714 O1715 1.278 . S
C1714 O1722 1.224 . S
O1715 C1714 1.278 . S
C1716 O1717 1.245 . S
C1716 O1728 1.232 . S
O1717 C1716 1.245 . S
O1718 Co1712 2.058 . S
O1718 C1744 1.269 . S
O1719 Co1711 2.074 . S
O1719 C1744 1.257 . S
H1720 C1745 0.930 . S
H1721 C1751 0.930 . S
O1722 Co1711 2.093 . S
O1722 C1714 1.224 . S
H1723 C1755 0.929 . S
H1724 C1757 0.930 . S
H1725 C1758 0.930 . S
H1726 C1756 0.929 . S
H1727 C1759 0.928 . S
O1728 Co1712 2.057 . S
O1728 C1716 1.232 . S
H1729 C1748 0.929 . S
H1730 C1749 0.929 . S
H1731 C1761 0.931 . S
H1732 C1753 0.929 . S
H1733 C1762 0.930 . S
H1734 C1754 0.931 . S
O1735 Co1711 2.097 . S
O1735 C1763 1.214 . S
H1736 C1764 0.929 . S
H1737 C1765 0.929 . S
H1738 C1766 0.930 . S
H1739 C1767 0.929 . S
H1740 C1769 0.930 . S
H1741 C1746 0.930 . S
H1742 C1750 0.930 . S
O1743 Co1712 2.037 . S
O1743 C1763 1.234 . S
C1744 O1718 1.269 . S
C1744 O1719 1.257 . S
C1745 H1720 0.930 . S
C1745 C1748 1.388 . S
C1745 C1750 1.418 . S
C1746 H1741 0.930 . S
C1746 C1749 1.404 . S
C1746 C1750 1.353 . S
N1747 Co1712 2.145 . S
N1747 C1748 1.397 . S
N1747 C1749 1.334 . S
C1748 H1729 0.929 . S
C1748 C1745 1.388 . S
C1748 N1747 1.397 . S
C1749 H1730 0.929 . S
C1749 C1746 1.404 . S
C1749 N1747 1.334 . S
C1750 H1742 0.930 . S
C1750 C1745 1.418 . S
C1750 C1746 1.353 . S
C1751 H1721 0.930 . S
C1751 N1752 1.330 . S
C1751 C1753 1.446 . S
N1752 Co1711 2.151 . S
N1752 C1751 1.330 . S
N1752 C1756 1.418 1_554 S
C1753 H1732 0.929 . S
C1753 C1751 1.446 . S
C1753 C1754 1.332 1_554 S
C1754 H1734 0.931 . S
C1754 C1753 1.332 1_556 S
C1754 C1755 1.267 . S
C1755 H1723 0.929 . S
C1755 C1754 1.267 . S
C1755 C1756 1.251 . S
C1756 H1726 0.929 . S
C1756 N1752 1.418 1_556 S
C1756 C1755 1.251 . S
C1757 H1724 0.930 . S
C1757 C1759 1.406 . S
C1757 C1762 1.261 . S
C1758 H1725 0.930 . S
C1758 N1760 1.325 . S
C1758 C1761 1.357 . S
C1759 H1727 0.928 . S
C1759 C1757 1.406 . S
C1759 N1760 1.261 . S
N1760 Co1711 2.214 . S
N1760 C1758 1.325 . S
N1760 C1759 1.261 . S
C1761 H1731 0.931 . S
C1761 C1758 1.357 . S
C1761 C1762 1.312 . S
C1762 H1733 0.930 . S
C1762 C1757 1.261 . S
C1762 C1761 1.312 . S
C1763 O1735 1.214 . S
C1763 O1743 1.234 . S
C1764 H1736 0.929 . S
C1764 C1767 1.391 . S
C1764 C1769 1.391 . S
C1765 H1737 0.929 . S
C1765 C1766 1.390 . S
C1765 N1768 1.391 . S
C1766 H1738 0.930 . S
C1766 C1765 1.390 . S
C1766 C1767 1.392 . S
C1767 H1739 0.929 . S
C1767 C1764 1.391 . S
C1767 C1766 1.392 . S
N1768 Co1712 2.257 . S
N1768 C1765 1.391 . S
N1768 C1769 1.388 . S
C1769 H1740 0.930 . S
C1769 C1764 1.391 . S
C1769 N1768 1.388 . S
Co1770 O1772 2.143 . S
Co1770 O1778 2.074 . S
Co1770 O1781 2.093 . S
Co1770 O1794 2.097 . S
Co1770 N1811 2.151 . S
Co1770 N1819 2.214 . S
Co1771 O1772 2.160 . S
Co1771 O1777 2.058 . S
Co1771 O1787 2.057 . S
Co1771 O1802 2.037 . S
Co1771 N1806 2.145 . S
Co1771 N1827 2.257 . S
O1772 Co1770 2.143 . S
O1772 Co1771 2.160 . S
C1773 O1774 1.278 . S
C1773 O1781 1.224 . S
O1774 C1773 1.278 . S
C1775 O1776 1.245 . S
C1775 O1787 1.232 . S
O1776 C1775 1.245 . S
O1777 Co1771 2.058 . S
O1777 C1803 1.269 . S
O1778 Co1770 2.074 . S
O1778 C1803 1.257 . S
H1779 C1804 0.930 . S
H1780 C1810 0.930 . S
O1781 Co1770 2.093 . S
O1781 C1773 1.224 . S
H1782 C1814 0.929 . S
H1783 C1816 0.930 . S
H1784 C1817 0.930 . S
H1785 C1815 0.929 . S
H1786 C1818 0.928 . S
O1787 Co1771 2.057 . S
O1787 C1775 1.232 . S
H1788 C1807 0.929 . S
H1789 C1808 0.929 . S
H1790 C1820 0.931 . S
H1791 C1812 0.929 . S
H1792 C1821 0.930 . S
H1793 C1813 0.931 . S
O1794 Co1770 2.097 . S
O1794 C1822 1.214 . S
H1795 C1823 0.929 . S
H1796 C1824 0.929 . S
H1797 C1825 0.930 . S
H1798 C1826 0.929 . S
H1799 C1828 0.930 . S
H1800 C1805 0.930 . S
H1801 C1809 0.930 . S
O1802 Co1771 2.037 . S
O1802 C1822 1.234 . S
C1803 O1777 1.269 . S
C1803 O1778 1.257 . S
C1804 H1779 0.930 . S
C1804 C1807 1.388 . S
C1804 C1809 1.418 . S
C1805 H1800 0.930 . S
C1805 C1808 1.404 . S
C1805 C1809 1.353 . S
N1806 Co1771 2.145 . S
N1806 C1807 1.397 . S
N1806 C1808 1.334 . S
C1807 H1788 0.929 . S
C1807 C1804 1.388 . S
C1807 N1806 1.397 . S
C1808 H1789 0.929 . S
C1808 C1805 1.404 . S
C1808 N1806 1.334 . S
C1809 H1801 0.930 . S
C1809 C1804 1.418 . S
C1809 C1805 1.353 . S
C1810 H1780 0.930 . S
C1810 N1811 1.330 . S
C1810 C1812 1.446 . S
N1811 Co1770 2.151 . S
N1811 C1810 1.330 . S
N1811 C1815 1.418 . S
C1812 H1791 0.929 . S
C1812 C1810 1.446 . S
C1812 C1813 1.332 . S
C1813 H1793 0.931 . S
C1813 C1812 1.332 . S
C1813 C1814 1.267 . S
C1814 H1782 0.929 . S
C1814 C1813 1.267 . S
C1814 C1815 1.251 . S
C1815 H1785 0.929 . S
C1815 N1811 1.418 . S
C1815 C1814 1.251 . S
C1816 H1783 0.930 . S
C1816 C1818 1.406 . S
C1816 C1821 1.261 . S
C1817 H1784 0.930 . S
C1817 N1819 1.325 . S
C1817 C1820 1.357 . S
C1818 H1786 0.928 . S
C1818 C1816 1.406 . S
C1818 N1819 1.261 . S
N1819 Co1770 2.214 . S
N1819 C1817 1.325 . S
N1819 C1818 1.261 . S
C1820 H1790 0.931 . S
C1820 C1817 1.357 . S
C1820 C1821 1.312 . S
C1821 H1792 0.930 . S
C1821 C1816 1.261 . S
C1821 C1820 1.312 . S
C1822 O1794 1.214 . S
C1822 O1802 1.234 . S
C1823 H1795 0.929 . S
C1823 C1826 1.391 . S
C1823 C1828 1.391 . S
C1824 H1796 0.929 . S
C1824 C1825 1.390 . S
C1824 N1827 1.391 . S
C1825 H1797 0.930 . S
C1825 C1824 1.390 . S
C1825 C1826 1.392 . S
C1826 H1798 0.929 . S
C1826 C1823 1.391 . S
C1826 C1825 1.392 . S
N1827 Co1771 2.257 . S
N1827 C1824 1.391 . S
N1827 C1828 1.388 . S
C1828 H1799 0.930 . S
C1828 C1823 1.391 . S
C1828 N1827 1.388 . S
Co1829 O1831 2.143 . S
Co1829 O1837 2.074 . S
Co1829 O1840 2.093 . S
Co1829 O1853 2.097 . S
Co1829 N1870 2.151 . S
Co1829 N1878 2.214 . S
Co1830 O1831 2.160 . S
Co1830 O1836 2.058 . S
Co1830 O1846 2.057 . S
Co1830 O1861 2.037 . S
Co1830 N1865 2.145 . S
Co1830 N1886 2.257 . S
O1831 Co1829 2.143 . S
O1831 Co1830 2.160 . S
C1832 O1833 1.278 . S
C1832 O1840 1.224 . S
O1833 C1832 1.278 . S
C1834 O1835 1.245 . S
C1834 O1846 1.232 . S
O1835 C1834 1.245 . S
O1836 Co1830 2.058 . S
O1836 C1862 1.269 . S
O1837 Co1829 2.074 . S
O1837 C1862 1.257 . S
H1838 C1863 0.930 . S
H1839 C1869 0.930 . S
O1840 Co1829 2.093 . S
O1840 C1832 1.224 . S
H1841 C1873 0.929 . S
H1842 C1875 0.930 . S
H1843 C1876 0.930 . S
H1844 C1874 0.929 . S
H1845 C1877 0.928 . S
O1846 Co1830 2.057 . S
O1846 C1834 1.232 . S
H1847 C1866 0.929 . S
H1848 C1867 0.929 . S
H1849 C1879 0.931 . S
H1850 C1871 0.929 . S
H1851 C1880 0.930 . S
H1852 C1872 0.931 . S
O1853 Co1829 2.097 . S
O1853 C1881 1.214 . S
H1854 C1882 0.929 . S
H1855 C1883 0.929 . S
H1856 C1884 0.930 . S
H1857 C1885 0.929 . S
H1858 C1887 0.930 . S
H1859 C1864 0.930 . S
H1860 C1868 0.930 . S
O1861 Co1830 2.037 . S
O1861 C1881 1.234 . S
C1862 O1836 1.269 . S
C1862 O1837 1.257 . S
C1863 H1838 0.930 . S
C1863 C1866 1.388 . S
C1863 C1868 1.418 . S
C1864 H1859 0.930 . S
C1864 C1867 1.404 . S
C1864 C1868 1.353 . S
N1865 Co1830 2.145 . S
N1865 C1866 1.397 . S
N1865 C1867 1.334 . S
C1866 H1847 0.929 . S
C1866 C1863 1.388 . S
C1866 N1865 1.397 . S
C1867 H1848 0.929 . S
C1867 C1864 1.404 . S
C1867 N1865 1.334 . S
C1868 H1860 0.930 . S
C1868 C1863 1.418 . S
C1868 C1864 1.353 . S
C1869 H1839 0.930 . S
C1869 N1870 1.330 . S
C1869 C1871 1.446 . S
N1870 Co1829 2.151 . S
N1870 C1869 1.330 . S
N1870 C1874 1.418 . S
C1871 H1850 0.929 . S
C1871 C1869 1.446 . S
C1871 C1872 1.332 . S
C1872 H1852 0.931 . S
C1872 C1871 1.332 . S
C1872 C1873 1.267 . S
C1873 H1841 0.929 . S
C1873 C1872 1.267 . S
C1873 C1874 1.251 . S
C1874 H1844 0.929 . S
C1874 N1870 1.418 . S
C1874 C1873 1.251 . S
C1875 H1842 0.930 . S
C1875 C1877 1.406 . S
C1875 C1880 1.261 . S
C1876 H1843 0.930 . S
C1876 N1878 1.325 . S
C1876 C1879 1.357 . S
C1877 H1845 0.928 . S
C1877 C1875 1.406 . S
C1877 N1878 1.261 . S
N1878 Co1829 2.214 . S
N1878 C1876 1.325 . S
N1878 C1877 1.261 . S
C1879 H1849 0.931 . S
C1879 C1876 1.357 . S
C1879 C1880 1.312 . S
C1880 H1851 0.930 . S
C1880 C1875 1.261 . S
C1880 C1879 1.312 . S
C1881 O1853 1.214 . S
C1881 O1861 1.234 . S
C1882 H1854 0.929 . S
C1882 C1885 1.391 . S
C1882 C1887 1.391 . S
C1883 H1855 0.929 . S
C1883 C1884 1.390 . S
C1883 N1886 1.391 . S
C1884 H1856 0.930 . S
C1884 C1883 1.390 . S
C1884 C1885 1.392 . S
C1885 H1857 0.929 . S
C1885 C1882 1.391 . S
C1885 C1884 1.392 . S
N1886 Co1830 2.257 . S
N1886 C1883 1.391 . S
N1886 C1887 1.388 . S
C1887 H1858 0.930 . S
C1887 C1882 1.391 . S
C1887 N1886 1.388 . S
Co1888 O1890 2.143 . S
Co1888 O1896 2.074 . S
Co1888 O1899 2.093 . S
Co1888 O1912 2.097 . S
Co1888 N1929 2.151 . S
Co1888 N1937 2.214 . S
Co1889 O1890 2.160 . S
Co1889 O1895 2.058 . S
Co1889 O1905 2.057 . S
Co1889 O1920 2.037 . S
Co1889 N1924 2.145 . S
Co1889 N1945 2.257 . S
O1890 Co1888 2.143 . S
O1890 Co1889 2.160 . S
C1891 O1892 1.278 . S
C1891 O1899 1.224 . S
O1892 C1891 1.278 . S
C1893 O1894 1.245 . S
C1893 O1905 1.232 . S
O1894 C1893 1.245 . S
O1895 Co1889 2.058 . S
O1895 C1921 1.269 . S
O1896 Co1888 2.074 . S
O1896 C1921 1.257 . S
H1897 C1922 0.930 . S
H1898 C1928 0.930 . S
O1899 Co1888 2.093 . S
O1899 C1891 1.224 . S
H1900 C1932 0.929 . S
H1901 C1934 0.930 . S
H1902 C1935 0.930 . S
H1903 C1933 0.929 . S
H1904 C1936 0.928 . S
O1905 Co1889 2.057 . S
O1905 C1893 1.232 . S
H1906 C1925 0.929 . S
H1907 C1926 0.929 . S
H1908 C1938 0.931 . S
H1909 C1930 0.929 . S
H1910 C1939 0.930 . S
H1911 C1931 0.931 . S
O1912 Co1888 2.097 . S
O1912 C1940 1.214 . S
H1913 C1941 0.929 . S
H1914 C1942 0.929 . S
H1915 C1943 0.930 . S
H1916 C1944 0.929 . S
H1917 C1946 0.930 . S
H1918 C1923 0.930 . S
H1919 C1927 0.930 . S
O1920 Co1889 2.037 . S
O1920 C1940 1.234 . S
C1921 O1895 1.269 . S
C1921 O1896 1.257 . S
C1922 H1897 0.930 . S
C1922 C1925 1.388 . S
C1922 C1927 1.418 . S
C1923 H1918 0.930 . S
C1923 C1926 1.404 . S
C1923 C1927 1.353 . S
N1924 Co1889 2.145 . S
N1924 C1925 1.397 . S
N1924 C1926 1.334 . S
C1925 H1906 0.929 . S
C1925 C1922 1.388 . S
C1925 N1924 1.397 . S
C1926 H1907 0.929 . S
C1926 C1923 1.404 . S
C1926 N1924 1.334 . S
C1927 H1919 0.930 . S
C1927 C1922 1.418 . S
C1927 C1923 1.353 . S
C1928 H1898 0.930 . S
C1928 N1929 1.330 . S
C1928 C1930 1.446 . S
N1929 Co1888 2.151 . S
N1929 C1928 1.330 . S
N1929 C1933 1.418 . S
C1930 H1909 0.929 . S
C1930 C1928 1.446 . S
C1930 C1931 1.332 . S
C1931 H1911 0.931 . S
C1931 C1930 1.332 . S
C1931 C1932 1.267 . S
C1932 H1900 0.929 . S
C1932 C1931 1.267 . S
C1932 C1933 1.251 . S
C1933 H1903 0.929 . S
C1933 N1929 1.418 . S
C1933 C1932 1.251 . S
C1934 H1901 0.930 . S
C1934 C1936 1.406 . S
C1934 C1939 1.261 . S
C1935 H1902 0.930 . S
C1935 N1937 1.325 . S
C1935 C1938 1.357 . S
C1936 H1904 0.928 . S
C1936 C1934 1.406 . S
C1936 N1937 1.261 . S
N1937 Co1888 2.214 . S
N1937 C1935 1.325 . S
N1937 C1936 1.261 . S
C1938 H1908 0.931 . S
C1938 C1935 1.357 . S
C1938 C1939 1.312 . S
C1939 H1910 0.930 . S
C1939 C1934 1.261 . S
C1939 C1938 1.312 . S
C1940 O1912 1.214 . S
C1940 O1920 1.234 . S
C1941 H1913 0.929 . S
C1941 C1944 1.391 . S
C1941 C1946 1.391 . S
C1942 H1914 0.929 . S
C1942 C1943 1.390 . S
C1942 N1945 1.391 . S
C1943 H1915 0.930 . S
C1943 C1942 1.390 . S
C1943 C1944 1.392 . S
C1944 H1916 0.929 . S
C1944 C1941 1.391 . S
C1944 C1943 1.392 . S
N1945 Co1889 2.257 . S
N1945 C1942 1.391 . S
N1945 C1946 1.388 . S
C1946 H1917 0.930 . S
C1946 C1941 1.391 . S
C1946 N1945 1.388 . S
Co1947 O1949 2.143 . S
Co1947 O1955 2.074 . S
Co1947 O1958 2.093 . S
Co1947 O1971 2.097 . S
Co1947 N1988 2.151 . S
Co1947 N1996 2.214 . S
Co1948 O1949 2.160 . S
Co1948 O1954 2.058 . S
Co1948 O1964 2.057 . S
Co1948 O1979 2.037 . S
Co1948 N1983 2.145 . S
Co1948 N2004 2.257 . S
O1949 Co1947 2.143 . S
O1949 Co1948 2.160 . S
C1950 O1951 1.278 . S
C1950 O1958 1.224 . S
O1951 C1950 1.278 . S
C1952 O1953 1.245 . S
C1952 O1964 1.232 . S
O1953 C1952 1.245 . S
O1954 Co1948 2.058 . S
O1954 C1980 1.269 . S
O1955 Co1947 2.074 . S
O1955 C1980 1.257 . S
H1956 C1981 0.930 . S
H1957 C1987 0.930 . S
O1958 Co1947 2.093 . S
O1958 C1950 1.224 . S
H1959 C1991 0.929 . S
H1960 C1993 0.930 . S
H1961 C1994 0.930 . S
H1962 C1992 0.929 . S
H1963 C1995 0.928 . S
O1964 Co1948 2.057 . S
O1964 C1952 1.232 . S
H1965 C1984 0.929 . S
H1966 C1985 0.929 . S
H1967 C1997 0.931 . S
H1968 C1989 0.929 . S
H1969 C1998 0.930 . S
H1970 C1990 0.931 . S
O1971 Co1947 2.097 . S
O1971 C1999 1.214 . S
H1972 C2000 0.929 . S
H1973 C2001 0.929 . S
H1974 C2002 0.930 . S
H1975 C2003 0.929 . S
H1976 C2005 0.930 . S
H1977 C1982 0.930 . S
H1978 C1986 0.930 . S
O1979 Co1948 2.037 . S
O1979 C1999 1.234 . S
C1980 O1954 1.269 . S
C1980 O1955 1.257 . S
C1981 H1956 0.930 . S
C1981 C1984 1.388 . S
C1981 C1986 1.418 . S
C1982 H1977 0.930 . S
C1982 C1985 1.404 . S
C1982 C1986 1.353 . S
N1983 Co1948 2.145 . S
N1983 C1984 1.397 . S
N1983 C1985 1.334 . S
C1984 H1965 0.929 . S
C1984 C1981 1.388 . S
C1984 N1983 1.397 . S
C1985 H1966 0.929 . S
C1985 C1982 1.404 . S
C1985 N1983 1.334 . S
C1986 H1978 0.930 . S
C1986 C1981 1.418 . S
C1986 C1982 1.353 . S
C1987 H1957 0.930 . S
C1987 N1988 1.330 . S
C1987 C1989 1.446 . S
N1988 Co1947 2.151 . S
N1988 C1987 1.330 . S
N1988 C1992 1.418 . S
C1989 H1968 0.929 . S
C1989 C1987 1.446 . S
C1989 C1990 1.332 . S
C1990 H1970 0.931 . S
C1990 C1989 1.332 . S
C1990 C1991 1.267 . S
C1991 H1959 0.929 . S
C1991 C1990 1.267 . S
C1991 C1992 1.251 . S
C1992 H1962 0.929 . S
C1992 N1988 1.418 . S
C1992 C1991 1.251 . S
C1993 H1960 0.930 . S
C1993 C1995 1.406 . S
C1993 C1998 1.261 . S
C1994 H1961 0.930 . S
C1994 N1996 1.325 . S
C1994 C1997 1.357 . S
C1995 H1963 0.928 . S
C1995 C1993 1.406 . S
C1995 N1996 1.261 . S
N1996 Co1947 2.214 . S
N1996 C1994 1.325 . S
N1996 C1995 1.261 . S
C1997 H1967 0.931 . S
C1997 C1994 1.357 . S
C1997 C1998 1.312 . S
C1998 H1969 0.930 . S
C1998 C1993 1.261 . S
C1998 C1997 1.312 . S
C1999 O1971 1.214 . S
C1999 O1979 1.234 . S
C2000 H1972 0.929 . S
C2000 C2003 1.391 . S
C2000 C2005 1.391 . S
C2001 H1973 0.929 . S
C2001 C2002 1.390 . S
C2001 N2004 1.391 . S
C2002 H1974 0.930 . S
C2002 C2001 1.390 . S
C2002 C2003 1.392 . S
C2003 H1975 0.929 . S
C2003 C2000 1.391 . S
C2003 C2002 1.392 . S
N2004 Co1948 2.257 . S
N2004 C2001 1.391 . S
N2004 C2005 1.388 . S
C2005 H1976 0.930 . S
C2005 C2000 1.391 . S
C2005 N2004 1.388 . S
Co2006 O2008 2.143 . S
Co2006 O2014 2.074 . S
Co2006 O2017 2.093 . S
Co2006 O2030 2.097 . S
Co2006 N2047 2.151 . S
Co2006 N2055 2.214 . S
Co2007 O2008 2.160 . S
Co2007 O2013 2.058 . S
Co2007 O2023 2.057 . S
Co2007 O2038 2.037 . S
Co2007 N2042 2.145 . S
Co2007 N2063 2.257 . S
O2008 Co2006 2.143 . S
O2008 Co2007 2.160 . S
C2009 O2010 1.278 . S
C2009 O2017 1.224 . S
O2010 C2009 1.278 . S
C2011 O2012 1.245 . S
C2011 O2023 1.232 . S
O2012 C2011 1.245 . S
O2013 Co2007 2.058 . S
O2013 C2039 1.269 . S
O2014 Co2006 2.074 . S
O2014 C2039 1.257 . S
H2015 C2040 0.930 . S
H2016 C2046 0.930 . S
O2017 Co2006 2.093 . S
O2017 C2009 1.224 . S
H2018 C2050 0.929 . S
H2019 C2052 0.930 . S
H2020 C2053 0.930 . S
H2021 C2051 0.929 . S
H2022 C2054 0.928 . S
O2023 Co2007 2.057 . S
O2023 C2011 1.232 . S
H2024 C2043 0.929 . S
H2025 C2044 0.929 . S
H2026 C2056 0.931 . S
H2027 C2048 0.929 . S
H2028 C2057 0.930 . S
H2029 C2049 0.931 . S
O2030 Co2006 2.097 . S
O2030 C2058 1.214 . S
H2031 C2059 0.929 . S
H2032 C2060 0.929 . S
H2033 C2061 0.930 . S
H2034 C2062 0.929 . S
H2035 C2064 0.930 . S
H2036 C2041 0.930 . S
H2037 C2045 0.930 . S
O2038 Co2007 2.037 . S
O2038 C2058 1.234 . S
C2039 O2013 1.269 . S
C2039 O2014 1.257 . S
C2040 H2015 0.930 . S
C2040 C2043 1.388 . S
C2040 C2045 1.418 . S
C2041 H2036 0.930 . S
C2041 C2044 1.404 . S
C2041 C2045 1.353 . S
N2042 Co2007 2.145 . S
N2042 C2043 1.397 . S
N2042 C2044 1.334 . S
C2043 H2024 0.929 . S
C2043 C2040 1.388 . S
C2043 N2042 1.397 . S
C2044 H2025 0.929 . S
C2044 C2041 1.404 . S
C2044 N2042 1.334 . S
C2045 H2037 0.930 . S
C2045 C2040 1.418 . S
C2045 C2041 1.353 . S
C2046 H2016 0.930 . S
C2046 N2047 1.330 . S
C2046 C2048 1.446 . S
N2047 Co2006 2.151 . S
N2047 C2046 1.330 . S
N2047 C2051 1.418 . S
C2048 H2027 0.929 . S
C2048 C2046 1.446 . S
C2048 C2049 1.332 . S
C2049 H2029 0.931 . S
C2049 C2048 1.332 . S
C2049 C2050 1.267 . S
C2050 H2018 0.929 . S
C2050 C2049 1.267 . S
C2050 C2051 1.251 . S
C2051 H2021 0.929 . S
C2051 N2047 1.418 . S
C2051 C2050 1.251 . S
C2052 H2019 0.930 . S
C2052 C2054 1.406 . S
C2052 C2057 1.261 . S
C2053 H2020 0.930 . S
C2053 N2055 1.325 . S
C2053 C2056 1.357 . S
C2054 H2022 0.928 . S
C2054 C2052 1.406 . S
C2054 N2055 1.261 . S
N2055 Co2006 2.214 . S
N2055 C2053 1.325 . S
N2055 C2054 1.261 . S
C2056 H2026 0.931 . S
C2056 C2053 1.357 . S
C2056 C2057 1.312 . S
C2057 H2028 0.930 . S
C2057 C2052 1.261 . S
C2057 C2056 1.312 . S
C2058 O2030 1.214 . S
C2058 O2038 1.234 . S
C2059 H2031 0.929 . S
C2059 C2062 1.391 . S
C2059 C2064 1.391 . S
C2060 H2032 0.929 . S
C2060 C2061 1.390 . S
C2060 N2063 1.391 . S
C2061 H2033 0.930 . S
C2061 C2060 1.390 . S
C2061 C2062 1.392 . S
C2062 H2034 0.929 . S
C2062 C2059 1.391 . S
C2062 C2061 1.392 . S
N2063 Co2007 2.257 . S
N2063 C2060 1.391 . S
N2063 C2064 1.388 . S
C2064 H2035 0.930 . S
C2064 C2059 1.391 . S
C2064 N2063 1.388 . S
Co2065 O2067 2.143 . S
Co2065 O2073 2.074 . S
Co2065 O2076 2.093 . S
Co2065 O2089 2.097 . S
Co2065 N2106 2.151 . S
Co2065 N2114 2.214 . S
Co2066 O2067 2.160 . S
Co2066 O2072 2.058 . S
Co2066 O2082 2.057 . S
Co2066 O2097 2.037 . S
Co2066 N2101 2.145 . S
Co2066 N2122 2.257 . S
O2067 Co2065 2.143 . S
O2067 Co2066 2.160 . S
C2068 O2069 1.278 . S
C2068 O2076 1.224 . S
O2069 C2068 1.278 . S
C2070 O2071 1.245 . S
C2070 O2082 1.232 . S
O2071 C2070 1.245 . S
O2072 Co2066 2.058 . S
O2072 C2098 1.269 . S
O2073 Co2065 2.074 . S
O2073 C2098 1.257 . S
H2074 C2099 0.930 . S
H2075 C2105 0.930 . S
O2076 Co2065 2.093 . S
O2076 C2068 1.224 . S
H2077 C2109 0.929 . S
H2078 C2111 0.930 . S
H2079 C2112 0.930 . S
H2080 C2110 0.929 . S
H2081 C2113 0.928 . S
O2082 Co2066 2.057 . S
O2082 C2070 1.232 . S
H2083 C2102 0.929 . S
H2084 C2103 0.929 . S
H2085 C2115 0.931 . S
H2086 C2107 0.929 . S
H2087 C2116 0.930 . S
H2088 C2108 0.931 . S
O2089 Co2065 2.097 . S
O2089 C2117 1.214 . S
H2090 C2118 0.929 . S
H2091 C2119 0.929 . S
H2092 C2120 0.930 . S
H2093 C2121 0.929 . S
H2094 C2123 0.930 . S
H2095 C2100 0.930 . S
H2096 C2104 0.930 . S
O2097 Co2066 2.037 . S
O2097 C2117 1.234 . S
C2098 O2072 1.269 . S
C2098 O2073 1.257 . S
C2099 H2074 0.930 . S
C2099 C2102 1.388 . S
C2099 C2104 1.418 . S
C2100 H2095 0.930 . S
C2100 C2103 1.404 . S
C2100 C2104 1.353 . S
N2101 Co2066 2.145 . S
N2101 C2102 1.397 . S
N2101 C2103 1.334 . S
C2102 H2083 0.929 . S
C2102 C2099 1.388 . S
C2102 N2101 1.397 . S
C2103 H2084 0.929 . S
C2103 C2100 1.404 . S
C2103 N2101 1.334 . S
C2104 H2096 0.930 . S
C2104 C2099 1.418 . S
C2104 C2100 1.353 . S
C2105 H2075 0.930 . S
C2105 N2106 1.330 . S
C2105 C2107 1.446 . S
N2106 Co2065 2.151 . S
N2106 C2105 1.330 . S
N2106 C2110 1.418 . S
C2107 H2086 0.929 . S
C2107 C2105 1.446 . S
C2107 C2108 1.332 . S
C2108 H2088 0.931 . S
C2108 C2107 1.332 . S
C2108 C2109 1.267 . S
C2109 H2077 0.929 . S
C2109 C2108 1.267 . S
C2109 C2110 1.251 . S
C2110 H2080 0.929 . S
C2110 N2106 1.418 . S
C2110 C2109 1.251 . S
C2111 H2078 0.930 . S
C2111 C2113 1.406 . S
C2111 C2116 1.261 . S
C2112 H2079 0.930 . S
C2112 N2114 1.325 . S
C2112 C2115 1.357 . S
C2113 H2081 0.928 . S
C2113 C2111 1.406 . S
C2113 N2114 1.261 . S
N2114 Co2065 2.214 . S
N2114 C2112 1.325 . S
N2114 C2113 1.261 . S
C2115 H2085 0.931 . S
C2115 C2112 1.357 . S
C2115 C2116 1.312 . S
C2116 H2087 0.930 . S
C2116 C2111 1.261 . S
C2116 C2115 1.312 . S
C2117 O2089 1.214 . S
C2117 O2097 1.234 . S
C2118 H2090 0.929 . S
C2118 C2121 1.391 . S
C2118 C2123 1.391 . S
C2119 H2091 0.929 . S
C2119 C2120 1.390 . S
C2119 N2122 1.391 . S
C2120 H2092 0.930 . S
C2120 C2119 1.390 . S
C2120 C2121 1.392 . S
C2121 H2093 0.929 . S
C2121 C2118 1.391 . S
C2121 C2120 1.392 . S
N2122 Co2066 2.257 . S
N2122 C2119 1.391 . S
N2122 C2123 1.388 . S
C2123 H2094 0.930 . S
C2123 C2118 1.391 . S
C2123 N2122 1.388 . S
H2124 C2130 0.930 . S
H2125 C2134 0.930 . S
H2126 C2139 0.929 . S
H2127 C2137 0.929 . S
H2128 C2132 0.929 . S
H2129 C2138 0.929 . S
C2130 H2124 0.930 . S
C2130 C2131 1.367 . S
C2130 C2138 1.378 . S
C2131 C2130 1.367 . S
C2131 C2139 1.433 . S
C2132 H2128 0.929 . S
C2132 C2134 1.378 1_545 S
C2132 C2136 1.350 . S
C2133 C2136 1.463 1_554 S
C2133 C2138 1.350 . S
C2133 N2141 1.427 . S
C2134 H2125 0.930 . S
C2134 C2132 1.378 1_565 S
C2134 C2135 1.367 . S
C2135 C2134 1.367 . S
C2135 C2137 1.433 . S
C2136 C2132 1.350 . S
C2136 C2133 1.463 1_556 S
C2136 N2140 1.427 . S
C2137 H2127 0.929 . S
C2137 C2135 1.433 . S
C2137 N2140 1.384 1_565 S
C2138 H2129 0.929 . S
C2138 C2130 1.378 . S
C2138 C2133 1.350 . S
C2139 H2126 0.929 . S
C2139 C2131 1.433 . S
C2139 N2141 1.384 . S
N2140 C2136 1.427 . S
N2140 C2137 1.384 1_545 S
N2141 C2133 1.427 . S
N2141 C2139 1.384 . S
H2142 C2148 0.930 . S
H2143 C2152 0.930 . S
H2144 C2157 0.937 . S
H2145 C2155 0.929 . S
H2146 C2150 0.929 . S
H2147 C2156 0.929 . S
C2148 H2142 0.930 . S
C2148 C2149 1.367 . S
C2148 C2156 1.378 . S
C2149 C2148 1.367 . S
C2149 C2157 1.433 . S
C2150 H2146 0.929 . S
C2150 C2152 1.378 1_655 S
C2150 C2154 1.350 . S
C2151 C2154 1.463 1_554 S
C2151 C2156 1.350 . S
C2151 N2159 1.427 1_554 S
C2152 H2143 0.930 . S
C2152 C2150 1.378 1_455 S
C2152 C2153 1.367 . S
C2153 C2152 1.367 . S
C2153 C2155 1.433 . S
C2154 C2150 1.350 . S
C2154 C2151 1.463 1_556 S
C2154 N2158 1.419 1_556 S
C2155 H2145 0.929 . S
C2155 C2153 1.433 . S
C2155 N2158 1.361 1_456 S
C2156 H2147 0.929 . S
C2156 C2148 1.378 . S
C2156 C2151 1.350 . S
C2157 H2144 0.937 . S
C2157 C2149 1.433 . S
C2157 N2159 1.384 1_554 S
N2158 C2154 1.419 1_554 S
N2158 C2155 1.361 1_654 S
N2159 C2151 1.427 1_556 S
N2159 C2157 1.384 1_556 S
H2160 C2166 0.930 . S
H2161 C2170 0.930 . S
H2162 C2175 0.929 . S
H2163 C2173 0.929 1_556 S
H2164 C2168 0.929 . S
H2165 C2174 0.929 . S
C2166 H2160 0.930 . S
C2166 C2167 1.367 . S
C2166 C2174 1.378 . S
C2167 C2166 1.367 . S
C2167 C2175 1.433 . S
C2168 H2164 0.929 . S
C2168 C2170 1.378 . S
C2168 C2172 1.350 . S
C2169 C2172 1.463 1_556 S
C2169 C2174 1.350 . S
C2169 N2177 1.427 1_556 S
C2170 H2161 0.930 . S
C2170 C2168 1.378 . S
C2170 C2171 1.367 . S
C2171 C2170 1.367 . S
C2171 C2173 1.433 . S
C2172 C2168 1.350 . S
C2172 C2169 1.463 1_554 S
C2172 N2176 1.427 1_554 S
C2173 H2163 0.929 1_554 S
C2173 C2171 1.433 . S
C2173 N2176 1.384 1_554 S
C2174 H2165 0.929 . S
C2174 C2166 1.378 . S
C2174 C2169 1.350 . S
C2175 H2162 0.929 . S
C2175 C2167 1.433 . S
C2175 N2177 1.384 1_556 S
N2176 C2172 1.427 1_556 S
N2176 C2173 1.384 1_556 S
N2177 C2169 1.427 1_554 S
N2177 C2175 1.384 1_554 S
H2178 C2184 0.921 . S
H2179 C2188 0.930 . S
H2180 C2193 0.929 . S
H2181 C2191 0.929 . S
H2182 C2186 0.929 . S
H2183 C2192 0.929 . S
C2184 H2178 0.921 . S
C2184 C2185 1.367 . S
C2184 C2192 1.378 1_655 S
C2185 C2184 1.367 . S
C2185 C2193 1.433 . S
C2186 H2182 0.929 . S
C2186 C2188 1.378 . S
C2186 C2190 1.350 . S
C2187 C2190 1.463 . S
C2187 C2192 1.350 . S
C2187 N2195 1.427 1_455 S
C2188 H2179 0.930 . S
C2188 C2186 1.378 . S
C2188 C2189 1.367 . S
C2189 C2188 1.367 . S
C2189 C2191 1.433 . S
C2190 C2186 1.350 . S
C2190 C2187 1.463 . S
C2190 N2194 1.427 . S
C2191 H2181 0.929 . S
C2191 C2189 1.433 . S
C2191 N2194 1.384 . S
C2192 H2183 0.929 . S
C2192 C2184 1.378 1_455 S
C2192 C2187 1.350 . S
C2193 H2180 0.929 . S
C2193 C2185 1.433 . S
C2193 N2195 1.384 . S
N2194 C2190 1.427 . S
N2194 C2191 1.384 . S
N2195 C2187 1.427 1_655 S
N2195 C2193 1.384 . S
H2196 C2202 0.930 . S
H2197 C2206 0.930 . S
H2198 C2211 0.929 . S
H2199 C2209 0.929 . S
H2200 C2204 0.929 . S
H2201 C2210 0.929 . S
C2202 H2196 0.930 . S
C2202 C2203 1.367 . S
C2202 C2210 1.378 . S
C2203 C2202 1.367 . S
C2203 C2211 1.433 . S
C2204 H2200 0.929 . S
C2204 C2206 1.378 . S
C2204 C2208 1.350 . S
C2205 C2208 1.463 . S
C2205 C2210 1.350 . S
C2205 N2213 1.427 . S
C2206 H2197 0.930 . S
C2206 C2204 1.378 . S
C2206 C2207 1.367 . S
C2207 C2206 1.367 . S
C2207 C2209 1.433 . S
C2208 C2204 1.350 . S
C2208 C2205 1.463 . S
C2208 N2212 1.427 . S
C2209 H2199 0.929 . S
C2209 C2207 1.433 . S
C2209 N2212 1.384 . S
C2210 H2201 0.929 . S
C2210 C2202 1.378 . S
C2210 C2205 1.350 . S
C2211 H2198 0.929 . S
C2211 C2203 1.433 . S
C2211 N2213 1.384 . S
N2212 C2208 1.427 . S
N2212 C2209 1.384 . S
N2213 C2205 1.427 . S
N2213 C2211 1.384 . S
H2214 C2220 0.930 . S
H2215 C2224 0.930 . S
H2216 C2229 0.929 . S
H2217 C2227 0.929 . S
H2218 C2222 0.929 . S
H2219 C2228 0.929 . S
C2220 H2214 0.930 . S
C2220 C2221 1.367 . S
C2220 C2228 1.378 . S
C2221 C2220 1.367 . S
C2221 C2229 1.433 . S
C2222 H2218 0.929 . S
C2222 C2224 1.378 . S
C2222 C2226 1.350 1_545 S
C2223 C2226 1.463 . S
C2223 C2228 1.350 . S
C2223 N2231 1.427 . S
C2224 H2215 0.930 . S
C2224 C2222 1.378 . S
C2224 C2225 1.367 . S
C2225 C2224 1.367 . S
C2225 C2227 1.433 . S
C2226 C2222 1.350 1_565 S
C2226 C2223 1.463 . S
C2226 N2230 1.427 . S
C2227 H2217 0.929 . S
C2227 C2225 1.433 . S
C2227 N2230 1.384 1_545 S
C2228 H2219 0.929 . S
C2228 C2220 1.378 . S
C2228 C2223 1.350 . S
C2229 H2216 0.929 . S
C2229 C2221 1.433 . S
C2229 N2231 1.384 . S
N2230 C2226 1.427 . S
N2230 C2227 1.384 1_565 S
N2231 C2223 1.427 . S
N2231 C2229 1.384 . S
H2232 C2238 0.930 . S
H2233 C2242 0.930 . S
H2234 C2247 0.929 . S
H2235 C2245 0.929 . S
H2236 C2240 0.929 1_554 S
H2237 C2246 0.938 . S
C2238 H2232 0.930 . S
C2238 C2239 1.367 . S
C2238 C2246 1.363 1_545 S
C2239 C2238 1.367 . S
C2239 C2247 1.433 . S
C2240 H2236 0.929 1_556 S
C2240 C2242 1.378 . S
C2240 C2244 1.350 . S
C2241 C2244 1.463 1_554 S
C2241 C2246 1.355 . S
C2241 N2249 1.427 . S
C2242 H2233 0.930 . S
C2242 C2240 1.378 . S
C2242 C2243 1.367 . S
C2243 C2242 1.367 . S
C2243 C2245 1.433 . S
C2244 C2240 1.350 . S
C2244 C2241 1.463 1_556 S
C2244 N2248 1.427 . S
C2245 H2235 0.929 . S
C2245 C2243 1.433 . S
C2245 N2248 1.384 . S
C2246 H2237 0.938 . S
C2246 C2238 1.363 1_565 S
C2246 C2241 1.355 . S
C2247 H2234 0.929 . S
C2247 C2239 1.433 . S
C2247 N2249 1.384 1_545 S
N2248 C2244 1.427 . S
N2248 C2245 1.384 . S
N2249 C2241 1.427 . S
N2249 C2247 1.384 1_565 S
H2250 C2256 0.930 . S
H2251 C2260 0.930 . S
H2252 C2265 0.929 . S
H2253 C2263 0.929 1_554 S
H2254 C2258 0.929 . S
H2255 C2264 0.929 . S
C2256 H2250 0.930 . S
C2256 C2257 1.367 . S
C2256 C2264 1.378 1_655 S
C2257 C2256 1.367 . S
C2257 C2265 1.433 . S
C2258 H2254 0.929 . S
C2258 C2260 1.378 . S
C2258 C2262 1.350 . S
C2259 C2262 1.463 1_554 S
C2259 C2264 1.350 . S
C2259 N2267 1.427 1_454 S
C2260 H2251 0.930 . S
C2260 C2258 1.378 . S
C2260 C2261 1.367 . S
C2261 C2260 1.367 . S
C2261 C2263 1.433 . S
C2262 C2258 1.350 . S
C2262 C2259 1.463 1_556 S
C2262 N2266 1.427 1_556 S
C2263 H2253 0.929 1_556 S
C2263 C2261 1.433 . S
C2263 N2266 1.384 1_556 S
C2264 H2255 0.929 . S
C2264 C2256 1.378 1_455 S
C2264 C2259 1.350 . S
C2265 H2252 0.929 . S
C2265 C2257 1.433 . S
C2265 N2267 1.384 1_554 S
N2266 C2262 1.427 1_554 S
N2266 C2263 1.384 1_554 S
N2267 C2259 1.427 1_656 S
N2267 C2265 1.384 1_556 S
H2268 C2274 0.930 . S
H2269 C2278 0.930 . S
H2270 C2283 0.929 1_554 S
H2271 C2281 0.929 . S
H2272 C2276 0.929 . S
H2273 C2282 0.929 . S
C2274 H2268 0.930 . S
C2274 C2275 1.367 . S
C2274 C2282 1.378 . S
C2275 C2274 1.367 . S
C2275 C2283 1.433 . S
C2276 H2272 0.929 . S
C2276 C2278 1.378 . S
C2276 C2280 1.350 . S
C2277 C2280 1.463 1_556 S
C2277 C2282 1.350 . S
C2277 N2285 1.427 1_556 S
C2278 H2269 0.930 . S
C2278 C2276 1.378 . S
C2278 C2279 1.367 . S
C2279 C2278 1.367 . S
C2279 C2281 1.433 . S
C2280 C2276 1.350 . S
C2280 C2277 1.463 1_554 S
C2280 N2284 1.427 1_554 S
C2281 H2271 0.929 . S
C2281 C2279 1.433 . S
C2281 N2284 1.384 1_554 S
C2282 H2273 0.929 . S
C2282 C2274 1.378 . S
C2282 C2277 1.350 . S
C2283 H2270 0.929 1_556 S
C2283 C2275 1.433 . S
C2283 N2285 1.384 1_556 S
N2284 C2280 1.427 1_556 S
N2284 C2281 1.384 1_556 S
N2285 C2277 1.427 1_554 S
N2285 C2283 1.384 1_554 S
H2286 C2292 0.930 . S
H2287 C2296 0.930 . S
H2288 C2301 0.929 . S
H2289 C2299 0.929 . S
H2290 C2294 0.929 . S
H2291 C2300 0.929 . S
C2292 H2286 0.930 . S
C2292 C2293 1.367 . S
C2292 C2300 1.378 . S
C2293 C2292 1.367 . S
C2293 C2301 1.433 . S
C2294 H2290 0.929 . S
C2294 C2296 1.378 1_655 S
C2294 C2298 1.350 . S
C2295 C2298 1.463 . S
C2295 C2300 1.350 . S
C2295 N2303 1.427 . S
C2296 H2287 0.930 . S
C2296 C2294 1.378 1_455 S
C2296 C2297 1.367 . S
C2297 C2296 1.367 . S
C2297 C2299 1.433 . S
C2298 C2294 1.350 . S
C2298 C2295 1.463 . S
C2298 N2302 1.427 . S
C2299 H2289 0.929 . S
C2299 C2297 1.433 . S
C2299 N2302 1.384 1_455 S
C2300 H2291 0.929 . S
C2300 C2292 1.378 . S
C2300 C2295 1.350 . S
C2301 H2288 0.929 . S
C2301 C2293 1.433 . S
C2301 N2303 1.384 . S
N2302 C2298 1.427 . S
N2302 C2299 1.384 1_655 S
N2303 C2295 1.427 . S
N2303 C2301 1.384 . S
H2304 C2310 0.930 . S
H2305 C2314 0.930 . S
H2306 C2319 0.929 . S
H2307 C2317 0.929 . S
H2308 C2312 0.929 . S
H2309 C2318 0.929 . S
C2310 H2304 0.930 . S
C2310 C2311 1.367 . S
C2310 C2318 1.378 . S
C2311 C2310 1.367 . S
C2311 C2319 1.433 . S
C2312 H2308 0.929 . S
C2312 C2314 1.378 . S
C2312 C2316 1.350 . S
C2313 C2316 1.463 . S
C2313 C2318 1.350 . S
C2313 N2321 1.427 . S
C2314 H2305 0.930 . S
C2314 C2312 1.378 . S
C2314 C2315 1.367 . S
C2315 C2314 1.367 . S
C2315 C2317 1.433 . S
C2316 C2312 1.350 . S
C2316 C2313 1.463 . S
C2316 N2320 1.427 . S
C2317 H2307 0.929 . S
C2317 C2315 1.433 . S
C2317 N2320 1.384 . S
C2318 H2309 0.929 . S
C2318 C2310 1.378 . S
C2318 C2313 1.350 . S
C2319 H2306 0.929 . S
C2319 C2311 1.433 . S
C2319 N2321 1.384 . S
N2320 C2316 1.427 . S
N2320 C2317 1.384 . S
N2321 C2313 1.427 . S
N2321 C2319 1.384 . S
H2322 C2328 0.930 . S
H2323 C2332 0.930 . S
H2324 C2337 0.929 . S
H2325 C2335 0.929 . S
H2326 C2330 0.929 . S
H2327 C2336 0.929 . S
C2328 H2322 0.930 . S
C2328 C2329 1.367 . S
C2328 C2336 1.378 . S
C2329 C2328 1.367 . S
C2329 C2337 1.433 . S
C2330 H2326 0.929 . S
C2330 C2332 1.378 1_545 S
C2330 C2334 1.350 . S
C2331 C2334 1.463 . S
C2331 C2336 1.350 . S
C2331 N2339 1.427 . S
C2332 H2323 0.930 . S
C2332 C2330 1.378 1_565 S
C2332 C2333 1.367 . S
C2333 C2332 1.367 . S
C2333 C2335 1.433 . S
C2334 C2330 1.350 . S
C2334 C2331 1.463 . S
C2334 N2338 1.427 1_545 S
C2335 H2325 0.929 . S
C2335 C2333 1.433 . S
C2335 N2338 1.384 . S
C2336 H2327 0.929 . S
C2336 C2328 1.378 . S
C2336 C2331 1.350 . S
C2337 H2324 0.929 . S
C2337 C2329 1.433 . S
C2337 N2339 1.384 . S
N2338 C2334 1.427 1_565 S
N2338 C2335 1.384 . S
N2339 C2331 1.427 . S
N2339 C2337 1.384 . S
H2340 C2346 0.930 . S
H2341 C2350 0.930 . S
H2342 C2355 0.929 . S
H2343 C2353 0.929 . S
H2344 C2348 0.929 . S
H2345 C2354 0.929 . S
C2346 H2340 0.930 . S
C2346 C2347 1.367 . S
C2346 C2354 1.378 . S
C2347 C2346 1.367 . S
C2347 C2355 1.433 . S
C2348 H2344 0.929 . S
C2348 C2350 1.378 . S
C2348 C2352 1.350 . S
C2349 C2352 1.463 . S
C2349 C2354 1.350 . S
C2349 N2357 1.427 . S
C2350 H2341 0.930 . S
C2350 C2348 1.378 . S
C2350 C2351 1.367 . S
C2351 C2350 1.367 . S
C2351 C2353 1.433 . S
C2352 C2348 1.350 . S
C2352 C2349 1.463 . S
C2352 N2356 1.427 . S
C2353 H2343 0.929 . S
C2353 C2351 1.433 . S
C2353 N2356 1.384 . S
C2354 H2345 0.929 . S
C2354 C2346 1.378 . S
C2354 C2349 1.350 . S
C2355 H2342 0.929 . S
C2355 C2347 1.433 . S
C2355 N2357 1.384 . S
N2356 C2352 1.427 . S
N2356 C2353 1.384 . S
N2357 C2349 1.427 . S
N2357 C2355 1.384 . S
H2358 C2364 0.930 . S
H2359 C2368 0.930 . S
H2360 C2373 0.929 . S
H2361 C2371 0.929 . S
H2362 C2366 0.929 . S
H2363 C2372 0.929 . S
C2364 H2358 0.930 . S
C2364 C2365 1.367 . S
C2364 C2372 1.378 . S
C2365 C2364 1.367 . S
C2365 C2373 1.433 . S
C2366 H2362 0.929 . S
C2366 C2368 1.378 . S
C2366 C2370 1.350 . S
C2367 C2370 1.463 . S
C2367 C2372 1.350 . S
C2367 N2375 1.427 . S
C2368 H2359 0.930 . S
C2368 C2366 1.378 . S
C2368 C2369 1.367 . S
C2369 C2368 1.367 . S
C2369 C2371 1.433 . S
C2370 C2366 1.350 . S
C2370 C2367 1.463 . S
C2370 N2374 1.427 . S
C2371 H2361 0.929 . S
C2371 C2369 1.433 . S
C2371 N2374 1.384 . S
C2372 H2363 0.929 . S
C2372 C2364 1.378 . S
C2372 C2367 1.350 . S
C2373 H2360 0.929 . S
C2373 C2365 1.433 . S
C2373 N2375 1.384 . S
N2374 C2370 1.427 . S
N2374 C2371 1.384 . S
N2375 C2367 1.427 . S
N2375 C2373 1.384 . S
H2376 C2382 0.930 . S
H2377 C2386 0.930 . S
H2378 C2391 0.929 . S
H2379 C2389 0.929 . S
H2380 C2384 0.929 . S
H2381 C2390 0.929 . S
C2382 H2376 0.930 . S
C2382 C2383 1.367 . S
C2382 C2390 1.378 . S
C2383 C2382 1.367 . S
C2383 C2391 1.433 . S
C2384 H2380 0.929 . S
C2384 C2386 1.378 . S
C2384 C2388 1.350 . S
C2385 C2388 1.463 . S
C2385 C2390 1.350 . S
C2385 N2393 1.427 . S
C2386 H2377 0.930 . S
C2386 C2384 1.378 . S
C2386 C2387 1.367 . S
C2387 C2386 1.367 . S
C2387 C2389 1.433 . S
C2388 C2384 1.350 . S
C2388 C2385 1.463 . S
C2388 N2392 1.427 . S
C2389 H2379 0.929 . S
C2389 C2387 1.433 . S
C2389 N2392 1.384 . S
C2390 H2381 0.929 . S
C2390 C2382 1.378 . S
C2390 C2385 1.350 . S
C2391 H2378 0.929 . S
C2391 C2383 1.433 . S
C2391 N2393 1.384 . S
N2392 C2388 1.427 . S
N2392 C2389 1.384 . S
N2393 C2385 1.427 . S
N2393 C2391 1.384 . S
H2394 C2400 0.930 . S
H2395 C2404 0.930 . S
H2396 C2409 0.929 . S
H2397 C2407 0.929 . S
H2398 C2402 0.929 . S
H2399 C2408 0.929 . S
C2400 H2394 0.930 . S
C2400 C2401 1.367 . S
C2400 C2408 1.378 . S
C2401 C2400 1.367 . S
C2401 C2409 1.433 . S
C2402 H2398 0.929 . S
C2402 C2404 1.378 . S
C2402 C2406 1.350 . S
C2403 C2406 1.463 . S
C2403 C2408 1.350 . S
C2403 N2411 1.427 . S
C2404 H2395 0.930 . S
C2404 C2402 1.378 . S
C2404 C2405 1.367 . S
C2405 C2404 1.367 . S
C2405 C2407 1.433 . S
C2406 C2402 1.350 . S
C2406 C2403 1.463 . S
C2406 N2410 1.427 . S
C2407 H2397 0.929 . S
C2407 C2405 1.433 . S
C2407 N2410 1.384 . S
C2408 H2399 0.929 . S
C2408 C2400 1.378 . S
C2408 C2403 1.350 . S
C2409 H2396 0.929 . S
C2409 C2401 1.433 . S
C2409 N2411 1.384 . S
N2410 C2406 1.427 . S
N2410 C2407 1.384 . S
N2411 C2403 1.427 . S
N2411 C2409 1.384 . S
H2412 C2418 0.930 . S
H2413 C2422 0.930 . S
H2414 C2427 0.929 . S
H2415 C2425 0.929 . S
H2416 C2420 0.929 . S
H2417 C2426 0.929 . S
C2418 H2412 0.930 . S
C2418 C2419 1.367 . S
C2418 C2426 1.378 . S
C2419 C2418 1.367 . S
C2419 C2427 1.433 . S
C2420 H2416 0.929 . S
C2420 C2422 1.378 . S
C2420 C2424 1.350 . S
C2421 C2424 1.463 . S
C2421 C2426 1.350 . S
C2421 N2429 1.427 . S
C2422 H2413 0.930 . S
C2422 C2420 1.378 . S
C2422 C2423 1.367 . S
C2423 C2422 1.367 . S
C2423 C2425 1.433 . S
C2424 C2420 1.350 . S
C2424 C2421 1.463 . S
C2424 N2428 1.427 . S
C2425 H2415 0.929 . S
C2425 C2423 1.433 . S
C2425 N2428 1.384 . S
C2426 H2417 0.929 . S
C2426 C2418 1.378 . S
C2426 C2421 1.350 . S
C2427 H2414 0.929 . S
C2427 C2419 1.433 . S
C2427 N2429 1.384 . S
N2428 C2424 1.427 . S
N2428 C2425 1.384 . S
N2429 C2421 1.427 . S
N2429 C2427 1.384 . S
H2430 C2436 0.930 . S
H2431 C2440 0.930 . S
H2432 C2445 0.929 . S
H2433 C2443 0.929 . S
H2434 C2438 0.929 . S
H2435 C2444 0.929 . S
C2436 H2430 0.930 . S
C2436 C2437 1.367 . S
C2436 C2444 1.378 . S
C2437 C2436 1.367 . S
C2437 C2445 1.433 . S
C2438 H2434 0.929 . S
C2438 C2440 1.378 . S
C2438 C2442 1.350 . S
C2439 C2442 1.463 . S
C2439 C2444 1.350 . S
C2439 N2447 1.427 . S
C2440 H2431 0.930 . S
C2440 C2438 1.378 . S
C2440 C2441 1.367 . S
C2441 C2440 1.367 . S
C2441 C2443 1.433 . S
C2442 C2438 1.350 . S
C2442 C2439 1.463 . S
C2442 N2446 1.427 . S
C2443 H2433 0.929 . S
C2443 C2441 1.433 . S
C2443 N2446 1.384 . S
C2444 H2435 0.929 . S
C2444 C2436 1.378 . S
C2444 C2439 1.350 . S
C2445 H2432 0.929 . S
C2445 C2437 1.433 . S
C2445 N2447 1.384 . S
N2446 C2442 1.427 . S
N2446 C2443 1.384 . S
N2447 C2439 1.427 . S
N2447 C2445 1.384 . S
H2448 C2454 0.930 . S
H2449 C2458 0.930 . S
H2450 C2463 0.929 . S
H2451 C2461 0.929 . S
H2452 C2456 0.929 . S
H2453 C2462 0.929 . S
C2454 H2448 0.930 . S
C2454 C2455 1.367 . S
C2454 C2462 1.378 . S
C2455 C2454 1.367 . S
C2455 C2463 1.433 . S
C2456 H2452 0.929 . S
C2456 C2458 1.378 . S
C2456 C2460 1.350 . S
C2457 C2460 1.463 . S
C2457 C2462 1.350 . S
C2457 N2465 1.427 . S
C2458 H2449 0.930 . S
C2458 C2456 1.378 . S
C2458 C2459 1.367 . S
C2459 C2458 1.367 . S
C2459 C2461 1.433 . S
C2460 C2456 1.350 . S
C2460 C2457 1.463 . S
C2460 N2464 1.427 . S
C2461 H2451 0.929 . S
C2461 C2459 1.433 . S
C2461 N2464 1.384 . S
C2462 H2453 0.929 . S
C2462 C2454 1.378 . S
C2462 C2457 1.350 . S
C2463 H2450 0.929 . S
C2463 C2455 1.433 . S
C2463 N2465 1.384 . S
N2464 C2460 1.427 . S
N2464 C2461 1.384 . S
N2465 C2457 1.427 . S
N2465 C2463 1.384 . S
H2466 C2472 0.930 . S
H2467 C2476 0.930 . S
H2468 C2481 0.929 . S
H2469 C2479 0.929 . S
H2470 C2474 0.929 . S
H2471 C2480 0.929 . S
C2472 H2466 0.930 . S
C2472 C2473 1.367 . S
C2472 C2480 1.378 . S
C2473 C2472 1.367 . S
C2473 C2481 1.433 . S
C2474 H2470 0.929 . S
C2474 C2476 1.378 . S
C2474 C2478 1.350 . S
C2475 C2478 1.463 . S
C2475 C2480 1.350 . S
C2475 N2483 1.427 . S
C2476 H2467 0.930 . S
C2476 C2474 1.378 . S
C2476 C2477 1.367 . S
C2477 C2476 1.367 . S
C2477 C2479 1.433 . S
C2478 C2474 1.350 . S
C2478 C2475 1.463 . S
C2478 N2482 1.427 . S
C2479 H2469 0.929 . S
C2479 C2477 1.433 . S
C2479 N2482 1.384 . S
C2480 H2471 0.929 . S
C2480 C2472 1.378 . S
C2480 C2475 1.350 . S
C2481 H2468 0.929 . S
C2481 C2473 1.433 . S
C2481 N2483 1.384 . S
N2482 C2478 1.427 . S
N2482 C2479 1.384 . S
N2483 C2475 1.427 . S
N2483 C2481 1.384 . S
H2484 C2490 0.930 . S
H2485 C2494 0.930 . S
H2486 C2499 0.929 . S
H2487 C2497 0.929 . S
H2488 C2492 0.929 . S
H2489 C2498 0.929 . S
C2490 H2484 0.930 . S
C2490 C2491 1.367 . S
C2490 C2498 1.378 . S
C2491 C2490 1.367 . S
C2491 C2499 1.433 . S
C2492 H2488 0.929 . S
C2492 C2494 1.378 . S
C2492 C2496 1.350 . S
C2493 C2496 1.463 . S
C2493 C2498 1.350 . S
C2493 N2501 1.427 . S
C2494 H2485 0.930 . S
C2494 C2492 1.378 . S
C2494 C2495 1.367 . S
C2495 C2494 1.367 . S
C2495 C2497 1.433 . S
C2496 C2492 1.350 . S
C2496 C2493 1.463 . S
C2496 N2500 1.427 . S
C2497 H2487 0.929 . S
C2497 C2495 1.433 . S
C2497 N2500 1.384 . S
C2498 H2489 0.929 . S
C2498 C2490 1.378 . S
C2498 C2493 1.350 . S
C2499 H2486 0.929 . S
C2499 C2491 1.433 . S
C2499 N2501 1.384 . S
N2500 C2496 1.427 . S
N2500 C2497 1.384 . S
N2501 C2493 1.427 . S
N2501 C2499 1.384 . S
H2502 C2508 0.930 . S
H2503 C2512 0.930 . S
H2504 C2517 0.929 . S
H2505 C2515 0.929 . S
H2506 C2510 0.929 . S
H2507 C2516 0.929 . S
C2508 H2502 0.930 . S
C2508 C2509 1.367 . S
C2508 C2516 1.378 . S
C2509 C2508 1.367 . S
C2509 C2517 1.433 . S
C2510 H2506 0.929 . S
C2510 C2512 1.378 . S
C2510 C2514 1.350 . S
C2511 C2514 1.463 . S
C2511 C2516 1.350 . S
C2511 N2519 1.427 . S
C2512 H2503 0.930 . S
C2512 C2510 1.378 . S
C2512 C2513 1.367 . S
C2513 C2512 1.367 . S
C2513 C2515 1.433 . S
C2514 C2510 1.350 . S
C2514 C2511 1.463 . S
C2514 N2518 1.427 . S
C2515 H2505 0.929 . S
C2515 C2513 1.433 . S
C2515 N2518 1.384 . S
C2516 H2507 0.929 . S
C2516 C2508 1.378 . S
C2516 C2511 1.350 . S
C2517 H2504 0.929 . S
C2517 C2509 1.433 . S
C2517 N2519 1.384 . S
N2518 C2514 1.427 . S
N2518 C2515 1.384 . S
N2519 C2511 1.427 . S
N2519 C2517 1.384 . S
H2520 C2526 0.930 . S
H2521 C2530 0.930 . S
H2522 C2535 0.929 . S
H2523 C2533 0.929 . S
H2524 C2528 0.929 . S
H2525 C2534 0.929 . S
C2526 H2520 0.930 . S
C2526 C2527 1.367 . S
C2526 C2534 1.378 . S
C2527 C2526 1.367 . S
C2527 C2535 1.433 . S
C2528 H2524 0.929 . S
C2528 C2530 1.378 . S
C2528 C2532 1.350 . S
C2529 C2532 1.463 . S
C2529 C2534 1.350 . S
C2529 N2537 1.427 . S
C2530 H2521 0.930 . S
C2530 C2528 1.378 . S
C2530 C2531 1.367 . S
C2531 C2530 1.367 . S
C2531 C2533 1.433 . S
C2532 C2528 1.350 . S
C2532 C2529 1.463 . S
C2532 N2536 1.427 . S
C2533 H2523 0.929 . S
C2533 C2531 1.433 . S
C2533 N2536 1.384 . S
C2534 H2525 0.929 . S
C2534 C2526 1.378 . S
C2534 C2529 1.350 . S
C2535 H2522 0.929 . S
C2535 C2527 1.433 . S
C2535 N2537 1.384 . S
N2536 C2532 1.427 . S
N2536 C2533 1.384 . S
N2537 C2529 1.427 . S
N2537 C2535 1.384 . S
H2538 C2544 0.930 . S
H2539 C2548 0.930 . S
H2540 C2553 0.929 . S
H2541 C2551 0.929 . S
H2542 C2546 0.929 . S
H2543 C2552 0.929 . S
C2544 H2538 0.930 . S
C2544 C2545 1.367 . S
C2544 C2552 1.378 . S
C2545 C2544 1.367 . S
C2545 C2553 1.433 . S
C2546 H2542 0.929 . S
C2546 C2548 1.378 . S
C2546 C2550 1.350 . S
C2547 C2550 1.463 . S
C2547 C2552 1.350 . S
C2547 N2555 1.427 . S
C2548 H2539 0.930 . S
C2548 C2546 1.378 . S
C2548 C2549 1.367 . S
C2549 C2548 1.367 . S
C2549 C2551 1.433 . S
C2550 C2546 1.350 . S
C2550 C2547 1.463 . S
C2550 N2554 1.427 . S
C2551 H2541 0.929 . S
C2551 C2549 1.433 . S
C2551 N2554 1.384 . S
C2552 H2543 0.929 . S
C2552 C2544 1.378 . S
C2552 C2547 1.350 . S
C2553 H2540 0.929 . S
C2553 C2545 1.433 . S
C2553 N2555 1.384 . S
N2554 C2550 1.427 . S
N2554 C2551 1.384 . S
N2555 C2547 1.427 . S
N2555 C2553 1.384 . S
H2556 C2562 0.930 . S
H2557 C2566 0.930 . S
H2558 C2571 0.929 . S
H2559 C2569 0.929 . S
H2560 C2564 0.929 . S
H2561 C2570 0.929 . S
C2562 H2556 0.930 . S
C2562 C2563 1.367 . S
C2562 C2570 1.378 . S
C2563 C2562 1.367 . S
C2563 C2571 1.433 . S
C2564 H2560 0.929 . S
C2564 C2566 1.378 . S
C2564 C2568 1.350 . S
C2565 C2568 1.463 . S
C2565 C2570 1.350 . S
C2565 N2573 1.427 . S
C2566 H2557 0.930 . S
C2566 C2564 1.378 . S
C2566 C2567 1.367 . S
C2567 C2566 1.367 . S
C2567 C2569 1.433 . S
C2568 C2564 1.350 . S
C2568 C2565 1.463 . S
C2568 N2572 1.427 . S
C2569 H2559 0.929 . S
C2569 C2567 1.433 . S
C2569 N2572 1.384 . S
C2570 H2561 0.929 . S
C2570 C2562 1.378 . S
C2570 C2565 1.350 . S
C2571 H2558 0.929 . S
C2571 C2563 1.433 . S
C2571 N2573 1.384 . S
N2572 C2568 1.427 . S
N2572 C2569 1.384 . S
N2573 C2565 1.427 . S
N2573 C2571 1.384 . S
H2574 C2580 0.930 . S
H2575 C2584 0.930 . S
H2576 C2589 0.929 . S
H2577 C2587 0.929 . S
H2578 C2582 0.929 . S
H2579 C2588 0.929 . S
C2580 H2574 0.930 . S
C2580 C2581 1.367 . S
C2580 C2588 1.378 . S
C2581 C2580 1.367 . S
C2581 C2589 1.433 . S
C2582 H2578 0.929 . S
C2582 C2584 1.378 . S
C2582 C2586 1.350 . S
C2583 C2586 1.463 . S
C2583 C2588 1.350 . S
C2583 N2591 1.427 . S
C2584 H2575 0.930 . S
C2584 C2582 1.378 . S
C2584 C2585 1.367 . S
C2585 C2584 1.367 . S
C2585 C2587 1.433 . S
C2586 C2582 1.350 . S
C2586 C2583 1.463 . S
C2586 N2590 1.427 . S
C2587 H2577 0.929 . S
C2587 C2585 1.433 . S
C2587 N2590 1.384 . S
C2588 H2579 0.929 . S
C2588 C2580 1.378 . S
C2588 C2583 1.350 . S
C2589 H2576 0.929 . S
C2589 C2581 1.433 . S
C2589 N2591 1.384 . S
N2590 C2586 1.427 . S
N2590 C2587 1.384 . S
N2591 C2583 1.427 . S
N2591 C2589 1.384 . S
H2592 C2598 0.930 . S
H2593 C2602 0.930 . S
H2594 C2607 0.929 . S
H2595 C2605 0.929 . S
H2596 C2600 0.929 . S
H2597 C2606 0.929 . S
C2598 H2592 0.930 . S
C2598 C2599 1.367 . S
C2598 C2606 1.378 . S
C2599 C2598 1.367 . S
C2599 C2607 1.433 . S
C2600 H2596 0.929 . S
C2600 C2602 1.378 . S
C2600 C2604 1.350 . S
C2601 C2604 1.463 . S
C2601 C2606 1.350 . S
C2601 N2609 1.427 . S
C2602 H2593 0.930 . S
C2602 C2600 1.378 . S
C2602 C2603 1.367 . S
C2603 C2602 1.367 . S
C2603 C2605 1.433 . S
C2604 C2600 1.350 . S
C2604 C2601 1.463 . S
C2604 N2608 1.427 . S
C2605 H2595 0.929 . S
C2605 C2603 1.433 . S
C2605 N2608 1.384 . S
C2606 H2597 0.929 . S
C2606 C2598 1.378 . S
C2606 C2601 1.350 . S
C2607 H2594 0.929 . S
C2607 C2599 1.433 . S
C2607 N2609 1.384 . S
N2608 C2604 1.427 . S
N2608 C2605 1.384 . S
N2609 C2601 1.427 . S
N2609 C2607 1.384 . S
H2610 C2616 0.930 . S
H2611 C2620 0.930 . S
H2612 C2625 0.929 . S
H2613 C2623 0.929 . S
H2614 C2618 0.929 . S
H2615 C2624 0.929 . S
C2616 H2610 0.930 . S
C2616 C2617 1.367 . S
C2616 C2624 1.378 . S
C2617 C2616 1.367 . S
C2617 C2625 1.433 . S
C2618 H2614 0.929 . S
C2618 C2620 1.378 . S
C2618 C2622 1.350 . S
C2619 C2622 1.463 . S
C2619 C2624 1.350 . S
C2619 N2627 1.427 . S
C2620 H2611 0.930 . S
C2620 C2618 1.378 . S
C2620 C2621 1.367 . S
C2621 C2620 1.367 . S
C2621 C2623 1.433 . S
C2622 C2618 1.350 . S
C2622 C2619 1.463 . S
C2622 N2626 1.427 . S
C2623 H2613 0.929 . S
C2623 C2621 1.433 . S
C2623 N2626 1.384 . S
C2624 H2615 0.929 . S
C2624 C2616 1.378 . S
C2624 C2619 1.350 . S
C2625 H2612 0.929 . S
C2625 C2617 1.433 . S
C2625 N2627 1.384 . S
N2626 C2622 1.427 . S
N2626 C2623 1.384 . S
N2627 C2619 1.427 . S
N2627 C2625 1.384 . S
H2628 C2634 0.930 . S
H2629 C2638 0.930 . S
H2630 C2643 0.929 . S
H2631 C2641 0.929 . S
H2632 C2636 0.929 . S
H2633 C2642 0.929 . S
C2634 H2628 0.930 . S
C2634 C2635 1.367 . S
C2634 C2642 1.378 . S
C2635 C2634 1.367 . S
C2635 C2643 1.433 . S
C2636 H2632 0.929 . S
C2636 C2638 1.378 . S
C2636 C2640 1.350 . S
C2637 C2640 1.463 . S
C2637 C2642 1.350 . S
C2637 N2645 1.427 . S
C2638 H2629 0.930 . S
C2638 C2636 1.378 . S
C2638 C2639 1.367 . S
C2639 C2638 1.367 . S
C2639 C2641 1.433 . S
C2640 C2636 1.350 . S
C2640 C2637 1.463 . S
C2640 N2644 1.427 . S
C2641 H2631 0.929 . S
C2641 C2639 1.433 . S
C2641 N2644 1.384 . S
C2642 H2633 0.929 . S
C2642 C2634 1.378 . S
C2642 C2637 1.350 . S
C2643 H2630 0.929 . S
C2643 C2635 1.433 . S
C2643 N2645 1.384 . S
N2644 C2640 1.427 . S
N2644 C2641 1.384 . S
N2645 C2637 1.427 . S
N2645 C2643 1.384 . S
H2646 C2652 0.930 . S
H2647 C2656 0.930 . S
H2648 C2661 0.929 . S
H2649 C2659 0.929 . S
H2650 C2654 0.929 . S
H2651 C2660 0.929 . S
C2652 H2646 0.930 . S
C2652 C2653 1.367 . S
C2652 C2660 1.378 . S
C2653 C2652 1.367 . S
C2653 C2661 1.433 . S
C2654 H2650 0.929 . S
C2654 C2656 1.378 . S
C2654 C2658 1.350 . S
C2655 C2658 1.463 . S
C2655 C2660 1.350 . S
C2655 N2663 1.427 . S
C2656 H2647 0.930 . S
C2656 C2654 1.378 . S
C2656 C2657 1.367 . S
C2657 C2656 1.367 . S
C2657 C2659 1.433 . S
C2658 C2654 1.350 . S
C2658 C2655 1.463 . S
C2658 N2662 1.427 . S
C2659 H2649 0.929 . S
C2659 C2657 1.433 . S
C2659 N2662 1.384 . S
C2660 H2651 0.929 . S
C2660 C2652 1.378 . S
C2660 C2655 1.350 . S
C2661 H2648 0.929 . S
C2661 C2653 1.433 . S
C2661 N2663 1.384 . S
N2662 C2658 1.427 . S
N2662 C2659 1.384 . S
N2663 C2655 1.427 . S
N2663 C2661 1.384 . S
H2664 C2670 0.930 . S
H2665 C2674 0.930 . S
H2666 C2679 0.929 . S
H2667 C2677 0.929 . S
H2668 C2672 0.929 . S
H2669 C2678 0.929 . S
C2670 H2664 0.930 . S
C2670 C2671 1.367 . S
C2670 C2678 1.378 . S
C2671 C2670 1.367 . S
C2671 C2679 1.433 . S
C2672 H2668 0.929 . S
C2672 C2674 1.378 . S
C2672 C2676 1.350 . S
C2673 C2676 1.463 . S
C2673 C2678 1.350 . S
C2673 N2681 1.427 . S
C2674 H2665 0.930 . S
C2674 C2672 1.378 . S
C2674 C2675 1.367 . S
C2675 C2674 1.367 . S
C2675 C2677 1.433 . S
C2676 C2672 1.350 . S
C2676 C2673 1.463 . S
C2676 N2680 1.427 . S
C2677 H2667 0.929 . S
C2677 C2675 1.433 . S
C2677 N2680 1.384 . S
C2678 H2669 0.929 . S
C2678 C2670 1.378 . S
C2678 C2673 1.350 . S
C2679 H2666 0.929 . S
C2679 C2671 1.433 . S
C2679 N2681 1.384 . S
N2680 C2676 1.427 . S
N2680 C2677 1.384 . S
N2681 C2673 1.427 . S
N2681 C2679 1.384 . S
H2682 C2688 0.930 . S
H2683 C2692 0.930 . S
H2684 C2697 0.929 . S
H2685 C2695 0.929 . S
H2686 C2690 0.929 . S
H2687 C2696 0.929 . S
C2688 H2682 0.930 . S
C2688 C2689 1.367 . S
C2688 C2696 1.378 . S
C2689 C2688 1.367 . S
C2689 C2697 1.433 . S
C2690 H2686 0.929 . S
C2690 C2692 1.378 . S
C2690 C2694 1.350 . S
C2691 C2694 1.463 . S
C2691 C2696 1.350 . S
C2691 N2699 1.427 . S
C2692 H2683 0.930 . S
C2692 C2690 1.378 . S
C2692 C2693 1.367 . S
C2693 C2692 1.367 . S
C2693 C2695 1.433 . S
C2694 C2690 1.350 . S
C2694 C2691 1.463 . S
C2694 N2698 1.427 . S
C2695 H2685 0.929 . S
C2695 C2693 1.433 . S
C2695 N2698 1.384 . S
C2696 H2687 0.929 . S
C2696 C2688 1.378 . S
C2696 C2691 1.350 . S
C2697 H2684 0.929 . S
C2697 C2689 1.433 . S
C2697 N2699 1.384 . S
N2698 C2694 1.427 . S
N2698 C2695 1.384 . S
N2699 C2691 1.427 . S
N2699 C2697 1.384 . S
H2700 C2706 0.930 . S
H2701 C2710 0.930 . S
H2702 C2715 0.929 . S
H2703 C2713 0.929 . S
H2704 C2708 0.929 . S
H2705 C2714 0.929 . S
C2706 H2700 0.930 . S
C2706 C2707 1.367 . S
C2706 C2714 1.378 . S
C2707 C2706 1.367 . S
C2707 C2715 1.433 . S
C2708 H2704 0.929 . S
C2708 C2710 1.378 . S
C2708 C2712 1.350 . S
C2709 C2712 1.463 . S
C2709 C2714 1.350 . S
C2709 N2717 1.427 . S
C2710 H2701 0.930 . S
C2710 C2708 1.378 . S
C2710 C2711 1.367 . S
C2711 C2710 1.367 . S
C2711 C2713 1.433 . S
C2712 C2708 1.350 . S
C2712 C2709 1.463 . S
C2712 N2716 1.427 . S
C2713 H2703 0.929 . S
C2713 C2711 1.433 . S
C2713 N2716 1.384 . S
C2714 H2705 0.929 . S
C2714 C2706 1.378 . S
C2714 C2709 1.350 . S
C2715 H2702 0.929 . S
C2715 C2707 1.433 . S
C2715 N2717 1.384 . S
N2716 C2712 1.427 . S
N2716 C2713 1.384 . S
N2717 C2709 1.427 . S
N2717 C2715 1.384 . S
H2718 C2724 0.930 . S
H2719 C2728 0.930 . S
H2720 C2733 0.929 . S
H2721 C2731 0.929 . S
H2722 C2726 0.929 . S
H2723 C2732 0.929 . S
C2724 H2718 0.930 . S
C2724 C2725 1.367 . S
C2724 C2732 1.378 . S
C2725 C2724 1.367 . S
C2725 C2733 1.433 . S
C2726 H2722 0.929 . S
C2726 C2728 1.378 . S
C2726 C2730 1.350 . S
C2727 C2730 1.463 . S
C2727 C2732 1.350 . S
C2727 N2735 1.427 . S
C2728 H2719 0.930 . S
C2728 C2726 1.378 . S
C2728 C2729 1.367 . S
C2729 C2728 1.367 . S
C2729 C2731 1.433 . S
C2730 C2726 1.350 . S
C2730 C2727 1.463 . S
C2730 N2734 1.427 . S
C2731 H2721 0.929 . S
C2731 C2729 1.433 . S
C2731 N2734 1.384 . S
C2732 H2723 0.929 . S
C2732 C2724 1.378 . S
C2732 C2727 1.350 . S
C2733 H2720 0.929 . S
C2733 C2725 1.433 . S
C2733 N2735 1.384 . S
N2734 C2730 1.427 . S
N2734 C2731 1.384 . S
N2735 C2727 1.427 . S
N2735 C2733 1.384 . S
H2736 C2742 0.930 . S
H2737 C2746 0.930 . S
H2738 C2751 0.929 . S
H2739 C2749 0.929 . S
H2740 C2744 0.929 . S
H2741 C2750 0.929 . S
C2742 H2736 0.930 . S
C2742 C2743 1.367 . S
C2742 C2750 1.378 . S
C2743 C2742 1.367 . S
C2743 C2751 1.433 . S
C2744 H2740 0.929 . S
C2744 C2746 1.378 . S
C2744 C2748 1.350 . S
C2745 C2748 1.463 . S
C2745 C2750 1.350 . S
C2745 N2753 1.427 . S
C2746 H2737 0.930 . S
C2746 C2744 1.378 . S
C2746 C2747 1.367 . S
C2747 C2746 1.367 . S
C2747 C2749 1.433 . S
C2748 C2744 1.350 . S
C2748 C2745 1.463 . S
C2748 N2752 1.427 . S
C2749 H2739 0.929 . S
C2749 C2747 1.433 . S
C2749 N2752 1.384 . S
C2750 H2741 0.929 . S
C2750 C2742 1.378 . S
C2750 C2745 1.350 . S
C2751 H2738 0.929 . S
C2751 C2743 1.433 . S
C2751 N2753 1.384 . S
N2752 C2748 1.427 . S
N2752 C2749 1.384 . S
N2753 C2745 1.427 . S
N2753 C2751 1.384 . S
H2754 C2760 0.930 . S
H2755 C2764 0.930 . S
H2756 C2769 0.929 . S
H2757 C2767 0.929 . S
H2758 C2762 0.929 . S
H2759 C2768 0.929 . S
C2760 H2754 0.930 . S
C2760 C2761 1.367 . S
C2760 C2768 1.378 . S
C2761 C2760 1.367 . S
C2761 C2769 1.433 . S
C2762 H2758 0.929 . S
C2762 C2764 1.378 . S
C2762 C2766 1.350 . S
C2763 C2766 1.463 . S
C2763 C2768 1.350 . S
C2763 N2771 1.427 . S
C2764 H2755 0.930 . S
C2764 C2762 1.378 . S
C2764 C2765 1.367 . S
C2765 C2764 1.367 . S
C2765 C2767 1.433 . S
C2766 C2762 1.350 . S
C2766 C2763 1.463 . S
C2766 N2770 1.427 . S
C2767 H2757 0.929 . S
C2767 C2765 1.433 . S
C2767 N2770 1.384 . S
C2768 H2759 0.929 . S
C2768 C2760 1.378 . S
C2768 C2763 1.350 . S
C2769 H2756 0.929 . S
C2769 C2761 1.433 . S
C2769 N2771 1.384 . S
N2770 C2766 1.427 . S
N2770 C2767 1.384 . S
N2771 C2763 1.427 . S
N2771 C2769 1.384 . S
H2772 C2778 0.930 . S
H2773 C2782 0.930 . S
H2774 C2787 0.929 . S
H2775 C2785 0.929 . S
H2776 C2780 0.929 . S
H2777 C2786 0.929 . S
C2778 H2772 0.930 . S
C2778 C2779 1.367 . S
C2778 C2786 1.378 . S
C2779 C2778 1.367 . S
C2779 C2787 1.433 . S
C2780 H2776 0.929 . S
C2780 C2782 1.378 . S
C2780 C2784 1.350 . S
C2781 C2784 1.463 . S
C2781 C2786 1.350 . S
C2781 N2789 1.427 . S
C2782 H2773 0.930 . S
C2782 C2780 1.378 . S
C2782 C2783 1.367 . S
C2783 C2782 1.367 . S
C2783 C2785 1.433 . S
C2784 C2780 1.350 . S
C2784 C2781 1.463 . S
C2784 N2788 1.427 . S
C2785 H2775 0.929 . S
C2785 C2783 1.433 . S
C2785 N2788 1.384 . S
C2786 H2777 0.929 . S
C2786 C2778 1.378 . S
C2786 C2781 1.350 . S
C2787 H2774 0.929 . S
C2787 C2779 1.433 . S
C2787 N2789 1.384 . S
N2788 C2784 1.427 . S
N2788 C2785 1.384 . S
N2789 C2781 1.427 . S
N2789 C2787 1.384 . S
H2790 C2796 0.930 . S
H2791 C2800 0.930 . S
H2792 C2805 0.929 . S
H2793 C2803 0.929 . S
H2794 C2798 0.934 1_565 S
H2795 C2804 0.933 1_545 S
C2796 H2790 0.930 . S
C2796 C2797 1.367 . S
C2796 C2804 1.375 . S
C2797 C2796 1.367 . S
C2797 C2805 1.433 . S
C2798 H2794 0.934 1_545 S
C2798 C2800 1.375 . S
C2798 C2802 1.348 . S
C2799 C2802 1.463 1_565 S
C2799 C2804 1.348 . S
C2799 N2807 1.427 . S
C2800 H2791 0.930 . S
C2800 C2798 1.375 . S
C2800 C2801 1.367 . S
C2801 C2800 1.367 . S
C2801 C2803 1.433 . S
C2802 C2798 1.348 . S
C2802 C2799 1.463 1_545 S
C2802 N2806 1.427 . S
C2803 H2793 0.929 . S
C2803 C2801 1.433 . S
C2803 N2806 1.384 . S
C2804 H2795 0.933 1_565 S
C2804 C2796 1.375 . S
C2804 C2799 1.348 . S
C2805 H2792 0.929 . S
C2805 C2797 1.433 . S
C2805 N2807 1.384 . S
N2806 C2802 1.427 . S
N2806 C2803 1.384 . S
N2807 C2799 1.427 . S
N2807 C2805 1.384 . S
H2808 C2814 0.930 . S
H2809 C2818 0.930 . S
H2810 C2823 0.929 . S
H2811 C2821 0.929 . S
H2812 C2816 0.977 . S
H2813 C2822 0.977 . S
C2814 H2808 0.930 . S
C2814 C2815 1.367 . S
C2814 C2822 1.345 1_655 S
C2815 C2814 1.367 . S
C2815 C2823 1.433 . S
C2816 H2812 0.977 . S
C2816 C2818 1.345 1_655 S
C2816 C2820 1.337 1_655 S
C2817 C2820 1.463 1_655 S
C2817 C2822 1.337 1_655 S
C2817 N2825 1.427 . S
C2818 H2809 0.930 . S
C2818 C2816 1.345 1_455 S
C2818 C2819 1.367 . S
C2819 C2818 1.367 . S
C2819 C2821 1.433 . S
C2820 C2816 1.337 1_455 S
C2820 C2817 1.463 1_455 S
C2820 N2824 1.427 . S
C2821 H2811 0.929 . S
C2821 C2819 1.433 . S
C2821 N2824 1.384 . S
C2822 H2813 0.977 . S
C2822 C2814 1.345 1_455 S
C2822 C2817 1.337 1_455 S
C2823 H2810 0.929 . S
C2823 C2815 1.433 . S
C2823 N2825 1.384 . S
N2824 C2820 1.427 . S
N2824 C2821 1.384 . S
N2825 C2817 1.427 . S
N2825 C2823 1.384 . S
H2826 C2832 0.930 . S
H2827 C2836 0.930 . S
H2828 C2841 0.929 . S
H2829 C2839 0.929 . S
H2830 C2834 0.929 . S
H2831 C2840 0.929 . S
C2832 H2826 0.930 . S
C2832 C2833 1.367 . S
C2832 C2840 1.378 . S
C2833 C2832 1.367 . S
C2833 C2841 1.433 . S
C2834 H2830 0.929 . S
C2834 C2836 1.378 . S
C2834 C2838 1.350 . S
C2835 C2838 1.463 . S
C2835 C2840 1.350 . S
C2835 N2843 1.427 . S
C2836 H2827 0.930 . S
C2836 C2834 1.378 . S
C2836 C2837 1.367 . S
C2837 C2836 1.367 . S
C2837 C2839 1.433 . S
C2838 C2834 1.350 . S
C2838 C2835 1.463 . S
C2838 N2842 1.427 . S
C2839 H2829 0.929 . S
C2839 C2837 1.433 . S
C2839 N2842 1.384 . S
C2840 H2831 0.929 . S
C2840 C2832 1.378 . S
C2840 C2835 1.350 . S
C2841 H2828 0.929 . S
C2841 C2833 1.433 . S
C2841 N2843 1.384 . S
N2842 C2838 1.427 . S
N2842 C2839 1.384 . S
N2843 C2835 1.427 . S
N2843 C2841 1.384 . S
H2844 C2850 0.930 . S
H2845 C2854 0.930 . S
H2846 C2859 0.929 . S
H2847 C2857 0.929 . S
H2848 C2852 0.884 1_545 S
H2849 C2858 0.884 1_565 S
C2850 H2844 0.930 . S
C2850 C2851 1.367 . S
C2850 C2858 1.403 . S
C2851 C2850 1.367 . S
C2851 C2859 1.433 . S
C2852 H2848 0.884 1_565 S
C2852 C2854 1.402 . S
C2852 C2856 1.371 . S
C2853 C2856 1.463 1_545 S
C2853 C2858 1.371 . S
C2853 N2861 1.427 . S
C2854 H2845 0.930 . S
C2854 C2852 1.402 . S
C2854 C2855 1.367 . S
C2855 C2854 1.367 . S
C2855 C2857 1.433 . S
C2856 C2852 1.371 . S
C2856 C2853 1.463 1_565 S
C2856 N2860 1.427 . S
C2857 H2847 0.929 . S
C2857 C2855 1.433 . S
C2857 N2860 1.384 . S
C2858 H2849 0.884 1_545 S
C2858 C2850 1.403 . S
C2858 C2853 1.371 . S
C2859 H2846 0.929 . S
C2859 C2851 1.433 . S
C2859 N2861 1.384 . S
N2860 C2856 1.427 . S
N2860 C2857 1.384 . S
N2861 C2853 1.427 . S
N2861 C2859 1.384 . S
H2862 C2868 0.930 . S
H2863 C2872 0.930 . S
H2864 C2877 0.929 . S
H2865 C2875 0.929 . S
H2866 C2870 0.975 . S
H2867 C2876 0.974 . S
C2868 H2862 0.930 . S
C2868 C2869 1.367 . S
C2868 C2876 1.347 1_655 S
C2869 C2868 1.367 . S
C2869 C2877 1.433 . S
C2870 H2866 0.975 . S
C2870 C2872 1.346 1_655 S
C2870 C2874 1.338 1_655 S
C2871 C2874 1.463 1_655 S
C2871 C2876 1.338 1_655 S
C2871 N2879 1.427 . S
C2872 H2863 0.930 . S
C2872 C2870 1.346 1_455 S
C2872 C2873 1.367 . S
C2873 C2872 1.367 . S
C2873 C2875 1.433 . S
C2874 C2870 1.338 1_455 S
C2874 C2871 1.463 1_455 S
C2874 N2878 1.427 . S
C2875 H2865 0.929 . S
C2875 C2873 1.433 . S
C2875 N2878 1.384 . S
C2876 H2867 0.974 . S
C2876 C2868 1.347 1_455 S
C2876 C2871 1.338 1_455 S
C2877 H2864 0.929 . S
C2877 C2869 1.433 . S
C2877 N2879 1.384 . S
N2878 C2874 1.427 . S
N2878 C2875 1.384 . S
N2879 C2871 1.427 . S
N2879 C2877 1.384 . S
H2880 C2886 0.930 . S
H2881 C2890 0.930 . S
H2882 C2895 0.929 . S
H2883 C2893 0.929 . S
H2884 C2888 0.929 . S
H2885 C2894 0.929 . S
C2886 H2880 0.930 . S
C2886 C2887 1.367 . S
C2886 C2894 1.378 . S
C2887 C2886 1.367 . S
C2887 C2895 1.433 . S
C2888 H2884 0.929 . S
C2888 C2890 1.378 . S
C2888 C2892 1.350 . S
C2889 C2892 1.463 . S
C2889 C2894 1.350 . S
C2889 N2897 1.427 . S
C2890 H2881 0.930 . S
C2890 C2888 1.378 . S
C2890 C2891 1.367 . S
C2891 C2890 1.367 . S
C2891 C2893 1.433 . S
C2892 C2888 1.350 . S
C2892 C2889 1.463 . S
C2892 N2896 1.427 . S
C2893 H2883 0.929 . S
C2893 C2891 1.433 . S
C2893 N2896 1.384 . S
C2894 H2885 0.929 . S
C2894 C2886 1.378 . S
C2894 C2889 1.350 . S
C2895 H2882 0.929 . S
C2895 C2887 1.433 . S
C2895 N2897 1.384 . S
N2896 C2892 1.427 . S
N2896 C2893 1.384 . S
N2897 C2889 1.427 . S
N2897 C2895 1.384 . S
H2898 C2904 0.930 . S
H2899 C2908 0.930 . S
H2900 C2913 0.929 . S
H2901 C2911 0.929 . S
H2902 C2906 0.929 . S
H2903 C2912 0.929 . S
C2904 H2898 0.930 . S
C2904 C2905 1.367 . S
C2904 C2912 1.378 . S
C2905 C2904 1.367 . S
C2905 C2913 1.433 . S
C2906 H2902 0.929 . S
C2906 C2908 1.378 . S
C2906 C2910 1.350 . S
C2907 C2910 1.463 . S
C2907 C2912 1.350 . S
C2907 N2915 1.427 . S
C2908 H2899 0.930 . S
C2908 C2906 1.378 . S
C2908 C2909 1.367 . S
C2909 C2908 1.367 . S
C2909 C2911 1.433 . S
C2910 C2906 1.350 . S
C2910 C2907 1.463 . S
C2910 N2914 1.427 . S
C2911 H2901 0.929 . S
C2911 C2909 1.433 . S
C2911 N2914 1.384 . S
C2912 H2903 0.929 . S
C2912 C2904 1.378 . S
C2912 C2907 1.350 . S
C2913 H2900 0.929 . S
C2913 C2905 1.433 . S
C2913 N2915 1.384 . S
N2914 C2910 1.427 . S
N2914 C2911 1.384 . S
N2915 C2907 1.427 . S
N2915 C2913 1.384 . S
H2916 C2922 0.930 . S
H2917 C2926 0.930 . S
H2918 C2931 0.929 . S
H2919 C2929 0.929 . S
H2920 C2924 0.929 . S
H2921 C2930 0.929 . S
C2922 H2916 0.930 . S
C2922 C2923 1.367 . S
C2922 C2930 1.378 . S
C2923 C2922 1.367 . S
C2923 C2931 1.433 . S
C2924 H2920 0.929 . S
C2924 C2926 1.378 . S
C2924 C2928 1.350 . S
C2925 C2928 1.463 . S
C2925 C2930 1.350 . S
C2925 N2933 1.427 . S
C2926 H2917 0.930 . S
C2926 C2924 1.378 . S
C2926 C2927 1.367 . S
C2927 C2926 1.367 . S
C2927 C2929 1.433 . S
C2928 C2924 1.350 . S
C2928 C2925 1.463 . S
C2928 N2932 1.427 . S
C2929 H2919 0.929 . S
C2929 C2927 1.433 . S
C2929 N2932 1.384 . S
C2930 H2921 0.929 . S
C2930 C2922 1.378 . S
C2930 C2925 1.350 . S
C2931 H2918 0.929 . S
C2931 C2923 1.433 . S
C2931 N2933 1.384 . S
N2932 C2928 1.427 . S
N2932 C2929 1.384 . S
N2933 C2925 1.427 . S
N2933 C2931 1.384 . S
H2934 C2940 0.930 . S
H2935 C2944 0.930 . S
H2936 C2949 0.929 . S
H2937 C2947 0.929 . S
H2938 C2942 0.929 . S
H2939 C2948 0.929 . S
C2940 H2934 0.930 . S
C2940 C2941 1.367 . S
C2940 C2948 1.378 . S
C2941 C2940 1.367 . S
C2941 C2949 1.433 . S
C2942 H2938 0.929 . S
C2942 C2944 1.378 . S
C2942 C2946 1.350 . S
C2943 C2946 1.463 . S
C2943 C2948 1.350 . S
C2943 N2951 1.427 . S
C2944 H2935 0.930 . S
C2944 C2942 1.378 . S
C2944 C2945 1.367 . S
C2945 C2944 1.367 . S
C2945 C2947 1.433 . S
C2946 C2942 1.350 . S
C2946 C2943 1.463 . S
C2946 N2950 1.427 . S
C2947 H2937 0.929 . S
C2947 C2945 1.433 . S
C2947 N2950 1.384 . S
C2948 H2939 0.929 . S
C2948 C2940 1.378 . S
C2948 C2943 1.350 . S
C2949 H2936 0.929 . S
C2949 C2941 1.433 . S
C2949 N2951 1.384 . S
N2950 C2946 1.427 . S
N2950 C2947 1.384 . S
N2951 C2943 1.427 . S
N2951 C2949 1.384 . S
H2952 C2958 0.922 1_556 S
H2953 C2962 0.930 . S
H2954 C2967 0.929 . S
H2955 C2965 0.929 . S
H2956 C2960 0.929 . S
H2957 C2966 0.929 . S
C2958 H2952 0.922 1_554 S
C2958 C2959 1.367 . S
C2958 C2966 1.378 . S
C2959 C2958 1.367 . S
C2959 C2967 1.433 . S
C2960 H2956 0.929 . S
C2960 C2962 1.378 . S
C2960 C2964 1.350 . S
C2961 C2964 1.463 . S
C2961 C2966 1.350 . S
C2961 N2969 1.427 . S
C2962 H2953 0.930 . S
C2962 C2960 1.378 . S
C2962 C2963 1.367 . S
C2963 C2962 1.367 . S
C2963 C2965 1.433 . S
C2964 C2960 1.350 . S
C2964 C2961 1.463 . S
C2964 N2968 1.427 . S
C2965 H2955 0.929 . S
C2965 C2963 1.433 . S
C2965 N2968 1.384 . S
C2966 H2957 0.929 . S
C2966 C2958 1.378 . S
C2966 C2961 1.350 . S
C2967 H2954 0.929 . S
C2967 C2959 1.433 . S
C2967 N2969 1.384 . S
N2968 C2964 1.427 . S
N2968 C2965 1.384 . S
N2969 C2961 1.427 . S
N2969 C2967 1.384 . S
H2970 C2976 0.930 . S
H2971 C2980 0.930 . S
H2972 C2985 0.929 . S
H2973 C2983 0.929 . S
H2974 C2978 0.929 . S
H2975 C2984 0.929 . S
C2976 H2970 0.930 . S
C2976 C2977 1.367 . S
C2976 C2984 1.378 . S
C2977 C2976 1.367 . S
C2977 C2985 1.433 . S
C2978 H2974 0.929 . S
C2978 C2980 1.378 . S
C2978 C2982 1.350 . S
C2979 C2982 1.463 . S
C2979 C2984 1.350 . S
C2979 N2987 1.427 . S
C2980 H2971 0.930 . S
C2980 C2978 1.378 . S
C2980 C2981 1.367 . S
C2981 C2980 1.367 . S
C2981 C2983 1.433 . S
C2982 C2978 1.350 . S
C2982 C2979 1.463 . S
C2982 N2986 1.427 . S
C2983 H2973 0.929 . S
C2983 C2981 1.433 . S
C2983 N2986 1.384 . S
C2984 H2975 0.929 . S
C2984 C2976 1.378 . S
C2984 C2979 1.350 . S
C2985 H2972 0.929 . S
C2985 C2977 1.433 . S
C2985 N2987 1.384 . S
N2986 C2982 1.427 . S
N2986 C2983 1.384 . S
N2987 C2979 1.427 . S
N2987 C2985 1.384 . S
H2988 C2994 0.930 . S
H2989 C2998 0.930 . S
H2990 C3003 0.929 . S
H2991 C3001 0.929 . S
H2992 C2996 0.929 . S
H2993 C3002 0.929 . S
C2994 H2988 0.930 . S
C2994 C2995 1.367 . S
C2994 C3002 1.378 . S
C2995 C2994 1.367 . S
C2995 C3003 1.433 . S
C2996 H2992 0.929 . S
C2996 C2998 1.378 . S
C2996 C3000 1.350 . S
C2997 C3000 1.463 . S
C2997 C3002 1.350 . S
C2997 N3005 1.427 . S
C2998 H2989 0.930 . S
C2998 C2996 1.378 . S
C2998 C2999 1.367 . S
C2999 C2998 1.367 . S
C2999 C3001 1.433 . S
C3000 C2996 1.350 . S
C3000 C2997 1.463 . S
C3000 N3004 1.427 . S
C3001 H2991 0.929 . S
C3001 C2999 1.433 . S
C3001 N3004 1.384 . S
C3002 H2993 0.929 . S
C3002 C2994 1.378 . S
C3002 C2997 1.350 . S
C3003 H2990 0.929 . S
C3003 C2995 1.433 . S
C3003 N3005 1.384 . S
N3004 C3000 1.427 . S
N3004 C3001 1.384 . S
N3005 C2997 1.427 . S
N3005 C3003 1.384 . S
H3006 C3012 0.930 . S
H3007 C3016 0.930 1_554 S
H3008 C3021 0.929 . S
H3009 C3019 0.929 . S
H3010 C3014 0.929 . S
H3011 C3020 0.929 . S
C3012 H3006 0.930 . S
C3012 C3013 1.367 . S
C3012 C3020 1.378 . S
C3013 C3012 1.367 . S
C3013 C3021 1.433 . S
C3014 H3010 0.929 . S
C3014 C3016 1.378 . S
C3014 C3018 1.350 . S
C3015 C3018 1.463 . S
C3015 C3020 1.350 . S
C3015 N3023 1.427 . S
C3016 H3007 0.930 1_556 S
C3016 C3014 1.378 . S
C3016 C3017 1.367 . S
C3017 C3016 1.367 . S
C3017 C3019 1.433 . S
C3018 C3014 1.350 . S
C3018 C3015 1.463 . S
C3018 N3022 1.427 . S
C3019 H3009 0.929 . S
C3019 C3017 1.433 . S
C3019 N3022 1.384 . S
C3020 H3011 0.929 . S
C3020 C3012 1.378 . S
C3020 C3015 1.350 . S
C3021 H3008 0.929 . S
C3021 C3013 1.433 . S
C3021 N3023 1.384 . S
N3022 C3018 1.427 . S
N3022 C3019 1.384 . S
N3023 C3015 1.427 . S
N3023 C3021 1.384 . S
H3024 C3030 0.930 . S
H3025 C3034 0.930 . S
H3026 C3039 0.929 . S
H3027 C3037 0.929 . S
H3028 C3032 0.929 . S
H3029 C3038 0.929 . S
C3030 H3024 0.930 . S
C3030 C3031 1.367 . S
C3030 C3038 1.378 . S
C3031 C3030 1.367 . S
C3031 C3039 1.433 . S
C3032 H3028 0.929 . S
C3032 C3034 1.378 . S
C3032 C3036 1.350 . S
C3033 C3036 1.463 . S
C3033 C3038 1.350 . S
C3033 N3041 1.427 . S
C3034 H3025 0.930 . S
C3034 C3032 1.378 . S
C3034 C3035 1.367 . S
C3035 C3034 1.367 . S
C3035 C3037 1.433 . S
C3036 C3032 1.350 . S
C3036 C3033 1.463 . S
C3036 N3040 1.427 . S
C3037 H3027 0.929 . S
C3037 C3035 1.433 . S
C3037 N3040 1.384 . S
C3038 H3029 0.929 . S
C3038 C3030 1.378 . S
C3038 C3033 1.350 . S
C3039 H3026 0.929 . S
C3039 C3031 1.433 . S
C3039 N3041 1.384 . S
N3040 C3036 1.427 . S
N3040 C3037 1.384 . S
N3041 C3033 1.427 . S
N3041 C3039 1.384 . S
H3042 C3048 0.930 . S
H3043 C3052 0.930 . S
H3044 C3057 0.929 . S
H3045 C3055 0.929 . S
H3046 C3050 0.929 . S
H3047 C3056 0.929 . S
C3048 H3042 0.930 . S
C3048 C3049 1.367 . S
C3048 C3056 1.378 . S
C3049 C3048 1.367 . S
C3049 C3057 1.433 . S
C3050 H3046 0.929 . S
C3050 C3052 1.378 . S
C3050 C3054 1.350 . S
C3051 C3054 1.463 . S
C3051 C3056 1.350 . S
C3051 N3059 1.427 . S
C3052 H3043 0.930 . S
C3052 C3050 1.378 . S
C3052 C3053 1.367 . S
C3053 C3052 1.367 . S
C3053 C3055 1.433 . S
C3054 C3050 1.350 . S
C3054 C3051 1.463 . S
C3054 N3058 1.427 . S
C3055 H3045 0.929 . S
C3055 C3053 1.433 . S
C3055 N3058 1.384 . S
C3056 H3047 0.929 . S
C3056 C3048 1.378 . S
C3056 C3051 1.350 . S
C3057 H3044 0.929 . S
C3057 C3049 1.433 . S
C3057 N3059 1.384 . S
N3058 C3054 1.427 . S
N3058 C3055 1.384 . S
N3059 C3051 1.427 . S
N3059 C3057 1.384 . S
H3060 C3066 0.930 . S
H3061 C3070 0.930 . S
H3062 C3075 0.929 . S
H3063 C3073 0.929 . S
H3064 C3068 0.929 . S
H3065 C3074 0.929 . S
C3066 H3060 0.930 . S
C3066 C3067 1.367 . S
C3066 C3074 1.378 . S
C3067 C3066 1.367 . S
C3067 C3075 1.433 . S
C3068 H3064 0.929 . S
C3068 C3070 1.378 . S
C3068 C3072 1.350 . S
C3069 C3072 1.463 . S
C3069 C3074 1.350 . S
C3069 N3077 1.427 . S
C3070 H3061 0.930 . S
C3070 C3068 1.378 . S
C3070 C3071 1.367 . S
C3071 C3070 1.367 . S
C3071 C3073 1.433 . S
C3072 C3068 1.350 . S
C3072 C3069 1.463 . S
C3072 N3076 1.427 . S
C3073 H3063 0.929 . S
C3073 C3071 1.433 . S
C3073 N3076 1.384 . S
C3074 H3065 0.929 . S
C3074 C3066 1.378 . S
C3074 C3069 1.350 . S
C3075 H3062 0.929 . S
C3075 C3067 1.433 . S
C3075 N3077 1.384 . S
N3076 C3072 1.427 . S
N3076 C3073 1.384 . S
N3077 C3069 1.427 . S
N3077 C3075 1.384 . S
H3078 C3084 0.930 . S
H3079 C3088 0.930 . S
H3080 C3093 0.929 . S
H3081 C3091 0.929 . S
H3082 C3086 0.929 . S
H3083 C3092 0.929 . S
C3084 H3078 0.930 . S
C3084 C3085 1.367 . S
C3084 C3092 1.378 . S
C3085 C3084 1.367 . S
C3085 C3093 1.433 . S
C3086 H3082 0.929 . S
C3086 C3088 1.378 . S
C3086 C3090 1.350 . S
C3087 C3090 1.463 . S
C3087 C3092 1.350 . S
C3087 N3095 1.427 . S
C3088 H3079 0.930 . S
C3088 C3086 1.378 . S
C3088 C3089 1.367 . S
C3089 C3088 1.367 . S
C3089 C3091 1.433 . S
C3090 C3086 1.350 . S
C3090 C3087 1.463 . S
C3090 N3094 1.427 . S
C3091 H3081 0.929 . S
C3091 C3089 1.433 . S
C3091 N3094 1.384 . S
C3092 H3083 0.929 . S
C3092 C3084 1.378 . S
C3092 C3087 1.350 . S
C3093 H3080 0.929 . S
C3093 C3085 1.433 . S
C3093 N3095 1.384 . S
N3094 C3090 1.427 . S
N3094 C3091 1.384 . S
N3095 C3087 1.427 . S
N3095 C3093 1.384 . S
H3096 C3102 0.930 . S
H3097 C3106 0.930 . S
H3098 C3111 0.929 . S
H3099 C3109 0.929 . S
H3100 C3104 0.929 . S
H3101 C3110 0.929 . S
C3102 H3096 0.930 . S
C3102 C3103 1.367 . S
C3102 C3110 1.378 . S
C3103 C3102 1.367 . S
C3103 C3111 1.433 . S
C3104 H3100 0.929 . S
C3104 C3106 1.378 . S
C3104 C3108 1.350 . S
C3105 C3108 1.463 . S
C3105 C3110 1.350 . S
C3105 N3113 1.427 . S
C3106 H3097 0.930 . S
C3106 C3104 1.378 . S
C3106 C3107 1.367 . S
C3107 C3106 1.367 . S
C3107 C3109 1.433 . S
C3108 C3104 1.350 . S
C3108 C3105 1.463 . S
C3108 N3112 1.427 . S
C3109 H3099 0.929 . S
C3109 C3107 1.433 . S
C3109 N3112 1.384 . S
C3110 H3101 0.929 . S
C3110 C3102 1.378 . S
C3110 C3105 1.350 . S
C3111 H3098 0.929 . S
C3111 C3103 1.433 . S
C3111 N3113 1.384 . S
N3112 C3108 1.427 . S
N3112 C3109 1.384 . S
N3113 C3105 1.427 . S
N3113 C3111 1.384 . S
H3114 C3120 0.930 . S
H3115 C3124 0.930 . S
H3116 C3129 0.929 . S
H3117 C3127 0.929 . S
H3118 C3122 0.929 . S
H3119 C3128 0.929 . S
C3120 H3114 0.930 . S
C3120 C3121 1.367 . S
C3120 C3128 1.378 . S
C3121 C3120 1.367 . S
C3121 C3129 1.433 . S
C3122 H3118 0.929 . S
C3122 C3124 1.378 . S
C3122 C3126 1.350 . S
C3123 C3126 1.463 . S
C3123 C3128 1.350 . S
C3123 N3131 1.427 . S
C3124 H3115 0.930 . S
C3124 C3122 1.378 . S
C3124 C3125 1.367 . S
C3125 C3124 1.367 . S
C3125 C3127 1.433 . S
C3126 C3122 1.350 . S
C3126 C3123 1.463 . S
C3126 N3130 1.427 . S
C3127 H3117 0.929 . S
C3127 C3125 1.433 . S
C3127 N3130 1.384 . S
C3128 H3119 0.929 . S
C3128 C3120 1.378 . S
C3128 C3123 1.350 . S
C3129 H3116 0.929 . S
C3129 C3121 1.433 . S
C3129 N3131 1.384 . S
N3130 C3126 1.427 . S
N3130 C3127 1.384 . S
N3131 C3123 1.427 . S
N3131 C3129 1.384 . S
H3132 C3138 0.930 . S
H3133 C3142 0.930 . S
H3134 C3147 0.929 . S
H3135 C3145 0.929 . S
H3136 C3140 0.929 . S
H3137 C3146 0.929 . S
C3138 H3132 0.930 . S
C3138 C3139 1.367 . S
C3138 C3146 1.378 . S
C3139 C3138 1.367 . S
C3139 C3147 1.433 . S
C3140 H3136 0.929 . S
C3140 C3142 1.378 . S
C3140 C3144 1.350 . S
C3141 C3144 1.463 . S
C3141 C3146 1.350 . S
C3141 N3149 1.427 . S
C3142 H3133 0.930 . S
C3142 C3140 1.378 . S
C3142 C3143 1.367 . S
C3143 C3142 1.367 . S
C3143 C3145 1.433 . S
C3144 C3140 1.350 . S
C3144 C3141 1.463 . S
C3144 N3148 1.427 . S
C3145 H3135 0.929 . S
C3145 C3143 1.433 . S
C3145 N3148 1.384 . S
C3146 H3137 0.929 . S
C3146 C3138 1.378 . S
C3146 C3141 1.350 . S
C3147 H3134 0.929 . S
C3147 C3139 1.433 . S
C3147 N3149 1.384 . S
N3148 C3144 1.427 . S
N3148 C3145 1.384 . S
N3149 C3141 1.427 . S
N3149 C3147 1.384 . S
H3150 C3156 0.930 . S
H3151 C3160 0.930 . S
H3152 C3165 0.929 . S
H3153 C3163 0.929 . S
H3154 C3158 0.929 . S
H3155 C3164 0.929 . S
C3156 H3150 0.930 . S
C3156 C3157 1.367 . S
C3156 C3164 1.378 . S
C3157 C3156 1.367 . S
C3157 C3165 1.433 . S
C3158 H3154 0.929 . S
C3158 C3160 1.378 . S
C3158 C3162 1.350 . S
C3159 C3162 1.463 . S
C3159 C3164 1.350 . S
C3159 N3167 1.427 . S
C3160 H3151 0.930 . S
C3160 C3158 1.378 . S
C3160 C3161 1.367 . S
C3161 C3160 1.367 . S
C3161 C3163 1.433 . S
C3162 C3158 1.350 . S
C3162 C3159 1.463 . S
C3162 N3166 1.427 . S
C3163 H3153 0.929 . S
C3163 C3161 1.433 . S
C3163 N3166 1.384 . S
C3164 H3155 0.929 . S
C3164 C3156 1.378 . S
C3164 C3159 1.350 . S
C3165 H3152 0.929 . S
C3165 C3157 1.433 . S
C3165 N3167 1.384 . S
N3166 C3162 1.427 . S
N3166 C3163 1.384 . S
N3167 C3159 1.427 . S
N3167 C3165 1.384 . S
H3168 C3174 0.930 . S
H3169 C3178 0.930 . S
H3170 C3183 0.929 . S
H3171 C3181 0.929 . S
H3172 C3176 0.929 . S
H3173 C3182 0.929 . S
C3174 H3168 0.930 . S
C3174 C3175 1.367 . S
C3174 C3182 1.378 . S
C3175 C3174 1.367 . S
C3175 C3183 1.433 . S
C3176 H3172 0.929 . S
C3176 C3178 1.378 . S
C3176 C3180 1.350 . S
C3177 C3180 1.463 . S
C3177 C3182 1.350 . S
C3177 N3185 1.427 . S
C3178 H3169 0.930 . S
C3178 C3176 1.378 . S
C3178 C3179 1.367 . S
C3179 C3178 1.367 . S
C3179 C3181 1.433 . S
C3180 C3176 1.350 . S
C3180 C3177 1.463 . S
C3180 N3184 1.427 . S
C3181 H3171 0.929 . S
C3181 C3179 1.433 . S
C3181 N3184 1.384 . S
C3182 H3173 0.929 . S
C3182 C3174 1.378 . S
C3182 C3177 1.350 . S
C3183 H3170 0.929 . S
C3183 C3175 1.433 . S
C3183 N3185 1.384 . S
N3184 C3180 1.427 . S
N3184 C3181 1.384 . S
N3185 C3177 1.427 . S
N3185 C3183 1.384 . S
H3186 C3192 0.930 . S
H3187 C3196 0.930 . S
H3188 C3201 0.929 . S
H3189 C3199 0.929 . S
H3190 C3194 0.929 . S
H3191 C3200 0.929 . S
C3192 H3186 0.930 . S
C3192 C3193 1.367 . S
C3192 C3200 1.378 . S
C3193 C3192 1.367 . S
C3193 C3201 1.433 . S
C3194 H3190 0.929 . S
C3194 C3196 1.378 . S
C3194 C3198 1.350 . S
C3195 C3198 1.463 . S
C3195 C3200 1.350 . S
C3195 N3203 1.427 . S
C3196 H3187 0.930 . S
C3196 C3194 1.378 . S
C3196 C3197 1.367 . S
C3197 C3196 1.367 . S
C3197 C3199 1.433 . S
C3198 C3194 1.350 . S
C3198 C3195 1.463 . S
C3198 N3202 1.427 . S
C3199 H3189 0.929 . S
C3199 C3197 1.433 . S
C3199 N3202 1.384 . S
C3200 H3191 0.929 . S
C3200 C3192 1.378 . S
C3200 C3195 1.350 . S
C3201 H3188 0.929 . S
C3201 C3193 1.433 . S
C3201 N3203 1.384 . S
N3202 C3198 1.427 . S
N3202 C3199 1.384 . S
N3203 C3195 1.427 . S
N3203 C3201 1.384 . S
H3204 C3210 0.930 . S
H3205 C3214 0.930 . S
H3206 C3219 0.929 . S
H3207 C3217 0.929 . S
H3208 C3212 0.929 . S
H3209 C3218 0.929 . S
C3210 H3204 0.930 . S
C3210 C3211 1.367 . S
C3210 C3218 1.378 . S
C3211 C3210 1.367 . S
C3211 C3219 1.433 . S
C3212 H3208 0.929 . S
C3212 C3214 1.378 . S
C3212 C3216 1.350 . S
C3213 C3216 1.463 . S
C3213 C3218 1.350 . S
C3213 N3221 1.427 . S
C3214 H3205 0.930 . S
C3214 C3212 1.378 . S
C3214 C3215 1.367 . S
C3215 C3214 1.367 . S
C3215 C3217 1.433 . S
C3216 C3212 1.350 . S
C3216 C3213 1.463 . S
C3216 N3220 1.427 . S
C3217 H3207 0.929 . S
C3217 C3215 1.433 . S
C3217 N3220 1.384 . S
C3218 H3209 0.929 . S
C3218 C3210 1.378 . S
C3218 C3213 1.350 . S
C3219 H3206 0.929 . S
C3219 C3211 1.433 . S
C3219 N3221 1.384 . S
N3220 C3216 1.427 . S
N3220 C3217 1.384 . S
N3221 C3213 1.427 . S
N3221 C3219 1.384 . S
H3222 C3228 0.930 . S
H3223 C3232 0.930 . S
H3224 C3237 0.929 . S
H3225 C3235 0.929 . S
H3226 C3230 0.929 . S
H3227 C3236 0.929 . S
C3228 H3222 0.930 . S
C3228 C3229 1.367 . S
C3228 C3236 1.378 . S
C3229 C3228 1.367 . S
C3229 C3237 1.433 . S
C3230 H3226 0.929 . S
C3230 C3232 1.378 . S
C3230 C3234 1.350 . S
C3231 C3234 1.463 . S
C3231 C3236 1.350 . S
C3231 N3239 1.427 . S
C3232 H3223 0.930 . S
C3232 C3230 1.378 . S
C3232 C3233 1.367 . S
C3233 C3232 1.367 . S
C3233 C3235 1.433 . S
C3234 C3230 1.350 . S
C3234 C3231 1.463 . S
C3234 N3238 1.427 . S
C3235 H3225 0.929 . S
C3235 C3233 1.433 . S
C3235 N3238 1.384 . S
C3236 H3227 0.929 . S
C3236 C3228 1.378 . S
C3236 C3231 1.350 . S
C3237 H3224 0.929 . S
C3237 C3229 1.433 . S
C3237 N3239 1.384 . S
N3238 C3234 1.427 . S
N3238 C3235 1.384 . S
N3239 C3231 1.427 . S
N3239 C3237 1.384 . S
H3240 C3246 0.930 . S
H3241 C3250 0.930 . S
H3242 C3255 0.929 . S
H3243 C3253 0.929 . S
H3244 C3248 0.929 . S
H3245 C3254 0.929 . S
C3246 H3240 0.930 . S
C3246 C3247 1.367 . S
C3246 C3254 1.378 . S
C3247 C3246 1.367 . S
C3247 C3255 1.433 . S
C3248 H3244 0.929 . S
C3248 C3250 1.378 . S
C3248 C3252 1.350 . S
C3249 C3252 1.463 . S
C3249 C3254 1.350 . S
C3249 N3257 1.427 . S
C3250 H3241 0.930 . S
C3250 C3248 1.378 . S
C3250 C3251 1.367 . S
C3251 C3250 1.367 . S
C3251 C3253 1.433 . S
C3252 C3248 1.350 . S
C3252 C3249 1.463 . S
C3252 N3256 1.427 . S
C3253 H3243 0.929 . S
C3253 C3251 1.433 . S
C3253 N3256 1.384 . S
C3254 H3245 0.929 . S
C3254 C3246 1.378 . S
C3254 C3249 1.350 . S
C3255 H3242 0.929 . S
C3255 C3247 1.433 . S
C3255 N3257 1.384 . S
N3256 C3252 1.427 . S
N3256 C3253 1.384 . S
N3257 C3249 1.427 . S
N3257 C3255 1.384 . S
H3258 C3264 0.930 . S
H3259 C3268 0.930 . S
H3260 C3273 0.929 . S
H3261 C3271 0.929 . S
H3262 C3266 0.929 . S
H3263 C3272 0.929 . S
C3264 H3258 0.930 . S
C3264 C3265 1.367 . S
C3264 C3272 1.378 . S
C3265 C3264 1.367 . S
C3265 C3273 1.433 . S
C3266 H3262 0.929 . S
C3266 C3268 1.378 . S
C3266 C3270 1.350 . S
C3267 C3270 1.463 . S
C3267 C3272 1.350 . S
C3267 N3275 1.427 . S
C3268 H3259 0.930 . S
C3268 C3266 1.378 . S
C3268 C3269 1.367 . S
C3269 C3268 1.367 . S
C3269 C3271 1.433 . S
C3270 C3266 1.350 . S
C3270 C3267 1.463 . S
C3270 N3274 1.427 . S
C3271 H3261 0.929 . S
C3271 C3269 1.433 . S
C3271 N3274 1.384 . S
C3272 H3263 0.929 . S
C3272 C3264 1.378 . S
C3272 C3267 1.350 . S
C3273 H3260 0.929 . S
C3273 C3265 1.433 . S
C3273 N3275 1.384 . S
N3274 C3270 1.427 . S
N3274 C3271 1.384 . S
N3275 C3267 1.427 . S
N3275 C3273 1.384 . S
H3276 C3282 0.930 . S
H3277 C3286 0.930 . S
H3278 C3291 0.929 . S
H3279 C3289 0.929 . S
H3280 C3284 0.929 . S
H3281 C3290 0.929 . S
C3282 H3276 0.930 . S
C3282 C3283 1.367 . S
C3282 C3290 1.378 . S
C3283 C3282 1.367 . S
C3283 C3291 1.433 . S
C3284 H3280 0.929 . S
C3284 C3286 1.378 . S
C3284 C3288 1.350 . S
C3285 C3288 1.463 . S
C3285 C3290 1.350 . S
C3285 N3293 1.427 . S
C3286 H3277 0.930 . S
C3286 C3284 1.378 . S
C3286 C3287 1.367 . S
C3287 C3286 1.367 . S
C3287 C3289 1.433 . S
C3288 C3284 1.350 . S
C3288 C3285 1.463 . S
C3288 N3292 1.427 . S
C3289 H3279 0.929 . S
C3289 C3287 1.433 . S
C3289 N3292 1.384 . S
C3290 H3281 0.929 . S
C3290 C3282 1.378 . S
C3290 C3285 1.350 . S
C3291 H3278 0.929 . S
C3291 C3283 1.433 . S
C3291 N3293 1.384 . S
N3292 C3288 1.427 . S
N3292 C3289 1.384 . S
N3293 C3285 1.427 . S
N3293 C3291 1.384 . S
H3294 C3300 0.930 . S
H3295 C3304 0.930 . S
H3296 C3309 0.929 . S
H3297 C3307 0.929 . S
H3298 C3302 0.929 . S
H3299 C3308 0.929 . S
C3300 H3294 0.930 . S
C3300 C3301 1.367 . S
C3300 C3308 1.378 . S
C3301 C3300 1.367 . S
C3301 C3309 1.433 . S
C3302 H3298 0.929 . S
C3302 C3304 1.378 . S
C3302 C3306 1.350 . S
C3303 C3306 1.463 . S
C3303 C3308 1.350 . S
C3303 N3311 1.427 . S
C3304 H3295 0.930 . S
C3304 C3302 1.378 . S
C3304 C3305 1.367 . S
C3305 C3304 1.367 . S
C3305 C3307 1.433 . S
C3306 C3302 1.350 . S
C3306 C3303 1.463 . S
C3306 N3310 1.427 . S
C3307 H3297 0.929 . S
C3307 C3305 1.433 . S
C3307 N3310 1.384 . S
C3308 H3299 0.929 . S
C3308 C3300 1.378 . S
C3308 C3303 1.350 . S
C3309 H3296 0.929 . S
C3309 C3301 1.433 . S
C3309 N3311 1.384 . S
N3310 C3306 1.427 . S
N3310 C3307 1.384 . S
N3311 C3303 1.427 . S
N3311 C3309 1.384 . S
H3312 C3318 0.930 . S
H3313 C3322 0.930 . S
H3314 C3327 0.929 . S
H3315 C3325 0.929 . S
H3316 C3320 0.929 1_455 S
H3317 C3326 0.929 1_655 S
C3318 H3312 0.930 . S
C3318 C3319 1.367 . S
C3318 C3326 1.378 . S
C3319 C3318 1.367 . S
C3319 C3327 1.433 . S
C3320 H3316 0.929 1_655 S
C3320 C3322 1.378 . S
C3320 C3324 1.350 . S
C3321 C3324 1.463 1_455 S
C3321 C3326 1.350 . S
C3321 N3329 1.427 . S
C3322 H3313 0.930 . S
C3322 C3320 1.378 . S
C3322 C3323 1.367 . S
C3323 C3322 1.367 . S
C3323 C3325 1.433 . S
C3324 C3320 1.350 . S
C3324 C3321 1.463 1_655 S
C3324 N3328 1.427 . S
C3325 H3315 0.929 . S
C3325 C3323 1.433 . S
C3325 N3328 1.384 . S
C3326 H3317 0.929 1_455 S
C3326 C3318 1.378 . S
C3326 C3321 1.350 . S
C3327 H3314 0.929 . S
C3327 C3319 1.433 . S
C3327 N3329 1.384 . S
N3328 C3324 1.427 . S
N3328 C3325 1.384 . S
N3329 C3321 1.427 . S
N3329 C3327 1.384 . S
H3330 C3336 0.930 . S
H3331 C3340 0.930 . S
H3332 C3345 0.929 . S
H3333 C3343 0.929 . S
H3334 C3338 0.929 . S
H3335 C3344 0.929 . S
C3336 H3330 0.930 . S
C3336 C3337 1.367 . S
C3336 C3344 1.378 . S
C3337 C3336 1.367 . S
C3337 C3345 1.433 . S
C3338 H3334 0.929 . S
C3338 C3340 1.378 . S
C3338 C3342 1.350 . S
C3339 C3342 1.463 . S
C3339 C3344 1.350 . S
C3339 N3347 1.427 . S
C3340 H3331 0.930 . S
C3340 C3338 1.378 . S
C3340 C3341 1.367 . S
C3341 C3340 1.367 . S
C3341 C3343 1.433 . S
C3342 C3338 1.350 . S
C3342 C3339 1.463 . S
C3342 N3346 1.427 . S
C3343 H3333 0.929 . S
C3343 C3341 1.433 . S
C3343 N3346 1.384 . S
C3344 H3335 0.929 . S
C3344 C3336 1.378 . S
C3344 C3339 1.350 . S
C3345 H3332 0.929 . S
C3345 C3337 1.433 . S
C3345 N3347 1.384 . S
N3346 C3342 1.427 . S
N3346 C3343 1.384 . S
N3347 C3339 1.427 . S
N3347 C3345 1.384 . S
H3348 C3354 0.930 . S
H3349 C3358 0.930 . S
H3350 C3363 0.929 . S
H3351 C3361 0.929 . S
H3352 C3356 0.929 . S
H3353 C3362 0.929 . S
C3354 H3348 0.930 . S
C3354 C3355 1.367 . S
C3354 C3362 1.378 . S
C3355 C3354 1.367 . S
C3355 C3363 1.433 . S
C3356 H3352 0.929 . S
C3356 C3358 1.378 . S
C3356 C3360 1.350 . S
C3357 C3360 1.463 1_545 S
C3357 C3362 1.350 . S
C3357 N3365 1.427 . S
C3358 H3349 0.930 . S
C3358 C3356 1.378 . S
C3358 C3359 1.367 . S
C3359 C3358 1.367 . S
C3359 C3361 1.433 . S
C3360 C3356 1.350 . S
C3360 C3357 1.463 1_565 S
C3360 N3364 1.427 . S
C3361 H3351 0.929 . S
C3361 C3359 1.433 . S
C3361 N3364 1.384 . S
C3362 H3353 0.929 . S
C3362 C3354 1.378 . S
C3362 C3357 1.350 . S
C3363 H3350 0.929 . S
C3363 C3355 1.433 . S
C3363 N3365 1.384 . S
N3364 C3360 1.427 . S
N3364 C3361 1.384 . S
N3365 C3357 1.427 . S
N3365 C3363 1.384 . S
H3366 C3372 0.930 . S
H3367 C3376 0.930 . S
H3368 C3381 0.929 1_554 S
H3369 C3379 0.929 1_556 S
H3370 C3374 0.929 . S
H3371 C3380 0.929 . S
C3372 H3366 0.930 . S
C3372 C3373 1.367 . S
C3372 C3380 1.378 . S
C3373 C3372 1.367 . S
C3373 C3381 1.433 . S
C3374 H3370 0.929 . S
C3374 C3376 1.378 . S
C3374 C3378 1.350 . S
C3375 C3378 1.463 1_546 S
C3375 C3380 1.350 . S
C3375 N3383 1.427 1_556 S
C3376 H3367 0.930 . S
C3376 C3374 1.378 . S
C3376 C3377 1.367 . S
C3377 C3376 1.367 . S
C3377 C3379 1.433 . S
C3378 C3374 1.350 . S
C3378 C3375 1.463 1_564 S
C3378 N3382 1.427 1_554 S
C3379 H3369 0.929 1_554 S
C3379 C3377 1.433 . S
C3379 N3382 1.384 1_554 S
C3380 H3371 0.929 . S
C3380 C3372 1.378 . S
C3380 C3375 1.350 . S
C3381 H3368 0.929 1_556 S
C3381 C3373 1.433 . S
C3381 N3383 1.384 1_556 S
N3382 C3378 1.427 1_556 S
N3382 C3379 1.384 1_556 S
N3383 C3375 1.427 1_554 S
N3383 C3381 1.384 1_554 S
H3384 C3390 0.930 . S
H3385 C3394 0.930 . S
H3386 C3399 0.929 . S
H3387 C3397 0.929 . S
H3388 C3392 0.929 . S
H3389 C3398 0.929 . S
C3390 H3384 0.930 . S
C3390 C3391 1.367 . S
C3390 C3398 1.378 . S
C3391 C3390 1.367 . S
C3391 C3399 1.433 1_556 S
C3392 H3388 0.929 . S
C3392 C3394 1.378 . S
C3392 C3396 1.350 . S
C3393 C3396 1.463 1_656 S
C3393 C3398 1.350 . S
C3393 N3401 1.427 1_556 S
C3394 H3385 0.930 . S
C3394 C3392 1.378 . S
C3394 C3395 1.367 . S
C3395 C3394 1.367 . S
C3395 C3397 1.433 1_554 S
C3396 C3392 1.350 . S
C3396 C3393 1.463 1_454 S
C3396 N3400 1.427 1_554 S
C3397 H3387 0.929 . S
C3397 C3395 1.433 1_556 S
C3397 N3400 1.384 . S
C3398 H3389 0.929 . S
C3398 C3390 1.378 . S
C3398 C3393 1.350 . S
C3399 H3386 0.929 . S
C3399 C3391 1.433 1_554 S
C3399 N3401 1.384 . S
N3400 C3396 1.427 1_556 S
N3400 C3397 1.384 . S
N3401 C3393 1.427 1_554 S
N3401 C3399 1.384 . S
H3402 C3408 0.930 . S
H3403 C3412 0.930 . S
H3404 C3417 0.929 1_554 S
H3405 C3415 0.929 1_556 S
H3406 C3410 0.929 . S
H3407 C3416 0.929 . S
C3408 H3402 0.930 . S
C3408 C3409 1.367 . S
C3408 C3416 1.378 . S
C3409 C3408 1.367 . S
C3409 C3417 1.433 . S
C3410 H3406 0.929 . S
C3410 C3412 1.378 . S
C3410 C3414 1.350 . S
C3411 C3414 1.463 1_556 S
C3411 C3416 1.350 . S
C3411 N3419 1.427 1_556 S
C3412 H3403 0.930 . S
C3412 C3410 1.378 . S
C3412 C3413 1.367 . S
C3413 C3412 1.367 . S
C3413 C3415 1.433 . S
C3414 C3410 1.350 . S
C3414 C3411 1.463 1_554 S
C3414 N3418 1.427 1_554 S
C3415 H3405 0.929 1_554 S
C3415 C3413 1.433 . S
C3415 N3418 1.384 1_554 S
C3416 H3407 0.929 . S
C3416 C3408 1.378 . S
C3416 C3411 1.350 . S
C3417 H3404 0.929 1_556 S
C3417 C3409 1.433 . S
C3417 N3419 1.384 1_556 S
N3418 C3414 1.427 1_556 S
N3418 C3415 1.384 1_556 S
N3419 C3411 1.427 1_554 S
N3419 C3417 1.384 1_554 S
C2131 C3 1.429 . S
C2135 C465 1.434 . S
C2149 C62 1.429 . S
C2153 C524 1.434 . S
C2167 C406 1.436 . S
C2171 C121 1.427 . S
C2185 C701 1.436 . S
C2189 C180 1.426 . S
C2203 C239 1.429 . S
C2207 C583 1.434 . S
C2221 C298 1.426 . S
C2225 C642 1.434 . S
C2239 C111 1.433 . S
C2243 C357 1.428 . S
C2257 C170 1.435 . S
C2261 C416 1.428 . S
C2275 C475 1.428 . S
C2279 C52 1.435 . S
C2293 C534 1.423 . S
C2297 C347 1.436 . S
C2311 C229 1.434 . S
C2315 C593 1.426 . S
C2329 C652 1.425 . S
C2333 C288 1.436 . S
C2347 C1173 1.436 . S
C2351 C711 1.422 . S
C2365 C770 1.429 . S
C2369 C1232 1.434 . S
C2383 C829 1.429 . S
C2387 C1114 1.434 . S
C2401 C1409 1.435 . S
C2405 C888 1.424 . S
C2419 C947 1.423 . S
C2423 C1291 1.435 . S
C2437 C1350 1.435 . S
C2441 C1006 1.423 . S
C2455 C819 1.436 . S
C2459 C1065 1.422 . S
C2473 C1124 1.425 . S
C2477 C878 1.436 . S
C2491 C760 1.434 . S
C2495 C1183 1.429 . S
C2509 C1242 1.429 . S
C2513 C1055 1.434 . S
C2527 C1301 1.429 . S
C2531 C937 1.434 . S
C2545 C1360 1.423 . S
C2549 C996 1.436 . S
C2563 C1881 1.435 . S
C2567 C1419 1.429 . S
C2581 C1940 1.434 . S
C2585 C1478 1.429 . S
C2599 C1822 1.435 . S
C2603 C1537 1.428 . S
C2617 C1596 1.427 . S
C2621 C2117 1.436 . S
C2635 C1655 1.425 . S
C2639 C1999 1.436 . S
C2653 C2058 1.435 . S
C2657 C1714 1.424 . S
C2671 C1773 1.423 . S
C2675 C1527 1.435 . S
C2689 C1586 1.434 . S
C2693 C1832 1.429 . S
C2707 C1468 1.436 . S
C2711 C1891 1.425 . S
C2725 C1950 1.424 . S
C2729 C1763 1.435 . S
C2743 C2009 1.428 . S
C2747 C1645 1.433 . S
C2761 C2068 1.429 . S
C2765 C1704 1.435 . S
C2779 C210 1.595 . S
C2783 C33 1.594 . S
C2797 C269 1.594 . S
C2801 C92 1.594 . S
C2815 C151 1.594 . S
C2819 C328 1.594 . S
C2833 C564 1.595 . S
C2837 C387 1.595 . S
C2851 C623 1.594 . S
C2855 C446 1.594 . S
C2869 C682 1.594 . S
C2873 C505 1.594 . S
C2887 C918 1.594 . S
C2891 C741 1.595 . S
C2905 C977 1.595 . S
C2909 C800 1.595 . S
C2923 C859 1.595 . S
C2927 C1036 1.595 . S
C2941 C1272 1.594 1_554 S
C2945 C1095 1.594 . S
C2959 C1331 1.594 1_554 S
C2963 C1154 1.594 . S
C2977 C1390 1.594 1_554 S
C2981 C1213 1.594 . S
C2995 C1626 1.595 1_556 S
C2999 C1449 1.595 . S
C3013 C1508 1.594 . S
C3017 C1685 1.594 1_556 S
C3031 C1744 1.595 1_556 S
C3035 C1567 1.595 . S
C3049 C1803 1.595 . S
C3053 C1980 1.595 . S
C3067 C1862 1.596 . S
C3071 C2039 1.596 . S
C3085 C1921 1.596 . S
C3089 C2098 1.596 . S
C3103 C5 1.437 . S
C3107 C1067 1.437 . S
C3121 C1126 1.438 . S
C3125 C64 1.438 . S
C3139 C1185 1.435 . S
C3143 C123 1.435 . S
C3157 C1952 1.438 . S
C3161 C182 1.438 . S
C3175 C2011 1.435 . S
C3179 C241 1.435 . S
C3193 C2070 1.435 . S
C3197 C300 1.435 . S
C3211 C359 1.438 . S
C3215 C1421 1.438 . S
C3229 C1480 1.438 . S
C3233 C418 1.438 . S
C3247 C1539 1.435 . S
C3251 C477 1.435 . S
C3265 C536 1.436 . S
C3269 C890 1.436 . S
C3283 C595 1.435 . S
C3287 C949 1.435 . S
C3301 C654 1.437 . S
C3305 C1008 1.437 . S
C3319 C1775 1.439 . S
C3323 C713 1.439 . S
C3337 C1834 1.435 . S
C3341 C772 1.435 . S
C3355 C831 1.438 . S
C3359 C1893 1.438 . S
C3373 C1244 1.438 . S
C3377 C1598 1.438 . S
C3391 C1303 1.438 . S
C3395 C1657 1.438 . S
C3409 C1362 1.437 . S
C3413 C1716 1.437 . S
