# Generated by pormake.
# Topology ukj, (4)-cn, num edge types: 1
# Building blocks:
#     Node 0, Type 0, BuildingBlock: CEKHIL_clean_sbu_0, # of connection points: 4
#     Node 1, Type 0, BuildingBlock: CEKHIL_clean_sbu_0, # of connection points: 4
#     Node 2, Type 0, BuildingBlock: CEKHIL_clean_sbu_0, # of connection points: 4
#     Node 3, Type 0, BuildingBlock: CEKHIL_clean_sbu_0, # of connection points: 4
#     Node 4, Type 0, BuildingBlock: CEKHIL_clean_sbu_0, # of connection points: 4
#     Node 5, Type 0, BuildingBlock: CEKHIL_clean_sbu_0, # of connection points: 4
#     Node 6, Type 0, BuildingBlock: CEKHIL_clean_sbu_0, # of connection points: 4
#     Node 7, Type 0, BuildingBlock: CEKHIL_clean_sbu_0, # of connection points: 4
#     Node 8, Type 0, BuildingBlock: CEKHIL_clean_sbu_0, # of connection points: 4
#     Node 9, Type 0, BuildingBlock: CEKHIL_clean_sbu_0, # of connection points: 4
#     Node 10, Type 0, BuildingBlock: CEKHIL_clean_sbu_0, # of connection points: 4
#     Node 11, Type 0, BuildingBlock: CEKHIL_clean_sbu_0, # of connection points: 4
#     Node 12, Type 0, BuildingBlock: CEKHIL_clean_sbu_0, # of connection points: 4
#     Node 13, Type 0, BuildingBlock: CEKHIL_clean_sbu_0, # of connection points: 4
#     Node 14, Type 0, BuildingBlock: CEKHIL_clean_sbu_0, # of connection points: 4
#     Node 15, Type 0, BuildingBlock: CEKHIL_clean_sbu_0, # of connection points: 4
#     Node 16, Type 0, BuildingBlock: CEKHIL_clean_sbu_0, # of connection points: 4
#     Node 17, Type 0, BuildingBlock: CEKHIL_clean_sbu_0, # of connection points: 4
#     Node 18, Type 0, BuildingBlock: CEKHIL_clean_sbu_0, # of connection points: 4
#     Node 19, Type 0, BuildingBlock: CEKHIL_clean_sbu_0, # of connection points: 4
#     Node 20, Type 0, BuildingBlock: CEKHIL_clean_sbu_0, # of connection points: 4
#     Node 21, Type 0, BuildingBlock: CEKHIL_clean_sbu_0, # of connection points: 4
#     Node 22, Type 0, BuildingBlock: CEKHIL_clean_sbu_0, # of connection points: 4
#     Node 23, Type 0, BuildingBlock: CEKHIL_clean_sbu_0, # of connection points: 4
#     Node 24, Type 0, BuildingBlock: CEKHIL_clean_sbu_0, # of connection points: 4
#     Node 25, Type 0, BuildingBlock: CEKHIL_clean_sbu_0, # of connection points: 4
#     Node 26, Type 0, BuildingBlock: CEKHIL_clean_sbu_0, # of connection points: 4
#     Node 27, Type 0, BuildingBlock: CEKHIL_clean_sbu_0, # of connection points: 4
#     Node 28, Type 0, BuildingBlock: CEKHIL_clean_sbu_0, # of connection points: 4
#     Node 29, Type 0, BuildingBlock: CEKHIL_clean_sbu_0, # of connection points: 4
#     Node 30, Type 0, BuildingBlock: CEKHIL_clean_sbu_0, # of connection points: 4
#     Node 31, Type 0, BuildingBlock: CEKHIL_clean_sbu_0, # of connection points: 4
#     Edge 32, Type (0, 0), BuildingBlock: CIFDUS_clean_linker_0, # of connection points: 2
#     Edge 33, Type (0, 0), BuildingBlock: CIFDUS_clean_linker_0, # of connection points: 2
#     Edge 34, Type (0, 0), BuildingBlock: CIFDUS_clean_linker_0, # of connection points: 2
#     Edge 35, Type (0, 0), BuildingBlock: CIFDUS_clean_linker_0, # of connection points: 2
#     Edge 36, Type (0, 0), BuildingBlock: CIFDUS_clean_linker_0, # of connection points: 2
#     Edge 37, Type (0, 0), BuildingBlock: CIFDUS_clean_linker_0, # of connection points: 2
#     Edge 38, Type (0, 0), BuildingBlock: CIFDUS_clean_linker_0, # of connection points: 2
#     Edge 39, Type (0, 0), BuildingBlock: CIFDUS_clean_linker_0, # of connection points: 2
#     Edge 40, Type (0, 0), BuildingBlock: CIFDUS_clean_linker_0, # of connection points: 2
#     Edge 41, Type (0, 0), BuildingBlock: CIFDUS_clean_linker_0, # of connection points: 2
#     Edge 42, Type (0, 0), BuildingBlock: CIFDUS_clean_linker_0, # of connection points: 2
#     Edge 43, Type (0, 0), BuildingBlock: CIFDUS_clean_linker_0, # of connection points: 2
#     Edge 44, Type (0, 0), BuildingBlock: CIFDUS_clean_linker_0, # of connection points: 2
#     Edge 45, Type (0, 0), BuildingBlock: CIFDUS_clean_linker_0, # of connection points: 2
#     Edge 46, Type (0, 0), BuildingBlock: CIFDUS_clean_linker_0, # of connection points: 2
#     Edge 47, Type (0, 0), BuildingBlock: CIFDUS_clean_linker_0, # of connection points: 2
#     Edge 48, Type (0, 0), BuildingBlock: CIFDUS_clean_linker_0, # of connection points: 2
#     Edge 49, Type (0, 0), BuildingBlock: CIFDUS_clean_linker_0, # of connection points: 2
#     Edge 50, Type (0, 0), BuildingBlock: CIFDUS_clean_linker_0, # of connection points: 2
#     Edge 51, Type (0, 0), BuildingBlock: CIFDUS_clean_linker_0, # of connection points: 2
#     Edge 52, Type (0, 0), BuildingBlock: CIFDUS_clean_linker_0, # of connection points: 2
#     Edge 53, Type (0, 0), BuildingBlock: CIFDUS_clean_linker_0, # of connection points: 2
#     Edge 54, Type (0, 0), BuildingBlock: CIFDUS_clean_linker_0, # of connection points: 2
#     Edge 55, Type (0, 0), BuildingBlock: CIFDUS_clean_linker_0, # of connection points: 2
#     Edge 56, Type (0, 0), BuildingBlock: CIFDUS_clean_linker_0, # of connection points: 2
#     Edge 57, Type (0, 0), BuildingBlock: CIFDUS_clean_linker_0, # of connection points: 2
#     Edge 58, Type (0, 0), BuildingBlock: CIFDUS_clean_linker_0, # of connection points: 2
#     Edge 59, Type (0, 0), BuildingBlock: CIFDUS_clean_linker_0, # of connection points: 2
#     Edge 60, Type (0, 0), BuildingBlock: CIFDUS_clean_linker_0, # of connection points: 2
#     Edge 61, Type (0, 0), BuildingBlock: CIFDUS_clean_linker_0, # of connection points: 2
#     Edge 62, Type (0, 0), BuildingBlock: CIFDUS_clean_linker_0, # of connection points: 2
#     Edge 63, Type (0, 0), BuildingBlock: CIFDUS_clean_linker_0, # of connection points: 2
#     Edge 64, Type (0, 0), BuildingBlock: CIFDUS_clean_linker_0, # of connection points: 2
#     Edge 65, Type (0, 0), BuildingBlock: CIFDUS_clean_linker_0, # of connection points: 2
#     Edge 66, Type (0, 0), BuildingBlock: CIFDUS_clean_linker_0, # of connection points: 2
#     Edge 67, Type (0, 0), BuildingBlock: CIFDUS_clean_linker_0, # of connection points: 2
#     Edge 68, Type (0, 0), BuildingBlock: CIFDUS_clean_linker_0, # of connection points: 2
#     Edge 69, Type (0, 0), BuildingBlock: CIFDUS_clean_linker_0, # of connection points: 2
#     Edge 70, Type (0, 0), BuildingBlock: CIFDUS_clean_linker_0, # of connection points: 2
#     Edge 71, Type (0, 0), BuildingBlock: CIFDUS_clean_linker_0, # of connection points: 2
#     Edge 72, Type (0, 0), BuildingBlock: CIFDUS_clean_linker_0, # of connection points: 2
#     Edge 73, Type (0, 0), BuildingBlock: CIFDUS_clean_linker_0, # of connection points: 2
#     Edge 74, Type (0, 0), BuildingBlock: CIFDUS_clean_linker_0, # of connection points: 2
#     Edge 75, Type (0, 0), BuildingBlock: CIFDUS_clean_linker_0, # of connection points: 2
#     Edge 76, Type (0, 0), BuildingBlock: CIFDUS_clean_linker_0, # of connection points: 2
#     Edge 77, Type (0, 0), BuildingBlock: CIFDUS_clean_linker_0, # of connection points: 2
#     Edge 78, Type (0, 0), BuildingBlock: CIFDUS_clean_linker_0, # of connection points: 2
#     Edge 79, Type (0, 0), BuildingBlock: CIFDUS_clean_linker_0, # of connection points: 2
#     Edge 80, Type (0, 0), BuildingBlock: CIFDUS_clean_linker_0, # of connection points: 2
#     Edge 81, Type (0, 0), BuildingBlock: CIFDUS_clean_linker_0, # of connection points: 2
#     Edge 82, Type (0, 0), BuildingBlock: CIFDUS_clean_linker_0, # of connection points: 2
#     Edge 83, Type (0, 0), BuildingBlock: CIFDUS_clean_linker_0, # of connection points: 2
#     Edge 84, Type (0, 0), BuildingBlock: CIFDUS_clean_linker_0, # of connection points: 2
#     Edge 85, Type (0, 0), BuildingBlock: CIFDUS_clean_linker_0, # of connection points: 2
#     Edge 86, Type (0, 0), BuildingBlock: CIFDUS_clean_linker_0, # of connection points: 2
#     Edge 87, Type (0, 0), BuildingBlock: CIFDUS_clean_linker_0, # of connection points: 2
#     Edge 88, Type (0, 0), BuildingBlock: CIFDUS_clean_linker_0, # of connection points: 2
#     Edge 89, Type (0, 0), BuildingBlock: CIFDUS_clean_linker_0, # of connection points: 2
#     Edge 90, Type (0, 0), BuildingBlock: CIFDUS_clean_linker_0, # of connection points: 2
#     Edge 91, Type (0, 0), BuildingBlock: CIFDUS_clean_linker_0, # of connection points: 2
#     Edge 92, Type (0, 0), BuildingBlock: CIFDUS_clean_linker_0, # of connection points: 2
#     Edge 93, Type (0, 0), BuildingBlock: CIFDUS_clean_linker_0, # of connection points: 2
#     Edge 94, Type (0, 0), BuildingBlock: CIFDUS_clean_linker_0, # of connection points: 2
#     Edge 95, Type (0, 0), BuildingBlock: CIFDUS_clean_linker_0, # of connection points: 2
# Relax obj value: 0.080
# Max RMSD: 0.173
# Mean RMSD: 0.172
data_MOF--net-ukj--node1-CEKHIL_clean_sbu_0--edge1-CIFDUS_clean_linker_0
_symmetry_space_group_name_H-M    P1
_symmetry_Int_Tables_number       1
_symmetry_cell_setting            triclinic
loop_
_symmetry_equiv_pos_as_xyz
'x, y, z'
_cell_length_a     27.310686
_cell_length_b     56.087052
_cell_length_c     48.796607
_cell_angle_alpha  90.021572
_cell_angle_beta   90.001979
_cell_angle_gamma 90.000698
loop_
_atom_site_label
_atom_site_type_symbol
_atom_site_fract_x
_atom_site_fract_y
_atom_site_fract_z
_atom_type_partial_charge
Co0 Co 0.12482 0.33412 0.25148 0.0
O1 O 0.06121 0.3199 0.24852 0.0
O2 O 0.13044 0.30171 0.23773 0.0
C3 C 0.11412 0.34862 0.29365 0.0
O4 O 0.19714 0.34369 0.25326 0.0
Co5 Co 0.13129 0.38951 0.25754 0.0
O6 O 0.20138 0.38267 0.26444 0.0
C7 C 0.11533 0.36837 0.20316 0.0
C8 C 0.08303 0.30059 0.24065 0.0
C9 C 0.22168 0.36264 0.25949 0.0
O10 O 0.12016 0.34733 0.21333 0.0
O11 O 0.11428 0.38738 0.21766 0.0
O12 O 0.12641 0.32648 0.29024 0.0
O13 O 0.10358 0.36035 0.27166 0.0
Co14 Co 0.10205 0.91864 0.25185 0.0
O15 O 0.16794 0.92997 0.25011 0.0
O16 O 0.10306 0.95209 0.2407 0.0
C17 C 0.11102 0.90212 0.29322 0.0
O18 O 0.02822 0.91156 0.25265 0.0
Co19 Co 0.08828 0.86391 0.2533 0.0
O20 O 0.01969 0.87236 0.26165 0.0
C21 C 0.11005 0.88731 0.2009 0.0
C22 C 0.1505 0.95054 0.24344 0.0
C23 C 1.00157 0.89305 0.25795 0.0
O24 O 0.10663 0.90764 0.21287 0.0
O25 O 0.10715 0.86744 0.21371 0.0
O26 O 0.10036 0.92452 0.29075 0.0
O27 O 0.12001 0.89081 0.27064 0.0
Co28 Co 0.13735 0.90092 0.98946 0.0
O29 O 0.07117 0.91226 0.9899 0.0
O30 O 0.13508 0.93401 0.00197 0.0
C31 C 0.13315 0.88531 0.94741 0.0
O32 O 0.21128 0.89397 0.99032 0.0
Co33 Co 0.15197 0.84609 0.9867 0.0
O34 O 0.22139 0.85487 0.98105 0.0
C35 C 0.12576 0.86821 0.03914 0.0
C36 C 0.08792 0.93263 -0.00205 0.0
C37 C 0.23875 0.87561 0.98553 0.0
O38 O 0.12996 0.8888 0.02786 0.0
O39 O 0.12937 0.84863 0.0258 0.0
O40 O 0.1422 0.9078 0.95081 0.0
O41 O 0.12204 0.87348 0.96932 0.0
Co42 Co 0.14523 0.33237 0.9904 0.0
O43 O 0.21032 0.31983 0.99096 0.0
O44 O 0.14439 0.29888 0.00148 0.0
C45 C 0.15117 0.34915 0.94923 0.0
O46 O 0.07185 0.34114 0.99082 0.0
Co47 Co 0.13716 0.38773 0.99018 0.0
O48 O 0.06807 0.38054 0.98156 0.0
C49 C 0.15486 0.36279 0.04207 0.0
C50 C 0.19178 0.29958 -0.00198 0.0
C51 C 0.04743 0.36044 0.98552 0.0
O52 O 0.15221 0.34284 0.02933 0.0
O53 O 0.15214 0.38307 0.03014 0.0
O54 O 0.14091 0.32669 0.95164 0.0
O55 O 0.16338 0.36008 0.97159 0.0
Co56 Co 0.8653 0.65166 0.73287 0.0
O57 O 0.93116 0.66335 0.73423 0.0
O58 O 0.86658 0.68418 0.7473 0.0
C59 C 0.87032 0.638 0.69013 0.0
O60 O 0.79158 0.64406 0.73309 0.0
Co61 Co 0.85307 0.5967 0.72658 0.0
O62 O 0.78325 0.60519 0.72187 0.0
C63 C 0.87748 0.61669 0.78035 0.0
C64 C 0.91381 0.68325 0.74332 0.0
C65 C 0.76498 0.62555 0.72746 0.0
O66 O 0.87254 0.63776 0.77039 0.0
O67 O 0.87524 0.59773 0.7658 0.0
O68 O 0.8607 0.66029 0.69466 0.0
O69 O 0.88155 0.62534 0.71135 0.0
Co70 Co 0.85873 0.08649 0.73277 0.0
O71 O 0.79235 0.07549 0.73502 0.0
O72 O 0.85651 0.05426 0.74783 0.0
C73 C 0.85402 0.09927 0.68914 0.0
O74 O 0.93274 0.09336 0.73218 0.0
Co75 Co 0.8716 0.14114 0.72574 0.0
O76 O 0.94093 0.1321 0.72047 0.0
C77 C 0.85343 0.12199 0.78086 0.0
C78 C 0.80925 0.05552 0.74418 0.0
C79 C 0.95927 0.11179 0.72618 0.0
O80 O 0.85425 0.10082 0.77067 0.0
O81 O 0.85597 0.14082 0.76608 0.0
O82 O 0.8617 0.07701 0.69459 0.0
O83 O 0.84342 0.11258 0.71005 0.0
Co84 Co 0.8831 0.0851 -0.00261 0.0
O85 O 0.94994 0.07456 -0.0035 0.0
O86 O 0.88653 0.05154 0.98703 0.0
C87 C 0.88731 0.10269 0.03875 0.0
O88 O 0.80871 0.09093 -0.0025 0.0
Co89 Co 0.86585 0.13944 -0.00398 0.0
O90 O 0.79806 0.13022 0.00522 0.0
C91 C 0.88401 0.11458 0.94408 0.0
C92 C 0.93377 0.05361 0.99018 0.0
C93 C 0.78104 0.10923 0.00224 0.0
O94 O 0.8869 0.09501 0.9577 0.0
O95 O 0.87802 0.13488 0.95562 0.0
O96 O 0.88057 0.07994 0.03643 0.0
O97 O 0.89746 0.11382 0.01609 0.0
Co98 Co 0.89047 0.65895 -0.00561 0.0
O99 O 0.82446 0.67033 0.99331 0.0
O100 O 0.88907 0.69258 0.98388 0.0
C101 C 0.88304 0.64169 0.03524 0.0
O102 O 0.96442 0.65185 -0.00535 0.0
Co103 Co 0.90459 0.60407 -0.00561 0.0
O104 O 0.97279 0.61262 0.0036 0.0
C105 C 0.88201 0.62855 0.94281 0.0
C106 C 0.84168 0.69102 0.9869 0.0
C107 C 0.99101 0.63331 7e-05 0.0
O108 O 0.88519 0.64861 0.95534 0.0
O109 O 0.88562 0.60839 0.95492 0.0
O110 O 0.89293 0.66422 0.03326 0.0
O111 O 0.87335 0.63071 0.01255 0.0
Co112 Co 0.11514 0.83634 0.74803 0.0
O113 O 0.0488 0.8252 0.74666 0.0
O114 O 0.11292 0.80347 0.73487 0.0
C115 C 0.11065 0.85127 0.79038 0.0
O116 O 0.18929 0.84318 0.74808 0.0
Co117 Co 0.12976 0.89129 0.75233 0.0
O118 O 0.19854 0.88204 0.75901 0.0
C119 C 0.10987 0.86978 0.69854 0.0
C120 C 0.06567 0.80488 0.73852 0.0
C121 C 0.21633 0.86151 0.75387 0.0
O122 O 0.10969 0.84904 0.70973 0.0
O123 O 0.11457 0.88917 0.71213 0.0
O124 O 0.11863 0.82874 0.78655 0.0
O125 O 0.09988 0.86349 0.76871 0.0
Co126 Co 0.11909 0.40327 0.75217 0.0
O127 O 0.18502 0.41475 0.75005 0.0
O128 O 0.1201 0.43632 0.73937 0.0
C129 C 0.12709 0.38803 0.79414 0.0
O130 O 0.04521 0.3959 0.75313 0.0
Co131 Co 0.10627 0.34808 0.75679 0.0
O132 O 0.03732 0.35693 0.7639 0.0
C133 C 0.1287 0.36962 0.70336 0.0
C134 C 0.16753 0.43507 0.74241 0.0
C135 C 0.01884 0.37739 0.7591 0.0
O136 O 0.1238 0.39054 0.71383 0.0
O137 O 0.12728 0.35042 0.7175 0.0
O138 O 0.11733 0.41048 0.791 0.0
O139 O 0.13634 0.37622 0.77203 0.0
Co140 Co 0.14078 0.40977 0.48809 0.0
O141 O 0.07431 0.42065 0.48824 0.0
O142 O 0.13802 0.4436 0.49741 0.0
C143 C 0.13539 0.3912 0.44779 0.0
O144 O 0.21501 0.40339 0.4887 0.0
Co145 Co 0.15711 0.35499 0.49007 0.0
O146 O 0.22547 0.36395 0.48175 0.0
C147 C 0.13247 0.38073 0.54068 0.0
C148 C 0.09077 0.44162 0.49411 0.0
C149 C 0.24262 0.38495 0.48456 0.0
O150 O 0.13501 0.40051 0.52754 0.0
O151 O 0.13698 0.36033 0.52917 0.0
O152 O 0.14403 0.4139 0.44897 0.0
O153 O 0.12546 0.38086 0.47083 0.0
Co154 Co 0.15768 0.85407 0.48934 0.0
O155 O 0.22294 0.84229 0.49413 0.0
O156 O 0.15619 0.82123 0.50249 0.0
C157 C 0.16923 0.86865 0.44728 0.0
O158 O 0.08425 0.86188 0.48541 0.0
Co159 Co 0.14703 0.90923 0.48425 0.0
O160 O 0.08118 0.9001 0.47088 0.0
C161 C 0.15626 0.88766 0.53884 0.0
C162 C 0.20388 0.82208 0.50103 0.0
C163 C 0.06064 0.88017 0.47597 0.0
O164 O 0.15689 0.86691 0.52766 0.0
O165 O 0.15597 0.90711 0.5251 0.0
O166 O 0.16033 0.8462 0.45092 0.0
O167 O 0.17728 0.88091 0.46933 0.0
Co168 Co 0.85633 0.15609 0.23783 0.0
O169 O 0.92024 0.17042 0.23829 0.0
O170 O 0.85185 0.18901 0.24982 0.0
C171 C 0.86416 0.13996 0.1958 0.0
O172 O 0.78368 0.14705 0.23829 0.0
Co173 Co 0.84638 0.10147 0.23613 0.0
O174 O 0.77604 0.10784 0.22956 0.0
C175 C 0.86987 0.12456 0.28866 0.0
C176 C 0.89897 0.19001 0.24579 0.0
C177 C 0.75738 0.12837 0.23345 0.0
O178 O 0.86466 0.14497 0.27696 0.0
O179 O 0.86749 0.10485 0.27547 0.0
O180 O 0.85147 0.16207 0.19882 0.0
O181 O 0.87604 0.12878 0.21811 0.0
Co182 Co 0.86281 0.59346 0.23358 0.0
O183 O 0.79984 0.57875 0.23761 0.0
O184 O 0.87006 0.56171 0.24887 0.0
C185 C 0.85088 0.60609 0.19082 0.0
O186 O 0.93472 0.60357 0.2309 0.0
Co187 Co 0.86728 0.64857 0.22475 0.0
O188 O 0.9378 0.64227 0.21844 0.0
C189 C 0.85369 0.62946 0.28022 0.0
C190 C 0.8227 0.55995 0.24615 0.0
C191 C 0.95868 0.62252 0.22405 0.0
O192 O 0.85848 0.60811 0.27097 0.0
O193 O 0.85174 0.64797 0.26492 0.0
O194 O 0.86404 0.58423 0.19538 0.0
O195 O 0.84021 0.61869 0.21217 0.0
Co196 Co 0.88583 0.59303 0.49007 0.0
O197 O 0.95172 0.58146 0.48994 0.0
O198 O 0.88773 0.56013 0.47694 0.0
C199 C 0.88837 0.60789 0.53227 0.0
O200 O 0.81195 0.60069 0.48883 0.0
Co201 Co 0.87416 0.64809 0.49329 0.0
O202 O 0.80483 0.63972 0.49949 0.0
C203 C 0.89702 0.62589 0.44052 0.0
C204 C 0.93484 0.56132 0.48128 0.0
C205 C 0.7859 0.61944 0.49434 0.0
O206 O 0.89457 0.60541 0.45207 0.0
O207 O 0.89208 0.6456 0.45344 0.0
O208 O 0.87955 0.58546 0.52826 0.0
O209 O 0.90119 0.62008 0.51088 0.0
Co210 Co 0.9172 0.17348 0.50172 0.0
O211 O 0.85431 0.18848 0.50378 0.0
O212 O 0.92113 0.20653 0.48913 0.0
C213 C 0.9135 0.15841 0.54449 0.0
O214 O 0.98907 0.16271 0.49844 0.0
Co215 Co 0.92017 0.11918 0.50321 0.0
O216 O 0.99136 0.1235 0.50808 0.0
C217 C 0.89567 0.1423 0.45124 0.0
C218 C 0.8746 0.20782 0.49505 0.0
C219 C 0.01288 0.14315 0.50303 0.0
O220 O 0.90262 0.16242 0.46324 0.0
O221 O 0.89839 0.12239 0.46394 0.0
O222 O 0.92841 0.17996 0.53997 0.0
O223 O 0.89695 0.14704 0.52319 0.0
Co224 Co 0.62822 0.33348 0.75476 0.0
O225 O 0.56363 0.31987 0.75385 0.0
O226 O 0.63127 0.30027 0.74336 0.0
C227 C 0.62075 0.35059 0.79586 0.0
O228 O 0.70135 0.34237 0.75475 0.0
Co229 Co 0.63785 0.38885 0.75567 0.0
O230 O 0.70756 0.38182 0.76311 0.0
C231 C 0.61924 0.36435 0.70339 0.0
C232 C 0.5839 0.29996 0.74671 0.0
C233 C 0.72693 0.36138 0.75949 0.0
O234 O 0.62191 0.34413 0.71568 0.0
O235 O 0.62163 0.38439 0.71589 0.0
O236 O 0.63155 0.32813 0.79388 0.0
O237 O 0.60939 0.36122 0.77322 0.0
Co238 Co 0.60885 0.902 0.74959 0.0
O239 O 0.67465 0.91381 0.74894 0.0
O240 O 0.61021 0.93482 0.73608 0.0
C241 C 0.61341 0.88749 0.79209 0.0
O242 O 0.53515 0.89432 0.74881 0.0
Co243 Co 0.59655 0.84706 0.75421 0.0
O244 O 0.52679 0.85536 0.75939 0.0
C245 C 0.62251 0.86811 0.70115 0.0
C246 C 0.65738 0.93386 0.74026 0.0
C247 C 0.50852 0.87577 0.75417 0.0
O248 O 0.61704 0.88897 0.71163 0.0
O249 O 0.61973 0.84889 0.71519 0.0
O250 O 0.60349 0.90981 0.78802 0.0
O251 O 0.62504 0.87525 0.77057 0.0
Co252 Co 0.67548 0.9128 0.48892 0.0
O253 O 0.61294 0.92824 0.48738 0.0
O254 O 0.68116 0.94613 0.5002 0.0
C255 C 0.66832 0.89608 0.4475 0.0
O256 O 0.74705 0.90144 0.49156 0.0
Co257 Co 0.67606 0.85754 0.48881 0.0
O258 O 0.74781 0.86135 0.48673 0.0
C259 C 0.6521 0.883 0.53957 0.0
C260 C 0.63431 0.94763 0.49516 0.0
C261 C 0.7697 0.88123 0.48963 0.0
O262 O 0.66247 0.90277 0.52764 0.0
O263 O 0.65189 0.86289 0.52717 0.0
O264 O 0.68405 0.91778 0.45008 0.0
O265 O 0.65365 0.88582 0.46978 0.0
Co266 Co 0.63533 0.34739 0.49221 0.0
O267 O 0.70062 0.33469 0.49389 0.0
O268 O 0.634 0.31469 0.50542 0.0
C269 C 0.64206 0.36249 0.45015 0.0
O270 O 0.56186 0.35526 0.49159 0.0
Co271 Co 0.62286 0.40242 0.48816 0.0
O272 O 0.55356 0.39417 0.48092 0.0
C273 C 0.64222 0.38059 0.54177 0.0
C274 C 0.68132 0.31478 0.50181 0.0
C275 C 0.5353 0.37366 0.48565 0.0
O276 O 0.64052 0.35987 0.53056 0.0
O277 O 0.63964 0.40006 0.52816 0.0
O278 O 0.63242 0.34007 0.45366 0.0
O279 O 0.65283 0.37447 0.47202 0.0
Co280 Co 0.34472 0.67258 0.23477 0.0
O281 O 0.40755 0.6879 0.23534 0.0
O282 O 0.33749 0.70602 0.24443 0.0
C283 C 0.35615 0.65438 0.19421 0.0
O284 O 0.27269 0.66222 0.23462 0.0
Co285 Co 0.33943 0.61775 0.23698 0.0
O286 O 0.26991 0.62267 0.22712 0.0
C287 C 0.35654 0.64412 0.28815 0.0
C288 C 0.38478 0.70749 0.24124 0.0
C289 C 0.24879 0.6428 0.22972 0.0
O290 O 0.35161 0.66368 0.27466 0.0
O291 O 0.35573 0.62359 0.27665 0.0
O292 O 0.34179 0.67638 0.19537 0.0
O293 O 0.36754 0.64465 0.21746 0.0
Co294 Co 0.36225 0.0974 0.24472 0.0
O295 O 0.29531 0.08815 0.24972 0.0
O296 O 0.359 0.06558 0.26042 0.0
C297 C 0.35387 0.10967 0.20151 0.0
O298 O 0.43654 0.10217 0.24124 0.0
Co299 Co 0.38116 0.15156 0.23536 0.0
O300 O 0.44832 0.14017 0.22752 0.0
C301 C 0.36723 0.13384 0.29134 0.0
C302 C 0.3116 0.06786 0.25836 0.0
C303 C 0.46461 0.11949 0.23347 0.0
O304 O 0.3639 0.11253 0.28187 0.0
O305 O 0.3704 0.15236 0.27613 0.0
O306 O 0.35974 0.08727 0.20702 0.0
O307 O 0.34707 0.12354 0.2224 0.0
Co308 Co 0.39947 0.08943 0.5008 0.0
O309 O 0.46355 0.07533 0.50117 0.0
O310 O 0.39663 0.05675 0.48736 0.0
C311 C 0.4031 0.10449 0.54303 0.0
O312 O 0.32676 0.09926 0.49901 0.0
Co313 Co 0.39347 0.14481 0.50429 0.0
O314 O 0.32293 0.1384 0.50954 0.0
C315 C 0.4138 0.12219 0.45126 0.0
C316 C 0.44358 0.05592 0.49224 0.0
C317 C 0.30229 0.11856 0.50415 0.0
O318 O 0.41016 0.10165 0.4627 0.0
O319 O 0.41071 0.14187 0.46442 0.0
O320 O 0.39174 0.08228 0.53924 0.0
O321 O 0.41759 0.11605 0.52156 0.0
Co322 Co 0.39675 0.66693 0.49915 0.0
O323 O 0.33199 0.67998 0.50029 0.0
O324 O 0.39648 0.69933 0.48439 0.0
C325 C 0.39611 0.6542 0.5429 0.0
O326 O 0.46958 0.65784 0.49609 0.0
Co327 Co 0.40485 0.61263 0.50492 0.0
O328 O 0.47587 0.61899 0.50733 0.0
C329 C 0.37736 0.63236 0.45149 0.0
C330 C 0.34982 0.69937 0.49017 0.0
C331 C 0.49526 0.63888 0.50094 0.0
O332 O 0.38339 0.65327 0.46171 0.0
O333 O 0.38096 0.61335 0.46587 0.0
O334 O 0.40764 0.67593 0.53679 0.0
O335 O 0.38036 0.64128 0.52263 0.0
Co336 Co 0.61156 0.8512 0.25061 0.0
O337 O 0.54728 0.8375 0.24794 0.0
O338 O 0.61558 0.8193 0.23541 0.0
C339 C 0.60462 0.86442 0.29352 0.0
O340 O 0.6843 0.86013 0.25181 0.0
Co341 Co 0.62025 0.90623 0.25758 0.0
O342 O 0.69035 0.89886 0.26378 0.0
C343 C 0.60354 0.88638 0.20282 0.0
C344 C 0.56827 0.81836 0.23882 0.0
C345 C 0.70976 0.87874 0.25828 0.0
O346 O 0.60602 0.8653 0.21302 0.0
O347 O 0.6045 0.90537 0.21735 0.0
O348 O 0.6148 0.84223 0.28872 0.0
O349 O 0.59267 0.87712 0.27238 0.0
Co350 Co 0.60796 0.41162 0.25133 0.0
O351 O 0.67053 0.42713 0.24998 0.0
O352 O 0.60063 0.44396 0.23773 0.0
C353 C 0.61767 0.39724 0.2936 0.0
O354 O 0.53626 0.4009 0.25154 0.0
Co355 Co 0.60364 0.35642 0.25672 0.0
O356 O 0.53303 0.36206 0.26319 0.0
C357 C 0.62572 0.37806 0.20321 0.0
C358 C 0.64764 0.44602 0.24173 0.0
C359 C 0.51216 0.38184 0.25782 0.0
O360 O 0.61723 0.39887 0.21325 0.0
O361 O 0.62592 0.35901 0.21766 0.0
O362 O 0.60303 0.41901 0.28997 0.0
O363 O 0.63007 0.38562 0.2718 0.0
Co364 Co 0.66304 0.41626 0.98791 0.0
O365 O 0.60001 0.43127 0.9876 0.0
O366 O 0.66894 0.44999 -0.00264 0.0
C367 C 0.65314 0.39767 0.94781 0.0
O368 O 0.73506 0.40537 0.98888 0.0
Co369 Co 0.66591 0.36089 0.99051 0.0
O370 O 0.73622 0.36552 0.98257 0.0
C371 C 0.64643 0.38831 0.04069 0.0
C372 C 0.62161 0.45103 -0.00616 0.0
C373 C 0.75818 0.38545 0.98512 0.0
O374 O 0.65434 0.4077 0.02745 0.0
O375 O 0.64611 0.36771 0.02937 0.0
O376 O 0.66749 0.41971 0.94856 0.0
O377 O 0.64081 0.38834 0.97104 0.0
Co378 Co 0.634 0.84128 0.99192 0.0
O379 O 0.70083 0.83087 0.99275 0.0
O380 O 0.63784 0.80845 0.00485 0.0
C381 C 0.63671 0.85631 0.9497 0.0
O382 O 0.55957 0.84726 0.99241 0.0
Co383 Co 0.61659 0.89594 0.98846 0.0
O384 O 0.54831 0.88599 0.98158 0.0
C385 C 0.63936 0.87438 0.04172 0.0
C386 C 0.68493 0.81037 0.00087 0.0
C387 C 0.53158 0.86524 0.98665 0.0
O388 O 0.63999 0.85381 0.03018 0.0
O389 O 0.63303 0.89387 0.02855 0.0
O390 O 0.62982 0.83372 0.95356 0.0
O391 O 0.64757 0.86871 0.97128 0.0
Co392 Co 0.3473 0.15897 0.73835 0.0
O393 O 0.41108 0.17327 0.73955 0.0
O394 O 0.34263 0.19219 0.74991 0.0
C395 C 0.35752 0.14242 0.69717 0.0
O396 O 0.27474 0.14917 0.73794 0.0
Co397 Co 0.34054 0.10375 0.73714 0.0
O398 O 0.27068 0.10975 0.72913 0.0
C399 C 0.36057 0.12803 0.78926 0.0
C400 C 0.39003 0.19296 0.74667 0.0
C401 C 0.25022 0.12993 0.73273 0.0
O402 O 0.35436 0.14819 0.77728 0.0
O403 O 0.35978 0.10806 0.77657 0.0
O404 O 0.34416 0.16453 0.69935 0.0
O405 O 0.36856 0.13166 0.71979 0.0
Co406 Co 0.37189 0.58618 0.73572 0.0
O407 O 0.30543 0.57542 0.73858 0.0
O408 O 0.36951 0.55441 0.75203 0.0
C409 C 0.36658 0.59751 0.69164 0.0
O410 O 0.44599 0.59283 0.7346 0.0
Co411 Co 0.38575 0.64039 0.72633 0.0
O412 O 0.45504 0.63114 0.72137 0.0
C413 C 0.36676 0.62321 0.78216 0.0
C414 C 0.32223 0.55568 0.74842 0.0
C415 C 0.47293 0.61091 0.72783 0.0
O416 O 0.36761 0.60173 0.77292 0.0
O417 O 0.36961 0.64153 0.76658 0.0
O418 O 0.37457 0.57548 0.69805 0.0
O419 O 0.35631 0.61156 0.71197 0.0
Co420 Co 0.38207 0.59133 -0.00042 0.0
O421 O 0.44698 0.57794 -0.00031 0.0
O422 O 0.37983 0.55783 0.98948 0.0
C423 C 0.38757 0.60965 0.04036 0.0
O424 O 0.30883 0.59974 -0.00128 0.0
Co425 Co 0.37151 0.64607 -0.00323 0.0
O426 O 0.30205 0.63938 0.00511 0.0
C427 C 0.38937 0.61976 0.94577 0.0
C428 C 0.42714 0.55779 0.99303 0.0
C429 C 0.28295 0.61878 0.00259 0.0
O430 O 0.38888 0.6004 0.95985 0.0
O431 O 0.38533 0.64042 0.95672 0.0
O432 O 0.37761 0.5871 0.03877 0.0
O433 O 0.39985 0.61987 0.01748 0.0
Co434 Co 0.38767 0.14559 -0.00064 0.0
O435 O 0.32184 0.15733 -0.00189 0.0
O436 O 0.38667 0.17805 0.98508 0.0
C437 C 0.38269 0.13204 0.04221 0.0
O438 O 0.46134 0.13823 -0.00096 0.0
Co439 Co 0.40113 0.09113 0.00486 0.0
O440 O 0.47073 0.09956 0.01044 0.0
C441 C 0.37658 0.11113 0.9512 0.0
C442 C 0.33945 0.1772 0.98908 0.0
C443 C 0.48847 0.12001 0.00492 0.0
O444 O 0.38025 0.13202 0.96173 0.0
O445 O 0.38015 0.09198 0.96533 0.0
O446 O 0.39269 0.15421 0.03735 0.0
O447 O 0.3712 0.11915 0.0211 0.0
H448 H 0.1511 0.33657 0.16684 0.0
H449 H 0.08514 0.40638 0.17221 0.0
H450 H 0.09531 0.41172 0.12278 0.0
H451 H 0.12234 0.39623 0.07806 0.0
H452 H 0.18882 0.32648 0.07353 0.0
H453 H 0.17993 0.32169 0.12289 0.0
C454 C 0.13835 0.35286 0.1572 0.0
C455 C 0.11689 0.37093 0.1731 0.0
C456 C 0.14519 0.35599 0.12905 0.0
C457 C 0.10151 0.39212 0.16035 0.0
C458 C 0.10756 0.39525 0.13215 0.0
C459 C 0.13565 0.38019 0.08797 0.0
C460 C 0.15623 0.36176 0.07221 0.0
C461 C 0.12963 0.37734 0.11633 0.0
C462 C 0.17275 0.34091 0.08524 0.0
C463 C 0.16745 0.33808 0.11342 0.0
H464 H 0.13011 0.90542 0.07434 0.0
H465 H 0.10843 0.82915 0.07179 0.0
H466 H 0.10273 0.8282 0.1218 0.0
H467 H 0.10452 0.84913 0.16619 0.0
H468 H 0.12749 0.9254 0.16769 0.0
H469 H 0.13243 0.92605 0.11799 0.0
C470 C 0.12384 0.88853 0.08458 0.0
C471 C 0.11957 0.8674 0.06925 0.0
C472 C 0.1212 0.88806 0.11319 0.0
C473 C 0.11179 0.84571 0.08305 0.0
C474 C 0.10866 0.84514 0.11166 0.0
C475 C 0.1109 0.86588 0.15567 0.0
C476 C 0.11556 0.88716 0.17075 0.0
C477 C 0.11357 0.86621 0.12694 0.0
C478 C 0.1236 0.90872 0.15671 0.0
C479 C 0.12638 0.90916 0.12823 0.0
H480 H 0.86194 0.65131 0.81763 0.0
H481 H 0.90205 0.57707 0.8106 0.0
H482 H 0.90511 0.57381 0.86061 0.0
H483 H 0.8966 0.59236 0.90623 0.0
H484 H 0.8551 0.6666 0.91188 0.0
H485 H 0.85193 0.66936 0.86227 0.0
C486 C 0.87175 0.63439 0.8269 0.0
C487 C 0.8821 0.61451 0.81038 0.0
C488 C 0.87276 0.63258 0.85541 0.0
C489 C 0.89407 0.59269 0.82287 0.0
C490 C 0.89568 0.5908 0.85144 0.0
C491 C 0.88642 0.60906 0.8966 0.0
C492 C 0.87631 0.62924 0.91277 0.0
C493 C 0.88491 0.61064 0.8679 0.0
C494 C 0.8634 0.6508 0.89996 0.0
C495 C 0.86162 0.65245 0.87157 0.0
H496 H 0.86044 0.14944 0.90686 0.0
H497 H 0.90584 0.07581 0.91253 0.0
H498 H 0.89788 0.07148 0.86312 0.0
H499 H 0.87717 0.0881 0.81833 0.0
H500 H 0.83348 0.16182 0.81173 0.0
H501 H 0.84113 0.16643 0.86142 0.0
C502 C 0.8691 0.13251 0.89729 0.0
C503 C 0.88374 0.11301 0.91361 0.0
C504 C 0.86414 0.13001 0.86867 0.0
C505 C 0.89445 0.09117 0.90068 0.0
C506 C 0.88973 0.08861 0.87235 0.0
C507 C 0.86878 0.10515 0.8277 0.0
C508 C 0.8543 0.12452 0.81121 0.0
C509 C 0.87416 0.10781 0.85618 0.0
C510 C 0.84446 0.14656 0.82385 0.0
C511 C 0.84903 0.14924 0.85229 0.0
H512 H 0.13721 0.907 0.66592 0.0
H513 H 0.08351 0.83455 0.6631 0.0
H514 H 0.09455 0.83378 0.61363 0.0
H515 H 0.12252 0.85274 0.57171 0.0
H516 H 0.17537 0.92526 0.57338 0.0
H517 H 0.16193 0.92683 0.623 0.0
C518 C 0.12718 0.89117 0.65444 0.0
C519 C 0.10973 0.87083 0.66827 0.0
C520 C 0.13423 0.8907 0.62594 0.0
C521 C 0.09723 0.85043 0.65305 0.0
C522 C 0.10372 0.84991 0.62475 0.0
C523 C 0.13159 0.86887 0.58289 0.0
C524 C 0.15064 0.88874 0.56893 0.0
C525 C 0.12304 0.86976 0.61112 0.0
C526 C 0.16104 0.90965 0.58369 0.0
C527 C 0.15318 0.91058 0.61202 0.0
H528 H 0.14564 0.34491 0.57764 0.0
H529 H 0.10776 0.41953 0.57133 0.0
H530 H 0.10499 0.42268 0.62102 0.0
H531 H 0.11429 0.40465 0.66606 0.0
H532 H 0.15154 0.33003 0.67298 0.0
H533 H 0.15393 0.32662 0.62311 0.0
C534 C 0.13634 0.36181 0.58711 0.0
C535 C 0.127 0.38193 0.57074 0.0
C536 C 0.13516 0.3636 0.61576 0.0
C537 C 0.1153 0.40374 0.5834 0.0
C538 C 0.11379 0.40561 0.61184 0.0
C539 C 0.12328 0.38764 0.65675 0.0
C540 C 0.13293 0.36767 0.67327 0.0
C541 C 0.12407 0.38572 0.62818 0.0
C542 C 0.14402 0.34573 0.66075 0.0
C543 C 0.14528 0.34373 0.63224 0.0
H544 H 0.86551 0.1617 0.32473 0.0
H545 H 0.88879 0.08561 0.32102 0.0
H546 H 0.89682 0.08418 0.37081 0.0
H547 H 0.89778 0.10453 0.41558 0.0
H548 H 0.87447 0.18065 0.41886 0.0
H549 H 0.86556 0.18189 0.36923 0.0
C550 C 0.87255 0.14478 0.33472 0.0
C551 C 0.87667 0.12382 0.31894 0.0
C552 C 0.87683 0.14401 0.36343 0.0
C553 C 0.8855 0.10207 0.33248 0.0
C554 C 0.89001 0.1012 0.36103 0.0
C555 C 0.89034 0.12137 0.4055 0.0
C556 C 0.88682 0.14245 0.42113 0.0
C557 C 0.88563 0.12205 0.37675 0.0
C558 C 0.8775 0.16411 0.40752 0.0
C559 C 0.87246 0.16488 0.37905 0.0
H560 H 0.89971 0.60088 0.31595 0.0
H561 H 0.81762 0.66646 0.311 0.0
H562 H 0.82852 0.67272 0.36036 0.0
H563 H 0.8589 0.6584 0.40513 0.0
H564 H 0.9416 0.59286 0.40878 0.0
H565 H 0.93398 0.58804 0.35937 0.0
C566 C 0.88368 0.61643 0.32568 0.0
C567 C 0.85705 0.63294 0.31005 0.0
C568 C 0.89098 0.62011 0.35368 0.0
C569 C 0.83778 0.65336 0.32277 0.0
C570 C 0.84424 0.657 0.3509 0.0
C571 C 0.87616 0.64339 0.39496 0.0
C572 C 0.90063 0.62597 0.41048 0.0
C573 C 0.87073 0.64044 0.36656 0.0
C574 C 0.9224 0.60644 0.39719 0.0
C575 C 0.9178 0.60358 0.36902 0.0
H576 H 0.62263 0.3445 0.57677 0.0
H577 H 0.66007 0.4193 0.57478 0.0
H578 H 0.65351 0.4212 0.62473 0.0
H579 H 0.63729 0.40147 0.66881 0.0
H580 H 0.59889 0.32671 0.66993 0.0
H581 H 0.60501 0.32514 0.6202 0.0
C582 C 0.62988 0.36123 0.58718 0.0
C583 C 0.64224 0.38169 0.57203 0.0
C584 C 0.62523 0.36228 0.61568 0.0
C585 C 0.65072 0.40325 0.58594 0.0
C586 C 0.64676 0.40437 0.61448 0.0
C587 C 0.62967 0.3849 0.65817 0.0
C588 C 0.61766 0.36425 0.67313 0.0
C589 C 0.63377 0.38401 0.62953 0.0
C590 C 0.60831 0.34288 0.65898 0.0
C591 C 0.61198 0.34192 0.63053 0.0
H592 H 0.62026 0.90441 0.66462 0.0
H593 H 0.64044 0.82815 0.67012 0.0
H594 H 0.64928 0.82586 0.62034 0.0
H595 H 0.6519 0.84568 0.57538 0.0
H596 H 0.63154 0.92199 0.57075 0.0
H597 H 0.62167 0.92393 0.62024 0.0
C598 C 0.62678 0.88723 0.65507 0.0
C599 C 0.62985 0.8665 0.67117 0.0
C600 C 0.63146 0.88601 0.62657 0.0
C601 C 0.63803 0.84443 0.65826 0.0
C602 C 0.64296 0.84308 0.62979 0.0
C603 C 0.64485 0.8627 0.58516 0.0
C604 C 0.64254 0.88364 0.56935 0.0
C605 C 0.63964 0.86378 0.61375 0.0
C606 C 0.63373 0.90559 0.5824 0.0
C607 C 0.62813 0.90675 0.61072 0.0
H608 H 0.35352 0.60763 0.32548 0.0
H609 H 0.37038 0.68405 0.31927 0.0
H610 H 0.37598 0.68706 0.36894 0.0
H611 H 0.37685 0.6683 0.41404 0.0
H612 H 0.36078 0.59193 0.42093 0.0
H613 H 0.35363 0.58876 0.37113 0.0
C614 C 0.35865 0.62495 0.33494 0.0
C615 C 0.36164 0.64556 0.31846 0.0
C616 C 0.36164 0.62664 0.36369 0.0
C617 C 0.36793 0.66784 0.33127 0.0
C618 C 0.37108 0.66962 0.35975 0.0
C619 C 0.37146 0.65091 0.40479 0.0
C620 C 0.36934 0.63039 0.4214 0.0
C621 C 0.36792 0.64917 0.37615 0.0
C622 C 0.3625 0.60806 0.40879 0.0
C623 C 0.35857 0.60622 0.38025 0.0
H624 H 0.38656 0.15836 0.41719 0.0
H625 H 0.44445 0.08667 0.41757 0.0
H626 H 0.43416 0.08417 0.36813 0.0
H627 H 0.40423 0.10106 0.32558 0.0
H628 H 0.34715 0.17278 0.32375 0.0
H629 H 0.36127 0.1765 0.37325 0.0
C630 C 0.39783 0.14239 0.40636 0.0
C631 C 0.41598 0.12268 0.42106 0.0
C632 C 0.39104 0.14089 0.37788 0.0
C633 C 0.43011 0.10203 0.40677 0.0
C634 C 0.42401 0.10052 0.37852 0.0
C635 C 0.39439 0.11748 0.33599 0.0
C636 C 0.3737 0.13645 0.32119 0.0
C637 C 0.4034 0.11958 0.36405 0.0
C638 C 0.36258 0.15783 0.33483 0.0
C639 C 0.37085 0.15998 0.36305 0.0
H640 H 0.63941 0.85382 0.1678 0.0
H641 H 0.57494 0.92404 0.1704 0.0
H642 H 0.5838 0.92743 0.12051 0.0
H643 H 0.60828 0.9097 0.07615 0.0
H644 H 0.6744 0.8397 0.07515 0.0
H645 H 0.6672 0.83721 0.12471 0.0
C646 C 0.62674 0.86982 0.15751 0.0
C647 C 0.60575 0.88849 0.17269 0.0
C648 C 0.63288 0.87181 0.12919 0.0
C649 C 0.59078 0.90932 0.15908 0.0
C650 C 0.59605 0.9113 0.13062 0.0
C651 C 0.62184 0.89409 0.08684 0.0
C652 C 0.64161 0.87487 0.07194 0.0
C653 C 0.61709 0.89261 0.11547 0.0
C654 C 0.65873 0.85469 0.08608 0.0
C655 C 0.65447 0.85318 0.11442 0.0
H656 H 0.65157 0.35244 0.07815 0.0
H657 H 0.62674 0.42824 0.07058 0.0
H658 H 0.61978 0.43174 0.12016 0.0
H659 H 0.62097 0.41353 0.16547 0.0
H660 H 0.64595 0.33776 0.17347 0.0
H661 H 0.65303 0.33414 0.12381 0.0
C662 C 0.64426 0.3697 0.08732 0.0
C663 C 0.63959 0.39001 0.07064 0.0
C664 C 0.64072 0.37167 0.11589 0.0
C665 C 0.6306 0.41229 0.08291 0.0
C666 C 0.62666 0.41434 0.11127 0.0
C667 C 0.62819 0.39619 0.15646 0.0
C668 C 0.63289 0.37597 0.17326 0.0
C669 C 0.63188 0.39418 0.12794 0.0
C670 C 0.64217 0.35367 0.16109 0.0
C671 C 0.64609 0.35155 0.13266 0.0
H672 H 0.3572 0.09007 0.82439 0.0
H673 H 0.37728 0.16652 0.82187 0.0
H674 H 0.38234 0.16774 0.87152 0.0
H675 H 0.38029 0.14768 0.91531 0.0
H676 H 0.36147 0.07127 0.91924 0.0
H677 H 0.35631 0.06959 0.86916 0.0
C678 C 0.36304 0.10697 0.83469 0.0
C679 C 0.36672 0.12816 0.81934 0.0
C680 C 0.36573 0.10763 0.86342 0.0
C681 C 0.37407 0.14992 0.83307 0.0
C682 C 0.37693 0.15068 0.86151 0.0
C683 C 0.37481 0.13057 0.90539 0.0
C684 C 0.37106 0.10964 0.92109 0.0
C685 C 0.37246 0.12971 0.87683 0.0
C686 C 0.36433 0.08769 0.90767 0.0
C687 C 0.36153 0.08671 0.87905 0.0
H688 H 0.388 0.59027 0.82107 0.0
H689 H 0.34765 0.66418 0.81125 0.0
H690 H 0.3534 0.67007 0.86086 0.0
H691 H 0.36962 0.65403 0.90717 0.0
H692 H 0.41151 0.58013 0.91591 0.0
H693 H 0.406 0.57465 0.86658 0.0
C694 C 0.37997 0.60766 0.8297 0.0
C695 C 0.36693 0.62669 0.81237 0.0
C696 C 0.38419 0.61102 0.85811 0.0
C697 C 0.35753 0.64916 0.82406 0.0
C698 C 0.361 0.65257 0.85244 0.0
C699 C 0.3781 0.6368 0.89827 0.0
C700 C 0.39092 0.61754 0.91541 0.0
C701 C 0.37452 0.63363 0.86969 0.0
C702 C 0.40142 0.5953 0.9034 0.0
C703 C 0.39813 0.59208 0.87511 0.0
H704 H 0.9947 0.19675 0.23299 0.0
H705 H 0.86593 0.23409 0.26115 0.0
H706 H 0.9113 0.27169 0.26065 0.0
H707 H 0.98711 0.29381 0.2522 0.0
H708 H 0.1163 0.25662 0.22444 0.0
H709 H 0.07073 0.21899 0.22437 0.0
C710 C 0.97656 0.21308 0.23919 0.0
C711 C 0.92697 0.21259 0.24724 0.0
C712 C 1.00274 0.23463 0.23861 0.0
C713 C 0.90405 0.23394 0.25501 0.0
C714 C 0.92992 0.25546 0.25461 0.0
C715 C 0.00534 0.27753 0.2459 0.0
C716 C 0.05508 0.27805 0.2382 0.0
C717 C 0.97917 0.256 0.24633 0.0
C718 C 0.07806 0.25673 0.23031 0.0
C719 C 0.05207 0.23522 0.23041 0.0
H720 H 0.13263 0.99691 0.25735 0.0
H721 H 0.24507 0.94948 0.22776 0.0
H722 H 0.30636 0.98078 0.2327 0.0
H723 H 0.32862 0.02159 0.2459 0.0
H724 H 0.21662 0.06963 0.27451 0.0
H725 H 0.15505 0.03814 0.27033 0.0
C726 C 0.17035 0.99368 0.25148 0.0
C727 C 0.18424 0.97105 0.24194 0.0
C728 C 0.20583 0.01167 0.25496 0.0
C729 C 0.23347 0.96686 0.23497 0.0
C730 C 0.26866 0.98466 0.23803 0.0
C731 C 0.29095 0.02494 0.25182 0.0
C732 C 0.27727 0.04769 0.26095 0.0
C733 C 0.25546 0.00703 0.24839 0.0
C734 C 0.22805 0.05208 0.26778 0.0
C735 C 0.19275 0.03418 0.26509 0.0
H736 H 0.10939 0.98012 0.99341 0.0
H737 H 0.98986 0.93103 0.00571 0.0
H738 H 0.93112 0.96365 0.0028 0.0
H739 H 0.91303 0.00623 -0.00418 0.0
H740 H 0.03236 0.05542 0.9835 0.0
H741 H 0.09128 0.02286 0.98685 0.0
C742 C 0.07057 0.97668 -0.00411 0.0
C743 C 0.05412 0.95321 -8e-05 0.0
C744 C 0.03665 0.99554 0.99365 0.0
C745 C 1.00355 0.94897 0.00264 0.0
C746 C 0.96981 0.9676 0.00082 0.0
C747 C 0.95186 0.00973 0.99352 0.0
C748 C 0.96815 0.03318 0.98921 0.0
C749 C 0.98581 0.99093 -0.00404 0.0
C750 C 0.01875 0.03749 0.98673 0.0
C751 C 0.05259 0.0189 0.98879 0.0
H752 H 0.36267 0.22397 -0.00388 0.0
H753 H 0.2422 0.17684 0.9782 0.0
H754 H 0.18468 0.21008 0.98122 0.0
H755 H 0.16815 0.25271 0.98991 0.0
H756 H 0.28892 0.29955 0.00846 0.0
H757 H 0.34624 0.26641 0.00488 0.0
C758 C 0.32396 0.22113 0.99237 0.0
C759 C 0.30679 0.19809 0.98665 0.0
C760 C 0.29083 0.24023 -0.00511 0.0
C761 C 0.25635 0.19451 0.98245 0.0
C762 C 0.22334 0.21346 0.98439 0.0
C763 C 0.20689 0.25551 0.99359 0.0
C764 C 0.22416 0.27849 -0.00038 0.0
C765 C 0.24001 0.23637 0.991 0.0
C766 C 0.27463 0.28198 0.00387 0.0
C767 C 0.30758 0.26307 0.00165 0.0
H768 H 0.89161 0.73061 0.73873 0.0
H769 H 0.01136 0.68204 0.7528 0.0
H770 H 0.0697 0.71491 0.75062 0.0
H771 H 0.08735 0.75758 0.74382 0.0
H772 H 0.96771 0.80623 0.7298 0.0
H773 H 0.90925 0.7734 0.73226 0.0
C774 C 0.93036 0.72735 0.7418 0.0
C775 C 0.94703 0.70397 0.74614 0.0
C776 C 0.96405 0.74633 0.73992 0.0
C777 C 0.99753 0.69993 0.74955 0.0
C778 C 0.03104 0.71869 0.74811 0.0
C779 C 0.04858 0.76089 0.74088 0.0
C780 C 0.03201 0.78426 0.73639 0.0
C781 C 0.01486 0.74194 0.74291 0.0
C782 C 0.98149 0.78835 0.73315 0.0
C783 C 0.94791 0.76961 0.73474 0.0
H784 H 0.63527 0.98126 0.74514 0.0
H785 H 0.75505 0.93265 0.73125 0.0
H786 H 0.81339 0.96549 0.73348 0.0
H787 H 0.83101 0.0082 0.73985 0.0
H788 H 0.71145 0.05696 0.75349 0.0
H789 H 0.65297 0.02409 0.75153 0.0
C790 C 0.67404 0.97798 0.74216 0.0
C791 C 0.69069 0.95459 0.73782 0.0
C792 C 0.70774 0.99696 0.74403 0.0
C793 C 0.74121 0.95053 0.73451 0.0
C794 C 0.77473 0.96928 0.73597 0.0
C795 C 0.79226 0.01152 0.74287 0.0
C796 C 0.77571 0.03493 0.74708 0.0
C797 C 0.75856 0.99256 0.74106 0.0
C798 C 0.7252 0.03904 0.75039 0.0
C799 C 0.69162 0.02027 0.74906 0.0
H800 H 0.66541 0.76352 0.99147 0.0
H801 H 0.78218 0.81211 0.01176 0.0
H802 H 0.8422 0.78004 0.00729 0.0
H803 H 0.8619 0.73801 -0.00315 0.0
H804 H 0.74479 0.68976 0.97585 0.0
H805 H 0.68506 0.72176 0.98069 0.0
C806 C 0.70388 0.76692 -0.0046 0.0
C807 C 0.71926 0.79003 0.00226 0.0
C808 C 0.73843 0.74853 0.99203 0.0
C809 C 0.7694 0.79436 0.00666 0.0
C810 C 0.80383 0.77609 0.00389 0.0
C811 C 0.82343 0.73467 0.99288 0.0
C812 C 0.8079 0.71161 0.98582 0.0
C813 C 0.78891 0.75313 -0.00379 0.0
C814 C 0.75775 0.70742 0.98122 0.0
C815 C 0.72344 0.72566 0.98417 0.0
H816 H 0.34272 0.50848 0.74205 0.0
H817 H 0.22543 0.55733 0.76043 0.0
H818 H 0.166 0.52483 0.75828 0.0
H819 H 0.14681 0.48235 0.7501 0.0
H820 H 0.26436 0.43376 0.73108 0.0
H821 H 0.32364 0.46617 0.7339 0.0
C822 C 0.3043 0.51186 0.74613 0.0
C823 C 0.2886 0.53519 0.75174 0.0
C824 C 0.27002 0.49317 0.74406 0.0
C825 C 0.23848 0.53945 0.75631 0.0
C826 C 0.20437 0.52091 0.75485 0.0
C827 C 0.18526 0.47901 0.74611 0.0
C828 C 0.20103 0.45573 0.74015 0.0
C829 C 0.21955 0.49772 0.74831 0.0
C830 C 0.25119 0.45156 0.73557 0.0
C831 C 0.28526 0.47005 0.73738 0.0
H832 H 0.91423 0.51425 0.48933 0.0
H833 H 0.0317 0.56277 0.47009 0.0
H834 H 0.09128 0.53053 0.47401 0.0
H835 H 0.11066 0.48854 0.48422 0.0
H836 H 0.9932 0.44006 0.50371 0.0
H837 H 0.93351 0.47214 0.49898 0.0
C838 C 0.95273 0.51759 0.48547 0.0
C839 C 0.96847 0.54076 0.47921 0.0
C840 C 0.98711 0.49904 0.48845 0.0
C841 C 0.01866 0.54499 0.47482 0.0
C842 C 0.05285 0.52661 0.47726 0.0
C843 C 0.0721 0.48514 0.48781 0.0
C844 C 0.05648 0.46203 0.49453 0.0
C845 C 0.03767 0.50362 0.48452 0.0
C846 C 0.00622 0.45776 0.49862 0.0
C847 C 0.97195 0.47606 0.49575 0.0
H848 H 0.3739 0.74588 0.49921 0.0
H849 H 0.25332 0.69982 0.47815 0.0
H850 H 0.19622 0.73317 0.48187 0.0
H851 H 0.18008 0.77553 0.49182 0.0
H852 H 0.30053 0.82151 0.5135 0.0
H853 H 0.35762 0.78821 0.50957 0.0
C854 C 0.33529 0.74334 0.49491 0.0
C855 C 0.31793 0.72056 0.48802 0.0
C856 C 0.30232 0.76249 0.4979 0.0
C857 C 0.26758 0.71731 0.48321 0.0
C858 C 0.23482 0.73631 0.48558 0.0
C859 C 0.21865 0.7781 0.4962 0.0
C860 C 0.23592 0.80089 0.5032 0.0
C861 C 0.2516 0.75894 0.4933 0.0
C862 C 0.28624 0.80407 0.50825 0.0
C863 C 0.31904 0.78509 0.50577 0.0
H864 H 0.72751 0.55136 0.23406 0.0
H865 H 0.85851 0.51699 0.2639 0.0
H866 H 0.81593 0.47857 0.2642 0.0
H867 H 0.74224 0.45482 0.25509 0.0
H868 H 0.61145 0.48918 0.22494 0.0
H869 H 0.65372 0.52767 0.22521 0.0
C870 C 0.74674 0.53553 0.2409 0.0
C871 C 0.79615 0.53707 0.24909 0.0
C872 C 0.72231 0.51351 0.24056 0.0
C873 C 0.82048 0.51632 0.25765 0.0
C874 C 0.79621 0.49435 0.25766 0.0
C875 C 0.72297 0.47068 0.24838 0.0
C876 C 0.67375 0.4691 0.23984 0.0
C877 C 0.74731 0.49272 0.2489 0.0
C878 C 0.64935 0.48988 0.23144 0.0
C879 C 0.67344 0.51189 0.23174 0.0
H880 H 0.77755 0.31011 0.48864 0.0
H881 H 0.65343 0.27031 0.51881 0.0
H882 H 0.70252 0.23383 0.51871 0.0
H883 H 0.77964 0.21327 0.50931 0.0
H884 H 0.90413 0.25263 0.47891 0.0
H885 H 0.85548 0.28941 0.47953 0.0
C886 C 0.76126 0.2935 0.49542 0.0
C887 C 0.7118 0.29297 0.50385 0.0
C888 C 0.78955 0.27255 0.49496 0.0
C889 C 0.69133 0.27125 0.51235 0.0
C890 C 0.71935 0.25038 0.51218 0.0
C891 C 0.7963 0.22985 0.50269 0.0
C892 C 0.84555 0.23016 0.49394 0.0
C893 C 0.7683 0.25082 0.50333 0.0
C894 C 0.86634 0.25186 0.48559 0.0
C895 C 0.83856 0.27288 0.48606 0.0
H896 H 0.48704 0.19809 0.73683 0.0
H897 H 0.35887 0.23784 0.76115 0.0
H898 H 0.40763 0.27452 0.76255 0.0
H899 H 0.48648 0.29514 0.75661 0.0
H900 H 0.61434 0.25517 0.73216 0.0
H901 H 0.5655 0.21861 0.73078 0.0
C902 C 0.46964 0.21473 0.74258 0.0
C903 C 0.41927 0.21518 0.74899 0.0
C904 C 0.49777 0.23569 0.74309 0.0
C905 C 0.3975 0.23696 0.75624 0.0
C906 C 0.42537 0.25793 0.75695 0.0
C907 C 0.50372 0.27846 0.75084 0.0
C908 C 0.55411 0.27792 0.74441 0.0
C909 C 0.47548 0.2575 0.7503 0.0
C910 C 0.57573 0.25612 0.73711 0.0
C911 C 0.54782 0.2352 0.73641 0.0
H912 H 0.5399 0.05032 0.50453 0.0
H913 H 0.41369 0.01174 0.47496 0.0
H914 H 0.4619 0.97496 0.47372 0.0
H915 H 0.53903 0.95382 0.48172 0.0
H916 H 0.66552 0.99212 0.51134 0.0
H917 H 0.61766 0.02912 0.5121 0.0
C918 C 0.52289 0.0339 0.49765 0.0
C919 C 0.47312 0.03381 0.48978 0.0
C920 C 0.55074 0.01282 0.49723 0.0
C921 C 0.45182 0.01235 0.48103 0.0
C922 C 0.47936 0.99131 0.48042 0.0
C923 C 0.5563 0.97022 0.48845 0.0
C924 C 0.60589 0.97016 0.4966 0.0
C925 C 0.52869 0.99133 0.48864 0.0
C926 C 0.62749 0.99163 0.50508 0.0
C927 C 0.60013 0.01278 0.50544 0.0
H928 H 0.47165 0.81165 0.24934 0.0
H929 H 0.60114 0.77485 0.2213 0.0
H930 H 0.55553 0.73733 0.21998 0.0
H931 H 0.47988 0.7149 0.22811 0.0
H932 H 0.35027 0.75153 0.25623 0.0
H933 H 0.39528 0.78931 0.25649 0.0
C934 C 0.48987 0.79547 0.2427 0.0
C935 C 0.53982 0.79607 0.23539 0.0
C936 C 0.46359 0.77394 0.24233 0.0
C937 C 0.56278 0.77491 0.22694 0.0
C938 C 0.53677 0.75344 0.22632 0.0
C939 C 0.46141 0.73112 0.23442 0.0
C940 C 0.4118 0.73037 0.24235 0.0
C941 C 0.48736 0.75272 0.23427 0.0
C942 C 0.38843 0.7516 0.25018 0.0
C943 C 0.41412 0.77319 0.25024 0.0
H944 H 0.52474 0.45613 0.98406 0.0
H945 H 0.6533 0.49625 0.00688 0.0
H946 H 0.60436 0.53293 0.00802 0.0
H947 H 0.52497 0.55338 0.00249 0.0
H948 H 0.39703 0.5128 0.97953 0.0
H949 H 0.44618 0.47639 0.97827 0.0
C950 C 0.54225 0.47286 0.98937 0.0
C951 C 0.59273 0.47341 -0.00453 0.0
C952 C 0.51402 0.49376 0.9898 0.0
C953 C 0.61459 0.4953 0.00219 0.0
C954 C 0.5866 0.51626 0.00277 0.0
C955 C 0.50781 0.53659 -0.00291 0.0
C956 C 0.45727 0.53584 0.99106 0.0
C957 C 0.5363 0.51569 -0.00344 0.0
C958 C 0.43574 0.51391 0.9842 0.0
C959 C 0.46383 0.49308 0.98354 0.0
H960 H 0.12657 0.41212 0.39886 0.0
H961 H 0.13677 0.34319 0.43769 0.0
H962 H 0.13103 0.32371 0.39277 0.0
H963 H 0.12325 0.32671 0.34266 0.0
H964 H 0.10962 0.39601 0.30486 0.0
H965 H 0.11641 0.4151 0.34957 0.0
C966 C 0.12778 0.39282 0.39752 0.0
C967 C 0.13244 0.37902 0.42133 0.0
C968 C 0.12367 0.38193 0.37196 0.0
C969 C 0.13324 0.35407 0.41946 0.0
C970 C 0.12998 0.343 0.39388 0.0
C971 C 0.12174 0.34599 0.34427 0.0
C972 C 0.11624 0.36 0.32062 0.0
C973 C 0.12515 0.3568 0.37002 0.0
C974 C 0.11388 0.38491 0.32284 0.0
C975 C 0.11785 0.39582 0.34834 0.0
H976 H 0.12324 0.92632 0.34031 0.0
H977 H 0.12254 0.85521 0.30636 0.0
H978 H 0.14317 0.83879 0.35139 0.0
H979 H 0.16067 0.84484 0.39989 0.0
H980 H 0.16298 0.91595 0.4338 0.0
H981 H 0.14326 0.93245 0.38867 0.0
C982 C 0.12728 0.9072 0.34279 0.0
C983 C 0.12105 0.89188 0.32025 0.0
C984 C 0.13993 0.89805 0.36844 0.0
C985 C 0.12703 0.86724 0.32356 0.0
C986 C 0.13894 0.85791 0.34919 0.0
C987 C 0.1571 0.86399 0.39742 0.0
C988 C 0.16289 0.87922 0.42005 0.0
C989 C 0.14553 0.87319 0.37167 0.0
C990 C 0.15869 0.90394 0.41658 0.0
C991 C 0.14715 0.91332 0.39089 0.0
H992 H 0.11657 0.82731 0.83788 0.0
H993 H 0.11398 0.89847 0.80421 0.0
H994 H 0.12277 0.91518 0.85032 0.0
H995 H 0.13052 0.90934 0.89979 0.0
H996 H 0.12986 0.8382 0.93354 0.0
H997 H 0.1233 0.82148 0.88734 0.0
C998 C 0.118 0.84649 0.84061 0.0
C999 C 0.11478 0.86171 0.81782 0.0
C1000 C 0.12259 0.85585 0.867 0.0
C1001 C 0.11628 0.88648 0.82156 0.0
C1002 C 0.12143 0.89599 0.84783 0.0
C1003 C 0.12923 0.89016 0.89703 0.0
C1004 C 0.13084 0.87494 0.91988 0.0
C1005 C 0.1246 0.88081 0.87063 0.0
C1006 C 0.12864 0.85018 0.91615 0.0
C1007 C 0.12487 0.84067 0.88982 0.0
H1008 H 0.13331 0.41108 0.84248 0.0
H1009 H 0.1279 0.34082 0.80636 0.0
H1010 H 0.13504 0.32281 0.85171 0.0
H1011 H 0.14355 0.32709 0.90093 0.0
H1012 H 0.15164 0.39699 0.9377 0.0
H1013 H 0.14312 0.41535 0.89232 0.0
C1014 C 0.13343 0.39183 0.84461 0.0
C1015 C 0.12992 0.3772 0.82132 0.0
C1016 C 0.13834 0.38167 0.87061 0.0
C1017 C 0.13061 0.35234 0.82412 0.0
C1018 C 0.13471 0.34207 0.84996 0.0
C1019 C 0.1434 0.34637 0.89908 0.0
C1020 C 0.148 0.36076 0.92245 0.0
C1021 C 0.13877 0.35659 0.87323 0.0
C1022 C 0.14825 0.38565 0.91983 0.0
C1023 C 0.14322 0.39608 0.894 0.0
H1024 H 0.8731 0.66353 0.64352 0.0
H1025 H 0.87161 0.59144 0.67458 0.0
H1026 H 0.87648 0.57598 0.62782 0.0
H1027 H 0.88234 0.58306 0.57885 0.0
H1028 H 0.88709 0.65494 0.54733 0.0
H1029 H 0.87999 0.67064 0.59409 0.0
C1030 C 0.87356 0.64443 0.64002 0.0
C1031 C 0.87184 0.62855 0.66225 0.0
C1032 C 0.8772 0.63577 0.61327 0.0
C1033 C 0.87297 0.6039 0.65764 0.0
C1034 C 0.87575 0.5951 0.63101 0.0
C1035 C 0.88169 0.60219 0.58215 0.0
C1036 C 0.88504 0.61792 0.55986 0.0
C1037 C 0.8781 0.6109 0.60879 0.0
C1038 C 0.88466 0.6426 0.56434 0.0
C1039 C 0.88048 0.6515 0.59096 0.0
H1040 H 0.88704 0.14241 0.67167 0.0
H1041 H 0.83201 0.07478 0.6432 0.0
H1042 H 0.84584 0.08665 0.59569 0.0
H1043 H 0.87554 0.11601 0.56208 0.0
H1044 H 0.9354 0.18266 0.59101 0.0
H1045 H 0.91859 0.17133 0.63817 0.0
C1046 C 0.87758 0.13048 0.655 0.0
C1047 C 0.8582 0.10792 0.66078 0.0
C1048 C 0.8872 0.13709 0.62774 0.0
C1049 C 0.84688 0.09234 0.63911 0.0
C1050 C 0.85495 0.09905 0.61196 0.0
C1051 C 0.88512 0.12795 0.57873 0.0
C1052 C 0.90652 0.15012 0.57297 0.0
C1053 C 0.87562 0.12129 0.606 0.0
C1054 C 0.91884 0.16543 0.5948 0.0
C1055 C 0.90905 0.15905 0.62186 0.0
H1056 H 0.8648 0.16323 0.14714 0.0
H1057 H 0.8748 0.09295 0.18276 0.0
H1058 H 0.88337 0.07556 0.13703 0.0
H1059 H 0.88763 0.08032 0.0874 0.0
H1060 H 0.88022 0.15042 0.05123 0.0
H1061 H 0.8714 0.16809 0.09704 0.0
C1062 C 0.86869 0.14409 0.14489 0.0
C1063 C 0.86889 0.12932 0.16827 0.0
C1064 C 0.87429 0.1343 0.11859 0.0
C1065 C 0.87451 0.10463 0.16508 0.0
C1066 C 0.87941 0.09471 0.13897 0.0
C1067 C 0.8841 0.09951 0.08946 0.0
C1068 C 0.88434 0.1141 0.06598 0.0
C1069 C 0.87933 0.10939 0.11566 0.0
C1070 C 0.88025 0.13888 0.06902 0.0
C1071 C 0.87504 0.14892 0.09516 0.0
H1072 H 0.86844 0.66473 0.08239 0.0
H1073 H 0.88305 0.59419 0.04802 0.0
H1074 H 0.87305 0.57673 0.0938 0.0
H1075 H 0.86178 0.58202 0.14338 0.0
H1076 H 0.84453 0.65287 0.17675 0.0
H1077 H 0.85362 0.66992 0.13106 0.0
C1078 C 0.86966 0.64552 0.0849 0.0
C1079 C 0.87698 0.63067 0.06215 0.0
C1080 C 0.86321 0.6358 0.11089 0.0
C1081 C 0.87759 0.60585 0.06545 0.0
C1082 C 0.87189 0.59594 0.09151 0.0
C1083 C 0.85987 0.60119 0.14059 0.0
C1084 C 0.85295 0.61625 0.16326 0.0
C1085 C 0.86487 0.61081 0.11434 0.0
C1086 C 0.84997 0.64099 0.15952 0.0
C1087 C 0.85529 0.65073 0.13348 0.0
H1088 H 0.64651 0.41754 0.89789 0.0
H1089 H 0.64605 0.34972 0.93961 0.0
H1090 H 0.63554 0.3291 0.89576 0.0
H1091 H 0.62691 0.33061 0.84584 0.0
H1092 H 0.62372 0.39861 0.80447 0.0
H1093 H 0.63492 0.41913 0.84824 0.0
C1094 C 0.64434 0.39823 0.89735 0.0
C1095 C 0.64741 0.38505 0.92173 0.0
C1096 C 0.63741 0.38666 0.8723 0.0
C1097 C 0.64382 0.36013 0.92096 0.0
C1098 C 0.63782 0.34839 0.89597 0.0
C1099 C 0.62862 0.34993 0.84643 0.0
C1100 C 0.62484 0.36315 0.82209 0.0
C1101 C 0.63458 0.36151 0.87156 0.0
C1102 C 0.62654 0.38812 0.82303 0.0
C1103 C 0.63309 0.39982 0.84798 0.0
H1104 H 0.63194 0.83173 0.90274 0.0
H1105 H 0.63177 0.90339 0.93507 0.0
H1106 H 0.62251 0.91931 0.88856 0.0
H1107 H 0.61503 0.91253 0.83912 0.0
H1108 H 0.61828 0.84078 0.80706 0.0
H1109 H 0.62545 0.82498 0.8536 0.0
C1110 C 0.62979 0.85085 0.89966 0.0
C1111 C 0.63236 0.86645 0.92215 0.0
C1112 C 0.62489 0.85972 0.87312 0.0
C1113 C 0.62997 0.89113 0.91794 0.0
C1114 C 0.62456 0.90017 0.89145 0.0
C1115 C 0.61701 0.89342 0.84234 0.0
C1116 C 0.61596 0.87775 0.81987 0.0
C1117 C 0.62196 0.88459 0.86896 0.0
C1118 C 0.61905 0.85309 0.82416 0.0
C1119 C 0.62318 0.8441 0.85068 0.0
H1120 H 0.65632 0.92069 0.40078 0.0
H1121 H 0.65548 0.84938 0.43395 0.0
H1122 H 0.63385 0.83337 0.38882 0.0
H1123 H 0.61545 0.83991 0.34036 0.0
H1124 H 0.61278 0.91141 0.30769 0.0
H1125 H 0.63481 0.92735 0.35272 0.0
C1126 C 0.65184 0.90162 0.39806 0.0
C1127 C 0.65797 0.8861 0.42038 0.0
C1128 C 0.63825 0.89274 0.37242 0.0
C1129 C 0.65113 0.86153 0.41687 0.0
C1130 C 0.63866 0.85245 0.39119 0.0
C1131 C 0.61949 0.859 0.34313 0.0
C1132 C 0.61288 0.87452 0.32084 0.0
C1133 C 0.63201 0.86792 0.36891 0.0
C1134 C 0.61765 0.89918 0.32464 0.0
C1135 C 0.63051 0.90825 0.35028 0.0
H1136 H 0.63996 0.33901 0.40238 0.0
H1137 H 0.6373 0.40983 0.43698 0.0
H1138 H 0.62817 0.42687 0.39103 0.0
H1139 H 0.62012 0.42129 0.34134 0.0
H1140 H 0.6259 0.35038 0.30705 0.0
H1141 H 0.63439 0.3335 0.35296 0.0
C1142 C 0.63738 0.35819 0.39988 0.0
C1143 C 0.63899 0.37321 0.42286 0.0
C1144 C 0.63251 0.36772 0.37363 0.0
C1145 C 0.6362 0.39799 0.41944 0.0
C1146 C 0.63082 0.40768 0.39327 0.0
C1147 C 0.62301 0.40213 0.34398 0.0
C1148 C 0.62209 0.387 0.32106 0.0
C1149 C 0.62869 0.39267 0.37028 0.0
C1150 C 0.62651 0.36229 0.32453 0.0
C1151 C 0.63136 0.35267 0.35069 0.0
H1152 H 0.36157 0.67518 0.14434 0.0
H1153 H 0.36663 0.6067 0.18457 0.0
H1154 H 0.37759 0.58702 0.14019 0.0
H1155 H 0.38467 0.58936 0.09027 0.0
H1156 H 0.38261 0.65779 0.04992 0.0
H1157 H 0.37191 0.67762 0.09434 0.0
C1158 C 0.36495 0.65593 0.14339 0.0
C1159 C 0.36295 0.64233 0.16762 0.0
C1160 C 0.37197 0.64485 0.11792 0.0
C1161 C 0.36801 0.61748 0.16617 0.0
C1162 C 0.37425 0.60627 0.14084 0.0
C1163 C 0.38197 0.60864 0.09116 0.0
C1164 C 0.38415 0.62215 0.06689 0.0
C1165 C 0.37617 0.61979 0.11664 0.0
C1166 C 0.38114 0.64707 0.06836 0.0
C1167 C 0.37484 0.65835 0.09371 0.0
H1168 H 0.35494 0.08246 0.1563 0.0
H1169 H 0.36196 0.15566 0.18349 0.0
H1170 H 0.37309 0.1688 0.13604 0.0
H1171 H 0.3815 0.15925 0.08748 0.0
H1172 H 0.3724 0.08615 0.06012 0.0
H1173 H 0.36181 0.07297 0.10762 0.0
C1174 C 0.35886 0.10132 0.15187 0.0
C1175 C 0.35784 0.11814 0.17322 0.0
C1176 C 0.36514 0.10862 0.12477 0.0
C1177 C 0.36253 0.14247 0.16727 0.0
C1178 C 0.36907 0.14993 0.14025 0.0
C1179 C 0.37746 0.14039 0.09188 0.0
C1180 C 0.37795 0.1236 0.07049 0.0
C1181 C 0.37067 0.13312 0.11894 0.0
C1182 C 0.37217 0.09931 0.07637 0.0
C1183 C 0.36606 0.09183 0.10342 0.0
H1184 H 0.36858 0.16532 0.64923 0.0
H1185 H 0.36391 0.09508 0.68523 0.0
H1186 H 0.3782 0.07717 0.64017 0.0
H1187 H 0.39194 0.08172 0.59097 0.0
H1188 H 0.40016 0.15199 0.55524 0.0
H1189 H 0.38494 0.1699 0.6002 0.0
C1190 C 0.37041 0.14608 0.64716 0.0
C1191 C 0.36487 0.13143 0.67028 0.0
C1192 C 0.37957 0.13606 0.62147 0.0
C1193 C 0.36803 0.1066 0.66757 0.0
C1194 C 0.37621 0.09641 0.6419 0.0
C1195 C 0.39044 0.10096 0.59303 0.0
C1196 C 0.39684 0.11559 0.56997 0.0
C1197 C 0.38209 0.111 0.61879 0.0
C1198 C 0.39539 0.14045 0.57283 0.0
C1199 C 0.38651 0.15065 0.59843 0.0
H1200 H 0.38709 0.64153 0.67127 0.0
H1201 H 0.34986 0.56976 0.64742 0.0
H1202 H 0.35588 0.58058 0.59914 0.0
H1203 H 0.3727 0.61041 0.56344 0.0
H1204 H 0.41402 0.68169 0.5875 0.0
H1205 H 0.40596 0.67108 0.63559 0.0
C1206 C 0.37991 0.6284 0.65544 0.0
C1207 C 0.3678 0.60501 0.66278 0.0
C1208 C 0.38463 0.63457 0.62766 0.0
C1209 C 0.3593 0.58795 0.64217 0.0
C1210 C 0.36279 0.59408 0.61456 0.0
C1211 C 0.38008 0.62354 0.57924 0.0
C1212 C 0.39375 0.64675 0.57187 0.0
C1213 C 0.37573 0.61731 0.60702 0.0
C1214 C 0.40341 0.66362 0.59257 0.0
C1215 C 0.39867 0.65763 0.62016 0.0
H1216 H 0.2841 0.40035 0.25905 0.0
H1217 H 0.28176 0.32336 0.26027 0.0
H1218 H 0.37136 0.32268 0.26023 0.0
H1219 H 0.44992 0.34393 0.25952 0.0
H1220 H 0.45184 0.42091 0.25693 0.0
H1221 H 0.36239 0.42153 0.2578 0.0
C1222 C 0.30302 0.38335 0.25947 0.0
C1223 C 0.27604 0.3619 0.25983 0.0
C1224 C 0.35439 0.3831 0.25911 0.0
C1225 C 0.30145 0.34012 0.26 0.0
C1226 C 0.3527 0.33973 0.25999 0.0
C1227 C 0.43091 0.3609 0.25925 0.0
C1228 C 0.45779 0.38239 0.25827 0.0
C1229 C 0.37949 0.36112 0.25951 0.0
C1230 C 0.43227 0.40413 0.25764 0.0
C1231 C 0.38109 0.40449 0.25819 0.0
H1232 H 0.77458 0.91568 0.26009 0.0
H1233 H 0.76742 0.83876 0.25692 0.0
H1234 H 0.85677 0.83675 0.25704 0.0
H1235 H 0.93622 0.85661 0.25763 0.0
H1236 H 0.94435 0.93351 0.25949 0.0
H1237 H 0.85473 0.93568 0.26029 0.0
C1238 C 0.79243 0.89841 0.25955 0.0
C1239 C 0.76408 0.87735 0.25861 0.0
C1240 C 0.84384 0.89739 0.25935 0.0
C1241 C 0.78811 0.85523 0.25763 0.0
C1242 C 0.83924 0.85407 0.25772 0.0
C1243 C 0.91866 0.87394 0.25836 0.0
C1244 C 0.94726 0.89492 0.25866 0.0
C1245 C 0.86737 0.87503 0.25854 0.0
C1246 C 0.92344 0.91711 0.25926 0.0
C1247 C 0.87219 0.91833 0.25974 0.0
H1248 H 0.30591 0.8397 0.98633 0.0
H1249 H 0.29416 0.91652 0.98574 0.0
H1250 H 0.38349 0.91973 0.98593 0.0
H1251 H 0.46419 0.90086 0.9861 0.0
H1252 H 0.47644 0.82408 0.98761 0.0
H1253 H 0.38697 0.82078 0.98726 0.0
C1254 C 0.32269 0.85722 0.98615 0.0
C1255 C 0.29304 0.8779 0.98586 0.0
C1256 C 0.37402 0.85891 0.98645 0.0
C1257 C 0.31581 0.90034 0.98595 0.0
C1258 C 0.36693 0.90217 0.98603 0.0
C1259 C 0.44756 0.88331 0.98625 0.0
C1260 C 0.47732 0.86269 0.9867 0.0
C1261 C 0.39629 0.88158 0.98623 0.0
C1262 C 0.45467 0.84022 0.98724 0.0
C1263 C 0.40349 0.83834 0.98701 0.0
H1264 H 0.98763 0.39908 0.98289 0.0
H1265 H 0.98385 0.32216 0.98743 0.0
H1266 H 0.8941 0.32335 0.98727 0.0
H1267 H 0.81736 0.34627 0.9863 0.0
H1268 H 0.8221 0.42323 0.98282 0.0
H1269 H 0.91158 0.42185 0.98212 0.0
C1270 C 0.9675 0.38243 0.98373 0.0
C1271 C 0.99286 0.36047 0.98505 0.0
C1272 C 0.91616 0.38329 0.98388 0.0
C1273 C 0.96558 0.33927 0.98637 0.0
C1274 C 0.91424 0.33997 0.98628 0.0
C1275 C 0.83777 0.36283 0.98528 0.0
C1276 C 0.81269 0.3849 0.98453 0.0
C1277 C 0.88922 0.3619 0.9851 0.0
C1278 C 0.84015 0.40604 0.98345 0.0
C1279 C 0.89136 0.40525 0.98302 0.0
H1280 H 0.70005 0.58876 0.72878 0.0
H1281 H 0.70716 0.6657 0.72778 0.0
H1282 H 0.6176 0.66762 0.7278 0.0
H1283 H 0.538 0.64754 0.72759 0.0
H1284 H 0.53059 0.57063 0.72964 0.0
H1285 H 0.62023 0.56866 0.72975 0.0
C1286 C 0.68221 0.60603 0.72847 0.0
C1287 C 0.71059 0.62712 0.72805 0.0
C1288 C 0.6308 0.60697 0.72867 0.0
C1289 C 0.68647 0.64923 0.72807 0.0
C1290 C 0.63524 0.65031 0.72804 0.0
C1291 C 0.55577 0.63025 0.72795 0.0
C1292 C 0.52731 0.60919 0.72835 0.0
C1293 C 0.60713 0.6293 0.72822 0.0
C1294 C 0.55135 0.58708 0.72926 0.0
C1295 C 0.60262 0.58597 0.72929 0.0
H1296 H 0.02278 0.14898 0.72603 0.0
H1297 H 0.01863 0.07203 0.72907 0.0
H1298 H 0.10833 0.07106 0.73114 0.0
H1299 H 0.18734 0.09214 0.73223 0.0
H1300 H 0.19033 0.16916 0.73036 0.0
H1301 H 0.10097 0.16993 0.72772 0.0
C1302 C 0.04122 0.13188 0.72699 0.0
C1303 C 0.0137 0.11054 0.72718 0.0
C1304 C 0.09249 0.1315 0.72846 0.0
C1305 C 0.03867 0.08869 0.72882 0.0
C1306 C 0.08997 0.08816 0.73001 0.0
C1307 C 0.16861 0.10916 0.73116 0.0
C1308 C 0.19582 0.13062 0.73138 0.0
C1309 C 0.11719 0.10947 0.72985 0.0
C1310 C 0.17058 0.15241 0.73026 0.0
C1311 C 0.11944 0.15285 0.7287 0.0
H1312 H 0.55537 0.08398 0.00639 0.0
H1313 H 0.54404 0.16075 0.00225 0.0
H1314 H 0.63333 0.16383 0.00144 0.0
H1315 H 0.71383 0.14489 0.00168 0.0
H1316 H 0.72583 0.06813 0.00471 0.0
H1317 H 0.63638 0.06495 0.00617 0.0
C1318 C 0.57225 0.10146 0.00542 0.0
C1319 C 0.54274 0.12216 0.00451 0.0
C1320 C 0.62357 0.10308 0.00473 0.0
C1321 C 0.5656 0.14455 0.00297 0.0
C1322 C 0.61669 0.14631 0.00253 0.0
C1323 C 0.69716 0.12737 0.00279 0.0
C1324 C 0.72683 0.10673 0.00324 0.0
C1325 C 0.64593 0.1257 0.00339 0.0
C1326 C 0.70412 0.08429 0.00435 0.0
C1327 C 0.65295 0.08248 0.00521 0.0
H1328 H 0.21813 0.65565 0.00033 0.0
H1329 H 0.22509 0.57885 0.006 0.0
H1330 H 0.13564 0.57696 0.00644 0.0
H1331 H 0.05623 0.5969 0.00458 0.0
H1332 H 0.04865 0.67362 -0.00229 0.0
H1333 H 0.13823 0.67568 -0.00155 0.0
C1334 C 0.20026 0.63844 0.00179 0.0
C1335 C 0.22858 0.61737 0.00319 0.0
C1336 C 0.14885 0.63748 0.00178 0.0
C1337 C 0.20445 0.59531 0.00484 0.0
C1338 C 0.15327 0.59423 0.00512 0.0
C1339 C 0.07387 0.61418 0.00336 0.0
C1340 C 0.04537 0.63514 0.00115 0.0
C1341 C 0.1252 0.61519 0.00352 0.0
C1342 C 0.0694 0.65723 -0.00058 0.0
C1343 C 0.12065 0.6584 -0.00016 0.0
H1344 H 0.44336 0.83902 0.75379 0.0
H1345 H 0.45085 0.91597 0.75329 0.0
H1346 H 0.36133 0.91798 0.75327 0.0
H1347 H 0.28169 0.89803 0.75369 0.0
H1348 H 0.27379 0.8211 0.75324 0.0
H1349 H 0.36342 0.81901 0.75331 0.0
C1350 C 0.42562 0.85632 0.75376 0.0
C1351 C 0.45411 0.87738 0.75372 0.0
C1352 C 0.37421 0.85732 0.75357 0.0
C1353 C 0.4301 0.89951 0.75334 0.0
C1354 C 0.37888 0.90065 0.75337 0.0
C1355 C 0.29932 0.88071 0.75372 0.0
C1356 C 0.27072 0.85968 0.75368 0.0
C1357 C 0.35067 0.87968 0.75356 0.0
C1358 C 0.29464 0.83752 0.75332 0.0
C1359 C 0.34591 0.83635 0.75339 0.0
H1360 H 0.79112 0.39858 0.75807 0.0
H1361 H 0.78565 0.32166 0.76171 0.0
H1362 H 0.87516 0.3202 0.76239 0.0
H1363 H 0.95424 0.34057 0.76169 0.0
H1364 H 0.96034 0.41743 0.75685 0.0
H1365 H 0.87068 0.41902 0.75693 0.0
C1366 C 0.80932 0.38143 0.75913 0.0
C1367 C 0.78138 0.3602 0.75996 0.0
C1368 C 0.86077 0.38072 0.75928 0.0
C1369 C 0.80597 0.33823 0.76103 0.0
C1370 C 0.85719 0.33741 0.76146 0.0
C1371 C 0.93624 0.35778 0.76078 0.0
C1372 C 0.96437 0.37892 0.75942 0.0
C1373 C 0.88487 0.35853 0.76057 0.0
C1374 C 0.93989 0.40091 0.75795 0.0
C1375 C 0.88859 0.40181 0.758 0.0
H1376 H 0.30962 0.34914 0.48554 0.0
H1377 H 0.29827 0.42593 0.48276 0.0
H1378 H 0.38777 0.42898 0.48234 0.0
H1379 H 0.46869 0.40982 0.48317 0.0
H1380 H 0.47929 0.33303 0.48709 0.0
H1381 H 0.38999 0.33009 0.48662 0.0
C1382 C 0.32644 0.36664 0.48472 0.0
C1383 C 0.29691 0.38733 0.48406 0.0
C1384 C 0.37771 0.36824 0.48472 0.0
C1385 C 0.31984 0.40974 0.48327 0.0
C1386 C 0.37104 0.41147 0.48302 0.0
C1387 C 0.45165 0.39237 0.48381 0.0
C1388 C 0.48098 0.37162 0.48508 0.0
C1389 C 0.40028 0.39083 0.48378 0.0
C1390 C 0.45789 0.34927 0.48613 0.0
C1391 C 0.40678 0.34758 0.48584 0.0
H1392 H 0.99306 0.85659 0.50726 0.0
H1393 H 0.00717 0.904 0.43815 0.0
H1394 H 0.91881 0.91018 0.43739 0.0
H1395 H 0.83702 0.90329 0.45735 0.0
H1396 H 0.82216 0.85503 0.52544 0.0
H1397 H 0.91074 0.84842 0.52606 0.0
C1398 C 0.9766 0.86783 0.4917 0.0
C1399 C 0.00667 0.87974 0.47277 0.0
C1400 C 0.92556 0.8717 0.49166 0.0
C1401 C 0.98482 0.8946 0.45298 0.0
C1402 C 0.93428 0.89832 0.45264 0.0
C1403 C 0.85349 0.89167 0.47255 0.0
C1404 C 0.82354 0.88007 0.49169 0.0
C1405 C 0.90432 0.88736 0.4722 0.0
C1406 C 0.84487 0.86444 0.51079 0.0
C1407 C 0.8954 0.86049 0.511 0.0
H1408 H 0.5329 0.1544 0.23021 0.0
H1409 H 0.51841 0.07788 0.23586 0.0
H1410 H 0.60786 0.07394 0.23588 0.0
H1411 H 0.68985 0.09242 0.23484 0.0
H1412 H 0.70267 0.16913 0.23073 0.0
H1413 H 0.61367 0.17271 0.22959 0.0
C1414 C 0.54901 0.13675 0.23126 0.0
C1415 C 0.51869 0.11642 0.23283 0.0
C1416 C 0.60015 0.13468 0.23164 0.0
C1417 C 0.54068 0.09382 0.23457 0.0
C1418 C 0.59184 0.09158 0.23459 0.0
C1419 C 0.67326 0.10995 0.2336 0.0
C1420 C 0.70316 0.13051 0.2328 0.0
C1421 C 0.6219 0.11191 0.23322 0.0
C1422 C 0.68079 0.15303 0.23144 0.0
C1423 C 0.62984 0.15509 0.23074 0.0
H1424 H 0.02023 0.66054 0.2263 0.0
H1425 H 0.01952 0.58366 0.22167 0.0
H1426 H 0.10911 0.58337 0.22222 0.0
H1427 H 0.1871 0.60485 0.22481 0.0
H1428 H 0.18772 0.68171 0.23093 0.0
H1429 H 0.09829 0.68203 0.22898 0.0
C1430 C 0.03956 0.64368 0.22522 0.0
C1431 C 0.01304 0.62211 0.22383 0.0
C1432 C 0.09097 0.64365 0.22591 0.0
C1433 C 0.03888 0.60048 0.22281 0.0
C1434 C 0.09012 0.60032 0.22309 0.0
C1435 C 0.16788 0.62175 0.22562 0.0
C1436 C 0.19442 0.64327 0.22797 0.0
C1437 C 0.11648 0.62179 0.22477 0.0
C1438 C 0.16849 0.66489 0.22912 0.0
C1439 C 0.1173 0.66509 0.22801 0.0
H1440 H 0.72312 0.65692 0.49296 0.0
H1441 H 0.72563 0.57995 0.49552 0.0
H1442 H 0.6359 0.57942 0.49752 0.0
H1443 H 0.55748 0.60089 0.49964 0.0
H1444 H 0.55569 0.67788 0.49657 0.0
H1445 H 0.64512 0.67824 0.4937 0.0
C1446 C 0.7043 0.63992 0.49401 0.0
C1447 C 0.73141 0.61843 0.49434 0.0
C1448 C 0.65296 0.63979 0.49512 0.0
C1449 C 0.70594 0.5967 0.49527 0.0
C1450 C 0.65462 0.59643 0.49649 0.0
C1451 C 0.57647 0.61783 0.4984 0.0
C1452 C 0.5496 0.63941 0.49854 0.0
C1453 C 0.62785 0.61788 0.49663 0.0
C1454 C 0.57516 0.66106 0.49655 0.0
C1455 C 0.62634 0.66125 0.49494 0.0
H1456 H 0.07239 0.10412 0.50245 0.0
H1457 H 0.07645 0.18112 0.5016 0.0
H1458 H 0.16601 0.17998 0.50169 0.0
H1459 H 0.24251 0.15729 0.50277 0.0
H1460 H 0.23897 0.08029 0.50296 0.0
H1461 H 0.14926 0.08135 0.50231 0.0
C1462 C 0.09268 0.12074 0.50231 0.0
C1463 C 0.0674 0.14275 0.50219 0.0
C1464 C 0.14414 0.11993 0.50227 0.0
C1465 C 0.09468 0.16397 0.5017 0.0
C1466 C 0.14593 0.16331 0.50181 0.0
C1467 C 0.22235 0.14063 0.50275 0.0
C1468 C 0.24777 0.11867 0.50314 0.0
C1469 C 0.17096 0.1414 0.50224 0.0
C1470 C 0.22061 0.09741 0.50271 0.0
C1471 C 0.16929 0.09803 0.50237 0.0
loop_
_geom_bond_atom_site_label_1
_geom_bond_atom_site_label_2
_geom_bond_distance
_geom_bond_site_symmetry_2
_ccdc_geom_bond_type
Co0 O1 2.216 . S
Co0 O2 2.091 . S
Co0 O4 2.004 . S
Co0 O10 2.021 . S
Co0 O12 2.137 . S
Co0 O13 2.244 . S
O1 Co0 2.216 . S
O1 C8 1.247 . S
O2 Co0 2.091 . S
O2 C8 1.261 . S
C3 O12 1.247 . S
C3 O13 1.272 . S
O4 Co0 2.004 . S
O4 C9 1.259 . S
Co5 O6 2.061 . S
Co5 O11 2.052 . S
Co5 O13 2.135 . S
O6 Co5 2.061 . S
O6 C9 1.235 . S
C7 O10 1.238 . S
C7 O11 1.241 . S
C8 O1 1.247 . S
C8 O2 1.261 . S
C9 O4 1.259 . S
C9 O6 1.235 . S
O10 Co0 2.021 . S
O10 C7 1.238 . S
O11 Co5 2.052 . S
O11 C7 1.241 . S
O12 Co0 2.137 . S
O12 C3 1.247 . S
O13 Co0 2.244 . S
O13 C3 1.272 . S
O13 Co5 2.135 . S
Co14 O15 2.216 . S
Co14 O16 2.091 . S
Co14 O18 2.004 . S
Co14 O24 2.021 . S
Co14 O26 2.137 . S
Co14 O27 2.244 . S
O15 Co14 2.216 . S
O15 C22 1.247 . S
O16 Co14 2.091 . S
O16 C22 1.261 . S
C17 O26 1.247 . S
C17 O27 1.272 . S
O18 Co14 2.004 . S
O18 C23 1.259 . S
Co19 O20 2.061 . S
Co19 O25 2.052 . S
Co19 O27 2.135 . S
O20 Co19 2.061 . S
O20 C23 1.235 . S
C21 O24 1.238 . S
C21 O25 1.241 . S
C22 O15 1.247 . S
C22 O16 1.261 . S
C23 O18 1.259 . S
C23 O20 1.235 . S
O24 Co14 2.021 . S
O24 C21 1.238 . S
O25 Co19 2.052 . S
O25 C21 1.241 . S
O26 Co14 2.137 . S
O26 C17 1.247 . S
O27 Co14 2.244 . S
O27 C17 1.272 . S
O27 Co19 2.135 . S
Co28 O29 2.216 . S
Co28 O30 2.091 . S
Co28 O32 2.004 . S
Co28 O38 2.021 1_556 S
Co28 O40 2.137 . S
Co28 O41 2.244 . S
O29 Co28 2.216 . S
O29 C36 1.247 . S
O30 Co28 2.091 . S
O30 C36 1.261 . S
C31 O40 1.247 . S
C31 O41 1.272 . S
O32 Co28 2.004 . S
O32 C37 1.263 . S
Co33 O34 2.061 . S
Co33 O39 2.052 . S
Co33 O41 2.135 1_554 S
O34 Co33 2.061 . S
O34 C37 1.232 1_554 S
C35 O38 1.238 . S
C35 O39 1.241 . S
C36 O29 1.247 . S
C36 O30 1.261 . S
C37 O32 1.263 . S
C37 O34 1.232 1_556 S
O38 Co28 2.021 1_554 S
O38 C35 1.238 . S
O39 Co33 2.052 . S
O39 C35 1.241 . S
O40 Co28 2.137 . S
O40 C31 1.247 . S
O41 Co28 2.244 . S
O41 C31 1.272 . S
O41 Co33 2.135 1_556 S
Co42 O43 2.216 . S
Co42 O44 2.091 . S
Co42 O46 2.004 . S
Co42 O52 2.021 1_556 S
Co42 O54 2.137 . S
Co42 O55 2.244 . S
O43 Co42 2.216 . S
O43 C50 1.247 . S
O44 Co42 2.091 . S
O44 C50 1.261 . S
C45 O54 1.247 . S
C45 O55 1.272 . S
O46 Co42 2.004 . S
O46 C51 1.263 . S
Co47 O48 2.061 . S
Co47 O53 2.052 . S
Co47 O55 2.135 1_554 S
O48 Co47 2.061 . S
O48 C51 1.232 1_554 S
C49 O52 1.238 . S
C49 O53 1.241 . S
C50 O43 1.247 . S
C50 O44 1.261 . S
C51 O46 1.263 . S
C51 O48 1.232 1_556 S
O52 Co42 2.021 1_554 S
O52 C49 1.238 . S
O53 Co47 2.052 . S
O53 C49 1.241 . S
O54 Co42 2.137 . S
O54 C45 1.247 . S
O55 Co42 2.244 . S
O55 C45 1.272 . S
O55 Co47 2.135 1_556 S
Co56 O57 2.216 . S
Co56 O58 2.091 . S
Co56 O60 2.004 . S
Co56 O66 2.021 . S
Co56 O68 2.137 . S
Co56 O69 2.244 . S
O57 Co56 2.216 . S
O57 C64 1.247 . S
O58 Co56 2.091 . S
O58 C64 1.261 . S
C59 O68 1.247 . S
C59 O69 1.272 . S
O60 Co56 2.004 . S
O60 C65 1.259 . S
Co61 O62 2.061 . S
Co61 O67 2.052 . S
Co61 O69 2.135 . S
O62 Co61 2.061 . S
O62 C65 1.235 . S
C63 O66 1.238 . S
C63 O67 1.241 . S
C64 O57 1.247 . S
C64 O58 1.261 . S
C65 O60 1.259 . S
C65 O62 1.235 . S
O66 Co56 2.021 . S
O66 C63 1.238 . S
O67 Co61 2.052 . S
O67 C63 1.241 . S
O68 Co56 2.137 . S
O68 C59 1.247 . S
O69 Co56 2.244 . S
O69 C59 1.272 . S
O69 Co61 2.135 . S
Co70 O71 2.216 . S
Co70 O72 2.091 . S
Co70 O74 2.004 . S
Co70 O80 2.021 . S
Co70 O82 2.137 . S
Co70 O83 2.244 . S
O71 Co70 2.216 . S
O71 C78 1.247 . S
O72 Co70 2.091 . S
O72 C78 1.261 . S
C73 O82 1.247 . S
C73 O83 1.272 . S
O74 Co70 2.004 . S
O74 C79 1.259 . S
Co75 O76 2.061 . S
Co75 O81 2.052 . S
Co75 O83 2.135 . S
O76 Co75 2.061 . S
O76 C79 1.235 . S
C77 O80 1.238 . S
C77 O81 1.241 . S
C78 O71 1.247 . S
C78 O72 1.261 . S
C79 O74 1.259 . S
C79 O76 1.235 . S
O80 Co70 2.021 . S
O80 C77 1.238 . S
O81 Co75 2.052 . S
O81 C77 1.241 . S
O82 Co70 2.137 . S
O82 C73 1.247 . S
O83 Co70 2.244 . S
O83 C73 1.272 . S
O83 Co75 2.135 . S
Co84 O85 2.216 . S
Co84 O86 2.091 . S
Co84 O88 2.004 . S
Co84 O94 2.021 1_554 S
Co84 O96 2.137 . S
Co84 O97 2.244 . S
O85 Co84 2.216 . S
O85 C92 1.247 . S
O86 Co84 2.091 . S
O86 C92 1.261 . S
C87 O96 1.247 . S
C87 O97 1.272 . S
O88 Co84 2.004 . S
O88 C93 1.263 . S
Co89 O90 2.061 . S
Co89 O95 2.052 . S
Co89 O97 2.135 1_556 S
O90 Co89 2.061 . S
O90 C93 1.232 1_556 S
C91 O94 1.238 . S
C91 O95 1.241 . S
C92 O85 1.247 . S
C92 O86 1.261 . S
C93 O88 1.263 . S
C93 O90 1.232 1_554 S
O94 Co84 2.021 1_556 S
O94 C91 1.238 . S
O95 Co89 2.052 . S
O95 C91 1.241 . S
O96 Co84 2.137 . S
O96 C87 1.247 . S
O97 Co84 2.244 . S
O97 C87 1.272 . S
O97 Co89 2.135 1_554 S
Co98 O99 2.216 . S
Co98 O100 2.091 . S
Co98 O102 2.004 . S
Co98 O108 2.021 1_554 S
Co98 O110 2.137 . S
Co98 O111 2.244 . S
O99 Co98 2.216 . S
O99 C106 1.247 . S
O100 Co98 2.091 . S
O100 C106 1.261 . S
C101 O110 1.247 . S
C101 O111 1.272 . S
O102 Co98 2.004 . S
O102 C107 1.263 . S
Co103 O104 2.061 . S
Co103 O109 2.052 . S
Co103 O111 2.135 1_556 S
O104 Co103 2.061 . S
O104 C107 1.232 1_556 S
C105 O108 1.238 . S
C105 O109 1.241 . S
C106 O99 1.247 . S
C106 O100 1.261 . S
C107 O102 1.263 . S
C107 O104 1.232 1_554 S
O108 Co98 2.021 1_556 S
O108 C105 1.238 . S
O109 Co103 2.052 . S
O109 C105 1.241 . S
O110 Co98 2.137 . S
O110 C101 1.247 . S
O111 Co98 2.244 . S
O111 C101 1.272 . S
O111 Co103 2.135 1_554 S
Co112 O113 2.216 . S
Co112 O114 2.091 . S
Co112 O116 2.004 . S
Co112 O122 2.021 . S
Co112 O124 2.137 . S
Co112 O125 2.244 . S
O113 Co112 2.216 . S
O113 C120 1.247 . S
O114 Co112 2.091 . S
O114 C120 1.261 . S
C115 O124 1.247 . S
C115 O125 1.272 . S
O116 Co112 2.004 . S
O116 C121 1.259 . S
Co117 O118 2.061 . S
Co117 O123 2.052 . S
Co117 O125 2.135 . S
O118 Co117 2.061 . S
O118 C121 1.235 . S
C119 O122 1.238 . S
C119 O123 1.241 . S
C120 O113 1.247 . S
C120 O114 1.261 . S
C121 O116 1.259 . S
C121 O118 1.235 . S
O122 Co112 2.021 . S
O122 C119 1.238 . S
O123 Co117 2.052 . S
O123 C119 1.241 . S
O124 Co112 2.137 . S
O124 C115 1.247 . S
O125 Co112 2.244 . S
O125 C115 1.272 . S
O125 Co117 2.135 . S
Co126 O127 2.216 . S
Co126 O128 2.091 . S
Co126 O130 2.004 . S
Co126 O136 2.021 . S
Co126 O138 2.137 . S
Co126 O139 2.244 . S
O127 Co126 2.216 . S
O127 C134 1.247 . S
O128 Co126 2.091 . S
O128 C134 1.261 . S
C129 O138 1.247 . S
C129 O139 1.272 . S
O130 Co126 2.004 . S
O130 C135 1.259 . S
Co131 O132 2.061 . S
Co131 O137 2.052 . S
Co131 O139 2.135 . S
O132 Co131 2.061 . S
O132 C135 1.235 . S
C133 O136 1.238 . S
C133 O137 1.241 . S
C134 O127 1.247 . S
C134 O128 1.261 . S
C135 O130 1.259 . S
C135 O132 1.235 . S
O136 Co126 2.021 . S
O136 C133 1.238 . S
O137 Co131 2.052 . S
O137 C133 1.241 . S
O138 Co126 2.137 . S
O138 C129 1.247 . S
O139 Co126 2.244 . S
O139 C129 1.272 . S
O139 Co131 2.135 . S
Co140 O141 2.216 . S
Co140 O142 2.091 . S
Co140 O144 2.004 . S
Co140 O150 2.021 . S
Co140 O152 2.137 . S
Co140 O153 2.244 . S
O141 Co140 2.216 . S
O141 C148 1.247 . S
O142 Co140 2.091 . S
O142 C148 1.261 . S
C143 O152 1.247 . S
C143 O153 1.272 . S
O144 Co140 2.004 . S
O144 C149 1.259 . S
Co145 O146 2.061 . S
Co145 O151 2.052 . S
Co145 O153 2.135 . S
O146 Co145 2.061 . S
O146 C149 1.235 . S
C147 O150 1.238 . S
C147 O151 1.241 . S
C148 O141 1.247 . S
C148 O142 1.261 . S
C149 O144 1.259 . S
C149 O146 1.235 . S
O150 Co140 2.021 . S
O150 C147 1.238 . S
O151 Co145 2.052 . S
O151 C147 1.241 . S
O152 Co140 2.137 . S
O152 C143 1.247 . S
O153 Co140 2.244 . S
O153 C143 1.272 . S
O153 Co145 2.135 . S
Co154 O155 2.216 . S
Co154 O156 2.091 . S
Co154 O158 2.004 . S
Co154 O164 2.021 . S
Co154 O166 2.137 . S
Co154 O167 2.244 . S
O155 Co154 2.216 . S
O155 C162 1.247 . S
O156 Co154 2.091 . S
O156 C162 1.261 . S
C157 O166 1.247 . S
C157 O167 1.272 . S
O158 Co154 2.004 . S
O158 C163 1.259 . S
Co159 O160 2.061 . S
Co159 O165 2.052 . S
Co159 O167 2.135 . S
O160 Co159 2.061 . S
O160 C163 1.235 . S
C161 O164 1.238 . S
C161 O165 1.241 . S
C162 O155 1.247 . S
C162 O156 1.261 . S
C163 O158 1.259 . S
C163 O160 1.235 . S
O164 Co154 2.021 . S
O164 C161 1.238 . S
O165 Co159 2.052 . S
O165 C161 1.241 . S
O166 Co154 2.137 . S
O166 C157 1.247 . S
O167 Co154 2.244 . S
O167 C157 1.272 . S
O167 Co159 2.135 . S
Co168 O169 2.216 . S
Co168 O170 2.091 . S
Co168 O172 2.004 . S
Co168 O178 2.021 . S
Co168 O180 2.137 . S
Co168 O181 2.244 . S
O169 Co168 2.216 . S
O169 C176 1.247 . S
O170 Co168 2.091 . S
O170 C176 1.261 . S
C171 O180 1.247 . S
C171 O181 1.272 . S
O172 Co168 2.004 . S
O172 C177 1.259 . S
Co173 O174 2.061 . S
Co173 O179 2.052 . S
Co173 O181 2.135 . S
O174 Co173 2.061 . S
O174 C177 1.235 . S
C175 O178 1.238 . S
C175 O179 1.241 . S
C176 O169 1.247 . S
C176 O170 1.261 . S
C177 O172 1.259 . S
C177 O174 1.235 . S
O178 Co168 2.021 . S
O178 C175 1.238 . S
O179 Co173 2.052 . S
O179 C175 1.241 . S
O180 Co168 2.137 . S
O180 C171 1.247 . S
O181 Co168 2.244 . S
O181 C171 1.272 . S
O181 Co173 2.135 . S
Co182 O183 2.216 . S
Co182 O184 2.091 . S
Co182 O186 2.004 . S
Co182 O192 2.021 . S
Co182 O194 2.137 . S
Co182 O195 2.244 . S
O183 Co182 2.216 . S
O183 C190 1.247 . S
O184 Co182 2.091 . S
O184 C190 1.261 . S
C185 O194 1.247 . S
C185 O195 1.272 . S
O186 Co182 2.004 . S
O186 C191 1.259 . S
Co187 O188 2.061 . S
Co187 O193 2.052 . S
Co187 O195 2.135 . S
O188 Co187 2.061 . S
O188 C191 1.235 . S
C189 O192 1.238 . S
C189 O193 1.241 . S
C190 O183 1.247 . S
C190 O184 1.261 . S
C191 O186 1.259 . S
C191 O188 1.235 . S
O192 Co182 2.021 . S
O192 C189 1.238 . S
O193 Co187 2.052 . S
O193 C189 1.241 . S
O194 Co182 2.137 . S
O194 C185 1.247 . S
O195 Co182 2.244 . S
O195 C185 1.272 . S
O195 Co187 2.135 . S
Co196 O197 2.216 . S
Co196 O198 2.091 . S
Co196 O200 2.004 . S
Co196 O206 2.021 . S
Co196 O208 2.137 . S
Co196 O209 2.244 . S
O197 Co196 2.216 . S
O197 C204 1.247 . S
O198 Co196 2.091 . S
O198 C204 1.261 . S
C199 O208 1.247 . S
C199 O209 1.272 . S
O200 Co196 2.004 . S
O200 C205 1.259 . S
Co201 O202 2.061 . S
Co201 O207 2.052 . S
Co201 O209 2.135 . S
O202 Co201 2.061 . S
O202 C205 1.235 . S
C203 O206 1.238 . S
C203 O207 1.241 . S
C204 O197 1.247 . S
C204 O198 1.261 . S
C205 O200 1.259 . S
C205 O202 1.235 . S
O206 Co196 2.021 . S
O206 C203 1.238 . S
O207 Co201 2.052 . S
O207 C203 1.241 . S
O208 Co196 2.137 . S
O208 C199 1.247 . S
O209 Co196 2.244 . S
O209 C199 1.272 . S
O209 Co201 2.135 . S
Co210 O211 2.216 . S
Co210 O212 2.091 . S
Co210 O214 2.004 . S
Co210 O220 2.021 . S
Co210 O222 2.137 . S
Co210 O223 2.244 . S
O211 Co210 2.216 . S
O211 C218 1.247 . S
O212 Co210 2.091 . S
O212 C218 1.261 . S
C213 O222 1.247 . S
C213 O223 1.272 . S
O214 Co210 2.004 . S
O214 C219 1.259 . S
Co215 O216 2.061 . S
Co215 O221 2.052 . S
Co215 O223 2.135 . S
O216 Co215 2.061 . S
O216 C219 1.235 . S
C217 O220 1.238 . S
C217 O221 1.241 . S
C218 O211 1.247 . S
C218 O212 1.261 . S
C219 O214 1.259 . S
C219 O216 1.235 . S
O220 Co210 2.021 . S
O220 C217 1.238 . S
O221 Co215 2.052 . S
O221 C217 1.241 . S
O222 Co210 2.137 . S
O222 C213 1.247 . S
O223 Co210 2.244 . S
O223 C213 1.272 . S
O223 Co215 2.135 . S
Co224 O225 2.216 . S
Co224 O226 2.091 . S
Co224 O228 2.004 . S
Co224 O234 2.021 . S
Co224 O236 2.137 . S
Co224 O237 2.244 . S
O225 Co224 2.216 . S
O225 C232 1.247 . S
O226 Co224 2.091 . S
O226 C232 1.261 . S
C227 O236 1.247 . S
C227 O237 1.272 . S
O228 Co224 2.004 . S
O228 C233 1.259 . S
Co229 O230 2.061 . S
Co229 O235 2.052 . S
Co229 O237 2.135 . S
O230 Co229 2.061 . S
O230 C233 1.235 . S
C231 O234 1.238 . S
C231 O235 1.241 . S
C232 O225 1.247 . S
C232 O226 1.261 . S
C233 O228 1.259 . S
C233 O230 1.235 . S
O234 Co224 2.021 . S
O234 C231 1.238 . S
O235 Co229 2.052 . S
O235 C231 1.241 . S
O236 Co224 2.137 . S
O236 C227 1.247 . S
O237 Co224 2.244 . S
O237 C227 1.272 . S
O237 Co229 2.135 . S
Co238 O239 2.216 . S
Co238 O240 2.091 . S
Co238 O242 2.004 . S
Co238 O248 2.021 . S
Co238 O250 2.137 . S
Co238 O251 2.244 . S
O239 Co238 2.216 . S
O239 C246 1.247 . S
O240 Co238 2.091 . S
O240 C246 1.261 . S
C241 O250 1.247 . S
C241 O251 1.272 . S
O242 Co238 2.004 . S
O242 C247 1.259 . S
Co243 O244 2.061 . S
Co243 O249 2.052 . S
Co243 O251 2.135 . S
O244 Co243 2.061 . S
O244 C247 1.235 . S
C245 O248 1.238 . S
C245 O249 1.241 . S
C246 O239 1.247 . S
C246 O240 1.261 . S
C247 O242 1.259 . S
C247 O244 1.235 . S
O248 Co238 2.021 . S
O248 C245 1.238 . S
O249 Co243 2.052 . S
O249 C245 1.241 . S
O250 Co238 2.137 . S
O250 C241 1.247 . S
O251 Co238 2.244 . S
O251 C241 1.272 . S
O251 Co243 2.135 . S
Co252 O253 2.216 . S
Co252 O254 2.091 . S
Co252 O256 2.004 . S
Co252 O262 2.021 . S
Co252 O264 2.137 . S
Co252 O265 2.244 . S
O253 Co252 2.216 . S
O253 C260 1.247 . S
O254 Co252 2.091 . S
O254 C260 1.261 . S
C255 O264 1.247 . S
C255 O265 1.272 . S
O256 Co252 2.004 . S
O256 C261 1.259 . S
Co257 O258 2.061 . S
Co257 O263 2.052 . S
Co257 O265 2.135 . S
O258 Co257 2.061 . S
O258 C261 1.235 . S
C259 O262 1.238 . S
C259 O263 1.241 . S
C260 O253 1.247 . S
C260 O254 1.261 . S
C261 O256 1.259 . S
C261 O258 1.235 . S
O262 Co252 2.021 . S
O262 C259 1.238 . S
O263 Co257 2.052 . S
O263 C259 1.241 . S
O264 Co252 2.137 . S
O264 C255 1.247 . S
O265 Co252 2.244 . S
O265 C255 1.272 . S
O265 Co257 2.135 . S
Co266 O267 2.216 . S
Co266 O268 2.091 . S
Co266 O270 2.004 . S
Co266 O276 2.021 . S
Co266 O278 2.137 . S
Co266 O279 2.244 . S
O267 Co266 2.216 . S
O267 C274 1.247 . S
O268 Co266 2.091 . S
O268 C274 1.261 . S
C269 O278 1.247 . S
C269 O279 1.272 . S
O270 Co266 2.004 . S
O270 C275 1.259 . S
Co271 O272 2.061 . S
Co271 O277 2.052 . S
Co271 O279 2.135 . S
O272 Co271 2.061 . S
O272 C275 1.235 . S
C273 O276 1.238 . S
C273 O277 1.241 . S
C274 O267 1.247 . S
C274 O268 1.261 . S
C275 O270 1.259 . S
C275 O272 1.235 . S
O276 Co266 2.021 . S
O276 C273 1.238 . S
O277 Co271 2.052 . S
O277 C273 1.241 . S
O278 Co266 2.137 . S
O278 C269 1.247 . S
O279 Co266 2.244 . S
O279 C269 1.272 . S
O279 Co271 2.135 . S
Co280 O281 2.216 . S
Co280 O282 2.091 . S
Co280 O284 2.004 . S
Co280 O290 2.021 . S
Co280 O292 2.137 . S
Co280 O293 2.244 . S
O281 Co280 2.216 . S
O281 C288 1.247 . S
O282 Co280 2.091 . S
O282 C288 1.261 . S
C283 O292 1.247 . S
C283 O293 1.272 . S
O284 Co280 2.004 . S
O284 C289 1.259 . S
Co285 O286 2.061 . S
Co285 O291 2.052 . S
Co285 O293 2.135 . S
O286 Co285 2.061 . S
O286 C289 1.235 . S
C287 O290 1.238 . S
C287 O291 1.241 . S
C288 O281 1.247 . S
C288 O282 1.261 . S
C289 O284 1.259 . S
C289 O286 1.235 . S
O290 Co280 2.021 . S
O290 C287 1.238 . S
O291 Co285 2.052 . S
O291 C287 1.241 . S
O292 Co280 2.137 . S
O292 C283 1.247 . S
O293 Co280 2.244 . S
O293 C283 1.272 . S
O293 Co285 2.135 . S
Co294 O295 2.216 . S
Co294 O296 2.091 . S
Co294 O298 2.004 . S
Co294 O304 2.021 . S
Co294 O306 2.137 . S
Co294 O307 2.244 . S
O295 Co294 2.216 . S
O295 C302 1.247 . S
O296 Co294 2.091 . S
O296 C302 1.261 . S
C297 O306 1.247 . S
C297 O307 1.272 . S
O298 Co294 2.004 . S
O298 C303 1.259 . S
Co299 O300 2.061 . S
Co299 O305 2.052 . S
Co299 O307 2.135 . S
O300 Co299 2.061 . S
O300 C303 1.235 . S
C301 O304 1.238 . S
C301 O305 1.241 . S
C302 O295 1.247 . S
C302 O296 1.261 . S
C303 O298 1.259 . S
C303 O300 1.235 . S
O304 Co294 2.021 . S
O304 C301 1.238 . S
O305 Co299 2.052 . S
O305 C301 1.241 . S
O306 Co294 2.137 . S
O306 C297 1.247 . S
O307 Co294 2.244 . S
O307 C297 1.272 . S
O307 Co299 2.135 . S
Co308 O309 2.216 . S
Co308 O310 2.091 . S
Co308 O312 2.004 . S
Co308 O318 2.021 . S
Co308 O320 2.137 . S
Co308 O321 2.244 . S
O309 Co308 2.216 . S
O309 C316 1.247 . S
O310 Co308 2.091 . S
O310 C316 1.261 . S
C311 O320 1.247 . S
C311 O321 1.272 . S
O312 Co308 2.004 . S
O312 C317 1.259 . S
Co313 O314 2.061 . S
Co313 O319 2.052 . S
Co313 O321 2.135 . S
O314 Co313 2.061 . S
O314 C317 1.235 . S
C315 O318 1.238 . S
C315 O319 1.241 . S
C316 O309 1.247 . S
C316 O310 1.261 . S
C317 O312 1.259 . S
C317 O314 1.235 . S
O318 Co308 2.021 . S
O318 C315 1.238 . S
O319 Co313 2.052 . S
O319 C315 1.241 . S
O320 Co308 2.137 . S
O320 C311 1.247 . S
O321 Co308 2.244 . S
O321 C311 1.272 . S
O321 Co313 2.135 . S
Co322 O323 2.216 . S
Co322 O324 2.091 . S
Co322 O326 2.004 . S
Co322 O332 2.021 . S
Co322 O334 2.137 . S
Co322 O335 2.244 . S
O323 Co322 2.216 . S
O323 C330 1.247 . S
O324 Co322 2.091 . S
O324 C330 1.261 . S
C325 O334 1.247 . S
C325 O335 1.272 . S
O326 Co322 2.004 . S
O326 C331 1.259 . S
Co327 O328 2.061 . S
Co327 O333 2.052 . S
Co327 O335 2.135 . S
O328 Co327 2.061 . S
O328 C331 1.235 . S
C329 O332 1.238 . S
C329 O333 1.241 . S
C330 O323 1.247 . S
C330 O324 1.261 . S
C331 O326 1.259 . S
C331 O328 1.235 . S
O332 Co322 2.021 . S
O332 C329 1.238 . S
O333 Co327 2.052 . S
O333 C329 1.241 . S
O334 Co322 2.137 . S
O334 C325 1.247 . S
O335 Co322 2.244 . S
O335 C325 1.272 . S
O335 Co327 2.135 . S
Co336 O337 2.216 . S
Co336 O338 2.091 . S
Co336 O340 2.004 . S
Co336 O346 2.021 . S
Co336 O348 2.137 . S
Co336 O349 2.244 . S
O337 Co336 2.216 . S
O337 C344 1.247 . S
O338 Co336 2.091 . S
O338 C344 1.261 . S
C339 O348 1.247 . S
C339 O349 1.272 . S
O340 Co336 2.004 . S
O340 C345 1.259 . S
Co341 O342 2.061 . S
Co341 O347 2.052 . S
Co341 O349 2.135 . S
O342 Co341 2.061 . S
O342 C345 1.235 . S
C343 O346 1.238 . S
C343 O347 1.241 . S
C344 O337 1.247 . S
C344 O338 1.261 . S
C345 O340 1.259 . S
C345 O342 1.235 . S
O346 Co336 2.021 . S
O346 C343 1.238 . S
O347 Co341 2.052 . S
O347 C343 1.241 . S
O348 Co336 2.137 . S
O348 C339 1.247 . S
O349 Co336 2.244 . S
O349 C339 1.272 . S
O349 Co341 2.135 . S
Co350 O351 2.216 . S
Co350 O352 2.091 . S
Co350 O354 2.004 . S
Co350 O360 2.021 . S
Co350 O362 2.137 . S
Co350 O363 2.244 . S
O351 Co350 2.216 . S
O351 C358 1.247 . S
O352 Co350 2.091 . S
O352 C358 1.261 . S
C353 O362 1.247 . S
C353 O363 1.272 . S
O354 Co350 2.004 . S
O354 C359 1.259 . S
Co355 O356 2.061 . S
Co355 O361 2.052 . S
Co355 O363 2.135 . S
O356 Co355 2.061 . S
O356 C359 1.235 . S
C357 O360 1.238 . S
C357 O361 1.241 . S
C358 O351 1.247 . S
C358 O352 1.261 . S
C359 O354 1.259 . S
C359 O356 1.235 . S
O360 Co350 2.021 . S
O360 C357 1.238 . S
O361 Co355 2.052 . S
O361 C357 1.241 . S
O362 Co350 2.137 . S
O362 C353 1.247 . S
O363 Co350 2.244 . S
O363 C353 1.272 . S
O363 Co355 2.135 . S
Co364 O365 2.216 . S
Co364 O366 2.091 . S
Co364 O368 2.004 . S
Co364 O374 2.021 1_556 S
Co364 O376 2.137 . S
Co364 O377 2.244 . S
O365 Co364 2.216 . S
O365 C372 1.247 . S
O366 Co364 2.091 . S
O366 C372 1.261 . S
C367 O376 1.247 . S
C367 O377 1.272 . S
O368 Co364 2.004 . S
O368 C373 1.263 . S
Co369 O370 2.061 . S
Co369 O375 2.052 . S
Co369 O377 2.135 1_554 S
O370 Co369 2.061 . S
O370 C373 1.232 1_554 S
C371 O374 1.238 . S
C371 O375 1.241 . S
C372 O365 1.247 . S
C372 O366 1.261 . S
C373 O368 1.263 . S
C373 O370 1.232 1_556 S
O374 Co364 2.021 1_554 S
O374 C371 1.238 . S
O375 Co369 2.052 . S
O375 C371 1.241 . S
O376 Co364 2.137 . S
O376 C367 1.247 . S
O377 Co364 2.244 . S
O377 C367 1.272 . S
O377 Co369 2.135 1_556 S
Co378 O379 2.216 . S
Co378 O380 2.091 . S
Co378 O382 2.004 . S
Co378 O388 2.021 1_556 S
Co378 O390 2.137 . S
Co378 O391 2.244 . S
O379 Co378 2.216 . S
O379 C386 1.247 . S
O380 Co378 2.091 . S
O380 C386 1.261 . S
C381 O390 1.247 . S
C381 O391 1.272 . S
O382 Co378 2.004 . S
O382 C387 1.263 . S
Co383 O384 2.061 . S
Co383 O389 2.052 . S
Co383 O391 2.135 1_554 S
O384 Co383 2.061 . S
O384 C387 1.232 1_554 S
C385 O388 1.238 . S
C385 O389 1.241 . S
C386 O379 1.247 . S
C386 O380 1.261 . S
C387 O382 1.263 . S
C387 O384 1.232 1_556 S
O388 Co378 2.021 1_554 S
O388 C385 1.238 . S
O389 Co383 2.052 . S
O389 C385 1.241 . S
O390 Co378 2.137 . S
O390 C381 1.247 . S
O391 Co378 2.244 . S
O391 C381 1.272 . S
O391 Co383 2.135 1_556 S
Co392 O393 2.216 . S
Co392 O394 2.091 . S
Co392 O396 2.004 . S
Co392 O402 2.021 . S
Co392 O404 2.137 . S
Co392 O405 2.244 . S
O393 Co392 2.216 . S
O393 C400 1.247 . S
O394 Co392 2.091 . S
O394 C400 1.261 . S
C395 O404 1.247 . S
C395 O405 1.272 . S
O396 Co392 2.004 . S
O396 C401 1.259 . S
Co397 O398 2.061 . S
Co397 O403 2.052 . S
Co397 O405 2.135 . S
O398 Co397 2.061 . S
O398 C401 1.235 . S
C399 O402 1.238 . S
C399 O403 1.241 . S
C400 O393 1.247 . S
C400 O394 1.261 . S
C401 O396 1.259 . S
C401 O398 1.235 . S
O402 Co392 2.021 . S
O402 C399 1.238 . S
O403 Co397 2.052 . S
O403 C399 1.241 . S
O404 Co392 2.137 . S
O404 C395 1.247 . S
O405 Co392 2.244 . S
O405 C395 1.272 . S
O405 Co397 2.135 . S
Co406 O407 2.216 . S
Co406 O408 2.091 . S
Co406 O410 2.004 . S
Co406 O416 2.021 . S
Co406 O418 2.137 . S
Co406 O419 2.244 . S
O407 Co406 2.216 . S
O407 C414 1.247 . S
O408 Co406 2.091 . S
O408 C414 1.261 . S
C409 O418 1.247 . S
C409 O419 1.272 . S
O410 Co406 2.004 . S
O410 C415 1.259 . S
Co411 O412 2.061 . S
Co411 O417 2.052 . S
Co411 O419 2.135 . S
O412 Co411 2.061 . S
O412 C415 1.235 . S
C413 O416 1.238 . S
C413 O417 1.241 . S
C414 O407 1.247 . S
C414 O408 1.261 . S
C415 O410 1.259 . S
C415 O412 1.235 . S
O416 Co406 2.021 . S
O416 C413 1.238 . S
O417 Co411 2.052 . S
O417 C413 1.241 . S
O418 Co406 2.137 . S
O418 C409 1.247 . S
O419 Co406 2.244 . S
O419 C409 1.272 . S
O419 Co411 2.135 . S
Co420 O421 2.216 . S
Co420 O422 2.091 . S
Co420 O424 2.004 . S
Co420 O430 2.021 1_554 S
Co420 O432 2.137 . S
Co420 O433 2.244 . S
O421 Co420 2.216 . S
O421 C428 1.247 . S
O422 Co420 2.091 . S
O422 C428 1.261 . S
C423 O432 1.247 . S
C423 O433 1.272 . S
O424 Co420 2.004 . S
O424 C429 1.263 . S
Co425 O426 2.061 . S
Co425 O431 2.052 . S
Co425 O433 2.135 1_556 S
O426 Co425 2.061 . S
O426 C429 1.232 1_556 S
C427 O430 1.238 . S
C427 O431 1.241 . S
C428 O421 1.247 . S
C428 O422 1.261 . S
C429 O424 1.263 . S
C429 O426 1.232 1_554 S
O430 Co420 2.021 1_556 S
O430 C427 1.238 . S
O431 Co425 2.052 . S
O431 C427 1.241 . S
O432 Co420 2.137 . S
O432 C423 1.247 . S
O433 Co420 2.244 . S
O433 C423 1.272 . S
O433 Co425 2.135 1_554 S
Co434 O435 2.216 . S
Co434 O436 2.091 . S
Co434 O438 2.004 . S
Co434 O444 2.021 1_554 S
Co434 O446 2.137 . S
Co434 O447 2.244 . S
O435 Co434 2.216 . S
O435 C442 1.247 . S
O436 Co434 2.091 . S
O436 C442 1.261 . S
C437 O446 1.247 . S
C437 O447 1.272 . S
O438 Co434 2.004 . S
O438 C443 1.263 . S
Co439 O440 2.061 . S
Co439 O445 2.052 . S
Co439 O447 2.135 1_556 S
O440 Co439 2.061 . S
O440 C443 1.232 1_556 S
C441 O444 1.238 . S
C441 O445 1.241 . S
C442 O435 1.247 . S
C442 O436 1.261 . S
C443 O438 1.263 . S
C443 O440 1.232 1_554 S
O444 Co434 2.021 1_556 S
O444 C441 1.238 . S
O445 Co439 2.052 . S
O445 C441 1.241 . S
O446 Co434 2.137 . S
O446 C437 1.247 . S
O447 Co434 2.244 . S
O447 C437 1.272 . S
O447 Co439 2.135 1_554 S
H448 C454 0.930 . S
H449 C457 0.930 . S
H450 C458 0.930 . S
H451 C459 0.930 . S
H452 C462 0.930 . S
H453 C463 0.930 . S
C454 H448 0.930 . S
C454 C455 1.355 . S
C454 C456 1.415 . S
C455 C454 1.355 . S
C455 C457 1.419 . S
C456 C454 1.415 . S
C456 C461 1.425 . S
C456 C463 1.409 . S
C457 H449 0.930 . S
C457 C455 1.419 . S
C457 C458 1.362 . S
C458 H450 0.930 . S
C458 C457 1.362 . S
C458 C461 1.409 . S
C459 H451 0.930 . S
C459 C460 1.355 . S
C459 C461 1.415 . S
C460 C459 1.355 . S
C460 C462 1.419 . S
C461 C456 1.425 . S
C461 C458 1.409 . S
C461 C459 1.415 . S
C462 H452 0.930 . S
C462 C460 1.419 . S
C462 C463 1.362 . S
C463 H453 0.930 . S
C463 C456 1.409 . S
C463 C462 1.362 . S
H464 C470 0.930 . S
H465 C473 0.930 . S
H466 C474 0.930 . S
H467 C475 0.930 . S
H468 C478 0.930 . S
H469 C479 0.930 . S
C470 H464 0.930 . S
C470 C471 1.355 . S
C470 C472 1.415 . S
C471 C470 1.355 . S
C471 C473 1.419 . S
C472 C470 1.415 . S
C472 C477 1.425 . S
C472 C479 1.409 . S
C473 H465 0.930 . S
C473 C471 1.419 . S
C473 C474 1.362 . S
C474 H466 0.930 . S
C474 C473 1.362 . S
C474 C477 1.409 . S
C475 H467 0.930 . S
C475 C476 1.355 . S
C475 C477 1.415 . S
C476 C475 1.355 . S
C476 C478 1.419 . S
C477 C472 1.425 . S
C477 C474 1.409 . S
C477 C475 1.415 . S
C478 H468 0.930 . S
C478 C476 1.419 . S
C478 C479 1.362 . S
C479 H469 0.930 . S
C479 C472 1.409 . S
C479 C478 1.362 . S
H480 C486 0.930 . S
H481 C489 0.930 . S
H482 C490 0.930 . S
H483 C491 0.930 . S
H484 C494 0.930 . S
H485 C495 0.930 . S
C486 H480 0.930 . S
C486 C487 1.355 . S
C486 C488 1.415 . S
C487 C486 1.355 . S
C487 C489 1.419 . S
C488 C486 1.415 . S
C488 C493 1.425 . S
C488 C495 1.409 . S
C489 H481 0.930 . S
C489 C487 1.419 . S
C489 C490 1.362 . S
C490 H482 0.930 . S
C490 C489 1.362 . S
C490 C493 1.409 . S
C491 H483 0.930 . S
C491 C492 1.355 . S
C491 C493 1.415 . S
C492 C491 1.355 . S
C492 C494 1.419 . S
C493 C488 1.425 . S
C493 C490 1.409 . S
C493 C491 1.415 . S
C494 H484 0.930 . S
C494 C492 1.419 . S
C494 C495 1.362 . S
C495 H485 0.930 . S
C495 C488 1.409 . S
C495 C494 1.362 . S
H496 C502 0.930 . S
H497 C505 0.930 . S
H498 C506 0.930 . S
H499 C507 0.930 . S
H500 C510 0.930 . S
H501 C511 0.930 . S
C502 H496 0.930 . S
C502 C503 1.355 . S
C502 C504 1.415 . S
C503 C502 1.355 . S
C503 C505 1.419 . S
C504 C502 1.415 . S
C504 C509 1.425 . S
C504 C511 1.409 . S
C505 H497 0.930 . S
C505 C503 1.419 . S
C505 C506 1.362 . S
C506 H498 0.930 . S
C506 C505 1.362 . S
C506 C509 1.409 . S
C507 H499 0.930 . S
C507 C508 1.355 . S
C507 C509 1.415 . S
C508 C507 1.355 . S
C508 C510 1.419 . S
C509 C504 1.425 . S
C509 C506 1.409 . S
C509 C507 1.415 . S
C510 H500 0.930 . S
C510 C508 1.419 . S
C510 C511 1.362 . S
C511 H501 0.930 . S
C511 C504 1.409 . S
C511 C510 1.362 . S
H512 C518 0.930 . S
H513 C521 0.930 . S
H514 C522 0.930 . S
H515 C523 0.930 . S
H516 C526 0.930 . S
H517 C527 0.930 . S
C518 H512 0.930 . S
C518 C519 1.355 . S
C518 C520 1.415 . S
C519 C518 1.355 . S
C519 C521 1.419 . S
C520 C518 1.415 . S
C520 C525 1.425 . S
C520 C527 1.409 . S
C521 H513 0.930 . S
C521 C519 1.419 . S
C521 C522 1.362 . S
C522 H514 0.930 . S
C522 C521 1.362 . S
C522 C525 1.409 . S
C523 H515 0.930 . S
C523 C524 1.355 . S
C523 C525 1.415 . S
C524 C523 1.355 . S
C524 C526 1.419 . S
C525 C520 1.425 . S
C525 C522 1.409 . S
C525 C523 1.415 . S
C526 H516 0.930 . S
C526 C524 1.419 . S
C526 C527 1.362 . S
C527 H517 0.930 . S
C527 C520 1.409 . S
C527 C526 1.362 . S
H528 C534 0.930 . S
H529 C537 0.930 . S
H530 C538 0.930 . S
H531 C539 0.930 . S
H532 C542 0.930 . S
H533 C543 0.930 . S
C534 H528 0.930 . S
C534 C535 1.355 . S
C534 C536 1.415 . S
C535 C534 1.355 . S
C535 C537 1.419 . S
C536 C534 1.415 . S
C536 C541 1.425 . S
C536 C543 1.409 . S
C537 H529 0.930 . S
C537 C535 1.419 . S
C537 C538 1.362 . S
C538 H530 0.930 . S
C538 C537 1.362 . S
C538 C541 1.409 . S
C539 H531 0.930 . S
C539 C540 1.355 . S
C539 C541 1.415 . S
C540 C539 1.355 . S
C540 C542 1.419 . S
C541 C536 1.425 . S
C541 C538 1.409 . S
C541 C539 1.415 . S
C542 H532 0.930 . S
C542 C540 1.419 . S
C542 C543 1.362 . S
C543 H533 0.930 . S
C543 C536 1.409 . S
C543 C542 1.362 . S
H544 C550 0.930 . S
H545 C553 0.930 . S
H546 C554 0.930 . S
H547 C555 0.930 . S
H548 C558 0.930 . S
H549 C559 0.930 . S
C550 H544 0.930 . S
C550 C551 1.355 . S
C550 C552 1.415 . S
C551 C550 1.355 . S
C551 C553 1.419 . S
C552 C550 1.415 . S
C552 C557 1.425 . S
C552 C559 1.409 . S
C553 H545 0.930 . S
C553 C551 1.419 . S
C553 C554 1.362 . S
C554 H546 0.930 . S
C554 C553 1.362 . S
C554 C557 1.409 . S
C555 H547 0.930 . S
C555 C556 1.355 . S
C555 C557 1.415 . S
C556 C555 1.355 . S
C556 C558 1.419 . S
C557 C552 1.425 . S
C557 C554 1.409 . S
C557 C555 1.415 . S
C558 H548 0.930 . S
C558 C556 1.419 . S
C558 C559 1.362 . S
C559 H549 0.930 . S
C559 C552 1.409 . S
C559 C558 1.362 . S
H560 C566 0.930 . S
H561 C569 0.930 . S
H562 C570 0.930 . S
H563 C571 0.930 . S
H564 C574 0.930 . S
H565 C575 0.930 . S
C566 H560 0.930 . S
C566 C567 1.355 . S
C566 C568 1.415 . S
C567 C566 1.355 . S
C567 C569 1.419 . S
C568 C566 1.415 . S
C568 C573 1.425 . S
C568 C575 1.409 . S
C569 H561 0.930 . S
C569 C567 1.419 . S
C569 C570 1.362 . S
C570 H562 0.930 . S
C570 C569 1.362 . S
C570 C573 1.409 . S
C571 H563 0.930 . S
C571 C572 1.355 . S
C571 C573 1.415 . S
C572 C571 1.355 . S
C572 C574 1.419 . S
C573 C568 1.425 . S
C573 C570 1.409 . S
C573 C571 1.415 . S
C574 H564 0.930 . S
C574 C572 1.419 . S
C574 C575 1.362 . S
C575 H565 0.930 . S
C575 C568 1.409 . S
C575 C574 1.362 . S
H576 C582 0.930 . S
H577 C585 0.930 . S
H578 C586 0.930 . S
H579 C587 0.930 . S
H580 C590 0.930 . S
H581 C591 0.930 . S
C582 H576 0.930 . S
C582 C583 1.355 . S
C582 C584 1.415 . S
C583 C582 1.355 . S
C583 C585 1.419 . S
C584 C582 1.415 . S
C584 C589 1.425 . S
C584 C591 1.409 . S
C585 H577 0.930 . S
C585 C583 1.419 . S
C585 C586 1.362 . S
C586 H578 0.930 . S
C586 C585 1.362 . S
C586 C589 1.409 . S
C587 H579 0.930 . S
C587 C588 1.355 . S
C587 C589 1.415 . S
C588 C587 1.355 . S
C588 C590 1.419 . S
C589 C584 1.425 . S
C589 C586 1.409 . S
C589 C587 1.415 . S
C590 H580 0.930 . S
C590 C588 1.419 . S
C590 C591 1.362 . S
C591 H581 0.930 . S
C591 C584 1.409 . S
C591 C590 1.362 . S
H592 C598 0.930 . S
H593 C601 0.930 . S
H594 C602 0.930 . S
H595 C603 0.930 . S
H596 C606 0.930 . S
H597 C607 0.930 . S
C598 H592 0.930 . S
C598 C599 1.355 . S
C598 C600 1.415 . S
C599 C598 1.355 . S
C599 C601 1.419 . S
C600 C598 1.415 . S
C600 C605 1.425 . S
C600 C607 1.409 . S
C601 H593 0.930 . S
C601 C599 1.419 . S
C601 C602 1.362 . S
C602 H594 0.930 . S
C602 C601 1.362 . S
C602 C605 1.409 . S
C603 H595 0.930 . S
C603 C604 1.355 . S
C603 C605 1.415 . S
C604 C603 1.355 . S
C604 C606 1.419 . S
C605 C600 1.425 . S
C605 C602 1.409 . S
C605 C603 1.415 . S
C606 H596 0.930 . S
C606 C604 1.419 . S
C606 C607 1.362 . S
C607 H597 0.930 . S
C607 C600 1.409 . S
C607 C606 1.362 . S
H608 C614 0.930 . S
H609 C617 0.930 . S
H610 C618 0.930 . S
H611 C619 0.930 . S
H612 C622 0.930 . S
H613 C623 0.930 . S
C614 H608 0.930 . S
C614 C615 1.355 . S
C614 C616 1.415 . S
C615 C614 1.355 . S
C615 C617 1.419 . S
C616 C614 1.415 . S
C616 C621 1.425 . S
C616 C623 1.409 . S
C617 H609 0.930 . S
C617 C615 1.419 . S
C617 C618 1.362 . S
C618 H610 0.930 . S
C618 C617 1.362 . S
C618 C621 1.409 . S
C619 H611 0.930 . S
C619 C620 1.355 . S
C619 C621 1.415 . S
C620 C619 1.355 . S
C620 C622 1.419 . S
C621 C616 1.425 . S
C621 C618 1.409 . S
C621 C619 1.415 . S
C622 H612 0.930 . S
C622 C620 1.419 . S
C622 C623 1.362 . S
C623 H613 0.930 . S
C623 C616 1.409 . S
C623 C622 1.362 . S
H624 C630 0.930 . S
H625 C633 0.930 . S
H626 C634 0.930 . S
H627 C635 0.930 . S
H628 C638 0.930 . S
H629 C639 0.930 . S
C630 H624 0.930 . S
C630 C631 1.355 . S
C630 C632 1.415 . S
C631 C630 1.355 . S
C631 C633 1.419 . S
C632 C630 1.415 . S
C632 C637 1.425 . S
C632 C639 1.409 . S
C633 H625 0.930 . S
C633 C631 1.419 . S
C633 C634 1.362 . S
C634 H626 0.930 . S
C634 C633 1.362 . S
C634 C637 1.409 . S
C635 H627 0.930 . S
C635 C636 1.355 . S
C635 C637 1.415 . S
C636 C635 1.355 . S
C636 C638 1.419 . S
C637 C632 1.425 . S
C637 C634 1.409 . S
C637 C635 1.415 . S
C638 H628 0.930 . S
C638 C636 1.419 . S
C638 C639 1.362 . S
C639 H629 0.930 . S
C639 C632 1.409 . S
C639 C638 1.362 . S
H640 C646 0.930 . S
H641 C649 0.930 . S
H642 C650 0.930 . S
H643 C651 0.930 . S
H644 C654 0.930 . S
H645 C655 0.930 . S
C646 H640 0.930 . S
C646 C647 1.355 . S
C646 C648 1.415 . S
C647 C646 1.355 . S
C647 C649 1.419 . S
C648 C646 1.415 . S
C648 C653 1.425 . S
C648 C655 1.409 . S
C649 H641 0.930 . S
C649 C647 1.419 . S
C649 C650 1.362 . S
C650 H642 0.930 . S
C650 C649 1.362 . S
C650 C653 1.409 . S
C651 H643 0.930 . S
C651 C652 1.355 . S
C651 C653 1.415 . S
C652 C651 1.355 . S
C652 C654 1.419 . S
C653 C648 1.425 . S
C653 C650 1.409 . S
C653 C651 1.415 . S
C654 H644 0.930 . S
C654 C652 1.419 . S
C654 C655 1.362 . S
C655 H645 0.930 . S
C655 C648 1.409 . S
C655 C654 1.362 . S
H656 C662 0.930 . S
H657 C665 0.930 . S
H658 C666 0.930 . S
H659 C667 0.930 . S
H660 C670 0.930 . S
H661 C671 0.930 . S
C662 H656 0.930 . S
C662 C663 1.355 . S
C662 C664 1.415 . S
C663 C662 1.355 . S
C663 C665 1.419 . S
C664 C662 1.415 . S
C664 C669 1.425 . S
C664 C671 1.409 . S
C665 H657 0.930 . S
C665 C663 1.419 . S
C665 C666 1.362 . S
C666 H658 0.930 . S
C666 C665 1.362 . S
C666 C669 1.409 . S
C667 H659 0.930 . S
C667 C668 1.355 . S
C667 C669 1.415 . S
C668 C667 1.355 . S
C668 C670 1.419 . S
C669 C664 1.425 . S
C669 C666 1.409 . S
C669 C667 1.415 . S
C670 H660 0.930 . S
C670 C668 1.419 . S
C670 C671 1.362 . S
C671 H661 0.930 . S
C671 C664 1.409 . S
C671 C670 1.362 . S
H672 C678 0.930 . S
H673 C681 0.930 . S
H674 C682 0.930 . S
H675 C683 0.930 . S
H676 C686 0.930 . S
H677 C687 0.930 . S
C678 H672 0.930 . S
C678 C679 1.355 . S
C678 C680 1.415 . S
C679 C678 1.355 . S
C679 C681 1.419 . S
C680 C678 1.415 . S
C680 C685 1.425 . S
C680 C687 1.409 . S
C681 H673 0.930 . S
C681 C679 1.419 . S
C681 C682 1.362 . S
C682 H674 0.930 . S
C682 C681 1.362 . S
C682 C685 1.409 . S
C683 H675 0.930 . S
C683 C684 1.355 . S
C683 C685 1.415 . S
C684 C683 1.355 . S
C684 C686 1.419 . S
C685 C680 1.425 . S
C685 C682 1.409 . S
C685 C683 1.415 . S
C686 H676 0.930 . S
C686 C684 1.419 . S
C686 C687 1.362 . S
C687 H677 0.930 . S
C687 C680 1.409 . S
C687 C686 1.362 . S
H688 C694 0.930 . S
H689 C697 0.930 . S
H690 C698 0.930 . S
H691 C699 0.930 . S
H692 C702 0.930 . S
H693 C703 0.930 . S
C694 H688 0.930 . S
C694 C695 1.355 . S
C694 C696 1.415 . S
C695 C694 1.355 . S
C695 C697 1.419 . S
C696 C694 1.415 . S
C696 C701 1.425 . S
C696 C703 1.409 . S
C697 H689 0.930 . S
C697 C695 1.419 . S
C697 C698 1.362 . S
C698 H690 0.930 . S
C698 C697 1.362 . S
C698 C701 1.409 . S
C699 H691 0.930 . S
C699 C700 1.355 . S
C699 C701 1.415 . S
C700 C699 1.355 . S
C700 C702 1.419 . S
C701 C696 1.425 . S
C701 C698 1.409 . S
C701 C699 1.415 . S
C702 H692 0.930 . S
C702 C700 1.419 . S
C702 C703 1.362 . S
C703 H693 0.930 . S
C703 C696 1.409 . S
C703 C702 1.362 . S
H704 C710 0.930 . S
H705 C713 0.930 . S
H706 C714 0.930 1_455 S
H707 C715 0.930 . S
H708 C718 0.930 . S
H709 C719 0.930 1_655 S
C710 H704 0.930 . S
C710 C711 1.355 . S
C710 C712 1.415 . S
C711 C710 1.355 . S
C711 C713 1.419 . S
C712 C710 1.415 . S
C712 C717 1.425 1_655 S
C712 C719 1.409 1_655 S
C713 H705 0.930 . S
C713 C711 1.419 . S
C713 C714 1.362 . S
C714 H706 0.930 1_655 S
C714 C713 1.362 . S
C714 C717 1.409 1_655 S
C715 H707 0.930 . S
C715 C716 1.355 . S
C715 C717 1.415 . S
C716 C715 1.355 . S
C716 C718 1.419 . S
C717 C712 1.425 1_455 S
C717 C714 1.409 1_455 S
C717 C715 1.415 . S
C718 H708 0.930 . S
C718 C716 1.419 . S
C718 C719 1.362 . S
C719 H709 0.930 1_455 S
C719 C712 1.409 1_455 S
C719 C718 1.362 . S
H720 C726 0.930 . S
H721 C729 0.930 . S
H722 C730 0.930 . S
H723 C731 0.930 . S
H724 C734 0.930 . S
H725 C735 0.930 . S
C726 H720 0.930 . S
C726 C727 1.355 . S
C726 C728 1.415 1_565 S
C727 C726 1.355 . S
C727 C729 1.419 . S
C728 C726 1.415 1_545 S
C728 C733 1.425 1_545 S
C728 C735 1.409 . S
C729 H721 0.930 . S
C729 C727 1.419 . S
C729 C730 1.362 . S
C730 H722 0.930 . S
C730 C729 1.362 . S
C730 C733 1.409 . S
C731 H723 0.930 . S
C731 C732 1.355 . S
C731 C733 1.415 1_545 S
C732 C731 1.355 . S
C732 C734 1.419 . S
C733 C728 1.425 1_565 S
C733 C730 1.409 . S
C733 C731 1.415 1_565 S
C734 H724 0.930 . S
C734 C732 1.419 . S
C734 C735 1.362 . S
C735 H725 0.930 . S
C735 C728 1.409 . S
C735 C734 1.362 . S
H736 C742 0.930 . S
H737 C745 0.930 . S
H738 C746 0.930 . S
H739 C747 0.930 . S
H740 C750 0.930 . S
H741 C751 0.930 . S
C742 H736 0.930 . S
C742 C743 1.355 1_554 S
C742 C744 1.415 1_565 S
C743 C742 1.355 1_556 S
C743 C745 1.419 1_455 S
C744 C742 1.415 1_545 S
C744 C749 1.425 1_444 S
C744 C751 1.409 . S
C745 H737 0.930 . S
C745 C743 1.419 1_655 S
C745 C746 1.362 . S
C746 H738 0.930 . S
C746 C745 1.362 . S
C746 C749 1.409 . S
C747 H739 0.930 . S
C747 C748 1.355 1_556 S
C747 C749 1.415 1_545 S
C748 C747 1.355 1_554 S
C748 C750 1.419 1_655 S
C749 C744 1.425 1_666 S
C749 C746 1.409 . S
C749 C747 1.415 1_565 S
C750 H740 0.930 . S
C750 C748 1.419 1_455 S
C750 C751 1.362 . S
C751 H741 0.930 . S
C751 C744 1.409 . S
C751 C750 1.362 . S
H752 C758 0.930 . S
H753 C761 0.930 . S
H754 C762 0.930 . S
H755 C763 0.930 . S
H756 C766 0.930 . S
H757 C767 0.930 . S
C758 H752 0.930 . S
C758 C759 1.355 1_556 S
C758 C760 1.415 . S
C759 C758 1.355 1_554 S
C759 C761 1.419 . S
C760 C758 1.415 . S
C760 C765 1.425 1_556 S
C760 C767 1.409 . S
C761 H753 0.930 . S
C761 C759 1.419 . S
C761 C762 1.362 . S
C762 H754 0.930 . S
C762 C761 1.362 . S
C762 C765 1.409 . S
C763 H755 0.930 . S
C763 C764 1.355 1_554 S
C763 C765 1.415 . S
C764 C763 1.355 1_556 S
C764 C766 1.419 . S
C765 C760 1.425 1_554 S
C765 C762 1.409 . S
C765 C763 1.415 . S
C766 H756 0.930 . S
C766 C764 1.419 . S
C766 C767 1.362 . S
C767 H757 0.930 . S
C767 C760 1.409 . S
C767 C766 1.362 . S
H768 C774 0.930 . S
H769 C777 0.930 . S
H770 C778 0.930 . S
H771 C779 0.930 . S
H772 C782 0.930 . S
H773 C783 0.930 . S
C774 H768 0.930 . S
C774 C775 1.355 . S
C774 C776 1.415 . S
C775 C774 1.355 . S
C775 C777 1.419 1_655 S
C776 C774 1.415 . S
C776 C781 1.425 1_655 S
C776 C783 1.409 . S
C777 H769 0.930 . S
C777 C775 1.419 1_455 S
C777 C778 1.362 . S
C778 H770 0.930 . S
C778 C777 1.362 . S
C778 C781 1.409 . S
C779 H771 0.930 . S
C779 C780 1.355 . S
C779 C781 1.415 . S
C780 C779 1.355 . S
C780 C782 1.419 1_455 S
C781 C776 1.425 1_455 S
C781 C778 1.409 . S
C781 C779 1.415 . S
C782 H772 0.930 . S
C782 C780 1.419 1_655 S
C782 C783 1.362 . S
C783 H773 0.930 . S
C783 C776 1.409 . S
C783 C782 1.362 . S
H784 C790 0.930 . S
H785 C793 0.930 . S
H786 C794 0.930 . S
H787 C795 0.930 . S
H788 C798 0.930 . S
H789 C799 0.930 . S
C790 H784 0.930 . S
C790 C791 1.355 . S
C790 C792 1.415 1_565 S
C791 C790 1.355 . S
C791 C793 1.419 . S
C792 C790 1.415 1_545 S
C792 C797 1.425 1_545 S
C792 C799 1.409 . S
C793 H785 0.930 . S
C793 C791 1.419 . S
C793 C794 1.362 . S
C794 H786 0.930 . S
C794 C793 1.362 . S
C794 C797 1.409 . S
C795 H787 0.930 . S
C795 C796 1.355 . S
C795 C797 1.415 1_545 S
C796 C795 1.355 . S
C796 C798 1.419 . S
C797 C792 1.425 1_565 S
C797 C794 1.409 . S
C797 C795 1.415 1_565 S
C798 H788 0.930 . S
C798 C796 1.419 . S
C798 C799 1.362 . S
C799 H789 0.930 . S
C799 C792 1.409 . S
C799 C798 1.362 . S
H800 C806 0.930 . S
H801 C809 0.930 . S
H802 C810 0.930 . S
H803 C811 0.930 . S
H804 C814 0.930 1_554 S
H805 C815 0.930 . S
C806 H800 0.930 . S
C806 C807 1.355 . S
C806 C808 1.416 . S
C807 C806 1.355 . S
C807 C809 1.419 . S
C808 C806 1.416 . S
C808 C813 1.424 1_556 S
C808 C815 1.410 . S
C809 H801 0.930 . S
C809 C807 1.419 . S
C809 C810 1.362 1_556 S
C810 H802 0.930 . S
C810 C809 1.362 1_554 S
C810 C813 1.410 . S
C811 H803 0.930 . S
C811 C812 1.355 . S
C811 C813 1.416 . S
C812 C811 1.355 . S
C812 C814 1.419 1_554 S
C813 C808 1.424 1_554 S
C813 C810 1.410 . S
C813 C811 1.416 . S
C814 H804 0.930 1_556 S
C814 C812 1.419 1_556 S
C814 C815 1.362 . S
C815 H805 0.930 . S
C815 C808 1.410 . S
C815 C814 1.362 . S
H816 C822 0.930 . S
H817 C825 0.930 . S
H818 C826 0.930 . S
H819 C827 0.930 . S
H820 C830 0.930 . S
H821 C831 0.930 . S
C822 H816 0.930 . S
C822 C823 1.355 . S
C822 C824 1.415 . S
C823 C822 1.355 . S
C823 C825 1.419 . S
C824 C822 1.415 . S
C824 C829 1.425 . S
C824 C831 1.409 . S
C825 H817 0.930 . S
C825 C823 1.419 . S
C825 C826 1.362 . S
C826 H818 0.930 . S
C826 C825 1.362 . S
C826 C829 1.409 . S
C827 H819 0.930 . S
C827 C828 1.355 . S
C827 C829 1.415 . S
C828 C827 1.355 . S
C828 C830 1.419 . S
C829 C824 1.425 . S
C829 C826 1.409 . S
C829 C827 1.415 . S
C830 H820 0.930 . S
C830 C828 1.419 . S
C830 C831 1.362 . S
C831 H821 0.930 . S
C831 C824 1.409 . S
C831 C830 1.362 . S
H832 C838 0.930 . S
H833 C841 0.931 . S
H834 C842 0.930 . S
H835 C843 0.930 . S
H836 C846 0.931 . S
H837 C847 0.930 . S
C838 H832 0.930 . S
C838 C839 1.355 . S
C838 C840 1.415 . S
C839 C838 1.355 . S
C839 C841 1.416 1_655 S
C840 C838 1.415 . S
C840 C845 1.425 1_655 S
C840 C847 1.409 . S
C841 H833 0.931 . S
C841 C839 1.416 1_455 S
C841 C842 1.364 . S
C842 H834 0.930 . S
C842 C841 1.364 . S
C842 C845 1.409 . S
C843 H835 0.930 . S
C843 C844 1.355 . S
C843 C845 1.415 . S
C844 C843 1.355 . S
C844 C846 1.416 1_455 S
C845 C840 1.425 1_455 S
C845 C842 1.409 . S
C845 C843 1.415 . S
C846 H836 0.931 . S
C846 C844 1.416 1_655 S
C846 C847 1.364 . S
C847 H837 0.930 . S
C847 C840 1.409 . S
C847 C846 1.364 . S
H848 C854 0.930 . S
H849 C857 0.930 . S
H850 C858 0.930 . S
H851 C859 0.930 . S
H852 C862 0.930 . S
H853 C863 0.930 . S
C854 H848 0.930 . S
C854 C855 1.355 . S
C854 C856 1.415 . S
C855 C854 1.355 . S
C855 C857 1.419 . S
C856 C854 1.415 . S
C856 C861 1.425 . S
C856 C863 1.409 . S
C857 H849 0.930 . S
C857 C855 1.419 . S
C857 C858 1.362 . S
C858 H850 0.930 . S
C858 C857 1.362 . S
C858 C861 1.409 . S
C859 H851 0.930 . S
C859 C860 1.355 . S
C859 C861 1.415 . S
C860 C859 1.355 . S
C860 C862 1.419 . S
C861 C856 1.425 . S
C861 C858 1.409 . S
C861 C859 1.415 . S
C862 H852 0.930 . S
C862 C860 1.419 . S
C862 C863 1.362 . S
C863 H853 0.930 . S
C863 C856 1.409 . S
C863 C862 1.362 . S
H864 C870 0.930 . S
H865 C873 0.930 . S
H866 C874 0.930 . S
H867 C875 0.930 . S
H868 C878 0.930 . S
H869 C879 0.930 . S
C870 H864 0.930 . S
C870 C871 1.355 . S
C870 C872 1.415 . S
C871 C870 1.355 . S
C871 C873 1.419 . S
C872 C870 1.415 . S
C872 C877 1.425 . S
C872 C879 1.409 . S
C873 H865 0.930 . S
C873 C871 1.419 . S
C873 C874 1.362 . S
C874 H866 0.930 . S
C874 C873 1.362 . S
C874 C877 1.409 . S
C875 H867 0.930 . S
C875 C876 1.355 . S
C875 C877 1.415 . S
C876 C875 1.355 . S
C876 C878 1.419 . S
C877 C872 1.425 . S
C877 C874 1.409 . S
C877 C875 1.415 . S
C878 H868 0.930 . S
C878 C876 1.419 . S
C878 C879 1.362 . S
C879 H869 0.930 . S
C879 C872 1.409 . S
C879 C878 1.362 . S
H880 C886 0.930 . S
H881 C889 0.930 . S
H882 C890 0.930 . S
H883 C891 0.930 . S
H884 C894 0.930 . S
H885 C895 0.930 . S
C886 H880 0.930 . S
C886 C887 1.355 . S
C886 C888 1.415 . S
C887 C886 1.355 . S
C887 C889 1.419 . S
C888 C886 1.415 . S
C888 C893 1.425 . S
C888 C895 1.409 . S
C889 H881 0.930 . S
C889 C887 1.419 . S
C889 C890 1.362 . S
C890 H882 0.930 . S
C890 C889 1.362 . S
C890 C893 1.409 . S
C891 H883 0.930 . S
C891 C892 1.355 . S
C891 C893 1.415 . S
C892 C891 1.355 . S
C892 C894 1.419 . S
C893 C888 1.425 . S
C893 C890 1.409 . S
C893 C891 1.415 . S
C894 H884 0.930 . S
C894 C892 1.419 . S
C894 C895 1.362 . S
C895 H885 0.930 . S
C895 C888 1.409 . S
C895 C894 1.362 . S
H896 C902 0.930 . S
H897 C905 0.930 . S
H898 C906 0.930 . S
H899 C907 0.930 . S
H900 C910 0.930 . S
H901 C911 0.930 . S
C902 H896 0.930 . S
C902 C903 1.355 . S
C902 C904 1.415 . S
C903 C902 1.355 . S
C903 C905 1.419 . S
C904 C902 1.415 . S
C904 C909 1.425 . S
C904 C911 1.409 . S
C905 H897 0.930 . S
C905 C903 1.419 . S
C905 C906 1.362 . S
C906 H898 0.930 . S
C906 C905 1.362 . S
C906 C909 1.409 . S
C907 H899 0.930 . S
C907 C908 1.355 . S
C907 C909 1.415 . S
C908 C907 1.355 . S
C908 C910 1.419 . S
C909 C904 1.425 . S
C909 C906 1.409 . S
C909 C907 1.415 . S
C910 H900 0.930 . S
C910 C908 1.419 . S
C910 C911 1.362 . S
C911 H901 0.930 . S
C911 C904 1.409 . S
C911 C910 1.362 . S
H912 C918 0.930 . S
H913 C921 0.930 . S
H914 C922 0.930 . S
H915 C923 0.930 . S
H916 C926 0.930 . S
H917 C927 0.930 . S
C918 H912 0.930 . S
C918 C919 1.355 . S
C918 C920 1.415 . S
C919 C918 1.355 . S
C919 C921 1.419 . S
C920 C918 1.415 . S
C920 C925 1.425 1_545 S
C920 C927 1.409 . S
C921 H913 0.930 . S
C921 C919 1.419 . S
C921 C922 1.362 1_545 S
C922 H914 0.930 . S
C922 C921 1.362 1_565 S
C922 C925 1.409 . S
C923 H915 0.930 . S
C923 C924 1.355 . S
C923 C925 1.415 . S
C924 C923 1.355 . S
C924 C926 1.419 . S
C925 C920 1.425 1_565 S
C925 C922 1.409 . S
C925 C923 1.415 . S
C926 H916 0.930 . S
C926 C924 1.419 . S
C926 C927 1.362 1_565 S
C927 H917 0.930 . S
C927 C920 1.409 . S
C927 C926 1.362 1_545 S
H928 C934 0.930 . S
H929 C937 0.930 . S
H930 C938 0.930 . S
H931 C939 0.930 . S
H932 C942 0.930 . S
H933 C943 0.930 . S
C934 H928 0.930 . S
C934 C935 1.355 . S
C934 C936 1.415 . S
C935 C934 1.355 . S
C935 C937 1.419 . S
C936 C934 1.415 . S
C936 C941 1.425 . S
C936 C943 1.409 . S
C937 H929 0.930 . S
C937 C935 1.419 . S
C937 C938 1.362 . S
C938 H930 0.930 . S
C938 C937 1.362 . S
C938 C941 1.409 . S
C939 H931 0.930 . S
C939 C940 1.355 . S
C939 C941 1.415 . S
C940 C939 1.355 . S
C940 C942 1.419 . S
C941 C936 1.425 . S
C941 C938 1.409 . S
C941 C939 1.415 . S
C942 H932 0.930 . S
C942 C940 1.419 . S
C942 C943 1.362 . S
C943 H933 0.930 . S
C943 C936 1.409 . S
C943 C942 1.362 . S
H944 C950 0.930 . S
H945 C953 0.930 . S
H946 C954 0.930 . S
H947 C955 0.930 . S
H948 C958 0.930 . S
H949 C959 0.930 . S
C950 H944 0.930 . S
C950 C951 1.355 1_554 S
C950 C952 1.415 . S
C951 C950 1.355 1_556 S
C951 C953 1.419 . S
C952 C950 1.415 . S
C952 C957 1.425 1_554 S
C952 C959 1.409 . S
C953 H945 0.930 . S
C953 C951 1.419 . S
C953 C954 1.362 . S
C954 H946 0.930 . S
C954 C953 1.362 . S
C954 C957 1.409 . S
C955 H947 0.930 . S
C955 C956 1.355 1_556 S
C955 C957 1.415 . S
C956 C955 1.355 1_554 S
C956 C958 1.419 . S
C957 C952 1.425 1_556 S
C957 C954 1.409 . S
C957 C955 1.415 . S
C958 H948 0.930 . S
C958 C956 1.419 . S
C958 C959 1.362 . S
C959 H949 0.930 . S
C959 C952 1.409 . S
C959 C958 1.362 . S
H960 C966 0.930 . S
H961 C969 0.930 . S
H962 C970 0.930 . S
H963 C971 0.930 . S
H964 C974 0.930 . S
H965 C975 0.930 . S
C966 H960 0.930 . S
C966 C967 1.355 . S
C966 C968 1.415 . S
C967 C966 1.355 . S
C967 C969 1.419 . S
C968 C966 1.415 . S
C968 C973 1.425 . S
C968 C975 1.409 . S
C969 H961 0.930 . S
C969 C967 1.419 . S
C969 C970 1.362 . S
C970 H962 0.930 . S
C970 C969 1.362 . S
C970 C973 1.409 . S
C971 H963 0.930 . S
C971 C972 1.355 . S
C971 C973 1.415 . S
C972 C971 1.355 . S
C972 C974 1.419 . S
C973 C968 1.425 . S
C973 C970 1.409 . S
C973 C971 1.415 . S
C974 H964 0.930 . S
C974 C972 1.419 . S
C974 C975 1.362 . S
C975 H965 0.930 . S
C975 C968 1.409 . S
C975 C974 1.362 . S
H976 C982 0.930 . S
H977 C985 0.930 . S
H978 C986 0.930 . S
H979 C987 0.930 . S
H980 C990 0.930 . S
H981 C991 0.930 . S
C982 H976 0.930 . S
C982 C983 1.355 . S
C982 C984 1.415 . S
C983 C982 1.355 . S
C983 C985 1.419 . S
C984 C982 1.415 . S
C984 C989 1.425 . S
C984 C991 1.409 . S
C985 H977 0.930 . S
C985 C983 1.419 . S
C985 C986 1.362 . S
C986 H978 0.930 . S
C986 C985 1.362 . S
C986 C989 1.409 . S
C987 H979 0.930 . S
C987 C988 1.355 . S
C987 C989 1.415 . S
C988 C987 1.355 . S
C988 C990 1.419 . S
C989 C984 1.425 . S
C989 C986 1.409 . S
C989 C987 1.415 . S
C990 H980 0.930 . S
C990 C988 1.419 . S
C990 C991 1.362 . S
C991 H981 0.930 . S
C991 C984 1.409 . S
C991 C990 1.362 . S
H992 C998 0.930 . S
H993 C1001 0.930 . S
H994 C1002 0.930 . S
H995 C1003 0.930 . S
H996 C1006 0.930 . S
H997 C1007 0.930 . S
C998 H992 0.930 . S
C998 C999 1.355 . S
C998 C1000 1.415 . S
C999 C998 1.355 . S
C999 C1001 1.419 . S
C1000 C998 1.415 . S
C1000 C1005 1.425 . S
C1000 C1007 1.409 . S
C1001 H993 0.930 . S
C1001 C999 1.419 . S
C1001 C1002 1.362 . S
C1002 H994 0.930 . S
C1002 C1001 1.362 . S
C1002 C1005 1.409 . S
C1003 H995 0.930 . S
C1003 C1004 1.355 . S
C1003 C1005 1.415 . S
C1004 C1003 1.355 . S
C1004 C1006 1.419 . S
C1005 C1000 1.425 . S
C1005 C1002 1.409 . S
C1005 C1003 1.415 . S
C1006 H996 0.930 . S
C1006 C1004 1.419 . S
C1006 C1007 1.362 . S
C1007 H997 0.930 . S
C1007 C1000 1.409 . S
C1007 C1006 1.362 . S
H1008 C1014 0.930 . S
H1009 C1017 0.930 . S
H1010 C1018 0.930 . S
H1011 C1019 0.930 . S
H1012 C1022 0.930 . S
H1013 C1023 0.930 . S
C1014 H1008 0.930 . S
C1014 C1015 1.355 . S
C1014 C1016 1.415 . S
C1015 C1014 1.355 . S
C1015 C1017 1.419 . S
C1016 C1014 1.415 . S
C1016 C1021 1.425 . S
C1016 C1023 1.409 . S
C1017 H1009 0.930 . S
C1017 C1015 1.419 . S
C1017 C1018 1.362 . S
C1018 H1010 0.930 . S
C1018 C1017 1.362 . S
C1018 C1021 1.409 . S
C1019 H1011 0.930 . S
C1019 C1020 1.355 . S
C1019 C1021 1.415 . S
C1020 C1019 1.355 . S
C1020 C1022 1.419 . S
C1021 C1016 1.425 . S
C1021 C1018 1.409 . S
C1021 C1019 1.415 . S
C1022 H1012 0.930 . S
C1022 C1020 1.419 . S
C1022 C1023 1.362 . S
C1023 H1013 0.930 . S
C1023 C1016 1.409 . S
C1023 C1022 1.362 . S
H1024 C1030 0.930 . S
H1025 C1033 0.930 . S
H1026 C1034 0.930 . S
H1027 C1035 0.930 . S
H1028 C1038 0.930 . S
H1029 C1039 0.930 . S
C1030 H1024 0.930 . S
C1030 C1031 1.355 . S
C1030 C1032 1.415 . S
C1031 C1030 1.355 . S
C1031 C1033 1.419 . S
C1032 C1030 1.415 . S
C1032 C1037 1.425 . S
C1032 C1039 1.409 . S
C1033 H1025 0.930 . S
C1033 C1031 1.419 . S
C1033 C1034 1.362 . S
C1034 H1026 0.930 . S
C1034 C1033 1.362 . S
C1034 C1037 1.409 . S
C1035 H1027 0.930 . S
C1035 C1036 1.355 . S
C1035 C1037 1.415 . S
C1036 C1035 1.355 . S
C1036 C1038 1.419 . S
C1037 C1032 1.425 . S
C1037 C1034 1.409 . S
C1037 C1035 1.415 . S
C1038 H1028 0.930 . S
C1038 C1036 1.419 . S
C1038 C1039 1.362 . S
C1039 H1029 0.930 . S
C1039 C1032 1.409 . S
C1039 C1038 1.362 . S
H1040 C1046 0.930 . S
H1041 C1049 0.930 . S
H1042 C1050 0.930 . S
H1043 C1051 0.930 . S
H1044 C1054 0.930 . S
H1045 C1055 0.930 . S
C1046 H1040 0.930 . S
C1046 C1047 1.355 . S
C1046 C1048 1.415 . S
C1047 C1046 1.355 . S
C1047 C1049 1.419 . S
C1048 C1046 1.415 . S
C1048 C1053 1.425 . S
C1048 C1055 1.409 . S
C1049 H1041 0.930 . S
C1049 C1047 1.419 . S
C1049 C1050 1.362 . S
C1050 H1042 0.930 . S
C1050 C1049 1.362 . S
C1050 C1053 1.409 . S
C1051 H1043 0.930 . S
C1051 C1052 1.355 . S
C1051 C1053 1.415 . S
C1052 C1051 1.355 . S
C1052 C1054 1.419 . S
C1053 C1048 1.425 . S
C1053 C1050 1.409 . S
C1053 C1051 1.415 . S
C1054 H1044 0.930 . S
C1054 C1052 1.419 . S
C1054 C1055 1.362 . S
C1055 H1045 0.930 . S
C1055 C1048 1.409 . S
C1055 C1054 1.362 . S
H1056 C1062 0.930 . S
H1057 C1065 0.930 . S
H1058 C1066 0.930 . S
H1059 C1067 0.930 . S
H1060 C1070 0.930 . S
H1061 C1071 0.930 . S
C1062 H1056 0.930 . S
C1062 C1063 1.355 . S
C1062 C1064 1.415 . S
C1063 C1062 1.355 . S
C1063 C1065 1.419 . S
C1064 C1062 1.415 . S
C1064 C1069 1.425 . S
C1064 C1071 1.409 . S
C1065 H1057 0.930 . S
C1065 C1063 1.419 . S
C1065 C1066 1.362 . S
C1066 H1058 0.930 . S
C1066 C1065 1.362 . S
C1066 C1069 1.409 . S
C1067 H1059 0.930 . S
C1067 C1068 1.355 . S
C1067 C1069 1.415 . S
C1068 C1067 1.355 . S
C1068 C1070 1.419 . S
C1069 C1064 1.425 . S
C1069 C1066 1.409 . S
C1069 C1067 1.415 . S
C1070 H1060 0.930 . S
C1070 C1068 1.419 . S
C1070 C1071 1.362 . S
C1071 H1061 0.930 . S
C1071 C1064 1.409 . S
C1071 C1070 1.362 . S
H1072 C1078 0.930 . S
H1073 C1081 0.930 . S
H1074 C1082 0.930 . S
H1075 C1083 0.930 . S
H1076 C1086 0.930 . S
H1077 C1087 0.930 . S
C1078 H1072 0.930 . S
C1078 C1079 1.355 . S
C1078 C1080 1.415 . S
C1079 C1078 1.355 . S
C1079 C1081 1.419 . S
C1080 C1078 1.415 . S
C1080 C1085 1.425 . S
C1080 C1087 1.409 . S
C1081 H1073 0.930 . S
C1081 C1079 1.419 . S
C1081 C1082 1.362 . S
C1082 H1074 0.930 . S
C1082 C1081 1.362 . S
C1082 C1085 1.409 . S
C1083 H1075 0.930 . S
C1083 C1084 1.355 . S
C1083 C1085 1.415 . S
C1084 C1083 1.355 . S
C1084 C1086 1.419 . S
C1085 C1080 1.425 . S
C1085 C1082 1.409 . S
C1085 C1083 1.415 . S
C1086 H1076 0.930 . S
C1086 C1084 1.419 . S
C1086 C1087 1.362 . S
C1087 H1077 0.930 . S
C1087 C1080 1.409 . S
C1087 C1086 1.362 . S
H1088 C1094 0.930 . S
H1089 C1097 0.930 . S
H1090 C1098 0.930 . S
H1091 C1099 0.930 . S
H1092 C1102 0.930 . S
H1093 C1103 0.930 . S
C1094 H1088 0.930 . S
C1094 C1095 1.355 . S
C1094 C1096 1.415 . S
C1095 C1094 1.355 . S
C1095 C1097 1.419 . S
C1096 C1094 1.415 . S
C1096 C1101 1.425 . S
C1096 C1103 1.409 . S
C1097 H1089 0.930 . S
C1097 C1095 1.419 . S
C1097 C1098 1.362 . S
C1098 H1090 0.930 . S
C1098 C1097 1.362 . S
C1098 C1101 1.409 . S
C1099 H1091 0.930 . S
C1099 C1100 1.355 . S
C1099 C1101 1.415 . S
C1100 C1099 1.355 . S
C1100 C1102 1.419 . S
C1101 C1096 1.425 . S
C1101 C1098 1.409 . S
C1101 C1099 1.415 . S
C1102 H1092 0.930 . S
C1102 C1100 1.419 . S
C1102 C1103 1.362 . S
C1103 H1093 0.930 . S
C1103 C1096 1.409 . S
C1103 C1102 1.362 . S
H1104 C1110 0.930 . S
H1105 C1113 0.930 . S
H1106 C1114 0.930 . S
H1107 C1115 0.930 . S
H1108 C1118 0.930 . S
H1109 C1119 0.930 . S
C1110 H1104 0.930 . S
C1110 C1111 1.355 . S
C1110 C1112 1.415 . S
C1111 C1110 1.355 . S
C1111 C1113 1.419 . S
C1112 C1110 1.415 . S
C1112 C1117 1.425 . S
C1112 C1119 1.409 . S
C1113 H1105 0.930 . S
C1113 C1111 1.419 . S
C1113 C1114 1.362 . S
C1114 H1106 0.930 . S
C1114 C1113 1.362 . S
C1114 C1117 1.409 . S
C1115 H1107 0.930 . S
C1115 C1116 1.355 . S
C1115 C1117 1.415 . S
C1116 C1115 1.355 . S
C1116 C1118 1.419 . S
C1117 C1112 1.425 . S
C1117 C1114 1.409 . S
C1117 C1115 1.415 . S
C1118 H1108 0.930 . S
C1118 C1116 1.419 . S
C1118 C1119 1.362 . S
C1119 H1109 0.930 . S
C1119 C1112 1.409 . S
C1119 C1118 1.362 . S
H1120 C1126 0.930 . S
H1121 C1129 0.930 . S
H1122 C1130 0.930 . S
H1123 C1131 0.930 . S
H1124 C1134 0.930 . S
H1125 C1135 0.930 . S
C1126 H1120 0.930 . S
C1126 C1127 1.355 . S
C1126 C1128 1.415 . S
C1127 C1126 1.355 . S
C1127 C1129 1.419 . S
C1128 C1126 1.415 . S
C1128 C1133 1.425 . S
C1128 C1135 1.409 . S
C1129 H1121 0.930 . S
C1129 C1127 1.419 . S
C1129 C1130 1.362 . S
C1130 H1122 0.930 . S
C1130 C1129 1.362 . S
C1130 C1133 1.409 . S
C1131 H1123 0.930 . S
C1131 C1132 1.355 . S
C1131 C1133 1.415 . S
C1132 C1131 1.355 . S
C1132 C1134 1.419 . S
C1133 C1128 1.425 . S
C1133 C1130 1.409 . S
C1133 C1131 1.415 . S
C1134 H1124 0.930 . S
C1134 C1132 1.419 . S
C1134 C1135 1.362 . S
C1135 H1125 0.930 . S
C1135 C1128 1.409 . S
C1135 C1134 1.362 . S
H1136 C1142 0.930 . S
H1137 C1145 0.930 . S
H1138 C1146 0.930 . S
H1139 C1147 0.930 . S
H1140 C1150 0.930 . S
H1141 C1151 0.930 . S
C1142 H1136 0.930 . S
C1142 C1143 1.355 . S
C1142 C1144 1.415 . S
C1143 C1142 1.355 . S
C1143 C1145 1.419 . S
C1144 C1142 1.415 . S
C1144 C1149 1.425 . S
C1144 C1151 1.409 . S
C1145 H1137 0.930 . S
C1145 C1143 1.419 . S
C1145 C1146 1.362 . S
C1146 H1138 0.930 . S
C1146 C1145 1.362 . S
C1146 C1149 1.409 . S
C1147 H1139 0.930 . S
C1147 C1148 1.355 . S
C1147 C1149 1.415 . S
C1148 C1147 1.355 . S
C1148 C1150 1.419 . S
C1149 C1144 1.425 . S
C1149 C1146 1.409 . S
C1149 C1147 1.415 . S
C1150 H1140 0.930 . S
C1150 C1148 1.419 . S
C1150 C1151 1.362 . S
C1151 H1141 0.930 . S
C1151 C1144 1.409 . S
C1151 C1150 1.362 . S
H1152 C1158 0.930 . S
H1153 C1161 0.930 . S
H1154 C1162 0.930 . S
H1155 C1163 0.930 . S
H1156 C1166 0.930 . S
H1157 C1167 0.930 . S
C1158 H1152 0.930 . S
C1158 C1159 1.355 . S
C1158 C1160 1.415 . S
C1159 C1158 1.355 . S
C1159 C1161 1.419 . S
C1160 C1158 1.415 . S
C1160 C1165 1.425 . S
C1160 C1167 1.409 . S
C1161 H1153 0.930 . S
C1161 C1159 1.419 . S
C1161 C1162 1.362 . S
C1162 H1154 0.930 . S
C1162 C1161 1.362 . S
C1162 C1165 1.409 . S
C1163 H1155 0.930 . S
C1163 C1164 1.355 . S
C1163 C1165 1.415 . S
C1164 C1163 1.355 . S
C1164 C1166 1.419 . S
C1165 C1160 1.425 . S
C1165 C1162 1.409 . S
C1165 C1163 1.415 . S
C1166 H1156 0.930 . S
C1166 C1164 1.419 . S
C1166 C1167 1.362 . S
C1167 H1157 0.930 . S
C1167 C1160 1.409 . S
C1167 C1166 1.362 . S
H1168 C1174 0.930 . S
H1169 C1177 0.930 . S
H1170 C1178 0.930 . S
H1171 C1179 0.930 . S
H1172 C1182 0.930 . S
H1173 C1183 0.930 . S
C1174 H1168 0.930 . S
C1174 C1175 1.355 . S
C1174 C1176 1.415 . S
C1175 C1174 1.355 . S
C1175 C1177 1.419 . S
C1176 C1174 1.415 . S
C1176 C1181 1.425 . S
C1176 C1183 1.409 . S
C1177 H1169 0.930 . S
C1177 C1175 1.419 . S
C1177 C1178 1.362 . S
C1178 H1170 0.930 . S
C1178 C1177 1.362 . S
C1178 C1181 1.409 . S
C1179 H1171 0.930 . S
C1179 C1180 1.355 . S
C1179 C1181 1.415 . S
C1180 C1179 1.355 . S
C1180 C1182 1.419 . S
C1181 C1176 1.425 . S
C1181 C1178 1.409 . S
C1181 C1179 1.415 . S
C1182 H1172 0.930 . S
C1182 C1180 1.419 . S
C1182 C1183 1.362 . S
C1183 H1173 0.930 . S
C1183 C1176 1.409 . S
C1183 C1182 1.362 . S
H1184 C1190 0.930 . S
H1185 C1193 0.930 . S
H1186 C1194 0.930 . S
H1187 C1195 0.930 . S
H1188 C1198 0.930 . S
H1189 C1199 0.930 . S
C1190 H1184 0.930 . S
C1190 C1191 1.355 . S
C1190 C1192 1.415 . S
C1191 C1190 1.355 . S
C1191 C1193 1.419 . S
C1192 C1190 1.415 . S
C1192 C1197 1.425 . S
C1192 C1199 1.409 . S
C1193 H1185 0.930 . S
C1193 C1191 1.419 . S
C1193 C1194 1.362 . S
C1194 H1186 0.930 . S
C1194 C1193 1.362 . S
C1194 C1197 1.409 . S
C1195 H1187 0.930 . S
C1195 C1196 1.355 . S
C1195 C1197 1.415 . S
C1196 C1195 1.355 . S
C1196 C1198 1.419 . S
C1197 C1192 1.425 . S
C1197 C1194 1.409 . S
C1197 C1195 1.415 . S
C1198 H1188 0.930 . S
C1198 C1196 1.419 . S
C1198 C1199 1.362 . S
C1199 H1189 0.930 . S
C1199 C1192 1.409 . S
C1199 C1198 1.362 . S
H1200 C1206 0.930 . S
H1201 C1209 0.930 . S
H1202 C1210 0.930 . S
H1203 C1211 0.930 . S
H1204 C1214 0.930 . S
H1205 C1215 0.930 . S
C1206 H1200 0.930 . S
C1206 C1207 1.355 . S
C1206 C1208 1.415 . S
C1207 C1206 1.355 . S
C1207 C1209 1.419 . S
C1208 C1206 1.415 . S
C1208 C1213 1.425 . S
C1208 C1215 1.409 . S
C1209 H1201 0.930 . S
C1209 C1207 1.419 . S
C1209 C1210 1.362 . S
C1210 H1202 0.930 . S
C1210 C1209 1.362 . S
C1210 C1213 1.409 . S
C1211 H1203 0.930 . S
C1211 C1212 1.355 . S
C1211 C1213 1.415 . S
C1212 C1211 1.355 . S
C1212 C1214 1.419 . S
C1213 C1208 1.425 . S
C1213 C1210 1.409 . S
C1213 C1211 1.415 . S
C1214 H1204 0.930 . S
C1214 C1212 1.419 . S
C1214 C1215 1.362 . S
C1215 H1205 0.930 . S
C1215 C1208 1.409 . S
C1215 C1214 1.362 . S
H1216 C1222 0.930 . S
H1217 C1225 0.930 . S
H1218 C1226 0.930 . S
H1219 C1227 0.930 . S
H1220 C1230 0.930 . S
H1221 C1231 0.930 . S
C1222 H1216 0.930 . S
C1222 C1223 1.355 . S
C1222 C1224 1.415 . S
C1223 C1222 1.355 . S
C1223 C1225 1.419 . S
C1224 C1222 1.415 . S
C1224 C1229 1.425 . S
C1224 C1231 1.409 . S
C1225 H1217 0.930 . S
C1225 C1223 1.419 . S
C1225 C1226 1.362 . S
C1226 H1218 0.930 . S
C1226 C1225 1.362 . S
C1226 C1229 1.409 . S
C1227 H1219 0.930 . S
C1227 C1228 1.355 . S
C1227 C1229 1.415 . S
C1228 C1227 1.355 . S
C1228 C1230 1.419 . S
C1229 C1224 1.425 . S
C1229 C1226 1.409 . S
C1229 C1227 1.415 . S
C1230 H1220 0.930 . S
C1230 C1228 1.419 . S
C1230 C1231 1.362 . S
C1231 H1221 0.930 . S
C1231 C1224 1.409 . S
C1231 C1230 1.362 . S
H1232 C1238 0.930 . S
H1233 C1241 0.930 . S
H1234 C1242 0.930 . S
H1235 C1243 0.930 . S
H1236 C1246 0.930 . S
H1237 C1247 0.930 . S
C1238 H1232 0.930 . S
C1238 C1239 1.355 . S
C1238 C1240 1.415 . S
C1239 C1238 1.355 . S
C1239 C1241 1.419 . S
C1240 C1238 1.415 . S
C1240 C1245 1.425 . S
C1240 C1247 1.409 . S
C1241 H1233 0.930 . S
C1241 C1239 1.419 . S
C1241 C1242 1.362 . S
C1242 H1234 0.930 . S
C1242 C1241 1.362 . S
C1242 C1245 1.409 . S
C1243 H1235 0.930 . S
C1243 C1244 1.355 . S
C1243 C1245 1.415 . S
C1244 C1243 1.355 . S
C1244 C1246 1.419 . S
C1245 C1240 1.425 . S
C1245 C1242 1.409 . S
C1245 C1243 1.415 . S
C1246 H1236 0.930 . S
C1246 C1244 1.419 . S
C1246 C1247 1.362 . S
C1247 H1237 0.930 . S
C1247 C1240 1.409 . S
C1247 C1246 1.362 . S
H1248 C1254 0.930 . S
H1249 C1257 0.930 . S
H1250 C1258 0.930 . S
H1251 C1259 0.930 . S
H1252 C1262 0.930 . S
H1253 C1263 0.930 . S
C1254 H1248 0.930 . S
C1254 C1255 1.355 1_556 S
C1254 C1256 1.415 . S
C1255 C1254 1.355 1_554 S
C1255 C1257 1.419 . S
C1256 C1254 1.415 . S
C1256 C1261 1.425 1_556 S
C1256 C1263 1.409 . S
C1257 H1249 0.930 . S
C1257 C1255 1.419 . S
C1257 C1258 1.362 . S
C1258 H1250 0.930 . S
C1258 C1257 1.362 . S
C1258 C1261 1.409 . S
C1259 H1251 0.930 . S
C1259 C1260 1.355 1_554 S
C1259 C1261 1.415 . S
C1260 C1259 1.355 1_556 S
C1260 C1262 1.419 . S
C1261 C1256 1.425 1_554 S
C1261 C1258 1.409 . S
C1261 C1259 1.415 . S
C1262 H1252 0.930 . S
C1262 C1260 1.419 . S
C1262 C1263 1.362 . S
C1263 H1253 0.930 . S
C1263 C1256 1.409 . S
C1263 C1262 1.362 . S
H1264 C1270 0.930 . S
H1265 C1273 0.930 . S
H1266 C1274 0.930 . S
H1267 C1275 0.930 . S
H1268 C1278 0.930 . S
H1269 C1279 0.930 . S
C1270 H1264 0.930 . S
C1270 C1271 1.357 . S
C1270 C1272 1.415 . S
C1271 C1270 1.357 . S
C1271 C1273 1.416 1_556 S
C1272 C1270 1.415 . S
C1272 C1277 1.425 1_556 S
C1272 C1279 1.409 . S
C1273 H1265 0.930 . S
C1273 C1271 1.416 1_554 S
C1273 C1274 1.362 . S
C1274 H1266 0.930 . S
C1274 C1273 1.362 . S
C1274 C1277 1.409 . S
C1275 H1267 0.930 . S
C1275 C1276 1.357 . S
C1275 C1277 1.415 . S
C1276 C1275 1.357 . S
C1276 C1278 1.416 1_554 S
C1277 C1272 1.425 1_554 S
C1277 C1274 1.409 . S
C1277 C1275 1.415 . S
C1278 H1268 0.930 . S
C1278 C1276 1.416 1_556 S
C1278 C1279 1.362 . S
C1279 H1269 0.930 . S
C1279 C1272 1.409 . S
C1279 C1278 1.362 . S
H1280 C1286 0.930 . S
H1281 C1289 0.930 . S
H1282 C1290 0.930 . S
H1283 C1291 0.930 . S
H1284 C1294 0.930 . S
H1285 C1295 0.930 . S
C1286 H1280 0.930 . S
C1286 C1287 1.355 . S
C1286 C1288 1.415 . S
C1287 C1286 1.355 . S
C1287 C1289 1.419 . S
C1288 C1286 1.415 . S
C1288 C1293 1.425 . S
C1288 C1295 1.409 . S
C1289 H1281 0.930 . S
C1289 C1287 1.419 . S
C1289 C1290 1.362 . S
C1290 H1282 0.930 . S
C1290 C1289 1.362 . S
C1290 C1293 1.409 . S
C1291 H1283 0.930 . S
C1291 C1292 1.355 . S
C1291 C1293 1.415 . S
C1292 C1291 1.355 . S
C1292 C1294 1.419 . S
C1293 C1288 1.425 . S
C1293 C1290 1.409 . S
C1293 C1291 1.415 . S
C1294 H1284 0.930 . S
C1294 C1292 1.419 . S
C1294 C1295 1.362 . S
C1295 H1285 0.930 . S
C1295 C1288 1.409 . S
C1295 C1294 1.362 . S
H1296 C1302 0.930 . S
H1297 C1305 0.930 . S
H1298 C1306 0.930 . S
H1299 C1307 0.930 . S
H1300 C1310 0.930 . S
H1301 C1311 0.930 . S
C1302 H1296 0.930 . S
C1302 C1303 1.355 . S
C1302 C1304 1.415 . S
C1303 C1302 1.355 . S
C1303 C1305 1.419 . S
C1304 C1302 1.415 . S
C1304 C1309 1.425 . S
C1304 C1311 1.409 . S
C1305 H1297 0.930 . S
C1305 C1303 1.419 . S
C1305 C1306 1.362 . S
C1306 H1298 0.930 . S
C1306 C1305 1.362 . S
C1306 C1309 1.409 . S
C1307 H1299 0.930 . S
C1307 C1308 1.355 . S
C1307 C1309 1.415 . S
C1308 C1307 1.355 . S
C1308 C1310 1.419 . S
C1309 C1304 1.425 . S
C1309 C1306 1.409 . S
C1309 C1307 1.415 . S
C1310 H1300 0.930 . S
C1310 C1308 1.419 . S
C1310 C1311 1.362 . S
C1311 H1301 0.930 . S
C1311 C1304 1.409 . S
C1311 C1310 1.362 . S
H1312 C1318 0.930 . S
H1313 C1321 0.930 . S
H1314 C1322 0.930 . S
H1315 C1323 0.930 . S
H1316 C1326 0.930 . S
H1317 C1327 0.930 . S
C1318 H1312 0.930 . S
C1318 C1319 1.355 1_554 S
C1318 C1320 1.415 . S
C1319 C1318 1.355 1_556 S
C1319 C1321 1.419 . S
C1320 C1318 1.415 . S
C1320 C1325 1.425 1_554 S
C1320 C1327 1.409 . S
C1321 H1313 0.930 . S
C1321 C1319 1.419 . S
C1321 C1322 1.362 . S
C1322 H1314 0.930 . S
C1322 C1321 1.362 . S
C1322 C1325 1.409 . S
C1323 H1315 0.930 . S
C1323 C1324 1.355 1_556 S
C1323 C1325 1.415 . S
C1324 C1323 1.355 1_554 S
C1324 C1326 1.419 . S
C1325 C1320 1.425 1_556 S
C1325 C1322 1.409 . S
C1325 C1323 1.415 . S
C1326 H1316 0.930 . S
C1326 C1324 1.419 . S
C1326 C1327 1.362 . S
C1327 H1317 0.930 . S
C1327 C1320 1.409 . S
C1327 C1326 1.362 . S
H1328 C1334 0.930 . S
H1329 C1337 0.930 . S
H1330 C1338 0.930 . S
H1331 C1339 0.930 . S
H1332 C1342 0.930 . S
H1333 C1343 0.930 . S
C1334 H1328 0.930 . S
C1334 C1335 1.357 . S
C1334 C1336 1.415 . S
C1335 C1334 1.357 . S
C1335 C1337 1.416 1_556 S
C1336 C1334 1.415 . S
C1336 C1341 1.425 1_556 S
C1336 C1343 1.409 . S
C1337 H1329 0.930 . S
C1337 C1335 1.416 1_554 S
C1337 C1338 1.362 . S
C1338 H1330 0.930 . S
C1338 C1337 1.362 . S
C1338 C1341 1.409 . S
C1339 H1331 0.930 . S
C1339 C1340 1.357 . S
C1339 C1341 1.415 . S
C1340 C1339 1.357 . S
C1340 C1342 1.416 1_554 S
C1341 C1336 1.425 1_554 S
C1341 C1338 1.409 . S
C1341 C1339 1.415 . S
C1342 H1332 0.930 . S
C1342 C1340 1.416 1_556 S
C1342 C1343 1.362 . S
C1343 H1333 0.930 . S
C1343 C1336 1.409 . S
C1343 C1342 1.362 . S
H1344 C1350 0.930 . S
H1345 C1353 0.930 . S
H1346 C1354 0.930 . S
H1347 C1355 0.930 . S
H1348 C1358 0.930 . S
H1349 C1359 0.930 . S
C1350 H1344 0.930 . S
C1350 C1351 1.355 . S
C1350 C1352 1.415 . S
C1351 C1350 1.355 . S
C1351 C1353 1.419 . S
C1352 C1350 1.415 . S
C1352 C1357 1.425 . S
C1352 C1359 1.409 . S
C1353 H1345 0.930 . S
C1353 C1351 1.419 . S
C1353 C1354 1.362 . S
C1354 H1346 0.930 . S
C1354 C1353 1.362 . S
C1354 C1357 1.409 . S
C1355 H1347 0.930 . S
C1355 C1356 1.355 . S
C1355 C1357 1.415 . S
C1356 C1355 1.355 . S
C1356 C1358 1.419 . S
C1357 C1352 1.425 . S
C1357 C1354 1.409 . S
C1357 C1355 1.415 . S
C1358 H1348 0.930 . S
C1358 C1356 1.419 . S
C1358 C1359 1.362 . S
C1359 H1349 0.930 . S
C1359 C1352 1.409 . S
C1359 C1358 1.362 . S
H1360 C1366 0.930 . S
H1361 C1369 0.930 . S
H1362 C1370 0.930 . S
H1363 C1371 0.930 . S
H1364 C1374 0.930 . S
H1365 C1375 0.930 . S
C1366 H1360 0.930 . S
C1366 C1367 1.355 . S
C1366 C1368 1.415 . S
C1367 C1366 1.355 . S
C1367 C1369 1.419 . S
C1368 C1366 1.415 . S
C1368 C1373 1.425 . S
C1368 C1375 1.409 . S
C1369 H1361 0.930 . S
C1369 C1367 1.419 . S
C1369 C1370 1.362 . S
C1370 H1362 0.930 . S
C1370 C1369 1.362 . S
C1370 C1373 1.409 . S
C1371 H1363 0.930 . S
C1371 C1372 1.355 . S
C1371 C1373 1.415 . S
C1372 C1371 1.355 . S
C1372 C1374 1.419 . S
C1373 C1368 1.425 . S
C1373 C1370 1.409 . S
C1373 C1371 1.415 . S
C1374 H1364 0.930 . S
C1374 C1372 1.419 . S
C1374 C1375 1.362 . S
C1375 H1365 0.930 . S
C1375 C1368 1.409 . S
C1375 C1374 1.362 . S
H1376 C1382 0.930 . S
H1377 C1385 0.930 . S
H1378 C1386 0.930 . S
H1379 C1387 0.930 . S
H1380 C1390 0.930 . S
H1381 C1391 0.930 . S
C1382 H1376 0.930 . S
C1382 C1383 1.355 . S
C1382 C1384 1.415 . S
C1383 C1382 1.355 . S
C1383 C1385 1.419 . S
C1384 C1382 1.415 . S
C1384 C1389 1.425 . S
C1384 C1391 1.409 . S
C1385 H1377 0.930 . S
C1385 C1383 1.419 . S
C1385 C1386 1.362 . S
C1386 H1378 0.930 . S
C1386 C1385 1.362 . S
C1386 C1389 1.409 . S
C1387 H1379 0.930 . S
C1387 C1388 1.355 . S
C1387 C1389 1.415 . S
C1388 C1387 1.355 . S
C1388 C1390 1.419 . S
C1389 C1384 1.425 . S
C1389 C1386 1.409 . S
C1389 C1387 1.415 . S
C1390 H1380 0.930 . S
C1390 C1388 1.419 . S
C1390 C1391 1.362 . S
C1391 H1381 0.930 . S
C1391 C1384 1.409 . S
C1391 C1390 1.362 . S
H1392 C1398 0.930 . S
H1393 C1401 0.930 . S
H1394 C1402 0.930 . S
H1395 C1403 0.930 . S
H1396 C1406 0.930 . S
H1397 C1407 0.930 . S
C1398 H1392 0.930 . S
C1398 C1399 1.355 . S
C1398 C1400 1.415 . S
C1399 C1398 1.355 . S
C1399 C1401 1.419 . S
C1400 C1398 1.415 . S
C1400 C1405 1.425 . S
C1400 C1407 1.409 . S
C1401 H1393 0.930 . S
C1401 C1399 1.419 . S
C1401 C1402 1.362 . S
C1402 H1394 0.930 . S
C1402 C1401 1.362 . S
C1402 C1405 1.409 . S
C1403 H1395 0.930 . S
C1403 C1404 1.355 . S
C1403 C1405 1.415 . S
C1404 C1403 1.355 . S
C1404 C1406 1.419 . S
C1405 C1400 1.425 . S
C1405 C1402 1.409 . S
C1405 C1403 1.415 . S
C1406 H1396 0.930 . S
C1406 C1404 1.419 . S
C1406 C1407 1.362 . S
C1407 H1397 0.930 . S
C1407 C1400 1.409 . S
C1407 C1406 1.362 . S
H1408 C1414 0.930 . S
H1409 C1417 0.930 . S
H1410 C1418 0.930 . S
H1411 C1419 0.930 . S
H1412 C1422 0.930 . S
H1413 C1423 0.930 . S
C1414 H1408 0.930 . S
C1414 C1415 1.355 . S
C1414 C1416 1.415 . S
C1415 C1414 1.355 . S
C1415 C1417 1.419 . S
C1416 C1414 1.415 . S
C1416 C1421 1.425 . S
C1416 C1423 1.409 . S
C1417 H1409 0.930 . S
C1417 C1415 1.419 . S
C1417 C1418 1.362 . S
C1418 H1410 0.930 . S
C1418 C1417 1.362 . S
C1418 C1421 1.409 . S
C1419 H1411 0.930 . S
C1419 C1420 1.355 . S
C1419 C1421 1.415 . S
C1420 C1419 1.355 . S
C1420 C1422 1.419 . S
C1421 C1416 1.425 . S
C1421 C1418 1.409 . S
C1421 C1419 1.415 . S
C1422 H1412 0.930 . S
C1422 C1420 1.419 . S
C1422 C1423 1.362 . S
C1423 H1413 0.930 . S
C1423 C1416 1.409 . S
C1423 C1422 1.362 . S
H1424 C1430 0.930 . S
H1425 C1433 0.930 . S
H1426 C1434 0.930 . S
H1427 C1435 0.930 . S
H1428 C1438 0.930 . S
H1429 C1439 0.930 . S
C1430 H1424 0.930 . S
C1430 C1431 1.355 . S
C1430 C1432 1.415 . S
C1431 C1430 1.355 . S
C1431 C1433 1.419 . S
C1432 C1430 1.415 . S
C1432 C1437 1.425 . S
C1432 C1439 1.409 . S
C1433 H1425 0.930 . S
C1433 C1431 1.419 . S
C1433 C1434 1.362 . S
C1434 H1426 0.930 . S
C1434 C1433 1.362 . S
C1434 C1437 1.409 . S
C1435 H1427 0.930 . S
C1435 C1436 1.355 . S
C1435 C1437 1.415 . S
C1436 C1435 1.355 . S
C1436 C1438 1.419 . S
C1437 C1432 1.425 . S
C1437 C1434 1.409 . S
C1437 C1435 1.415 . S
C1438 H1428 0.930 . S
C1438 C1436 1.419 . S
C1438 C1439 1.362 . S
C1439 H1429 0.930 . S
C1439 C1432 1.409 . S
C1439 C1438 1.362 . S
H1440 C1446 0.930 . S
H1441 C1449 0.930 . S
H1442 C1450 0.930 . S
H1443 C1451 0.930 . S
H1444 C1454 0.930 . S
H1445 C1455 0.930 . S
C1446 H1440 0.930 . S
C1446 C1447 1.355 . S
C1446 C1448 1.415 . S
C1447 C1446 1.355 . S
C1447 C1449 1.419 . S
C1448 C1446 1.415 . S
C1448 C1453 1.425 . S
C1448 C1455 1.409 . S
C1449 H1441 0.930 . S
C1449 C1447 1.419 . S
C1449 C1450 1.362 . S
C1450 H1442 0.930 . S
C1450 C1449 1.362 . S
C1450 C1453 1.409 . S
C1451 H1443 0.930 . S
C1451 C1452 1.355 . S
C1451 C1453 1.415 . S
C1452 C1451 1.355 . S
C1452 C1454 1.419 . S
C1453 C1448 1.425 . S
C1453 C1450 1.409 . S
C1453 C1451 1.415 . S
C1454 H1444 0.930 . S
C1454 C1452 1.419 . S
C1454 C1455 1.362 . S
C1455 H1445 0.930 . S
C1455 C1448 1.409 . S
C1455 C1454 1.362 . S
H1456 C1462 0.930 . S
H1457 C1465 0.930 . S
H1458 C1466 0.930 . S
H1459 C1467 0.930 . S
H1460 C1470 0.930 . S
H1461 C1471 0.930 . S
C1462 H1456 0.930 . S
C1462 C1463 1.355 . S
C1462 C1464 1.415 . S
C1463 C1462 1.355 . S
C1463 C1465 1.419 . S
C1464 C1462 1.415 . S
C1464 C1469 1.425 . S
C1464 C1471 1.409 . S
C1465 H1457 0.930 . S
C1465 C1463 1.419 . S
C1465 C1466 1.362 . S
C1466 H1458 0.930 . S
C1466 C1465 1.362 . S
C1466 C1469 1.409 . S
C1467 H1459 0.930 . S
C1467 C1468 1.355 . S
C1467 C1469 1.415 . S
C1468 C1467 1.355 . S
C1468 C1470 1.419 . S
C1469 C1464 1.425 . S
C1469 C1466 1.409 . S
C1469 C1467 1.415 . S
C1470 H1460 0.930 . S
C1470 C1468 1.419 . S
C1470 C1471 1.362 . S
C1471 H1461 0.930 . S
C1471 C1464 1.409 . S
C1471 C1470 1.362 . S
C455 C7 1.182 . S
C460 C49 1.194 . S
C471 C35 1.234 . S
C476 C21 1.248 . S
C487 C63 1.181 . S
C492 C105 1.191 . S
C503 C91 1.189 . S
C508 C77 1.187 . S
C519 C119 1.172 . S
C524 C161 1.166 . S
C535 C147 1.183 . S
C540 C133 1.174 . S
C551 C175 1.163 . S
C556 C217 1.169 . S
C567 C189 1.226 . S
C572 C203 1.235 . S
C583 C273 1.210 . S
C588 C231 1.221 . S
C599 C245 1.183 . S
C604 C259 1.195 . S
C615 C287 1.161 . S
C620 C329 1.163 . S
C631 C315 1.195 . S
C636 C301 1.183 . S
C647 C343 1.186 . S
C652 C385 1.199 . S
C663 C371 1.195 . S
C668 C357 1.191 . S
C679 C399 1.224 . S
C684 C441 1.218 . S
C695 C413 1.241 . S
C700 C427 1.255 . S
C711 C176 1.519 . S
C716 C8 1.519 . S
C727 C22 1.519 . S
C732 C302 1.519 . S
C743 C36 1.510 . S
C748 C92 1.511 . S
C759 C442 1.511 . S
C764 C50 1.510 . S
C775 C64 1.521 . S
C780 C120 1.521 . S
C791 C246 1.520 . S
C796 C78 1.520 . S
C807 C386 1.510 . S
C812 C106 1.511 . S
C823 C414 1.520 . S
C828 C134 1.520 . S
C839 C204 1.512 . S
C844 C148 1.512 . S
C855 C330 1.512 . S
C860 C162 1.512 . S
C871 C190 1.520 . S
C876 C358 1.520 . S
C887 C274 1.510 . S
C892 C218 1.510 . S
C903 C400 1.514 . S
C908 C232 1.514 . S
C919 C316 1.506 . S
C924 C260 1.506 . S
C935 C344 1.516 . S
C940 C288 1.516 . S
C951 C372 1.507 . S
C956 C428 1.507 . S
C967 C143 1.426 . S
C972 C3 1.392 . S
C983 C17 1.427 . S
C988 C157 1.458 . S
C999 C115 1.416 . S
C1004 C31 1.378 . S
C1015 C129 1.429 . S
C1020 C45 1.391 . S
C1031 C59 1.426 . S
C1036 C199 1.458 . S
C1047 C73 1.384 . S
C1052 C213 1.382 . S
C1063 C171 1.450 . S
C1068 C87 1.429 . S
C1079 C101 1.395 . S
C1084 C185 1.424 . S
C1095 C367 1.446 . S
C1100 C227 1.445 . S
C1111 C381 1.448 . S
C1116 C241 1.418 . S
C1127 C255 1.450 . S
C1132 C339 1.467 . S
C1143 C269 1.468 . S
C1148 C353 1.458 . S
C1159 C283 1.362 . S
C1164 C423 1.379 . S
C1175 C297 1.451 . S
C1180 C437 1.437 . S
C1191 C395 1.438 . S
C1196 C311 1.464 . S
C1207 C409 1.388 . S
C1212 C325 1.380 . S
C1223 C9 1.439 . S
C1228 C359 1.442 . S
C1239 C345 1.478 . S
C1244 C23 1.478 1_655 S
C1255 C37 1.461 1_554 S
C1260 C387 1.461 . S
C1271 C51 1.424 1_655 S
C1276 C373 1.424 1_554 S
C1287 C65 1.446 . S
C1292 C415 1.450 . S
C1303 C79 1.478 1_455 S
C1308 C401 1.477 . S
C1319 C443 1.434 1_556 S
C1324 C93 1.434 . S
C1335 C429 1.424 1_556 S
C1340 C107 1.424 1_455 S
C1351 C247 1.435 . S
C1356 C121 1.437 . S
C1367 C233 1.434 . S
C1372 C135 1.436 1_655 S
C1383 C149 1.462 . S
C1388 C275 1.458 . S
C1399 C163 1.425 1_655 S
C1404 C261 1.426 . S
C1415 C303 1.433 . S
C1420 C177 1.434 . S
C1431 C191 1.433 1_455 S
C1436 C289 1.434 . S
C1447 C205 1.447 . S
C1452 C331 1.451 . S
C1463 C219 1.465 1_455 S
C1468 C317 1.463 . S
