# Generated by pormake.
# Topology sod-h, (3)-cn, num edge types: 1
# Building blocks:
#     Node 0, Type 0, BuildingBlock: OLANEW_clean_sbu_2, # of connection points: 3
#     Node 1, Type 0, BuildingBlock: OLANEW_clean_sbu_2, # of connection points: 3
#     Node 2, Type 0, BuildingBlock: OLANEW_clean_sbu_2, # of connection points: 3
#     Node 3, Type 0, BuildingBlock: OLANEW_clean_sbu_2, # of connection points: 3
#     Node 4, Type 0, BuildingBlock: OLANEW_clean_sbu_2, # of connection points: 3
#     Node 5, Type 0, BuildingBlock: OLANEW_clean_sbu_2, # of connection points: 3
#     Node 6, Type 0, BuildingBlock: OLANEW_clean_sbu_2, # of connection points: 3
#     Node 7, Type 0, BuildingBlock: OLANEW_clean_sbu_2, # of connection points: 3
#     Node 8, Type 0, BuildingBlock: OLANEW_clean_sbu_2, # of connection points: 3
#     Node 9, Type 0, BuildingBlock: OLANEW_clean_sbu_2, # of connection points: 3
#     Node 10, Type 0, BuildingBlock: OLANEW_clean_sbu_2, # of connection points: 3
#     Node 11, Type 0, BuildingBlock: OLANEW_clean_sbu_2, # of connection points: 3
#     Node 12, Type 0, BuildingBlock: OLANEW_clean_sbu_2, # of connection points: 3
#     Node 13, Type 0, BuildingBlock: OLANEW_clean_sbu_2, # of connection points: 3
#     Node 14, Type 0, BuildingBlock: OLANEW_clean_sbu_2, # of connection points: 3
#     Node 15, Type 0, BuildingBlock: OLANEW_clean_sbu_2, # of connection points: 3
#     Node 16, Type 0, BuildingBlock: OLANEW_clean_sbu_2, # of connection points: 3
#     Node 17, Type 0, BuildingBlock: OLANEW_clean_sbu_2, # of connection points: 3
#     Node 18, Type 0, BuildingBlock: OLANEW_clean_sbu_2, # of connection points: 3
#     Node 19, Type 0, BuildingBlock: OLANEW_clean_sbu_2, # of connection points: 3
#     Node 20, Type 0, BuildingBlock: OLANEW_clean_sbu_2, # of connection points: 3
#     Node 21, Type 0, BuildingBlock: OLANEW_clean_sbu_2, # of connection points: 3
#     Node 22, Type 0, BuildingBlock: OLANEW_clean_sbu_2, # of connection points: 3
#     Node 23, Type 0, BuildingBlock: OLANEW_clean_sbu_2, # of connection points: 3
#     Node 24, Type 0, BuildingBlock: OLANEW_clean_sbu_2, # of connection points: 3
#     Node 25, Type 0, BuildingBlock: OLANEW_clean_sbu_2, # of connection points: 3
#     Node 26, Type 0, BuildingBlock: OLANEW_clean_sbu_2, # of connection points: 3
#     Node 27, Type 0, BuildingBlock: OLANEW_clean_sbu_2, # of connection points: 3
#     Node 28, Type 0, BuildingBlock: OLANEW_clean_sbu_2, # of connection points: 3
#     Node 29, Type 0, BuildingBlock: OLANEW_clean_sbu_2, # of connection points: 3
#     Node 30, Type 0, BuildingBlock: OLANEW_clean_sbu_2, # of connection points: 3
#     Node 31, Type 0, BuildingBlock: OLANEW_clean_sbu_2, # of connection points: 3
#     Node 32, Type 0, BuildingBlock: OLANEW_clean_sbu_2, # of connection points: 3
#     Node 33, Type 0, BuildingBlock: OLANEW_clean_sbu_2, # of connection points: 3
#     Node 34, Type 0, BuildingBlock: OLANEW_clean_sbu_2, # of connection points: 3
#     Node 35, Type 0, BuildingBlock: OLANEW_clean_sbu_2, # of connection points: 3
#     Node 36, Type 0, BuildingBlock: OLANEW_clean_sbu_2, # of connection points: 3
#     Node 37, Type 0, BuildingBlock: OLANEW_clean_sbu_2, # of connection points: 3
#     Node 38, Type 0, BuildingBlock: OLANEW_clean_sbu_2, # of connection points: 3
#     Node 39, Type 0, BuildingBlock: OLANEW_clean_sbu_2, # of connection points: 3
#     Node 40, Type 0, BuildingBlock: OLANEW_clean_sbu_2, # of connection points: 3
#     Node 41, Type 0, BuildingBlock: OLANEW_clean_sbu_2, # of connection points: 3
#     Node 42, Type 0, BuildingBlock: OLANEW_clean_sbu_2, # of connection points: 3
#     Node 43, Type 0, BuildingBlock: OLANEW_clean_sbu_2, # of connection points: 3
#     Node 44, Type 0, BuildingBlock: OLANEW_clean_sbu_2, # of connection points: 3
#     Node 45, Type 0, BuildingBlock: OLANEW_clean_sbu_2, # of connection points: 3
#     Node 46, Type 0, BuildingBlock: OLANEW_clean_sbu_2, # of connection points: 3
#     Node 47, Type 0, BuildingBlock: OLANEW_clean_sbu_2, # of connection points: 3
#     Edge 48, Type (0, 0), None
#     Edge 49, Type (0, 0), None
#     Edge 50, Type (0, 0), None
#     Edge 51, Type (0, 0), None
#     Edge 52, Type (0, 0), None
#     Edge 53, Type (0, 0), None
#     Edge 54, Type (0, 0), None
#     Edge 55, Type (0, 0), None
#     Edge 56, Type (0, 0), None
#     Edge 57, Type (0, 0), None
#     Edge 58, Type (0, 0), None
#     Edge 59, Type (0, 0), None
#     Edge 60, Type (0, 0), None
#     Edge 61, Type (0, 0), None
#     Edge 62, Type (0, 0), None
#     Edge 63, Type (0, 0), None
#     Edge 64, Type (0, 0), None
#     Edge 65, Type (0, 0), None
#     Edge 66, Type (0, 0), None
#     Edge 67, Type (0, 0), None
#     Edge 68, Type (0, 0), None
#     Edge 69, Type (0, 0), None
#     Edge 70, Type (0, 0), None
#     Edge 71, Type (0, 0), None
#     Edge 72, Type (0, 0), None
#     Edge 73, Type (0, 0), None
#     Edge 74, Type (0, 0), None
#     Edge 75, Type (0, 0), None
#     Edge 76, Type (0, 0), None
#     Edge 77, Type (0, 0), None
#     Edge 78, Type (0, 0), None
#     Edge 79, Type (0, 0), None
#     Edge 80, Type (0, 0), None
#     Edge 81, Type (0, 0), None
#     Edge 82, Type (0, 0), None
#     Edge 83, Type (0, 0), None
#     Edge 84, Type (0, 0), None
#     Edge 85, Type (0, 0), None
#     Edge 86, Type (0, 0), None
#     Edge 87, Type (0, 0), None
#     Edge 88, Type (0, 0), None
#     Edge 89, Type (0, 0), None
#     Edge 90, Type (0, 0), None
#     Edge 91, Type (0, 0), None
#     Edge 92, Type (0, 0), None
#     Edge 93, Type (0, 0), None
#     Edge 94, Type (0, 0), None
#     Edge 95, Type (0, 0), None
#     Edge 96, Type (0, 0), None
#     Edge 97, Type (0, 0), None
#     Edge 98, Type (0, 0), None
#     Edge 99, Type (0, 0), None
#     Edge 100, Type (0, 0), None
#     Edge 101, Type (0, 0), None
#     Edge 102, Type (0, 0), None
#     Edge 103, Type (0, 0), None
#     Edge 104, Type (0, 0), None
#     Edge 105, Type (0, 0), None
#     Edge 106, Type (0, 0), None
#     Edge 107, Type (0, 0), None
#     Edge 108, Type (0, 0), None
#     Edge 109, Type (0, 0), None
#     Edge 110, Type (0, 0), None
#     Edge 111, Type (0, 0), None
#     Edge 112, Type (0, 0), None
#     Edge 113, Type (0, 0), None
#     Edge 114, Type (0, 0), None
#     Edge 115, Type (0, 0), None
#     Edge 116, Type (0, 0), None
#     Edge 117, Type (0, 0), None
#     Edge 118, Type (0, 0), None
#     Edge 119, Type (0, 0), None
# Relax obj value: 0.006
# Max RMSD: 0.028
# Mean RMSD: 0.028
data_MOF--net-sod-h--node1-OLANEW_clean_sbu_2--edge1-none
_symmetry_space_group_name_H-M    P1
_symmetry_Int_Tables_number       1
_symmetry_cell_setting            triclinic
loop_
_symmetry_equiv_pos_as_xyz
'x, y, z'
_cell_length_a     51.168684
_cell_length_b     51.404484
_cell_length_c     51.676777
_cell_angle_alpha  89.998914
_cell_angle_beta   90.000007
_cell_angle_gamma 90.027069
loop_
_atom_site_label
_atom_site_type_symbol
_atom_site_fract_x
_atom_site_fract_y
_atom_site_fract_z
_atom_type_partial_charge
O0 O 0.14873 0.2361 0.71619 0.0
Cd1 Cd 0.14364 0.20827 0.67829 0.0
O2 O 0.10842 0.22403 0.72347 0.0
Cd3 Cd 0.07209 0.2197 0.74528 0.0
O4 O 0.03112 0.20864 0.74944 0.0
C5 C 0.01488 0.22065 0.76366 0.0
O6 O 0.02281 0.24017 0.77804 0.0
C7 C 0.12838 0.23709 0.73019 0.0
C8 C 0.15483 0.15704 0.6913 0.0
O9 O 0.17169 0.17103 0.67938 0.0
O10 O 0.13261 0.16705 0.69681 0.0
O11 O 0.75646 0.64684 0.21679 0.0
Cd12 Cd 0.78538 0.64173 0.17957 0.0
O13 O 0.76805 0.60661 0.22423 0.0
Cd14 Cd 0.77173 0.57023 0.24579 0.0
O15 O 0.78279 0.5294 0.24958 0.0
C16 C 0.7709 0.51311 0.26382 0.0
O17 O 0.75143 0.52086 0.27846 0.0
C18 C 0.75483 0.62651 0.23063 0.0
C19 C 0.83676 0.65305 0.19299 0.0
O20 O 0.8228 0.66973 0.18083 0.0
O21 O 0.82662 0.631 0.19866 0.0
O22 O 0.34524 0.2533 0.71621 0.0
Cd23 Cd 0.35031 0.28119 0.67835 0.0
O24 O 0.38555 0.26534 0.7235 0.0
Cd25 Cd 0.4219 0.26964 0.74528 0.0
O26 O 0.46287 0.2807 0.74941 0.0
C27 C 0.47912 0.26872 0.76364 0.0
O28 O 0.47119 0.24922 0.77807 0.0
C29 C 0.3656 0.25228 0.73021 0.0
C30 C 0.33903 0.33239 0.69141 0.0
O31 O 0.32219 0.31838 0.67947 0.0
O32 O 0.36126 0.32241 0.69692 0.0
O33 O 0.73745 0.84251 0.21679 0.0
Cd34 Cd 0.70852 0.84762 0.17957 0.0
O35 O 0.72585 0.88273 0.22423 0.0
Cd36 Cd 0.72218 0.91912 0.24579 0.0
O37 O 0.71111 0.95995 0.24958 0.0
C38 C 0.723 0.97623 0.26382 0.0
O39 O 0.74247 0.96848 0.27846 0.0
C40 C 0.73907 0.86284 0.23064 0.0
C41 C 0.65714 0.8363 0.19299 0.0
O42 O 0.6711 0.81962 0.18083 0.0
O43 O 0.66729 0.85835 0.19866 0.0
O44 O 0.1487 0.25329 0.76814 0.0
Cd45 Cd 0.14358 0.2811 0.80605 0.0
O46 O 0.10842 0.26536 0.76081 0.0
Cd47 Cd 0.07211 0.2697 0.73896 0.0
O48 O 0.03116 0.28077 0.73476 0.0
C49 C 0.01492 0.26876 0.72053 0.0
O50 O 0.02284 0.24923 0.70616 0.0
C51 C 0.12837 0.25231 0.75411 0.0
C52 C 0.15488 0.33234 0.7931 0.0
O53 O 0.1717 0.31832 0.80503 0.0
O54 O 0.13265 0.32235 0.78755 0.0
O55 O 0.7371 0.64677 0.26793 0.0
Cd56 Cd 0.70818 0.64157 0.30514 0.0
O57 O 0.72553 0.60655 0.26041 0.0
Cd58 Cd 0.72187 0.5702 0.23876 0.0
O59 O 0.71088 0.52935 0.23488 0.0
C60 C 0.72279 0.51313 0.2206 0.0
O61 O 0.74225 0.52097 0.20597 0.0
C62 C 0.73874 0.62647 0.25404 0.0
C63 C 0.65683 0.65305 0.29177 0.0
O64 O 0.67085 0.66966 0.30398 0.0
O65 O 0.6669 0.631 0.28602 0.0
O66 O 0.34527 0.23601 0.76812 0.0
Cd67 Cd 0.35037 0.20814 0.80599 0.0
O68 O 0.38556 0.22396 0.76078 0.0
Cd69 Cd 0.42188 0.21966 0.73896 0.0
O70 O 0.46284 0.2086 0.7348 0.0
C71 C 0.47909 0.22058 0.72056 0.0
O72 O 0.47117 0.24008 0.70614 0.0
C73 C 0.3656 0.23702 0.7541 0.0
C74 C 0.33898 0.15694 0.79299 0.0
O75 O 0.32219 0.17097 0.80495 0.0
O76 O 0.36122 0.1669 0.78744 0.0
O77 O 0.7568 0.84258 0.26793 0.0
Cd78 Cd 0.78573 0.84777 0.30514 0.0
O79 O 0.76838 0.8828 0.26041 0.0
Cd80 Cd 0.77203 0.91915 0.23877 0.0
O81 O 0.78302 0.96 0.23488 0.0
C82 C 0.77111 0.97622 0.2206 0.0
O83 O 0.75165 0.96838 0.20597 0.0
C84 C 0.75517 0.86288 0.25404 0.0
C85 C 0.83707 0.83629 0.29177 0.0
O86 O 0.82305 0.81969 0.30398 0.0
O87 O 0.827 0.85835 0.28602 0.0
O88 O 0.72849 0.13599 0.22164 0.0
Cd89 Cd 0.68995 0.13096 0.19438 0.0
O90 O 0.72053 0.09581 0.23333 0.0
Cd91 Cd 0.72742 0.06091 0.2566 0.0
O92 O 0.73304 0.02096 0.2698 0.0
C93 C 0.71763 0.00403 0.26045 0.0
O94 O 0.69896 0.01149 0.24467 0.0
C95 C 0.73509 0.11582 0.23419 0.0
C96 C 0.70145 0.1462 0.14411 0.0
O97 O 0.68895 0.16141 0.15935 0.0
O98 O 0.70823 0.12374 0.15243 0.0
O99 O 0.85438 0.22616 0.72177 0.0
Cd100 Cd 0.85951 0.18761 0.69478 0.0
O101 O 0.89473 0.21832 0.7335 0.0
Cd102 Cd 0.92982 0.22532 0.75669 0.0
O103 O 0.97003 0.23087 0.76971 0.0
C104 C 0.98692 0.21535 0.76048 0.0
O105 O 0.97927 0.19661 0.74494 0.0
C106 C 0.87465 0.23282 0.73427 0.0
C107 C 0.84492 0.19894 0.64429 0.0
O108 O 0.82937 0.18665 0.65938 0.0
O109 O 0.86743 0.2056 0.65285 0.0
O110 O 0.7654 0.35336 0.22163 0.0
Cd111 Cd 0.80394 0.35839 0.19436 0.0
O112 O 0.77337 0.39353 0.23333 0.0
Cd113 Cd 0.76648 0.42843 0.25659 0.0
O114 O 0.76086 0.46839 0.26979 0.0
C115 C 0.77627 0.48532 0.26044 0.0
O116 O 0.79494 0.47786 0.24466 0.0
C117 C 0.7588 0.37353 0.23418 0.0
C118 C 0.79242 0.34316 0.1441 0.0
O119 O 0.80492 0.32794 0.15933 0.0
O120 O 0.78564 0.36562 0.15242 0.0
O121 O 0.63962 0.26318 0.72176 0.0
Cd122 Cd 0.63449 0.30171 0.69474 0.0
O123 O 0.59927 0.27103 0.73348 0.0
Cd124 Cd 0.56418 0.26405 0.75668 0.0
O125 O 0.52397 0.25851 0.7697 0.0
C126 C 0.50708 0.27401 0.76045 0.0
O127 O 0.51472 0.29271 0.74487 0.0
C128 C 0.61935 0.25653 0.73426 0.0
C129 C 0.64909 0.29033 0.64426 0.0
O130 O 0.66464 0.30264 0.65934 0.0
O131 O 0.62658 0.28369 0.65283 0.0
O132 O 0.72846 0.35331 0.26245 0.0
Cd133 Cd 0.68992 0.35827 0.28973 0.0
O134 O 0.72049 0.39349 0.25082 0.0
Cd135 Cd 0.72736 0.42845 0.22762 0.0
O136 O 0.73291 0.46845 0.21452 0.0
C137 C 0.71747 0.48531 0.2239 0.0
O138 O 0.69881 0.47777 0.23967 0.0
C139 C 0.73505 0.3735 0.24993 0.0
C140 C 0.70146 0.34307 0.33999 0.0
O141 O 0.68896 0.32783 0.32477 0.0
O142 O 0.70823 0.36554 0.33166 0.0
O143 O 0.63962 0.22614 0.76235 0.0
Cd144 Cd 0.63448 0.18762 0.78938 0.0
O145 O 0.59925 0.21828 0.75065 0.0
Cd146 Cd 0.56415 0.22525 0.72748 0.0
O147 O 0.52395 0.23079 0.71447 0.0
C148 C 0.50704 0.21529 0.72374 0.0
O149 O 0.51467 0.19658 0.73931 0.0
C150 C 0.61935 0.23279 0.74986 0.0
C151 C 0.64908 0.19901 0.83986 0.0
O152 O 0.66462 0.1867 0.82478 0.0
O153 O 0.62657 0.20564 0.83129 0.0
O154 O 0.76543 0.13604 0.26245 0.0
Cd155 Cd 0.80397 0.13108 0.28973 0.0
O156 O 0.77341 0.09586 0.25082 0.0
Cd157 Cd 0.76654 0.0609 0.22762 0.0
O158 O 0.76099 0.0209 0.21452 0.0
C159 C 0.77643 0.00404 0.2239 0.0
O160 O 0.79509 0.01158 0.23966 0.0
C161 C 0.75884 0.11585 0.24993 0.0
C162 C 0.79243 0.14626 0.34 0.0
O163 O 0.80492 0.1615 0.32478 0.0
O164 O 0.78566 0.12379 0.33166 0.0
O165 O 0.85439 0.26323 0.76233 0.0
Cd166 Cd 0.85954 0.30178 0.78933 0.0
O167 O 0.89475 0.27108 0.75062 0.0
Cd168 Cd 0.92985 0.26408 0.72745 0.0
O169 O 0.97006 0.25853 0.71446 0.0
C170 C 0.98696 0.27406 0.72369 0.0
O171 O 0.97932 0.29279 0.73923 0.0
C172 C 0.87465 0.25657 0.74985 0.0
C173 C 0.84495 0.29044 0.83982 0.0
O174 O 0.8294 0.30273 0.82473 0.0
O175 O 0.86745 0.28379 0.83125 0.0
O176 O 0.23643 0.71944 0.14187 0.0
Cd177 Cd 0.20655 0.68271 0.13708 0.0
O178 O 0.22541 0.72674 0.10168 0.0
Cd179 Cd 0.22213 0.74753 0.06494 0.0
O180 O 0.21146 0.74961 0.02409 0.0
C181 C 0.22184 0.76495 0.00781 0.0
O182 O 0.23953 0.78179 0.01547 0.0
C183 C 0.23863 0.73309 0.12152 0.0
C184 C 0.15573 0.69685 0.14989 0.0
O185 O 0.16992 0.68416 0.16594 0.0
O186 O 0.16539 0.70276 0.1278 0.0
O187 O 0.23707 0.77027 0.34179 0.0
Cd188 Cd 0.20797 0.80754 0.34688 0.0
O189 O 0.22564 0.76281 0.38185 0.0
Cd190 Cd 0.22205 0.74134 0.41819 0.0
O191 O 0.21105 0.738 0.45887 0.0
C192 C 0.22252 0.7234 0.4751 0.0
O193 O 0.24153 0.70809 0.46741 0.0
C194 C 0.23885 0.7564 0.36204 0.0
C195 C 0.1567 0.79405 0.33511 0.0
O196 O 0.17078 0.80644 0.31873 0.0
O197 O 0.16668 0.78815 0.35706 0.0
O198 O 0.2294 0.72329 0.84872 0.0
Cd199 Cd 0.19179 0.69455 0.85389 0.0
O200 O 0.2209 0.7347 0.88867 0.0
Cd201 Cd 0.2266 0.75824 0.9235 0.0
O202 O 0.2311 0.7719 0.96327 0.0
C203 C 0.21691 0.76085 0.98017 0.0
O204 O 0.20008 0.74301 0.97282 0.0
C205 C 0.23542 0.73621 0.86878 0.0
C206 C 0.20398 0.64414 0.83877 0.0
O207 O 0.19109 0.6592 0.82371 0.0
O208 O 0.21098 0.65274 0.86096 0.0
O209 O 0.25683 0.71909 0.3418 0.0
Cd210 Cd 0.28594 0.68181 0.34688 0.0
O211 O 0.26826 0.72654 0.38186 0.0
Cd212 Cd 0.27185 0.74802 0.41819 0.0
O213 O 0.28284 0.75136 0.45887 0.0
C214 C 0.27136 0.76596 0.4751 0.0
O215 O 0.25236 0.78127 0.4674 0.0
C216 C 0.25506 0.73295 0.36204 0.0
C217 C 0.33721 0.6953 0.33511 0.0
O218 O 0.32313 0.68291 0.31873 0.0
O219 O 0.32723 0.7012 0.35706 0.0
O220 O 0.26447 0.76603 0.84872 0.0
Cd221 Cd 0.30208 0.79476 0.85388 0.0
O222 O 0.27297 0.75462 0.88866 0.0
Cd223 Cd 0.26727 0.73109 0.9235 0.0
O224 O 0.26278 0.71743 0.96327 0.0
C225 C 0.27697 0.72848 0.98017 0.0
O226 O 0.2938 0.74631 0.97281 0.0
C227 C 0.25845 0.7531 0.86878 0.0
C228 C 0.28988 0.84518 0.83878 0.0
O229 O 0.30277 0.83012 0.82371 0.0
O230 O 0.28289 0.83658 0.86097 0.0
O231 O 0.25748 0.76991 0.14187 0.0
Cd232 Cd 0.28735 0.80664 0.13708 0.0
O233 O 0.26849 0.7626 0.10168 0.0
Cd234 Cd 0.27176 0.74181 0.06494 0.0
O235 O 0.28243 0.73972 0.02408 0.0
C236 C 0.27204 0.72438 0.00781 0.0
O237 O 0.25436 0.70754 0.01548 0.0
C238 C 0.25528 0.75626 0.12152 0.0
C239 C 0.33818 0.7925 0.14988 0.0
O240 O 0.32398 0.80519 0.16593 0.0
O241 O 0.32852 0.78659 0.1278 0.0
O242 O 0.22906 0.7658 0.63398 0.0
Cd243 Cd 0.19106 0.79398 0.62877 0.0
O244 O 0.22071 0.75409 0.59408 0.0
Cd245 Cd 0.22702 0.73054 0.55936 0.0
O246 O 0.23232 0.71713 0.51961 0.0
C247 C 0.21724 0.727 0.50274 0.0
O248 O 0.19907 0.74343 0.51013 0.0
C249 C 0.23527 0.75291 0.61397 0.0
C250 C 0.20267 0.84461 0.64372 0.0
O251 O 0.18997 0.82943 0.65884 0.0
O252 O 0.20973 0.83603 0.62154 0.0
O253 O 0.26481 0.72358 0.63399 0.0
Cd254 Cd 0.30281 0.6954 0.62878 0.0
O255 O 0.27316 0.73528 0.59409 0.0
Cd256 Cd 0.26686 0.75883 0.55936 0.0
O257 O 0.26156 0.77223 0.5196 0.0
C258 C 0.27664 0.76237 0.50274 0.0
O259 O 0.29482 0.74594 0.51014 0.0
C260 C 0.2586 0.73647 0.61397 0.0
C261 C 0.2912 0.64477 0.64371 0.0
O262 O 0.30389 0.65995 0.65884 0.0
O263 O 0.28415 0.65335 0.62153 0.0
O264 O 0.91439 0.77868 0.24167 0.0
Cd265 Cd 0.9145 0.81739 0.26914 0.0
O266 O 0.91598 0.75244 0.27538 0.0
Cd267 Cd 0.92843 0.78457 0.30012 0.0
O268 O 0.96325 0.80905 0.29805 0.0
C269 C 0.98398 0.80174 0.30942 0.0
O270 O 0.98314 0.78146 0.32485 0.0
C271 C 0.91372 0.75581 0.25108 0.0
C272 C 0.86392 0.83006 0.28421 0.0
O273 O 0.87521 0.84251 0.26588 0.0
O274 O 0.87648 0.8118 0.29557 0.0
O275 O 0.21267 0.40867 0.74211 0.0
Cd276 Cd 0.17407 0.40918 0.76999 0.0
O277 O 0.23956 0.40938 0.77545 0.0
Cd278 Cd 0.20774 0.42123 0.801 0.0
O279 O 0.18311 0.45583 0.79929 0.0
C280 C 0.19086 0.4765 0.81033 0.0
O281 O 0.21156 0.47563 0.82533 0.0
C282 C 0.23577 0.4076 0.75117 0.0
C283 C 0.16114 0.35903 0.78547 0.0
O284 O 0.1485 0.37026 0.76722 0.0
O285 O 0.17969 0.37147 0.79657 0.0
O286 O 0.57951 0.71067 0.24167 0.0
Cd287 Cd 0.57941 0.67196 0.26914 0.0
O288 O 0.57792 0.7369 0.27538 0.0
Cd289 Cd 0.56548 0.70478 0.30012 0.0
O290 O 0.53066 0.6803 0.29805 0.0
C291 C 0.50992 0.6876 0.30942 0.0
O292 O 0.51077 0.70789 0.32485 0.0
C293 C 0.58018 0.73354 0.25108 0.0
C294 C 0.62999 0.65929 0.28421 0.0
O295 O 0.6187 0.64684 0.26588 0.0
O296 O 0.61743 0.67754 0.29557 0.0
O297 O 0.28107 0.08067 0.74199 0.0
Cd298 Cd 0.31967 0.08013 0.76986 0.0
O299 O 0.25418 0.07996 0.77533 0.0
Cd300 Cd 0.28599 0.06811 0.80088 0.0
O301 O 0.31065 0.03352 0.79921 0.0
C302 C 0.30293 0.01286 0.81028 0.0
O303 O 0.28224 0.01373 0.82529 0.0
C304 C 0.25797 0.08175 0.75105 0.0
C305 C 0.33267 0.13026 0.78535 0.0
O306 O 0.34529 0.11902 0.76709 0.0
O307 O 0.31411 0.11784 0.79645 0.0
O308 O 0.91436 0.71036 0.24314 0.0
Cd309 Cd 0.91427 0.67167 0.21563 0.0
O310 O 0.91581 0.7366 0.20943 0.0
Cd311 Cd 0.9282 0.70449 0.18465 0.0
O312 O 0.96327 0.68043 0.18697 0.0
C313 C 0.98403 0.68824 0.17597 0.0
O314 O 0.98304 0.7087 0.16077 0.0
C315 C 0.91367 0.73323 0.23373 0.0
C316 C 0.86363 0.65919 0.20055 0.0
O317 O 0.87488 0.64667 0.21886 0.0
O318 O 0.87627 0.67742 0.18922 0.0
O319 O 0.28129 0.40863 0.74253 0.0
Cd320 Cd 0.31987 0.40919 0.71463 0.0
O321 O 0.2544 0.40947 0.7092 0.0
Cd322 Cd 0.28622 0.42129 0.68363 0.0
O323 O 0.31117 0.45571 0.6849 0.0
C324 C 0.30386 0.47626 0.67336 0.0
O325 O 0.28333 0.47537 0.65814 0.0
C326 C 0.25818 0.40761 0.73347 0.0
C327 C 0.33278 0.35907 0.69908 0.0
O328 O 0.34543 0.37028 0.71734 0.0
O329 O 0.31422 0.37151 0.68801 0.0
O330 O 0.57954 0.77899 0.24314 0.0
Cd331 Cd 0.57963 0.81768 0.21563 0.0
O332 O 0.57809 0.75275 0.20943 0.0
Cd333 Cd 0.56571 0.78486 0.18465 0.0
O334 O 0.53064 0.80892 0.18697 0.0
C335 C 0.50988 0.80112 0.17597 0.0
O336 O 0.51086 0.78066 0.16077 0.0
C337 C 0.58024 0.75612 0.23373 0.0
C338 C 0.63027 0.83016 0.20055 0.0
O339 O 0.61903 0.84268 0.21886 0.0
O340 O 0.61764 0.81193 0.18922 0.0
O341 O 0.21245 0.08073 0.74241 0.0
Cd342 Cd 0.17387 0.0802 0.7145 0.0
O343 O 0.23934 0.0799 0.70907 0.0
Cd344 Cd 0.20752 0.06807 0.6835 0.0
O345 O 0.18259 0.03364 0.68481 0.0
C346 C 0.18993 0.01308 0.6733 0.0
O347 O 0.21047 0.01397 0.65809 0.0
C348 C 0.23555 0.08175 0.73335 0.0
C349 C 0.16103 0.13034 0.69896 0.0
O350 O 0.14836 0.11914 0.71721 0.0
O351 O 0.17957 0.11788 0.68789 0.0
O352 O 0.24378 0.9203 0.77506 0.0
Cd353 Cd 0.2696 0.92146 0.81482 0.0
O354 O 0.27892 0.92091 0.75037 0.0
Cd355 Cd 0.30305 0.93263 0.78322 0.0
O356 O 0.30073 0.96705 0.80784 0.0
C357 C 0.31248 0.98766 0.80093 0.0
O358 O 0.32852 0.98684 0.7811 0.0
C359 C 0.25423 0.91912 0.75275 0.0
C360 C 0.28304 0.8716 0.83069 0.0
O361 O 0.2642 0.88382 0.84156 0.0
O362 O 0.29564 0.88288 0.81246 0.0
O363 O 0.07924 0.74442 0.27709 0.0
Cd364 Cd 0.07926 0.77154 0.31595 0.0
O365 O 0.07765 0.77868 0.25147 0.0
Cd366 Cd 0.06515 0.80306 0.28377 0.0
O367 O 0.03011 0.80025 0.30771 0.0
C368 C 0.00931 0.81142 0.30023 0.0
O369 O 0.01021 0.82708 0.28017 0.0
C370 C 0.0799 0.75421 0.25448 0.0
C371 C 0.12987 0.7865 0.32875 0.0
O372 O 0.11854 0.76795 0.34093 0.0
O373 O 0.11733 0.79812 0.3107 0.0
O374 O 0.25009 0.56904 0.77503 0.0
Cd375 Cd 0.22427 0.56787 0.81478 0.0
O376 O 0.21494 0.56843 0.75034 0.0
Cd377 Cd 0.19082 0.5567 0.78318 0.0
O378 O 0.19311 0.5223 0.80783 0.0
C379 C 0.18133 0.5017 0.80096 0.0
O380 O 0.16528 0.50251 0.78114 0.0
C381 C 0.23964 0.57023 0.75271 0.0
C382 C 0.21082 0.61773 0.83068 0.0
O383 O 0.22967 0.6055 0.84154 0.0
O384 O 0.19823 0.60645 0.81244 0.0
O385 O 0.41467 0.74492 0.27709 0.0
Cd386 Cd 0.41464 0.7178 0.31595 0.0
O387 O 0.41625 0.71067 0.25147 0.0
Cd388 Cd 0.42876 0.68629 0.28376 0.0
O389 O 0.4638 0.6891 0.30771 0.0
C390 C 0.4846 0.67793 0.30023 0.0
O391 O 0.4837 0.66227 0.28017 0.0
C392 C 0.41401 0.73514 0.25448 0.0
C393 C 0.36404 0.70285 0.32876 0.0
O394 O 0.37536 0.7214 0.34094 0.0
O395 O 0.37657 0.69123 0.3107 0.0
O396 O 0.24577 0.5691 0.70724 0.0
Cd397 Cd 0.27165 0.56822 0.6675 0.0
O398 O 0.28092 0.56858 0.73193 0.0
Cd399 Cd 0.30502 0.55687 0.69908 0.0
O400 O 0.30234 0.52215 0.67492 0.0
C401 C 0.31369 0.5015 0.68234 0.0
O402 O 0.32952 0.50246 0.70233 0.0
C403 C 0.25622 0.57029 0.72956 0.0
C404 C 0.28464 0.61826 0.65172 0.0
O405 O 0.26592 0.60585 0.64081 0.0
O406 O 0.29732 0.60708 0.66994 0.0
O407 O 0.41472 0.74248 0.20916 0.0
Cd408 Cd 0.41515 0.76954 0.17025 0.0
O409 O 0.41643 0.77673 0.23479 0.0
Cd410 Cd 0.42895 0.80115 0.20251 0.0
O411 O 0.46383 0.79879 0.17829 0.0
C412 C 0.48451 0.81044 0.18538 0.0
O413 O 0.48359 0.82632 0.20527 0.0
C414 C 0.41407 0.75227 0.23177 0.0
C415 C 0.36482 0.78473 0.15673 0.0
O416 O 0.37618 0.76606 0.14477 0.0
O417 O 0.37717 0.79632 0.17493 0.0
O418 O 0.24809 0.92026 0.70727 0.0
Cd419 Cd 0.22221 0.92115 0.66754 0.0
O420 O 0.21295 0.92078 0.73196 0.0
Cd421 Cd 0.18884 0.9325 0.69912 0.0
O422 O 0.1915 0.9672 0.67493 0.0
C423 C 0.18012 0.98784 0.68231 0.0
O424 O 0.16428 0.98689 0.70229 0.0
C425 C 0.23765 0.91907 0.72959 0.0
C426 C 0.20923 0.87112 0.65173 0.0
O427 O 0.22795 0.88353 0.64083 0.0
O428 O 0.19655 0.88229 0.66996 0.0
O429 O 0.07919 0.74687 0.20916 0.0
Cd430 Cd 0.07876 0.71982 0.17025 0.0
O431 O 0.07747 0.71262 0.23479 0.0
Cd432 Cd 0.06496 0.6882 0.20251 0.0
O433 O 0.03008 0.69057 0.17829 0.0
C434 C 0.0094 0.67892 0.18538 0.0
O435 O 0.01031 0.66303 0.20527 0.0
C436 C 0.07983 0.73708 0.23177 0.0
C437 C 0.12909 0.70463 0.15673 0.0
O438 O 0.11773 0.72329 0.14478 0.0
O439 O 0.11674 0.69303 0.17493 0.0
O440 O 0.78127 0.2434 0.91411 0.0
Cd441 Cd 0.82091 0.26989 0.91561 0.0
O442 O 0.75556 0.27782 0.91392 0.0
Cd443 Cd 0.78812 0.30289 0.92506 0.0
O444 O 0.81319 0.30143 0.95917 0.0
C445 C 0.80587 0.31296 0.97964 0.0
O446 O 0.78543 0.32838 0.97874 0.0
C447 C 0.75852 0.25327 0.91256 0.0
C448 C 0.83697 0.28365 0.86614 0.0
O449 O 0.84825 0.2651 0.87836 0.0
O450 O 0.81826 0.29582 0.87726 0.0
O451 O 0.78126 0.24597 0.57001 0.0
Cd452 Cd 0.82088 0.21948 0.56851 0.0
O453 O 0.75552 0.21154 0.5702 0.0
Cd454 Cd 0.78806 0.18648 0.55907 0.0
O455 O 0.81314 0.18793 0.52496 0.0
C456 C 0.80581 0.1764 0.50449 0.0
O457 O 0.78536 0.16098 0.50538 0.0
C458 C 0.75851 0.23609 0.57156 0.0
C459 C 0.83694 0.20573 0.61797 0.0
O460 O 0.84823 0.22428 0.60575 0.0
O461 O 0.81821 0.19356 0.60686 0.0
O462 O 0.74542 0.27877 0.0703 0.0
Cd463 Cd 0.77185 0.31834 0.06857 0.0
O464 O 0.7801 0.25331 0.07047 0.0
Cd465 Cd 0.80517 0.2858 0.05929 0.0
O466 O 0.80368 0.31077 0.02518 0.0
C467 C 0.81533 0.30355 0.00473 0.0
O468 O 0.83089 0.28326 0.00561 0.0
C469 C 0.75543 0.25617 0.07186 0.0
C470 C 0.78559 0.33486 0.11788 0.0
O471 O 0.76689 0.34587 0.10556 0.0
O472 O 0.7979 0.31618 0.10695 0.0
O473 O 0.71276 0.24326 0.57001 0.0
Cd474 Cd 0.67315 0.26974 0.56849 0.0
O475 O 0.73851 0.27768 0.57019 0.0
Cd476 Cd 0.70596 0.30275 0.55905 0.0
O477 O 0.68085 0.30131 0.52496 0.0
C478 C 0.68814 0.31286 0.50449 0.0
O479 O 0.70858 0.3283 0.50537 0.0
C480 C 0.73552 0.25313 0.57156 0.0
C481 C 0.65708 0.28353 0.61794 0.0
O482 O 0.64579 0.26497 0.60573 0.0
O483 O 0.67581 0.29569 0.60682 0.0
O484 O 0.74841 0.2106 0.0703 0.0
Cd485 Cd 0.72198 0.17103 0.06858 0.0
O486 O 0.71373 0.23606 0.07048 0.0
Cd487 Cd 0.68866 0.20356 0.05931 0.0
O488 O 0.69017 0.17862 0.02519 0.0
C489 C 0.67859 0.18588 0.00472 0.0
O490 O 0.66307 0.20621 0.0056 0.0
C491 C 0.7384 0.2332 0.07187 0.0
C492 C 0.70827 0.1545 0.1179 0.0
O493 O 0.72696 0.1435 0.10557 0.0
O494 O 0.69595 0.17318 0.10697 0.0
O495 O 0.71277 0.2461 0.91411 0.0
Cd496 Cd 0.67314 0.21962 0.91563 0.0
O497 O 0.73849 0.21168 0.91394 0.0
Cd498 Cd 0.70592 0.18662 0.92509 0.0
O499 O 0.68082 0.18806 0.95917 0.0
C500 C 0.68807 0.17648 0.97964 0.0
O501 O 0.70848 0.16102 0.97876 0.0
C502 C 0.73552 0.23623 0.91257 0.0
C503 C 0.65707 0.20582 0.86618 0.0
O504 O 0.64579 0.22437 0.87838 0.0
O505 O 0.67578 0.19366 0.8773 0.0
O506 O 0.74542 0.21057 0.41382 0.0
Cd507 Cd 0.77183 0.17101 0.41553 0.0
O508 O 0.78011 0.23604 0.41366 0.0
Cd509 Cd 0.80516 0.20355 0.42483 0.0
O510 O 0.80364 0.17859 0.45894 0.0
C511 C 0.81529 0.18581 0.4794 0.0
O512 O 0.83087 0.2061 0.47852 0.0
C513 C 0.75544 0.23317 0.41226 0.0
C514 C 0.78558 0.15453 0.36621 0.0
O515 O 0.76688 0.1435 0.37852 0.0
O516 O 0.79789 0.17321 0.37717 0.0
O517 O 0.74845 0.27874 0.41382 0.0
Cd518 Cd 0.72205 0.3183 0.41553 0.0
O519 O 0.71375 0.25327 0.41365 0.0
Cd520 Cd 0.68871 0.28576 0.42482 0.0
O521 O 0.69026 0.31071 0.45894 0.0
C522 C 0.67864 0.30346 0.47941 0.0
O523 O 0.66307 0.28316 0.47853 0.0
C524 C 0.73843 0.25613 0.41226 0.0
C525 C 0.7083 0.33479 0.36621 0.0
O526 O 0.727 0.34582 0.37852 0.0
O527 O 0.69599 0.31611 0.37715 0.0
loop_
_geom_bond_atom_site_label_1
_geom_bond_atom_site_label_2
_geom_bond_distance
_geom_bond_site_symmetry_2
_ccdc_geom_bond_type
O0 Cd1 2.300 . S
O0 C7 1.275 . S
Cd1 O0 2.300 . S
Cd1 O9 2.381 . S
Cd1 O10 2.378 . S
O2 Cd3 2.385 . S
O2 C7 1.255 . S
Cd3 O2 2.385 . S
Cd3 O4 2.317 . S
O4 Cd3 2.317 . S
O4 C5 1.232 . S
C5 O4 1.232 . S
C5 O6 1.218 1_455 S
O6 C5 1.218 1_655 S
C7 O0 1.275 . S
C7 O2 1.255 . S
C8 O9 1.258 . S
C8 O10 1.256 . S
O9 Cd1 2.381 . S
O9 C8 1.258 . S
O10 Cd1 2.378 . S
O10 C8 1.256 . S
O11 Cd12 2.300 . S
O11 C18 1.275 . S
Cd12 O11 2.300 . S
Cd12 O20 2.381 . S
Cd12 O21 2.378 . S
O13 Cd14 2.385 . S
O13 C18 1.255 . S
Cd14 O13 2.385 . S
Cd14 O15 2.317 . S
O15 Cd14 2.317 . S
O15 C16 1.232 . S
C16 O15 1.232 . S
C16 O17 1.218 . S
O17 C16 1.218 . S
C18 O11 1.275 . S
C18 O13 1.255 . S
C19 O20 1.258 . S
C19 O21 1.256 . S
O20 Cd12 2.381 . S
O20 C19 1.258 . S
O21 Cd12 2.378 . S
O21 C19 1.256 . S
O22 Cd23 2.300 . S
O22 C29 1.275 . S
Cd23 O22 2.300 . S
Cd23 O31 2.381 . S
Cd23 O32 2.378 . S
O24 Cd25 2.385 . S
O24 C29 1.255 . S
Cd25 O24 2.385 . S
Cd25 O26 2.317 . S
O26 Cd25 2.317 . S
O26 C27 1.232 . S
C27 O26 1.232 . S
C27 O28 1.218 . S
O28 C27 1.218 . S
C29 O22 1.275 . S
C29 O24 1.255 . S
C30 O31 1.258 . S
C30 O32 1.256 . S
O31 Cd23 2.381 . S
O31 C30 1.258 . S
O32 Cd23 2.378 . S
O32 C30 1.256 . S
O33 Cd34 2.300 . S
O33 C40 1.275 . S
Cd34 O33 2.300 . S
Cd34 O42 2.381 . S
Cd34 O43 2.378 . S
O35 Cd36 2.385 . S
O35 C40 1.255 . S
Cd36 O35 2.385 . S
Cd36 O37 2.317 . S
O37 Cd36 2.317 . S
O37 C38 1.232 . S
C38 O37 1.232 . S
C38 O39 1.218 1_565 S
O39 C38 1.218 1_545 S
C40 O33 1.275 . S
C40 O35 1.255 . S
C41 O42 1.258 . S
C41 O43 1.256 . S
O42 Cd34 2.381 . S
O42 C41 1.258 . S
O43 Cd34 2.378 . S
O43 C41 1.256 . S
O44 Cd45 2.300 . S
O44 C51 1.275 . S
Cd45 O44 2.300 . S
Cd45 O53 2.381 . S
Cd45 O54 2.378 . S
O46 Cd47 2.385 . S
O46 C51 1.255 . S
Cd47 O46 2.385 . S
Cd47 O48 2.317 . S
O48 Cd47 2.317 . S
O48 C49 1.232 . S
C49 O48 1.232 . S
C49 O50 1.218 1_455 S
O50 C49 1.218 1_655 S
C51 O44 1.275 . S
C51 O46 1.255 . S
C52 O53 1.258 . S
C52 O54 1.256 . S
O53 Cd45 2.381 . S
O53 C52 1.258 . S
O54 Cd45 2.378 . S
O54 C52 1.256 . S
O55 Cd56 2.300 . S
O55 C62 1.275 . S
Cd56 O55 2.300 . S
Cd56 O64 2.381 . S
Cd56 O65 2.378 . S
O57 Cd58 2.385 . S
O57 C62 1.255 . S
Cd58 O57 2.385 . S
Cd58 O59 2.317 . S
O59 Cd58 2.317 . S
O59 C60 1.232 . S
C60 O59 1.232 . S
C60 O61 1.218 . S
O61 C60 1.218 . S
C62 O55 1.275 . S
C62 O57 1.255 . S
C63 O64 1.258 . S
C63 O65 1.256 . S
O64 Cd56 2.381 . S
O64 C63 1.258 . S
O65 Cd56 2.378 . S
O65 C63 1.256 . S
O66 Cd67 2.300 . S
O66 C73 1.275 . S
Cd67 O66 2.300 . S
Cd67 O75 2.381 . S
Cd67 O76 2.378 . S
O68 Cd69 2.385 . S
O68 C73 1.255 . S
Cd69 O68 2.385 . S
Cd69 O70 2.317 . S
O70 Cd69 2.317 . S
O70 C71 1.232 . S
C71 O70 1.232 . S
C71 O72 1.218 . S
O72 C71 1.218 . S
C73 O66 1.275 . S
C73 O68 1.255 . S
C74 O75 1.258 . S
C74 O76 1.256 . S
O75 Cd67 2.381 . S
O75 C74 1.258 . S
O76 Cd67 2.378 . S
O76 C74 1.256 . S
O77 Cd78 2.300 . S
O77 C84 1.275 . S
Cd78 O77 2.300 . S
Cd78 O86 2.381 . S
Cd78 O87 2.378 . S
O79 Cd80 2.385 . S
O79 C84 1.255 . S
Cd80 O79 2.385 . S
Cd80 O81 2.317 . S
O81 Cd80 2.317 . S
O81 C82 1.232 . S
C82 O81 1.232 . S
C82 O83 1.218 1_565 S
O83 C82 1.218 1_545 S
C84 O77 1.275 . S
C84 O79 1.255 . S
C85 O86 1.258 . S
C85 O87 1.256 . S
O86 Cd78 2.381 . S
O86 C85 1.258 . S
O87 Cd78 2.378 . S
O87 C85 1.256 . S
O88 Cd89 2.300 . S
O88 C95 1.275 . S
Cd89 O88 2.300 . S
Cd89 O97 2.381 . S
Cd89 O98 2.378 . S
O90 Cd91 2.385 . S
O90 C95 1.255 . S
Cd91 O90 2.385 . S
Cd91 O92 2.317 . S
O92 Cd91 2.317 . S
O92 C93 1.232 . S
C93 O92 1.232 . S
C93 O94 1.218 1_545 S
O94 C93 1.218 1_565 S
C95 O88 1.275 . S
C95 O90 1.255 . S
C96 O97 1.258 . S
C96 O98 1.256 . S
O97 Cd89 2.381 . S
O97 C96 1.258 . S
O98 Cd89 2.378 . S
O98 C96 1.256 . S
O99 Cd100 2.300 . S
O99 C106 1.275 . S
Cd100 O99 2.300 . S
Cd100 O108 2.381 . S
Cd100 O109 2.378 . S
O101 Cd102 2.385 . S
O101 C106 1.255 . S
Cd102 O101 2.385 . S
Cd102 O103 2.317 . S
O103 Cd102 2.317 . S
O103 C104 1.232 . S
C104 O103 1.232 . S
C104 O105 1.218 1_655 S
O105 C104 1.218 1_455 S
C106 O99 1.275 . S
C106 O101 1.255 . S
C107 O108 1.258 . S
C107 O109 1.256 . S
O108 Cd100 2.381 . S
O108 C107 1.258 . S
O109 Cd100 2.378 . S
O109 C107 1.256 . S
O110 Cd111 2.300 . S
O110 C117 1.275 . S
Cd111 O110 2.300 . S
Cd111 O119 2.381 . S
Cd111 O120 2.378 . S
O112 Cd113 2.385 . S
O112 C117 1.255 . S
Cd113 O112 2.385 . S
Cd113 O114 2.317 . S
O114 Cd113 2.317 . S
O114 C115 1.232 . S
C115 O114 1.232 . S
C115 O116 1.218 . S
O116 C115 1.218 . S
C117 O110 1.275 . S
C117 O112 1.255 . S
C118 O119 1.258 . S
C118 O120 1.256 . S
O119 Cd111 2.381 . S
O119 C118 1.258 . S
O120 Cd111 2.378 . S
O120 C118 1.256 . S
O121 Cd122 2.300 . S
O121 C128 1.275 . S
Cd122 O121 2.300 . S
Cd122 O130 2.381 . S
Cd122 O131 2.378 . S
O123 Cd124 2.385 . S
O123 C128 1.255 . S
Cd124 O123 2.385 . S
Cd124 O125 2.317 . S
O125 Cd124 2.317 . S
O125 C126 1.232 . S
C126 O125 1.232 . S
C126 O127 1.218 . S
O127 C126 1.218 . S
C128 O121 1.275 . S
C128 O123 1.255 . S
C129 O130 1.258 . S
C129 O131 1.256 . S
O130 Cd122 2.381 . S
O130 C129 1.258 . S
O131 Cd122 2.378 . S
O131 C129 1.256 . S
O132 Cd133 2.300 . S
O132 C139 1.275 . S
Cd133 O132 2.300 . S
Cd133 O141 2.381 . S
Cd133 O142 2.378 . S
O134 Cd135 2.385 . S
O134 C139 1.255 . S
Cd135 O134 2.385 . S
Cd135 O136 2.317 . S
O136 Cd135 2.317 . S
O136 C137 1.232 . S
C137 O136 1.232 . S
C137 O138 1.218 . S
O138 C137 1.218 . S
C139 O132 1.275 . S
C139 O134 1.255 . S
C140 O141 1.258 . S
C140 O142 1.256 . S
O141 Cd133 2.381 . S
O141 C140 1.258 . S
O142 Cd133 2.378 . S
O142 C140 1.256 . S
O143 Cd144 2.300 . S
O143 C150 1.275 . S
Cd144 O143 2.300 . S
Cd144 O152 2.381 . S
Cd144 O153 2.378 . S
O145 Cd146 2.385 . S
O145 C150 1.255 . S
Cd146 O145 2.385 . S
Cd146 O147 2.317 . S
O147 Cd146 2.317 . S
O147 C148 1.232 . S
C148 O147 1.232 . S
C148 O149 1.218 . S
O149 C148 1.218 . S
C150 O143 1.275 . S
C150 O145 1.255 . S
C151 O152 1.258 . S
C151 O153 1.256 . S
O152 Cd144 2.381 . S
O152 C151 1.258 . S
O153 Cd144 2.378 . S
O153 C151 1.256 . S
O154 Cd155 2.300 . S
O154 C161 1.275 . S
Cd155 O154 2.300 . S
Cd155 O163 2.381 . S
Cd155 O164 2.378 . S
O156 Cd157 2.385 . S
O156 C161 1.255 . S
Cd157 O156 2.385 . S
Cd157 O158 2.317 . S
O158 Cd157 2.317 . S
O158 C159 1.232 . S
C159 O158 1.232 . S
C159 O160 1.218 1_545 S
O160 C159 1.218 1_565 S
C161 O154 1.275 . S
C161 O156 1.255 . S
C162 O163 1.258 . S
C162 O164 1.256 . S
O163 Cd155 2.381 . S
O163 C162 1.258 . S
O164 Cd155 2.378 . S
O164 C162 1.256 . S
O165 Cd166 2.300 . S
O165 C172 1.275 . S
Cd166 O165 2.300 . S
Cd166 O174 2.381 . S
Cd166 O175 2.378 . S
O167 Cd168 2.385 . S
O167 C172 1.255 . S
Cd168 O167 2.385 . S
Cd168 O169 2.317 . S
O169 Cd168 2.317 . S
O169 C170 1.232 . S
C170 O169 1.232 . S
C170 O171 1.218 1_655 S
O171 C170 1.218 1_455 S
C172 O165 1.275 . S
C172 O167 1.255 . S
C173 O174 1.258 . S
C173 O175 1.256 . S
O174 Cd166 2.381 . S
O174 C173 1.258 . S
O175 Cd166 2.378 . S
O175 C173 1.256 . S
O176 Cd177 2.300 . S
O176 C183 1.275 . S
Cd177 O176 2.300 . S
Cd177 O185 2.381 . S
Cd177 O186 2.378 . S
O178 Cd179 2.385 . S
O178 C183 1.255 . S
Cd179 O178 2.385 . S
Cd179 O180 2.317 . S
O180 Cd179 2.317 . S
O180 C181 1.232 . S
C181 O180 1.232 . S
C181 O182 1.218 1_554 S
O182 C181 1.218 1_556 S
C183 O176 1.275 . S
C183 O178 1.255 . S
C184 O185 1.258 . S
C184 O186 1.256 . S
O185 Cd177 2.381 . S
O185 C184 1.258 . S
O186 Cd177 2.378 . S
O186 C184 1.256 . S
O187 Cd188 2.300 . S
O187 C194 1.275 . S
Cd188 O187 2.300 . S
Cd188 O196 2.381 . S
Cd188 O197 2.378 . S
O189 Cd190 2.385 . S
O189 C194 1.255 . S
Cd190 O189 2.385 . S
Cd190 O191 2.317 . S
O191 Cd190 2.317 . S
O191 C192 1.232 . S
C192 O191 1.232 . S
C192 O193 1.218 . S
O193 C192 1.218 . S
C194 O187 1.275 . S
C194 O189 1.255 . S
C195 O196 1.258 . S
C195 O197 1.256 . S
O196 Cd188 2.381 . S
O196 C195 1.258 . S
O197 Cd188 2.378 . S
O197 C195 1.256 . S
O198 Cd199 2.300 . S
O198 C205 1.275 . S
Cd199 O198 2.300 . S
Cd199 O207 2.381 . S
Cd199 O208 2.378 . S
O200 Cd201 2.385 . S
O200 C205 1.255 . S
Cd201 O200 2.385 . S
Cd201 O202 2.317 . S
O202 Cd201 2.317 . S
O202 C203 1.232 . S
C203 O202 1.232 . S
C203 O204 1.218 1_556 S
O204 C203 1.218 1_554 S
C205 O198 1.275 . S
C205 O200 1.255 . S
C206 O207 1.258 . S
C206 O208 1.256 . S
O207 Cd199 2.381 . S
O207 C206 1.258 . S
O208 Cd199 2.378 . S
O208 C206 1.256 . S
O209 Cd210 2.300 . S
O209 C216 1.275 . S
Cd210 O209 2.300 . S
Cd210 O218 2.381 . S
Cd210 O219 2.378 . S
O211 Cd212 2.385 . S
O211 C216 1.255 . S
Cd212 O211 2.385 . S
Cd212 O213 2.317 . S
O213 Cd212 2.317 . S
O213 C214 1.232 . S
C214 O213 1.232 . S
C214 O215 1.218 . S
O215 C214 1.218 . S
C216 O209 1.275 . S
C216 O211 1.255 . S
C217 O218 1.258 . S
C217 O219 1.256 . S
O218 Cd210 2.381 . S
O218 C217 1.258 . S
O219 Cd210 2.378 . S
O219 C217 1.256 . S
O220 Cd221 2.300 . S
O220 C227 1.275 . S
Cd221 O220 2.300 . S
Cd221 O229 2.381 . S
Cd221 O230 2.378 . S
O222 Cd223 2.385 . S
O222 C227 1.255 . S
Cd223 O222 2.385 . S
Cd223 O224 2.317 . S
O224 Cd223 2.317 . S
O224 C225 1.232 . S
C225 O224 1.232 . S
C225 O226 1.218 1_556 S
O226 C225 1.218 1_554 S
C227 O220 1.275 . S
C227 O222 1.255 . S
C228 O229 1.258 . S
C228 O230 1.256 . S
O229 Cd221 2.381 . S
O229 C228 1.258 . S
O230 Cd221 2.378 . S
O230 C228 1.256 . S
O231 Cd232 2.300 . S
O231 C238 1.275 . S
Cd232 O231 2.300 . S
Cd232 O240 2.381 . S
Cd232 O241 2.378 . S
O233 Cd234 2.385 . S
O233 C238 1.255 . S
Cd234 O233 2.385 . S
Cd234 O235 2.317 . S
O235 Cd234 2.317 . S
O235 C236 1.232 . S
C236 O235 1.232 . S
C236 O237 1.218 1_554 S
O237 C236 1.218 1_556 S
C238 O231 1.275 . S
C238 O233 1.255 . S
C239 O240 1.258 . S
C239 O241 1.256 . S
O240 Cd232 2.381 . S
O240 C239 1.258 . S
O241 Cd232 2.378 . S
O241 C239 1.256 . S
O242 Cd243 2.300 . S
O242 C249 1.275 . S
Cd243 O242 2.300 . S
Cd243 O251 2.381 . S
Cd243 O252 2.378 . S
O244 Cd245 2.385 . S
O244 C249 1.255 . S
Cd245 O244 2.385 . S
Cd245 O246 2.317 . S
O246 Cd245 2.317 . S
O246 C247 1.232 . S
C247 O246 1.232 . S
C247 O248 1.218 . S
O248 C247 1.218 . S
C249 O242 1.275 . S
C249 O244 1.255 . S
C250 O251 1.258 . S
C250 O252 1.256 . S
O251 Cd243 2.381 . S
O251 C250 1.258 . S
O252 Cd243 2.378 . S
O252 C250 1.256 . S
O253 Cd254 2.300 . S
O253 C260 1.275 . S
Cd254 O253 2.300 . S
Cd254 O262 2.381 . S
Cd254 O263 2.378 . S
O255 Cd256 2.385 . S
O255 C260 1.255 . S
Cd256 O255 2.385 . S
Cd256 O257 2.317 . S
O257 Cd256 2.317 . S
O257 C258 1.232 . S
C258 O257 1.232 . S
C258 O259 1.218 . S
O259 C258 1.218 . S
C260 O253 1.275 . S
C260 O255 1.255 . S
C261 O262 1.258 . S
C261 O263 1.256 . S
O262 Cd254 2.381 . S
O262 C261 1.258 . S
O263 Cd254 2.378 . S
O263 C261 1.256 . S
O264 Cd265 2.300 . S
O264 C271 1.275 . S
Cd265 O264 2.300 . S
Cd265 O273 2.381 . S
Cd265 O274 2.378 . S
O266 Cd267 2.385 . S
O266 C271 1.255 . S
Cd267 O266 2.385 . S
Cd267 O268 2.317 . S
O268 Cd267 2.317 . S
O268 C269 1.232 . S
C269 O268 1.232 . S
C269 O270 1.218 . S
O270 C269 1.218 . S
C271 O264 1.275 . S
C271 O266 1.255 . S
C272 O273 1.258 . S
C272 O274 1.256 . S
O273 Cd265 2.381 . S
O273 C272 1.258 . S
O274 Cd265 2.378 . S
O274 C272 1.256 . S
O275 Cd276 2.300 . S
O275 C282 1.275 . S
Cd276 O275 2.300 . S
Cd276 O284 2.381 . S
Cd276 O285 2.378 . S
O277 Cd278 2.385 . S
O277 C282 1.255 . S
Cd278 O277 2.385 . S
Cd278 O279 2.317 . S
O279 Cd278 2.317 . S
O279 C280 1.232 . S
C280 O279 1.232 . S
C280 O281 1.218 . S
O281 C280 1.218 . S
C282 O275 1.275 . S
C282 O277 1.255 . S
C283 O284 1.258 . S
C283 O285 1.256 . S
O284 Cd276 2.381 . S
O284 C283 1.258 . S
O285 Cd276 2.378 . S
O285 C283 1.256 . S
O286 Cd287 2.300 . S
O286 C293 1.275 . S
Cd287 O286 2.300 . S
Cd287 O295 2.381 . S
Cd287 O296 2.378 . S
O288 Cd289 2.385 . S
O288 C293 1.255 . S
Cd289 O288 2.385 . S
Cd289 O290 2.317 . S
O290 Cd289 2.317 . S
O290 C291 1.232 . S
C291 O290 1.232 . S
C291 O292 1.218 . S
O292 C291 1.218 . S
C293 O286 1.275 . S
C293 O288 1.255 . S
C294 O295 1.258 . S
C294 O296 1.256 . S
O295 Cd287 2.381 . S
O295 C294 1.258 . S
O296 Cd287 2.378 . S
O296 C294 1.256 . S
O297 Cd298 2.300 . S
O297 C304 1.275 . S
Cd298 O297 2.300 . S
Cd298 O306 2.381 . S
Cd298 O307 2.378 . S
O299 Cd300 2.385 . S
O299 C304 1.255 . S
Cd300 O299 2.385 . S
Cd300 O301 2.317 . S
O301 Cd300 2.317 . S
O301 C302 1.232 . S
C302 O301 1.232 . S
C302 O303 1.218 . S
O303 C302 1.218 . S
C304 O297 1.275 . S
C304 O299 1.255 . S
C305 O306 1.258 . S
C305 O307 1.256 . S
O306 Cd298 2.381 . S
O306 C305 1.258 . S
O307 Cd298 2.378 . S
O307 C305 1.256 . S
O308 Cd309 2.300 . S
O308 C315 1.275 . S
Cd309 O308 2.300 . S
Cd309 O317 2.381 . S
Cd309 O318 2.378 . S
O310 Cd311 2.385 . S
O310 C315 1.255 . S
Cd311 O310 2.385 . S
Cd311 O312 2.317 . S
O312 Cd311 2.317 . S
O312 C313 1.232 . S
C313 O312 1.232 . S
C313 O314 1.218 . S
O314 C313 1.218 . S
C315 O308 1.275 . S
C315 O310 1.255 . S
C316 O317 1.258 . S
C316 O318 1.256 . S
O317 Cd309 2.381 . S
O317 C316 1.258 . S
O318 Cd309 2.378 . S
O318 C316 1.256 . S
O319 Cd320 2.300 . S
O319 C326 1.275 . S
Cd320 O319 2.300 . S
Cd320 O328 2.381 . S
Cd320 O329 2.378 . S
O321 Cd322 2.385 . S
O321 C326 1.255 . S
Cd322 O321 2.385 . S
Cd322 O323 2.317 . S
O323 Cd322 2.317 . S
O323 C324 1.232 . S
C324 O323 1.232 . S
C324 O325 1.218 . S
O325 C324 1.218 . S
C326 O319 1.275 . S
C326 O321 1.255 . S
C327 O328 1.258 . S
C327 O329 1.256 . S
O328 Cd320 2.381 . S
O328 C327 1.258 . S
O329 Cd320 2.378 . S
O329 C327 1.256 . S
O330 Cd331 2.300 . S
O330 C337 1.275 . S
Cd331 O330 2.300 . S
Cd331 O339 2.381 . S
Cd331 O340 2.378 . S
O332 Cd333 2.385 . S
O332 C337 1.255 . S
Cd333 O332 2.385 . S
Cd333 O334 2.317 . S
O334 Cd333 2.317 . S
O334 C335 1.232 . S
C335 O334 1.232 . S
C335 O336 1.218 . S
O336 C335 1.218 . S
C337 O330 1.275 . S
C337 O332 1.255 . S
C338 O339 1.258 . S
C338 O340 1.256 . S
O339 Cd331 2.381 . S
O339 C338 1.258 . S
O340 Cd331 2.378 . S
O340 C338 1.256 . S
O341 Cd342 2.300 . S
O341 C348 1.275 . S
Cd342 O341 2.300 . S
Cd342 O350 2.381 . S
Cd342 O351 2.378 . S
O343 Cd344 2.385 . S
O343 C348 1.255 . S
Cd344 O343 2.385 . S
Cd344 O345 2.317 . S
O345 Cd344 2.317 . S
O345 C346 1.232 . S
C346 O345 1.232 . S
C346 O347 1.218 . S
O347 C346 1.218 . S
C348 O341 1.275 . S
C348 O343 1.255 . S
C349 O350 1.258 . S
C349 O351 1.256 . S
O350 Cd342 2.381 . S
O350 C349 1.258 . S
O351 Cd342 2.378 . S
O351 C349 1.256 . S
O352 Cd353 2.300 . S
O352 C359 1.275 . S
Cd353 O352 2.300 . S
Cd353 O361 2.381 . S
Cd353 O362 2.378 . S
O354 Cd355 2.385 . S
O354 C359 1.255 . S
Cd355 O354 2.385 . S
Cd355 O356 2.317 . S
O356 Cd355 2.317 . S
O356 C357 1.232 . S
C357 O356 1.232 . S
C357 O358 1.218 . S
O358 C357 1.218 . S
C359 O352 1.275 . S
C359 O354 1.255 . S
C360 O361 1.258 . S
C360 O362 1.256 . S
O361 Cd353 2.381 . S
O361 C360 1.258 . S
O362 Cd353 2.378 . S
O362 C360 1.256 . S
O363 Cd364 2.300 . S
O363 C370 1.275 . S
Cd364 O363 2.300 . S
Cd364 O372 2.381 . S
Cd364 O373 2.378 . S
O365 Cd366 2.385 . S
O365 C370 1.255 . S
Cd366 O365 2.385 . S
Cd366 O367 2.317 . S
O367 Cd366 2.317 . S
O367 C368 1.232 . S
C368 O367 1.232 . S
C368 O369 1.218 . S
O369 C368 1.218 . S
C370 O363 1.275 . S
C370 O365 1.255 . S
C371 O372 1.258 . S
C371 O373 1.256 . S
O372 Cd364 2.381 . S
O372 C371 1.258 . S
O373 Cd364 2.378 . S
O373 C371 1.256 . S
O374 Cd375 2.300 . S
O374 C381 1.275 . S
Cd375 O374 2.300 . S
Cd375 O383 2.381 . S
Cd375 O384 2.378 . S
O376 Cd377 2.385 . S
O376 C381 1.255 . S
Cd377 O376 2.385 . S
Cd377 O378 2.317 . S
O378 Cd377 2.317 . S
O378 C379 1.232 . S
C379 O378 1.232 . S
C379 O380 1.218 . S
O380 C379 1.218 . S
C381 O374 1.275 . S
C381 O376 1.255 . S
C382 O383 1.258 . S
C382 O384 1.256 . S
O383 Cd375 2.381 . S
O383 C382 1.258 . S
O384 Cd375 2.378 . S
O384 C382 1.256 . S
O385 Cd386 2.300 . S
O385 C392 1.275 . S
Cd386 O385 2.300 . S
Cd386 O394 2.381 . S
Cd386 O395 2.378 . S
O387 Cd388 2.385 . S
O387 C392 1.255 . S
Cd388 O387 2.385 . S
Cd388 O389 2.317 . S
O389 Cd388 2.317 . S
O389 C390 1.232 . S
C390 O389 1.232 . S
C390 O391 1.218 . S
O391 C390 1.218 . S
C392 O385 1.275 . S
C392 O387 1.255 . S
C393 O394 1.258 . S
C393 O395 1.256 . S
O394 Cd386 2.381 . S
O394 C393 1.258 . S
O395 Cd386 2.378 . S
O395 C393 1.256 . S
O396 Cd397 2.300 . S
O396 C403 1.275 . S
Cd397 O396 2.300 . S
Cd397 O405 2.381 . S
Cd397 O406 2.378 . S
O398 Cd399 2.385 . S
O398 C403 1.255 . S
Cd399 O398 2.385 . S
Cd399 O400 2.317 . S
O400 Cd399 2.317 . S
O400 C401 1.232 . S
C401 O400 1.232 . S
C401 O402 1.218 . S
O402 C401 1.218 . S
C403 O396 1.275 . S
C403 O398 1.255 . S
C404 O405 1.258 . S
C404 O406 1.256 . S
O405 Cd397 2.381 . S
O405 C404 1.258 . S
O406 Cd397 2.378 . S
O406 C404 1.256 . S
O407 Cd408 2.300 . S
O407 C414 1.275 . S
Cd408 O407 2.300 . S
Cd408 O416 2.381 . S
Cd408 O417 2.378 . S
O409 Cd410 2.385 . S
O409 C414 1.255 . S
Cd410 O409 2.385 . S
Cd410 O411 2.317 . S
O411 Cd410 2.317 . S
O411 C412 1.232 . S
C412 O411 1.232 . S
C412 O413 1.218 . S
O413 C412 1.218 . S
C414 O407 1.275 . S
C414 O409 1.255 . S
C415 O416 1.258 . S
C415 O417 1.256 . S
O416 Cd408 2.381 . S
O416 C415 1.258 . S
O417 Cd408 2.378 . S
O417 C415 1.256 . S
O418 Cd419 2.300 . S
O418 C425 1.275 . S
Cd419 O418 2.300 . S
Cd419 O427 2.381 . S
Cd419 O428 2.378 . S
O420 Cd421 2.385 . S
O420 C425 1.255 . S
Cd421 O420 2.385 . S
Cd421 O422 2.317 . S
O422 Cd421 2.317 . S
O422 C423 1.232 . S
C423 O422 1.232 . S
C423 O424 1.218 . S
O424 C423 1.218 . S
C425 O418 1.275 . S
C425 O420 1.255 . S
C426 O427 1.258 . S
C426 O428 1.256 . S
O427 Cd419 2.381 . S
O427 C426 1.258 . S
O428 Cd419 2.378 . S
O428 C426 1.256 . S
O429 Cd430 2.300 . S
O429 C436 1.275 . S
Cd430 O429 2.300 . S
Cd430 O438 2.381 . S
Cd430 O439 2.378 . S
O431 Cd432 2.385 . S
O431 C436 1.255 . S
Cd432 O431 2.385 . S
Cd432 O433 2.317 . S
O433 Cd432 2.317 . S
O433 C434 1.232 . S
C434 O433 1.232 . S
C434 O435 1.218 . S
O435 C434 1.218 . S
C436 O429 1.275 . S
C436 O431 1.255 . S
C437 O438 1.258 . S
C437 O439 1.256 . S
O438 Cd430 2.381 . S
O438 C437 1.258 . S
O439 Cd430 2.378 . S
O439 C437 1.256 . S
O440 Cd441 2.300 . S
O440 C447 1.275 . S
Cd441 O440 2.300 . S
Cd441 O449 2.381 . S
Cd441 O450 2.378 . S
O442 Cd443 2.385 . S
O442 C447 1.255 . S
Cd443 O442 2.385 . S
Cd443 O444 2.317 . S
O444 Cd443 2.317 . S
O444 C445 1.232 . S
C445 O444 1.232 . S
C445 O446 1.218 . S
O446 C445 1.218 . S
C447 O440 1.275 . S
C447 O442 1.255 . S
C448 O449 1.258 . S
C448 O450 1.256 . S
O449 Cd441 2.381 . S
O449 C448 1.258 . S
O450 Cd441 2.378 . S
O450 C448 1.256 . S
O451 Cd452 2.300 . S
O451 C458 1.275 . S
Cd452 O451 2.300 . S
Cd452 O460 2.381 . S
Cd452 O461 2.378 . S
O453 Cd454 2.385 . S
O453 C458 1.255 . S
Cd454 O453 2.385 . S
Cd454 O455 2.317 . S
O455 Cd454 2.317 . S
O455 C456 1.232 . S
C456 O455 1.232 . S
C456 O457 1.218 . S
O457 C456 1.218 . S
C458 O451 1.275 . S
C458 O453 1.255 . S
C459 O460 1.258 . S
C459 O461 1.256 . S
O460 Cd452 2.381 . S
O460 C459 1.258 . S
O461 Cd452 2.378 . S
O461 C459 1.256 . S
O462 Cd463 2.300 . S
O462 C469 1.275 . S
Cd463 O462 2.300 . S
Cd463 O471 2.381 . S
Cd463 O472 2.378 . S
O464 Cd465 2.385 . S
O464 C469 1.255 . S
Cd465 O464 2.385 . S
Cd465 O466 2.317 . S
O466 Cd465 2.317 . S
O466 C467 1.232 . S
C467 O466 1.232 . S
C467 O468 1.218 . S
O468 C467 1.218 . S
C469 O462 1.275 . S
C469 O464 1.255 . S
C470 O471 1.258 . S
C470 O472 1.256 . S
O471 Cd463 2.381 . S
O471 C470 1.258 . S
O472 Cd463 2.378 . S
O472 C470 1.256 . S
O473 Cd474 2.300 . S
O473 C480 1.275 . S
Cd474 O473 2.300 . S
Cd474 O482 2.381 . S
Cd474 O483 2.378 . S
O475 Cd476 2.385 . S
O475 C480 1.255 . S
Cd476 O475 2.385 . S
Cd476 O477 2.317 . S
O477 Cd476 2.317 . S
O477 C478 1.232 . S
C478 O477 1.232 . S
C478 O479 1.218 . S
O479 C478 1.218 . S
C480 O473 1.275 . S
C480 O475 1.255 . S
C481 O482 1.258 . S
C481 O483 1.256 . S
O482 Cd474 2.381 . S
O482 C481 1.258 . S
O483 Cd474 2.378 . S
O483 C481 1.256 . S
O484 Cd485 2.300 . S
O484 C491 1.275 . S
Cd485 O484 2.300 . S
Cd485 O493 2.381 . S
Cd485 O494 2.378 . S
O486 Cd487 2.385 . S
O486 C491 1.255 . S
Cd487 O486 2.385 . S
Cd487 O488 2.317 . S
O488 Cd487 2.317 . S
O488 C489 1.232 . S
C489 O488 1.232 . S
C489 O490 1.218 . S
O490 C489 1.218 . S
C491 O484 1.275 . S
C491 O486 1.255 . S
C492 O493 1.258 . S
C492 O494 1.256 . S
O493 Cd485 2.381 . S
O493 C492 1.258 . S
O494 Cd485 2.378 . S
O494 C492 1.256 . S
O495 Cd496 2.300 . S
O495 C502 1.275 . S
Cd496 O495 2.300 . S
Cd496 O504 2.381 . S
Cd496 O505 2.378 . S
O497 Cd498 2.385 . S
O497 C502 1.255 . S
Cd498 O497 2.385 . S
Cd498 O499 2.317 . S
O499 Cd498 2.317 . S
O499 C500 1.232 . S
C500 O499 1.232 . S
C500 O501 1.218 . S
O501 C500 1.218 . S
C502 O495 1.275 . S
C502 O497 1.255 . S
C503 O504 1.258 . S
C503 O505 1.256 . S
O504 Cd496 2.381 . S
O504 C503 1.258 . S
O505 Cd496 2.378 . S
O505 C503 1.256 . S
O506 Cd507 2.300 . S
O506 C513 1.275 . S
Cd507 O506 2.300 . S
Cd507 O515 2.381 . S
Cd507 O516 2.378 . S
O508 Cd509 2.385 . S
O508 C513 1.255 . S
Cd509 O508 2.385 . S
Cd509 O510 2.317 . S
O510 Cd509 2.317 . S
O510 C511 1.232 . S
C511 O510 1.232 . S
C511 O512 1.218 . S
O512 C511 1.218 . S
C513 O506 1.275 . S
C513 O508 1.255 . S
C514 O515 1.258 . S
C514 O516 1.256 . S
O515 Cd507 2.381 . S
O515 C514 1.258 . S
O516 Cd507 2.378 . S
O516 C514 1.256 . S
O517 Cd518 2.300 . S
O517 C524 1.275 . S
Cd518 O517 2.300 . S
Cd518 O526 2.381 . S
Cd518 O527 2.378 . S
O519 Cd520 2.385 . S
O519 C524 1.255 . S
Cd520 O519 2.385 . S
Cd520 O521 2.317 . S
O521 Cd520 2.317 . S
O521 C522 1.232 . S
C522 O521 1.232 . S
C522 O523 1.218 . S
O523 C522 1.218 . S
C524 O517 1.275 . S
C524 O519 1.255 . S
C525 O526 1.258 . S
C525 O527 1.256 . S
O526 Cd518 2.381 . S
O526 C525 1.258 . S
O527 Cd518 2.378 . S
O527 C525 1.256 . S
C51 C7 1.395 . S
C62 C18 1.395 . S
C73 C29 1.395 . S
C40 C84 1.395 . S
C161 C95 1.395 . S
C172 C106 1.395 . S
C117 C139 1.395 . S
C150 C128 1.395 . S
C238 C183 1.395 . S
C216 C194 1.395 . S
C205 C227 1.395 . S
C260 C249 1.395 . S
C271 C315 2.030 . S
C282 C326 2.030 . S
C337 C293 2.030 . S
C304 C348 2.030 . S
C425 C359 2.030 . S
C436 C370 2.030 . S
C381 C403 2.030 . S
C392 C414 2.030 . S
C447 C502 2.030 . S
C480 C458 2.030 . S
C469 C491 2.030 . S
C524 C513 2.030 . S
C5 C104 0.707 1_455 S
C16 C115 0.707 . S
C126 C27 0.707 . S
C38 C93 0.707 1_565 S
C170 C49 0.707 1_655 S
C137 C60 0.707 . S
C71 C148 0.707 . S
C159 C82 0.707 1_545 S
C181 C203 0.707 1_554 S
C192 C247 0.707 . S
C214 C258 0.707 . S
C225 C236 0.707 1_556 S
C269 C368 2.617 1_655 S
C379 C280 2.617 . S
C291 C390 2.617 . S
C357 C302 2.617 1_565 S
C313 C434 2.617 1_655 S
C401 C324 2.617 . S
C335 C412 2.617 . S
C346 C423 2.617 1_545 S
C467 C445 2.617 1_554 S
C511 C456 2.617 . S
C478 C522 2.617 . S
C489 C500 2.617 1_554 S
C8 C349 1.613 . S
C316 C19 1.613 . S
C327 C30 1.613 . S
C338 C41 1.613 . S
C283 C52 1.613 . S
C63 C294 1.613 . S
C74 C305 1.613 . S
C85 C272 1.613 . S
C96 C492 1.613 . S
C459 C107 1.613 . S
C118 C470 1.613 . S
C129 C481 1.613 . S
C525 C140 1.613 . S
C151 C503 1.613 . S
C162 C514 1.613 . S
C448 C173 1.613 . S
C437 C184 1.613 . S
C371 C195 1.613 . S
C382 C206 1.613 . S
C393 C217 1.613 . S
C360 C228 1.613 . S
C239 C415 1.613 . S
C250 C426 1.613 . S
C404 C261 1.613 . S
