# Generated by pormake.
# Topology smt, (6)-cn, num edge types: 1
# Building blocks:
#     Node 0, Type 0, BuildingBlock: UKALOJ_clean_sbu_0, # of connection points: 6
#     Node 1, Type 0, BuildingBlock: UKALOJ_clean_sbu_0, # of connection points: 6
#     Node 2, Type 0, BuildingBlock: UKALOJ_clean_sbu_0, # of connection points: 6
#     Node 3, Type 0, BuildingBlock: UKALOJ_clean_sbu_0, # of connection points: 6
#     Node 4, Type 0, BuildingBlock: UKALOJ_clean_sbu_0, # of connection points: 6
#     Node 5, Type 0, BuildingBlock: UKALOJ_clean_sbu_0, # of connection points: 6
#     Edge 6, Type (0, 0), BuildingBlock: KIFKEQ_clean_linker_1, # of connection points: 2
#     Edge 7, Type (0, 0), BuildingBlock: KIFKEQ_clean_linker_1, # of connection points: 2
#     Edge 8, Type (0, 0), BuildingBlock: KIFKEQ_clean_linker_1, # of connection points: 2
#     Edge 9, Type (0, 0), BuildingBlock: KIFKEQ_clean_linker_1, # of connection points: 2
#     Edge 10, Type (0, 0), BuildingBlock: KIFKEQ_clean_linker_1, # of connection points: 2
#     Edge 11, Type (0, 0), BuildingBlock: KIFKEQ_clean_linker_1, # of connection points: 2
#     Edge 12, Type (0, 0), BuildingBlock: KIFKEQ_clean_linker_1, # of connection points: 2
#     Edge 13, Type (0, 0), BuildingBlock: KIFKEQ_clean_linker_1, # of connection points: 2
#     Edge 14, Type (0, 0), BuildingBlock: KIFKEQ_clean_linker_1, # of connection points: 2
#     Edge 15, Type (0, 0), BuildingBlock: KIFKEQ_clean_linker_1, # of connection points: 2
#     Edge 16, Type (0, 0), BuildingBlock: KIFKEQ_clean_linker_1, # of connection points: 2
#     Edge 17, Type (0, 0), BuildingBlock: KIFKEQ_clean_linker_1, # of connection points: 2
#     Edge 18, Type (0, 0), BuildingBlock: KIFKEQ_clean_linker_1, # of connection points: 2
#     Edge 19, Type (0, 0), BuildingBlock: KIFKEQ_clean_linker_1, # of connection points: 2
#     Edge 20, Type (0, 0), BuildingBlock: KIFKEQ_clean_linker_1, # of connection points: 2
#     Edge 21, Type (0, 0), BuildingBlock: KIFKEQ_clean_linker_1, # of connection points: 2
#     Edge 22, Type (0, 0), BuildingBlock: KIFKEQ_clean_linker_1, # of connection points: 2
#     Edge 23, Type (0, 0), BuildingBlock: KIFKEQ_clean_linker_1, # of connection points: 2
# Relax obj value: 0.353
# Max RMSD: 0.284
# Mean RMSD: 0.284
data_MOF--net-smt--node1-UKALOJ_clean_sbu_0--edge1-KIFKEQ_clean_linker_1
_symmetry_space_group_name_H-M    P1
_symmetry_Int_Tables_number       1
_symmetry_cell_setting            triclinic
loop_
_symmetry_equiv_pos_as_xyz
'x, y, z'
_cell_length_a     38.755161
_cell_length_b     38.764794
_cell_length_c     25.919804
_cell_angle_alpha  90.034967
_cell_angle_beta   89.919087
_cell_angle_gamma 120.01794
loop_
_atom_site_label
_atom_site_type_symbol
_atom_site_fract_x
_atom_site_fract_y
_atom_site_fract_z
_atom_type_partial_charge
Zn0 Zn 0.4917 0.12316 0.00327 0.0
O1 O 0.47855 0.08162 0.06344 0.0
C2 C 0.40671 0.08006 0.97627 0.0
Zn3 Zn 0.45947 0.14863 0.04546 0.0
C4 C 0.45998 0.08267 0.10338 0.0
O5 O 0.44846 0.10811 0.10608 0.0
C6 C 0.49458 0.19073 0.94668 0.0
O7 O 0.51305 0.19117 0.08371 0.0
O8 O 0.54278 0.16386 0.04189 0.0
N9 N 0.42579 0.16838 0.08283 0.0
C10 C 0.42415 0.20221 0.07885 0.0
C11 C 0.37526 0.16225 0.12598 0.0
N12 N 0.3955 0.14372 0.11244 0.0
N13 N 0.3925 0.19891 0.10502 0.0
C14 C 0.51425 0.06899 0.94082 0.0
C15 C 0.5736 0.11055 0.91762 0.0
N16 N 0.52453 0.10373 0.96446 0.0
N17 N 0.56161 0.12939 0.95049 0.0
N18 N 0.54432 0.07263 0.91063 0.0
H19 H 0.46366 0.0305 0.98818 0.0
H20 H 0.47969 0.00495 0.94407 0.0
H21 H 0.45356 0.02898 0.92034 0.0
C22 C 0.47559 0.03111 0.9491 0.0
C23 C 0.45448 0.2391 0.05162 0.0
H24 H 0.48412 0.24129 0.05245 0.0
H25 H 0.45664 0.26601 0.06991 0.0
H26 H 0.44516 0.23806 0.011 0.0
O27 O 0.47226 0.18945 0.98349 0.0
O28 O 0.50588 0.16523 0.94494 0.0
C29 C 0.54442 0.18962 0.07346 0.0
O30 O 0.43965 0.08244 0.96465 0.0
O31 O 0.40635 0.10465 0.00843 0.0
Zn32 Zn 0.36501 0.49245 0.16343 0.0
O33 O 0.39342 0.47535 0.21901 0.0
C34 C 0.31954 0.40846 0.13448 0.0
Zn35 Zn 0.30875 0.46271 0.20834 0.0
C36 C 0.37478 0.45843 0.26025 0.0
O37 O 0.33889 0.4502 0.26593 0.0
C38 C 0.30024 0.49965 0.11299 0.0
O39 O 0.32319 0.51717 0.24837 0.0
O40 O 0.37996 0.54266 0.20651 0.0
N41 N 0.25626 0.43033 0.24817 0.0
C42 C 0.22234 0.43204 0.25002 0.0
C43 C 0.2103 0.37763 0.28581 0.0
N44 N 0.24877 0.39674 0.27102 0.0
N45 N 0.19291 0.39907 0.27312 0.0
C46 C 0.43919 0.5139 0.09588 0.0
C47 C 0.45948 0.57481 0.07844 0.0
N48 N 0.41635 0.52458 0.12284 0.0
N49 N 0.42928 0.56257 0.11241 0.0
N50 N 0.46613 0.54473 0.06718 0.0
H51 H 0.42499 0.46038 0.13781 0.0
H52 H 0.46587 0.47676 0.0924 0.0
H53 H 0.41546 0.45401 0.06963 0.0
C54 C 0.43631 0.47397 0.09941 0.0
C55 C 0.21727 0.4639 0.2244 0.0
H56 H 0.24641 0.49153 0.2197 0.0
H57 H 0.19773 0.47133 0.24709 0.0
H58 H 0.20327 0.45305 0.1861 0.0
O59 O 0.27974 0.47645 0.14934 0.0
O60 O 0.33695 0.51068 0.10954 0.0
C61 C 0.35799 0.54645 0.23958 0.0
O62 O 0.34974 0.441 0.12076 0.0
O63 O 0.29685 0.40892 0.16968 0.0
Zn64 Zn 0.86588 0.3662 0.32887 0.0
O65 O 0.90789 0.39525 0.3885 0.0
C66 C 0.90997 0.32675 0.2967 0.0
Zn67 Zn 0.84286 0.30891 0.37116 0.0
C68 C 0.90968 0.3754 0.4265 0.0
O69 O 0.88619 0.33796 0.42835 0.0
C70 C 0.79691 0.30086 0.27545 0.0
O71 O 0.80272 0.31982 0.41588 0.0
O72 O 0.8244 0.37437 0.36975 0.0
N73 N 0.82539 0.25487 0.40532 0.0
C74 C 0.78979 0.22107 0.40881 0.0
C75 C 0.83406 0.20713 0.43215 0.0
N76 N 0.85278 0.24614 0.42019 0.0
N77 N 0.79443 0.19028 0.42476 0.0
C78 C 0.91668 0.44411 0.26716 0.0
C79 C 0.87263 0.4586 0.24459 0.0
N80 N 0.88259 0.41833 0.29119 0.0
N81 N 0.85537 0.42774 0.27768 0.0
N82 N 0.91108 0.46931 0.2371 0.0
H83 H 0.95717 0.43405 0.3131 0.0
H84 H 0.98073 0.47674 0.27032 0.0
H85 H 0.95934 0.4273 0.24481 0.0
C86 C 0.95577 0.44569 0.27459 0.0
C87 C 0.75085 0.21913 0.39854 0.0
H88 H 0.75345 0.24867 0.40325 0.0
H89 H 0.72743 0.1976 0.42499 0.0
H90 H 0.74181 0.20938 0.35825 0.0
O91 O 0.79828 0.28084 0.31343 0.0
O92 O 0.82345 0.3372 0.271 0.0
C93 C 0.80169 0.35127 0.40468 0.0
O94 O 0.90754 0.35766 0.28816 0.0
O95 O 0.88534 0.30051 0.32767 0.0
Zn96 Zn 0.49712 0.86732 0.50483 0.0
O97 O 0.5126 0.91086 0.56339 0.0
C98 C 0.58158 0.90763 0.47656 0.0
Zn99 Zn 0.52814 0.8415 0.54876 0.0
C100 C 0.53109 0.90995 0.60347 0.0
O101 O 0.54126 0.88357 0.60735 0.0
C102 C 0.4911 0.79697 0.45207 0.0
O103 O 0.47463 0.80128 0.58908 0.0
O104 O 0.44582 0.82878 0.54571 0.0
N105 N 0.56193 0.8218 0.58514 0.0
C106 C 0.5604 0.78627 0.58591 0.0
C107 C 0.61665 0.8293 0.61659 0.0
N108 N 0.59679 0.84837 0.60457 0.0
N109 N 0.59491 0.79024 0.60474 0.0
C110 C 0.47738 0.92231 0.43972 0.0
C111 C 0.41674 0.88286 0.41963 0.0
N112 N 0.4656 0.88787 0.4651 0.0
N113 N 0.42779 0.86354 0.45298 0.0
N114 N 0.44741 0.91974 0.41039 0.0
H115 H 0.52945 0.9604 0.48484 0.0
H116 H 0.51545 0.98615 0.43852 0.0
H117 H 0.53855 0.95835 0.41714 0.0
C118 C 0.51748 0.95899 0.44559 0.0
C119 C 0.52415 0.74796 0.57081 0.0
H120 H 0.49694 0.75027 0.57506 0.0
H121 H 0.52117 0.72302 0.59504 0.0
H122 H 0.52657 0.74143 0.52975 0.0
O123 O 0.51338 0.79866 0.48908 0.0
O124 O 0.48083 0.82321 0.44859 0.0
C125 C 0.44373 0.80362 0.5787 0.0
O126 O 0.54911 0.90572 0.46395 0.0
O127 O 0.58124 0.88365 0.51014 0.0
Zn128 Zn 0.62776 0.50025 0.66398 0.0
O129 O 0.59908 0.51723 0.71972 0.0
C130 C 0.67489 0.58394 0.63844 0.0
Zn131 Zn 0.68299 0.52712 0.71121 0.0
C132 C 0.61728 0.53321 0.76151 0.0
O133 O 0.65263 0.54008 0.76796 0.0
C134 C 0.69174 0.49096 0.6147 0.0
O135 O 0.66686 0.47223 0.75029 0.0
O136 O 0.61137 0.44883 0.70594 0.0
N137 N 0.73493 0.55896 0.75277 0.0
C138 C 0.77149 0.56307 0.74843 0.0
C139 C 0.77666 0.60804 0.80035 0.0
N140 N 0.73827 0.58681 0.78542 0.0
N141 N 0.79818 0.59391 0.77726 0.0
C142 C 0.55555 0.48155 0.59395 0.0
C143 C 0.53213 0.41966 0.57928 0.0
N144 N 0.57679 0.4697 0.62235 0.0
N145 N 0.56196 0.43118 0.61353 0.0
N146 N 0.52765 0.45078 0.5661 0.0
H147 H 0.57063 0.53575 0.63459 0.0
H148 H 0.5325 0.52169 0.58583 0.0
H149 H 0.58383 0.54191 0.56728 0.0
C150 C 0.56078 0.52256 0.59566 0.0
C151 C 0.78081 0.53587 0.71817 0.0
H152 H 0.75524 0.50498 0.71973 0.0
H153 H 0.80763 0.5362 0.73374 0.0
H154 H 0.78684 0.5461 0.6775 0.0
O155 O 0.71178 0.51202 0.65286 0.0
O156 O 0.65582 0.48248 0.60961 0.0
C157 C 0.63207 0.44368 0.7396 0.0
O158 O 0.64454 0.55239 0.62288 0.0
O159 O 0.69656 0.58175 0.67363 0.0
Zn160 Zn 0.11766 0.62678 0.83302 0.0
O161 O 0.07192 0.59827 0.8889 0.0
C162 C 0.08114 0.6738 0.80415 0.0
Zn163 Zn 0.145 0.68269 0.879 0.0
C164 C 0.07309 0.61725 0.92955 0.0
O165 O 0.10083 0.65308 0.93508 0.0
C166 C 0.19117 0.69095 0.78387 0.0
O167 O 0.18315 0.66675 0.92015 0.0
O168 O 0.15288 0.61119 0.87557 0.0
N169 N 0.16488 0.73483 0.91955 0.0
C170 C 0.19907 0.77013 0.91783 0.0
C171 C 0.1581 0.77849 0.96353 0.0
N172 N 0.13959 0.74009 0.94835 0.0
N173 N 0.19539 0.79802 0.94449 0.0
C174 C 0.06386 0.55311 0.76526 0.0
C175 C 0.10382 0.53218 0.74676 0.0
N176 N 0.09769 0.57559 0.79182 0.0
N177 N 0.12233 0.56226 0.78069 0.0
N178 N 0.06715 0.52599 0.73613 0.0
H179 H 0.02512 0.56724 0.8088 0.0
H180 H 5e-05 0.52723 0.7625 0.0
H181 H 0.02825 0.57804 0.74105 0.0
C182 C 0.0271 0.55646 0.7699 0.0
C183 C 0.23654 0.77702 0.89204 0.0
H184 H 0.23881 0.74963 0.89376 0.0
H185 H 0.26306 0.80183 0.9109 0.0
H186 H 0.23616 0.78525 0.85116 0.0
O187 O 0.18974 0.71098 0.82179 0.0
O188 O 0.16382 0.65499 0.77852 0.0
C189 C 0.17795 0.6323 0.90979 0.0
O190 O 0.08203 0.64272 0.79117 0.0
O191 O 0.10493 0.69644 0.83881 0.0
H192 H 0.33298 0.04956 0.02029 0.0
H193 H 0.3957 0.02977 0.89644 0.0
H194 H 0.27641 0.98263 0.00795 0.0
H195 H 0.34043 0.96241 0.88591 0.0
H196 H 0.22893 0.84559 0.86221 0.0
H197 H 0.27393 0.91756 0.86261 0.0
H198 H 0.26508 0.91785 0.029 0.0
H199 H 0.21899 0.84586 0.02767 0.0
C200 C 0.33438 0.03123 0.98971 0.0
C201 C 0.36918 0.04456 0.9601 0.0
C202 C 0.30219 0.99264 0.98315 0.0
C203 C 0.3042 0.96667 0.94688 0.0
C204 C 0.33769 0.9814 0.9143 0.0
C205 C 0.36967 0.01999 0.92065 0.0
C206 C 0.23699 0.86121 0.89874 0.0
C207 C 0.22161 0.84037 0.94508 0.0
C208 C 0.26257 0.90239 0.89906 0.0
C209 C 0.27348 0.92361 0.94585 0.0
C210 C 0.25697 0.90268 -0.00785 0.0
C211 C 0.23098 0.86148 -0.00835 0.0
H212 H 0.27731 0.33525 0.18025 0.0
H213 H 0.35559 0.39584 0.05194 0.0
H214 H 0.28812 0.279 0.16813 0.0
H215 H 0.36851 0.34114 0.04181 0.0
H216 H 0.37798 0.23142 0.02196 0.0
H217 H 0.3498 0.27538 0.02135 0.0
H218 H 0.34172 0.26868 0.18792 0.0
H219 H 0.36855 0.22346 0.18755 0.0
C220 C 0.29616 0.33623 0.14873 0.0
C221 C 0.31647 0.37048 0.11789 0.0
C222 C 0.30291 0.30424 0.14231 0.0
C223 C 0.33021 0.30593 0.10507 0.0
C224 C 0.34742 0.33861 0.07108 0.0
C225 C 0.34032 0.37031 0.07717 0.0
C226 C 0.37041 0.23976 0.0583 0.0
C227 C 0.3763 0.22509 0.10494 0.0
C228 C 0.3541 0.26477 0.05806 0.0
C229 C 0.3436 0.27593 0.10459 0.0
C230 C 0.34876 0.26033 0.15121 0.0
C231 C 0.36456 0.23485 0.15126 0.0
H232 H 0.96265 0.37186 0.22148 0.0
H233 H 0.93974 0.28076 0.33422 0.0
H234 H 0.0315 0.38659 0.21372 0.0
H235 H 0.00831 0.29433 0.32416 0.0
H236 H 0.13533 0.32724 0.24041 0.0
H237 H 0.06319 0.30223 0.23895 0.0
H238 H 0.08324 0.41273 0.30554 0.0
H239 H 0.15484 0.43656 0.31025 0.0
C240 C 0.972 0.35441 0.24375 0.0
C241 C 0.94609 0.32605 0.27965 0.0
C242 C 0.01132 0.36276 0.2391 0.0
C243 C 0.02506 0.34203 0.26908 0.0
C244 C -0.0018 0.31076 0.30087 0.0
C245 C 0.95895 0.30288 0.3063 0.0
C246 C 0.12415 0.34598 0.25499 0.0
C247 C 0.1507 0.38443 0.27367 0.0
C248 C 0.08311 0.33175 0.25398 0.0
C249 C 0.06811 0.35598 0.27114 0.0
C250 C 0.09444 0.39397 0.29099 0.0
C251 C 0.13534 0.40782 0.29301 0.0
H252 H 0.7254 0.14551 0.36988 0.0
H253 H 0.80108 0.13748 0.48549 0.0
H254 H 0.67802 0.07611 0.38031 0.0
H255 H 0.75647 0.0661 0.49047 0.0
H256 H 0.64565 0.95021 0.53733 0.0
H257 H 0.69932 0.01741 0.52257 0.0
H258 H 0.65748 0.01206 0.36615 0.0
H259 H 0.60125 0.94603 0.38371 0.0
C260 C 0.73177 0.12931 0.39842 0.0
C261 C 0.76616 0.1481 0.42922 0.0
C262 C 0.70501 0.08851 0.40299 0.0
C263 C 0.71272 0.06461 0.4366 0.0
C264 C 0.74833 0.08315 0.46537 0.0
C265 C 0.77433 0.12427 0.46217 0.0
C266 C 0.64856 0.96317 0.49941 0.0
C267 C 0.61936 0.94305 0.46165 0.0
C268 C 0.67957 0.00198 0.49071 0.0
C269 C 0.68289 0.02124 0.4433 0.0
C270 C 0.65538 -0.00066 0.40394 0.0
C271 C 0.62348 0.96104 0.41344 0.0
H272 H 0.57372 0.72364 0.54534 0.0
H273 H 0.6533 0.79597 0.66672 0.0
H274 H 0.59898 0.67852 0.55144 0.0
H275 H 0.68312 0.75409 0.66765 0.0
H276 H 0.69398 0.64488 0.70417 0.0
H277 H 0.67744 0.69685 0.69439 0.0
H278 H 0.64593 0.66261 0.53464 0.0
H279 H 0.65888 0.60785 0.54689 0.0
C280 C 0.59602 0.72972 0.57418 0.0
C281 C 0.60969 0.76258 0.60758 0.0
C282 C 0.61192 0.70437 0.57633 0.0
C283 C 0.64341 0.71208 0.6102 0.0
C284 C 0.6582 0.74598 0.64206 0.0
C285 C 0.64125 0.77043 0.64123 0.0
C286 C 0.68462 0.64926 0.66653 0.0
C287 C 0.6777 0.62238 0.62628 0.0
C288 C 0.67495 0.67924 0.66075 0.0
C289 C 0.65927 0.68393 0.61391 0.0
C290 C 0.65623 0.65925 0.57204 0.0
C291 C 0.66454 0.62831 0.57851 0.0
H292 H 0.04997 0.71497 0.85221 0.0
H293 H 0.03374 0.64042 0.72015 0.0
H294 H 0.9826 0.70365 0.84099 0.0
H295 H 0.96602 0.62739 0.71044 0.0
H296 H 0.84655 0.61686 0.85987 0.0
H297 H 0.91912 0.64708 0.85957 0.0
H298 H 0.91844 0.64664 0.69267 0.0
H299 H 0.84591 0.61533 0.69376 0.0
C300 C 0.03245 0.69707 0.8199 0.0
C301 C 0.04679 0.6778 0.78774 0.0
C302 C 0.99356 0.69003 0.81397 0.0
C303 C 0.96836 0.66363 0.7758 0.0
C304 C 0.98434 0.64779 0.74041 0.0
C305 C 0.0232 0.65503 0.74616 0.0
C306 C 0.8622 0.62337 0.82336 0.0
C307 C 0.84088 0.61276 0.77695 0.0
C308 C 0.90373 0.64108 0.82298 0.0
C309 C 0.92479 0.64918 0.77601 0.0
C310 C 0.90327 0.64009 0.72953 0.0
C311 C 0.86176 0.62199 0.73005 0.0
H312 H 0.42878 0.08283 0.19796 0.0
H313 H 0.47772 0.02291 0.10904 0.0
H314 H 0.42466 0.04348 0.27346 0.0
H315 H 0.47269 0.98297 0.18418 0.0
H316 H 0.50585 0.95575 0.33946 0.0
H317 H 0.50677 0.99484 0.26578 0.0
H318 H 0.39093 0.97602 0.30957 0.0
H319 H 0.3912 0.93823 0.38532 0.0
C320 C 0.43818 0.06091 0.19433 0.0
C321 C 0.45393 0.05624 0.14764 0.0
C322 C 0.43566 0.03826 0.23757 0.0
C323 C 0.44876 0.01045 0.23496 0.0
C324 C 0.46315 0.00479 0.18772 0.0
C325 C 0.46578 0.02748 0.14456 0.0
C326 C 0.48127 0.96115 0.33446 0.0
C327 C 0.44905 0.94518 0.36905 0.0
C328 C 0.48131 0.98274 0.2915 0.0
C329 C 0.44883 0.98837 0.28165 0.0
C330 C 0.41659 0.97255 0.31641 0.0
C331 C 0.41664 0.95094 0.35958 0.0
H332 H 0.34504 0.42883 0.35566 0.0
H333 H 0.45131 0.47253 0.26216 0.0
H334 H 0.38132 0.42524 0.42997 0.0
H335 H 0.48734 0.46789 0.33639 0.0
H336 H 0.45256 0.39447 0.54356 0.0
H337 H 0.41422 0.39162 0.46699 0.0
H338 H 0.51216 0.5046 0.41608 0.0
H339 H 0.55068 0.50615 0.49084 0.0
C340 C 0.37599 0.43705 0.35073 0.0
C341 C 0.39546 0.45139 0.30317 0.0
C342 C 0.39672 0.43481 0.39333 0.0
C343 C 0.43729 0.44673 0.38919 0.0
C344 C 0.45628 0.4593 0.34101 0.0
C345 C 0.43558 0.46168 0.29841 0.0
C346 C 0.4655 0.41872 0.51602 0.0
C347 C 0.50397 0.45111 0.52382 0.0
C348 C 0.44368 0.41718 0.47236 0.0
C349 C 0.4602 0.4479 0.4355 0.0
C350 C 0.49873 0.48028 0.44347 0.0
C351 C 0.52048 0.4817 0.48697 0.0
H352 H 0.03081 0.54749 0.66455 0.0
H353 H 0.05127 0.45228 0.71026 0.0
H354 H 0.99373 0.50941 0.58976 0.0
H355 H 0.0159 0.41458 0.63323 0.0
H356 H 0.91178 0.34369 0.51959 0.0
H357 H 0.95003 0.37913 0.59547 0.0
H358 H 0.00684 0.4889 0.50829 0.0
H359 H 0.96766 0.45367 0.43275 0.0
C360 C 0.02646 0.51792 0.6593 0.0
C361 C 0.04262 0.50215 0.6942 0.0
C362 C 0.0061 0.49648 0.61563 0.0
C363 C 0.00206 0.45904 0.60532 0.0
C364 C 0.01812 0.44315 0.64037 0.0
C365 C 0.03836 0.46462 0.68431 0.0
C366 C 0.93274 0.37533 0.51644 0.0
C367 C 0.93644 0.39599 0.47032 0.0
C368 C 0.95476 0.3956 0.55993 0.0
C369 C 0.98109 0.4369 0.55811 0.0
C370 C 0.98609 0.45721 0.51127 0.0
C371 C 0.96388 0.437 0.46787 0.0
H372 H 0.51272 0.96935 0.60922 0.0
H373 H 0.56523 0.91214 0.69639 0.0
H374 H 0.51837 0.00974 0.68427 0.0
H375 H 0.57002 0.95192 0.77165 0.0
H376 H 0.60202 0.05676 0.88354 0.0
H377 H 0.60282 0.01981 0.80706 0.0
H378 H 0.48481 -0.00353 0.76709 0.0
H379 H 0.48508 0.03463 0.84154 0.0
C380 C 0.52567 0.96556 0.64425 0.0
C381 C 0.53818 0.9373 0.64699 0.0
C382 C 0.52866 0.98849 0.68735 0.0
C383 C 0.54413 0.98359 0.73407 0.0
C384 C 0.55815 0.95651 0.73615 0.0
C385 C 0.55523 0.93361 0.69304 0.0
C386 C 0.57621 0.04318 0.85853 0.0
C387 C 0.543 0.04736 0.86927 0.0
C388 C 0.57659 0.02211 0.81491 0.0
C389 C 0.54389 0.00532 0.781 0.0
C390 C 0.51062 0.00936 0.79215 0.0
C391 C 0.51031 0.03038 0.83557 0.0
H392 H 0.44299 0.48885 -0.00717 0.0
H393 H 0.54077 0.60153 0.04309 0.0
H394 H 0.48108 0.48991 0.91774 0.0
H395 H 0.57879 0.60384 0.96612 0.0
H396 H 0.54096 0.5198 0.76327 0.0
H397 H 0.50538 0.52599 0.83716 0.0
H398 H 0.61161 0.56936 0.9301 0.0
H399 H 0.64741 0.56415 0.85618 0.0
C400 C 0.47307 0.51341 0.98835 0.0
C401 C 0.48964 0.5444 0.02464 0.0
C402 C 0.49454 0.51457 0.94464 0.0
C403 C 0.53288 0.54704 0.9359 0.0
C404 C 0.54945 0.57822 0.97212 0.0
C405 C 0.52786 0.57698 0.01601 0.0
C406 C 0.55683 0.53115 0.79928 0.0
C407 C 0.59684 0.54107 0.80405 0.0
C408 C 0.53641 0.53444 0.84167 0.0
C409 C 0.55559 0.54765 0.88959 0.0
C410 C 0.59609 0.5593 0.89364 0.0
C411 C 0.61652 0.5561 0.85129 0.0
H412 H 0.06992 0.64924 0.02196 0.0
H413 H 0.01188 0.5401 0.93347 0.0
H414 H 0.02885 0.61441 0.09634 0.0
H415 H 0.97012 0.50549 0.00774 0.0
H416 H 0.947 0.44742 0.16584 0.0
H417 H 0.98356 0.48478 0.09016 0.0
H418 H 0.96092 0.57963 0.13201 0.0
H419 H 0.92551 0.54232 0.20967 0.0
C420 C 0.04794 0.61794 0.0181 0.0
C421 C 0.04451 0.59726 0.97203 0.0
C422 C 0.02427 0.59807 0.0607 0.0
C423 C -0.00335 0.55714 0.05808 0.0
C424 C 0.99177 0.53691 0.01119 0.0
C425 C 0.01549 0.55677 0.96856 0.0
C426 C 0.95103 0.47681 0.15986 0.0
C427 C 0.93488 0.4928 0.19452 0.0
C428 C 0.97106 0.4978 0.11578 0.0
C429 C 0.97494 0.53506 0.10496 0.0
C430 C 0.9587 0.55112 0.13961 0.0
C431 C 0.93856 0.52996 0.18389 0.0
H432 H 0.56213 0.2166 0.88989 0.0
H433 H 0.46853 0.24292 0.92407 0.0
H434 H 0.59698 0.27775 0.83944 0.0
H435 H 0.50357 0.3042 0.87347 0.0
H436 H 0.55573 0.38343 0.73096 0.0
H437 H 0.52248 0.32158 0.77889 0.0
H438 H 0.63189 0.35375 0.85949 0.0
H439 H 0.66584 0.41678 0.8113 0.0
C440 C 0.54869 0.23515 0.88607 0.0
C441 C 0.51251 0.22496 0.91097 0.0
C442 C 0.56896 0.27038 0.85774 0.0
C443 C 0.55314 0.29577 0.85306 0.0
C444 C 0.51639 0.28505 0.87656 0.0
C445 C 0.49635 0.25006 0.90552 0.0
C446 C 0.57304 0.37753 0.75868 0.0
C447 C 0.61357 0.40521 0.76741 0.0
C448 C 0.55375 0.34208 0.78632 0.0
C449 C 0.57451 0.3331 0.82305 0.0
C450 C 0.61529 0.36009 0.83114 0.0
C451 C 0.63466 0.39608 0.80373 0.0
H452 H 0.23998 0.66834 0.97937 0.0
H453 H 0.16179 0.55587 0.90474 0.0
H454 H 0.27091 0.63619 0.02759 0.0
H455 H 0.19224 0.52446 0.95255 0.0
H456 H 0.22153 0.47406 0.09594 0.0
H457 H 0.19358 0.50828 0.04736 0.0
H458 H 0.31216 0.60122 0.00665 0.0
H459 H 0.34027 0.56709 0.05523 0.0
C460 C 0.22953 0.637 0.97315 0.0
C461 C 0.19845 0.61474 0.93831 0.0
C462 C 0.24723 0.61869 0.00052 0.0
C463 C 0.23364 0.57782 -0.00609 0.0
C464 C 0.20291 0.55585 0.95882 0.0
C465 C 0.18567 0.57407 0.93123 0.0
C466 C 0.2416 0.50163 0.0764 0.0
C467 C 0.28302 0.51779 0.07927 0.0
C468 C 0.22564 0.52121 0.04863 0.0
C469 C 0.25082 0.55751 0.02366 0.0
C470 C 0.2922 0.57352 0.02609 0.0
C471 C 0.30816 0.55369 0.05333 0.0
H472 H 0.55616 0.2178 0.17241 0.0
H473 H 0.61816 0.21692 0.0343 0.0
H474 H 0.61917 0.24735 0.22031 0.0
H475 H 0.68074 0.24638 0.08176 0.0
H476 H 0.79084 0.32849 0.18108 0.0
H477 H 0.73006 0.30771 0.13118 0.0
H478 H 0.66241 0.21708 0.24465 0.0
H479 H 0.72286 0.23788 0.29452 0.0
C480 C 0.58339 0.22496 0.15209 0.0
C481 C 0.58244 0.21499 0.0999 0.0
C482 C 0.61925 0.24138 0.17949 0.0
C483 C 0.65462 0.24861 0.15474 0.0
C484 C 0.65397 0.24118 0.10172 0.0
C485 C 0.61817 0.22429 0.07465 0.0
C486 C 0.76307 0.30375 0.19494 0.0
C487 C 0.76172 0.28446 0.24145 0.0
C488 C 0.72832 0.29204 0.16655 0.0
C489 C 0.69154 0.26122 0.18455 0.0
C490 C 0.69031 0.24141 0.23041 0.0
C491 C 0.72508 0.2528 0.25845 0.0
H492 H 0.4249 0.77194 0.3927 0.0
H493 H 0.51489 0.74236 0.43488 0.0
H494 H 0.39034 0.71069 0.34222 0.0
H495 H 0.48027 0.68118 0.38403 0.0
H496 H 0.43449 0.60676 0.2363 0.0
H497 H 0.46584 0.66718 0.28706 0.0
H498 H 0.35346 0.63322 0.36109 0.0
H499 H 0.32133 0.5714 0.31001 0.0
C500 C 0.43757 0.75261 0.39072 0.0
C501 C 0.47279 0.76205 0.41752 0.0
C502 C 0.41745 0.71735 0.36238 0.0
C503 C 0.43252 0.69123 0.35965 0.0
C504 C 0.46809 0.70096 0.38559 0.0
C505 C 0.48792 0.73593 0.41457 0.0
C506 C 0.4161 0.61192 0.26315 0.0
C507 C 0.37526 0.58408 0.26917 0.0
C508 C 0.4343 0.64655 0.29245 0.0
C509 C 0.41217 0.6546 0.32818 0.0
C510 C 0.3711 0.62752 0.3336 0.0
C511 C 0.35278 0.59226 0.30454 0.0
H512 H 0.77945 0.33736 0.50627 0.0
H513 H 0.77007 0.39473 0.36852 0.0
H514 H 0.75049 0.37023 0.55687 0.0
H515 H 0.74134 0.42732 0.41864 0.0
H516 H 0.66143 0.45406 0.52268 0.0
H517 H 0.68228 0.41452 0.47208 0.0
H518 H 0.77777 0.44321 0.57985 0.0
H519 H 0.75689 0.48249 0.63061 0.0
C520 C 0.77024 0.35612 0.48672 0.0
C521 C 0.77706 0.36369 0.43368 0.0
C522 C 0.75417 0.37526 0.51563 0.0
C523 C 0.74416 0.40166 0.49167 0.0
C524 C 0.74867 0.40708 0.43809 0.0
C525 C 0.76516 0.38847 0.40946 0.0
C526 C 0.68717 0.45232 0.53528 0.0
C527 C 0.70771 0.47172 0.58052 0.0
C528 C 0.69896 0.42955 0.50641 0.0
C529 C 0.73128 0.42539 0.52248 0.0
C530 C 0.75228 0.44534 0.56712 0.0
C531 C 0.74072 0.46842 0.59572 0.0
H532 H 0.43201 0.77411 0.67708 0.0
H533 H 0.36985 0.77988 0.54211 0.0
H534 H 0.36933 0.74429 0.72595 0.0
H535 H 0.30759 0.75003 0.59055 0.0
H536 H 0.19755 0.66459 0.68855 0.0
H537 H 0.25835 0.6865 0.63788 0.0
H538 H 0.32616 0.77427 0.7542 0.0
H539 H 0.26574 0.75249 0.8047 0.0
C540 C 0.40485 0.76816 0.65765 0.0
C541 C 0.40571 0.77945 0.60605 0.0
C542 C 0.36916 0.75149 0.68561 0.0
C543 C 0.3338 0.74527 0.66202 0.0
C544 C 0.33436 0.7544 0.6096 0.0
C545 C 0.37 0.77157 0.58199 0.0
C546 C 0.22537 0.68888 0.70296 0.0
C547 C 0.22674 0.70719 0.75034 0.0
C548 C 0.26012 0.70126 0.6741 0.0
C549 C 0.29693 0.73172 0.69252 0.0
C550 C 0.29823 0.7503 0.73952 0.0
C551 C 0.26346 0.7383 0.768 0.0
loop_
_geom_bond_atom_site_label_1
_geom_bond_atom_site_label_2
_geom_bond_distance
_geom_bond_site_symmetry_2
_ccdc_geom_bond_type
Zn0 O1 2.055 1_556 S
Zn0 O8 2.046 1_556 S
Zn0 N16 2.036 . S
Zn0 O28 2.053 . S
Zn0 O30 2.066 . S
O1 Zn0 2.055 1_554 S
O1 C4 1.259 . S
C2 O30 1.256 . S
C2 O31 1.244 1_556 S
Zn3 O5 2.046 . S
Zn3 O7 2.055 . S
Zn3 N9 2.036 . S
Zn3 O27 2.066 1_554 S
Zn3 O31 2.053 . S
C4 O1 1.259 . S
C4 O5 1.254 . S
O5 Zn3 2.046 . S
O5 C4 1.254 . S
C6 O27 1.256 . S
C6 O28 1.244 . S
O7 Zn3 2.055 . S
O7 C29 1.259 . S
O8 Zn0 2.046 1_554 S
O8 C29 1.254 . S
N9 Zn3 2.036 . S
N9 C10 1.298 . S
N9 N12 1.398 . S
C10 N9 1.298 . S
C10 N13 1.367 . S
C10 C23 1.481 . S
C11 N12 1.299 . S
C11 N13 1.379 . S
N12 N9 1.398 . S
N12 C11 1.299 . S
N13 C10 1.367 . S
N13 C11 1.379 . S
C14 N16 1.298 . S
C14 N18 1.367 . S
C14 C22 1.481 . S
C15 N17 1.299 . S
C15 N18 1.379 . S
N16 Zn0 2.036 . S
N16 C14 1.298 . S
N16 N17 1.398 . S
N17 C15 1.299 . S
N17 N16 1.398 . S
N18 C14 1.367 . S
N18 C15 1.379 . S
H19 C22 0.980 1_554 S
H20 C22 0.981 . S
H21 C22 0.981 . S
C22 C14 1.481 . S
C22 H19 0.980 1_556 S
C22 H20 0.981 . S
C22 H21 0.981 . S
C23 C10 1.481 . S
C23 H24 0.980 . S
C23 H25 0.981 . S
C23 H26 0.981 . S
H24 C23 0.980 . S
H25 C23 0.981 . S
H26 C23 0.981 . S
O27 Zn3 2.066 1_556 S
O27 C6 1.256 . S
O28 Zn0 2.053 . S
O28 C6 1.244 . S
C29 O7 1.259 . S
C29 O8 1.254 . S
O30 Zn0 2.066 . S
O30 C2 1.256 . S
O31 C2 1.244 1_554 S
O31 Zn3 2.053 . S
Zn32 O33 2.055 . S
Zn32 O40 2.046 . S
Zn32 N48 2.036 . S
Zn32 O60 2.053 . S
Zn32 O62 2.066 . S
O33 Zn32 2.055 . S
O33 C36 1.259 . S
C34 O62 1.256 . S
C34 O63 1.244 . S
Zn35 O37 2.046 . S
Zn35 O39 2.055 . S
Zn35 N41 2.036 . S
Zn35 O59 2.066 . S
Zn35 O63 2.053 . S
C36 O33 1.259 . S
C36 O37 1.254 . S
O37 Zn35 2.046 . S
O37 C36 1.254 . S
C38 O59 1.256 . S
C38 O60 1.244 . S
O39 Zn35 2.055 . S
O39 C61 1.259 . S
O40 Zn32 2.046 . S
O40 C61 1.254 . S
N41 Zn35 2.036 . S
N41 C42 1.298 . S
N41 N44 1.398 . S
C42 N41 1.298 . S
C42 N45 1.367 . S
C42 C55 1.481 . S
C43 N44 1.299 . S
C43 N45 1.379 . S
N44 N41 1.398 . S
N44 C43 1.299 . S
N45 C42 1.367 . S
N45 C43 1.379 . S
C46 N48 1.298 . S
C46 N50 1.367 . S
C46 C54 1.481 . S
C47 N49 1.299 . S
C47 N50 1.379 . S
N48 Zn32 2.036 . S
N48 C46 1.298 . S
N48 N49 1.398 . S
N49 C47 1.299 . S
N49 N48 1.398 . S
N50 C46 1.367 . S
N50 C47 1.379 . S
H51 C54 0.980 . S
H52 C54 0.981 . S
H53 C54 0.981 . S
C54 C46 1.481 . S
C54 H51 0.980 . S
C54 H52 0.981 . S
C54 H53 0.981 . S
C55 C42 1.481 . S
C55 H56 0.980 . S
C55 H57 0.981 . S
C55 H58 0.981 . S
H56 C55 0.980 . S
H57 C55 0.981 . S
H58 C55 0.981 . S
O59 Zn35 2.066 . S
O59 C38 1.256 . S
O60 Zn32 2.053 . S
O60 C38 1.244 . S
C61 O39 1.259 . S
C61 O40 1.254 . S
O62 Zn32 2.066 . S
O62 C34 1.256 . S
O63 C34 1.244 . S
O63 Zn35 2.053 . S
Zn64 O65 2.055 . S
Zn64 O72 2.046 . S
Zn64 N80 2.036 . S
Zn64 O92 2.053 . S
Zn64 O94 2.066 . S
O65 Zn64 2.055 . S
O65 C68 1.259 . S
C66 O94 1.256 . S
C66 O95 1.244 . S
Zn67 O69 2.046 . S
Zn67 O71 2.055 . S
Zn67 N73 2.036 . S
Zn67 O91 2.066 . S
Zn67 O95 2.053 . S
C68 O65 1.259 . S
C68 O69 1.254 . S
O69 Zn67 2.046 . S
O69 C68 1.254 . S
C70 O91 1.256 . S
C70 O92 1.244 . S
O71 Zn67 2.055 . S
O71 C93 1.259 . S
O72 Zn64 2.046 . S
O72 C93 1.254 . S
N73 Zn67 2.036 . S
N73 C74 1.298 . S
N73 N76 1.398 . S
C74 N73 1.298 . S
C74 N77 1.367 . S
C74 C87 1.481 . S
C75 N76 1.299 . S
C75 N77 1.379 . S
N76 N73 1.398 . S
N76 C75 1.299 . S
N77 C74 1.367 . S
N77 C75 1.379 . S
C78 N80 1.298 . S
C78 N82 1.367 . S
C78 C86 1.481 . S
C79 N81 1.299 . S
C79 N82 1.379 . S
N80 Zn64 2.036 . S
N80 C78 1.298 . S
N80 N81 1.398 . S
N81 C79 1.299 . S
N81 N80 1.398 . S
N82 C78 1.367 . S
N82 C79 1.379 . S
H83 C86 0.980 . S
H84 C86 0.981 . S
H85 C86 0.981 . S
C86 C78 1.481 . S
C86 H83 0.980 . S
C86 H84 0.981 . S
C86 H85 0.981 . S
C87 C74 1.481 . S
C87 H88 0.980 . S
C87 H89 0.981 . S
C87 H90 0.981 . S
H88 C87 0.980 . S
H89 C87 0.981 . S
H90 C87 0.981 . S
O91 Zn67 2.066 . S
O91 C70 1.256 . S
O92 Zn64 2.053 . S
O92 C70 1.244 . S
C93 O71 1.259 . S
C93 O72 1.254 . S
O94 Zn64 2.066 . S
O94 C66 1.256 . S
O95 C66 1.244 . S
O95 Zn67 2.053 . S
Zn96 O97 2.055 . S
Zn96 O104 2.046 . S
Zn96 N112 2.036 . S
Zn96 O124 2.053 . S
Zn96 O126 2.066 . S
O97 Zn96 2.055 . S
O97 C100 1.259 . S
C98 O126 1.256 . S
C98 O127 1.244 . S
Zn99 O101 2.046 . S
Zn99 O103 2.055 . S
Zn99 N105 2.036 . S
Zn99 O123 2.066 . S
Zn99 O127 2.053 . S
C100 O97 1.259 . S
C100 O101 1.254 . S
O101 Zn99 2.046 . S
O101 C100 1.254 . S
C102 O123 1.256 . S
C102 O124 1.244 . S
O103 Zn99 2.055 . S
O103 C125 1.259 . S
O104 Zn96 2.046 . S
O104 C125 1.254 . S
N105 Zn99 2.036 . S
N105 C106 1.298 . S
N105 N108 1.398 . S
C106 N105 1.298 . S
C106 N109 1.367 . S
C106 C119 1.481 . S
C107 N108 1.299 . S
C107 N109 1.379 . S
N108 N105 1.398 . S
N108 C107 1.299 . S
N109 C106 1.367 . S
N109 C107 1.379 . S
C110 N112 1.298 . S
C110 N114 1.367 . S
C110 C118 1.481 . S
C111 N113 1.299 . S
C111 N114 1.379 . S
N112 Zn96 2.036 . S
N112 C110 1.298 . S
N112 N113 1.398 . S
N113 C111 1.299 . S
N113 N112 1.398 . S
N114 C110 1.367 . S
N114 C111 1.379 . S
H115 C118 0.980 . S
H116 C118 0.981 . S
H117 C118 0.981 . S
C118 C110 1.481 . S
C118 H115 0.980 . S
C118 H116 0.981 . S
C118 H117 0.981 . S
C119 C106 1.481 . S
C119 H120 0.980 . S
C119 H121 0.981 . S
C119 H122 0.981 . S
H120 C119 0.980 . S
H121 C119 0.981 . S
H122 C119 0.981 . S
O123 Zn99 2.066 . S
O123 C102 1.256 . S
O124 Zn96 2.053 . S
O124 C102 1.244 . S
C125 O103 1.259 . S
C125 O104 1.254 . S
O126 Zn96 2.066 . S
O126 C98 1.256 . S
O127 C98 1.244 . S
O127 Zn99 2.053 . S
Zn128 O129 2.055 . S
Zn128 O136 2.046 . S
Zn128 N144 2.036 . S
Zn128 O156 2.053 . S
Zn128 O158 2.066 . S
O129 Zn128 2.055 . S
O129 C132 1.259 . S
C130 O158 1.256 . S
C130 O159 1.244 . S
Zn131 O133 2.046 . S
Zn131 O135 2.055 . S
Zn131 N137 2.036 . S
Zn131 O155 2.066 . S
Zn131 O159 2.053 . S
C132 O129 1.259 . S
C132 O133 1.254 . S
O133 Zn131 2.046 . S
O133 C132 1.254 . S
C134 O155 1.256 . S
C134 O156 1.244 . S
O135 Zn131 2.055 . S
O135 C157 1.259 . S
O136 Zn128 2.046 . S
O136 C157 1.254 . S
N137 Zn131 2.036 . S
N137 C138 1.298 . S
N137 N140 1.398 . S
C138 N137 1.298 . S
C138 N141 1.367 . S
C138 C151 1.481 . S
C139 N140 1.299 . S
C139 N141 1.379 . S
N140 N137 1.398 . S
N140 C139 1.299 . S
N141 C138 1.367 . S
N141 C139 1.379 . S
C142 N144 1.298 . S
C142 N146 1.367 . S
C142 C150 1.481 . S
C143 N145 1.299 . S
C143 N146 1.379 . S
N144 Zn128 2.036 . S
N144 C142 1.298 . S
N144 N145 1.398 . S
N145 C143 1.299 . S
N145 N144 1.398 . S
N146 C142 1.367 . S
N146 C143 1.379 . S
H147 C150 0.980 . S
H148 C150 0.981 . S
H149 C150 0.981 . S
C150 C142 1.481 . S
C150 H147 0.980 . S
C150 H148 0.981 . S
C150 H149 0.981 . S
C151 C138 1.481 . S
C151 H152 0.980 . S
C151 H153 0.981 . S
C151 H154 0.981 . S
H152 C151 0.980 . S
H153 C151 0.981 . S
H154 C151 0.981 . S
O155 Zn131 2.066 . S
O155 C134 1.256 . S
O156 Zn128 2.053 . S
O156 C134 1.244 . S
C157 O135 1.259 . S
C157 O136 1.254 . S
O158 Zn128 2.066 . S
O158 C130 1.256 . S
O159 C130 1.244 . S
O159 Zn131 2.053 . S
Zn160 O161 2.055 . S
Zn160 O168 2.046 . S
Zn160 N176 2.036 . S
Zn160 O188 2.053 . S
Zn160 O190 2.066 . S
O161 Zn160 2.055 . S
O161 C164 1.259 . S
C162 O190 1.256 . S
C162 O191 1.244 . S
Zn163 O165 2.046 . S
Zn163 O167 2.055 . S
Zn163 N169 2.036 . S
Zn163 O187 2.066 . S
Zn163 O191 2.053 . S
C164 O161 1.259 . S
C164 O165 1.254 . S
O165 Zn163 2.046 . S
O165 C164 1.254 . S
C166 O187 1.256 . S
C166 O188 1.244 . S
O167 Zn163 2.055 . S
O167 C189 1.259 . S
O168 Zn160 2.046 . S
O168 C189 1.254 . S
N169 Zn163 2.036 . S
N169 C170 1.298 . S
N169 N172 1.398 . S
C170 N169 1.298 . S
C170 N173 1.367 . S
C170 C183 1.481 . S
C171 N172 1.299 . S
C171 N173 1.379 . S
N172 N169 1.398 . S
N172 C171 1.299 . S
N173 C170 1.367 . S
N173 C171 1.379 . S
C174 N176 1.298 . S
C174 N178 1.367 . S
C174 C182 1.481 . S
C175 N177 1.299 . S
C175 N178 1.379 . S
N176 Zn160 2.036 . S
N176 C174 1.298 . S
N176 N177 1.398 . S
N177 C175 1.299 . S
N177 N176 1.398 . S
N178 C174 1.367 . S
N178 C175 1.379 . S
H179 C182 0.980 . S
H180 C182 0.981 . S
H181 C182 0.981 . S
C182 C174 1.481 . S
C182 H179 0.980 . S
C182 H180 0.981 . S
C182 H181 0.981 . S
C183 C170 1.481 . S
C183 H184 0.980 . S
C183 H185 0.981 . S
C183 H186 0.981 . S
H184 C183 0.980 . S
H185 C183 0.981 . S
H186 C183 0.981 . S
O187 Zn163 2.066 . S
O187 C166 1.256 . S
O188 Zn160 2.053 . S
O188 C166 1.244 . S
C189 O167 1.259 . S
C189 O168 1.254 . S
O190 Zn160 2.066 . S
O190 C162 1.256 . S
O191 C162 1.244 . S
O191 Zn163 2.053 . S
H192 C200 0.950 . S
H193 C205 0.950 . S
H194 C202 0.950 . S
H195 C204 0.950 . S
H196 C206 0.950 . S
H197 C208 0.950 . S
H198 C210 0.950 . S
H199 C211 0.950 . S
C200 H192 0.950 . S
C200 C201 1.386 . S
C200 C202 1.391 1_545 S
C201 C200 1.386 . S
C201 C205 1.393 . S
C202 H194 0.950 . S
C202 C200 1.391 1_565 S
C202 C203 1.400 . S
C203 C202 1.400 . S
C203 C204 1.398 . S
C203 C209 1.491 . S
C204 H195 0.950 . S
C204 C203 1.398 . S
C204 C205 1.391 1_565 S
C205 H193 0.950 . S
C205 C201 1.393 . S
C205 C204 1.391 1_545 S
C206 H196 0.950 . S
C206 C207 1.386 . S
C206 C208 1.391 . S
C207 C206 1.386 . S
C207 C211 1.393 . S
C208 H197 0.950 . S
C208 C206 1.391 . S
C208 C209 1.400 . S
C209 C203 1.491 . S
C209 C208 1.400 . S
C209 C210 1.398 . S
C210 H198 0.950 . S
C210 C209 1.398 . S
C210 C211 1.391 . S
C211 H199 0.950 . S
C211 C207 1.393 . S
C211 C210 1.391 . S
H212 C220 0.950 . S
H213 C225 0.950 . S
H214 C222 0.950 . S
H215 C224 0.950 . S
H216 C226 0.950 . S
H217 C228 0.950 . S
H218 C230 0.950 . S
H219 C231 0.950 . S
C220 H212 0.950 . S
C220 C221 1.386 . S
C220 C222 1.391 . S
C221 C220 1.386 . S
C221 C225 1.393 . S
C222 H214 0.950 . S
C222 C220 1.391 . S
C222 C223 1.400 . S
C223 C222 1.400 . S
C223 C224 1.398 . S
C223 C229 1.491 . S
C224 H215 0.950 . S
C224 C223 1.398 . S
C224 C225 1.391 . S
C225 H213 0.950 . S
C225 C221 1.393 . S
C225 C224 1.391 . S
C226 H216 0.950 . S
C226 C227 1.386 . S
C226 C228 1.391 . S
C227 C226 1.386 . S
C227 C231 1.393 . S
C228 H217 0.950 . S
C228 C226 1.391 . S
C228 C229 1.400 . S
C229 C223 1.491 . S
C229 C228 1.400 . S
C229 C230 1.398 . S
C230 H218 0.950 . S
C230 C229 1.398 . S
C230 C231 1.391 . S
C231 H219 0.950 . S
C231 C227 1.393 . S
C231 C230 1.391 . S
H232 C240 0.950 . S
H233 C245 0.950 . S
H234 C242 0.950 . S
H235 C244 0.950 . S
H236 C246 0.950 . S
H237 C248 0.950 . S
H238 C250 0.950 . S
H239 C251 0.950 . S
C240 H232 0.950 . S
C240 C241 1.386 . S
C240 C242 1.391 1_655 S
C241 C240 1.386 . S
C241 C245 1.393 . S
C242 H234 0.950 . S
C242 C240 1.391 1_455 S
C242 C243 1.400 . S
C243 C242 1.400 . S
C243 C244 1.398 . S
C243 C249 1.491 . S
C244 H235 0.950 . S
C244 C243 1.398 . S
C244 C245 1.391 1_455 S
C245 H233 0.950 . S
C245 C241 1.393 . S
C245 C244 1.391 1_655 S
C246 H236 0.950 . S
C246 C247 1.386 . S
C246 C248 1.391 . S
C247 C246 1.386 . S
C247 C251 1.393 . S
C248 H237 0.950 . S
C248 C246 1.391 . S
C248 C249 1.400 . S
C249 C243 1.491 . S
C249 C248 1.400 . S
C249 C250 1.398 . S
C250 H238 0.950 . S
C250 C249 1.398 . S
C250 C251 1.391 . S
C251 H239 0.950 . S
C251 C247 1.393 . S
C251 C250 1.391 . S
H252 C260 0.950 . S
H253 C265 0.950 . S
H254 C262 0.950 . S
H255 C264 0.950 . S
H256 C266 0.950 . S
H257 C268 0.950 . S
H258 C270 0.950 . S
H259 C271 0.950 . S
C260 H252 0.950 . S
C260 C261 1.386 . S
C260 C262 1.391 . S
C261 C260 1.386 . S
C261 C265 1.393 . S
C262 H254 0.950 . S
C262 C260 1.391 . S
C262 C263 1.400 . S
C263 C262 1.400 . S
C263 C264 1.398 . S
C263 C269 1.491 . S
C264 H255 0.950 . S
C264 C263 1.398 . S
C264 C265 1.391 . S
C265 H253 0.950 . S
C265 C261 1.393 . S
C265 C264 1.391 . S
C266 H256 0.950 . S
C266 C267 1.386 . S
C266 C268 1.391 1_565 S
C267 C266 1.386 . S
C267 C271 1.393 . S
C268 H257 0.950 . S
C268 C266 1.391 1_545 S
C268 C269 1.400 . S
C269 C263 1.491 . S
C269 C268 1.400 . S
C269 C270 1.398 . S
C270 H258 0.950 . S
C270 C269 1.398 . S
C270 C271 1.391 1_545 S
C271 H259 0.950 . S
C271 C267 1.393 . S
C271 C270 1.391 1_565 S
H272 C280 0.950 . S
H273 C285 0.950 . S
H274 C282 0.950 . S
H275 C284 0.950 . S
H276 C286 0.950 . S
H277 C288 0.950 . S
H278 C290 0.950 . S
H279 C291 0.950 . S
C280 H272 0.950 . S
C280 C281 1.386 . S
C280 C282 1.391 . S
C281 C280 1.386 . S
C281 C285 1.393 . S
C282 H274 0.950 . S
C282 C280 1.391 . S
C282 C283 1.400 . S
C283 C282 1.400 . S
C283 C284 1.398 . S
C283 C289 1.491 . S
C284 H275 0.950 . S
C284 C283 1.398 . S
C284 C285 1.391 . S
C285 H273 0.950 . S
C285 C281 1.393 . S
C285 C284 1.391 . S
C286 H276 0.950 . S
C286 C287 1.386 . S
C286 C288 1.391 . S
C287 C286 1.386 . S
C287 C291 1.393 . S
C288 H277 0.950 . S
C288 C286 1.391 . S
C288 C289 1.400 . S
C289 C283 1.491 . S
C289 C288 1.400 . S
C289 C290 1.398 . S
C290 H278 0.950 . S
C290 C289 1.398 . S
C290 C291 1.391 . S
C291 H279 0.950 . S
C291 C287 1.393 . S
C291 C290 1.391 . S
H292 C300 0.950 . S
H293 C305 0.950 . S
H294 C302 0.950 . S
H295 C304 0.950 . S
H296 C306 0.950 . S
H297 C308 0.950 . S
H298 C310 0.950 . S
H299 C311 0.950 . S
C300 H292 0.950 . S
C300 C301 1.386 . S
C300 C302 1.391 1_455 S
C301 C300 1.386 . S
C301 C305 1.393 . S
C302 H294 0.950 . S
C302 C300 1.391 1_655 S
C302 C303 1.400 . S
C303 C302 1.400 . S
C303 C304 1.398 . S
C303 C309 1.491 . S
C304 H295 0.950 . S
C304 C303 1.398 . S
C304 C305 1.391 1_655 S
C305 H293 0.950 . S
C305 C301 1.393 . S
C305 C304 1.391 1_455 S
C306 H296 0.950 . S
C306 C307 1.386 . S
C306 C308 1.391 . S
C307 C306 1.386 . S
C307 C311 1.393 . S
C308 H297 0.950 . S
C308 C306 1.391 . S
C308 C309 1.400 . S
C309 C303 1.491 . S
C309 C308 1.400 . S
C309 C310 1.398 . S
C310 H298 0.950 . S
C310 C309 1.398 . S
C310 C311 1.391 . S
C311 H299 0.950 . S
C311 C307 1.393 . S
C311 C310 1.391 . S
H312 C320 0.950 . S
H313 C325 0.950 . S
H314 C322 0.950 . S
H315 C324 0.950 1_565 S
H316 C326 0.950 . S
H317 C328 0.950 . S
H318 C330 0.950 . S
H319 C331 0.950 . S
C320 H312 0.950 . S
C320 C321 1.386 . S
C320 C322 1.391 . S
C321 C320 1.386 . S
C321 C325 1.393 . S
C322 H314 0.950 . S
C322 C320 1.391 . S
C322 C323 1.400 . S
C323 C322 1.400 . S
C323 C324 1.398 . S
C323 C329 1.491 . S
C324 H315 0.950 1_545 S
C324 C323 1.398 . S
C324 C325 1.391 . S
C325 H313 0.950 . S
C325 C321 1.393 . S
C325 C324 1.391 . S
C326 H316 0.950 . S
C326 C327 1.386 . S
C326 C328 1.391 . S
C327 C326 1.386 . S
C327 C331 1.393 1_565 S
C328 H317 0.950 . S
C328 C326 1.391 . S
C328 C329 1.400 1_565 S
C329 C323 1.491 . S
C329 C328 1.400 1_545 S
C329 C330 1.398 . S
C330 H318 0.950 . S
C330 C329 1.398 . S
C330 C331 1.391 . S
C331 H319 0.950 . S
C331 C327 1.393 1_545 S
C331 C330 1.391 . S
H332 C340 0.950 . S
H333 C345 0.950 . S
H334 C342 0.950 . S
H335 C344 0.950 . S
H336 C346 0.950 . S
H337 C348 0.950 . S
H338 C350 0.950 . S
H339 C351 0.950 . S
C340 H332 0.950 . S
C340 C341 1.386 . S
C340 C342 1.391 . S
C341 C340 1.386 . S
C341 C345 1.393 . S
C342 H334 0.950 . S
C342 C340 1.391 . S
C342 C343 1.400 . S
C343 C342 1.400 . S
C343 C344 1.398 . S
C343 C349 1.491 . S
C344 H335 0.950 . S
C344 C343 1.398 . S
C344 C345 1.391 . S
C345 H333 0.950 . S
C345 C341 1.393 . S
C345 C344 1.391 . S
C346 H336 0.950 . S
C346 C347 1.386 . S
C346 C348 1.391 . S
C347 C346 1.386 . S
C347 C351 1.393 . S
C348 H337 0.950 . S
C348 C346 1.391 . S
C348 C349 1.400 . S
C349 C343 1.491 . S
C349 C348 1.400 . S
C349 C350 1.398 . S
C350 H338 0.950 . S
C350 C349 1.398 . S
C350 C351 1.391 . S
C351 H339 0.950 . S
C351 C347 1.393 . S
C351 C350 1.391 . S
H352 C360 0.950 . S
H353 C365 0.950 . S
H354 C362 0.950 . S
H355 C364 0.950 . S
H356 C366 0.950 . S
H357 C368 0.950 1_455 S
H358 C370 0.950 . S
H359 C371 0.950 . S
C360 H352 0.950 . S
C360 C361 1.386 . S
C360 C362 1.391 1_455 S
C361 C360 1.386 . S
C361 C365 1.393 . S
C362 H354 0.950 . S
C362 C360 1.391 1_655 S
C362 C363 1.400 . S
C363 C362 1.400 . S
C363 C364 1.398 1_655 S
C363 C369 1.491 . S
C364 H355 0.950 . S
C364 C363 1.398 1_455 S
C364 C365 1.391 . S
C365 H353 0.950 . S
C365 C361 1.393 . S
C365 C364 1.391 . S
C366 H356 0.950 . S
C366 C367 1.386 . S
C366 C368 1.391 . S
C367 C366 1.386 . S
C367 C371 1.393 . S
C368 H357 0.950 1_655 S
C368 C366 1.391 . S
C368 C369 1.400 . S
C369 C363 1.491 . S
C369 C368 1.400 . S
C369 C370 1.398 . S
C370 H358 0.950 . S
C370 C369 1.398 . S
C370 C371 1.391 . S
C371 H359 0.950 . S
C371 C367 1.393 . S
C371 C370 1.391 . S
H372 C380 0.950 . S
H373 C385 0.950 . S
H374 C382 0.950 . S
H375 C384 0.944 1_545 S
H376 C386 0.950 . S
H377 C388 0.950 . S
H378 C390 0.950 . S
H379 C391 0.950 . S
C380 H372 0.950 . S
C380 C381 1.386 . S
C380 C382 1.391 . S
C381 C380 1.386 . S
C381 C385 1.393 . S
C382 H374 0.950 . S
C382 C380 1.391 . S
C382 C383 1.400 . S
C383 C382 1.400 . S
C383 C384 1.398 . S
C383 C389 1.491 . S
C384 H375 0.944 1_565 S
C384 C383 1.398 . S
C384 C385 1.391 . S
C385 H373 0.950 . S
C385 C381 1.393 . S
C385 C384 1.391 . S
C386 H376 0.950 . S
C386 C387 1.386 . S
C386 C388 1.391 . S
C387 C386 1.386 . S
C387 C391 1.393 . S
C388 H377 0.950 . S
C388 C386 1.391 . S
C388 C389 1.400 1_545 S
C389 C383 1.491 . S
C389 C388 1.400 1_565 S
C389 C390 1.398 . S
C390 H378 0.950 . S
C390 C389 1.398 . S
C390 C391 1.391 1_565 S
C391 H379 0.950 . S
C391 C387 1.393 . S
C391 C390 1.391 1_545 S
H392 C400 0.950 . S
H393 C405 0.950 . S
H394 C402 0.950 . S
H395 C404 0.950 . S
H396 C406 0.950 . S
H397 C408 0.950 . S
H398 C410 0.950 . S
H399 C411 0.950 . S
C400 H392 0.950 . S
C400 C401 1.386 . S
C400 C402 1.391 1_554 S
C401 C400 1.386 . S
C401 C405 1.393 1_554 S
C402 H394 0.950 . S
C402 C400 1.391 1_556 S
C402 C403 1.400 . S
C403 C402 1.400 . S
C403 C404 1.398 . S
C403 C409 1.491 . S
C404 H395 0.950 . S
C404 C403 1.398 . S
C404 C405 1.391 . S
C405 H393 0.950 . S
C405 C401 1.393 1_556 S
C405 C404 1.391 . S
C406 H396 0.950 . S
C406 C407 1.386 . S
C406 C408 1.391 . S
C407 C406 1.386 . S
C407 C411 1.393 . S
C408 H397 0.950 . S
C408 C406 1.391 . S
C408 C409 1.400 . S
C409 C403 1.491 . S
C409 C408 1.400 . S
C409 C410 1.398 . S
C410 H398 0.950 . S
C410 C409 1.398 . S
C410 C411 1.391 . S
C411 H399 0.950 . S
C411 C407 1.393 . S
C411 C410 1.391 . S
H412 C420 0.950 . S
H413 C425 0.950 . S
H414 C422 0.950 . S
H415 C424 0.950 1_655 S
H416 C426 0.950 . S
H417 C428 0.950 . S
H418 C430 0.950 . S
H419 C431 0.950 1_455 S
C420 H412 0.950 . S
C420 C421 1.386 1_554 S
C420 C422 1.391 . S
C421 C420 1.386 1_556 S
C421 C425 1.393 . S
C422 H414 0.950 . S
C422 C420 1.391 . S
C422 C423 1.400 . S
C423 C422 1.400 . S
C423 C424 1.398 . S
C423 C429 1.491 . S
C424 H415 0.950 1_455 S
C424 C423 1.398 . S
C424 C425 1.391 1_554 S
C425 H413 0.950 . S
C425 C421 1.393 . S
C425 C424 1.391 1_556 S
C426 H416 0.950 . S
C426 C427 1.386 . S
C426 C428 1.391 . S
C427 C426 1.386 . S
C427 C431 1.393 . S
C428 H417 0.950 . S
C428 C426 1.391 . S
C428 C429 1.400 1_655 S
C429 C423 1.491 . S
C429 C428 1.400 1_455 S
C429 C430 1.398 . S
C430 H418 0.950 . S
C430 C429 1.398 . S
C430 C431 1.391 1_455 S
C431 H419 0.950 1_655 S
C431 C427 1.393 . S
C431 C430 1.391 1_655 S
H432 C440 0.950 . S
H433 C445 0.950 . S
H434 C442 0.950 . S
H435 C444 0.950 . S
H436 C446 0.950 . S
H437 C448 0.950 . S
H438 C450 0.950 . S
H439 C451 0.950 . S
C440 H432 0.950 . S
C440 C441 1.386 . S
C440 C442 1.391 . S
C441 C440 1.386 . S
C441 C445 1.393 . S
C442 H434 0.950 . S
C442 C440 1.391 . S
C442 C443 1.400 . S
C443 C442 1.400 . S
C443 C444 1.398 . S
C443 C449 1.491 . S
C444 H435 0.950 . S
C444 C443 1.398 . S
C444 C445 1.391 . S
C445 H433 0.950 . S
C445 C441 1.393 . S
C445 C444 1.391 . S
C446 H436 0.950 . S
C446 C447 1.386 . S
C446 C448 1.391 . S
C447 C446 1.386 . S
C447 C451 1.393 . S
C448 H437 0.950 . S
C448 C446 1.391 . S
C448 C449 1.400 . S
C449 C443 1.491 . S
C449 C448 1.400 . S
C449 C450 1.398 . S
C450 H438 0.950 . S
C450 C449 1.398 . S
C450 C451 1.391 . S
C451 H439 0.950 . S
C451 C447 1.393 . S
C451 C450 1.391 . S
H452 C460 0.950 . S
H453 C465 0.950 . S
H454 C462 0.950 . S
H455 C464 0.950 1_554 S
H456 C466 0.950 . S
H457 C468 0.950 . S
H458 C470 0.950 1_556 S
H459 C471 0.950 . S
C460 H452 0.950 . S
C460 C461 1.386 . S
C460 C462 1.391 . S
C461 C460 1.386 . S
C461 C465 1.393 . S
C462 H454 0.950 . S
C462 C460 1.391 . S
C462 C463 1.400 . S
C463 C462 1.400 . S
C463 C464 1.398 . S
C463 C469 1.491 1_556 S
C464 H455 0.950 1_556 S
C464 C463 1.398 . S
C464 C465 1.391 . S
C465 H453 0.950 . S
C465 C461 1.393 . S
C465 C464 1.391 . S
C466 H456 0.950 . S
C466 C467 1.386 . S
C466 C468 1.391 . S
C467 C466 1.386 . S
C467 C471 1.393 . S
C468 H457 0.950 . S
C468 C466 1.391 . S
C468 C469 1.400 . S
C469 C463 1.491 1_554 S
C469 C468 1.400 . S
C469 C470 1.398 . S
C470 H458 0.950 1_554 S
C470 C469 1.398 . S
C470 C471 1.391 . S
C471 H459 0.950 . S
C471 C467 1.393 . S
C471 C470 1.391 . S
H472 C480 0.950 . S
H473 C485 0.950 . S
H474 C482 0.950 . S
H475 C484 0.950 . S
H476 C486 0.950 . S
H477 C488 0.950 . S
H478 C490 0.950 . S
H479 C491 0.950 . S
C480 H472 0.950 . S
C480 C481 1.386 . S
C480 C482 1.391 . S
C481 C480 1.386 . S
C481 C485 1.393 . S
C482 H474 0.950 . S
C482 C480 1.391 . S
C482 C483 1.400 . S
C483 C482 1.400 . S
C483 C484 1.398 . S
C483 C489 1.491 . S
C484 H475 0.950 . S
C484 C483 1.398 . S
C484 C485 1.391 . S
C485 H473 0.950 . S
C485 C481 1.393 . S
C485 C484 1.391 . S
C486 H476 0.950 . S
C486 C487 1.386 . S
C486 C488 1.391 . S
C487 C486 1.386 . S
C487 C491 1.393 . S
C488 H477 0.950 . S
C488 C486 1.391 . S
C488 C489 1.400 . S
C489 C483 1.491 . S
C489 C488 1.400 . S
C489 C490 1.398 . S
C490 H478 0.950 . S
C490 C489 1.398 . S
C490 C491 1.391 . S
C491 H479 0.950 . S
C491 C487 1.393 . S
C491 C490 1.391 . S
H492 C500 0.950 . S
H493 C505 0.950 . S
H494 C502 0.950 . S
H495 C504 0.950 . S
H496 C506 0.950 . S
H497 C508 0.950 . S
H498 C510 0.950 . S
H499 C511 0.950 . S
C500 H492 0.950 . S
C500 C501 1.386 . S
C500 C502 1.391 . S
C501 C500 1.386 . S
C501 C505 1.393 . S
C502 H494 0.950 . S
C502 C500 1.391 . S
C502 C503 1.400 . S
C503 C502 1.400 . S
C503 C504 1.398 . S
C503 C509 1.491 . S
C504 H495 0.950 . S
C504 C503 1.398 . S
C504 C505 1.391 . S
C505 H493 0.950 . S
C505 C501 1.393 . S
C505 C504 1.391 . S
C506 H496 0.950 . S
C506 C507 1.386 . S
C506 C508 1.391 . S
C507 C506 1.386 . S
C507 C511 1.393 . S
C508 H497 0.950 . S
C508 C506 1.391 . S
C508 C509 1.400 . S
C509 C503 1.491 . S
C509 C508 1.400 . S
C509 C510 1.398 . S
C510 H498 0.950 . S
C510 C509 1.398 . S
C510 C511 1.391 . S
C511 H499 0.950 . S
C511 C507 1.393 . S
C511 C510 1.391 . S
H512 C520 0.950 . S
H513 C525 0.950 . S
H514 C522 0.950 . S
H515 C524 0.950 . S
H516 C526 0.950 . S
H517 C528 0.950 . S
H518 C530 0.950 . S
H519 C531 0.950 . S
C520 H512 0.950 . S
C520 C521 1.386 . S
C520 C522 1.391 . S
C521 C520 1.386 . S
C521 C525 1.393 . S
C522 H514 0.950 . S
C522 C520 1.391 . S
C522 C523 1.400 . S
C523 C522 1.400 . S
C523 C524 1.398 . S
C523 C529 1.491 . S
C524 H515 0.950 . S
C524 C523 1.398 . S
C524 C525 1.391 . S
C525 H513 0.950 . S
C525 C521 1.393 . S
C525 C524 1.391 . S
C526 H516 0.950 . S
C526 C527 1.386 . S
C526 C528 1.391 . S
C527 C526 1.386 . S
C527 C531 1.393 . S
C528 H517 0.950 . S
C528 C526 1.391 . S
C528 C529 1.400 . S
C529 C523 1.491 . S
C529 C528 1.400 . S
C529 C530 1.398 . S
C530 H518 0.950 . S
C530 C529 1.398 . S
C530 C531 1.391 . S
C531 H519 0.950 . S
C531 C527 1.393 . S
C531 C530 1.391 . S
H532 C540 0.950 . S
H533 C545 0.950 . S
H534 C542 0.950 . S
H535 C544 0.950 . S
H536 C546 0.950 . S
H537 C548 0.950 . S
H538 C550 0.950 . S
H539 C551 0.950 . S
C540 H532 0.950 . S
C540 C541 1.386 . S
C540 C542 1.391 . S
C541 C540 1.386 . S
C541 C545 1.393 . S
C542 H534 0.950 . S
C542 C540 1.391 . S
C542 C543 1.400 . S
C543 C542 1.400 . S
C543 C544 1.398 . S
C543 C549 1.491 . S
C544 H535 0.950 . S
C544 C543 1.398 . S
C544 C545 1.391 . S
C545 H533 0.950 . S
C545 C541 1.393 . S
C545 C544 1.391 . S
C546 H536 0.950 . S
C546 C547 1.386 . S
C546 C548 1.391 . S
C547 C546 1.386 . S
C547 C551 1.393 . S
C548 H537 0.950 . S
C548 C546 1.391 . S
C548 C549 1.400 . S
C549 C543 1.491 . S
C549 C548 1.400 . S
C549 C550 1.398 . S
C550 H538 0.950 . S
C550 C549 1.398 . S
C550 C551 1.391 . S
C551 H539 0.950 . S
C551 C547 1.393 . S
C551 C550 1.391 . S
C201 C2 1.311 . S
C207 N173 1.339 . S
C221 C34 1.321 . S
C227 N13 1.347 . S
C241 C66 1.313 . S
C247 N45 1.341 . S
C261 N77 1.333 . S
C267 C98 1.298 . S
C281 N109 1.333 . S
C287 C130 1.298 . S
C301 C162 1.307 . S
C307 N141 1.340 . S
C321 C4 1.094 . S
C327 N114 1.066 . S
C341 C36 1.086 . S
C347 N146 1.056 . S
C361 N178 1.049 . S
C367 C68 1.075 . S
C381 C100 1.077 . S
C387 N18 1.049 . S
C401 N50 1.054 . S
C407 C132 1.083 . S
C421 C164 1.099 . S
C427 N82 1.078 . S
C441 C6 1.625 . S
C447 C157 1.544 . S
C461 C189 1.549 . S
C467 C38 1.626 . S
C481 C29 1.539 . S
C487 C70 1.619 . S
C501 C102 1.626 . S
C507 C61 1.549 . S
C521 C93 1.549 . S
C527 C134 1.616 . S
C541 C125 1.551 . S
C547 C166 1.616 . S
