# Generated by pormake.
# Topology ske, (6)-cn, num edge types: 1
# Building blocks:
#     Node 0, Type 0, BuildingBlock: BETFEN_clean_sbu_0, # of connection points: 6
#     Node 1, Type 0, BuildingBlock: BETFEN_clean_sbu_0, # of connection points: 6
#     Node 2, Type 0, BuildingBlock: BETFEN_clean_sbu_0, # of connection points: 6
#     Node 3, Type 0, BuildingBlock: BETFEN_clean_sbu_0, # of connection points: 6
#     Node 4, Type 0, BuildingBlock: BETFEN_clean_sbu_0, # of connection points: 6
#     Node 5, Type 0, BuildingBlock: BETFEN_clean_sbu_0, # of connection points: 6
#     Node 6, Type 0, BuildingBlock: BETFEN_clean_sbu_0, # of connection points: 6
#     Node 7, Type 0, BuildingBlock: BETFEN_clean_sbu_0, # of connection points: 6
#     Edge 8, Type (0, 0), BuildingBlock: AJUNOK_clean_linker_0, # of connection points: 2
#     Edge 9, Type (0, 0), BuildingBlock: AJUNOK_clean_linker_0, # of connection points: 2
#     Edge 10, Type (0, 0), BuildingBlock: AJUNOK_clean_linker_0, # of connection points: 2
#     Edge 11, Type (0, 0), BuildingBlock: AJUNOK_clean_linker_0, # of connection points: 2
#     Edge 12, Type (0, 0), BuildingBlock: AJUNOK_clean_linker_0, # of connection points: 2
#     Edge 13, Type (0, 0), BuildingBlock: AJUNOK_clean_linker_0, # of connection points: 2
#     Edge 14, Type (0, 0), BuildingBlock: AJUNOK_clean_linker_0, # of connection points: 2
#     Edge 15, Type (0, 0), BuildingBlock: AJUNOK_clean_linker_0, # of connection points: 2
#     Edge 16, Type (0, 0), BuildingBlock: AJUNOK_clean_linker_0, # of connection points: 2
#     Edge 17, Type (0, 0), BuildingBlock: AJUNOK_clean_linker_0, # of connection points: 2
#     Edge 18, Type (0, 0), BuildingBlock: AJUNOK_clean_linker_0, # of connection points: 2
#     Edge 19, Type (0, 0), BuildingBlock: AJUNOK_clean_linker_0, # of connection points: 2
#     Edge 20, Type (0, 0), BuildingBlock: AJUNOK_clean_linker_0, # of connection points: 2
#     Edge 21, Type (0, 0), BuildingBlock: AJUNOK_clean_linker_0, # of connection points: 2
#     Edge 22, Type (0, 0), BuildingBlock: AJUNOK_clean_linker_0, # of connection points: 2
#     Edge 23, Type (0, 0), BuildingBlock: AJUNOK_clean_linker_0, # of connection points: 2
#     Edge 24, Type (0, 0), BuildingBlock: AJUNOK_clean_linker_0, # of connection points: 2
#     Edge 25, Type (0, 0), BuildingBlock: AJUNOK_clean_linker_0, # of connection points: 2
#     Edge 26, Type (0, 0), BuildingBlock: AJUNOK_clean_linker_0, # of connection points: 2
#     Edge 27, Type (0, 0), BuildingBlock: AJUNOK_clean_linker_0, # of connection points: 2
#     Edge 28, Type (0, 0), BuildingBlock: AJUNOK_clean_linker_0, # of connection points: 2
#     Edge 29, Type (0, 0), BuildingBlock: AJUNOK_clean_linker_0, # of connection points: 2
#     Edge 30, Type (0, 0), BuildingBlock: AJUNOK_clean_linker_0, # of connection points: 2
#     Edge 31, Type (0, 0), BuildingBlock: AJUNOK_clean_linker_0, # of connection points: 2
# Relax obj value: 0.203
# Max RMSD: 0.211
# Mean RMSD: 0.203
data_MOF--net-ske--node1-BETFEN_clean_sbu_0--edge1-AJUNOK_clean_linker_0
_symmetry_space_group_name_H-M    P1
_symmetry_Int_Tables_number       1
_symmetry_cell_setting            triclinic
loop_
_symmetry_equiv_pos_as_xyz
'x, y, z'
_cell_length_a     88.391501
_cell_length_b     21.396268
_cell_length_c     11.681088
_cell_angle_alpha  89.888108
_cell_angle_beta   89.904061
_cell_angle_gamma 84.870828
loop_
_atom_site_label
_atom_site_type_symbol
_atom_site_fract_x
_atom_site_fract_y
_atom_site_fract_z
_atom_type_partial_charge
Pr0 Pr 0.16277 0.26003 0.5626 0.0
Pr1 Pr 0.12929 0.25191 0.57298 0.0
C2 C 0.19186 0.28927 0.57982 0.0
C3 C 0.20669 0.27888 0.6396 0.0
C4 C 0.21666 0.22516 0.61809 0.0
C5 C 0.23138 0.21969 0.66362 0.0
C6 C 0.23646 0.26769 0.73176 0.0
C7 C 0.2264 0.32083 0.75496 0.0
C8 C 0.2117 0.32639 0.70926 0.0
C9 C 0.15471 0.13562 0.55434 0.0
C10 C 0.14629 0.2491 0.81676 0.0
C11 C 0.10001 0.2251 0.56022 0.0
C12 C 0.08438 0.24022 0.51611 0.0
C13 C 0.07466 0.2883 0.56599 0.0
C14 C 0.0592 0.29523 0.53864 0.0
C15 C 0.05307 0.25445 0.46044 0.0
C16 C 0.0629 0.20788 0.40732 0.0
C17 C 0.07837 0.2008 0.43496 0.0
C18 C 0.13754 0.3757 0.58053 0.0
C19 C 0.14576 0.25786 0.31793 0.0
O20 O 0.18051 0.32056 0.63251 0.0
O21 O 0.1876 0.24477 0.51391 0.0
O22 O 0.14874 0.178 0.61932 0.0
O23 O 0.16578 0.15589 0.49617 0.0
O24 O 0.13546 0.22407 0.76052 0.0
O25 O 0.15729 0.27354 0.76005 0.0
O26 O 0.11059 0.20043 0.49128 0.0
O27 O 0.10513 0.2619 0.63747 0.0
O28 O 0.14319 0.33364 0.51361 0.0
O29 O 0.12696 0.35521 0.64339 0.0
O30 O 0.15704 0.28186 0.37087 0.0
O31 O 0.13474 0.23545 0.37741 0.0
H32 H 0.21327 0.18793 0.56377 0.0
H33 H 0.23886 0.17812 0.64446 0.0
H34 H 0.23006 0.35919 0.80521 0.0
H35 H 0.20441 0.36887 0.72559 0.0
H36 H 0.07882 0.31894 0.63016 0.0
H37 H 0.05191 0.33057 0.58337 0.0
H38 H 0.05852 0.17573 0.34678 0.0
H39 H 0.08552 0.16279 0.39621 0.0
Pr40 Pr 0.87665 0.26087 0.52651 0.0
Pr41 Pr 0.90976 0.26467 0.54002 0.0
C42 C 0.84705 0.23842 0.5395 0.0
C43 C 0.83214 0.24858 0.59839 0.0
C44 C 0.82131 0.29665 0.56199 0.0
C45 C 0.80647 0.30064 0.60497 0.0
C46 C 0.80206 0.25631 0.68447 0.0
C47 C 0.81302 0.2097 0.72426 0.0
C48 C 0.82788 0.20567 0.68128 0.0
C49 C 0.88583 0.38324 0.51483 0.0
C50 C 0.89244 0.26825 0.78249 0.0
C51 C 0.93935 0.28768 0.53241 0.0
C52 C 0.95535 0.27208 0.49634 0.0
C53 C 0.96533 0.2348 0.56742 0.0
C54 C 0.98095 0.22892 0.54598 0.0
C55 C 0.98703 0.26038 0.45326 0.0
C56 C 0.977 0.29521 0.37877 0.0
C57 C 0.96133 0.30133 0.40051 0.0
C58 C 0.9007 0.14203 0.54868 0.0
C59 C 0.89362 0.25681 0.28366 0.0
O60 O 0.85799 0.20271 0.58824 0.0
O61 O 0.85192 0.28455 0.48043 0.0
O62 O 0.89087 0.34169 0.58502 0.0
O63 O 0.8757 0.36265 0.44811 0.0
O64 O 0.90363 0.29235 0.72856 0.0
O65 O 0.88154 0.24524 0.72324 0.0
O66 O 0.92929 0.31207 0.45918 0.0
O67 O 0.93362 0.25231 0.6095 0.0
O68 O 0.89558 0.18418 0.48009 0.0
O69 O 0.91114 0.1617 0.61339 0.0
O70 O 0.88253 0.23323 0.3393 0.0
O71 O 0.90472 0.28003 0.34132 0.0
H72 H 0.82415 0.33017 0.49758 0.0
H73 H 0.79836 0.33791 0.57455 0.0
H74 H 0.80995 0.17487 0.78547 0.0
H75 H 0.83587 0.16759 0.71019 0.0
H76 H 0.96118 0.21229 0.64293 0.0
H77 H 0.98835 0.20202 0.60538 0.0
H78 H 0.98129 0.31893 0.30517 0.0
H79 H 0.95398 0.33082 0.3446 0.0
Pr80 Pr 0.12898 0.75385 0.53364 0.0
Pr81 Pr 0.16523 0.7497 0.53935 0.0
C82 C 0.10055 0.71768 0.52936 0.0
C83 C 0.08442 0.72918 0.5617 0.0
C84 C 0.07774 0.78953 0.58727 0.0
C85 C 0.06201 0.79963 0.60513 0.0
C86 C 0.05271 0.74964 0.59662 0.0
C87 C 0.05961 0.689 0.57517 0.0
C88 C 0.07529 0.67895 0.55789 0.0
C89 C 0.13751 0.87771 0.54956 0.0
C90 C 0.1471 0.75639 0.78392 0.0
C91 C 0.19543 0.76008 0.52602 0.0
C92 C 0.20888 0.76222 0.45036 0.0
C93 C 0.21676 0.70631 0.41102 0.0
C94 C 0.23052 0.70749 0.35234 0.0
C95 C 0.23675 0.76456 0.33109 0.0
C96 C 0.22878 0.82062 0.36869 0.0
C97 C 0.215 0.81945 0.42783 0.0
C98 C 0.15265 0.63517 0.56838 0.0
C99 C 0.1477 0.75063 0.28562 0.0
O100 O 0.11044 0.69884 0.60849 0.0
O101 O 0.1058 0.7551 0.4529 0.0
O102 O 0.14609 0.82757 0.54533 0.0
O103 O 0.12344 0.86453 0.5494 0.0
O104 O 0.15913 0.77447 0.72982 0.0
O105 O 0.13529 0.7381 0.72746 0.0
O106 O 0.18538 0.80884 0.53043 0.0
O107 O 0.18943 0.70663 0.53566 0.0
O108 O 0.14831 0.67677 0.49572 0.0
O109 O 0.16392 0.65188 0.62872 0.0
O110 O 0.13489 0.74279 0.33986 0.0
O111 O 0.16046 0.75866 0.34097 0.0
H112 H 0.08462 0.82892 0.5909 0.0
H113 H 0.0571 0.84667 0.62401 0.0
H114 H 0.0528 0.64957 0.56747 0.0
H115 H 0.08023 0.63207 0.53779 0.0
H116 H 0.21258 0.66122 0.42874 0.0
H117 H 0.23656 0.66335 0.32732 0.0
H118 H 0.23332 0.8653 0.35376 0.0
H119 H 0.20935 0.86322 0.45866 0.0
Pr120 Pr 0.90948 0.76639 0.51103 0.0
Pr121 Pr 0.87614 0.76085 0.52423 0.0
C122 C 0.93882 0.79246 0.51942 0.0
C123 C 0.95465 0.78381 0.56145 0.0
C124 C 0.96339 0.72579 0.55216 0.0
C125 C 0.97909 0.72159 0.57175 0.0
C126 C 0.98636 0.77534 0.60008 0.0
C127 C 0.97746 0.83249 0.61571 0.0
C128 C 0.96178 0.83667 0.59628 0.0
C129 C 0.90065 0.64329 0.50538 0.0
C130 C 0.89313 0.75745 0.76748 0.0
C131 C 0.84672 0.73634 0.5088 0.0
C132 C 0.83221 0.74568 0.445 0.0
C133 C 0.82367 0.80437 0.44178 0.0
C134 C 0.80907 0.81025 0.39426 0.0
C135 C 0.80268 0.75759 0.34956 0.0
C136 C 0.81145 0.69951 0.34873 0.0
C137 C 0.82603 0.69358 0.39644 0.0
C138 C 0.8851 0.88313 0.53686 0.0
C139 C 0.89224 0.76821 0.26821 0.0
O140 O 0.92821 0.82245 0.58169 0.0
O141 O 0.93386 0.74924 0.45402 0.0
O142 O 0.89536 0.68589 0.57225 0.0
O143 O 0.91105 0.66293 0.43963 0.0
O144 O 0.88192 0.73458 0.71232 0.0
O145 O 0.90438 0.77983 0.70982 0.0
O146 O 0.85789 0.70014 0.46404 0.0
O147 O 0.85128 0.78358 0.56616 0.0
O148 O 0.89027 0.84206 0.46613 0.0
O149 O 0.87482 0.86225 0.60227 0.0
O150 O 0.90355 0.79172 0.32128 0.0
O151 O 0.88123 0.7459 0.32779 0.0
H152 H 0.95823 0.68423 0.52504 0.0
H153 H 0.98566 0.67691 0.55917 0.0
H154 H 0.9827 0.87442 0.63964 0.0
H155 H 0.95532 0.88199 0.60351 0.0
H156 H 0.82808 0.84549 0.47845 0.0
H157 H 0.80269 0.85589 0.39389 0.0
H158 H 0.80683 0.65812 0.31498 0.0
H159 H 0.83229 0.64769 0.39867 0.0
Pr160 Pr 0.66748 0.75612 0.03051 0.0
Pr161 Pr 0.6294 0.75001 1.02918 0.0
C162 C 0.69539 0.79746 0.03414 0.0
C163 C 0.71071 0.78842 0.08537 0.0
C164 C 0.7193 0.72985 0.08556 0.0
C165 C 0.73405 0.72389 0.13086 0.0
C166 C 0.74041 0.77622 0.17739 0.0
C167 C 0.73176 0.83461 0.17701 0.0
C168 C 0.71708 0.84057 0.13159 0.0
C169 C 0.65889 0.63146 0.03657 0.0
C170 C 0.64877 0.75033 0.27941 0.0
C171 C 0.60158 0.70769 1.02515 0.0
C172 C 0.58499 0.72331 1.0237 0.0
C173 C 0.57786 0.77181 0.09076 0.0
C174 C 0.56199 0.783 0.09109 0.0
C175 C 0.55301 0.74598 1.02421 0.0
C176 C 0.56025 0.69787 0.95672 0.0
C177 C 0.57607 0.68675 0.95643 0.0
C178 C 0.63754 0.87482 1.01992 0.0
C179 C 0.64882 0.75172 0.78328 0.0
O180 O 0.68428 0.82001 0.10082 0.0
O181 O 0.69138 0.75569 0.96054 0.0
O182 O 0.65063 0.68236 0.03283 0.0
O183 O 0.67301 0.64438 0.04096 0.0
O184 O 0.63605 0.73903 0.22534 0.0
O185 O 0.66132 0.76244 0.22466 0.0
O186 O 0.60918 0.71912 0.93219 0.0
O187 O 0.60896 0.71684 0.12006 0.0
O188 O 0.6461 0.82456 1.02439 0.0
O189 O 0.62348 0.86092 1.02028 0.0
O190 O 0.66042 0.77278 0.83866 0.0
O191 O 0.63694 0.7318 0.83748 0.0
H192 H 0.71468 0.68882 0.05033 0.0
H193 H 0.74046 0.67831 0.13016 0.0
H194 H 0.73644 0.87602 0.21003 0.0
H195 H 0.71073 0.88631 0.13136 0.0
H196 H 0.58453 0.80048 0.14373 0.0
H197 H 0.55672 0.81976 0.14536 0.0
H198 H 0.55366 0.66885 0.90387 0.0
H199 H 0.58136 0.649 0.90432 0.0
Pr200 Pr 0.37201 0.76551 1.01763 0.0
Pr201 Pr 0.41003 0.77014 1.01583 0.0
C202 C 0.34409 0.72454 1.02022 0.0
C203 C 0.32855 0.73469 0.06663 0.0
C204 C 0.32145 0.79505 0.0868 0.0
C205 C 0.30642 0.80261 0.12673 0.0
C206 C 0.29828 0.74998 0.14631 0.0
C207 C 0.30561 0.68975 0.12844 0.0
C208 C 0.32057 0.68225 0.08879 0.0
C209 C 0.38077 0.88997 1.0234 0.0
C210 C 0.39074 0.76997 0.26642 0.0
C211 C 0.438 0.81101 1.01014 0.0
C212 C 0.45464 0.79597 1.01115 0.0
C213 C 0.4621 0.76148 0.10032 0.0
C214 C 0.47801 0.75302 0.10323 0.0
C215 C 0.48672 0.77926 1.01762 0.0
C216 C 0.47919 0.81217 0.92702 0.0
C217 C 0.46334 0.82065 0.92419 0.0
C218 C 0.40166 0.64538 1.00711 0.0
C219 C 0.39069 0.76927 0.77031 0.0
O220 O 0.35487 0.70384 0.09129 0.0
O221 O 0.34838 0.76484 0.94452 0.0
O222 O 0.38896 0.83886 1.01943 0.0
O223 O 0.36662 0.87738 1.02775 0.0
O224 O 0.40349 0.78088 0.21209 0.0
O225 O 0.37816 0.75842 0.21185 0.0
O226 O 0.43057 0.79758 0.91771 0.0
O227 O 0.43034 0.8049 0.1052 0.0
O228 O 0.39318 0.69593 1.01061 0.0
O229 O 0.41573 0.65913 1.00953 0.0
O230 O 0.3791 0.74821 0.82609 0.0
O231 O 0.40254 0.78926 0.82425 0.0
H232 H 0.32744 0.83619 0.07083 0.0
H233 H 0.30106 0.84954 0.14039 0.0
H234 H 0.29977 0.6483 0.14555 0.0
H235 H 0.3259 0.63529 0.07457 0.0
H236 H 0.45567 0.74198 0.16864 0.0
H237 H 0.48351 0.72723 0.17386 0.0
H238 H 0.48557 0.83157 0.85832 0.0
H239 H 0.45785 0.84752 0.85469 0.0
Pr240 Pr 0.63153 0.2519 1.01172 0.0
Pr241 Pr 0.66557 0.2535 1.01791 0.0
C242 C 0.60217 0.22583 1.02144 0.0
C243 C 0.58598 0.2391 0.05428 0.0
C244 C 0.57642 0.28359 0.99354 0.0
C245 C 0.56067 0.28786 1.00998 0.0
C246 C 0.55409 0.24762 0.08712 0.0
C247 C 0.56371 0.20529 0.15202 0.0
C248 C 0.57947 0.2008 0.13519 0.0
C249 C 0.64089 0.37453 1.01102 0.0
C250 C 0.64877 0.25375 0.26415 0.0
C251 C 0.69498 0.27805 1.00165 0.0
C252 C 0.70971 0.26813 0.94026 0.0
C253 C 0.72081 0.22094 0.97608 0.0
C254 C 0.73544 0.21683 0.92908 0.0
C255 C 0.73934 0.25988 0.8454 0.0
C256 C 0.72818 0.30633 0.80795 0.0
C257 C 0.71354 0.31044 0.85486 0.0
C258 C 0.65581 0.13153 1.02221 0.0
C259 C 0.64886 0.25062 0.76533 0.0
O260 O 0.61226 0.20459 0.09724 0.0
O261 O 0.60771 0.26013 0.94167 0.0
O262 O 0.64674 0.32939 0.0706 0.0
O263 O 0.62917 0.35809 0.95599 0.0
O264 O 0.66003 0.2762 0.20824 0.0
O265 O 0.63723 0.23325 0.2077 0.0
O266 O 0.68382 0.3128 0.9534 0.0
O267 O 0.69041 0.23194 0.06262 0.0
O268 O 0.65033 0.17625 0.96012 0.0
O269 O 0.6674 0.14788 0.07931 0.0
O270 O 0.63731 0.22923 0.81977 0.0
O271 O 0.66023 0.27085 0.82321 0.0
H272 H 0.581 0.31346 0.92964 0.0
H273 H 0.5536 0.3209 0.9585 0.0
H274 H 0.55903 0.17469 0.21419 0.0
H275 H 0.58651 0.16569 0.18254 0.0
H276 H 0.71834 0.18817 0.04289 0.0
H277 H 0.74378 0.18042 0.95942 0.0
H278 H 0.73091 0.34102 0.74536 0.0
H279 H 0.70537 0.34811 0.82683 0.0
Pr280 Pr 0.41049 0.26601 1.01929 0.0
Pr281 Pr 0.37387 0.26471 1.0212 0.0
C282 C 0.43957 0.2947 0.0361 0.0
C283 C 0.45584 0.27641 0.05947 0.0
C284 C 0.46467 0.23547 0.98664 0.0
C285 C 0.48046 0.22634 1.00028 0.0
C286 C 0.48777 0.25782 0.08709 0.0
C287 C 0.47886 0.29729 0.16178 0.0
C288 C 0.46309 0.3065 0.14802 0.0
C289 C 0.40004 0.14567 1.00874 0.0
C290 C 0.39185 0.26828 0.27091 0.0
C291 C 0.34551 0.22771 1.01424 0.0
C292 C 0.33008 0.23889 0.96428 0.0
C293 C 0.32047 0.29302 0.99029 0.0
C294 C 0.30542 0.29946 0.95126 0.0
C295 C 0.29963 0.25183 0.88593 0.0
C296 C 0.30938 0.19859 0.85742 0.0
C297 C 0.3244 0.1921 0.89657 0.0
C298 C 0.38225 0.38968 0.99937 0.0
C299 C 0.39202 0.27062 0.77417 0.0
O300 O 0.43 0.30028 0.12176 0.0
O301 O 0.43359 0.27558 0.94144 0.0
O302 O 0.39397 0.19147 0.06597 0.0
O303 O 0.41281 0.1599 0.96488 0.0
O304 O 0.37942 0.25539 0.21615 0.0
O305 O 0.40448 0.2792 0.21572 0.0
O306 O 0.35653 0.20398 0.94767 0.0
O307 O 0.34986 0.268 0.08924 0.0
O308 O 0.3906 0.33919 1.00587 0.0
O309 O 0.36819 0.37627 1.00298 0.0
O310 O 0.40352 0.29244 0.82939 0.0
O311 O 0.3808 0.24727 0.83001 0.0
H312 H 0.45947 0.21218 0.91658 0.0
H313 H 0.48701 0.19668 0.93972 0.0
H314 H 0.48414 0.32211 0.22954 0.0
H315 H 0.4566 0.33896 0.2044 0.0
H316 H 0.32447 0.33 0.04229 0.0
H317 H 0.29829 0.34163 0.97264 0.0
H318 H 0.30526 0.16105 0.80747 0.0
H319 H 0.33149 0.14963 0.87607 0.0
C320 C 0.26455 0.24754 0.69766 0.0
C321 C 0.25245 0.26356 0.77376 0.0
C322 C 0.27972 0.24423 0.73436 0.0
C323 C 0.28343 0.25688 0.84867 0.0
H324 H 0.26228 0.23826 0.60847 0.0
H325 H 0.28864 0.23226 0.67238 0.0
S326 S 0.25596 0.29599 0.08403 0.0
N327 N 0.24521 0.28906 0.9701 0.0
N328 N 0.27368 0.28277 0.03911 0.0
C329 C 0.27144 0.27224 0.92597 0.0
C330 C 0.25599 0.2756 0.88856 0.0
C331 C 0.7675 0.25355 0.87915 0.0
C332 C 0.75523 0.25819 0.80182 0.0
C333 C 0.78257 0.25308 0.84072 0.0
C334 C 0.78598 0.25743 0.72342 0.0
H335 H 0.76543 0.25117 0.97042 0.0
H336 H 0.79161 0.25006 0.90347 0.0
S337 S 0.75812 0.26504 0.48523 0.0
N338 N 0.7476 0.26363 0.60202 0.0
N339 N 0.77588 0.26283 0.52978 0.0
C340 C 0.77384 0.26118 0.64506 0.0
C341 C 0.7585 0.26157 0.6842 0.0
C342 C 0.27809 0.79488 0.2821 0.0
C343 C 0.28223 0.75733 0.18635 0.0
C344 C 0.26324 0.79849 0.32632 0.0
C345 C 0.25197 0.76484 0.27622 0.0
H346 H 0.28651 0.82002 0.32547 0.0
H347 H 0.26072 0.82618 0.40266 0.0
S348 S 0.25651 0.66654 1.01495 0.0
N349 N 0.27352 0.69046 0.03664 0.0
N350 N 0.24566 0.69751 0.11918 0.0
C351 C 0.25582 0.72931 0.17752 0.0
C352 C 0.27092 0.72551 0.13277 0.0
C353 C 0.76822 0.74112 0.1596 0.0
C354 C 0.75614 0.77047 0.22415 0.0
C355 C 0.78322 0.73721 0.20044 0.0
C356 C 0.78672 0.76259 0.30733 0.0
H357 H 0.76611 0.72197 0.07595 0.0
H358 H 0.79219 0.71489 0.14727 0.0
S359 S 0.75901 0.83846 0.51445 0.0
N360 N 0.74857 0.82147 0.4036 0.0
N361 N 0.77669 0.81414 0.48023 0.0
C362 C 0.7747 0.79085 0.37368 0.0
C363 C 0.75944 0.79478 0.33218 0.0
C364 C 0.13312 0.99122 0.60491 0.0
C365 C 0.14244 0.94242 0.55295 0.0
C366 C 0.13728 0.05324 0.6067 0.0
C367 C 0.15079 0.06922 0.55447 0.0
H368 H 0.12253 0.98137 0.64508 0.0
H369 H 0.12973 0.08909 0.64789 0.0
S370 S 0.17874 0.95923 0.40132 0.0
N371 N 0.16554 0.91468 0.44518 0.0
N372 N 0.17331 0.03078 0.44685 0.0
C373 C 0.16012 0.02086 0.50113 0.0
C374 C 0.15597 0.95763 0.50088 0.0
C375 C 0.89206 0.48011 0.41114 0.0
C376 C 0.88976 0.44917 0.51529 0.0
C377 C 0.89584 0.54261 0.40889 0.0
C378 C 0.89687 0.57716 0.51051 0.0
H379 H 0.89116 0.45547 0.33081 0.0
H380 H 0.89769 0.56443 0.32688 0.0
S381 S 0.89145 0.51832 0.80532 0.0
N382 N 0.88889 0.4576 0.72257 0.0
N383 N 0.89512 0.57599 0.71812 0.0
C384 C 0.89433 0.54709 0.6151 0.0
C385 C 0.89102 0.48281 0.61757 0.0
C386 C 0.89129 0.9824 0.43878 0.0
C387 C 0.88937 0.94857 0.54046 0.0
C388 C 0.89463 0.04557 0.44174 0.0
C389 C 0.89673 0.07615 0.5464 0.0
H390 H 0.88988 0.96035 0.35655 0.0
H391 H 0.89583 0.07028 0.36165 0.0
S392 S 0.89332 1.00772 0.83611 0.0
N393 N 0.88972 0.95046 0.7483 0.0
N394 N 0.89678 0.06767 0.75369 0.0
C395 C 0.89512 0.0424 0.6483 0.0
C396 C 0.89122 0.97899 0.64537 0.0
C397 C 0.14746 0.53501 0.47029 0.0
C398 C 0.14776 0.57075 0.57115 0.0
C399 C 0.1444 0.4715 0.4738 0.0
C400 C 0.14101 0.44234 0.57781 0.0
H401 H 0.1501 0.55566 0.38869 0.0
H402 H 0.14453 0.44526 0.39453 0.0
S403 S 0.13981 0.51657 0.86482 0.0
N404 N 0.1444 0.57263 0.77729 0.0
N405 N 0.13784 0.45473 0.78342 0.0
C406 C 0.14089 0.47825 0.67857 0.0
C407 C 0.14448 0.54208 0.67537 0.0
C408 C 0.66334 0.51537 0.07361 0.0
C409 C 0.65373 0.5669 0.03353 0.0
C410 C 0.65903 0.45356 0.06785 0.0
C411 C 0.64506 0.44056 1.01947 0.0
H412 H 0.67429 0.52281 0.11002 0.0
H413 H 0.66681 0.4156 0.09997 0.0
S414 S 0.616 0.55859 0.89891 0.0
N415 N 0.62968 0.60042 0.94305 0.0
N416 N 0.6217 0.48491 0.92974 0.0
C417 C 0.6354 0.4917 0.97855 0.0
C418 C 0.63969 0.55463 0.9863 0.0
C419 C 0.37644 1.00635 0.06003 0.0
C420 C 0.38606 0.95441 1.02167 0.0
C421 C 0.38102 0.06788 0.05671 0.0
C422 C 0.39531 0.08021 1.01272 0.0
H423 H 0.36528 0.9994 0.09356 0.0
H424 H 0.37325 0.10609 0.08796 0.0
S425 S 0.42449 0.96097 0.89686 0.0
N426 N 0.41042 0.91992 0.93658 0.0
N427 N 0.41893 0.03469 0.92785 0.0
C428 C 0.40495 0.02863 0.97299 0.0
C429 C 0.40037 0.96606 0.97816 0.0
C430 C 0.37674 0.50757 1.00091 0.0
C431 C 0.38741 0.45443 0.99787 0.0
C432 C 0.38134 0.56909 1.00311 0.0
C433 C 0.39681 0.58012 1.00283 0.0
H434 H 0.3647 0.50166 1.0023 0.0
H435 H 0.3727 0.60821 1.00537 0.0
S436 S 0.42931 0.45746 0.99072 0.0
N437 N 0.41417 0.41753 0.99105 0.0
N438 N 0.4228 0.53214 0.99606 0.0
C439 C 0.40757 0.52737 0.99831 0.0
C440 C 0.40289 0.46491 0.99567 0.0
C441 C 0.66075 0.01556 0.06127 0.0
C442 C 0.65112 0.06624 1.01799 0.0
C443 C 0.65649 0.95362 0.05926 0.0
C444 C 0.64231 0.93996 1.01596 0.0
H445 H 0.6717 0.02373 0.09694 0.0
H446 H 0.66419 0.91646 0.09456 0.0
S447 S 0.61289 0.05552 0.89272 0.0
N448 N 0.62682 0.09801 0.92909 0.0
N449 N 0.61866 0.98253 0.92829 0.0
C450 C 0.63258 0.9902 0.97269 0.0
C451 C 0.63702 0.053 0.97282 0.0
C452 C 0.15787 0.2747 0.12651 0.0
C453 C 0.14553 0.25563 0.1903 0.0
C454 C 0.15807 0.27211 1.0063 0.0
C455 C 0.14596 0.2502 0.94443 0.0
H456 H 0.16754 0.29165 0.16956 0.0
H457 H 0.16785 0.2874 0.96175 0.0
S458 S 0.11065 0.19625 0.0699 0.0
N459 N 0.12068 0.2151 0.18154 0.0
N460 N 0.12105 0.21015 0.95685 0.0
C461 C 0.13349 0.23124 1.00712 0.0
C462 C 0.13328 0.23398 0.12948 0.0
C463 C 0.90442 0.28698 0.09367 0.0
C464 C 0.89327 0.25823 0.15588 0.0
C465 C 0.90398 0.29052 0.97346 0.0
C466 C 0.89237 0.26553 0.91011 0.0
H467 H 0.91356 0.30726 0.13797 0.0
H468 H 0.91288 0.31305 0.93005 0.0
S469 S 0.86043 0.18472 0.03117 0.0
N470 N 0.87024 0.20377 0.14384 0.0
N471 N 0.86945 0.2106 0.91946 0.0
C472 C 0.88115 0.23657 0.97122 0.0
C473 C 0.8816 0.23285 0.09345 0.0
C474 C 0.15928 0.77495 0.09506 0.0
C475 C 0.14757 0.75024 0.15787 0.0
C476 C 0.15901 0.77701 0.97468 0.0
C477 C 0.14705 0.75428 0.91176 0.0
H478 H 0.16865 0.79368 0.1391 0.0
H479 H 0.16827 0.7969 0.93085 0.0
S480 S 0.11404 0.68103 0.03495 0.0
N481 N 0.12395 0.69994 0.14721 0.0
N482 N 0.12345 0.70384 0.9226 0.0
C483 C 0.13538 0.72852 0.97366 0.0
C484 C 0.13564 0.7265 0.09601 0.0
C485 C 0.90418 0.78625 0.9566 0.0
C486 C 0.89283 0.75865 0.8951 0.0
C487 C 0.90384 0.78956 0.07674 0.0
C488 C 0.8921 0.76556 0.1407 0.0
H489 H 0.91341 0.80581 0.9118 0.0
H490 H 0.91289 0.81116 0.1196 0.0
S491 S 0.85959 0.68818 1.02146 0.0
N492 N 0.86948 0.7064 0.90828 0.0
N493 N 0.86882 0.71298 0.13266 0.0
C494 C 0.88067 0.73782 0.08027 0.0
C495 C 0.88104 0.73426 0.95809 0.0
C496 C 0.63601 0.73905 0.4716 0.0
C497 C 0.64909 0.7499 0.4079 0.0
C498 C 0.63604 0.73934 0.59221 0.0
C499 C 0.64913 0.75075 0.65502 0.0
H500 H 0.62558 0.73046 0.42819 0.0
H501 H 0.62562 0.73105 0.63638 0.0
S502 S 0.68664 0.7797 0.53072 0.0
N503 N 0.67572 0.77094 0.41865 0.0
N504 N 0.67572 0.7715 0.64331 0.0
C505 C 0.66234 0.76111 0.59252 0.0
C506 C 0.66234 0.76066 0.46988 0.0
C507 C 0.40347 0.78151 0.57875 0.0
C508 C 0.39039 0.77005 0.64205 0.0
C509 C 0.4035 0.78155 0.45813 0.0
C510 C 0.39043 0.77039 0.39491 0.0
H511 H 0.41388 0.79005 0.62255 0.0
H512 H 0.41391 0.79025 0.41434 0.0
S513 S 0.35293 0.74015 0.5191 0.0
N514 N 0.36383 0.7488 0.63129 0.0
N515 N 0.36384 0.74887 0.40662 0.0
C516 C 0.3772 0.75952 0.45737 0.0
C517 C 0.3772 0.75933 0.58001 0.0
C518 C 0.63655 0.23477 0.45448 0.0
C519 C 0.64907 0.25286 0.3918 0.0
C520 C 0.63661 0.23389 0.57481 0.0
C521 C 0.64918 0.25103 0.63774 0.0
H522 H 0.62656 0.22138 0.4105 0.0
H523 H 0.62664 0.21992 0.61863 0.0
S524 S 0.68512 0.30018 0.51518 0.0
N525 N 0.67461 0.28703 0.40274 0.0
N526 N 0.67468 0.28541 0.62745 0.0
C527 C 0.66184 0.26873 0.57612 0.0
C528 C 0.66179 0.26963 0.45375 0.0
C529 C 0.4043 0.28606 0.46151 0.0
C530 C 0.39161 0.26937 0.39918 0.0
C531 C 0.40431 0.28705 0.58212 0.0
C532 C 0.39166 0.27115 0.64603 0.0
H533 H 0.41436 0.29848 0.41701 0.0
H534 H 0.41441 0.29987 0.6254 0.0
S535 S 0.35535 0.22507 0.52517 0.0
N536 N 0.3659 0.23725 0.41214 0.0
N537 N 0.36592 0.23923 0.63669 0.0
C538 C 0.37885 0.2548 0.58474 0.0
C539 C 0.37882 0.25389 0.46222 0.0
C540 C 0.02894 0.20116 0.45307 0.0
C541 C 0.03632 0.25663 0.44344 0.0
C542 C 1.01304 0.20253 0.45163 0.0
C543 C 1.00384 0.25938 0.43996 0.0
H544 H 0.03548 0.1565 0.46661 0.0
H545 H 1.0079 0.15879 0.46235 0.0
S546 S 1.01754 0.4173 0.40343 0.0
N547 N 0.03321 0.36952 0.41388 0.0
N548 N 1.00335 0.3724 0.4141 0.0
C549 C 1.01107 0.31492 0.42574 0.0
C550 C 0.02728 0.31349 0.42708 0.0
C551 C 1.01155 0.72528 0.66913 0.0
C552 C 1.00325 0.77248 0.60531 0.0
C553 C 0.02751 0.71944 0.66879 0.0
C554 C 0.03582 0.76037 0.60415 0.0
H555 H 1.00564 0.69233 0.71914 0.0
H556 H 0.0334 0.68213 0.71873 0.0
S557 S 0.01947 0.88967 0.41726 0.0
N558 N 1.00453 0.85979 0.47326 0.0
N559 N 0.03444 0.84851 0.47174 0.0
C560 C 0.02764 0.80801 0.54053 0.0
C561 C 1.0114 0.81408 0.54124 0.0
C562 C 0.52737 0.70498 0.04128 0.0
C563 C 0.53613 0.75622 1.02568 0.0
C564 C 0.51144 0.71293 0.04031 0.0
C565 C 0.50362 0.77235 1.02254 0.0
H566 H 0.53289 0.65827 0.05466 0.0
H567 H 0.50519 0.67203 0.05148 0.0
S568 S 0.52119 0.92185 0.979 0.0
N569 N 0.53577 0.86849 0.99237 0.0
N570 N 0.50585 0.88365 0.99224 0.0
C571 C 0.51223 0.82408 1.00794 0.0
C572 C 0.52846 0.816 1.00934 0.0
C573 C 0.51226 0.30826 0.10263 0.0
C574 C 0.50468 0.25325 0.09468 0.0
C575 C 0.52818 0.30591 0.10255 0.0
C576 C 0.53721 0.24843 0.09529 0.0
H577 H 0.50583 0.35377 0.10589 0.0
H578 H 0.53347 0.3496 0.10735 0.0
S579 S 0.52298 0.09062 0.07703 0.0
N580 N 0.50744 0.1394 0.08386 0.0
N581 N 0.53733 0.13495 0.08115 0.0
C582 C 0.52978 0.19294 0.08955 0.0
C583 C 0.51355 0.19537 0.08955 0.0
loop_
_geom_bond_atom_site_label_1
_geom_bond_atom_site_label_2
_geom_bond_distance
_geom_bond_site_symmetry_2
_ccdc_geom_bond_type
Pr0 C2 2.880 . S
Pr0 O20 2.562 . S
Pr0 O21 2.490 . S
Pr0 O22 2.695 . S
Pr0 O23 2.512 . S
Pr0 O25 2.437 . S
Pr0 O28 2.436 . S
Pr0 O30 2.438 . S
Pr1 C11 2.880 . S
Pr1 O22 2.436 . S
Pr1 O24 2.438 . S
Pr1 O26 2.562 . S
Pr1 O27 2.490 . S
Pr1 O28 2.695 . S
Pr1 O29 2.512 . S
Pr1 O31 2.437 . S
C2 Pr0 2.880 . S
C2 C3 1.491 . S
C2 O20 1.254 . S
C2 O21 1.225 . S
C3 C2 1.491 . S
C3 C4 1.392 . S
C3 C8 1.356 . S
C4 C3 1.392 . S
C4 C5 1.368 . S
C4 H32 0.929 . S
C5 C4 1.368 . S
C5 C6 1.386 . S
C5 H33 0.929 . S
C6 C5 1.386 . S
C6 C7 1.373 . S
C7 C6 1.373 . S
C7 C8 1.409 . S
C7 H34 0.931 . S
C8 C3 1.356 . S
C8 C7 1.409 . S
C8 H35 0.930 . S
C9 O22 1.270 . S
C9 O23 1.248 . S
C10 O24 1.267 . S
C10 O25 1.278 . S
C11 Pr1 2.880 . S
C11 C12 1.491 . S
C11 O26 1.254 . S
C11 O27 1.225 . S
C12 C11 1.491 . S
C12 C13 1.392 . S
C12 C17 1.356 . S
C13 C12 1.392 . S
C13 C14 1.368 . S
C13 H36 0.929 . S
C14 C13 1.368 . S
C14 C15 1.386 . S
C14 H37 0.929 . S
C15 C14 1.386 . S
C15 C16 1.373 . S
C16 C15 1.373 . S
C16 C17 1.409 . S
C16 H38 0.931 . S
C17 C12 1.356 . S
C17 C16 1.409 . S
C17 H39 0.930 . S
C18 O28 1.270 . S
C18 O29 1.248 . S
C19 O30 1.267 . S
C19 O31 1.278 . S
O20 Pr0 2.562 . S
O20 C2 1.254 . S
O21 Pr0 2.490 . S
O21 C2 1.225 . S
O22 Pr0 2.695 . S
O22 Pr1 2.436 . S
O22 C9 1.270 . S
O23 Pr0 2.512 . S
O23 C9 1.248 . S
O24 Pr1 2.438 . S
O24 C10 1.267 . S
O25 Pr0 2.437 . S
O25 C10 1.278 . S
O26 Pr1 2.562 . S
O26 C11 1.254 . S
O27 Pr1 2.490 . S
O27 C11 1.225 . S
O28 Pr0 2.436 . S
O28 Pr1 2.695 . S
O28 C18 1.270 . S
O29 Pr1 2.512 . S
O29 C18 1.248 . S
O30 Pr0 2.438 . S
O30 C19 1.267 . S
O31 Pr1 2.437 . S
O31 C19 1.278 . S
H32 C4 0.929 . S
H33 C5 0.929 . S
H34 C7 0.931 . S
H35 C8 0.930 . S
H36 C13 0.929 . S
H37 C14 0.929 . S
H38 C16 0.931 . S
H39 C17 0.930 . S
Pr40 C42 2.880 . S
Pr40 O60 2.562 . S
Pr40 O61 2.490 . S
Pr40 O62 2.695 . S
Pr40 O63 2.512 . S
Pr40 O65 2.437 . S
Pr40 O68 2.436 . S
Pr40 O70 2.438 . S
Pr41 C51 2.880 . S
Pr41 O62 2.436 . S
Pr41 O64 2.438 . S
Pr41 O66 2.562 . S
Pr41 O67 2.490 . S
Pr41 O68 2.695 . S
Pr41 O69 2.512 . S
Pr41 O71 2.437 . S
C42 Pr40 2.880 . S
C42 C43 1.491 . S
C42 O60 1.254 . S
C42 O61 1.225 . S
C43 C42 1.491 . S
C43 C44 1.392 . S
C43 C48 1.356 . S
C44 C43 1.392 . S
C44 C45 1.368 . S
C44 H72 0.929 . S
C45 C44 1.368 . S
C45 C46 1.386 . S
C45 H73 0.929 . S
C46 C45 1.386 . S
C46 C47 1.373 . S
C47 C46 1.373 . S
C47 C48 1.409 . S
C47 H74 0.931 . S
C48 C43 1.356 . S
C48 C47 1.409 . S
C48 H75 0.930 . S
C49 O62 1.270 . S
C49 O63 1.248 . S
C50 O64 1.267 . S
C50 O65 1.278 . S
C51 Pr41 2.880 . S
C51 C52 1.491 . S
C51 O66 1.254 . S
C51 O67 1.225 . S
C52 C51 1.491 . S
C52 C53 1.392 . S
C52 C57 1.356 . S
C53 C52 1.392 . S
C53 C54 1.368 . S
C53 H76 0.929 . S
C54 C53 1.368 . S
C54 C55 1.386 . S
C54 H77 0.929 . S
C55 C54 1.386 . S
C55 C56 1.373 . S
C56 C55 1.373 . S
C56 C57 1.409 . S
C56 H78 0.931 . S
C57 C52 1.356 . S
C57 C56 1.409 . S
C57 H79 0.930 . S
C58 O68 1.270 . S
C58 O69 1.248 . S
C59 O70 1.267 . S
C59 O71 1.278 . S
O60 Pr40 2.562 . S
O60 C42 1.254 . S
O61 Pr40 2.490 . S
O61 C42 1.225 . S
O62 Pr40 2.695 . S
O62 Pr41 2.436 . S
O62 C49 1.270 . S
O63 Pr40 2.512 . S
O63 C49 1.248 . S
O64 Pr41 2.438 . S
O64 C50 1.267 . S
O65 Pr40 2.437 . S
O65 C50 1.278 . S
O66 Pr41 2.562 . S
O66 C51 1.254 . S
O67 Pr41 2.490 . S
O67 C51 1.225 . S
O68 Pr40 2.436 . S
O68 Pr41 2.695 . S
O68 C58 1.270 . S
O69 Pr41 2.512 . S
O69 C58 1.248 . S
O70 Pr40 2.438 . S
O70 C59 1.267 . S
O71 Pr41 2.437 . S
O71 C59 1.278 . S
H72 C44 0.929 . S
H73 C45 0.929 . S
H74 C47 0.931 . S
H75 C48 0.930 . S
H76 C53 0.929 . S
H77 C54 0.929 . S
H78 C56 0.931 . S
H79 C57 0.930 . S
Pr80 C82 2.880 . S
Pr80 O100 2.562 . S
Pr80 O101 2.490 . S
Pr80 O102 2.695 . S
Pr80 O103 2.512 . S
Pr80 O105 2.437 . S
Pr80 O108 2.436 . S
Pr80 O110 2.438 . S
Pr81 C91 2.880 . S
Pr81 O102 2.436 . S
Pr81 O104 2.438 . S
Pr81 O106 2.562 . S
Pr81 O107 2.490 . S
Pr81 O108 2.695 . S
Pr81 O109 2.512 . S
Pr81 O111 2.437 . S
C82 Pr80 2.880 . S
C82 C83 1.491 . S
C82 O100 1.254 . S
C82 O101 1.225 . S
C83 C82 1.491 . S
C83 C84 1.392 . S
C83 C88 1.356 . S
C84 C83 1.392 . S
C84 C85 1.368 . S
C84 H112 0.929 . S
C85 C84 1.368 . S
C85 C86 1.386 . S
C85 H113 0.929 . S
C86 C85 1.386 . S
C86 C87 1.373 . S
C87 C86 1.373 . S
C87 C88 1.409 . S
C87 H114 0.931 . S
C88 C83 1.356 . S
C88 C87 1.409 . S
C88 H115 0.930 . S
C89 O102 1.270 . S
C89 O103 1.248 . S
C90 O104 1.267 . S
C90 O105 1.278 . S
C91 Pr81 2.880 . S
C91 C92 1.491 . S
C91 O106 1.254 . S
C91 O107 1.225 . S
C92 C91 1.491 . S
C92 C93 1.392 . S
C92 C97 1.356 . S
C93 C92 1.392 . S
C93 C94 1.368 . S
C93 H116 0.929 . S
C94 C93 1.368 . S
C94 C95 1.386 . S
C94 H117 0.929 . S
C95 C94 1.386 . S
C95 C96 1.373 . S
C96 C95 1.373 . S
C96 C97 1.409 . S
C96 H118 0.931 . S
C97 C92 1.356 . S
C97 C96 1.409 . S
C97 H119 0.930 . S
C98 O108 1.270 . S
C98 O109 1.248 . S
C99 O110 1.267 . S
C99 O111 1.278 . S
O100 Pr80 2.562 . S
O100 C82 1.254 . S
O101 Pr80 2.490 . S
O101 C82 1.225 . S
O102 Pr80 2.695 . S
O102 Pr81 2.436 . S
O102 C89 1.270 . S
O103 Pr80 2.512 . S
O103 C89 1.248 . S
O104 Pr81 2.438 . S
O104 C90 1.267 . S
O105 Pr80 2.437 . S
O105 C90 1.278 . S
O106 Pr81 2.562 . S
O106 C91 1.254 . S
O107 Pr81 2.490 . S
O107 C91 1.225 . S
O108 Pr80 2.436 . S
O108 Pr81 2.695 . S
O108 C98 1.270 . S
O109 Pr81 2.512 . S
O109 C98 1.248 . S
O110 Pr80 2.438 . S
O110 C99 1.267 . S
O111 Pr81 2.437 . S
O111 C99 1.278 . S
H112 C84 0.929 . S
H113 C85 0.929 . S
H114 C87 0.931 . S
H115 C88 0.930 . S
H116 C93 0.929 . S
H117 C94 0.929 . S
H118 C96 0.931 . S
H119 C97 0.930 . S
Pr120 C122 2.880 . S
Pr120 O140 2.562 . S
Pr120 O141 2.490 . S
Pr120 O142 2.695 . S
Pr120 O143 2.512 . S
Pr120 O145 2.437 . S
Pr120 O148 2.436 . S
Pr120 O150 2.438 . S
Pr121 C131 2.880 . S
Pr121 O142 2.436 . S
Pr121 O144 2.438 . S
Pr121 O146 2.562 . S
Pr121 O147 2.490 . S
Pr121 O148 2.695 . S
Pr121 O149 2.512 . S
Pr121 O151 2.437 . S
C122 Pr120 2.880 . S
C122 C123 1.491 . S
C122 O140 1.254 . S
C122 O141 1.225 . S
C123 C122 1.491 . S
C123 C124 1.392 . S
C123 C128 1.356 . S
C124 C123 1.392 . S
C124 C125 1.368 . S
C124 H152 0.929 . S
C125 C124 1.368 . S
C125 C126 1.386 . S
C125 H153 0.929 . S
C126 C125 1.386 . S
C126 C127 1.373 . S
C127 C126 1.373 . S
C127 C128 1.409 . S
C127 H154 0.931 . S
C128 C123 1.356 . S
C128 C127 1.409 . S
C128 H155 0.930 . S
C129 O142 1.270 . S
C129 O143 1.248 . S
C130 O144 1.267 . S
C130 O145 1.278 . S
C131 Pr121 2.880 . S
C131 C132 1.491 . S
C131 O146 1.254 . S
C131 O147 1.225 . S
C132 C131 1.491 . S
C132 C133 1.392 . S
C132 C137 1.356 . S
C133 C132 1.392 . S
C133 C134 1.368 . S
C133 H156 0.929 . S
C134 C133 1.368 . S
C134 C135 1.386 . S
C134 H157 0.929 . S
C135 C134 1.386 . S
C135 C136 1.373 . S
C136 C135 1.373 . S
C136 C137 1.409 . S
C136 H158 0.931 . S
C137 C132 1.356 . S
C137 C136 1.409 . S
C137 H159 0.930 . S
C138 O148 1.270 . S
C138 O149 1.248 . S
C139 O150 1.267 . S
C139 O151 1.278 . S
O140 Pr120 2.562 . S
O140 C122 1.254 . S
O141 Pr120 2.490 . S
O141 C122 1.225 . S
O142 Pr120 2.695 . S
O142 Pr121 2.436 . S
O142 C129 1.270 . S
O143 Pr120 2.512 . S
O143 C129 1.248 . S
O144 Pr121 2.438 . S
O144 C130 1.267 . S
O145 Pr120 2.437 . S
O145 C130 1.278 . S
O146 Pr121 2.562 . S
O146 C131 1.254 . S
O147 Pr121 2.490 . S
O147 C131 1.225 . S
O148 Pr120 2.436 . S
O148 Pr121 2.695 . S
O148 C138 1.270 . S
O149 Pr121 2.512 . S
O149 C138 1.248 . S
O150 Pr120 2.438 . S
O150 C139 1.267 . S
O151 Pr121 2.437 . S
O151 C139 1.278 . S
H152 C124 0.929 . S
H153 C125 0.929 . S
H154 C127 0.931 . S
H155 C128 0.930 . S
H156 C133 0.929 . S
H157 C134 0.929 . S
H158 C136 0.931 . S
H159 C137 0.930 . S
Pr160 C162 2.880 1_556 S
Pr160 O180 2.562 1_556 S
Pr160 O181 2.490 1_556 S
Pr160 O182 2.695 . S
Pr160 O183 2.512 . S
Pr160 O185 2.437 1_556 S
Pr160 O188 2.436 1_556 S
Pr160 O190 2.438 . S
Pr161 C171 2.880 1_554 S
Pr161 O182 2.436 1_554 S
Pr161 O184 2.438 . S
Pr161 O186 2.562 1_554 S
Pr161 O187 2.490 1_554 S
Pr161 O188 2.695 . S
Pr161 O189 2.512 . S
Pr161 O191 2.437 1_554 S
C162 Pr160 2.880 1_554 S
C162 C163 1.491 . S
C162 O180 1.254 . S
C162 O181 1.225 . S
C163 C162 1.491 . S
C163 C164 1.392 . S
C163 C168 1.356 . S
C164 C163 1.392 . S
C164 C165 1.368 . S
C164 H192 0.929 . S
C165 C164 1.368 . S
C165 C166 1.386 . S
C165 H193 0.929 . S
C166 C165 1.386 . S
C166 C167 1.373 . S
C167 C166 1.373 . S
C167 C168 1.409 . S
C167 H194 0.931 . S
C168 C163 1.356 . S
C168 C167 1.409 . S
C168 H195 0.930 . S
C169 O182 1.270 . S
C169 O183 1.248 . S
C170 O184 1.267 . S
C170 O185 1.278 . S
C171 Pr161 2.880 1_556 S
C171 C172 1.491 . S
C171 O186 1.254 . S
C171 O187 1.225 . S
C172 C171 1.491 . S
C172 C173 1.392 . S
C172 C177 1.356 . S
C173 C172 1.392 . S
C173 C174 1.368 . S
C173 H196 0.929 . S
C174 C173 1.368 . S
C174 C175 1.386 . S
C174 H197 0.929 . S
C175 C174 1.386 . S
C175 C176 1.373 . S
C176 C175 1.373 . S
C176 C177 1.409 . S
C176 H198 0.931 . S
C177 C172 1.356 . S
C177 C176 1.409 . S
C177 H199 0.930 . S
C178 O188 1.270 . S
C178 O189 1.248 . S
C179 O190 1.267 . S
C179 O191 1.278 . S
O180 Pr160 2.562 1_554 S
O180 C162 1.254 . S
O181 Pr160 2.490 1_554 S
O181 C162 1.225 . S
O182 Pr160 2.695 . S
O182 Pr161 2.436 1_556 S
O182 C169 1.270 . S
O183 Pr160 2.512 . S
O183 C169 1.248 . S
O184 Pr161 2.438 . S
O184 C170 1.267 . S
O185 Pr160 2.437 1_554 S
O185 C170 1.278 . S
O186 Pr161 2.562 1_556 S
O186 C171 1.254 . S
O187 Pr161 2.490 1_556 S
O187 C171 1.225 . S
O188 Pr160 2.436 1_554 S
O188 Pr161 2.695 . S
O188 C178 1.270 . S
O189 Pr161 2.512 . S
O189 C178 1.248 . S
O190 Pr160 2.438 . S
O190 C179 1.267 . S
O191 Pr161 2.437 1_556 S
O191 C179 1.278 . S
H192 C164 0.929 . S
H193 C165 0.929 . S
H194 C167 0.931 . S
H195 C168 0.930 . S
H196 C173 0.929 . S
H197 C174 0.929 . S
H198 C176 0.931 . S
H199 C177 0.930 . S
Pr200 C202 2.880 1_556 S
Pr200 O220 2.562 1_556 S
Pr200 O221 2.490 1_556 S
Pr200 O222 2.695 . S
Pr200 O223 2.512 . S
Pr200 O225 2.437 1_556 S
Pr200 O228 2.436 1_556 S
Pr200 O230 2.438 . S
Pr201 C211 2.880 1_554 S
Pr201 O222 2.436 1_554 S
Pr201 O224 2.438 . S
Pr201 O226 2.562 1_554 S
Pr201 O227 2.490 1_554 S
Pr201 O228 2.695 . S
Pr201 O229 2.512 . S
Pr201 O231 2.437 1_554 S
C202 Pr200 2.880 1_554 S
C202 C203 1.491 . S
C202 O220 1.254 . S
C202 O221 1.225 . S
C203 C202 1.491 . S
C203 C204 1.392 . S
C203 C208 1.356 . S
C204 C203 1.392 . S
C204 C205 1.368 . S
C204 H232 0.929 . S
C205 C204 1.368 . S
C205 C206 1.386 . S
C205 H233 0.929 . S
C206 C205 1.386 . S
C206 C207 1.373 . S
C207 C206 1.373 . S
C207 C208 1.409 . S
C207 H234 0.931 . S
C208 C203 1.356 . S
C208 C207 1.409 . S
C208 H235 0.930 . S
C209 O222 1.270 . S
C209 O223 1.248 . S
C210 O224 1.267 . S
C210 O225 1.278 . S
C211 Pr201 2.880 1_556 S
C211 C212 1.491 . S
C211 O226 1.254 . S
C211 O227 1.225 . S
C212 C211 1.491 . S
C212 C213 1.392 . S
C212 C217 1.356 . S
C213 C212 1.392 . S
C213 C214 1.368 . S
C213 H236 0.929 . S
C214 C213 1.368 . S
C214 C215 1.386 . S
C214 H237 0.929 . S
C215 C214 1.386 . S
C215 C216 1.373 . S
C216 C215 1.373 . S
C216 C217 1.409 . S
C216 H238 0.931 . S
C217 C212 1.356 . S
C217 C216 1.409 . S
C217 H239 0.930 . S
C218 O228 1.270 . S
C218 O229 1.248 . S
C219 O230 1.267 . S
C219 O231 1.278 . S
O220 Pr200 2.562 1_554 S
O220 C202 1.254 . S
O221 Pr200 2.490 1_554 S
O221 C202 1.225 . S
O222 Pr200 2.695 . S
O222 Pr201 2.436 1_556 S
O222 C209 1.270 . S
O223 Pr200 2.512 . S
O223 C209 1.248 . S
O224 Pr201 2.438 . S
O224 C210 1.267 . S
O225 Pr200 2.437 1_554 S
O225 C210 1.278 . S
O226 Pr201 2.562 1_556 S
O226 C211 1.254 . S
O227 Pr201 2.490 1_556 S
O227 C211 1.225 . S
O228 Pr200 2.436 1_554 S
O228 Pr201 2.695 . S
O228 C218 1.270 . S
O229 Pr201 2.512 . S
O229 C218 1.248 . S
O230 Pr200 2.438 . S
O230 C219 1.267 . S
O231 Pr201 2.437 1_556 S
O231 C219 1.278 . S
H232 C204 0.929 . S
H233 C205 0.929 . S
H234 C207 0.931 . S
H235 C208 0.930 . S
H236 C213 0.929 . S
H237 C214 0.929 . S
H238 C216 0.931 . S
H239 C217 0.930 . S
Pr240 C242 2.880 1_556 S
Pr240 O260 2.562 1_556 S
Pr240 O261 2.490 1_556 S
Pr240 O262 2.695 . S
Pr240 O263 2.512 . S
Pr240 O265 2.437 1_556 S
Pr240 O268 2.436 1_556 S
Pr240 O270 2.438 . S
Pr241 C251 2.880 1_554 S
Pr241 O262 2.436 1_554 S
Pr241 O264 2.438 . S
Pr241 O266 2.562 1_554 S
Pr241 O267 2.490 1_554 S
Pr241 O268 2.695 . S
Pr241 O269 2.512 . S
Pr241 O271 2.437 1_554 S
C242 Pr240 2.880 1_554 S
C242 C243 1.491 . S
C242 O260 1.254 . S
C242 O261 1.225 . S
C243 C242 1.491 . S
C243 C244 1.392 . S
C243 C248 1.356 . S
C244 C243 1.392 . S
C244 C245 1.368 . S
C244 H272 0.929 . S
C245 C244 1.368 . S
C245 C246 1.386 . S
C245 H273 0.929 . S
C246 C245 1.386 . S
C246 C247 1.373 . S
C247 C246 1.373 . S
C247 C248 1.409 . S
C247 H274 0.931 . S
C248 C243 1.356 . S
C248 C247 1.409 . S
C248 H275 0.930 . S
C249 O262 1.270 . S
C249 O263 1.248 . S
C250 O264 1.267 . S
C250 O265 1.278 . S
C251 Pr241 2.880 1_556 S
C251 C252 1.491 . S
C251 O266 1.254 . S
C251 O267 1.225 . S
C252 C251 1.491 . S
C252 C253 1.392 . S
C252 C257 1.356 . S
C253 C252 1.392 . S
C253 C254 1.368 . S
C253 H276 0.929 . S
C254 C253 1.368 . S
C254 C255 1.386 . S
C254 H277 0.929 . S
C255 C254 1.386 . S
C255 C256 1.373 . S
C256 C255 1.373 . S
C256 C257 1.409 . S
C256 H278 0.931 . S
C257 C252 1.356 . S
C257 C256 1.409 . S
C257 H279 0.930 . S
C258 O268 1.270 . S
C258 O269 1.248 . S
C259 O270 1.267 . S
C259 O271 1.278 . S
O260 Pr240 2.562 1_554 S
O260 C242 1.254 . S
O261 Pr240 2.490 1_554 S
O261 C242 1.225 . S
O262 Pr240 2.695 . S
O262 Pr241 2.436 1_556 S
O262 C249 1.270 . S
O263 Pr240 2.512 . S
O263 C249 1.248 . S
O264 Pr241 2.438 . S
O264 C250 1.267 . S
O265 Pr240 2.437 1_554 S
O265 C250 1.278 . S
O266 Pr241 2.562 1_556 S
O266 C251 1.254 . S
O267 Pr241 2.490 1_556 S
O267 C251 1.225 . S
O268 Pr240 2.436 1_554 S
O268 Pr241 2.695 . S
O268 C258 1.270 . S
O269 Pr241 2.512 . S
O269 C258 1.248 . S
O270 Pr240 2.438 . S
O270 C259 1.267 . S
O271 Pr241 2.437 1_556 S
O271 C259 1.278 . S
H272 C244 0.929 . S
H273 C245 0.929 . S
H274 C247 0.931 . S
H275 C248 0.930 . S
H276 C253 0.929 . S
H277 C254 0.929 . S
H278 C256 0.931 . S
H279 C257 0.930 . S
Pr280 C282 2.880 1_556 S
Pr280 O300 2.562 1_556 S
Pr280 O301 2.490 1_556 S
Pr280 O302 2.695 . S
Pr280 O303 2.512 . S
Pr280 O305 2.437 1_556 S
Pr280 O308 2.436 1_556 S
Pr280 O310 2.438 . S
Pr281 C291 2.880 1_554 S
Pr281 O302 2.436 1_554 S
Pr281 O304 2.438 . S
Pr281 O306 2.562 1_554 S
Pr281 O307 2.490 1_554 S
Pr281 O308 2.695 . S
Pr281 O309 2.512 . S
Pr281 O311 2.437 1_554 S
C282 Pr280 2.880 1_554 S
C282 C283 1.491 . S
C282 O300 1.254 . S
C282 O301 1.225 . S
C283 C282 1.491 . S
C283 C284 1.392 . S
C283 C288 1.356 . S
C284 C283 1.392 . S
C284 C285 1.368 . S
C284 H312 0.929 . S
C285 C284 1.368 . S
C285 C286 1.386 . S
C285 H313 0.929 . S
C286 C285 1.386 . S
C286 C287 1.373 . S
C287 C286 1.373 . S
C287 C288 1.409 . S
C287 H314 0.931 . S
C288 C283 1.356 . S
C288 C287 1.409 . S
C288 H315 0.930 . S
C289 O302 1.270 . S
C289 O303 1.248 . S
C290 O304 1.267 . S
C290 O305 1.278 . S
C291 Pr281 2.880 1_556 S
C291 C292 1.491 . S
C291 O306 1.254 . S
C291 O307 1.225 . S
C292 C291 1.491 . S
C292 C293 1.392 . S
C292 C297 1.356 . S
C293 C292 1.392 . S
C293 C294 1.368 . S
C293 H316 0.929 . S
C294 C293 1.368 . S
C294 C295 1.386 . S
C294 H317 0.929 . S
C295 C294 1.386 . S
C295 C296 1.373 . S
C296 C295 1.373 . S
C296 C297 1.409 . S
C296 H318 0.931 . S
C297 C292 1.356 . S
C297 C296 1.409 . S
C297 H319 0.930 . S
C298 O308 1.270 . S
C298 O309 1.248 . S
C299 O310 1.267 . S
C299 O311 1.278 . S
O300 Pr280 2.562 1_554 S
O300 C282 1.254 . S
O301 Pr280 2.490 1_554 S
O301 C282 1.225 . S
O302 Pr280 2.695 . S
O302 Pr281 2.436 1_556 S
O302 C289 1.270 . S
O303 Pr280 2.512 . S
O303 C289 1.248 . S
O304 Pr281 2.438 . S
O304 C290 1.267 . S
O305 Pr280 2.437 1_554 S
O305 C290 1.278 . S
O306 Pr281 2.562 1_556 S
O306 C291 1.254 . S
O307 Pr281 2.490 1_556 S
O307 C291 1.225 . S
O308 Pr280 2.436 1_554 S
O308 Pr281 2.695 . S
O308 C298 1.270 . S
O309 Pr281 2.512 . S
O309 C298 1.248 . S
O310 Pr280 2.438 . S
O310 C299 1.267 . S
O311 Pr281 2.437 1_556 S
O311 C299 1.278 . S
H312 C284 0.929 . S
H313 C285 0.929 . S
H314 C287 0.931 . S
H315 C288 0.930 . S
H316 C293 0.929 . S
H317 C294 0.929 . S
H318 C296 0.931 . S
H319 C297 0.930 . S
C320 C321 1.369 . S
C320 C322 1.419 . S
C320 H324 0.930 . S
C321 C320 1.369 . S
C321 C330 1.429 . S
C322 C320 1.419 . S
C322 C323 1.363 . S
C322 H325 0.929 . S
C323 C322 1.363 . S
C323 C329 1.428 . S
H324 C320 0.930 . S
H325 C322 0.929 . S
S326 N327 1.613 . S
S326 N328 1.610 . S
N327 S326 1.613 . S
N327 C330 1.350 . S
N328 S326 1.610 . S
N328 C329 1.351 . S
C329 C323 1.428 . S
C329 N328 1.351 . S
C329 C330 1.434 . S
C330 C321 1.429 . S
C330 N327 1.350 . S
C330 C329 1.434 . S
C331 C332 1.369 . S
C331 C333 1.419 . S
C331 H335 0.930 . S
C332 C331 1.369 . S
C332 C341 1.429 . S
C333 C331 1.419 . S
C333 C334 1.363 . S
C333 H336 0.929 . S
C334 C333 1.363 . S
C334 C340 1.428 . S
H335 C331 0.930 . S
H336 C333 0.929 . S
S337 N338 1.613 . S
S337 N339 1.610 . S
N338 S337 1.613 . S
N338 C341 1.350 . S
N339 S337 1.610 . S
N339 C340 1.351 . S
C340 C334 1.428 . S
C340 N339 1.351 . S
C340 C341 1.434 . S
C341 C332 1.429 . S
C341 N338 1.350 . S
C341 C340 1.434 . S
C342 C343 1.369 . S
C342 C344 1.419 . S
C342 H346 0.930 . S
C343 C342 1.369 . S
C343 C352 1.429 . S
C344 C342 1.419 . S
C344 C345 1.363 . S
C344 H347 0.929 . S
C345 C344 1.363 . S
C345 C351 1.428 . S
H346 C342 0.930 . S
H347 C344 0.929 . S
S348 N349 1.613 . S
S348 N350 1.610 . S
N349 S348 1.613 . S
N349 C352 1.350 . S
N350 S348 1.610 . S
N350 C351 1.351 . S
C351 C345 1.428 . S
C351 N350 1.351 . S
C351 C352 1.434 . S
C352 C343 1.429 . S
C352 N349 1.350 . S
C352 C351 1.434 . S
C353 C354 1.369 . S
C353 C355 1.419 . S
C353 H357 0.930 . S
C354 C353 1.369 . S
C354 C363 1.429 . S
C355 C353 1.419 . S
C355 C356 1.363 . S
C355 H358 0.929 . S
C356 C355 1.363 . S
C356 C362 1.428 . S
H357 C353 0.930 . S
H358 C355 0.929 . S
S359 N360 1.613 . S
S359 N361 1.610 . S
N360 S359 1.613 . S
N360 C363 1.350 . S
N361 S359 1.610 . S
N361 C362 1.351 . S
C362 C356 1.428 . S
C362 N361 1.351 . S
C362 C363 1.434 . S
C363 C354 1.429 . S
C363 N360 1.350 . S
C363 C362 1.434 . S
C364 C365 1.369 . S
C364 C366 1.419 1_565 S
C364 H368 0.930 . S
C365 C364 1.369 . S
C365 C374 1.429 . S
C366 C364 1.419 1_545 S
C366 C367 1.363 . S
C366 H369 0.929 . S
C367 C366 1.363 . S
C367 C373 1.428 . S
H368 C364 0.930 . S
H369 C366 0.929 . S
S370 N371 1.613 . S
S370 N372 1.610 1_565 S
N371 S370 1.613 . S
N371 C374 1.350 . S
N372 S370 1.610 1_545 S
N372 C373 1.351 . S
C373 C367 1.428 . S
C373 N372 1.351 . S
C373 C374 1.434 1_545 S
C374 C365 1.429 . S
C374 N371 1.350 . S
C374 C373 1.434 1_565 S
C375 C376 1.369 . S
C375 C377 1.419 . S
C375 H379 0.930 . S
C376 C375 1.369 . S
C376 C385 1.429 . S
C377 C375 1.419 . S
C377 C378 1.363 . S
C377 H380 0.929 . S
C378 C377 1.363 . S
C378 C384 1.428 . S
H379 C375 0.930 . S
H380 C377 0.929 . S
S381 N382 1.613 . S
S381 N383 1.610 . S
N382 S381 1.613 . S
N382 C385 1.350 . S
N383 S381 1.610 . S
N383 C384 1.351 . S
C384 C378 1.428 . S
C384 N383 1.351 . S
C384 C385 1.434 . S
C385 C376 1.429 . S
C385 N382 1.350 . S
C385 C384 1.434 . S
C386 C387 1.369 . S
C386 C388 1.419 1_565 S
C386 H390 0.930 . S
C387 C386 1.369 . S
C387 C396 1.429 . S
C388 C386 1.419 1_545 S
C388 C389 1.363 . S
C388 H391 0.929 . S
C389 C388 1.363 . S
C389 C395 1.428 . S
H390 C386 0.930 . S
H391 C388 0.929 . S
S392 N393 1.613 1_545 S
S392 N394 1.610 . S
N393 S392 1.613 1_565 S
N393 C396 1.350 . S
N394 S392 1.610 . S
N394 C395 1.351 . S
C395 C389 1.428 . S
C395 N394 1.351 . S
C395 C396 1.434 1_545 S
C396 C387 1.429 . S
C396 N393 1.350 . S
C396 C395 1.434 1_565 S
C397 C398 1.369 . S
C397 C399 1.419 . S
C397 H401 0.930 . S
C398 C397 1.369 . S
C398 C407 1.429 . S
C399 C397 1.419 . S
C399 C400 1.363 . S
C399 H402 0.929 . S
C400 C399 1.363 . S
C400 C406 1.428 . S
H401 C397 0.930 . S
H402 C399 0.929 . S
S403 N404 1.613 . S
S403 N405 1.610 . S
N404 S403 1.613 . S
N404 C407 1.350 . S
N405 S403 1.610 . S
N405 C406 1.351 . S
C406 C400 1.428 . S
C406 N405 1.351 . S
C406 C407 1.434 . S
C407 C398 1.429 . S
C407 N404 1.350 . S
C407 C406 1.434 . S
C408 C409 1.369 1_554 S
C408 C410 1.419 . S
C408 H412 0.930 . S
C409 C408 1.369 1_556 S
C409 C418 1.429 . S
C410 C408 1.419 . S
C410 C411 1.363 1_554 S
C410 H413 0.929 . S
C411 C410 1.363 1_556 S
C411 C417 1.428 . S
H412 C408 0.930 . S
H413 C410 0.929 . S
S414 N415 1.613 . S
S414 N416 1.610 . S
N415 S414 1.613 . S
N415 C418 1.350 . S
N416 S414 1.610 . S
N416 C417 1.351 . S
C417 C411 1.428 . S
C417 N416 1.351 . S
C417 C418 1.434 . S
C418 C409 1.429 . S
C418 N415 1.350 . S
C418 C417 1.434 . S
C419 C420 1.369 . S
C419 C421 1.419 1_565 S
C419 H423 0.930 . S
C420 C419 1.369 . S
C420 C429 1.429 1_556 S
C421 C419 1.419 1_545 S
C421 C422 1.363 . S
C421 H424 0.929 . S
C422 C421 1.363 . S
C422 C428 1.428 1_556 S
H423 C419 0.930 . S
H424 C421 0.929 . S
S425 N426 1.613 . S
S425 N427 1.610 1_565 S
N426 S425 1.613 . S
N426 C429 1.350 . S
N427 S425 1.610 1_545 S
N427 C428 1.351 . S
C428 C422 1.428 1_554 S
C428 N427 1.351 . S
C428 C429 1.434 1_545 S
C429 C420 1.429 1_554 S
C429 N426 1.350 . S
C429 C428 1.434 1_565 S
C430 C431 1.369 . S
C430 C432 1.419 . S
C430 H434 0.930 . S
C431 C430 1.369 . S
C431 C440 1.429 1_554 S
C432 C430 1.419 . S
C432 C433 1.363 . S
C432 H435 0.929 . S
C433 C432 1.363 . S
C433 C439 1.428 1_554 S
H434 C430 0.930 . S
H435 C432 0.929 . S
S436 N437 1.613 . S
S436 N438 1.610 . S
N437 S436 1.613 . S
N437 C440 1.350 . S
N438 S436 1.610 . S
N438 C439 1.351 . S
C439 C433 1.428 1_556 S
C439 N438 1.351 . S
C439 C440 1.434 . S
C440 C431 1.429 1_556 S
C440 N437 1.350 . S
C440 C439 1.434 . S
C441 C442 1.369 . S
C441 C443 1.419 1_545 S
C441 H445 0.930 . S
C442 C441 1.369 . S
C442 C451 1.429 1_554 S
C443 C441 1.419 1_565 S
C443 C444 1.363 . S
C443 H446 0.929 . S
C444 C443 1.363 . S
C444 C450 1.428 1_554 S
H445 C441 0.930 . S
H446 C443 0.929 . S
S447 N448 1.613 . S
S447 N449 1.610 1_545 S
N448 S447 1.613 . S
N448 C451 1.350 . S
N449 S447 1.610 1_565 S
N449 C450 1.351 . S
C450 C444 1.428 1_556 S
C450 N449 1.351 . S
C450 C451 1.434 1_565 S
C451 C442 1.429 1_556 S
C451 N448 1.350 . S
C451 C450 1.434 1_545 S
C452 C453 1.369 1_556 S
C452 C454 1.419 . S
C452 H456 0.930 1_556 S
C453 C452 1.369 1_554 S
C453 C462 1.429 1_554 S
C454 C452 1.419 . S
C454 C455 1.363 . S
C454 H457 0.929 . S
C455 C454 1.363 . S
C455 C461 1.428 . S
H456 C452 0.930 1_554 S
H457 C454 0.929 . S
S458 N459 1.613 . S
S458 N460 1.610 . S
N459 S458 1.613 . S
N459 C462 1.350 . S
N460 S458 1.610 . S
N460 C461 1.351 . S
C461 C455 1.428 . S
C461 N460 1.351 . S
C461 C462 1.434 . S
C462 C453 1.429 1_556 S
C462 N459 1.350 . S
C462 C461 1.434 . S
C463 C464 1.369 1_556 S
C463 C465 1.419 . S
C463 H467 0.930 . S
C464 C463 1.369 1_554 S
C464 C473 1.429 . S
C465 C463 1.419 . S
C465 C466 1.363 . S
C465 H468 0.929 . S
C466 C465 1.363 . S
C466 C472 1.428 . S
H467 C463 0.930 . S
H468 C465 0.929 . S
S469 N470 1.607 1_556 S
S469 N471 1.620 . S
N470 S469 1.607 1_554 S
N470 C473 1.350 . S
N471 S469 1.620 . S
N471 C472 1.351 . S
C472 C466 1.428 . S
C472 N471 1.351 . S
C472 C473 1.434 1_556 S
C473 C464 1.429 . S
C473 N470 1.350 . S
C473 C472 1.434 1_554 S
C474 C475 1.369 . S
C474 C476 1.419 . S
C474 H478 0.930 . S
C475 C474 1.369 . S
C475 C484 1.429 . S
C476 C474 1.419 . S
C476 C477 1.363 1_554 S
C476 H479 0.929 1_554 S
C477 C476 1.363 1_556 S
C477 C483 1.428 1_556 S
H478 C474 0.930 . S
H479 C476 0.929 1_556 S
S480 N481 1.613 . S
S480 N482 1.610 1_554 S
N481 S480 1.613 . S
N481 C484 1.350 . S
N482 S480 1.610 1_556 S
N482 C483 1.351 1_556 S
C483 C477 1.428 1_554 S
C483 N482 1.351 1_554 S
C483 C484 1.434 . S
C484 C475 1.429 . S
C484 N481 1.350 . S
C484 C483 1.434 . S
C485 C486 1.369 1_554 S
C485 C487 1.419 . S
C485 H489 0.930 . S
C486 C485 1.369 1_556 S
C486 C495 1.428 . S
C487 C485 1.419 . S
C487 C488 1.363 . S
C487 H490 0.929 . S
C488 C487 1.363 . S
C488 C494 1.428 . S
H489 C485 0.930 . S
H490 C487 0.929 . S
S491 N492 1.613 1_554 S
S491 N493 1.610 . S
N492 S491 1.613 1_556 S
N492 C495 1.349 . S
N493 S491 1.610 . S
N493 C494 1.351 . S
C494 C488 1.428 . S
C494 N493 1.351 . S
C494 C495 1.435 1_554 S
C495 C486 1.428 . S
C495 N492 1.349 . S
C495 C494 1.435 1_556 S
C496 C497 1.369 . S
C496 C498 1.419 . S
C496 H500 0.930 . S
C497 C496 1.369 . S
C497 C506 1.429 . S
C498 C496 1.419 . S
C498 C499 1.363 . S
C498 H501 0.929 . S
C499 C498 1.363 . S
C499 C505 1.428 . S
H500 C496 0.930 . S
H501 C498 0.929 . S
S502 N503 1.613 . S
S502 N504 1.610 . S
N503 S502 1.613 . S
N503 C506 1.350 . S
N504 S502 1.610 . S
N504 C505 1.351 . S
C505 C499 1.428 . S
C505 N504 1.351 . S
C505 C506 1.434 . S
C506 C497 1.429 . S
C506 N503 1.350 . S
C506 C505 1.434 . S
C507 C508 1.369 . S
C507 C509 1.419 . S
C507 H511 0.930 . S
C508 C507 1.369 . S
C508 C517 1.429 . S
C509 C507 1.419 . S
C509 C510 1.363 . S
C509 H512 0.929 . S
C510 C509 1.363 . S
C510 C516 1.428 . S
H511 C507 0.930 . S
H512 C509 0.929 . S
S513 N514 1.613 . S
S513 N515 1.610 . S
N514 S513 1.613 . S
N514 C517 1.350 . S
N515 S513 1.610 . S
N515 C516 1.351 . S
C516 C510 1.428 . S
C516 N515 1.351 . S
C516 C517 1.434 . S
C517 C508 1.429 . S
C517 N514 1.350 . S
C517 C516 1.434 . S
C518 C519 1.369 . S
C518 C520 1.419 . S
C518 H522 0.930 . S
C519 C518 1.369 . S
C519 C528 1.429 . S
C520 C518 1.419 . S
C520 C521 1.363 . S
C520 H523 0.929 . S
C521 C520 1.363 . S
C521 C527 1.428 . S
H522 C518 0.930 . S
H523 C520 0.929 . S
S524 N525 1.613 . S
S524 N526 1.610 . S
N525 S524 1.613 . S
N525 C528 1.350 . S
N526 S524 1.610 . S
N526 C527 1.351 . S
C527 C521 1.428 . S
C527 N526 1.351 . S
C527 C528 1.434 . S
C528 C519 1.429 . S
C528 N525 1.350 . S
C528 C527 1.434 . S
C529 C530 1.369 . S
C529 C531 1.419 . S
C529 H533 0.930 . S
C530 C529 1.369 . S
C530 C539 1.429 . S
C531 C529 1.419 . S
C531 C532 1.363 . S
C531 H534 0.929 . S
C532 C531 1.363 . S
C532 C538 1.428 . S
H533 C529 0.930 . S
H534 C531 0.929 . S
S535 N536 1.613 . S
S535 N537 1.610 . S
N536 S535 1.613 . S
N536 C539 1.350 . S
N537 S535 1.610 . S
N537 C538 1.351 . S
C538 C532 1.428 . S
C538 N537 1.351 . S
C538 C539 1.434 . S
C539 C530 1.429 . S
C539 N536 1.350 . S
C539 C538 1.434 . S
C540 C541 1.369 . S
C540 C542 1.419 1_455 S
C540 H544 0.930 . S
C541 C540 1.369 . S
C541 C550 1.429 . S
C542 C540 1.419 1_655 S
C542 C543 1.363 . S
C542 H545 0.929 . S
C543 C542 1.363 . S
C543 C549 1.428 . S
H544 C540 0.930 . S
H545 C542 0.929 . S
S546 N547 1.613 1_655 S
S546 N548 1.610 . S
N547 S546 1.613 1_455 S
N547 C550 1.350 . S
N548 S546 1.610 . S
N548 C549 1.351 . S
C549 C543 1.428 . S
C549 N548 1.351 . S
C549 C550 1.434 1_655 S
C550 C541 1.429 . S
C550 N547 1.350 . S
C550 C549 1.434 1_455 S
C551 C552 1.369 . S
C551 C553 1.419 1_655 S
C551 H555 0.930 . S
C552 C551 1.369 . S
C552 C561 1.429 . S
C553 C551 1.419 1_455 S
C553 C554 1.363 . S
C553 H556 0.929 . S
C554 C553 1.363 . S
C554 C560 1.428 . S
H555 C551 0.930 . S
H556 C553 0.929 . S
S557 N558 1.613 . S
S557 N559 1.610 1_655 S
N558 S557 1.613 . S
N558 C561 1.350 . S
N559 S557 1.610 1_455 S
N559 C560 1.351 . S
C560 C554 1.428 . S
C560 N559 1.351 . S
C560 C561 1.434 1_455 S
C561 C552 1.429 . S
C561 N558 1.350 . S
C561 C560 1.434 1_655 S
C562 C563 1.369 . S
C562 C564 1.419 . S
C562 H566 0.930 . S
C563 C562 1.369 . S
C563 C572 1.429 . S
C564 C562 1.419 . S
C564 C565 1.363 . S
C564 H567 0.929 . S
C565 C564 1.363 . S
C565 C571 1.428 . S
H566 C562 0.930 . S
H567 C564 0.929 . S
S568 N569 1.613 . S
S568 N570 1.610 . S
N569 S568 1.613 . S
N569 C572 1.350 . S
N570 S568 1.610 . S
N570 C571 1.351 . S
C571 C565 1.428 . S
C571 N570 1.351 . S
C571 C572 1.434 . S
C572 C563 1.429 . S
C572 N569 1.350 . S
C572 C571 1.434 . S
C573 C574 1.369 . S
C573 C575 1.419 . S
C573 H577 0.930 . S
C574 C573 1.369 . S
C574 C583 1.429 . S
C575 C573 1.419 . S
C575 C576 1.363 . S
C575 H578 0.929 . S
C576 C575 1.363 . S
C576 C582 1.428 . S
H577 C573 0.930 . S
H578 C575 0.929 . S
S579 N580 1.613 . S
S579 N581 1.610 . S
N580 S579 1.613 . S
N580 C583 1.350 . S
N581 S579 1.610 . S
N581 C582 1.351 . S
C582 C576 1.428 . S
C582 N581 1.351 . S
C582 C583 1.434 . S
C583 C574 1.429 . S
C583 N580 1.350 . S
C583 C582 1.434 . S
C321 C6 1.704 . S
C323 C295 1.698 . S
C332 C255 1.704 . S
C334 C46 1.698 . S
C343 C206 1.698 . S
C345 C95 1.703 . S
C354 C166 1.702 . S
C356 C135 1.699 . S
C365 C89 1.607 . S
C367 C9 1.633 . S
C376 C49 1.632 . S
C378 C129 1.606 . S
C387 C138 1.640 . S
C389 C58 1.599 . S
C398 C98 1.639 . S
C400 C18 1.600 . S
C409 C169 1.439 . S
C411 C249 1.436 . S
C420 C209 1.442 . S
C422 C289 1.436 . S
C431 C298 1.441 . S
C433 C218 1.434 . S
C442 C258 1.441 . S
C444 C178 1.435 . S
C453 C19 2.067 . S
C455 C10 2.063 . S
C464 C59 2.061 . S
C466 C50 2.068 . S
C475 C99 2.065 . S
C477 C90 2.065 . S
C486 C130 2.063 . S
C488 C139 2.066 . S
C497 C170 2.065 . S
C499 C179 2.063 . S
C508 C219 2.060 . S
C510 C210 2.067 . S
C519 C250 2.061 . S
C521 C259 2.067 . S
C530 C290 2.062 . S
C532 C299 2.066 . S
C541 C15 2.245 . S
C543 C55 2.246 . S
C552 C126 2.244 . S
C554 C86 2.245 . S
C563 C175 2.246 . S
C565 C215 2.247 . S
C574 C286 2.249 . S
C576 C246 2.249 . S
