# Generated by pormake.
# Topology cha, (4)-cn, num edge types: 1
# Building blocks:
#     Node 0, Type 0, BuildingBlock: CEKHIL_clean_sbu_0, # of connection points: 4
#     Node 1, Type 0, BuildingBlock: CEKHIL_clean_sbu_0, # of connection points: 4
#     Node 2, Type 0, BuildingBlock: CEKHIL_clean_sbu_0, # of connection points: 4
#     Node 3, Type 0, BuildingBlock: CEKHIL_clean_sbu_0, # of connection points: 4
#     Node 4, Type 0, BuildingBlock: CEKHIL_clean_sbu_0, # of connection points: 4
#     Node 5, Type 0, BuildingBlock: CEKHIL_clean_sbu_0, # of connection points: 4
#     Node 6, Type 0, BuildingBlock: CEKHIL_clean_sbu_0, # of connection points: 4
#     Node 7, Type 0, BuildingBlock: CEKHIL_clean_sbu_0, # of connection points: 4
#     Node 8, Type 0, BuildingBlock: CEKHIL_clean_sbu_0, # of connection points: 4
#     Node 9, Type 0, BuildingBlock: CEKHIL_clean_sbu_0, # of connection points: 4
#     Node 10, Type 0, BuildingBlock: CEKHIL_clean_sbu_0, # of connection points: 4
#     Node 11, Type 0, BuildingBlock: CEKHIL_clean_sbu_0, # of connection points: 4
#     Node 12, Type 0, BuildingBlock: CEKHIL_clean_sbu_0, # of connection points: 4
#     Node 13, Type 0, BuildingBlock: CEKHIL_clean_sbu_0, # of connection points: 4
#     Node 14, Type 0, BuildingBlock: CEKHIL_clean_sbu_0, # of connection points: 4
#     Node 15, Type 0, BuildingBlock: CEKHIL_clean_sbu_0, # of connection points: 4
#     Node 16, Type 0, BuildingBlock: CEKHIL_clean_sbu_0, # of connection points: 4
#     Node 17, Type 0, BuildingBlock: CEKHIL_clean_sbu_0, # of connection points: 4
#     Node 18, Type 0, BuildingBlock: CEKHIL_clean_sbu_0, # of connection points: 4
#     Node 19, Type 0, BuildingBlock: CEKHIL_clean_sbu_0, # of connection points: 4
#     Node 20, Type 0, BuildingBlock: CEKHIL_clean_sbu_0, # of connection points: 4
#     Node 21, Type 0, BuildingBlock: CEKHIL_clean_sbu_0, # of connection points: 4
#     Node 22, Type 0, BuildingBlock: CEKHIL_clean_sbu_0, # of connection points: 4
#     Node 23, Type 0, BuildingBlock: CEKHIL_clean_sbu_0, # of connection points: 4
#     Node 24, Type 0, BuildingBlock: CEKHIL_clean_sbu_0, # of connection points: 4
#     Node 25, Type 0, BuildingBlock: CEKHIL_clean_sbu_0, # of connection points: 4
#     Node 26, Type 0, BuildingBlock: CEKHIL_clean_sbu_0, # of connection points: 4
#     Node 27, Type 0, BuildingBlock: CEKHIL_clean_sbu_0, # of connection points: 4
#     Node 28, Type 0, BuildingBlock: CEKHIL_clean_sbu_0, # of connection points: 4
#     Node 29, Type 0, BuildingBlock: CEKHIL_clean_sbu_0, # of connection points: 4
#     Node 30, Type 0, BuildingBlock: CEKHIL_clean_sbu_0, # of connection points: 4
#     Node 31, Type 0, BuildingBlock: CEKHIL_clean_sbu_0, # of connection points: 4
#     Node 32, Type 0, BuildingBlock: CEKHIL_clean_sbu_0, # of connection points: 4
#     Node 33, Type 0, BuildingBlock: CEKHIL_clean_sbu_0, # of connection points: 4
#     Node 34, Type 0, BuildingBlock: CEKHIL_clean_sbu_0, # of connection points: 4
#     Node 35, Type 0, BuildingBlock: CEKHIL_clean_sbu_0, # of connection points: 4
#     Edge 36, Type (0, 0), BuildingBlock: CIFDUS_clean_linker_0, # of connection points: 2
#     Edge 37, Type (0, 0), BuildingBlock: CIFDUS_clean_linker_0, # of connection points: 2
#     Edge 38, Type (0, 0), BuildingBlock: CIFDUS_clean_linker_0, # of connection points: 2
#     Edge 39, Type (0, 0), BuildingBlock: CIFDUS_clean_linker_0, # of connection points: 2
#     Edge 40, Type (0, 0), BuildingBlock: CIFDUS_clean_linker_0, # of connection points: 2
#     Edge 41, Type (0, 0), BuildingBlock: CIFDUS_clean_linker_0, # of connection points: 2
#     Edge 42, Type (0, 0), BuildingBlock: CIFDUS_clean_linker_0, # of connection points: 2
#     Edge 43, Type (0, 0), BuildingBlock: CIFDUS_clean_linker_0, # of connection points: 2
#     Edge 44, Type (0, 0), BuildingBlock: CIFDUS_clean_linker_0, # of connection points: 2
#     Edge 45, Type (0, 0), BuildingBlock: CIFDUS_clean_linker_0, # of connection points: 2
#     Edge 46, Type (0, 0), BuildingBlock: CIFDUS_clean_linker_0, # of connection points: 2
#     Edge 47, Type (0, 0), BuildingBlock: CIFDUS_clean_linker_0, # of connection points: 2
#     Edge 48, Type (0, 0), BuildingBlock: CIFDUS_clean_linker_0, # of connection points: 2
#     Edge 49, Type (0, 0), BuildingBlock: CIFDUS_clean_linker_0, # of connection points: 2
#     Edge 50, Type (0, 0), BuildingBlock: CIFDUS_clean_linker_0, # of connection points: 2
#     Edge 51, Type (0, 0), BuildingBlock: CIFDUS_clean_linker_0, # of connection points: 2
#     Edge 52, Type (0, 0), BuildingBlock: CIFDUS_clean_linker_0, # of connection points: 2
#     Edge 53, Type (0, 0), BuildingBlock: CIFDUS_clean_linker_0, # of connection points: 2
#     Edge 54, Type (0, 0), BuildingBlock: CIFDUS_clean_linker_0, # of connection points: 2
#     Edge 55, Type (0, 0), BuildingBlock: CIFDUS_clean_linker_0, # of connection points: 2
#     Edge 56, Type (0, 0), BuildingBlock: CIFDUS_clean_linker_0, # of connection points: 2
#     Edge 57, Type (0, 0), BuildingBlock: CIFDUS_clean_linker_0, # of connection points: 2
#     Edge 58, Type (0, 0), BuildingBlock: CIFDUS_clean_linker_0, # of connection points: 2
#     Edge 59, Type (0, 0), BuildingBlock: CIFDUS_clean_linker_0, # of connection points: 2
#     Edge 60, Type (0, 0), BuildingBlock: CIFDUS_clean_linker_0, # of connection points: 2
#     Edge 61, Type (0, 0), BuildingBlock: CIFDUS_clean_linker_0, # of connection points: 2
#     Edge 62, Type (0, 0), BuildingBlock: CIFDUS_clean_linker_0, # of connection points: 2
#     Edge 63, Type (0, 0), BuildingBlock: CIFDUS_clean_linker_0, # of connection points: 2
#     Edge 64, Type (0, 0), BuildingBlock: CIFDUS_clean_linker_0, # of connection points: 2
#     Edge 65, Type (0, 0), BuildingBlock: CIFDUS_clean_linker_0, # of connection points: 2
#     Edge 66, Type (0, 0), BuildingBlock: CIFDUS_clean_linker_0, # of connection points: 2
#     Edge 67, Type (0, 0), BuildingBlock: CIFDUS_clean_linker_0, # of connection points: 2
#     Edge 68, Type (0, 0), BuildingBlock: CIFDUS_clean_linker_0, # of connection points: 2
#     Edge 69, Type (0, 0), BuildingBlock: CIFDUS_clean_linker_0, # of connection points: 2
#     Edge 70, Type (0, 0), BuildingBlock: CIFDUS_clean_linker_0, # of connection points: 2
#     Edge 71, Type (0, 0), BuildingBlock: CIFDUS_clean_linker_0, # of connection points: 2
#     Edge 72, Type (0, 0), BuildingBlock: CIFDUS_clean_linker_0, # of connection points: 2
#     Edge 73, Type (0, 0), BuildingBlock: CIFDUS_clean_linker_0, # of connection points: 2
#     Edge 74, Type (0, 0), BuildingBlock: CIFDUS_clean_linker_0, # of connection points: 2
#     Edge 75, Type (0, 0), BuildingBlock: CIFDUS_clean_linker_0, # of connection points: 2
#     Edge 76, Type (0, 0), BuildingBlock: CIFDUS_clean_linker_0, # of connection points: 2
#     Edge 77, Type (0, 0), BuildingBlock: CIFDUS_clean_linker_0, # of connection points: 2
#     Edge 78, Type (0, 0), BuildingBlock: CIFDUS_clean_linker_0, # of connection points: 2
#     Edge 79, Type (0, 0), BuildingBlock: CIFDUS_clean_linker_0, # of connection points: 2
#     Edge 80, Type (0, 0), BuildingBlock: CIFDUS_clean_linker_0, # of connection points: 2
#     Edge 81, Type (0, 0), BuildingBlock: CIFDUS_clean_linker_0, # of connection points: 2
#     Edge 82, Type (0, 0), BuildingBlock: CIFDUS_clean_linker_0, # of connection points: 2
#     Edge 83, Type (0, 0), BuildingBlock: CIFDUS_clean_linker_0, # of connection points: 2
#     Edge 84, Type (0, 0), BuildingBlock: CIFDUS_clean_linker_0, # of connection points: 2
#     Edge 85, Type (0, 0), BuildingBlock: CIFDUS_clean_linker_0, # of connection points: 2
#     Edge 86, Type (0, 0), BuildingBlock: CIFDUS_clean_linker_0, # of connection points: 2
#     Edge 87, Type (0, 0), BuildingBlock: CIFDUS_clean_linker_0, # of connection points: 2
#     Edge 88, Type (0, 0), BuildingBlock: CIFDUS_clean_linker_0, # of connection points: 2
#     Edge 89, Type (0, 0), BuildingBlock: CIFDUS_clean_linker_0, # of connection points: 2
#     Edge 90, Type (0, 0), BuildingBlock: CIFDUS_clean_linker_0, # of connection points: 2
#     Edge 91, Type (0, 0), BuildingBlock: CIFDUS_clean_linker_0, # of connection points: 2
#     Edge 92, Type (0, 0), BuildingBlock: CIFDUS_clean_linker_0, # of connection points: 2
#     Edge 93, Type (0, 0), BuildingBlock: CIFDUS_clean_linker_0, # of connection points: 2
#     Edge 94, Type (0, 0), BuildingBlock: CIFDUS_clean_linker_0, # of connection points: 2
#     Edge 95, Type (0, 0), BuildingBlock: CIFDUS_clean_linker_0, # of connection points: 2
#     Edge 96, Type (0, 0), BuildingBlock: CIFDUS_clean_linker_0, # of connection points: 2
#     Edge 97, Type (0, 0), BuildingBlock: CIFDUS_clean_linker_0, # of connection points: 2
#     Edge 98, Type (0, 0), BuildingBlock: CIFDUS_clean_linker_0, # of connection points: 2
#     Edge 99, Type (0, 0), BuildingBlock: CIFDUS_clean_linker_0, # of connection points: 2
#     Edge 100, Type (0, 0), BuildingBlock: CIFDUS_clean_linker_0, # of connection points: 2
#     Edge 101, Type (0, 0), BuildingBlock: CIFDUS_clean_linker_0, # of connection points: 2
#     Edge 102, Type (0, 0), BuildingBlock: CIFDUS_clean_linker_0, # of connection points: 2
#     Edge 103, Type (0, 0), BuildingBlock: CIFDUS_clean_linker_0, # of connection points: 2
#     Edge 104, Type (0, 0), BuildingBlock: CIFDUS_clean_linker_0, # of connection points: 2
#     Edge 105, Type (0, 0), BuildingBlock: CIFDUS_clean_linker_0, # of connection points: 2
#     Edge 106, Type (0, 0), BuildingBlock: CIFDUS_clean_linker_0, # of connection points: 2
#     Edge 107, Type (0, 0), BuildingBlock: CIFDUS_clean_linker_0, # of connection points: 2
# Relax obj value: 0.072
# Max RMSD: 0.096
# Mean RMSD: 0.096
data_MOF--net-cha--node1-CEKHIL_clean_sbu_0--edge1-CIFDUS_clean_linker_0
_symmetry_space_group_name_H-M    P1
_symmetry_Int_Tables_number       1
_symmetry_cell_setting            triclinic
loop_
_symmetry_equiv_pos_as_xyz
'x, y, z'
_cell_length_a     47.134412
_cell_length_b     47.128142
_cell_length_c     74.270797
_cell_angle_alpha  90.001445
_cell_angle_beta   90.001559
_cell_angle_gamma 119.95813
loop_
_atom_site_label
_atom_site_type_symbol
_atom_site_fract_x
_atom_site_fract_y
_atom_site_fract_z
_atom_type_partial_charge
Co0 Co 0.03802 0.30253 0.10153 0.0
O1 O 0.04103 0.29945 0.12718 0.0
O2 O 0.0119 0.31823 0.1137 0.0
C3 C 0.09235 0.32463 0.09659 0.0
O4 O 0.02997 0.30952 0.0751 0.0
Co5 Co 0.06018 0.26429 0.07621 0.0
O6 O 0.05871 0.29373 0.05763 0.0
C7 C 0.99815 0.22911 0.09675 0.0
C8 C 0.02176 0.31153 0.12867 0.0
C9 C 0.0416 0.30755 0.05969 0.0
O10 O -0.00049 0.2563 0.10092 0.0
O11 O 0.02125 0.22757 0.08853 0.0
O12 O 0.08081 0.34343 0.10139 0.0
O13 O 0.07143 0.2938 0.09624 0.0
Co14 Co 0.74969 0.75323 0.09868 0.0
O15 O 0.75587 0.75763 0.12438 0.0
O16 O 0.73206 0.71051 0.10963 0.0
C17 C 0.73142 0.78927 0.09633 0.0
O18 O 0.73831 0.73881 0.07236 0.0
Co19 Co 0.78659 0.81202 0.07254 0.0
O20 O 0.75287 0.78299 0.05499 0.0
C21 C 0.82083 0.77942 0.08863 0.0
C22 C 0.74133 0.7259 0.12495 0.0
C23 C 0.73828 0.75208 0.05717 0.0
O24 O 0.79404 0.75678 0.09566 0.0
O25 O 0.82282 0.8041 0.08021 0.0
O26 O 0.71126 0.75913 0.10095 0.0
O27 O 0.7615 0.79672 0.09439 0.0
Co28 Co 0.29843 0.02008 0.09942 0.0
O29 O 0.29609 0.01998 0.12528 0.0
O30 O 0.34143 0.04884 0.10946 0.0
C31 C 0.2679 0.96514 0.0966 0.0
O32 O 0.31023 0.02558 0.07255 0.0
Co33 Co 0.23514 0.99242 0.07606 0.0
O34 O 0.26457 0.99453 0.0564 0.0
C35 C 0.26177 0.05705 0.09406 0.0
C36 C 0.32742 0.04007 0.12517 0.0
C37 C 0.29553 0.01263 0.05757 0.0
O38 O 0.28836 0.05713 0.09823 0.0
O39 O 0.23711 0.03249 0.08673 0.0
O40 O 0.29892 0.97847 0.10022 0.0
O41 O 0.25641 0.9848 0.09606 0.0
Co42 Co 0.30537 0.0541 0.91523 0.0
O43 O 0.30287 0.06058 0.88984 0.0
O44 O 0.32151 0.02991 0.9016 0.0
C45 C 0.32673 0.10718 0.92295 0.0
O46 O 0.31203 0.04265 0.94099 0.0
Co47 Co 0.26492 0.07152 0.94192 0.0
O48 O 0.29262 0.06612 0.96013 0.0
C49 C 0.23177 0.01271 0.91888 0.0
C50 C 0.31491 0.04147 0.88725 0.0
C51 C 0.30825 0.05106 0.95698 0.0
O52 O 0.25944 0.01524 0.91467 0.0
O53 O 0.22922 0.03438 0.92803 0.0
O54 O 0.346 0.09699 0.91695 0.0
O55 O 0.29597 0.08614 0.92249 0.0
Co56 Co 0.01908 0.29629 0.91604 0.0
O57 O 0.0193 0.29422 0.89016 0.0
O58 O 0.04143 0.34013 0.90593 0.0
C59 C 0.96559 0.25774 0.91863 0.0
O60 O 0.02279 0.30782 0.94295 0.0
Co61 Co 0.00173 0.23527 0.93969 0.0
O62 O 0.99592 0.26116 0.95887 0.0
C63 C 0.06697 0.27191 0.92206 0.0
C64 C 0.03465 0.32596 0.89022 0.0
C65 C 0.01049 0.29227 0.95781 0.0
O66 O 0.06138 0.29496 0.91719 0.0
O67 O 0.04543 0.24556 0.92979 0.0
O68 O 0.97365 0.28793 0.9153 0.0
O69 O 0.98954 0.252 0.91931 0.0
Co70 Co 0.76282 0.74075 0.91612 0.0
O71 O 0.77395 0.74676 0.89107 0.0
O72 O 0.72327 0.72104 0.90164 0.0
C73 C 0.7994 0.72494 0.92301 0.0
O74 O 0.74289 0.72992 0.94152 0.0
Co75 Co 0.81461 0.7824 0.94471 0.0
O76 O 0.78493 0.74603 0.96072 0.0
C77 C 0.77952 0.81039 0.92513 0.0
C78 C 0.74284 0.73109 0.88777 0.0
C79 C 0.75439 0.73043 0.95737 0.0
O80 O 0.76274 0.78343 0.91649 0.0
O81 O 0.80182 0.81522 0.93659 0.0
O82 O 0.77068 0.70378 0.91688 0.0
O83 O 0.8056 0.7549 0.92377 0.0
Co84 Co 0.02726 0.76454 0.91182 0.0
O85 O 0.02202 0.76969 0.88651 0.0
O86 O 0.04733 0.74467 0.89743 0.0
C87 C 0.97519 0.74908 0.91955 0.0
O88 O 0.03613 0.75414 0.93748 0.0
Co89 Co 0.0165 0.80813 0.93964 0.0
O90 O 0.01352 0.77434 0.95667 0.0
C91 C 0.07584 0.83661 0.91691 0.0
C92 C 0.03779 0.75425 0.88336 0.0
C93 C 0.02637 0.75667 0.95337 0.0
O94 O 0.06971 0.8079 0.91196 0.0
O95 O 0.05613 0.84167 0.92642 0.0
O96 O 0.98191 0.72747 0.91307 0.0
O97 O -0.00095 0.77877 0.91953 0.0
Co98 Co 0.30391 0.29875 0.9152 0.0
O99 O 0.2971 0.28975 0.88991 0.0
O100 O 0.31483 0.33863 0.90203 0.0
C101 C 0.33086 0.27094 0.91926 0.0
O102 O 0.31402 0.3163 0.94112 0.0
Co103 Co 0.27352 0.24042 0.94229 0.0
O104 O 0.30536 0.27408 0.95898 0.0
C105 C 0.23142 0.26241 0.92451 0.0
C106 C 0.30714 0.32054 0.88758 0.0
C107 C 0.31622 0.30453 0.95644 0.0
O108 O 0.25677 0.28774 0.91801 0.0
O109 O 0.23308 0.2398 0.93323 0.0
O110 O 0.34662 0.30089 0.91343 0.0
O111 O 0.2997 0.25846 0.92103 0.0
Co112 Co 0.76386 0.02996 0.91624 0.0
O113 O 0.76332 0.02432 0.89045 0.0
O114 O 0.71953 0.01153 0.90688 0.0
C115 C 0.808 0.08123 0.91666 0.0
O116 O 0.75535 0.03335 0.94318 0.0
Co117 Co 0.82444 0.04233 0.93933 0.0
O118 O 0.80427 0.05807 0.95717 0.0
C119 C 0.77638 0.97507 0.92762 0.0
C120 C 0.732 0.0131 0.89101 0.0
C121 C 0.77361 0.04767 0.957 0.0
O122 O 0.75769 0.98456 0.92029 0.0
O123 O 0.80409 0.99441 0.93485 0.0
O124 O 0.7792 0.07711 0.91301 0.0
O125 O 0.80921 0.0547 0.91839 0.0
Co126 Co 0.75518 0.01395 0.09873 0.0
O127 O 0.75671 0.01348 0.12468 0.0
O128 O 0.73086 0.03337 0.10886 0.0
C129 C 0.74407 0.96178 0.09475 0.0
O130 O 0.74743 0.01741 0.07173 0.0
Co131 Co 0.80532 0.00361 0.07626 0.0
O132 O 0.77541 0.99818 0.05615 0.0
C133 C 0.8269 0.06566 0.09572 0.0
C134 C 0.73894 0.0274 0.12459 0.0
C135 C 0.75467 0.00797 0.05696 0.0
O136 O 0.79692 0.05817 0.0984 0.0
O137 O 0.83496 0.0458 0.0888 0.0
O138 O 0.72042 0.96743 0.09858 0.0
O139 O 0.77301 0.98701 0.09513 0.0
Co140 Co 0.04431 0.77471 0.09429 0.0
O141 O 0.04454 0.78451 0.11951 0.0
O142 O 0.01945 0.73455 0.10819 0.0
C143 C 0.09871 0.80904 0.09024 0.0
O144 O 0.03964 0.75567 0.06873 0.0
Co145 Co 0.06634 0.83025 0.06546 0.0
O146 O 0.06924 0.79771 0.04989 0.0
C147 C -0.00022 0.80028 0.08167 0.0
C148 C 0.0273 0.75327 0.12237 0.0
C149 C 0.0528 0.76716 0.05319 0.0
O150 O 0.00377 0.77868 0.09024 0.0
O151 O 0.02257 0.82362 0.07256 0.0
O152 O 0.08849 0.77997 0.0968 0.0
O153 O 0.07648 0.81683 0.08775 0.0
Co154 Co 0.29103 0.30133 0.0983 0.0
O155 O 0.28329 0.2958 0.12383 0.0
O156 O 0.3323 0.32305 0.1113 0.0
C157 C 0.25195 0.31454 0.09251 0.0
O158 O 0.308 0.31268 0.07234 0.0
Co159 Co 0.23571 0.25668 0.07144 0.0
O160 O 0.26409 0.29113 0.05399 0.0
C161 C 0.27096 0.23008 0.09208 0.0
C162 C 0.31476 0.31288 0.12593 0.0
C163 C 0.29462 0.30981 0.05677 0.0
O164 O 0.29252 0.25909 0.09725 0.0
O165 O 0.24527 0.22403 0.08315 0.0
O166 O 0.2805 0.33694 0.09827 0.0
O167 O 0.24748 0.2853 0.09195 0.0
Co168 Co 0.7058 0.63463 0.43674 0.0
O169 O 0.70534 0.63114 0.46258 0.0
O170 O 0.67652 0.64797 0.44695 0.0
C171 C 0.76076 0.65935 0.43388 0.0
O172 O 0.70063 0.64215 0.41005 0.0
Co173 Co 0.73371 0.59993 0.41276 0.0
O174 O 0.73166 0.62802 0.3935 0.0
C175 C 0.66901 0.56129 0.43037 0.0
C176 C 0.68475 0.64182 0.46258 0.0
C177 C 0.71365 0.64096 0.395 0.0
O178 O 0.66897 0.58766 0.4349 0.0
O179 O 0.69362 0.56134 0.42299 0.0
O180 O 0.74728 0.67674 0.43799 0.0
O181 O 0.74124 0.62821 0.43306 0.0
Co182 Co 0.42583 0.10135 0.43618 0.0
O183 O 0.42949 0.10574 0.46198 0.0
O184 O 0.41162 0.05908 0.44726 0.0
C185 C 0.40197 0.13232 0.4327 0.0
O186 O 0.41812 0.08766 0.40959 0.0
Co187 Co 0.46126 0.16299 0.41151 0.0
O188 O 0.43159 0.13249 0.39287 0.0
C189 C 0.49905 0.13587 0.42919 0.0
C190 C 0.41796 0.07438 0.46263 0.0
C191 C 0.4188 0.1016 0.39451 0.0
O192 O 0.47249 0.11036 0.43446 0.0
O193 O 0.49946 0.16027 0.42131 0.0
O194 O 0.38415 0.10169 0.43715 0.0
O195 O 0.433 0.14331 0.4319 0.0
Co196 Co 0.95939 0.35443 0.43149 0.0
O197 O 0.95743 0.3535 0.4574 0.0
O198 O 0.003 0.37253 0.44145 0.0
C199 C 0.91738 0.30288 0.42755 0.0
O200 O 0.97073 0.35862 0.40456 0.0
Co201 Co 0.9005 0.34531 0.40817 0.0
O202 O 0.92354 0.3355 0.38898 0.0
C203 C 0.94513 0.40978 0.42484 0.0
C204 C 0.98904 0.3666 0.4572 0.0
C205 C 0.95441 0.34745 0.3898 0.0
O206 O 0.96362 0.39935 0.43129 0.0
O207 O 0.91868 0.39179 0.41609 0.0
O208 O 0.94646 0.3077 0.43112 0.0
O209 O 0.9144 0.32859 0.42786 0.0
Co210 Co 0.95232 0.3726 0.2468 0.0
O211 O 0.94882 0.37661 0.22119 0.0
O212 O 0.97141 0.3503 0.23396 0.0
C213 C 0.96996 0.42581 0.25317 0.0
O214 O 0.96085 0.36413 0.27281 0.0
Co215 Co 0.91009 0.38768 0.2733 0.0
O216 O 0.94118 0.388 0.29141 0.0
C217 C 0.87954 0.32671 0.25173 0.0
C218 C 0.96349 0.35973 0.21925 0.0
C219 C 0.95777 0.37385 0.28856 0.0
O220 O 0.90785 0.3313 0.24704 0.0
O221 O 0.87554 0.34776 0.26061 0.0
O222 O 0.99075 0.41722 0.24764 0.0
O223 O 0.93978 0.40292 0.25321 0.0
Co224 Co 0.68796 0.6299 0.25158 0.0
O225 O 0.68808 0.62664 0.22582 0.0
O226 O 0.71756 0.67241 0.24121 0.0
C227 C 0.633 0.60052 0.2543 0.0
O228 O 0.69338 0.64232 0.27832 0.0
Co229 Co 0.65912 0.56706 0.27533 0.0
O230 O 0.66059 0.59715 0.29443 0.0
C231 C 0.72435 0.59285 0.25825 0.0
C232 C 0.70878 0.65782 0.22564 0.0
C233 C 0.67958 0.62799 0.29323 0.0
O234 O 0.72431 0.61903 0.25329 0.0
O235 O 0.69975 0.56861 0.26583 0.0
O236 O 0.64701 0.63147 0.25036 0.0
O237 O 0.65207 0.58834 0.25512 0.0
Co238 Co 0.43056 0.09049 0.25071 0.0
O239 O 0.43308 0.09111 0.22482 0.0
O240 O 0.38697 0.06789 0.24049 0.0
C241 C 0.46959 0.07682 0.25546 0.0
O242 O 0.41857 0.08444 0.27751 0.0
Co243 Co 0.49114 0.13862 0.27362 0.0
O244 O 0.46523 0.10917 0.29366 0.0
C245 C 0.45408 0.16295 0.25291 0.0
C246 C 0.40131 0.07506 0.22483 0.0
C247 C 0.43434 0.09047 0.29252 0.0
O248 O 0.43066 0.13345 0.25023 0.0
O249 O 0.48126 0.16975 0.26037 0.0
O250 O 0.43988 0.05405 0.25166 0.0
O251 O 0.47487 0.10634 0.25473 0.0
Co252 Co 0.67957 0.07489 0.24948 0.0
O253 O 0.68081 0.07679 0.2236 0.0
O254 O 0.70353 0.05439 0.24003 0.0
C255 C 0.62569 0.05838 0.25179 0.0
O256 O 0.68187 0.06781 0.27673 0.0
Co257 Co 0.6609 0.12035 0.27079 0.0
O258 O 0.6554 0.09026 0.29083 0.0
C259 C 0.7255 0.14805 0.2531 0.0
C260 C 0.69732 0.06158 0.2241 0.0
C261 C 0.66881 0.07254 0.2909 0.0
O262 O 0.7212 0.1191 0.25054 0.0
O263 O 0.7032 0.15327 0.25938 0.0
O264 O 0.6347 0.03691 0.24861 0.0
O265 O 0.64891 0.08843 0.25191 0.0
Co266 Co 0.97307 0.63585 0.24514 0.0
O267 O 0.9661 0.62687 0.21974 0.0
O268 O 0.99008 0.67653 0.23141 0.0
C269 C 0.99187 0.60069 0.24995 0.0
O270 O 0.98463 0.65375 0.27109 0.0
Co271 Co 0.93514 0.57952 0.27283 0.0
O272 O 0.96902 0.61068 0.28967 0.0
C273 C 0.90127 0.60961 0.25384 0.0
C274 C 0.98029 0.65814 0.21706 0.0
C275 C 0.98406 0.64142 0.28675 0.0
O276 O 0.92863 0.63232 0.24735 0.0
O277 O 0.89874 0.58535 0.26296 0.0
O278 O 0.01171 0.63005 0.24405 0.0
O279 O 0.96176 0.59329 0.2515 0.0
Co280 Co 0.44128 0.38099 0.24533 0.0
O281 O 0.44919 0.387 0.21983 0.0
O282 O 0.40027 0.35778 0.23223 0.0
C283 C 0.47456 0.43403 0.25289 0.0
O284 O 0.42404 0.37019 0.27124 0.0
Co285 Co 0.4998 0.39703 0.2713 0.0
O286 O 0.46753 0.39188 0.28998 0.0
C287 C 0.47178 0.33787 0.24846 0.0
C288 C 0.41783 0.3688 0.21766 0.0
C289 C 0.43683 0.37797 0.2871 0.0
O290 O 0.4469 0.34111 0.24459 0.0
O291 O 0.49671 0.35934 0.25722 0.0
O292 O 0.44506 0.42462 0.24724 0.0
O293 O 0.48337 0.41228 0.25217 0.0
Co294 Co 0.42204 0.35149 0.4296 0.0
O295 O 0.42343 0.34947 0.45546 0.0
O296 O 0.40065 0.37335 0.44025 0.0
C297 C 0.40688 0.29849 0.42478 0.0
O298 O 0.41518 0.35763 0.40295 0.0
Co299 Co 0.46817 0.33729 0.40588 0.0
O300 O 0.43851 0.33492 0.38626 0.0
C301 C 0.49476 0.39964 0.426 0.0
C302 C 0.40778 0.3656 0.45576 0.0
C303 C 0.42035 0.34768 0.38778 0.0
O304 O 0.4656 0.39376 0.42967 0.0
O305 O 0.50065 0.37892 0.41813 0.0
O306 O 0.3848 0.30622 0.42894 0.0
O307 O 0.43672 0.32214 0.42518 0.0
Co308 Co 0.70496 0.09186 0.43189 0.0
O309 O 0.70367 0.09364 0.45776 0.0
O310 O 0.68114 0.04787 0.44189 0.0
C311 C 0.75876 0.12924 0.42957 0.0
O312 O 0.70279 0.08124 0.4048 0.0
Co313 Co 0.7237 0.15465 0.40935 0.0
O314 O 0.73044 0.12943 0.39015 0.0
C315 C 0.65856 0.11833 0.42664 0.0
C316 C 0.68735 0.06194 0.45764 0.0
C317 C 0.71655 0.0983 0.39051 0.0
O318 O 0.66326 0.09426 0.43034 0.0
O319 O 0.68068 0.14529 0.41973 0.0
O320 O 0.74986 0.09892 0.43312 0.0
O321 O 0.73544 0.13593 0.42899 0.0
Co322 Co 0.96298 0.64415 0.42842 0.0
O323 O 0.95369 0.63477 0.45371 0.0
O324 O 0.00343 0.6638 0.44246 0.0
C325 C 0.92411 0.65831 0.42409 0.0
O326 O 0.98131 0.65884 0.40271 0.0
Co327 Co 0.9091 0.6058 0.39943 0.0
O328 O 0.93846 0.6435 0.38408 0.0
C329 C 0.947 0.57676 0.41518 0.0
C330 C 0.9849 0.65173 0.45664 0.0
C331 C 0.96911 0.65928 0.38716 0.0
O332 O 0.96462 0.60233 0.42491 0.0
O333 O 0.92339 0.57337 0.40515 0.0
O334 O 0.95254 0.67972 0.43046 0.0
O335 O 0.91966 0.62932 0.42177 0.0
Co336 Co 0.37342 0.97619 0.76723 0.0
O337 O 0.37152 0.96734 0.79255 0.0
O338 O 0.35013 0.99474 0.77978 0.0
C339 C 0.42728 0.99267 0.7646 0.0
O340 O 0.37194 0.99039 0.7412 0.0
Co341 Co 0.39209 0.93684 0.74077 0.0
O342 O 0.39973 0.97287 0.72415 0.0
C343 C 0.32608 0.90525 0.75732 0.0
C344 C 0.35601 0.98334 0.79444 0.0
C345 C 0.38592 0.98998 0.72631 0.0
O346 O 0.33133 0.93307 0.76346 0.0
O347 O 0.34809 0.90155 0.7493 0.0
O348 O 0.41835 0.0132 0.77007 0.0
O349 O 0.40385 0.96304 0.76227 0.0
Co350 Co 0.07665 0.42745 0.76432 0.0
O351 O 0.07811 0.43031 0.7902 0.0
O352 O 0.05221 0.38408 0.77477 0.0
C353 C 0.06618 0.46862 0.75935 0.0
O354 O 0.06924 0.41548 0.73749 0.0
Co355 Co 0.12823 0.48742 0.74189 0.0
O356 O 0.10032 0.46155 0.72143 0.0
C357 C 0.14816 0.4474 0.76291 0.0
C358 C 0.06067 0.3986 0.79036 0.0
C359 C 0.07837 0.43147 0.72251 0.0
O360 O 0.11809 0.42456 0.76452 0.0
O361 O 0.15668 0.47556 0.75621 0.0
O362 O 0.04219 0.43971 0.76352 0.0
O363 O 0.09493 0.47198 0.76019 0.0
Co364 Co 0.6307 0.67625 0.76449 0.0
O365 O 0.62128 0.67388 0.78962 0.0
O366 O 0.6713 0.69685 0.77824 0.0
C367 C 0.59339 0.62345 0.75896 0.0
O368 O 0.64796 0.68166 0.73865 0.0
Co369 Co 0.57409 0.6642 0.73829 0.0
O370 O 0.60317 0.65928 0.72081 0.0
C371 C 0.60925 0.72637 0.75829 0.0
C372 C 0.6525 0.6889 0.79243 0.0
C373 C 0.63381 0.67104 0.72327 0.0
O374 O 0.63127 0.71931 0.76296 0.0
O375 O 0.58294 0.70635 0.74997 0.0
O376 O 0.6222 0.63101 0.76493 0.0
O377 O 0.58751 0.64737 0.75813 0.0
Co378 Co 0.63576 0.69809 0.5869 0.0
O379 O 0.62668 0.68977 0.56161 0.0
O380 O 0.65637 0.6744 0.57753 0.0
C381 C 0.64869 0.7511 0.58524 0.0
O382 O 0.65117 0.70336 0.61316 0.0
Co383 Co 0.59717 0.72103 0.61121 0.0
O384 O 0.63583 0.73589 0.62705 0.0
C385 C 0.56787 0.65074 0.60123 0.0
C386 C 0.64446 0.67587 0.56196 0.0
C387 C 0.65251 0.72142 0.62656 0.0
O388 O 0.59415 0.6559 0.59302 0.0
O389 O 0.56423 0.67352 0.6083 0.0
O390 O 0.6707 0.7431 0.58141 0.0
O391 O 0.61997 0.72707 0.58882 0.0
Co392 Co 0.35533 0.97721 0.589 0.0
O393 O 0.36217 0.97483 0.56366 0.0
O394 O 0.37975 0.02098 0.57883 0.0
C395 C 0.30177 0.93843 0.58835 0.0
O396 O 0.35191 0.98851 0.61542 0.0
Co397 Co 0.33272 0.9161 0.61363 0.0
O398 O 0.31953 0.94099 0.62969 0.0
C399 C 0.40271 0.95647 0.60322 0.0
C400 C 0.37723 0.00653 0.56346 0.0
C401 C 0.33464 0.97215 0.62915 0.0
O402 O 0.39724 0.977 0.59462 0.0
O403 O 0.38025 0.93051 0.6108 0.0
O404 O 0.3106 0.96846 0.5841 0.0
O405 O 0.32532 0.93273 0.59157 0.0
Co406 Co 0.09548 0.4197 0.58178 0.0
O407 O 0.09627 0.42167 0.55594 0.0
O408 O 0.0516 0.39274 0.57226 0.0
C409 C 0.13944 0.41284 0.58456 0.0
O410 O 0.08612 0.41116 0.60882 0.0
Co411 Co 0.1552 0.47274 0.60353 0.0
O412 O 0.1344 0.44038 0.62321 0.0
C413 C 0.11033 0.48969 0.58498 0.0
C414 C 0.06489 0.40198 0.5564 0.0
C415 C 0.10424 0.41837 0.623 0.0
O416 O 0.08914 0.45917 0.58277 0.0
O417 O 0.13912 0.49987 0.59126 0.0
O418 O 0.11085 0.38767 0.58115 0.0
O419 O 0.14061 0.4407 0.58454 0.0
Co420 Co 0.35238 0.4112 0.58165 0.0
O421 O 0.35499 0.4159 0.55592 0.0
O422 O 0.37438 0.38935 0.57158 0.0
C423 C 0.29924 0.39779 0.58332 0.0
O424 O 0.35343 0.40098 0.60842 0.0
Co425 Co 0.33537 0.45461 0.60575 0.0
O426 O 0.32478 0.41952 0.62364 0.0
C427 C 0.4031 0.48097 0.59179 0.0
C428 C 0.36966 0.39885 0.55595 0.0
C429 C 0.33926 0.40286 0.62287 0.0
O430 O 0.39552 0.45339 0.58434 0.0
O431 O 0.3824 0.48641 0.60004 0.0
O432 O 0.30674 0.37539 0.5796 0.0
O433 O 0.32363 0.42717 0.58473 0.0
Co434 Co 0.6314 0.95827 0.58332 0.0
O435 O 0.62644 0.95772 0.55758 0.0
O436 O 0.65923 0.00184 0.57339 0.0
C437 C 0.63563 0.91262 0.5844 0.0
O438 O 0.64311 0.96703 0.61031 0.0
Co439 Co 0.58012 0.89973 0.60646 0.0
O440 O 0.61605 0.91816 0.62431 0.0
C441 C 0.56524 0.95036 0.59346 0.0
C442 C 0.64775 0.9887 0.55769 0.0
C443 C 0.63782 0.94837 0.62416 0.0
O444 O 0.59398 0.96741 0.58651 0.0
O445 O 0.555 0.92251 0.60103 0.0
O446 O 0.6613 0.94065 0.5807 0.0
O447 O 0.6086 0.91298 0.58586 0.0
Co448 Co 0.10358 0.71247 0.57938 0.0
O449 O 0.11141 0.715 0.55388 0.0
O450 O 0.06231 0.69417 0.56598 0.0
C451 C 0.14384 0.76412 0.58534 0.0
O452 O 0.0878 0.70783 0.60581 0.0
Co453 Co 0.16028 0.72046 0.60474 0.0
O454 O 0.13328 0.72658 0.62303 0.0
C455 C 0.12381 0.66127 0.58259 0.0
C456 C 0.08015 0.70145 0.55144 0.0
C457 C 0.10303 0.71743 0.62109 0.0
O458 O 0.1009 0.66813 0.57987 0.0
O459 O 0.15081 0.68071 0.59046 0.0
O460 O 0.11556 0.75908 0.57974 0.0
O461 O 0.14727 0.73872 0.58544 0.0
Co462 Co 0.0915 0.68992 0.7611 0.0
O463 O 0.09933 0.69042 0.78647 0.0
O464 O 0.07767 0.7175 0.77379 0.0
C465 C 0.06821 0.63498 0.75856 0.0
O466 O 0.07944 0.69309 0.73463 0.0
Co467 Co 0.12638 0.66374 0.73587 0.0
O468 O 0.09297 0.66077 0.71866 0.0
C469 C 0.1643 0.72919 0.7527 0.0
C470 C 0.08698 0.70928 0.78849 0.0
C471 C 0.07873 0.67762 0.72004 0.0
O472 O 0.13766 0.72825 0.75777 0.0
O473 O 0.1647 0.70488 0.74523 0.0
O474 O 0.05062 0.64764 0.76374 0.0
O475 O 0.09896 0.65545 0.75659 0.0
Co476 Co 0.36665 0.43557 0.765 0.0
O477 O 0.37322 0.44604 0.79021 0.0
O478 O 0.34605 0.39572 0.77923 0.0
C479 C 0.41865 0.47086 0.7567 0.0
O480 O 0.35593 0.41605 0.73956 0.0
Co481 Co 0.37769 0.49029 0.7374 0.0
O482 O 0.37719 0.4582 0.71993 0.0
C483 C 0.32062 0.46213 0.76177 0.0
C484 C 0.35653 0.41482 0.79327 0.0
C485 C 0.36417 0.42777 0.72349 0.0
O486 O 0.3252 0.43813 0.76568 0.0
O487 O 0.34062 0.48681 0.75231 0.0
O488 O 0.41134 0.44228 0.76306 0.0
O489 O 0.39543 0.47765 0.75711 0.0
Co490 Co 0.62123 0.95824 0.76649 0.0
O491 O 0.61974 0.95691 0.79257 0.0
O492 O 0.66516 0.97927 0.77646 0.0
C493 C 0.58322 0.97378 0.7627 0.0
O494 O 0.63265 0.96586 0.73946 0.0
Co495 Co 0.55917 0.9125 0.74367 0.0
O496 O 0.58552 0.94131 0.72363 0.0
C497 C 0.59377 0.88515 0.7639 0.0
C498 C 0.65151 0.9724 0.7923 0.0
C499 C 0.61637 0.96025 0.72463 0.0
O500 O 0.61894 0.91396 0.76603 0.0
O501 O 0.56672 0.88025 0.75714 0.0
O502 O 0.61325 0.99572 0.76655 0.0
O503 O 0.57708 0.94398 0.76292 0.0
H504 H 0.11668 0.29911 0.07329 0.0
H505 H 0.14594 0.37508 0.11311 0.0
H506 H 0.20154 0.38285 0.11335 0.0
H507 H 0.23832 0.36057 0.10598 0.0
H508 H 0.2056 0.28192 0.06739 0.0
H509 H 0.15518 0.28293 0.0627 0.0
C510 C 0.13544 0.31792 0.08171 0.0
C511 C 0.12728 0.33616 0.09334 0.0
C512 C 0.16669 0.32143 0.08213 0.0
C513 C 0.15181 0.36077 0.10402 0.0
C514 C 0.18345 0.36493 0.10428 0.0
C515 C 0.22047 0.34434 0.09622 0.0
C516 C 0.22546 0.32089 0.08722 0.0
C517 C 0.19074 0.34433 0.09398 0.0
C518 C 0.20217 0.29988 0.07465 0.0
C519 C 0.17325 0.30039 0.07196 0.0
H520 H 0.69708 0.90124 0.10685 0.0
H521 H 0.78088 0.94969 0.07169 0.0
H522 H 0.78052 0.89871 0.06689 0.0
H523 H 0.76187 0.84286 0.0758 0.0
H524 H 0.68059 0.79302 0.11229 0.0
H525 H 0.67395 0.84158 0.11322 0.0
C526 C 0.71471 0.90031 0.09785 0.0
C527 C 0.73919 0.92932 0.08978 0.0
C528 C 0.71503 0.87073 0.09555 0.0
C529 C 0.76203 0.92791 0.07822 0.0
C530 C 0.76188 0.8987 0.07546 0.0
C531 C 0.74233 0.84234 0.08375 0.0
C532 C 0.72208 0.81468 0.09416 0.0
C533 C 0.73935 0.87035 0.08456 0.0
C534 C 0.69652 0.81415 0.10416 0.0
C535 C 0.69294 0.842 0.1048 0.0
H536 H 0.15426 0.82276 0.10891 0.0
H537 H 0.11994 0.84884 0.06131 0.0
H538 H 0.17313 0.89683 0.05697 0.0
H539 H 0.22499 0.93691 0.06994 0.0
H540 H 0.26029 0.91495 0.11837 0.0
H541 H 0.21177 0.85982 0.11908 0.0
C542 C 0.15892 0.83843 0.0973 0.0
C543 C 0.13306 0.83239 0.08555 0.0
C544 C 0.18966 0.86709 0.09522 0.0
C545 C 0.13921 0.85298 0.07063 0.0
C546 C 0.16971 0.88062 0.06815 0.0
C547 C 0.2226 0.91966 0.0803 0.0
C548 C 0.24581 0.92981 0.09412 0.0
C549 C 0.19446 0.88876 0.08085 0.0
C550 C 0.24264 0.90739 0.10751 0.0
C551 C 0.21473 0.87606 0.10802 0.0
H552 H 0.36876 0.16425 0.9061 0.0
H553 H 0.30753 0.12471 0.95303 0.0
H554 H 0.30969 0.17655 0.95833 0.0
H555 H 0.31798 0.22769 0.94569 0.0
H556 H 0.37621 0.26752 0.89787 0.0
H557 H 0.38683 0.22157 0.89691 0.0
C558 C 0.35712 0.16759 0.91787 0.0
C559 C 0.3378 0.14073 0.9291 0.0
C560 C 0.35732 0.19732 0.92041 0.0
C561 C 0.3224 0.145 0.94418 0.0
C562 C 0.32342 0.17461 0.94716 0.0
C563 C 0.3339 0.22684 0.93542 0.0
C564 C 0.34592 0.25043 0.92175 0.0
C565 C 0.3391 0.20015 0.93476 0.0
C566 C 0.36674 0.24945 0.90855 0.0
C567 C 0.3725 0.22303 0.90791 0.0
H568 H 0.94697 0.19959 0.93351 0.0
H569 H 0.90803 0.25433 0.90727 0.0
H570 H 0.85381 0.20449 0.9056 0.0
H571 H 0.81934 0.14347 0.90886 0.0
H572 H 0.86321 0.0912 0.93316 0.0
H573 H 0.91331 0.14178 0.93834 0.0
C574 C 0.92661 0.20087 0.92759 0.0
C575 C 0.93155 0.23044 0.92035 0.0
C576 C 0.89629 0.17229 0.92619 0.0
C577 C 0.90477 0.23174 0.91296 0.0
C578 C 0.87388 0.20319 0.91188 0.0
C579 C 0.8398 0.14335 0.91545 0.0
C580 C 0.83727 0.11335 0.92059 0.0
C581 C 0.86959 0.173 0.91799 0.0
C582 C 0.86409 0.1136 0.92905 0.0
C583 C 0.89302 0.14267 0.93204 0.0
H584 H 0.85351 0.75831 0.94306 0.0
H585 H 0.80467 0.67478 0.90791 0.0
H586 H 0.85471 0.67121 0.90589 0.0
H587 H 0.91502 0.69832 0.91 0.0
H588 H 0.96274 0.78345 0.94429 0.0
H589 H 0.91064 0.7796 0.95098 0.0
C590 C 0.85363 0.73887 0.93529 0.0
C591 C 0.82584 0.71725 0.92541 0.0
C592 C 0.88251 0.7375 0.93387 0.0
C593 C 0.82597 0.69182 0.9156 0.0
C594 C 0.85465 0.68995 0.91432 0.0
C595 C 0.91376 0.71541 0.91929 0.0
C596 C 0.94276 0.74147 0.92636 0.0
C597 C 0.88351 0.71361 0.92276 0.0
C598 C 0.9409 0.76349 0.9384 0.0
C599 C 0.91105 0.76136 0.94226 0.0
H600 H 0.78778 0.64163 0.40784 0.0
H601 H 0.81238 0.70662 0.45318 0.0
H602 H 0.86898 0.71705 0.45239 0.0
H603 H 0.908 0.69921 0.44191 0.0
H604 H 0.88003 0.63191 0.39726 0.0
H605 H 0.82857 0.63139 0.39436 0.0
C606 C 0.80573 0.65878 0.41724 0.0
C607 C 0.79603 0.67306 0.43064 0.0
C608 C 0.83761 0.66395 0.41689 0.0
C609 C 0.81949 0.69544 0.44269 0.0
C610 C 0.8517 0.70111 0.44233 0.0
C611 C 0.89099 0.6853 0.43124 0.0
C612 C 0.89759 0.66526 0.41997 0.0
C613 C 0.86064 0.68431 0.42996 0.0
C614 C 0.87538 0.64718 0.40624 0.0
C615 C 0.84583 0.64679 0.40458 0.0
H616 H 0.36324 0.24054 0.4407 0.0
H617 H 0.4355 0.28234 0.3985 0.0
H618 H 0.43498 0.23099 0.39485 0.0
H619 H 0.42237 0.17864 0.40741 0.0
H620 H 0.35328 0.13613 0.45087 0.0
H621 H 0.34361 0.18282 0.45018 0.0
C622 C 0.37799 0.23789 0.43036 0.0
C623 C 0.39956 0.26522 0.41996 0.0
C624 C 0.37855 0.20834 0.4288 0.0
C625 C 0.41887 0.26177 0.40672 0.0
C626 C 0.4187 0.2324 0.40467 0.0
C627 C 0.40455 0.17914 0.41642 0.0
C628 C 0.38889 0.1544 0.4293 0.0
C629 C 0.39993 0.20619 0.41622 0.0
C630 C 0.36557 0.15504 0.4408 0.0
C631 C 0.36033 0.18187 0.44051 0.0
H632 H 0.90528 0.24182 0.43772 0.0
H633 H 0.86576 0.29185 0.40694 0.0
H634 H 0.81494 0.24098 0.40263 0.0
H635 H 0.77916 0.18448 0.41083 0.0
H636 H 0.81502 0.13281 0.44284 0.0
H637 H 0.86991 0.18175 0.44322 0.0
C638 C 0.88571 0.2413 0.42979 0.0
C639 C 0.88919 0.27068 0.42284 0.0
C640 C 0.85578 0.21174 0.42774 0.0
C641 C 0.86368 0.26977 0.41262 0.0
C642 C 0.83449 0.24062 0.41013 0.0
C643 C 0.79904 0.18367 0.41768 0.0
C644 C 0.79304 0.15537 0.42702 0.0
C645 C 0.82989 0.21181 0.41816 0.0
C646 C 0.81915 0.15448 0.43558 0.0
C647 C 0.85041 0.18251 0.4359 0.0
H648 H 0.01798 0.48399 0.23931 0.0
H649 H 0.94115 0.44259 0.27913 0.0
H650 H 0.94588 0.49569 0.28402 0.0
H651 H 0.96464 0.55094 0.27335 0.0
H652 H 0.03907 0.59329 0.23241 0.0
H653 H 0.04315 0.54332 0.23181 0.0
C654 C 0.00303 0.48695 0.2494 0.0
C655 C 0.97896 0.45935 0.25869 0.0
C656 C 0.00515 0.51767 0.25175 0.0
C657 C 0.95956 0.46334 0.27165 0.0
C658 C 0.96219 0.49374 0.27445 0.0
C659 C 0.9823 0.54953 0.26458 0.0
C660 C 0.00115 0.5754 0.25276 0.0
C661 C 0.98377 0.52062 0.264 0.0
C662 C 0.02429 0.57357 0.24165 0.0
C663 C 0.02636 0.54487 0.24118 0.0
H664 H 0.60249 0.55379 0.27896 0.0
H665 H 0.58447 0.59835 0.23311 0.0
H666 H 0.52859 0.55149 0.2306 0.0
H667 H 0.4899 0.49285 0.23785 0.0
H668 H 0.51186 0.4489 0.28267 0.0
H669 H 0.5605 0.5005 0.28956 0.0
C670 C 0.58593 0.5537 0.26879 0.0
C671 C 0.59743 0.57903 0.25612 0.0
C672 C 0.55455 0.52648 0.26718 0.0
C673 C 0.5759 0.57898 0.24304 0.0
C674 C 0.54413 0.55203 0.2415 0.0
C675 C 0.50477 0.49507 0.24949 0.0
C676 C 0.49746 0.46708 0.25968 0.0
C677 C 0.5338 0.52484 0.25295 0.0
C678 C 0.51701 0.46998 0.27459 0.0
C679 C 0.54502 0.49952 0.2785 0.0
H680 H 0.48035 0.0278 0.24363 0.0
H681 H 0.51924 0.11257 0.27827 0.0
H682 H 0.56934 0.11086 0.28229 0.0
H683 H 0.60519 0.091 0.27248 0.0
H684 H 0.56966 0.00784 0.23705 0.0
H685 H 0.51509 0.00273 0.23698 0.0
C686 C 0.49953 0.04529 0.25239 0.0
C687 C 0.49626 0.07055 0.26045 0.0
C688 C 0.52905 0.04472 0.25429 0.0
C689 C 0.52127 0.09318 0.27172 0.0
C690 C 0.55004 0.09227 0.27403 0.0
C691 C 0.5854 0.07137 0.26499 0.0
C692 C 0.59144 0.05016 0.25458 0.0
C693 C 0.55468 0.06906 0.26481 0.0
C694 C 0.56547 0.02449 0.24516 0.0
C695 C 0.53439 0.02176 0.24502 0.0
H696 H 0.45 0.96318 0.74292 0.0
H697 H 0.48156 0.0405 0.78209 0.0
H698 H 0.53596 0.04541 0.78315 0.0
H699 H 0.57138 0.02125 0.7761 0.0
H700 H 0.53619 0.94197 0.73779 0.0
H701 H 0.48694 0.94469 0.73299 0.0
C702 C 0.46895 0.98153 0.75146 0.0
C703 C 0.46175 0.00105 0.76261 0.0
C704 C 0.49961 0.98369 0.75222 0.0
C705 C 0.48663 0.02511 0.7734 0.0
C706 C 0.51762 0.02773 0.7741 0.0
C707 C 0.55326 0.00525 0.76639 0.0
C708 C 0.55739 0.98121 0.75746 0.0
C709 C 0.52402 0.00624 0.76404 0.0
C710 C 0.53364 0.96046 0.74499 0.0
C711 C 0.50527 0.96191 0.74223 0.0
H712 H 0.02313 0.4871 0.7719 0.0
H713 H 0.10092 0.51251 0.73354 0.0
H714 H 0.10408 0.56444 0.72762 0.0
H715 H 0.09172 0.60627 0.73692 0.0
H716 H 0.01659 0.58455 0.77635 0.0
H717 H 0.00493 0.52764 0.7781 0.0
C718 C 0.04005 0.50371 0.76191 0.0
C719 C 0.062 0.49609 0.7533 0.0
C720 C 0.04257 0.53447 0.75897 0.0
C721 C 0.084 0.51782 0.74047 0.0
C722 C 0.08591 0.54769 0.73709 0.0
C723 C 0.07233 0.58891 0.74563 0.0
C724 C 0.05542 0.59953 0.7567 0.0
C725 C 0.06642 0.55683 0.74683 0.0
C726 C 0.02998 0.57679 0.76772 0.0
C727 C 0.02352 0.54436 0.76882 0.0
H728 H 0.47782 0.47992 0.76788 0.0
H729 H 0.4329 0.51797 0.73195 0.0
H730 H 0.4853 0.5673 0.7272 0.0
H731 H 0.54114 0.60348 0.73739 0.0
H732 H 0.58702 0.56757 0.77393 0.0
H733 H 0.53741 0.51349 0.77411 0.0
C734 C 0.47984 0.49862 0.75861 0.0
C735 C 0.45152 0.49565 0.75054 0.0
C736 C 0.51012 0.52756 0.75628 0.0
C737 C 0.45429 0.51997 0.73855 0.0
C738 C 0.48425 0.54827 0.73585 0.0
C739 C 0.54049 0.58359 0.74509 0.0
C740 C 0.56724 0.58948 0.75588 0.0
C741 C 0.5119 0.55297 0.74532 0.0
C742 C 0.56649 0.56351 0.76557 0.0
C743 C 0.53807 0.53269 0.76577 0.0
H744 H 0.60829 0.77043 0.59837 0.0
H745 H 0.70306 0.80802 0.57355 0.0
H746 H 0.70901 0.86294 0.57224 0.0
H747 H 0.68453 0.89896 0.5762 0.0
H748 H 0.58832 0.85765 0.60006 0.0
H749 H 0.58591 0.80557 0.60383 0.0
C750 C 0.63048 0.79057 0.5928 0.0
C751 C 0.65506 0.78512 0.58593 0.0
C752 C 0.63339 0.82147 0.59187 0.0
C753 C 0.68372 0.81165 0.5789 0.0
C754 C 0.68704 0.84296 0.57809 0.0
C755 C 0.66328 0.8786 0.58239 0.0
C756 C 0.63659 0.88224 0.58776 0.0
C757 C 0.66165 0.84802 0.58423 0.0
C758 C 0.60916 0.85565 0.59572 0.0
C759 C 0.60767 0.82571 0.59789 0.0
H760 H 0.15724 0.8251 0.5743 0.0
H761 H 0.19176 0.77508 0.60888 0.0
H762 H 0.24192 0.82601 0.61468 0.0
H763 H 0.27889 0.88256 0.60694 0.0
H764 H 0.24775 0.93422 0.57154 0.0
H765 H 0.19325 0.88512 0.56919 0.0
C766 C 0.1755 0.82565 0.58339 0.0
C767 C 0.17095 0.79629 0.59099 0.0
C768 C 0.20505 0.85519 0.58633 0.0
C769 C 0.19478 0.79719 0.6027 0.0
C770 C 0.22357 0.82635 0.60602 0.0
C771 C 0.26011 0.88334 0.5989 0.0
C772 C 0.2674 0.91171 0.58922 0.0
C773 C 0.22942 0.85515 0.59741 0.0
C774 C 0.24264 0.9125 0.57908 0.0
C775 C 0.2116 0.88439 0.57766 0.0
H776 H 0.28074 0.43755 0.59849 0.0
H777 H 0.24177 0.34361 0.57251 0.0
H778 H 0.18701 0.33794 0.57217 0.0
H779 H 0.15178 0.36309 0.5765 0.0
H780 H 0.19389 0.45837 0.60152 0.0
H781 H 0.24567 0.45992 0.60514 0.0
C782 C 0.26026 0.4156 0.59292 0.0
C783 C 0.26533 0.39124 0.58534 0.0
C784 C 0.22936 0.41287 0.59251 0.0
C785 C 0.23843 0.36277 0.5784 0.0
C786 C 0.2072 0.35963 0.57811 0.0
C787 C 0.17219 0.38387 0.58299 0.0
C788 C 0.16901 0.41072 0.58856 0.0
C789 C 0.20255 0.385 0.58471 0.0
C790 C 0.19565 0.43753 0.59693 0.0
C791 C 0.22539 0.43849 0.59902 0.0
H792 H 0.98592 0.341 0.13703 0.0
H793 H 0.0363 0.29509 0.16105 0.0
H794 H 0.02239 0.30525 0.19101 0.0
H795 H 0.99672 0.32797 0.21065 0.0
H796 H 0.94687 0.37456 0.18686 0.0
H797 H 0.95968 0.36333 0.15679 0.0
C798 C 0.99374 0.33314 0.14882 0.0
C799 C 0.01215 0.31734 0.14673 0.0
C800 C 0.98579 0.33923 0.16616 0.0
C801 C 0.02214 0.30737 0.1622 0.0
C802 C 0.0142 0.31316 0.1794 0.0
C803 C 0.98858 0.33558 0.19889 0.0
C804 C 0.97089 0.35209 0.20106 0.0
C805 C 0.99617 0.3292 0.18157 0.0
C806 C 0.96058 0.36182 0.18563 0.0
C807 C 0.96789 0.35542 0.16838 0.0
H808 H 0.75993 0.75235 0.15839 0.0
H809 H 0.70799 0.65983 0.13048 0.0
H810 H 0.69468 0.63076 0.15921 0.0
H811 H 0.69588 0.63166 0.19215 0.0
H812 H 0.74742 0.72392 0.2203 0.0
H813 H 0.76304 0.7531 0.1915 0.0
C814 C 0.74583 0.72581 0.15858 0.0
C815 C 0.73482 0.70829 0.1423 0.0
C816 C 0.73818 0.70924 0.17516 0.0
C817 C 0.71671 0.67392 0.1428 0.0
C818 C 0.70906 0.65727 0.15922 0.0
C819 C 0.71069 0.65816 0.19203 0.0
C820 C 0.72035 0.67562 0.20836 0.0
C821 C 0.71938 0.6747 0.17547 0.0
C822 C 0.73966 0.70991 0.20792 0.0
C823 C 0.74851 0.72659 0.19146 0.0
H824 H 0.30318 0.02508 0.15913 0.0
H825 H 0.39359 0.07936 0.1296 0.0
H826 H 0.42435 0.09493 0.15787 0.0
H827 H 0.42557 0.09218 0.1909 0.0
H828 H 0.33503 0.03801 0.22036 0.0
H829 H 0.30429 0.02324 0.19212 0.0
C830 C 0.32962 0.04044 0.15885 0.0
C831 C 0.34608 0.05102 0.14225 0.0
C832 C 0.34711 0.04916 0.17513 0.0
C833 C 0.38032 0.07092 0.14217 0.0
C834 C 0.39792 0.07975 0.15833 0.0
C835 C 0.3991 0.07711 0.19116 0.0
C836 C 0.38262 0.06609 0.20774 0.0
C837 C 0.38158 0.06883 0.17488 0.0
C838 C 0.34832 0.04676 0.20781 0.0
C839 C 0.33073 0.03832 0.19166 0.0
H840 H 0.33511 0.99875 0.87711 0.0
H841 H 0.30643 0.06582 0.85571 0.0
H842 H 0.31508 0.05295 0.8251 0.0
H843 H 0.33205 0.02345 0.80422 0.0
H844 H 0.3608 0.95654 0.82583 0.0
H845 H 0.35066 0.96832 0.8563 0.0
C846 C 0.33077 0.01054 0.86575 0.0
C847 C 0.32028 0.0333 0.86874 0.0
C848 C 0.33571 0.00298 0.84811 0.0
C849 C 0.31459 0.04823 0.85383 0.0
C850 C 0.3195 0.04088 0.83628 0.0
C851 C 0.33581 0.01127 0.81559 0.0
C852 C 0.34723 0.98921 0.81269 0.0
C853 C 0.33016 0.01835 0.83322 0.0
C854 C 0.35211 0.97372 0.82762 0.0
C855 C 0.34637 0.98047 0.84511 0.0
H856 H 0.07712 0.42353 0.82422 0.0
H857 H 0.02571 0.33222 0.79516 0.0
H858 H 0.01366 0.30189 0.82348 0.0
H859 H 0.01801 0.30129 0.8564 0.0
H860 H 0.06912 0.3925 0.88555 0.0
H861 H 0.08116 0.42292 0.85723 0.0
C862 C 0.06318 0.39698 0.82406 0.0
C863 C 0.05229 0.38017 0.80756 0.0
C864 C 0.05643 0.37971 0.8404 0.0
C865 C 0.03432 0.34578 0.80764 0.0
C866 C 0.02749 0.32842 0.82384 0.0
C867 C 0.03189 0.32784 0.85659 0.0
C868 C 0.04274 0.3446 0.8731 0.0
C869 C 0.03851 0.34513 0.84028 0.0
C870 C 0.06053 0.37899 0.87306 0.0
C871 C 0.06737 0.39639 0.85686 0.0
H872 H 0.71606 0.71738 0.80397 0.0
H873 H 0.61652 0.67536 0.82296 0.0
H874 H 0.63534 0.68441 0.85398 0.0
H875 H 0.67989 0.70373 0.876 0.0
H876 H 0.77956 0.74609 0.85728 0.0
H877 H 0.7609 0.73741 0.82612 0.0
C878 C 0.69857 0.71033 0.81491 0.0
C879 C 0.665 0.6957 0.8111 0.0
C880 C 0.70952 0.71555 0.83287 0.0
C881 C 0.64258 0.68665 0.82545 0.0
C882 C 0.65326 0.69177 0.84326 0.0
C883 C 0.69749 0.71101 0.8651 0.0
C884 C 0.73098 0.72544 0.86898 0.0
C885 C 0.68665 0.70608 0.84715 0.0
C886 C 0.75354 0.73489 0.85469 0.0
C887 C 0.74294 0.72996 0.83682 0.0
H888 H 0.07648 0.72983 0.87186 0.0
H889 H 0.0143 0.76612 0.85243 0.0
H890 H 0.02491 0.75718 0.82139 0.0
H891 H 0.05102 0.73771 0.79945 0.0
H892 H 0.11335 0.70179 0.81927 0.0
H893 H 0.10378 0.71216 0.8501 0.0
C894 C 0.06524 0.73575 0.86084 0.0
C895 C 0.04452 0.74848 0.86455 0.0
C896 C 0.07159 0.73073 0.84292 0.0
C897 C 0.03034 0.75622 0.85004 0.0
C898 C 0.03641 0.75115 0.83221 0.0
C899 C 0.06275 0.73251 0.81051 0.0
C900 C 0.0828 0.71891 0.80695 0.0
C901 C 0.05695 0.73833 0.82844 0.0
C902 C 0.09766 0.71215 0.82152 0.0
C903 C 0.09218 0.71801 0.83925 0.0
H904 H 0.31885 0.35154 0.80438 0.0
H905 H 0.37818 0.45014 0.82428 0.0
H906 H 0.36674 0.43026 0.85521 0.0
H907 H 0.34099 0.38455 0.87683 0.0
H908 H 0.28229 0.28597 0.85677 0.0
H909 H 0.29206 0.30614 0.82591 0.0
C910 C 0.32927 0.36865 0.81548 0.0
C911 C 0.34943 0.40222 0.81198 0.0
C912 C 0.32258 0.35708 0.83331 0.0
C913 C 0.36262 0.42411 0.82655 0.0
C914 C 0.35606 0.41279 0.8443 0.0
C915 C 0.33007 0.36758 0.8657 0.0
C916 C 0.31099 0.33385 0.86912 0.0
C917 C 0.33615 0.3793 0.84787 0.0
C918 C 0.29719 0.3121 0.85454 0.0
C919 C 0.3028 0.32358 0.83684 0.0
H920 H 0.75364 0.01957 0.85645 0.0
H921 H 0.6653 0.98454 0.88778 0.0
H922 H 0.63267 0.96868 0.86012 0.0
H923 H 0.62925 0.9649 0.82694 0.0
H924 H 0.71792 0.00095 0.79577 0.0
H925 H 0.7503 0.01625 0.82343 0.0
C926 C 0.72723 0.0084 0.85727 0.0
C927 C 0.71198 0.00319 0.87424 0.0
C928 C 0.70865 -0.00046 0.8413 0.0
C929 C 0.67772 0.98883 0.87496 0.0
C930 C 0.65904 0.97975 0.85912 0.0
C931 C 0.65566 0.97608 0.82618 0.0
C932 C 0.67107 0.98169 0.80922 0.0
C933 C 0.67423 0.985 0.8422 0.0
C934 C 0.70536 0.99632 0.80857 0.0
C935 C 0.72392 0.00507 0.82441 0.0
H936 H 0.75175 0.01625 0.15884 0.0
H937 H 0.70301 0.05797 0.12879 0.0
H938 H 0.68617 0.07224 0.1569 0.0
H939 H 0.68516 0.07282 0.18991 0.0
H940 H 0.7335 0.03095 0.22016 0.0
H941 H 0.75066 0.01679 0.19203 0.0
C942 C 0.73744 0.02848 0.15842 0.0
C943 C 0.72866 0.03603 0.14168 0.0
C944 C 0.72779 0.03658 0.17467 0.0
C945 C 0.7101 0.05185 0.14144 0.0
C946 C 0.70046 0.06003 0.15752 0.0
C947 C 0.69948 0.06061 0.1904 0.0
C948 C 0.70805 0.05298 0.20717 0.0
C949 C 0.70916 0.05251 0.1742 0.0
C950 C 0.72657 0.03712 0.20748 0.0
C951 C 0.73638 0.02902 0.19138 0.0
H952 H 0.99465 0.68924 0.13345 0.0
H953 H 0.04108 0.78835 0.15349 0.0
H954 H 0.03034 0.76821 0.18439 0.0
H955 H 0.00916 0.72234 0.20606 0.0
H956 H 0.96274 0.6233 0.18587 0.0
H957 H 0.972 0.64345 0.15503 0.0
C958 C 0.00222 0.70641 0.14457 0.0
C959 C 0.01871 0.74026 0.14106 0.0
C960 C 0.99608 0.69467 0.16244 0.0
C961 C 0.02837 0.76213 0.15571 0.0
C962 C 0.02228 0.75065 0.17346 0.0
C963 C 0.00097 0.7052 0.19491 0.0
C964 C 0.98536 0.67135 0.19839 0.0
C965 C 0.00639 0.71696 0.17703 0.0
C966 C 0.97488 0.64951 0.1837 0.0
C967 C 0.98016 0.66099 0.16598 0.0
H968 H 0.37936 0.3497 0.13512 0.0
H969 H 0.28272 0.29251 0.15794 0.0
H970 H 0.30574 0.30454 0.18821 0.0
H971 H 0.35334 0.33151 0.20842 0.0
H972 H 0.44997 0.38888 0.18564 0.0
H973 H 0.42699 0.37662 0.15535 0.0
C974 C 0.36337 0.33984 0.14672 0.0
C975 C 0.32938 0.32024 0.14421 0.0
C976 C 0.37676 0.34692 0.16419 0.0
C977 C 0.309 0.3077 0.15942 0.0
C978 C 0.32212 0.31456 0.17679 0.0
C979 C 0.36935 0.34132 0.19683 0.0
C980 C 0.40331 0.36109 0.19935 0.0
C981 C 0.35597 0.33419 0.17936 0.0
C982 C 0.42371 0.37359 0.18414 0.0
C983 C 0.4106 0.36659 0.16677 0.0
H984 H 0.62485 0.67942 0.52813 0.0
H985 H 0.68232 0.64723 0.5579 0.0
H986 H 0.69881 0.63268 0.52972 0.0
H987 H 0.69892 0.63156 0.49662 0.0
H988 H 0.64221 0.6648 0.46694 0.0
H989 H 0.62337 0.67647 0.49516 0.0
C990 C 0.64079 0.66897 0.5285 0.0
C991 C 0.6524 0.66449 0.54512 0.0
C992 C 0.65044 0.66104 0.51226 0.0
C993 C 0.67303 0.65094 0.54531 0.0
C994 C 0.68254 0.6427 0.5292 0.0
C995 C 0.6823 0.64121 0.49631 0.0
C996 C 0.67209 0.64743 0.47967 0.0
C997 C 0.67172 0.64804 0.51259 0.0
C998 C 0.65051 0.65986 0.47953 0.0
C999 C 0.63974 0.66655 0.49567 0.0
H1000 H 0.42735 0.10102 0.49609 0.0
H1001 H 0.39304 0.00887 0.46857 0.0
H1002 H 0.37886 0.98014 0.49746 0.0
H1003 H 0.3741 0.98094 0.53032 0.0
H1004 H 0.40748 0.07285 0.55791 0.0
H1005 H 0.42432 0.102 0.52914 0.0
C1006 C 0.41695 0.07465 0.49639 0.0
C1007 C 0.41116 0.05709 0.48015 0.0
C1008 C 0.40863 0.05828 0.51305 0.0
C1009 C 0.3977 0.02297 0.48083 0.0
C1010 C 0.38955 0.00653 0.49736 0.0
C1011 C 0.38523 0.00739 0.5301 0.0
C1012 C 0.38942 0.02469 0.54628 0.0
C1013 C 0.39458 0.0239 0.51352 0.0
C1014 C 0.40395 0.05894 0.54568 0.0
C1015 C 0.41352 0.0756 0.52922 0.0
H1016 H 0.96513 0.35191 0.49132 0.0
H1017 H 0.05553 0.39933 0.46123 0.0
H1018 H 0.08674 0.41385 0.4893 0.0
H1019 H 0.08836 0.41403 0.52228 0.0
H1020 H 0.99818 0.36625 0.55253 0.0
H1021 H 0.96681 0.35078 0.52443 0.0
C1022 C 0.99167 0.36539 0.49089 0.0
C1023 C 0.00798 0.37464 0.47418 0.0
C1024 C 0.00946 0.37358 0.50709 0.0
C1025 C 0.04237 0.39193 0.47388 0.0
C1026 C 0.06023 0.40027 0.48994 0.0
C1027 C 0.06183 0.40017 0.52277 0.0
C1028 C 0.04562 0.39142 0.53951 0.0
C1029 C 0.04403 0.39137 0.5066 0.0
C1030 C 0.01125 0.37331 0.53985 0.0
C1031 C 0.99332 0.36451 0.52378 0.0
H1032 H 0.35983 0.414 0.5222 0.0
H1033 H 0.40205 0.36464 0.55119 0.0
H1034 H 0.41771 0.35019 0.52269 0.0
H1035 H 0.41894 0.35126 0.48956 0.0
H1036 H 0.37623 0.40034 0.46074 0.0
H1037 H 0.36118 0.41521 0.48924 0.0
C1038 C 0.37253 0.40013 0.52233 0.0
C1039 C 0.37978 0.39042 0.53882 0.0
C1040 C 0.3813 0.39182 0.50593 0.0
C1041 C 0.39618 0.37241 0.5387 0.0
C1042 C 0.40512 0.36414 0.5224 0.0
C1043 C 0.40635 0.36524 0.4895 0.0
C1044 C 0.3987 0.37467 0.47303 0.0
C1045 C 0.39772 0.37365 0.50594 0.0
C1046 C 0.38238 0.39275 0.47321 0.0
C1047 C 0.37378 0.40127 0.4895 0.0
H1048 H 0.63159 0.96459 0.52372 0.0
H1049 H 0.68762 0.0549 0.55312 0.0
H1050 H 0.70448 0.08535 0.52473 0.0
H1051 H 0.70325 0.08623 0.49162 0.0
H1052 H 0.64806 0.99574 0.46226 0.0
H1053 H 0.6309 0.96539 0.49065 0.0
C1054 C 0.64747 0.99097 0.52396 0.0
C1055 C 0.65826 0.00746 0.54058 0.0
C1056 C 0.6572 0.00823 0.5076 0.0
C1057 C 0.67896 0.04159 0.54057 0.0
C1058 C 0.68858 0.059 0.52433 0.0
C1059 C 0.68741 0.05985 0.4914 0.0
C1060 C 0.67688 0.04328 0.47479 0.0
C1061 C 0.67783 0.04257 0.50777 0.0
C1062 C 0.65653 0.0091 0.47481 0.0
C1063 C 0.6467 0.99175 0.49105 0.0
H1064 H 0.04875 0.68707 0.46785 0.0
H1065 H 0.94998 0.62965 0.48778 0.0
H1066 H 0.96999 0.64008 0.51871 0.0
H1067 H 0.01578 0.66583 0.54048 0.0
H1068 H 0.11449 0.72263 0.52027 0.0
H1069 H 0.09434 0.71225 0.48946 0.0
C1070 C 0.03162 0.67676 0.47895 0.0
C1071 C 0.99791 0.65759 0.47539 0.0
C1072 C 0.04329 0.68285 0.49684 0.0
C1073 C 0.9761 0.64448 0.49003 0.0
C1074 C 0.98751 0.65047 0.5078 0.0
C1075 C 0.03282 0.67599 0.52933 0.0
C1076 C 0.06661 0.69502 0.53281 0.0
C1077 C 0.02108 0.66972 0.51142 0.0
C1078 C 0.08833 0.70783 0.51812 0.0
C1079 C 0.07686 0.70192 0.5004 0.0
H1080 H 0.07817 0.34374 0.03145 0.0
H1081 H 0.97868 0.28607 0.05002 0.0
H1082 H 0.9587 0.28043 0.01908 0.0
H1083 H 0.97089 0.28196 0.98658 0.0
H1084 H 0.07025 0.3413 0.96806 0.0
H1085 H 0.08897 0.35696 0.99908 0.0
C1086 C 0.05206 0.33117 0.02875 0.0
C1087 C 0.02989 0.31516 0.04292 0.0
C1088 C 0.04082 0.32788 0.0109 0.0
C1089 C 0.99615 0.29882 0.03934 0.0
C1090 C 0.98476 0.29523 0.02161 0.0
C1091 C 0.99643 0.29934 0.98933 0.0
C1092 C 0.01924 0.3102 0.97512 0.0
C1093 C 0.007 0.30817 0.00723 0.0
C1094 C 0.05224 0.33275 0.97877 0.0
C1095 C 0.063 0.34141 0.99654 0.0
H1096 H 0.75321 0.69409 0.9859 0.0
H1097 H 0.7101 0.74922 0.96506 0.0
H1098 H 0.69497 0.75627 0.99552 0.0
H1099 H 0.70676 0.75825 0.02807 0.0
H1100 H 0.74885 0.70208 0.04888 0.0
H1101 H 0.75091 0.68322 0.01853 0.0
C1102 C 0.73902 0.70619 0.98799 0.0
C1103 C 0.73298 0.72134 0.97334 0.0
C1104 C 0.7309 0.71059 1.00559 0.0
C1105 C 0.71475 0.73711 0.97613 0.0
C1106 C 0.70658 0.74162 0.9936 0.0
C1107 C 0.71513 0.74083 0.02601 0.0
C1108 C 0.72814 0.73198 0.04061 0.0
C1109 C 0.7164 0.73022 0.00847 0.0
C1110 C 0.7387 0.70923 0.03785 0.0
C1111 C 0.74021 0.6987 0.02045 0.0
H1112 H 0.3442 0.08651 0.98539 0.0
H1113 H 0.29022 0.98808 0.96478 0.0
H1114 H 0.28637 0.96619 0.99514 0.0
H1115 H 0.2877 0.97582 0.02791 0.0
H1116 H 0.34239 0.07434 0.04845 0.0
H1117 H 0.35744 0.09553 0.01779 0.0
C1118 C 0.3329 0.06029 0.9875 0.0
C1119 C 0.31734 0.03886 0.97298 0.0
C1120 C 0.33043 0.04797 1.00501 0.0
C1121 C 0.3026 0.00497 0.97575 0.0
C1122 C 0.30001 0.99248 0.99316 0.0
C1123 C 0.30394 0.00181 0.02566 0.0
C1124 C 0.31355 0.02357 0.04035 0.0
C1125 C 0.31223 0.0138 0.00797 0.0
C1126 C 0.33474 0.05713 0.03736 0.0
C1127 C 0.34305 0.06929 0.0198 0.0
H1128 H 0.98613 0.72004 0.98032 0.0
H1129 H 0.08667 0.76782 0.96289 0.0
H1130 H 0.10452 0.76828 0.99388 0.0
H1131 H 0.09187 0.76813 0.02616 0.0
H1132 H 0.99131 0.72074 0.04357 0.0
H1133 H 0.97294 0.70597 0.01244 0.0
C1134 C 0.0118 0.72907 0.98323 0.0
C1135 C 0.03512 0.74413 0.96942 0.0
C1136 C 0.02185 0.72978 1.00115 0.0
C1137 C 0.0683 0.75591 0.97328 0.0
C1138 C 0.07852 0.75658 0.99106 0.0
C1139 C 0.06596 0.75312 0.0232 0.0
C1140 C 0.04295 0.74586 0.03709 0.0
C1141 C 0.05563 0.74546 1.00519 0.0
C1142 C 0.00947 0.72646 0.03314 0.0
C1143 C -0.00103 0.71849 0.01528 0.0
H1144 H 0.28613 0.34291 0.02951 0.0
H1145 H 0.34743 0.30463 0.04728 0.0
H1146 H 0.36664 0.30687 0.01643 0.0
H1147 H 0.3547 0.30655 0.98405 0.0
H1148 H 0.29348 0.34496 0.9663 0.0
H1149 H 0.28635 0.35697 0.99745 0.0
C1150 C 0.30479 0.33646 0.02669 0.0
C1151 C 0.31509 0.32324 0.04052 0.0
C1152 C 0.31535 0.33742 0.00888 0.0
C1153 C 0.33928 0.31498 0.03684 0.0
C1154 C 0.34995 0.31589 0.01915 0.0
C1155 C 0.34111 0.319 0.98698 0.0
C1156 C 0.32427 0.32449 0.97298 0.0
C1157 C 0.33659 0.32517 1.00496 0.0
C1158 C 0.30676 0.34064 0.97684 0.0
C1159 C 0.30227 0.34704 0.9947 0.0
H1160 H 0.72815 0.99469 0.97512 0.0
H1161 H 0.78942 0.09937 0.97893 0.0
H1162 H 0.78193 0.09673 0.01158 0.0
H1163 H 0.76877 0.06346 0.03919 0.0
H1164 H 0.71338 0.95837 0.0353 0.0
H1165 H 0.70701 0.96205 1.00283 0.0
C1166 C 0.73849 0.01699 0.98305 0.0
C1167 C 0.75903 0.04721 0.97467 0.0
C1168 C 0.73562 0.01501 1.00196 0.0
C1169 C 0.7732 0.0759 0.98511 0.0
C1170 C 0.76924 0.07433 1.00382 0.0
C1171 C 0.75403 0.04153 0.0313 0.0
C1172 C 0.74117 0.01072 0.03956 0.0
C1173 C 0.75205 0.04387 0.01247 0.0
C1174 C 0.72303 0.98233 0.02919 0.0
C1175 C 0.71972 0.98445 0.0106 0.0
H1176 H 0.64249 0.62283 0.32228 0.0
H1177 H 0.74197 0.67181 0.30292 0.0
H1178 H 0.76228 0.68569 0.3338 0.0
H1179 H 0.75136 0.6732 0.3662 0.0
H1180 H 0.65192 0.62546 0.38558 0.0
H1181 H 0.63188 0.62239 0.35486 0.0
C1182 C 0.66857 0.63764 0.32482 0.0
C1183 C 0.69074 0.64596 0.31043 0.0
C1184 C 0.68004 0.64527 0.34263 0.0
C1185 C 0.72446 0.66525 0.31379 0.0
C1186 C 0.73608 0.67284 0.33148 0.0
C1187 C 0.7254 0.66322 0.36372 0.0
C1188 C 0.70307 0.64917 0.37802 0.0
C1189 C 0.71409 0.66142 0.34601 0.0
C1190 C 0.66954 0.63648 0.37476 0.0
C1191 C 0.65806 0.63442 0.35717 0.0
H1192 H 0.38245 0.10312 0.36667 0.0
H1193 H 0.44017 0.06046 0.38398 0.0
H1194 H 0.4458 0.04747 0.35276 0.0
H1195 H 0.44452 0.05985 0.32052 0.0
H1196 H 0.38533 0.10084 0.3032 0.0
H1197 H 0.36937 0.10229 0.33439 0.0
C1198 C 0.39504 0.0897 0.36362 0.0
C1199 C 0.41114 0.08299 0.37751 0.0
C1200 C 0.39836 0.08258 0.34562 0.0
C1201 C 0.42741 0.06566 0.3735 0.0
C1202 C 0.431 0.05863 0.35562 0.0
C1203 C 0.42709 0.06784 0.32357 0.0
C1204 C 0.41631 0.08051 0.30971 0.0
C1205 C 0.41812 0.06865 0.34154 0.0
C1206 C 0.39376 0.09083 0.31369 0.0
C1207 C 0.38493 0.09199 0.33154 0.0
H1208 H 0.94285 0.30649 0.36165 0.0
H1209 H 0.00249 0.40677 0.3786 0.0
H1210 H 0.01458 0.42436 0.3472 0.0
H1211 H 0.9972 0.41208 0.31539 0.0
H1212 H 0.93904 0.31171 0.29835 0.0
H1213 H 0.93792 0.29303 0.32922 0.0
C1214 C 0.9597 0.33197 0.35843 0.0
C1215 C 0.97159 0.35537 0.37233 0.0
C1216 C 0.96631 0.34189 0.34032 0.0
C1217 C 0.99329 0.38833 0.36811 0.0
C1218 C -0.00017 0.39844 0.35013 0.0
C1219 C 0.98559 0.38611 0.31836 0.0
C1220 C 0.96807 0.36324 0.30474 0.0
C1221 C 0.98494 0.37563 0.33616 0.0
C1222 C 0.95291 0.32967 0.30863 0.0
C1223 C 0.95192 0.31902 0.32633 0.0
H1224 H 0.66049 0.05463 0.37368 0.0
H1225 H 0.76525 0.10902 0.3674 0.0
H1226 H 0.75964 0.09871 0.33497 0.0
H1227 H 0.7247 0.08496 0.30799 0.0
H1228 H 0.61998 0.03615 0.31424 0.0
H1229 H 0.62549 0.03272 0.34678 0.0
C1230 C 0.68203 0.06289 0.36528 0.0
C1231 C 0.71323 0.08234 0.37288 0.0
C1232 C 0.67851 0.05834 0.34647 0.0
C1233 C 0.741 0.09375 0.36182 0.0
C1234 C 0.73778 0.08814 0.34324 0.0
C1235 C 0.70313 0.07229 0.31644 0.0
C1236 C 0.67198 0.0606 0.30877 0.0
C1237 C 0.70662 0.07199 0.33529 0.0
C1238 C 0.64418 0.04505 0.31988 0.0
C1239 C 0.64736 0.0434 0.33851 0.0
H1240 H 0.96562 0.6941 0.35894 0.0
H1241 H 0.01708 0.64601 0.37821 0.0
H1242 H 0.03268 0.64162 0.3474 0.0
H1243 H 0.01963 0.63931 0.31497 0.0
H1244 H 0.96894 0.68816 0.29567 0.0
H1245 H 0.96576 0.70514 0.32637 0.0
C1246 C 0.98162 0.68414 0.35644 0.0
C1247 C 0.98998 0.67018 0.37083 0.0
C1248 C 0.99004 0.68122 0.3386 0.0
C1249 C 0.01057 0.6572 0.36743 0.0
C1250 C 0.01905 0.6542 0.34973 0.0
C1251 C 0.00925 0.65497 0.31742 0.0
C1252 C 0.9943 0.66226 0.3031 0.0
C1253 C 0.00722 0.66434 0.33518 0.0
C1254 C 0.98083 0.68245 0.30641 0.0
C1255 C 0.97861 0.69178 0.32404 0.0
H1256 H 0.39003 0.3077 0.3595 0.0
H1257 H 0.42993 0.40715 0.37784 0.0
H1258 H 0.43221 0.4256 0.34681 0.0
H1259 H 0.43515 0.41461 0.31455 0.0
H1260 H 0.39452 0.31512 0.2962 0.0
H1261 H 0.37925 0.29519 0.32709 0.0
C1262 C 0.39789 0.33317 0.3567 0.0
C1263 C 0.41015 0.35615 0.3708 0.0
C1264 C 0.39937 0.34357 0.33882 0.0
C1265 C 0.42027 0.38907 0.36716 0.0
C1266 C 0.42192 0.39965 0.3494 0.0
C1267 C 0.4215 0.38851 0.31727 0.0
C1268 C 0.41603 0.36629 0.30325 0.0
C1269 C 0.41329 0.37736 0.33509 0.0
C1270 C 0.39864 0.33256 0.30681 0.0
C1271 C 0.39036 0.32123 0.32451 0.0
H1272 H 0.32937 0.98033 0.71143 0.0
H1273 H 0.4338 0.03095 0.70358 0.0
H1274 H 0.42668 0.03813 0.67163 0.0
H1275 H 0.39058 0.01739 0.6452 0.0
H1276 H 0.28617 0.96079 0.65277 0.0
H1277 H 0.29311 0.96929 0.68529 0.0
C1278 C 0.35052 0.99432 0.70286 0.0
C1279 C 0.38205 0.00517 0.70979 0.0
C1280 C 0.3461 0.99666 0.68426 0.0
C1281 C 0.40931 0.02257 0.6985 0.0
C1282 C 0.40521 0.02634 0.68019 0.0
C1283 C 0.36933 0.00837 0.65392 0.0
C1284 C 0.33793 0.98849 0.64664 0.0
C1285 C 0.37368 0.0117 0.67273 0.0
C1286 C 0.31058 0.97628 0.6581 0.0
C1287 C 0.31459 0.9808 0.67674 0.0
H1288 H 0.09676 0.39365 0.70482 0.0
H1289 H 0.03432 0.43574 0.70106 0.0
H1290 H 0.03028 0.42761 0.6684 0.0
H1291 H 0.05544 0.42091 0.64077 0.0
H1292 H 0.12337 0.38526 0.64482 0.0
H1293 H 0.11393 0.37759 0.67725 0.0
C1294 C 0.08098 0.39945 0.69689 0.0
C1295 C 0.06547 0.41479 0.70522 0.0
C1296 C 0.08041 0.39644 0.67803 0.0
C1297 C 0.04594 0.42332 0.69486 0.0
C1298 C 0.04404 0.41909 0.67617 0.0
C1299 C 0.06695 0.41009 0.6487 0.0
C1300 C 0.08992 0.4035 0.64053 0.0
C1301 C 0.0627 0.40744 0.66752 0.0
C1302 C 0.10543 0.39028 0.6509 0.0
C1303 C 0.10026 0.38619 0.66946 0.0
H1304 H 0.67518 0.72921 0.70835 0.0
H1305 H 0.63206 0.62528 0.70059 0.0
H1306 H 0.64279 0.6334 0.66826 0.0
H1307 H 0.65047 0.66841 0.64206 0.0
H1308 H 0.6866 0.77144 0.64994 0.0
H1309 H 0.69347 0.76579 0.68209 0.0
C1310 C 0.66982 0.70862 0.69966 0.0
C1311 C 0.65312 0.67676 0.70675 0.0
C1312 C 0.67406 0.71337 0.68093 0.0
C1313 C 0.64534 0.65005 0.69538 0.0
C1314 C 0.65102 0.65468 0.67685 0.0
C1315 C 0.66124 0.68983 0.65071 0.0
C1316 C 0.66776 0.72023 0.64372 0.0
C1317 C 0.66333 0.686 0.66937 0.0
C1318 C 0.68126 0.74776 0.65508 0.0
C1319 C 0.68493 0.74448 0.6735 0.0
H1320 H 0.40254 0.42464 0.69746 0.0
H1321 H 0.30206 0.38399 0.71394 0.0
H1322 H 0.28371 0.36543 0.68314 0.0
H1323 H 0.29768 0.3733 0.65079 0.0
H1324 H 0.39819 0.41314 0.63441 0.0
H1325 H 0.41517 0.41856 0.66589 0.0
C1326 C 0.3766 0.41032 0.69442 0.0
C1327 C 0.35362 0.40576 0.70781 0.0
C1328 C 0.36633 0.40008 0.67664 0.0
C1329 C 0.32009 0.38746 0.70382 0.0
C1330 C 0.30964 0.37725 0.68616 0.0
C1331 C 0.32307 0.38176 0.65415 0.0
C1332 C 0.34672 0.39322 0.64037 0.0
C1333 C 0.33268 0.38518 0.67231 0.0
C1334 C 0.37954 0.40407 0.64479 0.0
C1335 C 0.38932 0.40759 0.66282 0.0
H1336 H 0.65715 0.94605 0.70595 0.0
H1337 H 0.60993 0.00406 0.70428 0.0
H1338 H 0.62068 0.01307 0.67198 0.0
H1339 H 0.63181 0.99361 0.64352 0.0
H1340 H 0.67344 0.93054 0.64494 0.0
H1341 H 0.67768 0.93505 0.67774 0.0
C1342 C 0.65065 0.96189 0.69861 0.0
C1343 C 0.63311 0.97468 0.70744 0.0
C1344 C 0.65553 0.96561 0.67982 0.0
C1345 C 0.62385 0.99435 0.69774 0.0
C1346 C 0.62969 -0.00079 0.67923 0.0
C1347 C 0.64335 0.98229 0.65098 0.0
C1348 C 0.65262 0.96206 0.64186 0.0
C1349 C 0.64392 0.9835 0.66996 0.0
C1350 C 0.66657 0.94661 0.6517 0.0
C1351 C 0.66855 0.94881 0.67049 0.0
H1352 H 0.09371 0.73408 0.70239 0.0
H1353 H 0.03471 0.62914 0.69879 0.0
H1354 H 0.02999 0.6327 0.66625 0.0
H1355 H 0.05461 0.66456 0.63852 0.0
H1356 H 0.11641 0.76917 0.64212 0.0
H1357 H 0.10748 0.76713 0.67459 0.0
C1358 C 0.07839 0.71221 0.69459 0.0
C1359 C 0.06458 0.68141 0.703 0.0
C1360 C 0.07693 0.71437 0.67566 0.0
C1361 C 0.04542 0.65315 0.69263 0.0
C1362 C 0.04307 0.65515 0.67394 0.0
C1363 C 0.06462 0.687 0.6463 0.0
C1364 C 0.086 0.71698 0.63793 0.0
C1365 C 0.06042 0.68546 0.66519 0.0
C1366 C 0.09957 0.74584 0.64826 0.0
C1367 C 0.09482 0.74463 0.6669 0.0
H1368 H 0.88872 0.08248 0.10417 0.0
H1369 H 0.82598 0.1237 0.09644 0.0
H1370 H 0.87371 0.17915 0.09823 0.0
H1371 H 0.93434 0.21545 0.09827 0.0
H1372 H 0.99557 0.17202 0.10467 0.0
H1373 H 0.94736 0.11794 0.10723 0.0
C1374 C 0.88536 0.10357 0.10304 0.0
C1375 C 0.85398 0.09902 0.09986 0.0
C1376 C 0.91276 0.13502 0.10371 0.0
C1377 C 0.84995 0.12658 0.09883 0.0
C1378 C 0.87726 0.15826 0.09974 0.0
C1379 C 0.93699 0.19416 0.10056 0.0
C1380 C 0.96847 0.19765 0.10102 0.0
C1381 C 0.90896 0.16276 0.10163 0.0
C1382 C 0.97162 0.16991 0.10398 0.0
C1383 C 0.94408 0.13896 0.10546 0.0
H1384 H 0.94433 0.76153 0.10213 0.0
H1385 H 0.98161 0.83424 0.05972 0.0
H1386 H 0.93001 0.83309 0.05815 0.0
H1387 H 0.8751 0.81309 0.06861 0.0
H1388 H 0.83484 0.74072 0.11085 0.0
H1389 H 0.88659 0.74 0.11252 0.0
C1390 C 0.94108 0.77707 0.09258 0.0
C1391 C 0.96725 0.79819 0.08124 0.0
C1392 C 0.91081 0.77645 0.09164 0.0
C1393 C 0.96239 0.81802 0.06885 0.0
C1394 C 0.93271 0.81738 0.06783 0.0
C1395 C 0.87744 0.79715 0.0783 0.0
C1396 C 0.85116 0.77725 0.0897 0.0
C1397 C 0.90694 0.79696 0.0792 0.0
C1398 C 0.85471 0.75637 0.1019 0.0
C1399 C 0.88434 0.75603 0.10289 0.0
H1400 H 0.31127 0.12096 0.0983 0.0
H1401 H 0.20594 0.05994 0.09652 0.0
H1402 H 0.19989 0.1081 0.09731 0.0
H1403 H 0.22389 0.16709 0.09571 0.0
H1404 H 0.32874 0.22979 0.09718 0.0
H1405 H 0.33557 0.18155 0.09958 0.0
C1406 C 0.28703 0.11826 0.09836 0.0
C1407 C 0.25913 0.08679 0.09705 0.0
C1408 C 0.28359 0.14634 0.09863 0.0
C1409 C 0.22789 0.08377 0.0972 0.0
C1410 C 0.22433 0.11133 0.09768 0.0
C1411 C 0.24829 0.1703 0.09668 0.0
C1412 C 0.27576 0.20192 0.09598 0.0
C1413 C 0.25195 0.14266 0.0979 0.0
C1414 C 0.30717 0.20566 0.09763 0.0
C1415 C 0.31106 0.17807 0.09891 0.0
H1416 H 0.22198 0.95111 0.91286 0.0
H1417 H 0.17231 0.00719 0.91405 0.0
H1418 H 0.11969 0.95727 0.91105 0.0
H1419 H 0.08753 0.89792 0.912 0.0
H1420 H 0.13543 0.84034 0.91196 0.0
H1421 H 0.18902 0.89056 0.91022 0.0
C1422 C 0.19966 0.95237 0.9121 0.0
C1423 C 0.201 0.98276 0.914 0.0
C1424 C 0.16919 0.92333 0.91074 0.0
C1425 C 0.1719 0.98407 0.91295 0.0
C1426 C 0.14177 0.95554 0.91122 0.0
C1427 C 0.10969 0.89631 0.91139 0.0
C1428 C 0.10765 0.86561 0.91244 0.0
C1429 C 0.1401 0.92506 0.91076 0.0
C1430 C 0.13645 0.86378 0.91124 0.0
C1431 C 0.16705 0.89249 0.91037 0.0
H1432 H 0.21597 0.30972 0.91534 0.0
H1433 H 0.1726 0.20723 0.92906 0.0
H1434 H 0.11842 0.20121 0.92831 0.0
H1435 H 0.08348 0.22492 0.92554 0.0
H1436 H 0.12482 0.32734 0.91257 0.0
H1437 H 0.17954 0.33329 0.91099 0.0
C1438 C 0.19463 0.28602 0.91798 0.0
C1439 C 0.19855 0.25906 0.92242 0.0
C1440 C 0.16315 0.28266 0.91773 0.0
C1441 C 0.17054 0.22853 0.92581 0.0
C1442 C 0.13942 0.22498 0.92537 0.0
C1443 C 0.10433 0.24865 0.92231 0.0
C1444 C 0.09996 0.27573 0.91939 0.0
C1445 C 0.13551 0.25194 0.92165 0.0
C1446 C 0.1274 0.30607 0.91494 0.0
C1447 C 0.15873 0.3095 0.9141 0.0
H1448 H 0.77134 0.84621 0.95049 0.0
H1449 H 0.77082 0.83338 0.89306 0.0
H1450 H 0.76434 0.88144 0.88833 0.0
H1451 H 0.76569 0.93109 0.90089 0.0
H1452 H 0.76536 0.94212 0.95847 0.0
H1453 H 0.76421 0.89028 0.96288 0.0
C1454 C 0.7695 0.85384 0.93695 0.0
C1455 C 0.77225 0.83699 0.92213 0.0
C1456 C 0.7653 0.88097 0.93441 0.0
C1457 C 0.76907 0.8464 0.90465 0.0
C1458 C 0.76537 0.8738 0.90196 0.0
C1459 C 0.76413 0.92139 0.91432 0.0
C1460 C 0.76548 0.94009 0.92936 0.0
C1461 C 0.76426 0.89179 0.91676 0.0
C1462 C 0.7641 0.92782 0.94675 0.0
C1463 C 0.76382 0.89842 0.94928 0.0
H1464 H 0.55743 0.41416 0.43005 0.0
H1465 H 0.49621 0.45815 0.43152 0.0
H1466 H 0.54493 0.51251 0.43475 0.0
H1467 H 0.60548 0.54779 0.4342 0.0
H1468 H 0.66524 0.50204 0.43208 0.0
H1469 H 0.61648 0.4482 0.43215 0.0
C1470 C 0.55462 0.43559 0.43118 0.0
C1471 C 0.52327 0.43214 0.43025 0.0
C1472 C 0.58255 0.46654 0.43282 0.0
C1473 C 0.5201 0.46012 0.43212 0.0
C1474 C 0.54796 0.49123 0.43388 0.0
C1475 C 0.60778 0.52602 0.43403 0.0
C1476 C 0.63903 0.52904 0.43287 0.0
C1477 C 0.57941 0.4948 0.43382 0.0
C1478 C 0.64156 0.50054 0.43269 0.0
C1479 C 0.61366 0.46965 0.43275 0.0
H1480 H 0.64498 0.16748 0.42823 0.0
H1481 H 0.59909 0.06239 0.43272 0.0
H1482 H 0.54531 0.0584 0.43546 0.0
H1483 H 0.51111 0.08499 0.43419 0.0
H1484 H 0.55907 0.1903 0.4291 0.0
H1485 H 0.6122 0.19381 0.42902 0.0
C1486 C 0.62331 0.1436 0.42985 0.0
C1487 C 0.62608 0.11525 0.42999 0.0
C1488 C 0.59273 0.14151 0.43125 0.0
C1489 C 0.59768 0.08463 0.43246 0.0
C1490 C 0.56691 0.08234 0.43398 0.0
C1491 C 0.53323 0.1087 0.43333 0.0
C1492 C 0.53098 0.13729 0.43146 0.0
C1493 C 0.56408 0.11063 0.43306 0.0
C1494 C 0.55993 0.16783 0.43033 0.0
C1495 C 0.59042 0.16993 0.43029 0.0
H1496 H 0.94875 0.44828 0.3978 0.0
H1497 H 0.96345 0.4489 0.45502 0.0
H1498 H 0.96963 0.50389 0.45715 0.0
H1499 H 0.96338 0.54851 0.44277 0.0
H1500 H 0.9474 0.54499 0.38539 0.0
H1501 H 0.94974 0.49478 0.38318 0.0
C1502 C 0.95386 0.46076 0.41069 0.0
C1503 C 0.95524 0.44472 0.42625 0.0
C1504 C 0.95693 0.49177 0.41175 0.0
C1505 C 0.96229 0.46101 0.44287 0.0
C1506 C 0.96558 0.49227 0.44408 0.0
C1507 C 0.96114 0.53701 0.4298 0.0
C1508 C 0.95464 0.55002 0.41431 0.0
C1509 C 0.96188 0.50748 0.42864 0.0
C1510 C 0.95181 0.53503 0.39754 0.0
C1511 C 0.95315 0.50634 0.39624 0.0
H1512 H 0.737 0.20849 0.24499 0.0
H1513 H 0.78644 0.15327 0.25275 0.0
H1514 H 0.83965 0.20395 0.25079 0.0
H1515 H 0.87164 0.26497 0.25036 0.0
H1516 H 0.82015 0.31855 0.24373 0.0
H1517 H 0.76828 0.2675 0.24158 0.0
C1518 C 0.7594 0.20742 0.24612 0.0
C1519 C 0.75778 0.17726 0.24934 0.0
C1520 C 0.78958 0.23646 0.24525 0.0
C1521 C 0.78703 0.17623 0.25036 0.0
C1522 C 0.81744 0.20523 0.24933 0.0
C1523 C 0.8491 0.26532 0.24807 0.0
C1524 C 0.84964 0.29547 0.2474 0.0
C1525 C 0.81899 0.23565 0.24726 0.0
C1526 C 0.82028 0.29566 0.24452 0.0
C1527 C 0.7906 0.26649 0.2433 0.0
H1528 H 0.83885 0.56082 0.25837 0.0
H1529 H 0.89568 0.6629 0.2438 0.0
H1530 H 0.84559 0.66652 0.24278 0.0
H1531 H 0.78586 0.64123 0.24812 0.0
H1532 H 0.73058 0.53897 0.26299 0.0
H1533 H 0.77994 0.53508 0.26177 0.0
C1534 C 0.84043 0.58392 0.25491 0.0
C1535 C 0.87108 0.61164 0.25139 0.0
C1536 C 0.81175 0.58586 0.25449 0.0
C1537 C 0.87243 0.64117 0.24662 0.0
C1538 C 0.84379 0.64328 0.2461 0.0
C1539 C 0.78457 0.61803 0.25093 0.0
C1540 C 0.75444 0.59056 0.25585 0.0
C1541 C 0.81333 0.61588 0.25033 0.0
C1542 C 0.75333 0.56068 0.25938 0.0
C1543 C 0.7816 0.55834 0.25867 0.0
H1544 H 0.4194 0.27552 0.2473 0.0
H1545 H 0.52407 0.33183 0.23966 0.0
H1546 H 0.52692 0.28174 0.23812 0.0
H1547 H 0.50124 0.22307 0.24305 0.0
H1548 H 0.39708 0.16549 0.25175 0.0
H1549 H 0.39229 0.21477 0.24851 0.0
C1550 C 0.44263 0.27667 0.24485 0.0
C1551 C 0.47155 0.3073 0.24383 0.0
C1552 C 0.44425 0.24761 0.24444 0.0
C1553 C 0.50155 0.30853 0.24072 0.0
C1554 C 0.50324 0.27992 0.23988 0.0
C1555 C 0.4774 0.22121 0.24404 0.0
C1556 C 0.44967 0.19089 0.24798 0.0
C1557 C 0.47499 0.2495 0.24242 0.0
C1558 C 0.41883 0.18866 0.24882 0.0
C1559 C 0.41613 0.21685 0.24706 0.0
H1560 H 0.31122 0.84222 0.75501 0.0
H1561 H 0.26672 0.90183 0.76378 0.0
H1562 H 0.21232 0.85245 0.76413 0.0
H1563 H 0.17726 0.79207 0.76005 0.0
H1564 H 0.2242 0.73448 0.75114 0.0
H1565 H 0.27756 0.78334 0.75277 0.0
C1566 C 0.2897 0.84459 0.75703 0.0
C1567 C 0.29309 0.87577 0.75913 0.0
C1568 C 0.25877 0.81633 0.75712 0.0
C1569 C 0.26485 0.87814 0.76208 0.0
C1570 C 0.23372 0.84989 0.76221 0.0
C1571 C 0.19918 0.79024 0.75862 0.0
C1572 C 0.19647 0.75951 0.75522 0.0
C1573 C 0.23032 0.8188 0.75947 0.0
C1574 C 0.22526 0.75769 0.75348 0.0
C1575 C 0.25596 0.78568 0.75445 0.0
H1576 H 0.25838 0.40997 0.76254 0.0
H1577 H 0.31594 0.51323 0.77425 0.0
H1578 H 0.26626 0.51603 0.77895 0.0
H1579 H 0.20757 0.49152 0.77505 0.0
H1580 H 0.14883 0.38944 0.76113 0.0
H1581 H 0.19763 0.38341 0.76238 0.0
C1582 C 0.25986 0.4328 0.76654 0.0
C1583 C 0.2906 0.46147 0.76783 0.0
C1584 C 0.23105 0.43448 0.76862 0.0
C1585 C 0.29244 0.49101 0.77295 0.0
C1586 C 0.26409 0.49263 0.77563 0.0
C1587 C 0.20534 0.46779 0.77258 0.0
C1588 C 0.17492 0.44113 0.76766 0.0
C1589 C 0.23341 0.46489 0.77275 0.0
C1590 C 0.17212 0.41036 0.76487 0.0
C1591 C 0.20005 0.40701 0.76544 0.0
H1592 H 0.56426 0.74096 0.77012 0.0
H1593 H 0.66601 0.78533 0.75545 0.0
H1594 H 0.67207 0.84004 0.75817 0.0
H1595 H 0.64602 0.87462 0.76123 0.0
H1596 H 0.54416 0.82845 0.77647 0.0
H1597 H 0.54076 0.77532 0.77745 0.0
C1598 C 0.58785 0.76267 0.76773 0.0
C1599 C 0.61447 0.7593 0.7623 0.0
C1600 C 0.59111 0.79376 0.76943 0.0
C1601 C 0.64511 0.78748 0.75957 0.0
C1602 C 0.64853 0.8187 0.76107 0.0
C1603 C 0.62341 0.85302 0.76522 0.0
C1604 C 0.59523 0.85537 0.76845 0.0
C1605 C 0.62142 0.82213 0.76553 0.0
C1606 C 0.56605 0.82719 0.77362 0.0
C1607 C 0.56401 0.79673 0.77414 0.0
H1608 H 0.5458 0.59937 0.57732 0.0
H1609 H 0.52688 0.62693 0.62948 0.0
H1610 H 0.47547 0.57559 0.63158 0.0
H1611 H 0.43343 0.52579 0.61761 0.0
H1612 H 0.44987 0.49638 0.56551 0.0
H1613 H 0.50475 0.54524 0.56439 0.0
C1614 C 0.53064 0.59373 0.58924 0.0
C1615 C 0.53988 0.61711 0.60311 0.0
C1616 C 0.50051 0.56408 0.59028 0.0
C1617 C 0.52005 0.60957 0.6185 0.0
C1618 C 0.49062 0.58022 0.61973 0.0
C1619 C 0.44906 0.52996 0.60602 0.0
C1620 C 0.43748 0.50796 0.59152 0.0
C1621 C 0.48017 0.55784 0.6055 0.0
C1622 C 0.45826 0.51318 0.57679 0.0
C1623 C 0.48955 0.54114 0.57615 0.0
H1624 H 0.45182 0.98048 0.57796 0.0
H1625 H 0.4289 0.94577 0.63274 0.0
H1626 H 0.48036 0.94582 0.63524 0.0
H1627 H 0.52751 0.94798 0.62077 0.0
H1628 H 0.55111 0.98015 0.56577 0.0
H1629 H 0.50421 0.98947 0.56444 0.0
C1630 C 0.45858 0.97366 0.59051 0.0
C1631 C 0.43647 0.96262 0.60506 0.0
C1632 C 0.48809 0.97296 0.59174 0.0
C1633 C 0.44534 0.95381 0.62128 0.0
C1634 C 0.47474 0.95384 0.62274 0.0
C1635 C 0.52269 0.95758 0.60858 0.0
C1636 C 0.54221 0.96293 0.59332 0.0
C1637 C 0.4956 0.96212 0.60787 0.0
C1638 C 0.53624 0.97585 0.57768 0.0
C1639 C 0.50931 0.9809 0.5769 0.0
H1640 H 0.07228 0.59941 0.58835 0.0
H1641 H 0.16763 0.65317 0.56369 0.0
H1642 H 0.16917 0.60271 0.55948 0.0
H1643 H 0.14801 0.5456 0.56744 0.0
H1644 H 0.05406 0.49071 0.59325 0.0
H1645 H 0.04691 0.53894 0.59217 0.0
C1646 C 0.09283 0.59974 0.58158 0.0
C1647 C 0.11996 0.62983 0.57646 0.0
C1648 C 0.09399 0.57055 0.57969 0.0
C1649 C 0.14664 0.63021 0.56784 0.0
C1650 C 0.1476 0.60143 0.56549 0.0
C1651 C 0.12564 0.54404 0.57246 0.0
C1652 C 0.1018 0.51503 0.58063 0.0
C1653 C 0.12214 0.5718 0.57209 0.0
C1654 C 0.07272 0.51294 0.5869 0.0
C1655 C 0.0688 0.54057 0.58641 0.0
loop_
_geom_bond_atom_site_label_1
_geom_bond_atom_site_label_2
_geom_bond_distance
_geom_bond_site_symmetry_2
_ccdc_geom_bond_type
Co0 O1 2.216 . S
Co0 O2 2.091 . S
Co0 O4 2.004 . S
Co0 O10 2.021 1_455 S
Co0 O12 2.137 . S
Co0 O13 2.244 . S
O1 Co0 2.216 . S
O1 C8 1.247 . S
O2 Co0 2.091 . S
O2 C8 1.261 . S
C3 O12 1.247 . S
C3 O13 1.272 . S
O4 Co0 2.004 . S
O4 C9 1.259 . S
Co5 O6 2.061 . S
Co5 O11 2.052 1_455 S
Co5 O13 2.135 . S
O6 Co5 2.061 . S
O6 C9 1.235 . S
C7 O10 1.238 . S
C7 O11 1.241 . S
C8 O1 1.247 . S
C8 O2 1.261 . S
C9 O4 1.259 . S
C9 O6 1.235 . S
O10 Co0 2.021 1_655 S
O10 C7 1.238 . S
O11 Co5 2.052 1_655 S
O11 C7 1.241 . S
O12 Co0 2.137 . S
O12 C3 1.247 . S
O13 Co0 2.244 . S
O13 C3 1.272 . S
O13 Co5 2.135 . S
Co14 O15 2.216 . S
Co14 O16 2.091 . S
Co14 O18 2.004 . S
Co14 O24 2.021 . S
Co14 O26 2.137 . S
Co14 O27 2.244 . S
O15 Co14 2.216 . S
O15 C22 1.247 . S
O16 Co14 2.091 . S
O16 C22 1.261 . S
C17 O26 1.247 . S
C17 O27 1.272 . S
O18 Co14 2.004 . S
O18 C23 1.259 . S
Co19 O20 2.061 . S
Co19 O25 2.052 . S
Co19 O27 2.135 . S
O20 Co19 2.061 . S
O20 C23 1.235 . S
C21 O24 1.238 . S
C21 O25 1.241 . S
C22 O15 1.247 . S
C22 O16 1.261 . S
C23 O18 1.259 . S
C23 O20 1.235 . S
O24 Co14 2.021 . S
O24 C21 1.238 . S
O25 Co19 2.052 . S
O25 C21 1.241 . S
O26 Co14 2.137 . S
O26 C17 1.247 . S
O27 Co14 2.244 . S
O27 C17 1.272 . S
O27 Co19 2.135 . S
Co28 O29 2.216 . S
Co28 O30 2.091 . S
Co28 O32 2.004 . S
Co28 O38 2.021 . S
Co28 O40 2.137 1_545 S
Co28 O41 2.244 1_545 S
O29 Co28 2.216 . S
O29 C36 1.247 . S
O30 Co28 2.091 . S
O30 C36 1.261 . S
C31 O40 1.247 . S
C31 O41 1.278 . S
O32 Co28 2.004 . S
O32 C37 1.259 . S
Co33 O34 2.061 . S
Co33 O39 2.052 . S
Co33 O41 2.130 1_545 S
O34 Co33 2.061 . S
O34 C37 1.235 . S
C35 O38 1.238 . S
C35 O39 1.241 . S
C36 O29 1.247 . S
C36 O30 1.261 . S
C37 O32 1.259 . S
C37 O34 1.235 . S
O38 Co28 2.021 . S
O38 C35 1.238 . S
O39 Co33 2.052 . S
O39 C35 1.241 . S
O40 Co28 2.137 1_565 S
O40 C31 1.247 . S
O41 Co28 2.244 1_565 S
O41 C31 1.278 . S
O41 Co33 2.130 1_565 S
Co42 O43 2.216 . S
Co42 O44 2.091 . S
Co42 O46 2.004 . S
Co42 O52 2.021 1_545 S
Co42 O54 2.137 . S
Co42 O55 2.244 . S
O43 Co42 2.216 . S
O43 C50 1.247 . S
O44 Co42 2.091 . S
O44 C50 1.261 . S
C45 O54 1.247 . S
C45 O55 1.272 . S
O46 Co42 2.004 . S
O46 C51 1.259 . S
Co47 O48 2.061 . S
Co47 O53 2.052 1_545 S
Co47 O55 2.135 . S
O48 Co47 2.061 . S
O48 C51 1.235 . S
C49 O52 1.238 . S
C49 O53 1.241 . S
C50 O43 1.247 . S
C50 O44 1.261 . S
C51 O46 1.259 . S
C51 O48 1.235 . S
O52 Co42 2.021 1_565 S
O52 C49 1.238 . S
O53 Co47 2.052 1_565 S
O53 C49 1.241 . S
O54 Co42 2.137 . S
O54 C45 1.247 . S
O55 Co42 2.244 . S
O55 C45 1.272 . S
O55 Co47 2.135 . S
Co56 O57 2.216 . S
Co56 O58 2.091 . S
Co56 O60 2.004 . S
Co56 O66 2.021 . S
Co56 O68 2.137 1_455 S
Co56 O69 2.244 1_455 S
O57 Co56 2.216 . S
O57 C64 1.247 . S
O58 Co56 2.091 . S
O58 C64 1.261 . S
C59 O68 1.247 . S
C59 O69 1.278 . S
O60 Co56 2.004 . S
O60 C65 1.259 . S
Co61 O62 2.061 . S
Co61 O67 2.052 . S
Co61 O69 2.130 1_455 S
O62 Co61 2.061 . S
O62 C65 1.235 . S
C63 O66 1.238 . S
C63 O67 1.241 . S
C64 O57 1.247 . S
C64 O58 1.261 . S
C65 O60 1.259 . S
C65 O62 1.235 . S
O66 Co56 2.021 . S
O66 C63 1.238 . S
O67 Co61 2.052 . S
O67 C63 1.241 . S
O68 Co56 2.137 1_655 S
O68 C59 1.247 . S
O69 Co56 2.244 1_655 S
O69 C59 1.278 . S
O69 Co61 2.130 1_655 S
Co70 O71 2.216 . S
Co70 O72 2.091 . S
Co70 O74 2.004 . S
Co70 O80 2.021 . S
Co70 O82 2.137 . S
Co70 O83 2.244 . S
O71 Co70 2.216 . S
O71 C78 1.247 . S
O72 Co70 2.091 . S
O72 C78 1.261 . S
C73 O82 1.247 . S
C73 O83 1.272 . S
O74 Co70 2.004 . S
O74 C79 1.259 . S
Co75 O76 2.061 . S
Co75 O81 2.052 . S
Co75 O83 2.135 . S
O76 Co75 2.061 . S
O76 C79 1.235 . S
C77 O80 1.238 . S
C77 O81 1.241 . S
C78 O71 1.247 . S
C78 O72 1.261 . S
C79 O74 1.259 . S
C79 O76 1.235 . S
O80 Co70 2.021 . S
O80 C77 1.238 . S
O81 Co75 2.052 . S
O81 C77 1.241 . S
O82 Co70 2.137 . S
O82 C73 1.247 . S
O83 Co70 2.244 . S
O83 C73 1.272 . S
O83 Co75 2.135 . S
Co84 O85 2.216 . S
Co84 O86 2.091 . S
Co84 O88 2.004 . S
Co84 O94 2.021 . S
Co84 O96 2.137 1_455 S
Co84 O97 2.238 1_455 S
O85 Co84 2.216 . S
O85 C92 1.247 . S
O86 Co84 2.091 . S
O86 C92 1.261 . S
C87 O96 1.247 . S
C87 O97 1.275 . S
O88 Co84 2.004 . S
O88 C93 1.259 . S
Co89 O90 2.061 . S
Co89 O95 2.052 . S
Co89 O97 2.133 1_455 S
O90 Co89 2.061 . S
O90 C93 1.235 . S
C91 O94 1.238 . S
C91 O95 1.241 . S
C92 O85 1.247 . S
C92 O86 1.261 . S
C93 O88 1.259 . S
C93 O90 1.235 . S
O94 Co84 2.021 . S
O94 C91 1.238 . S
O95 Co89 2.052 . S
O95 C91 1.241 . S
O96 Co84 2.137 1_655 S
O96 C87 1.247 . S
O97 Co84 2.238 1_655 S
O97 C87 1.275 . S
O97 Co89 2.133 1_655 S
Co98 O99 2.216 . S
Co98 O100 2.091 . S
Co98 O102 2.004 . S
Co98 O108 2.021 . S
Co98 O110 2.137 . S
Co98 O111 2.244 . S
O99 Co98 2.216 . S
O99 C106 1.247 . S
O100 Co98 2.091 . S
O100 C106 1.261 . S
C101 O110 1.247 . S
C101 O111 1.272 . S
O102 Co98 2.004 . S
O102 C107 1.259 . S
Co103 O104 2.061 . S
Co103 O109 2.052 . S
Co103 O111 2.135 . S
O104 Co103 2.061 . S
O104 C107 1.235 . S
C105 O108 1.238 . S
C105 O109 1.241 . S
C106 O99 1.247 . S
C106 O100 1.261 . S
C107 O102 1.259 . S
C107 O104 1.235 . S
O108 Co98 2.021 . S
O108 C105 1.238 . S
O109 Co103 2.052 . S
O109 C105 1.241 . S
O110 Co98 2.137 . S
O110 C101 1.247 . S
O111 Co98 2.244 . S
O111 C101 1.272 . S
O111 Co103 2.135 . S
Co112 O113 2.216 . S
Co112 O114 2.091 . S
Co112 O116 2.004 . S
Co112 O122 2.021 1_545 S
Co112 O124 2.137 . S
Co112 O125 2.244 . S
O113 Co112 2.216 . S
O113 C120 1.247 . S
O114 Co112 2.091 . S
O114 C120 1.261 . S
C115 O124 1.247 . S
C115 O125 1.272 . S
O116 Co112 2.004 . S
O116 C121 1.259 . S
Co117 O118 2.061 . S
Co117 O123 2.052 1_545 S
Co117 O125 2.135 . S
O118 Co117 2.061 . S
O118 C121 1.235 . S
C119 O122 1.238 . S
C119 O123 1.241 . S
C120 O113 1.247 . S
C120 O114 1.261 . S
C121 O116 1.259 . S
C121 O118 1.235 . S
O122 Co112 2.021 1_565 S
O122 C119 1.238 . S
O123 Co117 2.052 1_565 S
O123 C119 1.241 . S
O124 Co112 2.137 . S
O124 C115 1.247 . S
O125 Co112 2.244 . S
O125 C115 1.272 . S
O125 Co117 2.135 . S
Co126 O127 2.216 . S
Co126 O128 2.091 . S
Co126 O130 2.004 . S
Co126 O136 2.021 . S
Co126 O138 2.137 1_545 S
Co126 O139 2.238 1_545 S
O127 Co126 2.216 . S
O127 C134 1.247 . S
O128 Co126 2.091 . S
O128 C134 1.261 . S
C129 O138 1.247 . S
C129 O139 1.275 . S
O130 Co126 2.004 . S
O130 C135 1.259 . S
Co131 O132 2.061 . S
Co131 O137 2.052 . S
Co131 O139 2.133 1_545 S
O132 Co131 2.061 . S
O132 C135 1.235 . S
C133 O136 1.238 . S
C133 O137 1.241 . S
C134 O127 1.247 . S
C134 O128 1.261 . S
C135 O130 1.259 . S
C135 O132 1.235 . S
O136 Co126 2.021 . S
O136 C133 1.238 . S
O137 Co131 2.052 . S
O137 C133 1.241 . S
O138 Co126 2.137 1_565 S
O138 C129 1.247 . S
O139 Co126 2.238 1_565 S
O139 C129 1.275 . S
O139 Co131 2.133 1_565 S
Co140 O141 2.216 . S
Co140 O142 2.091 . S
Co140 O144 2.004 . S
Co140 O150 2.021 1_455 S
Co140 O152 2.137 . S
Co140 O153 2.244 . S
O141 Co140 2.216 . S
O141 C148 1.247 . S
O142 Co140 2.091 . S
O142 C148 1.261 . S
C143 O152 1.247 . S
C143 O153 1.272 . S
O144 Co140 2.004 . S
O144 C149 1.259 . S
Co145 O146 2.061 . S
Co145 O151 2.052 1_455 S
Co145 O153 2.135 . S
O146 Co145 2.061 . S
O146 C149 1.235 . S
C147 O150 1.238 . S
C147 O151 1.241 . S
C148 O141 1.247 . S
C148 O142 1.261 . S
C149 O144 1.259 . S
C149 O146 1.235 . S
O150 Co140 2.021 1_655 S
O150 C147 1.238 . S
O151 Co145 2.052 1_655 S
O151 C147 1.241 . S
O152 Co140 2.137 . S
O152 C143 1.247 . S
O153 Co140 2.244 . S
O153 C143 1.272 . S
O153 Co145 2.135 . S
Co154 O155 2.216 . S
Co154 O156 2.091 . S
Co154 O158 2.004 . S
Co154 O164 2.021 . S
Co154 O166 2.137 . S
Co154 O167 2.244 . S
O155 Co154 2.216 . S
O155 C162 1.247 . S
O156 Co154 2.091 . S
O156 C162 1.261 . S
C157 O166 1.247 . S
C157 O167 1.272 . S
O158 Co154 2.004 . S
O158 C163 1.259 . S
Co159 O160 2.061 . S
Co159 O165 2.052 . S
Co159 O167 2.135 . S
O160 Co159 2.061 . S
O160 C163 1.235 . S
C161 O164 1.238 . S
C161 O165 1.241 . S
C162 O155 1.247 . S
C162 O156 1.261 . S
C163 O158 1.259 . S
C163 O160 1.235 . S
O164 Co154 2.021 . S
O164 C161 1.238 . S
O165 Co159 2.052 . S
O165 C161 1.241 . S
O166 Co154 2.137 . S
O166 C157 1.247 . S
O167 Co154 2.244 . S
O167 C157 1.272 . S
O167 Co159 2.135 . S
Co168 O169 2.216 . S
Co168 O170 2.091 . S
Co168 O172 2.004 . S
Co168 O178 2.021 . S
Co168 O180 2.137 . S
Co168 O181 2.244 . S
O169 Co168 2.216 . S
O169 C176 1.247 . S
O170 Co168 2.091 . S
O170 C176 1.261 . S
C171 O180 1.247 . S
C171 O181 1.272 . S
O172 Co168 2.004 . S
O172 C177 1.259 . S
Co173 O174 2.061 . S
Co173 O179 2.052 . S
Co173 O181 2.135 . S
O174 Co173 2.061 . S
O174 C177 1.235 . S
C175 O178 1.238 . S
C175 O179 1.241 . S
C176 O169 1.247 . S
C176 O170 1.261 . S
C177 O172 1.259 . S
C177 O174 1.235 . S
O178 Co168 2.021 . S
O178 C175 1.238 . S
O179 Co173 2.052 . S
O179 C175 1.241 . S
O180 Co168 2.137 . S
O180 C171 1.247 . S
O181 Co168 2.244 . S
O181 C171 1.272 . S
O181 Co173 2.135 . S
Co182 O183 2.216 . S
Co182 O184 2.091 . S
Co182 O186 2.004 . S
Co182 O192 2.021 . S
Co182 O194 2.137 . S
Co182 O195 2.244 . S
O183 Co182 2.216 . S
O183 C190 1.247 . S
O184 Co182 2.091 . S
O184 C190 1.261 . S
C185 O194 1.247 . S
C185 O195 1.272 . S
O186 Co182 2.004 . S
O186 C191 1.259 . S
Co187 O188 2.061 . S
Co187 O193 2.052 . S
Co187 O195 2.135 . S
O188 Co187 2.061 . S
O188 C191 1.235 . S
C189 O192 1.238 . S
C189 O193 1.241 . S
C190 O183 1.247 . S
C190 O184 1.261 . S
C191 O186 1.259 . S
C191 O188 1.235 . S
O192 Co182 2.021 . S
O192 C189 1.238 . S
O193 Co187 2.052 . S
O193 C189 1.241 . S
O194 Co182 2.137 . S
O194 C185 1.247 . S
O195 Co182 2.244 . S
O195 C185 1.272 . S
O195 Co187 2.135 . S
Co196 O197 2.216 . S
Co196 O198 2.091 1_655 S
Co196 O200 2.004 . S
Co196 O206 2.021 . S
Co196 O208 2.137 . S
Co196 O209 2.244 . S
O197 Co196 2.216 . S
O197 C204 1.247 1_655 S
O198 Co196 2.091 1_455 S
O198 C204 1.261 . S
C199 O208 1.247 . S
C199 O209 1.272 . S
O200 Co196 2.004 . S
O200 C205 1.259 . S
Co201 O202 2.061 . S
Co201 O207 2.052 . S
Co201 O209 2.135 . S
O202 Co201 2.061 . S
O202 C205 1.235 . S
C203 O206 1.238 . S
C203 O207 1.241 . S
C204 O197 1.247 1_455 S
C204 O198 1.261 . S
C205 O200 1.259 . S
C205 O202 1.235 . S
O206 Co196 2.021 . S
O206 C203 1.238 . S
O207 Co201 2.052 . S
O207 C203 1.241 . S
O208 Co196 2.137 . S
O208 C199 1.247 . S
O209 Co196 2.244 . S
O209 C199 1.272 . S
O209 Co201 2.135 . S
Co210 O211 2.216 . S
Co210 O212 2.091 1_655 S
Co210 O214 2.004 1_655 S
Co210 O220 2.021 . S
Co210 O222 2.137 1_655 S
Co210 O223 2.244 . S
O211 Co210 2.216 . S
O211 C218 1.247 1_655 S
O212 Co210 2.091 1_455 S
O212 C218 1.261 . S
C213 O222 1.247 1_655 S
C213 O223 1.272 . S
O214 Co210 2.004 1_455 S
O214 C219 1.259 1_455 S
Co215 O216 2.061 . S
Co215 O221 2.052 . S
Co215 O223 2.135 . S
O216 Co215 2.061 . S
O216 C219 1.235 . S
C217 O220 1.238 . S
C217 O221 1.241 . S
C218 O211 1.247 1_455 S
C218 O212 1.261 . S
C219 O214 1.259 1_655 S
C219 O216 1.235 . S
O220 Co210 2.021 . S
O220 C217 1.238 . S
O221 Co215 2.052 . S
O221 C217 1.241 . S
O222 Co210 2.137 1_455 S
O222 C213 1.247 1_455 S
O223 Co210 2.244 . S
O223 C213 1.272 . S
O223 Co215 2.135 . S
Co224 O225 2.216 . S
Co224 O226 2.091 . S
Co224 O228 2.004 . S
Co224 O234 2.021 . S
Co224 O236 2.137 . S
Co224 O237 2.244 . S
O225 Co224 2.216 . S
O225 C232 1.247 . S
O226 Co224 2.091 . S
O226 C232 1.261 . S
C227 O236 1.247 . S
C227 O237 1.272 . S
O228 Co224 2.004 . S
O228 C233 1.259 . S
Co229 O230 2.061 . S
Co229 O235 2.052 . S
Co229 O237 2.135 . S
O230 Co229 2.061 . S
O230 C233 1.235 . S
C231 O234 1.238 . S
C231 O235 1.241 . S
C232 O225 1.247 . S
C232 O226 1.261 . S
C233 O228 1.259 . S
C233 O230 1.235 . S
O234 Co224 2.021 . S
O234 C231 1.238 . S
O235 Co229 2.052 . S
O235 C231 1.241 . S
O236 Co224 2.137 . S
O236 C227 1.247 . S
O237 Co224 2.244 . S
O237 C227 1.272 . S
O237 Co229 2.135 . S
Co238 O239 2.216 . S
Co238 O240 2.091 . S
Co238 O242 2.004 . S
Co238 O248 2.021 . S
Co238 O250 2.137 . S
Co238 O251 2.244 . S
O239 Co238 2.216 . S
O239 C246 1.247 . S
O240 Co238 2.091 . S
O240 C246 1.261 . S
C241 O250 1.247 . S
C241 O251 1.272 . S
O242 Co238 2.004 . S
O242 C247 1.259 . S
Co243 O244 2.061 . S
Co243 O249 2.052 . S
Co243 O251 2.135 . S
O244 Co243 2.061 . S
O244 C247 1.235 . S
C245 O248 1.238 . S
C245 O249 1.241 . S
C246 O239 1.247 . S
C246 O240 1.261 . S
C247 O242 1.259 . S
C247 O244 1.235 . S
O248 Co238 2.021 . S
O248 C245 1.238 . S
O249 Co243 2.052 . S
O249 C245 1.241 . S
O250 Co238 2.137 . S
O250 C241 1.247 . S
O251 Co238 2.244 . S
O251 C241 1.272 . S
O251 Co243 2.135 . S
Co252 O253 2.216 . S
Co252 O254 2.091 . S
Co252 O256 2.004 . S
Co252 O262 2.021 . S
Co252 O264 2.137 . S
Co252 O265 2.244 . S
O253 Co252 2.216 . S
O253 C260 1.247 . S
O254 Co252 2.091 . S
O254 C260 1.261 . S
C255 O264 1.247 . S
C255 O265 1.272 . S
O256 Co252 2.004 . S
O256 C261 1.259 . S
Co257 O258 2.061 . S
Co257 O263 2.052 . S
Co257 O265 2.135 . S
O258 Co257 2.061 . S
O258 C261 1.235 . S
C259 O262 1.238 . S
C259 O263 1.241 . S
C260 O253 1.247 . S
C260 O254 1.261 . S
C261 O256 1.259 . S
C261 O258 1.235 . S
O262 Co252 2.021 . S
O262 C259 1.238 . S
O263 Co257 2.052 . S
O263 C259 1.241 . S
O264 Co252 2.137 . S
O264 C255 1.247 . S
O265 Co252 2.244 . S
O265 C255 1.272 . S
O265 Co257 2.135 . S
Co266 O267 2.216 . S
Co266 O268 2.091 1_655 S
Co266 O270 2.004 1_655 S
Co266 O276 2.021 . S
Co266 O278 2.137 1_655 S
Co266 O279 2.244 . S
O267 Co266 2.216 . S
O267 C274 1.247 1_655 S
O268 Co266 2.091 1_455 S
O268 C274 1.261 . S
C269 O278 1.247 1_655 S
C269 O279 1.272 . S
O270 Co266 2.004 1_455 S
O270 C275 1.259 1_455 S
Co271 O272 2.061 . S
Co271 O277 2.052 . S
Co271 O279 2.135 . S
O272 Co271 2.061 . S
O272 C275 1.235 . S
C273 O276 1.238 . S
C273 O277 1.241 . S
C274 O267 1.247 1_455 S
C274 O268 1.261 . S
C275 O270 1.259 1_655 S
C275 O272 1.235 . S
O276 Co266 2.021 . S
O276 C273 1.238 . S
O277 Co271 2.052 . S
O277 C273 1.241 . S
O278 Co266 2.137 1_455 S
O278 C269 1.247 1_455 S
O279 Co266 2.244 . S
O279 C269 1.272 . S
O279 Co271 2.135 . S
Co280 O281 2.216 . S
Co280 O282 2.091 . S
Co280 O284 2.004 . S
Co280 O290 2.021 . S
Co280 O292 2.137 . S
Co280 O293 2.244 . S
O281 Co280 2.216 . S
O281 C288 1.247 . S
O282 Co280 2.091 . S
O282 C288 1.261 . S
C283 O292 1.247 . S
C283 O293 1.272 . S
O284 Co280 2.004 . S
O284 C289 1.259 . S
Co285 O286 2.061 . S
Co285 O291 2.052 . S
Co285 O293 2.135 . S
O286 Co285 2.061 . S
O286 C289 1.235 . S
C287 O290 1.238 . S
C287 O291 1.241 . S
C288 O281 1.247 . S
C288 O282 1.261 . S
C289 O284 1.259 . S
C289 O286 1.235 . S
O290 Co280 2.021 . S
O290 C287 1.238 . S
O291 Co285 2.052 . S
O291 C287 1.241 . S
O292 Co280 2.137 . S
O292 C283 1.247 . S
O293 Co280 2.244 . S
O293 C283 1.272 . S
O293 Co285 2.135 . S
Co294 O295 2.216 . S
Co294 O296 2.091 . S
Co294 O298 2.004 . S
Co294 O304 2.021 . S
Co294 O306 2.137 . S
Co294 O307 2.244 . S
O295 Co294 2.216 . S
O295 C302 1.247 . S
O296 Co294 2.091 . S
O296 C302 1.261 . S
C297 O306 1.247 . S
C297 O307 1.272 . S
O298 Co294 2.004 . S
O298 C303 1.259 . S
Co299 O300 2.061 . S
Co299 O305 2.052 . S
Co299 O307 2.135 . S
O300 Co299 2.061 . S
O300 C303 1.235 . S
C301 O304 1.238 . S
C301 O305 1.241 . S
C302 O295 1.247 . S
C302 O296 1.261 . S
C303 O298 1.259 . S
C303 O300 1.235 . S
O304 Co294 2.021 . S
O304 C301 1.238 . S
O305 Co299 2.052 . S
O305 C301 1.241 . S
O306 Co294 2.137 . S
O306 C297 1.247 . S
O307 Co294 2.244 . S
O307 C297 1.272 . S
O307 Co299 2.135 . S
Co308 O309 2.216 . S
Co308 O310 2.091 . S
Co308 O312 2.004 . S
Co308 O318 2.021 . S
Co308 O320 2.137 . S
Co308 O321 2.244 . S
O309 Co308 2.216 . S
O309 C316 1.247 . S
O310 Co308 2.091 . S
O310 C316 1.261 . S
C311 O320 1.247 . S
C311 O321 1.272 . S
O312 Co308 2.004 . S
O312 C317 1.259 . S
Co313 O314 2.061 . S
Co313 O319 2.052 . S
Co313 O321 2.135 . S
O314 Co313 2.061 . S
O314 C317 1.235 . S
C315 O318 1.238 . S
C315 O319 1.241 . S
C316 O309 1.247 . S
C316 O310 1.261 . S
C317 O312 1.259 . S
C317 O314 1.235 . S
O318 Co308 2.021 . S
O318 C315 1.238 . S
O319 Co313 2.052 . S
O319 C315 1.241 . S
O320 Co308 2.137 . S
O320 C311 1.247 . S
O321 Co308 2.244 . S
O321 C311 1.272 . S
O321 Co313 2.135 . S
Co322 O323 2.216 . S
Co322 O324 2.091 1_655 S
Co322 O326 2.004 . S
Co322 O332 2.021 . S
Co322 O334 2.137 . S
Co322 O335 2.244 . S
O323 Co322 2.216 . S
O323 C330 1.247 1_655 S
O324 Co322 2.091 1_455 S
O324 C330 1.261 . S
C325 O334 1.247 . S
C325 O335 1.272 . S
O326 Co322 2.004 . S
O326 C331 1.259 . S
Co327 O328 2.061 . S
Co327 O333 2.052 . S
Co327 O335 2.135 . S
O328 Co327 2.061 . S
O328 C331 1.235 . S
C329 O332 1.238 . S
C329 O333 1.241 . S
C330 O323 1.247 1_455 S
C330 O324 1.261 . S
C331 O326 1.259 . S
C331 O328 1.235 . S
O332 Co322 2.021 . S
O332 C329 1.238 . S
O333 Co327 2.052 . S
O333 C329 1.241 . S
O334 Co322 2.137 . S
O334 C325 1.247 . S
O335 Co322 2.244 . S
O335 C325 1.272 . S
O335 Co327 2.135 . S
Co336 O337 2.216 . S
Co336 O338 2.091 1_565 S
Co336 O340 2.004 1_565 S
Co336 O346 2.021 . S
Co336 O348 2.137 1_565 S
Co336 O349 2.244 . S
O337 Co336 2.216 . S
O337 C344 1.247 1_565 S
O338 Co336 2.091 1_545 S
O338 C344 1.261 . S
C339 O348 1.247 1_565 S
C339 O349 1.272 . S
O340 Co336 2.004 1_545 S
O340 C345 1.259 1_545 S
Co341 O342 2.061 . S
Co341 O347 2.052 . S
Co341 O349 2.135 . S
O342 Co341 2.061 . S
O342 C345 1.235 . S
C343 O346 1.238 . S
C343 O347 1.241 . S
C344 O337 1.247 1_545 S
C344 O338 1.261 . S
C345 O340 1.259 1_565 S
C345 O342 1.235 . S
O346 Co336 2.021 . S
O346 C343 1.238 . S
O347 Co341 2.052 . S
O347 C343 1.241 . S
O348 Co336 2.137 1_545 S
O348 C339 1.247 1_545 S
O349 Co336 2.244 . S
O349 C339 1.272 . S
O349 Co341 2.135 . S
Co350 O351 2.216 . S
Co350 O352 2.091 . S
Co350 O354 2.004 . S
Co350 O360 2.021 . S
Co350 O362 2.137 . S
Co350 O363 2.244 . S
O351 Co350 2.216 . S
O351 C358 1.247 . S
O352 Co350 2.091 . S
O352 C358 1.261 . S
C353 O362 1.247 . S
C353 O363 1.272 . S
O354 Co350 2.004 . S
O354 C359 1.259 . S
Co355 O356 2.061 . S
Co355 O361 2.052 . S
Co355 O363 2.135 . S
O356 Co355 2.061 . S
O356 C359 1.235 . S
C357 O360 1.238 . S
C357 O361 1.241 . S
C358 O351 1.247 . S
C358 O352 1.261 . S
C359 O354 1.259 . S
C359 O356 1.235 . S
O360 Co350 2.021 . S
O360 C357 1.238 . S
O361 Co355 2.052 . S
O361 C357 1.241 . S
O362 Co350 2.137 . S
O362 C353 1.247 . S
O363 Co350 2.244 . S
O363 C353 1.272 . S
O363 Co355 2.135 . S
Co364 O365 2.216 . S
Co364 O366 2.091 . S
Co364 O368 2.004 . S
Co364 O374 2.021 . S
Co364 O376 2.137 . S
Co364 O377 2.244 . S
O365 Co364 2.216 . S
O365 C372 1.247 . S
O366 Co364 2.091 . S
O366 C372 1.261 . S
C367 O376 1.247 . S
C367 O377 1.272 . S
O368 Co364 2.004 . S
O368 C373 1.259 . S
Co369 O370 2.061 . S
Co369 O375 2.052 . S
Co369 O377 2.135 . S
O370 Co369 2.061 . S
O370 C373 1.235 . S
C371 O374 1.238 . S
C371 O375 1.241 . S
C372 O365 1.247 . S
C372 O366 1.261 . S
C373 O368 1.259 . S
C373 O370 1.235 . S
O374 Co364 2.021 . S
O374 C371 1.238 . S
O375 Co369 2.052 . S
O375 C371 1.241 . S
O376 Co364 2.137 . S
O376 C367 1.247 . S
O377 Co364 2.244 . S
O377 C367 1.272 . S
O377 Co369 2.135 . S
Co378 O379 2.216 . S
Co378 O380 2.091 . S
Co378 O382 2.004 . S
Co378 O388 2.021 . S
Co378 O390 2.137 . S
Co378 O391 2.244 . S
O379 Co378 2.216 . S
O379 C386 1.247 . S
O380 Co378 2.091 . S
O380 C386 1.261 . S
C381 O390 1.247 . S
C381 O391 1.272 . S
O382 Co378 2.004 . S
O382 C387 1.259 . S
Co383 O384 2.061 . S
Co383 O389 2.052 . S
Co383 O391 2.135 . S
O384 Co383 2.061 . S
O384 C387 1.235 . S
C385 O388 1.238 . S
C385 O389 1.241 . S
C386 O379 1.247 . S
C386 O380 1.261 . S
C387 O382 1.259 . S
C387 O384 1.235 . S
O388 Co378 2.021 . S
O388 C385 1.238 . S
O389 Co383 2.052 . S
O389 C385 1.241 . S
O390 Co378 2.137 . S
O390 C381 1.247 . S
O391 Co378 2.244 . S
O391 C381 1.272 . S
O391 Co383 2.135 . S
Co392 O393 2.216 . S
Co392 O394 2.091 1_565 S
Co392 O396 2.004 . S
Co392 O402 2.021 . S
Co392 O404 2.137 . S
Co392 O405 2.244 . S
O393 Co392 2.216 . S
O393 C400 1.247 1_565 S
O394 Co392 2.091 1_545 S
O394 C400 1.261 . S
C395 O404 1.247 . S
C395 O405 1.272 . S
O396 Co392 2.004 . S
O396 C401 1.259 . S
Co397 O398 2.061 . S
Co397 O403 2.052 . S
Co397 O405 2.135 . S
O398 Co397 2.061 . S
O398 C401 1.235 . S
C399 O402 1.238 . S
C399 O403 1.241 . S
C400 O393 1.247 1_545 S
C400 O394 1.261 . S
C401 O396 1.259 . S
C401 O398 1.235 . S
O402 Co392 2.021 . S
O402 C399 1.238 . S
O403 Co397 2.052 . S
O403 C399 1.241 . S
O404 Co392 2.137 . S
O404 C395 1.247 . S
O405 Co392 2.244 . S
O405 C395 1.272 . S
O405 Co397 2.135 . S
Co406 O407 2.216 . S
Co406 O408 2.091 . S
Co406 O410 2.004 . S
Co406 O416 2.021 . S
Co406 O418 2.137 . S
Co406 O419 2.244 . S
O407 Co406 2.216 . S
O407 C414 1.247 . S
O408 Co406 2.091 . S
O408 C414 1.261 . S
C409 O418 1.247 . S
C409 O419 1.272 . S
O410 Co406 2.004 . S
O410 C415 1.259 . S
Co411 O412 2.061 . S
Co411 O417 2.052 . S
Co411 O419 2.135 . S
O412 Co411 2.061 . S
O412 C415 1.235 . S
C413 O416 1.238 . S
C413 O417 1.241 . S
C414 O407 1.247 . S
C414 O408 1.261 . S
C415 O410 1.259 . S
C415 O412 1.235 . S
O416 Co406 2.021 . S
O416 C413 1.238 . S
O417 Co411 2.052 . S
O417 C413 1.241 . S
O418 Co406 2.137 . S
O418 C409 1.247 . S
O419 Co406 2.244 . S
O419 C409 1.272 . S
O419 Co411 2.135 . S
Co420 O421 2.216 . S
Co420 O422 2.091 . S
Co420 O424 2.004 . S
Co420 O430 2.021 . S
Co420 O432 2.137 . S
Co420 O433 2.244 . S
O421 Co420 2.216 . S
O421 C428 1.247 . S
O422 Co420 2.091 . S
O422 C428 1.261 . S
C423 O432 1.247 . S
C423 O433 1.272 . S
O424 Co420 2.004 . S
O424 C429 1.259 . S
Co425 O426 2.061 . S
Co425 O431 2.052 . S
Co425 O433 2.135 . S
O426 Co425 2.061 . S
O426 C429 1.235 . S
C427 O430 1.238 . S
C427 O431 1.241 . S
C428 O421 1.247 . S
C428 O422 1.261 . S
C429 O424 1.259 . S
C429 O426 1.235 . S
O430 Co420 2.021 . S
O430 C427 1.238 . S
O431 Co425 2.052 . S
O431 C427 1.241 . S
O432 Co420 2.137 . S
O432 C423 1.247 . S
O433 Co420 2.244 . S
O433 C423 1.272 . S
O433 Co425 2.135 . S
Co434 O435 2.216 . S
Co434 O436 2.091 1_565 S
Co434 O438 2.004 . S
Co434 O444 2.021 . S
Co434 O446 2.137 . S
Co434 O447 2.244 . S
O435 Co434 2.216 . S
O435 C442 1.247 1_565 S
O436 Co434 2.091 1_545 S
O436 C442 1.261 . S
C437 O446 1.247 . S
C437 O447 1.272 . S
O438 Co434 2.004 . S
O438 C443 1.259 . S
Co439 O440 2.061 . S
Co439 O445 2.052 . S
Co439 O447 2.135 . S
O440 Co439 2.061 . S
O440 C443 1.235 . S
C441 O444 1.238 . S
C441 O445 1.241 . S
C442 O435 1.247 1_545 S
C442 O436 1.261 . S
C443 O438 1.259 . S
C443 O440 1.235 . S
O444 Co434 2.021 . S
O444 C441 1.238 . S
O445 Co439 2.052 . S
O445 C441 1.241 . S
O446 Co434 2.137 . S
O446 C437 1.247 . S
O447 Co434 2.244 . S
O447 C437 1.272 . S
O447 Co439 2.135 . S
Co448 O449 2.216 . S
Co448 O450 2.091 . S
Co448 O452 2.004 . S
Co448 O458 2.021 . S
Co448 O460 2.137 . S
Co448 O461 2.244 . S
O449 Co448 2.216 . S
O449 C456 1.247 . S
O450 Co448 2.091 . S
O450 C456 1.261 . S
C451 O460 1.247 . S
C451 O461 1.272 . S
O452 Co448 2.004 . S
O452 C457 1.259 . S
Co453 O454 2.061 . S
Co453 O459 2.052 . S
Co453 O461 2.135 . S
O454 Co453 2.061 . S
O454 C457 1.235 . S
C455 O458 1.238 . S
C455 O459 1.241 . S
C456 O449 1.247 . S
C456 O450 1.261 . S
C457 O452 1.259 . S
C457 O454 1.235 . S
O458 Co448 2.021 . S
O458 C455 1.238 . S
O459 Co453 2.052 . S
O459 C455 1.241 . S
O460 Co448 2.137 . S
O460 C451 1.247 . S
O461 Co448 2.244 . S
O461 C451 1.272 . S
O461 Co453 2.135 . S
Co462 O463 2.216 . S
Co462 O464 2.091 . S
Co462 O466 2.004 . S
Co462 O472 2.021 . S
Co462 O474 2.137 . S
Co462 O475 2.244 . S
O463 Co462 2.216 . S
O463 C470 1.247 . S
O464 Co462 2.091 . S
O464 C470 1.261 . S
C465 O474 1.247 . S
C465 O475 1.272 . S
O466 Co462 2.004 . S
O466 C471 1.259 . S
Co467 O468 2.061 . S
Co467 O473 2.052 . S
Co467 O475 2.135 . S
O468 Co467 2.061 . S
O468 C471 1.235 . S
C469 O472 1.238 . S
C469 O473 1.241 . S
C470 O463 1.247 . S
C470 O464 1.261 . S
C471 O466 1.259 . S
C471 O468 1.235 . S
O472 Co462 2.021 . S
O472 C469 1.238 . S
O473 Co467 2.052 . S
O473 C469 1.241 . S
O474 Co462 2.137 . S
O474 C465 1.247 . S
O475 Co462 2.244 . S
O475 C465 1.272 . S
O475 Co467 2.135 . S
Co476 O477 2.216 . S
Co476 O478 2.091 . S
Co476 O480 2.004 . S
Co476 O486 2.021 . S
Co476 O488 2.137 . S
Co476 O489 2.244 . S
O477 Co476 2.216 . S
O477 C484 1.247 . S
O478 Co476 2.091 . S
O478 C484 1.261 . S
C479 O488 1.247 . S
C479 O489 1.272 . S
O480 Co476 2.004 . S
O480 C485 1.259 . S
Co481 O482 2.061 . S
Co481 O487 2.052 . S
Co481 O489 2.135 . S
O482 Co481 2.061 . S
O482 C485 1.235 . S
C483 O486 1.238 . S
C483 O487 1.241 . S
C484 O477 1.247 . S
C484 O478 1.261 . S
C485 O480 1.259 . S
C485 O482 1.235 . S
O486 Co476 2.021 . S
O486 C483 1.238 . S
O487 Co481 2.052 . S
O487 C483 1.241 . S
O488 Co476 2.137 . S
O488 C479 1.247 . S
O489 Co476 2.244 . S
O489 C479 1.272 . S
O489 Co481 2.135 . S
Co490 O491 2.216 . S
Co490 O492 2.091 1_565 S
Co490 O494 2.004 1_565 S
Co490 O500 2.021 . S
Co490 O502 2.137 1_565 S
Co490 O503 2.244 . S
O491 Co490 2.216 . S
O491 C498 1.247 1_565 S
O492 Co490 2.091 1_545 S
O492 C498 1.261 . S
C493 O502 1.247 1_565 S
C493 O503 1.272 . S
O494 Co490 2.004 1_545 S
O494 C499 1.259 1_545 S
Co495 O496 2.061 . S
Co495 O501 2.052 . S
Co495 O503 2.135 . S
O496 Co495 2.061 . S
O496 C499 1.235 . S
C497 O500 1.238 . S
C497 O501 1.241 . S
C498 O491 1.247 1_545 S
C498 O492 1.261 . S
C499 O494 1.259 1_565 S
C499 O496 1.235 . S
O500 Co490 2.021 . S
O500 C497 1.238 . S
O501 Co495 2.052 . S
O501 C497 1.241 . S
O502 Co490 2.137 1_545 S
O502 C493 1.247 1_545 S
O503 Co490 2.244 . S
O503 C493 1.272 . S
O503 Co495 2.135 . S
H504 C510 0.930 . S
H505 C513 0.930 . S
H506 C514 0.930 . S
H507 C515 0.930 . S
H508 C518 0.930 . S
H509 C519 0.930 . S
C510 H504 0.930 . S
C510 C511 1.355 . S
C510 C512 1.415 . S
C511 C510 1.355 . S
C511 C513 1.419 . S
C512 C510 1.415 . S
C512 C517 1.425 . S
C512 C519 1.409 . S
C513 H505 0.930 . S
C513 C511 1.419 . S
C513 C514 1.362 . S
C514 H506 0.930 . S
C514 C513 1.362 . S
C514 C517 1.409 . S
C515 H507 0.930 . S
C515 C516 1.355 . S
C515 C517 1.415 . S
C516 C515 1.355 . S
C516 C518 1.419 . S
C517 C512 1.425 . S
C517 C514 1.409 . S
C517 C515 1.415 . S
C518 H508 0.930 . S
C518 C516 1.419 . S
C518 C519 1.362 . S
C519 H509 0.930 . S
C519 C512 1.409 . S
C519 C518 1.362 . S
H520 C526 0.930 . S
H521 C529 0.930 . S
H522 C530 0.930 . S
H523 C531 0.930 . S
H524 C534 0.930 . S
H525 C535 0.930 . S
C526 H520 0.930 . S
C526 C527 1.355 . S
C526 C528 1.415 . S
C527 C526 1.355 . S
C527 C529 1.419 . S
C528 C526 1.415 . S
C528 C533 1.425 . S
C528 C535 1.409 . S
C529 H521 0.930 . S
C529 C527 1.419 . S
C529 C530 1.362 . S
C530 H522 0.930 . S
C530 C529 1.362 . S
C530 C533 1.409 . S
C531 H523 0.930 . S
C531 C532 1.355 . S
C531 C533 1.415 . S
C532 C531 1.355 . S
C532 C534 1.419 . S
C533 C528 1.425 . S
C533 C530 1.409 . S
C533 C531 1.415 . S
C534 H524 0.930 . S
C534 C532 1.419 . S
C534 C535 1.362 . S
C535 H525 0.930 . S
C535 C528 1.409 . S
C535 C534 1.362 . S
H536 C542 0.930 . S
H537 C545 0.930 . S
H538 C546 0.930 . S
H539 C547 0.930 . S
H540 C550 0.930 . S
H541 C551 0.930 . S
C542 H536 0.930 . S
C542 C543 1.355 . S
C542 C544 1.415 . S
C543 C542 1.355 . S
C543 C545 1.419 . S
C544 C542 1.415 . S
C544 C549 1.425 . S
C544 C551 1.409 . S
C545 H537 0.930 . S
C545 C543 1.419 . S
C545 C546 1.362 . S
C546 H538 0.930 . S
C546 C545 1.362 . S
C546 C549 1.409 . S
C547 H539 0.930 . S
C547 C548 1.355 . S
C547 C549 1.415 . S
C548 C547 1.355 . S
C548 C550 1.419 . S
C549 C544 1.425 . S
C549 C546 1.409 . S
C549 C547 1.415 . S
C550 H540 0.930 . S
C550 C548 1.419 . S
C550 C551 1.362 . S
C551 H541 0.930 . S
C551 C544 1.409 . S
C551 C550 1.362 . S
H552 C558 0.930 . S
H553 C561 0.930 . S
H554 C562 0.930 . S
H555 C563 0.930 . S
H556 C566 0.930 . S
H557 C567 0.930 . S
C558 H552 0.930 . S
C558 C559 1.355 . S
C558 C560 1.415 . S
C559 C558 1.355 . S
C559 C561 1.419 . S
C560 C558 1.415 . S
C560 C565 1.425 . S
C560 C567 1.409 . S
C561 H553 0.930 . S
C561 C559 1.419 . S
C561 C562 1.362 . S
C562 H554 0.930 . S
C562 C561 1.362 . S
C562 C565 1.409 . S
C563 H555 0.930 . S
C563 C564 1.355 . S
C563 C565 1.415 . S
C564 C563 1.355 . S
C564 C566 1.419 . S
C565 C560 1.425 . S
C565 C562 1.409 . S
C565 C563 1.415 . S
C566 H556 0.930 . S
C566 C564 1.419 . S
C566 C567 1.362 . S
C567 H557 0.930 . S
C567 C560 1.409 . S
C567 C566 1.362 . S
H568 C574 0.930 . S
H569 C577 0.930 . S
H570 C578 0.930 . S
H571 C579 0.930 . S
H572 C582 0.930 . S
H573 C583 0.930 . S
C574 H568 0.930 . S
C574 C575 1.355 . S
C574 C576 1.415 . S
C575 C574 1.355 . S
C575 C577 1.419 . S
C576 C574 1.415 . S
C576 C581 1.425 . S
C576 C583 1.409 . S
C577 H569 0.930 . S
C577 C575 1.419 . S
C577 C578 1.362 . S
C578 H570 0.930 . S
C578 C577 1.362 . S
C578 C581 1.409 . S
C579 H571 0.930 . S
C579 C580 1.355 . S
C579 C581 1.415 . S
C580 C579 1.355 . S
C580 C582 1.419 . S
C581 C576 1.425 . S
C581 C578 1.409 . S
C581 C579 1.415 . S
C582 H572 0.930 . S
C582 C580 1.419 . S
C582 C583 1.362 . S
C583 H573 0.930 . S
C583 C576 1.409 . S
C583 C582 1.362 . S
H584 C590 0.930 . S
H585 C593 0.930 . S
H586 C594 0.930 . S
H587 C595 0.930 . S
H588 C598 0.930 . S
H589 C599 0.930 . S
C590 H584 0.930 . S
C590 C591 1.355 . S
C590 C592 1.415 . S
C591 C590 1.355 . S
C591 C593 1.419 . S
C592 C590 1.415 . S
C592 C597 1.425 . S
C592 C599 1.409 . S
C593 H585 0.930 . S
C593 C591 1.419 . S
C593 C594 1.362 . S
C594 H586 0.930 . S
C594 C593 1.362 . S
C594 C597 1.409 . S
C595 H587 0.930 . S
C595 C596 1.355 . S
C595 C597 1.415 . S
C596 C595 1.355 . S
C596 C598 1.419 . S
C597 C592 1.425 . S
C597 C594 1.409 . S
C597 C595 1.415 . S
C598 H588 0.930 . S
C598 C596 1.419 . S
C598 C599 1.362 . S
C599 H589 0.930 . S
C599 C592 1.409 . S
C599 C598 1.362 . S
H600 C606 0.930 . S
H601 C609 0.930 . S
H602 C610 0.930 . S
H603 C611 0.930 . S
H604 C614 0.930 . S
H605 C615 0.930 . S
C606 H600 0.930 . S
C606 C607 1.355 . S
C606 C608 1.415 . S
C607 C606 1.355 . S
C607 C609 1.419 . S
C608 C606 1.415 . S
C608 C613 1.425 . S
C608 C615 1.409 . S
C609 H601 0.930 . S
C609 C607 1.419 . S
C609 C610 1.362 . S
C610 H602 0.930 . S
C610 C609 1.362 . S
C610 C613 1.409 . S
C611 H603 0.930 . S
C611 C612 1.355 . S
C611 C613 1.415 . S
C612 C611 1.355 . S
C612 C614 1.419 . S
C613 C608 1.425 . S
C613 C610 1.409 . S
C613 C611 1.415 . S
C614 H604 0.930 . S
C614 C612 1.419 . S
C614 C615 1.362 . S
C615 H605 0.930 . S
C615 C608 1.409 . S
C615 C614 1.362 . S
H616 C622 0.930 . S
H617 C625 0.930 . S
H618 C626 0.930 . S
H619 C627 0.930 . S
H620 C630 0.930 . S
H621 C631 0.930 . S
C622 H616 0.930 . S
C622 C623 1.355 . S
C622 C624 1.415 . S
C623 C622 1.355 . S
C623 C625 1.419 . S
C624 C622 1.415 . S
C624 C629 1.425 . S
C624 C631 1.409 . S
C625 H617 0.930 . S
C625 C623 1.419 . S
C625 C626 1.362 . S
C626 H618 0.930 . S
C626 C625 1.362 . S
C626 C629 1.409 . S
C627 H619 0.930 . S
C627 C628 1.355 . S
C627 C629 1.415 . S
C628 C627 1.355 . S
C628 C630 1.419 . S
C629 C624 1.425 . S
C629 C626 1.409 . S
C629 C627 1.415 . S
C630 H620 0.930 . S
C630 C628 1.419 . S
C630 C631 1.362 . S
C631 H621 0.930 . S
C631 C624 1.409 . S
C631 C630 1.362 . S
H632 C638 0.930 . S
H633 C641 0.930 . S
H634 C642 0.930 . S
H635 C643 0.930 . S
H636 C646 0.930 . S
H637 C647 0.930 . S
C638 H632 0.930 . S
C638 C639 1.355 . S
C638 C640 1.415 . S
C639 C638 1.355 . S
C639 C641 1.419 . S
C640 C638 1.415 . S
C640 C645 1.425 . S
C640 C647 1.409 . S
C641 H633 0.930 . S
C641 C639 1.419 . S
C641 C642 1.362 . S
C642 H634 0.930 . S
C642 C641 1.362 . S
C642 C645 1.409 . S
C643 H635 0.930 . S
C643 C644 1.355 . S
C643 C645 1.415 . S
C644 C643 1.355 . S
C644 C646 1.419 . S
C645 C640 1.425 . S
C645 C642 1.409 . S
C645 C643 1.415 . S
C646 H636 0.930 . S
C646 C644 1.419 . S
C646 C647 1.362 . S
C647 H637 0.930 . S
C647 C640 1.409 . S
C647 C646 1.362 . S
H648 C654 0.930 . S
H649 C657 0.930 . S
H650 C658 0.930 . S
H651 C659 0.930 . S
H652 C662 0.930 . S
H653 C663 0.930 . S
C654 H648 0.930 . S
C654 C655 1.355 1_455 S
C654 C656 1.427 . S
C655 C654 1.355 1_655 S
C655 C657 1.419 . S
C656 C654 1.427 . S
C656 C661 1.407 1_455 S
C656 C663 1.415 . S
C657 H649 0.930 . S
C657 C655 1.419 . S
C657 C658 1.362 . S
C658 H650 0.930 . S
C658 C657 1.362 . S
C658 C661 1.409 . S
C659 H651 0.930 . S
C659 C660 1.355 . S
C659 C661 1.415 . S
C660 C659 1.355 . S
C660 C662 1.419 1_655 S
C661 C656 1.407 1_655 S
C661 C658 1.409 . S
C661 C659 1.415 . S
C662 H652 0.930 . S
C662 C660 1.419 1_455 S
C662 C663 1.362 . S
C663 H653 0.930 . S
C663 C656 1.415 . S
C663 C662 1.362 . S
H664 C670 0.930 . S
H665 C673 0.930 . S
H666 C674 0.930 . S
H667 C675 0.930 . S
H668 C678 0.930 . S
H669 C679 0.930 . S
C670 H664 0.930 . S
C670 C671 1.355 . S
C670 C672 1.415 . S
C671 C670 1.355 . S
C671 C673 1.419 . S
C672 C670 1.415 . S
C672 C677 1.425 . S
C672 C679 1.409 . S
C673 H665 0.930 . S
C673 C671 1.419 . S
C673 C674 1.362 . S
C674 H666 0.930 . S
C674 C673 1.362 . S
C674 C677 1.409 . S
C675 H667 0.930 . S
C675 C676 1.355 . S
C675 C677 1.415 . S
C676 C675 1.355 . S
C676 C678 1.419 . S
C677 C672 1.425 . S
C677 C674 1.409 . S
C677 C675 1.415 . S
C678 H668 0.930 . S
C678 C676 1.419 . S
C678 C679 1.362 . S
C679 H669 0.930 . S
C679 C672 1.409 . S
C679 C678 1.362 . S
H680 C686 0.930 . S
H681 C689 0.930 . S
H682 C690 0.930 . S
H683 C691 0.930 . S
H684 C694 0.930 . S
H685 C695 0.930 . S
C686 H680 0.930 . S
C686 C687 1.355 . S
C686 C688 1.415 . S
C687 C686 1.355 . S
C687 C689 1.419 . S
C688 C686 1.415 . S
C688 C693 1.425 . S
C688 C695 1.409 . S
C689 H681 0.930 . S
C689 C687 1.419 . S
C689 C690 1.362 . S
C690 H682 0.930 . S
C690 C689 1.362 . S
C690 C693 1.409 . S
C691 H683 0.930 . S
C691 C692 1.355 . S
C691 C693 1.415 . S
C692 C691 1.355 . S
C692 C694 1.419 . S
C693 C688 1.425 . S
C693 C690 1.409 . S
C693 C691 1.415 . S
C694 H684 0.930 . S
C694 C692 1.419 . S
C694 C695 1.362 . S
C695 H685 0.930 . S
C695 C688 1.409 . S
C695 C694 1.362 . S
H696 C702 0.930 . S
H697 C705 0.917 1_545 S
H698 C706 0.930 . S
H699 C707 0.930 1_545 S
H700 C710 0.930 . S
H701 C711 0.930 . S
C702 H696 0.930 . S
C702 C703 1.355 . S
C702 C704 1.415 . S
C703 C702 1.355 . S
C703 C705 1.423 . S
C704 C702 1.415 . S
C704 C709 1.425 . S
C704 C711 1.409 . S
C705 H697 0.917 1_565 S
C705 C703 1.423 . S
C705 C706 1.371 1_565 S
C706 H698 0.930 . S
C706 C705 1.371 1_545 S
C706 C709 1.409 1_545 S
C707 H699 0.930 1_565 S
C707 C708 1.355 . S
C707 C709 1.415 . S
C708 C707 1.355 . S
C708 C710 1.419 . S
C709 C704 1.425 . S
C709 C706 1.409 1_565 S
C709 C707 1.415 . S
C710 H700 0.930 . S
C710 C708 1.419 . S
C710 C711 1.362 . S
C711 H701 0.930 . S
C711 C704 1.409 . S
C711 C710 1.362 . S
H712 C718 0.930 . S
H713 C721 0.930 . S
H714 C722 0.930 . S
H715 C723 0.930 . S
H716 C726 0.930 . S
H717 C727 0.930 . S
C718 H712 0.930 . S
C718 C719 1.355 . S
C718 C720 1.415 . S
C719 C718 1.355 . S
C719 C721 1.419 . S
C720 C718 1.415 . S
C720 C725 1.425 . S
C720 C727 1.409 . S
C721 H713 0.930 . S
C721 C719 1.419 . S
C721 C722 1.362 . S
C722 H714 0.930 . S
C722 C721 1.362 . S
C722 C725 1.409 . S
C723 H715 0.930 . S
C723 C724 1.355 . S
C723 C725 1.415 . S
C724 C723 1.355 . S
C724 C726 1.419 . S
C725 C720 1.425 . S
C725 C722 1.409 . S
C725 C723 1.415 . S
C726 H716 0.930 . S
C726 C724 1.419 . S
C726 C727 1.362 . S
C727 H717 0.930 . S
C727 C720 1.409 . S
C727 C726 1.362 . S
H728 C734 0.930 . S
H729 C737 0.930 . S
H730 C738 0.930 . S
H731 C739 0.930 . S
H732 C742 0.930 . S
H733 C743 0.930 . S
C734 H728 0.930 . S
C734 C735 1.355 . S
C734 C736 1.415 . S
C735 C734 1.355 . S
C735 C737 1.419 . S
C736 C734 1.415 . S
C736 C741 1.425 . S
C736 C743 1.409 . S
C737 H729 0.930 . S
C737 C735 1.419 . S
C737 C738 1.362 . S
C738 H730 0.930 . S
C738 C737 1.362 . S
C738 C741 1.409 . S
C739 H731 0.930 . S
C739 C740 1.355 . S
C739 C741 1.415 . S
C740 C739 1.355 . S
C740 C742 1.419 . S
C741 C736 1.425 . S
C741 C738 1.409 . S
C741 C739 1.415 . S
C742 H732 0.930 . S
C742 C740 1.419 . S
C742 C743 1.362 . S
C743 H733 0.930 . S
C743 C736 1.409 . S
C743 C742 1.362 . S
H744 C750 0.930 . S
H745 C753 0.930 . S
H746 C754 0.930 . S
H747 C755 0.930 . S
H748 C758 0.930 . S
H749 C759 0.930 . S
C750 H744 0.930 . S
C750 C751 1.355 . S
C750 C752 1.415 . S
C751 C750 1.355 . S
C751 C753 1.419 . S
C752 C750 1.415 . S
C752 C757 1.425 . S
C752 C759 1.409 . S
C753 H745 0.930 . S
C753 C751 1.419 . S
C753 C754 1.362 . S
C754 H746 0.930 . S
C754 C753 1.362 . S
C754 C757 1.409 . S
C755 H747 0.930 . S
C755 C756 1.355 . S
C755 C757 1.415 . S
C756 C755 1.355 . S
C756 C758 1.419 . S
C757 C752 1.425 . S
C757 C754 1.409 . S
C757 C755 1.415 . S
C758 H748 0.930 . S
C758 C756 1.419 . S
C758 C759 1.362 . S
C759 H749 0.930 . S
C759 C752 1.409 . S
C759 C758 1.362 . S
H760 C766 0.930 . S
H761 C769 0.930 . S
H762 C770 0.930 . S
H763 C771 0.930 . S
H764 C774 0.930 . S
H765 C775 0.930 . S
C766 H760 0.930 . S
C766 C767 1.355 . S
C766 C768 1.415 . S
C767 C766 1.355 . S
C767 C769 1.419 . S
C768 C766 1.415 . S
C768 C773 1.425 . S
C768 C775 1.409 . S
C769 H761 0.930 . S
C769 C767 1.419 . S
C769 C770 1.362 . S
C770 H762 0.930 . S
C770 C769 1.362 . S
C770 C773 1.409 . S
C771 H763 0.930 . S
C771 C772 1.355 . S
C771 C773 1.415 . S
C772 C771 1.355 . S
C772 C774 1.419 . S
C773 C768 1.425 . S
C773 C770 1.409 . S
C773 C771 1.415 . S
C774 H764 0.930 . S
C774 C772 1.419 . S
C774 C775 1.362 . S
C775 H765 0.930 . S
C775 C768 1.409 . S
C775 C774 1.362 . S
H776 C782 0.930 . S
H777 C785 0.930 . S
H778 C786 0.930 . S
H779 C787 0.930 . S
H780 C790 0.930 . S
H781 C791 0.930 . S
C782 H776 0.930 . S
C782 C783 1.355 . S
C782 C784 1.415 . S
C783 C782 1.355 . S
C783 C785 1.419 . S
C784 C782 1.415 . S
C784 C789 1.425 . S
C784 C791 1.409 . S
C785 H777 0.930 . S
C785 C783 1.419 . S
C785 C786 1.362 . S
C786 H778 0.930 . S
C786 C785 1.362 . S
C786 C789 1.409 . S
C787 H779 0.930 . S
C787 C788 1.355 . S
C787 C789 1.415 . S
C788 C787 1.355 . S
C788 C790 1.419 . S
C789 C784 1.425 . S
C789 C786 1.409 . S
C789 C787 1.415 . S
C790 H780 0.930 . S
C790 C788 1.419 . S
C790 C791 1.362 . S
C791 H781 0.930 . S
C791 C784 1.409 . S
C791 C790 1.362 . S
H792 C798 0.930 1_655 S
H793 C801 0.930 . S
H794 C802 0.930 . S
H795 C803 0.930 . S
H796 C806 0.930 . S
H797 C807 0.930 . S
C798 H792 0.930 1_455 S
C798 C799 1.355 . S
C798 C800 1.415 . S
C799 C798 1.355 . S
C799 C801 1.419 . S
C800 C798 1.415 . S
C800 C805 1.425 . S
C800 C807 1.409 1_455 S
C801 H793 0.930 . S
C801 C799 1.419 . S
C801 C802 1.362 . S
C802 H794 0.930 . S
C802 C801 1.362 . S
C802 C805 1.409 . S
C803 H795 0.930 . S
C803 C804 1.355 . S
C803 C805 1.415 . S
C804 C803 1.355 . S
C804 C806 1.419 1_455 S
C805 C800 1.425 . S
C805 C802 1.409 . S
C805 C803 1.415 . S
C806 H796 0.930 . S
C806 C804 1.419 1_655 S
C806 C807 1.362 . S
C807 H797 0.930 . S
C807 C800 1.409 1_655 S
C807 C806 1.362 . S
H808 C814 0.930 . S
H809 C817 0.930 . S
H810 C818 0.930 . S
H811 C819 0.930 . S
H812 C822 0.930 . S
H813 C823 0.930 . S
C814 H808 0.930 . S
C814 C815 1.355 . S
C814 C816 1.415 . S
C815 C814 1.355 . S
C815 C817 1.419 . S
C816 C814 1.415 . S
C816 C821 1.425 . S
C816 C823 1.409 . S
C817 H809 0.930 . S
C817 C815 1.419 . S
C817 C818 1.362 . S
C818 H810 0.930 . S
C818 C817 1.362 . S
C818 C821 1.409 . S
C819 H811 0.930 . S
C819 C820 1.355 . S
C819 C821 1.415 . S
C820 C819 1.355 . S
C820 C822 1.419 . S
C821 C816 1.425 . S
C821 C818 1.409 . S
C821 C819 1.415 . S
C822 H812 0.930 . S
C822 C820 1.419 . S
C822 C823 1.362 . S
C823 H813 0.930 . S
C823 C816 1.409 . S
C823 C822 1.362 . S
H824 C830 0.930 . S
H825 C833 0.930 . S
H826 C834 0.930 . S
H827 C835 0.930 . S
H828 C838 0.930 . S
H829 C839 0.930 . S
C830 H824 0.930 . S
C830 C831 1.355 . S
C830 C832 1.415 . S
C831 C830 1.355 . S
C831 C833 1.419 . S
C832 C830 1.415 . S
C832 C837 1.425 . S
C832 C839 1.409 . S
C833 H825 0.930 . S
C833 C831 1.419 . S
C833 C834 1.362 . S
C834 H826 0.930 . S
C834 C833 1.362 . S
C834 C837 1.409 . S
C835 H827 0.930 . S
C835 C836 1.355 . S
C835 C837 1.415 . S
C836 C835 1.355 . S
C836 C838 1.419 . S
C837 C832 1.425 . S
C837 C834 1.409 . S
C837 C835 1.415 . S
C838 H828 0.930 . S
C838 C836 1.419 . S
C838 C839 1.362 . S
C839 H829 0.930 . S
C839 C832 1.409 . S
C839 C838 1.362 . S
H840 C846 0.942 . S
H841 C849 0.930 . S
H842 C850 0.930 . S
H843 C851 0.930 . S
H844 C854 0.930 . S
H845 C855 0.930 . S
C846 H840 0.942 . S
C846 C847 1.343 1_565 S
C846 C848 1.415 1_565 S
C847 C846 1.343 1_545 S
C847 C849 1.419 . S
C848 C846 1.415 1_545 S
C848 C853 1.425 . S
C848 C855 1.409 1_545 S
C849 H841 0.930 . S
C849 C847 1.419 . S
C849 C850 1.362 . S
C850 H842 0.930 . S
C850 C849 1.362 . S
C850 C853 1.409 . S
C851 H843 0.930 . S
C851 C852 1.355 . S
C851 C853 1.415 . S
C852 C851 1.355 . S
C852 C854 1.419 1_545 S
C853 C848 1.425 . S
C853 C850 1.409 . S
C853 C851 1.415 . S
C854 H844 0.930 . S
C854 C852 1.419 1_565 S
C854 C855 1.362 . S
C855 H845 0.930 . S
C855 C848 1.409 1_565 S
C855 C854 1.362 . S
H856 C862 0.930 . S
H857 C865 0.930 . S
H858 C866 0.930 . S
H859 C867 0.930 . S
H860 C870 0.930 . S
H861 C871 0.930 . S
C862 H856 0.930 . S
C862 C863 1.355 . S
C862 C864 1.415 . S
C863 C862 1.355 . S
C863 C865 1.419 . S
C864 C862 1.415 . S
C864 C869 1.425 . S
C864 C871 1.409 . S
C865 H857 0.930 . S
C865 C863 1.419 . S
C865 C866 1.362 . S
C866 H858 0.930 . S
C866 C865 1.362 . S
C866 C869 1.409 . S
C867 H859 0.930 . S
C867 C868 1.355 . S
C867 C869 1.415 . S
C868 C867 1.355 . S
C868 C870 1.419 . S
C869 C864 1.425 . S
C869 C866 1.409 . S
C869 C867 1.415 . S
C870 H860 0.930 . S
C870 C868 1.419 . S
C870 C871 1.362 . S
C871 H861 0.930 . S
C871 C864 1.409 . S
C871 C870 1.362 . S
H872 C878 0.930 . S
H873 C881 0.930 . S
H874 C882 0.930 . S
H875 C883 0.930 . S
H876 C886 0.930 . S
H877 C887 0.930 . S
C878 H872 0.930 . S
C878 C879 1.355 . S
C878 C880 1.415 . S
C879 C878 1.355 . S
C879 C881 1.419 . S
C880 C878 1.415 . S
C880 C885 1.425 . S
C880 C887 1.409 . S
C881 H873 0.930 . S
C881 C879 1.419 . S
C881 C882 1.362 . S
C882 H874 0.930 . S
C882 C881 1.362 . S
C882 C885 1.409 . S
C883 H875 0.930 . S
C883 C884 1.355 . S
C883 C885 1.415 . S
C884 C883 1.355 . S
C884 C886 1.419 . S
C885 C880 1.425 . S
C885 C882 1.409 . S
C885 C883 1.415 . S
C886 H876 0.930 . S
C886 C884 1.419 . S
C886 C887 1.362 . S
C887 H877 0.930 . S
C887 C880 1.409 . S
C887 C886 1.362 . S
H888 C894 0.930 . S
H889 C897 0.930 . S
H890 C898 0.930 . S
H891 C899 0.930 . S
H892 C902 0.930 . S
H893 C903 0.930 . S
C894 H888 0.930 . S
C894 C895 1.355 . S
C894 C896 1.415 . S
C895 C894 1.355 . S
C895 C897 1.419 . S
C896 C894 1.415 . S
C896 C901 1.425 . S
C896 C903 1.409 . S
C897 H889 0.930 . S
C897 C895 1.419 . S
C897 C898 1.362 . S
C898 H890 0.930 . S
C898 C897 1.362 . S
C898 C901 1.409 . S
C899 H891 0.930 . S
C899 C900 1.355 . S
C899 C901 1.415 . S
C900 C899 1.355 . S
C900 C902 1.419 . S
C901 C896 1.425 . S
C901 C898 1.409 . S
C901 C899 1.415 . S
C902 H892 0.930 . S
C902 C900 1.419 . S
C902 C903 1.362 . S
C903 H893 0.930 . S
C903 C896 1.409 . S
C903 C902 1.362 . S
H904 C910 0.930 . S
H905 C913 0.930 . S
H906 C914 0.930 . S
H907 C915 0.930 . S
H908 C918 0.930 . S
H909 C919 0.930 . S
C910 H904 0.930 . S
C910 C911 1.355 . S
C910 C912 1.415 . S
C911 C910 1.355 . S
C911 C913 1.419 . S
C912 C910 1.415 . S
C912 C917 1.425 . S
C912 C919 1.409 . S
C913 H905 0.930 . S
C913 C911 1.419 . S
C913 C914 1.362 . S
C914 H906 0.930 . S
C914 C913 1.362 . S
C914 C917 1.409 . S
C915 H907 0.930 . S
C915 C916 1.355 . S
C915 C917 1.415 . S
C916 C915 1.355 . S
C916 C918 1.419 . S
C917 C912 1.425 . S
C917 C914 1.409 . S
C917 C915 1.415 . S
C918 H908 0.930 . S
C918 C916 1.419 . S
C918 C919 1.362 . S
C919 H909 0.930 . S
C919 C912 1.409 . S
C919 C918 1.362 . S
H920 C926 0.930 . S
H921 C929 0.930 . S
H922 C930 0.930 . S
H923 C931 0.930 . S
H924 C934 0.930 . S
H925 C935 0.930 . S
C926 H920 0.930 . S
C926 C927 1.355 . S
C926 C928 1.415 . S
C927 C926 1.355 . S
C927 C929 1.419 1_545 S
C928 C926 1.415 . S
C928 C933 1.425 . S
C928 C935 1.409 . S
C929 H921 0.930 . S
C929 C927 1.419 1_565 S
C929 C930 1.362 . S
C930 H922 0.930 . S
C930 C929 1.362 . S
C930 C933 1.409 1_565 S
C931 H923 0.930 . S
C931 C932 1.355 1_565 S
C931 C933 1.415 1_565 S
C932 C931 1.355 1_545 S
C932 C934 1.419 . S
C933 C928 1.425 . S
C933 C930 1.409 1_545 S
C933 C931 1.415 1_545 S
C934 H924 0.930 . S
C934 C932 1.419 . S
C934 C935 1.362 . S
C935 H925 0.930 . S
C935 C928 1.409 . S
C935 C934 1.362 . S
H936 C942 0.930 . S
H937 C945 0.930 1_565 S
H938 C946 0.930 1_565 S
H939 C947 0.930 . S
H940 C950 0.930 . S
H941 C951 0.930 . S
C942 H936 0.930 . S
C942 C943 1.355 . S
C942 C944 1.415 . S
C943 C942 1.355 . S
C943 C945 1.419 . S
C944 C942 1.415 . S
C944 C949 1.425 . S
C944 C951 1.409 . S
C945 H937 0.930 1_545 S
C945 C943 1.419 . S
C945 C946 1.362 . S
C946 H938 0.930 1_545 S
C946 C945 1.362 . S
C946 C949 1.409 . S
C947 H939 0.930 . S
C947 C948 1.355 . S
C947 C949 1.415 . S
C948 C947 1.355 . S
C948 C950 1.419 . S
C949 C944 1.425 . S
C949 C946 1.409 . S
C949 C947 1.415 . S
C950 H940 0.930 . S
C950 C948 1.419 . S
C950 C951 1.362 . S
C951 H941 0.930 . S
C951 C944 1.409 . S
C951 C950 1.362 . S
H952 C958 0.930 1_655 S
H953 C961 0.930 . S
H954 C962 0.930 . S
H955 C963 0.930 . S
H956 C966 0.930 . S
H957 C967 0.930 . S
C958 H952 0.930 1_455 S
C958 C959 1.355 . S
C958 C960 1.415 . S
C959 C958 1.355 . S
C959 C961 1.419 . S
C960 C958 1.415 . S
C960 C965 1.425 . S
C960 C967 1.409 1_455 S
C961 H953 0.930 . S
C961 C959 1.419 . S
C961 C962 1.362 . S
C962 H954 0.930 . S
C962 C961 1.362 . S
C962 C965 1.409 . S
C963 H955 0.930 . S
C963 C964 1.355 . S
C963 C965 1.415 . S
C964 C963 1.355 . S
C964 C966 1.419 1_455 S
C965 C960 1.425 . S
C965 C962 1.409 . S
C965 C963 1.415 . S
C966 H956 0.930 . S
C966 C964 1.419 1_655 S
C966 C967 1.362 . S
C967 H957 0.930 . S
C967 C960 1.409 1_655 S
C967 C966 1.362 . S
H968 C974 0.930 . S
H969 C977 0.930 . S
H970 C978 0.930 . S
H971 C979 0.930 . S
H972 C982 0.930 . S
H973 C983 0.930 . S
C974 H968 0.930 . S
C974 C975 1.355 . S
C974 C976 1.415 . S
C975 C974 1.355 . S
C975 C977 1.419 . S
C976 C974 1.415 . S
C976 C981 1.425 . S
C976 C983 1.409 . S
C977 H969 0.930 . S
C977 C975 1.419 . S
C977 C978 1.362 . S
C978 H970 0.930 . S
C978 C977 1.362 . S
C978 C981 1.409 . S
C979 H971 0.930 . S
C979 C980 1.355 . S
C979 C981 1.415 . S
C980 C979 1.355 . S
C980 C982 1.419 . S
C981 C976 1.425 . S
C981 C978 1.409 . S
C981 C979 1.415 . S
C982 H972 0.930 . S
C982 C980 1.419 . S
C982 C983 1.362 . S
C983 H973 0.930 . S
C983 C976 1.409 . S
C983 C982 1.362 . S
H984 C990 0.930 . S
H985 C993 0.930 . S
H986 C994 0.930 . S
H987 C995 0.930 . S
H988 C998 0.930 . S
H989 C999 0.930 . S
C990 H984 0.930 . S
C990 C991 1.355 . S
C990 C992 1.415 . S
C991 C990 1.355 . S
C991 C993 1.419 . S
C992 C990 1.415 . S
C992 C997 1.425 . S
C992 C999 1.409 . S
C993 H985 0.930 . S
C993 C991 1.419 . S
C993 C994 1.362 . S
C994 H986 0.930 . S
C994 C993 1.362 . S
C994 C997 1.409 . S
C995 H987 0.930 . S
C995 C996 1.355 . S
C995 C997 1.415 . S
C996 C995 1.355 . S
C996 C998 1.419 . S
C997 C992 1.425 . S
C997 C994 1.409 . S
C997 C995 1.415 . S
C998 H988 0.930 . S
C998 C996 1.419 . S
C998 C999 1.362 . S
C999 H989 0.930 . S
C999 C992 1.409 . S
C999 C998 1.362 . S
H1000 C1006 0.930 . S
H1001 C1009 0.933 1_565 S
H1002 C1010 0.900 1_565 S
H1003 C1011 0.930 1_565 S
H1004 C1014 0.930 . S
H1005 C1015 0.930 . S
C1006 H1000 0.930 . S
C1006 C1007 1.355 . S
C1006 C1008 1.415 . S
C1007 C1006 1.355 . S
C1007 C1009 1.419 . S
C1008 C1006 1.415 . S
C1008 C1013 1.425 . S
C1008 C1015 1.409 . S
C1009 H1001 0.933 1_545 S
C1009 C1007 1.419 . S
C1009 C1010 1.373 . S
C1010 H1002 0.900 1_545 S
C1010 C1009 1.373 . S
C1010 C1013 1.429 . S
C1011 H1003 0.930 1_545 S
C1011 C1012 1.355 . S
C1011 C1013 1.415 . S
C1012 C1011 1.355 . S
C1012 C1014 1.419 . S
C1013 C1008 1.425 . S
C1013 C1010 1.429 . S
C1013 C1011 1.415 . S
C1014 H1004 0.930 . S
C1014 C1012 1.419 . S
C1014 C1015 1.362 . S
C1015 H1005 0.930 . S
C1015 C1008 1.409 . S
C1015 C1014 1.362 . S
H1016 C1022 0.930 . S
H1017 C1025 0.930 . S
H1018 C1026 0.930 . S
H1019 C1027 0.930 . S
H1020 C1030 0.930 . S
H1021 C1031 0.930 . S
C1022 H1016 0.930 . S
C1022 C1023 1.355 . S
C1022 C1024 1.415 . S
C1023 C1022 1.355 . S
C1023 C1025 1.419 . S
C1024 C1022 1.415 . S
C1024 C1029 1.425 . S
C1024 C1031 1.409 . S
C1025 H1017 0.930 . S
C1025 C1023 1.419 . S
C1025 C1026 1.362 . S
C1026 H1018 0.930 . S
C1026 C1025 1.362 . S
C1026 C1029 1.409 . S
C1027 H1019 0.930 . S
C1027 C1028 1.355 . S
C1027 C1029 1.415 . S
C1028 C1027 1.355 . S
C1028 C1030 1.419 . S
C1029 C1024 1.425 . S
C1029 C1026 1.409 . S
C1029 C1027 1.415 . S
C1030 H1020 0.930 . S
C1030 C1028 1.419 . S
C1030 C1031 1.362 . S
C1031 H1021 0.930 . S
C1031 C1024 1.409 . S
C1031 C1030 1.362 . S
H1032 C1038 0.930 . S
H1033 C1041 0.930 . S
H1034 C1042 0.930 . S
H1035 C1043 0.930 . S
H1036 C1046 0.930 . S
H1037 C1047 0.930 . S
C1038 H1032 0.930 . S
C1038 C1039 1.355 . S
C1038 C1040 1.415 . S
C1039 C1038 1.355 . S
C1039 C1041 1.419 . S
C1040 C1038 1.415 . S
C1040 C1045 1.425 . S
C1040 C1047 1.409 . S
C1041 H1033 0.930 . S
C1041 C1039 1.419 . S
C1041 C1042 1.362 . S
C1042 H1034 0.930 . S
C1042 C1041 1.362 . S
C1042 C1045 1.409 . S
C1043 H1035 0.930 . S
C1043 C1044 1.355 . S
C1043 C1045 1.415 . S
C1044 C1043 1.355 . S
C1044 C1046 1.419 . S
C1045 C1040 1.425 . S
C1045 C1042 1.409 . S
C1045 C1043 1.415 . S
C1046 H1036 0.930 . S
C1046 C1044 1.419 . S
C1046 C1047 1.362 . S
C1047 H1037 0.930 . S
C1047 C1040 1.409 . S
C1047 C1046 1.362 . S
H1048 C1054 0.930 1_565 S
H1049 C1057 0.930 . S
H1050 C1058 0.930 . S
H1051 C1059 0.930 . S
H1052 C1062 0.930 1_565 S
H1053 C1063 0.930 . S
C1054 H1048 0.930 1_545 S
C1054 C1055 1.355 . S
C1054 C1056 1.415 . S
C1055 C1054 1.355 . S
C1055 C1057 1.419 . S
C1056 C1054 1.415 . S
C1056 C1061 1.425 . S
C1056 C1063 1.409 1_545 S
C1057 H1049 0.930 . S
C1057 C1055 1.419 . S
C1057 C1058 1.362 . S
C1058 H1050 0.930 . S
C1058 C1057 1.362 . S
C1058 C1061 1.409 . S
C1059 H1051 0.930 . S
C1059 C1060 1.355 . S
C1059 C1061 1.415 . S
C1060 C1059 1.355 . S
C1060 C1062 1.419 . S
C1061 C1056 1.425 . S
C1061 C1058 1.409 . S
C1061 C1059 1.415 . S
C1062 H1052 0.930 1_545 S
C1062 C1060 1.419 . S
C1062 C1063 1.362 1_545 S
C1063 H1053 0.930 . S
C1063 C1056 1.409 1_565 S
C1063 C1062 1.362 1_565 S
H1064 C1070 0.930 . S
H1065 C1073 0.930 . S
H1066 C1074 0.930 . S
H1067 C1075 0.930 . S
H1068 C1078 0.930 . S
H1069 C1079 0.930 . S
C1070 H1064 0.930 . S
C1070 C1071 1.355 . S
C1070 C1072 1.415 . S
C1071 C1070 1.355 . S
C1071 C1073 1.419 1_455 S
C1072 C1070 1.415 . S
C1072 C1077 1.425 . S
C1072 C1079 1.409 . S
C1073 H1065 0.930 . S
C1073 C1071 1.419 1_655 S
C1073 C1074 1.362 . S
C1074 H1066 0.930 . S
C1074 C1073 1.362 . S
C1074 C1077 1.409 1_655 S
C1075 H1067 0.930 . S
C1075 C1076 1.355 . S
C1075 C1077 1.415 . S
C1076 C1075 1.355 . S
C1076 C1078 1.419 . S
C1077 C1072 1.425 . S
C1077 C1074 1.409 1_455 S
C1077 C1075 1.415 . S
C1078 H1068 0.930 . S
C1078 C1076 1.419 . S
C1078 C1079 1.362 . S
C1079 H1069 0.930 . S
C1079 C1072 1.409 . S
C1079 C1078 1.362 . S
H1080 C1086 0.930 . S
H1081 C1089 0.930 . S
H1082 C1090 0.930 . S
H1083 C1091 0.930 . S
H1084 C1094 0.930 . S
H1085 C1095 0.930 . S
C1086 H1080 0.930 . S
C1086 C1087 1.355 . S
C1086 C1088 1.415 . S
C1087 C1086 1.355 . S
C1087 C1089 1.419 . S
C1088 C1086 1.415 . S
C1088 C1093 1.425 1_554 S
C1088 C1095 1.409 1_554 S
C1089 H1081 0.930 . S
C1089 C1087 1.419 . S
C1089 C1090 1.362 . S
C1090 H1082 0.930 . S
C1090 C1089 1.362 . S
C1090 C1093 1.409 1_554 S
C1091 H1083 0.930 . S
C1091 C1092 1.355 . S
C1091 C1093 1.415 . S
C1092 C1091 1.355 . S
C1092 C1094 1.419 . S
C1093 C1088 1.425 1_556 S
C1093 C1090 1.409 1_556 S
C1093 C1091 1.415 . S
C1094 H1084 0.930 . S
C1094 C1092 1.419 . S
C1094 C1095 1.362 . S
C1095 H1085 0.930 . S
C1095 C1088 1.409 1_556 S
C1095 C1094 1.362 . S
H1096 C1102 0.930 . S
H1097 C1105 0.930 . S
H1098 C1106 0.930 . S
H1099 C1107 0.930 . S
H1100 C1110 0.930 . S
H1101 C1111 0.930 . S
C1102 H1096 0.930 . S
C1102 C1103 1.355 . S
C1102 C1104 1.415 . S
C1103 C1102 1.355 . S
C1103 C1105 1.419 . S
C1104 C1102 1.415 . S
C1104 C1109 1.425 1_556 S
C1104 C1111 1.409 1_556 S
C1105 H1097 0.930 . S
C1105 C1103 1.419 . S
C1105 C1106 1.362 . S
C1106 H1098 0.930 . S
C1106 C1105 1.362 . S
C1106 C1109 1.409 1_556 S
C1107 H1099 0.930 . S
C1107 C1108 1.355 . S
C1107 C1109 1.415 . S
C1108 C1107 1.355 . S
C1108 C1110 1.419 . S
C1109 C1104 1.425 1_554 S
C1109 C1106 1.409 1_554 S
C1109 C1107 1.415 . S
C1110 H1100 0.930 . S
C1110 C1108 1.419 . S
C1110 C1111 1.362 . S
C1111 H1101 0.930 . S
C1111 C1104 1.409 1_554 S
C1111 C1110 1.362 . S
H1112 C1118 0.930 . S
H1113 C1121 0.930 1_565 S
H1114 C1122 0.930 . S
H1115 C1123 0.930 1_565 S
H1116 C1126 0.930 . S
H1117 C1127 0.930 . S
C1118 H1112 0.930 . S
C1118 C1119 1.355 . S
C1118 C1120 1.415 . S
C1119 C1118 1.355 . S
C1119 C1121 1.419 . S
C1120 C1118 1.415 . S
C1120 C1125 1.425 1_556 S
C1120 C1127 1.409 1_556 S
C1121 H1113 0.930 1_545 S
C1121 C1119 1.419 . S
C1121 C1122 1.362 1_545 S
C1122 H1114 0.930 . S
C1122 C1121 1.362 1_565 S
C1122 C1125 1.409 1_566 S
C1123 H1115 0.930 1_545 S
C1123 C1124 1.355 . S
C1123 C1125 1.415 . S
C1124 C1123 1.355 . S
C1124 C1126 1.419 . S
C1125 C1120 1.425 1_554 S
C1125 C1122 1.409 1_544 S
C1125 C1123 1.415 . S
C1126 H1116 0.930 . S
C1126 C1124 1.419 . S
C1126 C1127 1.362 . S
C1127 H1117 0.930 . S
C1127 C1120 1.409 1_554 S
C1127 C1126 1.362 . S
H1128 C1134 0.930 . S
H1129 C1137 0.930 . S
H1130 C1138 0.930 . S
H1131 C1139 0.930 . S
H1132 C1142 0.930 . S
H1133 C1143 0.930 . S
C1134 H1128 0.930 . S
C1134 C1135 1.355 . S
C1134 C1136 1.415 . S
C1135 C1134 1.355 . S
C1135 C1137 1.419 . S
C1136 C1134 1.415 . S
C1136 C1141 1.425 1_556 S
C1136 C1143 1.409 1_556 S
C1137 H1129 0.930 . S
C1137 C1135 1.419 . S
C1137 C1138 1.362 . S
C1138 H1130 0.930 . S
C1138 C1137 1.362 . S
C1138 C1141 1.409 1_556 S
C1139 H1131 0.930 . S
C1139 C1140 1.355 . S
C1139 C1141 1.415 . S
C1140 C1139 1.355 . S
C1140 C1142 1.419 . S
C1141 C1136 1.425 1_554 S
C1141 C1138 1.409 1_554 S
C1141 C1139 1.415 . S
C1142 H1132 0.930 . S
C1142 C1140 1.419 . S
C1142 C1143 1.362 . S
C1143 H1133 0.930 . S
C1143 C1136 1.409 1_554 S
C1143 C1142 1.362 . S
H1144 C1150 0.930 . S
H1145 C1153 0.930 . S
H1146 C1154 0.930 . S
H1147 C1155 0.930 . S
H1148 C1158 0.930 . S
H1149 C1159 0.930 . S
C1150 H1144 0.930 . S
C1150 C1151 1.355 . S
C1150 C1152 1.415 . S
C1151 C1150 1.355 . S
C1151 C1153 1.419 . S
C1152 C1150 1.415 . S
C1152 C1157 1.425 1_554 S
C1152 C1159 1.409 1_554 S
C1153 H1145 0.930 . S
C1153 C1151 1.419 . S
C1153 C1154 1.362 . S
C1154 H1146 0.930 . S
C1154 C1153 1.362 . S
C1154 C1157 1.409 1_554 S
C1155 H1147 0.930 . S
C1155 C1156 1.355 . S
C1155 C1157 1.415 . S
C1156 C1155 1.355 . S
C1156 C1158 1.419 . S
C1157 C1152 1.425 1_556 S
C1157 C1154 1.409 1_556 S
C1157 C1155 1.415 . S
C1158 H1148 0.930 . S
C1158 C1156 1.419 . S
C1158 C1159 1.362 . S
C1159 H1149 0.930 . S
C1159 C1152 1.409 1_556 S
C1159 C1158 1.362 . S
H1160 C1166 0.930 1_565 S
H1161 C1169 0.930 . S
H1162 C1170 0.930 . S
H1163 C1171 0.930 . S
H1164 C1174 0.930 . S
H1165 C1175 0.930 . S
C1166 H1160 0.930 1_545 S
C1166 C1167 1.355 . S
C1166 C1168 1.415 . S
C1167 C1166 1.355 . S
C1167 C1169 1.419 . S
C1168 C1166 1.415 . S
C1168 C1173 1.425 1_556 S
C1168 C1175 1.409 1_546 S
C1169 H1161 0.930 . S
C1169 C1167 1.419 . S
C1169 C1170 1.362 . S
C1170 H1162 0.930 . S
C1170 C1169 1.362 . S
C1170 C1173 1.409 1_556 S
C1171 H1163 0.930 . S
C1171 C1172 1.355 . S
C1171 C1173 1.415 . S
C1172 C1171 1.355 . S
C1172 C1174 1.419 1_545 S
C1173 C1168 1.425 1_554 S
C1173 C1170 1.409 1_554 S
C1173 C1171 1.415 . S
C1174 H1164 0.930 . S
C1174 C1172 1.419 1_565 S
C1174 C1175 1.362 . S
C1175 H1165 0.930 . S
C1175 C1168 1.409 1_564 S
C1175 C1174 1.362 . S
H1176 C1182 0.930 . S
H1177 C1185 0.930 . S
H1178 C1186 0.930 . S
H1179 C1187 0.930 . S
H1180 C1190 0.930 . S
H1181 C1191 0.930 . S
C1182 H1176 0.930 . S
C1182 C1183 1.355 . S
C1182 C1184 1.415 . S
C1183 C1182 1.355 . S
C1183 C1185 1.419 . S
C1184 C1182 1.415 . S
C1184 C1189 1.425 . S
C1184 C1191 1.409 . S
C1185 H1177 0.930 . S
C1185 C1183 1.419 . S
C1185 C1186 1.362 . S
C1186 H1178 0.930 . S
C1186 C1185 1.362 . S
C1186 C1189 1.409 . S
C1187 H1179 0.930 . S
C1187 C1188 1.355 . S
C1187 C1189 1.415 . S
C1188 C1187 1.355 . S
C1188 C1190 1.419 . S
C1189 C1184 1.425 . S
C1189 C1186 1.409 . S
C1189 C1187 1.415 . S
C1190 H1180 0.930 . S
C1190 C1188 1.419 . S
C1190 C1191 1.362 . S
C1191 H1181 0.930 . S
C1191 C1184 1.409 . S
C1191 C1190 1.362 . S
H1192 C1198 0.930 . S
H1193 C1201 0.930 . S
H1194 C1202 0.930 . S
H1195 C1203 0.930 . S
H1196 C1206 0.930 . S
H1197 C1207 0.930 . S
C1198 H1192 0.930 . S
C1198 C1199 1.355 . S
C1198 C1200 1.415 . S
C1199 C1198 1.355 . S
C1199 C1201 1.419 . S
C1200 C1198 1.415 . S
C1200 C1205 1.425 . S
C1200 C1207 1.409 . S
C1201 H1193 0.930 . S
C1201 C1199 1.419 . S
C1201 C1202 1.362 . S
C1202 H1194 0.930 . S
C1202 C1201 1.362 . S
C1202 C1205 1.409 . S
C1203 H1195 0.930 . S
C1203 C1204 1.355 . S
C1203 C1205 1.415 . S
C1204 C1203 1.355 . S
C1204 C1206 1.419 . S
C1205 C1200 1.425 . S
C1205 C1202 1.409 . S
C1205 C1203 1.415 . S
C1206 H1196 0.930 . S
C1206 C1204 1.419 . S
C1206 C1207 1.362 . S
C1207 H1197 0.930 . S
C1207 C1200 1.409 . S
C1207 C1206 1.362 . S
H1208 C1214 0.930 . S
H1209 C1217 0.930 . S
H1210 C1218 0.930 . S
H1211 C1219 0.930 . S
H1212 C1222 0.930 . S
H1213 C1223 0.930 . S
C1214 H1208 0.930 . S
C1214 C1215 1.355 . S
C1214 C1216 1.415 . S
C1215 C1214 1.355 . S
C1215 C1217 1.419 1_655 S
C1216 C1214 1.415 . S
C1216 C1221 1.425 1_655 S
C1216 C1223 1.409 . S
C1217 H1209 0.930 . S
C1217 C1215 1.419 1_455 S
C1217 C1218 1.362 . S
C1218 H1210 0.930 . S
C1218 C1217 1.362 . S
C1218 C1221 1.409 . S
C1219 H1211 0.930 . S
C1219 C1220 1.355 1_455 S
C1219 C1221 1.415 . S
C1220 C1219 1.355 1_655 S
C1220 C1222 1.419 . S
C1221 C1216 1.425 1_455 S
C1221 C1218 1.409 . S
C1221 C1219 1.415 . S
C1222 H1212 0.930 . S
C1222 C1220 1.419 . S
C1222 C1223 1.362 . S
C1223 H1213 0.930 . S
C1223 C1216 1.409 . S
C1223 C1222 1.362 . S
H1224 C1230 0.930 . S
H1225 C1233 0.930 . S
H1226 C1234 0.930 . S
H1227 C1235 0.930 . S
H1228 C1238 0.930 . S
H1229 C1239 0.930 . S
C1230 H1224 0.930 . S
C1230 C1231 1.355 . S
C1230 C1232 1.415 . S
C1231 C1230 1.355 . S
C1231 C1233 1.419 . S
C1232 C1230 1.415 . S
C1232 C1237 1.425 . S
C1232 C1239 1.409 . S
C1233 H1225 0.930 . S
C1233 C1231 1.419 . S
C1233 C1234 1.362 . S
C1234 H1226 0.930 . S
C1234 C1233 1.362 . S
C1234 C1237 1.409 . S
C1235 H1227 0.930 . S
C1235 C1236 1.355 . S
C1235 C1237 1.415 . S
C1236 C1235 1.355 . S
C1236 C1238 1.419 . S
C1237 C1232 1.425 . S
C1237 C1234 1.409 . S
C1237 C1235 1.415 . S
C1238 H1228 0.930 . S
C1238 C1236 1.419 . S
C1238 C1239 1.362 . S
C1239 H1229 0.930 . S
C1239 C1232 1.409 . S
C1239 C1238 1.362 . S
H1240 C1246 0.935 1_455 S
H1241 C1249 0.930 . S
H1242 C1250 0.930 . S
H1243 C1251 0.930 . S
H1244 C1254 0.930 . S
H1245 C1255 0.930 . S
C1246 H1240 0.935 1_655 S
C1246 C1247 1.351 . S
C1246 C1248 1.413 . S
C1247 C1246 1.351 . S
C1247 C1249 1.419 . S
C1248 C1246 1.413 . S
C1248 C1253 1.426 . S
C1248 C1255 1.409 1_655 S
C1249 H1241 0.930 . S
C1249 C1247 1.419 . S
C1249 C1250 1.362 . S
C1250 H1242 0.930 . S
C1250 C1249 1.362 . S
C1250 C1253 1.409 . S
C1251 H1243 0.930 . S
C1251 C1252 1.350 . S
C1251 C1253 1.415 . S
C1252 C1251 1.350 . S
C1252 C1254 1.428 1_655 S
C1253 C1248 1.426 . S
C1253 C1250 1.409 . S
C1253 C1251 1.415 . S
C1254 H1244 0.930 . S
C1254 C1252 1.428 1_455 S
C1254 C1255 1.362 . S
C1255 H1245 0.930 . S
C1255 C1248 1.409 1_455 S
C1255 C1254 1.362 . S
H1256 C1262 0.930 . S
H1257 C1265 0.930 . S
H1258 C1266 0.930 . S
H1259 C1267 0.930 . S
H1260 C1270 0.930 . S
H1261 C1271 0.930 . S
C1262 H1256 0.930 . S
C1262 C1263 1.355 . S
C1262 C1264 1.415 . S
C1263 C1262 1.355 . S
C1263 C1265 1.419 . S
C1264 C1262 1.415 . S
C1264 C1269 1.425 . S
C1264 C1271 1.409 . S
C1265 H1257 0.930 . S
C1265 C1263 1.419 . S
C1265 C1266 1.362 . S
C1266 H1258 0.930 . S
C1266 C1265 1.362 . S
C1266 C1269 1.409 . S
C1267 H1259 0.930 . S
C1267 C1268 1.355 . S
C1267 C1269 1.415 . S
C1268 C1267 1.355 . S
C1268 C1270 1.419 . S
C1269 C1264 1.425 . S
C1269 C1266 1.409 . S
C1269 C1267 1.415 . S
C1270 H1260 0.930 . S
C1270 C1268 1.419 . S
C1270 C1271 1.362 . S
C1271 H1261 0.930 . S
C1271 C1264 1.409 . S
C1271 C1270 1.362 . S
H1272 C1278 0.930 . S
H1273 C1281 0.930 . S
H1274 C1282 0.930 . S
H1275 C1283 0.930 . S
H1276 C1286 0.930 . S
H1277 C1287 0.930 . S
C1278 H1272 0.930 . S
C1278 C1279 1.355 . S
C1278 C1280 1.415 . S
C1279 C1278 1.355 . S
C1279 C1281 1.419 1_565 S
C1280 C1278 1.415 . S
C1280 C1285 1.425 1_565 S
C1280 C1287 1.409 . S
C1281 H1273 0.930 . S
C1281 C1279 1.419 1_545 S
C1281 C1282 1.362 . S
C1282 H1274 0.930 . S
C1282 C1281 1.362 . S
C1282 C1285 1.409 . S
C1283 H1275 0.930 . S
C1283 C1284 1.355 1_545 S
C1283 C1285 1.415 . S
C1284 C1283 1.355 1_565 S
C1284 C1286 1.419 . S
C1285 C1280 1.425 1_545 S
C1285 C1282 1.409 . S
C1285 C1283 1.415 . S
C1286 H1276 0.930 . S
C1286 C1284 1.419 . S
C1286 C1287 1.362 . S
C1287 H1277 0.930 . S
C1287 C1280 1.409 . S
C1287 C1286 1.362 . S
H1288 C1294 0.930 . S
H1289 C1297 0.930 . S
H1290 C1298 0.930 . S
H1291 C1299 0.930 . S
H1292 C1302 0.930 . S
H1293 C1303 0.930 . S
C1294 H1288 0.930 . S
C1294 C1295 1.355 . S
C1294 C1296 1.415 . S
C1295 C1294 1.355 . S
C1295 C1297 1.419 . S
C1296 C1294 1.415 . S
C1296 C1301 1.425 . S
C1296 C1303 1.409 . S
C1297 H1289 0.930 . S
C1297 C1295 1.419 . S
C1297 C1298 1.362 . S
C1298 H1290 0.930 . S
C1298 C1297 1.362 . S
C1298 C1301 1.409 . S
C1299 H1291 0.930 . S
C1299 C1300 1.355 . S
C1299 C1301 1.415 . S
C1300 C1299 1.355 . S
C1300 C1302 1.419 . S
C1301 C1296 1.425 . S
C1301 C1298 1.409 . S
C1301 C1299 1.415 . S
C1302 H1292 0.930 . S
C1302 C1300 1.419 . S
C1302 C1303 1.362 . S
C1303 H1293 0.930 . S
C1303 C1296 1.409 . S
C1303 C1302 1.362 . S
H1304 C1310 0.930 . S
H1305 C1313 0.930 . S
H1306 C1314 0.930 . S
H1307 C1315 0.930 . S
H1308 C1318 0.930 . S
H1309 C1319 0.930 . S
C1310 H1304 0.930 . S
C1310 C1311 1.355 . S
C1310 C1312 1.415 . S
C1311 C1310 1.355 . S
C1311 C1313 1.419 . S
C1312 C1310 1.415 . S
C1312 C1317 1.425 . S
C1312 C1319 1.409 . S
C1313 H1305 0.930 . S
C1313 C1311 1.419 . S
C1313 C1314 1.362 . S
C1314 H1306 0.930 . S
C1314 C1313 1.362 . S
C1314 C1317 1.409 . S
C1315 H1307 0.930 . S
C1315 C1316 1.355 . S
C1315 C1317 1.415 . S
C1316 C1315 1.355 . S
C1316 C1318 1.419 . S
C1317 C1312 1.425 . S
C1317 C1314 1.409 . S
C1317 C1315 1.415 . S
C1318 H1308 0.930 . S
C1318 C1316 1.419 . S
C1318 C1319 1.362 . S
C1319 H1309 0.930 . S
C1319 C1312 1.409 . S
C1319 C1318 1.362 . S
H1320 C1326 0.930 . S
H1321 C1329 0.930 . S
H1322 C1330 0.930 . S
H1323 C1331 0.930 . S
H1324 C1334 0.930 . S
H1325 C1335 0.930 . S
C1326 H1320 0.930 . S
C1326 C1327 1.355 . S
C1326 C1328 1.415 . S
C1327 C1326 1.355 . S
C1327 C1329 1.419 . S
C1328 C1326 1.415 . S
C1328 C1333 1.425 . S
C1328 C1335 1.409 . S
C1329 H1321 0.930 . S
C1329 C1327 1.419 . S
C1329 C1330 1.362 . S
C1330 H1322 0.930 . S
C1330 C1329 1.362 . S
C1330 C1333 1.409 . S
C1331 H1323 0.930 . S
C1331 C1332 1.355 . S
C1331 C1333 1.415 . S
C1332 C1331 1.355 . S
C1332 C1334 1.419 . S
C1333 C1328 1.425 . S
C1333 C1330 1.409 . S
C1333 C1331 1.415 . S
C1334 H1324 0.930 . S
C1334 C1332 1.419 . S
C1334 C1335 1.362 . S
C1335 H1325 0.930 . S
C1335 C1328 1.409 . S
C1335 C1334 1.362 . S
H1336 C1342 0.930 . S
H1337 C1345 0.930 . S
H1338 C1346 0.930 . S
H1339 C1347 0.930 . S
H1340 C1350 0.930 . S
H1341 C1351 0.930 . S
C1342 H1336 0.930 . S
C1342 C1343 1.355 1_545 S
C1342 C1344 1.415 . S
C1343 C1342 1.355 1_565 S
C1343 C1345 1.419 . S
C1344 C1342 1.415 . S
C1344 C1349 1.427 1_545 S
C1344 C1351 1.407 . S
C1345 H1337 0.930 . S
C1345 C1343 1.419 . S
C1345 C1346 1.362 . S
C1346 H1338 0.930 . S
C1346 C1345 1.362 . S
C1346 C1349 1.409 . S
C1347 H1339 0.930 . S
C1347 C1348 1.355 . S
C1347 C1349 1.415 . S
C1348 C1347 1.355 . S
C1348 C1350 1.419 1_565 S
C1349 C1344 1.427 1_565 S
C1349 C1346 1.409 . S
C1349 C1347 1.415 . S
C1350 H1340 0.930 . S
C1350 C1348 1.419 1_545 S
C1350 C1351 1.362 . S
C1351 H1341 0.930 . S
C1351 C1344 1.407 . S
C1351 C1350 1.362 . S
H1352 C1358 0.930 . S
H1353 C1361 0.930 . S
H1354 C1362 0.930 . S
H1355 C1363 0.930 . S
H1356 C1366 0.930 . S
H1357 C1367 0.930 . S
C1358 H1352 0.930 . S
C1358 C1359 1.355 . S
C1358 C1360 1.415 . S
C1359 C1358 1.355 . S
C1359 C1361 1.419 . S
C1360 C1358 1.415 . S
C1360 C1365 1.425 . S
C1360 C1367 1.409 . S
C1361 H1353 0.930 . S
C1361 C1359 1.419 . S
C1361 C1362 1.362 . S
C1362 H1354 0.930 . S
C1362 C1361 1.362 . S
C1362 C1365 1.409 . S
C1363 H1355 0.930 . S
C1363 C1364 1.355 . S
C1363 C1365 1.415 . S
C1364 C1363 1.355 . S
C1364 C1366 1.419 . S
C1365 C1360 1.425 . S
C1365 C1362 1.409 . S
C1365 C1363 1.415 . S
C1366 H1356 0.930 . S
C1366 C1364 1.419 . S
C1366 C1367 1.362 . S
C1367 H1357 0.930 . S
C1367 C1360 1.409 . S
C1367 C1366 1.362 . S
H1368 C1374 0.930 . S
H1369 C1377 0.930 . S
H1370 C1378 0.930 . S
H1371 C1379 0.930 . S
H1372 C1382 0.930 . S
H1373 C1383 0.930 . S
C1374 H1368 0.930 . S
C1374 C1375 1.355 . S
C1374 C1376 1.415 . S
C1375 C1374 1.355 . S
C1375 C1377 1.419 . S
C1376 C1374 1.415 . S
C1376 C1381 1.425 . S
C1376 C1383 1.409 . S
C1377 H1369 0.930 . S
C1377 C1375 1.419 . S
C1377 C1378 1.362 . S
C1378 H1370 0.930 . S
C1378 C1377 1.362 . S
C1378 C1381 1.409 . S
C1379 H1371 0.930 . S
C1379 C1380 1.355 . S
C1379 C1381 1.415 . S
C1380 C1379 1.355 . S
C1380 C1382 1.419 . S
C1381 C1376 1.425 . S
C1381 C1378 1.409 . S
C1381 C1379 1.415 . S
C1382 H1372 0.930 . S
C1382 C1380 1.419 . S
C1382 C1383 1.362 . S
C1383 H1373 0.930 . S
C1383 C1376 1.409 . S
C1383 C1382 1.362 . S
H1384 C1390 0.930 . S
H1385 C1393 0.930 . S
H1386 C1394 0.930 . S
H1387 C1395 0.930 . S
H1388 C1398 0.930 . S
H1389 C1399 0.930 . S
C1390 H1384 0.930 . S
C1390 C1391 1.355 . S
C1390 C1392 1.415 . S
C1391 C1390 1.355 . S
C1391 C1393 1.419 . S
C1392 C1390 1.415 . S
C1392 C1397 1.425 . S
C1392 C1399 1.409 . S
C1393 H1385 0.930 . S
C1393 C1391 1.419 . S
C1393 C1394 1.362 . S
C1394 H1386 0.930 . S
C1394 C1393 1.362 . S
C1394 C1397 1.409 . S
C1395 H1387 0.930 . S
C1395 C1396 1.355 . S
C1395 C1397 1.415 . S
C1396 C1395 1.355 . S
C1396 C1398 1.419 . S
C1397 C1392 1.425 . S
C1397 C1394 1.409 . S
C1397 C1395 1.415 . S
C1398 H1388 0.930 . S
C1398 C1396 1.419 . S
C1398 C1399 1.362 . S
C1399 H1389 0.930 . S
C1399 C1392 1.409 . S
C1399 C1398 1.362 . S
H1400 C1406 0.930 . S
H1401 C1409 0.930 . S
H1402 C1410 0.930 . S
H1403 C1411 0.930 . S
H1404 C1414 0.930 . S
H1405 C1415 0.930 . S
C1406 H1400 0.930 . S
C1406 C1407 1.355 . S
C1406 C1408 1.415 . S
C1407 C1406 1.355 . S
C1407 C1409 1.419 . S
C1408 C1406 1.415 . S
C1408 C1413 1.425 . S
C1408 C1415 1.409 . S
C1409 H1401 0.930 . S
C1409 C1407 1.419 . S
C1409 C1410 1.362 . S
C1410 H1402 0.930 . S
C1410 C1409 1.362 . S
C1410 C1413 1.409 . S
C1411 H1403 0.930 . S
C1411 C1412 1.355 . S
C1411 C1413 1.415 . S
C1412 C1411 1.355 . S
C1412 C1414 1.419 . S
C1413 C1408 1.425 . S
C1413 C1410 1.409 . S
C1413 C1411 1.415 . S
C1414 H1404 0.930 . S
C1414 C1412 1.419 . S
C1414 C1415 1.362 . S
C1415 H1405 0.930 . S
C1415 C1408 1.409 . S
C1415 C1414 1.362 . S
H1416 C1422 0.930 . S
H1417 C1425 0.930 . S
H1418 C1426 0.930 . S
H1419 C1427 0.930 . S
H1420 C1430 0.930 . S
H1421 C1431 0.930 . S
C1422 H1416 0.930 . S
C1422 C1423 1.355 . S
C1422 C1424 1.415 . S
C1423 C1422 1.355 . S
C1423 C1425 1.419 . S
C1424 C1422 1.415 . S
C1424 C1429 1.425 . S
C1424 C1431 1.409 . S
C1425 H1417 0.930 . S
C1425 C1423 1.419 . S
C1425 C1426 1.362 . S
C1426 H1418 0.930 . S
C1426 C1425 1.362 . S
C1426 C1429 1.409 . S
C1427 H1419 0.930 . S
C1427 C1428 1.355 . S
C1427 C1429 1.415 . S
C1428 C1427 1.355 . S
C1428 C1430 1.419 . S
C1429 C1424 1.425 . S
C1429 C1426 1.409 . S
C1429 C1427 1.415 . S
C1430 H1420 0.930 . S
C1430 C1428 1.419 . S
C1430 C1431 1.362 . S
C1431 H1421 0.930 . S
C1431 C1424 1.409 . S
C1431 C1430 1.362 . S
H1432 C1438 0.930 . S
H1433 C1441 0.930 . S
H1434 C1442 0.930 . S
H1435 C1443 0.930 . S
H1436 C1446 0.930 . S
H1437 C1447 0.930 . S
C1438 H1432 0.930 . S
C1438 C1439 1.355 . S
C1438 C1440 1.415 . S
C1439 C1438 1.355 . S
C1439 C1441 1.419 . S
C1440 C1438 1.415 . S
C1440 C1445 1.425 . S
C1440 C1447 1.409 . S
C1441 H1433 0.930 . S
C1441 C1439 1.419 . S
C1441 C1442 1.362 . S
C1442 H1434 0.930 . S
C1442 C1441 1.362 . S
C1442 C1445 1.409 . S
C1443 H1435 0.930 . S
C1443 C1444 1.355 . S
C1443 C1445 1.415 . S
C1444 C1443 1.355 . S
C1444 C1446 1.419 . S
C1445 C1440 1.425 . S
C1445 C1442 1.409 . S
C1445 C1443 1.415 . S
C1446 H1436 0.930 . S
C1446 C1444 1.419 . S
C1446 C1447 1.362 . S
C1447 H1437 0.930 . S
C1447 C1440 1.409 . S
C1447 C1446 1.362 . S
H1448 C1454 0.930 . S
H1449 C1457 0.930 . S
H1450 C1458 0.930 . S
H1451 C1459 0.930 . S
H1452 C1462 0.930 . S
H1453 C1463 0.930 . S
C1454 H1448 0.930 . S
C1454 C1455 1.355 . S
C1454 C1456 1.415 . S
C1455 C1454 1.355 . S
C1455 C1457 1.419 . S
C1456 C1454 1.415 . S
C1456 C1461 1.425 . S
C1456 C1463 1.409 . S
C1457 H1449 0.930 . S
C1457 C1455 1.419 . S
C1457 C1458 1.362 . S
C1458 H1450 0.930 . S
C1458 C1457 1.362 . S
C1458 C1461 1.409 . S
C1459 H1451 0.930 . S
C1459 C1460 1.355 . S
C1459 C1461 1.415 . S
C1460 C1459 1.355 . S
C1460 C1462 1.419 . S
C1461 C1456 1.425 . S
C1461 C1458 1.409 . S
C1461 C1459 1.415 . S
C1462 H1452 0.930 . S
C1462 C1460 1.419 . S
C1462 C1463 1.362 . S
C1463 H1453 0.930 . S
C1463 C1456 1.409 . S
C1463 C1462 1.362 . S
H1464 C1470 0.930 . S
H1465 C1473 0.930 . S
H1466 C1474 0.930 . S
H1467 C1475 0.930 . S
H1468 C1478 0.930 . S
H1469 C1479 0.930 . S
C1470 H1464 0.930 . S
C1470 C1471 1.355 . S
C1470 C1472 1.415 . S
C1471 C1470 1.355 . S
C1471 C1473 1.419 . S
C1472 C1470 1.415 . S
C1472 C1477 1.425 . S
C1472 C1479 1.409 . S
C1473 H1465 0.930 . S
C1473 C1471 1.419 . S
C1473 C1474 1.362 . S
C1474 H1466 0.930 . S
C1474 C1473 1.362 . S
C1474 C1477 1.409 . S
C1475 H1467 0.930 . S
C1475 C1476 1.355 . S
C1475 C1477 1.415 . S
C1476 C1475 1.355 . S
C1476 C1478 1.419 . S
C1477 C1472 1.425 . S
C1477 C1474 1.409 . S
C1477 C1475 1.415 . S
C1478 H1468 0.930 . S
C1478 C1476 1.419 . S
C1478 C1479 1.362 . S
C1479 H1469 0.930 . S
C1479 C1472 1.409 . S
C1479 C1478 1.362 . S
H1480 C1486 0.930 . S
H1481 C1489 0.930 . S
H1482 C1490 0.930 . S
H1483 C1491 0.930 . S
H1484 C1494 0.930 . S
H1485 C1495 0.930 . S
C1486 H1480 0.930 . S
C1486 C1487 1.355 . S
C1486 C1488 1.415 . S
C1487 C1486 1.355 . S
C1487 C1489 1.419 . S
C1488 C1486 1.415 . S
C1488 C1493 1.425 . S
C1488 C1495 1.409 . S
C1489 H1481 0.930 . S
C1489 C1487 1.419 . S
C1489 C1490 1.362 . S
C1490 H1482 0.930 . S
C1490 C1489 1.362 . S
C1490 C1493 1.409 . S
C1491 H1483 0.930 . S
C1491 C1492 1.355 . S
C1491 C1493 1.415 . S
C1492 C1491 1.355 . S
C1492 C1494 1.419 . S
C1493 C1488 1.425 . S
C1493 C1490 1.409 . S
C1493 C1491 1.415 . S
C1494 H1484 0.930 . S
C1494 C1492 1.419 . S
C1494 C1495 1.362 . S
C1495 H1485 0.930 . S
C1495 C1488 1.409 . S
C1495 C1494 1.362 . S
H1496 C1502 0.930 . S
H1497 C1505 0.930 . S
H1498 C1506 0.930 . S
H1499 C1507 0.930 . S
H1500 C1510 0.930 . S
H1501 C1511 0.930 . S
C1502 H1496 0.930 . S
C1502 C1503 1.355 . S
C1502 C1504 1.415 . S
C1503 C1502 1.355 . S
C1503 C1505 1.419 . S
C1504 C1502 1.415 . S
C1504 C1509 1.425 . S
C1504 C1511 1.409 . S
C1505 H1497 0.930 . S
C1505 C1503 1.419 . S
C1505 C1506 1.362 . S
C1506 H1498 0.930 . S
C1506 C1505 1.362 . S
C1506 C1509 1.409 . S
C1507 H1499 0.930 . S
C1507 C1508 1.355 . S
C1507 C1509 1.415 . S
C1508 C1507 1.355 . S
C1508 C1510 1.419 . S
C1509 C1504 1.425 . S
C1509 C1506 1.409 . S
C1509 C1507 1.415 . S
C1510 H1500 0.930 . S
C1510 C1508 1.419 . S
C1510 C1511 1.362 . S
C1511 H1501 0.930 . S
C1511 C1504 1.409 . S
C1511 C1510 1.362 . S
H1512 C1518 0.930 . S
H1513 C1521 0.930 . S
H1514 C1522 0.930 . S
H1515 C1523 0.930 . S
H1516 C1526 0.930 . S
H1517 C1527 0.930 . S
C1518 H1512 0.930 . S
C1518 C1519 1.355 . S
C1518 C1520 1.415 . S
C1519 C1518 1.355 . S
C1519 C1521 1.419 . S
C1520 C1518 1.415 . S
C1520 C1525 1.425 . S
C1520 C1527 1.409 . S
C1521 H1513 0.930 . S
C1521 C1519 1.419 . S
C1521 C1522 1.362 . S
C1522 H1514 0.930 . S
C1522 C1521 1.362 . S
C1522 C1525 1.409 . S
C1523 H1515 0.930 . S
C1523 C1524 1.355 . S
C1523 C1525 1.415 . S
C1524 C1523 1.355 . S
C1524 C1526 1.419 . S
C1525 C1520 1.425 . S
C1525 C1522 1.409 . S
C1525 C1523 1.415 . S
C1526 H1516 0.930 . S
C1526 C1524 1.419 . S
C1526 C1527 1.362 . S
C1527 H1517 0.930 . S
C1527 C1520 1.409 . S
C1527 C1526 1.362 . S
H1528 C1534 0.930 . S
H1529 C1537 0.930 . S
H1530 C1538 0.930 . S
H1531 C1539 0.930 . S
H1532 C1542 0.930 . S
H1533 C1543 0.930 . S
C1534 H1528 0.930 . S
C1534 C1535 1.355 . S
C1534 C1536 1.415 . S
C1535 C1534 1.355 . S
C1535 C1537 1.419 . S
C1536 C1534 1.415 . S
C1536 C1541 1.425 . S
C1536 C1543 1.409 . S
C1537 H1529 0.930 . S
C1537 C1535 1.419 . S
C1537 C1538 1.362 . S
C1538 H1530 0.930 . S
C1538 C1537 1.362 . S
C1538 C1541 1.409 . S
C1539 H1531 0.930 . S
C1539 C1540 1.355 . S
C1539 C1541 1.415 . S
C1540 C1539 1.355 . S
C1540 C1542 1.419 . S
C1541 C1536 1.425 . S
C1541 C1538 1.409 . S
C1541 C1539 1.415 . S
C1542 H1532 0.930 . S
C1542 C1540 1.419 . S
C1542 C1543 1.362 . S
C1543 H1533 0.930 . S
C1543 C1536 1.409 . S
C1543 C1542 1.362 . S
H1544 C1550 0.930 . S
H1545 C1553 0.930 . S
H1546 C1554 0.930 . S
H1547 C1555 0.930 . S
H1548 C1558 0.930 . S
H1549 C1559 0.930 . S
C1550 H1544 0.930 . S
C1550 C1551 1.355 . S
C1550 C1552 1.415 . S
C1551 C1550 1.355 . S
C1551 C1553 1.419 . S
C1552 C1550 1.415 . S
C1552 C1557 1.425 . S
C1552 C1559 1.409 . S
C1553 H1545 0.930 . S
C1553 C1551 1.419 . S
C1553 C1554 1.362 . S
C1554 H1546 0.930 . S
C1554 C1553 1.362 . S
C1554 C1557 1.409 . S
C1555 H1547 0.930 . S
C1555 C1556 1.355 . S
C1555 C1557 1.415 . S
C1556 C1555 1.355 . S
C1556 C1558 1.419 . S
C1557 C1552 1.425 . S
C1557 C1554 1.409 . S
C1557 C1555 1.415 . S
C1558 H1548 0.930 . S
C1558 C1556 1.419 . S
C1558 C1559 1.362 . S
C1559 H1549 0.930 . S
C1559 C1552 1.409 . S
C1559 C1558 1.362 . S
H1560 C1566 0.930 . S
H1561 C1569 0.930 . S
H1562 C1570 0.930 . S
H1563 C1571 0.930 . S
H1564 C1574 0.930 . S
H1565 C1575 0.930 . S
C1566 H1560 0.930 . S
C1566 C1567 1.355 . S
C1566 C1568 1.415 . S
C1567 C1566 1.355 . S
C1567 C1569 1.419 . S
C1568 C1566 1.415 . S
C1568 C1573 1.425 . S
C1568 C1575 1.409 . S
C1569 H1561 0.930 . S
C1569 C1567 1.419 . S
C1569 C1570 1.362 . S
C1570 H1562 0.930 . S
C1570 C1569 1.362 . S
C1570 C1573 1.409 . S
C1571 H1563 0.930 . S
C1571 C1572 1.355 . S
C1571 C1573 1.415 . S
C1572 C1571 1.355 . S
C1572 C1574 1.419 . S
C1573 C1568 1.425 . S
C1573 C1570 1.409 . S
C1573 C1571 1.415 . S
C1574 H1564 0.930 . S
C1574 C1572 1.419 . S
C1574 C1575 1.362 . S
C1575 H1565 0.930 . S
C1575 C1568 1.409 . S
C1575 C1574 1.362 . S
H1576 C1582 0.930 . S
H1577 C1585 0.930 . S
H1578 C1586 0.930 . S
H1579 C1587 0.930 . S
H1580 C1590 0.930 . S
H1581 C1591 0.930 . S
C1582 H1576 0.930 . S
C1582 C1583 1.355 . S
C1582 C1584 1.415 . S
C1583 C1582 1.355 . S
C1583 C1585 1.419 . S
C1584 C1582 1.415 . S
C1584 C1589 1.425 . S
C1584 C1591 1.409 . S
C1585 H1577 0.930 . S
C1585 C1583 1.419 . S
C1585 C1586 1.362 . S
C1586 H1578 0.930 . S
C1586 C1585 1.362 . S
C1586 C1589 1.409 . S
C1587 H1579 0.930 . S
C1587 C1588 1.355 . S
C1587 C1589 1.415 . S
C1588 C1587 1.355 . S
C1588 C1590 1.419 . S
C1589 C1584 1.425 . S
C1589 C1586 1.409 . S
C1589 C1587 1.415 . S
C1590 H1580 0.930 . S
C1590 C1588 1.419 . S
C1590 C1591 1.362 . S
C1591 H1581 0.930 . S
C1591 C1584 1.409 . S
C1591 C1590 1.362 . S
H1592 C1598 0.930 . S
H1593 C1601 0.930 . S
H1594 C1602 0.930 . S
H1595 C1603 0.930 . S
H1596 C1606 0.930 . S
H1597 C1607 0.930 . S
C1598 H1592 0.930 . S
C1598 C1599 1.355 . S
C1598 C1600 1.415 . S
C1599 C1598 1.355 . S
C1599 C1601 1.419 . S
C1600 C1598 1.415 . S
C1600 C1605 1.425 . S
C1600 C1607 1.409 . S
C1601 H1593 0.930 . S
C1601 C1599 1.419 . S
C1601 C1602 1.362 . S
C1602 H1594 0.930 . S
C1602 C1601 1.362 . S
C1602 C1605 1.409 . S
C1603 H1595 0.930 . S
C1603 C1604 1.355 . S
C1603 C1605 1.415 . S
C1604 C1603 1.355 . S
C1604 C1606 1.419 . S
C1605 C1600 1.425 . S
C1605 C1602 1.409 . S
C1605 C1603 1.415 . S
C1606 H1596 0.930 . S
C1606 C1604 1.419 . S
C1606 C1607 1.362 . S
C1607 H1597 0.930 . S
C1607 C1600 1.409 . S
C1607 C1606 1.362 . S
H1608 C1614 0.930 . S
H1609 C1617 0.930 . S
H1610 C1618 0.930 . S
H1611 C1619 0.930 . S
H1612 C1622 0.930 . S
H1613 C1623 0.930 . S
C1614 H1608 0.930 . S
C1614 C1615 1.355 . S
C1614 C1616 1.415 . S
C1615 C1614 1.355 . S
C1615 C1617 1.419 . S
C1616 C1614 1.415 . S
C1616 C1621 1.425 . S
C1616 C1623 1.409 . S
C1617 H1609 0.930 . S
C1617 C1615 1.419 . S
C1617 C1618 1.362 . S
C1618 H1610 0.930 . S
C1618 C1617 1.362 . S
C1618 C1621 1.409 . S
C1619 H1611 0.930 . S
C1619 C1620 1.355 . S
C1619 C1621 1.415 . S
C1620 C1619 1.355 . S
C1620 C1622 1.419 . S
C1621 C1616 1.425 . S
C1621 C1618 1.409 . S
C1621 C1619 1.415 . S
C1622 H1612 0.930 . S
C1622 C1620 1.419 . S
C1622 C1623 1.362 . S
C1623 H1613 0.930 . S
C1623 C1616 1.409 . S
C1623 C1622 1.362 . S
H1624 C1630 0.930 . S
H1625 C1633 0.930 . S
H1626 C1634 0.930 . S
H1627 C1635 0.930 . S
H1628 C1638 0.930 . S
H1629 C1639 0.930 . S
C1630 H1624 0.930 . S
C1630 C1631 1.355 . S
C1630 C1632 1.415 . S
C1631 C1630 1.355 . S
C1631 C1633 1.419 . S
C1632 C1630 1.415 . S
C1632 C1637 1.425 . S
C1632 C1639 1.409 . S
C1633 H1625 0.930 . S
C1633 C1631 1.419 . S
C1633 C1634 1.362 . S
C1634 H1626 0.930 . S
C1634 C1633 1.362 . S
C1634 C1637 1.409 . S
C1635 H1627 0.930 . S
C1635 C1636 1.355 . S
C1635 C1637 1.415 . S
C1636 C1635 1.355 . S
C1636 C1638 1.419 . S
C1637 C1632 1.425 . S
C1637 C1634 1.409 . S
C1637 C1635 1.415 . S
C1638 H1628 0.930 . S
C1638 C1636 1.419 . S
C1638 C1639 1.362 . S
C1639 H1629 0.930 . S
C1639 C1632 1.409 . S
C1639 C1638 1.362 . S
H1640 C1646 0.930 . S
H1641 C1649 0.930 . S
H1642 C1650 0.930 . S
H1643 C1651 0.930 . S
H1644 C1654 0.930 . S
H1645 C1655 0.930 . S
C1646 H1640 0.930 . S
C1646 C1647 1.355 . S
C1646 C1648 1.415 . S
C1647 C1646 1.355 . S
C1647 C1649 1.419 . S
C1648 C1646 1.415 . S
C1648 C1653 1.425 . S
C1648 C1655 1.409 . S
C1649 H1641 0.930 . S
C1649 C1647 1.419 . S
C1649 C1650 1.362 . S
C1650 H1642 0.930 . S
C1650 C1649 1.362 . S
C1650 C1653 1.409 . S
C1651 H1643 0.930 . S
C1651 C1652 1.355 . S
C1651 C1653 1.415 . S
C1652 C1651 1.355 . S
C1652 C1654 1.419 . S
C1653 C1648 1.425 . S
C1653 C1650 1.409 . S
C1653 C1651 1.415 . S
C1654 H1644 0.930 . S
C1654 C1652 1.419 . S
C1654 C1655 1.362 . S
C1655 H1645 0.930 . S
C1655 C1648 1.409 . S
C1655 C1654 1.362 . S
C511 C3 1.584 . S
C516 C157 1.579 . S
C527 C129 1.579 . S
C532 C17 1.584 . S
C543 C143 1.580 . S
C548 C31 1.583 . S
C559 C45 1.581 . S
C564 C101 1.582 . S
C575 C59 1.583 . S
C580 C115 1.580 . S
C591 C73 1.581 . S
C596 C87 1.582 . S
C607 C171 1.584 . S
C612 C325 1.579 . S
C623 C297 1.583 . S
C628 C185 1.580 . S
C639 C199 1.581 . S
C644 C311 1.582 . S
C655 C213 1.582 . S
C660 C269 1.581 . S
C671 C227 1.584 . S
C676 C283 1.579 . S
C687 C241 1.584 . S
C692 C255 1.579 . S
C703 C339 1.584 . S
C708 C493 1.579 . S
C719 C353 1.583 . S
C724 C465 1.580 . S
C735 C479 1.583 . S
C740 C367 1.580 . S
C751 C381 1.581 . S
C756 C437 1.581 . S
C767 C451 1.580 . S
C772 C395 1.583 . S
C783 C423 1.584 . S
C788 C409 1.579 . S
C799 C8 1.321 . S
C804 C218 1.307 . S
C815 C22 1.345 . S
C820 C232 1.356 . S
C831 C36 1.355 . S
C836 C246 1.344 . S
C847 C50 1.336 . S
C852 C344 1.318 . S
C863 C358 1.342 . S
C868 C64 1.354 . S
C879 C372 1.306 . S
C884 C78 1.316 . S
C895 C92 1.308 . S
C900 C470 1.322 . S
C911 C484 1.319 . S
C916 C106 1.337 . S
C927 C120 1.353 . S
C932 C498 1.356 . S
C943 C134 1.334 . S
C948 C260 1.316 . S
C959 C148 1.305 . S
C964 C274 1.309 . S
C975 C162 1.306 . S
C980 C288 1.317 . S
C991 C386 1.356 . S
C996 C176 1.350 . S
C1007 C190 1.336 . S
C1012 C400 1.352 . S
C1023 C204 1.345 . S
C1028 C414 1.327 . S
C1039 C428 1.354 . S
C1044 C302 1.355 . S
C1055 C442 1.356 . S
C1060 C316 1.349 . S
C1071 C330 1.313 . S
C1076 C456 1.305 . S
C1087 C9 1.335 . S
C1092 C65 1.252 . S
C1103 C79 1.323 . S
C1108 C23 1.263 . S
C1119 C51 1.282 . S
C1124 C37 1.304 . S
C1135 C93 1.326 . S
C1140 C149 1.261 . S
C1151 C163 1.255 . S
C1156 C107 1.334 . S
C1167 C121 1.307 . S
C1172 C135 1.284 . S
C1183 C233 1.305 . S
C1188 C177 1.281 . S
C1199 C191 1.331 . S
C1204 C247 1.256 . S
C1215 C205 1.334 . S
C1220 C219 1.253 . S
C1231 C317 1.335 . S
C1236 C261 1.252 . S
C1247 C331 1.256 . S
C1252 C275 1.335 . S
C1263 C303 1.256 . S
C1268 C289 1.330 . S
C1279 C345 1.277 . S
C1284 C401 1.314 . S
C1295 C359 1.266 . S
C1300 C415 1.323 . S
C1311 C373 1.265 . S
C1316 C387 1.324 . S
C1327 C485 1.259 . S
C1332 C429 1.328 . S
C1343 C499 1.278 . S
C1348 C443 1.313 . S
C1359 C471 1.305 . S
C1364 C457 1.286 . S
C1375 C133 1.574 . S
C1380 C7 1.525 . S
C1391 C147 1.542 . S
C1396 C21 1.557 . S
C1407 C35 1.528 . S
C1412 C161 1.570 . S
C1423 C49 1.540 . S
C1428 C91 1.559 . S
C1439 C105 1.548 . S
C1444 C63 1.550 . S
C1455 C77 1.576 . S
C1460 C119 1.522 . S
C1471 C301 1.572 . S
C1476 C175 1.526 . S
C1487 C315 1.570 . S
C1492 C189 1.528 . S
C1503 C203 1.571 . S
C1508 C329 1.527 . S
C1519 C259 1.573 . S
C1524 C217 1.525 . S
C1535 C273 1.560 . S
C1540 C231 1.539 . S
C1551 C287 1.526 . S
C1556 C245 1.572 . S
C1567 C343 1.553 . S
C1572 C469 1.545 . S
C1583 C483 1.543 . S
C1588 C357 1.556 . S
C1599 C371 1.565 . S
C1604 C497 1.533 . S
C1615 C385 1.534 . S
C1620 C427 1.565 . S
C1631 C399 1.528 . S
C1636 C441 1.570 . S
C1647 C455 1.522 . S
C1652 C413 1.576 . S
