# Generated by pormake.
# Topology wkh, (6)-cn, num edge types: 1
# Building blocks:
#     Node 0, Type 0, BuildingBlock: OJICUG_clean_sbu_0, # of connection points: 6
#     Node 1, Type 0, BuildingBlock: OJICUG_clean_sbu_0, # of connection points: 6
#     Node 2, Type 0, BuildingBlock: OJICUG_clean_sbu_0, # of connection points: 6
#     Node 3, Type 0, BuildingBlock: OJICUG_clean_sbu_0, # of connection points: 6
#     Node 4, Type 0, BuildingBlock: OJICUG_clean_sbu_0, # of connection points: 6
#     Node 5, Type 0, BuildingBlock: OJICUG_clean_sbu_0, # of connection points: 6
#     Node 6, Type 0, BuildingBlock: OJICUG_clean_sbu_0, # of connection points: 6
#     Node 7, Type 0, BuildingBlock: OJICUG_clean_sbu_0, # of connection points: 6
#     Node 8, Type 0, BuildingBlock: OJICUG_clean_sbu_0, # of connection points: 6
#     Node 9, Type 0, BuildingBlock: OJICUG_clean_sbu_0, # of connection points: 6
#     Node 10, Type 0, BuildingBlock: OJICUG_clean_sbu_0, # of connection points: 6
#     Node 11, Type 0, BuildingBlock: OJICUG_clean_sbu_0, # of connection points: 6
#     Edge 12, Type (0, 0), None
#     Edge 13, Type (0, 0), None
#     Edge 14, Type (0, 0), None
#     Edge 15, Type (0, 0), None
#     Edge 16, Type (0, 0), None
#     Edge 17, Type (0, 0), None
#     Edge 18, Type (0, 0), None
#     Edge 19, Type (0, 0), None
#     Edge 20, Type (0, 0), None
#     Edge 21, Type (0, 0), None
#     Edge 22, Type (0, 0), None
#     Edge 23, Type (0, 0), None
#     Edge 24, Type (0, 0), None
#     Edge 25, Type (0, 0), None
#     Edge 26, Type (0, 0), None
#     Edge 27, Type (0, 0), None
#     Edge 28, Type (0, 0), None
#     Edge 29, Type (0, 0), None
#     Edge 30, Type (0, 0), None
#     Edge 31, Type (0, 0), None
#     Edge 32, Type (0, 0), None
#     Edge 33, Type (0, 0), None
#     Edge 34, Type (0, 0), None
#     Edge 35, Type (0, 0), None
#     Edge 36, Type (0, 0), None
#     Edge 37, Type (0, 0), None
#     Edge 38, Type (0, 0), None
#     Edge 39, Type (0, 0), None
#     Edge 40, Type (0, 0), None
#     Edge 41, Type (0, 0), None
#     Edge 42, Type (0, 0), None
#     Edge 43, Type (0, 0), None
#     Edge 44, Type (0, 0), None
#     Edge 45, Type (0, 0), None
#     Edge 46, Type (0, 0), None
#     Edge 47, Type (0, 0), None
# Relax obj value: 0.288
# Max RMSD: 0.268
# Mean RMSD: 0.268
data_MOF--net-wkh--node1-OJICUG_clean_sbu_0--edge1-none
_symmetry_space_group_name_H-M    P1
_symmetry_Int_Tables_number       1
_symmetry_cell_setting            triclinic
loop_
_symmetry_equiv_pos_as_xyz
'x, y, z'
_cell_length_a     13.349223
_cell_length_b     13.202178
_cell_length_c     39.949649
_cell_angle_alpha  90.045074
_cell_angle_beta   89.469006
_cell_angle_gamma 120.39299
loop_
_atom_site_label
_atom_site_type_symbol
_atom_site_fract_x
_atom_site_fract_y
_atom_site_fract_z
_atom_type_partial_charge
Sc0 Sc 0.29911 0.19648 1.01378 0.0
Sc1 Sc 0.03586 0.20499 1.00727 0.0
Sc2 Sc 0.26166 0.3876 0.06283 0.0
O3 O 0.19877 0.26271 1.02797 0.0
C4 C 0.28475 0.16408 0.09303 0.0
C5 C 0.05289 -0.0017 1.00978 0.0
C6 C 0.0037 0.24145 0.08317 0.0
C7 C 0.21547 0.25507 0.94801 0.0
C8 C 0.51492 0.42947 0.03892 0.0
C9 C 0.1283 0.47932 1.01832 0.0
O10 O 0.29699 0.12797 0.06413 0.0
O11 O 0.98286 0.02616 0.99917 0.0
O12 O 0.09163 0.34095 0.07865 0.0
O13 O 0.29706 0.28645 0.96936 0.0
O14 O 0.44875 0.4665 0.05009 0.0
O15 O 0.05614 0.37531 1.00971 0.0
O16 O 0.47309 0.33148 1.02484 0.0
O17 O 0.11139 0.22774 0.95632 0.0
O18 O 0.22739 0.50784 0.03186 0.0
O19 O 0.14919 0.04705 0.995 0.0
O20 O 0.27366 0.25605 0.09636 0.0
O21 O 0.96254 0.1673 0.0592 0.0
Sc22 Sc 0.84635 0.27126 0.2328 0.0
Sc23 Sc 0.83863 0.06068 0.18092 0.0
Sc24 Sc 0.08198 0.28698 0.19115 0.0
O25 O 0.91453 0.22447 0.19711 0.0
C26 C 0.07414 0.51413 0.20787 0.0
C27 C 0.63962 0.12799 0.18389 0.0
C28 C 0.97224 0.21495 0.11883 0.0
C29 C 0.73076 0.01065 0.25078 0.0
C30 C 0.07244 0.28996 0.27187 0.0
C31 C 0.07413 0.04817 0.20552 0.0
O32 O 0.96891 0.4537 0.21896 0.0
O33 O 0.67326 0.0538 0.17833 0.0
O34 O 0.04969 0.28831 0.13886 0.0
O35 O 0.71679 0.09636 0.24544 0.0
O36 O 0.11859 0.28413 0.24427 0.0
O37 O 0.01779 0.09401 0.1844 0.0
O38 O 0.97382 0.28661 0.27247 0.0
O39 O 0.79753 0.99261 0.23196 0.0
O40 O 0.02406 0.10028 0.18463 0.0
O41 O 0.70658 0.23166 0.19659 0.0
O42 O 0.13131 0.46827 0.19645 0.0
O43 O 0.88111 0.12154 0.12895 0.0
Sc44 Sc 0.78622 0.10648 0.35336 0.0
Sc45 Sc 0.75301 0.85458 0.34554 0.0
Sc46 Sc 0.57307 0.88624 0.40162 0.0
O47 O 0.68131 0.94072 0.36432 0.0
C48 C 0.79959 0.11996 0.43205 0.0
C49 C -0.00178 0.0678 0.35183 0.0
C50 C 0.7235 0.77375 0.41976 0.0
C51 C 0.71285 0.97604 0.28553 0.0
C52 C 0.5565 0.10528 0.37298 0.0
C53 C 0.49167 0.65451 0.35974 0.0
O54 O 0.85193 0.1546 0.40384 0.0
O55 O 0.90319 0.03132 0.33749 0.0
O56 O 0.63154 0.77868 0.42192 0.0
O57 O 0.7205 0.05685 0.30487 0.0
O58 O 0.50897 0.99737 0.38265 0.0
O59 O 0.59589 0.68842 0.3506 0.0
O60 O 0.66281 0.16535 0.36393 0.0
O61 O 0.71577 0.88555 0.29544 0.0
O62 O 0.45994 0.7252 0.37214 0.0
O63 O 0.9045 0.0428 0.33774 0.0
O64 O 0.69545 0.03157 0.43471 0.0
O65 O 0.79663 0.82151 0.3957 0.0
Sc66 Sc 0.69627 0.60842 0.56726 0.0
Sc67 Sc 0.92603 0.76655 0.50743 0.0
Sc68 Sc 0.67611 0.79783 0.51465 0.0
O69 O 0.76963 0.72702 0.53094 0.0
C70 C 0.45652 0.56301 0.5379 0.0
C71 C 0.8277 0.50149 0.52324 0.0
C72 C 0.74671 0.72788 0.45022 0.0
C73 C 0.96473 0.74373 0.58608 0.0
C74 C 0.67157 0.83462 0.59232 0.0
C75 C 0.92666 0.97927 0.50979 0.0
O76 O 0.52084 0.52025 0.54567 0.0
O77 O 0.88186 0.59147 0.50516 0.0
O78 O 0.66611 0.69336 0.47229 0.0
O79 O 0.85647 0.68395 0.59182 0.0
O80 O 0.68672 0.88381 0.56336 0.0
O81 O -0.00028 0.94989 0.50361 0.0
O82 O 0.66101 0.73235 0.59567 0.0
O83 O 0.00899 0.78387 0.55693 0.0
O84 O 0.83574 0.9308 0.49289 0.0
O85 O 0.74829 0.4865 0.54467 0.0
O86 O 0.50075 0.66972 0.52987 0.0
O87 O 0.85127 0.75883 0.45791 0.0
Sc88 Sc 0.90348 0.70326 0.68254 0.0
Sc89 Sc 0.19448 0.92523 0.67482 0.0
Sc90 Sc 0.09464 0.71563 0.7391 0.0
O91 O 0.06383 0.78301 0.69924 0.0
C92 C 0.84983 0.69383 0.75915 0.0
C93 C 0.01501 0.98382 0.66438 0.0
C94 C 0.24458 0.97817 0.75263 0.0
C95 C 0.03367 0.75939 0.61633 0.0
C96 C 0.90974 0.47615 0.71009 0.0
C97 C 0.33342 0.82503 0.69468 0.0
O98 O 0.83321 0.72621 0.73048 0.0
O99 O 0.10953 0.02097 0.67942 0.0
O100 O 0.15537 0.88162 0.76051 0.0
O101 O 0.98085 0.67859 0.63813 0.0
O102 O 0.01687 0.53938 0.71835 0.0
O103 O 0.28445 0.83523 0.66921 0.0
O104 O 0.85273 0.52341 0.69946 0.0
O105 O 0.11252 0.8623 0.62516 0.0
O106 O 0.27632 0.77736 0.72182 0.0
O107 O 0.93797 0.87356 0.66124 0.0
O108 O 0.92772 0.66572 0.76324 0.0
O109 O 0.28434 0.00355 0.7226 0.0
Sc110 Sc 0.40819 0.126 0.90027 0.0
Sc111 Sc 0.2372 0.15068 0.84098 0.0
Sc112 Sc 0.21971 0.90597 0.84896 0.0
O113 O 0.31062 0.07009 0.86177 0.0
C114 C 0.43725 0.91011 0.8767 0.0
C115 C 0.48699 0.35533 0.85798 0.0
C116 C 0.30985 0.04338 0.7819 0.0
C117 C 0.24533 0.22461 0.91535 0.0
C118 C 0.17918 0.88398 0.92818 0.0
C119 C 0.00346 0.91475 0.84839 0.0
O120 O 0.48189 0.01851 0.88526 0.0
O121 O 0.38448 0.31912 0.84783 0.0
O122 O 0.31696 0.9741 0.80289 0.0
O123 O 0.34383 0.23354 0.91627 0.0
O124 O 0.13658 0.84677 0.89894 0.0
O125 O 0.09765 0.9725 0.83074 0.0
O126 O 0.27928 0.97749 0.93205 0.0
O127 O 0.1759 0.17412 0.89092 0.0
O128 O 0.0989 0.96087 0.83094 0.0
O129 O 0.52098 0.28706 0.87076 0.0
O130 O 0.33674 0.85048 0.86462 0.0
O131 O 0.29443 0.12751 0.79146 0.0
Sc132 Sc 0.7991 0.69917 0.87042 0.0
Sc133 Sc 0.78055 0.94873 0.88485 0.0
Sc134 Sc 0.59424 0.73258 0.82893 0.0
O135 O 0.71619 0.78603 0.86369 0.0
C136 C 0.78569 0.69496 0.79017 0.0
C137 C 0.00318 0.94124 0.88501 0.0
C138 C 0.75126 0.98899 0.81123 0.0
C139 C 0.75863 0.7875 0.94264 0.0
C140 C 0.56281 0.48368 0.85687 0.0
C141 C 0.51392 0.86087 0.87596 0.0
O142 O 0.81801 0.67161 0.81766 0.0
O143 O 0.94902 0.98505 0.8982 0.0
O144 O 0.64809 0.91121 0.81774 0.0
O145 O 0.78523 0.73002 0.92212 0.0
O146 O 0.53004 0.54552 0.84033 0.0
O147 O 0.61878 0.93787 0.88068 0.0
O148 O 0.65328 0.52866 0.87437 0.0
O149 O 0.73725 0.8681 0.934 0.0
O150 O 0.48236 0.75749 0.86452 0.0
O151 O 0.9474 0.85793 0.86499 0.0
O152 O 0.70892 0.72602 0.78938 0.0
O153 O 0.82947 0.0215 0.83366 0.0
Sc154 Sc 0.10502 0.79925 0.03898 0.0
Sc155 Sc 0.83019 0.78246 0.05113 0.0
Sc156 Sc 0.86896 0.60125 0.99336 0.0
O157 O 0.93432 0.7262 1.02838 0.0
C158 C 0.11132 0.81873 0.95939 0.0
C159 C 0.05364 0.99276 0.04542 0.0
C160 C 0.75671 0.75225 0.97717 0.0
C161 C 0.96844 0.73739 0.10775 0.0
C162 C 0.08159 0.56109 1.01644 0.0
C163 C 0.64424 0.50978 0.03855 0.0
O164 O 0.15944 0.86042 0.9877 0.0
O165 O 0.95801 0.96129 0.05907 0.0
O166 O 0.74714 0.65255 0.97955 0.0
O167 O 0.03902 0.73032 0.08714 0.0
O168 O 0.9776 0.52319 1.00606 0.0
O169 O 0.67726 0.61311 0.04832 0.0
O170 O 0.14096 0.66206 1.02848 0.0
O171 O 0.88399 0.75263 0.09968 0.0
O172 O 0.71527 0.48142 1.02491 0.0
O173 O 0.10822 0.94893 0.05779 0.0
O174 O 0.00889 0.72602 0.95726 0.0
O175 O 0.79083 0.82374 1.00161 0.0
Sc176 Sc 0.28819 0.08657 0.20376 0.0
Sc177 Sc 0.06274 0.84278 0.21387 0.0
Sc178 Sc 0.26696 0.85814 0.1576 0.0
O179 O 0.22271 0.91992 0.19524 0.0
C180 C 0.28056 0.09511 0.12412 0.0
C181 C 0.04527 0.07405 0.19388 0.0
C182 C 0.00849 0.75208 0.14203 0.0
C183 C 0.22454 0.96228 0.27464 0.0
C184 C 0.51217 0.07894 0.1813 0.0
C185 C 0.12449 0.64202 0.20505 0.0
O186 O 0.27448 0.13613 0.15258 0.0
O187 O 0.09637 0.02285 0.21491 0.0
O188 O 0.09234 0.73491 0.14517 0.0
O189 O 0.30077 0.03369 0.2535 0.0
O190 O 0.45014 0.97311 0.17055 0.0
O191 O 0.05327 0.67661 0.21264 0.0
O192 O 0.46765 0.13673 0.19354 0.0
O193 O 0.1262 0.87703 0.26546 0.0
O194 O 0.22606 0.70899 0.19128 0.0
O195 O 0.10387 0.03004 0.21457 0.0
O196 O 0.28264 -0.00177 0.12168 0.0
O197 O -0.00895 0.8134 0.16334 0.0
Sc198 Sc 0.17958 0.30161 0.38143 0.0
Sc199 Sc 0.20818 0.04622 0.38593 0.0
Sc200 Sc 0.37072 0.28504 0.32906 0.0
O201 O 0.25003 0.20752 0.36445 0.0
C202 C 0.13915 0.29888 0.30373 0.0
C203 C -0.00196 0.04874 0.38623 0.0
C204 C 0.24047 0.01566 0.30812 0.0
C205 C 0.24988 0.22681 0.44464 0.0
C206 C 0.41146 0.52517 0.35798 0.0
C207 C 0.47766 0.15409 0.37108 0.0
O208 O 0.09365 0.28999 0.33302 0.0
O209 O 0.02711 0.97463 0.39176 0.0
O210 O 0.30478 0.12531 0.30575 0.0
O211 O 0.28435 0.30889 0.42285 0.0
O212 O 0.45372 0.46075 0.34997 0.0
O213 O 0.38117 0.08744 0.38506 0.0
O214 O 0.30616 0.4803 0.36657 0.0
O215 O 0.22039 0.1213 0.43642 0.0
O216 O 0.49668 0.24213 0.35249 0.0
O217 O 0.04696 0.14068 0.40324 0.0
O218 O 0.24109 0.31032 0.30006 0.0
O219 O 0.18575 0.96446 0.33528 0.0
Sc220 Sc 0.87659 0.19571 0.54119 0.0
Sc221 Sc 0.12304 0.22397 0.55008 0.0
Sc222 Sc 0.09749 0.40855 0.49402 0.0
O223 O 0.04101 0.29774 0.53044 0.0
C224 C 0.86379 0.18271 0.46306 0.0
C225 C 0.90862 0.97904 0.54426 0.0
C226 C 0.20359 0.2503 0.47533 0.0
C227 C 0.00107 0.274 0.60868 0.0
C228 C 0.88086 0.42665 0.52218 0.0
C229 C 0.32767 0.4837 0.53588 0.0
O230 O 0.8306 0.12759 0.49094 0.0
O231 O 0.94635 0.07561 0.55856 0.0
O232 O 0.19822 0.34305 0.47301 0.0
O233 O 0.92679 0.27186 0.58845 0.0
O234 O -0.01036 0.47681 0.51402 0.0
O235 O 0.29088 0.37838 0.54529 0.0
O236 O 0.82008 0.31823 0.52931 0.0
O237 O 0.08881 0.26521 0.59975 0.0
O238 O 0.25971 0.51819 0.52349 0.0
O239 O 0.93504 0.07472 0.55824 0.0
O240 O 0.95118 0.2884 0.46084 0.0
O241 O 0.15792 0.17794 0.49985 0.0
Sc242 Sc 0.69574 0.12482 0.6644 0.0
Sc243 Sc 0.91573 0.13748 0.71155 0.0
Sc244 Sc 0.69045 0.88989 0.70493 0.0
O245 O 0.7505 0.05959 0.69856 0.0
C246 C 0.46143 0.89182 0.69435 0.0
C247 C 0.85595 0.34474 0.70918 0.0
C248 C 0.77591 0.00808 0.77549 0.0
C249 C 0.95533 0.24476 0.64234 0.0
C250 C 0.67528 0.89791 0.62447 0.0
C251 C 0.90899 0.90951 0.68251 0.0
O252 O 0.51555 0.99708 0.68179 0.0
O253 O 0.92702 0.30769 0.71444 0.0
O254 O 0.70096 0.92585 0.75702 0.0
O255 O 0.86456 0.25079 0.64655 0.0
O256 O 0.68252 0.85101 0.65163 0.0
O257 O 0.8785 0.95464 0.70623 0.0
O258 O 0.67527 0.99554 0.6245 0.0
O259 O 0.97589 0.17874 0.66048 0.0
O260 O 0.874 0.94903 0.70594 0.0
O261 O 0.74927 0.27591 0.69921 0.0
O262 O 0.51196 0.83857 0.70466 0.0
O263 O 0.86498 0.0997 0.76388 0.0
loop_
_geom_bond_atom_site_label_1
_geom_bond_atom_site_label_2
_geom_bond_distance
_geom_bond_site_symmetry_2
_ccdc_geom_bond_type
Sc0 O3 2.034 . S
Sc0 O10 2.129 . S
Sc0 O13 2.080 1_554 S
Sc0 O16 2.104 1_554 S
Sc0 O19 2.105 . S
Sc1 O3 2.025 1_556 S
Sc1 O11 2.105 1_455 S
Sc1 O15 2.105 . S
Sc1 O17 2.105 . S
Sc1 O21 2.105 1_456 S
Sc2 O3 2.025 . S
Sc2 O12 2.105 . S
Sc2 O14 2.105 . S
Sc2 O18 2.105 . S
Sc2 O20 2.105 . S
O3 Sc0 2.034 . S
O3 Sc1 2.025 1_554 S
O3 Sc2 2.025 . S
C4 O10 1.268 . S
C4 O20 1.268 . S
C5 O11 1.268 1_464 S
C5 O19 1.269 1_565 S
C6 O12 1.268 1_655 S
C6 O21 1.268 . S
C7 O13 1.268 . S
C7 O17 1.268 . S
C8 O14 1.268 . S
C8 O16 1.258 1_554 S
C9 O15 1.268 1_554 S
C9 O18 1.268 . S
O10 Sc0 2.129 . S
O10 C4 1.268 . S
O11 Sc1 2.105 1_655 S
O11 C5 1.268 1_646 S
O12 Sc2 2.105 . S
O12 C6 1.268 1_455 S
O13 Sc0 2.080 1_556 S
O13 C7 1.268 . S
O14 Sc2 2.105 . S
O14 C8 1.268 . S
O15 Sc1 2.105 . S
O15 C9 1.268 1_556 S
O16 Sc0 2.104 1_556 S
O16 C8 1.258 1_556 S
O17 Sc1 2.105 . S
O17 C7 1.268 . S
O18 Sc2 2.105 . S
O18 C9 1.268 . S
O19 Sc0 2.105 . S
O19 C5 1.269 1_545 S
O20 Sc2 2.105 . S
O20 C4 1.268 . S
O21 Sc1 2.105 1_654 S
O21 C6 1.268 . S
Sc22 O25 2.025 . S
Sc22 O32 2.105 . S
Sc22 O35 2.105 . S
Sc22 O38 2.105 . S
Sc22 O41 2.105 . S
Sc23 O25 2.025 . S
Sc23 O33 2.105 . S
Sc23 O37 2.105 1_545 S
Sc23 O39 2.105 1_545 S
Sc23 O43 2.105 . S
Sc24 O25 2.025 1_455 S
Sc24 O34 2.105 . S
Sc24 O36 2.105 . S
Sc24 O40 2.105 . S
Sc24 O42 2.105 . S
O25 Sc22 2.025 . S
O25 Sc23 2.025 . S
O25 Sc24 2.025 1_655 S
C26 O32 1.268 . S
C26 O42 1.268 1_655 S
C27 O33 1.268 . S
C27 O41 1.268 . S
C28 O34 1.268 1_655 S
C28 O43 1.268 . S
C29 O35 1.268 1_565 S
C29 O39 1.268 . S
C30 O36 1.268 . S
C30 O38 1.268 1_455 S
C31 O37 1.268 1_445 S
C31 O40 1.268 . S
O32 Sc22 2.105 . S
O32 C26 1.268 . S
O33 Sc23 2.105 . S
O33 C27 1.268 . S
O34 Sc24 2.105 . S
O34 C28 1.268 1_455 S
O35 Sc22 2.105 . S
O35 C29 1.268 1_545 S
O36 Sc24 2.105 . S
O36 C30 1.268 . S
O37 Sc23 2.105 1_565 S
O37 C31 1.268 1_665 S
O38 Sc22 2.105 . S
O38 C30 1.268 1_655 S
O39 Sc23 2.105 1_565 S
O39 C29 1.268 . S
O40 Sc24 2.105 . S
O40 C31 1.268 . S
O41 Sc22 2.105 . S
O41 C27 1.268 . S
O42 Sc24 2.105 . S
O42 C26 1.268 1_455 S
O43 Sc23 2.105 . S
O43 C28 1.268 . S
Sc44 O47 2.025 1_545 S
Sc44 O54 2.105 . S
Sc44 O57 2.105 . S
Sc44 O60 2.105 . S
Sc44 O63 2.105 . S
Sc45 O47 2.025 . S
Sc45 O55 2.105 . S
Sc45 O59 2.105 . S
Sc45 O61 2.105 . S
Sc45 O65 2.105 . S
Sc46 O47 2.025 . S
Sc46 O56 2.105 . S
Sc46 O58 2.105 . S
Sc46 O62 2.105 . S
Sc46 O64 2.105 . S
O47 Sc44 2.025 1_565 S
O47 Sc45 2.025 . S
O47 Sc46 2.025 . S
C48 O54 1.268 . S
C48 O64 1.268 1_545 S
C49 O55 1.268 1_445 S
C49 O63 1.268 1_455 S
C50 O56 1.268 . S
C50 O65 1.268 . S
C51 O57 1.268 1_565 S
C51 O61 1.268 . S
C52 O58 1.268 . S
C52 O60 1.268 1_565 S
C53 O59 1.268 . S
C53 O62 1.268 . S
O54 Sc44 2.105 . S
O54 C48 1.268 . S
O55 Sc45 2.105 . S
O55 C49 1.268 1_665 S
O56 Sc46 2.105 . S
O56 C50 1.268 . S
O57 Sc44 2.105 . S
O57 C51 1.268 1_545 S
O58 Sc46 2.105 . S
O58 C52 1.268 . S
O59 Sc45 2.105 . S
O59 C53 1.268 . S
O60 Sc44 2.105 . S
O60 C52 1.268 1_545 S
O61 Sc45 2.105 . S
O61 C51 1.268 . S
O62 Sc46 2.105 . S
O62 C53 1.268 . S
O63 Sc44 2.105 . S
O63 C49 1.268 1_655 S
O64 Sc46 2.105 . S
O64 C48 1.268 1_565 S
O65 Sc45 2.105 . S
O65 C50 1.268 . S
Sc66 O69 2.025 . S
Sc66 O76 2.105 . S
Sc66 O79 2.105 . S
Sc66 O82 2.105 . S
Sc66 O85 2.105 . S
Sc67 O69 2.025 . S
Sc67 O77 2.105 . S
Sc67 O81 2.105 1_655 S
Sc67 O83 2.105 1_655 S
Sc67 O87 2.105 . S
Sc68 O69 2.025 . S
Sc68 O78 2.105 . S
Sc68 O80 2.105 . S
Sc68 O84 2.105 . S
Sc68 O86 2.105 . S
O69 Sc66 2.025 . S
O69 Sc67 2.025 . S
O69 Sc68 2.025 . S
C70 O76 1.268 . S
C70 O86 1.268 . S
C71 O77 1.268 . S
C71 O85 1.268 . S
C72 O78 1.268 . S
C72 O87 1.268 . S
C73 O79 1.268 1_455 S
C73 O83 1.268 . S
C74 O80 1.268 . S
C74 O82 1.268 . S
C75 O81 1.268 1_645 S
C75 O84 1.268 1_545 S
O76 Sc66 2.105 . S
O76 C70 1.268 . S
O77 Sc67 2.105 . S
O77 C71 1.268 . S
O78 Sc68 2.105 . S
O78 C72 1.268 . S
O79 Sc66 2.105 . S
O79 C73 1.268 1_655 S
O80 Sc68 2.105 . S
O80 C74 1.268 . S
O81 Sc67 2.105 1_455 S
O81 C75 1.268 1_465 S
O82 Sc66 2.105 . S
O82 C74 1.268 . S
O83 Sc67 2.105 1_455 S
O83 C73 1.268 . S
O84 Sc68 2.105 . S
O84 C75 1.268 1_565 S
O85 Sc66 2.105 . S
O85 C71 1.268 . S
O86 Sc68 2.105 . S
O86 C70 1.268 . S
O87 Sc67 2.105 . S
O87 C72 1.268 . S
Sc88 O91 2.025 1_655 S
Sc88 O98 2.105 . S
Sc88 O101 2.105 . S
Sc88 O104 2.105 . S
Sc88 O107 2.105 . S
Sc89 O91 2.025 . S
Sc89 O99 2.105 1_565 S
Sc89 O103 2.105 . S
Sc89 O105 2.105 . S
Sc89 O109 2.105 1_565 S
Sc90 O91 2.025 . S
Sc90 O100 2.105 . S
Sc90 O102 2.105 . S
Sc90 O106 2.105 . S
Sc90 O108 2.105 . S
O91 Sc88 2.025 1_455 S
O91 Sc89 2.025 . S
O91 Sc90 2.025 . S
C92 O98 1.268 . S
C92 O108 1.268 1_655 S
C93 O99 1.268 1_665 S
C93 O107 1.268 . S
C94 O100 1.268 1_545 S
C94 O109 1.268 . S
C95 O101 1.268 1_455 S
C95 O105 1.268 . S
C96 O102 1.268 . S
C96 O104 1.268 1_455 S
C97 O103 1.268 . S
C97 O106 1.268 . S
O98 Sc88 2.105 . S
O98 C92 1.268 . S
O99 Sc89 2.105 1_545 S
O99 C93 1.268 1_445 S
O100 Sc90 2.105 . S
O100 C94 1.268 1_565 S
O101 Sc88 2.105 . S
O101 C95 1.268 1_655 S
O102 Sc90 2.105 . S
O102 C96 1.268 . S
O103 Sc89 2.105 . S
O103 C97 1.268 . S
O104 Sc88 2.105 . S
O104 C96 1.268 1_655 S
O105 Sc89 2.105 . S
O105 C95 1.268 . S
O106 Sc90 2.105 . S
O106 C97 1.268 . S
O107 Sc88 2.105 . S
O107 C93 1.268 . S
O108 Sc90 2.105 . S
O108 C92 1.268 1_455 S
O109 Sc89 2.105 1_545 S
O109 C94 1.268 . S
Sc110 O113 2.025 . S
Sc110 O120 2.105 . S
Sc110 O123 2.105 . S
Sc110 O126 2.105 . S
Sc110 O129 2.105 . S
Sc111 O113 2.025 . S
Sc111 O121 2.105 . S
Sc111 O125 2.105 . S
Sc111 O127 2.105 . S
Sc111 O131 2.105 . S
Sc112 O113 2.025 1_565 S
Sc112 O122 2.105 . S
Sc112 O124 2.105 . S
Sc112 O128 2.105 . S
Sc112 O130 2.105 . S
O113 Sc110 2.025 . S
O113 Sc111 2.025 . S
O113 Sc112 2.025 1_545 S
C114 O120 1.268 . S
C114 O130 1.268 1_545 S
C115 O121 1.268 . S
C115 O129 1.268 . S
C116 O122 1.268 1_545 S
C116 O131 1.268 . S
C117 O123 1.268 . S
C117 O127 1.268 . S
C118 O124 1.268 . S
C118 O126 1.268 1_565 S
C119 O125 1.268 1_665 S
C119 O128 1.268 1_655 S
O120 Sc110 2.105 . S
O120 C114 1.268 . S
O121 Sc111 2.105 . S
O121 C115 1.268 . S
O122 Sc112 2.105 . S
O122 C116 1.268 1_565 S
O123 Sc110 2.105 . S
O123 C117 1.268 . S
O124 Sc112 2.105 . S
O124 C118 1.268 . S
O125 Sc111 2.105 . S
O125 C119 1.268 1_445 S
O126 Sc110 2.105 . S
O126 C118 1.268 1_545 S
O127 Sc111 2.105 . S
O127 C117 1.268 . S
O128 Sc112 2.105 . S
O128 C119 1.268 1_455 S
O129 Sc110 2.105 . S
O129 C115 1.268 . S
O130 Sc112 2.105 . S
O130 C114 1.268 1_565 S
O131 Sc111 2.105 . S
O131 C116 1.268 . S
Sc132 O135 2.025 . S
Sc132 O142 2.105 . S
Sc132 O145 2.105 . S
Sc132 O148 2.105 . S
Sc132 O151 2.105 . S
Sc133 O135 2.025 . S
Sc133 O143 2.105 1_565 S
Sc133 O147 2.105 . S
Sc133 O149 2.105 . S
Sc133 O153 2.105 1_565 S
Sc134 O135 2.025 . S
Sc134 O144 2.105 . S
Sc134 O146 2.105 . S
Sc134 O150 2.105 . S
Sc134 O152 2.105 . S
O135 Sc132 2.025 . S
O135 Sc133 2.025 . S
O135 Sc134 2.025 . S
C136 O142 1.268 . S
C136 O152 1.268 . S
C137 O143 1.268 1_465 S
C137 O151 1.268 1_455 S
C138 O144 1.268 1_545 S
C138 O153 1.268 . S
C139 O145 1.268 . S
C139 O149 1.268 . S
C140 O146 1.268 . S
C140 O148 1.268 . S
C141 O147 1.268 . S
C141 O150 1.268 . S
O142 Sc132 2.105 . S
O142 C136 1.268 . S
O143 Sc133 2.105 1_545 S
O143 C137 1.268 1_645 S
O144 Sc134 2.105 . S
O144 C138 1.268 1_565 S
O145 Sc132 2.105 . S
O145 C139 1.268 . S
O146 Sc134 2.105 . S
O146 C140 1.268 . S
O147 Sc133 2.105 . S
O147 C141 1.268 . S
O148 Sc132 2.105 . S
O148 C140 1.268 . S
O149 Sc133 2.105 . S
O149 C139 1.268 . S
O150 Sc134 2.105 . S
O150 C141 1.268 . S
O151 Sc132 2.105 . S
O151 C137 1.268 1_655 S
O152 Sc134 2.105 . S
O152 C136 1.268 . S
O153 Sc133 2.105 1_545 S
O153 C138 1.268 . S
Sc154 O157 2.017 1_454 S
Sc154 O164 2.079 1_554 S
Sc154 O167 2.132 . S
Sc154 O170 2.106 . S
Sc154 O173 2.105 . S
Sc155 O157 2.025 1_554 S
Sc155 O165 2.105 . S
Sc155 O169 2.105 . S
Sc155 O171 2.105 . S
Sc155 O175 2.105 1_554 S
Sc156 O157 2.025 . S
Sc156 O166 2.105 . S
Sc156 O168 2.105 . S
Sc156 O172 2.105 . S
Sc156 O174 2.105 . S
O157 Sc154 2.017 1_656 S
O157 Sc155 2.025 1_556 S
O157 Sc156 2.025 . S
C158 O164 1.268 . S
C158 O174 1.268 1_455 S
C159 O165 1.268 1_445 S
C159 O173 1.268 1_545 S
C160 O166 1.268 . S
C160 O175 1.268 . S
C161 O167 1.268 1_655 S
C161 O171 1.268 . S
C162 O168 1.268 . S
C162 O170 1.268 1_656 S
C163 O169 1.268 1_556 S
C163 O172 1.268 . S
O164 Sc154 2.079 1_556 S
O164 C158 1.268 . S
O165 Sc155 2.105 . S
O165 C159 1.268 1_665 S
O166 Sc156 2.105 . S
O166 C160 1.268 . S
O167 Sc154 2.132 . S
O167 C161 1.268 1_455 S
O168 Sc156 2.105 . S
O168 C162 1.268 . S
O169 Sc155 2.105 . S
O169 C163 1.268 1_554 S
O170 Sc154 2.106 . S
O170 C162 1.268 1_454 S
O171 Sc155 2.105 . S
O171 C161 1.268 . S
O172 Sc156 2.105 . S
O172 C163 1.268 . S
O173 Sc154 2.105 . S
O173 C159 1.268 1_565 S
O174 Sc156 2.105 . S
O174 C158 1.268 1_655 S
O175 Sc155 2.105 1_556 S
O175 C160 1.268 . S
Sc176 O179 2.025 1_545 S
Sc176 O186 2.105 . S
Sc176 O189 2.105 . S
Sc176 O192 2.105 . S
Sc176 O195 2.105 . S
Sc177 O179 2.025 . S
Sc177 O187 2.105 1_455 S
Sc177 O191 2.105 . S
Sc177 O193 2.105 . S
Sc177 O197 2.105 1_455 S
Sc178 O179 2.025 . S
Sc178 O188 2.105 . S
Sc178 O190 2.105 . S
Sc178 O194 2.105 . S
Sc178 O196 2.105 . S
O179 Sc176 2.025 1_565 S
O179 Sc177 2.025 . S
O179 Sc178 2.025 . S
C180 O186 1.268 . S
C180 O196 1.268 1_545 S
C181 O187 1.268 1_445 S
C181 O195 1.268 . S
C182 O188 1.268 1_655 S
C182 O197 1.268 . S
C183 O189 1.268 1_565 S
C183 O193 1.268 . S
C184 O190 1.268 . S
C184 O192 1.268 1_565 S
C185 O191 1.268 . S
C185 O194 1.268 . S
O186 Sc176 2.105 . S
O186 C180 1.268 . S
O187 Sc177 2.105 1_655 S
O187 C181 1.268 1_665 S
O188 Sc178 2.105 . S
O188 C182 1.268 1_455 S
O189 Sc176 2.105 . S
O189 C183 1.268 1_545 S
O190 Sc178 2.105 . S
O190 C184 1.268 . S
O191 Sc177 2.105 . S
O191 C185 1.268 . S
O192 Sc176 2.105 . S
O192 C184 1.268 1_545 S
O193 Sc177 2.105 . S
O193 C183 1.268 . S
O194 Sc178 2.105 . S
O194 C185 1.268 . S
O195 Sc176 2.105 . S
O195 C181 1.268 . S
O196 Sc178 2.105 . S
O196 C180 1.268 1_565 S
O197 Sc177 2.105 1_655 S
O197 C182 1.268 . S
Sc198 O201 2.025 . S
Sc198 O208 2.105 . S
Sc198 O211 2.105 . S
Sc198 O214 2.105 . S
Sc198 O217 2.105 . S
Sc199 O201 2.025 . S
Sc199 O209 2.105 1_545 S
Sc199 O213 2.105 . S
Sc199 O215 2.105 . S
Sc199 O219 2.105 1_545 S
Sc200 O201 2.025 . S
Sc200 O210 2.105 . S
Sc200 O212 2.105 . S
Sc200 O216 2.105 . S
Sc200 O218 2.105 . S
O201 Sc198 2.025 . S
O201 Sc199 2.025 . S
O201 Sc200 2.025 . S
C202 O208 1.268 . S
C202 O218 1.268 . S
C203 O209 1.268 1_645 S
C203 O217 1.268 1_655 S
C204 O210 1.268 1_565 S
C204 O219 1.268 . S
C205 O211 1.268 . S
C205 O215 1.268 . S
C206 O212 1.268 . S
C206 O214 1.268 . S
C207 O213 1.268 . S
C207 O216 1.268 . S
O208 Sc198 2.105 . S
O208 C202 1.268 . S
O209 Sc199 2.105 1_565 S
O209 C203 1.268 1_465 S
O210 Sc200 2.105 . S
O210 C204 1.268 1_545 S
O211 Sc198 2.105 . S
O211 C205 1.268 . S
O212 Sc200 2.105 . S
O212 C206 1.268 . S
O213 Sc199 2.105 . S
O213 C207 1.268 . S
O214 Sc198 2.105 . S
O214 C206 1.268 . S
O215 Sc199 2.105 . S
O215 C205 1.268 . S
O216 Sc200 2.105 . S
O216 C207 1.268 . S
O217 Sc198 2.105 . S
O217 C203 1.268 1_455 S
O218 Sc200 2.105 . S
O218 C202 1.268 . S
O219 Sc199 2.105 1_565 S
O219 C204 1.268 . S
Sc220 O223 2.025 1_655 S
Sc220 O230 2.105 . S
Sc220 O233 2.105 . S
Sc220 O236 2.105 . S
Sc220 O239 2.105 . S
Sc221 O223 2.025 . S
Sc221 O231 2.105 . S
Sc221 O235 2.105 . S
Sc221 O237 2.105 . S
Sc221 O241 2.105 . S
Sc222 O223 2.025 . S
Sc222 O232 2.105 . S
Sc222 O234 2.105 . S
Sc222 O238 2.105 . S
Sc222 O240 2.105 . S
O223 Sc220 2.025 1_455 S
O223 Sc221 2.025 . S
O223 Sc222 2.025 . S
C224 O230 1.268 . S
C224 O240 1.268 1_655 S
C225 O231 1.268 1_665 S
C225 O239 1.268 1_565 S
C226 O232 1.268 . S
C226 O241 1.268 . S
C227 O233 1.268 1_455 S
C227 O237 1.268 . S
C228 O234 1.268 . S
C228 O236 1.268 1_455 S
C229 O235 1.268 . S
C229 O238 1.268 . S
O230 Sc220 2.105 . S
O230 C224 1.268 . S
O231 Sc221 2.105 . S
O231 C225 1.268 1_445 S
O232 Sc222 2.105 . S
O232 C226 1.268 . S
O233 Sc220 2.105 . S
O233 C227 1.268 1_655 S
O234 Sc222 2.105 . S
O234 C228 1.268 . S
O235 Sc221 2.105 . S
O235 C229 1.268 . S
O236 Sc220 2.105 . S
O236 C228 1.268 1_655 S
O237 Sc221 2.105 . S
O237 C227 1.268 . S
O238 Sc222 2.105 . S
O238 C229 1.268 . S
O239 Sc220 2.105 . S
O239 C225 1.268 1_545 S
O240 Sc222 2.105 . S
O240 C224 1.268 1_455 S
O241 Sc221 2.105 . S
O241 C226 1.268 . S
Sc242 O245 2.025 . S
Sc242 O252 2.105 . S
Sc242 O255 2.105 . S
Sc242 O258 2.105 . S
Sc242 O261 2.105 . S
Sc243 O245 2.025 . S
Sc243 O253 2.105 . S
Sc243 O257 2.105 1_655 S
Sc243 O259 2.105 1_655 S
Sc243 O263 2.105 . S
Sc244 O245 2.025 1_565 S
Sc244 O254 2.105 . S
Sc244 O256 2.105 . S
Sc244 O260 2.105 . S
Sc244 O262 2.105 . S
O245 Sc242 2.025 . S
O245 Sc243 2.025 . S
O245 Sc244 2.025 1_545 S
C246 O252 1.268 . S
C246 O262 1.268 1_545 S
C247 O253 1.268 . S
C247 O261 1.268 . S
C248 O254 1.268 1_545 S
C248 O263 1.268 . S
C249 O255 1.268 1_455 S
C249 O259 1.268 . S
C250 O256 1.268 . S
C250 O258 1.268 1_565 S
C251 O257 1.268 1_665 S
C251 O260 1.268 . S
O252 Sc242 2.105 . S
O252 C246 1.268 . S
O253 Sc243 2.105 . S
O253 C247 1.268 . S
O254 Sc244 2.105 . S
O254 C248 1.268 1_565 S
O255 Sc242 2.105 . S
O255 C249 1.268 1_655 S
O256 Sc244 2.105 . S
O256 C250 1.268 . S
O257 Sc243 2.105 1_455 S
O257 C251 1.268 1_445 S
O258 Sc242 2.105 . S
O258 C250 1.268 1_545 S
O259 Sc243 2.105 1_455 S
O259 C249 1.268 . S
O260 Sc244 2.105 . S
O260 C251 1.268 . S
O261 Sc242 2.105 . S
O261 C247 1.268 . S
O262 Sc244 2.105 . S
O262 C246 1.268 1_565 S
O263 Sc243 2.105 . S
O263 C248 1.268 . S
C163 C8 2.085 1_556 S
C185 C26 2.084 1_455 S
C207 C52 2.084 1_545 S
C229 C70 2.085 . S
C247 C96 2.084 1_655 S
C141 C114 2.084 1_565 S
C140 C115 2.085 . S
C162 C9 2.084 1_656 S
C184 C27 2.084 1_565 S
C206 C53 2.085 . S
C228 C71 2.084 1_455 S
C246 C97 2.084 1_545 S
C7 C117 1.732 . S
C28 C6 1.732 . S
C29 C51 1.732 . S
C50 C72 1.732 . S
C73 C95 1.732 . S
C116 C94 1.732 . S
C139 C160 1.732 . S
C161 C182 1.732 . S
C183 C204 1.732 . S
C205 C226 1.732 . S
C227 C249 1.732 . S
C138 C248 1.732 . S
C180 C4 1.726 . S
C30 C202 1.726 . S
C48 C224 1.726 . S
C74 C250 1.726 . S
C92 C136 1.726 . S
C158 C118 1.726 . S
C5 C159 0.169 1_565 S
C181 C31 0.169 . S
C203 C49 0.169 1_655 S
C225 C75 0.169 1_565 S
C93 C251 0.169 . S
C119 C137 0.169 1_655 S
