# Generated by pormake.
# Topology uod, (4)-cn, num edge types: 1
# Building blocks:
#     Node 0, Type 0, BuildingBlock: KUFVIS_clean_sbu_0, # of connection points: 4
#     Node 1, Type 0, BuildingBlock: KUFVIS_clean_sbu_0, # of connection points: 4
#     Node 2, Type 0, BuildingBlock: KUFVIS_clean_sbu_0, # of connection points: 4
#     Node 3, Type 0, BuildingBlock: KUFVIS_clean_sbu_0, # of connection points: 4
#     Node 4, Type 0, BuildingBlock: KUFVIS_clean_sbu_0, # of connection points: 4
#     Node 5, Type 0, BuildingBlock: KUFVIS_clean_sbu_0, # of connection points: 4
#     Node 6, Type 0, BuildingBlock: KUFVIS_clean_sbu_0, # of connection points: 4
#     Node 7, Type 0, BuildingBlock: KUFVIS_clean_sbu_0, # of connection points: 4
#     Node 8, Type 0, BuildingBlock: KUFVIS_clean_sbu_0, # of connection points: 4
#     Node 9, Type 0, BuildingBlock: KUFVIS_clean_sbu_0, # of connection points: 4
#     Node 10, Type 0, BuildingBlock: KUFVIS_clean_sbu_0, # of connection points: 4
#     Node 11, Type 0, BuildingBlock: KUFVIS_clean_sbu_0, # of connection points: 4
#     Node 12, Type 0, BuildingBlock: KUFVIS_clean_sbu_0, # of connection points: 4
#     Node 13, Type 0, BuildingBlock: KUFVIS_clean_sbu_0, # of connection points: 4
#     Node 14, Type 0, BuildingBlock: KUFVIS_clean_sbu_0, # of connection points: 4
#     Node 15, Type 0, BuildingBlock: KUFVIS_clean_sbu_0, # of connection points: 4
#     Node 16, Type 0, BuildingBlock: KUFVIS_clean_sbu_0, # of connection points: 4
#     Node 17, Type 0, BuildingBlock: KUFVIS_clean_sbu_0, # of connection points: 4
#     Node 18, Type 0, BuildingBlock: KUFVIS_clean_sbu_0, # of connection points: 4
#     Node 19, Type 0, BuildingBlock: KUFVIS_clean_sbu_0, # of connection points: 4
#     Node 20, Type 0, BuildingBlock: KUFVIS_clean_sbu_0, # of connection points: 4
#     Node 21, Type 0, BuildingBlock: KUFVIS_clean_sbu_0, # of connection points: 4
#     Node 22, Type 0, BuildingBlock: KUFVIS_clean_sbu_0, # of connection points: 4
#     Node 23, Type 0, BuildingBlock: KUFVIS_clean_sbu_0, # of connection points: 4
#     Node 24, Type 0, BuildingBlock: KUFVIS_clean_sbu_0, # of connection points: 4
#     Node 25, Type 0, BuildingBlock: KUFVIS_clean_sbu_0, # of connection points: 4
#     Node 26, Type 0, BuildingBlock: KUFVIS_clean_sbu_0, # of connection points: 4
#     Node 27, Type 0, BuildingBlock: KUFVIS_clean_sbu_0, # of connection points: 4
#     Node 28, Type 0, BuildingBlock: KUFVIS_clean_sbu_0, # of connection points: 4
#     Node 29, Type 0, BuildingBlock: KUFVIS_clean_sbu_0, # of connection points: 4
#     Node 30, Type 0, BuildingBlock: KUFVIS_clean_sbu_0, # of connection points: 4
#     Node 31, Type 0, BuildingBlock: KUFVIS_clean_sbu_0, # of connection points: 4
#     Edge 32, Type (0, 0), None
#     Edge 33, Type (0, 0), None
#     Edge 34, Type (0, 0), None
#     Edge 35, Type (0, 0), None
#     Edge 36, Type (0, 0), None
#     Edge 37, Type (0, 0), None
#     Edge 38, Type (0, 0), None
#     Edge 39, Type (0, 0), None
#     Edge 40, Type (0, 0), None
#     Edge 41, Type (0, 0), None
#     Edge 42, Type (0, 0), None
#     Edge 43, Type (0, 0), None
#     Edge 44, Type (0, 0), None
#     Edge 45, Type (0, 0), None
#     Edge 46, Type (0, 0), None
#     Edge 47, Type (0, 0), None
#     Edge 48, Type (0, 0), None
#     Edge 49, Type (0, 0), None
#     Edge 50, Type (0, 0), None
#     Edge 51, Type (0, 0), None
#     Edge 52, Type (0, 0), None
#     Edge 53, Type (0, 0), None
#     Edge 54, Type (0, 0), None
#     Edge 55, Type (0, 0), None
#     Edge 56, Type (0, 0), None
#     Edge 57, Type (0, 0), None
#     Edge 58, Type (0, 0), None
#     Edge 59, Type (0, 0), None
#     Edge 60, Type (0, 0), None
#     Edge 61, Type (0, 0), None
#     Edge 62, Type (0, 0), None
#     Edge 63, Type (0, 0), None
#     Edge 64, Type (0, 0), None
#     Edge 65, Type (0, 0), None
#     Edge 66, Type (0, 0), None
#     Edge 67, Type (0, 0), None
#     Edge 68, Type (0, 0), None
#     Edge 69, Type (0, 0), None
#     Edge 70, Type (0, 0), None
#     Edge 71, Type (0, 0), None
#     Edge 72, Type (0, 0), None
#     Edge 73, Type (0, 0), None
#     Edge 74, Type (0, 0), None
#     Edge 75, Type (0, 0), None
#     Edge 76, Type (0, 0), None
#     Edge 77, Type (0, 0), None
#     Edge 78, Type (0, 0), None
#     Edge 79, Type (0, 0), None
#     Edge 80, Type (0, 0), None
#     Edge 81, Type (0, 0), None
#     Edge 82, Type (0, 0), None
#     Edge 83, Type (0, 0), None
#     Edge 84, Type (0, 0), None
#     Edge 85, Type (0, 0), None
#     Edge 86, Type (0, 0), None
#     Edge 87, Type (0, 0), None
#     Edge 88, Type (0, 0), None
#     Edge 89, Type (0, 0), None
#     Edge 90, Type (0, 0), None
#     Edge 91, Type (0, 0), None
#     Edge 92, Type (0, 0), None
#     Edge 93, Type (0, 0), None
#     Edge 94, Type (0, 0), None
#     Edge 95, Type (0, 0), None
# Relax obj value: 0.209
# Max RMSD: 0.185
# Mean RMSD: 0.177
data_MOF--net-uod--node1-KUFVIS_clean_sbu_0--edge1-none
_symmetry_space_group_name_H-M    P1
_symmetry_Int_Tables_number       1
_symmetry_cell_setting            triclinic
loop_
_symmetry_equiv_pos_as_xyz
'x, y, z'
_cell_length_a     41.262139
_cell_length_b     12.330932
_cell_length_c     29.645816
_cell_angle_alpha  89.994301
_cell_angle_beta   90.018993
_cell_angle_gamma 91.822583
loop_
_atom_site_label
_atom_site_type_symbol
_atom_site_fract_x
_atom_site_fract_y
_atom_site_fract_z
_atom_type_partial_charge
Mn0 Mn 0.02951 0.33508 0.05822 0.0
Mn1 Mn 0.03557 0.3137 0.17257 0.0
C2 C 0.02402 0.49856 0.10459 0.0
C3 C -0.01113 0.43469 0.0103 0.0
C4 C 0.09326 0.35943 0.11789 0.0
O5 O 0.02966 0.16674 0.07138 0.0
O6 O 0.02762 0.16352 0.14627 0.0
C7 C 0.96805 0.24138 0.18861 0.0
N8 N -0.00596 0.30778 0.19808 0.0
C9 C -0.0271 0.35626 0.26925 0.0
C10 C 0.94555 0.28847 0.26114 0.0
C11 C 0.9426 0.23373 0.21986 0.0
C12 C -0.00435 0.36832 0.23556 0.0
H13 H 0.9672 0.19458 0.15787 0.0
C14 C 0.02681 0.11372 0.10843 0.0
O15 O 0.01682 0.47363 0.02131 0.0
O16 O -0.01673 0.34154 0.02931 0.0
N17 N 0.04348 0.44206 0.20675 0.0
C18 C 0.06781 0.5195 0.20566 0.0
C19 C 0.06788 0.60312 0.23821 0.0
C20 C 0.0478 0.59374 0.27582 0.0
C21 C 0.02457 0.50955 0.27705 0.0
C22 C 0.02169 0.43996 0.24012 0.0
H23 H 0.08444 0.52468 0.17769 0.0
O24 O 0.02922 0.49671 0.06332 0.0
O25 O 0.01825 0.40039 0.12019 0.0
O26 O 0.07808 0.36128 0.07961 0.0
O27 O 0.08061 0.32101 0.1533 0.0
C28 C 0.00372 0.49243 0.31308 0.0
C29 C -0.02057 0.41047 0.30966 0.0
H30 H 0.92602 0.281 0.2851 0.0
H31 H 0.92115 0.18465 0.21295 0.0
H32 H 0.0826 0.67595 0.23443 0.0
H33 H 0.04928 0.65441 0.30224 0.0
H34 H 0.00666 0.54092 0.34321 0.0
H35 H 0.96843 0.38208 0.33901 0.0
Mn36 Mn 0.18017 0.89067 0.05817 0.0
Mn37 Mn 0.17414 0.91207 0.17253 0.0
C38 C 0.18568 0.72721 0.10455 0.0
C39 C 0.22084 0.79118 0.01025 0.0
C40 C 0.11643 0.86616 0.11786 0.0
O41 O 0.18001 0.05903 0.07131 0.0
O42 O 0.18204 0.06224 0.1462 0.0
C43 C 0.24165 0.98469 0.18848 0.0
N44 N 0.2157 0.91816 0.19798 0.0
C45 C 0.23688 0.87009 0.26919 0.0
C46 C 0.26419 0.938 0.26105 0.0
C47 C 0.26711 -0.00741 0.21973 0.0
C48 C 0.21414 0.85773 0.2355 0.0
H49 H 0.24247 0.03144 0.15772 0.0
C50 C 0.18286 0.11206 0.10836 0.0
O51 O 0.19291 0.75212 0.02128 0.0
O52 O 0.22641 0.88435 0.02925 0.0
N53 N 0.1663 0.78377 0.20676 0.0
C54 C 0.14194 0.7064 0.20578 0.0
C55 C 0.14188 0.62297 0.23842 0.0
C56 C 0.162 0.63253 0.276 0.0
C57 C 0.18524 0.7167 0.27713 0.0
C58 C 0.18811 0.78604 0.24011 0.0
H59 H 0.12529 0.70112 0.17782 0.0
O60 O 0.18052 0.72906 0.06327 0.0
O61 O 0.19144 0.82538 0.12016 0.0
O62 O 0.1316 0.86434 0.07958 0.0
O63 O 0.12909 0.90459 0.15328 0.0
C64 C 0.20608 0.73415 0.31316 0.0
C65 C 0.23036 0.81614 0.30966 0.0
H66 H 0.28372 0.94571 0.28502 0.0
H67 H 0.28853 0.04179 0.2128 0.0
H68 H 0.12713 0.55018 0.23474 0.0
H69 H 0.16053 0.57206 0.30251 0.0
H70 H 0.20314 0.68588 0.34336 0.0
H71 H 0.24136 0.84479 0.33898 0.0
Mn72 Mn 0.01192 0.77944 0.1609 0.0
Mn73 Mn 0.04116 0.78173 0.05234 0.0
C74 C 0.02026 0.60871 0.12363 0.0
C75 C 0.96736 0.65491 0.20036 0.0
C76 C 0.08395 0.81002 0.12185 0.0
O77 O 0.00685 0.93929 0.1387 0.0
O78 O 0.03867 0.9348 0.07863 0.0
C79 C -0.01083 0.90237 0.01284 0.0
N80 N 0.0073 0.8122 0.01178 0.0
C81 C 0.00708 0.80962 0.93087 0.0
C82 C -0.00746 0.9103 0.93177 0.0
C83 C -0.01793 0.95461 0.97248 0.0
C84 C 0.0149 0.76418 0.97225 0.0
H85 H -0.01755 0.93891 0.04436 0.0
C86 C 0.02364 -0.01097 0.10845 0.0
O87 O -0.00174 0.64448 0.20456 0.0
O88 O 0.96238 0.73091 0.17149 0.0
N89 N 0.04918 0.65982 0.01427 0.0
C90 C 0.0725 0.58452 0.01765 0.0
C91 C 0.07942 0.51679 0.98089 0.0
C92 C 0.06599 0.53849 0.93878 0.0
C93 C 0.04473 0.62397 0.93473 0.0
C94 C 0.03554 0.67905 0.97398 0.0
H95 H 0.08279 0.56769 0.05023 0.0
O96 O 0.02168 0.62234 0.16595 0.0
O97 O 0.01384 0.69724 0.10048 0.0
O98 O 0.06371 0.82028 0.15534 0.0
O99 O 0.07701 0.75015 0.08905 0.0
C100 C 0.0344 0.6622 0.89289 0.0
C101 C 0.01697 0.75778 0.89094 0.0
H102 H -0.01048 0.95513 0.90164 0.0
H103 H -0.03024 0.03069 0.97272 0.0
H104 H 0.09626 0.45187 0.98472 0.0
H105 H 0.07308 0.49196 0.9096 0.0
H106 H 0.0418 0.6236 0.86188 0.0
H107 H 0.01262 0.79104 0.85832 0.0
Mn108 Mn 0.19776 0.44633 0.16088 0.0
Mn109 Mn 0.16846 0.44411 0.05234 0.0
C110 C 0.18937 0.61704 0.12361 0.0
C111 C 0.24229 0.57112 0.2003 0.0
C112 C 0.12573 0.41559 0.12186 0.0
O113 O 0.20284 0.28648 0.13865 0.0
O114 O 0.17099 0.29099 0.07858 0.0
C115 C 0.22051 0.32382 0.01283 0.0
N116 N 0.20232 0.41386 0.0118 0.0
C117 C 0.20273 0.41724 0.9309 0.0
C118 C 0.21734 0.31669 0.93174 0.0
C119 C 0.22774 0.27204 0.97243 0.0
C120 C 0.19477 0.46216 0.9723 0.0
H121 H 0.22718 0.28704 0.04432 0.0
C122 C 0.18603 0.23675 0.1084 0.0
O123 O 0.21138 0.58136 0.20452 0.0
O124 O 0.24728 0.49512 0.17144 0.0
N125 N 0.16041 0.56611 0.01433 0.0
C126 C 0.13711 0.64147 0.01775 0.0
C127 C 0.13021 0.7094 0.98104 0.0
C128 C 0.14368 0.68798 0.93893 0.0
C129 C 0.16495 0.60258 0.93485 0.0
C130 C 0.17408 0.54717 0.97406 0.0
H131 H 0.12684 0.65816 0.05034 0.0
O132 O 0.18793 0.60339 0.16592 0.0
O133 O 0.19579 0.52854 0.10048 0.0
O134 O 0.14598 0.40534 0.15535 0.0
O135 O 0.13263 0.47554 0.08907 0.0
C136 C 0.17542 0.56486 0.89301 0.0
C137 C 0.19295 0.46947 0.89099 0.0
H138 H 0.22048 0.2722 0.90156 0.0
H139 H 0.24011 0.19607 0.97262 0.0
H140 H 0.11338 0.77433 0.98491 0.0
H141 H 0.13663 0.73475 0.9098 0.0
H142 H 0.16811 0.60379 0.86202 0.0
H143 H 0.19747 0.43672 0.85834 0.0
Mn144 Mn 0.93997 0.66062 0.91801 0.0
Mn145 Mn 0.89581 0.47743 0.97136 0.0
C146 C 0.88503 0.60894 0.88026 0.0
C147 C 0.92428 0.8341 0.89181 0.0
C148 C 0.93481 0.44075 0.89001 0.0
O149 O 0.96377 0.60015 0.97705 0.0
O150 O 0.94002 0.43965 0.97638 0.0
C151 C 0.92032 0.54418 0.0636 0.0
N152 N 0.89487 0.52645 0.03438 0.0
C153 C 0.85939 0.49488 0.09828 0.0
C154 C 0.88588 0.49992 0.12753 0.0
C155 C 0.91641 0.52775 0.1101 0.0
C156 C 0.86528 0.50647 0.05181 0.0
H157 H 0.94383 0.57154 0.05294 0.0
C158 C 0.96444 0.49645 0.98438 0.0
O159 O 0.92765 0.75194 0.86537 0.0
O160 O 0.92787 0.81547 0.93441 0.0
N161 N 0.84949 0.48825 0.97761 0.0
C162 C 0.82598 0.47919 0.94692 0.0
C163 C 0.79401 0.50698 0.95858 0.0
C164 C 0.78546 0.51737 0.0037 0.0
C165 C 0.80877 0.50012 0.03622 0.0
C166 C 0.84097 0.49687 0.02162 0.0
H167 H 0.83291 0.45271 0.91425 0.0
O168 O 0.90887 0.65561 0.85983 0.0
O169 O 0.89261 0.60337 0.92489 0.0
O170 O 0.95294 0.52424 0.89209 0.0
O171 O 0.90658 0.42835 0.90979 0.0
C172 C 0.80165 0.48973 0.08241 0.0
C173 C 0.8272 0.48138 0.11347 0.0
H174 H 0.88277 0.48817 0.1635 0.0
H175 H 0.93705 0.53644 0.13235 0.0
H176 H 0.77531 0.518 0.93438 0.0
H177 H 0.7611 0.53797 0.01285 0.0
H178 H 0.77682 0.48779 0.09419 0.0
H179 H 0.8219 0.47208 0.14904 0.0
Mn180 Mn 0.7698 0.066 0.91795 0.0
Mn181 Mn 0.81391 0.24923 0.97133 0.0
C182 C 0.82474 0.11774 0.88025 0.0
C183 C 0.78551 0.89253 0.89176 0.0
C184 C 0.77493 0.28587 0.88994 0.0
O185 O 0.74598 0.12641 0.97698 0.0
O186 O 0.76969 0.28695 0.97631 0.0
C187 C 0.78942 0.18255 0.06357 0.0
N188 N 0.81486 0.20027 0.03437 0.0
C189 C 0.85035 0.23184 0.0983 0.0
C190 C 0.82386 0.2268 0.12752 0.0
C191 C 0.79333 0.19899 0.11007 0.0
C192 C 0.84446 0.22027 0.05182 0.0
H193 H 0.7659 0.1552 0.0529 0.0
C194 C 0.74527 0.23012 0.98428 0.0
O195 O 0.78214 0.97471 0.86533 0.0
O196 O 0.78191 0.91114 0.93437 0.0
N197 N 0.86024 0.23846 0.97763 0.0
C198 C 0.88374 0.24745 0.94696 0.0
C199 C 0.91571 0.21961 0.95864 0.0
C200 C 0.92426 0.20923 0.00376 0.0
C201 C 0.90096 0.22655 0.03627 0.0
C202 C 0.86876 0.22986 0.02164 0.0
H203 H 0.8768 0.27391 0.91427 0.0
O204 O 0.8009 0.07106 0.8598 0.0
O205 O 0.81715 0.1233 0.92487 0.0
O206 O 0.75681 0.20238 0.89201 0.0
O207 O 0.80316 0.29827 0.90975 0.0
C208 C 0.90808 0.23693 0.08247 0.0
C209 C 0.88254 0.24531 0.1135 0.0
H210 H 0.82697 0.23855 0.1635 0.0
H211 H 0.7727 0.19029 0.13232 0.0
H212 H 0.9344 0.2085 0.93444 0.0
H213 H 0.94861 0.18855 0.01293 0.0
H214 H 0.93292 0.23883 0.09426 0.0
H215 H 0.88784 0.25459 0.14908 0.0
Mn216 Mn 0.91629 0.10904 0.8353 0.0
Mn217 Mn 0.87974 0.26545 0.7552 0.0
C218 C 0.8584 0.13473 0.85442 0.0
C219 C 0.91968 0.9397 0.87148 0.0
C220 C 0.94156 0.37629 0.85375 0.0
O221 O 0.94764 0.08531 0.77444 0.0
O222 O 0.91193 0.14549 0.72397 0.0
C223 C 0.87234 0.2277 0.66315 0.0
N224 N 0.85634 0.21616 0.70367 0.0
C225 C 0.80614 0.22312 0.66348 0.0
C226 C 0.82231 0.22206 0.62231 0.0
C227 C 0.8558 0.2305 0.62225 0.0
C228 C 0.82432 0.23086 0.70419 0.0
H229 H 0.89806 0.24571 0.6619 0.0
C230 C 0.94037 0.10602 0.73213 0.0
O231 O 0.90357 0.9497 0.83461 0.0
O232 O 0.93831 0.02073 0.88176 0.0
N233 N 0.83222 0.3075 0.77764 0.0
C234 C 0.82541 0.39204 0.81258 0.0
C235 C 0.79429 0.47191 0.795 0.0
C236 C 0.77165 0.42232 0.75795 0.0
C237 C 0.78147 0.33192 0.73437 0.0
C238 C 0.81197 0.28506 0.74108 0.0
H239 H 0.83184 0.35472 0.84946 0.0
O240 O 0.8821 0.11822 0.88 0.0
O241 O 0.867 0.13575 0.80942 0.0
O242 O 0.93974 0.27113 0.86418 0.0
O243 O 0.92964 0.41921 0.81597 0.0
C244 C 0.76029 0.28931 0.7019 0.0
C245 C 0.77301 0.23822 0.66454 0.0
H246 H 0.80926 0.22477 0.5906 0.0
H247 H 0.86894 0.24057 0.59085 0.0
H248 H 0.81451 0.44878 0.81388 0.0
H249 H 0.77901 0.47543 0.78172 0.0
H250 H 0.7351 0.30978 0.70289 0.0
H251 H 0.75832 0.2229 0.6349 0.0
Mn252 Mn 0.79348 0.6176 0.83525 0.0
Mn253 Mn 0.83003 0.46118 0.75518 0.0
C254 C 0.85138 0.5919 0.8544 0.0
C255 C 0.7901 0.78693 0.87143 0.0
C256 C 0.7682 0.35035 0.85367 0.0
O257 O 0.76214 0.64135 0.77435 0.0
O258 O 0.79786 0.5812 0.72392 0.0
C259 C 0.83742 0.49893 0.66313 0.0
N260 N 0.85343 0.51046 0.70366 0.0
C261 C 0.90362 0.50348 0.6635 0.0
C262 C 0.88744 0.50454 0.62232 0.0
C263 C 0.85396 0.49611 0.62224 0.0
C264 C 0.88545 0.49576 0.7042 0.0
H265 H 0.81169 0.48093 0.66187 0.0
C266 C 0.76942 0.62065 0.73206 0.0
O267 O 0.80621 0.77695 0.83457 0.0
O268 O 0.77147 0.70591 0.8817 0.0
N269 N 0.87756 0.41913 0.77766 0.0
C270 C 0.88437 0.33458 0.8126 0.0
C271 C 0.9155 0.25473 0.79504 0.0
C272 C 0.93813 0.30434 0.75802 0.0
C273 C 0.92831 0.39473 0.73443 0.0
C274 C 0.89781 0.44158 0.74111 0.0
H275 H 0.87793 0.37185 0.84947 0.0
O276 O 0.82767 0.6084 0.87996 0.0
O277 O 0.84277 0.5909 0.8094 0.0
O278 O 0.77002 0.4555 0.86409 0.0
O279 O 0.78013 0.30742 0.81591 0.0
C280 C 0.94948 0.43733 0.70196 0.0
C281 C 0.93675 0.48837 0.66458 0.0
H282 H 0.90048 0.50182 0.59062 0.0
H283 H 0.84081 0.48604 0.59083 0.0
H284 H 0.89528 0.27784 0.81391 0.0
H285 H 0.93077 0.25123 0.78178 0.0
H286 H -0.02533 0.41685 0.70296 0.0
H287 H 0.95144 0.50367 0.63494 0.0
Mn288 Mn 0.02953 0.83511 0.55821 0.0
Mn289 Mn 0.03559 0.81374 0.67256 0.0
C290 C 0.02404 -0.0014 0.60458 0.0
C291 C -0.01111 0.93472 0.51029 0.0
C292 C 0.09328 0.85946 0.61788 0.0
O293 O 0.02967 0.66678 0.57136 0.0
O294 O 0.02764 0.66356 0.64626 0.0
C295 C 0.96807 0.74139 0.68859 0.0
N296 N -0.00594 0.80781 0.69806 0.0
C297 C -0.02709 0.85627 0.76924 0.0
C298 C 0.94557 0.78846 0.76113 0.0
C299 C 0.94262 0.73373 0.71985 0.0
C300 C -0.00434 0.86834 0.73555 0.0
H301 H 0.96721 0.6946 0.65786 0.0
C302 C 0.02683 0.61375 0.60842 0.0
O303 O 0.01684 0.97366 0.5213 0.0
O304 O -0.01671 0.84157 0.52929 0.0
N305 N 0.04349 0.9421 0.70675 0.0
C306 C 0.06783 0.01953 0.70566 0.0
C307 C 0.06789 0.10315 0.73821 0.0
C308 C 0.04782 0.09376 0.77582 0.0
C309 C 0.02459 0.00957 0.77705 0.0
C310 C 0.02171 0.93998 0.74011 0.0
H311 H 0.08445 0.02472 0.67769 0.0
O312 O 0.02924 -0.00326 0.56331 0.0
O313 O 0.01827 0.90043 0.62018 0.0
O314 O 0.0781 0.86131 0.5796 0.0
O315 O 0.08062 0.82106 0.65329 0.0
C316 C 0.00374 -0.00757 0.81307 0.0
C317 C -0.02055 0.91046 0.80965 0.0
H318 H 0.92604 0.78098 0.78509 0.0
H319 H 0.92117 0.68464 0.71294 0.0
H320 H 0.08261 0.17598 0.73443 0.0
H321 H 0.04929 0.15442 0.80225 0.0
H322 H 0.00668 0.04091 0.84321 0.0
H323 H 0.96845 0.88206 0.839 0.0
Mn324 Mn 0.18019 0.39069 0.55816 0.0
Mn325 Mn 0.17416 0.41209 0.67252 0.0
C326 C 0.1857 0.22723 0.60455 0.0
C327 C 0.22086 0.29118 0.51025 0.0
C328 C 0.11645 0.36619 0.61786 0.0
O329 O 0.18003 0.55905 0.57131 0.0
O330 O 0.18206 0.56227 0.6462 0.0
C331 C 0.24167 0.48471 0.68848 0.0
N332 N 0.21572 0.41818 0.69798 0.0
C333 C 0.23689 0.37012 0.7692 0.0
C334 C 0.2642 0.43803 0.76106 0.0
C335 C 0.26713 0.4926 0.71974 0.0
C336 C 0.21415 0.35776 0.7355 0.0
H337 H 0.24249 0.53145 0.65772 0.0
C338 C 0.18288 0.61208 0.60836 0.0
O339 O 0.19292 0.25214 0.52127 0.0
O340 O 0.22643 0.38435 0.52925 0.0
N341 N 0.16632 0.28379 0.70676 0.0
C342 C 0.14196 0.20642 0.70578 0.0
C343 C 0.1419 0.123 0.73841 0.0
C344 C 0.16201 0.13256 0.776 0.0
C345 C 0.18525 0.21673 0.77713 0.0
C346 C 0.18812 0.28606 0.74011 0.0
H347 H 0.12531 0.20114 0.67782 0.0
O348 O 0.18054 0.22909 0.56326 0.0
O349 O 0.19146 0.3254 0.62015 0.0
O350 O 0.13162 0.36438 0.57957 0.0
O351 O 0.12911 0.40461 0.65327 0.0
C352 C 0.20609 0.23419 0.81317 0.0
C353 C 0.23036 0.31619 0.80967 0.0
H354 H 0.28373 0.44574 0.78503 0.0
H355 H 0.28855 0.5418 0.71281 0.0
H356 H 0.12714 0.0502 0.73474 0.0
H357 H 0.16054 0.07209 0.80251 0.0
H358 H 0.20314 0.18594 0.84337 0.0
H359 H 0.24136 0.34485 0.83899 0.0
Mn360 Mn 0.01194 0.27948 0.66088 0.0
Mn361 Mn 0.04118 0.28176 0.55233 0.0
C362 C 0.02028 0.10874 0.62362 0.0
C363 C 0.96739 0.15502 0.70037 0.0
C364 C 0.08397 0.31006 0.62183 0.0
O365 O 0.00687 0.43933 0.63869 0.0
O366 O 0.03868 0.43484 0.57862 0.0
C367 C -0.01082 0.40239 0.51284 0.0
N368 N 0.00732 0.31223 0.51178 0.0
C369 C 0.00708 0.30963 0.43087 0.0
C370 C -0.00746 0.4103 0.43177 0.0
C371 C -0.01792 0.45462 0.47248 0.0
C372 C 0.01491 0.26421 0.47224 0.0
H373 H -0.01754 0.43893 0.54435 0.0
C374 C 0.02366 0.48906 0.60844 0.0
O375 O -0.00171 0.14451 0.70454 0.0
O376 O 0.9624 0.23095 0.67148 0.0
N377 N 0.0492 0.15986 0.51426 0.0
C378 C 0.07252 0.08456 0.51763 0.0
C379 C 0.07944 0.01683 0.48088 0.0
C380 C 0.066 0.03852 0.43876 0.0
C381 C 0.04474 0.124 0.43472 0.0
C382 C 0.03556 0.17908 0.47397 0.0
H383 H 0.08281 0.06772 0.55021 0.0
O384 O 0.0217 0.12237 0.66593 0.0
O385 O 0.01386 0.19727 0.60047 0.0
O386 O 0.06373 0.32031 0.65533 0.0
O387 O 0.07703 0.25019 0.58903 0.0
C388 C 0.0344 0.1622 0.39288 0.0
C389 C 0.01696 0.25777 0.39093 0.0
H390 H -0.0105 0.45511 0.40163 0.0
H391 H -0.03024 0.53069 0.47272 0.0
H392 H 0.09627 0.9519 0.48471 0.0
H393 H 0.07309 -0.00801 0.40959 0.0
H394 H 0.04179 0.12359 0.36187 0.0
H395 H 0.01261 0.29101 0.35832 0.0
Mn396 Mn 0.19777 0.94636 0.66088 0.0
Mn397 Mn 0.16848 0.94413 0.55233 0.0
C398 C 0.18938 0.11706 0.6236 0.0
C399 C 0.2423 0.07116 0.7003 0.0
C400 C 0.12575 0.91562 0.62185 0.0
O401 O 0.20286 0.78651 0.63865 0.0
O402 O 0.17101 0.79101 0.57857 0.0
C403 C 0.22052 0.82382 0.51282 0.0
N404 N 0.20233 0.91387 0.51179 0.0
C405 C 0.20274 0.91722 0.4309 0.0
C406 C 0.21734 0.81665 0.43173 0.0
C407 C 0.22775 0.77202 0.47243 0.0
C408 C 0.19479 0.96216 0.4723 0.0
H409 H 0.2272 0.78705 0.54432 0.0
C410 C 0.18605 0.73678 0.60839 0.0
O411 O 0.21139 0.08139 0.70452 0.0
O412 O 0.24729 -0.00484 0.67145 0.0
N413 N 0.16043 0.06613 0.51432 0.0
C414 C 0.13713 0.14148 0.51774 0.0
C415 C 0.13023 0.20941 0.48103 0.0
C416 C 0.1437 0.18799 0.43892 0.0
C417 C 0.16497 0.10257 0.43484 0.0
C418 C 0.1741 0.04717 0.47405 0.0
H419 H 0.12686 0.15818 0.55033 0.0
O420 O 0.18794 0.10341 0.66592 0.0
O421 O 0.19581 0.02856 0.60047 0.0
O422 O 0.146 0.90537 0.65535 0.0
O423 O 0.13265 0.97556 0.58906 0.0
C424 C 0.17544 0.06485 0.393 0.0
C425 C 0.19295 0.96944 0.39098 0.0
H426 H 0.22047 0.77215 0.40156 0.0
H427 H 0.24011 0.69603 0.47262 0.0
H428 H 0.1134 0.27434 0.48489 0.0
H429 H 0.13665 0.23476 0.40979 0.0
H430 H 0.16812 0.10377 0.36201 0.0
H431 H 0.19747 0.93667 0.35833 0.0
Mn432 Mn 0.93997 0.16064 0.41801 0.0
Mn433 Mn 0.89583 0.97743 0.47136 0.0
C434 C 0.88502 0.10895 0.38026 0.0
C435 C 0.92427 0.33413 0.39182 0.0
C436 C 0.93481 0.94078 0.39 0.0
O437 O 0.96378 0.10018 0.47705 0.0
O438 O 0.94004 0.93967 0.47637 0.0
C439 C 0.92034 0.04417 0.5636 0.0
N440 N 0.89489 0.02643 0.53438 0.0
C441 C 0.85942 -0.00516 0.59829 0.0
C442 C 0.88591 -0.00011 0.62753 0.0
C443 C 0.91644 0.02773 0.6101 0.0
C444 C 0.8653 0.00643 0.55182 0.0
H445 H 0.94386 0.07154 0.55294 0.0
C446 C 0.96446 -0.00352 0.48436 0.0
O447 O 0.92764 0.25197 0.36538 0.0
O448 O 0.92786 0.31549 0.43442 0.0
N449 N 0.8495 0.98824 0.47762 0.0
C450 C 0.82599 0.97919 0.44694 0.0
C451 C 0.79402 0.00696 0.45861 0.0
C452 C 0.78548 0.01733 0.50373 0.0
C453 C 0.80879 8e-05 0.53624 0.0
C454 C 0.84099 -0.00316 0.52163 0.0
H455 H 0.83292 0.95271 0.41426 0.0
O456 O 0.90886 0.15564 0.35983 0.0
O457 O 0.89261 0.10338 0.4249 0.0
O458 O 0.95295 0.02428 0.39208 0.0
O459 O 0.90658 0.92837 0.40978 0.0
C460 C 0.80168 -0.01031 0.58244 0.0
C461 C 0.82723 0.98134 0.61348 0.0
H462 H 0.88281 0.98813 0.6635 0.0
H463 H 0.93708 0.03644 0.63235 0.0
H464 H 0.77532 0.01799 0.4344 0.0
H465 H 0.76112 0.03793 0.51288 0.0
H466 H 0.77685 0.98775 0.59422 0.0
H467 H 0.82194 0.97205 0.64906 0.0
Mn468 Mn 0.76979 0.56601 0.41796 0.0
Mn469 Mn 0.81391 0.74923 0.47135 0.0
C470 C 0.82474 0.61775 0.38026 0.0
C471 C 0.78551 0.39255 0.39178 0.0
C472 C 0.77493 0.78589 0.38996 0.0
O473 O 0.74597 0.62641 0.47698 0.0
O474 O 0.76968 0.78695 0.47632 0.0
C475 C 0.78941 0.68255 0.56358 0.0
N476 N 0.81486 0.70025 0.53438 0.0
C477 C 0.85035 0.7318 0.59831 0.0
C478 C 0.82386 0.72677 0.62753 0.0
C479 C 0.79333 0.69897 0.61009 0.0
C480 C 0.84446 0.72023 0.55183 0.0
H481 H 0.76589 0.65522 0.55291 0.0
C482 C 0.74527 0.73012 0.48429 0.0
O483 O 0.78213 0.47472 0.36534 0.0
O484 O 0.78191 0.41115 0.43438 0.0
N485 N 0.86023 0.73846 0.47764 0.0
C486 C 0.88373 0.74749 0.44697 0.0
C487 C 0.9157 0.71967 0.45864 0.0
C488 C 0.92426 0.70927 0.50377 0.0
C489 C 0.90096 0.72654 0.53628 0.0
C490 C 0.86876 0.72983 0.52165 0.0
H491 H 0.87679 0.77397 0.41428 0.0
O492 O 0.8009 0.57107 0.35981 0.0
O493 O 0.81715 0.62331 0.42488 0.0
O494 O 0.7568 0.70239 0.39202 0.0
O495 O 0.80316 0.79828 0.40977 0.0
C496 C 0.90808 0.73691 0.58247 0.0
C497 C 0.88254 0.74527 0.61351 0.0
H498 H 0.82698 0.73852 0.66351 0.0
H499 H 0.77269 0.69029 0.63233 0.0
H500 H 0.93439 0.70862 0.43444 0.0
H501 H 0.94862 0.68861 0.51293 0.0
H502 H 0.93292 0.73882 0.59426 0.0
H503 H 0.88785 0.75455 0.64909 0.0
Mn504 Mn 0.91629 0.60907 0.33531 0.0
Mn505 Mn 0.87973 0.76547 0.25521 0.0
C506 C 0.85839 0.63476 0.35443 0.0
C507 C 0.91967 0.43974 0.3715 0.0
C508 C 0.94156 0.87632 0.35374 0.0
O509 O 0.94764 0.58532 0.27444 0.0
O510 O 0.91192 0.64555 0.22394 0.0
C511 C 0.87232 0.72774 0.16315 0.0
N512 N 0.85632 0.71619 0.20368 0.0
C513 C 0.80612 0.72313 0.1635 0.0
C514 C 0.82229 0.72208 0.12232 0.0
C515 C 0.85577 0.73054 0.12225 0.0
C516 C 0.8243 0.73088 0.2042 0.0
H517 H 0.89804 0.74577 0.16189 0.0
C518 C 0.94033 0.60598 0.23214 0.0
O519 O 0.90356 0.44974 0.33462 0.0
O520 O 0.9383 0.52076 0.38178 0.0
N521 N 0.83221 0.80752 0.27766 0.0
C522 C 0.82541 0.89206 0.31259 0.0
C523 C 0.79428 0.97193 0.29501 0.0
C524 C 0.77164 0.92234 0.25797 0.0
C525 C 0.78145 0.83194 0.23439 0.0
C526 C 0.81195 0.78508 0.2411 0.0
H527 H 0.83184 0.85473 0.34947 0.0
O528 O 0.8821 0.61828 0.38 0.0
O529 O 0.867 0.63576 0.30943 0.0
O530 O 0.93975 0.77117 0.36416 0.0
O531 O 0.92963 0.91924 0.31596 0.0
C532 C 0.76027 0.78932 0.20193 0.0
C533 C 0.77299 0.73823 0.16457 0.0
H534 H 0.80923 0.72479 0.09062 0.0
H535 H 0.86891 0.74062 0.09085 0.0
H536 H 0.8145 0.9488 0.3139 0.0
H537 H 0.77901 0.97545 0.28174 0.0
H538 H 0.73508 0.8098 0.20292 0.0
H539 H 0.75829 0.72289 0.13492 0.0
Mn540 Mn 0.79348 0.11762 0.33526 0.0
Mn541 Mn 0.83002 0.9612 0.25519 0.0
C542 C 0.85137 0.09192 0.35442 0.0
C543 C 0.7901 0.28695 0.37145 0.0
C544 C 0.7682 0.85037 0.35369 0.0
O545 O 0.76213 0.14137 0.27437 0.0
O546 O 0.79785 0.08122 0.22394 0.0
C547 C 0.8374 -0.00105 0.16314 0.0
N548 N 0.85342 0.01048 0.20367 0.0
C549 C 0.9036 0.00349 0.1635 0.0
C550 C 0.88742 0.00457 0.12232 0.0
C551 C 0.85394 -0.00385 0.12225 0.0
C552 C 0.88544 -0.00424 0.2042 0.0
H553 H 0.81168 0.98096 0.16189 0.0
C554 C 0.76941 0.12067 0.23207 0.0
O555 O 0.80621 0.27696 0.33459 0.0
O556 O 0.77146 0.20592 0.38171 0.0
N557 N 0.87755 0.91914 0.27766 0.0
C558 C 0.88436 0.83459 0.3126 0.0
C559 C 0.91549 0.75474 0.29504 0.0
C560 C 0.93812 0.80435 0.25802 0.0
C561 C 0.9283 0.89473 0.23442 0.0
C562 C 0.8978 0.94158 0.2411 0.0
H563 H 0.87793 0.87186 0.34948 0.0
O564 O 0.82767 0.10841 0.37998 0.0
O565 O 0.84276 0.09091 0.30942 0.0
O566 O 0.77002 0.95552 0.36411 0.0
O567 O 0.78013 0.80744 0.31593 0.0
C568 C 0.94947 0.93732 0.20195 0.0
C569 C 0.93673 -0.01163 0.16457 0.0
H570 H 0.90046 0.00185 0.09062 0.0
H571 H 0.84079 0.98609 0.09084 0.0
H572 H 0.89527 0.77786 0.31391 0.0
H573 H 0.93076 0.75123 0.28178 0.0
H574 H -0.02534 0.91684 0.20295 0.0
H575 H 0.95142 0.00367 0.13493 0.0
Mn576 Mn 0.52952 0.33588 0.55826 0.0
Mn577 Mn 0.53564 0.31446 0.67261 0.0
C578 C 0.52405 0.49934 0.60465 0.0
C579 C 0.48884 0.43542 0.51036 0.0
C580 C 0.59331 0.36039 0.61789 0.0
O581 O 0.52968 0.16752 0.57139 0.0
O582 O 0.52775 0.16429 0.64628 0.0
C583 C 0.46813 0.24184 0.68856 0.0
N584 N 0.4941 0.30831 0.69808 0.0
C585 C 0.47291 0.35653 0.76925 0.0
C586 C 0.44559 0.28867 0.76109 0.0
C587 C 0.44267 0.23403 0.71978 0.0
C588 C 0.49567 0.36877 0.73559 0.0
H589 H 0.46731 0.1951 0.6578 0.0
C590 C 0.52688 0.11448 0.60845 0.0
O591 O 0.51679 0.47444 0.52138 0.0
O592 O 0.48327 0.34226 0.52937 0.0
N593 N 0.54349 0.44274 0.70685 0.0
C594 C 0.56785 0.52011 0.70587 0.0
C595 C 0.56793 0.60353 0.7385 0.0
C596 C 0.54782 0.59401 0.77608 0.0
C597 C 0.52457 0.50986 0.7772 0.0
C598 C 0.52169 0.44047 0.7402 0.0
H599 H 0.58449 0.52538 0.67791 0.0
O600 O 0.52919 0.49749 0.56337 0.0
O601 O 0.5183 0.40117 0.62026 0.0
O602 O 0.5781 0.36214 0.57962 0.0
O603 O 0.58068 0.32205 0.65333 0.0
C604 C 0.50371 0.49251 0.81321 0.0
C605 C 0.47941 0.41059 0.80969 0.0
H606 H 0.42605 0.28103 0.78504 0.0
H607 H 0.42124 0.18487 0.71283 0.0
H608 H 0.58269 0.67631 0.73483 0.0
H609 H 0.54929 0.65449 0.80257 0.0
H610 H 0.50664 0.54085 0.84339 0.0
H611 H 0.46835 0.38212 0.83899 0.0
Mn612 Mn 0.68019 0.89143 0.55814 0.0
Mn613 Mn 0.67422 0.91279 0.6725 0.0
C614 C 0.68571 0.72795 0.6045 0.0
C615 C 0.72084 0.79182 0.51024 0.0
C616 C 0.61648 0.86711 0.61787 0.0
O617 O 0.68006 0.05977 0.5713 0.0
O618 O 0.68217 0.06297 0.6462 0.0
C619 C 0.74175 0.98509 0.68853 0.0
N620 N 0.71577 0.91865 0.69799 0.0
C621 C 0.7369 0.87031 0.7692 0.0
C622 C 0.76424 0.93813 0.76111 0.0
C623 C 0.7672 -0.00719 0.71981 0.0
C624 C 0.71416 0.85815 0.73549 0.0
H625 H 0.7426 0.03188 0.65779 0.0
C626 C 0.68294 0.11279 0.60835 0.0
O627 O 0.69289 0.75289 0.52123 0.0
O628 O 0.72643 0.88501 0.52922 0.0
N629 N 0.66632 0.78442 0.70668 0.0
C630 C 0.64198 0.707 0.7056 0.0
C631 C 0.64193 0.62337 0.73815 0.0
C632 C 0.66201 0.63278 0.77577 0.0
C633 C 0.68524 0.71698 0.777 0.0
C634 C 0.68812 0.78653 0.74004 0.0
H635 H 0.62534 0.70181 0.67763 0.0
O636 O 0.68049 0.72981 0.56323 0.0
O637 O 0.6915 0.82611 0.62011 0.0
O638 O 0.63164 0.8652 0.57957 0.0
O639 O 0.62917 0.90559 0.65325 0.0
C640 C 0.70608 0.7342 0.81305 0.0
C641 C 0.73035 0.81622 0.80963 0.0
H642 H 0.78377 0.94567 0.78509 0.0
H643 H 0.78864 0.04191 0.71291 0.0
H644 H 0.62721 0.55053 0.73437 0.0
H645 H 0.66054 0.57214 0.80221 0.0
H646 H 0.70312 0.68579 0.8432 0.0
H647 H 0.74131 0.84476 0.839 0.0
Mn648 Mn 0.51202 0.78023 0.66097 0.0
Mn649 Mn 0.54125 0.78243 0.55242 0.0
C650 C 0.52037 0.6095 0.62371 0.0
C651 C 0.46748 0.65552 0.7004 0.0
C652 C 0.58402 0.81093 0.6219 0.0
O653 O 0.50692 0.94007 0.63874 0.0
O654 O 0.53874 0.93555 0.57866 0.0
C655 C 0.48923 0.90284 0.51286 0.0
N656 N 0.50739 0.81273 0.51186 0.0
C657 C 0.50697 0.80934 0.43096 0.0
C658 C 0.4924 0.90997 0.43177 0.0
C659 C 0.48202 0.95467 0.47245 0.0
C660 C 0.51492 0.7644 0.47237 0.0
H661 H 0.48257 0.93966 0.54434 0.0
C662 C 0.52371 -0.01021 0.60848 0.0
O663 O 0.49839 0.64522 0.70463 0.0
O664 O 0.46249 0.73152 0.67154 0.0
N665 N 0.54928 0.66042 0.51442 0.0
C666 C 0.57258 0.58507 0.51786 0.0
C667 C 0.57946 0.51707 0.48117 0.0
C668 C 0.56596 0.53846 0.43905 0.0
C669 C 0.5447 0.6239 0.43495 0.0
C670 C 0.53559 0.67935 0.47415 0.0
H671 H 0.58288 0.56842 0.55044 0.0
O672 O 0.52183 0.62315 0.66602 0.0
O673 O 0.51394 0.69801 0.60057 0.0
O674 O 0.5638 0.8212 0.65541 0.0
O675 O 0.57709 0.75093 0.58915 0.0
C676 C 0.53422 0.6616 0.3931 0.0
C677 C 0.51672 0.75705 0.39106 0.0
H678 H 0.4893 0.95449 0.40159 0.0
H679 H 0.46969 0.03071 0.47262 0.0
H680 H 0.59628 0.45213 0.48504 0.0
H681 H 0.57299 0.49165 0.40993 0.0
H682 H 0.54151 0.62263 0.36212 0.0
H683 H 0.51219 0.78978 0.3584 0.0
Mn684 Mn 0.69785 0.44708 0.66082 0.0
Mn685 Mn 0.66856 0.44477 0.55226 0.0
C686 C 0.68947 0.6178 0.62354 0.0
C687 C 0.7424 0.57161 0.70029 0.0
C688 C 0.6258 0.41647 0.6218 0.0
O689 O 0.70291 0.28723 0.63862 0.0
O690 O 0.67107 0.29169 0.57855 0.0
C691 C 0.72059 0.32427 0.51282 0.0
N692 N 0.70242 0.41437 0.51174 0.0
C693 C 0.70266 0.41698 0.43083 0.0
C694 C 0.71724 0.31637 0.43175 0.0
C695 C 0.72771 0.27209 0.47247 0.0
C696 C 0.69482 0.46237 0.47219 0.0
H697 H 0.72731 0.28774 0.54435 0.0
C698 C 0.68611 0.23748 0.60837 0.0
O699 O 0.71149 0.58206 0.70446 0.0
O700 O 0.74738 0.49568 0.67141 0.0
N701 N 0.66052 0.56667 0.51418 0.0
C702 C 0.6372 0.64196 0.51754 0.0
C703 C 0.63025 0.70964 0.48077 0.0
C704 C 0.64368 0.68794 0.43866 0.0
C705 C 0.66495 0.6025 0.43464 0.0
C706 C 0.67415 0.54745 0.4739 0.0
H707 H 0.62694 0.65884 0.55012 0.0
O708 O 0.68807 0.60416 0.66586 0.0
O709 O 0.69589 0.52928 0.6004 0.0
O710 O 0.64606 0.40624 0.65528 0.0
O711 O 0.63271 0.47626 0.58896 0.0
C712 C 0.67529 0.56431 0.39281 0.0
C713 C 0.69275 0.46879 0.39088 0.0
H714 H 0.72029 0.27159 0.40162 0.0
H715 H 0.74006 0.19607 0.47273 0.0
H716 H 0.61341 0.77455 0.48459 0.0
H717 H 0.63657 0.73444 0.40948 0.0
H718 H 0.66788 0.60289 0.36179 0.0
H719 H 0.69711 0.43555 0.35827 0.0
Mn720 Mn 0.43986 0.66101 0.41799 0.0
Mn721 Mn 0.39579 0.47764 0.47134 0.0
C722 C 0.38493 0.60908 0.38023 0.0
C723 C 0.42414 0.83442 0.39176 0.0
C724 C 0.43479 0.44115 0.38999 0.0
O725 O 0.46368 0.60073 0.47705 0.0
O726 O 0.44002 0.44011 0.47635 0.0
C727 C 0.42027 0.54453 0.56359 0.0
N728 N 0.39482 0.52665 0.53437 0.0
C729 C 0.35935 0.4949 0.59827 0.0
C730 C 0.38585 0.50005 0.62752 0.0
C731 C 0.41636 0.52808 0.6101 0.0
C732 C 0.36524 0.50653 0.5518 0.0
H733 H 0.44377 0.57208 0.55294 0.0
C734 C 0.46441 0.49704 0.48439 0.0
O735 O 0.42751 0.75224 0.36534 0.0
O736 O 0.42771 0.81582 0.43438 0.0
N737 N 0.34946 0.48822 0.4776 0.0
C738 C 0.32596 0.47892 0.44692 0.0
C739 C 0.29397 0.50653 0.45856 0.0
C740 C 0.28542 0.51697 0.50367 0.0
C741 C 0.30873 0.49992 0.53621 0.0
C742 C 0.34094 0.49683 0.5216 0.0
H743 H 0.33292 0.4524 0.41426 0.0
O744 O 0.40875 0.65588 0.35981 0.0
O745 O 0.39252 0.60354 0.42486 0.0
O746 O 0.45289 0.52469 0.39208 0.0
O747 O 0.40656 0.42862 0.40977 0.0
C748 C 0.30162 0.48953 0.5824 0.0
C749 C 0.32717 0.48128 0.61345 0.0
H750 H 0.38274 0.48829 0.66349 0.0
H751 H 0.43699 0.53696 0.63236 0.0
H752 H 0.27527 0.51734 0.43435 0.0
H753 H 0.26104 0.53743 0.51281 0.0
H754 H 0.27679 0.48747 0.59417 0.0
H755 H 0.32187 0.47196 0.64903 0.0
Mn756 Mn 0.26988 0.06562 0.41793 0.0
Mn757 Mn 0.31393 0.24902 0.47131 0.0
C758 C 0.32481 0.11759 0.38022 0.0
C759 C 0.28562 0.89221 0.39172 0.0
C760 C 0.27494 0.28548 0.38991 0.0
O761 O 0.24603 0.12588 0.47696 0.0
O762 O 0.26968 0.28652 0.47627 0.0
C763 C 0.28945 0.18219 0.56355 0.0
N764 N 0.31489 0.20006 0.53435 0.0
C765 C 0.35037 0.23182 0.59828 0.0
C766 C 0.32388 0.22667 0.6275 0.0
C767 C 0.29336 0.19866 0.61006 0.0
C768 C 0.34448 0.22019 0.5518 0.0
H769 H 0.26595 0.15465 0.55288 0.0
C770 C 0.2453 0.22957 0.48429 0.0
O771 O 0.28225 0.97441 0.3653 0.0
O772 O 0.28203 0.91079 0.43433 0.0
N773 N 0.36026 0.23847 0.47762 0.0
C774 C 0.38375 0.24771 0.44695 0.0
C775 C 0.41574 0.22007 0.45863 0.0
C776 C 0.4243 0.20966 0.50375 0.0
C777 C 0.40099 0.22677 0.53626 0.0
C778 C 0.36878 0.22988 0.52163 0.0
H779 H 0.3768 0.27422 0.41428 0.0
O780 O 0.30099 0.07078 0.35978 0.0
O781 O 0.31722 0.12312 0.42485 0.0
O782 O 0.25684 0.20194 0.39199 0.0
O783 O 0.30316 0.29801 0.40972 0.0
C784 C 0.4081 0.23717 0.58245 0.0
C785 C 0.38255 0.24544 0.61349 0.0
H786 H 0.32698 0.23844 0.66347 0.0
H787 H 0.27273 0.18981 0.6323 0.0
H788 H 0.43444 0.20919 0.43443 0.0
H789 H 0.44867 0.18915 0.5129 0.0
H790 H 0.43293 0.2392 0.59425 0.0
H791 H 0.38785 0.25476 0.64907 0.0
Mn792 Mn 0.41637 0.10947 0.33526 0.0
Mn793 Mn 0.37978 0.26561 0.25516 0.0
C794 C 0.35845 0.13491 0.35438 0.0
C795 C 0.41963 0.94004 0.37142 0.0
C796 C 0.44156 0.37674 0.35371 0.0
O797 O 0.44775 0.08577 0.27443 0.0
O798 O 0.41203 0.14579 0.22394 0.0
C799 C 0.37241 0.22785 0.16311 0.0
N800 N 0.3564 0.21621 0.20363 0.0
C801 C 0.3062 0.2229 0.16343 0.0
C802 C 0.32238 0.22197 0.12226 0.0
C803 C 0.35586 0.2306 0.12221 0.0
C804 C 0.32437 0.23072 0.20414 0.0
H805 H 0.39812 0.24598 0.16187 0.0
C806 C 0.44048 0.10646 0.23213 0.0
O807 O 0.40361 0.95014 0.33448 0.0
O808 O 0.43825 0.021 0.3818 0.0
N809 N 0.33224 0.30739 0.2776 0.0
C810 C 0.32539 0.39188 0.31253 0.0
C811 C 0.29423 0.47157 0.29494 0.0
C812 C 0.27161 0.42186 0.25791 0.0
C813 C 0.28147 0.33152 0.23433 0.0
C814 C 0.31199 0.28483 0.24103 0.0
H815 H 0.33183 0.35459 0.34941 0.0
O816 O 0.38218 0.11867 0.37995 0.0
O817 O 0.36706 0.13589 0.30939 0.0
O818 O 0.4398 0.27158 0.36413 0.0
O819 O 0.42961 0.41962 0.31594 0.0
C820 C 0.26031 0.2888 0.20185 0.0
C821 C 0.27306 0.23783 0.16449 0.0
H822 H 0.30933 0.22464 0.09055 0.0
H823 H 0.369 0.24075 0.09081 0.0
H824 H 0.31446 0.44856 0.31384 0.0
H825 H 0.27895 0.47501 0.28167 0.0
H826 H 0.23511 0.30913 0.20285 0.0
H827 H 0.25836 0.22246 0.13484 0.0
Mn828 Mn 0.29338 0.61718 0.3352 0.0
Mn829 Mn 0.32998 0.46104 0.25514 0.0
C830 C 0.3513 0.59174 0.35436 0.0
C831 C 0.29012 0.78659 0.37137 0.0
C832 C 0.26819 0.34989 0.35362 0.0
O833 O 0.262 0.64089 0.27434 0.0
O834 O 0.29774 0.58083 0.22386 0.0
C835 C 0.33736 0.49879 0.16308 0.0
N836 N 0.35336 0.51044 0.20361 0.0
C837 C 0.40356 0.50374 0.16346 0.0
C838 C 0.38738 0.50468 0.12228 0.0
C839 C 0.3539 0.49606 0.12219 0.0
C840 C 0.38539 0.49593 0.20416 0.0
H841 H 0.31164 0.48065 0.16182 0.0
C842 C 0.2693 0.62024 0.23205 0.0
O843 O 0.30613 0.77652 0.33444 0.0
O844 O 0.2715 0.70563 0.38173 0.0
N845 N 0.37753 0.41926 0.27761 0.0
C846 C 0.38437 0.33476 0.31256 0.0
C847 C 0.41554 0.25508 0.295 0.0
C848 C 0.43815 0.3048 0.25799 0.0
C849 C 0.4283 0.39514 0.2344 0.0
C850 C 0.39777 0.44182 0.24107 0.0
H851 H 0.37792 0.37202 0.34943 0.0
O852 O 0.32757 0.60795 0.37991 0.0
O853 O 0.34269 0.59077 0.30937 0.0
O854 O 0.26995 0.45505 0.36403 0.0
O855 O 0.28015 0.30702 0.31587 0.0
C856 C 0.44945 0.43785 0.20193 0.0
C857 C 0.4367 0.4888 0.16454 0.0
H858 H 0.40043 0.50202 0.09058 0.0
H859 H 0.34076 0.48591 0.09079 0.0
H860 H 0.3953 0.27807 0.31388 0.0
H861 H 0.43082 0.25165 0.28175 0.0
H862 H 0.47466 0.41751 0.20293 0.0
H863 H 0.4514 0.50415 0.13491 0.0
Mn864 Mn 0.52953 0.83589 0.05825 0.0
Mn865 Mn 0.53564 0.81447 0.1726 0.0
C866 C 0.52406 -0.00065 0.10463 0.0
C867 C 0.48885 0.93545 0.01035 0.0
C868 C 0.59332 0.8604 0.11788 0.0
O869 O 0.52968 0.66754 0.07137 0.0
O870 O 0.52775 0.6643 0.14627 0.0
C871 C 0.46813 0.74183 0.18854 0.0
N872 N 0.4941 0.80832 0.19806 0.0
C873 C 0.47291 0.8565 0.26923 0.0
C874 C 0.44559 0.78862 0.26107 0.0
C875 C 0.44267 0.734 0.21976 0.0
C876 C 0.49566 0.86877 0.23557 0.0
H877 H 0.46732 0.69509 0.15778 0.0
C878 C 0.52689 0.6145 0.10843 0.0
O879 O 0.5168 0.97446 0.02136 0.0
O880 O 0.48328 0.84229 0.02936 0.0
N881 N 0.54349 0.94276 0.20684 0.0
C882 C 0.56784 0.02013 0.20586 0.0
C883 C 0.56792 0.10354 0.2385 0.0
C884 C 0.54781 0.094 0.27607 0.0
C885 C 0.52456 0.00985 0.2772 0.0
C886 C 0.52169 0.94048 0.24018 0.0
H887 H 0.58448 0.0254 0.17791 0.0
O888 O 0.5292 -0.0025 0.06335 0.0
O889 O 0.5183 0.90118 0.12024 0.0
O890 O 0.57811 0.86214 0.07961 0.0
O891 O 0.58068 0.82207 0.15332 0.0
C892 C 0.50371 -0.00753 0.3132 0.0
C893 C 0.47941 0.91053 0.30969 0.0
H894 H 0.42605 0.78096 0.28502 0.0
H895 H 0.42125 0.68483 0.21281 0.0
H896 H 0.58268 0.17632 0.23483 0.0
H897 H 0.54929 0.15448 0.30257 0.0
H898 H 0.50664 0.04078 0.34339 0.0
H899 H 0.46837 0.88204 0.33898 0.0
Mn900 Mn 0.6802 0.39144 0.05814 0.0
Mn901 Mn 0.67422 0.4128 0.1725 0.0
C902 C 0.68572 0.22795 0.1045 0.0
C903 C 0.72085 0.29182 0.01024 0.0
C904 C 0.61649 0.36712 0.11786 0.0
O905 O 0.68007 0.55978 0.0713 0.0
O906 O 0.68218 0.56298 0.14619 0.0
C907 C 0.74175 0.48509 0.18853 0.0
N908 N 0.71577 0.41866 0.19799 0.0
C909 C 0.7369 0.37032 0.26921 0.0
C910 C 0.76423 0.43813 0.26112 0.0
C911 C 0.76719 0.4928 0.21982 0.0
C912 C 0.71416 0.35817 0.23549 0.0
H913 H 0.7426 0.53187 0.15779 0.0
C914 C 0.68295 0.6128 0.10835 0.0
O915 O 0.69289 0.25289 0.02123 0.0
O916 O 0.72644 0.385 0.02922 0.0
N917 N 0.66632 0.28443 0.20668 0.0
C918 C 0.64198 0.20701 0.20559 0.0
C919 C 0.64193 0.12339 0.23814 0.0
C920 C 0.662 0.13279 0.27577 0.0
C921 C 0.68523 0.217 0.277 0.0
C922 C 0.68811 0.28654 0.24005 0.0
H923 H 0.62534 0.20182 0.17762 0.0
O924 O 0.68049 0.22982 0.06323 0.0
O925 O 0.6915 0.32611 0.12011 0.0
O926 O 0.63165 0.36521 0.07956 0.0
O927 O 0.62917 0.40559 0.15325 0.0
C928 C 0.70607 0.23422 0.31305 0.0
C929 C 0.73035 0.31622 0.30964 0.0
H930 H 0.78377 0.44567 0.2851 0.0
H931 H 0.78864 0.5419 0.21292 0.0
H932 H 0.62721 0.05055 0.23437 0.0
H933 H 0.66054 0.07216 0.30221 0.0
H934 H 0.70312 0.1858 0.34321 0.0
H935 H 0.74131 0.34475 0.339 0.0
Mn936 Mn 0.51202 0.28024 0.16094 0.0
Mn937 Mn 0.54126 0.28245 0.0524 0.0
C938 C 0.52038 0.10952 0.12368 0.0
C939 C 0.4675 0.1556 0.2004 0.0
C940 C 0.58403 0.31094 0.12188 0.0
O941 O 0.50692 0.44008 0.13872 0.0
O942 O 0.53874 0.43557 0.07864 0.0
C943 C 0.48923 0.40287 0.01285 0.0
N944 N 0.5074 0.31275 0.01184 0.0
C945 C 0.50697 0.30938 0.93095 0.0
C946 C 0.49241 0.41002 0.93176 0.0
C947 C 0.48203 0.4547 0.97244 0.0
C948 C 0.51492 0.26443 0.97235 0.0
H949 H 0.48257 0.43967 0.04433 0.0
C950 C 0.52372 0.48981 0.10846 0.0
O951 O 0.49841 0.14524 0.2046 0.0
O952 O 0.4625 0.23154 0.17151 0.0
N953 N 0.54929 0.16045 0.0144 0.0
C954 C 0.57259 0.0851 0.01783 0.0
C955 C 0.57946 0.01711 0.98114 0.0
C956 C 0.56596 0.0385 0.93902 0.0
C957 C 0.5447 0.12394 0.93493 0.0
C958 C 0.53559 0.17938 0.97413 0.0
H959 H 0.58289 0.06844 0.05042 0.0
O960 O 0.52183 0.12317 0.166 0.0
O961 O 0.51395 0.19803 0.10054 0.0
O962 O 0.5638 0.32121 0.15539 0.0
O963 O 0.5771 0.25095 0.08912 0.0
C964 C 0.53422 0.16164 0.89308 0.0
C965 C 0.51672 0.25709 0.89105 0.0
H966 H 0.4893 0.45454 0.90158 0.0
H967 H 0.46969 0.53075 0.97262 0.0
H968 H 0.59629 0.95217 0.98501 0.0
H969 H 0.57299 -0.00831 0.9099 0.0
H970 H 0.54151 0.12268 0.8621 0.0
H971 H 0.51219 0.28983 0.85839 0.0
Mn972 Mn 0.69785 0.94709 0.16082 0.0
Mn973 Mn 0.66857 0.94478 0.05226 0.0
C974 C 0.68948 0.11781 0.12354 0.0
C975 C 0.74239 0.07163 0.2003 0.0
C976 C 0.6258 0.91648 0.12179 0.0
O977 O 0.70291 0.78724 0.13863 0.0
O978 O 0.67107 0.7917 0.07854 0.0
C979 C 0.72059 0.82428 0.01282 0.0
N980 N 0.70243 0.91438 0.01173 0.0
C981 C 0.70266 0.91697 0.93083 0.0
C982 C 0.71724 0.81637 0.93175 0.0
C983 C 0.72772 0.77209 0.97247 0.0
C984 C 0.69483 0.96237 0.97219 0.0
H985 H 0.72732 0.78775 0.04435 0.0
C986 C 0.68611 0.73749 0.10837 0.0
O987 O 0.71149 0.08208 0.20446 0.0
O988 O 0.74738 -0.00431 0.17142 0.0
N989 N 0.66053 0.06668 0.01418 0.0
C990 C 0.63721 0.14197 0.01754 0.0
C991 C 0.63026 0.20965 0.98077 0.0
C992 C 0.64369 0.18794 0.93866 0.0
C993 C 0.66496 0.1025 0.93464 0.0
C994 C 0.67416 0.04746 0.9739 0.0
H995 H 0.62694 0.15884 0.05011 0.0
O996 O 0.68807 0.10418 0.16586 0.0
O997 O 0.69589 0.02929 0.1004 0.0
O998 O 0.64606 0.90626 0.15528 0.0
O999 O 0.63272 0.97627 0.08895 0.0
C1000 C 0.67529 0.0643 0.89281 0.0
C1001 C 0.69276 0.96878 0.89088 0.0
H1002 H 0.7203 0.77158 0.90162 0.0
H1003 H 0.74007 0.69607 0.97273 0.0
H1004 H 0.61342 0.27456 0.98458 0.0
H1005 H 0.63658 0.23445 0.90947 0.0
H1006 H 0.66789 0.10287 0.86179 0.0
H1007 H 0.69711 0.93553 0.85827 0.0
Mn1008 Mn 0.43986 0.16107 0.918 0.0
Mn1009 Mn 0.3958 0.97768 0.97135 0.0
C1010 C 0.38493 0.10913 0.88024 0.0
C1011 C 0.42414 0.33448 0.89179 0.0
C1012 C 0.43479 0.94121 0.88999 0.0
O1013 O 0.46369 0.10077 0.97706 0.0
O1014 O 0.44003 0.94015 0.97635 0.0
C1015 C 0.42027 0.04453 0.0636 0.0
N1016 N 0.39483 0.02666 0.03438 0.0
C1017 C 0.35936 -0.00512 0.09828 0.0
C1018 C 0.38586 2e-05 0.12752 0.0
C1019 C 0.41637 0.02805 0.1101 0.0
C1020 C 0.36525 0.00653 0.0518 0.0
H1021 H 0.44377 0.07207 0.05295 0.0
C1022 C 0.46441 -0.00292 0.98438 0.0
O1023 O 0.4275 0.25231 0.86536 0.0
O1024 O 0.42771 0.31587 0.9344 0.0
N1025 N 0.34947 -0.01175 0.97761 0.0
C1026 C 0.32597 0.97896 0.94693 0.0
C1027 C 0.29398 0.00654 0.95858 0.0
C1028 C 0.28542 0.01696 0.00369 0.0
C1029 C 0.30874 -9e-05 0.03622 0.0
C1030 C 0.34094 -0.00316 0.02161 0.0
H1031 H 0.33292 0.95244 0.91426 0.0
O1032 O 0.40875 0.15595 0.85982 0.0
O1033 O 0.39252 0.10359 0.92487 0.0
O1034 O 0.4529 0.02476 0.89208 0.0
O1035 O 0.40657 0.92867 0.90977 0.0
C1036 C 0.30163 -0.0105 0.08241 0.0
C1037 C 0.32718 0.98125 0.11346 0.0
H1038 H 0.38275 0.98824 0.1635 0.0
H1039 H 0.437 0.03692 0.13237 0.0
H1040 H 0.27527 0.01735 0.93436 0.0
H1041 H 0.26105 0.0374 0.01283 0.0
H1042 H 0.2768 0.98743 0.09419 0.0
H1043 H 0.32188 0.97192 0.14904 0.0
Mn1044 Mn 0.26988 0.56566 0.91793 0.0
Mn1045 Mn 0.31391 0.74905 0.97132 0.0
C1046 C 0.32481 0.61764 0.88023 0.0
C1047 C 0.28562 0.39226 0.89172 0.0
C1048 C 0.27494 0.78553 0.88991 0.0
O1049 O 0.24602 0.6259 0.97696 0.0
O1050 O 0.26967 0.78655 0.97628 0.0
C1051 C 0.28943 0.68219 0.06356 0.0
N1052 N 0.31487 0.70006 0.03436 0.0
C1053 C 0.35034 0.73179 0.09829 0.0
C1054 C 0.32385 0.72664 0.12751 0.0
C1055 C 0.29333 0.69864 0.11006 0.0
C1056 C 0.34446 0.72018 0.05181 0.0
H1057 H 0.26593 0.65466 0.05288 0.0
C1058 C 0.24529 0.72959 0.98429 0.0
O1059 O 0.28226 0.47446 0.8653 0.0
O1060 O 0.28203 0.41084 0.93433 0.0
N1061 N 0.36024 0.73851 0.97764 0.0
C1062 C 0.38374 0.7478 0.94697 0.0
C1063 C 0.41572 0.72018 0.95864 0.0
C1064 C 0.42428 0.70972 0.00376 0.0
C1065 C 0.40097 0.72679 0.03628 0.0
C1066 C 0.36876 0.72989 0.02164 0.0
H1067 H 0.37678 0.77432 0.9143 0.0
O1068 O 0.30099 0.57083 0.85978 0.0
O1069 O 0.31721 0.62316 0.92485 0.0
O1070 O 0.25684 0.70198 0.89199 0.0
O1071 O 0.30316 0.79806 0.90973 0.0
C1072 C 0.40808 0.73716 0.08248 0.0
C1073 C 0.38253 0.74541 0.1135 0.0
H1074 H 0.32695 0.73839 0.16349 0.0
H1075 H 0.2727 0.68979 0.1323 0.0
H1076 H 0.43443 0.70935 0.93444 0.0
H1077 H 0.44865 0.68922 0.01292 0.0
H1078 H 0.43291 0.73921 0.09427 0.0
H1079 H 0.38782 0.75471 0.14909 0.0
Mn1080 Mn 0.41638 0.60953 0.83528 0.0
Mn1081 Mn 0.37978 0.76565 0.75517 0.0
C1082 C 0.35846 0.63497 0.85439 0.0
C1083 C 0.41963 0.44011 0.87145 0.0
C1084 C 0.44156 0.87681 0.85371 0.0
O1085 O 0.44776 0.58581 0.77445 0.0
O1086 O 0.41203 0.64589 0.72393 0.0
C1087 C 0.3724 0.7279 0.66312 0.0
N1088 N 0.3564 0.71625 0.70364 0.0
C1089 C 0.3062 0.72293 0.66344 0.0
C1090 C 0.32237 0.72199 0.62227 0.0
C1091 C 0.35585 0.73062 0.62221 0.0
C1092 C 0.32437 0.73075 0.70416 0.0
H1093 H 0.39811 0.74606 0.66187 0.0
C1094 C 0.44046 0.60646 0.73215 0.0
O1095 O 0.40362 0.45021 0.8345 0.0
O1096 O 0.43825 0.52106 0.88183 0.0
N1097 N 0.33224 0.80743 0.77761 0.0
C1098 C 0.32539 0.89192 0.81254 0.0
C1099 C 0.29423 0.97162 0.79496 0.0
C1100 C 0.27162 0.92191 0.75792 0.0
C1101 C 0.28147 0.83157 0.73434 0.0
C1102 C 0.31199 0.78488 0.74105 0.0
H1103 H 0.33183 0.85462 0.84943 0.0
O1104 O 0.38218 0.61877 0.87996 0.0
O1105 O 0.36707 0.63594 0.8094 0.0
O1106 O 0.43981 0.77164 0.86413 0.0
O1107 O 0.42961 0.91967 0.81594 0.0
C1108 C 0.26031 0.78884 0.70187 0.0
C1109 C 0.27306 0.73785 0.66451 0.0
H1110 H 0.30932 0.72464 0.59057 0.0
H1111 H 0.36899 0.74078 0.59082 0.0
H1112 H 0.31446 0.94861 0.81385 0.0
H1113 H 0.27896 0.97506 0.78168 0.0
H1114 H 0.23511 0.80917 0.70286 0.0
H1115 H 0.25836 0.72247 0.63486 0.0
Mn1116 Mn 0.29338 0.11723 0.8352 0.0
Mn1117 Mn 0.32998 0.96108 0.75515 0.0
C1118 C 0.3513 0.09178 0.85437 0.0
C1119 C 0.29012 0.28664 0.87138 0.0
C1120 C 0.26819 0.84994 0.85363 0.0
O1121 O 0.26201 0.14094 0.77434 0.0
O1122 O 0.29775 0.08088 0.72387 0.0
C1123 C 0.33736 -0.00118 0.66309 0.0
N1124 N 0.35337 0.01047 0.70362 0.0
C1125 C 0.40356 0.00376 0.66346 0.0
C1126 C 0.38738 0.00471 0.62228 0.0
C1127 C 0.35391 -0.00391 0.6222 0.0
C1128 C 0.38539 -0.00404 0.70417 0.0
H1129 H 0.31165 0.98068 0.66183 0.0
C1130 C 0.26931 0.12029 0.73206 0.0
O1131 O 0.30614 0.27656 0.83444 0.0
O1132 O 0.2715 0.20568 0.88173 0.0
N1133 N 0.37753 0.9193 0.77762 0.0
C1134 C 0.38438 0.8348 0.81257 0.0
C1135 C 0.41554 0.75512 0.79501 0.0
C1136 C 0.43816 0.80483 0.758 0.0
C1137 C 0.4283 0.89517 0.7344 0.0
C1138 C 0.39777 0.94185 0.74107 0.0
H1139 H 0.37792 0.87205 0.84944 0.0
O1140 O 0.32757 0.10799 0.87992 0.0
O1141 O 0.34269 0.09081 0.80938 0.0
O1142 O 0.26995 0.95511 0.86404 0.0
O1143 O 0.28015 0.80707 0.81588 0.0
C1144 C 0.44946 0.93787 0.70193 0.0
C1145 C 0.4367 -0.01117 0.66455 0.0
H1146 H 0.40043 0.00205 0.59059 0.0
H1147 H 0.34076 0.98594 0.59079 0.0
H1148 H 0.39531 0.77812 0.81388 0.0
H1149 H 0.43082 0.75169 0.78176 0.0
H1150 H 0.47466 0.91753 0.70294 0.0
H1151 H 0.4514 0.00417 0.63491 0.0
loop_
_geom_bond_atom_site_label_1
_geom_bond_atom_site_label_2
_geom_bond_distance
_geom_bond_site_symmetry_2
_ccdc_geom_bond_type
Mn0 O5 2.095 . S
Mn0 O15 2.162 . S
Mn0 O16 2.297 1_455 S
Mn0 O24 2.385 . S
Mn0 O25 2.209 . S
Mn0 O26 2.094 . S
Mn1 O6 2.121 . S
Mn1 N8 2.257 . S
Mn1 N17 2.282 . S
Mn1 O25 2.215 . S
Mn1 O27 2.117 . S
C2 O24 1.234 . S
C2 O25 1.283 . S
C3 O15 1.281 . S
C3 O16 1.236 1_455 S
C4 O26 1.240 . S
C4 O27 1.264 . S
O5 Mn0 2.095 . S
O5 C14 1.250 . S
O6 Mn1 2.121 . S
O6 C14 1.258 . S
C7 N8 1.326 1_655 S
C7 C11 1.460 . S
C7 H13 0.929 . S
N8 Mn1 2.257 . S
N8 C7 1.326 1_455 S
N8 C12 1.362 . S
C9 C10 1.258 1_455 S
C9 C12 1.431 . S
C9 C29 1.449 . S
C10 C9 1.258 1_655 S
C10 C11 1.477 . S
C10 H30 0.931 . S
C11 C7 1.460 . S
C11 C10 1.477 . S
C11 H31 0.930 . S
C12 N8 1.362 . S
C12 C9 1.431 . S
C12 C22 1.476 . S
H13 C7 0.929 . S
C14 O5 1.250 . S
C14 O6 1.258 . S
O15 Mn0 2.162 . S
O15 C3 1.281 . S
O16 Mn0 2.297 1_655 S
O16 C3 1.236 1_655 S
N17 Mn1 2.282 . S
N17 C18 1.328 . S
N17 C22 1.318 . S
C18 N17 1.328 . S
C18 C19 1.457 . S
C18 H23 0.929 . S
C19 C18 1.457 . S
C19 C20 1.291 . S
C19 H32 0.931 . S
C20 C19 1.291 . S
C20 C21 1.373 . S
C20 H33 0.929 . S
C21 C20 1.373 . S
C21 C22 1.396 . S
C21 C28 1.403 . S
C22 C12 1.476 . S
C22 N17 1.318 . S
C22 C21 1.396 . S
H23 C18 0.929 . S
O24 Mn0 2.385 . S
O24 C2 1.234 . S
O25 Mn0 2.209 . S
O25 Mn1 2.215 . S
O25 C2 1.283 . S
O26 Mn0 2.094 . S
O26 C4 1.240 . S
O27 Mn1 2.117 . S
O27 C4 1.264 . S
C28 C21 1.403 . S
C28 C29 1.399 . S
C28 H34 0.929 . S
C29 C9 1.449 . S
C29 C28 1.399 . S
C29 H35 0.930 . S
H30 C10 0.931 . S
H31 C11 0.930 . S
H32 C19 0.931 . S
H33 C20 0.929 . S
H34 C28 0.929 . S
H35 C29 0.930 . S
Mn36 O41 2.102 . S
Mn36 O51 2.162 . S
Mn36 O52 2.297 . S
Mn36 O60 2.385 . S
Mn36 O61 2.209 . S
Mn36 O62 2.094 . S
Mn37 O42 2.121 1_565 S
Mn37 N44 2.257 . S
Mn37 N53 2.282 . S
Mn37 O61 2.215 . S
Mn37 O63 2.117 . S
C38 O60 1.234 . S
C38 O61 1.283 . S
C39 O51 1.281 . S
C39 O52 1.236 . S
C40 O62 1.240 . S
C40 O63 1.264 . S
O41 Mn36 2.102 . S
O41 C50 1.247 1_565 S
O42 Mn37 2.121 1_545 S
O42 C50 1.258 . S
C43 N44 1.326 . S
C43 C47 1.460 . S
C43 H49 0.929 . S
N44 Mn37 2.257 . S
N44 C43 1.326 . S
N44 C48 1.362 . S
C45 C46 1.258 . S
C45 C48 1.431 . S
C45 C65 1.449 . S
C46 C45 1.258 . S
C46 C47 1.477 . S
C46 H66 0.931 . S
C47 C43 1.460 . S
C47 C46 1.477 . S
C47 H67 0.930 . S
C48 N44 1.362 . S
C48 C45 1.431 . S
C48 C58 1.476 . S
H49 C43 0.929 . S
C50 O41 1.247 1_545 S
C50 O42 1.258 . S
O51 Mn36 2.162 . S
O51 C39 1.281 . S
O52 Mn36 2.297 . S
O52 C39 1.236 . S
N53 Mn37 2.282 . S
N53 C54 1.328 . S
N53 C58 1.318 . S
C54 N53 1.328 . S
C54 C55 1.457 . S
C54 H59 0.929 . S
C55 C54 1.457 . S
C55 C56 1.291 . S
C55 H68 0.931 . S
C56 C55 1.291 . S
C56 C57 1.373 . S
C56 H69 0.929 . S
C57 C56 1.373 . S
C57 C58 1.396 . S
C57 C64 1.403 . S
C58 C48 1.476 . S
C58 N53 1.318 . S
C58 C57 1.396 . S
H59 C54 0.929 . S
O60 Mn36 2.385 . S
O60 C38 1.234 . S
O61 Mn36 2.209 . S
O61 Mn37 2.215 . S
O61 C38 1.283 . S
O62 Mn36 2.094 . S
O62 C40 1.240 . S
O63 Mn37 2.117 . S
O63 C40 1.264 . S
C64 C57 1.403 . S
C64 C65 1.399 . S
C64 H70 0.929 . S
C65 C45 1.449 . S
C65 C64 1.399 . S
C65 H71 0.930 . S
H66 C46 0.931 . S
H67 C47 0.930 . S
H68 C55 0.931 . S
H69 C56 0.929 . S
H70 C64 0.929 . S
H71 C65 0.930 . S
Mn72 O77 2.102 . S
Mn72 O87 2.162 . S
Mn72 O88 2.297 1_455 S
Mn72 O96 2.385 . S
Mn72 O97 2.209 . S
Mn72 O98 2.094 . S
Mn73 O78 2.121 1_565 S
Mn73 N80 2.257 1_554 S
Mn73 N89 2.282 . S
Mn73 O97 2.215 . S
Mn73 O99 2.117 . S
C74 O96 1.234 . S
C74 O97 1.283 . S
C75 O87 1.281 . S
C75 O88 1.236 1_455 S
C76 O98 1.240 . S
C76 O99 1.264 . S
O77 Mn72 2.102 . S
O77 C86 1.247 1_565 S
O78 Mn73 2.121 1_545 S
O78 C86 1.258 . S
C79 N80 1.326 1_655 S
C79 C83 1.460 . S
C79 H85 0.929 . S
N80 Mn73 2.257 1_556 S
N80 C79 1.326 1_455 S
N80 C84 1.362 . S
C81 C82 1.258 1_455 S
C81 C84 1.431 . S
C81 C101 1.449 . S
C82 C81 1.258 1_655 S
C82 C83 1.477 . S
C82 H102 0.931 . S
C83 C79 1.460 . S
C83 C82 1.477 . S
C83 H103 0.930 . S
C84 N80 1.362 . S
C84 C81 1.431 . S
C84 C94 1.476 . S
H85 C79 0.929 . S
C86 O77 1.247 1_545 S
C86 O78 1.258 . S
O87 Mn72 2.162 . S
O87 C75 1.281 . S
O88 Mn72 2.297 1_655 S
O88 C75 1.236 1_655 S
N89 Mn73 2.282 . S
N89 C90 1.328 . S
N89 C94 1.318 1_554 S
C90 N89 1.328 . S
C90 C91 1.457 . S
C90 H95 0.929 . S
C91 C90 1.457 . S
C91 C92 1.291 1_554 S
C91 H104 0.931 . S
C92 C91 1.291 1_556 S
C92 C93 1.373 . S
C92 H105 0.929 . S
C93 C92 1.373 . S
C93 C94 1.396 . S
C93 C100 1.403 . S
C94 C84 1.476 . S
C94 N89 1.318 1_556 S
C94 C93 1.396 . S
H95 C90 0.929 . S
O96 Mn72 2.385 . S
O96 C74 1.234 . S
O97 Mn72 2.209 . S
O97 Mn73 2.215 . S
O97 C74 1.283 . S
O98 Mn72 2.094 . S
O98 C76 1.240 . S
O99 Mn73 2.117 . S
O99 C76 1.264 . S
C100 C93 1.403 . S
C100 C101 1.399 . S
C100 H106 0.929 . S
C101 C81 1.449 . S
C101 C100 1.399 . S
C101 H107 0.930 . S
H102 C82 0.931 . S
H103 C83 0.930 . S
H104 C91 0.931 . S
H105 C92 0.929 . S
H106 C100 0.929 . S
H107 C101 0.930 . S
Mn108 O113 2.095 . S
Mn108 O123 2.162 . S
Mn108 O124 2.297 . S
Mn108 O132 2.385 . S
Mn108 O133 2.209 . S
Mn108 O134 2.094 . S
Mn109 O114 2.121 . S
Mn109 N116 2.257 1_554 S
Mn109 N125 2.282 . S
Mn109 O133 2.215 . S
Mn109 O135 2.117 . S
C110 O132 1.234 . S
C110 O133 1.283 . S
C111 O123 1.281 . S
C111 O124 1.236 . S
C112 O134 1.240 . S
C112 O135 1.264 . S
O113 Mn108 2.095 . S
O113 C122 1.250 . S
O114 Mn109 2.121 . S
O114 C122 1.258 . S
C115 N116 1.326 . S
C115 C119 1.460 . S
C115 H121 0.929 . S
N116 Mn109 2.257 1_556 S
N116 C115 1.326 . S
N116 C120 1.362 . S
C117 C118 1.258 . S
C117 C120 1.431 . S
C117 C137 1.449 . S
C118 C117 1.258 . S
C118 C119 1.477 . S
C118 H138 0.931 . S
C119 C115 1.460 . S
C119 C118 1.477 . S
C119 H139 0.930 . S
C120 N116 1.362 . S
C120 C117 1.431 . S
C120 C130 1.476 . S
H121 C115 0.929 . S
C122 O113 1.250 . S
C122 O114 1.258 . S
O123 Mn108 2.162 . S
O123 C111 1.281 . S
O124 Mn108 2.297 . S
O124 C111 1.236 . S
N125 Mn109 2.282 . S
N125 C126 1.328 . S
N125 C130 1.318 1_554 S
C126 N125 1.328 . S
C126 C127 1.457 . S
C126 H131 0.929 . S
C127 C126 1.457 . S
C127 C128 1.291 1_554 S
C127 H140 0.931 . S
C128 C127 1.291 1_556 S
C128 C129 1.373 . S
C128 H141 0.929 . S
C129 C128 1.373 . S
C129 C130 1.396 . S
C129 C136 1.403 . S
C130 C120 1.476 . S
C130 N125 1.318 1_556 S
C130 C129 1.396 . S
H131 C126 0.929 . S
O132 Mn108 2.385 . S
O132 C110 1.234 . S
O133 Mn108 2.209 . S
O133 Mn109 2.215 . S
O133 C110 1.283 . S
O134 Mn108 2.094 . S
O134 C112 1.240 . S
O135 Mn109 2.117 . S
O135 C112 1.264 . S
C136 C129 1.403 . S
C136 C137 1.399 . S
C136 H142 0.929 . S
C137 C117 1.449 . S
C137 C136 1.399 . S
C137 H143 0.930 . S
H138 C118 0.931 . S
H139 C119 0.930 . S
H140 C127 0.931 . S
H141 C128 0.929 . S
H142 C136 0.929 . S
H143 C137 0.930 . S
Mn144 O149 2.095 . S
Mn144 O159 2.162 . S
Mn144 O160 2.297 . S
Mn144 O168 2.385 . S
Mn144 O169 2.209 . S
Mn144 O170 2.094 . S
Mn145 O150 2.121 . S
Mn145 N152 2.257 . S
Mn145 N161 2.282 . S
Mn145 O169 2.215 . S
Mn145 O171 2.117 . S
C146 O168 1.234 . S
C146 O169 1.283 . S
C147 O159 1.281 . S
C147 O160 1.236 . S
C148 O170 1.240 . S
C148 O171 1.264 . S
O149 Mn144 2.095 . S
O149 C158 1.250 . S
O150 Mn145 2.121 . S
O150 C158 1.258 . S
C151 N152 1.326 1_554 S
C151 C155 1.460 . S
C151 H157 0.929 . S
N152 Mn145 2.257 . S
N152 C151 1.326 1_556 S
N152 C156 1.362 . S
C153 C154 1.258 . S
C153 C156 1.431 1_554 S
C153 C173 1.449 1_554 S
C154 C153 1.258 . S
C154 C155 1.477 . S
C154 H174 0.931 . S
C155 C151 1.460 . S
C155 C154 1.477 . S
C155 H175 0.930 . S
C156 N152 1.362 . S
C156 C153 1.431 1_556 S
C156 C166 1.476 . S
H157 C151 0.929 . S
C158 O149 1.250 . S
C158 O150 1.258 . S
O159 Mn144 2.162 . S
O159 C147 1.281 . S
O160 Mn144 2.297 . S
O160 C147 1.236 . S
N161 Mn145 2.282 . S
N161 C162 1.328 . S
N161 C166 1.318 . S
C162 N161 1.328 . S
C162 C163 1.457 . S
C162 H167 0.929 . S
C163 C162 1.457 . S
C163 C164 1.291 . S
C163 H176 0.931 . S
C164 C163 1.291 . S
C164 C165 1.373 . S
C164 H177 0.929 . S
C165 C164 1.373 . S
C165 C166 1.396 . S
C165 C172 1.403 . S
C166 C156 1.476 . S
C166 N161 1.318 . S
C166 C165 1.396 . S
H167 C162 0.929 . S
O168 Mn144 2.385 . S
O168 C146 1.234 . S
O169 Mn144 2.209 . S
O169 Mn145 2.215 . S
O169 C146 1.283 . S
O170 Mn144 2.094 . S
O170 C148 1.240 . S
O171 Mn145 2.117 . S
O171 C148 1.264 . S
C172 C165 1.403 . S
C172 C173 1.399 . S
C172 H178 0.929 . S
C173 C153 1.449 1_556 S
C173 C172 1.399 . S
C173 H179 0.930 1_556 S
H174 C154 0.931 . S
H175 C155 0.930 . S
H176 C163 0.931 . S
H177 C164 0.929 . S
H178 C172 0.929 . S
H179 C173 0.930 1_554 S
Mn180 O185 2.095 . S
Mn180 O195 2.162 . S
Mn180 O196 2.297 1_545 S
Mn180 O204 2.385 . S
Mn180 O205 2.209 . S
Mn180 O206 2.094 . S
Mn181 O186 2.121 . S
Mn181 N188 2.257 . S
Mn181 N197 2.282 . S
Mn181 O205 2.215 . S
Mn181 O207 2.117 . S
C182 O204 1.234 . S
C182 O205 1.283 . S
C183 O195 1.281 1_565 S
C183 O196 1.236 . S
C184 O206 1.240 . S
C184 O207 1.264 . S
O185 Mn180 2.095 . S
O185 C194 1.250 . S
O186 Mn181 2.121 . S
O186 C194 1.258 . S
C187 N188 1.326 1_554 S
C187 C191 1.460 . S
C187 H193 0.929 . S
N188 Mn181 2.257 . S
N188 C187 1.326 1_556 S
N188 C192 1.362 . S
C189 C190 1.258 . S
C189 C192 1.431 1_554 S
C189 C209 1.449 1_554 S
C190 C189 1.258 . S
C190 C191 1.477 . S
C190 H210 0.931 . S
C191 C187 1.460 . S
C191 C190 1.477 . S
C191 H211 0.930 . S
C192 N188 1.362 . S
C192 C189 1.431 1_556 S
C192 C202 1.476 . S
H193 C187 0.929 . S
C194 O185 1.250 . S
C194 O186 1.258 . S
O195 Mn180 2.162 . S
O195 C183 1.281 1_545 S
O196 Mn180 2.297 1_565 S
O196 C183 1.236 . S
N197 Mn181 2.282 . S
N197 C198 1.328 . S
N197 C202 1.318 . S
C198 N197 1.328 . S
C198 C199 1.457 . S
C198 H203 0.929 . S
C199 C198 1.457 . S
C199 C200 1.291 . S
C199 H212 0.931 . S
C200 C199 1.291 . S
C200 C201 1.373 . S
C200 H213 0.929 . S
C201 C200 1.373 . S
C201 C202 1.396 . S
C201 C208 1.403 . S
C202 C192 1.476 . S
C202 N197 1.318 . S
C202 C201 1.396 . S
H203 C198 0.929 . S
O204 Mn180 2.385 . S
O204 C182 1.234 . S
O205 Mn180 2.209 . S
O205 Mn181 2.215 . S
O205 C182 1.283 . S
O206 Mn180 2.094 . S
O206 C184 1.240 . S
O207 Mn181 2.117 . S
O207 C184 1.264 . S
C208 C201 1.403 . S
C208 C209 1.399 . S
C208 H214 0.929 1_655 S
C209 C189 1.449 1_556 S
C209 C208 1.399 . S
C209 H215 0.950 1_556 S
H210 C190 0.931 . S
H211 C191 0.930 . S
H212 C199 0.931 . S
H213 C200 0.929 . S
H214 C208 0.929 1_455 S
H215 C209 0.950 1_554 S
Mn216 O221 2.095 . S
Mn216 O231 2.162 . S
Mn216 O232 2.297 1_545 S
Mn216 O240 2.385 . S
Mn216 O241 2.209 . S
Mn216 O242 2.094 . S
Mn217 O222 2.121 . S
Mn217 N224 2.257 . S
Mn217 N233 2.282 . S
Mn217 O241 2.215 . S
Mn217 O243 2.117 . S
C218 O240 1.234 . S
C218 O241 1.283 . S
C219 O231 1.281 1_565 S
C219 O232 1.236 . S
C220 O242 1.240 . S
C220 O243 1.264 . S
O221 Mn216 2.095 . S
O221 C230 1.250 . S
O222 Mn217 2.121 . S
O222 C230 1.258 . S
C223 N224 1.326 . S
C223 C227 1.460 . S
C223 H229 0.929 . S
N224 Mn217 2.257 . S
N224 C223 1.326 . S
N224 C228 1.362 . S
C225 C226 1.258 . S
C225 C228 1.431 . S
C225 C245 1.449 . S
C226 C225 1.258 . S
C226 C227 1.477 . S
C226 H246 0.931 . S
C227 C223 1.460 . S
C227 C226 1.477 . S
C227 H247 0.930 . S
C228 N224 1.362 . S
C228 C225 1.431 . S
C228 C238 1.476 . S
H229 C223 0.929 . S
C230 O221 1.250 . S
C230 O222 1.258 . S
O231 Mn216 2.162 . S
O231 C219 1.281 1_545 S
O232 Mn216 2.297 1_565 S
O232 C219 1.236 . S
N233 Mn217 2.282 . S
N233 C234 1.328 . S
N233 C238 1.318 . S
C234 N233 1.328 . S
C234 C235 1.457 . S
C234 H239 0.929 . S
C235 C234 1.457 . S
C235 C236 1.291 . S
C235 H248 0.931 . S
C236 C235 1.291 . S
C236 C237 1.373 . S
C236 H249 0.929 . S
C237 C236 1.373 . S
C237 C238 1.396 . S
C237 C244 1.403 . S
C238 C228 1.476 . S
C238 N233 1.318 . S
C238 C237 1.396 . S
H239 C234 0.929 . S
O240 Mn216 2.385 . S
O240 C218 1.234 . S
O241 Mn216 2.209 . S
O241 Mn217 2.215 . S
O241 C218 1.283 . S
O242 Mn216 2.094 . S
O242 C220 1.240 . S
O243 Mn217 2.117 . S
O243 C220 1.264 . S
C244 C237 1.403 . S
C244 C245 1.399 . S
C244 H250 0.929 . S
C245 C225 1.449 . S
C245 C244 1.399 . S
C245 H251 0.930 . S
H246 C226 0.931 . S
H247 C227 0.930 . S
H248 C235 0.931 . S
H249 C236 0.929 . S
H250 C244 0.929 . S
H251 C245 0.930 . S
Mn252 O257 2.095 . S
Mn252 O267 2.162 . S
Mn252 O268 2.297 . S
Mn252 O276 2.385 . S
Mn252 O277 2.209 . S
Mn252 O278 2.094 . S
Mn253 O258 2.121 . S
Mn253 N260 2.257 . S
Mn253 N269 2.282 . S
Mn253 O277 2.215 . S
Mn253 O279 2.117 . S
C254 O276 1.234 . S
C254 O277 1.283 . S
C255 O267 1.281 . S
C255 O268 1.236 . S
C256 O278 1.240 . S
C256 O279 1.264 . S
O257 Mn252 2.095 . S
O257 C266 1.250 . S
O258 Mn253 2.121 . S
O258 C266 1.258 . S
C259 N260 1.326 . S
C259 C263 1.460 . S
C259 H265 0.929 . S
N260 Mn253 2.257 . S
N260 C259 1.326 . S
N260 C264 1.362 . S
C261 C262 1.258 . S
C261 C264 1.431 . S
C261 C281 1.449 . S
C262 C261 1.258 . S
C262 C263 1.477 . S
C262 H282 0.931 . S
C263 C259 1.460 . S
C263 C262 1.477 . S
C263 H283 0.930 . S
C264 N260 1.362 . S
C264 C261 1.431 . S
C264 C274 1.476 . S
H265 C259 0.929 . S
C266 O257 1.250 . S
C266 O258 1.258 . S
O267 Mn252 2.162 . S
O267 C255 1.281 . S
O268 Mn252 2.297 . S
O268 C255 1.236 . S
N269 Mn253 2.282 . S
N269 C270 1.328 . S
N269 C274 1.318 . S
C270 N269 1.328 . S
C270 C271 1.457 . S
C270 H275 0.929 . S
C271 C270 1.457 . S
C271 C272 1.291 . S
C271 H284 0.931 . S
C272 C271 1.291 . S
C272 C273 1.373 . S
C272 H285 0.929 . S
C273 C272 1.373 . S
C273 C274 1.396 . S
C273 C280 1.403 . S
C274 C264 1.476 . S
C274 N269 1.318 . S
C274 C273 1.396 . S
H275 C270 0.929 . S
O276 Mn252 2.385 . S
O276 C254 1.234 . S
O277 Mn252 2.209 . S
O277 Mn253 2.215 . S
O277 C254 1.283 . S
O278 Mn252 2.094 . S
O278 C256 1.240 . S
O279 Mn253 2.117 . S
O279 C256 1.264 . S
C280 C273 1.403 . S
C280 C281 1.399 . S
C280 H286 0.929 1_655 S
C281 C261 1.449 . S
C281 C280 1.399 . S
C281 H287 0.950 . S
H282 C262 0.931 . S
H283 C263 0.930 . S
H284 C271 0.931 . S
H285 C272 0.929 . S
H286 C280 0.929 1_455 S
H287 C281 0.950 . S
Mn288 O293 2.095 . S
Mn288 O303 2.162 . S
Mn288 O304 2.297 1_455 S
Mn288 O312 2.385 1_565 S
Mn288 O313 2.209 . S
Mn288 O314 2.094 . S
Mn289 O294 2.121 . S
Mn289 N296 2.257 . S
Mn289 N305 2.282 1_565 S
Mn289 O313 2.215 . S
Mn289 O315 2.117 . S
C290 O312 1.234 . S
C290 O313 1.283 1_545 S
C291 O303 1.281 . S
C291 O304 1.236 1_455 S
C292 O314 1.240 . S
C292 O315 1.264 . S
O293 Mn288 2.095 . S
O293 C302 1.250 . S
O294 Mn289 2.121 . S
O294 C302 1.258 . S
C295 N296 1.326 1_655 S
C295 C299 1.460 . S
C295 H301 0.929 . S
N296 Mn289 2.257 . S
N296 C295 1.326 1_455 S
N296 C300 1.362 1_565 S
C297 C298 1.258 1_445 S
C297 C300 1.431 . S
C297 C317 1.449 . S
C298 C297 1.258 1_665 S
C298 C299 1.477 . S
C298 H318 0.931 . S
C299 C295 1.460 . S
C299 C298 1.477 . S
C299 H319 0.930 . S
C300 N296 1.362 1_545 S
C300 C297 1.431 . S
C300 C310 1.476 . S
H301 C295 0.929 . S
C302 O293 1.250 . S
C302 O294 1.258 . S
O303 Mn288 2.162 . S
O303 C291 1.281 . S
O304 Mn288 2.297 1_655 S
O304 C291 1.236 1_655 S
N305 Mn289 2.282 1_545 S
N305 C306 1.328 . S
N305 C310 1.318 . S
C306 N305 1.328 . S
C306 C307 1.457 . S
C306 H311 0.929 . S
C307 C306 1.457 . S
C307 C308 1.291 . S
C307 H320 0.931 . S
C308 C307 1.291 . S
C308 C309 1.373 . S
C308 H321 0.929 . S
C309 C308 1.373 . S
C309 C310 1.396 . S
C309 C316 1.403 . S
C310 C300 1.476 . S
C310 N305 1.318 . S
C310 C309 1.396 . S
H311 C306 0.929 . S
O312 Mn288 2.385 1_545 S
O312 C290 1.234 . S
O313 Mn288 2.209 . S
O313 Mn289 2.215 . S
O313 C290 1.283 1_565 S
O314 Mn288 2.094 . S
O314 C292 1.240 . S
O315 Mn289 2.117 . S
O315 C292 1.264 . S
C316 C309 1.403 . S
C316 C317 1.399 . S
C316 H322 0.929 . S
C317 C297 1.449 . S
C317 C316 1.399 . S
C317 H323 0.930 . S
H318 C298 0.931 . S
H319 C299 0.930 . S
H320 C307 0.931 . S
H321 C308 0.929 . S
H322 C316 0.929 . S
H323 C317 0.930 . S
Mn324 O329 2.095 . S
Mn324 O339 2.162 . S
Mn324 O340 2.297 . S
Mn324 O348 2.385 . S
Mn324 O349 2.209 . S
Mn324 O350 2.094 . S
Mn325 O330 2.121 . S
Mn325 N332 2.257 . S
Mn325 N341 2.282 . S
Mn325 O349 2.215 . S
Mn325 O351 2.117 . S
C326 O348 1.234 . S
C326 O349 1.283 . S
C327 O339 1.281 . S
C327 O340 1.236 . S
C328 O350 1.240 . S
C328 O351 1.264 . S
O329 Mn324 2.095 . S
O329 C338 1.250 . S
O330 Mn325 2.121 . S
O330 C338 1.258 . S
C331 N332 1.326 . S
C331 C335 1.460 . S
C331 H337 0.929 . S
N332 Mn325 2.257 . S
N332 C331 1.326 . S
N332 C336 1.362 . S
C333 C334 1.258 . S
C333 C336 1.431 . S
C333 C353 1.449 . S
C334 C333 1.258 . S
C334 C335 1.477 . S
C334 H354 0.931 . S
C335 C331 1.460 . S
C335 C334 1.477 . S
C335 H355 0.930 . S
C336 N332 1.362 . S
C336 C333 1.431 . S
C336 C346 1.476 . S
H337 C331 0.929 . S
C338 O329 1.250 . S
C338 O330 1.258 . S
O339 Mn324 2.162 . S
O339 C327 1.281 . S
O340 Mn324 2.297 . S
O340 C327 1.236 . S
N341 Mn325 2.282 . S
N341 C342 1.328 . S
N341 C346 1.318 . S
C342 N341 1.328 . S
C342 C343 1.457 . S
C342 H347 0.929 . S
C343 C342 1.457 . S
C343 C344 1.291 . S
C343 H356 0.931 1_545 S
C344 C343 1.291 . S
C344 C345 1.373 . S
C344 H357 0.929 1_545 S
C345 C344 1.373 . S
C345 C346 1.396 . S
C345 C352 1.403 . S
C346 C336 1.476 . S
C346 N341 1.318 . S
C346 C345 1.396 . S
H347 C342 0.929 . S
O348 Mn324 2.385 . S
O348 C326 1.234 . S
O349 Mn324 2.209 . S
O349 Mn325 2.215 . S
O349 C326 1.283 . S
O350 Mn324 2.094 . S
O350 C328 1.240 . S
O351 Mn325 2.117 . S
O351 C328 1.264 . S
C352 C345 1.403 . S
C352 C353 1.399 . S
C352 H358 0.929 1_545 S
C353 C333 1.449 . S
C353 C352 1.399 . S
C353 H359 0.930 . S
H354 C334 0.931 . S
H355 C335 0.930 . S
H356 C343 0.931 1_565 S
H357 C344 0.929 1_565 S
H358 C352 0.929 1_565 S
H359 C353 0.930 . S
Mn360 O365 2.095 . S
Mn360 O375 2.162 . S
Mn360 O376 2.297 1_455 S
Mn360 O384 2.385 . S
Mn360 O385 2.209 . S
Mn360 O386 2.094 . S
Mn361 O366 2.121 . S
Mn361 N368 2.257 . S
Mn361 N377 2.282 . S
Mn361 O385 2.215 . S
Mn361 O387 2.117 . S
C362 O384 1.234 . S
C362 O385 1.283 . S
C363 O375 1.281 . S
C363 O376 1.236 1_455 S
C364 O386 1.240 . S
C364 O387 1.264 . S
O365 Mn360 2.095 . S
O365 C374 1.250 . S
O366 Mn361 2.121 . S
O366 C374 1.258 . S
C367 N368 1.326 1_655 S
C367 C371 1.460 . S
C367 H373 0.929 . S
N368 Mn361 2.257 . S
N368 C367 1.326 1_455 S
N368 C372 1.362 . S
C369 C370 1.258 1_455 S
C369 C372 1.431 . S
C369 C389 1.449 . S
C370 C369 1.258 1_655 S
C370 C371 1.477 . S
C370 H390 0.931 . S
C371 C367 1.460 . S
C371 C370 1.477 . S
C371 H391 0.930 . S
C372 N368 1.362 . S
C372 C369 1.431 . S
C372 C382 1.476 . S
H373 C367 0.929 . S
C374 O365 1.250 . S
C374 O366 1.258 . S
O375 Mn360 2.162 . S
O375 C363 1.281 . S
O376 Mn360 2.297 1_655 S
O376 C363 1.236 1_655 S
N377 Mn361 2.282 . S
N377 C378 1.328 . S
N377 C382 1.318 . S
C378 N377 1.328 . S
C378 C379 1.457 . S
C378 H383 0.929 . S
C379 C378 1.457 . S
C379 C380 1.291 . S
C379 H392 0.931 1_545 S
C380 C379 1.291 . S
C380 C381 1.373 . S
C380 H393 0.929 1_545 S
C381 C380 1.373 . S
C381 C382 1.396 . S
C381 C388 1.403 . S
C382 C372 1.476 . S
C382 N377 1.318 . S
C382 C381 1.396 . S
H383 C378 0.929 . S
O384 Mn360 2.385 . S
O384 C362 1.234 . S
O385 Mn360 2.209 . S
O385 Mn361 2.215 . S
O385 C362 1.283 . S
O386 Mn360 2.094 . S
O386 C364 1.240 . S
O387 Mn361 2.117 . S
O387 C364 1.264 . S
C388 C381 1.403 . S
C388 C389 1.399 . S
C388 H394 0.929 1_545 S
C389 C369 1.449 . S
C389 C388 1.399 . S
C389 H395 0.930 . S
H390 C370 0.931 . S
H391 C371 0.930 . S
H392 C379 0.931 1_565 S
H393 C380 0.929 1_565 S
H394 C388 0.929 1_565 S
H395 C389 0.930 . S
Mn396 O401 2.095 . S
Mn396 O411 2.162 . S
Mn396 O412 2.297 . S
Mn396 O420 2.385 1_565 S
Mn396 O421 2.209 . S
Mn396 O422 2.094 . S
Mn397 O402 2.121 . S
Mn397 N404 2.257 . S
Mn397 N413 2.282 1_565 S
Mn397 O421 2.215 . S
Mn397 O423 2.117 . S
C398 O420 1.234 . S
C398 O421 1.283 1_545 S
C399 O411 1.281 . S
C399 O412 1.236 . S
C400 O422 1.240 . S
C400 O423 1.264 . S
O401 Mn396 2.095 . S
O401 C410 1.250 . S
O402 Mn397 2.121 . S
O402 C410 1.258 . S
C403 N404 1.326 . S
C403 C407 1.460 . S
C403 H409 0.929 . S
N404 Mn397 2.257 . S
N404 C403 1.326 . S
N404 C408 1.362 1_565 S
C405 C406 1.258 1_545 S
C405 C408 1.431 . S
C405 C425 1.449 . S
C406 C405 1.258 1_565 S
C406 C407 1.477 . S
C406 H426 0.931 . S
C407 C403 1.460 . S
C407 C406 1.477 . S
C407 H427 0.930 . S
C408 N404 1.362 1_545 S
C408 C405 1.431 . S
C408 C418 1.476 . S
H409 C403 0.929 . S
C410 O401 1.250 . S
C410 O402 1.258 . S
O411 Mn396 2.162 . S
O411 C399 1.281 . S
O412 Mn396 2.297 . S
O412 C399 1.236 . S
N413 Mn397 2.282 1_545 S
N413 C414 1.328 . S
N413 C418 1.318 . S
C414 N413 1.328 . S
C414 C415 1.457 . S
C414 H419 0.929 . S
C415 C414 1.457 . S
C415 C416 1.291 . S
C415 H428 0.931 . S
C416 C415 1.291 . S
C416 C417 1.373 . S
C416 H429 0.929 . S
C417 C416 1.373 . S
C417 C418 1.396 . S
C417 C424 1.403 . S
C418 C408 1.476 . S
C418 N413 1.318 . S
C418 C417 1.396 . S
H419 C414 0.929 . S
O420 Mn396 2.385 1_545 S
O420 C398 1.234 . S
O421 Mn396 2.209 . S
O421 Mn397 2.215 . S
O421 C398 1.283 1_565 S
O422 Mn396 2.094 . S
O422 C400 1.240 . S
O423 Mn397 2.117 . S
O423 C400 1.264 . S
C424 C417 1.403 . S
C424 C425 1.399 . S
C424 H430 0.929 . S
C425 C405 1.449 . S
C425 C424 1.399 . S
C425 H431 0.930 . S
H426 C406 0.931 . S
H427 C407 0.930 . S
H428 C415 0.931 . S
H429 C416 0.929 . S
H430 C424 0.929 . S
H431 C425 0.930 . S
Mn432 O437 2.095 . S
Mn432 O447 2.162 . S
Mn432 O448 2.297 . S
Mn432 O456 2.385 . S
Mn432 O457 2.209 . S
Mn432 O458 2.094 1_545 S
Mn433 O438 2.121 . S
Mn433 N440 2.257 . S
Mn433 N449 2.282 . S
Mn433 O457 2.215 1_565 S
Mn433 O459 2.117 . S
C434 O456 1.234 . S
C434 O457 1.283 . S
C435 O447 1.281 . S
C435 O448 1.236 . S
C436 O458 1.240 . S
C436 O459 1.264 . S
O437 Mn432 2.095 . S
O437 C446 1.250 . S
O438 Mn433 2.121 . S
O438 C446 1.258 1_565 S
C439 N440 1.326 . S
C439 C443 1.460 . S
C439 H445 0.929 . S
N440 Mn433 2.257 . S
N440 C439 1.326 . S
N440 C444 1.362 . S
C441 C442 1.258 . S
C441 C444 1.431 . S
C441 C461 1.449 . S
C442 C441 1.258 . S
C442 C443 1.477 . S
C442 H462 0.931 . S
C443 C439 1.460 . S
C443 C442 1.477 . S
C443 H463 0.930 . S
C444 N440 1.362 . S
C444 C441 1.431 . S
C444 C454 1.476 . S
H445 C439 0.929 . S
C446 O437 1.250 . S
C446 O438 1.258 1_545 S
O447 Mn432 2.162 . S
O447 C435 1.281 . S
O448 Mn432 2.297 . S
O448 C435 1.236 . S
N449 Mn433 2.282 . S
N449 C450 1.328 . S
N449 C454 1.318 . S
C450 N449 1.328 . S
C450 C451 1.457 . S
C450 H455 0.929 . S
C451 C450 1.457 . S
C451 C452 1.291 . S
C451 H464 0.931 . S
C452 C451 1.291 . S
C452 C453 1.373 . S
C452 H465 0.929 . S
C453 C452 1.373 . S
C453 C454 1.396 . S
C453 C460 1.403 . S
C454 C444 1.476 . S
C454 N449 1.318 . S
C454 C453 1.396 . S
H455 C450 0.929 . S
O456 Mn432 2.385 . S
O456 C434 1.234 . S
O457 Mn432 2.209 . S
O457 Mn433 2.215 1_545 S
O457 C434 1.283 . S
O458 Mn432 2.094 1_565 S
O458 C436 1.240 . S
O459 Mn433 2.117 . S
O459 C436 1.264 . S
C460 C453 1.403 . S
C460 C461 1.399 . S
C460 H466 0.929 . S
C461 C441 1.449 . S
C461 C460 1.399 . S
C461 H467 0.930 . S
H462 C442 0.931 . S
H463 C443 0.930 . S
H464 C451 0.931 . S
H465 C452 0.929 . S
H466 C460 0.929 . S
H467 C461 0.930 . S
Mn468 O473 2.095 . S
Mn468 O483 2.162 . S
Mn468 O484 2.297 . S
Mn468 O492 2.385 . S
Mn468 O493 2.209 . S
Mn468 O494 2.094 . S
Mn469 O474 2.121 . S
Mn469 N476 2.257 . S
Mn469 N485 2.282 . S
Mn469 O493 2.215 . S
Mn469 O495 2.117 . S
C470 O492 1.234 . S
C470 O493 1.283 . S
C471 O483 1.281 . S
C471 O484 1.236 . S
C472 O494 1.240 . S
C472 O495 1.264 . S
O473 Mn468 2.095 . S
O473 C482 1.250 . S
O474 Mn469 2.121 . S
O474 C482 1.258 . S
C475 N476 1.326 . S
C475 C479 1.460 . S
C475 H481 0.929 . S
N476 Mn469 2.257 . S
N476 C475 1.326 . S
N476 C480 1.362 . S
C477 C478 1.258 . S
C477 C480 1.431 . S
C477 C497 1.449 . S
C478 C477 1.258 . S
C478 C479 1.477 . S
C478 H498 0.931 . S
C479 C475 1.460 . S
C479 C478 1.477 . S
C479 H499 0.930 . S
C480 N476 1.362 . S
C480 C477 1.431 . S
C480 C490 1.476 . S
H481 C475 0.929 . S
C482 O473 1.250 . S
C482 O474 1.258 . S
O483 Mn468 2.162 . S
O483 C471 1.281 . S
O484 Mn468 2.297 . S
O484 C471 1.236 . S
N485 Mn469 2.282 . S
N485 C486 1.328 . S
N485 C490 1.318 . S
C486 N485 1.328 . S
C486 C487 1.457 . S
C486 H491 0.929 . S
C487 C486 1.457 . S
C487 C488 1.291 . S
C487 H500 0.931 . S
C488 C487 1.291 . S
C488 C489 1.373 . S
C488 H501 0.929 . S
C489 C488 1.373 . S
C489 C490 1.396 . S
C489 C496 1.403 . S
C490 C480 1.476 . S
C490 N485 1.318 . S
C490 C489 1.396 . S
H491 C486 0.929 . S
O492 Mn468 2.385 . S
O492 C470 1.234 . S
O493 Mn468 2.209 . S
O493 Mn469 2.215 . S
O493 C470 1.283 . S
O494 Mn468 2.094 . S
O494 C472 1.240 . S
O495 Mn469 2.117 . S
O495 C472 1.264 . S
C496 C489 1.403 . S
C496 C497 1.399 . S
C496 H502 0.929 1_655 S
C497 C477 1.449 . S
C497 C496 1.399 . S
C497 H503 0.950 . S
H498 C478 0.931 . S
H499 C479 0.930 . S
H500 C487 0.931 . S
H501 C488 0.929 . S
H502 C496 0.929 1_455 S
H503 C497 0.950 . S
Mn504 O509 2.095 . S
Mn504 O519 2.162 . S
Mn504 O520 2.297 . S
Mn504 O528 2.385 . S
Mn504 O529 2.209 . S
Mn504 O530 2.094 . S
Mn505 O510 2.121 . S
Mn505 N512 2.257 . S
Mn505 N521 2.282 . S
Mn505 O529 2.215 . S
Mn505 O531 2.117 . S
C506 O528 1.234 . S
C506 O529 1.283 . S
C507 O519 1.281 . S
C507 O520 1.236 . S
C508 O530 1.240 . S
C508 O531 1.264 . S
O509 Mn504 2.095 . S
O509 C518 1.250 . S
O510 Mn505 2.121 . S
O510 C518 1.258 . S
C511 N512 1.326 . S
C511 C515 1.460 . S
C511 H517 0.929 . S
N512 Mn505 2.257 . S
N512 C511 1.326 . S
N512 C516 1.362 . S
C513 C514 1.258 . S
C513 C516 1.431 . S
C513 C533 1.449 . S
C514 C513 1.258 . S
C514 C515 1.477 . S
C514 H534 0.931 . S
C515 C511 1.460 . S
C515 C514 1.477 . S
C515 H535 0.930 . S
C516 N512 1.362 . S
C516 C513 1.431 . S
C516 C526 1.476 . S
H517 C511 0.929 . S
C518 O509 1.250 . S
C518 O510 1.258 . S
O519 Mn504 2.162 . S
O519 C507 1.281 . S
O520 Mn504 2.297 . S
O520 C507 1.236 . S
N521 Mn505 2.282 . S
N521 C522 1.328 . S
N521 C526 1.318 . S
C522 N521 1.328 . S
C522 C523 1.457 . S
C522 H527 0.929 . S
C523 C522 1.457 . S
C523 C524 1.291 . S
C523 H536 0.931 . S
C524 C523 1.291 . S
C524 C525 1.373 . S
C524 H537 0.929 . S
C525 C524 1.373 . S
C525 C526 1.396 . S
C525 C532 1.403 . S
C526 C516 1.476 . S
C526 N521 1.318 . S
C526 C525 1.396 . S
H527 C522 0.929 . S
O528 Mn504 2.385 . S
O528 C506 1.234 . S
O529 Mn504 2.209 . S
O529 Mn505 2.215 . S
O529 C506 1.283 . S
O530 Mn504 2.094 . S
O530 C508 1.240 . S
O531 Mn505 2.117 . S
O531 C508 1.264 . S
C532 C525 1.403 . S
C532 C533 1.399 . S
C532 H538 0.929 . S
C533 C513 1.449 . S
C533 C532 1.399 . S
C533 H539 0.930 . S
H534 C514 0.931 . S
H535 C515 0.930 . S
H536 C523 0.931 . S
H537 C524 0.929 . S
H538 C532 0.929 . S
H539 C533 0.930 . S
Mn540 O545 2.095 . S
Mn540 O555 2.162 . S
Mn540 O556 2.297 . S
Mn540 O564 2.385 . S
Mn540 O565 2.209 . S
Mn540 O566 2.094 1_545 S
Mn541 O546 2.121 . S
Mn541 N548 2.257 . S
Mn541 N557 2.282 . S
Mn541 O565 2.215 1_565 S
Mn541 O567 2.117 . S
C542 O564 1.234 . S
C542 O565 1.283 . S
C543 O555 1.281 . S
C543 O556 1.236 . S
C544 O566 1.240 . S
C544 O567 1.264 . S
O545 Mn540 2.095 . S
O545 C554 1.250 . S
O546 Mn541 2.121 . S
O546 C554 1.258 1_565 S
C547 N548 1.326 . S
C547 C551 1.460 . S
C547 H553 0.929 . S
N548 Mn541 2.257 . S
N548 C547 1.326 . S
N548 C552 1.362 . S
C549 C550 1.258 . S
C549 C552 1.431 . S
C549 C569 1.449 . S
C550 C549 1.258 . S
C550 C551 1.477 . S
C550 H570 0.931 . S
C551 C547 1.460 . S
C551 C550 1.477 . S
C551 H571 0.930 . S
C552 N548 1.362 . S
C552 C549 1.431 . S
C552 C562 1.476 . S
H553 C547 0.929 . S
C554 O545 1.250 . S
C554 O546 1.258 1_545 S
O555 Mn540 2.162 . S
O555 C543 1.281 . S
O556 Mn540 2.297 . S
O556 C543 1.236 . S
N557 Mn541 2.282 . S
N557 C558 1.328 . S
N557 C562 1.318 . S
C558 N557 1.328 . S
C558 C559 1.457 . S
C558 H563 0.929 . S
C559 C558 1.457 . S
C559 C560 1.291 . S
C559 H572 0.931 . S
C560 C559 1.291 . S
C560 C561 1.373 . S
C560 H573 0.929 . S
C561 C560 1.373 . S
C561 C562 1.396 . S
C561 C568 1.403 . S
C562 C552 1.476 . S
C562 N557 1.318 . S
C562 C561 1.396 . S
H563 C558 0.929 . S
O564 Mn540 2.385 . S
O564 C542 1.234 . S
O565 Mn540 2.209 . S
O565 Mn541 2.215 1_545 S
O565 C542 1.283 . S
O566 Mn540 2.094 1_565 S
O566 C544 1.240 . S
O567 Mn541 2.117 . S
O567 C544 1.264 . S
C568 C561 1.403 . S
C568 C569 1.399 . S
C568 H574 0.929 1_655 S
C569 C549 1.449 . S
C569 C568 1.399 . S
C569 H575 0.950 . S
H570 C550 0.931 . S
H571 C551 0.930 . S
H572 C559 0.931 . S
H573 C560 0.929 . S
H574 C568 0.929 1_455 S
H575 C569 0.950 . S
Mn576 O581 2.095 . S
Mn576 O591 2.162 . S
Mn576 O592 2.297 . S
Mn576 O600 2.385 . S
Mn576 O601 2.209 . S
Mn576 O602 2.094 . S
Mn577 O582 2.121 . S
Mn577 N584 2.257 . S
Mn577 N593 2.282 . S
Mn577 O601 2.215 . S
Mn577 O603 2.117 . S
C578 O600 1.234 . S
C578 O601 1.283 . S
C579 O591 1.281 . S
C579 O592 1.236 . S
C580 O602 1.240 . S
C580 O603 1.264 . S
O581 Mn576 2.095 . S
O581 C590 1.250 . S
O582 Mn577 2.121 . S
O582 C590 1.258 . S
C583 N584 1.326 . S
C583 C587 1.460 . S
C583 H589 0.929 . S
N584 Mn577 2.257 . S
N584 C583 1.326 . S
N584 C588 1.362 . S
C585 C586 1.258 . S
C585 C588 1.431 . S
C585 C605 1.449 . S
C586 C585 1.258 . S
C586 C587 1.477 . S
C586 H606 0.931 . S
C587 C583 1.460 . S
C587 C586 1.477 . S
C587 H607 0.930 . S
C588 N584 1.362 . S
C588 C585 1.431 . S
C588 C598 1.476 . S
H589 C583 0.929 . S
C590 O581 1.250 . S
C590 O582 1.258 . S
O591 Mn576 2.162 . S
O591 C579 1.281 . S
O592 Mn576 2.297 . S
O592 C579 1.236 . S
N593 Mn577 2.282 . S
N593 C594 1.328 . S
N593 C598 1.318 . S
C594 N593 1.328 . S
C594 C595 1.457 . S
C594 H599 0.929 . S
C595 C594 1.457 . S
C595 C596 1.291 . S
C595 H608 0.931 . S
C596 C595 1.291 . S
C596 C597 1.373 . S
C596 H609 0.929 . S
C597 C596 1.373 . S
C597 C598 1.396 . S
C597 C604 1.403 . S
C598 C588 1.476 . S
C598 N593 1.318 . S
C598 C597 1.396 . S
H599 C594 0.929 . S
O600 Mn576 2.385 . S
O600 C578 1.234 . S
O601 Mn576 2.209 . S
O601 Mn577 2.215 . S
O601 C578 1.283 . S
O602 Mn576 2.094 . S
O602 C580 1.240 . S
O603 Mn577 2.117 . S
O603 C580 1.264 . S
C604 C597 1.403 . S
C604 C605 1.399 . S
C604 H610 0.929 . S
C605 C585 1.449 . S
C605 C604 1.399 . S
C605 H611 0.930 . S
H606 C586 0.931 . S
H607 C587 0.930 . S
H608 C595 0.931 . S
H609 C596 0.929 . S
H610 C604 0.929 . S
H611 C605 0.930 . S
Mn612 O617 2.102 . S
Mn612 O627 2.162 . S
Mn612 O628 2.297 . S
Mn612 O636 2.385 . S
Mn612 O637 2.209 . S
Mn612 O638 2.094 . S
Mn613 O618 2.121 1_565 S
Mn613 N620 2.257 . S
Mn613 N629 2.282 . S
Mn613 O637 2.215 . S
Mn613 O639 2.117 . S
C614 O636 1.234 . S
C614 O637 1.283 . S
C615 O627 1.281 . S
C615 O628 1.236 . S
C616 O638 1.240 . S
C616 O639 1.264 . S
O617 Mn612 2.102 . S
O617 C626 1.247 1_565 S
O618 Mn613 2.121 1_545 S
O618 C626 1.258 . S
C619 N620 1.326 . S
C619 C623 1.460 . S
C619 H625 0.929 . S
N620 Mn613 2.257 . S
N620 C619 1.326 . S
N620 C624 1.362 . S
C621 C622 1.258 . S
C621 C624 1.431 . S
C621 C641 1.449 . S
C622 C621 1.258 . S
C622 C623 1.477 . S
C622 H642 0.931 . S
C623 C619 1.460 . S
C623 C622 1.477 . S
C623 H643 0.930 . S
C624 N620 1.362 . S
C624 C621 1.431 . S
C624 C634 1.476 . S
H625 C619 0.929 . S
C626 O617 1.247 1_545 S
C626 O618 1.258 . S
O627 Mn612 2.162 . S
O627 C615 1.281 . S
O628 Mn612 2.297 . S
O628 C615 1.236 . S
N629 Mn613 2.282 . S
N629 C630 1.328 . S
N629 C634 1.318 . S
C630 N629 1.328 . S
C630 C631 1.457 . S
C630 H635 0.929 . S
C631 C630 1.457 . S
C631 C632 1.291 . S
C631 H644 0.931 . S
C632 C631 1.291 . S
C632 C633 1.373 . S
C632 H645 0.929 . S
C633 C632 1.373 . S
C633 C634 1.396 . S
C633 C640 1.403 . S
C634 C624 1.476 . S
C634 N629 1.318 . S
C634 C633 1.396 . S
H635 C630 0.929 . S
O636 Mn612 2.385 . S
O636 C614 1.234 . S
O637 Mn612 2.209 . S
O637 Mn613 2.215 . S
O637 C614 1.283 . S
O638 Mn612 2.094 . S
O638 C616 1.240 . S
O639 Mn613 2.117 . S
O639 C616 1.264 . S
C640 C633 1.403 . S
C640 C641 1.399 . S
C640 H646 0.929 . S
C641 C621 1.449 . S
C641 C640 1.399 . S
C641 H647 0.930 . S
H642 C622 0.931 . S
H643 C623 0.930 . S
H644 C631 0.931 . S
H645 C632 0.929 . S
H646 C640 0.929 . S
H647 C641 0.930 . S
Mn648 O653 2.102 . S
Mn648 O663 2.162 . S
Mn648 O664 2.297 . S
Mn648 O672 2.385 . S
Mn648 O673 2.209 . S
Mn648 O674 2.094 . S
Mn649 O654 2.121 1_565 S
Mn649 N656 2.257 . S
Mn649 N665 2.282 . S
Mn649 O673 2.215 . S
Mn649 O675 2.117 . S
C650 O672 1.234 . S
C650 O673 1.283 . S
C651 O663 1.281 . S
C651 O664 1.236 . S
C652 O674 1.240 . S
C652 O675 1.264 . S
O653 Mn648 2.102 . S
O653 C662 1.247 1_565 S
O654 Mn649 2.121 1_545 S
O654 C662 1.258 . S
C655 N656 1.326 . S
C655 C659 1.460 . S
C655 H661 0.929 . S
N656 Mn649 2.257 . S
N656 C655 1.326 . S
N656 C660 1.362 . S
C657 C658 1.258 . S
C657 C660 1.431 . S
C657 C677 1.449 . S
C658 C657 1.258 . S
C658 C659 1.477 . S
C658 H678 0.931 . S
C659 C655 1.460 . S
C659 C658 1.477 . S
C659 H679 0.930 . S
C660 N656 1.362 . S
C660 C657 1.431 . S
C660 C670 1.476 . S
H661 C655 0.929 . S
C662 O653 1.247 1_545 S
C662 O654 1.258 . S
O663 Mn648 2.162 . S
O663 C651 1.281 . S
O664 Mn648 2.297 . S
O664 C651 1.236 . S
N665 Mn649 2.282 . S
N665 C666 1.328 . S
N665 C670 1.318 . S
C666 N665 1.328 . S
C666 C667 1.457 . S
C666 H671 0.929 . S
C667 C666 1.457 . S
C667 C668 1.291 . S
C667 H680 0.931 . S
C668 C667 1.291 . S
C668 C669 1.373 . S
C668 H681 0.929 . S
C669 C668 1.373 . S
C669 C670 1.396 . S
C669 C676 1.403 . S
C670 C660 1.476 . S
C670 N665 1.318 . S
C670 C669 1.396 . S
H671 C666 0.929 . S
O672 Mn648 2.385 . S
O672 C650 1.234 . S
O673 Mn648 2.209 . S
O673 Mn649 2.215 . S
O673 C650 1.283 . S
O674 Mn648 2.094 . S
O674 C652 1.240 . S
O675 Mn649 2.117 . S
O675 C652 1.264 . S
C676 C669 1.403 . S
C676 C677 1.399 . S
C676 H682 0.929 . S
C677 C657 1.449 . S
C677 C676 1.399 . S
C677 H683 0.930 . S
H678 C658 0.931 . S
H679 C659 0.930 . S
H680 C667 0.931 . S
H681 C668 0.929 . S
H682 C676 0.929 . S
H683 C677 0.930 . S
Mn684 O689 2.095 . S
Mn684 O699 2.162 . S
Mn684 O700 2.297 . S
Mn684 O708 2.385 . S
Mn684 O709 2.209 . S
Mn684 O710 2.094 . S
Mn685 O690 2.121 . S
Mn685 N692 2.257 . S
Mn685 N701 2.282 . S
Mn685 O709 2.215 . S
Mn685 O711 2.117 . S
C686 O708 1.234 . S
C686 O709 1.283 . S
C687 O699 1.281 . S
C687 O700 1.236 . S
C688 O710 1.240 . S
C688 O711 1.264 . S
O689 Mn684 2.095 . S
O689 C698 1.250 . S
O690 Mn685 2.121 . S
O690 C698 1.258 . S
C691 N692 1.326 . S
C691 C695 1.460 . S
C691 H697 0.929 . S
N692 Mn685 2.257 . S
N692 C691 1.326 . S
N692 C696 1.362 . S
C693 C694 1.258 . S
C693 C696 1.431 . S
C693 C713 1.449 . S
C694 C693 1.258 . S
C694 C695 1.477 . S
C694 H714 0.931 . S
C695 C691 1.460 . S
C695 C694 1.477 . S
C695 H715 0.930 . S
C696 N692 1.362 . S
C696 C693 1.431 . S
C696 C706 1.476 . S
H697 C691 0.929 . S
C698 O689 1.250 . S
C698 O690 1.258 . S
O699 Mn684 2.162 . S
O699 C687 1.281 . S
O700 Mn684 2.297 . S
O700 C687 1.236 . S
N701 Mn685 2.282 . S
N701 C702 1.328 . S
N701 C706 1.318 . S
C702 N701 1.328 . S
C702 C703 1.457 . S
C702 H707 0.929 . S
C703 C702 1.457 . S
C703 C704 1.291 . S
C703 H716 0.931 . S
C704 C703 1.291 . S
C704 C705 1.373 . S
C704 H717 0.929 . S
C705 C704 1.373 . S
C705 C706 1.396 . S
C705 C712 1.403 . S
C706 C696 1.476 . S
C706 N701 1.318 . S
C706 C705 1.396 . S
H707 C702 0.929 . S
O708 Mn684 2.385 . S
O708 C686 1.234 . S
O709 Mn684 2.209 . S
O709 Mn685 2.215 . S
O709 C686 1.283 . S
O710 Mn684 2.094 . S
O710 C688 1.240 . S
O711 Mn685 2.117 . S
O711 C688 1.264 . S
C712 C705 1.403 . S
C712 C713 1.399 . S
C712 H718 0.929 . S
C713 C693 1.449 . S
C713 C712 1.399 . S
C713 H719 0.930 . S
H714 C694 0.931 . S
H715 C695 0.930 . S
H716 C703 0.931 . S
H717 C704 0.929 . S
H718 C712 0.929 . S
H719 C713 0.930 . S
Mn720 O725 2.095 . S
Mn720 O735 2.162 . S
Mn720 O736 2.297 . S
Mn720 O744 2.385 . S
Mn720 O745 2.209 . S
Mn720 O746 2.094 . S
Mn721 O726 2.121 . S
Mn721 N728 2.257 . S
Mn721 N737 2.282 . S
Mn721 O745 2.215 . S
Mn721 O747 2.117 . S
C722 O744 1.234 . S
C722 O745 1.283 . S
C723 O735 1.281 . S
C723 O736 1.236 . S
C724 O746 1.240 . S
C724 O747 1.264 . S
O725 Mn720 2.095 . S
O725 C734 1.250 . S
O726 Mn721 2.121 . S
O726 C734 1.258 . S
C727 N728 1.326 . S
C727 C731 1.460 . S
C727 H733 0.929 . S
N728 Mn721 2.257 . S
N728 C727 1.326 . S
N728 C732 1.362 . S
C729 C730 1.258 . S
C729 C732 1.431 . S
C729 C749 1.449 . S
C730 C729 1.258 . S
C730 C731 1.477 . S
C730 H750 0.931 . S
C731 C727 1.460 . S
C731 C730 1.477 . S
C731 H751 0.930 . S
C732 N728 1.362 . S
C732 C729 1.431 . S
C732 C742 1.476 . S
H733 C727 0.929 . S
C734 O725 1.250 . S
C734 O726 1.258 . S
O735 Mn720 2.162 . S
O735 C723 1.281 . S
O736 Mn720 2.297 . S
O736 C723 1.236 . S
N737 Mn721 2.282 . S
N737 C738 1.328 . S
N737 C742 1.318 . S
C738 N737 1.328 . S
C738 C739 1.457 . S
C738 H743 0.929 . S
C739 C738 1.457 . S
C739 C740 1.291 . S
C739 H752 0.931 . S
C740 C739 1.291 . S
C740 C741 1.373 . S
C740 H753 0.929 . S
C741 C740 1.373 . S
C741 C742 1.396 . S
C741 C748 1.403 . S
C742 C732 1.476 . S
C742 N737 1.318 . S
C742 C741 1.396 . S
H743 C738 0.929 . S
O744 Mn720 2.385 . S
O744 C722 1.234 . S
O745 Mn720 2.209 . S
O745 Mn721 2.215 . S
O745 C722 1.283 . S
O746 Mn720 2.094 . S
O746 C724 1.240 . S
O747 Mn721 2.117 . S
O747 C724 1.264 . S
C748 C741 1.403 . S
C748 C749 1.399 . S
C748 H754 0.929 . S
C749 C729 1.449 . S
C749 C748 1.399 . S
C749 H755 0.930 . S
H750 C730 0.931 . S
H751 C731 0.930 . S
H752 C739 0.931 . S
H753 C740 0.929 . S
H754 C748 0.929 . S
H755 C749 0.930 . S
Mn756 O761 2.095 . S
Mn756 O771 2.162 . S
Mn756 O772 2.297 1_545 S
Mn756 O780 2.385 . S
Mn756 O781 2.209 . S
Mn756 O782 2.094 . S
Mn757 O762 2.121 . S
Mn757 N764 2.257 . S
Mn757 N773 2.282 . S
Mn757 O781 2.215 . S
Mn757 O783 2.117 . S
C758 O780 1.234 . S
C758 O781 1.283 . S
C759 O771 1.281 1_565 S
C759 O772 1.236 . S
C760 O782 1.240 . S
C760 O783 1.264 . S
O761 Mn756 2.095 . S
O761 C770 1.250 . S
O762 Mn757 2.121 . S
O762 C770 1.258 . S
C763 N764 1.326 . S
C763 C767 1.460 . S
C763 H769 0.929 . S
N764 Mn757 2.257 . S
N764 C763 1.326 . S
N764 C768 1.362 . S
C765 C766 1.258 . S
C765 C768 1.431 . S
C765 C785 1.449 . S
C766 C765 1.258 . S
C766 C767 1.477 . S
C766 H786 0.931 . S
C767 C763 1.460 . S
C767 C766 1.477 . S
C767 H787 0.930 . S
C768 N764 1.362 . S
C768 C765 1.431 . S
C768 C778 1.476 . S
H769 C763 0.929 . S
C770 O761 1.250 . S
C770 O762 1.258 . S
O771 Mn756 2.162 . S
O771 C759 1.281 1_545 S
O772 Mn756 2.297 1_565 S
O772 C759 1.236 . S
N773 Mn757 2.282 . S
N773 C774 1.328 . S
N773 C778 1.318 . S
C774 N773 1.328 . S
C774 C775 1.457 . S
C774 H779 0.929 . S
C775 C774 1.457 . S
C775 C776 1.291 . S
C775 H788 0.931 . S
C776 C775 1.291 . S
C776 C777 1.373 . S
C776 H789 0.929 . S
C777 C776 1.373 . S
C777 C778 1.396 . S
C777 C784 1.403 . S
C778 C768 1.476 . S
C778 N773 1.318 . S
C778 C777 1.396 . S
H779 C774 0.929 . S
O780 Mn756 2.385 . S
O780 C758 1.234 . S
O781 Mn756 2.209 . S
O781 Mn757 2.215 . S
O781 C758 1.283 . S
O782 Mn756 2.094 . S
O782 C760 1.240 . S
O783 Mn757 2.117 . S
O783 C760 1.264 . S
C784 C777 1.403 . S
C784 C785 1.399 . S
C784 H790 0.929 . S
C785 C765 1.449 . S
C785 C784 1.399 . S
C785 H791 0.930 . S
H786 C766 0.931 . S
H787 C767 0.930 . S
H788 C775 0.931 . S
H789 C776 0.929 . S
H790 C784 0.929 . S
H791 C785 0.930 . S
Mn792 O797 2.095 . S
Mn792 O807 2.162 . S
Mn792 O808 2.297 1_545 S
Mn792 O816 2.385 . S
Mn792 O817 2.209 . S
Mn792 O818 2.094 . S
Mn793 O798 2.121 . S
Mn793 N800 2.257 . S
Mn793 N809 2.282 . S
Mn793 O817 2.215 . S
Mn793 O819 2.117 . S
C794 O816 1.234 . S
C794 O817 1.283 . S
C795 O807 1.281 1_565 S
C795 O808 1.236 . S
C796 O818 1.240 . S
C796 O819 1.264 . S
O797 Mn792 2.095 . S
O797 C806 1.250 . S
O798 Mn793 2.121 . S
O798 C806 1.258 . S
C799 N800 1.326 . S
C799 C803 1.460 . S
C799 H805 0.929 . S
N800 Mn793 2.257 . S
N800 C799 1.326 . S
N800 C804 1.362 . S
C801 C802 1.258 . S
C801 C804 1.431 . S
C801 C821 1.449 . S
C802 C801 1.258 . S
C802 C803 1.477 . S
C802 H822 0.931 . S
C803 C799 1.460 . S
C803 C802 1.477 . S
C803 H823 0.930 . S
C804 N800 1.362 . S
C804 C801 1.431 . S
C804 C814 1.476 . S
H805 C799 0.929 . S
C806 O797 1.250 . S
C806 O798 1.258 . S
O807 Mn792 2.162 . S
O807 C795 1.281 1_545 S
O808 Mn792 2.297 1_565 S
O808 C795 1.236 . S
N809 Mn793 2.282 . S
N809 C810 1.328 . S
N809 C814 1.318 . S
C810 N809 1.328 . S
C810 C811 1.457 . S
C810 H815 0.929 . S
C811 C810 1.457 . S
C811 C812 1.291 . S
C811 H824 0.931 . S
C812 C811 1.291 . S
C812 C813 1.373 . S
C812 H825 0.929 . S
C813 C812 1.373 . S
C813 C814 1.396 . S
C813 C820 1.403 . S
C814 C804 1.476 . S
C814 N809 1.318 . S
C814 C813 1.396 . S
H815 C810 0.929 . S
O816 Mn792 2.385 . S
O816 C794 1.234 . S
O817 Mn792 2.209 . S
O817 Mn793 2.215 . S
O817 C794 1.283 . S
O818 Mn792 2.094 . S
O818 C796 1.240 . S
O819 Mn793 2.117 . S
O819 C796 1.264 . S
C820 C813 1.403 . S
C820 C821 1.399 . S
C820 H826 0.929 . S
C821 C801 1.449 . S
C821 C820 1.399 . S
C821 H827 0.930 . S
H822 C802 0.931 . S
H823 C803 0.930 . S
H824 C811 0.931 . S
H825 C812 0.929 . S
H826 C820 0.929 . S
H827 C821 0.930 . S
Mn828 O833 2.095 . S
Mn828 O843 2.162 . S
Mn828 O844 2.297 . S
Mn828 O852 2.385 . S
Mn828 O853 2.209 . S
Mn828 O854 2.094 . S
Mn829 O834 2.121 . S
Mn829 N836 2.257 . S
Mn829 N845 2.282 . S
Mn829 O853 2.215 . S
Mn829 O855 2.117 . S
C830 O852 1.234 . S
C830 O853 1.283 . S
C831 O843 1.281 . S
C831 O844 1.236 . S
C832 O854 1.240 . S
C832 O855 1.264 . S
O833 Mn828 2.095 . S
O833 C842 1.250 . S
O834 Mn829 2.121 . S
O834 C842 1.258 . S
C835 N836 1.326 . S
C835 C839 1.460 . S
C835 H841 0.929 . S
N836 Mn829 2.257 . S
N836 C835 1.326 . S
N836 C840 1.362 . S
C837 C838 1.258 . S
C837 C840 1.431 . S
C837 C857 1.449 . S
C838 C837 1.258 . S
C838 C839 1.477 . S
C838 H858 0.931 . S
C839 C835 1.460 . S
C839 C838 1.477 . S
C839 H859 0.930 . S
C840 N836 1.362 . S
C840 C837 1.431 . S
C840 C850 1.476 . S
H841 C835 0.929 . S
C842 O833 1.250 . S
C842 O834 1.258 . S
O843 Mn828 2.162 . S
O843 C831 1.281 . S
O844 Mn828 2.297 . S
O844 C831 1.236 . S
N845 Mn829 2.282 . S
N845 C846 1.328 . S
N845 C850 1.318 . S
C846 N845 1.328 . S
C846 C847 1.457 . S
C846 H851 0.929 . S
C847 C846 1.457 . S
C847 C848 1.291 . S
C847 H860 0.931 . S
C848 C847 1.291 . S
C848 C849 1.373 . S
C848 H861 0.929 . S
C849 C848 1.373 . S
C849 C850 1.396 . S
C849 C856 1.403 . S
C850 C840 1.476 . S
C850 N845 1.318 . S
C850 C849 1.396 . S
H851 C846 0.929 . S
O852 Mn828 2.385 . S
O852 C830 1.234 . S
O853 Mn828 2.209 . S
O853 Mn829 2.215 . S
O853 C830 1.283 . S
O854 Mn828 2.094 . S
O854 C832 1.240 . S
O855 Mn829 2.117 . S
O855 C832 1.264 . S
C856 C849 1.403 . S
C856 C857 1.399 . S
C856 H862 0.929 . S
C857 C837 1.449 . S
C857 C856 1.399 . S
C857 H863 0.930 . S
H858 C838 0.931 . S
H859 C839 0.930 . S
H860 C847 0.931 . S
H861 C848 0.929 . S
H862 C856 0.929 . S
H863 C857 0.930 . S
Mn864 O869 2.095 . S
Mn864 O879 2.162 . S
Mn864 O880 2.297 . S
Mn864 O888 2.385 1_565 S
Mn864 O889 2.209 . S
Mn864 O890 2.094 . S
Mn865 O870 2.121 . S
Mn865 N872 2.257 . S
Mn865 N881 2.282 1_565 S
Mn865 O889 2.215 . S
Mn865 O891 2.117 . S
C866 O888 1.234 . S
C866 O889 1.283 1_545 S
C867 O879 1.281 . S
C867 O880 1.236 . S
C868 O890 1.240 . S
C868 O891 1.264 . S
O869 Mn864 2.095 . S
O869 C878 1.250 . S
O870 Mn865 2.121 . S
O870 C878 1.258 . S
C871 N872 1.326 . S
C871 C875 1.460 . S
C871 H877 0.929 . S
N872 Mn865 2.257 . S
N872 C871 1.326 . S
N872 C876 1.362 1_565 S
C873 C874 1.258 1_545 S
C873 C876 1.431 . S
C873 C893 1.449 . S
C874 C873 1.258 1_565 S
C874 C875 1.477 . S
C874 H894 0.931 . S
C875 C871 1.460 . S
C875 C874 1.477 . S
C875 H895 0.930 . S
C876 N872 1.362 1_545 S
C876 C873 1.431 . S
C876 C886 1.476 . S
H877 C871 0.929 . S
C878 O869 1.250 . S
C878 O870 1.258 . S
O879 Mn864 2.162 . S
O879 C867 1.281 . S
O880 Mn864 2.297 . S
O880 C867 1.236 . S
N881 Mn865 2.282 1_545 S
N881 C882 1.328 . S
N881 C886 1.318 . S
C882 N881 1.328 . S
C882 C883 1.457 . S
C882 H887 0.929 . S
C883 C882 1.457 . S
C883 C884 1.291 . S
C883 H896 0.931 . S
C884 C883 1.291 . S
C884 C885 1.373 . S
C884 H897 0.929 . S
C885 C884 1.373 . S
C885 C886 1.396 . S
C885 C892 1.403 . S
C886 C876 1.476 . S
C886 N881 1.318 . S
C886 C885 1.396 . S
H887 C882 0.929 . S
O888 Mn864 2.385 1_545 S
O888 C866 1.234 . S
O889 Mn864 2.209 . S
O889 Mn865 2.215 . S
O889 C866 1.283 1_565 S
O890 Mn864 2.094 . S
O890 C868 1.240 . S
O891 Mn865 2.117 . S
O891 C868 1.264 . S
C892 C885 1.403 . S
C892 C893 1.399 . S
C892 H898 0.929 . S
C893 C873 1.449 . S
C893 C892 1.399 . S
C893 H899 0.930 . S
H894 C874 0.931 . S
H895 C875 0.930 . S
H896 C883 0.931 . S
H897 C884 0.929 . S
H898 C892 0.929 . S
H899 C893 0.930 . S
Mn900 O905 2.095 . S
Mn900 O915 2.162 . S
Mn900 O916 2.297 . S
Mn900 O924 2.385 . S
Mn900 O925 2.209 . S
Mn900 O926 2.094 . S
Mn901 O906 2.121 . S
Mn901 N908 2.257 . S
Mn901 N917 2.282 . S
Mn901 O925 2.215 . S
Mn901 O927 2.117 . S
C902 O924 1.234 . S
C902 O925 1.283 . S
C903 O915 1.281 . S
C903 O916 1.236 . S
C904 O926 1.240 . S
C904 O927 1.264 . S
O905 Mn900 2.095 . S
O905 C914 1.250 . S
O906 Mn901 2.121 . S
O906 C914 1.258 . S
C907 N908 1.326 . S
C907 C911 1.460 . S
C907 H913 0.929 . S
N908 Mn901 2.257 . S
N908 C907 1.326 . S
N908 C912 1.362 . S
C909 C910 1.258 . S
C909 C912 1.431 . S
C909 C929 1.449 . S
C910 C909 1.258 . S
C910 C911 1.477 . S
C910 H930 0.931 . S
C911 C907 1.460 . S
C911 C910 1.477 . S
C911 H931 0.930 . S
C912 N908 1.362 . S
C912 C909 1.431 . S
C912 C922 1.476 . S
H913 C907 0.929 . S
C914 O905 1.250 . S
C914 O906 1.258 . S
O915 Mn900 2.162 . S
O915 C903 1.281 . S
O916 Mn900 2.297 . S
O916 C903 1.236 . S
N917 Mn901 2.282 . S
N917 C918 1.328 . S
N917 C922 1.318 . S
C918 N917 1.328 . S
C918 C919 1.457 . S
C918 H923 0.929 . S
C919 C918 1.457 . S
C919 C920 1.291 . S
C919 H932 0.931 1_545 S
C920 C919 1.291 . S
C920 C921 1.373 . S
C920 H933 0.929 1_545 S
C921 C920 1.373 . S
C921 C922 1.396 . S
C921 C928 1.403 . S
C922 C912 1.476 . S
C922 N917 1.318 . S
C922 C921 1.396 . S
H923 C918 0.929 . S
O924 Mn900 2.385 . S
O924 C902 1.234 . S
O925 Mn900 2.209 . S
O925 Mn901 2.215 . S
O925 C902 1.283 . S
O926 Mn900 2.094 . S
O926 C904 1.240 . S
O927 Mn901 2.117 . S
O927 C904 1.264 . S
C928 C921 1.403 . S
C928 C929 1.399 . S
C928 H934 0.929 1_545 S
C929 C909 1.449 . S
C929 C928 1.399 . S
C929 H935 0.930 . S
H930 C910 0.931 . S
H931 C911 0.930 . S
H932 C919 0.931 1_565 S
H933 C920 0.929 1_565 S
H934 C928 0.929 1_565 S
H935 C929 0.930 . S
Mn936 O941 2.095 . S
Mn936 O951 2.162 . S
Mn936 O952 2.297 . S
Mn936 O960 2.385 . S
Mn936 O961 2.209 . S
Mn936 O962 2.094 . S
Mn937 O942 2.121 . S
Mn937 N944 2.257 1_554 S
Mn937 N953 2.282 . S
Mn937 O961 2.215 . S
Mn937 O963 2.117 . S
C938 O960 1.234 . S
C938 O961 1.283 . S
C939 O951 1.281 . S
C939 O952 1.236 . S
C940 O962 1.240 . S
C940 O963 1.264 . S
O941 Mn936 2.095 . S
O941 C950 1.250 . S
O942 Mn937 2.121 . S
O942 C950 1.258 . S
C943 N944 1.326 . S
C943 C947 1.460 . S
C943 H949 0.929 . S
N944 Mn937 2.257 1_556 S
N944 C943 1.326 . S
N944 C948 1.362 . S
C945 C946 1.258 . S
C945 C948 1.431 . S
C945 C965 1.449 . S
C946 C945 1.258 . S
C946 C947 1.477 . S
C946 H966 0.931 . S
C947 C943 1.460 . S
C947 C946 1.477 . S
C947 H967 0.930 . S
C948 N944 1.362 . S
C948 C945 1.431 . S
C948 C958 1.476 . S
H949 C943 0.929 . S
C950 O941 1.250 . S
C950 O942 1.258 . S
O951 Mn936 2.162 . S
O951 C939 1.281 . S
O952 Mn936 2.297 . S
O952 C939 1.236 . S
N953 Mn937 2.282 . S
N953 C954 1.328 . S
N953 C958 1.318 1_554 S
C954 N953 1.328 . S
C954 C955 1.457 . S
C954 H959 0.929 . S
C955 C954 1.457 . S
C955 C956 1.291 1_554 S
C955 H968 0.931 1_545 S
C956 C955 1.291 1_556 S
C956 C957 1.373 . S
C956 H969 0.929 1_545 S
C957 C956 1.373 . S
C957 C958 1.396 . S
C957 C964 1.403 . S
C958 C948 1.476 . S
C958 N953 1.318 1_556 S
C958 C957 1.396 . S
H959 C954 0.929 . S
O960 Mn936 2.385 . S
O960 C938 1.234 . S
O961 Mn936 2.209 . S
O961 Mn937 2.215 . S
O961 C938 1.283 . S
O962 Mn936 2.094 . S
O962 C940 1.240 . S
O963 Mn937 2.117 . S
O963 C940 1.264 . S
C964 C957 1.403 . S
C964 C965 1.399 . S
C964 H970 0.929 1_545 S
C965 C945 1.449 . S
C965 C964 1.399 . S
C965 H971 0.930 . S
H966 C946 0.931 . S
H967 C947 0.930 . S
H968 C955 0.931 1_565 S
H969 C956 0.929 1_565 S
H970 C964 0.929 1_565 S
H971 C965 0.930 . S
Mn972 O977 2.095 . S
Mn972 O987 2.162 . S
Mn972 O988 2.297 . S
Mn972 O996 2.385 1_565 S
Mn972 O997 2.209 . S
Mn972 O998 2.094 . S
Mn973 O978 2.121 . S
Mn973 N980 2.257 1_554 S
Mn973 N989 2.282 1_565 S
Mn973 O997 2.215 . S
Mn973 O999 2.117 . S
C974 O996 1.234 . S
C974 O997 1.283 1_545 S
C975 O987 1.281 . S
C975 O988 1.236 . S
C976 O998 1.240 . S
C976 O999 1.264 . S
O977 Mn972 2.095 . S
O977 C986 1.250 . S
O978 Mn973 2.121 . S
O978 C986 1.258 . S
C979 N980 1.326 . S
C979 C983 1.460 . S
C979 H985 0.929 . S
N980 Mn973 2.257 1_556 S
N980 C979 1.326 . S
N980 C984 1.362 1_565 S
C981 C982 1.258 1_545 S
C981 C984 1.431 . S
C981 C1001 1.449 . S
C982 C981 1.258 1_565 S
C982 C983 1.477 . S
C982 H1002 0.931 . S
C983 C979 1.460 . S
C983 C982 1.477 . S
C983 H1003 0.930 . S
C984 N980 1.362 1_545 S
C984 C981 1.431 . S
C984 C994 1.476 . S
H985 C979 0.929 . S
C986 O977 1.250 . S
C986 O978 1.258 . S
O987 Mn972 2.162 . S
O987 C975 1.281 . S
O988 Mn972 2.297 . S
O988 C975 1.236 . S
N989 Mn973 2.282 1_545 S
N989 C990 1.328 . S
N989 C994 1.318 1_554 S
C990 N989 1.328 . S
C990 C991 1.457 . S
C990 H995 0.929 . S
C991 C990 1.457 . S
C991 C992 1.291 1_554 S
C991 H1004 0.931 . S
C992 C991 1.291 1_556 S
C992 C993 1.373 . S
C992 H1005 0.929 . S
C993 C992 1.373 . S
C993 C994 1.396 . S
C993 C1000 1.403 . S
C994 C984 1.476 . S
C994 N989 1.318 1_556 S
C994 C993 1.396 . S
H995 C990 0.929 . S
O996 Mn972 2.385 1_545 S
O996 C974 1.234 . S
O997 Mn972 2.209 . S
O997 Mn973 2.215 . S
O997 C974 1.283 1_565 S
O998 Mn972 2.094 . S
O998 C976 1.240 . S
O999 Mn973 2.117 . S
O999 C976 1.264 . S
C1000 C993 1.403 . S
C1000 C1001 1.399 . S
C1000 H1006 0.929 . S
C1001 C981 1.449 . S
C1001 C1000 1.399 . S
C1001 H1007 0.930 . S
H1002 C982 0.931 . S
H1003 C983 0.930 . S
H1004 C991 0.931 . S
H1005 C992 0.929 . S
H1006 C1000 0.929 . S
H1007 C1001 0.930 . S
Mn1008 O1013 2.095 . S
Mn1008 O1023 2.162 . S
Mn1008 O1024 2.297 . S
Mn1008 O1032 2.385 . S
Mn1008 O1033 2.209 . S
Mn1008 O1034 2.094 1_545 S
Mn1009 O1014 2.121 . S
Mn1009 N1016 2.257 . S
Mn1009 N1025 2.282 . S
Mn1009 O1033 2.215 1_565 S
Mn1009 O1035 2.117 . S
C1010 O1032 1.234 . S
C1010 O1033 1.283 . S
C1011 O1023 1.281 . S
C1011 O1024 1.236 . S
C1012 O1034 1.240 . S
C1012 O1035 1.264 . S
O1013 Mn1008 2.095 . S
O1013 C1022 1.250 . S
O1014 Mn1009 2.121 . S
O1014 C1022 1.258 1_565 S
C1015 N1016 1.326 1_554 S
C1015 C1019 1.460 . S
C1015 H1021 0.929 . S
N1016 Mn1009 2.257 . S
N1016 C1015 1.326 1_556 S
N1016 C1020 1.362 . S
C1017 C1018 1.258 . S
C1017 C1020 1.431 1_554 S
C1017 C1037 1.449 1_554 S
C1018 C1017 1.258 . S
C1018 C1019 1.477 . S
C1018 H1038 0.931 . S
C1019 C1015 1.460 . S
C1019 C1018 1.477 . S
C1019 H1039 0.930 . S
C1020 N1016 1.362 . S
C1020 C1017 1.431 1_556 S
C1020 C1030 1.476 . S
H1021 C1015 0.929 . S
C1022 O1013 1.250 . S
C1022 O1014 1.258 1_545 S
O1023 Mn1008 2.162 . S
O1023 C1011 1.281 . S
O1024 Mn1008 2.297 . S
O1024 C1011 1.236 . S
N1025 Mn1009 2.282 . S
N1025 C1026 1.328 . S
N1025 C1030 1.318 . S
C1026 N1025 1.328 . S
C1026 C1027 1.457 . S
C1026 H1031 0.929 . S
C1027 C1026 1.457 . S
C1027 C1028 1.291 . S
C1027 H1040 0.931 . S
C1028 C1027 1.291 . S
C1028 C1029 1.373 . S
C1028 H1041 0.929 . S
C1029 C1028 1.373 . S
C1029 C1030 1.396 . S
C1029 C1036 1.403 . S
C1030 C1020 1.476 . S
C1030 N1025 1.318 . S
C1030 C1029 1.396 . S
H1031 C1026 0.929 . S
O1032 Mn1008 2.385 . S
O1032 C1010 1.234 . S
O1033 Mn1008 2.209 . S
O1033 Mn1009 2.215 1_545 S
O1033 C1010 1.283 . S
O1034 Mn1008 2.094 1_565 S
O1034 C1012 1.240 . S
O1035 Mn1009 2.117 . S
O1035 C1012 1.264 . S
C1036 C1029 1.403 . S
C1036 C1037 1.399 . S
C1036 H1042 0.929 . S
C1037 C1017 1.449 1_556 S
C1037 C1036 1.399 . S
C1037 H1043 0.930 1_556 S
H1038 C1018 0.931 . S
H1039 C1019 0.930 . S
H1040 C1027 0.931 . S
H1041 C1028 0.929 . S
H1042 C1036 0.929 . S
H1043 C1037 0.930 1_554 S
Mn1044 O1049 2.095 . S
Mn1044 O1059 2.162 . S
Mn1044 O1060 2.297 . S
Mn1044 O1068 2.385 . S
Mn1044 O1069 2.209 . S
Mn1044 O1070 2.094 . S
Mn1045 O1050 2.121 . S
Mn1045 N1052 2.257 . S
Mn1045 N1061 2.282 . S
Mn1045 O1069 2.215 . S
Mn1045 O1071 2.117 . S
C1046 O1068 1.234 . S
C1046 O1069 1.283 . S
C1047 O1059 1.281 . S
C1047 O1060 1.236 . S
C1048 O1070 1.240 . S
C1048 O1071 1.264 . S
O1049 Mn1044 2.095 . S
O1049 C1058 1.250 . S
O1050 Mn1045 2.121 . S
O1050 C1058 1.258 . S
C1051 N1052 1.326 1_554 S
C1051 C1055 1.460 . S
C1051 H1057 0.929 . S
N1052 Mn1045 2.257 . S
N1052 C1051 1.326 1_556 S
N1052 C1056 1.362 . S
C1053 C1054 1.258 . S
C1053 C1056 1.431 1_554 S
C1053 C1073 1.449 1_554 S
C1054 C1053 1.258 . S
C1054 C1055 1.477 . S
C1054 H1074 0.931 . S
C1055 C1051 1.460 . S
C1055 C1054 1.477 . S
C1055 H1075 0.930 . S
C1056 N1052 1.362 . S
C1056 C1053 1.431 1_556 S
C1056 C1066 1.476 . S
H1057 C1051 0.929 . S
C1058 O1049 1.250 . S
C1058 O1050 1.258 . S
O1059 Mn1044 2.162 . S
O1059 C1047 1.281 . S
O1060 Mn1044 2.297 . S
O1060 C1047 1.236 . S
N1061 Mn1045 2.282 . S
N1061 C1062 1.328 . S
N1061 C1066 1.318 . S
C1062 N1061 1.328 . S
C1062 C1063 1.457 . S
C1062 H1067 0.929 . S
C1063 C1062 1.457 . S
C1063 C1064 1.291 . S
C1063 H1076 0.931 . S
C1064 C1063 1.291 . S
C1064 C1065 1.373 . S
C1064 H1077 0.929 . S
C1065 C1064 1.373 . S
C1065 C1066 1.396 . S
C1065 C1072 1.403 . S
C1066 C1056 1.476 . S
C1066 N1061 1.318 . S
C1066 C1065 1.396 . S
H1067 C1062 0.929 . S
O1068 Mn1044 2.385 . S
O1068 C1046 1.234 . S
O1069 Mn1044 2.209 . S
O1069 Mn1045 2.215 . S
O1069 C1046 1.283 . S
O1070 Mn1044 2.094 . S
O1070 C1048 1.240 . S
O1071 Mn1045 2.117 . S
O1071 C1048 1.264 . S
C1072 C1065 1.403 . S
C1072 C1073 1.399 . S
C1072 H1078 0.929 . S
C1073 C1053 1.449 1_556 S
C1073 C1072 1.399 . S
C1073 H1079 0.930 1_556 S
H1074 C1054 0.931 . S
H1075 C1055 0.930 . S
H1076 C1063 0.931 . S
H1077 C1064 0.929 . S
H1078 C1072 0.929 . S
H1079 C1073 0.930 1_554 S
Mn1080 O1085 2.095 . S
Mn1080 O1095 2.162 . S
Mn1080 O1096 2.297 . S
Mn1080 O1104 2.385 . S
Mn1080 O1105 2.209 . S
Mn1080 O1106 2.094 . S
Mn1081 O1086 2.121 . S
Mn1081 N1088 2.257 . S
Mn1081 N1097 2.282 . S
Mn1081 O1105 2.215 . S
Mn1081 O1107 2.117 . S
C1082 O1104 1.234 . S
C1082 O1105 1.283 . S
C1083 O1095 1.281 . S
C1083 O1096 1.236 . S
C1084 O1106 1.240 . S
C1084 O1107 1.264 . S
O1085 Mn1080 2.095 . S
O1085 C1094 1.250 . S
O1086 Mn1081 2.121 . S
O1086 C1094 1.258 . S
C1087 N1088 1.326 . S
C1087 C1091 1.460 . S
C1087 H1093 0.929 . S
N1088 Mn1081 2.257 . S
N1088 C1087 1.326 . S
N1088 C1092 1.362 . S
C1089 C1090 1.258 . S
C1089 C1092 1.431 . S
C1089 C1109 1.449 . S
C1090 C1089 1.258 . S
C1090 C1091 1.477 . S
C1090 H1110 0.931 . S
C1091 C1087 1.460 . S
C1091 C1090 1.477 . S
C1091 H1111 0.930 . S
C1092 N1088 1.362 . S
C1092 C1089 1.431 . S
C1092 C1102 1.476 . S
H1093 C1087 0.929 . S
C1094 O1085 1.250 . S
C1094 O1086 1.258 . S
O1095 Mn1080 2.162 . S
O1095 C1083 1.281 . S
O1096 Mn1080 2.297 . S
O1096 C1083 1.236 . S
N1097 Mn1081 2.282 . S
N1097 C1098 1.328 . S
N1097 C1102 1.318 . S
C1098 N1097 1.328 . S
C1098 C1099 1.457 . S
C1098 H1103 0.929 . S
C1099 C1098 1.457 . S
C1099 C1100 1.291 . S
C1099 H1112 0.931 . S
C1100 C1099 1.291 . S
C1100 C1101 1.373 . S
C1100 H1113 0.929 . S
C1101 C1100 1.373 . S
C1101 C1102 1.396 . S
C1101 C1108 1.403 . S
C1102 C1092 1.476 . S
C1102 N1097 1.318 . S
C1102 C1101 1.396 . S
H1103 C1098 0.929 . S
O1104 Mn1080 2.385 . S
O1104 C1082 1.234 . S
O1105 Mn1080 2.209 . S
O1105 Mn1081 2.215 . S
O1105 C1082 1.283 . S
O1106 Mn1080 2.094 . S
O1106 C1084 1.240 . S
O1107 Mn1081 2.117 . S
O1107 C1084 1.264 . S
C1108 C1101 1.403 . S
C1108 C1109 1.399 . S
C1108 H1114 0.929 . S
C1109 C1089 1.449 . S
C1109 C1108 1.399 . S
C1109 H1115 0.930 . S
H1110 C1090 0.931 . S
H1111 C1091 0.930 . S
H1112 C1099 0.931 . S
H1113 C1100 0.929 . S
H1114 C1108 0.929 . S
H1115 C1109 0.930 . S
Mn1116 O1121 2.095 . S
Mn1116 O1131 2.162 . S
Mn1116 O1132 2.297 . S
Mn1116 O1140 2.385 . S
Mn1116 O1141 2.209 . S
Mn1116 O1142 2.094 1_545 S
Mn1117 O1122 2.121 . S
Mn1117 N1124 2.257 . S
Mn1117 N1133 2.282 . S
Mn1117 O1141 2.215 1_565 S
Mn1117 O1143 2.117 . S
C1118 O1140 1.234 . S
C1118 O1141 1.283 . S
C1119 O1131 1.281 . S
C1119 O1132 1.236 . S
C1120 O1142 1.240 . S
C1120 O1143 1.264 . S
O1121 Mn1116 2.095 . S
O1121 C1130 1.250 . S
O1122 Mn1117 2.121 . S
O1122 C1130 1.258 1_565 S
C1123 N1124 1.326 . S
C1123 C1127 1.460 . S
C1123 H1129 0.929 . S
N1124 Mn1117 2.257 . S
N1124 C1123 1.326 . S
N1124 C1128 1.362 . S
C1125 C1126 1.258 . S
C1125 C1128 1.431 . S
C1125 C1145 1.449 . S
C1126 C1125 1.258 . S
C1126 C1127 1.477 . S
C1126 H1146 0.931 . S
C1127 C1123 1.460 . S
C1127 C1126 1.477 . S
C1127 H1147 0.930 . S
C1128 N1124 1.362 . S
C1128 C1125 1.431 . S
C1128 C1138 1.476 . S
H1129 C1123 0.929 . S
C1130 O1121 1.250 . S
C1130 O1122 1.258 1_545 S
O1131 Mn1116 2.162 . S
O1131 C1119 1.281 . S
O1132 Mn1116 2.297 . S
O1132 C1119 1.236 . S
N1133 Mn1117 2.282 . S
N1133 C1134 1.328 . S
N1133 C1138 1.318 . S
C1134 N1133 1.328 . S
C1134 C1135 1.457 . S
C1134 H1139 0.929 . S
C1135 C1134 1.457 . S
C1135 C1136 1.291 . S
C1135 H1148 0.931 . S
C1136 C1135 1.291 . S
C1136 C1137 1.373 . S
C1136 H1149 0.929 . S
C1137 C1136 1.373 . S
C1137 C1138 1.396 . S
C1137 C1144 1.403 . S
C1138 C1128 1.476 . S
C1138 N1133 1.318 . S
C1138 C1137 1.396 . S
H1139 C1134 0.929 . S
O1140 Mn1116 2.385 . S
O1140 C1118 1.234 . S
O1141 Mn1116 2.209 . S
O1141 Mn1117 2.215 1_545 S
O1141 C1118 1.283 . S
O1142 Mn1116 2.094 1_565 S
O1142 C1120 1.240 . S
O1143 Mn1117 2.117 . S
O1143 C1120 1.264 . S
C1144 C1137 1.403 . S
C1144 C1145 1.399 . S
C1144 H1150 0.929 . S
C1145 C1125 1.449 . S
C1145 C1144 1.399 . S
C1145 H1151 0.930 . S
H1146 C1126 0.931 . S
H1147 C1127 0.930 . S
H1148 C1135 0.931 . S
H1149 C1136 0.929 . S
H1150 C1144 0.929 . S
H1151 C1145 0.930 . S
C74 C2 1.335 . S
C38 C110 1.334 . S
C220 C148 0.943 . S
C256 C184 0.942 . S
C290 C362 1.335 . S
C398 C326 1.334 . S
C436 C508 0.943 . S
C472 C544 0.942 . S
C650 C578 1.334 . S
C614 C686 1.334 . S
C724 C796 0.942 . S
C832 C760 0.943 . S
C938 C866 1.334 . S
C974 C902 1.334 . S
C1084 C1012 0.942 . S
C1048 C1120 0.943 . S
C158 C3 1.653 1_656 S
C1058 C39 1.654 1_556 S
C75 C518 1.653 1_455 S
C111 C842 1.654 . S
C194 C903 1.654 1_556 S
C230 C363 1.653 1_655 S
C687 C266 1.654 . S
C446 C291 1.653 1_645 S
C770 C327 1.654 . S
C399 C1130 1.654 1_565 S
C482 C615 1.654 . S
C975 C554 1.654 1_565 S
C734 C579 1.653 . S
C651 C1094 1.653 . S
C806 C939 1.653 . S
C1022 C867 1.653 1_546 S
C112 C4 1.517 . S
C76 C40 1.517 . S
C254 C146 1.418 . S
C218 C182 1.418 . S
C400 C292 1.517 . S
C364 C328 1.517 . S
C542 C434 1.418 . S
C506 C470 1.418 . S
C580 C688 1.517 . S
C652 C616 1.517 . S
C722 C830 1.418 . S
C794 C758 1.418 . S
C976 C868 1.517 . S
C904 C940 1.517 . S
C1010 C1118 1.418 . S
C1082 C1046 1.418 . S
C86 C14 2.137 . S
C50 C122 2.137 . S
C147 C219 1.262 . S
C183 C255 1.262 . S
C302 C374 2.137 . S
C338 C410 2.137 . S
C507 C435 1.262 . S
C543 C471 1.262 . S
C662 C590 2.137 . S
C698 C626 2.137 . S
C723 C795 1.262 . S
C831 C759 1.262 . S
C950 C878 2.137 . S
C914 C986 2.137 . S
C1011 C1083 1.262 . S
C1119 C1047 1.262 . S
