# Generated by pormake.
# Topology uoj, (4)-cn, num edge types: 1
# Building blocks:
#     Node 0, Type 0, BuildingBlock: KUFVIS_clean_sbu_0, # of connection points: 4
#     Node 1, Type 0, BuildingBlock: KUFVIS_clean_sbu_0, # of connection points: 4
#     Node 2, Type 0, BuildingBlock: KUFVIS_clean_sbu_0, # of connection points: 4
#     Node 3, Type 0, BuildingBlock: KUFVIS_clean_sbu_0, # of connection points: 4
#     Node 4, Type 0, BuildingBlock: KUFVIS_clean_sbu_0, # of connection points: 4
#     Node 5, Type 0, BuildingBlock: KUFVIS_clean_sbu_0, # of connection points: 4
#     Node 6, Type 0, BuildingBlock: KUFVIS_clean_sbu_0, # of connection points: 4
#     Node 7, Type 0, BuildingBlock: KUFVIS_clean_sbu_0, # of connection points: 4
#     Edge 8, Type (0, 0), BuildingBlock: XUDNAN_clean_linker_2, # of connection points: 2
#     Edge 9, Type (0, 0), BuildingBlock: XUDNAN_clean_linker_2, # of connection points: 2
#     Edge 10, Type (0, 0), BuildingBlock: XUDNAN_clean_linker_2, # of connection points: 2
#     Edge 11, Type (0, 0), BuildingBlock: XUDNAN_clean_linker_2, # of connection points: 2
#     Edge 12, Type (0, 0), BuildingBlock: XUDNAN_clean_linker_2, # of connection points: 2
#     Edge 13, Type (0, 0), BuildingBlock: XUDNAN_clean_linker_2, # of connection points: 2
#     Edge 14, Type (0, 0), BuildingBlock: XUDNAN_clean_linker_2, # of connection points: 2
#     Edge 15, Type (0, 0), BuildingBlock: XUDNAN_clean_linker_2, # of connection points: 2
#     Edge 16, Type (0, 0), BuildingBlock: XUDNAN_clean_linker_2, # of connection points: 2
#     Edge 17, Type (0, 0), BuildingBlock: XUDNAN_clean_linker_2, # of connection points: 2
#     Edge 18, Type (0, 0), BuildingBlock: XUDNAN_clean_linker_2, # of connection points: 2
#     Edge 19, Type (0, 0), BuildingBlock: XUDNAN_clean_linker_2, # of connection points: 2
#     Edge 20, Type (0, 0), BuildingBlock: XUDNAN_clean_linker_2, # of connection points: 2
#     Edge 21, Type (0, 0), BuildingBlock: XUDNAN_clean_linker_2, # of connection points: 2
#     Edge 22, Type (0, 0), BuildingBlock: XUDNAN_clean_linker_2, # of connection points: 2
#     Edge 23, Type (0, 0), BuildingBlock: XUDNAN_clean_linker_2, # of connection points: 2
# Relax obj value: 0.138
# Max RMSD: 0.160
# Mean RMSD: 0.160
data_MOF--net-uoj--node1-KUFVIS_clean_sbu_0--edge1-XUDNAN_clean_linker_2
_symmetry_space_group_name_H-M    P1
_symmetry_Int_Tables_number       1
_symmetry_cell_setting            triclinic
loop_
_symmetry_equiv_pos_as_xyz
'x, y, z'
_cell_length_a     32.658301
_cell_length_b     32.646876
_cell_length_c     35.843424
_cell_angle_alpha  89.964247
_cell_angle_beta   89.949123
_cell_angle_gamma 89.746869
loop_
_atom_site_label
_atom_site_type_symbol
_atom_site_fract_x
_atom_site_fract_y
_atom_site_fract_z
_atom_type_partial_charge
Mn0 Mn 0.07785 0.31468 0.43288 0.0
Mn1 Mn 0.07761 0.32015 0.5271 0.0
C2 C 0.04856 0.37002 0.46118 0.0
C3 C 0.10985 0.32118 0.37519 0.0
C4 C 0.01384 0.27393 0.48398 0.0
O5 O 0.11808 0.27106 0.44795 0.0
O6 O 0.11395 0.27384 0.51037 0.0
C7 C 0.16399 0.34673 0.53299 0.0
N8 N 0.12348 0.35369 0.53965 0.0
C9 C 0.1379 0.41931 0.56717 0.0
C10 C 0.17977 0.41273 0.56076 0.0
C11 C 0.19285 0.3763 0.54356 0.0
C12 C 0.11054 0.38886 0.55581 0.0
H13 H 0.17425 0.31893 0.51958 0.0
C14 C 0.12794 0.25817 0.48015 0.0
O15 O 0.08065 0.2951 0.38076 0.0
O16 O 0.12072 0.34388 0.40323 0.0
N17 N 0.04486 0.36276 0.54868 0.0
C18 C 0.00398 0.36242 0.55643 0.0
C19 C 0.98605 0.3962 0.57452 0.0
C20 C 0.01049 0.4294 0.5854 0.0
C21 C 0.05284 0.42793 0.57911 0.0
C22 C 0.06898 0.39343 0.56101 0.0
H23 H 0.98509 0.33686 0.54834 0.0
O24 O 0.04023 0.3615 0.42666 0.0
O25 O 0.07624 0.34733 0.47773 0.0
O26 O 0.03036 0.28015 0.45218 0.0
O27 O 0.02869 0.28712 0.51475 0.0
C28 C 0.07978 0.45898 0.59073 0.0
C29 C 0.12226 0.4548 0.58454 0.0
H30 H 0.20213 0.43541 0.56896 0.0
H31 H 0.22511 0.37104 0.53842 0.0
H32 H 0.95345 0.39668 0.57996 0.0
H33 H 0.99653 0.45548 0.59918 0.0
H34 H 0.06817 0.4861 0.60464 0.0
H35 H 0.14266 0.47889 0.59359 0.0
Mn36 Mn 0.30539 0.93161 0.56657 0.0
Mn37 Mn 0.32981 0.93064 0.4753 0.0
C38 C 0.36974 0.95189 0.54779 0.0
C39 C 0.30314 0.89288 0.62132 0.0
C40 C 0.2797 0.99883 0.5117 0.0
O41 O 0.25927 0.89851 0.54388 0.0
O42 O 0.28095 0.89614 0.48443 0.0
C43 C 0.35435 0.84341 0.4704 0.0
N44 N 0.36342 0.88376 0.46563 0.0
C45 C 0.43095 0.86724 0.44321 0.0
C46 C 0.42223 0.82549 0.44759 0.0
C47 C 0.38379 0.81355 0.46132 0.0
C48 C 0.40037 0.8956 0.45264 0.0
H49 H 0.32493 0.83409 0.48113 0.0
C50 C 0.25579 0.88635 0.51031 0.0
O51 O 0.28118 0.9261 0.61813 0.0
O52 O 0.32526 0.88254 0.593 0.0
N53 N 0.37675 0.96222 0.46182 0.0
C54 C 0.38055 0.0037 0.45985 0.0
C55 C 0.41716 0.02069 0.44653 0.0
C56 C 0.44944 0.99486 0.43548 0.0
C57 C 0.44469 0.9523 0.43733 0.0
C58 C 0.40723 0.93713 0.45018 0.0
H59 H 0.356 0.02369 0.4686 0.0
O60 O 0.35613 0.96159 0.58056 0.0
O61 O 0.34589 0.92923 0.52751 0.0
O62 O 0.28002 0.98512 0.5453 0.0
O63 O 0.29643 0.98005 0.48421 0.0
C64 C 0.47576 0.92435 0.42722 0.0
C65 C 0.46894 0.88184 0.43029 0.0
H66 H 0.4449 0.80237 0.44074 0.0
H67 H 0.3769 0.7814 0.46498 0.0
H68 H 0.42051 0.0536 0.44491 0.0
H69 H 0.47772 0.00797 0.42557 0.0
H70 H 0.50512 0.93519 0.41734 0.0
H71 H 0.49319 0.86065 0.42278 0.0
Mn72 Mn 0.93087 0.70068 0.42832 0.0
Mn73 Mn 0.92988 0.69846 0.52265 0.0
C74 C 0.94839 0.64156 0.45875 0.0
C75 C 0.89917 0.69752 0.37028 0.0
C76 C -0.00049 0.73411 0.47805 0.0
O77 O 0.89933 0.75165 0.4421 0.0
O78 O 0.89924 0.74805 0.50476 0.0
C79 C 0.84111 0.68309 0.53143 0.0
N80 N 0.88065 0.67148 0.53753 0.0
C81 C 0.85913 0.60994 0.5688 0.0
C82 C 0.81819 0.62138 0.56305 0.0
C83 C 0.80915 0.6581 0.54426 0.0
C84 C 0.88967 0.63612 0.55546 0.0
H85 H 0.83401 0.71112 0.51675 0.0
C86 C 0.88987 0.76591 0.47403 0.0
O87 O 0.93241 0.71824 0.37557 0.0
O88 O 0.8837 0.67873 0.39899 0.0
N89 N 0.95784 0.65269 0.54445 0.0
C90 C 0.9989 0.64667 0.54866 0.0
C91 C 0.01311 0.61151 0.56725 0.0
C92 C 0.98502 0.58306 0.58152 0.0
C93 C 0.9429 0.59055 0.57786 0.0
C94 C 0.93054 0.62643 0.55952 0.0
H95 H 0.02067 0.66837 0.53767 0.0
O96 O 0.95922 0.64725 0.42429 0.0
O97 O 0.92584 0.67005 0.47411 0.0
O98 O 0.98344 0.7269 0.44641 0.0
O99 O 0.98224 0.72542 0.50908 0.0
C100 C 0.91269 0.56379 0.59158 0.0
C101 C 0.87084 0.57343 0.58697 0.0
H102 H 0.79345 0.60213 0.5728 0.0
H103 H 0.77762 0.66705 0.53957 0.0
H104 H 0.04566 0.60627 0.57043 0.0
H105 H 0.99611 0.55571 0.59543 0.0
H106 H 0.92132 0.53567 0.60564 0.0
H107 H 0.84789 0.55253 0.59752 0.0
Mn108 Mn 0.70576 0.08347 0.5769 0.0
Mn109 Mn 0.68258 0.08716 0.48524 0.0
C110 C 0.64628 0.05364 0.55586 0.0
C111 C 0.70222 0.11863 0.63367 0.0
C112 C 0.74188 0.02498 0.51841 0.0
O113 O 0.74727 0.12406 0.55671 0.0
O114 O 0.72634 0.12673 0.49722 0.0
C115 C 0.64645 0.17036 0.48671 0.0
N116 N 0.64301 0.12976 0.47867 0.0
C117 C 0.57544 0.13963 0.45363 0.0
C118 C 0.57825 0.18159 0.46149 0.0
C119 C 0.61382 0.19698 0.47834 0.0
C120 C 0.60852 0.11445 0.46346 0.0
H121 H 0.6739 0.18234 0.49935 0.0
C122 C 0.75 0.13794 0.52363 0.0
O123 O 0.72878 0.08924 0.62885 0.0
O124 O 0.67867 0.1273 0.60583 0.0
N125 N 0.64089 0.05095 0.46785 0.0
C126 C 0.64432 0.01034 0.45956 0.0
C127 C 0.61157 0.99025 0.44213 0.0
C128 C 0.57636 0.01245 0.43202 0.0
C129 C 0.57432 0.05462 0.43919 0.0
C130 C 0.6076 0.07282 0.45723 0.0
H131 H 0.67179 0.99338 0.46634 0.0
O132 O 0.66027 0.04525 0.58877 0.0
O133 O 0.66594 0.08145 0.53711 0.0
O134 O 0.73894 0.03592 0.55279 0.0
O135 O 0.72243 0.04239 0.49164 0.0
C136 C 0.54119 0.07958 0.42808 0.0
C137 C 0.54145 0.12192 0.43581 0.0
H138 H 0.55337 0.20229 0.45458 0.0
H139 H 0.61624 0.22931 0.48454 0.0
H140 H 0.61368 0.95784 0.43606 0.0
H141 H 0.55152 0.99697 0.41802 0.0
H142 H 0.51534 0.06666 0.41346 0.0
H143 H 0.51558 0.14066 0.42746 0.0
Mn144 Mn 0.42563 0.7903 0.92243 0.0
Mn145 Mn 0.41038 0.80609 0.01438 0.0
C146 C 0.45365 0.84649 0.94994 0.0
C147 C 0.39948 0.79671 0.86225 0.0
C148 C 0.47576 0.74863 0.98445 0.0
O149 O 0.3811 0.75057 0.93533 0.0
O150 O 0.37181 0.763 0.99633 0.0
C151 C 0.32793 0.84322 0.0072 0.0
N152 N 0.36753 0.84584 0.01882 0.0
C153 C 0.35628 0.91364 0.04312 0.0
C154 C 0.31532 0.91159 0.03162 0.0
C155 C 0.30113 0.87628 0.01345 0.0
C156 C 0.38167 0.87993 0.03574 0.0
H157 H 0.3169 0.81615 0.99322 0.0
C158 C 0.36331 0.74382 0.96619 0.0
O159 O 0.4266 0.76872 0.87022 0.0
O160 O 0.38797 0.82068 0.88905 0.0
N161 N 0.44474 0.84651 0.03681 0.0
C162 C 0.48457 0.84286 0.04769 0.0
C163 C 0.50348 0.87558 0.06626 0.0
C164 C 0.48094 0.91121 0.0744 0.0
C165 C 0.43952 0.91356 0.06435 0.0
C166 C 0.42243 0.88013 0.04562 0.0
H167 H 0.50191 0.81535 0.04187 0.0
O168 O 0.46661 0.8342 0.91761 0.0
O169 O 0.42266 0.82691 0.96432 0.0
O170 O 0.46822 0.75387 0.94963 0.0
O171 O 0.45563 0.7663 0.01063 0.0
C172 C 0.41436 0.94751 0.07266 0.0
C173 C 0.37286 0.94769 0.0618 0.0
H174 H 0.2945 0.93694 0.03658 0.0
H175 H 0.26959 0.87451 0.00437 0.0
H176 H 0.53532 0.8733 0.07438 0.0
H177 H 0.49558 0.93633 0.08883 0.0
H178 H 0.4266 0.97369 0.08736 0.0
H179 H 0.35394 0.97414 0.06806 0.0
Mn180 Mn 0.80395 0.56445 0.07093 0.0
Mn181 Mn 0.80006 0.559 0.97672 0.0
C182 C 0.85926 0.53924 0.0392 0.0
C183 C 0.81407 0.60333 0.12458 0.0
C184 C 0.76475 0.49377 0.02694 0.0
O185 O 0.75336 0.59692 0.0582 0.0
O186 O 0.75274 0.59212 0.99582 0.0
C187 C 0.81828 0.6468 0.96481 0.0
N188 N 0.82806 0.60666 0.95929 0.0
C189 C 0.88926 0.62481 0.92578 0.0
C190 C 0.87972 0.66634 0.93094 0.0
C191 C 0.84409 0.67737 0.95057 0.0
C192 C 0.86251 0.59573 0.9408 0.0
H193 H 0.79111 0.65545 0.98012 0.0
C194 C 0.73718 0.6043 0.0267 0.0
O195 O 0.79171 0.57052 0.1252 0.0
O196 O 0.8301 0.6136 0.09281 0.0
N197 N 0.84287 0.5286 0.95282 0.0
C198 C 0.84501 0.48748 0.9465 0.0
C199 C 0.87828 0.4713 0.92637 0.0
C200 C 0.90822 0.49769 0.91189 0.0
C201 C 0.90388 0.54011 0.91665 0.0
C202 C 0.87008 0.55441 0.93697 0.0
H203 H 0.82187 0.46713 0.95734 0.0
O204 O 0.85592 0.5338 0.07488 0.0
O205 O 0.8316 0.56253 0.02334 0.0
O206 O 0.77386 0.51139 0.05776 0.0
O207 O 0.77271 0.50873 0.99464 0.0
C208 C 0.93132 0.56881 0.90142 0.0
C209 C 0.92416 0.61113 0.90619 0.0
H210 H 0.89949 0.69001 0.91993 0.0
H211 H 0.83658 0.70936 0.95478 0.0
H212 H 0.88087 0.43859 0.92209 0.0
H213 H 0.93393 0.48511 0.89652 0.0
H214 H 0.95789 0.55867 0.88578 0.0
H215 H 0.94545 0.63291 0.89431 0.0
Mn216 Mn 0.56929 0.18883 0.93757 0.0
Mn217 Mn 0.57225 0.16156 0.02845 0.0
C218 C 0.54695 0.125 0.95564 0.0
C219 C 0.60267 0.19314 0.88003 0.0
C220 C 0.50677 0.21749 0.99583 0.0
O221 O 0.60644 0.23171 0.96051 0.0
O222 O 0.60937 0.20852 0.0196 0.0
C223 C 0.65771 0.13114 0.03074 0.0
N224 N 0.617 0.12469 0.03634 0.0
C225 C 0.62959 0.05607 0.05815 0.0
C226 C 0.6717 0.06206 0.05287 0.0
C227 C 0.68579 0.09973 0.03902 0.0
C228 C 0.60309 0.08853 0.04951 0.0
H229 H 0.66863 0.16001 0.01999 0.0
C230 C 0.61959 0.23381 0.99394 0.0
O231 O 0.57173 0.21679 0.888 0.0
O232 O 0.6146 0.16786 0.9057 0.0
N233 N 0.53797 0.11639 0.04152 0.0
C234 C 0.49634 0.11513 0.04385 0.0
C235 C 0.47726 0.07939 0.05684 0.0
C236 C 0.50115 0.04545 0.06745 0.0
C237 C 0.54392 0.04767 0.0653 0.0
C238 C 0.56124 0.08428 0.05262 0.0
H239 H 0.47784 0.14116 0.0358 0.0
O240 O 0.53564 0.14027 0.92385 0.0
O241 O 0.5717 0.1471 0.97551 0.0
O242 O 0.51908 0.21653 0.96194 0.0
O243 O 0.52493 0.19858 0.02239 0.0
C244 C 0.57004 0.0148 0.07474 0.0
C245 C 0.61284 0.01895 0.07106 0.0
H246 H 0.69344 0.03785 0.05907 0.0
H247 H 0.71822 0.10452 0.03469 0.0
H248 H 0.44422 0.07798 0.05859 0.0
H249 H 0.48636 0.01781 0.07712 0.0
H250 H 0.55751 0.98602 0.08443 0.0
H251 H 0.63257 0.9933 0.07795 0.0
Mn252 Mn 0.1879 0.42659 0.06275 0.0
Mn253 Mn 0.18124 0.40728 0.97051 0.0
C254 C 0.12716 0.43843 0.03254 0.0
C255 C 0.1857 0.3992 0.12278 0.0
C256 C 0.21892 0.4848 0.00221 0.0
O257 O 0.23899 0.39406 0.05178 0.0
O258 O 0.23078 0.37862 0.99118 0.0
C259 C 0.16349 0.31866 0.97606 0.0
N260 N 0.15259 0.35682 0.96421 0.0
C261 C 0.08966 0.33156 0.93822 0.0
C262 C 0.10038 0.29193 0.94987 0.0
C263 C 0.13744 0.28548 0.9689 0.0
C264 C 0.11694 0.3634 0.94599 0.0
H265 H 0.19177 0.3136 0.99099 0.0
C266 C 0.25057 0.37629 0.02201 0.0
O267 O 0.20502 0.43324 0.11626 0.0
O268 O 0.16769 0.38192 0.09482 0.0
N269 N 0.13515 0.43223 0.94633 0.0
C270 C 0.12916 0.47233 0.93714 0.0
C271 C 0.09336 0.48399 0.91815 0.0
C272 C 0.0642 0.45432 0.9086 0.0
C273 C 0.07144 0.41312 0.9176 0.0
C274 C 0.10791 0.40325 0.93615 0.0
H275 H 0.15114 0.49537 0.94479 0.0
O276 O 0.13391 0.45435 0.06508 0.0
O277 O 0.15545 0.41403 0.01948 0.0
O278 O 0.21283 0.47698 0.03681 0.0
O279 O 0.2094 0.4603 0.97571 0.0
C280 C 0.04367 0.38152 0.90927 0.0
C281 C 0.05274 0.34078 0.91963 0.0
H282 H 0.08028 0.26628 0.94456 0.0
H283 H 0.14582 0.25502 0.97816 0.0
H284 H 0.08808 0.51584 0.91119 0.0
H285 H 0.03636 0.46352 0.89442 0.0
H286 H 0.01512 0.38826 0.89514 0.0
H287 H 0.03102 0.3168 0.91331 0.0
H288 H 0.18832 0.43602 0.19223 0.0
H289 H 0.17724 0.3185 0.13675 0.0
H290 H 0.16521 0.28497 0.19717 0.0
H291 H 0.23628 0.39586 0.28071 0.0
H292 H 0.20768 0.4311 0.30947 0.0
H293 H 0.22203 0.44548 0.26268 0.0
H294 H 0.14602 0.46074 0.24725 0.0
H295 H 0.13144 0.44624 0.29381 0.0
H296 H 0.1083 0.4213 0.25429 0.0
H297 H 0.14492 0.26536 0.26043 0.0
H298 H 0.11879 0.26027 0.32474 0.0
H299 H 0.14326 0.3894 0.34186 0.0
C300 C 0.18458 0.40309 0.19312 0.0
C301 C 0.18391 0.37976 0.15992 0.0
C302 C 0.17784 0.33691 0.16188 0.0
C303 C 0.17119 0.31752 0.19609 0.0
C304 C 0.17073 0.34136 0.22822 0.0
C305 C 0.1775 0.38315 0.22728 0.0
C306 C 0.17144 0.40183 0.26572 0.0
C307 C 0.21177 0.41962 0.28052 0.0
C308 C 0.13726 0.43444 0.26521 0.0
C309 C 0.15878 0.36426 0.28786 0.0
C310 C 0.15909 0.32972 0.26559 0.0
C311 C 0.14532 0.29195 0.27843 0.0
C312 C 0.13034 0.28941 0.3149 0.0
C313 C 0.12942 0.32432 0.33823 0.0
C314 C 0.14453 0.36208 0.32478 0.0
H315 H 0.29703 0.91943 0.69407 0.0
H316 H 0.3195 0.81191 0.62597 0.0
H317 H 0.34115 0.77336 0.68165 0.0
H318 H 0.38233 0.90973 0.74864 0.0
H319 H 0.35964 0.92603 0.79205 0.0
H320 H 0.33852 0.94354 0.74852 0.0
H321 H 0.26736 0.91507 0.76679 0.0
H322 H 0.28808 0.89809 0.81079 0.0
H323 H 0.26266 0.86218 0.78057 0.0
H324 H 0.37126 0.75006 0.74179 0.0
H325 H 0.40123 0.74148 0.80471 0.0
H326 H 0.35835 0.8631 0.83467 0.0
C327 C 0.30483 0.8873 0.69128 0.0
C328 C 0.30628 0.8685 0.65587 0.0
C329 C 0.31801 0.82679 0.65295 0.0
C330 C 0.33038 0.80461 0.68441 0.0
C331 C 0.33064 0.82447 0.7187 0.0
C332 C 0.31749 0.86464 0.72257 0.0
C333 C 0.3242 0.87964 0.7621 0.0
C334 C 0.35288 0.91693 0.76284 0.0
C335 C 0.28312 0.8893 0.78119 0.0
C336 C 0.34447 0.84223 0.77924 0.0
C337 C 0.34771 0.81067 0.75379 0.0
C338 C 0.36813 0.7742 0.76228 0.0
C339 C 0.38533 0.76969 0.79793 0.0
C340 C 0.38183 0.80144 0.82457 0.0
C341 C 0.36096 0.83802 0.81503 0.0
H342 H 0.84944 0.637 0.34248 0.0
H343 H 0.91032 0.75026 0.31265 0.0
H344 H 0.8882 0.74179 0.24742 0.0
H345 H 0.87931 0.58292 0.26368 0.0
H346 H 0.83246 0.55461 0.25801 0.0
H347 H 0.8473 0.57234 0.30352 0.0
H348 H 0.77797 0.61045 0.31049 0.0
H349 H 0.76277 0.5926 0.26499 0.0
H350 H 0.76228 0.64665 0.27523 0.0
H351 H 0.86708 0.7177 0.18491 0.0
H352 H 0.84763 0.67942 0.12846 0.0
H353 H 0.8004 0.58109 0.19756 0.0
C354 C 0.85703 0.66054 0.32237 0.0
C355 C 0.8813 0.69445 0.33258 0.0
C356 C 0.89166 0.72411 0.30538 0.0
C357 C 0.87911 0.71966 0.26829 0.0
C358 C 0.8562 0.68536 0.25881 0.0
C359 C 0.84503 0.65634 0.28499 0.0
C360 C 0.82354 0.62052 0.26663 0.0
C361 C 0.84707 0.58023 0.27336 0.0
C362 C 0.77899 0.61739 0.28014 0.0
C363 C 0.82556 0.63342 0.22601 0.0
C364 C 0.84409 0.67117 0.22227 0.0
C365 C 0.85194 0.68842 0.18746 0.0
C366 C 0.84093 0.66635 0.15555 0.0
C367 C 0.82232 0.62741 0.15863 0.0
C368 C 0.81402 0.61108 0.19437 0.0
H369 H 0.6525 0.13408 0.85005 0.0
H370 H 0.59579 0.25146 0.82546 0.0
H371 H 0.62446 0.24886 0.76165 0.0
H372 H 0.74597 0.14743 0.79198 0.0
H373 H 0.74584 0.09468 0.77714 0.0
H374 H 0.72596 0.10834 0.82242 0.0
H375 H 0.65706 0.07355 0.8063 0.0
H376 H 0.67672 0.05973 0.76113 0.0
H377 H 0.62992 0.08893 0.76477 0.0
H378 H 0.6527 0.23058 0.69946 0.0
H379 H 0.67533 0.19649 0.64171 0.0
H380 H 0.71358 0.09009 0.70547 0.0
C381 C 0.64694 0.15971 0.83151 0.0
C382 C 0.62225 0.19323 0.84279 0.0
C383 C 0.61477 0.22563 0.81744 0.0
C384 C 0.63112 0.22449 0.78124 0.0
C385 C 0.65484 0.19072 0.77082 0.0
C386 C 0.66269 0.15884 0.79515 0.0
C387 C 0.6856 0.12427 0.77582 0.0
C388 C 0.72839 0.11834 0.79286 0.0
C389 C 0.66083 0.08427 0.77707 0.0
C390 C 0.68833 0.14114 0.73647 0.0
C391 C 0.67095 0.17984 0.73448 0.0
C392 C 0.66692 0.20061 0.70078 0.0
C393 C 0.67984 0.18094 0.66812 0.0
C394 C 0.69657 0.14085 0.66922 0.0
C395 C 0.70188 0.12113 0.70398 0.0
H396 H 0.22942 0.0486 0.55613 0.0
H397 H 0.28732 0.04141 0.44689 0.0
H398 H 0.25899 0.10815 0.43057 0.0
H399 H 0.13618 0.09471 0.52277 0.0
H400 H 0.12901 0.12785 0.56247 0.0
H401 H 0.15605 0.07999 0.56776 0.0
H402 H 0.21831 0.11862 0.59498 0.0
H403 H 0.1915 0.16665 0.58959 0.0
H404 H 0.24118 0.1596 0.56855 0.0
H405 H 0.22444 0.17352 0.42381 0.0
H406 H 0.18039 0.23438 0.42558 0.0
H407 H 0.14108 0.20238 0.53777 0.0
C408 C 0.23632 0.06126 0.52893 0.0
C409 C 0.2611 0.03947 0.50309 0.0
C410 C 0.26882 0.05708 0.46753 0.0
C411 C 0.25292 0.09529 0.45784 0.0
C412 C 0.22887 0.11586 0.48371 0.0
C413 C 0.22011 0.09965 0.5184 0.0
C414 C 0.19128 0.128 0.53973 0.0
C415 C 0.15072 0.10634 0.5487 0.0
C416 C 0.2118 0.14417 0.57533 0.0
C417 C 0.18511 0.16211 0.51126 0.0
C418 C 0.20762 0.15432 0.4794 0.0
C419 C 0.20665 0.18014 0.44859 0.0
C420 C 0.18136 0.21465 0.44988 0.0
C421 C 0.15706 0.22322 0.48174 0.0
C422 C 0.15953 0.19686 0.51315 0.0
H423 H 0.18997 0.86339 0.55406 0.0
H424 H 0.24288 0.84856 0.44346 0.0
H425 H 0.18463 0.80584 0.42513 0.0
H426 H 0.14797 0.75977 0.5611 0.0
H427 H 0.10219 0.77644 0.58487 0.0
H428 H 0.14916 0.80453 0.59052 0.0
H429 H 0.11256 0.87097 0.56889 0.0
H430 H 0.06553 0.84311 0.56313 0.0
H431 H 0.08646 0.87169 0.52458 0.0
H432 H 0.12048 0.76812 0.41714 0.0
H433 H 0.05279 0.73608 0.4198 0.0
H434 H 0.03985 0.77366 0.53558 0.0
C435 C 0.18949 0.85088 0.52609 0.0
C436 C 0.2211 0.85952 0.50021 0.0
C437 C 0.2191 0.84265 0.46382 0.0
C438 C 0.18617 0.81818 0.4531 0.0
C439 C 0.15547 0.81064 0.47908 0.0
C440 C 0.15672 0.82626 0.51484 0.0
C441 C 0.11882 0.8142 0.53674 0.0
C442 C 0.13023 0.78712 0.5703 0.0
C443 C 0.09441 0.85227 0.54905 0.0
C444 C 0.0959 0.78999 0.50737 0.0
C445 C 0.11789 0.7883 0.47445 0.0
C446 C 0.10298 0.76898 0.44278 0.0
C447 C 0.06433 0.75104 0.4446 0.0
C448 C 0.04083 0.75245 0.47789 0.0
C449 C 0.05713 0.77186 0.50983 0.0
H450 H 0.77081 0.96012 0.56187 0.0
H451 H 0.77327 0.01079 0.44967 0.0
H452 H 0.81127 0.95078 0.42765 0.0
H453 H 0.87422 0.91341 0.55731 0.0
H454 H 0.85955 0.8686 0.58342 0.0
H455 H 0.83406 0.91683 0.59172 0.0
H456 H 0.76414 0.88262 0.57865 0.0
H457 H 0.78943 0.83442 0.56993 0.0
H458 H 0.75625 0.85637 0.53501 0.0
H459 H 0.84412 0.88504 0.41575 0.0
H460 H 0.87615 0.81712 0.4153 0.0
H461 H 0.8557 0.80645 0.53488 0.0
C462 C 0.78001 0.95881 0.53287 0.0
C463 C 0.76873 0.99022 0.50753 0.0
C464 C 0.78106 0.98711 0.46966 0.0
C465 C 0.80279 0.95311 0.45676 0.0
C466 C 0.81242 0.92231 0.482 0.0
C467 C 0.80202 0.92475 0.51931 0.0
C468 C 0.81594 0.88639 0.53991 0.0
C469 C 0.84785 0.89695 0.56987 0.0
C470 C 0.77924 0.86361 0.55687 0.0
C471 C 0.83511 0.86213 0.5081 0.0
C472 C 0.83251 0.88369 0.47506 0.0
C473 C 0.84677 0.86788 0.44148 0.0
C474 C 0.8648 0.82904 0.44156 0.0
C475 C 0.86869 0.80622 0.47507 0.0
C476 C 0.85343 0.8231 0.50882 0.0
H477 H 0.81594 0.16125 0.56718 0.0
H478 H 0.76222 0.17631 0.45699 0.0
H479 H 0.82348 0.21297 0.43622 0.0
H480 H 0.86757 0.26267 0.56841 0.0
H481 H 0.9117 0.24291 0.59277 0.0
H482 H 0.8621 0.22036 0.60035 0.0
H483 H 0.89176 0.14929 0.58254 0.0
H484 H 0.94124 0.17168 0.5743 0.0
H485 H 0.91657 0.14273 0.53796 0.0
H486 H 0.89199 0.24047 0.42468 0.0
H487 H 0.96213 0.26684 0.42502 0.0
H488 H 0.97246 0.23822 0.54314 0.0
C489 C 0.81668 0.17304 0.53894 0.0
C490 C 0.78422 0.16553 0.5137 0.0
C491 C 0.78662 0.18132 0.47689 0.0
C492 C 0.82136 0.20222 0.46472 0.0
C493 C 0.85332 0.2077 0.48976 0.0
C494 C 0.85116 0.19444 0.5263 0.0
C495 C 0.89054 0.20398 0.54703 0.0
C496 C 0.88249 0.23429 0.57903 0.0
C497 C 0.91124 0.16456 0.56129 0.0
C498 C 0.91532 0.22365 0.51604 0.0
C499 C 0.89311 0.22518 0.48329 0.0
C500 C 0.9096 0.24003 0.45024 0.0
C501 C 0.9497 0.2546 0.45072 0.0
C502 C 0.97296 0.2546 0.48412 0.0
C503 C 0.95544 0.23877 0.51723 0.0
H504 H 0.25644 0.54281 0.04694 0.0
H505 H 0.22058 0.51799 0.93237 0.0
H506 H 0.24657 0.58501 0.91327 0.0
H507 H 0.23519 0.65334 0.04599 0.0
H508 H 0.27979 0.66587 0.07321 0.0
H509 H 0.25501 0.61711 0.07946 0.0
H510 H 0.32348 0.57956 0.06588 0.0
H511 H 0.34848 0.62815 0.05993 0.0
H512 H 0.35067 0.59046 0.02324 0.0
H513 H 0.2782 0.65225 0.9051 0.0
H514 H 0.32037 0.71433 0.90724 0.0
H515 H 0.3389 0.69682 0.02621 0.0
C516 C 0.25372 0.55167 0.01793 0.0
C517 C 0.2359 0.52511 0.99134 0.0
C518 C 0.23367 0.53766 0.95348 0.0
C519 C 0.2482 0.57588 0.94226 0.0
C520 C 0.26529 0.6013 0.96906 0.0
C521 C 0.26866 0.58974 0.00602 0.0
C522 C 0.29143 0.62192 0.02833 0.0
C523 C 0.26369 0.64067 0.05854 0.0
C524 C 0.33085 0.60394 0.04534 0.0
C525 C 0.30086 0.65283 0.99789 0.0
C526 C 0.28482 0.64042 0.96411 0.0
C527 C 0.29077 0.66251 0.93139 0.0
C528 C 0.31485 0.69771 0.93291 0.0
C529 C 0.33293 0.71043 0.96688 0.0
C530 C 0.32497 0.68819 0.99998 0.0
H531 H 0.69402 0.63559 0.96628 0.0
H532 H 0.68911 0.62173 0.08689 0.0
H533 H 0.62108 0.65372 0.08771 0.0
H534 H 0.64403 0.73492 0.96396 0.0
H535 H 0.61627 0.72469 0.92156 0.0
H536 H 0.66483 0.69996 0.92987 0.0
H537 H 0.63081 0.62917 0.92056 0.0
H538 H 0.58205 0.65369 0.91259 0.0
H539 H 0.58713 0.61549 0.94864 0.0
H540 H 0.554 0.68545 0.07661 0.0
H541 H 0.49264 0.72152 0.05467 0.0
H542 H 0.53932 0.71775 0.94103 0.0
C543 C 0.67865 0.63936 0.99284 0.0
C544 C 0.69711 0.62593 0.0265 0.0
C545 C 0.67594 0.63172 0.06068 0.0
C546 C 0.63706 0.64972 0.0615 0.0
C547 C 0.61961 0.66209 0.02796 0.0
C548 C 0.63969 0.6577 0.99427 0.0
C549 C 0.614 0.67498 0.96257 0.0
C550 C 0.6361 0.71077 0.94337 0.0
C551 C 0.60284 0.64131 0.93443 0.0
C552 C 0.57649 0.68969 0.98389 0.0
C553 C 0.5805 0.68149 0.02151 0.0
C554 C 0.55046 0.6922 0.04722 0.0
C555 C 0.51562 0.71272 0.03436 0.0
C556 C 0.51098 0.72271 0.99605 0.0
C557 C 0.5417 0.71038 0.97041 0.0
H558 H 0.72769 0.45113 0.97017 0.0
H559 H 0.75835 0.44382 0.08797 0.0
H560 H 0.72798 0.375 0.09102 0.0
H561 H 0.63055 0.40187 0.97772 0.0
H562 H 0.63511 0.37526 0.93386 0.0
H563 H 0.66076 0.4234 0.94049 0.0
H564 H 0.7299 0.3893 0.92275 0.0
H565 H 0.70448 0.34095 0.91626 0.0
H566 H 0.74709 0.34466 0.948 0.0
H567 H 0.69422 0.30773 0.0818 0.0
H568 H 0.65485 0.24755 0.062 0.0
H569 H 0.64466 0.29867 0.95032 0.0
C570 C 0.72814 0.43505 0.9966 0.0
C571 C 0.74543 0.45295 0.02883 0.0
C572 C 0.74512 0.43092 0.06292 0.0
C573 C 0.72816 0.39168 0.06492 0.0
C574 C 0.71154 0.37495 0.03265 0.0
C575 C 0.71108 0.39595 0.99919 0.0
C576 C 0.68985 0.37149 0.96902 0.0
C577 C 0.65181 0.39437 0.95443 0.0
C578 C 0.71962 0.36098 0.93713 0.0
C579 C 0.67815 0.33361 0.9909 0.0
C580 C 0.69135 0.33615 0.02743 0.0
C581 C 0.6837 0.30532 0.05327 0.0
C582 C 0.66127 0.27122 0.04167 0.0
C583 C 0.64644 0.2683 0.00457 0.0
C584 C 0.6556 0.2998 0.97881 0.0
H585 H 0.44937 0.25363 0.94872 0.0
H586 H 0.47928 0.23523 0.06578 0.0
H587 H 0.41729 0.27276 0.08388 0.0
H588 H 0.40793 0.35625 0.95909 0.0
H589 H 0.3674 0.34898 0.92567 0.0
H590 H 0.41464 0.32071 0.92107 0.0
H591 H 0.3742 0.25265 0.92114 0.0
H592 H 0.32684 0.2807 0.92588 0.0
H593 H 0.33999 0.24153 0.9593 0.0
H594 H 0.35338 0.31163 0.09039 0.0
H595 H 0.28956 0.35096 0.08506 0.0
H596 H 0.298 0.34507 0.96408 0.0
C597 C 0.44295 0.25767 0.97813 0.0
C598 C 0.46946 0.24132 0.00575 0.0
C599 C 0.45967 0.24718 0.04396 0.0
C600 C 0.42443 0.26855 0.05464 0.0
C601 C 0.39896 0.28394 0.02691 0.0
C602 C 0.40753 0.27892 0.98945 0.0
C603 C 0.37437 0.29865 0.96561 0.0
C604 C 0.39216 0.3332 0.94144 0.0
C605 C 0.35256 0.26646 0.94156 0.0
C606 C 0.3461 0.31552 0.99567 0.0
C607 C 0.36115 0.30655 0.03074 0.0
C608 C 0.3412 0.31892 0.0631 0.0
C609 C 0.30491 0.34139 0.05969 0.0
C610 C 0.28862 0.35136 0.02413 0.0
C611 C 0.30949 0.33788 0.99165 0.0
H612 H 0.02244 0.60618 0.46926 0.0
H613 H 0.89234 0.58618 0.48224 0.0
H614 H 0.90558 0.51326 0.49711 0.0
H615 H 0.04543 0.52049 0.42336 0.0
H616 H 0.094 0.50957 0.44515 0.0
H617 H 0.07513 0.56125 0.44362 0.0
H618 H 0.08137 0.5662 0.51525 0.0
H619 H 0.09984 0.51412 0.51756 0.0
H620 H 0.05564 0.5294 0.54439 0.0
H621 H 0.93115 0.44196 0.492 0.0
H622 H 0.96822 0.37785 0.47704 0.0
H623 H 0.08295 0.44333 0.47633 0.0
C624 C 0.99706 0.58663 0.4769 0.0
C625 C 0.95655 0.60158 0.4758 0.0
C626 C 0.92364 0.57526 0.48422 0.0
C627 C 0.93093 0.53392 0.49263 0.0
C628 C 0.97133 0.51979 0.49295 0.0
C629 C 0.00399 0.54562 0.48629 0.0
C630 C 0.04404 0.52211 0.48459 0.0
C631 C 0.06588 0.52875 0.44695 0.0
C632 C 0.07188 0.53364 0.51742 0.0
C633 C 0.02856 0.47871 0.4885 0.0
C634 C 0.98648 0.47805 0.49342 0.0
C635 C 0.96423 0.44188 0.49027 0.0
C636 C 0.98541 0.40569 0.48171 0.0
C637 C 0.02847 0.40564 0.47798 0.0
C638 C 0.05033 0.44244 0.48174 0.0
H639 H 0.57066 0.0871 0.54804 0.0
H640 H 0.63848 0.97328 0.54026 0.0
H641 H 0.5742 0.93582 0.52787 0.0
H642 H 0.49433 0.0434 0.60239 0.0
H643 H 0.4529 0.0744 0.58465 0.0
H644 H 0.50432 0.09387 0.58416 0.0
H645 H 0.49986 0.10625 0.51265 0.0
H646 H 0.44783 0.08789 0.51369 0.0
H647 H 0.48458 0.06465 0.48281 0.0
H648 H 0.50294 0.90996 0.52281 0.0
H649 H 0.42889 0.8965 0.53087 0.0
H650 H 0.40684 0.026 0.54796 0.0
C651 C 0.57184 0.05458 0.54211 0.0
C652 C 0.60928 0.03308 0.54294 0.0
C653 C 0.60993 0.99016 0.53812 0.0
C654 C 0.5737 0.96878 0.53104 0.0
C655 C 0.53702 0.99071 0.53043 0.0
C656 C 0.53571 0.03259 0.53644 0.0
C657 C 0.49209 0.04756 0.5413 0.0
C658 C 0.48555 0.06586 0.58045 0.0
C659 C 0.48042 0.07847 0.51079 0.0
C660 C 0.46916 0.0077 0.53677 0.0
C661 C 0.49561 0.97537 0.52999 0.0
C662 C 0.48184 0.93512 0.52732 0.0
C663 C 0.43988 0.92774 0.53172 0.0
C664 C 0.41247 0.96048 0.53846 0.0
C665 C 0.4273 0.00078 0.54148 0.0
H666 H 0.47335 0.08608 0.95471 0.0
H667 H 0.60339 0.06668 0.97078 0.0
H668 H 0.59131 0.99297 0.98178 0.0
H669 H 0.43497 0.00937 0.02157 0.0
H670 H 0.39429 0.99334 0.99108 0.0
H671 H 0.41263 0.04534 0.98935 0.0
H672 H 0.42696 0.03739 0.9186 0.0
H673 H 0.40851 0.98561 0.92037 0.0
H674 H 0.4591 0.9959 0.90265 0.0
H675 H 0.56689 0.92182 0.98322 0.0
H676 H 0.53181 0.85615 0.97164 0.0
H677 H 0.41673 0.92048 0.95744 0.0
C678 C 0.49897 0.06625 0.96146 0.0
C679 C 0.53902 0.08186 0.96384 0.0
C680 C 0.57232 0.05518 0.97064 0.0
C681 C 0.56573 0.01342 0.97682 0.0
C682 C 0.52568 0.99899 0.97561 0.0
C683 C 0.49285 0.02444 0.96771 0.0
C684 C 0.45363 0.00031 0.96357 0.0
C685 C 0.422 0.01284 0.99317 0.0
C686 C 0.43604 0.00508 0.92395 0.0
C687 C 0.46959 0.9573 0.97025 0.0
C688 C 0.51127 0.95735 0.97722 0.0
C689 C 0.53409 0.92128 0.97905 0.0
C690 C 0.51402 0.88424 0.97256 0.0
C691 C 0.47149 0.88357 0.96562 0.0
C692 C 0.44886 0.92037 0.96494 0.0
H693 H 0.09221 0.51049 0.01369 0.0
H694 H 0.07045 0.38004 0.01836 0.0
H695 H 0.99698 0.39202 0.00539 0.0
H696 H 0.01204 0.54132 0.06125 0.0
H697 H 0.99905 0.58644 0.03467 0.0
H698 H 0.05058 0.5673 0.03413 0.0
H699 H 0.04852 0.56242 0.96214 0.0
H700 H 0.99671 0.58176 0.96224 0.0
H701 H 0.00846 0.53371 0.93975 0.0
H702 H 0.92671 0.41879 0.01143 0.0
H703 H 0.86467 0.45796 0.02853 0.0
H704 H 0.93009 0.57153 0.0132 0.0
C705 C 0.07208 0.48452 0.01009 0.0
C706 C 0.08675 0.44433 0.01564 0.0
C707 C 0.05974 0.41088 0.01272 0.0
C708 C 0.01806 0.41749 0.00541 0.0
C709 C 0.0042 0.45769 0.00079 0.0
C710 C 0.03062 0.49066 0.00206 0.0
C711 C 0.00748 0.53097 0.00087 0.0
C712 C 0.0179 0.55804 0.03475 0.0
C713 C 0.01577 0.55355 0.96404 0.0
C714 C 0.96383 0.51567 0.00245 0.0
C715 C 0.96261 0.47324 0.00172 0.0
C716 C 0.92689 0.45189 0.01 0.0
C717 C 0.89185 0.4743 0.01974 0.0
C718 C 0.89232 0.51757 0.01984 0.0
C719 C 0.92853 0.53851 0.0107 0.0
loop_
_geom_bond_atom_site_label_1
_geom_bond_atom_site_label_2
_geom_bond_distance
_geom_bond_site_symmetry_2
_ccdc_geom_bond_type
Mn0 O5 2.095 . S
Mn0 O15 2.162 . S
Mn0 O16 2.297 . S
Mn0 O24 2.385 . S
Mn0 O25 2.209 . S
Mn0 O26 2.094 . S
Mn1 O6 2.121 . S
Mn1 N8 2.257 . S
Mn1 N17 2.282 . S
Mn1 O25 2.215 . S
Mn1 O27 2.117 . S
C2 O24 1.234 . S
C2 O25 1.283 . S
C3 O15 1.281 . S
C3 O16 1.236 . S
C4 O26 1.240 1_655 S
C4 O27 1.264 1_655 S
O5 Mn0 2.095 . S
O5 C14 1.250 . S
O6 Mn1 2.121 . S
O6 C14 1.258 . S
C7 N8 1.326 . S
C7 C11 1.460 . S
C7 H13 0.929 . S
N8 Mn1 2.257 . S
N8 C7 1.326 . S
N8 C12 1.362 . S
C9 C10 1.258 . S
C9 C12 1.431 . S
C9 C29 1.449 . S
C10 C9 1.258 . S
C10 C11 1.477 . S
C10 H30 0.931 . S
C11 C7 1.460 . S
C11 C10 1.477 . S
C11 H31 0.930 . S
C12 N8 1.362 . S
C12 C9 1.431 . S
C12 C22 1.476 . S
H13 C7 0.929 . S
C14 O5 1.250 . S
C14 O6 1.258 . S
O15 Mn0 2.162 . S
O15 C3 1.281 . S
O16 Mn0 2.297 . S
O16 C3 1.236 . S
N17 Mn1 2.282 . S
N17 C18 1.328 1_455 S
N17 C22 1.318 . S
C18 N17 1.328 1_655 S
C18 C19 1.457 . S
C18 H23 0.929 . S
C19 C18 1.457 . S
C19 C20 1.291 . S
C19 H32 0.931 . S
C20 C19 1.291 . S
C20 C21 1.373 1_655 S
C20 H33 0.929 . S
C21 C20 1.373 1_455 S
C21 C22 1.396 . S
C21 C28 1.403 . S
C22 C12 1.476 . S
C22 N17 1.318 . S
C22 C21 1.396 . S
H23 C18 0.929 . S
O24 Mn0 2.385 . S
O24 C2 1.234 . S
O25 Mn0 2.209 . S
O25 Mn1 2.215 . S
O25 C2 1.283 . S
O26 Mn0 2.094 . S
O26 C4 1.240 1_455 S
O27 Mn1 2.117 . S
O27 C4 1.264 1_455 S
C28 C21 1.403 . S
C28 C29 1.399 . S
C28 H34 0.929 . S
C29 C9 1.449 . S
C29 C28 1.399 . S
C29 H35 0.930 . S
H30 C10 0.931 . S
H31 C11 0.930 . S
H32 C19 0.931 . S
H33 C20 0.929 . S
H34 C28 0.929 . S
H35 C29 0.930 . S
Mn36 O41 2.095 . S
Mn36 O51 2.162 . S
Mn36 O52 2.297 . S
Mn36 O60 2.385 . S
Mn36 O61 2.209 . S
Mn36 O62 2.094 . S
Mn37 O42 2.121 . S
Mn37 N44 2.257 . S
Mn37 N53 2.282 . S
Mn37 O61 2.215 . S
Mn37 O63 2.117 . S
C38 O60 1.234 . S
C38 O61 1.283 . S
C39 O51 1.281 . S
C39 O52 1.236 . S
C40 O62 1.240 1_545 S
C40 O63 1.264 1_545 S
O41 Mn36 2.095 . S
O41 C50 1.250 . S
O42 Mn37 2.121 . S
O42 C50 1.258 . S
C43 N44 1.326 . S
C43 C47 1.460 . S
C43 H49 0.929 . S
N44 Mn37 2.257 . S
N44 C43 1.326 . S
N44 C48 1.362 . S
C45 C46 1.258 . S
C45 C48 1.431 . S
C45 C65 1.449 . S
C46 C45 1.258 . S
C46 C47 1.477 . S
C46 H66 0.931 . S
C47 C43 1.460 . S
C47 C46 1.477 . S
C47 H67 0.930 . S
C48 N44 1.362 . S
C48 C45 1.431 . S
C48 C58 1.476 . S
H49 C43 0.929 . S
C50 O41 1.250 . S
C50 O42 1.258 . S
O51 Mn36 2.162 . S
O51 C39 1.281 . S
O52 Mn36 2.297 . S
O52 C39 1.236 . S
N53 Mn37 2.282 . S
N53 C54 1.328 1_565 S
N53 C58 1.318 . S
C54 N53 1.328 1_545 S
C54 C55 1.457 . S
C54 H59 0.929 . S
C55 C54 1.457 . S
C55 C56 1.291 . S
C55 H68 0.931 . S
C56 C55 1.291 . S
C56 C57 1.373 1_545 S
C56 H69 0.929 . S
C57 C56 1.373 1_565 S
C57 C58 1.396 . S
C57 C64 1.403 . S
C58 C48 1.476 . S
C58 N53 1.318 . S
C58 C57 1.396 . S
H59 C54 0.929 . S
O60 Mn36 2.385 . S
O60 C38 1.234 . S
O61 Mn36 2.209 . S
O61 Mn37 2.215 . S
O61 C38 1.283 . S
O62 Mn36 2.094 . S
O62 C40 1.240 1_565 S
O63 Mn37 2.117 . S
O63 C40 1.264 1_565 S
C64 C57 1.403 . S
C64 C65 1.399 . S
C64 H70 0.929 . S
C65 C45 1.449 . S
C65 C64 1.399 . S
C65 H71 0.930 . S
H66 C46 0.931 . S
H67 C47 0.930 . S
H68 C55 0.931 . S
H69 C56 0.929 . S
H70 C64 0.929 . S
H71 C65 0.930 . S
Mn72 O77 2.095 . S
Mn72 O87 2.162 . S
Mn72 O88 2.297 . S
Mn72 O96 2.385 . S
Mn72 O97 2.209 . S
Mn72 O98 2.094 . S
Mn73 O78 2.121 . S
Mn73 N80 2.257 . S
Mn73 N89 2.282 . S
Mn73 O97 2.215 . S
Mn73 O99 2.117 . S
C74 O96 1.234 . S
C74 O97 1.283 . S
C75 O87 1.281 . S
C75 O88 1.236 . S
C76 O98 1.240 1_455 S
C76 O99 1.264 1_455 S
O77 Mn72 2.095 . S
O77 C86 1.250 . S
O78 Mn73 2.121 . S
O78 C86 1.258 . S
C79 N80 1.326 . S
C79 C83 1.460 . S
C79 H85 0.929 . S
N80 Mn73 2.257 . S
N80 C79 1.326 . S
N80 C84 1.362 . S
C81 C82 1.258 . S
C81 C84 1.431 . S
C81 C101 1.449 . S
C82 C81 1.258 . S
C82 C83 1.477 . S
C82 H102 0.931 . S
C83 C79 1.460 . S
C83 C82 1.477 . S
C83 H103 0.930 . S
C84 N80 1.362 . S
C84 C81 1.431 . S
C84 C94 1.476 . S
H85 C79 0.929 . S
C86 O77 1.250 . S
C86 O78 1.258 . S
O87 Mn72 2.162 . S
O87 C75 1.281 . S
O88 Mn72 2.297 . S
O88 C75 1.236 . S
N89 Mn73 2.282 . S
N89 C90 1.328 1_655 S
N89 C94 1.318 . S
C90 N89 1.328 1_455 S
C90 C91 1.457 . S
C90 H95 0.929 . S
C91 C90 1.457 . S
C91 C92 1.291 . S
C91 H104 0.931 . S
C92 C91 1.291 . S
C92 C93 1.373 1_455 S
C92 H105 0.929 . S
C93 C92 1.373 1_655 S
C93 C94 1.396 . S
C93 C100 1.403 . S
C94 C84 1.476 . S
C94 N89 1.318 . S
C94 C93 1.396 . S
H95 C90 0.929 . S
O96 Mn72 2.385 . S
O96 C74 1.234 . S
O97 Mn72 2.209 . S
O97 Mn73 2.215 . S
O97 C74 1.283 . S
O98 Mn72 2.094 . S
O98 C76 1.240 1_655 S
O99 Mn73 2.117 . S
O99 C76 1.264 1_655 S
C100 C93 1.403 . S
C100 C101 1.399 . S
C100 H106 0.929 . S
C101 C81 1.449 . S
C101 C100 1.399 . S
C101 H107 0.930 . S
H102 C82 0.931 . S
H103 C83 0.930 . S
H104 C91 0.931 . S
H105 C92 0.929 . S
H106 C100 0.929 . S
H107 C101 0.930 . S
Mn108 O113 2.095 . S
Mn108 O123 2.162 . S
Mn108 O124 2.297 . S
Mn108 O132 2.385 . S
Mn108 O133 2.209 . S
Mn108 O134 2.094 . S
Mn109 O114 2.121 . S
Mn109 N116 2.257 . S
Mn109 N125 2.282 . S
Mn109 O133 2.215 . S
Mn109 O135 2.117 . S
C110 O132 1.234 . S
C110 O133 1.283 . S
C111 O123 1.281 . S
C111 O124 1.236 . S
C112 O134 1.240 1_565 S
C112 O135 1.264 1_565 S
O113 Mn108 2.095 . S
O113 C122 1.250 . S
O114 Mn109 2.121 . S
O114 C122 1.258 . S
C115 N116 1.326 . S
C115 C119 1.460 . S
C115 H121 0.929 . S
N116 Mn109 2.257 . S
N116 C115 1.326 . S
N116 C120 1.362 . S
C117 C118 1.258 . S
C117 C120 1.431 . S
C117 C137 1.449 . S
C118 C117 1.258 . S
C118 C119 1.477 . S
C118 H138 0.931 . S
C119 C115 1.460 . S
C119 C118 1.477 . S
C119 H139 0.930 . S
C120 N116 1.362 . S
C120 C117 1.431 . S
C120 C130 1.476 . S
H121 C115 0.929 . S
C122 O113 1.250 . S
C122 O114 1.258 . S
O123 Mn108 2.162 . S
O123 C111 1.281 . S
O124 Mn108 2.297 . S
O124 C111 1.236 . S
N125 Mn109 2.282 . S
N125 C126 1.328 1_545 S
N125 C130 1.318 . S
C126 N125 1.328 1_565 S
C126 C127 1.457 . S
C126 H131 0.929 . S
C127 C126 1.457 . S
C127 C128 1.291 . S
C127 H140 0.931 . S
C128 C127 1.291 . S
C128 C129 1.373 1_565 S
C128 H141 0.929 . S
C129 C128 1.373 1_545 S
C129 C130 1.396 . S
C129 C136 1.403 . S
C130 C120 1.476 . S
C130 N125 1.318 . S
C130 C129 1.396 . S
H131 C126 0.929 . S
O132 Mn108 2.385 . S
O132 C110 1.234 . S
O133 Mn108 2.209 . S
O133 Mn109 2.215 . S
O133 C110 1.283 . S
O134 Mn108 2.094 . S
O134 C112 1.240 1_545 S
O135 Mn109 2.117 . S
O135 C112 1.264 1_545 S
C136 C129 1.403 . S
C136 C137 1.399 . S
C136 H142 0.929 . S
C137 C117 1.449 . S
C137 C136 1.399 . S
C137 H143 0.930 . S
H138 C118 0.931 . S
H139 C119 0.930 . S
H140 C127 0.931 . S
H141 C128 0.929 . S
H142 C136 0.929 . S
H143 C137 0.930 . S
Mn144 O149 2.095 . S
Mn144 O159 2.162 . S
Mn144 O160 2.297 . S
Mn144 O168 2.385 . S
Mn144 O169 2.209 . S
Mn144 O170 2.094 . S
Mn145 O150 2.121 . S
Mn145 N152 2.257 . S
Mn145 N161 2.282 . S
Mn145 O169 2.215 1_554 S
Mn145 O171 2.117 . S
C146 O168 1.234 . S
C146 O169 1.283 . S
C147 O159 1.281 . S
C147 O160 1.236 . S
C148 O170 1.240 . S
C148 O171 1.264 1_556 S
O149 Mn144 2.095 . S
O149 C158 1.250 . S
O150 Mn145 2.121 . S
O150 C158 1.258 1_554 S
C151 N152 1.326 . S
C151 C155 1.460 . S
C151 H157 0.929 . S
N152 Mn145 2.257 . S
N152 C151 1.326 . S
N152 C156 1.362 . S
C153 C154 1.258 . S
C153 C156 1.431 . S
C153 C173 1.449 . S
C154 C153 1.258 . S
C154 C155 1.477 . S
C154 H174 0.931 . S
C155 C151 1.460 . S
C155 C154 1.477 . S
C155 H175 0.930 . S
C156 N152 1.362 . S
C156 C153 1.431 . S
C156 C166 1.476 . S
H157 C151 0.929 . S
C158 O149 1.250 . S
C158 O150 1.258 1_556 S
O159 Mn144 2.162 . S
O159 C147 1.281 . S
O160 Mn144 2.297 . S
O160 C147 1.236 . S
N161 Mn145 2.282 . S
N161 C162 1.328 . S
N161 C166 1.318 . S
C162 N161 1.328 . S
C162 C163 1.457 . S
C162 H167 0.929 . S
C163 C162 1.457 . S
C163 C164 1.291 . S
C163 H176 0.931 . S
C164 C163 1.291 . S
C164 C165 1.373 . S
C164 H177 0.929 . S
C165 C164 1.373 . S
C165 C166 1.396 . S
C165 C172 1.403 . S
C166 C156 1.476 . S
C166 N161 1.318 . S
C166 C165 1.396 . S
H167 C162 0.929 . S
O168 Mn144 2.385 . S
O168 C146 1.234 . S
O169 Mn144 2.209 . S
O169 Mn145 2.215 1_556 S
O169 C146 1.283 . S
O170 Mn144 2.094 . S
O170 C148 1.240 . S
O171 Mn145 2.117 . S
O171 C148 1.264 1_554 S
C172 C165 1.403 . S
C172 C173 1.399 . S
C172 H178 0.929 . S
C173 C153 1.449 . S
C173 C172 1.399 . S
C173 H179 0.930 . S
H174 C154 0.931 . S
H175 C155 0.930 . S
H176 C163 0.931 . S
H177 C164 0.929 . S
H178 C172 0.929 . S
H179 C173 0.930 . S
Mn180 O185 2.095 . S
Mn180 O195 2.162 . S
Mn180 O196 2.297 . S
Mn180 O204 2.385 . S
Mn180 O205 2.209 . S
Mn180 O206 2.094 . S
Mn181 O186 2.121 . S
Mn181 N188 2.257 . S
Mn181 N197 2.282 . S
Mn181 O205 2.215 1_556 S
Mn181 O207 2.117 . S
C182 O204 1.234 . S
C182 O205 1.283 . S
C183 O195 1.281 . S
C183 O196 1.236 . S
C184 O206 1.240 . S
C184 O207 1.264 1_554 S
O185 Mn180 2.095 . S
O185 C194 1.250 . S
O186 Mn181 2.121 . S
O186 C194 1.258 1_556 S
C187 N188 1.326 . S
C187 C191 1.460 . S
C187 H193 0.929 . S
N188 Mn181 2.257 . S
N188 C187 1.326 . S
N188 C192 1.362 . S
C189 C190 1.258 . S
C189 C192 1.431 . S
C189 C209 1.449 . S
C190 C189 1.258 . S
C190 C191 1.477 . S
C190 H210 0.931 . S
C191 C187 1.460 . S
C191 C190 1.477 . S
C191 H211 0.930 . S
C192 N188 1.362 . S
C192 C189 1.431 . S
C192 C202 1.476 . S
H193 C187 0.929 . S
C194 O185 1.250 . S
C194 O186 1.258 1_554 S
O195 Mn180 2.162 . S
O195 C183 1.281 . S
O196 Mn180 2.297 . S
O196 C183 1.236 . S
N197 Mn181 2.282 . S
N197 C198 1.328 . S
N197 C202 1.318 . S
C198 N197 1.328 . S
C198 C199 1.457 . S
C198 H203 0.929 . S
C199 C198 1.457 . S
C199 C200 1.291 . S
C199 H212 0.931 . S
C200 C199 1.291 . S
C200 C201 1.373 . S
C200 H213 0.929 . S
C201 C200 1.373 . S
C201 C202 1.396 . S
C201 C208 1.403 . S
C202 C192 1.476 . S
C202 N197 1.318 . S
C202 C201 1.396 . S
H203 C198 0.929 . S
O204 Mn180 2.385 . S
O204 C182 1.234 . S
O205 Mn180 2.209 . S
O205 Mn181 2.215 1_554 S
O205 C182 1.283 . S
O206 Mn180 2.094 . S
O206 C184 1.240 . S
O207 Mn181 2.117 . S
O207 C184 1.264 1_556 S
C208 C201 1.403 . S
C208 C209 1.399 . S
C208 H214 0.929 . S
C209 C189 1.449 . S
C209 C208 1.399 . S
C209 H215 0.930 . S
H210 C190 0.931 . S
H211 C191 0.930 . S
H212 C199 0.931 . S
H213 C200 0.929 . S
H214 C208 0.929 . S
H215 C209 0.930 . S
Mn216 O221 2.095 . S
Mn216 O231 2.162 . S
Mn216 O232 2.297 . S
Mn216 O240 2.385 . S
Mn216 O241 2.209 . S
Mn216 O242 2.094 . S
Mn217 O222 2.121 . S
Mn217 N224 2.257 . S
Mn217 N233 2.282 . S
Mn217 O241 2.215 1_554 S
Mn217 O243 2.117 . S
C218 O240 1.234 . S
C218 O241 1.283 . S
C219 O231 1.281 . S
C219 O232 1.236 . S
C220 O242 1.240 . S
C220 O243 1.264 1_556 S
O221 Mn216 2.095 . S
O221 C230 1.250 . S
O222 Mn217 2.121 . S
O222 C230 1.258 1_554 S
C223 N224 1.326 . S
C223 C227 1.460 . S
C223 H229 0.929 . S
N224 Mn217 2.257 . S
N224 C223 1.326 . S
N224 C228 1.362 . S
C225 C226 1.258 . S
C225 C228 1.431 . S
C225 C245 1.449 . S
C226 C225 1.258 . S
C226 C227 1.477 . S
C226 H246 0.931 . S
C227 C223 1.460 . S
C227 C226 1.477 . S
C227 H247 0.930 . S
C228 N224 1.362 . S
C228 C225 1.431 . S
C228 C238 1.476 . S
H229 C223 0.929 . S
C230 O221 1.250 . S
C230 O222 1.258 1_556 S
O231 Mn216 2.162 . S
O231 C219 1.281 . S
O232 Mn216 2.297 . S
O232 C219 1.236 . S
N233 Mn217 2.282 . S
N233 C234 1.328 . S
N233 C238 1.318 . S
C234 N233 1.328 . S
C234 C235 1.457 . S
C234 H239 0.929 . S
C235 C234 1.457 . S
C235 C236 1.291 . S
C235 H248 0.931 . S
C236 C235 1.291 . S
C236 C237 1.373 . S
C236 H249 0.929 . S
C237 C236 1.373 . S
C237 C238 1.396 . S
C237 C244 1.403 . S
C238 C228 1.476 . S
C238 N233 1.318 . S
C238 C237 1.396 . S
H239 C234 0.929 . S
O240 Mn216 2.385 . S
O240 C218 1.234 . S
O241 Mn216 2.209 . S
O241 Mn217 2.215 1_556 S
O241 C218 1.283 . S
O242 Mn216 2.094 . S
O242 C220 1.240 . S
O243 Mn217 2.117 . S
O243 C220 1.264 1_554 S
C244 C237 1.403 . S
C244 C245 1.399 . S
C244 H250 0.929 . S
C245 C225 1.449 . S
C245 C244 1.399 . S
C245 H251 0.930 . S
H246 C226 0.931 . S
H247 C227 0.930 . S
H248 C235 0.931 . S
H249 C236 0.929 . S
H250 C244 0.929 . S
H251 C245 0.930 . S
Mn252 O257 2.095 . S
Mn252 O267 2.162 . S
Mn252 O268 2.297 . S
Mn252 O276 2.385 . S
Mn252 O277 2.209 . S
Mn252 O278 2.094 . S
Mn253 O258 2.121 . S
Mn253 N260 2.257 . S
Mn253 N269 2.282 . S
Mn253 O277 2.215 1_556 S
Mn253 O279 2.117 . S
C254 O276 1.234 . S
C254 O277 1.283 . S
C255 O267 1.281 . S
C255 O268 1.236 . S
C256 O278 1.240 . S
C256 O279 1.264 1_554 S
O257 Mn252 2.095 . S
O257 C266 1.250 . S
O258 Mn253 2.121 . S
O258 C266 1.258 1_556 S
C259 N260 1.326 . S
C259 C263 1.460 . S
C259 H265 0.929 . S
N260 Mn253 2.257 . S
N260 C259 1.326 . S
N260 C264 1.362 . S
C261 C262 1.258 . S
C261 C264 1.431 . S
C261 C281 1.449 . S
C262 C261 1.258 . S
C262 C263 1.477 . S
C262 H282 0.931 . S
C263 C259 1.460 . S
C263 C262 1.477 . S
C263 H283 0.930 . S
C264 N260 1.362 . S
C264 C261 1.431 . S
C264 C274 1.476 . S
H265 C259 0.929 . S
C266 O257 1.250 . S
C266 O258 1.258 1_554 S
O267 Mn252 2.162 . S
O267 C255 1.281 . S
O268 Mn252 2.297 . S
O268 C255 1.236 . S
N269 Mn253 2.282 . S
N269 C270 1.328 . S
N269 C274 1.318 . S
C270 N269 1.328 . S
C270 C271 1.457 . S
C270 H275 0.929 . S
C271 C270 1.457 . S
C271 C272 1.291 . S
C271 H284 0.931 . S
C272 C271 1.291 . S
C272 C273 1.373 . S
C272 H285 0.929 . S
C273 C272 1.373 . S
C273 C274 1.396 . S
C273 C280 1.403 . S
C274 C264 1.476 . S
C274 N269 1.318 . S
C274 C273 1.396 . S
H275 C270 0.929 . S
O276 Mn252 2.385 . S
O276 C254 1.234 . S
O277 Mn252 2.209 . S
O277 Mn253 2.215 1_554 S
O277 C254 1.283 . S
O278 Mn252 2.094 . S
O278 C256 1.240 . S
O279 Mn253 2.117 . S
O279 C256 1.264 1_556 S
C280 C273 1.403 . S
C280 C281 1.399 . S
C280 H286 0.929 . S
C281 C261 1.449 . S
C281 C280 1.399 . S
C281 H287 0.930 . S
H282 C262 0.931 . S
H283 C263 0.930 . S
H284 C271 0.931 . S
H285 C272 0.929 . S
H286 C280 0.929 . S
H287 C281 0.930 . S
H288 C300 0.930 . S
H289 C302 0.930 . S
H290 C303 0.930 . S
H291 C307 0.959 . S
H292 C307 0.959 . S
H293 C307 0.961 . S
H294 C308 0.960 . S
H295 C308 0.961 . S
H296 C308 0.959 . S
H297 C311 0.929 . S
H298 C312 0.931 . S
H299 C314 0.930 . S
C300 H288 0.930 . S
C300 C301 1.399 . S
C300 C305 1.399 . S
C301 C300 1.399 . S
C301 C302 1.376 . S
C302 H289 0.930 . S
C302 C301 1.376 . S
C302 C303 1.388 . S
C303 H290 0.930 . S
C303 C302 1.388 . S
C303 C304 1.390 . S
C304 C303 1.390 . S
C304 C305 1.394 . S
C304 C310 1.465 . S
C305 C300 1.399 . S
C305 C304 1.394 . S
C305 C306 1.516 . S
C306 C305 1.516 . S
C306 C307 1.502 . S
C306 C308 1.561 . S
C306 C309 1.526 . S
C307 H291 0.959 . S
C307 H292 0.959 . S
C307 H293 0.961 . S
C307 C306 1.502 . S
C308 H294 0.960 . S
C308 H295 0.961 . S
C308 H296 0.959 . S
C308 C306 1.561 . S
C309 C306 1.526 . S
C309 C310 1.396 . S
C309 C314 1.390 . S
C310 C304 1.465 . S
C310 C309 1.396 . S
C310 C311 1.399 . S
C311 H297 0.929 . S
C311 C310 1.399 . S
C311 C312 1.385 . S
C312 H298 0.931 . S
C312 C311 1.385 . S
C312 C313 1.389 . S
C313 C312 1.389 . S
C313 C314 1.387 . S
C314 H299 0.930 . S
C314 C309 1.390 . S
C314 C313 1.387 . S
H315 C327 0.930 . S
H316 C329 0.930 . S
H317 C330 0.930 . S
H318 C334 0.959 . S
H319 C334 0.959 . S
H320 C334 0.961 . S
H321 C335 0.960 . S
H322 C335 0.961 . S
H323 C335 0.959 . S
H324 C338 0.929 . S
H325 C339 0.931 . S
H326 C341 0.930 . S
C327 H315 0.930 . S
C327 C328 1.399 . S
C327 C332 1.399 . S
C328 C327 1.399 . S
C328 C329 1.376 . S
C329 H316 0.930 . S
C329 C328 1.376 . S
C329 C330 1.388 . S
C330 H317 0.930 . S
C330 C329 1.388 . S
C330 C331 1.390 . S
C331 C330 1.390 . S
C331 C332 1.394 . S
C331 C337 1.465 . S
C332 C327 1.399 . S
C332 C331 1.394 . S
C332 C333 1.516 . S
C333 C332 1.516 . S
C333 C334 1.502 . S
C333 C335 1.561 . S
C333 C336 1.526 . S
C334 H318 0.959 . S
C334 H319 0.959 . S
C334 H320 0.961 . S
C334 C333 1.502 . S
C335 H321 0.960 . S
C335 H322 0.961 . S
C335 H323 0.959 . S
C335 C333 1.561 . S
C336 C333 1.526 . S
C336 C337 1.396 . S
C336 C341 1.390 . S
C337 C331 1.465 . S
C337 C336 1.396 . S
C337 C338 1.399 . S
C338 H324 0.929 . S
C338 C337 1.399 . S
C338 C339 1.385 . S
C339 H325 0.931 . S
C339 C338 1.385 . S
C339 C340 1.389 . S
C340 C339 1.389 . S
C340 C341 1.387 . S
C341 H326 0.930 . S
C341 C336 1.390 . S
C341 C340 1.387 . S
H342 C354 0.930 . S
H343 C356 0.930 . S
H344 C357 0.930 . S
H345 C361 0.959 . S
H346 C361 0.959 . S
H347 C361 0.961 . S
H348 C362 0.960 . S
H349 C362 0.961 . S
H350 C362 0.959 . S
H351 C365 0.929 . S
H352 C366 0.931 . S
H353 C368 0.930 . S
C354 H342 0.930 . S
C354 C355 1.399 . S
C354 C359 1.399 . S
C355 C354 1.399 . S
C355 C356 1.376 . S
C356 H343 0.930 . S
C356 C355 1.376 . S
C356 C357 1.388 . S
C357 H344 0.930 . S
C357 C356 1.388 . S
C357 C358 1.390 . S
C358 C357 1.390 . S
C358 C359 1.394 . S
C358 C364 1.465 . S
C359 C354 1.399 . S
C359 C358 1.394 . S
C359 C360 1.516 . S
C360 C359 1.516 . S
C360 C361 1.502 . S
C360 C362 1.561 . S
C360 C363 1.526 . S
C361 H345 0.959 . S
C361 H346 0.959 . S
C361 H347 0.961 . S
C361 C360 1.502 . S
C362 H348 0.960 . S
C362 H349 0.961 . S
C362 H350 0.959 . S
C362 C360 1.561 . S
C363 C360 1.526 . S
C363 C364 1.396 . S
C363 C368 1.390 . S
C364 C358 1.465 . S
C364 C363 1.396 . S
C364 C365 1.399 . S
C365 H351 0.929 . S
C365 C364 1.399 . S
C365 C366 1.385 . S
C366 H352 0.931 . S
C366 C365 1.385 . S
C366 C367 1.389 . S
C367 C366 1.389 . S
C367 C368 1.387 . S
C368 H353 0.930 . S
C368 C363 1.390 . S
C368 C367 1.387 . S
H369 C381 0.930 . S
H370 C383 0.930 . S
H371 C384 0.930 . S
H372 C388 0.959 . S
H373 C388 0.959 . S
H374 C388 0.961 . S
H375 C389 0.960 . S
H376 C389 0.961 . S
H377 C389 0.959 . S
H378 C392 0.929 . S
H379 C393 0.931 . S
H380 C395 0.930 . S
C381 H369 0.930 . S
C381 C382 1.399 . S
C381 C386 1.399 . S
C382 C381 1.399 . S
C382 C383 1.376 . S
C383 H370 0.930 . S
C383 C382 1.376 . S
C383 C384 1.388 . S
C384 H371 0.930 . S
C384 C383 1.388 . S
C384 C385 1.390 . S
C385 C384 1.390 . S
C385 C386 1.394 . S
C385 C391 1.465 . S
C386 C381 1.399 . S
C386 C385 1.394 . S
C386 C387 1.516 . S
C387 C386 1.516 . S
C387 C388 1.502 . S
C387 C389 1.561 . S
C387 C390 1.526 . S
C388 H372 0.959 . S
C388 H373 0.959 . S
C388 H374 0.961 . S
C388 C387 1.502 . S
C389 H375 0.960 . S
C389 H376 0.961 . S
C389 H377 0.959 . S
C389 C387 1.561 . S
C390 C387 1.526 . S
C390 C391 1.396 . S
C390 C395 1.390 . S
C391 C385 1.465 . S
C391 C390 1.396 . S
C391 C392 1.399 . S
C392 H378 0.929 . S
C392 C391 1.399 . S
C392 C393 1.385 . S
C393 H379 0.931 . S
C393 C392 1.385 . S
C393 C394 1.389 . S
C394 C393 1.389 . S
C394 C395 1.387 . S
C395 H380 0.930 . S
C395 C390 1.390 . S
C395 C394 1.387 . S
H396 C408 0.930 . S
H397 C410 0.930 . S
H398 C411 0.930 . S
H399 C415 0.959 . S
H400 C415 0.959 . S
H401 C415 0.961 . S
H402 C416 0.960 . S
H403 C416 0.961 . S
H404 C416 0.959 . S
H405 C419 0.929 . S
H406 C420 0.931 . S
H407 C422 0.930 . S
C408 H396 0.930 . S
C408 C409 1.399 . S
C408 C413 1.399 . S
C409 C408 1.399 . S
C409 C410 1.376 . S
C410 H397 0.930 . S
C410 C409 1.376 . S
C410 C411 1.388 . S
C411 H398 0.930 . S
C411 C410 1.388 . S
C411 C412 1.390 . S
C412 C411 1.390 . S
C412 C413 1.394 . S
C412 C418 1.465 . S
C413 C408 1.399 . S
C413 C412 1.394 . S
C413 C414 1.516 . S
C414 C413 1.516 . S
C414 C415 1.502 . S
C414 C416 1.561 . S
C414 C417 1.526 . S
C415 H399 0.959 . S
C415 H400 0.959 . S
C415 H401 0.961 . S
C415 C414 1.502 . S
C416 H402 0.960 . S
C416 H403 0.961 . S
C416 H404 0.959 . S
C416 C414 1.561 . S
C417 C414 1.526 . S
C417 C418 1.396 . S
C417 C422 1.390 . S
C418 C412 1.465 . S
C418 C417 1.396 . S
C418 C419 1.399 . S
C419 H405 0.929 . S
C419 C418 1.399 . S
C419 C420 1.385 . S
C420 H406 0.931 . S
C420 C419 1.385 . S
C420 C421 1.389 . S
C421 C420 1.389 . S
C421 C422 1.387 . S
C422 H407 0.930 . S
C422 C417 1.390 . S
C422 C421 1.387 . S
H423 C435 0.930 . S
H424 C437 0.930 . S
H425 C438 0.930 . S
H426 C442 0.959 . S
H427 C442 0.959 . S
H428 C442 0.961 . S
H429 C443 0.960 . S
H430 C443 0.961 . S
H431 C443 0.959 . S
H432 C446 0.929 . S
H433 C447 0.931 . S
H434 C449 0.930 . S
C435 H423 0.930 . S
C435 C436 1.399 . S
C435 C440 1.399 . S
C436 C435 1.399 . S
C436 C437 1.376 . S
C437 H424 0.930 . S
C437 C436 1.376 . S
C437 C438 1.388 . S
C438 H425 0.930 . S
C438 C437 1.388 . S
C438 C439 1.390 . S
C439 C438 1.390 . S
C439 C440 1.394 . S
C439 C445 1.465 . S
C440 C435 1.399 . S
C440 C439 1.394 . S
C440 C441 1.516 . S
C441 C440 1.516 . S
C441 C442 1.502 . S
C441 C443 1.561 . S
C441 C444 1.526 . S
C442 H426 0.959 . S
C442 H427 0.959 . S
C442 H428 0.961 . S
C442 C441 1.502 . S
C443 H429 0.960 . S
C443 H430 0.961 . S
C443 H431 0.959 . S
C443 C441 1.561 . S
C444 C441 1.526 . S
C444 C445 1.396 . S
C444 C449 1.390 . S
C445 C439 1.465 . S
C445 C444 1.396 . S
C445 C446 1.399 . S
C446 H432 0.929 . S
C446 C445 1.399 . S
C446 C447 1.385 . S
C447 H433 0.931 . S
C447 C446 1.385 . S
C447 C448 1.389 . S
C448 C447 1.389 . S
C448 C449 1.387 . S
C449 H434 0.930 . S
C449 C444 1.390 . S
C449 C448 1.387 . S
H450 C462 0.930 . S
H451 C464 0.930 . S
H452 C465 0.930 . S
H453 C469 0.959 . S
H454 C469 0.959 . S
H455 C469 0.961 . S
H456 C470 0.960 . S
H457 C470 0.961 . S
H458 C470 0.959 . S
H459 C473 0.929 . S
H460 C474 0.931 . S
H461 C476 0.930 . S
C462 H450 0.930 . S
C462 C463 1.399 . S
C462 C467 1.399 . S
C463 C462 1.399 . S
C463 C464 1.376 . S
C464 H451 0.930 . S
C464 C463 1.376 . S
C464 C465 1.388 . S
C465 H452 0.930 . S
C465 C464 1.388 . S
C465 C466 1.390 . S
C466 C465 1.390 . S
C466 C467 1.394 . S
C466 C472 1.465 . S
C467 C462 1.399 . S
C467 C466 1.394 . S
C467 C468 1.516 . S
C468 C467 1.516 . S
C468 C469 1.502 . S
C468 C470 1.561 . S
C468 C471 1.526 . S
C469 H453 0.959 . S
C469 H454 0.959 . S
C469 H455 0.961 . S
C469 C468 1.502 . S
C470 H456 0.960 . S
C470 H457 0.961 . S
C470 H458 0.959 . S
C470 C468 1.561 . S
C471 C468 1.526 . S
C471 C472 1.396 . S
C471 C476 1.390 . S
C472 C466 1.465 . S
C472 C471 1.396 . S
C472 C473 1.399 . S
C473 H459 0.929 . S
C473 C472 1.399 . S
C473 C474 1.385 . S
C474 H460 0.931 . S
C474 C473 1.385 . S
C474 C475 1.389 . S
C475 C474 1.389 . S
C475 C476 1.387 . S
C476 H461 0.930 . S
C476 C471 1.390 . S
C476 C475 1.387 . S
H477 C489 0.930 . S
H478 C491 0.930 . S
H479 C492 0.930 . S
H480 C496 0.959 . S
H481 C496 0.959 . S
H482 C496 0.961 . S
H483 C497 0.960 . S
H484 C497 0.961 . S
H485 C497 0.959 . S
H486 C500 0.929 . S
H487 C501 0.931 . S
H488 C503 0.930 . S
C489 H477 0.930 . S
C489 C490 1.399 . S
C489 C494 1.399 . S
C490 C489 1.399 . S
C490 C491 1.376 . S
C491 H478 0.930 . S
C491 C490 1.376 . S
C491 C492 1.388 . S
C492 H479 0.930 . S
C492 C491 1.388 . S
C492 C493 1.390 . S
C493 C492 1.390 . S
C493 C494 1.394 . S
C493 C499 1.465 . S
C494 C489 1.399 . S
C494 C493 1.394 . S
C494 C495 1.516 . S
C495 C494 1.516 . S
C495 C496 1.502 . S
C495 C497 1.561 . S
C495 C498 1.526 . S
C496 H480 0.959 . S
C496 H481 0.959 . S
C496 H482 0.961 . S
C496 C495 1.502 . S
C497 H483 0.960 . S
C497 H484 0.961 . S
C497 H485 0.959 . S
C497 C495 1.561 . S
C498 C495 1.526 . S
C498 C499 1.396 . S
C498 C503 1.390 . S
C499 C493 1.465 . S
C499 C498 1.396 . S
C499 C500 1.399 . S
C500 H486 0.929 . S
C500 C499 1.399 . S
C500 C501 1.385 . S
C501 H487 0.931 . S
C501 C500 1.385 . S
C501 C502 1.389 . S
C502 C501 1.389 . S
C502 C503 1.387 . S
C503 H488 0.930 . S
C503 C498 1.390 . S
C503 C502 1.387 . S
H504 C516 0.930 . S
H505 C518 0.930 . S
H506 C519 0.930 . S
H507 C523 0.959 . S
H508 C523 0.959 . S
H509 C523 0.961 . S
H510 C524 0.960 . S
H511 C524 0.961 . S
H512 C524 0.959 . S
H513 C527 0.929 . S
H514 C528 0.931 . S
H515 C530 0.930 . S
C516 H504 0.930 . S
C516 C517 1.399 . S
C516 C521 1.399 . S
C517 C516 1.399 . S
C517 C518 1.376 1_554 S
C518 H505 0.930 . S
C518 C517 1.376 1_556 S
C518 C519 1.388 . S
C519 H506 0.930 . S
C519 C518 1.388 . S
C519 C520 1.390 . S
C520 C519 1.390 . S
C520 C521 1.394 1_556 S
C520 C526 1.465 . S
C521 C516 1.399 . S
C521 C520 1.394 1_554 S
C521 C522 1.516 . S
C522 C521 1.516 . S
C522 C523 1.502 . S
C522 C524 1.561 . S
C522 C525 1.526 . S
C523 H507 0.959 . S
C523 H508 0.959 . S
C523 H509 0.961 . S
C523 C522 1.502 . S
C524 H510 0.960 . S
C524 H511 0.961 . S
C524 H512 0.959 . S
C524 C522 1.561 . S
C525 C522 1.526 . S
C525 C526 1.396 1_554 S
C525 C530 1.390 . S
C526 C520 1.465 . S
C526 C525 1.396 1_556 S
C526 C527 1.399 . S
C527 H513 0.929 . S
C527 C526 1.399 . S
C527 C528 1.385 . S
C528 H514 0.931 . S
C528 C527 1.385 . S
C528 C529 1.389 . S
C529 C528 1.389 . S
C529 C530 1.387 1_556 S
C530 H515 0.930 . S
C530 C525 1.390 . S
C530 C529 1.387 1_554 S
H531 C543 0.930 . S
H532 C545 0.930 . S
H533 C546 0.930 . S
H534 C550 0.959 . S
H535 C550 0.959 . S
H536 C550 0.961 . S
H537 C551 0.960 . S
H538 C551 0.961 . S
H539 C551 0.959 1_554 S
H540 C554 0.929 . S
H541 C555 0.931 . S
H542 C557 0.930 . S
C543 H531 0.930 . S
C543 C544 1.399 1_556 S
C543 C548 1.399 . S
C544 C543 1.399 1_554 S
C544 C545 1.376 . S
C545 H532 0.930 . S
C545 C544 1.376 . S
C545 C546 1.388 . S
C546 H533 0.930 . S
C546 C545 1.388 . S
C546 C547 1.390 . S
C547 C546 1.390 . S
C547 C548 1.394 1_554 S
C547 C553 1.465 . S
C548 C543 1.399 . S
C548 C547 1.394 1_556 S
C548 C549 1.516 . S
C549 C548 1.516 . S
C549 C550 1.502 . S
C549 C551 1.561 . S
C549 C552 1.526 . S
C550 H534 0.959 . S
C550 H535 0.959 . S
C550 H536 0.961 . S
C550 C549 1.502 . S
C551 H537 0.960 . S
C551 H538 0.961 . S
C551 H539 0.959 1_556 S
C551 C549 1.561 . S
C552 C549 1.526 . S
C552 C553 1.396 1_556 S
C552 C557 1.390 . S
C553 C547 1.465 . S
C553 C552 1.396 1_554 S
C553 C554 1.399 . S
C554 H540 0.929 . S
C554 C553 1.399 . S
C554 C555 1.385 . S
C555 H541 0.931 . S
C555 C554 1.385 . S
C555 C556 1.389 1_554 S
C556 C555 1.389 1_556 S
C556 C557 1.387 . S
C557 H542 0.930 . S
C557 C552 1.390 . S
C557 C556 1.387 . S
H558 C570 0.930 . S
H559 C572 0.930 . S
H560 C573 0.930 . S
H561 C577 0.959 . S
H562 C577 0.959 . S
H563 C577 0.961 . S
H564 C578 0.960 . S
H565 C578 0.961 . S
H566 C578 0.959 . S
H567 C581 0.929 . S
H568 C582 0.931 . S
H569 C584 0.930 . S
C570 H558 0.930 . S
C570 C571 1.399 1_556 S
C570 C575 1.399 . S
C571 C570 1.399 1_554 S
C571 C572 1.376 . S
C572 H559 0.930 . S
C572 C571 1.376 . S
C572 C573 1.388 . S
C573 H560 0.930 . S
C573 C572 1.388 . S
C573 C574 1.390 . S
C574 C573 1.390 . S
C574 C575 1.394 1_554 S
C574 C580 1.465 . S
C575 C570 1.399 . S
C575 C574 1.394 1_556 S
C575 C576 1.516 . S
C576 C575 1.516 . S
C576 C577 1.502 . S
C576 C578 1.561 . S
C576 C579 1.526 . S
C577 H561 0.959 . S
C577 H562 0.959 . S
C577 H563 0.961 . S
C577 C576 1.502 . S
C578 H564 0.960 . S
C578 H565 0.961 . S
C578 H566 0.959 . S
C578 C576 1.561 . S
C579 C576 1.526 . S
C579 C580 1.396 1_556 S
C579 C584 1.390 . S
C580 C574 1.465 . S
C580 C579 1.396 1_554 S
C580 C581 1.399 . S
C581 H567 0.929 . S
C581 C580 1.399 . S
C581 C582 1.385 . S
C582 H568 0.931 . S
C582 C581 1.385 . S
C582 C583 1.389 1_554 S
C583 C582 1.389 1_556 S
C583 C584 1.387 . S
C584 H569 0.930 . S
C584 C579 1.390 . S
C584 C583 1.387 . S
H585 C597 0.930 . S
H586 C599 0.930 . S
H587 C600 0.930 . S
H588 C604 0.959 . S
H589 C604 0.959 . S
H590 C604 0.961 . S
H591 C605 0.960 . S
H592 C605 0.961 . S
H593 C605 0.959 . S
H594 C608 0.929 . S
H595 C609 0.931 . S
H596 C611 0.930 . S
C597 H585 0.930 . S
C597 C598 1.399 . S
C597 C602 1.399 . S
C598 C597 1.399 . S
C598 C599 1.376 1_556 S
C599 H586 0.930 . S
C599 C598 1.376 1_554 S
C599 C600 1.388 . S
C600 H587 0.930 . S
C600 C599 1.388 . S
C600 C601 1.390 . S
C601 C600 1.390 . S
C601 C602 1.394 1_554 S
C601 C607 1.465 . S
C602 C597 1.399 . S
C602 C601 1.394 1_556 S
C602 C603 1.516 . S
C603 C602 1.516 . S
C603 C604 1.502 . S
C603 C605 1.561 . S
C603 C606 1.526 . S
C604 H588 0.959 . S
C604 H589 0.959 . S
C604 H590 0.961 . S
C604 C603 1.502 . S
C605 H591 0.960 . S
C605 H592 0.961 . S
C605 H593 0.959 . S
C605 C603 1.561 . S
C606 C603 1.526 . S
C606 C607 1.396 1_556 S
C606 C611 1.390 . S
C607 C601 1.465 . S
C607 C606 1.396 1_554 S
C607 C608 1.399 . S
C608 H594 0.929 . S
C608 C607 1.399 . S
C608 C609 1.385 . S
C609 H595 0.931 . S
C609 C608 1.385 . S
C609 C610 1.389 . S
C610 C609 1.389 . S
C610 C611 1.387 1_554 S
C611 H596 0.930 . S
C611 C606 1.390 . S
C611 C610 1.387 1_556 S
H612 C624 0.930 . S
H613 C626 0.930 . S
H614 C627 0.930 . S
H615 C631 0.959 . S
H616 C631 0.959 . S
H617 C631 0.961 . S
H618 C632 0.960 . S
H619 C632 0.961 . S
H620 C632 0.959 . S
H621 C635 0.929 1_655 S
H622 C636 0.931 . S
H623 C638 0.930 . S
C624 H612 0.930 . S
C624 C625 1.399 . S
C624 C629 1.399 . S
C625 C624 1.399 . S
C625 C626 1.376 . S
C626 H613 0.930 . S
C626 C625 1.376 . S
C626 C627 1.388 . S
C627 H614 0.930 . S
C627 C626 1.388 . S
C627 C628 1.390 . S
C628 C627 1.390 . S
C628 C629 1.394 . S
C628 C634 1.454 1_655 S
C629 C624 1.399 . S
C629 C628 1.394 . S
C629 C630 1.516 1_655 S
C630 C629 1.516 1_455 S
C630 C631 1.502 . S
C630 C632 1.561 1_455 S
C630 C633 1.526 . S
C631 H615 0.959 . S
C631 H616 0.959 . S
C631 H617 0.961 . S
C631 C630 1.502 . S
C632 H618 0.960 . S
C632 H619 0.961 . S
C632 H620 0.959 . S
C632 C630 1.561 1_655 S
C633 C630 1.526 . S
C633 C634 1.407 . S
C633 C638 1.390 . S
C634 C628 1.454 1_455 S
C634 C633 1.407 . S
C634 C635 1.401 . S
C635 H621 0.929 1_455 S
C635 C634 1.401 . S
C635 C636 1.385 . S
C636 H622 0.931 . S
C636 C635 1.385 . S
C636 C637 1.389 . S
C637 C636 1.389 . S
C637 C638 1.387 . S
C638 H623 0.930 . S
C638 C633 1.390 . S
C638 C637 1.387 . S
H639 C651 0.930 . S
H640 C653 0.930 . S
H641 C654 0.930 . S
H642 C658 0.959 . S
H643 C658 0.959 . S
H644 C658 0.961 . S
H645 C659 0.960 . S
H646 C659 0.961 . S
H647 C659 0.959 1_565 S
H648 C662 0.929 . S
H649 C663 0.931 . S
H650 C665 0.930 . S
C651 H639 0.930 . S
C651 C652 1.399 . S
C651 C656 1.399 . S
C652 C651 1.399 . S
C652 C653 1.376 . S
C653 H640 0.930 . S
C653 C652 1.376 . S
C653 C654 1.388 1_545 S
C654 H641 0.930 . S
C654 C653 1.388 1_565 S
C654 C655 1.390 . S
C655 C654 1.390 . S
C655 C656 1.394 1_565 S
C655 C661 1.465 . S
C656 C651 1.399 . S
C656 C655 1.394 1_545 S
C656 C657 1.516 . S
C657 C656 1.516 . S
C657 C658 1.502 . S
C657 C659 1.561 . S
C657 C660 1.526 1_545 S
C658 H642 0.959 . S
C658 H643 0.959 . S
C658 H644 0.961 . S
C658 C657 1.502 . S
C659 H645 0.960 . S
C659 H646 0.961 . S
C659 H647 0.959 1_545 S
C659 C657 1.561 . S
C660 C657 1.526 1_565 S
C660 C661 1.396 . S
C660 C665 1.390 . S
C661 C655 1.465 . S
C661 C660 1.396 . S
C661 C662 1.399 . S
C662 H648 0.929 . S
C662 C661 1.399 . S
C662 C663 1.385 . S
C663 H649 0.931 . S
C663 C662 1.385 . S
C663 C664 1.389 . S
C664 C663 1.389 . S
C664 C665 1.387 . S
C665 H650 0.930 . S
C665 C660 1.390 . S
C665 C664 1.387 . S
H666 C678 0.930 . S
H667 C680 0.930 . S
H668 C681 0.930 . S
H669 C685 0.959 . S
H670 C685 0.959 . S
H671 C685 0.961 . S
H672 C686 0.960 1_545 S
H673 C686 0.961 . S
H674 C686 0.959 . S
H675 C689 0.929 . S
H676 C690 0.931 . S
H677 C692 0.930 . S
C678 H666 0.930 . S
C678 C679 1.399 . S
C678 C683 1.399 . S
C679 C678 1.399 . S
C679 C680 1.376 1_556 S
C680 H667 0.930 . S
C680 C679 1.376 1_554 S
C680 C681 1.388 . S
C681 H668 0.930 . S
C681 C680 1.388 . S
C681 C682 1.390 1_554 S
C682 C681 1.390 1_556 S
C682 C683 1.394 . S
C682 C688 1.466 1_545 S
C683 C678 1.399 . S
C683 C682 1.394 . S
C683 C684 1.516 . S
C684 C683 1.516 . S
C684 C685 1.502 . S
C684 C686 1.561 1_545 S
C684 C687 1.526 1_545 S
C685 H669 0.959 . S
C685 H670 0.959 . S
C685 H671 0.961 . S
C685 C684 1.502 . S
C686 H672 0.960 1_565 S
C686 H673 0.961 . S
C686 H674 0.959 . S
C686 C684 1.561 1_565 S
C687 C684 1.526 1_565 S
C687 C688 1.422 . S
C687 C692 1.390 . S
C688 C682 1.466 1_565 S
C688 C687 1.422 . S
C688 C689 1.378 1_556 S
C689 H675 0.929 . S
C689 C688 1.378 1_554 S
C689 C690 1.385 . S
C690 H676 0.931 . S
C690 C689 1.385 . S
C690 C691 1.389 1_554 S
C691 C690 1.389 1_556 S
C691 C692 1.387 . S
C692 H677 0.930 . S
C692 C687 1.390 . S
C692 C691 1.387 . S
H693 C705 0.947 . S
H694 C707 0.930 . S
H695 C708 0.930 . S
H696 C712 0.959 1_554 S
H697 C712 0.959 . S
H698 C712 0.961 . S
H699 C713 0.960 . S
H700 C713 0.961 1_655 S
H701 C713 0.959 1_655 S
H702 C716 0.929 . S
H703 C717 0.931 . S
H704 C719 0.943 . S
C705 H693 0.947 . S
C705 C706 1.385 1_556 S
C705 C710 1.396 1_556 S
C706 C705 1.385 1_554 S
C706 C707 1.376 . S
C707 H694 0.930 . S
C707 C706 1.376 . S
C707 C708 1.388 . S
C708 H695 0.930 . S
C708 C707 1.388 . S
C708 C709 1.390 . S
C709 C708 1.390 . S
C709 C710 1.394 . S
C709 C715 1.465 1_455 S
C710 C705 1.396 1_554 S
C710 C709 1.394 . S
C710 C711 1.516 1_554 S
C711 C710 1.516 1_556 S
C711 C712 1.502 . S
C711 C713 1.561 . S
C711 C714 1.526 1_456 S
C712 H696 0.959 1_556 S
C712 H697 0.959 . S
C712 H698 0.961 . S
C712 C711 1.502 . S
C713 H699 0.960 . S
C713 H700 0.961 1_455 S
C713 H701 0.959 1_455 S
C713 C711 1.561 . S
C714 C711 1.526 1_654 S
C714 C715 1.396 . S
C714 C719 1.388 1_554 S
C715 C709 1.465 1_655 S
C715 C714 1.396 . S
C715 C716 1.399 . S
C716 H702 0.929 . S
C716 C715 1.399 . S
C716 C717 1.385 . S
C717 H703 0.931 . S
C717 C716 1.385 . S
C717 C718 1.389 . S
C718 C717 1.389 . S
C718 C719 1.376 1_554 S
C719 H704 0.943 . S
C719 C714 1.388 1_556 S
C719 C718 1.376 1_556 S
C301 C255 1.543 . S
C313 C3 1.531 . S
C328 C39 1.544 . S
C340 C147 1.539 . S
C355 C75 1.541 . S
C367 C183 1.546 . S
C382 C219 1.530 . S
C394 C111 1.546 . S
C409 C40 1.442 . S
C421 C14 1.425 . S
C436 C50 1.355 . S
C448 C76 1.451 . S
C463 C112 1.441 . S
C475 C86 1.429 . S
C490 C122 1.355 . S
C502 C4 1.451 . S
C517 C256 1.448 . S
C529 C158 1.404 . S
C544 C194 1.422 . S
C556 C148 1.443 . S
C571 C184 1.443 . S
C583 C230 1.403 . S
C598 C220 1.442 . S
C610 C266 1.426 . S
C625 C74 0.909 . S
C637 C2 0.839 . S
C652 C110 0.844 . S
C664 C38 0.920 . S
C679 C218 0.985 . S
C691 C146 0.933 . S
C706 C254 0.947 . S
C718 C182 0.838 . S
