# Generated by pormake.
# Topology wnn, (7)-cn, num edge types: 1
# Building blocks:
#     Node 0, Type 0, BuildingBlock: HICVOG_clean_sbu_0, # of connection points: 7
#     Node 1, Type 0, BuildingBlock: HICVOG_clean_sbu_0, # of connection points: 7
#     Node 2, Type 0, BuildingBlock: HICVOG_clean_sbu_0, # of connection points: 7
#     Node 3, Type 0, BuildingBlock: HICVOG_clean_sbu_0, # of connection points: 7
#     Node 4, Type 0, BuildingBlock: HICVOG_clean_sbu_0, # of connection points: 7
#     Node 5, Type 0, BuildingBlock: HICVOG_clean_sbu_0, # of connection points: 7
#     Node 6, Type 0, BuildingBlock: HICVOG_clean_sbu_0, # of connection points: 7
#     Node 7, Type 0, BuildingBlock: HICVOG_clean_sbu_0, # of connection points: 7
#     Node 8, Type 0, BuildingBlock: HICVOG_clean_sbu_0, # of connection points: 7
#     Node 9, Type 0, BuildingBlock: HICVOG_clean_sbu_0, # of connection points: 7
#     Node 10, Type 0, BuildingBlock: HICVOG_clean_sbu_0, # of connection points: 7
#     Node 11, Type 0, BuildingBlock: HICVOG_clean_sbu_0, # of connection points: 7
#     Node 12, Type 0, BuildingBlock: HICVOG_clean_sbu_0, # of connection points: 7
#     Node 13, Type 0, BuildingBlock: HICVOG_clean_sbu_0, # of connection points: 7
#     Node 14, Type 0, BuildingBlock: HICVOG_clean_sbu_0, # of connection points: 7
#     Node 15, Type 0, BuildingBlock: HICVOG_clean_sbu_0, # of connection points: 7
#     Node 16, Type 0, BuildingBlock: HICVOG_clean_sbu_0, # of connection points: 7
#     Node 17, Type 0, BuildingBlock: HICVOG_clean_sbu_0, # of connection points: 7
#     Edge 18, Type (0, 0), BuildingBlock: CIFDUS_clean_linker_0, # of connection points: 2
#     Edge 19, Type (0, 0), BuildingBlock: CIFDUS_clean_linker_0, # of connection points: 2
#     Edge 20, Type (0, 0), BuildingBlock: CIFDUS_clean_linker_0, # of connection points: 2
#     Edge 21, Type (0, 0), BuildingBlock: CIFDUS_clean_linker_0, # of connection points: 2
#     Edge 22, Type (0, 0), BuildingBlock: CIFDUS_clean_linker_0, # of connection points: 2
#     Edge 23, Type (0, 0), BuildingBlock: CIFDUS_clean_linker_0, # of connection points: 2
#     Edge 24, Type (0, 0), BuildingBlock: CIFDUS_clean_linker_0, # of connection points: 2
#     Edge 25, Type (0, 0), BuildingBlock: CIFDUS_clean_linker_0, # of connection points: 2
#     Edge 26, Type (0, 0), BuildingBlock: CIFDUS_clean_linker_0, # of connection points: 2
#     Edge 27, Type (0, 0), BuildingBlock: CIFDUS_clean_linker_0, # of connection points: 2
#     Edge 28, Type (0, 0), BuildingBlock: CIFDUS_clean_linker_0, # of connection points: 2
#     Edge 29, Type (0, 0), BuildingBlock: CIFDUS_clean_linker_0, # of connection points: 2
#     Edge 30, Type (0, 0), BuildingBlock: CIFDUS_clean_linker_0, # of connection points: 2
#     Edge 31, Type (0, 0), BuildingBlock: CIFDUS_clean_linker_0, # of connection points: 2
#     Edge 32, Type (0, 0), BuildingBlock: CIFDUS_clean_linker_0, # of connection points: 2
#     Edge 33, Type (0, 0), BuildingBlock: CIFDUS_clean_linker_0, # of connection points: 2
#     Edge 34, Type (0, 0), BuildingBlock: CIFDUS_clean_linker_0, # of connection points: 2
#     Edge 35, Type (0, 0), BuildingBlock: CIFDUS_clean_linker_0, # of connection points: 2
#     Edge 36, Type (0, 0), BuildingBlock: CIFDUS_clean_linker_0, # of connection points: 2
#     Edge 37, Type (0, 0), BuildingBlock: CIFDUS_clean_linker_0, # of connection points: 2
#     Edge 38, Type (0, 0), BuildingBlock: CIFDUS_clean_linker_0, # of connection points: 2
#     Edge 39, Type (0, 0), BuildingBlock: CIFDUS_clean_linker_0, # of connection points: 2
#     Edge 40, Type (0, 0), BuildingBlock: CIFDUS_clean_linker_0, # of connection points: 2
#     Edge 41, Type (0, 0), BuildingBlock: CIFDUS_clean_linker_0, # of connection points: 2
#     Edge 42, Type (0, 0), BuildingBlock: CIFDUS_clean_linker_0, # of connection points: 2
#     Edge 43, Type (0, 0), BuildingBlock: CIFDUS_clean_linker_0, # of connection points: 2
#     Edge 44, Type (0, 0), BuildingBlock: CIFDUS_clean_linker_0, # of connection points: 2
#     Edge 45, Type (0, 0), BuildingBlock: CIFDUS_clean_linker_0, # of connection points: 2
#     Edge 46, Type (0, 0), BuildingBlock: CIFDUS_clean_linker_0, # of connection points: 2
#     Edge 47, Type (0, 0), BuildingBlock: CIFDUS_clean_linker_0, # of connection points: 2
#     Edge 48, Type (0, 0), BuildingBlock: CIFDUS_clean_linker_0, # of connection points: 2
#     Edge 49, Type (0, 0), BuildingBlock: CIFDUS_clean_linker_0, # of connection points: 2
#     Edge 50, Type (0, 0), BuildingBlock: CIFDUS_clean_linker_0, # of connection points: 2
#     Edge 51, Type (0, 0), BuildingBlock: CIFDUS_clean_linker_0, # of connection points: 2
#     Edge 52, Type (0, 0), BuildingBlock: CIFDUS_clean_linker_0, # of connection points: 2
#     Edge 53, Type (0, 0), BuildingBlock: CIFDUS_clean_linker_0, # of connection points: 2
#     Edge 54, Type (0, 0), BuildingBlock: CIFDUS_clean_linker_0, # of connection points: 2
#     Edge 55, Type (0, 0), BuildingBlock: CIFDUS_clean_linker_0, # of connection points: 2
#     Edge 56, Type (0, 0), BuildingBlock: CIFDUS_clean_linker_0, # of connection points: 2
#     Edge 57, Type (0, 0), BuildingBlock: CIFDUS_clean_linker_0, # of connection points: 2
#     Edge 58, Type (0, 0), BuildingBlock: CIFDUS_clean_linker_0, # of connection points: 2
#     Edge 59, Type (0, 0), BuildingBlock: CIFDUS_clean_linker_0, # of connection points: 2
#     Edge 60, Type (0, 0), BuildingBlock: CIFDUS_clean_linker_0, # of connection points: 2
#     Edge 61, Type (0, 0), BuildingBlock: CIFDUS_clean_linker_0, # of connection points: 2
#     Edge 62, Type (0, 0), BuildingBlock: CIFDUS_clean_linker_0, # of connection points: 2
#     Edge 63, Type (0, 0), BuildingBlock: CIFDUS_clean_linker_0, # of connection points: 2
#     Edge 64, Type (0, 0), BuildingBlock: CIFDUS_clean_linker_0, # of connection points: 2
#     Edge 65, Type (0, 0), BuildingBlock: CIFDUS_clean_linker_0, # of connection points: 2
#     Edge 66, Type (0, 0), BuildingBlock: CIFDUS_clean_linker_0, # of connection points: 2
#     Edge 67, Type (0, 0), BuildingBlock: CIFDUS_clean_linker_0, # of connection points: 2
#     Edge 68, Type (0, 0), BuildingBlock: CIFDUS_clean_linker_0, # of connection points: 2
#     Edge 69, Type (0, 0), BuildingBlock: CIFDUS_clean_linker_0, # of connection points: 2
#     Edge 70, Type (0, 0), BuildingBlock: CIFDUS_clean_linker_0, # of connection points: 2
#     Edge 71, Type (0, 0), BuildingBlock: CIFDUS_clean_linker_0, # of connection points: 2
#     Edge 72, Type (0, 0), BuildingBlock: CIFDUS_clean_linker_0, # of connection points: 2
#     Edge 73, Type (0, 0), BuildingBlock: CIFDUS_clean_linker_0, # of connection points: 2
#     Edge 74, Type (0, 0), BuildingBlock: CIFDUS_clean_linker_0, # of connection points: 2
#     Edge 75, Type (0, 0), BuildingBlock: CIFDUS_clean_linker_0, # of connection points: 2
#     Edge 76, Type (0, 0), BuildingBlock: CIFDUS_clean_linker_0, # of connection points: 2
#     Edge 77, Type (0, 0), BuildingBlock: CIFDUS_clean_linker_0, # of connection points: 2
#     Edge 78, Type (0, 0), BuildingBlock: CIFDUS_clean_linker_0, # of connection points: 2
#     Edge 79, Type (0, 0), BuildingBlock: CIFDUS_clean_linker_0, # of connection points: 2
#     Edge 80, Type (0, 0), BuildingBlock: CIFDUS_clean_linker_0, # of connection points: 2
# Relax obj value: 0.223
# Max RMSD: 0.236
# Mean RMSD: 0.236
data_MOF--net-wnn--node1-HICVOG_clean_sbu_0--edge1-CIFDUS_clean_linker_0
_symmetry_space_group_name_H-M    P1
_symmetry_Int_Tables_number       1
_symmetry_cell_setting            triclinic
loop_
_symmetry_equiv_pos_as_xyz
'x, y, z'
_cell_length_a     59.632495
_cell_length_b     59.7465
_cell_length_c     17.627611
_cell_angle_alpha  90.079755
_cell_angle_beta   90.027473
_cell_angle_gamma 120.13768
loop_
_atom_site_label
_atom_site_type_symbol
_atom_site_fract_x
_atom_site_fract_y
_atom_site_fract_z
_atom_type_partial_charge
Zn0 Zn 0.17606 0.23677 0.30843 0.0
C1 C 0.18122 0.18685 0.45434 0.0
N2 N 0.15805 0.18238 0.47975 0.0
C3 C 0.15439 0.19986 0.4412 0.0
N4 N 0.17436 0.21418 0.39303 0.0
N5 N 0.19152 0.20644 0.4037 0.0
C6 C 0.22947 0.19837 0.22455 0.0
O7 O 0.22818 0.21806 0.19661 0.0
O8 O 0.16278 0.26145 0.33095 0.0
Zn9 Zn 0.22775 0.22131 0.36892 0.0
N10 N 0.16041 0.21589 0.21757 0.0
C11 C 0.15542 0.18012 0.1447 0.0
C12 C 0.16403 0.19529 0.20986 0.0
C13 C 0.14815 0.22184 0.1624 0.0
N14 N 0.14347 0.1861 0.08952 0.0
C15 C 0.13938 0.2065 0.09594 0.0
O16 O 0.24345 0.25653 0.31903 0.0
C17 C 0.23617 0.27084 0.28673 0.0
O18 O 0.21235 0.26388 0.2812 0.0
H19 H 0.17399 0.19097 0.2536 0.0
H20 H 0.14599 0.23866 0.16932 0.0
C21 C 0.27482 0.23274 0.45616 0.0
C22 C 0.29014 0.24072 0.52273 0.0
C23 C 0.25426 0.2369 0.59175 0.0
C24 C 0.23948 0.2299 0.52575 0.0
N25 N 0.24973 0.22762 0.45917 0.0
N26 N 0.27923 0.24246 0.58854 0.0
H27 H 0.28309 0.2319 0.40233 0.0
C28 C 0.17666 0.27891 0.37918 0.0
O29 O 0.1923 0.27512 0.42289 0.0
O30 O 0.23019 0.19618 0.29625 0.0
H31 H 0.22017 0.22713 0.52756 0.0
H32 H 0.15842 0.16382 0.13764 0.0
H33 H 0.24621 0.23872 0.64484 0.0
Zn34 Zn 0.81242 0.9537 0.30985 0.0
C35 C 0.86235 1.00618 0.46688 0.0
N36 N 0.86483 0.98583 0.48704 0.0
C37 C 0.84848 0.96672 0.4408 0.0
N38 N 0.8362 0.97481 0.39276 0.0
N39 N 0.84434 0.99954 0.41047 0.0
C40 C 0.87609 0.04793 0.2724 0.0
O41 O 0.88236 0.03273 0.309 0.0
O42 O 0.78742 0.91621 0.33816 0.0
Zn43 Zn 0.83038 0.02159 0.37109 0.0
N44 N 0.83091 0.9554 0.21709 0.0
C45 C 0.85873 0.98256 0.11941 0.0
C46 C 0.8469 0.97951 0.18972 0.0
C47 C 0.826 0.93394 0.17636 0.0
N48 N 0.85367 0.96129 0.07837 0.0
C49 C 0.8376 0.9369 0.10454 0.0
O50 O 0.79472 1.00216 0.32033 0.0
C51 C 0.78006 0.98096 0.286 0.0
O52 O 0.78636 0.96373 0.27958 0.0
H53 H 0.84968 0.99615 0.22142 0.0
H54 H 0.81247 0.91494 0.19831 0.0
C55 C 0.81655 0.05645 0.45388 0.0
C56 C 0.80682 0.06279 0.51861 0.0
C57 C 0.81168 0.03195 0.59028 0.0
C58 C 0.82011 0.02491 0.52591 0.0
N59 N 0.82295 0.03745 0.45904 0.0
N60 N 0.80492 0.05037 0.58492 0.0
H61 H 0.81749 0.0653 0.39956 0.0
C62 C 0.76714 0.91275 0.37278 0.0
O63 O 0.76733 0.93285 0.40379 0.0
O64 O 0.85524 0.04763 0.29072 0.0
H65 H 0.82333 1.00874 0.52912 0.0
H66 H 0.87142 1.00171 0.09689 0.0
H67 H 0.80952 0.02211 0.64357 0.0
Zn68 Zn 0.09964 0.87156 0.32732 0.0
C69 C 0.0411 0.86325 0.46738 0.0
N70 N 0.06007 0.88583 0.49575 0.0
C71 C 0.08134 0.8899 0.45754 0.0
N72 N 0.07593 0.87066 0.4073 0.0
N73 N 0.05075 0.85347 0.41484 0.0
C74 C 1.00604 0.81111 0.22362 0.0
O75 O 1.02407 0.80687 0.19632 0.0
O76 O 0.1365 0.88482 0.36327 0.0
Zn77 Zn 0.03247 0.81797 0.37247 0.0
N78 N 0.09905 0.89194 0.24225 0.0
C79 C 0.07448 0.90551 0.16922 0.0
C80 C 0.07678 0.89252 0.23152 0.0
C81 C 0.11928 0.90394 0.19286 0.0
N82 N 0.09451 0.91734 0.11976 0.0
C83 C 0.11705 0.91709 0.12934 0.0
O84 O 0.05433 0.80541 0.3208 0.0
C85 C 0.07599 0.81327 0.28811 0.0
O86 O 0.09271 0.83717 0.28531 0.0
H87 H 0.06079 0.88262 0.2706 0.0
H88 H 0.13649 0.90257 0.20204 0.0
C89 C 0.99825 0.7694 0.45658 0.0
C90 C 0.99222 0.7537 0.52174 0.0
C91 C 1.02581 0.78898 0.58928 0.0
C92 C 0.03221 0.8042 0.52456 0.0
N93 N 1.01834 0.79436 0.45952 0.0
N94 N 1.00625 0.76411 0.58614 0.0
H95 H 0.98796 0.7616 0.40377 0.0
C96 C 0.13928 0.86729 0.39562 0.0
O97 O 0.11853 0.84675 0.42174 0.0
O98 O 1.00568 0.81518 0.29439 0.0
H99 H 0.04864 0.82362 0.52588 0.0
H100 H 0.05682 0.90603 0.1598 0.0
H101 H 0.03674 0.79665 0.64119 0.0
Zn102 Zn 0.87947 0.80092 0.6928 0.0
C103 C 0.87351 0.85307 0.56075 0.0
N104 N 0.89826 0.86047 0.54341 0.0
C105 C 0.9018 0.84221 0.57715 0.0
N106 N 0.88032 0.82468 0.61498 0.0
N107 N 0.86238 0.83134 0.60373 0.0
C108 C 0.82369 0.83674 0.78012 0.0
O109 O 0.82898 0.81943 0.80724 0.0
O110 O 0.89286 0.7774 0.6584 0.0
Zn111 Zn 0.82569 0.81373 0.63613 0.0
N112 N 0.89851 0.82098 0.78039 0.0
C113 C 0.90852 0.85646 0.86222 0.0
C114 C 0.89648 0.84208 0.79736 0.0
C115 C 0.91229 0.81369 0.82545 0.0
N116 N 0.92209 0.84914 0.9076 0.0
C117 C 0.92449 0.82814 0.89126 0.0
O118 O 0.81195 0.77895 0.68825 0.0
C119 C 0.82003 0.76575 0.72328 0.0
O120 O 0.84407 0.77363 0.72887 0.0
H121 H 0.88528 0.84744 0.76124 0.0
H122 H 0.91305 0.79647 0.81113 0.0
C123 C 0.77743 0.79344 0.5484 0.0
C124 C 0.76278 0.78454 0.48087 0.0
C125 C 0.80172 0.80153 0.41005 0.0
C126 C 0.81609 0.80948 0.47677 0.0
N127 N 0.80391 0.80562 0.54484 0.0
N128 N 0.77552 0.78902 0.41368 0.0
H129 H 0.76793 0.78953 0.60304 0.0
C130 C 0.87558 0.75715 0.62463 0.0
O131 O 0.85531 0.75736 0.5963 0.0
O132 O 0.82064 0.83752 0.70873 0.0
H133 H 0.8368 0.81779 0.47379 0.0
H134 H 0.90695 0.87322 0.87677 0.0
H135 H 0.81129 0.80455 0.3558 0.0
Zn136 Zn 0.24396 0.08628 0.69348 0.0
C137 C 0.19534 0.03262 0.53996 0.0
N138 N 0.19136 0.05181 0.51708 0.0
C139 C 0.20739 0.07186 0.56177 0.0
N140 N 0.22087 0.06526 0.61024 0.0
N141 N 0.21371 0.04068 0.5951 0.0
C142 C 0.21055 0.9928 0.77991 0.0
O143 O 0.23436 1.00844 0.80321 0.0
O144 O 0.26754 0.12429 0.6685 0.0
Zn145 Zn 0.22915 0.01995 0.63265 0.0
N146 N 0.22422 0.08223 0.78476 0.0
C147 C 0.19384 0.05373 0.8755 0.0
C148 C 0.2069 0.05774 0.80685 0.0
C149 C 0.22895 0.10302 0.82827 0.0
N150 N 0.19865 0.0744 0.9193 0.0
C151 C 0.21579 0.09911 0.89764 0.0
O152 O 0.26483 0.04032 0.68083 0.0
C153 C 0.27892 0.06165 0.71507 0.0
O154 O 0.27156 0.07805 0.72276 0.0
H155 H 0.20365 0.04148 0.77193 0.0
H156 H 0.24331 0.12224 0.80991 0.0
C157 C 0.24203 0.98466 0.55032 0.0
C158 C 0.25123 0.97774 0.48559 0.0
C159 C 0.24618 1.00826 0.41278 0.0
C160 C 0.23827 1.01586 0.47716 0.0
N161 N 0.2358 1.00375 0.54459 0.0
N162 N 0.2528 0.98974 0.41868 0.0
H163 H 0.24139 0.97618 0.60506 0.0
C164 C 0.288 0.1286 0.63333 0.0
O165 O 0.2881 0.1092 0.59842 0.0
O166 O 0.20469 0.99375 0.71087 0.0
H167 H 0.23516 0.03211 0.47352 0.0
H168 H 0.18014 0.03432 0.8942 0.0
H169 H 0.24804 1.01774 0.359 0.0
Zn170 Zn 0.95869 0.17174 0.69988 0.0
C171 C 1.01409 0.17415 0.56175 0.0
N172 N 0.99475 0.15151 0.5347 0.0
C173 C 0.97357 0.14939 0.56963 0.0
N174 N 0.97974 0.16963 0.61691 0.0
N175 N 1.00516 0.18554 0.60992 0.0
C176 C 0.04872 0.22677 0.79992 0.0
O177 O 0.02928 0.2303 0.81676 0.0
O178 O 0.92056 0.15761 0.67719 0.0
Zn179 Zn 1.0271 0.22142 0.64776 0.0
N180 N 0.96434 0.15706 0.79163 0.0
C181 C 0.99635 0.15492 0.8665 0.0
C182 C 0.98934 0.16311 0.80168 0.0
C183 C 0.94579 0.14299 0.84452 0.0
N184 N 0.97804 0.14096 0.91906 0.0
C185 C 0.95277 0.13456 0.91089 0.0
O186 O 1.00719 0.23797 0.68928 0.0
C187 C 0.98527 0.23153 0.71841 0.0
O188 O 0.96778 0.20799 0.72462 0.0
H189 H 1.00381 0.17448 0.75976 0.0
H190 H 0.92607 0.13846 0.83443 0.0
C191 C 0.06422 0.26925 0.56766 0.0
C192 C 0.07306 0.28507 0.50243 0.0
C193 C 0.04483 0.24906 0.42635 0.0
C194 C 0.03539 0.23376 0.49086 0.0
N195 N 0.04542 0.24378 0.56036 0.0
N196 N 0.0631 0.27434 0.43369 0.0
H197 H 0.0711 0.27738 0.62351 0.0
C198 C 0.91641 0.17054 0.6273 0.0
O199 O 0.93553 0.18582 0.58209 0.0
O200 O 0.05218 0.22291 0.73077 0.0
H201 H 1.0194 0.21428 0.48518 0.0
H202 H 1.01624 0.15971 0.87529 0.0
H203 H 0.03699 0.24115 0.371 0.0
Zn204 Zn 0.84221 0.56982 0.64857 0.0
C205 C 0.84854 0.51991 0.79094 0.0
N206 N 0.82649 0.51674 0.82192 0.0
C207 C 0.82284 0.53446 0.78484 0.0
N208 N 0.8418 0.5478 0.73289 0.0
N209 N 0.85843 0.53919 0.73922 0.0
C210 C 0.89546 0.53625 0.54792 0.0
O211 O 0.89374 0.55672 0.53097 0.0
O212 O 0.82687 0.59242 0.67439 0.0
Zn213 Zn 0.89433 0.55425 0.69988 0.0
N214 N 0.82597 0.54855 0.55832 0.0
C215 C 0.82012 0.51222 0.48655 0.0
C216 C 0.82884 0.52746 0.55158 0.0
C217 C 0.81435 0.55492 0.50207 0.0
N218 N 0.80887 0.51865 0.43036 0.0
C219 C 0.80554 0.53954 0.43562 0.0
O220 O 0.90896 0.59001 0.65535 0.0
C221 C 0.90192 0.6047 0.62439 0.0
O222 O 0.87813 0.59788 0.61805 0.0
H223 H 0.83838 0.52283 0.59582 0.0
H224 H 0.81282 0.57213 0.50798 0.0
C225 C 0.94375 0.5675 0.77834 0.0
C226 C 0.96015 0.57583 0.84289 0.0
C227 C 0.92433 0.56823 0.91945 0.0
C228 C 0.90848 0.56103 0.85564 0.0
N229 N 0.91811 0.56032 0.78622 0.0
N230 N 0.94971 0.57575 0.9115 0.0
H231 H 0.95155 0.5681 0.72248 0.0
C232 C 0.84287 0.61258 0.7112 0.0
O233 O 0.86248 0.6126 0.74532 0.0
O234 O 0.89628 0.53095 0.61757 0.0
H235 H 0.88886 0.55708 0.86164 0.0
H236 H 0.82256 0.49555 0.48031 0.0
H237 H 0.91671 0.56875 0.9747 0.0
Zn238 Zn 0.47549 0.27972 0.66733 0.0
C239 C 0.52541 0.33857 0.8089 0.0
N240 N 0.52926 0.31988 0.83767 0.0
C241 C 0.5125 0.29848 0.79867 0.0
N242 N 0.49865 0.3036 0.74749 0.0
N243 N 0.50624 0.32865 0.75519 0.0
C244 C 0.50995 0.37098 0.56151 0.0
O245 O 0.49031 0.35013 0.53206 0.0
O246 O 0.45278 0.24268 0.70206 0.0
Zn247 Zn 0.4886 0.34648 0.71196 0.0
N248 N 0.496 0.28117 0.57968 0.0
C249 C 0.53191 0.30737 0.49996 0.0
C250 C 0.51737 0.3044 0.56481 0.0
C251 C 0.48853 0.26058 0.53201 0.0
N252 N 0.52446 0.28699 0.45222 0.0
C253 C 0.50315 0.26346 0.46594 0.0
O254 O 0.45401 0.32432 0.66111 0.0
C255 C 0.43978 0.3024 0.63037 0.0
O256 O 0.44689 0.28567 0.62819 0.0
H257 H 0.52278 0.32064 0.6025 0.0
H258 H 0.47101 0.24256 0.54442 0.0
C259 C 0.47259 0.37971 0.79409 0.0
C260 C 0.46214 0.38533 0.85843 0.0
C261 C 0.46566 0.35328 0.92807 0.0
C262 C 0.4752 0.34724 0.86417 0.0
N263 N 0.47875 0.36057 0.79849 0.0
N264 N 0.45913 0.3719 0.92352 0.0
H265 H 0.47462 0.38947 0.74071 0.0
C266 C 0.43237 0.23935 0.73542 0.0
O267 O 0.43244 0.25968 0.76433 0.0
O268 O 0.51217 0.37336 0.63332 0.0
H269 H 0.47899 0.3314 0.8666 0.0
H270 H 0.54889 0.32581 0.48719 0.0
H271 H 0.46279 0.34277 0.98047 0.0
Zn272 Zn 0.76586 0.20512 0.65515 0.0
C273 C 0.70741 0.20016 0.78416 0.0
N274 N 0.7248 0.22484 0.80199 0.0
C275 C 0.74683 0.22833 0.76947 0.0
N276 N 0.74299 0.20686 0.73179 0.0
N277 N 0.71816 0.18916 0.74149 0.0
C278 C 0.67216 0.14858 0.56346 0.0
O279 O 0.69319 0.14991 0.53533 0.0
O280 O 0.80295 0.21776 0.68726 0.0
Zn281 Zn 0.69824 0.15291 0.70789 0.0
N282 N 0.76409 0.2226 0.56551 0.0
C283 C 0.73698 0.22818 0.47791 0.0
C284 C 0.74008 0.2176 0.54464 0.0
C285 C 0.78534 0.23803 0.52277 0.0
N286 N 0.75806 0.24333 0.43466 0.0
C287 C 0.78231 0.24873 0.45511 0.0
O288 O 0.71841 0.13775 0.65764 0.0
C289 C 0.74031 0.14552 0.62625 0.0
O290 O 0.7571 0.16938 0.62337 0.0
H291 H 0.72343 0.20515 0.57918 0.0
H292 H 0.80412 0.24123 0.54025 0.0
C293 C 0.66477 0.10656 0.79676 0.0
C294 C 0.65783 0.09188 0.86409 0.0
C295 C 0.68799 0.12916 0.93263 0.0
C296 C 0.69542 0.1434 0.8658 0.0
N297 N 0.68363 0.13204 0.79915 0.0
N298 N 0.66969 0.10376 0.9301 0.0
H299 H 0.65631 0.0976 0.74284 0.0
C300 C 0.80553 0.20304 0.73436 0.0
O301 O 0.78523 0.1866 0.77393 0.0
O302 O 0.66978 0.1489 0.63527 0.0
H303 H 0.71105 0.16323 0.86717 0.0
H304 H 0.71795 0.22422 0.46021 0.0
H305 H 0.69724 0.13803 0.98586 0.0
Zn306 Zn 0.49212 0.14858 0.97253 0.0
C307 C 0.56562 0.1698 0.89946 0.0
N308 N 0.56187 0.18649 0.85751 0.0
C309 C 0.53892 0.18279 0.88202 0.0
N310 N 0.52845 0.16391 0.9356 0.0
N311 N 0.54556 0.1561 0.94797 0.0
C312 C 0.54034 0.08869 0.95329 0.0
O313 O 0.52415 0.09248 0.9122 0.0
O314 O 0.49034 0.17337 0.0499 0.0
Zn315 Zn 0.54328 0.13191 0.02867 0.0
N316 N 0.4698 0.14196 0.88295 0.0
C317 C 0.46511 0.13173 0.75093 0.0
C318 C 0.48002 0.13943 0.8166 0.0
C319 C 0.44444 0.13595 0.88631 0.0
N320 N 0.43993 0.12534 0.75448 0.0
C321 C 0.42891 0.12694 0.82026 0.0
O322 O 0.50723 0.10552 0.05793 0.0
C323 C 0.48345 0.09866 0.05369 0.0
O324 O 0.47613 0.11295 0.02149 0.0
H325 H 0.49938 0.14237 0.81475 0.0
H326 H 0.43612 0.13664 0.9402 0.0
C327 C 0.57545 0.14547 0.16461 0.0
C328 C 0.58487 0.15843 0.23445 0.0
C329 C 0.56251 0.1814 0.21239 0.0
C330 C 0.55329 0.16855 0.14349 0.0
N331 N 0.55981 0.15081 0.12105 0.0
N332 N 0.57791 0.17599 0.25619 0.0
H333 H 0.57986 0.13084 0.14598 0.0
C334 C 0.48649 0.16856 0.12074 0.0
O335 O 0.48179 0.14595 0.14603 0.0
O336 O 0.55494 0.10616 1.00061 0.0
H337 H 0.54062 0.1723 0.10857 0.0
H338 H 0.4732 0.12984 0.69801 0.0
H339 H 0.55728 0.19542 0.23128 0.0
Zn340 Zn 0.91147 0.42232 0.04271 0.0
C341 C 0.86335 0.36697 0.89045 0.0
N342 N 0.85847 0.38567 0.86817 0.0
C343 C 0.87485 0.40629 0.91053 0.0
N344 N 0.88929 0.40064 0.95778 0.0
N345 N 0.8827 0.37618 0.94335 0.0
C346 C 0.8811 0.33369 0.12838 0.0
O347 O 0.90077 0.3549 0.15607 0.0
O348 O 0.93308 0.46045 0.01707 0.0
Zn349 Zn 0.90099 0.3584 0.97974 0.0
N350 N 0.89031 0.41591 0.13301 0.0
C351 C 0.85616 0.38386 0.2081 0.0
C352 C 0.87088 0.39105 0.14201 0.0
C353 C 0.8955 0.43412 0.1876 0.0
N354 N 0.86145 0.40182 0.26285 0.0
C355 C 0.88067 0.42691 0.25489 0.0
O356 O 0.93571 0.38016 0.02923 0.0
C357 C 0.94928 0.4013 0.06453 0.0
O358 O 0.94115 0.41704 0.07403 0.0
H359 H 0.86724 0.37679 0.09869 0.0
H360 H 0.91147 0.45363 0.17972 0.0
C361 C 0.91627 0.32626 0.89098 0.0
C362 C 0.92615 0.32102 0.82482 0.0
C363 C 0.92258 0.35383 0.75977 0.0
C364 C 0.91353 0.35944 0.82556 0.0
N365 N 0.91033 0.34554 0.88979 0.0
N366 N 0.92892 0.33502 0.76113 0.0
H367 H 0.91447 0.31604 0.94333 0.0
C368 C 0.95261 0.46465 0.97701 0.0
O369 O 0.95199 0.445 0.94141 0.0
O370 O 0.87824 0.33084 0.05686 0.0
H371 H 0.90975 0.37532 0.82576 0.0
H372 H 0.84082 0.36406 0.21628 0.0
H373 H 0.92519 0.36477 0.70843 0.0
Zn374 Zn 0.69498 0.55338 0.97835 0.0
C375 C 0.64202 0.47793 0.92273 0.0
N376 N 0.66166 0.48011 0.87985 0.0
C377 C 0.68106 0.50431 0.89449 0.0
N378 N 0.67353 0.51672 0.94439 0.0
N379 N 0.64891 0.49994 0.96241 0.0
C380 C 0.5873 0.50558 0.96501 0.0
O381 O 0.60738 0.52185 0.92433 0.0
O382 O 0.72058 0.55606 0.06256 0.0
Zn383 Zn 0.62776 0.50382 0.04177 0.0
N384 N 0.71226 0.57506 0.88898 0.0
C385 C 0.70941 0.57927 0.75527 0.0
C386 C 0.70103 0.5645 0.82101 0.0
C387 C 0.73113 0.60057 0.8937 0.0
N388 N 0.72774 0.60461 0.76009 0.0
C389 C 0.73881 0.61591 0.82739 0.0
O390 O 0.63722 0.54035 0.06799 0.0
C391 C 0.65385 0.56385 0.0553 0.0
O392 O 0.67475 0.57 0.01978 0.0
H393 H 0.68487 0.54501 0.8178 0.0
H394 H 0.73884 0.60915 0.94858 0.0
C395 C 0.60806 0.47105 0.1748 0.0
C396 C 0.61085 0.46057 0.24337 0.0
C397 C 0.65648 0.48262 0.2245 0.0
C398 C 0.65358 0.49288 0.15677 0.0
N399 N 0.62954 0.48706 0.13353 0.0
N400 N 0.63517 0.46687 0.26616 0.0
H401 H 0.58922 0.46713 0.15528 0.0
C402 C 0.71681 0.55978 0.13163 0.0
O403 O 0.69687 0.56255 0.14786 0.0
O404 O 0.59026 0.49124 0.01269 0.0
H405 H 0.67037 0.50562 0.12315 0.0
H406 H 0.70065 0.57093 0.70109 0.0
H407 H 0.67554 0.48725 0.24407 0.0
Zn408 Zn 0.51253 0.90503 0.97687 0.0
C409 C 0.51762 0.854 0.12216 0.0
N410 N 0.49421 0.84954 0.14547 0.0
C411 C 0.4906 0.86679 0.10586 0.0
N412 N 0.51096 0.88139 0.05933 0.0
N413 N 0.5284 0.87399 0.07169 0.0
C414 C 0.57767 0.87935 0.88116 0.0
O415 O 0.58834 0.90435 0.86939 0.0
O416 O 0.49739 0.92814 1.00129 0.0
Zn417 Zn 0.5649 0.89132 0.03416 0.0
N418 N 0.49896 0.88563 0.88258 0.0
C419 C 0.49963 0.85414 0.80134 0.0
C420 C 0.50606 0.86762 0.86971 0.0
C421 C 0.48536 0.89064 0.82941 0.0
N422 N 0.48642 0.85927 0.74808 0.0
C423 C 0.47891 0.87711 0.7596 0.0
O424 O 0.57919 0.92755 0.99534 0.0
C425 C 0.57198 0.94194 0.96374 0.0
O426 O 0.54819 0.93423 0.95327 0.0
H427 H 0.51715 0.86417 0.91186 0.0
H428 H 0.48048 0.90552 0.84031 0.0
C429 C 0.61422 0.90595 0.11493 0.0
C430 C 0.63011 0.91462 0.18043 0.0
C431 C 0.59322 0.90484 0.255 0.0
C432 C 0.57783 0.89727 0.19026 0.0
N433 N 0.58829 0.89753 0.12139 0.0
N434 N 0.61892 0.91358 0.2485 0.0
H435 H 0.62256 0.90729 0.05944 0.0
C436 C 0.51027 0.94528 0.0515 0.0
O437 O 0.52582 0.9417 0.09624 0.0
O438 O 0.56772 0.87017 0.94573 0.0
H439 H 0.55782 0.89223 0.19501 0.0
H440 H 0.50539 0.83992 0.79021 0.0
H441 H 0.58498 0.90461 0.30985 0.0
Zn442 Zn 0.1448 0.61708 0.97682 0.0
C443 C 0.19392 0.67287 0.12356 0.0
N444 N 0.19795 0.65416 0.15119 0.0
C445 C 0.18047 0.63275 0.11309 0.0
N446 N 0.16647 0.6383 0.06309 0.0
N447 N 0.17447 0.66333 0.07191 0.0
C448 C 0.18667 0.7008 0.89767 0.0
O449 O 0.17398 0.67554 0.8899 0.0
O450 O 0.11921 0.57996 1.00656 0.0
Zn451 Zn 0.159 0.68375 0.03391 0.0
N452 N 0.16769 0.61845 0.89475 0.0
C453 C 0.21121 0.63856 0.85023 0.0
C454 C 0.19299 0.63724 0.90186 0.0
C455 C 0.15983 0.6008 0.837 0.0
N456 N 0.20353 0.62091 0.79352 0.0
C457 C 0.17835 0.60193 0.78482 0.0
O458 O 0.12388 0.66291 0.98225 0.0
C459 C 0.11071 0.64224 0.9439 0.0
O460 O 0.11848 0.62611 0.93521 0.0
H461 H 0.19911 0.65096 0.9481 0.0
H462 H 0.13974 0.5856 0.83364 0.0
C463 C 0.14683 0.71937 0.11751 0.0
C464 C 0.13867 0.72689 0.18316 0.0
C465 C 0.14284 0.69559 0.25463 0.0
C466 C 0.15004 0.68762 0.18953 0.0
N467 N 0.15223 0.69969 0.1222 0.0
N468 N 0.13702 0.71472 0.24979 0.0
H469 H 0.14762 0.72812 0.06311 0.0
C470 C 0.0992 0.57756 0.04026 0.0
O471 O 0.10009 0.59839 0.06823 0.0
O472 O 0.18341 0.71058 0.95786 0.0
H473 H 0.15301 0.67127 0.19264 0.0
H474 H 0.2314 0.65332 0.85563 0.0
H475 H 0.14109 0.68609 0.3083 0.0
Zn476 Zn 0.43122 0.53474 0.99052 0.0
C477 C 0.37684 0.53161 0.13852 0.0
N478 N 0.3964 0.55447 0.16285 0.0
C479 C 0.41668 0.55783 0.12035 0.0
N480 N 0.40989 0.53768 0.07189 0.0
N481 N 0.3849 0.5209 0.08493 0.0
C482 C 0.33045 0.47117 0.91069 0.0
O483 O 0.33998 0.45612 0.8945 0.0
O484 O 0.46877 0.54675 0.01761 0.0
Zn485 Zn 0.36314 0.48486 0.04855 0.0
N486 N 0.4285 0.55076 0.89792 0.0
C487 C 0.40035 0.55209 0.80469 0.0
C488 C 0.40407 0.54329 0.87408 0.0
C489 C 0.44956 0.56693 0.85529 0.0
N490 N 0.42126 0.56801 0.76177 0.0
C491 C 0.44592 0.57589 0.78497 0.0
O492 O 0.38198 0.46856 0.99842 0.0
C493 C 0.40346 0.47495 0.96651 0.0
O494 O 0.42115 0.49844 0.96189 0.0
H495 H 0.38759 0.53015 0.90821 0.0
H496 H 0.46876 0.57211 0.875 0.0
C497 C 0.32798 0.43729 0.13114 0.0
C498 C 0.32104 0.42117 0.19556 0.0
C499 C 0.35191 0.45667 0.26871 0.0
C500 C 0.35954 0.47222 0.20448 0.0
N501 N 0.34725 0.46257 0.13708 0.0
N502 N 0.33319 0.43151 0.26256 0.0
H503 H 0.31939 0.42949 0.07632 0.0
C504 C 0.47156 0.53207 0.06443 0.0
O505 O 0.45143 0.51579 0.10492 0.0
O506 O 0.33675 0.48371 0.97297 0.0
H507 H 0.37591 0.49159 0.20821 0.0
H508 H 0.38099 0.54613 0.7847 0.0
H509 H 0.36151 0.46425 0.32251 0.0
Zn510 Zn 0.16309 0.48325 0.31331 0.0
C511 C 0.23401 0.50422 0.22266 0.0
N512 N 0.23022 0.52264 0.19081 0.0
C513 C 0.20831 0.51887 0.22427 0.0
N514 N 0.19869 0.49866 0.27289 0.0
N515 N 0.21514 0.48973 0.2737 0.0
C516 C 0.20799 0.42188 0.27211 0.0
O517 O 0.19046 0.42566 0.23877 0.0
O518 O 0.16174 0.50719 0.39353 0.0
Zn519 Zn 0.21542 0.46614 0.35153 0.0
N520 N 0.13997 0.47724 0.22643 0.0
C521 C 0.1345 0.46906 0.09329 0.0
C522 C 0.14972 0.47552 0.15823 0.0
C523 C 0.11486 0.47188 0.23218 0.0
N524 N 0.10954 0.4633 0.09911 0.0
C525 C 0.09908 0.46433 0.16661 0.0
O526 O 0.1804 0.44064 0.3943 0.0
C527 C 0.15657 0.434 0.39438 0.0
O528 O 0.14869 0.448 0.36309 0.0
H529 H 0.16901 0.47832 0.15413 0.0
H530 H 0.10695 0.47215 0.28719 0.0
C531 C 0.24609 0.47625 0.48951 0.0
C532 C 0.26195 0.49208 0.54924 0.0
C533 C 0.26098 0.52793 0.49458 0.0
C534 C 0.24537 0.51225 0.43594 0.0
N535 N 0.23813 0.48675 0.43439 0.0
N536 N 0.26879 0.51753 0.5496 0.0
H537 H 0.23969 0.45582 0.48729 0.0
C538 C 0.17519 0.50911 0.45182 0.0
O539 O 0.18736 0.4959 0.45317 0.0
O540 O 0.22483 0.43972 0.31454 0.0
H541 H 0.23889 0.52037 0.39223 0.0
H542 H 0.14219 0.46777 0.03892 0.0
H543 H 0.26675 0.54822 0.49665 0.0
Zn544 Zn 0.57708 0.75641 0.37621 0.0
C545 C 0.53007 0.69884 0.23325 0.0
N546 N 0.52299 0.71602 0.21118 0.0
C547 C 0.54005 0.73787 0.24796 0.0
N548 N 0.55637 0.73403 0.29243 0.0
N549 N 0.55044 0.70962 0.2818 0.0
C550 C 0.54396 0.66505 0.46085 0.0
O551 O 0.56146 0.68741 0.48939 0.0
O552 O 0.60122 0.79377 0.34565 0.0
Zn553 Zn 0.56791 0.69096 0.31928 0.0
N554 N 0.5541 0.75358 0.45867 0.0
C555 C 0.51351 0.72711 0.51906 0.0
C556 C 0.53062 0.7315 0.45982 0.0
C557 C 0.56127 0.7716 0.51508 0.0
N558 N 0.52065 0.74485 0.57549 0.0
C559 C 0.54407 0.76712 0.57582 0.0
O560 O 0.60198 0.71275 0.37646 0.0
C561 C 0.61305 0.73367 0.41473 0.0
O562 O 0.60367 0.74857 0.4181 0.0
H563 H 0.52534 0.71719 0.4155 0.0
H564 H 0.58035 0.78867 0.51366 0.0
C565 C 0.58469 0.65914 0.2328 0.0
C566 C 0.59449 0.65356 0.16665 0.0
C567 C 0.58843 0.68444 0.09881 0.0
C568 C 0.57941 0.69031 0.16426 0.0
N569 N 0.57752 0.67761 0.23008 0.0
N570 N 0.59593 0.6665 0.10169 0.0
H571 H 0.58384 0.64978 0.28611 0.0
C572 C 0.62156 0.79689 0.31219 0.0
O573 O 0.62147 0.7764 0.2846 0.0
O574 O 0.5432 0.66171 0.38923 0.0
H575 H 0.57464 0.7055 0.16276 0.0
H576 H 0.49478 0.70958 0.52073 0.0
H577 H 0.59002 0.69449 0.04634 0.0
Zn578 Zn 0.36109 0.88639 0.31832 0.0
C579 C 0.3104 0.81299 0.24264 0.0
N580 N 0.33181 0.8168 0.20502 0.0
C581 C 0.35047 0.83989 0.23162 0.0
N582 N 0.34087 0.85011 0.28181 0.0
N583 N 0.31582 0.83294 0.29065 0.0
C584 C 0.25195 0.8354 0.30974 0.0
O585 O 0.27158 0.85503 0.27583 0.0
O586 O 0.38756 0.88981 0.39922 0.0
Zn587 Zn 0.29413 0.8344 0.37275 0.0
N588 N 0.37717 0.90864 0.22897 0.0
C589 C 0.37341 0.91268 0.09555 0.0
C590 C 0.36605 0.8978 0.16111 0.0
C591 C 0.39505 0.93449 0.23364 0.0
N592 N 0.39073 0.93831 0.10036 0.0
C593 C 0.40173 0.94987 0.16745 0.0
O594 O 0.30185 0.87013 0.40256 0.0
C595 C 0.31826 0.89397 0.39507 0.0
O596 O 0.33995 0.90139 0.36281 0.0
H597 H 0.35068 0.87795 0.1577 0.0
H598 H 0.40275 0.94319 0.2884 0.0
C599 C 0.2792 0.80605 0.51515 0.0
C600 C 0.2835 0.7944 0.57873 0.0
C601 C 0.32612 0.80832 0.53423 0.0
C602 C 0.32174 0.81969 0.47142 0.0
N603 N 0.2984 0.81823 0.46274 0.0
N604 N 0.30695 0.79587 0.58592 0.0
H605 H 0.26075 0.80504 0.50639 0.0
C606 C 0.3812 0.88805 0.469 0.0
O607 O 0.35826 0.88462 0.48622 0.0
O608 O 0.25611 0.81937 0.34593 0.0
H609 H 0.33684 0.8296 0.4297 0.0
H610 H 0.36468 0.90412 0.04152 0.0
H611 H 0.34459 0.80927 0.54177 0.0
H612 H 0.20262 0.09389 0.4347 0.0
H613 H 0.21313 0.10644 0.67563 0.0
H614 H 0.20755 0.14434 0.66433 0.0
H615 H 0.19552 0.17176 0.58538 0.0
H616 H 0.18501 0.15783 0.34459 0.0
H617 H 0.19425 0.12255 0.35626 0.0
C618 C 0.20408 0.10513 0.48478 0.0
C619 C 0.20846 0.09733 0.55603 0.0
C620 C 0.20056 0.12664 0.47762 0.0
C621 C 0.21029 0.11219 0.62008 0.0
C622 C 0.20677 0.13374 0.61355 0.0
C623 C 0.19581 0.16128 0.53549 0.0
C624 C 0.19015 0.16779 0.46374 0.0
C625 C 0.20133 0.14087 0.54265 0.0
C626 C 0.19013 0.15378 0.39982 0.0
C627 C 0.19522 0.13345 0.40656 0.0
H628 H 0.95225 0.10263 0.63841 0.0
H629 H 0.93718 0.14475 0.46774 0.0
H630 H 0.89921 0.10451 0.42362 0.0
H631 H 0.87334 0.05633 0.42491 0.0
H632 H 0.88974 1.01511 0.59652 0.0
H633 H 0.92323 0.05558 0.6495 0.0
C634 C 0.94014 0.10305 0.59315 0.0
C635 C 0.94728 0.12666 0.55717 0.0
C636 C 0.91862 0.07976 0.56727 0.0
C637 C 0.93178 0.12687 0.49733 0.0
C638 C 0.9102 0.10377 0.47158 0.0
C639 C 0.88403 0.05608 0.4738 0.0
C640 C 0.87917 0.03217 0.50418 0.0
C641 C 0.90385 0.07987 0.50455 0.0
C642 C 0.8931 0.03284 0.56982 0.0
C643 C 0.91245 0.05615 0.60075 0.0
H644 H 1.02165 0.88356 0.56956 0.0
H645 H 0.99648 0.81846 0.41975 0.0
H646 H 0.95161 0.8043 0.44725 0.0
H647 H 0.91858 0.81274 0.50538 0.0
H648 H 0.94375 0.87867 0.65248 0.0
H649 H 0.98899 0.88982 0.63634 0.0
C650 C 1.00647 0.86609 0.54316 0.0
C651 C 1.01311 0.85241 0.49058 0.0
C652 C 0.98029 0.85813 0.55956 0.0
C653 C 0.99268 0.82981 0.45847 0.0
C654 C 0.96666 0.82157 0.47484 0.0
C655 C 0.93396 0.82908 0.53556 0.0
C656 C 0.92782 0.84466 0.58101 0.0
C657 C 0.96014 0.83587 0.52406 0.0
C658 C 0.94799 0.86619 0.61814 0.0
C659 C 0.97389 0.8727 0.60831 0.0
H660 H 0.84611 0.94183 0.56923 0.0
H661 H 0.84616 0.93367 0.32671 0.0
H662 H 0.85159 0.89574 0.34192 0.0
H663 H 0.86196 0.86826 0.42602 0.0
H664 H 0.8634 0.87873 0.6681 0.0
H665 H 0.85216 0.91251 0.65167 0.0
C666 C 0.8467 0.93138 0.51956 0.0
C667 C 0.84549 0.94047 0.4468 0.0
C668 C 0.85044 0.91011 0.52909 0.0
C669 C 0.84644 0.92681 0.38317 0.0
C670 C 0.84995 0.90532 0.39209 0.0
C671 C 0.85906 0.87749 0.47502 0.0
C672 C 0.86263 0.87038 0.54857 0.0
C673 C 0.85275 0.89724 0.4649 0.0
C674 C 0.8596 0.883 0.61143 0.0
C675 C 0.85347 0.90255 0.60194 0.0
H676 H 0.17195 0.98684 0.61704 0.0
H677 H 0.18163 1.01862 0.39299 0.0
H678 H 0.14973 0.97603 0.34306 0.0
H679 H 0.11486 0.93058 0.3668 0.0
H680 H 0.10489 0.89986 0.59295 0.0
H681 H 0.14165 0.9404 0.63766 0.0
C682 C 0.16813 0.98417 0.5569 0.0
C683 C 0.17975 1.00582 0.50882 0.0
C684 C 0.14938 0.95961 0.52886 0.0
C685 C 0.17314 1.00225 0.4313 0.0
C686 C 0.15481 0.97786 0.40268 0.0
C687 C 0.12136 0.93256 0.42515 0.0
C688 C 0.10734 0.91212 0.47638 0.0
C689 C 0.14219 0.95647 0.4513 0.0
C690 C 0.11553 0.91522 0.55236 0.0
C691 C 0.13644 0.93853 0.57817 0.0
H692 H 0.12973 0.19746 0.57143 0.0
H693 H 0.12367 0.20318 0.32972 0.0
H694 H 0.07977 0.19656 0.34496 0.0
H695 H 0.04135 0.18514 0.42775 0.0
H696 H 0.04915 0.18156 0.66971 0.0
H697 H 0.09395 0.19147 0.65421 0.0
C698 C 0.11896 0.19772 0.52214 0.0
C699 C 0.12998 0.20079 0.44946 0.0
C700 C 0.09387 0.19408 0.53163 0.0
C701 C 0.11582 0.20116 0.38624 0.0
C702 C 0.09058 0.19711 0.39503 0.0
C703 C 0.05307 0.18693 0.47692 0.0
C704 C 0.04204 0.18293 0.55007 0.0
C705 C 0.07912 0.19293 0.46742 0.0
C706 C 0.05737 0.18519 0.61323 0.0
C707 C 0.08293 0.19061 0.60425 0.0
H708 H 0.87421 0.42965 0.78123 0.0
H709 H 0.87595 0.43883 0.02375 0.0
H710 H 0.86935 0.47602 1.0089 0.0
H711 H 0.85883 0.50347 0.92555 0.0
H712 H 0.85769 0.49355 0.68327 0.0
H713 H 0.86855 0.4595 0.69882 0.0
C714 C 0.87361 0.4401 0.83086 0.0
C715 C 0.87563 0.43151 0.90355 0.0
C716 C 0.86978 0.46135 0.82161 0.0
C717 C 0.87483 0.44523 0.96726 0.0
C718 C 0.87077 0.46636 0.95863 0.0
C719 C 0.86141 0.49408 0.87638 0.0
C720 C 0.85804 0.50143 0.80304 0.0
C721 C 0.86759 0.47424 0.88602 0.0
C722 C 0.86118 0.48897 0.73987 0.0
C723 C 0.867 0.4692 0.74889 0.0
H724 H 0.59696 0.46096 0.84371 0.0
H725 H 0.63354 0.43747 0.01103 0.0
H726 H 0.59967 0.39214 0.99433 0.0
H727 H 0.56269 0.35869 0.92036 0.0
H728 H 0.52566 0.38257 0.75648 0.0
H729 H 0.55612 0.42759 0.78281 0.0
C730 C 0.59691 0.44599 0.87854 0.0
C731 C 0.61749 0.45268 0.92975 0.0
C732 C 0.57755 0.41977 0.86742 0.0
C733 C 0.6176 0.43293 0.97263 0.0
C734 C 0.59839 0.40692 0.96226 0.0
C735 C 0.56097 0.37364 0.89068 0.0
C736 C 0.54185 0.36658 0.83343 0.0
C737 C 0.57872 0.39998 0.90785 0.0
C738 C 0.54021 0.38671 0.79777 0.0
C739 C 0.55775 0.41282 0.81382 0.0
H740 H 0.67811 0.18316 0.91448 0.0
H741 H 0.6737 0.19517 0.67527 0.0
H742 H 0.62861 0.18445 0.6893 0.0
H743 H 0.59165 0.17509 0.77022 0.0
H744 H 0.5947 0.16272 0.00954 0.0
H745 H 0.63853 0.16913 0.99494 0.0
C746 C 0.66697 0.18275 0.86533 0.0
C747 C 0.67906 0.18947 0.79346 0.0
C748 C 0.64077 0.17638 0.8739 0.0
C749 C 0.66464 0.18943 0.73057 0.0
C750 C 0.6389 0.18346 0.7387 0.0
C751 C 0.60171 0.17334 0.81915 0.0
C752 C 0.58981 0.1684 0.89105 0.0
C753 C 0.62691 0.17732 0.81013 0.0
C754 C 0.60313 0.16612 0.95358 0.0
C755 C 0.62839 0.17011 0.94518 0.0
H756 H 0.51858 0.20808 0.96098 0.0
H757 H 0.5368 0.19517 0.73506 0.0
H758 H 0.52677 0.22739 0.68523 0.0
H759 H 0.5177 0.26333 0.70847 0.0
H760 H 0.5009 0.27656 0.93627 0.0
H761 H 0.50425 0.23988 0.98181 0.0
C762 C 0.51907 0.21134 0.90059 0.0
C763 C 0.52778 0.1986 0.85191 0.0
C764 C 0.5137 0.23036 0.87242 0.0
C765 C 0.52991 0.20445 0.77393 0.0
C766 C 0.52425 0.223 0.74531 0.0
C767 C 0.51401 0.25761 0.76755 0.0
C768 C 0.50882 0.2726 0.8188 0.0
C769 C 0.51679 0.23668 0.79425 0.0
C770 C 0.50474 0.26529 0.89557 0.0
C771 C 0.50686 0.24435 0.9219 0.0
H772 H 0.82431 0.34806 0.78513 0.0
H773 H 0.86438 0.32261 0.93281 0.0
H774 H 0.83446 0.27798 0.90093 0.0
H775 H 0.79329 0.24506 0.84069 0.0
H776 H 0.7521 0.27034 0.69632 0.0
H777 H 0.78583 0.31554 0.71544 0.0
C778 C 0.82682 0.33287 0.80998 0.0
C779 C 0.84695 0.33934 0.86326 0.0
C780 C 0.80898 0.30678 0.79121 0.0
C781 C 0.84942 0.31893 0.8934 0.0
C782 C 0.83206 0.29303 0.8746 0.0
C783 C 0.7922 0.26047 0.81161 0.0
C784 C 0.77044 0.25436 0.76619 0.0
C785 C 0.81134 0.28661 0.82494 0.0
C786 C 0.76888 0.27456 0.73058 0.0
C787 C 0.78805 0.30044 0.74215 0.0
H788 H 0.77805 0.51974 0.70513 0.0
H789 H 0.81753 0.55607 0.91288 0.0
H790 H 0.77787 0.55298 0.96381 0.0
H791 H 0.73019 0.53432 0.95597 0.0
H792 H 0.6904 0.4961 0.75024 0.0
H793 H 0.73136 0.5055 0.6922 0.0
C794 C 0.77812 0.52778 0.7604 0.0
C795 C 0.80088 0.5386 0.80456 0.0
C796 C 0.75485 0.52512 0.79047 0.0
C797 C 0.80042 0.54813 0.87719 0.0
C798 C 0.77762 0.54612 0.90669 0.0
C799 C 0.7306 0.52883 0.8978 0.0
C800 C 0.70709 0.51463 0.85772 0.0
C801 C 0.75443 0.53388 0.8649 0.0
C802 C 0.7081 0.50699 0.78275 0.0
C803 C 0.73159 0.51234 0.74933 0.0
H804 H 0.56656 0.7811 0.1613 0.0
H805 H 0.50612 0.74611 0.32854 0.0
H806 H 0.49503 0.78004 0.30876 0.0
H807 H 0.49979 0.81735 0.23477 0.0
H808 H 0.55926 0.85104 0.06484 0.0
H809 H 0.57352 0.8206 0.09451 0.0
C810 C 0.55145 0.78138 0.19482 0.0
C811 C 0.5375 0.7614 0.24742 0.0
C812 C 0.54473 0.80066 0.1816 0.0
C813 C 0.51748 0.76157 0.28891 0.0
C814 C 0.51097 0.78085 0.27698 0.0
C815 C 0.51607 0.8183 0.20454 0.0
C816 C 0.52834 0.83694 0.14649 0.0
C817 C 0.52402 0.80017 0.22201 0.0
C818 C 0.54934 0.83742 0.10896 0.0
C819 C 0.55754 0.81974 0.12621 0.0
H820 H 0.28889 0.78717 0.11226 0.0
H821 H 0.27505 0.7832 0.35275 0.0
H822 H 0.23674 0.74003 0.33773 0.0
H823 H 0.20911 0.70142 0.25602 0.0
H824 H 0.2231 0.70676 0.01532 0.0
H825 H 0.2589 0.75111 0.02995 0.0
C826 C 0.27724 0.77702 0.16131 0.0
C827 C 0.28489 0.78855 0.23366 0.0
C828 C 0.25515 0.75225 0.15191 0.0
C829 C 0.26952 0.77509 0.29645 0.0
C830 C 0.24768 0.75021 0.28779 0.0
C831 C 0.21972 0.71256 0.20681 0.0
C832 C 0.21301 0.70095 0.1342 0.0
C833 C 0.24055 0.73832 0.21589 0.0
C834 C 0.22719 0.71549 0.07118 0.0
C835 C 0.24797 0.74078 0.07976 0.0
H836 H 0.27381 0.50743 0.31125 0.0
H837 H 0.24551 0.49629 0.08161 0.0
H838 H 0.28612 0.50082 0.03494 0.0
H839 H 0.33203 0.51419 0.05741 0.0
H840 H 0.36147 0.52731 0.28554 0.0
H841 H 0.3187 0.51628 0.33471 0.0
C842 C 0.27626 0.50516 0.25142 0.0
C843 C 0.25641 0.50113 0.20012 0.0
C844 C 0.30025 0.5087 0.22444 0.0
C845 C 0.26032 0.49909 0.12236 0.0
C846 C 0.28368 0.50189 0.09548 0.0
C847 C 0.32876 0.51336 0.11789 0.0
C848 C 0.3498 0.52077 0.16764 0.0
C849 C 0.30412 0.50747 0.14563 0.0
C850 C 0.34556 0.52138 0.24596 0.0
C851 C 0.32106 0.51512 0.27415 0.0
H852 H 0.19066 0.53177 0.09706 0.0
H853 H 0.20624 0.54906 0.33498 0.0
H854 H 0.1974 0.58471 0.32288 0.0
H855 H 0.18901 0.61348 0.24222 0.0
H856 H 0.17047 0.59468 1.00642 0.0
H857 H 0.17631 0.5573 0.01967 0.0
C858 C 0.19158 0.54306 0.14641 0.0
C859 C 0.1988 0.53757 0.21717 0.0
C860 C 0.18617 0.56351 0.13907 0.0
C861 C 0.20015 0.55249 0.28045 0.0
C862 C 0.19536 0.57308 0.2733 0.0
C863 C 0.18588 0.60101 0.19381 0.0
C864 C 0.17961 0.60736 0.12272 0.0
C865 C 0.18886 0.57913 0.20258 0.0
C866 C 0.17536 0.59066 0.06135 0.0
C867 C 0.17884 0.56917 0.06906 0.0
H868 H 0.43882 0.58355 0.24919 0.0
H869 H 0.45202 0.58666 1.0085 0.0
H870 H 0.49004 0.63021 0.02198 0.0
H871 H 0.51673 0.66961 0.10234 0.0
H872 H 0.50231 0.66515 0.34284 0.0
H873 H 0.46759 0.62024 0.32959 0.0
C874 C 0.4503 0.59355 0.19971 0.0
C875 C 0.44255 0.58178 0.1278 0.0
C876 C 0.47189 0.61858 0.20814 0.0
C877 C 0.45769 0.59502 0.06448 0.0
C878 C 0.47931 0.6201 0.07227 0.0
C879 C 0.50638 0.65848 0.15188 0.0
C880 C 0.51249 0.6705 0.22394 0.0
C881 C 0.48623 0.63239 0.14371 0.0
C882 C 0.49858 0.6561 0.28741 0.0
C883 C 0.47854 0.63047 0.27971 0.0
H884 H 0.37692 0.85048 0.0959 0.0
H885 H 0.38689 0.85019 0.33786 0.0
H886 H 0.4319 0.86119 0.32045 0.0
H887 H 0.46716 0.86655 0.23649 0.0
H888 H 0.45891 0.86846 0.99438 0.0
H889 H 0.41489 0.86153 0.01112 0.0
C890 C 0.38918 0.85331 0.14463 0.0
C891 C 0.37866 0.84996 0.2184 0.0
C892 C 0.41534 0.85976 0.13394 0.0
C893 C 0.39469 0.85348 0.2809 0.0
C894 C 0.42038 0.85944 0.27083 0.0
C895 C 0.45592 0.86598 0.18737 0.0
C896 C 0.46633 0.86802 0.11423 0.0
C897 C 0.43076 0.86211 0.1977 0.0
C898 C 0.45153 0.86726 0.05122 0.0
C899 C 0.42622 0.86302 0.06092 0.0
H900 H 0.16957 0.30215 0.25506 0.0
H901 H 0.1947 0.31605 0.48849 0.0
H902 H 0.20855 0.36188 0.47449 0.0
H903 H 0.21455 0.39839 0.39524 0.0
H904 H 0.18864 0.38462 0.16274 0.0
H905 H 0.17476 0.33866 0.17632 0.0
C906 C 0.17761 0.31511 0.30325 0.0
C907 C 0.18082 0.30556 0.37304 0.0
C908 C 0.1861 0.34167 0.29433 0.0
C909 C 0.19182 0.32281 0.43436 0.0
C910 C 0.19997 0.34909 0.42621 0.0
C911 C 0.20634 0.38541 0.34713 0.0
C912 C 0.20316 0.39502 0.2775 0.0
C913 C 0.19761 0.35884 0.35616 0.0
C914 C 0.19167 0.37777 0.2165 0.0
C915 C 0.18351 0.35144 0.22449 0.0
H916 H 0.71886 0.90616 0.38691 0.0
H917 H 0.75891 0.86488 0.33209 0.0
H918 H 0.71735 0.82585 0.30495 0.0
H919 H 0.66987 0.80369 0.29611 0.0
H920 H 0.62979 0.84497 0.35073 0.0
H921 H 0.67136 0.88409 0.37701 0.0
C922 C 0.71855 0.88856 0.36992 0.0
C923 C 0.74203 0.88838 0.36246 0.0
C924 C 0.69464 0.86638 0.35303 0.0
C925 C 0.74118 0.8655 0.33883 0.0
C926 C 0.71742 0.84324 0.32291 0.0
C927 C 0.67016 0.82131 0.31286 0.0
C928 C 0.64666 0.82142 0.32084 0.0
C929 C 0.69407 0.84353 0.32928 0.0
C930 C 0.64752 0.84436 0.3438 0.0
C931 C 0.67129 0.86668 0.35925 0.0
H932 H 0.14424 0.82456 0.39763 0.0
H933 H 0.18817 0.90728 0.36435 0.0
H934 H 0.22655 0.90432 0.33195 0.0
H935 H 0.24716 0.87813 0.31036 0.0
H936 H 0.20339 0.79549 0.34443 0.0
H937 H 0.16501 0.79844 0.37749 0.0
C938 C 0.16229 0.84204 0.38436 0.0
C939 C 0.16338 0.8662 0.38412 0.0
C940 C 0.18406 0.8401 0.36433 0.0
C941 C 0.18683 0.88851 0.36531 0.0
C942 C 0.20871 0.88678 0.34632 0.0
C943 C 0.22914 0.86068 0.32412 0.0
C944 C 0.22802 0.83651 0.32395 0.0
C945 C 0.20744 0.86264 0.34475 0.0
C946 C 0.20469 0.81423 0.34367 0.0
C947 C 0.18282 0.81596 0.36296 0.0
H948 H 0.8858 0.66009 0.71052 0.0
H949 H 0.80294 0.6212 0.67728 0.0
H950 H 0.8061 0.66257 0.64434 0.0
H951 H 0.83252 0.70949 0.6236 0.0
H952 H 0.91543 0.74826 0.65632 0.0
H953 H 0.91223 0.70689 0.68891 0.0
C954 C 0.86835 0.66066 0.69698 0.0
C955 C 0.84407 0.63762 0.69727 0.0
C956 C 0.87044 0.68435 0.67641 0.0
C957 C 0.82178 0.63866 0.67788 0.0
C958 C 0.82363 0.66227 0.65865 0.0
C959 C 0.84998 0.7089 0.63681 0.0
C960 C 0.87428 0.73195 0.63672 0.0
C961 C 0.84789 0.68517 0.65702 0.0
C962 C 0.89657 0.73082 0.65555 0.0
C963 C 0.8947 0.70721 0.67463 0.0
H964 H 0.3355 0.13308 0.63604 0.0
H965 H 0.29672 0.17677 0.67209 0.0
H966 H 0.33796 0.2145 0.71047 0.0
H967 H 0.38471 0.23468 0.73493 0.0
H968 H 0.42344 0.19089 0.69932 0.0
H969 H 0.38218 0.15315 0.66151 0.0
C970 C 0.33607 0.15095 0.65136 0.0
C971 C 0.31309 0.15224 0.65027 0.0
C972 C 0.35968 0.17227 0.67502 0.0
C973 C 0.31414 0.17536 0.672 0.0
C974 C 0.33767 0.19684 0.69436 0.0
C975 C 0.38413 0.21678 0.71999 0.0
C976 C 0.40715 0.21554 0.72074 0.0
C977 C 0.36049 0.19541 0.69678 0.0
C978 C 0.40603 0.19232 0.69965 0.0
C979 C 0.38248 0.17082 0.67755 0.0
H980 H 0.88837 0.16674 0.75394 0.0
H981 H 0.89478 0.18482 0.51539 0.0
H982 H 0.86253 0.19842 0.52835 0.0
H983 H 0.83321 0.20624 0.60807 0.0
H984 H 0.82632 0.18774 0.84625 0.0
H985 H 0.85851 0.17397 0.83341 0.0
C986 C 0.88232 0.17316 0.70451 0.0
C987 C 0.89376 0.17444 0.63351 0.0
C988 C 0.86421 0.18161 0.71279 0.0
C989 C 0.88613 0.18342 0.57048 0.0
C990 C 0.86786 0.19144 0.578 0.0
C991 C 0.83915 0.19969 0.65745 0.0
C992 C 0.82779 0.19854 0.72844 0.0
C993 C 0.85708 0.19104 0.64909 0.0
C994 C 0.83508 0.18919 0.79131 0.0
C995 C 0.8533 0.18108 0.78381 0.0
H996 H 0.50602 0.97 0.92639 0.0
H997 H 0.52417 0.98061 0.16517 0.0
H998 H 0.53703 0.02633 0.15519 0.0
H999 H 0.5441 0.06377 0.07807 0.0
H1000 H 0.52555 0.05318 0.83964 0.0
H1001 H 0.5126 1.00738 0.8495 0.0
C1002 C 0.51228 0.9822 0.97653 0.0
C1003 C 0.51375 0.97172 0.04674 0.0
C1004 C 0.52031 1.00874 0.96998 0.0
C1005 C 0.52258 0.98805 0.11065 0.0
C1006 C 0.53018 1.01429 0.10484 0.0
C1007 C 0.53771 0.05155 0.02799 0.0
C1008 C 0.53629 0.06204 0.95782 0.0
C1009 C 0.52952 0.02498 0.03459 0.0
C1010 C 0.52718 0.04569 0.89404 0.0
C1011 C 0.51954 0.01942 0.89981 0.0
H1012 H 1.00012 0.46949 0.9683 0.0
H1013 H 0.96199 0.51325 0.0139 0.0
H1014 H 1.00412 0.55179 0.04052 0.0
H1015 H 0.05155 0.57272 0.05148 0.0
H1016 H 0.08949 0.52866 1.00703 0.0
H1017 H 0.04738 0.49017 0.98117 0.0
C1018 C 1.001 0.48753 0.98316 0.0
C1019 C 0.97795 0.48863 0.98803 0.0
C1020 C 1.02515 0.50932 1.00005 0.0
C1021 C 0.97944 0.51199 1.00923 0.0
C1022 C 1.00349 0.53394 0.0248 0.0
C1023 C 0.05065 0.55463 0.03706 0.0
C1024 C 0.0737 0.55353 0.03175 0.0
C1025 C 1.02644 0.53276 0.02092 0.0
C1026 C 0.0721 0.53001 0.01174 0.0
C1027 C 0.04804 0.50806 0.99656 0.0
H1028 H 0.55496 0.49644 0.08538 0.0
H1029 H 0.56949 0.52483 0.85549 0.0
H1030 H 0.53646 0.53742 0.86735 0.0
H1031 H 0.50378 0.54107 0.94378 0.0
H1032 H 0.48927 0.51268 0.17365 0.0
H1033 H 0.52225 0.50003 0.16169 0.0
C1034 C 0.55056 0.50494 0.03741 0.0
C1035 C 0.56449 0.50935 0.96923 0.0
C1036 C 0.53194 0.51276 0.04525 0.0
C1037 C 0.55891 0.52097 0.90833 0.0
C1038 C 0.54016 0.52839 0.91529 0.0
C1039 C 0.50818 0.53256 0.99171 0.0
C1040 C 0.49429 0.52819 0.05995 0.0
C1041 C 0.52678 0.52471 0.98381 0.0
C1042 C 0.49983 0.51652 0.12078 0.0
C1043 C 0.51856 0.50907 0.11377 0.0
H1044 H 0.21752 0.1002 0.05118 0.0
H1045 H 0.22384 0.14695 0.85718 0.0
H1046 H 0.22915 0.1819 0.94114 0.0
H1047 H 0.2306 0.19866 0.06983 0.0
H1048 H 0.22616 0.15256 0.26363 0.0
H1049 H 0.22142 0.11791 0.17974 0.0
C1050 C 0.22012 0.11808 0.02731 0.0
C1051 C 0.22034 0.12095 0.94803 0.0
C1052 C 0.22338 0.13818 0.07593 0.0
C1053 C 0.22394 0.14432 0.91793 0.0
C1054 C 0.22682 0.16427 0.96596 0.0
C1055 C 0.22872 0.18109 0.0938 0.0
C1056 C 0.22838 0.17812 0.17316 0.0
C1057 C 0.22641 0.16136 0.04507 0.0
C1058 C 0.22616 0.15528 0.20297 0.0
C1059 C 0.2235 0.13544 0.15495 0.0
H1060 H 0.95918 0.10563 0.01684 0.0
H1061 H 0.90428 0.12862 0.9464 0.0
H1062 H 0.87589 0.1042 0.05169 0.0
H1063 H 0.86684 0.07647 0.16633 0.0
H1064 H 0.92327 0.05523 0.23453 0.0
H1065 H 0.95081 0.07917 0.12866 0.0
C1066 C 0.94106 0.1055 0.02405 0.0
C1067 C 0.9341 0.11902 0.97253 0.0
C1068 C 0.92502 0.0918 0.0853 0.0
C1069 C 0.91027 0.11819 0.98356 0.0
C1070 C 0.89401 0.10435 0.04456 0.0
C1071 C 0.88523 0.07724 0.15819 0.0
C1072 C 0.89286 0.06399 0.20885 0.0
C1073 C 0.90123 0.09114 0.09616 0.0
C1074 C 0.91674 0.06512 0.19689 0.0
C1075 C 0.93258 0.07882 0.13606 0.0
H1076 H 0.99883 0.80009 0.07212 0.0
H1077 H 0.97191 0.82738 0.25854 0.0
H1078 H 0.94393 0.83425 0.17239 0.0
H1079 H 0.92839 0.83427 0.0436 0.0
H1080 H 0.95481 0.80673 0.85684 0.0
H1081 H 0.98143 0.79798 0.94372 0.0
C1082 C 0.98673 0.8074 0.09402 0.0
C1083 C 0.98765 0.81335 0.17175 0.0
C1084 C 0.97056 0.81127 0.04408 0.0
C1085 C 0.97167 0.82264 0.19909 0.0
C1086 C 0.95568 0.82665 0.14979 0.0
C1087 C 0.93991 0.82627 0.02186 0.0
C1088 C 0.9395 0.82113 0.94377 0.0
C1089 C 0.9552 0.82133 0.0721 0.0
C1090 C 0.9544 0.81055 0.91673 0.0
C1091 C 0.96981 0.80571 0.96637 0.0
H1092 H 0.8311 0.93321 0.95219 0.0
H1093 H 0.83286 0.89044 0.14679 0.0
H1094 H 0.8279 0.85534 0.06375 0.0
H1095 H 0.82525 0.83781 0.93506 0.0
H1096 H 0.82123 0.87975 0.74139 0.0
H1097 H 0.82494 0.91413 0.82469 0.0
C1098 C 0.83027 0.91613 0.97645 0.0
C1099 C 0.83242 0.9145 0.05559 0.0
C1100 C 0.82718 0.89594 0.92842 0.0
C1101 C 0.83101 0.89212 0.08622 0.0
C1102 C 0.82834 0.8721 0.03866 0.0
C1103 C 0.82502 0.85438 0.91102 0.0
C1104 C 0.82344 0.85636 0.83166 0.0
C1105 C 0.8267 0.87393 0.95957 0.0
C1106 C 0.82282 0.87786 0.8019 0.0
C1107 C 0.82489 0.89754 0.84962 0.0
H1108 H 0.11144 0.92356 0.97977 0.0
H1109 H 0.17013 0.94114 0.14994 0.0
H1110 H 0.20401 0.96501 0.05616 0.0
H1111 H 0.21706 0.98263 0.92689 0.0
H1112 H 0.15814 0.9652 0.7577 0.0
H1113 H 0.12441 0.9396 0.84995 0.0
C1114 C 0.13165 0.93253 0.99648 0.0
C1115 C 0.13808 0.93035 0.07204 0.0
C1116 C 0.15107 0.94638 0.94233 0.0
C1117 C 0.16444 0.94202 0.0922 0.0
C1118 C 0.18389 0.95591 0.03859 0.0
C1119 C 0.19685 0.97311 0.91001 0.0
C1120 C 0.19022 0.97587 0.83514 0.0
C1121 C 0.17744 0.95842 0.96364 0.0
C1122 C 0.16389 0.96331 0.8145 0.0
C1123 C 0.14453 0.94874 0.86744 0.0
H1124 H 0.10597 0.2257 0.10169 0.0
H1125 H 0.14265 0.19826 0.94586 0.0
H1126 H 0.11888 0.2029 0.84019 0.0
H1127 H 0.08617 0.213 0.79191 0.0
H1128 H 0.04867 0.23933 0.94856 0.0
H1129 H 0.07424 0.23704 0.05289 0.0
C1130 C 0.10914 0.22118 0.04452 0.0
C1131 C 0.12626 0.21178 0.03205 0.0
C1132 C 0.09504 0.22351 0.9837 0.0
C1133 C 0.12957 0.20547 0.95743 0.0
C1134 C 0.11596 0.20811 0.89674 0.0
C1135 C 0.08374 0.21842 0.84874 0.0
C1136 C 0.06545 0.22632 0.86197 0.0
C1137 C 0.09839 0.21682 0.90919 0.0
C1138 C 0.06251 0.23311 0.93633 0.0
C1139 C 0.07717 0.23183 0.99634 0.0
H1140 H 0.89436 0.47809 0.24627 0.0
H1141 H 0.87673 0.41678 0.40589 0.0
H1142 H 0.88091 0.44525 0.51113 0.0
H1143 H 0.88772 0.48711 0.55804 0.0
H1144 H 0.9034 0.54771 0.39747 0.0
H1145 H 0.90201 0.52017 0.29329 0.0
C1146 C 0.89188 0.4711 0.30413 0.0
C1147 C 0.88543 0.44536 0.31803 0.0
C1148 C 0.89379 0.48745 0.36457 0.0
C1149 C 0.88167 0.43649 0.39345 0.0
C1150 C 0.88406 0.45276 0.4538 0.0
C1151 C 0.89105 0.49435 0.50033 0.0
C1152 C 0.89568 0.51949 0.48587 0.0
C1153 C 0.88981 0.47821 0.44009 0.0
C1154 C 0.89971 0.52843 0.4105 0.0
C1155 C 0.89894 0.51269 0.35065 0.0
H1156 H 0.60976 0.458 0.39656 0.0
H1157 H 0.5615 0.42371 0.19934 0.0
H1158 H 0.52582 0.39356 0.28044 0.0
H1159 H 0.5089 0.37566 0.40746 0.0
H1160 H 0.55729 0.41075 0.60422 0.0
H1161 H 0.59223 0.44174 0.52324 0.0
C1162 C 0.5914 0.44398 0.37127 0.0
C1163 C 0.58837 0.44322 0.29194 0.0
C1164 C 0.57097 0.42672 0.41821 0.0
C1165 C 0.56434 0.42505 0.26021 0.0
C1166 C 0.54395 0.40763 0.30659 0.0
C1167 C 0.52704 0.39016 0.43265 0.0
C1168 C 0.53044 0.39072 0.5119 0.0
C1169 C 0.54712 0.40813 0.38566 0.0
C1170 C 0.55406 0.40981 0.54352 0.0
C1171 C 0.57413 0.42754 0.4972 0.0
H1172 H 0.58448 0.15761 0.38808 0.0
H1173 H 0.62384 0.14875 0.1951 0.0
H1174 H 0.65374 0.14413 0.2799 0.0
H1175 H 0.67001 0.14469 0.40891 0.0
H1176 H 0.62947 0.15185 0.6017 0.0
H1177 H 0.59886 0.15515 0.51707 0.0
C1178 C 0.59953 0.15454 0.36456 0.0
C1179 C 0.60185 0.15351 0.28528 0.0
C1180 C 0.61659 0.15179 0.41369 0.0
C1181 C 0.62134 0.1493 0.25579 0.0
C1182 C 0.63859 0.14684 0.30432 0.0
C1183 C 0.6544 0.14684 0.43253 0.0
C1184 C 0.65236 0.14846 0.51183 0.0
C1185 C 0.63657 0.14833 0.38336 0.0
C1186 C 0.63179 0.15093 0.54113 0.0
C1187 C 0.6142 0.15276 0.49266 0.0
H1188 H 0.5122 0.26789 0.31437 0.0
H1189 H 0.47872 0.21076 0.49202 0.0
H1190 H 0.46977 0.17652 0.40054 0.0
H1191 H 0.47305 0.16285 0.27071 0.0
H1192 H 0.507 0.22019 0.0941 0.0
H1193 H 0.51408 0.25416 0.18433 0.0
C1194 C 0.50287 0.24794 0.33324 0.0
C1195 C 0.49607 0.24206 0.41025 0.0
C1196 C 0.49788 0.22831 0.28034 0.0
C1197 C 0.48382 0.216 0.43319 0.0
C1198 C 0.47887 0.19635 0.38086 0.0
C1199 C 0.48186 0.18276 0.2518 0.0
C1200 C 0.48935 0.18889 0.17526 0.0
C1201 C 0.486 0.20229 0.30438 0.0
C1202 C 0.50073 0.21483 0.15209 0.0
C1203 C 0.50495 0.23431 0.20393 0.0
H1204 H 0.88342 0.33048 0.28224 0.0
H1205 H 0.8334 0.29375 0.08951 0.0
H1206 H 0.79886 0.26399 0.17377 0.0
H1207 H 0.78215 0.24945 0.30213 0.0
H1208 H 0.83207 0.28527 0.49529 0.0
H1209 H 0.86739 0.31414 0.41092 0.0
C1210 C 0.86502 0.31586 0.25866 0.0
C1211 C 0.861 0.31447 0.17966 0.0
C1212 C 0.8452 0.29864 0.30749 0.0
C1213 C 0.83708 0.29528 0.15003 0.0
C1214 C 0.81725 0.27827 0.1982 0.0
C1215 C 0.8008 0.26353 0.32575 0.0
C1216 C 0.80447 0.26519 0.4048 0.0
C1217 C 0.821 0.27996 0.27698 0.0
C1218 C 0.82881 0.28335 0.43459 0.0
C1219 C 0.84897 0.29999 0.38638 0.0
H1220 H 0.77267 0.55947 0.43761 0.0
H1221 H 0.81006 0.53158 0.28609 0.0
H1222 H 0.78724 0.53645 0.17821 0.0
H1223 H 0.75477 0.54648 0.12675 0.0
H1224 H 0.71638 0.57301 0.27932 0.0
H1225 H 0.74142 0.57099 0.38555 0.0
C1226 C 0.7762 0.55491 0.38089 0.0
C1227 C 0.79322 0.54527 0.37035 0.0
C1228 C 0.76258 0.55731 0.31874 0.0
C1229 C 0.79703 0.53896 0.29624 0.0
C1230 C 0.78396 0.54173 0.23426 0.0
C1231 C 0.75205 0.55203 0.18309 0.0
C1232 C 0.7336 0.55984 0.19455 0.0
C1233 C 0.76637 0.55053 0.2448 0.0
C1234 C 0.73032 0.56683 0.26836 0.0
C1235 C 0.74468 0.5657 0.32951 0.0
H1236 H 0.55289 0.82658 0.88137 0.0
H1237 H 0.59786 0.89288 0.73815 0.0
H1238 H 0.59279 0.86438 0.63205 0.0
H1239 H 0.57385 0.82044 0.5778 0.0
H1240 H 0.52824 0.75439 0.72143 0.0
H1241 H 0.53532 0.78293 0.82874 0.0
C1242 C 0.56177 0.83484 0.82716 0.0
C1243 C 0.57573 0.86189 0.81806 0.0
C1244 C 0.55859 0.81833 0.76597 0.0
C1245 C 0.58698 0.87215 0.74706 0.0
C1246 C 0.58408 0.85584 0.68613 0.0
C1247 C 0.56583 0.81226 0.6328 0.0
C1248 C 0.55059 0.7852 0.64123 0.0
C1249 C 0.56973 0.82886 0.69464 0.0
C1250 C 0.53993 0.7751 0.71291 0.0
C1251 C 0.54399 0.79141 0.77456 0.0
H1252 H 0.27468 0.75123 0.65192 0.0
H1253 H 0.24721 0.80548 0.63736 0.0
H1254 H 0.21558 0.78221 0.73795 0.0
H1255 H 0.19564 0.74597 0.83094 0.0
H1256 H 0.22227 0.69102 0.83799 0.0
H1257 H 0.25448 0.71509 0.74056 0.0
C1258 C 0.26178 0.758 0.67074 0.0
C1259 C 0.26328 0.78001 0.63698 0.0
C1260 C 0.24357 0.74442 0.7278 0.0
C1261 C 0.24625 0.78838 0.66158 0.0
C1262 C 0.22829 0.77518 0.71957 0.0
C1263 C 0.20867 0.7395 0.81123 0.0
C1264 C 0.20669 0.71679 0.84145 0.0
C1265 C 0.22678 0.75317 0.75331 0.0
C1266 C 0.22337 0.70831 0.81503 0.0
C1267 C 0.2418 0.7221 0.75942 0.0
H1268 H 0.31287 0.44729 0.77328 0.0
H1269 H 0.31303 0.50551 0.91909 0.0
H1270 H 0.29047 0.5157 0.82198 0.0
H1271 H 0.27298 0.51002 0.69331 0.0
H1272 H 0.27346 0.45262 0.54537 0.0
H1273 H 0.29312 0.44002 0.64588 0.0
C1274 C 0.30778 0.46206 0.78412 0.0
C1275 C 0.31475 0.47563 0.85364 0.0
C1276 C 0.29492 0.46803 0.72751 0.0
C1277 C 0.30789 0.49466 0.8665 0.0
C1278 C 0.29505 0.5006 0.81075 0.0
C1279 C 0.27724 0.49464 0.68297 0.0
C1280 C 0.27163 0.48232 0.61161 0.0
C1281 C 0.28884 0.4877 0.74068 0.0
C1282 C 0.27713 0.46226 0.59979 0.0
C1283 C 0.28862 0.45517 0.65719 0.0
H1284 H 0.14271 0.52676 0.4989 0.0
H1285 H 0.21534 0.53051 0.54991 0.0
H1286 H 0.2221 0.55876 0.6573 0.0
H1287 H 0.20796 0.58267 0.73668 0.0
H1288 H 0.13481 0.57844 0.69289 0.0
H1289 H 0.12742 0.54981 0.58403 0.0
C1290 C 0.16002 0.53388 0.53351 0.0
C1291 C 0.17858 0.52663 0.51598 0.0
C1292 C 0.16358 0.54983 0.59698 0.0
C1293 C 0.20075 0.53573 0.56194 0.0
C1294 C 0.20465 0.55191 0.62356 0.0
C1295 C 0.19033 0.57546 0.70347 0.0
C1296 C 0.17201 0.58274 0.72287 0.0
C1297 C 0.18625 0.55906 0.6416 0.0
C1298 C 0.14913 0.57294 0.67974 0.0
C1299 C 0.14501 0.55674 0.61709 0.0
H1300 H 0.54431 0.66364 0.61539 0.0
H1301 H 0.49974 0.62058 0.42028 0.0
H1302 H 0.46574 0.58914 0.50333 0.0
H1303 H 0.44784 0.5748 0.63153 0.0
H1304 H 0.49327 0.61668 0.82679 0.0
H1305 H 0.52788 0.64743 0.74369 0.0
C1306 C 0.52722 0.64731 0.59095 0.0
C1307 C 0.5244 0.64476 0.51146 0.0
C1308 C 0.50792 0.62904 0.6392 0.0
C1309 C 0.50228 0.62324 0.48103 0.0
C1310 C 0.48283 0.60522 0.52858 0.0
C1311 C 0.46539 0.59059 0.65587 0.0
C1312 C 0.46793 0.59342 0.73528 0.0
C1313 C 0.48529 0.60809 0.60773 0.0
C1314 C 0.4909 0.61385 0.76598 0.0
C1315 C 0.51063 0.63155 0.71842 0.0
H1316 H 0.43912 0.8877 0.77021 0.0
H1317 H 0.48657 0.87615 0.60817 0.0
H1318 H 0.46169 0.87975 0.50373 0.0
H1319 H 0.42497 0.88408 0.45777 0.0
H1320 H 0.37642 0.89378 0.62035 0.0
H1321 H 0.40313 0.89317 0.72413 0.0
C1322 C 0.44431 0.88644 0.71207 0.0
C1323 C 0.46484 0.88181 0.69732 0.0
C1324 C 0.42952 0.888 0.65189 0.0
C1325 C 0.47084 0.87965 0.62138 0.0
C1326 C 0.45661 0.8817 0.56142 0.0
C1327 C 0.42039 0.8863 0.51584 0.0
C1328 C 0.39866 0.88898 0.53088 0.0
C1329 C 0.43566 0.88554 0.57588 0.0
C1330 C 0.39293 0.8916 0.60676 0.0
C1331 C 0.40824 0.89127 0.66643 0.0
H1332 H 0.33038 0.38396 0.24217 0.0
H1333 H 0.27062 0.39548 0.14523 0.0
H1334 H 0.23899 0.3492 0.16105 0.0
H1335 H 0.228 0.30631 0.21191 0.0
H1336 H 0.28867 0.29544 0.30708 0.0
H1337 H 0.32037 0.34057 0.28141 0.0
C1338 C 0.31049 0.37619 0.22335 0.0
C1339 C 0.30274 0.39295 0.19261 0.0
C1340 C 0.29263 0.34974 0.23254 0.0
C1341 C 0.27702 0.38281 0.16828 0.0
C1342 C 0.25896 0.35643 0.17785 0.0
C1343 C 0.24821 0.31368 0.22617 0.0
C1344 C 0.25581 0.29739 0.26206 0.0
C1345 C 0.26646 0.3398 0.21126 0.0
C1346 C 0.28215 0.30739 0.27968 0.0
C1347 C 0.30034 0.33328 0.26522 0.0
H1348 H 0.74665 0.94108 0.19404 0.0
H1349 H 0.75358 1.00596 0.32209 0.0
H1350 H 0.70824 0.992 0.29532 0.0
H1351 H 0.66566 0.95938 0.24518 0.0
H1352 H 0.65846 0.89504 0.11484 0.0
H1353 H 0.70493 0.91083 0.1324 0.0
C1354 C 0.73838 0.95241 0.2153 0.0
C1355 C 0.75362 0.97452 0.26061 0.0
C1356 C 0.7122 0.94427 0.19956 0.0
C1357 C 0.74248 0.98895 0.28711 0.0
C1358 C 0.71646 0.98089 0.2721 0.0
C1359 C 0.6744 0.94907 0.21951 0.0
C1360 C 0.65871 0.92609 0.17872 0.0
C1361 C 0.70103 0.95832 0.22979 0.0
C1362 C 0.6702 0.91291 0.14566 0.0
C1363 C 0.69671 0.92185 0.15629 0.0
H1364 H 0.12167 0.82222 0.22305 0.0
H1365 H 0.04582 0.76062 0.28957 0.0
H1366 H 0.05808 0.72864 0.2565 0.0
H1367 H 0.09126 0.71805 0.21876 0.0
H1368 H 0.16692 0.77871 0.15078 0.0
H1369 H 0.15386 0.81117 0.17392 0.0
C1370 C 0.10766 0.8018 0.22929 0.0
C1371 C 0.08282 0.79397 0.25932 0.0
C1372 C 0.11485 0.78332 0.21008 0.0
C1373 C 0.06505 0.76735 0.26696 0.0
C1374 C 0.07205 0.74897 0.24813 0.0
C1375 C 0.10465 0.73836 0.20738 0.0
C1376 C 0.12987 0.74605 0.18237 0.0
C1377 C 0.097 0.75673 0.22101 0.0
C1378 C 0.14725 0.77237 0.16865 0.0
C1379 C 0.13983 0.79089 0.18255 0.0
H1380 H 0.83006 0.73135 0.79757 0.0
H1381 H 0.76723 0.73996 0.70887 0.0
H1382 H 0.73656 0.69489 0.739 0.0
H1383 H 0.72786 0.65208 0.78093 0.0
H1384 H 0.78985 0.64286 0.87112 0.0
H1385 H 0.82059 0.68911 0.85026 0.0
C1386 C 0.80961 0.72352 0.78578 0.0
C1387 C 0.8011 0.7392 0.75051 0.0
C1388 C 0.79193 0.69741 0.80324 0.0
C1389 C 0.77446 0.72853 0.7358 0.0
C1390 C 0.75685 0.70266 0.75284 0.0
C1391 C 0.74803 0.66038 0.79743 0.0
C1392 C 0.75662 0.64427 0.82808 0.0
C1393 C 0.76542 0.68683 0.78523 0.0
C1394 C 0.78278 0.65505 0.84868 0.0
C1395 C 0.80033 0.68141 0.83614 0.0
H1396 H 0.31403 0.10502 0.79302 0.0
H1397 H 0.30407 0.03451 0.69295 0.0
H1398 H 0.34907 0.04799 0.72199 0.0
H1399 H 0.39205 0.08095 0.76727 0.0
H1400 H 0.40267 0.15121 0.86901 0.0
H1401 H 0.35655 0.13665 0.84826 0.0
C1402 C 0.32157 0.09242 0.77833 0.0
C1403 C 0.30554 0.06876 0.74032 0.0
C1404 C 0.34761 0.10029 0.79533 0.0
C1405 C 0.31579 0.05277 0.72202 0.0
C1406 C 0.34161 0.06049 0.73846 0.0
C1407 C 0.38412 0.09287 0.78602 0.0
C1408 C 0.40061 0.11703 0.81988 0.0
C1409 C 0.35777 0.08436 0.77389 0.0
C1410 C 0.39023 0.13237 0.84388 0.0
C1411 C 0.36394 0.12411 0.83144 0.0
H1412 H 0.97052 0.32803 0.76451 0.0
H1413 H 0.90113 0.27102 0.87759 0.0
H1414 H 0.91382 0.23824 0.85692 0.0
H1415 H 0.94351 0.22547 0.79943 0.0
H1416 H 1.01339 0.28334 0.68887 0.0
H1417 H 1.00173 0.3162 0.7165 0.0
C1418 C 0.95834 0.30847 0.78538 0.0
C1419 C 0.93494 0.30187 0.82234 0.0
C1420 C 0.96582 0.28992 0.77354 0.0
C1421 C 0.91936 0.27657 0.84964 0.0
C1422 C 0.92654 0.25783 0.83735 0.0
C1423 C 0.95633 0.24531 0.7819 0.0
C1424 C 0.97924 0.25183 0.74151 0.0
C1425 C 0.94956 0.26422 0.79829 0.0
C1426 C 0.99566 0.27771 0.71987 0.0
C1427 C 0.98898 0.29653 0.73547 0.0
H1428 H 0.89483 0.64173 0.55438 0.0
H1429 H 0.95437 0.62725 0.63943 0.0
H1430 H 0.98739 0.67148 0.60966 0.0
H1431 H 0.99931 0.71506 0.5677 0.0
H1432 H 0.94086 0.73039 0.48072 0.0
H1433 H 0.90743 0.685 0.50251 0.0
C1434 C 0.91505 0.64814 0.56568 0.0
C1435 C 0.92199 0.63106 0.59964 0.0
C1436 C 0.93413 0.67377 0.54816 0.0
C1437 C 0.94834 0.63983 0.61362 0.0
C1438 C 0.96731 0.66519 0.59668 0.0
C1439 C 0.97928 0.7083 0.55237 0.0
C1440 C 0.97248 0.72586 0.52243 0.0
C1441 C 0.96039 0.68239 0.56508 0.0
C1442 C 0.94654 0.71705 0.50282 0.0
C1443 C 0.92746 0.69119 0.51588 0.0
H1444 H 0.40275 0.25706 0.56311 0.0
H1445 H 0.41696 0.3321 0.63702 0.0
H1446 H 0.37263 0.32005 0.60488 0.0
H1447 H 0.32886 0.28743 0.56442 0.0
H1448 H 0.31381 0.21269 0.48779 0.0
H1449 H 0.35933 0.22536 0.51187 0.0
C1450 C 0.39628 0.27092 0.57127 0.0
C1451 C 0.41337 0.2955 0.60292 0.0
C1452 C 0.37053 0.26389 0.55228 0.0
C1453 C 0.40444 0.31308 0.613 0.0
C1454 C 0.37899 0.3062 0.59472 0.0
C1455 C 0.33573 0.27413 0.55154 0.0
C1456 C 0.31818 0.24929 0.52372 0.0
C1457 C 0.36178 0.28158 0.56547 0.0
C1458 C 0.32713 0.23208 0.50792 0.0
C1459 C 0.35309 0.23928 0.52232 0.0
H1460 H 0.75972 0.05249 0.56428 0.0
H1461 H 0.83151 0.11375 0.47397 0.0
H1462 H 0.81665 0.14489 0.49592 0.0
H1463 H 0.78449 0.15496 0.5509 0.0
H1464 H 0.71254 0.09283 0.63989 0.0
H1465 H 0.72612 0.06173 0.60761 0.0
C1466 C 0.77189 0.0726 0.54802 0.0
C1467 C 0.7966 0.08085 0.51727 0.0
C1468 C 0.76324 0.09022 0.56111 0.0
C1469 C 0.81227 0.10691 0.49665 0.0
C1470 C 0.80384 0.12471 0.5099 0.0
C1471 C 0.7716 0.13458 0.56243 0.0
C1472 C 0.74751 0.12637 0.59848 0.0
C1473 C 0.77955 0.11665 0.54359 0.0
C1474 C 0.73114 0.09982 0.61251 0.0
C1475 C 0.73892 0.08197 0.59419 0.0
H1476 H 0.39123 0.98486 0.10714 0.0
H1477 H 0.45104 0.97843 0.22497 0.0
H1478 H 0.48155 0.02466 0.20344 0.0
H1479 H 0.49185 0.06587 0.14168 0.0
H1480 H 0.43125 0.07193 0.02589 0.0
H1481 H 0.40028 0.02693 0.05693 0.0
C1482 C 0.41084 0.99374 0.12931 0.0
C1483 C 0.41893 0.97836 0.16764 0.0
C1484 C 0.4281 0.02019 0.11669 0.0
C1485 C 0.44432 0.98999 0.19614 0.0
C1486 C 0.46177 1.01634 0.18324 0.0
C1487 C 0.47179 0.05748 0.12395 0.0
C1488 C 0.464 0.07234 0.08079 0.0
C1489 C 0.454 0.0315 0.14219 0.0
C1490 C 0.43786 0.06108 0.05897 0.0
C1491 C 0.42013 0.03527 0.0765 0.0
H1492 H 0.06105 0.41785 0.12225 0.0
H1493 H 0.07462 0.49089 0.21003 0.0
H1494 H 1.02877 0.47751 0.18881 0.0
H1495 H 0.98558 0.44589 0.13622 0.0
H1496 H 0.97308 0.37274 0.04976 0.0
H1497 H 1.01764 0.38522 0.08016 0.0
C1498 C 0.05378 0.4306 0.13819 0.0
C1499 C 0.07098 0.45517 0.1682 0.0
C1500 C 1.02763 0.4228 0.12552 0.0
C1501 C 0.06155 0.4717 0.18808 0.0
C1502 C 0.03542 0.46411 0.17526 0.0
C1503 C 0.99249 0.43254 0.12489 0.0
C1504 C 0.97585 0.4084 0.0902 0.0
C1505 C 1.01836 0.43983 0.1427 0.0
C1506 C 0.98529 0.39143 0.07604 0.0
C1507 C 1.01085 0.39855 0.09338 0.0
H1508 H 0.61438 0.55904 0.14674 0.0
H1509 H 0.67947 0.61487 0.01438 0.0
H1510 H 0.66756 0.6476 0.04133 0.0
H1511 H 0.63731 0.65982 0.09551 0.0
H1512 H 0.57279 0.60499 0.23057 0.0
H1513 H 0.58596 0.57254 0.21018 0.0
C1514 C 0.62613 0.57843 0.1243 0.0
C1515 C 0.64777 0.58432 0.078 0.0
C1516 C 0.61924 0.59736 0.14046 0.0
C1517 C 0.66276 0.60966 0.05001 0.0
C1518 C 0.65591 0.62843 0.06526 0.0
C1519 C 0.62628 0.64084 0.12128 0.0
C1520 C 0.60407 0.63484 0.16448 0.0
C1521 C 0.63401 0.62241 0.10941 0.0
C1522 C 0.5901 0.61023 0.19783 0.0
C1523 C 0.59753 0.59162 0.18562 0.0
H1524 H 0.56507 0.97658 0.87975 0.0
H1525 H 0.62319 0.96814 1.00226 0.0
H1526 H 0.65491 1.01338 0.97849 0.0
H1527 H 0.66566 0.05594 0.92966 0.0
H1528 H 0.60878 0.06493 0.80358 0.0
H1529 H 0.57703 1.01881 0.82161 0.0
C1530 C 0.58474 0.98457 0.90072 0.0
C1531 C 0.59162 0.96891 0.94326 0.0
C1532 C 0.60307 1.01069 0.88633 0.0
C1533 C 0.61727 0.97962 0.96948 0.0
C1534 C 0.63546 1.00555 0.95607 0.0
C1535 C 0.64637 0.04769 0.90541 0.0
C1536 C 0.63947 0.06368 0.86552 0.0
C1537 C 0.62848 0.02131 0.91556 0.0
C1538 C 0.61454 0.05286 0.8339 0.0
C1539 C 0.5964 0.02658 0.84466 0.0
H1540 H 0.99723 0.62247 0.89227 0.0
H1541 H 0.98661 0.55221 0.79082 0.0
H1542 H 0.0329 0.5671 0.8095 0.0
H1543 H 0.07562 0.59885 0.86451 0.0
H1544 H 0.08548 0.6694 0.96391 0.0
H1545 H 0.04046 0.65581 0.93535 0.0
C1546 C 1.00522 0.61069 0.87274 0.0
C1547 C 0.98862 0.58638 0.83965 0.0
C1548 C 0.03172 0.61939 0.8838 0.0
C1549 C 0.99909 0.57117 0.81519 0.0
C1550 C 1.02551 0.57961 0.82658 0.0
C1551 C 0.06808 0.61148 0.87891 0.0
C1552 C 0.08416 0.63517 0.91686 0.0
C1553 C 0.04193 0.60352 0.86218 0.0
C1554 C 0.07381 0.65112 0.93491 0.0
C1555 C 0.04794 0.64332 0.91875 0.0
H1556 H 0.41694 0.378 0.91299 0.0
H1557 H 0.48747 0.43539 0.80579 0.0
H1558 H 0.47483 0.46826 0.82628 0.0
H1559 H 0.44519 0.4811 0.88444 0.0
H1560 H 0.37435 0.42281 0.9898 0.0
H1561 H 0.38556 0.38981 0.9596 0.0
C1562 C 0.42935 0.39764 0.89306 0.0
C1563 C 0.4531 0.40433 0.85808 0.0
C1564 C 0.42195 0.41626 0.90515 0.0
C1565 C 0.46898 0.42976 0.83215 0.0
C1566 C 0.46182 0.44855 0.84446 0.0
C1567 C 0.43204 0.46113 0.90007 0.0
C1568 C 0.40902 0.45457 0.94008 0.0
C1569 C 0.43858 0.44211 0.88235 0.0
C1570 C 0.39218 0.42852 0.95925 0.0
C1571 C 0.39861 0.4096 0.94217 0.0
H1572 H 0.16601 0.39911 0.46818 0.0
H1573 H 0.10367 0.40986 0.38691 0.0
H1574 H 0.07224 0.36536 0.42073 0.0
H1575 H 0.06268 0.32216 0.46184 0.0
H1576 H 0.12423 0.31083 0.54412 0.0
H1577 H 0.15576 0.35678 0.522 0.0
C1578 C 0.14552 0.39188 0.45881 0.0
C1579 C 0.13735 0.40795 0.4243 0.0
C1580 C 0.1274 0.3661 0.47842 0.0
C1581 C 0.11065 0.3981 0.41304 0.0
C1582 C 0.0926 0.37256 0.43223 0.0
C1583 C 0.08293 0.32999 0.47668 0.0
C1584 C 0.09117 0.31334 0.50524 0.0
C1585 C 0.10079 0.35626 0.4634 0.0
C1586 C 0.11744 0.32345 0.52341 0.0
C1587 C 0.13544 0.34964 0.51004 0.0
H1588 H 0.72801 0.79719 0.53873 0.0
H1589 H 0.73359 0.73783 0.41572 0.0
H1590 H 0.68694 0.71492 0.39154 0.0
H1591 H 0.64545 0.71421 0.39321 0.0
H1592 H 0.64017 0.77504 0.50943 0.0
H1593 H 0.68539 0.79467 0.54848 0.0
C1594 C 0.71881 0.77891 0.50836 0.0
C1595 C 0.7341 0.76907 0.47949 0.0
C1596 C 0.69199 0.76624 0.49244 0.0
C1597 C 0.72212 0.74568 0.4387 0.0
C1598 C 0.69547 0.73263 0.42457 0.0
C1599 C 0.654 0.73147 0.42831 0.0
C1600 C 0.63929 0.74308 0.4479 0.0
C1601 C 0.6803 0.74308 0.44934 0.0
C1602 C 0.65093 0.76562 0.49309 0.0
C1603 C 0.6769 0.77697 0.51544 0.0
H1604 H 0.27418 0.88551 0.46911 0.0
H1605 H 0.3453 0.94624 0.37158 0.0
H1606 H 0.33131 0.97751 0.3962 0.0
H1607 H 0.29776 0.98722 0.4367 0.0
H1608 H 0.22693 0.92744 0.53619 0.0
H1609 H 0.24194 0.89618 0.51991 0.0
C1610 C 0.28681 0.90565 0.45405 0.0
C1611 C 0.31079 0.91338 0.41803 0.0
C1612 C 0.27864 0.92368 0.46852 0.0
C1613 C 0.3268 0.93961 0.3992 0.0
C1614 C 0.31877 0.95756 0.41309 0.0
C1615 C 0.28581 0.96741 0.45597 0.0
C1616 C 0.26136 0.95961 0.48787 0.0
C1617 C 0.2946 0.94974 0.44648 0.0
C1618 C 0.24599 0.93395 0.51253 0.0
C1619 C 0.25451 0.91608 0.50265 0.0
loop_
_geom_bond_atom_site_label_1
_geom_bond_atom_site_label_2
_geom_bond_distance
_geom_bond_site_symmetry_2
_ccdc_geom_bond_type
Zn0 N4 2.020 . S
Zn0 O8 2.019 . S
Zn0 N10 2.119 . S
Zn0 O18 1.975 . S
C1 N2 1.334 . S
C1 N5 1.336 . S
N2 C1 1.334 . S
N2 C3 1.334 . S
C3 N2 1.334 . S
C3 N4 1.336 . S
N4 Zn0 2.020 . S
N4 C3 1.336 . S
N4 N5 1.354 . S
N5 C1 1.336 . S
N5 N4 1.354 . S
N5 Zn9 2.020 . S
C6 O7 1.244 . S
C6 O30 1.257 . S
O7 C6 1.244 . S
O8 Zn0 2.019 . S
O8 C28 1.257 . S
Zn9 N5 2.020 . S
Zn9 O16 1.975 . S
Zn9 N25 2.119 . S
Zn9 O30 2.019 . S
N10 Zn0 2.119 . S
N10 C12 1.334 . S
N10 C13 1.328 . S
C11 C12 1.391 . S
C11 N14 1.329 . S
C11 H32 0.930 . S
C12 N10 1.334 . S
C12 C11 1.391 . S
C12 H19 0.930 . S
C13 N10 1.328 . S
C13 C15 1.392 . S
C13 H20 0.930 . S
N14 C11 1.329 . S
N14 C15 1.331 . S
C15 C13 1.392 . S
C15 N14 1.331 . S
O16 Zn9 1.975 . S
O16 C17 1.252 . S
C17 O16 1.252 . S
C17 O18 1.252 . S
O18 Zn0 1.975 . S
O18 C17 1.252 . S
H19 C12 0.930 . S
H20 C13 0.930 . S
C21 C22 1.392 . S
C21 N25 1.328 . S
C21 H27 0.930 . S
C22 C21 1.392 . S
C22 N26 1.331 . S
C23 C24 1.391 . S
C23 N26 1.329 . S
C23 H33 0.930 . S
C24 C23 1.391 . S
C24 N25 1.334 . S
C24 H31 0.930 . S
N25 Zn9 2.119 . S
N25 C21 1.328 . S
N25 C24 1.334 . S
N26 C22 1.331 . S
N26 C23 1.329 . S
H27 C21 0.930 . S
C28 O8 1.257 . S
C28 O29 1.244 . S
O29 C28 1.244 . S
O30 C6 1.257 . S
O30 Zn9 2.019 . S
H31 C24 0.930 . S
H32 C11 0.930 . S
H33 C23 0.930 . S
Zn34 N38 2.020 . S
Zn34 O42 2.019 . S
Zn34 N44 2.119 . S
Zn34 O52 1.975 . S
C35 N36 1.334 . S
C35 N39 1.336 . S
N36 C35 1.334 . S
N36 C37 1.334 . S
C37 N36 1.334 . S
C37 N38 1.336 . S
N38 Zn34 2.020 . S
N38 C37 1.336 . S
N38 N39 1.354 . S
N39 C35 1.336 . S
N39 N38 1.354 . S
N39 Zn43 2.020 . S
C40 O41 1.244 . S
C40 O64 1.257 . S
O41 C40 1.244 . S
O42 Zn34 2.019 . S
O42 C62 1.257 . S
Zn43 N39 2.020 . S
Zn43 O50 1.975 . S
Zn43 N59 2.109 1_565 S
Zn43 O64 2.019 1_565 S
N44 Zn34 2.119 . S
N44 C46 1.334 . S
N44 C47 1.328 . S
C45 C46 1.391 . S
C45 N48 1.329 . S
C45 H66 0.930 . S
C46 N44 1.334 . S
C46 C45 1.391 . S
C46 H53 0.930 . S
C47 N44 1.328 . S
C47 C49 1.392 . S
C47 H54 0.930 . S
N48 C45 1.329 . S
N48 C49 1.331 . S
C49 C47 1.392 . S
C49 N48 1.331 . S
O50 Zn43 1.975 . S
O50 C51 1.252 . S
C51 O50 1.252 . S
C51 O52 1.252 . S
O52 Zn34 1.975 . S
O52 C51 1.252 . S
H53 C46 0.930 . S
H54 C47 0.930 . S
C55 C56 1.392 . S
C55 N59 1.350 . S
C55 H61 0.930 . S
C56 C55 1.392 . S
C56 N60 1.331 . S
C57 C58 1.391 . S
C57 N60 1.329 1_565 S
C57 H67 0.930 . S
C58 C57 1.391 . S
C58 N59 1.325 1_565 S
C58 H65 0.930 . S
N59 Zn43 2.109 1_545 S
N59 C55 1.350 . S
N59 C58 1.325 1_545 S
N60 C56 1.331 . S
N60 C57 1.329 1_545 S
H61 C55 0.930 . S
C62 O42 1.257 . S
C62 O63 1.244 . S
O63 C62 1.244 . S
O64 C40 1.257 . S
O64 Zn43 2.019 1_545 S
H65 C58 0.930 . S
H66 C45 0.930 . S
H67 C57 0.930 . S
Zn68 N72 2.020 . S
Zn68 O76 2.019 . S
Zn68 N78 2.119 . S
Zn68 O86 1.975 . S
C69 N70 1.334 . S
C69 N73 1.336 . S
N70 C69 1.334 . S
N70 C71 1.334 . S
C71 N70 1.334 . S
C71 N72 1.336 . S
N72 Zn68 2.020 . S
N72 C71 1.336 . S
N72 N73 1.354 . S
N73 C69 1.336 . S
N73 N72 1.354 . S
N73 Zn77 2.020 . S
C74 O75 1.244 . S
C74 O98 1.257 . S
O75 C74 1.244 . S
O76 Zn68 2.019 . S
O76 C96 1.257 . S
Zn77 N73 2.020 . S
Zn77 O84 1.975 . S
Zn77 N93 2.126 1_455 S
Zn77 O98 2.019 1_455 S
N78 Zn68 2.119 . S
N78 C80 1.334 . S
N78 C81 1.328 . S
C79 C80 1.391 . S
C79 N82 1.329 . S
C79 H100 0.930 . S
C80 N78 1.334 . S
C80 C79 1.391 . S
C80 H87 0.930 . S
C81 N78 1.328 . S
C81 C83 1.392 . S
C81 H88 0.930 . S
N82 C79 1.329 . S
N82 C83 1.331 . S
C83 C81 1.392 . S
C83 N82 1.331 . S
O84 Zn77 1.975 . S
O84 C85 1.252 . S
C85 O84 1.252 . S
C85 O86 1.252 . S
O86 Zn68 1.975 . S
O86 C85 1.252 . S
H87 C80 0.930 . S
H88 C81 0.930 . S
C89 C90 1.392 . S
C89 N93 1.342 . S
C89 H95 0.930 . S
C90 C89 1.392 . S
C90 N94 1.331 . S
C91 C92 1.391 . S
C91 N94 1.329 1_455 S
C91 H101 0.930 . S
C92 C91 1.391 . S
C92 N93 1.315 1_455 S
C92 H99 0.930 . S
N93 Zn77 2.126 1_655 S
N93 C89 1.342 . S
N93 C92 1.315 1_655 S
N94 C90 1.331 . S
N94 C91 1.329 1_655 S
H95 C89 0.930 . S
C96 O76 1.257 . S
C96 O97 1.244 . S
O97 C96 1.244 . S
O98 C74 1.257 . S
O98 Zn77 2.019 1_655 S
H99 C92 0.930 . S
H100 C79 0.930 . S
H101 C91 0.930 . S
Zn102 N106 2.020 . S
Zn102 O110 2.019 . S
Zn102 N112 2.119 . S
Zn102 O120 1.975 . S
C103 N104 1.334 . S
C103 N107 1.336 . S
N104 C103 1.334 . S
N104 C105 1.334 . S
C105 N104 1.334 . S
C105 N106 1.336 . S
N106 Zn102 2.020 . S
N106 C105 1.336 . S
N106 N107 1.354 . S
N107 C103 1.336 . S
N107 N106 1.354 . S
N107 Zn111 2.020 . S
C108 O109 1.244 . S
C108 O132 1.257 . S
O109 C108 1.244 . S
O110 Zn102 2.019 . S
O110 C130 1.257 . S
Zn111 N107 2.020 . S
Zn111 O118 1.975 . S
Zn111 N127 2.119 . S
Zn111 O132 2.019 . S
N112 Zn102 2.119 . S
N112 C114 1.334 . S
N112 C115 1.328 . S
C113 C114 1.391 . S
C113 N116 1.329 . S
C113 H134 0.930 . S
C114 N112 1.334 . S
C114 C113 1.391 . S
C114 H121 0.930 . S
C115 N112 1.328 . S
C115 C117 1.392 . S
C115 H122 0.930 . S
N116 C113 1.329 . S
N116 C117 1.331 . S
C117 C115 1.392 . S
C117 N116 1.331 . S
O118 Zn111 1.975 . S
O118 C119 1.252 . S
C119 O118 1.252 . S
C119 O120 1.252 . S
O120 Zn102 1.975 . S
O120 C119 1.252 . S
H121 C114 0.930 . S
H122 C115 0.930 . S
C123 C124 1.392 . S
C123 N127 1.328 . S
C123 H129 0.930 . S
C124 C123 1.392 . S
C124 N128 1.331 . S
C125 C126 1.391 . S
C125 N128 1.329 . S
C125 H135 0.930 . S
C126 C125 1.391 . S
C126 N127 1.334 . S
C126 H133 0.930 . S
N127 Zn111 2.119 . S
N127 C123 1.328 . S
N127 C126 1.334 . S
N128 C124 1.331 . S
N128 C125 1.329 . S
H129 C123 0.930 . S
C130 O110 1.257 . S
C130 O131 1.244 . S
O131 C130 1.244 . S
O132 C108 1.257 . S
O132 Zn111 2.019 . S
H133 C126 0.930 . S
H134 C113 0.930 . S
H135 C125 0.930 . S
Zn136 N140 2.020 . S
Zn136 O144 2.019 . S
Zn136 N146 2.119 . S
Zn136 O154 1.975 . S
C137 N138 1.334 . S
C137 N141 1.336 . S
N138 C137 1.334 . S
N138 C139 1.334 . S
C139 N138 1.334 . S
C139 N140 1.336 . S
N140 Zn136 2.020 . S
N140 C139 1.336 . S
N140 N141 1.354 . S
N141 C137 1.336 . S
N141 N140 1.354 . S
N141 Zn145 2.020 . S
C142 O143 1.244 . S
C142 O166 1.257 . S
O143 C142 1.244 . S
O144 Zn136 2.019 . S
O144 C164 1.257 . S
Zn145 N141 2.020 . S
Zn145 O152 1.975 . S
Zn145 N161 2.109 1_545 S
Zn145 O166 2.019 1_545 S
N146 Zn136 2.119 . S
N146 C148 1.334 . S
N146 C149 1.328 . S
C147 C148 1.391 . S
C147 N150 1.329 . S
C147 H168 0.930 . S
C148 N146 1.334 . S
C148 C147 1.391 . S
C148 H155 0.930 . S
C149 N146 1.328 . S
C149 C151 1.392 . S
C149 H156 0.930 . S
N150 C147 1.329 . S
N150 C151 1.331 . S
C151 C149 1.392 . S
C151 N150 1.331 . S
O152 Zn145 1.975 . S
O152 C153 1.252 . S
C153 O152 1.252 . S
C153 O154 1.252 . S
O154 Zn136 1.975 . S
O154 C153 1.252 . S
H155 C148 0.930 . S
H156 C149 0.930 . S
C157 C158 1.392 . S
C157 N161 1.350 . S
C157 H163 0.930 . S
C158 C157 1.392 . S
C158 N162 1.331 . S
C159 C160 1.391 . S
C159 N162 1.329 1_545 S
C159 H169 0.930 . S
C160 C159 1.391 . S
C160 N161 1.325 1_545 S
C160 H167 0.930 . S
N161 Zn145 2.109 1_565 S
N161 C157 1.350 . S
N161 C160 1.325 1_565 S
N162 C158 1.331 . S
N162 C159 1.329 1_565 S
H163 C157 0.930 . S
C164 O144 1.257 . S
C164 O165 1.244 . S
O165 C164 1.244 . S
O166 C142 1.257 . S
O166 Zn145 2.019 1_565 S
H167 C160 0.930 . S
H168 C147 0.930 . S
H169 C159 0.930 . S
Zn170 N174 2.020 . S
Zn170 O178 2.019 . S
Zn170 N180 2.119 . S
Zn170 O188 1.975 . S
C171 N172 1.334 . S
C171 N175 1.336 . S
N172 C171 1.334 . S
N172 C173 1.334 . S
C173 N172 1.334 . S
C173 N174 1.336 . S
N174 Zn170 2.020 . S
N174 C173 1.336 . S
N174 N175 1.354 . S
N175 C171 1.336 . S
N175 N174 1.354 . S
N175 Zn179 2.020 . S
C176 O177 1.244 . S
C176 O200 1.257 . S
O177 C176 1.244 . S
O178 Zn170 2.019 . S
O178 C198 1.257 . S
Zn179 N175 2.020 . S
Zn179 O186 1.975 . S
Zn179 N195 2.126 1_655 S
Zn179 O200 2.019 1_655 S
N180 Zn170 2.119 . S
N180 C182 1.334 . S
N180 C183 1.328 . S
C181 C182 1.391 . S
C181 N184 1.329 . S
C181 H202 0.930 . S
C182 N180 1.334 . S
C182 C181 1.391 . S
C182 H189 0.930 . S
C183 N180 1.328 . S
C183 C185 1.392 . S
C183 H190 0.930 . S
N184 C181 1.329 . S
N184 C185 1.331 . S
C185 C183 1.392 . S
C185 N184 1.331 . S
O186 Zn179 1.975 . S
O186 C187 1.252 . S
C187 O186 1.252 . S
C187 O188 1.252 . S
O188 Zn170 1.975 . S
O188 C187 1.252 . S
H189 C182 0.930 . S
H190 C183 0.930 . S
C191 C192 1.392 . S
C191 N195 1.342 . S
C191 H197 0.930 . S
C192 C191 1.392 . S
C192 N196 1.331 . S
C193 C194 1.391 . S
C193 N196 1.329 1_655 S
C193 H203 0.930 . S
C194 C193 1.391 . S
C194 N195 1.315 1_655 S
C194 H201 0.930 . S
N195 Zn179 2.126 1_455 S
N195 C191 1.342 . S
N195 C194 1.315 1_455 S
N196 C192 1.331 . S
N196 C193 1.329 1_455 S
H197 C191 0.930 . S
C198 O178 1.257 . S
C198 O199 1.244 . S
O199 C198 1.244 . S
O200 C176 1.257 . S
O200 Zn179 2.019 1_455 S
H201 C194 0.930 . S
H202 C181 0.930 . S
H203 C193 0.930 . S
Zn204 N208 2.020 . S
Zn204 O212 2.019 . S
Zn204 N214 2.119 . S
Zn204 O222 1.975 . S
C205 N206 1.334 . S
C205 N209 1.336 . S
N206 C205 1.334 . S
N206 C207 1.334 . S
C207 N206 1.334 . S
C207 N208 1.336 . S
N208 Zn204 2.020 . S
N208 C207 1.336 . S
N208 N209 1.354 . S
N209 C205 1.336 . S
N209 N208 1.354 . S
N209 Zn213 2.020 . S
C210 O211 1.244 . S
C210 O234 1.257 . S
O211 C210 1.244 . S
O212 Zn204 2.019 . S
O212 C232 1.257 . S
Zn213 N209 2.020 . S
Zn213 O220 1.975 . S
Zn213 N229 2.119 . S
Zn213 O234 2.019 . S
N214 Zn204 2.119 . S
N214 C216 1.334 . S
N214 C217 1.328 . S
C215 C216 1.391 . S
C215 N218 1.329 . S
C215 H236 0.930 . S
C216 N214 1.334 . S
C216 C215 1.391 . S
C216 H223 0.930 . S
C217 N214 1.328 . S
C217 C219 1.392 . S
C217 H224 0.930 . S
N218 C215 1.329 . S
N218 C219 1.331 . S
C219 C217 1.392 . S
C219 N218 1.331 . S
O220 Zn213 1.975 . S
O220 C221 1.252 . S
C221 O220 1.252 . S
C221 O222 1.252 . S
O222 Zn204 1.975 . S
O222 C221 1.252 . S
H223 C216 0.930 . S
H224 C217 0.930 . S
C225 C226 1.392 . S
C225 N229 1.328 . S
C225 H231 0.930 . S
C226 C225 1.392 . S
C226 N230 1.331 . S
C227 C228 1.391 . S
C227 N230 1.329 . S
C227 H237 0.930 . S
C228 C227 1.391 . S
C228 N229 1.334 . S
C228 H235 0.930 . S
N229 Zn213 2.119 . S
N229 C225 1.328 . S
N229 C228 1.334 . S
N230 C226 1.331 . S
N230 C227 1.329 . S
H231 C225 0.930 . S
C232 O212 1.257 . S
C232 O233 1.244 . S
O233 C232 1.244 . S
O234 C210 1.257 . S
O234 Zn213 2.019 . S
H235 C228 0.930 . S
H236 C215 0.930 . S
H237 C227 0.930 . S
Zn238 N242 2.020 . S
Zn238 O246 2.019 . S
Zn238 N248 2.119 . S
Zn238 O256 1.975 . S
C239 N240 1.334 . S
C239 N243 1.336 . S
N240 C239 1.334 . S
N240 C241 1.334 . S
C241 N240 1.334 . S
C241 N242 1.336 . S
N242 Zn238 2.020 . S
N242 C241 1.336 . S
N242 N243 1.354 . S
N243 C239 1.336 . S
N243 N242 1.354 . S
N243 Zn247 2.020 . S
C244 O245 1.244 . S
C244 O268 1.257 . S
O245 C244 1.244 . S
O246 Zn238 2.019 . S
O246 C266 1.257 . S
Zn247 N243 2.020 . S
Zn247 O254 1.975 . S
Zn247 N263 2.119 . S
Zn247 O268 2.019 . S
N248 Zn238 2.119 . S
N248 C250 1.334 . S
N248 C251 1.328 . S
C249 C250 1.391 . S
C249 N252 1.329 . S
C249 H270 0.930 . S
C250 N248 1.334 . S
C250 C249 1.391 . S
C250 H257 0.930 . S
C251 N248 1.328 . S
C251 C253 1.392 . S
C251 H258 0.930 . S
N252 C249 1.329 . S
N252 C253 1.331 . S
C253 C251 1.392 . S
C253 N252 1.331 . S
O254 Zn247 1.975 . S
O254 C255 1.252 . S
C255 O254 1.252 . S
C255 O256 1.252 . S
O256 Zn238 1.975 . S
O256 C255 1.252 . S
H257 C250 0.930 . S
H258 C251 0.930 . S
C259 C260 1.392 . S
C259 N263 1.328 . S
C259 H265 0.930 . S
C260 C259 1.392 . S
C260 N264 1.331 . S
C261 C262 1.391 . S
C261 N264 1.329 . S
C261 H271 0.930 . S
C262 C261 1.391 . S
C262 N263 1.334 . S
C262 H269 0.930 . S
N263 Zn247 2.119 . S
N263 C259 1.328 . S
N263 C262 1.334 . S
N264 C260 1.331 . S
N264 C261 1.329 . S
H265 C259 0.930 . S
C266 O246 1.257 . S
C266 O267 1.244 . S
O267 C266 1.244 . S
O268 C244 1.257 . S
O268 Zn247 2.019 . S
H269 C262 0.930 . S
H270 C249 0.930 . S
H271 C261 0.930 . S
Zn272 N276 2.020 . S
Zn272 O280 2.019 . S
Zn272 N282 2.119 . S
Zn272 O290 1.975 . S
C273 N274 1.334 . S
C273 N277 1.336 . S
N274 C273 1.334 . S
N274 C275 1.334 . S
C275 N274 1.334 . S
C275 N276 1.336 . S
N276 Zn272 2.020 . S
N276 C275 1.336 . S
N276 N277 1.354 . S
N277 C273 1.336 . S
N277 N276 1.354 . S
N277 Zn281 2.020 . S
C278 O279 1.244 . S
C278 O302 1.257 . S
O279 C278 1.244 . S
O280 Zn272 2.019 . S
O280 C300 1.257 . S
Zn281 N277 2.020 . S
Zn281 O288 1.975 . S
Zn281 N297 2.119 . S
Zn281 O302 2.019 . S
N282 Zn272 2.119 . S
N282 C284 1.334 . S
N282 C285 1.328 . S
C283 C284 1.391 . S
C283 N286 1.329 . S
C283 H304 0.930 . S
C284 N282 1.334 . S
C284 C283 1.391 . S
C284 H291 0.930 . S
C285 N282 1.328 . S
C285 C287 1.392 . S
C285 H292 0.930 . S
N286 C283 1.329 . S
N286 C287 1.331 . S
C287 C285 1.392 . S
C287 N286 1.331 . S
O288 Zn281 1.975 . S
O288 C289 1.252 . S
C289 O288 1.252 . S
C289 O290 1.252 . S
O290 Zn272 1.975 . S
O290 C289 1.252 . S
H291 C284 0.930 . S
H292 C285 0.930 . S
C293 C294 1.392 . S
C293 N297 1.328 . S
C293 H299 0.930 . S
C294 C293 1.392 . S
C294 N298 1.331 . S
C295 C296 1.391 . S
C295 N298 1.329 . S
C295 H305 0.930 . S
C296 C295 1.391 . S
C296 N297 1.334 . S
C296 H303 0.930 . S
N297 Zn281 2.119 . S
N297 C293 1.328 . S
N297 C296 1.334 . S
N298 C294 1.331 . S
N298 C295 1.329 . S
H299 C293 0.930 . S
C300 O280 1.257 . S
C300 O301 1.244 . S
O301 C300 1.244 . S
O302 C278 1.257 . S
O302 Zn281 2.019 . S
H303 C296 0.930 . S
H304 C283 0.930 . S
H305 C295 0.930 . S
Zn306 N310 2.020 . S
Zn306 O314 2.019 . S
Zn306 N316 2.119 . S
Zn306 O324 1.975 . S
C307 N308 1.334 . S
C307 N311 1.336 1_556 S
N308 C307 1.334 . S
N308 C309 1.334 . S
C309 N308 1.334 . S
C309 N310 1.336 1_556 S
N310 Zn306 2.020 . S
N310 C309 1.336 1_554 S
N310 N311 1.354 . S
N311 C307 1.336 1_554 S
N311 N310 1.354 . S
N311 Zn315 2.020 . S
C312 O313 1.244 1_554 S
C312 O336 1.257 . S
O313 C312 1.244 1_556 S
O314 Zn306 2.019 . S
O314 C334 1.257 . S
Zn315 N311 2.020 . S
Zn315 O322 1.975 . S
Zn315 N331 2.119 . S
Zn315 O336 2.019 . S
N316 Zn306 2.119 . S
N316 C318 1.334 1_554 S
N316 C319 1.328 1_554 S
C317 C318 1.391 . S
C317 N320 1.329 . S
C317 H338 0.930 . S
C318 N316 1.334 1_556 S
C318 C317 1.391 . S
C318 H325 0.930 . S
C319 N316 1.328 1_556 S
C319 C321 1.392 . S
C319 H326 0.930 1_556 S
N320 C317 1.329 . S
N320 C321 1.331 . S
C321 C319 1.392 . S
C321 N320 1.331 . S
O322 Zn315 1.975 . S
O322 C323 1.252 . S
C323 O322 1.252 . S
C323 O324 1.252 . S
O324 Zn306 1.975 . S
O324 C323 1.252 . S
H325 C318 0.930 . S
H326 C319 0.930 1_554 S
C327 C328 1.392 . S
C327 N331 1.328 . S
C327 H333 0.930 . S
C328 C327 1.392 . S
C328 N332 1.331 . S
C329 C330 1.391 . S
C329 N332 1.329 . S
C329 H339 0.930 . S
C330 C329 1.391 . S
C330 N331 1.334 . S
C330 H337 0.930 . S
N331 Zn315 2.119 . S
N331 C327 1.328 . S
N331 C330 1.334 . S
N332 C328 1.331 . S
N332 C329 1.329 . S
H333 C327 0.930 . S
C334 O314 1.257 . S
C334 O335 1.244 . S
O335 C334 1.244 . S
O336 C312 1.257 . S
O336 Zn315 2.019 . S
H337 C330 0.930 . S
H338 C317 0.930 . S
H339 C329 0.930 . S
Zn340 N344 2.020 . S
Zn340 O348 2.019 . S
Zn340 N350 2.119 . S
Zn340 O358 1.975 . S
C341 N342 1.334 . S
C341 N345 1.336 1_556 S
N342 C341 1.334 . S
N342 C343 1.334 . S
C343 N342 1.334 . S
C343 N344 1.336 1_556 S
N344 Zn340 2.020 . S
N344 C343 1.336 1_554 S
N344 N345 1.354 . S
N345 C341 1.336 1_554 S
N345 N344 1.354 . S
N345 Zn349 2.020 . S
C346 O347 1.244 . S
C346 O370 1.257 . S
O347 C346 1.244 . S
O348 Zn340 2.019 . S
O348 C368 1.257 . S
Zn349 N345 2.020 . S
Zn349 O356 1.975 . S
Zn349 N365 2.119 . S
Zn349 O370 2.019 . S
N350 Zn340 2.119 . S
N350 C352 1.334 . S
N350 C353 1.328 . S
C351 C352 1.391 . S
C351 N354 1.329 . S
C351 H372 0.930 . S
C352 N350 1.334 . S
C352 C351 1.391 . S
C352 H359 0.930 . S
C353 N350 1.328 . S
C353 C355 1.392 . S
C353 H360 0.930 . S
N354 C351 1.329 . S
N354 C355 1.331 . S
C355 C353 1.392 . S
C355 N354 1.331 . S
O356 Zn349 1.975 . S
O356 C357 1.252 . S
C357 O356 1.252 . S
C357 O358 1.252 . S
O358 Zn340 1.975 . S
O358 C357 1.252 . S
H359 C352 0.930 . S
H360 C353 0.930 . S
C361 C362 1.392 . S
C361 N365 1.328 1_556 S
C361 H367 0.930 1_556 S
C362 C361 1.392 . S
C362 N366 1.331 . S
C363 C364 1.391 . S
C363 N366 1.329 . S
C363 H373 0.930 . S
C364 C363 1.391 . S
C364 N365 1.334 1_556 S
C364 H371 0.930 . S
N365 Zn349 2.119 . S
N365 C361 1.328 1_554 S
N365 C364 1.334 1_554 S
N366 C362 1.331 . S
N366 C363 1.329 . S
H367 C361 0.930 1_554 S
C368 O348 1.257 . S
C368 O369 1.244 1_554 S
O369 C368 1.244 1_556 S
O370 C346 1.257 . S
O370 Zn349 2.019 . S
H371 C364 0.930 . S
H372 C351 0.930 . S
H373 C363 0.930 . S
Zn374 N378 2.020 . S
Zn374 O382 2.019 . S
Zn374 N384 2.119 . S
Zn374 O392 1.975 . S
C375 N376 1.334 . S
C375 N379 1.336 1_556 S
N376 C375 1.334 . S
N376 C377 1.334 . S
C377 N376 1.334 . S
C377 N378 1.336 1_556 S
N378 Zn374 2.020 . S
N378 C377 1.336 1_554 S
N378 N379 1.354 . S
N379 C375 1.336 1_554 S
N379 N378 1.354 . S
N379 Zn383 2.020 . S
C380 O381 1.244 1_554 S
C380 O404 1.257 . S
O381 C380 1.244 1_556 S
O382 Zn374 2.019 . S
O382 C402 1.257 . S
Zn383 N379 2.020 . S
Zn383 O390 1.975 . S
Zn383 N399 2.119 . S
Zn383 O404 2.019 . S
N384 Zn374 2.119 . S
N384 C386 1.334 1_554 S
N384 C387 1.328 1_554 S
C385 C386 1.391 . S
C385 N388 1.329 . S
C385 H406 0.930 . S
C386 N384 1.334 1_556 S
C386 C385 1.391 . S
C386 H393 0.930 . S
C387 N384 1.328 1_556 S
C387 C389 1.392 . S
C387 H394 0.930 1_556 S
N388 C385 1.329 . S
N388 C389 1.331 . S
C389 C387 1.392 . S
C389 N388 1.331 . S
O390 Zn383 1.975 . S
O390 C391 1.252 . S
C391 O390 1.252 . S
C391 O392 1.252 . S
O392 Zn374 1.975 . S
O392 C391 1.252 . S
H393 C386 0.930 . S
H394 C387 0.930 1_554 S
C395 C396 1.392 . S
C395 N399 1.328 . S
C395 H401 0.930 . S
C396 C395 1.392 . S
C396 N400 1.331 . S
C397 C398 1.391 . S
C397 N400 1.329 . S
C397 H407 0.930 . S
C398 C397 1.391 . S
C398 N399 1.334 . S
C398 H405 0.930 . S
N399 Zn383 2.119 . S
N399 C395 1.328 . S
N399 C398 1.334 . S
N400 C396 1.331 . S
N400 C397 1.329 . S
H401 C395 0.930 . S
C402 O382 1.257 . S
C402 O403 1.244 . S
O403 C402 1.244 . S
O404 C380 1.257 . S
O404 Zn383 2.019 . S
H405 C398 0.930 . S
H406 C385 0.930 . S
H407 C397 0.930 . S
Zn408 N412 2.020 . S
Zn408 O416 2.019 . S
Zn408 N418 2.119 . S
Zn408 O426 1.975 . S
C409 N410 1.334 . S
C409 N413 1.336 1_554 S
N410 C409 1.334 . S
N410 C411 1.334 . S
C411 N410 1.334 . S
C411 N412 1.336 1_554 S
N412 Zn408 2.020 . S
N412 C411 1.336 1_556 S
N412 N413 1.354 . S
N413 C409 1.336 1_556 S
N413 N412 1.354 . S
N413 Zn417 2.020 . S
C414 O415 1.244 . S
C414 O438 1.257 . S
O415 C414 1.244 . S
O416 Zn408 2.019 . S
O416 C436 1.257 . S
Zn417 N413 2.020 . S
Zn417 O424 1.975 . S
Zn417 N433 2.119 . S
Zn417 O438 2.019 . S
N418 Zn408 2.119 . S
N418 C420 1.334 . S
N418 C421 1.328 . S
C419 C420 1.391 . S
C419 N422 1.329 . S
C419 H440 0.930 . S
C420 N418 1.334 . S
C420 C419 1.391 . S
C420 H427 0.930 . S
C421 N418 1.328 . S
C421 C423 1.392 . S
C421 H428 0.930 . S
N422 C419 1.329 . S
N422 C423 1.331 . S
C423 C421 1.392 . S
C423 N422 1.331 . S
O424 Zn417 1.975 . S
O424 C425 1.252 . S
C425 O424 1.252 . S
C425 O426 1.252 . S
O426 Zn408 1.975 . S
O426 C425 1.252 . S
H427 C420 0.930 . S
H428 C421 0.930 . S
C429 C430 1.392 . S
C429 N433 1.328 1_554 S
C429 H435 0.930 1_554 S
C430 C429 1.392 . S
C430 N434 1.331 . S
C431 C432 1.391 . S
C431 N434 1.329 . S
C431 H441 0.930 . S
C432 C431 1.391 . S
C432 N433 1.334 1_554 S
C432 H439 0.930 . S
N433 Zn417 2.119 . S
N433 C429 1.328 1_556 S
N433 C432 1.334 1_556 S
N434 C430 1.331 . S
N434 C431 1.329 . S
H435 C429 0.930 1_556 S
C436 O416 1.257 . S
C436 O437 1.244 1_556 S
O437 C436 1.244 1_554 S
O438 C414 1.257 . S
O438 Zn417 2.019 . S
H439 C432 0.930 . S
H440 C419 0.930 . S
H441 C431 0.930 . S
Zn442 N446 2.020 . S
Zn442 O450 2.019 . S
Zn442 N452 2.119 . S
Zn442 O460 1.975 . S
C443 N444 1.334 . S
C443 N447 1.336 1_554 S
N444 C443 1.334 . S
N444 C445 1.334 . S
C445 N444 1.334 . S
C445 N446 1.336 1_554 S
N446 Zn442 2.020 . S
N446 C445 1.336 1_556 S
N446 N447 1.354 . S
N447 C443 1.336 1_556 S
N447 N446 1.354 . S
N447 Zn451 2.020 . S
C448 O449 1.244 . S
C448 O472 1.257 . S
O449 C448 1.244 . S
O450 Zn442 2.019 . S
O450 C470 1.257 . S
Zn451 N447 2.020 . S
Zn451 O458 1.975 . S
Zn451 N467 2.119 . S
Zn451 O472 2.019 . S
N452 Zn442 2.119 . S
N452 C454 1.334 . S
N452 C455 1.328 . S
C453 C454 1.391 . S
C453 N456 1.329 . S
C453 H474 0.930 . S
C454 N452 1.334 . S
C454 C453 1.391 . S
C454 H461 0.930 . S
C455 N452 1.328 . S
C455 C457 1.392 . S
C455 H462 0.930 . S
N456 C453 1.329 . S
N456 C457 1.331 . S
C457 C455 1.392 . S
C457 N456 1.331 . S
O458 Zn451 1.975 . S
O458 C459 1.252 . S
C459 O458 1.252 . S
C459 O460 1.252 . S
O460 Zn442 1.975 . S
O460 C459 1.252 . S
H461 C454 0.930 . S
H462 C455 0.930 . S
C463 C464 1.392 . S
C463 N467 1.328 1_554 S
C463 H469 0.930 1_554 S
C464 C463 1.392 . S
C464 N468 1.331 . S
C465 C466 1.391 . S
C465 N468 1.329 . S
C465 H475 0.930 . S
C466 C465 1.391 . S
C466 N467 1.334 1_554 S
C466 H473 0.930 . S
N467 Zn451 2.119 . S
N467 C463 1.328 1_556 S
N467 C466 1.334 1_556 S
N468 C464 1.331 . S
N468 C465 1.329 . S
H469 C463 0.930 1_556 S
C470 O450 1.257 . S
C470 O471 1.244 1_556 S
O471 C470 1.244 1_554 S
O472 C448 1.257 . S
O472 Zn451 2.019 . S
H473 C466 0.930 . S
H474 C453 0.930 . S
H475 C465 0.930 . S
Zn476 N480 2.020 . S
Zn476 O484 2.019 . S
Zn476 N486 2.119 . S
Zn476 O494 1.975 . S
C477 N478 1.334 . S
C477 N481 1.336 1_554 S
N478 C477 1.334 . S
N478 C479 1.334 . S
C479 N478 1.334 . S
C479 N480 1.336 1_554 S
N480 Zn476 2.020 . S
N480 C479 1.336 1_556 S
N480 N481 1.354 . S
N481 C477 1.336 1_556 S
N481 N480 1.354 . S
N481 Zn485 2.020 . S
C482 O483 1.244 . S
C482 O506 1.257 . S
O483 C482 1.244 . S
O484 Zn476 2.019 . S
O484 C504 1.257 . S
Zn485 N481 2.020 . S
Zn485 O492 1.975 . S
Zn485 N501 2.119 . S
Zn485 O506 2.019 . S
N486 Zn476 2.119 . S
N486 C488 1.334 . S
N486 C489 1.328 . S
C487 C488 1.391 . S
C487 N490 1.329 . S
C487 H508 0.930 . S
C488 N486 1.334 . S
C488 C487 1.391 . S
C488 H495 0.930 . S
C489 N486 1.328 . S
C489 C491 1.392 . S
C489 H496 0.930 . S
N490 C487 1.329 . S
N490 C491 1.331 . S
C491 C489 1.392 . S
C491 N490 1.331 . S
O492 Zn485 1.975 . S
O492 C493 1.252 . S
C493 O492 1.252 . S
C493 O494 1.252 . S
O494 Zn476 1.975 . S
O494 C493 1.252 . S
H495 C488 0.930 . S
H496 C489 0.930 . S
C497 C498 1.392 . S
C497 N501 1.328 1_554 S
C497 H503 0.930 1_554 S
C498 C497 1.392 . S
C498 N502 1.331 . S
C499 C500 1.391 . S
C499 N502 1.329 . S
C499 H509 0.930 . S
C500 C499 1.391 . S
C500 N501 1.334 1_554 S
C500 H507 0.930 . S
N501 Zn485 2.119 . S
N501 C497 1.328 1_556 S
N501 C500 1.334 1_556 S
N502 C498 1.331 . S
N502 C499 1.329 . S
H503 C497 0.930 1_556 S
C504 O484 1.257 . S
C504 O505 1.244 1_556 S
O505 C504 1.244 1_554 S
O506 C482 1.257 . S
O506 Zn485 2.019 . S
H507 C500 0.930 . S
H508 C487 0.930 . S
H509 C499 0.930 . S
Zn510 N514 2.020 . S
Zn510 O518 2.019 . S
Zn510 N520 2.119 . S
Zn510 O528 1.975 . S
C511 N512 1.334 . S
C511 N515 1.336 . S
N512 C511 1.334 . S
N512 C513 1.334 . S
C513 N512 1.334 . S
C513 N514 1.336 . S
N514 Zn510 2.020 . S
N514 C513 1.336 . S
N514 N515 1.354 . S
N515 C511 1.336 . S
N515 N514 1.354 . S
N515 Zn519 2.020 . S
C516 O517 1.244 . S
C516 O540 1.257 . S
O517 C516 1.244 . S
O518 Zn510 2.019 . S
O518 C538 1.257 . S
Zn519 N515 2.020 . S
Zn519 O526 1.975 . S
Zn519 N535 2.119 . S
Zn519 O540 2.019 . S
N520 Zn510 2.119 . S
N520 C522 1.334 . S
N520 C523 1.328 . S
C521 C522 1.391 . S
C521 N524 1.329 . S
C521 H542 0.930 . S
C522 N520 1.334 . S
C522 C521 1.391 . S
C522 H529 0.930 . S
C523 N520 1.328 . S
C523 C525 1.392 . S
C523 H530 0.930 . S
N524 C521 1.329 . S
N524 C525 1.331 . S
C525 C523 1.392 . S
C525 N524 1.331 . S
O526 Zn519 1.975 . S
O526 C527 1.252 . S
C527 O526 1.252 . S
C527 O528 1.252 . S
O528 Zn510 1.975 . S
O528 C527 1.252 . S
H529 C522 0.930 . S
H530 C523 0.930 . S
C531 C532 1.392 . S
C531 N535 1.328 . S
C531 H537 0.930 . S
C532 C531 1.392 . S
C532 N536 1.331 . S
C533 C534 1.391 . S
C533 N536 1.329 . S
C533 H543 0.930 . S
C534 C533 1.391 . S
C534 N535 1.334 . S
C534 H541 0.930 . S
N535 Zn519 2.119 . S
N535 C531 1.328 . S
N535 C534 1.334 . S
N536 C532 1.331 . S
N536 C533 1.329 . S
H537 C531 0.930 . S
C538 O518 1.257 . S
C538 O539 1.244 . S
O539 C538 1.244 . S
O540 C516 1.257 . S
O540 Zn519 2.019 . S
H541 C534 0.930 . S
H542 C521 0.930 . S
H543 C533 0.930 . S
Zn544 N548 2.020 . S
Zn544 O552 2.019 . S
Zn544 N554 2.119 . S
Zn544 O562 1.975 . S
C545 N546 1.334 . S
C545 N549 1.336 . S
N546 C545 1.334 . S
N546 C547 1.334 . S
C547 N546 1.334 . S
C547 N548 1.336 . S
N548 Zn544 2.020 . S
N548 C547 1.336 . S
N548 N549 1.354 . S
N549 C545 1.336 . S
N549 N548 1.354 . S
N549 Zn553 2.020 . S
C550 O551 1.244 . S
C550 O574 1.257 . S
O551 C550 1.244 . S
O552 Zn544 2.019 . S
O552 C572 1.257 . S
Zn553 N549 2.020 . S
Zn553 O560 1.975 . S
Zn553 N569 2.119 . S
Zn553 O574 2.019 . S
N554 Zn544 2.119 . S
N554 C556 1.334 . S
N554 C557 1.328 . S
C555 C556 1.391 . S
C555 N558 1.329 . S
C555 H576 0.930 . S
C556 N554 1.334 . S
C556 C555 1.391 . S
C556 H563 0.930 . S
C557 N554 1.328 . S
C557 C559 1.392 . S
C557 H564 0.930 . S
N558 C555 1.329 . S
N558 C559 1.331 . S
C559 C557 1.392 . S
C559 N558 1.331 . S
O560 Zn553 1.975 . S
O560 C561 1.252 . S
C561 O560 1.252 . S
C561 O562 1.252 . S
O562 Zn544 1.975 . S
O562 C561 1.252 . S
H563 C556 0.930 . S
H564 C557 0.930 . S
C565 C566 1.392 . S
C565 N569 1.328 . S
C565 H571 0.930 . S
C566 C565 1.392 . S
C566 N570 1.331 . S
C567 C568 1.391 . S
C567 N570 1.329 . S
C567 H577 0.930 . S
C568 C567 1.391 . S
C568 N569 1.334 . S
C568 H575 0.930 . S
N569 Zn553 2.119 . S
N569 C565 1.328 . S
N569 C568 1.334 . S
N570 C566 1.331 . S
N570 C567 1.329 . S
H571 C565 0.930 . S
C572 O552 1.257 . S
C572 O573 1.244 . S
O573 C572 1.244 . S
O574 C550 1.257 . S
O574 Zn553 2.019 . S
H575 C568 0.930 . S
H576 C555 0.930 . S
H577 C567 0.930 . S
Zn578 N582 2.020 . S
Zn578 O586 2.019 . S
Zn578 N588 2.119 . S
Zn578 O596 1.975 . S
C579 N580 1.334 . S
C579 N583 1.336 . S
N580 C579 1.334 . S
N580 C581 1.334 . S
C581 N580 1.334 . S
C581 N582 1.336 . S
N582 Zn578 2.020 . S
N582 C581 1.336 . S
N582 N583 1.354 . S
N583 C579 1.336 . S
N583 N582 1.354 . S
N583 Zn587 2.020 . S
C584 O585 1.244 . S
C584 O608 1.257 . S
O585 C584 1.244 . S
O586 Zn578 2.019 . S
O586 C606 1.257 . S
Zn587 N583 2.020 . S
Zn587 O594 1.975 . S
Zn587 N603 2.119 . S
Zn587 O608 2.019 . S
N588 Zn578 2.119 . S
N588 C590 1.334 . S
N588 C591 1.328 . S
C589 C590 1.391 . S
C589 N592 1.329 . S
C589 H610 0.930 . S
C590 N588 1.334 . S
C590 C589 1.391 . S
C590 H597 0.930 . S
C591 N588 1.328 . S
C591 C593 1.392 . S
C591 H598 0.930 . S
N592 C589 1.329 . S
N592 C593 1.331 . S
C593 C591 1.392 . S
C593 N592 1.331 . S
O594 Zn587 1.975 . S
O594 C595 1.252 . S
C595 O594 1.252 . S
C595 O596 1.252 . S
O596 Zn578 1.975 . S
O596 C595 1.252 . S
H597 C590 0.930 . S
H598 C591 0.930 . S
C599 C600 1.392 . S
C599 N603 1.328 . S
C599 H605 0.930 . S
C600 C599 1.392 . S
C600 N604 1.331 . S
C601 C602 1.391 . S
C601 N604 1.329 . S
C601 H611 0.930 . S
C602 C601 1.391 . S
C602 N603 1.334 . S
C602 H609 0.930 . S
N603 Zn587 2.119 . S
N603 C599 1.328 . S
N603 C602 1.334 . S
N604 C600 1.331 . S
N604 C601 1.329 . S
H605 C599 0.930 . S
C606 O586 1.257 . S
C606 O607 1.244 . S
O607 C606 1.244 . S
O608 C584 1.257 . S
O608 Zn587 2.019 . S
H609 C602 0.930 . S
H610 C589 0.930 . S
H611 C601 0.930 . S
H612 C618 0.930 . S
H613 C621 0.930 . S
H614 C622 0.930 . S
H615 C623 0.930 . S
H616 C626 0.930 . S
H617 C627 0.930 . S
C618 H612 0.930 . S
C618 C619 1.355 . S
C618 C620 1.415 . S
C619 C618 1.355 . S
C619 C621 1.419 . S
C620 C618 1.415 . S
C620 C625 1.425 . S
C620 C627 1.409 . S
C621 H613 0.930 . S
C621 C619 1.419 . S
C621 C622 1.362 . S
C622 H614 0.930 . S
C622 C621 1.362 . S
C622 C625 1.409 . S
C623 H615 0.930 . S
C623 C624 1.355 . S
C623 C625 1.415 . S
C624 C623 1.355 . S
C624 C626 1.419 . S
C625 C620 1.425 . S
C625 C622 1.409 . S
C625 C623 1.415 . S
C626 H616 0.930 . S
C626 C624 1.419 . S
C626 C627 1.362 . S
C627 H617 0.930 . S
C627 C620 1.409 . S
C627 C626 1.362 . S
H628 C634 0.930 . S
H629 C637 0.930 . S
H630 C638 0.930 . S
H631 C639 0.930 . S
H632 C642 0.930 . S
H633 C643 0.930 . S
C634 H628 0.930 . S
C634 C635 1.355 . S
C634 C636 1.415 . S
C635 C634 1.355 . S
C635 C637 1.419 . S
C636 C634 1.415 . S
C636 C641 1.425 . S
C636 C643 1.409 . S
C637 H629 0.930 . S
C637 C635 1.419 . S
C637 C638 1.362 . S
C638 H630 0.930 . S
C638 C637 1.362 . S
C638 C641 1.409 . S
C639 H631 0.930 . S
C639 C640 1.355 . S
C639 C641 1.415 . S
C640 C639 1.355 . S
C640 C642 1.419 . S
C641 C636 1.425 . S
C641 C638 1.409 . S
C641 C639 1.415 . S
C642 H632 0.930 . S
C642 C640 1.419 . S
C642 C643 1.362 . S
C643 H633 0.930 . S
C643 C636 1.409 . S
C643 C642 1.362 . S
H644 C650 0.930 . S
H645 C653 0.930 . S
H646 C654 0.930 . S
H647 C655 0.930 . S
H648 C658 0.930 . S
H649 C659 0.930 . S
C650 H644 0.930 . S
C650 C651 1.355 . S
C650 C652 1.415 . S
C651 C650 1.355 . S
C651 C653 1.419 . S
C652 C650 1.415 . S
C652 C657 1.425 . S
C652 C659 1.409 . S
C653 H645 0.930 . S
C653 C651 1.419 . S
C653 C654 1.362 . S
C654 H646 0.930 . S
C654 C653 1.362 . S
C654 C657 1.409 . S
C655 H647 0.930 . S
C655 C656 1.355 . S
C655 C657 1.415 . S
C656 C655 1.355 . S
C656 C658 1.419 . S
C657 C652 1.425 . S
C657 C654 1.409 . S
C657 C655 1.415 . S
C658 H648 0.930 . S
C658 C656 1.419 . S
C658 C659 1.362 . S
C659 H649 0.930 . S
C659 C652 1.409 . S
C659 C658 1.362 . S
H660 C666 0.930 . S
H661 C669 0.930 . S
H662 C670 0.930 . S
H663 C671 0.930 . S
H664 C674 0.930 . S
H665 C675 0.930 . S
C666 H660 0.930 . S
C666 C667 1.355 . S
C666 C668 1.415 . S
C667 C666 1.355 . S
C667 C669 1.419 . S
C668 C666 1.415 . S
C668 C673 1.425 . S
C668 C675 1.409 . S
C669 H661 0.930 . S
C669 C667 1.419 . S
C669 C670 1.362 . S
C670 H662 0.930 . S
C670 C669 1.362 . S
C670 C673 1.409 . S
C671 H663 0.930 . S
C671 C672 1.355 . S
C671 C673 1.415 . S
C672 C671 1.355 . S
C672 C674 1.419 . S
C673 C668 1.425 . S
C673 C670 1.409 . S
C673 C671 1.415 . S
C674 H664 0.930 . S
C674 C672 1.419 . S
C674 C675 1.362 . S
C675 H665 0.930 . S
C675 C668 1.409 . S
C675 C674 1.362 . S
H676 C682 0.930 . S
H677 C685 0.930 . S
H678 C686 0.930 . S
H679 C687 0.930 . S
H680 C690 0.930 . S
H681 C691 0.930 . S
C682 H676 0.930 . S
C682 C683 1.355 . S
C682 C684 1.415 . S
C683 C682 1.355 . S
C683 C685 1.419 . S
C684 C682 1.415 . S
C684 C689 1.425 . S
C684 C691 1.409 . S
C685 H677 0.930 . S
C685 C683 1.419 . S
C685 C686 1.362 . S
C686 H678 0.930 . S
C686 C685 1.362 . S
C686 C689 1.409 . S
C687 H679 0.930 . S
C687 C688 1.355 . S
C687 C689 1.415 . S
C688 C687 1.355 . S
C688 C690 1.419 . S
C689 C684 1.425 . S
C689 C686 1.409 . S
C689 C687 1.415 . S
C690 H680 0.930 . S
C690 C688 1.419 . S
C690 C691 1.362 . S
C691 H681 0.930 . S
C691 C684 1.409 . S
C691 C690 1.362 . S
H692 C698 0.930 . S
H693 C701 0.930 . S
H694 C702 0.930 . S
H695 C703 0.930 . S
H696 C706 0.930 . S
H697 C707 0.930 . S
C698 H692 0.930 . S
C698 C699 1.355 . S
C698 C700 1.415 . S
C699 C698 1.355 . S
C699 C701 1.419 . S
C700 C698 1.415 . S
C700 C705 1.425 . S
C700 C707 1.409 . S
C701 H693 0.930 . S
C701 C699 1.419 . S
C701 C702 1.362 . S
C702 H694 0.930 . S
C702 C701 1.362 . S
C702 C705 1.409 . S
C703 H695 0.930 . S
C703 C704 1.355 . S
C703 C705 1.415 . S
C704 C703 1.355 . S
C704 C706 1.419 . S
C705 C700 1.425 . S
C705 C702 1.409 . S
C705 C703 1.415 . S
C706 H696 0.930 . S
C706 C704 1.419 . S
C706 C707 1.362 . S
C707 H697 0.930 . S
C707 C700 1.409 . S
C707 C706 1.362 . S
H708 C714 0.930 . S
H709 C717 0.930 . S
H710 C718 0.930 . S
H711 C719 0.930 . S
H712 C722 0.930 . S
H713 C723 0.930 . S
C714 H708 0.930 . S
C714 C715 1.355 . S
C714 C716 1.415 . S
C715 C714 1.355 . S
C715 C717 1.419 . S
C716 C714 1.415 . S
C716 C721 1.425 . S
C716 C723 1.409 . S
C717 H709 0.930 . S
C717 C715 1.419 . S
C717 C718 1.362 . S
C718 H710 0.930 . S
C718 C717 1.362 . S
C718 C721 1.409 . S
C719 H711 0.930 . S
C719 C720 1.355 . S
C719 C721 1.415 . S
C720 C719 1.355 . S
C720 C722 1.419 . S
C721 C716 1.425 . S
C721 C718 1.409 . S
C721 C719 1.415 . S
C722 H712 0.930 . S
C722 C720 1.419 . S
C722 C723 1.362 . S
C723 H713 0.930 . S
C723 C716 1.409 . S
C723 C722 1.362 . S
H724 C730 0.930 . S
H725 C733 0.930 . S
H726 C734 0.930 . S
H727 C735 0.930 . S
H728 C738 0.930 . S
H729 C739 0.930 . S
C730 H724 0.930 . S
C730 C731 1.355 . S
C730 C732 1.415 . S
C731 C730 1.355 . S
C731 C733 1.419 . S
C732 C730 1.415 . S
C732 C737 1.425 . S
C732 C739 1.409 . S
C733 H725 0.930 . S
C733 C731 1.419 . S
C733 C734 1.362 . S
C734 H726 0.930 . S
C734 C733 1.362 . S
C734 C737 1.409 . S
C735 H727 0.930 . S
C735 C736 1.355 . S
C735 C737 1.415 . S
C736 C735 1.355 . S
C736 C738 1.419 . S
C737 C732 1.425 . S
C737 C734 1.409 . S
C737 C735 1.415 . S
C738 H728 0.930 . S
C738 C736 1.419 . S
C738 C739 1.362 . S
C739 H729 0.930 . S
C739 C732 1.409 . S
C739 C738 1.362 . S
H740 C746 0.930 . S
H741 C749 0.930 . S
H742 C750 0.930 . S
H743 C751 0.930 . S
H744 C754 0.921 1_554 S
H745 C755 0.930 . S
C746 H740 0.930 . S
C746 C747 1.355 . S
C746 C748 1.415 . S
C747 C746 1.355 . S
C747 C749 1.419 . S
C748 C746 1.415 . S
C748 C753 1.425 . S
C748 C755 1.409 . S
C749 H741 0.930 . S
C749 C747 1.419 . S
C749 C750 1.362 . S
C750 H742 0.930 . S
C750 C749 1.362 . S
C750 C753 1.409 . S
C751 H743 0.930 . S
C751 C752 1.355 . S
C751 C753 1.415 . S
C752 C751 1.355 . S
C752 C754 1.419 . S
C753 C748 1.425 . S
C753 C750 1.409 . S
C753 C751 1.415 . S
C754 H744 0.921 1_556 S
C754 C752 1.419 . S
C754 C755 1.362 . S
C755 H745 0.930 . S
C755 C748 1.409 . S
C755 C754 1.362 . S
H756 C762 0.930 . S
H757 C765 0.930 . S
H758 C766 0.930 . S
H759 C767 0.930 . S
H760 C770 0.930 . S
H761 C771 0.930 . S
C762 H756 0.930 . S
C762 C763 1.355 . S
C762 C764 1.415 . S
C763 C762 1.355 . S
C763 C765 1.419 . S
C764 C762 1.415 . S
C764 C769 1.425 . S
C764 C771 1.409 . S
C765 H757 0.930 . S
C765 C763 1.419 . S
C765 C766 1.362 . S
C766 H758 0.930 . S
C766 C765 1.362 . S
C766 C769 1.409 . S
C767 H759 0.930 . S
C767 C768 1.355 . S
C767 C769 1.415 . S
C768 C767 1.355 . S
C768 C770 1.419 . S
C769 C764 1.425 . S
C769 C766 1.409 . S
C769 C767 1.415 . S
C770 H760 0.930 . S
C770 C768 1.419 . S
C770 C771 1.362 . S
C771 H761 0.930 . S
C771 C764 1.409 . S
C771 C770 1.362 . S
H772 C778 0.930 . S
H773 C781 0.930 . S
H774 C782 0.930 . S
H775 C783 0.930 . S
H776 C786 0.930 . S
H777 C787 0.930 . S
C778 H772 0.930 . S
C778 C779 1.355 . S
C778 C780 1.415 . S
C779 C778 1.355 . S
C779 C781 1.419 . S
C780 C778 1.415 . S
C780 C785 1.425 . S
C780 C787 1.409 . S
C781 H773 0.930 . S
C781 C779 1.419 . S
C781 C782 1.362 . S
C782 H774 0.930 . S
C782 C781 1.362 . S
C782 C785 1.409 . S
C783 H775 0.930 . S
C783 C784 1.355 . S
C783 C785 1.415 . S
C784 C783 1.355 . S
C784 C786 1.419 . S
C785 C780 1.425 . S
C785 C782 1.409 . S
C785 C783 1.415 . S
C786 H776 0.930 . S
C786 C784 1.419 . S
C786 C787 1.362 . S
C787 H777 0.930 . S
C787 C780 1.409 . S
C787 C786 1.362 . S
H788 C794 0.930 . S
H789 C797 0.930 . S
H790 C798 0.930 . S
H791 C799 0.930 . S
H792 C802 0.930 . S
H793 C803 0.930 . S
C794 H788 0.930 . S
C794 C795 1.355 . S
C794 C796 1.415 . S
C795 C794 1.355 . S
C795 C797 1.419 . S
C796 C794 1.415 . S
C796 C801 1.425 . S
C796 C803 1.409 . S
C797 H789 0.930 . S
C797 C795 1.419 . S
C797 C798 1.362 . S
C798 H790 0.930 . S
C798 C797 1.362 . S
C798 C801 1.409 . S
C799 H791 0.930 . S
C799 C800 1.355 . S
C799 C801 1.415 . S
C800 C799 1.355 . S
C800 C802 1.419 . S
C801 C796 1.425 . S
C801 C798 1.409 . S
C801 C799 1.415 . S
C802 H792 0.930 . S
C802 C800 1.419 . S
C802 C803 1.362 . S
C803 H793 0.930 . S
C803 C796 1.409 . S
C803 C802 1.362 . S
H804 C810 0.930 . S
H805 C813 0.930 . S
H806 C814 0.930 . S
H807 C815 0.930 . S
H808 C818 0.930 . S
H809 C819 0.930 . S
C810 H804 0.930 . S
C810 C811 1.355 . S
C810 C812 1.415 . S
C811 C810 1.355 . S
C811 C813 1.419 . S
C812 C810 1.415 . S
C812 C817 1.425 . S
C812 C819 1.409 . S
C813 H805 0.930 . S
C813 C811 1.419 . S
C813 C814 1.362 . S
C814 H806 0.930 . S
C814 C813 1.362 . S
C814 C817 1.409 . S
C815 H807 0.930 . S
C815 C816 1.355 . S
C815 C817 1.415 . S
C816 C815 1.355 . S
C816 C818 1.419 . S
C817 C812 1.425 . S
C817 C814 1.409 . S
C817 C815 1.415 . S
C818 H808 0.930 . S
C818 C816 1.419 . S
C818 C819 1.362 . S
C819 H809 0.930 . S
C819 C812 1.409 . S
C819 C818 1.362 . S
H820 C826 0.930 . S
H821 C829 0.930 . S
H822 C830 0.930 . S
H823 C831 0.930 . S
H824 C834 0.930 . S
H825 C835 0.930 . S
C826 H820 0.930 . S
C826 C827 1.355 . S
C826 C828 1.415 . S
C827 C826 1.355 . S
C827 C829 1.419 . S
C828 C826 1.415 . S
C828 C833 1.425 . S
C828 C835 1.409 . S
C829 H821 0.930 . S
C829 C827 1.419 . S
C829 C830 1.362 . S
C830 H822 0.930 . S
C830 C829 1.362 . S
C830 C833 1.409 . S
C831 H823 0.930 . S
C831 C832 1.355 . S
C831 C833 1.415 . S
C832 C831 1.355 . S
C832 C834 1.419 . S
C833 C828 1.425 . S
C833 C830 1.409 . S
C833 C831 1.415 . S
C834 H824 0.930 . S
C834 C832 1.419 . S
C834 C835 1.362 . S
C835 H825 0.930 . S
C835 C828 1.409 . S
C835 C834 1.362 . S
H836 C842 0.930 . S
H837 C845 0.930 . S
H838 C846 0.930 . S
H839 C847 0.930 . S
H840 C850 0.930 . S
H841 C851 0.930 . S
C842 H836 0.930 . S
C842 C843 1.355 . S
C842 C844 1.415 . S
C843 C842 1.355 . S
C843 C845 1.419 . S
C844 C842 1.415 . S
C844 C849 1.425 . S
C844 C851 1.409 . S
C845 H837 0.930 . S
C845 C843 1.419 . S
C845 C846 1.362 . S
C846 H838 0.930 . S
C846 C845 1.362 . S
C846 C849 1.409 . S
C847 H839 0.930 . S
C847 C848 1.355 . S
C847 C849 1.415 . S
C848 C847 1.355 . S
C848 C850 1.419 . S
C849 C844 1.425 . S
C849 C846 1.409 . S
C849 C847 1.415 . S
C850 H840 0.930 . S
C850 C848 1.419 . S
C850 C851 1.362 . S
C851 H841 0.930 . S
C851 C844 1.409 . S
C851 C850 1.362 . S
H852 C858 0.930 . S
H853 C861 0.930 . S
H854 C862 0.930 . S
H855 C863 0.930 . S
H856 C866 0.930 . S
H857 C867 0.930 . S
C858 H852 0.930 . S
C858 C859 1.355 . S
C858 C860 1.415 . S
C859 C858 1.355 . S
C859 C861 1.419 . S
C860 C858 1.415 . S
C860 C865 1.425 . S
C860 C867 1.409 . S
C861 H853 0.930 . S
C861 C859 1.419 . S
C861 C862 1.362 . S
C862 H854 0.930 . S
C862 C861 1.362 . S
C862 C865 1.409 . S
C863 H855 0.930 . S
C863 C864 1.355 . S
C863 C865 1.415 . S
C864 C863 1.355 . S
C864 C866 1.419 . S
C865 C860 1.425 . S
C865 C862 1.409 . S
C865 C863 1.415 . S
C866 H856 0.930 . S
C866 C864 1.419 . S
C866 C867 1.362 . S
C867 H857 0.930 . S
C867 C860 1.409 . S
C867 C866 1.362 . S
H868 C874 0.930 . S
H869 C877 0.930 . S
H870 C878 0.930 . S
H871 C879 0.930 . S
H872 C882 0.930 . S
H873 C883 0.930 . S
C874 H868 0.930 . S
C874 C875 1.355 . S
C874 C876 1.415 . S
C875 C874 1.355 . S
C875 C877 1.419 . S
C876 C874 1.415 . S
C876 C881 1.425 . S
C876 C883 1.409 . S
C877 H869 0.930 . S
C877 C875 1.419 . S
C877 C878 1.362 . S
C878 H870 0.930 . S
C878 C877 1.362 . S
C878 C881 1.409 . S
C879 H871 0.930 . S
C879 C880 1.355 . S
C879 C881 1.415 . S
C880 C879 1.355 . S
C880 C882 1.419 . S
C881 C876 1.425 . S
C881 C878 1.409 . S
C881 C879 1.415 . S
C882 H872 0.930 . S
C882 C880 1.419 . S
C882 C883 1.362 . S
C883 H873 0.930 . S
C883 C876 1.409 . S
C883 C882 1.362 . S
H884 C890 0.930 . S
H885 C893 0.930 . S
H886 C894 0.930 . S
H887 C895 0.930 . S
H888 C898 0.930 . S
H889 C899 0.930 . S
C890 H884 0.930 . S
C890 C891 1.355 . S
C890 C892 1.415 . S
C891 C890 1.355 . S
C891 C893 1.419 . S
C892 C890 1.415 . S
C892 C897 1.425 . S
C892 C899 1.409 . S
C893 H885 0.930 . S
C893 C891 1.419 . S
C893 C894 1.362 . S
C894 H886 0.930 . S
C894 C893 1.362 . S
C894 C897 1.409 . S
C895 H887 0.930 . S
C895 C896 1.355 . S
C895 C897 1.415 . S
C896 C895 1.355 . S
C896 C898 1.419 . S
C897 C892 1.425 . S
C897 C894 1.409 . S
C897 C895 1.415 . S
C898 H888 0.930 . S
C898 C896 1.419 . S
C898 C899 1.362 . S
C899 H889 0.930 . S
C899 C892 1.409 . S
C899 C898 1.362 . S
H900 C906 0.930 . S
H901 C909 0.930 . S
H902 C910 0.930 . S
H903 C911 0.930 . S
H904 C914 0.930 . S
H905 C915 0.930 . S
C906 H900 0.930 . S
C906 C907 1.355 . S
C906 C908 1.415 . S
C907 C906 1.355 . S
C907 C909 1.419 . S
C908 C906 1.415 . S
C908 C913 1.425 . S
C908 C915 1.409 . S
C909 H901 0.930 . S
C909 C907 1.419 . S
C909 C910 1.362 . S
C910 H902 0.930 . S
C910 C909 1.362 . S
C910 C913 1.409 . S
C911 H903 0.930 . S
C911 C912 1.355 . S
C911 C913 1.415 . S
C912 C911 1.355 . S
C912 C914 1.419 . S
C913 C908 1.425 . S
C913 C910 1.409 . S
C913 C911 1.415 . S
C914 H904 0.930 . S
C914 C912 1.419 . S
C914 C915 1.362 . S
C915 H905 0.930 . S
C915 C908 1.409 . S
C915 C914 1.362 . S
H916 C922 0.930 . S
H917 C925 0.930 . S
H918 C926 0.930 . S
H919 C927 0.930 . S
H920 C930 0.930 . S
H921 C931 0.930 . S
C922 H916 0.930 . S
C922 C923 1.355 . S
C922 C924 1.415 . S
C923 C922 1.355 . S
C923 C925 1.419 . S
C924 C922 1.415 . S
C924 C929 1.425 . S
C924 C931 1.409 . S
C925 H917 0.930 . S
C925 C923 1.419 . S
C925 C926 1.362 . S
C926 H918 0.930 . S
C926 C925 1.362 . S
C926 C929 1.409 . S
C927 H919 0.930 . S
C927 C928 1.355 . S
C927 C929 1.415 . S
C928 C927 1.355 . S
C928 C930 1.419 . S
C929 C924 1.425 . S
C929 C926 1.409 . S
C929 C927 1.415 . S
C930 H920 0.930 . S
C930 C928 1.419 . S
C930 C931 1.362 . S
C931 H921 0.930 . S
C931 C924 1.409 . S
C931 C930 1.362 . S
H932 C938 0.930 . S
H933 C941 0.930 . S
H934 C942 0.930 . S
H935 C943 0.930 . S
H936 C946 0.930 . S
H937 C947 0.930 . S
C938 H932 0.930 . S
C938 C939 1.355 . S
C938 C940 1.415 . S
C939 C938 1.355 . S
C939 C941 1.419 . S
C940 C938 1.415 . S
C940 C945 1.425 . S
C940 C947 1.409 . S
C941 H933 0.930 . S
C941 C939 1.419 . S
C941 C942 1.362 . S
C942 H934 0.930 . S
C942 C941 1.362 . S
C942 C945 1.409 . S
C943 H935 0.930 . S
C943 C944 1.355 . S
C943 C945 1.415 . S
C944 C943 1.355 . S
C944 C946 1.419 . S
C945 C940 1.425 . S
C945 C942 1.409 . S
C945 C943 1.415 . S
C946 H936 0.930 . S
C946 C944 1.419 . S
C946 C947 1.362 . S
C947 H937 0.930 . S
C947 C940 1.409 . S
C947 C946 1.362 . S
H948 C954 0.930 . S
H949 C957 0.930 . S
H950 C958 0.930 . S
H951 C959 0.930 . S
H952 C962 0.930 . S
H953 C963 0.930 . S
C954 H948 0.930 . S
C954 C955 1.355 . S
C954 C956 1.415 . S
C955 C954 1.355 . S
C955 C957 1.419 . S
C956 C954 1.415 . S
C956 C961 1.425 . S
C956 C963 1.409 . S
C957 H949 0.930 . S
C957 C955 1.419 . S
C957 C958 1.362 . S
C958 H950 0.930 . S
C958 C957 1.362 . S
C958 C961 1.409 . S
C959 H951 0.930 . S
C959 C960 1.355 . S
C959 C961 1.415 . S
C960 C959 1.355 . S
C960 C962 1.419 . S
C961 C956 1.425 . S
C961 C958 1.409 . S
C961 C959 1.415 . S
C962 H952 0.930 . S
C962 C960 1.419 . S
C962 C963 1.362 . S
C963 H953 0.930 . S
C963 C956 1.409 . S
C963 C962 1.362 . S
H964 C970 0.930 . S
H965 C973 0.930 . S
H966 C974 0.930 . S
H967 C975 0.930 . S
H968 C978 0.930 . S
H969 C979 0.930 . S
C970 H964 0.930 . S
C970 C971 1.355 . S
C970 C972 1.415 . S
C971 C970 1.355 . S
C971 C973 1.419 . S
C972 C970 1.415 . S
C972 C977 1.425 . S
C972 C979 1.409 . S
C973 H965 0.930 . S
C973 C971 1.419 . S
C973 C974 1.362 . S
C974 H966 0.930 . S
C974 C973 1.362 . S
C974 C977 1.409 . S
C975 H967 0.930 . S
C975 C976 1.355 . S
C975 C977 1.415 . S
C976 C975 1.355 . S
C976 C978 1.419 . S
C977 C972 1.425 . S
C977 C974 1.409 . S
C977 C975 1.415 . S
C978 H968 0.930 . S
C978 C976 1.419 . S
C978 C979 1.362 . S
C979 H969 0.930 . S
C979 C972 1.409 . S
C979 C978 1.362 . S
H980 C986 0.930 . S
H981 C989 0.930 . S
H982 C990 0.930 . S
H983 C991 0.930 . S
H984 C994 0.930 . S
H985 C995 0.930 . S
C986 H980 0.930 . S
C986 C987 1.355 . S
C986 C988 1.415 . S
C987 C986 1.355 . S
C987 C989 1.419 . S
C988 C986 1.415 . S
C988 C993 1.425 . S
C988 C995 1.409 . S
C989 H981 0.930 . S
C989 C987 1.419 . S
C989 C990 1.362 . S
C990 H982 0.930 . S
C990 C989 1.362 . S
C990 C993 1.409 . S
C991 H983 0.930 . S
C991 C992 1.355 . S
C991 C993 1.415 . S
C992 C991 1.355 . S
C992 C994 1.419 . S
C993 C988 1.425 . S
C993 C990 1.409 . S
C993 C991 1.415 . S
C994 H984 0.930 . S
C994 C992 1.419 . S
C994 C995 1.362 . S
C995 H985 0.930 . S
C995 C988 1.409 . S
C995 C994 1.362 . S
H996 C1002 0.930 . S
H997 C1005 0.930 . S
H998 C1006 0.930 . S
H999 C1007 0.930 . S
H1000 C1010 0.930 . S
H1001 C1011 0.930 . S
C1002 H996 0.930 . S
C1002 C1003 1.355 . S
C1002 C1004 1.415 . S
C1003 C1002 1.355 . S
C1003 C1005 1.419 . S
C1004 C1002 1.415 . S
C1004 C1009 1.425 1_564 S
C1004 C1011 1.409 . S
C1005 H997 0.930 . S
C1005 C1003 1.419 . S
C1005 C1006 1.362 1_564 S
C1006 H998 0.930 . S
C1006 C1005 1.362 1_546 S
C1006 C1009 1.409 . S
C1007 H999 0.930 . S
C1007 C1008 1.355 . S
C1007 C1009 1.415 . S
C1008 C1007 1.355 . S
C1008 C1010 1.419 . S
C1009 C1004 1.425 1_546 S
C1009 C1006 1.409 . S
C1009 C1007 1.415 . S
C1010 H1000 0.930 . S
C1010 C1008 1.419 . S
C1010 C1011 1.362 1_546 S
C1011 H1001 0.930 . S
C1011 C1004 1.409 . S
C1011 C1010 1.362 1_564 S
H1012 C1018 0.930 . S
H1013 C1021 0.930 . S
H1014 C1022 0.930 . S
H1015 C1023 0.930 . S
H1016 C1026 0.930 . S
H1017 C1027 0.930 . S
C1018 H1012 0.930 . S
C1018 C1019 1.355 1_556 S
C1018 C1020 1.415 1_655 S
C1019 C1018 1.355 1_554 S
C1019 C1021 1.419 . S
C1020 C1018 1.415 1_455 S
C1020 C1025 1.425 1_456 S
C1020 C1027 1.409 . S
C1021 H1013 0.930 . S
C1021 C1019 1.419 . S
C1021 C1022 1.362 . S
C1022 H1014 0.930 . S
C1022 C1021 1.362 . S
C1022 C1025 1.409 . S
C1023 H1015 0.930 . S
C1023 C1024 1.355 1_554 S
C1023 C1025 1.415 1_455 S
C1024 C1023 1.355 1_556 S
C1024 C1026 1.419 . S
C1025 C1020 1.425 1_654 S
C1025 C1022 1.409 . S
C1025 C1023 1.415 1_655 S
C1026 H1016 0.930 . S
C1026 C1024 1.419 . S
C1026 C1027 1.362 . S
C1027 H1017 0.930 . S
C1027 C1020 1.409 . S
C1027 C1026 1.362 . S
H1028 C1034 0.930 . S
H1029 C1037 0.930 . S
H1030 C1038 0.930 . S
H1031 C1039 0.930 . S
H1032 C1042 0.930 . S
H1033 C1043 0.930 . S
C1034 H1028 0.930 . S
C1034 C1035 1.355 1_554 S
C1034 C1036 1.415 . S
C1035 C1034 1.355 1_556 S
C1035 C1037 1.419 . S
C1036 C1034 1.415 . S
C1036 C1041 1.425 1_554 S
C1036 C1043 1.409 . S
C1037 H1029 0.930 . S
C1037 C1035 1.419 . S
C1037 C1038 1.362 . S
C1038 H1030 0.930 . S
C1038 C1037 1.362 . S
C1038 C1041 1.409 . S
C1039 H1031 0.930 . S
C1039 C1040 1.355 1_556 S
C1039 C1041 1.415 . S
C1040 C1039 1.355 1_554 S
C1040 C1042 1.419 . S
C1041 C1036 1.425 1_556 S
C1041 C1038 1.409 . S
C1041 C1039 1.415 . S
C1042 H1032 0.930 . S
C1042 C1040 1.419 . S
C1042 C1043 1.362 . S
C1043 H1033 0.930 . S
C1043 C1036 1.409 . S
C1043 C1042 1.362 . S
H1044 C1050 0.930 1_554 S
H1045 C1053 0.930 . S
H1046 C1054 0.930 . S
H1047 C1055 0.930 . S
H1048 C1058 0.930 . S
H1049 C1059 0.930 . S
C1050 H1044 0.930 1_556 S
C1050 C1051 1.355 . S
C1050 C1052 1.415 1_556 S
C1051 C1050 1.355 . S
C1051 C1053 1.419 . S
C1052 C1050 1.415 1_554 S
C1052 C1057 1.425 . S
C1052 C1059 1.409 . S
C1053 H1045 0.930 . S
C1053 C1051 1.419 . S
C1053 C1054 1.362 . S
C1054 H1046 0.930 . S
C1054 C1053 1.362 . S
C1054 C1057 1.409 1_556 S
C1055 H1047 0.930 . S
C1055 C1056 1.355 . S
C1055 C1057 1.415 . S
C1056 C1055 1.355 . S
C1056 C1058 1.419 . S
C1057 C1052 1.425 . S
C1057 C1054 1.409 1_554 S
C1057 C1055 1.415 . S
C1058 H1048 0.930 . S
C1058 C1056 1.419 . S
C1058 C1059 1.362 . S
C1059 H1049 0.930 . S
C1059 C1052 1.409 . S
C1059 C1058 1.362 . S
H1060 C1066 0.930 . S
H1061 C1069 0.930 . S
H1062 C1070 0.930 . S
H1063 C1071 0.930 . S
H1064 C1074 0.930 . S
H1065 C1075 0.930 1_556 S
C1066 H1060 0.930 . S
C1066 C1067 1.355 . S
C1066 C1068 1.415 1_556 S
C1067 C1066 1.355 . S
C1067 C1069 1.419 . S
C1068 C1066 1.415 1_554 S
C1068 C1073 1.425 . S
C1068 C1075 1.409 . S
C1069 H1061 0.930 . S
C1069 C1067 1.419 . S
C1069 C1070 1.362 1_556 S
C1070 H1062 0.930 . S
C1070 C1069 1.362 1_554 S
C1070 C1073 1.409 . S
C1071 H1063 0.930 . S
C1071 C1072 1.355 . S
C1071 C1073 1.415 . S
C1072 C1071 1.355 . S
C1072 C1074 1.419 . S
C1073 C1068 1.425 . S
C1073 C1070 1.409 . S
C1073 C1071 1.415 . S
C1074 H1064 0.930 . S
C1074 C1072 1.419 . S
C1074 C1075 1.362 . S
C1075 H1065 0.930 1_554 S
C1075 C1068 1.409 . S
C1075 C1074 1.362 . S
H1076 C1082 0.930 . S
H1077 C1085 0.930 . S
H1078 C1086 0.930 . S
H1079 C1087 0.928 1_554 S
H1080 C1090 0.930 . S
H1081 C1091 0.930 . S
C1082 H1076 0.930 . S
C1082 C1083 1.355 . S
C1082 C1084 1.415 . S
C1083 C1082 1.355 . S
C1083 C1085 1.419 . S
C1084 C1082 1.415 . S
C1084 C1089 1.425 . S
C1084 C1091 1.409 1_554 S
C1085 H1077 0.930 . S
C1085 C1083 1.419 . S
C1085 C1086 1.362 . S
C1086 H1078 0.930 . S
C1086 C1085 1.362 . S
C1086 C1089 1.409 . S
C1087 H1079 0.928 1_556 S
C1087 C1088 1.355 . S
C1087 C1089 1.415 1_556 S
C1088 C1087 1.355 . S
C1088 C1090 1.419 . S
C1089 C1084 1.425 . S
C1089 C1086 1.409 . S
C1089 C1087 1.415 1_554 S
C1090 H1080 0.930 . S
C1090 C1088 1.419 . S
C1090 C1091 1.362 . S
C1091 H1081 0.930 . S
C1091 C1084 1.409 1_556 S
C1091 C1090 1.362 . S
H1092 C1098 0.930 1_556 S
H1093 C1101 0.930 . S
H1094 C1102 0.930 . S
H1095 C1103 0.930 . S
H1096 C1106 0.930 . S
H1097 C1107 0.930 . S
C1098 H1092 0.930 1_554 S
C1098 C1099 1.355 . S
C1098 C1100 1.415 1_554 S
C1099 C1098 1.355 . S
C1099 C1101 1.419 . S
C1100 C1098 1.415 1_556 S
C1100 C1105 1.425 . S
C1100 C1107 1.409 . S
C1101 H1093 0.930 . S
C1101 C1099 1.419 . S
C1101 C1102 1.362 . S
C1102 H1094 0.930 . S
C1102 C1101 1.362 . S
C1102 C1105 1.409 1_554 S
C1103 H1095 0.930 . S
C1103 C1104 1.355 . S
C1103 C1105 1.415 . S
C1104 C1103 1.355 . S
C1104 C1106 1.419 . S
C1105 C1100 1.425 . S
C1105 C1102 1.409 1_556 S
C1105 C1103 1.415 . S
C1106 H1096 0.930 . S
C1106 C1104 1.419 . S
C1106 C1107 1.362 . S
C1107 H1097 0.930 . S
C1107 C1100 1.409 . S
C1107 C1106 1.362 . S
H1108 C1114 0.930 1_556 S
H1109 C1117 0.930 . S
H1110 C1118 0.930 . S
H1111 C1119 0.930 . S
H1112 C1122 0.930 . S
H1113 C1123 0.930 . S
C1114 H1108 0.930 1_554 S
C1114 C1115 1.355 . S
C1114 C1116 1.415 1_554 S
C1115 C1114 1.355 . S
C1115 C1117 1.419 . S
C1116 C1114 1.415 1_556 S
C1116 C1121 1.425 . S
C1116 C1123 1.409 . S
C1117 H1109 0.930 . S
C1117 C1115 1.419 . S
C1117 C1118 1.362 . S
C1118 H1110 0.930 . S
C1118 C1117 1.362 . S
C1118 C1121 1.409 1_554 S
C1119 H1111 0.930 . S
C1119 C1120 1.355 . S
C1119 C1121 1.415 . S
C1120 C1119 1.355 . S
C1120 C1122 1.419 . S
C1121 C1116 1.425 . S
C1121 C1118 1.409 1_556 S
C1121 C1119 1.415 . S
C1122 H1112 0.930 . S
C1122 C1120 1.419 . S
C1122 C1123 1.362 . S
C1123 H1113 0.930 . S
C1123 C1116 1.409 . S
C1123 C1122 1.362 . S
H1124 C1130 0.930 . S
H1125 C1133 0.930 . S
H1126 C1134 0.930 . S
H1127 C1135 0.930 . S
H1128 C1138 0.930 . S
H1129 C1139 0.930 . S
C1130 H1124 0.930 . S
C1130 C1131 1.355 . S
C1130 C1132 1.415 . S
C1131 C1130 1.355 . S
C1131 C1133 1.428 . S
C1132 C1130 1.415 . S
C1132 C1137 1.425 1_554 S
C1132 C1139 1.409 . S
C1133 H1125 0.930 . S
C1133 C1131 1.428 . S
C1133 C1134 1.354 1_554 S
C1134 H1126 0.930 . S
C1134 C1133 1.354 1_556 S
C1134 C1137 1.409 . S
C1135 H1127 0.930 . S
C1135 C1136 1.355 . S
C1135 C1137 1.415 . S
C1136 C1135 1.355 . S
C1136 C1138 1.419 . S
C1137 C1132 1.425 1_556 S
C1137 C1134 1.409 . S
C1137 C1135 1.415 . S
C1138 H1128 0.930 . S
C1138 C1136 1.419 . S
C1138 C1139 1.362 1_556 S
C1139 H1129 0.930 . S
C1139 C1132 1.409 . S
C1139 C1138 1.362 1_554 S
H1140 C1146 0.930 . S
H1141 C1149 0.930 . S
H1142 C1150 0.930 . S
H1143 C1151 0.930 . S
H1144 C1154 0.930 . S
H1145 C1155 0.930 . S
C1146 H1140 0.930 . S
C1146 C1147 1.355 . S
C1146 C1148 1.415 . S
C1147 C1146 1.355 . S
C1147 C1149 1.419 . S
C1148 C1146 1.415 . S
C1148 C1153 1.425 . S
C1148 C1155 1.409 . S
C1149 H1141 0.930 . S
C1149 C1147 1.419 . S
C1149 C1150 1.362 . S
C1150 H1142 0.930 . S
C1150 C1149 1.362 . S
C1150 C1153 1.409 . S
C1151 H1143 0.930 . S
C1151 C1152 1.355 . S
C1151 C1153 1.415 . S
C1152 C1151 1.355 . S
C1152 C1154 1.419 . S
C1153 C1148 1.425 . S
C1153 C1150 1.409 . S
C1153 C1151 1.415 . S
C1154 H1144 0.930 . S
C1154 C1152 1.419 . S
C1154 C1155 1.362 . S
C1155 H1145 0.930 . S
C1155 C1148 1.409 . S
C1155 C1154 1.362 . S
H1156 C1162 0.930 . S
H1157 C1165 0.930 . S
H1158 C1166 0.930 . S
H1159 C1167 0.930 . S
H1160 C1170 0.930 . S
H1161 C1171 0.930 . S
C1162 H1156 0.930 . S
C1162 C1163 1.355 . S
C1162 C1164 1.415 . S
C1163 C1162 1.355 . S
C1163 C1165 1.419 . S
C1164 C1162 1.415 . S
C1164 C1169 1.425 . S
C1164 C1171 1.409 . S
C1165 H1157 0.930 . S
C1165 C1163 1.419 . S
C1165 C1166 1.362 . S
C1166 H1158 0.930 . S
C1166 C1165 1.362 . S
C1166 C1169 1.409 . S
C1167 H1159 0.930 . S
C1167 C1168 1.355 . S
C1167 C1169 1.415 . S
C1168 C1167 1.355 . S
C1168 C1170 1.419 . S
C1169 C1164 1.425 . S
C1169 C1166 1.409 . S
C1169 C1167 1.415 . S
C1170 H1160 0.930 . S
C1170 C1168 1.419 . S
C1170 C1171 1.362 . S
C1171 H1161 0.930 . S
C1171 C1164 1.409 . S
C1171 C1170 1.362 . S
H1172 C1178 0.930 . S
H1173 C1181 0.930 . S
H1174 C1182 0.930 . S
H1175 C1183 0.930 . S
H1176 C1186 0.930 . S
H1177 C1187 0.930 . S
C1178 H1172 0.930 . S
C1178 C1179 1.355 . S
C1178 C1180 1.415 . S
C1179 C1178 1.355 . S
C1179 C1181 1.419 . S
C1180 C1178 1.415 . S
C1180 C1185 1.425 . S
C1180 C1187 1.409 . S
C1181 H1173 0.930 . S
C1181 C1179 1.419 . S
C1181 C1182 1.362 . S
C1182 H1174 0.930 . S
C1182 C1181 1.362 . S
C1182 C1185 1.409 . S
C1183 H1175 0.930 . S
C1183 C1184 1.355 . S
C1183 C1185 1.415 . S
C1184 C1183 1.355 . S
C1184 C1186 1.419 . S
C1185 C1180 1.425 . S
C1185 C1182 1.409 . S
C1185 C1183 1.415 . S
C1186 H1176 0.930 . S
C1186 C1184 1.419 . S
C1186 C1187 1.362 . S
C1187 H1177 0.930 . S
C1187 C1180 1.409 . S
C1187 C1186 1.362 . S
H1188 C1194 0.930 . S
H1189 C1197 0.930 . S
H1190 C1198 0.930 . S
H1191 C1199 0.930 . S
H1192 C1202 0.930 . S
H1193 C1203 0.930 . S
C1194 H1188 0.930 . S
C1194 C1195 1.355 . S
C1194 C1196 1.415 . S
C1195 C1194 1.355 . S
C1195 C1197 1.419 . S
C1196 C1194 1.415 . S
C1196 C1201 1.425 . S
C1196 C1203 1.409 . S
C1197 H1189 0.930 . S
C1197 C1195 1.419 . S
C1197 C1198 1.362 . S
C1198 H1190 0.930 . S
C1198 C1197 1.362 . S
C1198 C1201 1.409 . S
C1199 H1191 0.930 . S
C1199 C1200 1.355 . S
C1199 C1201 1.415 . S
C1200 C1199 1.355 . S
C1200 C1202 1.419 . S
C1201 C1196 1.425 . S
C1201 C1198 1.409 . S
C1201 C1199 1.415 . S
C1202 H1192 0.930 . S
C1202 C1200 1.419 . S
C1202 C1203 1.362 . S
C1203 H1193 0.930 . S
C1203 C1196 1.409 . S
C1203 C1202 1.362 . S
H1204 C1210 0.930 . S
H1205 C1213 0.930 . S
H1206 C1214 0.930 . S
H1207 C1215 0.930 . S
H1208 C1218 0.930 . S
H1209 C1219 0.930 . S
C1210 H1204 0.930 . S
C1210 C1211 1.355 . S
C1210 C1212 1.415 . S
C1211 C1210 1.355 . S
C1211 C1213 1.419 . S
C1212 C1210 1.415 . S
C1212 C1217 1.425 . S
C1212 C1219 1.409 . S
C1213 H1205 0.930 . S
C1213 C1211 1.419 . S
C1213 C1214 1.362 . S
C1214 H1206 0.930 . S
C1214 C1213 1.362 . S
C1214 C1217 1.409 . S
C1215 H1207 0.930 . S
C1215 C1216 1.355 . S
C1215 C1217 1.415 . S
C1216 C1215 1.355 . S
C1216 C1218 1.419 . S
C1217 C1212 1.425 . S
C1217 C1214 1.409 . S
C1217 C1215 1.415 . S
C1218 H1208 0.930 . S
C1218 C1216 1.419 . S
C1218 C1219 1.362 . S
C1219 H1209 0.930 . S
C1219 C1212 1.409 . S
C1219 C1218 1.362 . S
H1220 C1226 0.930 . S
H1221 C1229 0.930 . S
H1222 C1230 0.930 . S
H1223 C1231 0.930 . S
H1224 C1234 0.930 . S
H1225 C1235 0.930 . S
C1226 H1220 0.930 . S
C1226 C1227 1.355 . S
C1226 C1228 1.415 . S
C1227 C1226 1.355 . S
C1227 C1229 1.419 . S
C1228 C1226 1.415 . S
C1228 C1233 1.425 . S
C1228 C1235 1.409 . S
C1229 H1221 0.930 . S
C1229 C1227 1.419 . S
C1229 C1230 1.362 . S
C1230 H1222 0.930 . S
C1230 C1229 1.362 . S
C1230 C1233 1.409 . S
C1231 H1223 0.930 . S
C1231 C1232 1.355 . S
C1231 C1233 1.415 . S
C1232 C1231 1.355 . S
C1232 C1234 1.419 . S
C1233 C1228 1.425 . S
C1233 C1230 1.409 . S
C1233 C1231 1.415 . S
C1234 H1224 0.930 . S
C1234 C1232 1.419 . S
C1234 C1235 1.362 . S
C1235 H1225 0.930 . S
C1235 C1228 1.409 . S
C1235 C1234 1.362 . S
H1236 C1242 0.930 . S
H1237 C1245 0.930 . S
H1238 C1246 0.930 . S
H1239 C1247 0.930 . S
H1240 C1250 0.930 . S
H1241 C1251 0.930 . S
C1242 H1236 0.930 . S
C1242 C1243 1.355 . S
C1242 C1244 1.415 . S
C1243 C1242 1.355 . S
C1243 C1245 1.419 . S
C1244 C1242 1.415 . S
C1244 C1249 1.425 . S
C1244 C1251 1.409 . S
C1245 H1237 0.930 . S
C1245 C1243 1.419 . S
C1245 C1246 1.362 . S
C1246 H1238 0.930 . S
C1246 C1245 1.362 . S
C1246 C1249 1.409 . S
C1247 H1239 0.930 . S
C1247 C1248 1.355 . S
C1247 C1249 1.415 . S
C1248 C1247 1.355 . S
C1248 C1250 1.419 . S
C1249 C1244 1.425 . S
C1249 C1246 1.409 . S
C1249 C1247 1.415 . S
C1250 H1240 0.930 . S
C1250 C1248 1.419 . S
C1250 C1251 1.362 . S
C1251 H1241 0.930 . S
C1251 C1244 1.409 . S
C1251 C1250 1.362 . S
H1252 C1258 0.930 . S
H1253 C1261 0.930 . S
H1254 C1262 0.930 . S
H1255 C1263 0.930 . S
H1256 C1266 0.930 . S
H1257 C1267 0.930 . S
C1258 H1252 0.930 . S
C1258 C1259 1.355 . S
C1258 C1260 1.415 . S
C1259 C1258 1.355 . S
C1259 C1261 1.419 . S
C1260 C1258 1.415 . S
C1260 C1265 1.425 . S
C1260 C1267 1.409 . S
C1261 H1253 0.930 . S
C1261 C1259 1.419 . S
C1261 C1262 1.362 . S
C1262 H1254 0.930 . S
C1262 C1261 1.362 . S
C1262 C1265 1.409 . S
C1263 H1255 0.930 . S
C1263 C1264 1.355 . S
C1263 C1265 1.415 . S
C1264 C1263 1.355 . S
C1264 C1266 1.419 . S
C1265 C1260 1.425 . S
C1265 C1262 1.409 . S
C1265 C1263 1.415 . S
C1266 H1256 0.930 . S
C1266 C1264 1.419 . S
C1266 C1267 1.362 . S
C1267 H1257 0.930 . S
C1267 C1260 1.409 . S
C1267 C1266 1.362 . S
H1268 C1274 0.930 . S
H1269 C1277 0.930 . S
H1270 C1278 0.930 . S
H1271 C1279 0.930 . S
H1272 C1282 0.930 . S
H1273 C1283 0.930 . S
C1274 H1268 0.930 . S
C1274 C1275 1.355 . S
C1274 C1276 1.415 . S
C1275 C1274 1.355 . S
C1275 C1277 1.419 . S
C1276 C1274 1.415 . S
C1276 C1281 1.425 . S
C1276 C1283 1.409 . S
C1277 H1269 0.930 . S
C1277 C1275 1.419 . S
C1277 C1278 1.362 . S
C1278 H1270 0.930 . S
C1278 C1277 1.362 . S
C1278 C1281 1.409 . S
C1279 H1271 0.930 . S
C1279 C1280 1.355 . S
C1279 C1281 1.415 . S
C1280 C1279 1.355 . S
C1280 C1282 1.419 . S
C1281 C1276 1.425 . S
C1281 C1278 1.409 . S
C1281 C1279 1.415 . S
C1282 H1272 0.930 . S
C1282 C1280 1.419 . S
C1282 C1283 1.362 . S
C1283 H1273 0.930 . S
C1283 C1276 1.409 . S
C1283 C1282 1.362 . S
H1284 C1290 0.930 . S
H1285 C1293 0.930 . S
H1286 C1294 0.930 . S
H1287 C1295 0.930 . S
H1288 C1298 0.930 . S
H1289 C1299 0.930 . S
C1290 H1284 0.930 . S
C1290 C1291 1.355 . S
C1290 C1292 1.415 . S
C1291 C1290 1.355 . S
C1291 C1293 1.419 . S
C1292 C1290 1.415 . S
C1292 C1297 1.425 . S
C1292 C1299 1.409 . S
C1293 H1285 0.930 . S
C1293 C1291 1.419 . S
C1293 C1294 1.362 . S
C1294 H1286 0.930 . S
C1294 C1293 1.362 . S
C1294 C1297 1.409 . S
C1295 H1287 0.930 . S
C1295 C1296 1.355 . S
C1295 C1297 1.415 . S
C1296 C1295 1.355 . S
C1296 C1298 1.419 . S
C1297 C1292 1.425 . S
C1297 C1294 1.409 . S
C1297 C1295 1.415 . S
C1298 H1288 0.930 . S
C1298 C1296 1.419 . S
C1298 C1299 1.362 . S
C1299 H1289 0.930 . S
C1299 C1292 1.409 . S
C1299 C1298 1.362 . S
H1300 C1306 0.930 . S
H1301 C1309 0.930 . S
H1302 C1310 0.930 . S
H1303 C1311 0.930 . S
H1304 C1314 0.930 . S
H1305 C1315 0.930 . S
C1306 H1300 0.930 . S
C1306 C1307 1.355 . S
C1306 C1308 1.415 . S
C1307 C1306 1.355 . S
C1307 C1309 1.419 . S
C1308 C1306 1.415 . S
C1308 C1313 1.425 . S
C1308 C1315 1.409 . S
C1309 H1301 0.930 . S
C1309 C1307 1.419 . S
C1309 C1310 1.362 . S
C1310 H1302 0.930 . S
C1310 C1309 1.362 . S
C1310 C1313 1.409 . S
C1311 H1303 0.930 . S
C1311 C1312 1.355 . S
C1311 C1313 1.415 . S
C1312 C1311 1.355 . S
C1312 C1314 1.419 . S
C1313 C1308 1.425 . S
C1313 C1310 1.409 . S
C1313 C1311 1.415 . S
C1314 H1304 0.930 . S
C1314 C1312 1.419 . S
C1314 C1315 1.362 . S
C1315 H1305 0.930 . S
C1315 C1308 1.409 . S
C1315 C1314 1.362 . S
H1316 C1322 0.930 . S
H1317 C1325 0.930 . S
H1318 C1326 0.930 . S
H1319 C1327 0.930 . S
H1320 C1330 0.930 . S
H1321 C1331 0.930 . S
C1322 H1316 0.930 . S
C1322 C1323 1.355 . S
C1322 C1324 1.415 . S
C1323 C1322 1.355 . S
C1323 C1325 1.419 . S
C1324 C1322 1.415 . S
C1324 C1329 1.425 . S
C1324 C1331 1.409 . S
C1325 H1317 0.930 . S
C1325 C1323 1.419 . S
C1325 C1326 1.362 . S
C1326 H1318 0.930 . S
C1326 C1325 1.362 . S
C1326 C1329 1.409 . S
C1327 H1319 0.930 . S
C1327 C1328 1.355 . S
C1327 C1329 1.415 . S
C1328 C1327 1.355 . S
C1328 C1330 1.419 . S
C1329 C1324 1.425 . S
C1329 C1326 1.409 . S
C1329 C1327 1.415 . S
C1330 H1320 0.930 . S
C1330 C1328 1.419 . S
C1330 C1331 1.362 . S
C1331 H1321 0.930 . S
C1331 C1324 1.409 . S
C1331 C1330 1.362 . S
H1332 C1338 0.930 . S
H1333 C1341 0.930 . S
H1334 C1342 0.930 . S
H1335 C1343 0.930 . S
H1336 C1346 0.930 . S
H1337 C1347 0.930 . S
C1338 H1332 0.930 . S
C1338 C1339 1.355 . S
C1338 C1340 1.415 . S
C1339 C1338 1.355 . S
C1339 C1341 1.419 1_554 S
C1340 C1338 1.415 . S
C1340 C1345 1.425 . S
C1340 C1347 1.409 . S
C1341 H1333 0.930 . S
C1341 C1339 1.419 1_556 S
C1341 C1342 1.362 . S
C1342 H1334 0.930 . S
C1342 C1341 1.362 . S
C1342 C1345 1.409 1_556 S
C1343 H1335 0.930 . S
C1343 C1344 1.355 . S
C1343 C1345 1.415 . S
C1344 C1343 1.355 . S
C1344 C1346 1.419 . S
C1345 C1340 1.425 . S
C1345 C1342 1.409 1_554 S
C1345 C1343 1.415 . S
C1346 H1336 0.930 . S
C1346 C1344 1.419 . S
C1346 C1347 1.362 . S
C1347 H1337 0.930 . S
C1347 C1340 1.409 . S
C1347 C1346 1.362 . S
H1348 C1354 0.930 . S
H1349 C1357 0.930 . S
H1350 C1358 0.930 . S
H1351 C1359 0.930 . S
H1352 C1362 0.930 1_556 S
H1353 C1363 0.936 . S
C1354 H1348 0.930 . S
C1354 C1355 1.355 . S
C1354 C1356 1.415 . S
C1355 C1354 1.355 . S
C1355 C1357 1.419 . S
C1356 C1354 1.415 . S
C1356 C1361 1.425 . S
C1356 C1363 1.409 . S
C1357 H1349 0.930 . S
C1357 C1355 1.419 . S
C1357 C1358 1.362 . S
C1358 H1350 0.930 . S
C1358 C1357 1.362 . S
C1358 C1361 1.409 . S
C1359 H1351 0.930 . S
C1359 C1360 1.355 . S
C1359 C1361 1.415 . S
C1360 C1359 1.355 . S
C1360 C1362 1.419 . S
C1361 C1356 1.425 . S
C1361 C1358 1.409 . S
C1361 C1359 1.415 . S
C1362 H1352 0.930 1_554 S
C1362 C1360 1.419 . S
C1362 C1363 1.362 . S
C1363 H1353 0.936 . S
C1363 C1356 1.409 . S
C1363 C1362 1.362 . S
H1364 C1370 0.930 . S
H1365 C1373 0.930 . S
H1366 C1374 0.930 . S
H1367 C1375 0.930 . S
H1368 C1378 0.930 . S
H1369 C1379 0.930 . S
C1370 H1364 0.930 . S
C1370 C1371 1.355 . S
C1370 C1372 1.415 . S
C1371 C1370 1.355 . S
C1371 C1373 1.419 . S
C1372 C1370 1.415 . S
C1372 C1377 1.425 . S
C1372 C1379 1.409 1_554 S
C1373 H1365 0.930 . S
C1373 C1371 1.419 . S
C1373 C1374 1.362 . S
C1374 H1366 0.930 . S
C1374 C1373 1.362 . S
C1374 C1377 1.409 . S
C1375 H1367 0.930 . S
C1375 C1376 1.355 . S
C1375 C1377 1.415 . S
C1376 C1375 1.355 . S
C1376 C1378 1.419 1_554 S
C1377 C1372 1.425 . S
C1377 C1374 1.409 . S
C1377 C1375 1.415 . S
C1378 H1368 0.930 . S
C1378 C1376 1.419 1_556 S
C1378 C1379 1.362 . S
C1379 H1369 0.930 . S
C1379 C1372 1.409 1_556 S
C1379 C1378 1.362 . S
H1380 C1386 0.930 . S
H1381 C1389 0.930 . S
H1382 C1390 0.930 . S
H1383 C1391 0.930 . S
H1384 C1394 0.930 . S
H1385 C1395 0.930 . S
C1386 H1380 0.930 . S
C1386 C1387 1.355 . S
C1386 C1388 1.415 . S
C1387 C1386 1.355 . S
C1387 C1389 1.419 . S
C1388 C1386 1.415 . S
C1388 C1393 1.425 . S
C1388 C1395 1.409 1_556 S
C1389 H1381 0.930 . S
C1389 C1387 1.419 . S
C1389 C1390 1.362 . S
C1390 H1382 0.930 . S
C1390 C1389 1.362 . S
C1390 C1393 1.409 . S
C1391 H1383 0.930 . S
C1391 C1392 1.355 . S
C1391 C1393 1.415 . S
C1392 C1391 1.355 . S
C1392 C1394 1.419 1_556 S
C1393 C1388 1.425 . S
C1393 C1390 1.409 . S
C1393 C1391 1.415 . S
C1394 H1384 0.930 . S
C1394 C1392 1.419 1_554 S
C1394 C1395 1.362 . S
C1395 H1385 0.930 . S
C1395 C1388 1.409 1_554 S
C1395 C1394 1.362 . S
H1396 C1402 0.930 . S
H1397 C1405 0.930 . S
H1398 C1406 0.930 . S
H1399 C1407 0.930 . S
H1400 C1410 0.930 1_554 S
H1401 C1411 0.930 1_554 S
C1402 H1396 0.930 . S
C1402 C1403 1.355 . S
C1402 C1404 1.415 . S
C1403 C1402 1.355 . S
C1403 C1405 1.419 . S
C1404 C1402 1.415 . S
C1404 C1409 1.425 . S
C1404 C1411 1.409 . S
C1405 H1397 0.930 . S
C1405 C1403 1.419 . S
C1405 C1406 1.362 . S
C1406 H1398 0.930 . S
C1406 C1405 1.362 . S
C1406 C1409 1.409 . S
C1407 H1399 0.930 . S
C1407 C1408 1.355 . S
C1407 C1409 1.415 . S
C1408 C1407 1.355 . S
C1408 C1410 1.419 . S
C1409 C1404 1.425 . S
C1409 C1406 1.409 . S
C1409 C1407 1.415 . S
C1410 H1400 0.930 1_556 S
C1410 C1408 1.419 . S
C1410 C1411 1.362 . S
C1411 H1401 0.930 1_556 S
C1411 C1404 1.409 . S
C1411 C1410 1.362 . S
H1412 C1418 0.930 . S
H1413 C1421 0.930 1_554 S
H1414 C1422 0.930 1_554 S
H1415 C1423 0.930 . S
H1416 C1426 0.930 . S
H1417 C1427 0.930 . S
C1418 H1412 0.930 . S
C1418 C1419 1.355 . S
C1418 C1420 1.415 . S
C1419 C1418 1.355 . S
C1419 C1421 1.419 . S
C1420 C1418 1.415 . S
C1420 C1425 1.425 . S
C1420 C1427 1.409 . S
C1421 H1413 0.930 1_556 S
C1421 C1419 1.419 . S
C1421 C1422 1.362 . S
C1422 H1414 0.930 1_556 S
C1422 C1421 1.362 . S
C1422 C1425 1.409 . S
C1423 H1415 0.930 . S
C1423 C1424 1.355 . S
C1423 C1425 1.415 . S
C1424 C1423 1.355 . S
C1424 C1426 1.419 . S
C1425 C1420 1.425 . S
C1425 C1422 1.409 . S
C1425 C1423 1.415 . S
C1426 H1416 0.930 . S
C1426 C1424 1.419 . S
C1426 C1427 1.362 . S
C1427 H1417 0.930 . S
C1427 C1420 1.409 . S
C1427 C1426 1.362 . S
H1428 C1434 0.930 . S
H1429 C1437 0.930 . S
H1430 C1438 0.930 . S
H1431 C1439 0.930 . S
H1432 C1442 0.930 . S
H1433 C1443 0.930 . S
C1434 H1428 0.930 . S
C1434 C1435 1.355 . S
C1434 C1436 1.415 . S
C1435 C1434 1.355 . S
C1435 C1437 1.419 . S
C1436 C1434 1.415 . S
C1436 C1441 1.425 . S
C1436 C1443 1.409 . S
C1437 H1429 0.930 . S
C1437 C1435 1.419 . S
C1437 C1438 1.362 . S
C1438 H1430 0.930 . S
C1438 C1437 1.362 . S
C1438 C1441 1.409 . S
C1439 H1431 0.930 . S
C1439 C1440 1.355 . S
C1439 C1441 1.415 . S
C1440 C1439 1.355 . S
C1440 C1442 1.419 . S
C1441 C1436 1.425 . S
C1441 C1438 1.409 . S
C1441 C1439 1.415 . S
C1442 H1432 0.930 . S
C1442 C1440 1.419 . S
C1442 C1443 1.362 . S
C1443 H1433 0.930 . S
C1443 C1436 1.409 . S
C1443 C1442 1.362 . S
H1444 C1450 0.930 . S
H1445 C1453 0.930 . S
H1446 C1454 0.930 . S
H1447 C1455 0.930 . S
H1448 C1458 0.930 . S
H1449 C1459 0.930 . S
C1450 H1444 0.930 . S
C1450 C1451 1.355 . S
C1450 C1452 1.415 . S
C1451 C1450 1.355 . S
C1451 C1453 1.419 . S
C1452 C1450 1.415 . S
C1452 C1457 1.425 . S
C1452 C1459 1.409 . S
C1453 H1445 0.930 . S
C1453 C1451 1.419 . S
C1453 C1454 1.362 . S
C1454 H1446 0.930 . S
C1454 C1453 1.362 . S
C1454 C1457 1.409 . S
C1455 H1447 0.930 . S
C1455 C1456 1.355 . S
C1455 C1457 1.415 . S
C1456 C1455 1.355 . S
C1456 C1458 1.419 . S
C1457 C1452 1.425 . S
C1457 C1454 1.409 . S
C1457 C1455 1.415 . S
C1458 H1448 0.930 . S
C1458 C1456 1.419 . S
C1458 C1459 1.362 . S
C1459 H1449 0.930 . S
C1459 C1452 1.409 . S
C1459 C1458 1.362 . S
H1460 C1466 0.930 . S
H1461 C1469 0.930 . S
H1462 C1470 0.930 . S
H1463 C1471 0.930 . S
H1464 C1474 0.930 . S
H1465 C1475 0.930 . S
C1466 H1460 0.930 . S
C1466 C1467 1.355 . S
C1466 C1468 1.415 . S
C1467 C1466 1.355 . S
C1467 C1469 1.419 . S
C1468 C1466 1.415 . S
C1468 C1473 1.425 . S
C1468 C1475 1.409 . S
C1469 H1461 0.930 . S
C1469 C1467 1.419 . S
C1469 C1470 1.362 . S
C1470 H1462 0.930 . S
C1470 C1469 1.362 . S
C1470 C1473 1.409 . S
C1471 H1463 0.930 . S
C1471 C1472 1.355 . S
C1471 C1473 1.415 . S
C1472 C1471 1.355 . S
C1472 C1474 1.419 . S
C1473 C1468 1.425 . S
C1473 C1470 1.409 . S
C1473 C1471 1.415 . S
C1474 H1464 0.930 . S
C1474 C1472 1.419 . S
C1474 C1475 1.362 . S
C1475 H1465 0.930 . S
C1475 C1468 1.409 . S
C1475 C1474 1.362 . S
H1476 C1482 0.930 . S
H1477 C1485 0.930 . S
H1478 C1486 0.930 . S
H1479 C1487 0.930 . S
H1480 C1490 0.930 . S
H1481 C1491 0.930 . S
C1482 H1476 0.930 . S
C1482 C1483 1.355 . S
C1482 C1484 1.415 1_565 S
C1483 C1482 1.355 . S
C1483 C1485 1.419 . S
C1484 C1482 1.415 1_545 S
C1484 C1489 1.425 . S
C1484 C1491 1.409 . S
C1485 H1477 0.930 . S
C1485 C1483 1.419 . S
C1485 C1486 1.362 . S
C1486 H1478 0.930 . S
C1486 C1485 1.362 . S
C1486 C1489 1.409 1_565 S
C1487 H1479 0.930 . S
C1487 C1488 1.355 . S
C1487 C1489 1.415 . S
C1488 C1487 1.355 . S
C1488 C1490 1.419 . S
C1489 C1484 1.425 . S
C1489 C1486 1.409 1_545 S
C1489 C1487 1.415 . S
C1490 H1480 0.930 . S
C1490 C1488 1.419 . S
C1490 C1491 1.362 . S
C1491 H1481 0.930 . S
C1491 C1484 1.409 . S
C1491 C1490 1.362 . S
H1492 C1498 0.930 . S
H1493 C1501 0.930 . S
H1494 C1502 0.930 . S
H1495 C1503 0.930 . S
H1496 C1506 0.930 . S
H1497 C1507 0.930 . S
C1498 H1492 0.930 . S
C1498 C1499 1.355 . S
C1498 C1500 1.415 1_455 S
C1499 C1498 1.355 . S
C1499 C1501 1.419 . S
C1500 C1498 1.415 1_655 S
C1500 C1505 1.425 . S
C1500 C1507 1.409 . S
C1501 H1493 0.930 . S
C1501 C1499 1.419 . S
C1501 C1502 1.362 . S
C1502 H1494 0.930 . S
C1502 C1501 1.362 . S
C1502 C1505 1.409 1_455 S
C1503 H1495 0.930 . S
C1503 C1504 1.355 . S
C1503 C1505 1.415 . S
C1504 C1503 1.355 . S
C1504 C1506 1.419 . S
C1505 C1500 1.425 . S
C1505 C1502 1.409 1_655 S
C1505 C1503 1.415 . S
C1506 H1496 0.930 . S
C1506 C1504 1.419 . S
C1506 C1507 1.362 . S
C1507 H1497 0.930 . S
C1507 C1500 1.409 . S
C1507 C1506 1.362 . S
H1508 C1514 0.930 . S
H1509 C1517 0.930 . S
H1510 C1518 0.930 . S
H1511 C1519 0.930 . S
H1512 C1522 0.930 . S
H1513 C1523 0.930 . S
C1514 H1508 0.930 . S
C1514 C1515 1.355 . S
C1514 C1516 1.415 . S
C1515 C1514 1.355 . S
C1515 C1517 1.419 . S
C1516 C1514 1.415 . S
C1516 C1521 1.425 . S
C1516 C1523 1.409 . S
C1517 H1509 0.930 . S
C1517 C1515 1.419 . S
C1517 C1518 1.362 . S
C1518 H1510 0.930 . S
C1518 C1517 1.362 . S
C1518 C1521 1.409 . S
C1519 H1511 0.930 . S
C1519 C1520 1.355 . S
C1519 C1521 1.415 . S
C1520 C1519 1.355 . S
C1520 C1522 1.419 . S
C1521 C1516 1.425 . S
C1521 C1518 1.409 . S
C1521 C1519 1.415 . S
C1522 H1512 0.930 . S
C1522 C1520 1.419 . S
C1522 C1523 1.362 . S
C1523 H1513 0.930 . S
C1523 C1516 1.409 . S
C1523 C1522 1.362 . S
H1524 C1530 0.930 . S
H1525 C1533 0.930 . S
H1526 C1534 0.930 . S
H1527 C1535 0.930 . S
H1528 C1538 0.930 . S
H1529 C1539 0.930 . S
C1530 H1524 0.930 . S
C1530 C1531 1.355 . S
C1530 C1532 1.415 . S
C1531 C1530 1.355 . S
C1531 C1533 1.419 . S
C1532 C1530 1.415 . S
C1532 C1537 1.425 . S
C1532 C1539 1.409 . S
C1533 H1525 0.930 . S
C1533 C1531 1.419 . S
C1533 C1534 1.362 . S
C1534 H1526 0.930 . S
C1534 C1533 1.362 . S
C1534 C1537 1.409 . S
C1535 H1527 0.930 . S
C1535 C1536 1.355 . S
C1535 C1537 1.415 1_545 S
C1536 C1535 1.355 . S
C1536 C1538 1.419 . S
C1537 C1532 1.425 . S
C1537 C1534 1.409 . S
C1537 C1535 1.415 1_565 S
C1538 H1528 0.930 . S
C1538 C1536 1.419 . S
C1538 C1539 1.362 1_545 S
C1539 H1529 0.930 . S
C1539 C1532 1.409 . S
C1539 C1538 1.362 1_565 S
H1540 C1546 0.930 . S
H1541 C1549 0.930 . S
H1542 C1550 0.930 . S
H1543 C1551 0.930 . S
H1544 C1554 0.930 . S
H1545 C1555 0.930 . S
C1546 H1540 0.930 . S
C1546 C1547 1.355 . S
C1546 C1548 1.415 1_655 S
C1547 C1546 1.355 . S
C1547 C1549 1.419 . S
C1548 C1546 1.415 1_455 S
C1548 C1553 1.425 . S
C1548 C1555 1.409 . S
C1549 H1541 0.930 . S
C1549 C1547 1.419 . S
C1549 C1550 1.362 1_655 S
C1550 H1542 0.930 . S
C1550 C1549 1.362 1_455 S
C1550 C1553 1.409 . S
C1551 H1543 0.930 . S
C1551 C1552 1.355 . S
C1551 C1553 1.415 . S
C1552 C1551 1.355 . S
C1552 C1554 1.419 . S
C1553 C1548 1.425 . S
C1553 C1550 1.409 . S
C1553 C1551 1.415 . S
C1554 H1544 0.930 . S
C1554 C1552 1.419 . S
C1554 C1555 1.362 . S
C1555 H1545 0.930 . S
C1555 C1548 1.409 . S
C1555 C1554 1.362 . S
H1556 C1562 0.930 . S
H1557 C1565 0.930 . S
H1558 C1566 0.930 . S
H1559 C1567 0.930 . S
H1560 C1570 0.930 . S
H1561 C1571 0.930 . S
C1562 H1556 0.930 . S
C1562 C1563 1.355 . S
C1562 C1564 1.415 . S
C1563 C1562 1.355 . S
C1563 C1565 1.419 . S
C1564 C1562 1.415 . S
C1564 C1569 1.425 . S
C1564 C1571 1.409 . S
C1565 H1557 0.930 . S
C1565 C1563 1.419 . S
C1565 C1566 1.362 . S
C1566 H1558 0.930 . S
C1566 C1565 1.362 . S
C1566 C1569 1.409 . S
C1567 H1559 0.930 . S
C1567 C1568 1.355 . S
C1567 C1569 1.415 . S
C1568 C1567 1.355 . S
C1568 C1570 1.419 . S
C1569 C1564 1.425 . S
C1569 C1566 1.409 . S
C1569 C1567 1.415 . S
C1570 H1560 0.930 . S
C1570 C1568 1.419 . S
C1570 C1571 1.362 . S
C1571 H1561 0.930 . S
C1571 C1564 1.409 . S
C1571 C1570 1.362 . S
H1572 C1578 0.930 . S
H1573 C1581 0.930 . S
H1574 C1582 0.930 . S
H1575 C1583 0.930 . S
H1576 C1586 0.930 . S
H1577 C1587 0.930 . S
C1578 H1572 0.930 . S
C1578 C1579 1.355 . S
C1578 C1580 1.415 . S
C1579 C1578 1.355 . S
C1579 C1581 1.419 . S
C1580 C1578 1.415 . S
C1580 C1585 1.425 . S
C1580 C1587 1.409 . S
C1581 H1573 0.930 . S
C1581 C1579 1.419 . S
C1581 C1582 1.362 . S
C1582 H1574 0.930 . S
C1582 C1581 1.362 . S
C1582 C1585 1.409 . S
C1583 H1575 0.930 . S
C1583 C1584 1.355 . S
C1583 C1585 1.415 . S
C1584 C1583 1.355 . S
C1584 C1586 1.419 . S
C1585 C1580 1.425 . S
C1585 C1582 1.409 . S
C1585 C1583 1.415 . S
C1586 H1576 0.930 . S
C1586 C1584 1.419 . S
C1586 C1587 1.362 . S
C1587 H1577 0.930 . S
C1587 C1580 1.409 . S
C1587 C1586 1.362 . S
H1588 C1594 0.930 . S
H1589 C1597 0.930 . S
H1590 C1598 0.930 . S
H1591 C1599 0.930 . S
H1592 C1602 0.930 . S
H1593 C1603 0.930 . S
C1594 H1588 0.930 . S
C1594 C1595 1.355 . S
C1594 C1596 1.415 . S
C1595 C1594 1.355 . S
C1595 C1597 1.419 . S
C1596 C1594 1.415 . S
C1596 C1601 1.425 . S
C1596 C1603 1.409 . S
C1597 H1589 0.930 . S
C1597 C1595 1.419 . S
C1597 C1598 1.362 . S
C1598 H1590 0.930 . S
C1598 C1597 1.362 . S
C1598 C1601 1.409 . S
C1599 H1591 0.930 . S
C1599 C1600 1.355 . S
C1599 C1601 1.415 . S
C1600 C1599 1.355 . S
C1600 C1602 1.419 . S
C1601 C1596 1.425 . S
C1601 C1598 1.409 . S
C1601 C1599 1.415 . S
C1602 H1592 0.930 . S
C1602 C1600 1.419 . S
C1602 C1603 1.362 . S
C1603 H1593 0.930 . S
C1603 C1596 1.409 . S
C1603 C1602 1.362 . S
H1604 C1610 0.930 . S
H1605 C1613 0.930 . S
H1606 C1614 0.930 . S
H1607 C1615 0.930 . S
H1608 C1618 0.930 . S
H1609 C1619 0.930 . S
C1610 H1604 0.930 . S
C1610 C1611 1.355 . S
C1610 C1612 1.415 . S
C1611 C1610 1.355 . S
C1611 C1613 1.419 . S
C1612 C1610 1.415 . S
C1612 C1617 1.425 . S
C1612 C1619 1.409 . S
C1613 H1605 0.930 . S
C1613 C1611 1.419 . S
C1613 C1614 1.362 . S
C1614 H1606 0.930 . S
C1614 C1613 1.362 . S
C1614 C1617 1.409 . S
C1615 H1607 0.930 . S
C1615 C1616 1.355 . S
C1615 C1617 1.415 . S
C1616 C1615 1.355 . S
C1616 C1618 1.419 . S
C1617 C1612 1.425 . S
C1617 C1614 1.409 . S
C1617 C1615 1.415 . S
C1618 H1608 0.930 . S
C1618 C1616 1.419 . S
C1618 C1619 1.362 . S
C1619 H1609 0.930 . S
C1619 C1612 1.409 . S
C1619 C1618 1.362 . S
C619 C139 2.827 . S
C624 C1 2.808 . S
C635 C173 2.797 . S
C640 C35 2.811 1_545 S
C651 C69 2.807 1_655 S
C656 C105 2.799 . S
C667 C37 2.828 . S
C672 C103 2.811 . S
C683 C137 2.808 1_565 S
C688 C71 2.798 . S
C699 C3 2.798 . S
C704 C171 2.808 1_455 S
C715 C343 2.820 . S
C720 C205 2.828 . S
C731 C375 2.799 . S
C736 C239 2.822 . S
C747 C273 2.830 . S
C752 C307 2.812 . S
C763 C309 2.801 . S
C768 C241 2.821 . S
C779 C341 2.828 . S
C784 C275 2.807 . S
C795 C207 2.820 . S
C800 C377 2.800 . S
C811 C547 2.815 . S
C816 C409 2.830 . S
C827 C579 2.815 . S
C832 C443 2.829 . S
C843 C511 2.800 . S
C848 C477 2.804 . S
C859 C513 2.829 . S
C864 C445 2.818 . S
C875 C479 2.828 . S
C880 C545 2.809 . S
C891 C581 2.799 . S
C896 C411 2.816 . S
C907 C28 0.792 . S
C912 C516 0.792 . S
C923 C62 0.704 . S
C928 C572 0.704 . S
C939 C96 0.725 . S
C944 C584 0.725 . S
C955 C232 0.739 . S
C960 C130 0.739 . S
C971 C164 0.704 . S
C976 C266 0.704 . S
C987 C198 0.807 . S
C992 C300 0.807 . S
C1003 C436 0.713 1_554 S
C1008 C312 0.713 1_556 S
C1019 C368 0.742 . S
C1024 C470 0.742 . S
C1035 C380 0.802 1_556 S
C1040 C504 0.802 1_554 S
C1051 C151 0.964 . S
C1056 C6 0.940 . S
C1067 C185 0.905 . S
C1072 C40 0.877 . S
C1083 C74 0.956 . S
C1088 C117 0.947 . S
C1099 C49 0.963 . S
C1104 C108 0.942 . S
C1115 C83 0.960 . S
C1120 C142 0.947 . S
C1131 C15 0.818 . S
C1136 C176 0.896 . S
C1147 C355 0.834 . S
C1152 C210 0.874 . S
C1163 C396 0.838 . S
C1168 C244 0.926 . S
C1179 C328 0.956 . S
C1184 C278 0.951 . S
C1195 C253 0.959 . S
C1200 C334 0.949 . S
C1211 C346 0.955 . S
C1216 C287 0.898 . S
C1227 C219 0.819 . S
C1232 C402 0.898 . S
C1243 C414 0.886 . S
C1248 C559 0.821 . S
C1259 C600 0.911 . S
C1264 C448 0.880 . S
C1275 C482 0.959 . S
C1280 C532 0.922 . S
C1291 C538 0.869 . S
C1296 C457 0.858 . S
C1307 C550 0.958 . S
C1312 C491 0.916 . S
C1323 C423 0.819 . S
C1328 C606 0.900 . S
C1339 C498 1.237 . S
C1344 C17 1.199 . S
C1355 C51 1.199 . S
C1360 C430 1.216 . S
C1371 C85 1.206 . S
C1376 C464 1.253 . S
C1387 C119 1.198 . S
C1392 C389 1.231 . S
C1403 C153 1.211 . S
C1408 C321 1.197 . S
C1419 C362 1.271 . S
C1424 C187 1.232 . S
C1435 C221 1.266 . S
C1440 C90 1.207 . S
C1451 C255 1.254 . S
C1456 C22 1.271 . S
C1467 C56 1.234 . S
C1472 C289 1.276 . S
C1483 C593 1.255 . S
C1488 C323 1.272 . S
C1499 C525 1.264 . S
C1504 C357 1.266 . S
C1515 C391 1.204 . S
C1520 C566 1.249 . S
C1531 C425 1.197 . S
C1536 C294 1.226 . S
C1547 C226 1.212 . S
C1552 C459 1.200 . S
C1563 C260 1.204 . S
C1568 C493 1.204 . S
C1579 C527 1.274 . S
C1584 C192 1.248 . S
C1595 C124 1.190 . S
C1600 C561 1.224 . S
C1611 C595 1.198 . S
C1616 C158 1.221 . S
