# Generated by pormake.
# Topology unl, (4)-cn, num edge types: 1
# Building blocks:
#     Node 0, Type 0, BuildingBlock: KUFVIS_clean_sbu_0, # of connection points: 4
#     Node 1, Type 0, BuildingBlock: KUFVIS_clean_sbu_0, # of connection points: 4
#     Node 2, Type 0, BuildingBlock: KUFVIS_clean_sbu_0, # of connection points: 4
#     Node 3, Type 0, BuildingBlock: KUFVIS_clean_sbu_0, # of connection points: 4
#     Node 4, Type 0, BuildingBlock: KUFVIS_clean_sbu_0, # of connection points: 4
#     Node 5, Type 0, BuildingBlock: KUFVIS_clean_sbu_0, # of connection points: 4
#     Node 6, Type 0, BuildingBlock: KUFVIS_clean_sbu_0, # of connection points: 4
#     Node 7, Type 0, BuildingBlock: KUFVIS_clean_sbu_0, # of connection points: 4
#     Node 8, Type 0, BuildingBlock: KUFVIS_clean_sbu_0, # of connection points: 4
#     Node 9, Type 0, BuildingBlock: KUFVIS_clean_sbu_0, # of connection points: 4
#     Node 10, Type 0, BuildingBlock: KUFVIS_clean_sbu_0, # of connection points: 4
#     Node 11, Type 0, BuildingBlock: KUFVIS_clean_sbu_0, # of connection points: 4
#     Node 12, Type 0, BuildingBlock: KUFVIS_clean_sbu_0, # of connection points: 4
#     Node 13, Type 0, BuildingBlock: KUFVIS_clean_sbu_0, # of connection points: 4
#     Node 14, Type 0, BuildingBlock: KUFVIS_clean_sbu_0, # of connection points: 4
#     Node 15, Type 0, BuildingBlock: KUFVIS_clean_sbu_0, # of connection points: 4
#     Node 16, Type 0, BuildingBlock: KUFVIS_clean_sbu_0, # of connection points: 4
#     Node 17, Type 0, BuildingBlock: KUFVIS_clean_sbu_0, # of connection points: 4
#     Node 18, Type 0, BuildingBlock: KUFVIS_clean_sbu_0, # of connection points: 4
#     Node 19, Type 0, BuildingBlock: KUFVIS_clean_sbu_0, # of connection points: 4
#     Node 20, Type 0, BuildingBlock: KUFVIS_clean_sbu_0, # of connection points: 4
#     Node 21, Type 0, BuildingBlock: KUFVIS_clean_sbu_0, # of connection points: 4
#     Node 22, Type 0, BuildingBlock: KUFVIS_clean_sbu_0, # of connection points: 4
#     Node 23, Type 0, BuildingBlock: KUFVIS_clean_sbu_0, # of connection points: 4
#     Node 24, Type 0, BuildingBlock: KUFVIS_clean_sbu_0, # of connection points: 4
#     Node 25, Type 0, BuildingBlock: KUFVIS_clean_sbu_0, # of connection points: 4
#     Node 26, Type 0, BuildingBlock: KUFVIS_clean_sbu_0, # of connection points: 4
#     Node 27, Type 0, BuildingBlock: KUFVIS_clean_sbu_0, # of connection points: 4
#     Node 28, Type 0, BuildingBlock: KUFVIS_clean_sbu_0, # of connection points: 4
#     Node 29, Type 0, BuildingBlock: KUFVIS_clean_sbu_0, # of connection points: 4
#     Node 30, Type 0, BuildingBlock: KUFVIS_clean_sbu_0, # of connection points: 4
#     Node 31, Type 0, BuildingBlock: KUFVIS_clean_sbu_0, # of connection points: 4
#     Node 32, Type 0, BuildingBlock: KUFVIS_clean_sbu_0, # of connection points: 4
#     Node 33, Type 0, BuildingBlock: KUFVIS_clean_sbu_0, # of connection points: 4
#     Node 34, Type 0, BuildingBlock: KUFVIS_clean_sbu_0, # of connection points: 4
#     Node 35, Type 0, BuildingBlock: KUFVIS_clean_sbu_0, # of connection points: 4
#     Edge 36, Type (0, 0), BuildingBlock: ZUJKAS_clean_linker_0, # of connection points: 2
#     Edge 37, Type (0, 0), BuildingBlock: ZUJKAS_clean_linker_0, # of connection points: 2
#     Edge 38, Type (0, 0), BuildingBlock: ZUJKAS_clean_linker_0, # of connection points: 2
#     Edge 39, Type (0, 0), BuildingBlock: ZUJKAS_clean_linker_0, # of connection points: 2
#     Edge 40, Type (0, 0), BuildingBlock: ZUJKAS_clean_linker_0, # of connection points: 2
#     Edge 41, Type (0, 0), BuildingBlock: ZUJKAS_clean_linker_0, # of connection points: 2
#     Edge 42, Type (0, 0), BuildingBlock: ZUJKAS_clean_linker_0, # of connection points: 2
#     Edge 43, Type (0, 0), BuildingBlock: ZUJKAS_clean_linker_0, # of connection points: 2
#     Edge 44, Type (0, 0), BuildingBlock: ZUJKAS_clean_linker_0, # of connection points: 2
#     Edge 45, Type (0, 0), BuildingBlock: ZUJKAS_clean_linker_0, # of connection points: 2
#     Edge 46, Type (0, 0), BuildingBlock: ZUJKAS_clean_linker_0, # of connection points: 2
#     Edge 47, Type (0, 0), BuildingBlock: ZUJKAS_clean_linker_0, # of connection points: 2
#     Edge 48, Type (0, 0), BuildingBlock: ZUJKAS_clean_linker_0, # of connection points: 2
#     Edge 49, Type (0, 0), BuildingBlock: ZUJKAS_clean_linker_0, # of connection points: 2
#     Edge 50, Type (0, 0), BuildingBlock: ZUJKAS_clean_linker_0, # of connection points: 2
#     Edge 51, Type (0, 0), BuildingBlock: ZUJKAS_clean_linker_0, # of connection points: 2
#     Edge 52, Type (0, 0), BuildingBlock: ZUJKAS_clean_linker_0, # of connection points: 2
#     Edge 53, Type (0, 0), BuildingBlock: ZUJKAS_clean_linker_0, # of connection points: 2
#     Edge 54, Type (0, 0), BuildingBlock: ZUJKAS_clean_linker_0, # of connection points: 2
#     Edge 55, Type (0, 0), BuildingBlock: ZUJKAS_clean_linker_0, # of connection points: 2
#     Edge 56, Type (0, 0), BuildingBlock: ZUJKAS_clean_linker_0, # of connection points: 2
#     Edge 57, Type (0, 0), BuildingBlock: ZUJKAS_clean_linker_0, # of connection points: 2
#     Edge 58, Type (0, 0), BuildingBlock: ZUJKAS_clean_linker_0, # of connection points: 2
#     Edge 59, Type (0, 0), BuildingBlock: ZUJKAS_clean_linker_0, # of connection points: 2
#     Edge 60, Type (0, 0), BuildingBlock: ZUJKAS_clean_linker_0, # of connection points: 2
#     Edge 61, Type (0, 0), BuildingBlock: ZUJKAS_clean_linker_0, # of connection points: 2
#     Edge 62, Type (0, 0), BuildingBlock: ZUJKAS_clean_linker_0, # of connection points: 2
#     Edge 63, Type (0, 0), BuildingBlock: ZUJKAS_clean_linker_0, # of connection points: 2
#     Edge 64, Type (0, 0), BuildingBlock: ZUJKAS_clean_linker_0, # of connection points: 2
#     Edge 65, Type (0, 0), BuildingBlock: ZUJKAS_clean_linker_0, # of connection points: 2
#     Edge 66, Type (0, 0), BuildingBlock: ZUJKAS_clean_linker_0, # of connection points: 2
#     Edge 67, Type (0, 0), BuildingBlock: ZUJKAS_clean_linker_0, # of connection points: 2
#     Edge 68, Type (0, 0), BuildingBlock: ZUJKAS_clean_linker_0, # of connection points: 2
#     Edge 69, Type (0, 0), BuildingBlock: ZUJKAS_clean_linker_0, # of connection points: 2
#     Edge 70, Type (0, 0), BuildingBlock: ZUJKAS_clean_linker_0, # of connection points: 2
#     Edge 71, Type (0, 0), BuildingBlock: ZUJKAS_clean_linker_0, # of connection points: 2
#     Edge 72, Type (0, 0), BuildingBlock: ZUJKAS_clean_linker_0, # of connection points: 2
#     Edge 73, Type (0, 0), BuildingBlock: ZUJKAS_clean_linker_0, # of connection points: 2
#     Edge 74, Type (0, 0), BuildingBlock: ZUJKAS_clean_linker_0, # of connection points: 2
#     Edge 75, Type (0, 0), BuildingBlock: ZUJKAS_clean_linker_0, # of connection points: 2
#     Edge 76, Type (0, 0), BuildingBlock: ZUJKAS_clean_linker_0, # of connection points: 2
#     Edge 77, Type (0, 0), BuildingBlock: ZUJKAS_clean_linker_0, # of connection points: 2
#     Edge 78, Type (0, 0), BuildingBlock: ZUJKAS_clean_linker_0, # of connection points: 2
#     Edge 79, Type (0, 0), BuildingBlock: ZUJKAS_clean_linker_0, # of connection points: 2
#     Edge 80, Type (0, 0), BuildingBlock: ZUJKAS_clean_linker_0, # of connection points: 2
#     Edge 81, Type (0, 0), BuildingBlock: ZUJKAS_clean_linker_0, # of connection points: 2
#     Edge 82, Type (0, 0), BuildingBlock: ZUJKAS_clean_linker_0, # of connection points: 2
#     Edge 83, Type (0, 0), BuildingBlock: ZUJKAS_clean_linker_0, # of connection points: 2
#     Edge 84, Type (0, 0), BuildingBlock: ZUJKAS_clean_linker_0, # of connection points: 2
#     Edge 85, Type (0, 0), BuildingBlock: ZUJKAS_clean_linker_0, # of connection points: 2
#     Edge 86, Type (0, 0), BuildingBlock: ZUJKAS_clean_linker_0, # of connection points: 2
#     Edge 87, Type (0, 0), BuildingBlock: ZUJKAS_clean_linker_0, # of connection points: 2
#     Edge 88, Type (0, 0), BuildingBlock: ZUJKAS_clean_linker_0, # of connection points: 2
#     Edge 89, Type (0, 0), BuildingBlock: ZUJKAS_clean_linker_0, # of connection points: 2
#     Edge 90, Type (0, 0), BuildingBlock: ZUJKAS_clean_linker_0, # of connection points: 2
#     Edge 91, Type (0, 0), BuildingBlock: ZUJKAS_clean_linker_0, # of connection points: 2
#     Edge 92, Type (0, 0), BuildingBlock: ZUJKAS_clean_linker_0, # of connection points: 2
#     Edge 93, Type (0, 0), BuildingBlock: ZUJKAS_clean_linker_0, # of connection points: 2
#     Edge 94, Type (0, 0), BuildingBlock: ZUJKAS_clean_linker_0, # of connection points: 2
#     Edge 95, Type (0, 0), BuildingBlock: ZUJKAS_clean_linker_0, # of connection points: 2
#     Edge 96, Type (0, 0), BuildingBlock: ZUJKAS_clean_linker_0, # of connection points: 2
#     Edge 97, Type (0, 0), BuildingBlock: ZUJKAS_clean_linker_0, # of connection points: 2
#     Edge 98, Type (0, 0), BuildingBlock: ZUJKAS_clean_linker_0, # of connection points: 2
#     Edge 99, Type (0, 0), BuildingBlock: ZUJKAS_clean_linker_0, # of connection points: 2
#     Edge 100, Type (0, 0), BuildingBlock: ZUJKAS_clean_linker_0, # of connection points: 2
#     Edge 101, Type (0, 0), BuildingBlock: ZUJKAS_clean_linker_0, # of connection points: 2
#     Edge 102, Type (0, 0), BuildingBlock: ZUJKAS_clean_linker_0, # of connection points: 2
#     Edge 103, Type (0, 0), BuildingBlock: ZUJKAS_clean_linker_0, # of connection points: 2
#     Edge 104, Type (0, 0), BuildingBlock: ZUJKAS_clean_linker_0, # of connection points: 2
#     Edge 105, Type (0, 0), BuildingBlock: ZUJKAS_clean_linker_0, # of connection points: 2
#     Edge 106, Type (0, 0), BuildingBlock: ZUJKAS_clean_linker_0, # of connection points: 2
#     Edge 107, Type (0, 0), BuildingBlock: ZUJKAS_clean_linker_0, # of connection points: 2
# Relax obj value: 0.072
# Max RMSD: 0.161
# Mean RMSD: 0.161
data_MOF--net-unl--node1-KUFVIS_clean_sbu_0--edge1-ZUJKAS_clean_linker_0
_symmetry_space_group_name_H-M    P1
_symmetry_Int_Tables_number       1
_symmetry_cell_setting            triclinic
loop_
_symmetry_equiv_pos_as_xyz
'x, y, z'
_cell_length_a     84.193758
_cell_length_b     84.195835
_cell_length_c     52.538937
_cell_angle_alpha  89.986638
_cell_angle_beta   90.009802
_cell_angle_gamma 119.99979
loop_
_atom_site_label
_atom_site_type_symbol
_atom_site_fract_x
_atom_site_fract_y
_atom_site_fract_z
_atom_type_partial_charge
Mn0 Mn 0.2112 0.12385 0.11208 0.0
Mn1 Mn 0.16567 0.09746 0.12217 0.0
C2 C 0.19714 0.13229 0.14248 0.0
C3 C 0.24103 0.13059 0.12061 0.0
C4 C 0.18182 0.12434 0.07829 0.0
O5 O 0.20513 0.1001 0.09414 0.0
O6 O 0.17511 0.08339 0.10346 0.0
C7 C 0.16708 0.07083 0.15756 0.0
N8 N 0.16171 0.08329 0.15234 0.0
C9 C 0.14607 0.07757 0.19251 0.0
C10 C 0.15134 0.06459 0.19827 0.0
C11 C 0.16197 0.06128 0.18077 0.0
C12 C 0.15169 0.08676 0.16917 0.0
H13 H 0.17518 0.06819 0.14411 0.0
C14 C 0.18977 0.08522 0.09336 0.0
O15 O 0.237 0.13595 0.09961 0.0
O16 O 0.22765 0.12087 0.13611 0.0
N17 N 0.15428 0.10886 0.14022 0.0
C18 C 0.15079 0.12218 0.13207 0.0
C19 C 0.14056 0.12736 0.14758 0.0
C20 C 0.13371 0.11854 0.17103 0.0
C21 C 0.13721 0.10465 0.17881 0.0
C22 C 0.14756 0.10014 0.16262 0.0
H23 H 0.15581 0.12884 0.11392 0.0
O24 O 0.21293 0.14424 0.13319 0.0
O25 O 0.1902 0.11551 0.13433 0.0
O26 O 0.19868 0.13029 0.08362 0.0
O27 O 0.16854 0.11193 0.09122 0.0
C28 C 0.13093 0.09518 0.20207 0.0
C29 C 0.13551 0.08177 0.20902 0.0
H30 H 0.14737 0.05715 0.21611 0.0
H31 H 0.16614 0.05133 0.18511 0.0
H32 H 0.13787 0.13806 0.14142 0.0
H33 H 0.1258 0.12257 0.18291 0.0
H34 H 0.1227 0.09818 0.21487 0.0
H35 H 0.13083 0.07478 0.22711 0.0
Mn36 Mn 0.86981 0.08328 0.10851 0.0
Mn37 Mn 0.89393 0.0614 0.11609 0.0
C38 C 0.86061 0.06045 0.13862 0.0
C39 C 0.86467 0.10728 0.1179 0.0
C40 C 0.86658 0.05286 0.0734 0.0
O41 O 0.89365 0.10003 0.09008 0.0
O42 O 0.90894 0.08499 0.09783 0.0
C43 C 0.92236 0.08775 0.15131 0.0
N44 N 0.90896 0.07032 0.14578 0.0
C45 C 0.91452 0.05884 0.1847 0.0
C46 C 0.92847 0.07664 0.19075 0.0
C47 C 0.93236 0.09116 0.17401 0.0
C48 C 0.90506 0.05626 0.16178 0.0
H49 H 0.92539 0.09893 0.13847 0.0
C50 C 0.90793 0.0985 0.08845 0.0
O51 O 0.85882 0.0981 0.09682 0.0
O52 O 0.87415 0.10298 0.13297 0.0
N53 N 0.8815 0.0384 0.13353 0.0
C54 C 0.86689 0.02228 0.12564 0.0
C55 C 0.86097 0.00645 0.1405 0.0
C56 C 0.87022 0.0073 0.16316 0.0
C57 C 0.88525 0.02401 0.17086 0.0
C58 C 0.89064 0.0393 0.15514 0.0
H59 H 0.85982 0.02152 0.10813 0.0
O60 O 0.84925 0.06529 0.1299 0.0
O61 O 0.87736 0.06944 0.12991 0.0
O62 O 0.86175 0.06446 0.07969 0.0
O63 O 0.87868 0.05092 0.08545 0.0
C64 C 0.89484 0.02619 0.19375 0.0
C65 C 0.90943 0.0436 0.20072 0.0
H66 H 0.93617 0.07934 0.20829 0.0
H67 H 0.94305 0.10495 0.17861 0.0
H68 H 0.84932 0.9936 0.13449 0.0
H69 H 0.86558 0.99507 0.17463 0.0
H70 H 0.89093 0.01462 0.20634 0.0
H71 H 0.91652 0.04516 0.21855 0.0
Mn72 Mn 0.91566 0.7905 0.11227 0.0
Mn73 Mn 0.94185 0.83606 0.12282 0.0
C74 C 0.93824 0.80092 0.1428 0.0
C75 C 0.88938 0.76257 0.12057 0.0
C76 C 0.94758 0.8166 0.07818 0.0
O77 O 0.9013 0.80088 0.09494 0.0
O78 O 0.91885 0.83075 0.10493 0.0
C79 C 0.91781 0.84069 0.15954 0.0
N80 N 0.93444 0.8427 0.15349 0.0
C81 C 0.94732 0.85756 0.19345 0.0
C82 C 0.93036 0.85576 0.20005 0.0
C83 C 0.91553 0.84724 0.18305 0.0
C84 C 0.9488 0.85086 0.16971 0.0
H85 H 0.90639 0.83414 0.14652 0.0
C86 C 0.90462 0.8174 0.09465 0.0
O87 O 0.89843 0.76537 0.09944 0.0
O88 O 0.89519 0.77624 0.13627 0.0
N89 N 0.96454 0.84344 0.13999 0.0
C90 C 0.97953 0.84281 0.13157 0.0
C91 C 0.99533 0.85007 0.14682 0.0
C92 C 0.99566 0.85811 0.17038 0.0
C93 C 0.98015 0.85881 0.17849 0.0
C94 C 0.96481 0.8514 0.16245 0.0
H95 H 0.97937 0.83668 0.11346 0.0
O96 O 0.93178 0.7847 0.13304 0.0
O97 O 0.93105 0.81059 0.13478 0.0
O98 O 0.93484 0.8004 0.08362 0.0
O99 O 0.95089 0.83069 0.09131 0.0
C100 C 0.97911 0.86604 0.20222 0.0
C101 C 0.9627 0.86539 0.20971 0.0
H102 H 0.92851 0.86071 0.21821 0.0
H103 H 0.90237 0.84572 0.18806 0.0
H104 H 0.00723 0.84944 0.14045 0.0
H105 H 0.0078 0.86352 0.1822 0.0
H106 H 0.99074 0.8718 0.21507 0.0
H107 H 0.96197 0.8707 0.22818 0.0
Mn108 Mn 0.12536 0.21072 0.37722 0.0
Mn109 Mn 0.09497 0.16549 0.37187 0.0
C110 C 0.13151 0.19279 0.35029 0.0
C111 C 0.13555 0.24088 0.3651 0.0
C112 C 0.12155 0.18194 0.416 0.0
O113 O 0.10237 0.20841 0.39349 0.0
O114 O 0.08291 0.17843 0.38662 0.0
C115 C 0.07092 0.16777 0.33268 0.0
N116 N 0.08171 0.16096 0.34071 0.0
C117 C 0.07423 0.14169 0.30373 0.0
C118 C 0.06298 0.14845 0.29507 0.0
C119 C 0.06141 0.16164 0.30954 0.0
C120 C 0.0836 0.14855 0.32671 0.0
H121 H 0.06954 0.17776 0.34391 0.0
C122 C 0.08647 0.19422 0.39469 0.0
O123 O 0.13979 0.23701 0.38712 0.0
O124 O 0.12507 0.2272 0.35043 0.0
N125 N 0.10434 0.15088 0.35783 0.0
C126 C 0.11609 0.14611 0.36859 0.0
C127 C 0.11919 0.13302 0.35655 0.0
C128 C 0.10989 0.1247 0.3339 0.0
C129 C 0.09782 0.12981 0.3232 0.0
C130 C 0.09538 0.14301 0.33597 0.0
H131 H 0.12295 0.15214 0.38631 0.0
O132 O 0.14459 0.20854 0.35817 0.0
O133 O 0.115 0.18822 0.35762 0.0
O134 O 0.12952 0.19853 0.40827 0.0
O135 O 0.10826 0.16875 0.40412 0.0
C136 C 0.08801 0.12222 0.30049 0.0
C137 C 0.07643 0.12834 0.29057 0.0
H138 H 0.05549 0.14362 0.27735 0.0
H139 H 0.05278 0.16694 0.30297 0.0
H140 H 0.12853 0.12916 0.36489 0.0
H141 H 0.11212 0.11441 0.32488 0.0
H142 H 0.0894 0.11177 0.29036 0.0
H143 H 0.06921 0.12262 0.27287 0.0
Mn144 Mn 0.78883 0.9173 0.38573 0.0
Mn145 Mn 0.83468 0.9389 0.3765 0.0
C146 C 0.80212 0.94035 0.35583 0.0
C147 C 0.75945 0.89348 0.37651 0.0
C148 C 0.8169 0.94736 0.42062 0.0
O149 O 0.79602 0.90021 0.40302 0.0
O150 O 0.82624 0.91524 0.39447 0.0
C151 C 0.83579 0.91254 0.34027 0.0
N152 N 0.84009 0.92999 0.34619 0.0
C153 C 0.85645 0.94153 0.30679 0.0
C154 C 0.8523 0.9237 0.30033 0.0
C155 C 0.84187 0.90914 0.31711 0.0
C156 C 0.85005 0.94409 0.33015 0.0
H157 H 0.82779 0.90133 0.35315 0.0
C158 C 0.81184 0.90173 0.40409 0.0
O159 O 0.76305 0.90242 0.39785 0.0
O160 O 0.77307 0.8979 0.3611 0.0
N161 N 0.84512 0.96198 0.3593 0.0
C162 C 0.84694 0.97813 0.36768 0.0
C163 C 0.8567 0.99401 0.35285 0.0
C164 C 0.86463 0.99317 0.32973 0.0
C165 C 0.86261 0.97642 0.32155 0.0
C166 C 0.8529 0.96108 0.33724 0.0
H167 H 0.84099 0.97888 0.38553 0.0
O168 O 0.78612 0.9356 0.36524 0.0
O169 O 0.80988 0.93117 0.36377 0.0
O170 O 0.80028 0.9359 0.4149 0.0
O171 O 0.83059 0.94929 0.40768 0.0
C172 C 0.86955 0.97426 0.2982 0.0
C173 C 0.86641 0.95681 0.29078 0.0
H174 H 0.85691 0.92101 0.28244 0.0
H175 H 0.83854 0.89533 0.3122 0.0
H176 H 0.85814 0.00689 0.35925 0.0
H177 H 0.8721 0.00544 0.3183 0.0
H178 H 0.87706 0.98586 0.28562 0.0
H179 H 0.87156 0.95527 0.27261 0.0
Mn180 Mn 0.08628 0.87121 0.38362 0.0
Mn181 Mn 0.0628 0.8933 0.37178 0.0
C182 C 0.06438 0.86054 0.35214 0.0
C183 C 0.11135 0.86727 0.37668 0.0
C184 C 0.05439 0.86723 0.41616 0.0
O185 O 0.10155 0.89561 0.40153 0.0
O186 O 0.08579 0.90969 0.39066 0.0
C187 C 0.08891 0.92154 0.33615 0.0
N188 N 0.0717 0.9076 0.34145 0.0
C189 C 0.06043 0.91112 0.30097 0.0
C190 C 0.07801 0.92559 0.29514 0.0
C191 C 0.09232 0.93078 0.31278 0.0
C192 C 0.05783 0.90248 0.32461 0.0
H193 H 0.09994 0.92555 0.34968 0.0
C194 C 0.0993 0.90951 0.4016 0.0
O195 O 0.10176 0.86151 0.39745 0.0
O196 O 0.10692 0.87612 0.36064 0.0
N197 N 0.04027 0.87936 0.35359 0.0
C198 C 0.02449 0.86427 0.36135 0.0
C199 C 0.00901 0.85685 0.34543 0.0
C200 C 0.00984 0.86515 0.3219 0.0
C201 C 0.02615 0.88081 0.31447 0.0
C202 C 0.04112 0.88762 0.33115 0.0
H203 H 0.02375 0.85787 0.37945 0.0
O204 O 0.06963 0.8499 0.36228 0.0
O205 O 0.07237 0.87742 0.36033 0.0
O206 O 0.06653 0.86282 0.41131 0.0
O207 O 0.05226 0.87874 0.4029 0.0
C208 C 0.02833 0.88957 0.29083 0.0
C209 C 0.04546 0.90469 0.28407 0.0
H210 H 0.08072 0.9327 0.27709 0.0
H211 H 0.10595 0.94188 0.30836 0.0
H212 H 0.99649 0.84473 0.35127 0.0
H213 H 0.99793 0.85926 0.30956 0.0
H214 H 0.01702 0.88456 0.27749 0.0
H215 H 0.04705 0.91112 0.26566 0.0
Mn216 Mn 0.79088 0.87383 0.8785 0.0
Mn217 Mn 0.83625 0.90322 0.87191 0.0
C218 C 0.80783 0.86704 0.85062 0.0
C219 C 0.76069 0.86455 0.86767 0.0
C220 C 0.81989 0.87685 0.91626 0.0
O221 O 0.7942 0.8971 0.89519 0.0
O222 O 0.82419 0.91594 0.88739 0.0
C223 C 0.83426 0.92775 0.83326 0.0
N224 N 0.84068 0.91652 0.84082 0.0
C225 C 0.85934 0.92349 0.80328 0.0
C226 C 0.85299 0.93519 0.79509 0.0
C227 C 0.8403 0.93723 0.81008 0.0
C228 C 0.85259 0.91417 0.82632 0.0
H229 H 0.82468 0.92951 0.8449 0.0
C230 C 0.80869 0.9128 0.8961 0.0
O231 O 0.76477 0.86006 0.88935 0.0
O232 O 0.77419 0.87469 0.85253 0.0
N233 N 0.85001 0.89314 0.85712 0.0
C234 C 0.85435 0.88093 0.86741 0.0
C235 C 0.86682 0.87723 0.85472 0.0
C236 C 0.87499 0.88641 0.83194 0.0
C237 C 0.87037 0.89898 0.82178 0.0
C238 C 0.85772 0.90197 0.83512 0.0
H239 H 0.84843 0.87416 0.88523 0.0
O240 O 0.79206 0.85424 0.85889 0.0
O241 O 0.813 0.88364 0.85818 0.0
O242 O 0.80323 0.86918 0.9089 0.0
O243 O 0.83313 0.88992 0.90414 0.0
C244 C 0.87789 0.90876 0.79902 0.0
C245 C 0.87218 0.92079 0.78958 0.0
H246 H 0.85775 0.94265 0.77734 0.0
H247 H 0.83532 0.94621 0.80389 0.0
H248 H 0.87031 0.86751 0.86267 0.0
H249 H 0.88479 0.8837 0.82241 0.0
H250 H 0.88795 0.90699 0.78847 0.0
H251 H 0.87782 0.92797 0.77183 0.0
Mn252 Mn 0.1272 0.91229 0.88199 0.0
Mn253 Mn 0.10221 0.93326 0.87422 0.0
C254 C 0.13664 0.93582 0.85295 0.0
C255 C 0.13312 0.88884 0.87191 0.0
C256 C 0.12871 0.94157 0.918 0.0
O257 O 0.1031 0.89469 0.8992 0.0
O258 O 0.08728 0.90916 0.89129 0.0
C259 C 0.07511 0.9073 0.83727 0.0
N260 N 0.08798 0.92473 0.84378 0.0
C261 C 0.08284 0.93681 0.8051 0.0
C262 C 0.06944 0.919 0.79804 0.0
C263 C 0.06561 0.90418 0.81416 0.0
C264 C 0.09183 0.93908 0.82838 0.0
H265 H 0.07212 0.89589 0.84963 0.0
C266 C 0.08851 0.89571 0.90039 0.0
O267 O 0.13843 0.89757 0.89342 0.0
O268 O 0.12382 0.89331 0.85676 0.0
N269 N 0.11447 0.95671 0.85791 0.0
C270 C 0.12854 0.97284 0.8668 0.0
C271 C 0.13434 0.98897 0.85267 0.0
C272 C 0.12553 0.98839 0.82969 0.0
C273 C 0.11102 0.97166 0.821 0.0
C274 C 0.10571 0.95606 0.83602 0.0
H275 H 0.13527 0.97339 0.88454 0.0
O276 O 0.14804 0.93107 0.86179 0.0
O277 O 0.1197 0.92627 0.86078 0.0
O278 O 0.13417 0.93045 0.91163 0.0
O279 O 0.11662 0.9433 0.90559 0.0
C280 C 0.10189 0.96978 0.79776 0.0
C281 C 0.08785 0.95235 0.78978 0.0
H282 H 0.06212 0.91653 0.7802 0.0
H283 H 0.05535 0.89039 0.80879 0.0
H284 H 0.14558 0.00183 0.85948 0.0
H285 H 0.13011 0.00085 0.81877 0.0
H286 H 0.10575 0.98159 0.78569 0.0
H287 H 0.08112 0.95103 0.77169 0.0
Mn288 Mn 0.08641 0.21457 0.88472 0.0
Mn289 Mn 0.06501 0.1692 0.87156 0.0
C290 C 0.0646 0.20287 0.85295 0.0
C291 C 0.1109 0.24416 0.87883 0.0
C292 C 0.05469 0.18512 0.9161 0.0
O293 O 0.10247 0.20635 0.90261 0.0
O294 O 0.08786 0.17666 0.89117 0.0
C295 C 0.09286 0.16972 0.83663 0.0
N296 N 0.07518 0.16513 0.84144 0.0
C297 C 0.06528 0.1504 0.80067 0.0
C298 C 0.08337 0.15487 0.79532 0.0
C299 C 0.09723 0.16463 0.81335 0.0
C300 C 0.06176 0.15584 0.82419 0.0
H301 H 0.10353 0.1772 0.85047 0.0
C302 C 0.10091 0.1905 0.90249 0.0
O303 O 0.10094 0.23967 0.89932 0.0
O304 O 0.107 0.2313 0.86227 0.0
N305 N 0.04267 0.15951 0.85266 0.0
C306 C 0.02613 0.15708 0.86027 0.0
C307 C 0.01082 0.14772 0.8443 0.0
C308 C 0.01264 0.14086 0.82077 0.0
C309 C 0.02976 0.1434 0.81343 0.0
C310 C 0.04448 0.15263 0.83029 0.0
H311 H 0.02462 0.1622 0.87841 0.0
O312 O 0.06922 0.21852 0.86346 0.0
O313 O 0.0733 0.19457 0.86077 0.0
O314 O 0.06648 0.20194 0.91201 0.0
O315 O 0.05332 0.17197 0.90238 0.0
C316 C 0.03289 0.13745 0.78987 0.0
C317 C 0.05065 0.14101 0.78345 0.0
H318 H 0.08679 0.151 0.77737 0.0
H319 H 0.11123 0.1682 0.80931 0.0
H320 H 0.99764 0.14578 0.85013 0.0
H321 H 0.00083 0.13377 0.80841 0.0
H322 H 0.02178 0.13035 0.77639 0.0
H323 H 0.05294 0.13661 0.76512 0.0
Mn324 Mn 0.87074 0.78409 0.6095 0.0
Mn325 Mn 0.89679 0.82995 0.61679 0.0
C326 C 0.86258 0.79889 0.63913 0.0
C327 C 0.86456 0.75467 0.61973 0.0
C328 C 0.86946 0.81211 0.57378 0.0
O329 O 0.89432 0.78996 0.59109 0.0
O330 O 0.9109 0.82023 0.59892 0.0
C331 C 0.92415 0.83028 0.65248 0.0
N332 N 0.91137 0.83513 0.6468 0.0
C333 C 0.91743 0.85216 0.6858 0.0
C334 C 0.93073 0.84743 0.69203 0.0
C335 C 0.93404 0.83637 0.67535 0.0
C336 C 0.90791 0.84557 0.66285 0.0
H337 H 0.92681 0.82186 0.63963 0.0
C338 C 0.9091 0.80538 0.58957 0.0
O339 O 0.85876 0.75797 0.59855 0.0
O340 O 0.8744 0.76855 0.63443 0.0
N341 N 0.88523 0.84153 0.63394 0.0
C342 C 0.87149 0.8443 0.62555 0.0
C343 C 0.86615 0.85473 0.64037 0.0
C344 C 0.87526 0.86252 0.66336 0.0
C345 C 0.88959 0.85977 0.67136 0.0
C346 C 0.89419 0.84912 0.65592 0.0
H347 H 0.8646 0.83853 0.60774 0.0
O348 O 0.85061 0.78276 0.63085 0.0
O349 O 0.87921 0.80573 0.63042 0.0
O350 O 0.86355 0.79548 0.58039 0.0
O351 O 0.882 0.82589 0.58579 0.0
C352 C 0.89944 0.86708 0.69413 0.0
C353 C 0.91321 0.86313 0.70147 0.0
H354 H 0.93844 0.85217 0.7096 0.0
H355 H 0.94425 0.83261 0.68005 0.0
H356 H 0.85511 0.85683 0.63403 0.0
H357 H 0.87111 0.87056 0.67473 0.0
H358 H 0.89644 0.87565 0.70626 0.0
H359 H 0.92047 0.86859 0.71922 0.0
Mn360 Mn 0.20776 0.08536 0.61254 0.0
Mn361 Mn 0.16231 0.06349 0.62529 0.0
C362 C 0.19603 0.06295 0.64348 0.0
C363 C 0.23727 0.10984 0.61895 0.0
C364 C 0.17859 0.05428 0.58003 0.0
O365 O 0.19949 0.10163 0.5955 0.0
O366 O 0.16974 0.08674 0.60672 0.0
C367 C 0.16242 0.09043 0.6616 0.0
N368 N 0.15797 0.0729 0.65596 0.0
C369 C 0.14299 0.06199 0.69639 0.0
C370 C 0.1473 0.07991 0.70259 0.0
C371 C 0.15712 0.0942 0.68515 0.0
C372 C 0.14862 0.05907 0.67264 0.0
H373 H 0.16993 0.10143 0.64821 0.0
C374 C 0.18362 0.10003 0.5958 0.0
O375 O 0.23286 0.10024 0.59813 0.0
O376 O 0.22437 0.10557 0.63559 0.0
N377 N 0.15266 0.04075 0.6432 0.0
C378 C 0.15048 0.02445 0.63484 0.0
C379 C 0.14115 0.00879 0.65019 0.0
C380 C 0.13408 0.01 0.67387 0.0
C381 C 0.13637 0.02688 0.68197 0.0
C382 C 0.14558 0.04198 0.66572 0.0
H383 H 0.15577 0.02341 0.61659 0.0
O384 O 0.21175 0.06786 0.63296 0.0
O385 O 0.18768 0.0717 0.63615 0.0
O386 O 0.19535 0.06599 0.58455 0.0
O387 O 0.16532 0.05254 0.59382 0.0
C388 C 0.13021 0.02941 0.70575 0.0
C389 C 0.13358 0.04696 0.713 0.0
H390 H 0.14328 0.08289 0.72076 0.0
H391 H 0.16057 0.10808 0.68984 0.0
H392 H 0.13941 0.9958 0.64377 0.0
H393 H 0.12703 0.99791 0.68575 0.0
H394 H 0.12312 0.018 0.71877 0.0
H395 H 0.12903 0.04879 0.73148 0.0
Mn396 Mn 0.91891 0.13301 0.60868 0.0
Mn397 Mn 0.94194 0.10999 0.61587 0.0
C398 C 0.94229 0.14311 0.63807 0.0
C399 C 0.89447 0.13738 0.61854 0.0
C400 C 0.94924 0.13681 0.57287 0.0
O401 O 0.90232 0.10883 0.59096 0.0
O402 O 0.91821 0.09434 0.59825 0.0
C403 C 0.91648 0.08155 0.65184 0.0
N404 N 0.93369 0.09519 0.64585 0.0
C405 C 0.94598 0.09039 0.68458 0.0
C406 C 0.9284 0.07621 0.6911 0.0
C407 C 0.91358 0.07181 0.67469 0.0
C408 C 0.94803 0.09958 0.66153 0.0
H409 H 0.90506 0.07813 0.63927 0.0
C410 C 0.90429 0.0948 0.58934 0.0
O411 O 0.90334 0.14322 0.59722 0.0
O412 O 0.8994 0.12842 0.63366 0.0
N413 N 0.96514 0.12303 0.63273 0.0
C414 C 0.98097 0.13778 0.62438 0.0
C415 C 0.99705 0.14418 0.63886 0.0
C416 C 0.99672 0.13526 0.66162 0.0
C417 C 0.98029 0.12007 0.66978 0.0
C418 C 0.96474 0.11419 0.65443 0.0
H419 H 0.98134 0.14461 0.60681 0.0
O420 O 0.93687 0.15404 0.62941 0.0
O421 O 0.93352 0.12625 0.62978 0.0
O422 O 0.93733 0.14118 0.57933 0.0
O423 O 0.95176 0.12508 0.58496 0.0
C424 C 0.97863 0.11077 0.69279 0.0
C425 C 0.96148 0.09598 0.70023 0.0
H426 H 0.92609 0.0687 0.70874 0.0
H427 H 0.89996 0.06093 0.67964 0.0
H428 H 0.00968 0.15595 0.63248 0.0
H429 H 0.00913 0.14027 0.67279 0.0
H430 H 0.99041 0.11505 0.7051 0.0
H431 H 0.96032 0.08911 0.71815 0.0
Mn432 Mn 0.87345 0.46112 0.44404 0.0
Mn433 Mn 0.82773 0.43281 0.44862 0.0
C434 C 0.8567 0.46701 0.47349 0.0
C435 C 0.90325 0.46896 0.45506 0.0
C436 C 0.84539 0.462 0.40785 0.0
O437 O 0.86964 0.43854 0.42466 0.0
O438 O 0.83925 0.42064 0.43018 0.0
C439 C 0.8284 0.40508 0.48257 0.0
N440 N 0.82258 0.41721 0.4775 0.0
C441 C 0.80367 0.40807 0.51499 0.0
C442 C 0.80941 0.39543 0.52061 0.0
C443 C 0.82193 0.39402 0.5044 0.0
C444 C 0.81086 0.41895 0.49323 0.0
H445 H 0.83786 0.40382 0.47 0.0
C446 C 0.85468 0.42345 0.42169 0.0
O447 O 0.89977 0.47484 0.4341 0.0
O448 O 0.88937 0.45817 0.46921 0.0
N449 N 0.81439 0.44235 0.46609 0.0
C450 C 0.81051 0.45547 0.4582 0.0
C451 C 0.79816 0.45859 0.47225 0.0
C452 C 0.78961 0.44792 0.4939 0.0
C453 C 0.79377 0.43445 0.5016 0.0
C454 C 0.8063 0.43208 0.48697 0.0
H455 H 0.8167 0.4634 0.44122 0.0
O456 O 0.87273 0.47991 0.46617 0.0
O457 O 0.8511 0.45079 0.46401 0.0
O458 O 0.86197 0.46815 0.41486 0.0
O459 O 0.8317 0.44865 0.41889 0.0
C460 C 0.78585 0.42318 0.5231 0.0
C461 C 0.791 0.4102 0.53001 0.0
H462 H 0.8043 0.38674 0.53729 0.0
H463 H 0.82645 0.38432 0.50862 0.0
H464 H 0.79503 0.46901 0.4662 0.0
H465 H 0.77989 0.45021 0.50447 0.0
H466 H 0.77589 0.4245 0.5346 0.0
H467 H 0.78504 0.40183 0.54681 0.0
Mn468 Mn 0.53362 0.41907 0.44485 0.0
Mn469 Mn 0.56075 0.40059 0.45378 0.0
C470 C 0.52568 0.3963 0.47474 0.0
C471 C 0.52609 0.44153 0.45397 0.0
C472 C 0.53382 0.39005 0.41006 0.0
O473 O 0.55722 0.43725 0.42686 0.0
O474 O 0.57441 0.42435 0.43559 0.0
C475 C 0.58712 0.42843 0.4896 0.0
N476 N 0.57488 0.4106 0.48402 0.0
C477 C 0.58096 0.40039 0.5237 0.0
C478 C 0.5937 0.41864 0.52983 0.0
C479 C 0.59673 0.43272 0.51275 0.0
C480 C 0.57169 0.39697 0.50045 0.0
H481 H 0.58954 0.43928 0.47646 0.0
C482 C 0.57226 0.43707 0.42577 0.0
O483 O 0.521 0.43233 0.43281 0.0
O484 O 0.5361 0.43812 0.46929 0.0
N485 N 0.54972 0.37758 0.47127 0.0
C486 C 0.5366 0.36078 0.4628 0.0
C487 C 0.53169 0.34522 0.47789 0.0
C488 C 0.5406 0.34705 0.50123 0.0
C489 C 0.5543 0.36444 0.50932 0.0
C490 C 0.55852 0.37945 0.49355 0.0
H491 H 0.52988 0.35927 0.44472 0.0
O492 O 0.5135 0.39994 0.46583 0.0
O493 O 0.54241 0.40651 0.46654 0.0
O494 O 0.52747 0.4005 0.41604 0.0
O495 O 0.54642 0.38926 0.42262 0.0
C496 C 0.56387 0.3675 0.53247 0.0
C497 C 0.57706 0.38548 0.53976 0.0
H498 H 0.6012 0.42199 0.54762 0.0
H499 H 0.6065 0.44684 0.51737 0.0
H500 H 0.52114 0.33184 0.47148 0.0
H501 H 0.53678 0.33502 0.51279 0.0
H502 H 0.56111 0.35615 0.54491 0.0
H503 H 0.58412 0.38767 0.55778 0.0
Mn504 Mn 0.58162 0.12266 0.44968 0.0
Mn505 Mn 0.60079 0.16815 0.46062 0.0
C506 C 0.60428 0.13637 0.47998 0.0
C507 C 0.55881 0.09259 0.45758 0.0
C508 C 0.61121 0.15242 0.41598 0.0
O509 O 0.56375 0.12882 0.4326 0.0
O510 O 0.57716 0.15881 0.44214 0.0
C511 C 0.573 0.16659 0.49663 0.0
N512 N 0.59081 0.17209 0.49102 0.0
C513 C 0.60105 0.18777 0.53113 0.0
C514 C 0.58283 0.18237 0.53728 0.0
C515 C 0.56875 0.17169 0.51999 0.0
C516 C 0.60446 0.1823 0.50756 0.0
H517 H 0.56215 0.15839 0.48337 0.0
C518 C 0.56427 0.14419 0.43203 0.0
O519 O 0.56805 0.09709 0.43644 0.0
O520 O 0.56239 0.10567 0.47361 0.0
N521 N 0.62369 0.17948 0.47838 0.0
C522 C 0.64037 0.18263 0.47016 0.0
C523 C 0.6559 0.19286 0.48544 0.0
C524 C 0.65416 0.19987 0.50889 0.0
C525 C 0.63687 0.19654 0.51687 0.0
C526 C 0.62191 0.18642 0.50071 0.0
H527 H 0.64181 0.17738 0.45208 0.0
O528 O 0.60043 0.12077 0.47001 0.0
O529 O 0.59438 0.14345 0.47243 0.0
O530 O 0.6003 0.13553 0.42102 0.0
O531 O 0.61224 0.16555 0.4294 0.0
C532 C 0.63384 0.20253 0.54046 0.0
C533 C 0.61593 0.19809 0.54763 0.0
H534 H 0.57949 0.18623 0.55531 0.0
H535 H 0.55465 0.1674 0.52465 0.0
H536 H 0.6692 0.19535 0.47917 0.0
H537 H 0.66615 0.20767 0.5207 0.0
H538 H 0.64513 0.21032 0.5534 0.0
H539 H 0.61373 0.20254 0.56597 0.0
Mn540 Mn 0.78892 0.54121 0.71913 0.0
Mn541 Mn 0.76263 0.4958 0.70803 0.0
C542 C 0.79815 0.52724 0.68966 0.0
C543 C 0.79611 0.57116 0.71036 0.0
C544 C 0.78806 0.51142 0.75349 0.0
O545 O 0.76466 0.53519 0.7354 0.0
O546 O 0.74816 0.50522 0.72569 0.0
C547 C 0.73716 0.49773 0.67097 0.0
N548 N 0.74938 0.49221 0.67704 0.0
C549 C 0.74469 0.47686 0.63681 0.0
C550 C 0.73197 0.48229 0.63016 0.0
C551 C 0.72826 0.49285 0.64728 0.0
C552 C 0.75323 0.48226 0.6606 0.0
H553 H 0.73421 0.50577 0.68412 0.0
C554 C 0.74974 0.51985 0.73554 0.0
O555 O 0.80076 0.56696 0.73184 0.0
O556 O 0.78686 0.55788 0.6945 0.0
N557 N 0.77445 0.48448 0.69085 0.0
C558 C 0.78752 0.48089 0.69982 0.0
C559 C 0.79309 0.47077 0.68476 0.0
C560 C 0.78491 0.46412 0.66091 0.0
C561 C 0.77126 0.46772 0.65227 0.0
C562 C 0.76636 0.47798 0.66803 0.0
H563 H 0.79369 0.48576 0.71828 0.0
O564 O 0.8099 0.5429 0.69951 0.0
O565 O 0.78115 0.52039 0.69674 0.0
O566 O 0.79421 0.52834 0.74836 0.0
O567 O 0.77614 0.49829 0.73983 0.0
C568 C 0.76239 0.46163 0.62858 0.0
C569 C 0.74925 0.46634 0.62075 0.0
H570 H 0.72503 0.47849 0.61194 0.0
H571 H 0.71851 0.49714 0.64225 0.0
H572 H 0.80361 0.46801 0.69158 0.0
H573 H 0.78924 0.45631 0.64936 0.0
H574 H 0.76566 0.45342 0.61612 0.0
H575 H 0.74275 0.46182 0.60232 0.0
Mn576 Mn 0.45279 0.24707 0.71159 0.0
Mn577 Mn 0.49862 0.2651 0.70716 0.0
C578 C 0.46953 0.27088 0.68362 0.0
C579 C 0.42312 0.22524 0.6998 0.0
C580 C 0.48034 0.27458 0.74955 0.0
O581 O 0.45686 0.22796 0.72953 0.0
O582 O 0.48723 0.24059 0.72343 0.0
C583 C 0.49868 0.23858 0.67022 0.0
N584 N 0.50423 0.2562 0.67703 0.0
C585 C 0.52343 0.26795 0.63997 0.0
C586 C 0.51798 0.24993 0.63258 0.0
C587 C 0.50546 0.23518 0.64769 0.0
C588 C 0.51596 0.27046 0.66237 0.0
H589 H 0.48921 0.22723 0.68194 0.0
C590 C 0.47182 0.22771 0.73161 0.0
O591 O 0.42646 0.23388 0.72136 0.0
O592 O 0.43709 0.22894 0.68544 0.0
N593 N 0.51185 0.28879 0.69174 0.0
C594 C 0.51543 0.30529 0.70134 0.0
C595 C 0.52776 0.32147 0.68856 0.0
C596 C 0.53658 0.32053 0.66641 0.0
C597 C 0.53272 0.30339 0.65693 0.0
C598 C 0.52022 0.28774 0.67037 0.0
H599 H 0.50903 0.30612 0.7187 0.0
O600 O 0.45334 0.26718 0.69102 0.0
O601 O 0.47528 0.26009 0.69203 0.0
O602 O 0.46389 0.26454 0.74184 0.0
O603 O 0.49419 0.27541 0.73831 0.0
C604 C 0.54091 0.30122 0.63479 0.0
C605 C 0.53606 0.28351 0.62611 0.0
H606 H 0.52332 0.24726 0.61534 0.0
H607 H 0.50117 0.22123 0.6421 0.0
H608 H 0.53066 0.33464 0.69597 0.0
H609 H 0.54629 0.33308 0.65683 0.0
H610 H 0.55084 0.31308 0.62416 0.0
H611 H 0.54224 0.28202 0.60885 0.0
Mn612 Mn 0.75108 0.20424 0.72262 0.0
Mn613 Mn 0.72819 0.2276 0.71867 0.0
C614 C 0.72767 0.19519 0.69348 0.0
C615 C 0.77553 0.20027 0.71131 0.0
C616 C 0.72134 0.1997 0.75994 0.0
O617 O 0.76766 0.22782 0.7418 0.0
O618 O 0.75225 0.24293 0.73558 0.0
C619 C 0.75283 0.25673 0.68289 0.0
N620 N 0.73577 0.24293 0.68919 0.0
C621 C 0.72261 0.24842 0.6519 0.0
C622 C 0.74003 0.26277 0.64508 0.0
C623 C 0.75521 0.2669 0.6606 0.0
C624 C 0.72108 0.23881 0.67436 0.0
H625 H 0.76452 0.25995 0.69479 0.0
C626 C 0.76602 0.242 0.74411 0.0
O627 O 0.76665 0.19368 0.73245 0.0
O628 O 0.77062 0.20973 0.6972 0.0
N629 N 0.70467 0.21476 0.70263 0.0
C630 C 0.68908 0.19971 0.71098 0.0
C631 C 0.67271 0.19348 0.69727 0.0
C632 C 0.6725 0.20287 0.67528 0.0
C633 C 0.6887 0.21831 0.66706 0.0
C634 C 0.70456 0.22399 0.68164 0.0
H635 H 0.68914 0.19254 0.72798 0.0
O636 O 0.73312 0.18398 0.70078 0.0
O637 O 0.73645 0.21173 0.70295 0.0
O638 O 0.73266 0.19497 0.75196 0.0
O639 O 0.71906 0.21207 0.74933 0.0
C640 C 0.68982 0.22806 0.64469 0.0
C641 C 0.70678 0.24306 0.63707 0.0
H642 H 0.74193 0.27061 0.62785 0.0
H643 H 0.7687 0.2779 0.6554 0.0
H644 H 0.66027 0.1815 0.70365 0.0
H645 H 0.65985 0.19801 0.66471 0.0
H646 H 0.67778 0.22393 0.63298 0.0
H647 H 0.70753 0.25026 0.61962 0.0
Mn648 Mn 0.45433 0.20571 0.21766 0.0
Mn649 Mn 0.50005 0.23009 0.20777 0.0
C650 C 0.46753 0.19637 0.18715 0.0
C651 C 0.42496 0.20037 0.20914 0.0
C652 C 0.48276 0.20301 0.25106 0.0
O653 O 0.46151 0.22969 0.23573 0.0
O654 O 0.49177 0.2447 0.22762 0.0
C655 C 0.50017 0.25827 0.17392 0.0
N656 N 0.50465 0.24504 0.17826 0.0
C657 C 0.52003 0.25082 0.13788 0.0
C658 C 0.51567 0.26458 0.13302 0.0
C659 C 0.50562 0.26825 0.15108 0.0
C660 C 0.51408 0.24121 0.16088 0.0
H661 H 0.49252 0.2612 0.1878 0.0
C662 C 0.47743 0.24379 0.23746 0.0
O663 O 0.42861 0.19464 0.23012 0.0
O664 O 0.4385 0.2097 0.19368 0.0
N665 N 0.51042 0.21812 0.18874 0.0
C666 C 0.5132 0.20418 0.19613 0.0
C667 C 0.52282 0.19861 0.18002 0.0
C668 C 0.52984 0.2077 0.15678 0.0
C669 C 0.52715 0.22226 0.14982 0.0
C670 C 0.51735 0.22712 0.16657 0.0
H671 H 0.50804 0.19731 0.21413 0.0
O672 O 0.45155 0.18494 0.19643 0.0
O673 O 0.4752 0.21319 0.1954 0.0
O674 O 0.46612 0.19834 0.24611 0.0
O675 O 0.49639 0.21475 0.23796 0.0
C676 C 0.53374 0.23211 0.12689 0.0
C677 C 0.53003 0.24626 0.12081 0.0
H678 H 0.51993 0.27237 0.11547 0.0
H679 H 0.50216 0.27882 0.14744 0.0
H680 H 0.5249 0.1874 0.18556 0.0
H681 H 0.53728 0.20337 0.14443 0.0
H682 H 0.54158 0.22886 0.1137 0.0
H683 H 0.53495 0.25355 0.10297 0.0
Mn684 Mn 0.79571 0.24776 0.22188 0.0
Mn685 Mn 0.7754 0.27337 0.21445 0.0
C686 C 0.80678 0.27059 0.19173 0.0
C687 C 0.79757 0.2218 0.21243 0.0
C688 C 0.80144 0.27858 0.25774 0.0
O689 O 0.77145 0.23305 0.24042 0.0
O690 O 0.75801 0.24972 0.23114 0.0
C691 C 0.74662 0.25036 0.17721 0.0
N692 N 0.76122 0.26684 0.1839 0.0
C693 C 0.75896 0.28086 0.14518 0.0
C694 C 0.74381 0.26406 0.13794 0.0
C695 C 0.73765 0.24874 0.154 0.0
C696 C 0.76726 0.28167 0.16861 0.0
H697 H 0.74187 0.23856 0.18951 0.0
C698 C 0.7578 0.2357 0.24105 0.0
O699 O 0.80424 0.23082 0.23346 0.0
O700 O 0.78914 0.22744 0.19746 0.0
N701 N 0.79053 0.2966 0.19845 0.0
C702 C 0.80621 0.31133 0.20724 0.0
C703 C 0.81467 0.32756 0.19284 0.0
C704 C 0.80682 0.32854 0.16972 0.0
C705 C 0.79057 0.31327 0.1612 0.0
C706 C 0.78273 0.29749 0.1764 0.0
H707 H 0.8123 0.31067 0.225 0.0
O708 O 0.81695 0.26421 0.20022 0.0
O709 O 0.79014 0.26312 0.20072 0.0
O710 O 0.80565 0.2667 0.25058 0.0
O711 O 0.78985 0.28156 0.24614 0.0
C712 C 0.78218 0.3129 0.13783 0.0
C713 C 0.76639 0.2967 0.12982 0.0
H714 H 0.73693 0.26272 0.11999 0.0
H715 H 0.72603 0.23572 0.14849 0.0
H716 H 0.82724 0.33927 0.19951 0.0
H717 H 0.81349 0.34101 0.15854 0.0
H718 H 0.78797 0.32487 0.12563 0.0
H719 H 0.76025 0.29648 0.1116 0.0
Mn720 Mn 0.74728 0.54972 0.21675 0.0
Mn721 Mn 0.72815 0.50412 0.20701 0.0
C722 C 0.72553 0.53562 0.18533 0.0
C723 C 0.77048 0.57962 0.20873 0.0
C724 C 0.71633 0.52042 0.24938 0.0
O725 O 0.76453 0.54364 0.23604 0.0
O726 O 0.75101 0.51353 0.22722 0.0
C727 C 0.75731 0.50545 0.17404 0.0
N728 N 0.73933 0.5001 0.17797 0.0
C729 C 0.73067 0.48406 0.13799 0.0
C730 C 0.74908 0.48931 0.13356 0.0
C731 C 0.76247 0.50015 0.15161 0.0
C732 C 0.72639 0.48994 0.16055 0.0
H733 H 0.76763 0.51368 0.18794 0.0
C734 C 0.76376 0.52815 0.23748 0.0
O735 O 0.76061 0.57551 0.22928 0.0
O736 O 0.76728 0.56625 0.19345 0.0
N737 N 0.70598 0.49272 0.18754 0.0
C738 C 0.68891 0.48918 0.19441 0.0
C739 C 0.67399 0.47876 0.17819 0.0
C740 C 0.67669 0.4717 0.15541 0.0
C741 C 0.69432 0.4752 0.14898 0.0
C742 C 0.70868 0.48583 0.16577 0.0
H743 H 0.68671 0.49433 0.2121 0.0
O744 O 0.72913 0.5514 0.19436 0.0
O745 O 0.73515 0.52869 0.19436 0.0
O746 O 0.72765 0.53723 0.24439 0.0
O747 O 0.71557 0.50707 0.23678 0.0
C748 C 0.69822 0.46861 0.12655 0.0
C749 C 0.7164 0.47321 0.12092 0.0
H750 H 0.75309 0.48515 0.11635 0.0
H751 H 0.77671 0.5043 0.1483 0.0
H752 H 0.66041 0.47606 0.18332 0.0
H753 H 0.66513 0.46362 0.14299 0.0
H754 H 0.68736 0.46011 0.11338 0.0
H755 H 0.71926 0.46829 0.10343 0.0
Mn756 Mn 0.53639 0.12117 0.94391 0.0
Mn757 Mn 0.56318 0.16718 0.94743 0.0
C758 C 0.52942 0.13765 0.97251 0.0
C759 C 0.52964 0.09181 0.95574 0.0
C760 C 0.53439 0.14803 0.90655 0.0
O761 O 0.5594 0.1257 0.925 0.0
O762 O 0.57622 0.15625 0.92987 0.0
C763 C 0.59137 0.16826 0.98223 0.0
N764 N 0.57876 0.17334 0.97652 0.0
C765 C 0.58725 0.19296 0.01324 0.0
C766 C 0.60037 0.18799 0.0195 0.0
C767 C 0.60234 0.17548 0.00402 0.0
C768 C 0.57645 0.18503 0.99159 0.0
H769 H 0.59308 0.15883 0.97018 0.0
C770 C 0.57414 0.14098 0.92189 0.0
O771 O 0.52363 0.09477 0.93452 0.0
O772 O 0.53994 0.10599 0.96976 0.0
N773 N 0.55277 0.18005 0.964 0.0
C774 C 0.53928 0.18318 0.9555 0.0
C775 C 0.53561 0.19546 0.96874 0.0
C776 C 0.54612 0.20471 0.99019 0.0
C777 C 0.55998 0.20133 0.99854 0.0
C778 C 0.56289 0.18881 0.98472 0.0
H779 H 0.53148 0.17647 0.93862 0.0
O780 O 0.51703 0.12131 0.96549 0.0
O781 O 0.5458 0.14374 0.96328 0.0
O782 O 0.52883 0.13168 0.91409 0.0
O783 O 0.54733 0.16216 0.9174 0.0
C784 C 0.57114 0.20999 0.01989 0.0
C785 C 0.58456 0.20561 0.02747 0.0
H786 H 0.60901 0.1937 0.03613 0.0
H787 H 0.61243 0.17156 0.00873 0.0
H788 H 0.52489 0.198 0.9622 0.0
H789 H 0.54341 0.21439 0.00012 0.0
H790 H 0.5694 0.21995 0.03077 0.0
H791 H 0.59284 0.21214 0.04415 0.0
Mn792 Mn 0.87774 0.41854 0.95063 0.0
Mn793 Mn 0.83238 0.39444 0.96375 0.0
C794 C 0.8673 0.39674 0.98225 0.0
C795 C 0.90659 0.44407 0.95693 0.0
C796 C 0.84969 0.38625 0.91873 0.0
O797 O 0.86795 0.4334 0.93321 0.0
O798 O 0.83827 0.41723 0.94476 0.0
C799 C 0.83029 0.42045 -0.0004 0.0
N800 N 0.82723 0.40332 0.9943 0.0
C801 C 0.81318 0.3921 0.03521 0.0
C802 C 0.81608 0.4096 0.04105 0.0
C803 C 0.82472 0.42385 0.02319 0.0
C804 C 0.81895 0.38951 0.01135 0.0
H805 H 0.83693 0.43143 0.98591 0.0
C806 C 0.8517 0.43084 0.93355 0.0
O807 O 0.90268 0.43442 0.9362 0.0
O808 O 0.89348 0.43937 0.97335 0.0
N809 N 0.82442 0.37206 0.98208 0.0
C810 C 0.82389 0.35637 0.97424 0.0
C811 C 0.81632 0.34099 0.99032 0.0
C812 C 0.80914 0.34179 0.01411 0.0
C813 C 0.80962 0.358 0.02162 0.0
C814 C 0.8173 0.37289 0.00477 0.0
H815 H 0.82934 0.35565 0.95595 0.0
O816 O 0.88311 0.40224 0.97164 0.0
O817 O 0.85805 0.40444 0.97444 0.0
O818 O 0.86624 0.39867 0.92306 0.0
O819 O 0.83619 0.38392 0.93248 0.0
C820 C 0.80332 0.36017 0.0455 0.0
C821 C 0.80513 0.37721 0.0523 0.0
H822 H 0.81189 0.4123 0.05927 0.0
H823 H 0.82708 0.43742 0.02761 0.0
H824 H 0.81605 0.32854 0.98441 0.0
H825 H 0.80349 0.32995 0.02656 0.0
H826 H 0.79739 0.34892 0.05897 0.0
H827 H 0.80053 0.3788 0.07088 0.0
Mn828 Mn 0.5779 0.45434 0.94715 0.0
Mn829 Mn 0.59793 0.42834 0.95172 0.0
C830 C 0.60225 0.46287 0.97463 0.0
C831 C 0.55503 0.46062 0.95921 0.0
C832 C 0.60561 0.45532 0.90875 0.0
O833 O 0.55948 0.43062 0.92971 0.0
O834 O 0.57324 0.41396 0.93625 0.0
C835 C 0.57285 0.40164 0.98977 0.0
N836 N 0.59014 0.41425 0.98232 0.0
C837 C 0.60326 0.40825 0.01916 0.0
C838 C 0.58561 0.39514 0.02723 0.0
C839 C 0.57032 0.39192 0.01255 0.0
C840 C 0.60489 0.41773 0.99655 0.0
H841 H 0.56109 0.39899 0.97837 0.0
C842 C 0.5599 0.41574 0.92802 0.0
O843 O 0.5634 0.46616 0.9375 0.0
O844 O 0.55965 0.45106 0.9736 0.0
N845 N 0.62192 0.44008 0.96636 0.0
C846 C 0.63796 0.45343 0.95614 0.0
C847 C 0.65458 0.45829 0.96843 0.0
C848 C 0.65457 0.4491 0.99074 0.0
C849 C 0.63788 0.43537 0.00087 0.0
C850 C 0.62175 0.43122 0.98789 0.0
H851 H 0.6381 0.46023 0.93865 0.0
O852 O 0.5976 0.47468 0.96721 0.0
O853 O 0.59203 0.44612 0.9666 0.0
O854 O 0.59522 0.46128 0.91661 0.0
O855 O 0.60713 0.44271 0.92008 0.0
C856 C 0.63663 0.42554 0.02321 0.0
C857 C 0.61932 0.41218 0.03256 0.0
H858 H 0.58362 0.38749 0.04465 0.0
H859 H 0.55665 0.38185 0.01865 0.0
H860 H 0.6674 0.4689 0.96052 0.0
H861 H 0.66745 0.45271 -6e-05 0.0
H862 H 0.64888 0.42825 0.03349 0.0
H863 H 0.61853 0.40493 0.04997 0.0
Mn864 Mn 0.54455 0.79096 0.78314 0.0
Mn865 Mn 0.49885 0.76632 0.79365 0.0
C866 C 0.53154 0.80094 0.81313 0.0
C867 C 0.57412 0.79661 0.79109 0.0
C868 C 0.51576 0.79204 0.74874 0.0
O869 O 0.53734 0.76659 0.76631 0.0
O870 O 0.50732 0.75099 0.77599 0.0
C871 C 0.49869 0.7397 0.83062 0.0
N872 N 0.49402 0.75253 0.82438 0.0
C873 C 0.47792 0.74799 0.86396 0.0
C874 C 0.48246 0.73463 0.87076 0.0
C875 C 0.49295 0.73053 0.85406 0.0
C876 C 0.48401 0.75665 0.84034 0.0
H877 H 0.50673 0.7365 0.8178 0.0
C878 C 0.52169 0.75205 0.76599 0.0
O879 O 0.57003 0.80175 0.76996 0.0
O880 O 0.56091 0.78779 0.80725 0.0
N881 N 0.48831 0.77895 0.81062 0.0
C882 C 0.48611 0.79296 0.80187 0.0
C883 C 0.47623 0.79902 0.81656 0.0
C884 C 0.46861 0.79053 0.83995 0.0
C885 C 0.47098 0.77608 0.84848 0.0
C886 C 0.48079 0.77049 0.8329 0.0
H887 H 0.49182 0.79946 0.78383 0.0
O888 O 0.54741 0.81214 0.80329 0.0
O889 O 0.52379 0.78389 0.80565 0.0
O890 O 0.53249 0.79753 0.7542 0.0
O891 O 0.50231 0.78025 0.76202 0.0
C892 C 0.46436 0.76726 0.87208 0.0
C893 C 0.46788 0.75327 0.87986 0.0
H894 H 0.47811 0.72757 0.88885 0.0
H895 H 0.49658 0.7203 0.85922 0.0
H896 H 0.47449 0.81021 0.80986 0.0
H897 H 0.46111 0.79532 0.8513 0.0
H898 H 0.45679 0.77134 0.88458 0.0
H899 H 0.46297 0.74679 0.89822 0.0
Mn900 Mn 0.20724 0.74905 0.77715 0.0
Mn901 Mn 0.23125 0.72739 0.78811 0.0
C902 C 0.19719 0.72644 0.80774 0.0
C903 C 0.20185 0.77314 0.78503 0.0
C904 C 0.20515 0.71828 0.74365 0.0
O905 O 0.2316 0.7658 0.75997 0.0
O906 O 0.24658 0.75069 0.76938 0.0
C907 C 0.2587 0.75437 0.82378 0.0
N908 N 0.24556 0.73683 0.81834 0.0
C909 C 0.25039 0.72597 0.85834 0.0
C910 C 0.26407 0.74391 0.86431 0.0
C911 C 0.26819 0.75818 0.84699 0.0
C912 C 0.24143 0.72301 0.8349 0.0
H913 H 0.2619 0.76536 0.81049 0.0
C914 C 0.24583 0.76415 0.75927 0.0
O915 O 0.19656 0.76387 0.76394 0.0
O916 O 0.21084 0.76884 0.80099 0.0
N917 N 0.21856 0.70463 0.80608 0.0
C918 C 0.20422 0.68835 0.79812 0.0
C919 C 0.19809 0.67273 0.81351 0.0
C920 C 0.20685 0.67397 0.83679 0.0
C921 C 0.22164 0.69084 0.84452 0.0
C922 C 0.22727 0.7059 0.82826 0.0
H923 H 0.19752 0.68729 0.78017 0.0
O924 O 0.18607 0.73114 0.79771 0.0
O925 O 0.21419 0.73541 0.79999 0.0
O926 O 0.20019 0.73002 0.74857 0.0
O927 O 0.21676 0.71643 0.75709 0.0
C928 C 0.23075 0.6934 0.86795 0.0
C929 C 0.24507 0.71097 0.8749 0.0
H930 H 0.27138 0.74691 0.88223 0.0
H931 H 0.27867 0.77207 0.85151 0.0
H932 H 0.18665 0.65975 0.80743 0.0
H933 H 0.202 0.66191 0.8487 0.0
H934 H 0.22664 0.68202 0.88097 0.0
H935 H 0.25177 0.71283 0.89314 0.0
Mn936 Mn 0.24759 0.46022 0.7861 0.0
Mn937 Mn 0.26355 0.50568 0.79097 0.0
C938 C 0.27177 0.47777 0.81308 0.0
C939 C 0.227 0.43024 0.7984 0.0
C940 C 0.27297 0.48849 0.74706 0.0
O941 O 0.22732 0.46313 0.7696 0.0
O942 O 0.23855 0.49328 0.77607 0.0
C943 C 0.23754 0.50439 0.82993 0.0
N944 N 0.25509 0.51066 0.82202 0.0
C945 C 0.26726 0.52972 0.85913 0.0
C946 C 0.24932 0.52353 0.86766 0.0
C947 C 0.23439 0.51072 0.85306 0.0
C948 C 0.26953 0.52272 0.83612 0.0
H949 H 0.22604 0.49468 0.81862 0.0
C950 C 0.22608 0.47758 0.76805 0.0
O951 O 0.23514 0.43385 0.77642 0.0
O952 O 0.23052 0.44408 0.81292 0.0
N953 N 0.28759 0.51973 0.8051 0.0
C954 C 0.304 0.5239 0.79452 0.0
C955 C 0.32033 0.53645 0.8068 0.0
C956 C 0.31961 0.54487 0.82951 0.0
C957 C 0.30255 0.54041 0.83998 0.0
C958 C 0.28675 0.52771 0.82699 0.0
H959 H 0.30463 0.51776 0.77678 0.0
O960 O 0.2687 0.46186 0.80534 0.0
O961 O 0.26018 0.48275 0.80552 0.0
O962 O 0.2641 0.47198 0.75504 0.0
O963 O 0.27331 0.50196 0.75876 0.0
C964 C 0.3006 0.54814 0.86273 0.0
C965 C 0.28297 0.54262 0.87248 0.0
H966 H 0.24684 0.52849 0.88539 0.0
H967 H 0.22051 0.50584 0.85953 0.0
H968 H 0.33344 0.53981 0.79861 0.0
H969 H 0.33225 0.55472 0.83874 0.0
H970 H 0.31256 0.55823 0.87301 0.0
H971 H 0.28166 0.54844 0.8902 0.0
Mn972 Mn 0.45896 0.87859 0.05244 0.0
Mn973 Mn 0.43387 0.83276 0.04334 0.0
C974 C 0.46863 0.86493 0.02306 0.0
C975 C 0.46476 0.90806 0.04332 0.0
C976 C 0.45955 0.85025 0.08817 0.0
O977 O 0.43469 0.87176 0.06941 0.0
O978 O 0.4186 0.84173 0.05984 0.0
C979 C 0.40764 0.83212 0.00527 0.0
N980 N 0.42035 0.82748 0.0123 0.0
C981 C 0.41606 0.81073 0.9734 0.0
C982 C 0.40283 0.81523 0.96579 0.0
C983 C 0.39865 0.82603 0.98177 0.0
C984 C 0.42452 0.81715 0.99705 0.0
H985 H 0.40439 0.8404 0.01753 0.0
C986 C 0.41992 0.85628 0.06962 0.0
O987 O 0.46999 0.90434 0.06467 0.0
O988 O 0.45572 0.89455 0.02769 0.0
N989 N 0.44654 0.82184 0.02749 0.0
C990 C 0.46051 0.81981 0.03685 0.0
C991 C 0.46669 0.80973 0.02288 0.0
C992 C 0.45834 0.80171 -0.00042 0.0
C993 C 0.44396 0.80395 0.99037 0.0
C994 C 0.43827 0.814 0.00524 0.0
H995 H 0.46688 0.82583 0.05484 0.0
O996 O 0.47996 0.88096 0.03232 0.0
O997 O 0.45164 0.85743 0.03071 0.0
O998 O 0.46564 0.86693 0.08178 0.0
O999 O 0.44743 0.83663 0.07547 0.0
C1000 C 0.43533 0.79697 0.96675 0.0
C1001 C 0.42143 0.80041 0.95823 0.0
H1002 H 0.39591 0.81062 0.94764 0.0
H1003 H 0.38851 0.82963 0.97598 0.0
H1004 H 0.47785 0.80812 0.03007 0.0
H1005 H 0.46319 0.79401 0.9888 0.0
H1006 H 0.43949 0.78921 0.9548 0.0
H1007 H 0.41511 0.79523 0.93986 0.0
Mn1008 Mn 0.12144 0.58008 0.05131 0.0
Mn1009 Mn 0.16704 0.60008 0.04087 0.0
C1010 C 0.13513 0.60361 0.02214 0.0
C1011 C 0.09169 0.55706 0.04209 0.0
C1012 C 0.15045 0.60811 0.08706 0.0
O1013 O 0.12805 0.56221 0.06746 0.0
O1014 O 0.15779 0.57538 0.05611 0.0
C1015 C 0.16685 0.57512 0.00103 0.0
N1016 N 0.17187 0.59239 0.00903 0.0
C1017 C 0.18838 0.60554 0.97016 0.0
C1018 C 0.18353 0.58791 0.96159 0.0
C1019 C 0.17265 0.57264 0.97706 0.0
C1020 C 0.18226 0.60717 0.99427 0.0
H1021 H 0.15846 0.56336 0.01286 0.0
C1022 C 0.14327 0.5624 0.06634 0.0
O1023 O 0.0957 0.56566 0.06375 0.0
O1024 O 0.1051 0.56136 0.02635 0.0
N1025 N 0.17809 0.62401 0.02603 0.0
C1026 C 0.1803 0.63987 0.03624 0.0
C1027 C 0.19036 0.65638 0.0228 0.0
C1028 C 0.19817 0.65645 -0.00085 0.0
C1029 C 0.19569 0.63996 0.98901 0.0
C1030 C 0.18568 0.62396 0.00338 0.0
H1031 H 0.17444 0.63992 0.05449 0.0
O1032 O 0.11932 0.59919 0.03193 0.0
O1033 O 0.14239 0.59378 0.02921 0.0
O1034 O 0.13365 0.598 0.08088 0.0
O1035 O 0.16373 0.60929 0.07382 0.0
C1036 C 0.20241 0.63872 0.96497 0.0
C1037 C 0.1987 0.62151 0.95552 0.0
H1038 H 0.1879 0.58593 0.94305 0.0
H1039 H 0.16876 0.55898 0.9705 0.0
H1040 H 0.19213 0.66905 0.03067 0.0
H1041 H 0.2059 0.66921 0.98881 0.0
H1042 H 0.21014 0.65086 0.9534 0.0
H1043 H 0.20365 0.62069 0.93681 0.0
Mn1044 Mn 0.41912 0.54033 0.0524 0.0
Mn1045 Mn 0.40303 0.56931 0.04191 0.0
C1046 C 0.39645 0.533 0.02252 0.0
C1047 C 0.44053 0.53121 0.04407 0.0
C1048 C 0.39147 0.54334 0.08694 0.0
O1049 O 0.43833 0.56386 0.06938 0.0
O1050 O 0.42707 0.58232 0.05959 0.0
C1051 C 0.43126 0.5938 0.00499 0.0
N1052 N 0.4133 0.58248 0.01104 0.0
C1053 C 0.40343 0.5884 0.97097 0.0
C1054 C 0.42181 0.60021 0.96435 0.0
C1055 C 0.43579 0.60284 0.98139 0.0
C1056 C 0.39976 0.57967 0.99467 0.0
H1057 H 0.44203 0.59592 0.01809 0.0
C1058 C 0.43925 0.57943 0.06964 0.0
O1059 O 0.43134 0.52684 0.06525 0.0
O1060 O 0.43757 0.54121 0.02813 0.0
N1061 N 0.37992 0.55897 0.02477 0.0
C1062 C 0.36294 0.54662 0.03367 0.0
C1063 C 0.34745 0.54211 0.01864 0.0
C1064 C 0.34954 0.55062 0.9949 0.0
C1065 C 0.36713 0.56352 0.98634 0.0
C1066 C 0.38206 0.56737 0.00207 0.0
H1067 H 0.36124 0.54021 0.05204 0.0
O1068 O 0.3992 0.52038 0.03209 0.0
O1069 O 0.40744 0.54973 0.03014 0.0
O1070 O 0.401 0.53587 0.08131 0.0
O1071 O 0.39146 0.55609 0.07372 0.0
C1072 C 0.37047 0.57261 0.96274 0.0
C1073 C 0.3886 0.58491 0.95496 0.0
H1074 H 0.42536 0.60725 0.94619 0.0
H1075 H 0.45001 0.61188 0.97639 0.0
H1076 H 0.33392 0.53217 0.0254 0.0
H1077 H 0.33756 0.54711 0.98338 0.0
H1078 H 0.3592 0.57014 0.9503 0.0
H1079 H 0.391 0.59158 0.9366 0.0
Mn1080 Mn 0.11417 0.5332 0.5521 0.0
Mn1081 Mn 0.15994 0.55419 0.54251 0.0
C1082 C 0.12564 0.52191 0.52176 0.0
C1083 C 0.08591 0.53071 0.54353 0.0
C1084 C 0.14064 0.52873 0.58704 0.0
O1085 O 0.12363 0.55776 0.56972 0.0
O1086 O 0.15358 0.57142 0.55952 0.0
C1087 C 0.16404 0.58222 0.50501 0.0
N1088 N 0.16655 0.568 0.51163 0.0
C1089 C 0.18216 0.57029 0.47226 0.0
C1090 C 0.17985 0.58505 0.46507 0.0
C1091 C 0.1707 0.59101 0.48149 0.0
C1092 C 0.17532 0.56215 0.49598 0.0
H1093 H 0.15701 0.58682 0.51759 0.0
C1094 C 0.13984 0.57156 0.56978 0.0
O1095 O 0.08881 0.52448 0.56459 0.0
O1096 O 0.09961 0.53892 0.52794 0.0
N1097 N 0.16825 0.53934 0.52616 0.0
C1098 C 0.16804 0.52403 0.53505 0.0
C1099 C 0.17594 0.51582 0.52039 0.0
C1100 C 0.18416 0.52356 0.49692 0.0
C1101 C 0.18439 0.53944 0.4883 0.0
C1102 C 0.17635 0.54704 0.50377 0.0
H1103 H 0.16178 0.51804 0.5531 0.0
O1104 O 0.10936 0.51164 0.5311 0.0
O1105 O 0.13471 0.53875 0.53004 0.0
O1106 O 0.12428 0.5243 0.58087 0.0
O1107 O 0.15472 0.54011 0.57437 0.0
C1108 C 0.19177 0.54769 0.46461 0.0
C1109 C 0.19063 0.56309 0.45658 0.0
H1110 H 0.18488 0.5918 0.44689 0.0
H1111 H 0.16879 0.60233 0.47602 0.0
H1112 H 0.17566 0.50354 0.52713 0.0
H1113 H 0.19006 0.51708 0.48554 0.0
H1114 H 0.19801 0.54207 0.4522 0.0
H1115 H 0.19606 0.56911 0.43814 0.0
Mn1116 Mn 0.4542 0.58153 0.54993 0.0
Mn1117 Mn 0.43518 0.60795 0.53859 0.0
C1118 C 0.4669 0.60426 0.51966 0.0
C1119 C 0.45602 0.55531 0.54201 0.0
C1120 C 0.45977 0.61345 0.58385 0.0
O1121 O 0.42921 0.56714 0.56658 0.0
O1122 O 0.41728 0.58502 0.55648 0.0
C1123 C 0.4068 0.58386 0.50157 0.0
N1124 N 0.4214 0.60049 0.50769 0.0
C1125 C 0.41989 0.61324 0.46737 0.0
C1126 C 0.40475 0.59628 0.4607 0.0
C1127 C 0.39821 0.58152 0.47785 0.0
C1128 C 0.42782 0.61478 0.49132 0.0
H1129 H 0.40176 0.57249 0.51471 0.0
C1130 C 0.41614 0.57067 0.56675 0.0
O1131 O 0.46188 0.56427 0.56327 0.0
O1132 O 0.44838 0.56115 0.52595 0.0
N1133 N 0.45068 0.63058 0.52141 0.0
C1134 C 0.4662 0.6456 0.53002 0.0
C1135 C 0.47492 0.66135 0.51469 0.0
C1136 C 0.46748 0.66161 0.49087 0.0
C1137 C 0.45136 0.64608 0.48258 0.0
C1138 C 0.44324 0.63079 0.4987 0.0
H1139 H 0.47197 0.6455 0.54833 0.0
O1140 O 0.47645 0.59771 0.52982 0.0
O1141 O 0.4499 0.59707 0.52712 0.0
O1142 O 0.46305 0.60055 0.57871 0.0
O1143 O 0.44935 0.61702 0.5703 0.0
C1144 C 0.44335 0.64498 0.45861 0.0
C1145 C 0.42765 0.62856 0.451 0.0
H1146 H 0.39814 0.59438 0.44236 0.0
H1147 H 0.38659 0.56837 0.47278 0.0
H1148 H 0.48738 0.67327 0.5212 0.0
H1149 H 0.47436 0.67371 0.47899 0.0
H1150 H 0.44937 0.65655 0.44569 0.0
H1151 H 0.4218 0.62777 0.43235 0.0
Mn1152 Mn 0.42108 0.87858 0.55153 0.0
Mn1153 Mn 0.39733 0.83272 0.54239 0.0
C1154 C 0.39789 0.8664 0.52189 0.0
C1155 C 0.44596 0.90732 0.54242 0.0
C1156 C 0.39127 0.85164 0.58738 0.0
O1157 O 0.43705 0.86987 0.56852 0.0
O1158 O 0.42137 0.83983 0.55854 0.0
C1159 C 0.42109 0.8293 0.50387 0.0
N1160 N 0.4043 0.82635 0.51112 0.0
C1161 C 0.39059 0.81054 0.472 0.0
C1162 C 0.40772 0.81331 0.46417 0.0
C1163 C 0.42304 0.82277 0.48015 0.0
C1164 C 0.38946 0.81724 0.49592 0.0
H1165 H 0.43288 0.83658 0.51611 0.0
C1166 C 0.43514 0.85385 0.56853 0.0
O1167 O 0.43715 0.90407 0.56383 0.0
O1168 O 0.4408 0.89365 0.52685 0.0
N1169 N 0.37381 0.82379 0.52686 0.0
C1170 C 0.35867 0.82366 0.53631 0.0
C1171 C 0.34236 0.81548 0.5221 0.0
C1172 C 0.34171 0.80735 0.49849 0.0
C1173 C 0.35741 0.80748 0.48929 0.0
C1174 C 0.37327 0.81579 0.50433 0.0
H1175 H 0.35908 0.82988 0.55445 0.0
O1176 O 0.40355 0.88262 0.53123 0.0
O1177 O 0.40625 0.8578 0.5298 0.0
O1178 O 0.40257 0.86808 0.58078 0.0
O1179 O 0.38877 0.83761 0.57479 0.0
C1180 C 0.35812 0.80023 0.46543 0.0
C1181 C 0.3747 0.80177 0.45678 0.0
H1182 H 0.40931 0.8084 0.44582 0.0
H1183 H 0.43631 0.82504 0.47418 0.0
H1184 H 0.33032 0.81549 0.52929 0.0
H1185 H 0.32916 0.80124 0.48746 0.0
H1186 H 0.34609 0.79379 0.45334 0.0
H1187 H 0.37516 0.79644 0.4382 0.0
Mn1188 Mn 0.20768 0.45538 0.28184 0.0
Mn1189 Mn 0.2268 0.50037 0.29655 0.0
C1190 C 0.19487 0.46436 0.31336 0.0
C1191 C 0.2055 0.42693 0.28705 0.0
C1192 C 0.20239 0.48317 0.25064 0.0
O1193 O 0.23278 0.46638 0.26556 0.0
O1194 O 0.24449 0.49594 0.2769 0.0
C1195 C 0.25534 0.50302 0.33204 0.0
N1196 N 0.24083 0.50547 0.3271 0.0
C1197 C 0.243 0.51858 0.36854 0.0
C1198 C 0.25806 0.51632 0.37402 0.0
C1199 C 0.26421 0.50845 0.35571 0.0
C1200 C 0.23476 0.51298 0.34459 0.0
H1201 H 0.26009 0.49698 0.318 0.0
C1202 C 0.2457 0.48303 0.26577 0.0
O1203 O 0.19994 0.43104 0.26632 0.0
O1204 O 0.21298 0.43961 0.30426 0.0
N1205 N 0.21163 0.50708 0.31548 0.0
C1206 C 0.19613 0.50706 0.3079 0.0
C1207 C 0.1878 0.51386 0.32438 0.0
C1208 C 0.19562 0.52086 0.34831 0.0
C1209 C 0.2117 0.52096 0.35557 0.0
C1210 C 0.21941 0.51404 0.33831 0.0
H1211 H 0.19009 0.50173 0.28951 0.0
O1212 O 0.18528 0.44873 0.30194 0.0
O1213 O 0.21195 0.47436 0.30632 0.0
O1214 O 0.1994 0.46689 0.25412 0.0
O1215 O 0.21242 0.49655 0.26535 0.0
C1216 C 0.22003 0.52709 0.37956 0.0
C1217 C 0.23565 0.52586 0.38606 0.0
H1218 H 0.26489 0.52042 0.39229 0.0
H1219 H 0.27576 0.50658 0.35985 0.0
H1220 H 0.17536 0.51368 0.31869 0.0
H1221 H 0.18904 0.52591 0.36108 0.0
H1222 H 0.21432 0.53243 0.39334 0.0
H1223 H 0.24175 0.53033 0.40472 0.0
Mn1224 Mn 0.54772 0.75234 0.2791 0.0
Mn1225 Mn 0.50204 0.7273 0.28965 0.0
C1226 C 0.53672 0.73042 0.31062 0.0
C1227 C 0.57613 0.7782 0.28665 0.0
C1228 C 0.5211 0.71987 0.24616 0.0
O1229 O 0.53799 0.76693 0.26065 0.0
O1230 O 0.508 0.74997 0.27037 0.0
C1231 C 0.4982 0.75282 0.32446 0.0
N1232 N 0.49568 0.73584 0.3195 0.0
C1233 C 0.48048 0.72428 0.35966 0.0
C1234 C 0.4828 0.74161 0.36513 0.0
C1235 C 0.49174 0.75595 0.34749 0.0
C1236 C 0.48713 0.72195 0.33636 0.0
H1237 H 0.50506 0.76386 0.31093 0.0
C1238 C 0.52155 0.76387 0.25983 0.0
O1239 O 0.57296 0.76865 0.26594 0.0
O1240 O 0.56253 0.7732 0.30231 0.0
N1241 N 0.494 0.70496 0.30811 0.0
C1242 C 0.49406 0.68947 0.30073 0.0
C1243 C 0.48624 0.67402 0.3167 0.0
C1244 C 0.47822 0.67455 0.33988 0.0
C1245 C 0.47812 0.69056 0.34692 0.0
C1246 C 0.48607 0.70552 0.3302 0.0
H1247 H 0.50015 0.68895 0.28289 0.0
O1248 O 0.55287 0.73622 0.30096 0.0
O1249 O 0.52744 0.73784 0.30188 0.0
O1250 O 0.53739 0.73257 0.25128 0.0
O1251 O 0.5071 0.71711 0.25905 0.0
C1252 C 0.47094 0.69246 0.37022 0.0
C1253 C 0.47216 0.70932 0.37661 0.0
H1254 H 0.47792 0.74411 0.38292 0.0
H1255 H 0.49366 0.76939 0.35163 0.0
H1256 H 0.48642 0.66173 0.31116 0.0
H1257 H 0.47237 0.66267 0.35226 0.0
H1258 H 0.46478 0.68116 0.38358 0.0
H1259 H 0.46688 0.7107 0.39476 0.0
Mn1260 Mn 0.24792 0.79019 0.28298 0.0
Mn1261 Mn 0.2725 0.76913 0.29381 0.0
C1262 C 0.27043 0.80154 0.31364 0.0
C1263 C 0.22263 0.79361 0.29091 0.0
C1264 C 0.27944 0.79462 0.24916 0.0
O1265 O 0.23264 0.76552 0.2658 0.0
O1266 O 0.24933 0.75221 0.27563 0.0
C1267 C 0.24743 0.74079 0.33018 0.0
N1268 N 0.26439 0.75498 0.32436 0.0
C1269 C 0.27658 0.75216 0.36447 0.0
C1270 C 0.25927 0.73742 0.37082 0.0
C1271 C 0.24462 0.73175 0.35363 0.0
C1272 C 0.27858 0.76056 0.34077 0.0
H1273 H 0.23615 0.73641 0.317 0.0
C1274 C 0.23535 0.75191 0.26541 0.0
O1275 O 0.23177 0.79927 0.26976 0.0
O1276 O 0.22765 0.78516 0.30681 0.0
N1277 N 0.29524 0.78363 0.31129 0.0
C1278 C 0.31065 0.79895 0.30312 0.0
C1279 C 0.32636 0.80688 0.31859 0.0
C1280 C 0.32615 0.79886 0.34213 0.0
C1281 C 0.31021 0.78297 0.34999 0.0
C1282 C 0.29498 0.77565 0.33374 0.0
H1283 H 0.31091 0.80516 0.28503 0.0
O1284 O 0.26473 0.81187 0.30364 0.0
O1285 O 0.26259 0.78461 0.30572 0.0
O1286 O 0.26704 0.79859 0.25442 0.0
O1287 O 0.28227 0.78356 0.26241 0.0
C1288 C 0.30863 0.77446 0.37369 0.0
C1289 C 0.29182 0.75908 0.38093 0.0
H1290 H 0.25701 0.73048 0.38895 0.0
H1291 H 0.2312 0.72045 0.35845 0.0
H1292 H 0.33859 0.81918 0.31242 0.0
H1293 H 0.33822 0.80514 0.35413 0.0
H1294 H 0.32015 0.77985 0.3867 0.0
H1295 H 0.29069 0.75285 0.39938 0.0
H1296 H 0.16052 0.0504 0.09172 0.0
H1297 H 0.15684 0.02498 0.06559 0.0
H1298 H 0.21206 0.05795 0.03744 0.0
H1299 H 0.21582 0.08382 0.06334 0.0
H1300 H 0.18754 0.04291 -0.0005 0.0
H1301 H 0.17471 0.98866 0.06898 0.0
H1302 H 0.16017 0.99809 0.07527 0.0
H1303 H 0.18469 0.01247 0.07802 0.0
C1304 C 0.17203 0.05226 0.08028 0.0
C1305 C 0.18843 0.06926 0.07949 0.0
C1306 C 0.16996 0.03757 0.06556 0.0
C1307 C 0.18427 0.03943 0.0499 0.0
C1308 C 0.2009 0.05617 0.04962 0.0
H1309 H 0.15817 0.94624 0.94671 0.0
H1310 H 0.1747 0.96978 0.97928 0.0
C1311 C 0.203 0.07094 0.06439 0.0
C1312 C 0.18082 0.02467 0.03157 0.0
H1313 H 0.16109 0.97812 0.02687 0.0
C1314 C 0.18221 0.02881 0.00551 0.0
C1315 C 0.17408 0.00629 0.03933 0.0
C1316 C 0.17352 0.00116 0.06695 0.0
C1317 C 0.17566 0.01491 0.98712 0.0
C1318 C 0.1673 0.99641 0.99504 0.0
C1319 C 0.16724 0.99233 0.02092 0.0
C1320 C 0.15683 0.98129 0.97691 0.0
C1321 C 0.17703 0.02006 0.95937 0.0
C1322 C 0.14103 0.97967 0.96558 0.0
C1323 C 0.13156 0.96631 0.94718 0.0
C1324 C 0.13767 0.95421 0.93971 0.0
C1325 C 0.1531 0.95535 0.95195 0.0
C1326 C 0.16259 0.96879 0.9705 0.0
H1327 H 0.18816 0.0344 0.95604 0.0
H1328 H 0.17957 0.01071 0.94736 0.0
H1329 H 0.16391 0.01897 0.9532 0.0
H1330 H 0.13621 0.98901 0.97065 0.0
H1331 H 0.11968 0.9658 0.93839 0.0
H1332 H 0.94161 0.10139 0.08406 0.0
H1333 H 0.96745 0.12304 0.05842 0.0
H1334 H 0.93736 0.14975 0.03569 0.0
H1335 H 0.91108 0.12781 0.0611 0.0
H1336 H 0.95137 0.14093 0.99543 0.0
H1337 H 0.00605 0.17634 0.06689 0.0
H1338 H 0.99528 0.15195 0.07044 0.0
H1339 H 0.9821 0.16319 0.07547 0.0
C1340 C 0.94047 0.11197 0.07389 0.0
C1341 C 0.92416 0.11275 0.07455 0.0
C1342 C 0.9554 0.12451 0.05944 0.0
C1343 C 0.95448 0.13823 0.04551 0.0
C1344 C 0.93841 0.13936 0.04653 0.0
H1345 H 0.05066 0.20845 0.94889 0.0
H1346 H 0.02641 0.20017 0.98074 0.0
C1347 C 0.9234 0.12679 0.06103 0.0
C1348 C 0.96956 0.1499 0.02777 0.0
H1349 H 0.01625 0.17531 0.02382 0.0
C1350 C 0.96551 0.14881 0.00171 0.0
C1351 C 0.988 0.16042 0.03594 0.0
C1352 C 0.99308 0.16321 0.06376 0.0
C1353 C 0.97952 0.15676 0.9835 0.0
C1354 C 0.99801 0.16577 0.99159 0.0
C1355 C 0.00205 0.16812 0.01768 0.0
C1356 C 0.01315 0.17105 0.97322 0.0
C1357 C 0.97442 0.15488 0.95569 0.0
C1358 C 0.01396 0.15736 0.9591 0.0
C1359 C 0.02772 0.16197 0.94109 0.0
C1360 C 0.04108 0.18042 0.93682 0.0
C1361 C 0.04058 0.19412 0.95162 0.0
C1362 C 0.02674 0.18944 0.96978 0.0
H1363 H 0.96041 0.15278 0.95296 0.0
H1364 H 0.98432 0.16718 0.94476 0.0
H1365 H 0.97461 0.14277 0.94771 0.0
H1366 H 0.00379 0.14305 0.96188 0.0
H1367 H 0.02766 0.151 0.93024 0.0
H1368 H 0.85206 0.89285 0.94289 0.0
H1369 H 0.8607 0.87971 0.97801 0.0
H1370 H 0.80703 0.83146 0.97664 0.0
H1371 H 0.79809 0.8445 0.94145 0.0
H1372 H 0.83853 0.86211 0.02953 0.0
H1373 H 0.84976 0.81727 0.96248 0.0
H1374 H 0.85125 0.83837 0.95183 0.0
H1375 H 0.82938 0.81909 0.95973 0.0
C1376 C 0.84197 0.87953 0.95018 0.0
C1377 C 0.82441 0.86968 0.93922 0.0
C1378 C 0.84694 0.87209 0.97031 0.0
C1379 C 0.83451 0.85465 0.97973 0.0
C1380 C 0.81677 0.84497 0.96952 0.0
H1381 H 0.87122 0.79319 0.07367 0.0
H1382 H 0.85106 0.80046 0.04892 0.0
C1383 C 0.81171 0.85246 0.94946 0.0
C1384 C 0.84072 0.84624 -0.00094 0.0
H1385 H 0.85916 0.81844 0.00476 0.0
C1386 C 0.84281 0.85235 0.0243 0.0
C1387 C 0.84611 0.83344 0.99208 0.0
C1388 C 0.84411 0.82659 0.96508 0.0
C1389 C 0.85073 0.84636 0.0427 0.0
C1390 C 0.85717 0.83438 0.03538 0.0
C1391 C 0.85428 0.82765 0.01035 0.0
C1392 C 0.86831 0.82987 0.05261 0.0
C1393 C 0.85224 0.85303 0.06972 0.0
C1394 C 0.8847 0.84398 0.06291 0.0
C1395 C 0.89619 0.8399 0.07714 0.0
C1396 C 0.89171 0.82159 0.08105 0.0
C1397 C 0.87514 0.80745 0.07099 0.0
C1398 C 0.86358 0.81156 0.05687 0.0
H1399 H 0.84124 0.85625 0.0741 0.0
H1400 H 0.85142 0.84272 0.08362 0.0
H1401 H 0.86559 0.86583 0.07221 0.0
H1402 H 0.88893 0.85822 0.05926 0.0
H1403 H 0.90887 0.85116 0.08445 0.0
H1404 H 0.97501 0.13016 0.55192 0.0
H1405 H 0.99759 0.14797 0.51949 0.0
H1406 H 0.97499 0.18379 0.51268 0.0
H1407 H 0.95203 0.16589 0.54523 0.0
H1408 H 0.98338 0.17324 0.46533 0.0
H1409 H 0.04186 0.19944 0.53199 0.0
H1410 H 0.02769 0.17499 0.53415 0.0
H1411 H 0.01838 0.18942 0.54266 0.0
C1412 C 0.97469 0.14175 0.54353 0.0
C1413 C 0.96175 0.14666 0.5514 0.0
C1414 C 0.98771 0.15199 0.52508 0.0
C1415 C 0.98822 0.16744 0.5142 0.0
C1416 C 0.97492 0.17202 0.52113 0.0
H1417 H 0.08862 0.22239 0.42385 0.0
H1418 H 0.06421 0.22166 0.45012 0.0
C1419 C 0.9618 0.16174 0.53967 0.0
C1420 C 0.00272 0.17852 0.49552 0.0
H1421 H 0.04891 0.1983 0.48758 0.0
C1422 C 0.99776 0.17914 0.47022 0.0
C1423 C 0.02148 0.18673 0.50206 0.0
C1424 C 0.02769 0.18781 0.52927 0.0
C1425 C 0.01104 0.18617 0.45087 0.0
C1426 C 0.02959 0.1923 0.45704 0.0
C1427 C 0.03468 0.19336 0.4827 0.0
C1428 C 0.04331 0.19474 0.43745 0.0
C1429 C 0.00494 0.1863 0.42392 0.0
C1430 C 0.03959 0.18006 0.42122 0.0
C1431 C 0.05342 0.18044 0.40625 0.0
C1432 C 0.07141 0.19543 0.40739 0.0
C1433 C 0.07493 0.21062 0.42256 0.0
C1434 C 0.061 0.21023 0.43757 0.0
H1435 H 0.99321 0.18886 0.42362 0.0
H1436 H 0.01623 0.1969 0.41217 0.0
H1437 H 0.00019 0.17266 0.41516 0.0
H1438 H 0.02625 0.16774 0.42125 0.0
H1439 H 0.05014 0.16855 0.39465 0.0
H1440 H 0.78498 0.86865 0.42333 0.0
H1441 H 0.78933 0.8462 0.44753 0.0
H1442 H 0.84798 0.88053 0.44039 0.0
H1443 H 0.84385 0.90262 0.41577 0.0
H1444 H 0.83707 0.84458 0.43292 0.0
H1445 H 0.8056 0.85338 0.52121 0.0
H1446 H 0.79122 0.84593 0.49345 0.0
H1447 H 0.81109 0.86848 0.49422 0.0
C1448 C 0.7988 0.87136 0.42683 0.0
C1449 C 0.81406 0.88754 0.41777 0.0
C1450 C 0.80125 0.85855 0.44075 0.0
C1451 C 0.81899 0.86184 0.44612 0.0
C1452 C 0.83416 0.87771 0.4365 0.0
H1453 H 0.88447 0.84269 0.54412 0.0
H1454 H 0.86952 0.8505 0.51051 0.0
C1455 C 0.83175 0.89038 0.42245 0.0
C1456 C 0.82216 0.84933 0.46245 0.0
H1457 H 0.81937 0.83519 0.52407 0.0
C1458 C 0.83292 0.84226 0.45274 0.0
C1459 C 0.81671 0.84628 0.48833 0.0
C1460 C 0.80563 0.85399 0.50008 0.0
C1461 C 0.83919 0.8331 0.46853 0.0
C1462 C 0.83453 0.83092 0.49458 0.0
C1463 C 0.82281 0.83688 0.50399 0.0
C1464 C 0.84376 0.82499 0.513 0.0
C1465 C 0.85143 0.82651 0.45758 0.0
C1466 C 0.8342 0.80798 0.52532 0.0
C1467 C 0.84279 0.80336 0.54442 0.0
C1468 C 0.86091 0.81589 0.55177 0.0
C1469 C 0.87049 0.83277 0.53897 0.0
C1470 C 0.86201 0.83723 0.5197 0.0
H1471 H 0.85055 0.8256 0.43649 0.0
H1472 H 0.86587 0.83627 0.46292 0.0
H1473 H 0.84777 0.81286 0.46547 0.0
H1474 H 0.82003 0.79845 0.52047 0.0
H1475 H 0.83502 0.79031 0.55408 0.0
H1476 H 0.09963 0.94206 0.40561 0.0
H1477 H 0.11935 0.96823 0.43228 0.0
H1478 H 0.14884 0.94122 0.45652 0.0
H1479 H 0.12888 0.91466 0.43015 0.0
H1480 H 0.13731 0.95309 0.49619 0.0
H1481 H 0.17178 0.00962 0.42691 0.0
H1482 H 0.1474 0.99746 0.42241 0.0
H1483 H 0.16018 0.98579 0.41751 0.0
C1484 C 0.11044 0.94171 0.4163 0.0
C1485 C 0.11255 0.92614 0.41583 0.0
C1486 C 0.12186 0.95682 0.43137 0.0
C1487 C 0.13577 0.95682 0.44608 0.0
C1488 C 0.13828 0.94156 0.44514 0.0
H1489 H 0.20227 0.05144 0.54661 0.0
H1490 H 0.19446 0.0281 0.51353 0.0
C1491 C 0.12683 0.92638 0.43007 0.0
C1492 C 0.14616 0.97185 0.46451 0.0
H1493 H 0.16971 0.01852 0.4702 0.0
C1494 C 0.14471 0.96737 0.49045 0.0
C1495 C 0.15603 0.99049 0.45703 0.0
C1496 C 0.15912 0.99611 0.42941 0.0
C1497 C 0.15184 0.98105 0.50917 0.0
C1498 C 0.16037 -0.00033 0.50175 0.0
C1499 C 0.16291 0.00421 0.47581 0.0
C1500 C 0.16527 0.01438 0.5207 0.0
C1501 C 0.14973 0.97546 0.53681 0.0
C1502 C 0.15139 0.01463 0.53508 0.0
C1503 C 0.15574 0.02788 0.55384 0.0
C1504 C 0.17411 0.04125 0.5586 0.0
C1505 C 0.18799 0.04133 0.54353 0.0
C1506 C 0.18358 0.02802 0.52464 0.0
H1507 H 0.14788 0.96152 0.53911 0.0
H1508 H 0.16184 0.98531 0.5481 0.0
H1509 H 0.13742 0.97527 0.54473 0.0
H1510 H 0.13714 0.00441 0.53196 0.0
H1511 H 0.14464 0.02739 0.56488 0.0
H1512 H 0.87547 0.02913 0.05101 0.0
H1513 H 0.85844 0.0063 0.01847 0.0
H1514 H 0.8187 0.0243 0.015 0.0
H1515 H 0.83584 0.04753 0.04759 0.0
H1516 H 0.82118 0.97803 0.02383 0.0
H1517 H 0.83242 0.02245 0.9393 0.0
H1518 H 0.84687 0.03082 0.96715 0.0
H1519 H 0.82401 0.02722 0.96814 0.0
C1520 C 0.86323 0.02844 0.04322 0.0
C1521 C 0.85703 0.04018 0.05199 0.0
C1522 C 0.85348 0.01534 0.02464 0.0
C1523 C 0.83735 0.01365 0.01436 0.0
C1524 C 0.83125 0.02554 0.02254 0.0
H1525 H 0.78053 0.91179 0.92415 0.0
H1526 H 0.78212 0.93634 0.95107 0.0
C1527 C 0.84106 0.03878 0.04117 0.0
C1528 C 0.8268 0.99882 0.99584 0.0
H1529 H 0.81805 0.9907 0.93235 0.0
C1530 C 0.82012 0.98069 0.00388 0.0
C1531 C 0.82544 0.00247 0.96994 0.0
C1532 C 0.8326 0.02177 0.96041 0.0
C1533 C 0.81334 0.96618 0.98642 0.0
C1534 C 0.81286 0.96991 0.96024 0.0
C1535 C 0.81835 0.9879 0.95245 0.0
C1536 C 0.81002 0.95614 0.94059 0.0
C1537 C 0.80814 0.94726 0.99594 0.0
C1538 C 0.82475 0.95951 0.9247 0.0
C1539 C 0.82385 0.94567 0.90921 0.0
C1540 C 0.80819 0.92808 0.90933 0.0
C1541 C 0.79289 0.9251 0.92385 0.0
C1542 C 0.79379 0.93908 0.93931 0.0
H1543 H 0.81195 0.94736 0.01621 0.0
H1544 H 0.79309 0.93813 0.99421 0.0
H1545 H 0.81494 0.94132 0.98439 0.0
H1546 H 0.83739 0.97259 0.92529 0.0
H1547 H 0.8358 0.9486 0.89797 0.0
H1548 H 0.94822 0.79068 0.04665 0.0
H1549 H 0.97071 0.79605 0.01307 0.0
H1550 H 0.99736 0.8542 0.02727 0.0
H1551 H 0.97528 0.84916 0.06047 0.0
H1552 H 0.98086 0.82014 0.96778 0.0
H1553 H 0.03835 0.84039 0.03518 0.0
H1554 H 0.01458 0.8273 0.04478 0.0
H1555 H 0.02556 0.85181 0.04135 0.0
C1556 C 0.9588 0.80462 0.04249 0.0
C1557 C 0.95999 0.81946 0.05645 0.0
C1558 C 0.97163 0.80763 0.02335 0.0
C1559 C 0.98585 0.82548 0.01812 0.0
C1560 C 0.98667 0.84029 0.0314 0.0
H1561 H 0.05468 0.89239 0.90524 0.0
H1562 H 0.02908 0.87044 0.93088 0.0
C1563 C 0.97394 0.83734 0.05034 0.0
C1564 C 8e-05 0.82913 -0.00112 0.0
H1565 H 0.04657 0.8519 0.99233 0.0
C1566 C 0.99522 0.82668 0.97306 0.0
C1567 C 0.01875 0.83727 0.00583 0.0
C1568 C 0.02464 0.83918 0.03332 0.0
C1569 C 0.00872 0.83365 0.95399 0.0
C1570 C 0.02746 0.84357 0.96106 0.0
C1571 C 0.03223 0.84452 0.98684 0.0
C1572 C 0.04214 0.85509 0.94271 0.0
C1573 C 0.00277 0.83084 0.9265 0.0
C1574 C 0.0582 0.85397 0.94098 0.0
C1575 C 0.07311 0.86676 0.92653 0.0
C1576 C 0.07226 0.88101 0.91372 0.0
C1577 C 0.0559 0.88167 0.91485 0.0
C1578 C 0.04108 0.86894 0.92929 0.0
H1579 H 0.98965 0.81776 0.92399 0.0
H1580 H 0.00044 0.84214 0.92041 0.0
H1581 H 0.0133 0.83073 0.9139 0.0
H1582 H 0.05938 0.8435 0.9514 0.0
H1583 H 0.08546 0.8658 0.92606 0.0
H1584 H 0.10327 0.15932 0.90446 0.0
H1585 H 0.12273 0.15302 0.93197 0.0
H1586 H 0.14862 0.20834 0.96079 0.0
H1587 H 0.12888 0.21479 0.93356 0.0
H1588 H 0.16088 0.169 0.93814 0.0
H1589 H 0.1268 0.17644 0.02454 0.0
H1590 H 0.11781 0.17508 0.99296 0.0
H1591 H 0.1374 0.19594 0.00367 0.0
C1592 C 0.11316 0.17026 0.91648 0.0
C1593 C 0.11427 0.1875 0.91708 0.0
C1594 C 0.12436 0.16663 0.9321 0.0
C1595 C 0.13691 0.18012 0.94867 0.0
C1596 C 0.13879 0.19765 0.94841 0.0
H1597 H 0.20521 0.15416 0.04912 0.0
H1598 H 0.19678 0.16966 0.01682 0.0
C1599 C 0.12754 0.20132 0.93277 0.0
C1600 C 0.14685 0.17515 0.96738 0.0
H1601 H 0.14818 0.16671 0.03066 0.0
C1602 C 0.15836 0.16874 0.95842 0.0
C1603 C 0.14334 0.17467 0.99379 0.0
C1604 C 0.13058 0.18076 0.00443 0.0
C1605 C 0.16597 0.1613 0.97513 0.0
C1606 C 0.16207 0.16043 0.00141 0.0
C1607 C 0.15114 0.16747 0.01045 0.0
C1608 C 0.16762 0.1507 0.01965 0.0
C1609 C 0.17736 0.1536 0.96447 0.0
C1610 C 0.15402 0.13493 0.03183 0.0
C1611 C 0.15873 0.1261 0.05026 0.0
C1612 C 0.17719 0.13289 0.05701 0.0
C1613 C 0.19087 0.1485 0.04432 0.0
C1614 C 0.1861 0.15737 0.02582 0.0
H1615 H 0.17681 0.15287 0.94335 0.0
H1616 H 0.19186 0.16246 0.97029 0.0
H1617 H 0.17259 0.13964 0.97216 0.0
H1618 H 0.13967 0.12957 0.02729 0.0
H1619 H 0.1478 0.11412 0.05953 0.0
H1620 H 0.94345 0.83514 0.58563 0.0
H1621 H 0.96853 0.83864 0.55889 0.0
H1622 H 0.93648 0.78216 0.53532 0.0
H1623 H 0.91088 0.77854 0.56178 0.0
H1624 H 0.98915 0.82115 0.55567 0.0
H1625 H 0.94731 0.81061 0.46839 0.0
H1626 H 0.94006 0.81383 0.4993 0.0
H1627 H 0.93835 0.7923 0.49129 0.0
C1628 C 0.94166 0.82336 0.57493 0.0
C1629 C 0.92496 0.80663 0.57552 0.0
C1630 C 0.95612 0.82538 0.55977 0.0
C1631 C 0.95428 0.81076 0.54485 0.0
C1632 C 0.93805 0.79371 0.54639 0.0
H1633 H 0.04926 0.83745 0.44442 0.0
H1634 H 0.02536 0.82064 0.47639 0.0
C1635 C 0.92347 0.79166 0.56158 0.0
C1636 C 0.96889 0.8142 0.52629 0.0
H1637 H 0.97851 0.82099 0.46281 0.0
C1638 C 0.98682 0.82076 0.53531 0.0
C1639 C 0.96576 0.81378 0.49977 0.0
C1640 C 0.94689 0.80737 0.48897 0.0
C1641 C 0.00184 0.82789 0.51859 0.0
C1642 C 0.99875 0.82824 0.49223 0.0
C1643 C 0.98075 0.82065 0.48309 0.0
C1644 C 0.01394 0.8386 0.47412 0.0
C1645 C 0.02098 0.83608 0.52928 0.0
C1646 C 0.01544 0.85426 0.46245 0.0
C1647 C 0.02894 0.86381 0.44427 0.0
C1648 C 0.04128 0.85791 0.43726 0.0
C1649 C 0.04005 0.84243 0.44946 0.0
C1650 C 0.02643 0.83281 0.46773 0.0
H1651 H 0.02112 0.83647 0.55041 0.0
H1652 H 0.02718 0.82781 0.52297 0.0
H1653 H 0.02972 0.85025 0.52198 0.0
H1654 H 0.00596 0.85897 0.46723 0.0
H1655 H 0.02946 0.87568 0.4354 0.0
H1656 H 0.10785 0.1485 0.43895 0.0
H1657 H 0.12175 0.13994 0.47296 0.0
H1658 H 0.16588 0.19588 0.47857 0.0
H1659 H 0.15204 0.20476 0.44441 0.0
H1660 H 0.15879 0.14595 0.46817 0.0
H1661 H 0.14866 0.17869 0.55406 0.0
H1662 H 0.13456 0.17367 0.52596 0.0
H1663 H 0.1577 0.19242 0.52576 0.0
C1664 C 0.12036 0.15912 0.44758 0.0
C1665 C 0.12886 0.17734 0.43878 0.0
C1666 C 0.12829 0.15416 0.46703 0.0
C1667 C 0.14479 0.16728 0.47824 0.0
C1668 C 0.15302 0.1856 0.47028 0.0
H1669 H 0.20776 0.12791 0.5646 0.0
H1670 H 0.20121 0.14761 0.5375 0.0
C1671 C 0.1451 0.19062 0.45072 0.0
C1672 C 0.1539 0.16126 0.4968 0.0
H1673 H 0.1632 0.16123 0.56003 0.0
C1674 C 0.15998 0.14945 0.48822 0.0
C1675 C 0.15533 0.16587 0.52287 0.0
C1676 C 0.14866 0.17828 0.53292 0.0
C1677 C 0.16694 0.14158 0.50517 0.0
C1678 C 0.16808 0.14589 0.53137 0.0
C1679 C 0.16246 0.15812 0.53989 0.0
C1680 C 0.17318 0.13623 0.55034 0.0
C1681 C 0.17216 0.12802 0.49508 0.0
C1682 C 0.15984 0.12391 0.56726 0.0
C1683 C 0.16351 0.11268 0.58277 0.0
C1684 C 0.18065 0.11358 0.58169 0.0
C1685 C 0.19437 0.12673 0.56576 0.0
C1686 C 0.19065 0.13798 0.55022 0.0
H1687 H 0.16742 0.12382 0.4752 0.0
H1688 H 0.18731 0.13435 0.49539 0.0
H1689 H 0.16628 0.11555 0.5072 0.0
H1690 H 0.14628 0.1224 0.56766 0.0
H1691 H 0.15268 0.10289 0.59501 0.0
H1692 H 0.87303 0.08986 0.56548 0.0
H1693 H 0.85045 0.06274 0.54207 0.0
H1694 H 0.88071 0.03527 0.55977 0.0
H1695 H 0.90303 0.06195 0.58343 0.0
H1696 H 0.85751 0.04864 0.50022 0.0
H1697 H 0.8289 0.99517 0.57453 0.0
H1698 H 0.84166 0.01934 0.58206 0.0
H1699 H 0.85348 0.00698 0.57494 0.0
C1700 C 0.87474 0.07795 0.5647 0.0
C1701 C 0.88993 0.07816 0.57629 0.0
C1702 C 0.86179 0.06245 0.55137 0.0
C1703 C 0.86369 0.04685 0.54959 0.0
C1704 C 0.87865 0.04693 0.56148 0.0
H1705 H 0.85029 0.97076 0.44132 0.0
H1706 H 0.85748 0.99386 0.47397 0.0
C1707 C 0.89156 0.06235 0.57478 0.0
C1708 C 0.85137 0.0312 0.53309 0.0
H1709 H 0.82786 0.98437 0.53109 0.0
C1710 C 0.85059 0.03462 0.50711 0.0
C1711 C 0.84218 0.01289 0.54208 0.0
C1712 C 0.84143 0.0084 0.57 0.0
C1713 C 0.84216 0.02017 0.48962 0.0
C1714 C 0.83444 0.00193 0.49836 0.0
C1715 C 0.83395 0.99843 0.5245 0.0
C1716 C 0.82933 0.98675 0.48024 0.0
C1717 C 0.84245 0.02445 0.46169 0.0
C1718 C 0.811 0.97484 0.47348 0.0
C1719 C 0.80675 0.96151 0.45465 0.0
C1720 C 0.82082 0.95997 0.44242 0.0
C1721 C 0.83909 0.97158 0.45012 0.0
C1722 C 0.84327 0.98481 0.46881 0.0
H1723 H 0.8457 0.03881 0.45848 0.0
H1724 H 0.85305 0.02246 0.45199 0.0
H1725 H 0.82901 0.01498 0.45276 0.0
H1726 H 0.80009 0.97621 0.48222 0.0
H1727 H 0.79255 0.95282 0.44917 0.0
H1728 H 0.83649 0.2902 0.2739 0.0
H1729 H 0.85358 0.31337 0.3068 0.0
H1730 H 0.80525 0.31679 0.32355 0.0
H1731 H 0.78829 0.29408 0.29059 0.0
H1732 H 0.85408 0.35103 0.30443 0.0
H1733 H 0.82895 0.31181 0.39449 0.0
H1734 H 0.83019 0.30148 0.3649 0.0
H1735 H 0.81182 0.3061 0.37025 0.0
C1736 C 0.82945 0.29565 0.28499 0.0
C1737 C 0.81109 0.2904 0.27971 0.0
C1738 C 0.83923 0.30887 0.30366 0.0
C1739 C 0.83058 0.31661 0.3176 0.0
C1740 C 0.81206 0.3108 0.31308 0.0
H1741 H 0.8251 0.39075 0.40855 0.0
H1742 H 0.82456 0.36563 0.38534 0.0
C1743 C 0.80242 0.2979 0.29422 0.0
C1744 C 0.84095 0.33206 0.3352 0.0
H1745 H 0.84009 0.34417 0.39679 0.0
C1746 C 0.85161 0.34963 0.32479 0.0
C1747 C 0.83761 0.33001 0.36162 0.0
C1748 C 0.82663 0.31132 0.37361 0.0
C1749 C 0.85747 0.36538 0.33982 0.0
C1750 C 0.85278 0.36333 0.36596 0.0
C1751 C 0.84361 0.3457 0.37674 0.0
C1752 C 0.85402 0.37873 0.38113 0.0
C1753 C 0.86714 0.38397 0.3272 0.0
C1754 C 0.87084 0.39452 0.38659 0.0
C1755 C 0.87122 0.40918 0.39979 0.0
C1756 C 0.85478 0.40816 0.40785 0.0
C1757 C 0.83805 0.39213 0.40266 0.0
C1758 C 0.8377 0.37765 0.38946 0.0
H1759 H 0.86779 0.38296 0.30618 0.0
H1760 H 0.86005 0.39175 0.33171 0.0
H1761 H 0.88137 0.39191 0.33454 0.0
H1762 H 0.88361 0.39551 0.38061 0.0
H1763 H 0.88435 0.42126 0.40367 0.0
H1764 H 0.60741 0.4436 0.42443 0.0
H1765 H 0.63227 0.46483 0.39714 0.0
H1766 H 0.59809 0.48521 0.36743 0.0
H1767 H 0.57274 0.46355 0.3945 0.0
H1768 H 0.61308 0.47527 0.33011 0.0
H1769 H 0.66783 0.51911 0.3975 0.0
H1770 H 0.65898 0.49539 0.40501 0.0
H1771 H 0.6442 0.50511 0.40726 0.0
C1772 C 0.60516 0.45275 0.41241 0.0
C1773 C 0.58796 0.45172 0.41153 0.0
C1774 C 0.61954 0.46508 0.397 0.0
C1775 C 0.61718 0.47684 0.38053 0.0
C1776 C 0.60025 0.47636 0.38019 0.0
H1777 H 0.71103 0.54425 0.27925 0.0
H1778 H 0.68672 0.53642 0.31075 0.0
C1779 C 0.58579 0.46397 0.39567 0.0
C1780 C 0.63165 0.48779 0.36161 0.0
H1781 H 0.67803 0.51521 0.35565 0.0
C1782 C 0.62722 0.48435 0.3357 0.0
C1783 C 0.65006 0.49987 0.36881 0.0
C1784 C 0.65549 0.50524 0.39618 0.0
C1785 C 0.64088 0.49152 0.31694 0.0
C1786 C 0.65947 0.50213 0.32435 0.0
C1787 C 0.66379 0.50677 0.35006 0.0
C1788 C 0.67455 0.5071 0.30594 0.0
C1789 C 0.63533 0.48723 0.28938 0.0
C1790 C 0.67604 0.49321 0.29342 0.0
C1791 C 0.68985 0.49758 0.27554 0.0
C1792 C 0.7026 0.51599 0.26987 0.0
C1793 C 0.70143 0.52993 0.28308 0.0
C1794 C 0.68754 0.5255 0.30105 0.0
H1795 H 0.62104 0.48427 0.28631 0.0
H1796 H 0.64465 0.49876 0.27679 0.0
H1797 H 0.63597 0.47487 0.28369 0.0
H1798 H 0.66641 0.47891 0.29739 0.0
H1799 H 0.69034 0.48645 0.26593 0.0
H1800 H 0.56024 0.17431 0.42737 0.0
H1801 H 0.5388 0.17789 0.4004 0.0
H1802 H 0.51369 0.12112 0.37794 0.0
H1803 H 0.53549 0.11744 0.40458 0.0
H1804 H 0.52316 0.14321 0.33766 0.0
H1805 H 0.48549 0.16309 0.40418 0.0
H1806 H 0.50971 0.17711 0.40913 0.0
H1807 H 0.49866 0.15276 0.41488 0.0
C1808 C 0.55001 0.16245 0.41705 0.0
C1809 C 0.54973 0.14562 0.41801 0.0
C1810 C 0.53757 0.16449 0.40183 0.0
C1811 C 0.52442 0.1497 0.38747 0.0
C1812 C 0.52364 0.13267 0.38905 0.0
H1813 H 0.4582 0.17615 0.28339 0.0
H1814 H 0.46507 0.16003 0.3167 0.0
C1815 C 0.53613 0.13062 0.40426 0.0
C1816 C 0.51327 0.15286 0.36846 0.0
H1817 H 0.48834 0.17437 0.36057 0.0
C1818 C 0.51516 0.14961 0.34275 0.0
C1819 C 0.50258 0.16094 0.37504 0.0
C1820 C 0.49883 0.16348 0.40236 0.0
C1821 C 0.50791 0.15554 0.32339 0.0
C1822 C 0.49883 0.16526 0.32993 0.0
C1823 C 0.49561 0.1672 0.35562 0.0
C1824 C 0.49438 0.17511 0.31042 0.0
C1825 C 0.51061 0.15194 0.29604 0.0
C1826 C 0.50863 0.1892 0.29645 0.0
C1827 C 0.50482 0.19843 0.27758 0.0
C1828 C 0.48662 0.19384 0.27231 0.0
C1829 C 0.47236 0.18001 0.28688 0.0
C1830 C 0.47623 0.17077 0.30588 0.0
H1831 H 0.51239 0.13977 0.29438 0.0
H1832 H 0.49882 0.14974 0.28404 0.0
H1833 H 0.52318 0.16396 0.28848 0.0
H1834 H 0.52277 0.19302 0.30008 0.0
H1835 H 0.5162 0.20905 0.26694 0.0
H1836 H 0.6288 0.44593 0.88565 0.0
H1837 H 0.65173 0.46303 0.85323 0.0
H1838 H 0.6335 0.50254 0.84927 0.0
H1839 H 0.61031 0.48549 0.88197 0.0
H1840 H 0.64154 0.48952 0.79958 0.0
H1841 H 0.69735 0.51502 0.87119 0.0
H1842 H 0.68161 0.49076 0.87295 0.0
H1843 H 0.67363 0.50654 0.87962 0.0
C1844 C 0.62944 0.45813 0.87779 0.0
C1845 C 0.61778 0.46441 0.88667 0.0
C1846 C 0.64261 0.46791 0.85929 0.0
C1847 C 0.64445 0.48416 0.84926 0.0
C1848 C 0.63231 0.49006 0.85699 0.0
H1849 H 0.74779 0.54547 0.76579 0.0
H1850 H 0.72145 0.54128 0.79091 0.0
C1851 C 0.61907 0.48028 0.87563 0.0
C1852 C 0.65963 0.49512 0.8315 0.0
H1853 H 0.70618 0.51595 0.82764 0.0
C1854 C 0.65571 0.49567 0.80569 0.0
C1855 C 0.67806 0.50347 0.83967 0.0
C1856 C 0.68298 0.50412 0.86742 0.0
C1857 C 0.66982 0.50312 0.7875 0.0
C1858 C 0.68817 0.50986 0.79543 0.0
C1859 C 0.69212 0.51065 0.8215 0.0
C1860 C 0.70311 0.51381 0.77719 0.0
C1861 C 0.66489 0.50318 0.75992 0.0
C1862 C 0.70148 0.49984 0.76098 0.0
C1863 C 0.71644 0.50215 0.74671 0.0
C1864 C 0.73347 0.51844 0.74851 0.0
C1865 C 0.7349 0.53274 0.76398 0.0
C1866 C 0.71986 0.53039 0.77831 0.0
H1867 H 0.65237 0.50436 0.7581 0.0
H1868 H 0.67625 0.51463 0.7493 0.0
H1869 H 0.66193 0.49004 0.75098 0.0
H1870 H 0.68887 0.48675 0.76027 0.0
H1871 H 0.71477 0.49087 0.7349 0.0
H1872 H 0.49882 0.21888 0.73108 0.0
H1873 H 0.50144 0.1968 0.75779 0.0
H1874 H 0.44793 0.1793 0.78949 0.0
H1875 H 0.44529 0.20184 0.76294 0.0
H1876 H 0.47346 0.18888 0.82576 0.0
H1877 H 0.48073 0.14224 0.75949 0.0
H1878 H 0.49609 0.16557 0.75055 0.0
H1879 H 0.47167 0.1567 0.74955 0.0
C1880 C 0.48741 0.21016 0.74338 0.0
C1881 C 0.47191 0.2123 0.74507 0.0
C1882 C 0.48885 0.19731 0.75843 0.0
C1883 C 0.47477 0.18616 0.77537 0.0
C1884 C 0.45888 0.18765 0.77634 0.0
H1885 H 0.50377 0.12242 0.88063 0.0
H1886 H 0.48592 0.12835 0.84898 0.0
C1887 C 0.4574 0.20054 0.76117 0.0
C1888 C 0.4781 0.17517 0.79443 0.0
H1889 H 0.49674 0.14745 0.80039 0.0
C1890 C 0.47805 0.17942 0.82024 0.0
C1891 C 0.48387 0.16261 0.78737 0.0
C1892 C 0.48289 0.15638 0.76022 0.0
C1893 C 0.48513 0.17274 0.83886 0.0
C1894 C 0.4927 0.16179 0.8314 0.0
C1895 C 0.49126 0.15617 0.80597 0.0
C1896 C 0.50381 0.15778 0.84926 0.0
C1897 C 0.48518 0.17812 0.86627 0.0
C1898 C 0.52006 0.17231 0.85913 0.0
C1899 C 0.5303 0.16902 0.87702 0.0
C1900 C 0.52453 0.15107 0.88541 0.0
C1901 C 0.5086 0.13641 0.87466 0.0
C1902 C 0.49835 0.13975 0.85663 0.0
H1903 H 0.47423 0.18154 0.86992 0.0
H1904 H 0.48325 0.16695 0.8794 0.0
H1905 H 0.49856 0.19046 0.87066 0.0
H1906 H 0.5247 0.18629 0.85324 0.0
H1907 H 0.54253 0.18066 0.88467 0.0
H1908 H 0.81633 0.358 0.90435 0.0
H1909 H 0.80969 0.33491 0.872 0.0
H1910 H 0.86707 0.36089 0.85275 0.0
H1911 H 0.87403 0.38439 0.88537 0.0
H1912 H 0.84189 0.35008 0.80983 0.0
H1913 H 0.82266 0.29357 0.87861 0.0
H1914 H 0.81148 0.30655 0.88509 0.0
H1915 H 0.83605 0.31746 0.8875 0.0
C1916 C 0.82763 0.35897 0.89328 0.0
C1917 C 0.84577 0.37306 0.89766 0.0
C1918 C 0.82378 0.34564 0.87486 0.0
C1919 C 0.83793 0.346 0.86041 0.0
C1920 C 0.856 0.36031 0.86397 0.0
H1921 H 0.79614 0.24541 0.76957 0.0
H1922 H 0.81837 0.27162 0.79484 0.0
C1923 C 0.85992 0.37372 0.88256 0.0
C1924 C 0.83341 0.33134 0.84149 0.0
H1925 H 0.81017 0.28475 0.83629 0.0
C1926 C 0.83533 0.33579 0.81553 0.0
C1927 C 0.82523 0.31276 0.84897 0.0
C1928 C 0.8239 0.30728 0.87658 0.0
C1929 C 0.82787 0.32201 0.79689 0.0
C1930 C 0.81802 0.3034 0.80454 0.0
C1931 C 0.81751 0.29901 0.8304 0.0
C1932 C 0.80626 0.28847 0.78667 0.0
C1933 C 0.83014 0.32754 0.76924 0.0
C1934 C 0.79211 0.28926 0.77369 0.0
C1935 C 0.77942 0.27437 0.75934 0.0
C1936 C 0.78045 0.25822 0.75782 0.0
C1937 C 0.79492 0.2576 0.77033 0.0
C1938 C 0.80766 0.27258 0.78474 0.0
H1939 H 0.84308 0.3407 0.76614 0.0
H1940 H 0.83017 0.31687 0.75684 0.0
H1941 H 0.81862 0.32958 0.76339 0.0
H1942 H 0.79042 0.30114 0.77546 0.0
H1943 H 0.76852 0.2754 0.74995 0.0
H1944 H 0.54902 0.37347 0.38282 0.0
H1945 H 0.5347 0.35065 0.34912 0.0
H1946 H 0.48581 0.35479 0.35444 0.0
H1947 H 0.50013 0.37793 0.38811 0.0
H1948 H 0.48472 0.31651 0.35965 0.0
H1949 H 0.5179 0.35805 0.27317 0.0
H1950 H 0.53229 0.36253 0.30069 0.0
H1951 H 0.51407 0.36772 0.30168 0.0
C1952 C 0.53531 0.36972 0.37666 0.0
C1953 C 0.5257 0.3775 0.38816 0.0
C1954 C 0.52718 0.35674 0.35736 0.0
C1955 C 0.50929 0.35118 0.34933 0.0
C1956 C 0.4997 0.35906 0.36036 0.0
H1957 H 0.45075 0.25019 0.25687 0.0
H1958 H 0.45531 0.27669 0.282 0.0
C1959 C 0.50793 0.37228 0.37951 0.0
C1960 C 0.50041 0.33618 0.33065 0.0
H1961 H 0.5037 0.32565 0.26898 0.0
C1962 C 0.48847 0.31844 0.33967 0.0
C1963 C 0.50548 0.33891 0.30476 0.0
C1964 C 0.51805 0.35784 0.29431 0.0
C1965 C 0.48243 0.3031 0.32373 0.0
C1966 C 0.48821 0.30574 0.29799 0.0
C1967 C 0.49928 0.32365 0.2887 0.0
C1968 C 0.48496 0.29019 0.28137 0.0
C1969 C 0.47102 0.2842 0.33502 0.0
C1970 C 0.50008 0.2893 0.27198 0.0
C1971 C 0.49755 0.27439 0.25743 0.0
C1972 C 0.4798 0.25991 0.252 0.0
C1973 C 0.46461 0.261 0.26094 0.0
C1974 C 0.46718 0.27609 0.27538 0.0
H1975 H 0.47074 0.28453 0.35616 0.0
H1976 H 0.4567 0.2781 0.32808 0.0
H1977 H 0.47636 0.27509 0.32912 0.0
H1978 H 0.51393 0.30002 0.27637 0.0
H1979 H 0.5096 0.27409 0.25087 0.0
H1980 H 0.75195 0.2052 0.26782 0.0
H1981 H 0.72498 0.18466 0.2931 0.0
H1982 H 0.69882 0.21538 0.27094 0.0
H1983 H 0.72543 0.23574 0.24538 0.0
H1984 H 0.71281 0.19549 0.33359 0.0
H1985 H 0.65721 0.16309 0.26246 0.0
H1986 H 0.68118 0.17469 0.25375 0.0
H1987 H 0.6697 0.18758 0.25926 0.0
C1988 C 0.74034 0.20742 0.26796 0.0
C1989 C 0.74095 0.22222 0.25464 0.0
C1990 C 0.72493 0.19563 0.2824 0.0
C1991 C 0.70978 0.19832 0.2836 0.0
C1992 C 0.71015 0.21276 0.2698 0.0
H1993 H 0.63712 0.18671 0.40053 0.0
H1994 H 0.66029 0.19489 0.36767 0.0
C1995 C 0.72551 0.22453 0.25538 0.0
C1996 C 0.69449 0.18748 0.30145 0.0
H1997 H 0.64775 0.1638 0.30586 0.0
C1998 C 0.69861 0.18824 0.32746 0.0
C1999 C 0.67596 0.17784 0.29344 0.0
C2000 C 0.67075 0.17557 0.26566 0.0
C2001 C 0.68466 0.18064 0.34577 0.0
C2002 C 0.66617 0.17228 0.33787 0.0
C2003 C 0.66198 0.17045 0.31182 0.0
C2004 C 0.65123 0.16692 0.35655 0.0
C2005 C 0.68982 0.18212 0.37353 0.0
C2006 C 0.63809 0.14845 0.36058 0.0
C2007 C 0.62471 0.14364 0.37947 0.0
C2008 C 0.62423 0.15727 0.39444 0.0
C2009 C 0.63707 0.17579 0.38954 0.0
C2010 C 0.6504 0.18054 0.37081 0.0
H2011 H 0.70391 0.18438 0.37607 0.0
H2012 H 0.68938 0.19394 0.38209 0.0
H2013 H 0.68004 0.16956 0.38408 0.0
H2014 H 0.63849 0.13778 0.34957 0.0
H2015 H 0.61501 0.12925 0.38267 0.0
H2016 H 0.86979 0.49312 0.3817 0.0
H2017 H 0.86243 0.51061 0.35126 0.0
H2018 H 0.805 0.47036 0.35725 0.0
H2019 H 0.81204 0.45287 0.38749 0.0
H2020 H 0.84216 0.49941 0.3033 0.0
H2021 H 0.80857 0.5201 0.37628 0.0
H2022 H 0.82394 0.5117 0.38428 0.0
H2023 H 0.80041 0.4959 0.37627 0.0
C2024 C 0.85561 0.48789 0.37635 0.0
C2025 C 0.8415 0.47164 0.38727 0.0
C2026 C 0.85145 0.49793 0.35901 0.0
C2027 C 0.83316 0.49194 0.3525 0.0
C2028 C 0.81918 0.47539 0.36248 0.0
H2029 H 0.77018 0.4995 0.23728 0.0
H2030 H 0.79134 0.49519 0.26381 0.0
C2031 C 0.82328 0.46535 0.37969 0.0
C2032 C 0.82833 0.50287 0.33546 0.0
H2033 H 0.80076 0.52174 0.33271 0.0
C2034 C 0.83342 0.50465 0.30976 0.0
C2035 C 0.81729 0.51006 0.34407 0.0
C2036 C 0.81237 0.50953 0.3718 0.0
C2037 C 0.82651 0.51216 0.29204 0.0
C2038 C 0.81404 0.51774 0.30029 0.0
C2039 C 0.81017 0.5173 0.32633 0.0
C2040 C 0.803 0.52171 0.28213 0.0
C2041 C 0.83221 0.51354 0.26455 0.0
C2042 C 0.80233 0.53802 0.28377 0.0
C2043 C 0.79001 0.5405 0.26867 0.0
C2044 C 0.77801 0.52657 0.25198 0.0
C2045 C 0.77913 0.51049 0.25 0.0
C2046 C 0.79142 0.50808 0.26495 0.0
H2047 H 0.84615 0.51529 0.26289 0.0
H2048 H 0.82254 0.50066 0.25455 0.0
H2049 H 0.83206 0.52517 0.2548 0.0
H2050 H 0.81103 0.54863 0.29714 0.0
H2051 H 0.7895 0.55303 0.27068 0.0
H2052 H 0.6066 0.17127 0.90987 0.0
H2053 H 0.6323 0.17293 0.88685 0.0
H2054 H 0.60393 0.11397 0.88058 0.0
H2055 H 0.57757 0.11208 0.90345 0.0
H2056 H 0.65457 0.15829 0.89785 0.0
H2057 H 0.61662 0.13096 0.80656 0.0
H2058 H 0.60725 0.13789 0.83231 0.0
H2059 H 0.60784 0.11692 0.83457 0.0
C2060 C 0.60567 0.15855 0.9037 0.0
C2061 C 0.58987 0.14152 0.90837 0.0
C2062 C 0.62049 0.15956 0.8906 0.0
C2063 C 0.62 0.14361 0.88186 0.0
C2064 C 0.60447 0.12647 0.88688 0.0
H2065 H 0.70954 0.16436 0.77485 0.0
H2066 H 0.68619 0.14669 0.80721 0.0
C2067 C 0.58946 0.12543 0.89998 0.0
C2068 C 0.6357 0.14556 0.86671 0.0
H2069 H 0.64863 0.14553 0.80514 0.0
C2070 C 0.65325 0.15506 0.8777 0.0
C2071 C 0.63394 0.14126 0.84045 0.0
C2072 C 0.61545 0.13127 0.8276 0.0
C2073 C 0.66909 0.16171 0.86273 0.0
C2074 C 0.66729 0.1587 0.83622 0.0
C2075 C 0.64985 0.14777 0.82555 0.0
C2076 C 0.68281 0.16945 0.81887 0.0
C2077 C 0.68764 0.17293 0.87501 0.0
C2078 C 0.68861 0.18803 0.815 0.0
C2079 C 0.70165 0.19803 0.79643 0.0
C2080 C 0.70928 0.18966 0.78157 0.0
C2081 C 0.70401 0.1712 0.7862 0.0
C2082 C 0.69067 0.16109 0.80457 0.0
H2083 H 0.68708 0.17031 0.89581 0.0
H2084 H 0.69782 0.1699 0.86618 0.0
H2085 H 0.69247 0.18771 0.87211 0.0
H2086 H 0.68252 0.19463 0.82573 0.0
H2087 H 0.70546 0.21223 0.79332 0.0
H2088 H 0.87573 0.46097 0.90564 0.0
H2089 H 0.86858 0.48057 0.8794 0.0
H2090 H 0.81194 0.44949 0.90256 0.0
H2091 H 0.81892 0.43007 0.92914 0.0
H2092 H 0.84539 0.46853 0.83928 0.0
H2093 H 0.82159 0.50154 0.90858 0.0
H2094 H 0.8343 0.49043 0.91801 0.0
H2095 H 0.80995 0.47712 0.91256 0.0
C2096 C 0.8618 0.45847 0.90552 0.0
C2097 C 0.84788 0.44384 0.91943 0.0
C2098 C 0.85776 0.46972 0.89052 0.0
C2099 C 0.83979 0.46666 0.8893 0.0
C2100 C 0.82599 0.4524 0.90369 0.0
H2101 H 0.77921 0.47709 0.76949 0.0
H2102 H 0.79356 0.46885 0.80322 0.0
C2103 C 0.83 0.44118 0.91871 0.0
C2104 C 0.83495 0.4769 0.87088 0.0
H2105 H 0.81164 0.50026 0.86501 0.0
C2106 C 0.83832 0.47577 0.84498 0.0
C2107 C 0.82589 0.4865 0.87831 0.0
C2108 C 0.82289 0.48915 0.90592 0.0
C2109 C 0.83195 0.48305 0.82622 0.0
C2110 C 0.82175 0.49146 0.83356 0.0
C2111 C 0.81928 0.49358 0.85948 0.0
C2112 C 0.81243 0.49681 0.81442 0.0
C2113 C 0.83577 0.48127 0.79862 0.0
C2114 C 0.81793 0.5153 0.81013 0.0
C2115 C 0.80972 0.52014 0.79075 0.0
C2116 C 0.7958 0.50652 0.77552 0.0
C2117 C 0.78993 0.48798 0.78067 0.0
C2118 C 0.79816 0.48321 0.79991 0.0
H2119 H 0.84758 0.47894 0.79647 0.0
H2120 H 0.82353 0.46938 0.79012 0.0
H2121 H 0.83865 0.49374 0.78773 0.0
H2122 H 0.82888 0.52596 0.82131 0.0
H2123 H 0.81455 0.53454 0.78739 0.0
H2124 H 0.53282 0.41489 0.89778 0.0
H2125 H 0.5109 0.38931 0.87128 0.0
H2126 H 0.53155 0.35538 0.9011 0.0
H2127 H 0.55306 0.3805 0.92781 0.0
H2128 H 0.5216 0.37481 0.83416 0.0
H2129 H 0.47731 0.31935 0.90036 0.0
H2130 H 0.49093 0.34294 0.91049 0.0
H2131 H 0.50097 0.32843 0.90849 0.0
C2132 C 0.53235 0.40183 0.89916 0.0
C2133 C 0.54483 0.39981 0.91473 0.0
C2134 C 0.51982 0.38724 0.88401 0.0
C2135 C 0.51941 0.37035 0.88444 0.0
C2136 C 0.53126 0.36809 0.90088 0.0
H2137 H 0.5134 0.29852 0.77098 0.0
H2138 H 0.51963 0.32131 0.8038 0.0
C2139 C 0.54376 0.38261 0.91593 0.0
C2140 C 0.50875 0.35597 0.86531 0.0
H2141 H 0.48209 0.30955 0.8586 0.0
C2142 C 0.51258 0.36061 0.8395 0.0
C2143 C 0.49681 0.33746 0.87218 0.0
C2144 C 0.49112 0.3318 0.89941 0.0
C2145 C 0.50597 0.34708 0.82058 0.0
C2146 C 0.4955 0.32844 0.82773 0.0
C2147 C 0.49042 0.32386 0.85326 0.0
C2148 C 0.49121 0.31362 0.80919 0.0
C2149 C 0.51081 0.35278 0.79316 0.0
C2150 C 0.47306 0.30128 0.80212 0.0
C2151 C 0.46939 0.28811 0.7833 0.0
C2152 C 0.48383 0.28703 0.77143 0.0
C2153 C 0.50192 0.29897 0.77951 0.0
C2154 C 0.50555 0.31209 0.7982 0.0
H2155 H 0.51415 0.36719 0.79009 0.0
H2156 H 0.52305 0.3518 0.78787 0.0
H2157 H 0.49939 0.3437 0.78026 0.0
H2158 H 0.46182 0.30219 0.8106 0.0
H2159 H 0.45529 0.27911 0.77762 0.0
H2160 H 0.45592 0.64201 0.6005 0.0
H2161 H 0.47244 0.66346 0.63459 0.0
H2162 H 0.50145 0.63461 0.65143 0.0
H2163 H 0.48481 0.61273 0.61705 0.0
H2164 H 0.4872 0.64475 0.69535 0.0
H2165 H 0.52755 0.70321 0.63066 0.0
H2166 H 0.50351 0.6914 0.62327 0.0
H2167 H 0.51632 0.67963 0.62008 0.0
C2168 C 0.46574 0.64007 0.61139 0.0
C2169 C 0.4691 0.62565 0.60583 0.0
C2170 C 0.47526 0.65245 0.63082 0.0
C2171 C 0.4884 0.65081 0.64513 0.0
C2172 C 0.49146 0.63616 0.64036 0.0
H2173 H 0.54823 0.74818 0.74094 0.0
H2174 H 0.54388 0.72216 0.71502 0.0
C2175 C 0.48192 0.62369 0.62075 0.0
C2176 C 0.49867 0.66457 0.66506 0.0
H2177 H 0.52343 0.71085 0.67348 0.0
C2178 C 0.4955 0.65918 0.69067 0.0
C2179 C 0.50983 0.68332 0.65889 0.0
C2180 C 0.51468 0.68974 0.63171 0.0
C2181 C 0.50193 0.67229 0.71027 0.0
C2182 C 0.51144 0.69116 0.70392 0.0
C2183 C 0.51595 0.6964 0.6784 0.0
C2184 C 0.51482 0.70564 0.72275 0.0
C2185 C 0.49801 0.66578 0.73749 0.0
C2186 C 0.49998 0.70494 0.73588 0.0
C2187 C 0.50239 0.71972 0.7507 0.0
C2188 C 0.51969 0.73569 0.75245 0.0
C2189 C 0.5347 0.73614 0.73996 0.0
C2190 C 0.53226 0.72126 0.72518 0.0
H2191 H 0.49741 0.65235 0.73966 0.0
H2192 H 0.50858 0.67582 0.75066 0.0
H2193 H 0.48445 0.66382 0.74312 0.0
H2194 H 0.48629 0.69328 0.73375 0.0
H2195 H 0.4905 0.71883 0.76003 0.0
H2196 H 0.37995 0.87424 0.608 0.0
H2197 H 0.35758 0.86674 0.64253 0.0
H2198 H 0.3541 0.81424 0.65214 0.0
H2199 H 0.37607 0.82142 0.61762 0.0
H2200 H 0.31996 0.83082 0.63951 0.0
H2201 H 0.36098 0.83873 0.72624 0.0
H2202 H 0.37099 0.85143 0.69724 0.0
H2203 H 0.36504 0.82782 0.69956 0.0
C2204 C 0.37466 0.86125 0.61782 0.0
C2205 C 0.3797 0.84838 0.61009 0.0
C2206 C 0.36189 0.857 0.63744 0.0
C2207 C 0.35437 0.84002 0.6499 0.0
C2208 C 0.35993 0.82749 0.64288 0.0
H2209 H 0.2764 0.76246 0.74681 0.0
H2210 H 0.30276 0.78439 0.7222 0.0
C2211 C 0.37241 0.83158 0.62309 0.0
C2212 C 0.33942 0.83434 0.6686 0.0
H2213 H 0.32845 0.82006 0.73005 0.0
C2214 C 0.32177 0.82885 0.65948 0.0
C2215 C 0.34197 0.83177 0.69449 0.0
C2216 C 0.36078 0.83786 0.70513 0.0
C2217 C 0.30632 0.81952 0.67523 0.0
C2218 C 0.30876 0.81606 0.70091 0.0
C2219 C 0.32659 0.82269 0.71037 0.0
C2220 C 0.29305 0.80363 0.71725 0.0
C2221 C 0.28751 0.81227 0.66371 0.0
C2222 C 0.2789 0.80728 0.72303 0.0
C2223 C 0.26357 0.79457 0.73691 0.0
C2224 C 0.2623 0.77814 0.74554 0.0
C2225 C 0.27685 0.77492 0.74045 0.0
C2226 C 0.292 0.7875 0.72643 0.0
H2227 H 0.28799 0.81305 0.64259 0.0
H2228 H 0.27826 0.79778 0.66938 0.0
H2229 H 0.28148 0.82054 0.6707 0.0
H2230 H 0.27962 0.81984 0.71661 0.0
H2231 H 0.25271 0.79758 0.74075 0.0
H2232 H 0.11519 0.49894 0.61464 0.0
H2233 H 0.1214 0.48277 0.64872 0.0
H2234 H 0.1792 0.52189 0.64324 0.0
H2235 H 0.1733 0.53794 0.60943 0.0
H2236 H 0.16891 0.48351 0.64003 0.0
H2237 H 0.13923 0.50003 0.72392 0.0
H2238 H 0.12571 0.49131 0.69536 0.0
H2239 H 0.14557 0.51378 0.69534 0.0
C2240 C 0.12919 0.50422 0.62093 0.0
C2241 C 0.14375 0.51971 0.60919 0.0
C2242 C 0.13269 0.49496 0.64039 0.0
C2243 C 0.15075 0.50117 0.64841 0.0
C2244 C 0.16517 0.51686 0.6372 0.0
H2245 H 0.21809 0.50509 0.76302 0.0
H2246 H 0.19497 0.50557 0.73595 0.0
C2247 C 0.16174 0.52603 0.61786 0.0
C2248 C 0.1552 0.49121 0.66773 0.0
H2249 H 0.15727 0.48649 0.73193 0.0
C2250 C 0.16603 0.48372 0.66012 0.0
C2251 C 0.15136 0.49157 0.69382 0.0
C2252 C 0.13988 0.49963 0.70282 0.0
C2253 C 0.17435 0.47785 0.67803 0.0
C2254 C 0.17138 0.47916 0.70428 0.0
C2255 C 0.15944 0.48543 0.7118 0.0
C2256 C 0.18303 0.47731 0.72386 0.0
C2257 C 0.18741 0.47173 0.6687 0.0
C2258 C 0.18359 0.46102 0.72686 0.0
C2259 C 0.19707 0.46074 0.74218 0.0
C2260 C 0.21009 0.47673 0.75488 0.0
C2261 C 0.20852 0.49258 0.75326 0.0
C2262 C 0.19518 0.49286 0.73789 0.0
H2263 H 0.19025 0.47421 0.64799 0.0
H2264 H 0.20065 0.47903 0.6791 0.0
H2265 H 0.18137 0.45682 0.67221 0.0
H2266 H 0.17408 0.44875 0.71659 0.0
H2267 H 0.19773 0.44824 0.74325 0.0
H2268 H 0.38599 0.82579 0.07375 0.0
H2269 H 0.36046 0.82182 0.09986 0.0
H2270 H 0.39087 0.87879 0.12171 0.0
H2271 H 0.41687 0.88287 0.09595 0.0
H2272 H 0.37846 0.85716 0.16213 0.0
H2273 H 0.32092 0.835 0.095 0.0
H2274 H 0.33166 0.82143 0.09062 0.0
H2275 H 0.34448 0.84575 0.08446 0.0
C2276 C 0.38723 0.83761 0.08373 0.0
C2277 C 0.40361 0.85462 0.08291 0.0
C2278 C 0.37246 0.83535 0.09845 0.0
C2279 C 0.37359 0.85007 0.11242 0.0
C2280 C 0.38964 0.86728 0.11089 0.0
H2281 H 0.28027 0.82085 0.21685 0.0
H2282 H 0.30277 0.83752 0.18317 0.0
C2283 C 0.4045 0.86956 0.09619 0.0
C2284 C 0.35906 0.84666 0.13117 0.0
H2285 H 0.31254 0.82364 0.13871 0.0
C2286 C 0.36407 0.85027 0.15691 0.0
C2287 C 0.34027 0.83793 0.12444 0.0
C2288 C 0.33406 0.83501 0.09707 0.0
C2289 C 0.35078 0.84399 0.17615 0.0
C2290 C 0.33204 0.83359 0.16949 0.0
C2291 C 0.32695 0.83134 0.14376 0.0
C2292 C 0.31788 0.82327 0.18895 0.0
C2293 C 0.35695 0.8479 0.20354 0.0
C2294 C 0.31868 0.80944 0.20272 0.0
C2295 C 0.30593 0.7999 0.22178 0.0
C2296 C 0.29198 0.80392 0.22747 0.0
C2297 C 0.29085 0.81743 0.21304 0.0
C2298 C 0.30368 0.82699 0.19382 0.0
H2299 H 0.37067 0.8604 0.20523 0.0
H2300 H 0.34702 0.84971 0.21533 0.0
H2301 H 0.35796 0.83618 0.21133 0.0
H2302 H 0.32933 0.80611 0.19885 0.0
H2303 H 0.30723 0.78954 0.23229 0.0
H2304 H 0.16537 0.54882 0.05273 0.0
H2305 H 0.17172 0.52796 0.07721 0.0
H2306 H 0.13226 0.52289 0.13377 0.0
H2307 H 0.1252 0.54298 0.10864 0.0
H2308 H 0.18719 0.53633 0.12053 0.0
H2309 H 0.12213 0.47157 0.134 0.0
H2310 H 0.12461 0.48832 0.11052 0.0
H2311 H 0.11935 0.49052 0.14316 0.0
C2312 C 0.15768 0.54282 0.07003 0.0
C2313 C 0.14485 0.54756 0.07887 0.0
C2314 C 0.1613 0.53088 0.084 0.0
C2315 C 0.1524 0.52369 0.1073 0.0
C2316 C 0.13895 0.52778 0.11555 0.0
H2317 H 0.20011 0.51389 0.24231 0.0
H2318 H 0.1875 0.52123 0.20552 0.0
C2319 C 0.13502 0.53941 0.10127 0.0
C2320 C 0.15918 0.51446 0.12468 0.0
H2321 H 0.14535 0.47908 0.1669 0.0
C2322 C 0.17803 0.52358 0.13019 0.0
C2323 C 0.14737 0.49769 0.13716 0.0
C2324 C 0.12728 0.48639 0.13065 0.0
C2325 C 0.1852 0.51703 0.14879 0.0
C2326 C 0.17316 0.50123 0.16288 0.0
C2327 C 0.1545 0.4914 0.15637 0.0
C2328 C 0.17959 0.49581 0.18573 0.0
C2329 C 0.20562 0.52738 0.15357 0.0
C2330 C 0.17864 0.47872 0.18727 0.0
C2331 C 0.18576 0.47434 0.20855 0.0
C2332 C 0.19391 0.48704 0.22854 0.0
C2333 C 0.19422 0.50388 0.22715 0.0
C2334 C 0.18704 0.50814 0.20608 0.0
H2335 H 0.2133 0.53507 0.13638 0.0
H2336 H 0.20874 0.53748 0.16907 0.0
H2337 H 0.21065 0.51798 0.15939 0.0
H2338 H 0.17279 0.46896 0.1718 0.0
H2339 H 0.18522 0.46122 0.20908 0.0
H2340 H 0.48834 0.69259 0.22833 0.0
H2341 H 0.48296 0.66969 0.19625 0.0
H2342 H 0.54118 0.69418 0.18405 0.0
H2343 H 0.54687 0.71753 0.2164 0.0
H2344 H 0.51956 0.68453 0.13842 0.0
H2345 H 0.49281 0.62682 0.20646 0.0
H2346 H 0.48197 0.64035 0.21053 0.0
H2347 H 0.5062 0.65048 0.21638 0.0
C2348 C 0.5001 0.69325 0.2189 0.0
C2349 C 0.51808 0.70688 0.22516 0.0
C2350 C 0.49696 0.68003 0.20063 0.0
C2351 C 0.51168 0.68 0.18826 0.0
C2352 C 0.52966 0.69388 0.19367 0.0
H2353 H 0.46669 0.57923 0.09792 0.0
H2354 H 0.48987 0.6043 0.12386 0.0
C2355 C 0.53285 0.70722 0.21209 0.0
C2356 C 0.50783 0.66542 0.16948 0.0
H2357 H 0.48228 0.61901 0.16291 0.0
C2358 C 0.5118 0.67017 0.14375 0.0
C2359 C 0.49816 0.6467 0.17652 0.0
C2360 C 0.49471 0.64077 0.20403 0.0
C2361 C 0.50482 0.65668 0.12468 0.0
C2362 C 0.4933 0.63809 0.13162 0.0
C2363 C 0.49086 0.63327 0.15748 0.0
C2364 C 0.48157 0.62386 0.11284 0.0
C2365 C 0.50934 0.66256 0.09728 0.0
C2366 C 0.46933 0.62656 0.09786 0.0
C2367 C 0.45614 0.61234 0.08306 0.0
C2368 C 0.45468 0.59495 0.08314 0.0
C2369 C 0.46739 0.59242 0.09744 0.0
C2370 C 0.48067 0.60675 0.11225 0.0
H2371 H 0.52324 0.67482 0.09562 0.0
H2372 H 0.50873 0.65142 0.08524 0.0
H2373 H 0.49937 0.66638 0.08981 0.0
H2374 H 0.46935 0.63943 0.09853 0.0
H2375 H 0.44666 0.61487 0.07227 0.0
H2376 H 0.1151 0.57759 0.59601 0.0
H2377 H 0.12145 0.60468 0.62091 0.0
H2378 H 0.17844 0.63067 0.59932 0.0
H2379 H 0.17226 0.60393 0.57411 0.0
H2380 H 0.14391 0.61693 0.66154 0.0
H2381 H 0.16828 0.67245 0.59023 0.0
H2382 H 0.15596 0.64849 0.5815 0.0
H2383 H 0.18028 0.65994 0.58749 0.0
C2384 C 0.12894 0.58918 0.59619 0.0
C2385 C 0.14319 0.58849 0.58313 0.0
C2386 C 0.13252 0.60467 0.61041 0.0
C2387 C 0.15036 0.61982 0.61166 0.0
C2388 C 0.16448 0.61936 0.59812 0.0
H2389 H 0.21201 0.69138 0.72808 0.0
H2390 H 0.19622 0.66836 0.69536 0.0
C2391 C 0.16093 0.60392 0.5839 0.0
C2392 C 0.15476 0.63518 0.62938 0.0
H2393 H 0.17853 0.68193 0.63372 0.0
C2394 C 0.15111 0.63113 0.65536 0.0
C2395 C 0.16396 0.65371 0.62133 0.0
C2396 C 0.16717 0.6589 0.59357 0.0
C2397 C 0.15754 0.6451 0.67364 0.0
C2398 C 0.16807 0.66357 0.66574 0.0
C2399 C 0.17064 0.66772 0.63969 0.0
C2400 C 0.17807 0.67841 0.68443 0.0
C2401 C 0.1536 0.63999 0.70138 0.0
C2402 C 0.17344 0.69207 0.68854 0.0
C2403 C 0.1825 0.7054 0.70738 0.0
C2404 C 0.1964 0.7053 0.7222 0.0
C2405 C 0.20134 0.6919 0.71723 0.0
C2406 C 0.19228 0.67864 0.69856 0.0
H2407 H 0.14145 0.6261 0.70383 0.0
H2408 H 0.16559 0.63995 0.71009 0.0
H2409 H 0.1512 0.65007 0.71184 0.0
H2410 H 0.16256 0.69213 0.67762 0.0
H2411 H 0.17837 0.71552 0.71065 0.0
H2412 H 0.28364 0.46647 0.72275 0.0
H2413 H 0.30529 0.47492 0.68723 0.0
H2414 H 0.30988 0.52819 0.68359 0.0
H2415 H 0.28842 0.52003 0.71901 0.0
H2416 H 0.3055 0.50617 0.63323 0.0
H2417 H 0.36188 0.51728 0.69961 0.0
H2418 H 0.33985 0.4967 0.7024 0.0
H2419 H 0.34213 0.51841 0.7105 0.0
C2420 C 0.28904 0.47989 0.71416 0.0
C2421 C 0.28439 0.49262 0.72386 0.0
C2422 C 0.30142 0.48467 0.69392 0.0
C2423 C 0.30917 0.50218 0.68298 0.0
C2424 C 0.30399 0.51461 0.69185 0.0
H2425 H 0.38694 0.57544 0.57695 0.0
H2426 H 0.35999 0.55594 0.60249 0.0
C2427 C 0.29177 0.50992 0.71215 0.0
C2428 C 0.32366 0.50818 0.66346 0.0
H2429 H 0.3698 0.52602 0.65709 0.0
C2430 C 0.31953 0.51028 0.63827 0.0
C2431 C 0.34186 0.51338 0.67018 0.0
C2432 C 0.34687 0.51143 0.69713 0.0
C2433 C 0.33332 0.51797 0.61967 0.0
C2434 C 0.35175 0.52418 0.62671 0.0
C2435 C 0.35569 0.52131 0.6517 0.0
C2436 C 0.36733 0.53505 0.60923 0.0
C2437 C 0.32801 0.51947 0.59272 0.0
C2438 C 0.38066 0.53 0.60485 0.0
C2439 C 0.39633 0.54132 0.59053 0.0
C2440 C 0.39897 0.55794 0.58036 0.0
C2441 C 0.38536 0.56272 0.58433 0.0
C2442 C 0.3698 0.55147 0.59877 0.0
H2443 H 0.3137 0.5086 0.58856 0.0
H2444 H 0.32877 0.53292 0.59021 0.0
H2445 H 0.3373 0.51842 0.57869 0.0
H2446 H 0.3791 0.51745 0.61291 0.0
H2447 H 0.40649 0.53718 0.58783 0.0
H2448 H 0.53979 0.81846 0.71544 0.0
H2449 H 0.53224 0.8335 0.68131 0.0
H2450 H 0.47473 0.79953 0.69832 0.0
H2451 H 0.48195 0.7845 0.73221 0.0
H2452 H 0.50712 0.81704 0.6372 0.0
H2453 H 0.48595 0.85381 0.70435 0.0
H2454 H 0.50015 0.84434 0.71378 0.0
H2455 H 0.47574 0.82973 0.71096 0.0
C2456 C 0.52553 0.8141 0.71181 0.0
C2457 C 0.5115 0.80034 0.72676 0.0
C2458 C 0.52126 0.82272 0.69232 0.0
C2459 C 0.50296 0.81779 0.68766 0.0
C2460 C 0.48896 0.80371 0.70194 0.0
H2461 H 0.4361 0.82196 0.57286 0.0
H2462 H 0.45658 0.81631 0.59909 0.0
C2463 C 0.49315 0.79508 0.72127 0.0
C2464 C 0.49816 0.82737 0.66821 0.0
H2465 H 0.47529 0.85098 0.66143 0.0
C2466 C 0.50046 0.82477 0.6424 0.0
C2467 C 0.48981 0.83771 0.6751 0.0
C2468 C 0.48791 0.84175 0.70256 0.0
C2469 C 0.49347 0.83123 0.62326 0.0
C2470 C 0.48375 0.84026 0.63026 0.0
C2471 C 0.48259 0.84392 0.65604 0.0
C2472 C 0.47312 0.84444 0.61163 0.0
C2473 C 0.49623 0.82801 0.59579 0.0
C2474 C 0.4755 0.86214 0.61002 0.0
C2475 C 0.46362 0.86542 0.59522 0.0
C2476 C 0.44903 0.85099 0.58191 0.0
C2477 C 0.44714 0.83342 0.58285 0.0
C2478 C 0.45899 0.83017 0.59766 0.0
H2479 H 0.50888 0.82713 0.59338 0.0
H2480 H 0.48446 0.81478 0.58943 0.0
H2481 H 0.49714 0.83908 0.58332 0.0
H2482 H 0.48624 0.87332 0.62081 0.0
H2483 H 0.46553 0.87913 0.59492 0.0
H2484 H 0.27297 0.51726 0.2521 0.0
H2485 H 0.29955 0.52515 0.22531 0.0
H2486 H 0.28402 0.46803 0.22075 0.0
H2487 H 0.257 0.4599 0.24694 0.0
H2488 H 0.329 0.52058 0.22988 0.0
H2489 H 0.28705 0.48131 0.14653 0.0
H2490 H 0.2771 0.48545 0.17434 0.0
H2491 H 0.28318 0.46778 0.17467 0.0
C2492 C 0.27521 0.50634 0.24553 0.0
C2493 C 0.26269 0.48791 0.25142 0.0
C2494 C 0.29045 0.51089 0.23022 0.0
C2495 C 0.29357 0.49715 0.22058 0.0
C2496 C 0.28161 0.47882 0.2274 0.0
H2497 H 0.37888 0.51061 0.112 0.0
H2498 H 0.35641 0.49846 0.14672 0.0
C2499 C 0.26622 0.47421 0.24249 0.0
C2500 C 0.30906 0.50213 0.20282 0.0
H2501 H 0.31915 0.49625 0.14177 0.0
C2502 C 0.32686 0.51516 0.21067 0.0
C2503 C 0.30624 0.49508 0.17771 0.0
C2504 C 0.28736 0.48176 0.16766 0.0
C2505 C 0.34182 0.52157 0.19395 0.0
C2506 C 0.33889 0.51474 0.16883 0.0
C2507 C 0.32128 0.50131 0.16118 0.0
C2508 C 0.35358 0.52254 0.14948 0.0
C2509 C 0.36063 0.5358 0.20304 0.0
C2510 C 0.35935 0.54007 0.13968 0.0
C2511 C 0.37198 0.54697 0.11975 0.0
C2512 C 0.37917 0.53649 0.10933 0.0
C2513 C 0.3737 0.51908 0.11969 0.0
C2514 C 0.36086 0.51209 0.13947 0.0
H2515 H 0.36131 0.53696 0.22413 0.0
H2516 H 0.37112 0.53244 0.19636 0.0
H2517 H 0.36411 0.54934 0.19499 0.0
H2518 H 0.35369 0.54823 0.14702 0.0
H2519 H 0.37591 0.56044 0.11228 0.0
H2520 H 0.48808 0.75908 0.24652 0.0
H2521 H 0.48154 0.77941 0.22135 0.0
H2522 H 0.5394 0.81848 0.21617 0.0
H2523 H 0.54619 0.79791 0.24085 0.0
H2524 H 0.48862 0.81419 0.22915 0.0
H2525 H 0.52457 0.81098 0.14207 0.0
H2526 H 0.52004 0.79587 0.1688 0.0
H2527 H 0.53853 0.81921 0.17015 0.0
C2528 C 0.49948 0.77199 0.2401 0.0
C2529 C 0.51769 0.77675 0.24552 0.0
C2530 C 0.49569 0.78363 0.22573 0.0
C2531 C 0.50998 0.80034 0.21654 0.0
C2532 C 0.52817 0.80546 0.22257 0.0
H2533 H 0.49337 0.87176 0.10981 0.0
H2534 H 0.50751 0.86298 0.14385 0.0
C2535 C 0.53201 0.79371 0.23677 0.0
C2536 C 0.50557 0.81199 0.20022 0.0
H2537 H 0.50963 0.82817 0.13953 0.0
C2538 C 0.4934 0.81743 0.20965 0.0
C2539 C 0.51183 0.81625 0.17476 0.0
C2540 C 0.52434 0.81018 0.16319 0.0
C2541 C 0.48679 0.82638 0.19404 0.0
C2542 C 0.49252 0.82999 0.16841 0.0
C2543 C 0.50538 0.82543 0.15929 0.0
C2544 C 0.48363 0.8363 0.14994 0.0
C2545 C 0.47331 0.83146 0.20478 0.0
C2546 C 0.46555 0.8242 0.14233 0.0
C2547 C 0.45755 0.82904 0.12282 0.0
C2548 C 0.46745 0.84615 0.11066 0.0
C2549 C 0.48536 0.85854 0.11896 0.0
C2550 C 0.49347 0.85356 0.13831 0.0
H2551 H 0.47359 0.83177 0.22592 0.0
H2552 H 0.47624 0.84506 0.19756 0.0
H2553 H 0.45926 0.82114 0.19861 0.0
H2554 H 0.45784 0.81073 0.1509 0.0
H2555 H 0.44372 0.81921 0.11691 0.0
H2556 H 0.2034 0.74484 0.24161 0.0
H2557 H 0.18276 0.71776 0.21661 0.0
H2558 H 0.21668 0.69397 0.23266 0.0
H2559 H 0.23712 0.72066 0.25802 0.0
H2560 H 0.19206 0.70663 0.174 0.0
H2561 H 0.16626 0.65056 0.24469 0.0
H2562 H 0.17744 0.67443 0.25383 0.0
H2563 H 0.19081 0.66395 0.24517 0.0
C2564 C 0.20633 0.73373 0.24016 0.0
C2565 C 0.22199 0.735 0.2518 0.0
C2566 C 0.19448 0.71824 0.22589 0.0
C2567 C 0.198 0.7037 0.22311 0.0
C2568 C 0.2134 0.70478 0.2351 0.0
H2569 H 0.18429 0.62938 0.10821 0.0
H2570 H 0.19263 0.65138 0.14285 0.0
C2571 C 0.2252 0.72019 0.24941 0.0
C2572 C 0.18681 0.68829 0.20557 0.0
H2573 H 0.16507 0.6416 0.2005 0.0
C2574 C 0.1858 0.69241 0.17993 0.0
C2575 C 0.17853 0.66972 0.21332 0.0
C2576 C 0.17814 0.6644 0.24082 0.0
C2577 C 0.17776 0.6785 0.1616 0.0
C2578 C 0.17064 0.66008 0.16911 0.0
C2579 C 0.17069 0.65581 0.19488 0.0
C2580 C 0.16492 0.64543 0.14994 0.0
C2581 C 0.1776 0.68355 0.13409 0.0
C2582 C 0.14647 0.6346 0.1429 0.0
C2583 C 0.14157 0.62194 0.12298 0.0
C2584 C 0.1551 0.62001 0.10985 0.0
C2585 C 0.17349 0.63052 0.11773 0.0
C2586 C 0.17832 0.6431 0.13757 0.0
H2587 H 0.18142 0.69816 0.13182 0.0
H2588 H 0.18748 0.68115 0.12317 0.0
H2589 H 0.16379 0.67474 0.12571 0.0
H2590 H 0.13598 0.63632 0.15231 0.0
H2591 H 0.12729 0.6141 0.11741 0.0
H2592 H 0.115 0.18097 0.30434 0.0
H2593 H 0.12517 0.16902 0.26922 0.0
H2594 H 0.16829 0.17177 0.31675 0.0
H2595 H 0.15822 0.18394 0.35173 0.0
H2596 H 0.18081 0.18892 0.27052 0.0
H2597 H 0.12057 0.11931 0.25584 0.0
H2598 H 0.11557 0.13765 0.25855 0.0
H2599 H 0.12494 0.13175 0.2853 0.0
C2600 C 0.12625 0.17842 0.30745 0.0
C2601 C 0.13554 0.18282 0.33081 0.0
C2602 C 0.13209 0.17165 0.28741 0.0
C2603 C 0.14734 0.16926 0.29049 0.0
C2604 C 0.15643 0.17341 0.31403 0.0
H2605 H 0.1868 0.11583 0.18859 0.0
H2606 H 0.17544 0.12559 0.22495 0.0
C2607 C 0.15065 0.18026 0.33398 0.0
C2608 C 0.15476 0.16386 0.26868 0.0
H2609 H 0.14414 0.12978 0.22558 0.0
C2610 C 0.17281 0.17595 0.26071 0.0
C2611 C 0.14434 0.14694 0.25595 0.0
C2612 C 0.12529 0.13304 0.26434 0.0
C2613 C 0.18065 0.17156 0.24027 0.0
C2614 C 0.17006 0.15475 0.22738 0.0
C2615 C 0.15212 0.14267 0.23542 0.0
C2616 C 0.17733 0.14921 0.20567 0.0
C2617 C 0.20025 0.18476 0.23289 0.0
C2618 C 0.18196 0.15919 0.18285 0.0
C2619 C 0.18825 0.15352 0.16211 0.0
C2620 C 0.18953 0.13757 0.16377 0.0
C2621 C 0.18523 0.12779 0.18671 0.0
C2622 C 0.17896 0.13346 0.20747 0.0
H2623 H 0.20774 0.19491 0.24819 0.0
H2624 H 0.20769 0.1773 0.22848 0.0
H2625 H 0.2004 0.19238 0.21557 0.0
H2626 H 0.18054 0.17123 0.18102 0.0
H2627 H 0.19187 0.16142 0.14466 0.0
H2628 H 0.81657 0.93665 0.31161 0.0
H2629 H 0.82803 0.95804 0.27589 0.0
H2630 H 0.80905 0.99132 0.31295 0.0
H2631 H 0.80026 0.97133 0.3502 0.0
H2632 H 0.81404 0.96663 0.24316 0.0
H2633 H 0.85612 0.03171 0.29445 0.0
H2634 H 0.84521 0.01019 0.31104 0.0
H2635 H 0.83271 0.0219 0.30417 0.0
C2636 C 0.81585 0.94911 0.31258 0.0
C2637 C 0.80893 0.95318 0.3343 0.0
C2638 C 0.82194 0.96113 0.29192 0.0
C2639 C 0.82016 0.97689 0.29194 0.0
C2640 C 0.81171 0.98002 0.31292 0.0
H2641 H 0.82774 0.0297 0.14522 0.0
H2642 H 0.81711 0.00977 0.18255 0.0
C2643 C 0.80645 0.96845 0.33408 0.0
C2644 C 0.82625 0.98934 0.26945 0.0
H2645 H 0.8483 0.03427 0.25139 0.0
C2646 C 0.8219 0.98143 0.24506 0.0
C2647 C 0.83646 0.00872 0.2716 0.0
C2648 C 0.84303 0.01856 0.29675 0.0
C2649 C 0.82764 0.99216 0.22292 0.0
C2650 C 0.83706 0.01155 0.22509 0.0
C2651 C 0.84116 0.01946 0.24948 0.0
C2652 C 0.8431 0.02399 0.20258 0.0
C2653 C 0.82382 0.9823 0.19771 0.0
C2654 C 0.86073 0.03962 0.20208 0.0
C2655 C 0.86635 0.05161 0.18139 0.0
C2656 C 0.85494 0.04764 0.16016 0.0
C2657 C 0.83712 0.0325 0.16093 0.0
C2658 C 0.83113 0.02097 0.18214 0.0
H2659 H 0.82364 0.96908 0.19971 0.0
H2660 H 0.81006 0.9791 0.19086 0.0
H2661 H 0.83413 0.99059 0.18312 0.0
H2662 H 0.8702 0.04262 0.21772 0.0
H2663 H 0.87963 0.06398 0.18198 0.0
H2664 H 0.9676 0.79623 0.14736 0.0
H2665 H 0.98809 0.80386 0.18391 0.0
H2666 H 0.95774 0.82547 0.22297 0.0
H2667 H 0.93595 0.81551 0.18773 0.0
H2668 H 0.01106 0.83268 0.20186 0.0
H2669 H 0.96192 0.79983 0.28042 0.0
H2670 H 0.95459 0.79602 0.24773 0.0
H2671 H 0.95707 0.81579 0.26481 0.0
C2672 C 0.96529 0.80244 0.16397 0.0
C2673 C 0.95085 0.80619 0.16445 0.0
C2674 C 0.97701 0.80688 0.18481 0.0
C2675 C 0.97458 0.81528 0.20645 0.0
C2676 C 0.95978 0.81858 0.20701 0.0
H2677 H 0.06829 0.87795 0.30709 0.0
H2678 H 0.04678 0.86737 0.27146 0.0
C2679 C 0.94764 0.81345 0.18653 0.0
C2680 C 0.98805 0.8213 0.2277 0.0
H2681 H 0.99203 0.82358 0.29231 0.0
C2682 C 0.00683 0.83028 0.22164 0.0
C2683 C 0.98271 0.81813 0.25362 0.0
C2684 C 0.96297 0.80672 0.26194 0.0
C2685 C 0.02032 0.83592 0.24056 0.0
C2686 C 0.01503 0.83398 0.26649 0.0
C2687 C 0.99625 0.82522 0.27253 0.0
C2688 C 0.02848 0.8406 0.28778 0.0
C2689 C 0.03992 0.84315 0.23224 0.0
C2690 C 0.02522 0.8295 0.30939 0.0
C2691 C 0.03683 0.83614 0.33043 0.0
C2692 C 0.052 0.85392 0.33018 0.0
C2693 C 0.05606 0.86457 0.30811 0.0
C2694 C 0.04406 0.85824 0.28741 0.0
H2695 H 0.04052 0.83709 0.21372 0.0
H2696 H 0.04667 0.85821 0.22948 0.0
H2697 H 0.0478 0.84009 0.24641 0.0
H2698 H 0.01355 0.81572 0.31015 0.0
H2699 H 0.03384 0.82745 0.34702 0.0
H2700 H 0.88021 0.81044 0.68424 0.0
H2701 H 0.87118 0.82235 0.72072 0.0
H2702 H 0.82424 0.81587 0.6787 0.0
H2703 H 0.83328 0.80389 0.64225 0.0
H2704 H 0.86695 0.85305 0.72185 0.0
H2705 H 0.80196 0.78996 0.74654 0.0
H2706 H 0.81894 0.78975 0.72576 0.0
H2707 H 0.8037 0.79721 0.71399 0.0
C2708 C 0.86811 0.81182 0.6828 0.0
C2709 C 0.85772 0.8069 0.66037 0.0
C2710 C 0.86287 0.81841 0.70363 0.0
C2711 C 0.84695 0.8198 0.70244 0.0
C2712 C 0.83641 0.81462 0.68011 0.0
H2713 H 0.81904 0.88362 0.80462 0.0
H2714 H 0.82969 0.87305 0.76843 0.0
C2715 C 0.84164 0.80797 0.6593 0.0
C2716 C 0.84184 0.82732 0.72433 0.0
H2717 H 0.80865 0.81707 0.76896 0.0
C2718 C 0.85424 0.84523 0.73215 0.0
C2719 C 0.82526 0.81692 0.73784 0.0
C2720 C 0.81173 0.79733 0.73081 0.0
C2721 C 0.85059 0.85312 0.75314 0.0
C2722 C 0.83391 0.84291 0.7665 0.0
C2723 C 0.82144 0.82492 0.75867 0.0
C2724 C 0.82919 0.85045 0.78887 0.0
C2725 C 0.86496 0.87201 0.76145 0.0
C2726 C 0.8253 0.84125 0.81231 0.0
C2727 C 0.81916 0.84724 0.83287 0.0
C2728 C 0.8171 0.86269 0.83043 0.0
C2729 C 0.82124 0.87209 0.80715 0.0
C2730 C 0.82727 0.86603 0.78651 0.0
H2731 H 0.87845 0.87651 0.7523 0.0
H2732 H 0.86054 0.882 0.75635 0.0
H2733 H 0.86669 0.8722 0.78234 0.0
H2734 H 0.8266 0.82915 0.8145 0.0
H2735 H 0.81567 0.83959 0.85054 0.0
H2736 H 0.19895 0.03249 0.64734 0.0
H2737 H 0.19092 0.01183 0.6837 0.0
H2738 H 0.1714 0.04358 0.72382 0.0
H2739 H 0.18231 0.06575 0.68899 0.0
H2740 H 0.18443 0.0337 0.75568 0.0
H2741 H 0.1443 0.97042 0.69978 0.0
H2742 H 0.16788 0.98099 0.69062 0.0
H2743 H 0.15504 0.99249 0.68474 0.0
C2744 C 0.19284 0.03491 0.66396 0.0
C2745 C 0.18995 0.04993 0.6648 0.0
C2746 C 0.18799 0.02295 0.68462 0.0
C2747 C 0.17944 0.02533 0.70611 0.0
C2748 C 0.1775 0.04099 0.70735 0.0
H2749 H 0.11887 0.93351 0.8088 0.0
H2750 H 0.12886 0.95627 0.77481 0.0
C2751 C 0.18325 0.05345 0.68718 0.0
C2752 C 0.17317 0.01204 0.72771 0.0
H2753 H 0.15158 0.9665 0.74242 0.0
C2754 C 0.17685 0.01899 0.75267 0.0
C2755 C 0.16331 0.99274 0.72415 0.0
C2756 C 0.15727 0.98379 0.69837 0.0
C2757 C 0.17074 0.00741 0.77397 0.0
C2758 C 0.16173 0.98814 0.77038 0.0
C2759 C 0.15837 0.9812 0.74544 0.0
C2760 C 0.1553 0.97481 0.7919 0.0
C2761 C 0.17369 0.01624 0.79986 0.0
C2762 C 0.16669 0.97729 0.81287 0.0
C2763 C 0.16032 0.96489 0.83312 0.0
C2764 C 0.14269 0.94943 0.83238 0.0
C2765 C 0.13193 0.94605 0.81057 0.0
C2766 C 0.1379 0.95887 0.79087 0.0
H2767 H 0.17369 0.02943 0.7987 0.0
H2768 H 0.163 0.00729 0.81363 0.0
H2769 H 0.1873 0.01938 0.80726 0.0
H2770 H 0.18058 0.98872 0.8136 0.0
H2771 H 0.16924 0.96728 0.84928 0.0
H2772 H 0.97273 0.17643 0.64323 0.0
H2773 H 0.99337 0.18799 0.6798 0.0
H2774 H 0.9621 0.13531 0.71669 0.0
H2775 H 0.94006 0.12491 0.68173 0.0
H2776 H 0.97041 0.15779 0.74964 0.0
H2777 H 0.03508 0.18291 0.6963 0.0
H2778 H 0.02437 0.19588 0.68756 0.0
H2779 H 0.0133 0.17175 0.68036 0.0
C2780 C 0.97044 0.16735 0.65916 0.0
C2781 C 0.95554 0.14937 0.65911 0.0
C2782 C 0.98238 0.17387 0.67992 0.0
C2783 C 0.97999 0.1623 0.70064 0.0
C2784 C 0.96461 0.1445 0.70084 0.0
H2785 H 0.06855 0.18962 0.80769 0.0
H2786 H 0.04718 0.17891 0.77189 0.0
C2787 C 0.95223 0.13833 0.68059 0.0
C2788 C 0.99277 0.16892 0.72278 0.0
H2789 H 0.03792 0.19256 0.7397 0.0
C2790 C 0.98519 0.16504 0.74737 0.0
C2791 C 0.01213 0.17857 0.72011 0.0
C2792 C 0.02164 0.18233 0.69464 0.0
C2793 C 0.99622 0.17003 0.7692 0.0
C2794 C 0.01558 0.18034 0.76657 0.0
C2795 C 0.02315 0.1846 0.74197 0.0
C2796 C 0.02833 0.18647 0.78877 0.0
C2797 C 0.98667 0.16359 0.79456 0.0
C2798 C 0.0253 0.19466 0.81014 0.0
C2799 C 0.03683 0.19945 0.8313 0.0
C2800 C 0.05201 0.19682 0.83112 0.0
C2801 C 0.05613 0.1904 0.80894 0.0
C2802 C 0.04413 0.18475 0.78824 0.0
H2803 H 0.97349 0.1505 0.79258 0.0
H2804 H 0.99519 0.16147 0.80863 0.0
H2805 H 0.98343 0.17396 0.80209 0.0
H2806 H 0.01403 0.19737 0.81057 0.0
H2807 H 0.03394 0.20532 0.84779 0.0
H2808 H 0.82722 0.52177 0.68837 0.0
H2809 H 0.83763 0.51088 0.65211 0.0
H2810 H 0.79303 0.50688 0.60677 0.0
H2811 H 0.78268 0.51776 0.64297 0.0
H2812 H 0.79699 0.47542 0.60588 0.0
H2813 H 0.86267 0.5393 0.58602 0.0
H2814 H 0.85927 0.53105 0.61827 0.0
H2815 H 0.84479 0.53904 0.60531 0.0
C2816 C 0.81968 0.51847 0.67062 0.0
C2817 C 0.80384 0.51992 0.66848 0.0
C2818 C 0.82568 0.51242 0.64996 0.0
C2819 C 0.81615 0.50823 0.62679 0.0
C2820 C 0.80053 0.51005 0.62454 0.0
H2821 H 0.84979 0.49497 0.47762 0.0
H2822 H 0.83889 0.50374 0.51541 0.0
C2823 C 0.79453 0.51605 0.6452 0.0
C2824 C 0.82199 0.50131 0.605 0.0
H2825 H 0.85597 0.5133 0.56112 0.0
C2826 C 0.80987 0.48363 0.59612 0.0
C2827 C 0.83883 0.5122 0.59232 0.0
C2828 C 0.85214 0.53152 0.60076 0.0
C2829 C 0.81391 0.47654 0.57458 0.0
C2830 C 0.83073 0.48735 0.56176 0.0
C2831 C 0.84305 0.50501 0.57093 0.0
C2832 C 0.83561 0.48092 0.53835 0.0
C2833 C 0.7997 0.45796 0.56501 0.0
C2834 C 0.83712 0.46504 0.53858 0.0
C2835 C 0.84303 0.45988 0.51687 0.0
C2836 C 0.84758 0.47057 0.49471 0.0
C2837 C 0.846 0.48637 0.49442 0.0
C2838 C 0.83989 0.49141 0.51599 0.0
H2839 H 0.78608 0.45307 0.57399 0.0
H2840 H 0.79823 0.45857 0.54419 0.0
H2841 H 0.80409 0.44782 0.5692 0.0
H2842 H 0.83442 0.45702 0.5558 0.0
H2843 H 0.84482 0.44801 0.51773 0.0
H2844 H 0.48232 0.26642 0.63829 0.0
H2845 H 0.49308 0.28787 0.60233 0.0
H2846 H 0.4872 0.32735 0.64769 0.0
H2847 H 0.47603 0.3057 0.68338 0.0
H2848 H 0.47045 0.32171 0.60186 0.0
H2849 H 0.54112 0.33386 0.58739 0.0
H2850 H 0.52351 0.31023 0.59034 0.0
H2851 H 0.52877 0.32557 0.61686 0.0
C2852 C 0.48389 0.27991 0.64072 0.0
C2853 C 0.47887 0.2847 0.66367 0.0
C2854 C 0.49001 0.29215 0.62021 0.0
C2855 C 0.49121 0.30935 0.62243 0.0
C2856 C 0.48647 0.3142 0.64559 0.0
H2857 H 0.54227 0.40222 0.52072 0.0
H2858 H 0.53298 0.38072 0.55662 0.0
C2859 C 0.48018 0.30191 0.66596 0.0
C2860 C 0.49606 0.32177 0.60017 0.0
H2861 H 0.52979 0.34591 0.55683 0.0
C2862 C 0.48346 0.32704 0.59202 0.0
C2863 C 0.51302 0.32874 0.58735 0.0
C2864 C 0.5275 0.32445 0.59592 0.0
C2865 C 0.48743 0.33914 0.57149 0.0
C2866 C 0.50433 0.34589 0.55861 0.0
C2867 C 0.51685 0.3406 0.56667 0.0
C2868 C 0.5096 0.35886 0.5371 0.0
C2869 C 0.47373 0.3449 0.56412 0.0
C2870 C 0.49961 0.35359 0.51428 0.0
C2871 C 0.505 0.36579 0.49382 0.0
C2872 C 0.5207 0.38319 0.49572 0.0
C2873 C 0.53051 0.38859 0.51865 0.0
C2874 C 0.52511 0.37642 0.53913 0.0
H2875 H 0.4635 0.3419 0.57941 0.0
H2876 H 0.48075 0.35978 0.5597 0.0
H2877 H 0.46625 0.33728 0.54681 0.0
H2878 H 0.48777 0.34002 0.51224 0.0
H2879 H 0.49708 0.36156 0.47638 0.0
H2880 H 0.6 0.14954 0.52508 0.0
H2881 H 0.6217 0.16147 0.56046 0.0
H2882 H 0.65677 0.14577 0.52097 0.0
H2883 H 0.63635 0.13652 0.4842 0.0
H2884 H 0.63194 0.14828 0.59217 0.0
H2885 H 0.69561 0.19356 0.53989 0.0
H2886 H 0.6739 0.182 0.52383 0.0
H2887 H 0.68683 0.17051 0.52914 0.0
C2888 C 0.61287 0.14965 0.52354 0.0
C2889 C 0.61726 0.14352 0.50131 0.0
C2890 C 0.62509 0.15601 0.54399 0.0
C2891 C 0.64145 0.15532 0.54316 0.0
C2892 C 0.64497 0.14763 0.52164 0.0
H2893 H 0.69724 0.1621 0.68666 0.0
H2894 H 0.6766 0.15189 0.65007 0.0
C2895 C 0.63316 0.1421 0.50074 0.0
C2896 C 0.65419 0.1617 0.56534 0.0
H2897 H 0.69936 0.18502 0.58209 0.0
C2898 C 0.64668 0.15669 0.5899 0.0
C2899 C 0.67349 0.17269 0.56271 0.0
C2900 C 0.68285 0.18013 0.53746 0.0
C2901 C 0.65773 0.1624 0.61174 0.0
C2902 C 0.67708 0.17247 0.60901 0.0
C2903 C 0.68459 0.17734 0.58444 0.0
C2904 C 0.68988 0.17833 0.63111 0.0
C2905 C 0.64823 0.15777 0.63727 0.0
C2906 C 0.70524 0.19613 0.63186 0.0
C2907 C 0.71767 0.20154 0.65202 0.0
C2908 C 0.71439 0.18972 0.67257 0.0
C2909 C 0.6995 0.17176 0.67154 0.0
C2910 C 0.68755 0.16601 0.65078 0.0
H2911 H 0.6455 0.144 0.64329 0.0
H2912 H 0.65654 0.16787 0.65209 0.0
H2913 H 0.63477 0.1572 0.6361 0.0
H2914 H 0.70773 0.2059 0.61681 0.0
H2915 H 0.72985 0.21497 0.65153 0.0
H2916 H 0.50052 0.14322 0.97514 0.0
H2917 H 0.49092 0.15438 0.01183 0.0
H2918 H 0.53812 0.16151 0.05383 0.0
H2919 H 0.54797 0.15092 0.01682 0.0
H2920 H 0.48136 0.13864 0.05786 0.0
H2921 H 0.54044 0.20929 0.0694 0.0
H2922 H 0.53556 0.19649 0.04024 0.0
H2923 H 0.54647 0.19172 0.06624 0.0
C2924 C 0.50903 0.14764 0.99204 0.0
C2925 C 0.52521 0.14677 0.99307 0.0
C2926 C 0.50352 0.1539 0.01299 0.0
C2927 C 0.51392 0.15903 0.03549 0.0
C2928 C 0.53016 0.15818 0.03647 0.0
H2929 H 0.47132 0.16634 0.18413 0.0
H2930 H 0.4819 0.15617 0.14733 0.0
C2931 C 0.53579 0.15214 0.01536 0.0
C2932 C 0.50708 0.16413 0.05832 0.0
H2933 H 0.51825 0.19826 0.10154 0.0
C2934 C 0.48942 0.15171 0.06741 0.0
C2935 C 0.51754 0.18117 0.07077 0.0
C2936 C 0.53604 0.19555 0.06117 0.0
C2937 C 0.48197 0.15597 0.08848 0.0
C2938 C 0.49262 0.17294 0.10101 0.0
C2939 C 0.51023 0.18524 0.09202 0.0
C2940 C 0.4857 0.17859 0.12305 0.0
C2941 C 0.46264 0.1425 0.09671 0.0
C2942 C 0.48471 0.19473 0.12169 0.0
C2943 C 0.47901 0.20067 0.14275 0.0
C2944 C 0.47452 0.19071 0.16554 0.0
C2945 C 0.47507 0.17436 0.16677 0.0
C2946 C 0.48091 0.16847 0.14576 0.0
H2947 H 0.45481 0.13248 0.08142 0.0
H2948 H 0.4631 0.13472 0.11348 0.0
H2949 H 0.45515 0.14971 0.10225 0.0
H2950 H 0.48837 0.20274 0.10433 0.0
H2951 H 0.47804 0.21299 0.14124 0.0
H2952 H 0.85434 0.40052 0.02783 0.0
H2953 H 0.84431 0.37915 0.06361 0.0
H2954 H 0.86283 0.34641 0.02383 0.0
H2955 H 0.87051 0.36655 0.9869 0.0
H2956 H 0.83378 0.32465 0.04243 0.0
H2957 H 0.86965 0.37352 0.12034 0.0
H2958 H 0.85419 0.37931 0.10523 0.0
H2959 H 0.87329 0.3807 0.08759 0.0
C2960 C 0.85571 0.38842 0.02663 0.0
C2961 C 0.86207 0.38445 0.00426 0.0
C2962 C 0.85055 0.37651 0.04739 0.0
C2963 C 0.85291 0.36111 0.04674 0.0
C2964 C 0.86051 0.35794 0.02481 0.0
H2965 H 0.84036 0.30049 0.18626 0.0
H2966 H 0.85201 0.32121 0.14976 0.0
C2967 C 0.86498 0.36947 0.00374 0.0
C2968 C 0.84658 0.34771 0.0681 0.0
H2969 H 0.84523 0.34389 0.13276 0.0
C2970 C 0.83668 0.32892 0.06217 0.0
C2971 C 0.85036 0.35308 0.09396 0.0
C2972 C 0.86264 0.37275 0.10207 0.0
C2973 C 0.83076 0.31543 0.08111 0.0
C2974 C 0.83337 0.32082 0.10702 0.0
C2975 C 0.84305 0.33962 0.11298 0.0
C2976 C 0.82659 0.30738 0.12833 0.0
C2977 C 0.82251 0.29569 0.0728 0.0
C2978 C 0.80859 0.29238 0.12839 0.0
C2979 C 0.80227 0.28013 0.1488 0.0
C2980 C 0.81334 0.28341 0.17026 0.0
C2981 C 0.8314 0.29811 0.17016 0.0
C2982 C 0.83799 0.30996 0.14935 0.0
H2983 H 0.82799 0.2947 0.05399 0.0
H2984 H 0.82535 0.28748 0.08668 0.0
H2985 H 0.80746 0.28957 0.07066 0.0
H2986 H 0.79924 0.29023 0.11293 0.0
H2987 H 0.78862 0.26827 0.14801 0.0
H2988 H 0.63634 0.49243 0.97375 0.0
H2989 H 0.65845 0.50437 0.00889 0.0
H2990 H 0.62127 0.45851 0.05555 0.0
H2991 H 0.59936 0.44642 0.02019 0.0
H2992 H 0.65262 0.51525 0.0549 0.0
H2993 H 0.66907 0.45961 0.06901 0.0
H2994 H 0.65979 0.46276 0.03982 0.0
H2995 H 0.64503 0.45209 0.06676 0.0
C2996 C 0.63318 0.48471 0.99134 0.0
C2997 C 0.61649 0.46828 0.99417 0.0
C2998 C 0.64572 0.49155 0.01139 0.0
C2999 C 0.64163 0.48222 0.03475 0.0
C3000 C 0.62496 0.46568 0.0375 0.0
H3001 H 0.6911 0.53009 0.1809 0.0
H3002 H 0.67078 0.51814 0.14376 0.0
C3003 C 0.61248 0.45876 0.01733 0.0
C3004 C 0.65423 0.49051 0.05667 0.0
H3005 H 0.67965 0.48273 0.09995 0.0
C3006 C 0.65859 0.50815 0.06474 0.0
C3007 C 0.66211 0.48133 0.0694 0.0
C3008 C 0.65891 0.46293 0.0608 0.0
C3009 C 0.67051 0.51675 0.08531 0.0
C3010 C 0.67798 0.5073 0.09834 0.0
C3011 C 0.67375 0.48981 0.09012 0.0
C3012 C 0.69039 0.51524 0.12044 0.0
C3013 C 0.67526 0.53597 0.09255 0.0
C3014 C 0.70796 0.5172 0.11978 0.0
C3015 C 0.71937 0.52368 0.14107 0.0
C3016 C 0.71324 0.528 0.1634 0.0
C3017 C 0.69589 0.52651 0.1639 0.0
C3018 C 0.68441 0.51989 0.14268 0.0
H3019 H 0.67258 0.54304 0.07668 0.0
H3020 H 0.66667 0.53534 0.10897 0.0
H3021 H 0.68988 0.54429 0.09822 0.0
H3022 H 0.71282 0.51365 0.1028 0.0
H3023 H 0.73298 0.52535 0.1401 0.0
H3024 H 0.45119 0.85014 0.97846 0.0
H3025 H 0.46137 0.83777 0.94418 0.0
H3026 H 0.51288 0.85665 0.98337 0.0
H3027 H 0.50129 0.8662 0.01933 0.0
H3028 H 0.48403 0.85024 0.91193 0.0
H3029 H 0.50626 0.80934 0.9677 0.0
H3030 H 0.49547 0.82062 0.98283 0.0
H3031 H 0.51981 0.83291 0.97669 0.0
C3032 C 0.46422 0.8506 0.98026 0.0
C3033 C 0.47482 0.85767 0.00227 0.0
C3034 C 0.47031 0.84401 0.96038 0.0
C3035 C 0.48771 0.84546 0.96144 0.0
C3036 C 0.49898 0.85415 0.9826 0.0
H3037 H 0.53336 0.83385 0.81726 0.0
H3038 H 0.52422 0.84559 0.85349 0.0
C3039 C 0.49246 0.85987 0.00303 0.0
C3040 C 0.49427 0.83877 0.93981 0.0
H3041 H 0.51754 0.81652 0.92492 0.0
C3042 C 0.49096 0.84246 0.91489 0.0
C3043 C 0.50342 0.82862 0.9433 0.0
C3044 C 0.50624 0.8225 0.96909 0.0
C3045 C 0.49616 0.83615 0.89354 0.0
C3046 C 0.50625 0.82694 0.89702 0.0
C3047 C 0.50981 0.8235 0.92196 0.0
C3048 C 0.51295 0.82039 0.87538 0.0
C3049 C 0.49016 0.83911 0.86774 0.0
C3050 C 0.51142 0.80296 0.87636 0.0
C3051 C 0.5178 0.79677 0.85632 0.0
C3052 C 0.52473 0.80733 0.83424 0.0
C3053 C 0.52712 0.82505 0.83362 0.0
C3054 C 0.52163 0.83165 0.8542 0.0
H3055 H 0.47704 0.83922 0.86908 0.0
H3056 H 0.50065 0.85269 0.86025 0.0
H3057 H 0.48825 0.82837 0.85396 0.0
H3058 H 0.50521 0.79401 0.89258 0.0
H3059 H 0.5172 0.78367 0.858 0.0
H3060 H 0.215 0.73008 0.85233 0.0
H3061 H 0.2048 0.70858 0.88791 0.0
H3062 H 0.15241 0.67607 0.85077 0.0
H3063 H 0.16395 0.696 0.81354 0.0
H3064 H 0.18293 0.69945 0.92099 0.0
H3065 H 0.15802 0.63498 0.8674 0.0
H3066 H 0.16906 0.65673 0.85146 0.0
H3067 H 0.14486 0.64543 0.85848 0.0
C3068 C 0.20173 0.71773 0.8513 0.0
C3069 C 0.19086 0.71378 0.82948 0.0
C3070 C 0.19563 0.70566 0.87192 0.0
C3071 C 0.17801 0.69001 0.87177 0.0
C3072 C 0.16647 0.68719 0.85085 0.0
H3073 H 0.13449 0.63535 0.01832 0.0
H3074 H 0.14362 0.65604 0.98182 0.0
C3075 C 0.17297 0.69874 0.82969 0.0
C3076 C 0.17161 0.6772 0.89391 0.0
H3077 H 0.14786 0.63201 0.91052 0.0
C3078 C 0.17565 0.68468 0.91857 0.0
C3079 C 0.16203 0.65784 0.89114 0.0
C3080 C 0.15845 0.64834 0.86567 0.0
C3081 C 0.17078 0.67356 0.94032 0.0
C3082 C 0.16028 0.65423 0.93756 0.0
C3083 C 0.15594 0.64676 0.91292 0.0
C3084 C 0.15395 0.64137 0.95963 0.0
C3085 C 0.17756 0.68293 0.96573 0.0
C3086 C 0.15507 0.62525 0.9587 0.0
C3087 C 0.14867 0.61283 0.97888 0.0
C3088 C 0.14219 0.61683 0.00109 0.0
C3089 C 0.14037 0.63249 0.00182 0.0
C3090 C 0.14585 0.64446 0.98108 0.0
H3091 H 0.19078 0.69598 0.96366 0.0
H3092 H 0.16745 0.68642 0.9736 0.0
H3093 H 0.17958 0.67419 0.97957 0.0
H3094 H 0.16086 0.62217 0.94232 0.0
H3095 H 0.14879 0.60008 0.97714 0.0
H3096 H 0.36111 0.50554 0.02079 0.0
H3097 H 0.33994 0.49671 0.98451 0.0
H3098 H 0.38225 0.5404 0.93986 0.0
H3099 H 0.40342 0.54913 0.97608 0.0
H3100 H 0.34718 0.53842 0.93944 0.0
H3101 H 0.34224 0.47158 0.91746 0.0
H3102 H 0.33804 0.47493 0.95004 0.0
H3103 H 0.36046 0.48893 0.93665 0.0
C3104 C 0.36578 0.51324 0.0032 0.0
C3105 C 0.38357 0.52837 0.0013 0.0
C3106 C 0.35378 0.50814 0.98252 0.0
C3107 C 0.35961 0.51785 0.95953 0.0
C3108 C 0.37752 0.53277 0.95749 0.0
H3109 H 0.30702 0.48555 0.81245 0.0
H3110 H 0.32885 0.49687 0.84796 0.0
C3111 C 0.3895 0.53786 0.97817 0.0
C3112 C 0.34689 0.51282 0.93775 0.0
H3113 H 0.32277 0.47911 0.89427 0.0
C3114 C 0.34184 0.5255 0.92954 0.0
C3115 C 0.34008 0.49594 0.92484 0.0
C3116 C 0.34555 0.48207 0.93249 0.0
C3117 C 0.33011 0.52179 0.90872 0.0
C3118 C 0.32307 0.50483 0.89591 0.0
C3119 C 0.32816 0.49211 0.90413 0.0
C3120 C 0.31058 0.50002 0.87377 0.0
C3121 C 0.32588 0.53631 0.90009 0.0
C3122 C 0.29318 0.49829 0.87641 0.0
C3123 C 0.2808 0.49198 0.85608 0.0
C3124 C 0.28569 0.48742 0.83282 0.0
C3125 C 0.30315 0.48937 0.83009 0.0
C3126 C 0.31554 0.49574 0.85034 0.0
H3127 H 0.33519 0.54987 0.90883 0.0
H3128 H 0.32717 0.53771 0.87914 0.0
H3129 H 0.3116 0.53223 0.90543 0.0
H3130 H 0.28888 0.50106 0.89449 0.0
H3131 H 0.26713 0.48988 0.85887 0.0
H3132 H 0.14027 0.53929 0.47712 0.0
H3133 H 0.15151 0.52848 0.44218 0.0
H3134 H 0.13155 0.47659 0.48085 0.0
H3135 H 0.12259 0.48851 0.51715 0.0
H3136 H 0.16093 0.48373 0.46346 0.0
H3137 H 0.12752 0.49854 0.38415 0.0
H3138 H 0.14257 0.51953 0.40012 0.0
H3139 H 0.12301 0.50154 0.41672 0.0
C3140 C 0.13884 0.5258 0.47832 0.0
C3141 C 0.13164 0.51511 0.50024 0.0
C3142 C 0.1447 0.51935 0.45799 0.0
C3143 C 0.14224 0.50155 0.4585 0.0
C3144 C 0.13392 0.49046 0.47997 0.0
H3145 H 0.16062 0.45921 0.31742 0.0
H3146 H 0.14695 0.46559 0.35416 0.0
C3147 C 0.12872 0.49721 0.50068 0.0
C3148 C 0.14906 0.49475 0.43739 0.0
H3149 H 0.15259 0.494 0.37284 0.0
C3150 C 0.1587 0.48563 0.44363 0.0
C3151 C 0.1461 0.49694 0.41139 0.0
C3152 C 0.13405 0.50448 0.40278 0.0
C3153 C 0.16529 0.47858 0.42482 0.0
C3154 C 0.1636 0.48208 0.39886 0.0
C3155 C 0.15408 0.49132 0.39264 0.0
C3156 C 0.17136 0.47629 0.3777 0.0
C3157 C 0.17329 0.4669 0.43326 0.0
C3158 C 0.18941 0.47945 0.37876 0.0
C3159 C 0.19689 0.47503 0.35808 0.0
C3160 C 0.18696 0.46861 0.33541 0.0
C3161 C 0.16876 0.46481 0.3345 0.0
C3162 C 0.161 0.46854 0.35548 0.0
H3163 H 0.16702 0.45975 0.45143 0.0
H3164 H 0.17118 0.4564 0.41883 0.0
H3165 H 0.18821 0.47582 0.43676 0.0
H3166 H 0.19799 0.48582 0.39521 0.0
H3167 H 0.21062 0.47709 0.35958 0.0
H3168 H 0.45093 0.60235 0.47401 0.0
H3169 H 0.46362 0.62425 0.43895 0.0
H3170 H 0.51471 0.65428 0.48012 0.0
H3171 H 0.50102 0.63362 0.51634 0.0
H3172 H 0.50927 0.67741 0.46123 0.0
H3173 H 0.49489 0.62826 0.38324 0.0
H3174 H 0.47375 0.62345 0.39775 0.0
H3175 H 0.49062 0.62096 0.41592 0.0
C3176 C 0.46467 0.61398 0.4757 0.0
C3177 C 0.47467 0.61703 0.49822 0.0
C3178 C 0.47217 0.62619 0.45535 0.0
C3179 C 0.49029 0.64092 0.45655 0.0
C3180 C 0.50062 0.64324 0.4787 0.0
H3181 H 0.54027 0.70049 0.31692 0.0
H3182 H 0.53145 0.68032 0.354 0.0
C3183 C 0.49286 0.63143 0.49936 0.0
C3184 C 0.49829 0.65441 0.43538 0.0
H3185 H 0.5017 0.65841 0.3708 0.0
C3186 C 0.50793 0.67318 0.44147 0.0
C3187 C 0.4968 0.64908 0.40952 0.0
C3188 C 0.48864 0.62933 0.40131 0.0
C3189 C 0.5162 0.68669 0.42263 0.0
C3190 C 0.51351 0.6814 0.39668 0.0
C3191 C 0.50375 0.66263 0.3906 0.0
C3192 C 0.52065 0.69489 0.37542 0.0
C3193 C 0.52826 0.7063 0.4311 0.0
C3194 C 0.5182 0.71022 0.37523 0.0
C3195 C 0.52394 0.72212 0.35442 0.0
C3196 C 0.53107 0.71822 0.33278 0.0
C3197 C 0.53417 0.70335 0.33316 0.0
C3198 C 0.52906 0.69181 0.35431 0.0
H3199 H 0.53456 0.70695 0.44995 0.0
H3200 H 0.53947 0.71427 0.41731 0.0
H3201 H 0.51979 0.71294 0.43325 0.0
H3202 H 0.51136 0.71279 0.39077 0.0
H3203 H 0.52237 0.73412 0.35496 0.0
H3204 H 0.40068 0.85196 0.4771 0.0
H3205 H 0.3785 0.84056 0.44231 0.0
H3206 H 0.34613 0.85969 0.48171 0.0
H3207 H 0.36708 0.86864 0.51792 0.0
H3208 H 0.32412 0.83059 0.46364 0.0
H3209 H 0.37268 0.86519 0.38499 0.0
H3210 H 0.37852 0.84992 0.40054 0.0
H3211 H 0.38003 0.86928 0.41765 0.0
C3212 C 0.38846 0.8531 0.47853 0.0
C3213 C 0.3849 0.86009 0.50061 0.0
C3214 C 0.37608 0.84717 0.45828 0.0
C3215 C 0.36063 0.84943 0.45899 0.0
C3216 C 0.35773 0.85747 0.48067 0.0
H3217 H 0.30043 0.8351 0.31864 0.0
H3218 H 0.32078 0.8473 0.35539 0.0
C3219 C 0.36971 0.86267 0.50132 0.0
C3220 C 0.3471 0.84286 0.43777 0.0
H3221 H 0.34304 0.84058 0.37315 0.0
C3222 C 0.32832 0.83318 0.44385 0.0
C3223 C 0.35236 0.84627 0.41183 0.0
C3224 C 0.37199 0.85842 0.40345 0.0
C3225 C 0.31476 0.82711 0.42497 0.0
C3226 C 0.32004 0.8293 0.39902 0.0
C3227 C 0.33882 0.83874 0.39294 0.0
C3228 C 0.30656 0.82232 0.37773 0.0
C3229 C 0.29508 0.81917 0.43337 0.0
C3230 C 0.29136 0.80443 0.3781 0.0
C3231 C 0.27929 0.79783 0.3575 0.0
C3232 C 0.28294 0.80845 0.33546 0.0
C3233 C 0.29776 0.82644 0.33519 0.0
C3234 C 0.30941 0.83335 0.35616 0.0
H3235 H 0.29423 0.82502 0.45195 0.0
H3236 H 0.28688 0.82187 0.41929 0.0
H3237 H 0.28884 0.80415 0.43606 0.0
H3238 H 0.28897 0.79535 0.394 0.0
H3239 H 0.2673 0.78428 0.35858 0.0
H3240 H 0.2725 0.15407 0.095 0.0
H3241 H 0.30415 0.16585 0.10942 0.0
H3242 H 0.28425 0.13253 0.17705 0.0
H3243 H 0.25273 0.12057 0.16274 0.0
H3244 H 0.31892 0.18513 0.1552 0.0
H3245 H 0.32387 0.12189 0.15121 0.0
H3246 H 0.30616 0.124 0.13483 0.0
H3247 H 0.30427 0.11925 0.16841 0.0
C3248 C 0.2749 0.14903 0.11272 0.0
C3249 C 0.26014 0.13637 0.12771 0.0
C3250 C 0.29296 0.15581 0.12097 0.0
C3251 C 0.29651 0.14991 0.14416 0.0
C3252 C 0.28181 0.137 0.15887 0.0
H3253 H 0.39316 0.17755 0.23451 0.0
H3254 H 0.36174 0.16639 0.21962 0.0
C3255 C 0.2638 0.13024 0.15069 0.0
C3256 C 0.31549 0.15803 0.15385 0.0
H3257 H 0.34763 0.14729 0.17344 0.0
C3258 C 0.32528 0.17691 0.15902 0.0
C3259 C 0.32365 0.14721 0.15896 0.0
C3260 C 0.31403 0.12699 0.15287 0.0
C3261 C 0.34292 0.18523 0.16963 0.0
C3262 C 0.35104 0.17439 0.17485 0.0
C3263 C 0.34128 0.15552 0.16959 0.0
C3264 C 0.3699 0.1824 0.18495 0.0
C3265 C 0.35258 0.20545 0.17567 0.0
C3266 C 0.38482 0.19521 0.17048 0.0
C3267 C 0.40273 0.20162 0.17892 0.0
C3268 C 0.40603 0.19524 0.20194 0.0
C3269 C 0.39105 0.18278 0.21676 0.0
C3270 C 0.37312 0.17634 0.20825 0.0
H3271 H 0.34281 0.21066 0.17692 0.0
H3272 H 0.36023 0.20839 0.1939 0.0
H3273 H 0.36257 0.21313 0.16033 0.0
H3274 H 0.38264 0.19981 0.15223 0.0
H3275 H 0.41398 0.21116 0.16701 0.0
H3276 H 0.78649 0.20168 0.16868 0.0
H3277 H 0.79634 0.18071 0.15267 0.0
H3278 H 0.82735 0.18839 0.22145 0.0
H3279 H 0.81739 0.20919 0.23777 0.0
H3280 H 0.83294 0.19125 0.14414 0.0
H3281 H 0.80081 0.13279 0.2116 0.0
H3282 H 0.79331 0.1494 0.2086 0.0
H3283 H 0.81348 0.15476 0.22678 0.0
C3284 C 0.79509 0.19861 0.18064 0.0
C3285 C 0.8012 0.2071 0.20447 0.0
C3286 C 0.80074 0.18667 0.17142 0.0
C3287 C 0.81247 0.18293 0.18594 0.0
C3288 C 0.81803 0.19085 0.21014 0.0
H3289 H 0.87384 0.12736 0.16165 0.0
H3290 H 0.86175 0.14666 0.17693 0.0
C3291 C 0.81238 0.20278 0.21939 0.0
C3292 C 0.82015 0.17205 0.1749 0.0
H3293 H 0.82409 0.1341 0.18444 0.0
C3294 C 0.83089 0.17866 0.1528 0.0
C3295 C 0.8175 0.15572 0.18635 0.0
C3296 C 0.80551 0.14763 0.20951 0.0
C3297 C 0.83942 0.16956 0.14214 0.0
C3298 C 0.8369 0.15332 0.15373 0.0
C3299 C 0.82605 0.14663 0.1757 0.0
C3300 C 0.84536 0.14297 0.14337 0.0
C3301 C 0.85141 0.17764 0.11897 0.0
C3302 C 0.84031 0.13473 0.11929 0.0
C3303 C 0.84725 0.12374 0.11045 0.0
C3304 C 0.85923 0.12074 0.12566 0.0
C3305 C 0.86466 0.12945 0.14947 0.0
C3306 C 0.85772 0.14042 0.15827 0.0
H3307 H 0.85548 0.19227 0.11618 0.0
H3308 H 0.864 0.17658 0.12049 0.0
H3309 H 0.84375 0.16992 0.10183 0.0
H3310 H 0.83056 0.13631 0.10768 0.0
H3311 H 0.84273 0.11713 0.0921 0.0
H3312 H 0.79229 0.59166 0.16668 0.0
H3313 H 0.8118 0.62333 0.15274 0.0
H3314 H 0.7977 0.64263 0.22034 0.0
H3315 H 0.7782 0.61091 0.23461 0.0
H3316 H 0.79943 0.64858 0.14356 0.0
H3317 H 0.85417 0.67385 0.21719 0.0
H3318 H 0.83881 0.64973 0.21144 0.0
H3319 H 0.83107 0.66285 0.22911 0.0
C3320 C 0.79352 0.60264 0.17879 0.0
C3321 C 0.78372 0.59879 0.20178 0.0
C3322 C 0.80463 0.62071 0.17074 0.0
C3323 C 0.80625 0.63529 0.18557 0.0
C3324 C 0.79682 0.63156 0.2088 0.0
H3325 H 0.86802 0.75326 0.1631 0.0
H3326 H 0.84614 0.72241 0.17804 0.0
C3327 C 0.78567 0.61344 0.2169 0.0
C3328 C 0.81713 0.65431 0.176 0.0
H3329 H 0.85509 0.69571 0.18813 0.0
C3330 C 0.81162 0.65891 0.15327 0.0
C3331 C 0.83293 0.66772 0.18881 0.0
C3332 C 0.83975 0.66333 0.21289 0.0
C3333 C 0.82147 0.67664 0.14302 0.0
C3334 C 0.83743 0.68999 0.15563 0.0
C3335 C 0.84282 0.68544 0.17853 0.0
C3336 C 0.8491 0.70866 0.14515 0.0
C3337 C 0.81458 0.68099 0.11899 0.0
C3338 C 0.85779 0.71115 0.12149 0.0
C3339 C 0.87024 0.72879 0.11281 0.0
C3340 C 0.87434 0.7442 0.1278 0.0
C3341 C 0.86515 0.74167 0.1511 0.0
C3342 C 0.85268 0.72405 0.15971 0.0
H3343 H 0.79976 0.67119 0.11588 0.0
H3344 H 0.81674 0.69512 0.11955 0.0
H3345 H 0.82222 0.67997 0.10245 0.0
H3346 H 0.85549 0.69944 0.11017 0.0
H3347 H 0.8772 0.73028 0.09488 0.0
H3348 H 0.2149 0.41446 0.32912 0.0
H3349 H 0.20479 0.38262 0.34016 0.0
H3350 H 0.17726 0.36488 0.26779 0.0
H3351 H 0.18716 0.39673 0.25665 0.0
H3352 H 0.15491 0.34729 0.3098 0.0
H3353 H 0.22005 0.34599 0.31568 0.0
H3354 H 0.22008 0.36419 0.33351 0.0
H3355 H 0.21829 0.36394 0.2994 0.0
C3356 C 0.207 0.40383 0.31532 0.0
C3357 C 0.20178 0.4081 0.29203 0.0
C3358 C 0.20131 0.38564 0.32163 0.0
C3359 C 0.19041 0.37142 0.30471 0.0
C3360 C 0.18574 0.37569 0.28106 0.0
H3361 H 0.12985 0.25268 0.31947 0.0
H3362 H 0.14307 0.28429 0.30458 0.0
C3363 C 0.19144 0.39389 0.27471 0.0
C3364 C 0.18247 0.35206 0.3127 0.0
H3365 H 0.19353 0.32035 0.33328 0.0
C3366 C 0.16333 0.34132 0.31471 0.0
C3367 C 0.19353 0.34442 0.31929 0.0
C3368 C 0.21412 0.35516 0.31667 0.0
C3369 C 0.15492 0.32322 0.32365 0.0
C3370 C 0.16597 0.31558 0.33033 0.0
C3371 C 0.18512 0.32628 0.3282 0.0
C3372 C 0.15788 0.29645 0.33945 0.0
C3373 C 0.13433 0.31259 0.32654 0.0
C3374 C 0.16209 0.29282 0.36384 0.0
C3375 C 0.15461 0.27475 0.37239 0.0
C3376 C 0.14289 0.26002 0.3566 0.0
C3377 C 0.13873 0.26373 0.33217 0.0
C3378 C 0.14622 0.28178 0.32364 0.0
H3379 H 0.12841 0.3218 0.32696 0.0
H3380 H 0.12824 0.30315 0.31013 0.0
H3381 H 0.13026 0.30425 0.34422 0.0
H3382 H 0.17112 0.30398 0.37628 0.0
H3383 H 0.15814 0.27233 0.39126 0.0
H3384 H 0.58656 0.79963 0.32918 0.0
H3385 H 0.61782 0.82042 0.34378 0.0
H3386 H 0.63924 0.80991 0.27524 0.0
H3387 H 0.60799 0.78924 0.26032 0.0
H3388 H 0.64351 0.80925 0.35251 0.0
H3389 H 0.66948 0.86586 0.28192 0.0
H3390 H 0.64534 0.84977 0.28614 0.0
H3391 H 0.65943 0.84334 0.26821 0.0
C3392 C 0.5979 0.80202 0.31695 0.0
C3393 C 0.59481 0.79278 0.2936 0.0
C3394 C 0.61575 0.81386 0.32537 0.0
C3395 C 0.63082 0.81677 0.31054 0.0
C3396 C 0.62779 0.80809 0.28679 0.0
H3397 H 0.7483 0.87319 0.33295 0.0
H3398 H 0.71687 0.8537 0.31799 0.0
C3399 C 0.60992 0.79624 0.27833 0.0
C3400 C 0.64964 0.82768 0.32085 0.0
H3401 H 0.69149 0.86533 0.3097 0.0
C3402 C 0.65399 0.82159 0.34327 0.0
C3403 C 0.66326 0.84368 0.30864 0.0
C3404 C 0.65916 0.85118 0.28502 0.0
C3405 C 0.67173 0.83091 0.35359 0.0
C3406 C 0.68536 0.84691 0.34137 0.0
C3407 C 0.681 0.85302 0.31898 0.0
C3408 C 0.70426 0.85758 0.35148 0.0
C3409 C 0.67584 0.82332 0.37713 0.0
C3410 C 0.70757 0.86606 0.37543 0.0
C3411 C 0.72553 0.87715 0.38411 0.0
C3412 C 0.74048 0.88006 0.36887 0.0
C3413 C 0.73709 0.8712 0.34517 0.0
C3414 C 0.71914 0.8601 0.33653 0.0
H3415 H 0.66543 0.80868 0.38027 0.0
H3416 H 0.68959 0.82459 0.37584 0.0
H3417 H 0.67574 0.83121 0.39398 0.0
H3418 H 0.69628 0.86453 0.38708 0.0
H3419 H 0.7277 0.8839 0.40237 0.0
H3420 H 0.21213 0.81469 0.26417 0.0
H3421 H 0.19287 0.8269 0.27938 0.0
H3422 H 0.18257 0.79618 0.34905 0.0
H3423 H 0.20196 0.78408 0.33418 0.0
H3424 H 0.15599 0.80981 0.29639 0.0
H3425 H 0.20534 0.84973 0.37322 0.0
H3426 H 0.21116 0.83958 0.34721 0.0
H3427 H 0.1976 0.8256 0.37334 0.0
C3428 C 0.20555 0.81032 0.28257 0.0
C3429 C 0.20871 0.79857 0.29809 0.0
C3430 C 0.1946 0.81734 0.29124 0.0
C3431 C 0.18668 0.81276 0.31556 0.0
C3432 C 0.18893 0.8002 0.33047 0.0
H3433 H 0.12092 0.84561 0.40387 0.0
H3434 H 0.13993 0.83294 0.38928 0.0
C3435 C 0.19989 0.7932 0.32184 0.0
C3436 C 0.17658 0.82158 0.32564 0.0
H3437 H 0.17732 0.84994 0.37268 0.0
C3438 C 0.16065 0.81862 0.31302 0.0
C3439 C 0.18277 0.83309 0.34732 0.0
C3440 C 0.20024 0.83736 0.36098 0.0
C3441 C 0.15055 0.82665 0.32176 0.0
C3442 C 0.15676 0.83818 0.34341 0.0
C3443 C 0.17265 0.8411 0.35608 0.0
C3444 C 0.14682 0.84725 0.3532 0.0
C3445 C 0.13312 0.82245 0.30805 0.0
C3446 C 0.14506 0.86004 0.33816 0.0
C3447 C 0.13427 0.86733 0.34644 0.0
C3448 C 0.12512 0.86199 0.36997 0.0
C3449 C 0.12777 0.84997 0.38564 0.0
C3450 C 0.13857 0.84268 0.37732 0.0
H3451 H 0.12799 0.81009 0.29581 0.0
H3452 H 0.12219 0.82029 0.3218 0.0
H3453 H 0.13582 0.83424 0.29569 0.0
H3454 H 0.15166 0.86402 0.31972 0.0
H3455 H 0.13258 0.87664 0.33399 0.0
H3456 H 0.7483 0.87134 0.82328 0.0
H3457 H 0.71643 0.85933 0.81011 0.0
H3458 H 0.69781 0.8303 0.88134 0.0
H3459 H 0.72963 0.84241 0.8948 0.0
H3460 H 0.68907 0.8223 0.80488 0.0
H3461 H 0.66956 0.85822 0.87615 0.0
H3462 H 0.69314 0.86497 0.86947 0.0
H3463 H 0.67946 0.84549 0.88946 0.0
C3464 C 0.73743 0.86252 0.83624 0.0
C3465 C 0.74147 0.85788 0.86013 0.0
C3466 C 0.71924 0.85564 0.82865 0.0
C3467 C 0.7048 0.84411 0.84487 0.0
C3468 C 0.70878 0.83946 0.86874 0.0
H3469 H 0.58642 0.78812 0.83415 0.0
H3470 H 0.61821 0.79866 0.84614 0.0
C3471 C 0.72696 0.84633 0.87635 0.0
C3472 C 0.68557 0.83654 0.83649 0.0
H3473 H 0.64555 0.83544 0.8511 0.0
C3474 C 0.67955 0.82521 0.81489 0.0
C3475 C 0.67323 0.84037 0.84965 0.0
C3476 C 0.67916 0.85305 0.87234 0.0
C3477 C 0.66137 0.81734 0.80633 0.0
C3478 C 0.64902 0.82115 0.81953 0.0
C3479 C 0.65506 0.83249 0.8411 0.0
C3480 C 0.62978 0.81367 0.81123 0.0
C3481 C 0.65543 0.80472 0.78357 0.0
C3482 C 0.62578 0.81854 0.78753 0.0
C3483 C 0.60761 0.81251 0.78058 0.0
C3484 C 0.59317 0.80161 0.79731 0.0
C3485 C 0.59723 0.79648 0.82082 0.0
C3486 C 0.61538 0.8025 0.82774 0.0
H3487 H 0.66502 0.79955 0.77971 0.0
H3488 H 0.64144 0.79282 0.7864 0.0
H3489 H 0.65515 0.81235 0.76651 0.0
H3490 H 0.63672 0.82742 0.77472 0.0
H3491 H 0.60493 0.81678 0.76241 0.0
H3492 H 0.21069 0.79393 0.82806 0.0
H3493 H 0.19886 0.8138 0.84165 0.0
H3494 H 0.16905 0.80327 0.7711 0.0
H3495 H 0.18065 0.78313 0.75743 0.0
H3496 H 0.2011 0.84526 0.81933 0.0
H3497 H 0.12909 0.78796 0.82596 0.0
H3498 H 0.14832 0.7842 0.82312 0.0
H3499 H 0.13989 0.79035 0.79561 0.0
C3500 C 0.20175 0.79596 0.81531 0.0
C3501 C 0.19648 0.78684 0.79175 0.0
C3502 C 0.195 0.80731 0.82312 0.0
C3503 C 0.18281 0.8097 0.80759 0.0
C3504 C 0.17815 0.80128 0.78358 0.0
H3505 H 0.12437 0.86918 0.82779 0.0
H3506 H 0.13632 0.84975 0.81253 0.0
C3507 C 0.1849 0.7899 0.77573 0.0
C3508 C 0.17473 0.8207 0.81689 0.0
H3509 H 0.13418 0.81783 0.83365 0.0
C3510 C 0.18648 0.83929 0.8225 0.0
C3511 C 0.15565 0.8128 0.82105 0.0
C3512 C 0.14247 0.7927 0.81635 0.0
C3513 C 0.17962 0.8503 0.83186 0.0
C3514 C 0.16056 0.84237 0.83613 0.0
C3515 C 0.14879 0.82381 0.8304 0.0
C3516 C 0.15255 0.85324 0.84619 0.0
C3517 C 0.1928 0.87038 0.83665 0.0
C3518 C 0.1573 0.86117 0.8705 0.0
C3519 C 0.15047 0.87226 0.87931 0.0
C3520 C 0.13873 0.87553 0.86396 0.0
C3521 C 0.13343 0.86696 0.84004 0.0
C3522 C 0.14025 0.85588 0.83127 0.0
H3523 H 0.20609 0.87519 0.82675 0.0
H3524 H 0.18685 0.87889 0.83029 0.0
H3525 H 0.19558 0.87262 0.85737 0.0
H3526 H 0.16648 0.85897 0.88251 0.0
H3527 H 0.15474 0.87861 0.89786 0.0
H3528 H 0.20846 0.4189 0.84341 0.0
H3529 H 0.18982 0.38741 0.8588 0.0
H3530 H 0.19948 0.36704 0.78861 0.0
H3531 H 0.2183 0.39851 0.77313 0.0
H3532 H 0.15809 0.35807 0.83708 0.0
H3533 H 0.21477 0.34256 0.8438 0.0
H3534 H 0.21878 0.36564 0.84073 0.0
H3535 H 0.21265 0.35098 0.8133 0.0
C3536 C 0.2066 0.40772 0.83121 0.0
C3537 C 0.21492 0.41118 0.80709 0.0
C3538 C 0.19596 0.38975 0.84005 0.0
C3539 C 0.19355 0.37495 0.82502 0.0
C3540 C 0.2015 0.37832 0.80071 0.0
H3541 H 0.13276 0.25728 0.83687 0.0
H3542 H 0.15339 0.28933 0.82547 0.0
C3543 C 0.21213 0.39629 0.79183 0.0
C3544 C 0.18248 0.35595 0.83465 0.0
H3545 H 0.18455 0.31756 0.84964 0.0
C3546 C 0.16387 0.34923 0.84001 0.0
C3547 C 0.19012 0.34451 0.83845 0.0
C3548 C 0.21021 0.35129 0.834 0.0
C3549 C 0.15254 0.33116 0.84842 0.0
C3550 C 0.16014 0.31966 0.85203 0.0
C3551 C 0.17879 0.32644 0.8469 0.0
C3552 C 0.14874 0.30031 0.86011 0.0
C3553 C 0.1324 0.32435 0.8526 0.0
C3554 C 0.13974 0.29586 0.88372 0.0
C3555 C 0.12791 0.27753 0.89031 0.0
C3556 C 0.12498 0.26337 0.87341 0.0
C3557 C 0.13467 0.26787 0.85028 0.0
C3558 C 0.14647 0.28618 0.84372 0.0
H3559 H 0.128 0.33342 0.84343 0.0
H3560 H 0.12388 0.31024 0.84501 0.0
H3561 H 0.1297 0.32401 0.87332 0.0
H3562 H 0.14162 0.30657 0.89686 0.0
H3563 H 0.12071 0.27449 0.90832 0.0
H3564 H 0.8419 0.72251 0.59502 0.0
H3565 H 0.83053 0.69131 0.61097 0.0
H3566 H 0.86302 0.7131 0.67897 0.0
H3567 H 0.87463 0.74426 0.66311 0.0
H3568 H 0.86423 0.68294 0.65802 0.0
H3569 H 0.79276 0.66903 0.669 0.0
H3570 H 0.80228 0.67632 0.63772 0.0
H3571 H 0.81195 0.69182 0.66413 0.0
C3572 C 0.84676 0.72064 0.61325 0.0
C3573 C 0.85906 0.73583 0.62789 0.0
C3574 C 0.84015 0.70283 0.62241 0.0
C3575 C 0.84567 0.69996 0.64636 0.0
C3576 C 0.8585 0.71506 0.66053 0.0
H3577 H 0.81865 0.60252 0.73695 0.0
H3578 H 0.83062 0.63424 0.7227 0.0
C3579 C 0.86511 0.73284 0.65141 0.0
C3580 C 0.83787 0.68124 0.65693 0.0
H3581 H 0.79776 0.64407 0.67617 0.0
C3582 C 0.84972 0.67444 0.66211 0.0
C3583 C 0.81895 0.67029 0.66235 0.0
C3584 C 0.80573 0.67724 0.65825 0.0
C3585 C 0.84305 0.65673 0.67197 0.0
C3586 C 0.8241 0.64573 0.67718 0.0
C3587 C 0.81228 0.65259 0.67219 0.0
C3588 C 0.81614 0.62673 0.68674 0.0
C3589 C 0.85625 0.64976 0.67608 0.0
C3590 C 0.80354 0.61211 0.67165 0.0
C3591 C 0.79662 0.59406 0.67977 0.0
C3592 C 0.80211 0.5903 0.70322 0.0
C3593 C 0.81422 0.605 0.71876 0.0
C3594 C 0.82117 0.6231 0.71058 0.0
H3595 H 0.86946 0.6583 0.66601 0.0
H3596 H 0.8592 0.65008 0.69672 0.0
H3597 H 0.8502 0.63536 0.66943 0.0
H3598 H 0.79942 0.61466 0.65326 0.0
H3599 H 0.78726 0.58305 0.66738 0.0
H3600 H 0.25019 0.13154 0.66109 0.0
H3601 H 0.28216 0.15228 0.67262 0.0
H3602 H 0.29972 0.14067 0.60137 0.0
H3603 H 0.2677 0.1197 0.58975 0.0
H3604 H 0.31709 0.13642 0.64412 0.0
H3605 H 0.3194 0.20341 0.64651 0.0
H3606 H 0.30099 0.1858 0.66477 0.0
H3607 H 0.3013 0.1835 0.63078 0.0
C3608 C 0.26082 0.13361 0.64767 0.0
C3609 C 0.25642 0.12398 0.6245 0.0
C3610 C 0.27909 0.14554 0.65425 0.0
C3611 C 0.29328 0.14815 0.63773 0.0
C3612 C 0.28894 0.1389 0.61432 0.0
H3613 H 0.41213 0.20645 0.65492 0.0
H3614 H 0.38072 0.18731 0.63953 0.0
C3615 C 0.27064 0.12697 0.60769 0.0
C3616 C 0.31265 0.15946 0.64578 0.0
H3617 H 0.34459 0.20238 0.66551 0.0
C3618 C 0.32319 0.15088 0.64857 0.0
C3619 C 0.32048 0.17829 0.65168 0.0
C3620 C 0.31003 0.18836 0.64808 0.0
C3621 C 0.34124 0.16054 0.65776 0.0
C3622 C 0.34901 0.17932 0.66392 0.0
C3623 C 0.33854 0.18794 0.66087 0.0
C3624 C 0.368 0.1903 0.67358 0.0
C3625 C 0.35166 0.15044 0.6615 0.0
C3626 C 0.37124 0.19847 0.69772 0.0
C3627 C 0.38916 0.20946 0.70654 0.0
C3628 C 0.40416 0.21257 0.69128 0.0
C3629 C 0.40086 0.20422 0.6672 0.0
C3630 C 0.38293 0.19323 0.6584 0.0
H3631 H 0.34236 0.13533 0.66195 0.0
H3632 H 0.36139 0.15367 0.64547 0.0
H3633 H 0.35969 0.15473 0.67945 0.0
H3634 H 0.35988 0.19641 0.70968 0.0
H3635 H 0.39126 0.21575 0.72514 0.0
H3636 H 0.88316 0.15807 0.59252 0.0
H3637 H 0.86293 0.16905 0.60803 0.0
H3638 H 0.85421 0.13862 0.67765 0.0
H3639 H 0.87453 0.12772 0.66246 0.0
H3640 H 0.82586 0.14979 0.62509 0.0
H3641 H 0.87413 0.19196 0.70162 0.0
H3642 H 0.88087 0.18268 0.67551 0.0
H3643 H 0.86808 0.16826 0.70177 0.0
C3644 C 0.87679 0.15357 0.61102 0.0
C3645 C 0.88056 0.14217 0.62638 0.0
C3646 C 0.86527 0.15987 0.61985 0.0
C3647 C 0.85743 0.15494 0.64417 0.0
C3648 C 0.86048 0.14288 0.65904 0.0
H3649 H 0.78746 0.17956 0.73579 0.0
H3650 H 0.80792 0.16927 0.71905 0.0
C3651 C 0.87199 0.13658 0.65025 0.0
C3652 C 0.84637 0.1627 0.65423 0.0
H3653 H 0.84481 0.1895 0.70181 0.0
C3654 C 0.83001 0.15854 0.64177 0.0
C3655 C 0.85192 0.17415 0.67596 0.0
C3656 C 0.86979 0.17969 0.68941 0.0
C3657 C 0.81877 0.16519 0.65088 0.0
C3658 C 0.82426 0.17654 0.67272 0.0
C3659 C 0.84068 0.18079 0.68507 0.0
C3660 C 0.81292 0.18382 0.68334 0.0
C3661 C 0.80089 0.15965 0.63745 0.0
C3662 C 0.80947 0.19585 0.66909 0.0
C3663 C 0.79781 0.20177 0.6786 0.0
C3664 C 0.7895 0.1958 0.70257 0.0
C3665 C 0.79362 0.18436 0.71724 0.0
C3666 C 0.80528 0.17845 0.70771 0.0
H3667 H 0.79673 0.14763 0.6248 0.0
H3668 H 0.78974 0.15628 0.65139 0.0
H3669 H 0.80246 0.17125 0.62556 0.0
H3670 H 0.81556 0.20043 0.65045 0.0
H3671 H 0.79497 0.21065 0.6669 0.0
H3672 H 0.07622 0.54229 0.50087 0.0
H3673 H 0.04526 0.53347 0.48661 0.0
H3674 H 0.02288 0.50183 0.55517 0.0
H3675 H 0.05384 0.51079 0.56977 0.0
H3676 H 0.01799 0.49762 0.47763 0.0
H3677 H 0.99541 0.53027 0.54984 0.0
H3678 H 0.01919 0.53685 0.54541 0.0
H3679 H 0.00415 0.51649 0.56308 0.0
C3680 C 0.06474 0.53372 0.51314 0.0
C3681 C 0.06746 0.52722 0.53645 0.0
C3682 C 0.04706 0.52867 0.50493 0.0
C3683 C 0.0318 0.51713 0.51991 0.0
C3684 C 0.03449 0.51103 0.54353 0.0
H3685 H 0.91431 0.45966 0.49859 0.0
H3686 H 0.94573 0.47121 0.51344 0.0
C3687 C 0.05219 0.51611 0.5518 0.0
C3688 C 0.01306 0.51033 0.50992 0.0
H3689 H 0.97235 0.50841 0.52236 0.0
C3690 C 0.00804 0.50009 0.48728 0.0
C3691 C 0.00012 0.51352 0.52264 0.0
C3692 C 0.00499 0.52502 0.54647 0.0
C3693 C 0.99028 0.49263 0.47727 0.0
C3694 C 0.97732 0.49573 0.49007 0.0
C3695 C 0.98235 0.50603 0.51264 0.0
C3696 C 0.9584 0.48831 0.48045 0.0
C3697 C 0.9854 0.48111 0.45345 0.0
C3698 C 0.95516 0.49409 0.45695 0.0
C3699 C 0.93722 0.48749 0.44836 0.0
C3700 C 0.92224 0.47506 0.46323 0.0
C3701 C 0.92556 0.46918 0.48666 0.0
C3702 C 0.94348 0.4758 0.49522 0.0
H3703 H 0.99538 0.47644 0.44947 0.0
H3704 H 0.97147 0.4689 0.455 0.0
H3705 H 0.98545 0.48939 0.43698 0.0
H3706 H 0.9665 0.50397 0.44546 0.0
H3707 H 0.9351 0.49236 0.4303 0.0
H3708 H 0.44527 0.53447 0.49893 0.0
H3709 H 0.45529 0.51332 0.48432 0.0
H3710 H 0.48586 0.52215 0.55384 0.0
H3711 H 0.4757 0.54314 0.56878 0.0
H3712 H 0.49166 0.52369 0.47633 0.0
H3713 H 0.45991 0.46653 0.54584 0.0
H3714 H 0.45234 0.48302 0.54202 0.0
H3715 H 0.47258 0.48877 0.56027 0.0
C3716 C 0.45381 0.53161 0.51137 0.0
C3717 C 0.45972 0.54049 0.53501 0.0
C3718 C 0.45955 0.51956 0.50295 0.0
C3719 C 0.47121 0.51609 0.51805 0.0
C3720 C 0.47659 0.52439 0.54208 0.0
H3721 H 0.5341 0.46174 0.49748 0.0
H3722 H 0.52101 0.48036 0.51183 0.0
C3723 C 0.47082 0.53642 0.55055 0.0
C3724 C 0.47902 0.50509 0.50774 0.0
H3725 H 0.48322 0.46746 0.51909 0.0
C3726 C 0.48969 0.51129 0.48553 0.0
C3727 C 0.47648 0.489 0.51988 0.0
C3728 C 0.46457 0.48131 0.54319 0.0
C3729 C 0.49825 0.50205 0.47543 0.0
C3730 C 0.49585 0.48606 0.48769 0.0
C3731 C 0.48507 0.47977 0.50979 0.0
C3732 C 0.50453 0.4757 0.47808 0.0
C3733 C 0.51019 0.50974 0.45213 0.0
C3734 C 0.4997 0.46706 0.45423 0.0
C3735 C 0.50721 0.45644 0.44591 0.0
C3736 C 0.51958 0.45423 0.4614 0.0
C3737 C 0.52465 0.46321 0.48506 0.0
C3738 C 0.51714 0.4738 0.49335 0.0
H3739 H 0.51408 0.52426 0.44863 0.0
H3740 H 0.52289 0.5089 0.45402 0.0
H3741 H 0.50257 0.50159 0.43522 0.0
H3742 H 0.48978 0.46814 0.44233 0.0
H3743 H 0.50295 0.44959 0.42767 0.0
H3744 H 0.53848 0.07958 0.50086 0.0
H3745 H 0.51974 0.04762 0.51402 0.0
H3746 H 0.53112 0.02987 0.44277 0.0
H3747 H 0.55017 0.06191 0.42953 0.0
H3748 H 0.48886 0.01832 0.49151 0.0
H3749 H 0.54731 0.00523 0.49629 0.0
H3750 H 0.55051 0.02805 0.49403 0.0
H3751 H 0.54448 0.01373 0.46626 0.0
C3752 C 0.53691 0.06889 0.48788 0.0
C3753 C 0.54591 0.07326 0.46422 0.0
C3754 C 0.5262 0.05064 0.49546 0.0
C3755 C 0.52435 0.03643 0.47958 0.0
C3756 C 0.53272 0.04069 0.45552 0.0
H3757 H 0.46558 0.91818 0.4982 0.0
H3758 H 0.48525 0.94962 0.4832 0.0
C3759 C 0.54346 0.05897 0.44791 0.0
C3760 C 0.51378 0.01721 0.48847 0.0
H3761 H 0.51774 0.97996 0.50414 0.0
C3762 C 0.49516 0.00992 0.4943 0.0
C3763 C 0.52209 0.00634 0.49209 0.0
C3764 C 0.54223 0.01373 0.48707 0.0
C3765 C 0.48454 0.99196 0.50348 0.0
C3766 C 0.49288 0.98115 0.50732 0.0
C3767 C 0.51145 0.98835 0.50125 0.0
C3768 C 0.48241 0.96226 0.51742 0.0
C3769 C 0.46442 0.9846 0.50864 0.0
C3770 C 0.47489 0.95903 0.54198 0.0
C3771 C 0.46368 0.9411 0.55064 0.0
C3772 C 0.45988 0.92612 0.53487 0.0
C3773 C 0.46821 0.92943 0.51077 0.0
C3774 C 0.47943 0.94737 0.50214 0.0
H3775 H 0.45927 0.99294 0.49913 0.0
H3776 H 0.45612 0.97017 0.50208 0.0
H3777 H 0.46228 0.9849 0.52943 0.0
H3778 H 0.47734 0.97039 0.55422 0.0
H3779 H 0.45753 0.939 0.56933 0.0
H3780 H 0.53906 0.08159 0.0 0.0
H3781 H 0.52841 0.05041 0.01529 0.0
H3782 H 0.49687 0.02847 0.94656 0.0
H3783 H 0.50758 0.05958 0.93099 0.0
H3784 H 0.49173 0.02306 0.02366 0.0
H3785 H 0.5254 0.00087 0.95247 0.0
H3786 H 0.53219 0.02466 0.9574 0.0
H3787 H 0.51211 0.01007 0.93893 0.0
C3788 C 0.53002 0.07014 0.988 0.0
C3789 C 0.5242 0.07304 0.96425 0.0
C3790 C 0.52392 0.05234 0.9968 0.0
C3791 C 0.51202 0.03716 0.98194 0.0
C3792 C 0.50632 0.04001 0.95812 0.0
H3793 H 0.45565 0.91949 -1e-05 0.0
H3794 H 0.46647 0.95103 0.98639 0.0
C3795 C 0.5124 0.0578 0.9493 0.0
C3796 C 0.50493 0.01834 0.99181 0.0
H3797 H 0.50319 0.97773 0.97934 0.0
C3798 C 0.49431 0.01316 0.0141 0.0
C3799 C 0.50833 0.0055 0.97922 0.0
C3800 C 0.52026 0.01055 0.9558 0.0
C3801 C 0.48662 0.99529 0.02384 0.0
C3802 C 0.48991 0.98241 0.01114 0.0
C3803 C 0.50064 0.98764 0.98896 0.0
C3804 C 0.48236 0.96337 0.02044 0.0
C3805 C 0.47468 0.99021 0.04725 0.0
C3806 C 0.4876 0.95988 0.04421 0.0
C3807 C 0.48139 0.94185 0.05209 0.0
C3808 C 0.46994 0.92704 0.03623 0.0
C3809 C 0.46444 0.9306 0.01266 0.0
C3810 C 0.47063 0.9486 0.00483 0.0
H3811 H 0.4698 7e-05 0.05087 0.0
H3812 H 0.46258 0.97623 0.04541 0.0
H3813 H 0.48272 0.99033 0.06405 0.0
H3814 H 0.4969 0.9711 0.05635 0.0
H3815 H 0.48595 0.93954 0.07028 0.0
H3816 H 0.93758 0.45471 0.9286 0.0
H3817 H 0.96935 0.47492 0.94206 0.0
H3818 H 0.95031 0.48533 0.01288 0.0
H3819 H 0.91856 0.46539 -0.00049 0.0
H3820 H 0.9802 0.51675 0.99105 0.0
H3821 H 0.99282 0.45805 0.99675 0.0
H3822 H 0.98472 0.46094 0.96644 0.0
H3823 H 0.97009 0.45498 0.99388 0.0
C3824 C 0.94015 0.46153 0.94687 0.0
C3825 C 0.92558 0.45833 0.9631 0.0
C3826 C 0.9583 0.47295 0.95459 0.0
C3827 C 0.96213 0.48126 0.97869 0.0
C3828 C 0.94762 0.47891 0.9943 0.0
H3829 H 0.06031 0.54781 0.06878 0.0
H3830 H 0.02864 0.52902 0.0539 0.0
C3831 C 0.92949 0.46752 0.98661 0.0
C3832 C 0.98121 0.49178 0.98815 0.0
H3833 H 0.01815 0.48753 0.00465 0.0
C3834 C 0.98851 0.51039 0.99406 0.0
C3835 C 0.99194 0.48336 0.99217 0.0
C3836 C 0.9845 0.4632 0.98722 0.0
C3837 C 0.00643 0.52093 0.0035 0.0
C3838 C 0.01714 0.51251 0.00753 0.0
C3839 C 0.00985 0.49391 0.00158 0.0
C3840 C 0.03614 0.5229 0.01733 0.0
C3841 C 0.01388 0.54108 0.00858 0.0
C3842 C 0.05075 0.52501 0.0021 0.0
C3843 C 0.0688 0.53559 0.01059 0.0
C3844 C 0.07255 0.54417 0.03455 0.0
C3845 C 0.05785 0.54142 0.05021 0.0
C3846 C 0.03978 0.53083 0.04166 0.0
H3847 H 0.00561 0.54628 -0.00103 0.0
H3848 H 0.01355 0.54325 0.02936 0.0
H3849 H 0.02832 0.5493 0.00207 0.0
H3850 H 0.0482 0.51887 0.98334 0.0
H3851 H 0.07981 0.53741 0.99809 0.0
H3852 H 0.53616 0.45169 0.0041 0.0
H3853 H 0.51547 0.46208 0.01959 0.0
H3854 H 0.52324 0.49216 0.94987 0.0
H3855 H 0.54375 0.48167 0.9341 0.0
H3856 H 0.52427 0.49833 0.02722 0.0
H3857 H 0.46747 0.46371 0.95773 0.0
H3858 H 0.48475 0.45724 0.9621 0.0
H3859 H 0.4896 0.47696 0.94317 0.0
C3860 C 0.53329 0.46033 0.99193 0.0
C3861 C 0.54154 0.46582 0.96784 0.0
C3862 C 0.5215 0.46627 0.00084 0.0
C3863 C 0.51767 0.4777 0.98576 0.0
C3864 C 0.52573 0.48305 0.9616 0.0
H3865 H 0.46093 0.53812 0.00097 0.0
H3866 H 0.47992 0.52503 0.98855 0.0
C3867 C 0.53752 0.4771 0.95266 0.0
C3868 C 0.506 0.48482 0.99579 0.0
H3869 H 0.4674 0.48707 0.98329 0.0
C3870 C 0.51174 0.49574 0.01779 0.0
C3871 C 0.48967 0.48138 0.98342 0.0
C3872 C 0.48238 0.46904 0.96044 0.0
C3873 C 0.50187 0.50383 0.0273 0.0
C3874 C 0.48574 0.50069 0.01462 0.0
C3875 C 0.47984 0.48951 0.99288 0.0
C3876 C 0.47501 0.50926 0.0231 0.0
C3877 C 0.50906 0.51614 0.05032 0.0
C3878 C 0.46605 0.50479 0.04674 0.0
C3879 C 0.45518 0.51229 0.05395 0.0
C3880 C 0.45306 0.5243 0.03755 0.0
C3881 C 0.4623 0.52894 0.01406 0.0
C3882 C 0.47312 0.52144 0.00689 0.0
H3883 H 0.52356 0.52027 0.0545 0.0
H3884 H 0.50808 0.5287 0.04757 0.0
H3885 H 0.50066 0.50874 0.06716 0.0
H3886 H 0.46712 0.49519 0.05935 0.0
H3887 H 0.44815 0.50838 0.0721 0.0
loop_
_geom_bond_atom_site_label_1
_geom_bond_atom_site_label_2
_geom_bond_distance
_geom_bond_site_symmetry_2
_ccdc_geom_bond_type
Mn0 O5 2.095 . S
Mn0 O15 2.162 . S
Mn0 O16 2.297 . S
Mn0 O24 2.385 . S
Mn0 O25 2.209 . S
Mn0 O26 2.094 . S
Mn1 O6 2.121 . S
Mn1 N8 2.257 . S
Mn1 N17 2.282 . S
Mn1 O25 2.215 . S
Mn1 O27 2.117 . S
C2 O24 1.234 . S
C2 O25 1.283 . S
C3 O15 1.281 . S
C3 O16 1.236 . S
C4 O26 1.240 . S
C4 O27 1.264 . S
O5 Mn0 2.095 . S
O5 C14 1.250 . S
O6 Mn1 2.121 . S
O6 C14 1.258 . S
C7 N8 1.326 . S
C7 C11 1.460 . S
C7 H13 0.929 . S
N8 Mn1 2.257 . S
N8 C7 1.326 . S
N8 C12 1.362 . S
C9 C10 1.258 . S
C9 C12 1.431 . S
C9 C29 1.449 . S
C10 C9 1.258 . S
C10 C11 1.477 . S
C10 H30 0.931 . S
C11 C7 1.460 . S
C11 C10 1.477 . S
C11 H31 0.930 . S
C12 N8 1.362 . S
C12 C9 1.431 . S
C12 C22 1.476 . S
H13 C7 0.929 . S
C14 O5 1.250 . S
C14 O6 1.258 . S
O15 Mn0 2.162 . S
O15 C3 1.281 . S
O16 Mn0 2.297 . S
O16 C3 1.236 . S
N17 Mn1 2.282 . S
N17 C18 1.328 . S
N17 C22 1.318 . S
C18 N17 1.328 . S
C18 C19 1.457 . S
C18 H23 0.929 . S
C19 C18 1.457 . S
C19 C20 1.291 . S
C19 H32 0.931 . S
C20 C19 1.291 . S
C20 C21 1.373 . S
C20 H33 0.929 . S
C21 C20 1.373 . S
C21 C22 1.396 . S
C21 C28 1.403 . S
C22 C12 1.476 . S
C22 N17 1.318 . S
C22 C21 1.396 . S
H23 C18 0.929 . S
O24 Mn0 2.385 . S
O24 C2 1.234 . S
O25 Mn0 2.209 . S
O25 Mn1 2.215 . S
O25 C2 1.283 . S
O26 Mn0 2.094 . S
O26 C4 1.240 . S
O27 Mn1 2.117 . S
O27 C4 1.264 . S
C28 C21 1.403 . S
C28 C29 1.399 . S
C28 H34 0.929 . S
C29 C9 1.449 . S
C29 C28 1.399 . S
C29 H35 0.930 . S
H30 C10 0.931 . S
H31 C11 0.930 . S
H32 C19 0.931 . S
H33 C20 0.929 . S
H34 C28 0.929 . S
H35 C29 0.930 . S
Mn36 O41 2.095 . S
Mn36 O51 2.162 . S
Mn36 O52 2.297 . S
Mn36 O60 2.385 . S
Mn36 O61 2.209 . S
Mn36 O62 2.094 . S
Mn37 O42 2.121 . S
Mn37 N44 2.257 . S
Mn37 N53 2.282 . S
Mn37 O61 2.215 . S
Mn37 O63 2.117 . S
C38 O60 1.234 . S
C38 O61 1.283 . S
C39 O51 1.281 . S
C39 O52 1.236 . S
C40 O62 1.240 . S
C40 O63 1.264 . S
O41 Mn36 2.095 . S
O41 C50 1.250 . S
O42 Mn37 2.121 . S
O42 C50 1.258 . S
C43 N44 1.326 . S
C43 C47 1.460 . S
C43 H49 0.929 . S
N44 Mn37 2.257 . S
N44 C43 1.326 . S
N44 C48 1.362 . S
C45 C46 1.258 . S
C45 C48 1.431 . S
C45 C65 1.449 . S
C46 C45 1.258 . S
C46 C47 1.477 . S
C46 H66 0.931 . S
C47 C43 1.460 . S
C47 C46 1.477 . S
C47 H67 0.930 . S
C48 N44 1.362 . S
C48 C45 1.431 . S
C48 C58 1.476 . S
H49 C43 0.929 . S
C50 O41 1.250 . S
C50 O42 1.258 . S
O51 Mn36 2.162 . S
O51 C39 1.281 . S
O52 Mn36 2.297 . S
O52 C39 1.236 . S
N53 Mn37 2.282 . S
N53 C54 1.328 . S
N53 C58 1.318 . S
C54 N53 1.328 . S
C54 C55 1.457 1_545 S
C54 H59 0.929 . S
C55 C54 1.457 1_565 S
C55 C56 1.291 . S
C55 H68 0.931 . S
C56 C55 1.291 . S
C56 C57 1.373 1_565 S
C56 H69 0.929 . S
C57 C56 1.373 1_545 S
C57 C58 1.396 . S
C57 C64 1.403 . S
C58 C48 1.476 . S
C58 N53 1.318 . S
C58 C57 1.396 . S
H59 C54 0.929 . S
O60 Mn36 2.385 . S
O60 C38 1.234 . S
O61 Mn36 2.209 . S
O61 Mn37 2.215 . S
O61 C38 1.283 . S
O62 Mn36 2.094 . S
O62 C40 1.240 . S
O63 Mn37 2.117 . S
O63 C40 1.264 . S
C64 C57 1.403 . S
C64 C65 1.399 . S
C64 H70 0.929 1_545 S
C65 C45 1.449 . S
C65 C64 1.399 . S
C65 H71 0.930 . S
H66 C46 0.931 . S
H67 C47 0.930 . S
H68 C55 0.931 . S
H69 C56 0.929 . S
H70 C64 0.929 1_565 S
H71 C65 0.930 . S
Mn72 O77 2.095 . S
Mn72 O87 2.162 . S
Mn72 O88 2.297 . S
Mn72 O96 2.385 . S
Mn72 O97 2.209 . S
Mn72 O98 2.094 . S
Mn73 O78 2.121 . S
Mn73 N80 2.257 . S
Mn73 N89 2.282 . S
Mn73 O97 2.215 . S
Mn73 O99 2.117 . S
C74 O96 1.234 . S
C74 O97 1.283 . S
C75 O87 1.281 . S
C75 O88 1.236 . S
C76 O98 1.240 . S
C76 O99 1.264 . S
O77 Mn72 2.095 . S
O77 C86 1.250 . S
O78 Mn73 2.121 . S
O78 C86 1.258 . S
C79 N80 1.326 . S
C79 C83 1.460 . S
C79 H85 0.929 . S
N80 Mn73 2.257 . S
N80 C79 1.326 . S
N80 C84 1.362 . S
C81 C82 1.258 . S
C81 C84 1.431 . S
C81 C101 1.449 . S
C82 C81 1.258 . S
C82 C83 1.477 . S
C82 H102 0.931 . S
C83 C79 1.460 . S
C83 C82 1.477 . S
C83 H103 0.930 . S
C84 N80 1.362 . S
C84 C81 1.431 . S
C84 C94 1.476 . S
H85 C79 0.929 . S
C86 O77 1.250 . S
C86 O78 1.258 . S
O87 Mn72 2.162 . S
O87 C75 1.281 . S
O88 Mn72 2.297 . S
O88 C75 1.236 . S
N89 Mn73 2.282 . S
N89 C90 1.328 . S
N89 C94 1.318 . S
C90 N89 1.328 . S
C90 C91 1.457 1_655 S
C90 H95 0.929 . S
C91 C90 1.457 1_455 S
C91 C92 1.291 . S
C91 H104 0.931 . S
C92 C91 1.291 . S
C92 C93 1.373 1_455 S
C92 H105 0.929 . S
C93 C92 1.373 1_655 S
C93 C94 1.396 . S
C93 C100 1.403 . S
C94 C84 1.476 . S
C94 N89 1.318 . S
C94 C93 1.396 . S
H95 C90 0.929 . S
O96 Mn72 2.385 . S
O96 C74 1.234 . S
O97 Mn72 2.209 . S
O97 Mn73 2.215 . S
O97 C74 1.283 . S
O98 Mn72 2.094 . S
O98 C76 1.240 . S
O99 Mn73 2.117 . S
O99 C76 1.264 . S
C100 C93 1.403 . S
C100 C101 1.399 . S
C100 H106 0.929 1_655 S
C101 C81 1.449 . S
C101 C100 1.399 . S
C101 H107 0.930 . S
H102 C82 0.931 . S
H103 C83 0.930 . S
H104 C91 0.931 . S
H105 C92 0.929 . S
H106 C100 0.929 1_455 S
H107 C101 0.930 . S
Mn108 O113 2.095 . S
Mn108 O123 2.162 . S
Mn108 O124 2.297 . S
Mn108 O132 2.385 . S
Mn108 O133 2.209 . S
Mn108 O134 2.094 . S
Mn109 O114 2.121 . S
Mn109 N116 2.257 . S
Mn109 N125 2.282 . S
Mn109 O133 2.215 . S
Mn109 O135 2.117 . S
C110 O132 1.234 . S
C110 O133 1.283 . S
C111 O123 1.281 . S
C111 O124 1.236 . S
C112 O134 1.240 . S
C112 O135 1.264 . S
O113 Mn108 2.095 . S
O113 C122 1.250 . S
O114 Mn109 2.121 . S
O114 C122 1.258 . S
C115 N116 1.326 . S
C115 C119 1.460 . S
C115 H121 0.929 . S
N116 Mn109 2.257 . S
N116 C115 1.326 . S
N116 C120 1.362 . S
C117 C118 1.258 . S
C117 C120 1.431 . S
C117 C137 1.449 . S
C118 C117 1.258 . S
C118 C119 1.477 . S
C118 H138 0.931 . S
C119 C115 1.460 . S
C119 C118 1.477 . S
C119 H139 0.930 . S
C120 N116 1.362 . S
C120 C117 1.431 . S
C120 C130 1.476 . S
H121 C115 0.929 . S
C122 O113 1.250 . S
C122 O114 1.258 . S
O123 Mn108 2.162 . S
O123 C111 1.281 . S
O124 Mn108 2.297 . S
O124 C111 1.236 . S
N125 Mn109 2.282 . S
N125 C126 1.328 . S
N125 C130 1.318 . S
C126 N125 1.328 . S
C126 C127 1.457 . S
C126 H131 0.929 . S
C127 C126 1.457 . S
C127 C128 1.291 . S
C127 H140 0.931 . S
C128 C127 1.291 . S
C128 C129 1.373 . S
C128 H141 0.929 . S
C129 C128 1.373 . S
C129 C130 1.396 . S
C129 C136 1.403 . S
C130 C120 1.476 . S
C130 N125 1.318 . S
C130 C129 1.396 . S
H131 C126 0.929 . S
O132 Mn108 2.385 . S
O132 C110 1.234 . S
O133 Mn108 2.209 . S
O133 Mn109 2.215 . S
O133 C110 1.283 . S
O134 Mn108 2.094 . S
O134 C112 1.240 . S
O135 Mn109 2.117 . S
O135 C112 1.264 . S
C136 C129 1.403 . S
C136 C137 1.399 . S
C136 H142 0.929 . S
C137 C117 1.449 . S
C137 C136 1.399 . S
C137 H143 0.930 . S
H138 C118 0.931 . S
H139 C119 0.930 . S
H140 C127 0.931 . S
H141 C128 0.929 . S
H142 C136 0.929 . S
H143 C137 0.930 . S
Mn144 O149 2.095 . S
Mn144 O159 2.162 . S
Mn144 O160 2.297 . S
Mn144 O168 2.385 . S
Mn144 O169 2.209 . S
Mn144 O170 2.094 . S
Mn145 O150 2.121 . S
Mn145 N152 2.257 . S
Mn145 N161 2.282 . S
Mn145 O169 2.215 . S
Mn145 O171 2.117 . S
C146 O168 1.234 . S
C146 O169 1.283 . S
C147 O159 1.281 . S
C147 O160 1.236 . S
C148 O170 1.240 . S
C148 O171 1.264 . S
O149 Mn144 2.095 . S
O149 C158 1.250 . S
O150 Mn145 2.121 . S
O150 C158 1.258 . S
C151 N152 1.326 . S
C151 C155 1.460 . S
C151 H157 0.929 . S
N152 Mn145 2.257 . S
N152 C151 1.326 . S
N152 C156 1.362 . S
C153 C154 1.258 . S
C153 C156 1.431 . S
C153 C173 1.449 . S
C154 C153 1.258 . S
C154 C155 1.477 . S
C154 H174 0.931 . S
C155 C151 1.460 . S
C155 C154 1.477 . S
C155 H175 0.930 . S
C156 N152 1.362 . S
C156 C153 1.431 . S
C156 C166 1.476 . S
H157 C151 0.929 . S
C158 O149 1.250 . S
C158 O150 1.258 . S
O159 Mn144 2.162 . S
O159 C147 1.281 . S
O160 Mn144 2.297 . S
O160 C147 1.236 . S
N161 Mn145 2.282 . S
N161 C162 1.328 . S
N161 C166 1.318 . S
C162 N161 1.328 . S
C162 C163 1.457 1_565 S
C162 H167 0.929 . S
C163 C162 1.457 1_545 S
C163 C164 1.291 . S
C163 H176 0.931 . S
C164 C163 1.291 . S
C164 C165 1.373 1_545 S
C164 H177 0.929 . S
C165 C164 1.373 1_565 S
C165 C166 1.396 . S
C165 C172 1.403 . S
C166 C156 1.476 . S
C166 N161 1.318 . S
C166 C165 1.396 . S
H167 C162 0.929 . S
O168 Mn144 2.385 . S
O168 C146 1.234 . S
O169 Mn144 2.209 . S
O169 Mn145 2.215 . S
O169 C146 1.283 . S
O170 Mn144 2.094 . S
O170 C148 1.240 . S
O171 Mn145 2.117 . S
O171 C148 1.264 . S
C172 C165 1.403 . S
C172 C173 1.399 . S
C172 H178 0.929 1_565 S
C173 C153 1.449 . S
C173 C172 1.399 . S
C173 H179 0.930 . S
H174 C154 0.931 . S
H175 C155 0.930 . S
H176 C163 0.931 . S
H177 C164 0.929 . S
H178 C172 0.929 1_545 S
H179 C173 0.930 . S
Mn180 O185 2.095 . S
Mn180 O195 2.162 . S
Mn180 O196 2.297 . S
Mn180 O204 2.385 . S
Mn180 O205 2.209 . S
Mn180 O206 2.094 . S
Mn181 O186 2.121 . S
Mn181 N188 2.257 . S
Mn181 N197 2.282 . S
Mn181 O205 2.215 . S
Mn181 O207 2.117 . S
C182 O204 1.234 . S
C182 O205 1.283 . S
C183 O195 1.281 . S
C183 O196 1.236 . S
C184 O206 1.240 . S
C184 O207 1.264 . S
O185 Mn180 2.095 . S
O185 C194 1.250 . S
O186 Mn181 2.121 . S
O186 C194 1.258 . S
C187 N188 1.326 . S
C187 C191 1.460 . S
C187 H193 0.929 . S
N188 Mn181 2.257 . S
N188 C187 1.326 . S
N188 C192 1.362 . S
C189 C190 1.258 . S
C189 C192 1.431 . S
C189 C209 1.449 . S
C190 C189 1.258 . S
C190 C191 1.477 . S
C190 H210 0.931 . S
C191 C187 1.460 . S
C191 C190 1.477 . S
C191 H211 0.930 . S
C192 N188 1.362 . S
C192 C189 1.431 . S
C192 C202 1.476 . S
H193 C187 0.929 . S
C194 O185 1.250 . S
C194 O186 1.258 . S
O195 Mn180 2.162 . S
O195 C183 1.281 . S
O196 Mn180 2.297 . S
O196 C183 1.236 . S
N197 Mn181 2.282 . S
N197 C198 1.328 . S
N197 C202 1.318 . S
C198 N197 1.328 . S
C198 C199 1.457 1_455 S
C198 H203 0.929 . S
C199 C198 1.457 1_655 S
C199 C200 1.291 . S
C199 H212 0.931 . S
C200 C199 1.291 . S
C200 C201 1.373 1_655 S
C200 H213 0.929 . S
C201 C200 1.373 1_455 S
C201 C202 1.396 . S
C201 C208 1.403 . S
C202 C192 1.476 . S
C202 N197 1.318 . S
C202 C201 1.396 . S
H203 C198 0.929 . S
O204 Mn180 2.385 . S
O204 C182 1.234 . S
O205 Mn180 2.209 . S
O205 Mn181 2.215 . S
O205 C182 1.283 . S
O206 Mn180 2.094 . S
O206 C184 1.240 . S
O207 Mn181 2.117 . S
O207 C184 1.264 . S
C208 C201 1.403 . S
C208 C209 1.399 . S
C208 H214 0.929 1_455 S
C209 C189 1.449 . S
C209 C208 1.399 . S
C209 H215 0.930 . S
H210 C190 0.931 . S
H211 C191 0.930 . S
H212 C199 0.931 . S
H213 C200 0.929 . S
H214 C208 0.929 1_655 S
H215 C209 0.930 . S
Mn216 O221 2.095 . S
Mn216 O231 2.162 . S
Mn216 O232 2.297 . S
Mn216 O240 2.385 . S
Mn216 O241 2.209 . S
Mn216 O242 2.094 . S
Mn217 O222 2.121 . S
Mn217 N224 2.257 . S
Mn217 N233 2.282 . S
Mn217 O241 2.215 . S
Mn217 O243 2.117 . S
C218 O240 1.234 . S
C218 O241 1.283 . S
C219 O231 1.281 . S
C219 O232 1.236 . S
C220 O242 1.240 . S
C220 O243 1.264 . S
O221 Mn216 2.095 . S
O221 C230 1.250 . S
O222 Mn217 2.121 . S
O222 C230 1.258 . S
C223 N224 1.326 . S
C223 C227 1.460 . S
C223 H229 0.929 . S
N224 Mn217 2.257 . S
N224 C223 1.326 . S
N224 C228 1.362 . S
C225 C226 1.258 . S
C225 C228 1.431 . S
C225 C245 1.449 . S
C226 C225 1.258 . S
C226 C227 1.477 . S
C226 H246 0.931 . S
C227 C223 1.460 . S
C227 C226 1.477 . S
C227 H247 0.930 . S
C228 N224 1.362 . S
C228 C225 1.431 . S
C228 C238 1.476 . S
H229 C223 0.929 . S
C230 O221 1.250 . S
C230 O222 1.258 . S
O231 Mn216 2.162 . S
O231 C219 1.281 . S
O232 Mn216 2.297 . S
O232 C219 1.236 . S
N233 Mn217 2.282 . S
N233 C234 1.328 . S
N233 C238 1.318 . S
C234 N233 1.328 . S
C234 C235 1.457 . S
C234 H239 0.929 . S
C235 C234 1.457 . S
C235 C236 1.291 . S
C235 H248 0.931 . S
C236 C235 1.291 . S
C236 C237 1.373 . S
C236 H249 0.929 . S
C237 C236 1.373 . S
C237 C238 1.396 . S
C237 C244 1.403 . S
C238 C228 1.476 . S
C238 N233 1.318 . S
C238 C237 1.396 . S
H239 C234 0.929 . S
O240 Mn216 2.385 . S
O240 C218 1.234 . S
O241 Mn216 2.209 . S
O241 Mn217 2.215 . S
O241 C218 1.283 . S
O242 Mn216 2.094 . S
O242 C220 1.240 . S
O243 Mn217 2.117 . S
O243 C220 1.264 . S
C244 C237 1.403 . S
C244 C245 1.399 . S
C244 H250 0.929 . S
C245 C225 1.449 . S
C245 C244 1.399 . S
C245 H251 0.930 . S
H246 C226 0.931 . S
H247 C227 0.930 . S
H248 C235 0.931 . S
H249 C236 0.929 . S
H250 C244 0.929 . S
H251 C245 0.930 . S
Mn252 O257 2.095 . S
Mn252 O267 2.162 . S
Mn252 O268 2.297 . S
Mn252 O276 2.385 . S
Mn252 O277 2.209 . S
Mn252 O278 2.094 . S
Mn253 O258 2.121 . S
Mn253 N260 2.257 . S
Mn253 N269 2.282 . S
Mn253 O277 2.215 . S
Mn253 O279 2.117 . S
C254 O276 1.234 . S
C254 O277 1.283 . S
C255 O267 1.281 . S
C255 O268 1.236 . S
C256 O278 1.240 . S
C256 O279 1.264 . S
O257 Mn252 2.095 . S
O257 C266 1.250 . S
O258 Mn253 2.121 . S
O258 C266 1.258 . S
C259 N260 1.326 . S
C259 C263 1.460 . S
C259 H265 0.929 . S
N260 Mn253 2.257 . S
N260 C259 1.326 . S
N260 C264 1.362 . S
C261 C262 1.258 . S
C261 C264 1.431 . S
C261 C281 1.449 . S
C262 C261 1.258 . S
C262 C263 1.477 . S
C262 H282 0.931 . S
C263 C259 1.460 . S
C263 C262 1.477 . S
C263 H283 0.930 . S
C264 N260 1.362 . S
C264 C261 1.431 . S
C264 C274 1.476 . S
H265 C259 0.929 . S
C266 O257 1.250 . S
C266 O258 1.258 . S
O267 Mn252 2.162 . S
O267 C255 1.281 . S
O268 Mn252 2.297 . S
O268 C255 1.236 . S
N269 Mn253 2.282 . S
N269 C270 1.328 . S
N269 C274 1.318 . S
C270 N269 1.328 . S
C270 C271 1.457 1_565 S
C270 H275 0.929 . S
C271 C270 1.457 1_545 S
C271 C272 1.291 . S
C271 H284 0.931 . S
C272 C271 1.291 . S
C272 C273 1.373 1_545 S
C272 H285 0.929 . S
C273 C272 1.373 1_565 S
C273 C274 1.396 . S
C273 C280 1.403 . S
C274 C264 1.476 . S
C274 N269 1.318 . S
C274 C273 1.396 . S
H275 C270 0.929 . S
O276 Mn252 2.385 . S
O276 C254 1.234 . S
O277 Mn252 2.209 . S
O277 Mn253 2.215 . S
O277 C254 1.283 . S
O278 Mn252 2.094 . S
O278 C256 1.240 . S
O279 Mn253 2.117 . S
O279 C256 1.264 . S
C280 C273 1.403 . S
C280 C281 1.399 . S
C280 H286 0.929 1_565 S
C281 C261 1.449 . S
C281 C280 1.399 . S
C281 H287 0.930 . S
H282 C262 0.931 . S
H283 C263 0.930 . S
H284 C271 0.931 . S
H285 C272 0.929 . S
H286 C280 0.929 1_545 S
H287 C281 0.930 . S
Mn288 O293 2.095 . S
Mn288 O303 2.162 . S
Mn288 O304 2.297 . S
Mn288 O312 2.385 . S
Mn288 O313 2.209 . S
Mn288 O314 2.094 . S
Mn289 O294 2.121 . S
Mn289 N296 2.257 . S
Mn289 N305 2.282 . S
Mn289 O313 2.215 . S
Mn289 O315 2.117 . S
C290 O312 1.234 . S
C290 O313 1.283 . S
C291 O303 1.281 . S
C291 O304 1.236 . S
C292 O314 1.240 . S
C292 O315 1.264 . S
O293 Mn288 2.095 . S
O293 C302 1.250 . S
O294 Mn289 2.121 . S
O294 C302 1.258 . S
C295 N296 1.326 . S
C295 C299 1.460 . S
C295 H301 0.929 . S
N296 Mn289 2.257 . S
N296 C295 1.326 . S
N296 C300 1.362 . S
C297 C298 1.258 . S
C297 C300 1.431 . S
C297 C317 1.449 . S
C298 C297 1.258 . S
C298 C299 1.477 . S
C298 H318 0.931 . S
C299 C295 1.460 . S
C299 C298 1.477 . S
C299 H319 0.930 . S
C300 N296 1.362 . S
C300 C297 1.431 . S
C300 C310 1.476 . S
H301 C295 0.929 . S
C302 O293 1.250 . S
C302 O294 1.258 . S
O303 Mn288 2.162 . S
O303 C291 1.281 . S
O304 Mn288 2.297 . S
O304 C291 1.236 . S
N305 Mn289 2.282 . S
N305 C306 1.328 . S
N305 C310 1.318 . S
C306 N305 1.328 . S
C306 C307 1.457 1_455 S
C306 H311 0.929 . S
C307 C306 1.457 1_655 S
C307 C308 1.291 . S
C307 H320 0.931 . S
C308 C307 1.291 . S
C308 C309 1.373 1_655 S
C308 H321 0.929 . S
C309 C308 1.373 1_455 S
C309 C310 1.396 . S
C309 C316 1.403 . S
C310 C300 1.476 . S
C310 N305 1.318 . S
C310 C309 1.396 . S
H311 C306 0.929 . S
O312 Mn288 2.385 . S
O312 C290 1.234 . S
O313 Mn288 2.209 . S
O313 Mn289 2.215 . S
O313 C290 1.283 . S
O314 Mn288 2.094 . S
O314 C292 1.240 . S
O315 Mn289 2.117 . S
O315 C292 1.264 . S
C316 C309 1.403 . S
C316 C317 1.399 . S
C316 H322 0.929 1_455 S
C317 C297 1.449 . S
C317 C316 1.399 . S
C317 H323 0.930 . S
H318 C298 0.931 . S
H319 C299 0.930 . S
H320 C307 0.931 . S
H321 C308 0.929 . S
H322 C316 0.929 1_655 S
H323 C317 0.930 . S
Mn324 O329 2.095 . S
Mn324 O339 2.162 . S
Mn324 O340 2.297 . S
Mn324 O348 2.385 . S
Mn324 O349 2.209 . S
Mn324 O350 2.094 . S
Mn325 O330 2.121 . S
Mn325 N332 2.257 . S
Mn325 N341 2.282 . S
Mn325 O349 2.215 . S
Mn325 O351 2.117 . S
C326 O348 1.234 . S
C326 O349 1.283 . S
C327 O339 1.281 . S
C327 O340 1.236 . S
C328 O350 1.240 . S
C328 O351 1.264 . S
O329 Mn324 2.095 . S
O329 C338 1.250 . S
O330 Mn325 2.121 . S
O330 C338 1.258 . S
C331 N332 1.326 . S
C331 C335 1.460 . S
C331 H337 0.929 . S
N332 Mn325 2.257 . S
N332 C331 1.326 . S
N332 C336 1.362 . S
C333 C334 1.258 . S
C333 C336 1.431 . S
C333 C353 1.449 . S
C334 C333 1.258 . S
C334 C335 1.477 . S
C334 H354 0.931 . S
C335 C331 1.460 . S
C335 C334 1.477 . S
C335 H355 0.930 . S
C336 N332 1.362 . S
C336 C333 1.431 . S
C336 C346 1.476 . S
H337 C331 0.929 . S
C338 O329 1.250 . S
C338 O330 1.258 . S
O339 Mn324 2.162 . S
O339 C327 1.281 . S
O340 Mn324 2.297 . S
O340 C327 1.236 . S
N341 Mn325 2.282 . S
N341 C342 1.328 . S
N341 C346 1.318 . S
C342 N341 1.328 . S
C342 C343 1.457 . S
C342 H347 0.929 . S
C343 C342 1.457 . S
C343 C344 1.291 . S
C343 H356 0.931 . S
C344 C343 1.291 . S
C344 C345 1.373 . S
C344 H357 0.929 . S
C345 C344 1.373 . S
C345 C346 1.396 . S
C345 C352 1.403 . S
C346 C336 1.476 . S
C346 N341 1.318 . S
C346 C345 1.396 . S
H347 C342 0.929 . S
O348 Mn324 2.385 . S
O348 C326 1.234 . S
O349 Mn324 2.209 . S
O349 Mn325 2.215 . S
O349 C326 1.283 . S
O350 Mn324 2.094 . S
O350 C328 1.240 . S
O351 Mn325 2.117 . S
O351 C328 1.264 . S
C352 C345 1.403 . S
C352 C353 1.399 . S
C352 H358 0.929 . S
C353 C333 1.449 . S
C353 C352 1.399 . S
C353 H359 0.930 . S
H354 C334 0.931 . S
H355 C335 0.930 . S
H356 C343 0.931 . S
H357 C344 0.929 . S
H358 C352 0.929 . S
H359 C353 0.930 . S
Mn360 O365 2.095 . S
Mn360 O375 2.162 . S
Mn360 O376 2.297 . S
Mn360 O384 2.385 . S
Mn360 O385 2.209 . S
Mn360 O386 2.094 . S
Mn361 O366 2.121 . S
Mn361 N368 2.257 . S
Mn361 N377 2.282 . S
Mn361 O385 2.215 . S
Mn361 O387 2.117 . S
C362 O384 1.234 . S
C362 O385 1.283 . S
C363 O375 1.281 . S
C363 O376 1.236 . S
C364 O386 1.240 . S
C364 O387 1.264 . S
O365 Mn360 2.095 . S
O365 C374 1.250 . S
O366 Mn361 2.121 . S
O366 C374 1.258 . S
C367 N368 1.326 . S
C367 C371 1.460 . S
C367 H373 0.929 . S
N368 Mn361 2.257 . S
N368 C367 1.326 . S
N368 C372 1.362 . S
C369 C370 1.258 . S
C369 C372 1.431 . S
C369 C389 1.449 . S
C370 C369 1.258 . S
C370 C371 1.477 . S
C370 H390 0.931 . S
C371 C367 1.460 . S
C371 C370 1.477 . S
C371 H391 0.930 . S
C372 N368 1.362 . S
C372 C369 1.431 . S
C372 C382 1.476 . S
H373 C367 0.929 . S
C374 O365 1.250 . S
C374 O366 1.258 . S
O375 Mn360 2.162 . S
O375 C363 1.281 . S
O376 Mn360 2.297 . S
O376 C363 1.236 . S
N377 Mn361 2.282 . S
N377 C378 1.328 . S
N377 C382 1.318 . S
C378 N377 1.328 . S
C378 C379 1.457 1_545 S
C378 H383 0.929 . S
C379 C378 1.457 1_565 S
C379 C380 1.291 . S
C379 H392 0.931 . S
C380 C379 1.291 . S
C380 C381 1.373 1_565 S
C380 H393 0.929 . S
C381 C380 1.373 1_545 S
C381 C382 1.396 . S
C381 C388 1.403 . S
C382 C372 1.476 . S
C382 N377 1.318 . S
C382 C381 1.396 . S
H383 C378 0.929 . S
O384 Mn360 2.385 . S
O384 C362 1.234 . S
O385 Mn360 2.209 . S
O385 Mn361 2.215 . S
O385 C362 1.283 . S
O386 Mn360 2.094 . S
O386 C364 1.240 . S
O387 Mn361 2.117 . S
O387 C364 1.264 . S
C388 C381 1.403 . S
C388 C389 1.399 . S
C388 H394 0.929 1_545 S
C389 C369 1.449 . S
C389 C388 1.399 . S
C389 H395 0.930 . S
H390 C370 0.931 . S
H391 C371 0.930 . S
H392 C379 0.931 . S
H393 C380 0.929 . S
H394 C388 0.929 1_565 S
H395 C389 0.930 . S
Mn396 O401 2.095 . S
Mn396 O411 2.162 . S
Mn396 O412 2.297 . S
Mn396 O420 2.385 . S
Mn396 O421 2.209 . S
Mn396 O422 2.094 . S
Mn397 O402 2.121 . S
Mn397 N404 2.257 . S
Mn397 N413 2.282 . S
Mn397 O421 2.215 . S
Mn397 O423 2.117 . S
C398 O420 1.234 . S
C398 O421 1.283 . S
C399 O411 1.281 . S
C399 O412 1.236 . S
C400 O422 1.240 . S
C400 O423 1.264 . S
O401 Mn396 2.095 . S
O401 C410 1.250 . S
O402 Mn397 2.121 . S
O402 C410 1.258 . S
C403 N404 1.326 . S
C403 C407 1.460 . S
C403 H409 0.929 . S
N404 Mn397 2.257 . S
N404 C403 1.326 . S
N404 C408 1.362 . S
C405 C406 1.258 . S
C405 C408 1.431 . S
C405 C425 1.449 . S
C406 C405 1.258 . S
C406 C407 1.477 . S
C406 H426 0.931 . S
C407 C403 1.460 . S
C407 C406 1.477 . S
C407 H427 0.930 . S
C408 N404 1.362 . S
C408 C405 1.431 . S
C408 C418 1.476 . S
H409 C403 0.929 . S
C410 O401 1.250 . S
C410 O402 1.258 . S
O411 Mn396 2.162 . S
O411 C399 1.281 . S
O412 Mn396 2.297 . S
O412 C399 1.236 . S
N413 Mn397 2.282 . S
N413 C414 1.328 . S
N413 C418 1.318 . S
C414 N413 1.328 . S
C414 C415 1.457 1_655 S
C414 H419 0.929 . S
C415 C414 1.457 1_455 S
C415 C416 1.291 . S
C415 H428 0.931 . S
C416 C415 1.291 . S
C416 C417 1.373 1_455 S
C416 H429 0.929 . S
C417 C416 1.373 1_655 S
C417 C418 1.396 . S
C417 C424 1.403 . S
C418 C408 1.476 . S
C418 N413 1.318 . S
C418 C417 1.396 . S
H419 C414 0.929 . S
O420 Mn396 2.385 . S
O420 C398 1.234 . S
O421 Mn396 2.209 . S
O421 Mn397 2.215 . S
O421 C398 1.283 . S
O422 Mn396 2.094 . S
O422 C400 1.240 . S
O423 Mn397 2.117 . S
O423 C400 1.264 . S
C424 C417 1.403 . S
C424 C425 1.399 . S
C424 H430 0.929 1_655 S
C425 C405 1.449 . S
C425 C424 1.399 . S
C425 H431 0.930 . S
H426 C406 0.931 . S
H427 C407 0.930 . S
H428 C415 0.931 . S
H429 C416 0.929 . S
H430 C424 0.929 1_455 S
H431 C425 0.930 . S
Mn432 O437 2.095 . S
Mn432 O447 2.162 . S
Mn432 O448 2.297 . S
Mn432 O456 2.385 . S
Mn432 O457 2.209 . S
Mn432 O458 2.094 . S
Mn433 O438 2.121 . S
Mn433 N440 2.257 . S
Mn433 N449 2.282 . S
Mn433 O457 2.215 . S
Mn433 O459 2.117 . S
C434 O456 1.234 . S
C434 O457 1.283 . S
C435 O447 1.281 . S
C435 O448 1.236 . S
C436 O458 1.240 . S
C436 O459 1.264 . S
O437 Mn432 2.095 . S
O437 C446 1.250 . S
O438 Mn433 2.121 . S
O438 C446 1.258 . S
C439 N440 1.326 . S
C439 C443 1.460 . S
C439 H445 0.929 . S
N440 Mn433 2.257 . S
N440 C439 1.326 . S
N440 C444 1.362 . S
C441 C442 1.258 . S
C441 C444 1.431 . S
C441 C461 1.449 . S
C442 C441 1.258 . S
C442 C443 1.477 . S
C442 H462 0.931 . S
C443 C439 1.460 . S
C443 C442 1.477 . S
C443 H463 0.930 . S
C444 N440 1.362 . S
C444 C441 1.431 . S
C444 C454 1.476 . S
H445 C439 0.929 . S
C446 O437 1.250 . S
C446 O438 1.258 . S
O447 Mn432 2.162 . S
O447 C435 1.281 . S
O448 Mn432 2.297 . S
O448 C435 1.236 . S
N449 Mn433 2.282 . S
N449 C450 1.328 . S
N449 C454 1.318 . S
C450 N449 1.328 . S
C450 C451 1.457 . S
C450 H455 0.929 . S
C451 C450 1.457 . S
C451 C452 1.291 . S
C451 H464 0.931 . S
C452 C451 1.291 . S
C452 C453 1.373 . S
C452 H465 0.929 . S
C453 C452 1.373 . S
C453 C454 1.396 . S
C453 C460 1.403 . S
C454 C444 1.476 . S
C454 N449 1.318 . S
C454 C453 1.396 . S
H455 C450 0.929 . S
O456 Mn432 2.385 . S
O456 C434 1.234 . S
O457 Mn432 2.209 . S
O457 Mn433 2.215 . S
O457 C434 1.283 . S
O458 Mn432 2.094 . S
O458 C436 1.240 . S
O459 Mn433 2.117 . S
O459 C436 1.264 . S
C460 C453 1.403 . S
C460 C461 1.399 . S
C460 H466 0.929 . S
C461 C441 1.449 . S
C461 C460 1.399 . S
C461 H467 0.930 . S
H462 C442 0.931 . S
H463 C443 0.930 . S
H464 C451 0.931 . S
H465 C452 0.929 . S
H466 C460 0.929 . S
H467 C461 0.930 . S
Mn468 O473 2.095 . S
Mn468 O483 2.162 . S
Mn468 O484 2.297 . S
Mn468 O492 2.385 . S
Mn468 O493 2.209 . S
Mn468 O494 2.094 . S
Mn469 O474 2.121 . S
Mn469 N476 2.257 . S
Mn469 N485 2.282 . S
Mn469 O493 2.215 . S
Mn469 O495 2.117 . S
C470 O492 1.234 . S
C470 O493 1.283 . S
C471 O483 1.281 . S
C471 O484 1.236 . S
C472 O494 1.240 . S
C472 O495 1.264 . S
O473 Mn468 2.095 . S
O473 C482 1.250 . S
O474 Mn469 2.121 . S
O474 C482 1.258 . S
C475 N476 1.326 . S
C475 C479 1.460 . S
C475 H481 0.929 . S
N476 Mn469 2.257 . S
N476 C475 1.326 . S
N476 C480 1.362 . S
C477 C478 1.258 . S
C477 C480 1.431 . S
C477 C497 1.449 . S
C478 C477 1.258 . S
C478 C479 1.477 . S
C478 H498 0.931 . S
C479 C475 1.460 . S
C479 C478 1.477 . S
C479 H499 0.930 . S
C480 N476 1.362 . S
C480 C477 1.431 . S
C480 C490 1.476 . S
H481 C475 0.929 . S
C482 O473 1.250 . S
C482 O474 1.258 . S
O483 Mn468 2.162 . S
O483 C471 1.281 . S
O484 Mn468 2.297 . S
O484 C471 1.236 . S
N485 Mn469 2.282 . S
N485 C486 1.328 . S
N485 C490 1.318 . S
C486 N485 1.328 . S
C486 C487 1.457 . S
C486 H491 0.929 . S
C487 C486 1.457 . S
C487 C488 1.291 . S
C487 H500 0.931 . S
C488 C487 1.291 . S
C488 C489 1.373 . S
C488 H501 0.929 . S
C489 C488 1.373 . S
C489 C490 1.396 . S
C489 C496 1.403 . S
C490 C480 1.476 . S
C490 N485 1.318 . S
C490 C489 1.396 . S
H491 C486 0.929 . S
O492 Mn468 2.385 . S
O492 C470 1.234 . S
O493 Mn468 2.209 . S
O493 Mn469 2.215 . S
O493 C470 1.283 . S
O494 Mn468 2.094 . S
O494 C472 1.240 . S
O495 Mn469 2.117 . S
O495 C472 1.264 . S
C496 C489 1.403 . S
C496 C497 1.399 . S
C496 H502 0.929 . S
C497 C477 1.449 . S
C497 C496 1.399 . S
C497 H503 0.930 . S
H498 C478 0.931 . S
H499 C479 0.930 . S
H500 C487 0.931 . S
H501 C488 0.929 . S
H502 C496 0.929 . S
H503 C497 0.930 . S
Mn504 O509 2.095 . S
Mn504 O519 2.162 . S
Mn504 O520 2.297 . S
Mn504 O528 2.385 . S
Mn504 O529 2.209 . S
Mn504 O530 2.094 . S
Mn505 O510 2.121 . S
Mn505 N512 2.257 . S
Mn505 N521 2.282 . S
Mn505 O529 2.215 . S
Mn505 O531 2.117 . S
C506 O528 1.234 . S
C506 O529 1.283 . S
C507 O519 1.281 . S
C507 O520 1.236 . S
C508 O530 1.240 . S
C508 O531 1.264 . S
O509 Mn504 2.095 . S
O509 C518 1.250 . S
O510 Mn505 2.121 . S
O510 C518 1.258 . S
C511 N512 1.326 . S
C511 C515 1.460 . S
C511 H517 0.929 . S
N512 Mn505 2.257 . S
N512 C511 1.326 . S
N512 C516 1.362 . S
C513 C514 1.258 . S
C513 C516 1.431 . S
C513 C533 1.449 . S
C514 C513 1.258 . S
C514 C515 1.477 . S
C514 H534 0.931 . S
C515 C511 1.460 . S
C515 C514 1.477 . S
C515 H535 0.930 . S
C516 N512 1.362 . S
C516 C513 1.431 . S
C516 C526 1.476 . S
H517 C511 0.929 . S
C518 O509 1.250 . S
C518 O510 1.258 . S
O519 Mn504 2.162 . S
O519 C507 1.281 . S
O520 Mn504 2.297 . S
O520 C507 1.236 . S
N521 Mn505 2.282 . S
N521 C522 1.328 . S
N521 C526 1.318 . S
C522 N521 1.328 . S
C522 C523 1.457 . S
C522 H527 0.929 . S
C523 C522 1.457 . S
C523 C524 1.291 . S
C523 H536 0.931 . S
C524 C523 1.291 . S
C524 C525 1.373 . S
C524 H537 0.929 . S
C525 C524 1.373 . S
C525 C526 1.396 . S
C525 C532 1.403 . S
C526 C516 1.476 . S
C526 N521 1.318 . S
C526 C525 1.396 . S
H527 C522 0.929 . S
O528 Mn504 2.385 . S
O528 C506 1.234 . S
O529 Mn504 2.209 . S
O529 Mn505 2.215 . S
O529 C506 1.283 . S
O530 Mn504 2.094 . S
O530 C508 1.240 . S
O531 Mn505 2.117 . S
O531 C508 1.264 . S
C532 C525 1.403 . S
C532 C533 1.399 . S
C532 H538 0.929 . S
C533 C513 1.449 . S
C533 C532 1.399 . S
C533 H539 0.930 . S
H534 C514 0.931 . S
H535 C515 0.930 . S
H536 C523 0.931 . S
H537 C524 0.929 . S
H538 C532 0.929 . S
H539 C533 0.930 . S
Mn540 O545 2.095 . S
Mn540 O555 2.162 . S
Mn540 O556 2.297 . S
Mn540 O564 2.385 . S
Mn540 O565 2.209 . S
Mn540 O566 2.094 . S
Mn541 O546 2.121 . S
Mn541 N548 2.257 . S
Mn541 N557 2.282 . S
Mn541 O565 2.215 . S
Mn541 O567 2.117 . S
C542 O564 1.234 . S
C542 O565 1.283 . S
C543 O555 1.281 . S
C543 O556 1.236 . S
C544 O566 1.240 . S
C544 O567 1.264 . S
O545 Mn540 2.095 . S
O545 C554 1.250 . S
O546 Mn541 2.121 . S
O546 C554 1.258 . S
C547 N548 1.326 . S
C547 C551 1.460 . S
C547 H553 0.929 . S
N548 Mn541 2.257 . S
N548 C547 1.326 . S
N548 C552 1.362 . S
C549 C550 1.258 . S
C549 C552 1.431 . S
C549 C569 1.449 . S
C550 C549 1.258 . S
C550 C551 1.477 . S
C550 H570 0.931 . S
C551 C547 1.460 . S
C551 C550 1.477 . S
C551 H571 0.930 . S
C552 N548 1.362 . S
C552 C549 1.431 . S
C552 C562 1.476 . S
H553 C547 0.929 . S
C554 O545 1.250 . S
C554 O546 1.258 . S
O555 Mn540 2.162 . S
O555 C543 1.281 . S
O556 Mn540 2.297 . S
O556 C543 1.236 . S
N557 Mn541 2.282 . S
N557 C558 1.328 . S
N557 C562 1.318 . S
C558 N557 1.328 . S
C558 C559 1.457 . S
C558 H563 0.929 . S
C559 C558 1.457 . S
C559 C560 1.291 . S
C559 H572 0.931 . S
C560 C559 1.291 . S
C560 C561 1.373 . S
C560 H573 0.929 . S
C561 C560 1.373 . S
C561 C562 1.396 . S
C561 C568 1.403 . S
C562 C552 1.476 . S
C562 N557 1.318 . S
C562 C561 1.396 . S
H563 C558 0.929 . S
O564 Mn540 2.385 . S
O564 C542 1.234 . S
O565 Mn540 2.209 . S
O565 Mn541 2.215 . S
O565 C542 1.283 . S
O566 Mn540 2.094 . S
O566 C544 1.240 . S
O567 Mn541 2.117 . S
O567 C544 1.264 . S
C568 C561 1.403 . S
C568 C569 1.399 . S
C568 H574 0.929 . S
C569 C549 1.449 . S
C569 C568 1.399 . S
C569 H575 0.930 . S
H570 C550 0.931 . S
H571 C551 0.930 . S
H572 C559 0.931 . S
H573 C560 0.929 . S
H574 C568 0.929 . S
H575 C569 0.930 . S
Mn576 O581 2.095 . S
Mn576 O591 2.162 . S
Mn576 O592 2.297 . S
Mn576 O600 2.385 . S
Mn576 O601 2.209 . S
Mn576 O602 2.094 . S
Mn577 O582 2.121 . S
Mn577 N584 2.257 . S
Mn577 N593 2.282 . S
Mn577 O601 2.215 . S
Mn577 O603 2.117 . S
C578 O600 1.234 . S
C578 O601 1.283 . S
C579 O591 1.281 . S
C579 O592 1.236 . S
C580 O602 1.240 . S
C580 O603 1.264 . S
O581 Mn576 2.095 . S
O581 C590 1.250 . S
O582 Mn577 2.121 . S
O582 C590 1.258 . S
C583 N584 1.326 . S
C583 C587 1.460 . S
C583 H589 0.929 . S
N584 Mn577 2.257 . S
N584 C583 1.326 . S
N584 C588 1.362 . S
C585 C586 1.258 . S
C585 C588 1.431 . S
C585 C605 1.449 . S
C586 C585 1.258 . S
C586 C587 1.477 . S
C586 H606 0.931 . S
C587 C583 1.460 . S
C587 C586 1.477 . S
C587 H607 0.930 . S
C588 N584 1.362 . S
C588 C585 1.431 . S
C588 C598 1.476 . S
H589 C583 0.929 . S
C590 O581 1.250 . S
C590 O582 1.258 . S
O591 Mn576 2.162 . S
O591 C579 1.281 . S
O592 Mn576 2.297 . S
O592 C579 1.236 . S
N593 Mn577 2.282 . S
N593 C594 1.328 . S
N593 C598 1.318 . S
C594 N593 1.328 . S
C594 C595 1.457 . S
C594 H599 0.929 . S
C595 C594 1.457 . S
C595 C596 1.291 . S
C595 H608 0.931 . S
C596 C595 1.291 . S
C596 C597 1.373 . S
C596 H609 0.929 . S
C597 C596 1.373 . S
C597 C598 1.396 . S
C597 C604 1.403 . S
C598 C588 1.476 . S
C598 N593 1.318 . S
C598 C597 1.396 . S
H599 C594 0.929 . S
O600 Mn576 2.385 . S
O600 C578 1.234 . S
O601 Mn576 2.209 . S
O601 Mn577 2.215 . S
O601 C578 1.283 . S
O602 Mn576 2.094 . S
O602 C580 1.240 . S
O603 Mn577 2.117 . S
O603 C580 1.264 . S
C604 C597 1.403 . S
C604 C605 1.399 . S
C604 H610 0.929 . S
C605 C585 1.449 . S
C605 C604 1.399 . S
C605 H611 0.930 . S
H606 C586 0.931 . S
H607 C587 0.930 . S
H608 C595 0.931 . S
H609 C596 0.929 . S
H610 C604 0.929 . S
H611 C605 0.930 . S
Mn612 O617 2.095 . S
Mn612 O627 2.162 . S
Mn612 O628 2.297 . S
Mn612 O636 2.385 . S
Mn612 O637 2.209 . S
Mn612 O638 2.094 . S
Mn613 O618 2.121 . S
Mn613 N620 2.257 . S
Mn613 N629 2.282 . S
Mn613 O637 2.215 . S
Mn613 O639 2.117 . S
C614 O636 1.234 . S
C614 O637 1.283 . S
C615 O627 1.281 . S
C615 O628 1.236 . S
C616 O638 1.240 . S
C616 O639 1.264 . S
O617 Mn612 2.095 . S
O617 C626 1.250 . S
O618 Mn613 2.121 . S
O618 C626 1.258 . S
C619 N620 1.326 . S
C619 C623 1.460 . S
C619 H625 0.929 . S
N620 Mn613 2.257 . S
N620 C619 1.326 . S
N620 C624 1.362 . S
C621 C622 1.258 . S
C621 C624 1.431 . S
C621 C641 1.449 . S
C622 C621 1.258 . S
C622 C623 1.477 . S
C622 H642 0.931 . S
C623 C619 1.460 . S
C623 C622 1.477 . S
C623 H643 0.930 . S
C624 N620 1.362 . S
C624 C621 1.431 . S
C624 C634 1.476 . S
H625 C619 0.929 . S
C626 O617 1.250 . S
C626 O618 1.258 . S
O627 Mn612 2.162 . S
O627 C615 1.281 . S
O628 Mn612 2.297 . S
O628 C615 1.236 . S
N629 Mn613 2.282 . S
N629 C630 1.328 . S
N629 C634 1.318 . S
C630 N629 1.328 . S
C630 C631 1.457 . S
C630 H635 0.929 . S
C631 C630 1.457 . S
C631 C632 1.291 . S
C631 H644 0.931 . S
C632 C631 1.291 . S
C632 C633 1.373 . S
C632 H645 0.929 . S
C633 C632 1.373 . S
C633 C634 1.396 . S
C633 C640 1.403 . S
C634 C624 1.476 . S
C634 N629 1.318 . S
C634 C633 1.396 . S
H635 C630 0.929 . S
O636 Mn612 2.385 . S
O636 C614 1.234 . S
O637 Mn612 2.209 . S
O637 Mn613 2.215 . S
O637 C614 1.283 . S
O638 Mn612 2.094 . S
O638 C616 1.240 . S
O639 Mn613 2.117 . S
O639 C616 1.264 . S
C640 C633 1.403 . S
C640 C641 1.399 . S
C640 H646 0.929 . S
C641 C621 1.449 . S
C641 C640 1.399 . S
C641 H647 0.930 . S
H642 C622 0.931 . S
H643 C623 0.930 . S
H644 C631 0.931 . S
H645 C632 0.929 . S
H646 C640 0.929 . S
H647 C641 0.930 . S
Mn648 O653 2.095 . S
Mn648 O663 2.162 . S
Mn648 O664 2.297 . S
Mn648 O672 2.385 . S
Mn648 O673 2.209 . S
Mn648 O674 2.094 . S
Mn649 O654 2.121 . S
Mn649 N656 2.257 . S
Mn649 N665 2.282 . S
Mn649 O673 2.215 . S
Mn649 O675 2.117 . S
C650 O672 1.234 . S
C650 O673 1.283 . S
C651 O663 1.281 . S
C651 O664 1.236 . S
C652 O674 1.240 . S
C652 O675 1.264 . S
O653 Mn648 2.095 . S
O653 C662 1.250 . S
O654 Mn649 2.121 . S
O654 C662 1.258 . S
C655 N656 1.326 . S
C655 C659 1.460 . S
C655 H661 0.929 . S
N656 Mn649 2.257 . S
N656 C655 1.326 . S
N656 C660 1.362 . S
C657 C658 1.258 . S
C657 C660 1.431 . S
C657 C677 1.449 . S
C658 C657 1.258 . S
C658 C659 1.477 . S
C658 H678 0.931 . S
C659 C655 1.460 . S
C659 C658 1.477 . S
C659 H679 0.930 . S
C660 N656 1.362 . S
C660 C657 1.431 . S
C660 C670 1.476 . S
H661 C655 0.929 . S
C662 O653 1.250 . S
C662 O654 1.258 . S
O663 Mn648 2.162 . S
O663 C651 1.281 . S
O664 Mn648 2.297 . S
O664 C651 1.236 . S
N665 Mn649 2.282 . S
N665 C666 1.328 . S
N665 C670 1.318 . S
C666 N665 1.328 . S
C666 C667 1.457 . S
C666 H671 0.929 . S
C667 C666 1.457 . S
C667 C668 1.291 . S
C667 H680 0.931 . S
C668 C667 1.291 . S
C668 C669 1.373 . S
C668 H681 0.929 . S
C669 C668 1.373 . S
C669 C670 1.396 . S
C669 C676 1.403 . S
C670 C660 1.476 . S
C670 N665 1.318 . S
C670 C669 1.396 . S
H671 C666 0.929 . S
O672 Mn648 2.385 . S
O672 C650 1.234 . S
O673 Mn648 2.209 . S
O673 Mn649 2.215 . S
O673 C650 1.283 . S
O674 Mn648 2.094 . S
O674 C652 1.240 . S
O675 Mn649 2.117 . S
O675 C652 1.264 . S
C676 C669 1.403 . S
C676 C677 1.399 . S
C676 H682 0.929 . S
C677 C657 1.449 . S
C677 C676 1.399 . S
C677 H683 0.930 . S
H678 C658 0.931 . S
H679 C659 0.930 . S
H680 C667 0.931 . S
H681 C668 0.929 . S
H682 C676 0.929 . S
H683 C677 0.930 . S
Mn684 O689 2.095 . S
Mn684 O699 2.162 . S
Mn684 O700 2.297 . S
Mn684 O708 2.385 . S
Mn684 O709 2.209 . S
Mn684 O710 2.094 . S
Mn685 O690 2.121 . S
Mn685 N692 2.257 . S
Mn685 N701 2.282 . S
Mn685 O709 2.215 . S
Mn685 O711 2.117 . S
C686 O708 1.234 . S
C686 O709 1.283 . S
C687 O699 1.281 . S
C687 O700 1.236 . S
C688 O710 1.240 . S
C688 O711 1.264 . S
O689 Mn684 2.095 . S
O689 C698 1.250 . S
O690 Mn685 2.121 . S
O690 C698 1.258 . S
C691 N692 1.326 . S
C691 C695 1.460 . S
C691 H697 0.929 . S
N692 Mn685 2.257 . S
N692 C691 1.326 . S
N692 C696 1.362 . S
C693 C694 1.258 . S
C693 C696 1.431 . S
C693 C713 1.449 . S
C694 C693 1.258 . S
C694 C695 1.477 . S
C694 H714 0.931 . S
C695 C691 1.460 . S
C695 C694 1.477 . S
C695 H715 0.930 . S
C696 N692 1.362 . S
C696 C693 1.431 . S
C696 C706 1.476 . S
H697 C691 0.929 . S
C698 O689 1.250 . S
C698 O690 1.258 . S
O699 Mn684 2.162 . S
O699 C687 1.281 . S
O700 Mn684 2.297 . S
O700 C687 1.236 . S
N701 Mn685 2.282 . S
N701 C702 1.328 . S
N701 C706 1.318 . S
C702 N701 1.328 . S
C702 C703 1.457 . S
C702 H707 0.929 . S
C703 C702 1.457 . S
C703 C704 1.291 . S
C703 H716 0.931 . S
C704 C703 1.291 . S
C704 C705 1.373 . S
C704 H717 0.929 . S
C705 C704 1.373 . S
C705 C706 1.396 . S
C705 C712 1.403 . S
C706 C696 1.476 . S
C706 N701 1.318 . S
C706 C705 1.396 . S
H707 C702 0.929 . S
O708 Mn684 2.385 . S
O708 C686 1.234 . S
O709 Mn684 2.209 . S
O709 Mn685 2.215 . S
O709 C686 1.283 . S
O710 Mn684 2.094 . S
O710 C688 1.240 . S
O711 Mn685 2.117 . S
O711 C688 1.264 . S
C712 C705 1.403 . S
C712 C713 1.399 . S
C712 H718 0.929 . S
C713 C693 1.449 . S
C713 C712 1.399 . S
C713 H719 0.930 . S
H714 C694 0.931 . S
H715 C695 0.930 . S
H716 C703 0.931 . S
H717 C704 0.929 . S
H718 C712 0.929 . S
H719 C713 0.930 . S
Mn720 O725 2.095 . S
Mn720 O735 2.162 . S
Mn720 O736 2.297 . S
Mn720 O744 2.385 . S
Mn720 O745 2.209 . S
Mn720 O746 2.094 . S
Mn721 O726 2.121 . S
Mn721 N728 2.257 . S
Mn721 N737 2.282 . S
Mn721 O745 2.215 . S
Mn721 O747 2.117 . S
C722 O744 1.234 . S
C722 O745 1.283 . S
C723 O735 1.281 . S
C723 O736 1.236 . S
C724 O746 1.240 . S
C724 O747 1.264 . S
O725 Mn720 2.095 . S
O725 C734 1.250 . S
O726 Mn721 2.121 . S
O726 C734 1.258 . S
C727 N728 1.326 . S
C727 C731 1.460 . S
C727 H733 0.929 . S
N728 Mn721 2.257 . S
N728 C727 1.326 . S
N728 C732 1.362 . S
C729 C730 1.258 . S
C729 C732 1.431 . S
C729 C749 1.449 . S
C730 C729 1.258 . S
C730 C731 1.477 . S
C730 H750 0.931 . S
C731 C727 1.460 . S
C731 C730 1.477 . S
C731 H751 0.930 . S
C732 N728 1.362 . S
C732 C729 1.431 . S
C732 C742 1.476 . S
H733 C727 0.929 . S
C734 O725 1.250 . S
C734 O726 1.258 . S
O735 Mn720 2.162 . S
O735 C723 1.281 . S
O736 Mn720 2.297 . S
O736 C723 1.236 . S
N737 Mn721 2.282 . S
N737 C738 1.328 . S
N737 C742 1.318 . S
C738 N737 1.328 . S
C738 C739 1.457 . S
C738 H743 0.929 . S
C739 C738 1.457 . S
C739 C740 1.291 . S
C739 H752 0.931 . S
C740 C739 1.291 . S
C740 C741 1.373 . S
C740 H753 0.929 . S
C741 C740 1.373 . S
C741 C742 1.396 . S
C741 C748 1.403 . S
C742 C732 1.476 . S
C742 N737 1.318 . S
C742 C741 1.396 . S
H743 C738 0.929 . S
O744 Mn720 2.385 . S
O744 C722 1.234 . S
O745 Mn720 2.209 . S
O745 Mn721 2.215 . S
O745 C722 1.283 . S
O746 Mn720 2.094 . S
O746 C724 1.240 . S
O747 Mn721 2.117 . S
O747 C724 1.264 . S
C748 C741 1.403 . S
C748 C749 1.399 . S
C748 H754 0.929 . S
C749 C729 1.449 . S
C749 C748 1.399 . S
C749 H755 0.930 . S
H750 C730 0.931 . S
H751 C731 0.930 . S
H752 C739 0.931 . S
H753 C740 0.929 . S
H754 C748 0.929 . S
H755 C749 0.930 . S
Mn756 O761 2.095 . S
Mn756 O771 2.162 . S
Mn756 O772 2.297 . S
Mn756 O780 2.385 . S
Mn756 O781 2.209 . S
Mn756 O782 2.094 . S
Mn757 O762 2.121 . S
Mn757 N764 2.257 . S
Mn757 N773 2.282 . S
Mn757 O781 2.215 . S
Mn757 O783 2.117 . S
C758 O780 1.234 . S
C758 O781 1.283 . S
C759 O771 1.281 . S
C759 O772 1.236 . S
C760 O782 1.240 . S
C760 O783 1.264 . S
O761 Mn756 2.095 . S
O761 C770 1.250 . S
O762 Mn757 2.121 . S
O762 C770 1.258 . S
C763 N764 1.326 . S
C763 C767 1.460 . S
C763 H769 0.929 . S
N764 Mn757 2.257 . S
N764 C763 1.326 . S
N764 C768 1.362 . S
C765 C766 1.258 . S
C765 C768 1.431 1_554 S
C765 C785 1.449 . S
C766 C765 1.258 . S
C766 C767 1.477 1_554 S
C766 H786 0.931 . S
C767 C763 1.460 . S
C767 C766 1.477 1_556 S
C767 H787 0.930 . S
C768 N764 1.362 . S
C768 C765 1.431 1_556 S
C768 C778 1.476 . S
H769 C763 0.929 . S
C770 O761 1.250 . S
C770 O762 1.258 . S
O771 Mn756 2.162 . S
O771 C759 1.281 . S
O772 Mn756 2.297 . S
O772 C759 1.236 . S
N773 Mn757 2.282 . S
N773 C774 1.328 . S
N773 C778 1.318 . S
C774 N773 1.328 . S
C774 C775 1.457 . S
C774 H779 0.929 . S
C775 C774 1.457 . S
C775 C776 1.291 . S
C775 H788 0.931 . S
C776 C775 1.291 . S
C776 C777 1.373 . S
C776 H789 0.929 1_556 S
C777 C776 1.373 . S
C777 C778 1.396 . S
C777 C784 1.403 1_556 S
C778 C768 1.476 . S
C778 N773 1.318 . S
C778 C777 1.396 . S
H779 C774 0.929 . S
O780 Mn756 2.385 . S
O780 C758 1.234 . S
O781 Mn756 2.209 . S
O781 Mn757 2.215 . S
O781 C758 1.283 . S
O782 Mn756 2.094 . S
O782 C760 1.240 . S
O783 Mn757 2.117 . S
O783 C760 1.264 . S
C784 C777 1.403 1_554 S
C784 C785 1.399 . S
C784 H790 0.929 . S
C785 C765 1.449 . S
C785 C784 1.399 . S
C785 H791 0.930 . S
H786 C766 0.931 . S
H787 C767 0.930 . S
H788 C775 0.931 . S
H789 C776 0.929 1_554 S
H790 C784 0.929 . S
H791 C785 0.930 . S
Mn792 O797 2.095 . S
Mn792 O807 2.162 . S
Mn792 O808 2.297 . S
Mn792 O816 2.385 . S
Mn792 O817 2.209 . S
Mn792 O818 2.094 . S
Mn793 O798 2.121 . S
Mn793 N800 2.257 . S
Mn793 N809 2.282 . S
Mn793 O817 2.215 . S
Mn793 O819 2.117 . S
C794 O816 1.234 . S
C794 O817 1.283 . S
C795 O807 1.281 . S
C795 O808 1.236 . S
C796 O818 1.240 . S
C796 O819 1.264 . S
O797 Mn792 2.095 . S
O797 C806 1.250 . S
O798 Mn793 2.121 . S
O798 C806 1.258 . S
C799 N800 1.326 . S
C799 C803 1.460 . S
C799 H805 0.929 . S
N800 Mn793 2.257 . S
N800 C799 1.326 . S
N800 C804 1.362 . S
C801 C802 1.258 . S
C801 C804 1.431 1_554 S
C801 C821 1.449 . S
C802 C801 1.258 . S
C802 C803 1.477 1_554 S
C802 H822 0.931 . S
C803 C799 1.460 . S
C803 C802 1.477 1_556 S
C803 H823 0.930 . S
C804 N800 1.362 . S
C804 C801 1.431 1_556 S
C804 C814 1.476 . S
H805 C799 0.929 . S
C806 O797 1.250 . S
C806 O798 1.258 . S
O807 Mn792 2.162 . S
O807 C795 1.281 . S
O808 Mn792 2.297 . S
O808 C795 1.236 . S
N809 Mn793 2.282 . S
N809 C810 1.328 . S
N809 C814 1.318 . S
C810 N809 1.328 . S
C810 C811 1.457 . S
C810 H815 0.929 . S
C811 C810 1.457 . S
C811 C812 1.291 . S
C811 H824 0.931 . S
C812 C811 1.291 . S
C812 C813 1.373 . S
C812 H825 0.929 1_556 S
C813 C812 1.373 . S
C813 C814 1.396 . S
C813 C820 1.403 1_556 S
C814 C804 1.476 . S
C814 N809 1.318 . S
C814 C813 1.396 . S
H815 C810 0.929 . S
O816 Mn792 2.385 . S
O816 C794 1.234 . S
O817 Mn792 2.209 . S
O817 Mn793 2.215 . S
O817 C794 1.283 . S
O818 Mn792 2.094 . S
O818 C796 1.240 . S
O819 Mn793 2.117 . S
O819 C796 1.264 . S
C820 C813 1.403 1_554 S
C820 C821 1.399 . S
C820 H826 0.929 . S
C821 C801 1.449 . S
C821 C820 1.399 . S
C821 H827 0.930 . S
H822 C802 0.931 . S
H823 C803 0.930 . S
H824 C811 0.931 . S
H825 C812 0.929 1_554 S
H826 C820 0.929 . S
H827 C821 0.930 . S
Mn828 O833 2.095 . S
Mn828 O843 2.162 . S
Mn828 O844 2.297 . S
Mn828 O852 2.385 . S
Mn828 O853 2.209 . S
Mn828 O854 2.094 . S
Mn829 O834 2.121 . S
Mn829 N836 2.257 . S
Mn829 N845 2.282 . S
Mn829 O853 2.215 . S
Mn829 O855 2.117 . S
C830 O852 1.234 . S
C830 O853 1.283 . S
C831 O843 1.281 . S
C831 O844 1.236 . S
C832 O854 1.240 . S
C832 O855 1.264 . S
O833 Mn828 2.095 . S
O833 C842 1.250 . S
O834 Mn829 2.121 . S
O834 C842 1.258 . S
C835 N836 1.326 . S
C835 C839 1.460 . S
C835 H841 0.929 . S
N836 Mn829 2.257 . S
N836 C835 1.326 . S
N836 C840 1.362 . S
C837 C838 1.258 . S
C837 C840 1.431 1_554 S
C837 C857 1.449 . S
C838 C837 1.258 . S
C838 C839 1.477 1_554 S
C838 H858 0.931 . S
C839 C835 1.460 . S
C839 C838 1.477 1_556 S
C839 H859 0.930 . S
C840 N836 1.362 . S
C840 C837 1.431 1_556 S
C840 C850 1.476 . S
H841 C835 0.929 . S
C842 O833 1.250 . S
C842 O834 1.258 . S
O843 Mn828 2.162 . S
O843 C831 1.281 . S
O844 Mn828 2.297 . S
O844 C831 1.236 . S
N845 Mn829 2.282 . S
N845 C846 1.328 . S
N845 C850 1.318 . S
C846 N845 1.328 . S
C846 C847 1.457 . S
C846 H851 0.929 . S
C847 C846 1.457 . S
C847 C848 1.291 . S
C847 H860 0.931 . S
C848 C847 1.291 . S
C848 C849 1.373 . S
C848 H861 0.929 1_556 S
C849 C848 1.373 . S
C849 C850 1.396 . S
C849 C856 1.403 1_556 S
C850 C840 1.476 . S
C850 N845 1.318 . S
C850 C849 1.396 . S
H851 C846 0.929 . S
O852 Mn828 2.385 . S
O852 C830 1.234 . S
O853 Mn828 2.209 . S
O853 Mn829 2.215 . S
O853 C830 1.283 . S
O854 Mn828 2.094 . S
O854 C832 1.240 . S
O855 Mn829 2.117 . S
O855 C832 1.264 . S
C856 C849 1.403 1_554 S
C856 C857 1.399 . S
C856 H862 0.929 . S
C857 C837 1.449 . S
C857 C856 1.399 . S
C857 H863 0.930 . S
H858 C838 0.931 . S
H859 C839 0.930 . S
H860 C847 0.931 . S
H861 C848 0.929 1_554 S
H862 C856 0.929 . S
H863 C857 0.930 . S
Mn864 O869 2.095 . S
Mn864 O879 2.162 . S
Mn864 O880 2.297 . S
Mn864 O888 2.385 . S
Mn864 O889 2.209 . S
Mn864 O890 2.094 . S
Mn865 O870 2.121 . S
Mn865 N872 2.257 . S
Mn865 N881 2.282 . S
Mn865 O889 2.215 . S
Mn865 O891 2.117 . S
C866 O888 1.234 . S
C866 O889 1.283 . S
C867 O879 1.281 . S
C867 O880 1.236 . S
C868 O890 1.240 . S
C868 O891 1.264 . S
O869 Mn864 2.095 . S
O869 C878 1.250 . S
O870 Mn865 2.121 . S
O870 C878 1.258 . S
C871 N872 1.326 . S
C871 C875 1.460 . S
C871 H877 0.929 . S
N872 Mn865 2.257 . S
N872 C871 1.326 . S
N872 C876 1.362 . S
C873 C874 1.258 . S
C873 C876 1.431 . S
C873 C893 1.449 . S
C874 C873 1.258 . S
C874 C875 1.477 . S
C874 H894 0.931 . S
C875 C871 1.460 . S
C875 C874 1.477 . S
C875 H895 0.930 . S
C876 N872 1.362 . S
C876 C873 1.431 . S
C876 C886 1.476 . S
H877 C871 0.929 . S
C878 O869 1.250 . S
C878 O870 1.258 . S
O879 Mn864 2.162 . S
O879 C867 1.281 . S
O880 Mn864 2.297 . S
O880 C867 1.236 . S
N881 Mn865 2.282 . S
N881 C882 1.328 . S
N881 C886 1.318 . S
C882 N881 1.328 . S
C882 C883 1.457 . S
C882 H887 0.929 . S
C883 C882 1.457 . S
C883 C884 1.291 . S
C883 H896 0.931 . S
C884 C883 1.291 . S
C884 C885 1.373 . S
C884 H897 0.929 . S
C885 C884 1.373 . S
C885 C886 1.396 . S
C885 C892 1.403 . S
C886 C876 1.476 . S
C886 N881 1.318 . S
C886 C885 1.396 . S
H887 C882 0.929 . S
O888 Mn864 2.385 . S
O888 C866 1.234 . S
O889 Mn864 2.209 . S
O889 Mn865 2.215 . S
O889 C866 1.283 . S
O890 Mn864 2.094 . S
O890 C868 1.240 . S
O891 Mn865 2.117 . S
O891 C868 1.264 . S
C892 C885 1.403 . S
C892 C893 1.399 . S
C892 H898 0.929 . S
C893 C873 1.449 . S
C893 C892 1.399 . S
C893 H899 0.930 . S
H894 C874 0.931 . S
H895 C875 0.930 . S
H896 C883 0.931 . S
H897 C884 0.929 . S
H898 C892 0.929 . S
H899 C893 0.930 . S
Mn900 O905 2.095 . S
Mn900 O915 2.162 . S
Mn900 O916 2.297 . S
Mn900 O924 2.385 . S
Mn900 O925 2.209 . S
Mn900 O926 2.094 . S
Mn901 O906 2.121 . S
Mn901 N908 2.257 . S
Mn901 N917 2.282 . S
Mn901 O925 2.215 . S
Mn901 O927 2.117 . S
C902 O924 1.234 . S
C902 O925 1.283 . S
C903 O915 1.281 . S
C903 O916 1.236 . S
C904 O926 1.240 . S
C904 O927 1.264 . S
O905 Mn900 2.095 . S
O905 C914 1.250 . S
O906 Mn901 2.121 . S
O906 C914 1.258 . S
C907 N908 1.326 . S
C907 C911 1.460 . S
C907 H913 0.929 . S
N908 Mn901 2.257 . S
N908 C907 1.326 . S
N908 C912 1.362 . S
C909 C910 1.258 . S
C909 C912 1.431 . S
C909 C929 1.449 . S
C910 C909 1.258 . S
C910 C911 1.477 . S
C910 H930 0.931 . S
C911 C907 1.460 . S
C911 C910 1.477 . S
C911 H931 0.930 . S
C912 N908 1.362 . S
C912 C909 1.431 . S
C912 C922 1.476 . S
H913 C907 0.929 . S
C914 O905 1.250 . S
C914 O906 1.258 . S
O915 Mn900 2.162 . S
O915 C903 1.281 . S
O916 Mn900 2.297 . S
O916 C903 1.236 . S
N917 Mn901 2.282 . S
N917 C918 1.328 . S
N917 C922 1.318 . S
C918 N917 1.328 . S
C918 C919 1.457 . S
C918 H923 0.929 . S
C919 C918 1.457 . S
C919 C920 1.291 . S
C919 H932 0.931 . S
C920 C919 1.291 . S
C920 C921 1.373 . S
C920 H933 0.929 . S
C921 C920 1.373 . S
C921 C922 1.396 . S
C921 C928 1.403 . S
C922 C912 1.476 . S
C922 N917 1.318 . S
C922 C921 1.396 . S
H923 C918 0.929 . S
O924 Mn900 2.385 . S
O924 C902 1.234 . S
O925 Mn900 2.209 . S
O925 Mn901 2.215 . S
O925 C902 1.283 . S
O926 Mn900 2.094 . S
O926 C904 1.240 . S
O927 Mn901 2.117 . S
O927 C904 1.264 . S
C928 C921 1.403 . S
C928 C929 1.399 . S
C928 H934 0.929 . S
C929 C909 1.449 . S
C929 C928 1.399 . S
C929 H935 0.930 . S
H930 C910 0.931 . S
H931 C911 0.930 . S
H932 C919 0.931 . S
H933 C920 0.929 . S
H934 C928 0.929 . S
H935 C929 0.930 . S
Mn936 O941 2.095 . S
Mn936 O951 2.162 . S
Mn936 O952 2.297 . S
Mn936 O960 2.385 . S
Mn936 O961 2.209 . S
Mn936 O962 2.094 . S
Mn937 O942 2.121 . S
Mn937 N944 2.257 . S
Mn937 N953 2.282 . S
Mn937 O961 2.215 . S
Mn937 O963 2.117 . S
C938 O960 1.234 . S
C938 O961 1.283 . S
C939 O951 1.281 . S
C939 O952 1.236 . S
C940 O962 1.240 . S
C940 O963 1.264 . S
O941 Mn936 2.095 . S
O941 C950 1.250 . S
O942 Mn937 2.121 . S
O942 C950 1.258 . S
C943 N944 1.326 . S
C943 C947 1.460 . S
C943 H949 0.929 . S
N944 Mn937 2.257 . S
N944 C943 1.326 . S
N944 C948 1.362 . S
C945 C946 1.258 . S
C945 C948 1.431 . S
C945 C965 1.449 . S
C946 C945 1.258 . S
C946 C947 1.477 . S
C946 H966 0.931 . S
C947 C943 1.460 . S
C947 C946 1.477 . S
C947 H967 0.930 . S
C948 N944 1.362 . S
C948 C945 1.431 . S
C948 C958 1.476 . S
H949 C943 0.929 . S
C950 O941 1.250 . S
C950 O942 1.258 . S
O951 Mn936 2.162 . S
O951 C939 1.281 . S
O952 Mn936 2.297 . S
O952 C939 1.236 . S
N953 Mn937 2.282 . S
N953 C954 1.328 . S
N953 C958 1.318 . S
C954 N953 1.328 . S
C954 C955 1.457 . S
C954 H959 0.929 . S
C955 C954 1.457 . S
C955 C956 1.291 . S
C955 H968 0.931 . S
C956 C955 1.291 . S
C956 C957 1.373 . S
C956 H969 0.929 . S
C957 C956 1.373 . S
C957 C958 1.396 . S
C957 C964 1.403 . S
C958 C948 1.476 . S
C958 N953 1.318 . S
C958 C957 1.396 . S
H959 C954 0.929 . S
O960 Mn936 2.385 . S
O960 C938 1.234 . S
O961 Mn936 2.209 . S
O961 Mn937 2.215 . S
O961 C938 1.283 . S
O962 Mn936 2.094 . S
O962 C940 1.240 . S
O963 Mn937 2.117 . S
O963 C940 1.264 . S
C964 C957 1.403 . S
C964 C965 1.399 . S
C964 H970 0.929 . S
C965 C945 1.449 . S
C965 C964 1.399 . S
C965 H971 0.930 . S
H966 C946 0.931 . S
H967 C947 0.930 . S
H968 C955 0.931 . S
H969 C956 0.929 . S
H970 C964 0.929 . S
H971 C965 0.930 . S
Mn972 O977 2.095 . S
Mn972 O987 2.162 . S
Mn972 O988 2.297 . S
Mn972 O996 2.385 . S
Mn972 O997 2.209 . S
Mn972 O998 2.094 . S
Mn973 O978 2.121 . S
Mn973 N980 2.257 . S
Mn973 N989 2.282 . S
Mn973 O997 2.215 . S
Mn973 O999 2.117 . S
C974 O996 1.234 . S
C974 O997 1.283 . S
C975 O987 1.281 . S
C975 O988 1.236 . S
C976 O998 1.240 . S
C976 O999 1.264 . S
O977 Mn972 2.095 . S
O977 C986 1.250 . S
O978 Mn973 2.121 . S
O978 C986 1.258 . S
C979 N980 1.326 . S
C979 C983 1.460 . S
C979 H985 0.929 . S
N980 Mn973 2.257 . S
N980 C979 1.326 . S
N980 C984 1.362 . S
C981 C982 1.258 . S
C981 C984 1.431 1_556 S
C981 C1001 1.449 . S
C982 C981 1.258 . S
C982 C983 1.477 1_556 S
C982 H1002 0.931 . S
C983 C979 1.460 . S
C983 C982 1.477 1_554 S
C983 H1003 0.930 . S
C984 N980 1.362 . S
C984 C981 1.431 1_554 S
C984 C994 1.476 . S
H985 C979 0.929 . S
C986 O977 1.250 . S
C986 O978 1.258 . S
O987 Mn972 2.162 . S
O987 C975 1.281 . S
O988 Mn972 2.297 . S
O988 C975 1.236 . S
N989 Mn973 2.282 . S
N989 C990 1.328 . S
N989 C994 1.318 . S
C990 N989 1.328 . S
C990 C991 1.457 . S
C990 H995 0.929 . S
C991 C990 1.457 . S
C991 C992 1.291 . S
C991 H1004 0.931 . S
C992 C991 1.291 . S
C992 C993 1.373 . S
C992 H1005 0.929 1_554 S
C993 C992 1.373 . S
C993 C994 1.396 . S
C993 C1000 1.403 1_554 S
C994 C984 1.476 . S
C994 N989 1.318 . S
C994 C993 1.396 . S
H995 C990 0.929 . S
O996 Mn972 2.385 . S
O996 C974 1.234 . S
O997 Mn972 2.209 . S
O997 Mn973 2.215 . S
O997 C974 1.283 . S
O998 Mn972 2.094 . S
O998 C976 1.240 . S
O999 Mn973 2.117 . S
O999 C976 1.264 . S
C1000 C993 1.403 1_556 S
C1000 C1001 1.399 . S
C1000 H1006 0.929 . S
C1001 C981 1.449 . S
C1001 C1000 1.399 . S
C1001 H1007 0.930 . S
H1002 C982 0.931 . S
H1003 C983 0.930 . S
H1004 C991 0.931 . S
H1005 C992 0.929 1_556 S
H1006 C1000 0.929 . S
H1007 C1001 0.930 . S
Mn1008 O1013 2.095 . S
Mn1008 O1023 2.162 . S
Mn1008 O1024 2.297 . S
Mn1008 O1032 2.385 . S
Mn1008 O1033 2.209 . S
Mn1008 O1034 2.094 . S
Mn1009 O1014 2.121 . S
Mn1009 N1016 2.257 . S
Mn1009 N1025 2.282 . S
Mn1009 O1033 2.215 . S
Mn1009 O1035 2.117 . S
C1010 O1032 1.234 . S
C1010 O1033 1.283 . S
C1011 O1023 1.281 . S
C1011 O1024 1.236 . S
C1012 O1034 1.240 . S
C1012 O1035 1.264 . S
O1013 Mn1008 2.095 . S
O1013 C1022 1.250 . S
O1014 Mn1009 2.121 . S
O1014 C1022 1.258 . S
C1015 N1016 1.326 . S
C1015 C1019 1.460 . S
C1015 H1021 0.929 . S
N1016 Mn1009 2.257 . S
N1016 C1015 1.326 . S
N1016 C1020 1.362 . S
C1017 C1018 1.258 . S
C1017 C1020 1.431 1_556 S
C1017 C1037 1.449 . S
C1018 C1017 1.258 . S
C1018 C1019 1.477 1_556 S
C1018 H1038 0.931 . S
C1019 C1015 1.460 . S
C1019 C1018 1.477 1_554 S
C1019 H1039 0.930 . S
C1020 N1016 1.362 . S
C1020 C1017 1.431 1_554 S
C1020 C1030 1.476 . S
H1021 C1015 0.929 . S
C1022 O1013 1.250 . S
C1022 O1014 1.258 . S
O1023 Mn1008 2.162 . S
O1023 C1011 1.281 . S
O1024 Mn1008 2.297 . S
O1024 C1011 1.236 . S
N1025 Mn1009 2.282 . S
N1025 C1026 1.328 . S
N1025 C1030 1.318 . S
C1026 N1025 1.328 . S
C1026 C1027 1.457 . S
C1026 H1031 0.929 . S
C1027 C1026 1.457 . S
C1027 C1028 1.291 . S
C1027 H1040 0.931 . S
C1028 C1027 1.291 . S
C1028 C1029 1.373 . S
C1028 H1041 0.929 1_554 S
C1029 C1028 1.373 . S
C1029 C1030 1.396 . S
C1029 C1036 1.403 1_554 S
C1030 C1020 1.476 . S
C1030 N1025 1.318 . S
C1030 C1029 1.396 . S
H1031 C1026 0.929 . S
O1032 Mn1008 2.385 . S
O1032 C1010 1.234 . S
O1033 Mn1008 2.209 . S
O1033 Mn1009 2.215 . S
O1033 C1010 1.283 . S
O1034 Mn1008 2.094 . S
O1034 C1012 1.240 . S
O1035 Mn1009 2.117 . S
O1035 C1012 1.264 . S
C1036 C1029 1.403 1_556 S
C1036 C1037 1.399 . S
C1036 H1042 0.929 . S
C1037 C1017 1.449 . S
C1037 C1036 1.399 . S
C1037 H1043 0.930 . S
H1038 C1018 0.931 . S
H1039 C1019 0.930 . S
H1040 C1027 0.931 . S
H1041 C1028 0.929 1_556 S
H1042 C1036 0.929 . S
H1043 C1037 0.930 . S
Mn1044 O1049 2.095 . S
Mn1044 O1059 2.162 . S
Mn1044 O1060 2.297 . S
Mn1044 O1068 2.385 . S
Mn1044 O1069 2.209 . S
Mn1044 O1070 2.094 . S
Mn1045 O1050 2.121 . S
Mn1045 N1052 2.257 . S
Mn1045 N1061 2.282 . S
Mn1045 O1069 2.215 . S
Mn1045 O1071 2.117 . S
C1046 O1068 1.234 . S
C1046 O1069 1.283 . S
C1047 O1059 1.281 . S
C1047 O1060 1.236 . S
C1048 O1070 1.240 . S
C1048 O1071 1.264 . S
O1049 Mn1044 2.095 . S
O1049 C1058 1.250 . S
O1050 Mn1045 2.121 . S
O1050 C1058 1.258 . S
C1051 N1052 1.326 . S
C1051 C1055 1.460 . S
C1051 H1057 0.929 . S
N1052 Mn1045 2.257 . S
N1052 C1051 1.326 . S
N1052 C1056 1.362 . S
C1053 C1054 1.258 . S
C1053 C1056 1.431 1_556 S
C1053 C1073 1.449 . S
C1054 C1053 1.258 . S
C1054 C1055 1.477 1_556 S
C1054 H1074 0.931 . S
C1055 C1051 1.460 . S
C1055 C1054 1.477 1_554 S
C1055 H1075 0.930 . S
C1056 N1052 1.362 . S
C1056 C1053 1.431 1_554 S
C1056 C1066 1.476 . S
H1057 C1051 0.929 . S
C1058 O1049 1.250 . S
C1058 O1050 1.258 . S
O1059 Mn1044 2.162 . S
O1059 C1047 1.281 . S
O1060 Mn1044 2.297 . S
O1060 C1047 1.236 . S
N1061 Mn1045 2.282 . S
N1061 C1062 1.328 . S
N1061 C1066 1.318 . S
C1062 N1061 1.328 . S
C1062 C1063 1.457 . S
C1062 H1067 0.929 . S
C1063 C1062 1.457 . S
C1063 C1064 1.291 . S
C1063 H1076 0.931 . S
C1064 C1063 1.291 . S
C1064 C1065 1.373 . S
C1064 H1077 0.929 1_554 S
C1065 C1064 1.373 . S
C1065 C1066 1.396 . S
C1065 C1072 1.403 1_554 S
C1066 C1056 1.476 . S
C1066 N1061 1.318 . S
C1066 C1065 1.396 . S
H1067 C1062 0.929 . S
O1068 Mn1044 2.385 . S
O1068 C1046 1.234 . S
O1069 Mn1044 2.209 . S
O1069 Mn1045 2.215 . S
O1069 C1046 1.283 . S
O1070 Mn1044 2.094 . S
O1070 C1048 1.240 . S
O1071 Mn1045 2.117 . S
O1071 C1048 1.264 . S
C1072 C1065 1.403 1_556 S
C1072 C1073 1.399 . S
C1072 H1078 0.929 . S
C1073 C1053 1.449 . S
C1073 C1072 1.399 . S
C1073 H1079 0.930 . S
H1074 C1054 0.931 . S
H1075 C1055 0.930 . S
H1076 C1063 0.931 . S
H1077 C1064 0.929 1_556 S
H1078 C1072 0.929 . S
H1079 C1073 0.930 . S
Mn1080 O1085 2.095 . S
Mn1080 O1095 2.162 . S
Mn1080 O1096 2.297 . S
Mn1080 O1104 2.385 . S
Mn1080 O1105 2.209 . S
Mn1080 O1106 2.094 . S
Mn1081 O1086 2.121 . S
Mn1081 N1088 2.257 . S
Mn1081 N1097 2.282 . S
Mn1081 O1105 2.215 . S
Mn1081 O1107 2.117 . S
C1082 O1104 1.234 . S
C1082 O1105 1.283 . S
C1083 O1095 1.281 . S
C1083 O1096 1.236 . S
C1084 O1106 1.240 . S
C1084 O1107 1.264 . S
O1085 Mn1080 2.095 . S
O1085 C1094 1.250 . S
O1086 Mn1081 2.121 . S
O1086 C1094 1.258 . S
C1087 N1088 1.326 . S
C1087 C1091 1.460 . S
C1087 H1093 0.929 . S
N1088 Mn1081 2.257 . S
N1088 C1087 1.326 . S
N1088 C1092 1.362 . S
C1089 C1090 1.258 . S
C1089 C1092 1.431 . S
C1089 C1109 1.449 . S
C1090 C1089 1.258 . S
C1090 C1091 1.477 . S
C1090 H1110 0.931 . S
C1091 C1087 1.460 . S
C1091 C1090 1.477 . S
C1091 H1111 0.930 . S
C1092 N1088 1.362 . S
C1092 C1089 1.431 . S
C1092 C1102 1.476 . S
H1093 C1087 0.929 . S
C1094 O1085 1.250 . S
C1094 O1086 1.258 . S
O1095 Mn1080 2.162 . S
O1095 C1083 1.281 . S
O1096 Mn1080 2.297 . S
O1096 C1083 1.236 . S
N1097 Mn1081 2.282 . S
N1097 C1098 1.328 . S
N1097 C1102 1.318 . S
C1098 N1097 1.328 . S
C1098 C1099 1.457 . S
C1098 H1103 0.929 . S
C1099 C1098 1.457 . S
C1099 C1100 1.291 . S
C1099 H1112 0.931 . S
C1100 C1099 1.291 . S
C1100 C1101 1.373 . S
C1100 H1113 0.929 . S
C1101 C1100 1.373 . S
C1101 C1102 1.396 . S
C1101 C1108 1.403 . S
C1102 C1092 1.476 . S
C1102 N1097 1.318 . S
C1102 C1101 1.396 . S
H1103 C1098 0.929 . S
O1104 Mn1080 2.385 . S
O1104 C1082 1.234 . S
O1105 Mn1080 2.209 . S
O1105 Mn1081 2.215 . S
O1105 C1082 1.283 . S
O1106 Mn1080 2.094 . S
O1106 C1084 1.240 . S
O1107 Mn1081 2.117 . S
O1107 C1084 1.264 . S
C1108 C1101 1.403 . S
C1108 C1109 1.399 . S
C1108 H1114 0.929 . S
C1109 C1089 1.449 . S
C1109 C1108 1.399 . S
C1109 H1115 0.930 . S
H1110 C1090 0.931 . S
H1111 C1091 0.930 . S
H1112 C1099 0.931 . S
H1113 C1100 0.929 . S
H1114 C1108 0.929 . S
H1115 C1109 0.930 . S
Mn1116 O1121 2.095 . S
Mn1116 O1131 2.162 . S
Mn1116 O1132 2.297 . S
Mn1116 O1140 2.385 . S
Mn1116 O1141 2.209 . S
Mn1116 O1142 2.094 . S
Mn1117 O1122 2.121 . S
Mn1117 N1124 2.257 . S
Mn1117 N1133 2.282 . S
Mn1117 O1141 2.215 . S
Mn1117 O1143 2.117 . S
C1118 O1140 1.234 . S
C1118 O1141 1.283 . S
C1119 O1131 1.281 . S
C1119 O1132 1.236 . S
C1120 O1142 1.240 . S
C1120 O1143 1.264 . S
O1121 Mn1116 2.095 . S
O1121 C1130 1.250 . S
O1122 Mn1117 2.121 . S
O1122 C1130 1.258 . S
C1123 N1124 1.326 . S
C1123 C1127 1.460 . S
C1123 H1129 0.929 . S
N1124 Mn1117 2.257 . S
N1124 C1123 1.326 . S
N1124 C1128 1.362 . S
C1125 C1126 1.258 . S
C1125 C1128 1.431 . S
C1125 C1145 1.449 . S
C1126 C1125 1.258 . S
C1126 C1127 1.477 . S
C1126 H1146 0.931 . S
C1127 C1123 1.460 . S
C1127 C1126 1.477 . S
C1127 H1147 0.930 . S
C1128 N1124 1.362 . S
C1128 C1125 1.431 . S
C1128 C1138 1.476 . S
H1129 C1123 0.929 . S
C1130 O1121 1.250 . S
C1130 O1122 1.258 . S
O1131 Mn1116 2.162 . S
O1131 C1119 1.281 . S
O1132 Mn1116 2.297 . S
O1132 C1119 1.236 . S
N1133 Mn1117 2.282 . S
N1133 C1134 1.328 . S
N1133 C1138 1.318 . S
C1134 N1133 1.328 . S
C1134 C1135 1.457 . S
C1134 H1139 0.929 . S
C1135 C1134 1.457 . S
C1135 C1136 1.291 . S
C1135 H1148 0.931 . S
C1136 C1135 1.291 . S
C1136 C1137 1.373 . S
C1136 H1149 0.929 . S
C1137 C1136 1.373 . S
C1137 C1138 1.396 . S
C1137 C1144 1.403 . S
C1138 C1128 1.476 . S
C1138 N1133 1.318 . S
C1138 C1137 1.396 . S
H1139 C1134 0.929 . S
O1140 Mn1116 2.385 . S
O1140 C1118 1.234 . S
O1141 Mn1116 2.209 . S
O1141 Mn1117 2.215 . S
O1141 C1118 1.283 . S
O1142 Mn1116 2.094 . S
O1142 C1120 1.240 . S
O1143 Mn1117 2.117 . S
O1143 C1120 1.264 . S
C1144 C1137 1.403 . S
C1144 C1145 1.399 . S
C1144 H1150 0.929 . S
C1145 C1125 1.449 . S
C1145 C1144 1.399 . S
C1145 H1151 0.930 . S
H1146 C1126 0.931 . S
H1147 C1127 0.930 . S
H1148 C1135 0.931 . S
H1149 C1136 0.929 . S
H1150 C1144 0.929 . S
H1151 C1145 0.930 . S
Mn1152 O1157 2.095 . S
Mn1152 O1167 2.162 . S
Mn1152 O1168 2.297 . S
Mn1152 O1176 2.385 . S
Mn1152 O1177 2.209 . S
Mn1152 O1178 2.094 . S
Mn1153 O1158 2.121 . S
Mn1153 N1160 2.257 . S
Mn1153 N1169 2.282 . S
Mn1153 O1177 2.215 . S
Mn1153 O1179 2.117 . S
C1154 O1176 1.234 . S
C1154 O1177 1.283 . S
C1155 O1167 1.281 . S
C1155 O1168 1.236 . S
C1156 O1178 1.240 . S
C1156 O1179 1.264 . S
O1157 Mn1152 2.095 . S
O1157 C1166 1.250 . S
O1158 Mn1153 2.121 . S
O1158 C1166 1.258 . S
C1159 N1160 1.326 . S
C1159 C1163 1.460 . S
C1159 H1165 0.929 . S
N1160 Mn1153 2.257 . S
N1160 C1159 1.326 . S
N1160 C1164 1.362 . S
C1161 C1162 1.258 . S
C1161 C1164 1.431 . S
C1161 C1181 1.449 . S
C1162 C1161 1.258 . S
C1162 C1163 1.477 . S
C1162 H1182 0.931 . S
C1163 C1159 1.460 . S
C1163 C1162 1.477 . S
C1163 H1183 0.930 . S
C1164 N1160 1.362 . S
C1164 C1161 1.431 . S
C1164 C1174 1.476 . S
H1165 C1159 0.929 . S
C1166 O1157 1.250 . S
C1166 O1158 1.258 . S
O1167 Mn1152 2.162 . S
O1167 C1155 1.281 . S
O1168 Mn1152 2.297 . S
O1168 C1155 1.236 . S
N1169 Mn1153 2.282 . S
N1169 C1170 1.328 . S
N1169 C1174 1.318 . S
C1170 N1169 1.328 . S
C1170 C1171 1.457 . S
C1170 H1175 0.929 . S
C1171 C1170 1.457 . S
C1171 C1172 1.291 . S
C1171 H1184 0.931 . S
C1172 C1171 1.291 . S
C1172 C1173 1.373 . S
C1172 H1185 0.929 . S
C1173 C1172 1.373 . S
C1173 C1174 1.396 . S
C1173 C1180 1.403 . S
C1174 C1164 1.476 . S
C1174 N1169 1.318 . S
C1174 C1173 1.396 . S
H1175 C1170 0.929 . S
O1176 Mn1152 2.385 . S
O1176 C1154 1.234 . S
O1177 Mn1152 2.209 . S
O1177 Mn1153 2.215 . S
O1177 C1154 1.283 . S
O1178 Mn1152 2.094 . S
O1178 C1156 1.240 . S
O1179 Mn1153 2.117 . S
O1179 C1156 1.264 . S
C1180 C1173 1.403 . S
C1180 C1181 1.399 . S
C1180 H1186 0.929 . S
C1181 C1161 1.449 . S
C1181 C1180 1.399 . S
C1181 H1187 0.930 . S
H1182 C1162 0.931 . S
H1183 C1163 0.930 . S
H1184 C1171 0.931 . S
H1185 C1172 0.929 . S
H1186 C1180 0.929 . S
H1187 C1181 0.930 . S
Mn1188 O1193 2.095 . S
Mn1188 O1203 2.162 . S
Mn1188 O1204 2.297 . S
Mn1188 O1212 2.385 . S
Mn1188 O1213 2.209 . S
Mn1188 O1214 2.094 . S
Mn1189 O1194 2.121 . S
Mn1189 N1196 2.257 . S
Mn1189 N1205 2.282 . S
Mn1189 O1213 2.215 . S
Mn1189 O1215 2.117 . S
C1190 O1212 1.234 . S
C1190 O1213 1.283 . S
C1191 O1203 1.281 . S
C1191 O1204 1.236 . S
C1192 O1214 1.240 . S
C1192 O1215 1.264 . S
O1193 Mn1188 2.095 . S
O1193 C1202 1.250 . S
O1194 Mn1189 2.121 . S
O1194 C1202 1.258 . S
C1195 N1196 1.326 . S
C1195 C1199 1.460 . S
C1195 H1201 0.929 . S
N1196 Mn1189 2.257 . S
N1196 C1195 1.326 . S
N1196 C1200 1.362 . S
C1197 C1198 1.258 . S
C1197 C1200 1.431 . S
C1197 C1217 1.449 . S
C1198 C1197 1.258 . S
C1198 C1199 1.477 . S
C1198 H1218 0.931 . S
C1199 C1195 1.460 . S
C1199 C1198 1.477 . S
C1199 H1219 0.930 . S
C1200 N1196 1.362 . S
C1200 C1197 1.431 . S
C1200 C1210 1.476 . S
H1201 C1195 0.929 . S
C1202 O1193 1.250 . S
C1202 O1194 1.258 . S
O1203 Mn1188 2.162 . S
O1203 C1191 1.281 . S
O1204 Mn1188 2.297 . S
O1204 C1191 1.236 . S
N1205 Mn1189 2.282 . S
N1205 C1206 1.328 . S
N1205 C1210 1.318 . S
C1206 N1205 1.328 . S
C1206 C1207 1.457 . S
C1206 H1211 0.929 . S
C1207 C1206 1.457 . S
C1207 C1208 1.291 . S
C1207 H1220 0.931 . S
C1208 C1207 1.291 . S
C1208 C1209 1.373 . S
C1208 H1221 0.929 . S
C1209 C1208 1.373 . S
C1209 C1210 1.396 . S
C1209 C1216 1.403 . S
C1210 C1200 1.476 . S
C1210 N1205 1.318 . S
C1210 C1209 1.396 . S
H1211 C1206 0.929 . S
O1212 Mn1188 2.385 . S
O1212 C1190 1.234 . S
O1213 Mn1188 2.209 . S
O1213 Mn1189 2.215 . S
O1213 C1190 1.283 . S
O1214 Mn1188 2.094 . S
O1214 C1192 1.240 . S
O1215 Mn1189 2.117 . S
O1215 C1192 1.264 . S
C1216 C1209 1.403 . S
C1216 C1217 1.399 . S
C1216 H1222 0.929 . S
C1217 C1197 1.449 . S
C1217 C1216 1.399 . S
C1217 H1223 0.930 . S
H1218 C1198 0.931 . S
H1219 C1199 0.930 . S
H1220 C1207 0.931 . S
H1221 C1208 0.929 . S
H1222 C1216 0.929 . S
H1223 C1217 0.930 . S
Mn1224 O1229 2.095 . S
Mn1224 O1239 2.162 . S
Mn1224 O1240 2.297 . S
Mn1224 O1248 2.385 . S
Mn1224 O1249 2.209 . S
Mn1224 O1250 2.094 . S
Mn1225 O1230 2.121 . S
Mn1225 N1232 2.257 . S
Mn1225 N1241 2.282 . S
Mn1225 O1249 2.215 . S
Mn1225 O1251 2.117 . S
C1226 O1248 1.234 . S
C1226 O1249 1.283 . S
C1227 O1239 1.281 . S
C1227 O1240 1.236 . S
C1228 O1250 1.240 . S
C1228 O1251 1.264 . S
O1229 Mn1224 2.095 . S
O1229 C1238 1.250 . S
O1230 Mn1225 2.121 . S
O1230 C1238 1.258 . S
C1231 N1232 1.326 . S
C1231 C1235 1.460 . S
C1231 H1237 0.929 . S
N1232 Mn1225 2.257 . S
N1232 C1231 1.326 . S
N1232 C1236 1.362 . S
C1233 C1234 1.258 . S
C1233 C1236 1.431 . S
C1233 C1253 1.449 . S
C1234 C1233 1.258 . S
C1234 C1235 1.477 . S
C1234 H1254 0.931 . S
C1235 C1231 1.460 . S
C1235 C1234 1.477 . S
C1235 H1255 0.930 . S
C1236 N1232 1.362 . S
C1236 C1233 1.431 . S
C1236 C1246 1.476 . S
H1237 C1231 0.929 . S
C1238 O1229 1.250 . S
C1238 O1230 1.258 . S
O1239 Mn1224 2.162 . S
O1239 C1227 1.281 . S
O1240 Mn1224 2.297 . S
O1240 C1227 1.236 . S
N1241 Mn1225 2.282 . S
N1241 C1242 1.328 . S
N1241 C1246 1.318 . S
C1242 N1241 1.328 . S
C1242 C1243 1.457 . S
C1242 H1247 0.929 . S
C1243 C1242 1.457 . S
C1243 C1244 1.291 . S
C1243 H1256 0.931 . S
C1244 C1243 1.291 . S
C1244 C1245 1.373 . S
C1244 H1257 0.929 . S
C1245 C1244 1.373 . S
C1245 C1246 1.396 . S
C1245 C1252 1.403 . S
C1246 C1236 1.476 . S
C1246 N1241 1.318 . S
C1246 C1245 1.396 . S
H1247 C1242 0.929 . S
O1248 Mn1224 2.385 . S
O1248 C1226 1.234 . S
O1249 Mn1224 2.209 . S
O1249 Mn1225 2.215 . S
O1249 C1226 1.283 . S
O1250 Mn1224 2.094 . S
O1250 C1228 1.240 . S
O1251 Mn1225 2.117 . S
O1251 C1228 1.264 . S
C1252 C1245 1.403 . S
C1252 C1253 1.399 . S
C1252 H1258 0.929 . S
C1253 C1233 1.449 . S
C1253 C1252 1.399 . S
C1253 H1259 0.930 . S
H1254 C1234 0.931 . S
H1255 C1235 0.930 . S
H1256 C1243 0.931 . S
H1257 C1244 0.929 . S
H1258 C1252 0.929 . S
H1259 C1253 0.930 . S
Mn1260 O1265 2.095 . S
Mn1260 O1275 2.162 . S
Mn1260 O1276 2.297 . S
Mn1260 O1284 2.385 . S
Mn1260 O1285 2.209 . S
Mn1260 O1286 2.094 . S
Mn1261 O1266 2.121 . S
Mn1261 N1268 2.257 . S
Mn1261 N1277 2.282 . S
Mn1261 O1285 2.215 . S
Mn1261 O1287 2.117 . S
C1262 O1284 1.234 . S
C1262 O1285 1.283 . S
C1263 O1275 1.281 . S
C1263 O1276 1.236 . S
C1264 O1286 1.240 . S
C1264 O1287 1.264 . S
O1265 Mn1260 2.095 . S
O1265 C1274 1.250 . S
O1266 Mn1261 2.121 . S
O1266 C1274 1.258 . S
C1267 N1268 1.326 . S
C1267 C1271 1.460 . S
C1267 H1273 0.929 . S
N1268 Mn1261 2.257 . S
N1268 C1267 1.326 . S
N1268 C1272 1.362 . S
C1269 C1270 1.258 . S
C1269 C1272 1.431 . S
C1269 C1289 1.449 . S
C1270 C1269 1.258 . S
C1270 C1271 1.477 . S
C1270 H1290 0.931 . S
C1271 C1267 1.460 . S
C1271 C1270 1.477 . S
C1271 H1291 0.930 . S
C1272 N1268 1.362 . S
C1272 C1269 1.431 . S
C1272 C1282 1.476 . S
H1273 C1267 0.929 . S
C1274 O1265 1.250 . S
C1274 O1266 1.258 . S
O1275 Mn1260 2.162 . S
O1275 C1263 1.281 . S
O1276 Mn1260 2.297 . S
O1276 C1263 1.236 . S
N1277 Mn1261 2.282 . S
N1277 C1278 1.328 . S
N1277 C1282 1.318 . S
C1278 N1277 1.328 . S
C1278 C1279 1.457 . S
C1278 H1283 0.929 . S
C1279 C1278 1.457 . S
C1279 C1280 1.291 . S
C1279 H1292 0.931 . S
C1280 C1279 1.291 . S
C1280 C1281 1.373 . S
C1280 H1293 0.929 . S
C1281 C1280 1.373 . S
C1281 C1282 1.396 . S
C1281 C1288 1.403 . S
C1282 C1272 1.476 . S
C1282 N1277 1.318 . S
C1282 C1281 1.396 . S
H1283 C1278 0.929 . S
O1284 Mn1260 2.385 . S
O1284 C1262 1.234 . S
O1285 Mn1260 2.209 . S
O1285 Mn1261 2.215 . S
O1285 C1262 1.283 . S
O1286 Mn1260 2.094 . S
O1286 C1264 1.240 . S
O1287 Mn1261 2.117 . S
O1287 C1264 1.264 . S
C1288 C1281 1.403 . S
C1288 C1289 1.399 . S
C1288 H1294 0.929 . S
C1289 C1269 1.449 . S
C1289 C1288 1.399 . S
C1289 H1295 0.930 . S
H1290 C1270 0.931 . S
H1291 C1271 0.930 . S
H1292 C1279 0.931 . S
H1293 C1280 0.929 . S
H1294 C1288 0.929 . S
H1295 C1289 0.930 . S
H1296 C1304 0.929 . S
H1297 C1306 0.930 . S
H1298 C1308 0.930 . S
H1299 C1311 0.929 . S
H1300 C1314 0.930 . S
H1301 C1316 0.960 . S
H1302 C1316 0.960 . S
H1303 C1316 0.960 . S
C1304 H1296 0.929 . S
C1304 C1305 1.377 . S
C1304 C1306 1.384 . S
C1305 C1304 1.377 . S
C1305 C1311 1.390 . S
C1306 H1297 0.930 . S
C1306 C1304 1.384 . S
C1306 C1307 1.372 . S
C1307 C1306 1.372 . S
C1307 C1308 1.400 . S
C1307 C1312 1.490 . S
C1308 H1298 0.930 . S
C1308 C1307 1.400 . S
C1308 C1311 1.386 . S
H1309 C1325 0.930 . S
H1310 C1326 0.931 . S
C1311 H1299 0.929 . S
C1311 C1305 1.390 . S
C1311 C1308 1.386 . S
C1312 C1307 1.490 . S
C1312 C1314 1.395 . S
C1312 C1315 1.403 . S
H1313 C1319 0.930 . S
C1314 H1300 0.930 . S
C1314 C1312 1.395 . S
C1314 C1317 1.403 1_554 S
C1315 C1312 1.403 . S
C1315 C1316 1.524 . S
C1315 C1319 1.400 . S
C1316 H1301 0.960 . S
C1316 H1302 0.960 . S
C1316 H1303 0.960 . S
C1316 C1315 1.524 . S
C1317 C1314 1.403 1_556 S
C1317 C1318 1.392 . S
C1317 C1321 1.495 . S
C1318 C1317 1.392 . S
C1318 C1319 1.385 1_556 S
C1318 C1320 1.486 . S
C1319 H1313 0.930 . S
C1319 C1315 1.400 . S
C1319 C1318 1.385 1_554 S
C1320 C1318 1.486 . S
C1320 C1322 1.375 1_545 S
C1320 C1326 1.380 . S
C1321 C1317 1.495 . S
C1321 H1327 0.959 . S
C1321 H1328 0.961 . S
C1321 H1329 0.960 . S
C1322 C1320 1.375 1_565 S
C1322 C1323 1.394 . S
C1322 H1330 0.930 . S
C1323 C1322 1.394 . S
C1323 C1324 1.383 . S
C1323 H1331 0.929 . S
C1324 C1323 1.383 . S
C1324 C1325 1.377 . S
C1325 H1309 0.930 . S
C1325 C1324 1.377 . S
C1325 C1326 1.379 1_565 S
C1326 H1310 0.931 . S
C1326 C1320 1.380 . S
C1326 C1325 1.379 1_545 S
H1327 C1321 0.959 . S
H1328 C1321 0.961 . S
H1329 C1321 0.960 . S
H1330 C1322 0.930 . S
H1331 C1323 0.929 . S
H1332 C1340 0.929 . S
H1333 C1342 0.930 . S
H1334 C1344 0.930 . S
H1335 C1347 0.929 . S
H1336 C1350 0.930 . S
H1337 C1352 0.960 . S
H1338 C1352 0.960 . S
H1339 C1352 0.960 . S
C1340 H1332 0.929 . S
C1340 C1341 1.377 . S
C1340 C1342 1.384 . S
C1341 C1340 1.377 . S
C1341 C1347 1.390 . S
C1342 H1333 0.930 . S
C1342 C1340 1.384 . S
C1342 C1343 1.372 . S
C1343 C1342 1.372 . S
C1343 C1344 1.400 . S
C1343 C1348 1.490 . S
C1344 H1334 0.930 . S
C1344 C1343 1.400 . S
C1344 C1347 1.386 . S
H1345 C1361 0.930 . S
H1346 C1362 0.931 . S
C1347 H1335 0.929 . S
C1347 C1341 1.390 . S
C1347 C1344 1.386 . S
C1348 C1343 1.490 . S
C1348 C1350 1.395 . S
C1348 C1351 1.403 . S
H1349 C1355 0.947 . S
C1350 H1336 0.930 . S
C1350 C1348 1.395 . S
C1350 C1353 1.403 . S
C1351 C1348 1.403 . S
C1351 C1352 1.524 . S
C1351 C1355 1.377 1_554 S
C1352 H1337 0.960 . S
C1352 H1338 0.960 . S
C1352 H1339 0.960 . S
C1352 C1351 1.524 . S
C1353 C1350 1.403 . S
C1353 C1354 1.392 1_554 S
C1353 C1357 1.490 1_554 S
C1354 C1353 1.392 1_556 S
C1354 C1355 1.393 . S
C1354 C1356 1.440 1_655 S
C1355 H1349 0.947 . S
C1355 C1351 1.377 1_556 S
C1355 C1354 1.393 . S
C1356 C1354 1.440 1_455 S
C1356 C1358 1.436 . S
C1356 C1362 1.367 1_455 S
C1357 C1353 1.490 1_556 S
C1357 H1363 0.944 1_556 S
C1357 H1364 0.992 . S
C1357 H1365 0.950 1_656 S
C1358 C1356 1.436 . S
C1358 C1359 1.394 . S
C1358 H1366 0.930 1_556 S
C1359 C1358 1.394 . S
C1359 C1360 1.383 . S
C1359 H1367 0.929 . S
C1360 C1359 1.383 . S
C1360 C1361 1.377 . S
C1361 H1345 0.930 . S
C1361 C1360 1.377 . S
C1361 C1362 1.379 1_455 S
C1362 H1346 0.931 . S
C1362 C1356 1.367 1_655 S
C1362 C1361 1.379 1_655 S
H1363 C1357 0.944 1_554 S
H1364 C1357 0.992 . S
H1365 C1357 0.950 1_454 S
H1366 C1358 0.930 1_554 S
H1367 C1359 0.929 . S
H1368 C1376 0.929 . S
H1369 C1378 0.930 . S
H1370 C1380 0.930 . S
H1371 C1383 0.929 . S
H1372 C1386 0.930 . S
H1373 C1388 0.960 . S
H1374 C1388 0.960 . S
H1375 C1388 0.960 . S
C1376 H1368 0.929 . S
C1376 C1377 1.377 . S
C1376 C1378 1.384 . S
C1377 C1376 1.377 . S
C1377 C1383 1.390 . S
C1378 H1369 0.930 . S
C1378 C1376 1.384 . S
C1378 C1379 1.372 . S
C1379 C1378 1.372 . S
C1379 C1380 1.400 . S
C1379 C1384 1.490 . S
C1380 H1370 0.930 . S
C1380 C1379 1.400 . S
C1380 C1383 1.386 . S
H1381 C1397 0.930 . S
H1382 C1398 0.931 . S
C1383 H1371 0.929 . S
C1383 C1377 1.390 . S
C1383 C1380 1.386 . S
C1384 C1379 1.490 . S
C1384 C1386 1.395 1_556 S
C1384 C1387 1.403 . S
H1385 C1391 0.930 1_556 S
C1386 H1372 0.930 . S
C1386 C1384 1.395 1_554 S
C1386 C1389 1.403 . S
C1387 C1384 1.403 . S
C1387 C1388 1.524 . S
C1387 C1391 1.400 1_556 S
C1388 H1373 0.960 . S
C1388 H1374 0.960 . S
C1388 H1375 0.960 . S
C1388 C1387 1.524 . S
C1389 C1386 1.403 . S
C1389 C1390 1.392 . S
C1389 C1393 1.495 . S
C1390 C1389 1.392 . S
C1390 C1391 1.385 . S
C1390 C1392 1.478 . S
C1391 H1385 0.930 1_554 S
C1391 C1387 1.400 1_554 S
C1391 C1390 1.385 . S
C1392 C1390 1.478 . S
C1392 C1394 1.381 . S
C1392 C1398 1.383 . S
C1393 C1389 1.495 . S
C1393 H1399 0.959 . S
C1393 H1400 0.961 . S
C1393 H1401 0.960 . S
C1394 C1392 1.381 . S
C1394 C1395 1.394 . S
C1394 H1402 0.930 . S
C1395 C1394 1.394 . S
C1395 C1396 1.383 . S
C1395 H1403 0.929 . S
C1396 C1395 1.383 . S
C1396 C1397 1.377 . S
C1397 H1381 0.930 . S
C1397 C1396 1.377 . S
C1397 C1398 1.379 . S
C1398 H1382 0.931 . S
C1398 C1392 1.383 . S
C1398 C1397 1.379 . S
H1399 C1393 0.959 . S
H1400 C1393 0.961 . S
H1401 C1393 0.960 . S
H1402 C1394 0.930 . S
H1403 C1395 0.929 . S
H1404 C1412 0.929 . S
H1405 C1414 0.930 . S
H1406 C1416 0.930 . S
H1407 C1419 0.929 . S
H1408 C1422 0.930 . S
H1409 C1424 0.960 . S
H1410 C1424 0.960 . S
H1411 C1424 0.960 . S
C1412 H1404 0.929 . S
C1412 C1413 1.377 . S
C1412 C1414 1.384 . S
C1413 C1412 1.377 . S
C1413 C1419 1.390 . S
C1414 H1405 0.930 . S
C1414 C1412 1.384 . S
C1414 C1415 1.375 . S
C1415 C1414 1.375 . S
C1415 C1416 1.400 1_655 S
C1415 C1420 1.487 1_655 S
C1416 H1406 0.930 . S
C1416 C1415 1.400 1_455 S
C1416 C1419 1.386 1_455 S
H1417 C1433 0.930 . S
H1418 C1434 0.931 . S
C1419 H1407 0.929 . S
C1419 C1413 1.390 . S
C1419 C1416 1.386 1_655 S
C1420 C1415 1.487 1_455 S
C1420 C1422 1.395 . S
C1420 C1423 1.403 . S
H1421 C1427 0.930 . S
C1422 H1408 0.930 . S
C1422 C1420 1.395 . S
C1422 C1425 1.403 . S
C1423 C1420 1.403 . S
C1423 C1424 1.524 . S
C1423 C1427 1.400 . S
C1424 H1409 0.960 . S
C1424 H1410 0.960 . S
C1424 H1411 0.960 . S
C1424 C1423 1.524 . S
C1425 C1422 1.403 . S
C1425 C1426 1.392 . S
C1425 C1429 1.495 . S
C1426 C1425 1.392 . S
C1426 C1427 1.385 . S
C1426 C1428 1.478 . S
C1427 H1421 0.930 . S
C1427 C1423 1.400 . S
C1427 C1426 1.385 . S
C1428 C1426 1.478 . S
C1428 C1430 1.381 . S
C1428 C1434 1.383 . S
C1429 C1425 1.495 . S
C1429 H1435 0.959 . S
C1429 H1436 0.961 . S
C1429 H1437 0.960 . S
C1430 C1428 1.381 . S
C1430 C1431 1.394 . S
C1430 H1438 0.930 . S
C1431 C1430 1.394 . S
C1431 C1432 1.383 . S
C1431 H1439 0.929 . S
C1432 C1431 1.383 . S
C1432 C1433 1.377 . S
C1433 H1417 0.930 . S
C1433 C1432 1.377 . S
C1433 C1434 1.379 . S
C1434 H1418 0.931 . S
C1434 C1428 1.383 . S
C1434 C1433 1.379 . S
H1435 C1429 0.959 . S
H1436 C1429 0.961 . S
H1437 C1429 0.960 . S
H1438 C1430 0.930 . S
H1439 C1431 0.929 . S
H1440 C1448 0.929 . S
H1441 C1450 0.930 . S
H1442 C1452 0.930 . S
H1443 C1455 0.929 . S
H1444 C1458 0.930 . S
H1445 C1460 0.960 . S
H1446 C1460 0.960 . S
H1447 C1460 0.960 . S
C1448 H1440 0.929 . S
C1448 C1449 1.377 . S
C1448 C1450 1.384 . S
C1449 C1448 1.377 . S
C1449 C1455 1.390 . S
C1450 H1441 0.930 . S
C1450 C1448 1.384 . S
C1450 C1451 1.372 . S
C1451 C1450 1.372 . S
C1451 C1452 1.400 . S
C1451 C1456 1.490 . S
C1452 H1442 0.930 . S
C1452 C1451 1.400 . S
C1452 C1455 1.386 . S
H1453 C1469 0.930 . S
H1454 C1470 0.931 . S
C1455 H1443 0.929 . S
C1455 C1449 1.390 . S
C1455 C1452 1.386 . S
C1456 C1451 1.490 . S
C1456 C1458 1.395 . S
C1456 C1459 1.403 . S
H1457 C1463 0.930 . S
C1458 H1444 0.930 . S
C1458 C1456 1.395 . S
C1458 C1461 1.403 . S
C1459 C1456 1.403 . S
C1459 C1460 1.524 . S
C1459 C1463 1.400 . S
C1460 H1445 0.960 . S
C1460 H1446 0.960 . S
C1460 H1447 0.960 . S
C1460 C1459 1.524 . S
C1461 C1458 1.403 . S
C1461 C1462 1.392 . S
C1461 C1465 1.495 . S
C1462 C1461 1.392 . S
C1462 C1463 1.385 . S
C1462 C1464 1.478 . S
C1463 H1457 0.930 . S
C1463 C1459 1.400 . S
C1463 C1462 1.385 . S
C1464 C1462 1.478 . S
C1464 C1466 1.381 . S
C1464 C1470 1.383 . S
C1465 C1461 1.495 . S
C1465 H1471 0.959 . S
C1465 H1472 0.961 . S
C1465 H1473 0.960 . S
C1466 C1464 1.381 . S
C1466 C1467 1.394 . S
C1466 H1474 0.930 . S
C1467 C1466 1.394 . S
C1467 C1468 1.383 . S
C1467 H1475 0.929 . S
C1468 C1467 1.383 . S
C1468 C1469 1.377 . S
C1469 H1453 0.930 . S
C1469 C1468 1.377 . S
C1469 C1470 1.379 . S
C1470 H1454 0.931 . S
C1470 C1464 1.383 . S
C1470 C1469 1.379 . S
H1471 C1465 0.959 . S
H1472 C1465 0.961 . S
H1473 C1465 0.960 . S
H1474 C1466 0.930 . S
H1475 C1467 0.929 . S
H1476 C1484 0.929 . S
H1477 C1486 0.930 . S
H1478 C1488 0.930 . S
H1479 C1491 0.929 . S
H1480 C1494 0.930 . S
H1481 C1496 0.960 . S
H1482 C1496 0.960 . S
H1483 C1496 0.960 . S
C1484 H1476 0.929 . S
C1484 C1485 1.377 . S
C1484 C1486 1.384 . S
C1485 C1484 1.377 . S
C1485 C1491 1.390 . S
C1486 H1477 0.930 . S
C1486 C1484 1.384 . S
C1486 C1487 1.372 . S
C1487 C1486 1.372 . S
C1487 C1488 1.400 . S
C1487 C1492 1.490 . S
C1488 H1478 0.930 . S
C1488 C1487 1.400 . S
C1488 C1491 1.386 . S
H1489 C1505 0.930 . S
H1490 C1506 0.931 . S
C1491 H1479 0.929 . S
C1491 C1485 1.390 . S
C1491 C1488 1.386 . S
C1492 C1487 1.490 . S
C1492 C1494 1.395 . S
C1492 C1495 1.403 . S
H1493 C1499 0.930 . S
C1494 H1480 0.930 . S
C1494 C1492 1.395 . S
C1494 C1497 1.403 . S
C1495 C1492 1.403 . S
C1495 C1496 1.524 . S
C1495 C1499 1.400 . S
C1496 H1481 0.960 . S
C1496 H1482 0.960 . S
C1496 H1483 0.960 . S
C1496 C1495 1.524 . S
C1497 C1494 1.403 . S
C1497 C1498 1.392 . S
C1497 C1501 1.495 . S
C1498 C1497 1.392 . S
C1498 C1499 1.385 . S
C1498 C1500 1.449 1_565 S
C1499 H1493 0.930 . S
C1499 C1495 1.400 . S
C1499 C1498 1.385 . S
C1500 C1498 1.449 1_545 S
C1500 C1502 1.424 . S
C1500 C1506 1.369 1_545 S
C1501 C1497 1.495 . S
C1501 H1507 0.959 . S
C1501 H1508 0.961 . S
C1501 H1509 0.960 1_565 S
C1502 C1500 1.424 . S
C1502 C1503 1.394 . S
C1502 H1510 0.930 . S
C1503 C1502 1.394 . S
C1503 C1504 1.383 . S
C1503 H1511 0.929 . S
C1504 C1503 1.383 . S
C1504 C1505 1.377 . S
C1505 H1489 0.930 . S
C1505 C1504 1.377 . S
C1505 C1506 1.379 1_545 S
C1506 H1490 0.931 . S
C1506 C1500 1.369 1_565 S
C1506 C1505 1.379 1_565 S
H1507 C1501 0.959 . S
H1508 C1501 0.961 . S
H1509 C1501 0.960 1_545 S
H1510 C1502 0.930 . S
H1511 C1503 0.929 . S
H1512 C1520 0.929 . S
H1513 C1522 0.930 . S
H1514 C1524 0.930 1_565 S
H1515 C1527 0.929 . S
H1516 C1530 0.930 . S
H1517 C1532 0.960 . S
H1518 C1532 0.960 1_545 S
H1519 C1532 0.988 . S
C1520 H1512 0.929 . S
C1520 C1521 1.377 . S
C1520 C1522 1.384 . S
C1521 C1520 1.377 . S
C1521 C1527 1.390 . S
C1522 H1513 0.930 . S
C1522 C1520 1.384 . S
C1522 C1523 1.371 1_545 S
C1523 C1522 1.371 1_565 S
C1523 C1524 1.396 1_565 S
C1523 C1528 1.494 . S
C1524 H1514 0.930 1_545 S
C1524 C1523 1.396 1_545 S
C1524 C1527 1.386 . S
H1525 C1541 0.930 . S
H1526 C1542 0.931 . S
C1527 H1515 0.929 . S
C1527 C1521 1.390 . S
C1527 C1524 1.386 . S
C1528 C1523 1.494 . S
C1528 C1530 1.395 . S
C1528 C1531 1.403 1_554 S
H1529 C1535 0.930 . S
C1530 H1516 0.930 . S
C1530 C1528 1.395 . S
C1530 C1533 1.403 . S
C1531 C1528 1.403 1_556 S
C1531 C1532 1.524 . S
C1531 C1535 1.400 . S
C1532 H1517 0.960 . S
C1532 H1518 0.960 1_565 S
C1532 H1519 0.988 . S
C1532 C1531 1.524 . S
C1533 C1530 1.403 . S
C1533 C1534 1.392 1_554 S
C1533 C1537 1.495 . S
C1534 C1533 1.392 1_556 S
C1534 C1535 1.385 . S
C1534 C1536 1.478 . S
C1535 H1529 0.930 . S
C1535 C1531 1.400 . S
C1535 C1534 1.385 . S
C1536 C1534 1.478 . S
C1536 C1538 1.381 . S
C1536 C1542 1.383 . S
C1537 C1533 1.495 . S
C1537 H1543 0.959 . S
C1537 H1544 0.961 . S
C1537 H1545 0.960 . S
C1538 C1536 1.381 . S
C1538 C1539 1.394 . S
C1538 H1546 0.930 . S
C1539 C1538 1.394 . S
C1539 C1540 1.383 . S
C1539 H1547 0.929 . S
C1540 C1539 1.383 . S
C1540 C1541 1.377 . S
C1541 H1525 0.930 . S
C1541 C1540 1.377 . S
C1541 C1542 1.379 . S
C1542 H1526 0.931 . S
C1542 C1536 1.383 . S
C1542 C1541 1.379 . S
H1543 C1537 0.959 . S
H1544 C1537 0.961 . S
H1545 C1537 0.960 . S
H1546 C1538 0.930 . S
H1547 C1539 0.929 . S
H1548 C1556 0.929 . S
H1549 C1558 0.921 1_455 S
H1550 C1560 0.930 . S
H1551 C1563 0.929 . S
H1552 C1566 0.930 . S
H1553 C1568 0.960 . S
H1554 C1568 0.960 . S
H1555 C1568 0.960 . S
C1556 H1548 0.929 . S
C1556 C1557 1.377 . S
C1556 C1558 1.384 . S
C1557 C1556 1.377 . S
C1557 C1563 1.390 . S
C1558 H1549 0.921 1_655 S
C1558 C1556 1.384 . S
C1558 C1559 1.381 1_655 S
C1559 C1558 1.381 1_455 S
C1559 C1560 1.361 1_455 S
C1559 C1564 1.519 . S
C1560 H1550 0.930 . S
C1560 C1559 1.361 1_655 S
C1560 C1563 1.386 . S
H1561 C1577 0.930 . S
H1562 C1578 0.931 . S
C1563 H1551 0.929 . S
C1563 C1557 1.390 . S
C1563 C1560 1.386 . S
C1564 C1559 1.519 . S
C1564 C1566 1.395 1_554 S
C1564 C1567 1.403 . S
H1565 C1571 0.930 1_554 S
C1566 H1552 0.930 . S
C1566 C1564 1.395 1_556 S
C1566 C1569 1.403 . S
C1567 C1564 1.403 . S
C1567 C1568 1.524 . S
C1567 C1571 1.400 1_554 S
C1568 H1553 0.960 . S
C1568 H1554 0.960 . S
C1568 H1555 0.960 . S
C1568 C1567 1.524 . S
C1569 C1566 1.403 . S
C1569 C1570 1.392 . S
C1569 C1573 1.495 . S
C1570 C1569 1.392 . S
C1570 C1571 1.385 . S
C1570 C1572 1.478 . S
C1571 H1565 0.930 1_556 S
C1571 C1567 1.400 1_556 S
C1571 C1570 1.385 . S
C1572 C1570 1.478 . S
C1572 C1574 1.381 . S
C1572 C1578 1.383 . S
C1573 C1569 1.495 . S
C1573 H1579 0.959 . S
C1573 H1580 0.961 . S
C1573 H1581 0.960 . S
C1574 C1572 1.381 . S
C1574 C1575 1.394 . S
C1574 H1582 0.930 . S
C1575 C1574 1.394 . S
C1575 C1576 1.383 . S
C1575 H1583 0.929 . S
C1576 C1575 1.383 . S
C1576 C1577 1.377 . S
C1577 H1561 0.930 . S
C1577 C1576 1.377 . S
C1577 C1578 1.379 . S
C1578 H1562 0.931 . S
C1578 C1572 1.383 . S
C1578 C1577 1.379 . S
H1579 C1573 0.959 . S
H1580 C1573 0.961 . S
H1581 C1573 0.960 . S
H1582 C1574 0.930 . S
H1583 C1575 0.929 . S
H1584 C1592 0.929 . S
H1585 C1594 0.930 . S
H1586 C1596 0.930 . S
H1587 C1599 0.929 . S
H1588 C1602 0.930 . S
H1589 C1604 0.960 . S
H1590 C1604 0.960 1_556 S
H1591 C1604 0.960 . S
C1592 H1584 0.929 . S
C1592 C1593 1.377 . S
C1592 C1594 1.384 . S
C1593 C1592 1.377 . S
C1593 C1599 1.390 . S
C1594 H1585 0.930 . S
C1594 C1592 1.384 . S
C1594 C1595 1.372 . S
C1595 C1594 1.372 . S
C1595 C1596 1.400 . S
C1595 C1600 1.490 . S
C1596 H1586 0.930 . S
C1596 C1595 1.400 . S
C1596 C1599 1.386 . S
H1597 C1613 0.930 . S
H1598 C1614 0.931 . S
C1599 H1587 0.929 . S
C1599 C1593 1.390 . S
C1599 C1596 1.386 . S
C1600 C1595 1.490 . S
C1600 C1602 1.395 . S
C1600 C1603 1.403 . S
H1601 C1607 0.930 . S
C1602 H1588 0.930 . S
C1602 C1600 1.395 . S
C1602 C1605 1.403 . S
C1603 C1600 1.403 . S
C1603 C1604 1.524 1_556 S
C1603 C1607 1.400 1_556 S
C1604 H1589 0.960 . S
C1604 H1590 0.960 1_554 S
C1604 H1591 0.960 . S
C1604 C1603 1.524 1_554 S
C1605 C1602 1.403 . S
C1605 C1606 1.392 1_556 S
C1605 C1609 1.495 . S
C1606 C1605 1.392 1_554 S
C1606 C1607 1.385 . S
C1606 C1608 1.478 . S
C1607 H1601 0.930 . S
C1607 C1603 1.400 1_554 S
C1607 C1606 1.385 . S
C1608 C1606 1.478 . S
C1608 C1610 1.381 . S
C1608 C1614 1.383 . S
C1609 C1605 1.495 . S
C1609 H1615 0.959 . S
C1609 H1616 0.961 . S
C1609 H1617 0.960 . S
C1610 C1608 1.381 . S
C1610 C1611 1.394 . S
C1610 H1618 0.930 1_554 S
C1611 C1610 1.394 . S
C1611 C1612 1.383 . S
C1611 H1619 0.929 . S
C1612 C1611 1.383 . S
C1612 C1613 1.377 . S
C1613 H1597 0.930 . S
C1613 C1612 1.377 . S
C1613 C1614 1.379 . S
C1614 H1598 0.931 . S
C1614 C1608 1.383 . S
C1614 C1613 1.379 . S
H1615 C1609 0.959 . S
H1616 C1609 0.961 . S
H1617 C1609 0.960 . S
H1618 C1610 0.930 1_556 S
H1619 C1611 0.929 . S
H1620 C1628 0.929 . S
H1621 C1630 0.930 . S
H1622 C1632 0.930 . S
H1623 C1635 0.929 . S
H1624 C1638 0.930 . S
H1625 C1640 0.960 . S
H1626 C1640 0.960 . S
H1627 C1640 0.960 . S
C1628 H1620 0.929 . S
C1628 C1629 1.377 . S
C1628 C1630 1.384 . S
C1629 C1628 1.377 . S
C1629 C1635 1.390 . S
C1630 H1621 0.930 . S
C1630 C1628 1.384 . S
C1630 C1631 1.372 . S
C1631 C1630 1.372 . S
C1631 C1632 1.400 . S
C1631 C1636 1.490 . S
C1632 H1622 0.930 . S
C1632 C1631 1.400 . S
C1632 C1635 1.386 . S
H1633 C1649 0.930 . S
H1634 C1650 0.931 . S
C1635 H1623 0.929 . S
C1635 C1629 1.390 . S
C1635 C1632 1.386 . S
C1636 C1631 1.490 . S
C1636 C1638 1.395 . S
C1636 C1639 1.403 . S
H1637 C1643 0.930 . S
C1638 H1624 0.930 . S
C1638 C1636 1.395 . S
C1638 C1641 1.403 . S
C1639 C1636 1.403 . S
C1639 C1640 1.524 . S
C1639 C1643 1.400 . S
C1640 H1625 0.960 . S
C1640 H1626 0.960 . S
C1640 H1627 0.960 . S
C1640 C1639 1.524 . S
C1641 C1638 1.403 . S
C1641 C1642 1.392 . S
C1641 C1645 1.495 . S
C1642 C1641 1.392 . S
C1642 C1643 1.385 . S
C1642 C1644 1.459 1_655 S
C1643 H1637 0.930 . S
C1643 C1639 1.400 . S
C1643 C1642 1.385 . S
C1644 C1642 1.459 1_455 S
C1644 C1646 1.400 . S
C1644 C1650 1.382 1_455 S
C1645 C1641 1.495 . S
C1645 H1651 0.959 . S
C1645 H1652 0.961 . S
C1645 H1653 0.960 1_655 S
C1646 C1644 1.400 . S
C1646 C1647 1.394 . S
C1646 H1654 0.930 . S
C1647 C1646 1.394 . S
C1647 C1648 1.383 . S
C1647 H1655 0.929 . S
C1648 C1647 1.383 . S
C1648 C1649 1.377 . S
C1649 H1633 0.930 . S
C1649 C1648 1.377 . S
C1649 C1650 1.379 1_455 S
C1650 H1634 0.931 . S
C1650 C1644 1.382 1_655 S
C1650 C1649 1.379 1_655 S
H1651 C1645 0.959 . S
H1652 C1645 0.961 . S
H1653 C1645 0.960 1_455 S
H1654 C1646 0.930 . S
H1655 C1647 0.929 . S
H1656 C1664 0.929 . S
H1657 C1666 0.930 . S
H1658 C1668 0.930 . S
H1659 C1671 0.929 . S
H1660 C1674 0.930 . S
H1661 C1676 0.960 . S
H1662 C1676 0.960 . S
H1663 C1676 0.960 . S
C1664 H1656 0.929 . S
C1664 C1665 1.377 . S
C1664 C1666 1.384 . S
C1665 C1664 1.377 . S
C1665 C1671 1.390 . S
C1666 H1657 0.930 . S
C1666 C1664 1.384 . S
C1666 C1667 1.372 . S
C1667 C1666 1.372 . S
C1667 C1668 1.400 . S
C1667 C1672 1.490 . S
C1668 H1658 0.930 . S
C1668 C1667 1.400 . S
C1668 C1671 1.386 . S
H1669 C1685 0.930 . S
H1670 C1686 0.931 . S
C1671 H1659 0.929 . S
C1671 C1665 1.390 . S
C1671 C1668 1.386 . S
C1672 C1667 1.490 . S
C1672 C1674 1.395 . S
C1672 C1675 1.403 . S
H1673 C1679 0.930 . S
C1674 H1660 0.930 . S
C1674 C1672 1.395 . S
C1674 C1677 1.403 . S
C1675 C1672 1.403 . S
C1675 C1676 1.524 . S
C1675 C1679 1.400 . S
C1676 H1661 0.960 . S
C1676 H1662 0.960 . S
C1676 H1663 0.960 . S
C1676 C1675 1.524 . S
C1677 C1674 1.403 . S
C1677 C1678 1.392 . S
C1677 C1681 1.495 . S
C1678 C1677 1.392 . S
C1678 C1679 1.385 . S
C1678 C1680 1.478 . S
C1679 H1673 0.930 . S
C1679 C1675 1.400 . S
C1679 C1678 1.385 . S
C1680 C1678 1.478 . S
C1680 C1682 1.381 . S
C1680 C1686 1.383 . S
C1681 C1677 1.495 . S
C1681 H1687 0.959 . S
C1681 H1688 0.961 . S
C1681 H1689 0.960 . S
C1682 C1680 1.381 . S
C1682 C1683 1.394 . S
C1682 H1690 0.930 . S
C1683 C1682 1.394 . S
C1683 C1684 1.383 . S
C1683 H1691 0.929 . S
C1684 C1683 1.383 . S
C1684 C1685 1.377 . S
C1685 H1669 0.930 . S
C1685 C1684 1.377 . S
C1685 C1686 1.379 . S
C1686 H1670 0.931 . S
C1686 C1680 1.383 . S
C1686 C1685 1.379 . S
H1687 C1681 0.959 . S
H1688 C1681 0.961 . S
H1689 C1681 0.960 . S
H1690 C1682 0.930 . S
H1691 C1683 0.929 . S
H1692 C1700 0.929 . S
H1693 C1702 0.930 . S
H1694 C1704 0.930 . S
H1695 C1707 0.929 . S
H1696 C1710 0.930 . S
H1697 C1712 0.960 . S
H1698 C1712 0.960 . S
H1699 C1712 0.960 . S
C1700 H1692 0.929 . S
C1700 C1701 1.377 . S
C1700 C1702 1.384 . S
C1701 C1700 1.377 . S
C1701 C1707 1.390 . S
C1702 H1693 0.930 . S
C1702 C1700 1.384 . S
C1702 C1703 1.372 . S
C1703 C1702 1.372 . S
C1703 C1704 1.400 . S
C1703 C1708 1.490 . S
C1704 H1694 0.930 . S
C1704 C1703 1.400 . S
C1704 C1707 1.386 . S
H1705 C1721 0.930 . S
H1706 C1722 0.931 . S
C1707 H1695 0.929 . S
C1707 C1701 1.390 . S
C1707 C1704 1.386 . S
C1708 C1703 1.490 . S
C1708 C1710 1.395 . S
C1708 C1711 1.403 . S
H1709 C1715 0.930 . S
C1710 H1696 0.930 . S
C1710 C1708 1.395 . S
C1710 C1713 1.403 . S
C1711 C1708 1.403 . S
C1711 C1712 1.524 . S
C1711 C1715 1.400 . S
C1712 H1697 0.960 . S
C1712 H1698 0.960 . S
C1712 H1699 0.960 . S
C1712 C1711 1.524 . S
C1713 C1710 1.403 . S
C1713 C1714 1.392 . S
C1713 C1717 1.495 . S
C1714 C1713 1.392 . S
C1714 C1715 1.385 . S
C1714 C1716 1.478 . S
C1715 H1709 0.930 . S
C1715 C1711 1.400 . S
C1715 C1714 1.385 . S
C1716 C1714 1.478 . S
C1716 C1718 1.381 1_545 S
C1716 C1722 1.383 1_545 S
C1717 C1713 1.495 . S
C1717 H1723 0.959 . S
C1717 H1724 0.961 . S
C1717 H1725 0.960 . S
C1718 C1716 1.381 1_565 S
C1718 C1719 1.395 . S
C1718 H1726 0.929 1_565 S
C1719 C1718 1.395 . S
C1719 C1720 1.383 . S
C1719 H1727 0.929 . S
C1720 C1719 1.383 . S
C1720 C1721 1.377 . S
C1721 H1705 0.930 . S
C1721 C1720 1.377 . S
C1721 C1722 1.379 . S
C1722 H1706 0.931 . S
C1722 C1716 1.383 1_565 S
C1722 C1721 1.379 . S
H1723 C1717 0.959 . S
H1724 C1717 0.961 . S
H1725 C1717 0.960 . S
H1726 C1718 0.929 1_545 S
H1727 C1719 0.929 . S
H1728 C1736 0.929 . S
H1729 C1738 0.930 . S
H1730 C1740 0.930 . S
H1731 C1743 0.929 . S
H1732 C1746 0.930 . S
H1733 C1748 0.960 . S
H1734 C1748 0.960 . S
H1735 C1748 0.960 . S
C1736 H1728 0.929 . S
C1736 C1737 1.377 . S
C1736 C1738 1.384 . S
C1737 C1736 1.377 . S
C1737 C1743 1.390 . S
C1738 H1729 0.930 . S
C1738 C1736 1.384 . S
C1738 C1739 1.372 . S
C1739 C1738 1.372 . S
C1739 C1740 1.400 . S
C1739 C1744 1.490 . S
C1740 H1730 0.930 . S
C1740 C1739 1.400 . S
C1740 C1743 1.386 . S
H1741 C1757 0.930 . S
H1742 C1758 0.931 . S
C1743 H1731 0.929 . S
C1743 C1737 1.390 . S
C1743 C1740 1.386 . S
C1744 C1739 1.490 . S
C1744 C1746 1.395 . S
C1744 C1747 1.403 . S
H1745 C1751 0.930 . S
C1746 H1732 0.930 . S
C1746 C1744 1.395 . S
C1746 C1749 1.403 . S
C1747 C1744 1.403 . S
C1747 C1748 1.524 . S
C1747 C1751 1.400 . S
C1748 H1733 0.960 . S
C1748 H1734 0.960 . S
C1748 H1735 0.960 . S
C1748 C1747 1.524 . S
C1749 C1746 1.403 . S
C1749 C1750 1.392 . S
C1749 C1753 1.495 . S
C1750 C1749 1.392 . S
C1750 C1751 1.385 . S
C1750 C1752 1.478 . S
C1751 H1745 0.930 . S
C1751 C1747 1.400 . S
C1751 C1750 1.385 . S
C1752 C1750 1.478 . S
C1752 C1754 1.381 . S
C1752 C1758 1.383 . S
C1753 C1749 1.495 . S
C1753 H1759 0.959 . S
C1753 H1760 0.961 . S
C1753 H1761 0.960 . S
C1754 C1752 1.381 . S
C1754 C1755 1.394 . S
C1754 H1762 0.930 . S
C1755 C1754 1.394 . S
C1755 C1756 1.383 . S
C1755 H1763 0.929 . S
C1756 C1755 1.383 . S
C1756 C1757 1.377 . S
C1757 H1741 0.930 . S
C1757 C1756 1.377 . S
C1757 C1758 1.379 . S
C1758 H1742 0.931 . S
C1758 C1752 1.383 . S
C1758 C1757 1.379 . S
H1759 C1753 0.959 . S
H1760 C1753 0.961 . S
H1761 C1753 0.960 . S
H1762 C1754 0.930 . S
H1763 C1755 0.929 . S
H1764 C1772 0.929 . S
H1765 C1774 0.930 . S
H1766 C1776 0.930 . S
H1767 C1779 0.929 . S
H1768 C1782 0.930 . S
H1769 C1784 0.960 . S
H1770 C1784 0.960 . S
H1771 C1784 0.960 . S
C1772 H1764 0.929 . S
C1772 C1773 1.377 . S
C1772 C1774 1.384 . S
C1773 C1772 1.377 . S
C1773 C1779 1.390 . S
C1774 H1765 0.930 . S
C1774 C1772 1.384 . S
C1774 C1775 1.372 . S
C1775 C1774 1.372 . S
C1775 C1776 1.400 . S
C1775 C1780 1.490 . S
C1776 H1766 0.930 . S
C1776 C1775 1.400 . S
C1776 C1779 1.386 . S
H1777 C1793 0.930 . S
H1778 C1794 0.931 . S
C1779 H1767 0.929 . S
C1779 C1773 1.390 . S
C1779 C1776 1.386 . S
C1780 C1775 1.490 . S
C1780 C1782 1.395 . S
C1780 C1783 1.403 . S
H1781 C1787 0.930 . S
C1782 H1768 0.930 . S
C1782 C1780 1.395 . S
C1782 C1785 1.403 . S
C1783 C1780 1.403 . S
C1783 C1784 1.524 . S
C1783 C1787 1.400 . S
C1784 H1769 0.960 . S
C1784 H1770 0.960 . S
C1784 H1771 0.960 . S
C1784 C1783 1.524 . S
C1785 C1782 1.403 . S
C1785 C1786 1.392 . S
C1785 C1789 1.495 . S
C1786 C1785 1.392 . S
C1786 C1787 1.385 . S
C1786 C1788 1.478 . S
C1787 H1781 0.930 . S
C1787 C1783 1.400 . S
C1787 C1786 1.385 . S
C1788 C1786 1.478 . S
C1788 C1790 1.381 . S
C1788 C1794 1.383 . S
C1789 C1785 1.495 . S
C1789 H1795 0.959 . S
C1789 H1796 0.961 . S
C1789 H1797 0.960 . S
C1790 C1788 1.381 . S
C1790 C1791 1.394 . S
C1790 H1798 0.930 . S
C1791 C1790 1.394 . S
C1791 C1792 1.383 . S
C1791 H1799 0.929 . S
C1792 C1791 1.383 . S
C1792 C1793 1.377 . S
C1793 H1777 0.930 . S
C1793 C1792 1.377 . S
C1793 C1794 1.379 . S
C1794 H1778 0.931 . S
C1794 C1788 1.383 . S
C1794 C1793 1.379 . S
H1795 C1789 0.959 . S
H1796 C1789 0.961 . S
H1797 C1789 0.960 . S
H1798 C1790 0.930 . S
H1799 C1791 0.929 . S
H1800 C1808 0.929 . S
H1801 C1810 0.930 . S
H1802 C1812 0.930 . S
H1803 C1815 0.929 . S
H1804 C1818 0.930 . S
H1805 C1820 0.960 . S
H1806 C1820 0.960 . S
H1807 C1820 0.960 . S
C1808 H1800 0.929 . S
C1808 C1809 1.377 . S
C1808 C1810 1.384 . S
C1809 C1808 1.377 . S
C1809 C1815 1.390 . S
C1810 H1801 0.930 . S
C1810 C1808 1.384 . S
C1810 C1811 1.372 . S
C1811 C1810 1.372 . S
C1811 C1812 1.400 . S
C1811 C1816 1.490 . S
C1812 H1802 0.930 . S
C1812 C1811 1.400 . S
C1812 C1815 1.386 . S
H1813 C1829 0.930 . S
H1814 C1830 0.931 . S
C1815 H1803 0.929 . S
C1815 C1809 1.390 . S
C1815 C1812 1.386 . S
C1816 C1811 1.490 . S
C1816 C1818 1.395 . S
C1816 C1819 1.403 . S
H1817 C1823 0.930 . S
C1818 H1804 0.930 . S
C1818 C1816 1.395 . S
C1818 C1821 1.403 . S
C1819 C1816 1.403 . S
C1819 C1820 1.524 . S
C1819 C1823 1.400 . S
C1820 H1805 0.960 . S
C1820 H1806 0.960 . S
C1820 H1807 0.960 . S
C1820 C1819 1.524 . S
C1821 C1818 1.403 . S
C1821 C1822 1.392 . S
C1821 C1825 1.495 . S
C1822 C1821 1.392 . S
C1822 C1823 1.385 . S
C1822 C1824 1.478 . S
C1823 H1817 0.930 . S
C1823 C1819 1.400 . S
C1823 C1822 1.385 . S
C1824 C1822 1.478 . S
C1824 C1826 1.381 . S
C1824 C1830 1.383 . S
C1825 C1821 1.495 . S
C1825 H1831 0.959 . S
C1825 H1832 0.961 . S
C1825 H1833 0.960 . S
C1826 C1824 1.381 . S
C1826 C1827 1.394 . S
C1826 H1834 0.930 . S
C1827 C1826 1.394 . S
C1827 C1828 1.383 . S
C1827 H1835 0.929 . S
C1828 C1827 1.383 . S
C1828 C1829 1.377 . S
C1829 H1813 0.930 . S
C1829 C1828 1.377 . S
C1829 C1830 1.379 . S
C1830 H1814 0.931 . S
C1830 C1824 1.383 . S
C1830 C1829 1.379 . S
H1831 C1825 0.959 . S
H1832 C1825 0.961 . S
H1833 C1825 0.960 . S
H1834 C1826 0.930 . S
H1835 C1827 0.929 . S
H1836 C1844 0.929 . S
H1837 C1846 0.930 . S
H1838 C1848 0.930 . S
H1839 C1851 0.929 . S
H1840 C1854 0.930 . S
H1841 C1856 0.960 . S
H1842 C1856 0.960 . S
H1843 C1856 0.960 . S
C1844 H1836 0.929 . S
C1844 C1845 1.377 . S
C1844 C1846 1.384 . S
C1845 C1844 1.377 . S
C1845 C1851 1.390 . S
C1846 H1837 0.930 . S
C1846 C1844 1.384 . S
C1846 C1847 1.372 . S
C1847 C1846 1.372 . S
C1847 C1848 1.400 . S
C1847 C1852 1.490 . S
C1848 H1838 0.930 . S
C1848 C1847 1.400 . S
C1848 C1851 1.386 . S
H1849 C1865 0.930 . S
H1850 C1866 0.931 . S
C1851 H1839 0.929 . S
C1851 C1845 1.390 . S
C1851 C1848 1.386 . S
C1852 C1847 1.490 . S
C1852 C1854 1.395 . S
C1852 C1855 1.403 . S
H1853 C1859 0.930 . S
C1854 H1840 0.930 . S
C1854 C1852 1.395 . S
C1854 C1857 1.403 . S
C1855 C1852 1.403 . S
C1855 C1856 1.524 . S
C1855 C1859 1.400 . S
C1856 H1841 0.960 . S
C1856 H1842 0.960 . S
C1856 H1843 0.960 . S
C1856 C1855 1.524 . S
C1857 C1854 1.403 . S
C1857 C1858 1.392 . S
C1857 C1861 1.495 . S
C1858 C1857 1.392 . S
C1858 C1859 1.385 . S
C1858 C1860 1.478 . S
C1859 H1853 0.930 . S
C1859 C1855 1.400 . S
C1859 C1858 1.385 . S
C1860 C1858 1.478 . S
C1860 C1862 1.381 . S
C1860 C1866 1.383 . S
C1861 C1857 1.495 . S
C1861 H1867 0.959 . S
C1861 H1868 0.961 . S
C1861 H1869 0.960 . S
C1862 C1860 1.381 . S
C1862 C1863 1.394 . S
C1862 H1870 0.930 . S
C1863 C1862 1.394 . S
C1863 C1864 1.383 . S
C1863 H1871 0.929 . S
C1864 C1863 1.383 . S
C1864 C1865 1.377 . S
C1865 H1849 0.930 . S
C1865 C1864 1.377 . S
C1865 C1866 1.379 . S
C1866 H1850 0.931 . S
C1866 C1860 1.383 . S
C1866 C1865 1.379 . S
H1867 C1861 0.959 . S
H1868 C1861 0.961 . S
H1869 C1861 0.960 . S
H1870 C1862 0.930 . S
H1871 C1863 0.929 . S
H1872 C1880 0.929 . S
H1873 C1882 0.930 . S
H1874 C1884 0.930 . S
H1875 C1887 0.929 . S
H1876 C1890 0.930 . S
H1877 C1892 0.960 . S
H1878 C1892 0.960 . S
H1879 C1892 0.960 . S
C1880 H1872 0.929 . S
C1880 C1881 1.377 . S
C1880 C1882 1.384 . S
C1881 C1880 1.377 . S
C1881 C1887 1.390 . S
C1882 H1873 0.930 . S
C1882 C1880 1.384 . S
C1882 C1883 1.372 . S
C1883 C1882 1.372 . S
C1883 C1884 1.400 . S
C1883 C1888 1.490 . S
C1884 H1874 0.930 . S
C1884 C1883 1.400 . S
C1884 C1887 1.386 . S
H1885 C1901 0.930 . S
H1886 C1902 0.931 . S
C1887 H1875 0.929 . S
C1887 C1881 1.390 . S
C1887 C1884 1.386 . S
C1888 C1883 1.490 . S
C1888 C1890 1.395 . S
C1888 C1891 1.403 . S
H1889 C1895 0.930 . S
C1890 H1876 0.930 . S
C1890 C1888 1.395 . S
C1890 C1893 1.403 . S
C1891 C1888 1.403 . S
C1891 C1892 1.524 . S
C1891 C1895 1.400 . S
C1892 H1877 0.960 . S
C1892 H1878 0.960 . S
C1892 H1879 0.960 . S
C1892 C1891 1.524 . S
C1893 C1890 1.403 . S
C1893 C1894 1.392 . S
C1893 C1897 1.495 . S
C1894 C1893 1.392 . S
C1894 C1895 1.385 . S
C1894 C1896 1.478 . S
C1895 H1889 0.930 . S
C1895 C1891 1.400 . S
C1895 C1894 1.385 . S
C1896 C1894 1.478 . S
C1896 C1898 1.381 . S
C1896 C1902 1.383 . S
C1897 C1893 1.495 . S
C1897 H1903 0.959 . S
C1897 H1904 0.961 . S
C1897 H1905 0.960 . S
C1898 C1896 1.381 . S
C1898 C1899 1.394 . S
C1898 H1906 0.930 . S
C1899 C1898 1.394 . S
C1899 C1900 1.383 . S
C1899 H1907 0.929 . S
C1900 C1899 1.383 . S
C1900 C1901 1.377 . S
C1901 H1885 0.930 . S
C1901 C1900 1.377 . S
C1901 C1902 1.379 . S
C1902 H1886 0.931 . S
C1902 C1896 1.383 . S
C1902 C1901 1.379 . S
H1903 C1897 0.959 . S
H1904 C1897 0.961 . S
H1905 C1897 0.960 . S
H1906 C1898 0.930 . S
H1907 C1899 0.929 . S
H1908 C1916 0.929 . S
H1909 C1918 0.930 . S
H1910 C1920 0.930 . S
H1911 C1923 0.929 . S
H1912 C1926 0.930 . S
H1913 C1928 0.960 . S
H1914 C1928 0.960 . S
H1915 C1928 0.960 . S
C1916 H1908 0.929 . S
C1916 C1917 1.377 . S
C1916 C1918 1.384 . S
C1917 C1916 1.377 . S
C1917 C1923 1.390 . S
C1918 H1909 0.930 . S
C1918 C1916 1.384 . S
C1918 C1919 1.372 . S
C1919 C1918 1.372 . S
C1919 C1920 1.400 . S
C1919 C1924 1.490 . S
C1920 H1910 0.930 . S
C1920 C1919 1.400 . S
C1920 C1923 1.386 . S
H1921 C1937 0.930 . S
H1922 C1938 0.931 . S
C1923 H1911 0.929 . S
C1923 C1917 1.390 . S
C1923 C1920 1.386 . S
C1924 C1919 1.490 . S
C1924 C1926 1.395 . S
C1924 C1927 1.403 . S
H1925 C1931 0.930 . S
C1926 H1912 0.930 . S
C1926 C1924 1.395 . S
C1926 C1929 1.403 . S
C1927 C1924 1.403 . S
C1927 C1928 1.524 . S
C1927 C1931 1.400 . S
C1928 H1913 0.960 . S
C1928 H1914 0.960 . S
C1928 H1915 0.960 . S
C1928 C1927 1.524 . S
C1929 C1926 1.403 . S
C1929 C1930 1.392 . S
C1929 C1933 1.495 . S
C1930 C1929 1.392 . S
C1930 C1931 1.385 . S
C1930 C1932 1.478 . S
C1931 H1925 0.930 . S
C1931 C1927 1.400 . S
C1931 C1930 1.385 . S
C1932 C1930 1.478 . S
C1932 C1934 1.381 . S
C1932 C1938 1.383 . S
C1933 C1929 1.495 . S
C1933 H1939 0.959 . S
C1933 H1940 0.961 . S
C1933 H1941 0.960 . S
C1934 C1932 1.381 . S
C1934 C1935 1.394 . S
C1934 H1942 0.930 . S
C1935 C1934 1.394 . S
C1935 C1936 1.383 . S
C1935 H1943 0.929 . S
C1936 C1935 1.383 . S
C1936 C1937 1.377 . S
C1937 H1921 0.930 . S
C1937 C1936 1.377 . S
C1937 C1938 1.379 . S
C1938 H1922 0.931 . S
C1938 C1932 1.383 . S
C1938 C1937 1.379 . S
H1939 C1933 0.959 . S
H1940 C1933 0.961 . S
H1941 C1933 0.960 . S
H1942 C1934 0.930 . S
H1943 C1935 0.929 . S
H1944 C1952 0.929 . S
H1945 C1954 0.930 . S
H1946 C1956 0.930 . S
H1947 C1959 0.929 . S
H1948 C1962 0.930 . S
H1949 C1964 0.960 . S
H1950 C1964 0.960 . S
H1951 C1964 0.960 . S
C1952 H1944 0.929 . S
C1952 C1953 1.377 . S
C1952 C1954 1.384 . S
C1953 C1952 1.377 . S
C1953 C1959 1.390 . S
C1954 H1945 0.930 . S
C1954 C1952 1.384 . S
C1954 C1955 1.372 . S
C1955 C1954 1.372 . S
C1955 C1956 1.400 . S
C1955 C1960 1.490 . S
C1956 H1946 0.930 . S
C1956 C1955 1.400 . S
C1956 C1959 1.386 . S
H1957 C1973 0.930 . S
H1958 C1974 0.931 . S
C1959 H1947 0.929 . S
C1959 C1953 1.390 . S
C1959 C1956 1.386 . S
C1960 C1955 1.490 . S
C1960 C1962 1.395 . S
C1960 C1963 1.403 . S
H1961 C1967 0.930 . S
C1962 H1948 0.930 . S
C1962 C1960 1.395 . S
C1962 C1965 1.403 . S
C1963 C1960 1.403 . S
C1963 C1964 1.524 . S
C1963 C1967 1.400 . S
C1964 H1949 0.960 . S
C1964 H1950 0.960 . S
C1964 H1951 0.960 . S
C1964 C1963 1.524 . S
C1965 C1962 1.403 . S
C1965 C1966 1.392 . S
C1965 C1969 1.495 . S
C1966 C1965 1.392 . S
C1966 C1967 1.385 . S
C1966 C1968 1.478 . S
C1967 H1961 0.930 . S
C1967 C1963 1.400 . S
C1967 C1966 1.385 . S
C1968 C1966 1.478 . S
C1968 C1970 1.381 . S
C1968 C1974 1.383 . S
C1969 C1965 1.495 . S
C1969 H1975 0.959 . S
C1969 H1976 0.961 . S
C1969 H1977 0.960 . S
C1970 C1968 1.381 . S
C1970 C1971 1.394 . S
C1970 H1978 0.930 . S
C1971 C1970 1.394 . S
C1971 C1972 1.383 . S
C1971 H1979 0.929 . S
C1972 C1971 1.383 . S
C1972 C1973 1.377 . S
C1973 H1957 0.930 . S
C1973 C1972 1.377 . S
C1973 C1974 1.379 . S
C1974 H1958 0.931 . S
C1974 C1968 1.383 . S
C1974 C1973 1.379 . S
H1975 C1969 0.959 . S
H1976 C1969 0.961 . S
H1977 C1969 0.960 . S
H1978 C1970 0.930 . S
H1979 C1971 0.929 . S
H1980 C1988 0.929 . S
H1981 C1990 0.930 . S
H1982 C1992 0.930 . S
H1983 C1995 0.929 . S
H1984 C1998 0.930 . S
H1985 C2000 0.960 . S
H1986 C2000 0.960 . S
H1987 C2000 0.960 . S
C1988 H1980 0.929 . S
C1988 C1989 1.377 . S
C1988 C1990 1.384 . S
C1989 C1988 1.377 . S
C1989 C1995 1.390 . S
C1990 H1981 0.930 . S
C1990 C1988 1.384 . S
C1990 C1991 1.372 . S
C1991 C1990 1.372 . S
C1991 C1992 1.400 . S
C1991 C1996 1.490 . S
C1992 H1982 0.930 . S
C1992 C1991 1.400 . S
C1992 C1995 1.386 . S
H1993 C2009 0.930 . S
H1994 C2010 0.931 . S
C1995 H1983 0.929 . S
C1995 C1989 1.390 . S
C1995 C1992 1.386 . S
C1996 C1991 1.490 . S
C1996 C1998 1.395 . S
C1996 C1999 1.403 . S
H1997 C2003 0.930 . S
C1998 H1984 0.930 . S
C1998 C1996 1.395 . S
C1998 C2001 1.403 . S
C1999 C1996 1.403 . S
C1999 C2000 1.524 . S
C1999 C2003 1.400 . S
C2000 H1985 0.960 . S
C2000 H1986 0.960 . S
C2000 H1987 0.960 . S
C2000 C1999 1.524 . S
C2001 C1998 1.403 . S
C2001 C2002 1.392 . S
C2001 C2005 1.495 . S
C2002 C2001 1.392 . S
C2002 C2003 1.385 . S
C2002 C2004 1.478 . S
C2003 H1997 0.930 . S
C2003 C1999 1.400 . S
C2003 C2002 1.385 . S
C2004 C2002 1.478 . S
C2004 C2006 1.381 . S
C2004 C2010 1.383 . S
C2005 C2001 1.495 . S
C2005 H2011 0.959 . S
C2005 H2012 0.961 . S
C2005 H2013 0.960 . S
C2006 C2004 1.381 . S
C2006 C2007 1.394 . S
C2006 H2014 0.930 . S
C2007 C2006 1.394 . S
C2007 C2008 1.383 . S
C2007 H2015 0.929 . S
C2008 C2007 1.383 . S
C2008 C2009 1.377 . S
C2009 H1993 0.930 . S
C2009 C2008 1.377 . S
C2009 C2010 1.379 . S
C2010 H1994 0.931 . S
C2010 C2004 1.383 . S
C2010 C2009 1.379 . S
H2011 C2005 0.959 . S
H2012 C2005 0.961 . S
H2013 C2005 0.960 . S
H2014 C2006 0.930 . S
H2015 C2007 0.929 . S
H2016 C2024 0.929 . S
H2017 C2026 0.930 . S
H2018 C2028 0.930 . S
H2019 C2031 0.929 . S
H2020 C2034 0.930 . S
H2021 C2036 0.960 . S
H2022 C2036 0.960 . S
H2023 C2036 0.960 . S
C2024 H2016 0.929 . S
C2024 C2025 1.377 . S
C2024 C2026 1.384 . S
C2025 C2024 1.377 . S
C2025 C2031 1.390 . S
C2026 H2017 0.930 . S
C2026 C2024 1.384 . S
C2026 C2027 1.372 . S
C2027 C2026 1.372 . S
C2027 C2028 1.400 . S
C2027 C2032 1.490 . S
C2028 H2018 0.930 . S
C2028 C2027 1.400 . S
C2028 C2031 1.386 . S
H2029 C2045 0.930 . S
H2030 C2046 0.931 . S
C2031 H2019 0.929 . S
C2031 C2025 1.390 . S
C2031 C2028 1.386 . S
C2032 C2027 1.490 . S
C2032 C2034 1.395 . S
C2032 C2035 1.403 . S
H2033 C2039 0.930 . S
C2034 H2020 0.930 . S
C2034 C2032 1.395 . S
C2034 C2037 1.403 . S
C2035 C2032 1.403 . S
C2035 C2036 1.524 . S
C2035 C2039 1.400 . S
C2036 H2021 0.960 . S
C2036 H2022 0.960 . S
C2036 H2023 0.960 . S
C2036 C2035 1.524 . S
C2037 C2034 1.403 . S
C2037 C2038 1.392 . S
C2037 C2041 1.495 . S
C2038 C2037 1.392 . S
C2038 C2039 1.385 . S
C2038 C2040 1.478 . S
C2039 H2033 0.930 . S
C2039 C2035 1.400 . S
C2039 C2038 1.385 . S
C2040 C2038 1.478 . S
C2040 C2042 1.381 . S
C2040 C2046 1.383 . S
C2041 C2037 1.495 . S
C2041 H2047 0.959 . S
C2041 H2048 0.961 . S
C2041 H2049 0.960 . S
C2042 C2040 1.381 . S
C2042 C2043 1.394 . S
C2042 H2050 0.930 . S
C2043 C2042 1.394 . S
C2043 C2044 1.383 . S
C2043 H2051 0.929 . S
C2044 C2043 1.383 . S
C2044 C2045 1.377 . S
C2045 H2029 0.930 . S
C2045 C2044 1.377 . S
C2045 C2046 1.379 . S
C2046 H2030 0.931 . S
C2046 C2040 1.383 . S
C2046 C2045 1.379 . S
H2047 C2041 0.959 . S
H2048 C2041 0.961 . S
H2049 C2041 0.960 . S
H2050 C2042 0.930 . S
H2051 C2043 0.929 . S
H2052 C2060 0.929 . S
H2053 C2062 0.930 . S
H2054 C2064 0.930 . S
H2055 C2067 0.929 . S
H2056 C2070 0.930 . S
H2057 C2072 0.960 . S
H2058 C2072 0.960 . S
H2059 C2072 0.960 . S
C2060 H2052 0.929 . S
C2060 C2061 1.377 . S
C2060 C2062 1.384 . S
C2061 C2060 1.377 . S
C2061 C2067 1.390 . S
C2062 H2053 0.930 . S
C2062 C2060 1.384 . S
C2062 C2063 1.372 . S
C2063 C2062 1.372 . S
C2063 C2064 1.400 . S
C2063 C2068 1.490 . S
C2064 H2054 0.930 . S
C2064 C2063 1.400 . S
C2064 C2067 1.386 . S
H2065 C2081 0.930 . S
H2066 C2082 0.931 . S
C2067 H2055 0.929 . S
C2067 C2061 1.390 . S
C2067 C2064 1.386 . S
C2068 C2063 1.490 . S
C2068 C2070 1.395 . S
C2068 C2071 1.403 . S
H2069 C2075 0.930 . S
C2070 H2056 0.930 . S
C2070 C2068 1.395 . S
C2070 C2073 1.403 . S
C2071 C2068 1.403 . S
C2071 C2072 1.524 . S
C2071 C2075 1.400 . S
C2072 H2057 0.960 . S
C2072 H2058 0.960 . S
C2072 H2059 0.960 . S
C2072 C2071 1.524 . S
C2073 C2070 1.403 . S
C2073 C2074 1.392 . S
C2073 C2077 1.495 . S
C2074 C2073 1.392 . S
C2074 C2075 1.385 . S
C2074 C2076 1.478 . S
C2075 H2069 0.930 . S
C2075 C2071 1.400 . S
C2075 C2074 1.385 . S
C2076 C2074 1.478 . S
C2076 C2078 1.381 . S
C2076 C2082 1.383 . S
C2077 C2073 1.495 . S
C2077 H2083 0.959 . S
C2077 H2084 0.961 . S
C2077 H2085 0.960 . S
C2078 C2076 1.381 . S
C2078 C2079 1.394 . S
C2078 H2086 0.930 . S
C2079 C2078 1.394 . S
C2079 C2080 1.383 . S
C2079 H2087 0.929 . S
C2080 C2079 1.383 . S
C2080 C2081 1.377 . S
C2081 H2065 0.930 . S
C2081 C2080 1.377 . S
C2081 C2082 1.379 . S
C2082 H2066 0.931 . S
C2082 C2076 1.383 . S
C2082 C2081 1.379 . S
H2083 C2077 0.959 . S
H2084 C2077 0.961 . S
H2085 C2077 0.960 . S
H2086 C2078 0.930 . S
H2087 C2079 0.929 . S
H2088 C2096 0.929 . S
H2089 C2098 0.930 . S
H2090 C2100 0.930 . S
H2091 C2103 0.929 . S
H2092 C2106 0.930 . S
H2093 C2108 0.960 . S
H2094 C2108 0.960 . S
H2095 C2108 0.960 . S
C2096 H2088 0.929 . S
C2096 C2097 1.377 . S
C2096 C2098 1.384 . S
C2097 C2096 1.377 . S
C2097 C2103 1.390 . S
C2098 H2089 0.930 . S
C2098 C2096 1.384 . S
C2098 C2099 1.372 . S
C2099 C2098 1.372 . S
C2099 C2100 1.400 . S
C2099 C2104 1.490 . S
C2100 H2090 0.930 . S
C2100 C2099 1.400 . S
C2100 C2103 1.386 . S
H2101 C2117 0.930 . S
H2102 C2118 0.931 . S
C2103 H2091 0.929 . S
C2103 C2097 1.390 . S
C2103 C2100 1.386 . S
C2104 C2099 1.490 . S
C2104 C2106 1.395 . S
C2104 C2107 1.403 . S
H2105 C2111 0.930 . S
C2106 H2092 0.930 . S
C2106 C2104 1.395 . S
C2106 C2109 1.403 . S
C2107 C2104 1.403 . S
C2107 C2108 1.524 . S
C2107 C2111 1.400 . S
C2108 H2093 0.960 . S
C2108 H2094 0.960 . S
C2108 H2095 0.960 . S
C2108 C2107 1.524 . S
C2109 C2106 1.403 . S
C2109 C2110 1.392 . S
C2109 C2113 1.495 . S
C2110 C2109 1.392 . S
C2110 C2111 1.385 . S
C2110 C2112 1.478 . S
C2111 H2105 0.930 . S
C2111 C2107 1.400 . S
C2111 C2110 1.385 . S
C2112 C2110 1.478 . S
C2112 C2114 1.381 . S
C2112 C2118 1.383 . S
C2113 C2109 1.495 . S
C2113 H2119 0.959 . S
C2113 H2120 0.961 . S
C2113 H2121 0.960 . S
C2114 C2112 1.381 . S
C2114 C2115 1.394 . S
C2114 H2122 0.930 . S
C2115 C2114 1.394 . S
C2115 C2116 1.383 . S
C2115 H2123 0.929 . S
C2116 C2115 1.383 . S
C2116 C2117 1.377 . S
C2117 H2101 0.930 . S
C2117 C2116 1.377 . S
C2117 C2118 1.379 . S
C2118 H2102 0.931 . S
C2118 C2112 1.383 . S
C2118 C2117 1.379 . S
H2119 C2113 0.959 . S
H2120 C2113 0.961 . S
H2121 C2113 0.960 . S
H2122 C2114 0.930 . S
H2123 C2115 0.929 . S
H2124 C2132 0.929 . S
H2125 C2134 0.930 . S
H2126 C2136 0.930 . S
H2127 C2139 0.929 . S
H2128 C2142 0.930 . S
H2129 C2144 0.960 . S
H2130 C2144 0.960 . S
H2131 C2144 0.960 . S
C2132 H2124 0.929 . S
C2132 C2133 1.377 . S
C2132 C2134 1.384 . S
C2133 C2132 1.377 . S
C2133 C2139 1.390 . S
C2134 H2125 0.930 . S
C2134 C2132 1.384 . S
C2134 C2135 1.372 . S
C2135 C2134 1.372 . S
C2135 C2136 1.400 . S
C2135 C2140 1.490 . S
C2136 H2126 0.930 . S
C2136 C2135 1.400 . S
C2136 C2139 1.386 . S
H2137 C2153 0.930 . S
H2138 C2154 0.931 . S
C2139 H2127 0.929 . S
C2139 C2133 1.390 . S
C2139 C2136 1.386 . S
C2140 C2135 1.490 . S
C2140 C2142 1.395 . S
C2140 C2143 1.403 . S
H2141 C2147 0.930 . S
C2142 H2128 0.930 . S
C2142 C2140 1.395 . S
C2142 C2145 1.403 . S
C2143 C2140 1.403 . S
C2143 C2144 1.524 . S
C2143 C2147 1.400 . S
C2144 H2129 0.960 . S
C2144 H2130 0.960 . S
C2144 H2131 0.960 . S
C2144 C2143 1.524 . S
C2145 C2142 1.403 . S
C2145 C2146 1.392 . S
C2145 C2149 1.495 . S
C2146 C2145 1.392 . S
C2146 C2147 1.385 . S
C2146 C2148 1.478 . S
C2147 H2141 0.930 . S
C2147 C2143 1.400 . S
C2147 C2146 1.385 . S
C2148 C2146 1.478 . S
C2148 C2150 1.381 . S
C2148 C2154 1.383 . S
C2149 C2145 1.495 . S
C2149 H2155 0.959 . S
C2149 H2156 0.961 . S
C2149 H2157 0.960 . S
C2150 C2148 1.381 . S
C2150 C2151 1.394 . S
C2150 H2158 0.930 . S
C2151 C2150 1.394 . S
C2151 C2152 1.383 . S
C2151 H2159 0.929 . S
C2152 C2151 1.383 . S
C2152 C2153 1.377 . S
C2153 H2137 0.930 . S
C2153 C2152 1.377 . S
C2153 C2154 1.379 . S
C2154 H2138 0.931 . S
C2154 C2148 1.383 . S
C2154 C2153 1.379 . S
H2155 C2149 0.959 . S
H2156 C2149 0.961 . S
H2157 C2149 0.960 . S
H2158 C2150 0.930 . S
H2159 C2151 0.929 . S
H2160 C2168 0.929 . S
H2161 C2170 0.930 . S
H2162 C2172 0.930 . S
H2163 C2175 0.929 . S
H2164 C2178 0.930 . S
H2165 C2180 0.960 . S
H2166 C2180 0.960 . S
H2167 C2180 0.960 . S
C2168 H2160 0.929 . S
C2168 C2169 1.377 . S
C2168 C2170 1.384 . S
C2169 C2168 1.377 . S
C2169 C2175 1.390 . S
C2170 H2161 0.930 . S
C2170 C2168 1.384 . S
C2170 C2171 1.372 . S
C2171 C2170 1.372 . S
C2171 C2172 1.400 . S
C2171 C2176 1.490 . S
C2172 H2162 0.930 . S
C2172 C2171 1.400 . S
C2172 C2175 1.386 . S
H2173 C2189 0.930 . S
H2174 C2190 0.931 . S
C2175 H2163 0.929 . S
C2175 C2169 1.390 . S
C2175 C2172 1.386 . S
C2176 C2171 1.490 . S
C2176 C2178 1.395 . S
C2176 C2179 1.403 . S
H2177 C2183 0.930 . S
C2178 H2164 0.930 . S
C2178 C2176 1.395 . S
C2178 C2181 1.403 . S
C2179 C2176 1.403 . S
C2179 C2180 1.524 . S
C2179 C2183 1.400 . S
C2180 H2165 0.960 . S
C2180 H2166 0.960 . S
C2180 H2167 0.960 . S
C2180 C2179 1.524 . S
C2181 C2178 1.403 . S
C2181 C2182 1.392 . S
C2181 C2185 1.495 . S
C2182 C2181 1.392 . S
C2182 C2183 1.385 . S
C2182 C2184 1.478 . S
C2183 H2177 0.930 . S
C2183 C2179 1.400 . S
C2183 C2182 1.385 . S
C2184 C2182 1.478 . S
C2184 C2186 1.381 . S
C2184 C2190 1.383 . S
C2185 C2181 1.495 . S
C2185 H2191 0.959 . S
C2185 H2192 0.961 . S
C2185 H2193 0.960 . S
C2186 C2184 1.381 . S
C2186 C2187 1.394 . S
C2186 H2194 0.930 . S
C2187 C2186 1.394 . S
C2187 C2188 1.383 . S
C2187 H2195 0.929 . S
C2188 C2187 1.383 . S
C2188 C2189 1.377 . S
C2189 H2173 0.930 . S
C2189 C2188 1.377 . S
C2189 C2190 1.379 . S
C2190 H2174 0.931 . S
C2190 C2184 1.383 . S
C2190 C2189 1.379 . S
H2191 C2185 0.959 . S
H2192 C2185 0.961 . S
H2193 C2185 0.960 . S
H2194 C2186 0.930 . S
H2195 C2187 0.929 . S
H2196 C2204 0.929 . S
H2197 C2206 0.930 . S
H2198 C2208 0.930 . S
H2199 C2211 0.929 . S
H2200 C2214 0.930 . S
H2201 C2216 0.960 . S
H2202 C2216 0.960 . S
H2203 C2216 0.960 . S
C2204 H2196 0.929 . S
C2204 C2205 1.377 . S
C2204 C2206 1.384 . S
C2205 C2204 1.377 . S
C2205 C2211 1.390 . S
C2206 H2197 0.930 . S
C2206 C2204 1.384 . S
C2206 C2207 1.372 . S
C2207 C2206 1.372 . S
C2207 C2208 1.400 . S
C2207 C2212 1.490 . S
C2208 H2198 0.930 . S
C2208 C2207 1.400 . S
C2208 C2211 1.386 . S
H2209 C2225 0.930 . S
H2210 C2226 0.931 . S
C2211 H2199 0.929 . S
C2211 C2205 1.390 . S
C2211 C2208 1.386 . S
C2212 C2207 1.490 . S
C2212 C2214 1.395 . S
C2212 C2215 1.403 . S
H2213 C2219 0.930 . S
C2214 H2200 0.930 . S
C2214 C2212 1.395 . S
C2214 C2217 1.403 . S
C2215 C2212 1.403 . S
C2215 C2216 1.524 . S
C2215 C2219 1.400 . S
C2216 H2201 0.960 . S
C2216 H2202 0.960 . S
C2216 H2203 0.960 . S
C2216 C2215 1.524 . S
C2217 C2214 1.403 . S
C2217 C2218 1.392 . S
C2217 C2221 1.495 . S
C2218 C2217 1.392 . S
C2218 C2219 1.385 . S
C2218 C2220 1.478 . S
C2219 H2213 0.930 . S
C2219 C2215 1.400 . S
C2219 C2218 1.385 . S
C2220 C2218 1.478 . S
C2220 C2222 1.381 . S
C2220 C2226 1.383 . S
C2221 C2217 1.495 . S
C2221 H2227 0.959 . S
C2221 H2228 0.961 . S
C2221 H2229 0.960 . S
C2222 C2220 1.381 . S
C2222 C2223 1.394 . S
C2222 H2230 0.930 . S
C2223 C2222 1.394 . S
C2223 C2224 1.383 . S
C2223 H2231 0.929 . S
C2224 C2223 1.383 . S
C2224 C2225 1.377 . S
C2225 H2209 0.930 . S
C2225 C2224 1.377 . S
C2225 C2226 1.379 . S
C2226 H2210 0.931 . S
C2226 C2220 1.383 . S
C2226 C2225 1.379 . S
H2227 C2221 0.959 . S
H2228 C2221 0.961 . S
H2229 C2221 0.960 . S
H2230 C2222 0.930 . S
H2231 C2223 0.929 . S
H2232 C2240 0.929 . S
H2233 C2242 0.930 . S
H2234 C2244 0.930 . S
H2235 C2247 0.929 . S
H2236 C2250 0.930 . S
H2237 C2252 0.960 . S
H2238 C2252 0.960 . S
H2239 C2252 0.960 . S
C2240 H2232 0.929 . S
C2240 C2241 1.377 . S
C2240 C2242 1.384 . S
C2241 C2240 1.377 . S
C2241 C2247 1.390 . S
C2242 H2233 0.930 . S
C2242 C2240 1.384 . S
C2242 C2243 1.372 . S
C2243 C2242 1.372 . S
C2243 C2244 1.400 . S
C2243 C2248 1.490 . S
C2244 H2234 0.930 . S
C2244 C2243 1.400 . S
C2244 C2247 1.386 . S
H2245 C2261 0.930 . S
H2246 C2262 0.931 . S
C2247 H2235 0.929 . S
C2247 C2241 1.390 . S
C2247 C2244 1.386 . S
C2248 C2243 1.490 . S
C2248 C2250 1.395 . S
C2248 C2251 1.403 . S
H2249 C2255 0.930 . S
C2250 H2236 0.930 . S
C2250 C2248 1.395 . S
C2250 C2253 1.403 . S
C2251 C2248 1.403 . S
C2251 C2252 1.524 . S
C2251 C2255 1.400 . S
C2252 H2237 0.960 . S
C2252 H2238 0.960 . S
C2252 H2239 0.960 . S
C2252 C2251 1.524 . S
C2253 C2250 1.403 . S
C2253 C2254 1.392 . S
C2253 C2257 1.495 . S
C2254 C2253 1.392 . S
C2254 C2255 1.385 . S
C2254 C2256 1.478 . S
C2255 H2249 0.930 . S
C2255 C2251 1.400 . S
C2255 C2254 1.385 . S
C2256 C2254 1.478 . S
C2256 C2258 1.381 . S
C2256 C2262 1.383 . S
C2257 C2253 1.495 . S
C2257 H2263 0.959 . S
C2257 H2264 0.961 . S
C2257 H2265 0.960 . S
C2258 C2256 1.381 . S
C2258 C2259 1.394 . S
C2258 H2266 0.930 . S
C2259 C2258 1.394 . S
C2259 C2260 1.383 . S
C2259 H2267 0.929 . S
C2260 C2259 1.383 . S
C2260 C2261 1.377 . S
C2261 H2245 0.930 . S
C2261 C2260 1.377 . S
C2261 C2262 1.379 . S
C2262 H2246 0.931 . S
C2262 C2256 1.383 . S
C2262 C2261 1.379 . S
H2263 C2257 0.959 . S
H2264 C2257 0.961 . S
H2265 C2257 0.960 . S
H2266 C2258 0.930 . S
H2267 C2259 0.929 . S
H2268 C2276 0.929 . S
H2269 C2278 0.930 . S
H2270 C2280 0.930 . S
H2271 C2283 0.929 . S
H2272 C2286 0.930 . S
H2273 C2288 0.960 . S
H2274 C2288 0.960 . S
H2275 C2288 0.960 . S
C2276 H2268 0.929 . S
C2276 C2277 1.377 . S
C2276 C2278 1.384 . S
C2277 C2276 1.377 . S
C2277 C2283 1.390 . S
C2278 H2269 0.930 . S
C2278 C2276 1.384 . S
C2278 C2279 1.372 . S
C2279 C2278 1.372 . S
C2279 C2280 1.400 . S
C2279 C2284 1.490 . S
C2280 H2270 0.930 . S
C2280 C2279 1.400 . S
C2280 C2283 1.386 . S
H2281 C2297 0.930 . S
H2282 C2298 0.931 . S
C2283 H2271 0.929 . S
C2283 C2277 1.390 . S
C2283 C2280 1.386 . S
C2284 C2279 1.490 . S
C2284 C2286 1.395 . S
C2284 C2287 1.403 . S
H2285 C2291 0.930 . S
C2286 H2272 0.930 . S
C2286 C2284 1.395 . S
C2286 C2289 1.403 . S
C2287 C2284 1.403 . S
C2287 C2288 1.524 . S
C2287 C2291 1.400 . S
C2288 H2273 0.960 . S
C2288 H2274 0.960 . S
C2288 H2275 0.960 . S
C2288 C2287 1.524 . S
C2289 C2286 1.403 . S
C2289 C2290 1.392 . S
C2289 C2293 1.495 . S
C2290 C2289 1.392 . S
C2290 C2291 1.385 . S
C2290 C2292 1.478 . S
C2291 H2285 0.930 . S
C2291 C2287 1.400 . S
C2291 C2290 1.385 . S
C2292 C2290 1.478 . S
C2292 C2294 1.381 . S
C2292 C2298 1.383 . S
C2293 C2289 1.495 . S
C2293 H2299 0.959 . S
C2293 H2300 0.961 . S
C2293 H2301 0.960 . S
C2294 C2292 1.381 . S
C2294 C2295 1.394 . S
C2294 H2302 0.930 . S
C2295 C2294 1.394 . S
C2295 C2296 1.383 . S
C2295 H2303 0.929 . S
C2296 C2295 1.383 . S
C2296 C2297 1.377 . S
C2297 H2281 0.930 . S
C2297 C2296 1.377 . S
C2297 C2298 1.379 . S
C2298 H2282 0.931 . S
C2298 C2292 1.383 . S
C2298 C2297 1.379 . S
H2299 C2293 0.959 . S
H2300 C2293 0.961 . S
H2301 C2293 0.960 . S
H2302 C2294 0.930 . S
H2303 C2295 0.929 . S
H2304 C2312 0.929 . S
H2305 C2314 0.930 . S
H2306 C2316 0.930 . S
H2307 C2319 0.929 . S
H2308 C2322 0.930 . S
H2309 C2324 0.960 . S
H2310 C2324 0.960 . S
H2311 C2324 0.960 . S
C2312 H2304 0.929 . S
C2312 C2313 1.377 . S
C2312 C2314 1.384 . S
C2313 C2312 1.377 . S
C2313 C2319 1.390 . S
C2314 H2305 0.930 . S
C2314 C2312 1.384 . S
C2314 C2315 1.372 . S
C2315 C2314 1.372 . S
C2315 C2316 1.400 . S
C2315 C2320 1.490 . S
C2316 H2306 0.930 . S
C2316 C2315 1.400 . S
C2316 C2319 1.386 . S
H2317 C2333 0.930 . S
H2318 C2334 0.931 . S
C2319 H2307 0.929 . S
C2319 C2313 1.390 . S
C2319 C2316 1.386 . S
C2320 C2315 1.490 . S
C2320 C2322 1.395 . S
C2320 C2323 1.403 . S
H2321 C2327 0.930 . S
C2322 H2308 0.930 . S
C2322 C2320 1.395 . S
C2322 C2325 1.403 . S
C2323 C2320 1.403 . S
C2323 C2324 1.524 . S
C2323 C2327 1.400 . S
C2324 H2309 0.960 . S
C2324 H2310 0.960 . S
C2324 H2311 0.960 . S
C2324 C2323 1.524 . S
C2325 C2322 1.403 . S
C2325 C2326 1.392 . S
C2325 C2329 1.495 . S
C2326 C2325 1.392 . S
C2326 C2327 1.385 . S
C2326 C2328 1.478 . S
C2327 H2321 0.930 . S
C2327 C2323 1.400 . S
C2327 C2326 1.385 . S
C2328 C2326 1.478 . S
C2328 C2330 1.381 . S
C2328 C2334 1.383 . S
C2329 C2325 1.495 . S
C2329 H2335 0.959 . S
C2329 H2336 0.961 . S
C2329 H2337 0.960 . S
C2330 C2328 1.381 . S
C2330 C2331 1.394 . S
C2330 H2338 0.930 . S
C2331 C2330 1.394 . S
C2331 C2332 1.383 . S
C2331 H2339 0.929 . S
C2332 C2331 1.383 . S
C2332 C2333 1.377 . S
C2333 H2317 0.930 . S
C2333 C2332 1.377 . S
C2333 C2334 1.379 . S
C2334 H2318 0.931 . S
C2334 C2328 1.383 . S
C2334 C2333 1.379 . S
H2335 C2329 0.959 . S
H2336 C2329 0.961 . S
H2337 C2329 0.960 . S
H2338 C2330 0.930 . S
H2339 C2331 0.929 . S
H2340 C2348 0.929 . S
H2341 C2350 0.930 . S
H2342 C2352 0.930 . S
H2343 C2355 0.929 . S
H2344 C2358 0.930 . S
H2345 C2360 0.960 . S
H2346 C2360 0.960 . S
H2347 C2360 0.960 . S
C2348 H2340 0.929 . S
C2348 C2349 1.377 . S
C2348 C2350 1.384 . S
C2349 C2348 1.377 . S
C2349 C2355 1.390 . S
C2350 H2341 0.930 . S
C2350 C2348 1.384 . S
C2350 C2351 1.372 . S
C2351 C2350 1.372 . S
C2351 C2352 1.400 . S
C2351 C2356 1.490 . S
C2352 H2342 0.930 . S
C2352 C2351 1.400 . S
C2352 C2355 1.386 . S
H2353 C2369 0.930 . S
H2354 C2370 0.931 . S
C2355 H2343 0.929 . S
C2355 C2349 1.390 . S
C2355 C2352 1.386 . S
C2356 C2351 1.490 . S
C2356 C2358 1.395 . S
C2356 C2359 1.403 . S
H2357 C2363 0.930 . S
C2358 H2344 0.930 . S
C2358 C2356 1.395 . S
C2358 C2361 1.403 . S
C2359 C2356 1.403 . S
C2359 C2360 1.524 . S
C2359 C2363 1.400 . S
C2360 H2345 0.960 . S
C2360 H2346 0.960 . S
C2360 H2347 0.960 . S
C2360 C2359 1.524 . S
C2361 C2358 1.403 . S
C2361 C2362 1.392 . S
C2361 C2365 1.495 . S
C2362 C2361 1.392 . S
C2362 C2363 1.385 . S
C2362 C2364 1.478 . S
C2363 H2357 0.930 . S
C2363 C2359 1.400 . S
C2363 C2362 1.385 . S
C2364 C2362 1.478 . S
C2364 C2366 1.381 . S
C2364 C2370 1.383 . S
C2365 C2361 1.495 . S
C2365 H2371 0.959 . S
C2365 H2372 0.961 . S
C2365 H2373 0.960 . S
C2366 C2364 1.381 . S
C2366 C2367 1.394 . S
C2366 H2374 0.930 . S
C2367 C2366 1.394 . S
C2367 C2368 1.383 . S
C2367 H2375 0.929 . S
C2368 C2367 1.383 . S
C2368 C2369 1.377 . S
C2369 H2353 0.930 . S
C2369 C2368 1.377 . S
C2369 C2370 1.379 . S
C2370 H2354 0.931 . S
C2370 C2364 1.383 . S
C2370 C2369 1.379 . S
H2371 C2365 0.959 . S
H2372 C2365 0.961 . S
H2373 C2365 0.960 . S
H2374 C2366 0.930 . S
H2375 C2367 0.929 . S
H2376 C2384 0.929 . S
H2377 C2386 0.930 . S
H2378 C2388 0.930 . S
H2379 C2391 0.929 . S
H2380 C2394 0.930 . S
H2381 C2396 0.960 . S
H2382 C2396 0.960 . S
H2383 C2396 0.960 . S
C2384 H2376 0.929 . S
C2384 C2385 1.377 . S
C2384 C2386 1.384 . S
C2385 C2384 1.377 . S
C2385 C2391 1.390 . S
C2386 H2377 0.930 . S
C2386 C2384 1.384 . S
C2386 C2387 1.372 . S
C2387 C2386 1.372 . S
C2387 C2388 1.400 . S
C2387 C2392 1.490 . S
C2388 H2378 0.930 . S
C2388 C2387 1.400 . S
C2388 C2391 1.386 . S
H2389 C2405 0.930 . S
H2390 C2406 0.931 . S
C2391 H2379 0.929 . S
C2391 C2385 1.390 . S
C2391 C2388 1.386 . S
C2392 C2387 1.490 . S
C2392 C2394 1.395 . S
C2392 C2395 1.403 . S
H2393 C2399 0.930 . S
C2394 H2380 0.930 . S
C2394 C2392 1.395 . S
C2394 C2397 1.403 . S
C2395 C2392 1.403 . S
C2395 C2396 1.524 . S
C2395 C2399 1.400 . S
C2396 H2381 0.960 . S
C2396 H2382 0.960 . S
C2396 H2383 0.960 . S
C2396 C2395 1.524 . S
C2397 C2394 1.403 . S
C2397 C2398 1.392 . S
C2397 C2401 1.495 . S
C2398 C2397 1.392 . S
C2398 C2399 1.385 . S
C2398 C2400 1.478 . S
C2399 H2393 0.930 . S
C2399 C2395 1.400 . S
C2399 C2398 1.385 . S
C2400 C2398 1.478 . S
C2400 C2402 1.381 . S
C2400 C2406 1.383 . S
C2401 C2397 1.495 . S
C2401 H2407 0.959 . S
C2401 H2408 0.961 . S
C2401 H2409 0.960 . S
C2402 C2400 1.381 . S
C2402 C2403 1.394 . S
C2402 H2410 0.930 . S
C2403 C2402 1.394 . S
C2403 C2404 1.383 . S
C2403 H2411 0.929 . S
C2404 C2403 1.383 . S
C2404 C2405 1.377 . S
C2405 H2389 0.930 . S
C2405 C2404 1.377 . S
C2405 C2406 1.379 . S
C2406 H2390 0.931 . S
C2406 C2400 1.383 . S
C2406 C2405 1.379 . S
H2407 C2401 0.959 . S
H2408 C2401 0.961 . S
H2409 C2401 0.960 . S
H2410 C2402 0.930 . S
H2411 C2403 0.929 . S
H2412 C2420 0.929 . S
H2413 C2422 0.930 . S
H2414 C2424 0.930 . S
H2415 C2427 0.929 . S
H2416 C2430 0.930 . S
H2417 C2432 0.960 . S
H2418 C2432 0.960 . S
H2419 C2432 0.960 . S
C2420 H2412 0.929 . S
C2420 C2421 1.377 . S
C2420 C2422 1.384 . S
C2421 C2420 1.377 . S
C2421 C2427 1.390 . S
C2422 H2413 0.930 . S
C2422 C2420 1.384 . S
C2422 C2423 1.372 . S
C2423 C2422 1.372 . S
C2423 C2424 1.400 . S
C2423 C2428 1.490 . S
C2424 H2414 0.930 . S
C2424 C2423 1.400 . S
C2424 C2427 1.386 . S
H2425 C2441 0.930 . S
H2426 C2442 0.931 . S
C2427 H2415 0.929 . S
C2427 C2421 1.390 . S
C2427 C2424 1.386 . S
C2428 C2423 1.490 . S
C2428 C2430 1.395 . S
C2428 C2431 1.403 . S
H2429 C2435 0.930 . S
C2430 H2416 0.930 . S
C2430 C2428 1.395 . S
C2430 C2433 1.403 . S
C2431 C2428 1.403 . S
C2431 C2432 1.524 . S
C2431 C2435 1.400 . S
C2432 H2417 0.960 . S
C2432 H2418 0.960 . S
C2432 H2419 0.960 . S
C2432 C2431 1.524 . S
C2433 C2430 1.403 . S
C2433 C2434 1.392 . S
C2433 C2437 1.495 . S
C2434 C2433 1.392 . S
C2434 C2435 1.385 . S
C2434 C2436 1.478 . S
C2435 H2429 0.930 . S
C2435 C2431 1.400 . S
C2435 C2434 1.385 . S
C2436 C2434 1.478 . S
C2436 C2438 1.381 . S
C2436 C2442 1.383 . S
C2437 C2433 1.495 . S
C2437 H2443 0.959 . S
C2437 H2444 0.961 . S
C2437 H2445 0.960 . S
C2438 C2436 1.381 . S
C2438 C2439 1.394 . S
C2438 H2446 0.930 . S
C2439 C2438 1.394 . S
C2439 C2440 1.383 . S
C2439 H2447 0.929 . S
C2440 C2439 1.383 . S
C2440 C2441 1.377 . S
C2441 H2425 0.930 . S
C2441 C2440 1.377 . S
C2441 C2442 1.379 . S
C2442 H2426 0.931 . S
C2442 C2436 1.383 . S
C2442 C2441 1.379 . S
H2443 C2437 0.959 . S
H2444 C2437 0.961 . S
H2445 C2437 0.960 . S
H2446 C2438 0.930 . S
H2447 C2439 0.929 . S
H2448 C2456 0.929 . S
H2449 C2458 0.930 . S
H2450 C2460 0.930 . S
H2451 C2463 0.929 . S
H2452 C2466 0.930 . S
H2453 C2468 0.960 . S
H2454 C2468 0.960 . S
H2455 C2468 0.960 . S
C2456 H2448 0.929 . S
C2456 C2457 1.377 . S
C2456 C2458 1.384 . S
C2457 C2456 1.377 . S
C2457 C2463 1.390 . S
C2458 H2449 0.930 . S
C2458 C2456 1.384 . S
C2458 C2459 1.372 . S
C2459 C2458 1.372 . S
C2459 C2460 1.400 . S
C2459 C2464 1.490 . S
C2460 H2450 0.930 . S
C2460 C2459 1.400 . S
C2460 C2463 1.386 . S
H2461 C2477 0.930 . S
H2462 C2478 0.931 . S
C2463 H2451 0.929 . S
C2463 C2457 1.390 . S
C2463 C2460 1.386 . S
C2464 C2459 1.490 . S
C2464 C2466 1.395 . S
C2464 C2467 1.403 . S
H2465 C2471 0.930 . S
C2466 H2452 0.930 . S
C2466 C2464 1.395 . S
C2466 C2469 1.403 . S
C2467 C2464 1.403 . S
C2467 C2468 1.524 . S
C2467 C2471 1.400 . S
C2468 H2453 0.960 . S
C2468 H2454 0.960 . S
C2468 H2455 0.960 . S
C2468 C2467 1.524 . S
C2469 C2466 1.403 . S
C2469 C2470 1.392 . S
C2469 C2473 1.495 . S
C2470 C2469 1.392 . S
C2470 C2471 1.385 . S
C2470 C2472 1.478 . S
C2471 H2465 0.930 . S
C2471 C2467 1.400 . S
C2471 C2470 1.385 . S
C2472 C2470 1.478 . S
C2472 C2474 1.381 . S
C2472 C2478 1.383 . S
C2473 C2469 1.495 . S
C2473 H2479 0.959 . S
C2473 H2480 0.961 . S
C2473 H2481 0.960 . S
C2474 C2472 1.381 . S
C2474 C2475 1.394 . S
C2474 H2482 0.930 . S
C2475 C2474 1.394 . S
C2475 C2476 1.383 . S
C2475 H2483 0.929 . S
C2476 C2475 1.383 . S
C2476 C2477 1.377 . S
C2477 H2461 0.930 . S
C2477 C2476 1.377 . S
C2477 C2478 1.379 . S
C2478 H2462 0.931 . S
C2478 C2472 1.383 . S
C2478 C2477 1.379 . S
H2479 C2473 0.959 . S
H2480 C2473 0.961 . S
H2481 C2473 0.960 . S
H2482 C2474 0.930 . S
H2483 C2475 0.929 . S
H2484 C2492 0.929 . S
H2485 C2494 0.930 . S
H2486 C2496 0.930 . S
H2487 C2499 0.929 . S
H2488 C2502 0.930 . S
H2489 C2504 0.960 . S
H2490 C2504 0.960 . S
H2491 C2504 0.960 . S
C2492 H2484 0.929 . S
C2492 C2493 1.377 . S
C2492 C2494 1.384 . S
C2493 C2492 1.377 . S
C2493 C2499 1.390 . S
C2494 H2485 0.930 . S
C2494 C2492 1.384 . S
C2494 C2495 1.372 . S
C2495 C2494 1.372 . S
C2495 C2496 1.400 . S
C2495 C2500 1.490 . S
C2496 H2486 0.930 . S
C2496 C2495 1.400 . S
C2496 C2499 1.386 . S
H2497 C2513 0.930 . S
H2498 C2514 0.931 . S
C2499 H2487 0.929 . S
C2499 C2493 1.390 . S
C2499 C2496 1.386 . S
C2500 C2495 1.490 . S
C2500 C2502 1.395 . S
C2500 C2503 1.403 . S
H2501 C2507 0.930 . S
C2502 H2488 0.930 . S
C2502 C2500 1.395 . S
C2502 C2505 1.403 . S
C2503 C2500 1.403 . S
C2503 C2504 1.524 . S
C2503 C2507 1.400 . S
C2504 H2489 0.960 . S
C2504 H2490 0.960 . S
C2504 H2491 0.960 . S
C2504 C2503 1.524 . S
C2505 C2502 1.403 . S
C2505 C2506 1.392 . S
C2505 C2509 1.495 . S
C2506 C2505 1.392 . S
C2506 C2507 1.385 . S
C2506 C2508 1.478 . S
C2507 H2501 0.930 . S
C2507 C2503 1.400 . S
C2507 C2506 1.385 . S
C2508 C2506 1.478 . S
C2508 C2510 1.381 . S
C2508 C2514 1.383 . S
C2509 C2505 1.495 . S
C2509 H2515 0.959 . S
C2509 H2516 0.961 . S
C2509 H2517 0.960 . S
C2510 C2508 1.381 . S
C2510 C2511 1.394 . S
C2510 H2518 0.930 . S
C2511 C2510 1.394 . S
C2511 C2512 1.383 . S
C2511 H2519 0.929 . S
C2512 C2511 1.383 . S
C2512 C2513 1.377 . S
C2513 H2497 0.930 . S
C2513 C2512 1.377 . S
C2513 C2514 1.379 . S
C2514 H2498 0.931 . S
C2514 C2508 1.383 . S
C2514 C2513 1.379 . S
H2515 C2509 0.959 . S
H2516 C2509 0.961 . S
H2517 C2509 0.960 . S
H2518 C2510 0.930 . S
H2519 C2511 0.929 . S
H2520 C2528 0.929 . S
H2521 C2530 0.930 . S
H2522 C2532 0.930 . S
H2523 C2535 0.929 . S
H2524 C2538 0.930 . S
H2525 C2540 0.960 . S
H2526 C2540 0.960 . S
H2527 C2540 0.960 . S
C2528 H2520 0.929 . S
C2528 C2529 1.377 . S
C2528 C2530 1.384 . S
C2529 C2528 1.377 . S
C2529 C2535 1.390 . S
C2530 H2521 0.930 . S
C2530 C2528 1.384 . S
C2530 C2531 1.372 . S
C2531 C2530 1.372 . S
C2531 C2532 1.400 . S
C2531 C2536 1.490 . S
C2532 H2522 0.930 . S
C2532 C2531 1.400 . S
C2532 C2535 1.386 . S
H2533 C2549 0.930 . S
H2534 C2550 0.931 . S
C2535 H2523 0.929 . S
C2535 C2529 1.390 . S
C2535 C2532 1.386 . S
C2536 C2531 1.490 . S
C2536 C2538 1.395 . S
C2536 C2539 1.403 . S
H2537 C2543 0.930 . S
C2538 H2524 0.930 . S
C2538 C2536 1.395 . S
C2538 C2541 1.403 . S
C2539 C2536 1.403 . S
C2539 C2540 1.524 . S
C2539 C2543 1.400 . S
C2540 H2525 0.960 . S
C2540 H2526 0.960 . S
C2540 H2527 0.960 . S
C2540 C2539 1.524 . S
C2541 C2538 1.403 . S
C2541 C2542 1.392 . S
C2541 C2545 1.495 . S
C2542 C2541 1.392 . S
C2542 C2543 1.385 . S
C2542 C2544 1.478 . S
C2543 H2537 0.930 . S
C2543 C2539 1.400 . S
C2543 C2542 1.385 . S
C2544 C2542 1.478 . S
C2544 C2546 1.381 . S
C2544 C2550 1.383 . S
C2545 C2541 1.495 . S
C2545 H2551 0.959 . S
C2545 H2552 0.961 . S
C2545 H2553 0.960 . S
C2546 C2544 1.381 . S
C2546 C2547 1.394 . S
C2546 H2554 0.930 . S
C2547 C2546 1.394 . S
C2547 C2548 1.383 . S
C2547 H2555 0.929 . S
C2548 C2547 1.383 . S
C2548 C2549 1.377 . S
C2549 H2533 0.930 . S
C2549 C2548 1.377 . S
C2549 C2550 1.379 . S
C2550 H2534 0.931 . S
C2550 C2544 1.383 . S
C2550 C2549 1.379 . S
H2551 C2545 0.959 . S
H2552 C2545 0.961 . S
H2553 C2545 0.960 . S
H2554 C2546 0.930 . S
H2555 C2547 0.929 . S
H2556 C2564 0.929 . S
H2557 C2566 0.930 . S
H2558 C2568 0.930 . S
H2559 C2571 0.929 . S
H2560 C2574 0.930 . S
H2561 C2576 0.960 . S
H2562 C2576 0.960 . S
H2563 C2576 0.960 . S
C2564 H2556 0.929 . S
C2564 C2565 1.377 . S
C2564 C2566 1.384 . S
C2565 C2564 1.377 . S
C2565 C2571 1.390 . S
C2566 H2557 0.930 . S
C2566 C2564 1.384 . S
C2566 C2567 1.372 . S
C2567 C2566 1.372 . S
C2567 C2568 1.400 . S
C2567 C2572 1.490 . S
C2568 H2558 0.930 . S
C2568 C2567 1.400 . S
C2568 C2571 1.386 . S
H2569 C2585 0.930 . S
H2570 C2586 0.931 . S
C2571 H2559 0.929 . S
C2571 C2565 1.390 . S
C2571 C2568 1.386 . S
C2572 C2567 1.490 . S
C2572 C2574 1.395 . S
C2572 C2575 1.403 . S
H2573 C2579 0.930 . S
C2574 H2560 0.930 . S
C2574 C2572 1.395 . S
C2574 C2577 1.403 . S
C2575 C2572 1.403 . S
C2575 C2576 1.524 . S
C2575 C2579 1.400 . S
C2576 H2561 0.960 . S
C2576 H2562 0.960 . S
C2576 H2563 0.960 . S
C2576 C2575 1.524 . S
C2577 C2574 1.403 . S
C2577 C2578 1.392 . S
C2577 C2581 1.495 . S
C2578 C2577 1.392 . S
C2578 C2579 1.385 . S
C2578 C2580 1.478 . S
C2579 H2573 0.930 . S
C2579 C2575 1.400 . S
C2579 C2578 1.385 . S
C2580 C2578 1.478 . S
C2580 C2582 1.381 . S
C2580 C2586 1.383 . S
C2581 C2577 1.495 . S
C2581 H2587 0.959 . S
C2581 H2588 0.961 . S
C2581 H2589 0.960 . S
C2582 C2580 1.381 . S
C2582 C2583 1.394 . S
C2582 H2590 0.930 . S
C2583 C2582 1.394 . S
C2583 C2584 1.383 . S
C2583 H2591 0.929 . S
C2584 C2583 1.383 . S
C2584 C2585 1.377 . S
C2585 H2569 0.930 . S
C2585 C2584 1.377 . S
C2585 C2586 1.379 . S
C2586 H2570 0.931 . S
C2586 C2580 1.383 . S
C2586 C2585 1.379 . S
H2587 C2581 0.959 . S
H2588 C2581 0.961 . S
H2589 C2581 0.960 . S
H2590 C2582 0.930 . S
H2591 C2583 0.929 . S
H2592 C2600 0.929 . S
H2593 C2602 0.930 . S
H2594 C2604 0.930 . S
H2595 C2607 0.929 . S
H2596 C2610 0.930 . S
H2597 C2612 0.960 . S
H2598 C2612 0.960 . S
H2599 C2612 0.960 . S
C2600 H2592 0.929 . S
C2600 C2601 1.377 . S
C2600 C2602 1.384 . S
C2601 C2600 1.377 . S
C2601 C2607 1.390 . S
C2602 H2593 0.930 . S
C2602 C2600 1.384 . S
C2602 C2603 1.372 . S
C2603 C2602 1.372 . S
C2603 C2604 1.400 . S
C2603 C2608 1.490 . S
C2604 H2594 0.930 . S
C2604 C2603 1.400 . S
C2604 C2607 1.386 . S
H2605 C2621 0.930 . S
H2606 C2622 0.931 . S
C2607 H2595 0.929 . S
C2607 C2601 1.390 . S
C2607 C2604 1.386 . S
C2608 C2603 1.490 . S
C2608 C2610 1.395 . S
C2608 C2611 1.403 . S
H2609 C2615 0.930 . S
C2610 H2596 0.930 . S
C2610 C2608 1.395 . S
C2610 C2613 1.403 . S
C2611 C2608 1.403 . S
C2611 C2612 1.524 . S
C2611 C2615 1.400 . S
C2612 H2597 0.960 . S
C2612 H2598 0.960 . S
C2612 H2599 0.960 . S
C2612 C2611 1.524 . S
C2613 C2610 1.403 . S
C2613 C2614 1.392 . S
C2613 C2617 1.495 . S
C2614 C2613 1.392 . S
C2614 C2615 1.385 . S
C2614 C2616 1.478 . S
C2615 H2609 0.930 . S
C2615 C2611 1.400 . S
C2615 C2614 1.385 . S
C2616 C2614 1.478 . S
C2616 C2618 1.381 . S
C2616 C2622 1.383 . S
C2617 C2613 1.495 . S
C2617 H2623 0.959 . S
C2617 H2624 0.961 . S
C2617 H2625 0.960 . S
C2618 C2616 1.381 . S
C2618 C2619 1.394 . S
C2618 H2626 0.930 . S
C2619 C2618 1.394 . S
C2619 C2620 1.383 . S
C2619 H2627 0.929 . S
C2620 C2619 1.383 . S
C2620 C2621 1.377 . S
C2621 H2605 0.930 . S
C2621 C2620 1.377 . S
C2621 C2622 1.379 . S
C2622 H2606 0.931 . S
C2622 C2616 1.383 . S
C2622 C2621 1.379 . S
H2623 C2617 0.959 . S
H2624 C2617 0.961 . S
H2625 C2617 0.960 . S
H2626 C2618 0.930 . S
H2627 C2619 0.929 . S
H2628 C2636 0.929 . S
H2629 C2638 0.930 . S
H2630 C2640 0.930 . S
H2631 C2643 0.929 . S
H2632 C2646 0.930 . S
H2633 C2648 0.960 . S
H2634 C2648 0.960 . S
H2635 C2648 0.960 . S
C2636 H2628 0.929 . S
C2636 C2637 1.377 . S
C2636 C2638 1.384 . S
C2637 C2636 1.377 . S
C2637 C2643 1.390 . S
C2638 H2629 0.930 . S
C2638 C2636 1.384 . S
C2638 C2639 1.372 . S
C2639 C2638 1.372 . S
C2639 C2640 1.400 . S
C2639 C2644 1.490 . S
C2640 H2630 0.930 . S
C2640 C2639 1.400 . S
C2640 C2643 1.386 . S
H2641 C2657 0.930 . S
H2642 C2658 0.931 . S
C2643 H2631 0.929 . S
C2643 C2637 1.390 . S
C2643 C2640 1.386 . S
C2644 C2639 1.490 . S
C2644 C2646 1.395 . S
C2644 C2647 1.403 1_565 S
H2645 C2651 0.930 . S
C2646 H2632 0.930 . S
C2646 C2644 1.395 . S
C2646 C2649 1.403 . S
C2647 C2644 1.403 1_545 S
C2647 C2648 1.524 . S
C2647 C2651 1.400 . S
C2648 H2633 0.960 . S
C2648 H2634 0.960 . S
C2648 H2635 0.960 . S
C2648 C2647 1.524 . S
C2649 C2646 1.403 . S
C2649 C2650 1.392 1_565 S
C2649 C2653 1.495 . S
C2650 C2649 1.392 1_545 S
C2650 C2651 1.385 . S
C2650 C2652 1.478 . S
C2651 H2645 0.930 . S
C2651 C2647 1.400 . S
C2651 C2650 1.385 . S
C2652 C2650 1.478 . S
C2652 C2654 1.381 . S
C2652 C2658 1.383 . S
C2653 C2649 1.495 . S
C2653 H2659 0.959 . S
C2653 H2660 0.961 . S
C2653 H2661 0.960 . S
C2654 C2652 1.381 . S
C2654 C2655 1.394 . S
C2654 H2662 0.930 . S
C2655 C2654 1.394 . S
C2655 C2656 1.383 . S
C2655 H2663 0.929 . S
C2656 C2655 1.383 . S
C2656 C2657 1.377 . S
C2657 H2641 0.930 . S
C2657 C2656 1.377 . S
C2657 C2658 1.379 . S
C2658 H2642 0.931 . S
C2658 C2652 1.383 . S
C2658 C2657 1.379 . S
H2659 C2653 0.959 . S
H2660 C2653 0.961 . S
H2661 C2653 0.960 . S
H2662 C2654 0.930 . S
H2663 C2655 0.929 . S
H2664 C2672 0.929 . S
H2665 C2674 0.930 . S
H2666 C2676 0.930 . S
H2667 C2679 0.929 . S
H2668 C2682 0.930 . S
H2669 C2684 0.960 . S
H2670 C2684 0.960 . S
H2671 C2684 0.960 . S
C2672 H2664 0.929 . S
C2672 C2673 1.377 . S
C2672 C2674 1.384 . S
C2673 C2672 1.377 . S
C2673 C2679 1.390 . S
C2674 H2665 0.930 . S
C2674 C2672 1.384 . S
C2674 C2675 1.372 . S
C2675 C2674 1.372 . S
C2675 C2676 1.400 . S
C2675 C2680 1.490 . S
C2676 H2666 0.930 . S
C2676 C2675 1.400 . S
C2676 C2679 1.386 . S
H2677 C2693 0.930 . S
H2678 C2694 0.931 . S
C2679 H2667 0.929 . S
C2679 C2673 1.390 . S
C2679 C2676 1.386 . S
C2680 C2675 1.490 . S
C2680 C2682 1.395 1_655 S
C2680 C2683 1.403 . S
H2681 C2687 0.930 . S
C2682 H2668 0.930 . S
C2682 C2680 1.395 1_455 S
C2682 C2685 1.403 . S
C2683 C2680 1.403 . S
C2683 C2684 1.524 . S
C2683 C2687 1.400 . S
C2684 H2669 0.960 . S
C2684 H2670 0.960 . S
C2684 H2671 0.960 . S
C2684 C2683 1.524 . S
C2685 C2682 1.403 . S
C2685 C2686 1.392 . S
C2685 C2689 1.495 . S
C2686 C2685 1.392 . S
C2686 C2687 1.385 1_455 S
C2686 C2688 1.478 . S
C2687 H2681 0.930 . S
C2687 C2683 1.400 . S
C2687 C2686 1.385 1_655 S
C2688 C2686 1.478 . S
C2688 C2690 1.381 . S
C2688 C2694 1.383 . S
C2689 C2685 1.495 . S
C2689 H2695 0.959 . S
C2689 H2696 0.961 . S
C2689 H2697 0.960 . S
C2690 C2688 1.381 . S
C2690 C2691 1.394 . S
C2690 H2698 0.930 . S
C2691 C2690 1.394 . S
C2691 C2692 1.383 . S
C2691 H2699 0.929 . S
C2692 C2691 1.383 . S
C2692 C2693 1.377 . S
C2693 H2677 0.930 . S
C2693 C2692 1.377 . S
C2693 C2694 1.379 . S
C2694 H2678 0.931 . S
C2694 C2688 1.383 . S
C2694 C2693 1.379 . S
H2695 C2689 0.959 . S
H2696 C2689 0.961 . S
H2697 C2689 0.960 . S
H2698 C2690 0.930 . S
H2699 C2691 0.929 . S
H2700 C2708 0.929 . S
H2701 C2710 0.930 . S
H2702 C2712 0.930 . S
H2703 C2715 0.929 . S
H2704 C2718 0.930 . S
H2705 C2720 0.960 . S
H2706 C2720 0.960 . S
H2707 C2720 0.960 . S
C2708 H2700 0.929 . S
C2708 C2709 1.377 . S
C2708 C2710 1.384 . S
C2709 C2708 1.377 . S
C2709 C2715 1.390 . S
C2710 H2701 0.930 . S
C2710 C2708 1.384 . S
C2710 C2711 1.372 . S
C2711 C2710 1.372 . S
C2711 C2712 1.400 . S
C2711 C2716 1.490 . S
C2712 H2702 0.930 . S
C2712 C2711 1.400 . S
C2712 C2715 1.386 . S
H2713 C2729 0.930 . S
H2714 C2730 0.931 . S
C2715 H2703 0.929 . S
C2715 C2709 1.390 . S
C2715 C2712 1.386 . S
C2716 C2711 1.490 . S
C2716 C2718 1.395 . S
C2716 C2719 1.403 . S
H2717 C2723 0.930 . S
C2718 H2704 0.930 . S
C2718 C2716 1.395 . S
C2718 C2721 1.403 . S
C2719 C2716 1.403 . S
C2719 C2720 1.524 . S
C2719 C2723 1.400 . S
C2720 H2705 0.960 . S
C2720 H2706 0.960 . S
C2720 H2707 0.960 . S
C2720 C2719 1.524 . S
C2721 C2718 1.403 . S
C2721 C2722 1.392 . S
C2721 C2725 1.495 . S
C2722 C2721 1.392 . S
C2722 C2723 1.385 . S
C2722 C2724 1.478 . S
C2723 H2717 0.930 . S
C2723 C2719 1.400 . S
C2723 C2722 1.385 . S
C2724 C2722 1.478 . S
C2724 C2726 1.381 . S
C2724 C2730 1.383 . S
C2725 C2721 1.495 . S
C2725 H2731 0.959 . S
C2725 H2732 0.961 . S
C2725 H2733 0.960 . S
C2726 C2724 1.381 . S
C2726 C2727 1.394 . S
C2726 H2734 0.930 . S
C2727 C2726 1.394 . S
C2727 C2728 1.383 . S
C2727 H2735 0.929 . S
C2728 C2727 1.383 . S
C2728 C2729 1.377 . S
C2729 H2713 0.930 . S
C2729 C2728 1.377 . S
C2729 C2730 1.379 . S
C2730 H2714 0.931 . S
C2730 C2724 1.383 . S
C2730 C2729 1.379 . S
H2731 C2725 0.959 . S
H2732 C2725 0.961 . S
H2733 C2725 0.960 . S
H2734 C2726 0.930 . S
H2735 C2727 0.929 . S
H2736 C2744 0.929 . S
H2737 C2746 0.930 . S
H2738 C2748 0.930 . S
H2739 C2751 0.929 . S
H2740 C2754 0.930 . S
H2741 C2756 0.960 . S
H2742 C2756 0.960 . S
H2743 C2756 0.960 . S
C2744 H2736 0.929 . S
C2744 C2745 1.377 . S
C2744 C2746 1.384 . S
C2745 C2744 1.377 . S
C2745 C2751 1.390 . S
C2746 H2737 0.930 . S
C2746 C2744 1.384 . S
C2746 C2747 1.372 . S
C2747 C2746 1.372 . S
C2747 C2748 1.400 . S
C2747 C2752 1.490 . S
C2748 H2738 0.930 . S
C2748 C2747 1.400 . S
C2748 C2751 1.386 . S
H2749 C2765 0.930 . S
H2750 C2766 0.931 . S
C2751 H2739 0.929 . S
C2751 C2745 1.390 . S
C2751 C2748 1.386 . S
C2752 C2747 1.490 . S
C2752 C2754 1.395 . S
C2752 C2755 1.403 1_545 S
H2753 C2759 0.930 . S
C2754 H2740 0.930 . S
C2754 C2752 1.395 . S
C2754 C2757 1.403 . S
C2755 C2752 1.403 1_565 S
C2755 C2756 1.524 . S
C2755 C2759 1.400 . S
C2756 H2741 0.960 . S
C2756 H2742 0.960 . S
C2756 H2743 0.960 . S
C2756 C2755 1.524 . S
C2757 C2754 1.403 . S
C2757 C2758 1.392 1_545 S
C2757 C2761 1.495 . S
C2758 C2757 1.392 1_565 S
C2758 C2759 1.385 . S
C2758 C2760 1.478 . S
C2759 H2753 0.930 . S
C2759 C2755 1.400 . S
C2759 C2758 1.385 . S
C2760 C2758 1.478 . S
C2760 C2762 1.381 . S
C2760 C2766 1.383 . S
C2761 C2757 1.495 . S
C2761 H2767 0.959 . S
C2761 H2768 0.961 . S
C2761 H2769 0.960 . S
C2762 C2760 1.381 . S
C2762 C2763 1.394 . S
C2762 H2770 0.930 . S
C2763 C2762 1.394 . S
C2763 C2764 1.383 . S
C2763 H2771 0.929 . S
C2764 C2763 1.383 . S
C2764 C2765 1.377 . S
C2765 H2749 0.930 . S
C2765 C2764 1.377 . S
C2765 C2766 1.379 . S
C2766 H2750 0.931 . S
C2766 C2760 1.383 . S
C2766 C2765 1.379 . S
H2767 C2761 0.959 . S
H2768 C2761 0.961 . S
H2769 C2761 0.960 . S
H2770 C2762 0.930 . S
H2771 C2763 0.929 . S
H2772 C2780 0.929 . S
H2773 C2782 0.930 . S
H2774 C2784 0.930 . S
H2775 C2787 0.929 . S
H2776 C2790 0.930 . S
H2777 C2792 0.960 . S
H2778 C2792 0.960 . S
H2779 C2792 0.960 1_655 S
C2780 H2772 0.929 . S
C2780 C2781 1.377 . S
C2780 C2782 1.384 . S
C2781 C2780 1.377 . S
C2781 C2787 1.390 . S
C2782 H2773 0.930 . S
C2782 C2780 1.384 . S
C2782 C2783 1.372 . S
C2783 C2782 1.372 . S
C2783 C2784 1.400 . S
C2783 C2788 1.490 . S
C2784 H2774 0.930 . S
C2784 C2783 1.400 . S
C2784 C2787 1.386 . S
H2785 C2801 0.930 . S
H2786 C2802 0.931 . S
C2787 H2775 0.929 . S
C2787 C2781 1.390 . S
C2787 C2784 1.386 . S
C2788 C2783 1.490 . S
C2788 C2790 1.395 . S
C2788 C2791 1.403 1_655 S
H2789 C2795 0.930 . S
C2790 H2776 0.930 . S
C2790 C2788 1.395 . S
C2790 C2793 1.403 . S
C2791 C2788 1.403 1_455 S
C2791 C2792 1.524 . S
C2791 C2795 1.400 . S
C2792 H2777 0.960 . S
C2792 H2778 0.960 . S
C2792 H2779 0.960 1_455 S
C2792 C2791 1.524 . S
C2793 C2790 1.403 . S
C2793 C2794 1.392 1_655 S
C2793 C2797 1.495 . S
C2794 C2793 1.392 1_455 S
C2794 C2795 1.385 . S
C2794 C2796 1.478 . S
C2795 H2789 0.930 . S
C2795 C2791 1.400 . S
C2795 C2794 1.385 . S
C2796 C2794 1.478 . S
C2796 C2798 1.381 . S
C2796 C2802 1.383 . S
C2797 C2793 1.495 . S
C2797 H2803 0.959 . S
C2797 H2804 0.961 . S
C2797 H2805 0.960 1_655 S
C2798 C2796 1.381 . S
C2798 C2799 1.394 . S
C2798 H2806 0.930 . S
C2799 C2798 1.394 . S
C2799 C2800 1.383 . S
C2799 H2807 0.929 . S
C2800 C2799 1.383 . S
C2800 C2801 1.377 . S
C2801 H2785 0.930 . S
C2801 C2800 1.377 . S
C2801 C2802 1.379 . S
C2802 H2786 0.931 . S
C2802 C2796 1.383 . S
C2802 C2801 1.379 . S
H2803 C2797 0.959 . S
H2804 C2797 0.961 . S
H2805 C2797 0.960 1_455 S
H2806 C2798 0.930 . S
H2807 C2799 0.929 . S
H2808 C2816 0.929 . S
H2809 C2818 0.930 . S
H2810 C2820 0.930 . S
H2811 C2823 0.929 . S
H2812 C2826 0.930 . S
H2813 C2828 0.960 . S
H2814 C2828 0.960 . S
H2815 C2828 0.960 . S
C2816 H2808 0.929 . S
C2816 C2817 1.377 . S
C2816 C2818 1.384 . S
C2817 C2816 1.377 . S
C2817 C2823 1.390 . S
C2818 H2809 0.930 . S
C2818 C2816 1.384 . S
C2818 C2819 1.372 . S
C2819 C2818 1.372 . S
C2819 C2820 1.400 . S
C2819 C2824 1.490 . S
C2820 H2810 0.930 . S
C2820 C2819 1.400 . S
C2820 C2823 1.386 . S
H2821 C2837 0.930 . S
H2822 C2838 0.931 . S
C2823 H2811 0.929 . S
C2823 C2817 1.390 . S
C2823 C2820 1.386 . S
C2824 C2819 1.490 . S
C2824 C2826 1.395 . S
C2824 C2827 1.403 . S
H2825 C2831 0.930 . S
C2826 H2812 0.930 . S
C2826 C2824 1.395 . S
C2826 C2829 1.403 . S
C2827 C2824 1.403 . S
C2827 C2828 1.524 . S
C2827 C2831 1.400 . S
C2828 H2813 0.960 . S
C2828 H2814 0.960 . S
C2828 H2815 0.960 . S
C2828 C2827 1.524 . S
C2829 C2826 1.403 . S
C2829 C2830 1.392 . S
C2829 C2833 1.495 . S
C2830 C2829 1.392 . S
C2830 C2831 1.385 . S
C2830 C2832 1.478 . S
C2831 H2825 0.930 . S
C2831 C2827 1.400 . S
C2831 C2830 1.385 . S
C2832 C2830 1.478 . S
C2832 C2834 1.381 . S
C2832 C2838 1.383 . S
C2833 C2829 1.495 . S
C2833 H2839 0.959 . S
C2833 H2840 0.961 . S
C2833 H2841 0.960 . S
C2834 C2832 1.381 . S
C2834 C2835 1.394 . S
C2834 H2842 0.930 . S
C2835 C2834 1.394 . S
C2835 C2836 1.383 . S
C2835 H2843 0.929 . S
C2836 C2835 1.383 . S
C2836 C2837 1.377 . S
C2837 H2821 0.930 . S
C2837 C2836 1.377 . S
C2837 C2838 1.379 . S
C2838 H2822 0.931 . S
C2838 C2832 1.383 . S
C2838 C2837 1.379 . S
H2839 C2833 0.959 . S
H2840 C2833 0.961 . S
H2841 C2833 0.960 . S
H2842 C2834 0.930 . S
H2843 C2835 0.929 . S
H2844 C2852 0.929 . S
H2845 C2854 0.930 . S
H2846 C2856 0.930 . S
H2847 C2859 0.929 . S
H2848 C2862 0.930 . S
H2849 C2864 0.960 . S
H2850 C2864 0.960 . S
H2851 C2864 0.960 . S
C2852 H2844 0.929 . S
C2852 C2853 1.377 . S
C2852 C2854 1.384 . S
C2853 C2852 1.377 . S
C2853 C2859 1.390 . S
C2854 H2845 0.930 . S
C2854 C2852 1.384 . S
C2854 C2855 1.372 . S
C2855 C2854 1.372 . S
C2855 C2856 1.400 . S
C2855 C2860 1.490 . S
C2856 H2846 0.930 . S
C2856 C2855 1.400 . S
C2856 C2859 1.386 . S
H2857 C2873 0.930 . S
H2858 C2874 0.931 . S
C2859 H2847 0.929 . S
C2859 C2853 1.390 . S
C2859 C2856 1.386 . S
C2860 C2855 1.490 . S
C2860 C2862 1.395 . S
C2860 C2863 1.403 . S
H2861 C2867 0.930 . S
C2862 H2848 0.930 . S
C2862 C2860 1.395 . S
C2862 C2865 1.403 . S
C2863 C2860 1.403 . S
C2863 C2864 1.524 . S
C2863 C2867 1.400 . S
C2864 H2849 0.960 . S
C2864 H2850 0.960 . S
C2864 H2851 0.960 . S
C2864 C2863 1.524 . S
C2865 C2862 1.403 . S
C2865 C2866 1.392 . S
C2865 C2869 1.495 . S
C2866 C2865 1.392 . S
C2866 C2867 1.385 . S
C2866 C2868 1.478 . S
C2867 H2861 0.930 . S
C2867 C2863 1.400 . S
C2867 C2866 1.385 . S
C2868 C2866 1.478 . S
C2868 C2870 1.381 . S
C2868 C2874 1.383 . S
C2869 C2865 1.495 . S
C2869 H2875 0.959 . S
C2869 H2876 0.961 . S
C2869 H2877 0.960 . S
C2870 C2868 1.381 . S
C2870 C2871 1.394 . S
C2870 H2878 0.930 . S
C2871 C2870 1.394 . S
C2871 C2872 1.383 . S
C2871 H2879 0.929 . S
C2872 C2871 1.383 . S
C2872 C2873 1.377 . S
C2873 H2857 0.930 . S
C2873 C2872 1.377 . S
C2873 C2874 1.379 . S
C2874 H2858 0.931 . S
C2874 C2868 1.383 . S
C2874 C2873 1.379 . S
H2875 C2869 0.959 . S
H2876 C2869 0.961 . S
H2877 C2869 0.960 . S
H2878 C2870 0.930 . S
H2879 C2871 0.929 . S
H2880 C2888 0.929 . S
H2881 C2890 0.930 . S
H2882 C2892 0.930 . S
H2883 C2895 0.929 . S
H2884 C2898 0.930 . S
H2885 C2900 0.960 . S
H2886 C2900 0.960 . S
H2887 C2900 0.960 . S
C2888 H2880 0.929 . S
C2888 C2889 1.377 . S
C2888 C2890 1.384 . S
C2889 C2888 1.377 . S
C2889 C2895 1.390 . S
C2890 H2881 0.930 . S
C2890 C2888 1.384 . S
C2890 C2891 1.372 . S
C2891 C2890 1.372 . S
C2891 C2892 1.400 . S
C2891 C2896 1.490 . S
C2892 H2882 0.930 . S
C2892 C2891 1.400 . S
C2892 C2895 1.386 . S
H2893 C2909 0.930 . S
H2894 C2910 0.931 . S
C2895 H2883 0.929 . S
C2895 C2889 1.390 . S
C2895 C2892 1.386 . S
C2896 C2891 1.490 . S
C2896 C2898 1.395 . S
C2896 C2899 1.403 . S
H2897 C2903 0.930 . S
C2898 H2884 0.930 . S
C2898 C2896 1.395 . S
C2898 C2901 1.403 . S
C2899 C2896 1.403 . S
C2899 C2900 1.524 . S
C2899 C2903 1.400 . S
C2900 H2885 0.960 . S
C2900 H2886 0.960 . S
C2900 H2887 0.960 . S
C2900 C2899 1.524 . S
C2901 C2898 1.403 . S
C2901 C2902 1.392 . S
C2901 C2905 1.495 . S
C2902 C2901 1.392 . S
C2902 C2903 1.385 . S
C2902 C2904 1.478 . S
C2903 H2897 0.930 . S
C2903 C2899 1.400 . S
C2903 C2902 1.385 . S
C2904 C2902 1.478 . S
C2904 C2906 1.381 . S
C2904 C2910 1.383 . S
C2905 C2901 1.495 . S
C2905 H2911 0.959 . S
C2905 H2912 0.961 . S
C2905 H2913 0.960 . S
C2906 C2904 1.381 . S
C2906 C2907 1.394 . S
C2906 H2914 0.930 . S
C2907 C2906 1.394 . S
C2907 C2908 1.383 . S
C2907 H2915 0.929 . S
C2908 C2907 1.383 . S
C2908 C2909 1.377 . S
C2909 H2893 0.930 . S
C2909 C2908 1.377 . S
C2909 C2910 1.379 . S
C2910 H2894 0.931 . S
C2910 C2904 1.383 . S
C2910 C2909 1.379 . S
H2911 C2905 0.959 . S
H2912 C2905 0.961 . S
H2913 C2905 0.960 . S
H2914 C2906 0.930 . S
H2915 C2907 0.929 . S
H2916 C2924 0.929 . S
H2917 C2926 0.930 . S
H2918 C2928 0.930 . S
H2919 C2931 0.929 . S
H2920 C2934 0.930 . S
H2921 C2936 0.960 . S
H2922 C2936 0.960 . S
H2923 C2936 0.960 . S
C2924 H2916 0.929 . S
C2924 C2925 1.377 . S
C2924 C2926 1.384 1_556 S
C2925 C2924 1.377 . S
C2925 C2931 1.390 1_556 S
C2926 H2917 0.930 . S
C2926 C2924 1.384 1_554 S
C2926 C2927 1.372 . S
C2927 C2926 1.372 . S
C2927 C2928 1.400 . S
C2927 C2932 1.490 . S
C2928 H2918 0.930 . S
C2928 C2927 1.400 . S
C2928 C2931 1.386 . S
H2929 C2945 0.930 . S
H2930 C2946 0.931 . S
C2931 H2919 0.929 . S
C2931 C2925 1.390 1_554 S
C2931 C2928 1.386 . S
C2932 C2927 1.490 . S
C2932 C2934 1.395 . S
C2932 C2935 1.403 . S
H2933 C2939 0.930 . S
C2934 H2920 0.930 . S
C2934 C2932 1.395 . S
C2934 C2937 1.403 . S
C2935 C2932 1.403 . S
C2935 C2936 1.524 . S
C2935 C2939 1.400 . S
C2936 H2921 0.960 . S
C2936 H2922 0.960 . S
C2936 H2923 0.960 . S
C2936 C2935 1.524 . S
C2937 C2934 1.403 . S
C2937 C2938 1.392 . S
C2937 C2941 1.495 . S
C2938 C2937 1.392 . S
C2938 C2939 1.385 . S
C2938 C2940 1.478 . S
C2939 H2933 0.930 . S
C2939 C2935 1.400 . S
C2939 C2938 1.385 . S
C2940 C2938 1.478 . S
C2940 C2942 1.381 . S
C2940 C2946 1.383 . S
C2941 C2937 1.495 . S
C2941 H2947 0.959 . S
C2941 H2948 0.961 . S
C2941 H2949 0.960 . S
C2942 C2940 1.381 . S
C2942 C2943 1.394 . S
C2942 H2950 0.930 . S
C2943 C2942 1.394 . S
C2943 C2944 1.383 . S
C2943 H2951 0.929 . S
C2944 C2943 1.383 . S
C2944 C2945 1.377 . S
C2945 H2929 0.930 . S
C2945 C2944 1.377 . S
C2945 C2946 1.379 . S
C2946 H2930 0.931 . S
C2946 C2940 1.383 . S
C2946 C2945 1.379 . S
H2947 C2941 0.959 . S
H2948 C2941 0.961 . S
H2949 C2941 0.960 . S
H2950 C2942 0.930 . S
H2951 C2943 0.929 . S
H2952 C2960 0.929 . S
H2953 C2962 0.930 . S
H2954 C2964 0.930 . S
H2955 C2967 0.929 . S
H2956 C2970 0.930 . S
H2957 C2972 0.960 . S
H2958 C2972 0.960 . S
H2959 C2972 0.960 . S
C2960 H2952 0.929 . S
C2960 C2961 1.377 1_554 S
C2960 C2962 1.384 . S
C2961 C2960 1.377 1_556 S
C2961 C2967 1.390 1_556 S
C2962 H2953 0.930 . S
C2962 C2960 1.384 . S
C2962 C2963 1.372 . S
C2963 C2962 1.372 . S
C2963 C2964 1.400 . S
C2963 C2968 1.490 . S
C2964 H2954 0.930 . S
C2964 C2963 1.400 . S
C2964 C2967 1.386 . S
H2965 C2981 0.930 . S
H2966 C2982 0.931 . S
C2967 H2955 0.929 . S
C2967 C2961 1.390 1_554 S
C2967 C2964 1.386 . S
C2968 C2963 1.490 . S
C2968 C2970 1.395 . S
C2968 C2971 1.403 . S
H2969 C2975 0.930 . S
C2970 H2956 0.930 . S
C2970 C2968 1.395 . S
C2970 C2973 1.403 . S
C2971 C2968 1.403 . S
C2971 C2972 1.524 . S
C2971 C2975 1.400 . S
C2972 H2957 0.960 . S
C2972 H2958 0.960 . S
C2972 H2959 0.960 . S
C2972 C2971 1.524 . S
C2973 C2970 1.403 . S
C2973 C2974 1.392 . S
C2973 C2977 1.495 . S
C2974 C2973 1.392 . S
C2974 C2975 1.385 . S
C2974 C2976 1.478 . S
C2975 H2969 0.930 . S
C2975 C2971 1.400 . S
C2975 C2974 1.385 . S
C2976 C2974 1.478 . S
C2976 C2978 1.381 . S
C2976 C2982 1.383 . S
C2977 C2973 1.495 . S
C2977 H2983 0.959 . S
C2977 H2984 0.961 . S
C2977 H2985 0.960 . S
C2978 C2976 1.381 . S
C2978 C2979 1.394 . S
C2978 H2986 0.930 . S
C2979 C2978 1.394 . S
C2979 C2980 1.383 . S
C2979 H2987 0.929 . S
C2980 C2979 1.383 . S
C2980 C2981 1.377 . S
C2981 H2965 0.930 . S
C2981 C2980 1.377 . S
C2981 C2982 1.379 . S
C2982 H2966 0.931 . S
C2982 C2976 1.383 . S
C2982 C2981 1.379 . S
H2983 C2977 0.959 . S
H2984 C2977 0.961 . S
H2985 C2977 0.960 . S
H2986 C2978 0.930 . S
H2987 C2979 0.929 . S
H2988 C2996 0.929 . S
H2989 C2998 0.930 . S
H2990 C3000 0.930 . S
H2991 C3003 0.929 . S
H2992 C3006 0.930 . S
H2993 C3008 0.960 . S
H2994 C3008 0.960 . S
H2995 C3008 0.960 . S
C2996 H2988 0.929 . S
C2996 C2997 1.377 . S
C2996 C2998 1.384 1_556 S
C2997 C2996 1.377 . S
C2997 C3003 1.390 1_556 S
C2998 H2989 0.930 . S
C2998 C2996 1.384 1_554 S
C2998 C2999 1.372 . S
C2999 C2998 1.372 . S
C2999 C3000 1.400 . S
C2999 C3004 1.490 . S
C3000 H2990 0.930 . S
C3000 C2999 1.400 . S
C3000 C3003 1.386 . S
H3001 C3017 0.930 . S
H3002 C3018 0.931 . S
C3003 H2991 0.929 . S
C3003 C2997 1.390 1_554 S
C3003 C3000 1.386 . S
C3004 C2999 1.490 . S
C3004 C3006 1.395 . S
C3004 C3007 1.403 . S
H3005 C3011 0.930 . S
C3006 H2992 0.930 . S
C3006 C3004 1.395 . S
C3006 C3009 1.403 . S
C3007 C3004 1.403 . S
C3007 C3008 1.524 . S
C3007 C3011 1.400 . S
C3008 H2993 0.960 . S
C3008 H2994 0.960 . S
C3008 H2995 0.960 . S
C3008 C3007 1.524 . S
C3009 C3006 1.403 . S
C3009 C3010 1.392 . S
C3009 C3013 1.495 . S
C3010 C3009 1.392 . S
C3010 C3011 1.385 . S
C3010 C3012 1.478 . S
C3011 H3005 0.930 . S
C3011 C3007 1.400 . S
C3011 C3010 1.385 . S
C3012 C3010 1.478 . S
C3012 C3014 1.381 . S
C3012 C3018 1.383 . S
C3013 C3009 1.495 . S
C3013 H3019 0.959 . S
C3013 H3020 0.961 . S
C3013 H3021 0.960 . S
C3014 C3012 1.381 . S
C3014 C3015 1.394 . S
C3014 H3022 0.930 . S
C3015 C3014 1.394 . S
C3015 C3016 1.383 . S
C3015 H3023 0.929 . S
C3016 C3015 1.383 . S
C3016 C3017 1.377 . S
C3017 H3001 0.930 . S
C3017 C3016 1.377 . S
C3017 C3018 1.379 . S
C3018 H3002 0.931 . S
C3018 C3012 1.383 . S
C3018 C3017 1.379 . S
H3019 C3013 0.959 . S
H3020 C3013 0.961 . S
H3021 C3013 0.960 . S
H3022 C3014 0.930 . S
H3023 C3015 0.929 . S
H3024 C3032 0.931 . S
H3025 C3034 0.930 . S
H3026 C3036 0.930 . S
H3027 C3039 0.929 . S
H3028 C3042 0.930 . S
H3029 C3044 0.960 . S
H3030 C3044 0.960 . S
H3031 C3044 0.960 . S
C3032 H3024 0.931 . S
C3032 C3033 1.378 . S
C3032 C3034 1.382 1_554 S
C3033 C3032 1.378 . S
C3033 C3039 1.390 1_554 S
C3034 H3025 0.930 . S
C3034 C3032 1.382 1_556 S
C3034 C3035 1.372 . S
C3035 C3034 1.372 . S
C3035 C3036 1.400 . S
C3035 C3040 1.490 . S
C3036 H3026 0.930 . S
C3036 C3035 1.400 . S
C3036 C3039 1.386 . S
H3037 C3053 0.930 . S
H3038 C3054 0.931 . S
C3039 H3027 0.929 . S
C3039 C3033 1.390 1_556 S
C3039 C3036 1.386 . S
C3040 C3035 1.490 . S
C3040 C3042 1.395 . S
C3040 C3043 1.403 . S
H3041 C3047 0.930 . S
C3042 H3028 0.930 . S
C3042 C3040 1.395 . S
C3042 C3045 1.403 . S
C3043 C3040 1.403 . S
C3043 C3044 1.524 . S
C3043 C3047 1.400 . S
C3044 H3029 0.960 . S
C3044 H3030 0.960 . S
C3044 H3031 0.960 . S
C3044 C3043 1.524 . S
C3045 C3042 1.403 . S
C3045 C3046 1.392 . S
C3045 C3049 1.495 . S
C3046 C3045 1.392 . S
C3046 C3047 1.385 . S
C3046 C3048 1.478 . S
C3047 H3041 0.930 . S
C3047 C3043 1.400 . S
C3047 C3046 1.385 . S
C3048 C3046 1.478 . S
C3048 C3050 1.381 . S
C3048 C3054 1.383 . S
C3049 C3045 1.495 . S
C3049 H3055 0.959 . S
C3049 H3056 0.961 . S
C3049 H3057 0.960 . S
C3050 C3048 1.381 . S
C3050 C3051 1.394 . S
C3050 H3058 0.930 . S
C3051 C3050 1.394 . S
C3051 C3052 1.383 . S
C3051 H3059 0.929 . S
C3052 C3051 1.383 . S
C3052 C3053 1.377 . S
C3053 H3037 0.930 . S
C3053 C3052 1.377 . S
C3053 C3054 1.379 . S
C3054 H3038 0.931 . S
C3054 C3048 1.383 . S
C3054 C3053 1.379 . S
H3055 C3049 0.959 . S
H3056 C3049 0.961 . S
H3057 C3049 0.960 . S
H3058 C3050 0.930 . S
H3059 C3051 0.929 . S
H3060 C3068 0.929 . S
H3061 C3070 0.930 . S
H3062 C3072 0.930 . S
H3063 C3075 0.929 . S
H3064 C3078 0.930 . S
H3065 C3080 0.960 . S
H3066 C3080 0.960 . S
H3067 C3080 0.960 . S
C3068 H3060 0.929 . S
C3068 C3069 1.377 . S
C3068 C3070 1.384 . S
C3069 C3068 1.377 . S
C3069 C3075 1.390 . S
C3070 H3061 0.930 . S
C3070 C3068 1.384 . S
C3070 C3071 1.372 . S
C3071 C3070 1.372 . S
C3071 C3072 1.400 . S
C3071 C3076 1.490 . S
C3072 H3062 0.930 . S
C3072 C3071 1.400 . S
C3072 C3075 1.386 . S
H3073 C3089 0.931 1_554 S
H3074 C3090 0.931 . S
C3075 H3063 0.929 . S
C3075 C3069 1.390 . S
C3075 C3072 1.386 . S
C3076 C3071 1.490 . S
C3076 C3078 1.395 . S
C3076 C3079 1.403 . S
H3077 C3083 0.930 . S
C3078 H3064 0.930 . S
C3078 C3076 1.395 . S
C3078 C3081 1.403 . S
C3079 C3076 1.403 . S
C3079 C3080 1.524 . S
C3079 C3083 1.400 . S
C3080 H3065 0.960 . S
C3080 H3066 0.960 . S
C3080 H3067 0.960 . S
C3080 C3079 1.524 . S
C3081 C3078 1.403 . S
C3081 C3082 1.392 . S
C3081 C3085 1.495 . S
C3082 C3081 1.392 . S
C3082 C3083 1.385 . S
C3082 C3084 1.478 . S
C3083 H3077 0.930 . S
C3083 C3079 1.400 . S
C3083 C3082 1.385 . S
C3084 C3082 1.478 . S
C3084 C3086 1.381 . S
C3084 C3090 1.383 . S
C3085 C3081 1.495 . S
C3085 H3091 0.959 . S
C3085 H3092 0.961 . S
C3085 H3093 0.960 . S
C3086 C3084 1.381 . S
C3086 C3087 1.394 . S
C3086 H3094 0.930 . S
C3087 C3086 1.394 . S
C3087 C3088 1.383 1_556 S
C3087 H3095 0.929 . S
C3088 C3087 1.383 1_554 S
C3088 C3089 1.377 1_554 S
C3089 H3073 0.931 1_556 S
C3089 C3088 1.377 1_556 S
C3089 C3090 1.379 . S
C3090 H3074 0.931 . S
C3090 C3084 1.383 . S
C3090 C3089 1.379 . S
H3091 C3085 0.959 . S
H3092 C3085 0.961 . S
H3093 C3085 0.960 . S
H3094 C3086 0.930 . S
H3095 C3087 0.929 . S
H3096 C3104 0.929 . S
H3097 C3106 0.930 . S
H3098 C3108 0.930 . S
H3099 C3111 0.929 . S
H3100 C3114 0.930 . S
H3101 C3116 0.960 . S
H3102 C3116 0.960 . S
H3103 C3116 0.960 . S
C3104 H3096 0.929 . S
C3104 C3105 1.377 . S
C3104 C3106 1.384 1_554 S
C3105 C3104 1.377 . S
C3105 C3111 1.390 1_554 S
C3106 H3097 0.930 . S
C3106 C3104 1.384 1_556 S
C3106 C3107 1.372 . S
C3107 C3106 1.372 . S
C3107 C3108 1.400 . S
C3107 C3112 1.490 . S
C3108 H3098 0.930 . S
C3108 C3107 1.400 . S
C3108 C3111 1.386 . S
H3109 C3125 0.930 . S
H3110 C3126 0.931 . S
C3111 H3099 0.929 . S
C3111 C3105 1.390 1_556 S
C3111 C3108 1.386 . S
C3112 C3107 1.490 . S
C3112 C3114 1.395 . S
C3112 C3115 1.403 . S
H3113 C3119 0.930 . S
C3114 H3100 0.930 . S
C3114 C3112 1.395 . S
C3114 C3117 1.403 . S
C3115 C3112 1.403 . S
C3115 C3116 1.524 . S
C3115 C3119 1.400 . S
C3116 H3101 0.960 . S
C3116 H3102 0.960 . S
C3116 H3103 0.960 . S
C3116 C3115 1.524 . S
C3117 C3114 1.403 . S
C3117 C3118 1.392 . S
C3117 C3121 1.495 . S
C3118 C3117 1.392 . S
C3118 C3119 1.385 . S
C3118 C3120 1.478 . S
C3119 H3113 0.930 . S
C3119 C3115 1.400 . S
C3119 C3118 1.385 . S
C3120 C3118 1.478 . S
C3120 C3122 1.381 . S
C3120 C3126 1.383 . S
C3121 C3117 1.495 . S
C3121 H3127 0.959 . S
C3121 H3128 0.961 . S
C3121 H3129 0.960 . S
C3122 C3120 1.381 . S
C3122 C3123 1.394 . S
C3122 H3130 0.930 . S
C3123 C3122 1.394 . S
C3123 C3124 1.383 . S
C3123 H3131 0.929 . S
C3124 C3123 1.383 . S
C3124 C3125 1.377 . S
C3125 H3109 0.930 . S
C3125 C3124 1.377 . S
C3125 C3126 1.379 . S
C3126 H3110 0.931 . S
C3126 C3120 1.383 . S
C3126 C3125 1.379 . S
H3127 C3121 0.959 . S
H3128 C3121 0.961 . S
H3129 C3121 0.960 . S
H3130 C3122 0.930 . S
H3131 C3123 0.929 . S
H3132 C3140 0.929 . S
H3133 C3142 0.930 . S
H3134 C3144 0.930 . S
H3135 C3147 0.929 . S
H3136 C3150 0.930 . S
H3137 C3152 0.960 . S
H3138 C3152 0.960 . S
H3139 C3152 0.960 . S
C3140 H3132 0.929 . S
C3140 C3141 1.377 . S
C3140 C3142 1.384 . S
C3141 C3140 1.377 . S
C3141 C3147 1.390 . S
C3142 H3133 0.930 . S
C3142 C3140 1.384 . S
C3142 C3143 1.372 . S
C3143 C3142 1.372 . S
C3143 C3144 1.400 . S
C3143 C3148 1.490 . S
C3144 H3134 0.930 . S
C3144 C3143 1.400 . S
C3144 C3147 1.386 . S
H3145 C3161 0.930 . S
H3146 C3162 0.931 . S
C3147 H3135 0.929 . S
C3147 C3141 1.390 . S
C3147 C3144 1.386 . S
C3148 C3143 1.490 . S
C3148 C3150 1.395 . S
C3148 C3151 1.403 . S
H3149 C3155 0.930 . S
C3150 H3136 0.930 . S
C3150 C3148 1.395 . S
C3150 C3153 1.403 . S
C3151 C3148 1.403 . S
C3151 C3152 1.524 . S
C3151 C3155 1.400 . S
C3152 H3137 0.960 . S
C3152 H3138 0.960 . S
C3152 H3139 0.960 . S
C3152 C3151 1.524 . S
C3153 C3150 1.403 . S
C3153 C3154 1.392 . S
C3153 C3157 1.495 . S
C3154 C3153 1.392 . S
C3154 C3155 1.385 . S
C3154 C3156 1.478 . S
C3155 H3149 0.930 . S
C3155 C3151 1.400 . S
C3155 C3154 1.385 . S
C3156 C3154 1.478 . S
C3156 C3158 1.381 . S
C3156 C3162 1.383 . S
C3157 C3153 1.495 . S
C3157 H3163 0.959 . S
C3157 H3164 0.961 . S
C3157 H3165 0.960 . S
C3158 C3156 1.381 . S
C3158 C3159 1.394 . S
C3158 H3166 0.930 . S
C3159 C3158 1.394 . S
C3159 C3160 1.383 . S
C3159 H3167 0.929 . S
C3160 C3159 1.383 . S
C3160 C3161 1.377 . S
C3161 H3145 0.930 . S
C3161 C3160 1.377 . S
C3161 C3162 1.379 . S
C3162 H3146 0.931 . S
C3162 C3156 1.383 . S
C3162 C3161 1.379 . S
H3163 C3157 0.959 . S
H3164 C3157 0.961 . S
H3165 C3157 0.960 . S
H3166 C3158 0.930 . S
H3167 C3159 0.929 . S
H3168 C3176 0.929 . S
H3169 C3178 0.930 . S
H3170 C3180 0.930 . S
H3171 C3183 0.929 . S
H3172 C3186 0.930 . S
H3173 C3188 0.960 . S
H3174 C3188 0.960 . S
H3175 C3188 0.960 . S
C3176 H3168 0.929 . S
C3176 C3177 1.377 . S
C3176 C3178 1.384 . S
C3177 C3176 1.377 . S
C3177 C3183 1.390 . S
C3178 H3169 0.930 . S
C3178 C3176 1.384 . S
C3178 C3179 1.372 . S
C3179 C3178 1.372 . S
C3179 C3180 1.400 . S
C3179 C3184 1.490 . S
C3180 H3170 0.930 . S
C3180 C3179 1.400 . S
C3180 C3183 1.386 . S
H3181 C3197 0.930 . S
H3182 C3198 0.931 . S
C3183 H3171 0.929 . S
C3183 C3177 1.390 . S
C3183 C3180 1.386 . S
C3184 C3179 1.490 . S
C3184 C3186 1.395 . S
C3184 C3187 1.403 . S
H3185 C3191 0.930 . S
C3186 H3172 0.930 . S
C3186 C3184 1.395 . S
C3186 C3189 1.403 . S
C3187 C3184 1.403 . S
C3187 C3188 1.524 . S
C3187 C3191 1.400 . S
C3188 H3173 0.960 . S
C3188 H3174 0.960 . S
C3188 H3175 0.960 . S
C3188 C3187 1.524 . S
C3189 C3186 1.403 . S
C3189 C3190 1.392 . S
C3189 C3193 1.495 . S
C3190 C3189 1.392 . S
C3190 C3191 1.385 . S
C3190 C3192 1.478 . S
C3191 H3185 0.930 . S
C3191 C3187 1.400 . S
C3191 C3190 1.385 . S
C3192 C3190 1.478 . S
C3192 C3194 1.381 . S
C3192 C3198 1.383 . S
C3193 C3189 1.495 . S
C3193 H3199 0.959 . S
C3193 H3200 0.961 . S
C3193 H3201 0.960 . S
C3194 C3192 1.381 . S
C3194 C3195 1.394 . S
C3194 H3202 0.930 . S
C3195 C3194 1.394 . S
C3195 C3196 1.383 . S
C3195 H3203 0.929 . S
C3196 C3195 1.383 . S
C3196 C3197 1.377 . S
C3197 H3181 0.930 . S
C3197 C3196 1.377 . S
C3197 C3198 1.379 . S
C3198 H3182 0.931 . S
C3198 C3192 1.383 . S
C3198 C3197 1.379 . S
H3199 C3193 0.959 . S
H3200 C3193 0.961 . S
H3201 C3193 0.960 . S
H3202 C3194 0.930 . S
H3203 C3195 0.929 . S
H3204 C3212 0.929 . S
H3205 C3214 0.930 . S
H3206 C3216 0.930 . S
H3207 C3219 0.929 . S
H3208 C3222 0.930 . S
H3209 C3224 0.960 . S
H3210 C3224 0.960 . S
H3211 C3224 0.960 . S
C3212 H3204 0.929 . S
C3212 C3213 1.377 . S
C3212 C3214 1.384 . S
C3213 C3212 1.377 . S
C3213 C3219 1.390 . S
C3214 H3205 0.930 . S
C3214 C3212 1.384 . S
C3214 C3215 1.372 . S
C3215 C3214 1.372 . S
C3215 C3216 1.400 . S
C3215 C3220 1.490 . S
C3216 H3206 0.930 . S
C3216 C3215 1.400 . S
C3216 C3219 1.386 . S
H3217 C3233 0.930 . S
H3218 C3234 0.931 . S
C3219 H3207 0.929 . S
C3219 C3213 1.390 . S
C3219 C3216 1.386 . S
C3220 C3215 1.490 . S
C3220 C3222 1.395 . S
C3220 C3223 1.403 . S
H3221 C3227 0.930 . S
C3222 H3208 0.930 . S
C3222 C3220 1.395 . S
C3222 C3225 1.403 . S
C3223 C3220 1.403 . S
C3223 C3224 1.524 . S
C3223 C3227 1.400 . S
C3224 H3209 0.960 . S
C3224 H3210 0.960 . S
C3224 H3211 0.960 . S
C3224 C3223 1.524 . S
C3225 C3222 1.403 . S
C3225 C3226 1.392 . S
C3225 C3229 1.495 . S
C3226 C3225 1.392 . S
C3226 C3227 1.385 . S
C3226 C3228 1.478 . S
C3227 H3221 0.930 . S
C3227 C3223 1.400 . S
C3227 C3226 1.385 . S
C3228 C3226 1.478 . S
C3228 C3230 1.381 . S
C3228 C3234 1.383 . S
C3229 C3225 1.495 . S
C3229 H3235 0.959 . S
C3229 H3236 0.961 . S
C3229 H3237 0.960 . S
C3230 C3228 1.381 . S
C3230 C3231 1.394 . S
C3230 H3238 0.930 . S
C3231 C3230 1.394 . S
C3231 C3232 1.383 . S
C3231 H3239 0.929 . S
C3232 C3231 1.383 . S
C3232 C3233 1.377 . S
C3233 H3217 0.930 . S
C3233 C3232 1.377 . S
C3233 C3234 1.379 . S
C3234 H3218 0.931 . S
C3234 C3228 1.383 . S
C3234 C3233 1.379 . S
H3235 C3229 0.959 . S
H3236 C3229 0.961 . S
H3237 C3229 0.960 . S
H3238 C3230 0.930 . S
H3239 C3231 0.929 . S
H3240 C3248 0.929 . S
H3241 C3250 0.930 . S
H3242 C3252 0.930 . S
H3243 C3255 0.929 . S
H3244 C3258 0.930 . S
H3245 C3260 0.960 . S
H3246 C3260 0.960 . S
H3247 C3260 0.960 . S
C3248 H3240 0.929 . S
C3248 C3249 1.377 . S
C3248 C3250 1.384 . S
C3249 C3248 1.377 . S
C3249 C3255 1.390 . S
C3250 H3241 0.930 . S
C3250 C3248 1.384 . S
C3250 C3251 1.372 . S
C3251 C3250 1.372 . S
C3251 C3252 1.400 . S
C3251 C3256 1.490 . S
C3252 H3242 0.930 . S
C3252 C3251 1.400 . S
C3252 C3255 1.386 . S
H3253 C3269 0.930 . S
H3254 C3270 0.931 . S
C3255 H3243 0.929 . S
C3255 C3249 1.390 . S
C3255 C3252 1.386 . S
C3256 C3251 1.490 . S
C3256 C3258 1.395 . S
C3256 C3259 1.403 . S
H3257 C3263 0.930 . S
C3258 H3244 0.930 . S
C3258 C3256 1.395 . S
C3258 C3261 1.403 . S
C3259 C3256 1.403 . S
C3259 C3260 1.524 . S
C3259 C3263 1.400 . S
C3260 H3245 0.960 . S
C3260 H3246 0.960 . S
C3260 H3247 0.960 . S
C3260 C3259 1.524 . S
C3261 C3258 1.403 . S
C3261 C3262 1.392 . S
C3261 C3265 1.495 . S
C3262 C3261 1.392 . S
C3262 C3263 1.385 . S
C3262 C3264 1.478 . S
C3263 H3257 0.930 . S
C3263 C3259 1.400 . S
C3263 C3262 1.385 . S
C3264 C3262 1.478 . S
C3264 C3266 1.381 . S
C3264 C3270 1.383 . S
C3265 C3261 1.495 . S
C3265 H3271 0.959 . S
C3265 H3272 0.961 . S
C3265 H3273 0.960 . S
C3266 C3264 1.381 . S
C3266 C3267 1.394 . S
C3266 H3274 0.930 . S
C3267 C3266 1.394 . S
C3267 C3268 1.383 . S
C3267 H3275 0.929 . S
C3268 C3267 1.383 . S
C3268 C3269 1.377 . S
C3269 H3253 0.930 . S
C3269 C3268 1.377 . S
C3269 C3270 1.379 . S
C3270 H3254 0.931 . S
C3270 C3264 1.383 . S
C3270 C3269 1.379 . S
H3271 C3265 0.959 . S
H3272 C3265 0.961 . S
H3273 C3265 0.960 . S
H3274 C3266 0.930 . S
H3275 C3267 0.929 . S
H3276 C3284 0.929 . S
H3277 C3286 0.930 . S
H3278 C3288 0.930 . S
H3279 C3291 0.929 . S
H3280 C3294 0.930 . S
H3281 C3296 0.960 . S
H3282 C3296 0.960 . S
H3283 C3296 0.960 . S
C3284 H3276 0.929 . S
C3284 C3285 1.377 . S
C3284 C3286 1.384 . S
C3285 C3284 1.377 . S
C3285 C3291 1.390 . S
C3286 H3277 0.930 . S
C3286 C3284 1.384 . S
C3286 C3287 1.372 . S
C3287 C3286 1.372 . S
C3287 C3288 1.400 . S
C3287 C3292 1.490 . S
C3288 H3278 0.930 . S
C3288 C3287 1.400 . S
C3288 C3291 1.386 . S
H3289 C3305 0.930 . S
H3290 C3306 0.931 . S
C3291 H3279 0.929 . S
C3291 C3285 1.390 . S
C3291 C3288 1.386 . S
C3292 C3287 1.490 . S
C3292 C3294 1.395 . S
C3292 C3295 1.403 . S
H3293 C3299 0.930 . S
C3294 H3280 0.930 . S
C3294 C3292 1.395 . S
C3294 C3297 1.403 . S
C3295 C3292 1.403 . S
C3295 C3296 1.524 . S
C3295 C3299 1.400 . S
C3296 H3281 0.960 . S
C3296 H3282 0.960 . S
C3296 H3283 0.960 . S
C3296 C3295 1.524 . S
C3297 C3294 1.403 . S
C3297 C3298 1.392 . S
C3297 C3301 1.495 . S
C3298 C3297 1.392 . S
C3298 C3299 1.385 . S
C3298 C3300 1.478 . S
C3299 H3293 0.930 . S
C3299 C3295 1.400 . S
C3299 C3298 1.385 . S
C3300 C3298 1.478 . S
C3300 C3302 1.381 . S
C3300 C3306 1.383 . S
C3301 C3297 1.495 . S
C3301 H3307 0.959 . S
C3301 H3308 0.961 . S
C3301 H3309 0.960 . S
C3302 C3300 1.381 . S
C3302 C3303 1.394 . S
C3302 H3310 0.930 . S
C3303 C3302 1.394 . S
C3303 C3304 1.383 . S
C3303 H3311 0.929 . S
C3304 C3303 1.383 . S
C3304 C3305 1.377 . S
C3305 H3289 0.930 . S
C3305 C3304 1.377 . S
C3305 C3306 1.379 . S
C3306 H3290 0.931 . S
C3306 C3300 1.383 . S
C3306 C3305 1.379 . S
H3307 C3301 0.959 . S
H3308 C3301 0.961 . S
H3309 C3301 0.960 . S
H3310 C3302 0.930 . S
H3311 C3303 0.929 . S
H3312 C3320 0.929 . S
H3313 C3322 0.930 . S
H3314 C3324 0.930 . S
H3315 C3327 0.929 . S
H3316 C3330 0.930 . S
H3317 C3332 0.960 . S
H3318 C3332 0.960 . S
H3319 C3332 0.960 . S
C3320 H3312 0.929 . S
C3320 C3321 1.377 . S
C3320 C3322 1.384 . S
C3321 C3320 1.377 . S
C3321 C3327 1.390 . S
C3322 H3313 0.930 . S
C3322 C3320 1.384 . S
C3322 C3323 1.372 . S
C3323 C3322 1.372 . S
C3323 C3324 1.400 . S
C3323 C3328 1.490 . S
C3324 H3314 0.930 . S
C3324 C3323 1.400 . S
C3324 C3327 1.386 . S
H3325 C3341 0.930 . S
H3326 C3342 0.931 . S
C3327 H3315 0.929 . S
C3327 C3321 1.390 . S
C3327 C3324 1.386 . S
C3328 C3323 1.490 . S
C3328 C3330 1.395 . S
C3328 C3331 1.403 . S
H3329 C3335 0.930 . S
C3330 H3316 0.930 . S
C3330 C3328 1.395 . S
C3330 C3333 1.403 . S
C3331 C3328 1.403 . S
C3331 C3332 1.524 . S
C3331 C3335 1.400 . S
C3332 H3317 0.960 . S
C3332 H3318 0.960 . S
C3332 H3319 0.960 . S
C3332 C3331 1.524 . S
C3333 C3330 1.403 . S
C3333 C3334 1.392 . S
C3333 C3337 1.495 . S
C3334 C3333 1.392 . S
C3334 C3335 1.385 . S
C3334 C3336 1.478 . S
C3335 H3329 0.930 . S
C3335 C3331 1.400 . S
C3335 C3334 1.385 . S
C3336 C3334 1.478 . S
C3336 C3338 1.381 . S
C3336 C3342 1.383 . S
C3337 C3333 1.495 . S
C3337 H3343 0.959 . S
C3337 H3344 0.961 . S
C3337 H3345 0.960 . S
C3338 C3336 1.381 . S
C3338 C3339 1.394 . S
C3338 H3346 0.930 . S
C3339 C3338 1.394 . S
C3339 C3340 1.383 . S
C3339 H3347 0.929 . S
C3340 C3339 1.383 . S
C3340 C3341 1.377 . S
C3341 H3325 0.930 . S
C3341 C3340 1.377 . S
C3341 C3342 1.379 . S
C3342 H3326 0.931 . S
C3342 C3336 1.383 . S
C3342 C3341 1.379 . S
H3343 C3337 0.959 . S
H3344 C3337 0.961 . S
H3345 C3337 0.960 . S
H3346 C3338 0.930 . S
H3347 C3339 0.929 . S
H3348 C3356 0.929 . S
H3349 C3358 0.930 . S
H3350 C3360 0.930 . S
H3351 C3363 0.929 . S
H3352 C3366 0.930 . S
H3353 C3368 0.960 . S
H3354 C3368 0.960 . S
H3355 C3368 0.960 . S
C3356 H3348 0.929 . S
C3356 C3357 1.377 . S
C3356 C3358 1.384 . S
C3357 C3356 1.377 . S
C3357 C3363 1.390 . S
C3358 H3349 0.930 . S
C3358 C3356 1.384 . S
C3358 C3359 1.372 . S
C3359 C3358 1.372 . S
C3359 C3360 1.400 . S
C3359 C3364 1.490 . S
C3360 H3350 0.930 . S
C3360 C3359 1.400 . S
C3360 C3363 1.386 . S
H3361 C3377 0.930 . S
H3362 C3378 0.931 . S
C3363 H3351 0.929 . S
C3363 C3357 1.390 . S
C3363 C3360 1.386 . S
C3364 C3359 1.490 . S
C3364 C3366 1.395 . S
C3364 C3367 1.403 . S
H3365 C3371 0.930 . S
C3366 H3352 0.930 . S
C3366 C3364 1.395 . S
C3366 C3369 1.403 . S
C3367 C3364 1.403 . S
C3367 C3368 1.524 . S
C3367 C3371 1.400 . S
C3368 H3353 0.960 . S
C3368 H3354 0.960 . S
C3368 H3355 0.960 . S
C3368 C3367 1.524 . S
C3369 C3366 1.403 . S
C3369 C3370 1.392 . S
C3369 C3373 1.495 . S
C3370 C3369 1.392 . S
C3370 C3371 1.385 . S
C3370 C3372 1.478 . S
C3371 H3365 0.930 . S
C3371 C3367 1.400 . S
C3371 C3370 1.385 . S
C3372 C3370 1.478 . S
C3372 C3374 1.381 . S
C3372 C3378 1.383 . S
C3373 C3369 1.495 . S
C3373 H3379 0.959 . S
C3373 H3380 0.961 . S
C3373 H3381 0.960 . S
C3374 C3372 1.381 . S
C3374 C3375 1.394 . S
C3374 H3382 0.930 . S
C3375 C3374 1.394 . S
C3375 C3376 1.383 . S
C3375 H3383 0.929 . S
C3376 C3375 1.383 . S
C3376 C3377 1.377 . S
C3377 H3361 0.930 . S
C3377 C3376 1.377 . S
C3377 C3378 1.379 . S
C3378 H3362 0.931 . S
C3378 C3372 1.383 . S
C3378 C3377 1.379 . S
H3379 C3373 0.959 . S
H3380 C3373 0.961 . S
H3381 C3373 0.960 . S
H3382 C3374 0.930 . S
H3383 C3375 0.929 . S
H3384 C3392 0.929 . S
H3385 C3394 0.930 . S
H3386 C3396 0.930 . S
H3387 C3399 0.929 . S
H3388 C3402 0.930 . S
H3389 C3404 0.960 . S
H3390 C3404 0.960 . S
H3391 C3404 0.960 . S
C3392 H3384 0.929 . S
C3392 C3393 1.377 . S
C3392 C3394 1.384 . S
C3393 C3392 1.377 . S
C3393 C3399 1.390 . S
C3394 H3385 0.930 . S
C3394 C3392 1.384 . S
C3394 C3395 1.372 . S
C3395 C3394 1.372 . S
C3395 C3396 1.400 . S
C3395 C3400 1.490 . S
C3396 H3386 0.930 . S
C3396 C3395 1.400 . S
C3396 C3399 1.386 . S
H3397 C3413 0.930 . S
H3398 C3414 0.931 . S
C3399 H3387 0.929 . S
C3399 C3393 1.390 . S
C3399 C3396 1.386 . S
C3400 C3395 1.490 . S
C3400 C3402 1.395 . S
C3400 C3403 1.403 . S
H3401 C3407 0.930 . S
C3402 H3388 0.930 . S
C3402 C3400 1.395 . S
C3402 C3405 1.403 . S
C3403 C3400 1.403 . S
C3403 C3404 1.524 . S
C3403 C3407 1.400 . S
C3404 H3389 0.960 . S
C3404 H3390 0.960 . S
C3404 H3391 0.960 . S
C3404 C3403 1.524 . S
C3405 C3402 1.403 . S
C3405 C3406 1.392 . S
C3405 C3409 1.495 . S
C3406 C3405 1.392 . S
C3406 C3407 1.385 . S
C3406 C3408 1.478 . S
C3407 H3401 0.930 . S
C3407 C3403 1.400 . S
C3407 C3406 1.385 . S
C3408 C3406 1.478 . S
C3408 C3410 1.381 . S
C3408 C3414 1.383 . S
C3409 C3405 1.495 . S
C3409 H3415 0.959 . S
C3409 H3416 0.961 . S
C3409 H3417 0.960 . S
C3410 C3408 1.381 . S
C3410 C3411 1.394 . S
C3410 H3418 0.930 . S
C3411 C3410 1.394 . S
C3411 C3412 1.383 . S
C3411 H3419 0.929 . S
C3412 C3411 1.383 . S
C3412 C3413 1.377 . S
C3413 H3397 0.930 . S
C3413 C3412 1.377 . S
C3413 C3414 1.379 . S
C3414 H3398 0.931 . S
C3414 C3408 1.383 . S
C3414 C3413 1.379 . S
H3415 C3409 0.959 . S
H3416 C3409 0.961 . S
H3417 C3409 0.960 . S
H3418 C3410 0.930 . S
H3419 C3411 0.929 . S
H3420 C3428 0.929 . S
H3421 C3430 0.930 . S
H3422 C3432 0.930 . S
H3423 C3435 0.929 . S
H3424 C3438 0.930 . S
H3425 C3440 0.960 . S
H3426 C3440 0.960 . S
H3427 C3440 0.960 . S
C3428 H3420 0.929 . S
C3428 C3429 1.377 . S
C3428 C3430 1.384 . S
C3429 C3428 1.377 . S
C3429 C3435 1.390 . S
C3430 H3421 0.930 . S
C3430 C3428 1.384 . S
C3430 C3431 1.372 . S
C3431 C3430 1.372 . S
C3431 C3432 1.400 . S
C3431 C3436 1.490 . S
C3432 H3422 0.930 . S
C3432 C3431 1.400 . S
C3432 C3435 1.386 . S
H3433 C3449 0.930 . S
H3434 C3450 0.931 . S
C3435 H3423 0.929 . S
C3435 C3429 1.390 . S
C3435 C3432 1.386 . S
C3436 C3431 1.490 . S
C3436 C3438 1.395 . S
C3436 C3439 1.403 . S
H3437 C3443 0.930 . S
C3438 H3424 0.930 . S
C3438 C3436 1.395 . S
C3438 C3441 1.403 . S
C3439 C3436 1.403 . S
C3439 C3440 1.524 . S
C3439 C3443 1.400 . S
C3440 H3425 0.960 . S
C3440 H3426 0.960 . S
C3440 H3427 0.960 . S
C3440 C3439 1.524 . S
C3441 C3438 1.403 . S
C3441 C3442 1.392 . S
C3441 C3445 1.495 . S
C3442 C3441 1.392 . S
C3442 C3443 1.385 . S
C3442 C3444 1.478 . S
C3443 H3437 0.930 . S
C3443 C3439 1.400 . S
C3443 C3442 1.385 . S
C3444 C3442 1.478 . S
C3444 C3446 1.381 . S
C3444 C3450 1.383 . S
C3445 C3441 1.495 . S
C3445 H3451 0.959 . S
C3445 H3452 0.961 . S
C3445 H3453 0.960 . S
C3446 C3444 1.381 . S
C3446 C3447 1.394 . S
C3446 H3454 0.930 . S
C3447 C3446 1.394 . S
C3447 C3448 1.383 . S
C3447 H3455 0.929 . S
C3448 C3447 1.383 . S
C3448 C3449 1.377 . S
C3449 H3433 0.930 . S
C3449 C3448 1.377 . S
C3449 C3450 1.379 . S
C3450 H3434 0.931 . S
C3450 C3444 1.383 . S
C3450 C3449 1.379 . S
H3451 C3445 0.959 . S
H3452 C3445 0.961 . S
H3453 C3445 0.960 . S
H3454 C3446 0.930 . S
H3455 C3447 0.929 . S
H3456 C3464 0.929 . S
H3457 C3466 0.930 . S
H3458 C3468 0.930 . S
H3459 C3471 0.929 . S
H3460 C3474 0.930 . S
H3461 C3476 0.960 . S
H3462 C3476 0.960 . S
H3463 C3476 0.960 . S
C3464 H3456 0.929 . S
C3464 C3465 1.377 . S
C3464 C3466 1.384 . S
C3465 C3464 1.377 . S
C3465 C3471 1.390 . S
C3466 H3457 0.930 . S
C3466 C3464 1.384 . S
C3466 C3467 1.372 . S
C3467 C3466 1.372 . S
C3467 C3468 1.400 . S
C3467 C3472 1.490 . S
C3468 H3458 0.930 . S
C3468 C3467 1.400 . S
C3468 C3471 1.386 . S
H3469 C3485 0.930 . S
H3470 C3486 0.931 . S
C3471 H3459 0.929 . S
C3471 C3465 1.390 . S
C3471 C3468 1.386 . S
C3472 C3467 1.490 . S
C3472 C3474 1.395 . S
C3472 C3475 1.403 . S
H3473 C3479 0.930 . S
C3474 H3460 0.930 . S
C3474 C3472 1.395 . S
C3474 C3477 1.403 . S
C3475 C3472 1.403 . S
C3475 C3476 1.524 . S
C3475 C3479 1.400 . S
C3476 H3461 0.960 . S
C3476 H3462 0.960 . S
C3476 H3463 0.960 . S
C3476 C3475 1.524 . S
C3477 C3474 1.403 . S
C3477 C3478 1.392 . S
C3477 C3481 1.495 . S
C3478 C3477 1.392 . S
C3478 C3479 1.385 . S
C3478 C3480 1.478 . S
C3479 H3473 0.930 . S
C3479 C3475 1.400 . S
C3479 C3478 1.385 . S
C3480 C3478 1.478 . S
C3480 C3482 1.381 . S
C3480 C3486 1.383 . S
C3481 C3477 1.495 . S
C3481 H3487 0.959 . S
C3481 H3488 0.961 . S
C3481 H3489 0.960 . S
C3482 C3480 1.381 . S
C3482 C3483 1.394 . S
C3482 H3490 0.930 . S
C3483 C3482 1.394 . S
C3483 C3484 1.383 . S
C3483 H3491 0.929 . S
C3484 C3483 1.383 . S
C3484 C3485 1.377 . S
C3485 H3469 0.930 . S
C3485 C3484 1.377 . S
C3485 C3486 1.379 . S
C3486 H3470 0.931 . S
C3486 C3480 1.383 . S
C3486 C3485 1.379 . S
H3487 C3481 0.959 . S
H3488 C3481 0.961 . S
H3489 C3481 0.960 . S
H3490 C3482 0.930 . S
H3491 C3483 0.929 . S
H3492 C3500 0.929 . S
H3493 C3502 0.930 . S
H3494 C3504 0.930 . S
H3495 C3507 0.929 . S
H3496 C3510 0.930 . S
H3497 C3512 0.960 . S
H3498 C3512 0.960 . S
H3499 C3512 0.960 . S
C3500 H3492 0.929 . S
C3500 C3501 1.377 . S
C3500 C3502 1.384 . S
C3501 C3500 1.377 . S
C3501 C3507 1.390 . S
C3502 H3493 0.930 . S
C3502 C3500 1.384 . S
C3502 C3503 1.372 . S
C3503 C3502 1.372 . S
C3503 C3504 1.400 . S
C3503 C3508 1.490 . S
C3504 H3494 0.930 . S
C3504 C3503 1.400 . S
C3504 C3507 1.386 . S
H3505 C3521 0.930 . S
H3506 C3522 0.931 . S
C3507 H3495 0.929 . S
C3507 C3501 1.390 . S
C3507 C3504 1.386 . S
C3508 C3503 1.490 . S
C3508 C3510 1.395 . S
C3508 C3511 1.403 . S
H3509 C3515 0.930 . S
C3510 H3496 0.930 . S
C3510 C3508 1.395 . S
C3510 C3513 1.403 . S
C3511 C3508 1.403 . S
C3511 C3512 1.524 . S
C3511 C3515 1.400 . S
C3512 H3497 0.960 . S
C3512 H3498 0.960 . S
C3512 H3499 0.960 . S
C3512 C3511 1.524 . S
C3513 C3510 1.403 . S
C3513 C3514 1.392 . S
C3513 C3517 1.495 . S
C3514 C3513 1.392 . S
C3514 C3515 1.385 . S
C3514 C3516 1.478 . S
C3515 H3509 0.930 . S
C3515 C3511 1.400 . S
C3515 C3514 1.385 . S
C3516 C3514 1.478 . S
C3516 C3518 1.381 . S
C3516 C3522 1.383 . S
C3517 C3513 1.495 . S
C3517 H3523 0.959 . S
C3517 H3524 0.961 . S
C3517 H3525 0.960 . S
C3518 C3516 1.381 . S
C3518 C3519 1.394 . S
C3518 H3526 0.930 . S
C3519 C3518 1.394 . S
C3519 C3520 1.383 . S
C3519 H3527 0.929 . S
C3520 C3519 1.383 . S
C3520 C3521 1.377 . S
C3521 H3505 0.930 . S
C3521 C3520 1.377 . S
C3521 C3522 1.379 . S
C3522 H3506 0.931 . S
C3522 C3516 1.383 . S
C3522 C3521 1.379 . S
H3523 C3517 0.959 . S
H3524 C3517 0.961 . S
H3525 C3517 0.960 . S
H3526 C3518 0.930 . S
H3527 C3519 0.929 . S
H3528 C3536 0.929 . S
H3529 C3538 0.930 . S
H3530 C3540 0.930 . S
H3531 C3543 0.929 . S
H3532 C3546 0.930 . S
H3533 C3548 0.960 . S
H3534 C3548 0.960 . S
H3535 C3548 0.960 . S
C3536 H3528 0.929 . S
C3536 C3537 1.377 . S
C3536 C3538 1.384 . S
C3537 C3536 1.377 . S
C3537 C3543 1.390 . S
C3538 H3529 0.930 . S
C3538 C3536 1.384 . S
C3538 C3539 1.372 . S
C3539 C3538 1.372 . S
C3539 C3540 1.400 . S
C3539 C3544 1.490 . S
C3540 H3530 0.930 . S
C3540 C3539 1.400 . S
C3540 C3543 1.386 . S
H3541 C3557 0.930 . S
H3542 C3558 0.931 . S
C3543 H3531 0.929 . S
C3543 C3537 1.390 . S
C3543 C3540 1.386 . S
C3544 C3539 1.490 . S
C3544 C3546 1.395 . S
C3544 C3547 1.403 . S
H3545 C3551 0.930 . S
C3546 H3532 0.930 . S
C3546 C3544 1.395 . S
C3546 C3549 1.403 . S
C3547 C3544 1.403 . S
C3547 C3548 1.524 . S
C3547 C3551 1.400 . S
C3548 H3533 0.960 . S
C3548 H3534 0.960 . S
C3548 H3535 0.960 . S
C3548 C3547 1.524 . S
C3549 C3546 1.403 . S
C3549 C3550 1.392 . S
C3549 C3553 1.495 . S
C3550 C3549 1.392 . S
C3550 C3551 1.385 . S
C3550 C3552 1.478 . S
C3551 H3545 0.930 . S
C3551 C3547 1.400 . S
C3551 C3550 1.385 . S
C3552 C3550 1.478 . S
C3552 C3554 1.381 . S
C3552 C3558 1.383 . S
C3553 C3549 1.495 . S
C3553 H3559 0.959 . S
C3553 H3560 0.961 . S
C3553 H3561 0.960 . S
C3554 C3552 1.381 . S
C3554 C3555 1.394 . S
C3554 H3562 0.930 . S
C3555 C3554 1.394 . S
C3555 C3556 1.383 . S
C3555 H3563 0.929 . S
C3556 C3555 1.383 . S
C3556 C3557 1.377 . S
C3557 H3541 0.930 . S
C3557 C3556 1.377 . S
C3557 C3558 1.379 . S
C3558 H3542 0.931 . S
C3558 C3552 1.383 . S
C3558 C3557 1.379 . S
H3559 C3553 0.959 . S
H3560 C3553 0.961 . S
H3561 C3553 0.960 . S
H3562 C3554 0.930 . S
H3563 C3555 0.929 . S
H3564 C3572 0.929 . S
H3565 C3574 0.930 . S
H3566 C3576 0.930 . S
H3567 C3579 0.929 . S
H3568 C3582 0.930 . S
H3569 C3584 0.960 . S
H3570 C3584 0.960 . S
H3571 C3584 0.960 . S
C3572 H3564 0.929 . S
C3572 C3573 1.377 . S
C3572 C3574 1.384 . S
C3573 C3572 1.377 . S
C3573 C3579 1.390 . S
C3574 H3565 0.930 . S
C3574 C3572 1.384 . S
C3574 C3575 1.372 . S
C3575 C3574 1.372 . S
C3575 C3576 1.400 . S
C3575 C3580 1.490 . S
C3576 H3566 0.930 . S
C3576 C3575 1.400 . S
C3576 C3579 1.386 . S
H3577 C3593 0.930 . S
H3578 C3594 0.931 . S
C3579 H3567 0.929 . S
C3579 C3573 1.390 . S
C3579 C3576 1.386 . S
C3580 C3575 1.490 . S
C3580 C3582 1.395 . S
C3580 C3583 1.403 . S
H3581 C3587 0.930 . S
C3582 H3568 0.930 . S
C3582 C3580 1.395 . S
C3582 C3585 1.403 . S
C3583 C3580 1.403 . S
C3583 C3584 1.524 . S
C3583 C3587 1.400 . S
C3584 H3569 0.960 . S
C3584 H3570 0.960 . S
C3584 H3571 0.960 . S
C3584 C3583 1.524 . S
C3585 C3582 1.403 . S
C3585 C3586 1.392 . S
C3585 C3589 1.495 . S
C3586 C3585 1.392 . S
C3586 C3587 1.385 . S
C3586 C3588 1.478 . S
C3587 H3581 0.930 . S
C3587 C3583 1.400 . S
C3587 C3586 1.385 . S
C3588 C3586 1.478 . S
C3588 C3590 1.381 . S
C3588 C3594 1.383 . S
C3589 C3585 1.495 . S
C3589 H3595 0.959 . S
C3589 H3596 0.961 . S
C3589 H3597 0.960 . S
C3590 C3588 1.381 . S
C3590 C3591 1.394 . S
C3590 H3598 0.930 . S
C3591 C3590 1.394 . S
C3591 C3592 1.383 . S
C3591 H3599 0.929 . S
C3592 C3591 1.383 . S
C3592 C3593 1.377 . S
C3593 H3577 0.930 . S
C3593 C3592 1.377 . S
C3593 C3594 1.379 . S
C3594 H3578 0.931 . S
C3594 C3588 1.383 . S
C3594 C3593 1.379 . S
H3595 C3589 0.959 . S
H3596 C3589 0.961 . S
H3597 C3589 0.960 . S
H3598 C3590 0.930 . S
H3599 C3591 0.929 . S
H3600 C3608 0.929 . S
H3601 C3610 0.930 . S
H3602 C3612 0.930 . S
H3603 C3615 0.929 . S
H3604 C3618 0.930 . S
H3605 C3620 0.960 . S
H3606 C3620 0.960 . S
H3607 C3620 0.960 . S
C3608 H3600 0.929 . S
C3608 C3609 1.377 . S
C3608 C3610 1.384 . S
C3609 C3608 1.377 . S
C3609 C3615 1.390 . S
C3610 H3601 0.930 . S
C3610 C3608 1.384 . S
C3610 C3611 1.372 . S
C3611 C3610 1.372 . S
C3611 C3612 1.400 . S
C3611 C3616 1.490 . S
C3612 H3602 0.930 . S
C3612 C3611 1.400 . S
C3612 C3615 1.386 . S
H3613 C3629 0.930 . S
H3614 C3630 0.931 . S
C3615 H3603 0.929 . S
C3615 C3609 1.390 . S
C3615 C3612 1.386 . S
C3616 C3611 1.490 . S
C3616 C3618 1.395 . S
C3616 C3619 1.403 . S
H3617 C3623 0.930 . S
C3618 H3604 0.930 . S
C3618 C3616 1.395 . S
C3618 C3621 1.403 . S
C3619 C3616 1.403 . S
C3619 C3620 1.524 . S
C3619 C3623 1.400 . S
C3620 H3605 0.960 . S
C3620 H3606 0.960 . S
C3620 H3607 0.960 . S
C3620 C3619 1.524 . S
C3621 C3618 1.403 . S
C3621 C3622 1.392 . S
C3621 C3625 1.495 . S
C3622 C3621 1.392 . S
C3622 C3623 1.385 . S
C3622 C3624 1.478 . S
C3623 H3617 0.930 . S
C3623 C3619 1.400 . S
C3623 C3622 1.385 . S
C3624 C3622 1.478 . S
C3624 C3626 1.381 . S
C3624 C3630 1.383 . S
C3625 C3621 1.495 . S
C3625 H3631 0.959 . S
C3625 H3632 0.961 . S
C3625 H3633 0.960 . S
C3626 C3624 1.381 . S
C3626 C3627 1.394 . S
C3626 H3634 0.930 . S
C3627 C3626 1.394 . S
C3627 C3628 1.383 . S
C3627 H3635 0.929 . S
C3628 C3627 1.383 . S
C3628 C3629 1.377 . S
C3629 H3613 0.930 . S
C3629 C3628 1.377 . S
C3629 C3630 1.379 . S
C3630 H3614 0.931 . S
C3630 C3624 1.383 . S
C3630 C3629 1.379 . S
H3631 C3625 0.959 . S
H3632 C3625 0.961 . S
H3633 C3625 0.960 . S
H3634 C3626 0.930 . S
H3635 C3627 0.929 . S
H3636 C3644 0.929 . S
H3637 C3646 0.930 . S
H3638 C3648 0.930 . S
H3639 C3651 0.929 . S
H3640 C3654 0.930 . S
H3641 C3656 0.960 . S
H3642 C3656 0.960 . S
H3643 C3656 0.960 . S
C3644 H3636 0.929 . S
C3644 C3645 1.377 . S
C3644 C3646 1.384 . S
C3645 C3644 1.377 . S
C3645 C3651 1.390 . S
C3646 H3637 0.930 . S
C3646 C3644 1.384 . S
C3646 C3647 1.372 . S
C3647 C3646 1.372 . S
C3647 C3648 1.400 . S
C3647 C3652 1.490 . S
C3648 H3638 0.930 . S
C3648 C3647 1.400 . S
C3648 C3651 1.386 . S
H3649 C3665 0.930 . S
H3650 C3666 0.931 . S
C3651 H3639 0.929 . S
C3651 C3645 1.390 . S
C3651 C3648 1.386 . S
C3652 C3647 1.490 . S
C3652 C3654 1.395 . S
C3652 C3655 1.403 . S
H3653 C3659 0.930 . S
C3654 H3640 0.930 . S
C3654 C3652 1.395 . S
C3654 C3657 1.403 . S
C3655 C3652 1.403 . S
C3655 C3656 1.524 . S
C3655 C3659 1.400 . S
C3656 H3641 0.960 . S
C3656 H3642 0.960 . S
C3656 H3643 0.960 . S
C3656 C3655 1.524 . S
C3657 C3654 1.403 . S
C3657 C3658 1.392 . S
C3657 C3661 1.495 . S
C3658 C3657 1.392 . S
C3658 C3659 1.385 . S
C3658 C3660 1.478 . S
C3659 H3653 0.930 . S
C3659 C3655 1.400 . S
C3659 C3658 1.385 . S
C3660 C3658 1.478 . S
C3660 C3662 1.381 . S
C3660 C3666 1.383 . S
C3661 C3657 1.495 . S
C3661 H3667 0.959 . S
C3661 H3668 0.961 . S
C3661 H3669 0.960 . S
C3662 C3660 1.381 . S
C3662 C3663 1.394 . S
C3662 H3670 0.930 . S
C3663 C3662 1.394 . S
C3663 C3664 1.383 . S
C3663 H3671 0.929 . S
C3664 C3663 1.383 . S
C3664 C3665 1.377 . S
C3665 H3649 0.930 . S
C3665 C3664 1.377 . S
C3665 C3666 1.379 . S
C3666 H3650 0.931 . S
C3666 C3660 1.383 . S
C3666 C3665 1.379 . S
H3667 C3661 0.959 . S
H3668 C3661 0.961 . S
H3669 C3661 0.960 . S
H3670 C3662 0.930 . S
H3671 C3663 0.929 . S
H3672 C3680 0.929 . S
H3673 C3682 0.930 . S
H3674 C3684 0.930 . S
H3675 C3687 0.929 . S
H3676 C3690 0.930 . S
H3677 C3692 0.960 1_655 S
H3678 C3692 0.960 . S
H3679 C3692 0.960 . S
C3680 H3672 0.929 . S
C3680 C3681 1.377 . S
C3680 C3682 1.384 . S
C3681 C3680 1.377 . S
C3681 C3687 1.390 . S
C3682 H3673 0.930 . S
C3682 C3680 1.384 . S
C3682 C3683 1.372 . S
C3683 C3682 1.372 . S
C3683 C3684 1.400 . S
C3683 C3688 1.490 . S
C3684 H3674 0.930 . S
C3684 C3683 1.400 . S
C3684 C3687 1.386 . S
H3685 C3701 0.930 . S
H3686 C3702 0.931 . S
C3687 H3675 0.929 . S
C3687 C3681 1.390 . S
C3687 C3684 1.386 . S
C3688 C3683 1.490 . S
C3688 C3690 1.395 . S
C3688 C3691 1.403 . S
H3689 C3695 0.930 . S
C3690 H3676 0.930 . S
C3690 C3688 1.395 . S
C3690 C3693 1.403 1_455 S
C3691 C3688 1.403 . S
C3691 C3692 1.524 . S
C3691 C3695 1.400 1_455 S
C3692 H3677 0.960 1_455 S
C3692 H3678 0.960 . S
C3692 H3679 0.960 . S
C3692 C3691 1.524 . S
C3693 C3690 1.403 1_655 S
C3693 C3694 1.392 . S
C3693 C3697 1.495 . S
C3694 C3693 1.392 . S
C3694 C3695 1.385 . S
C3694 C3696 1.478 . S
C3695 H3689 0.930 . S
C3695 C3691 1.400 1_655 S
C3695 C3694 1.385 . S
C3696 C3694 1.478 . S
C3696 C3698 1.381 . S
C3696 C3702 1.383 . S
C3697 C3693 1.495 . S
C3697 H3703 0.959 1_655 S
C3697 H3704 0.961 . S
C3697 H3705 0.960 . S
C3698 C3696 1.381 . S
C3698 C3699 1.394 . S
C3698 H3706 0.930 . S
C3699 C3698 1.394 . S
C3699 C3700 1.383 . S
C3699 H3707 0.929 . S
C3700 C3699 1.383 . S
C3700 C3701 1.377 . S
C3701 H3685 0.930 . S
C3701 C3700 1.377 . S
C3701 C3702 1.379 . S
C3702 H3686 0.931 . S
C3702 C3696 1.383 . S
C3702 C3701 1.379 . S
H3703 C3697 0.959 1_455 S
H3704 C3697 0.961 . S
H3705 C3697 0.960 . S
H3706 C3698 0.930 . S
H3707 C3699 0.929 . S
H3708 C3716 0.929 . S
H3709 C3718 0.930 . S
H3710 C3720 0.930 . S
H3711 C3723 0.929 . S
H3712 C3726 0.930 . S
H3713 C3728 0.960 . S
H3714 C3728 0.960 . S
H3715 C3728 0.960 . S
C3716 H3708 0.929 . S
C3716 C3717 1.377 . S
C3716 C3718 1.384 . S
C3717 C3716 1.377 . S
C3717 C3723 1.390 . S
C3718 H3709 0.930 . S
C3718 C3716 1.384 . S
C3718 C3719 1.372 . S
C3719 C3718 1.372 . S
C3719 C3720 1.400 . S
C3719 C3724 1.490 . S
C3720 H3710 0.930 . S
C3720 C3719 1.400 . S
C3720 C3723 1.386 . S
H3721 C3737 0.930 . S
H3722 C3738 0.931 . S
C3723 H3711 0.929 . S
C3723 C3717 1.390 . S
C3723 C3720 1.386 . S
C3724 C3719 1.490 . S
C3724 C3726 1.395 . S
C3724 C3727 1.403 . S
H3725 C3731 0.930 . S
C3726 H3712 0.930 . S
C3726 C3724 1.395 . S
C3726 C3729 1.403 . S
C3727 C3724 1.403 . S
C3727 C3728 1.524 . S
C3727 C3731 1.400 . S
C3728 H3713 0.960 . S
C3728 H3714 0.960 . S
C3728 H3715 0.960 . S
C3728 C3727 1.524 . S
C3729 C3726 1.403 . S
C3729 C3730 1.392 . S
C3729 C3733 1.495 . S
C3730 C3729 1.392 . S
C3730 C3731 1.385 . S
C3730 C3732 1.478 . S
C3731 H3725 0.930 . S
C3731 C3727 1.400 . S
C3731 C3730 1.385 . S
C3732 C3730 1.478 . S
C3732 C3734 1.381 . S
C3732 C3738 1.383 . S
C3733 C3729 1.495 . S
C3733 H3739 0.959 . S
C3733 H3740 0.961 . S
C3733 H3741 0.960 . S
C3734 C3732 1.381 . S
C3734 C3735 1.394 . S
C3734 H3742 0.930 . S
C3735 C3734 1.394 . S
C3735 C3736 1.383 . S
C3735 H3743 0.929 . S
C3736 C3735 1.383 . S
C3736 C3737 1.377 . S
C3737 H3721 0.930 . S
C3737 C3736 1.377 . S
C3737 C3738 1.379 . S
C3738 H3722 0.931 . S
C3738 C3732 1.383 . S
C3738 C3737 1.379 . S
H3739 C3733 0.959 . S
H3740 C3733 0.961 . S
H3741 C3733 0.960 . S
H3742 C3734 0.930 . S
H3743 C3735 0.929 . S
H3744 C3752 0.929 . S
H3745 C3754 0.930 . S
H3746 C3756 0.930 . S
H3747 C3759 0.929 . S
H3748 C3762 0.930 . S
H3749 C3764 0.960 . S
H3750 C3764 0.960 . S
H3751 C3764 0.960 . S
C3752 H3744 0.929 . S
C3752 C3753 1.377 . S
C3752 C3754 1.384 . S
C3753 C3752 1.377 . S
C3753 C3759 1.390 . S
C3754 H3745 0.930 . S
C3754 C3752 1.384 . S
C3754 C3755 1.372 . S
C3755 C3754 1.372 . S
C3755 C3756 1.400 . S
C3755 C3760 1.490 . S
C3756 H3746 0.930 . S
C3756 C3755 1.400 . S
C3756 C3759 1.386 . S
H3757 C3773 0.930 . S
H3758 C3774 0.931 . S
C3759 H3747 0.929 . S
C3759 C3753 1.390 . S
C3759 C3756 1.386 . S
C3760 C3755 1.490 . S
C3760 C3762 1.395 . S
C3760 C3763 1.403 . S
H3761 C3767 0.930 . S
C3762 H3748 0.930 . S
C3762 C3760 1.395 . S
C3762 C3765 1.403 1_545 S
C3763 C3760 1.403 . S
C3763 C3764 1.524 . S
C3763 C3767 1.400 1_545 S
C3764 H3749 0.960 . S
C3764 H3750 0.960 . S
C3764 H3751 0.960 . S
C3764 C3763 1.524 . S
C3765 C3762 1.403 1_565 S
C3765 C3766 1.392 . S
C3765 C3769 1.495 . S
C3766 C3765 1.392 . S
C3766 C3767 1.385 . S
C3766 C3768 1.478 . S
C3767 H3761 0.930 . S
C3767 C3763 1.400 1_565 S
C3767 C3766 1.385 . S
C3768 C3766 1.478 . S
C3768 C3770 1.381 . S
C3768 C3774 1.383 . S
C3769 C3765 1.495 . S
C3769 H3775 0.956 . S
C3769 H3776 0.961 . S
C3769 H3777 0.960 . S
C3770 C3768 1.381 . S
C3770 C3771 1.394 . S
C3770 H3778 0.930 . S
C3771 C3770 1.394 . S
C3771 C3772 1.383 . S
C3771 H3779 0.929 . S
C3772 C3771 1.383 . S
C3772 C3773 1.377 . S
C3773 H3757 0.930 . S
C3773 C3772 1.377 . S
C3773 C3774 1.379 . S
C3774 H3758 0.931 . S
C3774 C3768 1.383 . S
C3774 C3773 1.379 . S
H3775 C3769 0.956 . S
H3776 C3769 0.961 . S
H3777 C3769 0.960 . S
H3778 C3770 0.930 . S
H3779 C3771 0.929 . S
H3780 C3788 0.929 . S
H3781 C3790 0.930 . S
H3782 C3792 0.930 . S
H3783 C3795 0.929 . S
H3784 C3798 0.930 . S
H3785 C3800 0.960 1_565 S
H3786 C3800 0.960 . S
H3787 C3800 0.960 . S
C3788 H3780 0.929 . S
C3788 C3789 1.377 . S
C3788 C3790 1.384 . S
C3789 C3788 1.377 . S
C3789 C3795 1.390 . S
C3790 H3781 0.930 . S
C3790 C3788 1.384 . S
C3790 C3791 1.372 . S
C3791 C3790 1.372 . S
C3791 C3792 1.400 . S
C3791 C3796 1.490 . S
C3792 H3782 0.930 . S
C3792 C3791 1.400 . S
C3792 C3795 1.386 . S
H3793 C3809 0.930 . S
H3794 C3810 0.931 . S
C3795 H3783 0.929 . S
C3795 C3789 1.390 . S
C3795 C3792 1.386 . S
C3796 C3791 1.490 . S
C3796 C3798 1.395 1_556 S
C3796 C3799 1.403 . S
H3797 C3803 0.930 . S
C3798 H3784 0.930 . S
C3798 C3796 1.395 1_554 S
C3798 C3801 1.410 1_545 S
C3799 C3796 1.403 . S
C3799 C3800 1.524 . S
C3799 C3803 1.400 1_545 S
C3800 H3785 0.960 1_545 S
C3800 H3786 0.960 . S
C3800 H3787 0.960 . S
C3800 C3799 1.524 . S
C3801 C3798 1.410 1_565 S
C3801 C3802 1.386 . S
C3801 C3805 1.495 . S
C3802 C3801 1.386 . S
C3802 C3803 1.385 1_554 S
C3802 C3804 1.478 . S
C3803 H3797 0.930 . S
C3803 C3799 1.400 1_565 S
C3803 C3802 1.385 1_556 S
C3804 C3802 1.478 . S
C3804 C3806 1.381 . S
C3804 C3810 1.383 . S
C3805 C3801 1.495 . S
C3805 H3811 0.935 1_565 S
C3805 H3812 0.969 . S
C3805 H3813 0.976 . S
C3806 C3804 1.381 . S
C3806 C3807 1.394 . S
C3806 H3814 0.930 . S
C3807 C3806 1.394 . S
C3807 C3808 1.383 . S
C3807 H3815 0.929 . S
C3808 C3807 1.383 . S
C3808 C3809 1.377 . S
C3809 H3793 0.930 . S
C3809 C3808 1.377 . S
C3809 C3810 1.379 . S
C3810 H3794 0.931 . S
C3810 C3804 1.383 . S
C3810 C3809 1.379 . S
H3811 C3805 0.935 1_545 S
H3812 C3805 0.969 . S
H3813 C3805 0.976 . S
H3814 C3806 0.930 . S
H3815 C3807 0.929 . S
H3816 C3824 0.929 . S
H3817 C3826 0.930 . S
H3818 C3828 0.930 1_554 S
H3819 C3831 0.929 . S
H3820 C3834 0.930 . S
H3821 C3836 0.955 1_455 S
H3822 C3836 0.961 . S
H3823 C3836 0.962 . S
C3824 H3816 0.929 . S
C3824 C3825 1.377 . S
C3824 C3826 1.384 . S
C3825 C3824 1.377 . S
C3825 C3831 1.390 . S
C3826 H3817 0.930 . S
C3826 C3824 1.384 . S
C3826 C3827 1.372 . S
C3827 C3826 1.372 . S
C3827 C3828 1.400 . S
C3827 C3832 1.490 . S
C3828 H3818 0.930 1_556 S
C3828 C3827 1.400 . S
C3828 C3831 1.386 . S
H3829 C3845 0.930 . S
H3830 C3846 0.931 . S
C3831 H3819 0.929 . S
C3831 C3825 1.390 . S
C3831 C3828 1.386 . S
C3832 C3827 1.490 . S
C3832 C3834 1.395 . S
C3832 C3835 1.470 . S
H3833 C3839 0.930 . S
C3834 H3820 0.930 . S
C3834 C3832 1.395 . S
C3834 C3837 1.405 1_656 S
C3835 C3832 1.470 . S
C3835 C3836 1.493 . S
C3835 C3839 1.367 1_656 S
C3836 H3821 0.955 1_655 S
C3836 H3822 0.961 . S
C3836 H3823 0.962 . S
C3836 C3835 1.493 . S
C3837 C3834 1.405 1_454 S
C3837 C3838 1.390 . S
C3837 C3841 1.495 1_455 S
C3838 C3837 1.390 . S
C3838 C3839 1.385 . S
C3838 C3840 1.478 . S
C3839 H3833 0.930 . S
C3839 C3835 1.367 1_454 S
C3839 C3838 1.385 . S
C3840 C3838 1.478 . S
C3840 C3842 1.381 . S
C3840 C3846 1.383 . S
C3841 C3837 1.495 1_655 S
C3841 H3847 0.962 . S
C3841 H3848 0.961 1_655 S
C3841 H3849 0.958 1_655 S
C3842 C3840 1.381 . S
C3842 C3843 1.394 . S
C3842 H3850 0.930 1_554 S
C3843 C3842 1.394 . S
C3843 C3844 1.383 . S
C3843 H3851 0.929 . S
C3844 C3843 1.383 . S
C3844 C3845 1.377 . S
C3845 H3829 0.930 . S
C3845 C3844 1.377 . S
C3845 C3846 1.379 . S
C3846 H3830 0.931 . S
C3846 C3840 1.383 . S
C3846 C3845 1.379 . S
H3847 C3841 0.962 . S
H3848 C3841 0.961 1_455 S
H3849 C3841 0.958 1_455 S
H3850 C3842 0.930 1_556 S
H3851 C3843 0.929 . S
H3852 C3860 0.929 . S
H3853 C3862 0.930 1_554 S
H3854 C3864 0.930 . S
H3855 C3867 0.929 . S
H3856 C3870 0.930 . S
H3857 C3872 0.960 . S
H3858 C3872 0.960 . S
H3859 C3872 0.960 . S
C3860 H3852 0.929 . S
C3860 C3861 1.377 . S
C3860 C3862 1.384 . S
C3861 C3860 1.377 . S
C3861 C3867 1.390 . S
C3862 H3853 0.930 1_556 S
C3862 C3860 1.384 . S
C3862 C3863 1.372 . S
C3863 C3862 1.372 . S
C3863 C3864 1.400 . S
C3863 C3868 1.490 . S
C3864 H3854 0.930 . S
C3864 C3863 1.400 . S
C3864 C3867 1.386 . S
H3865 C3881 0.930 . S
H3866 C3882 0.939 . S
C3867 H3855 0.929 . S
C3867 C3861 1.390 . S
C3867 C3864 1.386 . S
C3868 C3863 1.490 . S
C3868 C3870 1.395 1_556 S
C3868 C3871 1.403 . S
H3869 C3875 0.930 . S
C3870 H3856 0.930 . S
C3870 C3868 1.395 1_554 S
C3870 C3873 1.403 . S
C3871 C3868 1.403 . S
C3871 C3872 1.524 . S
C3871 C3875 1.400 . S
C3872 H3857 0.960 . S
C3872 H3858 0.960 . S
C3872 H3859 0.960 . S
C3872 C3871 1.524 . S
C3873 C3870 1.403 . S
C3873 C3874 1.392 . S
C3873 C3877 1.495 . S
C3874 C3873 1.392 . S
C3874 C3875 1.385 1_554 S
C3874 C3876 1.478 . S
C3875 H3869 0.930 . S
C3875 C3871 1.400 . S
C3875 C3874 1.385 1_556 S
C3876 C3874 1.478 . S
C3876 C3878 1.381 . S
C3876 C3882 1.383 . S
C3877 C3873 1.495 . S
C3877 H3883 0.959 . S
C3877 H3884 0.961 . S
C3877 H3885 0.960 . S
C3878 C3876 1.381 . S
C3878 C3879 1.394 . S
C3878 H3886 0.930 . S
C3879 C3878 1.394 . S
C3879 C3880 1.383 . S
C3879 H3887 0.929 . S
C3880 C3879 1.383 . S
C3880 C3881 1.377 . S
C3881 H3865 0.930 . S
C3881 C3880 1.377 . S
C3881 C3882 1.379 . S
C3882 H3866 0.939 . S
C3882 C3876 1.383 . S
C3882 C3881 1.379 . S
H3883 C3877 0.959 . S
H3884 C3877 0.961 . S
H3885 C3877 0.960 . S
H3886 C3878 0.930 . S
H3887 C3879 0.929 . S
C1305 C14 1.105 . S
C1324 C256 1.082 . S
C1341 C50 1.108 . S
C1360 C292 1.086 . S
C1377 C220 1.105 . S
C1396 C86 1.104 . S
C1413 C400 1.107 . S
C1432 C122 1.130 . S
C1449 C158 1.107 . S
C1468 C328 1.115 . S
C1485 C194 1.108 . S
C1504 C364 1.085 . S
C1521 C40 1.110 . S
C1540 C230 1.076 . S
C1557 C76 1.113 . S
C1576 C266 1.121 . S
C1593 C302 1.097 . S
C1612 C4 1.136 . S
C1629 C338 1.098 . S
C1648 C184 1.137 . S
C1665 C112 1.117 . S
C1684 C374 1.078 . S
C1701 C410 1.109 . S
C1720 C148 1.097 . S
C1737 C688 1.115 . S
C1756 C446 1.113 . S
C1773 C482 1.096 . S
C1792 C724 1.111 . S
C1809 C518 1.097 . S
C1828 C652 1.102 . S
C1845 C832 1.106 . S
C1864 C554 1.118 . S
C1881 C590 1.105 . S
C1900 C760 1.081 . S
C1917 C796 1.110 . S
C1936 C626 1.075 . S
C1953 C472 1.108 . S
C1972 C662 1.089 . S
C1989 C698 1.103 . S
C2008 C508 1.132 . S
C2025 C436 1.114 . S
C2044 C734 1.115 . S
C2061 C770 1.099 . S
C2080 C616 1.093 . S
C2097 C806 1.108 . S
C2116 C544 1.111 . S
C2133 C842 1.103 . S
C2152 C580 1.131 . S
C2169 C1120 1.106 . S
C2188 C878 1.106 . S
C2205 C1156 1.116 . S
C2224 C914 1.105 . S
C2241 C1084 1.115 . S
C2260 C950 1.068 . S
C2277 C986 1.097 . S
C2296 C1264 1.100 . S
C2313 C1022 1.109 . S
C2332 C1192 1.099 . S
C2349 C1228 1.109 . S
C2368 C1058 1.080 . S
C2385 C1094 1.102 . S
C2404 C904 1.132 . S
C2421 C940 1.117 . S
C2440 C1130 1.089 . S
C2457 C868 1.111 . S
C2476 C1166 1.129 . S
C2493 C1202 1.096 . S
C2512 C1048 1.132 . S
C2529 C1238 1.095 . S
C2548 C976 1.120 . S
C2565 C1274 1.109 . S
C2584 C1012 1.092 . S
C2601 C110 1.317 . S
C2620 C2 1.286 . S
C2637 C146 1.316 . S
C2656 C38 1.290 . S
C2673 C74 1.313 . S
C2692 C182 1.319 . S
C2709 C326 1.313 . S
C2728 C218 1.326 . S
C2745 C362 1.309 . S
C2764 C254 1.302 . S
C2781 C398 1.309 . S
C2800 C290 1.286 . S
C2817 C542 1.308 . S
C2836 C434 1.328 . S
C2853 C578 1.318 . S
C2872 C470 1.294 . S
C2889 C506 1.314 . S
C2908 C614 1.299 . S
C2925 C758 1.315 . S
C2944 C650 1.306 . S
C2961 C794 1.318 . S
C2980 C686 1.332 . S
C2997 C830 1.311 . S
C3016 C722 1.289 . S
C3033 C974 1.309 . S
C3052 C866 1.318 . S
C3069 C902 1.313 . S
C3088 C1010 1.303 . S
C3105 C1046 1.309 . S
C3124 C938 1.329 . S
C3141 C1082 1.317 . S
C3160 C1190 1.334 . S
C3177 C1118 1.318 . S
C3196 C1226 1.319 . S
C3213 C1154 1.318 . S
C3232 C1262 1.325 . S
C3249 C3 1.384 . S
C3268 C651 1.375 . S
C3285 C687 1.381 . S
C3304 C39 1.378 . S
C3321 C723 1.382 . S
C3340 C75 1.385 . S
C3357 C1191 1.381 . S
C3376 C111 1.373 . S
C3393 C1227 1.382 . S
C3412 C147 1.384 . S
C3429 C1263 1.382 . S
C3448 C183 1.372 . S
C3465 C219 1.382 . S
C3484 C867 1.383 . S
C3501 C903 1.382 . S
C3520 C255 1.387 . S
C3537 C939 1.384 . S
C3556 C291 1.389 . S
C3573 C327 1.384 . S
C3592 C543 1.388 . S
C3609 C363 1.382 . S
C3628 C579 1.371 . S
C3645 C399 1.383 . S
C3664 C615 1.373 . S
C3681 C1083 1.381 . S
C3700 C435 1.380 . S
C3717 C1119 1.381 . S
C3736 C471 1.375 . S
C3753 C507 1.382 . S
C3772 C1155 1.384 . S
C3789 C759 1.382 . S
C3808 C975 1.384 . S
C3825 C795 1.384 . S
C3844 C1011 1.388 . S
C3861 C831 1.381 . S
C3880 C1047 1.379 . S
