# Generated by pormake.
# Topology qtz-e, (6)-cn, num edge types: 1
# Building blocks:
#     Node 0, Type 0, BuildingBlock: BETGAK_clean_sbu_0, # of connection points: 6
#     Node 1, Type 0, BuildingBlock: BETGAK_clean_sbu_0, # of connection points: 6
#     Node 2, Type 0, BuildingBlock: BETGAK_clean_sbu_0, # of connection points: 6
#     Node 3, Type 0, BuildingBlock: BETGAK_clean_sbu_0, # of connection points: 6
#     Node 4, Type 0, BuildingBlock: BETGAK_clean_sbu_0, # of connection points: 6
#     Node 5, Type 0, BuildingBlock: BETGAK_clean_sbu_0, # of connection points: 6
#     Edge 6, Type (0, 0), BuildingBlock: UVAHIK_clean_linker_0, # of connection points: 2
#     Edge 7, Type (0, 0), BuildingBlock: UVAHIK_clean_linker_0, # of connection points: 2
#     Edge 8, Type (0, 0), BuildingBlock: UVAHIK_clean_linker_0, # of connection points: 2
#     Edge 9, Type (0, 0), BuildingBlock: UVAHIK_clean_linker_0, # of connection points: 2
#     Edge 10, Type (0, 0), BuildingBlock: UVAHIK_clean_linker_0, # of connection points: 2
#     Edge 11, Type (0, 0), BuildingBlock: UVAHIK_clean_linker_0, # of connection points: 2
#     Edge 12, Type (0, 0), BuildingBlock: UVAHIK_clean_linker_0, # of connection points: 2
#     Edge 13, Type (0, 0), BuildingBlock: UVAHIK_clean_linker_0, # of connection points: 2
#     Edge 14, Type (0, 0), BuildingBlock: UVAHIK_clean_linker_0, # of connection points: 2
#     Edge 15, Type (0, 0), BuildingBlock: UVAHIK_clean_linker_0, # of connection points: 2
#     Edge 16, Type (0, 0), BuildingBlock: UVAHIK_clean_linker_0, # of connection points: 2
#     Edge 17, Type (0, 0), BuildingBlock: UVAHIK_clean_linker_0, # of connection points: 2
#     Edge 18, Type (0, 0), BuildingBlock: UVAHIK_clean_linker_0, # of connection points: 2
#     Edge 19, Type (0, 0), BuildingBlock: UVAHIK_clean_linker_0, # of connection points: 2
#     Edge 20, Type (0, 0), BuildingBlock: UVAHIK_clean_linker_0, # of connection points: 2
#     Edge 21, Type (0, 0), BuildingBlock: UVAHIK_clean_linker_0, # of connection points: 2
#     Edge 22, Type (0, 0), BuildingBlock: UVAHIK_clean_linker_0, # of connection points: 2
#     Edge 23, Type (0, 0), BuildingBlock: UVAHIK_clean_linker_0, # of connection points: 2
# Relax obj value: 0.168
# Max RMSD: 0.200
# Mean RMSD: 0.200
data_MOF--net-qtz-e--node1-BETGAK_clean_sbu_0--edge1-UVAHIK_clean_linker_0
_symmetry_space_group_name_H-M    P1
_symmetry_Int_Tables_number       1
_symmetry_cell_setting            triclinic
loop_
_symmetry_equiv_pos_as_xyz
'x, y, z'
_cell_length_a     32.621002
_cell_length_b     32.702517
_cell_length_c     63.288621
_cell_angle_alpha  89.926498
_cell_angle_beta   89.911456
_cell_angle_gamma 119.55808
loop_
_atom_site_label
_atom_site_type_symbol
_atom_site_fract_x
_atom_site_fract_y
_atom_site_fract_z
_atom_type_partial_charge
La0 La 0.19484 0.45139 0.15851 0.0
La1 La 0.13887 0.35897 0.1346 0.0
C2 C 0.22633 0.53178 0.1744 0.0
C3 C 0.231 0.54986 0.19601 0.0
C4 C 0.2273 0.52183 0.21351 0.0
C5 C 0.2277 0.53796 0.23402 0.0
C6 C 0.23126 0.58215 0.23731 0.0
C7 C 0.23567 0.6103 0.21968 0.0
C8 C 0.23555 0.59427 0.19922 0.0
C9 C 0.22644 0.39102 0.16242 0.0
C10 C 0.11924 0.36125 0.18254 0.0
C11 C 0.11276 0.2891 0.11064 0.0
C12 C 0.12944 0.28051 0.09031 0.0
C13 C 0.09622 0.25224 0.07515 0.0
C14 C 0.11075 0.24662 0.05508 0.0
C15 C 0.15889 0.26893 0.04982 0.0
C16 C 0.19223 0.2967 0.06514 0.0
C17 C 0.17761 0.30278 0.08515 0.0
C18 C 0.09698 0.40947 0.14093 0.0
C19 C 0.21743 0.44923 0.11004 0.0
O20 O 0.25302 0.51364 0.16934 0.0
O21 O 0.18281 0.50591 0.16793 0.0
O22 O 0.22809 0.41935 0.17718 0.0
O23 O 0.20871 0.39878 0.14635 0.0
O24 O 0.1394 0.40756 0.18078 0.0
O25 O 0.12156 0.33476 0.16726 0.0
O26 O 0.09624 0.31826 0.10963 0.0
O27 O 0.13943 0.29649 0.12732 0.0
O28 O 0.07478 0.36398 0.14 0.0
O29 O 0.13931 0.42395 0.13651 0.0
O30 O 0.18663 0.40366 0.10985 0.0
O31 O 0.22554 0.47541 0.12715 0.0
H32 H 0.22307 0.4871 0.2113 0.0
H33 H 0.22375 0.51528 0.24727 0.0
H34 H 0.23899 0.64469 0.22172 0.0
H35 H 0.2381 0.61619 0.18587 0.0
H36 H 0.05888 0.23511 0.07872 0.0
H37 H 0.08429 0.22473 0.04366 0.0
H38 H 0.22952 0.31475 0.06145 0.0
H39 H 0.20391 0.32564 0.09637 0.0
La40 La 0.80271 0.26007 0.40482 0.0
La41 La 0.84961 0.20915 0.42551 0.0
C42 C 0.7789 0.31697 0.39052 0.0
C43 C 0.77248 0.32931 0.3689 0.0
C44 C 0.76508 0.29853 0.35206 0.0
C45 C 0.76268 0.31194 0.33131 0.0
C46 C 0.76822 0.3566 0.32702 0.0
C47 C 0.77528 0.38717 0.34398 0.0
C48 C 0.77733 0.37358 0.36475 0.0
C49 C 0.75996 0.16782 0.39904 0.0
C50 C 0.86852 0.23587 0.37773 0.0
C51 C 0.8666 0.15302 0.446 0.0
C52 C 0.84958 0.12603 0.46582 0.0
C53 C 0.8776 0.11061 0.47599 0.0
C54 C 0.86498 0.08954 0.49594 0.0
C55 C 0.8242 0.08385 0.50627 0.0
C56 C 0.79539 0.09817 0.49568 0.0
C57 C 0.80793 0.11896 0.47562 0.0
C58 C 0.90223 0.30144 0.42144 0.0
C59 C 0.78425 0.2356 0.45348 0.0
O60 O 0.74856 0.27439 0.39699 0.0
O61 O 0.82243 0.32875 0.39534 0.0
O62 O 0.76156 0.19783 0.38519 0.0
O63 O 0.78069 0.19043 0.41529 0.0
O64 O 0.85398 0.2665 0.3813 0.0
O65 O 0.86365 0.20408 0.39204 0.0
O66 O 0.88999 0.19869 0.44832 0.0
O67 O 0.83693 0.14012 0.43014 0.0
O68 O 0.91855 0.27243 0.42094 0.0
O69 O 0.85927 0.27823 0.4258 0.0
O70 O 0.8097 0.21422 0.45218 0.0
O71 O 0.77781 0.25709 0.43711 0.0
H72 H 0.76206 0.26448 0.35491 0.0
H73 H 0.75783 0.28787 0.31858 0.0
H74 H 0.77928 0.42163 0.34118 0.0
H75 H 0.78351 0.39794 0.37753 0.0
H76 H 0.90989 0.11578 0.46869 0.0
H77 H 0.88751 0.0781 0.50336 0.0
H78 H 0.76397 0.09475 0.50316 0.0
H79 H 0.78571 0.13053 0.46802 0.0
La80 La 0.53618 0.73403 0.82391 0.0
La81 La 0.6336 0.78678 0.80335 0.0
C82 C 0.46348 0.67038 0.84177 0.0
C83 C 0.4488 0.65506 0.86366 0.0
C84 C 0.40084 0.62715 0.86842 0.0
C85 C 0.38619 0.61367 0.88929 0.0
C86 C 0.41937 0.62794 0.90575 0.0
C87 C 0.4675 0.65574 0.90085 0.0
C88 C 0.48204 0.66925 0.88 0.0
C89 C 0.57588 0.82496 0.8271 0.0
C90 C 0.62947 0.75405 0.85005 0.0
C91 C 0.70592 0.8455 0.78331 0.0
C92 C 0.7153 0.86701 0.76199 0.0
C93 C 0.75089 0.86714 0.74947 0.0
C94 C 0.75907 0.88534 0.7289 0.0
C95 C 0.73162 0.90363 0.72036 0.0
C96 C 0.69623 0.90383 0.73301 0.0
C97 C 0.68835 0.88596 0.75363 0.0
C98 C 0.58742 0.69439 0.79928 0.0
C99 C 0.54136 0.77042 0.77787 0.0
O100 O 0.46923 0.7118 0.83689 0.0
O101 O 0.49745 0.66405 0.83428 0.0
O102 O 0.53076 0.79692 0.82746 0.0
O103 O 0.59744 0.80177 0.82759 0.0
O104 O 0.58286 0.73266 0.84862 0.0
O105 O 0.65765 0.78067 0.83468 0.0
O106 O 0.69123 0.80039 0.78386 0.0
O107 O 0.68287 0.85733 0.79668 0.0
O108 O 0.63292 0.71917 0.80074 0.0
O109 O 0.57098 0.72172 0.79876 0.0
O110 O 0.58774 0.79522 0.78034 0.0
O111 O 0.51404 0.73824 0.79187 0.0
H112 H 0.37468 0.61595 0.85601 0.0
H113 H 0.34891 0.59175 0.8925 0.0
H114 H 0.49391 0.66779 0.91317 0.0
H115 H 0.51915 0.69104 0.87669 0.0
H116 H 0.77209 0.85264 0.75553 0.0
H117 H 0.7863 0.8842 0.71953 0.0
H118 H 0.67485 0.91819 0.72704 0.0
H119 H 0.66098 0.88677 0.76293 0.0
La120 La 0.73361 0.52697 0.07153 0.0
La121 La 0.77413 0.6213 0.09444 0.0
C122 C 0.67814 0.45505 0.05093 0.0
C123 C 0.66382 0.4438 0.02858 0.0
C124 C 0.68143 0.41999 0.01638 0.0
C125 C 0.66741 0.40823 0.99539 0.0
C126 C 0.63509 0.41959 0.98622 0.0
C127 C 0.61751 0.44348 0.9984 0.0
C128 C 0.63172 0.45548 0.01936 0.0
C129 C 0.82527 0.57316 0.0731 0.0
C130 C 0.74937 0.6196 0.04652 0.0
C131 C 0.8224 0.69453 0.11625 0.0
C132 C 0.84931 0.70648 0.13614 0.0
C133 C 0.86583 0.75098 0.14519 0.0
C134 C 0.88832 0.76146 0.16488 0.0
C135 C 0.89447 0.72744 0.17592 0.0
C136 C 0.87866 0.68321 0.16652 0.0
C137 C 0.85631 0.67296 0.14687 0.0
C138 C 0.68161 0.56892 0.09354 0.0
C139 C 0.76169 0.52877 0.11837 0.0
O140 O 0.72154 0.46594 0.05549 0.0
O141 O 0.66507 0.48205 0.06076 0.0
O142 O 0.80033 0.52784 0.07147 0.0
O143 O 0.7993 0.59163 0.07134 0.0
O144 O 0.7327 0.57353 0.04683 0.0
O145 O 0.76984 0.64679 0.0631 0.0
O146 O 0.77688 0.66724 0.11822 0.0
O147 O 0.83934 0.68198 0.1003 0.0
O148 O 0.70354 0.61448 0.0928 0.0
O149 O 0.71123 0.55557 0.09582 0.0
O150 O 0.78483 0.57536 0.11679 0.0
O151 O 0.73276 0.50194 0.10337 0.0
H152 H 0.70579 0.41008 0.02312 0.0
H153 H 0.68104 0.38924 0.98649 0.0
H154 H 0.59284 0.45301 0.9917 0.0
H155 H 0.61729 0.47367 0.02832 0.0
H156 H 0.8605 0.77733 0.13722 0.0
H157 H 0.89963 0.79571 0.17173 0.0
H158 H 0.88339 0.65639 0.17437 0.0
H159 H 0.84388 0.63863 0.14021 0.0
La160 La 0.26076 0.79664 0.48932 0.0
La161 La 0.203 0.83749 0.46984 0.0
C162 C 0.32671 0.79049 0.50689 0.0
C163 C 0.34225 0.79318 0.52887 0.0
C164 C 0.31298 0.79051 0.54572 0.0
C165 C 0.32761 0.79191 0.5666 0.0
C166 C 0.37187 0.79625 0.57096 0.0
C167 C 0.40127 0.79956 0.55397 0.0
C168 C 0.38652 0.79798 0.53311 0.0
C169 C 0.17004 0.74372 0.49402 0.0
C170 C 0.2386 0.86773 0.5159 0.0
C171 C 0.14132 0.84875 0.45086 0.0
C172 C 0.12023 0.83765 0.42952 0.0
C173 C 0.11665 0.8724 0.41798 0.0
C174 C 0.09874 0.86347 0.3974 0.0
C175 C 0.08405 0.81952 0.38789 0.0
C176 C 0.08732 0.7846 0.39958 0.0
C177 C 0.10512 0.79354 0.42018 0.0
C178 C 0.29517 0.88632 0.46493 0.0
C179 C 0.22384 0.7652 0.44348 0.0
O180 O 0.28573 0.75419 0.50237 0.0
O181 O 0.33161 0.8296 0.49885 0.0
O182 O 0.19944 0.72796 0.49373 0.0
O183 O 0.19195 0.78805 0.49419 0.0
O184 O 0.26387 0.8464 0.51333 0.0
O185 O 0.2076 0.86488 0.50164 0.0
O186 O 0.18586 0.8808 0.45167 0.0
O187 O 0.13148 0.81328 0.46349 0.0
O188 O 0.26886 0.90553 0.46711 0.0
O189 O 0.26947 0.84274 0.46431 0.0
O190 O 0.19722 0.78511 0.44629 0.0
O191 O 0.25672 0.77085 0.45729 0.0
H192 H 0.27872 0.78705 0.54272 0.0
H193 H 0.30443 0.78986 0.57932 0.0
H194 H 0.43532 0.80242 0.5568 0.0
H195 H 0.40952 0.80009 0.52028 0.0
H196 H 0.12828 0.90675 0.42481 0.0
H197 H 0.09728 0.89136 0.38879 0.0
H198 H 0.07579 0.75018 0.39287 0.0
H199 H 0.10731 0.76599 0.42868 0.0
La200 La 0.45313 0.19514 0.73525 0.0
La201 La 0.35775 0.14757 0.75718 0.0
C202 C 0.53451 0.22194 0.72103 0.0
C203 C 0.5544 0.2281 0.6997 0.0
C204 C 0.60231 0.24282 0.69708 0.0
C205 C 0.62103 0.24633 0.67684 0.0
C206 C 0.59203 0.23509 0.65889 0.0
C207 C 0.54406 0.22106 0.66163 0.0
C208 C 0.52538 0.21752 0.68188 0.0
C209 C 0.39975 0.2342 0.7284 0.0
C210 C 0.36336 0.12331 0.71022 0.0
C211 C 0.2864 0.1288 0.77936 0.0
C212 C 0.27823 0.14531 0.79992 0.0
C213 C 0.26309 0.11432 0.81723 0.0
C214 C 0.25752 0.12925 0.83715 0.0
C215 C 0.26633 0.17541 0.84022 0.0
C216 C 0.28044 0.20627 0.82283 0.0
C217 C 0.28661 0.19146 0.80286 0.0
C218 C 0.40235 0.09845 0.7547 0.0
C219 C 0.4484 0.2199 0.78315 0.0
O220 O 0.51929 0.25085 0.72639 0.0
O221 O 0.50488 0.17833 0.72637 0.0
O222 O 0.42747 0.2313 0.71449 0.0
O223 O 0.40379 0.21592 0.74515 0.0
O224 O 0.40895 0.13973 0.71331 0.0
O225 O 0.33675 0.12973 0.7242 0.0
O226 O 0.30964 0.10576 0.78046 0.0
O227 O 0.29988 0.15783 0.76319 0.0
O228 O 0.35694 0.08022 0.75421 0.0
O229 O 0.41974 0.14154 0.75804 0.0
O230 O 0.40201 0.19294 0.78254 0.0
O231 O 0.47571 0.22456 0.76678 0.0
H232 H 0.62515 0.25111 0.71069 0.0
H233 H 0.65823 0.25786 0.67525 0.0
H234 H 0.52068 0.21164 0.64817 0.0
H235 H 0.48816 0.20581 0.68368 0.0
H236 H 0.25606 0.07849 0.81541 0.0
H237 H 0.24595 0.10448 0.85018 0.0
H238 H 0.28761 0.24211 0.82477 0.0
H239 H 0.29838 0.21627 0.78986 0.0
C240 C 0.24828 0.7198 0.41954 0.0
C241 C 0.22031 0.7408 0.42328 0.0
C242 C 0.24731 0.69971 0.39991 0.0
C243 C 0.2207 0.70702 0.34405 0.0
H244 H 0.2218 0.5895 0.33852 0.0
C245 C 0.20116 0.61936 0.26308 0.0
C246 C 0.22891 0.59833 0.25898 0.0
C247 C 0.19891 0.63488 0.28337 0.0
C248 C 0.22206 0.62264 0.33979 0.0
H249 H 0.16846 0.75594 0.40939 0.0
H250 H 0.16655 0.72073 0.37533 0.0
H251 H 0.21933 0.61915 0.37363 0.0
H252 H 0.2761 0.57707 0.27298 0.0
H253 H 0.27279 0.60483 0.30842 0.0
H254 H 0.22411 0.71108 0.31034 0.0
C255 C 0.18966 0.72028 0.38749 0.0
C256 C 0.22054 0.63956 0.35991 0.0
C257 C 0.19051 0.74018 0.40711 0.0
C258 C 0.2541 0.5928 0.2757 0.0
C259 C 0.25207 0.6086 0.29601 0.0
C260 C 0.22245 0.69027 0.32398 0.0
C261 C 0.2185 0.70036 0.38356 0.0
C262 C 0.21971 0.68188 0.36226 0.0
C263 C 0.22458 0.63002 0.30008 0.0
C264 C 0.22301 0.6478 0.32156 0.0
H265 H 0.27163 0.71959 0.43164 0.0
H266 H 0.2702 0.68494 0.39734 0.0
H267 H 0.221 0.74019 0.34533 0.0
H268 H 0.18062 0.62329 0.25062 0.0
H269 H 0.1766 0.65029 0.286 0.0
C270 C 0.59852 0.25486 0.62014 0.0
C271 C 0.61154 0.2368 0.63746 0.0
C272 C 0.6168 0.25607 0.59999 0.0
C273 C 0.71561 0.25231 0.57295 0.0
H274 H 0.63483 0.21871 0.52371 0.0
C275 C 0.77299 0.21718 0.49218 0.0
C276 C 0.76311 0.23601 0.47417 0.0
C277 C 0.75397 0.21821 0.51181 0.0
C278 C 0.65795 0.22869 0.53728 0.0
H279 H 0.65312 0.2048 0.64704 0.0
H280 H 0.68483 0.20677 0.61199 0.0
H281 H 0.60275 0.21906 0.55856 0.0
H282 H 0.72494 0.27028 0.4627 0.0
H283 H 0.69187 0.27223 0.49709 0.0
H284 H 0.77068 0.26154 0.55175 0.0
C285 C 0.66126 0.22093 0.61402 0.0
C286 C 0.6396 0.22894 0.55725 0.0
C287 C 0.64307 0.21979 0.63414 0.0
C288 C 0.73333 0.25551 0.47624 0.0
C289 C 0.71416 0.2564 0.49592 0.0
C290 C 0.73389 0.25195 0.55303 0.0
C291 C 0.64847 0.23918 0.59671 0.0
C292 C 0.66814 0.2404 0.57535 0.0
C293 C 0.72454 0.23804 0.51395 0.0
C294 C 0.70521 0.23978 0.53499 0.0
H295 H 0.57469 0.2687 0.62222 0.0
H296 H 0.60666 0.27089 0.58705 0.0
H297 H 0.73884 0.26224 0.58648 0.0
H298 H 0.79575 0.20187 0.49122 0.0
H299 H 0.7621 0.20314 0.52532 0.0
C300 C 0.2373 0.44293 0.07244 0.0
C301 C 0.24366 0.471 0.09029 0.0
C302 C 0.26121 0.46297 0.05364 0.0
C303 C 0.31856 0.57431 0.02424 0.0
H304 H 0.36668 0.50886 0.99005 0.0
C305 C 0.36394 0.61492 0.93583 0.0
C306 C 0.40378 0.61399 0.92795 0.0
C307 C 0.34872 0.60101 0.95658 0.0
C308 C 0.35395 0.5279 0.99949 0.0
H309 H 0.28064 0.54229 0.10238 0.0
H310 H 0.32256 0.57736 0.06941 0.0
H311 H 0.33363 0.47827 0.02485 0.0
H312 H 0.45905 0.59796 0.93576 0.0
H313 H 0.43279 0.57417 0.97208 0.0
H314 H 0.33892 0.62397 0.99885 0.0
C315 C 0.2987 0.5398 0.07002 0.0
C316 C 0.33454 0.51009 0.01935 0.0
C317 C 0.27484 0.51966 0.08892 0.0
C318 C 0.42841 0.59938 0.94139 0.0
C319 C 0.41311 0.58534 0.96213 0.0
C320 C 0.33789 0.5921 1.00435 0.0
C321 C 0.29205 0.51163 0.05216 0.0
C322 C 0.31602 0.5327 0.03182 0.0
C323 C 0.37293 0.58575 0.96993 0.0
C324 C 0.35525 0.56875 0.99164 0.0
H325 H 0.21354 0.40534 0.07286 0.0
H326 H 0.25472 0.44037 0.0401 0.0
H327 H 0.30431 0.59239 0.03341 0.0
H328 H 0.34455 0.62657 0.92597 0.0
H329 H 0.31736 0.60127 0.96202 0.0
C330 C 0.73402 0.34103 0.29042 0.0
C331 C 0.76788 0.37169 0.30489 0.0
C332 C 0.73396 0.35528 0.26957 0.0
C333 C 0.81014 0.44028 0.22914 0.0
H334 H 0.69236 0.41693 0.20387 0.0
C335 C 0.80301 0.53142 0.15213 0.0
C336 C 0.76524 0.50664 0.1382 0.0
C337 C 0.8043 0.51216 0.17168 0.0
C338 C 0.72549 0.42306 0.21051 0.0
H339 H 0.82873 0.44099 0.30872 0.0
H340 H 0.82852 0.46592 0.27236 0.0
H341 H 0.69241 0.38861 0.23949 0.0
H342 H 0.70032 0.441 0.13341 0.0
H343 H 0.70311 0.4068 0.16727 0.0
H344 H 0.84329 0.47461 0.20019 0.0
C345 C 0.80207 0.43085 0.27713 0.0
C346 C 0.72549 0.40691 0.23098 0.0
C347 C 0.80187 0.41676 0.29801 0.0
C348 C 0.72981 0.46119 0.14384 0.0
C349 C 0.73116 0.44178 0.16336 0.0
C350 C 0.81012 0.45616 0.20861 0.0
C351 C 0.76805 0.40032 0.26268 0.0
C352 C 0.76786 0.41575 0.2406 0.0
C353 C 0.76801 0.46735 0.1777 0.0
C354 C 0.76785 0.44817 0.1991 0.0
H355 H 0.70722 0.30618 0.29529 0.0
H356 H 0.70749 0.33086 0.25877 0.0
H357 H 0.84327 0.447 0.23602 0.0
H358 H 0.83158 0.56584 0.14803 0.0
H359 H 0.83316 0.53304 0.18229 0.0
C360 C 0.54944 0.81121 0.74338 0.0
C361 C 0.52088 0.776 0.7579 0.0
C362 C 0.53161 0.8149 0.72388 0.0
C363 C 0.42178 0.78051 0.69432 0.0
H364 H 0.50188 0.80114 0.64555 0.0
C365 C 0.35564 0.76453 0.60807 0.0
C366 C 0.3871 0.79645 0.59311 0.0
C367 C 0.37068 0.76323 0.62863 0.0
C368 C 0.47927 0.79604 0.659 0.0
H369 H 0.45046 0.71783 0.76352 0.0
H370 H 0.41925 0.72415 0.72932 0.0
H371 H 0.52995 0.79676 0.68059 0.0
H372 H 0.45848 0.8533 0.58825 0.0
H373 H 0.48462 0.8514 0.62411 0.0
H374 H 0.37105 0.7798 0.67263 0.0
C375 C 0.45552 0.74909 0.73314 0.0
C376 C 0.49536 0.79346 0.67911 0.0
C377 C 0.47347 0.74537 0.75271 0.0
C378 C 0.43362 0.82774 0.5993 0.0
C379 C 0.44859 0.82658 0.61985 0.0
C380 C 0.40567 0.78322 0.67415 0.0
C381 C 0.48466 0.78346 0.71838 0.0
C382 C 0.46692 0.78583 0.69703 0.0
C383 C 0.41749 0.79393 0.63471 0.0
C384 C 0.43431 0.79116 0.65625 0.0
H385 H 0.5859 0.83575 0.74689 0.0
H386 H 0.55476 0.84236 0.71307 0.0
H387 H 0.3992 0.77505 0.70783 0.0
H388 H 0.3197 0.7396 0.60372 0.0
H389 H 0.34594 0.73726 0.63957 0.0
C390 C 0.57055 0.38491 0.95934 0.0
C391 C 0.61864 0.40521 0.96424 0.0
C392 C 0.55463 0.36947 0.93887 0.0
C393 C 0.58789 0.33174 0.88998 0.0
H394 H 0.48578 0.34493 0.86587 0.0
C395 C 0.51939 0.27104 0.80517 0.0
C396 C 0.47013 0.24536 0.80295 0.0
C397 C 0.53963 0.29428 0.82407 0.0
C398 C 0.51415 0.34077 0.87245 0.0
H399 H 0.68799 0.42657 0.95141 0.0
H400 H 0.66027 0.39999 0.91554 0.0
H401 H 0.51771 0.37956 0.90023 0.0
H402 H 0.40352 0.22456 0.81878 0.0
H403 H 0.43887 0.2648 0.85168 0.0
H404 H 0.58405 0.29266 0.86224 0.0
C405 C 0.63473 0.39519 0.92763 0.0
C406 C 0.53241 0.36055 0.89214 0.0
C407 C 0.65062 0.41046 0.94815 0.0
C408 C 0.4416 0.24393 0.81993 0.0
C409 C 0.46184 0.2673 0.83876 0.0
C410 C 0.56973 0.3121 0.87025 0.0
C411 C 0.58648 0.37416 0.92279 0.0
C412 C 0.56909 0.35576 0.90126 0.0
C413 C 0.51106 0.29254 0.84108 0.0
C414 C 0.53228 0.31591 0.8614 0.0
H415 H 0.54498 0.37977 0.97148 0.0
H416 H 0.51715 0.35269 0.93579 0.0
H417 H 0.61569 0.32682 0.89668 0.0
H418 H 0.54238 0.27297 0.79238 0.0
H419 H 0.57768 0.31384 0.82533 0.0
C420 C 0.30391 0.39965 0.17301 0.0
C421 C 0.26414 0.37902 0.15986 0.0
C422 C 0.34656 0.40398 0.16605 0.0
C423 C 0.40432 0.42614 0.11559 0.0
H424 H 0.50885 0.43262 0.14735 0.0
C425 C 0.61446 0.49181 0.10444 0.0
C426 C 0.63106 0.53847 0.09789 0.0
C427 C 0.5677 0.46371 0.11069 0.0
C428 C 0.47982 0.4305 0.1382 0.0
H429 H 0.23546 0.34012 0.13096 0.0
H430 H 0.30977 0.34746 0.1188 0.0
H431 H 0.42932 0.39161 0.16244 0.0
H432 H 0.61165 0.59188 0.09191 0.0
H433 H 0.52918 0.54232 0.10263 0.0
H434 H 0.45497 0.46665 0.09176 0.0
C435 C 0.30843 0.36131 0.13418 0.0
C436 C 0.43447 0.40717 0.14686 0.0
C437 C 0.26587 0.35686 0.14117 0.0
C438 C 0.59964 0.55603 0.0969 0.0
C439 C 0.55257 0.52767 0.10296 0.0
C440 C 0.44967 0.4499 0.10707 0.0
C441 C 0.34976 0.38761 0.14592 0.0
C442 C 0.39641 0.40539 0.13575 0.0
C443 C 0.53649 0.48156 0.11028 0.0
C444 C 0.48792 0.45299 0.11845 0.0
H445 H 0.30349 0.41676 0.18759 0.0
H446 H 0.37786 0.42427 0.17548 0.0
H447 H 0.3758 0.42605 0.1068 0.0
H448 H 0.63793 0.47729 0.10532 0.0
H449 H 0.55605 0.42817 0.11606 0.0
C450 C 0.09808 0.70378 0.47255 0.0
C451 C 0.11921 0.7123 0.49251 0.0
C452 C 0.05932 0.66003 0.46796 0.0
C453 C 0.03568 0.54568 0.48177 0.0
H454 H 0.93237 0.50157 0.44202 0.0
C455 C 0.9463 0.35707 0.44984 0.0
C456 C 0.92989 0.3496 0.42902 0.0
C457 C 0.9632 0.40106 0.45914 0.0
C458 C 0.96152 0.51354 0.45295 0.0
H459 H 0.11363 0.68468 0.52407 0.0
H460 H 0.04543 0.60832 0.51622 0.0
H461 H 0.96451 0.58009 0.45741 0.0
H462 H 0.91856 0.38128 0.40127 0.0
H463 H 0.95096 0.4595 0.41701 0.0
H464 H 0.03557 0.48139 0.47643 0.0
C465 C 0.05867 0.63526 0.50409 0.0
C466 C 0.97934 0.55816 0.46196 0.0
C467 C 0.09739 0.67903 0.50864 0.0
C468 C 0.93183 0.38683 0.4173 0.0
C469 C 0.94956 0.43122 0.42646 0.0
C470 C 0.01852 0.50165 0.47256 0.0
C471 C 0.04187 0.62426 0.48327 0.0
C472 C 0.01684 0.5747 0.47634 0.0
C473 C 0.96457 0.43862 0.44766 0.0
C474 C 0.98154 0.48512 0.45787 0.0
H475 H 0.11503 0.72809 0.45971 0.0
H476 H 0.04726 0.65245 0.45175 0.0
H477 H 0.06559 0.55804 0.49231 0.0
H478 H 0.94359 0.32818 0.45931 0.0
H479 H 0.97351 0.40501 0.47559 0.0
C480 C 0.45899 0.06903 0.75057 0.0
C481 C 0.42542 0.07312 0.7628 0.0
C482 C 0.48608 0.05114 0.75953 0.0
C483 C 0.48933 0.98343 0.80602 0.0
H484 H 0.6187 0.02952 0.78823 0.0
C485 C 0.58549 0.89886 0.84116 0.0
C486 C 0.59602 0.87586 0.82517 0.0
C487 C 0.58067 0.93792 0.83633 0.0
C488 C 0.58281 0.01683 0.79349 0.0
H489 H 0.39423 0.06366 0.79384 0.0
H490 H 0.44199 0.03354 0.80977 0.0
H491 H 0.57376 0.06457 0.77344 0.0
H492 H 0.6147 0.87833 0.7923 0.0
H493 H 0.607 0.94657 0.78378 0.0
H494 H 0.49794 0.93549 0.82584 0.0
C495 C 0.44661 0.04226 0.79311 0.0
C496 C 0.55683 0.03638 0.78486 0.0
C497 C 0.41913 0.05937 0.78404 0.0
C498 C 0.60793 0.89613 0.805 0.0
C499 C 0.60302 0.93514 0.8001 0.0
C500 C 0.51538 0.96449 0.81482 0.0
C501 C 0.48058 0.03801 0.78101 0.0
C502 C 0.50947 0.01933 0.79079 0.0
C503 C 0.58572 0.95394 0.81536 0.0
C504 C 0.56215 0.98045 0.80847 0.0
H505 H 0.46469 0.08027 0.7342 0.0
H506 H 0.51129 0.04765 0.74964 0.0
H507 H 0.45276 0.96856 0.81066 0.0
H508 H 0.57545 0.88336 0.85678 0.0
H509 H 0.56794 0.95225 0.84847 0.0
C510 C 0.58273 0.61822 0.78913 0.0
C511 C 0.56065 0.64524 0.79216 0.0
C512 C 0.5576 0.57316 0.78044 0.0
C513 C 0.43632 0.47676 0.76928 0.0
H514 H 0.50174 0.43888 0.72955 0.0
C515 C 0.37771 0.28557 0.74844 0.0
C516 C 0.39355 0.27584 0.72946 0.0
C517 C 0.3876 0.33123 0.753 0.0
C518 C 0.48248 0.44915 0.74023 0.0
H519 H 0.49486 0.64615 0.78907 0.0
H520 H 0.45148 0.5683 0.77367 0.0
H521 H 0.54264 0.517 0.74481 0.0
H522 H 0.42539 0.30425 0.699 0.0
H523 H 0.44136 0.38391 0.70667 0.0
H524 H 0.37598 0.40891 0.76453 0.0
C525 C 0.48783 0.58128 0.77818 0.0
C526 C 0.50635 0.49369 0.74935 0.0
C527 C 0.51282 0.62606 0.78694 0.0
C528 C 0.41341 0.31096 0.71389 0.0
C529 C 0.42304 0.35669 0.7184 0.0
C530 C 0.41231 0.43223 0.76005 0.0
C531 C 0.51003 0.55449 0.77456 0.0
C532 C 0.48388 0.50771 0.76429 0.0
C533 C 0.41305 0.36788 0.73854 0.0
C534 C 0.43539 0.41753 0.74572 0.0
H535 H 0.61954 0.6322 0.7931 0.0
H536 H 0.5755 0.55303 0.77824 0.0
H537 H 0.41794 0.48635 0.78078 0.0
H538 H 0.36194 0.259 0.76066 0.0
H539 H 0.37918 0.33834 0.76864 0.0
C540 C 0.07298 0.46689 0.15291 0.0
C541 C 0.07509 0.43834 0.13694 0.0
C542 C 0.059 0.49999 0.14812 0.0
C543 C 0.05023 0.56744 0.10329 0.0
H544 H 0.9462 0.56457 0.13415 0.0
C545 C 0.90378 0.58407 0.06568 0.0
C546 C 0.87577 0.59661 0.07781 0.0
C547 C 0.94496 0.58786 0.07407 0.0
C548 C 0.97635 0.56725 0.12571 0.0
H549 H 0.06509 0.42141 0.10367 0.0
H550 H 0.04001 0.47868 0.09523 0.0
H551 H 0.98365 0.52146 0.14771 0.0
H552 H 0.87108 0.62732 0.10724 0.0
H553 H 0.94309 0.6343 0.12204 0.0
H554 H 0.04126 0.6111 0.08068 0.0
C555 C 0.04932 0.47596 0.11139 0.0
C556 C -0.00243 0.54219 0.13345 0.0
C557 C 0.06282 0.44272 0.11623 0.0
C558 C 0.89232 0.61815 0.09746 0.0
C559 C 0.93337 0.62157 0.10603 0.0
C560 C 0.02922 0.5927 0.09561 0.0
C561 C 0.04788 0.50537 0.12721 0.0
C562 C 0.03299 0.54009 0.12172 0.0
C563 C 0.95834 0.60354 0.09493 0.0
C564 C 0.99035 0.59076 0.10614 0.0
H565 H 0.08314 0.46431 0.16894 0.0
H566 H 0.05801 0.52213 0.1606 0.0
H567 H 0.07832 0.56724 0.09421 0.0
H568 H 0.89134 0.56684 0.05056 0.0
H569 H 0.96306 0.57337 0.06508 0.0
C570 C 0.37263 0.95939 0.45903 0.0
C571 C 0.34514 0.91025 0.45877 0.0
C572 C 0.4195 0.98117 0.45212 0.0
C573 C 0.52466 0.01155 0.4486 0.0
H574 H 0.55134 0.97567 0.39399 0.0
C575 C 0.71273 0.09491 0.41969 0.0
C576 C 0.71888 0.12041 0.40096 0.0
C577 C 0.66813 0.05904 0.42547 0.0
C578 C 0.54434 0.98563 0.40932 0.0
H579 H 0.34485 0.84525 0.45143 0.0
H580 H 0.42611 0.88329 0.43919 0.0
H581 H 0.47032 0.93666 0.40755 0.0
H582 H 0.68505 0.12418 0.37214 0.0
H583 H 0.60692 0.06106 0.38221 0.0
H584 H 0.5983 0.06089 0.45033 0.0
C585 C 0.41161 0.90494 0.44464 0.0
C586 C 0.4982 0.96343 0.41707 0.0
C587 C 0.36521 0.88326 0.45176 0.0
C588 C 0.68115 0.10529 0.38675 0.0
C589 C 0.63644 0.06919 0.39252 0.0
C590 C 0.57078 0.03324 0.441 0.0
C591 C 0.43908 0.95403 0.44463 0.0
C592 C 0.48797 0.97666 0.43666 0.0
C593 C 0.62916 0.04793 0.41252 0.0
C594 C 0.58099 0.02079 0.42122 0.0
H595 H 0.35786 0.98085 0.46438 0.0
H596 H 0.44011 0.0192 0.45219 0.0
H597 H 0.51766 0.02205 0.46381 0.0
H598 H 0.74135 0.10555 0.43084 0.0
H599 H 0.66348 0.04246 0.44079 0.0
C600 C 0.27974 0.18051 0.87936 0.0
C601 C 0.26069 0.19083 0.86159 0.0
C602 C 0.27236 0.1925 0.89965 0.0
C603 C 0.23137 0.26522 0.9288 0.0
H604 H 0.21169 0.17753 0.97419 0.0
C605 C 0.15184 0.269 1.01033 0.0
C606 C 0.17402 0.26364 0.02831 0.0
C607 C 0.16528 0.26309 0.99006 0.0
C608 C 0.21759 0.20261 0.96172 0.0
H609 H 0.21939 0.22233 0.85111 0.0
H610 H 0.20525 0.24221 0.88655 0.0
H611 H 0.22927 0.16165 0.93873 0.0
H612 H 0.22777 0.24802 0.03916 0.0
H613 H 0.25086 0.23698 1.00369 0.0
H614 H 0.21802 0.30526 0.95188 0.0
C615 C 0.22688 0.22578 0.88486 0.0
C616 C 0.22788 0.19365 0.94136 0.0
C617 C 0.23481 0.21427 0.86451 0.0
C618 C 0.21019 0.25254 0.02558 0.0
C619 C 0.22317 0.24594 1.00531 0.0
C620 C 0.22049 0.27385 0.94914 0.0
C621 C 0.24516 0.21463 0.90276 0.0
C622 C 0.23494 0.22481 0.92457 0.0
C623 C 0.20078 0.25104 0.98733 0.0
C624 C 0.21347 0.24262 0.96582 0.0
H625 H 0.30047 0.1631 0.87755 0.0
H626 H 0.28805 0.18436 0.9129 0.0
H627 H 0.23734 0.2905 0.91644 0.0
H628 H 0.12414 0.27796 1.01194 0.0
H629 H 0.14718 0.26695 0.97653 0.0
C630 C 0.90833 0.20808 0.35159 0.0
C631 C 0.89117 0.23862 0.35701 0.0
C632 C 0.92962 0.21188 0.33181 0.0
C633 C 0.9387 0.2631 0.27825 0.0
H634 H 0.05701 0.26258 0.27373 0.0
C635 C 0.07455 0.36351 0.21407 0.0
C636 C 0.09125 0.33894 0.20182 0.0
C637 C 0.04724 0.343 0.23204 0.0
C638 C 0.0236 0.26204 0.27474 0.0
H639 H 0.88334 0.29728 0.3458 0.0
H640 H 0.92059 0.30422 0.31205 0.0
H641 H 0.01365 0.24109 0.30735 0.0
H642 H 0.09314 0.2738 0.19911 0.0
H643 H 0.046 0.2382 0.2312 0.0
H644 H 0.94992 0.28655 0.24609 0.0
C645 C 0.91693 0.27665 0.3227 0.0
C646 C -0.00129 0.24967 0.29393 0.0
C647 C 0.89582 0.27288 0.34227 0.0
C648 C 0.08057 0.29348 0.20818 0.0
C649 C 0.05385 0.27321 0.22653 0.0
C650 C 0.96373 0.27592 0.25927 0.0
C651 C 0.93387 0.24612 0.31709 0.0
C652 C 0.95672 0.25159 0.29608 0.0
C653 C 0.03654 0.2977 0.23844 0.0
C654 C 0.00702 0.27681 0.2575 0.0
H655 H 0.90533 0.18131 0.36257 0.0
H656 H 0.94228 0.18777 0.32796 0.0
H657 H 0.90585 0.26372 0.27915 0.0
H658 H 0.08194 0.3985 0.2096 0.0
H659 H 0.03466 0.36276 0.24106 0.0
C660 C 0.70162 0.91184 0.68484 0.0
C661 C 0.73976 0.92215 0.69832 0.0
C662 C 0.70938 0.92857 0.66401 0.0
C663 C 0.80147 0.97534 0.6221 0.0
H664 H 0.72151 0.01847 0.59659 0.0
C665 C 0.84908 0.07648 0.54306 0.0
C666 C 0.81284 0.06452 0.52821 0.0
C667 C 0.8389 0.05835 0.56359 0.0
C668 C 0.74385 0.00608 0.60341 0.0
H669 H 0.81596 0.95923 0.70058 0.0
H670 H 0.82954 0.98882 0.66445 0.0
H671 H 0.70635 0.98879 0.63283 0.0
H672 H 0.7372 0.02396 0.52358 0.0
H673 H 0.71944 0.99267 0.55956 0.0
H674 H 0.83927 -0.00688 0.59279 0.0
C675 C 0.79357 0.96688 0.66976 0.0
C676 C 0.73514 0.989 0.6242 0.0
C677 C 0.7858 0.94998 0.69053 0.0
C678 C 0.76599 0.03435 0.53461 0.0
C679 C 0.75578 0.01636 0.55524 0.0
C680 C 0.81028 0.9926 0.6014 0.0
C681 C 0.75549 0.9562 0.65615 0.0
C682 C 0.76402 0.97363 0.63387 0.0
C683 C 0.79217 0.02794 0.56994 0.0
C684 C 0.78176 0.00842 0.59182 0.0
H685 H 0.66569 0.89 0.69026 0.0
H686 H 0.67919 0.91904 0.65395 0.0
H687 H 0.82386 0.9629 0.62881 0.0
H688 H 0.88546 0.10048 0.53892 0.0
H689 H 0.86771 0.06874 0.57462 0.0
C690 C 0.69013 0.74369 0.87009 0.0
C691 C 0.64991 0.74897 0.87007 0.0
C692 C 0.70639 0.73436 0.88901 0.0
C693 C 0.71739 0.75026 0.94479 0.0
H694 H 0.69278 0.6223 0.95135 0.0
C695 C 0.73609 0.67798 0.02604 0.0
C696 C 0.74587 0.64073 0.02638 0.0
C697 C 0.72838 0.69446 1.00679 0.0
C698 C 0.70116 0.65856 0.94979 0.0
H699 H 0.59675 0.75119 0.88985 0.0
H700 H 0.62615 0.73637 0.92294 0.0
H701 H 0.67509 0.64714 0.91798 0.0
H702 H 0.75785 0.59324 1.0069 0.0
H703 H 0.74779 0.6237 0.97351 0.0
H704 H 0.74486 0.76263 0.97622 0.0
C705 C 0.64444 0.7386 0.90831 0.0
C706 C 0.69057 0.67255 0.93062 0.0
C707 C 0.62751 0.74675 0.88938 0.0
C708 C 0.74977 0.62165 1.00713 0.0
C709 C 0.74342 0.6389 0.98792 0.0
C710 C 0.72911 0.73666 0.96385 0.0
C711 C 0.68349 0.73155 0.90823 0.0
C712 C 0.69818 0.71832 0.92803 0.0
C713 C 0.73144 0.67482 0.98738 0.0
C714 C 0.72077 0.69037 0.96676 0.0
H715 H 0.70786 0.74499 0.85541 0.0
H716 H 0.73651 0.72884 0.88863 0.0
H717 H 0.72346 0.78579 0.94309 0.0
H718 H 0.7325 0.69305 0.04069 0.0
H719 H 0.71859 0.7216 1.00728 0.0
C720 C 0.07821 0.78505 0.35171 0.0
C721 C 0.0657 0.81028 0.36584 0.0
C722 C 0.06117 0.77661 0.33098 0.0
C723 C 0.00912 0.81884 0.29021 0.0
H724 H 0.9695 0.69726 0.26474 0.0
C725 C 0.95503 0.78131 0.20219 0.0
C726 C 0.91594 0.73738 0.19738 0.0
C727 C 0.97471 0.79056 0.22246 0.0
C728 C 0.98014 0.73133 0.27165 0.0
H729 H 0.02473 0.84572 0.36923 0.0
H730 H -0.00504 0.83093 0.33315 0.0
H731 H 9e-05 0.71241 0.30069 0.0
H732 H 0.86643 0.66901 0.21033 0.0
H733 H 0.90054 0.68513 0.24558 0.0
H734 H 0.98808 0.83737 0.26136 0.0
C735 C 0.01863 0.81835 0.33798 0.0
C736 C -0.00178 0.74021 0.29219 0.0
C737 C 0.03569 0.82681 0.3587 0.0
C738 C 0.89704 0.70295 0.21335 0.0
C739 C 0.91664 0.7122 0.23359 0.0
C740 C 0.99106 0.80997 0.26965 0.0
C741 C 0.03116 0.79317 0.32384 0.0
C742 C 0.01275 0.78401 0.30179 0.0
C743 C 0.95571 0.75612 0.23844 0.0
C744 C 0.97612 0.76602 0.26013 0.0
H745 H 0.10185 0.77243 0.35657 0.0
H746 H 0.07212 0.7577 0.32045 0.0
H747 H 0.02049 0.85317 0.29699 0.0
H748 H 0.97084 0.80841 0.19021 0.0
H749 H 0.0052 0.82454 0.22553 0.0
C750 C 0.36628 0.07614 0.67997 0.0
C751 C 0.34204 0.09512 0.69094 0.0
C752 C 0.34707 0.04912 0.66189 0.0
C753 C 0.27048 0.02885 0.61728 0.0
H754 H 0.27169 0.91109 0.61345 0.0
C755 C 0.21519 0.91231 0.54126 0.0
C756 C 0.24423 0.89322 0.53603 0.0
C757 C 0.2204 0.93496 0.56072 0.0
C758 C 0.27135 0.94401 0.61417 0.0
H759 H 0.27876 0.10112 0.69129 0.0
H760 H 0.2454 0.05426 0.65907 0.0
H761 H 0.29271 0.95443 0.64658 0.0
H762 H 0.30231 0.88411 0.54704 0.0
H763 H 0.3117 0.92377 0.58037 0.0
H764 H 0.25113 0.01939 0.58452 0.0
C765 C 0.27918 0.06022 0.66479 0.0
C766 C 0.28313 0.96865 0.6332 0.0
C767 C 0.29815 0.08679 0.68323 0.0
C768 C 0.2789 0.89788 0.55052 0.0
C769 C 0.28411 0.92042 0.56981 0.0
C770 C 0.25905 0.00429 0.59808 0.0
C771 C 0.30338 0.04079 0.6541 0.0
C772 C 0.28403 0.01188 0.63481 0.0
C773 C 0.25468 0.93884 0.5753 0.0
C774 C 0.2607 0.96223 0.59616 0.0
H775 H 0.4001 0.08169 0.68545 0.0
H776 H 0.36673 0.03504 0.65384 0.0
H777 H 0.27108 0.06222 0.61811 0.0
H778 H 0.18813 0.90934 0.53047 0.0
H779 H 0.19709 0.94868 0.56448 0.0
loop_
_geom_bond_atom_site_label_1
_geom_bond_atom_site_label_2
_geom_bond_distance
_geom_bond_site_symmetry_2
_ccdc_geom_bond_type
La0 C2 2.928 . S
La0 O20 2.521 . S
La0 O21 2.628 . S
La0 O22 2.554 . S
La0 O23 2.757 . S
La0 O24 2.470 . S
La0 O29 2.482 . S
La0 O31 2.503 . S
La1 C11 2.928 . S
La1 O23 2.482 . S
La1 O25 2.503 . S
La1 O26 2.521 . S
La1 O27 2.628 . S
La1 O28 2.554 . S
La1 O29 2.757 . S
La1 O30 2.470 . S
C2 La0 2.928 . S
C2 C3 1.503 . S
C2 O20 1.261 . S
C2 O21 1.243 . S
C3 C2 1.503 . S
C3 C4 1.394 . S
C3 C8 1.373 . S
C4 C3 1.394 . S
C4 C5 1.380 . S
C4 H32 0.930 . S
C5 C4 1.380 . S
C5 C6 1.376 . S
C5 H33 0.930 . S
C6 C5 1.376 . S
C6 C7 1.370 . S
C7 C6 1.370 . S
C7 C8 1.396 . S
C7 H34 0.929 . S
C8 C3 1.373 . S
C8 C7 1.396 . S
C8 H35 0.929 . S
C9 O22 1.240 . S
C9 O23 1.289 . S
C10 O24 1.258 . S
C10 O25 1.256 . S
C11 La1 2.928 . S
C11 C12 1.503 . S
C11 O26 1.261 . S
C11 O27 1.243 . S
C12 C11 1.503 . S
C12 C13 1.394 . S
C12 C17 1.373 . S
C13 C12 1.394 . S
C13 C14 1.380 . S
C13 H36 0.930 . S
C14 C13 1.380 . S
C14 C15 1.376 . S
C14 H37 0.930 . S
C15 C14 1.376 . S
C15 C16 1.370 . S
C16 C15 1.370 . S
C16 C17 1.396 . S
C16 H38 0.929 . S
C17 C12 1.373 . S
C17 C16 1.396 . S
C17 H39 0.929 . S
C18 O28 1.240 . S
C18 O29 1.289 . S
C19 O30 1.258 . S
C19 O31 1.256 . S
O20 La0 2.521 . S
O20 C2 1.261 . S
O21 La0 2.628 . S
O21 C2 1.243 . S
O22 La0 2.554 . S
O22 C9 1.240 . S
O23 La0 2.757 . S
O23 La1 2.482 . S
O23 C9 1.289 . S
O24 La0 2.470 . S
O24 C10 1.258 . S
O25 La1 2.503 . S
O25 C10 1.256 . S
O26 La1 2.521 . S
O26 C11 1.261 . S
O27 La1 2.628 . S
O27 C11 1.243 . S
O28 La1 2.554 . S
O28 C18 1.240 . S
O29 La0 2.482 . S
O29 La1 2.757 . S
O29 C18 1.289 . S
O30 La1 2.470 . S
O30 C19 1.258 . S
O31 La0 2.503 . S
O31 C19 1.256 . S
H32 C4 0.930 . S
H33 C5 0.930 . S
H34 C7 0.929 . S
H35 C8 0.929 . S
H36 C13 0.930 . S
H37 C14 0.930 . S
H38 C16 0.929 . S
H39 C17 0.929 . S
La40 C42 2.928 . S
La40 O60 2.521 . S
La40 O61 2.628 . S
La40 O62 2.554 . S
La40 O63 2.757 . S
La40 O64 2.470 . S
La40 O69 2.482 . S
La40 O71 2.503 . S
La41 C51 2.928 . S
La41 O63 2.482 . S
La41 O65 2.503 . S
La41 O66 2.521 . S
La41 O67 2.628 . S
La41 O68 2.554 . S
La41 O69 2.757 . S
La41 O70 2.470 . S
C42 La40 2.928 . S
C42 C43 1.503 . S
C42 O60 1.261 . S
C42 O61 1.243 . S
C43 C42 1.503 . S
C43 C44 1.394 . S
C43 C48 1.373 . S
C44 C43 1.394 . S
C44 C45 1.380 . S
C44 H72 0.930 . S
C45 C44 1.380 . S
C45 C46 1.376 . S
C45 H73 0.930 . S
C46 C45 1.376 . S
C46 C47 1.370 . S
C47 C46 1.370 . S
C47 C48 1.396 . S
C47 H74 0.929 . S
C48 C43 1.373 . S
C48 C47 1.396 . S
C48 H75 0.929 . S
C49 O62 1.240 . S
C49 O63 1.289 . S
C50 O64 1.258 . S
C50 O65 1.256 . S
C51 La41 2.928 . S
C51 C52 1.503 . S
C51 O66 1.261 . S
C51 O67 1.243 . S
C52 C51 1.503 . S
C52 C53 1.394 . S
C52 C57 1.373 . S
C53 C52 1.394 . S
C53 C54 1.380 . S
C53 H76 0.930 . S
C54 C53 1.380 . S
C54 C55 1.376 . S
C54 H77 0.930 . S
C55 C54 1.376 . S
C55 C56 1.370 . S
C56 C55 1.370 . S
C56 C57 1.396 . S
C56 H78 0.929 . S
C57 C52 1.373 . S
C57 C56 1.396 . S
C57 H79 0.929 . S
C58 O68 1.240 . S
C58 O69 1.289 . S
C59 O70 1.258 . S
C59 O71 1.256 . S
O60 La40 2.521 . S
O60 C42 1.261 . S
O61 La40 2.628 . S
O61 C42 1.243 . S
O62 La40 2.554 . S
O62 C49 1.240 . S
O63 La40 2.757 . S
O63 La41 2.482 . S
O63 C49 1.289 . S
O64 La40 2.470 . S
O64 C50 1.258 . S
O65 La41 2.503 . S
O65 C50 1.256 . S
O66 La41 2.521 . S
O66 C51 1.261 . S
O67 La41 2.628 . S
O67 C51 1.243 . S
O68 La41 2.554 . S
O68 C58 1.240 . S
O69 La40 2.482 . S
O69 La41 2.757 . S
O69 C58 1.289 . S
O70 La41 2.470 . S
O70 C59 1.258 . S
O71 La40 2.503 . S
O71 C59 1.256 . S
H72 C44 0.930 . S
H73 C45 0.930 . S
H74 C47 0.929 . S
H75 C48 0.929 . S
H76 C53 0.930 . S
H77 C54 0.930 . S
H78 C56 0.929 . S
H79 C57 0.929 . S
La80 C82 2.928 . S
La80 O100 2.521 . S
La80 O101 2.628 . S
La80 O102 2.554 . S
La80 O103 2.757 . S
La80 O104 2.470 . S
La80 O109 2.482 . S
La80 O111 2.503 . S
La81 C91 2.928 . S
La81 O103 2.482 . S
La81 O105 2.503 . S
La81 O106 2.521 . S
La81 O107 2.628 . S
La81 O108 2.554 . S
La81 O109 2.757 . S
La81 O110 2.470 . S
C82 La80 2.928 . S
C82 C83 1.503 . S
C82 O100 1.261 . S
C82 O101 1.243 . S
C83 C82 1.503 . S
C83 C84 1.394 . S
C83 C88 1.373 . S
C84 C83 1.394 . S
C84 C85 1.380 . S
C84 H112 0.930 . S
C85 C84 1.380 . S
C85 C86 1.376 . S
C85 H113 0.930 . S
C86 C85 1.376 . S
C86 C87 1.370 . S
C87 C86 1.370 . S
C87 C88 1.396 . S
C87 H114 0.929 . S
C88 C83 1.373 . S
C88 C87 1.396 . S
C88 H115 0.929 . S
C89 O102 1.240 . S
C89 O103 1.289 . S
C90 O104 1.258 . S
C90 O105 1.256 . S
C91 La81 2.928 . S
C91 C92 1.503 . S
C91 O106 1.261 . S
C91 O107 1.243 . S
C92 C91 1.503 . S
C92 C93 1.394 . S
C92 C97 1.373 . S
C93 C92 1.394 . S
C93 C94 1.380 . S
C93 H116 0.930 . S
C94 C93 1.380 . S
C94 C95 1.376 . S
C94 H117 0.930 . S
C95 C94 1.376 . S
C95 C96 1.370 . S
C96 C95 1.370 . S
C96 C97 1.396 . S
C96 H118 0.929 . S
C97 C92 1.373 . S
C97 C96 1.396 . S
C97 H119 0.929 . S
C98 O108 1.240 . S
C98 O109 1.289 . S
C99 O110 1.258 . S
C99 O111 1.256 . S
O100 La80 2.521 . S
O100 C82 1.261 . S
O101 La80 2.628 . S
O101 C82 1.243 . S
O102 La80 2.554 . S
O102 C89 1.240 . S
O103 La80 2.757 . S
O103 La81 2.482 . S
O103 C89 1.289 . S
O104 La80 2.470 . S
O104 C90 1.258 . S
O105 La81 2.503 . S
O105 C90 1.256 . S
O106 La81 2.521 . S
O106 C91 1.261 . S
O107 La81 2.628 . S
O107 C91 1.243 . S
O108 La81 2.554 . S
O108 C98 1.240 . S
O109 La80 2.482 . S
O109 La81 2.757 . S
O109 C98 1.289 . S
O110 La81 2.470 . S
O110 C99 1.258 . S
O111 La80 2.503 . S
O111 C99 1.256 . S
H112 C84 0.930 . S
H113 C85 0.930 . S
H114 C87 0.929 . S
H115 C88 0.929 . S
H116 C93 0.930 . S
H117 C94 0.930 . S
H118 C96 0.929 . S
H119 C97 0.929 . S
La120 C122 2.928 . S
La120 O140 2.521 . S
La120 O141 2.628 . S
La120 O142 2.554 . S
La120 O143 2.757 . S
La120 O144 2.470 . S
La120 O149 2.482 . S
La120 O151 2.503 . S
La121 C131 2.928 . S
La121 O143 2.482 . S
La121 O145 2.503 . S
La121 O146 2.521 . S
La121 O147 2.628 . S
La121 O148 2.554 . S
La121 O149 2.757 . S
La121 O150 2.470 . S
C122 La120 2.928 . S
C122 C123 1.458 1_554 S
C122 O140 1.261 . S
C122 O141 1.243 . S
C123 C122 1.458 1_556 S
C123 C124 1.421 . S
C123 C128 1.393 . S
C124 C123 1.421 . S
C124 C125 1.380 . S
C124 H152 0.930 . S
C125 C124 1.380 . S
C125 C126 1.376 . S
C125 H153 0.930 . S
C126 C125 1.376 . S
C126 C127 1.370 . S
C127 C126 1.370 . S
C127 C128 1.396 . S
C127 H154 0.929 . S
C128 C123 1.393 . S
C128 C127 1.396 . S
C128 H155 0.929 . S
C129 O142 1.240 . S
C129 O143 1.289 . S
C130 O144 1.258 . S
C130 O145 1.256 . S
C131 La121 2.928 . S
C131 C132 1.503 . S
C131 O146 1.261 . S
C131 O147 1.243 . S
C132 C131 1.503 . S
C132 C133 1.394 . S
C132 C137 1.373 . S
C133 C132 1.394 . S
C133 C134 1.380 . S
C133 H156 0.930 . S
C134 C133 1.380 . S
C134 C135 1.376 . S
C134 H157 0.930 . S
C135 C134 1.376 . S
C135 C136 1.370 . S
C136 C135 1.370 . S
C136 C137 1.396 . S
C136 H158 0.929 . S
C137 C132 1.373 . S
C137 C136 1.396 . S
C137 H159 0.929 . S
C138 O148 1.240 . S
C138 O149 1.289 . S
C139 O150 1.258 . S
C139 O151 1.256 . S
O140 La120 2.521 . S
O140 C122 1.261 . S
O141 La120 2.628 . S
O141 C122 1.243 . S
O142 La120 2.554 . S
O142 C129 1.240 . S
O143 La120 2.757 . S
O143 La121 2.482 . S
O143 C129 1.289 . S
O144 La120 2.470 . S
O144 C130 1.258 . S
O145 La121 2.503 . S
O145 C130 1.256 . S
O146 La121 2.521 . S
O146 C131 1.261 . S
O147 La121 2.628 . S
O147 C131 1.243 . S
O148 La121 2.554 . S
O148 C138 1.240 . S
O149 La120 2.482 . S
O149 La121 2.757 . S
O149 C138 1.289 . S
O150 La121 2.470 . S
O150 C139 1.258 . S
O151 La120 2.503 . S
O151 C139 1.256 . S
H152 C124 0.930 . S
H153 C125 0.930 . S
H154 C127 0.929 . S
H155 C128 0.929 . S
H156 C133 0.930 . S
H157 C134 0.930 . S
H158 C136 0.929 . S
H159 C137 0.929 . S
La160 C162 2.928 . S
La160 O180 2.521 . S
La160 O181 2.628 . S
La160 O182 2.554 . S
La160 O183 2.757 . S
La160 O184 2.470 . S
La160 O189 2.482 . S
La160 O191 2.503 . S
La161 C171 2.928 . S
La161 O183 2.482 . S
La161 O185 2.503 . S
La161 O186 2.521 . S
La161 O187 2.628 . S
La161 O188 2.554 . S
La161 O189 2.757 . S
La161 O190 2.470 . S
C162 La160 2.928 . S
C162 C163 1.503 . S
C162 O180 1.261 . S
C162 O181 1.243 . S
C163 C162 1.503 . S
C163 C164 1.394 . S
C163 C168 1.373 . S
C164 C163 1.394 . S
C164 C165 1.380 . S
C164 H192 0.930 . S
C165 C164 1.380 . S
C165 C166 1.376 . S
C165 H193 0.930 . S
C166 C165 1.376 . S
C166 C167 1.370 . S
C167 C166 1.370 . S
C167 C168 1.396 . S
C167 H194 0.929 . S
C168 C163 1.373 . S
C168 C167 1.396 . S
C168 H195 0.929 . S
C169 O182 1.240 . S
C169 O183 1.289 . S
C170 O184 1.258 . S
C170 O185 1.256 . S
C171 La161 2.928 . S
C171 C172 1.503 . S
C171 O186 1.261 . S
C171 O187 1.243 . S
C172 C171 1.503 . S
C172 C173 1.394 . S
C172 C177 1.373 . S
C173 C172 1.394 . S
C173 C174 1.380 . S
C173 H196 0.930 . S
C174 C173 1.380 . S
C174 C175 1.376 . S
C174 H197 0.930 . S
C175 C174 1.376 . S
C175 C176 1.370 . S
C176 C175 1.370 . S
C176 C177 1.396 . S
C176 H198 0.929 . S
C177 C172 1.373 . S
C177 C176 1.396 . S
C177 H199 0.929 . S
C178 O188 1.240 . S
C178 O189 1.289 . S
C179 O190 1.258 . S
C179 O191 1.256 . S
O180 La160 2.521 . S
O180 C162 1.261 . S
O181 La160 2.628 . S
O181 C162 1.243 . S
O182 La160 2.554 . S
O182 C169 1.240 . S
O183 La160 2.757 . S
O183 La161 2.482 . S
O183 C169 1.289 . S
O184 La160 2.470 . S
O184 C170 1.258 . S
O185 La161 2.503 . S
O185 C170 1.256 . S
O186 La161 2.521 . S
O186 C171 1.261 . S
O187 La161 2.628 . S
O187 C171 1.243 . S
O188 La161 2.554 . S
O188 C178 1.240 . S
O189 La160 2.482 . S
O189 La161 2.757 . S
O189 C178 1.289 . S
O190 La161 2.470 . S
O190 C179 1.258 . S
O191 La160 2.503 . S
O191 C179 1.256 . S
H192 C164 0.930 . S
H193 C165 0.930 . S
H194 C167 0.929 . S
H195 C168 0.929 . S
H196 C173 0.930 . S
H197 C174 0.930 . S
H198 C176 0.929 . S
H199 C177 0.929 . S
La200 C202 2.928 . S
La200 O220 2.521 . S
La200 O221 2.628 . S
La200 O222 2.554 . S
La200 O223 2.757 . S
La200 O224 2.470 . S
La200 O229 2.482 . S
La200 O231 2.503 . S
La201 C211 2.928 . S
La201 O223 2.482 . S
La201 O225 2.503 . S
La201 O226 2.521 . S
La201 O227 2.628 . S
La201 O228 2.554 . S
La201 O229 2.757 . S
La201 O230 2.470 . S
C202 La200 2.928 . S
C202 C203 1.503 . S
C202 O220 1.261 . S
C202 O221 1.243 . S
C203 C202 1.503 . S
C203 C204 1.394 . S
C203 C208 1.373 . S
C204 C203 1.394 . S
C204 C205 1.380 . S
C204 H232 0.930 . S
C205 C204 1.380 . S
C205 C206 1.376 . S
C205 H233 0.930 . S
C206 C205 1.376 . S
C206 C207 1.370 . S
C207 C206 1.370 . S
C207 C208 1.396 . S
C207 H234 0.929 . S
C208 C203 1.373 . S
C208 C207 1.396 . S
C208 H235 0.929 . S
C209 O222 1.240 . S
C209 O223 1.289 . S
C210 O224 1.258 . S
C210 O225 1.256 . S
C211 La201 2.928 . S
C211 C212 1.503 . S
C211 O226 1.261 . S
C211 O227 1.243 . S
C212 C211 1.503 . S
C212 C213 1.394 . S
C212 C217 1.373 . S
C213 C212 1.394 . S
C213 C214 1.380 . S
C213 H236 0.930 . S
C214 C213 1.380 . S
C214 C215 1.376 . S
C214 H237 0.930 . S
C215 C214 1.376 . S
C215 C216 1.370 . S
C216 C215 1.370 . S
C216 C217 1.396 . S
C216 H238 0.929 . S
C217 C212 1.373 . S
C217 C216 1.396 . S
C217 H239 0.929 . S
C218 O228 1.240 . S
C218 O229 1.289 . S
C219 O230 1.258 . S
C219 O231 1.256 . S
O220 La200 2.521 . S
O220 C202 1.261 . S
O221 La200 2.628 . S
O221 C202 1.243 . S
O222 La200 2.554 . S
O222 C209 1.240 . S
O223 La200 2.757 . S
O223 La201 2.482 . S
O223 C209 1.289 . S
O224 La200 2.470 . S
O224 C210 1.258 . S
O225 La201 2.503 . S
O225 C210 1.256 . S
O226 La201 2.521 . S
O226 C211 1.261 . S
O227 La201 2.628 . S
O227 C211 1.243 . S
O228 La201 2.554 . S
O228 C218 1.240 . S
O229 La200 2.482 . S
O229 La201 2.757 . S
O229 C218 1.289 . S
O230 La201 2.470 . S
O230 C219 1.258 . S
O231 La200 2.503 . S
O231 C219 1.256 . S
H232 C204 0.930 . S
H233 C205 0.930 . S
H234 C207 0.929 . S
H235 C208 0.929 . S
H236 C213 0.930 . S
H237 C214 0.930 . S
H238 C216 0.929 . S
H239 C217 0.929 . S
C240 C241 1.349 . S
C240 C242 1.327 . S
C240 H265 0.950 . S
C241 C240 1.349 . S
C241 C257 1.349 . S
C242 C240 1.327 . S
C242 C261 1.429 . S
C242 H266 0.950 . S
C243 C260 1.574 . S
C243 C262 1.368 . S
C243 H267 0.949 . S
H244 C248 0.949 . S
C245 C246 1.349 . S
C245 C247 1.327 . S
C245 H268 0.950 . S
C246 C245 1.349 . S
C246 C258 1.349 . S
C247 C245 1.327 . S
C247 C263 1.429 . S
C247 H269 0.950 . S
C248 H244 0.949 . S
C248 C256 1.574 . S
C248 C264 1.368 . S
H249 C257 0.950 . S
H250 C255 0.950 . S
H251 C256 0.949 . S
H252 C258 0.950 . S
H253 C259 0.950 . S
H254 C260 0.949 . S
C255 H250 0.950 . S
C255 C257 1.327 . S
C255 C261 1.429 . S
C256 C248 1.574 . S
C256 H251 0.949 . S
C256 C262 1.368 . S
C257 C241 1.349 . S
C257 H249 0.950 . S
C257 C255 1.327 . S
C258 C246 1.349 . S
C258 H252 0.950 . S
C258 C259 1.327 . S
C259 H253 0.950 . S
C259 C258 1.327 . S
C259 C263 1.429 . S
C260 C243 1.574 . S
C260 H254 0.949 . S
C260 C264 1.368 . S
C261 C242 1.429 . S
C261 C255 1.429 . S
C261 C262 1.523 . S
C262 C243 1.368 . S
C262 C256 1.368 . S
C262 C261 1.523 . S
C263 C247 1.429 . S
C263 C259 1.429 . S
C263 C264 1.523 . S
C264 C248 1.368 . S
C264 C260 1.368 . S
C264 C263 1.523 . S
H265 C240 0.950 . S
H266 C242 0.950 . S
H267 C243 0.949 . S
H268 C245 0.950 . S
H269 C247 0.950 . S
C270 C271 1.349 . S
C270 C272 1.327 . S
C270 H295 0.950 . S
C271 C270 1.349 . S
C271 C287 1.349 . S
C272 C270 1.327 . S
C272 C291 1.429 . S
C272 H296 0.950 . S
C273 C290 1.574 . S
C273 C292 1.368 . S
C273 H297 0.949 . S
H274 C278 0.949 . S
C275 C276 1.349 . S
C275 C277 1.327 . S
C275 H298 0.950 . S
C276 C275 1.349 . S
C276 C288 1.349 . S
C277 C275 1.327 . S
C277 C293 1.429 . S
C277 H299 0.950 . S
C278 H274 0.949 . S
C278 C286 1.574 . S
C278 C294 1.368 . S
H279 C287 0.950 . S
H280 C285 0.950 . S
H281 C286 0.949 . S
H282 C288 0.950 . S
H283 C289 0.950 . S
H284 C290 0.949 . S
C285 H280 0.950 . S
C285 C287 1.327 . S
C285 C291 1.429 . S
C286 C278 1.574 . S
C286 H281 0.949 . S
C286 C292 1.368 . S
C287 C271 1.349 . S
C287 H279 0.950 . S
C287 C285 1.327 . S
C288 C276 1.349 . S
C288 H282 0.950 . S
C288 C289 1.327 . S
C289 H283 0.950 . S
C289 C288 1.327 . S
C289 C293 1.429 . S
C290 C273 1.574 . S
C290 H284 0.949 . S
C290 C294 1.368 . S
C291 C272 1.429 . S
C291 C285 1.429 . S
C291 C292 1.523 . S
C292 C273 1.368 . S
C292 C286 1.368 . S
C292 C291 1.523 . S
C293 C277 1.429 . S
C293 C289 1.429 . S
C293 C294 1.523 . S
C294 C278 1.368 . S
C294 C290 1.368 . S
C294 C293 1.523 . S
H295 C270 0.950 . S
H296 C272 0.950 . S
H297 C273 0.949 . S
H298 C275 0.950 . S
H299 C277 0.950 . S
C300 C301 1.349 . S
C300 C302 1.327 . S
C300 H325 0.950 . S
C301 C300 1.349 . S
C301 C317 1.349 . S
C302 C300 1.327 . S
C302 C321 1.429 . S
C302 H326 0.950 . S
C303 C320 1.574 1_554 S
C303 C322 1.368 . S
C303 H327 0.949 . S
H304 C308 0.949 . S
C305 C306 1.349 . S
C305 C307 1.327 . S
C305 H328 0.950 . S
C306 C305 1.349 . S
C306 C318 1.349 . S
C307 C305 1.327 . S
C307 C323 1.429 . S
C307 H329 0.950 . S
C308 H304 0.949 . S
C308 C316 1.574 . S
C308 C324 1.368 . S
H309 C317 0.950 . S
H310 C315 0.950 . S
H311 C316 0.946 1_554 S
H312 C318 0.950 . S
H313 C319 0.950 . S
H314 C320 0.949 . S
C315 H310 0.950 . S
C315 C317 1.327 . S
C315 C321 1.429 . S
C316 C308 1.574 . S
C316 H311 0.946 1_556 S
C316 C322 1.368 1_556 S
C317 C301 1.349 . S
C317 H309 0.950 . S
C317 C315 1.327 . S
C318 C306 1.349 . S
C318 H312 0.950 . S
C318 C319 1.327 . S
C319 H313 0.950 . S
C319 C318 1.327 . S
C319 C323 1.429 . S
C320 C303 1.574 1_556 S
C320 H314 0.949 . S
C320 C324 1.368 . S
C321 C302 1.429 . S
C321 C315 1.429 . S
C321 C322 1.523 . S
C322 C303 1.368 . S
C322 C316 1.368 1_554 S
C322 C321 1.523 . S
C323 C307 1.429 . S
C323 C319 1.429 . S
C323 C324 1.523 . S
C324 C308 1.368 . S
C324 C320 1.368 . S
C324 C323 1.523 . S
H325 C300 0.950 . S
H326 C302 0.950 . S
H327 C303 0.949 . S
H328 C305 0.950 . S
H329 C307 0.950 . S
C330 C331 1.349 . S
C330 C332 1.327 . S
C330 H355 0.950 . S
C331 C330 1.349 . S
C331 C347 1.349 . S
C332 C330 1.327 . S
C332 C351 1.429 . S
C332 H356 0.950 . S
C333 C350 1.574 . S
C333 C352 1.368 . S
C333 H357 0.949 . S
H334 C338 0.949 . S
C335 C336 1.349 . S
C335 C337 1.327 . S
C335 H358 0.950 . S
C336 C335 1.349 . S
C336 C348 1.349 . S
C337 C335 1.327 . S
C337 C353 1.429 . S
C337 H359 0.950 . S
C338 H334 0.949 . S
C338 C346 1.574 . S
C338 C354 1.368 . S
H339 C347 0.950 . S
H340 C345 0.950 . S
H341 C346 0.949 . S
H342 C348 0.950 . S
H343 C349 0.950 . S
H344 C350 0.949 . S
C345 H340 0.950 . S
C345 C347 1.327 . S
C345 C351 1.429 . S
C346 C338 1.574 . S
C346 H341 0.949 . S
C346 C352 1.368 . S
C347 C331 1.349 . S
C347 H339 0.950 . S
C347 C345 1.327 . S
C348 C336 1.349 . S
C348 H342 0.950 . S
C348 C349 1.327 . S
C349 H343 0.950 . S
C349 C348 1.327 . S
C349 C353 1.429 . S
C350 C333 1.574 . S
C350 H344 0.949 . S
C350 C354 1.368 . S
C351 C332 1.429 . S
C351 C345 1.429 . S
C351 C352 1.523 . S
C352 C333 1.368 . S
C352 C346 1.368 . S
C352 C351 1.523 . S
C353 C337 1.429 . S
C353 C349 1.429 . S
C353 C354 1.523 . S
C354 C338 1.368 . S
C354 C350 1.368 . S
C354 C353 1.523 . S
H355 C330 0.950 . S
H356 C332 0.950 . S
H357 C333 0.949 . S
H358 C335 0.950 . S
H359 C337 0.950 . S
C360 C361 1.349 . S
C360 C362 1.327 . S
C360 H385 0.950 . S
C361 C360 1.349 . S
C361 C377 1.349 . S
C362 C360 1.327 . S
C362 C381 1.429 . S
C362 H386 0.950 . S
C363 C380 1.574 . S
C363 C382 1.368 . S
C363 H387 0.949 . S
H364 C368 0.949 . S
C365 C366 1.349 . S
C365 C367 1.327 . S
C365 H388 0.950 . S
C366 C365 1.349 . S
C366 C378 1.349 . S
C367 C365 1.327 . S
C367 C383 1.429 . S
C367 H389 0.950 . S
C368 H364 0.949 . S
C368 C376 1.574 . S
C368 C384 1.368 . S
H369 C377 0.950 . S
H370 C375 0.950 . S
H371 C376 0.949 . S
H372 C378 0.950 . S
H373 C379 0.950 . S
H374 C380 0.949 . S
C375 H370 0.950 . S
C375 C377 1.327 . S
C375 C381 1.429 . S
C376 C368 1.574 . S
C376 H371 0.949 . S
C376 C382 1.368 . S
C377 C361 1.349 . S
C377 H369 0.950 . S
C377 C375 1.327 . S
C378 C366 1.349 . S
C378 H372 0.950 . S
C378 C379 1.327 . S
C379 H373 0.950 . S
C379 C378 1.327 . S
C379 C383 1.429 . S
C380 C363 1.574 . S
C380 H374 0.949 . S
C380 C384 1.368 . S
C381 C362 1.429 . S
C381 C375 1.429 . S
C381 C382 1.523 . S
C382 C363 1.368 . S
C382 C376 1.368 . S
C382 C381 1.523 . S
C383 C367 1.429 . S
C383 C379 1.429 . S
C383 C384 1.523 . S
C384 C368 1.368 . S
C384 C380 1.368 . S
C384 C383 1.523 . S
H385 C360 0.950 . S
H386 C362 0.950 . S
H387 C363 0.949 . S
H388 C365 0.950 . S
H389 C367 0.950 . S
C390 C391 1.349 . S
C390 C392 1.327 . S
C390 H415 0.950 . S
C391 C390 1.349 . S
C391 C407 1.349 . S
C392 C390 1.327 . S
C392 C411 1.429 . S
C392 H416 0.950 . S
C393 C410 1.574 . S
C393 C412 1.368 . S
C393 H417 0.949 . S
H394 C398 0.949 . S
C395 C396 1.349 . S
C395 C397 1.327 . S
C395 H418 0.950 . S
C396 C395 1.349 . S
C396 C408 1.349 . S
C397 C395 1.327 . S
C397 C413 1.429 . S
C397 H419 0.950 . S
C398 H394 0.949 . S
C398 C406 1.574 . S
C398 C414 1.368 . S
H399 C407 0.950 . S
H400 C405 0.950 . S
H401 C406 0.949 . S
H402 C408 0.950 . S
H403 C409 0.950 . S
H404 C410 0.949 . S
C405 H400 0.950 . S
C405 C407 1.327 . S
C405 C411 1.429 . S
C406 C398 1.574 . S
C406 H401 0.949 . S
C406 C412 1.368 . S
C407 C391 1.349 . S
C407 H399 0.950 . S
C407 C405 1.327 . S
C408 C396 1.349 . S
C408 H402 0.950 . S
C408 C409 1.327 . S
C409 H403 0.950 . S
C409 C408 1.327 . S
C409 C413 1.429 . S
C410 C393 1.574 . S
C410 H404 0.949 . S
C410 C414 1.368 . S
C411 C392 1.429 . S
C411 C405 1.429 . S
C411 C412 1.523 . S
C412 C393 1.368 . S
C412 C406 1.368 . S
C412 C411 1.523 . S
C413 C397 1.429 . S
C413 C409 1.429 . S
C413 C414 1.523 . S
C414 C398 1.368 . S
C414 C410 1.368 . S
C414 C413 1.523 . S
H415 C390 0.950 . S
H416 C392 0.950 . S
H417 C393 0.949 . S
H418 C395 0.950 . S
H419 C397 0.950 . S
C420 C421 1.349 . S
C420 C422 1.327 . S
C420 H445 0.950 . S
C421 C420 1.349 . S
C421 C437 1.349 . S
C422 C420 1.327 . S
C422 C441 1.429 . S
C422 H446 0.950 . S
C423 C440 1.574 . S
C423 C442 1.368 . S
C423 H447 0.949 . S
H424 C428 0.949 . S
C425 C426 1.349 . S
C425 C427 1.327 . S
C425 H448 0.950 . S
C426 C425 1.349 . S
C426 C438 1.349 . S
C427 C425 1.327 . S
C427 C443 1.429 . S
C427 H449 0.950 . S
C428 H424 0.949 . S
C428 C436 1.574 . S
C428 C444 1.368 . S
H429 C437 0.950 . S
H430 C435 0.950 . S
H431 C436 0.949 . S
H432 C438 0.950 . S
H433 C439 0.950 . S
H434 C440 0.949 . S
C435 H430 0.950 . S
C435 C437 1.327 . S
C435 C441 1.429 . S
C436 C428 1.574 . S
C436 H431 0.949 . S
C436 C442 1.368 . S
C437 C421 1.349 . S
C437 H429 0.950 . S
C437 C435 1.327 . S
C438 C426 1.349 . S
C438 H432 0.950 . S
C438 C439 1.327 . S
C439 H433 0.950 . S
C439 C438 1.327 . S
C439 C443 1.429 . S
C440 C423 1.574 . S
C440 H434 0.949 . S
C440 C444 1.368 . S
C441 C422 1.429 . S
C441 C435 1.429 . S
C441 C442 1.523 . S
C442 C423 1.368 . S
C442 C436 1.368 . S
C442 C441 1.523 . S
C443 C427 1.429 . S
C443 C439 1.429 . S
C443 C444 1.523 . S
C444 C428 1.368 . S
C444 C440 1.368 . S
C444 C443 1.523 . S
H445 C420 0.950 . S
H446 C422 0.950 . S
H447 C423 0.949 . S
H448 C425 0.950 . S
H449 C427 0.950 . S
C450 C451 1.349 . S
C450 C452 1.327 . S
C450 H475 0.950 . S
C451 C450 1.349 . S
C451 C467 1.349 . S
C452 C450 1.327 . S
C452 C471 1.429 . S
C452 H476 0.950 . S
C453 C470 1.574 . S
C453 C472 1.368 . S
C453 H477 0.949 . S
H454 C458 0.949 . S
C455 C456 1.349 . S
C455 C457 1.327 1_655 S
C455 H478 0.950 . S
C456 C455 1.349 . S
C456 C468 1.349 . S
C457 C455 1.327 1_455 S
C457 C473 1.429 . S
C457 H479 0.950 . S
C458 H454 0.949 . S
C458 C466 1.574 . S
C458 C474 1.368 . S
H459 C467 0.950 . S
H460 C465 0.950 . S
H461 C466 0.949 . S
H462 C468 0.950 . S
H463 C469 0.950 . S
H464 C470 0.949 . S
C465 H460 0.950 . S
C465 C467 1.327 . S
C465 C471 1.429 . S
C466 C458 1.574 . S
C466 H461 0.949 . S
C466 C472 1.368 . S
C467 C451 1.349 . S
C467 H459 0.950 . S
C467 C465 1.327 . S
C468 C456 1.349 . S
C468 H462 0.950 . S
C468 C469 1.327 . S
C469 H463 0.950 . S
C469 C468 1.327 . S
C469 C473 1.429 1_655 S
C470 C453 1.574 . S
C470 H464 0.949 . S
C470 C474 1.368 . S
C471 C452 1.429 . S
C471 C465 1.429 . S
C471 C472 1.523 . S
C472 C453 1.368 . S
C472 C466 1.368 . S
C472 C471 1.523 . S
C473 C457 1.429 . S
C473 C469 1.429 1_455 S
C473 C474 1.523 . S
C474 C458 1.368 . S
C474 C470 1.368 . S
C474 C473 1.523 . S
H475 C450 0.950 . S
H476 C452 0.950 . S
H477 C453 0.949 . S
H478 C455 0.950 . S
H479 C457 0.950 . S
C480 C481 1.349 . S
C480 C482 1.327 . S
C480 H505 0.950 . S
C481 C480 1.349 . S
C481 C497 1.349 . S
C482 C480 1.327 . S
C482 C501 1.429 1_545 S
C482 H506 0.950 . S
C483 C500 1.574 . S
C483 C502 1.368 . S
C483 H507 0.949 . S
H484 C488 0.949 . S
C485 C486 1.349 . S
C485 C487 1.327 . S
C485 H508 0.950 . S
C486 C485 1.349 . S
C486 C498 1.349 . S
C487 C485 1.327 . S
C487 C503 1.429 . S
C487 H509 0.950 . S
C488 H484 0.949 . S
C488 C496 1.574 . S
C488 C504 1.368 . S
H489 C497 0.950 . S
H490 C495 0.950 . S
H491 C496 0.949 . S
H492 C498 0.950 . S
H493 C499 0.950 . S
H494 C500 0.949 . S
C495 H490 0.950 . S
C495 C497 1.327 1_565 S
C495 C501 1.429 . S
C496 C488 1.574 . S
C496 H491 0.949 . S
C496 C502 1.368 . S
C497 C481 1.349 . S
C497 H489 0.950 . S
C497 C495 1.327 1_545 S
C498 C486 1.349 . S
C498 H492 0.950 . S
C498 C499 1.327 . S
C499 H493 0.950 . S
C499 C498 1.327 . S
C499 C503 1.429 . S
C500 C483 1.574 . S
C500 H494 0.949 . S
C500 C504 1.368 . S
C501 C482 1.429 1_565 S
C501 C495 1.429 . S
C501 C502 1.523 . S
C502 C483 1.368 . S
C502 C496 1.368 . S
C502 C501 1.523 . S
C503 C487 1.429 . S
C503 C499 1.429 . S
C503 C504 1.523 . S
C504 C488 1.368 . S
C504 C500 1.368 . S
C504 C503 1.523 . S
H505 C480 0.950 . S
H506 C482 0.950 . S
H507 C483 0.949 . S
H508 C485 0.950 . S
H509 C487 0.950 . S
C510 C511 1.349 . S
C510 C512 1.327 . S
C510 H535 0.950 . S
C511 C510 1.349 . S
C511 C527 1.349 . S
C512 C510 1.327 . S
C512 C531 1.429 . S
C512 H536 0.950 . S
C513 C530 1.574 . S
C513 C532 1.368 . S
C513 H537 0.949 . S
H514 C518 0.949 . S
C515 C516 1.349 . S
C515 C517 1.327 . S
C515 H538 0.950 . S
C516 C515 1.349 . S
C516 C528 1.349 . S
C517 C515 1.327 . S
C517 C533 1.429 . S
C517 H539 0.950 . S
C518 H514 0.949 . S
C518 C526 1.574 . S
C518 C534 1.368 . S
H519 C527 0.950 . S
H520 C525 0.950 . S
H521 C526 0.949 . S
H522 C528 0.950 . S
H523 C529 0.950 . S
H524 C530 0.949 . S
C525 H520 0.950 . S
C525 C527 1.327 . S
C525 C531 1.429 . S
C526 C518 1.574 . S
C526 H521 0.949 . S
C526 C532 1.368 . S
C527 C511 1.349 . S
C527 H519 0.950 . S
C527 C525 1.327 . S
C528 C516 1.349 . S
C528 H522 0.950 . S
C528 C529 1.327 . S
C529 H523 0.950 . S
C529 C528 1.327 . S
C529 C533 1.429 . S
C530 C513 1.574 . S
C530 H524 0.949 . S
C530 C534 1.368 . S
C531 C512 1.429 . S
C531 C525 1.429 . S
C531 C532 1.523 . S
C532 C513 1.368 . S
C532 C526 1.368 . S
C532 C531 1.523 . S
C533 C517 1.429 . S
C533 C529 1.429 . S
C533 C534 1.523 . S
C534 C518 1.368 . S
C534 C530 1.368 . S
C534 C533 1.523 . S
H535 C510 0.950 . S
H536 C512 0.950 . S
H537 C513 0.949 . S
H538 C515 0.950 . S
H539 C517 0.950 . S
C540 C541 1.349 . S
C540 C542 1.327 1_455 S
C540 H565 0.950 . S
C541 C540 1.349 . S
C541 C557 1.349 . S
C542 C540 1.327 1_655 S
C542 C561 1.429 . S
C542 H566 0.950 . S
C543 C560 1.574 . S
C543 C562 1.368 . S
C543 H567 0.949 . S
H544 C548 0.949 . S
C545 C546 1.349 . S
C545 C547 1.327 . S
C545 H568 0.950 . S
C546 C545 1.349 . S
C546 C558 1.349 . S
C547 C545 1.327 . S
C547 C563 1.429 . S
C547 H569 0.950 . S
C548 H544 0.949 . S
C548 C556 1.574 . S
C548 C564 1.368 . S
H549 C557 0.950 . S
H550 C555 0.950 . S
H551 C556 0.949 . S
H552 C558 0.950 . S
H553 C559 0.950 . S
H554 C560 0.949 . S
C555 H550 0.950 . S
C555 C557 1.327 . S
C555 C561 1.429 1_455 S
C556 C548 1.574 . S
C556 H551 0.949 . S
C556 C562 1.368 . S
C557 C541 1.349 . S
C557 H549 0.950 . S
C557 C555 1.327 . S
C558 C546 1.349 . S
C558 H552 0.950 . S
C558 C559 1.327 . S
C559 H553 0.950 . S
C559 C558 1.327 . S
C559 C563 1.429 . S
C560 C543 1.574 . S
C560 H554 0.949 . S
C560 C564 1.368 . S
C561 C542 1.429 . S
C561 C555 1.429 1_655 S
C561 C562 1.523 . S
C562 C543 1.368 . S
C562 C556 1.368 . S
C562 C561 1.523 . S
C563 C547 1.429 . S
C563 C559 1.429 . S
C563 C564 1.523 . S
C564 C548 1.368 . S
C564 C560 1.368 . S
C564 C563 1.523 . S
H565 C540 0.950 . S
H566 C542 0.950 . S
H567 C543 0.949 . S
H568 C545 0.950 . S
H569 C547 0.950 . S
C570 C571 1.349 1_545 S
C570 C572 1.327 . S
C570 H595 0.950 . S
C571 C570 1.349 1_565 S
C571 C587 1.349 . S
C572 C570 1.327 . S
C572 C591 1.429 . S
C572 H596 0.950 . S
C573 C590 1.574 . S
C573 C592 1.368 . S
C573 H597 0.949 1_545 S
H574 C578 0.949 . S
C575 C576 1.349 . S
C575 C577 1.327 . S
C575 H598 0.950 . S
C576 C575 1.349 . S
C576 C588 1.349 . S
C577 C575 1.327 . S
C577 C593 1.429 . S
C577 H599 0.950 . S
C578 H574 0.949 . S
C578 C586 1.574 . S
C578 C594 1.368 . S
H579 C587 0.950 . S
H580 C585 0.950 . S
H581 C586 0.949 . S
H582 C588 0.950 . S
H583 C589 0.950 . S
H584 C590 0.949 . S
C585 H580 0.950 . S
C585 C587 1.327 . S
C585 C591 1.429 1_565 S
C586 C578 1.574 . S
C586 H581 0.949 . S
C586 C592 1.368 . S
C587 C571 1.349 . S
C587 H579 0.950 . S
C587 C585 1.327 . S
C588 C576 1.349 . S
C588 H582 0.950 . S
C588 C589 1.327 . S
C589 H583 0.950 . S
C589 C588 1.327 . S
C589 C593 1.429 . S
C590 C573 1.574 . S
C590 H584 0.949 . S
C590 C594 1.368 . S
C591 C572 1.429 . S
C591 C585 1.429 1_545 S
C591 C592 1.523 . S
C592 C573 1.368 . S
C592 C586 1.368 . S
C592 C591 1.523 . S
C593 C577 1.429 . S
C593 C589 1.429 . S
C593 C594 1.523 . S
C594 C578 1.368 . S
C594 C590 1.368 . S
C594 C593 1.523 . S
H595 C570 0.950 . S
H596 C572 0.950 . S
H597 C573 0.949 1_565 S
H598 C575 0.950 . S
H599 C577 0.950 . S
C600 C601 1.349 . S
C600 C602 1.327 . S
C600 H625 0.950 . S
C601 C600 1.349 . S
C601 C617 1.349 . S
C602 C600 1.327 . S
C602 C621 1.429 . S
C602 H626 0.950 . S
C603 C620 1.574 . S
C603 C622 1.368 . S
C603 H627 0.949 . S
H604 C608 0.949 . S
C605 C606 1.349 1_556 S
C605 C607 1.327 . S
C605 H628 0.950 . S
C606 C605 1.349 1_554 S
C606 C618 1.349 . S
C607 C605 1.327 . S
C607 C623 1.429 . S
C607 H629 0.950 . S
C608 H604 0.949 . S
C608 C616 1.574 . S
C608 C624 1.368 . S
H609 C617 0.950 . S
H610 C615 0.950 . S
H611 C616 0.949 . S
H612 C618 0.950 . S
H613 C619 0.950 . S
H614 C620 0.949 . S
C615 H610 0.950 . S
C615 C617 1.327 . S
C615 C621 1.429 . S
C616 C608 1.574 . S
C616 H611 0.949 . S
C616 C622 1.368 . S
C617 C601 1.349 . S
C617 H609 0.950 . S
C617 C615 1.327 . S
C618 C606 1.349 . S
C618 H612 0.950 . S
C618 C619 1.327 1_554 S
C619 H613 0.950 . S
C619 C618 1.327 1_556 S
C619 C623 1.429 . S
C620 C603 1.574 . S
C620 H614 0.949 . S
C620 C624 1.368 . S
C621 C602 1.429 . S
C621 C615 1.429 . S
C621 C622 1.523 . S
C622 C603 1.368 . S
C622 C616 1.368 . S
C622 C621 1.523 . S
C623 C607 1.429 . S
C623 C619 1.429 . S
C623 C624 1.523 . S
C624 C608 1.368 . S
C624 C620 1.368 . S
C624 C623 1.523 . S
H625 C600 0.950 . S
H626 C602 0.950 . S
H627 C603 0.949 . S
H628 C605 0.950 . S
H629 C607 0.950 . S
C630 C631 1.349 . S
C630 C632 1.327 . S
C630 H655 0.950 . S
C631 C630 1.349 . S
C631 C647 1.349 . S
C632 C630 1.327 . S
C632 C651 1.429 . S
C632 H656 0.950 . S
C633 C650 1.574 . S
C633 C652 1.368 1_455 S
C633 H657 0.949 . S
H634 C638 0.949 . S
C635 C636 1.349 . S
C635 C637 1.327 . S
C635 H658 0.950 . S
C636 C635 1.349 . S
C636 C648 1.349 . S
C637 C635 1.327 . S
C637 C653 1.429 . S
C637 H659 0.950 . S
C638 H634 0.949 . S
C638 C646 1.574 . S
C638 C654 1.368 1_655 S
H639 C647 0.950 . S
H640 C645 0.950 1_455 S
H641 C646 0.949 . S
H642 C648 0.950 . S
H643 C649 0.950 1_655 S
H644 C650 0.949 . S
C645 H640 0.950 1_655 S
C645 C647 1.327 . S
C645 C651 1.429 . S
C646 C638 1.574 . S
C646 H641 0.949 . S
C646 C652 1.368 . S
C647 C631 1.349 . S
C647 H639 0.950 . S
C647 C645 1.327 . S
C648 C636 1.349 . S
C648 H642 0.950 . S
C648 C649 1.327 . S
C649 H643 0.950 1_455 S
C649 C648 1.327 . S
C649 C653 1.429 . S
C650 C633 1.574 . S
C650 H644 0.949 . S
C650 C654 1.368 . S
C651 C632 1.429 . S
C651 C645 1.429 . S
C651 C652 1.523 . S
C652 C633 1.368 1_655 S
C652 C646 1.368 . S
C652 C651 1.523 . S
C653 C637 1.429 . S
C653 C649 1.429 . S
C653 C654 1.523 . S
C654 C638 1.368 1_455 S
C654 C650 1.368 . S
C654 C653 1.523 . S
H655 C630 0.950 . S
H656 C632 0.950 . S
H657 C633 0.949 . S
H658 C635 0.950 . S
H659 C637 0.950 . S
C660 C661 1.349 . S
C660 C662 1.327 . S
C660 H685 0.950 . S
C661 C660 1.349 . S
C661 C677 1.349 . S
C662 C660 1.327 . S
C662 C681 1.429 . S
C662 H686 0.950 . S
C663 C680 1.574 . S
C663 C682 1.368 1_545 S
C663 H687 0.949 . S
H664 C668 0.949 . S
C665 C666 1.349 . S
C665 C667 1.327 . S
C665 H688 0.950 . S
C666 C665 1.349 . S
C666 C678 1.349 . S
C667 C665 1.327 . S
C667 C683 1.429 . S
C667 H689 0.950 . S
C668 H664 0.949 . S
C668 C676 1.574 . S
C668 C684 1.368 1_565 S
H669 C677 0.950 . S
H670 C675 0.950 . S
H671 C676 0.949 . S
H672 C678 0.950 . S
H673 C679 0.950 . S
H674 C680 0.949 . S
C675 H670 0.950 . S
C675 C677 1.327 . S
C675 C681 1.429 . S
C676 C668 1.574 . S
C676 H671 0.949 . S
C676 C682 1.368 . S
C677 C661 1.349 . S
C677 H669 0.950 . S
C677 C675 1.327 . S
C678 C666 1.349 . S
C678 H672 0.950 . S
C678 C679 1.327 . S
C679 H673 0.950 . S
C679 C678 1.327 . S
C679 C683 1.429 . S
C680 C663 1.574 . S
C680 H674 0.949 . S
C680 C684 1.368 . S
C681 C662 1.429 . S
C681 C675 1.429 . S
C681 C682 1.523 . S
C682 C663 1.368 1_565 S
C682 C676 1.368 . S
C682 C681 1.523 . S
C683 C667 1.429 . S
C683 C679 1.429 . S
C683 C684 1.523 . S
C684 C668 1.368 1_545 S
C684 C680 1.368 . S
C684 C683 1.523 . S
H685 C660 0.950 . S
H686 C662 0.950 . S
H687 C663 0.949 . S
H688 C665 0.950 . S
H689 C667 0.950 . S
C690 C691 1.349 . S
C690 C692 1.327 . S
C690 H715 0.950 . S
C691 C690 1.349 . S
C691 C707 1.349 . S
C692 C690 1.327 . S
C692 C711 1.429 . S
C692 H716 0.950 . S
C693 C710 1.574 . S
C693 C712 1.368 . S
C693 H717 0.949 . S
H694 C698 0.949 . S
C695 C696 1.349 . S
C695 C697 1.327 1_554 S
C695 H718 0.950 . S
C696 C695 1.349 . S
C696 C708 1.349 1_554 S
C697 C695 1.327 1_556 S
C697 C713 1.429 . S
C697 H719 0.950 . S
C698 H694 0.949 . S
C698 C706 1.574 . S
C698 C714 1.368 . S
H699 C707 0.950 . S
H700 C705 0.950 . S
H701 C706 0.949 . S
H702 C708 0.950 . S
H703 C709 0.950 . S
H704 C710 0.949 . S
C705 H700 0.950 . S
C705 C707 1.327 . S
C705 C711 1.429 . S
C706 C698 1.574 . S
C706 H701 0.949 . S
C706 C712 1.368 . S
C707 C691 1.349 . S
C707 H699 0.950 . S
C707 C705 1.327 . S
C708 C696 1.349 1_556 S
C708 H702 0.950 . S
C708 C709 1.327 . S
C709 H703 0.950 . S
C709 C708 1.327 . S
C709 C713 1.429 . S
C710 C693 1.574 . S
C710 H704 0.949 . S
C710 C714 1.368 . S
C711 C692 1.429 . S
C711 C705 1.429 . S
C711 C712 1.523 . S
C712 C693 1.368 . S
C712 C706 1.368 . S
C712 C711 1.523 . S
C713 C697 1.429 . S
C713 C709 1.429 . S
C713 C714 1.523 . S
C714 C698 1.368 . S
C714 C710 1.368 . S
C714 C713 1.523 . S
H715 C690 0.950 . S
H716 C692 0.950 . S
H717 C693 0.949 . S
H718 C695 0.950 . S
H719 C697 0.950 . S
C720 C721 1.349 . S
C720 C722 1.327 . S
C720 H745 0.950 . S
C721 C720 1.349 . S
C721 C737 1.349 . S
C722 C720 1.327 . S
C722 C741 1.429 . S
C722 H746 0.950 . S
C723 C740 1.574 1_455 S
C723 C742 1.368 . S
C723 H747 0.949 . S
H724 C728 0.949 . S
C725 C726 1.349 . S
C725 C727 1.327 . S
C725 H748 0.950 . S
C726 C725 1.349 . S
C726 C738 1.349 . S
C727 C725 1.327 . S
C727 C743 1.429 . S
C727 H749 0.950 . S
C728 H724 0.949 . S
C728 C736 1.574 1_655 S
C728 C744 1.368 . S
H729 C737 0.950 . S
H730 C735 0.950 . S
H731 C736 0.949 . S
H732 C738 0.950 . S
H733 C739 0.950 . S
H734 C740 0.949 . S
C735 H730 0.950 . S
C735 C737 1.327 . S
C735 C741 1.429 . S
C736 C728 1.574 1_455 S
C736 H731 0.949 . S
C736 C742 1.368 . S
C737 C721 1.349 . S
C737 H729 0.950 . S
C737 C735 1.327 . S
C738 C726 1.349 . S
C738 H732 0.950 . S
C738 C739 1.327 . S
C739 H733 0.950 . S
C739 C738 1.327 . S
C739 C743 1.429 . S
C740 C723 1.574 1_655 S
C740 H734 0.949 . S
C740 C744 1.368 . S
C741 C722 1.429 . S
C741 C735 1.429 . S
C741 C742 1.523 . S
C742 C723 1.368 . S
C742 C736 1.368 . S
C742 C741 1.523 . S
C743 C727 1.429 . S
C743 C739 1.429 . S
C743 C744 1.523 . S
C744 C728 1.368 . S
C744 C740 1.368 . S
C744 C743 1.523 . S
H745 C720 0.950 . S
H746 C722 0.950 . S
H747 C723 0.949 . S
H748 C725 0.950 . S
H749 C727 0.950 . S
C750 C751 1.349 . S
C750 C752 1.327 . S
C750 H775 0.950 . S
C751 C750 1.349 . S
C751 C767 1.349 . S
C752 C750 1.327 . S
C752 C771 1.429 . S
C752 H776 0.950 . S
C753 C770 1.574 . S
C753 C772 1.368 1_565 S
C753 H777 0.949 . S
H754 C758 0.949 . S
C755 C756 1.349 . S
C755 C757 1.327 . S
C755 H778 0.950 . S
C756 C755 1.349 . S
C756 C768 1.349 . S
C757 C755 1.327 . S
C757 C773 1.429 . S
C757 H779 0.950 . S
C758 H754 0.949 . S
C758 C766 1.574 . S
C758 C774 1.368 1_545 S
H759 C767 0.950 . S
H760 C765 0.950 . S
H761 C766 0.949 . S
H762 C768 0.950 . S
H763 C769 0.950 1_545 S
H764 C770 0.949 . S
C765 H760 0.950 . S
C765 C767 1.327 . S
C765 C771 1.429 . S
C766 C758 1.574 . S
C766 H761 0.949 . S
C766 C772 1.368 . S
C767 C751 1.349 . S
C767 H759 0.950 . S
C767 C765 1.327 . S
C768 C756 1.349 . S
C768 H762 0.950 . S
C768 C769 1.327 . S
C769 H763 0.950 1_565 S
C769 C768 1.327 . S
C769 C773 1.429 . S
C770 C753 1.574 . S
C770 H764 0.949 . S
C770 C774 1.368 . S
C771 C752 1.429 . S
C771 C765 1.429 . S
C771 C772 1.523 . S
C772 C753 1.368 1_545 S
C772 C766 1.368 . S
C772 C771 1.523 . S
C773 C757 1.429 . S
C773 C769 1.429 . S
C773 C774 1.523 . S
C774 C758 1.368 1_565 S
C774 C770 1.368 . S
C774 C773 1.523 . S
H775 C750 0.950 . S
H776 C752 0.950 . S
H777 C753 0.949 . S
H778 C755 0.950 . S
H779 C757 0.950 . S
C241 C179 1.327 . S
C246 C6 1.316 . S
C271 C206 1.317 . S
C276 C59 1.327 . S
C301 C19 1.327 . S
C306 C86 1.316 . S
C331 C46 1.316 . S
C336 C139 1.327 . S
C361 C99 1.327 . S
C366 C166 1.316 . S
C391 C126 1.316 . S
C396 C219 1.327 . S
C421 C9 0.805 . S
C426 C138 0.836 . S
C451 C169 0.805 . S
C456 C58 0.836 . S
C481 C218 0.836 . S
C486 C89 0.806 . S
C511 C98 0.837 . S
C516 C209 0.806 . S
C541 C18 0.836 . S
C546 C129 0.806 . S
C571 C178 0.836 . S
C576 C49 0.805 . S
C601 C215 0.749 . S
C606 C15 0.749 . S
C631 C50 1.684 . S
C636 C10 1.684 . S
C661 C95 0.749 . S
C666 C55 0.749 . S
C691 C90 1.683 . S
C696 C130 1.683 . S
C721 C175 0.749 . S
C726 C135 0.749 . S
C751 C210 1.683 . S
C756 C170 1.683 . S
