# Generated by pormake.
# Topology can, (4)-cn, num edge types: 1
# Building blocks:
#     Node 0, Type 0, BuildingBlock: KUFVIS_clean_sbu_0, # of connection points: 4
#     Node 1, Type 0, BuildingBlock: KUFVIS_clean_sbu_0, # of connection points: 4
#     Node 2, Type 0, BuildingBlock: KUFVIS_clean_sbu_0, # of connection points: 4
#     Node 3, Type 0, BuildingBlock: KUFVIS_clean_sbu_0, # of connection points: 4
#     Node 4, Type 0, BuildingBlock: KUFVIS_clean_sbu_0, # of connection points: 4
#     Node 5, Type 0, BuildingBlock: KUFVIS_clean_sbu_0, # of connection points: 4
#     Node 6, Type 0, BuildingBlock: KUFVIS_clean_sbu_0, # of connection points: 4
#     Node 7, Type 0, BuildingBlock: KUFVIS_clean_sbu_0, # of connection points: 4
#     Node 8, Type 0, BuildingBlock: KUFVIS_clean_sbu_0, # of connection points: 4
#     Node 9, Type 0, BuildingBlock: KUFVIS_clean_sbu_0, # of connection points: 4
#     Node 10, Type 0, BuildingBlock: KUFVIS_clean_sbu_0, # of connection points: 4
#     Node 11, Type 0, BuildingBlock: KUFVIS_clean_sbu_0, # of connection points: 4
#     Edge 12, Type (0, 0), None
#     Edge 13, Type (0, 0), None
#     Edge 14, Type (0, 0), None
#     Edge 15, Type (0, 0), None
#     Edge 16, Type (0, 0), None
#     Edge 17, Type (0, 0), None
#     Edge 18, Type (0, 0), None
#     Edge 19, Type (0, 0), None
#     Edge 20, Type (0, 0), None
#     Edge 21, Type (0, 0), None
#     Edge 22, Type (0, 0), None
#     Edge 23, Type (0, 0), None
#     Edge 24, Type (0, 0), None
#     Edge 25, Type (0, 0), None
#     Edge 26, Type (0, 0), None
#     Edge 27, Type (0, 0), None
#     Edge 28, Type (0, 0), None
#     Edge 29, Type (0, 0), None
#     Edge 30, Type (0, 0), None
#     Edge 31, Type (0, 0), None
#     Edge 32, Type (0, 0), None
#     Edge 33, Type (0, 0), None
#     Edge 34, Type (0, 0), None
#     Edge 35, Type (0, 0), None
# Relax obj value: 0.073
# Max RMSD: 0.070
# Mean RMSD: 0.064
data_MOF--net-can--node1-KUFVIS_clean_sbu_0--edge1-none
_symmetry_space_group_name_H-M    P1
_symmetry_Int_Tables_number       1
_symmetry_cell_setting            triclinic
loop_
_symmetry_equiv_pos_as_xyz
'x, y, z'
_cell_length_a     24.1452
_cell_length_b     24.643382
_cell_length_c     11.757077
_cell_angle_alpha  90.000027
_cell_angle_beta   89.999685
_cell_angle_gamma 119.42686
loop_
_atom_site_label
_atom_site_type_symbol
_atom_site_fract_x
_atom_site_fract_y
_atom_site_fract_z
_atom_type_partial_charge
Mn0 Mn 0.09033 0.42434 0.2001 0.0
Mn1 Mn 0.16912 0.50969 0.42676 0.0
C2 C 0.08846 0.51468 0.24691 0.0
C3 C 0.05878 0.38232 1.0159 0.0
C4 C 0.04437 0.3985 0.4443 0.0
O5 O 0.1602 0.40509 0.20104 0.0
O6 O 0.18142 0.43711 0.38149 0.0
C7 C 0.30472 0.55068 0.41884 0.0
N8 N 0.25797 0.56571 0.40118 0.0
C9 C 0.33561 0.67478 0.41996 0.0
C10 C 0.38436 0.65979 0.42036 0.0
C11 C 0.36855 0.59733 0.42624 0.0
C12 C 0.27204 0.62578 0.41452 0.0
H13 H 0.29321 0.5037 0.43678 0.0
C14 C 0.19588 0.42059 0.28697 0.0
O15 O 0.03775 0.35008 0.10656 0.0
O16 O 0.10075 0.44083 0.03053 0.0
N17 N 0.16653 0.58311 0.47353 0.0
C18 C 0.12557 0.58482 0.55152 0.0
C19 C 0.14049 0.64137 0.60531 0.0
C20 C 0.19523 0.69604 0.575 0.0
C21 C 0.23788 0.6935 0.49867 0.0
C22 C 0.22338 0.63506 0.45349 0.0
H23 H 0.08392 0.54258 0.57805 0.0
O24 O 0.03895 0.46593 0.20727 0.0
O25 O 0.13898 0.51024 0.26909 0.0
O26 O 0.05465 0.37803 0.35284 0.0
O27 O 0.07739 0.45601 0.46723 0.0
C28 C 0.29882 0.74498 0.48309 0.0
C29 C 0.34801 0.73559 0.44297 0.0
H30 H 0.43369 0.6957 0.42808 0.0
H31 H 0.40529 0.58541 0.44233 0.0
H32 H 0.11118 0.64395 0.67153 0.0
H33 H 0.20753 0.73858 0.62039 0.0
H34 H 0.31004 0.79072 0.51386 0.0
H35 H 0.39629 0.77421 0.44322 0.0
Mn36 Mn 0.68624 0.08271 0.71748 0.0
Mn37 Mn 0.78491 0.02166 0.69596 0.0
C38 C 0.6989 0.04303 0.53872 0.0
C39 C 0.58466 0.07508 0.74776 0.0
C40 C 0.82825 0.16338 0.73768 0.0
O41 O 0.69551 0.05423 0.88634 0.0
O42 O 0.73526 0.98861 0.85004 0.0
C43 C 0.82645 0.91657 0.80442 0.0
N44 N 0.84947 0.96936 0.7427 0.0
C45 C 0.93707 0.95377 0.66669 0.0
C46 C 0.91623 0.90471 0.74426 0.0
C47 C 0.85764 0.88193 0.80029 0.0
C48 C 0.90422 0.98665 0.66196 0.0
H49 H 0.78187 0.89925 0.84949 0.0
C50 C 0.70869 1.01115 0.92 0.0
O51 O 0.63767 0.12606 0.76253 0.0
O52 O 0.58968 0.02615 0.72383 0.0
N53 N 0.85031 0.0742 0.52567 0.0
C54 C 0.81852 0.06644 0.39883 0.0
C55 C 0.86051 0.02019 0.27153 0.0
C56 C 0.91144 0.99802 0.3164 0.0
C57 C 0.93748 1.00431 0.44691 0.0
C58 C 0.91535 0.03236 0.5547 0.0
H59 H 0.79309 0.09169 0.38145 0.0
O60 O 0.67817 0.08264 0.54408 0.0
O61 O 0.71421 0.03162 0.63788 0.0
O62 O 0.77705 0.16188 0.70756 0.0
O63 O 0.82235 0.11265 0.77952 0.0
C64 C 0.97799 0.98094 0.47266 0.0
C65 C 0.98223 0.96242 0.58324 0.0
H66 H 0.94209 0.87996 0.75313 0.0
H67 H 0.83619 0.83685 0.84096 0.0
H68 H 0.84978 1.01266 0.18079 0.0
H69 H 0.9309 0.97981 0.25439 0.0
H70 H 1.00276 0.97189 0.40488 0.0
H71 H 1.01406 0.94436 0.59678 0.0
Mn72 Mn 0.60851 0.66386 0.30163 0.0
Mn73 Mn 0.77009 0.74556 0.33295 0.0
C74 C 0.67215 0.67516 0.14714 0.0
C75 C 0.51418 0.57033 0.31317 0.0
C76 C 0.67822 0.80355 0.31751 0.0
O77 O 0.61941 0.66707 0.47229 0.0
O78 O 0.72566 0.70675 0.48258 0.0
C79 C 0.83788 0.61425 0.36876 0.0
N80 N 0.81731 0.69251 0.29877 0.0
C81 C 0.88144 0.69082 0.08665 0.0
C82 C 0.89629 0.62929 0.12962 0.0
C83 C 0.87913 0.59185 0.26146 0.0
C84 C 0.84264 0.72023 0.17055 0.0
H85 H 0.82458 0.59183 0.46371 0.0
C86 C 0.66942 0.67845 0.52679 0.0
O87 O 0.51478 0.62314 0.31717 0.0
O88 O 0.56842 0.5716 0.30638 0.0
N89 N 0.81254 0.79397 0.20005 0.0
C90 C 0.82516 0.85407 0.18415 0.0
C91 C 0.86654 0.89103 0.09863 0.0
C92 C 0.8961 0.86679 0.03102 0.0
C93 C 0.87874 0.80403 0.04032 0.0
C94 C 0.84106 0.7709 0.1334 0.0
H95 H 0.80849 0.87648 0.24183 0.0
O96 O 0.61375 0.66188 0.13739 0.0
O97 O 0.69391 0.68218 0.25057 0.0
O98 O 0.62792 0.75411 0.29131 0.0
O99 O 0.72926 0.80245 0.35079 0.0
C100 C 0.90144 0.77645 0.96228 0.0
C101 C 0.90033 0.72 0.98271 0.0
H102 H 0.90794 0.60643 0.06728 0.0
H103 H 0.8591 0.5962 0.32857 0.0
H104 H 0.87746 0.9388 0.08712 0.0
H105 H 0.93256 0.8971 0.97194 0.0
H106 H 0.92588 0.80224 0.88742 0.0
H107 H 0.92148 0.70371 0.92238 0.0
Mn108 Mn 0.95533 0.60925 0.7001 0.0
Mn109 Mn 0.87654 0.5239 0.92676 0.0
C110 C 0.9572 0.51891 0.74692 0.0
C111 C 0.98688 0.65127 0.5159 0.0
C112 C 1.00129 0.63509 0.94429 0.0
O113 O 0.88546 0.62849 0.70104 0.0
O114 O 0.86424 0.59648 0.88149 0.0
C115 C 0.74094 0.4829 0.91884 0.0
N116 N 0.78769 0.46787 0.90119 0.0
C117 C 0.71006 0.35881 0.91997 0.0
C118 C 0.6613 0.3738 0.92036 0.0
C119 C 0.67711 0.43625 0.92624 0.0
C120 C 0.77362 0.40781 0.91453 0.0
H121 H 0.75245 0.52989 0.93679 0.0
C122 C 0.84978 0.61299 0.78697 0.0
O123 O 1.00791 0.68351 0.60656 0.0
O124 O 0.94492 0.59276 0.53053 0.0
N125 N 0.87913 0.45047 0.97353 0.0
C126 C 0.92009 0.44877 0.05153 0.0
C127 C 0.90517 0.39222 0.10531 0.0
C128 C 0.85043 0.33755 0.07501 0.0
C129 C 0.80778 0.34009 0.99867 0.0
C130 C 0.82228 0.39853 0.95349 0.0
H131 H 0.96174 0.49101 0.07806 0.0
O132 O 1.00671 0.56765 0.70727 0.0
O133 O 0.90668 0.52335 0.76909 0.0
O134 O 0.99101 0.65555 0.85284 0.0
O135 O 0.96827 0.57757 0.96723 0.0
C136 C 0.74684 0.2886 0.9831 0.0
C137 C 0.69765 0.298 0.94297 0.0
H138 H 0.61197 0.33789 0.92809 0.0
H139 H 0.64037 0.44818 0.94233 0.0
H140 H 0.93448 0.38964 0.17154 0.0
H141 H 0.83813 0.29501 0.1204 0.0
H142 H 0.73562 0.24286 1.01387 0.0
H143 H 0.64937 0.25937 0.94323 0.0
Mn144 Mn 0.35942 0.95088 0.21748 0.0
Mn145 Mn 0.26075 1.01193 0.19596 0.0
C146 C 0.34676 0.99055 0.03872 0.0
C147 C 0.461 0.9585 0.24776 0.0
C148 C 0.21741 0.87021 0.23768 0.0
O149 O 0.35015 0.97935 0.38635 0.0
O150 O 0.3104 0.04498 0.35004 0.0
C151 C 0.21921 0.11702 0.30443 0.0
N152 N 0.19619 0.06423 0.24271 0.0
C153 C 0.1086 0.07982 0.1667 0.0
C154 C 0.12944 0.12888 0.24426 0.0
C155 C 0.18802 0.15166 0.30029 0.0
C156 C 0.14145 0.04694 0.16197 0.0
H157 H 0.26379 0.13434 0.34949 0.0
C158 C 0.33697 0.02244 0.42001 0.0
O159 O 0.40799 0.90753 0.26253 0.0
O160 O 0.45598 1.00743 0.22383 0.0
N161 N 0.19535 0.95939 0.02568 0.0
C162 C 0.22714 0.96714 0.89883 0.0
C163 C 0.18515 1.0134 0.77154 0.0
C164 C 0.13423 0.03557 0.81641 0.0
C165 C 0.10819 0.02928 0.94692 0.0
C166 C 0.13032 1.00123 0.0547 0.0
H167 H 0.25257 0.9419 0.88145 0.0
O168 O 0.3675 0.95095 0.04408 0.0
O169 O 0.33145 1.00197 0.13788 0.0
O170 O 0.26861 0.87171 0.20756 0.0
O171 O 0.22331 0.92094 0.27952 0.0
C172 C 0.06767 0.05265 0.97267 0.0
C173 C 0.06343 0.07117 0.08324 0.0
H174 H 0.10358 0.15364 0.25314 0.0
H175 H 0.20948 0.19674 0.34096 0.0
H176 H 0.19588 0.02092 0.68079 0.0
H177 H 0.11476 0.05378 0.75439 0.0
H178 H 0.04291 0.0617 0.90489 0.0
H179 H 0.0316 0.08923 0.09679 0.0
Mn180 Mn 0.43715 0.36972 0.80162 0.0
Mn181 Mn 0.27557 0.28803 0.83295 0.0
C182 C 0.37351 0.35843 0.64714 0.0
C183 C 0.53148 0.46326 0.81317 0.0
C184 C 0.36744 0.23004 0.8175 0.0
O185 O 0.42625 0.36651 0.97229 0.0
O186 O 0.31999 0.32684 0.98258 0.0
C187 C 0.20778 0.41934 0.86876 0.0
N188 N 0.22835 0.34108 0.79876 0.0
C189 C 0.16422 0.34276 0.58665 0.0
C190 C 0.14937 0.4043 0.62962 0.0
C191 C 0.16653 0.44174 0.76146 0.0
C192 C 0.20302 0.31335 0.67055 0.0
H193 H 0.22108 0.44176 0.96371 0.0
C194 C 0.37624 0.35513 0.02679 0.0
O195 O 0.53088 0.41044 0.81717 0.0
O196 O 0.47724 0.46199 0.80638 0.0
N197 N 0.23312 0.23961 0.70004 0.0
C198 C 0.2205 0.17952 0.68414 0.0
C199 C 0.17912 0.14256 0.59863 0.0
C200 C 0.14956 0.16679 0.53102 0.0
C201 C 0.16692 0.22956 0.54032 0.0
C202 C 0.2046 0.26269 0.6334 0.0
H203 H 0.23717 0.1571 0.74182 0.0
O204 O 0.43191 0.37171 0.63738 0.0
O205 O 0.35175 0.35141 0.75057 0.0
O206 O 0.41774 0.27947 0.7913 0.0
O207 O 0.3164 0.23114 0.85079 0.0
C208 C 0.14422 0.25713 0.46228 0.0
C209 C 0.14533 0.31358 0.48271 0.0
H210 H 0.13772 0.42716 0.56728 0.0
H211 H 0.18656 0.43739 0.82857 0.0
H212 H 0.1682 0.09479 0.58712 0.0
H213 H 0.1131 0.13649 0.47194 0.0
H214 H 0.11978 0.23135 0.38742 0.0
H215 H 0.12418 0.32988 0.42238 0.0
Mn216 Mn 0.61721 0.94982 0.27014 0.0
Mn217 Mn 0.77663 1.00363 0.27806 0.0
C218 C 0.676 0.99615 0.44281 0.0
C219 C 0.52248 0.95757 0.25064 0.0
C220 C 0.67892 0.86536 0.30101 0.0
O221 O 0.64028 0.96558 0.09319 0.0
O222 O 0.74455 1.00305 0.114 0.0
C223 C 0.84641 0.14395 0.15282 0.0
N224 N 0.85665 0.10816 0.22759 0.0
C225 C 0.9539 0.19741 0.29905 0.0
C226 C 0.93948 0.23356 0.22508 0.0
C227 C 0.8892 0.20709 0.14809 0.0
C228 C 0.91595 0.13289 0.2984 0.0
H229 H 0.80392 0.12422 0.10117 0.0
C230 C 0.69649 0.99016 0.04885 0.0
O231 O 0.52285 0.90543 0.24216 0.0
O232 O 0.57775 1.0067 0.26407 0.0
N233 N 0.83628 0.99537 0.4445 0.0
C234 C 0.80916 0.98178 0.57717 0.0
C235 C 0.87542 0.06584 0.6945 0.0
C236 C 0.93878 0.12786 0.64343 0.0
C237 C 0.95906 0.14053 0.50905 0.0
C238 C 0.92099 0.09098 0.40332 0.0
H239 H 0.76464 0.94065 0.6 0.0
O240 O 0.61636 0.95427 0.44235 0.0
O241 O 0.70128 1.00917 0.34139 0.0
O242 O 0.62901 0.86968 0.28102 0.0
O243 O 0.73251 0.91328 0.29958 0.0
C244 C 1.00249 0.20052 0.48275 0.0
C245 C 1.00075 0.22722 0.38017 0.0
H246 H 0.96419 0.28335 0.23379 0.0
H247 H 0.88167 0.2361 0.08856 0.0
H248 H 0.87612 0.06513 0.78802 0.0
H249 H 0.97424 0.15742 0.70373 0.0
H250 H 0.03156 0.22974 0.55084 0.0
H251 H 0.03085 0.27581 0.37078 0.0
Mn252 Mn 0.68382 0.61414 0.86674 0.0
Mn253 Mn 0.67441 0.52639 0.64122 0.0
C254 C 0.59079 0.52213 0.82312 0.0
C255 C 0.6963 0.65711 0.04963 0.0
C256 C 0.65976 0.63753 0.62568 0.0
O257 O 0.77315 0.63348 0.86354 0.0
O258 O 0.7593 0.59966 0.68452 0.0
C259 C 0.76914 0.48533 0.64447 0.0
N260 N 0.70779 0.47071 0.66556 0.0
C261 C 0.67583 0.36132 0.65312 0.0
C262 C 0.73959 0.37632 0.64964 0.0
C263 C 0.78618 0.43862 0.6387 0.0
C264 C 0.66148 0.4104 0.65664 0.0
H265 H 0.80397 0.53175 0.62219 0.0
C266 C 0.79106 0.61527 0.77819 0.0
O267 O 0.7055 0.68935 0.95862 0.0
O268 O 0.6804 0.59877 0.03505 0.0
N269 N 0.59824 0.45207 0.59637 0.0
C270 C 0.55665 0.44916 0.51493 0.0
C271 C 0.5143 0.39138 0.46494 0.0
C272 C 0.51183 0.33679 0.50365 0.0
C273 C 0.55791 0.34092 0.57962 0.0
C274 C 0.60296 0.40039 0.61987 0.0
H275 H 0.55872 0.49125 0.48352 0.0
O276 O 0.59026 0.57088 0.86252 0.0
O277 O 0.64582 0.52708 0.79979 0.0
O278 O 0.69279 0.65962 0.71437 0.0
O279 O 0.63485 0.57956 0.60464 0.0
C280 C 0.56729 0.28972 0.59865 0.0
C281 C 0.62678 0.30002 0.63558 0.0
H282 H 0.75281 0.34029 0.64315 0.0
H283 H 0.83452 0.45024 0.61963 0.0
H284 H 0.48308 0.38737 0.39645 0.0
H285 H 0.47835 0.29261 0.46551 0.0
H286 H 0.53204 0.24332 0.57187 0.0
H287 H 0.63632 0.2614 0.63713 0.0
Mn288 Mn 0.08562 0.66607 0.26455 0.0
Mn289 Mn 1.00154 0.74316 0.2418 0.0
C290 C 0.03019 0.67172 0.41945 0.0
C291 C 0.08799 0.5734 0.25514 0.0
C292 C 0.15423 0.80651 0.24417 0.0
O293 O 0.07452 0.66781 0.09384 0.0
O294 O 1.0053 0.70476 0.0889 0.0
C295 C 0.80023 0.61508 0.20212 0.0
N296 N 0.90013 0.69173 0.27396 0.0
C297 C 0.83284 0.68992 0.48584 0.0
C298 C 0.75636 0.62949 0.44031 0.0
C299 C 0.73638 0.59312 0.30816 0.0
C300 C 0.90223 0.71879 0.40355 0.0
H301 H 0.79077 0.59279 0.10656 0.0
C302 C 0.03366 0.67733 0.04214 0.0
O303 O 0.13994 0.62658 0.24897 0.0
O304 O 0.03472 0.57389 0.26177 0.0
N305 N 1.00945 0.78631 0.38463 0.0
C306 C 0.06354 0.83813 0.42114 0.0
C307 C 0.06476 0.86644 0.52393 0.0
C308 C 1.01195 0.83948 0.59426 0.0
C309 C 0.95604 0.78855 0.55657 0.0
C310 C 0.95639 0.76424 0.44821 0.0
H311 H 0.10647 0.86013 0.3729 0.0
O312 O 0.079 0.66394 0.4298 0.0
O313 O 1.01535 0.67916 0.3166 0.0
O314 O 0.15728 0.75816 0.2706 0.0
O315 O 0.09939 0.80116 0.21924 0.0
C316 C 0.90097 0.76515 0.62432 0.0
C317 C 0.84122 0.71941 0.58921 0.0
H318 H 0.72123 0.60621 0.50108 0.0
H319 H 0.76115 0.59766 0.24171 0.0
H320 H 0.1068 0.90878 0.54937 0.0
H321 H 1.01411 0.86036 0.67588 0.0
H322 H 0.90339 0.78376 0.70753 0.0
H323 H 0.80147 0.70918 0.64315 0.0
Mn324 Mn 0.42845 0.08377 0.77014 0.0
Mn325 Mn 0.26903 0.02996 0.77806 0.0
C326 C 0.36966 0.03744 0.94281 0.0
C327 C 0.52318 0.07602 0.75063 0.0
C328 C 0.36674 0.16822 0.80101 0.0
O329 O 0.40538 0.068 0.59319 0.0
O330 O 0.30111 0.03054 0.614 0.0
C331 C 0.19925 0.88964 0.65283 0.0
N332 N 0.18901 0.92543 0.7276 0.0
C333 C 0.09176 0.83617 0.79906 0.0
C334 C 0.10618 0.80003 0.72509 0.0
C335 C 0.15646 0.8265 0.64809 0.0
C336 C 0.12971 0.90069 0.79841 0.0
H337 H 0.24173 0.90936 0.60117 0.0
C338 C 0.34917 0.04342 0.54885 0.0
O339 O 0.52281 0.12816 0.74216 0.0
O340 O 0.46791 0.02688 0.76407 0.0
N341 N 0.20938 0.03821 0.9445 0.0
C342 C 0.2365 0.0518 0.07717 0.0
C343 C 0.17024 0.96775 0.19451 0.0
C344 C 0.10688 0.90573 0.14344 0.0
C345 C 0.0866 0.89305 1.00906 0.0
C346 C 0.12467 0.94261 0.90333 0.0
H347 H 0.28103 0.09294 0.1 0.0
O348 O 0.4293 0.07931 0.94235 0.0
O349 O 0.34438 0.02441 0.8414 0.0
O350 O 0.41665 0.1639 0.78101 0.0
O351 O 0.31315 0.1203 0.79958 0.0
C352 C 0.04317 0.83307 0.98276 0.0
C353 C 0.04491 0.80637 0.88018 0.0
H354 H 0.08147 0.75024 0.7338 0.0
H355 H 0.16398 0.79749 0.58857 0.0
H356 H 0.16954 0.96846 0.28803 0.0
H357 H 0.07142 0.87617 0.20374 0.0
H358 H 1.0141 0.80385 0.05085 0.0
H359 H 1.01481 0.75778 0.8708 0.0
Mn360 Mn 0.36184 0.41944 0.36674 0.0
Mn361 Mn 0.37125 0.5072 0.14122 0.0
C362 C 0.45487 0.51146 0.32312 0.0
C363 C 0.34936 0.37648 0.54963 0.0
C364 C 0.3859 0.39606 0.12567 0.0
O365 O 0.27251 0.40011 0.36354 0.0
O366 O 0.28636 0.43392 0.18452 0.0
C367 C 0.27652 0.54826 0.14447 0.0
N368 N 0.33787 0.56287 0.16555 0.0
C369 C 0.36984 0.67227 0.15312 0.0
C370 C 0.30607 0.65727 0.14964 0.0
C371 C 0.25949 0.59497 0.1387 0.0
C372 C 0.38418 0.62318 0.15664 0.0
H373 H 0.24169 0.50184 0.12219 0.0
C374 C 0.2546 0.41832 0.27819 0.0
O375 O 0.34016 0.34424 0.45862 0.0
O376 O 0.36526 0.43482 0.53504 0.0
N377 N 0.44742 0.58152 0.09637 0.0
C378 C 0.48901 0.58442 1.01493 0.0
C379 C 0.53137 0.6422 0.96494 0.0
C380 C 0.53383 0.69679 1.00365 0.0
C381 C 0.48776 0.69266 0.07962 0.0
C382 C 0.4427 0.63319 0.11986 0.0
H383 H 0.48694 0.54234 0.98352 0.0
O384 O 0.4554 0.46271 0.36251 0.0
O385 O 0.39984 0.5065 0.29978 0.0
O386 O 0.35287 0.37397 0.21437 0.0
O387 O 0.41081 0.45402 0.10464 0.0
C388 C 0.47837 0.74386 0.09865 0.0
C389 C 0.41888 0.73356 0.13558 0.0
H390 H 0.29285 0.6933 0.14314 0.0
H391 H 0.21114 0.58335 0.11963 0.0
H392 H 0.56258 0.64621 0.89645 0.0
H393 H 0.56731 0.74097 0.96551 0.0
H394 H 0.51362 0.79026 0.07187 0.0
H395 H 0.40934 0.77219 0.13713 0.0
Mn396 Mn 0.96004 0.36752 0.76455 0.0
Mn397 Mn 0.04412 0.29043 0.7418 0.0
C398 C 1.01547 0.36187 0.91945 0.0
C399 C 0.95767 0.46018 0.75514 0.0
C400 C 0.89143 0.22708 0.74417 0.0
O401 O 0.97114 0.36578 0.59385 0.0
O402 O 0.04036 0.32883 0.5889 0.0
C403 C 0.24543 0.4185 0.70212 0.0
N404 N 0.14553 0.34186 0.77396 0.0
C405 C 0.21282 0.34366 0.98584 0.0
C406 C 0.2893 0.4041 0.94031 0.0
C407 C 0.30928 0.44047 0.80815 0.0
C408 C 0.14343 0.3148 0.90355 0.0
H409 H 0.25489 0.4408 0.60655 0.0
C410 C 1.012 0.35626 0.54214 0.0
O411 O 0.90572 0.407 0.74897 0.0
O412 O 1.01094 0.4597 0.76177 0.0
N413 N 0.03621 0.24727 0.88463 0.0
C414 C 0.98212 0.19546 0.92114 0.0
C415 C 0.9809 0.16715 0.02393 0.0
C416 C 0.03371 0.19411 0.09426 0.0
C417 C 0.08962 0.24504 0.05657 0.0
C418 C 0.08927 0.26934 0.94821 0.0
H419 H 0.93919 0.17345 0.8729 0.0
O420 O 0.96666 0.36964 0.9298 0.0
O421 O 0.03031 0.35443 0.8166 0.0
O422 O 0.88838 0.27543 0.77061 0.0
O423 O 0.94627 0.23243 0.71924 0.0
C424 C 0.14469 0.26844 0.12432 0.0
C425 C 0.20444 0.31418 0.08921 0.0
H426 H 0.32443 0.42738 1.00107 0.0
H427 H 0.28451 0.43592 0.74171 0.0
H428 H 0.93886 0.1248 0.04937 0.0
H429 H 0.03155 0.17323 0.17588 0.0
H430 H 0.14227 0.24983 0.20753 0.0
H431 H 0.24419 0.32441 0.14314 0.0
loop_
_geom_bond_atom_site_label_1
_geom_bond_atom_site_label_2
_geom_bond_distance
_geom_bond_site_symmetry_2
_ccdc_geom_bond_type
Mn0 O5 2.095 . S
Mn0 O15 2.162 1_455 S
Mn0 O16 2.297 . S
Mn0 O24 2.385 . S
Mn0 O25 2.209 . S
Mn0 O26 2.094 1_455 S
Mn1 O6 2.121 . S
Mn1 N8 2.257 . S
Mn1 N17 2.282 . S
Mn1 O25 2.215 . S
Mn1 O27 2.117 . S
C2 O24 1.234 . S
C2 O25 1.283 . S
C3 O15 1.281 1_455 S
C3 O16 1.236 . S
C4 O26 1.240 1_455 S
C4 O27 1.264 . S
O5 Mn0 2.095 . S
O5 C14 1.250 . S
O6 Mn1 2.121 . S
O6 C14 1.258 . S
C7 N8 1.326 . S
C7 C11 1.460 . S
C7 H13 0.929 . S
N8 Mn1 2.257 . S
N8 C7 1.326 . S
N8 C12 1.362 . S
C9 C10 1.258 . S
C9 C12 1.431 . S
C9 C29 1.449 . S
C10 C9 1.258 . S
C10 C11 1.477 . S
C10 H30 0.931 . S
C11 C7 1.460 . S
C11 C10 1.477 . S
C11 H31 0.930 . S
C12 N8 1.362 . S
C12 C9 1.431 . S
C12 C22 1.476 . S
H13 C7 0.929 . S
C14 O5 1.250 . S
C14 O6 1.258 . S
O15 Mn0 2.162 1_655 S
O15 C3 1.281 1_655 S
O16 Mn0 2.297 . S
O16 C3 1.236 . S
N17 Mn1 2.282 . S
N17 C18 1.328 . S
N17 C22 1.318 . S
C18 N17 1.328 . S
C18 C19 1.457 . S
C18 H23 0.929 . S
C19 C18 1.457 . S
C19 C20 1.291 . S
C19 H32 0.931 . S
C20 C19 1.291 . S
C20 C21 1.373 . S
C20 H33 0.929 . S
C21 C20 1.373 . S
C21 C22 1.396 . S
C21 C28 1.403 . S
C22 C12 1.476 . S
C22 N17 1.318 . S
C22 C21 1.396 . S
H23 C18 0.929 . S
O24 Mn0 2.385 . S
O24 C2 1.234 . S
O25 Mn0 2.209 . S
O25 Mn1 2.215 . S
O25 C2 1.283 . S
O26 Mn0 2.094 1_655 S
O26 C4 1.240 1_655 S
O27 Mn1 2.117 . S
O27 C4 1.264 . S
C28 C21 1.403 . S
C28 C29 1.399 . S
C28 H34 0.929 . S
C29 C9 1.449 . S
C29 C28 1.399 . S
C29 H35 0.930 . S
H30 C10 0.931 . S
H31 C11 0.930 . S
H32 C19 0.931 . S
H33 C20 0.929 . S
H34 C28 0.929 . S
H35 C29 0.930 . S
Mn36 O41 2.095 . S
Mn36 O51 2.162 . S
Mn36 O52 2.297 1_545 S
Mn36 O60 2.385 . S
Mn36 O61 2.209 1_545 S
Mn36 O62 2.094 . S
Mn37 O42 2.121 1_545 S
Mn37 N44 2.257 1_545 S
Mn37 N53 2.282 . S
Mn37 O61 2.215 1_545 S
Mn37 O63 2.117 . S
C38 O60 1.234 . S
C38 O61 1.283 1_545 S
C39 O51 1.281 . S
C39 O52 1.236 1_545 S
C40 O62 1.240 . S
C40 O63 1.264 . S
O41 Mn36 2.095 . S
O41 C50 1.250 1_545 S
O42 Mn37 2.121 1_565 S
O42 C50 1.258 . S
C43 N44 1.326 . S
C43 C47 1.460 . S
C43 H49 0.929 . S
N44 Mn37 2.257 1_565 S
N44 C43 1.326 . S
N44 C48 1.362 . S
C45 C46 1.258 . S
C45 C48 1.431 . S
C45 C65 1.449 . S
C46 C45 1.258 . S
C46 C47 1.477 . S
C46 H66 0.931 . S
C47 C43 1.460 . S
C47 C46 1.477 . S
C47 H67 0.930 . S
C48 N44 1.362 . S
C48 C45 1.431 . S
C48 C58 1.476 . S
H49 C43 0.929 . S
C50 O41 1.250 1_565 S
C50 O42 1.258 . S
O51 Mn36 2.162 . S
O51 C39 1.281 . S
O52 Mn36 2.297 1_565 S
O52 C39 1.236 1_565 S
N53 Mn37 2.282 . S
N53 C54 1.328 . S
N53 C58 1.318 1_545 S
C54 N53 1.328 . S
C54 C55 1.457 . S
C54 H59 0.929 . S
C55 C54 1.457 . S
C55 C56 1.291 . S
C55 H68 0.931 . S
C56 C55 1.291 . S
C56 C57 1.373 1_545 S
C56 H69 0.929 . S
C57 C56 1.373 1_565 S
C57 C58 1.396 . S
C57 C64 1.403 . S
C58 C48 1.476 . S
C58 N53 1.318 1_565 S
C58 C57 1.396 . S
H59 C54 0.929 . S
O60 Mn36 2.385 . S
O60 C38 1.234 . S
O61 Mn36 2.209 1_565 S
O61 Mn37 2.215 1_565 S
O61 C38 1.283 1_565 S
O62 Mn36 2.094 . S
O62 C40 1.240 . S
O63 Mn37 2.117 . S
O63 C40 1.264 . S
C64 C57 1.403 . S
C64 C65 1.399 . S
C64 H70 0.929 . S
C65 C45 1.449 . S
C65 C64 1.399 . S
C65 H71 0.930 . S
H66 C46 0.931 . S
H67 C47 0.930 . S
H68 C55 0.931 . S
H69 C56 0.929 . S
H70 C64 0.929 . S
H71 C65 0.930 . S
Mn72 O77 2.095 . S
Mn72 O87 2.162 . S
Mn72 O88 2.297 . S
Mn72 O96 2.385 . S
Mn72 O97 2.209 . S
Mn72 O98 2.094 . S
Mn73 O78 2.121 . S
Mn73 N80 2.257 . S
Mn73 N89 2.282 . S
Mn73 O97 2.215 . S
Mn73 O99 2.117 . S
C74 O96 1.234 . S
C74 O97 1.283 . S
C75 O87 1.281 . S
C75 O88 1.236 . S
C76 O98 1.240 . S
C76 O99 1.264 . S
O77 Mn72 2.095 . S
O77 C86 1.250 . S
O78 Mn73 2.121 . S
O78 C86 1.258 . S
C79 N80 1.326 . S
C79 C83 1.460 . S
C79 H85 0.929 . S
N80 Mn73 2.257 . S
N80 C79 1.326 . S
N80 C84 1.362 . S
C81 C82 1.258 . S
C81 C84 1.431 . S
C81 C101 1.449 1_554 S
C82 C81 1.258 . S
C82 C83 1.477 . S
C82 H102 0.931 . S
C83 C79 1.460 . S
C83 C82 1.477 . S
C83 H103 0.930 . S
C84 N80 1.362 . S
C84 C81 1.431 . S
C84 C94 1.476 . S
H85 C79 0.929 . S
C86 O77 1.250 . S
C86 O78 1.258 . S
O87 Mn72 2.162 . S
O87 C75 1.281 . S
O88 Mn72 2.297 . S
O88 C75 1.236 . S
N89 Mn73 2.282 . S
N89 C90 1.328 . S
N89 C94 1.318 . S
C90 N89 1.328 . S
C90 C91 1.457 1_554 S
C90 H95 0.929 . S
C91 C90 1.457 1_556 S
C91 C92 1.291 . S
C91 H104 0.931 . S
C92 C91 1.291 . S
C92 C93 1.373 . S
C92 H105 0.929 . S
C93 C92 1.373 . S
C93 C94 1.396 1_556 S
C93 C100 1.403 . S
C94 C84 1.476 . S
C94 N89 1.318 . S
C94 C93 1.396 1_554 S
H95 C90 0.929 . S
O96 Mn72 2.385 . S
O96 C74 1.234 . S
O97 Mn72 2.209 . S
O97 Mn73 2.215 . S
O97 C74 1.283 . S
O98 Mn72 2.094 . S
O98 C76 1.240 . S
O99 Mn73 2.117 . S
O99 C76 1.264 . S
C100 C93 1.403 . S
C100 C101 1.399 . S
C100 H106 0.929 . S
C101 C81 1.449 1_556 S
C101 C100 1.399 . S
C101 H107 0.930 . S
H102 C82 0.931 . S
H103 C83 0.930 . S
H104 C91 0.931 . S
H105 C92 0.929 . S
H106 C100 0.929 . S
H107 C101 0.930 . S
Mn108 O113 2.095 . S
Mn108 O123 2.162 1_655 S
Mn108 O124 2.297 . S
Mn108 O132 2.385 . S
Mn108 O133 2.209 . S
Mn108 O134 2.094 1_655 S
Mn109 O114 2.121 . S
Mn109 N116 2.257 . S
Mn109 N125 2.282 . S
Mn109 O133 2.215 . S
Mn109 O135 2.117 . S
C110 O132 1.234 . S
C110 O133 1.283 . S
C111 O123 1.281 1_655 S
C111 O124 1.236 . S
C112 O134 1.240 1_655 S
C112 O135 1.264 . S
O113 Mn108 2.095 . S
O113 C122 1.250 . S
O114 Mn109 2.121 . S
O114 C122 1.258 . S
C115 N116 1.326 . S
C115 C119 1.460 . S
C115 H121 0.929 . S
N116 Mn109 2.257 . S
N116 C115 1.326 . S
N116 C120 1.362 . S
C117 C118 1.258 . S
C117 C120 1.431 . S
C117 C137 1.449 . S
C118 C117 1.258 . S
C118 C119 1.477 . S
C118 H138 0.931 . S
C119 C115 1.460 . S
C119 C118 1.477 . S
C119 H139 0.930 . S
C120 N116 1.362 . S
C120 C117 1.431 . S
C120 C130 1.476 . S
H121 C115 0.929 . S
C122 O113 1.250 . S
C122 O114 1.258 . S
O123 Mn108 2.162 1_455 S
O123 C111 1.281 1_455 S
O124 Mn108 2.297 . S
O124 C111 1.236 . S
N125 Mn109 2.282 . S
N125 C126 1.328 1_556 S
N125 C130 1.318 . S
C126 N125 1.328 1_554 S
C126 C127 1.457 . S
C126 H131 0.929 . S
C127 C126 1.457 . S
C127 C128 1.291 . S
C127 H140 0.931 . S
C128 C127 1.291 . S
C128 C129 1.373 . S
C128 H141 0.929 . S
C129 C128 1.373 . S
C129 C130 1.396 1_554 S
C129 C136 1.403 . S
C130 C120 1.476 . S
C130 N125 1.318 . S
C130 C129 1.396 1_556 S
H131 C126 0.929 . S
O132 Mn108 2.385 . S
O132 C110 1.234 . S
O133 Mn108 2.209 . S
O133 Mn109 2.215 . S
O133 C110 1.283 . S
O134 Mn108 2.094 1_455 S
O134 C112 1.240 1_455 S
O135 Mn109 2.117 . S
O135 C112 1.264 . S
C136 C129 1.403 . S
C136 C137 1.399 1_554 S
C136 H142 0.929 . S
C137 C117 1.449 . S
C137 C136 1.399 1_556 S
C137 H143 0.930 . S
H138 C118 0.931 . S
H139 C119 0.930 . S
H140 C127 0.931 . S
H141 C128 0.929 . S
H142 C136 0.929 . S
H143 C137 0.930 . S
Mn144 O149 2.095 . S
Mn144 O159 2.162 . S
Mn144 O160 2.297 1_565 S
Mn144 O168 2.385 . S
Mn144 O169 2.209 1_565 S
Mn144 O170 2.094 . S
Mn145 O150 2.121 1_565 S
Mn145 N152 2.257 1_565 S
Mn145 N161 2.282 . S
Mn145 O169 2.215 1_565 S
Mn145 O171 2.117 . S
C146 O168 1.234 . S
C146 O169 1.283 1_565 S
C147 O159 1.281 . S
C147 O160 1.236 1_565 S
C148 O170 1.240 . S
C148 O171 1.264 . S
O149 Mn144 2.095 . S
O149 C158 1.250 1_565 S
O150 Mn145 2.121 1_545 S
O150 C158 1.258 . S
C151 N152 1.326 . S
C151 C155 1.460 . S
C151 H157 0.929 . S
N152 Mn145 2.257 1_545 S
N152 C151 1.326 . S
N152 C156 1.362 . S
C153 C154 1.258 . S
C153 C156 1.431 . S
C153 C173 1.449 1_554 S
C154 C153 1.258 . S
C154 C155 1.477 . S
C154 H174 0.931 . S
C155 C151 1.460 . S
C155 C154 1.477 . S
C155 H175 0.930 . S
C156 N152 1.362 . S
C156 C153 1.431 . S
C156 C166 1.476 . S
H157 C151 0.929 . S
C158 O149 1.250 1_545 S
C158 O150 1.258 . S
O159 Mn144 2.162 . S
O159 C147 1.281 . S
O160 Mn144 2.297 1_545 S
O160 C147 1.236 1_545 S
N161 Mn145 2.282 . S
N161 C162 1.328 . S
N161 C166 1.318 1_565 S
C162 N161 1.328 . S
C162 C163 1.457 1_554 S
C162 H167 0.929 . S
C163 C162 1.457 1_556 S
C163 C164 1.291 . S
C163 H176 0.931 . S
C164 C163 1.291 . S
C164 C165 1.373 1_565 S
C164 H177 0.929 . S
C165 C164 1.373 1_545 S
C165 C166 1.396 1_556 S
C165 C172 1.403 . S
C166 C156 1.476 . S
C166 N161 1.318 1_545 S
C166 C165 1.396 1_554 S
H167 C162 0.929 . S
O168 Mn144 2.385 . S
O168 C146 1.234 . S
O169 Mn144 2.209 1_545 S
O169 Mn145 2.215 1_545 S
O169 C146 1.283 1_545 S
O170 Mn144 2.094 . S
O170 C148 1.240 . S
O171 Mn145 2.117 . S
O171 C148 1.264 . S
C172 C165 1.403 . S
C172 C173 1.399 . S
C172 H178 0.929 . S
C173 C153 1.449 1_556 S
C173 C172 1.399 . S
C173 H179 0.930 . S
H174 C154 0.931 . S
H175 C155 0.930 . S
H176 C163 0.931 . S
H177 C164 0.929 . S
H178 C172 0.929 . S
H179 C173 0.930 . S
Mn180 O185 2.095 . S
Mn180 O195 2.162 . S
Mn180 O196 2.297 . S
Mn180 O204 2.385 . S
Mn180 O205 2.209 . S
Mn180 O206 2.094 . S
Mn181 O186 2.121 . S
Mn181 N188 2.257 . S
Mn181 N197 2.282 . S
Mn181 O205 2.215 . S
Mn181 O207 2.117 . S
C182 O204 1.234 . S
C182 O205 1.283 . S
C183 O195 1.281 . S
C183 O196 1.236 . S
C184 O206 1.240 . S
C184 O207 1.264 . S
O185 Mn180 2.095 . S
O185 C194 1.250 . S
O186 Mn181 2.121 . S
O186 C194 1.258 . S
C187 N188 1.326 . S
C187 C191 1.460 . S
C187 H193 0.929 . S
N188 Mn181 2.257 . S
N188 C187 1.326 . S
N188 C192 1.362 . S
C189 C190 1.258 . S
C189 C192 1.431 . S
C189 C209 1.449 . S
C190 C189 1.258 . S
C190 C191 1.477 . S
C190 H210 0.931 . S
C191 C187 1.460 . S
C191 C190 1.477 . S
C191 H211 0.930 . S
C192 N188 1.362 . S
C192 C189 1.431 . S
C192 C202 1.476 . S
H193 C187 0.929 . S
C194 O185 1.250 . S
C194 O186 1.258 . S
O195 Mn180 2.162 . S
O195 C183 1.281 . S
O196 Mn180 2.297 . S
O196 C183 1.236 . S
N197 Mn181 2.282 . S
N197 C198 1.328 . S
N197 C202 1.318 . S
C198 N197 1.328 . S
C198 C199 1.457 . S
C198 H203 0.929 . S
C199 C198 1.457 . S
C199 C200 1.291 . S
C199 H212 0.931 . S
C200 C199 1.291 . S
C200 C201 1.373 . S
C200 H213 0.929 . S
C201 C200 1.373 . S
C201 C202 1.396 . S
C201 C208 1.403 . S
C202 C192 1.476 . S
C202 N197 1.318 . S
C202 C201 1.396 . S
H203 C198 0.929 . S
O204 Mn180 2.385 . S
O204 C182 1.234 . S
O205 Mn180 2.209 . S
O205 Mn181 2.215 . S
O205 C182 1.283 . S
O206 Mn180 2.094 . S
O206 C184 1.240 . S
O207 Mn181 2.117 . S
O207 C184 1.264 . S
C208 C201 1.403 . S
C208 C209 1.399 . S
C208 H214 0.929 . S
C209 C189 1.449 . S
C209 C208 1.399 . S
C209 H215 0.930 . S
H210 C190 0.931 . S
H211 C191 0.930 . S
H212 C199 0.931 . S
H213 C200 0.929 . S
H214 C208 0.929 . S
H215 C209 0.930 . S
Mn216 O221 2.095 . S
Mn216 O231 2.162 . S
Mn216 O232 2.297 1_565 S
Mn216 O240 2.385 . S
Mn216 O241 2.209 1_565 S
Mn216 O242 2.094 . S
Mn217 O222 2.121 1_565 S
Mn217 N224 2.257 1_565 S
Mn217 N233 2.282 . S
Mn217 O241 2.215 1_565 S
Mn217 O243 2.117 . S
C218 O240 1.234 . S
C218 O241 1.283 1_565 S
C219 O231 1.281 . S
C219 O232 1.236 1_565 S
C220 O242 1.240 . S
C220 O243 1.264 . S
O221 Mn216 2.095 . S
O221 C230 1.250 1_565 S
O222 Mn217 2.121 1_545 S
O222 C230 1.258 . S
C223 N224 1.326 . S
C223 C227 1.460 . S
C223 H229 0.929 . S
N224 Mn217 2.257 1_545 S
N224 C223 1.326 . S
N224 C228 1.362 . S
C225 C226 1.258 . S
C225 C228 1.431 . S
C225 C245 1.449 . S
C226 C225 1.258 . S
C226 C227 1.477 . S
C226 H246 0.931 . S
C227 C223 1.460 . S
C227 C226 1.477 . S
C227 H247 0.930 . S
C228 N224 1.362 . S
C228 C225 1.431 . S
C228 C238 1.476 . S
H229 C223 0.929 . S
C230 O221 1.250 1_545 S
C230 O222 1.258 . S
O231 Mn216 2.162 . S
O231 C219 1.281 . S
O232 Mn216 2.297 1_545 S
O232 C219 1.236 1_545 S
N233 Mn217 2.282 . S
N233 C234 1.328 . S
N233 C238 1.318 1_565 S
C234 N233 1.328 . S
C234 C235 1.457 . S
C234 H239 0.929 . S
C235 C234 1.457 . S
C235 C236 1.291 . S
C235 H248 0.931 . S
C236 C235 1.291 . S
C236 C237 1.373 1_565 S
C236 H249 0.929 . S
C237 C236 1.373 1_545 S
C237 C238 1.396 . S
C237 C244 1.403 . S
C238 C228 1.476 . S
C238 N233 1.318 1_545 S
C238 C237 1.396 . S
H239 C234 0.929 . S
O240 Mn216 2.385 . S
O240 C218 1.234 . S
O241 Mn216 2.209 1_545 S
O241 Mn217 2.215 1_545 S
O241 C218 1.283 1_545 S
O242 Mn216 2.094 . S
O242 C220 1.240 . S
O243 Mn217 2.117 . S
O243 C220 1.264 . S
C244 C237 1.403 . S
C244 C245 1.399 . S
C244 H250 0.929 . S
C245 C225 1.449 . S
C245 C244 1.399 . S
C245 H251 0.930 . S
H246 C226 0.931 . S
H247 C227 0.930 . S
H248 C235 0.931 . S
H249 C236 0.929 . S
H250 C244 0.929 . S
H251 C245 0.930 . S
Mn252 O257 2.095 . S
Mn252 O267 2.162 . S
Mn252 O268 2.297 . S
Mn252 O276 2.385 . S
Mn252 O277 2.209 . S
Mn252 O278 2.094 . S
Mn253 O258 2.121 . S
Mn253 N260 2.257 . S
Mn253 N269 2.282 . S
Mn253 O277 2.215 . S
Mn253 O279 2.117 . S
C254 O276 1.234 . S
C254 O277 1.283 . S
C255 O267 1.281 . S
C255 O268 1.236 . S
C256 O278 1.240 . S
C256 O279 1.264 . S
O257 Mn252 2.095 . S
O257 C266 1.250 . S
O258 Mn253 2.121 . S
O258 C266 1.258 . S
C259 N260 1.326 . S
C259 C263 1.460 . S
C259 H265 0.929 . S
N260 Mn253 2.257 . S
N260 C259 1.326 . S
N260 C264 1.362 . S
C261 C262 1.258 . S
C261 C264 1.431 . S
C261 C281 1.449 . S
C262 C261 1.258 . S
C262 C263 1.477 . S
C262 H282 0.931 . S
C263 C259 1.460 . S
C263 C262 1.477 . S
C263 H283 0.930 . S
C264 N260 1.362 . S
C264 C261 1.431 . S
C264 C274 1.476 . S
H265 C259 0.929 . S
C266 O257 1.250 . S
C266 O258 1.258 . S
O267 Mn252 2.162 . S
O267 C255 1.281 . S
O268 Mn252 2.297 . S
O268 C255 1.236 . S
N269 Mn253 2.282 . S
N269 C270 1.328 . S
N269 C274 1.318 . S
C270 N269 1.328 . S
C270 C271 1.457 . S
C270 H275 0.929 . S
C271 C270 1.457 . S
C271 C272 1.291 . S
C271 H284 0.931 . S
C272 C271 1.291 . S
C272 C273 1.373 . S
C272 H285 0.929 . S
C273 C272 1.373 . S
C273 C274 1.396 . S
C273 C280 1.403 . S
C274 C264 1.476 . S
C274 N269 1.318 . S
C274 C273 1.396 . S
H275 C270 0.929 . S
O276 Mn252 2.385 . S
O276 C254 1.234 . S
O277 Mn252 2.209 . S
O277 Mn253 2.215 . S
O277 C254 1.283 . S
O278 Mn252 2.094 . S
O278 C256 1.240 . S
O279 Mn253 2.117 . S
O279 C256 1.264 . S
C280 C273 1.403 . S
C280 C281 1.399 . S
C280 H286 0.929 . S
C281 C261 1.449 . S
C281 C280 1.399 . S
C281 H287 0.930 . S
H282 C262 0.931 . S
H283 C263 0.930 . S
H284 C271 0.931 . S
H285 C272 0.929 . S
H286 C280 0.929 . S
H287 C281 0.930 . S
Mn288 O293 2.095 . S
Mn288 O303 2.162 . S
Mn288 O304 2.297 . S
Mn288 O312 2.385 . S
Mn288 O313 2.209 1_455 S
Mn288 O314 2.094 . S
Mn289 O294 2.121 1_455 S
Mn289 N296 2.249 1_455 S
Mn289 N305 2.280 . S
Mn289 O313 2.218 1_455 S
Mn289 O315 2.124 . S
C290 O312 1.234 . S
C290 O313 1.283 1_455 S
C291 O303 1.281 . S
C291 O304 1.236 . S
C292 O314 1.240 . S
C292 O315 1.264 . S
O293 Mn288 2.095 . S
O293 C302 1.250 1_455 S
O294 Mn289 2.121 1_655 S
O294 C302 1.258 . S
C295 N296 1.326 . S
C295 C299 1.460 . S
C295 H301 0.929 . S
N296 Mn289 2.249 1_655 S
N296 C295 1.326 . S
N296 C300 1.362 . S
C297 C298 1.258 . S
C297 C300 1.431 . S
C297 C317 1.449 . S
C298 C297 1.258 . S
C298 C299 1.477 . S
C298 H318 0.931 . S
C299 C295 1.460 . S
C299 C298 1.477 . S
C299 H319 0.930 . S
C300 N296 1.362 . S
C300 C297 1.431 . S
C300 C310 1.476 . S
H301 C295 0.929 . S
C302 O293 1.250 1_655 S
C302 O294 1.258 . S
O303 Mn288 2.162 . S
O303 C291 1.281 . S
O304 Mn288 2.297 . S
O304 C291 1.236 . S
N305 Mn289 2.280 . S
N305 C306 1.328 . S
N305 C310 1.318 1_455 S
C306 N305 1.328 . S
C306 C307 1.457 . S
C306 H311 0.929 . S
C307 C306 1.457 . S
C307 C308 1.280 1_455 S
C307 H320 0.931 . S
C308 C307 1.280 1_655 S
C308 C309 1.381 . S
C308 H321 0.932 . S
C309 C308 1.381 . S
C309 C310 1.396 . S
C309 C316 1.403 . S
C310 C300 1.476 . S
C310 N305 1.318 1_655 S
C310 C309 1.396 . S
H311 C306 0.929 . S
O312 Mn288 2.385 . S
O312 C290 1.234 . S
O313 Mn288 2.209 1_655 S
O313 Mn289 2.218 1_655 S
O313 C290 1.283 1_655 S
O314 Mn288 2.094 . S
O314 C292 1.240 . S
O315 Mn289 2.124 . S
O315 C292 1.264 . S
C316 C309 1.403 . S
C316 C317 1.399 . S
C316 H322 0.929 . S
C317 C297 1.449 . S
C317 C316 1.399 . S
C317 H323 0.930 . S
H318 C298 0.931 . S
H319 C299 0.930 . S
H320 C307 0.931 . S
H321 C308 0.932 . S
H322 C316 0.929 . S
H323 C317 0.930 . S
Mn324 O329 2.095 . S
Mn324 O339 2.162 . S
Mn324 O340 2.297 1_545 S
Mn324 O348 2.385 . S
Mn324 O349 2.209 1_545 S
Mn324 O350 2.094 . S
Mn325 O330 2.121 1_545 S
Mn325 N332 2.257 1_545 S
Mn325 N341 2.282 . S
Mn325 O349 2.215 1_545 S
Mn325 O351 2.117 . S
C326 O348 1.234 . S
C326 O349 1.283 1_545 S
C327 O339 1.281 . S
C327 O340 1.236 1_545 S
C328 O350 1.240 . S
C328 O351 1.264 . S
O329 Mn324 2.095 . S
O329 C338 1.250 1_545 S
O330 Mn325 2.121 1_565 S
O330 C338 1.258 . S
C331 N332 1.326 . S
C331 C335 1.460 . S
C331 H337 0.929 . S
N332 Mn325 2.257 1_565 S
N332 C331 1.326 . S
N332 C336 1.362 . S
C333 C334 1.258 . S
C333 C336 1.431 . S
C333 C353 1.449 1_556 S
C334 C333 1.258 . S
C334 C335 1.477 . S
C334 H354 0.931 . S
C335 C331 1.460 . S
C335 C334 1.477 . S
C335 H355 0.930 . S
C336 N332 1.362 . S
C336 C333 1.431 . S
C336 C346 1.476 . S
H337 C331 0.929 . S
C338 O329 1.250 1_565 S
C338 O330 1.258 . S
O339 Mn324 2.162 . S
O339 C327 1.281 . S
O340 Mn324 2.297 1_565 S
O340 C327 1.236 1_565 S
N341 Mn325 2.282 . S
N341 C342 1.328 . S
N341 C346 1.318 1_545 S
C342 N341 1.328 . S
C342 C343 1.457 1_556 S
C342 H347 0.929 . S
C343 C342 1.457 1_554 S
C343 C344 1.291 . S
C343 H356 0.931 . S
C344 C343 1.291 . S
C344 C345 1.373 1_545 S
C344 H357 0.929 . S
C345 C344 1.373 1_565 S
C345 C346 1.396 1_554 S
C345 C352 1.403 . S
C346 C336 1.476 . S
C346 N341 1.318 1_565 S
C346 C345 1.396 1_556 S
H347 C342 0.929 . S
O348 Mn324 2.385 . S
O348 C326 1.234 . S
O349 Mn324 2.209 1_565 S
O349 Mn325 2.215 1_565 S
O349 C326 1.283 1_565 S
O350 Mn324 2.094 . S
O350 C328 1.240 . S
O351 Mn325 2.117 . S
O351 C328 1.264 . S
C352 C345 1.403 . S
C352 C353 1.399 . S
C352 H358 0.929 . S
C353 C333 1.449 1_554 S
C353 C352 1.399 . S
C353 H359 0.930 . S
H354 C334 0.931 . S
H355 C335 0.930 . S
H356 C343 0.931 . S
H357 C344 0.929 . S
H358 C352 0.929 . S
H359 C353 0.930 . S
Mn360 O365 2.095 . S
Mn360 O375 2.162 . S
Mn360 O376 2.297 . S
Mn360 O384 2.385 . S
Mn360 O385 2.209 . S
Mn360 O386 2.094 . S
Mn361 O366 2.121 . S
Mn361 N368 2.257 . S
Mn361 N377 2.282 . S
Mn361 O385 2.215 . S
Mn361 O387 2.117 . S
C362 O384 1.234 . S
C362 O385 1.283 . S
C363 O375 1.281 . S
C363 O376 1.236 . S
C364 O386 1.240 . S
C364 O387 1.264 . S
O365 Mn360 2.095 . S
O365 C374 1.250 . S
O366 Mn361 2.121 . S
O366 C374 1.258 . S
C367 N368 1.326 . S
C367 C371 1.460 . S
C367 H373 0.929 . S
N368 Mn361 2.257 . S
N368 C367 1.326 . S
N368 C372 1.362 . S
C369 C370 1.258 . S
C369 C372 1.431 . S
C369 C389 1.449 . S
C370 C369 1.258 . S
C370 C371 1.477 . S
C370 H390 0.931 . S
C371 C367 1.460 . S
C371 C370 1.477 . S
C371 H391 0.930 . S
C372 N368 1.362 . S
C372 C369 1.431 . S
C372 C382 1.476 . S
H373 C367 0.929 . S
C374 O365 1.250 . S
C374 O366 1.258 . S
O375 Mn360 2.162 . S
O375 C363 1.281 . S
O376 Mn360 2.297 . S
O376 C363 1.236 . S
N377 Mn361 2.282 . S
N377 C378 1.328 1_554 S
N377 C382 1.318 . S
C378 N377 1.328 1_556 S
C378 C379 1.457 . S
C378 H383 0.929 . S
C379 C378 1.457 . S
C379 C380 1.291 . S
C379 H392 0.931 . S
C380 C379 1.291 . S
C380 C381 1.373 . S
C380 H393 0.929 . S
C381 C380 1.373 . S
C381 C382 1.396 1_556 S
C381 C388 1.403 . S
C382 C372 1.476 . S
C382 N377 1.318 . S
C382 C381 1.396 1_554 S
H383 C378 0.929 . S
O384 Mn360 2.385 . S
O384 C362 1.234 . S
O385 Mn360 2.209 . S
O385 Mn361 2.215 . S
O385 C362 1.283 . S
O386 Mn360 2.094 . S
O386 C364 1.240 . S
O387 Mn361 2.117 . S
O387 C364 1.264 . S
C388 C381 1.403 . S
C388 C389 1.399 1_556 S
C388 H394 0.929 . S
C389 C369 1.449 . S
C389 C388 1.399 1_554 S
C389 H395 0.930 . S
H390 C370 0.931 . S
H391 C371 0.930 . S
H392 C379 0.931 . S
H393 C380 0.929 . S
H394 C388 0.929 . S
H395 C389 0.930 . S
Mn396 O401 2.095 . S
Mn396 O411 2.162 . S
Mn396 O412 2.297 . S
Mn396 O420 2.385 . S
Mn396 O421 2.209 1_655 S
Mn396 O422 2.094 . S
Mn397 O402 2.121 1_655 S
Mn397 N404 2.249 1_655 S
Mn397 N413 2.281 . S
Mn397 O421 2.218 1_655 S
Mn397 O423 2.124 . S
C398 O420 1.234 . S
C398 O421 1.283 1_655 S
C399 O411 1.281 . S
C399 O412 1.236 . S
C400 O422 1.240 . S
C400 O423 1.264 . S
O401 Mn396 2.095 . S
O401 C410 1.250 1_655 S
O402 Mn397 2.121 1_455 S
O402 C410 1.258 . S
C403 N404 1.326 . S
C403 C407 1.460 . S
C403 H409 0.929 . S
N404 Mn397 2.249 1_455 S
N404 C403 1.326 . S
N404 C408 1.362 . S
C405 C406 1.258 . S
C405 C408 1.431 . S
C405 C425 1.449 1_556 S
C406 C405 1.258 . S
C406 C407 1.477 . S
C406 H426 0.931 . S
C407 C403 1.460 . S
C407 C406 1.477 . S
C407 H427 0.930 . S
C408 N404 1.362 . S
C408 C405 1.431 . S
C408 C418 1.476 . S
H409 C403 0.929 . S
C410 O401 1.250 1_455 S
C410 O402 1.258 . S
O411 Mn396 2.162 . S
O411 C399 1.281 . S
O412 Mn396 2.297 . S
O412 C399 1.236 . S
N413 Mn397 2.281 . S
N413 C414 1.328 . S
N413 C418 1.318 1_655 S
C414 N413 1.328 . S
C414 C415 1.457 1_556 S
C414 H419 0.929 . S
C415 C414 1.457 1_554 S
C415 C416 1.280 1_655 S
C415 H428 0.931 . S
C416 C415 1.280 1_455 S
C416 C417 1.381 . S
C416 H429 0.932 . S
C417 C416 1.381 . S
C417 C418 1.396 1_554 S
C417 C424 1.403 . S
C418 C408 1.476 . S
C418 N413 1.318 1_455 S
C418 C417 1.396 1_556 S
H419 C414 0.929 . S
O420 Mn396 2.385 . S
O420 C398 1.234 . S
O421 Mn396 2.209 1_455 S
O421 Mn397 2.218 1_455 S
O421 C398 1.283 1_455 S
O422 Mn396 2.094 . S
O422 C400 1.240 . S
O423 Mn397 2.124 . S
O423 C400 1.264 . S
C424 C417 1.403 . S
C424 C425 1.399 . S
C424 H430 0.929 . S
C425 C405 1.449 1_554 S
C425 C424 1.399 . S
C425 H431 0.930 . S
H426 C406 0.931 . S
H427 C407 0.930 . S
H428 C415 0.931 . S
H429 C416 0.932 . S
H430 C424 0.929 . S
H431 C425 0.930 . S
C3 C398 1.336 1_454 S
C218 C38 1.610 1_565 S
C74 C255 1.336 1_554 S
C290 C111 1.336 1_455 S
C326 C146 1.610 1_546 S
C363 C182 1.336 . S
C112 C302 1.308 1_556 S
C158 C338 1.676 1_545 S
C194 C364 1.308 1_556 S
C410 C4 1.308 . S
C50 C230 1.676 1_566 S
C86 C256 1.308 . S
C291 C2 1.582 . S
C327 C39 1.580 . S
C75 C362 1.582 . S
C110 C399 1.582 . S
C147 C219 1.580 . S
C254 C183 1.582 . S
C14 C374 1.460 . S
C400 C40 1.600 . S
C76 C220 1.601 . S
C122 C266 1.460 . S
C148 C292 1.600 . S
C184 C328 1.601 . S
