# Generated by pormake.
# Topology vmg, (6)-cn, num edge types: 1
# Building blocks:
#     Node 0, Type 0, BuildingBlock: MIDCAF_clean_sbu_0, # of connection points: 6
#     Node 1, Type 0, BuildingBlock: MIDCAF_clean_sbu_0, # of connection points: 6
#     Node 2, Type 0, BuildingBlock: MIDCAF_clean_sbu_0, # of connection points: 6
#     Node 3, Type 0, BuildingBlock: MIDCAF_clean_sbu_0, # of connection points: 6
#     Node 4, Type 0, BuildingBlock: MIDCAF_clean_sbu_0, # of connection points: 6
#     Node 5, Type 0, BuildingBlock: MIDCAF_clean_sbu_0, # of connection points: 6
#     Node 6, Type 0, BuildingBlock: MIDCAF_clean_sbu_0, # of connection points: 6
#     Node 7, Type 0, BuildingBlock: MIDCAF_clean_sbu_0, # of connection points: 6
#     Edge 8, Type (0, 0), BuildingBlock: XUDNAN_clean_linker_2, # of connection points: 2
#     Edge 9, Type (0, 0), BuildingBlock: XUDNAN_clean_linker_2, # of connection points: 2
#     Edge 10, Type (0, 0), BuildingBlock: XUDNAN_clean_linker_2, # of connection points: 2
#     Edge 11, Type (0, 0), BuildingBlock: XUDNAN_clean_linker_2, # of connection points: 2
#     Edge 12, Type (0, 0), BuildingBlock: XUDNAN_clean_linker_2, # of connection points: 2
#     Edge 13, Type (0, 0), BuildingBlock: XUDNAN_clean_linker_2, # of connection points: 2
#     Edge 14, Type (0, 0), BuildingBlock: XUDNAN_clean_linker_2, # of connection points: 2
#     Edge 15, Type (0, 0), BuildingBlock: XUDNAN_clean_linker_2, # of connection points: 2
#     Edge 16, Type (0, 0), BuildingBlock: XUDNAN_clean_linker_2, # of connection points: 2
#     Edge 17, Type (0, 0), BuildingBlock: XUDNAN_clean_linker_2, # of connection points: 2
#     Edge 18, Type (0, 0), BuildingBlock: XUDNAN_clean_linker_2, # of connection points: 2
#     Edge 19, Type (0, 0), BuildingBlock: XUDNAN_clean_linker_2, # of connection points: 2
#     Edge 20, Type (0, 0), BuildingBlock: XUDNAN_clean_linker_2, # of connection points: 2
#     Edge 21, Type (0, 0), BuildingBlock: XUDNAN_clean_linker_2, # of connection points: 2
#     Edge 22, Type (0, 0), BuildingBlock: XUDNAN_clean_linker_2, # of connection points: 2
#     Edge 23, Type (0, 0), BuildingBlock: XUDNAN_clean_linker_2, # of connection points: 2
#     Edge 24, Type (0, 0), BuildingBlock: XUDNAN_clean_linker_2, # of connection points: 2
#     Edge 25, Type (0, 0), BuildingBlock: XUDNAN_clean_linker_2, # of connection points: 2
#     Edge 26, Type (0, 0), BuildingBlock: XUDNAN_clean_linker_2, # of connection points: 2
#     Edge 27, Type (0, 0), BuildingBlock: XUDNAN_clean_linker_2, # of connection points: 2
#     Edge 28, Type (0, 0), BuildingBlock: XUDNAN_clean_linker_2, # of connection points: 2
#     Edge 29, Type (0, 0), BuildingBlock: XUDNAN_clean_linker_2, # of connection points: 2
#     Edge 30, Type (0, 0), BuildingBlock: XUDNAN_clean_linker_2, # of connection points: 2
#     Edge 31, Type (0, 0), BuildingBlock: XUDNAN_clean_linker_2, # of connection points: 2
# Relax obj value: 0.370
# Max RMSD: 0.252
# Mean RMSD: 0.252
data_MOF--net-vmg--node1-MIDCAF_clean_sbu_0--edge1-XUDNAN_clean_linker_2
_symmetry_space_group_name_H-M    P1
_symmetry_Int_Tables_number       1
_symmetry_cell_setting            triclinic
loop_
_symmetry_equiv_pos_as_xyz
'x, y, z'
_cell_length_a     24.657059
_cell_length_b     45.837003
_cell_length_c     26.299529
_cell_angle_alpha  90.664006
_cell_angle_beta   88.246056
_cell_angle_gamma 89.875357
loop_
_atom_site_label
_atom_site_type_symbol
_atom_site_fract_x
_atom_site_fract_y
_atom_site_fract_z
_atom_type_partial_charge
Zn0 Zn 0.05486 0.39818 0.16619 0.0
Zn1 Zn 0.29812 0.37074 0.06683 0.0
Zn2 Zn 0.20606 0.37835 0.10029 0.0
C3 C 0.30594 0.39189 0.16633 0.0
C4 C 0.25058 0.31663 0.06008 0.0
O5 O 0.16609 0.40585 0.04451 0.0
O6 O 0.10399 0.40345 0.10329 0.0
C7 C 0.16285 0.40783 0.21803 0.0
O8 O 0.25429 0.39457 0.16299 0.0
O9 O 0.33359 0.37985 0.13075 0.0
O10 O 0.2919 0.32991 0.04306 0.0
O11 O 0.21362 0.33052 0.08632 0.0
O12 O 0.11082 0.40825 0.21837 0.0
O13 O 0.19369 0.39865 0.17985 0.0
O14 O 0.16211 0.33697 0.10991 0.0
O15 O 0.10727 0.37254 0.12638 0.0
C16 C 0.11658 0.34557 0.12883 0.0
O17 O 0.22009 0.40507 0.02926 0.0
O18 O 0.30869 0.4006 0.0155 0.0
C19 C 0.11836 0.41312 0.06011 0.0
C20 C 0.26418 0.41196 0.00441 0.0
Zn21 Zn 0.79937 0.41426 0.32065 0.0
Zn22 Zn 0.68174 0.39248 0.46203 0.0
Zn23 Zn 0.74008 0.40193 0.38449 0.0
C24 C 0.61055 0.40174 0.38334 0.0
C25 C 0.74113 0.34183 0.44599 0.0
O26 O 0.79636 0.43702 0.40824 0.0
O27 O 0.86545 0.42692 0.35578 0.0
C28 C 0.70917 0.43637 0.2879 0.0
O29 O 0.65543 0.4065 0.3584 0.0
O30 O 0.61161 0.39388 0.42909 0.0
O31 O 0.71003 0.35389 0.47894 0.0
O32 O 0.75687 0.3561 0.40624 0.0
O33 O 0.75687 0.44583 0.29079 0.0
O34 O 0.69327 0.41568 0.31755 0.0
O35 O 0.79251 0.36345 0.36212 0.0
O36 O 0.8034 0.3767 0.2825 0.0
C37 C 0.8093 0.35769 0.31611 0.0
O38 O 0.75483 0.43567 0.44504 0.0
O39 O 0.69566 0.42561 0.5073 0.0
C40 C 0.84624 0.44097 0.39368 0.0
C41 C 0.73225 0.44176 0.48881 0.0
Zn42 Zn 0.9265 0.57702 0.83684 0.0
Zn43 Zn 0.67697 0.58911 0.92401 0.0
Zn44 Zn 0.76938 0.58521 0.89193 0.0
C45 C 0.67475 0.56297 0.82689 0.0
C46 C 0.71194 0.64597 0.92379 0.0
O47 O 0.80706 0.55166 0.94081 0.0
O48 O 0.86826 0.56794 0.8899 0.0
C49 C 0.8243 0.56369 0.77511 0.0
O50 O 0.72533 0.56965 0.82583 0.0
O51 O 0.64565 0.56795 0.86631 0.0
O52 O 0.66858 0.63152 0.9273 0.0
O53 O 0.75691 0.63268 0.91208 0.0
O54 O 0.87589 0.56572 0.77957 0.0
O55 O 0.78882 0.56977 0.81149 0.0
O56 O 0.81011 0.62858 0.88815 0.0
O57 O 0.8777 0.59911 0.8885 0.0
C58 C 0.86098 0.62461 0.88045 0.0
O59 O 0.75543 0.55561 0.95973 0.0
O60 O 0.6743 0.56894 0.9896 0.0
C61 C 0.85449 0.54847 0.92124 0.0
C62 C 0.7161 0.55336 -0.00687 0.0
Zn63 Zn 0.30236 0.57992 0.54251 0.0
Zn64 Zn 0.1673 0.55734 0.66391 0.0
Zn65 Zn 0.23201 0.56898 0.60771 0.0
C66 C 0.16727 0.61142 0.68327 0.0
C67 C 0.24127 0.52319 0.69419 0.0
O68 O 0.21992 0.53972 0.54017 0.0
O69 O 0.29307 0.54849 0.49207 0.0
C70 C 0.24713 0.63126 0.55999 0.0
O71 O 0.18379 0.60823 0.63644 0.0
O72 O 0.17416 0.59044 0.71307 0.0
O73 O 0.19231 0.51851 0.6844 0.0
O74 O 0.26581 0.54488 0.67282 0.0
O75 O 0.27722 0.61917 0.52634 0.0
O76 O 0.2277 0.61655 0.59761 0.0
O77 O 0.30995 0.55638 0.64195 0.0
O78 O 0.36615 0.57689 0.58611 0.0
C79 C 0.35847 0.56346 0.62732 0.0
O80 O 0.17009 0.54463 0.56527 0.0
O81 O 0.10512 0.55968 0.61834 0.0
C82 C 0.25083 0.53373 0.50081 0.0
C83 C 0.11924 0.5489 0.57569 0.0
Zn84 Zn 0.6708 0.93496 0.12816 0.0
Zn85 Zn 0.81541 0.89811 0.04084 0.0
Zn86 Zn 0.74365 0.91028 0.10056 0.0
C87 C 0.85854 0.90985 0.13869 0.0
C88 C 0.75264 0.84783 0.04575 0.0
O89 O 0.67493 0.88872 0.06169 0.0
O90 O 0.63737 0.93242 0.06076 0.0
C91 C 0.73803 0.95544 0.18579 0.0
O92 O 0.80863 0.91124 0.15346 0.0
O93 O 0.87102 0.90534 0.09228 0.0
O94 O 0.79695 0.85683 0.02643 0.0
O95 O 0.72287 0.86525 0.07386 0.0
O96 O 0.71705 0.96827 0.14897 0.0
O97 O 0.75173 0.92853 0.17916 0.0
O98 O 0.68557 0.87485 0.11602 0.0
O99 O 0.6516 0.90197 0.17867 0.0
C100 C 0.65878 0.87691 0.15876 0.0
O101 O 0.74242 0.94595 0.04957 0.0
O102 O 0.80051 0.92967 0.99109 0.0
C103 C 0.64124 0.90684 0.04251 0.0
C104 C 0.76738 0.94907 0.00694 0.0
Zn105 Zn 0.36603 0.90024 0.35206 0.0
Zn106 Zn 0.19765 0.86969 0.41322 0.0
Zn107 Zn 0.2879 0.88662 0.3822 0.0
C108 C 0.17704 0.90341 0.33059 0.0
C109 C 0.25422 0.81948 0.40413 0.0
O110 O 0.33228 0.91182 0.44084 0.0
O111 O 0.41217 0.89701 0.41117 0.0
C112 C 0.31431 0.93486 0.30039 0.0
O113 O 0.22912 0.90443 0.32884 0.0
O114 O 0.1522 0.88903 0.36446 0.0
O115 O 0.20534 0.82717 0.41046 0.0
O116 O 0.29076 0.83859 0.39267 0.0
O117 O 0.35197 0.94029 0.33037 0.0
O118 O 0.28288 0.91295 0.31019 0.0
O119 O 0.33687 0.84701 0.36056 0.0
O120 O 0.37294 0.87075 0.2964 0.0
C121 C 0.36447 0.8468 0.31818 0.0
O122 O 0.27605 0.90862 0.45621 0.0
O123 O 0.19829 0.88871 0.48105 0.0
C124 C 0.38408 0.90992 0.44544 0.0
C125 C 0.23682 0.90604 0.4893 0.0
Zn126 Zn 0.37165 0.05788 0.8055 0.0
Zn127 Zn 0.23856 0.06515 0.93834 0.0
Zn128 Zn 0.30051 0.06491 0.87223 0.0
C129 C 0.17173 0.07309 0.86311 0.0
C130 C 0.29952 0.11338 0.95512 0.0
O131 O 0.35411 0.02686 0.89131 0.0
O132 O 0.41737 0.02634 0.8302 0.0
C133 C 0.27381 0.04477 0.76066 0.0
O134 O 0.21533 0.06282 0.84086 0.0
O135 O 0.17317 0.08038 0.9093 0.0
O136 O 0.27683 0.09361 0.98099 0.0
O137 O 0.3097 0.10872 0.90733 0.0
O138 O 0.32395 0.0469 0.75071 0.0
O139 O 0.25462 0.05135 0.80547 0.0
O140 O 0.34506 0.10829 0.86212 0.0
O141 O 0.40372 0.09601 0.80028 0.0
C142 C 0.38383 0.11507 0.83022 0.0
O143 O 0.31596 0.03219 0.93362 0.0
O144 O 0.23339 0.02551 0.9658 0.0
C145 C 0.39722 0.01539 0.87019 0.0
C146 C 0.28298 0.01885 0.96472 0.0
Zn147 Zn 0.80466 0.08009 0.5655 0.0
Zn148 Zn 0.64625 0.08805 0.66986 0.0
Zn149 Zn 0.72148 0.08751 0.6197 0.0
C150 C 0.63025 0.13628 0.62944 0.0
C151 C 0.71909 0.08746 0.73874 0.0
O152 O 0.70546 0.05537 0.55654 0.0
O153 O 0.78751 0.04579 0.52422 0.0
C154 C 0.76124 0.13722 0.54937 0.0
O155 O 0.682 0.132 0.62688 0.0
O156 O 0.60031 0.11409 0.6285 0.0
O157 O 0.67553 0.10177 0.73555 0.0
O158 O 0.74332 0.07787 0.69768 0.0
O159 O 0.79586 0.11878 0.53281 0.0
O160 O 0.72849 0.13061 0.5863 0.0
O161 O 0.79392 0.07825 0.66742 0.0
O162 O 0.86349 0.07559 0.61275 0.0
C163 C 0.84536 0.0752 0.65801 0.0
O164 O 0.66286 0.05214 0.5967 0.0
O165 O 0.62306 0.04743 0.67198 0.0
C166 C 0.73712 0.04141 0.52446 0.0
C167 C 0.63008 0.03819 0.62705 0.0
H168 H 0.58609 0.42028 0.2867 0.0
H169 H 0.51221 0.39136 0.42935 0.0
H170 H 0.42212 0.39512 0.39327 0.0
H171 H 0.4722 0.47135 0.25379 0.0
H172 H 0.47929 0.46212 0.18711 0.0
H173 H 0.5379 0.46178 0.22645 0.0
H174 H 0.55796 0.40831 0.19934 0.0
H175 H 0.49992 0.40847 0.15977 0.0
H176 H 0.50582 0.38111 0.208 0.0
H177 H 0.34237 0.3932 0.33865 0.0
H178 H 0.28061 0.38499 0.26766 0.0
H179 H 0.40217 0.41931 0.16242 0.0
C180 C 0.55099 0.41537 0.31063 0.0
C181 C 0.55665 0.40555 0.36082 0.0
C182 C 0.50935 0.39895 0.39069 0.0
C183 C 0.45767 0.40125 0.37075 0.0
C184 C 0.45346 0.41064 0.32103 0.0
C185 C 0.49876 0.41783 0.2914 0.0
C186 C 0.4833 0.42461 0.2376 0.0
C187 C 0.49379 0.45689 0.22556 0.0
C188 C 0.51351 0.40441 0.19894 0.0
C189 C 0.42299 0.41812 0.24098 0.0
C190 C 0.40627 0.41073 0.28973 0.0
C191 C 0.35421 0.40002 0.30066 0.0
C192 C 0.31895 0.39579 0.26035 0.0
C193 C 0.33584 0.40266 0.21021 0.0
C194 C 0.3878 0.41477 0.20086 0.0
H195 H 0.64409 0.59365 0.74565 0.0
H196 H 0.63364 0.50889 0.81548 0.0
H197 H 0.55298 0.49735 0.76557 0.0
H198 H 0.51495 0.61002 0.75197 0.0
H199 H 0.50861 0.62773 0.6916 0.0
H200 H 0.57319 0.62681 0.7213 0.0
H201 H 0.61824 0.60196 0.64187 0.0
H202 H 0.55431 0.60385 0.61055 0.0
H203 H 0.58878 0.56933 0.61576 0.0
H204 H 0.46184 0.50019 0.72418 0.0
H205 H 0.37708 0.51356 0.68135 0.0
H206 H 0.44911 0.59599 0.63735 0.0
C207 C 0.62736 0.57185 0.74731 0.0
C208 C 0.6463 0.55166 0.78266 0.0
C209 C 0.6209 0.52412 0.78695 0.0
C210 C 0.57466 0.51755 0.75921 0.0
C211 C 0.55481 0.53869 0.72693 0.0
C212 C 0.58153 0.56492 0.71945 0.0
C213 C 0.54918 0.58512 0.68675 0.0
C214 C 0.53571 0.61411 0.71461 0.0
C215 C 0.57941 0.59037 0.63569 0.0
C216 C 0.49875 0.56696 0.67968 0.0
C217 C 0.50265 0.54018 0.70283 0.0
C218 C 0.4589 0.52083 0.70488 0.0
C219 C 0.4106 0.52877 0.68137 0.0
C220 C 0.40656 0.55585 0.65656 0.0
C221 C 0.45129 0.57504 0.65583 0.0
H222 H 0.15597 0.88809 0.23378 0.0
H223 H 0.11808 0.95139 0.35277 0.0
H224 H 0.03252 0.96372 0.31168 0.0
H225 H 0.08328 0.9284 0.12639 0.0
H226 H 0.06054 0.89412 0.1005 0.0
H227 H 0.12522 0.89629 0.13025 0.0
H228 H 0.09691 0.85467 0.1904 0.0
H229 H 0.03147 0.85242 0.16254 0.0
H230 H 0.03629 0.85852 0.23008 0.0
H231 H 0.94211 0.95971 0.27086 0.0
H232 H 0.86099 0.9468 0.22179 0.0
H233 H 0.95802 0.88544 0.13116 0.0
C234 C 0.1314 0.90599 0.24886 0.0
C235 C 0.14373 0.91939 0.29539 0.0
C236 C 0.10962 0.94163 0.31613 0.0
C237 C 0.06073 0.94852 0.29336 0.0
C238 C 0.04717 0.93313 0.24965 0.0
C239 C 0.0824 0.91304 0.2265 0.0
C240 C 0.0555 0.89688 0.18369 0.0
C241 C 0.08274 0.90441 0.13216 0.0
C242 C 0.05503 0.86368 0.19226 0.0
C243 C 0.99901 0.9096 0.18863 0.0
C244 C 0.99486 0.93066 0.22647 0.0
C245 C 0.9452 0.94374 0.24027 0.0
C246 C 0.89912 0.93587 0.21313 0.0
C247 C 0.90335 0.91501 0.17321 0.0
C248 C 0.9538 0.9016 0.16143 0.0
H249 H 0.14121 0.05358 0.7671 0.0
H250 H 0.0808 0.09893 0.90329 0.0
H251 H 0.9902 0.10117 0.86829 0.0
H252 H 0.06245 0.09252 0.67878 0.0
H253 H 0.0488 0.06126 0.63902 0.0
H254 H 0.10972 0.06243 0.67501 0.0
H255 H 0.0836 0.01345 0.71697 0.0
H256 H 0.02249 0.01212 0.68124 0.0
H257 H 0.01871 0.00992 0.74966 0.0
H258 H 0.9065 0.10043 0.81874 0.0
H259 H 0.83603 0.09846 0.75423 0.0
H260 H 0.94653 0.05077 0.65208 0.0
C261 C 0.10895 0.06368 0.78962 0.0
C262 C 0.11856 0.07558 0.83829 0.0
C263 C 0.07496 0.08931 0.86606 0.0
C264 C 0.02296 0.09067 0.84666 0.0
C265 C 0.01455 0.07813 0.79933 0.0
C266 C 0.05616 0.06496 0.77095 0.0
C267 C 0.03573 0.05372 0.72059 0.0
C268 C 0.06596 0.06837 0.6757 0.0
C269 C 0.0404 0.02032 0.71693 0.0
C270 C 0.97674 0.06334 0.72495 0.0
C271 C 0.96535 0.07712 0.77094 0.0
C272 C 0.91448 0.08915 0.78291 0.0
C273 C 0.87431 0.08752 0.74641 0.0
C274 C 0.88494 0.07353 0.69899 0.0
C275 C 0.93681 0.0611 0.68848 0.0
H276 H 0.27251 0.28672 0.97199 0.0
H277 H 0.2279 0.27545 0.13127 0.0
H278 H 0.24542 0.22234 0.12222 0.0
H279 H 0.20865 0.21876 0.92846 0.0
H280 H 0.26018 0.21226 0.87952 0.0
H281 H 0.24348 0.24905 0.89911 0.0
H282 H 0.34472 0.258 0.91779 0.0
H283 H 0.36137 0.22092 0.89984 0.0
H284 H 0.37835 0.23471 0.9618 0.0
H285 H 0.27666 0.17225 0.09803 0.0
H286 H 0.29543 0.12498 0.05643 0.0
H287 H 0.31199 0.16744 0.90994 0.0
C288 C 0.26538 0.27287 0.00461 0.0
C289 C 0.24882 0.28488 0.05237 0.0
C290 C 0.23991 0.26642 0.09437 0.0
C291 C 0.2505 0.2364 0.08967 0.0
C292 C 0.26889 0.22539 0.0425 0.0
C293 C 0.27443 0.24282 0.00024 0.0
C294 C 0.29195 0.22514 0.95336 0.0
C295 C 0.24847 0.22637 0.91272 0.0
C296 C 0.34739 0.23531 0.93195 0.0
C297 C 0.29588 0.195 0.97599 0.0
C298 C 0.28366 0.19592 0.0277 0.0
C299 C 0.28534 0.17116 0.05746 0.0
C300 C 0.29642 0.14441 0.03335 0.0
C301 C 0.30443 0.14241 0.97972 0.0
C302 C 0.30626 0.16824 0.95092 0.0
H303 H 0.71944 0.30918 0.53018 0.0
H304 H 0.79132 0.30354 0.37759 0.0
H305 H 0.80421 0.2505 0.38802 0.0
H306 H 0.80427 0.25454 0.58782 0.0
H307 H 0.74929 0.24074 0.62731 0.0
H308 H 0.74972 0.27845 0.60882 0.0
H309 H 0.65447 0.27191 0.57133 0.0
H310 H 0.6541 0.23407 0.58898 0.0
H311 H 0.64421 0.24398 0.52378 0.0
H312 H 0.80552 0.19807 0.41405 0.0
H313 H 0.79911 0.14997 0.45431 0.0
H314 H 0.72259 0.1896 0.58913 0.0
C315 C 0.73856 0.29697 0.49899 0.0
C316 C 0.75487 0.31069 0.45302 0.0
C317 C 0.77935 0.29373 0.4133 0.0
C318 C 0.78641 0.26353 0.41883 0.0
C319 C 0.76858 0.25072 0.46423 0.0
C320 C 0.74543 0.26693 0.50373 0.0
C321 C 0.72825 0.24786 0.54809 0.0
C322 C 0.75978 0.25587 0.59583 0.0
C323 C 0.6666 0.24956 0.55863 0.0
C324 C 0.7449 0.2182 0.52722 0.0
C325 C 0.76829 0.22041 0.47889 0.0
C326 C 0.78746 0.1961 0.45188 0.0
C327 C 0.78356 0.16888 0.47516 0.0
C328 C 0.76036 0.16606 0.52492 0.0
C329 C 0.74008 0.19105 0.55096 0.0
H330 H 0.81745 0.80214 0.01658 0.0
H331 H 0.64871 0.82625 0.04454 0.0
H332 H 0.62069 0.77762 0.01274 0.0
H333 H 0.80135 0.76193 0.9022 0.0
H334 H 0.85009 0.73406 0.91652 0.0
H335 H 0.85718 0.77033 0.94252 0.0
H336 H 0.85768 0.74966 0.03378 0.0
H337 H 0.85152 0.71328 0.008 0.0
H338 H 0.80287 0.7265 0.05542 0.0
H339 H 0.61154 0.72815 0.97281 0.0
H340 H 0.62022 0.67826 0.93902 0.0
H341 H 0.79598 0.68505 0.94021 0.0
C342 C 0.77455 0.79713 0.01634 0.0
C343 C 0.73509 0.81798 0.03265 0.0
C344 C 0.67948 0.81055 0.03235 0.0
C345 C 0.6633 0.78311 0.01403 0.0
C346 C 0.70332 0.76338 -0.00308 0.0
C347 C 0.75782 0.76982 -0.00114 0.0
C348 C 0.79275 0.74452 0.97936 0.0
C349 C 0.82738 0.75325 0.93235 0.0
C350 C 0.82829 0.7328 0.02166 0.0
C351 C 0.74931 0.72282 0.96543 0.0
C352 C 0.6981 0.73435 0.97549 0.0
C353 C 0.65137 0.7188 0.96534 0.0
C354 C 0.65694 0.69041 0.94593 0.0
C355 C 0.70893 0.67749 0.93722 0.0
C356 C 0.75577 0.69423 0.94627 0.0
H357 H 0.1794 0.66147 0.50097 0.0
H358 H 0.30986 0.67064 0.6063 0.0
H359 H 0.33089 0.71952 0.57215 0.0
H360 H 0.24314 0.69165 0.39807 0.0
H361 H 0.1861 0.71134 0.3742 0.0
H362 H 0.17499 0.67909 0.41144 0.0
H363 H 0.11348 0.70763 0.47647 0.0
H364 H 0.12194 0.73962 0.43794 0.0
H365 H 0.13795 0.74103 0.50435 0.0
H366 H 0.34756 0.763 0.51608 0.0
H367 H 0.34148 0.80564 0.45977 0.0
H368 H 0.19721 0.76908 0.3939 0.0
C369 C 0.21016 0.6746 0.51878 0.0
C370 C 0.24212 0.66291 0.5571 0.0
C371 C 0.28387 0.67987 0.5781 0.0
C372 C 0.29674 0.70733 0.55823 0.0
C373 C 0.26684 0.71747 0.51793 0.0
C374 C 0.22294 0.70221 0.49987 0.0
C375 C 0.19802 0.71772 0.45574 0.0
C376 C 0.20075 0.6988 0.40701 0.0
C377 C 0.13939 0.72707 0.46946 0.0
C378 C 0.23544 0.74373 0.45116 0.0
C379 C 0.27553 0.7429 0.48667 0.0
C380 C 0.31581 0.76415 0.48866 0.0
C381 C 0.31269 0.78799 0.45587 0.0
C382 C 0.26902 0.79048 0.42251 0.0
C383 C 0.23125 0.76752 0.41882 0.0
H384 H 0.86348 0.51693 0.0099 0.0
H385 H 0.93023 0.52568 0.85624 0.0
H386 H 1.00186 0.49031 0.87429 0.0
H387 H 0.98832 0.51348 0.07005 0.0
H388 H 0.96857 0.48653 0.11638 0.0
H389 H 0.91818 0.51017 0.09059 0.0
H390 H 0.86287 0.46537 0.06153 0.0
H391 H 0.91277 0.44153 0.08783 0.0
H392 H 0.89541 0.43767 0.02202 0.0
H393 H 0.07079 0.45824 0.90987 0.0
H394 H 0.13159 0.42824 0.96069 0.0
H395 H 0.02213 0.43893 0.09189 0.0
C396 C 0.8925 0.51078 0.9799 0.0
C397 C 0.89164 0.52416 0.93178 0.0
C398 C 0.93063 0.51599 0.89357 0.0
C399 C 0.97135 0.49578 0.90332 0.0
C400 C 0.97251 0.48374 0.9515 0.0
C401 C 0.93396 0.49057 0.98913 0.0
C402 C 0.94681 0.47541 0.03839 0.0
C403 C 0.95602 0.49774 0.08138 0.0
C404 C 0.90179 0.4537 0.05331 0.0
C405 C 0.99915 0.45972 0.02263 0.0
C406 C 0.01288 0.46479 0.97224 0.0
C407 C 0.06042 0.45381 0.94927 0.0
C408 C 0.09493 0.437 0.97849 0.0
C409 C 0.08183 0.43132 0.0301 0.0
C410 C 0.03311 0.44278 0.05235 0.0
H411 H 0.11772 0.50305 0.5078 0.0
H412 H 0.02229 0.57584 0.56724 0.0
H413 H 0.94332 0.5582 0.52081 0.0
H414 H 0.05039 0.49824 0.37964 0.0
H415 H 0.05621 0.45902 0.37979 0.0
H416 H 0.10641 0.48119 0.41007 0.0
H417 H 0.08799 0.45187 0.49343 0.0
H418 H 0.03635 0.43097 0.46296 0.0
H419 H 0.0201 0.45104 0.52082 0.0
H420 H 0.87172 0.52903 0.4796 0.0
H421 H 0.81395 0.49235 0.43816 0.0
H422 H 0.95566 0.43841 0.40493 0.0
C423 C 0.08106 0.51584 0.50914 0.0
C424 C 0.07631 0.54086 0.5405 0.0
C425 C 0.02673 0.55656 0.54322 0.0
C426 C 0.9817 0.54677 0.51694 0.0
C427 C 0.98697 0.52127 0.48806 0.0
C428 C 0.0356 0.50625 0.48316 0.0
C429 C 0.02915 0.47821 0.45296 0.0
C430 C 0.06249 0.47922 0.40262 0.0
C431 C 0.04429 0.45145 0.48444 0.0
C432 C 0.96886 0.47925 0.44379 0.0
C433 C 0.94541 0.5044 0.46394 0.0
C434 C 0.8897 0.50946 0.46292 0.0
C435 C 0.85712 0.48835 0.44013 0.0
C436 C 0.88039 0.46253 0.41917 0.0
C437 C 0.93698 0.45808 0.42065 0.0
H438 H 0.65232 0.92572 0.94789 0.0
H439 H 0.54551 0.8778 0.04933 0.0
H440 H 0.46645 0.89508 0.00307 0.0
H441 H 0.58752 -0.01495 0.95743 0.0
H442 H 0.59497 -0.00115 0.8937 0.0
H443 H 0.64391 0.97366 0.91655 0.0
H444 H 0.62791 0.93759 0.84278 0.0
H445 H 0.58073 0.96323 0.81709 0.0
H446 H 0.55989 0.92621 0.82908 0.0
H447 H 0.39949 0.92872 0.96322 0.0
H448 H 0.35182 0.97081 0.92662 0.0
H449 H 0.5037 0.00071 0.85874 0.0
C450 C 0.61258 0.91685 0.95723 0.0
C451 C 0.60492 0.89984 0.00116 0.0
C452 C 0.5523 0.88992 0.01468 0.0
C453 C 0.50701 0.90016 0.989 0.0
C454 C 0.51541 0.92002 0.94968 0.0
C455 C 0.56723 0.92767 0.93287 0.0
C456 C 0.56597 0.9536 0.89765 0.0
C457 C 0.60004 0.97927 0.9176 0.0
C458 C 0.5847 0.94461 0.84342 0.0
C459 C 0.506 0.96063 0.90016 0.0
C460 C 0.47718 0.94067 0.92915 0.0
C461 C 0.42168 0.94419 0.93985 0.0
C462 C 0.39509 0.96855 0.92005 0.0
C463 C 0.42429 -0.01047 0.89135 0.0
C464 C 0.48023 -0.01492 0.88072 0.0
H465 H 0.47017 0.94385 0.42573 0.0
H466 H 0.36342 0.91507 0.54909 0.0
H467 H 0.41985 0.9422 0.61072 0.0
H468 H 0.59536 0.94091 0.48889 0.0
H469 H 0.62213 0.9738 0.46115 0.0
H470 H 0.57468 0.95192 0.42678 0.0
H471 H 0.5107 -0.00398 0.41834 0.0
H472 H 0.55737 0.01881 0.45181 0.0
H473 H 0.48798 0.01601 0.47451 0.0
H474 H 0.49072 0.97148 0.65775 0.0
H475 H 0.56092 0.00552 0.68618 0.0
H476 H 0.61617 0.01732 0.52987 0.0
C477 C 0.45875 0.94318 0.46582 0.0
C478 C 0.41316 0.92718 0.48317 0.0
C479 C 0.39844 0.92724 0.53547 0.0
C480 C 0.43044 0.94236 0.57049 0.0
C481 C 0.47594 0.95756 0.55201 0.0
C482 C 0.48935 0.95846 0.50072 0.0
C483 C 0.53807 0.97764 0.48979 0.0
C484 C 0.58532 0.96 0.46519 0.0
C485 C 0.5226 0.00365 0.45667 0.0
C486 C 0.5507 -0.01267 0.54313 0.0
C487 C 0.51492 0.97524 0.57854 0.0
C488 C 0.51868 0.98112 0.63026 0.0
C489 C 0.55896 0.00048 0.64595 0.0
C490 C 0.59456 0.01416 0.60999 0.0
C491 C 0.59062 0.00698 0.55812 0.0
H492 H 0.10153 0.34976 0.23026 0.0
H493 H 0.04535 0.30415 0.09735 0.0
H494 H 0.96306 0.28869 0.14605 0.0
H495 H 0.03218 0.30025 0.33243 0.0
H496 H 0.01701 0.33196 0.37153 0.0
H497 H 0.07854 0.33061 0.33265 0.0
H498 H 0.05174 0.3791 0.29091 0.0
H499 H 0.99051 0.38067 0.3289 0.0
H500 H 0.98746 0.38187 0.26051 0.0
H501 H 0.87756 0.29202 0.19822 0.0
H502 H 0.80006 0.31331 0.24745 0.0
H503 H 0.91039 0.35472 0.34997 0.0
C504 C 0.07331 0.33503 0.21259 0.0
C505 C 0.08021 0.32741 0.16065 0.0
C506 C 0.04159 0.30928 0.13762 0.0
C507 C 0.99459 0.30058 0.16508 0.0
C508 C 0.98717 0.30998 0.21565 0.0
C509 C 0.02621 0.3264 0.23952 0.0
C510 C 0.00493 0.33835 0.29038 0.0
C511 C 0.03495 0.32445 0.33435 0.0
C512 C 0.00882 0.37195 0.29271 0.0
C513 C 0.94648 0.3282 0.28969 0.0
C514 C 0.93728 0.31121 0.24687 0.0
C515 C 0.88464 0.30413 0.23294 0.0
C516 C 0.84064 0.31609 0.26139 0.0
C517 C 0.84941 0.33465 0.30361 0.0
C518 C 0.90281 0.33924 0.31959 0.0
H519 H 0.15152 0.63409 0.77795 0.0
H520 H 0.08605 0.63468 0.62735 0.0
H521 H 0.99804 0.65215 0.66371 0.0
H522 H 0.04964 0.60162 0.83345 0.0
H523 H 0.04989 0.62046 0.89399 0.0
H524 H 0.1109 0.61835 0.85551 0.0
H525 H 0.11852 0.67476 0.85672 0.0
H526 H 0.05724 0.67703 0.89584 0.0
H527 H 0.06229 0.69662 0.83686 0.0
H528 H 0.91149 0.65465 0.71862 0.0
H529 H 0.8403 0.64348 0.78408 0.0
H530 H 0.96187 0.64186 0.89878 0.0
C531 C 0.11967 0.63977 0.75235 0.0
C532 C 0.12599 0.63349 0.69978 0.0
C533 C 0.08279 0.6401 0.66753 0.0
C534 C 0.0323 0.64978 0.6881 0.0
C535 C 0.02596 0.65337 0.74087 0.0
C536 C 0.06921 0.64923 0.77242 0.0
C537 C 0.05065 0.64943 0.8279 0.0
C538 C 0.06615 0.62077 0.85416 0.0
C539 C 0.07353 0.67605 0.85598 0.0
C540 C 0.98984 0.65214 0.82279 0.0
C541 C 0.9761 0.65515 0.77248 0.0
C542 C 0.92189 0.65352 0.75822 0.0
C543 C 0.88141 0.64749 0.79574 0.0
C544 C 0.89547 0.6429 0.84677 0.0
C545 C 0.94992 0.64659 0.86044 0.0
H546 H 0.37812 0.82641 0.22269 0.0
H547 H 0.43504 0.81678 0.37499 0.0
H548 H 0.52678 0.80616 0.34064 0.0
H549 H 0.49549 0.77628 0.15315 0.0
H550 H 0.49579 0.80157 0.10116 0.0
H551 H 0.43274 0.79228 0.1336 0.0
H552 H 0.4141 0.84711 0.14978 0.0
H553 H 0.47702 0.8566 0.11917 0.0
H554 H 0.46277 0.86862 0.18374 0.0
H555 H 0.61086 0.8211 0.29772 0.0
H556 H 0.67643 0.85116 0.2489 0.0
H557 H 0.57119 0.85022 0.12086 0.0
C558 C 0.40916 0.81942 0.24817 0.0
C559 C 0.39999 0.82252 0.3012 0.0
C560 C 0.44111 0.81413 0.33421 0.0
C561 C 0.49378 0.80845 0.31477 0.0
C562 C 0.50389 0.81034 0.26228 0.0
C563 C 0.46205 0.81432 0.22894 0.0
C564 C 0.48406 0.8221 0.1762 0.0
C565 C 0.47659 0.79653 0.13882 0.0
C566 C 0.458 0.85028 0.15621 0.0
C567 C 0.54355 0.82631 0.18698 0.0
C568 C 0.55464 0.81828 0.23628 0.0
C569 C 0.60351 0.82598 0.25837 0.0
C570 C 0.64059 0.84314 0.23049 0.0
C571 C 0.6291 0.85208 0.1808 0.0
C572 C 0.5814 0.84243 0.15801 0.0
H573 H 0.53374 0.16203 0.61326 0.0
H574 H 0.66954 0.16379 0.71282 0.0
H575 H 0.60876 0.17817 0.78449 0.0
H576 H 0.44218 0.22029 0.69553 0.0
H577 H 0.38329 0.19932 0.67934 0.0
H578 H 0.43831 0.20372 0.63326 0.0
H579 H 0.44492 0.14766 0.62283 0.0
H580 H 0.39094 0.14311 0.66856 0.0
H581 H 0.45539 0.12564 0.67817 0.0
H582 H 0.5343 0.16915 0.84714 0.0
H583 H 0.45899 0.14212 0.88814 0.0
H584 H 0.36624 0.15028 0.75285 0.0
C585 C 0.55098 0.16798 0.64928 0.0
C586 C 0.60613 0.16165 0.65746 0.0
C587 C 0.62761 0.1688 0.70527 0.0
C588 C 0.59291 0.17671 0.74663 0.0
C589 C 0.5371 0.17864 0.73911 0.0
C590 C 0.51645 0.17577 0.69085 0.0
C591 C 0.45505 0.1729 0.69374 0.0
C592 C 0.42812 0.20072 0.67433 0.0
C593 C 0.43558 0.14571 0.66421 0.0
C594 C 0.44529 0.17009 0.75079 0.0
C595 C 0.49271 0.17472 0.77665 0.0
C596 C 0.49644 0.16687 0.82775 0.0
C597 C 0.45293 0.15181 0.85136 0.0
C598 C 0.4064 0.14464 0.82387 0.0
C599 C 0.40066 0.15657 0.77507 0.0
H600 H 0.21097 0.40878 0.91511 0.0
H601 H 0.32343 0.46126 7e-05 0.0
H602 H 0.33793 0.4933 0.92576 0.0
H603 H 0.28348 0.41191 0.79585 0.0
H604 H 0.22369 0.41418 0.75833 0.0
H605 H 0.22076 0.39583 0.81855 0.0
H606 H 0.14174 0.42944 0.85061 0.0
H607 H 0.14331 0.44711 0.78984 0.0
H608 H 0.14974 0.46849 0.84727 0.0
H609 H 0.3395 0.51968 0.84209 0.0
H610 H 0.32025 0.54126 0.75867 0.0
H611 H 0.21016 0.46998 0.72777 0.0
C612 C 0.23728 0.42756 0.91834 0.0
C613 C 0.26493 0.43326 0.96335 0.0
C614 C 0.30112 0.45711 0.96587 0.0
C615 C 0.30996 0.47519 0.92385 0.0
C616 C 0.28285 0.46874 0.87948 0.0
C617 C 0.24684 0.44568 0.87661 0.0
C618 C 0.22273 0.44353 0.8246 0.0
C619 C 0.23864 0.41464 0.79776 0.0
C620 C 0.16071 0.44739 0.82832 0.0
C621 C 0.2501 0.46922 0.799 0.0
C622 C 0.28509 0.48335 0.83099 0.0
C623 C 0.31262 0.50865 0.81644 0.0
C624 C 0.30201 0.52057 0.76879 0.0
C625 C 0.26431 0.50708 0.73662 0.0
C626 C 0.23975 0.48055 0.75134 0.0
H627 H 0.82169 0.45041 0.54496 0.0
H628 H 0.67127 0.49029 0.5009 0.0
H629 H 0.68323 0.52975 0.56456 0.0
H630 H 0.80108 0.45977 0.67225 0.0
H631 H 0.87018 0.46772 0.68796 0.0
H632 H 0.8565 0.4462 0.63226 0.0
H633 H 0.91098 0.48241 0.57503 0.0
H634 H 0.92639 0.50329 0.6313 0.0
H635 H 0.89462 0.52075 0.57893 0.0
H636 H 0.70481 0.56062 0.64067 0.0
H637 H 0.73734 0.58177 0.7215 0.0
H638 H 0.87117 0.52043 0.71775 0.0
C639 C 0.79274 0.46822 0.54744 0.0
C640 C 0.74638 0.46804 0.51756 0.0
C641 C 0.70771 0.49075 0.52289 0.0
C642 C 0.71414 0.51313 0.55891 0.0
C643 C 0.75946 0.51232 0.58921 0.0
C644 C 0.79854 0.49066 0.58341 0.0
C645 C 0.84022 0.49299 0.6243 0.0
C646 C 0.84204 0.46501 0.65606 0.0
C647 C 0.89641 0.50027 0.60099 0.0
C648 C 0.81717 0.51845 0.65516 0.0
C649 C 0.77104 0.52959 0.63398 0.0
C650 C 0.74117 0.55221 0.65736 0.0
C651 C 0.75912 0.56372 0.70359 0.0
C652 C 0.80564 0.55222 0.72615 0.0
C653 C 0.83539 0.52964 0.70114 0.0
H654 H 0.6627 0.48837 0.26779 0.0
H655 H 0.70139 0.40334 0.20356 0.0
H656 H 0.70398 0.42412 0.11737 0.0
H657 H 0.57933 0.514 0.15277 0.0
H658 H 0.60373 0.55068 0.16189 0.0
H659 H 0.5919 0.52746 0.21597 0.0
H660 H 0.69054 0.53692 0.24255 0.0
H661 H 0.70403 0.55882 0.18741 0.0
H662 H 0.74599 0.5275 0.19907 0.0
H663 H 0.73 0.45671 0.04389 0.0
H664 H 0.74701 0.49635 0.98201 0.0
H665 H 0.68265 0.55944 0.09215 0.0
C666 C 0.66754 0.47384 0.2352 0.0
C667 C 0.68087 0.44425 0.24191 0.0
C668 C 0.68952 0.42591 0.19884 0.0
C669 C 0.69204 0.43765 0.14981 0.0
C670 C 0.68379 0.46756 0.14472 0.0
C671 C 0.66875 0.48515 0.18594 0.0
C672 C 0.66548 0.51687 0.17076 0.0
C673 C 0.60661 0.52791 0.17561 0.0
C674 C 0.7038 0.53613 0.20181 0.0
C675 C 0.68462 0.5146 0.11564 0.0
C676 C 0.69551 0.48603 0.10136 0.0
C677 C 0.7196 0.47902 0.05401 0.0
C678 C 0.73007 0.50166 0.01948 0.0
C679 C 0.71579 0.53075 0.03244 0.0
C680 C 0.69339 0.53725 0.08128 0.0
H681 H 0.22866 0.45477 0.23184 0.0
H682 H 0.14715 0.38415 0.31061 0.0
H683 H 0.16903 0.40653 0.39337 0.0
H684 H 0.33662 0.46757 0.33039 0.0
H685 H 0.33392 0.50639 0.32058 0.0
H686 H 0.3215 0.4815 0.26863 0.0
H687 H 0.22902 0.50723 0.25557 0.0
H688 H 0.2405 0.53149 0.30831 0.0
H689 H 0.18009 0.50942 0.3079 0.0
H690 H 0.18838 0.43968 0.46652 0.0
H691 H 0.20576 0.48108 0.52516 0.0
H692 H 0.27229 0.5308 0.39876 0.0
C693 C 0.21764 0.44353 0.26663 0.0
C694 C 0.18714 0.41764 0.26537 0.0
C695 C 0.17118 0.40389 0.31129 0.0
C696 C 0.18356 0.41637 0.35833 0.0
C697 C 0.21205 0.44255 0.35861 0.0
C698 C 0.22955 0.45581 0.314 0.0
C699 C 0.2543 0.48534 0.32477 0.0
C700 C 0.3152 0.48519 0.31024 0.0
C701 C 0.22415 0.50979 0.29752 0.0
C702 C 0.24503 0.4873 0.38189 0.0
C703 C 0.22177 0.46214 0.40085 0.0
C704 C 0.20704 0.45942 0.45222 0.0
C705 C 0.21626 0.48312 0.48505 0.0
C706 C 0.239 0.50925 0.46613 0.0
C707 C 0.25432 0.5111 0.41408 0.0
H708 H 0.81029 0.95999 0.9125 0.0
H709 H 0.70616 -0.00248 0.0324 0.0
H710 H 0.6943 0.04167 0.98066 0.0
H711 H 0.87478 0.02828 0.86947 0.0
H712 H 0.87426 0.01708 0.8036 0.0
H713 H 0.88015 -0.00987 0.85254 0.0
H714 H 0.79582 0.96291 0.81903 0.0
H715 H 0.79036 -0.01055 0.76973 0.0
H716 H 0.73323 0.98272 0.8124 0.0
H717 H 0.68903 0.07999 0.91333 0.0
H718 H 0.6816 0.10643 0.83256 0.0
H719 H 0.78753 0.0425 0.75739 0.0
C720 C 0.78562 0.97765 0.92835 0.0
C721 C 0.75952 0.97547 0.97662 0.0
C722 C 0.72678 -0.00117 -0.00445 0.0
C723 C 0.72021 0.02407 0.96667 0.0
C724 C 0.74691 0.02554 0.91926 0.0
C725 C 0.77866 0.00282 0.90016 0.0
C726 C 0.79844 0.00833 0.84621 0.0
C727 C 0.86059 0.01111 0.84279 0.0
C728 C 0.77822 -0.01554 0.80971 0.0
C729 C 0.77144 0.0373 0.83726 0.0
C730 C 0.74297 0.04726 0.88014 0.0
C731 C 0.71176 0.07261 0.87973 0.0
C732 C 0.70789 0.0875 0.83372 0.0
C733 C 0.73449 0.07667 0.78882 0.0
C734 C 0.7679 0.05178 0.79125 0.0
H735 H 0.28901 0.04652 0.65882 0.0
H736 H 0.19199 0.00577 0.77825 0.0
H737 H 0.16486 0.96734 0.71761 0.0
H738 H 0.20522 0.02315 0.54613 0.0
H739 H 0.26626 0.01695 0.508 0.0
H740 H 0.2643 0.04538 0.55598 0.0
H741 H 0.34916 0.02256 0.59534 0.0
H742 H 0.3502 -0.00675 0.54938 0.0
H743 H 0.34676 -0.01471 0.61639 0.0
H744 H 0.16318 0.92888 0.64987 0.0
H745 H 0.17905 0.89533 0.57691 0.0
H746 H 0.28414 0.95936 0.50421 0.0
C747 C 0.25966 0.03038 0.67139 0.0
C748 C 0.24159 0.02936 0.72279 0.0
C749 C 0.20491 0.00738 0.73864 0.0
C750 C 0.18987 -0.01471 0.70456 0.0
C751 C 0.21201 -0.01434 0.65511 0.0
C752 C 0.24541 0.00794 0.63825 0.0
C753 C 0.27034 0.00121 0.58606 0.0
C754 C 0.25031 0.02296 0.5467 0.0
C755 C 0.33279 0.00053 0.5869 0.0
C756 C 0.24754 0.97112 0.57703 0.0
C757 C 0.21332 0.96276 0.61689 0.0
C758 C 0.18911 0.93539 0.61807 0.0
C759 C 0.19878 0.91643 0.5767 0.0
C760 C 0.233 0.92477 0.5351 0.0
C761 C 0.25819 0.95233 0.53569 0.0
H762 H 0.24078 0.93172 0.22228 0.0
H763 H 0.39396 0.97051 0.26469 0.0
H764 H 0.40787 -0.01115 0.17846 0.0
H765 H 0.28094 0.91261 0.09031 0.0
H766 H 0.21563 0.92243 0.06658 0.0
H767 H 0.22109 0.90966 0.13086 0.0
H768 H 0.17222 0.95709 0.16356 0.0
H769 H 0.16811 0.96956 0.09917 0.0
H770 H 0.20026 -0.00798 0.14617 0.0
H771 H 0.40811 0.00222 0.08842 0.0
H772 H 0.38311 0.02099 0.00494 0.0
H773 H 0.22695 0.97787 0.02028 0.0
C774 C 0.27691 0.94427 0.21345 0.0
C775 C 0.31629 0.94938 0.25042 0.0
C776 C 0.36298 0.96613 0.23732 0.0
C777 C 0.37181 0.97641 0.18809 0.0
C778 C 0.33327 0.97028 0.15222 0.0
C779 C 0.28595 0.95542 0.16439 0.0
C780 C 0.24899 0.95446 0.11939 0.0
C781 C 0.24119 0.92291 0.10065 0.0
C782 C 0.19417 0.96918 0.13288 0.0
C783 C 0.2824 0.97194 0.08099 0.0
C784 C 0.33179 0.97978 0.10026 0.0
C785 C 0.36954 -0.00367 0.07271 0.0
C786 C 0.35519 0.00669 0.02514 0.0
C787 C 0.30318 0.00091 0.00628 0.0
C788 C 0.26715 0.98244 0.03376 0.0
H789 H 0.77787 -0.00903 0.48171 0.0
H790 H 0.65364 0.05707 0.46633 0.0
H791 H 0.63631 0.03881 0.37984 0.0
H792 H 0.83489 -0.00442 0.36372 0.0
H793 H 0.84737 0.95734 0.35145 0.0
H794 H 0.84362 0.97099 0.41589 0.0
H795 H 0.76748 0.93426 0.43897 0.0
H796 H 0.77179 0.91981 0.3749 0.0
H797 H 0.70767 0.93273 0.4013 0.0
H798 H 0.64642 0.02163 0.29211 0.0
H799 H 0.67008 0.00031 0.20915 0.0
H800 H 0.78365 0.94123 0.27886 0.0
C801 C 0.74523 0.00058 0.46087 0.0
C802 C 0.716 0.02495 0.48099 0.0
C803 C 0.6752 0.03787 0.45213 0.0
C804 C 0.66549 0.02779 0.40284 0.0
C805 C 0.69655 0.00458 0.38329 0.0
C806 C 0.73455 -0.00952 0.41167 0.0
C807 C 0.76483 0.96737 0.37981 0.0
C808 C 0.82631 0.97319 0.37761 0.0
C809 C 0.75218 0.93672 0.39994 0.0
C810 C 0.74011 0.97198 0.32836 0.0
C811 C 0.70085 -0.00642 0.33174 0.0
C812 C 0.67589 0.00412 0.28917 0.0
C813 C 0.69039 -0.00805 0.2419 0.0
C814 C 0.72912 0.96897 0.23699 0.0
C815 C 0.75407 0.9587 0.28113 0.0
loop_
_geom_bond_atom_site_label_1
_geom_bond_atom_site_label_2
_geom_bond_distance
_geom_bond_site_symmetry_2
_ccdc_geom_bond_type
Zn0 O6 1.920 . S
Zn0 O12 1.898 . S
Zn0 O15 1.905 . S
Zn1 O9 1.905 . S
Zn1 O10 1.898 . S
Zn1 O18 1.920 . S
Zn2 O5 2.080 . S
Zn2 O8 2.114 . S
Zn2 O11 2.120 . S
Zn2 O13 2.120 . S
Zn2 O14 2.114 . S
Zn2 O17 2.080 . S
C3 O8 1.166 . S
C3 O9 1.182 . S
C4 O10 1.167 . S
C4 O11 1.299 . S
O5 Zn2 2.080 . S
O5 C19 1.305 . S
O6 Zn0 1.920 . S
O6 C19 1.234 . S
C7 O12 1.167 . S
C7 O13 1.299 . S
O8 Zn2 2.114 . S
O8 C3 1.166 . S
O9 Zn1 1.905 . S
O9 C3 1.182 . S
O10 Zn1 1.898 . S
O10 C4 1.167 . S
O11 Zn2 2.120 . S
O11 C4 1.299 . S
O12 Zn0 1.898 . S
O12 C7 1.167 . S
O13 Zn2 2.120 . S
O13 C7 1.299 . S
O14 Zn2 2.114 . S
O14 C16 1.166 . S
O15 Zn0 1.905 . S
O15 C16 1.182 . S
C16 O14 1.166 . S
C16 O15 1.182 . S
O17 Zn2 2.080 . S
O17 C20 1.305 . S
O18 Zn1 1.920 . S
O18 C20 1.234 . S
C19 O5 1.305 . S
C19 O6 1.234 . S
C20 O17 1.305 . S
C20 O18 1.234 . S
Zn21 O27 1.920 . S
Zn21 O33 1.898 . S
Zn21 O36 1.905 . S
Zn22 O30 1.905 . S
Zn22 O31 1.898 . S
Zn22 O39 1.920 . S
Zn23 O26 2.080 . S
Zn23 O29 2.114 . S
Zn23 O32 2.120 . S
Zn23 O34 2.120 . S
Zn23 O35 2.114 . S
Zn23 O38 2.080 . S
C24 O29 1.166 . S
C24 O30 1.182 . S
C25 O31 1.167 . S
C25 O32 1.299 . S
O26 Zn23 2.080 . S
O26 C40 1.305 . S
O27 Zn21 1.920 . S
O27 C40 1.234 . S
C28 O33 1.167 . S
C28 O34 1.299 . S
O29 Zn23 2.114 . S
O29 C24 1.166 . S
O30 Zn22 1.905 . S
O30 C24 1.182 . S
O31 Zn22 1.898 . S
O31 C25 1.167 . S
O32 Zn23 2.120 . S
O32 C25 1.299 . S
O33 Zn21 1.898 . S
O33 C28 1.167 . S
O34 Zn23 2.120 . S
O34 C28 1.299 . S
O35 Zn23 2.114 . S
O35 C37 1.166 . S
O36 Zn21 1.905 . S
O36 C37 1.182 . S
C37 O35 1.166 . S
C37 O36 1.182 . S
O38 Zn23 2.080 . S
O38 C41 1.305 . S
O39 Zn22 1.920 . S
O39 C41 1.234 . S
C40 O26 1.305 . S
C40 O27 1.234 . S
C41 O38 1.305 . S
C41 O39 1.234 . S
Zn42 O48 1.920 . S
Zn42 O54 1.898 . S
Zn42 O57 1.905 . S
Zn43 O51 1.905 . S
Zn43 O52 1.898 . S
Zn43 O60 1.920 . S
Zn44 O47 2.080 . S
Zn44 O50 2.114 . S
Zn44 O53 2.120 . S
Zn44 O55 2.120 . S
Zn44 O56 2.114 . S
Zn44 O59 2.080 . S
C45 O50 1.166 . S
C45 O51 1.182 . S
C46 O52 1.167 . S
C46 O53 1.299 . S
O47 Zn44 2.080 . S
O47 C61 1.305 . S
O48 Zn42 1.920 . S
O48 C61 1.234 . S
C49 O54 1.167 . S
C49 O55 1.299 . S
O50 Zn44 2.114 . S
O50 C45 1.166 . S
O51 Zn43 1.905 . S
O51 C45 1.182 . S
O52 Zn43 1.898 . S
O52 C46 1.167 . S
O53 Zn44 2.120 . S
O53 C46 1.299 . S
O54 Zn42 1.898 . S
O54 C49 1.167 . S
O55 Zn44 2.120 . S
O55 C49 1.299 . S
O56 Zn44 2.114 . S
O56 C58 1.166 . S
O57 Zn42 1.905 . S
O57 C58 1.182 . S
C58 O56 1.166 . S
C58 O57 1.182 . S
O59 Zn44 2.080 . S
O59 C62 1.305 . S
O60 Zn43 1.920 . S
O60 C62 1.234 . S
C61 O47 1.305 . S
C61 O48 1.234 . S
C62 O59 1.305 . S
C62 O60 1.234 . S
Zn63 O69 1.920 . S
Zn63 O75 1.898 . S
Zn63 O78 1.905 . S
Zn64 O72 1.905 . S
Zn64 O73 1.898 . S
Zn64 O81 1.920 . S
Zn65 O68 2.080 . S
Zn65 O71 2.114 . S
Zn65 O74 2.120 . S
Zn65 O76 2.120 . S
Zn65 O77 2.114 . S
Zn65 O80 2.080 . S
C66 O71 1.166 . S
C66 O72 1.182 . S
C67 O73 1.167 . S
C67 O74 1.299 . S
O68 Zn65 2.080 . S
O68 C82 1.305 . S
O69 Zn63 1.920 . S
O69 C82 1.234 . S
C70 O75 1.167 . S
C70 O76 1.299 . S
O71 Zn65 2.114 . S
O71 C66 1.166 . S
O72 Zn64 1.905 . S
O72 C66 1.182 . S
O73 Zn64 1.898 . S
O73 C67 1.167 . S
O74 Zn65 2.120 . S
O74 C67 1.299 . S
O75 Zn63 1.898 . S
O75 C70 1.167 . S
O76 Zn65 2.120 . S
O76 C70 1.299 . S
O77 Zn65 2.114 . S
O77 C79 1.166 . S
O78 Zn63 1.905 . S
O78 C79 1.182 . S
C79 O77 1.166 . S
C79 O78 1.182 . S
O80 Zn65 2.080 . S
O80 C83 1.305 . S
O81 Zn64 1.920 . S
O81 C83 1.234 . S
C82 O68 1.305 . S
C82 O69 1.234 . S
C83 O80 1.305 . S
C83 O81 1.234 . S
Zn84 O90 1.920 . S
Zn84 O96 1.898 . S
Zn84 O99 1.905 . S
Zn85 O93 1.905 . S
Zn85 O94 1.898 . S
Zn85 O102 1.920 . S
Zn86 O89 2.080 . S
Zn86 O92 2.114 . S
Zn86 O95 2.120 . S
Zn86 O97 2.120 . S
Zn86 O98 2.114 . S
Zn86 O101 2.080 . S
C87 O92 1.166 . S
C87 O93 1.182 . S
C88 O94 1.167 . S
C88 O95 1.299 . S
O89 Zn86 2.080 . S
O89 C103 1.305 . S
O90 Zn84 1.920 . S
O90 C103 1.234 . S
C91 O96 1.167 . S
C91 O97 1.299 . S
O92 Zn86 2.114 . S
O92 C87 1.166 . S
O93 Zn85 1.905 . S
O93 C87 1.182 . S
O94 Zn85 1.898 . S
O94 C88 1.167 . S
O95 Zn86 2.120 . S
O95 C88 1.299 . S
O96 Zn84 1.898 . S
O96 C91 1.167 . S
O97 Zn86 2.120 . S
O97 C91 1.299 . S
O98 Zn86 2.114 . S
O98 C100 1.166 . S
O99 Zn84 1.905 . S
O99 C100 1.182 . S
C100 O98 1.166 . S
C100 O99 1.182 . S
O101 Zn86 2.080 . S
O101 C104 1.305 . S
O102 Zn85 1.920 . S
O102 C104 1.234 . S
C103 O89 1.305 . S
C103 O90 1.234 . S
C104 O101 1.305 . S
C104 O102 1.234 . S
Zn105 O111 1.920 . S
Zn105 O117 1.898 . S
Zn105 O120 1.905 . S
Zn106 O114 1.905 . S
Zn106 O115 1.898 . S
Zn106 O123 1.920 . S
Zn107 O110 2.080 . S
Zn107 O113 2.114 . S
Zn107 O116 2.120 . S
Zn107 O118 2.120 . S
Zn107 O119 2.114 . S
Zn107 O122 2.080 . S
C108 O113 1.166 . S
C108 O114 1.182 . S
C109 O115 1.167 . S
C109 O116 1.299 . S
O110 Zn107 2.080 . S
O110 C124 1.305 . S
O111 Zn105 1.920 . S
O111 C124 1.234 . S
C112 O117 1.167 . S
C112 O118 1.299 . S
O113 Zn107 2.114 . S
O113 C108 1.166 . S
O114 Zn106 1.905 . S
O114 C108 1.182 . S
O115 Zn106 1.898 . S
O115 C109 1.167 . S
O116 Zn107 2.120 . S
O116 C109 1.299 . S
O117 Zn105 1.898 . S
O117 C112 1.167 . S
O118 Zn107 2.120 . S
O118 C112 1.299 . S
O119 Zn107 2.114 . S
O119 C121 1.166 . S
O120 Zn105 1.905 . S
O120 C121 1.182 . S
C121 O119 1.166 . S
C121 O120 1.182 . S
O122 Zn107 2.080 . S
O122 C125 1.305 . S
O123 Zn106 1.920 . S
O123 C125 1.234 . S
C124 O110 1.305 . S
C124 O111 1.234 . S
C125 O122 1.305 . S
C125 O123 1.234 . S
Zn126 O132 1.920 . S
Zn126 O138 1.898 . S
Zn126 O141 1.905 . S
Zn127 O135 1.905 . S
Zn127 O136 1.898 . S
Zn127 O144 1.920 . S
Zn128 O131 2.080 . S
Zn128 O134 2.114 . S
Zn128 O137 2.120 . S
Zn128 O139 2.120 . S
Zn128 O140 2.114 . S
Zn128 O143 2.080 . S
C129 O134 1.166 . S
C129 O135 1.182 . S
C130 O136 1.167 . S
C130 O137 1.299 . S
O131 Zn128 2.080 . S
O131 C145 1.305 . S
O132 Zn126 1.920 . S
O132 C145 1.234 . S
C133 O138 1.167 . S
C133 O139 1.299 . S
O134 Zn128 2.114 . S
O134 C129 1.166 . S
O135 Zn127 1.905 . S
O135 C129 1.182 . S
O136 Zn127 1.898 . S
O136 C130 1.167 . S
O137 Zn128 2.120 . S
O137 C130 1.299 . S
O138 Zn126 1.898 . S
O138 C133 1.167 . S
O139 Zn128 2.120 . S
O139 C133 1.299 . S
O140 Zn128 2.114 . S
O140 C142 1.166 . S
O141 Zn126 1.905 . S
O141 C142 1.182 . S
C142 O140 1.166 . S
C142 O141 1.182 . S
O143 Zn128 2.080 . S
O143 C146 1.305 . S
O144 Zn127 1.920 . S
O144 C146 1.234 . S
C145 O131 1.305 . S
C145 O132 1.234 . S
C146 O143 1.305 . S
C146 O144 1.234 . S
Zn147 O153 1.920 . S
Zn147 O159 1.898 . S
Zn147 O162 1.905 . S
Zn148 O156 1.905 . S
Zn148 O157 1.898 . S
Zn148 O165 1.920 . S
Zn149 O152 2.080 . S
Zn149 O155 2.114 . S
Zn149 O158 2.120 . S
Zn149 O160 2.120 . S
Zn149 O161 2.114 . S
Zn149 O164 2.080 . S
C150 O155 1.166 . S
C150 O156 1.182 . S
C151 O157 1.167 . S
C151 O158 1.299 . S
O152 Zn149 2.080 . S
O152 C166 1.305 . S
O153 Zn147 1.920 . S
O153 C166 1.234 . S
C154 O159 1.167 . S
C154 O160 1.299 . S
O155 Zn149 2.114 . S
O155 C150 1.166 . S
O156 Zn148 1.905 . S
O156 C150 1.182 . S
O157 Zn148 1.898 . S
O157 C151 1.167 . S
O158 Zn149 2.120 . S
O158 C151 1.299 . S
O159 Zn147 1.898 . S
O159 C154 1.167 . S
O160 Zn149 2.120 . S
O160 C154 1.299 . S
O161 Zn149 2.114 . S
O161 C163 1.166 . S
O162 Zn147 1.905 . S
O162 C163 1.182 . S
C163 O161 1.166 . S
C163 O162 1.182 . S
O164 Zn149 2.080 . S
O164 C167 1.305 . S
O165 Zn148 1.920 . S
O165 C167 1.234 . S
C166 O152 1.305 . S
C166 O153 1.234 . S
C167 O164 1.305 . S
C167 O165 1.234 . S
H168 C180 0.930 . S
H169 C182 0.930 . S
H170 C183 0.930 . S
H171 C187 0.959 . S
H172 C187 0.959 . S
H173 C187 0.961 . S
H174 C188 0.960 . S
H175 C188 0.961 . S
H176 C188 0.959 . S
H177 C191 0.929 . S
H178 C192 0.931 . S
H179 C194 0.930 . S
C180 H168 0.930 . S
C180 C181 1.399 . S
C180 C185 1.399 . S
C181 C180 1.399 . S
C181 C182 1.376 . S
C182 H169 0.930 . S
C182 C181 1.376 . S
C182 C183 1.388 . S
C183 H170 0.930 . S
C183 C182 1.388 . S
C183 C184 1.390 . S
C184 C183 1.390 . S
C184 C185 1.394 . S
C184 C190 1.465 . S
C185 C180 1.399 . S
C185 C184 1.394 . S
C185 C186 1.516 . S
C186 C185 1.516 . S
C186 C187 1.502 . S
C186 C188 1.561 . S
C186 C189 1.526 . S
C187 H171 0.959 . S
C187 H172 0.959 . S
C187 H173 0.961 . S
C187 C186 1.502 . S
C188 H174 0.960 . S
C188 H175 0.961 . S
C188 H176 0.959 . S
C188 C186 1.561 . S
C189 C186 1.526 . S
C189 C190 1.396 . S
C189 C194 1.390 . S
C190 C184 1.465 . S
C190 C189 1.396 . S
C190 C191 1.399 . S
C191 H177 0.929 . S
C191 C190 1.399 . S
C191 C192 1.385 . S
C192 H178 0.931 . S
C192 C191 1.385 . S
C192 C193 1.389 . S
C193 C192 1.389 . S
C193 C194 1.387 . S
C194 H179 0.930 . S
C194 C189 1.390 . S
C194 C193 1.387 . S
H195 C207 0.930 . S
H196 C209 0.930 . S
H197 C210 0.930 . S
H198 C214 0.959 . S
H199 C214 0.959 . S
H200 C214 0.961 . S
H201 C215 0.960 . S
H202 C215 0.961 . S
H203 C215 0.959 . S
H204 C218 0.929 . S
H205 C219 0.931 . S
H206 C221 0.930 . S
C207 H195 0.930 . S
C207 C208 1.399 . S
C207 C212 1.399 . S
C208 C207 1.399 . S
C208 C209 1.376 . S
C209 H196 0.930 . S
C209 C208 1.376 . S
C209 C210 1.388 . S
C210 H197 0.930 . S
C210 C209 1.388 . S
C210 C211 1.390 . S
C211 C210 1.390 . S
C211 C212 1.394 . S
C211 C217 1.465 . S
C212 C207 1.399 . S
C212 C211 1.394 . S
C212 C213 1.516 . S
C213 C212 1.516 . S
C213 C214 1.502 . S
C213 C215 1.561 . S
C213 C216 1.526 . S
C214 H198 0.959 . S
C214 H199 0.959 . S
C214 H200 0.961 . S
C214 C213 1.502 . S
C215 H201 0.960 . S
C215 H202 0.961 . S
C215 H203 0.959 . S
C215 C213 1.561 . S
C216 C213 1.526 . S
C216 C217 1.396 . S
C216 C221 1.390 . S
C217 C211 1.465 . S
C217 C216 1.396 . S
C217 C218 1.399 . S
C218 H204 0.929 . S
C218 C217 1.399 . S
C218 C219 1.385 . S
C219 H205 0.931 . S
C219 C218 1.385 . S
C219 C220 1.389 . S
C220 C219 1.389 . S
C220 C221 1.387 . S
C221 H206 0.930 . S
C221 C216 1.390 . S
C221 C220 1.387 . S
H222 C234 0.930 . S
H223 C236 0.930 . S
H224 C237 0.930 . S
H225 C241 0.959 . S
H226 C241 0.959 . S
H227 C241 0.961 . S
H228 C242 0.960 1_455 S
H229 C242 0.961 . S
H230 C242 0.959 . S
H231 C245 0.929 . S
H232 C246 0.931 . S
H233 C248 0.930 . S
C234 H222 0.930 . S
C234 C235 1.399 . S
C234 C239 1.399 . S
C235 C234 1.399 . S
C235 C236 1.376 . S
C236 H223 0.930 . S
C236 C235 1.376 . S
C236 C237 1.388 . S
C237 H224 0.930 . S
C237 C236 1.388 . S
C237 C238 1.390 . S
C238 C237 1.390 . S
C238 C239 1.394 . S
C238 C244 1.465 1_455 S
C239 C234 1.399 . S
C239 C238 1.394 . S
C239 C240 1.516 . S
C240 C239 1.516 . S
C240 C241 1.502 . S
C240 C242 1.561 1_455 S
C240 C243 1.526 1_455 S
C241 H225 0.959 . S
C241 H226 0.959 . S
C241 H227 0.961 . S
C241 C240 1.502 . S
C242 H228 0.960 1_655 S
C242 H229 0.961 . S
C242 H230 0.959 . S
C242 C240 1.561 1_655 S
C243 C240 1.526 1_655 S
C243 C244 1.396 . S
C243 C248 1.390 . S
C244 C238 1.465 1_655 S
C244 C243 1.396 . S
C244 C245 1.399 . S
C245 H231 0.929 . S
C245 C244 1.399 . S
C245 C246 1.385 . S
C246 H232 0.931 . S
C246 C245 1.385 . S
C246 C247 1.389 . S
C247 C246 1.389 . S
C247 C248 1.387 . S
C248 H233 0.930 . S
C248 C243 1.390 . S
C248 C247 1.387 . S
H249 C261 0.930 . S
H250 C263 0.930 . S
H251 C264 0.930 . S
H252 C268 0.959 . S
H253 C268 0.959 . S
H254 C268 0.961 . S
H255 C269 0.960 . S
H256 C269 0.961 1_655 S
H257 C269 0.959 1_655 S
H258 C272 0.929 . S
H259 C273 0.931 . S
H260 C275 0.930 . S
C261 H249 0.930 . S
C261 C262 1.399 . S
C261 C266 1.399 . S
C262 C261 1.399 . S
C262 C263 1.376 . S
C263 H250 0.930 . S
C263 C262 1.376 . S
C263 C264 1.388 . S
C264 H251 0.930 . S
C264 C263 1.388 . S
C264 C265 1.390 . S
C265 C264 1.390 . S
C265 C266 1.394 . S
C265 C271 1.465 1_455 S
C266 C261 1.399 . S
C266 C265 1.394 . S
C266 C267 1.516 . S
C267 C266 1.516 . S
C267 C268 1.502 . S
C267 C269 1.561 . S
C267 C270 1.526 1_455 S
C268 H252 0.959 . S
C268 H253 0.959 . S
C268 H254 0.961 . S
C268 C267 1.502 . S
C269 H255 0.960 . S
C269 H256 0.961 1_455 S
C269 H257 0.959 1_455 S
C269 C267 1.561 . S
C270 C267 1.526 1_655 S
C270 C271 1.396 . S
C270 C275 1.390 . S
C271 C265 1.465 1_655 S
C271 C270 1.396 . S
C271 C272 1.399 . S
C272 H258 0.929 . S
C272 C271 1.399 . S
C272 C273 1.385 . S
C273 H259 0.931 . S
C273 C272 1.385 . S
C273 C274 1.389 . S
C274 C273 1.389 . S
C274 C275 1.387 . S
C275 H260 0.930 . S
C275 C270 1.390 . S
C275 C274 1.387 . S
H276 C288 0.930 1_556 S
H277 C290 0.930 . S
H278 C291 0.930 . S
H279 C295 0.959 . S
H280 C295 0.959 . S
H281 C295 0.961 . S
H282 C296 0.960 . S
H283 C296 0.961 . S
H284 C296 0.959 . S
H285 C299 0.929 . S
H286 C300 0.931 . S
H287 C302 0.930 . S
C288 H276 0.930 1_554 S
C288 C289 1.399 . S
C288 C293 1.399 1_554 S
C289 C288 1.399 . S
C289 C290 1.376 . S
C290 H277 0.930 . S
C290 C289 1.376 . S
C290 C291 1.388 . S
C291 H278 0.930 . S
C291 C290 1.388 . S
C291 C292 1.390 . S
C292 C291 1.390 . S
C292 C293 1.394 1_554 S
C292 C298 1.465 . S
C293 C288 1.399 1_556 S
C293 C292 1.394 1_556 S
C293 C294 1.516 . S
C294 C293 1.516 . S
C294 C295 1.502 . S
C294 C296 1.561 . S
C294 C297 1.526 . S
C295 H279 0.959 . S
C295 H280 0.959 . S
C295 H281 0.961 . S
C295 C294 1.502 . S
C296 H282 0.960 . S
C296 H283 0.961 . S
C296 H284 0.959 . S
C296 C294 1.561 . S
C297 C294 1.526 . S
C297 C298 1.396 1_556 S
C297 C302 1.390 . S
C298 C292 1.465 . S
C298 C297 1.396 1_554 S
C298 C299 1.399 . S
C299 H285 0.929 . S
C299 C298 1.399 . S
C299 C300 1.385 . S
C300 H286 0.931 . S
C300 C299 1.385 . S
C300 C301 1.389 1_554 S
C301 C300 1.389 1_556 S
C301 C302 1.387 . S
C302 H287 0.930 . S
C302 C297 1.390 . S
C302 C301 1.387 . S
H303 C315 0.930 . S
H304 C317 0.930 . S
H305 C318 0.930 . S
H306 C322 0.959 . S
H307 C322 0.959 . S
H308 C322 0.961 . S
H309 C323 0.960 . S
H310 C323 0.961 . S
H311 C323 0.959 . S
H312 C326 0.929 . S
H313 C327 0.931 . S
H314 C329 0.930 . S
C315 H303 0.930 . S
C315 C316 1.399 . S
C315 C320 1.399 . S
C316 C315 1.399 . S
C316 C317 1.376 . S
C317 H304 0.930 . S
C317 C316 1.376 . S
C317 C318 1.388 . S
C318 H305 0.930 . S
C318 C317 1.388 . S
C318 C319 1.390 . S
C319 C318 1.390 . S
C319 C320 1.394 . S
C319 C325 1.465 . S
C320 C315 1.399 . S
C320 C319 1.394 . S
C320 C321 1.516 . S
C321 C320 1.516 . S
C321 C322 1.502 . S
C321 C323 1.561 . S
C321 C324 1.526 . S
C322 H306 0.959 . S
C322 H307 0.959 . S
C322 H308 0.961 . S
C322 C321 1.502 . S
C323 H309 0.960 . S
C323 H310 0.961 . S
C323 H311 0.959 . S
C323 C321 1.561 . S
C324 C321 1.526 . S
C324 C325 1.396 . S
C324 C329 1.390 . S
C325 C319 1.465 . S
C325 C324 1.396 . S
C325 C326 1.399 . S
C326 H312 0.929 . S
C326 C325 1.399 . S
C326 C327 1.385 . S
C327 H313 0.931 . S
C327 C326 1.385 . S
C327 C328 1.389 . S
C328 C327 1.389 . S
C328 C329 1.387 . S
C329 H314 0.930 . S
C329 C324 1.390 . S
C329 C328 1.387 . S
H330 C342 0.930 . S
H331 C344 0.930 . S
H332 C345 0.930 . S
H333 C349 0.959 . S
H334 C349 0.959 . S
H335 C349 0.961 . S
H336 C350 0.960 . S
H337 C350 0.961 . S
H338 C350 0.959 . S
H339 C353 0.929 . S
H340 C354 0.931 . S
H341 C356 0.930 1_554 S
C342 H330 0.930 . S
C342 C343 1.399 . S
C342 C347 1.399 . S
C343 C342 1.399 . S
C343 C344 1.376 1_554 S
C344 H331 0.930 . S
C344 C343 1.376 1_556 S
C344 C345 1.388 . S
C345 H332 0.930 . S
C345 C344 1.388 . S
C345 C346 1.390 . S
C346 C345 1.390 . S
C346 C347 1.394 1_556 S
C346 C352 1.465 . S
C347 C342 1.399 . S
C347 C346 1.394 1_554 S
C347 C348 1.516 . S
C348 C347 1.516 . S
C348 C349 1.502 . S
C348 C350 1.561 . S
C348 C351 1.526 . S
C349 H333 0.959 . S
C349 H334 0.959 . S
C349 H335 0.961 . S
C349 C348 1.502 . S
C350 H336 0.960 . S
C350 H337 0.961 . S
C350 H338 0.959 . S
C350 C348 1.561 . S
C351 C348 1.526 . S
C351 C352 1.396 1_554 S
C351 C356 1.390 1_554 S
C352 C346 1.465 . S
C352 C351 1.396 1_556 S
C352 C353 1.399 . S
C353 H339 0.929 . S
C353 C352 1.399 . S
C353 C354 1.385 . S
C354 H340 0.931 . S
C354 C353 1.385 . S
C354 C355 1.389 . S
C355 C354 1.389 . S
C355 C356 1.387 . S
C356 H341 0.930 1_556 S
C356 C351 1.390 1_556 S
C356 C355 1.387 . S
H357 C369 0.930 . S
H358 C371 0.930 . S
H359 C372 0.930 . S
H360 C376 0.959 . S
H361 C376 0.959 . S
H362 C376 0.961 . S
H363 C377 0.960 . S
H364 C377 0.961 . S
H365 C377 0.959 . S
H366 C380 0.929 . S
H367 C381 0.931 . S
H368 C383 0.930 . S
C369 H357 0.930 . S
C369 C370 1.399 . S
C369 C374 1.399 . S
C370 C369 1.399 . S
C370 C371 1.376 . S
C371 H358 0.930 . S
C371 C370 1.376 . S
C371 C372 1.388 . S
C372 H359 0.930 . S
C372 C371 1.388 . S
C372 C373 1.390 . S
C373 C372 1.390 . S
C373 C374 1.394 . S
C373 C379 1.465 . S
C374 C369 1.399 . S
C374 C373 1.394 . S
C374 C375 1.516 . S
C375 C374 1.516 . S
C375 C376 1.502 . S
C375 C377 1.561 . S
C375 C378 1.526 . S
C376 H360 0.959 . S
C376 H361 0.959 . S
C376 H362 0.961 . S
C376 C375 1.502 . S
C377 H363 0.960 . S
C377 H364 0.961 . S
C377 H365 0.959 . S
C377 C375 1.561 . S
C378 C375 1.526 . S
C378 C379 1.396 . S
C378 C383 1.390 . S
C379 C373 1.465 . S
C379 C378 1.396 . S
C379 C380 1.399 . S
C380 H366 0.929 . S
C380 C379 1.399 . S
C380 C381 1.385 . S
C381 H367 0.931 . S
C381 C380 1.385 . S
C381 C382 1.389 . S
C382 C381 1.389 . S
C382 C383 1.387 . S
C383 H368 0.930 . S
C383 C378 1.390 . S
C383 C382 1.387 . S
H384 C396 0.930 1_554 S
H385 C398 0.930 . S
H386 C399 0.930 . S
H387 C403 0.959 . S
H388 C403 0.959 . S
H389 C403 0.961 . S
H390 C404 0.960 . S
H391 C404 0.961 1_455 S
H392 C404 0.959 . S
H393 C407 0.929 . S
H394 C408 0.931 . S
H395 C410 0.930 . S
C396 H384 0.930 1_556 S
C396 C397 1.399 . S
C396 C401 1.399 1_556 S
C397 C396 1.399 . S
C397 C398 1.376 . S
C398 H385 0.930 . S
C398 C397 1.376 . S
C398 C399 1.388 . S
C399 H386 0.930 . S
C399 C398 1.388 . S
C399 C400 1.390 . S
C400 C399 1.390 . S
C400 C401 1.394 1_556 S
C400 C406 1.465 1_655 S
C401 C396 1.399 1_554 S
C401 C400 1.394 1_554 S
C401 C402 1.516 1_655 S
C402 C401 1.516 1_455 S
C402 C403 1.502 . S
C402 C404 1.561 1_455 S
C402 C405 1.526 . S
C403 H387 0.959 . S
C403 H388 0.959 . S
C403 H389 0.961 . S
C403 C402 1.502 . S
C404 H390 0.960 . S
C404 H391 0.961 1_655 S
C404 H392 0.959 . S
C404 C402 1.561 1_655 S
C405 C402 1.526 . S
C405 C406 1.396 1_554 S
C405 C410 1.390 . S
C406 C400 1.465 1_455 S
C406 C405 1.396 1_556 S
C406 C407 1.399 . S
C407 H393 0.929 . S
C407 C406 1.399 . S
C407 C408 1.385 . S
C408 H394 0.931 . S
C408 C407 1.385 . S
C408 C409 1.389 1_556 S
C409 C408 1.389 1_554 S
C409 C410 1.387 . S
C410 H395 0.930 . S
C410 C405 1.390 . S
C410 C409 1.387 . S
H411 C423 0.930 . S
H412 C425 0.930 . S
H413 C426 0.930 . S
H414 C430 0.959 . S
H415 C430 0.959 . S
H416 C430 0.961 . S
H417 C431 0.960 1_455 S
H418 C431 0.961 . S
H419 C431 0.959 . S
H420 C434 0.929 . S
H421 C435 0.931 . S
H422 C437 0.930 . S
C423 H411 0.930 . S
C423 C424 1.399 . S
C423 C428 1.399 . S
C424 C423 1.399 . S
C424 C425 1.376 . S
C425 H412 0.930 . S
C425 C424 1.376 . S
C425 C426 1.388 . S
C426 H413 0.930 . S
C426 C425 1.388 . S
C426 C427 1.390 . S
C427 C426 1.390 . S
C427 C428 1.394 . S
C427 C433 1.465 1_455 S
C428 C423 1.399 . S
C428 C427 1.394 . S
C428 C429 1.516 . S
C429 C428 1.516 . S
C429 C430 1.502 . S
C429 C431 1.561 1_455 S
C429 C432 1.526 1_455 S
C430 H414 0.959 . S
C430 H415 0.959 . S
C430 H416 0.961 . S
C430 C429 1.502 . S
C431 H417 0.960 1_655 S
C431 H418 0.961 . S
C431 H419 0.959 . S
C431 C429 1.561 1_655 S
C432 C429 1.526 1_655 S
C432 C433 1.396 . S
C432 C437 1.390 . S
C433 C427 1.465 1_655 S
C433 C432 1.396 . S
C433 C434 1.399 . S
C434 H420 0.929 . S
C434 C433 1.399 . S
C434 C435 1.385 . S
C435 H421 0.931 . S
C435 C434 1.385 . S
C435 C436 1.389 . S
C436 C435 1.389 . S
C436 C437 1.387 . S
C437 H422 0.930 . S
C437 C432 1.390 . S
C437 C436 1.387 . S
H438 C450 0.942 . S
H439 C452 0.930 . S
H440 C453 0.930 . S
H441 C457 0.959 . S
H442 C457 0.959 . S
H443 C457 0.961 . S
H444 C458 0.960 . S
H445 C458 0.961 . S
H446 C458 0.959 . S
H447 C461 0.929 . S
H448 C462 0.931 . S
H449 C464 0.930 . S
C450 H438 0.942 . S
C450 C451 1.385 1_556 S
C450 C455 1.400 . S
C451 C450 1.385 1_554 S
C451 C452 1.376 . S
C452 H439 0.930 . S
C452 C451 1.376 . S
C452 C453 1.388 . S
C453 H440 0.930 . S
C453 C452 1.388 . S
C453 C454 1.390 . S
C454 C453 1.390 . S
C454 C455 1.394 1_554 S
C454 C460 1.465 1_565 S
C455 C450 1.400 . S
C455 C454 1.394 1_556 S
C455 C456 1.516 . S
C456 C455 1.516 . S
C456 C457 1.502 1_565 S
C456 C458 1.561 . S
C456 C459 1.526 1_565 S
C457 H441 0.959 . S
C457 H442 0.959 . S
C457 H443 0.961 . S
C457 C456 1.502 1_545 S
C458 H444 0.960 . S
C458 H445 0.961 . S
C458 H446 0.959 . S
C458 C456 1.561 . S
C459 C456 1.526 1_545 S
C459 C460 1.396 1_556 S
C459 C464 1.390 . S
C460 C454 1.465 1_545 S
C460 C459 1.396 1_554 S
C460 C461 1.399 . S
C461 H447 0.929 . S
C461 C460 1.399 . S
C461 C462 1.385 . S
C462 H448 0.931 . S
C462 C461 1.385 . S
C462 C463 1.389 1_554 S
C463 C462 1.389 1_556 S
C463 C464 1.387 . S
C464 H449 0.930 . S
C464 C459 1.390 . S
C464 C463 1.387 . S
H465 C477 0.930 . S
H466 C479 0.930 . S
H467 C480 0.930 . S
H468 C484 0.959 1_565 S
H469 C484 0.959 . S
H470 C484 0.961 1_565 S
H471 C485 0.960 . S
H472 C485 0.961 . S
H473 C485 0.959 . S
H474 C488 0.933 . S
H475 C489 0.931 . S
H476 C491 0.930 . S
C477 H465 0.930 . S
C477 C478 1.399 . S
C477 C482 1.399 . S
C478 C477 1.399 . S
C478 C479 1.376 . S
C479 H466 0.930 . S
C479 C478 1.376 . S
C479 C480 1.388 . S
C480 H467 0.930 . S
C480 C479 1.388 . S
C480 C481 1.390 . S
C481 C480 1.390 . S
C481 C482 1.394 . S
C481 C487 1.465 1_565 S
C482 C477 1.399 . S
C482 C481 1.394 . S
C482 C483 1.516 1_565 S
C483 C482 1.516 1_545 S
C483 C484 1.502 . S
C483 C485 1.561 . S
C483 C486 1.526 . S
C484 H468 0.959 1_545 S
C484 H469 0.959 . S
C484 H470 0.961 1_545 S
C484 C483 1.502 . S
C485 H471 0.960 . S
C485 H472 0.961 . S
C485 H473 0.959 . S
C485 C483 1.561 . S
C486 C483 1.526 . S
C486 C487 1.396 . S
C486 C491 1.390 . S
C487 C481 1.465 1_545 S
C487 C486 1.396 . S
C487 C488 1.399 . S
C488 H474 0.933 . S
C488 C487 1.399 . S
C488 C489 1.385 . S
C489 H475 0.931 . S
C489 C488 1.385 . S
C489 C490 1.389 . S
C490 C489 1.389 . S
C490 C491 1.387 . S
C491 H476 0.930 . S
C491 C486 1.390 . S
C491 C490 1.387 . S
H492 C504 0.930 . S
H493 C506 0.930 . S
H494 C507 0.930 . S
H495 C511 0.959 . S
H496 C511 0.959 . S
H497 C511 0.961 . S
H498 C512 0.960 . S
H499 C512 0.961 1_655 S
H500 C512 0.959 1_655 S
H501 C515 0.929 . S
H502 C516 0.931 . S
H503 C518 0.930 . S
C504 H492 0.930 . S
C504 C505 1.399 . S
C504 C509 1.399 . S
C505 C504 1.399 . S
C505 C506 1.376 . S
C506 H493 0.930 . S
C506 C505 1.376 . S
C506 C507 1.388 . S
C507 H494 0.930 . S
C507 C506 1.388 . S
C507 C508 1.390 . S
C508 C507 1.390 . S
C508 C509 1.394 . S
C508 C514 1.465 1_455 S
C509 C504 1.399 . S
C509 C508 1.394 . S
C509 C510 1.516 . S
C510 C509 1.516 . S
C510 C511 1.502 . S
C510 C512 1.561 . S
C510 C513 1.526 1_455 S
C511 H495 0.959 . S
C511 H496 0.959 . S
C511 H497 0.961 . S
C511 C510 1.502 . S
C512 H498 0.960 . S
C512 H499 0.961 1_455 S
C512 H500 0.959 1_455 S
C512 C510 1.561 . S
C513 C510 1.526 1_655 S
C513 C514 1.396 . S
C513 C518 1.390 . S
C514 C508 1.465 1_655 S
C514 C513 1.396 . S
C514 C515 1.399 . S
C515 H501 0.929 . S
C515 C514 1.399 . S
C515 C516 1.385 . S
C516 H502 0.931 . S
C516 C515 1.385 . S
C516 C517 1.389 . S
C517 C516 1.389 . S
C517 C518 1.387 . S
C518 H503 0.930 . S
C518 C513 1.390 . S
C518 C517 1.387 . S
H519 C531 0.930 . S
H520 C533 0.930 . S
H521 C534 0.930 . S
H522 C538 0.959 . S
H523 C538 0.959 . S
H524 C538 0.961 . S
H525 C539 0.960 1_455 S
H526 C539 0.961 . S
H527 C539 0.959 . S
H528 C542 0.929 . S
H529 C543 0.931 . S
H530 C545 0.930 . S
C531 H519 0.930 . S
C531 C532 1.399 . S
C531 C536 1.399 . S
C532 C531 1.399 . S
C532 C533 1.376 . S
C533 H520 0.930 . S
C533 C532 1.376 . S
C533 C534 1.388 . S
C534 H521 0.930 . S
C534 C533 1.388 . S
C534 C535 1.390 . S
C535 C534 1.390 . S
C535 C536 1.394 . S
C535 C541 1.465 1_455 S
C536 C531 1.399 . S
C536 C535 1.394 . S
C536 C537 1.516 . S
C537 C536 1.516 . S
C537 C538 1.502 . S
C537 C539 1.561 1_455 S
C537 C540 1.526 1_455 S
C538 H522 0.959 . S
C538 H523 0.959 . S
C538 H524 0.961 . S
C538 C537 1.502 . S
C539 H525 0.960 1_655 S
C539 H526 0.961 . S
C539 H527 0.959 . S
C539 C537 1.561 1_655 S
C540 C537 1.526 1_655 S
C540 C541 1.396 . S
C540 C545 1.390 . S
C541 C535 1.465 1_655 S
C541 C540 1.396 . S
C541 C542 1.399 . S
C542 H528 0.929 . S
C542 C541 1.399 . S
C542 C543 1.385 . S
C543 H529 0.931 . S
C543 C542 1.385 . S
C543 C544 1.389 . S
C544 C543 1.389 . S
C544 C545 1.387 . S
C545 H530 0.930 . S
C545 C540 1.390 . S
C545 C544 1.387 . S
H546 C558 0.930 . S
H547 C560 0.930 . S
H548 C561 0.930 . S
H549 C565 0.959 . S
H550 C565 0.959 . S
H551 C565 0.961 . S
H552 C566 0.960 . S
H553 C566 0.961 . S
H554 C566 0.959 . S
H555 C569 0.929 . S
H556 C570 0.931 . S
H557 C572 0.930 . S
C558 H546 0.930 . S
C558 C559 1.399 . S
C558 C563 1.399 . S
C559 C558 1.399 . S
C559 C560 1.376 . S
C560 H547 0.930 . S
C560 C559 1.376 . S
C560 C561 1.388 . S
C561 H548 0.930 . S
C561 C560 1.388 . S
C561 C562 1.390 . S
C562 C561 1.390 . S
C562 C563 1.394 . S
C562 C568 1.465 . S
C563 C558 1.399 . S
C563 C562 1.394 . S
C563 C564 1.516 . S
C564 C563 1.516 . S
C564 C565 1.502 . S
C564 C566 1.561 . S
C564 C567 1.526 . S
C565 H549 0.959 . S
C565 H550 0.959 . S
C565 H551 0.961 . S
C565 C564 1.502 . S
C566 H552 0.960 . S
C566 H553 0.961 . S
C566 H554 0.959 . S
C566 C564 1.561 . S
C567 C564 1.526 . S
C567 C568 1.396 . S
C567 C572 1.390 . S
C568 C562 1.465 . S
C568 C567 1.396 . S
C568 C569 1.399 . S
C569 H555 0.929 . S
C569 C568 1.399 . S
C569 C570 1.385 . S
C570 H556 0.931 . S
C570 C569 1.385 . S
C570 C571 1.389 . S
C571 C570 1.389 . S
C571 C572 1.387 . S
C572 H557 0.930 . S
C572 C567 1.390 . S
C572 C571 1.387 . S
H573 C585 0.930 . S
H574 C587 0.930 . S
H575 C588 0.930 . S
H576 C592 0.959 . S
H577 C592 0.959 . S
H578 C592 0.961 . S
H579 C593 0.960 . S
H580 C593 0.961 . S
H581 C593 0.959 . S
H582 C596 0.929 . S
H583 C597 0.931 . S
H584 C599 0.930 . S
C585 H573 0.930 . S
C585 C586 1.399 . S
C585 C590 1.399 . S
C586 C585 1.399 . S
C586 C587 1.376 . S
C587 H574 0.930 . S
C587 C586 1.376 . S
C587 C588 1.388 . S
C588 H575 0.930 . S
C588 C587 1.388 . S
C588 C589 1.390 . S
C589 C588 1.390 . S
C589 C590 1.394 . S
C589 C595 1.465 . S
C590 C585 1.399 . S
C590 C589 1.394 . S
C590 C591 1.516 . S
C591 C590 1.516 . S
C591 C592 1.502 . S
C591 C593 1.561 . S
C591 C594 1.526 . S
C592 H576 0.959 . S
C592 H577 0.959 . S
C592 H578 0.961 . S
C592 C591 1.502 . S
C593 H579 0.960 . S
C593 H580 0.961 . S
C593 H581 0.959 . S
C593 C591 1.561 . S
C594 C591 1.526 . S
C594 C595 1.396 . S
C594 C599 1.390 . S
C595 C589 1.465 . S
C595 C594 1.396 . S
C595 C596 1.399 . S
C596 H582 0.929 . S
C596 C595 1.399 . S
C596 C597 1.385 . S
C597 H583 0.931 . S
C597 C596 1.385 . S
C597 C598 1.389 . S
C598 C597 1.389 . S
C598 C599 1.387 . S
C599 H584 0.930 . S
C599 C594 1.390 . S
C599 C598 1.387 . S
H600 C612 0.930 . S
H601 C614 0.930 1_554 S
H602 C615 0.930 . S
H603 C619 0.959 . S
H604 C619 0.959 . S
H605 C619 0.961 . S
H606 C620 0.960 . S
H607 C620 0.961 . S
H608 C620 0.959 . S
H609 C623 0.929 . S
H610 C624 0.931 . S
H611 C626 0.930 . S
C612 H600 0.930 . S
C612 C613 1.399 . S
C612 C617 1.399 . S
C613 C612 1.399 . S
C613 C614 1.376 . S
C614 H601 0.930 1_556 S
C614 C613 1.376 . S
C614 C615 1.388 . S
C615 H602 0.930 . S
C615 C614 1.388 . S
C615 C616 1.390 . S
C616 C615 1.390 . S
C616 C617 1.394 . S
C616 C622 1.465 . S
C617 C612 1.399 . S
C617 C616 1.394 . S
C617 C618 1.516 . S
C618 C617 1.516 . S
C618 C619 1.502 . S
C618 C620 1.561 . S
C618 C621 1.526 . S
C619 H603 0.959 . S
C619 H604 0.959 . S
C619 H605 0.961 . S
C619 C618 1.502 . S
C620 H606 0.960 . S
C620 H607 0.961 . S
C620 H608 0.959 . S
C620 C618 1.561 . S
C621 C618 1.526 . S
C621 C622 1.396 . S
C621 C626 1.390 . S
C622 C616 1.465 . S
C622 C621 1.396 . S
C622 C623 1.399 . S
C623 H609 0.929 . S
C623 C622 1.399 . S
C623 C624 1.385 . S
C624 H610 0.931 . S
C624 C623 1.385 . S
C624 C625 1.389 . S
C625 C624 1.389 . S
C625 C626 1.387 . S
C626 H611 0.930 . S
C626 C621 1.390 . S
C626 C625 1.387 . S
H627 C639 0.930 . S
H628 C641 0.930 . S
H629 C642 0.930 . S
H630 C646 0.959 . S
H631 C646 0.959 . S
H632 C646 0.961 . S
H633 C647 0.960 . S
H634 C647 0.961 . S
H635 C647 0.959 . S
H636 C650 0.929 . S
H637 C651 0.931 . S
H638 C653 0.930 . S
C639 H627 0.930 . S
C639 C640 1.399 . S
C639 C644 1.399 . S
C640 C639 1.399 . S
C640 C641 1.376 . S
C641 H628 0.930 . S
C641 C640 1.376 . S
C641 C642 1.388 . S
C642 H629 0.930 . S
C642 C641 1.388 . S
C642 C643 1.390 . S
C643 C642 1.390 . S
C643 C644 1.394 . S
C643 C649 1.465 . S
C644 C639 1.399 . S
C644 C643 1.394 . S
C644 C645 1.516 . S
C645 C644 1.516 . S
C645 C646 1.502 . S
C645 C647 1.561 . S
C645 C648 1.526 . S
C646 H630 0.959 . S
C646 H631 0.959 . S
C646 H632 0.961 . S
C646 C645 1.502 . S
C647 H633 0.960 . S
C647 H634 0.961 . S
C647 H635 0.959 . S
C647 C645 1.561 . S
C648 C645 1.526 . S
C648 C649 1.396 . S
C648 C653 1.390 . S
C649 C643 1.465 . S
C649 C648 1.396 . S
C649 C650 1.399 . S
C650 H636 0.929 . S
C650 C649 1.399 . S
C650 C651 1.385 . S
C651 H637 0.931 . S
C651 C650 1.385 . S
C651 C652 1.389 . S
C652 C651 1.389 . S
C652 C653 1.387 . S
C653 H638 0.930 . S
C653 C648 1.390 . S
C653 C652 1.387 . S
H654 C666 0.930 . S
H655 C668 0.930 . S
H656 C669 0.930 . S
H657 C673 0.959 . S
H658 C673 0.959 . S
H659 C673 0.961 . S
H660 C674 0.960 . S
H661 C674 0.961 . S
H662 C674 0.959 . S
H663 C677 0.929 . S
H664 C678 0.931 1_556 S
H665 C680 0.930 . S
C666 H654 0.930 . S
C666 C667 1.399 . S
C666 C671 1.399 . S
C667 C666 1.399 . S
C667 C668 1.376 . S
C668 H655 0.930 . S
C668 C667 1.376 . S
C668 C669 1.388 . S
C669 H656 0.930 . S
C669 C668 1.388 . S
C669 C670 1.390 . S
C670 C669 1.390 . S
C670 C671 1.394 . S
C670 C676 1.465 . S
C671 C666 1.399 . S
C671 C670 1.394 . S
C671 C672 1.516 . S
C672 C671 1.516 . S
C672 C673 1.502 . S
C672 C674 1.561 . S
C672 C675 1.526 . S
C673 H657 0.959 . S
C673 H658 0.959 . S
C673 H659 0.961 . S
C673 C672 1.502 . S
C674 H660 0.960 . S
C674 H661 0.961 . S
C674 H662 0.959 . S
C674 C672 1.561 . S
C675 C672 1.526 . S
C675 C676 1.396 . S
C675 C680 1.390 . S
C676 C670 1.465 . S
C676 C675 1.396 . S
C676 C677 1.399 . S
C677 H663 0.929 . S
C677 C676 1.399 . S
C677 C678 1.385 . S
C678 H664 0.931 1_554 S
C678 C677 1.385 . S
C678 C679 1.389 . S
C679 C678 1.389 . S
C679 C680 1.387 . S
C680 H665 0.930 . S
C680 C675 1.390 . S
C680 C679 1.387 . S
H681 C693 0.930 . S
H682 C695 0.930 . S
H683 C696 0.930 . S
H684 C700 0.959 . S
H685 C700 0.959 . S
H686 C700 0.961 . S
H687 C701 0.960 . S
H688 C701 0.961 . S
H689 C701 0.959 . S
H690 C704 0.929 . S
H691 C705 0.931 . S
H692 C707 0.930 . S
C693 H681 0.930 . S
C693 C694 1.399 . S
C693 C698 1.399 . S
C694 C693 1.399 . S
C694 C695 1.376 . S
C695 H682 0.930 . S
C695 C694 1.376 . S
C695 C696 1.388 . S
C696 H683 0.930 . S
C696 C695 1.388 . S
C696 C697 1.390 . S
C697 C696 1.390 . S
C697 C698 1.394 . S
C697 C703 1.465 . S
C698 C693 1.399 . S
C698 C697 1.394 . S
C698 C699 1.516 . S
C699 C698 1.516 . S
C699 C700 1.502 . S
C699 C701 1.561 . S
C699 C702 1.526 . S
C700 H684 0.959 . S
C700 H685 0.959 . S
C700 H686 0.961 . S
C700 C699 1.502 . S
C701 H687 0.960 . S
C701 H688 0.961 . S
C701 H689 0.959 . S
C701 C699 1.561 . S
C702 C699 1.526 . S
C702 C703 1.396 . S
C702 C707 1.390 . S
C703 C697 1.465 . S
C703 C702 1.396 . S
C703 C704 1.399 . S
C704 H690 0.929 . S
C704 C703 1.399 . S
C704 C705 1.385 . S
C705 H691 0.931 . S
C705 C704 1.385 . S
C705 C706 1.389 . S
C706 C705 1.389 . S
C706 C707 1.387 . S
C707 H692 0.930 . S
C707 C702 1.390 . S
C707 C706 1.387 . S
H708 C720 0.930 . S
H709 C722 0.930 1_554 S
H710 C723 0.930 . S
H711 C727 0.959 . S
H712 C727 0.959 . S
H713 C727 0.961 . S
H714 C728 0.960 . S
H715 C728 0.961 . S
H716 C728 0.959 . S
H717 C731 0.929 . S
H718 C732 0.931 . S
H719 C734 0.930 . S
C720 H708 0.930 . S
C720 C721 1.399 . S
C720 C725 1.399 . S
C721 C720 1.399 . S
C721 C722 1.376 . S
C722 H709 0.930 1_556 S
C722 C721 1.376 . S
C722 C723 1.388 1_565 S
C723 H710 0.930 . S
C723 C722 1.388 1_545 S
C723 C724 1.390 1_545 S
C724 C723 1.390 1_565 S
C724 C725 1.394 . S
C724 C730 1.465 1_565 S
C725 C720 1.399 . S
C725 C724 1.394 . S
C725 C726 1.516 . S
C726 C725 1.516 . S
C726 C727 1.502 . S
C726 C728 1.561 . S
C726 C729 1.526 . S
C727 H711 0.959 . S
C727 H712 0.959 . S
C727 H713 0.961 . S
C727 C726 1.502 . S
C728 H714 0.960 . S
C728 H715 0.961 . S
C728 H716 0.959 . S
C728 C726 1.561 . S
C729 C726 1.526 . S
C729 C730 1.396 1_565 S
C729 C734 1.390 . S
C730 C724 1.465 1_545 S
C730 C729 1.396 1_545 S
C730 C731 1.399 . S
C731 H717 0.929 . S
C731 C730 1.399 . S
C731 C732 1.385 . S
C732 H718 0.931 . S
C732 C731 1.385 . S
C732 C733 1.389 . S
C733 C732 1.389 . S
C733 C734 1.387 1_545 S
C734 H719 0.930 . S
C734 C729 1.390 . S
C734 C733 1.387 1_565 S
H735 C747 0.930 . S
H736 C749 0.930 . S
H737 C750 0.930 . S
H738 C754 0.959 . S
H739 C754 0.959 . S
H740 C754 0.961 . S
H741 C755 0.960 . S
H742 C755 0.961 . S
H743 C755 0.959 . S
H744 C758 0.929 . S
H745 C759 0.931 . S
H746 C761 0.930 . S
C747 H735 0.930 . S
C747 C748 1.399 . S
C747 C752 1.399 . S
C748 C747 1.399 . S
C748 C749 1.376 1_545 S
C749 H736 0.930 . S
C749 C748 1.376 1_565 S
C749 C750 1.388 . S
C750 H737 0.930 . S
C750 C749 1.388 . S
C750 C751 1.390 . S
C751 C750 1.390 . S
C751 C752 1.394 1_565 S
C751 C757 1.465 . S
C752 C747 1.399 . S
C752 C751 1.394 1_545 S
C752 C753 1.516 . S
C753 C752 1.516 . S
C753 C754 1.502 . S
C753 C755 1.561 . S
C753 C756 1.526 1_545 S
C754 H738 0.959 . S
C754 H739 0.959 . S
C754 H740 0.961 . S
C754 C753 1.502 . S
C755 H741 0.960 . S
C755 H742 0.961 . S
C755 H743 0.959 . S
C755 C753 1.561 . S
C756 C753 1.526 1_565 S
C756 C757 1.396 . S
C756 C761 1.390 . S
C757 C751 1.465 . S
C757 C756 1.396 . S
C757 C758 1.399 . S
C758 H744 0.929 . S
C758 C757 1.399 . S
C758 C759 1.385 . S
C759 H745 0.931 . S
C759 C758 1.385 . S
C759 C760 1.389 . S
C760 C759 1.389 . S
C760 C761 1.387 . S
C761 H746 0.930 . S
C761 C756 1.390 . S
C761 C760 1.387 . S
H762 C774 0.930 . S
H763 C776 0.930 . S
H764 C777 0.930 . S
H765 C781 0.959 . S
H766 C781 0.959 . S
H767 C781 0.961 . S
H768 C782 0.960 . S
H769 C782 0.961 . S
H770 C782 0.959 . S
H771 C785 0.929 . S
H772 C786 0.931 . S
H773 C788 0.930 . S
C774 H762 0.930 . S
C774 C775 1.399 . S
C774 C779 1.399 . S
C775 C774 1.399 . S
C775 C776 1.376 . S
C776 H763 0.930 . S
C776 C775 1.376 . S
C776 C777 1.388 1_565 S
C777 H764 0.930 . S
C777 C776 1.388 1_545 S
C777 C778 1.390 . S
C778 C777 1.390 . S
C778 C779 1.394 1_545 S
C778 C784 1.465 . S
C779 C774 1.399 . S
C779 C778 1.394 1_565 S
C779 C780 1.516 1_565 S
C780 C779 1.516 1_545 S
C780 C781 1.502 1_545 S
C780 C782 1.561 . S
C780 C783 1.526 . S
C781 H765 0.959 . S
C781 H766 0.959 . S
C781 H767 0.961 . S
C781 C780 1.502 1_565 S
C782 H768 0.960 . S
C782 H769 0.961 . S
C782 H770 0.959 . S
C782 C780 1.561 . S
C783 C780 1.526 . S
C783 C784 1.396 . S
C783 C788 1.390 . S
C784 C778 1.465 . S
C784 C783 1.396 . S
C784 C785 1.399 . S
C785 H771 0.929 . S
C785 C784 1.399 . S
C785 C786 1.385 . S
C786 H772 0.931 . S
C786 C785 1.385 . S
C786 C787 1.389 . S
C787 C786 1.389 . S
C787 C788 1.387 . S
C788 H773 0.930 . S
C788 C783 1.390 . S
C788 C787 1.387 . S
H789 C801 0.930 . S
H790 C803 0.930 . S
H791 C804 0.930 . S
H792 C808 0.959 . S
H793 C808 0.959 . S
H794 C808 0.961 . S
H795 C809 0.960 . S
H796 C809 0.961 . S
H797 C809 0.959 . S
H798 C812 0.929 . S
H799 C813 0.931 . S
H800 C815 0.930 . S
C801 H789 0.930 . S
C801 C802 1.399 . S
C801 C806 1.399 . S
C802 C801 1.399 . S
C802 C803 1.376 . S
C803 H790 0.930 . S
C803 C802 1.376 . S
C803 C804 1.388 . S
C804 H791 0.930 . S
C804 C803 1.388 . S
C804 C805 1.390 . S
C805 C804 1.390 . S
C805 C806 1.394 . S
C805 C811 1.465 . S
C806 C801 1.399 . S
C806 C805 1.394 . S
C806 C807 1.516 1_545 S
C807 C806 1.516 1_565 S
C807 C808 1.502 . S
C807 C809 1.561 . S
C807 C810 1.526 . S
C808 H792 0.959 . S
C808 H793 0.959 . S
C808 H794 0.961 . S
C808 C807 1.502 . S
C809 H795 0.960 . S
C809 H796 0.961 . S
C809 H797 0.959 . S
C809 C807 1.561 . S
C810 C807 1.526 . S
C810 C811 1.396 1_565 S
C810 C815 1.390 . S
C811 C805 1.465 . S
C811 C810 1.396 1_545 S
C811 C812 1.399 . S
C812 H798 0.929 . S
C812 C811 1.399 . S
C812 C813 1.385 . S
C813 H799 0.931 . S
C813 C812 1.385 . S
C813 C814 1.389 1_545 S
C814 C813 1.389 1_565 S
C814 C815 1.387 . S
C815 H800 0.930 . S
C815 C810 1.390 . S
C815 C814 1.387 . S
C181 C24 1.073 . S
C193 C3 0.982 . S
C208 C45 1.096 . S
C220 C79 1.034 . S
C235 C108 1.013 . S
C247 C87 1.084 . S
C262 C129 0.970 . S
C274 C163 1.077 . S
C289 C4 1.284 . S
C301 C130 1.231 . S
C316 C25 1.269 . S
C328 C154 1.245 . S
C343 C88 1.280 . S
C355 C46 1.279 . S
C370 C70 1.338 . S
C382 C109 1.206 . S
C397 C61 0.941 . S
C409 C19 1.022 . S
C424 C83 0.982 . S
C436 C40 0.930 . S
C451 C103 0.881 . S
C463 C145 1.057 . S
C478 C124 1.059 . S
C490 C167 0.876 . S
C505 C16 1.055 . S
C517 C37 1.099 . S
C532 C66 0.942 . S
C544 C58 0.937 . S
C559 C121 0.968 . S
C571 C100 1.022 . S
C586 C150 1.098 . S
C598 C142 1.103 . S
C613 C20 1.494 1_556 S
C625 C67 1.338 . S
C640 C41 1.432 . S
C652 C49 1.401 . S
C667 C28 1.302 . S
C679 C62 1.494 1_554 S
C694 C7 1.288 . S
C706 C82 1.495 . S
C721 C104 1.496 1_556 S
C733 C151 1.317 . S
C748 C133 1.298 . S
C760 C125 1.441 . S
C775 C112 1.305 . S
C787 C146 1.458 1_554 S
C802 C166 1.444 . S
C814 C91 1.329 . S
