# Generated by pormake.
# Topology mmt, (4)-cn, num edge types: 1
# Building blocks:
#     Node 0, Type 0, BuildingBlock: UXUYUI_clean_sbu_0, # of connection points: 4
#     Node 1, Type 0, BuildingBlock: UXUYUI_clean_sbu_0, # of connection points: 4
#     Node 2, Type 0, BuildingBlock: UXUYUI_clean_sbu_0, # of connection points: 4
#     Node 3, Type 0, BuildingBlock: UXUYUI_clean_sbu_0, # of connection points: 4
#     Node 4, Type 0, BuildingBlock: UXUYUI_clean_sbu_0, # of connection points: 4
#     Node 5, Type 0, BuildingBlock: UXUYUI_clean_sbu_0, # of connection points: 4
#     Node 6, Type 0, BuildingBlock: UXUYUI_clean_sbu_0, # of connection points: 4
#     Node 7, Type 0, BuildingBlock: UXUYUI_clean_sbu_0, # of connection points: 4
#     Edge 8, Type (0, 0), BuildingBlock: EZIPEK_clean_linker_0, # of connection points: 2
#     Edge 9, Type (0, 0), BuildingBlock: EZIPEK_clean_linker_0, # of connection points: 2
#     Edge 10, Type (0, 0), BuildingBlock: EZIPEK_clean_linker_0, # of connection points: 2
#     Edge 11, Type (0, 0), BuildingBlock: EZIPEK_clean_linker_0, # of connection points: 2
#     Edge 12, Type (0, 0), BuildingBlock: EZIPEK_clean_linker_0, # of connection points: 2
#     Edge 13, Type (0, 0), BuildingBlock: EZIPEK_clean_linker_0, # of connection points: 2
#     Edge 14, Type (0, 0), BuildingBlock: EZIPEK_clean_linker_0, # of connection points: 2
#     Edge 15, Type (0, 0), BuildingBlock: EZIPEK_clean_linker_0, # of connection points: 2
#     Edge 16, Type (0, 0), BuildingBlock: EZIPEK_clean_linker_0, # of connection points: 2
#     Edge 17, Type (0, 0), BuildingBlock: EZIPEK_clean_linker_0, # of connection points: 2
#     Edge 18, Type (0, 0), BuildingBlock: EZIPEK_clean_linker_0, # of connection points: 2
#     Edge 19, Type (0, 0), BuildingBlock: EZIPEK_clean_linker_0, # of connection points: 2
#     Edge 20, Type (0, 0), BuildingBlock: EZIPEK_clean_linker_0, # of connection points: 2
#     Edge 21, Type (0, 0), BuildingBlock: EZIPEK_clean_linker_0, # of connection points: 2
#     Edge 22, Type (0, 0), BuildingBlock: EZIPEK_clean_linker_0, # of connection points: 2
#     Edge 23, Type (0, 0), BuildingBlock: EZIPEK_clean_linker_0, # of connection points: 2
# Relax obj value: 0.161
# Max RMSD: 0.176
# Mean RMSD: 0.176
data_MOF--net-mmt--node1-UXUYUI_clean_sbu_0--edge1-EZIPEK_clean_linker_0
_symmetry_space_group_name_H-M    P1
_symmetry_Int_Tables_number       1
_symmetry_cell_setting            triclinic
loop_
_symmetry_equiv_pos_as_xyz
'x, y, z'
_cell_length_a     25.901243
_cell_length_b     46.8392
_cell_length_c     51.932474
_cell_angle_alpha  89.999775
_cell_angle_beta   90.036215
_cell_angle_gamma 89.961617
loop_
_atom_site_label
_atom_site_type_symbol
_atom_site_fract_x
_atom_site_fract_y
_atom_site_fract_z
_atom_type_partial_charge
Li0 Li 0.08568 0.56857 0.33543 0.0
Li1 Li 0.11364 0.56067 0.37906 0.0
Li2 Li 0.14577 0.60353 0.35326 0.0
Li3 Li 0.1716 0.5542 0.34291 0.0
C4 C 0.03424 0.61304 0.36244 0.0
N5 N 0.95339 0.65113 0.35698 0.0
C6 C 0.98744 0.6082 0.37512 0.0
C7 C 0.04004 0.63745 0.34722 0.0
C8 C 0.94697 0.62763 0.37202 0.0
C9 C 0.9987 0.65641 0.34466 0.0
C10 C 0.0686 0.51437 0.3566 0.0
C11 C 0.0322 0.46719 0.36068 0.0
N12 N 0.98658 0.4789 0.36821 0.0
C13 C 0.02131 0.52591 0.36433 0.0
C14 C 0.07411 0.48476 0.35473 0.0
C15 C 0.98033 0.50765 0.37013 0.0
C16 C 0.03249 0.5361 0.29923 0.0
N17 N 0.0302 0.56192 0.31121 0.0
C18 C 0.95351 0.57387 0.28778 0.0
C19 C 0.99197 0.58092 0.3056 0.0
C20 C 0.95461 0.54706 0.27582 0.0
C21 C 0.99475 0.52811 0.28153 0.0
H22 H 0.06392 0.52162 0.30339 0.0
H23 H 0.99111 0.60152 0.31474 0.0
C24 C 0.06349 0.565 0.42728 0.0
N25 N 0.09263 0.54761 0.41216 0.0
C26 C 0.04276 0.55478 0.45034 0.0
C27 C 0.08338 0.50916 0.44209 0.0
C28 C 0.10342 0.52027 0.41922 0.0
C29 C 0.05223 0.52646 0.4577 0.0
H30 H 0.05539 0.58659 0.42111 0.0
H31 H 0.12638 0.50687 0.40671 0.0
C32 C 0.13569 0.58466 0.29411 0.0
N33 N 0.10473 0.5838 0.24319 0.0
C34 C 0.14497 0.56057 0.2789 0.0
C35 C 0.11104 0.60839 0.28337 0.0
C36 C 0.12895 0.56054 0.25321 0.0
C37 C 0.09555 0.60751 0.25761 0.0
C38 C 0.23527 0.56889 0.37918 0.0
C39 C 0.27437 0.58751 0.37136 0.0
C40 C 0.24807 0.54241 0.38982 0.0
C41 C 0.32587 0.57916 0.37412 0.0
C42 C 0.30004 0.53484 0.39221 0.0
N43 N 0.33753 0.55321 0.38436 0.0
C44 C 0.16727 0.65664 0.37741 0.0
C45 C 0.19177 0.65342 0.33348 0.0
C46 C 0.18698 0.68439 0.37894 0.0
N47 N 0.17012 0.64184 0.35492 0.0
C48 C 0.21169 0.68111 0.33412 0.0
C49 C 0.20954 0.6968 0.35708 0.0
H50 H 0.1501 0.64677 0.39417 0.0
H51 H 0.19395 0.64102 0.31595 0.0
C52 C 0.22859 0.50406 0.33014 0.0
N53 N 0.22763 0.53306 0.329 0.0
C54 C 0.26668 0.48881 0.31691 0.0
C55 C 0.30284 0.53366 0.30245 0.0
C56 C 0.26399 0.548 0.3158 0.0
C57 C 0.30373 0.50377 0.3026 0.0
H58 H 0.19889 0.4928 0.34064 0.0
H59 H 0.26171 0.57104 0.31497 0.0
O60 O 0.07459 0.59448 0.36564 0.0
O61 O 0.10967 0.53179 0.35118 0.0
O62 O 0.14969 0.58476 0.31952 0.0
O63 O 0.18466 0.57628 0.3759 0.0
H64 H 0.98236 0.58968 0.38732 0.0
H65 H 0.07575 0.64159 0.33722 0.0
H66 H 0.91051 0.62408 0.38165 0.0
H67 H 0.00261 0.67529 0.33282 0.0
H68 H 0.03597 0.44424 0.35934 0.0
H69 H 0.01626 0.54869 0.36581 0.0
H70 H 0.11042 0.47543 0.3488 0.0
H71 H 0.94358 0.51634 0.37617 0.0
H72 H 0.92298 0.58898 0.28356 0.0
H73 H 0.99675 0.50735 0.27239 0.0
H74 H 0.01877 0.56857 0.46205 0.0
H75 H 0.09122 0.4872 0.44732 0.0
H76 H 0.16354 0.54189 0.28693 0.0
H77 H 0.10354 0.6272 0.29485 0.0
H78 H 0.13553 0.54197 0.24127 0.0
H79 H 0.07613 0.62566 0.24909 0.0
H80 H 0.265 0.60804 0.363 0.0
H81 H 0.21816 0.52773 0.39582 0.0
H82 H 0.35658 0.59327 0.36803 0.0
H83 H 0.31057 0.51433 0.40022 0.0
H84 H 0.18492 0.696 0.39694 0.0
H85 H 0.22901 0.69013 0.31697 0.0
H86 H 0.26642 0.46569 0.31719 0.0
H87 H 0.33082 0.54568 0.29139 0.0
Li88 Li 0.33007 0.9552 0.34536 0.0
Li89 Li 0.35822 0.90465 0.35429 0.0
Li90 Li 0.39207 0.94719 0.37933 0.0
Li91 Li 0.41732 0.94019 0.3361 0.0
C92 C 0.26888 0.93614 0.38237 0.0
N93 N 0.1648 0.94495 0.39092 0.0
C94 C 0.23393 0.91362 0.37953 0.0
C95 C 0.25095 0.96306 0.38978 0.0
C96 C 0.18145 0.91852 0.38391 0.0
C97 C 0.19817 0.96711 0.39392 0.0
C98 C 0.36224 0.9242 0.29565 0.0
C99 C 0.3904 0.89909 0.25764 0.0
N100 N 0.38695 0.92376 0.24392 0.0
C101 C 0.35875 0.94928 0.28117 0.0
C102 C 0.37806 0.89886 0.28382 0.0
C103 C 0.3715 0.94863 0.25504 0.0
C104 C 0.28054 0.00421 0.32471 0.0
N105 N 0.27395 0.97629 0.33113 0.0
C106 C 0.19161 0.97538 0.31035 0.0
C107 C 0.23061 0.96177 0.32428 0.0
C108 C 0.19796 1.00397 0.30312 0.0
C109 C 0.24254 0.01865 0.31073 0.0
H110 H 0.31636 0.01488 0.32926 0.0
H111 H 0.22729 0.9393 0.3287 0.0
C112 C 0.34451 0.84969 0.37634 0.0
N113 N 0.33467 0.86619 0.35535 0.0
C114 C 0.32522 0.82185 0.37769 0.0
C115 C 0.2862 0.82856 0.33579 0.0
C116 C 0.30602 0.85627 0.3353 0.0
C117 C 0.29567 0.81111 0.35721 0.0
H118 H 0.36698 0.85828 0.3921 0.0
H119 H 0.29798 0.87005 0.31908 0.0
C120 C 0.41291 0.9989 0.36539 0.0
N121 N 0.45115 0.04417 0.39369 0.0
C122 C 0.46607 1.00177 0.36927 0.0
C123 C 0.3792 0.01902 0.37603 0.0
C124 C 0.48465 0.02481 0.3836 0.0
C125 C 0.39929 0.04175 0.39027 0.0
C126 C 0.47576 0.90077 0.35814 0.0
C127 C 0.52222 0.91585 0.35983 0.0
C128 C 0.47595 0.87266 0.34911 0.0
C129 C 0.56809 0.90261 0.35223 0.0
C130 C 0.52266 0.86014 0.34177 0.0
N131 N 0.56736 0.87526 0.34343 0.0
C132 C 0.46311 0.95065 0.4206 0.0
C133 C 0.38647 0.97734 0.42727 0.0
C134 C 0.48402 0.96094 0.44359 0.0
N135 N 0.41552 0.95931 0.41269 0.0
C136 C 0.406 0.98827 0.45035 0.0
C137 C 0.45553 0.98023 0.45849 0.0
H138 H 0.48523 0.93611 0.40886 0.0
H139 H 0.34874 0.98385 0.42065 0.0
C140 C 0.48137 0.974 0.30531 0.0
N141 N 0.47068 0.94624 0.31084 0.0
C142 C 0.51885 0.98092 0.28714 0.0
C143 C 0.53254 0.93055 0.27963 0.0
C144 C 0.4948 0.92458 0.2981 0.0
C145 C 0.54495 0.95904 0.27424 0.0
H146 H 0.46044 0.99089 0.31485 0.0
H147 H 0.48459 0.90269 0.30211 0.0
O148 O 0.32033 0.93184 0.37786 0.0
O149 O 0.35138 0.9246 0.3214 0.0
O150 O 0.39402 0.97644 0.35139 0.0
O151 O 0.43038 0.91332 0.3655 0.0
H152 H 0.24707 0.89262 0.37392 0.0
H153 H 0.27736 0.98077 0.39186 0.0
H154 H 0.15395 0.90132 0.3817 0.0
H155 H 0.18371 0.9879 0.39944 0.0
H156 H 0.40301 0.87968 0.24825 0.0
H157 H 0.34705 0.96912 0.29009 0.0
H158 H 0.38157 0.87934 0.29484 0.0
H159 H 0.36931 0.96791 0.24363 0.0
H160 H 0.15787 0.96345 0.30436 0.0
H161 H 0.24874 0.04061 0.30499 0.0
H162 H 0.33295 0.80887 0.39452 0.0
H163 H 0.26329 0.82088 0.31977 0.0
H164 H 0.49273 0.98632 0.36135 0.0
H165 H 0.33791 0.01694 0.37365 0.0
H166 H 0.52569 0.02725 0.38677 0.0
H167 H 0.37363 0.05741 0.39868 0.0
H168 H 0.52284 0.93767 0.36661 0.0
H169 H 0.44043 0.86066 0.34761 0.0
H170 H 0.60424 0.9141 0.35324 0.0
H171 H 0.52334 0.83843 0.33467 0.0
H172 H 0.52234 0.95432 0.44947 0.0
H173 H 0.38315 1.00314 0.46154 0.0
H174 H 0.52735 1.00312 0.28311 0.0
H175 H 0.55191 0.91325 0.26973 0.0
Li176 Li 0.67148 0.45414 0.16196 0.0
Li177 Li 0.64292 0.40361 0.15325 0.0
Li178 Li 0.60947 0.44613 0.12816 0.0
Li179 Li 0.58411 0.43939 0.17143 0.0
C180 C 0.73284 0.4343 0.12534 0.0
N181 N 0.83735 0.44196 0.11717 0.0
C182 C 0.76719 0.41162 0.12904 0.0
C183 C 0.75162 0.46079 0.11725 0.0
C184 C 0.81988 0.41594 0.12485 0.0
C185 C 0.8046 0.46426 0.11332 0.0
C186 C 0.63993 0.42378 0.2119 0.0
C187 C 0.61259 0.39946 0.25047 0.0
N188 N 0.61687 0.42433 0.26382 0.0
C189 C 0.64419 0.44908 0.226 0.0
C190 C 0.62408 0.39874 0.2242 0.0
C191 C 0.63231 0.44893 0.25224 0.0
C192 C 0.72115 0.50323 0.18223 0.0
N193 N 0.72766 0.47522 0.1761 0.0
C194 C 0.80911 0.47414 0.19773 0.0
C195 C 0.77058 0.46059 0.18345 0.0
C196 C 0.80262 0.50276 0.20486 0.0
C197 C 0.75853 0.51756 0.19669 0.0
H198 H 0.68573 0.51403 0.17711 0.0
H199 H 0.7738 0.43806 0.17925 0.0
C200 C 0.65817 0.34889 0.13092 0.0
N201 N 0.66633 0.36506 0.15229 0.0
C202 C 0.67778 0.3211 0.12956 0.0
C203 C 0.71353 0.32716 0.17225 0.0
C204 C 0.69354 0.35485 0.17272 0.0
C205 C 0.70586 0.31006 0.15043 0.0
H206 H 0.63692 0.35773 0.11484 0.0
H207 H 0.70047 0.36841 0.18921 0.0
C208 C 0.58984 0.49783 0.14138 0.0
N209 N 0.55408 0.54243 0.11142 0.0
C210 C 0.53678 0.50229 0.13841 0.0
C211 C 0.62468 0.51604 0.12905 0.0
C212 C 0.51948 0.52495 0.12318 0.0
C213 C 0.60585 0.53846 0.11398 0.0
C214 C 0.52561 0.39979 0.14976 0.0
C215 C 0.4792 0.41508 0.14936 0.0
C216 C 0.52569 0.37133 0.15787 0.0
C217 C 0.4337 0.40167 0.15722 0.0
C218 C 0.47935 0.35866 0.16553 0.0
N219 N 0.43472 0.37397 0.16507 0.0
C220 C 0.62117 0.46817 0.07695 0.0
C221 C 0.53524 0.45785 0.08953 0.0
C222 C 0.60389 0.47878 0.05327 0.0
N223 N 0.58676 0.45828 0.09462 0.0
C224 C 0.51626 0.4685 0.06628 0.0
C225 C 0.55079 0.47928 0.04798 0.0
H226 H 0.66191 0.46823 0.08138 0.0
H227 H 0.5087 0.44986 0.10378 0.0
C228 C 0.52037 0.47331 0.2024 0.0
N229 N 0.53119 0.44554 0.19693 0.0
C230 C 0.48292 0.48023 0.2206 0.0
C231 C 0.46987 0.42988 0.22839 0.0
C232 C 0.50746 0.42389 0.20984 0.0
C233 C 0.45708 0.45837 0.23362 0.0
H234 H 0.5411 0.49018 0.19275 0.0
H235 H 0.51774 0.40199 0.20582 0.0
O236 O 0.68115 0.43057 0.12963 0.0
O237 O 0.65002 0.42369 0.18605 0.0
O238 O 0.60753 0.47555 0.156 0.0
O239 O 0.57064 0.41246 0.14205 0.0
H240 H 0.75346 0.39093 0.13516 0.0
H241 H 0.72569 0.47858 0.11435 0.0
H242 H 0.8469 0.39861 0.12773 0.0
H243 H 0.81968 0.48471 0.10724 0.0
H244 H 0.59998 0.38028 0.26021 0.0
H245 H 0.65582 0.46872 0.21673 0.0
H246 H 0.61983 0.37906 0.21348 0.0
H247 H 0.63515 0.46839 0.26336 0.0
H248 H 0.84243 0.46211 0.20416 0.0
H249 H 0.75225 0.53955 0.20232 0.0
H250 H 0.67148 0.3084 0.11242 0.0
H251 H 0.73534 0.31926 0.18858 0.0
H252 H 0.50919 0.48821 0.14751 0.0
H253 H 0.66583 0.51285 0.13096 0.0
H254 H 0.47854 0.52857 0.12064 0.0
H255 H 0.63239 0.55267 0.10428 0.0
H256 H 0.4784 0.43726 0.14367 0.0
H257 H 0.56112 0.35915 0.15838 0.0
H258 H 0.39765 0.41334 0.15725 0.0
H259 H 0.4789 0.33668 0.1719 0.0
H260 H 0.63142 0.48698 0.03943 0.0
H261 H 0.47506 0.4686 0.06268 0.0
H262 H 0.47421 0.50244 0.22453 0.0
H263 H 0.45075 0.41258 0.2384 0.0
Li264 Li 0.82887 0.05204 0.1619 0.0
Li265 Li 0.85685 0.10255 0.15323 0.0
Li266 Li 0.88997 0.06014 0.12798 0.0
Li267 Li 0.91614 0.06686 0.17124 0.0
C268 C 0.76648 0.07148 0.12617 0.0
N269 N 0.66169 0.06283 0.11987 0.0
C270 C 0.73169 0.0937 0.13086 0.0
C271 C 0.74798 0.04493 0.11805 0.0
C272 C 0.67886 0.08889 0.1276 0.0
C273 C 0.69486 0.04095 0.11507 0.0
C274 C 0.86137 0.08221 0.21181 0.0
C275 C 0.89215 0.10599 0.25002 0.0
N276 N 0.88666 0.08126 0.26349 0.0
C277 C 0.85588 0.05705 0.22603 0.0
C278 C 0.87957 0.10691 0.22387 0.0
C279 C 0.86893 0.057 0.25213 0.0
C280 C 0.77726 1.00219 0.17969 0.0
N281 N 0.77289 0.03083 0.17591 0.0
C282 C 0.6932 0.03195 0.19903 0.0
C283 C 0.73188 0.0458 0.18514 0.0
C284 C 0.69744 1.00259 0.20369 0.0
C285 C 0.73948 0.98748 0.19355 0.0
H286 H 0.81119 0.991 0.17303 0.0
H287 H 0.73033 0.0687 0.1826 0.0
C288 C 0.83924 0.15676 0.13047 0.0
N289 N 0.83331 0.14107 0.15231 0.0
C290 C 0.81951 0.18452 0.1291 0.0
C291 C 0.78828 0.17944 0.17275 0.0
C292 C 0.80831 0.15175 0.17322 0.0
C293 C 0.79364 0.19604 0.15044 0.0
H294 H 0.85878 0.14755 0.11404 0.0
H295 H 0.80313 0.13858 0.19011 0.0
C296 C 0.91271 0.00889 0.14129 0.0
N297 N 0.95308 0.96528 0.11162 0.0
C298 C 0.96616 0.00513 0.13956 0.0
C299 C 0.87983 0.99053 0.12783 0.0
C300 C 0.9858 0.98295 0.12447 0.0
C301 C 0.90098 0.9686 0.11295 0.0
C302 C 0.97391 0.10691 0.14903 0.0
C303 C 0.02075 0.09205 0.14825 0.0
C304 C 0.97334 0.13544 0.15694 0.0
C305 C 0.06618 0.10596 0.15551 0.0
C306 C 0.01962 0.14861 0.164 0.0
N307 N 0.06468 0.13371 0.16316 0.0
C308 C 0.87742 0.03833 0.07676 0.0
C309 C 0.96362 0.04811 0.0893 0.0
C310 C 0.89437 0.02759 0.05308 0.0
N311 N 0.91212 0.04801 0.09441 0.0
C312 C 0.98226 0.03736 0.06604 0.0
C313 C 0.94743 0.02678 0.04778 0.0
H314 H 0.8367 0.03853 0.08121 0.0
H315 H 0.99038 0.05592 0.10354 0.0
C316 C 0.97758 0.0328 0.20308 0.0
N317 N 0.96928 0.06058 0.19663 0.0
C318 C 0.01503 0.02559 0.22121 0.0
C319 C 0.03327 0.07578 0.22698 0.0
C320 C 0.99541 0.08206 0.20861 0.0
C321 C 0.04353 0.04721 0.23313 0.0
H322 H 0.95489 0.01615 0.19422 0.0
H323 H 0.98688 0.10404 0.204 0.0
O324 O 0.81831 0.07562 0.12967 0.0
O325 O 0.8503 0.08243 0.18606 0.0
O326 O 0.89274 0.03071 0.15575 0.0
O327 O 0.92896 0.09379 0.1418 0.0
H328 H 0.74519 0.11441 0.13709 0.0
H329 H 0.77426 0.02744 0.11447 0.0
H330 H 0.6515 0.10587 0.13126 0.0
H331 H 0.68 0.02044 0.10901 0.0
H332 H 0.9066 0.12489 0.25958 0.0
H333 H 0.8424 0.03766 0.21693 0.0
H334 H 0.88479 0.12644 0.21305 0.0
H335 H 0.86515 0.03765 0.26334 0.0
H336 H 0.66143 0.04417 0.20694 0.0
H337 H 0.74396 0.96485 0.19721 0.0
H338 H 0.824 0.19682 0.11158 0.0
H339 H 0.76822 0.18772 0.18945 0.0
H340 H 0.99229 0.01937 0.14949 0.0
H341 H 0.83843 0.99329 0.12866 0.0
H342 H 0.02707 0.97986 0.1229 0.0
H343 H 0.87598 0.9543 0.10238 0.0
H344 H 0.02198 0.06983 0.14271 0.0
H345 H 0.93759 0.14731 0.15771 0.0
H346 H 0.10258 0.09463 0.15522 0.0
H347 H 0.01969 0.17066 0.17019 0.0
H348 H 0.86663 0.01958 0.03925 0.0
H349 H 0.02343 0.03705 0.0624 0.0
H350 H 0.02183 1.00335 0.22586 0.0
H351 H 0.05448 0.09292 0.23614 0.0
Li352 Li 0.82995 0.45238 0.66145 0.0
Li353 Li 0.92357 0.4357 0.6718 0.0
Li354 Li 0.89235 0.4433 0.62736 0.0
Li355 Li 0.86227 0.40439 0.6504 0.0
C356 C 0.91991 0.49485 0.64486 0.0
N357 N 0.96658 0.54069 0.6209 0.0
C358 C 0.973 0.49448 0.6401 0.0
C359 C 0.89057 0.51858 0.63763 0.0
C360 C 0.99586 0.51785 0.6279 0.0
C361 C 0.9149 0.54154 0.6255 0.0
C362 C 0.83993 0.4006 0.70077 0.0
C363 C 0.85689 0.36353 0.73185 0.0
N364 N 0.8062 0.35597 0.73115 0.0
C365 C 0.78795 0.39262 0.70047 0.0
C366 C 0.8747 0.38608 0.71665 0.0
C367 C 0.77168 0.36994 0.71593 0.0
C368 C 0.7267 0.46386 0.67577 0.0
N369 N 0.77574 0.47419 0.67596 0.0
C370 C 0.75084 0.51283 0.70331 0.0
C371 C 0.78829 0.49836 0.68904 0.0
C372 C 0.7005 0.50196 0.70428 0.0
C373 C 0.68812 0.47751 0.68998 0.0
H374 H 0.71807 0.44443 0.66537 0.0
H375 H 0.82786 0.50573 0.68922 0.0
C376 C 0.02737 0.43921 0.6897 0.0
N377 N 0.97673 0.44207 0.6961 0.0
C378 C 0.06575 0.44735 0.70714 0.0
C379 C 0.99901 0.4608 0.73741 0.0
C380 C 0.96198 0.4523 0.71946 0.0
C381 C 0.05146 0.45873 0.7311 0.0
H382 H 0.03785 0.43149 0.67078 0.0
H383 H 0.92136 0.45467 0.7238 0.0
C384 C 0.79971 0.43811 0.60623 0.0
N385 N 0.7617 0.45404 0.55865 0.0
C386 C 0.8115 0.42195 0.58439 0.0
C387 C 0.76803 0.46214 0.60396 0.0
C388 C 0.79212 0.43045 0.56047 0.0
C389 C 0.74927 0.46988 0.57971 0.0
C390 C 0.9536 0.38521 0.63634 0.0
C391 C 0.94019 0.37124 0.61352 0.0
C392 C 0.98519 0.37146 0.65431 0.0
C393 C 0.95797 0.34348 0.60923 0.0
C394 C 0.00233 0.34373 0.64927 0.0
N395 N 0.9884 0.33042 0.62705 0.0
C396 C 0.95999 0.4456 0.58477 0.0
C397 C 0.89328 0.48022 0.58293 0.0
C398 C 0.98176 0.45625 0.56213 0.0
N399 N 0.91656 0.45765 0.59473 0.0
C400 C 0.91368 0.4915 0.56021 0.0
C401 C 0.95857 0.47952 0.54975 0.0
H402 H 0.9784 0.42805 0.59469 0.0
H403 H 0.85953 0.48991 0.59143 0.0
C404 C 0.79587 0.35991 0.6346 0.0
N405 N 0.8387 0.36537 0.64897 0.0
C406 C 0.7748 0.33247 0.63388 0.0
C407 C 0.8425 0.31657 0.66256 0.0
C408 C 0.8621 0.34434 0.66284 0.0
C409 C 0.79819 0.31056 0.64807 0.0
H410 H 0.7775 0.37699 0.62401 0.0
H411 H 0.89542 0.34917 0.67453 0.0
O412 O 0.89667 0.47189 0.65622 0.0
O413 O 0.85681 0.42241 0.68547 0.0
O414 O 0.8185 0.43023 0.62978 0.0
O415 O 0.93629 0.41231 0.64096 0.0
H416 H 0.99613 0.47616 0.64543 0.0
H417 H 0.84936 0.51908 0.64105 0.0
H418 H 0.03684 0.51778 0.6239 0.0
H419 H 0.89265 0.55999 0.61964 0.0
H420 H 0.8834 0.35197 0.74413 0.0
H421 H 0.76065 0.40356 0.68817 0.0
H422 H 0.91511 0.39195 0.71701 0.0
H423 H 0.73165 0.36337 0.71576 0.0
H424 H 0.76145 0.53154 0.71437 0.0
H425 H 0.64956 0.46861 0.69055 0.0
H426 H 0.10603 0.44572 0.70173 0.0
H427 H 0.98693 0.46967 0.75571 0.0
H428 H 0.83556 0.40314 0.58588 0.0
H429 H 0.75847 0.47485 0.62069 0.0
H430 H 0.80126 0.41828 0.54336 0.0
H431 H 0.72499 0.48854 0.57763 0.0
H432 H 0.91607 0.38168 0.59935 0.0
H433 H 0.99574 0.38192 0.67212 0.0
H434 H 0.94758 0.33233 0.59174 0.0
H435 H 0.0265 0.33274 0.66308 0.0
H436 H 0.01666 0.4467 0.55451 0.0
H437 H 0.89519 0.50964 0.55112 0.0
H438 H 0.74037 0.32841 0.62262 0.0
H439 H 0.86111 0.30006 0.67384 0.0
Li440 Li 0.58364 0.07139 0.67207 0.0
Li441 Li 0.66986 0.05553 0.66336 0.0
Li442 Li 0.6445 0.1039 0.65263 0.0
Li443 Li 0.61134 0.0643 0.62819 0.0
C444 C 0.65476 0.07747 0.71213 0.0
N445 N 0.66922 0.05931 0.76226 0.0
C446 C 0.63617 0.05084 0.72001 0.0
C447 C 0.68071 0.09484 0.72976 0.0
C448 C 0.64381 0.04206 0.74544 0.0
C449 C 0.68767 0.08527 0.75501 0.0
C450 C 0.61545 0.00889 0.64492 0.0
C451 C 0.66914 0.97839 0.61873 0.0
N452 N 0.63607 0.95634 0.62294 0.0
C453 C 0.58207 0.9859 0.64902 0.0
C454 C 0.65943 0.00509 0.62968 0.0
C455 C 0.59314 0.95952 0.63773 0.0
C456 C 0.49624 0.04386 0.69048 0.0
N457 N 0.52732 0.06663 0.69516 0.0
C458 C 0.48313 0.0764 0.7346 0.0
C459 C 0.52114 0.08316 0.7165 0.0
C460 C 0.45228 0.05217 0.73074 0.0
C461 C 0.45837 0.03611 0.70819 0.0
H462 H 0.50197 0.03124 0.6733 0.0
H463 H 0.54681 0.10095 0.71994 0.0
C464 C 0.77175 0.0461 0.67958 0.0
N465 N 0.72464 0.03349 0.67769 0.0
C466 C 0.81106 0.03308 0.69378 0.0
C467 C 0.75311 0.99393 0.70309 0.0
C468 C 0.7149 0.00772 0.6888 0.0
C469 C 0.80137 0.00697 0.70605 0.0
H470 H 0.77795 0.06687 0.67101 0.0
H471 H 0.67675 0.99851 0.68769 0.0
C472 C 0.54044 0.11923 0.64967 0.0
N473 N 0.47777 0.16401 0.66465 0.0
C474 C 0.49709 0.12648 0.63503 0.0
C475 C 0.55195 0.13478 0.67193 0.0
C476 C 0.46586 0.14917 0.64293 0.0
C477 C 0.51979 0.15734 0.67917 0.0
C478 C 0.70035 0.09051 0.60915 0.0
C479 C 0.66475 0.10601 0.59449 0.0
C480 C 0.75201 0.08945 0.60149 0.0
C481 C 0.6815 0.1202 0.57237 0.0
C482 C 0.76726 0.10394 0.57924 0.0
N483 N 0.73198 0.11888 0.56527 0.0
C484 C 0.70987 0.14892 0.66677 0.0
C485 C 0.64857 0.16184 0.63485 0.0
C486 C 0.73083 0.17639 0.66644 0.0
N487 N 0.66948 0.14223 0.65117 0.0
C488 C 0.66854 0.18953 0.6338 0.0
C489 C 0.7101 0.19692 0.64976 0.0
H490 H 0.72595 0.13282 0.67937 0.0
H491 H 0.61655 0.15595 0.62259 0.0
C492 C 0.53479 0.05001 0.59286 0.0
N493 N 0.58695 0.05085 0.59575 0.0
C494 C 0.51298 0.03892 0.57041 0.0
C495 C 0.59901 0.02989 0.5542 0.0
C496 C 0.61921 0.04112 0.57702 0.0
C497 C 0.54532 0.02862 0.5509 0.0
H498 H 0.51018 0.05762 0.60823 0.0
H499 H 0.66053 0.04168 0.57994 0.0
O500 O 0.64838 0.08649 0.68725 0.0
O501 O 0.60451 0.03496 0.65559 0.0
O502 O 0.57123 0.09705 0.64203 0.0
O503 O 0.68524 0.07665 0.63107 0.0
H504 H 0.6162 0.037 0.70666 0.0
H505 H 0.6954 0.11549 0.72398 0.0
H506 H 0.62961 0.02152 0.75177 0.0
H507 H 0.70777 0.09849 0.76885 0.0
H508 H 0.70298 0.97519 0.60688 0.0
H509 H 0.54792 0.98837 0.66079 0.0
H510 H 0.6859 0.02249 0.62628 0.0
H511 H 0.56759 0.94157 0.64073 0.0
H512 H 0.47902 0.08924 0.75182 0.0
H513 H 0.43476 0.01743 0.70462 0.0
H514 H 0.84793 0.0437 0.69599 0.0
H515 H 0.74449 0.97394 0.71264 0.0
H516 H 0.48771 0.11466 0.61773 0.0
H517 H 0.58537 0.12961 0.68349 0.0
H518 H 0.43217 0.15501 0.63178 0.0
H519 H 0.52827 0.16955 0.69634 0.0
H520 H 0.62462 0.10714 0.60009 0.0
H521 H 0.78005 0.07759 0.61268 0.0
H522 H 0.65437 0.13228 0.56086 0.0
H523 H 0.80714 0.10332 0.5731 0.0
H524 H 0.76302 0.18155 0.67893 0.0
H525 H 0.65183 0.20502 0.62073 0.0
H526 H 0.47139 0.03812 0.56835 0.0
H527 H 0.62482 0.02197 0.53943 0.0
Li528 Li 0.39641 0.56564 0.87858 0.0
Li529 Li 0.36389 0.60495 0.8545 0.0
Li530 Li 0.32976 0.55734 0.84402 0.0
Li531 Li 0.41983 0.57237 0.83312 0.0
C532 C 0.29877 0.59732 0.89307 0.0
N533 N 0.2501 0.63731 0.92377 0.0
C534 C 0.32128 0.60594 0.91628 0.0
C535 C 0.25145 0.60899 0.88552 0.0
C536 C 0.29606 0.62618 0.93152 0.0
C537 C 0.22748 0.62919 0.90129 0.0
C538 C 0.45758 0.62184 0.87082 0.0
C539 C 0.4912 0.66866 0.86127 0.0
N540 N 0.49776 0.67349 0.88689 0.0
C541 C 0.46495 0.62719 0.89705 0.0
C542 C 0.47116 0.64263 0.85275 0.0
C543 C 0.48524 0.65346 0.90479 0.0
C544 C 0.47499 0.55147 0.91368 0.0
N545 N 0.42299 0.55063 0.91009 0.0
C546 C 0.41148 0.5265 0.95025 0.0
C547 C 0.39111 0.5384 0.92772 0.0
C548 C 0.46495 0.52732 0.95444 0.0
C549 C 0.49694 0.53996 0.93594 0.0
H550 H 0.49941 0.56095 0.89912 0.0
H551 H 0.34997 0.53771 0.92417 0.0
C552 C 0.31088 0.65299 0.83561 0.0
N553 N 0.34069 0.64416 0.85568 0.0
C554 C 0.28957 0.68038 0.83544 0.0
C555 C 0.33017 0.6894 0.87653 0.0
C556 C 0.35026 0.66171 0.87604 0.0
C557 C 0.29921 0.69888 0.85609 0.0
H558 H 0.30279 0.63855 0.81989 0.0
H559 H 0.37245 0.65411 0.89221 0.0
C560 C 0.41305 0.51294 0.86135 0.0
N561 N 0.44934 0.46538 0.88703 0.0
C562 C 0.46573 0.50652 0.86111 0.0
C563 C 0.37877 0.49518 0.87455 0.0
C564 C 0.48333 0.48236 0.87425 0.0
C565 C 0.3979 0.47123 0.88745 0.0
C566 C 0.36199 0.59078 0.79474 0.0
C567 C 0.34318 0.5705 0.77737 0.0
C568 C 0.39121 0.61375 0.78569 0.0
C569 C 0.35465 0.57331 0.75121 0.0
C570 C 0.40193 0.61578 0.75939 0.0
N571 N 0.38362 0.59567 0.74285 0.0
C572 C 0.22726 0.54727 0.82778 0.0
C573 C 0.28597 0.50921 0.82046 0.0
C574 C 0.18919 0.53332 0.81349 0.0
N575 N 0.27466 0.53522 0.83067 0.0
C576 C 0.24915 0.4946 0.80589 0.0
C577 C 0.20057 0.50702 0.8019 0.0
H578 H 0.21988 0.56832 0.8354 0.0
H579 H 0.32449 0.50056 0.8224 0.0
C580 C 0.51695 0.57923 0.8074 0.0
N581 N 0.4715 0.56474 0.80818 0.0
C582 C 0.55528 0.57123 0.78986 0.0
C583 C 0.49874 0.53402 0.77408 0.0
C584 C 0.46181 0.54254 0.79201 0.0
C585 C 0.5462 0.54825 0.77315 0.0
H586 H 0.52389 0.59649 0.82078 0.0
H587 H 0.42566 0.53111 0.79345 0.0
O588 O 0.32331 0.57786 0.87771 0.0
O589 O 0.43818 0.59617 0.86286 0.0
O590 O 0.39527 0.53693 0.84928 0.0
O591 O 0.35223 0.58808 0.82051 0.0
H592 H 0.35815 0.59741 0.92231 0.0
H593 H 0.23373 0.60282 0.86752 0.0
H594 H 0.31317 0.63314 0.94946 0.0
H595 H 0.19099 0.63852 0.8956 0.0
H596 H 0.5016 0.685 0.8475 0.0
H597 H 0.45455 0.6114 0.91132 0.0
H598 H 0.46616 0.63874 0.83239 0.0
H599 H 0.49085 0.65796 0.92503 0.0
H600 H 0.38595 0.51677 0.96423 0.0
H601 H 0.53837 0.54076 0.93867 0.0
H602 H 0.26552 0.68704 0.81945 0.0
H603 H 0.33793 0.70313 0.89286 0.0
H604 H 0.49274 0.5202 0.85108 0.0
H605 H 0.33792 0.50006 0.87508 0.0
H606 H 0.52402 0.47717 0.87435 0.0
H607 H 0.37188 0.45737 0.89788 0.0
H608 H 0.32038 0.55264 0.78401 0.0
H609 H 0.40559 0.62976 0.79885 0.0
H610 H 0.34061 0.55768 0.73757 0.0
H611 H 0.42479 0.63334 0.75214 0.0
H612 H 0.15213 0.54351 0.81046 0.0
H613 H 0.25914 0.47447 0.79691 0.0
H614 H 0.59189 0.58238 0.78966 0.0
H615 H 0.49101 0.51601 0.76156 0.0
Li616 Li 0.11139 0.9457 0.87813 0.0
Li617 Li 0.14425 0.90562 0.85497 0.0
Li618 Li 0.17407 0.95478 0.84436 0.0
Li619 Li 0.08369 0.93883 0.83449 0.0
C620 C 0.21628 0.94101 0.89586 0.0
N621 N 0.28162 0.95764 0.93518 0.0
C622 C 0.22925 0.92182 0.91545 0.0
C623 C 0.23722 0.96852 0.89607 0.0
C624 C 0.26212 0.93069 0.93523 0.0
C625 C 0.27001 0.97655 0.91616 0.0
C626 C 0.05613 0.89403 0.88258 0.0
C627 C 0.99627 0.85923 0.89923 0.0
N628 N 0.02729 0.8554 0.9201 0.0
C629 C 0.08743 0.88972 0.90415 0.0
C630 C 0.01019 0.87867 0.88005 0.0
C631 C 0.07218 0.87012 0.92292 0.0
C632 C 0.03195 0.95645 0.91354 0.0
N633 N 0.08397 0.95914 0.9106 0.0
C634 C 0.09043 0.98271 0.95138 0.0
C635 C 0.11329 0.97203 0.929 0.0
C636 C 0.03701 0.98009 0.95476 0.0
C637 C 0.00755 0.96672 0.93565 0.0
H638 H 0.00919 0.94675 0.89844 0.0
H639 H 0.15414 0.97466 0.92624 0.0
C640 C 0.21941 0.86345 0.86201 0.0
N641 N 0.1686 0.86723 0.85636 0.0
C642 C 0.24066 0.83606 0.86257 0.0
C643 C 0.15692 0.81688 0.85136 0.0
C644 C 0.13714 0.84467 0.85125 0.0
C645 C 0.20931 0.81246 0.85701 0.0
H646 H 0.24354 0.8818 0.86585 0.0
H647 H 0.09687 0.84826 0.84681 0.0
C648 C 0.08263 0.99667 0.86208 0.0
N649 N 0.03076 0.04016 0.88704 0.0
C650 C 0.02903 0.9991 0.85979 0.0
C651 C 0.10985 0.01637 0.87706 0.0
C652 C 0.00352 0.02123 0.87257 0.0
C653 C 0.08291 0.03818 0.88956 0.0
C654 C 0.14393 0.90369 0.80177 0.0
C655 C 0.18228 0.89968 0.78321 0.0
C656 C 0.09955 0.88674 0.80124 0.0
C657 C 0.17561 0.87867 0.7644 0.0
C658 C 0.09432 0.86596 0.78212 0.0
N659 N 0.13214 0.86239 0.76425 0.0
C660 C 0.26739 0.9608 0.81833 0.0
C661 C 0.22742 0.00495 0.82861 0.0
C662 C 0.30528 0.9748 0.80403 0.0
N663 N 0.22913 0.97596 0.82988 0.0
C664 C 0.26512 0.01988 0.81488 0.0
C665 C 0.30383 0.00464 0.80193 0.0
H666 H 0.2673 0.93774 0.81948 0.0
H667 H 0.19596 0.0164 0.83756 0.0
C668 C 0.98129 0.93662 0.81432 0.0
N669 N 0.03092 0.94468 0.80988 0.0
C670 C 0.94241 0.94438 0.79699 0.0
C671 C 0.0069 0.96776 0.77068 0.0
C672 C 0.04444 0.95959 0.78848 0.0
C673 C 0.95522 0.96052 0.77515 0.0
H674 H 0.97176 0.92506 0.8317 0.0
H675 H 0.08423 0.96586 0.7857 0.0
O676 O 0.18497 0.93248 0.87609 0.0
O677 O 0.07037 0.91292 0.86379 0.0
O678 O 0.1082 0.97494 0.84992 0.0
O679 O 0.15015 0.92397 0.82047 0.0
H680 H 0.21429 0.90026 0.91534 0.0
H681 H 0.22782 0.98362 0.88109 0.0
H682 H 0.2723 0.9161 0.95057 0.0
H683 H 0.28616 0.99784 0.91666 0.0
H684 H 0.96082 0.84717 0.89753 0.0
H685 H 0.12296 0.90145 0.90643 0.0
H686 H 0.98564 0.88168 0.86339 0.0
H687 H 0.09603 0.86662 0.93974 0.0
H688 H 0.11404 0.99314 0.9658 0.0
H689 H 0.96612 0.9646 0.9377 0.0
H690 H 0.28124 0.83329 0.86697 0.0
H691 H 0.13182 0.79905 0.84697 0.0
H692 H 0.00728 0.98397 0.84842 0.0
H693 H 0.15125 0.01466 0.87927 0.0
H694 H 0.96204 0.02332 0.87101 0.0
H695 H 0.10344 0.05348 0.90133 0.0
H696 H 0.21686 0.91263 0.78335 0.0
H697 H 0.0696 0.8894 0.81555 0.0
H698 H 0.205 0.87531 0.74992 0.0
H699 H 0.06024 0.85264 0.78153 0.0
H700 H 0.33465 0.96248 0.79417 0.0
H701 H 0.26299 0.04293 0.81349 0.0
H702 H 0.90268 0.93867 0.80092 0.0
H703 H 0.01774 0.98032 0.75403 0.0
C704 C 0.39132 0.48225 0.29559 0.0
C705 C 0.34121 0.48839 0.28606 0.0
C706 C 0.36459 0.46871 0.24386 0.0
C707 C 0.41627 0.46578 0.25249 0.0
N708 N 0.48046 0.47019 0.28585 0.0
N709 N 0.27979 0.48921 0.25114 0.0
C710 C 0.43003 0.47243 0.27827 0.0
C711 C 0.32755 0.48182 0.26024 0.0
N712 N 0.40151 0.48561 0.32125 0.0
N713 N 0.35102 0.45881 0.22002 0.0
H714 H 0.25099 0.49797 0.26274 0.0
H715 H 0.26942 0.48831 0.23179 0.0
H716 H 0.37746 0.44973 0.20727 0.0
H717 H 0.31308 0.45751 0.21352 0.0
H718 H 0.43558 0.479 0.33005 0.0
H719 H 0.37414 0.49322 0.3343 0.0
H720 H 0.49445 0.47779 0.30333 0.0
H721 H 0.50931 0.46189 0.27399 0.0
C722 C 0.07361 0.03748 0.27828 0.0
C723 C 0.08487 0.03947 0.25161 0.0
C724 C 0.17052 0.01873 0.25878 0.0
C725 C 0.16002 0.01762 0.2856 0.0
N726 N 0.10618 0.03014 0.32167 0.0
N727 N 0.14643 0.03742 0.21689 0.0
C728 C 0.11288 0.02832 0.2956 0.0
C729 C 0.1342 0.03183 0.24201 0.0
N730 N 0.02487 0.04344 0.28687 0.0
N731 N 0.21419 0.00616 0.24923 0.0
H732 H 0.12046 0.04664 0.20397 0.0
H733 H 0.18346 0.03519 0.20937 0.0
H734 H 0.24214 0.99661 0.26086 0.0
H735 H 0.2211 1.00326 0.22966 0.0
H736 H 0.01233 0.03927 0.30553 0.0
H737 H 0.99568 0.05107 0.27484 0.0
H738 H 0.07497 0.04035 0.3303 0.0
H739 H 0.13402 0.0233 0.33483 0.0
C740 C 0.88237 0.53177 0.21332 0.0
C741 C 0.83958 0.51624 0.223 0.0
C742 C 0.86816 0.52507 0.26736 0.0
C743 C 0.91339 0.53828 0.25762 0.0
N744 N 0.96611 0.55317 0.22186 0.0
N745 N 0.79222 0.49627 0.25869 0.0
C746 C 0.92109 0.5415 0.23071 0.0
C747 C 0.83242 0.51254 0.24991 0.0
N748 N 0.88547 0.53746 0.18754 0.0
N749 N 0.85926 0.5248 0.29334 0.0
H750 H 0.76395 0.48775 0.24662 0.0
H751 H 0.78817 0.48974 0.27773 0.0
H752 H 0.88539 0.53289 0.30676 0.0
H753 H 0.82462 0.51838 0.30164 0.0
H754 H 0.91263 0.5511 0.17941 0.0
H755 H 0.85845 0.52999 0.17425 0.0
H756 H 0.97709 0.55321 0.20259 0.0
H757 H 0.99423 0.56165 0.23405 0.0
C758 C 0.67273 0.9849 0.24753 0.0
C759 C 0.66009 0.98836 0.2211 0.0
C760 C 0.57256 0.97052 0.22908 0.0
C761 C 0.58568 0.96643 0.25536 0.0
N762 N 0.65 0.96419 0.28883 0.0
N763 N 0.60228 0.98007 0.18555 0.0
C764 C 0.63646 0.97183 0.26431 0.0
C765 C 0.61124 0.97976 0.2115 0.0
N766 N 0.71851 0.99525 0.25678 0.0
N767 N 0.52272 0.96648 0.22118 0.0
H768 H 0.62969 0.98705 0.17225 0.0
H769 H 0.56946 0.97146 0.17699 0.0
H770 H 0.49387 0.95876 0.23333 0.0
H771 H 0.50909 0.97224 0.20305 0.0
H772 H 0.72741 0.9965 0.2763 0.0
H773 H 0.74654 0.00456 0.24508 0.0
H774 H 0.68773 0.96475 0.29571 0.0
H775 H 0.62409 0.95498 0.30177 0.0
C776 C 0.59153 0.54851 0.73042 0.0
C777 C 0.58748 0.53762 0.75583 0.0
C778 C 0.6604 0.50531 0.74805 0.0
C779 C 0.66196 0.51467 0.72205 0.0
N780 N 0.62734 0.54307 0.68744 0.0
N781 N 0.61379 0.50409 0.78855 0.0
C782 C 0.6271 0.53577 0.71294 0.0
C783 C 0.6209 0.51564 0.7646 0.0
N784 N 0.56184 0.57132 0.72322 0.0
N785 N 0.69729 0.48687 0.75698 0.0
H786 H 0.58671 0.51183 0.80167 0.0
H787 H 0.63237 0.48572 0.79499 0.0
H788 H 0.72557 0.47785 0.74523 0.0
H789 H 0.70223 0.48183 0.77634 0.0
H790 H 0.56637 0.58228 0.70595 0.0
H791 H 0.53455 0.58066 0.73536 0.0
H792 H 0.59949 0.55592 0.67882 0.0
H793 H 0.65397 0.53482 0.67433 0.0
C794 C 0.87179 0.97158 0.71557 0.0
C795 C 0.84009 0.99451 0.72384 0.0
C796 C 0.88501 0.99575 0.76536 0.0
C797 C 0.91436 0.97158 0.75777 0.0
N798 N 0.93101 0.93363 0.72757 0.0
N799 N 0.80959 0.02527 0.75787 0.0
C800 C 0.9064 0.95864 0.73339 0.0
C801 C 0.84468 0.00569 0.74913 0.0
N802 N 0.86976 0.96273 0.6905 0.0
N803 N 0.89694 0.00986 0.78765 0.0
H804 H 0.77978 0.03335 0.74648 0.0
H805 H 0.80731 0.0318 0.777 0.0
H806 H 0.92593 1.00316 0.80023 0.0
H807 H 0.88099 0.02948 0.79272 0.0
H808 H 0.8957 0.94826 0.68249 0.0
H809 H 0.8443 0.97147 0.67706 0.0
H810 H 0.92292 0.92151 0.71127 0.0
H811 H 0.95684 0.92371 0.74014 0.0
C812 C 0.15595 0.5067 0.75909 0.0
C813 C 0.16347 0.49391 0.78358 0.0
C814 C 0.10272 0.4558 0.77218 0.0
C815 C 0.09107 0.47037 0.74892 0.0
N816 N 0.09984 0.51224 0.72215 0.0
N817 N 0.13972 0.45845 0.81505 0.0
C818 C 0.11589 0.49652 0.74286 0.0
C819 C 0.13574 0.46898 0.79058 0.0
N820 N 0.18816 0.52801 0.75098 0.0
N821 N 0.08326 0.42908 0.77634 0.0
H822 H 0.16374 0.46748 0.82897 0.0
H823 H 0.11633 0.44221 0.82218 0.0
H824 H 0.05898 0.41881 0.76325 0.0
H825 H 0.09455 0.41612 0.79163 0.0
H826 H 0.18807 0.53598 0.73226 0.0
H827 H 0.21835 0.53595 0.76219 0.0
H828 H 0.11252 0.53295 0.71852 0.0
H829 H 0.07037 0.50569 0.7098 0.0
C830 C 0.32438 0.03138 0.76115 0.0
C831 C 0.34124 0.01956 0.78493 0.0
C832 C 0.43098 0.03012 0.77373 0.0
C833 C 0.41416 0.0429 0.75036 0.0
N834 N 0.34453 0.06154 0.72455 0.0
N835 N 0.41028 0.01023 0.81512 0.0
C836 C 0.36067 0.04533 0.74493 0.0
C837 C 0.39429 0.02 0.79164 0.0
N838 N 0.27438 0.0278 0.75332 0.0
N839 N 0.48198 0.0267 0.7794 0.0
H840 H 0.38473 1.00334 0.82935 0.0
H841 H 0.44908 0.01006 0.8206 0.0
H842 H 0.5122 0.03268 0.76726 0.0
H843 H 0.5122 0.03268 0.76726 0.0
H844 H 0.26137 0.033 0.73493 0.0
H845 H 0.24663 0.01731 0.76434 0.0
H846 H 0.30598 0.06664 0.72118 0.0
H847 H 0.37008 0.07218 0.71235 0.0
C848 C 0.04995 0.52058 0.50579 0.0
C849 C 0.02804 0.5146 0.48133 0.0
C850 C 0.96245 0.4842 0.5016 0.0
C851 C 0.98214 0.49181 0.52615 0.0
N852 N 0.0393 0.52036 0.55222 0.0
N853 N 0.95937 0.49439 0.4558 0.0
C854 C 0.02444 0.5109 0.52842 0.0
C855 C 0.98311 0.49741 0.47918 0.0
N856 N 0.09596 0.53478 0.50731 0.0
N857 N 0.92494 0.46377 0.4997 0.0
H858 H 0.97368 0.50346 0.4389 0.0
H859 H 0.92346 0.4848 0.45338 0.0
H860 H 0.90823 0.45402 0.51572 0.0
H861 H 0.91298 0.4549 0.48231 0.0
H862 H 0.11691 0.53706 0.5243 0.0
H863 H 0.11539 0.5425 0.49116 0.0
H864 H 0.06598 0.53666 0.55507 0.0
H865 H 0.02198 0.51344 0.56924 0.0
C866 C 0.50108 0.02021 0.48133 0.0
C867 C 0.47834 0.99266 0.48223 0.0
C868 C 0.50385 0.9877 0.52751 0.0
C869 C 0.52276 0.01614 0.52714 0.0
N870 N 0.53323 0.06107 0.50513 0.0
N871 N 0.45147 0.95151 0.50663 0.0
C872 C 0.51969 0.03286 0.50442 0.0
C873 C 0.47789 0.97675 0.50547 0.0
N874 N 0.50627 0.0339 0.45822 0.0
N875 N 0.51205 0.97094 0.54869 0.0
H876 H 0.43262 0.94267 0.49076 0.0
H877 H 0.44479 0.94041 0.52366 0.0
H878 H 0.53046 0.97832 0.56528 0.0
H879 H 0.50432 0.94914 0.54918 0.0
H880 H 0.52754 0.05255 0.45576 0.0
H881 H 0.49265 0.0254 0.44096 0.0
H882 H 0.52642 0.07524 0.49006 0.0
H883 H 0.54781 0.07096 0.5216 0.0
C884 C 0.51926 0.4735 1.00247 0.0
C885 C 0.53084 0.49169 0.02357 0.0
C886 C 0.49665 0.53292 0.99983 0.0
C887 C 0.48762 0.51501 0.97826 0.0
N888 N 0.49599 0.46935 0.9573 0.0
N889 N 0.53733 0.53898 0.04159 0.0
C890 C 0.50052 0.48557 0.9791 0.0
C891 C 0.52155 0.52152 0.022 0.0
N892 N 0.52528 0.44463 0.00503 0.0
N893 N 0.48004 0.56065 0.99933 0.0
H894 H 0.55432 0.53131 0.05843 0.0
H895 H 0.53707 0.56117 0.04055 0.0
H896 H 0.46272 0.56991 0.98322 0.0
H897 H 0.48001 0.57401 0.01534 0.0
H898 H 0.51194 0.42984 0.99163 0.0
H899 H 0.54106 0.43515 0.02142 0.0
H900 H 0.50995 0.4486 0.95567 0.0
H901 H 0.48123 0.47732 0.94005 0.0
C902 C 0.99692 0.02093 0.97883 0.0
C903 C 0.01184 0.99178 0.97818 0.0
C904 C 0.97776 0.98483 0.0218 0.0
C905 C 0.96707 0.01451 0.02329 0.0
N906 N 0.96982 0.06155 0.00455 0.0
N907 N 0.02158 0.94632 0.99937 0.0
C908 C 0.97745 0.03278 1.00212 0.0
C909 C 0.00348 0.97377 0.99974 0.0
N910 N 1.00041 0.03709 0.95696 0.0
N911 N 0.96258 0.96719 0.04137 0.0
H912 H 0.03944 0.93729 0.98331 0.0
H913 H 0.02216 0.93302 0.01541 0.0
H914 H 0.94467 0.97465 0.05803 0.0
H915 H 0.96411 0.94502 0.04041 0.0
H916 H 0.98509 0.05754 0.9552 0.0
H917 H 0.01554 0.02926 0.93975 0.0
H918 H 0.98227 0.07648 0.99108 0.0
H919 H 0.95356 0.07084 0.0209 0.0
C920 C 0.28603 0.7298 0.35756 0.0
C921 C 0.23165 0.72609 0.35822 0.0
C922 C 0.21999 0.77792 0.36181 0.0
C923 C 0.27389 0.78174 0.35826 0.0
N924 N 0.35761 0.76169 0.34891 0.0
N925 N 0.14618 0.74655 0.35712 0.0
C926 C 0.30683 0.75777 0.35514 0.0
C927 C 0.19838 0.75014 0.35935 0.0
N928 N 0.31783 0.70664 0.36 0.0
N929 N 0.18968 0.80073 0.36826 0.0
H930 H 0.12885 0.72656 0.35527 0.0
H931 H 0.12039 0.76344 0.35492 0.0
H932 H 0.20416 0.82138 0.37035 0.0
H933 H 0.15119 0.79882 0.37377 0.0
H934 H 0.35764 0.70825 0.36241 0.0
H935 H 0.30403 0.68583 0.36193 0.0
H936 H 0.38214 0.7451 0.34356 0.0
H937 H 0.37433 0.78183 0.34695 0.0
C938 C 0.80417 0.24948 0.14973 0.0
C939 C 0.77122 0.22528 0.14938 0.0
C940 C 0.69532 0.25662 0.15105 0.0
C941 C 0.72817 0.28079 0.14935 0.0
N942 N 0.81307 0.30028 0.14199 0.0
N943 N 0.68568 0.20565 0.14458 0.0
C944 C 0.78243 0.27723 0.1472 0.0
C945 C 0.7168 0.22881 0.14854 0.0
N946 N 0.85606 0.24603 0.15346 0.0
N947 N 0.64389 0.26018 0.15603 0.0
H948 H 0.7 0.18496 0.14246 0.0
H949 H 0.64619 0.20723 0.14107 0.0
H950 H 0.62668 0.28019 0.15807 0.0
H951 H 0.61912 0.24333 0.16031 0.0
H952 H 0.88123 0.26297 0.15676 0.0
H953 H 0.87348 0.22607 0.15548 0.0
H954 H 0.85214 0.29859 0.13751 0.0
H955 H 0.79852 0.32091 0.13981 0.0
C956 C 0.71324 0.24728 0.6662 0.0
C957 C 0.73214 0.22618 0.649 0.0
C958 C 0.79181 0.26098 0.62995 0.0
C959 C 0.7754 0.28148 0.64833 0.0
N960 N 0.72537 0.29384 0.68583 0.0
N961 N 0.7927 0.21133 0.61642 0.0
C962 C 0.7374 0.27454 0.66699 0.0
C963 C 0.77234 0.2326 0.63136 0.0
N964 N 0.6714 0.24138 0.68135 0.0
N965 N 0.82521 0.26888 0.61084 0.0
H966 H 0.7784 0.19052 0.61639 0.0
H967 H 0.82581 0.21368 0.60529 0.0
H968 H 0.84141 0.28923 0.60968 0.0
H969 H 0.83436 0.25603 0.59515 0.0
H970 H 0.65198 0.25667 0.6922 0.0
H971 H 0.65353 0.22143 0.68175 0.0
H972 H 0.70252 0.28907 0.70174 0.0
H973 H 0.74113 0.31431 0.68658 0.0
C974 C 0.2933 0.74884 0.83852 0.0
C975 C 0.27618 0.72801 0.85644 0.0
C976 C 0.21836 0.7633 0.87616 0.0
C977 C 0.23176 0.7832 0.85667 0.0
N978 N 0.27449 0.79316 0.81638 0.0
N979 N 0.21555 0.71368 0.88925 0.0
C980 C 0.26714 0.77547 0.837 0.0
C981 C 0.23675 0.73475 0.87443 0.0
N982 N 0.33567 0.74356 0.82358 0.0
N983 N 0.1895 0.77191 0.89678 0.0
H984 H 0.22755 0.69246 0.88836 0.0
H985 H 0.18301 0.71672 0.9007 0.0
H986 H 0.17556 0.79268 0.89883 0.0
H987 H 0.18325 0.7592 0.91294 0.0
H988 H 0.35321 0.75906 0.81217 0.0
H989 H 0.3563 0.72445 0.82435 0.0
H990 H 0.29558 0.78731 0.80015 0.0
H991 H 0.25555 0.8127 0.81438 0.0
loop_
_geom_bond_atom_site_label_1
_geom_bond_atom_site_label_2
_geom_bond_distance
_geom_bond_site_symmetry_2
_ccdc_geom_bond_type
Li0 N17 1.990 . S
Li0 O60 1.956 . S
Li0 O61 1.970 . S
Li0 O62 1.961 . S
Li1 N25 1.990 . S
Li1 O60 1.970 . S
Li1 O61 1.956 . S
Li1 O63 1.961 . S
Li2 N47 1.990 . S
Li2 O60 1.961 . S
Li2 O62 1.956 . S
Li2 O63 1.970 . S
Li3 N53 1.990 . S
Li3 O61 1.961 . S
Li3 O62 1.970 . S
Li3 O63 1.956 . S
C4 C6 1.348 . S
C4 C7 1.356 . S
C4 O60 1.325 . S
N5 C8 1.314 . S
N5 C9 1.279 . S
C6 C4 1.348 . S
C6 C8 1.353 1_455 S
C6 H64 0.929 . S
C7 C4 1.356 . S
C7 C9 1.358 1_455 S
C7 H65 0.930 . S
C8 N5 1.314 . S
C8 C6 1.353 1_655 S
C8 H66 0.930 . S
C9 N5 1.279 . S
C9 C7 1.358 1_655 S
C9 H67 0.930 . S
C10 C13 1.348 . S
C10 C14 1.356 . S
C10 O61 1.325 . S
C11 N12 1.279 . S
C11 C14 1.358 . S
C11 H68 0.930 . S
N12 C11 1.279 . S
N12 C15 1.314 . S
C13 C10 1.348 . S
C13 C15 1.353 . S
C13 H69 0.929 . S
C14 C10 1.356 . S
C14 C11 1.358 . S
C14 H70 0.930 . S
C15 N12 1.314 . S
C15 C13 1.353 . S
C15 H71 0.930 . S
C16 N17 1.314 . S
C16 C21 1.353 1_455 S
C16 H22 0.930 . S
N17 Li0 1.990 . S
N17 C16 1.314 . S
N17 C19 1.279 1_455 S
C18 C19 1.358 . S
C18 C20 1.356 . S
C18 H72 0.930 . S
C19 N17 1.279 1_655 S
C19 C18 1.358 . S
C19 H23 0.930 . S
C20 C18 1.356 . S
C20 C21 1.348 . S
C21 C16 1.353 1_655 S
C21 C20 1.348 . S
C21 H73 0.929 . S
H22 C16 0.930 . S
H23 C19 0.930 . S
C24 N25 1.314 . S
C24 C26 1.353 . S
C24 H30 0.930 . S
N25 Li1 1.990 . S
N25 C24 1.314 . S
N25 C28 1.279 . S
C26 C24 1.353 . S
C26 C29 1.348 . S
C26 H74 0.929 . S
C27 C28 1.358 . S
C27 C29 1.356 . S
C27 H75 0.930 . S
C28 N25 1.279 . S
C28 C27 1.358 . S
C28 H31 0.930 . S
C29 C26 1.348 . S
C29 C27 1.356 . S
H30 C24 0.930 . S
H31 C28 0.930 . S
C32 C34 1.348 . S
C32 C35 1.356 . S
C32 O62 1.325 . S
N33 C36 1.314 . S
N33 C37 1.279 . S
C34 C32 1.348 . S
C34 C36 1.353 . S
C34 H76 0.929 . S
C35 C32 1.356 . S
C35 C37 1.358 . S
C35 H77 0.930 . S
C36 N33 1.314 . S
C36 C34 1.353 . S
C36 H78 0.930 . S
C37 N33 1.279 . S
C37 C35 1.358 . S
C37 H79 0.930 . S
C38 C39 1.348 . S
C38 C40 1.356 . S
C38 O63 1.325 . S
C39 C38 1.348 . S
C39 C41 1.353 . S
C39 H80 0.929 . S
C40 C38 1.356 . S
C40 C42 1.358 . S
C40 H81 0.930 . S
C41 C39 1.353 . S
C41 N43 1.314 . S
C41 H82 0.930 . S
C42 C40 1.358 . S
C42 N43 1.279 . S
C42 H83 0.930 . S
N43 C41 1.314 . S
N43 C42 1.279 . S
C44 C46 1.353 . S
C44 N47 1.314 . S
C44 H50 0.930 . S
C45 N47 1.279 . S
C45 C48 1.358 . S
C45 H51 0.930 . S
C46 C44 1.353 . S
C46 C49 1.348 . S
C46 H84 0.929 . S
N47 Li2 1.990 . S
N47 C44 1.314 . S
N47 C45 1.279 . S
C48 C45 1.358 . S
C48 C49 1.356 . S
C48 H85 0.930 . S
C49 C46 1.348 . S
C49 C48 1.356 . S
H50 C44 0.930 . S
H51 C45 0.930 . S
C52 N53 1.314 . S
C52 C54 1.353 . S
C52 H58 0.930 . S
N53 Li3 1.990 . S
N53 C52 1.314 . S
N53 C56 1.279 . S
C54 C52 1.353 . S
C54 C57 1.348 . S
C54 H86 0.929 . S
C55 C56 1.358 . S
C55 C57 1.356 . S
C55 H87 0.930 . S
C56 N53 1.279 . S
C56 C55 1.358 . S
C56 H59 0.930 . S
C57 C54 1.348 . S
C57 C55 1.356 . S
H58 C52 0.930 . S
H59 C56 0.930 . S
O60 Li0 1.956 . S
O60 Li1 1.970 . S
O60 Li2 1.961 . S
O60 C4 1.325 . S
O61 Li0 1.970 . S
O61 Li1 1.956 . S
O61 Li3 1.961 . S
O61 C10 1.325 . S
O62 Li0 1.961 . S
O62 Li2 1.956 . S
O62 Li3 1.970 . S
O62 C32 1.325 . S
O63 Li1 1.961 . S
O63 Li2 1.970 . S
O63 Li3 1.956 . S
O63 C38 1.325 . S
H64 C6 0.929 . S
H65 C7 0.930 . S
H66 C8 0.930 . S
H67 C9 0.930 . S
H68 C11 0.930 . S
H69 C13 0.929 . S
H70 C14 0.930 . S
H71 C15 0.930 . S
H72 C18 0.930 . S
H73 C21 0.929 . S
H74 C26 0.929 . S
H75 C27 0.930 . S
H76 C34 0.929 . S
H77 C35 0.930 . S
H78 C36 0.930 . S
H79 C37 0.930 . S
H80 C39 0.929 . S
H81 C40 0.930 . S
H82 C41 0.930 . S
H83 C42 0.930 . S
H84 C46 0.929 . S
H85 C48 0.930 . S
H86 C54 0.929 . S
H87 C55 0.930 . S
Li88 N105 1.990 . S
Li88 O148 1.956 . S
Li88 O149 1.970 . S
Li88 O150 1.961 . S
Li89 N113 1.990 . S
Li89 O148 1.970 . S
Li89 O149 1.956 . S
Li89 O151 1.961 . S
Li90 N135 1.990 . S
Li90 O148 1.961 . S
Li90 O150 1.956 . S
Li90 O151 1.970 . S
Li91 N141 1.990 . S
Li91 O149 1.961 . S
Li91 O150 1.970 . S
Li91 O151 1.956 . S
C92 C94 1.348 . S
C92 C95 1.356 . S
C92 O148 1.325 . S
N93 C96 1.314 . S
N93 C97 1.279 . S
C94 C92 1.348 . S
C94 C96 1.353 . S
C94 H152 0.929 . S
C95 C92 1.356 . S
C95 C97 1.358 . S
C95 H153 0.930 . S
C96 N93 1.314 . S
C96 C94 1.353 . S
C96 H154 0.930 . S
C97 N93 1.279 . S
C97 C95 1.358 . S
C97 H155 0.930 . S
C98 C101 1.348 . S
C98 C102 1.356 . S
C98 O149 1.325 . S
C99 N100 1.279 . S
C99 C102 1.358 . S
C99 H156 0.930 . S
N100 C99 1.279 . S
N100 C103 1.314 . S
C101 C98 1.348 . S
C101 C103 1.353 . S
C101 H157 0.929 . S
C102 C98 1.356 . S
C102 C99 1.358 . S
C102 H158 0.930 . S
C103 N100 1.314 . S
C103 C101 1.353 . S
C103 H159 0.930 . S
C104 N105 1.314 . S
C104 C109 1.353 1_565 S
C104 H110 0.930 . S
N105 Li88 1.990 . S
N105 C104 1.314 . S
N105 C107 1.279 . S
C106 C107 1.358 . S
C106 C108 1.356 . S
C106 H160 0.930 . S
C107 N105 1.279 . S
C107 C106 1.358 . S
C107 H111 0.930 . S
C108 C106 1.356 . S
C108 C109 1.348 1_565 S
C109 C104 1.353 1_545 S
C109 C108 1.348 1_545 S
C109 H161 0.929 . S
H110 C104 0.930 . S
H111 C107 0.930 . S
C112 N113 1.314 . S
C112 C114 1.353 . S
C112 H118 0.930 . S
N113 Li89 1.990 . S
N113 C112 1.314 . S
N113 C116 1.279 . S
C114 C112 1.353 . S
C114 C117 1.348 . S
C114 H162 0.929 . S
C115 C116 1.358 . S
C115 C117 1.356 . S
C115 H163 0.930 . S
C116 N113 1.279 . S
C116 C115 1.358 . S
C116 H119 0.930 . S
C117 C114 1.348 . S
C117 C115 1.356 . S
H118 C112 0.930 . S
H119 C116 0.930 . S
C120 C122 1.348 1_565 S
C120 C123 1.356 1_565 S
C120 O150 1.325 . S
N121 C124 1.314 . S
N121 C125 1.279 . S
C122 C120 1.348 1_545 S
C122 C124 1.353 . S
C122 H164 0.929 1_545 S
C123 C120 1.356 1_545 S
C123 C125 1.358 . S
C123 H165 0.930 . S
C124 N121 1.314 . S
C124 C122 1.353 . S
C124 H166 0.930 . S
C125 N121 1.279 . S
C125 C123 1.358 . S
C125 H167 0.930 . S
C126 C127 1.348 . S
C126 C128 1.356 . S
C126 O151 1.325 . S
C127 C126 1.348 . S
C127 C129 1.353 . S
C127 H168 0.929 . S
C128 C126 1.356 . S
C128 C130 1.358 . S
C128 H169 0.930 . S
C129 C127 1.353 . S
C129 N131 1.314 . S
C129 H170 0.930 . S
C130 C128 1.358 . S
C130 N131 1.279 . S
C130 H171 0.930 . S
N131 C129 1.314 . S
N131 C130 1.279 . S
C132 C134 1.353 . S
C132 N135 1.314 . S
C132 H138 0.930 . S
C133 N135 1.279 . S
C133 C136 1.358 . S
C133 H139 0.930 . S
C134 C132 1.353 . S
C134 C137 1.348 . S
C134 H172 0.929 . S
N135 Li90 1.990 . S
N135 C132 1.314 . S
N135 C133 1.279 . S
C136 C133 1.358 . S
C136 C137 1.356 . S
C136 H173 0.930 1_565 S
C137 C134 1.348 . S
C137 C136 1.356 . S
H138 C132 0.930 . S
H139 C133 0.930 . S
C140 N141 1.314 . S
C140 C142 1.353 . S
C140 H146 0.930 . S
N141 Li91 1.990 . S
N141 C140 1.314 . S
N141 C144 1.279 . S
C142 C140 1.353 . S
C142 C145 1.348 . S
C142 H174 0.929 . S
C143 C144 1.358 . S
C143 C145 1.356 . S
C143 H175 0.930 . S
C144 N141 1.279 . S
C144 C143 1.358 . S
C144 H147 0.930 . S
C145 C142 1.348 . S
C145 C143 1.356 . S
H146 C140 0.930 . S
H147 C144 0.930 . S
O148 Li88 1.956 . S
O148 Li89 1.970 . S
O148 Li90 1.961 . S
O148 C92 1.325 . S
O149 Li88 1.970 . S
O149 Li89 1.956 . S
O149 Li91 1.961 . S
O149 C98 1.325 . S
O150 Li88 1.961 . S
O150 Li90 1.956 . S
O150 Li91 1.970 . S
O150 C120 1.325 . S
O151 Li89 1.961 . S
O151 Li90 1.970 . S
O151 Li91 1.956 . S
O151 C126 1.325 . S
H152 C94 0.929 . S
H153 C95 0.930 . S
H154 C96 0.930 . S
H155 C97 0.930 . S
H156 C99 0.930 . S
H157 C101 0.929 . S
H158 C102 0.930 . S
H159 C103 0.930 . S
H160 C106 0.930 . S
H161 C109 0.929 . S
H162 C114 0.929 . S
H163 C115 0.930 . S
H164 C122 0.929 1_565 S
H165 C123 0.930 . S
H166 C124 0.930 . S
H167 C125 0.930 . S
H168 C127 0.929 . S
H169 C128 0.930 . S
H170 C129 0.930 . S
H171 C130 0.930 . S
H172 C134 0.929 . S
H173 C136 0.930 1_545 S
H174 C142 0.929 . S
H175 C143 0.930 . S
Li176 N193 1.990 . S
Li176 O236 1.956 . S
Li176 O237 1.970 . S
Li176 O238 1.961 . S
Li177 N201 1.990 . S
Li177 O236 1.970 . S
Li177 O237 1.956 . S
Li177 O239 1.961 . S
Li178 N223 1.990 . S
Li178 O236 1.961 . S
Li178 O238 1.956 . S
Li178 O239 1.970 . S
Li179 N229 1.990 . S
Li179 O237 1.961 . S
Li179 O238 1.970 . S
Li179 O239 1.956 . S
C180 C182 1.348 . S
C180 C183 1.356 . S
C180 O236 1.325 . S
N181 C184 1.314 . S
N181 C185 1.279 . S
C182 C180 1.348 . S
C182 C184 1.353 . S
C182 H240 0.929 . S
C183 C180 1.356 . S
C183 C185 1.358 . S
C183 H241 0.930 . S
C184 N181 1.314 . S
C184 C182 1.353 . S
C184 H242 0.930 . S
C185 N181 1.279 . S
C185 C183 1.358 . S
C185 H243 0.930 . S
C186 C189 1.348 . S
C186 C190 1.356 . S
C186 O237 1.325 . S
C187 N188 1.279 . S
C187 C190 1.358 . S
C187 H244 0.930 . S
N188 C187 1.279 . S
N188 C191 1.314 . S
C189 C186 1.348 . S
C189 C191 1.353 . S
C189 H245 0.929 . S
C190 C186 1.356 . S
C190 C187 1.358 . S
C190 H246 0.930 . S
C191 N188 1.314 . S
C191 C189 1.353 . S
C191 H247 0.930 . S
C192 N193 1.314 . S
C192 C197 1.353 . S
C192 H198 0.930 . S
N193 Li176 1.990 . S
N193 C192 1.314 . S
N193 C195 1.279 . S
C194 C195 1.358 . S
C194 C196 1.356 . S
C194 H248 0.930 . S
C195 N193 1.279 . S
C195 C194 1.358 . S
C195 H199 0.930 . S
C196 C194 1.356 . S
C196 C197 1.348 . S
C197 C192 1.353 . S
C197 C196 1.348 . S
C197 H249 0.929 . S
H198 C192 0.930 . S
H199 C195 0.930 . S
C200 N201 1.314 . S
C200 C202 1.353 . S
C200 H206 0.930 . S
N201 Li177 1.990 . S
N201 C200 1.314 . S
N201 C204 1.279 . S
C202 C200 1.353 . S
C202 C205 1.348 . S
C202 H250 0.929 . S
C203 C204 1.358 . S
C203 C205 1.356 . S
C203 H251 0.930 . S
C204 N201 1.279 . S
C204 C203 1.358 . S
C204 H207 0.930 . S
C205 C202 1.348 . S
C205 C203 1.356 . S
H206 C200 0.930 . S
H207 C204 0.930 . S
C208 C210 1.348 . S
C208 C211 1.356 . S
C208 O238 1.325 . S
N209 C212 1.314 . S
N209 C213 1.279 . S
C210 C208 1.348 . S
C210 C212 1.353 . S
C210 H252 0.929 . S
C211 C208 1.356 . S
C211 C213 1.358 . S
C211 H253 0.930 . S
C212 N209 1.314 . S
C212 C210 1.353 . S
C212 H254 0.930 . S
C213 N209 1.279 . S
C213 C211 1.358 . S
C213 H255 0.930 . S
C214 C215 1.348 . S
C214 C216 1.356 . S
C214 O239 1.325 . S
C215 C214 1.348 . S
C215 C217 1.353 . S
C215 H256 0.929 . S
C216 C214 1.356 . S
C216 C218 1.358 . S
C216 H257 0.930 . S
C217 C215 1.353 . S
C217 N219 1.314 . S
C217 H258 0.930 . S
C218 C216 1.358 . S
C218 N219 1.279 . S
C218 H259 0.930 . S
N219 C217 1.314 . S
N219 C218 1.279 . S
C220 C222 1.353 . S
C220 N223 1.314 . S
C220 H226 0.930 . S
C221 N223 1.279 . S
C221 C224 1.358 . S
C221 H227 0.930 . S
C222 C220 1.353 . S
C222 C225 1.348 . S
C222 H260 0.929 . S
N223 Li178 1.990 . S
N223 C220 1.314 . S
N223 C221 1.279 . S
C224 C221 1.358 . S
C224 C225 1.356 . S
C224 H261 0.930 . S
C225 C222 1.348 . S
C225 C224 1.356 . S
H226 C220 0.930 . S
H227 C221 0.930 . S
C228 N229 1.314 . S
C228 C230 1.353 . S
C228 H234 0.930 . S
N229 Li179 1.990 . S
N229 C228 1.314 . S
N229 C232 1.279 . S
C230 C228 1.353 . S
C230 C233 1.348 . S
C230 H262 0.929 . S
C231 C232 1.358 . S
C231 C233 1.356 . S
C231 H263 0.930 . S
C232 N229 1.279 . S
C232 C231 1.358 . S
C232 H235 0.930 . S
C233 C230 1.348 . S
C233 C231 1.356 . S
H234 C228 0.930 . S
H235 C232 0.930 . S
O236 Li176 1.956 . S
O236 Li177 1.970 . S
O236 Li178 1.961 . S
O236 C180 1.325 . S
O237 Li176 1.970 . S
O237 Li177 1.956 . S
O237 Li179 1.961 . S
O237 C186 1.325 . S
O238 Li176 1.961 . S
O238 Li178 1.956 . S
O238 Li179 1.970 . S
O238 C208 1.325 . S
O239 Li177 1.961 . S
O239 Li178 1.970 . S
O239 Li179 1.956 . S
O239 C214 1.325 . S
H240 C182 0.929 . S
H241 C183 0.930 . S
H242 C184 0.930 . S
H243 C185 0.930 . S
H244 C187 0.930 . S
H245 C189 0.929 . S
H246 C190 0.930 . S
H247 C191 0.930 . S
H248 C194 0.930 . S
H249 C197 0.929 . S
H250 C202 0.929 . S
H251 C203 0.930 . S
H252 C210 0.929 . S
H253 C211 0.930 . S
H254 C212 0.930 . S
H255 C213 0.930 . S
H256 C215 0.929 . S
H257 C216 0.930 . S
H258 C217 0.930 . S
H259 C218 0.930 . S
H260 C222 0.929 . S
H261 C224 0.930 . S
H262 C230 0.929 . S
H263 C231 0.930 . S
Li264 N281 1.990 . S
Li264 O324 1.956 . S
Li264 O325 1.970 . S
Li264 O326 1.961 . S
Li265 N289 1.990 . S
Li265 O324 1.970 . S
Li265 O325 1.956 . S
Li265 O327 1.961 . S
Li266 N311 1.990 . S
Li266 O324 1.961 . S
Li266 O326 1.956 . S
Li266 O327 1.970 . S
Li267 N317 1.990 . S
Li267 O325 1.961 . S
Li267 O326 1.970 . S
Li267 O327 1.956 . S
C268 C270 1.348 . S
C268 C271 1.356 . S
C268 O324 1.325 . S
N269 C272 1.314 . S
N269 C273 1.279 . S
C270 C268 1.348 . S
C270 C272 1.353 . S
C270 H328 0.929 . S
C271 C268 1.356 . S
C271 C273 1.358 . S
C271 H329 0.930 . S
C272 N269 1.314 . S
C272 C270 1.353 . S
C272 H330 0.930 . S
C273 N269 1.279 . S
C273 C271 1.358 . S
C273 H331 0.930 . S
C274 C277 1.348 . S
C274 C278 1.356 . S
C274 O325 1.325 . S
C275 N276 1.279 . S
C275 C278 1.358 . S
C275 H332 0.930 . S
N276 C275 1.279 . S
N276 C279 1.314 . S
C277 C274 1.348 . S
C277 C279 1.353 . S
C277 H333 0.929 . S
C278 C274 1.356 . S
C278 C275 1.358 . S
C278 H334 0.930 . S
C279 N276 1.314 . S
C279 C277 1.353 . S
C279 H335 0.930 . S
C280 N281 1.314 . S
C280 C285 1.353 1_545 S
C280 H286 0.930 . S
N281 Li264 1.990 . S
N281 C280 1.314 . S
N281 C283 1.279 . S
C282 C283 1.358 . S
C282 C284 1.356 . S
C282 H336 0.930 . S
C283 N281 1.279 . S
C283 C282 1.358 . S
C283 H287 0.930 . S
C284 C282 1.356 . S
C284 C285 1.348 1_545 S
C285 C280 1.353 1_565 S
C285 C284 1.348 1_565 S
C285 H337 0.929 . S
H286 C280 0.930 . S
H287 C283 0.930 . S
C288 N289 1.314 . S
C288 C290 1.353 . S
C288 H294 0.930 . S
N289 Li265 1.990 . S
N289 C288 1.314 . S
N289 C292 1.279 . S
C290 C288 1.353 . S
C290 C293 1.348 . S
C290 H338 0.929 . S
C291 C292 1.358 . S
C291 C293 1.356 . S
C291 H339 0.930 . S
C292 N289 1.279 . S
C292 C291 1.358 . S
C292 H295 0.930 . S
C293 C290 1.348 . S
C293 C291 1.356 . S
H294 C288 0.930 . S
H295 C292 0.930 . S
C296 C298 1.348 1_545 S
C296 C299 1.356 1_545 S
C296 O326 1.325 . S
N297 C300 1.314 . S
N297 C301 1.279 . S
C298 C296 1.348 1_565 S
C298 C300 1.353 . S
C298 H340 0.929 1_565 S
C299 C296 1.356 1_565 S
C299 C301 1.358 . S
C299 H341 0.930 . S
C300 N297 1.314 . S
C300 C298 1.353 . S
C300 H342 0.930 . S
C301 N297 1.279 . S
C301 C299 1.358 . S
C301 H343 0.930 . S
C302 C303 1.348 . S
C302 C304 1.356 . S
C302 O327 1.325 . S
C303 C302 1.348 . S
C303 C305 1.353 1_655 S
C303 H344 0.929 . S
C304 C302 1.356 . S
C304 C306 1.358 1_655 S
C304 H345 0.930 . S
C305 C303 1.353 1_455 S
C305 N307 1.314 . S
C305 H346 0.930 . S
C306 C304 1.358 1_455 S
C306 N307 1.279 . S
C306 H347 0.930 . S
N307 C305 1.314 . S
N307 C306 1.279 . S
C308 C310 1.353 . S
C308 N311 1.314 . S
C308 H314 0.930 . S
C309 N311 1.279 . S
C309 C312 1.358 . S
C309 H315 0.930 . S
C310 C308 1.353 . S
C310 C313 1.348 . S
C310 H348 0.929 . S
N311 Li266 1.990 . S
N311 C308 1.314 . S
N311 C309 1.279 . S
C312 C309 1.358 . S
C312 C313 1.356 . S
C312 H349 0.930 1_545 S
C313 C310 1.348 . S
C313 C312 1.356 . S
H314 C308 0.930 . S
H315 C309 0.930 . S
C316 N317 1.314 . S
C316 C318 1.353 1_655 S
C316 H322 0.930 . S
N317 Li267 1.990 . S
N317 C316 1.314 . S
N317 C320 1.279 1_655 S
C318 C316 1.353 1_455 S
C318 C321 1.348 . S
C318 H350 0.929 . S
C319 C320 1.358 . S
C319 C321 1.356 . S
C319 H351 0.930 . S
C320 N317 1.279 1_455 S
C320 C319 1.358 . S
C320 H323 0.930 . S
C321 C318 1.348 . S
C321 C319 1.356 . S
H322 C316 0.930 . S
H323 C320 0.930 . S
O324 Li264 1.956 . S
O324 Li265 1.970 . S
O324 Li266 1.961 . S
O324 C268 1.325 . S
O325 Li264 1.970 . S
O325 Li265 1.956 . S
O325 Li267 1.961 . S
O325 C274 1.325 . S
O326 Li264 1.961 . S
O326 Li266 1.956 . S
O326 Li267 1.970 . S
O326 C296 1.325 . S
O327 Li265 1.961 . S
O327 Li266 1.970 . S
O327 Li267 1.956 . S
O327 C302 1.325 . S
H328 C270 0.929 . S
H329 C271 0.930 . S
H330 C272 0.930 . S
H331 C273 0.930 . S
H332 C275 0.930 . S
H333 C277 0.929 . S
H334 C278 0.930 . S
H335 C279 0.930 . S
H336 C282 0.930 . S
H337 C285 0.929 . S
H338 C290 0.929 . S
H339 C291 0.930 . S
H340 C298 0.929 1_545 S
H341 C299 0.930 . S
H342 C300 0.930 . S
H343 C301 0.930 . S
H344 C303 0.929 . S
H345 C304 0.930 . S
H346 C305 0.930 . S
H347 C306 0.930 . S
H348 C310 0.929 . S
H349 C312 0.930 1_565 S
H350 C318 0.929 . S
H351 C319 0.930 . S
Li352 N369 1.990 . S
Li352 O412 1.956 . S
Li352 O413 1.970 . S
Li352 O414 1.961 . S
Li353 N377 1.990 . S
Li353 O412 1.970 . S
Li353 O413 1.956 . S
Li353 O415 1.961 . S
Li354 N399 1.990 . S
Li354 O412 1.961 . S
Li354 O414 1.956 . S
Li354 O415 1.970 . S
Li355 N405 1.990 . S
Li355 O413 1.961 . S
Li355 O414 1.970 . S
Li355 O415 1.956 . S
C356 C358 1.348 . S
C356 C359 1.356 . S
C356 O412 1.325 . S
N357 C360 1.314 . S
N357 C361 1.279 . S
C358 C356 1.348 . S
C358 C360 1.353 . S
C358 H416 0.929 . S
C359 C356 1.356 . S
C359 C361 1.358 . S
C359 H417 0.930 . S
C360 N357 1.314 . S
C360 C358 1.353 . S
C360 H418 0.930 . S
C361 N357 1.279 . S
C361 C359 1.358 . S
C361 H419 0.930 . S
C362 C365 1.348 . S
C362 C366 1.356 . S
C362 O413 1.325 . S
C363 N364 1.279 . S
C363 C366 1.358 . S
C363 H420 0.930 . S
N364 C363 1.279 . S
N364 C367 1.314 . S
C365 C362 1.348 . S
C365 C367 1.353 . S
C365 H421 0.929 . S
C366 C362 1.356 . S
C366 C363 1.358 . S
C366 H422 0.930 . S
C367 N364 1.314 . S
C367 C365 1.353 . S
C367 H423 0.930 . S
C368 N369 1.314 . S
C368 C373 1.353 . S
C368 H374 0.930 . S
N369 Li352 1.990 . S
N369 C368 1.314 . S
N369 C371 1.279 . S
C370 C371 1.358 . S
C370 C372 1.356 . S
C370 H424 0.930 . S
C371 N369 1.279 . S
C371 C370 1.358 . S
C371 H375 0.930 . S
C372 C370 1.356 . S
C372 C373 1.348 . S
C373 C368 1.353 . S
C373 C372 1.348 . S
C373 H425 0.929 . S
H374 C368 0.930 . S
H375 C371 0.930 . S
C376 N377 1.314 1_455 S
C376 C378 1.353 . S
C376 H382 0.930 . S
N377 Li353 1.990 . S
N377 C376 1.314 1_655 S
N377 C380 1.279 . S
C378 C376 1.353 . S
C378 C381 1.348 . S
C378 H426 0.929 . S
C379 C380 1.358 1_455 S
C379 C381 1.356 . S
C379 H427 0.930 . S
C380 N377 1.279 . S
C380 C379 1.358 1_655 S
C380 H383 0.930 . S
C381 C378 1.348 . S
C381 C379 1.356 . S
H382 C376 0.930 . S
H383 C380 0.930 . S
C384 C386 1.348 . S
C384 C387 1.356 . S
C384 O414 1.325 . S
N385 C388 1.314 . S
N385 C389 1.279 . S
C386 C384 1.348 . S
C386 C388 1.353 . S
C386 H428 0.929 . S
C387 C384 1.356 . S
C387 C389 1.358 . S
C387 H429 0.930 . S
C388 N385 1.314 . S
C388 C386 1.353 . S
C388 H430 0.930 . S
C389 N385 1.279 . S
C389 C387 1.358 . S
C389 H431 0.930 . S
C390 C391 1.348 . S
C390 C392 1.356 1_655 S
C390 O415 1.325 . S
C391 C390 1.348 . S
C391 C393 1.353 1_655 S
C391 H432 0.929 . S
C392 C390 1.356 1_455 S
C392 C394 1.358 . S
C392 H433 0.930 1_455 S
C393 C391 1.353 1_455 S
C393 N395 1.314 . S
C393 H434 0.930 . S
C394 C392 1.358 . S
C394 N395 1.279 . S
C394 H435 0.930 . S
N395 C393 1.314 . S
N395 C394 1.279 . S
C396 C398 1.353 . S
C396 N399 1.314 . S
C396 H402 0.930 . S
C397 N399 1.279 . S
C397 C400 1.358 . S
C397 H403 0.930 . S
C398 C396 1.353 . S
C398 C401 1.348 . S
C398 H436 0.929 . S
N399 Li354 1.990 . S
N399 C396 1.314 . S
N399 C397 1.279 . S
C400 C397 1.358 . S
C400 C401 1.356 . S
C400 H437 0.930 . S
C401 C398 1.348 . S
C401 C400 1.356 . S
H402 C396 0.930 . S
H403 C397 0.930 . S
C404 N405 1.314 . S
C404 C406 1.353 . S
C404 H410 0.930 . S
N405 Li355 1.990 . S
N405 C404 1.314 . S
N405 C408 1.279 . S
C406 C404 1.353 . S
C406 C409 1.348 . S
C406 H438 0.929 . S
C407 C408 1.358 . S
C407 C409 1.356 . S
C407 H439 0.930 . S
C408 N405 1.279 . S
C408 C407 1.358 . S
C408 H411 0.930 . S
C409 C406 1.348 . S
C409 C407 1.356 . S
H410 C404 0.930 . S
H411 C408 0.930 . S
O412 Li352 1.956 . S
O412 Li353 1.970 . S
O412 Li354 1.961 . S
O412 C356 1.325 . S
O413 Li352 1.970 . S
O413 Li353 1.956 . S
O413 Li355 1.961 . S
O413 C362 1.325 . S
O414 Li352 1.961 . S
O414 Li354 1.956 . S
O414 Li355 1.970 . S
O414 C384 1.325 . S
O415 Li353 1.961 . S
O415 Li354 1.970 . S
O415 Li355 1.956 . S
O415 C390 1.325 . S
H416 C358 0.929 . S
H417 C359 0.930 . S
H418 C360 0.930 . S
H419 C361 0.930 . S
H420 C363 0.930 . S
H421 C365 0.929 . S
H422 C366 0.930 . S
H423 C367 0.930 . S
H424 C370 0.930 . S
H425 C373 0.929 . S
H426 C378 0.929 . S
H427 C379 0.930 . S
H428 C386 0.929 . S
H429 C387 0.930 . S
H430 C388 0.930 . S
H431 C389 0.930 . S
H432 C391 0.929 . S
H433 C392 0.930 1_655 S
H434 C393 0.930 . S
H435 C394 0.930 . S
H436 C398 0.929 . S
H437 C400 0.930 . S
H438 C406 0.929 . S
H439 C407 0.930 . S
Li440 N457 1.990 . S
Li440 O500 1.956 . S
Li440 O501 1.970 . S
Li440 O502 1.961 . S
Li441 N465 1.990 . S
Li441 O500 1.970 . S
Li441 O501 1.956 . S
Li441 O503 1.961 . S
Li442 N487 1.990 . S
Li442 O500 1.961 . S
Li442 O502 1.956 . S
Li442 O503 1.970 . S
Li443 N493 1.990 . S
Li443 O501 1.961 . S
Li443 O502 1.970 . S
Li443 O503 1.956 . S
C444 C446 1.348 . S
C444 C447 1.356 . S
C444 O500 1.325 . S
N445 C448 1.314 . S
N445 C449 1.279 . S
C446 C444 1.348 . S
C446 C448 1.353 . S
C446 H504 0.929 . S
C447 C444 1.356 . S
C447 C449 1.358 . S
C447 H505 0.930 . S
C448 N445 1.314 . S
C448 C446 1.353 . S
C448 H506 0.930 . S
C449 N445 1.279 . S
C449 C447 1.358 . S
C449 H507 0.930 . S
C450 C453 1.348 1_545 S
C450 C454 1.356 1_545 S
C450 O501 1.325 . S
C451 N452 1.279 . S
C451 C454 1.358 . S
C451 H508 0.930 . S
N452 C451 1.279 . S
N452 C455 1.314 . S
C453 C450 1.348 1_565 S
C453 C455 1.353 . S
C453 H509 0.944 . S
C454 C450 1.356 1_565 S
C454 C451 1.358 . S
C454 H510 0.930 . S
C455 N452 1.314 . S
C455 C453 1.353 . S
C455 H511 0.930 . S
C456 N457 1.314 . S
C456 C461 1.353 . S
C456 H462 0.930 . S
N457 Li440 1.990 . S
N457 C456 1.314 . S
N457 C459 1.279 . S
C458 C459 1.358 . S
C458 C460 1.356 . S
C458 H512 0.930 . S
C459 N457 1.279 . S
C459 C458 1.358 . S
C459 H463 0.930 . S
C460 C458 1.356 . S
C460 C461 1.348 . S
C461 C456 1.353 . S
C461 C460 1.348 . S
C461 H513 0.929 . S
H462 C456 0.930 . S
H463 C459 0.930 . S
C464 N465 1.314 . S
C464 C466 1.353 . S
C464 H470 0.930 . S
N465 Li441 1.990 . S
N465 C464 1.314 . S
N465 C468 1.279 . S
C466 C464 1.353 . S
C466 C469 1.348 . S
C466 H514 0.929 . S
C467 C468 1.358 1_565 S
C467 C469 1.356 1_565 S
C467 H515 0.930 . S
C468 N465 1.279 . S
C468 C467 1.358 1_545 S
C468 H471 0.930 1_545 S
C469 C466 1.348 . S
C469 C467 1.356 1_545 S
H470 C464 0.930 . S
H471 C468 0.930 1_565 S
C472 C474 1.348 . S
C472 C475 1.356 . S
C472 O502 1.325 . S
N473 C476 1.314 . S
N473 C477 1.279 . S
C474 C472 1.348 . S
C474 C476 1.353 . S
C474 H516 0.929 . S
C475 C472 1.356 . S
C475 C477 1.358 . S
C475 H517 0.930 . S
C476 N473 1.314 . S
C476 C474 1.353 . S
C476 H518 0.930 . S
C477 N473 1.279 . S
C477 C475 1.358 . S
C477 H519 0.930 . S
C478 C479 1.348 . S
C478 C480 1.356 . S
C478 O503 1.325 . S
C479 C478 1.348 . S
C479 C481 1.353 . S
C479 H520 0.929 . S
C480 C478 1.356 . S
C480 C482 1.358 . S
C480 H521 0.930 . S
C481 C479 1.353 . S
C481 N483 1.314 . S
C481 H522 0.930 . S
C482 C480 1.358 . S
C482 N483 1.279 . S
C482 H523 0.930 . S
N483 C481 1.314 . S
N483 C482 1.279 . S
C484 C486 1.353 . S
C484 N487 1.314 . S
C484 H490 0.930 . S
C485 N487 1.279 . S
C485 C488 1.358 . S
C485 H491 0.930 . S
C486 C484 1.353 . S
C486 C489 1.348 . S
C486 H524 0.929 . S
N487 Li442 1.990 . S
N487 C484 1.314 . S
N487 C485 1.279 . S
C488 C485 1.358 . S
C488 C489 1.356 . S
C488 H525 0.930 . S
C489 C486 1.348 . S
C489 C488 1.356 . S
H490 C484 0.930 . S
H491 C485 0.930 . S
C492 N493 1.314 . S
C492 C494 1.353 . S
C492 H498 0.930 . S
N493 Li443 1.990 . S
N493 C492 1.314 . S
N493 C496 1.279 . S
C494 C492 1.353 . S
C494 C497 1.348 . S
C494 H526 0.929 1_545 S
C495 C496 1.358 . S
C495 C497 1.356 . S
C495 H527 0.930 . S
C496 N493 1.279 . S
C496 C495 1.358 . S
C496 H499 0.930 . S
C497 C494 1.348 . S
C497 C495 1.356 . S
H498 C492 0.930 . S
H499 C496 0.930 . S
O500 Li440 1.956 . S
O500 Li441 1.970 . S
O500 Li442 1.961 . S
O500 C444 1.325 . S
O501 Li440 1.970 . S
O501 Li441 1.956 . S
O501 Li443 1.961 . S
O501 C450 1.325 . S
O502 Li440 1.961 . S
O502 Li442 1.956 . S
O502 Li443 1.970 . S
O502 C472 1.325 . S
O503 Li441 1.961 . S
O503 Li442 1.970 . S
O503 Li443 1.956 . S
O503 C478 1.325 . S
H504 C446 0.929 . S
H505 C447 0.930 . S
H506 C448 0.930 . S
H507 C449 0.930 . S
H508 C451 0.930 . S
H509 C453 0.944 . S
H510 C454 0.930 . S
H511 C455 0.930 . S
H512 C458 0.930 . S
H513 C461 0.929 . S
H514 C466 0.929 . S
H515 C467 0.930 . S
H516 C474 0.929 . S
H517 C475 0.930 . S
H518 C476 0.930 . S
H519 C477 0.930 . S
H520 C479 0.929 . S
H521 C480 0.930 . S
H522 C481 0.930 . S
H523 C482 0.930 . S
H524 C486 0.929 . S
H525 C488 0.930 . S
H526 C494 0.929 1_565 S
H527 C495 0.930 . S
Li528 N545 1.990 . S
Li528 O588 1.956 . S
Li528 O589 1.970 . S
Li528 O590 1.961 . S
Li529 N553 1.990 . S
Li529 O588 1.970 . S
Li529 O589 1.956 . S
Li529 O591 1.961 . S
Li530 N575 1.990 . S
Li530 O588 1.961 . S
Li530 O590 1.956 . S
Li530 O591 1.970 . S
Li531 N581 1.990 . S
Li531 O589 1.961 . S
Li531 O590 1.970 . S
Li531 O591 1.956 . S
C532 C534 1.348 . S
C532 C535 1.356 . S
C532 O588 1.325 . S
N533 C536 1.314 . S
N533 C537 1.279 . S
C534 C532 1.348 . S
C534 C536 1.353 . S
C534 H592 0.929 . S
C535 C532 1.356 . S
C535 C537 1.358 . S
C535 H593 0.930 . S
C536 N533 1.314 . S
C536 C534 1.353 . S
C536 H594 0.930 . S
C537 N533 1.279 . S
C537 C535 1.358 . S
C537 H595 0.930 . S
C538 C541 1.348 . S
C538 C542 1.356 . S
C538 O589 1.325 . S
C539 N540 1.279 . S
C539 C542 1.358 . S
C539 H596 0.930 . S
N540 C539 1.279 . S
N540 C543 1.314 . S
C541 C538 1.348 . S
C541 C543 1.353 . S
C541 H597 0.929 . S
C542 C538 1.356 . S
C542 C539 1.358 . S
C542 H598 0.930 . S
C543 N540 1.314 . S
C543 C541 1.353 . S
C543 H599 0.930 . S
C544 N545 1.314 . S
C544 C549 1.353 . S
C544 H550 0.930 . S
N545 Li528 1.990 . S
N545 C544 1.314 . S
N545 C547 1.279 . S
C546 C547 1.358 . S
C546 C548 1.356 . S
C546 H600 0.930 . S
C547 N545 1.279 . S
C547 C546 1.358 . S
C547 H551 0.930 . S
C548 C546 1.356 . S
C548 C549 1.348 . S
C549 C544 1.353 . S
C549 C548 1.348 . S
C549 H601 0.929 . S
H550 C544 0.930 . S
H551 C547 0.930 . S
C552 N553 1.314 . S
C552 C554 1.353 . S
C552 H558 0.930 . S
N553 Li529 1.990 . S
N553 C552 1.314 . S
N553 C556 1.279 . S
C554 C552 1.353 . S
C554 C557 1.348 . S
C554 H602 0.929 . S
C555 C556 1.358 . S
C555 C557 1.356 . S
C555 H603 0.930 . S
C556 N553 1.279 . S
C556 C555 1.358 . S
C556 H559 0.930 . S
C557 C554 1.348 . S
C557 C555 1.356 . S
H558 C552 0.930 . S
H559 C556 0.930 . S
C560 C562 1.348 . S
C560 C563 1.356 . S
C560 O590 1.325 . S
N561 C564 1.314 . S
N561 C565 1.279 . S
C562 C560 1.348 . S
C562 C564 1.353 . S
C562 H604 0.929 . S
C563 C560 1.356 . S
C563 C565 1.358 . S
C563 H605 0.930 . S
C564 N561 1.314 . S
C564 C562 1.353 . S
C564 H606 0.930 . S
C565 N561 1.279 . S
C565 C563 1.358 . S
C565 H607 0.930 . S
C566 C567 1.348 . S
C566 C568 1.356 . S
C566 O591 1.325 . S
C567 C566 1.348 . S
C567 C569 1.353 . S
C567 H608 0.929 . S
C568 C566 1.356 . S
C568 C570 1.358 . S
C568 H609 0.930 . S
C569 C567 1.353 . S
C569 N571 1.314 . S
C569 H610 0.930 . S
C570 C568 1.358 . S
C570 N571 1.279 . S
C570 H611 0.930 . S
N571 C569 1.314 . S
N571 C570 1.279 . S
C572 C574 1.353 . S
C572 N575 1.314 . S
C572 H578 0.930 . S
C573 N575 1.279 . S
C573 C576 1.358 . S
C573 H579 0.930 . S
C574 C572 1.353 . S
C574 C577 1.348 . S
C574 H612 0.929 . S
N575 Li530 1.990 . S
N575 C572 1.314 . S
N575 C573 1.279 . S
C576 C573 1.358 . S
C576 C577 1.356 . S
C576 H613 0.930 . S
C577 C574 1.348 . S
C577 C576 1.356 . S
H578 C572 0.930 . S
H579 C573 0.930 . S
C580 N581 1.314 . S
C580 C582 1.353 . S
C580 H586 0.930 . S
N581 Li531 1.990 . S
N581 C580 1.314 . S
N581 C584 1.279 . S
C582 C580 1.353 . S
C582 C585 1.348 . S
C582 H614 0.929 . S
C583 C584 1.358 . S
C583 C585 1.356 . S
C583 H615 0.930 . S
C584 N581 1.279 . S
C584 C583 1.358 . S
C584 H587 0.930 . S
C585 C582 1.348 . S
C585 C583 1.356 . S
H586 C580 0.930 . S
H587 C584 0.930 . S
O588 Li528 1.956 . S
O588 Li529 1.970 . S
O588 Li530 1.961 . S
O588 C532 1.325 . S
O589 Li528 1.970 . S
O589 Li529 1.956 . S
O589 Li531 1.961 . S
O589 C538 1.325 . S
O590 Li528 1.961 . S
O590 Li530 1.956 . S
O590 Li531 1.970 . S
O590 C560 1.325 . S
O591 Li529 1.961 . S
O591 Li530 1.970 . S
O591 Li531 1.956 . S
O591 C566 1.325 . S
H592 C534 0.929 . S
H593 C535 0.930 . S
H594 C536 0.930 . S
H595 C537 0.930 . S
H596 C539 0.930 . S
H597 C541 0.929 . S
H598 C542 0.930 . S
H599 C543 0.930 . S
H600 C546 0.930 . S
H601 C549 0.929 . S
H602 C554 0.929 . S
H603 C555 0.930 . S
H604 C562 0.929 . S
H605 C563 0.930 . S
H606 C564 0.930 . S
H607 C565 0.930 . S
H608 C567 0.929 . S
H609 C568 0.930 . S
H610 C569 0.930 . S
H611 C570 0.930 . S
H612 C574 0.929 . S
H613 C576 0.930 . S
H614 C582 0.929 . S
H615 C583 0.930 . S
Li616 N633 1.990 . S
Li616 O676 1.956 . S
Li616 O677 1.970 . S
Li616 O678 1.961 . S
Li617 N641 1.990 . S
Li617 O676 1.970 . S
Li617 O677 1.956 . S
Li617 O679 1.961 . S
Li618 N663 1.990 . S
Li618 O676 1.961 . S
Li618 O678 1.956 . S
Li618 O679 1.970 . S
Li619 N669 1.990 . S
Li619 O677 1.961 . S
Li619 O678 1.970 . S
Li619 O679 1.956 . S
C620 C622 1.348 . S
C620 C623 1.356 . S
C620 O676 1.325 . S
N621 C624 1.314 . S
N621 C625 1.279 . S
C622 C620 1.348 . S
C622 C624 1.353 . S
C622 H680 0.929 . S
C623 C620 1.356 . S
C623 C625 1.358 . S
C623 H681 0.930 . S
C624 N621 1.314 . S
C624 C622 1.353 . S
C624 H682 0.930 . S
C625 N621 1.279 . S
C625 C623 1.358 . S
C625 H683 0.930 . S
C626 C629 1.348 . S
C626 C630 1.356 1_455 S
C626 O677 1.325 . S
C627 N628 1.279 . S
C627 C630 1.358 . S
C627 H684 0.930 . S
N628 C627 1.279 . S
N628 C631 1.314 . S
C629 C626 1.348 . S
C629 C631 1.353 1_455 S
C629 H685 0.929 . S
C630 C626 1.356 1_655 S
C630 C627 1.358 . S
C630 H686 0.930 1_655 S
C631 N628 1.314 . S
C631 C629 1.353 1_655 S
C631 H687 0.930 . S
C632 N633 1.314 . S
C632 C637 1.353 . S
C632 H638 0.930 . S
N633 Li616 1.990 . S
N633 C632 1.314 . S
N633 C635 1.279 . S
C634 C635 1.358 . S
C634 C636 1.356 . S
C634 H688 0.930 . S
C635 N633 1.279 . S
C635 C634 1.358 . S
C635 H639 0.930 . S
C636 C634 1.356 . S
C636 C637 1.348 . S
C637 C632 1.353 . S
C637 C636 1.348 . S
C637 H689 0.929 1_565 S
H638 C632 0.930 . S
H639 C635 0.930 . S
C640 N641 1.314 . S
C640 C642 1.353 . S
C640 H646 0.930 . S
N641 Li617 1.990 . S
N641 C640 1.314 . S
N641 C644 1.279 . S
C642 C640 1.353 . S
C642 C645 1.348 . S
C642 H690 0.929 . S
C643 C644 1.358 . S
C643 C645 1.356 . S
C643 H691 0.930 . S
C644 N641 1.279 . S
C644 C643 1.358 . S
C644 H647 0.930 . S
C645 C642 1.348 . S
C645 C643 1.356 . S
H646 C640 0.930 . S
H647 C644 0.930 . S
C648 C650 1.348 1_565 S
C648 C651 1.356 1_565 S
C648 O678 1.325 . S
N649 C652 1.314 . S
N649 C653 1.279 . S
C650 C648 1.348 1_545 S
C650 C652 1.353 . S
C650 H692 0.944 . S
C651 C648 1.356 1_545 S
C651 C653 1.358 . S
C651 H693 0.930 . S
C652 N649 1.314 . S
C652 C650 1.353 . S
C652 H694 0.930 . S
C653 N649 1.279 . S
C653 C651 1.358 . S
C653 H695 0.930 . S
C654 C655 1.348 . S
C654 C656 1.356 . S
C654 O679 1.325 . S
C655 C654 1.348 . S
C655 C657 1.353 . S
C655 H696 0.929 . S
C656 C654 1.356 . S
C656 C658 1.358 . S
C656 H697 0.930 . S
C657 C655 1.353 . S
C657 N659 1.314 . S
C657 H698 0.930 . S
C658 C656 1.358 . S
C658 N659 1.279 . S
C658 H699 0.930 . S
N659 C657 1.314 . S
N659 C658 1.279 . S
C660 C662 1.353 . S
C660 N663 1.314 . S
C660 H666 0.930 . S
C661 N663 1.279 . S
C661 C664 1.358 1_565 S
C661 H667 0.930 1_565 S
C662 C660 1.353 . S
C662 C665 1.348 . S
C662 H700 0.929 . S
N663 Li618 1.990 . S
N663 C660 1.314 . S
N663 C661 1.279 . S
C664 C661 1.358 1_545 S
C664 C665 1.356 1_545 S
C664 H701 0.930 . S
C665 C662 1.348 . S
C665 C664 1.356 1_565 S
H666 C660 0.930 . S
H667 C661 0.930 1_545 S
C668 N669 1.314 1_655 S
C668 C670 1.353 . S
C668 H674 0.930 . S
N669 Li619 1.990 . S
N669 C668 1.314 1_455 S
N669 C672 1.279 . S
C670 C668 1.353 . S
C670 C673 1.348 . S
C670 H702 0.929 . S
C671 C672 1.358 1_655 S
C671 C673 1.356 . S
C671 H703 0.930 . S
C672 N669 1.279 . S
C672 C671 1.358 1_455 S
C672 H675 0.930 . S
C673 C670 1.348 . S
C673 C671 1.356 . S
H674 C668 0.930 . S
H675 C672 0.930 . S
O676 Li616 1.956 . S
O676 Li617 1.970 . S
O676 Li618 1.961 . S
O676 C620 1.325 . S
O677 Li616 1.970 . S
O677 Li617 1.956 . S
O677 Li619 1.961 . S
O677 C626 1.325 . S
O678 Li616 1.961 . S
O678 Li618 1.956 . S
O678 Li619 1.970 . S
O678 C648 1.325 . S
O679 Li617 1.961 . S
O679 Li618 1.970 . S
O679 Li619 1.956 . S
O679 C654 1.325 . S
H680 C622 0.929 . S
H681 C623 0.930 . S
H682 C624 0.930 . S
H683 C625 0.930 . S
H684 C627 0.930 . S
H685 C629 0.929 . S
H686 C630 0.930 1_455 S
H687 C631 0.930 . S
H688 C634 0.930 . S
H689 C637 0.929 1_545 S
H690 C642 0.929 . S
H691 C643 0.930 . S
H692 C650 0.944 . S
H693 C651 0.930 . S
H694 C652 0.930 . S
H695 C653 0.930 . S
H696 C655 0.929 . S
H697 C656 0.930 . S
H698 C657 0.930 . S
H699 C658 0.930 . S
H700 C662 0.929 . S
H701 C664 0.930 . S
H702 C670 0.929 . S
H703 C671 0.930 . S
C704 C705 1.363 . S
C704 C710 1.379 . S
C704 N712 1.356 . S
C705 C704 1.363 . S
C705 C711 1.363 . S
C706 C707 1.363 . S
C706 C711 1.379 . S
C706 N713 1.356 . S
C707 C706 1.363 . S
C707 C710 1.363 . S
N708 C710 1.356 . S
N708 H720 0.984 . S
N708 H721 0.985 . S
N709 C711 1.356 . S
N709 H714 0.984 . S
N709 H715 0.985 . S
C710 C704 1.379 . S
C710 C707 1.363 . S
C710 N708 1.356 . S
C711 C705 1.363 . S
C711 C706 1.379 . S
C711 N709 1.356 . S
N712 C704 1.356 . S
N712 H718 0.984 . S
N712 H719 0.984 . S
N713 C706 1.356 . S
N713 H716 0.984 . S
N713 H717 0.985 . S
H714 N709 0.984 . S
H715 N709 0.985 . S
H716 N713 0.984 . S
H717 N713 0.985 . S
H718 N712 0.984 . S
H719 N712 0.984 . S
H720 N708 0.984 . S
H721 N708 0.985 . S
C722 C723 1.363 . S
C722 C728 1.379 . S
C722 N730 1.356 . S
C723 C722 1.363 . S
C723 C729 1.363 . S
C724 C725 1.363 1_565 S
C724 C729 1.379 1_565 S
C724 N731 1.356 . S
C725 C724 1.363 1_545 S
C725 C728 1.363 . S
N726 C728 1.356 . S
N726 H738 0.984 . S
N726 H739 0.985 . S
N727 C729 1.356 1_565 S
N727 H732 0.984 1_565 S
N727 H733 0.985 . S
C728 C722 1.379 . S
C728 C725 1.363 . S
C728 N726 1.356 . S
C729 C723 1.363 . S
C729 C724 1.379 1_545 S
C729 N727 1.356 1_545 S
N730 C722 1.356 . S
N730 H736 0.984 . S
N730 H737 0.984 . S
N731 C724 1.356 . S
N731 H734 0.984 . S
N731 H735 0.985 . S
H732 N727 0.984 1_545 S
H733 N727 0.985 . S
H734 N731 0.984 . S
H735 N731 0.985 . S
H736 N730 0.984 . S
H737 N730 0.984 . S
H738 N726 0.984 . S
H739 N726 0.985 . S
C740 C741 1.363 . S
C740 C746 1.379 . S
C740 N748 1.356 . S
C741 C740 1.363 . S
C741 C747 1.363 . S
C742 C743 1.363 . S
C742 C747 1.379 . S
C742 N749 1.356 . S
C743 C742 1.363 . S
C743 C746 1.363 . S
N744 C746 1.356 . S
N744 H756 0.984 . S
N744 H757 0.985 . S
N745 C747 1.356 . S
N745 H750 0.984 . S
N745 H751 0.985 . S
C746 C740 1.379 . S
C746 C743 1.363 . S
C746 N744 1.356 . S
C747 C741 1.363 . S
C747 C742 1.379 . S
C747 N745 1.356 . S
N748 C740 1.356 . S
N748 H754 0.984 . S
N748 H755 0.984 . S
N749 C742 1.356 . S
N749 H752 0.984 . S
N749 H753 0.985 . S
H750 N745 0.984 . S
H751 N745 0.985 . S
H752 N749 0.984 . S
H753 N749 0.985 . S
H754 N748 0.984 . S
H755 N748 0.984 . S
H756 N744 0.984 . S
H757 N744 0.985 . S
C758 C759 1.363 . S
C758 C764 1.379 . S
C758 N766 1.356 1_565 S
C759 C758 1.363 . S
C759 C765 1.363 . S
C760 C761 1.363 . S
C760 C765 1.379 . S
C760 N767 1.356 . S
C761 C760 1.363 . S
C761 C764 1.363 . S
N762 C764 1.356 . S
N762 H774 0.984 . S
N762 H775 0.985 . S
N763 C765 1.356 . S
N763 H768 0.984 . S
N763 H769 0.985 . S
C764 C758 1.379 . S
C764 C761 1.363 . S
C764 N762 1.356 . S
C765 C759 1.363 . S
C765 C760 1.379 . S
C765 N763 1.356 . S
N766 C758 1.356 1_545 S
N766 H772 0.984 . S
N766 H773 0.984 . S
N767 C760 1.356 . S
N767 H770 0.984 . S
N767 H771 0.985 . S
H768 N763 0.984 . S
H769 N763 0.985 . S
H770 N767 0.984 . S
H771 N767 0.985 . S
H772 N766 0.984 . S
H773 N766 0.984 . S
H774 N762 0.984 . S
H775 N762 0.985 . S
C776 C777 1.363 . S
C776 C782 1.379 . S
C776 N784 1.356 . S
C777 C776 1.363 . S
C777 C783 1.363 . S
C778 C779 1.363 . S
C778 C783 1.379 . S
C778 N785 1.356 . S
C779 C778 1.363 . S
C779 C782 1.363 . S
N780 C782 1.356 . S
N780 H792 0.984 . S
N780 H793 0.985 . S
N781 C783 1.356 . S
N781 H786 0.984 . S
N781 H787 0.985 . S
C782 C776 1.379 . S
C782 C779 1.363 . S
C782 N780 1.356 . S
C783 C777 1.363 . S
C783 C778 1.379 . S
C783 N781 1.356 . S
N784 C776 1.356 . S
N784 H790 0.984 . S
N784 H791 0.984 . S
N785 C778 1.356 . S
N785 H788 0.984 . S
N785 H789 0.985 . S
H786 N781 0.984 . S
H787 N781 0.985 . S
H788 N785 0.984 . S
H789 N785 0.985 . S
H790 N784 0.984 . S
H791 N784 0.984 . S
H792 N780 0.984 . S
H793 N780 0.985 . S
C794 C795 1.363 . S
C794 C800 1.379 . S
C794 N802 1.356 . S
C795 C794 1.363 . S
C795 C801 1.363 1_565 S
C796 C797 1.363 . S
C796 C801 1.379 1_565 S
C796 N803 1.356 1_565 S
C797 C796 1.363 . S
C797 C800 1.363 . S
N798 C800 1.356 . S
N798 H810 0.984 . S
N798 H811 0.985 . S
N799 C801 1.356 . S
N799 H804 0.984 . S
N799 H805 0.985 . S
C800 C794 1.379 . S
C800 C797 1.363 . S
C800 N798 1.356 . S
C801 C795 1.363 1_545 S
C801 C796 1.379 1_545 S
C801 N799 1.356 . S
N802 C794 1.356 . S
N802 H808 0.984 . S
N802 H809 0.984 . S
N803 C796 1.356 1_545 S
N803 H806 0.984 1_545 S
N803 H807 0.985 . S
H804 N799 0.984 . S
H805 N799 0.985 . S
H806 N803 0.984 1_565 S
H807 N803 0.985 . S
H808 N802 0.984 . S
H809 N802 0.984 . S
H810 N798 0.984 . S
H811 N798 0.985 . S
C812 C813 1.363 . S
C812 C818 1.379 . S
C812 N820 1.356 . S
C813 C812 1.363 . S
C813 C819 1.363 . S
C814 C815 1.363 . S
C814 C819 1.379 . S
C814 N821 1.356 . S
C815 C814 1.363 . S
C815 C818 1.363 . S
N816 C818 1.356 . S
N816 H828 0.984 . S
N816 H829 0.985 . S
N817 C819 1.356 . S
N817 H822 0.984 . S
N817 H823 0.985 . S
C818 C812 1.379 . S
C818 C815 1.363 . S
C818 N816 1.356 . S
C819 C813 1.363 . S
C819 C814 1.379 . S
C819 N817 1.356 . S
N820 C812 1.356 . S
N820 H826 0.984 . S
N820 H827 0.984 . S
N821 C814 1.356 . S
N821 H824 0.984 . S
N821 H825 0.985 . S
H822 N817 0.984 . S
H823 N817 0.985 . S
H824 N821 0.984 . S
H825 N821 0.985 . S
H826 N820 0.984 . S
H827 N820 0.984 . S
H828 N816 0.984 . S
H829 N816 0.985 . S
C830 C831 1.363 . S
C830 C836 1.379 . S
C830 N838 1.356 . S
C831 C830 1.363 . S
C831 C837 1.363 . S
C832 C833 1.363 . S
C832 C837 1.379 . S
C832 N839 1.356 . S
C833 C832 1.363 . S
C833 C836 1.363 . S
N834 C836 1.356 . S
N834 H846 0.984 . S
N834 H847 0.985 . S
N835 C837 1.356 . S
N835 H840 0.984 . S
N835 H841 0.985 . S
C836 C830 1.379 . S
C836 C833 1.363 . S
C836 N834 1.356 . S
C837 C831 1.363 . S
C837 C832 1.379 . S
C837 N835 1.356 . S
N838 C830 1.356 . S
N838 H844 0.985 . S
N838 H845 0.984 1_545 S
N839 C832 1.356 . S
N839 H842 0.984 . S
N839 H843 0.985 . S
H840 N835 0.984 . S
H841 N835 0.985 . S
H842 N839 0.984 . S
H843 N839 0.985 . S
H844 N838 0.985 . S
H845 N838 0.984 1_565 S
H846 N834 0.984 . S
H847 N834 0.985 . S
C848 C849 1.363 . S
C848 C854 1.379 1_455 S
C848 N856 1.356 . S
C849 C848 1.363 . S
C849 C855 1.363 . S
C850 C851 1.363 . S
C850 C855 1.379 1_655 S
C850 N857 1.356 . S
C851 C850 1.363 . S
C851 C854 1.363 . S
N852 C854 1.356 . S
N852 H864 0.984 . S
N852 H865 0.985 . S
N853 C855 1.356 . S
N853 H858 0.984 . S
N853 H859 0.985 . S
C854 C848 1.379 1_655 S
C854 C851 1.363 . S
C854 N852 1.356 . S
C855 C849 1.363 . S
C855 C850 1.379 1_455 S
C855 N853 1.356 . S
N856 C848 1.356 . S
N856 H862 0.984 . S
N856 H863 0.984 . S
N857 C850 1.356 . S
N857 H860 0.984 . S
N857 H861 0.985 . S
H858 N853 0.984 . S
H859 N853 0.985 . S
H860 N857 0.984 . S
H861 N857 0.985 . S
H862 N856 0.984 . S
H863 N856 0.984 . S
H864 N852 0.984 . S
H865 N852 0.985 . S
C866 C867 1.363 1_545 S
C866 C872 1.379 . S
C866 N874 1.356 . S
C867 C866 1.363 1_565 S
C867 C873 1.363 . S
C868 C869 1.363 1_565 S
C868 C873 1.379 . S
C868 N875 1.356 . S
C869 C868 1.363 1_545 S
C869 C872 1.363 . S
N870 C872 1.356 . S
N870 H882 0.984 . S
N870 H883 0.985 . S
N871 C873 1.356 . S
N871 H876 0.984 . S
N871 H877 0.985 . S
C872 C866 1.379 . S
C872 C869 1.363 . S
C872 N870 1.356 . S
C873 C867 1.363 . S
C873 C868 1.379 . S
C873 N871 1.356 . S
N874 C866 1.356 . S
N874 H880 0.984 . S
N874 H881 0.983 1_545 S
N875 C868 1.356 . S
N875 H878 0.985 1_565 S
N875 H879 0.985 . S
H876 N871 0.984 . S
H877 N871 0.985 . S
H878 N875 0.985 1_545 S
H879 N875 0.985 . S
H880 N874 0.984 . S
H881 N874 0.983 1_565 S
H882 N870 0.984 . S
H883 N870 0.985 . S
C884 C885 1.363 1_556 S
C884 C890 1.379 . S
C884 N892 1.356 . S
C885 C884 1.363 1_554 S
C885 C891 1.363 . S
C886 C887 1.363 1_554 S
C886 C891 1.379 . S
C886 N893 1.356 . S
C887 C886 1.363 1_556 S
C887 C890 1.363 . S
N888 C890 1.356 . S
N888 H900 0.984 . S
N888 H901 0.985 . S
N889 C891 1.356 . S
N889 H894 0.984 . S
N889 H895 0.985 . S
C890 C884 1.379 . S
C890 C887 1.363 . S
C890 N888 1.356 . S
C891 C885 1.363 . S
C891 C886 1.379 . S
C891 N889 1.356 . S
N892 C884 1.356 . S
N892 H898 0.984 . S
N892 H899 0.984 1_556 S
N893 C886 1.356 . S
N893 H896 0.984 1_554 S
N893 H897 0.985 . S
H894 N889 0.984 . S
H895 N889 0.985 . S
H896 N893 0.984 1_556 S
H897 N893 0.985 . S
H898 N892 0.984 . S
H899 N892 0.984 1_554 S
H900 N888 0.984 . S
H901 N888 0.985 . S
C902 C903 1.363 1_545 S
C902 C908 1.379 1_456 S
C902 N910 1.356 . S
C903 C902 1.363 1_565 S
C903 C909 1.363 . S
C904 C905 1.363 1_565 S
C904 C909 1.379 1_654 S
C904 N911 1.356 . S
C905 C904 1.363 1_545 S
C905 C908 1.363 . S
N906 C908 1.356 . S
N906 H918 0.984 . S
N906 H919 0.985 . S
N907 C909 1.356 . S
N907 H912 0.984 . S
N907 H913 0.985 . S
C908 C902 1.379 1_654 S
C908 C905 1.363 . S
C908 N906 1.356 . S
C909 C903 1.363 . S
C909 C904 1.379 1_456 S
C909 N907 1.356 . S
N910 C902 1.356 . S
N910 H916 0.984 . S
N910 H917 0.984 . S
N911 C904 1.356 . S
N911 H914 0.984 . S
N911 H915 0.985 . S
H912 N907 0.984 . S
H913 N907 0.985 . S
H914 N911 0.984 . S
H915 N911 0.985 . S
H916 N910 0.984 . S
H917 N910 0.984 . S
H918 N906 0.984 . S
H919 N906 0.985 . S
C920 C921 1.363 . S
C920 C926 1.379 . S
C920 N928 1.356 . S
C921 C920 1.363 . S
C921 C927 1.363 . S
C922 C923 1.363 . S
C922 C927 1.379 . S
C922 N929 1.356 . S
C923 C922 1.363 . S
C923 C926 1.363 . S
N924 C926 1.356 . S
N924 H936 0.984 . S
N924 H937 0.985 . S
N925 C927 1.356 . S
N925 H930 0.984 . S
N925 H931 0.985 . S
C926 C920 1.379 . S
C926 C923 1.363 . S
C926 N924 1.356 . S
C927 C921 1.363 . S
C927 C922 1.379 . S
C927 N925 1.356 . S
N928 C920 1.356 . S
N928 H934 0.984 . S
N928 H935 0.984 . S
N929 C922 1.356 . S
N929 H932 0.984 . S
N929 H933 0.985 . S
H930 N925 0.984 . S
H931 N925 0.985 . S
H932 N929 0.984 . S
H933 N929 0.985 . S
H934 N928 0.984 . S
H935 N928 0.984 . S
H936 N924 0.984 . S
H937 N924 0.985 . S
C938 C939 1.363 . S
C938 C944 1.379 . S
C938 N946 1.356 . S
C939 C938 1.363 . S
C939 C945 1.363 . S
C940 C941 1.363 . S
C940 C945 1.379 . S
C940 N947 1.356 . S
C941 C940 1.363 . S
C941 C944 1.363 . S
N942 C944 1.356 . S
N942 H954 0.984 . S
N942 H955 0.985 . S
N943 C945 1.356 . S
N943 H948 0.984 . S
N943 H949 0.985 . S
C944 C938 1.379 . S
C944 C941 1.363 . S
C944 N942 1.356 . S
C945 C939 1.363 . S
C945 C940 1.379 . S
C945 N943 1.356 . S
N946 C938 1.356 . S
N946 H952 0.984 . S
N946 H953 0.984 . S
N947 C940 1.356 . S
N947 H950 0.984 . S
N947 H951 0.985 . S
H948 N943 0.984 . S
H949 N943 0.985 . S
H950 N947 0.984 . S
H951 N947 0.985 . S
H952 N946 0.984 . S
H953 N946 0.984 . S
H954 N942 0.984 . S
H955 N942 0.985 . S
C956 C957 1.363 . S
C956 C962 1.379 . S
C956 N964 1.356 . S
C957 C956 1.363 . S
C957 C963 1.363 . S
C958 C959 1.363 . S
C958 C963 1.379 . S
C958 N965 1.356 . S
C959 C958 1.363 . S
C959 C962 1.363 . S
N960 C962 1.356 . S
N960 H972 0.984 . S
N960 H973 0.985 . S
N961 C963 1.356 . S
N961 H966 0.984 . S
N961 H967 0.985 . S
C962 C956 1.379 . S
C962 C959 1.363 . S
C962 N960 1.356 . S
C963 C957 1.363 . S
C963 C958 1.379 . S
C963 N961 1.356 . S
N964 C956 1.356 . S
N964 H970 0.984 . S
N964 H971 0.984 . S
N965 C958 1.356 . S
N965 H968 0.984 . S
N965 H969 0.985 . S
H966 N961 0.984 . S
H967 N961 0.985 . S
H968 N965 0.984 . S
H969 N965 0.985 . S
H970 N964 0.984 . S
H971 N964 0.984 . S
H972 N960 0.984 . S
H973 N960 0.985 . S
C974 C975 1.363 . S
C974 C980 1.379 . S
C974 N982 1.356 . S
C975 C974 1.363 . S
C975 C981 1.363 . S
C976 C977 1.363 . S
C976 C981 1.379 . S
C976 N983 1.356 . S
C977 C976 1.363 . S
C977 C980 1.363 . S
N978 C980 1.356 . S
N978 H990 0.984 . S
N978 H991 0.985 . S
N979 C981 1.356 . S
N979 H984 0.984 . S
N979 H985 0.985 . S
C980 C974 1.379 . S
C980 C977 1.363 . S
C980 N978 1.356 . S
C981 C975 1.363 . S
C981 C976 1.379 . S
C981 N979 1.356 . S
N982 C974 1.356 . S
N982 H988 0.984 . S
N982 H989 0.984 . S
N983 C976 1.356 . S
N983 H986 0.984 . S
N983 H987 0.985 . S
H984 N979 0.984 . S
H985 N979 0.985 . S
H986 N983 0.984 . S
H987 N983 0.985 . S
H988 N982 0.984 . S
H989 N982 0.984 . S
H990 N978 0.984 . S
H991 N978 0.985 . S
C705 C57 1.138 . S
C707 C233 1.146 . S
C723 C321 1.146 . S
C725 C108 1.138 1_545 S
C741 C196 1.138 . S
C743 C20 1.146 . S
C759 C284 1.138 1_565 S
C761 C145 1.146 . S
C777 C585 1.138 . S
C779 C372 1.131 . S
C795 C469 1.132 1_565 S
C797 C673 1.139 . S
C813 C577 1.131 . S
C815 C381 1.138 . S
C831 C665 1.132 1_545 S
C833 C460 1.139 . S
C849 C29 1.797 . S
C851 C401 1.803 . S
C867 C137 1.797 . S
C869 C497 1.803 . S
C885 C225 1.797 . S
C887 C548 1.803 . S
C903 C636 1.803 . S
C905 C313 1.797 . S
C921 C49 1.790 . S
C923 C117 1.790 . S
C939 C293 1.790 . S
C941 C205 1.790 . S
C957 C489 1.801 . S
C959 C409 1.801 . S
C975 C557 1.801 . S
C977 C645 1.801 . S
