# Generated by pormake.
# Topology uou, (4)-cn, num edge types: 1
# Building blocks:
#     Node 0, Type 0, BuildingBlock: NAHDIM_clean_sbu_0, # of connection points: 4
#     Node 1, Type 0, BuildingBlock: NAHDIM_clean_sbu_0, # of connection points: 4
#     Node 2, Type 0, BuildingBlock: NAHDIM_clean_sbu_0, # of connection points: 4
#     Node 3, Type 0, BuildingBlock: NAHDIM_clean_sbu_0, # of connection points: 4
#     Node 4, Type 0, BuildingBlock: NAHDIM_clean_sbu_0, # of connection points: 4
#     Node 5, Type 0, BuildingBlock: NAHDIM_clean_sbu_0, # of connection points: 4
#     Node 6, Type 0, BuildingBlock: NAHDIM_clean_sbu_0, # of connection points: 4
#     Node 7, Type 0, BuildingBlock: NAHDIM_clean_sbu_0, # of connection points: 4
#     Node 8, Type 0, BuildingBlock: NAHDIM_clean_sbu_0, # of connection points: 4
#     Node 9, Type 0, BuildingBlock: NAHDIM_clean_sbu_0, # of connection points: 4
#     Node 10, Type 0, BuildingBlock: NAHDIM_clean_sbu_0, # of connection points: 4
#     Node 11, Type 0, BuildingBlock: NAHDIM_clean_sbu_0, # of connection points: 4
#     Node 12, Type 0, BuildingBlock: NAHDIM_clean_sbu_0, # of connection points: 4
#     Node 13, Type 0, BuildingBlock: NAHDIM_clean_sbu_0, # of connection points: 4
#     Node 14, Type 0, BuildingBlock: NAHDIM_clean_sbu_0, # of connection points: 4
#     Node 15, Type 0, BuildingBlock: NAHDIM_clean_sbu_0, # of connection points: 4
#     Edge 16, Type (0, 0), BuildingBlock: XUDNAN_clean_linker_2, # of connection points: 2
#     Edge 17, Type (0, 0), BuildingBlock: XUDNAN_clean_linker_2, # of connection points: 2
#     Edge 18, Type (0, 0), BuildingBlock: XUDNAN_clean_linker_2, # of connection points: 2
#     Edge 19, Type (0, 0), BuildingBlock: XUDNAN_clean_linker_2, # of connection points: 2
#     Edge 20, Type (0, 0), BuildingBlock: XUDNAN_clean_linker_2, # of connection points: 2
#     Edge 21, Type (0, 0), BuildingBlock: XUDNAN_clean_linker_2, # of connection points: 2
#     Edge 22, Type (0, 0), BuildingBlock: XUDNAN_clean_linker_2, # of connection points: 2
#     Edge 23, Type (0, 0), BuildingBlock: XUDNAN_clean_linker_2, # of connection points: 2
#     Edge 24, Type (0, 0), BuildingBlock: XUDNAN_clean_linker_2, # of connection points: 2
#     Edge 25, Type (0, 0), BuildingBlock: XUDNAN_clean_linker_2, # of connection points: 2
#     Edge 26, Type (0, 0), BuildingBlock: XUDNAN_clean_linker_2, # of connection points: 2
#     Edge 27, Type (0, 0), BuildingBlock: XUDNAN_clean_linker_2, # of connection points: 2
#     Edge 28, Type (0, 0), BuildingBlock: XUDNAN_clean_linker_2, # of connection points: 2
#     Edge 29, Type (0, 0), BuildingBlock: XUDNAN_clean_linker_2, # of connection points: 2
#     Edge 30, Type (0, 0), BuildingBlock: XUDNAN_clean_linker_2, # of connection points: 2
#     Edge 31, Type (0, 0), BuildingBlock: XUDNAN_clean_linker_2, # of connection points: 2
#     Edge 32, Type (0, 0), BuildingBlock: XUDNAN_clean_linker_2, # of connection points: 2
#     Edge 33, Type (0, 0), BuildingBlock: XUDNAN_clean_linker_2, # of connection points: 2
#     Edge 34, Type (0, 0), BuildingBlock: XUDNAN_clean_linker_2, # of connection points: 2
#     Edge 35, Type (0, 0), BuildingBlock: XUDNAN_clean_linker_2, # of connection points: 2
#     Edge 36, Type (0, 0), BuildingBlock: XUDNAN_clean_linker_2, # of connection points: 2
#     Edge 37, Type (0, 0), BuildingBlock: XUDNAN_clean_linker_2, # of connection points: 2
#     Edge 38, Type (0, 0), BuildingBlock: XUDNAN_clean_linker_2, # of connection points: 2
#     Edge 39, Type (0, 0), BuildingBlock: XUDNAN_clean_linker_2, # of connection points: 2
#     Edge 40, Type (0, 0), BuildingBlock: XUDNAN_clean_linker_2, # of connection points: 2
#     Edge 41, Type (0, 0), BuildingBlock: XUDNAN_clean_linker_2, # of connection points: 2
#     Edge 42, Type (0, 0), BuildingBlock: XUDNAN_clean_linker_2, # of connection points: 2
#     Edge 43, Type (0, 0), BuildingBlock: XUDNAN_clean_linker_2, # of connection points: 2
#     Edge 44, Type (0, 0), BuildingBlock: XUDNAN_clean_linker_2, # of connection points: 2
#     Edge 45, Type (0, 0), BuildingBlock: XUDNAN_clean_linker_2, # of connection points: 2
#     Edge 46, Type (0, 0), BuildingBlock: XUDNAN_clean_linker_2, # of connection points: 2
#     Edge 47, Type (0, 0), BuildingBlock: XUDNAN_clean_linker_2, # of connection points: 2
# Relax obj value: 0.108
# Max RMSD: 0.148
# Mean RMSD: 0.148
data_MOF--net-uou--node1-NAHDIM_clean_sbu_0--edge1-XUDNAN_clean_linker_2
_symmetry_space_group_name_H-M    P1
_symmetry_Int_Tables_number       1
_symmetry_cell_setting            triclinic
loop_
_symmetry_equiv_pos_as_xyz
'x, y, z'
_cell_length_a     40.181142
_cell_length_b     39.554134
_cell_length_c     50.718771
_cell_angle_alpha  90.110089
_cell_angle_beta   89.90538
_cell_angle_gamma 90.022839
loop_
_atom_site_label
_atom_site_type_symbol
_atom_site_fract_x
_atom_site_fract_y
_atom_site_fract_z
_atom_type_partial_charge
C0 C 0.14966 0.09017 0.13189 0.0
O1 O 0.13326 0.09597 0.15387 0.0
O2 O 0.07035 0.06627 0.14645 0.0
Zn3 Zn 0.08354 0.08488 0.11116 0.0
O4 O 0.0699 0.05201 0.08301 0.0
C5 C 0.02824 0.1276 0.10762 0.0
O6 O 0.01439 0.09779 0.11087 0.0
O7 O 0.13355 0.08757 0.11043 0.0
C8 C 0.06022 0.06073 0.06021 0.0
O9 O 0.05841 0.09299 0.05427 0.0
C10 C 0.05894 0.03672 0.15022 0.0
O11 O 0.05443 0.0164 0.13003 0.0
O12 O 0.05984 0.12948 0.10652 0.0
C13 C 0.36764 0.98388 0.10613 0.0
O14 O 0.3759 0.98441 0.08107 0.0
O15 O 0.46428 0.9745 0.14244 0.0
Zn16 Zn 0.43487 0.9588 0.11309 0.0
O17 O 0.44777 0.98088 0.0791 0.0
C18 C 0.45023 0.89015 0.12803 0.0
O19 O 0.45195 0.90353 0.15172 0.0
O20 O 0.38814 0.97219 0.12286 0.0
C21 C 0.47793 0.98695 0.07336 0.0
O22 O 0.50131 0.97964 0.0905 0.0
C23 C 0.46345 0.00438 0.15163 0.0
O24 O 0.44405 0.02694 0.14049 0.0
O25 O 0.44143 0.90859 0.10876 0.0
C26 C 0.64348 0.96731 0.36888 0.0
O27 O 0.62846 0.99654 0.37202 0.0
O28 O 0.56119 0.96408 0.33416 0.0
Zn29 Zn 0.5763 0.94526 0.36877 0.0
O30 O 0.56432 0.97679 0.39838 0.0
C31 C 0.54237 0.88911 0.39521 0.0
O32 O 0.54642 0.90737 0.41663 0.0
O33 O 0.62602 0.94057 0.36728 0.0
C34 C 0.53436 0.98284 0.40483 0.0
O35 O 0.51011 0.96832 0.39165 0.0
C36 C 0.55595 0.9951 0.32921 0.0
O37 O 0.5601 0.01777 0.34788 0.0
O38 O 0.55391 0.89981 0.3734 0.0
C39 C 0.88569 0.00072 0.36426 0.0
O40 O 0.90941 0.97803 0.36196 0.0
O41 O 0.96525 0.01791 0.34165 0.0
Zn42 Zn 0.9433 0.03553 0.37445 0.0
O43 O 0.95439 0.00552 0.40481 0.0
C44 C 0.96236 0.10458 0.36325 0.0
O45 O 0.95183 0.0967 0.33951 0.0
O46 O 0.89377 0.0311 0.36953 0.0
C47 C 0.98068 0.00694 0.41858 0.0
O48 O 0.00364 0.02946 0.41292 0.0
C49 C 0.99456 0.02612 0.3348 0.0
O50 O 0.0122 0.04609 0.35007 0.0
O51 O 0.95941 0.08303 0.38168 0.0
C52 C 0.88182 0.97247 0.88049 0.0
O53 O 0.90906 0.98819 0.8879 0.0
O54 O 0.95255 0.9362 0.83569 0.0
Zn55 Zn 0.93046 0.92272 0.86961 0.0
O56 O 0.95744 0.94045 0.90001 0.0
C57 C 0.93175 0.85511 0.84901 0.0
O58 O 0.92704 0.87122 0.8267 0.0
O59 O 0.88409 0.94243 0.87164 0.0
C60 C 0.97465 0.92174 0.91508 0.0
O61 O 0.97587 0.88903 0.91067 0.0
C62 C 0.94433 0.96028 0.82049 0.0
O63 O 0.91994 0.98061 0.82728 0.0
O64 O 0.93128 0.87174 0.87049 0.0
C65 C 0.65422 0.06004 0.8621 0.0
O66 O 0.63407 0.03589 0.85422 0.0
O67 O 0.58116 0.08062 0.82371 0.0
Zn68 Zn 0.59421 0.09888 0.85923 0.0
O69 O 0.56726 0.07632 0.88749 0.0
C70 C 0.55788 0.16071 0.86908 0.0
O71 O 0.53527 0.13959 0.87795 0.0
O72 O 0.64277 0.0897 0.8654 0.0
C73 C 0.57851 0.07446 0.91083 0.0
O74 O 0.60827 0.08651 0.91597 0.0
C75 C 0.55104 0.08253 0.81633 0.0
O76 O 0.52892 0.09591 0.83234 0.0
O77 O 0.58531 0.14913 0.86031 0.0
C78 C 0.361 0.02921 0.61095 0.0
O79 O 0.39119 0.01645 0.6106 0.0
O80 O 0.42843 0.07397 0.64 0.0
Zn81 Zn 0.40155 0.08586 0.60785 0.0
O82 O 0.42548 0.07091 0.57512 0.0
C83 C 0.40631 0.15521 0.62535 0.0
O84 O 0.41194 0.14078 0.64822 0.0
O85 O 0.35767 0.06117 0.60981 0.0
C86 C 0.45252 0.08529 0.56856 0.0
O87 O 0.46476 0.10914 0.58379 0.0
C88 C 0.45423 0.05544 0.64072 0.0
O89 O 0.46515 0.04114 0.61898 0.0
O90 O 0.39826 0.13682 0.60576 0.0
C91 C 0.14444 0.91359 0.61712 0.0
O92 O 0.12057 0.93585 0.6138 0.0
O93 O 0.06536 0.89094 0.65049 0.0
Zn94 Zn 0.08817 0.87016 0.61904 0.0
O95 O 0.06869 0.88897 0.5857 0.0
C96 C 0.05601 0.80598 0.62941 0.0
O97 O 0.03423 0.8254 0.64146 0.0
O98 O 0.13679 0.8826 0.61997 0.0
C99 C 0.03942 0.88122 0.57844 0.0
O100 O 0.02167 0.86055 0.59301 0.0
C101 C 0.04987 0.91893 0.64938 0.0
O102 O 0.04839 0.93528 0.6269 0.0
O103 O 0.08169 0.81937 0.61904 0.0
C104 C 0.62063 0.57122 0.14245 0.0
O105 O 0.60592 0.58049 0.16446 0.0
O106 O 0.53446 0.57924 0.15332 0.0
Zn107 Zn 0.55784 0.59131 0.11967 0.0
O108 O 0.53462 0.56825 0.08968 0.0
C109 C 0.54593 0.66172 0.13237 0.0
O110 O 0.54419 0.65017 0.15661 0.0
O111 O 0.6054 0.57503 0.12071 0.0
C112 C 0.50778 0.58085 0.08087 0.0
O113 O 0.49551 0.60808 0.09213 0.0
C114 C 0.53289 0.54932 0.16227 0.0
O115 O 0.54675 0.52452 0.14894 0.0
O116 O 0.55368 0.64157 0.11379 0.0
C117 C 0.82792 0.44514 0.11186 0.0
O118 O 0.83789 0.44951 0.08742 0.0
O119 O 0.92185 0.42639 0.15034 0.0
Zn120 Zn 0.89325 0.4141 0.11948 0.0
O121 O 0.91102 0.43752 0.08745 0.0
C122 C 0.92751 0.35379 0.11117 0.0
O123 O 0.95148 0.37641 0.11093 0.0
O124 O 0.84664 0.42953 0.12793 0.0
C125 C 0.92054 0.4681 0.08865 0.0
O126 O 0.91756 0.48469 0.111 0.0
C127 C 0.91185 0.4184 0.17326 0.0
O128 O 0.88306 0.40298 0.17587 0.0
O129 O 0.89767 0.36377 0.11432 0.0
C130 C 0.12591 0.44887 0.37999 0.0
O131 O 0.0958 0.4618 0.37917 0.0
O132 O 0.06287 0.40941 0.34391 0.0
Zn133 Zn 0.08474 0.39314 0.37705 0.0
O134 O 0.05716 0.40771 0.40834 0.0
C135 C 0.07602 0.32406 0.35816 0.0
O136 O 0.06777 0.33899 0.33601 0.0
O137 O 0.12905 0.41686 0.37956 0.0
C138 C 0.04207 0.38647 0.42286 0.0
O139 O 0.04368 0.35414 0.41708 0.0
C140 C 0.03165 0.40777 0.34035 0.0
O141 O 0.01266 0.39504 0.35896 0.0
O142 O 0.0871 0.34188 0.37713 0.0
C143 C 0.34323 0.56313 0.38006 0.0
O144 O 0.36693 0.54046 0.38228 0.0
O145 O 0.41942 0.59041 0.34147 0.0
Zn146 Zn 0.40002 0.60566 0.37613 0.0
O147 O 0.42292 0.58162 0.40566 0.0
C148 C 0.42882 0.67198 0.36762 0.0
O149 O 0.44284 0.65681 0.34739 0.0
O150 O 0.35117 0.59406 0.37727 0.0
C151 C 0.45343 0.58757 0.41026 0.0
O152 O 0.46965 0.60877 0.39502 0.0
C153 C 0.43189 0.56118 0.33811 0.0
O154 O 0.4321 0.53968 0.35782 0.0
O155 O 0.40835 0.65559 0.38187 0.0
C156 C 0.34663 0.44239 0.88454 0.0
O157 O 0.35887 0.44314 0.90854 0.0
O158 O 0.43515 0.45961 0.83741 0.0
Zn159 Zn 0.41593 0.43843 0.86986 0.0
O160 O 0.42649 0.46746 0.90135 0.0
C161 C 0.46819 0.39189 0.86888 0.0
O162 O 0.48338 0.42077 0.86448 0.0
O163 O 0.36623 0.43793 0.86516 0.0
C164 C 0.44158 0.457 0.92175 0.0
O165 O 0.45213 0.42561 0.92271 0.0
C166 C 0.42364 0.4856 0.82593 0.0
O167 O 0.39774 0.50126 0.83602 0.0
O168 O 0.43689 0.39208 0.87279 0.0
C169 C 0.12151 0.53805 0.89035 0.0
O170 O 0.10746 0.53163 0.91319 0.0
O171 O 0.03181 0.53447 0.85039 0.0
Zn172 Zn 0.05606 0.56392 0.87623 0.0
O173 O 0.03928 0.55633 0.9131 0.0
C174 C 0.03486 0.63406 0.88124 0.0
O175 O 0.03342 0.62706 0.90652 0.0
O176 O 0.10488 0.5531 0.87259 0.0
C177 C 0.02528 0.52915 0.92046 0.0
O178 O 0.02227 0.50402 0.90366 0.0
C179 C 0.04263 0.50607 0.84231 0.0
O180 O 0.06984 0.49348 0.85272 0.0
O181 O 0.04547 0.61172 0.86524 0.0
C182 C 0.8633 0.48776 0.6282 0.0
O183 O 0.88684 0.46497 0.63085 0.0
O184 O 0.93746 0.50796 0.66182 0.0
Zn185 Zn 0.92159 0.524 0.62651 0.0
O186 O 0.94005 0.49413 0.59795 0.0
C187 C 0.97037 0.57335 0.61978 0.0
O188 O 0.98754 0.54507 0.61978 0.0
O189 O 0.87169 0.51864 0.62577 0.0
C190 C 0.94449 0.50452 0.57453 0.0
O191 O 0.93768 0.53611 0.56868 0.0
C192 C 0.95502 0.48176 0.66585 0.0
O193 O 0.96395 0.46269 0.64582 0.0
O194 O 0.93885 0.57175 0.62206 0.0
C195 C 0.62081 0.45684 0.61942 0.0
O196 O 0.60616 0.48644 0.61762 0.0
O197 O 0.53561 0.45742 0.64752 0.0
Zn198 Zn 0.55382 0.43671 0.61436 0.0
O199 O 0.54678 0.4671 0.58333 0.0
C200 C 0.5204 0.37393 0.62671 0.0
O201 O 0.52762 0.38282 0.65101 0.0
O202 O 0.60306 0.43023 0.61867 0.0
C203 C 0.51968 0.46681 0.5705 0.0
O204 O 0.49539 0.4469 0.57824 0.0
C205 C 0.51855 0.48439 0.64917 0.0
O206 O 0.51192 0.50169 0.62773 0.0
O207 O 0.53008 0.39252 0.60776 0.0
H208 H 0.31549 0.00607 0.07586 0.0
H209 H 0.34952 0.9988 0.15688 0.0
H210 H 0.29926 0.02911 0.17185 0.0
H211 H 0.2792 0.08921 0.08076 0.0
H212 H 0.24426 0.07917 0.05992 0.0
H213 H 0.28332 0.05757 0.05533 0.0
H214 H 0.25383 -0.00029 0.06093 0.0
H215 H 0.21466 0.02112 0.06519 0.0
H216 H 0.22908 0.99205 0.09 0.0
H217 H 0.24549 0.06031 0.17805 0.0
H218 H 0.18931 0.08518 0.17554 0.0
H219 H 0.18989 0.07133 0.09055 0.0
C220 C 0.31238 0.01082 0.09676 0.0
C221 C 0.33649 0.00012 0.11519 0.0
C222 C 0.33136 0.00665 0.14238 0.0
C223 C 0.30299 0.02406 0.15107 0.0
C224 C 0.27994 0.03464 0.13235 0.0
C225 C 0.28411 0.02796 0.1058 0.0
C226 C 0.25495 0.04093 0.08988 0.0
C227 C 0.26611 0.06835 0.07032 0.0
C228 C 0.23707 0.01171 0.07567 0.0
C229 C 0.23362 0.05572 0.11167 0.0
C230 C 0.24867 0.05218 0.13597 0.0
C231 C 0.23345 0.06327 0.15912 0.0
C232 C 0.20157 0.07749 0.15746 0.0
C233 C 0.18514 0.08024 0.13286 0.0
C234 C 0.2018 0.0698 0.10965 0.0
H235 H 0.68806 0.01929 0.37488 0.0
H236 H 0.6818 0.91184 0.35776 0.0
H237 H 0.74293 0.90943 0.3534 0.0
H238 H 0.75523 0.03821 0.32999 0.0
H239 H 0.77469 0.06826 0.35183 0.0
H240 H 0.73034 0.06179 0.35322 0.0
H241 H 0.73444 0.04803 0.40304 0.0
H242 H 0.77877 0.05457 0.40184 0.0
H243 H 0.76225 0.01513 0.41388 0.0
H244 H 0.80429 0.91847 0.3511 0.0
H245 H 0.86249 0.93774 0.35249 0.0
H246 H 0.82928 0.03943 0.37151 0.0
C247 C 0.69951 0.99525 0.37017 0.0
C248 C 0.68013 0.96574 0.36662 0.0
C249 C 0.69612 0.93476 0.36059 0.0
C250 C 0.73081 0.93315 0.358 0.0
C251 C 0.74912 0.96272 0.36155 0.0
C252 C 0.73411 0.99316 0.3676 0.0
C253 C 0.75965 0.02105 0.37094 0.0
C254 C 0.75467 0.04897 0.35025 0.0
C255 C 0.75872 0.03553 0.3991 0.0
C256 C 0.79141 0.00147 0.36591 0.0
C257 C 0.78469 0.96791 0.36041 0.0
C258 C 0.80989 0.94468 0.35536 0.0
C259 C 0.8429 0.95593 0.3562 0.0
C260 C 0.85049 0.99012 0.36212 0.0
C261 C 0.8243 0.01319 0.36684 0.0
H262 H 0.82052 0.94924 0.86419 0.0
H263 H 0.87021 0.03664 0.89805 0.0
H264 H 0.8173 0.06802 0.89764 0.0
H265 H 0.76734 0.99498 0.82083 0.0
H266 H 0.73208 0.96737 0.82527 0.0
H267 H 0.77365 0.95111 0.82901 0.0
H268 H 0.75904 0.93003 0.87597 0.0
H269 H 0.71736 0.94613 0.87234 0.0
H270 H 0.74255 0.95943 0.89985 0.0
H271 H 0.75978 0.09075 0.89223 0.0
H272 H 0.70068 0.10284 0.88314 0.0
H273 H 0.68795 0.0007 0.85317 0.0
C274 C 0.82023 0.97489 0.87169 0.0
C275 C 0.84955 0.99046 0.88115 0.0
C276 C 0.84811 0.02413 0.8907 0.0
C277 C 0.81816 0.04221 0.89056 0.0
C278 C 0.78981 0.02627 0.88088 0.0
C279 C 0.79049 0.99334 0.87173 0.0
C280 C 0.75648 0.98237 0.86206 0.0
C281 C 0.75746 0.97344 0.83254 0.0
C282 C 0.74307 0.95274 0.87855 0.0
C283 C 0.73673 0.01438 0.86703 0.0
C284 C 0.75645 0.03937 0.8779 0.0
C285 C 0.744 0.07135 0.88382 0.0
C286 C 0.71042 0.07799 0.87853 0.0
C287 C 0.68966 0.05273 0.86747 0.0
C288 C 0.70312 0.02052 0.86172 0.0
H289 H 0.16846 0.97829 0.61312 0.0
H290 H 0.20008 0.87385 0.62129 0.0
H291 H 0.25878 0.89234 0.62089 0.0
H292 H 0.23337 0.0042 0.56909 0.0
H293 H 0.23781 0.0456 0.58358 0.0
H294 H 0.19825 0.02424 0.58482 0.0
H295 H 0.19731 0.03042 0.63569 0.0
H296 H 0.23686 0.05183 0.63461 0.0
H297 H 0.2318 0.01467 0.65474 0.0
H298 H 0.3138 0.92194 0.61898 0.0
H299 H 0.36173 0.9606 0.61622 0.0
H300 H 0.29441 0.04606 0.60961 0.0
C301 C 0.18769 0.95927 0.61486 0.0
C302 C 0.17965 0.92458 0.61722 0.0
C303 C 0.20561 0.90054 0.61948 0.0
C304 C 0.23903 0.9108 0.61926 0.0
C305 C 0.24604 0.94516 0.61684 0.0
C306 C 0.22114 0.96905 0.61474 0.0
C307 C 0.23543 0.00439 0.61231 0.0
C308 C 0.22563 0.02055 0.58587 0.0
C309 C 0.22471 0.02663 0.63574 0.0
C310 C 0.2723 0.99662 0.61326 0.0
C311 C 0.27783 0.9623 0.61588 0.0
C312 C 0.30979 0.94887 0.61699 0.0
C313 C 0.33686 0.97109 0.61538 0.0
C314 C 0.33187 0.00641 0.61272 0.0
C315 C 0.29907 0.01924 0.61169 0.0
H316 H 0.77972 0.47702 0.08261 0.0
H317 H 0.80627 0.45025 0.16288 0.0
H318 H 0.75687 0.48066 0.17937 0.0
H319 H 0.74991 0.56014 0.09652 0.0
H320 H 0.71602 0.55814 0.07333 0.0
H321 H 0.7532 0.53379 0.06759 0.0
H322 H 0.71812 0.47893 0.06456 0.0
H323 H 0.68079 0.50316 0.07005 0.0
H324 H 0.69049 0.46802 0.09127 0.0
H325 H 0.70591 0.51573 0.18736 0.0
H326 H 0.65419 0.54927 0.18606 0.0
H327 H 0.65992 0.55213 0.10056 0.0
C328 C 0.77504 0.47735 0.10364 0.0
C329 C 0.79693 0.46127 0.12144 0.0
C330 C 0.78985 0.46228 0.14882 0.0
C331 C 0.76191 0.47961 0.15841 0.0
C332 C 0.74115 0.49561 0.14038 0.0
C333 C 0.74712 0.49433 0.11356 0.0
C334 C 0.72064 0.51337 0.0984 0.0
C335 C 0.73586 0.54313 0.08306 0.0
C336 C 0.70136 0.48944 0.07999 0.0
C337 C 0.69897 0.52568 0.12092 0.0
C338 C 0.71137 0.51533 0.14497 0.0
C339 C 0.69586 0.52386 0.16864 0.0
C340 C 0.66655 0.54305 0.16769 0.0
C341 C 0.65295 0.55331 0.14322 0.0
C342 C 0.66963 0.54466 0.11958 0.0
H343 H 0.31872 0.4985 0.38177 0.0
H344 H 0.28788 0.60367 0.37936 0.0
H345 H 0.22901 0.58566 0.37989 0.0
H346 H 0.25502 0.46666 0.33919 0.0
H347 H 0.24976 0.42771 0.35712 0.0
H348 H 0.28945 0.44888 0.35719 0.0
H349 H 0.28871 0.45028 0.40827 0.0
H350 H 0.24901 0.42912 0.40837 0.0
H351 H 0.25378 0.46901 0.4252 0.0
H352 H 0.17378 0.55634 0.38036 0.0
H353 H 0.12562 0.51784 0.37999 0.0
H354 H 0.19236 0.4315 0.38166 0.0
C355 C 0.29963 0.5178 0.38145 0.0
C356 C 0.30792 0.55253 0.38057 0.0
C357 C 0.28214 0.57693 0.38003 0.0
C358 C 0.24864 0.56695 0.38036 0.0
C359 C 0.24138 0.53251 0.38118 0.0
C360 C 0.26611 0.50829 0.38168 0.0
C361 C 0.25159 0.47292 0.38209 0.0
C362 C 0.26208 0.45287 0.35743 0.0
C363 C 0.26135 0.45424 0.4075 0.0
C364 C 0.21477 0.48102 0.3817 0.0
C365 C 0.20947 0.51555 0.38126 0.0
C366 C 0.17761 0.52926 0.38071 0.0
C367 C 0.1504 0.50712 0.38051 0.0
C368 C 0.15517 0.4716 0.38079 0.0
C369 C 0.18787 0.45849 0.38146 0.0
H370 H 0.16755 0.51252 0.92493 0.0
H371 H 0.15093 0.53263 0.84185 0.0
H372 H 0.20523 0.50688 0.83117 0.0
H373 H 0.25497 0.53179 0.92439 0.0
H374 H 0.26549 0.4992 0.94772 0.0
H375 H 0.2249 0.51841 0.94864 0.0
H376 H 0.19775 0.45919 0.94436 0.0
H377 H 0.23831 0.43984 0.94312 0.0
H378 H 0.20887 0.43233 0.91697 0.0
H379 H 0.26091 0.47845 0.82939 0.0
H380 H 0.3167 0.45446 0.83702 0.0
H381 H 0.29778 0.45412 0.92136 0.0
C382 C 0.17534 0.51155 0.9045 0.0
C383 C 0.15497 0.52454 0.88423 0.0
C384 C 0.16617 0.52298 0.85774 0.0
C385 C 0.19687 0.5082 0.85144 0.0
C386 C 0.21617 0.49528 0.87186 0.0
C387 C 0.20606 0.49716 0.89787 0.0
C388 C 0.2321 0.48252 0.91615 0.0
C389 C 0.24514 0.5096 0.93535 0.0
C390 C 0.21843 0.45163 0.93102 0.0
C391 C 0.25849 0.47229 0.89634 0.0
C392 C 0.24863 0.4795 0.87088 0.0
C393 C 0.26894 0.47268 0.84924 0.0
C394 C 0.30055 0.45891 0.85378 0.0
C395 C 0.31166 0.45239 0.87979 0.0
C396 C 0.29002 0.45869 0.90125 0.0
H397 H 0.6658 0.50902 0.61845 0.0
H398 H 0.65866 0.39985 0.62577 0.0
H399 H 0.71982 0.39631 0.6293 0.0
H400 H 0.73958 0.51008 0.57872 0.0
H401 H 0.75662 0.54728 0.59422 0.0
H402 H 0.71221 0.5414 0.59282 0.0
H403 H 0.70859 0.54763 0.64361 0.0
H404 H 0.75299 0.55355 0.64518 0.0
H405 H 0.73351 0.5206 0.66425 0.0
H406 H 0.78134 0.40444 0.63163 0.0
H407 H 0.83964 0.42343 0.63241 0.0
H408 H 0.80718 0.52751 0.62329 0.0
C409 C 0.67705 0.48435 0.62089 0.0
C410 C 0.65742 0.45468 0.62187 0.0
C411 C 0.67317 0.42291 0.62497 0.0
C412 C 0.70788 0.42064 0.627 0.0
C413 C 0.72645 0.45036 0.62588 0.0
C414 C 0.71165 0.48161 0.62289 0.0
C415 C 0.73741 0.5096 0.62195 0.0
C416 C 0.73639 0.52818 0.59534 0.0
C417 C 0.73285 0.5343 0.64513 0.0
C418 C 0.76906 0.48917 0.62482 0.0
C419 C 0.76209 0.45507 0.62711 0.0
C420 C 0.78712 0.43107 0.62988 0.0
C421 C 0.82019 0.44217 0.6303 0.0
C422 C 0.82803 0.47699 0.62791 0.0
C423 C 0.80201 0.50075 0.62517 0.0
H424 H 0.03942 0.06068 0.30482 0.0
H425 H 0.97484 0.97279 0.30437 0.0
H426 H 0.98909 0.96234 0.25763 0.0
H427 H 0.01524 0.09032 0.24394 0.0
H428 H 0.0555 0.10605 0.23415 0.0
H429 H 0.04497 0.10332 0.26854 0.0
H430 H 0.09704 0.06626 0.27701 0.0
H431 H 0.10796 0.06912 0.2426 0.0
H432 H 0.10326 0.0283 0.2579 0.0
H433 H 0.00613 0.96471 0.21004 0.0
H434 H 0.02338 0.98064 0.16493 0.0
H435 H 0.07466 0.06848 0.19642 0.0
C436 C 0.02913 0.03862 0.29511 0.0
C437 C 0.00641 0.01725 0.3082 0.0
C438 C 0.99252 0.98929 0.29465 0.0
C439 C 0.00053 0.98312 0.26817 0.0
C440 C 0.02232 0.00525 0.25557 0.0
C441 C 0.03645 0.03243 0.2686 0.0
C442 C 0.05623 0.05448 0.24994 0.0
C443 C 0.04212 0.09066 0.2491 0.0
C444 C 0.09333 0.05452 0.2573 0.0
C445 C 0.0503 0.03595 0.22427 0.0
C446 C 0.03118 0.00731 0.22797 0.0
C447 C 0.02141 0.98688 0.20692 0.0
C448 C 0.03127 0.99615 0.18139 0.0
C449 C 0.05026 0.02582 0.17718 0.0
C450 C 0.06012 0.04566 0.199 0.0
H451 H 0.49858 0.96052 0.18225 0.0
H452 H 0.46681 0.06524 0.17781 0.0
H453 H 0.49095 0.07579 0.22192 0.0
H454 H 0.47761 0.94845 0.24789 0.0
H455 H 0.51232 0.92126 0.25533 0.0
H456 H 0.49637 0.92316 0.22226 0.0
H457 H 0.5549 0.93916 0.2047 0.0
H458 H 0.57116 0.93704 0.23774 0.0
H459 H 0.5764 0.97502 0.21858 0.0
H460 H 0.51467 0.07329 0.26828 0.0
H461 H 0.5358 0.05796 0.31249 0.0
H462 H 0.55043 0.95466 0.28582 0.0
C463 C 0.49725 0.9859 0.19024 0.0
C464 C 0.48093 0.01211 0.17653 0.0
C465 C 0.47934 0.0448 0.18792 0.0
C466 C 0.493 0.05104 0.21294 0.0
C467 C 0.50819 0.02432 0.22619 0.0
C468 C 0.5105 0.99245 0.21512 0.0
C469 C 0.52588 0.96741 0.23395 0.0
C470 C 0.50158 0.93838 0.24023 0.0
C471 C 0.55906 0.95387 0.2231 0.0
C472 C 0.53125 0.98995 0.25763 0.0
C473 C 0.52127 0.02277 0.25278 0.0
C474 C 0.52285 0.04773 0.2722 0.0
C475 C 0.53483 0.03878 0.29725 0.0
C476 C 0.54474 0.00513 0.30261 0.0
C477 C 0.54311 0.98063 0.28238 0.0
H478 H 0.04876 0.89139 0.69881 0.0
H479 H 0.01359 0.97744 0.65372 0.0
H480 H 0.98505 -0.00053 0.69339 0.0
H481 H 0.97534 0.87919 0.73613 0.0
H482 H -0.00311 0.86747 0.76588 0.0
H483 H 0.01577 0.85958 0.73427 0.0
H484 H 0.06791 0.89363 0.74854 0.0
H485 H 0.04913 0.90168 0.78021 0.0
H486 H 0.06311 0.93647 0.76013 0.0
H487 H 0.95805 0.0105 0.73773 0.0
H488 H 0.93476 0.00932 0.78292 0.0
H489 H 0.98875 0.91637 0.79836 0.0
C490 C 0.03527 0.915 0.69725 0.0
C491 C 0.03343 0.93271 0.67316 0.0
C492 C 0.01538 0.96345 0.67199 0.0
C493 C -0.00086 0.9762 0.69442 0.0
C494 C 0.00135 0.95798 0.71784 0.0
C495 C 0.01903 0.92808 0.71938 0.0
C496 C 0.01681 0.91275 0.7466 0.0
C497 C 0.00021 0.87768 0.74565 0.0
C498 C 0.05129 0.91105 0.75963 0.0
C499 C 0.99475 0.93846 0.76007 0.0
C500 C 0.98615 0.96446 0.74326 0.0
C501 C 0.96485 0.99042 0.75114 0.0
C502 C 0.95175 0.98954 0.77682 0.0
C503 C 0.96004 0.96287 0.79421 0.0
C504 C 0.98215 0.93732 0.78568 0.0
H505 H 0.43594 0.07901 0.68929 0.0
H506 H 0.51458 0.02449 0.64863 0.0
H507 H 0.54696 0.02252 0.69003 0.0
H508 H 0.48764 0.13057 0.72776 0.0
H509 H 0.46127 0.12967 0.75653 0.0
H510 H 0.4434 0.12445 0.72427 0.0
H511 H 0.41705 0.06757 0.73874 0.0
H512 H 0.43476 0.07266 0.77111 0.0
H513 H 0.4432 0.03493 0.75228 0.0
H514 H 0.57244 0.03054 0.73517 0.0
H515 H 0.58817 0.04634 0.78068 0.0
H516 H 0.49204 0.09457 0.79136 0.0
C517 C 0.45979 0.06627 0.68909 0.0
C518 C 0.47274 0.05189 0.66572 0.0
C519 C 0.50412 0.03559 0.66633 0.0
C520 C 0.52268 0.03434 0.68974 0.0
C521 C 0.50935 0.04927 0.71233 0.0
C522 C 0.4785 0.06468 0.7122 0.0
C523 C 0.4702 0.07992 0.73878 0.0
C524 C 0.46536 0.11843 0.73669 0.0
C525 C 0.43949 0.06273 0.75094 0.0
C526 C 0.50149 0.07123 0.75381 0.0
C527 C 0.52376 0.05347 0.73828 0.0
C528 C 0.55503 0.0441 0.7476 0.0
C529 C 0.56377 0.05326 0.77343 0.0
C530 C 0.54126 0.07153 0.78959 0.0
C531 C 0.50966 0.08027 0.77962 0.0
H532 H 0.50029 0.59512 0.19335 0.0
H533 H 0.53038 0.48977 0.18997 0.0
H534 H 0.50635 0.48068 0.23433 0.0
H535 H 0.5188 0.60851 0.26073 0.0
H536 H 0.48363 0.63579 0.26663 0.0
H537 H 0.50187 0.63346 0.23424 0.0
H538 H 0.44454 0.61743 0.21448 0.0
H539 H 0.42606 0.61981 0.24681 0.0
H540 H 0.42216 0.58166 0.22756 0.0
H541 H 0.48113 0.48404 0.27999 0.0
H542 H 0.45557 0.49915 0.32278 0.0
H543 H 0.44184 0.60216 0.29541 0.0
C544 C 0.50167 0.57003 0.2018 0.0
C545 C 0.51721 0.54313 0.1882 0.0
C546 C 0.5185 0.51073 0.20001 0.0
C547 C 0.50495 0.50534 0.22519 0.0
C548 C 0.4901 0.53256 0.23814 0.0
C549 C 0.48824 0.56421 0.22677 0.0
C550 C 0.47156 0.58944 0.24492 0.0
C551 C 0.4954 0.6185 0.25205 0.0
C552 C 0.43915 0.60286 0.23271 0.0
C553 C 0.4646 0.56713 0.26845 0.0
C554 C 0.47541 0.53441 0.2642 0.0
C555 C 0.47237 0.50953 0.28347 0.0
C556 C 0.45788 0.51838 0.30771 0.0
C557 C 0.44661 0.5518 0.31241 0.0
C558 C 0.44998 0.57633 0.2924 0.0
H559 H 0.96838 0.39616 0.32235 0.0
H560 H 0.06322 0.44029 0.29988 0.0
H561 H 0.04111 0.45214 0.25552 0.0
H562 H 0.95388 0.35408 0.26304 0.0
H563 H 0.90957 0.36114 0.26266 0.0
H564 H 0.93143 0.35963 0.29355 0.0
H565 H 0.9087 0.41895 0.30581 0.0
H566 H 0.8866 0.4206 0.27494 0.0
H567 H 0.9153 0.45384 0.28359 0.0
H568 H 0.01045 0.45497 0.2127 0.0
H569 H 0.97336 0.44826 0.1743 0.0
H570 H 0.89873 0.40189 0.22465 0.0
C571 C 0.9843 0.40891 0.30828 0.0
C572 C 0.01747 0.4174 0.31459 0.0
C573 C 0.03768 0.43358 0.29548 0.0
C574 C 0.02534 0.44053 0.27025 0.0
C575 C 0.99272 0.43124 0.2645 0.0
C576 C 0.97242 0.41591 0.28298 0.0
C577 C 0.93907 0.40646 0.27125 0.0
C578 C 0.93317 0.36805 0.27271 0.0
C579 C 0.91074 0.42615 0.2847 0.0
C580 C 0.94415 0.41805 0.24312 0.0
C581 C 0.9751 0.43264 0.2397 0.0
C582 C 0.986 0.44393 0.21517 0.0
C583 C 0.96478 0.43994 0.19348 0.0
C584 C 0.93314 0.42459 0.19648 0.0
C585 C 0.92267 0.41391 0.22172 0.0
H586 H 0.53003 0.45504 0.69689 0.0
H587 H 0.47481 0.53621 0.65965 0.0
H588 H 0.44795 0.54942 0.70238 0.0
H589 H 0.46567 0.42528 0.73591 0.0
H590 H 0.49143 0.41501 0.76383 0.0
H591 H 0.50894 0.41481 0.73119 0.0
H592 H 0.55428 0.45739 0.7461 0.0
H593 H 0.53691 0.45766 0.77888 0.0
H594 H 0.54205 0.4968 0.76118 0.0
H595 H 0.42312 0.54971 0.74847 0.0
H596 H 0.40289 0.53717 0.79353 0.0
H597 H 0.47532 0.45616 0.79965 0.0
C598 C 0.51272 0.47599 0.69773 0.0
C599 C 0.50453 0.49461 0.67493 0.0
C600 C 0.48156 0.52167 0.6769 0.0
C601 C 0.46622 0.52939 0.70108 0.0
C602 C 0.47442 0.51001 0.72308 0.0
C603 C 0.49734 0.48403 0.72159 0.0
C604 C 0.50039 0.46551 0.7475 0.0
C605 C 0.49103 0.42795 0.74441 0.0
C606 C 0.53549 0.46961 0.7591 0.0
C607 C 0.47487 0.48446 0.76365 0.0
C608 C 0.46033 0.51027 0.74941 0.0
C609 C 0.43466 0.52987 0.75991 0.0
C610 C 0.42331 0.52254 0.7855 0.0
C611 C 0.43755 0.49575 0.80014 0.0
C612 C 0.46403 0.47699 0.7891 0.0
H613 H 0.98903 0.5287 0.81456 0.0
H614 H 0.06331 0.44909 0.81591 0.0
H615 H 0.04379 0.42913 0.77239 0.0
H616 H 0.92343 0.48076 0.77785 0.0
H617 H 0.91137 0.51805 0.75987 0.0
H618 H 0.92709 0.52185 0.79302 0.0
H619 H 0.9723 0.56357 0.77652 0.0
H620 H 0.95703 0.55967 0.74339 0.0
H621 H 8e-05 0.55066 0.75043 0.0
H622 H 0.02161 0.42335 0.72604 0.0
H623 H -0.00185 0.43173 0.68147 0.0
H624 H 0.93919 0.5156 0.71105 0.0
C625 C 0.0006 0.50644 0.80612 0.0
C626 C 0.02765 0.49041 0.81866 0.0
C627 C 0.04241 0.46167 0.80673 0.0
C628 C 0.03146 0.45012 0.78202 0.0
C629 C 0.00555 0.4674 0.76972 0.0
C630 C 0.99009 0.49474 0.78155 0.0
C631 C 0.96524 0.51117 0.76328 0.0
C632 C 0.92967 0.50773 0.77416 0.0
C633 C 0.97423 0.54845 0.7581 0.0
C634 C 0.97009 0.48972 0.73891 0.0
C635 C 0.99301 0.46424 0.74305 0.0
C636 C 0.00318 0.44282 0.72271 0.0
C637 C 0.9898 0.44783 0.69745 0.0
C638 C 0.96682 0.47429 0.69279 0.0
C639 C 0.95653 0.495 0.71397 0.0
H640 H 0.0484 0.19403 0.10473 0.0
H641 H 0.9603 0.1305 0.10757 0.0
H642 H 0.92477 0.1813 0.10711 0.0
H643 H 0.01805 0.25822 0.14745 0.0
H644 H 0.03709 0.29254 0.12961 0.0
H645 H 0.05564 0.25113 0.12879 0.0
H646 H 0.05318 0.25127 0.07772 0.0
H647 H 0.03466 0.29274 0.07839 0.0
H648 H 0.01396 0.25858 0.06148 0.0
H649 H 0.89871 0.23916 0.10819 0.0
H650 H 0.88433 0.29989 0.11053 0.0
H651 H 0.98937 0.32537 0.10686 0.0
C652 C 0.02164 0.19077 0.10501 0.0
C653 C 0.00717 0.15825 0.10615 0.0
C654 C 0.97201 0.15514 0.10668 0.0
C655 C 0.95157 0.18385 0.10639 0.0
C656 C 0.96662 0.21553 0.10551 0.0
C657 C 0.00084 0.21918 0.10476 0.0
C658 C 0.01072 0.25611 0.10462 0.0
C659 C 0.0316 0.26501 0.12907 0.0
C660 C 0.02922 0.2652 0.07902 0.0
C661 C 0.97674 0.27262 0.10571 0.0
C662 C 0.95161 0.24882 0.10611 0.0
C663 C 0.91817 0.25806 0.10773 0.0
C664 C 0.91025 0.2926 0.10907 0.0
C665 C 0.93567 0.31741 0.10882 0.0
C666 C 0.9693 0.3071 0.10697 0.0
H667 H 0.46973 0.84343 0.16487 0.0
H668 H 0.4589 0.85827 0.0805 0.0
H669 H 0.48379 0.80217 0.07244 0.0
H670 H 0.54807 0.80142 0.16268 0.0
H671 H 0.53831 0.77219 0.1888 0.0
H672 H 0.5189 0.81322 0.18813 0.0
H673 H 0.46058 0.78524 0.18918 0.0
H674 H 0.47981 0.74415 0.19018 0.0
H675 H 0.45008 0.75388 0.16473 0.0
H676 H 0.51181 0.74541 0.07348 0.0
H677 H 0.53649 0.68984 0.08363 0.0
H678 H 0.52828 0.71168 0.16735 0.0
C679 C 0.47232 0.8348 0.1447 0.0
C680 C 0.46237 0.85531 0.12332 0.0
C681 C 0.46623 0.84302 0.09722 0.0
C682 C 0.48049 0.81124 0.09242 0.0
C683 C 0.4906 0.79197 0.11393 0.0
C684 C 0.48635 0.80309 0.13955 0.0
C685 C 0.49908 0.77732 0.15916 0.0
C686 C 0.5278 0.79192 0.17566 0.0
C687 C 0.47069 0.76438 0.17685 0.0
C688 C 0.51128 0.75003 0.14053 0.0
C689 C 0.50635 0.75907 0.11453 0.0
C690 C 0.5157 0.738 0.09377 0.0
C691 C 0.52986 0.70654 0.09975 0.0
C692 C 0.53436 0.69636 0.12629 0.0
C693 C 0.52524 0.71869 0.14686 0.0
H694 H 0.46988 0.71485 0.3403 0.0
H695 H 0.41332 0.70636 0.41302 0.0
H696 H 0.43596 0.76121 0.42791 0.0
H697 H 0.54245 0.75057 0.36819 0.0
H698 H 0.55068 0.77864 0.341 0.0
H699 H 0.52885 0.73953 0.33543 0.0
H700 H 0.47976 0.77222 0.3144 0.0
H701 H 0.50158 0.81145 0.31967 0.0
H702 H 0.46012 0.80596 0.33261 0.0
H703 H 0.46759 0.81526 0.43605 0.0
H704 H 0.50252 0.86666 0.43538 0.0
H705 H 0.53727 0.84033 0.35688 0.0
C706 C 0.46193 0.72466 0.35924 0.0
C707 C 0.43981 0.70627 0.37549 0.0
C708 C 0.43012 0.72002 0.40016 0.0
C709 C 0.44293 0.75112 0.40884 0.0
C710 C 0.46519 0.76826 0.39254 0.0
C711 C 0.4743 0.75571 0.36813 0.0
C712 C 0.49887 0.77892 0.3545 0.0
C713 C 0.53218 0.76083 0.3495 0.0
C714 C 0.48419 0.79297 0.32877 0.0
C715 C 0.50242 0.80633 0.37518 0.0
C716 C 0.48291 0.79965 0.39702 0.0
C717 C 0.48277 0.82089 0.41897 0.0
C718 C 0.50282 0.84994 0.41845 0.0
C719 C 0.52257 0.85757 0.39606 0.0
C720 C 0.52232 0.83532 0.37422 0.0
H721 H 0.04464 0.28106 0.32375 0.0
H722 H 0.08376 0.28694 0.40339 0.0
H723 H 0.0597 0.2309 0.41314 0.0
H724 H 0.9682 0.24458 0.34018 0.0
H725 H 0.9658 0.2174 0.31169 0.0
H726 H 0.98876 0.25641 0.30995 0.0
H727 H 0.0416 0.22392 0.29515 0.0
H728 H 0.01867 0.1848 0.29644 0.0
H729 H 0.0567 0.18934 0.31491 0.0
H730 H 0.02743 0.17638 0.41533 0.0
H731 H 0.99298 0.12537 0.40876 0.0
H732 H 0.97494 0.15528 0.32769 0.0
C733 C 0.04881 0.2703 0.34308 0.0
C734 C 0.06621 0.28843 0.36278 0.0
C735 C 0.0707 0.27352 0.38792 0.0
C736 C 0.05702 0.24172 0.39368 0.0
C737 C 0.0391 0.22507 0.37407 0.0
C738 C 0.03534 0.23863 0.34916 0.0
C739 C 0.01393 0.21615 0.3319 0.0
C740 C 0.9823 0.23475 0.32291 0.0
C741 C 0.03392 0.20275 0.3082 0.0
C742 C 0.00575 0.18811 0.35113 0.0
C743 C 0.02054 0.19369 0.37532 0.0
C744 C 0.01597 0.17161 0.39639 0.0
C745 C -0.00381 0.14279 0.3925 0.0
C746 C 0.9812 0.13628 0.36771 0.0
C747 C 0.986 0.15947 0.34687 0.0
H748 H 0.0124 0.68844 0.90991 0.0
H749 H 0.0247 0.65183 0.8297 0.0
H750 H -0.0029 0.70317 0.81295 0.0
H751 H 0.93197 0.7256 0.90135 0.0
H752 H 0.94042 0.76158 0.92216 0.0
H753 H 0.96135 0.72205 0.92802 0.0
H754 H 0.01859 0.75194 0.92434 0.0
H755 H -0.00218 0.79161 0.91879 0.0
H756 H 0.02809 0.77641 0.89534 0.0
H757 H 0.96719 0.75789 0.80494 0.0
H758 H 0.94143 0.81446 0.80595 0.0
H759 H 0.94912 0.81567 0.89137 0.0
C760 C 0.00947 0.69127 0.88881 0.0
C761 C 0.02069 0.66605 0.87113 0.0
C762 C 0.01641 0.67081 0.84365 0.0
C763 C 0.0006 0.69982 0.83394 0.0
C764 C 0.98934 0.72389 0.85193 0.0
C765 C 0.99389 0.72013 0.87877 0.0
C766 C 0.98005 0.75009 0.89384 0.0
C767 C 0.95177 0.73916 0.91244 0.0
C768 C 0.00779 0.76861 0.90896 0.0
C769 C 0.96698 0.77128 0.87129 0.0
C770 C 0.97239 0.7556 0.8473 0.0
C771 C 0.96284 0.77044 0.82361 0.0
C772 C 0.94808 0.80254 0.82441 0.0
C773 C 0.94317 0.81953 0.84873 0.0
C774 C 0.95232 0.80332 0.87246 0.0
H775 H 0.44597 0.32727 0.87929 0.0
H776 H 0.53426 0.38448 0.85792 0.0
H777 H 0.56685 0.33182 0.85642 0.0
H778 H 0.48804 0.2666 0.92117 0.0
H779 H 0.4623 0.23165 0.91092 0.0
H780 H 0.44579 0.27399 0.91074 0.0
H781 H 0.43055 0.26747 0.86136 0.0
H782 H 0.44703 0.22514 0.86138 0.0
H783 H 0.46241 0.25569 0.83802 0.0
H784 H 0.58968 0.27306 0.85586 0.0
H785 H 0.60141 0.21182 0.85727 0.0
H786 H 0.49876 0.19267 0.87971 0.0
C787 C 0.47218 0.32873 0.8744 0.0
C788 C 0.48752 0.36005 0.86873 0.0
C789 C 0.5219 0.36084 0.86239 0.0
C790 C 0.54068 0.33105 0.86147 0.0
C791 C 0.52481 0.30062 0.86704 0.0
C792 C 0.49139 0.29919 0.87348 0.0
C793 C 0.48044 0.26309 0.87843 0.0
C794 C 0.46844 0.25858 0.90702 0.0
C795 C 0.45352 0.25222 0.85861 0.0
C796 C 0.51287 0.24453 0.87358 0.0
C797 C 0.53813 0.26666 0.86701 0.0
C798 C 0.57016 0.25545 0.86111 0.0
C799 C 0.57656 0.22062 0.86193 0.0
C800 C 0.55107 0.19745 0.86868 0.0
C801 C 0.51886 0.20972 0.87465 0.0
H802 H 0.43202 0.19928 0.66176 0.0
H803 H 0.40318 0.19178 0.57948 0.0
H804 H 0.42688 0.24841 0.57131 0.0
H805 H 0.41739 0.29117 0.6691 0.0
H806 H 0.453 0.29635 0.6903 0.0
H807 H 0.43041 0.25699 0.69016 0.0
H808 H 0.48507 0.22492 0.67964 0.0
H809 H 0.50775 0.26415 0.67938 0.0
H810 H 0.50905 0.23666 0.65101 0.0
H811 H 0.45887 0.30317 0.57115 0.0
H812 H 0.49348 0.35363 0.57963 0.0
H813 H 0.50118 0.32524 0.66206 0.0
C814 C 0.42992 0.20982 0.64214 0.0
C815 C 0.4156 0.19108 0.62128 0.0
C816 C 0.41384 0.2057 0.59582 0.0
C817 C 0.42731 0.23784 0.59097 0.0
C818 C 0.44224 0.25512 0.6118 0.0
C819 C 0.44325 0.24181 0.63696 0.0
C820 C 0.46226 0.26468 0.6556 0.0
C821 C 0.43939 0.2781 0.67758 0.0
C822 C 0.49284 0.24651 0.66707 0.0
C823 C 0.47242 0.29261 0.63688 0.0
C824 C 0.46055 0.28669 0.61173 0.0
C825 C 0.46796 0.30827 0.59084 0.0
C826 C 0.48779 0.33677 0.59583 0.0
C827 C 0.5 0.34346 0.62152 0.0
C828 C 0.49207 0.321 0.64224 0.0
H829 H -0.00185 0.77183 0.64028 0.0
H830 H 0.09888 0.75735 0.61125 0.0
H831 H 0.08735 0.69654 0.60488 0.0
H832 H 0.99133 0.69314 0.67539 0.0
H833 H 0.94831 0.68664 0.66671 0.0
H834 H 0.96467 0.72892 0.66929 0.0
H835 H 0.94525 0.74139 0.6216 0.0
H836 H 0.929 0.69908 0.61881 0.0
H837 H 0.95884 0.71431 0.59506 0.0
H838 H 0.06526 0.63741 0.60227 0.0
H839 H 0.03407 0.58375 0.60328 0.0
H840 H 0.94694 0.63679 0.63263 0.0
C841 C 0.01788 0.75586 0.63273 0.0
C842 C 0.0495 0.76934 0.62637 0.0
C843 C 0.0745 0.7476 0.61628 0.0
C844 C 0.06818 0.71304 0.61258 0.0
C845 C 0.03668 0.70066 0.61887 0.0
C846 C 0.01191 0.72137 0.62869 0.0
C847 C 0.98009 0.70172 0.63362 0.0
C848 C 0.97055 0.70266 0.663 0.0
C849 C 0.95162 0.71492 0.61623 0.0
C850 C 0.99091 0.66664 0.62519 0.0
C851 C 0.02367 0.66662 0.61681 0.0
C852 C 0.03956 0.63713 0.60869 0.0
C853 C 0.02162 0.60677 0.60936 0.0
C854 C 0.98803 0.60609 0.61794 0.0
C855 C 0.97245 0.63656 0.62571 0.0
H856 H 0.97885 0.98871 0.92846 0.0
H857 H 0.00894 0.88846 0.95382 0.0
H858 H 0.03528 0.91334 0.99331 0.0
H859 H 0.05312 0.03259 0.95046 0.0
H860 H 0.03049 0.0697 0.96073 0.0
H861 H 0.01497 0.04402 0.93408 0.0
H862 H 0.95879 0.03709 0.95868 0.0
H863 H 0.97415 0.06265 0.98543 0.0
H864 H 0.95853 0.02073 0.99183 0.0
H865 H 0.05588 0.94884 0.03099 0.0
H866 H 0.07125 0.99266 0.06345 0.0
H867 H 0.02858 0.06974 0.01288 0.0
C868 C 0.99117 0.97195 0.9422 0.0
C869 C 0.99182 0.93662 0.93807 0.0
C870 C 0.00817 0.91561 0.95656 0.0
C871 C 0.02318 0.92949 0.97905 0.0
C872 C 0.02176 0.96439 0.98263 0.0
C873 C 0.00636 0.98536 0.96465 0.0
C874 C 0.00789 0.02197 0.97329 0.0
C875 C 0.02781 0.04332 0.95346 0.0
C876 C 0.97275 0.03645 0.97757 0.0
C877 C 0.02633 0.01831 -0.0009 0.0
C878 C 0.03405 0.98489 0.00415 0.0
C879 C 0.05019 0.97511 0.02717 0.0
C880 C 0.05873 0.00018 0.04551 0.0
C881 C 0.05123 0.03462 0.04064 0.0
C882 C 0.0349 0.04368 0.01706 0.0
H883 H 0.59774 0.05871 0.96111 0.0
H884 H 0.5123 0.05848 0.90878 0.0
H885 H 0.47712 0.03673 0.94492 0.0
H886 H 0.57688 0.98159 -0.00481 0.0
H887 H 0.59167 0.9966 0.02664 0.0
H888 H 0.61005 0.01224 -0.00336 0.0
H889 H 0.59691 0.07369 0.01116 0.0
H890 H 0.57836 0.05822 0.04115 0.0
H891 H 0.55473 0.08508 0.01946 0.0
H892 H 0.45104 0.01646 0.98692 0.0
H893 H 0.43631 0.996 0.03134 0.0
H894 H 0.53913 0.00819 0.05594 0.0
C895 C 0.57164 0.05406 0.95723 0.0
C896 C 0.55772 0.06035 0.93216 0.0
C897 C 0.5235 0.05376 0.92783 0.0
C898 C 0.5033 0.0415 0.94823 0.0
C899 C 0.51778 0.0358 0.97276 0.0
C900 C 0.55119 0.0416 0.97729 0.0
C901 C 0.56065 0.03295 0.00536 0.0
C902 C 0.58633 0.00413 0.00598 0.0
C903 C 0.57341 0.06436 0.02014 0.0
C904 C 0.52727 0.02151 0.01593 0.0
C905 C 0.50285 0.02352 -0.00315 0.0
C906 C 0.46995 0.01466 0.00201 0.0
C907 C 0.46184 0.00315 0.02732 0.0
C908 C 0.48659 0.00042 0.04709 0.0
C909 C 0.51968 0.00988 0.04124 0.0
H910 H 0.42932 0.04417 0.52917 0.0
H911 H 0.51527 0.10338 0.5529 0.0
H912 H 0.54483 0.0855 0.51247 0.0
H913 H 0.47366 0.97462 0.50221 0.0
H914 H 0.44515 0.96804 0.47528 0.0
H915 H 0.43051 0.98634 0.50568 0.0
H916 H 0.40802 0.03816 0.48007 0.0
H917 H 0.42266 0.02004 0.44957 0.0
H918 H 0.43578 0.06188 0.45914 0.0
H919 H 0.56594 0.05885 0.47068 0.0
H920 H 0.5767 0.02629 0.42994 0.0
H921 H 0.47619 0.98615 0.43291 0.0
C922 C 0.45433 0.05348 0.52585 0.0
C923 C 0.47005 0.0751 0.5442 0.0
C924 C 0.50273 0.08682 0.53908 0.0
C925 C 0.51971 0.07683 0.51618 0.0
C926 C 0.50351 0.05541 0.49854 0.0
C927 C 0.47149 0.04402 0.50303 0.0
C928 C 0.4598 0.0209 0.48111 0.0
C929 C 0.45182 0.98538 0.49171 0.0
C930 C 0.42979 0.03617 0.46661 0.0
C931 C 0.49047 0.02061 0.46377 0.0
C932 C 0.51539 0.04068 0.47416 0.0
C933 C 0.54652 0.0433 0.46222 0.0
C934 C 0.5524 0.02468 0.43914 0.0
C935 C 0.52721 0.00388 0.42821 0.0
C936 C 0.49577 0.00218 0.4406 0.0
H937 H 0.06718 0.92948 0.54647 0.0
H938 H 0.9798 0.86581 0.55546 0.0
H939 H 0.95602 0.89027 0.51495 0.0
H940 H 0.02408 0.00277 0.52351 0.0
H941 H 0.05621 0.01485 0.50055 0.0
H942 H 0.06683 0.99168 0.52988 0.0
H943 H 0.0953 0.94557 0.50132 0.0
H944 H 0.08475 0.96858 0.47189 0.0
H945 H 0.07201 0.92513 0.47545 0.0
H946 H 0.94155 0.92172 0.47398 0.0
H947 H 0.93653 0.9591 0.43544 0.0
H948 H 0.03315 0.00287 0.45322 0.0
C949 C 0.04311 0.92054 0.53987 0.0
C950 C 0.02536 0.89566 0.55408 0.0
C951 C 0.99384 0.88483 0.54489 0.0
C952 C 0.98015 0.89853 0.52188 0.0
C953 C -0.00172 0.92302 0.50838 0.0
C954 C 0.02903 0.93401 0.51702 0.0
C955 C 0.04304 0.96113 0.49911 0.0
C956 C 0.04781 0.99458 0.51416 0.0
C957 C 0.07571 0.94939 0.48618 0.0
C958 C 0.01528 0.96374 0.4791 0.0
C959 C 0.98979 0.94143 0.48478 0.0
C960 C 0.96134 0.93928 0.46929 0.0
C961 C 0.95876 0.96065 0.44743 0.0
C962 C 0.98446 0.98395 0.4413 0.0
C963 C 0.01312 0.98533 0.45735 0.0
H964 H 0.52253 0.52094 0.05625 0.0
H965 H 0.45691 0.60797 0.05208 0.0
H966 H 0.43214 0.5852 0.01123 0.0
H967 H 0.53842 0.51361 0.9877 0.0
H968 H 0.53837 0.46804 0.98743 0.0
H969 H 0.55017 0.49053 0.01686 0.0
H970 H 0.50497 0.45847 0.04343 0.0
H971 H 0.49313 0.43574 0.01409 0.0
H972 H 0.46238 0.45939 0.03232 0.0
H973 H 0.41684 0.5547 0.96962 0.0
H974 H 0.4096 0.51673 0.93137 0.0
H975 H 0.48399 0.44876 0.96348 0.0
C976 C 0.5028 0.53512 0.04686 0.0
C977 C 0.49169 0.56627 0.0573 0.0
C978 C 0.46577 0.58402 0.04445 0.0
C979 C 0.45158 0.57133 0.02122 0.0
C980 C 0.46341 0.54076 0.01128 0.0
C981 C 0.4882 0.52271 0.0238 0.0
C982 C 0.49655 0.49059 0.00893 0.0
C983 C 0.53304 0.49072 -0.00032 0.0
C984 C 0.48878 0.45919 0.02569 0.0
C985 C 0.47286 0.49361 0.98591 0.0
C986 C 0.45404 0.52278 0.9876 0.0
C987 C 0.43122 0.53164 0.96818 0.0
C988 C 0.4274 0.51 0.94649 0.0
C989 C 0.44617 0.47977 0.94453 0.0
C990 C 0.4691 0.47154 0.96456 0.0
H991 H 0.93199 0.43968 0.04021 0.0
H992 H 0.94497 0.53262 0.08477 0.0
H993 H 0.97326 0.55846 0.0465 0.0
H994 H 0.01058 0.44144 0.00753 0.0
H995 H 0.99473 0.42481 0.97691 0.0
H996 H 0.97478 0.41395 0.00756 0.0
H997 H 0.91849 0.43619 0.9897 0.0
H998 H 0.93823 0.44697 0.95894 0.0
H999 H 0.91588 0.47878 0.97729 0.0
H1000 H 0.00112 0.57364 0.00369 0.0
H1001 H 0.02533 0.57765 0.95906 0.0
H1002 H 0.99396 0.47461 0.94275 0.0
C1003 C 0.9406 0.46554 0.04193 0.0
C1004 C 0.93627 0.48416 0.06549 0.0
C1005 C 0.94799 0.51789 0.06691 0.0
C1006 C 0.96411 0.53277 0.0453 0.0
C1007 C 0.96823 0.51357 0.02246 0.0
C1008 C 0.95671 0.48074 0.02061 0.0
C1009 C 0.9645 0.46545 0.99394 0.0
C1010 C 0.98752 0.43459 -0.00334 0.0
C1011 C 0.93236 0.45633 0.9791 0.0
C1012 C 0.9823 0.4948 0.98106 0.0
C1013 C 0.98422 0.52231 -0.00216 0.0
C1014 C -0.00029 0.5523 0.99036 0.0
C1015 C 0.01343 0.55428 0.96498 0.0
C1016 C 0.01154 0.52644 0.9474 0.0
C1017 C -0.00418 0.49634 0.95569 0.0
H1018 H 0.9706 0.52042 0.52617 0.0
H1019 H 0.94626 0.43558 0.57688 0.0
H1020 H 0.96659 0.39608 0.54275 0.0
H1021 H 0.94852 0.48099 0.46421 0.0
H1022 H 0.98273 0.49969 0.4464 0.0
H1023 H 0.96502 0.52134 0.47438 0.0
H1024 H 0.02318 0.52414 0.49633 0.0
H1025 H 0.04106 0.50257 0.46841 0.0
H1026 H 0.04646 0.48568 0.5011 0.0
H1027 H 0.98947 0.36589 0.50332 0.0
H1028 H 0.01656 0.34698 0.46218 0.0
H1029 H 0.02776 0.45158 0.43778 0.0
C1030 C 0.96935 0.49353 0.53001 0.0
C1031 C 0.95673 0.48103 0.55409 0.0
C1032 C 0.95589 0.44569 0.55855 0.0
C1033 C 0.96725 0.42306 0.53927 0.0
C1034 C 0.97956 0.4362 0.51575 0.0
C1035 C 0.98093 0.47059 0.5111 0.0
C1036 C -0.00344 0.47814 0.48458 0.0
C1037 C 0.97172 0.49609 0.46632 0.0
C1038 C 0.02872 0.49885 0.48781 0.0
C1039 C 0.00385 0.4426 0.4751 0.0
C1040 C 0.99357 0.41879 0.49326 0.0
C1041 C -0.00233 0.38427 0.48893 0.0
C1042 C 0.01303 0.3738 0.46548 0.0
C1043 C 0.02435 0.39781 0.44681 0.0
C1044 C 0.01945 0.43263 0.4517 0.0
H1045 H 0.46491 0.47264 0.5387 0.0
H1046 H 0.56628 0.5087 0.54847 0.0
H1047 H 0.56068 0.54294 0.50811 0.0
H1048 H 0.46685 0.46595 0.46821 0.0
H1049 H 0.42458 0.48019 0.46404 0.0
H1050 H 0.43649 0.45858 0.49378 0.0
H1051 H 0.41512 0.50906 0.52175 0.0
H1052 H 0.40302 0.53076 0.4921 0.0
H1053 H 0.43074 0.55095 0.51519 0.0
H1054 H 0.54419 0.57289 0.46651 0.0
H1055 H 0.51733 0.59771 0.42729 0.0
H1056 H 0.42682 0.54208 0.44504 0.0
C1057 C 0.48594 0.48776 0.53241 0.0
C1058 C 0.51604 0.48796 0.54672 0.0
C1059 C 0.54295 0.50814 0.53782 0.0
C1060 C 0.54005 0.52765 0.5149 0.0
C1061 C 0.51008 0.52671 0.50117 0.0
C1062 C 0.48347 0.50739 0.50962 0.0
C1063 C 0.45394 0.51099 0.49138 0.0
C1064 C 0.44495 0.4769 0.4786 0.0
C1065 C 0.42394 0.52636 0.50598 0.0
C1066 C 0.46812 0.53536 0.47135 0.0
C1067 C 0.50055 0.54406 0.4773 0.0
C1068 C 0.51879 0.5663 0.46165 0.0
C1069 C 0.50333 0.58021 0.43941 0.0
C1070 C 0.46999 0.57186 0.43312 0.0
C1071 C 0.45234 0.54899 0.4493 0.0
loop_
_geom_bond_atom_site_label_1
_geom_bond_atom_site_label_2
_geom_bond_distance
_geom_bond_site_symmetry_2
_ccdc_geom_bond_type
C0 O1 1.160 . S
C0 O7 1.185 . S
O1 C0 1.160 . S
O2 Zn3 1.899 . S
O2 C10 1.284 . S
Zn3 O2 1.899 . S
Zn3 O4 2.032 . S
Zn3 O7 2.086 . S
Zn3 O12 1.977 . S
O4 Zn3 2.032 . S
O4 C8 1.278 . S
C5 O6 1.203 . S
C5 O12 1.267 . S
O6 C5 1.203 . S
O7 C0 1.185 . S
O7 Zn3 2.086 . S
C8 O4 1.278 . S
C8 O9 1.211 . S
O9 C8 1.211 . S
C10 O2 1.284 . S
C10 O11 1.273 . S
O11 C10 1.273 . S
O12 Zn3 1.977 . S
O12 C5 1.267 . S
C13 O14 1.160 . S
C13 O20 1.185 . S
O14 C13 1.160 . S
O15 Zn16 1.899 . S
O15 C23 1.284 . S
Zn16 O15 1.899 . S
Zn16 O17 2.032 . S
Zn16 O20 2.086 . S
Zn16 O25 1.977 . S
O17 Zn16 2.032 . S
O17 C21 1.278 . S
C18 O19 1.203 . S
C18 O25 1.267 . S
O19 C18 1.203 . S
O20 C13 1.185 . S
O20 Zn16 2.086 . S
C21 O17 1.278 . S
C21 O22 1.211 . S
O22 C21 1.211 . S
C23 O15 1.284 . S
C23 O24 1.273 . S
O24 C23 1.273 . S
O25 Zn16 1.977 . S
O25 C18 1.267 . S
C26 O27 1.160 . S
C26 O33 1.185 . S
O27 C26 1.160 . S
O28 Zn29 1.899 . S
O28 C36 1.284 . S
Zn29 O28 1.899 . S
Zn29 O30 2.032 . S
Zn29 O33 2.086 . S
Zn29 O38 1.977 . S
O30 Zn29 2.032 . S
O30 C34 1.278 . S
C31 O32 1.203 . S
C31 O38 1.267 . S
O32 C31 1.203 . S
O33 C26 1.185 . S
O33 Zn29 2.086 . S
C34 O30 1.278 . S
C34 O35 1.211 . S
O35 C34 1.211 . S
C36 O28 1.284 . S
C36 O37 1.273 . S
O37 C36 1.273 . S
O38 Zn29 1.977 . S
O38 C31 1.267 . S
C39 O40 1.160 . S
C39 O46 1.185 . S
O40 C39 1.160 . S
O41 Zn42 1.899 . S
O41 C49 1.284 . S
Zn42 O41 1.899 . S
Zn42 O43 2.032 . S
Zn42 O46 2.086 . S
Zn42 O51 1.977 . S
O43 Zn42 2.032 . S
O43 C47 1.278 . S
C44 O45 1.203 . S
C44 O51 1.267 . S
O45 C44 1.203 . S
O46 C39 1.185 . S
O46 Zn42 2.086 . S
C47 O43 1.278 . S
C47 O48 1.211 . S
O48 C47 1.211 . S
C49 O41 1.284 . S
C49 O50 1.273 . S
O50 C49 1.273 . S
O51 Zn42 1.977 . S
O51 C44 1.267 . S
C52 O53 1.160 . S
C52 O59 1.185 . S
O53 C52 1.160 . S
O54 Zn55 1.899 . S
O54 C62 1.284 . S
Zn55 O54 1.899 . S
Zn55 O56 2.032 . S
Zn55 O59 2.086 . S
Zn55 O64 1.977 . S
O56 Zn55 2.032 . S
O56 C60 1.278 . S
C57 O58 1.203 . S
C57 O64 1.267 . S
O58 C57 1.203 . S
O59 C52 1.185 . S
O59 Zn55 2.086 . S
C60 O56 1.278 . S
C60 O61 1.211 . S
O61 C60 1.211 . S
C62 O54 1.284 . S
C62 O63 1.273 . S
O63 C62 1.273 . S
O64 Zn55 1.977 . S
O64 C57 1.267 . S
C65 O66 1.160 . S
C65 O72 1.185 . S
O66 C65 1.160 . S
O67 Zn68 1.899 . S
O67 C75 1.284 . S
Zn68 O67 1.899 . S
Zn68 O69 2.032 . S
Zn68 O72 2.086 . S
Zn68 O77 1.977 . S
O69 Zn68 2.032 . S
O69 C73 1.278 . S
C70 O71 1.203 . S
C70 O77 1.267 . S
O71 C70 1.203 . S
O72 C65 1.185 . S
O72 Zn68 2.086 . S
C73 O69 1.278 . S
C73 O74 1.211 . S
O74 C73 1.211 . S
C75 O67 1.284 . S
C75 O76 1.273 . S
O76 C75 1.273 . S
O77 Zn68 1.977 . S
O77 C70 1.267 . S
C78 O79 1.160 . S
C78 O85 1.185 . S
O79 C78 1.160 . S
O80 Zn81 1.899 . S
O80 C88 1.284 . S
Zn81 O80 1.899 . S
Zn81 O82 2.032 . S
Zn81 O85 2.086 . S
Zn81 O90 1.977 . S
O82 Zn81 2.032 . S
O82 C86 1.278 . S
C83 O84 1.203 . S
C83 O90 1.267 . S
O84 C83 1.203 . S
O85 C78 1.185 . S
O85 Zn81 2.086 . S
C86 O82 1.278 . S
C86 O87 1.211 . S
O87 C86 1.211 . S
C88 O80 1.284 . S
C88 O89 1.273 . S
O89 C88 1.273 . S
O90 Zn81 1.977 . S
O90 C83 1.267 . S
C91 O92 1.160 . S
C91 O98 1.185 . S
O92 C91 1.160 . S
O93 Zn94 1.899 . S
O93 C101 1.284 . S
Zn94 O93 1.899 . S
Zn94 O95 2.032 . S
Zn94 O98 2.086 . S
Zn94 O103 1.977 . S
O95 Zn94 2.032 . S
O95 C99 1.278 . S
C96 O97 1.203 . S
C96 O103 1.267 . S
O97 C96 1.203 . S
O98 C91 1.185 . S
O98 Zn94 2.086 . S
C99 O95 1.278 . S
C99 O100 1.211 . S
O100 C99 1.211 . S
C101 O93 1.284 . S
C101 O102 1.273 . S
O102 C101 1.273 . S
O103 Zn94 1.977 . S
O103 C96 1.267 . S
C104 O105 1.160 . S
C104 O111 1.185 . S
O105 C104 1.160 . S
O106 Zn107 1.899 . S
O106 C114 1.284 . S
Zn107 O106 1.899 . S
Zn107 O108 2.032 . S
Zn107 O111 2.086 . S
Zn107 O116 1.977 . S
O108 Zn107 2.032 . S
O108 C112 1.278 . S
C109 O110 1.203 . S
C109 O116 1.267 . S
O110 C109 1.203 . S
O111 C104 1.185 . S
O111 Zn107 2.086 . S
C112 O108 1.278 . S
C112 O113 1.211 . S
O113 C112 1.211 . S
C114 O106 1.284 . S
C114 O115 1.273 . S
O115 C114 1.273 . S
O116 Zn107 1.977 . S
O116 C109 1.267 . S
C117 O118 1.160 . S
C117 O124 1.185 . S
O118 C117 1.160 . S
O119 Zn120 1.899 . S
O119 C127 1.284 . S
Zn120 O119 1.899 . S
Zn120 O121 2.032 . S
Zn120 O124 2.086 . S
Zn120 O129 1.977 . S
O121 Zn120 2.032 . S
O121 C125 1.278 . S
C122 O123 1.203 . S
C122 O129 1.267 . S
O123 C122 1.203 . S
O124 C117 1.185 . S
O124 Zn120 2.086 . S
C125 O121 1.278 . S
C125 O126 1.211 . S
O126 C125 1.211 . S
C127 O119 1.284 . S
C127 O128 1.273 . S
O128 C127 1.273 . S
O129 Zn120 1.977 . S
O129 C122 1.267 . S
C130 O131 1.160 . S
C130 O137 1.185 . S
O131 C130 1.160 . S
O132 Zn133 1.899 . S
O132 C140 1.284 . S
Zn133 O132 1.899 . S
Zn133 O134 2.032 . S
Zn133 O137 2.086 . S
Zn133 O142 1.977 . S
O134 Zn133 2.032 . S
O134 C138 1.278 . S
C135 O136 1.203 . S
C135 O142 1.267 . S
O136 C135 1.203 . S
O137 C130 1.185 . S
O137 Zn133 2.086 . S
C138 O134 1.278 . S
C138 O139 1.211 . S
O139 C138 1.211 . S
C140 O132 1.284 . S
C140 O141 1.273 . S
O141 C140 1.273 . S
O142 Zn133 1.977 . S
O142 C135 1.267 . S
C143 O144 1.160 . S
C143 O150 1.185 . S
O144 C143 1.160 . S
O145 Zn146 1.899 . S
O145 C153 1.284 . S
Zn146 O145 1.899 . S
Zn146 O147 2.032 . S
Zn146 O150 2.086 . S
Zn146 O155 1.977 . S
O147 Zn146 2.032 . S
O147 C151 1.278 . S
C148 O149 1.203 . S
C148 O155 1.267 . S
O149 C148 1.203 . S
O150 C143 1.185 . S
O150 Zn146 2.086 . S
C151 O147 1.278 . S
C151 O152 1.211 . S
O152 C151 1.211 . S
C153 O145 1.284 . S
C153 O154 1.273 . S
O154 C153 1.273 . S
O155 Zn146 1.977 . S
O155 C148 1.267 . S
C156 O157 1.160 . S
C156 O163 1.185 . S
O157 C156 1.160 . S
O158 Zn159 1.899 . S
O158 C166 1.284 . S
Zn159 O158 1.899 . S
Zn159 O160 2.032 . S
Zn159 O163 2.086 . S
Zn159 O168 1.977 . S
O160 Zn159 2.032 . S
O160 C164 1.278 . S
C161 O162 1.203 . S
C161 O168 1.267 . S
O162 C161 1.203 . S
O163 C156 1.185 . S
O163 Zn159 2.086 . S
C164 O160 1.278 . S
C164 O165 1.211 . S
O165 C164 1.211 . S
C166 O158 1.284 . S
C166 O167 1.273 . S
O167 C166 1.273 . S
O168 Zn159 1.977 . S
O168 C161 1.267 . S
C169 O170 1.160 . S
C169 O176 1.185 . S
O170 C169 1.160 . S
O171 Zn172 1.899 . S
O171 C179 1.284 . S
Zn172 O171 1.899 . S
Zn172 O173 2.032 . S
Zn172 O176 2.086 . S
Zn172 O181 1.977 . S
O173 Zn172 2.032 . S
O173 C177 1.278 . S
C174 O175 1.203 . S
C174 O181 1.267 . S
O175 C174 1.203 . S
O176 C169 1.185 . S
O176 Zn172 2.086 . S
C177 O173 1.278 . S
C177 O178 1.211 . S
O178 C177 1.211 . S
C179 O171 1.284 . S
C179 O180 1.273 . S
O180 C179 1.273 . S
O181 Zn172 1.977 . S
O181 C174 1.267 . S
C182 O183 1.160 . S
C182 O189 1.185 . S
O183 C182 1.160 . S
O184 Zn185 1.899 . S
O184 C192 1.284 . S
Zn185 O184 1.899 . S
Zn185 O186 2.032 . S
Zn185 O189 2.086 . S
Zn185 O194 1.977 . S
O186 Zn185 2.032 . S
O186 C190 1.278 . S
C187 O188 1.203 . S
C187 O194 1.267 . S
O188 C187 1.203 . S
O189 C182 1.185 . S
O189 Zn185 2.086 . S
C190 O186 1.278 . S
C190 O191 1.211 . S
O191 C190 1.211 . S
C192 O184 1.284 . S
C192 O193 1.273 . S
O193 C192 1.273 . S
O194 Zn185 1.977 . S
O194 C187 1.267 . S
C195 O196 1.160 . S
C195 O202 1.185 . S
O196 C195 1.160 . S
O197 Zn198 1.899 . S
O197 C205 1.284 . S
Zn198 O197 1.899 . S
Zn198 O199 2.032 . S
Zn198 O202 2.086 . S
Zn198 O207 1.977 . S
O199 Zn198 2.032 . S
O199 C203 1.278 . S
C200 O201 1.203 . S
C200 O207 1.267 . S
O201 C200 1.203 . S
O202 C195 1.185 . S
O202 Zn198 2.086 . S
C203 O199 1.278 . S
C203 O204 1.211 . S
O204 C203 1.211 . S
C205 O197 1.284 . S
C205 O206 1.273 . S
O206 C205 1.273 . S
O207 Zn198 1.977 . S
O207 C200 1.267 . S
H208 C220 0.930 . S
H209 C222 0.930 . S
H210 C223 0.930 . S
H211 C227 0.959 . S
H212 C227 0.959 . S
H213 C227 0.961 . S
H214 C228 0.960 . S
H215 C228 0.961 . S
H216 C228 0.959 . S
H217 C231 0.940 . S
H218 C232 0.931 . S
H219 C234 0.930 . S
C220 H208 0.930 . S
C220 C221 1.399 . S
C220 C225 1.399 . S
C221 C220 1.399 . S
C221 C222 1.376 . S
C222 H209 0.930 . S
C222 C221 1.376 . S
C222 C223 1.388 . S
C223 H210 0.930 . S
C223 C222 1.388 . S
C223 C224 1.390 . S
C224 C223 1.390 . S
C224 C225 1.394 . S
C224 C230 1.465 . S
C225 C220 1.399 . S
C225 C224 1.394 . S
C225 C226 1.516 1_565 S
C226 C225 1.516 1_545 S
C226 C227 1.502 . S
C226 C228 1.561 1_545 S
C226 C229 1.526 . S
C227 H211 0.959 . S
C227 H212 0.959 . S
C227 H213 0.961 . S
C227 C226 1.502 . S
C228 H214 0.960 . S
C228 H215 0.961 . S
C228 H216 0.959 . S
C228 C226 1.561 1_565 S
C229 C226 1.526 . S
C229 C230 1.396 1_545 S
C229 C234 1.390 . S
C230 C224 1.465 . S
C230 C229 1.396 1_565 S
C230 C231 1.399 . S
C231 H217 0.940 . S
C231 C230 1.399 . S
C231 C232 1.374 1_565 S
C232 H218 0.931 . S
C232 C231 1.374 1_545 S
C232 C233 1.389 . S
C233 C232 1.389 . S
C233 C234 1.387 . S
C234 H219 0.930 . S
C234 C229 1.390 . S
C234 C233 1.387 . S
H235 C247 0.930 . S
H236 C249 0.930 . S
H237 C250 0.930 . S
H238 C254 0.959 . S
H239 C254 0.959 . S
H240 C254 0.961 . S
H241 C255 0.960 . S
H242 C255 0.966 . S
H243 C255 0.959 . S
H244 C258 0.929 . S
H245 C259 0.931 . S
H246 C261 0.930 . S
C247 H235 0.930 . S
C247 C248 1.399 . S
C247 C252 1.399 . S
C248 C247 1.399 . S
C248 C249 1.376 . S
C249 H236 0.930 . S
C249 C248 1.376 . S
C249 C250 1.388 . S
C250 H237 0.930 . S
C250 C249 1.388 . S
C250 C251 1.390 . S
C251 C250 1.390 . S
C251 C252 1.394 . S
C251 C257 1.465 . S
C252 C247 1.399 . S
C252 C251 1.394 . S
C252 C253 1.516 1_565 S
C253 C252 1.516 1_545 S
C253 C254 1.502 . S
C253 C255 1.561 1_545 S
C253 C256 1.526 . S
C254 H238 0.959 . S
C254 H239 0.959 . S
C254 H240 0.961 . S
C254 C253 1.502 . S
C255 H241 0.960 . S
C255 H242 0.966 . S
C255 H243 0.959 . S
C255 C253 1.561 1_565 S
C256 C253 1.526 . S
C256 C257 1.396 1_545 S
C256 C261 1.390 . S
C257 C251 1.465 . S
C257 C256 1.396 1_565 S
C257 C258 1.399 . S
C258 H244 0.929 . S
C258 C257 1.399 . S
C258 C259 1.385 1_565 S
C259 H245 0.931 . S
C259 C258 1.385 1_545 S
C259 C260 1.389 . S
C260 C259 1.389 . S
C260 C261 1.387 . S
C261 H246 0.930 . S
C261 C256 1.390 . S
C261 C260 1.387 . S
H262 C274 0.930 . S
H263 C276 0.930 . S
H264 C277 0.930 . S
H265 C281 0.959 . S
H266 C281 0.959 . S
H267 C281 0.961 . S
H268 C282 0.960 . S
H269 C282 0.961 . S
H270 C282 0.959 . S
H271 C285 0.929 . S
H272 C286 0.931 . S
H273 C288 0.930 . S
C274 H262 0.930 . S
C274 C275 1.399 . S
C274 C279 1.399 . S
C275 C274 1.399 . S
C275 C276 1.376 . S
C276 H263 0.930 . S
C276 C275 1.376 . S
C276 C277 1.388 1_565 S
C277 H264 0.930 . S
C277 C276 1.388 1_545 S
C277 C278 1.390 . S
C278 C277 1.390 . S
C278 C279 1.394 1_545 S
C278 C284 1.465 . S
C279 C274 1.399 . S
C279 C278 1.394 1_565 S
C279 C280 1.516 . S
C280 C279 1.516 . S
C280 C281 1.502 . S
C280 C282 1.561 1_565 S
C280 C283 1.526 1_565 S
C281 H265 0.959 . S
C281 H266 0.959 . S
C281 H267 0.961 . S
C281 C280 1.502 . S
C282 H268 0.960 . S
C282 H269 0.961 . S
C282 H270 0.959 . S
C282 C280 1.561 1_545 S
C283 C280 1.526 1_545 S
C283 C284 1.396 . S
C283 C288 1.390 . S
C284 C278 1.465 . S
C284 C283 1.396 . S
C284 C285 1.399 . S
C285 H271 0.929 . S
C285 C284 1.399 . S
C285 C286 1.385 . S
C286 H272 0.931 . S
C286 C285 1.385 . S
C286 C287 1.389 . S
C287 C286 1.389 . S
C287 C288 1.387 . S
C288 H273 0.930 . S
C288 C283 1.390 . S
C288 C287 1.387 . S
H289 C301 0.930 . S
H290 C303 0.930 . S
H291 C304 0.930 . S
H292 C308 0.959 . S
H293 C308 0.959 . S
H294 C308 0.961 . S
H295 C309 0.960 . S
H296 C309 0.961 1_545 S
H297 C309 0.959 . S
H298 C312 0.929 . S
H299 C313 0.931 . S
H300 C315 0.930 . S
C301 H289 0.930 . S
C301 C302 1.399 . S
C301 C306 1.399 . S
C302 C301 1.399 . S
C302 C303 1.376 . S
C303 H290 0.930 . S
C303 C302 1.376 . S
C303 C304 1.388 . S
C304 H291 0.930 . S
C304 C303 1.388 . S
C304 C305 1.390 . S
C305 C304 1.390 . S
C305 C306 1.394 . S
C305 C311 1.465 . S
C306 C301 1.399 . S
C306 C305 1.394 . S
C306 C307 1.516 1_565 S
C307 C306 1.516 1_545 S
C307 C308 1.502 . S
C307 C309 1.561 1_545 S
C307 C310 1.526 . S
C308 H292 0.959 . S
C308 H293 0.959 . S
C308 H294 0.961 . S
C308 C307 1.502 . S
C309 H295 0.960 . S
C309 H296 0.961 1_565 S
C309 H297 0.959 . S
C309 C307 1.561 1_565 S
C310 C307 1.526 . S
C310 C311 1.396 1_545 S
C310 C315 1.390 . S
C311 C305 1.465 . S
C311 C310 1.396 1_565 S
C311 C312 1.399 . S
C312 H298 0.929 . S
C312 C311 1.399 . S
C312 C313 1.385 1_565 S
C313 H299 0.931 . S
C313 C312 1.385 1_545 S
C313 C314 1.389 . S
C314 C313 1.389 . S
C314 C315 1.387 . S
C315 H300 0.930 . S
C315 C310 1.390 . S
C315 C314 1.387 . S
H316 C328 0.930 . S
H317 C330 0.930 . S
H318 C331 0.930 . S
H319 C335 0.959 . S
H320 C335 0.959 . S
H321 C335 0.961 . S
H322 C336 0.960 . S
H323 C336 0.961 . S
H324 C336 0.959 . S
H325 C339 0.929 . S
H326 C340 0.931 . S
H327 C342 0.930 . S
C328 H316 0.930 . S
C328 C329 1.399 . S
C328 C333 1.399 . S
C329 C328 1.399 . S
C329 C330 1.376 . S
C330 H317 0.930 . S
C330 C329 1.376 . S
C330 C331 1.388 . S
C331 H318 0.930 . S
C331 C330 1.388 . S
C331 C332 1.390 . S
C332 C331 1.390 . S
C332 C333 1.394 . S
C332 C338 1.465 . S
C333 C328 1.399 . S
C333 C332 1.394 . S
C333 C334 1.516 . S
C334 C333 1.516 . S
C334 C335 1.502 . S
C334 C336 1.561 . S
C334 C337 1.526 . S
C335 H319 0.959 . S
C335 H320 0.959 . S
C335 H321 0.961 . S
C335 C334 1.502 . S
C336 H322 0.960 . S
C336 H323 0.961 . S
C336 H324 0.959 . S
C336 C334 1.561 . S
C337 C334 1.526 . S
C337 C338 1.396 . S
C337 C342 1.390 . S
C338 C332 1.465 . S
C338 C337 1.396 . S
C338 C339 1.399 . S
C339 H325 0.929 . S
C339 C338 1.399 . S
C339 C340 1.385 . S
C340 H326 0.931 . S
C340 C339 1.385 . S
C340 C341 1.389 . S
C341 C340 1.389 . S
C341 C342 1.387 . S
C342 H327 0.930 . S
C342 C337 1.390 . S
C342 C341 1.387 . S
H343 C355 0.930 . S
H344 C357 0.930 . S
H345 C358 0.930 . S
H346 C362 0.959 . S
H347 C362 0.959 . S
H348 C362 0.961 . S
H349 C363 0.960 . S
H350 C363 0.961 . S
H351 C363 0.959 . S
H352 C366 0.929 . S
H353 C367 0.931 . S
H354 C369 0.930 . S
C355 H343 0.930 . S
C355 C356 1.399 . S
C355 C360 1.399 . S
C356 C355 1.399 . S
C356 C357 1.376 . S
C357 H344 0.930 . S
C357 C356 1.376 . S
C357 C358 1.388 . S
C358 H345 0.930 . S
C358 C357 1.388 . S
C358 C359 1.390 . S
C359 C358 1.390 . S
C359 C360 1.394 . S
C359 C365 1.465 . S
C360 C355 1.399 . S
C360 C359 1.394 . S
C360 C361 1.516 . S
C361 C360 1.516 . S
C361 C362 1.502 . S
C361 C363 1.561 . S
C361 C364 1.526 . S
C362 H346 0.959 . S
C362 H347 0.959 . S
C362 H348 0.961 . S
C362 C361 1.502 . S
C363 H349 0.960 . S
C363 H350 0.961 . S
C363 H351 0.959 . S
C363 C361 1.561 . S
C364 C361 1.526 . S
C364 C365 1.396 . S
C364 C369 1.390 . S
C365 C359 1.465 . S
C365 C364 1.396 . S
C365 C366 1.399 . S
C366 H352 0.929 . S
C366 C365 1.399 . S
C366 C367 1.385 . S
C367 H353 0.931 . S
C367 C366 1.385 . S
C367 C368 1.389 . S
C368 C367 1.389 . S
C368 C369 1.387 . S
C369 H354 0.930 . S
C369 C364 1.390 . S
C369 C368 1.387 . S
H370 C382 0.930 . S
H371 C384 0.930 . S
H372 C385 0.930 . S
H373 C389 0.959 . S
H374 C389 0.959 . S
H375 C389 0.961 . S
H376 C390 0.960 . S
H377 C390 0.961 . S
H378 C390 0.959 . S
H379 C393 0.929 . S
H380 C394 0.931 . S
H381 C396 0.930 . S
C382 H370 0.930 . S
C382 C383 1.399 . S
C382 C387 1.399 . S
C383 C382 1.399 . S
C383 C384 1.376 . S
C384 H371 0.930 . S
C384 C383 1.376 . S
C384 C385 1.388 . S
C385 H372 0.930 . S
C385 C384 1.388 . S
C385 C386 1.390 . S
C386 C385 1.390 . S
C386 C387 1.394 . S
C386 C392 1.465 . S
C387 C382 1.399 . S
C387 C386 1.394 . S
C387 C388 1.516 . S
C388 C387 1.516 . S
C388 C389 1.502 . S
C388 C390 1.561 . S
C388 C391 1.526 . S
C389 H373 0.959 . S
C389 H374 0.959 . S
C389 H375 0.961 . S
C389 C388 1.502 . S
C390 H376 0.960 . S
C390 H377 0.961 . S
C390 H378 0.959 . S
C390 C388 1.561 . S
C391 C388 1.526 . S
C391 C392 1.396 . S
C391 C396 1.390 . S
C392 C386 1.465 . S
C392 C391 1.396 . S
C392 C393 1.399 . S
C393 H379 0.929 . S
C393 C392 1.399 . S
C393 C394 1.385 . S
C394 H380 0.931 . S
C394 C393 1.385 . S
C394 C395 1.389 . S
C395 C394 1.389 . S
C395 C396 1.387 . S
C396 H381 0.930 . S
C396 C391 1.390 . S
C396 C395 1.387 . S
H397 C409 0.930 . S
H398 C411 0.930 . S
H399 C412 0.930 . S
H400 C416 0.959 . S
H401 C416 0.959 . S
H402 C416 0.961 . S
H403 C417 0.960 . S
H404 C417 0.961 . S
H405 C417 0.959 . S
H406 C420 0.929 . S
H407 C421 0.931 . S
H408 C423 0.930 . S
C409 H397 0.930 . S
C409 C410 1.399 . S
C409 C414 1.399 . S
C410 C409 1.399 . S
C410 C411 1.376 . S
C411 H398 0.930 . S
C411 C410 1.376 . S
C411 C412 1.388 . S
C412 H399 0.930 . S
C412 C411 1.388 . S
C412 C413 1.390 . S
C413 C412 1.390 . S
C413 C414 1.394 . S
C413 C419 1.465 . S
C414 C409 1.399 . S
C414 C413 1.394 . S
C414 C415 1.516 . S
C415 C414 1.516 . S
C415 C416 1.502 . S
C415 C417 1.561 . S
C415 C418 1.526 . S
C416 H400 0.959 . S
C416 H401 0.959 . S
C416 H402 0.961 . S
C416 C415 1.502 . S
C417 H403 0.960 . S
C417 H404 0.961 . S
C417 H405 0.959 . S
C417 C415 1.561 . S
C418 C415 1.526 . S
C418 C419 1.396 . S
C418 C423 1.390 . S
C419 C413 1.465 . S
C419 C418 1.396 . S
C419 C420 1.399 . S
C420 H406 0.929 . S
C420 C419 1.399 . S
C420 C421 1.385 . S
C421 H407 0.931 . S
C421 C420 1.385 . S
C421 C422 1.389 . S
C422 C421 1.389 . S
C422 C423 1.387 . S
C423 H408 0.930 . S
C423 C418 1.390 . S
C423 C422 1.387 . S
H424 C436 0.930 . S
H425 C438 0.930 . S
H426 C439 0.930 . S
H427 C443 0.959 . S
H428 C443 0.959 . S
H429 C443 0.961 . S
H430 C444 0.967 . S
H431 C444 0.965 . S
H432 C444 0.980 . S
H433 C447 0.929 . S
H434 C448 0.931 . S
H435 C450 0.930 . S
C436 H424 0.930 . S
C436 C437 1.399 1_455 S
C436 C441 1.399 . S
C437 C436 1.399 1_655 S
C437 C438 1.376 . S
C438 H425 0.930 . S
C438 C437 1.376 . S
C438 C439 1.388 . S
C439 H426 0.930 . S
C439 C438 1.388 . S
C439 C440 1.390 . S
C440 C439 1.390 . S
C440 C441 1.394 1_655 S
C440 C446 1.465 . S
C441 C436 1.399 . S
C441 C440 1.394 1_455 S
C441 C442 1.516 . S
C442 C441 1.516 . S
C442 C443 1.502 . S
C442 C444 1.530 1_545 S
C442 C445 1.526 . S
C443 H427 0.959 . S
C443 H428 0.959 . S
C443 H429 0.961 . S
C443 C442 1.502 . S
C444 H430 0.967 . S
C444 H431 0.965 . S
C444 H432 0.980 . S
C444 C442 1.530 1_565 S
C445 C442 1.526 . S
C445 C446 1.396 1_455 S
C445 C450 1.390 . S
C446 C440 1.465 . S
C446 C445 1.396 1_655 S
C446 C447 1.399 . S
C447 H433 0.929 . S
C447 C446 1.399 . S
C447 C448 1.385 . S
C448 H434 0.931 . S
C448 C447 1.385 . S
C448 C449 1.389 1_655 S
C449 C448 1.389 1_455 S
C449 C450 1.387 . S
C450 H435 0.930 . S
C450 C445 1.390 . S
C450 C449 1.387 . S
H451 C463 0.930 . S
H452 C465 0.930 . S
H453 C466 0.930 1_545 S
H454 C470 0.959 . S
H455 C470 0.959 . S
H456 C470 0.961 . S
H457 C471 0.960 . S
H458 C471 0.961 . S
H459 C471 0.959 . S
H460 C474 0.929 1_545 S
H461 C475 0.931 . S
H462 C477 0.930 . S
C463 H451 0.930 . S
C463 C464 1.399 . S
C463 C468 1.399 . S
C464 C463 1.399 . S
C464 C465 1.376 . S
C465 H452 0.930 . S
C465 C464 1.376 . S
C465 C466 1.388 . S
C466 H453 0.930 1_565 S
C466 C465 1.388 . S
C466 C467 1.390 . S
C467 C466 1.390 . S
C467 C468 1.394 . S
C467 C473 1.465 . S
C468 C463 1.399 . S
C468 C467 1.394 . S
C468 C469 1.516 . S
C469 C468 1.516 . S
C469 C470 1.502 . S
C469 C471 1.561 . S
C469 C472 1.526 . S
C470 H454 0.959 . S
C470 H455 0.959 . S
C470 H456 0.961 . S
C470 C469 1.502 . S
C471 H457 0.960 . S
C471 H458 0.961 . S
C471 H459 0.959 . S
C471 C469 1.561 . S
C472 C469 1.526 . S
C472 C473 1.396 . S
C472 C477 1.390 . S
C473 C467 1.465 . S
C473 C472 1.396 . S
C473 C474 1.399 . S
C474 H460 0.929 1_565 S
C474 C473 1.399 . S
C474 C475 1.385 . S
C475 H461 0.931 . S
C475 C474 1.385 . S
C475 C476 1.389 . S
C476 C475 1.389 . S
C476 C477 1.387 . S
C477 H462 0.930 . S
C477 C472 1.390 . S
C477 C476 1.387 . S
H478 C490 0.936 . S
H479 C492 0.920 1_545 S
H480 C493 0.930 1_545 S
H481 C497 0.959 . S
H482 C497 0.959 . S
H483 C497 0.961 . S
H484 C498 0.960 . S
H485 C498 0.961 1_655 S
H486 C498 0.959 . S
H487 C501 0.929 1_545 S
H488 C502 0.931 1_545 S
H489 C504 0.930 . S
C490 H478 0.936 . S
C490 C491 1.399 . S
C490 C495 1.399 . S
C491 C490 1.399 . S
C491 C492 1.376 . S
C492 H479 0.920 1_565 S
C492 C491 1.376 . S
C492 C493 1.388 . S
C493 H480 0.930 1_565 S
C493 C492 1.388 . S
C493 C494 1.390 . S
C494 C493 1.390 . S
C494 C495 1.394 . S
C494 C500 1.465 . S
C495 C490 1.399 . S
C495 C494 1.394 . S
C495 C496 1.516 1_455 S
C496 C495 1.516 1_655 S
C496 C497 1.502 . S
C496 C498 1.561 1_655 S
C496 C499 1.526 . S
C497 H481 0.959 . S
C497 H482 0.959 . S
C497 H483 0.961 . S
C497 C496 1.502 . S
C498 H484 0.960 . S
C498 H485 0.961 1_455 S
C498 H486 0.959 . S
C498 C496 1.561 1_455 S
C499 C496 1.526 . S
C499 C500 1.396 1_655 S
C499 C504 1.390 . S
C500 C494 1.465 . S
C500 C499 1.396 1_455 S
C500 C501 1.399 . S
C501 H487 0.929 1_565 S
C501 C500 1.399 . S
C501 C502 1.385 1_455 S
C502 H488 0.931 1_565 S
C502 C501 1.385 1_655 S
C502 C503 1.389 . S
C503 C502 1.389 . S
C503 C504 1.387 . S
C504 H489 0.930 . S
C504 C499 1.390 . S
C504 C503 1.387 . S
H505 C517 0.930 . S
H506 C519 0.930 . S
H507 C520 0.930 . S
H508 C524 0.959 . S
H509 C524 0.959 . S
H510 C524 0.961 . S
H511 C525 0.960 . S
H512 C525 0.961 . S
H513 C525 0.959 . S
H514 C528 0.929 . S
H515 C529 0.931 . S
H516 C531 0.930 . S
C517 H505 0.930 . S
C517 C518 1.399 . S
C517 C522 1.399 . S
C518 C517 1.399 . S
C518 C519 1.376 . S
C519 H506 0.930 . S
C519 C518 1.376 . S
C519 C520 1.388 . S
C520 H507 0.930 . S
C520 C519 1.388 . S
C520 C521 1.390 . S
C521 C520 1.390 . S
C521 C522 1.394 . S
C521 C527 1.465 . S
C522 C517 1.399 . S
C522 C521 1.394 . S
C522 C523 1.516 . S
C523 C522 1.516 . S
C523 C524 1.502 . S
C523 C525 1.561 . S
C523 C526 1.526 . S
C524 H508 0.959 . S
C524 H509 0.959 . S
C524 H510 0.961 . S
C524 C523 1.502 . S
C525 H511 0.960 . S
C525 H512 0.961 . S
C525 H513 0.959 . S
C525 C523 1.561 . S
C526 C523 1.526 . S
C526 C527 1.396 . S
C526 C531 1.390 . S
C527 C521 1.465 . S
C527 C526 1.396 . S
C527 C528 1.399 . S
C528 H514 0.929 . S
C528 C527 1.399 . S
C528 C529 1.385 . S
C529 H515 0.931 . S
C529 C528 1.385 . S
C529 C530 1.389 . S
C530 C529 1.389 . S
C530 C531 1.387 . S
C531 H516 0.930 . S
C531 C526 1.390 . S
C531 C530 1.387 . S
H532 C544 0.930 . S
H533 C546 0.930 . S
H534 C547 0.930 . S
H535 C551 0.959 . S
H536 C551 0.959 . S
H537 C551 0.961 . S
H538 C552 0.960 . S
H539 C552 0.961 . S
H540 C552 0.959 . S
H541 C555 0.929 . S
H542 C556 0.931 . S
H543 C558 0.930 . S
C544 H532 0.930 . S
C544 C545 1.399 . S
C544 C549 1.399 . S
C545 C544 1.399 . S
C545 C546 1.376 . S
C546 H533 0.930 . S
C546 C545 1.376 . S
C546 C547 1.388 . S
C547 H534 0.930 . S
C547 C546 1.388 . S
C547 C548 1.390 . S
C548 C547 1.390 . S
C548 C549 1.394 . S
C548 C554 1.465 . S
C549 C544 1.399 . S
C549 C548 1.394 . S
C549 C550 1.516 . S
C550 C549 1.516 . S
C550 C551 1.502 . S
C550 C552 1.561 . S
C550 C553 1.526 . S
C551 H535 0.959 . S
C551 H536 0.959 . S
C551 H537 0.961 . S
C551 C550 1.502 . S
C552 H538 0.960 . S
C552 H539 0.961 . S
C552 H540 0.959 . S
C552 C550 1.561 . S
C553 C550 1.526 . S
C553 C554 1.396 . S
C553 C558 1.390 . S
C554 C548 1.465 . S
C554 C553 1.396 . S
C554 C555 1.399 . S
C555 H541 0.929 . S
C555 C554 1.399 . S
C555 C556 1.385 . S
C556 H542 0.931 . S
C556 C555 1.385 . S
C556 C557 1.389 . S
C557 C556 1.389 . S
C557 C558 1.387 . S
C558 H543 0.930 . S
C558 C553 1.390 . S
C558 C557 1.387 . S
H559 C571 0.930 . S
H560 C573 0.930 . S
H561 C574 0.930 . S
H562 C578 0.959 . S
H563 C578 0.959 . S
H564 C578 0.961 . S
H565 C579 0.960 . S
H566 C579 0.961 . S
H567 C579 0.959 . S
H568 C582 0.923 1_455 S
H569 C583 0.931 . S
H570 C585 0.930 . S
C571 H559 0.930 . S
C571 C572 1.399 . S
C571 C576 1.399 . S
C572 C571 1.399 . S
C572 C573 1.376 . S
C573 H560 0.930 . S
C573 C572 1.376 . S
C573 C574 1.388 . S
C574 H561 0.930 . S
C574 C573 1.388 . S
C574 C575 1.390 . S
C575 C574 1.390 . S
C575 C576 1.394 . S
C575 C581 1.462 1_455 S
C576 C571 1.399 . S
C576 C575 1.394 . S
C576 C577 1.518 . S
C577 C576 1.518 . S
C577 C578 1.497 1_455 S
C577 C579 1.566 . S
C577 C580 1.525 1_455 S
C578 H562 0.959 . S
C578 H563 0.959 . S
C578 H564 0.961 . S
C578 C577 1.497 1_655 S
C579 H565 0.960 . S
C579 H566 0.961 . S
C579 H567 0.959 . S
C579 C577 1.566 . S
C580 C577 1.525 1_655 S
C580 C581 1.398 . S
C580 C585 1.390 . S
C581 C575 1.462 1_655 S
C581 C580 1.398 . S
C581 C582 1.400 . S
C582 H568 0.923 1_655 S
C582 C581 1.400 . S
C582 C583 1.385 . S
C583 H569 0.931 . S
C583 C582 1.385 . S
C583 C584 1.389 . S
C584 C583 1.389 . S
C584 C585 1.387 . S
C585 H570 0.930 . S
C585 C580 1.390 . S
C585 C584 1.387 . S
H586 C598 0.930 . S
H587 C600 0.930 . S
H588 C601 0.930 . S
H589 C605 0.959 . S
H590 C605 0.959 . S
H591 C605 0.961 . S
H592 C606 0.960 . S
H593 C606 0.961 . S
H594 C606 0.959 . S
H595 C609 0.929 . S
H596 C610 0.931 . S
H597 C612 0.930 . S
C598 H586 0.930 . S
C598 C599 1.399 . S
C598 C603 1.399 . S
C599 C598 1.399 . S
C599 C600 1.376 . S
C600 H587 0.930 . S
C600 C599 1.376 . S
C600 C601 1.388 . S
C601 H588 0.930 . S
C601 C600 1.388 . S
C601 C602 1.390 . S
C602 C601 1.390 . S
C602 C603 1.394 . S
C602 C608 1.465 . S
C603 C598 1.399 . S
C603 C602 1.394 . S
C603 C604 1.516 . S
C604 C603 1.516 . S
C604 C605 1.502 . S
C604 C606 1.561 . S
C604 C607 1.526 . S
C605 H589 0.959 . S
C605 H590 0.959 . S
C605 H591 0.961 . S
C605 C604 1.502 . S
C606 H592 0.960 . S
C606 H593 0.961 . S
C606 H594 0.959 . S
C606 C604 1.561 . S
C607 C604 1.526 . S
C607 C608 1.396 . S
C607 C612 1.390 . S
C608 C602 1.465 . S
C608 C607 1.396 . S
C608 C609 1.399 . S
C609 H595 0.929 . S
C609 C608 1.399 . S
C609 C610 1.385 . S
C610 H596 0.931 . S
C610 C609 1.385 . S
C610 C611 1.389 . S
C611 C610 1.389 . S
C611 C612 1.387 . S
C612 H597 0.930 . S
C612 C607 1.390 . S
C612 C611 1.387 . S
H613 C625 0.930 1_655 S
H614 C627 0.930 . S
H615 C628 0.930 . S
H616 C632 0.959 . S
H617 C632 0.959 . S
H618 C632 0.961 . S
H619 C633 0.960 . S
H620 C633 0.961 . S
H621 C633 0.959 1_455 S
H622 C636 0.929 . S
H623 C637 0.936 . S
H624 C639 0.930 . S
C625 H613 0.930 1_455 S
C625 C626 1.399 . S
C625 C630 1.399 . S
C626 C625 1.399 . S
C626 C627 1.376 . S
C627 H614 0.930 . S
C627 C626 1.376 . S
C627 C628 1.388 . S
C628 H615 0.930 . S
C628 C627 1.388 . S
C628 C629 1.390 . S
C629 C628 1.390 . S
C629 C630 1.394 . S
C629 C635 1.465 . S
C630 C625 1.399 . S
C630 C629 1.394 . S
C630 C631 1.516 1_455 S
C631 C630 1.516 1_655 S
C631 C632 1.502 . S
C631 C633 1.561 . S
C631 C634 1.526 . S
C632 H616 0.959 . S
C632 H617 0.959 . S
C632 H618 0.961 . S
C632 C631 1.502 . S
C633 H619 0.960 . S
C633 H620 0.961 . S
C633 H621 0.959 1_655 S
C633 C631 1.561 . S
C634 C631 1.526 . S
C634 C635 1.396 1_655 S
C634 C639 1.390 . S
C635 C629 1.465 . S
C635 C634 1.396 1_455 S
C635 C636 1.399 . S
C636 H622 0.929 . S
C636 C635 1.399 . S
C636 C637 1.395 . S
C637 H623 0.936 . S
C637 C636 1.395 . S
C637 C638 1.374 1_455 S
C638 C637 1.374 1_655 S
C638 C639 1.387 . S
C639 H624 0.930 . S
C639 C634 1.390 . S
C639 C638 1.387 . S
H640 C652 0.930 . S
H641 C654 0.930 . S
H642 C655 0.930 . S
H643 C659 0.959 . S
H644 C659 0.959 . S
H645 C659 0.961 . S
H646 C660 0.960 . S
H647 C660 0.961 . S
H648 C660 0.959 . S
H649 C663 0.929 . S
H650 C664 0.931 . S
H651 C666 0.930 . S
C652 H640 0.930 . S
C652 C653 1.399 . S
C652 C657 1.399 . S
C653 C652 1.399 . S
C653 C654 1.376 . S
C654 H641 0.930 . S
C654 C653 1.376 . S
C654 C655 1.388 1_455 S
C655 H642 0.930 . S
C655 C654 1.388 1_655 S
C655 C656 1.389 1_655 S
C656 C655 1.389 1_455 S
C656 C657 1.395 . S
C656 C662 1.464 1_455 S
C657 C652 1.399 . S
C657 C656 1.395 . S
C657 C658 1.516 . S
C658 C657 1.516 . S
C658 C659 1.502 . S
C658 C660 1.561 . S
C658 C661 1.503 1_455 S
C659 H643 0.959 . S
C659 H644 0.959 . S
C659 H645 0.961 . S
C659 C658 1.502 . S
C660 H646 0.960 . S
C660 H647 0.961 . S
C660 H648 0.959 . S
C660 C658 1.561 . S
C661 C658 1.503 1_655 S
C661 C662 1.410 . S
C661 C666 1.400 . S
C662 C656 1.464 1_655 S
C662 C661 1.410 . S
C662 C663 1.399 . S
C663 H649 0.929 . S
C663 C662 1.399 . S
C663 C664 1.385 . S
C664 H650 0.931 . S
C664 C663 1.385 . S
C664 C665 1.389 . S
C665 C664 1.389 . S
C665 C666 1.387 . S
C666 H651 0.930 . S
C666 C661 1.400 . S
C666 C665 1.387 . S
H667 C679 0.930 . S
H668 C681 0.930 . S
H669 C682 0.930 . S
H670 C686 0.959 . S
H671 C686 0.959 . S
H672 C686 0.961 . S
H673 C687 0.960 . S
H674 C687 0.961 . S
H675 C687 0.959 . S
H676 C690 0.929 . S
H677 C691 0.931 . S
H678 C693 0.930 . S
C679 H667 0.930 . S
C679 C680 1.399 . S
C679 C684 1.399 . S
C680 C679 1.399 . S
C680 C681 1.376 . S
C681 H668 0.930 . S
C681 C680 1.376 . S
C681 C682 1.388 . S
C682 H669 0.930 . S
C682 C681 1.388 . S
C682 C683 1.390 . S
C683 C682 1.390 . S
C683 C684 1.394 . S
C683 C689 1.465 . S
C684 C679 1.399 . S
C684 C683 1.394 . S
C684 C685 1.516 . S
C685 C684 1.516 . S
C685 C686 1.502 . S
C685 C687 1.561 . S
C685 C688 1.526 . S
C686 H670 0.959 . S
C686 H671 0.959 . S
C686 H672 0.961 . S
C686 C685 1.502 . S
C687 H673 0.960 . S
C687 H674 0.961 . S
C687 H675 0.959 . S
C687 C685 1.561 . S
C688 C685 1.526 . S
C688 C689 1.396 . S
C688 C693 1.390 . S
C689 C683 1.465 . S
C689 C688 1.396 . S
C689 C690 1.399 . S
C690 H676 0.929 . S
C690 C689 1.399 . S
C690 C691 1.385 . S
C691 H677 0.931 . S
C691 C690 1.385 . S
C691 C692 1.389 . S
C692 C691 1.389 . S
C692 C693 1.387 . S
C693 H678 0.930 . S
C693 C688 1.390 . S
C693 C692 1.387 . S
H694 C706 0.930 . S
H695 C708 0.930 . S
H696 C709 0.930 . S
H697 C713 0.959 . S
H698 C713 0.959 . S
H699 C713 0.961 . S
H700 C714 0.960 . S
H701 C714 0.961 . S
H702 C714 0.959 . S
H703 C717 0.929 . S
H704 C718 0.931 . S
H705 C720 0.930 . S
C706 H694 0.930 . S
C706 C707 1.399 . S
C706 C711 1.399 . S
C707 C706 1.399 . S
C707 C708 1.376 . S
C708 H695 0.930 . S
C708 C707 1.376 . S
C708 C709 1.388 . S
C709 H696 0.930 . S
C709 C708 1.388 . S
C709 C710 1.390 . S
C710 C709 1.390 . S
C710 C711 1.394 . S
C710 C716 1.465 . S
C711 C706 1.399 . S
C711 C710 1.394 . S
C711 C712 1.516 . S
C712 C711 1.516 . S
C712 C713 1.502 . S
C712 C714 1.561 . S
C712 C715 1.526 . S
C713 H697 0.959 . S
C713 H698 0.959 . S
C713 H699 0.961 . S
C713 C712 1.502 . S
C714 H700 0.960 . S
C714 H701 0.961 . S
C714 H702 0.959 . S
C714 C712 1.561 . S
C715 C712 1.526 . S
C715 C716 1.396 . S
C715 C720 1.390 . S
C716 C710 1.465 . S
C716 C715 1.396 . S
C716 C717 1.399 . S
C717 H703 0.929 . S
C717 C716 1.399 . S
C717 C718 1.385 . S
C718 H704 0.931 . S
C718 C717 1.385 . S
C718 C719 1.389 . S
C719 C718 1.389 . S
C719 C720 1.387 . S
C720 H705 0.930 . S
C720 C715 1.390 . S
C720 C719 1.387 . S
H721 C733 0.930 . S
H722 C735 0.930 . S
H723 C736 0.930 . S
H724 C740 0.959 . S
H725 C740 0.959 . S
H726 C740 0.961 . S
H727 C741 0.960 . S
H728 C741 0.961 . S
H729 C741 0.959 . S
H730 C744 0.929 1_455 S
H731 C745 0.931 . S
H732 C747 0.930 . S
C733 H721 0.930 . S
C733 C734 1.399 . S
C733 C738 1.399 . S
C734 C733 1.399 . S
C734 C735 1.376 . S
C735 H722 0.930 . S
C735 C734 1.376 . S
C735 C736 1.388 . S
C736 H723 0.930 . S
C736 C735 1.388 . S
C736 C737 1.390 . S
C737 C736 1.390 . S
C737 C738 1.394 . S
C737 C743 1.469 . S
C738 C733 1.399 . S
C738 C737 1.394 . S
C738 C739 1.516 1_455 S
C739 C738 1.516 1_655 S
C739 C740 1.502 . S
C739 C741 1.561 1_655 S
C739 C742 1.526 . S
C740 H724 0.959 . S
C740 H725 0.959 . S
C740 H726 0.961 . S
C740 C739 1.502 . S
C741 H727 0.960 . S
C741 H728 0.961 . S
C741 H729 0.959 . S
C741 C739 1.561 1_455 S
C742 C739 1.526 . S
C742 C743 1.392 1_655 S
C742 C747 1.390 . S
C743 C737 1.469 . S
C743 C742 1.392 1_455 S
C743 C744 1.398 1_455 S
C744 H730 0.929 1_655 S
C744 C743 1.398 1_655 S
C744 C745 1.385 . S
C745 H731 0.931 . S
C745 C744 1.385 . S
C745 C746 1.389 . S
C746 C745 1.389 . S
C746 C747 1.387 . S
C747 H732 0.930 . S
C747 C742 1.390 . S
C747 C746 1.387 . S
H748 C760 0.930 . S
H749 C762 0.930 . S
H750 C763 0.930 . S
H751 C767 0.959 . S
H752 C767 0.959 . S
H753 C767 0.961 . S
H754 C768 0.960 . S
H755 C768 0.961 . S
H756 C768 0.959 . S
H757 C771 0.929 . S
H758 C772 0.931 . S
H759 C774 0.930 . S
C760 H748 0.930 . S
C760 C761 1.399 . S
C760 C765 1.399 . S
C761 C760 1.399 . S
C761 C762 1.376 . S
C762 H749 0.930 . S
C762 C761 1.376 . S
C762 C763 1.388 . S
C763 H750 0.930 . S
C763 C762 1.388 . S
C763 C764 1.390 . S
C764 C763 1.390 . S
C764 C765 1.394 . S
C764 C770 1.465 1_455 S
C765 C760 1.399 . S
C765 C764 1.394 . S
C765 C766 1.516 . S
C766 C765 1.516 . S
C766 C767 1.502 1_455 S
C766 C768 1.561 . S
C766 C769 1.526 1_455 S
C767 H751 0.959 . S
C767 H752 0.959 . S
C767 H753 0.961 . S
C767 C766 1.502 1_655 S
C768 H754 0.960 . S
C768 H755 0.961 . S
C768 H756 0.959 . S
C768 C766 1.561 . S
C769 C766 1.526 1_655 S
C769 C770 1.396 . S
C769 C774 1.390 . S
C770 C764 1.465 1_655 S
C770 C769 1.396 . S
C770 C771 1.399 . S
C771 H757 0.929 . S
C771 C770 1.399 . S
C771 C772 1.385 . S
C772 H758 0.931 . S
C772 C771 1.385 . S
C772 C773 1.389 . S
C773 C772 1.389 . S
C773 C774 1.387 . S
C774 H759 0.930 . S
C774 C769 1.390 . S
C774 C773 1.387 . S
H775 C787 0.930 . S
H776 C789 0.930 . S
H777 C790 0.930 . S
H778 C794 0.959 . S
H779 C794 0.959 . S
H780 C794 0.961 . S
H781 C795 0.960 . S
H782 C795 0.961 . S
H783 C795 0.959 . S
H784 C798 0.929 . S
H785 C799 0.931 . S
H786 C801 0.930 . S
C787 H775 0.930 . S
C787 C788 1.399 . S
C787 C792 1.399 . S
C788 C787 1.399 . S
C788 C789 1.376 . S
C789 H776 0.930 . S
C789 C788 1.376 . S
C789 C790 1.388 . S
C790 H777 0.930 . S
C790 C789 1.388 . S
C790 C791 1.390 . S
C791 C790 1.390 . S
C791 C792 1.394 . S
C791 C797 1.465 . S
C792 C787 1.399 . S
C792 C791 1.394 . S
C792 C793 1.516 . S
C793 C792 1.516 . S
C793 C794 1.502 . S
C793 C795 1.561 . S
C793 C796 1.526 . S
C794 H778 0.959 . S
C794 H779 0.959 . S
C794 H780 0.961 . S
C794 C793 1.502 . S
C795 H781 0.960 . S
C795 H782 0.961 . S
C795 H783 0.959 . S
C795 C793 1.561 . S
C796 C793 1.526 . S
C796 C797 1.396 . S
C796 C801 1.390 . S
C797 C791 1.465 . S
C797 C796 1.396 . S
C797 C798 1.399 . S
C798 H784 0.929 . S
C798 C797 1.399 . S
C798 C799 1.385 . S
C799 H785 0.931 . S
C799 C798 1.385 . S
C799 C800 1.389 . S
C800 C799 1.389 . S
C800 C801 1.387 . S
C801 H786 0.930 . S
C801 C796 1.390 . S
C801 C800 1.387 . S
H802 C814 0.930 . S
H803 C816 0.930 . S
H804 C817 0.930 . S
H805 C821 0.959 . S
H806 C821 0.959 . S
H807 C821 0.961 . S
H808 C822 0.960 . S
H809 C822 0.961 . S
H810 C822 0.959 . S
H811 C825 0.929 . S
H812 C826 0.931 . S
H813 C828 0.930 . S
C814 H802 0.930 . S
C814 C815 1.399 . S
C814 C819 1.399 . S
C815 C814 1.399 . S
C815 C816 1.376 . S
C816 H803 0.930 . S
C816 C815 1.376 . S
C816 C817 1.388 . S
C817 H804 0.930 . S
C817 C816 1.388 . S
C817 C818 1.390 . S
C818 C817 1.390 . S
C818 C819 1.394 . S
C818 C824 1.465 . S
C819 C814 1.399 . S
C819 C818 1.394 . S
C819 C820 1.516 . S
C820 C819 1.516 . S
C820 C821 1.502 . S
C820 C822 1.561 . S
C820 C823 1.526 . S
C821 H805 0.959 . S
C821 H806 0.959 . S
C821 H807 0.961 . S
C821 C820 1.502 . S
C822 H808 0.960 . S
C822 H809 0.961 . S
C822 H810 0.959 . S
C822 C820 1.561 . S
C823 C820 1.526 . S
C823 C824 1.396 . S
C823 C828 1.390 . S
C824 C818 1.465 . S
C824 C823 1.396 . S
C824 C825 1.399 . S
C825 H811 0.929 . S
C825 C824 1.399 . S
C825 C826 1.385 . S
C826 H812 0.931 . S
C826 C825 1.385 . S
C826 C827 1.389 . S
C827 C826 1.389 . S
C827 C828 1.387 . S
C828 H813 0.930 . S
C828 C823 1.390 . S
C828 C827 1.387 . S
H829 C841 0.930 1_655 S
H830 C843 0.930 . S
H831 C844 0.930 . S
H832 C848 0.959 . S
H833 C848 0.959 . S
H834 C848 0.961 . S
H835 C849 0.960 . S
H836 C849 0.961 . S
H837 C849 0.959 . S
H838 C852 0.929 . S
H839 C853 0.940 . S
H840 C855 0.930 . S
C841 H829 0.930 1_455 S
C841 C842 1.399 . S
C841 C846 1.393 1_455 S
C842 C841 1.399 . S
C842 C843 1.376 . S
C843 H830 0.930 . S
C843 C842 1.376 . S
C843 C844 1.388 . S
C844 H831 0.930 . S
C844 C843 1.388 . S
C844 C845 1.390 . S
C845 C844 1.390 . S
C845 C846 1.382 1_455 S
C845 C851 1.465 . S
C846 C841 1.393 1_655 S
C846 C845 1.382 1_655 S
C846 C847 1.534 . S
C847 C846 1.534 . S
C847 C848 1.502 . S
C847 C849 1.561 . S
C847 C850 1.526 . S
C848 H832 0.959 . S
C848 H833 0.959 . S
C848 H834 0.961 . S
C848 C847 1.502 . S
C849 H835 0.960 . S
C849 H836 0.961 . S
C849 H837 0.959 . S
C849 C847 1.561 . S
C850 C847 1.526 . S
C850 C851 1.396 1_655 S
C850 C855 1.390 . S
C851 C845 1.465 . S
C851 C850 1.396 1_455 S
C851 C852 1.399 . S
C852 H838 0.929 . S
C852 C851 1.399 . S
C852 C853 1.385 1_455 S
C853 H839 0.940 . S
C853 C852 1.385 1_655 S
C853 C854 1.389 . S
C854 C853 1.389 . S
C854 C855 1.387 . S
C855 H840 0.930 . S
C855 C850 1.390 . S
C855 C854 1.387 . S
H856 C868 0.930 . S
H857 C870 0.930 . S
H858 C871 0.930 . S
H859 C875 0.959 1_545 S
H860 C875 0.959 . S
H861 C875 0.961 . S
H862 C876 0.960 . S
H863 C876 0.961 . S
H864 C876 0.959 . S
H865 C879 0.929 . S
H866 C880 0.931 . S
H867 C882 0.919 1_665 S
C868 H856 0.930 . S
C868 C869 1.399 . S
C868 C873 1.399 . S
C869 C868 1.399 . S
C869 C870 1.376 1_655 S
C870 H857 0.930 . S
C870 C869 1.376 1_455 S
C870 C871 1.388 1_565 S
C871 H858 0.930 . S
C871 C870 1.388 1_545 S
C871 C872 1.387 1_545 S
C872 C871 1.387 1_565 S
C872 C873 1.402 1_455 S
C872 C878 1.460 1_566 S
C873 C868 1.399 . S
C873 C872 1.402 1_655 S
C873 C874 1.516 1_556 S
C874 C873 1.516 1_554 S
C874 C875 1.502 . S
C874 C876 1.561 . S
C874 C877 1.526 . S
C875 H859 0.959 1_565 S
C875 H860 0.959 . S
C875 H861 0.961 . S
C875 C874 1.502 . S
C876 H862 0.960 . S
C876 H863 0.961 . S
C876 H864 0.959 . S
C876 C874 1.561 . S
C877 C874 1.526 . S
C877 C878 1.396 1_665 S
C877 C882 1.388 1_665 S
C878 C872 1.460 1_544 S
C878 C877 1.396 1_445 S
C878 C879 1.399 . S
C879 H865 0.929 . S
C879 C878 1.399 . S
C879 C880 1.385 . S
C880 H866 0.931 . S
C880 C879 1.385 . S
C880 C881 1.389 . S
C881 C880 1.389 . S
C881 C882 1.399 . S
C882 H867 0.919 1_445 S
C882 C877 1.388 1_445 S
C882 C881 1.399 . S
H883 C895 0.930 . S
H884 C897 0.930 . S
H885 C898 0.930 . S
H886 C902 0.959 . S
H887 C902 0.959 . S
H888 C902 0.961 . S
H889 C903 0.960 . S
H890 C903 0.961 . S
H891 C903 0.959 . S
H892 C906 0.929 . S
H893 C907 0.931 . S
H894 C909 0.930 . S
C895 H883 0.930 . S
C895 C896 1.399 . S
C895 C900 1.399 . S
C896 C895 1.399 . S
C896 C897 1.376 1_545 S
C897 H884 0.930 . S
C897 C896 1.376 1_565 S
C897 C898 1.388 . S
C898 H885 0.930 . S
C898 C897 1.388 . S
C898 C899 1.390 . S
C899 C898 1.390 . S
C899 C900 1.394 1_565 S
C899 C905 1.465 1_556 S
C900 C895 1.399 . S
C900 C899 1.394 1_545 S
C900 C901 1.516 1_556 S
C901 C900 1.516 1_554 S
C901 C902 1.502 . S
C901 C903 1.561 . S
C901 C904 1.526 . S
C902 H886 0.959 . S
C902 H887 0.959 . S
C902 H888 0.961 . S
C902 C901 1.502 . S
C903 H889 0.960 . S
C903 H890 0.961 . S
C903 H891 0.959 . S
C903 C901 1.561 . S
C904 C901 1.526 . S
C904 C905 1.396 1_545 S
C904 C909 1.390 . S
C905 C899 1.465 1_554 S
C905 C904 1.396 1_565 S
C905 C906 1.399 . S
C906 H892 0.929 . S
C906 C905 1.399 . S
C906 C907 1.385 . S
C907 H893 0.931 . S
C907 C906 1.385 . S
C907 C908 1.389 . S
C908 C907 1.389 . S
C908 C909 1.387 1_565 S
C909 H894 0.930 . S
C909 C904 1.390 . S
C909 C908 1.387 1_545 S
H910 C922 0.930 . S
H911 C924 0.930 . S
H912 C925 0.930 . S
H913 C929 0.959 . S
H914 C929 0.959 . S
H915 C929 0.961 . S
H916 C930 0.960 . S
H917 C930 0.961 . S
H918 C930 0.959 . S
H919 C933 0.929 . S
H920 C934 0.931 . S
H921 C936 0.939 . S
C922 H910 0.930 . S
C922 C923 1.399 . S
C922 C927 1.399 . S
C923 C922 1.399 . S
C923 C924 1.376 1_545 S
C924 H911 0.930 . S
C924 C923 1.376 1_565 S
C924 C925 1.388 . S
C925 H912 0.930 . S
C925 C924 1.388 . S
C925 C926 1.390 . S
C926 C925 1.390 . S
C926 C927 1.394 1_565 S
C926 C932 1.465 . S
C927 C922 1.399 . S
C927 C926 1.394 1_545 S
C927 C928 1.516 . S
C928 C927 1.516 . S
C928 C929 1.502 . S
C928 C930 1.561 . S
C928 C931 1.526 . S
C929 H913 0.959 . S
C929 H914 0.959 . S
C929 H915 0.961 . S
C929 C928 1.502 . S
C930 H916 0.960 . S
C930 H917 0.961 . S
C930 H918 0.959 . S
C930 C928 1.561 . S
C931 C928 1.526 . S
C931 C932 1.396 1_545 S
C931 C936 1.392 . S
C932 C926 1.465 . S
C932 C931 1.396 1_565 S
C932 C933 1.399 . S
C933 H919 0.929 . S
C933 C932 1.399 . S
C933 C934 1.385 . S
C934 H920 0.931 . S
C934 C933 1.385 . S
C934 C935 1.389 . S
C935 C934 1.389 . S
C935 C936 1.376 1_565 S
C936 H921 0.939 . S
C936 C931 1.392 . S
C936 C935 1.376 1_545 S
H937 C949 0.930 . S
H938 C951 0.930 . S
H939 C952 0.930 . S
H940 C956 0.959 1_545 S
H941 C956 0.959 . S
H942 C956 0.961 . S
H943 C957 0.960 . S
H944 C957 0.961 . S
H945 C957 0.992 . S
H946 C960 0.929 . S
H947 C961 0.931 . S
H948 C963 0.930 1_465 S
C949 H937 0.930 . S
C949 C950 1.399 . S
C949 C954 1.399 . S
C950 C949 1.399 . S
C950 C951 1.376 1_455 S
C951 H938 0.930 . S
C951 C950 1.376 1_655 S
C951 C952 1.388 1_565 S
C952 H939 0.930 . S
C952 C951 1.388 1_545 S
C952 C953 1.391 . S
C953 C952 1.391 . S
C953 C954 1.391 1_645 S
C953 C959 1.467 . S
C954 C949 1.399 . S
C954 C953 1.391 1_465 S
C954 C955 1.516 . S
C955 C954 1.516 . S
C955 C956 1.502 . S
C955 C957 1.561 . S
C955 C958 1.526 . S
C956 H940 0.959 1_565 S
C956 H941 0.959 . S
C956 H942 0.961 . S
C956 C955 1.502 . S
C957 H943 0.960 . S
C957 H944 0.961 . S
C957 H945 0.992 . S
C957 C955 1.561 . S
C958 C955 1.526 . S
C958 C959 1.396 1_465 S
C958 C963 1.390 1_465 S
C959 C953 1.467 . S
C959 C958 1.396 1_645 S
C959 C960 1.399 . S
C960 H946 0.929 . S
C960 C959 1.399 . S
C960 C961 1.385 . S
C961 H947 0.931 . S
C961 C960 1.385 . S
C961 C962 1.389 . S
C962 C961 1.389 . S
C962 C963 1.387 . S
C963 H948 0.930 1_645 S
C963 C958 1.390 1_645 S
C963 C962 1.387 . S
H964 C976 0.930 . S
H965 C978 0.930 . S
H966 C979 0.930 . S
H967 C983 0.951 1_556 S
H968 C983 0.948 1_556 S
H969 C983 0.978 . S
H970 C984 0.960 . S
H971 C984 0.961 . S
H972 C984 0.959 . S
H973 C987 0.929 . S
H974 C988 0.931 . S
H975 C990 0.930 . S
C976 H964 0.930 . S
C976 C977 1.399 . S
C976 C981 1.399 . S
C977 C976 1.399 . S
C977 C978 1.376 . S
C978 H965 0.930 . S
C978 C977 1.376 . S
C978 C979 1.388 . S
C979 H966 0.930 . S
C979 C978 1.388 . S
C979 C980 1.390 . S
C980 C979 1.390 . S
C980 C981 1.394 . S
C980 C986 1.465 1_554 S
C981 C976 1.399 . S
C981 C980 1.394 . S
C981 C982 1.516 . S
C982 C981 1.516 . S
C982 C983 1.505 . S
C982 C984 1.561 . S
C982 C985 1.526 1_554 S
C983 H967 0.951 1_554 S
C983 H968 0.948 1_554 S
C983 H969 0.978 . S
C983 C982 1.505 . S
C984 H970 0.960 . S
C984 H971 0.961 . S
C984 H972 0.959 . S
C984 C982 1.561 . S
C985 C982 1.526 1_556 S
C985 C986 1.396 . S
C985 C990 1.390 . S
C986 C980 1.465 1_556 S
C986 C985 1.396 . S
C986 C987 1.399 . S
C987 H973 0.929 . S
C987 C986 1.399 . S
C987 C988 1.385 . S
C988 H974 0.931 . S
C988 C987 1.385 . S
C988 C989 1.389 . S
C989 C988 1.389 . S
C989 C990 1.387 . S
C990 H975 0.930 . S
C990 C985 1.390 . S
C990 C989 1.387 . S
H991 C1003 0.930 . S
H992 C1005 0.934 . S
H993 C1006 0.930 . S
H994 C1010 0.959 1_455 S
H995 C1010 0.959 . S
H996 C1010 0.961 . S
H997 C1011 0.960 . S
H998 C1011 0.961 . S
H999 C1011 0.959 . S
H1000 C1014 0.929 . S
H1001 C1015 0.931 . S
H1002 C1017 0.930 1_655 S
C1003 H991 0.930 . S
C1003 C1004 1.399 . S
C1003 C1008 1.399 . S
C1004 C1003 1.399 . S
C1004 C1005 1.376 . S
C1005 H992 0.934 . S
C1005 C1004 1.376 . S
C1005 C1006 1.388 1_655 S
C1006 H993 0.930 . S
C1006 C1005 1.388 1_455 S
C1006 C1007 1.397 . S
C1007 C1006 1.397 . S
C1007 C1008 1.377 1_455 S
C1007 C1013 1.474 1_554 S
C1008 C1003 1.399 . S
C1008 C1007 1.377 1_655 S
C1008 C1009 1.516 1_554 S
C1009 C1008 1.516 1_556 S
C1009 C1010 1.502 . S
C1009 C1011 1.561 . S
C1009 C1012 1.526 . S
C1010 H994 0.959 1_655 S
C1010 H995 0.959 . S
C1010 H996 0.961 . S
C1010 C1009 1.502 . S
C1011 H997 0.960 . S
C1011 H998 0.961 . S
C1011 H999 0.959 . S
C1011 C1009 1.561 . S
C1012 C1009 1.526 . S
C1012 C1013 1.396 1_655 S
C1012 C1017 1.390 1_655 S
C1013 C1007 1.474 1_556 S
C1013 C1012 1.396 1_455 S
C1013 C1014 1.399 . S
C1014 H1000 0.929 . S
C1014 C1013 1.399 . S
C1014 C1015 1.385 . S
C1015 H1001 0.931 . S
C1015 C1014 1.385 . S
C1015 C1016 1.389 . S
C1016 C1015 1.389 . S
C1016 C1017 1.387 . S
C1017 H1002 0.930 1_455 S
C1017 C1012 1.390 1_455 S
C1017 C1016 1.387 . S
H1018 C1030 0.930 . S
H1019 C1032 0.930 . S
H1020 C1033 0.930 . S
H1021 C1037 0.959 1_655 S
H1022 C1037 0.959 . S
H1023 C1037 0.961 . S
H1024 C1038 0.960 . S
H1025 C1038 0.961 . S
H1026 C1038 0.959 . S
H1027 C1041 0.929 . S
H1028 C1042 0.931 . S
H1029 C1044 0.930 . S
C1030 H1018 0.930 . S
C1030 C1031 1.399 . S
C1030 C1035 1.394 1_655 S
C1031 C1030 1.399 . S
C1031 C1032 1.376 . S
C1032 H1019 0.930 . S
C1032 C1031 1.376 . S
C1032 C1033 1.388 . S
C1033 H1020 0.930 . S
C1033 C1032 1.388 . S
C1033 C1034 1.390 . S
C1034 C1033 1.390 . S
C1034 C1035 1.389 1_655 S
C1034 C1040 1.465 1_655 S
C1035 C1030 1.394 1_455 S
C1035 C1034 1.389 1_455 S
C1035 C1036 1.526 . S
C1036 C1035 1.526 . S
C1036 C1037 1.502 . S
C1036 C1038 1.561 . S
C1036 C1039 1.526 . S
C1037 H1021 0.959 1_455 S
C1037 H1022 0.959 . S
C1037 H1023 0.961 . S
C1037 C1036 1.502 . S
C1038 H1024 0.960 . S
C1038 H1025 0.961 . S
C1038 H1026 0.959 . S
C1038 C1036 1.561 . S
C1039 C1036 1.526 . S
C1039 C1040 1.396 . S
C1039 C1044 1.390 . S
C1040 C1034 1.465 1_455 S
C1040 C1039 1.396 . S
C1040 C1041 1.399 1_455 S
C1041 H1027 0.929 . S
C1041 C1040 1.399 1_655 S
C1041 C1042 1.385 1_655 S
C1042 H1028 0.931 . S
C1042 C1041 1.385 1_455 S
C1042 C1043 1.389 . S
C1043 C1042 1.389 . S
C1043 C1044 1.387 . S
C1044 H1029 0.930 . S
C1044 C1039 1.390 . S
C1044 C1043 1.387 . S
H1045 C1057 0.930 . S
H1046 C1059 0.930 . S
H1047 C1060 0.930 . S
H1048 C1064 0.959 . S
H1049 C1064 0.959 . S
H1050 C1064 0.961 . S
H1051 C1065 0.960 . S
H1052 C1065 0.961 . S
H1053 C1065 0.959 . S
H1054 C1068 0.929 . S
H1055 C1069 0.931 . S
H1056 C1071 0.930 . S
C1057 H1045 0.930 . S
C1057 C1058 1.399 . S
C1057 C1062 1.399 . S
C1058 C1057 1.399 . S
C1058 C1059 1.376 . S
C1059 H1046 0.930 . S
C1059 C1058 1.376 . S
C1059 C1060 1.388 . S
C1060 H1047 0.930 . S
C1060 C1059 1.388 . S
C1060 C1061 1.390 . S
C1061 C1060 1.390 . S
C1061 C1062 1.394 . S
C1061 C1067 1.465 . S
C1062 C1057 1.399 . S
C1062 C1061 1.394 . S
C1062 C1063 1.516 . S
C1063 C1062 1.516 . S
C1063 C1064 1.502 . S
C1063 C1065 1.561 . S
C1063 C1066 1.526 . S
C1064 H1048 0.959 . S
C1064 H1049 0.959 . S
C1064 H1050 0.961 . S
C1064 C1063 1.502 . S
C1065 H1051 0.960 . S
C1065 H1052 0.961 . S
C1065 H1053 0.959 . S
C1065 C1063 1.561 . S
C1066 C1063 1.526 . S
C1066 C1067 1.396 . S
C1066 C1071 1.390 . S
C1067 C1061 1.465 . S
C1067 C1066 1.396 . S
C1067 C1068 1.399 . S
C1068 H1054 0.929 . S
C1068 C1067 1.399 . S
C1068 C1069 1.385 . S
C1069 H1055 0.931 . S
C1069 C1068 1.385 . S
C1069 C1070 1.389 . S
C1070 C1069 1.389 . S
C1070 C1071 1.387 . S
C1071 H1056 0.930 . S
C1071 C1066 1.390 . S
C1071 C1070 1.387 . S
C221 C13 1.436 . S
C233 C0 1.414 . S
C248 C26 1.439 . S
C260 C39 1.414 . S
C275 C52 1.415 . S
C287 C65 1.429 . S
C302 C91 1.475 . S
C314 C78 1.458 . S
C329 C117 1.437 . S
C341 C104 1.414 . S
C356 C143 1.477 . S
C368 C130 1.463 . S
C383 C169 1.413 . S
C395 C156 1.421 . S
C410 C195 1.477 . S
C422 C182 1.465 . S
C437 C49 1.219 . S
C449 C10 1.209 . S
C464 C23 1.213 . S
C476 C36 1.221 . S
C491 C101 1.220 . S
C503 C62 1.217 . S
C518 C88 1.217 . S
C530 C75 1.221 . S
C545 C114 1.220 . S
C557 C153 1.217 . S
C572 C140 1.208 . S
C584 C127 1.204 . S
C599 C205 1.221 . S
C611 C166 1.217 . S
C626 C179 1.220 . S
C638 C192 1.215 . S
C653 C5 1.460 . S
C665 C122 1.487 . S
C680 C18 1.491 . S
C692 C109 1.445 . S
C707 C148 1.491 . S
C719 C31 1.440 . S
C734 C135 1.490 . S
C746 C44 1.452 . S
C761 C174 1.448 . S
C773 C57 1.421 . S
C788 C161 1.428 . S
C800 C70 1.489 . S
C815 C83 1.442 . S
C827 C200 1.482 . S
C842 C96 1.483 . S
C854 C187 1.442 . S
C869 C60 1.039 . S
C881 C8 1.008 . S
C896 C73 1.069 . S
C908 C21 0.982 . S
C923 C86 1.060 . S
C935 C34 0.990 . S
C950 C99 1.041 . S
C962 C47 1.006 . S
C977 C112 0.991 . S
C989 C164 1.082 . S
C1004 C125 1.090 . S
C1016 C177 0.979 . S
C1031 C190 1.091 . S
C1043 C138 0.974 . S
C1058 C203 1.023 . S
C1070 C151 1.059 . S
